# Generated by pormake.
# Topology wio, (6)-cn, num edge types: 1
# Building blocks:
#     Node 0, Type 0, BuildingBlock: MIFKUJ_clean_sbu_0, # of connection points: 6
#     Node 1, Type 0, BuildingBlock: MIFKUJ_clean_sbu_0, # of connection points: 6
#     Node 2, Type 0, BuildingBlock: MIFKUJ_clean_sbu_0, # of connection points: 6
#     Node 3, Type 0, BuildingBlock: MIFKUJ_clean_sbu_0, # of connection points: 6
#     Node 4, Type 0, BuildingBlock: MIFKUJ_clean_sbu_0, # of connection points: 6
#     Node 5, Type 0, BuildingBlock: MIFKUJ_clean_sbu_0, # of connection points: 6
#     Node 6, Type 0, BuildingBlock: MIFKUJ_clean_sbu_0, # of connection points: 6
#     Node 7, Type 0, BuildingBlock: MIFKUJ_clean_sbu_0, # of connection points: 6
#     Node 8, Type 0, BuildingBlock: MIFKUJ_clean_sbu_0, # of connection points: 6
#     Node 9, Type 0, BuildingBlock: MIFKUJ_clean_sbu_0, # of connection points: 6
#     Node 10, Type 0, BuildingBlock: MIFKUJ_clean_sbu_0, # of connection points: 6
#     Node 11, Type 0, BuildingBlock: MIFKUJ_clean_sbu_0, # of connection points: 6
#     Node 12, Type 0, BuildingBlock: MIFKUJ_clean_sbu_0, # of connection points: 6
#     Node 13, Type 0, BuildingBlock: MIFKUJ_clean_sbu_0, # of connection points: 6
#     Node 14, Type 0, BuildingBlock: MIFKUJ_clean_sbu_0, # of connection points: 6
#     Node 15, Type 0, BuildingBlock: MIFKUJ_clean_sbu_0, # of connection points: 6
#     Node 16, Type 0, BuildingBlock: MIFKUJ_clean_sbu_0, # of connection points: 6
#     Node 17, Type 0, BuildingBlock: MIFKUJ_clean_sbu_0, # of connection points: 6
#     Node 18, Type 0, BuildingBlock: MIFKUJ_clean_sbu_0, # of connection points: 6
#     Node 19, Type 0, BuildingBlock: MIFKUJ_clean_sbu_0, # of connection points: 6
#     Node 20, Type 0, BuildingBlock: MIFKUJ_clean_sbu_0, # of connection points: 6
#     Node 21, Type 0, BuildingBlock: MIFKUJ_clean_sbu_0, # of connection points: 6
#     Node 22, Type 0, BuildingBlock: MIFKUJ_clean_sbu_0, # of connection points: 6
#     Node 23, Type 0, BuildingBlock: MIFKUJ_clean_sbu_0, # of connection points: 6
#     Node 24, Type 0, BuildingBlock: MIFKUJ_clean_sbu_0, # of connection points: 6
#     Node 25, Type 0, BuildingBlock: MIFKUJ_clean_sbu_0, # of connection points: 6
#     Node 26, Type 0, BuildingBlock: MIFKUJ_clean_sbu_0, # of connection points: 6
#     Node 27, Type 0, BuildingBlock: MIFKUJ_clean_sbu_0, # of connection points: 6
#     Node 28, Type 0, BuildingBlock: MIFKUJ_clean_sbu_0, # of connection points: 6
#     Node 29, Type 0, BuildingBlock: MIFKUJ_clean_sbu_0, # of connection points: 6
#     Node 30, Type 0, BuildingBlock: MIFKUJ_clean_sbu_0, # of connection points: 6
#     Node 31, Type 0, BuildingBlock: MIFKUJ_clean_sbu_0, # of connection points: 6
#     Edge 32, Type (0, 0), BuildingBlock: UVAHIK_clean_linker_0, # of connection points: 2
#     Edge 33, Type (0, 0), BuildingBlock: UVAHIK_clean_linker_0, # of connection points: 2
#     Edge 34, Type (0, 0), BuildingBlock: UVAHIK_clean_linker_0, # of connection points: 2
#     Edge 35, Type (0, 0), BuildingBlock: UVAHIK_clean_linker_0, # of connection points: 2
#     Edge 36, Type (0, 0), BuildingBlock: UVAHIK_clean_linker_0, # of connection points: 2
#     Edge 37, Type (0, 0), BuildingBlock: UVAHIK_clean_linker_0, # of connection points: 2
#     Edge 38, Type (0, 0), BuildingBlock: UVAHIK_clean_linker_0, # of connection points: 2
#     Edge 39, Type (0, 0), BuildingBlock: UVAHIK_clean_linker_0, # of connection points: 2
#     Edge 40, Type (0, 0), BuildingBlock: UVAHIK_clean_linker_0, # of connection points: 2
#     Edge 41, Type (0, 0), BuildingBlock: UVAHIK_clean_linker_0, # of connection points: 2
#     Edge 42, Type (0, 0), BuildingBlock: UVAHIK_clean_linker_0, # of connection points: 2
#     Edge 43, Type (0, 0), BuildingBlock: UVAHIK_clean_linker_0, # of connection points: 2
#     Edge 44, Type (0, 0), BuildingBlock: UVAHIK_clean_linker_0, # of connection points: 2
#     Edge 45, Type (0, 0), BuildingBlock: UVAHIK_clean_linker_0, # of connection points: 2
#     Edge 46, Type (0, 0), BuildingBlock: UVAHIK_clean_linker_0, # of connection points: 2
#     Edge 47, Type (0, 0), BuildingBlock: UVAHIK_clean_linker_0, # of connection points: 2
#     Edge 48, Type (0, 0), BuildingBlock: UVAHIK_clean_linker_0, # of connection points: 2
#     Edge 49, Type (0, 0), BuildingBlock: UVAHIK_clean_linker_0, # of connection points: 2
#     Edge 50, Type (0, 0), BuildingBlock: UVAHIK_clean_linker_0, # of connection points: 2
#     Edge 51, Type (0, 0), BuildingBlock: UVAHIK_clean_linker_0, # of connection points: 2
#     Edge 52, Type (0, 0), BuildingBlock: UVAHIK_clean_linker_0, # of connection points: 2
#     Edge 53, Type (0, 0), BuildingBlock: UVAHIK_clean_linker_0, # of connection points: 2
#     Edge 54, Type (0, 0), BuildingBlock: UVAHIK_clean_linker_0, # of connection points: 2
#     Edge 55, Type (0, 0), BuildingBlock: UVAHIK_clean_linker_0, # of connection points: 2
#     Edge 56, Type (0, 0), BuildingBlock: UVAHIK_clean_linker_0, # of connection points: 2
#     Edge 57, Type (0, 0), BuildingBlock: UVAHIK_clean_linker_0, # of connection points: 2
#     Edge 58, Type (0, 0), BuildingBlock: UVAHIK_clean_linker_0, # of connection points: 2
#     Edge 59, Type (0, 0), BuildingBlock: UVAHIK_clean_linker_0, # of connection points: 2
#     Edge 60, Type (0, 0), BuildingBlock: UVAHIK_clean_linker_0, # of connection points: 2
#     Edge 61, Type (0, 0), BuildingBlock: UVAHIK_clean_linker_0, # of connection points: 2
#     Edge 62, Type (0, 0), BuildingBlock: UVAHIK_clean_linker_0, # of connection points: 2
#     Edge 63, Type (0, 0), BuildingBlock: UVAHIK_clean_linker_0, # of connection points: 2
#     Edge 64, Type (0, 0), BuildingBlock: UVAHIK_clean_linker_0, # of connection points: 2
#     Edge 65, Type (0, 0), BuildingBlock: UVAHIK_clean_linker_0, # of connection points: 2
#     Edge 66, Type (0, 0), BuildingBlock: UVAHIK_clean_linker_0, # of connection points: 2
#     Edge 67, Type (0, 0), BuildingBlock: UVAHIK_clean_linker_0, # of connection points: 2
#     Edge 68, Type (0, 0), BuildingBlock: UVAHIK_clean_linker_0, # of connection points: 2
#     Edge 69, Type (0, 0), BuildingBlock: UVAHIK_clean_linker_0, # of connection points: 2
#     Edge 70, Type (0, 0), BuildingBlock: UVAHIK_clean_linker_0, # of connection points: 2
#     Edge 71, Type (0, 0), BuildingBlock: UVAHIK_clean_linker_0, # of connection points: 2
#     Edge 72, Type (0, 0), BuildingBlock: UVAHIK_clean_linker_0, # of connection points: 2
#     Edge 73, Type (0, 0), BuildingBlock: UVAHIK_clean_linker_0, # of connection points: 2
#     Edge 74, Type (0, 0), BuildingBlock: UVAHIK_clean_linker_0, # of connection points: 2
#     Edge 75, Type (0, 0), BuildingBlock: UVAHIK_clean_linker_0, # of connection points: 2
#     Edge 76, Type (0, 0), BuildingBlock: UVAHIK_clean_linker_0, # of connection points: 2
#     Edge 77, Type (0, 0), BuildingBlock: UVAHIK_clean_linker_0, # of connection points: 2
#     Edge 78, Type (0, 0), BuildingBlock: UVAHIK_clean_linker_0, # of connection points: 2
#     Edge 79, Type (0, 0), BuildingBlock: UVAHIK_clean_linker_0, # of connection points: 2
#     Edge 80, Type (0, 0), BuildingBlock: UVAHIK_clean_linker_0, # of connection points: 2
#     Edge 81, Type (0, 0), BuildingBlock: UVAHIK_clean_linker_0, # of connection points: 2
#     Edge 82, Type (0, 0), BuildingBlock: UVAHIK_clean_linker_0, # of connection points: 2
#     Edge 83, Type (0, 0), BuildingBlock: UVAHIK_clean_linker_0, # of connection points: 2
#     Edge 84, Type (0, 0), BuildingBlock: UVAHIK_clean_linker_0, # of connection points: 2
#     Edge 85, Type (0, 0), BuildingBlock: UVAHIK_clean_linker_0, # of connection points: 2
#     Edge 86, Type (0, 0), BuildingBlock: UVAHIK_clean_linker_0, # of connection points: 2
#     Edge 87, Type (0, 0), BuildingBlock: UVAHIK_clean_linker_0, # of connection points: 2
#     Edge 88, Type (0, 0), BuildingBlock: UVAHIK_clean_linker_0, # of connection points: 2
#     Edge 89, Type (0, 0), BuildingBlock: UVAHIK_clean_linker_0, # of connection points: 2
#     Edge 90, Type (0, 0), BuildingBlock: UVAHIK_clean_linker_0, # of connection points: 2
#     Edge 91, Type (0, 0), BuildingBlock: UVAHIK_clean_linker_0, # of connection points: 2
#     Edge 92, Type (0, 0), BuildingBlock: UVAHIK_clean_linker_0, # of connection points: 2
#     Edge 93, Type (0, 0), BuildingBlock: UVAHIK_clean_linker_0, # of connection points: 2
#     Edge 94, Type (0, 0), BuildingBlock: UVAHIK_clean_linker_0, # of connection points: 2
#     Edge 95, Type (0, 0), BuildingBlock: UVAHIK_clean_linker_0, # of connection points: 2
#     Edge 96, Type (0, 0), BuildingBlock: UVAHIK_clean_linker_0, # of connection points: 2
#     Edge 97, Type (0, 0), BuildingBlock: UVAHIK_clean_linker_0, # of connection points: 2
#     Edge 98, Type (0, 0), BuildingBlock: UVAHIK_clean_linker_0, # of connection points: 2
#     Edge 99, Type (0, 0), BuildingBlock: UVAHIK_clean_linker_0, # of connection points: 2
#     Edge 100, Type (0, 0), BuildingBlock: UVAHIK_clean_linker_0, # of connection points: 2
#     Edge 101, Type (0, 0), BuildingBlock: UVAHIK_clean_linker_0, # of connection points: 2
#     Edge 102, Type (0, 0), BuildingBlock: UVAHIK_clean_linker_0, # of connection points: 2
#     Edge 103, Type (0, 0), BuildingBlock: UVAHIK_clean_linker_0, # of connection points: 2
#     Edge 104, Type (0, 0), BuildingBlock: UVAHIK_clean_linker_0, # of connection points: 2
#     Edge 105, Type (0, 0), BuildingBlock: UVAHIK_clean_linker_0, # of connection points: 2
#     Edge 106, Type (0, 0), BuildingBlock: UVAHIK_clean_linker_0, # of connection points: 2
#     Edge 107, Type (0, 0), BuildingBlock: UVAHIK_clean_linker_0, # of connection points: 2
#     Edge 108, Type (0, 0), BuildingBlock: UVAHIK_clean_linker_0, # of connection points: 2
#     Edge 109, Type (0, 0), BuildingBlock: UVAHIK_clean_linker_0, # of connection points: 2
#     Edge 110, Type (0, 0), BuildingBlock: UVAHIK_clean_linker_0, # of connection points: 2
#     Edge 111, Type (0, 0), BuildingBlock: UVAHIK_clean_linker_0, # of connection points: 2
#     Edge 112, Type (0, 0), BuildingBlock: UVAHIK_clean_linker_0, # of connection points: 2
#     Edge 113, Type (0, 0), BuildingBlock: UVAHIK_clean_linker_0, # of connection points: 2
#     Edge 114, Type (0, 0), BuildingBlock: UVAHIK_clean_linker_0, # of connection points: 2
#     Edge 115, Type (0, 0), BuildingBlock: UVAHIK_clean_linker_0, # of connection points: 2
#     Edge 116, Type (0, 0), BuildingBlock: UVAHIK_clean_linker_0, # of connection points: 2
#     Edge 117, Type (0, 0), BuildingBlock: UVAHIK_clean_linker_0, # of connection points: 2
#     Edge 118, Type (0, 0), BuildingBlock: UVAHIK_clean_linker_0, # of connection points: 2
#     Edge 119, Type (0, 0), BuildingBlock: UVAHIK_clean_linker_0, # of connection points: 2
#     Edge 120, Type (0, 0), BuildingBlock: UVAHIK_clean_linker_0, # of connection points: 2
#     Edge 121, Type (0, 0), BuildingBlock: UVAHIK_clean_linker_0, # of connection points: 2
#     Edge 122, Type (0, 0), BuildingBlock: UVAHIK_clean_linker_0, # of connection points: 2
#     Edge 123, Type (0, 0), BuildingBlock: UVAHIK_clean_linker_0, # of connection points: 2
#     Edge 124, Type (0, 0), BuildingBlock: UVAHIK_clean_linker_0, # of connection points: 2
#     Edge 125, Type (0, 0), BuildingBlock: UVAHIK_clean_linker_0, # of connection points: 2
#     Edge 126, Type (0, 0), BuildingBlock: UVAHIK_clean_linker_0, # of connection points: 2
#     Edge 127, Type (0, 0), BuildingBlock: UVAHIK_clean_linker_0, # of connection points: 2
# Relax obj value: 0.185
# Max RMSD: 0.208
# Mean RMSD: 0.208
data_MOF--net-wio--node1-MIFKUJ_clean_sbu_0--edge1-UVAHIK_clean_linker_0
_symmetry_space_group_name_H-M    P1
_symmetry_Int_Tables_number       1
_symmetry_cell_setting            triclinic
loop_
_symmetry_equiv_pos_as_xyz
'x, y, z'
_cell_length_a     67.953829
_cell_length_b     67.864481
_cell_length_c     62.523166
_cell_angle_alpha  89.972406
_cell_angle_beta   89.956853
_cell_angle_gamma 89.933832
loop_
_atom_site_label
_atom_site_type_symbol
_atom_site_fract_x
_atom_site_fract_y
_atom_site_fract_z
_atom_type_partial_charge
Zn0 Zn 0.10597 0.11591 0.3203 0.0
Zn1 Zn 0.14255 0.11602 0.26773 0.0
C2 C 0.10855 0.08873 0.35377 0.0
O3 O 0.09054 0.08566 0.34694 0.0
C4 C 0.12495 0.13529 0.23071 0.0
O5 O 0.13352 0.15115 0.23833 0.0
O6 O 0.08162 0.13005 0.32999 0.0
O7 O 0.12554 0.13135 0.30411 0.0
O8 O 0.1475 0.14264 0.2824 0.0
C9 C 0.08027 0.13432 0.34968 0.0
O10 O 0.09618 0.13348 0.36157 0.0
O11 O 0.11898 0.10184 0.34474 0.0
C12 C 0.1719 0.09593 0.24197 0.0
O13 O 0.15692 0.09258 0.22922 0.0
O14 O 0.16904 0.10507 0.25945 0.0
O15 O 0.12855 0.09772 0.28875 0.0
O16 O 0.09828 0.09475 0.2999 0.0
O17 O 0.12628 0.1192 0.24103 0.0
C18 C 0.13747 0.14484 0.29937 0.0
C19 C 0.11157 0.09009 0.2865 0.0
Zn20 Zn 0.1248 0.86041 0.56428 0.0
Zn21 Zn 0.11833 0.90204 0.51762 0.0
C22 C 0.14847 0.85885 0.60135 0.0
O23 O 0.14923 0.84032 0.59536 0.0
C24 C 0.10017 0.88081 0.48153 0.0
O25 O 0.08319 0.88468 0.49066 0.0
O26 O 0.11352 0.83356 0.57035 0.0
O27 O 0.10769 0.88008 0.55098 0.0
O28 O 0.09196 0.90267 0.534 0.0
C29 C 0.10646 0.83033 0.58884 0.0
O30 O 0.10395 0.84528 0.60192 0.0
O31 O 0.13849 0.87107 0.5904 0.0
C32 C 0.13913 0.93189 0.49475 0.0
O33 O 0.14898 0.91644 0.48799 0.0
O34 O 0.12543 0.92949 0.50838 0.0
O35 O 0.14087 0.88985 0.53521 0.0
O36 O 0.14498 0.85828 0.54191 0.0
O37 O 0.11599 0.88626 0.49057 0.0
C38 C 0.0921 0.88981 0.54868 0.0
C39 C 0.14897 0.87339 0.53062 0.0
Zn40 Zn 0.37012 0.88506 0.82388 0.0
Zn41 Zn 0.33743 0.87349 0.7679 0.0
C42 C 0.35601 0.8939 0.86641 0.0
O43 O 0.36686 0.87865 0.87178 0.0
C44 C 0.35688 0.85654 0.73108 0.0
O45 O 0.35013 0.84001 0.73916 0.0
O46 O 0.39646 0.8791 0.83596 0.0
O47 O 0.3571 0.8611 0.81007 0.0
O48 O 0.33951 0.84764 0.78399 0.0
C49 C 0.4097 0.86796 0.82829 0.0
O50 O 0.40602 0.85709 0.8114 0.0
O51 O 0.35413 0.89829 0.84675 0.0
C52 C 0.30604 0.88926 0.74261 0.0
O53 O 0.32098 0.89573 0.73129 0.0
O54 O 0.30934 0.87961 0.75969 0.0
O55 O 0.34884 0.89208 0.78858 0.0
O56 O 0.37543 0.90504 0.80124 0.0
O57 O 0.35389 0.87257 0.74107 0.0
C58 C 0.34903 0.84615 0.80153 0.0
C59 C 0.36358 0.90314 0.78585 0.0
Zn60 Zn 0.35256 0.12639 0.07508 0.0
Zn61 Zn 0.36765 0.0944 0.01828 0.0
C62 C 0.3425 0.11841 0.11957 0.0
O63 O 0.35417 0.13337 0.12362 0.0
C64 C 0.38599 0.10939 0.97947 0.0
O65 O 0.40183 0.10062 0.98688 0.0
O66 O 0.35958 0.15415 0.0826 0.0
O67 O 0.37654 0.11177 0.06231 0.0
O68 O 0.39206 0.09518 0.03685 0.0
C69 C 0.37656 0.16029 0.08774 0.0
O70 O 0.3913 0.14784 0.08893 0.0
O71 O 0.34064 0.11247 0.10041 0.0
C72 C 0.34842 0.06254 0.9967 0.0
O73 O 0.34091 0.07711 0.98556 0.0
O74 O 0.36011 0.06628 0.01203 0.0
O75 O 0.34912 0.10873 0.03643 0.0
O76 O 0.33071 0.12924 0.05337 0.0
O77 O 0.37032 0.10907 0.99051 0.0
C78 C 0.39193 0.103 0.05548 0.0
C79 C 0.33401 0.11943 0.03659 0.0
Zn80 Zn 0.10884 0.87618 0.17506 0.0
Zn81 Zn 0.15114 0.86717 0.2215 0.0
C82 C 0.10981 0.89444 0.1332 0.0
O83 O 0.09074 0.89133 0.13369 0.0
C84 C 0.12946 0.85124 0.25833 0.0
O85 O 0.13215 0.83396 0.24933 0.0
O86 O 0.08091 0.86802 0.17117 0.0
O87 O 0.12678 0.85579 0.18707 0.0
O88 O 0.14925 0.84077 0.20574 0.0
C89 C 0.07444 0.85507 0.15839 0.0
O90 O 0.0869 0.84461 0.147 0.0
O91 O 0.12039 0.88852 0.14867 0.0
C92 C 0.1826 0.88692 0.2423 0.0
O93 O 0.16773 0.89715 0.24988 0.0
O94 O 0.17921 0.87328 0.22887 0.0
O95 O 0.13931 0.88824 0.20274 0.0
O96 O 0.10875 0.89693 0.19722 0.0
O97 O 0.13587 0.86662 0.24908 0.0
C98 C 0.13645 0.8403 0.19093 0.0
C99 C 0.12422 0.89797 0.20849 0.0
Zn100 Zn 0.36199 0.85729 0.4257 0.0
Zn101 Zn 0.36969 0.901 0.47124 0.0
C102 C 0.33054 0.8583 0.397 0.0
O103 O 0.32479 0.84478 0.41068 0.0
C104 C 0.38947 0.88529 0.50912 0.0
O105 O 0.40524 0.89378 0.5012 0.0
O106 O 0.37368 0.8307 0.42094 0.0
O107 O 0.38032 0.87763 0.43637 0.0
O108 O 0.3949 0.90149 0.45307 0.0
C109 C 0.38203 0.82663 0.40334 0.0
O110 O 0.3848 0.84079 0.38931 0.0
O111 O 0.34724 0.86634 0.39962 0.0
C112 C 0.35065 0.93129 0.49531 0.0
O113 O 0.34337 0.91586 0.50519 0.0
O114 O 0.36202 0.9287 0.47939 0.0
O115 O 0.3486 0.88675 0.45436 0.0
O116 O 0.34288 0.85531 0.44954 0.0
O117 O 0.37347 0.88601 0.49868 0.0
C118 C 0.39506 0.88873 0.43819 0.0
C119 C 0.34092 0.87072 0.46085 0.0
Zn120 Zn 0.37427 0.1129 0.67867 0.0
Zn121 Zn 0.33198 0.11811 0.7226 0.0
C122 C 0.37164 0.07854 0.65279 0.0
O123 O 0.38289 0.07186 0.66826 0.0
C124 C 0.35045 0.13956 0.75835 0.0
O125 O 0.34174 0.15538 0.75077 0.0
O126 O 0.40071 0.12492 0.67293 0.0
O127 O 0.35306 0.13024 0.68747 0.0
O128 O 0.32842 0.14284 0.70423 0.0
C129 C 0.40513 0.12962 0.65386 0.0
O130 O 0.39147 0.12876 0.63902 0.0
O131 O 0.36588 0.09636 0.65339 0.0
C132 C 0.30509 0.09905 0.75078 0.0
O133 O 0.32167 0.09175 0.75815 0.0
O134 O 0.30557 0.11035 0.73455 0.0
O135 O 0.3442 0.09432 0.70729 0.0
O136 O 0.37645 0.09538 0.70359 0.0
O137 O 0.34888 0.12336 0.74834 0.0
C138 C 0.34083 0.14406 0.68919 0.0
C139 C 0.36128 0.0879 0.7123 0.0
Zn140 Zn 0.11983 0.12637 0.9307 0.0
Zn141 Zn 0.11458 0.08349 0.97328 0.0
C142 C 0.15252 0.12713 0.90296 0.0
O143 O 0.15702 0.14118 0.91656 0.0
C144 C 0.09542 0.10855 0.00757 0.0
O145 O 0.079 0.1095 0.99655 0.0
O146 O 0.10758 0.15275 0.9253 0.0
O147 O 0.104 0.10508 0.94113 0.0
O148 O 0.08968 0.08008 0.95474 0.0
C149 C 0.10511 0.15694 0.90572 0.0
O150 O 0.10634 0.14273 0.89154 0.0
O151 O 0.13637 0.11795 0.90537 0.0
C152 C 0.13687 0.05495 0.99641 0.0
O153 O 0.14663 0.07077 0.00219 0.0
O154 O 0.12262 0.05668 0.98338 0.0
O155 O 0.13875 0.09618 0.95852 0.0
O156 O 0.138 0.12858 0.95484 0.0
O157 O 0.11005 0.09907 0.00018 0.0
C158 C 0.08983 0.09332 0.94055 0.0
C159 C 0.14544 0.11324 0.96333 0.0
Zn160 Zn 0.83822 0.86844 0.72295 0.0
Zn161 Zn 0.87969 0.87305 0.67691 0.0
C162 C 0.85795 0.85232 0.76121 0.0
O163 O 0.85561 0.83497 0.75226 0.0
C164 C 0.8712 0.90716 0.65199 0.0
O165 O 0.88102 0.91539 0.66768 0.0
O166 O 0.81045 0.87681 0.72886 0.0
O167 O 0.85184 0.88824 0.70429 0.0
O168 O 0.88359 0.89126 0.70127 0.0
C169 C 0.80723 0.89125 0.74132 0.0
O170 O 0.82227 0.9012 0.74889 0.0
O171 O 0.85216 0.86766 0.7514 0.0
C172 C 0.90892 0.85772 0.64954 0.0
O173 O 0.89429 0.85838 0.63583 0.0
O174 O 0.90575 0.86222 0.6689 0.0
O175 O 0.86103 0.85244 0.68679 0.0
O176 O 0.83808 0.84169 0.70833 0.0
O177 O 0.86856 0.88862 0.65204 0.0
C178 C 0.86784 0.89573 0.71093 0.0
C179 C 0.84942 0.83883 0.69244 0.0
Zn180 Zn 0.86419 0.08497 0.47681 0.0
Zn181 Zn 0.86085 0.12457 0.43066 0.0
C182 C 0.88222 0.10786 0.51213 0.0
O183 O 0.89894 0.10634 0.50171 0.0
C184 C 0.82803 0.12377 0.40323 0.0
O185 O 0.82394 0.13906 0.41533 0.0
O186 O 0.85559 0.05781 0.48552 0.0
O187 O 0.84301 0.09734 0.45886 0.0
O188 O 0.84391 0.12928 0.45557 0.0
C189 C 0.8416 0.05648 0.49895 0.0
O190 O 0.83284 0.07269 0.50542 0.0
O191 O 0.86668 0.10051 0.50412 0.0
C192 C 0.87514 0.15233 0.40163 0.0
O193 O 0.87449 0.13668 0.38929 0.0
O194 O 0.87166 0.15044 0.42143 0.0
O195 O 0.8817 0.1058 0.43813 0.0
O196 O 0.89014 0.08296 0.46134 0.0
O197 O 0.84374 0.11412 0.40681 0.0
C198 C 0.83675 0.1142 0.46455 0.0
C199 C 0.89383 0.09307 0.44473 0.0
Zn200 Zn 0.65186 0.11963 0.22212 0.0
Zn201 Zn 0.60866 0.11271 0.17793 0.0
C202 C 0.63477 0.13777 0.26036 0.0
O203 O 0.64095 0.15447 0.25213 0.0
C204 C 0.60798 0.08864 0.14038 0.0
O205 O 0.58907 0.08829 0.14472 0.0
O206 O 0.67981 0.1133 0.23011 0.0
O207 O 0.63932 0.09632 0.20573 0.0
O208 O 0.60739 0.0929 0.20068 0.0
C209 C 0.68299 0.09882 0.24256 0.0
O210 O 0.66812 0.08759 0.24821 0.0
O211 O 0.63735 0.12186 0.25004 0.0
C212 C 0.57776 0.131 0.15446 0.0
O213 O 0.59215 0.13379 0.14074 0.0
O214 O 0.58173 0.12369 0.17264 0.0
O215 O 0.62821 0.13006 0.19029 0.0
O216 O 0.65118 0.1462 0.20588 0.0
O217 O 0.61944 0.09869 0.15212 0.0
C218 C 0.62291 0.08847 0.21105 0.0
C219 C 0.63754 0.1459 0.19213 0.0
Zn220 Zn 0.61711 0.90007 0.97523 0.0
Zn221 Zn 0.62803 0.86223 0.92352 0.0
C222 C 0.59778 0.88178 0.01135 0.0
O223 O 0.5823 0.89119 0.00397 0.0
C224 C 0.65731 0.86352 0.8931 0.0
O225 O 0.66211 0.84842 0.90519 0.0
O226 O 0.62457 0.92716 0.98554 0.0
O227 O 0.6374 0.88829 0.95608 0.0
O228 O 0.64818 0.85948 0.94645 0.0
C229 C 0.63473 0.92842 0.00258 0.0
O230 O 0.64029 0.91221 0.01233 0.0
O231 O 0.61388 0.88272 0.00108 0.0
C232 C 0.60837 0.82951 0.90243 0.0
O233 O 0.60186 0.84261 0.88867 0.0
O234 O 0.61884 0.83498 0.91809 0.0
O235 O 0.60671 0.87962 0.9359 0.0
O236 O 0.59188 0.90033 0.95745 0.0
O237 O 0.64163 0.87298 0.8974 0.0
C238 C 0.64756 0.87311 0.96023 0.0
C239 C 0.59146 0.88936 0.94089 0.0
Zn240 Zn 0.83676 0.12022 0.77313 0.0
Zn241 Zn 0.87783 0.11478 0.8202 0.0
C242 C 0.85812 0.13699 0.73626 0.0
O243 O 0.85531 0.1542 0.74539 0.0
C244 C 0.87624 0.08314 0.84851 0.0
O245 O 0.89079 0.07824 0.83572 0.0
O246 O 0.80917 0.11242 0.76582 0.0
O247 O 0.84941 0.09951 0.7919 0.0
O248 O 0.88093 0.09533 0.79684 0.0
C249 C 0.80596 0.09789 0.7535 0.0
O250 O 0.82094 0.08738 0.74666 0.0
O251 O 0.85192 0.12149 0.74546 0.0
C252 C 0.90956 0.12978 0.8448 0.0
O253 O 0.89633 0.12896 0.86012 0.0
O254 O 0.90434 0.12601 0.82578 0.0
O255 O 0.85848 0.13379 0.80878 0.0
O256 O 0.83606 0.14677 0.78851 0.0
O257 O 0.86771 0.09963 0.84572 0.0
C258 C 0.86552 0.09151 0.78623 0.0
C259 C 0.84734 0.14816 0.80462 0.0
Zn260 Zn 0.61765 0.08792 0.52039 0.0
Zn261 Zn 0.62694 0.12802 0.57056 0.0
C262 C 0.59987 0.10391 0.48172 0.0
O263 O 0.58386 0.09533 0.48893 0.0
C264 C 0.65725 0.12621 0.60006 0.0
O265 O 0.66239 0.1409 0.58755 0.0
O266 O 0.62552 0.06 0.51324 0.0
O267 O 0.63747 0.10139 0.53899 0.0
O268 O 0.64673 0.13105 0.54741 0.0
C269 C 0.63741 0.05751 0.49775 0.0
O270 O 0.64405 0.07298 0.48742 0.0
O271 O 0.61549 0.10314 0.49282 0.0
C272 C 0.60909 0.16014 0.59361 0.0
O273 O 0.6059 0.14681 0.60845 0.0
O274 O 0.61712 0.15512 0.57615 0.0
O275 O 0.6062 0.10998 0.55833 0.0
O276 O 0.59179 0.08865 0.53736 0.0
O277 O 0.64109 0.11739 0.59641 0.0
C278 C 0.64688 0.11692 0.53422 0.0
C279 C 0.59106 0.09998 0.55363 0.0
Zn280 Zn 0.64935 0.86936 0.26913 0.0
Zn281 Zn 0.61197 0.87438 0.32277 0.0
C282 C 0.62965 0.85173 0.23251 0.0
O283 O 0.63565 0.83509 0.24105 0.0
C284 C 0.61491 0.90392 0.35329 0.0
O285 O 0.59967 0.90943 0.34181 0.0
O286 O 0.67696 0.87736 0.26087 0.0
O287 O 0.6363 0.888 0.2898 0.0
O288 O 0.60684 0.89528 0.30101 0.0
C289 C 0.67958 0.88892 0.2451 0.0
O290 O 0.66422 0.89617 0.23509 0.0
O291 O 0.63326 0.86783 0.2421 0.0
C292 C 0.58073 0.85867 0.3483 0.0
O293 O 0.59387 0.86005 0.36363 0.0
O294 O 0.58579 0.86262 0.32926 0.0
O295 O 0.63007 0.8556 0.30774 0.0
O296 O 0.65023 0.84269 0.2845 0.0
O297 O 0.62354 0.88783 0.34867 0.0
C298 C 0.62012 0.89699 0.2869 0.0
C299 C 0.6402 0.841 0.30165 0.0
Zn300 Zn 0.86687 0.90239 0.02215 0.0
Zn301 Zn 0.86194 0.85955 0.06528 0.0
C302 C 0.8856 0.88196 0.98546 0.0
O303 O 0.90264 0.88569 0.99451 0.0
C304 C 0.82974 0.8617 0.09385 0.0
O305 O 0.82332 0.8485 0.08019 0.0
O306 O 0.85878 0.92953 0.01296 0.0
O307 O 0.84369 0.8896 0.03843 0.0
O308 O 0.84292 0.85729 0.04187 0.0
C309 C 0.84498 0.9313 -0.00065 0.0
O310 O 0.83566 0.91543 0.99289 0.0
O311 O 0.86982 0.88716 0.99478 0.0
C312 C 0.87827 0.83085 0.0911 0.0
O313 O 0.87873 0.84631 0.10373 0.0
O314 O 0.87378 0.83326 0.0716 0.0
O315 O 0.8786 0.88005 0.05394 0.0
O316 O 0.89332 0.90401 0.0385 0.0
O317 O 0.84672 0.86913 0.09109 0.0
C318 C 0.83638 0.87293 0.03316 0.0
C319 C 0.89378 0.89041 0.05231 0.0
Zn320 Zn 0.6083 0.61369 0.81675 0.0
Zn321 Zn 0.65018 0.62037 0.77215 0.0
C322 C 0.60806 0.58605 0.85054 0.0
O323 O 0.59001 0.58399 0.84336 0.0
C324 C 0.6322 0.63944 0.73487 0.0
O325 O 0.63884 0.65596 0.74308 0.0
O326 O 0.5818 0.62474 0.82403 0.0
O327 O 0.62797 0.63097 0.80454 0.0
O328 O 0.65101 0.64675 0.78867 0.0
C329 C 0.57913 0.62904 0.84355 0.0
O330 O 0.59444 0.62984 0.85635 0.0
O331 O 0.61938 0.59852 0.84169 0.0
C332 C 0.6798 0.59885 0.75008 0.0
O333 O 0.66422 0.58954 0.74288 0.0
O334 O 0.67752 0.61269 0.76357 0.0
O335 O 0.63769 0.59722 0.78868 0.0
O336 O 0.60576 0.59451 0.7936 0.0
O337 O 0.63496 0.62336 0.74483 0.0
C338 C 0.6377 0.64657 0.80281 0.0
C339 C 0.62125 0.5894 0.78357 0.0
Zn340 Zn 0.62868 0.36229 0.07226 0.0
Zn341 Zn 0.61819 0.39861 0.01837 0.0
C342 C 0.64758 0.36365 0.11294 0.0
O343 O 0.64578 0.3445 0.11082 0.0
C344 C 0.59997 0.38084 0.9817 0.0
O345 O 0.58436 0.38981 0.9894 0.0
O346 O 0.61997 0.3347 0.07795 0.0
O347 O 0.60681 0.37835 0.05838 0.0
O348 O 0.5924 0.39794 0.03514 0.0
C349 C 0.60784 0.32898 0.09206 0.0
O350 O 0.59918 0.34197 0.10449 0.0
O351 O 0.6407 0.37492 0.0985 0.0
C352 C 0.63584 0.42841 0.99254 0.0
O353 O 0.64279 0.41275 0.98278 0.0
O354 O 0.62503 0.42621 0.009 0.0
O355 O 0.63752 0.38688 0.0386 0.0
O356 O 0.65018 0.35971 0.05059 0.0
O357 O 0.61606 0.38181 0.99197 0.0
C358 C 0.59151 0.38741 0.05204 0.0
C359 C 0.64909 0.37247 0.03587 0.0
Zn360 Zn 0.87712 0.36793 0.32072 0.0
Zn361 Zn 0.83709 0.36726 0.27247 0.0
C362 C 0.87541 0.39328 0.35603 0.0
O363 O 0.89354 0.39639 0.34956 0.0
C364 C 0.85845 0.35011 0.23612 0.0
O365 O 0.85434 0.333 0.24487 0.0
O366 O 0.90308 0.3554 0.32762 0.0
O367 O 0.85717 0.3517 0.30622 0.0
O368 O 0.83409 0.33995 0.28634 0.0
C369 C 0.90665 0.35152 0.34707 0.0
O370 O 0.89194 0.35102 0.3607 0.0
O371 O 0.86486 0.38078 0.34627 0.0
C372 C 0.80843 0.39058 0.2502 0.0
O373 O 0.82421 0.39804 0.24116 0.0
O374 O 0.81042 0.37754 0.26465 0.0
O375 O 0.85063 0.38582 0.29323 0.0
O376 O 0.88187 0.38982 0.3002 0.0
O377 O 0.85304 0.36584 0.24543 0.0
C378 C 0.84558 0.33774 0.30217 0.0
C379 C 0.86692 0.39416 0.28897 0.0
Zn380 Zn 0.85986 0.62244 0.56833 0.0
Zn381 Zn 0.86762 0.5847 0.51705 0.0
C382 C 0.83479 0.62239 0.60389 0.0
O383 O 0.8346 0.64113 0.59861 0.0
C384 C 0.88818 0.6028 0.48138 0.0
O385 O 0.90294 0.59173 0.4877 0.0
O386 O 0.87198 0.64801 0.57755 0.0
O387 O 0.87861 0.60357 0.55488 0.0
O388 O 0.89308 0.58198 0.53465 0.0
C389 C 0.87814 0.64955 0.59663 0.0
O390 O 0.87917 0.63366 0.60861 0.0
O391 O 0.8449 0.61036 0.59284 0.0
C392 C 0.85141 0.55834 0.48635 0.0
O393 O 0.84913 0.57505 0.47607 0.0
O394 O 0.85851 0.55847 0.50518 0.0
O395 O 0.8471 0.5975 0.53581 0.0
O396 O 0.84059 0.62782 0.54516 0.0
O397 O 0.87237 0.60289 0.49221 0.0
C398 C 0.89362 0.59326 0.55089 0.0
C399 C 0.83918 0.61402 0.53153 0.0
Zn400 Zn 0.61073 0.38056 0.67541 0.0
Zn401 Zn 0.65141 0.37075 0.72478 0.0
C402 C 0.6219 0.38836 0.6304 0.0
O403 O 0.61299 0.37191 0.62511 0.0
C404 C 0.63074 0.35267 0.76048 0.0
O405 O 0.63623 0.33607 0.75146 0.0
O406 O 0.58258 0.37364 0.67057 0.0
O407 O 0.62815 0.35958 0.68801 0.0
O408 O 0.64988 0.34474 0.70828 0.0
C409 C 0.57383 0.36 0.66052 0.0
O410 O 0.58408 0.3462 0.65088 0.0
O411 O 0.62265 0.39354 0.64989 0.0
C412 C 0.68161 0.38828 0.75 0.0
O413 O 0.66608 0.39482 0.76031 0.0
O414 O 0.67918 0.37768 0.73342 0.0
O415 O 0.63914 0.39081 0.70556 0.0
O416 O 0.60963 0.40116 0.69779 0.0
O417 O 0.63511 0.3689 0.75157 0.0
C418 C 0.63752 0.34413 0.69296 0.0
C419 C 0.62412 0.40093 0.71052 0.0
Zn420 Zn 0.86408 0.36352 0.92965 0.0
Zn421 Zn 0.86912 0.40271 0.97792 0.0
C422 C 0.83803 0.36255 0.89484 0.0
O423 O 0.83694 0.34425 0.90158 0.0
C424 C 0.88754 0.38048 0.01335 0.0
O425 O 0.90454 0.38493 0.00457 0.0
O426 O 0.87581 0.33718 0.92252 0.0
O427 O 0.88136 0.38299 0.94272 0.0
O428 O 0.89533 0.40532 0.96169 0.0
C429 C 0.88054 0.33365 0.90325 0.0
O430 O 0.88095 0.34829 0.8895 0.0
O431 O 0.84931 0.37458 0.90441 0.0
C432 C 0.84719 0.43149 0.00151 0.0
O433 O 0.83721 0.41583 0.0074 0.0
O434 O 0.86132 0.42953 0.98833 0.0
O435 O 0.84661 0.3914 0.95978 0.0
O436 O 0.8443 0.35987 0.95224 0.0
O437 O 0.87171 0.38594 0.0043 0.0
C438 C 0.89609 0.39381 0.94578 0.0
C439 C 0.83888 0.37458 0.96338 0.0
Zn440 Zn 0.87612 0.61486 0.17622 0.0
Zn441 Zn 0.83588 0.61849 0.22451 0.0
C442 C 0.87639 0.59237 0.13757 0.0
O443 O 0.8954 0.592 0.14136 0.0
C444 C 0.85431 0.63664 0.26143 0.0
O445 O 0.84586 0.6527 0.25411 0.0
O446 O 0.90314 0.62616 0.17158 0.0
O447 O 0.85618 0.6321 0.18938 0.0
O448 O 0.83348 0.64491 0.20913 0.0
C449 C 0.90844 0.63484 0.15454 0.0
O450 O 0.89533 0.63849 0.13964 0.0
O451 O 0.86515 0.60208 0.14991 0.0
C452 C 0.80639 0.59563 0.24631 0.0
O453 O 0.82136 0.58393 0.25033 0.0
O454 O 0.80906 0.61082 0.23477 0.0
O455 O 0.84715 0.59723 0.20484 0.0
O456 O 0.87853 0.59346 0.19756 0.0
O457 O 0.85271 0.6207 0.25091 0.0
C458 C 0.84478 0.64637 0.19307 0.0
C459 C 0.86359 0.58896 0.20876 0.0
Zn460 Zn 0.62425 0.62448 0.42676 0.0
Zn461 Zn 0.61714 0.58753 0.4776 0.0
C462 C 0.65286 0.62327 0.39455 0.0
O463 O 0.65417 0.64164 0.40101 0.0
C464 C 0.59859 0.60414 0.51499 0.0
O465 O 0.58335 0.59409 0.50811 0.0
O466 O 0.61298 0.65015 0.41659 0.0
O467 O 0.60513 0.60627 0.43953 0.0
O468 O 0.59131 0.58571 0.46123 0.0
C469 C 0.60921 0.65206 0.39681 0.0
O470 O 0.61019 0.6365 0.38436 0.0
O471 O 0.64034 0.61195 0.40334 0.0
C472 C 0.63839 0.55636 0.49921 0.0
O473 O 0.6508 0.57044 0.50419 0.0
O474 O 0.62353 0.5603 0.48766 0.0
O475 O 0.63942 0.59847 0.45915 0.0
O476 O 0.64282 0.62952 0.45034 0.0
O477 O 0.61433 0.60414 0.50401 0.0
C478 C 0.59044 0.59578 0.44418 0.0
C479 C 0.64727 0.61524 0.46258 0.0
Zn480 Zn 0.3396 0.369 0.22682 0.0
Zn481 Zn 0.36904 0.38548 0.16955 0.0
C482 C 0.36174 0.35372 0.26256 0.0
O483 O 0.35746 0.3367 0.25373 0.0
C484 C 0.35841 0.39128 0.12591 0.0
O485 O 0.37234 0.37808 0.12318 0.0
O486 O 0.31116 0.37111 0.23576 0.0
O487 O 0.34814 0.38956 0.20671 0.0
O488 O 0.37142 0.4064 0.1919 0.0
C489 C 0.29963 0.38581 0.23408 0.0
O490 O 0.30559 0.40181 0.22421 0.0
O491 O 0.35616 0.36951 0.25345 0.0
C492 C 0.40935 0.36916 0.16543 0.0
O493 O 0.40446 0.3552 0.179 0.0
O494 O 0.39667 0.38181 0.15961 0.0
O495 O 0.35856 0.36062 0.18382 0.0
O496 O 0.34437 0.34391 0.20996 0.0
O497 O 0.35316 0.39574 0.14483 0.0
C498 C 0.3615 0.40239 0.20845 0.0
C499 C 0.35252 0.3444 0.19156 0.0
Zn500 Zn 0.36473 0.59151 0.97479 0.0
Zn501 Zn 0.35748 0.62876 0.92217 0.0
C502 C 0.3832 0.61321 0.01082 0.0
O503 O 0.4001 0.61102 0.00088 0.0
C504 C 0.32412 0.62405 0.89632 0.0
O505 O 0.31881 0.63874 0.90873 0.0
O506 O 0.35538 0.564 0.98179 0.0
O507 O 0.34656 0.60623 0.95555 0.0
O508 O 0.33934 0.63608 0.94611 0.0
C509 C 0.34692 0.56046 -0.00046 0.0
O510 O 0.34347 0.57505 0.01282 0.0
O511 O 0.36757 0.60664 0.00229 0.0
C512 C 0.37292 0.65508 0.89119 0.0
O513 O 0.37023 0.63976 0.87871 0.0
O514 O 0.36946 0.65348 0.91105 0.0
O515 O 0.3779 0.61035 0.93454 0.0
O516 O 0.39036 0.58976 0.95797 0.0
O517 O 0.34102 0.61633 0.89892 0.0
C518 C 0.33824 0.62247 0.9599 0.0
C519 C 0.39195 0.5993 0.94045 0.0
Zn520 Zn 0.1427 0.61818 0.72702 0.0
Zn521 Zn 0.11342 0.60352 0.6695 0.0
C522 C 0.12256 0.63474 0.7641 0.0
O523 O 0.12653 0.6518 0.75517 0.0
C524 C 0.12935 0.59452 0.62789 0.0
O525 O 0.11905 0.60995 0.62186 0.0
O526 O 0.17128 0.61335 0.73392 0.0
O527 O 0.13061 0.59895 0.70779 0.0
O528 O 0.10726 0.58338 0.692 0.0
C529 C 0.18137 0.59757 0.73319 0.0
O530 O 0.17345 0.58126 0.72591 0.0
O531 O 0.12759 0.61897 0.75462 0.0
C532 C 0.07426 0.62079 0.66285 0.0
O533 O 0.07807 0.63328 0.67834 0.0
O534 O 0.08742 0.60889 0.65646 0.0
O535 O 0.12543 0.62802 0.68332 0.0
O536 O 0.14026 0.64355 0.70983 0.0
O537 O 0.13028 0.59018 0.64763 0.0
C538 C 0.11691 0.58642 0.70893 0.0
C539 C 0.13267 0.64375 0.69111 0.0
Zn540 Zn 0.11762 0.39731 0.47388 0.0
Zn541 Zn 0.12299 0.35711 0.42412 0.0
C542 C 0.10676 0.36898 0.50941 0.0
O543 O 0.09997 0.35624 0.49545 0.0
C544 C 0.15776 0.36516 0.39972 0.0
O545 O 0.16556 0.35447 0.41505 0.0
O546 O 0.12727 0.42483 0.47929 0.0
O547 O 0.13687 0.38157 0.45607 0.0
O548 O 0.14095 0.35063 0.44832 0.0
C549 C 0.13949 0.42796 0.49428 0.0
O550 O 0.14647 0.41301 0.50525 0.0
O551 O 0.11381 0.3853 0.50302 0.0
C552 C 0.11037 0.32877 0.3948 0.0
O553 O 0.11278 0.34377 0.38179 0.0
O554 O 0.11086 0.33177 0.41479 0.0
O555 O 0.10454 0.3771 0.43597 0.0
O556 O 0.09208 0.39944 0.45698 0.0
O557 O 0.13938 0.36866 0.40003 0.0
C558 C 0.14399 0.36486 0.46101 0.0
C559 C 0.09075 0.389 0.44014 0.0
Zn560 Zn 0.33538 0.61632 0.27087 0.0
Zn561 Zn 0.3769 0.61104 0.31555 0.0
C562 C 0.35569 0.6354 0.23487 0.0
O563 O 0.35116 0.6521 0.24428 0.0
C564 C 0.37725 0.58399 0.35024 0.0
O565 O 0.39585 0.58293 0.34458 0.0
O566 O 0.30801 0.6088 0.2622 0.0
O567 O 0.3478 0.59325 0.28766 0.0
O568 O 0.37992 0.59213 0.29214 0.0
C569 C 0.30479 0.59449 0.24955 0.0
O570 O 0.31968 0.58374 0.24291 0.0
O571 O 0.3508 0.61922 0.24362 0.0
C572 C 0.40512 0.62738 0.34299 0.0
O573 O 0.38952 0.62783 0.35542 0.0
O574 O 0.40308 0.62246 0.32354 0.0
O575 O 0.35712 0.62865 0.30392 0.0
O576 O 0.33379 0.64287 0.28679 0.0
O577 O 0.36576 0.59548 0.34015 0.0
C578 C 0.36453 0.58585 0.28279 0.0
C579 C 0.34667 0.64374 0.30133 0.0
Zn580 Zn 0.11779 0.58234 0.02343 0.0
Zn581 Zn 0.12489 0.62488 0.06992 0.0
C582 C 0.1024 0.6073 0.98877 0.0
O583 O 0.08588 0.6076 -0.0003 0.0
C584 C 0.14387 0.6266 0.11095 0.0
O585 O 0.14219 0.64565 0.10771 0.0
O586 O 0.12286 0.55439 0.01432 0.0
O587 O 0.14025 0.59311 0.04181 0.0
O588 O 0.14609 0.62437 0.04861 0.0
C589 C 0.13751 0.55033 0.00243 0.0
O590 O 0.15022 0.56429 -0.00211 0.0
O591 O 0.11718 0.59812 0.99622 0.0
C592 C 0.10536 0.6609 0.08564 0.0
O593 O 0.09721 0.64973 0.10034 0.0
O594 O 0.11625 0.65309 0.07148 0.0
O595 O 0.10661 0.60611 0.05664 0.0
O596 O 0.09102 0.58386 0.03884 0.0
O597 O 0.13678 0.6147 0.09731 0.0
C598 C 0.1491 0.60915 0.03722 0.0
C599 C 0.0908 0.59698 0.05327 0.0
Zn600 Zn 0.15152 0.36631 0.77067 0.0
Zn601 Zn 0.10891 0.37251 0.81383 0.0
C602 C 0.12568 0.34933 0.73617 0.0
O603 O 0.1226 0.33367 0.74807 0.0
C604 C 0.10707 0.40273 0.84429 0.0
O605 O 0.09066 0.40552 0.83357 0.0
O606 O 0.17913 0.37266 0.76125 0.0
O607 O 0.1399 0.39037 0.78644 0.0
O608 O 0.10756 0.39079 0.78953 0.0
C609 C 0.18286 0.38863 0.75143 0.0
O610 O 0.16869 0.40158 0.74876 0.0
O611 O 0.13643 0.36321 0.74317 0.0
C612 C 0.07833 0.35878 0.83996 0.0
O613 O 0.09304 0.35885 0.85357 0.0
O614 O 0.0819 0.36193 0.82033 0.0
O615 O 0.1289 0.35392 0.80505 0.0
O616 O 0.15296 0.34068 0.7879 0.0
O617 O 0.11839 0.38871 0.83879 0.0
C618 C 0.12323 0.39773 0.78134 0.0
C619 C 0.14048 0.33962 0.80288 0.0
Zn620 Zn 0.36872 0.40126 0.52071 0.0
Zn621 Zn 0.36258 0.36026 0.56739 0.0
C622 C 0.38704 0.37699 0.48644 0.0
O623 O 0.40358 0.37761 0.49727 0.0
C624 C 0.32978 0.36506 0.59501 0.0
O625 O 0.32266 0.3523 0.58127 0.0
O626 O 0.36112 0.42842 0.51103 0.0
O627 O 0.34604 0.38871 0.53758 0.0
O628 O 0.34372 0.35693 0.54377 0.0
C629 C 0.34748 0.43048 0.4973 0.0
O630 O 0.33784 0.41483 0.49077 0.0
O631 O 0.37181 0.38543 0.49385 0.0
C632 C 0.37658 0.33037 0.594 0.0
O633 O 0.37527 0.345 0.60767 0.0
O634 O 0.37411 0.33388 0.57428 0.0
O635 O 0.37992 0.38 0.55495 0.0
O636 O 0.39464 0.40306 0.5377 0.0
O637 O 0.34735 0.37111 0.59268 0.0
C638 C 0.33895 0.37189 0.53266 0.0
C639 C 0.39488 0.39067 0.55285 0.0
C640 C 0.19546 0.08203 0.21512 0.0
C641 C 0.19217 0.09159 0.23474 0.0
C642 C 0.21446 0.0806 0.20671 0.0
C643 C 0.25985 0.10864 0.20704 0.0
H644 H 0.28052 0.06499 0.17392 0.0
C645 C 0.33039 0.11783 0.15746 0.0
C646 C 0.32939 0.11053 0.13646 0.0
C647 C 0.31633 0.11232 0.17267 0.0
C648 C 0.27493 0.07734 0.18306 0.0
H649 H 0.20641 0.10582 0.26168 0.0
H650 H 0.23954 0.1034 0.2469 0.0
H651 H 0.2506 0.06054 0.19511 0.0
H652 H 0.31338 0.09096 0.11527 0.0
H653 H 0.28872 0.08173 0.14154 0.0
H654 H 0.28341 0.12579 0.19429 0.0
C655 C 0.22739 0.09722 0.23794 0.0
C656 C 0.25784 0.07475 0.19524 0.0
C657 C 0.20841 0.09854 0.24642 0.0
C658 C 0.3146 0.09688 0.1313 0.0
C659 C 0.30049 0.09146 0.14645 0.0
C660 C 0.27681 0.11128 0.19477 0.0
C661 C 0.23052 0.08879 0.21771 0.0
C662 C 0.24994 0.09049 0.20703 0.0
C663 C 0.3009 0.09947 0.16719 0.0
C664 C 0.28435 0.09579 0.18228 0.0
H665 H 0.18328 0.07637 0.20581 0.0
H666 H 0.21641 0.0741 0.19103 0.0
H667 H 0.25395 0.12116 0.21569 0.0
H668 H 0.34167 0.12828 0.16202 0.0
H669 H 0.3173 0.1185 0.1886 0.0
C670 C 0.13665 0.07179 0.3719 0.0
C671 C 0.11656 0.07666 0.37127 0.0
C672 C 0.14377 0.05879 0.38746 0.0
C673 C 0.13448 0.03833 0.44024 0.0
H674 H 0.15351 0.98844 0.41821 0.0
C675 C 0.12891 0.96682 0.48835 0.0
C676 C 0.14219 0.95134 0.48457 0.0
C677 C 0.13019 0.9843 0.47668 0.0
C678 C 0.14876 0.00241 0.42479 0.0
H679 H 0.08833 0.07261 0.38682 0.0
H680 H 0.10094 0.05052 0.41448 0.0
H681 H 0.14801 0.01586 0.39377 0.0
H682 H 0.16806 0.94257 0.46658 0.0
H683 H 0.17064 0.97331 0.44659 0.0
H684 H 0.13505 0.02503 0.47123 0.0
C685 C 0.11108 0.05652 0.4028 0.0
C686 C 0.14555 0.01808 0.41072 0.0
C687 C 0.10388 0.06905 0.38694 0.0
C688 C 0.15747 0.95415 0.46971 0.0
C689 C 0.15887 0.97175 0.45816 0.0
C690 C 0.13802 0.0228 0.45439 0.0
C691 C 0.13099 0.05101 0.40295 0.0
C692 C 0.13778 0.03592 0.41826 0.0
C693 C 0.14492 0.98685 0.46107 0.0
C694 C 0.14451 0.00439 0.44674 0.0
H695 H 0.14668 0.0774 0.35988 0.0
H696 H 0.15917 0.05463 0.38727 0.0
H697 H 0.12861 0.05206 0.44637 0.0
H698 H 0.11696 0.96514 0.49968 0.0
H699 H 0.11899 -0.00459 0.47921 0.0
C700 C 0.27069 0.87897 0.74183 0.0
C701 C 0.28589 0.89093 0.7339 0.0
C702 C 0.25257 0.87819 0.73131 0.0
C703 C 0.22043 0.90189 0.69153 0.0
H704 H 0.20907 0.84834 0.67399 0.0
C705 C 0.16924 0.88357 0.62042 0.0
C706 C 0.15972 0.86525 0.62017 0.0
C707 C 0.18199 0.8884 0.63718 0.0
C708 C 0.21156 0.86336 0.6791 0.0
H709 H 0.29355 0.91264 0.70979 0.0
H710 H 0.26181 0.91138 0.69158 0.0
H711 H 0.23548 0.85446 0.69908 0.0
H712 H 0.15465 0.83826 0.63778 0.0
H713 H 0.17581 0.84709 0.66763 0.0
H714 H 0.19643 0.91083 0.6716 0.0
C715 C 0.26396 0.90255 0.70584 0.0
C716 C 0.22683 0.86685 0.69346 0.0
C717 C 0.28216 0.90315 0.71619 0.0
C718 C 0.16212 0.85237 0.6375 0.0
C719 C 0.17439 0.8574 0.6545 0.0
C720 C 0.20485 0.89838 0.67741 0.0
C721 C 0.24926 0.88956 0.71288 0.0
C722 C 0.23161 0.88613 0.69957 0.0
C723 C 0.18506 0.87517 0.65423 0.0
C724 C 0.20041 0.87907 0.67073 0.0
H725 H 0.27308 0.86944 0.75549 0.0
H726 H 0.24138 0.86817 0.73712 0.0
H727 H 0.22385 0.91691 0.69606 0.0
H728 H 0.16765 0.89369 0.60713 0.0
H729 H 0.19006 0.90211 0.6362 0.0
C730 C 0.34307 0.92691 0.87704 0.0
C731 C 0.34913 0.90789 0.88296 0.0
C732 C 0.33927 0.94118 0.89254 0.0
C733 C 0.35082 0.9532 0.94905 0.0
H734 H 0.31645 -0.00282 0.93623 0.0
C735 C 0.36079 0.02865 0.98937 0.0
C736 C 0.34515 0.04212 0.98969 0.0
C737 C 0.35849 0.01019 0.97981 0.0
C738 C 0.32582 0.98492 0.94054 0.0
H739 H 0.3549 0.8886 0.90989 0.0
H740 H 0.34741 0.9133 0.93708 0.0
H741 H 0.31588 0.96844 0.91361 0.0
H742 H 0.31447 0.04656 0.98185 0.0
H743 H 0.30986 0.01384 0.96667 0.0
H744 H 0.3601 0.96931 0.97658 0.0
C745 C 0.34622 0.91741 0.9204 0.0
C746 C 0.32578 0.96846 0.92717 0.0
C747 C 0.35034 0.90317 0.90481 0.0
C748 C 0.32681 0.03643 0.98155 0.0
C749 C 0.32429 0.01772 0.97264 0.0
C750 C 0.3505 0.96947 0.96278 0.0
C751 C 0.34105 0.93676 0.91446 0.0
C752 C 0.33882 0.9527 0.93073 0.0
C753 C 0.34028 0.00456 0.9709 0.0
C754 C 0.33851 0.98591 0.9583 0.0
H755 H 0.34214 0.93113 0.86036 0.0
H756 H 0.33578 0.95594 0.88718 0.0
H757 H 0.36114 0.94143 0.95239 0.0
H758 H 0.37515 0.03282 0.99539 0.0
H759 H 0.37132 0.00081 0.97856 0.0
C760 C 0.29821 0.85685 0.37834 0.0
C761 C 0.31757 0.86402 0.37909 0.0
C762 C 0.28592 0.86159 0.36127 0.0
C763 C 0.27736 0.89646 0.31757 0.0
H764 H 0.24747 0.85287 0.29415 0.0
C765 C 0.20569 0.90311 0.26801 0.0
C766 C 0.2023 0.88892 0.25205 0.0
C767 C 0.22295 0.90258 0.28015 0.0
C768 C 0.25592 0.86516 0.30024 0.0
H769 H 0.3391 0.88223 0.36278 0.0
H770 H 0.31749 0.89041 0.33266 0.0
H771 H 0.27095 0.84682 0.32268 0.0
H772 H 0.21518 0.86429 0.23487 0.0
H773 H 0.24524 0.86337 0.25609 0.0
H774 H 0.26181 0.91485 0.29527 0.0
C775 C 0.3119 0.8812 0.34544 0.0
C776 C 0.26919 0.86173 0.31677 0.0
C777 C 0.32425 0.87644 0.3626 0.0
C778 C 0.21722 0.87527 0.24724 0.0
C779 C 0.23442 0.8747 0.25942 0.0
C780 C 0.26387 0.89995 0.30105 0.0
C781 C 0.29271 0.87356 0.34449 0.0
C782 C 0.27981 0.87735 0.32586 0.0
C783 C 0.23706 0.88781 0.27656 0.0
C784 C 0.2529 0.88432 0.29239 0.0
H785 H 0.2925 0.84748 0.39092 0.0
H786 H 0.27106 0.85582 0.36118 0.0
H787 H 0.28534 0.90877 0.32434 0.0
H788 H 0.19457 0.91397 0.27193 0.0
H789 H 0.22458 0.91286 0.29327 0.0
C790 C 0.33326 0.95464 0.51975 0.0
C791 C 0.34855 0.95095 0.50513 0.0
C792 C 0.33336 0.97173 0.53222 0.0
C793 C 0.36924 0.00127 0.5585 0.0
H794 H 0.32661 0.03684 0.57326 0.0
C795 C 0.37005 0.04516 0.63628 0.0
C796 C 0.36629 0.06547 0.63482 0.0
C797 C 0.36622 0.03277 0.61902 0.0
C798 C 0.33865 0.02707 0.56917 0.0
H799 H 0.37517 0.96283 0.491 0.0
H800 H 0.37559 0.99244 0.51321 0.0
H801 H 0.3225 0.01335 0.54364 0.0
H802 H 0.35488 0.08863 0.61434 0.0
H803 H 0.34824 0.0668 0.58395 0.0
H804 H 0.38521 0.01434 0.58426 0.0
C805 C 0.36348 0.98218 0.51486 0.0
C806 C 0.33628 0.01366 0.55232 0.0
C807 C 0.36319 0.96528 0.50213 0.0
C808 C 0.35796 0.07304 0.61593 0.0
C809 C 0.3541 0.06057 0.59858 0.0
C810 C 0.37149 0.01437 0.57546 0.0
C811 C 0.34894 0.9852 0.5305 0.0
C812 C 0.35157 0.00062 0.54694 0.0
C813 C 0.35856 0.04038 0.59987 0.0
C814 C 0.35617 0.02726 0.58112 0.0
H815 H 0.32171 0.94389 0.52225 0.0
H816 H 0.32202 0.97372 0.54422 0.0
H817 H 0.38114 0.99116 0.55486 0.0
H818 H 0.37617 0.03881 0.65073 0.0
H819 H 0.36943 0.01719 0.62059 0.0
C820 C 0.16086 0.10896 0.86905 0.0
C821 C 0.16618 0.12226 0.88528 0.0
C822 C 0.17396 0.10468 0.85235 0.0
C823 C 0.21746 0.12492 0.82467 0.0
H824 H 0.22776 0.071 0.80728 0.0
C825 C 0.28734 0.09039 0.78456 0.0
C826 C 0.28667 0.09672 0.76314 0.0
C827 C 0.27043 0.09091 0.79727 0.0
C828 C 0.2248 0.0861 0.8119 0.0
H829 H 0.18952 0.14125 0.89688 0.0
H830 H 0.21226 0.1337 0.86804 0.0
H831 H 0.20209 0.07784 0.83402 0.0
H832 H 0.26749 0.10729 0.73788 0.0
H833 H 0.2379 0.10835 0.76035 0.0
H834 H 0.24038 0.13309 0.80284 0.0
C835 C 0.19789 0.12683 0.86794 0.0
C836 C 0.21014 0.09004 0.82708 0.0
C837 C 0.18486 0.13108 0.88455 0.0
C838 C 0.2685 0.10251 0.75438 0.0
C839 C 0.25159 0.10306 0.76714 0.0
C840 C 0.23188 0.12099 0.80937 0.0
C841 C 0.19257 0.11368 0.85158 0.0
C842 C 0.20663 0.10948 0.83396 0.0
C843 C 0.25258 0.09767 0.78876 0.0
C844 C 0.23586 0.10156 0.80315 0.0
H845 H 0.14654 0.10196 0.86915 0.0
H846 H 0.16942 0.09457 0.8399 0.0
H847 H 0.21495 0.14006 0.82944 0.0
H848 H 0.30112 0.08598 0.79184 0.0
H849 H 0.27149 0.08698 0.81403 0.0
C850 C 0.1077 0.91107 0.09761 0.0
C851 C 0.11846 0.90685 0.11623 0.0
C852 C 0.11492 0.92449 0.08262 0.0
C853 C 0.14414 0.96872 0.08004 0.0
H854 H 0.14023 0.96161 0.01865 0.0
C855 C 0.15534 0.03403 0.02268 0.0
C856 C 0.14082 0.03577 0.00679 0.0
C857 C 0.15742 0.01649 0.03422 0.0
C858 C 0.14137 0.96385 0.03576 0.0
H859 H 0.14554 0.91287 0.1334 0.0
H860 H 0.15795 0.93665 0.10731 0.0
H861 H 0.13464 0.93362 0.04247 0.0
H862 H 0.11782 0.02014 0.98976 0.0
H863 H 0.12113 0.98988 0.01006 0.0
H864 H 0.14966 -0.00088 0.07358 0.0
C865 C 0.144 0.92945 0.10433 0.0
C866 C 0.13825 0.94781 0.04934 0.0
C867 C 0.13692 0.9158 0.11919 0.0
C868 C 0.12911 0.01933 0.00195 0.0
C869 C 0.13114 0.00186 0.01351 0.0
C870 C 0.14704 0.98481 0.06648 0.0
C871 C 0.13292 0.93413 0.08609 0.0
C872 C 0.13911 0.95022 0.07161 0.0
C873 C 0.14501 0.00036 0.03011 0.0
C874 C 0.14514 0.98269 0.04419 0.0
H875 H 0.09345 0.90438 0.09487 0.0
H876 H 0.10599 0.928 0.06878 0.0
H877 H 0.14471 0.97101 0.09717 0.0
H878 H 0.16471 0.04639 0.02668 0.0
H879 H 0.16846 0.01573 0.04668 0.0
C880 C 0.78436 0.90777 0.76712 0.0
C881 C 0.78735 0.89425 0.75039 0.0
C882 C 0.76679 0.90762 0.77877 0.0
C883 C 0.73097 0.87106 0.79508 0.0
H884 H 0.70502 0.91479 0.82341 0.0
C885 C 0.68868 0.86012 0.87284 0.0
C886 C 0.67023 0.86924 0.87511 0.0
C887 C 0.70094 0.86489 0.85576 0.0
C888 C 0.71198 0.90245 0.81542 0.0
H889 H 0.77347 0.87155 0.7312 0.0
H890 H 0.74284 0.87141 0.75143 0.0
H891 H 0.72899 0.92127 0.7949 0.0
H892 H 0.65033 0.89084 0.86146 0.0
H893 H 0.67188 0.8991 0.83127 0.0
H894 H 0.71443 0.85224 0.81571 0.0
C895 C 0.75422 0.88179 0.75586 0.0
C896 C 0.72575 0.90616 0.79923 0.0
C897 C 0.77176 0.88192 0.74423 0.0
C898 C 0.66446 0.88355 0.8601 0.0
C899 C 0.67679 0.88832 0.84289 0.0
C900 C 0.71736 0.86738 0.81125 0.0
C901 C 0.75193 0.89398 0.77385 0.0
C902 C 0.73558 0.89047 0.78911 0.0
C903 C 0.69506 0.87883 0.84044 0.0
C904 C 0.70802 0.88302 0.82191 0.0
H905 H 0.79601 0.91762 0.77211 0.0
H906 H 0.76546 0.9172 0.79255 0.0
H907 H 0.73849 0.85864 0.78787 0.0
H908 H 0.69372 0.84923 0.88426 0.0
H909 H 0.71512 0.85764 0.85457 0.0
C910 C 0.82657 0.03746 0.52894 0.0
C911 C 0.83783 0.03764 0.51008 0.0
C912 C 0.82634 0.02081 0.54201 0.0
C913 C 0.83531 0.96889 0.54921 0.0
H914 H 0.8625 0.98448 0.60101 0.0
C915 C 0.86312 0.91304 0.6134 0.0
C916 C 0.86349 0.91962 0.63468 0.0
C917 C 0.8578 0.92599 0.59691 0.0
C918 C 0.85451 0.97985 0.58691 0.0
H919 H 0.85589 0.01981 0.48895 0.0
H920 H 0.85522 0.99052 0.51188 0.0
H921 H 0.85521 0.00896 0.57389 0.0
H922 H 0.85733 0.94419 0.65573 0.0
H923 H 0.84701 0.96632 0.6274 0.0
H924 H 0.83417 0.93977 0.56251 0.0
C925 C 0.84681 0.0034 0.51652 0.0
C926 C 0.85048 -0.0061 0.57132 0.0
C927 C 0.84727 0.02018 0.50352 0.0
C928 C 0.85747 0.93888 0.63938 0.0
C929 C 0.85172 0.95161 0.62308 0.0
C930 C 0.83902 0.95477 0.56509 0.0
C931 C 0.83705 0.00394 0.53627 0.0
C932 C 0.84077 0.98859 0.55245 0.0
C933 C 0.85243 0.94559 0.60155 0.0
C934 C 0.84854 0.96015 0.58424 0.0
H935 H 0.81899 0.05059 0.53438 0.0
H936 H 0.81869 0.02146 0.55721 0.0
H937 H 0.82792 0.96453 0.53462 0.0
H938 H 0.86779 0.89822 0.60943 0.0
H939 H 0.85863 0.92086 0.58054 0.0
C940 C 0.7173 0.11054 0.24968 0.0
C941 C 0.70217 0.0969 0.25359 0.0
C942 C 0.7339 0.11108 0.26284 0.0
C943 C 0.76097 0.08502 0.30619 0.0
H944 H 0.77089 0.13818 0.32619 0.0
C945 C 0.82062 0.10474 0.36967 0.0
C946 C 0.81492 0.11861 0.3852 0.0
C947 C 0.80844 0.10078 0.35213 0.0
C948 C 0.76829 0.12323 0.32081 0.0
H949 H 0.69343 0.07199 0.27317 0.0
H950 H 0.72228 0.07308 0.29623 0.0
H951 H 0.74783 0.13284 0.29711 0.0
H952 H 0.79171 0.13873 0.39483 0.0
H953 H 0.77048 0.13167 0.36453 0.0
H954 H 0.78104 0.07546 0.33057 0.0
C955 C 0.72135 0.08335 0.28301 0.0
C956 C 0.75527 0.12018 0.30392 0.0
C957 C 0.70473 0.08281 0.26984 0.0
C958 C 0.79665 0.12811 0.38306 0.0
C959 C 0.78451 0.12414 0.36561 0.0
C960 C 0.77411 0.0881 0.32311 0.0
C961 C 0.73573 0.09799 0.28017 0.0
C962 C 0.75123 0.10104 0.29658 0.0
C963 C 0.79035 0.11063 0.3498 0.0
C964 C 0.77761 0.10723 0.33086 0.0
H965 H 0.71591 0.12144 0.23711 0.0
H966 H 0.74494 0.12227 0.25996 0.0
H967 H 0.75823 0.07011 0.30081 0.0
H968 H 0.83465 0.09722 0.37085 0.0
H969 H 0.81338 0.09037 0.34014 0.0
C970 C 0.62735 0.96428 0.007 0.0
C971 C 0.63849 0.94768 0.01271 0.0
C972 C 0.62898 0.98174 0.01867 0.0
C973 C 0.64338 -0.00164 0.07268 0.0
H974 H 0.6309 0.04973 0.04907 0.0
C975 C 0.63501 0.06822 0.12478 0.0
C976 C 0.61593 0.07608 0.12322 0.0
C977 C 0.64169 0.05452 0.10974 0.0
C978 C 0.63457 0.03548 0.0558 0.0
H979 H 0.6612 0.93674 0.03399 0.0
H980 H 0.66457 0.96738 0.05388 0.0
H981 H 0.63676 0.02197 0.025 0.0
H982 H 0.58923 0.07664 0.10429 0.0
H983 H 0.60117 0.05313 0.07761 0.0
H984 H 0.64113 0.012 0.10347 0.0
C985 C 0.65404 0.96678 0.0409 0.0
C986 C 0.63779 0.01955 0.04208 0.0
C987 C 0.6522 0.94924 0.02942 0.0
C988 C 0.60399 0.07075 0.10586 0.0
C989 C 0.61084 0.05743 0.09056 0.0
C990 C 0.64052 0.01436 0.08634 0.0
C991 C 0.642 0.98307 0.03613 0.0
C992 C 0.64163 0.00064 0.05037 0.0
C993 C 0.62957 0.04889 0.09264 0.0
C994 C 0.63556 0.0329 0.07803 0.0
H995 H 0.61665 0.96352 0.9942 0.0
H996 H 0.61927 -0.00616 0.01463 0.0
H997 H 0.64597 0.98402 0.07974 0.0
H998 H 0.64446 0.072 0.13811 0.0
H999 H 0.65617 0.04806 0.11165 0.0
C1000 C 0.77083 0.10812 0.74941 0.0
C1001 C 0.78624 0.09524 0.74396 0.0
C1002 C 0.75353 0.1084 0.73743 0.0
C1003 C 0.72491 0.08361 0.69472 0.0
H1004 H 0.71563 0.13726 0.67575 0.0
C1005 C 0.66405 0.1068 0.63356 0.0
C1006 C 0.67027 0.12027 0.61786 0.0
C1007 C 0.67642 0.10196 0.6507 0.0
C1008 C 0.718 0.1222 0.68091 0.0
H1009 H 0.79475 0.0711 0.72314 0.0
H1010 H 0.76454 0.07175 0.70209 0.0
H1011 H 0.73934 0.131 0.70399 0.0
H1012 H 0.6946 0.13861 0.60737 0.0
H1013 H 0.71605 0.1301 0.637 0.0
H1014 H 0.70388 0.07489 0.67093 0.0
C1015 C 0.76588 0.08166 0.71559 0.0
C1016 C 0.7314 0.11862 0.69729 0.0
C1017 C 0.78324 0.08138 0.72757 0.0
C1018 C 0.68922 0.12841 0.61934 0.0
C1019 C 0.70151 0.12358 0.63636 0.0
C1020 C 0.71132 0.08723 0.67834 0.0
C1021 C 0.75126 0.09579 0.7198 0.0
C1022 C 0.73524 0.0993 0.70417 0.0
C1023 C 0.69516 0.11055 0.6524 0.0
C1024 C 0.70808 0.10654 0.67099 0.0
H1025 H 0.77254 0.11878 0.76217 0.0
H1026 H 0.74232 0.1192 0.74129 0.0
H1027 H 0.72759 0.06858 0.69977 0.0
H1028 H 0.64953 0.10027 0.63281 0.0
H1029 H 0.67115 0.09191 0.66289 0.0
C1030 C 0.65868 0.03465 0.47684 0.0
C1031 C 0.6419 0.03765 0.48954 0.0
C1032 C 0.66131 0.01694 0.46587 0.0
C1033 C 0.64038 0.96652 0.45732 0.0
H1034 H 0.65305 0.9779 0.3981 0.0
C1035 C 0.63357 0.90958 0.38746 0.0
C1036 C 0.62218 0.9169 0.37046 0.0
C1037 C 0.63991 0.92222 0.40379 0.0
C1038 C 0.64967 0.97444 0.41462 0.0
H1039 H 0.61546 0.02406 0.50205 0.0
H1040 H 0.61959 -0.0066 0.48226 0.0
H1041 H 0.65765 0.00321 0.425 0.0
H1042 H 0.60879 0.94315 0.35697 0.0
H1043 H 0.62006 0.9651 0.38509 0.0
H1044 H 0.63129 0.93798 0.44634 0.0
C1045 C 0.63098 0.00449 0.48106 0.0
C1046 C 0.6525 0.98888 0.43014 0.0
C1047 C 0.62852 0.02212 0.49233 0.0
C1048 C 0.61748 0.93704 0.3699 0.0
C1049 C 0.62406 0.94965 0.38592 0.0
C1050 C 0.63758 0.952 0.44171 0.0
C1051 C 0.64702 0.00201 0.46704 0.0
C1052 C 0.64731 0.98535 0.45159 0.0
C1053 C 0.6353 0.9424 0.40304 0.0
C1054 C 0.64156 0.95612 0.42012 0.0
H1055 H 0.66941 0.04629 0.47473 0.0
H1056 H 0.6741 0.01532 0.45566 0.0
H1057 H 0.63648 0.96324 0.47374 0.0
H1058 H 0.63731 0.89408 0.38829 0.0
H1059 H 0.64853 0.9163 0.41687 0.0
C1060 C 0.79663 0.86509 0.11048 0.0
C1061 C 0.81703 0.86806 0.11173 0.0
C1062 C 0.78435 0.87099 0.12716 0.0
C1063 C 0.7828 0.88058 0.1845 0.0
H1064 H 0.7332 0.90537 0.16977 0.0
C1065 C 0.71378 0.87705 0.23792 0.0
C1066 C 0.69937 0.89176 0.23589 0.0
C1067 C 0.73103 0.87792 0.22575 0.0
C1068 C 0.74711 0.89884 0.17438 0.0
H1069 H 0.84067 0.87927 0.13154 0.0
H1070 H 0.81904 0.88938 0.16107 0.0
H1071 H 0.75769 0.89989 0.1422 0.0
H1072 H 0.69245 0.91989 0.22131 0.0
H1073 H 0.72291 0.9219 0.2008 0.0
H1074 H 0.77206 0.87931 0.21672 0.0
C1075 C 0.81263 0.88261 0.14703 0.0
C1076 C 0.76106 0.89546 0.15845 0.0
C1077 C 0.82496 0.87693 0.13012 0.0
C1078 C 0.70322 0.90818 0.2229 0.0
C1079 C 0.72061 0.90926 0.21106 0.0
C1080 C 0.76879 0.88398 0.20054 0.0
C1081 C 0.79218 0.87982 0.14559 0.0
C1082 C 0.77879 0.88578 0.16319 0.0
C1083 C 0.73433 0.8937 0.21157 0.0
C1084 C 0.75055 0.89271 0.19555 0.0
H1085 H 0.79008 0.85833 0.0965 0.0
H1086 H 0.76868 0.86839 0.12572 0.0
H1087 H 0.79636 0.87308 0.18861 0.0
H1088 H 0.71116 0.86419 0.24779 0.0
H1089 H 0.74112 0.86559 0.22648 0.0
C1090 C 0.85712 0.07523 0.88191 0.0
C1091 C 0.8698 0.06928 0.86534 0.0
C1092 C 0.85166 0.06191 0.89799 0.0
C1093 C 0.86943 0.01697 0.92402 0.0
H1094 H 0.81577 0.00974 0.9438 0.0
C1095 C 0.83024 0.95134 0.96971 0.0
C1096 C 0.84192 0.95031 0.98826 0.0
C1097 C 0.83034 0.96831 0.957 0.0
C1098 C 0.8308 0.01178 0.93845 0.0
H1099 H 0.88606 0.04455 0.85216 0.0
H1100 H 0.87649 0.02146 0.87997 0.0
H1101 H 0.82297 0.03464 0.91622 0.0
H1102 H 0.86137 0.96689 0.00906 0.0
H1103 H 0.86173 -0.00367 0.98663 0.0
H1104 H 0.87731 -0.00584 0.946 0.0
C1105 C 0.87106 0.03646 0.88082 0.0
C1106 C 0.83493 0.026 0.92281 0.0
C1107 C 0.87652 0.0497 0.86487 0.0
C1108 C 0.85243 0.96711 0.99472 0.0
C1109 C 0.85262 0.98397 0.98196 0.0
C1110 C 0.86537 0.00307 0.93979 0.0
C1111 C 0.85882 0.04247 0.89771 0.0
C1112 C 0.85427 0.02848 0.91522 0.0
C1113 C 0.84214 0.98443 0.96264 0.0
C1114 C 0.84604 0.00023 0.947 0.0
H1115 H 0.85171 0.09023 0.88265 0.0
H1116 H 0.84229 0.06693 0.9109 0.0
H1117 H 0.88449 0.01868 0.91863 0.0
H1118 H 0.82192 0.93868 0.96433 0.0
H1119 H 0.82227 0.96833 0.94206 0.0
C1120 C 0.70137 0.58254 0.72278 0.0
C1121 C 0.69931 0.59534 0.74034 0.0
C1122 C 0.71905 0.58179 0.71135 0.0
C1123 C 0.75743 0.61551 0.69673 0.0
H1124 H 0.78476 0.57041 0.67288 0.0
C1125 C 0.82204 0.62798 0.6405 0.0
C1126 C 0.82343 0.61576 0.62252 0.0
C1127 C 0.80973 0.62294 0.65745 0.0
C1128 C 0.77719 0.58315 0.67927 0.0
H1129 H 0.71472 0.61597 0.76087 0.0
H1130 H 0.74546 0.6147 0.74083 0.0
H1131 H 0.75779 0.56533 0.69834 0.0
H1132 H 0.81379 0.58838 0.60825 0.0
H1133 H 0.79125 0.58001 0.63736 0.0
H1134 H 0.7756 0.63341 0.67704 0.0
C1135 C 0.73332 0.60547 0.73578 0.0
C1136 C 0.76185 0.58021 0.69392 0.0
C1137 C 0.71572 0.60619 0.74723 0.0
C1138 C 0.81292 0.598 0.62205 0.0
C1139 C 0.80011 0.59318 0.6388 0.0
C1140 C 0.77243 0.61845 0.68192 0.0
C1141 C 0.7349 0.59384 0.71729 0.0
C1142 C 0.7519 0.59641 0.70278 0.0
C1143 C 0.79799 0.60588 0.65648 0.0
C1144 C 0.78257 0.60235 0.67298 0.0
H1145 H 0.68903 0.57388 0.71717 0.0
H1146 H 0.71988 0.57275 0.69709 0.0
H1147 H 0.74967 0.62825 0.70291 0.0
H1148 H 0.83032 0.6416 0.64133 0.0
H1149 H 0.80906 0.63273 0.67109 0.0
C1150 C 0.63508 0.56886 0.87034 0.0
C1151 C 0.61505 0.57368 0.86836 0.0
C1152 C 0.64133 0.55577 0.88625 0.0
C1153 C 0.62928 0.53482 0.9381 0.0
H1154 H 0.65062 0.48557 0.91694 0.0
C1155 C 0.62508 0.46321 0.98673 0.0
C1156 C 0.63862 0.44802 0.98281 0.0
C1157 C 0.626 0.48075 0.97508 0.0
C1158 C 0.64521 0.49936 0.92335 0.0
H1159 H 0.58599 0.56941 0.88192 0.0
H1160 H 0.59703 0.547 0.9101 0.0
H1161 H 0.64558 0.5129 0.89238 0.0
H1162 H 0.66466 0.43977 0.96488 0.0
H1163 H 0.66688 0.4707 0.94526 0.0
H1164 H 0.62893 0.52151 0.96908 0.0
C1165 C 0.60781 0.55317 0.89922 0.0
C1166 C 0.64224 0.51498 0.90918 0.0
C1167 C 0.6015 0.56586 0.88304 0.0
C1168 C 0.65386 0.45116 0.96802 0.0
C1169 C 0.65503 0.46886 0.95666 0.0
C1170 C 0.63263 0.51935 0.9524 0.0
C1171 C 0.6277 0.54777 0.90072 0.0
C1172 C 0.63372 0.53261 0.91633 0.0
C1173 C 0.64072 0.48365 0.9595 0.0
C1174 C 0.64004 0.50116 0.9451 0.0
H1175 H 0.6458 0.57465 0.85915 0.0
H1176 H 0.65673 0.55172 0.88712 0.0
H1177 H 0.62281 0.54839 0.94395 0.0
H1178 H 0.61312 0.46116 -0.00203 0.0
H1179 H 0.61453 0.49158 0.97758 0.0
C1180 C 0.66118 0.36062 0.14967 0.0
C1181 C 0.65945 0.37152 0.13071 0.0
C1182 C 0.6745 0.36628 0.16544 0.0
C1183 C 0.70927 0.40601 0.18243 0.0
H1184 H 0.73664 0.36152 0.20758 0.0
C1185 C 0.78658 0.40662 0.22298 0.0
C1186 C 0.78873 0.39467 0.24122 0.0
C1187 C 0.76859 0.40742 0.21215 0.0
C1188 C 0.72894 0.37411 0.20096 0.0
H1189 H 0.66967 0.39734 0.11364 0.0
H1190 H 0.69365 0.40686 0.14084 0.0
H1191 H 0.70953 0.3557 0.18333 0.0
H1192 H 0.77322 0.37578 0.26361 0.0
H1193 H 0.74198 0.37709 0.24461 0.0
H1194 H 0.72978 0.42429 0.19947 0.0
C1195 C 0.68436 0.39421 0.14384 0.0
C1196 C 0.7133 0.37081 0.18708 0.0
C1197 C 0.67066 0.38874 0.1282 0.0
C1198 C 0.77215 0.38488 0.24943 0.0
C1199 C 0.75426 0.38561 0.23856 0.0
C1200 C 0.72522 0.40932 0.19616 0.0
C1201 C 0.68683 0.38269 0.16239 0.0
C1202 C 0.70315 0.38667 0.17768 0.0
C1203 C 0.75255 0.39623 0.21938 0.0
C1204 C 0.73511 0.39335 0.2056 0.0
H1205 H 0.65252 0.34741 0.15212 0.0
H1206 H 0.67551 0.35741 0.1798 0.0
H1207 H 0.70174 0.41859 0.17559 0.0
H1208 H 0.79905 0.41449 0.21638 0.0
H1209 H 0.76764 0.4157 0.19737 0.0
C1210 C 0.84178 0.52268 0.48565 0.0
C1211 C 0.84815 0.53968 0.47491 0.0
C1212 C 0.83934 0.50498 0.47446 0.0
C1213 C 0.83727 0.48441 0.41899 0.0
H1214 H 0.85715 0.43704 0.44614 0.0
C1215 C 0.84768 0.4125 0.3717 0.0
C1216 C 0.86706 0.40546 0.37316 0.0
C1217 C 0.84078 0.42647 0.38633 0.0
C1218 C 0.85139 0.45013 0.43843 0.0
H1219 H 0.85725 0.55159 0.44432 0.0
H1220 H 0.85403 0.52074 0.42509 0.0
H1221 H 0.85372 0.46714 0.46704 0.0
H1222 H 0.89401 0.40626 0.39156 0.0
H1223 H 0.88187 0.43025 0.41744 0.0
H1224 H 0.8362 0.46767 0.39005 0.0
C1225 C 0.85001 0.52106 0.44185 0.0
C1226 C 0.84926 0.46735 0.45043 0.0
C1227 C 0.85201 0.53875 0.4529 0.0
C1228 C 0.87903 0.41159 0.39012 0.0
C1229 C 0.87202 0.4252 0.40499 0.0
C1230 C 0.83948 0.46721 0.407 0.0
C1231 C 0.84365 0.50392 0.45244 0.0
C1232 C 0.84282 0.48489 0.44067 0.0
C1233 C 0.85304 0.43322 0.40287 0.0
C1234 C 0.84716 0.45009 0.41645 0.0
H1235 H 0.83857 0.52312 0.50262 0.0
H1236 H 0.8342 0.49214 0.48307 0.0
H1237 H 0.83186 0.49753 0.41105 0.0
H1238 H 0.83824 0.40803 0.35861 0.0
H1239 H 0.82608 0.43241 0.38437 0.0
C1240 C 0.70393 0.40345 0.77716 0.0
C1241 C 0.70136 0.39096 0.75943 0.0
C1242 C 0.72174 0.40363 0.78832 0.0
C1243 C 0.75944 0.36909 0.80256 0.0
H1244 H 0.78795 0.41375 0.82557 0.0
C1245 C 0.82406 0.3559 0.85897 0.0
C1246 C 0.82627 0.36874 0.87632 0.0
C1247 C 0.81152 0.36072 0.84213 0.0
C1248 C 0.78004 0.40112 0.81946 0.0
H1249 H 0.71592 0.37002 0.73851 0.0
H1250 H 0.74692 0.37013 0.75825 0.0
H1251 H 0.76102 0.41922 0.80024 0.0
H1252 H 0.81765 0.39685 0.8897 0.0
H1253 H 0.7947 0.40488 0.8609 0.0
H1254 H 0.77718 0.35096 0.82249 0.0
C1255 C 0.7351 0.37971 0.7635 0.0
C1256 C 0.76474 0.40428 0.80484 0.0
C1257 C 0.71738 0.37968 0.75221 0.0
C1258 C 0.81619 0.38678 0.87635 0.0
C1259 C 0.80314 0.39139 0.85976 0.0
C1260 C 0.77439 0.36594 0.81739 0.0
C1261 C 0.73721 0.39119 0.78205 0.0
C1262 C 0.75434 0.38826 0.79627 0.0
C1263 C 0.80034 0.37821 0.84262 0.0
C1264 C 0.78494 0.38187 0.82609 0.0
H1265 H 0.69191 0.41248 0.783 0.0
H1266 H 0.72296 0.41256 0.80262 0.0
H1267 H 0.75134 0.3565 0.79658 0.0
H1268 H 0.83195 0.34201 0.85852 0.0
H1269 H 0.81034 0.35049 0.82892 0.0
C1270 C 0.87962 0.57385 0.10331 0.0
C1271 C 0.868 0.57972 0.12074 0.0
C1272 C 0.87234 0.5604 0.08841 0.0
C1273 C 0.84112 0.51811 0.08501 0.0
H1274 H 0.84623 0.52479 0.02366 0.0
C1275 C 0.82909 0.4528 0.02777 0.0
C1276 C 0.84363 0.45074 0.01192 0.0
C1277 C 0.82734 0.47038 0.03929 0.0
C1278 C 0.84476 0.52265 0.04075 0.0
H1279 H 0.83959 0.57641 0.1362 0.0
H1280 H 0.8271 0.55233 0.11038 0.0
H1281 H 0.85247 0.55266 0.0474 0.0
H1282 H 0.86708 0.46584 0.99502 0.0
H1283 H 0.86438 0.49614 0.0153 0.0
H1284 H 0.83474 0.48786 0.07866 0.0
C1285 C 0.84168 0.55843 0.10813 0.0
C1286 C 0.84823 0.53863 0.05428 0.0
C1287 C 0.8488 0.57223 0.12279 0.0
C1288 C 0.85575 0.46691 0.00715 0.0
C1289 C 0.85407 0.4844 0.01871 0.0
C1290 C 0.83794 0.50203 0.0715 0.0
C1291 C 0.85347 0.55229 0.09094 0.0
C1292 C 0.84691 0.53636 0.07653 0.0
C1293 C 0.84013 0.48624 0.03524 0.0
C1294 C 0.84028 0.50397 0.04923 0.0
H1295 H 0.89445 0.57941 0.10138 0.0
H1296 H 0.88177 0.55571 0.07539 0.0
H1297 H 0.84017 0.51598 0.10215 0.0
H1298 H 0.81941 0.44066 0.03172 0.0
H1299 H 0.81623 0.4714 0.05168 0.0
C1300 C 0.77255 0.60719 0.25562 0.0
C1301 C 0.78737 0.59286 0.25745 0.0
C1302 C 0.75564 0.60614 0.26821 0.0
C1303 C 0.73871 0.58544 0.31955 0.0
H1304 H 0.68931 0.60887 0.30162 0.0
C1305 C 0.67111 0.59629 0.37568 0.0
C1306 C 0.66563 0.61621 0.37709 0.0
C1307 C 0.68417 0.59004 0.35973 0.0
C1308 C 0.70298 0.60215 0.30676 0.0
H1309 H 0.79551 0.56546 0.27301 0.0
H1310 H 0.76567 0.56334 0.29467 0.0
H1311 H 0.71508 0.60282 0.27522 0.0
H1312 H 0.66887 0.64509 0.36266 0.0
H1313 H 0.69119 0.63405 0.33447 0.0
H1314 H 0.72643 0.58491 0.35116 0.0
C1315 C 0.76737 0.57569 0.28386 0.0
C1316 C 0.7178 0.59879 0.29171 0.0
C1317 C 0.78442 0.57684 0.27134 0.0
C1318 C 0.67293 0.62965 0.36198 0.0
C1319 C 0.68558 0.62334 0.34579 0.0
C1320 C 0.72374 0.58851 0.33453 0.0
C1321 C 0.75299 0.59061 0.28283 0.0
C1322 C 0.73611 0.59103 0.29804 0.0
C1323 C 0.69148 0.60354 0.34467 0.0
C1324 C 0.706 0.59744 0.32836 0.0
H1325 H 0.77432 0.61974 0.24508 0.0
H1326 H 0.7451 0.61808 0.26715 0.0
H1327 H 0.75266 0.57967 0.32511 0.0
H1328 H 0.66574 0.58567 0.38723 0.0
H1329 H 0.68858 0.5747 0.35915 0.0
C1330 C 0.62817 0.39755 0.592 0.0
C1331 C 0.62921 0.40214 0.61388 0.0
C1332 C 0.63347 0.4116 0.57662 0.0
C1333 C 0.65702 0.46135 0.57071 0.0
H1334 H 0.62233 0.4654 0.52181 0.0
C1335 C 0.65882 0.52978 0.51597 0.0
C1336 C 0.64053 0.53652 0.50854 0.0
C1337 C 0.66046 0.51124 0.52561 0.0
C1338 C 0.63206 0.46462 0.53548 0.0
H1339 H 0.63725 0.42481 0.63676 0.0
H1340 H 0.64562 0.44924 0.6103 0.0
H1341 H 0.62004 0.43697 0.54512 0.0
H1342 H 0.6096 0.52932 0.50547 0.0
H1343 H 0.61213 0.49769 0.52317 0.0
H1344 H 0.66782 0.48978 0.56225 0.0
C1345 C 0.6413 0.43476 0.60477 0.0
C1346 C 0.63101 0.44804 0.54867 0.0
C1347 C 0.63626 0.42073 0.62005 0.0
C1348 C 0.62395 0.5244 0.5108 0.0
C1349 C 0.62548 0.50612 0.52082 0.0
C1350 C 0.65776 0.47813 0.55782 0.0
C1351 C 0.63973 0.43054 0.58283 0.0
C1352 C 0.64307 0.44646 0.56684 0.0
C1353 C 0.64373 0.49925 0.52843 0.0
C1354 C 0.64489 0.48026 0.54037 0.0
H1355 H 0.6229 0.3833 0.58675 0.0
H1356 H 0.63235 0.4077 0.55987 0.0
H1357 H 0.66695 0.46042 0.58421 0.0
H1358 H 0.67187 0.53881 0.51431 0.0
H1359 H 0.67483 0.50639 0.53092 0.0
C1360 C 0.1907 0.37352 0.38505 0.0
C1361 C 0.17031 0.37203 0.38196 0.0
C1362 C 0.20311 0.37796 0.36798 0.0
C1363 C 0.20547 0.39543 0.31175 0.0
H1364 H 0.25184 0.36208 0.31094 0.0
C1365 C 0.27184 0.40331 0.25263 0.0
C1366 C 0.2809 0.38565 0.24613 0.0
C1367 C 0.2562 0.40297 0.26726 0.0
C1368 C 0.23888 0.37139 0.31077 0.0
H1369 H 0.14676 0.37483 0.3588 0.0
H1370 H 0.16862 0.38207 0.32861 0.0
H1371 H 0.2291 0.35989 0.34064 0.0
H1372 H 0.27958 0.3538 0.24828 0.0
H1373 H 0.25218 0.35318 0.27329 0.0
H1374 H 0.21538 0.4066 0.28142 0.0
C1375 C 0.17495 0.38014 0.34436 0.0
C1376 C 0.22596 0.37036 0.328 0.0
C1377 C 0.16245 0.37592 0.36161 0.0
C1378 C 0.27311 0.36766 0.25324 0.0
C1379 C 0.25747 0.36731 0.26765 0.0
C1380 C 0.21852 0.39648 0.29438 0.0
C1381 C 0.19548 0.38067 0.34729 0.0
C1382 C 0.20912 0.38235 0.32878 0.0
C1383 C 0.24936 0.38494 0.2755 0.0
C1384 C 0.23527 0.38431 0.29367 0.0
H1385 H 0.19714 0.3709 0.40064 0.0
H1386 H 0.21879 0.37877 0.37091 0.0
H1387 H 0.19266 0.40493 0.31195 0.0
H1388 H 0.27753 0.41742 0.2474 0.0
H1389 H 0.25025 0.41679 0.27302 0.0
C1390 C 0.36127 0.40199 0.08772 0.0
C1391 C 0.35188 0.40358 0.10769 0.0
C1392 C 0.35759 0.41579 0.07161 0.0
C1393 C 0.3244 0.45686 0.05546 0.0
H1394 H 0.37196 0.47862 0.03062 0.0
C1395 C 0.33128 0.53634 0.02444 0.0
C1396 C 0.34303 0.53999 0.00638 0.0
C1397 C 0.3296 0.5173 0.03271 0.0
C1398 C 0.35848 0.47248 0.03703 0.0
H1399 H 0.33028 0.42012 0.1259 0.0
H1400 H 0.32394 0.4442 0.0979 0.0
H1401 H 0.37395 0.44912 0.05263 0.0
H1402 H 0.36145 0.52642 0.98215 0.0
H1403 H 0.35867 0.49313 0.99677 0.0
H1404 H 0.30911 0.48086 0.04057 0.0
C1405 C 0.3341 0.43227 0.0946 0.0
C1406 C 0.35961 0.45554 0.04965 0.0
C1407 C 0.33781 0.41851 0.11072 0.0
C1408 C 0.35231 0.52407 0.99612 0.0
C1409 C 0.35081 0.50504 0.00453 0.0
C1410 C 0.32329 0.47387 0.0429 0.0
C1411 C 0.34438 0.43142 0.07509 0.0
C1412 C 0.34265 0.44777 0.0594 0.0
C1413 C 0.33979 0.50155 0.02319 0.0
C1414 C 0.34039 0.48208 0.03394 0.0
H1415 H 0.37216 0.39063 0.08481 0.0
H1416 H 0.36554 0.41456 0.05664 0.0
H1417 H 0.31102 0.45107 0.06248 0.0
H1418 H 0.32384 0.54829 0.03262 0.0
H1419 H 0.32113 0.51511 0.0472 0.0
C1420 C 0.20687 0.58041 0.75529 0.0
C1421 C 0.20062 0.59722 0.74405 0.0
C1422 C 0.22287 0.58154 0.76934 0.0
C1423 C 0.24733 0.61936 0.80191 0.0
H1424 H 0.28319 0.57716 0.81715 0.0
C1425 C 0.29095 0.62299 0.87957 0.0
C1426 C 0.3109 0.61764 0.87895 0.0
C1427 C 0.27858 0.61868 0.86245 0.0
C1428 C 0.27338 0.58913 0.81294 0.0
H1429 H 0.20726 0.62772 0.73693 0.0
H1430 H 0.23561 0.62949 0.76061 0.0
H1431 H 0.26122 0.57323 0.78641 0.0
H1432 H 0.33343 0.60297 0.86025 0.0
H1433 H 0.3118 0.59578 0.82994 0.0
H1434 H 0.25952 0.63543 0.828 0.0
C1435 C 0.22776 0.61566 0.75935 0.0
C1436 C 0.26069 0.58682 0.79546 0.0
C1437 C 0.21162 0.61463 0.74565 0.0
C1438 C 0.31809 0.60723 0.86115 0.0
C1439 C 0.30569 0.60307 0.84384 0.0
C1440 C 0.25998 0.62168 0.81922 0.0
C1441 C 0.233 0.59943 0.77214 0.0
C1442 C 0.24745 0.60191 0.7898 0.0
C1443 C 0.28588 0.60914 0.84414 0.0
C1444 C 0.273 0.60654 0.82515 0.0
H1445 H 0.19858 0.56681 0.7544 0.0
H1446 H 0.22647 0.56876 0.77897 0.0
H1447 H 0.2371 0.63116 0.79836 0.0
H1448 H 0.28491 0.63078 0.8932 0.0
H1449 H 0.26328 0.62309 0.86347 0.0
C1450 C 0.14046 0.5607 0.61801 0.0
C1451 C 0.13647 0.58019 0.61184 0.0
C1452 C 0.14452 0.54632 0.60271 0.0
C1453 C 0.13785 0.53599 0.54485 0.0
H1454 H 0.16804 0.48965 0.56014 0.0
C1455 C 0.12827 0.46235 0.50084 0.0
C1456 C 0.14325 0.44815 0.50176 0.0
C1457 C 0.1305 0.4804 0.51125 0.0
C1458 C 0.15992 0.50259 0.55521 0.0
H1459 H 0.13456 0.60014 0.58486 0.0
H1460 H 0.14266 0.57523 0.5581 0.0
H1461 H 0.16777 0.51768 0.58386 0.0
H1462 H 0.17287 0.4421 0.51263 0.0
H1463 H 0.17742 0.47413 0.52951 0.0
H1464 H 0.13073 0.52123 0.51572 0.0
C1465 C 0.14197 0.57086 0.57473 0.0
C1466 C 0.15942 0.51863 0.56915 0.0
C1467 C 0.13752 0.58521 0.59008 0.0
C1468 C 0.16103 0.45279 0.51193 0.0
C1469 C 0.1635 0.47108 0.5218 0.0
C1470 C 0.13874 0.52012 0.53062 0.0
C1471 C 0.14512 0.55112 0.58081 0.0
C1472 C 0.14786 0.53529 0.56453 0.0
C1473 C 0.14799 0.48487 0.52233 0.0
C1474 C 0.14929 0.50292 0.5359 0.0
H1475 H 0.13954 0.55626 0.63463 0.0
H1476 H 0.14637 0.53128 0.60812 0.0
H1477 H 0.12866 0.54845 0.54068 0.0
H1478 H 0.11434 0.45903 0.49325 0.0
H1479 H 0.11804 0.49034 0.51148 0.0
C1480 C 0.16619 0.6013 0.12714 0.0
C1481 C 0.15612 0.61934 0.12876 0.0
C1482 C 0.18003 0.59588 0.14262 0.0
C1483 C 0.21171 0.6194 0.18341 0.0
H1484 H 0.22439 0.56557 0.19917 0.0
C1485 C 0.26937 0.60397 0.24695 0.0
C1486 C 0.28504 0.59208 0.23997 0.0
C1487 C 0.25169 0.60437 0.23566 0.0
C1488 C 0.22094 0.58065 0.19487 0.0
H1489 H 0.15149 0.64513 0.14852 0.0
H1490 H 0.17482 0.63529 0.17603 0.0
H1491 H 0.19645 0.5721 0.17538 0.0
H1492 H 0.29385 0.56997 0.21676 0.0
H1493 H 0.26279 0.57075 0.19697 0.0
H1494 H 0.23601 0.62797 0.20292 0.0
C1495 C 0.17275 0.62567 0.16241 0.0
C1496 C 0.20503 0.58442 0.1812 0.0
C1497 C 0.15924 0.63126 0.14675 0.0
C1498 C 0.28209 0.57941 0.22245 0.0
C1499 C 0.2643 0.57978 0.21117 0.0
C1500 C 0.22733 0.61566 0.19722 0.0
C1501 C 0.18385 0.60825 0.16019 0.0
C1502 C 0.20023 0.60389 0.1753 0.0
C1503 C 0.24925 0.59284 0.21722 0.0
C1504 C 0.23212 0.5963 0.20311 0.0
H1505 H 0.16413 0.59187 0.11335 0.0
H1506 H 0.18837 0.58245 0.14024 0.0
H1507 H 0.20897 0.63452 0.17874 0.0
H1508 H 0.27103 0.61368 0.26057 0.0
H1509 H 0.24016 0.61433 0.24085 0.0
C1510 C 0.13126 0.41689 0.87042 0.0
C1511 C 0.11195 0.41568 0.8625 0.0
C1512 C 0.13583 0.43001 0.88698 0.0
C1513 C 0.11605 0.475 0.91325 0.0
H1514 H 0.15437 0.46317 0.95742 0.0
C1515 C 0.12178 0.51874 0.99106 0.0
C1516 C 0.13817 0.53137 0.99074 0.0
C1517 C 0.12075 0.50275 0.97709 0.0
C1518 C 0.14371 0.46658 0.94509 0.0
H1519 H 0.08212 0.42647 0.86636 0.0
H1520 H 0.08984 0.44868 0.89556 0.0
H1521 H 0.14767 0.4388 0.92933 0.0
H1522 H 0.16702 0.53616 0.97675 0.0
H1523 H 0.16523 0.50782 0.95249 0.0
H1524 H 0.11165 0.50244 0.92947 0.0
C1525 C 0.10169 0.44015 0.88856 0.0
C1526 C 0.13992 0.45275 0.92896 0.0
C1527 C 0.09721 0.42731 0.87188 0.0
C1528 C 0.15415 0.52677 0.9773 0.0
C1529 C 0.1532 0.51056 0.96349 0.0
C1530 C 0.11961 0.48859 0.92948 0.0
C1531 C 0.12111 0.44199 0.89608 0.0
C1532 C 0.12587 0.45673 0.91295 0.0
C1533 C 0.13622 0.49887 0.96285 0.0
C1534 C 0.13333 0.48444 0.94556 0.0
H1535 H 0.14293 0.40809 0.86348 0.0
H1536 H 0.15096 0.43111 0.89224 0.0
H1537 H 0.10557 0.47888 0.9009 0.0
H1538 H 0.10924 0.52182 0.00123 0.0
H1539 H 0.10751 0.49388 0.97675 0.0
C1540 C 0.29678 0.37016 0.61145 0.0
C1541 C 0.3173 0.37214 0.61279 0.0
C1542 C 0.28474 0.3762 0.62829 0.0
C1543 C 0.2841 0.38287 0.68598 0.0
H1544 H 0.23445 0.40884 0.67397 0.0
C1545 C 0.21573 0.37579 0.73973 0.0
C1546 C 0.20204 0.39131 0.74052 0.0
C1547 C 0.23251 0.3772 0.72689 0.0
C1548 C 0.24838 0.40192 0.67777 0.0
H1549 H 0.34137 0.38205 0.63281 0.0
H1550 H 0.32018 0.39234 0.66262 0.0
H1551 H 0.25859 0.40489 0.64555 0.0
H1552 H 0.19599 0.42108 0.72972 0.0
H1553 H 0.22544 0.42366 0.70755 0.0
H1554 H 0.27366 0.3795 0.71813 0.0
C1555 C 0.31349 0.38623 0.64839 0.0
C1556 C 0.26213 0.39947 0.6614 0.0
C1557 C 0.32557 0.38043 0.63132 0.0
C1558 C 0.20613 0.40876 0.72926 0.0
C1559 C 0.22297 0.41021 0.71648 0.0
C1560 C 0.27029 0.38527 0.7024 0.0
C1561 C 0.29294 0.38416 0.647 0.0
C1562 C 0.27988 0.38942 0.66516 0.0
C1563 C 0.23604 0.39421 0.71462 0.0
C1564 C 0.25203 0.39435 0.69834 0.0
H1565 H 0.28995 0.3639 0.59735 0.0
H1566 H 0.26899 0.37416 0.62685 0.0
H1567 H 0.29764 0.37503 0.68934 0.0
H1568 H 0.21306 0.36214 0.74824 0.0
H1569 H 0.24213 0.36452 0.7257 0.0
C1570 C 0.35785 0.46514 0.48987 0.0
C1571 C 0.34452 0.44966 0.48652 0.0
C1572 C 0.35688 0.4822 0.47744 0.0
C1573 C 0.3392 0.49831 0.42445 0.0
H1574 H 0.35931 0.54872 0.44375 0.0
C1575 C 0.35017 0.5654 0.36826 0.0
C1576 C 0.36986 0.57169 0.3679 0.0
C1577 C 0.34363 0.55254 0.38424 0.0
C1578 C 0.35353 0.53475 0.43822 0.0
H1579 H 0.31876 0.44053 0.46863 0.0
H1580 H 0.31668 0.47057 0.44735 0.0
H1581 H 0.3527 0.52274 0.46982 0.0
H1582 H 0.39792 0.57027 0.3843 0.0
H1583 H 0.38631 0.54823 0.41256 0.0
H1584 H 0.34012 0.51047 0.39282 0.0
C1585 C 0.3283 0.46929 0.45912 0.0
C1586 C 0.34985 0.51982 0.45308 0.0
C1587 C 0.3294 0.45211 0.47142 0.0
C1588 C 0.3827 0.56553 0.38417 0.0
C1589 C 0.37604 0.55307 0.40039 0.0
C1590 C 0.34256 0.51336 0.40965 0.0
C1591 C 0.3424 0.4843 0.46151 0.0
C1592 C 0.34324 0.50119 0.44631 0.0
C1593 C 0.35655 0.54623 0.40036 0.0
C1594 C 0.35028 0.53149 0.41636 0.0
H1595 H 0.36966 0.46374 0.50139 0.0
H1596 H 0.36817 0.49326 0.47962 0.0
H1597 H 0.3344 0.48412 0.41852 0.0
H1598 H 0.34002 0.56989 0.35582 0.0
H1599 H 0.32855 0.54741 0.38392 0.0
C1600 C 0.13233 0.30686 0.37444 0.0
C1601 C 0.11556 0.30903 0.38727 0.0
C1602 C 0.13916 0.28821 0.36905 0.0
C1603 C 0.13342 0.23468 0.38094 0.0
H1604 H 0.15117 0.23001 0.32219 0.0
C1605 C 0.1265 0.16531 0.33002 0.0
C1606 C 0.14036 0.1616 0.31387 0.0
C1607 C 0.12841 0.18167 0.34325 0.0
C1608 C 0.14677 0.23105 0.33881 0.0
H1609 H 0.09296 0.2937 0.40508 0.0
H1610 H 0.10392 0.26077 0.39412 0.0
H1611 H 0.14386 0.26212 0.33656 0.0
H1612 H 0.1679 0.17117 0.29981 0.0
H1613 H 0.17126 0.20002 0.32297 0.0
H1614 H 0.13521 0.20315 0.38241 0.0
C1615 C 0.11223 0.27348 0.38882 0.0
C1616 C 0.14251 0.24954 0.34711 0.0
C1617 C 0.10571 0.29226 0.39478 0.0
C1618 C 0.1568 0.17395 0.31187 0.0
C1619 C 0.15878 0.19033 0.3252 0.0
C1620 C 0.13751 0.21605 0.3725 0.0
C1621 C 0.12903 0.27127 0.37581 0.0
C1622 C 0.13536 0.2516 0.36809 0.0
C1623 C 0.14426 0.19466 0.34055 0.0
C1624 C 0.14374 0.21408 0.35116 0.0
H1625 H 0.14061 0.31961 0.36917 0.0
H1626 H 0.15249 0.28711 0.35962 0.0
H1627 H 0.12835 0.23578 0.39731 0.0
H1628 H 0.11371 0.15602 0.33187 0.0
H1629 H 0.11683 0.18476 0.35468 0.0
C1630 C 0.06185 0.90065 0.56826 0.0
C1631 C 0.07503 0.88573 0.56224 0.0
C1632 C 0.04575 0.89614 0.58132 0.0
C1633 C 0.01343 0.855 0.59242 0.0
H1634 H -0.00574 0.88678 0.63957 0.0
C1635 C 0.9333 0.855 0.61992 0.0
C1636 C 0.92934 0.85576 0.64193 0.0
C1637 C 0.95258 0.85636 0.61251 0.0
C1638 C -0.00038 0.87764 0.62662 0.0
H1639 H 0.08173 0.85467 0.56449 0.0
H1640 H 0.05399 0.84681 0.58752 0.0
H1641 H 0.02592 0.89479 0.62287 0.0
H1642 H 0.94252 0.8574 0.67353 0.0
H1643 H 0.97631 0.8597 0.66044 0.0
H1644 H 0.98708 0.83813 0.59574 0.0
C1645 C 0.05605 0.86193 0.5824 0.0
C1646 C 0.01756 0.88234 0.61697 0.0
C1647 C 0.07203 0.86643 0.56945 0.0
C1648 C 0.94511 0.85689 0.65645 0.0
C1649 C 0.96441 0.85832 0.64901 0.0
C1650 C -0.00449 0.85041 0.60192 0.0
C1651 C 0.0426 0.87666 0.58819 0.0
C1652 C 0.02444 0.87119 0.5996 0.0
C1653 C 0.96823 0.85846 0.62697 0.0
C1654 C 0.98829 0.86189 0.61882 0.0
H1655 H 0.06399 0.91567 0.56289 0.0
H1656 H 0.03542 0.90771 0.58544 0.0
H1657 H 0.01834 0.84627 0.57892 0.0
H1658 H 0.92148 0.85423 0.60834 0.0
H1659 H 0.95515 0.85663 0.59541 0.0
C1660 C 0.33806 0.81685 0.82213 0.0
C1661 C 0.35276 0.82682 0.81081 0.0
C1662 C 0.34229 0.79878 0.83184 0.0
C1663 C 0.37622 0.757 0.8278 0.0
H1664 H 0.35744 0.74441 0.88476 0.0
C1665 C 0.3727 0.67797 0.86005 0.0
C1666 C 0.3761 0.67477 0.88191 0.0
C1667 C 0.37242 0.69706 0.85184 0.0
C1668 C 0.36303 0.74781 0.86895 0.0
H1669 H 0.38311 0.82634 0.80045 0.0
H1670 H 0.3906 0.79473 0.81728 0.0
H1671 H 0.35127 0.77709 0.86986 0.0
H1672 H 0.38318 0.68886 0.91209 0.0
H1673 H 0.38318 0.72225 0.89757 0.0
H1674 H 0.38806 0.72784 0.82684 0.0
C1675 C 0.37585 0.80067 0.81869 0.0
C1676 C 0.35925 0.7664 0.86034 0.0
C1677 C 0.37164 0.81872 0.80917 0.0
C1678 C 0.38035 0.69092 0.89518 0.0
C1679 C 0.38021 0.71002 0.88693 0.0
C1680 C 0.38 0.73844 0.83639 0.0
C1681 C 0.36122 0.79051 0.83009 0.0
C1682 C 0.36566 0.77109 0.83961 0.0
C1683 C 0.37573 0.71331 0.86529 0.0
C1684 C 0.37325 0.73356 0.85695 0.0
H1685 H 0.32345 0.82311 0.82365 0.0
H1686 H 0.33072 0.79116 0.84041 0.0
H1687 H 0.38121 0.76018 0.8117 0.0
H1688 H 0.36925 0.66583 0.84946 0.0
H1689 H 0.36869 0.69911 0.83515 0.0
C1690 C 0.42832 0.1001 0.05914 0.0
C1691 C 0.40986 0.10284 0.0687 0.0
C1692 C 0.44542 0.10141 0.07135 0.0
C1693 C 0.46415 0.1237 0.12086 0.0
H1694 H 0.51042 0.09292 0.10649 0.0
C1695 C 0.54157 0.12907 0.16178 0.0
C1696 C 0.55714 0.13114 0.14709 0.0
C1697 C 0.52243 0.12548 0.15457 0.0
C1698 C 0.49757 0.10159 0.11066 0.0
H1699 H 0.39461 0.10786 0.09871 0.0
H1700 H 0.42457 0.10999 0.12015 0.0
H1701 H 0.47885 0.08467 0.09032 0.0
H1702 H 0.56469 0.13203 0.11337 0.0
H1703 H 0.53137 0.12555 0.10089 0.0
H1704 H 0.48312 0.14057 0.14127 0.0
C1705 C 0.42586 0.1073 0.10313 0.0
C1706 C 0.47954 0.09692 0.10139 0.0
C1707 C 0.40873 0.10607 0.09087 0.0
C1708 C 0.55304 0.13056 0.12509 0.0
C1709 C 0.53403 0.12666 0.11793 0.0
C1710 C 0.48221 0.12821 0.13036 0.0
C1711 C 0.44441 0.10529 0.09343 0.0
C1712 C 0.46276 0.10833 0.10582 0.0
C1713 C 0.51869 0.12361 0.1326 0.0
C1714 C 0.49915 0.11758 0.12476 0.0
H1715 H 0.42962 0.09761 0.04208 0.0
H1716 H 0.45947 0.10009 0.06328 0.0
H1717 H 0.45153 0.13286 0.12453 0.0
H1718 H 0.54431 0.12947 0.17884 0.0
H1719 H 0.51076 0.12324 0.16613 0.0
C1720 C 0.14999 0.81406 0.16737 0.0
C1721 C 0.13382 0.82299 0.17732 0.0
C1722 C 0.14708 0.79887 0.15263 0.0
C1723 C 0.10744 0.77404 0.12076 0.0
H1724 H 0.14466 0.73073 0.12042 0.0
C1725 C 0.09232 0.69191 0.10201 0.0
C1726 C 0.10565 0.6825 0.08821 0.0
C1727 C 0.09497 0.7117 0.10742 0.0
C1728 C 0.13432 0.74289 0.12011 0.0
H1729 H 0.10216 0.82301 0.18055 0.0
H1730 H 0.09699 0.79575 0.15593 0.0
H1731 H 0.15166 0.75983 0.14169 0.0
H1732 H 0.1314 0.68677 0.06807 0.0
H1733 H 0.13631 0.72111 0.07821 0.0
H1734 H 0.08945 0.75606 0.10039 0.0
C1735 C 0.11187 0.80088 0.15851 0.0
C1736 C 0.13833 0.75964 0.13223 0.0
C1737 C 0.11479 0.81632 0.17284 0.0
C1738 C 0.12088 0.69358 0.0788 0.0
C1739 C 0.12374 0.71321 0.08456 0.0
C1740 C 0.10323 0.75705 0.10904 0.0
C1741 C 0.12796 0.79205 0.14802 0.0
C1742 C 0.12473 0.77527 0.13313 0.0
C1743 C 0.11115 0.72221 0.09938 0.0
C1744 C 0.1165 0.74126 0.10897 0.0
H1745 H 0.16478 0.81928 0.17042 0.0
H1746 H 0.15982 0.79269 0.14466 0.0
H1747 H 0.09689 0.78601 0.1205 0.0
H1748 H 0.08041 0.68375 0.10937 0.0
H1749 H 0.08516 0.7184 0.119 0.0
C1750 C 0.55336 0.86018 0.37472 0.0
C1751 C 0.55959 0.85758 0.35351 0.0
C1752 C 0.53359 0.86364 0.37922 0.0
C1753 C 0.4831 0.85996 0.36054 0.0
H1754 H 0.47637 0.90452 0.39871 0.0
C1755 C 0.41706 0.86833 0.41581 0.0
C1756 C 0.41136 0.88702 0.42302 0.0
C1757 C 0.43273 0.8663 0.40163 0.0
C1758 C 0.47779 0.89234 0.38764 0.0
H1759 H 0.5498 0.85472 0.32059 0.0
H1760 H 0.51503 0.86054 0.32866 0.0
H1761 H 0.50884 0.89654 0.38529 0.0
H1762 H 0.41641 0.91839 0.42024 0.0
H1763 H 0.44366 0.91501 0.39489 0.0
H1764 H 0.45199 0.85562 0.36315 0.0
C1765 C 0.52557 0.86019 0.34165 0.0
C1766 C 0.49649 0.88759 0.38023 0.0
C1767 C 0.54543 0.85686 0.33709 0.0
C1768 C 0.42093 0.9038 0.41518 0.0
C1769 C 0.43642 0.90182 0.40065 0.0
C1770 C 0.46427 0.86476 0.36793 0.0
C1771 C 0.51968 0.86442 0.36265 0.0
C1772 C 0.49942 0.87088 0.36743 0.0
C1773 C 0.44285 0.883 0.39418 0.0
C1774 C 0.46158 0.88051 0.38231 0.0
H1775 H 0.56385 0.8607 0.38774 0.0
H1776 H 0.52927 0.86641 0.39563 0.0
H1777 H 0.48502 0.84716 0.35041 0.0
H1778 H 0.40989 0.85521 0.42183 0.0
H1779 H 0.43747 0.85157 0.39741 0.0
C1780 C 0.35736 0.30714 0.61569 0.0
C1781 C 0.37307 0.3103 0.60163 0.0
C1782 C 0.35242 0.28816 0.622 0.0
C1783 C 0.3604 0.23504 0.61031 0.0
H1784 H 0.34288 0.23028 0.66915 0.0
C1785 C 0.35762 0.16339 0.6607 0.0
C1786 C 0.34147 0.161 0.67451 0.0
C1787 C 0.35943 0.18028 0.64819 0.0
C1788 C 0.34743 0.2314 0.65258 0.0
H1789 H 0.39571 0.29639 0.58252 0.0
H1790 H 0.38802 0.26288 0.59489 0.0
H1791 H 0.35157 0.26232 0.65521 0.0
H1792 H 0.31386 0.17374 0.68504 0.0
H1793 H 0.31711 0.20352 0.66327 0.0
H1794 H 0.35718 0.20359 0.60844 0.0
C1795 C 0.37914 0.27506 0.60057 0.0
C1796 C 0.35241 0.2498 0.64452 0.0
C1797 C 0.38374 0.29417 0.59372 0.0
C1798 C 0.32659 0.17533 0.67476 0.0
C1799 C 0.32842 0.19228 0.66227 0.0
C1800 C 0.3557 0.21645 0.61857 0.0
C1801 C 0.36346 0.27189 0.61493 0.0
C1802 C 0.35877 0.25194 0.62324 0.0
C1803 C 0.34515 0.19514 0.6494 0.0
C1804 C 0.34903 0.21457 0.63975 0.0
H1805 H 0.34848 0.31935 0.62135 0.0
H1806 H 0.33979 0.28629 0.63238 0.0
H1807 H 0.36511 0.23617 0.59381 0.0
H1808 H 0.36931 0.15262 0.6603 0.0
H1809 H 0.37257 0.18223 0.6386 0.0
C1810 C 0.06514 0.07791 0.9162 0.0
C1811 C 0.07495 0.0947 0.92366 0.0
C1812 C 0.05051 0.07971 0.90063 0.0
C1813 C 0.02525 0.11636 0.86491 0.0
H1814 H 0.97875 0.08799 0.88331 0.0
C1815 C 0.94493 0.12905 0.83367 0.0
C1816 C 0.9307 0.12961 0.85006 0.0
C1817 C 0.96449 0.12435 0.83835 0.0
C1818 C 0.99165 0.09597 0.87794 0.0
H1819 H 0.07778 0.12631 0.92053 0.0
H1820 H 0.0518 0.12969 0.89426 0.0
H1821 H 0.01058 0.07864 0.89741 0.0
H1822 H 0.92615 0.1274 0.88433 0.0
H1823 H 0.96021 0.11938 0.89245 0.0
H1824 H 0.00571 0.13452 0.84648 0.0
C1825 C 0.05571 0.11503 0.89961 0.0
C1826 C 0.00998 0.09041 0.88574 0.0
C1827 C 0.07049 0.11315 0.91485 0.0
C1828 C 0.93668 0.12694 0.87133 0.0
C1829 C 0.95614 0.12214 0.87596 0.0
C1830 C 0.00679 0.12198 0.85715 0.0
C1831 C 0.04517 0.0984 0.8927 0.0
C1832 C 0.02689 0.10111 0.88011 0.0
C1833 C 0.97 0.12005 0.85944 0.0
C1834 C 0.98979 0.11238 0.86445 0.0
H1835 H 0.06867 0.06346 0.92251 0.0
H1836 H 0.04294 0.06655 0.89535 0.0
H1837 H 0.03808 0.1246 0.85988 0.0
H1838 H 0.94077 0.1312 0.81711 0.0
H1839 H 0.975 0.12304 0.8254 0.0
C1840 C 0.84067 0.80308 0.68963 0.0
C1841 C 0.84985 0.81983 0.68103 0.0
C1842 C 0.84268 0.78481 0.67955 0.0
C1843 C 0.85507 0.76012 0.6293 0.0
H1844 H 0.87649 0.71919 0.66581 0.0
C1845 C 0.88197 0.68611 0.59449 0.0
C1846 C 0.87827 0.66914 0.60668 0.0
C1847 C 0.87904 0.7048 0.60333 0.0
C1848 C 0.8702 0.73028 0.65539 0.0
H1849 H 0.86737 0.83085 0.65453 0.0
H1850 H 0.8707 0.79899 0.63694 0.0
H1851 H 0.86778 0.75093 0.68109 0.0
H1852 H 0.86858 0.6583 0.63755 0.0
H1853 H 0.86271 0.69062 0.65265 0.0
H1854 H 0.85695 0.73938 0.60366 0.0
C1855 C 0.86207 0.79998 0.65148 0.0
C1856 C 0.86525 0.74848 0.6642 0.0
C1857 C 0.86027 0.81816 0.66166 0.0
C1858 C 0.87199 0.67114 0.62794 0.0
C1859 C 0.86862 0.68975 0.6366 0.0
C1860 C 0.85969 0.74175 0.62052 0.0
C1861 C 0.85367 0.78309 0.6606 0.0
C1862 C 0.85772 0.76355 0.65124 0.0
C1863 C 0.87191 0.70684 0.62437 0.0
C1864 C 0.86737 0.72659 0.63347 0.0
H1865 H 0.83246 0.80395 0.70446 0.0
H1866 H 0.83595 0.77196 0.68675 0.0
H1867 H 0.84926 0.77157 0.61901 0.0
H1868 H 0.88677 0.68491 0.57801 0.0
H1869 H 0.88212 0.71761 0.59357 0.0
C1870 C 0.04443 0.14152 0.35451 0.0
C1871 C 0.06126 0.1307 0.3599 0.0
C1872 C 0.02606 0.13599 0.36273 0.0
C1873 C 0.00379 0.10111 0.40309 0.0
H1874 H 0.95555 0.11778 0.3757 0.0
C1875 C 0.93018 0.09234 0.44578 0.0
C1876 C 0.9128 0.0918 0.43391 0.0
C1877 C 0.94812 0.09514 0.43545 0.0
C1878 C 0.96884 0.11251 0.38333 0.0
H1879 H 0.07233 0.10542 0.37717 0.0
H1880 H 0.04069 0.09433 0.38911 0.0
H1881 H 0.98672 0.12611 0.35952 0.0
H1882 H 0.90016 0.09267 0.40215 0.0
H1883 H 0.93161 0.09575 0.38382 0.0
H1884 H 0.98608 0.08583 0.42559 0.0
C1885 C 0.04123 0.108 0.38025 0.0
C1886 C 0.9869 0.11779 0.37428 0.0
C1887 C 0.05954 0.11418 0.37312 0.0
C1888 C 0.91356 0.09297 0.41154 0.0
C1889 C 0.93156 0.09507 0.40111 0.0
C1890 C 0.98587 0.09507 0.41149 0.0
C1891 C 0.02414 0.11893 0.37554 0.0
C1892 C 0.0047 0.11255 0.38431 0.0
C1893 C 0.94907 0.09676 0.41296 0.0
C1894 C 0.9681 0.1012 0.40221 0.0
H1895 H 0.04551 0.1542 0.34405 0.0
H1896 H 0.0135 0.14515 0.35895 0.0
H1897 H 0.01686 0.09701 0.41188 0.0
H1898 H 0.92977 0.09192 0.46311 0.0
H1899 H 0.96106 0.09692 0.44533 0.0
C1900 C 0.5903 0.30026 0.10832 0.0
C1901 C 0.60621 0.30777 0.09661 0.0
C1902 C 0.59011 0.28048 0.11454 0.0
C1903 C 0.61801 0.23282 0.10897 0.0
H1904 H 0.60012 0.22536 0.16732 0.0
C1905 C 0.64704 0.17516 0.17022 0.0
C1906 C 0.63244 0.16295 0.17887 0.0
C1907 C 0.64175 0.19095 0.15705 0.0
C1908 C 0.60499 0.22724 0.15094 0.0
H1909 H 0.634 0.30043 0.08143 0.0
H1910 H 0.63426 0.26653 0.09319 0.0
H1911 H 0.5935 0.25637 0.1493 0.0
H1912 H 0.6011 0.15767 0.18125 0.0
H1913 H 0.59183 0.18565 0.15872 0.0
H1914 H 0.63077 0.20396 0.11158 0.0
C1915 C 0.62153 0.27545 0.09704 0.0
C1916 C 0.60104 0.24492 0.14047 0.0
C1917 C 0.62148 0.29503 0.09042 0.0
C1918 C 0.61257 0.16677 0.17442 0.0
C1919 C 0.60727 0.18272 0.16165 0.0
C1920 C 0.62237 0.21529 0.11969 0.0
C1921 C 0.60608 0.26801 0.10965 0.0
C1922 C 0.60782 0.24812 0.11948 0.0
C1923 C 0.62182 0.19489 0.15288 0.0
C1924 C 0.61612 0.21257 0.14083 0.0
H1925 H 0.57821 0.30974 0.113 0.0
H1926 H 0.57769 0.27515 0.12373 0.0
H1927 H 0.62305 0.23453 0.09265 0.0
H1928 H 0.66246 0.17235 0.17342 0.0
H1929 H 0.65315 0.20038 0.15056 0.0
C1930 C 0.44315 0.85385 0.83607 0.0
C1931 C 0.42975 0.8696 0.83691 0.0
C1932 C 0.46174 0.85569 0.84556 0.0
C1933 C 0.48586 0.88456 0.8877 0.0
H1934 H 0.5348 0.86535 0.86357 0.0
C1935 C 0.56008 0.90295 0.92621 0.0
C1936 C 0.57356 0.8874 0.92792 0.0
C1937 C 0.54327 0.90085 0.91359 0.0
C1938 C 0.5212 0.87067 0.87053 0.0
H1939 H 0.42569 0.90001 0.84668 0.0
H1940 H 0.458 0.90335 0.86256 0.0
H1941 H 0.50402 0.86089 0.84378 0.0
H1942 H 0.57986 0.85735 0.91867 0.0
H1943 H 0.55053 0.85356 0.89665 0.0
H1944 H 0.50277 0.89426 0.91442 0.0
C1945 C 0.45404 0.88936 0.85543 0.0
C1946 C 0.50362 0.86807 0.85924 0.0
C1947 C 0.43553 0.88744 0.84632 0.0
C1948 C 0.56995 0.86972 0.917 0.0
C1949 C 0.55315 0.86756 0.90447 0.0
C1950 C 0.50333 0.88717 0.89891 0.0
C1951 C 0.46714 0.87338 0.85572 0.0
C1952 C 0.48582 0.87518 0.86767 0.0
C1953 C 0.53959 0.88308 0.9027 0.0
C1954 C 0.52119 0.88039 0.89042 0.0
H1955 H 0.43902 0.83999 0.82875 0.0
H1956 H 0.47159 0.84313 0.84556 0.0
H1957 H 0.4723 0.88979 0.89485 0.0
H1958 H 0.56264 0.91677 0.93442 0.0
H1959 H 0.53315 0.91314 0.91233 0.0
C1960 C 0.88008 0.29725 0.90984 0.0
C1961 C 0.87984 0.31318 0.89543 0.0
C1962 C 0.87586 0.27819 0.90274 0.0
C1963 C 0.84729 0.25303 0.86245 0.0
H1964 H 0.88305 0.20889 0.8687 0.0
C1965 C 0.84144 0.18414 0.80991 0.0
C1966 C 0.84792 0.16599 0.81796 0.0
C1967 C 0.8434 0.20122 0.82216 0.0
C1968 C 0.87263 0.22089 0.86722 0.0
H1969 H 0.8757 0.32151 0.86219 0.0
H1970 H 0.86817 0.28831 0.84996 0.0
H1971 H 0.89104 0.24037 0.88531 0.0
H1972 H 0.86044 0.15111 0.84549 0.0
H1973 H 0.86315 0.18074 0.86719 0.0
H1974 H 0.82873 0.23374 0.84457 0.0
C1975 C 0.87159 0.29063 0.8667 0.0
C1976 C 0.87732 0.23892 0.87665 0.0
C1977 C 0.87612 0.30957 0.87368 0.0
C1978 C 0.85559 0.16502 0.83879 0.0
C1979 C 0.85723 0.18201 0.85118 0.0
C1980 C 0.84242 0.23494 0.85333 0.0
C1981 C 0.87103 0.2749 0.88123 0.0
C1982 C 0.86497 0.25524 0.87375 0.0
C1983 C 0.85156 0.2004 0.84285 0.0
C1984 C 0.85533 0.21881 0.85502 0.0
H1985 H 0.88286 0.29963 0.9267 0.0
H1986 H 0.87559 0.26618 0.91416 0.0
H1987 H 0.8374 0.26541 0.86036 0.0
H1988 H 0.83552 0.18527 0.79387 0.0
H1989 H 0.83917 0.21514 0.81505 0.0
C1990 C 0.4307 0.13913 0.62725 0.0
C1991 C 0.42594 0.13167 0.64753 0.0
C1992 C 0.44977 0.13725 0.61925 0.0
C1993 C 0.50125 0.12379 0.63251 0.0
H1994 H 0.5012 0.10525 0.5738 0.0
C1995 C 0.55715 0.08903 0.5642 0.0
C1996 C 0.57295 0.10217 0.56645 0.0
C1997 C 0.53991 0.09178 0.57607 0.0
C1998 C 0.50147 0.11016 0.59028 0.0
H1999 H 0.43772 0.1178 0.67607 0.0
H2000 H 0.47097 0.11416 0.66191 0.0
H2001 H 0.47028 0.1136 0.59104 0.0
H2002 H 0.58309 0.12834 0.58279 0.0
H2003 H 0.55315 0.13328 0.6033 0.0
H2004 H 0.53254 0.11996 0.63174 0.0
C2005 C 0.46003 0.1216 0.65224 0.0
C2006 C 0.48377 0.1153 0.60005 0.0
C2007 C 0.44096 0.12368 0.66035 0.0
C2008 C 0.57129 0.11785 0.58098 0.0
C2009 C 0.55413 0.12063 0.59279 0.0
C2010 C 0.51902 0.11863 0.62269 0.0
C2011 C 0.4644 0.12764 0.63127 0.0
C2012 C 0.48345 0.12239 0.62117 0.0
C2013 C 0.53815 0.10777 0.5903 0.0
C2014 C 0.51931 0.1119 0.60141 0.0
H2015 H 0.41948 0.14564 0.61716 0.0
H2016 H 0.45285 0.14259 0.60328 0.0
H2017 H 0.50147 0.12915 0.64882 0.0
H2018 H 0.55807 0.07672 0.55322 0.0
H2019 H 0.5279 0.08148 0.57399 0.0
C2020 C 0.62961 0.82145 0.3334 0.0
C2021 C 0.63904 0.82222 0.31338 0.0
C2022 C 0.62683 0.80344 0.34373 0.0
C2023 C 0.61892 0.75235 0.33107 0.0
H2024 H 0.63082 0.7416 0.39058 0.0
C2025 C 0.61393 0.67444 0.36575 0.0
C2026 C 0.60871 0.67193 0.3873 0.0
C2027 C 0.61664 0.69325 0.35735 0.0
C2028 C 0.62707 0.74449 0.37405 0.0
H2029 H 0.65372 0.80496 0.28893 0.0
H2030 H 0.64857 0.77338 0.30692 0.0
H2031 H 0.63905 0.77371 0.37526 0.0
H2032 H 0.60132 0.68709 0.41673 0.0
H2033 H 0.60515 0.72013 0.40175 0.0
H2034 H 0.60641 0.72358 0.32977 0.0
C2035 C 0.64333 0.78675 0.3145 0.0
C2036 C 0.63195 0.76279 0.36528 0.0
C2037 C 0.64632 0.80478 0.30427 0.0
C2038 C 0.60537 0.68863 0.40005 0.0
C2039 C 0.60778 0.70753 0.39153 0.0
C2040 C 0.61377 0.73423 0.33987 0.0
C2041 C 0.63323 0.78592 0.33409 0.0
C2042 C 0.62814 0.76672 0.34364 0.0
C2043 C 0.61385 0.71004 0.37018 0.0
C2044 C 0.61802 0.72993 0.36138 0.0
H2045 H 0.62397 0.8347 0.34088 0.0
H2046 H 0.61895 0.80314 0.3588 0.0
H2047 H 0.61547 0.75524 0.31444 0.0
H2048 H 0.61692 0.66186 0.35559 0.0
H2049 H 0.62169 0.69454 0.34098 0.0
C2050 C 0.91524 0.8667 0.0712 0.0
C2051 C 0.91104 0.88629 0.06566 0.0
C2052 C 0.93141 0.86225 0.08394 0.0
C2053 C 0.96325 0.87797 0.12523 0.0
H2054 H 0.00477 0.8488 0.09669 0.0
C2055 C 0.04138 0.87092 0.15945 0.0
C2056 C 0.05325 0.85491 0.15332 0.0
C2057 C 0.02229 0.8728 0.15163 0.0
C2058 C -0.00682 0.85649 0.10516 0.0
H2059 H 0.9201 0.9167 0.06917 0.0
H2060 H 0.94858 0.90885 0.09206 0.0
H2061 H 0.97478 0.85686 0.07738 0.0
H2062 H 0.05383 0.82734 0.13591 0.0
H2063 H 0.02006 0.83006 0.12302 0.0
H2064 H 0.98126 0.87719 0.15324 0.0
C2065 C 0.93924 0.89704 0.08638 0.0
C2066 C 0.97614 0.86131 0.09395 0.0
C2067 C 0.92317 0.90148 0.07322 0.0
C2068 C 0.04511 0.83999 0.14061 0.0
C2069 C 0.02581 0.84167 0.1331 0.0
C2070 C 0.98017 0.87279 0.13665 0.0
C2071 C 0.94349 0.87736 0.0916 0.0
C2072 C 0.96123 0.87228 0.10381 0.0
C2073 C 0.01446 0.85852 0.13778 0.0
C2074 C -0.00451 0.86221 0.12664 0.0
H2075 H 0.90625 0.85475 0.06524 0.0
H2076 H 0.93459 0.84698 0.08771 0.0
H2077 H 0.9517 0.88625 0.13312 0.0
H2078 H 0.0472 0.88269 0.16929 0.0
H2079 H 0.01416 0.88606 0.15549 0.0
C2080 C 0.64815 0.67651 0.82313 0.0
C2081 C 0.63333 0.66348 0.81657 0.0
C2082 C 0.64345 0.69244 0.83637 0.0
C2083 C 0.60917 0.72875 0.84304 0.0
H2084 H 0.62077 0.73445 0.90342 0.0
C2085 C 0.59153 0.80122 0.88464 0.0
C2086 C 0.60642 0.80833 0.89806 0.0
C2087 C 0.59145 0.78145 0.87844 0.0
C2088 C 0.61753 0.73315 0.88653 0.0
H2089 H 0.60219 0.65691 0.81806 0.0
H2090 H 0.59397 0.68495 0.84086 0.0
H2091 H 0.62933 0.70378 0.88496 0.0
H2092 H 0.63227 0.80028 0.9165 0.0
H2093 H 0.63281 0.76635 0.90482 0.0
H2094 H 0.59851 0.75821 0.84382 0.0
C2095 C 0.60916 0.68252 0.83628 0.0
C2096 C 0.62239 0.71562 0.87608 0.0
C2097 C 0.61388 0.66654 0.82335 0.0
C2098 C 0.62058 0.79519 0.90611 0.0
C2099 C 0.62078 0.77561 0.89953 0.0
C2100 C 0.60465 0.74636 0.8533 0.0
C2101 C 0.6239 0.69555 0.84278 0.0
C2102 C 0.61841 0.71351 0.85425 0.0
C2103 C 0.60658 0.76863 0.88509 0.0
C2104 C 0.60901 0.74892 0.87512 0.0
H2105 H 0.66325 0.67434 0.8181 0.0
H2106 H 0.65492 0.70262 0.84111 0.0
H2107 H 0.606 0.72723 0.82613 0.0
H2108 H 0.58026 0.81102 0.87854 0.0
H2109 H 0.57993 0.77643 0.86782 0.0
C2110 C 0.56901 0.36776 0.07489 0.0
C2111 C 0.57308 0.38542 0.06412 0.0
C2112 C 0.55201 0.36584 0.0872 0.0
C2113 C 0.50248 0.38644 0.09329 0.0
H2114 H 0.50371 0.36116 0.14898 0.0
C2115 C 0.43558 0.38863 0.14765 0.0
C2116 C 0.42956 0.37081 0.15703 0.0
C2117 C 0.45401 0.39025 0.13818 0.0
C2118 C 0.50316 0.36808 0.13338 0.0
H2119 H 0.56252 0.41484 0.0572 0.0
H2120 H 0.53262 0.4116 0.07877 0.0
H2121 H 0.53417 0.36458 0.12834 0.0
H2122 H 0.43852 0.34101 0.16488 0.0
H2123 H 0.47093 0.34375 0.14776 0.0
H2124 H 0.4716 0.3899 0.09814 0.0
C2125 C 0.5426 0.39918 0.07771 0.0
C2126 C 0.52055 0.37005 0.12158 0.0
C2127 C 0.55965 0.40106 0.06538 0.0
C2128 C 0.44275 0.35487 0.15762 0.0
C2129 C 0.46129 0.35646 0.14793 0.0
C2130 C 0.48519 0.38447 0.10503 0.0
C2131 C 0.53865 0.38155 0.08879 0.0
C2132 C 0.52036 0.37937 0.10146 0.0
C2133 C 0.46684 0.37405 0.13765 0.0
C2134 C 0.48535 0.37544 0.12526 0.0
H2135 H 0.57882 0.35529 0.07339 0.0
H2136 H 0.54915 0.35193 0.09511 0.0
H2137 H 0.50179 0.39327 0.07764 0.0
H2138 H 0.42593 0.40134 0.14736 0.0
H2139 H 0.4581 0.40415 0.13091 0.0
C2140 C 0.85826 0.31863 0.33319 0.0
C2141 C 0.8448 0.32039 0.31624 0.0
C2142 C 0.85875 0.30165 0.34568 0.0
C2143 C 0.85241 0.25055 0.33741 0.0
H2144 H 0.8575 0.24429 0.39881 0.0
C2145 C 0.86179 0.17425 0.37373 0.0
C2146 C 0.87332 0.17197 0.39211 0.0
C2147 C 0.85714 0.19295 0.36622 0.0
C2148 C 0.85639 0.24586 0.38162 0.0
H2149 H 0.82024 0.30651 0.30008 0.0
H2150 H 0.82135 0.27648 0.32177 0.0
H2151 H 0.84943 0.2767 0.38384 0.0
H2152 H 0.88933 0.18721 0.41702 0.0
H2153 H 0.88247 0.2202 0.40289 0.0
H2154 H 0.86053 0.22043 0.33468 0.0
C2155 C 0.83154 0.28832 0.32525 0.0
C2156 C 0.85154 0.26432 0.37314 0.0
C2157 C 0.83101 0.30537 0.31279 0.0
C2158 C 0.88058 0.18871 0.40263 0.0
C2159 C 0.87639 0.20754 0.39473 0.0
C2160 C 0.85764 0.23234 0.34577 0.0
C2161 C 0.84582 0.28612 0.34132 0.0
C2162 C 0.84938 0.26668 0.35096 0.0
C2163 C 0.86444 0.20985 0.37651 0.0
C2164 C 0.85953 0.22965 0.36796 0.0
H2165 H 0.86894 0.33006 0.33629 0.0
H2166 H 0.87 0.30019 0.35785 0.0
H2167 H 0.85138 0.25218 0.32021 0.0
H2168 H 0.85548 0.16157 0.36573 0.0
H2169 H 0.84738 0.19408 0.3526 0.0
C2170 C 0.91458 0.61261 0.57549 0.0
C2171 C 0.91108 0.59491 0.56457 0.0
C2172 C 0.93101 0.61466 0.58856 0.0
C2173 C 0.9804 0.59439 0.59586 0.0
H2174 H 0.9794 0.62431 0.64876 0.0
C2175 C 0.04845 0.59925 0.6478 0.0
C2176 C 0.05408 0.61803 0.65492 0.0
C2177 C 0.02982 0.59614 0.63941 0.0
C2178 C 0.97986 0.61606 0.63395 0.0
H2179 H 0.92169 0.56529 0.55886 0.0
H2180 H 0.9505 0.56868 0.58208 0.0
H2181 H 0.94872 0.61836 0.6293 0.0
H2182 H 0.0444 0.64809 0.65992 0.0
H2183 H 0.01159 0.64277 0.64434 0.0
H2184 H 0.01142 0.59217 0.60027 0.0
C2185 C 0.94063 0.58111 0.58028 0.0
C2186 C 0.96235 0.61261 0.62283 0.0
C2187 C 0.92421 0.57914 0.56701 0.0
C2188 C 0.04041 0.63354 0.65432 0.0
C2189 C 0.02167 0.63045 0.64557 0.0
C2190 C -0.0022 0.59777 0.60694 0.0
C2191 C 0.94428 0.59899 0.59102 0.0
C2192 C 0.96249 0.60177 0.60363 0.0
C2193 C 0.01644 0.61179 0.63759 0.0
C2194 C -0.00227 0.6086 0.62609 0.0
H2195 H 0.90488 0.62511 0.57344 0.0
H2196 H 0.9336 0.62875 0.59619 0.0
H2197 H 0.9811 0.5864 0.58088 0.0
H2198 H 0.0585 0.58687 0.64865 0.0
H2199 H 0.02599 0.58148 0.63396 0.0
C2200 C 0.61409 0.32065 0.67723 0.0
C2201 C 0.63366 0.32601 0.68115 0.0
C2202 C 0.60987 0.30408 0.66501 0.0
C2203 C 0.62118 0.27385 0.62259 0.0
H2204 H 0.60652 0.22792 0.65589 0.0
C2205 C 0.61892 0.19512 0.58856 0.0
C2206 C 0.6067 0.18117 0.59852 0.0
C2207 C 0.61942 0.21449 0.59592 0.0
C2208 C 0.6101 0.24067 0.64625 0.0
H2209 H 0.66426 0.31872 0.67556 0.0
H2210 H 0.65678 0.28935 0.65382 0.0
H2211 H 0.61418 0.25864 0.67401 0.0
H2212 H 0.58391 0.17684 0.62225 0.0
H2213 H 0.58399 0.21097 0.63445 0.0
H2214 H 0.61676 0.25609 0.59472 0.0
C2215 C 0.64483 0.29813 0.66023 0.0
C2216 C 0.61477 0.25812 0.6567 0.0
C2217 C 0.64907 0.31464 0.67276 0.0
C2218 C 0.59372 0.18727 0.61462 0.0
C2219 C 0.59389 0.20676 0.62165 0.0
C2220 C 0.61624 0.2564 0.61203 0.0
C2221 C 0.6252 0.29284 0.65638 0.0
C2222 C 0.62051 0.27466 0.64496 0.0
C2223 C 0.60745 0.22033 0.61312 0.0
C2224 C 0.6108 0.23954 0.62379 0.0
H2225 H 0.60208 0.32917 0.6839 0.0
H2226 H 0.59466 0.29995 0.66239 0.0
H2227 H 0.62541 0.28669 0.61337 0.0
H2228 H 0.62908 0.19079 0.57605 0.0
H2229 H 0.63012 0.22445 0.58902 0.0
C2230 C 0.9277 0.40768 0.93177 0.0
C2231 C 0.9132 0.39299 0.93133 0.0
C2232 C 0.94427 0.40616 0.91864 0.0
C2233 C 0.96592 0.38021 0.8722 0.0
H2234 H 0.0142 0.38525 0.90463 0.0
C2235 C 0.04195 0.35259 0.84118 0.0
C2236 C 0.05854 0.36309 0.84803 0.0
C2237 C 0.02328 0.35744 0.84921 0.0
C2238 C 0.00097 0.38418 0.89508 0.0
H2239 H 0.90444 0.36554 0.91664 0.0
H2240 H 0.93334 0.36277 0.89379 0.0
H2241 H 0.98316 0.39313 0.92145 0.0
H2242 H 0.0688 0.3876 0.86712 0.0
H2243 H 0.03649 0.39688 0.87994 0.0
H2244 H 0.9839 0.37129 0.84571 0.0
C2245 C 0.93177 0.37561 0.90394 0.0
C2246 C 0.98313 0.38869 0.90481 0.0
C2247 C 0.91527 0.37714 0.91708 0.0
C2248 C 0.05623 0.37896 0.86209 0.0
C2249 C 0.03768 0.3842 0.86951 0.0
C2250 C 0.98391 0.37595 0.86227 0.0
C2251 C 0.94663 0.3899 0.90492 0.0
C2252 C 0.96543 0.38666 0.89356 0.0
C2253 C 0.021 0.37321 0.86369 0.0
C2254 C 0.00167 0.37784 0.87367 0.0
H2255 H 0.92636 0.42019 0.94243 0.0
H2256 H 0.95547 0.41748 0.91953 0.0
H2257 H 0.95241 0.3785 0.8632 0.0
H2258 H 0.04349 0.34043 0.83008 0.0
H2259 H 0.01078 0.34859 0.84445 0.0
C2260 C 0.88207 0.79419 0.08927 0.0
C2261 C 0.87632 0.81114 0.10051 0.0
C2262 C 0.87803 0.77548 0.09762 0.0
C2263 C 0.86322 0.75126 0.14853 0.0
H2264 H 0.84888 0.70752 0.11184 0.0
C2265 C 0.83356 0.68056 0.18457 0.0
C2266 C 0.84459 0.66382 0.17908 0.0
C2267 C 0.83517 0.69773 0.17243 0.0
C2268 C 0.85282 0.71969 0.12219 0.0
H2269 H 0.86116 0.82202 0.12864 0.0
H2270 H 0.85333 0.78978 0.14263 0.0
H2271 H 0.85747 0.73937 0.09586 0.0
H2272 H 0.86419 0.65118 0.15555 0.0
H2273 H 0.86757 0.6814 0.13464 0.0
H2274 H 0.85822 0.73183 0.17479 0.0
C2275 C 0.86185 0.79063 0.12802 0.0
C2276 C 0.85791 0.73784 0.11309 0.0
C2277 C 0.86634 0.80918 0.12 0.0
C2278 C 0.85607 0.6641 0.16041 0.0
C2279 C 0.85774 0.68126 0.14828 0.0
C2280 C 0.85782 0.73336 0.15754 0.0
C2281 C 0.86775 0.77351 0.11708 0.0
C2282 C 0.86306 0.75388 0.12623 0.0
C2283 C 0.84781 0.6984 0.15463 0.0
C2284 C 0.8525 0.71745 0.14452 0.0
H2285 H 0.8896 0.79542 0.07404 0.0
H2286 H 0.88296 0.76262 0.08888 0.0
H2287 H 0.86768 0.76302 0.15916 0.0
H2288 H 0.82427 0.68064 0.19865 0.0
H2289 H 0.82713 0.71074 0.1774 0.0
C2290 C 0.57252 0.6067 0.41145 0.0
C2291 C 0.57256 0.59634 0.43092 0.0
C2292 C 0.55512 0.60905 0.39991 0.0
C2293 C 0.50365 0.61459 0.41019 0.0
H2294 H 0.49532 0.60598 0.34957 0.0
C2295 C 0.42703 0.62061 0.37373 0.0
C2296 C 0.42486 0.62713 0.35259 0.0
C2297 C 0.44566 0.61736 0.38222 0.0
C2298 C 0.49753 0.60881 0.36643 0.0
H2299 H 0.55477 0.57915 0.45288 0.0
H2300 H 0.52425 0.5835 0.43279 0.0
H2301 H 0.52707 0.59753 0.36566 0.0
H2302 H 0.44034 0.63596 0.32385 0.0
H2303 H 0.47319 0.63137 0.33915 0.0
H2304 H 0.4747 0.62656 0.41115 0.0
C2305 C 0.5377 0.58989 0.4266 0.0
C2306 C 0.51561 0.60379 0.37562 0.0
C2307 C 0.55513 0.58742 0.43806 0.0
C2308 C 0.44169 0.631 0.34026 0.0
C2309 C 0.46045 0.62814 0.34894 0.0
C2310 C 0.4858 0.61994 0.401 0.0
C2311 C 0.53749 0.60116 0.40776 0.0
C2312 C 0.51863 0.60636 0.39764 0.0
C2313 C 0.46262 0.621 0.36995 0.0
C2314 C 0.48234 0.6168 0.3791 0.0
H2315 H 0.58582 0.61348 0.40546 0.0
H2316 H 0.55527 0.61784 0.38543 0.0
H2317 H 0.50585 0.61715 0.42713 0.0
H2318 H 0.41431 0.61704 0.38345 0.0
H2319 H 0.44667 0.61134 0.39822 0.0
C2320 C 0.39374 0.18626 0.10891 0.0
C2321 C 0.37897 0.18096 0.09432 0.0
C2322 C 0.39409 0.20521 0.11757 0.0
C2323 C 0.37812 0.256 0.11213 0.0
H2324 H 0.36772 0.254 0.17307 0.0
C2325 C 0.35174 0.32448 0.15836 0.0
C2326 C 0.35664 0.32615 0.18003 0.0
C2327 C 0.35621 0.30727 0.14716 0.0
C2328 C 0.3711 0.25501 0.15619 0.0
H2329 H 0.35401 0.1916 0.07602 0.0
H2330 H 0.35498 0.22491 0.09084 0.0
H2331 H 0.37451 0.22375 0.15375 0.0
H2332 H 0.37071 0.31197 0.20696 0.0
H2333 H 0.37979 0.28242 0.1872 0.0
H2334 H 0.37525 0.28725 0.11447 0.0
C2335 C 0.36607 0.21433 0.09572 0.0
C2336 C 0.3749 0.23761 0.14514 0.0
C2337 C 0.36545 0.19529 0.08739 0.0
C2338 C 0.36646 0.3107 0.19031 0.0
C2339 C 0.37155 0.29376 0.17896 0.0
C2340 C 0.37481 0.27353 0.12328 0.0
C2341 C 0.37999 0.21921 0.11137 0.0
C2342 C 0.37817 0.23795 0.12303 0.0
C2343 C 0.3663 0.2917 0.15727 0.0
C2344 C 0.37095 0.27324 0.14544 0.0
H2345 H 0.40434 0.17549 0.11449 0.0
H2346 H 0.40495 0.20877 0.12965 0.0
H2347 H 0.38058 0.2565 0.09502 0.0
H2348 H 0.34418 0.33638 0.15021 0.0
H2349 H 0.35151 0.30616 0.13067 0.0
C2350 C 0.55766 0.61382 0.87075 0.0
C2351 C 0.55952 0.62593 0.85272 0.0
C2352 C 0.53916 0.60844 0.87824 0.0
C2353 C 0.48597 0.6077 0.86373 0.0
H2354 H 0.48017 0.60287 0.92522 0.0
C2355 C 0.41222 0.61057 0.90952 0.0
C2356 C 0.41002 0.59826 0.92747 0.0
C2357 C 0.42984 0.61082 0.8981 0.0
C2358 C 0.48161 0.60381 0.908 0.0
H2359 H 0.54373 0.64196 0.82821 0.0
H2360 H 0.51107 0.6339 0.84236 0.0
H2361 H 0.51201 0.61083 0.9103 0.0
H2362 H 0.42402 0.57562 0.94666 0.0
H2363 H 0.45492 0.57611 0.92666 0.0
H2364 H 0.45503 0.60165 0.86184 0.0
C2365 C 0.52392 0.62792 0.85028 0.0
C2366 C 0.49992 0.60837 0.89937 0.0
C2367 C 0.54255 0.63281 0.84236 0.0
C2368 C 0.42541 0.58547 0.93311 0.0
C2369 C 0.44305 0.58572 0.92166 0.0
C2370 C 0.4675 0.60341 0.87245 0.0
C2371 C 0.52202 0.61558 0.8683 0.0
C2372 C 0.50238 0.61043 0.87715 0.0
C2373 C 0.44558 0.59877 0.90442 0.0
C2374 C 0.4652 0.6015 0.89468 0.0
H2375 H 0.57056 0.60777 0.87857 0.0
H2376 H 0.53837 0.5984 0.89167 0.0
H2377 H 0.48736 0.60884 0.84652 0.0
H2378 H 0.40057 0.62051 0.90467 0.0
H2379 H 0.43146 0.62115 0.885 0.0
C2380 C 0.10805 0.79376 0.5834 0.0
C2381 C 0.10609 0.80999 0.59723 0.0
C2382 C 0.11099 0.77482 0.59168 0.0
C2383 C 0.13287 0.75067 0.63745 0.0
H2384 H 0.10045 0.70538 0.62404 0.0
C2385 C 0.13481 0.68045 0.68854 0.0
C2386 C 0.13157 0.66219 0.67867 0.0
C2387 C 0.13292 0.69789 0.67687 0.0
C2388 C 0.10992 0.71776 0.62766 0.0
H2389 H 0.10493 0.81899 0.63052 0.0
H2390 H 0.11029 0.78605 0.64483 0.0
H2391 H 0.0941 0.73685 0.60634 0.0
H2392 H 0.12448 0.64776 0.64868 0.0
H2393 H 0.1218 0.67812 0.62817 0.0
H2394 H 0.14893 0.73177 0.65847 0.0
C2395 C 0.10957 0.788 0.62765 0.0
C2396 C 0.10618 0.73577 0.61758 0.0
C2397 C 0.10631 0.80682 0.61943 0.0
C2398 C 0.12689 0.66165 0.65679 0.0
C2399 C 0.12524 0.67907 0.64505 0.0
C2400 C 0.13681 0.73264 0.64727 0.0
C2401 C 0.11233 0.77194 0.61386 0.0
C2402 C 0.11732 0.75245 0.62282 0.0
C2403 C 0.12801 0.69743 0.655 0.0
C2404 C 0.12508 0.71607 0.64291 0.0
H2405 H 0.10796 0.79577 0.56621 0.0
H2406 H 0.11305 0.76259 0.58076 0.0
H2407 H 0.14189 0.7633 0.64142 0.0
H2408 H 0.13835 0.68132 0.7054 0.0
H2409 H 0.13482 0.71175 0.68518 0.0
C2410 C 0.94336 0.34972 0.34449 0.0
C2411 C 0.92636 0.35629 0.35505 0.0
C2412 C 0.96188 0.35658 0.35084 0.0
C2413 C 0.98572 0.38236 0.39656 0.0
H2414 H 0.03021 0.38525 0.35784 0.0
C2415 C 0.05968 0.40553 0.42862 0.0
C2416 C 0.07386 0.39075 0.42556 0.0
C2417 C 0.04287 0.40603 0.41586 0.0
C2418 C 0.01779 0.38472 0.3687 0.0
H2419 H 0.91509 0.3758 0.37959 0.0
H2420 H 0.94678 0.38887 0.38944 0.0
H2421 H -0.00224 0.37624 0.34396 0.0
H2422 H 0.08245 0.36594 0.40569 0.0
H2423 H 0.0528 0.36651 0.38387 0.0
H2424 H 0.00557 0.39083 0.42121 0.0
C2425 C 0.94631 0.37751 0.37731 0.0
C2426 C -0.00072 0.37933 0.36086 0.0
C2427 C 0.92804 0.37005 0.37162 0.0
C2428 C 0.07162 0.37735 0.4086 0.0
C2429 C 0.05478 0.37782 0.39589 0.0
C2430 C 0.00399 0.38812 0.40422 0.0
C2431 C 0.96356 0.37068 0.3673 0.0
C2432 C 0.98307 0.37771 0.37483 0.0
C2433 C 0.03995 0.39171 0.39996 0.0
C2434 C 0.02027 0.38895 0.39052 0.0
H2435 H 0.94229 0.33933 0.3314 0.0
H2436 H 0.9748 0.35074 0.34294 0.0
H2437 H 0.9739 0.38081 0.40804 0.0
H2438 H 0.06126 0.41631 0.44126 0.0
H2439 H 0.03169 0.41702 0.4191 0.0
C2440 C 0.3768 0.79068 0.41001 0.0
C2441 C 0.38423 0.80583 0.3969 0.0
C2442 C 0.37456 0.77163 0.40195 0.0
C2443 C 0.36415 0.74911 0.35072 0.0
H2444 H 0.37312 0.69922 0.37934 0.0
C2445 C 0.36746 0.66364 0.32568 0.0
C2446 C 0.34966 0.66137 0.31463 0.0
C2447 C 0.37088 0.68022 0.33819 0.0
C2448 C 0.37048 0.71309 0.37125 0.0
H2449 H 0.39725 0.81238 0.36603 0.0
H2450 H 0.39347 0.77906 0.35206 0.0
H2451 H 0.38362 0.72993 0.39651 0.0
H2452 H 0.32131 0.67464 0.30794 0.0
H2453 H 0.32742 0.70412 0.32966 0.0
H2454 H 0.35118 0.73243 0.32542 0.0
C2455 C 0.38891 0.7821 0.36834 0.0
C2456 C 0.37647 0.73059 0.38105 0.0
C2457 C 0.39116 0.80112 0.37637 0.0
C2458 C 0.3352 0.67607 0.31629 0.0
C2459 C 0.33867 0.69284 0.32872 0.0
C2460 C 0.35801 0.7317 0.34105 0.0
C2461 C 0.37974 0.76745 0.38071 0.0
C2462 C 0.37362 0.74873 0.37067 0.0
C2463 C 0.35662 0.69508 0.33966 0.0
C2464 C 0.36132 0.71352 0.35109 0.0
H2465 H 0.37151 0.79379 0.426 0.0
H2466 H 0.36752 0.76058 0.41184 0.0
H2467 H 0.36139 0.76294 0.34258 0.0
H2468 H 0.37903 0.65287 0.32408 0.0
H2469 H 0.38502 0.68176 0.34601 0.0
C2470 C 0.06989 0.62119 0.07227 0.0
C2471 C 0.07303 0.60171 0.0656 0.0
C2472 C 0.05343 0.62605 0.08448 0.0
C2473 C 0.02149 0.61825 0.12382 0.0
H2474 H 0.9748 0.63041 0.0907 0.0
C2475 C 0.94326 0.62407 0.15963 0.0
C2476 C 0.92957 0.63643 0.14941 0.0
C2477 C 0.96241 0.62232 0.15172 0.0
C2478 C 0.98776 0.62741 0.10023 0.0
H2479 H 0.06144 0.572 0.06596 0.0
H2480 H 0.03215 0.58065 0.08724 0.0
H2481 H 0.00506 0.62099 0.07241 0.0
H2482 H 0.92567 0.65817 0.12439 0.0
H2483 H 0.95933 0.65574 0.11108 0.0
H2484 H 0.00429 0.62469 0.15171 0.0
C2485 C 0.04274 0.59199 0.08323 0.0
C2486 C 0.00494 0.62177 0.08973 0.0
C2487 C 0.05929 0.58712 0.071 0.0
C2488 C 0.93585 0.64831 0.13236 0.0
C2489 C 0.95507 0.64679 0.12466 0.0
C2490 C 0.00424 0.6239 0.13441 0.0
C2491 C 0.03982 0.61148 0.09005 0.0
C2492 C 0.02181 0.61705 0.10145 0.0
C2493 C 0.96828 0.6331 0.13361 0.0
C2494 C 0.98715 0.6285 0.1227 0.0
H2495 H 0.07994 0.63273 0.06754 0.0
H2496 H 0.05113 0.64124 0.08924 0.0
H2497 H 0.03454 0.61477 0.13304 0.0
H2498 H 0.93885 0.61469 0.17281 0.0
H2499 H 0.97214 0.61158 0.15896 0.0
C2500 C 0.12311 0.3202 0.8309 0.0
C2501 C 0.1396 0.32273 0.81762 0.0
C2502 C 0.12167 0.30381 0.84426 0.0
C2503 C 0.13808 0.25308 0.84549 0.0
H2504 H 0.11479 0.252 0.90216 0.0
C2505 C 0.12764 0.18004 0.88809 0.0
C2506 C 0.10983 0.17696 0.89884 0.0
C2507 C 0.133 0.19883 0.88155 0.0
C2508 C 0.12118 0.2521 0.88629 0.0
H2509 H 0.16802 0.31077 0.8087 0.0
H2510 H 0.16555 0.28203 0.83212 0.0
H2511 H 0.12193 0.2837 0.88503 0.0
H2512 H 0.08393 0.19086 0.91216 0.0
H2513 H 0.09269 0.22402 0.89941 0.0
H2514 H 0.13666 0.2218 0.84605 0.0
C2515 C 0.15361 0.29262 0.83196 0.0
C2516 C 0.12535 0.2702 0.87656 0.0
C2517 C 0.15501 0.30899 0.81853 0.0
C2518 C 0.0976 0.19302 0.90355 0.0
C2519 C 0.10276 0.21193 0.89649 0.0
C2520 C 0.13378 0.23512 0.85507 0.0
C2521 C 0.13671 0.28964 0.84456 0.0
C2522 C 0.13378 0.27081 0.85601 0.0
C2523 C 0.1204 0.21494 0.88508 0.0
C2524 C 0.12526 0.23435 0.87554 0.0
H2525 H 0.11099 0.33053 0.83044 0.0
H2526 H 0.10837 0.30179 0.85356 0.0
H2527 H 0.14409 0.25306 0.82944 0.0
H2528 H 0.13753 0.16785 0.88487 0.0
H2529 H 0.14698 0.20069 0.87346 0.0
C2530 C 0.54285 0.37956 0.66269 0.0
C2531 C 0.55242 0.3619 0.65702 0.0
C2532 C 0.52352 0.38304 0.65638 0.0
C2533 C 0.47716 0.36418 0.63927 0.0
H2534 H 0.47858 0.40308 0.59379 0.0
C2535 C 0.4151 0.37081 0.57781 0.0
C2536 C 0.4114 0.38894 0.56784 0.0
C2537 C 0.43066 0.36879 0.5921 0.0
C2538 C 0.47767 0.39258 0.60679 0.0
H2539 H 0.54864 0.33334 0.64204 0.0
H2540 H 0.51441 0.33942 0.63132 0.0
H2541 H 0.50814 0.39632 0.61437 0.0
H2542 H 0.42047 0.41942 0.56539 0.0
H2543 H 0.44731 0.41624 0.59113 0.0
H2544 H 0.44662 0.36065 0.63214 0.0
C2545 C 0.52217 0.35054 0.64044 0.0
C2546 C 0.49468 0.38862 0.61842 0.0
C2547 C 0.54171 0.34714 0.64644 0.0
C2548 C 0.42326 0.40521 0.5727 0.0
C2549 C 0.43862 0.40332 0.58741 0.0
C2550 C 0.45995 0.36847 0.62795 0.0
C2551 C 0.51327 0.36879 0.64473 0.0
C2552 C 0.49463 0.37409 0.63435 0.0
C2553 C 0.44269 0.385 0.59708 0.0
C2554 C 0.46014 0.38233 0.61113 0.0
H2555 H 0.55059 0.39121 0.67099 0.0
H2556 H 0.51684 0.39721 0.65978 0.0
H2557 H 0.47688 0.35304 0.65168 0.0
H2558 H 0.40625 0.35801 0.57411 0.0
H2559 H 0.43355 0.35433 0.59871 0.0
C2560 C 0.09288 0.05967 0.27715 0.0
C2561 C 0.1094 0.07183 0.27409 0.0
C2562 C 0.09309 0.04025 0.26986 0.0
C2563 C 0.12001 0.00514 0.23559 0.0
H2564 H 0.1074 0.96727 0.28012 0.0
C2565 C 0.14203 0.92587 0.2249 0.0
C2566 C 0.12555 0.91349 0.22463 0.0
C2567 C 0.14083 0.94427 0.23466 0.0
C2568 C 0.11097 0.97774 0.26762 0.0
H2569 H 0.13813 0.07386 0.25933 0.0
H2570 H 0.1384 0.04024 0.24625 0.0
H2571 H 0.10093 0.00236 0.28602 0.0
H2572 H 0.09584 0.90923 0.23628 0.0
H2573 H 0.09377 0.94144 0.25355 0.0
H2574 H 0.13024 0.98064 0.21729 0.0
C2575 C 0.12537 0.04557 0.2544 0.0
C2576 C 0.10706 -0.00228 0.27084 0.0
C2577 C 0.12523 0.06487 0.26185 0.0
C2578 C 0.10868 0.91868 0.2363 0.0
C2579 C 0.10752 0.93703 0.2462 0.0
C2580 C 0.12403 0.98526 0.23245 0.0
C2581 C 0.10969 0.03285 0.25917 0.0
C2582 C 0.11173 0.01159 0.25489 0.0
C2583 C 0.12315 0.9504 0.24424 0.0
C2584 C 0.11976 0.97144 0.24851 0.0
H2585 H 0.08035 0.06467 0.28641 0.0
H2586 H 0.08066 0.0308 0.27338 0.0
H2587 H 0.1235 0.01549 0.22295 0.0
H2588 H 0.15514 0.92217 0.21586 0.0
H2589 H 0.15315 0.95431 0.23326 0.0
C2590 C 0.17627 0.85491 0.51366 0.0
C2591 C 0.16784 0.8731 0.51922 0.0
C2592 C 0.19622 0.85368 0.50888 0.0
C2593 C 0.24126 0.88038 0.5224 0.0
H2594 H 0.26572 0.8448 0.48185 0.0
C2595 C 0.31604 0.88787 0.48303 0.0
C2596 C 0.32661 0.87066 0.47835 0.0
C2597 C 0.29878 0.88681 0.49492 0.0
C2598 C 0.25904 0.85442 0.49364 0.0
H2599 H 0.17291 0.9046 0.52148 0.0
H2600 H 0.20764 0.90254 0.51222 0.0
H2601 H 0.23 0.84673 0.48369 0.0
H2602 H 0.32884 0.83923 0.48422 0.0
H2603 H 0.29806 0.83729 0.50436 0.0
H2604 H 0.27048 0.88885 0.53138 0.0
C2605 C 0.19901 0.88914 0.51247 0.0
C2606 C 0.23863 0.85566 0.49454 0.0
C2607 C 0.17907 0.89035 0.51742 0.0
C2608 C 0.32079 0.85268 0.48752 0.0
C2609 C 0.30331 0.85156 0.49909 0.0
C2610 C 0.26169 0.87931 0.52131 0.0
C2611 C 0.20795 0.87067 0.50938 0.0
C2612 C 0.22956 0.86897 0.5086 0.0
C2613 C 0.2917 0.86846 0.50177 0.0
C2614 C 0.27068 0.86658 0.50665 0.0
H2615 H 0.1678 0.84142 0.51461 0.0
H2616 H 0.20266 0.83926 0.50637 0.0
H2617 H 0.23463 0.89033 0.53388 0.0
H2618 H 0.31998 0.9018 0.47576 0.0
H2619 H 0.2899 0.89999 0.49663 0.0
C2620 C 0.38656 0.91811 0.75973 0.0
C2621 C 0.36722 0.91339 0.76568 0.0
C2622 C 0.38997 0.93323 0.74512 0.0
C2623 C 0.36538 0.97253 0.71336 0.0
H2624 H 0.39368 0.00682 0.75231 0.0
C2625 C 0.34755 0.05443 0.71935 0.0
C2626 C 0.36352 0.06751 0.71988 0.0
C2627 C 0.35072 0.03427 0.72181 0.0
C2628 C 0.38605 -0.00253 0.741 0.0
H2629 H 0.33641 0.91885 0.75962 0.0
H2630 H 0.34222 0.94512 0.73407 0.0
H2631 H 0.39646 0.97142 0.75624 0.0
H2632 H 0.39493 0.07011 0.72562 0.0
H2633 H 0.40041 0.03494 0.72983 0.0
H2634 H 0.35432 -0.00119 0.69876 0.0
C2635 C 0.35479 0.93713 0.74027 0.0
C2636 C 0.38779 0.97714 0.74308 0.0
C2637 C 0.3514 0.92203 0.75487 0.0
C2638 C 0.38239 0.06029 0.72478 0.0
C2639 C 0.38554 0.04017 0.7272 0.0
C2640 C 0.36372 0.99291 0.71121 0.0
C2641 C 0.37406 0.94389 0.73666 0.0
C2642 C 0.37684 0.96449 0.72986 0.0
C2643 C 0.36985 0.02693 0.72494 0.0
C2644 C 0.37343 0.00551 0.72557 0.0
H2645 H 0.39898 0.91139 0.76778 0.0
H2646 H 0.40497 0.938 0.74229 0.0
H2647 H 0.35687 0.96307 0.70293 0.0
H2648 H 0.33281 0.0596 0.71588 0.0
H2649 H 0.33826 0.02437 0.72074 0.0
C2650 C 0.1734 0.13401 0.97524 0.0
C2651 C 0.16589 0.1152 0.97065 0.0
C2652 C 0.1935 0.13676 0.97799 0.0
C2653 C 0.2409 0.11354 0.96461 0.0
H2654 H 0.26095 0.14801 0.00889 0.0
C2655 C 0.3128 0.10495 0.00887 0.0
C2656 C 0.32142 0.12165 0.01793 0.0
C2657 C 0.29686 0.10698 0.99506 0.0
C2658 C 0.25562 0.1388 0.99599 0.0
H2659 H 0.17329 0.08424 0.96717 0.0
H2660 H 0.20847 0.08899 0.97277 0.0
H2661 H 0.22575 0.14498 0.00398 0.0
H2662 H 0.32194 0.15354 0.01844 0.0
H2663 H 0.2939 0.1572 0.99424 0.0
H2664 H 0.27097 0.10649 0.95763 0.0
C2665 C 0.19883 0.1017 0.97336 0.0
C2666 C 0.23542 0.13694 0.99331 0.0
C2667 C 0.17868 0.09894 0.97049 0.0
C2668 C 0.31531 0.14048 0.01156 0.0
C2669 C 0.2994 0.14256 -0.00229 0.0
C2670 C 0.26118 0.1153 0.96741 0.0
C2671 C 0.20645 0.12072 0.97647 0.0
C2672 C 0.22786 0.12388 0.97802 0.0
C2673 C 0.28927 0.1258 0.99053 0.0
C2674 C 0.26866 0.12752 0.98355 0.0
H2675 H 0.16385 0.14679 0.97574 0.0
H2676 H 0.19893 0.15159 0.98046 0.0
H2677 H 0.23542 0.10375 0.95232 0.0
H2678 H 0.317 0.09035 0.0142 0.0
H2679 H 0.28919 0.09381 0.98998 0.0
C2680 C 0.84914 0.06077 0.77447 0.0
C2681 C 0.86539 0.07346 0.77337 0.0
C2682 C 0.85067 0.04157 0.76682 0.0
C2683 C 0.8733 0.00772 0.73165 0.0
H2684 H 0.86861 0.96942 0.77764 0.0
C2685 C 0.85127 0.92683 0.72144 0.0
C2686 C 0.86751 0.91413 0.72322 0.0
C2687 C 0.85253 0.94612 0.72882 0.0
C2688 C 0.8701 0.98002 0.76478 0.0
H2689 H 0.89538 0.07678 0.76208 0.0
H2690 H 0.89777 0.04311 0.74797 0.0
H2691 H 0.86756 0.00481 0.78581 0.0
H2692 H 0.8973 0.91109 0.73521 0.0
H2693 H 0.89921 0.94501 0.7488 0.0
H2694 H 0.87492 0.98288 0.71053 0.0
C2695 C 0.88406 0.04805 0.75504 0.0
C2696 C 0.86943 0.0001 0.76937 0.0
C2697 C 0.88266 0.0672 0.76303 0.0
C2698 C 0.88458 0.92063 0.73376 0.0
C2699 C 0.88572 0.93992 0.74142 0.0
C2700 C 0.87365 0.98763 0.72702 0.0
C2701 C 0.86832 0.03497 0.7577 0.0
C2702 C 0.87069 0.014 0.75279 0.0
C2703 C 0.86991 0.95285 0.73831 0.0
C2704 C 0.87177 0.97375 0.74355 0.0
H2705 H 0.83575 0.06517 0.78257 0.0
H2706 H 0.83835 0.03161 0.76883 0.0
H2707 H 0.87432 0.01832 0.71874 0.0
H2708 H 0.83806 0.9223 0.71311 0.0
H2709 H 0.8402 0.95602 0.72643 0.0
C2710 C 0.6704 0.10148 0.50921 0.0
C2711 C 0.65959 0.11809 0.51538 0.0
C2712 C 0.6869 0.1036 0.49622 0.0
C2713 C 0.72553 0.13768 0.49618 0.0
H2714 H 0.74932 0.10214 0.45512 0.0
C2715 C 0.80898 0.13487 0.47765 0.0
C2716 C 0.81682 0.11609 0.47342 0.0
C2717 C 0.78884 0.13725 0.48085 0.0
C2718 C 0.74286 0.11209 0.46671 0.0
H2719 H 0.65611 0.14963 0.5114 0.0
H2720 H 0.68547 0.15345 0.48917 0.0
H2721 H 0.71354 0.10323 0.45866 0.0
H2722 H 0.81014 0.08487 0.47157 0.0
H2723 H 0.77514 0.08895 0.47802 0.0
H2724 H 0.75477 0.1456 0.50531 0.0
C2725 C 0.681 0.1388 0.49406 0.0
C2726 C 0.72245 0.11291 0.46845 0.0
C2727 C 0.66431 0.13661 0.50677 0.0
C2728 C 0.80452 0.09954 0.47459 0.0
C2729 C 0.78443 0.10191 0.47793 0.0
C2730 C 0.74594 0.13672 0.4946 0.0
C2731 C 0.693 0.12245 0.48977 0.0
C2732 C 0.71368 0.12526 0.48366 0.0
C2733 C 0.77631 0.12085 0.48004 0.0
C2734 C 0.75477 0.12341 0.48037 0.0
H2735 H 0.66742 0.0872 0.51625 0.0
H2736 H 0.69608 0.09081 0.49335 0.0
H2737 H 0.71909 0.14708 0.50833 0.0
H2738 H 0.81821 0.14788 0.47716 0.0
H2739 H 0.78299 0.152 0.4827 0.0
C2740 C 0.6047 0.06226 0.23018 0.0
C2741 C 0.62263 0.06943 0.22216 0.0
C2742 C 0.60273 0.04245 0.2355 0.0
C2743 C 0.62452 -0.00497 0.22056 0.0
H2744 H 0.5941 0.97474 0.26816 0.0
C2745 C 0.63416 0.92073 0.26099 0.0
C2746 C 0.61761 0.91134 0.26958 0.0
C2747 C 0.632 0.93796 0.24915 0.0
C2748 C 0.6022 0.98023 0.25447 0.0
H2749 H 0.65309 0.06212 0.21545 0.0
H2750 H 0.64981 0.02754 0.22542 0.0
H2751 H 0.59742 0.0102 0.26353 0.0
H2752 H 0.5857 0.91139 0.27103 0.0
H2753 H 0.58198 0.94203 0.25087 0.0
H2754 H 0.6301 0.96492 0.21221 0.0
C2755 C 0.63711 0.03711 0.22689 0.0
C2756 C 0.60425 0.0005 0.25194 0.0
C2757 C 0.63908 0.05695 0.22153 0.0
C2758 C 0.59872 0.91844 0.2646 0.0
C2759 C 0.59656 0.93589 0.25307 0.0
C2760 C 0.62261 0.97474 0.2232 0.0
C2761 C 0.61869 0.02953 0.23297 0.0
C2762 C 0.61582 0.00808 0.23527 0.0
C2763 C 0.61327 0.94626 0.24623 0.0
C2764 C 0.6118 0.96721 0.24044 0.0
H2765 H 0.59185 0.07169 0.23101 0.0
H2766 H 0.58838 0.03706 0.24027 0.0
H2767 H 0.63304 0.0005 0.20717 0.0
H2768 H 0.64884 0.91596 0.26525 0.0
H2769 H 0.64512 0.94585 0.24427 0.0
C2770 C 0.66457 0.85284 0.98747 0.0
C2771 C 0.6595 0.87154 0.9796 0.0
C2772 C 0.68077 0.85068 0.00088 0.0
C2773 C 0.72112 0.87689 0.02842 0.0
H2774 H 0.75437 0.84486 0.99176 0.0
C2775 C 0.80418 0.88889 0.02474 0.0
C2776 C 0.81609 0.87198 0.02506 0.0
C2777 C 0.78397 0.88717 0.0215 0.0
C2778 C 0.7453 0.85357 0.00243 0.0
H2779 H 0.66579 0.90275 0.98111 0.0
H2780 H 0.6939 0.89908 0.00481 0.0
H2781 H 0.71888 0.84344 0.98775 0.0
H2782 H 0.81657 0.84029 0.02022 0.0
H2783 H 0.78133 0.83731 0.01485 0.0
H2784 H 0.74767 0.88738 0.04274 0.0
C2785 C 0.68536 0.88611 0.00085 0.0
C2786 C 0.72496 0.85263 0.00027 0.0
C2787 C 0.66924 0.88825 0.98731 0.0
C2788 C 0.80769 0.85356 0.02037 0.0
C2789 C 0.7875 0.85184 0.01725 0.0
C2790 C 0.74151 0.87768 0.03074 0.0
C2791 C 0.69205 0.86721 0.00644 0.0
C2792 C 0.71274 0.86473 0.0128 0.0
C2793 C 0.77537 0.86854 0.01853 0.0
C2794 C 0.75379 0.86649 0.01729 0.0
H2795 H 0.6571 0.83976 0.98177 0.0
H2796 H 0.6856 0.83598 0.0052 0.0
H2797 H 0.71195 0.88634 0.03822 0.0
H2798 H 0.81025 0.90331 0.0281 0.0
H2799 H 0.775 0.90037 0.02187 0.0
C2800 C 0.6029 0.56067 0.76937 0.0
C2801 C 0.62102 0.56961 0.77408 0.0
C2802 C 0.60189 0.54047 0.76582 0.0
C2803 C 0.62963 0.49563 0.77924 0.0
H2804 H 0.59471 0.47101 0.73827 0.0
C2805 C 0.64019 0.42299 0.73652 0.0
C2806 C 0.62337 0.41276 0.72999 0.0
C2807 C 0.63836 0.43914 0.75009 0.0
C2808 C 0.60412 0.47767 0.75023 0.0
H2809 H 0.65255 0.56492 0.77636 0.0
H2810 H 0.65087 0.52973 0.76919 0.0
H2811 H 0.59535 0.50666 0.74111 0.0
H2812 H 0.59192 0.40934 0.73444 0.0
H2813 H 0.58866 0.43792 0.75788 0.0
H2814 H 0.63927 0.46646 0.78725 0.0
C2815 C 0.63736 0.53821 0.76923 0.0
C2816 C 0.60461 0.49809 0.75172 0.0
C2817 C 0.63835 0.55841 0.77297 0.0
C2818 C 0.60506 0.41724 0.73919 0.0
C2819 C 0.6032 0.43346 0.75263 0.0
C2820 C 0.6293 0.47516 0.77756 0.0
C2821 C 0.61903 0.52895 0.76664 0.0
C2822 C 0.61772 0.50728 0.76585 0.0
C2823 C 0.61964 0.44531 0.75687 0.0
C2824 C 0.61685 0.46608 0.7627 0.0
H2825 H 0.58932 0.56904 0.76981 0.0
H2826 H 0.58757 0.53378 0.7637 0.0
H2827 H 0.63948 0.50234 0.79073 0.0
H2828 H 0.65438 0.41992 0.72934 0.0
H2829 H 0.65123 0.44814 0.75306 0.0
C2830 C 0.8109 0.35486 0.97727 0.0
C2831 C 0.81905 0.37341 0.97271 0.0
C2832 C 0.7908 0.35296 0.98099 0.0
C2833 C 0.74466 0.37829 0.96787 0.0
H2834 H 0.72214 0.34359 0.01056 0.0
C2835 C 0.67076 0.3874 0.00863 0.0
C2836 C 0.66152 0.37061 0.01689 0.0
C2837 C 0.68734 0.38542 0.99569 0.0
C2838 C 0.72818 0.35292 -0.00188 0.0
H2839 H 0.81298 0.40476 0.9706 0.0
H2840 H 0.77786 0.40146 0.97769 0.0
H2841 H 0.75765 0.34567 0.00699 0.0
H2842 H 0.66048 0.33871 0.01621 0.0
H2843 H 0.68963 0.33522 0.99364 0.0
H2844 H 0.71505 0.38624 0.9598 0.0
C2845 C 0.78695 0.38834 0.97762 0.0
C2846 C 0.74854 0.35424 0.99624 0.0
C2847 C 0.80708 0.39025 0.97389 0.0
C2848 C 0.66756 0.35186 0.01008 0.0
C2849 C 0.68416 0.34986 0.99719 0.0
C2850 C 0.72425 0.37705 0.96984 0.0
C2851 C 0.77853 0.36959 0.98032 0.0
C2852 C 0.75696 0.36732 0.98149 0.0
C2853 C 0.69494 0.36661 0.99119 0.0
C2854 C 0.71587 0.36471 0.98535 0.0
H2855 H 0.81987 0.34166 0.97672 0.0
H2856 H 0.78474 0.33834 0.9832 0.0
H2857 H 0.75081 0.38809 0.95594 0.0
H2858 H 0.66658 0.40195 0.01409 0.0
H2859 H 0.69543 0.39858 0.99138 0.0
C2860 C 0.87545 0.56502 0.23574 0.0
C2861 C 0.86362 0.56929 0.218 0.0
C2862 C 0.8773 0.54559 0.24282 0.0
C2863 C 0.87633 0.49531 0.22434 0.0
H2864 H 0.85963 0.48082 0.28156 0.0
C2865 C 0.88536 0.41916 0.26778 0.0
C2866 C 0.86737 0.41183 0.27549 0.0
C2867 C 0.88624 0.43787 0.25855 0.0
C2868 C 0.86444 0.48477 0.2656 0.0
H2869 H 0.84478 0.55723 0.19337 0.0
H2870 H 0.8483 0.5231 0.20553 0.0
H2871 H 0.85929 0.51553 0.27083 0.0
H2872 H 0.83612 0.41775 0.27881 0.0
H2873 H 0.83778 0.45047 0.26285 0.0
H2874 H 0.88146 0.46445 0.21919 0.0
C2875 C 0.85587 0.53471 0.2141 0.0
C2876 C 0.86435 0.5045 0.25955 0.0
C2877 C 0.85366 0.55413 0.20736 0.0
C2878 C 0.85014 0.42297 0.2728 0.0
C2879 C 0.85108 0.4417 0.26386 0.0
C2880 C 0.87677 0.47556 0.23054 0.0
C2881 C 0.86779 0.53033 0.23177 0.0
C2882 C 0.8699 0.50982 0.23877 0.0
C2883 C 0.8692 0.44944 0.25729 0.0
C2884 C 0.8704 0.47021 0.25104 0.0
H2885 H 0.88341 0.57663 0.24388 0.0
H2886 H 0.88651 0.54241 0.25654 0.0
H2887 H 0.88074 0.49925 0.20825 0.0
H2888 H 0.89883 0.4108 0.26971 0.0
H2889 H 0.90034 0.4437 0.25352 0.0
C2890 C 0.67821 0.59919 0.47488 0.0
C2891 C 0.66665 0.61625 0.47294 0.0
C2892 C 0.69825 0.60072 0.47915 0.0
C2893 C 0.73763 0.63392 0.4969 0.0
H2894 H 0.76966 0.60137 0.45943 0.0
C2895 C 0.81931 0.63516 0.50743 0.0
C2896 C 0.82574 0.61626 0.51333 0.0
C2897 C 0.80203 0.63741 0.49572 0.0
C2898 C 0.76088 0.61066 0.46982 0.0
H2899 H 0.66641 0.64807 0.47616 0.0
H2900 H 0.70152 0.65073 0.48358 0.0
H2901 H 0.73383 0.60019 0.45665 0.0
H2902 H 0.82107 0.58492 0.50903 0.0
H2903 H 0.79085 0.58882 0.48875 0.0
H2904 H 0.76457 0.64398 0.5105 0.0
C2905 C 0.69514 0.63623 0.48162 0.0
C2906 C 0.74043 0.60983 0.46843 0.0
C2907 C 0.67507 0.6347 0.47737 0.0
C2908 C 0.81633 0.59966 0.50479 0.0
C2909 C 0.79901 0.60191 0.49312 0.0
C2910 C 0.75806 0.63477 0.49826 0.0
C2911 C 0.70703 0.61931 0.48152 0.0
C2912 C 0.72865 0.62106 0.48235 0.0
C2913 C 0.79101 0.62079 0.4899 0.0
C2914 C 0.76986 0.6228 0.48509 0.0
H2915 H 0.67217 0.58477 0.47148 0.0
H2916 H 0.70705 0.5874 0.47962 0.0
H2917 H 0.72889 0.64271 0.50781 0.0
H2918 H 0.82662 0.6482 0.51346 0.0
H2919 H 0.79638 0.65213 0.49293 0.0
C2920 C 0.34955 0.55275 0.27685 0.0
C2921 C 0.36565 0.56555 0.27474 0.0
C2922 C 0.35211 0.53252 0.27404 0.0
C2923 C 0.3851 0.49536 0.25107 0.0
H2924 H 0.36028 0.46085 0.29261 0.0
C2925 C 0.38662 0.41697 0.23224 0.0
C2926 C 0.36703 0.41121 0.22897 0.0
C2927 C 0.39095 0.43174 0.24692 0.0
C2928 C 0.36751 0.47033 0.2811 0.0
H2929 H 0.39649 0.56763 0.26608 0.0
H2930 H 0.40092 0.53237 0.26105 0.0
H2931 H 0.35733 0.49662 0.2965 0.0
H2932 H 0.33734 0.41318 0.24116 0.0
H2933 H 0.34454 0.43974 0.26592 0.0
H2934 H 0.3946 0.46944 0.23507 0.0
C2935 C 0.38643 0.53784 0.26517 0.0
C2936 C 0.36562 0.49074 0.28315 0.0
C2937 C 0.38389 0.55801 0.26803 0.0
C2938 C 0.35243 0.41781 0.24305 0.0
C2939 C 0.35667 0.43294 0.25742 0.0
C2940 C 0.38701 0.47507 0.24904 0.0
C2941 C 0.37075 0.52486 0.26891 0.0
C2942 C 0.37393 0.50338 0.26777 0.0
C2943 C 0.3756 0.4413 0.25784 0.0
C2944 C 0.37775 0.46229 0.26365 0.0
H2945 H 0.33528 0.55817 0.2819 0.0
H2946 H 0.33964 0.52283 0.2764 0.0
H2947 H 0.39156 0.50473 0.23892 0.0
H2948 H 0.39826 0.41152 0.22196 0.0
H2949 H 0.40583 0.43742 0.24759 0.0
C2950 C 0.3156 0.64251 0.98236 0.0
C2951 C 0.32452 0.62427 0.97795 0.0
C2952 C 0.2979 0.6432 0.99364 0.0
C2953 C 0.2607 0.61358 0.02235 0.0
H2954 H 0.22477 0.63541 0.98026 0.0
C2955 C 0.17972 0.59291 0.02435 0.0
C2956 C 0.16695 0.60914 0.02409 0.0
C2957 C 0.19923 0.5952 0.01783 0.0
C2958 C 0.23459 0.62941 0.99226 0.0
H2959 H 0.32332 0.59291 0.98393 0.0
H2960 H 0.29302 0.59412 0.00428 0.0
H2961 H 0.25992 0.64167 0.97706 0.0
H2962 H 0.16348 0.63962 0.01446 0.0
H2963 H 0.19746 0.64366 0.00318 0.0
H2964 H 0.23538 0.60116 0.03744 0.0
C2965 C 0.29952 0.60787 -0.00099 0.0
C2966 C 0.25467 0.63318 0.9906 0.0
C2967 C 0.31702 0.60716 0.98748 0.0
C2968 C 0.17321 0.62696 0.01498 0.0
C2969 C 0.19266 0.62926 0.00849 0.0
C2970 C 0.24059 0.60992 0.02411 0.0
C2971 C 0.28914 0.62567 0.00079 0.0
C2972 C 0.26791 0.625 0.0054 0.0
C2973 C 0.20609 0.61372 0.01101 0.0
C2974 C 0.22739 0.61747 0.00884 0.0
H2975 H 0.32123 0.65599 0.97537 0.0
H2976 H 0.29023 0.65714 0.99512 0.0
H2977 H 0.27067 0.60711 0.03391 0.0
H2978 H 0.17519 0.57901 0.0313 0.0
H2979 H 0.20921 0.58282 0.01933 0.0
C2980 C 0.13767 0.43139 0.7771 0.0
C2981 C 0.122 0.41824 0.77387 0.0
C2982 C 0.13497 0.45155 0.77372 0.0
C2983 C 0.10291 0.48739 0.74683 0.0
H2984 H 0.123 0.52385 0.78935 0.0
C2985 C 0.09333 0.5666 0.73003 0.0
C2986 C 0.11185 0.57563 0.72856 0.0
C2987 C 0.09078 0.55015 0.74302 0.0
C2988 C 0.1172 0.51381 0.77746 0.0
H2989 H 0.09175 0.41556 0.76326 0.0
H2990 H 0.08707 0.45066 0.75731 0.0
H2991 H 0.12786 0.48834 0.79412 0.0
H2992 H 0.14068 0.5776 0.74291 0.0
H2993 H 0.13683 0.54804 0.76458 0.0
H2994 H 0.09279 0.51251 0.72976 0.0
C2995 C 0.10136 0.4455 0.76256 0.0
C2996 C 0.12014 0.49356 0.78006 0.0
C2997 C 0.10403 0.42542 0.76598 0.0
C2998 C 0.1266 0.57029 0.7431 0.0
C2999 C 0.12425 0.55346 0.75572 0.0
C3000 C 0.09996 0.50751 0.74425 0.0
C3001 C 0.11663 0.45881 0.76692 0.0
C3002 C 0.11324 0.48021 0.76459 0.0
C3003 C 0.10689 0.54229 0.75421 0.0
C3004 C 0.10727 0.521 0.75937 0.0
H3005 H 0.15168 0.42626 0.78321 0.0
H3006 H 0.14711 0.46149 0.77675 0.0
H3007 H 0.09765 0.47749 0.73452 0.0
H3008 H 0.08142 0.57095 0.7195 0.0
H3009 H 0.07693 0.54228 0.74231 0.0
C3010 C 0.16832 0.3449 0.48153 0.0
C3011 C 0.16051 0.36343 0.47608 0.0
C3012 C 0.18691 0.34352 0.49091 0.0
C3013 C 0.22633 0.37178 0.51684 0.0
H3014 H 0.26163 0.34258 0.47966 0.0
C3015 C 0.30825 0.38722 0.51855 0.0
C3016 C 0.32036 0.37059 0.52074 0.0
C3017 C 0.28871 0.38503 0.51231 0.0
C3018 C 0.25193 0.35061 0.4903 0.0
H3019 H 0.16562 0.39491 0.47691 0.0
H3020 H 0.19732 0.39259 0.49438 0.0
H3021 H 0.22605 0.33946 0.47505 0.0
H3022 H 0.32232 0.33899 0.51588 0.0
H3023 H 0.28808 0.33516 0.5052 0.0
H3024 H 0.25207 0.38319 0.5319 0.0
C3025 C 0.18914 0.37916 0.49149 0.0
C3026 C 0.23163 0.34869 0.48781 0.0
C3027 C 0.17082 0.38052 0.48174 0.0
C3028 C 0.31318 0.35202 0.51458 0.0
C3029 C 0.29361 0.34983 0.5084 0.0
C3030 C 0.24658 0.37364 0.51939 0.0
C3031 C 0.19768 0.36066 0.49528 0.0
C3032 C 0.21871 0.35964 0.50074 0.0
C3033 C 0.28099 0.36619 0.50823 0.0
C3034 C 0.25956 0.36348 0.50578 0.0
H3035 H 0.16069 0.33146 0.47723 0.0
H3036 H 0.19325 0.3291 0.49379 0.0
H3037 H 0.2166 0.38027 0.52704 0.0
H3038 H 0.31339 0.40171 0.52313 0.0
H3039 H 0.27936 0.39796 0.5117 0.0
C3040 C 0.11493 0.11647 0.04021 0.0
C3041 C 0.09671 0.11657 0.02956 0.0
C3042 C 0.11611 0.12132 0.06182 0.0
C3043 C 0.09115 0.14429 0.10767 0.0
H3044 H 0.12032 0.10495 0.1397 0.0
C3045 C 0.11696 0.15238 0.19616 0.0
C3046 C 0.11642 0.13532 0.20892 0.0
C3047 C 0.1116 0.15157 0.17456 0.0
C3048 C 0.11196 0.11597 0.13105 0.0
H3049 H 0.06565 0.12326 0.03292 0.0
H3050 H 0.06776 0.13174 0.07099 0.0
H3051 H 0.11745 0.10186 0.10113 0.0
H3052 H 0.10844 0.10435 0.20941 0.0
H3053 H 0.0991 0.10299 0.17186 0.0
H3054 H 0.08582 0.15843 0.13788 0.0
C3055 C 0.08108 0.12782 0.06246 0.0
C3056 C 0.11052 0.11433 0.10891 0.0
C3057 C 0.07987 0.12291 0.04071 0.0
C3058 C 0.10925 0.11773 0.19999 0.0
C3059 C 0.10396 0.11692 0.17845 0.0
C3060 C 0.09276 0.14605 0.12995 0.0
C3061 C 0.09913 0.12641 0.07335 0.0
C3062 C 0.10021 0.12849 0.09694 0.0
C3063 C 0.10567 0.13365 0.16534 0.0
C3064 C 0.10317 0.13185 0.14185 0.0
H3065 H 0.12828 0.11199 0.03205 0.0
H3066 H 0.13029 0.12051 0.06969 0.0
H3067 H 0.08314 0.15542 0.0988 0.0
H3068 H 0.12232 0.16619 0.20258 0.0
H3069 H 0.11311 0.16469 0.16483 0.0
C3070 C 0.1194 0.86958 0.44973 0.0
C3071 C 0.10105 0.87275 0.45955 0.0
C3072 C 0.12054 0.86483 0.42808 0.0
C3073 C 0.093 0.84772 0.3808 0.0
H3074 H 0.13059 0.88045 0.35051 0.0
C3075 C 0.11757 0.83581 0.29248 0.0
C3076 C 0.12124 0.85278 0.2802 0.0
C3077 C 0.11235 0.83744 0.31407 0.0
C3078 C 0.11989 0.87132 0.35867 0.0
H3079 H 0.06946 0.872 0.45467 0.0
H3080 H 0.07151 0.86372 0.41664 0.0
H3081 H 0.12741 0.88348 0.38906 0.0
H3082 H 0.12085 0.88477 0.28051 0.0
H3083 H 0.11167 0.88756 0.31801 0.0
H3084 H 0.0855 0.83563 0.35013 0.0
C3085 C 0.08498 0.86497 0.42579 0.0
C3086 C 0.11826 0.87286 0.38081 0.0
C3087 C 0.08382 0.86978 0.44754 0.0
C3088 C 0.11842 0.87139 0.28959 0.0
C3089 C 0.11322 0.873 0.3111 0.0
C3090 C 0.09474 0.84607 0.35853 0.0
C3091 C 0.10338 0.8631 0.41572 0.0
C3092 C 0.10489 0.86105 0.39215 0.0
C3093 C 0.11073 0.85606 0.32375 0.0
C3094 C 0.10819 0.85791 0.34725 0.0
H3095 H 0.13298 0.87148 0.45857 0.0
H3096 H 0.13492 0.86307 0.42084 0.0
H3097 H 0.08258 0.83842 0.38916 0.0
H3098 H 0.11952 0.82126 0.28569 0.0
H3099 H 0.11057 0.82412 0.32343 0.0
C3100 C 0.36835 0.83926 0.69792 0.0
C3101 C 0.36561 0.85686 0.70938 0.0
C3102 C 0.37447 0.83971 0.67656 0.0
C3103 C 0.39553 0.87239 0.63452 0.0
H3104 H 0.36668 0.83826 0.59598 0.0
C3105 C 0.40687 0.87695 0.54333 0.0
C3106 C 0.38953 0.87718 0.53111 0.0
C3107 C 0.40639 0.87141 0.56488 0.0
C3108 C 0.37487 0.8479 0.60651 0.0
H3109 H 0.368 0.88872 0.7077 0.0
H3110 H 0.37832 0.88951 0.67046 0.0
H3111 H 0.36184 0.83518 0.63441 0.0
H3112 H 0.35821 0.87089 0.53169 0.0
H3113 H 0.35731 0.86163 0.5692 0.0
H3114 H 0.40776 0.88582 0.60659 0.0
C3115 C 0.37599 0.87532 0.67797 0.0
C3116 C 0.37228 0.84597 0.62859 0.0
C3117 C 0.36995 0.87487 0.69933 0.0
C3118 C 0.37186 0.87091 0.54064 0.0
C3119 C 0.37136 0.86546 0.56217 0.0
C3120 C 0.39806 0.87437 0.61244 0.0
C3121 C 0.37794 0.85776 0.66618 0.0
C3122 C 0.3823 0.85845 0.64286 0.0
C3123 C 0.38854 0.86604 0.57469 0.0
C3124 C 0.38747 0.8624 0.59814 0.0
H3125 H 0.3653 0.82513 0.70525 0.0
H3126 H 0.37618 0.8259 0.66808 0.0
H3127 H 0.40369 0.88205 0.64505 0.0
H3128 H 0.42075 0.88154 0.53643 0.0
H3129 H 0.41995 0.87167 0.57395 0.0
C3130 C 0.36165 0.15728 0.79146 0.0
C3131 C 0.35946 0.13966 0.77992 0.0
C3132 C 0.36806 0.15691 0.81275 0.0
C3133 C 0.39045 0.12408 0.85412 0.0
H3134 H 0.36182 0.15748 0.89367 0.0
C3135 C 0.40277 0.11776 0.94492 0.0
C3136 C 0.38566 0.1176 0.95753 0.0
C3137 C 0.40198 0.12362 0.92349 0.0
C3138 C 0.36992 0.14802 0.88285 0.0
H3139 H 0.36295 0.10788 0.78146 0.0
H3140 H 0.37355 0.1072 0.81842 0.0
H3141 H 0.35654 0.16114 0.85537 0.0
H3142 H 0.3544 0.12427 0.95775 0.0
H3143 H 0.35294 0.13404 0.9204 0.0
H3144 H 0.40293 0.11014 0.88158 0.0
C3145 C 0.37075 0.12138 0.81108 0.0
C3146 C 0.36711 0.15031 0.86083 0.0
C3147 C 0.36453 0.12176 0.78983 0.0
C3148 C 0.36788 0.1242 0.94849 0.0
C3149 C 0.36707 0.12994 0.92705 0.0
C3150 C 0.39315 0.1217 0.87611 0.0
C3151 C 0.37229 0.1389 0.82295 0.0
C3152 C 0.37704 0.13808 0.84619 0.0
C3153 C 0.38403 0.12936 0.91415 0.0
C3154 C 0.38265 0.13339 0.89078 0.0
H3155 H 0.358 0.17132 0.78424 0.0
H3156 H 0.36941 0.17071 0.82129 0.0
H3157 H 0.39859 0.11462 0.84333 0.0
H3158 H 0.41673 0.11293 0.95144 0.0
H3159 H 0.4154 0.12334 0.91414 0.0
C3160 C 0.86742 0.87267 0.79292 0.0
C3161 C 0.86523 0.85401 0.78347 0.0
C3162 C 0.87204 0.8744 0.81459 0.0
C3163 C 0.89046 0.84768 0.86223 0.0
H3164 H 0.85788 0.88541 0.89256 0.0
C3165 C 0.90171 0.8712 0.95116 0.0
C3166 C 0.88456 0.87432 0.9633 0.0
C3167 C 0.90043 0.8666 0.92937 0.0
C3168 C 0.867 0.8747 0.88437 0.0
H3169 H 0.86727 0.82254 0.78913 0.0
H3170 H 0.8752 0.82559 0.82709 0.0
H3171 H 0.85462 0.88211 0.85404 0.0
H3172 H 0.85261 0.8737 0.96239 0.0
H3173 H 0.85045 0.86565 0.9246 0.0
H3174 H 0.90265 0.84019 0.89286 0.0
C3175 C 0.8734 0.83887 0.81767 0.0
C3176 C 0.86532 0.873 0.86223 0.0
C3177 C 0.86876 0.83713 0.79594 0.0
C3178 C 0.86614 0.87164 0.95349 0.0
C3179 C 0.86488 0.86711 0.93178 0.0
C3180 C 0.89223 0.84948 0.88448 0.0
C3181 C 0.87457 0.85753 0.82735 0.0
C3182 C 0.877 0.85948 0.85087 0.0
C3183 C 0.88198 0.86511 0.91934 0.0
C3184 C 0.8804 0.86293 0.89577 0.0
H3185 H 0.86504 0.88601 0.78374 0.0
H3186 H 0.87324 0.889 0.82147 0.0
H3187 H 0.89971 0.83718 0.8539 0.0
H3188 H 0.91612 0.87305 0.95827 0.0
H3189 H 0.91387 0.86513 0.92017 0.0
C3190 C 0.8689 0.15264 0.70176 0.0
C3191 C 0.86614 0.13564 0.71427 0.0
C3192 C 0.87373 0.15105 0.68005 0.0
C3193 C 0.86666 0.11625 0.63606 0.0
H3194 H 0.90071 0.15118 0.60378 0.0
C3195 C 0.86356 0.11726 0.54503 0.0
C3196 C 0.88164 0.11568 0.53424 0.0
C3197 C 0.86298 0.12193 0.56674 0.0
C3198 C 0.89122 0.14129 0.61263 0.0
H3199 H 0.86792 0.1037 0.71425 0.0
H3200 H 0.87652 0.10098 0.67659 0.0
H3201 H 0.89905 0.15406 0.64288 0.0
H3202 H 0.91324 0.11911 0.53749 0.0
H3203 H 0.91218 0.12718 0.57562 0.0
H3204 H 0.85885 0.10338 0.60612 0.0
C3205 C 0.87447 0.11552 0.68338 0.0
C3206 C 0.89018 0.14301 0.63496 0.0
C3207 C 0.86961 0.1171 0.70499 0.0
C3208 C 0.89907 0.1201 0.54537 0.0
C3209 C 0.89848 0.12478 0.56719 0.0
C3210 C 0.86761 0.11462 0.61388 0.0
C3211 C 0.87593 0.13243 0.67048 0.0
C3212 C 0.87788 0.13047 0.6469 0.0
C3213 C 0.88045 0.12512 0.57823 0.0
C3214 C 0.87977 0.12718 0.60187 0.0
H3215 H 0.86645 0.16715 0.70846 0.0
H3216 H 0.87472 0.16436 0.67054 0.0
H3217 H 0.85681 0.10656 0.6447 0.0
H3218 H 0.84982 0.11424 0.53689 0.0
H3219 H 0.84882 0.12253 0.57469 0.0
C3220 C 0.61829 0.11897 0.4511 0.0
C3221 C 0.60042 0.11235 0.45988 0.0
C3222 C 0.61932 0.12489 0.42972 0.0
C3223 C 0.59393 0.11692 0.37843 0.0
H3224 H 0.63009 0.15706 0.35843 0.0
C3225 C 0.62279 0.11879 0.29209 0.0
C3226 C 0.62676 0.13704 0.28237 0.0
C3227 C 0.61693 0.11783 0.31346 0.0
C3228 C 0.61968 0.146 0.36371 0.0
H3229 H 0.56941 0.10782 0.45342 0.0
H3230 H 0.57113 0.11848 0.41622 0.0
H3231 H 0.62459 0.15291 0.39668 0.0
H3232 H 0.62688 0.16867 0.28728 0.0
H3233 H 0.61628 0.16702 0.32457 0.0
H3234 H 0.58894 0.11006 0.34551 0.0
C3235 C 0.58445 0.11867 0.42573 0.0
C3236 C 0.61672 0.14346 0.38568 0.0
C3237 C 0.58343 0.11266 0.4471 0.0
C3238 C 0.62406 0.15437 0.29432 0.0
C3239 C 0.6181 0.15341 0.31573 0.0
C3240 C 0.59683 0.11951 0.35649 0.0
C3241 C 0.60249 0.12443 0.41663 0.0
C3242 C 0.6041 0.12862 0.39332 0.0
C3243 C 0.61476 0.1351 0.32565 0.0
C3244 C 0.61005 0.13381 0.34886 0.0
H3245 H 0.63168 0.11894 0.4605 0.0
H3246 H 0.63351 0.12903 0.42324 0.0
H3247 H 0.58425 0.10521 0.3837 0.0
H3248 H 0.62477 0.10513 0.28338 0.0
H3249 H 0.61479 0.10345 0.32062 0.0
C3250 C 0.6149 0.86607 0.04243 0.0
C3251 C 0.59739 0.87282 0.03293 0.0
C3252 C 0.61515 0.86025 0.06385 0.0
C3253 C 0.5883 0.86934 0.11397 0.0
H3254 H 0.62411 0.82977 0.13604 0.0
C3255 C 0.61677 0.86999 0.20062 0.0
C3256 C 0.6209 0.852 0.21083 0.0
C3257 C 0.61062 0.87036 0.17931 0.0
C3258 C 0.61378 0.84066 0.13019 0.0
H3259 H 0.56617 0.87745 0.03808 0.0
H3260 H 0.56654 0.86692 0.07539 0.0
H3261 H 0.61932 0.83279 0.09759 0.0
H3262 H 0.62075 0.82023 0.20699 0.0
H3263 H 0.60972 0.82088 0.16989 0.0
H3264 H 0.58276 0.87721 0.14656 0.0
C3265 C 0.58017 0.8666 0.0664 0.0
C3266 C 0.61121 0.84256 0.1081 0.0
C3267 C 0.57993 0.87252 0.04498 0.0
C3268 C 0.61786 0.83435 0.19955 0.0
C3269 C 0.61164 0.83472 0.17824 0.0
C3270 C 0.5908 0.8674 0.13605 0.0
C3271 C 0.59789 0.86091 0.07626 0.0
C3272 C 0.59878 0.8572 0.0997 0.0
C3273 C 0.60836 0.85275 0.16771 0.0
C3274 C 0.60391 0.85333 0.14442 0.0
H3275 H 0.62863 0.86608 0.0336 0.0
H3276 H 0.62911 0.85614 0.07092 0.0
H3277 H 0.57874 0.88091 0.10809 0.0
H3278 H 0.61894 0.88387 0.20884 0.0
H3279 H 0.60844 0.88453 0.17168 0.0
C3280 C 0.61878 0.62095 0.70356 0.0
C3281 C 0.62347 0.63905 0.71319 0.0
C3282 C 0.6124 0.62024 0.68238 0.0
C3283 C 0.6153 0.64856 0.63226 0.0
H3284 H 0.57992 0.60774 0.61235 0.0
C3285 C 0.61583 0.62038 0.54562 0.0
C3286 C 0.59835 0.61321 0.53652 0.0
C3287 C 0.61618 0.62677 0.56684 0.0
C3288 C 0.58956 0.61948 0.61758 0.0
H3289 H 0.62422 0.6707 0.70843 0.0
H3290 H 0.6127 0.66948 0.67147 0.0
H3291 H 0.58419 0.61292 0.65052 0.0
H3292 H 0.56727 0.60818 0.54218 0.0
H3293 H 0.56778 0.61976 0.5791 0.0
H3294 H 0.62057 0.6552 0.5993 0.0
C3295 C 0.61436 0.65579 0.6802 0.0
C3296 C 0.59222 0.62227 0.63952 0.0
C3297 C 0.62086 0.65651 0.70142 0.0
C3298 C 0.58101 0.61346 0.54878 0.0
C3299 C 0.58134 0.61999 0.56999 0.0
C3300 C 0.61253 0.64587 0.61031 0.0
C3301 C 0.61041 0.63761 0.6703 0.0
C3302 C 0.60553 0.63647 0.64713 0.0
C3303 C 0.59903 0.6263 0.57944 0.0
C3304 C 0.60002 0.63095 0.60268 0.0
H3305 H 0.62063 0.60721 0.71214 0.0
H3306 H 0.6098 0.60594 0.67524 0.0
H3307 H 0.62577 0.65956 0.6375 0.0
H3308 H 0.62947 0.62036 0.53663 0.0
H3309 H 0.63014 0.63125 0.5736 0.0
C3310 C 0.61852 0.33488 0.79301 0.0
C3311 C 0.62174 0.35266 0.78203 0.0
C3312 C 0.61223 0.33502 0.81431 0.0
C3313 C 0.59167 0.36723 0.857 0.0
H3314 H 0.62095 0.33268 0.89484 0.0
C3315 C 0.58193 0.37168 0.94824 0.0
C3316 C 0.59955 0.37218 0.95999 0.0
C3317 C 0.58198 0.36592 0.92678 0.0
C3318 C 0.61263 0.34241 0.88449 0.0
H3319 H 0.61987 0.38452 0.78442 0.0
H3320 H 0.60923 0.38476 0.82154 0.0
H3321 H 0.6252 0.3298 0.85629 0.0
H3322 H 0.63088 0.36606 0.95874 0.0
H3323 H 0.63102 0.35634 0.92131 0.0
H3324 H 0.57992 0.38056 0.88521 0.0
C3325 C 0.61136 0.37068 0.81372 0.0
C3326 C 0.61488 0.3406 0.86237 0.0
C3327 C 0.61761 0.37055 0.79244 0.0
C3328 C 0.61704 0.36586 0.95014 0.0
C3329 C 0.6171 0.36017 0.92867 0.0
C3330 C 0.58946 0.36907 0.87912 0.0
C3331 C 0.60903 0.35293 0.82506 0.0
C3332 C 0.60475 0.35327 0.84837 0.0
C3333 C 0.59965 0.36058 0.91659 0.0
C3334 C 0.60023 0.35696 0.89315 0.0
H3335 H 0.6214 0.32084 0.78538 0.0
H3336 H 0.61025 0.32109 0.82248 0.0
H3337 H 0.58346 0.37705 0.84666 0.0
H3338 H 0.56817 0.37629 0.95542 0.0
H3339 H 0.56822 0.36605 0.91804 0.0
C3340 C 0.9038 0.36855 0.04708 0.0
C3341 C 0.88659 0.3719 0.03511 0.0
C3342 C 0.90259 0.36333 0.06872 0.0
C3343 C 0.86958 0.37123 0.11378 0.0
H3344 H 0.9016 0.33294 0.14401 0.0
C3345 C 0.87053 0.36967 0.20491 0.0
C3346 C 0.86682 0.35122 0.2143 0.0
C3347 C 0.87563 0.37105 0.18335 0.0
C3348 C 0.89258 0.34367 0.13573 0.0
H3349 H 0.85466 0.37088 0.03606 0.0
H3350 H 0.85263 0.36184 0.07363 0.0
H3351 H 0.90441 0.33595 0.10496 0.0
H3352 H 0.86696 0.31966 0.20877 0.0
H3353 H 0.87582 0.32213 0.17096 0.0
H3354 H 0.85766 0.37898 0.14424 0.0
C3355 C 0.86703 0.36356 0.06641 0.0
C3356 C 0.89424 0.34544 0.11346 0.0
C3357 C 0.86822 0.36868 0.04485 0.0
C3358 C 0.8696 0.3341 0.20198 0.0
C3359 C 0.87475 0.3355 0.18035 0.0
C3360 C 0.86806 0.3696 0.13593 0.0
C3361 C 0.88417 0.36146 0.07875 0.0
C3362 C 0.88264 0.35917 0.10228 0.0
C3363 C 0.87718 0.35403 0.17068 0.0
C3364 C 0.87952 0.35583 0.14717 0.0
H3365 H 0.91818 0.37078 0.04002 0.0
H3366 H 0.91604 0.36179 0.07787 0.0
H3367 H 0.86065 0.38214 0.10566 0.0
H3368 H 0.86879 0.38315 0.214 0.0
H3369 H 0.87781 0.38552 0.17642 0.0
C3370 C 0.86527 0.65395 0.2948 0.0
C3371 C 0.86335 0.63645 0.28298 0.0
C3372 C 0.87176 0.65344 0.31603 0.0
C3373 C 0.89471 0.62063 0.35704 0.0
H3374 H 0.86556 0.65342 0.39675 0.0
C3375 C 0.90588 0.6126 0.44784 0.0
C3376 C 0.88854 0.61227 0.46007 0.0
C3377 C 0.90552 0.61909 0.4266 0.0
C3378 C 0.87382 0.64412 0.3859 0.0
H3379 H 0.86746 0.60475 0.28394 0.0
H3380 H 0.87824 0.60379 0.32094 0.0
H3381 H 0.86025 0.65718 0.35852 0.0
H3382 H 0.85737 0.61934 0.45991 0.0
H3383 H 0.85662 0.63006 0.42293 0.0
H3384 H 0.90731 0.60667 0.38442 0.0
C3385 C 0.87512 0.61799 0.31381 0.0
C3386 C 0.87099 0.64647 0.36391 0.0
C3387 C 0.86879 0.61852 0.29257 0.0
C3388 C 0.87103 0.61943 0.45096 0.0
C3389 C 0.87063 0.62571 0.42971 0.0
C3390 C 0.89741 0.61815 0.37903 0.0
C3391 C 0.87634 0.6354 0.32595 0.0
C3392 C 0.88109 0.63447 0.34919 0.0
C3393 C 0.88777 0.62522 0.41709 0.0
C3394 C 0.88669 0.62958 0.39376 0.0
H3395 H 0.86135 0.66803 0.28783 0.0
H3396 H 0.87287 0.66717 0.32475 0.0
H3397 H 0.903 0.61136 0.34619 0.0
H3398 H 0.91964 0.60733 0.45446 0.0
H3399 H 0.91909 0.61889 0.41751 0.0
C3400 C 0.37284 0.33715 0.29628 0.0
C3401 C 0.37027 0.3545 0.2843 0.0
C3402 C 0.37794 0.33809 0.31791 0.0
C3403 C 0.37171 0.3717 0.36297 0.0
H3404 H 0.40496 0.33486 0.39377 0.0
C3405 C 0.36831 0.3677 0.45369 0.0
C3406 C 0.38643 0.36906 0.46442 0.0
C3407 C 0.36768 0.36341 0.43192 0.0
C3408 C 0.39569 0.34526 0.38533 0.0
H3409 H 0.37266 0.38639 0.28515 0.0
H3410 H 0.38175 0.38799 0.3228 0.0
H3411 H 0.40337 0.33345 0.35458 0.0
H3412 H 0.41799 0.36541 0.46108 0.0
H3413 H 0.41686 0.358 0.42279 0.0
H3414 H 0.36402 0.38359 0.39344 0.0
C3415 C 0.37937 0.37367 0.3156 0.0
C3416 C 0.39471 0.34441 0.36296 0.0
C3417 C 0.37424 0.37274 0.29401 0.0
C3418 C 0.40382 0.3646 0.45322 0.0
C3419 C 0.40318 0.36031 0.43132 0.0
C3420 C 0.3726 0.37247 0.3852 0.0
C3421 C 0.3806 0.3564 0.32797 0.0
C3422 C 0.38269 0.35765 0.35156 0.0
C3423 C 0.38514 0.3604 0.42033 0.0
C3424 C 0.38447 0.3592 0.39666 0.0
H3425 H 0.37 0.32285 0.28924 0.0
H3426 H 0.37872 0.32453 0.32702 0.0
H3427 H 0.36206 0.3819 0.35474 0.0
H3428 H 0.35459 0.3707 0.46192 0.0
H3429 H 0.35352 0.3631 0.42397 0.0
C3430 C 0.36884 0.61718 0.20322 0.0
C3431 C 0.3641 0.63521 0.21303 0.0
C3432 C 0.37407 0.61653 0.18166 0.0
C3433 C 0.38909 0.64587 0.13454 0.0
H3434 H 0.35911 0.60635 0.10385 0.0
C3435 C 0.39971 0.62462 0.0446 0.0
C3436 C 0.3824 0.62073 0.03303 0.0
C3437 C 0.3988 0.62891 0.0665 0.0
C3438 C 0.36751 0.61754 0.11216 0.0
H3439 H 0.36252 0.66684 0.20828 0.0
H3440 H 0.37152 0.66564 0.17043 0.0
H3441 H 0.35653 0.60832 0.14253 0.0
H3442 H 0.35049 0.61984 0.035 0.0
H3443 H 0.349 0.62729 0.07299 0.0
H3444 H 0.3999 0.6551 0.10382 0.0
C3445 C 0.37121 0.65204 0.1795 0.0
C3446 C 0.36623 0.6185 0.13436 0.0
C3447 C 0.36597 0.65271 0.20115 0.0
C3448 C 0.36415 0.62246 0.04347 0.0
C3449 C 0.36327 0.62667 0.06527 0.0
C3450 C 0.3905 0.64478 0.1122 0.0
C3451 C 0.37466 0.63387 0.16939 0.0
C3452 C 0.37695 0.63268 0.14582 0.0
C3453 C 0.38059 0.62931 0.07716 0.0
C3454 C 0.37955 0.63071 0.1008 0.0
H3455 H 0.36784 0.60344 0.21198 0.0
H3456 H 0.37704 0.60235 0.1744 0.0
H3457 H 0.39754 0.65691 0.143 0.0
H3458 H 0.41399 0.62352 0.03699 0.0
H3459 H 0.41239 0.6309 0.07529 0.0
C3460 C 0.11333 0.65086 0.79878 0.0
C3461 C 0.11494 0.63374 0.78625 0.0
C3462 C 0.1091 0.64952 0.82063 0.0
C3463 C 0.11584 0.61451 0.86452 0.0
H3464 H 0.0848 0.65154 0.89765 0.0
C3465 C 0.12114 0.6153 0.95551 0.0
C3466 C 0.1032 0.61516 0.96671 0.0
C3467 C 0.12162 0.61991 0.93377 0.0
C3468 C 0.09346 0.64107 0.88857 0.0
H3469 H 0.11169 0.60191 0.78642 0.0
H3470 H 0.10409 0.59964 0.82439 0.0
H3471 H 0.0853 0.65403 0.85854 0.0
H3472 H 0.07191 0.62107 0.96423 0.0
H3473 H 0.07276 0.62894 0.9261 0.0
H3474 H 0.12389 0.60139 0.89428 0.0
C3475 C 0.1066 0.61406 0.81747 0.0
C3476 C 0.09383 0.64255 0.86622 0.0
C3477 C 0.11087 0.61538 0.79568 0.0
C3478 C 0.08595 0.62095 0.95601 0.0
C3479 C 0.08643 0.62552 0.93419 0.0
C3480 C 0.11553 0.61308 0.88674 0.0
C3481 C 0.10634 0.63104 0.83034 0.0
C3482 C 0.10504 0.62926 0.85397 0.0
C3483 C 0.10419 0.62442 0.92271 0.0
C3484 C 0.10444 0.62638 0.89906 0.0
H3485 H 0.11627 0.66523 0.79196 0.0
H3486 H 0.10903 0.66288 0.83011 0.0
H3487 H 0.12488 0.60423 0.85561 0.0
H3488 H 0.13476 0.61121 0.96334 0.0
H3489 H 0.13562 0.6194 0.92547 0.0
C3490 C 0.11048 0.33363 0.70355 0.0
C3491 C 0.11881 0.35016 0.71368 0.0
C3492 C 0.1067 0.33391 0.68149 0.0
C3493 C 0.12681 0.35681 0.63385 0.0
H3494 H 0.07898 0.34213 0.60409 0.0
C3495 C 0.11505 0.37828 0.54691 0.0
C3496 C 0.10665 0.36467 0.53267 0.0
C3497 C 0.11542 0.37456 0.5688 0.0
C3498 C 0.09252 0.34597 0.61219 0.0
H3499 H 0.12816 0.38044 0.70888 0.0
H3500 H 0.12171 0.3808 0.67069 0.0
H3501 H 0.08058 0.33942 0.64329 0.0
H3502 H 0.09179 0.33648 0.53041 0.0
H3503 H 0.09256 0.32988 0.56903 0.0
H3504 H 0.1389 0.36333 0.60316 0.0
C3505 C 0.1184 0.36755 0.67968 0.0
C3506 C 0.0934 0.34447 0.63457 0.0
C3507 C 0.12207 0.36732 0.70159 0.0
C3508 C 0.09841 0.34724 0.54096 0.0
C3509 C 0.09876 0.34351 0.56305 0.0
C3510 C 0.126 0.35815 0.61165 0.0
C3511 C 0.1113 0.35068 0.66927 0.0
C3512 C 0.11042 0.35039 0.64559 0.0
C3513 C 0.10748 0.35707 0.57717 0.0
C3514 C 0.1087 0.35328 0.60056 0.0
H3515 H 0.10766 0.32023 0.71245 0.0
H3516 H 0.10114 0.32074 0.67382 0.0
H3517 H 0.14027 0.36102 0.64191 0.0
H3518 H 0.12147 0.39191 0.54119 0.0
H3519 H 0.12189 0.38552 0.57923 0.0
loop_
_geom_bond_atom_site_label_1
_geom_bond_atom_site_label_2
_geom_bond_distance
_geom_bond_site_symmetry_2
_ccdc_geom_bond_type
Zn0 O6 1.969 . S
Zn0 O7 1.965 . S
Zn0 O11 2.024 . S
Zn0 O16 1.969 . S
Zn1 O8 1.969 . S
Zn1 O14 1.969 . S
Zn1 O15 1.965 . S
Zn1 O17 2.024 . S
C2 O3 1.229 . S
C2 O11 1.058 . S
O3 C2 1.229 . S
C4 O5 1.229 . S
C4 O17 1.058 . S
O5 C4 1.229 . S
O6 Zn0 1.969 . S
O6 C9 1.267 . S
O7 Zn0 1.965 . S
O7 C18 1.260 . S
O8 Zn1 1.969 . S
O8 C18 1.258 . S
C9 O6 1.267 . S
C9 O10 1.228 . S
O10 C9 1.228 . S
O11 Zn0 2.024 . S
O11 C2 1.058 . S
C12 O13 1.228 . S
C12 O14 1.267 . S
O13 C12 1.228 . S
O14 Zn1 1.969 . S
O14 C12 1.267 . S
O15 Zn1 1.965 . S
O15 C19 1.260 . S
O16 Zn0 1.969 . S
O16 C19 1.258 . S
O17 Zn1 2.024 . S
O17 C4 1.058 . S
C18 O7 1.260 . S
C18 O8 1.258 . S
C19 O15 1.260 . S
C19 O16 1.258 . S
Zn20 O26 1.969 . S
Zn20 O27 1.965 . S
Zn20 O31 2.024 . S
Zn20 O36 1.969 . S
Zn21 O28 1.969 . S
Zn21 O34 1.969 . S
Zn21 O35 1.965 . S
Zn21 O37 2.024 . S
C22 O23 1.229 . S
C22 O31 1.058 . S
O23 C22 1.229 . S
C24 O25 1.229 . S
C24 O37 1.058 . S
O25 C24 1.229 . S
O26 Zn20 1.969 . S
O26 C29 1.267 . S
O27 Zn20 1.965 . S
O27 C38 1.260 . S
O28 Zn21 1.969 . S
O28 C38 1.258 . S
C29 O26 1.267 . S
C29 O30 1.228 . S
O30 C29 1.228 . S
O31 Zn20 2.024 . S
O31 C22 1.058 . S
C32 O33 1.228 . S
C32 O34 1.267 . S
O33 C32 1.228 . S
O34 Zn21 1.969 . S
O34 C32 1.267 . S
O35 Zn21 1.965 . S
O35 C39 1.260 . S
O36 Zn20 1.969 . S
O36 C39 1.258 . S
O37 Zn21 2.024 . S
O37 C24 1.058 . S
C38 O27 1.260 . S
C38 O28 1.258 . S
C39 O35 1.260 . S
C39 O36 1.258 . S
Zn40 O46 1.969 . S
Zn40 O47 1.965 . S
Zn40 O51 2.024 . S
Zn40 O56 1.969 . S
Zn41 O48 1.969 . S
Zn41 O54 1.969 . S
Zn41 O55 1.965 . S
Zn41 O57 2.024 . S
C42 O43 1.229 . S
C42 O51 1.058 . S
O43 C42 1.229 . S
C44 O45 1.229 . S
C44 O57 1.058 . S
O45 C44 1.229 . S
O46 Zn40 1.969 . S
O46 C49 1.267 . S
O47 Zn40 1.965 . S
O47 C58 1.260 . S
O48 Zn41 1.969 . S
O48 C58 1.258 . S
C49 O46 1.267 . S
C49 O50 1.228 . S
O50 C49 1.228 . S
O51 Zn40 2.024 . S
O51 C42 1.058 . S
C52 O53 1.228 . S
C52 O54 1.267 . S
O53 C52 1.228 . S
O54 Zn41 1.969 . S
O54 C52 1.267 . S
O55 Zn41 1.965 . S
O55 C59 1.260 . S
O56 Zn40 1.969 . S
O56 C59 1.258 . S
O57 Zn41 2.024 . S
O57 C44 1.058 . S
C58 O47 1.260 . S
C58 O48 1.258 . S
C59 O55 1.260 . S
C59 O56 1.258 . S
Zn60 O66 1.969 . S
Zn60 O67 1.965 . S
Zn60 O71 2.024 . S
Zn60 O76 1.969 . S
Zn61 O68 1.969 . S
Zn61 O74 1.969 . S
Zn61 O75 1.965 . S
Zn61 O77 2.024 1_554 S
C62 O63 1.229 . S
C62 O71 1.058 . S
O63 C62 1.229 . S
C64 O65 1.229 . S
C64 O77 1.058 . S
O65 C64 1.229 . S
O66 Zn60 1.969 . S
O66 C69 1.267 . S
O67 Zn60 1.965 . S
O67 C78 1.260 . S
O68 Zn61 1.969 . S
O68 C78 1.258 . S
C69 O66 1.267 . S
C69 O70 1.228 . S
O70 C69 1.228 . S
O71 Zn60 2.024 . S
O71 C62 1.058 . S
C72 O73 1.228 1_554 S
C72 O74 1.267 . S
O73 C72 1.228 1_556 S
O74 Zn61 1.969 . S
O74 C72 1.267 . S
O75 Zn61 1.965 . S
O75 C79 1.260 . S
O76 Zn60 1.969 . S
O76 C79 1.258 . S
O77 Zn61 2.024 1_556 S
O77 C64 1.058 . S
C78 O67 1.260 . S
C78 O68 1.258 . S
C79 O75 1.260 . S
C79 O76 1.258 . S
Zn80 O86 1.969 . S
Zn80 O87 1.965 . S
Zn80 O91 2.024 . S
Zn80 O96 1.969 . S
Zn81 O88 1.969 . S
Zn81 O94 1.969 . S
Zn81 O95 1.965 . S
Zn81 O97 2.024 . S
C82 O83 1.229 . S
C82 O91 1.058 . S
O83 C82 1.229 . S
C84 O85 1.229 . S
C84 O97 1.058 . S
O85 C84 1.229 . S
O86 Zn80 1.969 . S
O86 C89 1.267 . S
O87 Zn80 1.965 . S
O87 C98 1.260 . S
O88 Zn81 1.969 . S
O88 C98 1.258 . S
C89 O86 1.267 . S
C89 O90 1.228 . S
O90 C89 1.228 . S
O91 Zn80 2.024 . S
O91 C82 1.058 . S
C92 O93 1.228 . S
C92 O94 1.267 . S
O93 C92 1.228 . S
O94 Zn81 1.969 . S
O94 C92 1.267 . S
O95 Zn81 1.965 . S
O95 C99 1.260 . S
O96 Zn80 1.969 . S
O96 C99 1.258 . S
O97 Zn81 2.024 . S
O97 C84 1.058 . S
C98 O87 1.260 . S
C98 O88 1.258 . S
C99 O95 1.260 . S
C99 O96 1.258 . S
Zn100 O106 1.969 . S
Zn100 O107 1.965 . S
Zn100 O111 2.024 . S
Zn100 O116 1.969 . S
Zn101 O108 1.969 . S
Zn101 O114 1.969 . S
Zn101 O115 1.965 . S
Zn101 O117 2.024 . S
C102 O103 1.229 . S
C102 O111 1.058 . S
O103 C102 1.229 . S
C104 O105 1.229 . S
C104 O117 1.058 . S
O105 C104 1.229 . S
O106 Zn100 1.969 . S
O106 C109 1.267 . S
O107 Zn100 1.965 . S
O107 C118 1.260 . S
O108 Zn101 1.969 . S
O108 C118 1.258 . S
C109 O106 1.267 . S
C109 O110 1.228 . S
O110 C109 1.228 . S
O111 Zn100 2.024 . S
O111 C102 1.058 . S
C112 O113 1.228 . S
C112 O114 1.267 . S
O113 C112 1.228 . S
O114 Zn101 1.969 . S
O114 C112 1.267 . S
O115 Zn101 1.965 . S
O115 C119 1.260 . S
O116 Zn100 1.969 . S
O116 C119 1.258 . S
O117 Zn101 2.024 . S
O117 C104 1.058 . S
C118 O107 1.260 . S
C118 O108 1.258 . S
C119 O115 1.260 . S
C119 O116 1.258 . S
Zn120 O126 1.969 . S
Zn120 O127 1.965 . S
Zn120 O131 2.024 . S
Zn120 O136 1.969 . S
Zn121 O128 1.969 . S
Zn121 O134 1.969 . S
Zn121 O135 1.965 . S
Zn121 O137 2.024 . S
C122 O123 1.229 . S
C122 O131 1.058 . S
O123 C122 1.229 . S
C124 O125 1.229 . S
C124 O137 1.058 . S
O125 C124 1.229 . S
O126 Zn120 1.969 . S
O126 C129 1.267 . S
O127 Zn120 1.965 . S
O127 C138 1.260 . S
O128 Zn121 1.969 . S
O128 C138 1.258 . S
C129 O126 1.267 . S
C129 O130 1.228 . S
O130 C129 1.228 . S
O131 Zn120 2.024 . S
O131 C122 1.058 . S
C132 O133 1.228 . S
C132 O134 1.267 . S
O133 C132 1.228 . S
O134 Zn121 1.969 . S
O134 C132 1.267 . S
O135 Zn121 1.965 . S
O135 C139 1.260 . S
O136 Zn120 1.969 . S
O136 C139 1.258 . S
O137 Zn121 2.024 . S
O137 C124 1.058 . S
C138 O127 1.260 . S
C138 O128 1.258 . S
C139 O135 1.260 . S
C139 O136 1.258 . S
Zn140 O146 1.969 . S
Zn140 O147 1.965 . S
Zn140 O151 2.024 . S
Zn140 O156 1.969 . S
Zn141 O148 1.969 . S
Zn141 O154 1.969 . S
Zn141 O155 1.965 . S
Zn141 O157 2.024 1_556 S
C142 O143 1.229 . S
C142 O151 1.058 . S
O143 C142 1.229 . S
C144 O145 1.229 . S
C144 O157 1.058 . S
O145 C144 1.229 . S
O146 Zn140 1.969 . S
O146 C149 1.267 . S
O147 Zn140 1.965 . S
O147 C158 1.260 . S
O148 Zn141 1.969 . S
O148 C158 1.258 . S
C149 O146 1.267 . S
C149 O150 1.228 . S
O150 C149 1.228 . S
O151 Zn140 2.024 . S
O151 C142 1.058 . S
C152 O153 1.228 1_556 S
C152 O154 1.267 . S
O153 C152 1.228 1_554 S
O154 Zn141 1.969 . S
O154 C152 1.267 . S
O155 Zn141 1.965 . S
O155 C159 1.260 . S
O156 Zn140 1.969 . S
O156 C159 1.258 . S
O157 Zn141 2.024 1_554 S
O157 C144 1.058 . S
C158 O147 1.260 . S
C158 O148 1.258 . S
C159 O155 1.260 . S
C159 O156 1.258 . S
Zn160 O166 1.969 . S
Zn160 O167 1.965 . S
Zn160 O171 2.024 . S
Zn160 O176 1.969 . S
Zn161 O168 1.969 . S
Zn161 O174 1.969 . S
Zn161 O175 1.965 . S
Zn161 O177 2.024 . S
C162 O163 1.229 . S
C162 O171 1.058 . S
O163 C162 1.229 . S
C164 O165 1.229 . S
C164 O177 1.058 . S
O165 C164 1.229 . S
O166 Zn160 1.969 . S
O166 C169 1.267 . S
O167 Zn160 1.965 . S
O167 C178 1.260 . S
O168 Zn161 1.969 . S
O168 C178 1.258 . S
C169 O166 1.267 . S
C169 O170 1.228 . S
O170 C169 1.228 . S
O171 Zn160 2.024 . S
O171 C162 1.058 . S
C172 O173 1.228 . S
C172 O174 1.267 . S
O173 C172 1.228 . S
O174 Zn161 1.969 . S
O174 C172 1.267 . S
O175 Zn161 1.965 . S
O175 C179 1.260 . S
O176 Zn160 1.969 . S
O176 C179 1.258 . S
O177 Zn161 2.024 . S
O177 C164 1.058 . S
C178 O167 1.260 . S
C178 O168 1.258 . S
C179 O175 1.260 . S
C179 O176 1.258 . S
Zn180 O186 1.969 . S
Zn180 O187 1.965 . S
Zn180 O191 2.024 . S
Zn180 O196 1.969 . S
Zn181 O188 1.969 . S
Zn181 O194 1.969 . S
Zn181 O195 1.965 . S
Zn181 O197 2.024 . S
C182 O183 1.229 . S
C182 O191 1.058 . S
O183 C182 1.229 . S
C184 O185 1.229 . S
C184 O197 1.058 . S
O185 C184 1.229 . S
O186 Zn180 1.969 . S
O186 C189 1.267 . S
O187 Zn180 1.965 . S
O187 C198 1.260 . S
O188 Zn181 1.969 . S
O188 C198 1.258 . S
C189 O186 1.267 . S
C189 O190 1.228 . S
O190 C189 1.228 . S
O191 Zn180 2.024 . S
O191 C182 1.058 . S
C192 O193 1.228 . S
C192 O194 1.267 . S
O193 C192 1.228 . S
O194 Zn181 1.969 . S
O194 C192 1.267 . S
O195 Zn181 1.965 . S
O195 C199 1.260 . S
O196 Zn180 1.969 . S
O196 C199 1.258 . S
O197 Zn181 2.024 . S
O197 C184 1.058 . S
C198 O187 1.260 . S
C198 O188 1.258 . S
C199 O195 1.260 . S
C199 O196 1.258 . S
Zn200 O206 1.969 . S
Zn200 O207 1.965 . S
Zn200 O211 2.024 . S
Zn200 O216 1.969 . S
Zn201 O208 1.969 . S
Zn201 O214 1.969 . S
Zn201 O215 1.965 . S
Zn201 O217 2.024 . S
C202 O203 1.229 . S
C202 O211 1.058 . S
O203 C202 1.229 . S
C204 O205 1.229 . S
C204 O217 1.058 . S
O205 C204 1.229 . S
O206 Zn200 1.969 . S
O206 C209 1.267 . S
O207 Zn200 1.965 . S
O207 C218 1.260 . S
O208 Zn201 1.969 . S
O208 C218 1.258 . S
C209 O206 1.267 . S
C209 O210 1.228 . S
O210 C209 1.228 . S
O211 Zn200 2.024 . S
O211 C202 1.058 . S
C212 O213 1.228 . S
C212 O214 1.267 . S
O213 C212 1.228 . S
O214 Zn201 1.969 . S
O214 C212 1.267 . S
O215 Zn201 1.965 . S
O215 C219 1.260 . S
O216 Zn200 1.969 . S
O216 C219 1.258 . S
O217 Zn201 2.024 . S
O217 C204 1.058 . S
C218 O207 1.260 . S
C218 O208 1.258 . S
C219 O215 1.260 . S
C219 O216 1.258 . S
Zn220 O226 1.969 . S
Zn220 O227 1.965 . S
Zn220 O231 2.024 1_556 S
Zn220 O236 1.969 . S
Zn221 O228 1.969 . S
Zn221 O234 1.969 . S
Zn221 O235 1.965 . S
Zn221 O237 2.024 . S
C222 O223 1.229 . S
C222 O231 1.058 . S
O223 C222 1.229 . S
C224 O225 1.229 . S
C224 O237 1.058 . S
O225 C224 1.229 . S
O226 Zn220 1.969 . S
O226 C229 1.267 . S
O227 Zn220 1.965 . S
O227 C238 1.260 . S
O228 Zn221 1.969 . S
O228 C238 1.258 . S
C229 O226 1.267 . S
C229 O230 1.228 1_556 S
O230 C229 1.228 1_554 S
O231 Zn220 2.024 1_554 S
O231 C222 1.058 . S
C232 O233 1.228 . S
C232 O234 1.267 . S
O233 C232 1.228 . S
O234 Zn221 1.969 . S
O234 C232 1.267 . S
O235 Zn221 1.965 . S
O235 C239 1.260 . S
O236 Zn220 1.969 . S
O236 C239 1.258 . S
O237 Zn221 2.024 . S
O237 C224 1.058 . S
C238 O227 1.260 . S
C238 O228 1.258 . S
C239 O235 1.260 . S
C239 O236 1.258 . S
Zn240 O246 1.969 . S
Zn240 O247 1.965 . S
Zn240 O251 2.024 . S
Zn240 O256 1.969 . S
Zn241 O248 1.969 . S
Zn241 O254 1.969 . S
Zn241 O255 1.965 . S
Zn241 O257 2.024 . S
C242 O243 1.229 . S
C242 O251 1.058 . S
O243 C242 1.229 . S
C244 O245 1.229 . S
C244 O257 1.058 . S
O245 C244 1.229 . S
O246 Zn240 1.969 . S
O246 C249 1.267 . S
O247 Zn240 1.965 . S
O247 C258 1.260 . S
O248 Zn241 1.969 . S
O248 C258 1.258 . S
C249 O246 1.267 . S
C249 O250 1.228 . S
O250 C249 1.228 . S
O251 Zn240 2.024 . S
O251 C242 1.058 . S
C252 O253 1.228 . S
C252 O254 1.267 . S
O253 C252 1.228 . S
O254 Zn241 1.969 . S
O254 C252 1.267 . S
O255 Zn241 1.965 . S
O255 C259 1.260 . S
O256 Zn240 1.969 . S
O256 C259 1.258 . S
O257 Zn241 2.024 . S
O257 C244 1.058 . S
C258 O247 1.260 . S
C258 O248 1.258 . S
C259 O255 1.260 . S
C259 O256 1.258 . S
Zn260 O266 1.969 . S
Zn260 O267 1.965 . S
Zn260 O271 2.024 . S
Zn260 O276 1.969 . S
Zn261 O268 1.969 . S
Zn261 O274 1.969 . S
Zn261 O275 1.965 . S
Zn261 O277 2.024 . S
C262 O263 1.229 . S
C262 O271 1.058 . S
O263 C262 1.229 . S
C264 O265 1.229 . S
C264 O277 1.058 . S
O265 C264 1.229 . S
O266 Zn260 1.969 . S
O266 C269 1.267 . S
O267 Zn260 1.965 . S
O267 C278 1.260 . S
O268 Zn261 1.969 . S
O268 C278 1.258 . S
C269 O266 1.267 . S
C269 O270 1.228 . S
O270 C269 1.228 . S
O271 Zn260 2.024 . S
O271 C262 1.058 . S
C272 O273 1.228 . S
C272 O274 1.267 . S
O273 C272 1.228 . S
O274 Zn261 1.969 . S
O274 C272 1.267 . S
O275 Zn261 1.965 . S
O275 C279 1.260 . S
O276 Zn260 1.969 . S
O276 C279 1.258 . S
O277 Zn261 2.024 . S
O277 C264 1.058 . S
C278 O267 1.260 . S
C278 O268 1.258 . S
C279 O275 1.260 . S
C279 O276 1.258 . S
Zn280 O286 1.969 . S
Zn280 O287 1.965 . S
Zn280 O291 2.024 . S
Zn280 O296 1.969 . S
Zn281 O288 1.969 . S
Zn281 O294 1.969 . S
Zn281 O295 1.965 . S
Zn281 O297 2.024 . S
C282 O283 1.229 . S
C282 O291 1.058 . S
O283 C282 1.229 . S
C284 O285 1.229 . S
C284 O297 1.058 . S
O285 C284 1.229 . S
O286 Zn280 1.969 . S
O286 C289 1.267 . S
O287 Zn280 1.965 . S
O287 C298 1.260 . S
O288 Zn281 1.969 . S
O288 C298 1.258 . S
C289 O286 1.267 . S
C289 O290 1.228 . S
O290 C289 1.228 . S
O291 Zn280 2.024 . S
O291 C282 1.058 . S
C292 O293 1.228 . S
C292 O294 1.267 . S
O293 C292 1.228 . S
O294 Zn281 1.969 . S
O294 C292 1.267 . S
O295 Zn281 1.965 . S
O295 C299 1.260 . S
O296 Zn280 1.969 . S
O296 C299 1.258 . S
O297 Zn281 2.024 . S
O297 C284 1.058 . S
C298 O287 1.260 . S
C298 O288 1.258 . S
C299 O295 1.260 . S
C299 O296 1.258 . S
Zn300 O306 1.969 . S
Zn300 O307 1.965 . S
Zn300 O311 2.024 1_554 S
Zn300 O316 1.969 . S
Zn301 O308 1.969 . S
Zn301 O314 1.969 . S
Zn301 O315 1.965 . S
Zn301 O317 2.024 . S
C302 O303 1.229 . S
C302 O311 1.058 . S
O303 C302 1.229 . S
C304 O305 1.229 . S
C304 O317 1.058 . S
O305 C304 1.229 . S
O306 Zn300 1.969 . S
O306 C309 1.267 . S
O307 Zn300 1.965 . S
O307 C318 1.260 . S
O308 Zn301 1.969 . S
O308 C318 1.258 . S
C309 O306 1.267 . S
C309 O310 1.228 1_554 S
O310 C309 1.228 1_556 S
O311 Zn300 2.024 1_556 S
O311 C302 1.058 . S
C312 O313 1.228 . S
C312 O314 1.267 . S
O313 C312 1.228 . S
O314 Zn301 1.969 . S
O314 C312 1.267 . S
O315 Zn301 1.965 . S
O315 C319 1.260 . S
O316 Zn300 1.969 . S
O316 C319 1.258 . S
O317 Zn301 2.024 . S
O317 C304 1.058 . S
C318 O307 1.260 . S
C318 O308 1.258 . S
C319 O315 1.260 . S
C319 O316 1.258 . S
Zn320 O326 1.969 . S
Zn320 O327 1.965 . S
Zn320 O331 2.024 . S
Zn320 O336 1.969 . S
Zn321 O328 1.969 . S
Zn321 O334 1.969 . S
Zn321 O335 1.965 . S
Zn321 O337 2.024 . S
C322 O323 1.229 . S
C322 O331 1.058 . S
O323 C322 1.229 . S
C324 O325 1.229 . S
C324 O337 1.058 . S
O325 C324 1.229 . S
O326 Zn320 1.969 . S
O326 C329 1.267 . S
O327 Zn320 1.965 . S
O327 C338 1.260 . S
O328 Zn321 1.969 . S
O328 C338 1.258 . S
C329 O326 1.267 . S
C329 O330 1.228 . S
O330 C329 1.228 . S
O331 Zn320 2.024 . S
O331 C322 1.058 . S
C332 O333 1.228 . S
C332 O334 1.267 . S
O333 C332 1.228 . S
O334 Zn321 1.969 . S
O334 C332 1.267 . S
O335 Zn321 1.965 . S
O335 C339 1.260 . S
O336 Zn320 1.969 . S
O336 C339 1.258 . S
O337 Zn321 2.024 . S
O337 C324 1.058 . S
C338 O327 1.260 . S
C338 O328 1.258 . S
C339 O335 1.260 . S
C339 O336 1.258 . S
Zn340 O346 1.969 . S
Zn340 O347 1.965 . S
Zn340 O351 2.024 . S
Zn340 O356 1.969 . S
Zn341 O348 1.969 . S
Zn341 O354 1.969 . S
Zn341 O355 1.965 . S
Zn341 O357 2.024 1_554 S
C342 O343 1.229 . S
C342 O351 1.058 . S
O343 C342 1.229 . S
C344 O345 1.229 . S
C344 O357 1.058 . S
O345 C344 1.229 . S
O346 Zn340 1.969 . S
O346 C349 1.267 . S
O347 Zn340 1.965 . S
O347 C358 1.260 . S
O348 Zn341 1.969 . S
O348 C358 1.258 . S
C349 O346 1.267 . S
C349 O350 1.228 . S
O350 C349 1.228 . S
O351 Zn340 2.024 . S
O351 C342 1.058 . S
C352 O353 1.228 1_554 S
C352 O354 1.267 . S
O353 C352 1.228 1_556 S
O354 Zn341 1.969 . S
O354 C352 1.267 . S
O355 Zn341 1.965 . S
O355 C359 1.260 . S
O356 Zn340 1.969 . S
O356 C359 1.258 . S
O357 Zn341 2.024 1_556 S
O357 C344 1.058 . S
C358 O347 1.260 . S
C358 O348 1.258 . S
C359 O355 1.260 . S
C359 O356 1.258 . S
Zn360 O366 1.969 . S
Zn360 O367 1.965 . S
Zn360 O371 2.024 . S
Zn360 O376 1.969 . S
Zn361 O368 1.969 . S
Zn361 O374 1.969 . S
Zn361 O375 1.965 . S
Zn361 O377 2.024 . S
C362 O363 1.229 . S
C362 O371 1.058 . S
O363 C362 1.229 . S
C364 O365 1.229 . S
C364 O377 1.058 . S
O365 C364 1.229 . S
O366 Zn360 1.969 . S
O366 C369 1.267 . S
O367 Zn360 1.965 . S
O367 C378 1.260 . S
O368 Zn361 1.969 . S
O368 C378 1.258 . S
C369 O366 1.267 . S
C369 O370 1.228 . S
O370 C369 1.228 . S
O371 Zn360 2.024 . S
O371 C362 1.058 . S
C372 O373 1.228 . S
C372 O374 1.267 . S
O373 C372 1.228 . S
O374 Zn361 1.969 . S
O374 C372 1.267 . S
O375 Zn361 1.965 . S
O375 C379 1.260 . S
O376 Zn360 1.969 . S
O376 C379 1.258 . S
O377 Zn361 2.024 . S
O377 C364 1.058 . S
C378 O367 1.260 . S
C378 O368 1.258 . S
C379 O375 1.260 . S
C379 O376 1.258 . S
Zn380 O386 1.969 . S
Zn380 O387 1.965 . S
Zn380 O391 2.024 . S
Zn380 O396 1.969 . S
Zn381 O388 1.969 . S
Zn381 O394 1.969 . S
Zn381 O395 1.965 . S
Zn381 O397 2.024 . S
C382 O383 1.229 . S
C382 O391 1.058 . S
O383 C382 1.229 . S
C384 O385 1.229 . S
C384 O397 1.058 . S
O385 C384 1.229 . S
O386 Zn380 1.969 . S
O386 C389 1.267 . S
O387 Zn380 1.965 . S
O387 C398 1.260 . S
O388 Zn381 1.969 . S
O388 C398 1.258 . S
C389 O386 1.267 . S
C389 O390 1.228 . S
O390 C389 1.228 . S
O391 Zn380 2.024 . S
O391 C382 1.058 . S
C392 O393 1.228 . S
C392 O394 1.267 . S
O393 C392 1.228 . S
O394 Zn381 1.969 . S
O394 C392 1.267 . S
O395 Zn381 1.965 . S
O395 C399 1.260 . S
O396 Zn380 1.969 . S
O396 C399 1.258 . S
O397 Zn381 2.024 . S
O397 C384 1.058 . S
C398 O387 1.260 . S
C398 O388 1.258 . S
C399 O395 1.260 . S
C399 O396 1.258 . S
Zn400 O406 1.969 . S
Zn400 O407 1.965 . S
Zn400 O411 2.024 . S
Zn400 O416 1.969 . S
Zn401 O408 1.969 . S
Zn401 O414 1.969 . S
Zn401 O415 1.965 . S
Zn401 O417 2.024 . S
C402 O403 1.229 . S
C402 O411 1.058 . S
O403 C402 1.229 . S
C404 O405 1.229 . S
C404 O417 1.058 . S
O405 C404 1.229 . S
O406 Zn400 1.969 . S
O406 C409 1.267 . S
O407 Zn400 1.965 . S
O407 C418 1.260 . S
O408 Zn401 1.969 . S
O408 C418 1.258 . S
C409 O406 1.267 . S
C409 O410 1.228 . S
O410 C409 1.228 . S
O411 Zn400 2.024 . S
O411 C402 1.058 . S
C412 O413 1.228 . S
C412 O414 1.267 . S
O413 C412 1.228 . S
O414 Zn401 1.969 . S
O414 C412 1.267 . S
O415 Zn401 1.965 . S
O415 C419 1.260 . S
O416 Zn400 1.969 . S
O416 C419 1.258 . S
O417 Zn401 2.024 . S
O417 C404 1.058 . S
C418 O407 1.260 . S
C418 O408 1.258 . S
C419 O415 1.260 . S
C419 O416 1.258 . S
Zn420 O426 1.969 . S
Zn420 O427 1.965 . S
Zn420 O431 2.024 . S
Zn420 O436 1.969 . S
Zn421 O428 1.969 . S
Zn421 O434 1.969 . S
Zn421 O435 1.965 . S
Zn421 O437 2.024 1_556 S
C422 O423 1.229 . S
C422 O431 1.058 . S
O423 C422 1.229 . S
C424 O425 1.229 . S
C424 O437 1.058 . S
O425 C424 1.229 . S
O426 Zn420 1.969 . S
O426 C429 1.267 . S
O427 Zn420 1.965 . S
O427 C438 1.260 . S
O428 Zn421 1.969 . S
O428 C438 1.258 . S
C429 O426 1.267 . S
C429 O430 1.228 . S
O430 C429 1.228 . S
O431 Zn420 2.024 . S
O431 C422 1.058 . S
C432 O433 1.228 1_556 S
C432 O434 1.267 . S
O433 C432 1.228 1_554 S
O434 Zn421 1.969 . S
O434 C432 1.267 . S
O435 Zn421 1.965 . S
O435 C439 1.260 . S
O436 Zn420 1.969 . S
O436 C439 1.258 . S
O437 Zn421 2.024 1_554 S
O437 C424 1.058 . S
C438 O427 1.260 . S
C438 O428 1.258 . S
C439 O435 1.260 . S
C439 O436 1.258 . S
Zn440 O446 1.969 . S
Zn440 O447 1.965 . S
Zn440 O451 2.024 . S
Zn440 O456 1.969 . S
Zn441 O448 1.969 . S
Zn441 O454 1.969 . S
Zn441 O455 1.965 . S
Zn441 O457 2.024 . S
C442 O443 1.229 . S
C442 O451 1.058 . S
O443 C442 1.229 . S
C444 O445 1.229 . S
C444 O457 1.058 . S
O445 C444 1.229 . S
O446 Zn440 1.969 . S
O446 C449 1.267 . S
O447 Zn440 1.965 . S
O447 C458 1.260 . S
O448 Zn441 1.969 . S
O448 C458 1.258 . S
C449 O446 1.267 . S
C449 O450 1.228 . S
O450 C449 1.228 . S
O451 Zn440 2.024 . S
O451 C442 1.058 . S
C452 O453 1.228 . S
C452 O454 1.267 . S
O453 C452 1.228 . S
O454 Zn441 1.969 . S
O454 C452 1.267 . S
O455 Zn441 1.965 . S
O455 C459 1.260 . S
O456 Zn440 1.969 . S
O456 C459 1.258 . S
O457 Zn441 2.024 . S
O457 C444 1.058 . S
C458 O447 1.260 . S
C458 O448 1.258 . S
C459 O455 1.260 . S
C459 O456 1.258 . S
Zn460 O466 1.969 . S
Zn460 O467 1.965 . S
Zn460 O471 2.024 . S
Zn460 O476 1.969 . S
Zn461 O468 1.969 . S
Zn461 O474 1.969 . S
Zn461 O475 1.965 . S
Zn461 O477 2.024 . S
C462 O463 1.229 . S
C462 O471 1.058 . S
O463 C462 1.229 . S
C464 O465 1.229 . S
C464 O477 1.058 . S
O465 C464 1.229 . S
O466 Zn460 1.969 . S
O466 C469 1.267 . S
O467 Zn460 1.965 . S
O467 C478 1.260 . S
O468 Zn461 1.969 . S
O468 C478 1.258 . S
C469 O466 1.267 . S
C469 O470 1.228 . S
O470 C469 1.228 . S
O471 Zn460 2.024 . S
O471 C462 1.058 . S
C472 O473 1.228 . S
C472 O474 1.267 . S
O473 C472 1.228 . S
O474 Zn461 1.969 . S
O474 C472 1.267 . S
O475 Zn461 1.965 . S
O475 C479 1.260 . S
O476 Zn460 1.969 . S
O476 C479 1.258 . S
O477 Zn461 2.024 . S
O477 C464 1.058 . S
C478 O467 1.260 . S
C478 O468 1.258 . S
C479 O475 1.260 . S
C479 O476 1.258 . S
Zn480 O486 1.969 . S
Zn480 O487 1.965 . S
Zn480 O491 2.024 . S
Zn480 O496 1.969 . S
Zn481 O488 1.969 . S
Zn481 O494 1.969 . S
Zn481 O495 1.965 . S
Zn481 O497 2.024 . S
C482 O483 1.229 . S
C482 O491 1.058 . S
O483 C482 1.229 . S
C484 O485 1.229 . S
C484 O497 1.058 . S
O485 C484 1.229 . S
O486 Zn480 1.969 . S
O486 C489 1.267 . S
O487 Zn480 1.965 . S
O487 C498 1.260 . S
O488 Zn481 1.969 . S
O488 C498 1.258 . S
C489 O486 1.267 . S
C489 O490 1.228 . S
O490 C489 1.228 . S
O491 Zn480 2.024 . S
O491 C482 1.058 . S
C492 O493 1.228 . S
C492 O494 1.267 . S
O493 C492 1.228 . S
O494 Zn481 1.969 . S
O494 C492 1.267 . S
O495 Zn481 1.965 . S
O495 C499 1.260 . S
O496 Zn480 1.969 . S
O496 C499 1.258 . S
O497 Zn481 2.024 . S
O497 C484 1.058 . S
C498 O487 1.260 . S
C498 O488 1.258 . S
C499 O495 1.260 . S
C499 O496 1.258 . S
Zn500 O506 1.969 . S
Zn500 O507 1.965 . S
Zn500 O511 2.024 1_556 S
Zn500 O516 1.969 . S
Zn501 O508 1.969 . S
Zn501 O514 1.969 . S
Zn501 O515 1.965 . S
Zn501 O517 2.024 . S
C502 O503 1.229 . S
C502 O511 1.058 . S
O503 C502 1.229 . S
C504 O505 1.229 . S
C504 O517 1.058 . S
O505 C504 1.229 . S
O506 Zn500 1.969 . S
O506 C509 1.267 . S
O507 Zn500 1.965 . S
O507 C518 1.260 . S
O508 Zn501 1.969 . S
O508 C518 1.258 . S
C509 O506 1.267 . S
C509 O510 1.228 1_556 S
O510 C509 1.228 1_554 S
O511 Zn500 2.024 1_554 S
O511 C502 1.058 . S
C512 O513 1.228 . S
C512 O514 1.267 . S
O513 C512 1.228 . S
O514 Zn501 1.969 . S
O514 C512 1.267 . S
O515 Zn501 1.965 . S
O515 C519 1.260 . S
O516 Zn500 1.969 . S
O516 C519 1.258 . S
O517 Zn501 2.024 . S
O517 C504 1.058 . S
C518 O507 1.260 . S
C518 O508 1.258 . S
C519 O515 1.260 . S
C519 O516 1.258 . S
Zn520 O526 1.969 . S
Zn520 O527 1.965 . S
Zn520 O531 2.024 . S
Zn520 O536 1.969 . S
Zn521 O528 1.969 . S
Zn521 O534 1.969 . S
Zn521 O535 1.965 . S
Zn521 O537 2.024 . S
C522 O523 1.229 . S
C522 O531 1.058 . S
O523 C522 1.229 . S
C524 O525 1.229 . S
C524 O537 1.058 . S
O525 C524 1.229 . S
O526 Zn520 1.969 . S
O526 C529 1.267 . S
O527 Zn520 1.965 . S
O527 C538 1.260 . S
O528 Zn521 1.969 . S
O528 C538 1.258 . S
C529 O526 1.267 . S
C529 O530 1.228 . S
O530 C529 1.228 . S
O531 Zn520 2.024 . S
O531 C522 1.058 . S
C532 O533 1.228 . S
C532 O534 1.267 . S
O533 C532 1.228 . S
O534 Zn521 1.969 . S
O534 C532 1.267 . S
O535 Zn521 1.965 . S
O535 C539 1.260 . S
O536 Zn520 1.969 . S
O536 C539 1.258 . S
O537 Zn521 2.024 . S
O537 C524 1.058 . S
C538 O527 1.260 . S
C538 O528 1.258 . S
C539 O535 1.260 . S
C539 O536 1.258 . S
Zn540 O546 1.969 . S
Zn540 O547 1.965 . S
Zn540 O551 2.024 . S
Zn540 O556 1.969 . S
Zn541 O548 1.969 . S
Zn541 O554 1.969 . S
Zn541 O555 1.965 . S
Zn541 O557 2.024 . S
C542 O543 1.229 . S
C542 O551 1.058 . S
O543 C542 1.229 . S
C544 O545 1.229 . S
C544 O557 1.058 . S
O545 C544 1.229 . S
O546 Zn540 1.969 . S
O546 C549 1.267 . S
O547 Zn540 1.965 . S
O547 C558 1.260 . S
O548 Zn541 1.969 . S
O548 C558 1.258 . S
C549 O546 1.267 . S
C549 O550 1.228 . S
O550 C549 1.228 . S
O551 Zn540 2.024 . S
O551 C542 1.058 . S
C552 O553 1.228 . S
C552 O554 1.267 . S
O553 C552 1.228 . S
O554 Zn541 1.969 . S
O554 C552 1.267 . S
O555 Zn541 1.965 . S
O555 C559 1.260 . S
O556 Zn540 1.969 . S
O556 C559 1.258 . S
O557 Zn541 2.024 . S
O557 C544 1.058 . S
C558 O547 1.260 . S
C558 O548 1.258 . S
C559 O555 1.260 . S
C559 O556 1.258 . S
Zn560 O566 1.969 . S
Zn560 O567 1.965 . S
Zn560 O571 2.024 . S
Zn560 O576 1.969 . S
Zn561 O568 1.969 . S
Zn561 O574 1.969 . S
Zn561 O575 1.965 . S
Zn561 O577 2.024 . S
C562 O563 1.229 . S
C562 O571 1.058 . S
O563 C562 1.229 . S
C564 O565 1.229 . S
C564 O577 1.058 . S
O565 C564 1.229 . S
O566 Zn560 1.969 . S
O566 C569 1.267 . S
O567 Zn560 1.965 . S
O567 C578 1.260 . S
O568 Zn561 1.969 . S
O568 C578 1.258 . S
C569 O566 1.267 . S
C569 O570 1.228 . S
O570 C569 1.228 . S
O571 Zn560 2.024 . S
O571 C562 1.058 . S
C572 O573 1.228 . S
C572 O574 1.267 . S
O573 C572 1.228 . S
O574 Zn561 1.969 . S
O574 C572 1.267 . S
O575 Zn561 1.965 . S
O575 C579 1.260 . S
O576 Zn560 1.969 . S
O576 C579 1.258 . S
O577 Zn561 2.024 . S
O577 C564 1.058 . S
C578 O567 1.260 . S
C578 O568 1.258 . S
C579 O575 1.260 . S
C579 O576 1.258 . S
Zn580 O586 1.969 . S
Zn580 O587 1.965 . S
Zn580 O591 2.024 1_554 S
Zn580 O596 1.969 . S
Zn581 O588 1.969 . S
Zn581 O594 1.969 . S
Zn581 O595 1.965 . S
Zn581 O597 2.024 . S
C582 O583 1.229 . S
C582 O591 1.058 . S
O583 C582 1.229 . S
C584 O585 1.229 . S
C584 O597 1.058 . S
O585 C584 1.229 . S
O586 Zn580 1.969 . S
O586 C589 1.267 . S
O587 Zn580 1.965 . S
O587 C598 1.260 . S
O588 Zn581 1.969 . S
O588 C598 1.258 . S
C589 O586 1.267 . S
C589 O590 1.228 1_554 S
O590 C589 1.228 1_556 S
O591 Zn580 2.024 1_556 S
O591 C582 1.058 . S
C592 O593 1.228 . S
C592 O594 1.267 . S
O593 C592 1.228 . S
O594 Zn581 1.969 . S
O594 C592 1.267 . S
O595 Zn581 1.965 . S
O595 C599 1.260 . S
O596 Zn580 1.969 . S
O596 C599 1.258 . S
O597 Zn581 2.024 . S
O597 C584 1.058 . S
C598 O587 1.260 . S
C598 O588 1.258 . S
C599 O595 1.260 . S
C599 O596 1.258 . S
Zn600 O606 1.969 . S
Zn600 O607 1.965 . S
Zn600 O611 2.024 . S
Zn600 O616 1.969 . S
Zn601 O608 1.969 . S
Zn601 O614 1.969 . S
Zn601 O615 1.965 . S
Zn601 O617 2.024 . S
C602 O603 1.229 . S
C602 O611 1.058 . S
O603 C602 1.229 . S
C604 O605 1.229 . S
C604 O617 1.058 . S
O605 C604 1.229 . S
O606 Zn600 1.969 . S
O606 C609 1.267 . S
O607 Zn600 1.965 . S
O607 C618 1.260 . S
O608 Zn601 1.969 . S
O608 C618 1.258 . S
C609 O606 1.267 . S
C609 O610 1.228 . S
O610 C609 1.228 . S
O611 Zn600 2.024 . S
O611 C602 1.058 . S
C612 O613 1.228 . S
C612 O614 1.267 . S
O613 C612 1.228 . S
O614 Zn601 1.969 . S
O614 C612 1.267 . S
O615 Zn601 1.965 . S
O615 C619 1.260 . S
O616 Zn600 1.969 . S
O616 C619 1.258 . S
O617 Zn601 2.024 . S
O617 C604 1.058 . S
C618 O607 1.260 . S
C618 O608 1.258 . S
C619 O615 1.260 . S
C619 O616 1.258 . S
Zn620 O626 1.969 . S
Zn620 O627 1.965 . S
Zn620 O631 2.024 . S
Zn620 O636 1.969 . S
Zn621 O628 1.969 . S
Zn621 O634 1.969 . S
Zn621 O635 1.965 . S
Zn621 O637 2.024 . S
C622 O623 1.229 . S
C622 O631 1.058 . S
O623 C622 1.229 . S
C624 O625 1.229 . S
C624 O637 1.058 . S
O625 C624 1.229 . S
O626 Zn620 1.969 . S
O626 C629 1.267 . S
O627 Zn620 1.965 . S
O627 C638 1.260 . S
O628 Zn621 1.969 . S
O628 C638 1.258 . S
C629 O626 1.267 . S
C629 O630 1.228 . S
O630 C629 1.228 . S
O631 Zn620 2.024 . S
O631 C622 1.058 . S
C632 O633 1.228 . S
C632 O634 1.267 . S
O633 C632 1.228 . S
O634 Zn621 1.969 . S
O634 C632 1.267 . S
O635 Zn621 1.965 . S
O635 C639 1.260 . S
O636 Zn620 1.969 . S
O636 C639 1.258 . S
O637 Zn621 2.024 . S
O637 C624 1.058 . S
C638 O627 1.260 . S
C638 O628 1.258 . S
C639 O635 1.260 . S
C639 O636 1.258 . S
C640 C641 1.349 . S
C640 C642 1.327 . S
C640 H665 0.950 . S
C641 C640 1.349 . S
C641 C657 1.349 . S
C642 C640 1.327 . S
C642 C661 1.429 . S
C642 H666 0.950 . S
C643 C660 1.574 . S
C643 C662 1.368 . S
C643 H667 0.949 . S
H644 C648 0.949 . S
C645 C646 1.349 . S
C645 C647 1.327 . S
C645 H668 0.950 . S
C646 C645 1.349 . S
C646 C658 1.349 . S
C647 C645 1.327 . S
C647 C663 1.429 . S
C647 H669 0.950 . S
C648 H644 0.949 . S
C648 C656 1.574 . S
C648 C664 1.368 . S
H649 C657 0.950 . S
H650 C655 0.950 . S
H651 C656 0.949 . S
H652 C658 0.950 . S
H653 C659 0.950 . S
H654 C660 0.949 . S
C655 H650 0.950 . S
C655 C657 1.327 . S
C655 C661 1.429 . S
C656 C648 1.574 . S
C656 H651 0.949 . S
C656 C662 1.368 . S
C657 C641 1.349 . S
C657 H649 0.950 . S
C657 C655 1.327 . S
C658 C646 1.349 . S
C658 H652 0.950 . S
C658 C659 1.327 . S
C659 H653 0.950 . S
C659 C658 1.327 . S
C659 C663 1.429 . S
C660 C643 1.574 . S
C660 H654 0.949 . S
C660 C664 1.368 . S
C661 C642 1.429 . S
C661 C655 1.429 . S
C661 C662 1.523 . S
C662 C643 1.368 . S
C662 C656 1.368 . S
C662 C661 1.523 . S
C663 C647 1.429 . S
C663 C659 1.429 . S
C663 C664 1.523 . S
C664 C648 1.368 . S
C664 C660 1.368 . S
C664 C663 1.523 . S
H665 C640 0.950 . S
H666 C642 0.950 . S
H667 C643 0.949 . S
H668 C645 0.950 . S
H669 C647 0.950 . S
C670 C671 1.349 . S
C670 C672 1.327 . S
C670 H695 0.950 . S
C671 C670 1.349 . S
C671 C687 1.349 . S
C672 C670 1.327 . S
C672 C691 1.429 . S
C672 H696 0.950 . S
C673 C690 1.574 . S
C673 C692 1.368 . S
C673 H697 0.949 . S
H674 C678 0.949 . S
C675 C676 1.349 . S
C675 C677 1.327 . S
C675 H698 0.950 . S
C676 C675 1.349 . S
C676 C688 1.349 . S
C677 C675 1.327 . S
C677 C693 1.429 . S
C677 H699 0.950 . S
C678 H674 0.949 . S
C678 C686 1.574 1_565 S
C678 C694 1.368 . S
H679 C687 0.950 . S
H680 C685 0.950 . S
H681 C686 0.949 . S
H682 C688 0.950 . S
H683 C689 0.950 . S
H684 C690 0.949 . S
C685 H680 0.950 . S
C685 C687 1.327 . S
C685 C691 1.429 . S
C686 C678 1.574 1_545 S
C686 H681 0.949 . S
C686 C692 1.368 . S
C687 C671 1.349 . S
C687 H679 0.950 . S
C687 C685 1.327 . S
C688 C676 1.349 . S
C688 H682 0.950 . S
C688 C689 1.327 . S
C689 H683 0.950 . S
C689 C688 1.327 . S
C689 C693 1.429 . S
C690 C673 1.574 . S
C690 H684 0.949 . S
C690 C694 1.368 1_545 S
C691 C672 1.429 . S
C691 C685 1.429 . S
C691 C692 1.523 . S
C692 C673 1.368 . S
C692 C686 1.368 . S
C692 C691 1.523 . S
C693 C677 1.429 . S
C693 C689 1.429 . S
C693 C694 1.523 . S
C694 C678 1.368 . S
C694 C690 1.368 1_565 S
C694 C693 1.523 . S
H695 C670 0.950 . S
H696 C672 0.950 . S
H697 C673 0.949 . S
H698 C675 0.950 . S
H699 C677 0.950 . S
C700 C701 1.349 . S
C700 C702 1.327 . S
C700 H725 0.950 . S
C701 C700 1.349 . S
C701 C717 1.349 . S
C702 C700 1.327 . S
C702 C721 1.429 . S
C702 H726 0.950 . S
C703 C720 1.574 . S
C703 C722 1.368 . S
C703 H727 0.949 . S
H704 C708 0.949 . S
C705 C706 1.349 . S
C705 C707 1.327 . S
C705 H728 0.950 . S
C706 C705 1.349 . S
C706 C718 1.349 . S
C707 C705 1.327 . S
C707 C723 1.429 . S
C707 H729 0.950 . S
C708 H704 0.949 . S
C708 C716 1.574 . S
C708 C724 1.368 . S
H709 C717 0.950 . S
H710 C715 0.950 . S
H711 C716 0.949 . S
H712 C718 0.950 . S
H713 C719 0.950 . S
H714 C720 0.949 . S
C715 H710 0.950 . S
C715 C717 1.327 . S
C715 C721 1.429 . S
C716 C708 1.574 . S
C716 H711 0.949 . S
C716 C722 1.368 . S
C717 C701 1.349 . S
C717 H709 0.950 . S
C717 C715 1.327 . S
C718 C706 1.349 . S
C718 H712 0.950 . S
C718 C719 1.327 . S
C719 H713 0.950 . S
C719 C718 1.327 . S
C719 C723 1.429 . S
C720 C703 1.574 . S
C720 H714 0.949 . S
C720 C724 1.368 . S
C721 C702 1.429 . S
C721 C715 1.429 . S
C721 C722 1.523 . S
C722 C703 1.368 . S
C722 C716 1.368 . S
C722 C721 1.523 . S
C723 C707 1.429 . S
C723 C719 1.429 . S
C723 C724 1.523 . S
C724 C708 1.368 . S
C724 C720 1.368 . S
C724 C723 1.523 . S
H725 C700 0.950 . S
H726 C702 0.950 . S
H727 C703 0.949 . S
H728 C705 0.950 . S
H729 C707 0.950 . S
C730 C731 1.349 . S
C730 C732 1.327 . S
C730 H755 0.950 . S
C731 C730 1.349 . S
C731 C747 1.349 . S
C732 C730 1.327 . S
C732 C751 1.429 . S
C732 H756 0.950 . S
C733 C750 1.574 . S
C733 C752 1.368 . S
C733 H757 0.949 . S
H734 C738 0.949 . S
C735 C736 1.357 . S
C735 C737 1.358 . S
C735 H758 0.912 1_556 S
C736 C735 1.357 . S
C736 C748 1.349 . S
C737 C735 1.358 . S
C737 C753 1.429 . S
C737 H759 0.950 . S
C738 H734 0.949 . S
C738 C746 1.574 1_545 S
C738 C754 1.368 . S
H739 C747 0.950 . S
H740 C745 0.950 . S
H741 C746 0.949 . S
H742 C748 0.950 . S
H743 C749 0.950 . S
H744 C750 0.949 . S
C745 H740 0.950 . S
C745 C747 1.327 . S
C745 C751 1.429 . S
C746 C738 1.574 1_565 S
C746 H741 0.949 . S
C746 C752 1.368 . S
C747 C731 1.349 . S
C747 H739 0.950 . S
C747 C745 1.327 . S
C748 C736 1.349 . S
C748 H742 0.950 . S
C748 C749 1.327 . S
C749 H743 0.950 . S
C749 C748 1.327 . S
C749 C753 1.429 . S
C750 C733 1.574 . S
C750 H744 0.949 . S
C750 C754 1.368 1_565 S
C751 C732 1.429 . S
C751 C745 1.429 . S
C751 C752 1.523 . S
C752 C733 1.368 . S
C752 C746 1.368 . S
C752 C751 1.523 . S
C753 C737 1.429 . S
C753 C749 1.429 . S
C753 C754 1.523 . S
C754 C738 1.368 . S
C754 C750 1.368 1_545 S
C754 C753 1.523 . S
H755 C730 0.950 . S
H756 C732 0.950 . S
H757 C733 0.949 . S
H758 C735 0.912 1_554 S
H759 C737 0.950 . S
C760 C761 1.349 . S
C760 C762 1.327 . S
C760 H785 0.950 . S
C761 C760 1.349 . S
C761 C777 1.349 . S
C762 C760 1.327 . S
C762 C781 1.429 . S
C762 H786 0.950 . S
C763 C780 1.574 . S
C763 C782 1.368 . S
C763 H787 0.949 . S
H764 C768 0.949 . S
C765 C766 1.349 . S
C765 C767 1.327 . S
C765 H788 0.950 . S
C766 C765 1.349 . S
C766 C778 1.349 . S
C767 C765 1.327 . S
C767 C783 1.429 . S
C767 H789 0.950 . S
C768 H764 0.949 . S
C768 C776 1.574 . S
C768 C784 1.368 . S
H769 C777 0.950 . S
H770 C775 0.950 . S
H771 C776 0.949 . S
H772 C778 0.950 . S
H773 C779 0.950 . S
H774 C780 0.949 . S
C775 H770 0.950 . S
C775 C777 1.327 . S
C775 C781 1.429 . S
C776 C768 1.574 . S
C776 H771 0.949 . S
C776 C782 1.368 . S
C777 C761 1.349 . S
C777 H769 0.950 . S
C777 C775 1.327 . S
C778 C766 1.349 . S
C778 H772 0.950 . S
C778 C779 1.327 . S
C779 H773 0.950 . S
C779 C778 1.327 . S
C779 C783 1.429 . S
C780 C763 1.574 . S
C780 H774 0.949 . S
C780 C784 1.368 . S
C781 C762 1.429 . S
C781 C775 1.429 . S
C781 C782 1.523 . S
C782 C763 1.368 . S
C782 C776 1.368 . S
C782 C781 1.523 . S
C783 C767 1.429 . S
C783 C779 1.429 . S
C783 C784 1.523 . S
C784 C768 1.368 . S
C784 C780 1.368 . S
C784 C783 1.523 . S
H785 C760 0.950 . S
H786 C762 0.950 . S
H787 C763 0.949 . S
H788 C765 0.950 . S
H789 C767 0.950 . S
C790 C791 1.349 . S
C790 C792 1.327 . S
C790 H815 0.950 . S
C791 C790 1.349 . S
C791 C807 1.349 . S
C792 C790 1.327 . S
C792 C811 1.429 . S
C792 H816 0.950 . S
C793 C810 1.574 1_565 S
C793 C812 1.368 . S
C793 H817 0.949 . S
H794 C798 0.949 . S
C795 C796 1.349 . S
C795 C797 1.327 . S
C795 H818 0.950 . S
C796 C795 1.349 . S
C796 C808 1.349 . S
C797 C795 1.327 . S
C797 C813 1.429 . S
C797 H819 0.950 . S
C798 H794 0.949 . S
C798 C806 1.574 . S
C798 C814 1.368 . S
H799 C807 0.950 . S
H800 C805 0.950 . S
H801 C806 0.949 . S
H802 C808 0.950 . S
H803 C809 0.950 . S
H804 C810 0.949 . S
C805 H800 0.950 . S
C805 C807 1.327 . S
C805 C811 1.429 . S
C806 C798 1.574 . S
C806 H801 0.949 . S
C806 C812 1.368 1_545 S
C807 C791 1.349 . S
C807 H799 0.950 . S
C807 C805 1.327 . S
C808 C796 1.349 . S
C808 H802 0.950 . S
C808 C809 1.327 . S
C809 H803 0.950 . S
C809 C808 1.327 . S
C809 C813 1.429 . S
C810 C793 1.574 1_545 S
C810 H804 0.949 . S
C810 C814 1.368 . S
C811 C792 1.429 . S
C811 C805 1.429 . S
C811 C812 1.523 . S
C812 C793 1.368 . S
C812 C806 1.368 1_565 S
C812 C811 1.523 . S
C813 C797 1.429 . S
C813 C809 1.429 . S
C813 C814 1.523 . S
C814 C798 1.368 . S
C814 C810 1.368 . S
C814 C813 1.523 . S
H815 C790 0.950 . S
H816 C792 0.950 . S
H817 C793 0.949 . S
H818 C795 0.950 . S
H819 C797 0.950 . S
C820 C821 1.349 . S
C820 C822 1.327 . S
C820 H845 0.950 . S
C821 C820 1.349 . S
C821 C837 1.349 . S
C822 C820 1.327 . S
C822 C841 1.429 . S
C822 H846 0.950 . S
C823 C840 1.574 . S
C823 C842 1.368 . S
C823 H847 0.949 . S
H824 C828 0.949 . S
C825 C826 1.349 . S
C825 C827 1.327 . S
C825 H848 0.950 . S
C826 C825 1.349 . S
C826 C838 1.349 . S
C827 C825 1.327 . S
C827 C843 1.429 . S
C827 H849 0.950 . S
C828 H824 0.949 . S
C828 C836 1.574 . S
C828 C844 1.368 . S
H829 C837 0.950 . S
H830 C835 0.950 . S
H831 C836 0.949 . S
H832 C838 0.950 . S
H833 C839 0.950 . S
H834 C840 0.949 . S
C835 H830 0.950 . S
C835 C837 1.327 . S
C835 C841 1.429 . S
C836 C828 1.574 . S
C836 H831 0.949 . S
C836 C842 1.368 . S
C837 C821 1.349 . S
C837 H829 0.950 . S
C837 C835 1.327 . S
C838 C826 1.349 . S
C838 H832 0.950 . S
C838 C839 1.327 . S
C839 H833 0.950 . S
C839 C838 1.327 . S
C839 C843 1.429 . S
C840 C823 1.574 . S
C840 H834 0.949 . S
C840 C844 1.368 . S
C841 C822 1.429 . S
C841 C835 1.429 . S
C841 C842 1.523 . S
C842 C823 1.368 . S
C842 C836 1.368 . S
C842 C841 1.523 . S
C843 C827 1.429 . S
C843 C839 1.429 . S
C843 C844 1.523 . S
C844 C828 1.368 . S
C844 C840 1.368 . S
C844 C843 1.523 . S
H845 C820 0.950 . S
H846 C822 0.950 . S
H847 C823 0.949 . S
H848 C825 0.950 . S
H849 C827 0.950 . S
C850 C851 1.349 . S
C850 C852 1.327 . S
C850 H875 0.950 . S
C851 C850 1.349 . S
C851 C867 1.349 . S
C852 C850 1.327 . S
C852 C871 1.429 . S
C852 H876 0.950 . S
C853 C870 1.574 1_565 S
C853 C872 1.368 . S
C853 H877 0.949 . S
H854 C858 0.949 . S
C855 C856 1.349 . S
C855 C857 1.327 . S
C855 H878 0.950 . S
C856 C855 1.349 . S
C856 C868 1.349 1_554 S
C857 C855 1.327 . S
C857 C873 1.429 . S
C857 H879 0.950 . S
C858 H854 0.949 . S
C858 C866 1.574 . S
C858 C874 1.368 1_565 S
H859 C867 0.950 . S
H860 C865 0.950 . S
H861 C866 0.949 . S
H862 C868 0.950 . S
H863 C869 0.950 . S
H864 C870 0.949 . S
C865 H860 0.950 . S
C865 C867 1.327 . S
C865 C871 1.429 . S
C866 C858 1.574 . S
C866 H861 0.949 . S
C866 C872 1.368 . S
C867 C851 1.349 . S
C867 H859 0.950 . S
C867 C865 1.327 . S
C868 C856 1.349 1_556 S
C868 H862 0.950 . S
C868 C869 1.327 1_556 S
C869 H863 0.950 . S
C869 C868 1.327 1_554 S
C869 C873 1.429 . S
C870 C853 1.574 1_545 S
C870 H864 0.949 . S
C870 C874 1.368 . S
C871 C852 1.429 . S
C871 C865 1.429 . S
C871 C872 1.523 . S
C872 C853 1.368 . S
C872 C866 1.368 . S
C872 C871 1.523 . S
C873 C857 1.429 . S
C873 C869 1.429 . S
C873 C874 1.523 . S
C874 C858 1.368 1_545 S
C874 C870 1.368 . S
C874 C873 1.523 . S
H875 C850 0.950 . S
H876 C852 0.950 . S
H877 C853 0.949 . S
H878 C855 0.950 . S
H879 C857 0.950 . S
C880 C881 1.349 . S
C880 C882 1.327 . S
C880 H905 0.950 . S
C881 C880 1.349 . S
C881 C897 1.349 . S
C882 C880 1.327 . S
C882 C901 1.429 . S
C882 H906 0.950 . S
C883 C900 1.574 . S
C883 C902 1.368 . S
C883 H907 0.949 . S
H884 C888 0.949 . S
C885 C886 1.349 . S
C885 C887 1.327 . S
C885 H908 0.950 . S
C886 C885 1.349 . S
C886 C898 1.349 . S
C887 C885 1.327 . S
C887 C903 1.429 . S
C887 H909 0.950 . S
C888 H884 0.949 . S
C888 C896 1.574 . S
C888 C904 1.368 . S
H889 C897 0.950 . S
H890 C895 0.950 . S
H891 C896 0.949 . S
H892 C898 0.950 . S
H893 C899 0.950 . S
H894 C900 0.949 . S
C895 H890 0.950 . S
C895 C897 1.327 . S
C895 C901 1.429 . S
C896 C888 1.574 . S
C896 H891 0.949 . S
C896 C902 1.368 . S
C897 C881 1.349 . S
C897 H889 0.950 . S
C897 C895 1.327 . S
C898 C886 1.349 . S
C898 H892 0.950 . S
C898 C899 1.327 . S
C899 H893 0.950 . S
C899 C898 1.327 . S
C899 C903 1.429 . S
C900 C883 1.574 . S
C900 H894 0.949 . S
C900 C904 1.368 . S
C901 C882 1.429 . S
C901 C895 1.429 . S
C901 C902 1.523 . S
C902 C883 1.368 . S
C902 C896 1.368 . S
C902 C901 1.523 . S
C903 C887 1.429 . S
C903 C899 1.429 . S
C903 C904 1.523 . S
C904 C888 1.368 . S
C904 C900 1.368 . S
C904 C903 1.523 . S
H905 C880 0.950 . S
H906 C882 0.950 . S
H907 C883 0.949 . S
H908 C885 0.950 . S
H909 C887 0.950 . S
C910 C911 1.349 . S
C910 C912 1.327 . S
C910 H935 0.950 . S
C911 C910 1.349 . S
C911 C927 1.349 . S
C912 C910 1.327 . S
C912 C931 1.429 . S
C912 H936 0.950 . S
C913 C930 1.574 . S
C913 C932 1.368 1_565 S
C913 H937 0.949 . S
H914 C918 0.949 . S
C915 C916 1.349 . S
C915 C917 1.327 . S
C915 H938 0.950 . S
C916 C915 1.349 . S
C916 C928 1.349 . S
C917 C915 1.327 . S
C917 C933 1.429 . S
C917 H939 0.950 . S
C918 H914 0.949 . S
C918 C926 1.574 1_565 S
C918 C934 1.368 . S
H919 C927 0.950 . S
H920 C925 0.950 . S
H921 C926 0.949 . S
H922 C928 0.950 . S
H923 C929 0.950 . S
H924 C930 0.949 . S
C925 H920 0.950 . S
C925 C927 1.327 . S
C925 C931 1.429 . S
C926 C918 1.574 1_545 S
C926 H921 0.949 . S
C926 C932 1.368 . S
C927 C911 1.349 . S
C927 H919 0.950 . S
C927 C925 1.327 . S
C928 C916 1.349 . S
C928 H922 0.950 . S
C928 C929 1.327 . S
C929 H923 0.950 . S
C929 C928 1.327 . S
C929 C933 1.429 . S
C930 C913 1.574 . S
C930 H924 0.949 . S
C930 C934 1.368 . S
C931 C912 1.429 . S
C931 C925 1.429 . S
C931 C932 1.523 . S
C932 C913 1.368 1_545 S
C932 C926 1.368 . S
C932 C931 1.523 . S
C933 C917 1.429 . S
C933 C929 1.429 . S
C933 C934 1.523 . S
C934 C918 1.368 . S
C934 C930 1.368 . S
C934 C933 1.523 . S
H935 C910 0.950 . S
H936 C912 0.950 . S
H937 C913 0.949 . S
H938 C915 0.950 . S
H939 C917 0.950 . S
C940 C941 1.349 . S
C940 C942 1.327 . S
C940 H965 0.950 . S
C941 C940 1.349 . S
C941 C957 1.349 . S
C942 C940 1.327 . S
C942 C961 1.429 . S
C942 H966 0.950 . S
C943 C960 1.574 . S
C943 C962 1.368 . S
C943 H967 0.949 . S
H944 C948 0.949 . S
C945 C946 1.349 . S
C945 C947 1.327 . S
C945 H968 0.950 . S
C946 C945 1.349 . S
C946 C958 1.349 . S
C947 C945 1.327 . S
C947 C963 1.429 . S
C947 H969 0.950 . S
C948 H944 0.949 . S
C948 C956 1.574 . S
C948 C964 1.368 . S
H949 C957 0.950 . S
H950 C955 0.950 . S
H951 C956 0.949 . S
H952 C958 0.950 . S
H953 C959 0.950 . S
H954 C960 0.949 . S
C955 H950 0.950 . S
C955 C957 1.327 . S
C955 C961 1.429 . S
C956 C948 1.574 . S
C956 H951 0.949 . S
C956 C962 1.368 . S
C957 C941 1.349 . S
C957 H949 0.950 . S
C957 C955 1.327 . S
C958 C946 1.349 . S
C958 H952 0.950 . S
C958 C959 1.327 . S
C959 H953 0.950 . S
C959 C958 1.327 . S
C959 C963 1.429 . S
C960 C943 1.574 . S
C960 H954 0.949 . S
C960 C964 1.368 . S
C961 C942 1.429 . S
C961 C955 1.429 . S
C961 C962 1.523 . S
C962 C943 1.368 . S
C962 C956 1.368 . S
C962 C961 1.523 . S
C963 C947 1.429 . S
C963 C959 1.429 . S
C963 C964 1.523 . S
C964 C948 1.368 . S
C964 C960 1.368 . S
C964 C963 1.523 . S
H965 C940 0.950 . S
H966 C942 0.950 . S
H967 C943 0.949 . S
H968 C945 0.950 . S
H969 C947 0.950 . S
C970 C971 1.349 1_556 S
C970 C972 1.327 1_556 S
C970 H995 0.950 . S
C971 C970 1.349 1_554 S
C971 C987 1.349 . S
C972 C970 1.327 1_554 S
C972 C991 1.429 . S
C972 H996 0.950 . S
C973 C990 1.574 1_565 S
C973 C992 1.368 . S
C973 H997 0.949 . S
H974 C978 0.949 . S
C975 C976 1.349 . S
C975 C977 1.327 . S
C975 H998 0.950 . S
C976 C975 1.349 . S
C976 C988 1.349 . S
C977 C975 1.327 . S
C977 C993 1.429 . S
C977 H999 0.950 . S
C978 H974 0.949 . S
C978 C986 1.574 . S
C978 C994 1.368 . S
H979 C987 0.950 . S
H980 C985 0.950 . S
H981 C986 0.949 . S
H982 C988 0.950 . S
H983 C989 0.950 . S
H984 C990 0.949 . S
C985 H980 0.950 . S
C985 C987 1.327 . S
C985 C991 1.429 . S
C986 C978 1.574 . S
C986 H981 0.949 . S
C986 C992 1.368 1_545 S
C987 C971 1.349 . S
C987 H979 0.950 . S
C987 C985 1.327 . S
C988 C976 1.349 . S
C988 H982 0.950 . S
C988 C989 1.327 . S
C989 H983 0.950 . S
C989 C988 1.327 . S
C989 C993 1.429 . S
C990 C973 1.574 1_545 S
C990 H984 0.949 . S
C990 C994 1.368 . S
C991 C972 1.429 . S
C991 C985 1.429 . S
C991 C992 1.523 . S
C992 C973 1.368 . S
C992 C986 1.368 1_565 S
C992 C991 1.523 . S
C993 C977 1.429 . S
C993 C989 1.429 . S
C993 C994 1.523 . S
C994 C978 1.368 . S
C994 C990 1.368 . S
C994 C993 1.523 . S
H995 C970 0.950 . S
H996 C972 0.950 . S
H997 C973 0.949 . S
H998 C975 0.950 . S
H999 C977 0.950 . S
C1000 C1001 1.349 . S
C1000 C1002 1.327 . S
C1000 H1025 0.950 . S
C1001 C1000 1.349 . S
C1001 C1017 1.349 . S
C1002 C1000 1.327 . S
C1002 C1021 1.429 . S
C1002 H1026 0.950 . S
C1003 C1020 1.574 . S
C1003 C1022 1.368 . S
C1003 H1027 0.949 . S
H1004 C1008 0.949 . S
C1005 C1006 1.349 . S
C1005 C1007 1.327 . S
C1005 H1028 0.950 . S
C1006 C1005 1.349 . S
C1006 C1018 1.349 . S
C1007 C1005 1.327 . S
C1007 C1023 1.429 . S
C1007 H1029 0.950 . S
C1008 H1004 0.949 . S
C1008 C1016 1.574 . S
C1008 C1024 1.368 . S
H1009 C1017 0.950 . S
H1010 C1015 0.950 . S
H1011 C1016 0.949 . S
H1012 C1018 0.950 . S
H1013 C1019 0.950 . S
H1014 C1020 0.949 . S
C1015 H1010 0.950 . S
C1015 C1017 1.327 . S
C1015 C1021 1.429 . S
C1016 C1008 1.574 . S
C1016 H1011 0.949 . S
C1016 C1022 1.368 . S
C1017 C1001 1.349 . S
C1017 H1009 0.950 . S
C1017 C1015 1.327 . S
C1018 C1006 1.349 . S
C1018 H1012 0.950 . S
C1018 C1019 1.327 . S
C1019 H1013 0.950 . S
C1019 C1018 1.327 . S
C1019 C1023 1.429 . S
C1020 C1003 1.574 . S
C1020 H1014 0.949 . S
C1020 C1024 1.368 . S
C1021 C1002 1.429 . S
C1021 C1015 1.429 . S
C1021 C1022 1.523 . S
C1022 C1003 1.368 . S
C1022 C1016 1.368 . S
C1022 C1021 1.523 . S
C1023 C1007 1.429 . S
C1023 C1019 1.429 . S
C1023 C1024 1.523 . S
C1024 C1008 1.368 . S
C1024 C1020 1.368 . S
C1024 C1023 1.523 . S
H1025 C1000 0.950 . S
H1026 C1002 0.950 . S
H1027 C1003 0.949 . S
H1028 C1005 0.950 . S
H1029 C1007 0.950 . S
C1030 C1031 1.349 . S
C1030 C1032 1.327 . S
C1030 H1055 0.950 . S
C1031 C1030 1.349 . S
C1031 C1047 1.349 . S
C1032 C1030 1.327 . S
C1032 C1051 1.429 . S
C1032 H1056 0.950 . S
C1033 C1050 1.574 . S
C1033 C1052 1.368 1_565 S
C1033 H1057 0.949 . S
H1034 C1038 0.949 . S
C1035 C1036 1.349 . S
C1035 C1037 1.327 . S
C1035 H1058 0.950 . S
C1036 C1035 1.349 . S
C1036 C1048 1.349 . S
C1037 C1035 1.327 . S
C1037 C1053 1.429 . S
C1037 H1059 0.950 . S
C1038 H1034 0.949 . S
C1038 C1046 1.574 1_565 S
C1038 C1054 1.368 . S
H1039 C1047 0.950 . S
H1040 C1045 0.950 . S
H1041 C1046 0.949 . S
H1042 C1048 0.950 . S
H1043 C1049 0.950 . S
H1044 C1050 0.949 . S
C1045 H1040 0.950 . S
C1045 C1047 1.327 . S
C1045 C1051 1.429 . S
C1046 C1038 1.574 1_545 S
C1046 H1041 0.949 . S
C1046 C1052 1.368 . S
C1047 C1031 1.349 . S
C1047 H1039 0.950 . S
C1047 C1045 1.327 . S
C1048 C1036 1.349 . S
C1048 H1042 0.950 . S
C1048 C1049 1.327 . S
C1049 H1043 0.950 . S
C1049 C1048 1.327 . S
C1049 C1053 1.429 . S
C1050 C1033 1.574 . S
C1050 H1044 0.949 . S
C1050 C1054 1.368 . S
C1051 C1032 1.429 . S
C1051 C1045 1.429 . S
C1051 C1052 1.523 . S
C1052 C1033 1.368 1_545 S
C1052 C1046 1.368 . S
C1052 C1051 1.523 . S
C1053 C1037 1.429 . S
C1053 C1049 1.429 . S
C1053 C1054 1.523 . S
C1054 C1038 1.368 . S
C1054 C1050 1.368 . S
C1054 C1053 1.523 . S
H1055 C1030 0.950 . S
H1056 C1032 0.950 . S
H1057 C1033 0.949 . S
H1058 C1035 0.950 . S
H1059 C1037 0.950 . S
C1060 C1061 1.349 . S
C1060 C1062 1.327 . S
C1060 H1085 0.950 . S
C1061 C1060 1.349 . S
C1061 C1077 1.349 . S
C1062 C1060 1.327 . S
C1062 C1081 1.429 . S
C1062 H1086 0.950 . S
C1063 C1080 1.574 . S
C1063 C1082 1.368 . S
C1063 H1087 0.949 . S
H1064 C1068 0.949 . S
C1065 C1066 1.349 . S
C1065 C1067 1.327 . S
C1065 H1088 0.950 . S
C1066 C1065 1.349 . S
C1066 C1078 1.349 . S
C1067 C1065 1.327 . S
C1067 C1083 1.429 . S
C1067 H1089 0.950 . S
C1068 H1064 0.949 . S
C1068 C1076 1.574 . S
C1068 C1084 1.368 . S
H1069 C1077 0.950 . S
H1070 C1075 0.950 . S
H1071 C1076 0.949 . S
H1072 C1078 0.950 . S
H1073 C1079 0.950 . S
H1074 C1080 0.949 . S
C1075 H1070 0.950 . S
C1075 C1077 1.327 . S
C1075 C1081 1.429 . S
C1076 C1068 1.574 . S
C1076 H1071 0.949 . S
C1076 C1082 1.368 . S
C1077 C1061 1.349 . S
C1077 H1069 0.950 . S
C1077 C1075 1.327 . S
C1078 C1066 1.349 . S
C1078 H1072 0.950 . S
C1078 C1079 1.327 . S
C1079 H1073 0.950 . S
C1079 C1078 1.327 . S
C1079 C1083 1.429 . S
C1080 C1063 1.574 . S
C1080 H1074 0.949 . S
C1080 C1084 1.368 . S
C1081 C1062 1.429 . S
C1081 C1075 1.429 . S
C1081 C1082 1.523 . S
C1082 C1063 1.368 . S
C1082 C1076 1.368 . S
C1082 C1081 1.523 . S
C1083 C1067 1.429 . S
C1083 C1079 1.429 . S
C1083 C1084 1.523 . S
C1084 C1068 1.368 . S
C1084 C1080 1.368 . S
C1084 C1083 1.523 . S
H1085 C1060 0.950 . S
H1086 C1062 0.950 . S
H1087 C1063 0.949 . S
H1088 C1065 0.950 . S
H1089 C1067 0.950 . S
C1090 C1091 1.349 . S
C1090 C1092 1.327 . S
C1090 H1115 0.950 . S
C1091 C1090 1.349 . S
C1091 C1107 1.349 . S
C1092 C1090 1.327 . S
C1092 C1111 1.429 . S
C1092 H1116 0.950 . S
C1093 C1110 1.574 1_545 S
C1093 C1112 1.368 . S
C1093 H1117 0.949 . S
H1094 C1098 0.949 . S
C1095 C1096 1.349 . S
C1095 C1097 1.327 . S
C1095 H1118 0.950 . S
C1096 C1095 1.349 . S
C1096 C1108 1.349 . S
C1097 C1095 1.327 . S
C1097 C1113 1.429 . S
C1097 H1119 0.950 . S
C1098 H1094 0.949 . S
C1098 C1106 1.574 . S
C1098 C1114 1.368 1_545 S
H1099 C1107 0.950 . S
H1100 C1105 0.950 . S
H1101 C1106 0.949 . S
H1102 C1108 0.950 1_554 S
H1103 C1109 0.950 . S
H1104 C1110 0.949 . S
C1105 H1100 0.950 . S
C1105 C1107 1.327 . S
C1105 C1111 1.429 . S
C1106 C1098 1.574 . S
C1106 H1101 0.949 . S
C1106 C1112 1.368 . S
C1107 C1091 1.349 . S
C1107 H1099 0.950 . S
C1107 C1105 1.327 . S
C1108 C1096 1.349 . S
C1108 H1102 0.950 1_556 S
C1108 C1109 1.327 . S
C1109 H1103 0.950 . S
C1109 C1108 1.327 . S
C1109 C1113 1.429 . S
C1110 C1093 1.574 1_565 S
C1110 H1104 0.949 . S
C1110 C1114 1.368 . S
C1111 C1092 1.429 . S
C1111 C1105 1.429 . S
C1111 C1112 1.523 . S
C1112 C1093 1.368 . S
C1112 C1106 1.368 . S
C1112 C1111 1.523 . S
C1113 C1097 1.429 . S
C1113 C1109 1.429 . S
C1113 C1114 1.523 . S
C1114 C1098 1.368 1_565 S
C1114 C1110 1.368 . S
C1114 C1113 1.523 . S
H1115 C1090 0.950 . S
H1116 C1092 0.950 . S
H1117 C1093 0.949 . S
H1118 C1095 0.950 . S
H1119 C1097 0.950 . S
C1120 C1121 1.349 . S
C1120 C1122 1.327 . S
C1120 H1145 0.950 . S
C1121 C1120 1.349 . S
C1121 C1137 1.349 . S
C1122 C1120 1.327 . S
C1122 C1141 1.429 . S
C1122 H1146 0.950 . S
C1123 C1140 1.574 . S
C1123 C1142 1.368 . S
C1123 H1147 0.949 . S
H1124 C1128 0.949 . S
C1125 C1126 1.349 . S
C1125 C1127 1.327 . S
C1125 H1148 0.950 . S
C1126 C1125 1.349 . S
C1126 C1138 1.349 . S
C1127 C1125 1.327 . S
C1127 C1143 1.429 . S
C1127 H1149 0.950 . S
C1128 H1124 0.949 . S
C1128 C1136 1.574 . S
C1128 C1144 1.368 . S
H1129 C1137 0.950 . S
H1130 C1135 0.950 . S
H1131 C1136 0.949 . S
H1132 C1138 0.950 . S
H1133 C1139 0.950 . S
H1134 C1140 0.949 . S
C1135 H1130 0.950 . S
C1135 C1137 1.327 . S
C1135 C1141 1.429 . S
C1136 C1128 1.574 . S
C1136 H1131 0.949 . S
C1136 C1142 1.368 . S
C1137 C1121 1.349 . S
C1137 H1129 0.950 . S
C1137 C1135 1.327 . S
C1138 C1126 1.349 . S
C1138 H1132 0.950 . S
C1138 C1139 1.327 . S
C1139 H1133 0.950 . S
C1139 C1138 1.327 . S
C1139 C1143 1.429 . S
C1140 C1123 1.574 . S
C1140 H1134 0.949 . S
C1140 C1144 1.368 . S
C1141 C1122 1.429 . S
C1141 C1135 1.429 . S
C1141 C1142 1.523 . S
C1142 C1123 1.368 . S
C1142 C1136 1.368 . S
C1142 C1141 1.523 . S
C1143 C1127 1.429 . S
C1143 C1139 1.429 . S
C1143 C1144 1.523 . S
C1144 C1128 1.368 . S
C1144 C1140 1.368 . S
C1144 C1143 1.523 . S
H1145 C1120 0.950 . S
H1146 C1122 0.950 . S
H1147 C1123 0.949 . S
H1148 C1125 0.950 . S
H1149 C1127 0.950 . S
C1150 C1151 1.349 . S
C1150 C1152 1.327 . S
C1150 H1175 0.950 . S
C1151 C1150 1.349 . S
C1151 C1167 1.349 . S
C1152 C1150 1.327 . S
C1152 C1171 1.429 . S
C1152 H1176 0.950 . S
C1153 C1170 1.574 . S
C1153 C1172 1.368 . S
C1153 H1177 0.949 . S
H1154 C1158 0.949 . S
C1155 C1156 1.356 . S
C1155 C1157 1.352 . S
C1155 H1178 0.918 1_556 S
C1156 C1155 1.356 . S
C1156 C1168 1.349 . S
C1157 C1155 1.352 . S
C1157 C1173 1.429 . S
C1157 H1179 0.950 . S
C1158 H1154 0.949 . S
C1158 C1166 1.574 . S
C1158 C1174 1.368 . S
H1159 C1167 0.950 . S
H1160 C1165 0.950 . S
H1161 C1166 0.949 . S
H1162 C1168 0.950 . S
H1163 C1169 0.950 . S
H1164 C1170 0.949 . S
C1165 H1160 0.950 . S
C1165 C1167 1.327 . S
C1165 C1171 1.429 . S
C1166 C1158 1.574 . S
C1166 H1161 0.949 . S
C1166 C1172 1.368 . S
C1167 C1151 1.349 . S
C1167 H1159 0.950 . S
C1167 C1165 1.327 . S
C1168 C1156 1.349 . S
C1168 H1162 0.950 . S
C1168 C1169 1.327 . S
C1169 H1163 0.950 . S
C1169 C1168 1.327 . S
C1169 C1173 1.429 . S
C1170 C1153 1.574 . S
C1170 H1164 0.949 . S
C1170 C1174 1.368 . S
C1171 C1152 1.429 . S
C1171 C1165 1.429 . S
C1171 C1172 1.523 . S
C1172 C1153 1.368 . S
C1172 C1166 1.368 . S
C1172 C1171 1.523 . S
C1173 C1157 1.429 . S
C1173 C1169 1.429 . S
C1173 C1174 1.523 . S
C1174 C1158 1.368 . S
C1174 C1170 1.368 . S
C1174 C1173 1.523 . S
H1175 C1150 0.950 . S
H1176 C1152 0.950 . S
H1177 C1153 0.949 . S
H1178 C1155 0.918 1_554 S
H1179 C1157 0.950 . S
C1180 C1181 1.349 . S
C1180 C1182 1.327 . S
C1180 H1205 0.950 . S
C1181 C1180 1.349 . S
C1181 C1197 1.349 . S
C1182 C1180 1.327 . S
C1182 C1201 1.429 . S
C1182 H1206 0.950 . S
C1183 C1200 1.574 . S
C1183 C1202 1.368 . S
C1183 H1207 0.949 . S
H1184 C1188 0.949 . S
C1185 C1186 1.349 . S
C1185 C1187 1.327 . S
C1185 H1208 0.950 . S
C1186 C1185 1.349 . S
C1186 C1198 1.349 . S
C1187 C1185 1.327 . S
C1187 C1203 1.429 . S
C1187 H1209 0.950 . S
C1188 H1184 0.949 . S
C1188 C1196 1.574 . S
C1188 C1204 1.368 . S
H1189 C1197 0.950 . S
H1190 C1195 0.950 . S
H1191 C1196 0.949 . S
H1192 C1198 0.950 . S
H1193 C1199 0.950 . S
H1194 C1200 0.949 . S
C1195 H1190 0.950 . S
C1195 C1197 1.327 . S
C1195 C1201 1.429 . S
C1196 C1188 1.574 . S
C1196 H1191 0.949 . S
C1196 C1202 1.368 . S
C1197 C1181 1.349 . S
C1197 H1189 0.950 . S
C1197 C1195 1.327 . S
C1198 C1186 1.349 . S
C1198 H1192 0.950 . S
C1198 C1199 1.327 . S
C1199 H1193 0.950 . S
C1199 C1198 1.327 . S
C1199 C1203 1.429 . S
C1200 C1183 1.574 . S
C1200 H1194 0.949 . S
C1200 C1204 1.368 . S
C1201 C1182 1.429 . S
C1201 C1195 1.429 . S
C1201 C1202 1.523 . S
C1202 C1183 1.368 . S
C1202 C1196 1.368 . S
C1202 C1201 1.523 . S
C1203 C1187 1.429 . S
C1203 C1199 1.429 . S
C1203 C1204 1.523 . S
C1204 C1188 1.368 . S
C1204 C1200 1.368 . S
C1204 C1203 1.523 . S
H1205 C1180 0.950 . S
H1206 C1182 0.950 . S
H1207 C1183 0.949 . S
H1208 C1185 0.950 . S
H1209 C1187 0.950 . S
C1210 C1211 1.349 . S
C1210 C1212 1.327 . S
C1210 H1235 0.950 . S
C1211 C1210 1.349 . S
C1211 C1227 1.349 . S
C1212 C1210 1.327 . S
C1212 C1231 1.429 . S
C1212 H1236 0.950 . S
C1213 C1230 1.574 . S
C1213 C1232 1.368 . S
C1213 H1237 0.949 . S
H1214 C1218 0.949 . S
C1215 C1216 1.349 . S
C1215 C1217 1.327 . S
C1215 H1238 0.950 . S
C1216 C1215 1.349 . S
C1216 C1228 1.349 . S
C1217 C1215 1.327 . S
C1217 C1233 1.429 . S
C1217 H1239 0.950 . S
C1218 H1214 0.949 . S
C1218 C1226 1.574 . S
C1218 C1234 1.368 . S
H1219 C1227 0.950 . S
H1220 C1225 0.950 . S
H1221 C1226 0.949 . S
H1222 C1228 0.950 . S
H1223 C1229 0.950 . S
H1224 C1230 0.949 . S
C1225 H1220 0.950 . S
C1225 C1227 1.327 . S
C1225 C1231 1.429 . S
C1226 C1218 1.574 . S
C1226 H1221 0.949 . S
C1226 C1232 1.368 . S
C1227 C1211 1.349 . S
C1227 H1219 0.950 . S
C1227 C1225 1.327 . S
C1228 C1216 1.349 . S
C1228 H1222 0.950 . S
C1228 C1229 1.327 . S
C1229 H1223 0.950 . S
C1229 C1228 1.327 . S
C1229 C1233 1.429 . S
C1230 C1213 1.574 . S
C1230 H1224 0.949 . S
C1230 C1234 1.368 . S
C1231 C1212 1.429 . S
C1231 C1225 1.429 . S
C1231 C1232 1.523 . S
C1232 C1213 1.368 . S
C1232 C1226 1.368 . S
C1232 C1231 1.523 . S
C1233 C1217 1.429 . S
C1233 C1229 1.429 . S
C1233 C1234 1.523 . S
C1234 C1218 1.368 . S
C1234 C1230 1.368 . S
C1234 C1233 1.523 . S
H1235 C1210 0.950 . S
H1236 C1212 0.950 . S
H1237 C1213 0.949 . S
H1238 C1215 0.950 . S
H1239 C1217 0.950 . S
C1240 C1241 1.349 . S
C1240 C1242 1.327 . S
C1240 H1265 0.950 . S
C1241 C1240 1.349 . S
C1241 C1257 1.349 . S
C1242 C1240 1.327 . S
C1242 C1261 1.429 . S
C1242 H1266 0.950 . S
C1243 C1260 1.574 . S
C1243 C1262 1.368 . S
C1243 H1267 0.949 . S
H1244 C1248 0.949 . S
C1245 C1246 1.349 . S
C1245 C1247 1.327 . S
C1245 H1268 0.950 . S
C1246 C1245 1.349 . S
C1246 C1258 1.349 . S
C1247 C1245 1.327 . S
C1247 C1263 1.429 . S
C1247 H1269 0.950 . S
C1248 H1244 0.949 . S
C1248 C1256 1.574 . S
C1248 C1264 1.368 . S
H1249 C1257 0.950 . S
H1250 C1255 0.950 . S
H1251 C1256 0.949 . S
H1252 C1258 0.950 . S
H1253 C1259 0.950 . S
H1254 C1260 0.949 . S
C1255 H1250 0.950 . S
C1255 C1257 1.327 . S
C1255 C1261 1.429 . S
C1256 C1248 1.574 . S
C1256 H1251 0.949 . S
C1256 C1262 1.368 . S
C1257 C1241 1.349 . S
C1257 H1249 0.950 . S
C1257 C1255 1.327 . S
C1258 C1246 1.349 . S
C1258 H1252 0.950 . S
C1258 C1259 1.327 . S
C1259 H1253 0.950 . S
C1259 C1258 1.327 . S
C1259 C1263 1.429 . S
C1260 C1243 1.574 . S
C1260 H1254 0.949 . S
C1260 C1264 1.368 . S
C1261 C1242 1.429 . S
C1261 C1255 1.429 . S
C1261 C1262 1.523 . S
C1262 C1243 1.368 . S
C1262 C1256 1.368 . S
C1262 C1261 1.523 . S
C1263 C1247 1.429 . S
C1263 C1259 1.429 . S
C1263 C1264 1.523 . S
C1264 C1248 1.368 . S
C1264 C1260 1.368 . S
C1264 C1263 1.523 . S
H1265 C1240 0.950 . S
H1266 C1242 0.950 . S
H1267 C1243 0.949 . S
H1268 C1245 0.950 . S
H1269 C1247 0.950 . S
C1270 C1271 1.349 . S
C1270 C1272 1.327 . S
C1270 H1295 0.950 . S
C1271 C1270 1.349 . S
C1271 C1287 1.349 . S
C1272 C1270 1.327 . S
C1272 C1291 1.429 . S
C1272 H1296 0.950 . S
C1273 C1290 1.574 . S
C1273 C1292 1.368 . S
C1273 H1297 0.949 . S
H1274 C1278 0.949 . S
C1275 C1276 1.349 . S
C1275 C1277 1.327 . S
C1275 H1298 0.950 . S
C1276 C1275 1.349 . S
C1276 C1288 1.349 1_554 S
C1277 C1275 1.327 . S
C1277 C1293 1.429 . S
C1277 H1299 0.950 . S
C1278 H1274 0.949 . S
C1278 C1286 1.574 . S
C1278 C1294 1.368 . S
H1279 C1287 0.950 . S
H1280 C1285 0.950 . S
H1281 C1286 0.949 . S
H1282 C1288 0.950 . S
H1283 C1289 0.950 . S
H1284 C1290 0.949 . S
C1285 H1280 0.950 . S
C1285 C1287 1.327 . S
C1285 C1291 1.429 . S
C1286 C1278 1.574 . S
C1286 H1281 0.949 . S
C1286 C1292 1.368 . S
C1287 C1271 1.349 . S
C1287 H1279 0.950 . S
C1287 C1285 1.327 . S
C1288 C1276 1.349 1_556 S
C1288 H1282 0.950 . S
C1288 C1289 1.327 1_556 S
C1289 H1283 0.950 . S
C1289 C1288 1.327 1_554 S
C1289 C1293 1.429 . S
C1290 C1273 1.574 . S
C1290 H1284 0.949 . S
C1290 C1294 1.368 . S
C1291 C1272 1.429 . S
C1291 C1285 1.429 . S
C1291 C1292 1.523 . S
C1292 C1273 1.368 . S
C1292 C1286 1.368 . S
C1292 C1291 1.523 . S
C1293 C1277 1.429 . S
C1293 C1289 1.429 . S
C1293 C1294 1.523 . S
C1294 C1278 1.368 . S
C1294 C1290 1.368 . S
C1294 C1293 1.523 . S
H1295 C1270 0.950 . S
H1296 C1272 0.950 . S
H1297 C1273 0.949 . S
H1298 C1275 0.950 . S
H1299 C1277 0.950 . S
C1300 C1301 1.349 . S
C1300 C1302 1.327 . S
C1300 H1325 0.950 . S
C1301 C1300 1.349 . S
C1301 C1317 1.349 . S
C1302 C1300 1.327 . S
C1302 C1321 1.429 . S
C1302 H1326 0.950 . S
C1303 C1320 1.574 . S
C1303 C1322 1.368 . S
C1303 H1327 0.949 . S
H1304 C1308 0.949 . S
C1305 C1306 1.349 . S
C1305 C1307 1.327 . S
C1305 H1328 0.950 . S
C1306 C1305 1.349 . S
C1306 C1318 1.349 . S
C1307 C1305 1.327 . S
C1307 C1323 1.429 . S
C1307 H1329 0.950 . S
C1308 H1304 0.949 . S
C1308 C1316 1.574 . S
C1308 C1324 1.368 . S
H1309 C1317 0.950 . S
H1310 C1315 0.950 . S
H1311 C1316 0.949 . S
H1312 C1318 0.950 . S
H1313 C1319 0.950 . S
H1314 C1320 0.949 . S
C1315 H1310 0.950 . S
C1315 C1317 1.327 . S
C1315 C1321 1.429 . S
C1316 C1308 1.574 . S
C1316 H1311 0.949 . S
C1316 C1322 1.368 . S
C1317 C1301 1.349 . S
C1317 H1309 0.950 . S
C1317 C1315 1.327 . S
C1318 C1306 1.349 . S
C1318 H1312 0.950 . S
C1318 C1319 1.327 . S
C1319 H1313 0.950 . S
C1319 C1318 1.327 . S
C1319 C1323 1.429 . S
C1320 C1303 1.574 . S
C1320 H1314 0.949 . S
C1320 C1324 1.368 . S
C1321 C1302 1.429 . S
C1321 C1315 1.429 . S
C1321 C1322 1.523 . S
C1322 C1303 1.368 . S
C1322 C1316 1.368 . S
C1322 C1321 1.523 . S
C1323 C1307 1.429 . S
C1323 C1319 1.429 . S
C1323 C1324 1.523 . S
C1324 C1308 1.368 . S
C1324 C1320 1.368 . S
C1324 C1323 1.523 . S
H1325 C1300 0.950 . S
H1326 C1302 0.950 . S
H1327 C1303 0.949 . S
H1328 C1305 0.950 . S
H1329 C1307 0.950 . S
C1330 C1331 1.349 . S
C1330 C1332 1.327 . S
C1330 H1355 0.950 . S
C1331 C1330 1.349 . S
C1331 C1347 1.349 . S
C1332 C1330 1.327 . S
C1332 C1351 1.429 . S
C1332 H1356 0.950 . S
C1333 C1350 1.574 . S
C1333 C1352 1.368 . S
C1333 H1357 0.949 . S
H1334 C1338 0.949 . S
C1335 C1336 1.349 . S
C1335 C1337 1.327 . S
C1335 H1358 0.950 . S
C1336 C1335 1.349 . S
C1336 C1348 1.349 . S
C1337 C1335 1.327 . S
C1337 C1353 1.429 . S
C1337 H1359 0.950 . S
C1338 H1334 0.949 . S
C1338 C1346 1.574 . S
C1338 C1354 1.368 . S
H1339 C1347 0.950 . S
H1340 C1345 0.950 . S
H1341 C1346 0.949 . S
H1342 C1348 0.950 . S
H1343 C1349 0.950 . S
H1344 C1350 0.949 . S
C1345 H1340 0.950 . S
C1345 C1347 1.327 . S
C1345 C1351 1.429 . S
C1346 C1338 1.574 . S
C1346 H1341 0.949 . S
C1346 C1352 1.368 . S
C1347 C1331 1.349 . S
C1347 H1339 0.950 . S
C1347 C1345 1.327 . S
C1348 C1336 1.349 . S
C1348 H1342 0.950 . S
C1348 C1349 1.327 . S
C1349 H1343 0.950 . S
C1349 C1348 1.327 . S
C1349 C1353 1.429 . S
C1350 C1333 1.574 . S
C1350 H1344 0.949 . S
C1350 C1354 1.368 . S
C1351 C1332 1.429 . S
C1351 C1345 1.429 . S
C1351 C1352 1.523 . S
C1352 C1333 1.368 . S
C1352 C1346 1.368 . S
C1352 C1351 1.523 . S
C1353 C1337 1.429 . S
C1353 C1349 1.429 . S
C1353 C1354 1.523 . S
C1354 C1338 1.368 . S
C1354 C1350 1.368 . S
C1354 C1353 1.523 . S
H1355 C1330 0.950 . S
H1356 C1332 0.950 . S
H1357 C1333 0.949 . S
H1358 C1335 0.950 . S
H1359 C1337 0.950 . S
C1360 C1361 1.349 . S
C1360 C1362 1.327 . S
C1360 H1385 0.950 . S
C1361 C1360 1.349 . S
C1361 C1377 1.349 . S
C1362 C1360 1.327 . S
C1362 C1381 1.429 . S
C1362 H1386 0.950 . S
C1363 C1380 1.574 . S
C1363 C1382 1.368 . S
C1363 H1387 0.949 . S
H1364 C1368 0.949 . S
C1365 C1366 1.349 . S
C1365 C1367 1.327 . S
C1365 H1388 0.950 . S
C1366 C1365 1.349 . S
C1366 C1378 1.349 . S
C1367 C1365 1.327 . S
C1367 C1383 1.429 . S
C1367 H1389 0.950 . S
C1368 H1364 0.949 . S
C1368 C1376 1.574 . S
C1368 C1384 1.368 . S
H1369 C1377 0.950 . S
H1370 C1375 0.950 . S
H1371 C1376 0.949 . S
H1372 C1378 0.950 . S
H1373 C1379 0.950 . S
H1374 C1380 0.949 . S
C1375 H1370 0.950 . S
C1375 C1377 1.327 . S
C1375 C1381 1.429 . S
C1376 C1368 1.574 . S
C1376 H1371 0.949 . S
C1376 C1382 1.368 . S
C1377 C1361 1.349 . S
C1377 H1369 0.950 . S
C1377 C1375 1.327 . S
C1378 C1366 1.349 . S
C1378 H1372 0.950 . S
C1378 C1379 1.327 . S
C1379 H1373 0.950 . S
C1379 C1378 1.327 . S
C1379 C1383 1.429 . S
C1380 C1363 1.574 . S
C1380 H1374 0.949 . S
C1380 C1384 1.368 . S
C1381 C1362 1.429 . S
C1381 C1375 1.429 . S
C1381 C1382 1.523 . S
C1382 C1363 1.368 . S
C1382 C1376 1.368 . S
C1382 C1381 1.523 . S
C1383 C1367 1.429 . S
C1383 C1379 1.429 . S
C1383 C1384 1.523 . S
C1384 C1368 1.368 . S
C1384 C1380 1.368 . S
C1384 C1383 1.523 . S
H1385 C1360 0.950 . S
H1386 C1362 0.950 . S
H1387 C1363 0.949 . S
H1388 C1365 0.950 . S
H1389 C1367 0.950 . S
C1390 C1391 1.349 . S
C1390 C1392 1.327 . S
C1390 H1415 0.950 . S
C1391 C1390 1.349 . S
C1391 C1407 1.349 . S
C1392 C1390 1.327 . S
C1392 C1411 1.429 . S
C1392 H1416 0.950 . S
C1393 C1410 1.574 . S
C1393 C1412 1.368 . S
C1393 H1417 0.949 . S
H1394 C1398 0.949 . S
C1395 C1396 1.349 . S
C1395 C1397 1.327 . S
C1395 H1418 0.950 . S
C1396 C1395 1.349 . S
C1396 C1408 1.349 . S
C1397 C1395 1.327 . S
C1397 C1413 1.429 . S
C1397 H1419 0.950 . S
C1398 H1394 0.949 . S
C1398 C1406 1.574 . S
C1398 C1414 1.368 . S
H1399 C1407 0.950 . S
H1400 C1405 0.950 . S
H1401 C1406 0.949 . S
H1402 C1408 0.963 . S
H1403 C1409 0.950 . S
H1404 C1410 0.949 . S
C1405 H1400 0.950 . S
C1405 C1407 1.327 . S
C1405 C1411 1.429 . S
C1406 C1398 1.574 . S
C1406 H1401 0.949 . S
C1406 C1412 1.368 . S
C1407 C1391 1.349 . S
C1407 H1399 0.950 . S
C1407 C1405 1.327 . S
C1408 C1396 1.349 . S
C1408 H1402 0.963 . S
C1408 C1409 1.327 . S
C1409 H1403 0.950 . S
C1409 C1408 1.327 . S
C1409 C1413 1.429 . S
C1410 C1393 1.574 . S
C1410 H1404 0.949 . S
C1410 C1414 1.368 . S
C1411 C1392 1.429 . S
C1411 C1405 1.429 . S
C1411 C1412 1.523 . S
C1412 C1393 1.368 . S
C1412 C1406 1.368 . S
C1412 C1411 1.523 . S
C1413 C1397 1.429 . S
C1413 C1409 1.429 . S
C1413 C1414 1.523 . S
C1414 C1398 1.368 . S
C1414 C1410 1.368 . S
C1414 C1413 1.523 . S
H1415 C1390 0.950 . S
H1416 C1392 0.950 . S
H1417 C1393 0.949 . S
H1418 C1395 0.950 . S
H1419 C1397 0.950 . S
C1420 C1421 1.349 . S
C1420 C1422 1.327 . S
C1420 H1445 0.950 . S
C1421 C1420 1.349 . S
C1421 C1437 1.349 . S
C1422 C1420 1.327 . S
C1422 C1441 1.429 . S
C1422 H1446 0.950 . S
C1423 C1440 1.574 . S
C1423 C1442 1.368 . S
C1423 H1447 0.949 . S
H1424 C1428 0.949 . S
C1425 C1426 1.349 . S
C1425 C1427 1.327 . S
C1425 H1448 0.950 . S
C1426 C1425 1.349 . S
C1426 C1438 1.349 . S
C1427 C1425 1.327 . S
C1427 C1443 1.429 . S
C1427 H1449 0.950 . S
C1428 H1424 0.949 . S
C1428 C1436 1.574 . S
C1428 C1444 1.368 . S
H1429 C1437 0.950 . S
H1430 C1435 0.950 . S
H1431 C1436 0.949 . S
H1432 C1438 0.950 . S
H1433 C1439 0.950 . S
H1434 C1440 0.949 . S
C1435 H1430 0.950 . S
C1435 C1437 1.327 . S
C1435 C1441 1.429 . S
C1436 C1428 1.574 . S
C1436 H1431 0.949 . S
C1436 C1442 1.368 . S
C1437 C1421 1.349 . S
C1437 H1429 0.950 . S
C1437 C1435 1.327 . S
C1438 C1426 1.349 . S
C1438 H1432 0.950 . S
C1438 C1439 1.327 . S
C1439 H1433 0.950 . S
C1439 C1438 1.327 . S
C1439 C1443 1.429 . S
C1440 C1423 1.574 . S
C1440 H1434 0.949 . S
C1440 C1444 1.368 . S
C1441 C1422 1.429 . S
C1441 C1435 1.429 . S
C1441 C1442 1.523 . S
C1442 C1423 1.368 . S
C1442 C1436 1.368 . S
C1442 C1441 1.523 . S
C1443 C1427 1.429 . S
C1443 C1439 1.429 . S
C1443 C1444 1.523 . S
C1444 C1428 1.368 . S
C1444 C1440 1.368 . S
C1444 C1443 1.523 . S
H1445 C1420 0.950 . S
H1446 C1422 0.950 . S
H1447 C1423 0.949 . S
H1448 C1425 0.950 . S
H1449 C1427 0.950 . S
C1450 C1451 1.349 . S
C1450 C1452 1.327 . S
C1450 H1475 0.950 . S
C1451 C1450 1.349 . S
C1451 C1467 1.349 . S
C1452 C1450 1.327 . S
C1452 C1471 1.429 . S
C1452 H1476 0.950 . S
C1453 C1470 1.574 . S
C1453 C1472 1.368 . S
C1453 H1477 0.949 . S
H1454 C1458 0.949 . S
C1455 C1456 1.349 . S
C1455 C1457 1.327 . S
C1455 H1478 0.950 . S
C1456 C1455 1.349 . S
C1456 C1468 1.349 . S
C1457 C1455 1.327 . S
C1457 C1473 1.429 . S
C1457 H1479 0.950 . S
C1458 H1454 0.949 . S
C1458 C1466 1.574 . S
C1458 C1474 1.368 . S
H1459 C1467 0.950 . S
H1460 C1465 0.950 . S
H1461 C1466 0.949 . S
H1462 C1468 0.950 . S
H1463 C1469 0.950 . S
H1464 C1470 0.949 . S
C1465 H1460 0.950 . S
C1465 C1467 1.327 . S
C1465 C1471 1.429 . S
C1466 C1458 1.574 . S
C1466 H1461 0.949 . S
C1466 C1472 1.368 . S
C1467 C1451 1.349 . S
C1467 H1459 0.950 . S
C1467 C1465 1.327 . S
C1468 C1456 1.349 . S
C1468 H1462 0.950 . S
C1468 C1469 1.327 . S
C1469 H1463 0.950 . S
C1469 C1468 1.327 . S
C1469 C1473 1.429 . S
C1470 C1453 1.574 . S
C1470 H1464 0.949 . S
C1470 C1474 1.368 . S
C1471 C1452 1.429 . S
C1471 C1465 1.429 . S
C1471 C1472 1.523 . S
C1472 C1453 1.368 . S
C1472 C1466 1.368 . S
C1472 C1471 1.523 . S
C1473 C1457 1.429 . S
C1473 C1469 1.429 . S
C1473 C1474 1.523 . S
C1474 C1458 1.368 . S
C1474 C1470 1.368 . S
C1474 C1473 1.523 . S
H1475 C1450 0.950 . S
H1476 C1452 0.950 . S
H1477 C1453 0.949 . S
H1478 C1455 0.950 . S
H1479 C1457 0.950 . S
C1480 C1481 1.349 . S
C1480 C1482 1.327 . S
C1480 H1505 0.950 . S
C1481 C1480 1.349 . S
C1481 C1497 1.349 . S
C1482 C1480 1.327 . S
C1482 C1501 1.429 . S
C1482 H1506 0.950 . S
C1483 C1500 1.574 . S
C1483 C1502 1.368 . S
C1483 H1507 0.949 . S
H1484 C1488 0.949 . S
C1485 C1486 1.349 . S
C1485 C1487 1.327 . S
C1485 H1508 0.950 . S
C1486 C1485 1.349 . S
C1486 C1498 1.349 . S
C1487 C1485 1.327 . S
C1487 C1503 1.429 . S
C1487 H1509 0.950 . S
C1488 H1484 0.949 . S
C1488 C1496 1.574 . S
C1488 C1504 1.368 . S
H1489 C1497 0.950 . S
H1490 C1495 0.950 . S
H1491 C1496 0.949 . S
H1492 C1498 0.950 . S
H1493 C1499 0.950 . S
H1494 C1500 0.949 . S
C1495 H1490 0.950 . S
C1495 C1497 1.327 . S
C1495 C1501 1.429 . S
C1496 C1488 1.574 . S
C1496 H1491 0.949 . S
C1496 C1502 1.368 . S
C1497 C1481 1.349 . S
C1497 H1489 0.950 . S
C1497 C1495 1.327 . S
C1498 C1486 1.349 . S
C1498 H1492 0.950 . S
C1498 C1499 1.327 . S
C1499 H1493 0.950 . S
C1499 C1498 1.327 . S
C1499 C1503 1.429 . S
C1500 C1483 1.574 . S
C1500 H1494 0.949 . S
C1500 C1504 1.368 . S
C1501 C1482 1.429 . S
C1501 C1495 1.429 . S
C1501 C1502 1.523 . S
C1502 C1483 1.368 . S
C1502 C1496 1.368 . S
C1502 C1501 1.523 . S
C1503 C1487 1.429 . S
C1503 C1499 1.429 . S
C1503 C1504 1.523 . S
C1504 C1488 1.368 . S
C1504 C1500 1.368 . S
C1504 C1503 1.523 . S
H1505 C1480 0.950 . S
H1506 C1482 0.950 . S
H1507 C1483 0.949 . S
H1508 C1485 0.950 . S
H1509 C1487 0.950 . S
C1510 C1511 1.349 . S
C1510 C1512 1.327 . S
C1510 H1535 0.950 . S
C1511 C1510 1.349 . S
C1511 C1527 1.349 . S
C1512 C1510 1.327 . S
C1512 C1531 1.429 . S
C1512 H1536 0.950 . S
C1513 C1530 1.574 . S
C1513 C1532 1.368 . S
C1513 H1537 0.949 . S
H1514 C1518 0.949 . S
C1515 C1516 1.349 . S
C1515 C1517 1.327 . S
C1515 H1538 0.950 . S
C1516 C1515 1.349 . S
C1516 C1528 1.349 . S
C1517 C1515 1.327 . S
C1517 C1533 1.429 . S
C1517 H1539 0.950 . S
C1518 H1514 0.949 . S
C1518 C1526 1.574 . S
C1518 C1534 1.368 . S
H1519 C1527 0.950 . S
H1520 C1525 0.950 . S
H1521 C1526 0.949 . S
H1522 C1528 0.950 1_554 S
H1523 C1529 0.950 . S
H1524 C1530 0.949 . S
C1525 H1520 0.950 . S
C1525 C1527 1.327 . S
C1525 C1531 1.429 . S
C1526 C1518 1.574 . S
C1526 H1521 0.949 . S
C1526 C1532 1.368 . S
C1527 C1511 1.349 . S
C1527 H1519 0.950 . S
C1527 C1525 1.327 . S
C1528 C1516 1.349 . S
C1528 H1522 0.950 1_556 S
C1528 C1529 1.327 . S
C1529 H1523 0.950 . S
C1529 C1528 1.327 . S
C1529 C1533 1.429 . S
C1530 C1513 1.574 . S
C1530 H1524 0.949 . S
C1530 C1534 1.368 . S
C1531 C1512 1.429 . S
C1531 C1525 1.429 . S
C1531 C1532 1.523 . S
C1532 C1513 1.368 . S
C1532 C1526 1.368 . S
C1532 C1531 1.523 . S
C1533 C1517 1.429 . S
C1533 C1529 1.429 . S
C1533 C1534 1.523 . S
C1534 C1518 1.368 . S
C1534 C1530 1.368 . S
C1534 C1533 1.523 . S
H1535 C1510 0.950 . S
H1536 C1512 0.950 . S
H1537 C1513 0.949 . S
H1538 C1515 0.950 . S
H1539 C1517 0.950 . S
C1540 C1541 1.349 . S
C1540 C1542 1.327 . S
C1540 H1565 0.950 . S
C1541 C1540 1.349 . S
C1541 C1557 1.349 . S
C1542 C1540 1.327 . S
C1542 C1561 1.429 . S
C1542 H1566 0.950 . S
C1543 C1560 1.574 . S
C1543 C1562 1.368 . S
C1543 H1567 0.949 . S
H1544 C1548 0.949 . S
C1545 C1546 1.349 . S
C1545 C1547 1.327 . S
C1545 H1568 0.950 . S
C1546 C1545 1.349 . S
C1546 C1558 1.349 . S
C1547 C1545 1.327 . S
C1547 C1563 1.429 . S
C1547 H1569 0.950 . S
C1548 H1544 0.949 . S
C1548 C1556 1.574 . S
C1548 C1564 1.368 . S
H1549 C1557 0.950 . S
H1550 C1555 0.950 . S
H1551 C1556 0.949 . S
H1552 C1558 0.950 . S
H1553 C1559 0.950 . S
H1554 C1560 0.949 . S
C1555 H1550 0.950 . S
C1555 C1557 1.327 . S
C1555 C1561 1.429 . S
C1556 C1548 1.574 . S
C1556 H1551 0.949 . S
C1556 C1562 1.368 . S
C1557 C1541 1.349 . S
C1557 H1549 0.950 . S
C1557 C1555 1.327 . S
C1558 C1546 1.349 . S
C1558 H1552 0.950 . S
C1558 C1559 1.327 . S
C1559 H1553 0.950 . S
C1559 C1558 1.327 . S
C1559 C1563 1.429 . S
C1560 C1543 1.574 . S
C1560 H1554 0.949 . S
C1560 C1564 1.368 . S
C1561 C1542 1.429 . S
C1561 C1555 1.429 . S
C1561 C1562 1.523 . S
C1562 C1543 1.368 . S
C1562 C1556 1.368 . S
C1562 C1561 1.523 . S
C1563 C1547 1.429 . S
C1563 C1559 1.429 . S
C1563 C1564 1.523 . S
C1564 C1548 1.368 . S
C1564 C1560 1.368 . S
C1564 C1563 1.523 . S
H1565 C1540 0.950 . S
H1566 C1542 0.950 . S
H1567 C1543 0.949 . S
H1568 C1545 0.950 . S
H1569 C1547 0.950 . S
C1570 C1571 1.349 . S
C1570 C1572 1.327 . S
C1570 H1595 0.950 . S
C1571 C1570 1.349 . S
C1571 C1587 1.349 . S
C1572 C1570 1.327 . S
C1572 C1591 1.429 . S
C1572 H1596 0.950 . S
C1573 C1590 1.574 . S
C1573 C1592 1.368 . S
C1573 H1597 0.949 . S
H1574 C1578 0.949 . S
C1575 C1576 1.349 . S
C1575 C1577 1.327 . S
C1575 H1598 0.950 . S
C1576 C1575 1.349 . S
C1576 C1588 1.349 . S
C1577 C1575 1.327 . S
C1577 C1593 1.429 . S
C1577 H1599 0.950 . S
C1578 H1574 0.949 . S
C1578 C1586 1.574 . S
C1578 C1594 1.368 . S
H1579 C1587 0.950 . S
H1580 C1585 0.950 . S
H1581 C1586 0.949 . S
H1582 C1588 0.950 . S
H1583 C1589 0.950 . S
H1584 C1590 0.949 . S
C1585 H1580 0.950 . S
C1585 C1587 1.327 . S
C1585 C1591 1.429 . S
C1586 C1578 1.574 . S
C1586 H1581 0.949 . S
C1586 C1592 1.368 . S
C1587 C1571 1.349 . S
C1587 H1579 0.950 . S
C1587 C1585 1.327 . S
C1588 C1576 1.349 . S
C1588 H1582 0.950 . S
C1588 C1589 1.327 . S
C1589 H1583 0.950 . S
C1589 C1588 1.327 . S
C1589 C1593 1.429 . S
C1590 C1573 1.574 . S
C1590 H1584 0.949 . S
C1590 C1594 1.368 . S
C1591 C1572 1.429 . S
C1591 C1585 1.429 . S
C1591 C1592 1.523 . S
C1592 C1573 1.368 . S
C1592 C1586 1.368 . S
C1592 C1591 1.523 . S
C1593 C1577 1.429 . S
C1593 C1589 1.429 . S
C1593 C1594 1.523 . S
C1594 C1578 1.368 . S
C1594 C1590 1.368 . S
C1594 C1593 1.523 . S
H1595 C1570 0.950 . S
H1596 C1572 0.950 . S
H1597 C1573 0.949 . S
H1598 C1575 0.950 . S
H1599 C1577 0.950 . S
C1600 C1601 1.349 . S
C1600 C1602 1.327 . S
C1600 H1625 0.950 . S
C1601 C1600 1.349 . S
C1601 C1617 1.349 . S
C1602 C1600 1.327 . S
C1602 C1621 1.429 . S
C1602 H1626 0.950 . S
C1603 C1620 1.574 . S
C1603 C1622 1.368 . S
C1603 H1627 0.949 . S
H1604 C1608 0.949 . S
C1605 C1606 1.349 . S
C1605 C1607 1.327 . S
C1605 H1628 0.950 . S
C1606 C1605 1.349 . S
C1606 C1618 1.349 . S
C1607 C1605 1.327 . S
C1607 C1623 1.429 . S
C1607 H1629 0.950 . S
C1608 H1604 0.949 . S
C1608 C1616 1.574 . S
C1608 C1624 1.368 . S
H1609 C1617 0.950 . S
H1610 C1615 0.950 . S
H1611 C1616 0.949 . S
H1612 C1618 0.950 . S
H1613 C1619 0.950 . S
H1614 C1620 0.949 . S
C1615 H1610 0.950 . S
C1615 C1617 1.327 . S
C1615 C1621 1.429 . S
C1616 C1608 1.574 . S
C1616 H1611 0.949 . S
C1616 C1622 1.368 . S
C1617 C1601 1.349 . S
C1617 H1609 0.950 . S
C1617 C1615 1.327 . S
C1618 C1606 1.349 . S
C1618 H1612 0.950 . S
C1618 C1619 1.327 . S
C1619 H1613 0.950 . S
C1619 C1618 1.327 . S
C1619 C1623 1.429 . S
C1620 C1603 1.574 . S
C1620 H1614 0.949 . S
C1620 C1624 1.368 . S
C1621 C1602 1.429 . S
C1621 C1615 1.429 . S
C1621 C1622 1.523 . S
C1622 C1603 1.368 . S
C1622 C1616 1.368 . S
C1622 C1621 1.523 . S
C1623 C1607 1.429 . S
C1623 C1619 1.429 . S
C1623 C1624 1.523 . S
C1624 C1608 1.368 . S
C1624 C1620 1.368 . S
C1624 C1623 1.523 . S
H1625 C1600 0.950 . S
H1626 C1602 0.950 . S
H1627 C1603 0.949 . S
H1628 C1605 0.950 . S
H1629 C1607 0.950 . S
C1630 C1631 1.349 . S
C1630 C1632 1.327 . S
C1630 H1655 0.950 . S
C1631 C1630 1.349 . S
C1631 C1647 1.349 . S
C1632 C1630 1.327 . S
C1632 C1651 1.429 . S
C1632 H1656 0.950 . S
C1633 C1650 1.574 . S
C1633 C1652 1.368 . S
C1633 H1657 0.949 . S
H1634 C1638 0.949 . S
C1635 C1636 1.349 . S
C1635 C1637 1.327 . S
C1635 H1658 0.950 . S
C1636 C1635 1.349 . S
C1636 C1648 1.349 . S
C1637 C1635 1.327 . S
C1637 C1653 1.429 . S
C1637 H1659 0.950 . S
C1638 H1634 0.949 . S
C1638 C1646 1.574 . S
C1638 C1654 1.368 . S
H1639 C1647 0.950 . S
H1640 C1645 0.950 . S
H1641 C1646 0.949 . S
H1642 C1648 0.950 . S
H1643 C1649 0.950 . S
H1644 C1650 0.949 1_655 S
C1645 H1640 0.950 . S
C1645 C1647 1.327 . S
C1645 C1651 1.429 . S
C1646 C1638 1.574 . S
C1646 H1641 0.949 . S
C1646 C1652 1.368 . S
C1647 C1631 1.349 . S
C1647 H1639 0.950 . S
C1647 C1645 1.327 . S
C1648 C1636 1.349 . S
C1648 H1642 0.950 . S
C1648 C1649 1.327 . S
C1649 H1643 0.950 . S
C1649 C1648 1.327 . S
C1649 C1653 1.429 . S
C1650 C1633 1.574 . S
C1650 H1644 0.949 1_455 S
C1650 C1654 1.368 . S
C1651 C1632 1.429 . S
C1651 C1645 1.429 . S
C1651 C1652 1.523 . S
C1652 C1633 1.368 . S
C1652 C1646 1.368 . S
C1652 C1651 1.523 . S
C1653 C1637 1.429 . S
C1653 C1649 1.429 . S
C1653 C1654 1.523 1_655 S
C1654 C1638 1.368 . S
C1654 C1650 1.368 . S
C1654 C1653 1.523 1_455 S
H1655 C1630 0.950 . S
H1656 C1632 0.950 . S
H1657 C1633 0.949 . S
H1658 C1635 0.950 . S
H1659 C1637 0.950 . S
C1660 C1661 1.349 . S
C1660 C1662 1.327 . S
C1660 H1685 0.950 . S
C1661 C1660 1.349 . S
C1661 C1677 1.349 . S
C1662 C1660 1.327 . S
C1662 C1681 1.429 . S
C1662 H1686 0.950 . S
C1663 C1680 1.574 . S
C1663 C1682 1.368 . S
C1663 H1687 0.949 . S
H1664 C1668 0.949 . S
C1665 C1666 1.349 . S
C1665 C1667 1.327 . S
C1665 H1688 0.950 . S
C1666 C1665 1.349 . S
C1666 C1678 1.349 . S
C1667 C1665 1.327 . S
C1667 C1683 1.429 . S
C1667 H1689 0.950 . S
C1668 H1664 0.949 . S
C1668 C1676 1.574 . S
C1668 C1684 1.368 . S
H1669 C1677 0.950 . S
H1670 C1675 0.950 . S
H1671 C1676 0.949 . S
H1672 C1678 0.950 . S
H1673 C1679 0.950 . S
H1674 C1680 0.949 . S
C1675 H1670 0.950 . S
C1675 C1677 1.327 . S
C1675 C1681 1.429 . S
C1676 C1668 1.574 . S
C1676 H1671 0.949 . S
C1676 C1682 1.368 . S
C1677 C1661 1.349 . S
C1677 H1669 0.950 . S
C1677 C1675 1.327 . S
C1678 C1666 1.349 . S
C1678 H1672 0.950 . S
C1678 C1679 1.327 . S
C1679 H1673 0.950 . S
C1679 C1678 1.327 . S
C1679 C1683 1.429 . S
C1680 C1663 1.574 . S
C1680 H1674 0.949 . S
C1680 C1684 1.368 . S
C1681 C1662 1.429 . S
C1681 C1675 1.429 . S
C1681 C1682 1.523 . S
C1682 C1663 1.368 . S
C1682 C1676 1.368 . S
C1682 C1681 1.523 . S
C1683 C1667 1.429 . S
C1683 C1679 1.429 . S
C1683 C1684 1.523 . S
C1684 C1668 1.368 . S
C1684 C1680 1.368 . S
C1684 C1683 1.523 . S
H1685 C1660 0.950 . S
H1686 C1662 0.950 . S
H1687 C1663 0.949 . S
H1688 C1665 0.950 . S
H1689 C1667 0.950 . S
C1690 C1691 1.349 . S
C1690 C1692 1.327 . S
C1690 H1715 0.950 . S
C1691 C1690 1.349 . S
C1691 C1707 1.349 . S
C1692 C1690 1.327 . S
C1692 C1711 1.429 . S
C1692 H1716 0.950 . S
C1693 C1710 1.574 . S
C1693 C1712 1.368 . S
C1693 H1717 0.949 . S
H1694 C1698 0.949 . S
C1695 C1696 1.349 . S
C1695 C1697 1.327 . S
C1695 H1718 0.950 . S
C1696 C1695 1.349 . S
C1696 C1708 1.349 . S
C1697 C1695 1.327 . S
C1697 C1713 1.429 . S
C1697 H1719 0.950 . S
C1698 H1694 0.949 . S
C1698 C1706 1.574 . S
C1698 C1714 1.368 . S
H1699 C1707 0.950 . S
H1700 C1705 0.950 . S
H1701 C1706 0.949 . S
H1702 C1708 0.950 . S
H1703 C1709 0.950 . S
H1704 C1710 0.949 . S
C1705 H1700 0.950 . S
C1705 C1707 1.327 . S
C1705 C1711 1.429 . S
C1706 C1698 1.574 . S
C1706 H1701 0.949 . S
C1706 C1712 1.368 . S
C1707 C1691 1.349 . S
C1707 H1699 0.950 . S
C1707 C1705 1.327 . S
C1708 C1696 1.349 . S
C1708 H1702 0.950 . S
C1708 C1709 1.327 . S
C1709 H1703 0.950 . S
C1709 C1708 1.327 . S
C1709 C1713 1.429 . S
C1710 C1693 1.574 . S
C1710 H1704 0.949 . S
C1710 C1714 1.368 . S
C1711 C1692 1.429 . S
C1711 C1705 1.429 . S
C1711 C1712 1.523 . S
C1712 C1693 1.368 . S
C1712 C1706 1.368 . S
C1712 C1711 1.523 . S
C1713 C1697 1.429 . S
C1713 C1709 1.429 . S
C1713 C1714 1.523 . S
C1714 C1698 1.368 . S
C1714 C1710 1.368 . S
C1714 C1713 1.523 . S
H1715 C1690 0.950 . S
H1716 C1692 0.950 . S
H1717 C1693 0.949 . S
H1718 C1695 0.950 . S
H1719 C1697 0.950 . S
C1720 C1721 1.349 . S
C1720 C1722 1.327 . S
C1720 H1745 0.950 . S
C1721 C1720 1.349 . S
C1721 C1737 1.349 . S
C1722 C1720 1.327 . S
C1722 C1741 1.429 . S
C1722 H1746 0.950 . S
C1723 C1740 1.574 . S
C1723 C1742 1.368 . S
C1723 H1747 0.949 . S
H1724 C1728 0.949 . S
C1725 C1726 1.349 . S
C1725 C1727 1.327 . S
C1725 H1748 0.950 . S
C1726 C1725 1.349 . S
C1726 C1738 1.349 . S
C1727 C1725 1.327 . S
C1727 C1743 1.429 . S
C1727 H1749 0.950 . S
C1728 H1724 0.949 . S
C1728 C1736 1.574 . S
C1728 C1744 1.368 . S
H1729 C1737 0.950 . S
H1730 C1735 0.950 . S
H1731 C1736 0.949 . S
H1732 C1738 0.950 . S
H1733 C1739 0.950 . S
H1734 C1740 0.949 . S
C1735 H1730 0.950 . S
C1735 C1737 1.327 . S
C1735 C1741 1.429 . S
C1736 C1728 1.574 . S
C1736 H1731 0.949 . S
C1736 C1742 1.368 . S
C1737 C1721 1.349 . S
C1737 H1729 0.950 . S
C1737 C1735 1.327 . S
C1738 C1726 1.349 . S
C1738 H1732 0.950 . S
C1738 C1739 1.327 . S
C1739 H1733 0.950 . S
C1739 C1738 1.327 . S
C1739 C1743 1.429 . S
C1740 C1723 1.574 . S
C1740 H1734 0.949 . S
C1740 C1744 1.368 . S
C1741 C1722 1.429 . S
C1741 C1735 1.429 . S
C1741 C1742 1.523 . S
C1742 C1723 1.368 . S
C1742 C1736 1.368 . S
C1742 C1741 1.523 . S
C1743 C1727 1.429 . S
C1743 C1739 1.429 . S
C1743 C1744 1.523 . S
C1744 C1728 1.368 . S
C1744 C1740 1.368 . S
C1744 C1743 1.523 . S
H1745 C1720 0.950 . S
H1746 C1722 0.950 . S
H1747 C1723 0.949 . S
H1748 C1725 0.950 . S
H1749 C1727 0.950 . S
C1750 C1751 1.349 . S
C1750 C1752 1.327 . S
C1750 H1775 0.950 . S
C1751 C1750 1.349 . S
C1751 C1767 1.349 . S
C1752 C1750 1.327 . S
C1752 C1771 1.429 . S
C1752 H1776 0.950 . S
C1753 C1770 1.574 . S
C1753 C1772 1.368 . S
C1753 H1777 0.949 . S
H1754 C1758 0.949 . S
C1755 C1756 1.349 . S
C1755 C1757 1.327 . S
C1755 H1778 0.950 . S
C1756 C1755 1.349 . S
C1756 C1768 1.349 . S
C1757 C1755 1.327 . S
C1757 C1773 1.429 . S
C1757 H1779 0.950 . S
C1758 H1754 0.949 . S
C1758 C1766 1.574 . S
C1758 C1774 1.368 . S
H1759 C1767 0.950 . S
H1760 C1765 0.950 . S
H1761 C1766 0.949 . S
H1762 C1768 0.950 . S
H1763 C1769 0.950 . S
H1764 C1770 0.949 . S
C1765 H1760 0.950 . S
C1765 C1767 1.327 . S
C1765 C1771 1.429 . S
C1766 C1758 1.574 . S
C1766 H1761 0.949 . S
C1766 C1772 1.368 . S
C1767 C1751 1.349 . S
C1767 H1759 0.950 . S
C1767 C1765 1.327 . S
C1768 C1756 1.349 . S
C1768 H1762 0.950 . S
C1768 C1769 1.327 . S
C1769 H1763 0.950 . S
C1769 C1768 1.327 . S
C1769 C1773 1.429 . S
C1770 C1753 1.574 . S
C1770 H1764 0.949 . S
C1770 C1774 1.368 . S
C1771 C1752 1.429 . S
C1771 C1765 1.429 . S
C1771 C1772 1.523 . S
C1772 C1753 1.368 . S
C1772 C1766 1.368 . S
C1772 C1771 1.523 . S
C1773 C1757 1.429 . S
C1773 C1769 1.429 . S
C1773 C1774 1.523 . S
C1774 C1758 1.368 . S
C1774 C1770 1.368 . S
C1774 C1773 1.523 . S
H1775 C1750 0.950 . S
H1776 C1752 0.950 . S
H1777 C1753 0.949 . S
H1778 C1755 0.950 . S
H1779 C1757 0.950 . S
C1780 C1781 1.349 . S
C1780 C1782 1.327 . S
C1780 H1805 0.950 . S
C1781 C1780 1.349 . S
C1781 C1797 1.349 . S
C1782 C1780 1.327 . S
C1782 C1801 1.429 . S
C1782 H1806 0.950 . S
C1783 C1800 1.574 . S
C1783 C1802 1.368 . S
C1783 H1807 0.949 . S
H1784 C1788 0.949 . S
C1785 C1786 1.349 . S
C1785 C1787 1.327 . S
C1785 H1808 0.950 . S
C1786 C1785 1.349 . S
C1786 C1798 1.349 . S
C1787 C1785 1.327 . S
C1787 C1803 1.429 . S
C1787 H1809 0.950 . S
C1788 H1784 0.949 . S
C1788 C1796 1.574 . S
C1788 C1804 1.368 . S
H1789 C1797 0.950 . S
H1790 C1795 0.950 . S
H1791 C1796 0.949 . S
H1792 C1798 0.950 . S
H1793 C1799 0.950 . S
H1794 C1800 0.949 . S
C1795 H1790 0.950 . S
C1795 C1797 1.327 . S
C1795 C1801 1.429 . S
C1796 C1788 1.574 . S
C1796 H1791 0.949 . S
C1796 C1802 1.368 . S
C1797 C1781 1.349 . S
C1797 H1789 0.950 . S
C1797 C1795 1.327 . S
C1798 C1786 1.349 . S
C1798 H1792 0.950 . S
C1798 C1799 1.327 . S
C1799 H1793 0.950 . S
C1799 C1798 1.327 . S
C1799 C1803 1.429 . S
C1800 C1783 1.574 . S
C1800 H1794 0.949 . S
C1800 C1804 1.368 . S
C1801 C1782 1.429 . S
C1801 C1795 1.429 . S
C1801 C1802 1.523 . S
C1802 C1783 1.368 . S
C1802 C1796 1.368 . S
C1802 C1801 1.523 . S
C1803 C1787 1.429 . S
C1803 C1799 1.429 . S
C1803 C1804 1.523 . S
C1804 C1788 1.368 . S
C1804 C1800 1.368 . S
C1804 C1803 1.523 . S
H1805 C1780 0.950 . S
H1806 C1782 0.950 . S
H1807 C1783 0.949 . S
H1808 C1785 0.950 . S
H1809 C1787 0.950 . S
C1810 C1811 1.349 . S
C1810 C1812 1.327 . S
C1810 H1835 0.950 . S
C1811 C1810 1.349 . S
C1811 C1827 1.349 . S
C1812 C1810 1.327 . S
C1812 C1831 1.429 . S
C1812 H1836 0.950 . S
C1813 C1830 1.574 . S
C1813 C1832 1.368 . S
C1813 H1837 0.949 . S
H1814 C1818 0.949 . S
C1815 C1816 1.349 . S
C1815 C1817 1.327 . S
C1815 H1838 0.950 . S
C1816 C1815 1.349 . S
C1816 C1828 1.349 . S
C1817 C1815 1.327 . S
C1817 C1833 1.429 . S
C1817 H1839 0.950 . S
C1818 H1814 0.949 . S
C1818 C1826 1.574 . S
C1818 C1834 1.368 . S
H1819 C1827 0.950 . S
H1820 C1825 0.950 . S
H1821 C1826 0.949 . S
H1822 C1828 0.950 . S
H1823 C1829 0.950 . S
H1824 C1830 0.949 . S
C1825 H1820 0.950 . S
C1825 C1827 1.327 . S
C1825 C1831 1.429 . S
C1826 C1818 1.574 . S
C1826 H1821 0.949 . S
C1826 C1832 1.368 . S
C1827 C1811 1.349 . S
C1827 H1819 0.950 . S
C1827 C1825 1.327 . S
C1828 C1816 1.349 . S
C1828 H1822 0.950 . S
C1828 C1829 1.327 . S
C1829 H1823 0.950 . S
C1829 C1828 1.327 . S
C1829 C1833 1.429 . S
C1830 C1813 1.574 . S
C1830 H1824 0.949 . S
C1830 C1834 1.368 . S
C1831 C1812 1.429 . S
C1831 C1825 1.429 . S
C1831 C1832 1.523 . S
C1832 C1813 1.368 . S
C1832 C1826 1.368 . S
C1832 C1831 1.523 . S
C1833 C1817 1.429 . S
C1833 C1829 1.429 . S
C1833 C1834 1.523 1_655 S
C1834 C1818 1.368 . S
C1834 C1830 1.368 . S
C1834 C1833 1.523 1_455 S
H1835 C1810 0.950 . S
H1836 C1812 0.950 . S
H1837 C1813 0.949 . S
H1838 C1815 0.950 . S
H1839 C1817 0.950 . S
C1840 C1841 1.349 . S
C1840 C1842 1.327 . S
C1840 H1865 0.950 . S
C1841 C1840 1.349 . S
C1841 C1857 1.349 . S
C1842 C1840 1.327 . S
C1842 C1861 1.429 . S
C1842 H1866 0.950 . S
C1843 C1860 1.574 . S
C1843 C1862 1.368 . S
C1843 H1867 0.949 . S
H1844 C1848 0.949 . S
C1845 C1846 1.349 . S
C1845 C1847 1.327 . S
C1845 H1868 0.950 . S
C1846 C1845 1.349 . S
C1846 C1858 1.349 . S
C1847 C1845 1.327 . S
C1847 C1863 1.429 . S
C1847 H1869 0.950 . S
C1848 H1844 0.949 . S
C1848 C1856 1.574 . S
C1848 C1864 1.368 . S
H1849 C1857 0.950 . S
H1850 C1855 0.950 . S
H1851 C1856 0.949 . S
H1852 C1858 0.950 . S
H1853 C1859 0.950 . S
H1854 C1860 0.949 . S
C1855 H1850 0.950 . S
C1855 C1857 1.327 . S
C1855 C1861 1.429 . S
C1856 C1848 1.574 . S
C1856 H1851 0.949 . S
C1856 C1862 1.368 . S
C1857 C1841 1.349 . S
C1857 H1849 0.950 . S
C1857 C1855 1.327 . S
C1858 C1846 1.349 . S
C1858 H1852 0.950 . S
C1858 C1859 1.327 . S
C1859 H1853 0.950 . S
C1859 C1858 1.327 . S
C1859 C1863 1.429 . S
C1860 C1843 1.574 . S
C1860 H1854 0.949 . S
C1860 C1864 1.368 . S
C1861 C1842 1.429 . S
C1861 C1855 1.429 . S
C1861 C1862 1.523 . S
C1862 C1843 1.368 . S
C1862 C1856 1.368 . S
C1862 C1861 1.523 . S
C1863 C1847 1.429 . S
C1863 C1859 1.429 . S
C1863 C1864 1.523 . S
C1864 C1848 1.368 . S
C1864 C1860 1.368 . S
C1864 C1863 1.523 . S
H1865 C1840 0.950 . S
H1866 C1842 0.950 . S
H1867 C1843 0.949 . S
H1868 C1845 0.950 . S
H1869 C1847 0.950 . S
C1870 C1871 1.349 . S
C1870 C1872 1.327 . S
C1870 H1895 0.950 . S
C1871 C1870 1.349 . S
C1871 C1887 1.349 . S
C1872 C1870 1.327 . S
C1872 C1891 1.429 . S
C1872 H1896 0.950 . S
C1873 C1890 1.574 . S
C1873 C1892 1.368 . S
C1873 H1897 0.949 1_655 S
H1874 C1878 0.949 . S
C1875 C1876 1.349 . S
C1875 C1877 1.327 . S
C1875 H1898 0.950 . S
C1876 C1875 1.349 . S
C1876 C1888 1.349 . S
C1877 C1875 1.327 . S
C1877 C1893 1.429 . S
C1877 H1899 0.950 . S
C1878 H1874 0.949 . S
C1878 C1886 1.574 . S
C1878 C1894 1.368 . S
H1879 C1887 0.950 . S
H1880 C1885 0.950 . S
H1881 C1886 0.949 . S
H1882 C1888 0.950 . S
H1883 C1889 0.950 . S
H1884 C1890 0.949 . S
C1885 H1880 0.950 . S
C1885 C1887 1.327 . S
C1885 C1891 1.429 . S
C1886 C1878 1.574 . S
C1886 H1881 0.949 . S
C1886 C1892 1.368 . S
C1887 C1871 1.349 . S
C1887 H1879 0.950 . S
C1887 C1885 1.327 . S
C1888 C1876 1.349 . S
C1888 H1882 0.950 . S
C1888 C1889 1.327 . S
C1889 H1883 0.950 . S
C1889 C1888 1.327 . S
C1889 C1893 1.429 . S
C1890 C1873 1.574 . S
C1890 H1884 0.949 . S
C1890 C1894 1.368 . S
C1891 C1872 1.429 . S
C1891 C1885 1.429 . S
C1891 C1892 1.523 1_455 S
C1892 C1873 1.368 . S
C1892 C1886 1.368 . S
C1892 C1891 1.523 1_655 S
C1893 C1877 1.429 . S
C1893 C1889 1.429 . S
C1893 C1894 1.523 . S
C1894 C1878 1.368 . S
C1894 C1890 1.368 . S
C1894 C1893 1.523 . S
H1895 C1870 0.950 . S
H1896 C1872 0.950 . S
H1897 C1873 0.949 1_455 S
H1898 C1875 0.950 . S
H1899 C1877 0.950 . S
C1900 C1901 1.349 . S
C1900 C1902 1.327 . S
C1900 H1925 0.950 . S
C1901 C1900 1.349 . S
C1901 C1917 1.349 . S
C1902 C1900 1.327 . S
C1902 C1921 1.429 . S
C1902 H1926 0.950 . S
C1903 C1920 1.574 . S
C1903 C1922 1.368 . S
C1903 H1927 0.949 . S
H1904 C1908 0.949 . S
C1905 C1906 1.349 . S
C1905 C1907 1.327 . S
C1905 H1928 0.950 . S
C1906 C1905 1.349 . S
C1906 C1918 1.349 . S
C1907 C1905 1.327 . S
C1907 C1923 1.429 . S
C1907 H1929 0.950 . S
C1908 H1904 0.949 . S
C1908 C1916 1.574 . S
C1908 C1924 1.368 . S
H1909 C1917 0.950 . S
H1910 C1915 0.950 . S
H1911 C1916 0.949 . S
H1912 C1918 0.950 . S
H1913 C1919 0.950 . S
H1914 C1920 0.949 . S
C1915 H1910 0.950 . S
C1915 C1917 1.327 . S
C1915 C1921 1.429 . S
C1916 C1908 1.574 . S
C1916 H1911 0.949 . S
C1916 C1922 1.368 . S
C1917 C1901 1.349 . S
C1917 H1909 0.950 . S
C1917 C1915 1.327 . S
C1918 C1906 1.349 . S
C1918 H1912 0.950 . S
C1918 C1919 1.327 . S
C1919 H1913 0.950 . S
C1919 C1918 1.327 . S
C1919 C1923 1.429 . S
C1920 C1903 1.574 . S
C1920 H1914 0.949 . S
C1920 C1924 1.368 . S
C1921 C1902 1.429 . S
C1921 C1915 1.429 . S
C1921 C1922 1.523 . S
C1922 C1903 1.368 . S
C1922 C1916 1.368 . S
C1922 C1921 1.523 . S
C1923 C1907 1.429 . S
C1923 C1919 1.429 . S
C1923 C1924 1.523 . S
C1924 C1908 1.368 . S
C1924 C1920 1.368 . S
C1924 C1923 1.523 . S
H1925 C1900 0.950 . S
H1926 C1902 0.950 . S
H1927 C1903 0.949 . S
H1928 C1905 0.950 . S
H1929 C1907 0.950 . S
C1930 C1931 1.349 . S
C1930 C1932 1.327 . S
C1930 H1955 0.950 . S
C1931 C1930 1.349 . S
C1931 C1947 1.349 . S
C1932 C1930 1.327 . S
C1932 C1951 1.429 . S
C1932 H1956 0.950 . S
C1933 C1950 1.574 . S
C1933 C1952 1.368 . S
C1933 H1957 0.949 . S
H1934 C1938 0.949 . S
C1935 C1936 1.349 . S
C1935 C1937 1.327 . S
C1935 H1958 0.950 . S
C1936 C1935 1.349 . S
C1936 C1948 1.349 . S
C1937 C1935 1.327 . S
C1937 C1953 1.429 . S
C1937 H1959 0.950 . S
C1938 H1934 0.949 . S
C1938 C1946 1.574 . S
C1938 C1954 1.368 . S
H1939 C1947 0.950 . S
H1940 C1945 0.950 . S
H1941 C1946 0.949 . S
H1942 C1948 0.950 . S
H1943 C1949 0.950 . S
H1944 C1950 0.949 . S
C1945 H1940 0.950 . S
C1945 C1947 1.327 . S
C1945 C1951 1.429 . S
C1946 C1938 1.574 . S
C1946 H1941 0.949 . S
C1946 C1952 1.368 . S
C1947 C1931 1.349 . S
C1947 H1939 0.950 . S
C1947 C1945 1.327 . S
C1948 C1936 1.349 . S
C1948 H1942 0.950 . S
C1948 C1949 1.327 . S
C1949 H1943 0.950 . S
C1949 C1948 1.327 . S
C1949 C1953 1.429 . S
C1950 C1933 1.574 . S
C1950 H1944 0.949 . S
C1950 C1954 1.368 . S
C1951 C1932 1.429 . S
C1951 C1945 1.429 . S
C1951 C1952 1.523 . S
C1952 C1933 1.368 . S
C1952 C1946 1.368 . S
C1952 C1951 1.523 . S
C1953 C1937 1.429 . S
C1953 C1949 1.429 . S
C1953 C1954 1.523 . S
C1954 C1938 1.368 . S
C1954 C1950 1.368 . S
C1954 C1953 1.523 . S
H1955 C1930 0.950 . S
H1956 C1932 0.950 . S
H1957 C1933 0.949 . S
H1958 C1935 0.950 . S
H1959 C1937 0.950 . S
C1960 C1961 1.349 . S
C1960 C1962 1.327 . S
C1960 H1985 0.950 . S
C1961 C1960 1.349 . S
C1961 C1977 1.349 . S
C1962 C1960 1.327 . S
C1962 C1981 1.429 . S
C1962 H1986 0.950 . S
C1963 C1980 1.574 . S
C1963 C1982 1.368 . S
C1963 H1987 0.949 . S
H1964 C1968 0.949 . S
C1965 C1966 1.349 . S
C1965 C1967 1.327 . S
C1965 H1988 0.950 . S
C1966 C1965 1.349 . S
C1966 C1978 1.349 . S
C1967 C1965 1.327 . S
C1967 C1983 1.429 . S
C1967 H1989 0.950 . S
C1968 H1964 0.949 . S
C1968 C1976 1.574 . S
C1968 C1984 1.368 . S
H1969 C1977 0.950 . S
H1970 C1975 0.950 . S
H1971 C1976 0.949 . S
H1972 C1978 0.950 . S
H1973 C1979 0.950 . S
H1974 C1980 0.949 . S
C1975 H1970 0.950 . S
C1975 C1977 1.327 . S
C1975 C1981 1.429 . S
C1976 C1968 1.574 . S
C1976 H1971 0.949 . S
C1976 C1982 1.368 . S
C1977 C1961 1.349 . S
C1977 H1969 0.950 . S
C1977 C1975 1.327 . S
C1978 C1966 1.349 . S
C1978 H1972 0.950 . S
C1978 C1979 1.327 . S
C1979 H1973 0.950 . S
C1979 C1978 1.327 . S
C1979 C1983 1.429 . S
C1980 C1963 1.574 . S
C1980 H1974 0.949 . S
C1980 C1984 1.368 . S
C1981 C1962 1.429 . S
C1981 C1975 1.429 . S
C1981 C1982 1.523 . S
C1982 C1963 1.368 . S
C1982 C1976 1.368 . S
C1982 C1981 1.523 . S
C1983 C1967 1.429 . S
C1983 C1979 1.429 . S
C1983 C1984 1.523 . S
C1984 C1968 1.368 . S
C1984 C1980 1.368 . S
C1984 C1983 1.523 . S
H1985 C1960 0.950 . S
H1986 C1962 0.950 . S
H1987 C1963 0.949 . S
H1988 C1965 0.950 . S
H1989 C1967 0.950 . S
C1990 C1991 1.349 . S
C1990 C1992 1.327 . S
C1990 H2015 0.950 . S
C1991 C1990 1.349 . S
C1991 C2007 1.349 . S
C1992 C1990 1.327 . S
C1992 C2011 1.429 . S
C1992 H2016 0.950 . S
C1993 C2010 1.574 . S
C1993 C2012 1.368 . S
C1993 H2017 0.949 . S
H1994 C1998 0.949 . S
C1995 C1996 1.349 . S
C1995 C1997 1.327 . S
C1995 H2018 0.950 . S
C1996 C1995 1.349 . S
C1996 C2008 1.349 . S
C1997 C1995 1.327 . S
C1997 C2013 1.429 . S
C1997 H2019 0.950 . S
C1998 H1994 0.949 . S
C1998 C2006 1.574 . S
C1998 C2014 1.368 . S
H1999 C2007 0.950 . S
H2000 C2005 0.950 . S
H2001 C2006 0.949 . S
H2002 C2008 0.950 . S
H2003 C2009 0.950 . S
H2004 C2010 0.949 . S
C2005 H2000 0.950 . S
C2005 C2007 1.327 . S
C2005 C2011 1.429 . S
C2006 C1998 1.574 . S
C2006 H2001 0.949 . S
C2006 C2012 1.368 . S
C2007 C1991 1.349 . S
C2007 H1999 0.950 . S
C2007 C2005 1.327 . S
C2008 C1996 1.349 . S
C2008 H2002 0.950 . S
C2008 C2009 1.327 . S
C2009 H2003 0.950 . S
C2009 C2008 1.327 . S
C2009 C2013 1.429 . S
C2010 C1993 1.574 . S
C2010 H2004 0.949 . S
C2010 C2014 1.368 . S
C2011 C1992 1.429 . S
C2011 C2005 1.429 . S
C2011 C2012 1.523 . S
C2012 C1993 1.368 . S
C2012 C2006 1.368 . S
C2012 C2011 1.523 . S
C2013 C1997 1.429 . S
C2013 C2009 1.429 . S
C2013 C2014 1.523 . S
C2014 C1998 1.368 . S
C2014 C2010 1.368 . S
C2014 C2013 1.523 . S
H2015 C1990 0.950 . S
H2016 C1992 0.950 . S
H2017 C1993 0.949 . S
H2018 C1995 0.950 . S
H2019 C1997 0.950 . S
C2020 C2021 1.349 . S
C2020 C2022 1.327 . S
C2020 H2045 0.950 . S
C2021 C2020 1.349 . S
C2021 C2037 1.349 . S
C2022 C2020 1.327 . S
C2022 C2041 1.429 . S
C2022 H2046 0.950 . S
C2023 C2040 1.574 . S
C2023 C2042 1.368 . S
C2023 H2047 0.949 . S
H2024 C2028 0.949 . S
C2025 C2026 1.349 . S
C2025 C2027 1.327 . S
C2025 H2048 0.950 . S
C2026 C2025 1.349 . S
C2026 C2038 1.349 . S
C2027 C2025 1.327 . S
C2027 C2043 1.429 . S
C2027 H2049 0.950 . S
C2028 H2024 0.949 . S
C2028 C2036 1.574 . S
C2028 C2044 1.368 . S
H2029 C2037 0.950 . S
H2030 C2035 0.950 . S
H2031 C2036 0.949 . S
H2032 C2038 0.950 . S
H2033 C2039 0.950 . S
H2034 C2040 0.949 . S
C2035 H2030 0.950 . S
C2035 C2037 1.327 . S
C2035 C2041 1.429 . S
C2036 C2028 1.574 . S
C2036 H2031 0.949 . S
C2036 C2042 1.368 . S
C2037 C2021 1.349 . S
C2037 H2029 0.950 . S
C2037 C2035 1.327 . S
C2038 C2026 1.349 . S
C2038 H2032 0.950 . S
C2038 C2039 1.327 . S
C2039 H2033 0.950 . S
C2039 C2038 1.327 . S
C2039 C2043 1.429 . S
C2040 C2023 1.574 . S
C2040 H2034 0.949 . S
C2040 C2044 1.368 . S
C2041 C2022 1.429 . S
C2041 C2035 1.429 . S
C2041 C2042 1.523 . S
C2042 C2023 1.368 . S
C2042 C2036 1.368 . S
C2042 C2041 1.523 . S
C2043 C2027 1.429 . S
C2043 C2039 1.429 . S
C2043 C2044 1.523 . S
C2044 C2028 1.368 . S
C2044 C2040 1.368 . S
C2044 C2043 1.523 . S
H2045 C2020 0.950 . S
H2046 C2022 0.950 . S
H2047 C2023 0.949 . S
H2048 C2025 0.950 . S
H2049 C2027 0.950 . S
C2050 C2051 1.349 . S
C2050 C2052 1.327 . S
C2050 H2075 0.950 . S
C2051 C2050 1.349 . S
C2051 C2067 1.349 . S
C2052 C2050 1.327 . S
C2052 C2071 1.429 . S
C2052 H2076 0.950 . S
C2053 C2070 1.574 . S
C2053 C2072 1.368 . S
C2053 H2077 0.949 . S
H2054 C2058 0.949 1_455 S
C2055 C2056 1.349 . S
C2055 C2057 1.327 . S
C2055 H2078 0.950 . S
C2056 C2055 1.349 . S
C2056 C2068 1.349 . S
C2057 C2055 1.327 . S
C2057 C2073 1.429 . S
C2057 H2079 0.950 . S
C2058 H2054 0.949 1_655 S
C2058 C2066 1.574 . S
C2058 C2074 1.368 . S
H2059 C2067 0.950 . S
H2060 C2065 0.950 . S
H2061 C2066 0.949 . S
H2062 C2068 0.950 . S
H2063 C2069 0.950 . S
H2064 C2070 0.949 . S
C2065 H2060 0.950 . S
C2065 C2067 1.327 . S
C2065 C2071 1.429 . S
C2066 C2058 1.574 . S
C2066 H2061 0.949 . S
C2066 C2072 1.368 . S
C2067 C2051 1.349 . S
C2067 H2059 0.950 . S
C2067 C2065 1.327 . S
C2068 C2056 1.349 . S
C2068 H2062 0.950 . S
C2068 C2069 1.327 . S
C2069 H2063 0.950 . S
C2069 C2068 1.327 . S
C2069 C2073 1.429 . S
C2070 C2053 1.574 . S
C2070 H2064 0.949 . S
C2070 C2074 1.368 . S
C2071 C2052 1.429 . S
C2071 C2065 1.429 . S
C2071 C2072 1.523 . S
C2072 C2053 1.368 . S
C2072 C2066 1.368 . S
C2072 C2071 1.523 . S
C2073 C2057 1.429 . S
C2073 C2069 1.429 . S
C2073 C2074 1.523 1_455 S
C2074 C2058 1.368 . S
C2074 C2070 1.368 . S
C2074 C2073 1.523 1_655 S
H2075 C2050 0.950 . S
H2076 C2052 0.950 . S
H2077 C2053 0.949 . S
H2078 C2055 0.950 . S
H2079 C2057 0.950 . S
C2080 C2081 1.349 . S
C2080 C2082 1.327 . S
C2080 H2105 0.950 . S
C2081 C2080 1.349 . S
C2081 C2097 1.349 . S
C2082 C2080 1.327 . S
C2082 C2101 1.429 . S
C2082 H2106 0.950 . S
C2083 C2100 1.574 . S
C2083 C2102 1.368 . S
C2083 H2107 0.949 . S
H2084 C2088 0.949 . S
C2085 C2086 1.349 . S
C2085 C2087 1.327 . S
C2085 H2108 0.950 . S
C2086 C2085 1.349 . S
C2086 C2098 1.349 . S
C2087 C2085 1.327 . S
C2087 C2103 1.429 . S
C2087 H2109 0.950 . S
C2088 H2084 0.949 . S
C2088 C2096 1.574 . S
C2088 C2104 1.368 . S
H2089 C2097 0.950 . S
H2090 C2095 0.950 . S
H2091 C2096 0.949 . S
H2092 C2098 0.950 . S
H2093 C2099 0.950 . S
H2094 C2100 0.949 . S
C2095 H2090 0.950 . S
C2095 C2097 1.327 . S
C2095 C2101 1.429 . S
C2096 C2088 1.574 . S
C2096 H2091 0.949 . S
C2096 C2102 1.368 . S
C2097 C2081 1.349 . S
C2097 H2089 0.950 . S
C2097 C2095 1.327 . S
C2098 C2086 1.349 . S
C2098 H2092 0.950 . S
C2098 C2099 1.327 . S
C2099 H2093 0.950 . S
C2099 C2098 1.327 . S
C2099 C2103 1.429 . S
C2100 C2083 1.574 . S
C2100 H2094 0.949 . S
C2100 C2104 1.368 . S
C2101 C2082 1.429 . S
C2101 C2095 1.429 . S
C2101 C2102 1.523 . S
C2102 C2083 1.368 . S
C2102 C2096 1.368 . S
C2102 C2101 1.523 . S
C2103 C2087 1.429 . S
C2103 C2099 1.429 . S
C2103 C2104 1.523 . S
C2104 C2088 1.368 . S
C2104 C2100 1.368 . S
C2104 C2103 1.523 . S
H2105 C2080 0.950 . S
H2106 C2082 0.950 . S
H2107 C2083 0.949 . S
H2108 C2085 0.950 . S
H2109 C2087 0.950 . S
C2110 C2111 1.349 . S
C2110 C2112 1.327 . S
C2110 H2135 0.950 . S
C2111 C2110 1.349 . S
C2111 C2127 1.349 . S
C2112 C2110 1.327 . S
C2112 C2131 1.429 . S
C2112 H2136 0.950 . S
C2113 C2130 1.574 . S
C2113 C2132 1.368 . S
C2113 H2137 0.949 . S
H2114 C2118 0.949 . S
C2115 C2116 1.349 . S
C2115 C2117 1.327 . S
C2115 H2138 0.950 . S
C2116 C2115 1.349 . S
C2116 C2128 1.349 . S
C2117 C2115 1.327 . S
C2117 C2133 1.429 . S
C2117 H2139 0.950 . S
C2118 H2114 0.949 . S
C2118 C2126 1.574 . S
C2118 C2134 1.368 . S
H2119 C2127 0.950 . S
H2120 C2125 0.950 . S
H2121 C2126 0.949 . S
H2122 C2128 0.950 . S
H2123 C2129 0.950 . S
H2124 C2130 0.949 . S
C2125 H2120 0.950 . S
C2125 C2127 1.327 . S
C2125 C2131 1.429 . S
C2126 C2118 1.574 . S
C2126 H2121 0.949 . S
C2126 C2132 1.368 . S
C2127 C2111 1.349 . S
C2127 H2119 0.950 . S
C2127 C2125 1.327 . S
C2128 C2116 1.349 . S
C2128 H2122 0.950 . S
C2128 C2129 1.327 . S
C2129 H2123 0.950 . S
C2129 C2128 1.327 . S
C2129 C2133 1.429 . S
C2130 C2113 1.574 . S
C2130 H2124 0.949 . S
C2130 C2134 1.368 . S
C2131 C2112 1.429 . S
C2131 C2125 1.429 . S
C2131 C2132 1.523 . S
C2132 C2113 1.368 . S
C2132 C2126 1.368 . S
C2132 C2131 1.523 . S
C2133 C2117 1.429 . S
C2133 C2129 1.429 . S
C2133 C2134 1.523 . S
C2134 C2118 1.368 . S
C2134 C2130 1.368 . S
C2134 C2133 1.523 . S
H2135 C2110 0.950 . S
H2136 C2112 0.950 . S
H2137 C2113 0.949 . S
H2138 C2115 0.950 . S
H2139 C2117 0.950 . S
C2140 C2141 1.349 . S
C2140 C2142 1.327 . S
C2140 H2165 0.950 . S
C2141 C2140 1.349 . S
C2141 C2157 1.349 . S
C2142 C2140 1.327 . S
C2142 C2161 1.429 . S
C2142 H2166 0.950 . S
C2143 C2160 1.574 . S
C2143 C2162 1.368 . S
C2143 H2167 0.949 . S
H2144 C2148 0.949 . S
C2145 C2146 1.349 . S
C2145 C2147 1.327 . S
C2145 H2168 0.950 . S
C2146 C2145 1.349 . S
C2146 C2158 1.349 . S
C2147 C2145 1.327 . S
C2147 C2163 1.429 . S
C2147 H2169 0.950 . S
C2148 H2144 0.949 . S
C2148 C2156 1.574 . S
C2148 C2164 1.368 . S
H2149 C2157 0.950 . S
H2150 C2155 0.950 . S
H2151 C2156 0.949 . S
H2152 C2158 0.950 . S
H2153 C2159 0.950 . S
H2154 C2160 0.949 . S
C2155 H2150 0.950 . S
C2155 C2157 1.327 . S
C2155 C2161 1.429 . S
C2156 C2148 1.574 . S
C2156 H2151 0.949 . S
C2156 C2162 1.368 . S
C2157 C2141 1.349 . S
C2157 H2149 0.950 . S
C2157 C2155 1.327 . S
C2158 C2146 1.349 . S
C2158 H2152 0.950 . S
C2158 C2159 1.327 . S
C2159 H2153 0.950 . S
C2159 C2158 1.327 . S
C2159 C2163 1.429 . S
C2160 C2143 1.574 . S
C2160 H2154 0.949 . S
C2160 C2164 1.368 . S
C2161 C2142 1.429 . S
C2161 C2155 1.429 . S
C2161 C2162 1.523 . S
C2162 C2143 1.368 . S
C2162 C2156 1.368 . S
C2162 C2161 1.523 . S
C2163 C2147 1.429 . S
C2163 C2159 1.429 . S
C2163 C2164 1.523 . S
C2164 C2148 1.368 . S
C2164 C2160 1.368 . S
C2164 C2163 1.523 . S
H2165 C2140 0.950 . S
H2166 C2142 0.950 . S
H2167 C2143 0.949 . S
H2168 C2145 0.950 . S
H2169 C2147 0.950 . S
C2170 C2171 1.349 . S
C2170 C2172 1.327 . S
C2170 H2195 0.950 . S
C2171 C2170 1.349 . S
C2171 C2187 1.349 . S
C2172 C2170 1.327 . S
C2172 C2191 1.429 . S
C2172 H2196 0.950 . S
C2173 C2190 1.574 . S
C2173 C2192 1.368 . S
C2173 H2197 0.949 . S
H2174 C2178 0.949 . S
C2175 C2176 1.349 . S
C2175 C2177 1.327 . S
C2175 H2198 0.950 . S
C2176 C2175 1.349 . S
C2176 C2188 1.349 . S
C2177 C2175 1.327 . S
C2177 C2193 1.429 . S
C2177 H2199 0.950 . S
C2178 H2174 0.949 . S
C2178 C2186 1.574 . S
C2178 C2194 1.368 . S
H2179 C2187 0.950 . S
H2180 C2185 0.950 . S
H2181 C2186 0.949 . S
H2182 C2188 0.950 . S
H2183 C2189 0.950 . S
H2184 C2190 0.953 1_455 S
C2185 H2180 0.950 . S
C2185 C2187 1.327 . S
C2185 C2191 1.429 . S
C2186 C2178 1.574 . S
C2186 H2181 0.949 . S
C2186 C2192 1.368 . S
C2187 C2171 1.349 . S
C2187 H2179 0.950 . S
C2187 C2185 1.327 . S
C2188 C2176 1.349 . S
C2188 H2182 0.950 . S
C2188 C2189 1.327 . S
C2189 H2183 0.950 . S
C2189 C2188 1.327 . S
C2189 C2193 1.429 . S
C2190 C2173 1.574 . S
C2190 H2184 0.953 1_655 S
C2190 C2194 1.368 . S
C2191 C2172 1.429 . S
C2191 C2185 1.429 . S
C2191 C2192 1.523 . S
C2192 C2173 1.368 . S
C2192 C2186 1.368 . S
C2192 C2191 1.523 . S
C2193 C2177 1.429 . S
C2193 C2189 1.429 . S
C2193 C2194 1.523 1_455 S
C2194 C2178 1.368 . S
C2194 C2190 1.368 . S
C2194 C2193 1.523 1_655 S
H2195 C2170 0.950 . S
H2196 C2172 0.950 . S
H2197 C2173 0.949 . S
H2198 C2175 0.950 . S
H2199 C2177 0.950 . S
C2200 C2201 1.349 . S
C2200 C2202 1.327 . S
C2200 H2225 0.950 . S
C2201 C2200 1.349 . S
C2201 C2217 1.349 . S
C2202 C2200 1.327 . S
C2202 C2221 1.429 . S
C2202 H2226 0.950 . S
C2203 C2220 1.574 . S
C2203 C2222 1.368 . S
C2203 H2227 0.949 . S
H2204 C2208 0.949 . S
C2205 C2206 1.349 . S
C2205 C2207 1.327 . S
C2205 H2228 0.950 . S
C2206 C2205 1.349 . S
C2206 C2218 1.349 . S
C2207 C2205 1.327 . S
C2207 C2223 1.429 . S
C2207 H2229 0.950 . S
C2208 H2204 0.949 . S
C2208 C2216 1.574 . S
C2208 C2224 1.368 . S
H2209 C2217 0.950 . S
H2210 C2215 0.950 . S
H2211 C2216 0.949 . S
H2212 C2218 0.950 . S
H2213 C2219 0.950 . S
H2214 C2220 0.949 . S
C2215 H2210 0.950 . S
C2215 C2217 1.327 . S
C2215 C2221 1.429 . S
C2216 C2208 1.574 . S
C2216 H2211 0.949 . S
C2216 C2222 1.368 . S
C2217 C2201 1.349 . S
C2217 H2209 0.950 . S
C2217 C2215 1.327 . S
C2218 C2206 1.349 . S
C2218 H2212 0.950 . S
C2218 C2219 1.327 . S
C2219 H2213 0.950 . S
C2219 C2218 1.327 . S
C2219 C2223 1.429 . S
C2220 C2203 1.574 . S
C2220 H2214 0.949 . S
C2220 C2224 1.368 . S
C2221 C2202 1.429 . S
C2221 C2215 1.429 . S
C2221 C2222 1.523 . S
C2222 C2203 1.368 . S
C2222 C2216 1.368 . S
C2222 C2221 1.523 . S
C2223 C2207 1.429 . S
C2223 C2219 1.429 . S
C2223 C2224 1.523 . S
C2224 C2208 1.368 . S
C2224 C2220 1.368 . S
C2224 C2223 1.523 . S
H2225 C2200 0.950 . S
H2226 C2202 0.950 . S
H2227 C2203 0.949 . S
H2228 C2205 0.950 . S
H2229 C2207 0.950 . S
C2230 C2231 1.349 . S
C2230 C2232 1.327 . S
C2230 H2255 0.950 . S
C2231 C2230 1.349 . S
C2231 C2247 1.349 . S
C2232 C2230 1.327 . S
C2232 C2251 1.429 . S
C2232 H2256 0.950 . S
C2233 C2250 1.574 . S
C2233 C2252 1.368 . S
C2233 H2257 0.949 . S
H2234 C2238 0.949 1_455 S
C2235 C2236 1.349 . S
C2235 C2237 1.327 . S
C2235 H2258 0.950 . S
C2236 C2235 1.349 . S
C2236 C2248 1.349 . S
C2237 C2235 1.327 . S
C2237 C2253 1.429 . S
C2237 H2259 0.950 . S
C2238 H2234 0.949 1_655 S
C2238 C2246 1.574 . S
C2238 C2254 1.368 . S
H2239 C2247 0.950 . S
H2240 C2245 0.950 . S
H2241 C2246 0.949 . S
H2242 C2248 0.950 . S
H2243 C2249 0.950 . S
H2244 C2250 0.949 . S
C2245 H2240 0.950 . S
C2245 C2247 1.327 . S
C2245 C2251 1.429 . S
C2246 C2238 1.574 . S
C2246 H2241 0.949 . S
C2246 C2252 1.368 . S
C2247 C2231 1.349 . S
C2247 H2239 0.950 . S
C2247 C2245 1.327 . S
C2248 C2236 1.349 . S
C2248 H2242 0.950 . S
C2248 C2249 1.327 . S
C2249 H2243 0.950 . S
C2249 C2248 1.327 . S
C2249 C2253 1.429 . S
C2250 C2233 1.574 . S
C2250 H2244 0.949 . S
C2250 C2254 1.368 . S
C2251 C2232 1.429 . S
C2251 C2245 1.429 . S
C2251 C2252 1.523 . S
C2252 C2233 1.368 . S
C2252 C2246 1.368 . S
C2252 C2251 1.523 . S
C2253 C2237 1.429 . S
C2253 C2249 1.429 . S
C2253 C2254 1.523 1_455 S
C2254 C2238 1.368 . S
C2254 C2250 1.368 . S
C2254 C2253 1.523 1_655 S
H2255 C2230 0.950 . S
H2256 C2232 0.950 . S
H2257 C2233 0.949 . S
H2258 C2235 0.950 . S
H2259 C2237 0.950 . S
C2260 C2261 1.349 . S
C2260 C2262 1.327 . S
C2260 H2285 0.950 . S
C2261 C2260 1.349 . S
C2261 C2277 1.349 . S
C2262 C2260 1.327 . S
C2262 C2281 1.429 . S
C2262 H2286 0.950 . S
C2263 C2280 1.574 . S
C2263 C2282 1.368 . S
C2263 H2287 0.949 . S
H2264 C2268 0.949 . S
C2265 C2266 1.349 . S
C2265 C2267 1.327 . S
C2265 H2288 0.950 . S
C2266 C2265 1.349 . S
C2266 C2278 1.349 . S
C2267 C2265 1.327 . S
C2267 C2283 1.429 . S
C2267 H2289 0.950 . S
C2268 H2264 0.949 . S
C2268 C2276 1.574 . S
C2268 C2284 1.368 . S
H2269 C2277 0.950 . S
H2270 C2275 0.950 . S
H2271 C2276 0.949 . S
H2272 C2278 0.950 . S
H2273 C2279 0.950 . S
H2274 C2280 0.949 . S
C2275 H2270 0.950 . S
C2275 C2277 1.327 . S
C2275 C2281 1.429 . S
C2276 C2268 1.574 . S
C2276 H2271 0.949 . S
C2276 C2282 1.368 . S
C2277 C2261 1.349 . S
C2277 H2269 0.950 . S
C2277 C2275 1.327 . S
C2278 C2266 1.349 . S
C2278 H2272 0.950 . S
C2278 C2279 1.327 . S
C2279 H2273 0.950 . S
C2279 C2278 1.327 . S
C2279 C2283 1.429 . S
C2280 C2263 1.574 . S
C2280 H2274 0.949 . S
C2280 C2284 1.368 . S
C2281 C2262 1.429 . S
C2281 C2275 1.429 . S
C2281 C2282 1.523 . S
C2282 C2263 1.368 . S
C2282 C2276 1.368 . S
C2282 C2281 1.523 . S
C2283 C2267 1.429 . S
C2283 C2279 1.429 . S
C2283 C2284 1.523 . S
C2284 C2268 1.368 . S
C2284 C2280 1.368 . S
C2284 C2283 1.523 . S
H2285 C2260 0.950 . S
H2286 C2262 0.950 . S
H2287 C2263 0.949 . S
H2288 C2265 0.950 . S
H2289 C2267 0.950 . S
C2290 C2291 1.349 . S
C2290 C2292 1.327 . S
C2290 H2315 0.950 . S
C2291 C2290 1.349 . S
C2291 C2307 1.349 . S
C2292 C2290 1.327 . S
C2292 C2311 1.429 . S
C2292 H2316 0.950 . S
C2293 C2310 1.574 . S
C2293 C2312 1.368 . S
C2293 H2317 0.949 . S
H2294 C2298 0.949 . S
C2295 C2296 1.349 . S
C2295 C2297 1.327 . S
C2295 H2318 0.950 . S
C2296 C2295 1.349 . S
C2296 C2308 1.349 . S
C2297 C2295 1.327 . S
C2297 C2313 1.429 . S
C2297 H2319 0.950 . S
C2298 H2294 0.949 . S
C2298 C2306 1.574 . S
C2298 C2314 1.368 . S
H2299 C2307 0.950 . S
H2300 C2305 0.950 . S
H2301 C2306 0.949 . S
H2302 C2308 0.950 . S
H2303 C2309 0.950 . S
H2304 C2310 0.949 . S
C2305 H2300 0.950 . S
C2305 C2307 1.327 . S
C2305 C2311 1.429 . S
C2306 C2298 1.574 . S
C2306 H2301 0.949 . S
C2306 C2312 1.368 . S
C2307 C2291 1.349 . S
C2307 H2299 0.950 . S
C2307 C2305 1.327 . S
C2308 C2296 1.349 . S
C2308 H2302 0.950 . S
C2308 C2309 1.327 . S
C2309 H2303 0.950 . S
C2309 C2308 1.327 . S
C2309 C2313 1.429 . S
C2310 C2293 1.574 . S
C2310 H2304 0.949 . S
C2310 C2314 1.368 . S
C2311 C2292 1.429 . S
C2311 C2305 1.429 . S
C2311 C2312 1.523 . S
C2312 C2293 1.368 . S
C2312 C2306 1.368 . S
C2312 C2311 1.523 . S
C2313 C2297 1.429 . S
C2313 C2309 1.429 . S
C2313 C2314 1.523 . S
C2314 C2298 1.368 . S
C2314 C2310 1.368 . S
C2314 C2313 1.523 . S
H2315 C2290 0.950 . S
H2316 C2292 0.950 . S
H2317 C2293 0.949 . S
H2318 C2295 0.950 . S
H2319 C2297 0.950 . S
C2320 C2321 1.349 . S
C2320 C2322 1.327 . S
C2320 H2345 0.950 . S
C2321 C2320 1.349 . S
C2321 C2337 1.349 . S
C2322 C2320 1.327 . S
C2322 C2341 1.429 . S
C2322 H2346 0.950 . S
C2323 C2340 1.574 . S
C2323 C2342 1.368 . S
C2323 H2347 0.949 . S
H2324 C2328 0.949 . S
C2325 C2326 1.349 . S
C2325 C2327 1.327 . S
C2325 H2348 0.950 . S
C2326 C2325 1.349 . S
C2326 C2338 1.349 . S
C2327 C2325 1.327 . S
C2327 C2343 1.429 . S
C2327 H2349 0.950 . S
C2328 H2324 0.949 . S
C2328 C2336 1.574 . S
C2328 C2344 1.368 . S
H2329 C2337 0.950 . S
H2330 C2335 0.950 . S
H2331 C2336 0.949 . S
H2332 C2338 0.950 . S
H2333 C2339 0.950 . S
H2334 C2340 0.949 . S
C2335 H2330 0.950 . S
C2335 C2337 1.327 . S
C2335 C2341 1.429 . S
C2336 C2328 1.574 . S
C2336 H2331 0.949 . S
C2336 C2342 1.368 . S
C2337 C2321 1.349 . S
C2337 H2329 0.950 . S
C2337 C2335 1.327 . S
C2338 C2326 1.349 . S
C2338 H2332 0.950 . S
C2338 C2339 1.327 . S
C2339 H2333 0.950 . S
C2339 C2338 1.327 . S
C2339 C2343 1.429 . S
C2340 C2323 1.574 . S
C2340 H2334 0.949 . S
C2340 C2344 1.368 . S
C2341 C2322 1.429 . S
C2341 C2335 1.429 . S
C2341 C2342 1.523 . S
C2342 C2323 1.368 . S
C2342 C2336 1.368 . S
C2342 C2341 1.523 . S
C2343 C2327 1.429 . S
C2343 C2339 1.429 . S
C2343 C2344 1.523 . S
C2344 C2328 1.368 . S
C2344 C2340 1.368 . S
C2344 C2343 1.523 . S
H2345 C2320 0.950 . S
H2346 C2322 0.950 . S
H2347 C2323 0.949 . S
H2348 C2325 0.950 . S
H2349 C2327 0.950 . S
C2350 C2351 1.349 . S
C2350 C2352 1.327 . S
C2350 H2375 0.950 . S
C2351 C2350 1.349 . S
C2351 C2367 1.349 . S
C2352 C2350 1.327 . S
C2352 C2371 1.429 . S
C2352 H2376 0.950 . S
C2353 C2370 1.574 . S
C2353 C2372 1.368 . S
C2353 H2377 0.949 . S
H2354 C2358 0.949 . S
C2355 C2356 1.349 . S
C2355 C2357 1.327 . S
C2355 H2378 0.950 . S
C2356 C2355 1.349 . S
C2356 C2368 1.349 . S
C2357 C2355 1.327 . S
C2357 C2373 1.429 . S
C2357 H2379 0.950 . S
C2358 H2354 0.949 . S
C2358 C2366 1.574 . S
C2358 C2374 1.368 . S
H2359 C2367 0.950 . S
H2360 C2365 0.950 . S
H2361 C2366 0.949 . S
H2362 C2368 0.950 . S
H2363 C2369 0.950 . S
H2364 C2370 0.949 . S
C2365 H2360 0.950 . S
C2365 C2367 1.327 . S
C2365 C2371 1.429 . S
C2366 C2358 1.574 . S
C2366 H2361 0.949 . S
C2366 C2372 1.368 . S
C2367 C2351 1.349 . S
C2367 H2359 0.950 . S
C2367 C2365 1.327 . S
C2368 C2356 1.349 . S
C2368 H2362 0.950 . S
C2368 C2369 1.327 . S
C2369 H2363 0.950 . S
C2369 C2368 1.327 . S
C2369 C2373 1.429 . S
C2370 C2353 1.574 . S
C2370 H2364 0.949 . S
C2370 C2374 1.368 . S
C2371 C2352 1.429 . S
C2371 C2365 1.429 . S
C2371 C2372 1.523 . S
C2372 C2353 1.368 . S
C2372 C2366 1.368 . S
C2372 C2371 1.523 . S
C2373 C2357 1.429 . S
C2373 C2369 1.429 . S
C2373 C2374 1.523 . S
C2374 C2358 1.368 . S
C2374 C2370 1.368 . S
C2374 C2373 1.523 . S
H2375 C2350 0.950 . S
H2376 C2352 0.950 . S
H2377 C2353 0.949 . S
H2378 C2355 0.950 . S
H2379 C2357 0.950 . S
C2380 C2381 1.349 . S
C2380 C2382 1.327 . S
C2380 H2405 0.950 . S
C2381 C2380 1.349 . S
C2381 C2397 1.349 . S
C2382 C2380 1.327 . S
C2382 C2401 1.429 . S
C2382 H2406 0.950 . S
C2383 C2400 1.574 . S
C2383 C2402 1.368 . S
C2383 H2407 0.949 . S
H2384 C2388 0.949 . S
C2385 C2386 1.349 . S
C2385 C2387 1.327 . S
C2385 H2408 0.950 . S
C2386 C2385 1.349 . S
C2386 C2398 1.349 . S
C2387 C2385 1.327 . S
C2387 C2403 1.429 . S
C2387 H2409 0.950 . S
C2388 H2384 0.949 . S
C2388 C2396 1.574 . S
C2388 C2404 1.368 . S
H2389 C2397 0.950 . S
H2390 C2395 0.950 . S
H2391 C2396 0.949 . S
H2392 C2398 0.950 . S
H2393 C2399 0.950 . S
H2394 C2400 0.949 . S
C2395 H2390 0.950 . S
C2395 C2397 1.327 . S
C2395 C2401 1.429 . S
C2396 C2388 1.574 . S
C2396 H2391 0.949 . S
C2396 C2402 1.368 . S
C2397 C2381 1.349 . S
C2397 H2389 0.950 . S
C2397 C2395 1.327 . S
C2398 C2386 1.349 . S
C2398 H2392 0.950 . S
C2398 C2399 1.327 . S
C2399 H2393 0.950 . S
C2399 C2398 1.327 . S
C2399 C2403 1.429 . S
C2400 C2383 1.574 . S
C2400 H2394 0.949 . S
C2400 C2404 1.368 . S
C2401 C2382 1.429 . S
C2401 C2395 1.429 . S
C2401 C2402 1.523 . S
C2402 C2383 1.368 . S
C2402 C2396 1.368 . S
C2402 C2401 1.523 . S
C2403 C2387 1.429 . S
C2403 C2399 1.429 . S
C2403 C2404 1.523 . S
C2404 C2388 1.368 . S
C2404 C2400 1.368 . S
C2404 C2403 1.523 . S
H2405 C2380 0.950 . S
H2406 C2382 0.950 . S
H2407 C2383 0.949 . S
H2408 C2385 0.950 . S
H2409 C2387 0.950 . S
C2410 C2411 1.349 . S
C2410 C2412 1.327 . S
C2410 H2435 0.950 . S
C2411 C2410 1.349 . S
C2411 C2427 1.349 . S
C2412 C2410 1.327 . S
C2412 C2431 1.429 . S
C2412 H2436 0.950 . S
C2413 C2430 1.574 . S
C2413 C2432 1.368 . S
C2413 H2437 0.949 1_455 S
H2414 C2418 0.949 . S
C2415 C2416 1.349 . S
C2415 C2417 1.327 . S
C2415 H2438 0.950 . S
C2416 C2415 1.349 . S
C2416 C2428 1.349 . S
C2417 C2415 1.327 . S
C2417 C2433 1.429 . S
C2417 H2439 0.950 . S
C2418 H2414 0.949 . S
C2418 C2426 1.574 . S
C2418 C2434 1.368 . S
H2419 C2427 0.950 . S
H2420 C2425 0.950 . S
H2421 C2426 0.949 . S
H2422 C2428 0.950 . S
H2423 C2429 0.950 . S
H2424 C2430 0.949 . S
C2425 H2420 0.950 . S
C2425 C2427 1.327 . S
C2425 C2431 1.429 . S
C2426 C2418 1.574 . S
C2426 H2421 0.949 . S
C2426 C2432 1.368 . S
C2427 C2411 1.349 . S
C2427 H2419 0.950 . S
C2427 C2425 1.327 . S
C2428 C2416 1.349 . S
C2428 H2422 0.950 . S
C2428 C2429 1.327 . S
C2429 H2423 0.950 . S
C2429 C2428 1.327 . S
C2429 C2433 1.429 . S
C2430 C2413 1.574 . S
C2430 H2424 0.949 . S
C2430 C2434 1.368 . S
C2431 C2412 1.429 . S
C2431 C2425 1.429 . S
C2431 C2432 1.523 1_655 S
C2432 C2413 1.368 . S
C2432 C2426 1.368 . S
C2432 C2431 1.523 1_455 S
C2433 C2417 1.429 . S
C2433 C2429 1.429 . S
C2433 C2434 1.523 . S
C2434 C2418 1.368 . S
C2434 C2430 1.368 . S
C2434 C2433 1.523 . S
H2435 C2410 0.950 . S
H2436 C2412 0.950 . S
H2437 C2413 0.949 1_655 S
H2438 C2415 0.950 . S
H2439 C2417 0.950 . S
C2440 C2441 1.349 . S
C2440 C2442 1.327 . S
C2440 H2465 0.950 . S
C2441 C2440 1.349 . S
C2441 C2457 1.349 . S
C2442 C2440 1.327 . S
C2442 C2461 1.429 . S
C2442 H2466 0.950 . S
C2443 C2460 1.574 . S
C2443 C2462 1.368 . S
C2443 H2467 0.949 . S
H2444 C2448 0.949 . S
C2445 C2446 1.349 . S
C2445 C2447 1.327 . S
C2445 H2468 0.950 . S
C2446 C2445 1.349 . S
C2446 C2458 1.349 . S
C2447 C2445 1.327 . S
C2447 C2463 1.429 . S
C2447 H2469 0.950 . S
C2448 H2444 0.949 . S
C2448 C2456 1.574 . S
C2448 C2464 1.368 . S
H2449 C2457 0.950 . S
H2450 C2455 0.950 . S
H2451 C2456 0.949 . S
H2452 C2458 0.950 . S
H2453 C2459 0.950 . S
H2454 C2460 0.949 . S
C2455 H2450 0.950 . S
C2455 C2457 1.327 . S
C2455 C2461 1.429 . S
C2456 C2448 1.574 . S
C2456 H2451 0.949 . S
C2456 C2462 1.368 . S
C2457 C2441 1.349 . S
C2457 H2449 0.950 . S
C2457 C2455 1.327 . S
C2458 C2446 1.349 . S
C2458 H2452 0.950 . S
C2458 C2459 1.327 . S
C2459 H2453 0.950 . S
C2459 C2458 1.327 . S
C2459 C2463 1.429 . S
C2460 C2443 1.574 . S
C2460 H2454 0.949 . S
C2460 C2464 1.368 . S
C2461 C2442 1.429 . S
C2461 C2455 1.429 . S
C2461 C2462 1.523 . S
C2462 C2443 1.368 . S
C2462 C2456 1.368 . S
C2462 C2461 1.523 . S
C2463 C2447 1.429 . S
C2463 C2459 1.429 . S
C2463 C2464 1.523 . S
C2464 C2448 1.368 . S
C2464 C2460 1.368 . S
C2464 C2463 1.523 . S
H2465 C2440 0.950 . S
H2466 C2442 0.950 . S
H2467 C2443 0.949 . S
H2468 C2445 0.950 . S
H2469 C2447 0.950 . S
C2470 C2471 1.349 . S
C2470 C2472 1.327 . S
C2470 H2495 0.950 . S
C2471 C2470 1.349 . S
C2471 C2487 1.349 . S
C2472 C2470 1.327 . S
C2472 C2491 1.429 . S
C2472 H2496 0.950 . S
C2473 C2490 1.574 . S
C2473 C2492 1.368 . S
C2473 H2497 0.949 . S
H2474 C2478 0.949 1_655 S
C2475 C2476 1.349 . S
C2475 C2477 1.327 . S
C2475 H2498 0.950 . S
C2476 C2475 1.349 . S
C2476 C2488 1.349 . S
C2477 C2475 1.327 . S
C2477 C2493 1.429 . S
C2477 H2499 0.950 . S
C2478 H2474 0.949 1_455 S
C2478 C2486 1.574 . S
C2478 C2494 1.368 . S
H2479 C2487 0.950 . S
H2480 C2485 0.950 . S
H2481 C2486 0.949 . S
H2482 C2488 0.950 . S
H2483 C2489 0.950 . S
H2484 C2490 0.949 . S
C2485 H2480 0.950 . S
C2485 C2487 1.327 . S
C2485 C2491 1.429 . S
C2486 C2478 1.574 . S
C2486 H2481 0.949 . S
C2486 C2492 1.368 . S
C2487 C2471 1.349 . S
C2487 H2479 0.950 . S
C2487 C2485 1.327 . S
C2488 C2476 1.349 . S
C2488 H2482 0.950 . S
C2488 C2489 1.327 . S
C2489 H2483 0.950 . S
C2489 C2488 1.327 . S
C2489 C2493 1.429 . S
C2490 C2473 1.574 . S
C2490 H2484 0.949 . S
C2490 C2494 1.368 . S
C2491 C2472 1.429 . S
C2491 C2485 1.429 . S
C2491 C2492 1.523 . S
C2492 C2473 1.368 . S
C2492 C2486 1.368 . S
C2492 C2491 1.523 . S
C2493 C2477 1.429 . S
C2493 C2489 1.429 . S
C2493 C2494 1.523 1_655 S
C2494 C2478 1.368 . S
C2494 C2490 1.368 . S
C2494 C2493 1.523 1_455 S
H2495 C2470 0.950 . S
H2496 C2472 0.950 . S
H2497 C2473 0.949 . S
H2498 C2475 0.950 . S
H2499 C2477 0.950 . S
C2500 C2501 1.349 . S
C2500 C2502 1.327 . S
C2500 H2525 0.950 . S
C2501 C2500 1.349 . S
C2501 C2517 1.349 . S
C2502 C2500 1.327 . S
C2502 C2521 1.429 . S
C2502 H2526 0.950 . S
C2503 C2520 1.574 . S
C2503 C2522 1.368 . S
C2503 H2527 0.949 . S
H2504 C2508 0.949 . S
C2505 C2506 1.349 . S
C2505 C2507 1.327 . S
C2505 H2528 0.950 . S
C2506 C2505 1.349 . S
C2506 C2518 1.349 . S
C2507 C2505 1.327 . S
C2507 C2523 1.429 . S
C2507 H2529 0.950 . S
C2508 H2504 0.949 . S
C2508 C2516 1.574 . S
C2508 C2524 1.368 . S
H2509 C2517 0.950 . S
H2510 C2515 0.950 . S
H2511 C2516 0.949 . S
H2512 C2518 0.950 . S
H2513 C2519 0.950 . S
H2514 C2520 0.949 . S
C2515 H2510 0.950 . S
C2515 C2517 1.327 . S
C2515 C2521 1.429 . S
C2516 C2508 1.574 . S
C2516 H2511 0.949 . S
C2516 C2522 1.368 . S
C2517 C2501 1.349 . S
C2517 H2509 0.950 . S
C2517 C2515 1.327 . S
C2518 C2506 1.349 . S
C2518 H2512 0.950 . S
C2518 C2519 1.327 . S
C2519 H2513 0.950 . S
C2519 C2518 1.327 . S
C2519 C2523 1.429 . S
C2520 C2503 1.574 . S
C2520 H2514 0.949 . S
C2520 C2524 1.368 . S
C2521 C2502 1.429 . S
C2521 C2515 1.429 . S
C2521 C2522 1.523 . S
C2522 C2503 1.368 . S
C2522 C2516 1.368 . S
C2522 C2521 1.523 . S
C2523 C2507 1.429 . S
C2523 C2519 1.429 . S
C2523 C2524 1.523 . S
C2524 C2508 1.368 . S
C2524 C2520 1.368 . S
C2524 C2523 1.523 . S
H2525 C2500 0.950 . S
H2526 C2502 0.950 . S
H2527 C2503 0.949 . S
H2528 C2505 0.950 . S
H2529 C2507 0.950 . S
C2530 C2531 1.349 . S
C2530 C2532 1.327 . S
C2530 H2555 0.950 . S
C2531 C2530 1.349 . S
C2531 C2547 1.349 . S
C2532 C2530 1.327 . S
C2532 C2551 1.429 . S
C2532 H2556 0.950 . S
C2533 C2550 1.574 . S
C2533 C2552 1.368 . S
C2533 H2557 0.949 . S
H2534 C2538 0.949 . S
C2535 C2536 1.349 . S
C2535 C2537 1.327 . S
C2535 H2558 0.950 . S
C2536 C2535 1.349 . S
C2536 C2548 1.349 . S
C2537 C2535 1.327 . S
C2537 C2553 1.429 . S
C2537 H2559 0.950 . S
C2538 H2534 0.949 . S
C2538 C2546 1.574 . S
C2538 C2554 1.368 . S
H2539 C2547 0.950 . S
H2540 C2545 0.950 . S
H2541 C2546 0.949 . S
H2542 C2548 0.950 . S
H2543 C2549 0.950 . S
H2544 C2550 0.949 . S
C2545 H2540 0.950 . S
C2545 C2547 1.327 . S
C2545 C2551 1.429 . S
C2546 C2538 1.574 . S
C2546 H2541 0.949 . S
C2546 C2552 1.368 . S
C2547 C2531 1.349 . S
C2547 H2539 0.950 . S
C2547 C2545 1.327 . S
C2548 C2536 1.349 . S
C2548 H2542 0.950 . S
C2548 C2549 1.327 . S
C2549 H2543 0.950 . S
C2549 C2548 1.327 . S
C2549 C2553 1.429 . S
C2550 C2533 1.574 . S
C2550 H2544 0.949 . S
C2550 C2554 1.368 . S
C2551 C2532 1.429 . S
C2551 C2545 1.429 . S
C2551 C2552 1.523 . S
C2552 C2533 1.368 . S
C2552 C2546 1.368 . S
C2552 C2551 1.523 . S
C2553 C2537 1.429 . S
C2553 C2549 1.429 . S
C2553 C2554 1.523 . S
C2554 C2538 1.368 . S
C2554 C2550 1.368 . S
C2554 C2553 1.523 . S
H2555 C2530 0.950 . S
H2556 C2532 0.950 . S
H2557 C2533 0.949 . S
H2558 C2535 0.950 . S
H2559 C2537 0.950 . S
C2560 C2561 1.349 . S
C2560 C2562 1.327 . S
C2560 H2585 0.950 . S
C2561 C2560 1.349 . S
C2561 C2577 1.349 . S
C2562 C2560 1.327 . S
C2562 C2581 1.429 . S
C2562 H2586 0.950 . S
C2563 C2580 1.574 1_545 S
C2563 C2582 1.368 . S
C2563 H2587 0.949 . S
H2564 C2568 0.949 . S
C2565 C2566 1.349 . S
C2565 C2567 1.327 . S
C2565 H2588 0.950 . S
C2566 C2565 1.349 . S
C2566 C2578 1.349 . S
C2567 C2565 1.327 . S
C2567 C2583 1.429 . S
C2567 H2589 0.950 . S
C2568 H2564 0.949 . S
C2568 C2576 1.574 1_565 S
C2568 C2584 1.368 . S
H2569 C2577 0.950 . S
H2570 C2575 0.950 . S
H2571 C2576 0.949 . S
H2572 C2578 0.950 . S
H2573 C2579 0.950 . S
H2574 C2580 0.949 . S
C2575 H2570 0.950 . S
C2575 C2577 1.327 . S
C2575 C2581 1.429 . S
C2576 C2568 1.574 1_545 S
C2576 H2571 0.949 . S
C2576 C2582 1.368 . S
C2577 C2561 1.349 . S
C2577 H2569 0.950 . S
C2577 C2575 1.327 . S
C2578 C2566 1.349 . S
C2578 H2572 0.950 . S
C2578 C2579 1.327 . S
C2579 H2573 0.950 . S
C2579 C2578 1.327 . S
C2579 C2583 1.429 . S
C2580 C2563 1.574 1_565 S
C2580 H2574 0.949 . S
C2580 C2584 1.368 . S
C2581 C2562 1.429 . S
C2581 C2575 1.429 . S
C2581 C2582 1.523 . S
C2582 C2563 1.368 . S
C2582 C2576 1.368 . S
C2582 C2581 1.523 . S
C2583 C2567 1.429 . S
C2583 C2579 1.429 . S
C2583 C2584 1.523 . S
C2584 C2568 1.368 . S
C2584 C2580 1.368 . S
C2584 C2583 1.523 . S
H2585 C2560 0.950 . S
H2586 C2562 0.950 . S
H2587 C2563 0.949 . S
H2588 C2565 0.950 . S
H2589 C2567 0.950 . S
C2590 C2591 1.349 . S
C2590 C2592 1.327 . S
C2590 H2615 0.950 . S
C2591 C2590 1.349 . S
C2591 C2607 1.349 . S
C2592 C2590 1.327 . S
C2592 C2611 1.429 . S
C2592 H2616 0.950 . S
C2593 C2610 1.574 . S
C2593 C2612 1.368 . S
C2593 H2617 0.949 . S
H2594 C2598 0.949 . S
C2595 C2596 1.349 . S
C2595 C2597 1.327 . S
C2595 H2618 0.950 . S
C2596 C2595 1.349 . S
C2596 C2608 1.349 . S
C2597 C2595 1.327 . S
C2597 C2613 1.429 . S
C2597 H2619 0.950 . S
C2598 H2594 0.949 . S
C2598 C2606 1.574 . S
C2598 C2614 1.368 . S
H2599 C2607 0.950 . S
H2600 C2605 0.950 . S
H2601 C2606 0.949 . S
H2602 C2608 0.950 . S
H2603 C2609 0.950 . S
H2604 C2610 0.949 . S
C2605 H2600 0.950 . S
C2605 C2607 1.327 . S
C2605 C2611 1.429 . S
C2606 C2598 1.574 . S
C2606 H2601 0.949 . S
C2606 C2612 1.368 . S
C2607 C2591 1.349 . S
C2607 H2599 0.950 . S
C2607 C2605 1.327 . S
C2608 C2596 1.349 . S
C2608 H2602 0.950 . S
C2608 C2609 1.327 . S
C2609 H2603 0.950 . S
C2609 C2608 1.327 . S
C2609 C2613 1.429 . S
C2610 C2593 1.574 . S
C2610 H2604 0.949 . S
C2610 C2614 1.368 . S
C2611 C2592 1.429 . S
C2611 C2605 1.429 . S
C2611 C2612 1.523 . S
C2612 C2593 1.368 . S
C2612 C2606 1.368 . S
C2612 C2611 1.523 . S
C2613 C2597 1.429 . S
C2613 C2609 1.429 . S
C2613 C2614 1.523 . S
C2614 C2598 1.368 . S
C2614 C2610 1.368 . S
C2614 C2613 1.523 . S
H2615 C2590 0.950 . S
H2616 C2592 0.950 . S
H2617 C2593 0.949 . S
H2618 C2595 0.950 . S
H2619 C2597 0.950 . S
C2620 C2621 1.349 . S
C2620 C2622 1.327 . S
C2620 H2645 0.950 . S
C2621 C2620 1.349 . S
C2621 C2637 1.349 . S
C2622 C2620 1.327 . S
C2622 C2641 1.429 . S
C2622 H2646 0.950 . S
C2623 C2640 1.574 1_565 S
C2623 C2642 1.368 . S
C2623 H2647 0.949 . S
H2624 C2628 0.949 . S
C2625 C2626 1.349 . S
C2625 C2627 1.327 . S
C2625 H2648 0.950 . S
C2626 C2625 1.349 . S
C2626 C2638 1.349 . S
C2627 C2625 1.327 . S
C2627 C2643 1.429 . S
C2627 H2649 0.950 . S
C2628 H2624 0.949 . S
C2628 C2636 1.574 1_545 S
C2628 C2644 1.368 . S
H2629 C2637 0.950 . S
H2630 C2635 0.950 . S
H2631 C2636 0.949 . S
H2632 C2638 0.950 . S
H2633 C2639 0.950 . S
H2634 C2640 0.949 . S
C2635 H2630 0.950 . S
C2635 C2637 1.327 . S
C2635 C2641 1.429 . S
C2636 C2628 1.574 1_565 S
C2636 H2631 0.949 . S
C2636 C2642 1.368 . S
C2637 C2621 1.349 . S
C2637 H2629 0.950 . S
C2637 C2635 1.327 . S
C2638 C2626 1.349 . S
C2638 H2632 0.950 . S
C2638 C2639 1.327 . S
C2639 H2633 0.950 . S
C2639 C2638 1.327 . S
C2639 C2643 1.429 . S
C2640 C2623 1.574 1_545 S
C2640 H2634 0.949 . S
C2640 C2644 1.368 . S
C2641 C2622 1.429 . S
C2641 C2635 1.429 . S
C2641 C2642 1.523 . S
C2642 C2623 1.368 . S
C2642 C2636 1.368 . S
C2642 C2641 1.523 . S
C2643 C2627 1.429 . S
C2643 C2639 1.429 . S
C2643 C2644 1.523 . S
C2644 C2628 1.368 . S
C2644 C2640 1.368 . S
C2644 C2643 1.523 . S
H2645 C2620 0.950 . S
H2646 C2622 0.950 . S
H2647 C2623 0.949 . S
H2648 C2625 0.950 . S
H2649 C2627 0.950 . S
C2650 C2651 1.349 . S
C2650 C2652 1.327 . S
C2650 H2675 0.950 . S
C2651 C2650 1.349 . S
C2651 C2667 1.349 . S
C2652 C2650 1.327 . S
C2652 C2671 1.429 . S
C2652 H2676 0.950 . S
C2653 C2670 1.574 . S
C2653 C2672 1.368 . S
C2653 H2677 0.949 . S
H2654 C2658 0.949 . S
C2655 C2656 1.349 . S
C2655 C2657 1.327 . S
C2655 H2678 0.950 . S
C2656 C2655 1.349 . S
C2656 C2668 1.349 . S
C2657 C2655 1.327 . S
C2657 C2673 1.429 . S
C2657 H2679 0.950 . S
C2658 H2654 0.949 . S
C2658 C2666 1.574 . S
C2658 C2674 1.368 . S
H2659 C2667 0.950 . S
H2660 C2665 0.950 . S
H2661 C2666 0.949 . S
H2662 C2668 0.950 . S
H2663 C2669 0.950 . S
H2664 C2670 0.949 . S
C2665 H2660 0.950 . S
C2665 C2667 1.327 . S
C2665 C2671 1.429 . S
C2666 C2658 1.574 . S
C2666 H2661 0.949 . S
C2666 C2672 1.368 1_554 S
C2667 C2651 1.349 . S
C2667 H2659 0.950 . S
C2667 C2665 1.327 . S
C2668 C2656 1.349 . S
C2668 H2662 0.950 . S
C2668 C2669 1.327 . S
C2669 H2663 0.950 . S
C2669 C2668 1.327 . S
C2669 C2673 1.429 . S
C2670 C2653 1.574 . S
C2670 H2664 0.949 . S
C2670 C2674 1.368 1_556 S
C2671 C2652 1.429 . S
C2671 C2665 1.429 . S
C2671 C2672 1.523 . S
C2672 C2653 1.368 . S
C2672 C2666 1.368 1_556 S
C2672 C2671 1.523 . S
C2673 C2657 1.429 . S
C2673 C2669 1.429 . S
C2673 C2674 1.523 . S
C2674 C2658 1.368 . S
C2674 C2670 1.368 1_554 S
C2674 C2673 1.523 . S
H2675 C2650 0.950 . S
H2676 C2652 0.950 . S
H2677 C2653 0.949 . S
H2678 C2655 0.950 . S
H2679 C2657 0.950 . S
C2680 C2681 1.349 . S
C2680 C2682 1.327 . S
C2680 H2705 0.950 . S
C2681 C2680 1.349 . S
C2681 C2697 1.349 . S
C2682 C2680 1.327 . S
C2682 C2701 1.429 . S
C2682 H2706 0.950 . S
C2683 C2700 1.574 1_545 S
C2683 C2702 1.368 . S
C2683 H2707 0.949 . S
H2684 C2688 0.949 . S
C2685 C2686 1.349 . S
C2685 C2687 1.327 . S
C2685 H2708 0.950 . S
C2686 C2685 1.349 . S
C2686 C2698 1.349 . S
C2687 C2685 1.327 . S
C2687 C2703 1.429 . S
C2687 H2709 0.950 . S
C2688 H2684 0.949 . S
C2688 C2696 1.574 1_565 S
C2688 C2704 1.368 . S
H2689 C2697 0.950 . S
H2690 C2695 0.950 . S
H2691 C2696 0.949 . S
H2692 C2698 0.950 . S
H2693 C2699 0.950 . S
H2694 C2700 0.949 . S
C2695 H2690 0.950 . S
C2695 C2697 1.327 . S
C2695 C2701 1.429 . S
C2696 C2688 1.574 1_545 S
C2696 H2691 0.949 . S
C2696 C2702 1.368 . S
C2697 C2681 1.349 . S
C2697 H2689 0.950 . S
C2697 C2695 1.327 . S
C2698 C2686 1.349 . S
C2698 H2692 0.950 . S
C2698 C2699 1.327 . S
C2699 H2693 0.950 . S
C2699 C2698 1.327 . S
C2699 C2703 1.429 . S
C2700 C2683 1.574 1_565 S
C2700 H2694 0.949 . S
C2700 C2704 1.368 . S
C2701 C2682 1.429 . S
C2701 C2695 1.429 . S
C2701 C2702 1.523 . S
C2702 C2683 1.368 . S
C2702 C2696 1.368 . S
C2702 C2701 1.523 . S
C2703 C2687 1.429 . S
C2703 C2699 1.429 . S
C2703 C2704 1.523 . S
C2704 C2688 1.368 . S
C2704 C2700 1.368 . S
C2704 C2703 1.523 . S
H2705 C2680 0.950 . S
H2706 C2682 0.950 . S
H2707 C2683 0.949 . S
H2708 C2685 0.950 . S
H2709 C2687 0.950 . S
C2710 C2711 1.349 . S
C2710 C2712 1.327 . S
C2710 H2735 0.950 . S
C2711 C2710 1.349 . S
C2711 C2727 1.349 . S
C2712 C2710 1.327 . S
C2712 C2731 1.429 . S
C2712 H2736 0.950 . S
C2713 C2730 1.574 . S
C2713 C2732 1.368 . S
C2713 H2737 0.949 . S
H2714 C2718 0.949 . S
C2715 C2716 1.349 . S
C2715 C2717 1.327 . S
C2715 H2738 0.950 . S
C2716 C2715 1.349 . S
C2716 C2728 1.349 . S
C2717 C2715 1.327 . S
C2717 C2733 1.429 . S
C2717 H2739 0.950 . S
C2718 H2714 0.949 . S
C2718 C2726 1.574 . S
C2718 C2734 1.368 . S
H2719 C2727 0.950 . S
H2720 C2725 0.950 . S
H2721 C2726 0.949 . S
H2722 C2728 0.950 . S
H2723 C2729 0.950 . S
H2724 C2730 0.949 . S
C2725 H2720 0.950 . S
C2725 C2727 1.327 . S
C2725 C2731 1.429 . S
C2726 C2718 1.574 . S
C2726 H2721 0.949 . S
C2726 C2732 1.368 . S
C2727 C2711 1.349 . S
C2727 H2719 0.950 . S
C2727 C2725 1.327 . S
C2728 C2716 1.349 . S
C2728 H2722 0.950 . S
C2728 C2729 1.327 . S
C2729 H2723 0.950 . S
C2729 C2728 1.327 . S
C2729 C2733 1.429 . S
C2730 C2713 1.574 . S
C2730 H2724 0.949 . S
C2730 C2734 1.368 . S
C2731 C2712 1.429 . S
C2731 C2725 1.429 . S
C2731 C2732 1.523 . S
C2732 C2713 1.368 . S
C2732 C2726 1.368 . S
C2732 C2731 1.523 . S
C2733 C2717 1.429 . S
C2733 C2729 1.429 . S
C2733 C2734 1.523 . S
C2734 C2718 1.368 . S
C2734 C2730 1.368 . S
C2734 C2733 1.523 . S
H2735 C2710 0.950 . S
H2736 C2712 0.950 . S
H2737 C2713 0.949 . S
H2738 C2715 0.950 . S
H2739 C2717 0.950 . S
C2740 C2741 1.349 . S
C2740 C2742 1.327 . S
C2740 H2765 0.950 . S
C2741 C2740 1.349 . S
C2741 C2757 1.349 . S
C2742 C2740 1.327 . S
C2742 C2761 1.429 . S
C2742 H2766 0.950 . S
C2743 C2760 1.574 1_545 S
C2743 C2762 1.368 . S
C2743 H2767 0.949 . S
H2744 C2748 0.949 . S
C2745 C2746 1.349 . S
C2745 C2747 1.327 . S
C2745 H2768 0.950 . S
C2746 C2745 1.349 . S
C2746 C2758 1.349 . S
C2747 C2745 1.327 . S
C2747 C2763 1.429 . S
C2747 H2769 0.950 . S
C2748 H2744 0.949 . S
C2748 C2756 1.574 1_565 S
C2748 C2764 1.368 . S
H2749 C2757 0.950 . S
H2750 C2755 0.950 . S
H2751 C2756 0.949 . S
H2752 C2758 0.950 . S
H2753 C2759 0.950 . S
H2754 C2760 0.949 . S
C2755 H2750 0.950 . S
C2755 C2757 1.327 . S
C2755 C2761 1.429 . S
C2756 C2748 1.574 1_545 S
C2756 H2751 0.949 . S
C2756 C2762 1.368 . S
C2757 C2741 1.349 . S
C2757 H2749 0.950 . S
C2757 C2755 1.327 . S
C2758 C2746 1.349 . S
C2758 H2752 0.950 . S
C2758 C2759 1.327 . S
C2759 H2753 0.950 . S
C2759 C2758 1.327 . S
C2759 C2763 1.429 . S
C2760 C2743 1.574 1_565 S
C2760 H2754 0.949 . S
C2760 C2764 1.368 . S
C2761 C2742 1.429 . S
C2761 C2755 1.429 . S
C2761 C2762 1.523 . S
C2762 C2743 1.368 . S
C2762 C2756 1.368 . S
C2762 C2761 1.523 . S
C2763 C2747 1.429 . S
C2763 C2759 1.429 . S
C2763 C2764 1.523 . S
C2764 C2748 1.368 . S
C2764 C2760 1.368 . S
C2764 C2763 1.523 . S
H2765 C2740 0.950 . S
H2766 C2742 0.950 . S
H2767 C2743 0.949 . S
H2768 C2745 0.950 . S
H2769 C2747 0.950 . S
C2770 C2771 1.349 . S
C2770 C2772 1.327 . S
C2770 H2795 0.950 . S
C2771 C2770 1.349 . S
C2771 C2787 1.349 . S
C2772 C2770 1.327 . S
C2772 C2791 1.429 . S
C2772 H2796 0.950 . S
C2773 C2790 1.574 . S
C2773 C2792 1.368 1_554 S
C2773 H2797 0.949 . S
H2774 C2778 0.949 . S
C2775 C2776 1.349 . S
C2775 C2777 1.327 . S
C2775 H2798 0.950 . S
C2776 C2775 1.349 . S
C2776 C2788 1.349 . S
C2777 C2775 1.327 . S
C2777 C2793 1.429 . S
C2777 H2799 0.950 . S
C2778 H2774 0.949 . S
C2778 C2786 1.574 . S
C2778 C2794 1.368 1_556 S
H2779 C2787 0.950 . S
H2780 C2785 0.950 . S
H2781 C2786 0.949 . S
H2782 C2788 0.950 . S
H2783 C2789 0.950 . S
H2784 C2790 0.949 . S
C2785 H2780 0.950 . S
C2785 C2787 1.327 . S
C2785 C2791 1.429 . S
C2786 C2778 1.574 . S
C2786 H2781 0.949 . S
C2786 C2792 1.368 . S
C2787 C2771 1.349 . S
C2787 H2779 0.950 . S
C2787 C2785 1.327 . S
C2788 C2776 1.349 . S
C2788 H2782 0.950 . S
C2788 C2789 1.327 . S
C2789 H2783 0.950 . S
C2789 C2788 1.327 . S
C2789 C2793 1.429 . S
C2790 C2773 1.574 . S
C2790 H2784 0.949 . S
C2790 C2794 1.368 . S
C2791 C2772 1.429 . S
C2791 C2785 1.429 . S
C2791 C2792 1.523 . S
C2792 C2773 1.368 1_556 S
C2792 C2786 1.368 . S
C2792 C2791 1.523 . S
C2793 C2777 1.429 . S
C2793 C2789 1.429 . S
C2793 C2794 1.523 . S
C2794 C2778 1.368 1_554 S
C2794 C2790 1.368 . S
C2794 C2793 1.523 . S
H2795 C2770 0.950 . S
H2796 C2772 0.950 . S
H2797 C2773 0.949 . S
H2798 C2775 0.950 . S
H2799 C2777 0.950 . S
C2800 C2801 1.349 . S
C2800 C2802 1.327 . S
C2800 H2825 0.950 . S
C2801 C2800 1.349 . S
C2801 C2817 1.349 . S
C2802 C2800 1.327 . S
C2802 C2821 1.429 . S
C2802 H2826 0.950 . S
C2803 C2820 1.574 . S
C2803 C2822 1.368 . S
C2803 H2827 0.949 . S
H2804 C2808 0.949 . S
C2805 C2806 1.349 . S
C2805 C2807 1.327 . S
C2805 H2828 0.950 . S
C2806 C2805 1.349 . S
C2806 C2818 1.349 . S
C2807 C2805 1.327 . S
C2807 C2823 1.429 . S
C2807 H2829 0.950 . S
C2808 H2804 0.949 . S
C2808 C2816 1.574 . S
C2808 C2824 1.368 . S
H2809 C2817 0.950 . S
H2810 C2815 0.950 . S
H2811 C2816 0.949 . S
H2812 C2818 0.950 . S
H2813 C2819 0.950 . S
H2814 C2820 0.949 . S
C2815 H2810 0.950 . S
C2815 C2817 1.327 . S
C2815 C2821 1.429 . S
C2816 C2808 1.574 . S
C2816 H2811 0.949 . S
C2816 C2822 1.368 . S
C2817 C2801 1.349 . S
C2817 H2809 0.950 . S
C2817 C2815 1.327 . S
C2818 C2806 1.349 . S
C2818 H2812 0.950 . S
C2818 C2819 1.327 . S
C2819 H2813 0.950 . S
C2819 C2818 1.327 . S
C2819 C2823 1.429 . S
C2820 C2803 1.574 . S
C2820 H2814 0.949 . S
C2820 C2824 1.368 . S
C2821 C2802 1.429 . S
C2821 C2815 1.429 . S
C2821 C2822 1.523 . S
C2822 C2803 1.368 . S
C2822 C2816 1.368 . S
C2822 C2821 1.523 . S
C2823 C2807 1.429 . S
C2823 C2819 1.429 . S
C2823 C2824 1.523 . S
C2824 C2808 1.368 . S
C2824 C2820 1.368 . S
C2824 C2823 1.523 . S
H2825 C2800 0.950 . S
H2826 C2802 0.950 . S
H2827 C2803 0.949 . S
H2828 C2805 0.950 . S
H2829 C2807 0.950 . S
C2830 C2831 1.349 . S
C2830 C2832 1.327 . S
C2830 H2855 0.950 . S
C2831 C2830 1.349 . S
C2831 C2847 1.349 . S
C2832 C2830 1.327 . S
C2832 C2851 1.429 . S
C2832 H2856 0.950 . S
C2833 C2850 1.574 . S
C2833 C2852 1.368 . S
C2833 H2857 0.949 . S
H2834 C2838 0.949 . S
C2835 C2836 1.349 . S
C2835 C2837 1.327 . S
C2835 H2858 0.950 . S
C2836 C2835 1.349 . S
C2836 C2848 1.349 . S
C2837 C2835 1.327 . S
C2837 C2853 1.429 . S
C2837 H2859 0.950 . S
C2838 H2834 0.949 . S
C2838 C2846 1.574 . S
C2838 C2854 1.368 . S
H2839 C2847 0.950 . S
H2840 C2845 0.950 . S
H2841 C2846 0.949 . S
H2842 C2848 0.950 . S
H2843 C2849 0.950 . S
H2844 C2850 0.949 . S
C2845 H2840 0.950 . S
C2845 C2847 1.327 . S
C2845 C2851 1.429 . S
C2846 C2838 1.574 . S
C2846 H2841 0.949 . S
C2846 C2852 1.368 1_554 S
C2847 C2831 1.349 . S
C2847 H2839 0.950 . S
C2847 C2845 1.327 . S
C2848 C2836 1.349 . S
C2848 H2842 0.950 . S
C2848 C2849 1.327 . S
C2849 H2843 0.950 . S
C2849 C2848 1.327 . S
C2849 C2853 1.429 . S
C2850 C2833 1.574 . S
C2850 H2844 0.949 . S
C2850 C2854 1.368 1_556 S
C2851 C2832 1.429 . S
C2851 C2845 1.429 . S
C2851 C2852 1.523 . S
C2852 C2833 1.368 . S
C2852 C2846 1.368 1_556 S
C2852 C2851 1.523 . S
C2853 C2837 1.429 . S
C2853 C2849 1.429 . S
C2853 C2854 1.523 . S
C2854 C2838 1.368 . S
C2854 C2850 1.368 1_554 S
C2854 C2853 1.523 . S
H2855 C2830 0.950 . S
H2856 C2832 0.950 . S
H2857 C2833 0.949 . S
H2858 C2835 0.950 . S
H2859 C2837 0.950 . S
C2860 C2861 1.349 . S
C2860 C2862 1.327 . S
C2860 H2885 0.950 . S
C2861 C2860 1.349 . S
C2861 C2877 1.349 . S
C2862 C2860 1.327 . S
C2862 C2881 1.429 . S
C2862 H2886 0.950 . S
C2863 C2880 1.574 . S
C2863 C2882 1.368 . S
C2863 H2887 0.949 . S
H2864 C2868 0.949 . S
C2865 C2866 1.349 . S
C2865 C2867 1.327 . S
C2865 H2888 0.950 . S
C2866 C2865 1.349 . S
C2866 C2878 1.349 . S
C2867 C2865 1.327 . S
C2867 C2883 1.429 . S
C2867 H2889 0.950 . S
C2868 H2864 0.949 . S
C2868 C2876 1.574 . S
C2868 C2884 1.368 . S
H2869 C2877 0.950 . S
H2870 C2875 0.950 . S
H2871 C2876 0.949 . S
H2872 C2878 0.950 . S
H2873 C2879 0.950 . S
H2874 C2880 0.949 . S
C2875 H2870 0.950 . S
C2875 C2877 1.327 . S
C2875 C2881 1.429 . S
C2876 C2868 1.574 . S
C2876 H2871 0.949 . S
C2876 C2882 1.368 . S
C2877 C2861 1.349 . S
C2877 H2869 0.950 . S
C2877 C2875 1.327 . S
C2878 C2866 1.349 . S
C2878 H2872 0.950 . S
C2878 C2879 1.327 . S
C2879 H2873 0.950 . S
C2879 C2878 1.327 . S
C2879 C2883 1.429 . S
C2880 C2863 1.574 . S
C2880 H2874 0.949 . S
C2880 C2884 1.368 . S
C2881 C2862 1.429 . S
C2881 C2875 1.429 . S
C2881 C2882 1.523 . S
C2882 C2863 1.368 . S
C2882 C2876 1.368 . S
C2882 C2881 1.523 . S
C2883 C2867 1.429 . S
C2883 C2879 1.429 . S
C2883 C2884 1.523 . S
C2884 C2868 1.368 . S
C2884 C2880 1.368 . S
C2884 C2883 1.523 . S
H2885 C2860 0.950 . S
H2886 C2862 0.950 . S
H2887 C2863 0.949 . S
H2888 C2865 0.950 . S
H2889 C2867 0.950 . S
C2890 C2891 1.349 . S
C2890 C2892 1.327 . S
C2890 H2915 0.950 . S
C2891 C2890 1.349 . S
C2891 C2907 1.349 . S
C2892 C2890 1.327 . S
C2892 C2911 1.429 . S
C2892 H2916 0.950 . S
C2893 C2910 1.574 . S
C2893 C2912 1.368 . S
C2893 H2917 0.949 . S
H2894 C2898 0.949 . S
C2895 C2896 1.349 . S
C2895 C2897 1.327 . S
C2895 H2918 0.950 . S
C2896 C2895 1.349 . S
C2896 C2908 1.349 . S
C2897 C2895 1.327 . S
C2897 C2913 1.429 . S
C2897 H2919 0.950 . S
C2898 H2894 0.949 . S
C2898 C2906 1.574 . S
C2898 C2914 1.368 . S
H2899 C2907 0.950 . S
H2900 C2905 0.950 . S
H2901 C2906 0.949 . S
H2902 C2908 0.950 . S
H2903 C2909 0.950 . S
H2904 C2910 0.949 . S
C2905 H2900 0.950 . S
C2905 C2907 1.327 . S
C2905 C2911 1.429 . S
C2906 C2898 1.574 . S
C2906 H2901 0.949 . S
C2906 C2912 1.368 . S
C2907 C2891 1.349 . S
C2907 H2899 0.950 . S
C2907 C2905 1.327 . S
C2908 C2896 1.349 . S
C2908 H2902 0.950 . S
C2908 C2909 1.327 . S
C2909 H2903 0.950 . S
C2909 C2908 1.327 . S
C2909 C2913 1.429 . S
C2910 C2893 1.574 . S
C2910 H2904 0.949 . S
C2910 C2914 1.368 . S
C2911 C2892 1.429 . S
C2911 C2905 1.429 . S
C2911 C2912 1.523 . S
C2912 C2893 1.368 . S
C2912 C2906 1.368 . S
C2912 C2911 1.523 . S
C2913 C2897 1.429 . S
C2913 C2909 1.429 . S
C2913 C2914 1.523 . S
C2914 C2898 1.368 . S
C2914 C2910 1.368 . S
C2914 C2913 1.523 . S
H2915 C2890 0.950 . S
H2916 C2892 0.950 . S
H2917 C2893 0.949 . S
H2918 C2895 0.950 . S
H2919 C2897 0.950 . S
C2920 C2921 1.349 . S
C2920 C2922 1.327 . S
C2920 H2945 0.950 . S
C2921 C2920 1.349 . S
C2921 C2937 1.349 . S
C2922 C2920 1.327 . S
C2922 C2941 1.429 . S
C2922 H2946 0.950 . S
C2923 C2940 1.574 . S
C2923 C2942 1.368 . S
C2923 H2947 0.949 . S
H2924 C2928 0.949 . S
C2925 C2926 1.349 . S
C2925 C2927 1.327 . S
C2925 H2948 0.950 . S
C2926 C2925 1.349 . S
C2926 C2938 1.349 . S
C2927 C2925 1.327 . S
C2927 C2943 1.429 . S
C2927 H2949 0.950 . S
C2928 H2924 0.949 . S
C2928 C2936 1.574 . S
C2928 C2944 1.368 . S
H2929 C2937 0.950 . S
H2930 C2935 0.950 . S
H2931 C2936 0.949 . S
H2932 C2938 0.950 . S
H2933 C2939 0.950 . S
H2934 C2940 0.949 . S
C2935 H2930 0.950 . S
C2935 C2937 1.327 . S
C2935 C2941 1.429 . S
C2936 C2928 1.574 . S
C2936 H2931 0.949 . S
C2936 C2942 1.368 . S
C2937 C2921 1.349 . S
C2937 H2929 0.950 . S
C2937 C2935 1.327 . S
C2938 C2926 1.349 . S
C2938 H2932 0.950 . S
C2938 C2939 1.327 . S
C2939 H2933 0.950 . S
C2939 C2938 1.327 . S
C2939 C2943 1.429 . S
C2940 C2923 1.574 . S
C2940 H2934 0.949 . S
C2940 C2944 1.368 . S
C2941 C2922 1.429 . S
C2941 C2935 1.429 . S
C2941 C2942 1.523 . S
C2942 C2923 1.368 . S
C2942 C2936 1.368 . S
C2942 C2941 1.523 . S
C2943 C2927 1.429 . S
C2943 C2939 1.429 . S
C2943 C2944 1.523 . S
C2944 C2928 1.368 . S
C2944 C2940 1.368 . S
C2944 C2943 1.523 . S
H2945 C2920 0.950 . S
H2946 C2922 0.950 . S
H2947 C2923 0.949 . S
H2948 C2925 0.950 . S
H2949 C2927 0.950 . S
C2950 C2951 1.349 . S
C2950 C2952 1.327 . S
C2950 H2975 0.950 . S
C2951 C2950 1.349 . S
C2951 C2967 1.349 . S
C2952 C2950 1.327 . S
C2952 C2971 1.429 . S
C2952 H2976 0.950 . S
C2953 C2970 1.574 . S
C2953 C2972 1.368 1_554 S
C2953 H2977 0.949 . S
H2954 C2958 0.949 . S
C2955 C2956 1.349 . S
C2955 C2957 1.327 . S
C2955 H2978 0.950 . S
C2956 C2955 1.349 . S
C2956 C2968 1.349 . S
C2957 C2955 1.327 . S
C2957 C2973 1.429 . S
C2957 H2979 0.950 . S
C2958 H2954 0.949 . S
C2958 C2966 1.574 . S
C2958 C2974 1.368 1_556 S
H2959 C2967 0.950 . S
H2960 C2965 0.950 . S
H2961 C2966 0.949 . S
H2962 C2968 0.950 . S
H2963 C2969 0.950 . S
H2964 C2970 0.949 . S
C2965 H2960 0.950 . S
C2965 C2967 1.327 . S
C2965 C2971 1.429 . S
C2966 C2958 1.574 . S
C2966 H2961 0.949 . S
C2966 C2972 1.368 . S
C2967 C2951 1.349 . S
C2967 H2959 0.950 . S
C2967 C2965 1.327 . S
C2968 C2956 1.349 . S
C2968 H2962 0.950 . S
C2968 C2969 1.327 . S
C2969 H2963 0.950 . S
C2969 C2968 1.327 . S
C2969 C2973 1.429 . S
C2970 C2953 1.574 . S
C2970 H2964 0.949 . S
C2970 C2974 1.368 . S
C2971 C2952 1.429 . S
C2971 C2965 1.429 . S
C2971 C2972 1.523 . S
C2972 C2953 1.368 1_556 S
C2972 C2966 1.368 . S
C2972 C2971 1.523 . S
C2973 C2957 1.429 . S
C2973 C2969 1.429 . S
C2973 C2974 1.523 . S
C2974 C2958 1.368 1_554 S
C2974 C2970 1.368 . S
C2974 C2973 1.523 . S
H2975 C2950 0.950 . S
H2976 C2952 0.950 . S
H2977 C2953 0.949 . S
H2978 C2955 0.950 . S
H2979 C2957 0.950 . S
C2980 C2981 1.349 . S
C2980 C2982 1.327 . S
C2980 H3005 0.950 . S
C2981 C2980 1.349 . S
C2981 C2997 1.349 . S
C2982 C2980 1.327 . S
C2982 C3001 1.429 . S
C2982 H3006 0.950 . S
C2983 C3000 1.574 . S
C2983 C3002 1.368 . S
C2983 H3007 0.949 . S
H2984 C2988 0.949 . S
C2985 C2986 1.349 . S
C2985 C2987 1.327 . S
C2985 H3008 0.950 . S
C2986 C2985 1.349 . S
C2986 C2998 1.349 . S
C2987 C2985 1.327 . S
C2987 C3003 1.429 . S
C2987 H3009 0.950 . S
C2988 H2984 0.949 . S
C2988 C2996 1.574 . S
C2988 C3004 1.368 . S
H2989 C2997 0.950 . S
H2990 C2995 0.950 . S
H2991 C2996 0.949 . S
H2992 C2998 0.950 . S
H2993 C2999 0.950 . S
H2994 C3000 0.949 . S
C2995 H2990 0.950 . S
C2995 C2997 1.327 . S
C2995 C3001 1.429 . S
C2996 C2988 1.574 . S
C2996 H2991 0.949 . S
C2996 C3002 1.368 . S
C2997 C2981 1.349 . S
C2997 H2989 0.950 . S
C2997 C2995 1.327 . S
C2998 C2986 1.349 . S
C2998 H2992 0.950 . S
C2998 C2999 1.327 . S
C2999 H2993 0.950 . S
C2999 C2998 1.327 . S
C2999 C3003 1.429 . S
C3000 C2983 1.574 . S
C3000 H2994 0.949 . S
C3000 C3004 1.368 . S
C3001 C2982 1.429 . S
C3001 C2995 1.429 . S
C3001 C3002 1.523 . S
C3002 C2983 1.368 . S
C3002 C2996 1.368 . S
C3002 C3001 1.523 . S
C3003 C2987 1.429 . S
C3003 C2999 1.429 . S
C3003 C3004 1.523 . S
C3004 C2988 1.368 . S
C3004 C3000 1.368 . S
C3004 C3003 1.523 . S
H3005 C2980 0.950 . S
H3006 C2982 0.950 . S
H3007 C2983 0.949 . S
H3008 C2985 0.950 . S
H3009 C2987 0.950 . S
C3010 C3011 1.349 . S
C3010 C3012 1.327 . S
C3010 H3035 0.950 . S
C3011 C3010 1.349 . S
C3011 C3027 1.349 . S
C3012 C3010 1.327 . S
C3012 C3031 1.429 . S
C3012 H3036 0.950 . S
C3013 C3030 1.574 . S
C3013 C3032 1.368 . S
C3013 H3037 0.949 . S
H3014 C3018 0.949 . S
C3015 C3016 1.349 . S
C3015 C3017 1.327 . S
C3015 H3038 0.950 . S
C3016 C3015 1.349 . S
C3016 C3028 1.349 . S
C3017 C3015 1.327 . S
C3017 C3033 1.429 . S
C3017 H3039 0.950 . S
C3018 H3014 0.949 . S
C3018 C3026 1.574 . S
C3018 C3034 1.368 . S
H3019 C3027 0.950 . S
H3020 C3025 0.950 . S
H3021 C3026 0.949 . S
H3022 C3028 0.950 . S
H3023 C3029 0.950 . S
H3024 C3030 0.949 . S
C3025 H3020 0.950 . S
C3025 C3027 1.327 . S
C3025 C3031 1.429 . S
C3026 C3018 1.574 . S
C3026 H3021 0.949 . S
C3026 C3032 1.368 . S
C3027 C3011 1.349 . S
C3027 H3019 0.950 . S
C3027 C3025 1.327 . S
C3028 C3016 1.349 . S
C3028 H3022 0.950 . S
C3028 C3029 1.327 . S
C3029 H3023 0.950 . S
C3029 C3028 1.327 . S
C3029 C3033 1.429 . S
C3030 C3013 1.574 . S
C3030 H3024 0.949 . S
C3030 C3034 1.368 . S
C3031 C3012 1.429 . S
C3031 C3025 1.429 . S
C3031 C3032 1.523 . S
C3032 C3013 1.368 . S
C3032 C3026 1.368 . S
C3032 C3031 1.523 . S
C3033 C3017 1.429 . S
C3033 C3029 1.429 . S
C3033 C3034 1.523 . S
C3034 C3018 1.368 . S
C3034 C3030 1.368 . S
C3034 C3033 1.523 . S
H3035 C3010 0.950 . S
H3036 C3012 0.950 . S
H3037 C3013 0.949 . S
H3038 C3015 0.950 . S
H3039 C3017 0.950 . S
C3040 C3041 1.349 . S
C3040 C3042 1.327 . S
C3040 H3065 0.950 . S
C3041 C3040 1.349 . S
C3041 C3057 1.349 . S
C3042 C3040 1.327 . S
C3042 C3061 1.429 . S
C3042 H3066 0.950 . S
C3043 C3060 1.574 . S
C3043 C3062 1.368 . S
C3043 H3067 0.949 . S
H3044 C3048 0.949 . S
C3045 C3046 1.349 . S
C3045 C3047 1.327 . S
C3045 H3068 0.950 . S
C3046 C3045 1.349 . S
C3046 C3058 1.349 . S
C3047 C3045 1.327 . S
C3047 C3063 1.429 . S
C3047 H3069 0.950 . S
C3048 H3044 0.949 . S
C3048 C3056 1.574 . S
C3048 C3064 1.368 . S
H3049 C3057 0.950 . S
H3050 C3055 0.950 . S
H3051 C3056 0.949 . S
H3052 C3058 0.950 . S
H3053 C3059 0.950 . S
H3054 C3060 0.949 . S
C3055 H3050 0.950 . S
C3055 C3057 1.327 . S
C3055 C3061 1.429 . S
C3056 C3048 1.574 . S
C3056 H3051 0.949 . S
C3056 C3062 1.368 . S
C3057 C3041 1.349 . S
C3057 H3049 0.950 . S
C3057 C3055 1.327 . S
C3058 C3046 1.349 . S
C3058 H3052 0.950 . S
C3058 C3059 1.327 . S
C3059 H3053 0.950 . S
C3059 C3058 1.327 . S
C3059 C3063 1.429 . S
C3060 C3043 1.574 . S
C3060 H3054 0.949 . S
C3060 C3064 1.368 . S
C3061 C3042 1.429 . S
C3061 C3055 1.429 . S
C3061 C3062 1.523 . S
C3062 C3043 1.368 . S
C3062 C3056 1.368 . S
C3062 C3061 1.523 . S
C3063 C3047 1.429 . S
C3063 C3059 1.429 . S
C3063 C3064 1.523 . S
C3064 C3048 1.368 . S
C3064 C3060 1.368 . S
C3064 C3063 1.523 . S
H3065 C3040 0.950 . S
H3066 C3042 0.950 . S
H3067 C3043 0.949 . S
H3068 C3045 0.950 . S
H3069 C3047 0.950 . S
C3070 C3071 1.349 . S
C3070 C3072 1.327 . S
C3070 H3095 0.950 . S
C3071 C3070 1.349 . S
C3071 C3087 1.349 . S
C3072 C3070 1.327 . S
C3072 C3091 1.429 . S
C3072 H3096 0.950 . S
C3073 C3090 1.574 . S
C3073 C3092 1.368 . S
C3073 H3097 0.949 . S
H3074 C3078 0.949 . S
C3075 C3076 1.349 . S
C3075 C3077 1.327 . S
C3075 H3098 0.950 . S
C3076 C3075 1.349 . S
C3076 C3088 1.349 . S
C3077 C3075 1.327 . S
C3077 C3093 1.429 . S
C3077 H3099 0.950 . S
C3078 H3074 0.949 . S
C3078 C3086 1.574 . S
C3078 C3094 1.368 . S
H3079 C3087 0.950 . S
H3080 C3085 0.950 . S
H3081 C3086 0.949 . S
H3082 C3088 0.950 . S
H3083 C3089 0.950 . S
H3084 C3090 0.949 . S
C3085 H3080 0.950 . S
C3085 C3087 1.327 . S
C3085 C3091 1.429 . S
C3086 C3078 1.574 . S
C3086 H3081 0.949 . S
C3086 C3092 1.368 . S
C3087 C3071 1.349 . S
C3087 H3079 0.950 . S
C3087 C3085 1.327 . S
C3088 C3076 1.349 . S
C3088 H3082 0.950 . S
C3088 C3089 1.327 . S
C3089 H3083 0.950 . S
C3089 C3088 1.327 . S
C3089 C3093 1.429 . S
C3090 C3073 1.574 . S
C3090 H3084 0.949 . S
C3090 C3094 1.368 . S
C3091 C3072 1.429 . S
C3091 C3085 1.429 . S
C3091 C3092 1.523 . S
C3092 C3073 1.368 . S
C3092 C3086 1.368 . S
C3092 C3091 1.523 . S
C3093 C3077 1.429 . S
C3093 C3089 1.429 . S
C3093 C3094 1.523 . S
C3094 C3078 1.368 . S
C3094 C3090 1.368 . S
C3094 C3093 1.523 . S
H3095 C3070 0.950 . S
H3096 C3072 0.950 . S
H3097 C3073 0.949 . S
H3098 C3075 0.950 . S
H3099 C3077 0.950 . S
C3100 C3101 1.349 . S
C3100 C3102 1.327 . S
C3100 H3125 0.950 . S
C3101 C3100 1.349 . S
C3101 C3117 1.349 . S
C3102 C3100 1.327 . S
C3102 C3121 1.429 . S
C3102 H3126 0.950 . S
C3103 C3120 1.574 . S
C3103 C3122 1.368 . S
C3103 H3127 0.949 . S
H3104 C3108 0.949 . S
C3105 C3106 1.349 . S
C3105 C3107 1.327 . S
C3105 H3128 0.950 . S
C3106 C3105 1.349 . S
C3106 C3118 1.349 . S
C3107 C3105 1.327 . S
C3107 C3123 1.429 . S
C3107 H3129 0.950 . S
C3108 H3104 0.949 . S
C3108 C3116 1.574 . S
C3108 C3124 1.368 . S
H3109 C3117 0.950 . S
H3110 C3115 0.950 . S
H3111 C3116 0.949 . S
H3112 C3118 0.950 . S
H3113 C3119 0.950 . S
H3114 C3120 0.949 . S
C3115 H3110 0.950 . S
C3115 C3117 1.327 . S
C3115 C3121 1.429 . S
C3116 C3108 1.574 . S
C3116 H3111 0.949 . S
C3116 C3122 1.368 . S
C3117 C3101 1.349 . S
C3117 H3109 0.950 . S
C3117 C3115 1.327 . S
C3118 C3106 1.349 . S
C3118 H3112 0.950 . S
C3118 C3119 1.327 . S
C3119 H3113 0.950 . S
C3119 C3118 1.327 . S
C3119 C3123 1.429 . S
C3120 C3103 1.574 . S
C3120 H3114 0.949 . S
C3120 C3124 1.368 . S
C3121 C3102 1.429 . S
C3121 C3115 1.429 . S
C3121 C3122 1.523 . S
C3122 C3103 1.368 . S
C3122 C3116 1.368 . S
C3122 C3121 1.523 . S
C3123 C3107 1.429 . S
C3123 C3119 1.429 . S
C3123 C3124 1.523 . S
C3124 C3108 1.368 . S
C3124 C3120 1.368 . S
C3124 C3123 1.523 . S
H3125 C3100 0.950 . S
H3126 C3102 0.950 . S
H3127 C3103 0.949 . S
H3128 C3105 0.950 . S
H3129 C3107 0.950 . S
C3130 C3131 1.349 . S
C3130 C3132 1.327 . S
C3130 H3155 0.950 . S
C3131 C3130 1.349 . S
C3131 C3147 1.349 . S
C3132 C3130 1.327 . S
C3132 C3151 1.429 . S
C3132 H3156 0.950 . S
C3133 C3150 1.574 . S
C3133 C3152 1.368 . S
C3133 H3157 0.949 . S
H3134 C3138 0.949 . S
C3135 C3136 1.349 . S
C3135 C3137 1.327 . S
C3135 H3158 0.950 . S
C3136 C3135 1.349 . S
C3136 C3148 1.349 . S
C3137 C3135 1.327 . S
C3137 C3153 1.429 . S
C3137 H3159 0.950 . S
C3138 H3134 0.949 . S
C3138 C3146 1.574 . S
C3138 C3154 1.368 . S
H3139 C3147 0.950 . S
H3140 C3145 0.950 . S
H3141 C3146 0.949 . S
H3142 C3148 0.950 . S
H3143 C3149 0.950 . S
H3144 C3150 0.949 . S
C3145 H3140 0.950 . S
C3145 C3147 1.327 . S
C3145 C3151 1.429 . S
C3146 C3138 1.574 . S
C3146 H3141 0.949 . S
C3146 C3152 1.368 . S
C3147 C3131 1.349 . S
C3147 H3139 0.950 . S
C3147 C3145 1.327 . S
C3148 C3136 1.349 . S
C3148 H3142 0.950 . S
C3148 C3149 1.327 . S
C3149 H3143 0.950 . S
C3149 C3148 1.327 . S
C3149 C3153 1.429 . S
C3150 C3133 1.574 . S
C3150 H3144 0.949 . S
C3150 C3154 1.368 . S
C3151 C3132 1.429 . S
C3151 C3145 1.429 . S
C3151 C3152 1.523 . S
C3152 C3133 1.368 . S
C3152 C3146 1.368 . S
C3152 C3151 1.523 . S
C3153 C3137 1.429 . S
C3153 C3149 1.429 . S
C3153 C3154 1.523 . S
C3154 C3138 1.368 . S
C3154 C3150 1.368 . S
C3154 C3153 1.523 . S
H3155 C3130 0.950 . S
H3156 C3132 0.950 . S
H3157 C3133 0.949 . S
H3158 C3135 0.950 . S
H3159 C3137 0.950 . S
C3160 C3161 1.349 . S
C3160 C3162 1.327 . S
C3160 H3185 0.950 . S
C3161 C3160 1.349 . S
C3161 C3177 1.349 . S
C3162 C3160 1.327 . S
C3162 C3181 1.429 . S
C3162 H3186 0.950 . S
C3163 C3180 1.574 . S
C3163 C3182 1.368 . S
C3163 H3187 0.949 . S
H3164 C3168 0.949 . S
C3165 C3166 1.349 . S
C3165 C3167 1.327 . S
C3165 H3188 0.950 . S
C3166 C3165 1.349 . S
C3166 C3178 1.349 . S
C3167 C3165 1.327 . S
C3167 C3183 1.429 . S
C3167 H3189 0.950 . S
C3168 H3164 0.949 . S
C3168 C3176 1.574 . S
C3168 C3184 1.368 . S
H3169 C3177 0.950 . S
H3170 C3175 0.950 . S
H3171 C3176 0.949 . S
H3172 C3178 0.950 . S
H3173 C3179 0.950 . S
H3174 C3180 0.949 . S
C3175 H3170 0.950 . S
C3175 C3177 1.327 . S
C3175 C3181 1.429 . S
C3176 C3168 1.574 . S
C3176 H3171 0.949 . S
C3176 C3182 1.368 . S
C3177 C3161 1.349 . S
C3177 H3169 0.950 . S
C3177 C3175 1.327 . S
C3178 C3166 1.349 . S
C3178 H3172 0.950 . S
C3178 C3179 1.327 . S
C3179 H3173 0.950 . S
C3179 C3178 1.327 . S
C3179 C3183 1.429 . S
C3180 C3163 1.574 . S
C3180 H3174 0.949 . S
C3180 C3184 1.368 . S
C3181 C3162 1.429 . S
C3181 C3175 1.429 . S
C3181 C3182 1.523 . S
C3182 C3163 1.368 . S
C3182 C3176 1.368 . S
C3182 C3181 1.523 . S
C3183 C3167 1.429 . S
C3183 C3179 1.429 . S
C3183 C3184 1.523 . S
C3184 C3168 1.368 . S
C3184 C3180 1.368 . S
C3184 C3183 1.523 . S
H3185 C3160 0.950 . S
H3186 C3162 0.950 . S
H3187 C3163 0.949 . S
H3188 C3165 0.950 . S
H3189 C3167 0.950 . S
C3190 C3191 1.349 . S
C3190 C3192 1.327 . S
C3190 H3215 0.950 . S
C3191 C3190 1.349 . S
C3191 C3207 1.349 . S
C3192 C3190 1.327 . S
C3192 C3211 1.429 . S
C3192 H3216 0.950 . S
C3193 C3210 1.574 . S
C3193 C3212 1.368 . S
C3193 H3217 0.949 . S
H3194 C3198 0.949 . S
C3195 C3196 1.349 . S
C3195 C3197 1.327 . S
C3195 H3218 0.950 . S
C3196 C3195 1.349 . S
C3196 C3208 1.349 . S
C3197 C3195 1.327 . S
C3197 C3213 1.429 . S
C3197 H3219 0.950 . S
C3198 H3194 0.949 . S
C3198 C3206 1.574 . S
C3198 C3214 1.368 . S
H3199 C3207 0.950 . S
H3200 C3205 0.950 . S
H3201 C3206 0.949 . S
H3202 C3208 0.950 . S
H3203 C3209 0.950 . S
H3204 C3210 0.949 . S
C3205 H3200 0.950 . S
C3205 C3207 1.327 . S
C3205 C3211 1.429 . S
C3206 C3198 1.574 . S
C3206 H3201 0.949 . S
C3206 C3212 1.368 . S
C3207 C3191 1.349 . S
C3207 H3199 0.950 . S
C3207 C3205 1.327 . S
C3208 C3196 1.349 . S
C3208 H3202 0.950 . S
C3208 C3209 1.327 . S
C3209 H3203 0.950 . S
C3209 C3208 1.327 . S
C3209 C3213 1.429 . S
C3210 C3193 1.574 . S
C3210 H3204 0.949 . S
C3210 C3214 1.368 . S
C3211 C3192 1.429 . S
C3211 C3205 1.429 . S
C3211 C3212 1.523 . S
C3212 C3193 1.368 . S
C3212 C3206 1.368 . S
C3212 C3211 1.523 . S
C3213 C3197 1.429 . S
C3213 C3209 1.429 . S
C3213 C3214 1.523 . S
C3214 C3198 1.368 . S
C3214 C3210 1.368 . S
C3214 C3213 1.523 . S
H3215 C3190 0.950 . S
H3216 C3192 0.950 . S
H3217 C3193 0.949 . S
H3218 C3195 0.950 . S
H3219 C3197 0.950 . S
C3220 C3221 1.349 . S
C3220 C3222 1.327 . S
C3220 H3245 0.950 . S
C3221 C3220 1.349 . S
C3221 C3237 1.349 . S
C3222 C3220 1.327 . S
C3222 C3241 1.429 . S
C3222 H3246 0.950 . S
C3223 C3240 1.574 . S
C3223 C3242 1.368 . S
C3223 H3247 0.949 . S
H3224 C3228 0.949 . S
C3225 C3226 1.349 . S
C3225 C3227 1.327 . S
C3225 H3248 0.950 . S
C3226 C3225 1.349 . S
C3226 C3238 1.349 . S
C3227 C3225 1.327 . S
C3227 C3243 1.429 . S
C3227 H3249 0.950 . S
C3228 H3224 0.949 . S
C3228 C3236 1.574 . S
C3228 C3244 1.368 . S
H3229 C3237 0.950 . S
H3230 C3235 0.950 . S
H3231 C3236 0.949 . S
H3232 C3238 0.950 . S
H3233 C3239 0.950 . S
H3234 C3240 0.949 . S
C3235 H3230 0.950 . S
C3235 C3237 1.327 . S
C3235 C3241 1.429 . S
C3236 C3228 1.574 . S
C3236 H3231 0.949 . S
C3236 C3242 1.368 . S
C3237 C3221 1.349 . S
C3237 H3229 0.950 . S
C3237 C3235 1.327 . S
C3238 C3226 1.349 . S
C3238 H3232 0.950 . S
C3238 C3239 1.327 . S
C3239 H3233 0.950 . S
C3239 C3238 1.327 . S
C3239 C3243 1.429 . S
C3240 C3223 1.574 . S
C3240 H3234 0.949 . S
C3240 C3244 1.368 . S
C3241 C3222 1.429 . S
C3241 C3235 1.429 . S
C3241 C3242 1.523 . S
C3242 C3223 1.368 . S
C3242 C3236 1.368 . S
C3242 C3241 1.523 . S
C3243 C3227 1.429 . S
C3243 C3239 1.429 . S
C3243 C3244 1.523 . S
C3244 C3228 1.368 . S
C3244 C3240 1.368 . S
C3244 C3243 1.523 . S
H3245 C3220 0.950 . S
H3246 C3222 0.950 . S
H3247 C3223 0.949 . S
H3248 C3225 0.950 . S
H3249 C3227 0.950 . S
C3250 C3251 1.349 . S
C3250 C3252 1.327 . S
C3250 H3275 0.950 . S
C3251 C3250 1.349 . S
C3251 C3267 1.349 . S
C3252 C3250 1.327 . S
C3252 C3271 1.429 . S
C3252 H3276 0.950 . S
C3253 C3270 1.574 . S
C3253 C3272 1.368 . S
C3253 H3277 0.949 . S
H3254 C3258 0.949 . S
C3255 C3256 1.349 . S
C3255 C3257 1.327 . S
C3255 H3278 0.950 . S
C3256 C3255 1.349 . S
C3256 C3268 1.349 . S
C3257 C3255 1.327 . S
C3257 C3273 1.429 . S
C3257 H3279 0.950 . S
C3258 H3254 0.949 . S
C3258 C3266 1.574 . S
C3258 C3274 1.368 . S
H3259 C3267 0.950 . S
H3260 C3265 0.950 . S
H3261 C3266 0.949 . S
H3262 C3268 0.950 . S
H3263 C3269 0.950 . S
H3264 C3270 0.949 . S
C3265 H3260 0.950 . S
C3265 C3267 1.327 . S
C3265 C3271 1.429 . S
C3266 C3258 1.574 . S
C3266 H3261 0.949 . S
C3266 C3272 1.368 . S
C3267 C3251 1.349 . S
C3267 H3259 0.950 . S
C3267 C3265 1.327 . S
C3268 C3256 1.349 . S
C3268 H3262 0.950 . S
C3268 C3269 1.327 . S
C3269 H3263 0.950 . S
C3269 C3268 1.327 . S
C3269 C3273 1.429 . S
C3270 C3253 1.574 . S
C3270 H3264 0.949 . S
C3270 C3274 1.368 . S
C3271 C3252 1.429 . S
C3271 C3265 1.429 . S
C3271 C3272 1.523 . S
C3272 C3253 1.368 . S
C3272 C3266 1.368 . S
C3272 C3271 1.523 . S
C3273 C3257 1.429 . S
C3273 C3269 1.429 . S
C3273 C3274 1.523 . S
C3274 C3258 1.368 . S
C3274 C3270 1.368 . S
C3274 C3273 1.523 . S
H3275 C3250 0.950 . S
H3276 C3252 0.950 . S
H3277 C3253 0.949 . S
H3278 C3255 0.950 . S
H3279 C3257 0.950 . S
C3280 C3281 1.349 . S
C3280 C3282 1.327 . S
C3280 H3305 0.950 . S
C3281 C3280 1.349 . S
C3281 C3297 1.349 . S
C3282 C3280 1.327 . S
C3282 C3301 1.429 . S
C3282 H3306 0.950 . S
C3283 C3300 1.574 . S
C3283 C3302 1.368 . S
C3283 H3307 0.949 . S
H3284 C3288 0.949 . S
C3285 C3286 1.349 . S
C3285 C3287 1.327 . S
C3285 H3308 0.950 . S
C3286 C3285 1.349 . S
C3286 C3298 1.349 . S
C3287 C3285 1.327 . S
C3287 C3303 1.429 . S
C3287 H3309 0.950 . S
C3288 H3284 0.949 . S
C3288 C3296 1.574 . S
C3288 C3304 1.368 . S
H3289 C3297 0.950 . S
H3290 C3295 0.950 . S
H3291 C3296 0.949 . S
H3292 C3298 0.950 . S
H3293 C3299 0.950 . S
H3294 C3300 0.949 . S
C3295 H3290 0.950 . S
C3295 C3297 1.327 . S
C3295 C3301 1.429 . S
C3296 C3288 1.574 . S
C3296 H3291 0.949 . S
C3296 C3302 1.368 . S
C3297 C3281 1.349 . S
C3297 H3289 0.950 . S
C3297 C3295 1.327 . S
C3298 C3286 1.349 . S
C3298 H3292 0.950 . S
C3298 C3299 1.327 . S
C3299 H3293 0.950 . S
C3299 C3298 1.327 . S
C3299 C3303 1.429 . S
C3300 C3283 1.574 . S
C3300 H3294 0.949 . S
C3300 C3304 1.368 . S
C3301 C3282 1.429 . S
C3301 C3295 1.429 . S
C3301 C3302 1.523 . S
C3302 C3283 1.368 . S
C3302 C3296 1.368 . S
C3302 C3301 1.523 . S
C3303 C3287 1.429 . S
C3303 C3299 1.429 . S
C3303 C3304 1.523 . S
C3304 C3288 1.368 . S
C3304 C3300 1.368 . S
C3304 C3303 1.523 . S
H3305 C3280 0.950 . S
H3306 C3282 0.950 . S
H3307 C3283 0.949 . S
H3308 C3285 0.950 . S
H3309 C3287 0.950 . S
C3310 C3311 1.349 . S
C3310 C3312 1.327 . S
C3310 H3335 0.950 . S
C3311 C3310 1.349 . S
C3311 C3327 1.349 . S
C3312 C3310 1.327 . S
C3312 C3331 1.429 . S
C3312 H3336 0.950 . S
C3313 C3330 1.574 . S
C3313 C3332 1.368 . S
C3313 H3337 0.949 . S
H3314 C3318 0.949 . S
C3315 C3316 1.349 . S
C3315 C3317 1.327 . S
C3315 H3338 0.950 . S
C3316 C3315 1.349 . S
C3316 C3328 1.349 . S
C3317 C3315 1.327 . S
C3317 C3333 1.429 . S
C3317 H3339 0.950 . S
C3318 H3314 0.949 . S
C3318 C3326 1.574 . S
C3318 C3334 1.368 . S
H3319 C3327 0.950 . S
H3320 C3325 0.950 . S
H3321 C3326 0.949 . S
H3322 C3328 0.950 . S
H3323 C3329 0.950 . S
H3324 C3330 0.949 . S
C3325 H3320 0.950 . S
C3325 C3327 1.327 . S
C3325 C3331 1.429 . S
C3326 C3318 1.574 . S
C3326 H3321 0.949 . S
C3326 C3332 1.368 . S
C3327 C3311 1.349 . S
C3327 H3319 0.950 . S
C3327 C3325 1.327 . S
C3328 C3316 1.349 . S
C3328 H3322 0.950 . S
C3328 C3329 1.327 . S
C3329 H3323 0.950 . S
C3329 C3328 1.327 . S
C3329 C3333 1.429 . S
C3330 C3313 1.574 . S
C3330 H3324 0.949 . S
C3330 C3334 1.368 . S
C3331 C3312 1.429 . S
C3331 C3325 1.429 . S
C3331 C3332 1.523 . S
C3332 C3313 1.368 . S
C3332 C3326 1.368 . S
C3332 C3331 1.523 . S
C3333 C3317 1.429 . S
C3333 C3329 1.429 . S
C3333 C3334 1.523 . S
C3334 C3318 1.368 . S
C3334 C3330 1.368 . S
C3334 C3333 1.523 . S
H3335 C3310 0.950 . S
H3336 C3312 0.950 . S
H3337 C3313 0.949 . S
H3338 C3315 0.950 . S
H3339 C3317 0.950 . S
C3340 C3341 1.349 . S
C3340 C3342 1.327 . S
C3340 H3365 0.950 . S
C3341 C3340 1.349 . S
C3341 C3357 1.349 . S
C3342 C3340 1.327 . S
C3342 C3361 1.429 . S
C3342 H3366 0.950 . S
C3343 C3360 1.574 . S
C3343 C3362 1.368 . S
C3343 H3367 0.949 . S
H3344 C3348 0.949 . S
C3345 C3346 1.349 . S
C3345 C3347 1.327 . S
C3345 H3368 0.950 . S
C3346 C3345 1.349 . S
C3346 C3358 1.349 . S
C3347 C3345 1.327 . S
C3347 C3363 1.429 . S
C3347 H3369 0.950 . S
C3348 H3344 0.949 . S
C3348 C3356 1.574 . S
C3348 C3364 1.368 . S
H3349 C3357 0.950 . S
H3350 C3355 0.950 . S
H3351 C3356 0.949 . S
H3352 C3358 0.950 . S
H3353 C3359 0.950 . S
H3354 C3360 0.949 . S
C3355 H3350 0.950 . S
C3355 C3357 1.327 . S
C3355 C3361 1.429 . S
C3356 C3348 1.574 . S
C3356 H3351 0.949 . S
C3356 C3362 1.368 . S
C3357 C3341 1.349 . S
C3357 H3349 0.950 . S
C3357 C3355 1.327 . S
C3358 C3346 1.349 . S
C3358 H3352 0.950 . S
C3358 C3359 1.327 . S
C3359 H3353 0.950 . S
C3359 C3358 1.327 . S
C3359 C3363 1.429 . S
C3360 C3343 1.574 . S
C3360 H3354 0.949 . S
C3360 C3364 1.368 . S
C3361 C3342 1.429 . S
C3361 C3355 1.429 . S
C3361 C3362 1.523 . S
C3362 C3343 1.368 . S
C3362 C3356 1.368 . S
C3362 C3361 1.523 . S
C3363 C3347 1.429 . S
C3363 C3359 1.429 . S
C3363 C3364 1.523 . S
C3364 C3348 1.368 . S
C3364 C3360 1.368 . S
C3364 C3363 1.523 . S
H3365 C3340 0.950 . S
H3366 C3342 0.950 . S
H3367 C3343 0.949 . S
H3368 C3345 0.950 . S
H3369 C3347 0.950 . S
C3370 C3371 1.349 . S
C3370 C3372 1.327 . S
C3370 H3395 0.950 . S
C3371 C3370 1.349 . S
C3371 C3387 1.349 . S
C3372 C3370 1.327 . S
C3372 C3391 1.429 . S
C3372 H3396 0.950 . S
C3373 C3390 1.574 . S
C3373 C3392 1.368 . S
C3373 H3397 0.949 . S
H3374 C3378 0.949 . S
C3375 C3376 1.349 . S
C3375 C3377 1.327 . S
C3375 H3398 0.950 . S
C3376 C3375 1.349 . S
C3376 C3388 1.349 . S
C3377 C3375 1.327 . S
C3377 C3393 1.429 . S
C3377 H3399 0.950 . S
C3378 H3374 0.949 . S
C3378 C3386 1.574 . S
C3378 C3394 1.368 . S
H3379 C3387 0.950 . S
H3380 C3385 0.950 . S
H3381 C3386 0.949 . S
H3382 C3388 0.950 . S
H3383 C3389 0.950 . S
H3384 C3390 0.949 . S
C3385 H3380 0.950 . S
C3385 C3387 1.327 . S
C3385 C3391 1.429 . S
C3386 C3378 1.574 . S
C3386 H3381 0.949 . S
C3386 C3392 1.368 . S
C3387 C3371 1.349 . S
C3387 H3379 0.950 . S
C3387 C3385 1.327 . S
C3388 C3376 1.349 . S
C3388 H3382 0.950 . S
C3388 C3389 1.327 . S
C3389 H3383 0.950 . S
C3389 C3388 1.327 . S
C3389 C3393 1.429 . S
C3390 C3373 1.574 . S
C3390 H3384 0.949 . S
C3390 C3394 1.368 . S
C3391 C3372 1.429 . S
C3391 C3385 1.429 . S
C3391 C3392 1.523 . S
C3392 C3373 1.368 . S
C3392 C3386 1.368 . S
C3392 C3391 1.523 . S
C3393 C3377 1.429 . S
C3393 C3389 1.429 . S
C3393 C3394 1.523 . S
C3394 C3378 1.368 . S
C3394 C3390 1.368 . S
C3394 C3393 1.523 . S
H3395 C3370 0.950 . S
H3396 C3372 0.950 . S
H3397 C3373 0.949 . S
H3398 C3375 0.950 . S
H3399 C3377 0.950 . S
C3400 C3401 1.349 . S
C3400 C3402 1.327 . S
C3400 H3425 0.950 . S
C3401 C3400 1.349 . S
C3401 C3417 1.349 . S
C3402 C3400 1.327 . S
C3402 C3421 1.429 . S
C3402 H3426 0.950 . S
C3403 C3420 1.574 . S
C3403 C3422 1.368 . S
C3403 H3427 0.949 . S
H3404 C3408 0.949 . S
C3405 C3406 1.349 . S
C3405 C3407 1.327 . S
C3405 H3428 0.950 . S
C3406 C3405 1.349 . S
C3406 C3418 1.349 . S
C3407 C3405 1.327 . S
C3407 C3423 1.429 . S
C3407 H3429 0.950 . S
C3408 H3404 0.949 . S
C3408 C3416 1.574 . S
C3408 C3424 1.368 . S
H3409 C3417 0.950 . S
H3410 C3415 0.950 . S
H3411 C3416 0.949 . S
H3412 C3418 0.950 . S
H3413 C3419 0.950 . S
H3414 C3420 0.949 . S
C3415 H3410 0.950 . S
C3415 C3417 1.327 . S
C3415 C3421 1.429 . S
C3416 C3408 1.574 . S
C3416 H3411 0.949 . S
C3416 C3422 1.368 . S
C3417 C3401 1.349 . S
C3417 H3409 0.950 . S
C3417 C3415 1.327 . S
C3418 C3406 1.349 . S
C3418 H3412 0.950 . S
C3418 C3419 1.327 . S
C3419 H3413 0.950 . S
C3419 C3418 1.327 . S
C3419 C3423 1.429 . S
C3420 C3403 1.574 . S
C3420 H3414 0.949 . S
C3420 C3424 1.368 . S
C3421 C3402 1.429 . S
C3421 C3415 1.429 . S
C3421 C3422 1.523 . S
C3422 C3403 1.368 . S
C3422 C3416 1.368 . S
C3422 C3421 1.523 . S
C3423 C3407 1.429 . S
C3423 C3419 1.429 . S
C3423 C3424 1.523 . S
C3424 C3408 1.368 . S
C3424 C3420 1.368 . S
C3424 C3423 1.523 . S
H3425 C3400 0.950 . S
H3426 C3402 0.950 . S
H3427 C3403 0.949 . S
H3428 C3405 0.950 . S
H3429 C3407 0.950 . S
C3430 C3431 1.349 . S
C3430 C3432 1.327 . S
C3430 H3455 0.950 . S
C3431 C3430 1.349 . S
C3431 C3447 1.349 . S
C3432 C3430 1.327 . S
C3432 C3451 1.429 . S
C3432 H3456 0.950 . S
C3433 C3450 1.574 . S
C3433 C3452 1.368 . S
C3433 H3457 0.949 . S
H3434 C3438 0.949 . S
C3435 C3436 1.349 . S
C3435 C3437 1.327 . S
C3435 H3458 0.950 . S
C3436 C3435 1.349 . S
C3436 C3448 1.349 . S
C3437 C3435 1.327 . S
C3437 C3453 1.429 . S
C3437 H3459 0.950 . S
C3438 H3434 0.949 . S
C3438 C3446 1.574 . S
C3438 C3454 1.368 . S
H3439 C3447 0.950 . S
H3440 C3445 0.950 . S
H3441 C3446 0.949 . S
H3442 C3448 0.950 . S
H3443 C3449 0.950 . S
H3444 C3450 0.949 . S
C3445 H3440 0.950 . S
C3445 C3447 1.327 . S
C3445 C3451 1.429 . S
C3446 C3438 1.574 . S
C3446 H3441 0.949 . S
C3446 C3452 1.368 . S
C3447 C3431 1.349 . S
C3447 H3439 0.950 . S
C3447 C3445 1.327 . S
C3448 C3436 1.349 . S
C3448 H3442 0.950 . S
C3448 C3449 1.327 . S
C3449 H3443 0.950 . S
C3449 C3448 1.327 . S
C3449 C3453 1.429 . S
C3450 C3433 1.574 . S
C3450 H3444 0.949 . S
C3450 C3454 1.368 . S
C3451 C3432 1.429 . S
C3451 C3445 1.429 . S
C3451 C3452 1.523 . S
C3452 C3433 1.368 . S
C3452 C3446 1.368 . S
C3452 C3451 1.523 . S
C3453 C3437 1.429 . S
C3453 C3449 1.429 . S
C3453 C3454 1.523 . S
C3454 C3438 1.368 . S
C3454 C3450 1.368 . S
C3454 C3453 1.523 . S
H3455 C3430 0.950 . S
H3456 C3432 0.950 . S
H3457 C3433 0.949 . S
H3458 C3435 0.950 . S
H3459 C3437 0.950 . S
C3460 C3461 1.349 . S
C3460 C3462 1.327 . S
C3460 H3485 0.950 . S
C3461 C3460 1.349 . S
C3461 C3477 1.349 . S
C3462 C3460 1.327 . S
C3462 C3481 1.429 . S
C3462 H3486 0.950 . S
C3463 C3480 1.574 . S
C3463 C3482 1.368 . S
C3463 H3487 0.949 . S
H3464 C3468 0.949 . S
C3465 C3466 1.349 . S
C3465 C3467 1.327 . S
C3465 H3488 0.950 . S
C3466 C3465 1.349 . S
C3466 C3478 1.349 . S
C3467 C3465 1.327 . S
C3467 C3483 1.429 . S
C3467 H3489 0.950 . S
C3468 H3464 0.949 . S
C3468 C3476 1.574 . S
C3468 C3484 1.368 . S
H3469 C3477 0.950 . S
H3470 C3475 0.950 . S
H3471 C3476 0.949 . S
H3472 C3478 0.950 . S
H3473 C3479 0.950 . S
H3474 C3480 0.949 . S
C3475 H3470 0.950 . S
C3475 C3477 1.327 . S
C3475 C3481 1.429 . S
C3476 C3468 1.574 . S
C3476 H3471 0.949 . S
C3476 C3482 1.368 . S
C3477 C3461 1.349 . S
C3477 H3469 0.950 . S
C3477 C3475 1.327 . S
C3478 C3466 1.349 . S
C3478 H3472 0.950 . S
C3478 C3479 1.327 . S
C3479 H3473 0.950 . S
C3479 C3478 1.327 . S
C3479 C3483 1.429 . S
C3480 C3463 1.574 . S
C3480 H3474 0.949 . S
C3480 C3484 1.368 . S
C3481 C3462 1.429 . S
C3481 C3475 1.429 . S
C3481 C3482 1.523 . S
C3482 C3463 1.368 . S
C3482 C3476 1.368 . S
C3482 C3481 1.523 . S
C3483 C3467 1.429 . S
C3483 C3479 1.429 . S
C3483 C3484 1.523 . S
C3484 C3468 1.368 . S
C3484 C3480 1.368 . S
C3484 C3483 1.523 . S
H3485 C3460 0.950 . S
H3486 C3462 0.950 . S
H3487 C3463 0.949 . S
H3488 C3465 0.950 . S
H3489 C3467 0.950 . S
C3490 C3491 1.349 . S
C3490 C3492 1.327 . S
C3490 H3515 0.950 . S
C3491 C3490 1.349 . S
C3491 C3507 1.349 . S
C3492 C3490 1.327 . S
C3492 C3511 1.429 . S
C3492 H3516 0.950 . S
C3493 C3510 1.574 . S
C3493 C3512 1.368 . S
C3493 H3517 0.949 . S
H3494 C3498 0.949 . S
C3495 C3496 1.349 . S
C3495 C3497 1.327 . S
C3495 H3518 0.950 . S
C3496 C3495 1.349 . S
C3496 C3508 1.349 . S
C3497 C3495 1.327 . S
C3497 C3513 1.429 . S
C3497 H3519 0.950 . S
C3498 H3494 0.949 . S
C3498 C3506 1.574 . S
C3498 C3514 1.368 . S
H3499 C3507 0.950 . S
H3500 C3505 0.950 . S
H3501 C3506 0.949 . S
H3502 C3508 0.950 . S
H3503 C3509 0.950 . S
H3504 C3510 0.949 . S
C3505 H3500 0.950 . S
C3505 C3507 1.327 . S
C3505 C3511 1.429 . S
C3506 C3498 1.574 . S
C3506 H3501 0.949 . S
C3506 C3512 1.368 . S
C3507 C3491 1.349 . S
C3507 H3499 0.950 . S
C3507 C3505 1.327 . S
C3508 C3496 1.349 . S
C3508 H3502 0.950 . S
C3508 C3509 1.327 . S
C3509 H3503 0.950 . S
C3509 C3508 1.327 . S
C3509 C3513 1.429 . S
C3510 C3493 1.574 . S
C3510 H3504 0.949 . S
C3510 C3514 1.368 . S
C3511 C3492 1.429 . S
C3511 C3505 1.429 . S
C3511 C3512 1.523 . S
C3512 C3493 1.368 . S
C3512 C3506 1.368 . S
C3512 C3511 1.523 . S
C3513 C3497 1.429 . S
C3513 C3509 1.429 . S
C3513 C3514 1.523 . S
C3514 C3498 1.368 . S
C3514 C3510 1.368 . S
C3514 C3513 1.523 . S
H3515 C3490 0.950 . S
H3516 C3492 0.950 . S
H3517 C3493 0.949 . S
H3518 C3495 0.950 . S
H3519 C3497 0.950 . S
C641 C12 1.384 . S
C646 C62 1.356 . S
C671 C2 1.356 . S
C676 C32 1.384 . S
C701 C52 1.384 . S
C706 C22 1.356 . S
C731 C42 1.356 . S
C736 C72 1.384 1_556 S
C761 C102 1.356 . S
C766 C92 1.384 . S
C791 C112 1.384 . S
C796 C122 1.356 . S
C821 C142 1.356 . S
C826 C132 1.384 . S
C851 C82 1.356 . S
C856 C152 1.384 1_554 S
C881 C169 1.384 . S
C886 C224 1.356 . S
C911 C189 1.384 . S
C916 C164 1.356 . S
C941 C209 1.384 . S
C946 C184 1.356 . S
C971 C229 1.384 1_554 S
C976 C204 1.356 . S
C1001 C249 1.384 . S
C1006 C264 1.356 . S
C1031 C269 1.384 . S
C1036 C284 1.356 . S
C1061 C304 1.356 . S
C1066 C289 1.384 . S
C1091 C244 1.356 . S
C1096 C309 1.384 1_556 S
C1121 C332 1.384 . S
C1126 C382 1.356 . S
C1151 C322 1.356 . S
C1156 C352 1.384 1_556 S
C1181 C342 1.356 . S
C1186 C372 1.384 . S
C1211 C392 1.384 . S
C1216 C362 1.356 . S
C1241 C412 1.384 . S
C1246 C422 1.356 . S
C1271 C442 1.356 . S
C1276 C432 1.384 1_554 S
C1301 C452 1.384 . S
C1306 C462 1.356 . S
C1331 C402 1.356 . S
C1336 C472 1.384 . S
C1361 C544 1.356 . S
C1366 C489 1.384 . S
C1391 C484 1.356 . S
C1396 C509 1.384 1_554 S
C1421 C529 1.384 . S
C1426 C504 1.356 . S
C1451 C524 1.356 . S
C1456 C549 1.384 . S
C1481 C584 1.356 . S
C1486 C569 1.384 . S
C1511 C604 1.356 . S
C1516 C589 1.384 1_556 S
C1541 C624 1.356 . S
C1546 C609 1.384 . S
C1571 C629 1.384 . S
C1576 C564 1.356 . S
C1601 C552 1.427 . S
C1606 C18 1.439 . S
C1631 C38 1.439 . S
C1636 C172 1.427 . S
C1661 C58 1.439 . S
C1666 C512 1.427 . S
C1691 C78 1.439 . S
C1696 C212 1.427 . S
C1721 C98 1.439 . S
C1726 C592 1.427 . S
C1751 C292 1.427 . S
C1756 C118 1.439 . S
C1781 C632 1.427 . S
C1786 C138 1.439 . S
C1811 C158 1.439 . S
C1816 C252 1.427 . S
C1841 C179 1.439 . S
C1846 C389 1.427 . S
C1871 C9 1.427 . S
C1876 C199 1.439 . S
C1901 C349 1.427 . S
C1906 C219 1.439 . S
C1931 C49 1.427 . S
C1936 C239 1.439 . S
C1961 C429 1.427 . S
C1966 C259 1.439 . S
C1991 C129 1.427 . S
C1996 C279 1.439 . S
C2021 C299 1.439 . S
C2026 C469 1.427 . S
C2051 C319 1.439 . S
C2056 C89 1.427 . S
C2081 C338 1.439 . S
C2086 C232 1.427 . S
C2111 C358 1.439 . S
C2116 C492 1.427 . S
C2141 C378 1.439 . S
C2146 C192 1.427 . S
C2171 C398 1.439 . S
C2176 C532 1.427 . S
C2201 C418 1.439 . S
C2206 C272 1.427 . S
C2231 C438 1.439 . S
C2236 C612 1.427 . S
C2261 C312 1.427 . S
C2266 C458 1.439 . S
C2291 C478 1.439 . S
C2296 C572 1.427 . S
C2321 C69 1.427 . S
C2326 C499 1.439 . S
C2351 C329 1.427 . S
C2356 C519 1.439 . S
C2381 C29 1.427 . S
C2386 C539 1.439 . S
C2411 C369 1.427 . S
C2416 C559 1.439 . S
C2441 C109 1.427 . S
C2446 C579 1.439 . S
C2471 C599 1.439 . S
C2476 C449 1.427 . S
C2501 C619 1.439 . S
C2506 C149 1.427 . S
C2531 C409 1.427 . S
C2536 C639 1.439 . S
C2561 C19 0.276 . S
C2566 C99 0.276 . S
C2591 C39 0.276 . S
C2596 C119 0.276 . S
C2621 C59 0.276 . S
C2626 C139 0.276 . S
C2651 C159 0.276 . S
C2656 C79 0.276 . S
C2681 C258 0.276 . S
C2686 C178 0.276 . S
C2711 C278 0.276 . S
C2716 C198 0.276 . S
C2741 C218 0.276 . S
C2746 C298 0.276 . S
C2771 C238 0.276 . S
C2776 C318 0.276 . S
C2801 C339 0.276 . S
C2806 C419 0.276 . S
C2831 C439 0.276 . S
C2836 C359 0.276 . S
C2861 C459 0.276 . S
C2866 C379 0.276 . S
C2891 C479 0.276 . S
C2896 C399 0.276 . S
C2921 C578 0.276 . S
C2926 C498 0.276 . S
C2951 C518 0.276 . S
C2956 C598 0.276 . S
C2981 C618 0.276 . S
C2986 C538 0.276 . S
C3011 C558 0.276 . S
C3016 C638 0.276 . S
C3041 C144 1.572 . S
C3046 C4 1.572 . S
C3071 C24 1.572 . S
C3076 C84 1.572 . S
C3101 C44 1.572 . S
C3106 C104 1.572 . S
C3131 C124 1.572 . S
C3136 C64 1.572 . S
C3161 C162 1.572 . S
C3166 C302 1.572 . S
C3191 C242 1.572 . S
C3196 C182 1.572 . S
C3221 C262 1.572 . S
C3226 C202 1.572 . S
C3251 C222 1.572 . S
C3256 C282 1.572 . S
C3281 C324 1.572 . S
C3286 C464 1.572 . S
C3311 C404 1.572 . S
C3316 C344 1.572 . S
C3341 C424 1.572 . S
C3346 C364 1.572 . S
C3371 C444 1.572 . S
C3376 C384 1.572 . S
C3401 C482 1.572 . S
C3406 C622 1.572 . S
C3431 C562 1.572 . S
C3436 C502 1.572 . S
C3461 C522 1.572 . S
C3466 C582 1.572 . S
C3491 C602 1.572 . S
C3496 C542 1.572 . S
