# Generated by pormake.
# Topology umf, (4)-cn, num edge types: 1
# Building blocks:
#     Node 0, Type 0, BuildingBlock: ESEHIV_clean_sbu_0, # of connection points: 4
#     Node 1, Type 0, BuildingBlock: ESEHIV_clean_sbu_0, # of connection points: 4
#     Node 2, Type 0, BuildingBlock: ESEHIV_clean_sbu_0, # of connection points: 4
#     Node 3, Type 0, BuildingBlock: ESEHIV_clean_sbu_0, # of connection points: 4
#     Node 4, Type 0, BuildingBlock: ESEHIV_clean_sbu_0, # of connection points: 4
#     Node 5, Type 0, BuildingBlock: ESEHIV_clean_sbu_0, # of connection points: 4
#     Node 6, Type 0, BuildingBlock: ESEHIV_clean_sbu_0, # of connection points: 4
#     Node 7, Type 0, BuildingBlock: ESEHIV_clean_sbu_0, # of connection points: 4
#     Edge 8, Type (0, 0), BuildingBlock: AJUNOK_clean_linker_0, # of connection points: 2
#     Edge 9, Type (0, 0), BuildingBlock: AJUNOK_clean_linker_0, # of connection points: 2
#     Edge 10, Type (0, 0), BuildingBlock: AJUNOK_clean_linker_0, # of connection points: 2
#     Edge 11, Type (0, 0), BuildingBlock: AJUNOK_clean_linker_0, # of connection points: 2
#     Edge 12, Type (0, 0), BuildingBlock: AJUNOK_clean_linker_0, # of connection points: 2
#     Edge 13, Type (0, 0), BuildingBlock: AJUNOK_clean_linker_0, # of connection points: 2
#     Edge 14, Type (0, 0), BuildingBlock: AJUNOK_clean_linker_0, # of connection points: 2
#     Edge 15, Type (0, 0), BuildingBlock: AJUNOK_clean_linker_0, # of connection points: 2
#     Edge 16, Type (0, 0), BuildingBlock: AJUNOK_clean_linker_0, # of connection points: 2
#     Edge 17, Type (0, 0), BuildingBlock: AJUNOK_clean_linker_0, # of connection points: 2
#     Edge 18, Type (0, 0), BuildingBlock: AJUNOK_clean_linker_0, # of connection points: 2
#     Edge 19, Type (0, 0), BuildingBlock: AJUNOK_clean_linker_0, # of connection points: 2
#     Edge 20, Type (0, 0), BuildingBlock: AJUNOK_clean_linker_0, # of connection points: 2
#     Edge 21, Type (0, 0), BuildingBlock: AJUNOK_clean_linker_0, # of connection points: 2
#     Edge 22, Type (0, 0), BuildingBlock: AJUNOK_clean_linker_0, # of connection points: 2
#     Edge 23, Type (0, 0), BuildingBlock: AJUNOK_clean_linker_0, # of connection points: 2
# Relax obj value: 0.070
# Max RMSD: 0.108
# Mean RMSD: 0.108
data_MOF--net-umf--node1-ESEHIV_clean_sbu_0--edge1-AJUNOK_clean_linker_0
_symmetry_space_group_name_H-M    P1
_symmetry_Int_Tables_number       1
_symmetry_cell_setting            triclinic
loop_
_symmetry_equiv_pos_as_xyz
'x, y, z'
_cell_length_a     26.19901
_cell_length_b     26.184778
_cell_length_c     35.757487
_cell_angle_alpha  90.936438
_cell_angle_beta   89.352418
_cell_angle_gamma 89.71038
loop_
_atom_site_label
_atom_site_type_symbol
_atom_site_fract_x
_atom_site_fract_y
_atom_site_fract_z
_atom_type_partial_charge
Cu0 Cu 0.04757 0.26006 0.20677 0.0
N1 N 1.00943 0.20327 0.21989 0.0
N2 N 0.99641 0.12061 0.23101 0.0
C3 C 0.03116 0.15789 0.22674 0.0
C4 C 0.95064 0.14372 0.22673 0.0
C5 C 0.95883 0.19487 0.21986 0.0
O6 O 0.11306 0.24988 0.23078 0.0
C7 C 1.01292 0.2674 0.1331 0.0
O8 O 0.96938 0.2763 0.15066 0.0
H9 H 0.07207 0.15212 0.22736 0.0
H10 H 0.93017 0.22318 0.21347 0.0
N11 N 0.01849 0.32129 0.22383 0.0
N12 N 1.00873 0.40521 0.23357 0.0
C13 C 0.03654 0.36805 0.21632 0.0
C14 C 0.97764 0.32892 0.2464 0.0
C15 C 0.97135 0.38079 0.25231 0.0
C16 C 0.1138 0.25065 0.26643 0.0
O17 O 0.07203 0.26441 0.28471 0.0
H18 H 0.06918 0.3745 0.19823 0.0
H19 H 0.95453 0.29892 0.25812 0.0
O20 O 0.05291 0.26037 0.15242 0.0
H21 H 0.91409 0.1247 0.22624 0.0
H22 H 0.94223 0.39911 0.26964 0.0
Cu23 Cu 0.77155 0.04498 0.71039 0.0
N24 N 0.83169 1.00949 0.72053 0.0
N25 N 0.91454 0.9978 0.73256 0.0
C26 C 0.87591 0.03179 0.73013 0.0
C27 C 0.89362 0.95206 0.72402 0.0
C28 C 0.84248 0.95939 0.71673 0.0
O29 O 0.77131 0.10445 0.74352 0.0
C30 C 0.76607 0.0193 0.63503 0.0
O31 O 0.7629 0.97385 0.64987 0.0
H32 H 0.87998 0.07246 0.73456 0.0
H33 H 0.81563 0.93052 0.70788 0.0
N34 N 0.71351 1.00816 0.72311 0.0
N35 N 0.63057 0.99232 0.73175 0.0
C36 C 0.66549 0.02344 0.71624 0.0
C37 C 0.70909 0.96603 0.74389 0.0
C38 C 0.65784 0.95608 0.74923 0.0
C39 C 0.79897 0.14386 0.74025 0.0
O40 O 0.82476 0.15032 0.70896 0.0
H41 H 0.65641 0.05758 0.70093 0.0
H42 H 0.74074 0.94531 0.75564 0.0
O43 O 0.76987 0.05812 0.65688 0.0
H44 H 0.91412 0.91622 0.72116 0.0
H45 H 0.64204 0.92612 0.76627 0.0
Cu46 Cu 0.987 0.76434 0.21075 0.0
N47 N 0.02463 0.82289 0.22145 0.0
N48 N 0.03883 0.90562 0.23308 0.0
C49 C 1.00355 0.86937 0.22679 0.0
C50 C 0.08424 0.88107 0.23107 0.0
C51 C 0.07535 0.82988 0.22399 0.0
O52 O 0.92688 0.76995 0.24304 0.0
C53 C 1.01372 0.76015 0.1353 0.0
O54 O 0.05915 0.75723 0.15033 0.0
H55 H 0.96319 0.87688 0.2243 0.0
H56 H 0.10387 0.80024 0.22001 0.0
N57 N 0.02175 0.70528 0.22423 0.0
N58 N 0.0379 0.6223 0.23191 0.0
C59 C 1.00857 0.6572 0.21478 0.0
C60 C 0.06036 0.70074 0.24846 0.0
C61 C 0.07053 0.64956 0.25317 0.0
C62 C 0.88933 0.79982 0.23772 0.0
O63 O 0.88522 0.82181 0.20512 0.0
H64 H 0.97712 0.64801 0.19652 0.0
H65 H 0.07824 0.73223 0.26308 0.0
O66 O 0.97473 0.7626 0.15702 0.0
H67 H 0.12119 0.89898 0.23381 0.0
H68 H 0.09784 0.63371 0.27234 0.0
Cu69 Cu 0.26914 0.9863 0.7159 0.0
N70 N 0.21129 0.02516 0.72844 0.0
N71 N 0.12865 0.04002 0.74074 0.0
C72 C 0.16447 1.00483 0.73149 0.0
C73 C 0.1538 0.08482 0.74293 0.0
C74 C 0.20498 0.07549 0.73547 0.0
O75 O 0.26357 0.92579 0.74641 0.0
C76 C 0.27353 1.01594 0.64225 0.0
O77 O 0.2761 0.06029 0.65984 0.0
H78 H 0.15649 0.96516 0.7255 0.0
H79 H 0.23508 0.10354 0.73453 0.0
N80 N 0.3298 1.01771 0.72991 0.0
N81 N 0.41383 0.02634 0.73757 0.0
C82 C 0.37655 1.00099 0.71946 0.0
C83 C 0.33761 0.0551 0.75544 0.0
C84 C 0.38953 0.06086 0.75994 0.0
C85 C 0.23303 0.88882 0.74142 0.0
O86 O 0.20928 0.88451 0.70936 0.0
H87 H 0.38284 0.9701 0.69944 0.0
H88 H 0.30782 0.07515 0.77093 0.0
O89 O 0.27039 0.97567 0.66176 0.0
H90 H 0.13639 0.12164 0.74907 0.0
H91 H 0.40794 0.0868 0.77937 0.0
Cu92 Cu 0.03243 0.77494 0.8976 0.0
N93 N 0.99652 0.83487 0.88688 0.0
N94 N 0.98511 0.91769 0.87426 0.0
C95 C 0.01868 0.87855 0.87598 0.0
C96 C 0.93978 0.89768 0.88466 0.0
C97 C 0.94692 0.84665 0.89234 0.0
O98 O 0.09379 0.77626 0.86651 0.0
C99 C 1.00242 0.76692 0.97184 0.0
O100 O 0.95854 0.76139 0.95492 0.0
H101 H 0.05907 0.88193 0.8703 0.0
H102 H 0.91835 0.82077 0.90284 0.0
N103 N 0.99761 0.71587 0.88342 0.0
N104 N 0.98349 0.6325 0.87503 0.0
C105 C 0.01734 0.66846 0.88542 0.0
C106 C 0.9497 0.70981 0.87091 0.0
C107 C 0.9408 0.6582 0.86583 0.0
C108 C 0.13222 0.80483 0.87175 0.0
O109 O 0.13563 0.83059 0.90346 0.0
H110 H 0.05546 0.66044 0.8952 0.0
H111 H 0.92301 0.74054 0.86608 0.0
O112 O 0.0425 0.7729 0.95172 0.0
H113 H 0.90452 0.91883 0.8887 0.0
H114 H 0.90586 0.64096 0.85599 0.0
Cu115 Cu 0.26565 0.05789 0.40687 0.0
N116 N 0.20879 0.01999 0.39293 0.0
N117 N 0.1272 1.00625 0.37872 0.0
C118 C 0.16289 0.04136 0.38702 0.0
C119 C 0.15152 0.96072 0.37985 0.0
C120 C 0.20209 0.96935 0.38845 0.0
O121 O 0.2531 0.12423 0.38471 0.0
C122 C 0.27425 1.01743 0.47838 0.0
O123 O 0.27976 0.9753 0.45829 0.0
H124 H 0.15539 0.08185 0.39051 0.0
H125 H 0.23142 0.94071 0.3921 0.0
N126 N 0.32623 0.0296 0.38756 0.0
N127 N 0.4095 1.01729 0.37641 0.0
C128 C 0.37395 0.04457 0.39585 0.0
C129 C 0.33171 0.99188 0.3618 0.0
C130 C 0.38303 0.98425 0.35481 0.0
C131 C 0.25487 0.12598 0.34908 0.0
O132 O 0.27201 0.08572 0.3304 0.0
H133 H 0.3824 0.07495 0.41569 0.0
H134 H 0.30057 0.97221 0.34831 0.0
O135 O 0.26833 0.05952 0.46141 0.0
H136 H 0.13379 0.92388 0.3755 0.0
H137 H 0.39944 0.95765 0.33449 0.0
Cu138 Cu 0.98185 0.2712 0.89665 0.0
N139 N 0.01757 0.21338 0.87927 0.0
N140 N 0.02927 0.13102 0.86415 0.0
C141 C 0.99728 0.16632 0.87914 0.0
C142 C 0.07207 0.15654 0.85492 0.0
C143 C 0.0645 0.20769 0.86391 0.0
O144 O 0.91959 0.27068 0.86774 0.0
C145 C 1.01413 0.25882 0.96928 0.0
O146 O 0.05714 0.25252 0.95054 0.0
H147 H 0.96001 0.15778 0.8906 0.0
H148 H 0.09126 0.23835 0.85948 0.0
N149 N 1.0152 0.33243 0.88688 0.0
N150 N 0.02372 0.41691 0.88088 0.0
C151 C 0.99121 0.377 0.88058 0.0
C152 C 0.06476 0.34423 0.89092 0.0
C153 C 0.07017 0.39626 0.88698 0.0
C154 C 0.8832 0.23957 0.87288 0.0
O155 O 0.88143 0.21401 0.90416 0.0
H156 H 0.95043 0.37989 0.87673 0.0
H157 H 0.09446 0.31745 0.89809 0.0
O158 O 0.97346 0.26676 0.95087 0.0
H159 H 0.10605 0.13949 0.84242 0.0
H160 H 0.1052 0.41753 0.89026 0.0
Cu161 Cu 0.76974 1.00104 0.39733 0.0
N162 N 0.82882 0.03777 0.38644 0.0
N163 N 0.91249 0.04991 0.37748 0.0
C164 C 0.87463 1.01554 0.3806 0.0
C165 C 0.88944 0.09597 0.38148 0.0
C166 C 0.83774 0.08834 0.387 0.0
O167 O 0.77308 0.94043 0.36516 0.0
C168 C 0.7638 0.0307 0.47158 0.0
O169 O 0.75932 0.07474 0.45485 0.0
H170 H 0.88034 0.97467 0.37963 0.0
H171 H 0.80921 0.11749 0.39277 0.0
N172 N 0.71018 0.03536 0.3844 0.0
N173 N 0.62655 0.04742 0.37644 0.0
C174 C 0.66292 0.0184 0.39217 0.0
C175 C 0.70371 0.07685 0.36322 0.0
C176 C 0.65199 0.08463 0.35851 0.0
C177 C 0.80156 0.90151 0.36919 0.0
O178 O 0.82596 0.89613 0.4008 0.0
H179 H 0.65561 0.98497 0.40875 0.0
H180 H 0.7343 0.09882 0.35103 0.0
O181 O 0.7681 0.99033 0.45123 0.0
H182 H 0.90869 0.13241 0.38256 0.0
H183 H 0.63452 0.11413 0.34201 0.0
C184 C 0.97518 0.49338 0.23149 0.0
C185 C 0.01702 0.45957 0.23246 0.0
C186 C 0.9823 0.5464 0.23062 0.0
C187 C 0.03152 0.56764 0.23117 0.0
H188 H 0.93664 0.47866 0.23113 0.0
H189 H 0.94898 0.571 0.2303 0.0
S190 S 0.15375 0.49586 0.23369 0.0
N191 N 0.10945 0.45124 0.23421 0.0
N192 N 0.12274 0.55082 0.232 0.0
C193 C 0.07367 0.53431 0.23198 0.0
C194 C 0.06646 0.48031 0.2327 0.0
C195 C 0.50242 0.05783 0.73702 0.0
C196 C 0.46807 1.01681 0.73545 0.0
C197 C 0.55533 0.04955 0.73542 0.0
C198 C 0.57598 0.99985 0.73263 0.0
H199 H 0.48821 0.09667 0.73924 0.0
H200 H 0.5803 0.0823 0.73703 0.0
S201 S 0.50251 0.87929 0.72805 0.0
N202 N 0.4585 0.92452 0.73159 0.0
N203 N 0.55789 0.9091 0.72792 0.0
C204 C 0.54207 0.95848 0.73106 0.0
C205 C 0.48816 0.96691 0.73254 0.0
C206 C 0.04744 0.50443 0.86267 0.0
C207 C 1.01163 0.4707 0.87827 0.0
C208 C 0.03772 0.5571 0.86129 0.0
C209 C 0.99159 0.57807 0.87505 0.0
H210 H 0.08334 0.49 0.85145 0.0
H211 H 0.06643 0.58172 0.84928 0.0
S212 S 0.88665 0.50774 0.92116 0.0
N213 N 0.92915 0.4632 0.90982 0.0
N214 N 0.91066 0.56192 0.90608 0.0
C215 C 0.95536 0.54507 0.89059 0.0
C216 C 0.96541 0.49147 0.89247 0.0
C217 C 0.48508 0.07326 0.37993 0.0
C218 C 0.4641 0.02399 0.37713 0.0
C219 C 0.53813 0.08064 0.37954 0.0
C220 C 0.57217 0.03899 0.37687 0.0
H221 H 0.46026 0.10641 0.38177 0.0
H222 H 0.55269 0.11919 0.38166 0.0
S223 S 0.53661 0.90218 0.36932 0.0
N224 N 0.48149 0.93289 0.3723 0.0
N225 N 0.58096 0.9467 0.37087 0.0
C226 C 0.55165 0.9895 0.37426 0.0
C227 C 0.4977 0.98203 0.37451 0.0
C228 C 0.96994 0.27247 1.03158 0.0
C229 C 1.0143 0.25926 1.01102 0.0
C230 C 0.97001 0.27505 0.07087 0.0
C231 C 1.01444 0.26455 0.0914 0.0
H232 H 0.93487 0.2814 1.01727 0.0
H233 H 0.9348 0.28563 0.08521 0.0
S234 S 0.14048 0.22629 1.05119 0.0
N235 N 0.10384 0.23416 1.01448 0.0
N236 N 0.10379 0.23919 0.08796 0.0
C237 C 0.05896 0.25078 0.07122 0.0
C238 C 0.05891 0.24807 1.03122 0.0
C239 C 0.76545 0.97937 0.57073 0.0
C240 C 0.76559 0.02391 0.59351 0.0
C241 C 0.76498 0.98183 0.53154 0.0
C242 C 0.7644 0.02896 0.51327 0.0
H243 H 0.76584 0.94195 0.5832 0.0
H244 H 0.76492 0.94639 0.51549 0.0
S245 S 0.76477 0.15719 0.5598 0.0
N246 N 0.76534 0.11672 0.59469 0.0
N247 N 0.76432 0.12164 0.52128 0.0
C248 C 0.76457 0.07393 0.5357 0.0
C249 C 0.76522 0.07135 0.57567 0.0
C250 C 0.05373 0.76011 0.07108 0.0
C251 C 1.00925 0.7618 0.09375 0.0
C252 C 0.05133 0.76219 1.03189 0.0
C253 C 1.00432 0.76579 1.01353 0.0
H254 H 0.09104 0.75719 0.08362 0.0
H255 H 0.08669 0.76054 1.0159 0.0
S256 S 0.87639 0.77288 0.05973 0.0
N257 N 0.91668 0.76826 0.09467 0.0
N258 N 0.91192 0.77206 1.02132 0.0
C259 C 0.95946 0.76777 1.03584 0.0
C260 C 0.96196 0.76581 0.07578 0.0
C261 C 0.27291 0.0611 0.54147 0.0
C262 C 0.27432 1.01555 0.52009 0.0
C263 C 0.27277 0.06051 0.58071 0.0
C264 C 0.2738 1.01435 0.60051 0.0
H265 H 0.27201 0.09774 0.52785 0.0
H266 H 0.27167 0.09687 0.59558 0.0
S267 S 0.27741 0.88409 0.55804 0.0
N268 N 0.27667 0.92254 0.52192 0.0
N269 N 0.27623 0.9217 0.59554 0.0
C270 C 0.27511 0.96842 0.57956 0.0
C271 C 0.27545 0.96897 0.53949 0.0
C272 C 0.15378 0.22463 0.32664 0.0
C273 C 0.15665 0.22714 0.28728 0.0
C274 C 0.18816 0.19484 0.34689 0.0
C275 C 0.22686 0.16621 0.32863 0.0
H276 H 0.12313 0.24378 0.34196 0.0
H277 H 0.18229 0.19187 0.37681 0.0
S278 S 0.2563 0.16592 0.22676 0.0
N279 N 0.20544 0.20305 0.23139 0.0
N280 N 0.27001 0.14727 0.26938 0.0
C281 C 0.23264 0.17147 0.28965 0.0
C282 C 0.19764 0.20188 0.26901 0.0
C283 C 0.86646 0.23871 0.8039 0.0
C284 C 0.85263 0.22259 0.84006 0.0
C285 C 0.84636 0.2153 0.77174 0.0
C286 C 0.81123 0.17501 0.77426 0.0
H287 H 0.89534 0.2677 0.80017 0.0
H288 H 0.8605 0.22734 0.74472 0.0
S289 S 0.75586 0.12424 0.86232 0.0
N290 N 0.7968 0.16801 0.8764 0.0
N291 N 0.75855 0.12444 0.81619 0.0
C292 C 0.79378 0.16146 0.81025 0.0
C293 C 0.81457 0.18511 0.84304 0.0
C294 C 0.85267 0.83039 0.3389 0.0
C295 C 0.81571 0.86924 0.33579 0.0
C296 C 0.87368 0.8057 0.30712 0.0
C297 C 0.85893 0.81891 0.27069 0.0
H298 H 0.86735 0.82042 0.36604 0.0
H299 H 0.90371 0.77784 0.31124 0.0
S300 S 0.75809 0.91282 0.24714 0.0
N301 N 0.76097 0.91558 0.29321 0.0
N302 N 0.80078 0.86955 0.2337 0.0
C303 C 0.81943 0.85512 0.26725 0.0
C304 C 0.79778 0.88013 0.29967 0.0
C305 C 0.17325 0.82622 0.77094 0.0
C306 C 0.21511 0.85937 0.77443 0.0
C307 C 0.14887 0.80599 0.80251 0.0
C308 C 0.16502 0.81826 0.83905 0.0
H309 H 0.15735 0.81777 0.74372 0.0
H310 H 0.11525 0.78285 0.79813 0.0
S311 S 0.27793 0.89645 0.86353 0.0
N312 N 0.27572 0.89818 0.81745 0.0
N313 N 0.22941 0.86069 0.8766 0.0
C314 C 0.20908 0.84827 0.84287 0.0
C315 C 0.23423 0.86861 0.81067 0.0
C316 C 0.05212 0.04614 0.21724 0.0
C317 C 1.0074 0.06674 0.23394 0.0
C318 C 0.06304 0.99383 0.21828 0.0
C319 C 0.02962 0.95985 0.2359 0.0
H320 H 0.07827 0.07029 0.20208 0.0
H321 H 0.09693 0.97965 0.20387 0.0
S322 S 0.91 0.99436 0.28705 0.0
N323 N 0.93128 0.04917 0.27101 0.0
N324 N 0.95193 0.95067 0.27298 0.0
C325 C 0.98565 0.97995 0.25386 0.0
C326 C 0.97446 0.03336 0.25281 0.0
C327 C 0.0401 0.06713 0.72854 0.0
C328 C 0.07438 0.03144 0.74316 0.0
C329 C 0.98787 0.05637 0.72605 0.0
C330 C 0.96779 1.00952 0.73821 0.0
H331 H 0.05404 0.10264 0.7173 0.0
H332 H 0.96348 0.08423 0.71303 0.0
S333 S 0.04084 0.90621 0.78353 0.0
N334 N 0.08407 0.94971 0.77362 0.0
N335 N 0.98596 0.92941 0.76897 0.0
C336 C 1.00137 0.97464 0.75474 0.0
C337 C 0.05457 0.98565 0.75727 0.0
C338 C 0.05676 0.04225 0.87436 0.0
C339 C 0.02004 0.07695 0.86179 0.0
C340 C 0.04548 0.99018 0.87748 0.0
C341 C 0.99714 0.97074 0.8678 0.0
H342 H 0.09355 0.05591 0.8836 0.0
H343 H 0.07429 0.96548 0.88905 0.0
S344 S 0.89093 0.0454 0.82732 0.0
N345 N 0.93569 0.0881 0.8357 0.0
N346 N 0.91467 0.99009 0.84057 0.0
C347 C 0.96124 1.00483 0.85293 0.0
C348 C 0.97267 0.05791 0.85012 0.0
C349 C 0.98567 0.9942 0.39237 0.0
C350 C 0.96646 0.03847 0.37542 0.0
C351 C 0.03796 0.98293 0.3921 0.0
C352 C 0.07327 1.01558 0.37507 0.0
H353 H 0.96033 0.96873 0.40708 0.0
H354 H 0.05104 0.94944 0.40663 0.0
S355 S 0.04286 0.13315 0.32314 0.0
N356 N 0.98691 0.11288 0.3384 0.0
N357 N 0.0854 0.09172 0.33812 0.0
C358 C 0.05466 0.05898 0.35685 0.0
C359 C 1.00127 0.07047 0.35703 0.0
loop_
_geom_bond_atom_site_label_1
_geom_bond_atom_site_label_2
_geom_bond_distance
_geom_bond_site_symmetry_2
_ccdc_geom_bond_type
Cu0 N1 1.999 . S
Cu0 O6 1.974 . S
Cu0 N11 1.985 . S
Cu0 O20 1.959 . S
N1 Cu0 1.999 . S
N1 C3 1.263 . S
N1 C5 1.389 1_455 S
N2 C3 1.358 . S
N2 C4 1.400 1_455 S
C3 N1 1.263 . S
C3 N2 1.358 . S
C3 H9 0.930 . S
C4 N2 1.400 1_655 S
C4 C5 1.351 . S
C4 H21 0.930 . S
C5 N1 1.389 1_655 S
C5 C4 1.351 . S
C5 H10 0.930 . S
O6 Cu0 1.974 . S
O6 C16 1.282 . S
C7 O8 1.261 . S
C7 O20 1.251 . S
O8 C7 1.261 . S
H9 C3 0.930 . S
H10 C5 0.930 . S
N11 Cu0 1.985 . S
N11 C13 1.335 . S
N11 C14 1.390 . S
N12 C13 1.345 . S
N12 C15 1.336 . S
C13 N11 1.335 . S
C13 N12 1.345 . S
C13 H18 0.930 . S
C14 N11 1.390 . S
C14 C15 1.346 . S
C14 H19 0.930 . S
C15 N12 1.336 . S
C15 C14 1.346 . S
C15 H22 0.929 . S
C16 O6 1.282 . S
C16 O17 1.216 . S
O17 C16 1.216 . S
H18 C13 0.930 . S
H19 C14 0.930 . S
O20 Cu0 1.959 . S
O20 C7 1.251 . S
H21 C4 0.930 . S
H22 C15 0.929 . S
Cu23 N24 1.999 . S
Cu23 O29 1.974 . S
Cu23 N34 1.985 . S
Cu23 O43 1.959 . S
N24 Cu23 1.999 . S
N24 C26 1.263 . S
N24 C28 1.389 1_545 S
N25 C26 1.358 . S
N25 C27 1.400 1_545 S
C26 N24 1.263 . S
C26 N25 1.358 . S
C26 H32 0.930 . S
C27 N25 1.400 1_565 S
C27 C28 1.351 . S
C27 H44 0.930 . S
C28 N24 1.389 1_565 S
C28 C27 1.351 . S
C28 H33 0.930 . S
O29 Cu23 1.974 . S
O29 C39 1.282 . S
C30 O31 1.261 . S
C30 O43 1.251 . S
O31 C30 1.261 . S
H32 C26 0.930 . S
H33 C28 0.930 . S
N34 Cu23 1.985 . S
N34 C36 1.335 . S
N34 C37 1.390 . S
N35 C36 1.345 . S
N35 C38 1.336 . S
C36 N34 1.335 . S
C36 N35 1.345 . S
C36 H41 0.930 . S
C37 N34 1.390 . S
C37 C38 1.346 . S
C37 H42 0.930 . S
C38 N35 1.336 . S
C38 C37 1.346 . S
C38 H45 0.929 . S
C39 O29 1.282 . S
C39 O40 1.216 . S
O40 C39 1.216 . S
H41 C36 0.930 . S
H42 C37 0.930 . S
O43 Cu23 1.959 . S
O43 C30 1.251 . S
H44 C27 0.930 . S
H45 C38 0.929 . S
Cu46 N47 1.999 . S
Cu46 O52 1.974 . S
Cu46 N57 1.985 . S
Cu46 O66 1.959 . S
N47 Cu46 1.999 . S
N47 C49 1.263 . S
N47 C51 1.389 1_655 S
N48 C49 1.358 . S
N48 C50 1.400 1_655 S
C49 N47 1.263 . S
C49 N48 1.358 . S
C49 H55 0.930 . S
C50 N48 1.400 1_455 S
C50 C51 1.351 . S
C50 H67 0.930 . S
C51 N47 1.389 1_455 S
C51 C50 1.351 . S
C51 H56 0.930 . S
O52 Cu46 1.974 . S
O52 C62 1.282 . S
C53 O54 1.261 . S
C53 O66 1.251 . S
O54 C53 1.261 . S
H55 C49 0.930 . S
H56 C51 0.930 . S
N57 Cu46 1.985 . S
N57 C59 1.335 . S
N57 C60 1.390 . S
N58 C59 1.345 . S
N58 C61 1.336 . S
C59 N57 1.335 . S
C59 N58 1.345 . S
C59 H64 0.930 . S
C60 N57 1.390 . S
C60 C61 1.346 . S
C60 H65 0.930 . S
C61 N58 1.336 . S
C61 C60 1.346 . S
C61 H68 0.929 . S
C62 O52 1.282 . S
C62 O63 1.216 . S
O63 C62 1.216 . S
H64 C59 0.930 . S
H65 C60 0.930 . S
O66 Cu46 1.959 . S
O66 C53 1.251 . S
H67 C50 0.930 . S
H68 C61 0.929 . S
Cu69 N70 1.999 . S
Cu69 O75 1.974 . S
Cu69 N80 1.985 . S
Cu69 O89 1.959 . S
N70 Cu69 1.999 . S
N70 C72 1.263 . S
N70 C74 1.389 1_565 S
N71 C72 1.358 . S
N71 C73 1.400 1_565 S
C72 N70 1.263 . S
C72 N71 1.358 . S
C72 H78 0.930 . S
C73 N71 1.400 1_545 S
C73 C74 1.351 . S
C73 H90 0.930 . S
C74 N70 1.389 1_545 S
C74 C73 1.351 . S
C74 H79 0.930 . S
O75 Cu69 1.974 . S
O75 C85 1.282 . S
C76 O77 1.261 . S
C76 O89 1.251 . S
O77 C76 1.261 . S
H78 C72 0.930 . S
H79 C74 0.930 . S
N80 Cu69 1.985 . S
N80 C82 1.335 . S
N80 C83 1.390 . S
N81 C82 1.345 . S
N81 C84 1.336 . S
C82 N80 1.335 . S
C82 N81 1.345 . S
C82 H87 0.930 . S
C83 N80 1.390 . S
C83 C84 1.346 . S
C83 H88 0.930 . S
C84 N81 1.336 . S
C84 C83 1.346 . S
C84 H91 0.929 . S
C85 O75 1.282 . S
C85 O86 1.216 . S
O86 C85 1.216 . S
H87 C82 0.930 . S
H88 C83 0.930 . S
O89 Cu69 1.959 . S
O89 C76 1.251 . S
H90 C73 0.930 . S
H91 C84 0.929 . S
Cu92 N93 1.999 . S
Cu92 O98 1.974 . S
Cu92 N103 1.985 . S
Cu92 O112 1.959 . S
N93 Cu92 1.999 . S
N93 C95 1.263 . S
N93 C97 1.389 1_455 S
N94 C95 1.358 . S
N94 C96 1.400 1_455 S
C95 N93 1.263 . S
C95 N94 1.358 . S
C95 H101 0.930 . S
C96 N94 1.400 1_655 S
C96 C97 1.351 . S
C96 H113 0.930 . S
C97 N93 1.389 1_655 S
C97 C96 1.351 . S
C97 H102 0.930 . S
O98 Cu92 1.974 . S
O98 C108 1.282 . S
C99 O100 1.261 . S
C99 O112 1.251 . S
O100 C99 1.261 . S
H101 C95 0.930 . S
H102 C97 0.930 . S
N103 Cu92 1.985 . S
N103 C105 1.335 . S
N103 C106 1.390 . S
N104 C105 1.345 . S
N104 C107 1.336 . S
C105 N103 1.335 . S
C105 N104 1.345 . S
C105 H110 0.930 . S
C106 N103 1.390 . S
C106 C107 1.346 . S
C106 H111 0.930 . S
C107 N104 1.336 . S
C107 C106 1.346 . S
C107 H114 0.929 . S
C108 O98 1.282 . S
C108 O109 1.216 . S
O109 C108 1.216 . S
H110 C105 0.930 . S
H111 C106 0.930 . S
O112 Cu92 1.959 . S
O112 C99 1.251 . S
H113 C96 0.930 . S
H114 C107 0.929 . S
Cu115 N116 1.999 . S
Cu115 O121 1.974 . S
Cu115 N126 1.985 . S
Cu115 O135 1.959 . S
N116 Cu115 1.999 . S
N116 C118 1.263 . S
N116 C120 1.389 1_545 S
N117 C118 1.358 . S
N117 C119 1.400 1_545 S
C118 N116 1.263 . S
C118 N117 1.358 . S
C118 H124 0.930 . S
C119 N117 1.400 1_565 S
C119 C120 1.351 . S
C119 H136 0.930 . S
C120 N116 1.389 1_565 S
C120 C119 1.351 . S
C120 H125 0.930 . S
O121 Cu115 1.974 . S
O121 C131 1.282 . S
C122 O123 1.261 . S
C122 O135 1.251 . S
O123 C122 1.261 . S
H124 C118 0.930 . S
H125 C120 0.930 . S
N126 Cu115 1.985 . S
N126 C128 1.335 . S
N126 C129 1.390 . S
N127 C128 1.345 . S
N127 C130 1.336 . S
C128 N126 1.335 . S
C128 N127 1.345 . S
C128 H133 0.930 . S
C129 N126 1.390 . S
C129 C130 1.346 . S
C129 H134 0.930 . S
C130 N127 1.336 . S
C130 C129 1.346 . S
C130 H137 0.929 . S
C131 O121 1.282 . S
C131 O132 1.216 . S
O132 C131 1.216 . S
H133 C128 0.930 . S
H134 C129 0.930 . S
O135 Cu115 1.959 . S
O135 C122 1.251 . S
H136 C119 0.930 . S
H137 C130 0.929 . S
Cu138 N139 1.999 . S
Cu138 O144 1.974 . S
Cu138 N149 1.985 . S
Cu138 O158 1.959 . S
N139 Cu138 1.999 . S
N139 C141 1.263 . S
N139 C143 1.389 1_655 S
N140 C141 1.358 . S
N140 C142 1.400 1_655 S
C141 N139 1.263 . S
C141 N140 1.358 . S
C141 H147 0.930 . S
C142 N140 1.400 1_455 S
C142 C143 1.351 . S
C142 H159 0.930 . S
C143 N139 1.389 1_455 S
C143 C142 1.351 . S
C143 H148 0.930 . S
O144 Cu138 1.974 . S
O144 C154 1.282 . S
C145 O146 1.261 . S
C145 O158 1.251 . S
O146 C145 1.261 . S
H147 C141 0.930 . S
H148 C143 0.930 . S
N149 Cu138 1.985 . S
N149 C151 1.335 . S
N149 C152 1.390 . S
N150 C151 1.345 . S
N150 C153 1.336 . S
C151 N149 1.335 . S
C151 N150 1.345 . S
C151 H156 0.930 . S
C152 N149 1.390 . S
C152 C153 1.346 . S
C152 H157 0.930 . S
C153 N150 1.336 . S
C153 C152 1.346 . S
C153 H160 0.929 . S
C154 O144 1.282 . S
C154 O155 1.216 . S
O155 C154 1.216 . S
H156 C151 0.930 . S
H157 C152 0.930 . S
O158 Cu138 1.959 . S
O158 C145 1.251 . S
H159 C142 0.930 . S
H160 C153 0.929 . S
Cu161 N162 1.999 . S
Cu161 O167 1.974 . S
Cu161 N172 1.985 . S
Cu161 O181 1.959 . S
N162 Cu161 1.999 . S
N162 C164 1.263 . S
N162 C166 1.389 1_565 S
N163 C164 1.358 . S
N163 C165 1.400 1_565 S
C164 N162 1.263 . S
C164 N163 1.358 . S
C164 H170 0.930 . S
C165 N163 1.400 1_545 S
C165 C166 1.351 . S
C165 H182 0.930 . S
C166 N162 1.389 1_545 S
C166 C165 1.351 . S
C166 H171 0.930 . S
O167 Cu161 1.974 . S
O167 C177 1.282 . S
C168 O169 1.261 . S
C168 O181 1.251 . S
O169 C168 1.261 . S
H170 C164 0.930 . S
H171 C166 0.930 . S
N172 Cu161 1.985 . S
N172 C174 1.335 . S
N172 C175 1.390 . S
N173 C174 1.345 . S
N173 C176 1.336 . S
C174 N172 1.335 . S
C174 N173 1.345 . S
C174 H179 0.930 . S
C175 N172 1.390 . S
C175 C176 1.346 . S
C175 H180 0.930 . S
C176 N173 1.336 . S
C176 C175 1.346 . S
C176 H183 0.929 . S
C177 O167 1.282 . S
C177 O178 1.216 . S
O178 C177 1.216 . S
H179 C174 0.930 . S
H180 C175 0.930 . S
O181 Cu161 1.959 . S
O181 C168 1.251 . S
H182 C165 0.930 . S
H183 C176 0.929 . S
C184 C185 1.369 1_655 S
C184 C186 1.419 . S
C184 H188 0.930 . S
C185 C184 1.369 1_455 S
C185 C194 1.429 . S
C186 C184 1.419 . S
C186 C187 1.363 . S
C186 H189 0.929 . S
C187 C186 1.363 . S
C187 C193 1.428 1_655 S
H188 C184 0.930 . S
H189 C186 0.929 . S
S190 N191 1.613 . S
S190 N192 1.610 . S
N191 S190 1.613 . S
N191 C194 1.350 . S
N192 S190 1.610 . S
N192 C193 1.351 . S
C193 C187 1.428 1_455 S
C193 N192 1.351 . S
C193 C194 1.434 . S
C194 C185 1.429 . S
C194 N191 1.350 . S
C194 C193 1.434 . S
C195 C196 1.369 1_545 S
C195 C197 1.419 . S
C195 H199 0.930 . S
C196 C195 1.369 1_565 S
C196 C205 1.429 . S
C197 C195 1.419 . S
C197 C198 1.363 . S
C197 H200 0.929 . S
C198 C197 1.363 . S
C198 C204 1.428 1_545 S
H199 C195 0.930 . S
H200 C197 0.929 . S
S201 N202 1.613 . S
S201 N203 1.610 . S
N202 S201 1.613 . S
N202 C205 1.350 . S
N203 S201 1.610 . S
N203 C204 1.351 . S
C204 C198 1.428 1_565 S
C204 N203 1.351 . S
C204 C205 1.434 . S
C205 C196 1.429 . S
C205 N202 1.350 . S
C205 C204 1.434 . S
C206 C207 1.371 . S
C206 C208 1.416 1_655 S
C206 H210 0.930 1_655 S
C207 C206 1.371 . S
C207 C216 1.429 . S
C208 C206 1.416 1_455 S
C208 C209 1.363 . S
C208 H211 0.929 . S
C209 C208 1.363 . S
C209 C215 1.426 1_455 S
H210 C206 0.930 1_455 S
H211 C208 0.929 . S
S212 N213 1.613 . S
S212 N214 1.610 . S
N213 S212 1.613 . S
N213 C216 1.350 . S
N214 S212 1.610 . S
N214 C215 1.351 . S
C215 C209 1.426 1_655 S
C215 N214 1.351 . S
C215 C216 1.437 . S
C216 C207 1.429 . S
C216 N213 1.350 . S
C216 C215 1.437 . S
C217 C218 1.369 . S
C217 C219 1.419 . S
C217 H221 0.930 . S
C218 C217 1.369 . S
C218 C227 1.429 1_545 S
C219 C217 1.419 . S
C219 C220 1.363 1_545 S
C219 H222 0.929 . S
C220 C219 1.363 1_565 S
C220 C226 1.428 . S
H221 C217 0.930 . S
H222 C219 0.929 . S
S223 N224 1.613 . S
S223 N225 1.610 . S
N224 S223 1.613 . S
N224 C227 1.350 . S
N225 S223 1.610 . S
N225 C226 1.351 . S
C226 C220 1.428 . S
C226 N225 1.351 . S
C226 C227 1.434 . S
C227 C218 1.429 1_565 S
C227 N224 1.350 . S
C227 C226 1.434 . S
C228 C229 1.369 1_455 S
C228 C230 1.419 1_556 S
C228 H232 0.930 . S
C229 C228 1.369 1_655 S
C229 C238 1.429 . S
C230 C228 1.419 1_554 S
C230 C231 1.363 . S
C230 H233 0.929 . S
C231 C230 1.363 . S
C231 C237 1.428 1_455 S
H232 C228 0.930 . S
H233 C230 0.929 . S
S234 N235 1.613 1_554 S
S234 N236 1.610 . S
N235 S234 1.613 1_556 S
N235 C238 1.350 . S
N236 S234 1.610 . S
N236 C237 1.351 . S
C237 C231 1.428 1_655 S
C237 N236 1.351 . S
C237 C238 1.434 1_554 S
C238 C229 1.429 . S
C238 N235 1.350 . S
C238 C237 1.434 1_556 S
C239 C240 1.369 . S
C239 C241 1.419 . S
C239 H243 0.930 . S
C240 C239 1.369 . S
C240 C249 1.429 1_545 S
C241 C239 1.419 . S
C241 C242 1.363 1_545 S
C241 H244 0.929 . S
C242 C241 1.363 1_565 S
C242 C248 1.428 . S
H243 C239 0.930 . S
H244 C241 0.929 . S
S245 N246 1.613 . S
S245 N247 1.610 . S
N246 S245 1.613 . S
N246 C249 1.350 . S
N247 S245 1.610 . S
N247 C248 1.351 . S
C248 C242 1.428 . S
C248 N247 1.351 . S
C248 C249 1.434 . S
C249 C240 1.429 1_565 S
C249 N246 1.350 . S
C249 C248 1.434 . S
C250 C251 1.369 . S
C250 C252 1.419 1_554 S
C250 H254 0.930 . S
C251 C250 1.369 . S
C251 C260 1.429 1_655 S
C252 C250 1.419 1_556 S
C252 C253 1.363 1_655 S
C252 H255 0.929 . S
C253 C252 1.363 1_455 S
C253 C259 1.428 . S
H254 C250 0.930 . S
H255 C252 0.929 . S
S256 N257 1.613 . S
S256 N258 1.610 1_554 S
N257 S256 1.613 . S
N257 C260 1.350 . S
N258 S256 1.610 1_556 S
N258 C259 1.351 . S
C259 C253 1.428 . S
C259 N258 1.351 . S
C259 C260 1.434 1_556 S
C260 C251 1.429 1_455 S
C260 N257 1.350 . S
C260 C259 1.434 1_554 S
C261 C262 1.369 1_565 S
C261 C263 1.419 . S
C261 H265 0.930 . S
C262 C261 1.369 1_545 S
C262 C271 1.429 . S
C263 C261 1.419 . S
C263 C264 1.363 . S
C263 H266 0.929 . S
C264 C263 1.363 . S
C264 C270 1.428 1_565 S
H265 C261 0.930 . S
H266 C263 0.929 . S
S267 N268 1.613 . S
S267 N269 1.610 . S
N268 S267 1.613 . S
N268 C271 1.350 . S
N269 S267 1.610 . S
N269 C270 1.351 . S
C270 C264 1.428 1_545 S
C270 N269 1.351 . S
C270 C271 1.434 . S
C271 C262 1.429 . S
C271 N268 1.350 . S
C271 C270 1.434 . S
C272 C273 1.369 . S
C272 C274 1.419 . S
C272 H276 0.930 . S
C273 C272 1.369 . S
C273 C282 1.429 . S
C274 C272 1.419 . S
C274 C275 1.363 . S
C274 H277 0.929 . S
C275 C274 1.363 . S
C275 C281 1.428 . S
H276 C272 0.930 . S
H277 C274 0.929 . S
S278 N279 1.613 . S
S278 N280 1.610 . S
N279 S278 1.613 . S
N279 C282 1.350 . S
N280 S278 1.610 . S
N280 C281 1.351 . S
C281 C275 1.428 . S
C281 N280 1.351 . S
C281 C282 1.434 . S
C282 C273 1.429 . S
C282 N279 1.350 . S
C282 C281 1.434 . S
C283 C284 1.369 . S
C283 C285 1.419 . S
C283 H287 0.930 . S
C284 C283 1.369 . S
C284 C293 1.429 . S
C285 C283 1.419 . S
C285 C286 1.363 . S
C285 H288 0.929 . S
C286 C285 1.363 . S
C286 C292 1.428 . S
H287 C283 0.930 . S
H288 C285 0.929 . S
S289 N290 1.613 . S
S289 N291 1.610 . S
N290 S289 1.613 . S
N290 C293 1.350 . S
N291 S289 1.610 . S
N291 C292 1.351 . S
C292 C286 1.428 . S
C292 N291 1.351 . S
C292 C293 1.434 . S
C293 C284 1.429 . S
C293 N290 1.350 . S
C293 C292 1.434 . S
C294 C295 1.369 . S
C294 C296 1.419 . S
C294 H298 0.930 . S
C295 C294 1.369 . S
C295 C304 1.429 . S
C296 C294 1.419 . S
C296 C297 1.363 . S
C296 H299 0.929 . S
C297 C296 1.363 . S
C297 C303 1.428 . S
H298 C294 0.930 . S
H299 C296 0.929 . S
S300 N301 1.613 . S
S300 N302 1.610 . S
N301 S300 1.613 . S
N301 C304 1.350 . S
N302 S300 1.610 . S
N302 C303 1.351 . S
C303 C297 1.428 . S
C303 N302 1.351 . S
C303 C304 1.434 . S
C304 C295 1.429 . S
C304 N301 1.350 . S
C304 C303 1.434 . S
C305 C306 1.369 . S
C305 C307 1.419 . S
C305 H309 0.930 . S
C306 C305 1.369 . S
C306 C315 1.429 . S
C307 C305 1.419 . S
C307 C308 1.363 . S
C307 H310 0.929 . S
C308 C307 1.363 . S
C308 C314 1.428 . S
H309 C305 0.930 . S
H310 C307 0.929 . S
S311 N312 1.613 . S
S311 N313 1.610 . S
N312 S311 1.613 . S
N312 C315 1.350 . S
N313 S311 1.610 . S
N313 C314 1.351 . S
C314 C308 1.428 . S
C314 N313 1.351 . S
C314 C315 1.434 . S
C315 C306 1.429 . S
C315 N312 1.350 . S
C315 C314 1.434 . S
C316 C317 1.369 . S
C316 C318 1.419 1_445 S
C316 H320 0.930 . S
C317 C316 1.369 . S
C317 C326 1.429 . S
C318 C316 1.419 1_665 S
C318 C319 1.363 . S
C318 H321 0.930 . S
C319 C318 1.363 . S
C319 C325 1.428 . S
H320 C316 0.930 . S
H321 C318 0.930 . S
S322 N323 1.613 1_655 S
S322 N324 1.610 1_545 S
N323 S322 1.613 1_455 S
N323 C326 1.350 . S
N324 S322 1.610 1_565 S
N324 C325 1.351 . S
C325 C319 1.428 . S
C325 N324 1.351 . S
C325 C326 1.434 1_665 S
C326 C317 1.429 . S
C326 N323 1.350 . S
C326 C325 1.434 1_445 S
C327 C328 1.369 1_545 S
C327 C329 1.434 . S
C327 H331 0.930 . S
C328 C327 1.369 1_565 S
C328 C337 1.429 1_455 S
C329 C327 1.434 . S
C329 C330 1.346 1_455 S
C329 H332 0.931 . S
C330 C329 1.346 1_655 S
C330 C336 1.428 1_545 S
H331 C327 0.930 . S
H332 C329 0.931 . S
S333 N334 1.613 . S
S333 N335 1.610 . S
N334 S333 1.613 . S
N334 C337 1.350 . S
N335 S333 1.610 . S
N335 C336 1.351 . S
C336 C330 1.428 1_565 S
C336 N335 1.351 . S
C336 C337 1.434 . S
C337 C328 1.429 1_655 S
C337 N334 1.350 . S
C337 C336 1.434 . S
C338 C339 1.369 1_455 S
C338 C340 1.434 . S
C338 H342 0.930 . S
C339 C338 1.369 1_655 S
C339 C348 1.429 1_545 S
C340 C338 1.434 . S
C340 C341 1.346 1_545 S
C340 H343 0.931 . S
C341 C340 1.346 1_565 S
C341 C347 1.428 1_455 S
H342 C338 0.930 . S
H343 C340 0.931 . S
S344 N345 1.613 . S
S344 N346 1.610 . S
N345 S344 1.613 . S
N345 C348 1.350 . S
N346 S344 1.610 . S
N346 C347 1.351 . S
C347 C341 1.428 1_655 S
C347 N346 1.351 . S
C347 C348 1.434 . S
C348 C339 1.429 1_565 S
C348 N345 1.350 . S
C348 C347 1.434 . S
C349 C350 1.369 1_455 S
C349 C351 1.419 . S
C349 H353 0.930 . S
C350 C349 1.369 1_655 S
C350 C359 1.429 1_565 S
C351 C349 1.419 . S
C351 C352 1.363 1_565 S
C351 H354 0.929 . S
C352 C351 1.363 1_545 S
C352 C358 1.428 1_455 S
H353 C349 0.930 . S
H354 C351 0.929 . S
S355 N356 1.613 . S
S355 N357 1.610 . S
N356 S355 1.613 . S
N356 C359 1.350 . S
N357 S355 1.610 . S
N357 C358 1.351 . S
C358 C352 1.428 1_655 S
C358 N357 1.351 . S
C358 C359 1.434 . S
C359 C350 1.429 1_545 S
C359 N356 1.350 . S
C359 C358 1.434 . S
C185 N12 1.765 . S
C187 N58 1.763 . S
C196 N81 1.766 . S
C198 N35 1.763 . S
C207 N150 1.763 . S
C209 N104 1.763 . S
C218 N127 1.764 . S
C220 N173 1.768 . S
C229 C145 1.644 . S
C231 C7 1.643 . S
C240 C30 1.642 . S
C242 C168 1.642 . S
C251 C53 1.640 . S
C253 C99 1.641 . S
C262 C122 1.644 . S
C264 C76 1.643 . S
C273 C16 1.651 . S
C275 C131 1.651 . S
C284 C154 1.648 . S
C286 C39 1.654 . S
C295 C177 1.651 . S
C297 C62 1.650 . S
C306 C85 1.655 . S
C308 C108 1.649 . S
C317 N2 1.390 . S
C319 N48 1.390 . S
C328 N71 1.396 . S
C330 N25 1.382 . S
C339 N140 1.396 . S
C341 N94 1.382 . S
C350 N163 1.382 . S
C352 N117 1.394 . S
