# Generated by pormake.
# Topology ukk, (4)-cn, num edge types: 1
# Building blocks:
#     Node 0, Type 0, BuildingBlock: ICAMEG_clean_sbu_1, # of connection points: 4
#     Node 1, Type 0, BuildingBlock: ICAMEG_clean_sbu_1, # of connection points: 4
#     Node 2, Type 0, BuildingBlock: ICAMEG_clean_sbu_1, # of connection points: 4
#     Node 3, Type 0, BuildingBlock: ICAMEG_clean_sbu_1, # of connection points: 4
#     Node 4, Type 0, BuildingBlock: ICAMEG_clean_sbu_1, # of connection points: 4
#     Node 5, Type 0, BuildingBlock: ICAMEG_clean_sbu_1, # of connection points: 4
#     Node 6, Type 0, BuildingBlock: ICAMEG_clean_sbu_1, # of connection points: 4
#     Node 7, Type 0, BuildingBlock: ICAMEG_clean_sbu_1, # of connection points: 4
#     Node 8, Type 0, BuildingBlock: ICAMEG_clean_sbu_1, # of connection points: 4
#     Node 9, Type 0, BuildingBlock: ICAMEG_clean_sbu_1, # of connection points: 4
#     Node 10, Type 0, BuildingBlock: ICAMEG_clean_sbu_1, # of connection points: 4
#     Node 11, Type 0, BuildingBlock: ICAMEG_clean_sbu_1, # of connection points: 4
#     Node 12, Type 0, BuildingBlock: ICAMEG_clean_sbu_1, # of connection points: 4
#     Node 13, Type 0, BuildingBlock: ICAMEG_clean_sbu_1, # of connection points: 4
#     Node 14, Type 0, BuildingBlock: ICAMEG_clean_sbu_1, # of connection points: 4
#     Node 15, Type 0, BuildingBlock: ICAMEG_clean_sbu_1, # of connection points: 4
#     Edge 16, Type (0, 0), BuildingBlock: TEMPAE_clean_linker_10, # of connection points: 2
#     Edge 17, Type (0, 0), BuildingBlock: TEMPAE_clean_linker_10, # of connection points: 2
#     Edge 18, Type (0, 0), BuildingBlock: TEMPAE_clean_linker_10, # of connection points: 2
#     Edge 19, Type (0, 0), BuildingBlock: TEMPAE_clean_linker_10, # of connection points: 2
#     Edge 20, Type (0, 0), BuildingBlock: TEMPAE_clean_linker_10, # of connection points: 2
#     Edge 21, Type (0, 0), BuildingBlock: TEMPAE_clean_linker_10, # of connection points: 2
#     Edge 22, Type (0, 0), BuildingBlock: TEMPAE_clean_linker_10, # of connection points: 2
#     Edge 23, Type (0, 0), BuildingBlock: TEMPAE_clean_linker_10, # of connection points: 2
#     Edge 24, Type (0, 0), BuildingBlock: TEMPAE_clean_linker_10, # of connection points: 2
#     Edge 25, Type (0, 0), BuildingBlock: TEMPAE_clean_linker_10, # of connection points: 2
#     Edge 26, Type (0, 0), BuildingBlock: TEMPAE_clean_linker_10, # of connection points: 2
#     Edge 27, Type (0, 0), BuildingBlock: TEMPAE_clean_linker_10, # of connection points: 2
#     Edge 28, Type (0, 0), BuildingBlock: TEMPAE_clean_linker_10, # of connection points: 2
#     Edge 29, Type (0, 0), BuildingBlock: TEMPAE_clean_linker_10, # of connection points: 2
#     Edge 30, Type (0, 0), BuildingBlock: TEMPAE_clean_linker_10, # of connection points: 2
#     Edge 31, Type (0, 0), BuildingBlock: TEMPAE_clean_linker_10, # of connection points: 2
#     Edge 32, Type (0, 0), BuildingBlock: TEMPAE_clean_linker_10, # of connection points: 2
#     Edge 33, Type (0, 0), BuildingBlock: TEMPAE_clean_linker_10, # of connection points: 2
#     Edge 34, Type (0, 0), BuildingBlock: TEMPAE_clean_linker_10, # of connection points: 2
#     Edge 35, Type (0, 0), BuildingBlock: TEMPAE_clean_linker_10, # of connection points: 2
#     Edge 36, Type (0, 0), BuildingBlock: TEMPAE_clean_linker_10, # of connection points: 2
#     Edge 37, Type (0, 0), BuildingBlock: TEMPAE_clean_linker_10, # of connection points: 2
#     Edge 38, Type (0, 0), BuildingBlock: TEMPAE_clean_linker_10, # of connection points: 2
#     Edge 39, Type (0, 0), BuildingBlock: TEMPAE_clean_linker_10, # of connection points: 2
#     Edge 40, Type (0, 0), BuildingBlock: TEMPAE_clean_linker_10, # of connection points: 2
#     Edge 41, Type (0, 0), BuildingBlock: TEMPAE_clean_linker_10, # of connection points: 2
#     Edge 42, Type (0, 0), BuildingBlock: TEMPAE_clean_linker_10, # of connection points: 2
#     Edge 43, Type (0, 0), BuildingBlock: TEMPAE_clean_linker_10, # of connection points: 2
#     Edge 44, Type (0, 0), BuildingBlock: TEMPAE_clean_linker_10, # of connection points: 2
#     Edge 45, Type (0, 0), BuildingBlock: TEMPAE_clean_linker_10, # of connection points: 2
#     Edge 46, Type (0, 0), BuildingBlock: TEMPAE_clean_linker_10, # of connection points: 2
#     Edge 47, Type (0, 0), BuildingBlock: TEMPAE_clean_linker_10, # of connection points: 2
# Relax obj value: 0.062
# Max RMSD: 0.229
# Mean RMSD: 0.224
data_MOF--net-ukk--node1-ICAMEG_clean_sbu_1--edge1-TEMPAE_clean_linker_10
_symmetry_space_group_name_H-M    P1
_symmetry_Int_Tables_number       1
_symmetry_cell_setting            triclinic
loop_
_symmetry_equiv_pos_as_xyz
'x, y, z'
_cell_length_a     59.818163
_cell_length_b     58.83482
_cell_length_c     16.513571
_cell_angle_alpha  89.969398
_cell_angle_beta   89.963769
_cell_angle_gamma 90.001034
loop_
_atom_site_label
_atom_site_type_symbol
_atom_site_fract_x
_atom_site_fract_y
_atom_site_fract_z
_atom_type_partial_charge
Co0 Co 0.3713 0.11842 0.20149 0.0
Co1 Co 0.37351 0.12428 0.99333 0.0
O2 O 0.36261 0.11009 0.09226 0.0
C3 C 0.38442 0.0706 0.18368 0.0
O4 O 0.39373 0.07691 0.11534 0.0
C5 C 0.32533 0.13219 0.99514 0.0
O6 O 0.32836 0.13925 0.06961 0.0
O7 O 0.37013 0.15527 0.03954 0.0
O8 O 0.36821 0.15154 0.17535 0.0
H9 H 0.4194 0.17828 0.82556 0.0
H10 H 0.33444 0.08548 0.17551 0.0
O11 O 0.37459 0.08526 0.2281 0.0
H12 H 0.30084 0.149 0.32763 0.0
H13 H 0.37168 0.10921 0.50456 0.0
H14 H 0.40081 0.15347 0.27375 0.0
H15 H 0.34094 0.14939 0.29261 0.0
H16 H 0.36067 0.09965 0.36461 0.0
O17 O 0.34191 0.12536 0.95306 0.0
H18 H 0.40617 0.16052 0.95217 0.0
H19 H 0.36219 0.11795 0.81934 0.0
H20 H 0.41216 0.1637 0.4127 0.0
H21 H 0.29431 0.0843 0.20988 0.0
H22 H 0.39751 0.14151 0.52929 0.0
H23 H 0.27725 0.11627 0.28619 0.0
O24 O 0.40335 0.11967 0.16988 0.0
H25 H 0.34969 0.04425 0.93101 0.0
H26 H 0.41047 0.1005 0.9071 0.0
H27 H 0.41604 0.06175 0.85373 0.0
H28 H 0.38551 0.03332 0.86557 0.0
H29 H 0.34489 0.08313 0.98403 0.0
H30 H 0.37483 0.13532 0.69113 0.0
H31 H 0.4037 0.16564 0.69376 0.0
O32 O 0.40495 0.12382 0.03406 0.0
C33 C 0.36852 0.1635 0.11076 0.0
C34 C 0.40688 0.16501 0.82357 0.0
C35 C 0.38184 0.14092 0.74815 0.0
N36 N 0.38364 0.13805 0.89306 0.0
C37 C 0.3994 0.15484 0.89507 0.0
C38 C 0.37473 0.13117 0.82091 0.0
C39 C 0.39805 0.15793 0.74966 0.0
C40 C 0.32718 0.09934 0.20948 0.0
N41 N 0.34003 0.11743 0.23238 0.0
C42 C 0.30443 0.09863 0.22847 0.0
C43 C 0.29486 0.11659 0.27119 0.0
C44 C 0.30809 0.13496 0.29443 0.0
C45 C 0.33077 0.1351 0.27431 0.0
C46 C 0.37812 0.11904 0.45428 0.0
C47 C 0.39429 0.14382 0.32423 0.0
C48 C 0.37198 0.11368 0.37494 0.0
N49 N 0.37994 0.12613 0.31124 0.0
C50 C 0.40082 0.14965 0.40274 0.0
C51 C 0.39262 0.13717 0.46812 0.0
C52 C 0.4141 0.12219 0.10367 0.0
C53 C 0.3631 0.05651 0.92527 0.0
C54 C 0.39711 0.08822 0.91244 0.0
C55 C 0.40035 0.06631 0.88203 0.0
C56 C 0.38321 0.05038 0.88866 0.0
N57 N 0.37733 0.0941 0.94818 0.0
C58 C 0.36044 0.07858 0.95485 0.0
Co59 Co 0.11965 0.63627 0.76 0.0
Co60 Co 0.09469 0.62842 0.9464 0.0
O61 O 0.11638 0.64269 0.87503 0.0
C62 C 0.16297 0.6251 0.83116 0.0
O63 O 0.1514 0.61338 0.88424 0.0
C64 C 0.08459 0.67717 0.96133 0.0
O65 O 0.08233 0.67757 0.88231 0.0
O66 O 0.07024 0.63417 0.86777 0.0
O67 O 0.08649 0.63618 0.74465 0.0
H68 H 0.03041 0.57705 0.01653 0.0
H69 H 0.14413 0.67496 0.83354 0.0
O70 O 0.15293 0.63583 0.7748 0.0
H71 H 0.09623 0.70888 0.62267 0.0
H72 H 0.15613 0.64543 0.48727 0.0
H73 H 0.09741 0.60571 0.64205 0.0
H74 H 0.09627 0.66743 0.64558 0.0
H75 H 0.1508 0.65319 0.63287 0.0
O76 O 0.08933 0.65871 0.99786 0.0
H77 H 0.05834 0.59461 0.92607 0.0
H78 H 0.08405 0.63342 0.12177 0.0
H79 H 0.102 0.59757 0.49644 0.0
H80 H 0.14469 0.71647 0.81242 0.0
H81 H 0.13154 0.61752 0.41804 0.0
H82 H 0.12059 0.73369 0.70635 0.0
O83 O 0.11868 0.60295 0.77925 0.0
H84 H 0.16263 0.64883 0.10983 0.0
H85 H 0.10957 0.58777 0.03988 0.0
H86 H 0.14065 0.57968 0.1337 0.0
H87 H 0.16743 0.61035 0.16927 0.0
H88 H 0.13144 0.65613 0.01574 0.0
H89 H 0.05627 0.61642 0.2143 0.0
H90 H 0.02927 0.58794 0.1618 0.0
O91 O 0.09981 0.59805 0.89578 0.0
C92 C 0.06934 0.6358 0.79076 0.0
C93 C 0.04214 0.58937 0.0402 0.0
C94 C 0.05664 0.61149 0.15117 0.0
N95 N 0.07294 0.61483 0.01884 0.0
C96 C 0.05804 0.59931 0.98933 0.0
C97 C 0.0723 0.62109 0.0985 0.0
C98 C 0.0415 0.59551 0.12168 0.0
C99 C 0.13373 0.68231 0.78686 0.0
N100 N 0.1203 0.66878 0.74048 0.0
C101 C 0.13406 0.70583 0.77537 0.0
C102 C 0.12051 0.71548 0.71594 0.0
C103 C 0.10683 0.70157 0.66897 0.0
C104 C 0.1069 0.67812 0.6823 0.0
C105 C 0.14315 0.63669 0.52069 0.0
C106 C 0.11015 0.6146 0.60814 0.0
C107 C 0.14007 0.641 0.60313 0.0
N108 N 0.12361 0.63014 0.64555 0.0
C109 C 0.11274 0.60985 0.52581 0.0
C110 C 0.12934 0.62103 0.48189 0.0
C111 C 0.10959 0.59035 0.83281 0.0
C112 C 0.15102 0.63535 0.09502 0.0
C113 C 0.12117 0.6012 0.05504 0.0
C114 C 0.13871 0.59653 0.10828 0.0
C115 C 0.15373 0.61375 0.12825 0.0
N116 N 0.11861 0.62244 0.0228 0.0
C117 C 0.13326 0.63941 0.04209 0.0
Co118 Co 0.61793 0.88133 0.19239 0.0
Co119 Co 0.62303 0.87422 0.98602 0.0
O120 O 0.63065 0.889 0.08769 0.0
C121 C 0.60822 0.92968 0.17064 0.0
O122 O 0.60007 0.92382 0.09989 0.0
C123 C 0.67147 0.86869 0.00269 0.0
O124 O 0.66711 0.8607 0.07521 0.0
O125 O 0.6271 0.84368 0.03476 0.0
O126 O 0.61924 0.84807 0.16738 0.0
H127 H 0.58444 0.81743 0.80682 0.0
H128 H 0.65755 0.91156 0.18411 0.0
O129 O 0.61619 0.91457 0.21787 0.0
H130 H 0.68139 0.84551 0.34648 0.0
H131 H 0.60849 0.89043 0.49356 0.0
H132 H 0.58327 0.84915 0.25037 0.0
H133 H 0.64288 0.84797 0.29383 0.0
H134 H 0.62477 0.89901 0.35958 0.0
O135 O 0.65554 0.87493 0.95638 0.0
H136 H 0.59347 0.83617 0.93638 0.0
H137 H 0.63842 0.88074 0.81615 0.0
H138 H 0.56658 0.83997 0.38306 0.0
H139 H 0.69616 0.90988 0.23614 0.0
H140 H 0.57925 0.86064 0.50591 0.0
H141 H 0.70832 0.87663 0.31774 0.0
O142 O 0.58732 0.88246 0.14742 0.0
H143 H 0.64402 0.95536 0.92853 0.0
H144 H 0.58728 0.89572 0.88627 0.0
H145 H 0.5811 0.93399 0.82944 0.0
H146 H 0.60959 0.96412 0.85049 0.0
H147 H 0.64945 0.91691 0.98475 0.0
H148 H 0.62998 0.86241 0.68528 0.0
H149 H 0.60273 0.83059 0.68005 0.0
O150 O 0.59045 0.87304 0.01553 0.0
C151 C 0.62372 0.8358 0.10566 0.0
C152 C 0.59627 0.83135 0.80826 0.0
C153 C 0.62186 0.85657 0.74006 0.0
N154 N 0.61625 0.85969 0.8836 0.0
C155 C 0.60139 0.84207 0.88139 0.0
C156 C 0.62659 0.86686 0.81431 0.0
C157 C 0.60656 0.83872 0.73717 0.0
C158 C 0.66265 0.89716 0.22031 0.0
N159 N 0.64795 0.87996 0.23635 0.0
C160 C 0.68456 0.89625 0.24929 0.0
C161 C 0.69138 0.87757 0.29497 0.0
C162 C 0.67629 0.8601 0.31108 0.0
C163 C 0.65452 0.86157 0.28099 0.0
C164 C 0.6029 0.88124 0.44054 0.0
C165 C 0.58897 0.8581 0.30363 0.0
C166 C 0.61205 0.88604 0.36456 0.0
N167 N 0.60518 0.87437 0.2975 0.0
C168 C 0.57941 0.85289 0.37856 0.0
C169 C 0.58649 0.86452 0.44743 0.0
C170 C 0.57893 0.87753 0.07872 0.0
C171 C 0.63151 0.94235 0.91874 0.0
C172 C 0.59975 0.90875 0.8957 0.0
C173 C 0.59618 0.93037 0.86328 0.0
C174 C 0.61218 0.94727 0.87507 0.0
N175 N 0.61876 0.90406 0.93843 0.0
C176 C 0.63455 0.92052 0.95012 0.0
Co177 Co 0.87329 0.3585 0.78618 0.0
Co178 Co 0.90117 0.36991 0.96515 0.0
O179 O 0.87925 0.3534 0.9007 0.0
C180 C 0.83112 0.36799 0.86996 0.0
O181 O 0.84322 0.37986 0.92088 0.0
C182 C 0.91409 0.32188 0.97206 0.0
O183 O 0.91084 0.3215 0.89353 0.0
O184 O 0.92388 0.3676 0.87801 0.0
O185 O 0.90604 0.35932 0.76141 0.0
H186 H 0.96008 0.42902 0.01753 0.0
H187 H 0.85146 0.31986 0.87059 0.0
O188 O 0.84042 0.35806 0.81018 0.0
H189 H 0.89558 0.28533 0.6503 0.0
H190 H 0.83117 0.34608 0.52618 0.0
H191 H 0.89243 0.38813 0.65831 0.0
H192 H 0.89505 0.32693 0.66904 0.0
H193 H 0.83985 0.33974 0.67051 0.0
O194 O 0.91164 0.34029 0.01167 0.0
H195 H 0.93198 0.40862 0.93606 0.0
H196 H 0.91745 0.36523 0.13478 0.0
H197 H 0.88443 0.39489 0.51372 0.0
H198 H 0.85127 0.27821 0.85337 0.0
H199 H 0.85362 0.37376 0.44672 0.0
H200 H 0.87352 0.26068 0.74275 0.0
O201 O 0.8735 0.39208 0.80113 0.0
H202 H 0.84109 0.34067 0.1509 0.0
H203 H 0.88426 0.40808 0.06663 0.0
H204 H 0.8553 0.41195 0.17215 0.0
H205 H 0.8335 0.37807 0.21498 0.0
H206 H 0.87009 0.3376 0.04521 0.0
H207 H 0.9455 0.38506 0.21838 0.0
H208 H 0.967 0.41725 0.15984 0.0
O209 O 0.89114 0.39947 0.91856 0.0
C210 C 0.92367 0.36373 0.80201 0.0
C211 C 0.95079 0.41505 0.04381 0.0
C212 C 0.94263 0.39036 0.15648 0.0
N213 N 0.92302 0.38583 0.03072 0.0
C214 C 0.93483 0.40347 0.99799 0.0
C215 C 0.92681 0.37916 0.1088 0.0
C216 C 0.95467 0.40842 0.12361 0.0
C217 C 0.86099 0.31238 0.82178 0.0
N218 N 0.87315 0.32582 0.7706 0.0
C219 C 0.86087 0.28878 0.81248 0.0
C220 C 0.8734 0.27895 0.75052 0.0
C221 C 0.8858 0.29277 0.69869 0.0
C222 C 0.8855 0.3163 0.70973 0.0
C223 C 0.84468 0.35534 0.55463 0.0
C224 C 0.87909 0.37877 0.62941 0.0
C225 C 0.84964 0.35185 0.63634 0.0
N226 N 0.86676 0.3634 0.67251 0.0
C227 C 0.87459 0.38272 0.54761 0.0
C228 C 0.85728 0.37087 0.51008 0.0
C229 C 0.88105 0.40581 0.85432 0.0
C230 C 0.85054 0.35554 0.13296 0.0
C231 C 0.87484 0.39326 0.08496 0.0
C232 C 0.85848 0.39555 0.14478 0.0
C233 C 0.84626 0.37653 0.1688 0.0
N234 N 0.87897 0.3726 0.05024 0.0
C235 C 0.86704 0.35388 0.07341 0.0
Co236 Co 0.36794 0.37624 0.03619 0.0
Co237 Co 0.37099 0.37587 0.24499 0.0
O238 O 0.36024 0.38786 0.14254 0.0
C239 C 0.38481 0.42307 0.04174 0.0
O240 O 0.39378 0.41725 0.11113 0.0
C241 C 0.32248 0.36938 0.24552 0.0
O242 O 0.32517 0.3612 0.17236 0.0
O243 O 0.36714 0.34389 0.20784 0.0
O244 O 0.36223 0.34432 0.07234 0.0
H245 H 0.41679 0.32551 0.42662 0.0
H246 H 0.3342 0.41301 0.05226 0.0
O247 O 0.37403 0.40838 1.00041 0.0
H248 H 0.29481 0.34944 0.92008 0.0
H249 H 0.36883 0.37894 0.73157 0.0
H250 H 0.39374 0.33685 0.97361 0.0
H251 H 0.33474 0.34613 0.95557 0.0
H252 H 0.35884 0.39237 0.8685 0.0
O253 O 0.33936 0.37618 0.28603 0.0
H254 H 0.40389 0.34082 0.29564 0.0
H255 H 0.35959 0.38582 0.41682 0.0
H256 H 0.40399 0.32275 0.83793 0.0
H257 H 0.29433 0.41711 0.01722 0.0
H258 H 0.3915 0.34386 0.7157 0.0
H259 H 0.27435 0.38514 0.95087 0.0
O260 O 0.39977 0.37236 0.06756 0.0
H261 H 0.34858 0.45754 0.28223 0.0
H262 H 0.40829 0.40095 0.32411 0.0
H263 H 0.41459 0.44078 0.36487 0.0
H264 H 0.38461 0.46938 0.34385 0.0
H265 H 0.34304 0.41757 0.24194 0.0
H266 H 0.37194 0.37093 0.54923 0.0
H267 H 0.40078 0.3406 0.55462 0.0
O268 O 0.40242 0.37508 0.20365 0.0
C269 C 0.36375 0.33395 0.14018 0.0
C270 C 0.40425 0.33877 0.42506 0.0
C271 C 0.37906 0.36424 0.49386 0.0
N272 N 0.3811 0.36426 0.34864 0.0
C273 C 0.39692 0.34753 0.35107 0.0
C274 C 0.3721 0.37257 0.41874 0.0
C275 C 0.39525 0.34722 0.49686 0.0
C276 C 0.32569 0.39911 0.02261 0.0
N277 N 0.33682 0.37942 0.00543 0.0
C278 C 0.30309 0.4015 0.00324 0.0
C279 C 0.29188 0.38354 0.96612 0.0
C280 C 0.30334 0.3635 0.94885 0.0
C281 C 0.32594 0.36172 0.96916 0.0
C282 C 0.37433 0.36958 0.78436 0.0
C283 C 0.38813 0.34605 0.92072 0.0
C284 C 0.36877 0.37712 0.86201 0.0
N285 N 0.37557 0.36531 0.9289 0.0
C286 C 0.39404 0.33802 0.84405 0.0
C287 C 0.38705 0.34988 0.7755 0.0
C288 C 0.41091 0.37224 0.13343 0.0
C289 C 0.36174 0.44522 0.29195 0.0
C290 C 0.39515 0.4133 0.315 0.0
C291 C 0.39881 0.43582 0.33821 0.0
C292 C 0.38197 0.45186 0.32642 0.0
N293 N 0.37526 0.40692 0.28122 0.0
C294 C 0.35866 0.42254 0.26961 0.0
Co295 Co 0.3708 0.63663 0.9906 0.0
Co296 Co 0.40296 0.62972 0.81861 0.0
O297 O 0.37798 0.64312 0.87754 0.0
C298 C 0.33007 0.62543 0.9004 0.0
O299 O 0.34302 0.61361 0.85199 0.0
C300 C 0.40886 0.67908 0.80331 0.0
O301 O 0.40428 0.6804 0.88087 0.0
O302 O 0.42377 0.63734 0.90776 0.0
O303 O 0.40313 0.63714 0.02181 0.0
H304 H 0.47168 0.58141 0.78766 0.0
H305 H 0.34822 0.67501 0.9073 0.0
O306 O 0.33841 0.63583 0.96093 0.0
H307 H 0.38787 0.70945 0.13844 0.0
H308 H 0.3249 0.64476 0.24451 0.0
H309 H 0.38923 0.60629 0.11759 0.0
H310 H 0.38952 0.66807 0.11501 0.0
H311 H 0.33516 0.65287 0.10264 0.0
O312 O 0.40931 0.6599 0.76773 0.0
H313 H 0.43954 0.59787 0.86071 0.0
H314 H 0.42023 0.63431 0.64998 0.0
H315 H 0.37969 0.59781 0.2598 0.0
H316 H 0.346 0.71643 0.92885 0.0
H317 H 0.34733 0.61714 0.32419 0.0
H318 H 0.36597 0.73392 0.04504 0.0
O319 O 0.37288 0.60334 0.9714 0.0
H320 H 0.34143 0.64615 0.6201 0.0
H321 H 0.39372 0.58796 0.72176 0.0
H322 H 0.36711 0.57804 0.61335 0.0
H323 H 0.34074 0.60725 0.56174 0.0
H324 H 0.36819 0.6553 0.7289 0.0
H325 H 0.45226 0.61838 0.57475 0.0
H326 H 0.47819 0.59166 0.6436 0.0
O327 O 0.39716 0.59931 0.86847 0.0
C328 C 0.42177 0.63841 0.9845 0.0
C329 C 0.46044 0.59296 0.75689 0.0
C330 C 0.44956 0.61374 0.63743 0.0
N331 N 0.42792 0.61684 0.75938 0.0
C332 C 0.44219 0.60228 0.79786 0.0
C333 C 0.43148 0.62273 0.68034 0.0
C334 C 0.4641 0.59874 0.6761 0.0
C335 C 0.35677 0.68245 0.95846 0.0
N336 N 0.3689 0.66911 0.01003 0.0
C337 C 0.35553 0.70593 0.97017 0.0
C338 C 0.36677 0.71574 0.03525 0.0
C339 C 0.37909 0.70202 0.08764 0.0
C340 C 0.38 0.67861 0.07395 0.0
C341 C 0.33909 0.63629 0.21723 0.0
C342 C 0.37524 0.6149 0.14542 0.0
C343 C 0.34496 0.6408 0.13692 0.0
N344 N 0.36295 0.63028 0.10228 0.0
C345 C 0.36986 0.60997 0.22585 0.0
C346 C 0.35168 0.62079 0.2619 0.0
C347 C 0.38475 0.59113 0.92421 0.0
C348 C 0.35288 0.63329 0.6419 0.0
C349 C 0.38227 0.60076 0.69972 0.0
C350 C 0.36727 0.59505 0.63823 0.0
C351 C 0.35249 0.61146 0.60927 0.0
N352 N 0.38259 0.62223 0.73129 0.0
C353 C 0.36814 0.6384 0.70323 0.0
Co354 Co 0.6186 0.62038 0.07254 0.0
Co355 Co 0.61865 0.62679 0.28018 0.0
O356 O 0.62893 0.61265 0.18047 0.0
C357 C 0.60927 0.5718 0.09063 0.0
O358 O 0.59948 0.57731 0.15898 0.0
C359 C 0.66683 0.63449 0.27512 0.0
O360 O 0.66333 0.64235 0.20187 0.0
O361 O 0.62234 0.65767 0.23365 0.0
O362 O 0.619 0.6536 0.09848 0.0
H363 H 0.57405 0.68116 0.45059 0.0
H364 H 0.65827 0.59062 0.09249 0.0
O365 O 0.6179 0.58717 0.04602 0.0
H366 H 0.68507 0.65721 0.93912 0.0
H367 H 0.61645 0.61169 0.7694 0.0
H368 H 0.5852 0.6524 0.00464 0.0
H369 H 0.64547 0.65416 0.97944 0.0
H370 H 0.62948 0.60297 0.9078 0.0
O371 O 0.65048 0.62747 0.31797 0.0
H372 H 0.58654 0.66333 0.32313 0.0
H373 H 0.63084 0.6204 0.45339 0.0
H374 H 0.57178 0.66176 0.86736 0.0
H375 H 0.69797 0.5929 0.05286 0.0
H376 H 0.58749 0.64136 0.74851 0.0
H377 H 0.71161 0.62643 0.97587 0.0
O378 O 0.58704 0.61881 0.1082 0.0
H379 H 0.642 0.54652 0.34106 0.0
H380 H 0.58195 0.6034 0.3695 0.0
H381 H 0.57633 0.56472 0.42362 0.0
H382 H 0.6065 0.53599 0.40954 0.0
H383 H 0.64685 0.58533 0.28731 0.0
H384 H 0.61894 0.63785 0.58233 0.0
H385 H 0.59027 0.66838 0.58141 0.0
O386 O 0.58682 0.62657 0.24202 0.0
C387 C 0.62112 0.66575 0.16211 0.0
C388 C 0.58648 0.6678 0.45181 0.0
C389 C 0.61171 0.64352 0.52574 0.0
N390 N 0.60919 0.64067 0.381 0.0
C391 C 0.59356 0.65759 0.37986 0.0
C392 C 0.6184 0.63373 0.45258 0.0
C393 C 0.59561 0.66065 0.52518 0.0
C394 C 0.66403 0.60514 0.0582 0.0
N395 N 0.64954 0.62216 0.03784 0.0
C396 C 0.68655 0.60639 0.03626 0.0
C397 C 0.6942 0.62522 0.99317 0.0
C398 C 0.67932 0.64251 0.97257 0.0
C399 C 0.65692 0.6407 0.99565 0.0
C400 C 0.60954 0.62075 0.82066 0.0
C401 C 0.59221 0.64357 0.95317 0.0
C402 C 0.61684 0.61587 0.89913 0.0
N403 N 0.60831 0.62738 0.96404 0.0
C404 C 0.58449 0.64888 0.87562 0.0
C405 C 0.59329 0.6374 0.80899 0.0
C406 C 0.57696 0.62259 0.17491 0.0
C407 C 0.62876 0.55892 0.34779 0.0
C408 C 0.59514 0.59098 0.3631 0.0
C409 C 0.59188 0.56912 0.39397 0.0
C410 C 0.60882 0.55301 0.3861 0.0
N411 N 0.61475 0.59665 0.32568 0.0
C412 C 0.63145 0.58095 0.31779 0.0
Co413 Co 0.61964 0.35851 0.99076 0.0
Co414 Co 0.59705 0.3725 0.8049 0.0
O415 O 0.61725 0.35536 0.87383 0.0
C416 C 0.66372 0.37013 0.927 0.0
O417 O 0.65281 0.38352 0.87733 0.0
C418 C 0.58482 0.32483 0.77426 0.0
O419 O 0.58166 0.3227 0.85253 0.0
O420 O 0.57163 0.36664 0.87943 0.0
O421 O 0.58636 0.35897 0.00212 0.0
H422 H 0.53639 0.42902 0.74341 0.0
H423 H 0.64376 0.32137 0.906 0.0
O424 O 0.65305 0.35846 0.97941 0.0
H425 H 0.59396 0.28313 0.10138 0.0
H426 H 0.65375 0.34141 0.26252 0.0
H427 H 0.59635 0.38555 0.11685 0.0
H428 H 0.59486 0.32498 0.09207 0.0
H429 H 0.64963 0.33785 0.11437 0.0
O430 O 0.5906 0.34387 0.74405 0.0
H431 H 0.56254 0.40798 0.83118 0.0
H432 H 0.58776 0.37206 0.6277 0.0
H433 H 0.59976 0.3895 0.26507 0.0
H434 H 0.64346 0.27948 0.91347 0.0
H435 H 0.62862 0.36731 0.33888 0.0
H436 H 0.61844 0.2601 0.01181 0.0
O437 O 0.61958 0.39231 0.98359 0.0
H438 H 0.66546 0.35194 0.64389 0.0
H439 H 0.61498 0.41416 0.72516 0.0
H440 H 0.6474 0.42254 0.63772 0.0
H441 H 0.67291 0.39129 0.59655 0.0
H442 H 0.63296 0.34434 0.73178 0.0
H443 H 0.56177 0.39261 0.53768 0.0
H444 H 0.5359 0.42138 0.59547 0.0
O445 O 0.60332 0.40115 0.8649 0.0
C446 C 0.56975 0.36244 0.95505 0.0
C447 C 0.54764 0.41659 0.71744 0.0
C448 C 0.56186 0.39613 0.60201 0.0
N449 N 0.57679 0.38897 0.73449 0.0
C450 C 0.56253 0.40467 0.76681 0.0
C451 C 0.57651 0.38452 0.65327 0.0
C452 C 0.54736 0.41227 0.63447 0.0
C453 C 0.63292 0.31306 0.94923 0.0
N454 N 0.61944 0.32561 0.99886 0.0
C455 C 0.63277 0.28934 0.95302 0.0
C456 C 0.6187 0.27847 0.00811 0.0
C457 C 0.60496 0.29138 0.05837 0.0
C458 C 0.6055 0.31507 0.05272 0.0
C459 C 0.64108 0.35113 0.23107 0.0
C460 C 0.60886 0.37574 0.14863 0.0
C461 C 0.63871 0.34922 0.1472 0.0
N462 N 0.62265 0.36134 0.1072 0.0
C463 C 0.61076 0.3781 0.23251 0.0
C464 C 0.62697 0.36566 0.27388 0.0
C465 C 0.61207 0.40668 0.93249 0.0
C466 C 0.65442 0.36568 0.66116 0.0
C467 C 0.62599 0.40047 0.7074 0.0
C468 C 0.64431 0.40531 0.65784 0.0
C469 C 0.65861 0.38777 0.63473 0.0
N470 N 0.62197 0.37875 0.733 0.0
C471 C 0.63592 0.36146 0.71057 0.0
Co472 Co 0.86653 0.61945 0.71299 0.0
Co473 Co 0.87082 0.62407 0.5048 0.0
O474 O 0.85866 0.61069 0.60332 0.0
C475 C 0.87838 0.57122 0.7012 0.0
O476 O 0.88855 0.57665 0.63349 0.0
C477 C 0.82285 0.63307 0.49996 0.0
O478 O 0.82541 0.64066 0.574 0.0
O479 O 0.86765 0.65539 0.54825 0.0
O480 O 0.86474 0.65241 0.68401 0.0
H481 H 0.91964 0.6759 0.33917 0.0
H482 H 0.82891 0.58762 0.68425 0.0
O483 O 0.86851 0.58648 0.74271 0.0
H484 H 0.79593 0.65291 0.82837 0.0
H485 H 0.86399 0.6121 0.01662 0.0
H486 H 0.89645 0.654 0.78604 0.0
H487 H 0.83634 0.6518 0.79861 0.0
H488 H 0.85382 0.6021 0.87624 0.0
O489 O 0.83963 0.62556 0.46048 0.0
H490 H 0.90496 0.65905 0.46525 0.0
H491 H 0.86083 0.61721 0.33002 0.0
H492 H 0.90696 0.66468 0.92541 0.0
H493 H 0.78846 0.58792 0.71338 0.0
H494 H 0.89067 0.64366 0.04187 0.0
H495 H 0.77171 0.6208 0.78563 0.0
O496 O 0.89887 0.61943 0.68539 0.0
H497 H 0.84591 0.54425 0.44469 0.0
H498 H 0.90806 0.59905 0.4249 0.0
H499 H 0.91329 0.55993 0.37457 0.0
H500 H 0.88207 0.53224 0.38432 0.0
H501 H 0.84145 0.58347 0.49478 0.0
H502 H 0.87493 0.63369 0.20234 0.0
H503 H 0.90461 0.66319 0.20645 0.0
O504 O 0.90183 0.62317 0.54963 0.0
C505 C 0.86576 0.66403 0.61876 0.0
C506 C 0.90677 0.66299 0.33656 0.0
C507 C 0.88165 0.63933 0.25978 0.0
N508 N 0.88221 0.63704 0.40496 0.0
C509 C 0.89844 0.65335 0.40777 0.0
C510 C 0.87371 0.63009 0.33225 0.0
C511 C 0.89831 0.65588 0.26213 0.0
C512 C 0.82178 0.60187 0.71644 0.0
N513 N 0.83497 0.61964 0.73994 0.0
C514 C 0.79885 0.60199 0.73247 0.0
C515 C 0.78946 0.62046 0.77292 0.0
C516 C 0.80304 0.63849 0.79687 0.0
C517 C 0.82589 0.63779 0.77971 0.0
C518 C 0.87115 0.62142 0.96639 0.0
C519 C 0.88918 0.64488 0.83645 0.0
C520 C 0.86549 0.61581 0.8868 0.0
N521 N 0.87438 0.6276 0.82313 0.0
C522 C 0.89525 0.65095 0.9152 0.0
C523 C 0.88612 0.63913 0.98052 0.0
C524 C 0.91026 0.62145 0.62039 0.0
C525 C 0.85962 0.55618 0.43988 0.0
C526 C 0.8944 0.58708 0.42936 0.0
C527 C 0.89745 0.56497 0.40067 0.0
C528 C 0.87992 0.54944 0.40612 0.0
N529 N 0.87443 0.59357 0.46228 0.0
C530 C 0.85716 0.57844 0.46782 0.0
Co531 Co 0.62373 0.1427 0.23336 0.0
Co532 Co 0.59649 0.13446 0.41519 0.0
O533 O 0.61926 0.14866 0.34824 0.0
C534 C 0.66598 0.1307 0.31045 0.0
O535 O 0.65359 0.11882 0.36058 0.0
C536 C 0.58754 0.18335 0.43465 0.0
O537 O 0.58585 0.18459 0.35554 0.0
O538 O 0.57313 0.14165 0.33402 0.0
O539 O 0.59073 0.14293 0.21314 0.0
H540 H 0.52979 0.08489 0.47042 0.0
H541 H 0.64767 0.1809 0.31241 0.0
O542 O 0.65679 0.14187 0.25322 0.0
H543 H 0.60252 0.21603 0.09615 0.0
H544 H 0.66347 0.15254 0.967 0.0
H545 H 0.60251 0.11293 0.1104 0.0
H546 H 0.6019 0.17451 0.11723 0.0
H547 H 0.65649 0.15979 0.11204 0.0
O548 O 0.59151 0.16443 0.46929 0.0
H549 H 0.55928 0.10218 0.38601 0.0
H550 H 0.58421 0.13822 0.5896 0.0
H551 H 0.60875 0.10531 0.96524 0.0
H552 H 0.64885 0.22248 0.29323 0.0
H553 H 0.63942 0.12521 0.89257 0.0
H554 H 0.62614 0.2403 0.18443 0.0
O555 O 0.62226 0.10934 0.25056 0.0
H556 H 0.66323 0.15131 0.58985 0.0
H557 H 0.60916 0.09258 0.50608 0.0
H558 H 0.63897 0.08273 0.6031 0.0
H559 H 0.66626 0.11222 0.64563 0.0
H560 H 0.63329 0.16038 0.49243 0.0
H561 H 0.55489 0.12144 0.6762 0.0
H562 H 0.52748 0.0945 0.61667 0.0
O563 O 0.60121 0.10434 0.36203 0.0
C564 C 0.57312 0.14318 0.25696 0.0
C565 C 0.5417 0.09653 0.49716 0.0
C566 C 0.55577 0.11707 0.61262 0.0
N567 N 0.57359 0.12098 0.48309 0.0
C568 C 0.55848 0.10631 0.44972 0.0
C569 C 0.57231 0.12653 0.5633 0.0
C570 C 0.5404 0.10195 0.57918 0.0
C571 C 0.63787 0.18852 0.26458 0.0
N572 N 0.62485 0.17529 0.21566 0.0
C573 C 0.63855 0.21208 0.25418 0.0
C574 C 0.62578 0.22207 0.19321 0.0
C575 C 0.6125 0.20846 0.14367 0.0
C576 C 0.6122 0.18497 0.15598 0.0
C577 C 0.65 0.14383 0.99791 0.0
C578 C 0.61575 0.1218 0.07898 0.0
C579 C 0.64599 0.14785 0.08001 0.0
N580 N 0.62892 0.13702 0.11927 0.0
C581 C 0.61927 0.11735 0.99689 0.0
C582 C 0.6365 0.12849 0.95618 0.0
C583 C 0.61191 0.09671 0.30093 0.0
C584 C 0.65139 0.13834 0.57201 0.0
C585 C 0.62098 0.10551 0.52427 0.0
C586 C 0.63781 0.09984 0.57931 0.0
C587 C 0.6531 0.11639 0.60318 0.0
N588 N 0.6194 0.12708 0.49405 0.0
C589 C 0.63434 0.14341 0.51718 0.0
Co590 Co 0.12582 0.3767 0.70537 0.0
Co591 Co 0.12004 0.37578 0.49729 0.0
O592 O 0.13203 0.38816 0.59741 0.0
C593 C 0.10873 0.42342 0.70292 0.0
O594 O 0.09882 0.41779 0.63503 0.0
C595 C 0.16846 0.3693 0.48864 0.0
O596 O 0.1667 0.3614 0.56257 0.0
O597 O 0.12454 0.34392 0.53486 0.0
O598 O 0.13117 0.34486 0.66926 0.0
H599 H 0.07217 0.32467 0.3258 0.0
H600 H 0.15919 0.4135 0.68207 0.0
O601 O 0.12016 0.40872 0.74171 0.0
H602 H 0.20055 0.35036 0.80911 0.0
H603 H 0.1289 0.37995 0.00975 0.0
H604 H 0.10129 0.33716 0.77338 0.0
H605 H 0.16018 0.34688 0.78118 0.0
H606 H 0.13703 0.39316 0.87096 0.0
O607 O 0.15111 0.37609 0.4508 0.0
H608 H 0.08668 0.34043 0.45379 0.0
H609 H 0.12916 0.38523 0.32331 0.0
H610 H 0.09287 0.32326 0.91102 0.0
H611 H 0.1995 0.41777 0.70953 0.0
H612 H 0.10671 0.34474 0.03044 0.0
H613 H 0.22046 0.38602 0.77323 0.0
O614 O 0.09358 0.37275 0.67966 0.0
H615 H 0.1416 0.45738 0.45214 0.0
H616 H 0.08165 0.40041 0.42337 0.0
H617 H 0.07468 0.44004 0.38144 0.0
H618 H 0.10479 0.46883 0.39579 0.0
H619 H 0.14779 0.41761 0.49381 0.0
H620 H 0.11521 0.36985 0.19379 0.0
H621 H 0.08647 0.3394 0.19457 0.0
O622 O 0.08921 0.37497 0.54411 0.0
C623 C 0.12889 0.33427 0.60232 0.0
C624 C 0.08466 0.33798 0.32466 0.0
C625 C 0.10884 0.36332 0.25058 0.0
N626 N 0.10865 0.36381 0.39598 0.0
C627 C 0.09289 0.34701 0.39696 0.0
C628 C 0.1167 0.37192 0.32407 0.0
C629 C 0.0927 0.34624 0.25106 0.0
C630 C 0.16815 0.3997 0.7106 0.0
N631 N 0.15732 0.38002 0.7305 0.0
C632 C 0.19099 0.40218 0.72567 0.0
C633 C 0.20275 0.38434 0.76132 0.0
C634 C 0.19159 0.36433 0.78144 0.0
C635 C 0.16874 0.36244 0.7654 0.0
C636 C 0.12279 0.37044 0.95822 0.0
C637 C 0.10745 0.34653 0.825 0.0
C638 C 0.1273 0.37787 0.87951 0.0
N639 N 0.11971 0.36589 0.81416 0.0
C640 C 0.1026 0.33861 0.90282 0.0
C641 C 0.11035 0.35067 0.96978 0.0
C642 C 0.08155 0.3724 0.61577 0.0
C643 C 0.12837 0.44498 0.44536 0.0
C644 C 0.09483 0.41285 0.42971 0.0
C645 C 0.0908 0.43525 0.40581 0.0
C646 C 0.1077 0.4514 0.41385 0.0
N647 N 0.11515 0.40669 0.46054 0.0
C648 C 0.13181 0.42241 0.46852 0.0
Co649 Co 0.37324 0.85657 0.25349 0.0
Co650 Co 0.40481 0.86608 0.42518 0.0
O651 O 0.38028 0.85154 0.36746 0.0
C652 C 0.33223 0.86801 0.34185 0.0
O653 O 0.34499 0.88057 0.38844 0.0
C654 C 0.41148 0.81707 0.44662 0.0
O655 O 0.40759 0.81513 0.36875 0.0
O656 O 0.42602 0.85804 0.33762 0.0
O657 O 0.40569 0.85627 0.22309 0.0
H658 H 0.47242 0.91615 0.45191 0.0
H659 H 0.35111 0.8188 0.34188 0.0
O660 O 0.34074 0.85716 0.28258 0.0
H661 H 0.39168 0.78244 0.11646 0.0
H662 H 0.32796 0.84479 1.00017 0.0
H663 H 0.39149 0.88568 0.12246 0.0
H664 H 0.39273 0.82406 0.13421 0.0
H665 H 0.33807 0.8385 0.14331 0.0
O666 O 0.41151 0.83654 0.48022 0.0
H667 H 0.44087 0.89825 0.38005 0.0
H668 H 0.4217 0.86357 0.59477 0.0
H669 H 0.38211 0.89234 0.97894 0.0
H670 H 0.34945 0.77715 0.32593 0.0
H671 H 0.35014 0.87179 0.91688 0.0
H672 H 0.36988 0.7587 0.21264 0.0
O673 O 0.37474 0.89008 0.26776 0.0
H674 H 0.34302 0.85051 0.62389 0.0
H675 H 0.39447 0.90862 0.516 0.0
H676 H 0.36735 0.91916 0.62209 0.0
H677 H 0.34139 0.88998 0.67681 0.0
H678 H 0.37029 0.84074 0.51731 0.0
H679 H 0.45315 0.88097 0.66888 0.0
H680 H 0.47872 0.90754 0.59742 0.0
O681 O 0.39855 0.89581 0.37102 0.0
C682 C 0.42429 0.856 0.26101 0.0
C683 C 0.46135 0.90468 0.48381 0.0
C684 C 0.45054 0.8849 0.60556 0.0
N685 N 0.42934 0.88007 0.48342 0.0
C686 C 0.44341 0.89455 0.44351 0.0
C687 C 0.43279 0.87508 0.56327 0.0
C688 C 0.46488 0.89981 0.56542 0.0
C689 C 0.35986 0.81093 0.29195 0.0
N690 N 0.3719 0.82387 0.2388 0.0
C691 C 0.35893 0.78732 0.28342 0.0
C692 C 0.37044 0.77697 0.21996 0.0
C693 C 0.38269 0.79028 0.16602 0.0
C694 C 0.38327 0.81384 0.1765 0.0
C695 C 0.34198 0.85378 0.02644 0.0
C696 C 0.37768 0.87654 0.09567 0.0
C697 C 0.34776 0.85031 0.10745 0.0
N698 N 0.36553 0.86149 0.14083 0.0
C699 C 0.37239 0.88045 0.01448 0.0
C700 C 0.35443 0.86893 0.97973 0.0
C701 C 0.38621 0.90307 0.31352 0.0
C702 C 0.3543 0.86335 0.60073 0.0
C703 C 0.38321 0.89584 0.53943 0.0
C704 C 0.36792 0.9019 0.59959 0.0
C705 C 0.35337 0.88551 0.6303 0.0
N706 N 0.38405 0.87405 0.51084 0.0
C707 C 0.36984 0.8579 0.54064 0.0
Co708 Co 0.86715 0.87705 0.54704 0.0
Co709 Co 0.87484 0.87588 0.75435 0.0
O710 O 0.86177 0.88827 0.65597 0.0
C711 C 0.88408 0.92389 0.54859 0.0
O712 O 0.89417 0.91823 0.61612 0.0
C713 C 0.8266 0.86851 0.76956 0.0
O714 O 0.82769 0.8609 0.6951 0.0
O715 O 0.87039 0.84404 0.71657 0.0
O716 O 0.86223 0.84507 0.58329 0.0
H717 H 0.92486 0.82494 0.91846 0.0
H718 H 0.83389 0.91369 0.57454 0.0
O719 O 0.87247 0.90919 0.51048 0.0
H720 H 0.79166 0.85057 0.45146 0.0
H721 H 0.86152 0.88081 0.24322 0.0
H722 H 0.89128 0.83774 0.47564 0.0
H723 H 0.83226 0.84719 0.47482 0.0
H724 H 0.85446 0.89372 0.38308 0.0
O725 O 0.84422 0.87562 0.80495 0.0
H726 H 0.909 0.84085 0.79275 0.0
H727 H 0.86731 0.88487 0.92961 0.0
H728 H 0.89863 0.82415 0.33689 0.0
H729 H 0.79335 0.91787 0.55168 0.0
H730 H 0.88372 0.84577 0.21945 0.0
H731 H 0.77195 0.88612 0.48998 0.0
O732 O 0.89962 0.87318 0.56887 0.0
H733 H 0.85262 0.95705 0.80426 0.0
H734 H 0.9136 0.90091 0.82385 0.0
H735 H 0.92043 0.94055 0.86577 0.0
H736 H 0.8898 0.96893 0.85603 0.0
H737 H 0.84657 0.91727 0.76246 0.0
H738 H 0.88261 0.86934 0.0569 0.0
H739 H 0.91164 0.8392 0.05176 0.0
O740 O 0.90524 0.8756 0.70374 0.0
C741 C 0.86538 0.83441 0.64971 0.0
C742 C 0.91226 0.83812 0.92149 0.0
C743 C 0.88853 0.86301 0.99919 0.0
N744 N 0.88735 0.86385 0.85387 0.0
C745 C 0.90326 0.84723 0.8505 0.0
C746 C 0.87989 0.87171 0.92694 0.0
C747 C 0.90482 0.84611 0.99626 0.0
C748 C 0.82473 0.8999 0.54688 0.0
N749 N 0.83544 0.88028 0.52553 0.0
C750 C 0.80176 0.90232 0.53441 0.0
C751 C 0.78976 0.88449 0.49988 0.0
C752 C 0.80081 0.86453 0.47828 0.0
C753 C 0.82379 0.86271 0.49173 0.0
C754 C 0.86809 0.87124 0.29388 0.0
C755 C 0.88464 0.84717 0.4249 0.0
C756 C 0.86419 0.87849 0.37319 0.0
N757 N 0.87238 0.86644 0.43744 0.0
C758 C 0.88889 0.83942 0.34645 0.0
C759 C 0.88054 0.85156 0.28059 0.0
C760 C 0.91224 0.87303 0.6312 0.0
C761 C 0.86607 0.94483 0.80902 0.0
C762 C 0.90019 0.91317 0.81954 0.0
C763 C 0.90415 0.93558 0.84342 0.0
C764 C 0.88695 0.95149 0.83796 0.0
N765 N 0.87967 0.90677 0.79123 0.0
C766 C 0.86272 0.92226 0.78579 0.0
Co767 Co 0.8737 0.13652 0.48334 0.0
Co768 Co 0.90443 0.1291 0.30806 0.0
O769 O 0.88028 0.14299 0.36989 0.0
C770 C 0.83247 0.12603 0.39544 0.0
O771 O 0.84513 0.11409 0.34642 0.0
C772 C 0.91182 0.17823 0.2972 0.0
O773 O 0.90782 0.17887 0.37527 0.0
O774 O 0.92603 0.13551 0.39578 0.0
O775 O 0.90623 0.13646 0.51191 0.0
H776 H 0.97126 0.07866 0.26762 0.0
H777 H 0.85115 0.17528 0.40224 0.0
O778 O 0.84112 0.13621 0.45589 0.0
H779 H 0.89268 0.20894 0.63048 0.0
H780 H 0.8293 0.14502 0.74056 0.0
H781 H 0.89249 0.10588 0.60877 0.0
H782 H 0.89362 0.16756 0.60643 0.0
H783 H 0.8389 0.15312 0.59807 0.0
O784 O 0.91142 0.15943 0.25906 0.0
H785 H 0.94019 0.09579 0.34468 0.0
H786 H 0.92075 0.13413 0.13844 0.0
H787 H 0.8836 0.09739 0.75152 0.0
H788 H 0.84958 0.2167 0.42453 0.0
H789 H 0.85181 0.11705 0.81836 0.0
H790 H 0.87051 0.23379 0.53922 0.0
O791 O 0.8752 0.10327 0.46377 0.0
H792 H 0.84212 0.14861 0.11633 0.0
H793 H 0.89318 0.08821 0.20944 0.0
H794 H 0.8655 0.07972 0.10302 0.0
H795 H 0.83973 0.11006 0.05575 0.0
H796 H 0.86996 0.15632 0.22303 0.0
H797 H 0.95171 0.11755 0.05923 0.0
H798 H 0.97717 0.08954 0.12379 0.0
O799 O 0.89797 0.09862 0.35662 0.0
C800 C 0.9246 0.13688 0.47259 0.0
C801 C 0.96023 0.09078 0.2387 0.0
C802 C 0.94927 0.11263 0.12178 0.0
N803 N 0.92856 0.11575 0.2458 0.0
C804 C 0.94257 0.10047 0.28195 0.0
C805 C 0.93179 0.12198 0.16693 0.0
C806 C 0.96354 0.09691 0.15804 0.0
C807 C 0.8601 0.18255 0.45279 0.0
N808 N 0.87237 0.169 0.50322 0.0
C809 C 0.85923 0.20603 0.46492 0.0
C810 C 0.87101 0.21562 0.52916 0.0
C811 C 0.88348 0.20168 0.58034 0.0
C812 C 0.88399 0.17827 0.56631 0.0
C813 C 0.84324 0.1364 0.7122 0.0
C814 C 0.87875 0.11463 0.63766 0.0
C815 C 0.84874 0.1409 0.63153 0.0
N816 N 0.86641 0.13019 0.59553 0.0
C817 C 0.87374 0.10969 0.71839 0.0
C818 C 0.85588 0.12071 0.75582 0.0
C819 C 0.88608 0.09077 0.41451 0.0
C820 C 0.85331 0.13528 0.13622 0.0
C821 C 0.88202 0.10149 0.18923 0.0
C822 C 0.8664 0.0966 0.12887 0.0
C823 C 0.85195 0.11363 0.10235 0.0
N824 N 0.88326 0.12278 0.22205 0.0
C825 C 0.86917 0.13957 0.19635 0.0
Co826 Co 0.12555 0.11934 0.55617 0.0
Co827 Co 0.12172 0.12509 0.76399 0.0
O828 O 0.13371 0.11122 0.66617 0.0
C829 C 0.11407 0.07115 0.57189 0.0
O830 O 0.10378 0.07683 0.63908 0.0
C831 C 0.16971 0.1341 0.76696 0.0
O832 O 0.16704 0.14151 0.69271 0.0
O833 O 0.12476 0.15619 0.71815 0.0
O834 O 0.12732 0.15239 0.58256 0.0
H835 H 0.0733 0.17789 0.92698 0.0
H836 H 0.16342 0.0879 0.58648 0.0
O837 O 0.12371 0.08627 0.52907 0.0
H838 H 0.1957 0.15239 0.43553 0.0
H839 H 0.12744 0.11037 0.25304 0.0
H840 H 0.09532 0.15335 0.48153 0.0
H841 H 0.15538 0.15126 0.46669 0.0
H842 H 0.13794 0.10114 0.39381 0.0
O843 O 0.15298 0.12683 0.80727 0.0
H844 H 0.08785 0.16045 0.80176 0.0
H845 H 0.13193 0.11906 0.93902 0.0
H846 H 0.08446 0.16324 0.34173 0.0
H847 H 0.20379 0.08823 0.55599 0.0
H848 H 0.10059 0.14168 0.22632 0.0
H849 H 0.2202 0.1207 0.4803 0.0
O850 O 0.09327 0.11935 0.58482 0.0
H851 H 0.14688 0.04563 0.82886 0.0
H852 H 0.0847 0.10044 0.84686 0.0
H853 H 0.07965 0.06158 0.90005 0.0
H854 H 0.11089 0.03388 0.89123 0.0
H855 H 0.15116 0.08459 0.77592 0.0
H856 H 0.11798 0.13613 0.06585 0.0
H857 H 0.08838 0.16571 0.06029 0.0
O858 O 0.0906 0.12384 0.72025 0.0
C859 C 0.1265 0.16438 0.64688 0.0
C860 C 0.08613 0.16495 0.93024 0.0
C861 C 0.11123 0.14154 0.00816 0.0
N862 N 0.11052 0.13859 0.86317 0.0
C863 C 0.09436 0.15496 0.85953 0.0
C864 C 0.11908 0.13196 0.93617 0.0
C865 C 0.09462 0.15813 0.005 0.0
C866 C 0.1704 0.10198 0.55283 0.0
N867 N 0.15705 0.11952 0.52821 0.0
C868 C 0.19328 0.10212 0.53602 0.0
C869 C 0.20248 0.12035 0.49364 0.0
C870 C 0.18875 0.13815 0.46854 0.0
C871 C 0.16594 0.13745 0.48652 0.0
C872 C 0.12035 0.11992 0.30281 0.0
C873 C 0.1025 0.14399 0.43157 0.0
C874 C 0.1262 0.11475 0.38262 0.0
N875 N 0.1174 0.12685 0.44569 0.0
C876 C 0.09625 0.14962 0.35257 0.0
C877 C 0.10528 0.1375 0.28785 0.0
C878 C 0.08198 0.12164 0.64997 0.0
C879 C 0.13317 0.05757 0.83329 0.0
C880 C 0.09837 0.08847 0.84279 0.0
C881 C 0.09542 0.06651 0.8731 0.0
C882 C 0.11296 0.05098 0.86817 0.0
N883 N 0.11825 0.09481 0.80879 0.0
C884 C 0.13553 0.07968 0.80374 0.0
Co885 Co 0.12125 0.85807 0.48105 0.0
Co886 Co 0.09833 0.87107 0.29468 0.0
O887 O 0.1183 0.85398 0.36471 0.0
C888 C 0.16516 0.8689 0.41354 0.0
O889 O 0.15401 0.88147 0.36192 0.0
C890 C 0.08436 0.82349 0.27345 0.0
O891 O 0.08192 0.8225 0.35233 0.0
O892 O 0.07312 0.86732 0.3721 0.0
O893 O 0.08798 0.8588 0.49407 0.0
H894 H 0.04004 0.92966 0.22758 0.0
H895 H 0.14482 0.82016 0.39875 0.0
O896 O 0.15468 0.85781 0.46808 0.0
H897 H 0.09534 0.78375 0.59952 0.0
H898 H 0.15645 0.84304 0.75253 0.0
H899 H 0.0987 0.88633 0.60544 0.0
H900 H 0.0967 0.82551 0.58694 0.0
H901 H 0.1516 0.83819 0.60513 0.0
O902 O 0.09034 0.84194 0.2393 0.0
H903 H 0.06577 0.90864 0.317 0.0
H904 H 0.08773 0.86849 0.11871 0.0
H905 H 0.10285 0.89159 0.7529 0.0
H906 H 0.14407 0.77834 0.4095 0.0
H907 H 0.1319 0.86984 0.82741 0.0
H908 H 0.11918 0.75987 0.51045 0.0
O909 O 0.12134 0.89177 0.47044 0.0
H910 H 0.16477 0.84554 0.13185 0.0
H911 H 0.11738 0.91084 0.2067 0.0
H912 H 0.14951 0.91669 0.11529 0.0
H913 H 0.17346 0.88389 0.07732 0.0
H914 H 0.13261 0.84048 0.22357 0.0
H915 H 0.06212 0.88897 0.02711 0.0
H916 H 0.0381 0.91986 0.08144 0.0
O917 O 0.10611 0.90013 0.3495 0.0
C918 C 0.07139 0.86313 0.44779 0.0
C919 C 0.05046 0.91627 0.20313 0.0
C920 C 0.06283 0.89342 0.09065 0.0
N921 N 0.07832 0.88745 0.22304 0.0
C922 C 0.0651 0.90435 0.25346 0.0
C923 C 0.07726 0.88184 0.14283 0.0
C924 C 0.04937 0.91075 0.12116 0.0
C925 C 0.13407 0.81225 0.44319 0.0
N926 N 0.12091 0.82525 0.49246 0.0
C927 C 0.13366 0.78856 0.44883 0.0
C928 C 0.11966 0.77821 0.50539 0.0
C929 C 0.10627 0.79159 0.55537 0.0
C930 C 0.10708 0.81523 0.54788 0.0
C931 C 0.1437 0.85258 0.72077 0.0
C932 C 0.11127 0.8767 0.63757 0.0
C933 C 0.14091 0.84993 0.63733 0.0
N934 N 0.12475 0.86182 0.59696 0.0
C935 C 0.1136 0.8798 0.721 0.0
C936 C 0.12991 0.86761 0.76275 0.0
C937 C 0.11462 0.90593 0.41719 0.0
C938 C 0.15441 0.85995 0.1477 0.0
C939 C 0.12771 0.89648 0.19034 0.0
C940 C 0.14587 0.89989 0.13853 0.0
C941 C 0.15929 0.88148 0.11722 0.0
N942 N 0.12301 0.8753 0.21988 0.0
C943 C 0.1361 0.85717 0.19927 0.0
C944 C 0.39966 0.9427 0.34051 0.0
C945 C 0.38522 0.92793 0.29901 0.0
C946 C 0.39944 0.96616 0.32531 0.0
C947 C 0.38431 0.97512 0.2677 0.0
C948 C 0.3694 0.96041 0.22674 0.0
C949 C 0.37009 0.93699 0.24263 0.0
C950 C 0.41572 0.9813 0.36969 0.0
C951 C 0.35292 0.96937 0.16526 0.0
C952 C 0.37144 0.03838 0.2711 0.0
C953 C 0.38478 0.04635 0.20722 0.0
C954 C 0.37114 0.01522 0.29168 0.0
C955 C 0.38466 -0.00024 0.24786 0.0
C956 C 0.39838 0.00777 0.1841 0.0
C957 C 0.39818 0.03094 0.16429 0.0
C958 C 0.35614 0.00723 0.35954 0.0
C959 C 0.41319 0.99184 0.13645 0.0
H960 H 0.41143 0.93592 0.38415 0.0
H961 H 0.35878 0.92579 0.21047 0.0
H962 H 0.4271 0.98963 0.32565 0.0
H963 H 0.40659 0.99498 0.40198 0.0
H964 H 0.42598 0.97176 0.41429 0.0
H965 H 0.34181 0.95582 0.14128 0.0
H966 H 0.34241 0.98284 0.19284 0.0
H967 H 0.36204 0.97719 0.11377 0.0
H968 H 0.36095 0.05018 0.30426 0.0
H969 H 0.40859 0.03697 0.11499 0.0
H970 H 0.36618 0.99854 0.40675 0.0
H971 H 0.34392 0.99467 0.33606 0.0
H972 H 0.3468 0.02144 0.38815 0.0
H973 H 0.42473 0.98276 0.17792 0.0
H974 H 0.42326 0.00088 0.08997 0.0
H975 H 0.40284 0.9788 0.10574 0.0
C976 C 0.02889 0.64555 0.79537 0.0
C977 C 0.04704 0.6363 0.7531 0.0
C978 C 0.00716 0.64406 0.76431 0.0
C979 C 0.00349 0.63249 0.69034 0.0
C980 C 0.02184 0.62376 0.64609 0.0
C981 C 0.04349 0.62603 0.67762 0.0
C982 C 0.98806 0.65414 0.81219 0.0
C983 C 0.01851 0.61092 0.56788 0.0
C984 C 0.94562 0.6069 0.67863 0.0
C985 C 0.93462 0.62251 0.62876 0.0
C986 C 0.96847 0.60921 0.69506 0.0
C987 C 0.98027 0.62808 0.66315 0.0
C988 C 0.9693 0.64356 0.61086 0.0
C989 C 0.94658 0.64037 0.59328 0.0
C990 C 0.97975 0.59197 0.74911 0.0
C991 C 0.98117 0.66419 0.57755 0.0
H992 H 0.03166 0.65371 0.85338 0.0
H993 H 0.0575 0.61875 0.64508 0.0
H994 H 0.97743 0.66485 0.77248 0.0
H995 H 0.97737 0.64031 0.83646 0.0
H996 H 0.994 0.66464 0.86377 0.0
H997 H 0.03461 0.60695 0.53743 0.0
H998 H 0.00965 0.59473 0.58055 0.0
H999 H 0.00791 0.62083 0.52558 0.0
H1000 H 0.93624 0.59305 0.70565 0.0
H1001 H 0.93787 0.65257 0.55557 0.0
H1002 H 0.98408 0.59997 0.80787 0.0
H1003 H 0.99556 0.586 0.7211 0.0
H1004 H 0.96891 0.57701 0.76117 0.0
H1005 H 0.98506 0.67604 0.62789 0.0
H1006 H 0.9709 0.67338 0.53204 0.0
H1007 H -0.00273 0.65929 0.54924 0.0
C1008 C 0.59676 0.96994 0.14861 0.0
C1009 C 0.60865 0.95387 0.19415 0.0
C1010 C 0.59729 0.99305 0.1689 0.0
C1011 C 0.61026 0.00027 0.23573 0.0
C1012 C 0.62228 0.98415 0.28211 0.0
C1013 C 0.62123 0.96108 0.26103 0.0
C1014 C 0.58406 0.00974 0.11856 0.0
C1015 C 0.63649 0.99132 0.35321 0.0
C1016 C 0.62772 0.06218 0.23389 0.0
C1017 C 0.6122 0.07188 0.28741 0.0
C1018 C 0.62765 0.03878 0.2182 0.0
C1019 C 0.61147 0.0248 0.25606 0.0
C1020 C 0.59593 0.0344 0.31088 0.0
C1021 C 0.59659 0.05782 0.32637 0.0
C1022 C 0.64467 0.02906 0.16016 0.0
C1023 C 0.57826 0.02004 0.35157 0.0
H1024 H 0.58694 0.96447 0.09701 0.0
H1025 H 0.63055 0.94874 0.29621 0.0
H1026 H 0.57235 0.01938 0.15778 0.0
H1027 H 0.59551 0.02226 0.09016 0.0
H1028 H 0.5743 0.00126 0.06999 0.0
H1029 H 0.64467 0.97664 0.38341 0.0
H1030 H 0.64963 0.00332 0.33263 0.0
H1031 H 0.62609 0.00041 0.39843 0.0
H1032 H 0.63996 0.0729 0.20404 0.0
H1033 H 0.58449 0.06517 0.36764 0.0
H1034 H 0.63606 0.02185 0.1065 0.0
H1035 H 0.65398 0.01498 0.18953 0.0
H1036 H 0.65685 0.04204 0.13912 0.0
H1037 H 0.56717 0.01241 0.30509 0.0
H1038 H 0.56782 0.03003 0.39438 0.0
H1039 H 0.58617 0.00584 0.38517 0.0
C1040 C 0.04979 0.35519 0.69009 0.0
C1041 C 0.05736 0.36902 0.62673 0.0
C1042 C 0.02696 0.35294 0.70644 0.0
C1043 C 0.01135 0.36526 0.65935 0.0
C1044 C 0.01882 0.37848 0.5929 0.0
C1045 C 0.04184 0.38002 0.57677 0.0
C1046 C 0.01967 0.33831 0.77688 0.0
C1047 C 0.00268 0.39209 0.54211 0.0
C1048 C 0.95041 0.3502 0.69581 0.0
C1049 C 0.94519 0.36512 0.75911 0.0
C1050 C 0.97173 0.35053 0.65991 0.0
C1051 C 0.98779 0.36651 0.68702 0.0
C1052 C 0.98203 0.38244 0.7477 0.0
C1053 C 0.9609 0.38135 0.78361 0.0
C1054 C 0.97742 0.33307 0.59627 0.0
C1055 C -0.0015 0.40006 0.77724 0.0
H1056 H 0.06178 0.34631 0.72777 0.0
H1057 H 0.04773 0.39068 0.52761 0.0
H1058 H 0.01339 0.34928 0.82655 0.0
H1059 H 0.00579 0.32692 0.75853 0.0
H1060 H 0.03357 0.32775 0.80092 0.0
H1061 H 0.01071 0.39894 0.48652 0.0
H1062 H 0.98812 0.38155 0.52437 0.0
H1063 H 0.99623 0.40657 0.57828 0.0
H1064 H 0.93821 0.33766 0.67686 0.0
H1065 H 0.95671 0.39319 0.8315 0.0
H1066 H 0.98946 0.32063 0.62176 0.0
H1067 H 0.98561 0.34123 0.54347 0.0
H1068 H 0.96241 0.32369 0.57503 0.0
H1069 H 0.01232 0.39157 0.81025 0.0
H1070 H 0.99061 0.41264 0.81852 0.0
H1071 H 0.00597 0.40929 0.72524 0.0
C1072 C 0.37252 0.45506 0.95174 0.0
C1073 C 0.38574 0.44714 0.01594 0.0
C1074 C 0.37209 0.47827 0.93155 0.0
C1075 C 0.38529 0.49379 0.97631 0.0
C1076 C 0.3991 0.48578 0.03972 0.0
C1077 C 0.3991 0.46258 0.0589 0.0
C1078 C 0.35708 0.48625 0.8638 0.0
C1079 C 0.41354 0.50177 0.08853 0.0
C1080 C 0.39899 0.55213 0.89132 0.0
C1081 C 0.38419 0.5661 0.93476 0.0
C1082 C 0.39923 0.52851 0.90298 0.0
C1083 C 0.38422 0.51857 0.95899 0.0
C1084 C 0.36891 0.53246 0.00168 0.0
C1085 C 0.36913 0.55605 0.98929 0.0
C1086 C 0.41593 0.51426 0.85687 0.0
C1087 C 0.35257 0.52245 0.06167 0.0
H1088 H 0.36209 0.44324 0.91852 0.0
H1089 H 0.40942 0.4566 0.10847 0.0
H1090 H 0.34419 0.49795 0.88824 0.0
H1091 H 0.36692 0.49591 0.8184 0.0
H1092 H 0.34855 0.47192 0.83279 0.0
H1093 H 0.42403 0.49267 0.13358 0.0
H1094 H 0.42465 0.51162 0.04773 0.0
H1095 H 0.40284 0.51416 0.12116 0.0
H1096 H 0.41071 0.55967 0.84903 0.0
H1097 H 0.35754 0.56663 0.02288 0.0
H1098 H 0.40722 0.50049 0.8236 0.0
H1099 H 0.42766 0.50604 0.89991 0.0
H1100 H 0.42579 0.52447 0.81291 0.0
H1101 H 0.34254 0.5089 0.03237 0.0
H1102 H 0.341 0.53543 0.0868 0.0
H1103 H 0.36181 0.5145 0.11255 0.0
C1104 C 0.44407 0.6287 0.10744 0.0
C1105 C 0.4425 0.63972 0.03236 0.0
C1106 C 0.46479 0.62641 0.14653 0.0
C1107 C 0.48414 0.63577 0.11013 0.0
C1108 C 0.48224 0.6485 0.03767 0.0
C1109 C 0.46147 0.6501 0.99917 0.0
C1110 C 0.46617 0.61254 0.22326 0.0
C1111 C 0.50242 0.65922 0.9979 0.0
C1112 C 0.54067 0.64055 0.2122 0.0
C1113 C 0.55242 0.62332 0.17204 0.0
C1114 C 0.51788 0.64414 0.19644 0.0
C1115 C 0.50672 0.62984 0.14061 0.0
C1116 C 0.51817 0.61125 0.10537 0.0
C1117 C 0.54099 0.6084 0.12076 0.0
C1118 C 0.50629 0.66427 0.23447 0.0
C1119 C 0.50674 0.59526 0.04702 0.0
H1120 H 0.42941 0.62062 0.13316 0.0
H1121 H 0.4602 0.65891 0.94164 0.0
H1122 H 0.47368 0.59574 0.20928 0.0
H1123 H 0.47709 0.62095 0.26848 0.0
H1124 H 0.44944 0.6097 0.2507 0.0
H1125 H 0.49767 0.67093 0.94799 0.0
H1126 H 0.51239 0.66881 0.04303 0.0
H1127 H 0.51332 0.64572 0.97258 0.0
H1128 H 0.54961 0.65217 0.25153 0.0
H1129 H 0.55011 0.59493 0.09041 0.0
H1130 H 0.48931 0.6596 0.25568 0.0
H1131 H 0.50437 0.67788 0.18844 0.0
H1132 H 0.51593 0.67125 0.28631 0.0
H1133 H 0.49048 0.5895 0.07202 0.0
H1134 H 0.51714 0.58009 0.03337 0.0
H1135 H 0.50328 0.60428 0.98934 0.0
C1136 C 0.60015 0.44687 0.91024 0.0
C1137 C 0.61327 0.43112 0.95284 0.0
C1138 C 0.60009 0.46991 0.93142 0.0
C1139 C 0.61378 0.47747 0.99582 0.0
C1140 C 0.62753 0.46181 0.03767 0.0
C1141 C 0.62698 0.43876 0.01612 0.0
C1142 C 0.58495 0.48607 0.88617 0.0
C1143 C 0.64261 0.46937 0.10586 0.0
C1144 C 0.62566 0.54074 0.00632 0.0
C1145 C 0.61058 0.54771 0.0664 0.0
C1146 C 0.62719 0.51781 0.98369 0.0
C1147 C 0.61304 0.50164 0.02115 0.0
C1148 C 0.59776 0.50861 0.08168 0.0
C1149 C 0.59684 0.53155 0.10406 0.0
C1150 C 0.64393 0.5109 0.91979 0.0
C1151 C 0.58217 0.49188 0.12208 0.0
H1152 H 0.58947 0.44114 0.86139 0.0
H1153 H 0.63729 0.42672 0.04893 0.0
H1154 H 0.57273 0.49374 0.92873 0.0
H1155 H 0.59486 0.50017 0.85971 0.0
H1156 H 0.57559 0.47751 0.83673 0.0
H1157 H 0.65316 0.45528 0.12928 0.0
H1158 H 0.65368 0.48333 0.085 0.0
H1159 H 0.63239 0.47612 0.1565 0.0
H1160 H 0.63645 0.55315 0.97755 0.0
H1161 H 0.58512 0.53688 0.15041 0.0
H1162 H 0.63511 0.50351 0.86692 0.0
H1163 H 0.6552 0.49756 0.94404 0.0
H1164 H 0.65424 0.52544 0.89862 0.0
H1165 H 0.5714 0.48365 0.0759 0.0
H1166 H 0.57126 0.50008 0.16805 0.0
H1167 H 0.59193 0.47824 0.15206 0.0
C1168 C 0.44274 0.34978 0.0827 0.0
C1169 C 0.43502 0.36855 0.12641 0.0
C1170 C 0.4655 0.34718 0.06561 0.0
C1171 C 0.48069 0.36421 0.09073 0.0
C1172 C 0.47305 0.38271 0.13824 0.0
C1173 C 0.45018 0.38452 0.15651 0.0
C1174 C 0.47305 0.32692 0.01658 0.0
C1175 C 0.48869 0.40141 0.16471 0.0
C1176 C 0.54292 0.35303 0.06702 0.0
C1177 C 0.54702 0.36244 0.9903 0.0
C1178 C 0.52141 0.35355 0.10112 0.0
C1179 C 0.50379 0.3641 0.05804 0.0
C1180 C 0.50792 0.37388 0.98118 0.0
C1181 C 0.5294 0.37273 0.94797 0.0
C1182 C 0.51746 0.34256 0.18251 0.0
C1183 C 0.48961 0.38554 0.93368 0.0
H1184 H 0.43085 0.33736 0.06029 0.0
H1185 H 0.44399 0.39907 0.19003 0.0
H1186 H 0.47751 0.3325 0.95445 0.0
H1187 H 0.48819 0.31916 0.04384 0.0
H1188 H 0.45982 0.31372 0.01205 0.0
H1189 H 0.4807 0.41311 0.2089 0.0
H1190 H 0.50402 0.39419 0.19228 0.0
H1191 H 0.49393 0.41144 0.111 0.0
H1192 H 0.55645 0.34506 0.10013 0.0
H1193 H 0.53242 0.38024 0.88904 0.0
H1194 H 0.50505 0.32865 0.17629 0.0
H1195 H 0.51037 0.35512 0.22549 0.0
H1196 H 0.53304 0.33545 0.2089 0.0
H1197 H 0.47641 0.37307 0.91773 0.0
H1198 H 0.49592 0.3934 0.87691 0.0
H1199 H 0.48168 0.39896 0.97112 0.0
C1200 C 0.8643 0.43834 0.77787 0.0
C1201 C 0.87851 0.43048 0.8394 0.0
C1202 C 0.86304 0.46153 0.75894 0.0
C1203 C 0.87654 0.47718 0.80181 0.0
C1204 C 0.89046 0.46947 0.86536 0.0
C1205 C 0.89115 0.44622 0.88384 0.0
C1206 C 0.84774 0.4692 0.69153 0.0
C1207 C 0.90528 0.48564 0.91181 0.0
C1208 C 0.89235 0.5314 0.69196 0.0
C1209 C 0.87804 0.5473 0.72815 0.0
C1210 C 0.89215 0.50857 0.71604 0.0
C1211 C 0.87707 0.50142 0.77701 0.0
C1212 C 0.86252 0.51736 0.81367 0.0
C1213 C 0.86329 0.54019 0.78914 0.0
C1214 C 0.90811 0.49209 0.67622 0.0
C1215 C 0.84602 0.51025 0.87811 0.0
H1216 H 0.85432 0.42633 0.74367 0.0
H1217 H 0.90216 0.44034 0.93153 0.0
H1218 H 0.83675 0.48315 0.71292 0.0
H1219 H 0.85783 0.47599 0.64056 0.0
H1220 H 0.83711 0.45516 0.66835 0.0
H1221 H 0.91437 0.47707 0.96193 0.0
H1222 H 0.91774 0.49333 0.87015 0.0
H1223 H 0.89521 0.49973 0.93747 0.0
H1224 H 0.90385 0.53681 0.645 0.0
H1225 H 0.85209 0.55239 0.81697 0.0
H1226 H 0.89859 0.47844 0.64533 0.0
H1227 H 0.91875 0.48385 0.72277 0.0
H1228 H 0.91912 0.5005 0.63105 0.0
H1229 H 0.83461 0.49706 0.85368 0.0
H1230 H 0.83583 0.52474 0.90042 0.0
H1231 H 0.85499 0.50259 0.93018 0.0
C1232 C 0.53339 0.15519 0.25211 0.0
C1233 C 0.55126 0.14351 0.21664 0.0
C1234 C 0.51165 0.15276 0.22201 0.0
C1235 C 0.50769 0.13772 0.15664 0.0
C1236 C 0.52586 0.1267 0.11824 0.0
C1237 C 0.54755 0.12998 0.14819 0.0
C1238 C 0.49277 0.16534 0.26304 0.0
C1239 C 0.52225 0.11015 0.04966 0.0
C1240 C 0.45017 0.11137 0.16719 0.0
C1241 C 0.43856 0.12404 0.1091 0.0
C1242 C 0.47306 0.11479 0.17982 0.0
C1243 C 0.48438 0.13178 0.13491 0.0
C1244 C 0.47288 0.14412 0.0743 0.0
C1245 C 0.45009 0.13986 0.0613 0.0
C1246 C 0.48491 0.10083 0.24349 0.0
C1247 C 0.48428 0.16269 0.02654 0.0
H1248 H 0.53635 0.16577 0.30481 0.0
H1249 H 0.56139 0.12077 0.12139 0.0
H1250 H 0.48184 0.17357 0.21735 0.0
H1251 H 0.48233 0.15315 0.29768 0.0
H1252 H 0.49897 0.17855 0.3055 0.0
H1253 H 0.53821 0.10531 0.01979 0.0
H1254 H 0.51424 0.09451 0.07362 0.0
H1255 H 0.51085 0.1174 0.0035 0.0
H1256 H 0.44123 0.099 0.20363 0.0
H1257 H 0.44104 0.14977 0.01682 0.0
H1258 H 0.48956 0.11186 0.29529 0.0
H1259 H 0.50059 0.09357 0.21853 0.0
H1260 H 0.47434 0.08671 0.26659 0.0
H1261 H 0.48875 0.17687 0.06777 0.0
H1262 H 0.47348 0.16948 0.97745 0.0
H1263 H 0.50005 0.15633 0.99945 0.0
C1264 C 0.09691 0.55105 0.86845 0.0
C1265 C 0.11028 0.56543 0.8209 0.0
C1266 C 0.09651 0.52753 0.85479 0.0
C1267 C 0.10997 0.51818 0.79273 0.0
C1268 C 0.12395 0.53249 0.746 0.0
C1269 C 0.12386 0.55596 0.76037 0.0
C1270 C 0.08124 0.51278 0.90527 0.0
C1271 C 0.1387 0.52307 0.67974 0.0
C1272 C 0.12266 0.45498 0.79083 0.0
C1273 C 0.10803 0.44727 0.73045 0.0
C1274 C 0.12325 0.47801 0.81278 0.0
C1275 C 0.10872 0.49356 0.77393 0.0
C1276 C 0.09349 0.48574 0.71464 0.0
C1277 C 0.09341 0.46271 0.69332 0.0
C1278 C 0.13985 0.48581 0.87577 0.0
C1279 C 0.07759 0.5018 0.67244 0.0
H1280 H 0.08635 0.55819 0.91531 0.0
H1281 H 0.13436 0.5669 0.72369 0.0
H1282 H 0.06851 0.50471 0.8658 0.0
H1283 H 0.09091 0.4989 0.93423 0.0
H1284 H 0.07249 0.52259 0.95326 0.0
H1285 H 0.14945 0.53633 0.65184 0.0
H1286 H 0.14957 0.50942 0.70422 0.0
H1287 H 0.12821 0.51537 0.63163 0.0
H1288 H 0.13408 0.44315 0.81947 0.0
H1289 H 0.082 0.45684 0.64683 0.0
H1290 H 0.13111 0.49504 0.92509 0.0
H1291 H 0.15189 0.49787 0.848 0.0
H1292 H 0.14934 0.47144 0.90259 0.0
H1293 H 0.06754 0.51126 0.71773 0.0
H1294 H 0.06603 0.4928 0.63073 0.0
H1295 H 0.0872 0.51451 0.63702 0.0
C1296 C 0.44625 0.86343 0.13468 0.0
C1297 C 0.44526 0.85488 0.21393 0.0
C1298 C 0.46687 0.86619 0.09512 0.0
C1299 C 0.4868 0.85993 0.13556 0.0
C1300 C 0.48566 0.84958 0.21291 0.0
C1301 C 0.46493 0.84735 0.25139 0.0
C1302 C 0.4674 0.87734 0.01282 0.0
C1303 C 0.5065 0.84223 0.25751 0.0
C1304 C 0.54446 0.85632 0.04141 0.0
C1305 C 0.55448 0.87562 0.07525 0.0
C1306 C 0.52177 0.8516 0.05556 0.0
C1307 C 0.50896 0.8668 0.10326 0.0
C1308 C 0.51862 0.88737 0.13076 0.0
C1309 C 0.54137 0.89137 0.1173 0.0
C1310 C 0.51213 0.82944 0.0257 0.0
C1311 C 0.50543 0.9043 0.1802 0.0
H1312 H 0.43108 0.86925 0.10537 0.0
H1313 H 0.46421 0.84041 0.31218 0.0
H1314 H 0.47316 0.89517 0.01937 0.0
H1315 H 0.47936 0.86856 0.9721 0.0
H1316 H 0.45065 0.87748 0.98383 0.0
H1317 H 0.50258 0.83205 0.31239 0.0
H1318 H 0.51744 0.832 0.21731 0.0
H1319 H 0.51613 0.85745 0.27645 0.0
H1320 H 0.55472 0.84406 0.00941 0.0
H1321 H 0.5492 0.90637 0.14292 0.0
H1322 H 0.49491 0.83183 0.00238 0.0
H1323 H 0.51122 0.81724 0.07689 0.0
H1324 H 0.5226 0.82178 0.97725 0.0
H1325 H 0.48894 0.9076 0.1518 0.0
H1326 H 0.51441 0.92072 0.18697 0.0
H1327 H 0.50231 0.89723 0.24149 0.0
C1328 C 0.89926 0.96325 0.55936 0.0
C1329 C 0.88515 0.9477 0.52019 0.0
C1330 C 0.89962 0.98621 0.5369 0.0
C1331 C 0.88543 0.99387 0.47405 0.0
C1332 C 0.87147 0.97821 0.43306 0.0
C1333 C 0.87155 0.95526 0.45648 0.0
C1334 C 0.91484 0.00237 0.58177 0.0
C1335 C 0.85603 0.98582 0.36604 0.0
C1336 C 0.87027 0.05636 0.48288 0.0
C1337 C 0.88503 0.0658 0.4259 0.0
C1338 C 0.8698 0.03289 0.49732 0.0
C1339 C 0.88452 0.01848 0.45417 0.0
C1340 C 0.89913 0.02778 0.3954 0.0
C1341 C 0.89916 0.05133 0.38173 0.0
C1342 C 0.85388 0.02358 0.5602 0.0
C1343 C 0.91517 0.01293 0.34861 0.0
H1344 H 0.90989 0.95755 0.60847 0.0
H1345 H 0.86057 0.94335 0.42606 0.0
H1346 H 0.92567 0.01165 0.53836 0.0
H1347 H 0.90469 0.01522 0.6144 0.0
H1348 H 0.92565 0.99348 0.62638 0.0
H1349 H 0.84706 0.97136 0.33755 0.0
H1350 H 0.84349 0.9979 0.39053 0.0
H1351 H 0.86561 0.99496 0.31858 0.0
H1352 H 0.85918 0.06734 0.51702 0.0
H1353 H 0.91062 0.05841 0.33756 0.0
H1354 H 0.86349 0.01596 0.61084 0.0
H1355 H 0.84346 0.0099 0.53358 0.0
H1356 H 0.84267 0.0369 0.58524 0.0
H1357 H 0.92729 0.005 0.3909 0.0
H1358 H 0.92462 0.02264 0.3021 0.0
H1359 H 0.90598 0.99895 0.31829 0.0
C1360 C 0.94873 0.12414 0.58658 0.0
C1361 C 0.9457 0.13774 0.51784 0.0
C1362 C 0.97003 0.12155 0.62105 0.0
C1363 C 0.9884 0.13331 0.58682 0.0
C1364 C 0.98497 0.14844 0.52129 0.0
C1365 C 0.96369 0.1502 0.48677 0.0
C1366 C 0.9731 0.10497 0.68992 0.0
C1367 C 0.00403 0.16177 0.48451 0.0
C1368 C 0.0449 0.13742 0.68967 0.0
C1369 C 0.0575 0.12234 0.64244 0.0
C1370 C 0.02202 0.14061 0.67464 0.0
C1371 C 0.01157 0.12797 0.61238 0.0
C1372 C 0.02397 0.11161 0.56835 0.0
C1373 C 0.04688 0.10923 0.58315 0.0
C1374 C 0.00946 0.15852 0.72169 0.0
C1375 C 0.01328 0.09735 0.50288 0.0
H1376 H 0.9348 0.11437 0.61007 0.0
H1377 H 0.96121 0.16087 0.43392 0.0
H1378 H 0.98179 0.08958 0.66716 0.0
H1379 H 0.9837 0.11242 0.73815 0.0
H1380 H 0.95688 0.0997 0.71683 0.0
H1381 H -0.00195 0.17491 0.44129 0.0
H1382 H 0.01397 0.17021 0.53256 0.0
H1383 H 0.01536 0.15005 0.4516 0.0
H1384 H 0.05315 0.14765 0.73525 0.0
H1385 H 0.05663 0.09738 0.54728 0.0
H1386 H 0.99321 0.15181 0.74345 0.0
H1387 H 0.00581 0.17314 0.68132 0.0
H1388 H 0.01917 0.1648 0.77448 0.0
H1389 H -0.00243 0.08955 0.5254 0.0
H1390 H 0.02454 0.08362 0.48124 0.0
H1391 H 0.00889 0.1083 0.45053 0.0
C1392 C 0.10419 0.94632 0.39011 0.0
C1393 C 0.11644 0.93045 0.43542 0.0
C1394 C 0.1044 0.96943 0.41024 0.0
C1395 C 0.1175 0.9769 0.47632 0.0
C1396 C 0.13053 0.96113 0.5206 0.0
C1397 C 0.1297 0.93804 0.50002 0.0
C1398 C 0.09007 0.98574 0.3623 0.0
C1399 C 0.14499 0.9686 0.59063 0.0
C1400 C 0.13047 0.03987 0.48889 0.0
C1401 C 0.11495 0.0471 0.54708 0.0
C1402 C 0.13171 0.01697 0.46594 0.0
C1403 C 0.11683 0.00109 0.50116 0.0
C1404 C 0.10105 0.00833 0.55958 0.0
C1405 C 0.10042 0.03125 0.58234 0.0
C1406 C 0.14898 0.00974 0.40435 0.0
C1407 C 0.0847 0.9919 0.59756 0.0
H1408 H 0.09389 0.94063 0.34012 0.0
H1409 H 0.13937 0.92591 0.5349 0.0
H1410 H 0.0774 0.99359 0.40267 0.0
H1411 H 0.10048 -0.00029 0.33749 0.0
H1412 H 0.08127 0.97726 0.31137 0.0
H1413 H 0.15517 0.95444 0.61552 0.0
H1414 H 0.15639 0.98245 0.57115 0.0
H1415 H 0.13434 0.97548 0.63985 0.0
H1416 H 0.14187 0.05206 0.46197 0.0
H1417 H 0.08835 0.03679 0.62719 0.0
H1418 H 0.14061 0.00233 0.35057 0.0
H1419 H 0.15986 0.99633 0.43039 0.0
H1420 H 0.15965 0.02412 0.38416 0.0
H1421 H 0.07443 0.98375 0.54978 0.0
H1422 H 0.07335 0.00034 0.64151 0.0
H1423 H 0.09388 0.97817 0.62942 0.0
C1424 C 0.95218 0.88227 0.66075 0.0
C1425 C 0.93631 0.86978 0.61725 0.0
C1426 C 0.97502 0.88064 0.64157 0.0
C1427 C 0.98197 0.86571 0.57909 0.0
C1428 C 0.96603 0.85211 0.53847 0.0
C1429 C 0.94335 0.85455 0.55731 0.0
C1430 C 0.9915 0.89576 0.68496 0.0
C1431 C 0.9728 0.83561 0.47282 0.0
C1432 C 0.0328 0.87868 0.45098 0.0
C1433 C 0.04883 0.86397 0.48377 0.0
C1434 C 0.01128 0.88006 0.48387 0.0
C1435 C 0.00545 0.86592 0.5499 0.0
C1436 C 0.02159 0.8511 0.5838 0.0
C1437 C 0.04326 0.85052 0.5509 0.0
C1438 C 0.99469 0.89643 0.44698 0.0
C1439 C 0.01579 0.83538 0.65295 0.0
H1440 H 0.94666 0.89407 0.70706 0.0
H1441 H 0.93105 0.84462 0.52463 0.0
H1442 H 0.00589 0.88568 0.70736 0.0
H1443 H -0.00182 0.90858 0.64196 0.0
H1444 H 0.98375 0.90481 0.73691 0.0
H1445 H 0.97877 0.84514 0.419 0.0
H1446 H 0.98679 0.82473 0.49386 0.0
H1447 H 0.95872 0.8245 0.45387 0.0
H1448 H 0.03713 0.88936 0.39987 0.0
H1449 H 0.05564 0.83911 0.57628 0.0
H1450 H 0.98728 0.90736 0.49473 0.0
H1451 H 0.98082 0.88683 0.41843 0.0
H1452 H 0.00244 0.90752 0.40026 0.0
H1453 H 0.00859 0.84517 0.70409 0.0
H1454 H 0.03054 0.82576 0.67513 0.0
H1455 H 0.00287 0.82307 0.63295 0.0
C1456 C 0.37506 0.29636 0.19535 0.0
C1457 C 0.36215 0.30896 0.14057 0.0
C1458 C 0.37524 0.27256 0.19299 0.0
C1459 C 0.36166 0.2611 0.13598 0.0
C1460 C 0.34789 0.27373 0.0826 0.0
C1461 C 0.34859 0.29757 0.08461 0.0
C1462 C 0.39065 0.25975 0.24927 0.0
C1463 C 0.33274 0.26206 0.02253 0.0
C1464 C 0.37954 0.20235 0.06782 0.0
C1465 C 0.36663 0.18835 0.11801 0.0
C1466 C 0.37816 0.22606 0.07352 0.0
C1467 C 0.36297 0.23596 0.129 0.0
C1468 C 0.34957 0.22186 0.17886 0.0
C1469 C 0.35183 0.19815 0.1737 0.0
C1470 C 0.39324 0.24049 0.02107 0.0
C1471 C 0.33274 0.23183 0.23705 0.0
H1472 H 0.38573 0.30515 0.23812 0.0
H1473 H 0.33847 0.30732 0.04264 0.0
H1474 H 0.38105 0.24721 0.28544 0.0
H1475 H 0.40313 0.25011 0.21327 0.0
H1476 H 0.3997 0.27122 0.29143 0.0
H1477 H 0.32158 0.27424 0.99078 0.0
H1478 H 0.34292 0.25301 0.9766 0.0
H1479 H 0.32229 0.24915 0.05372 0.0
H1480 H 0.3911 0.19473 0.02519 0.0
H1481 H 0.34167 0.18726 0.21182 0.0
H1482 H 0.40367 0.25169 0.05971 0.0
H1483 H 0.38307 0.25165 0.98142 0.0
H1484 H 0.40446 0.23008 0.98233 0.0
H1485 H 0.3414 0.24236 0.28304 0.0
H1486 H 0.3229 0.21851 0.26877 0.0
H1487 H 0.32105 0.24316 0.20398 0.0
C1488 C 0.20021 0.64042 0.78852 0.0
C1489 C 0.18759 0.62576 0.8375 0.0
C1490 C 0.22359 0.64124 0.79521 0.0
C1491 C 0.23451 0.62693 0.85166 0.0
C1492 C 0.22185 0.61201 0.90079 0.0
C1493 C 0.19854 0.61169 0.89339 0.0
C1494 C 0.23659 0.65752 0.74244 0.0
C1495 C 0.23293 0.59638 0.96129 0.0
C1496 C 0.29593 0.61271 0.82605 0.0
C1497 C 0.30576 0.62655 0.88525 0.0
C1498 C 0.27276 0.613 0.81327 0.0
C1499 C 0.25918 0.62762 0.86031 0.0
C1500 C 0.26908 0.64207 0.91863 0.0
C1501 C 0.29226 0.64129 0.93066 0.0
C1502 C 0.26274 0.59722 0.75095 0.0
C1503 C 0.25513 0.65804 0.96941 0.0
H1504 H 0.19183 0.6514 0.74542 0.0
H1505 H 0.1889 0.60028 0.93137 0.0
H1506 H 0.24615 0.66954 0.78089 0.0
H1507 H 0.24889 0.64804 0.70522 0.0
H1508 H 0.22558 0.66745 0.70142 0.0
H1509 H 0.22068 0.58551 0.99388 0.0
H1510 H 0.24514 0.58522 0.93002 0.0
H1511 H 0.24233 0.6065 0.00651 0.0
H1512 H 0.30628 0.60132 0.7906 0.0
H1513 H 0.29977 0.65218 0.97606 0.0
H1514 H 0.25248 0.607 0.70719 0.0
H1515 H 0.25148 0.58487 0.78122 0.0
H1516 H 0.2757 0.58764 0.71693 0.0
H1517 H 0.2447 0.66898 0.92983 0.0
H1518 H 0.26554 0.66909 0.00878 0.0
H1519 H 0.24359 0.64811 0.00837 0.0
C1520 C 0.63973 0.79794 0.07131 0.0
C1521 C 0.62462 0.811 0.11642 0.0
C1522 C 0.64024 0.77422 0.0791 0.0
C1523 C 0.62478 0.76336 0.13129 0.0
C1524 C 0.60945 0.77651 0.17681 0.0
C1525 C 0.60978 0.80024 0.16971 0.0
C1526 C 0.65726 0.76078 0.03145 0.0
C1527 C 0.59235 0.76549 0.23152 0.0
C1528 C 0.61097 0.70152 0.0901 0.0
C1529 C 0.6226 0.69059 0.15254 0.0
C1530 C 0.61146 0.72526 0.08263 0.0
C1531 C 0.62442 0.73821 0.13756 0.0
C1532 C 0.63669 0.72716 0.19938 0.0
C1533 C 0.63537 0.70347 0.20684 0.0
C1534 C 0.59775 0.7365 0.01712 0.0
C1535 C 0.65116 0.74037 0.25765 0.0
H1536 H 0.6513 0.80633 0.03051 0.0
H1537 H 0.59794 0.81036 0.20393 0.0
H1538 H 0.66722 0.74993 0.07291 0.0
H1539 H 0.64865 0.74932 0.98826 0.0
H1540 H 0.66885 0.77192 0.9969 0.0
H1541 H 0.58143 0.77816 0.26196 0.0
H1542 H 0.58167 0.75377 0.19582 0.0
H1543 H 0.60083 0.75518 0.2786 0.0
H1544 H 0.60097 0.69157 0.04844 0.0
H1545 H 0.64457 0.69497 0.25466 0.0
H1546 H 0.60873 0.74661 0.97671 0.0
H1547 H 0.58559 0.74844 0.0448 0.0
H1548 H 0.58844 0.72398 0.97978 0.0
H1549 H 0.66328 0.75099 0.22363 0.0
H1550 H 0.66056 0.72909 0.29951 0.0
H1551 H 0.64066 0.75203 0.29419 0.0
C1552 C 0.70026 0.35252 0.96631 0.0
C1553 C 0.6883 0.36853 0.92068 0.0
C1554 C 0.72361 0.35093 0.95984 0.0
C1555 C 0.73517 0.36583 0.90706 0.0
C1556 C 0.72316 0.38196 0.86077 0.0
C1557 C 0.69987 0.38304 0.86789 0.0
C1558 C 0.73592 0.3334 0.00953 0.0
C1559 C 0.73494 0.39825 0.80426 0.0
C1560 C 0.79629 0.37923 0.94278 0.0
C1561 C 0.80668 0.36646 0.88171 0.0
C1562 C 0.77305 0.37875 0.95292 0.0
C1563 C 0.75991 0.36502 0.90117 0.0
C1564 C 0.77033 0.3516 0.84089 0.0
C1565 C 0.79362 0.35254 0.83164 0.0
C1566 C 0.7625 0.39343 0.01752 0.0
C1567 C 0.75682 0.33662 0.78508 0.0
H1568 H 0.69139 0.34117 0.00685 0.0
H1569 H 0.69075 0.39544 0.83231 0.0
H1570 H 0.74584 0.32218 0.96923 0.0
H1571 H 0.74784 0.34193 0.051 0.0
H1572 H 0.7244 0.32271 0.0461 0.0
H1573 H 0.72309 0.40964 0.77205 0.0
H1574 H 0.7469 0.40888 0.83891 0.0
H1575 H 0.74473 0.38865 0.75859 0.0
H1576 H 0.80627 0.38997 0.98195 0.0
H1577 H 0.80157 0.3425 0.78473 0.0
H1578 H 0.75179 0.38295 0.05772 0.0
H1579 H 0.75158 0.40637 0.98881 0.0
H1580 H 0.77516 0.4023 0.0552 0.0
H1581 H 0.7459 0.32515 0.82089 0.0
H1582 H 0.76757 0.32613 0.7449 0.0
H1583 H 0.74578 0.34727 0.74674 0.0
C1584 C 0.85066 0.69921 0.68284 0.0
C1585 C 0.86436 0.68893 0.62461 0.0
C1586 C 0.84915 0.72296 0.68811 0.0
C1587 C 0.86218 0.7366 0.63549 0.0
C1588 C 0.87616 0.72624 0.57698 0.0
C1589 C 0.87682 0.7025 0.5715 0.0
C1590 C 0.83362 0.73345 0.74974 0.0
C1591 C 0.89075 0.74021 0.52125 0.0
C1592 C 0.84864 0.79859 0.59609 0.0
C1593 C 0.8634 0.80947 0.64927 0.0
C1594 C 0.84742 0.7748 0.5932 0.0
C1595 C 0.86178 0.76171 0.6429 0.0
C1596 C 0.8766 0.77266 0.69709 0.0
C1597 C 0.877 0.79644 0.70039 0.0
C1598 C 0.831 0.76367 0.53625 0.0
C1599 C 0.89258 0.75929 0.7495 0.0
H1600 H 0.84083 0.68869 0.72326 0.0
H1601 H 0.88754 0.69452 0.52685 0.0
H1602 H 0.84336 0.74353 0.79413 0.0
H1603 H 0.82187 0.7453 0.71933 0.0
H1604 H 0.82377 0.72046 0.78314 0.0
H1605 H 0.90085 0.72947 0.4797 0.0
H1606 H 0.8803 0.75183 0.48437 0.0
H1607 H 0.90227 0.75092 0.55751 0.0
H1608 H 0.83799 0.8087 0.55703 0.0
H1609 H 0.88857 0.80484 0.74103 0.0
H1610 H 0.82062 0.75112 0.56953 0.0
H1611 H 0.84016 0.75428 0.4884 0.0
H1612 H 0.81977 0.77623 0.50673 0.0
H1613 H 0.88325 0.74706 0.78786 0.0
H1614 H 0.90275 0.77042 0.78943 0.0
H1615 H 0.90406 0.74926 0.7106 0.0
C1616 C 0.79819 0.11443 0.31997 0.0
C1617 C 0.80822 0.12779 0.3801 0.0
C1618 C 0.77511 0.11552 0.30593 0.0
C1619 C 0.76183 0.1305 0.35263 0.0
C1620 C 0.77192 0.1444 0.4122 0.0
C1621 C 0.79501 0.1428 0.42551 0.0
C1622 C 0.76487 0.10029 0.24236 0.0
C1623 C 0.75827 0.16071 0.46265 0.0
C1624 C 0.70398 0.14539 0.27441 0.0
C1625 C 0.69048 0.1309 0.32089 0.0
C1626 C 0.72728 0.1456 0.28446 0.0
C1627 C 0.73722 0.13083 0.34177 0.0
C1628 C 0.72367 0.11617 0.38873 0.0
C1629 C 0.70046 0.11647 0.37799 0.0
C1630 C 0.74125 0.16161 0.23395 0.0
C1631 C 0.7337 0.10005 0.45002 0.0
H1632 H 0.80831 0.10282 0.28453 0.0
H1633 H 0.80269 0.15332 0.47164 0.0
H1634 H 0.75284 0.08843 0.27124 0.0
H1635 H 0.75539 0.1106 0.19781 0.0
H1636 H 0.77763 0.09017 0.20939 0.0
H1637 H 0.76884 0.17115 0.50358 0.0
H1638 H 0.74858 0.17225 0.42275 0.0
H1639 H 0.74606 0.15112 0.49995 0.0
H1640 H 0.69635 0.15666 0.23044 0.0
H1641 H 0.69015 0.1052 0.41414 0.0
H1642 H 0.75335 0.15181 0.19691 0.0
H1643 H 0.75108 0.17298 0.27397 0.0
H1644 H 0.7309 0.17224 0.19287 0.0
H1645 H 0.74563 0.0884 0.41963 0.0
H1646 H 0.72081 0.0897 0.48145 0.0
H1647 H 0.74323 0.10973 0.49613 0.0
C1648 C 0.14518 0.2986 0.65843 0.0
C1649 C 0.13089 0.30937 0.60328 0.0
C1650 C 0.14609 0.27483 0.66312 0.0
C1651 C 0.13187 0.26168 0.6132 0.0
C1652 C 0.11762 0.2725 0.55669 0.0
C1653 C 0.11754 0.29625 0.55164 0.0
C1654 C 0.16195 0.26382 0.72246 0.0
C1655 C 0.10182 0.25905 0.5039 0.0
C1656 C 0.14239 0.19881 0.58067 0.0
C1657 C 0.12818 0.18919 0.63874 0.0
C1658 C 0.14421 0.22247 0.57295 0.0
C1659 C 0.13099 0.23666 0.6229 0.0
C1660 C 0.1165 0.22696 0.68125 0.0
C1661 C 0.11552 0.20329 0.68928 0.0
C1662 C 0.16031 0.23226 0.5117 0.0
C1663 C 0.10171 0.24156 0.73415 0.0
H1664 H 0.15564 0.30878 0.69789 0.0
H1665 H 0.10634 0.3046 0.5095 0.0
H1666 H 0.15231 0.25502 0.77054 0.0
H1667 H 0.17225 0.25079 0.69135 0.0
H1668 H 0.17325 0.27637 0.75155 0.0
H1669 H 0.09222 0.27006 0.46172 0.0
H1670 H 0.1112 0.24632 0.46788 0.0
H1671 H 0.08982 0.24958 0.54254 0.0
H1672 H 0.15238 0.18785 0.54234 0.0
H1673 H 0.10444 0.19578 0.73381 0.0
H1674 H 0.17207 0.2441 0.54204 0.0
H1675 H 0.15103 0.24222 0.46564 0.0
H1676 H 0.17013 0.21888 0.48027 0.0
H1677 H 0.11208 0.25325 0.77103 0.0
H1678 H 0.09112 0.23128 0.7756 0.0
H1679 H 0.09066 0.25221 0.69576 0.0
C1680 C 0.20094 0.88131 0.35029 0.0
C1681 C 0.18978 0.86771 0.4072 0.0
C1682 C 0.22424 0.8806 0.34267 0.0
C1683 C 0.23672 0.8658 0.39277 0.0
C1684 C 0.2256 0.85192 0.45016 0.0
C1685 C 0.20221 0.85309 0.45692 0.0
C1686 C 0.2355 0.89576 0.28102 0.0
C1687 C 0.23841 0.83581 0.50411 0.0
C1688 C 0.29455 0.85136 0.31409 0.0
C1689 C 0.30796 0.86655 0.35792 0.0
C1690 C 0.27139 0.85034 0.32698 0.0
C1691 C 0.26142 0.86499 0.38455 0.0
C1692 C 0.27493 0.87999 0.43028 0.0
C1693 C 0.29806 0.88052 0.41665 0.0
C1694 C 0.25753 0.83399 0.27756 0.0
C1695 C 0.26486 0.896 0.49178 0.0
H1696 H 0.19149 0.89266 0.31156 0.0
H1697 H 0.19368 0.84247 0.50082 0.0
H1698 H 0.24767 0.90711 0.31158 0.0
H1699 H 0.24498 0.88529 0.23695 0.0
H1700 H 0.22336 0.90643 0.24714 0.0
H1701 H 0.22726 0.82609 0.54534 0.0
H1702 H 0.24803 0.8236 0.46659 0.0
H1703 H 0.25065 0.84541 0.54118 0.0
H1704 H 0.30211 0.84035 0.26913 0.0
H1705 H 0.30833 0.89224 0.45101 0.0
H1706 H 0.2461 0.84362 0.23734 0.0
H1707 H 0.247 0.82337 0.31795 0.0
H1708 H 0.26802 0.82262 0.23955 0.0
H1709 H 0.25371 0.9083 0.46074 0.0
H1710 H 0.27779 0.90564 0.52565 0.0
H1711 H 0.25446 0.88641 0.53574 0.0
C1712 C 0.19738 0.11893 0.86626 0.0
C1713 C 0.19231 0.13361 0.80205 0.0
C1714 C 0.21913 0.1178 0.89761 0.0
C1715 C 0.23595 0.13205 0.86494 0.0
C1716 C 0.23081 0.14708 0.80074 0.0
C1717 C 0.20908 0.14751 0.76948 0.0
C1718 C 0.22417 0.10128 0.96521 0.0
C1719 C 0.24822 0.16288 0.76557 0.0
C1720 C 0.286 0.14574 0.99603 0.0
C1721 C 0.30259 0.13205 0.96121 0.0
C1722 C 0.26422 0.1459 0.96516 0.0
C1723 C 0.25885 0.13167 0.899 0.0
C1724 C 0.27545 0.11756 0.86423 0.0
C1725 C 0.29726 0.1181 0.89529 0.0
C1726 C 0.24706 0.16153 0.00265 0.0
C1727 C 0.27015 0.10188 0.79447 0.0
H1728 H 0.18446 0.10801 0.89093 0.0
H1729 H 0.20516 0.15895 0.71999 0.0
H1730 H 0.23792 0.08972 0.94683 0.0
H1731 H 0.22993 0.11064 0.01962 0.0
H1732 H 0.20938 0.09088 0.98203 0.0
H1733 H 0.24139 0.17372 0.71633 0.0
H1734 H 0.25497 0.17406 0.8138 0.0
H1735 H 0.26242 0.15291 0.74105 0.0
H1736 H 0.29012 0.15663 0.04682 0.0
H1737 H 0.31004 0.10735 0.86882 0.0
H1738 H 0.23266 0.15152 0.02546 0.0
H1739 H 0.24054 0.17343 0.95615 0.0
H1740 H 0.25402 0.17162 0.05358 0.0
H1741 H 0.25616 0.0904 0.81117 0.0
H1742 H 0.28475 0.09137 0.7764 0.0
H1743 H 0.26462 0.11194 0.74129 0.0
C1744 C 0.06804 0.78507 0.25015 0.0
C1745 C 0.08222 0.80264 0.22489 0.0
C1746 C 0.0667 0.76471 0.20624 0.0
C1747 C 0.08046 0.76167 0.13729 0.0
C1748 C 0.09474 0.77944 0.11143 0.0
C1749 C 0.09517 0.79988 0.15488 0.0
C1750 C 0.05079 0.74638 0.2341 0.0
C1751 C 0.11012 0.77659 0.03957 0.0
C1752 C 0.09567 0.70144 0.07777 0.0
C1753 C 0.0828 0.69841 0.00781 0.0
C1754 C 0.09506 0.72199 0.12053 0.0
C1755 C 0.08067 0.73959 0.094 0.0
C1756 C 0.0671 0.73632 0.02475 0.0
C1757 C 0.06863 0.71586 0.98155 0.0
C1758 C 0.11026 0.72508 0.19272 0.0
C1759 C 0.05107 0.75445 0.99623 0.0
H1760 H 0.05792 0.78729 0.30407 0.0
H1761 H 0.10629 0.81341 0.13571 0.0
H1762 H 0.03999 0.74089 0.18309 0.0
H1763 H 0.06034 0.73128 0.25448 0.0
H1764 H 0.03995 0.75215 0.28476 0.0
H1765 H 0.12017 0.7921 0.02735 0.0
H1766 H 0.12171 0.76218 0.05053 0.0
H1767 H 0.10031 0.77245 0.98457 0.0
H1768 H 0.10676 0.68797 0.09766 0.0
H1769 H 0.05854 0.71339 0.92773 0.0
H1770 H 0.10025 0.72894 0.24757 0.0
H1771 H 0.12157 0.73975 0.18227 0.0
H1772 H 0.1206 0.70978 0.20492 0.0
H1773 H 0.03992 0.75965 0.04666 0.0
H1774 H 0.0406 0.74862 0.94472 0.0
H1775 H 0.06049 0.76976 0.97692 0.0
C1776 C 0.70057 0.88417 0.90922 0.0
C1777 C 0.69485 0.87018 0.97474 0.0
C1778 C 0.72266 0.88524 0.88099 0.0
C1779 C 0.73928 0.87165 0.91819 0.0
C1780 C 0.73367 0.8578 0.98529 0.0
C1781 C 0.71154 0.85741 0.01328 0.0
C1782 C 0.72812 0.90052 0.81017 0.0
C1783 C 0.75083 0.84274 0.02552 0.0
C1784 C 0.78765 0.85448 0.78374 0.0
C1785 C 0.80474 0.86888 0.81085 0.0
C1786 C 0.76643 0.85494 0.81942 0.0
C1787 C 0.76206 0.87051 0.88271 0.0
C1788 C 0.77928 0.88504 0.91078 0.0
C1789 C 0.80056 0.88388 0.87496 0.0
C1790 C 0.74865 0.83884 0.7889 0.0
C1791 C 0.77506 0.90211 0.97727 0.0
H1792 H 0.68776 0.89429 0.87991 0.0
H1793 H 0.70719 0.84656 0.06397 0.0
H1794 H 0.74263 0.91152 0.82493 0.0
H1795 H 0.73287 0.89005 0.75703 0.0
H1796 H 0.71379 0.9115 0.79286 0.0
H1797 H 0.74406 0.83398 0.07988 0.0
H1798 H 0.75667 0.82968 0.9819 0.0
H1799 H 0.76564 0.85285 0.04375 0.0
H1800 H 0.79088 0.84272 0.73459 0.0
H1801 H 0.81374 0.89513 0.89561 0.0
H1802 H 0.73452 0.84863 0.76298 0.0
H1803 H 0.74192 0.82859 0.83981 0.0
H1804 H 0.7551 0.82708 0.74171 0.0
H1805 H 0.76182 0.91417 0.95808 0.0
H1806 H 0.79032 0.91193 0.99297 0.0
H1807 H 0.76893 0.89336 0.03249 0.0
C1808 C 0.93008 0.20081 0.18819 0.0
C1809 C 0.91477 0.19953 0.25213 0.0
C1810 C 0.93238 0.22089 0.14302 0.0
C1811 C 0.91831 0.23963 0.16024 0.0
C1812 C 0.9028 0.23833 0.22494 0.0
C1813 C 0.90154 0.2184 0.27121 0.0
C1814 C 0.94969 0.22197 0.07653 0.0
C1815 C 0.88694 0.25763 0.24338 0.0
C1816 C 0.93009 0.29954 0.08646 0.0
C1817 C 0.91703 0.3004 0.01623 0.0
C1818 C 0.93159 0.27943 0.13193 0.0
C1819 C 0.91893 0.26021 0.10828 0.0
C1820 C 0.90584 0.26104 0.03693 0.0
C1821 C 0.90542 0.28102 0.99085 0.0
C1822 C 0.94641 0.27888 0.20589 0.0
C1823 C 0.89146 0.24121 0.01117 0.0
H1824 H 0.94039 0.18617 0.17405 0.0
H1825 H 0.88955 0.21723 0.3203 0.0
H1826 H 0.94132 0.22327 0.01681 0.0
H1827 H 0.96021 0.23737 0.08385 0.0
H1828 H 0.9607 0.20676 0.07607 0.0
H1829 H 0.87578 0.25379 0.29545 0.0
H1830 H 0.89645 0.27333 0.25718 0.0
H1831 H 0.87643 0.26123 0.1895 0.0
H1832 H 0.93912 0.31457 0.10568 0.0
H1833 H 0.89514 0.28183 0.93694 0.0
H1834 H 0.95743 0.26371 0.20415 0.0
H1835 H 0.93599 0.27754 0.26126 0.0
H1836 H 0.95698 0.29434 0.21086 0.0
H1837 H 0.90188 0.22581 0.00267 0.0
H1838 H 0.8823 0.24464 0.95393 0.0
H1839 H 0.87909 0.23731 0.05936 0.0
C1840 C 0.20793 0.35646 0.48039 0.0
C1841 C 0.19071 0.37028 0.45058 0.0
C1842 C 0.22932 0.3571 0.44622 0.0
C1843 C 0.23372 0.3723 0.38175 0.0
C1844 C 0.21648 0.38653 0.35193 0.0
C1845 C 0.19504 0.38517 0.38622 0.0
C1846 C 0.24714 0.3413 0.47848 0.0
C1847 C 0.22074 0.4032 0.28414 0.0
C1848 C 0.29507 0.38505 0.34528 0.0
C1849 C 0.29977 0.37068 0.27983 0.0
C1850 C 0.27338 0.38638 0.37742 0.0
C1851 C 0.25624 0.37265 0.34423 0.0
C1852 C 0.26091 0.35821 0.2779 0.0
C1853 C 0.28258 0.35757 0.24602 0.0
C1854 C 0.26886 0.40226 0.4473 0.0
C1855 C 0.24316 0.34297 0.24197 0.0
H1856 H 0.2046 0.34483 0.52992 0.0
H1857 H 0.18178 0.39602 0.36364 0.0
H1858 H 0.25334 0.33017 0.4291 0.0
H1859 H 0.2616 0.35127 0.50091 0.0
H1860 H 0.2409 0.3304 0.52858 0.0
H1861 H 0.20576 0.41364 0.26999 0.0
H1862 H 0.2347 0.41472 0.30069 0.0
H1863 H 0.22585 0.39397 0.22859 0.0
H1864 H 0.30829 0.3954 0.37092 0.0
H1865 H 0.28616 0.34639 0.19546 0.0
H1866 H 0.26412 0.39232 0.50176 0.0
H1867 H 0.25459 0.41359 0.43268 0.0
H1868 H 0.28362 0.41291 0.46241 0.0
H1869 H 0.23715 0.33082 0.28857 0.0
H1870 H 0.24942 0.33315 0.18917 0.0
H1871 H 0.22857 0.35321 0.22238 0.0
C1872 C 0.40091 0.77723 0.47837 0.0
C1873 C 0.41348 0.79659 0.49713 0.0
C1874 C 0.40104 0.75824 0.52968 0.0
C1875 C 0.41469 0.7584 0.59973 0.0
C1876 C 0.42807 0.77763 0.61722 0.0
C1877 C 0.42696 0.79672 0.56641 0.0
C1878 C 0.38601 0.73834 0.51027 0.0
C1879 C 0.44342 0.77809 0.68975 0.0
C1880 C 0.39868 0.71912 0.77252 0.0
C1881 C 0.41166 0.69993 0.75527 0.0
C1882 C 0.3996 0.73837 0.72254 0.0
C1883 C 0.41444 0.73863 0.65566 0.0
C1884 C 0.4283 0.71961 0.64025 0.0
C1885 C 0.42641 0.70027 0.68942 0.0
C1886 C 0.38405 0.75804 0.73945 0.0
C1887 C 0.44488 0.71958 0.57127 0.0
H1888 H 0.39029 0.77727 0.4252 0.0
H1889 H 0.43675 0.81172 0.58053 0.0
H1890 H 0.3961 0.72266 0.50299 0.0
H1891 H 0.37424 0.73538 0.56117 0.0
H1892 H 0.37618 0.74109 0.45405 0.0
H1893 H 0.45394 0.79365 0.69133 0.0
H1894 H 0.43345 0.77733 0.74631 0.0
H1895 H 0.45453 0.76298 0.68918 0.0
H1896 H 0.38711 0.7187 0.82307 0.0
H1897 H 0.43653 0.6854 0.67659 0.0
H1898 H 0.37284 0.76073 0.68678 0.0
H1899 H 0.39377 0.77391 0.74796 0.0
H1900 H 0.37361 0.75517 0.79417 0.0
H1901 H 0.43587 0.72005 0.51263 0.0
H1902 H 0.4558 0.70431 0.5721 0.0
H1903 H 0.45556 0.73498 0.57415 0.0
C1904 C 0.69522 0.61926 0.37168 0.0
C1905 C 0.68982 0.63357 0.30672 0.0
C1906 C 0.71717 0.61812 0.40117 0.0
C1907 C 0.7339 0.63196 0.36577 0.0
C1908 C 0.72852 0.64641 0.30015 0.0
C1909 C 0.70656 0.64688 0.27089 0.0
C1910 C 0.72244 0.60222 0.4704 0.0
C1911 C 0.74583 0.66174 0.26196 0.0
C1912 C 0.78371 0.6471 0.49596 0.0
C1913 C 0.80035 0.63294 0.46395 0.0
C1914 C 0.76205 0.64704 0.46406 0.0
C1915 C 0.75682 0.63212 0.39968 0.0
C1916 C 0.7735 0.61765 0.36735 0.0
C1917 C 0.79521 0.6184 0.39942 0.0
C1918 C 0.7448 0.66305 0.49897 0.0
C1919 C 0.76835 0.60125 0.29958 0.0
H1920 H 0.68234 0.60878 0.3989 0.0
H1921 H 0.70242 0.65801 0.22073 0.0
H1922 H 0.73641 0.59076 0.45341 0.0
H1923 H 0.72796 0.61214 0.52389 0.0
H1924 H 0.70781 0.5917 0.48813 0.0
H1925 H 0.73897 0.67173 0.21055 0.0
H1926 H 0.75243 0.67373 0.30795 0.0
H1927 H 0.76016 0.65153 0.23969 0.0
H1928 H 0.78768 0.65845 0.54562 0.0
H1929 H 0.80802 0.6073 0.37511 0.0
H1930 H 0.73053 0.65323 0.52383 0.0
H1931 H 0.73812 0.67422 0.45056 0.0
H1932 H 0.75174 0.67389 0.54793 0.0
H1933 H 0.7546 0.5897 0.31802 0.0
H1934 H 0.7831 0.59084 0.28241 0.0
H1935 H 0.76255 0.6107 0.24538 0.0
C1936 C 0.59814 0.20602 0.55557 0.0
C1937 C 0.58581 0.2041 0.48385 0.0
C1938 C 0.59736 0.22594 0.6019 0.0
C1939 C 0.58332 0.24402 0.57713 0.0
C1940 C 0.57038 0.24193 0.50573 0.0
C1941 C 0.57209 0.22208 0.45905 0.0
C1942 C 0.61191 0.22782 0.67635 0.0
C1943 C 0.55473 0.2606 0.47885 0.0
C1944 C 0.56907 0.28673 0.74122 0.0
C1945 C 0.58343 0.30471 0.72164 0.0
C1946 C 0.56823 0.26717 0.6928 0.0
C1947 C 0.58266 0.26532 0.62512 0.0
C1948 C 0.59717 0.28348 0.60515 0.0
C1949 C 0.59711 0.30314 0.65298 0.0
C1950 C 0.55206 0.24841 0.71444 0.0
C1951 C 0.61328 0.28187 0.5349 0.0
H1952 H 0.6089 0.19215 0.57435 0.0
H1953 H 0.56242 0.22047 0.40383 0.0
H1954 H 0.6232 0.24269 0.67059 0.0
H1955 H 0.60139 0.23062 0.73076 0.0
H1956 H 0.62223 0.21237 0.68625 0.0
H1957 H 0.54492 0.25576 0.42443 0.0
H1958 H 0.54297 0.26488 0.52853 0.0
H1959 H 0.56438 0.2762 0.46477 0.0
H1960 H 0.55839 0.28805 0.79407 0.0
H1961 H 0.60836 0.31699 0.63823 0.0
H1962 H 0.56142 0.23294 0.73244 0.0
H1963 H 0.54175 0.24388 0.66097 0.0
H1964 H 0.54076 0.25327 0.76497 0.0
H1965 H 0.62477 0.26729 0.54422 0.0
H1966 H 0.62343 0.29755 0.52746 0.0
H1967 H 0.60405 0.27869 0.47782 0.0
loop_
_geom_bond_atom_site_label_1
_geom_bond_atom_site_label_2
_geom_bond_distance
_geom_bond_site_symmetry_2
_ccdc_geom_bond_type
Co0 O2 2.143 . S
Co0 O8 2.074 . S
Co0 O11 2.093 . S
Co0 O24 2.097 . S
Co0 N41 2.151 . S
Co0 N49 2.214 . S
Co1 O2 2.160 1_556 S
Co1 O7 2.058 1_556 S
Co1 O17 2.057 . S
Co1 O32 2.037 1_556 S
Co1 N36 2.145 . S
Co1 N57 2.257 . S
O2 Co0 2.143 . S
O2 Co1 2.160 1_554 S
C3 O4 1.278 . S
C3 O11 1.224 . S
O4 C3 1.278 . S
C5 O6 1.245 1_556 S
C5 O17 1.232 . S
O6 C5 1.245 1_554 S
O7 Co1 2.058 1_554 S
O7 C33 1.269 . S
O8 Co0 2.074 . S
O8 C33 1.257 . S
H9 C34 0.930 . S
H10 C40 0.930 . S
O11 Co0 2.093 . S
O11 C3 1.224 . S
H12 C44 0.929 . S
H13 C46 0.930 . S
H14 C47 0.930 . S
H15 C45 0.929 . S
H16 C48 0.928 . S
O17 Co1 2.057 . S
O17 C5 1.232 . S
H18 C37 0.929 . S
H19 C38 0.929 . S
H20 C50 0.931 . S
H21 C42 0.929 . S
H22 C51 0.930 . S
H23 C43 0.931 . S
O24 Co0 2.097 . S
O24 C52 1.214 . S
H25 C53 0.929 . S
H26 C54 0.929 . S
H27 C55 0.930 . S
H28 C56 0.929 . S
H29 C58 0.930 . S
H30 C35 0.930 . S
H31 C39 0.930 . S
O32 Co1 2.037 1_554 S
O32 C52 1.234 . S
C33 O7 1.269 . S
C33 O8 1.257 . S
C34 H9 0.930 . S
C34 C37 1.388 . S
C34 C39 1.418 . S
C35 H30 0.930 . S
C35 C38 1.404 . S
C35 C39 1.353 . S
N36 Co1 2.145 . S
N36 C37 1.397 . S
N36 C38 1.334 . S
C37 H18 0.929 . S
C37 C34 1.388 . S
C37 N36 1.397 . S
C38 H19 0.929 . S
C38 C35 1.404 . S
C38 N36 1.334 . S
C39 H31 0.930 . S
C39 C34 1.418 . S
C39 C35 1.353 . S
C40 H10 0.930 . S
C40 N41 1.330 . S
C40 C42 1.446 . S
N41 Co0 2.151 . S
N41 C40 1.330 . S
N41 C45 1.418 . S
C42 H21 0.929 . S
C42 C40 1.446 . S
C42 C43 1.332 . S
C43 H23 0.931 . S
C43 C42 1.332 . S
C43 C44 1.267 . S
C44 H12 0.929 . S
C44 C43 1.267 . S
C44 C45 1.251 . S
C45 H15 0.929 . S
C45 N41 1.418 . S
C45 C44 1.251 . S
C46 H13 0.930 . S
C46 C48 1.406 . S
C46 C51 1.261 . S
C47 H14 0.930 . S
C47 N49 1.325 . S
C47 C50 1.357 . S
C48 H16 0.928 . S
C48 C46 1.406 . S
C48 N49 1.261 . S
N49 Co0 2.214 . S
N49 C47 1.325 . S
N49 C48 1.261 . S
C50 H20 0.931 . S
C50 C47 1.357 . S
C50 C51 1.312 . S
C51 H22 0.930 . S
C51 C46 1.261 . S
C51 C50 1.312 . S
C52 O24 1.214 . S
C52 O32 1.234 . S
C53 H25 0.929 . S
C53 C56 1.391 . S
C53 C58 1.391 . S
C54 H26 0.929 . S
C54 C55 1.390 . S
C54 N57 1.391 . S
C55 H27 0.930 . S
C55 C54 1.390 . S
C55 C56 1.392 . S
C56 H28 0.929 . S
C56 C53 1.391 . S
C56 C55 1.392 . S
N57 Co1 2.257 . S
N57 C54 1.391 . S
N57 C58 1.388 . S
C58 H29 0.930 . S
C58 C53 1.391 . S
C58 N57 1.388 . S
Co59 O61 2.143 . S
Co59 O67 2.074 . S
Co59 O70 2.093 . S
Co59 O83 2.097 . S
Co59 N100 2.151 . S
Co59 N108 2.214 . S
Co60 O61 2.160 . S
Co60 O66 2.058 . S
Co60 O76 2.057 1_556 S
Co60 O91 2.037 . S
Co60 N95 2.145 1_556 S
Co60 N116 2.257 1_556 S
O61 Co59 2.143 . S
O61 Co60 2.160 . S
C62 O63 1.278 . S
C62 O70 1.224 . S
O63 C62 1.278 . S
C64 O65 1.245 1_554 S
C64 O76 1.232 . S
O65 C64 1.245 1_556 S
O66 Co60 2.058 . S
O66 C92 1.269 . S
O67 Co59 2.074 . S
O67 C92 1.257 . S
H68 C93 0.930 . S
H69 C99 0.930 . S
O70 Co59 2.093 . S
O70 C62 1.224 . S
H71 C103 0.929 . S
H72 C105 0.930 . S
H73 C106 0.930 . S
H74 C104 0.929 . S
H75 C107 0.928 . S
O76 Co60 2.057 1_554 S
O76 C64 1.232 . S
H77 C96 0.929 1_556 S
H78 C97 0.929 . S
H79 C109 0.931 . S
H80 C101 0.929 . S
H81 C110 0.930 . S
H82 C102 0.931 . S
O83 Co59 2.097 . S
O83 C111 1.214 . S
H84 C112 0.929 . S
H85 C113 0.929 . S
H86 C114 0.930 . S
H87 C115 0.929 . S
H88 C117 0.930 . S
H89 C94 0.930 . S
H90 C98 0.930 . S
O91 Co60 2.037 . S
O91 C111 1.234 . S
C92 O66 1.269 . S
C92 O67 1.257 . S
C93 H68 0.930 . S
C93 C96 1.388 . S
C93 C98 1.418 . S
C94 H89 0.930 . S
C94 C97 1.404 . S
C94 C98 1.353 . S
N95 Co60 2.145 1_554 S
N95 C96 1.397 . S
N95 C97 1.334 . S
C96 H77 0.929 1_554 S
C96 C93 1.388 . S
C96 N95 1.397 . S
C97 H78 0.929 . S
C97 C94 1.404 . S
C97 N95 1.334 . S
C98 H90 0.930 . S
C98 C93 1.418 . S
C98 C94 1.353 . S
C99 H69 0.930 . S
C99 N100 1.330 . S
C99 C101 1.446 . S
N100 Co59 2.151 . S
N100 C99 1.330 . S
N100 C104 1.418 . S
C101 H80 0.929 . S
C101 C99 1.446 . S
C101 C102 1.332 . S
C102 H82 0.931 . S
C102 C101 1.332 . S
C102 C103 1.267 . S
C103 H71 0.929 . S
C103 C102 1.267 . S
C103 C104 1.251 . S
C104 H74 0.929 . S
C104 N100 1.418 . S
C104 C103 1.251 . S
C105 H72 0.930 . S
C105 C107 1.406 . S
C105 C110 1.261 . S
C106 H73 0.930 . S
C106 N108 1.325 . S
C106 C109 1.357 . S
C107 H75 0.928 . S
C107 C105 1.406 . S
C107 N108 1.261 . S
N108 Co59 2.214 . S
N108 C106 1.325 . S
N108 C107 1.261 . S
C109 H79 0.931 . S
C109 C106 1.357 . S
C109 C110 1.312 . S
C110 H81 0.930 . S
C110 C105 1.261 . S
C110 C109 1.312 . S
C111 O83 1.214 . S
C111 O91 1.234 . S
C112 H84 0.929 . S
C112 C115 1.391 . S
C112 C117 1.391 . S
C113 H85 0.929 . S
C113 C114 1.390 . S
C113 N116 1.391 . S
C114 H86 0.930 . S
C114 C113 1.390 . S
C114 C115 1.392 . S
C115 H87 0.929 . S
C115 C112 1.391 . S
C115 C114 1.392 . S
N116 Co60 2.257 1_554 S
N116 C113 1.391 . S
N116 C117 1.388 . S
C117 H88 0.930 . S
C117 C112 1.391 . S
C117 N116 1.388 . S
Co118 O120 2.143 . S
Co118 O126 2.074 . S
Co118 O129 2.093 . S
Co118 O142 2.097 . S
Co118 N159 2.151 . S
Co118 N167 2.214 . S
Co119 O120 2.160 1_556 S
Co119 O125 2.058 1_556 S
Co119 O135 2.057 . S
Co119 O150 2.037 1_556 S
Co119 N154 2.145 . S
Co119 N175 2.257 . S
O120 Co118 2.143 . S
O120 Co119 2.160 1_554 S
C121 O122 1.278 . S
C121 O129 1.224 . S
O122 C121 1.278 . S
C123 O124 1.245 1_556 S
C123 O135 1.232 . S
O124 C123 1.245 1_554 S
O125 Co119 2.058 1_554 S
O125 C151 1.269 . S
O126 Co118 2.074 . S
O126 C151 1.257 . S
H127 C152 0.930 . S
H128 C158 0.930 . S
O129 Co118 2.093 . S
O129 C121 1.224 . S
H130 C162 0.929 . S
H131 C164 0.930 . S
H132 C165 0.930 . S
H133 C163 0.929 . S
H134 C166 0.928 . S
O135 Co119 2.057 . S
O135 C123 1.232 . S
H136 C155 0.929 . S
H137 C156 0.929 . S
H138 C168 0.931 . S
H139 C160 0.929 . S
H140 C169 0.930 . S
H141 C161 0.931 . S
O142 Co118 2.097 . S
O142 C170 1.214 . S
H143 C171 0.929 . S
H144 C172 0.929 . S
H145 C173 0.930 . S
H146 C174 0.929 . S
H147 C176 0.930 . S
H148 C153 0.930 . S
H149 C157 0.930 . S
O150 Co119 2.037 1_554 S
O150 C170 1.234 . S
C151 O125 1.269 . S
C151 O126 1.257 . S
C152 H127 0.930 . S
C152 C155 1.388 . S
C152 C157 1.418 . S
C153 H148 0.930 . S
C153 C156 1.404 . S
C153 C157 1.353 . S
N154 Co119 2.145 . S
N154 C155 1.397 . S
N154 C156 1.334 . S
C155 H136 0.929 . S
C155 C152 1.388 . S
C155 N154 1.397 . S
C156 H137 0.929 . S
C156 C153 1.404 . S
C156 N154 1.334 . S
C157 H149 0.930 . S
C157 C152 1.418 . S
C157 C153 1.353 . S
C158 H128 0.930 . S
C158 N159 1.330 . S
C158 C160 1.446 . S
N159 Co118 2.151 . S
N159 C158 1.330 . S
N159 C163 1.418 . S
C160 H139 0.929 . S
C160 C158 1.446 . S
C160 C161 1.332 . S
C161 H141 0.931 . S
C161 C160 1.332 . S
C161 C162 1.267 . S
C162 H130 0.929 . S
C162 C161 1.267 . S
C162 C163 1.251 . S
C163 H133 0.929 . S
C163 N159 1.418 . S
C163 C162 1.251 . S
C164 H131 0.930 . S
C164 C166 1.406 . S
C164 C169 1.261 . S
C165 H132 0.930 . S
C165 N167 1.325 . S
C165 C168 1.357 . S
C166 H134 0.928 . S
C166 C164 1.406 . S
C166 N167 1.261 . S
N167 Co118 2.214 . S
N167 C165 1.325 . S
N167 C166 1.261 . S
C168 H138 0.931 . S
C168 C165 1.357 . S
C168 C169 1.312 . S
C169 H140 0.930 . S
C169 C164 1.261 . S
C169 C168 1.312 . S
C170 O142 1.214 . S
C170 O150 1.234 . S
C171 H143 0.929 . S
C171 C174 1.391 . S
C171 C176 1.391 . S
C172 H144 0.929 . S
C172 C173 1.390 . S
C172 N175 1.391 . S
C173 H145 0.930 . S
C173 C172 1.390 . S
C173 C174 1.392 . S
C174 H146 0.929 . S
C174 C171 1.391 . S
C174 C173 1.392 . S
N175 Co119 2.257 . S
N175 C172 1.391 . S
N175 C176 1.388 . S
C176 H147 0.930 . S
C176 C171 1.391 . S
C176 N175 1.388 . S
Co177 O179 2.143 . S
Co177 O185 2.074 . S
Co177 O188 2.093 . S
Co177 O201 2.097 . S
Co177 N218 2.151 . S
Co177 N226 2.214 . S
Co178 O179 2.160 . S
Co178 O184 2.058 . S
Co178 O194 2.057 1_556 S
Co178 O209 2.037 . S
Co178 N213 2.145 1_556 S
Co178 N234 2.257 1_556 S
O179 Co177 2.143 . S
O179 Co178 2.160 . S
C180 O181 1.278 . S
C180 O188 1.224 . S
O181 C180 1.278 . S
C182 O183 1.245 1_554 S
C182 O194 1.232 . S
O183 C182 1.245 1_556 S
O184 Co178 2.058 . S
O184 C210 1.269 . S
O185 Co177 2.074 . S
O185 C210 1.257 . S
H186 C211 0.930 . S
H187 C217 0.930 . S
O188 Co177 2.093 . S
O188 C180 1.224 . S
H189 C221 0.929 . S
H190 C223 0.930 . S
H191 C224 0.930 . S
H192 C222 0.929 . S
H193 C225 0.928 . S
O194 Co178 2.057 1_554 S
O194 C182 1.232 . S
H195 C214 0.929 1_556 S
H196 C215 0.929 . S
H197 C227 0.931 . S
H198 C219 0.929 . S
H199 C228 0.930 . S
H200 C220 0.931 . S
O201 Co177 2.097 . S
O201 C229 1.214 . S
H202 C230 0.929 . S
H203 C231 0.929 . S
H204 C232 0.930 . S
H205 C233 0.929 . S
H206 C235 0.930 . S
H207 C212 0.930 . S
H208 C216 0.930 . S
O209 Co178 2.037 . S
O209 C229 1.234 . S
C210 O184 1.269 . S
C210 O185 1.257 . S
C211 H186 0.930 . S
C211 C214 1.388 . S
C211 C216 1.418 . S
C212 H207 0.930 . S
C212 C215 1.404 . S
C212 C216 1.353 . S
N213 Co178 2.145 1_554 S
N213 C214 1.397 . S
N213 C215 1.334 . S
C214 H195 0.929 1_554 S
C214 C211 1.388 . S
C214 N213 1.397 . S
C215 H196 0.929 . S
C215 C212 1.404 . S
C215 N213 1.334 . S
C216 H208 0.930 . S
C216 C211 1.418 . S
C216 C212 1.353 . S
C217 H187 0.930 . S
C217 N218 1.330 . S
C217 C219 1.446 . S
N218 Co177 2.151 . S
N218 C217 1.330 . S
N218 C222 1.418 . S
C219 H198 0.929 . S
C219 C217 1.446 . S
C219 C220 1.332 . S
C220 H200 0.931 . S
C220 C219 1.332 . S
C220 C221 1.267 . S
C221 H189 0.929 . S
C221 C220 1.267 . S
C221 C222 1.251 . S
C222 H192 0.929 . S
C222 N218 1.418 . S
C222 C221 1.251 . S
C223 H190 0.930 . S
C223 C225 1.406 . S
C223 C228 1.261 . S
C224 H191 0.930 . S
C224 N226 1.325 . S
C224 C227 1.357 . S
C225 H193 0.928 . S
C225 C223 1.406 . S
C225 N226 1.261 . S
N226 Co177 2.214 . S
N226 C224 1.325 . S
N226 C225 1.261 . S
C227 H197 0.931 . S
C227 C224 1.357 . S
C227 C228 1.312 . S
C228 H199 0.930 . S
C228 C223 1.261 . S
C228 C227 1.312 . S
C229 O201 1.214 . S
C229 O209 1.234 . S
C230 H202 0.929 . S
C230 C233 1.391 . S
C230 C235 1.391 . S
C231 H203 0.929 . S
C231 C232 1.390 . S
C231 N234 1.391 . S
C232 H204 0.930 . S
C232 C231 1.390 . S
C232 C233 1.392 . S
C233 H205 0.929 . S
C233 C230 1.391 . S
C233 C232 1.392 . S
N234 Co178 2.257 1_554 S
N234 C231 1.391 . S
N234 C235 1.388 . S
C235 H206 0.930 . S
C235 C230 1.391 . S
C235 N234 1.388 . S
Co236 O238 2.143 . S
Co236 O244 2.074 . S
Co236 O247 2.093 . S
Co236 O260 2.097 . S
Co236 N277 2.151 . S
Co236 N285 2.214 1_554 S
Co237 O238 2.160 . S
Co237 O243 2.058 . S
Co237 O253 2.057 . S
Co237 O268 2.037 . S
Co237 N272 2.145 . S
Co237 N293 2.257 . S
O238 Co236 2.143 . S
O238 Co237 2.160 . S
C239 O240 1.278 . S
C239 O247 1.224 . S
O240 C239 1.278 . S
C241 O242 1.245 . S
C241 O253 1.232 . S
O242 C241 1.245 . S
O243 Co237 2.058 . S
O243 C269 1.269 . S
O244 Co236 2.074 . S
O244 C269 1.257 . S
H245 C270 0.930 . S
H246 C276 0.930 . S
O247 Co236 2.093 . S
O247 C239 1.224 . S
H248 C280 0.929 . S
H249 C282 0.930 . S
H250 C283 0.930 1_554 S
H251 C281 0.929 . S
H252 C284 0.928 . S
O253 Co237 2.057 . S
O253 C241 1.232 . S
H254 C273 0.929 . S
H255 C274 0.929 . S
H256 C286 0.931 . S
H257 C278 0.929 . S
H258 C287 0.930 . S
H259 C279 0.931 . S
O260 Co236 2.097 . S
O260 C288 1.214 . S
H261 C289 0.929 . S
H262 C290 0.929 . S
H263 C291 0.930 . S
H264 C292 0.929 . S
H265 C294 0.930 . S
H266 C271 0.930 . S
H267 C275 0.930 . S
O268 Co237 2.037 . S
O268 C288 1.234 . S
C269 O243 1.269 . S
C269 O244 1.257 . S
C270 H245 0.930 . S
C270 C273 1.388 . S
C270 C275 1.418 . S
C271 H266 0.930 . S
C271 C274 1.404 . S
C271 C275 1.353 . S
N272 Co237 2.145 . S
N272 C273 1.397 . S
N272 C274 1.334 . S
C273 H254 0.929 . S
C273 C270 1.388 . S
C273 N272 1.397 . S
C274 H255 0.929 . S
C274 C271 1.404 . S
C274 N272 1.334 . S
C275 H267 0.930 . S
C275 C270 1.418 . S
C275 C271 1.353 . S
C276 H246 0.930 . S
C276 N277 1.330 . S
C276 C278 1.446 1_554 S
N277 Co236 2.151 . S
N277 C276 1.330 . S
N277 C281 1.418 1_554 S
C278 H257 0.929 . S
C278 C276 1.446 1_556 S
C278 C279 1.332 . S
C279 H259 0.931 . S
C279 C278 1.332 . S
C279 C280 1.267 . S
C280 H248 0.929 . S
C280 C279 1.267 . S
C280 C281 1.251 . S
C281 H251 0.929 . S
C281 N277 1.418 1_556 S
C281 C280 1.251 . S
C282 H249 0.930 . S
C282 C284 1.406 . S
C282 C287 1.261 . S
C283 H250 0.930 1_556 S
C283 N285 1.325 . S
C283 C286 1.357 . S
C284 H252 0.928 . S
C284 C282 1.406 . S
C284 N285 1.261 . S
N285 Co236 2.214 1_556 S
N285 C283 1.325 . S
N285 C284 1.261 . S
C286 H256 0.931 . S
C286 C283 1.357 . S
C286 C287 1.312 . S
C287 H258 0.930 . S
C287 C282 1.261 . S
C287 C286 1.312 . S
C288 O260 1.214 . S
C288 O268 1.234 . S
C289 H261 0.929 . S
C289 C292 1.391 . S
C289 C294 1.391 . S
C290 H262 0.929 . S
C290 C291 1.390 . S
C290 N293 1.391 . S
C291 H263 0.930 . S
C291 C290 1.390 . S
C291 C292 1.392 . S
C292 H264 0.929 . S
C292 C289 1.391 . S
C292 C291 1.392 . S
N293 Co237 2.257 . S
N293 C290 1.391 . S
N293 C294 1.388 . S
C294 H265 0.930 . S
C294 C289 1.391 . S
C294 N293 1.388 . S
Co295 O297 2.143 . S
Co295 O303 2.074 . S
Co295 O306 2.093 . S
Co295 O319 2.097 . S
Co295 N336 2.151 1_556 S
Co295 N344 2.214 1_556 S
Co296 O297 2.160 . S
Co296 O302 2.058 . S
Co296 O312 2.057 . S
Co296 O327 2.037 . S
Co296 N331 2.145 . S
Co296 N352 2.257 . S
O297 Co295 2.143 . S
O297 Co296 2.160 . S
C298 O299 1.278 . S
C298 O306 1.224 . S
O299 C298 1.278 . S
C300 O301 1.245 . S
C300 O312 1.232 . S
O301 C300 1.245 . S
O302 Co296 2.058 . S
O302 C328 1.269 . S
O303 Co295 2.074 . S
O303 C328 1.257 . S
H304 C329 0.930 . S
H305 C335 0.930 1_556 S
O306 Co295 2.093 . S
O306 C298 1.224 . S
H307 C339 0.929 . S
H308 C341 0.930 . S
H309 C342 0.930 . S
H310 C340 0.929 . S
H311 C343 0.928 . S
O312 Co296 2.057 . S
O312 C300 1.232 . S
H313 C332 0.929 . S
H314 C333 0.929 . S
H315 C345 0.931 . S
H316 C337 0.929 . S
H317 C346 0.930 . S
H318 C338 0.931 . S
O319 Co295 2.097 . S
O319 C347 1.214 . S
H320 C348 0.929 . S
H321 C349 0.929 . S
H322 C350 0.930 . S
H323 C351 0.929 . S
H324 C353 0.930 . S
H325 C330 0.930 . S
H326 C334 0.930 . S
O327 Co296 2.037 . S
O327 C347 1.234 . S
C328 O302 1.269 . S
C328 O303 1.257 . S
C329 H304 0.930 . S
C329 C332 1.388 . S
C329 C334 1.418 . S
C330 H325 0.930 . S
C330 C333 1.404 . S
C330 C334 1.353 . S
N331 Co296 2.145 . S
N331 C332 1.397 . S
N331 C333 1.334 . S
C332 H313 0.929 . S
C332 C329 1.388 . S
C332 N331 1.397 . S
C333 H314 0.929 . S
C333 C330 1.404 . S
C333 N331 1.334 . S
C334 H326 0.930 . S
C334 C329 1.418 . S
C334 C330 1.353 . S
C335 H305 0.930 1_554 S
C335 N336 1.330 . S
C335 C337 1.446 . S
N336 Co295 2.151 1_554 S
N336 C335 1.330 . S
N336 C340 1.418 . S
C337 H316 0.929 . S
C337 C335 1.446 . S
C337 C338 1.332 . S
C338 H318 0.931 . S
C338 C337 1.332 . S
C338 C339 1.267 . S
C339 H307 0.929 . S
C339 C338 1.267 . S
C339 C340 1.251 . S
C340 H310 0.929 . S
C340 N336 1.418 . S
C340 C339 1.251 . S
C341 H308 0.930 . S
C341 C343 1.406 . S
C341 C346 1.261 . S
C342 H309 0.930 . S
C342 N344 1.325 . S
C342 C345 1.357 . S
C343 H311 0.928 . S
C343 C341 1.406 . S
C343 N344 1.261 . S
N344 Co295 2.214 1_554 S
N344 C342 1.325 . S
N344 C343 1.261 . S
C345 H315 0.931 . S
C345 C342 1.357 . S
C345 C346 1.312 . S
C346 H317 0.930 . S
C346 C341 1.261 . S
C346 C345 1.312 . S
C347 O319 1.214 . S
C347 O327 1.234 . S
C348 H320 0.929 . S
C348 C351 1.391 . S
C348 C353 1.391 . S
C349 H321 0.929 . S
C349 C350 1.390 . S
C349 N352 1.391 . S
C350 H322 0.930 . S
C350 C349 1.390 . S
C350 C351 1.392 . S
C351 H323 0.929 . S
C351 C348 1.391 . S
C351 C350 1.392 . S
N352 Co296 2.257 . S
N352 C349 1.391 . S
N352 C353 1.388 . S
C353 H324 0.930 . S
C353 C348 1.391 . S
C353 N352 1.388 . S
Co354 O356 2.143 . S
Co354 O362 2.074 . S
Co354 O365 2.093 . S
Co354 O378 2.097 . S
Co354 N395 2.151 . S
Co354 N403 2.214 1_554 S
Co355 O356 2.160 . S
Co355 O361 2.058 . S
Co355 O371 2.057 . S
Co355 O386 2.037 . S
Co355 N390 2.145 . S
Co355 N411 2.257 . S
O356 Co354 2.143 . S
O356 Co355 2.160 . S
C357 O358 1.278 . S
C357 O365 1.224 . S
O358 C357 1.278 . S
C359 O360 1.245 . S
C359 O371 1.232 . S
O360 C359 1.245 . S
O361 Co355 2.058 . S
O361 C387 1.269 . S
O362 Co354 2.074 . S
O362 C387 1.257 . S
H363 C388 0.930 . S
H364 C394 0.930 . S
O365 Co354 2.093 . S
O365 C357 1.224 . S
H366 C398 0.929 . S
H367 C400 0.930 . S
H368 C401 0.930 1_554 S
H369 C399 0.929 . S
H370 C402 0.928 . S
O371 Co355 2.057 . S
O371 C359 1.232 . S
H372 C391 0.929 . S
H373 C392 0.929 . S
H374 C404 0.931 . S
H375 C396 0.929 . S
H376 C405 0.930 . S
H377 C397 0.931 . S
O378 Co354 2.097 . S
O378 C406 1.214 . S
H379 C407 0.929 . S
H380 C408 0.929 . S
H381 C409 0.930 . S
H382 C410 0.929 . S
H383 C412 0.930 . S
H384 C389 0.930 . S
H385 C393 0.930 . S
O386 Co355 2.037 . S
O386 C406 1.234 . S
C387 O361 1.269 . S
C387 O362 1.257 . S
C388 H363 0.930 . S
C388 C391 1.388 . S
C388 C393 1.418 . S
C389 H384 0.930 . S
C389 C392 1.404 . S
C389 C393 1.353 . S
N390 Co355 2.145 . S
N390 C391 1.397 . S
N390 C392 1.334 . S
C391 H372 0.929 . S
C391 C388 1.388 . S
C391 N390 1.397 . S
C392 H373 0.929 . S
C392 C389 1.404 . S
C392 N390 1.334 . S
C393 H385 0.930 . S
C393 C388 1.418 . S
C393 C389 1.353 . S
C394 H364 0.930 . S
C394 N395 1.330 . S
C394 C396 1.446 1_554 S
N395 Co354 2.151 . S
N395 C394 1.330 . S
N395 C399 1.418 1_554 S
C396 H375 0.929 . S
C396 C394 1.446 1_556 S
C396 C397 1.332 . S
C397 H377 0.931 . S
C397 C396 1.332 . S
C397 C398 1.267 . S
C398 H366 0.929 . S
C398 C397 1.267 . S
C398 C399 1.251 . S
C399 H369 0.929 . S
C399 N395 1.418 1_556 S
C399 C398 1.251 . S
C400 H367 0.930 . S
C400 C402 1.406 . S
C400 C405 1.261 . S
C401 H368 0.930 1_556 S
C401 N403 1.325 . S
C401 C404 1.357 . S
C402 H370 0.928 . S
C402 C400 1.406 . S
C402 N403 1.261 . S
N403 Co354 2.214 1_556 S
N403 C401 1.325 . S
N403 C402 1.261 . S
C404 H374 0.931 . S
C404 C401 1.357 . S
C404 C405 1.312 . S
C405 H376 0.930 . S
C405 C400 1.261 . S
C405 C404 1.312 . S
C406 O378 1.214 . S
C406 O386 1.234 . S
C407 H379 0.929 . S
C407 C410 1.391 . S
C407 C412 1.391 . S
C408 H380 0.929 . S
C408 C409 1.390 . S
C408 N411 1.391 . S
C409 H381 0.930 . S
C409 C408 1.390 . S
C409 C410 1.392 . S
C410 H382 0.929 . S
C410 C407 1.391 . S
C410 C409 1.392 . S
N411 Co355 2.257 . S
N411 C408 1.391 . S
N411 C412 1.388 . S
C412 H383 0.930 . S
C412 C407 1.391 . S
C412 N411 1.388 . S
Co413 O415 2.143 . S
Co413 O421 2.074 . S
Co413 O424 2.093 . S
Co413 O437 2.097 . S
Co413 N454 2.151 1_556 S
Co413 N462 2.214 1_556 S
Co414 O415 2.160 . S
Co414 O420 2.058 . S
Co414 O430 2.057 . S
Co414 O445 2.037 . S
Co414 N449 2.145 . S
Co414 N470 2.257 . S
O415 Co413 2.143 . S
O415 Co414 2.160 . S
C416 O417 1.278 . S
C416 O424 1.224 . S
O417 C416 1.278 . S
C418 O419 1.245 . S
C418 O430 1.232 . S
O419 C418 1.245 . S
O420 Co414 2.058 . S
O420 C446 1.269 . S
O421 Co413 2.074 . S
O421 C446 1.257 . S
H422 C447 0.930 . S
H423 C453 0.930 1_556 S
O424 Co413 2.093 . S
O424 C416 1.224 . S
H425 C457 0.929 . S
H426 C459 0.930 . S
H427 C460 0.930 . S
H428 C458 0.929 . S
H429 C461 0.928 . S
O430 Co414 2.057 . S
O430 C418 1.232 . S
H431 C450 0.929 . S
H432 C451 0.929 . S
H433 C463 0.931 . S
H434 C455 0.929 . S
H435 C464 0.930 . S
H436 C456 0.931 . S
O437 Co413 2.097 . S
O437 C465 1.214 . S
H438 C466 0.929 . S
H439 C467 0.929 . S
H440 C468 0.930 . S
H441 C469 0.929 . S
H442 C471 0.930 . S
H443 C448 0.930 . S
H444 C452 0.930 . S
O445 Co414 2.037 . S
O445 C465 1.234 . S
C446 O420 1.269 . S
C446 O421 1.257 . S
C447 H422 0.930 . S
C447 C450 1.388 . S
C447 C452 1.418 . S
C448 H443 0.930 . S
C448 C451 1.404 . S
C448 C452 1.353 . S
N449 Co414 2.145 . S
N449 C450 1.397 . S
N449 C451 1.334 . S
C450 H431 0.929 . S
C450 C447 1.388 . S
C450 N449 1.397 . S
C451 H432 0.929 . S
C451 C448 1.404 . S
C451 N449 1.334 . S
C452 H444 0.930 . S
C452 C447 1.418 . S
C452 C448 1.353 . S
C453 H423 0.930 1_554 S
C453 N454 1.330 . S
C453 C455 1.446 . S
N454 Co413 2.151 1_554 S
N454 C453 1.330 . S
N454 C458 1.418 . S
C455 H434 0.929 . S
C455 C453 1.446 . S
C455 C456 1.332 . S
C456 H436 0.931 . S
C456 C455 1.332 . S
C456 C457 1.267 . S
C457 H425 0.929 . S
C457 C456 1.267 . S
C457 C458 1.251 . S
C458 H428 0.929 . S
C458 N454 1.418 . S
C458 C457 1.251 . S
C459 H426 0.930 . S
C459 C461 1.406 . S
C459 C464 1.261 . S
C460 H427 0.930 . S
C460 N462 1.325 . S
C460 C463 1.357 . S
C461 H429 0.928 . S
C461 C459 1.406 . S
C461 N462 1.261 . S
N462 Co413 2.214 1_554 S
N462 C460 1.325 . S
N462 C461 1.261 . S
C463 H433 0.931 . S
C463 C460 1.357 . S
C463 C464 1.312 . S
C464 H435 0.930 . S
C464 C459 1.261 . S
C464 C463 1.312 . S
C465 O437 1.214 . S
C465 O445 1.234 . S
C466 H438 0.929 . S
C466 C469 1.391 . S
C466 C471 1.391 . S
C467 H439 0.929 . S
C467 C468 1.390 . S
C467 N470 1.391 . S
C468 H440 0.930 . S
C468 C467 1.390 . S
C468 C469 1.392 . S
C469 H441 0.929 . S
C469 C466 1.391 . S
C469 C468 1.392 . S
N470 Co414 2.257 . S
N470 C467 1.391 . S
N470 C471 1.388 . S
C471 H442 0.930 . S
C471 C466 1.391 . S
C471 N470 1.388 . S
Co472 O474 2.143 . S
Co472 O480 2.074 . S
Co472 O483 2.093 . S
Co472 O496 2.097 . S
Co472 N513 2.151 . S
Co472 N521 2.214 . S
Co473 O474 2.160 . S
Co473 O479 2.058 . S
Co473 O489 2.057 . S
Co473 O504 2.037 . S
Co473 N508 2.145 . S
Co473 N529 2.257 . S
O474 Co472 2.143 . S
O474 Co473 2.160 . S
C475 O476 1.278 . S
C475 O483 1.224 . S
O476 C475 1.278 . S
C477 O478 1.245 . S
C477 O489 1.232 . S
O478 C477 1.245 . S
O479 Co473 2.058 . S
O479 C505 1.269 . S
O480 Co472 2.074 . S
O480 C505 1.257 . S
H481 C506 0.930 . S
H482 C512 0.930 . S
O483 Co472 2.093 . S
O483 C475 1.224 . S
H484 C516 0.929 . S
H485 C518 0.930 . S
H486 C519 0.930 . S
H487 C517 0.929 . S
H488 C520 0.928 . S
O489 Co473 2.057 . S
O489 C477 1.232 . S
H490 C509 0.929 . S
H491 C510 0.929 . S
H492 C522 0.931 . S
H493 C514 0.929 . S
H494 C523 0.930 . S
H495 C515 0.931 . S
O496 Co472 2.097 . S
O496 C524 1.214 . S
H497 C525 0.929 . S
H498 C526 0.929 . S
H499 C527 0.930 . S
H500 C528 0.929 . S
H501 C530 0.930 . S
H502 C507 0.930 . S
H503 C511 0.930 . S
O504 Co473 2.037 . S
O504 C524 1.234 . S
C505 O479 1.269 . S
C505 O480 1.257 . S
C506 H481 0.930 . S
C506 C509 1.388 . S
C506 C511 1.418 . S
C507 H502 0.930 . S
C507 C510 1.404 . S
C507 C511 1.353 . S
N508 Co473 2.145 . S
N508 C509 1.397 . S
N508 C510 1.334 . S
C509 H490 0.929 . S
C509 C506 1.388 . S
C509 N508 1.397 . S
C510 H491 0.929 . S
C510 C507 1.404 . S
C510 N508 1.334 . S
C511 H503 0.930 . S
C511 C506 1.418 . S
C511 C507 1.353 . S
C512 H482 0.930 . S
C512 N513 1.330 . S
C512 C514 1.446 . S
N513 Co472 2.151 . S
N513 C512 1.330 . S
N513 C517 1.418 . S
C514 H493 0.929 . S
C514 C512 1.446 . S
C514 C515 1.332 . S
C515 H495 0.931 . S
C515 C514 1.332 . S
C515 C516 1.267 . S
C516 H484 0.929 . S
C516 C515 1.267 . S
C516 C517 1.251 . S
C517 H487 0.929 . S
C517 N513 1.418 . S
C517 C516 1.251 . S
C518 H485 0.930 . S
C518 C520 1.406 . S
C518 C523 1.261 . S
C519 H486 0.930 . S
C519 N521 1.325 . S
C519 C522 1.357 . S
C520 H488 0.928 . S
C520 C518 1.406 . S
C520 N521 1.261 . S
N521 Co472 2.214 . S
N521 C519 1.325 . S
N521 C520 1.261 . S
C522 H492 0.931 . S
C522 C519 1.357 . S
C522 C523 1.312 . S
C523 H494 0.930 . S
C523 C518 1.261 . S
C523 C522 1.312 . S
C524 O496 1.214 . S
C524 O504 1.234 . S
C525 H497 0.929 . S
C525 C528 1.391 . S
C525 C530 1.391 . S
C526 H498 0.929 . S
C526 C527 1.390 . S
C526 N529 1.391 . S
C527 H499 0.930 . S
C527 C526 1.390 . S
C527 C528 1.392 . S
C528 H500 0.929 . S
C528 C525 1.391 . S
C528 C527 1.392 . S
N529 Co473 2.257 . S
N529 C526 1.391 . S
N529 C530 1.388 . S
C530 H501 0.930 . S
C530 C525 1.391 . S
C530 N529 1.388 . S
Co531 O533 2.143 . S
Co531 O539 2.074 . S
Co531 O542 2.093 . S
Co531 O555 2.097 . S
Co531 N572 2.151 . S
Co531 N580 2.214 . S
Co532 O533 2.160 . S
Co532 O538 2.058 . S
Co532 O548 2.057 . S
Co532 O563 2.037 . S
Co532 N567 2.145 . S
Co532 N588 2.257 . S
O533 Co531 2.143 . S
O533 Co532 2.160 . S
C534 O535 1.278 . S
C534 O542 1.224 . S
O535 C534 1.278 . S
C536 O537 1.245 . S
C536 O548 1.232 . S
O537 C536 1.245 . S
O538 Co532 2.058 . S
O538 C564 1.269 . S
O539 Co531 2.074 . S
O539 C564 1.257 . S
H540 C565 0.930 . S
H541 C571 0.930 . S
O542 Co531 2.093 . S
O542 C534 1.224 . S
H543 C575 0.929 . S
H544 C577 0.930 1_556 S
H545 C578 0.930 . S
H546 C576 0.929 . S
H547 C579 0.928 . S
O548 Co532 2.057 . S
O548 C536 1.232 . S
H549 C568 0.929 . S
H550 C569 0.929 . S
H551 C581 0.931 . S
H552 C573 0.929 . S
H553 C582 0.930 . S
H554 C574 0.931 . S
O555 Co531 2.097 . S
O555 C583 1.214 . S
H556 C584 0.929 . S
H557 C585 0.929 . S
H558 C586 0.930 . S
H559 C587 0.929 . S
H560 C589 0.930 . S
H561 C566 0.930 . S
H562 C570 0.930 . S
O563 Co532 2.037 . S
O563 C583 1.234 . S
C564 O538 1.269 . S
C564 O539 1.257 . S
C565 H540 0.930 . S
C565 C568 1.388 . S
C565 C570 1.418 . S
C566 H561 0.930 . S
C566 C569 1.404 . S
C566 C570 1.353 . S
N567 Co532 2.145 . S
N567 C568 1.397 . S
N567 C569 1.334 . S
C568 H549 0.929 . S
C568 C565 1.388 . S
C568 N567 1.397 . S
C569 H550 0.929 . S
C569 C566 1.404 . S
C569 N567 1.334 . S
C570 H562 0.930 . S
C570 C565 1.418 . S
C570 C566 1.353 . S
C571 H541 0.930 . S
C571 N572 1.330 . S
C571 C573 1.446 . S
N572 Co531 2.151 . S
N572 C571 1.330 . S
N572 C576 1.418 . S
C573 H552 0.929 . S
C573 C571 1.446 . S
C573 C574 1.332 . S
C574 H554 0.931 . S
C574 C573 1.332 . S
C574 C575 1.267 . S
C575 H543 0.929 . S
C575 C574 1.267 . S
C575 C576 1.251 . S
C576 H546 0.929 . S
C576 N572 1.418 . S
C576 C575 1.251 . S
C577 H544 0.930 1_554 S
C577 C579 1.406 . S
C577 C582 1.261 1_554 S
C578 H545 0.930 . S
C578 N580 1.325 . S
C578 C581 1.357 . S
C579 H547 0.928 . S
C579 C577 1.406 . S
C579 N580 1.261 . S
N580 Co531 2.214 . S
N580 C578 1.325 . S
N580 C579 1.261 . S
C581 H551 0.931 . S
C581 C578 1.357 . S
C581 C582 1.312 1_554 S
C582 H553 0.930 . S
C582 C577 1.261 1_556 S
C582 C581 1.312 1_556 S
C583 O555 1.214 . S
C583 O563 1.234 . S
C584 H556 0.929 . S
C584 C587 1.391 . S
C584 C589 1.391 . S
C585 H557 0.929 . S
C585 C586 1.390 . S
C585 N588 1.391 . S
C586 H558 0.930 . S
C586 C585 1.390 . S
C586 C587 1.392 . S
C587 H559 0.929 . S
C587 C584 1.391 . S
C587 C586 1.392 . S
N588 Co532 2.257 . S
N588 C585 1.391 . S
N588 C589 1.388 . S
C589 H560 0.930 . S
C589 C584 1.391 . S
C589 N588 1.388 . S
Co590 O592 2.143 . S
Co590 O598 2.074 . S
Co590 O601 2.093 . S
Co590 O614 2.097 . S
Co590 N631 2.151 . S
Co590 N639 2.214 . S
Co591 O592 2.160 . S
Co591 O597 2.058 . S
Co591 O607 2.057 . S
Co591 O622 2.037 . S
Co591 N626 2.145 . S
Co591 N647 2.257 . S
O592 Co590 2.143 . S
O592 Co591 2.160 . S
C593 O594 1.278 . S
C593 O601 1.224 . S
O594 C593 1.278 . S
C595 O596 1.245 . S
C595 O607 1.232 . S
O596 C595 1.245 . S
O597 Co591 2.058 . S
O597 C623 1.269 . S
O598 Co590 2.074 . S
O598 C623 1.257 . S
H599 C624 0.930 . S
H600 C630 0.930 . S
O601 Co590 2.093 . S
O601 C593 1.224 . S
H602 C634 0.929 . S
H603 C636 0.930 . S
H604 C637 0.930 . S
H605 C635 0.929 . S
H606 C638 0.928 . S
O607 Co591 2.057 . S
O607 C595 1.232 . S
H608 C627 0.929 . S
H609 C628 0.929 . S
H610 C640 0.931 . S
H611 C632 0.929 . S
H612 C641 0.930 . S
H613 C633 0.931 . S
O614 Co590 2.097 . S
O614 C642 1.214 . S
H615 C643 0.929 . S
H616 C644 0.929 . S
H617 C645 0.930 . S
H618 C646 0.929 . S
H619 C648 0.930 . S
H620 C625 0.930 . S
H621 C629 0.930 . S
O622 Co591 2.037 . S
O622 C642 1.234 . S
C623 O597 1.269 . S
C623 O598 1.257 . S
C624 H599 0.930 . S
C624 C627 1.388 . S
C624 C629 1.418 . S
C625 H620 0.930 . S
C625 C628 1.404 . S
C625 C629 1.353 . S
N626 Co591 2.145 . S
N626 C627 1.397 . S
N626 C628 1.334 . S
C627 H608 0.929 . S
C627 C624 1.388 . S
C627 N626 1.397 . S
C628 H609 0.929 . S
C628 C625 1.404 . S
C628 N626 1.334 . S
C629 H621 0.930 . S
C629 C624 1.418 . S
C629 C625 1.353 . S
C630 H600 0.930 . S
C630 N631 1.330 . S
C630 C632 1.446 . S
N631 Co590 2.151 . S
N631 C630 1.330 . S
N631 C635 1.418 . S
C632 H611 0.929 . S
C632 C630 1.446 . S
C632 C633 1.332 . S
C633 H613 0.931 . S
C633 C632 1.332 . S
C633 C634 1.267 . S
C634 H602 0.929 . S
C634 C633 1.267 . S
C634 C635 1.251 . S
C635 H605 0.929 . S
C635 N631 1.418 . S
C635 C634 1.251 . S
C636 H603 0.930 . S
C636 C638 1.406 . S
C636 C641 1.261 . S
C637 H604 0.930 . S
C637 N639 1.325 . S
C637 C640 1.357 . S
C638 H606 0.928 . S
C638 C636 1.406 . S
C638 N639 1.261 . S
N639 Co590 2.214 . S
N639 C637 1.325 . S
N639 C638 1.261 . S
C640 H610 0.931 . S
C640 C637 1.357 . S
C640 C641 1.312 . S
C641 H612 0.930 . S
C641 C636 1.261 . S
C641 C640 1.312 . S
C642 O614 1.214 . S
C642 O622 1.234 . S
C643 H615 0.929 . S
C643 C646 1.391 . S
C643 C648 1.391 . S
C644 H616 0.929 . S
C644 C645 1.390 . S
C644 N647 1.391 . S
C645 H617 0.930 . S
C645 C644 1.390 . S
C645 C646 1.392 . S
C646 H618 0.929 . S
C646 C643 1.391 . S
C646 C645 1.392 . S
N647 Co591 2.257 . S
N647 C644 1.391 . S
N647 C648 1.388 . S
C648 H619 0.930 . S
C648 C643 1.391 . S
C648 N647 1.388 . S
Co649 O651 2.143 . S
Co649 O657 2.074 . S
Co649 O660 2.093 . S
Co649 O673 2.097 . S
Co649 N690 2.151 . S
Co649 N698 2.214 . S
Co650 O651 2.160 . S
Co650 O656 2.058 . S
Co650 O666 2.057 . S
Co650 O681 2.037 . S
Co650 N685 2.145 . S
Co650 N706 2.257 . S
O651 Co649 2.143 . S
O651 Co650 2.160 . S
C652 O653 1.278 . S
C652 O660 1.224 . S
O653 C652 1.278 . S
C654 O655 1.245 . S
C654 O666 1.232 . S
O655 C654 1.245 . S
O656 Co650 2.058 . S
O656 C682 1.269 . S
O657 Co649 2.074 . S
O657 C682 1.257 . S
H658 C683 0.930 . S
H659 C689 0.930 . S
O660 Co649 2.093 . S
O660 C652 1.224 . S
H661 C693 0.929 . S
H662 C695 0.930 1_556 S
H663 C696 0.930 . S
H664 C694 0.929 . S
H665 C697 0.928 . S
O666 Co650 2.057 . S
O666 C654 1.232 . S
H667 C686 0.929 . S
H668 C687 0.929 . S
H669 C699 0.931 . S
H670 C691 0.929 . S
H671 C700 0.930 . S
H672 C692 0.931 . S
O673 Co649 2.097 . S
O673 C701 1.214 . S
H674 C702 0.929 . S
H675 C703 0.929 . S
H676 C704 0.930 . S
H677 C705 0.929 . S
H678 C707 0.930 . S
H679 C684 0.930 . S
H680 C688 0.930 . S
O681 Co650 2.037 . S
O681 C701 1.234 . S
C682 O656 1.269 . S
C682 O657 1.257 . S
C683 H658 0.930 . S
C683 C686 1.388 . S
C683 C688 1.418 . S
C684 H679 0.930 . S
C684 C687 1.404 . S
C684 C688 1.353 . S
N685 Co650 2.145 . S
N685 C686 1.397 . S
N685 C687 1.334 . S
C686 H667 0.929 . S
C686 C683 1.388 . S
C686 N685 1.397 . S
C687 H668 0.929 . S
C687 C684 1.404 . S
C687 N685 1.334 . S
C688 H680 0.930 . S
C688 C683 1.418 . S
C688 C684 1.353 . S
C689 H659 0.930 . S
C689 N690 1.330 . S
C689 C691 1.446 . S
N690 Co649 2.151 . S
N690 C689 1.330 . S
N690 C694 1.418 . S
C691 H670 0.929 . S
C691 C689 1.446 . S
C691 C692 1.332 . S
C692 H672 0.931 . S
C692 C691 1.332 . S
C692 C693 1.267 . S
C693 H661 0.929 . S
C693 C692 1.267 . S
C693 C694 1.251 . S
C694 H664 0.929 . S
C694 N690 1.418 . S
C694 C693 1.251 . S
C695 H662 0.930 1_554 S
C695 C697 1.406 . S
C695 C700 1.261 1_554 S
C696 H663 0.930 . S
C696 N698 1.325 . S
C696 C699 1.357 . S
C697 H665 0.928 . S
C697 C695 1.406 . S
C697 N698 1.261 . S
N698 Co649 2.214 . S
N698 C696 1.325 . S
N698 C697 1.261 . S
C699 H669 0.931 . S
C699 C696 1.357 . S
C699 C700 1.312 1_554 S
C700 H671 0.930 . S
C700 C695 1.261 1_556 S
C700 C699 1.312 1_556 S
C701 O673 1.214 . S
C701 O681 1.234 . S
C702 H674 0.929 . S
C702 C705 1.391 . S
C702 C707 1.391 . S
C703 H675 0.929 . S
C703 C704 1.390 . S
C703 N706 1.391 . S
C704 H676 0.930 . S
C704 C703 1.390 . S
C704 C705 1.392 . S
C705 H677 0.929 . S
C705 C702 1.391 . S
C705 C704 1.392 . S
N706 Co650 2.257 . S
N706 C703 1.391 . S
N706 C707 1.388 . S
C707 H678 0.930 . S
C707 C702 1.391 . S
C707 N706 1.388 . S
Co708 O710 2.143 . S
Co708 O716 2.074 . S
Co708 O719 2.093 . S
Co708 O732 2.097 . S
Co708 N749 2.151 . S
Co708 N757 2.214 . S
Co709 O710 2.160 . S
Co709 O715 2.058 . S
Co709 O725 2.057 . S
Co709 O740 2.037 . S
Co709 N744 2.145 . S
Co709 N765 2.257 . S
O710 Co708 2.143 . S
O710 Co709 2.160 . S
C711 O712 1.278 . S
C711 O719 1.224 . S
O712 C711 1.278 . S
C713 O714 1.245 . S
C713 O725 1.232 . S
O714 C713 1.245 . S
O715 Co709 2.058 . S
O715 C741 1.269 . S
O716 Co708 2.074 . S
O716 C741 1.257 . S
H717 C742 0.930 . S
H718 C748 0.930 . S
O719 Co708 2.093 . S
O719 C711 1.224 . S
H720 C752 0.929 . S
H721 C754 0.930 . S
H722 C755 0.930 . S
H723 C753 0.929 . S
H724 C756 0.928 . S
O725 Co709 2.057 . S
O725 C713 1.232 . S
H726 C745 0.929 . S
H727 C746 0.929 . S
H728 C758 0.931 . S
H729 C750 0.929 . S
H730 C759 0.930 . S
H731 C751 0.931 . S
O732 Co708 2.097 . S
O732 C760 1.214 . S
H733 C761 0.929 . S
H734 C762 0.929 . S
H735 C763 0.930 . S
H736 C764 0.929 . S
H737 C766 0.930 . S
H738 C743 0.930 . S
H739 C747 0.930 . S
O740 Co709 2.037 . S
O740 C760 1.234 . S
C741 O715 1.269 . S
C741 O716 1.257 . S
C742 H717 0.930 . S
C742 C745 1.388 . S
C742 C747 1.418 1_556 S
C743 H738 0.930 . S
C743 C746 1.404 1_554 S
C743 C747 1.353 . S
N744 Co709 2.145 . S
N744 C745 1.397 . S
N744 C746 1.334 . S
C745 H726 0.929 . S
C745 C742 1.388 . S
C745 N744 1.397 . S
C746 H727 0.929 . S
C746 C743 1.404 1_556 S
C746 N744 1.334 . S
C747 H739 0.930 . S
C747 C742 1.418 1_554 S
C747 C743 1.353 . S
C748 H718 0.930 . S
C748 N749 1.330 . S
C748 C750 1.446 . S
N749 Co708 2.151 . S
N749 C748 1.330 . S
N749 C753 1.418 . S
C750 H729 0.929 . S
C750 C748 1.446 . S
C750 C751 1.332 . S
C751 H731 0.931 . S
C751 C750 1.332 . S
C751 C752 1.267 . S
C752 H720 0.929 . S
C752 C751 1.267 . S
C752 C753 1.251 . S
C753 H723 0.929 . S
C753 N749 1.418 . S
C753 C752 1.251 . S
C754 H721 0.930 . S
C754 C756 1.406 . S
C754 C759 1.261 . S
C755 H722 0.930 . S
C755 N757 1.325 . S
C755 C758 1.357 . S
C756 H724 0.928 . S
C756 C754 1.406 . S
C756 N757 1.261 . S
N757 Co708 2.214 . S
N757 C755 1.325 . S
N757 C756 1.261 . S
C758 H728 0.931 . S
C758 C755 1.357 . S
C758 C759 1.312 . S
C759 H730 0.930 . S
C759 C754 1.261 . S
C759 C758 1.312 . S
C760 O732 1.214 . S
C760 O740 1.234 . S
C761 H733 0.929 . S
C761 C764 1.391 . S
C761 C766 1.391 . S
C762 H734 0.929 . S
C762 C763 1.390 . S
C762 N765 1.391 . S
C763 H735 0.930 . S
C763 C762 1.390 . S
C763 C764 1.392 . S
C764 H736 0.929 . S
C764 C761 1.391 . S
C764 C763 1.392 . S
N765 Co709 2.257 . S
N765 C762 1.391 . S
N765 C766 1.388 . S
C766 H737 0.930 . S
C766 C761 1.391 . S
C766 N765 1.388 . S
Co767 O769 2.143 . S
Co767 O775 2.074 . S
Co767 O778 2.093 . S
Co767 O791 2.097 . S
Co767 N808 2.151 . S
Co767 N816 2.214 . S
Co768 O769 2.160 . S
Co768 O774 2.058 . S
Co768 O784 2.057 . S
Co768 O799 2.037 . S
Co768 N803 2.145 . S
Co768 N824 2.257 . S
O769 Co767 2.143 . S
O769 Co768 2.160 . S
C770 O771 1.278 . S
C770 O778 1.224 . S
O771 C770 1.278 . S
C772 O773 1.245 . S
C772 O784 1.232 . S
O773 C772 1.245 . S
O774 Co768 2.058 . S
O774 C800 1.269 . S
O775 Co767 2.074 . S
O775 C800 1.257 . S
H776 C801 0.930 . S
H777 C807 0.930 . S
O778 Co767 2.093 . S
O778 C770 1.224 . S
H779 C811 0.929 . S
H780 C813 0.930 . S
H781 C814 0.930 . S
H782 C812 0.929 . S
H783 C815 0.928 . S
O784 Co768 2.057 . S
O784 C772 1.232 . S
H785 C804 0.929 . S
H786 C805 0.929 . S
H787 C817 0.931 . S
H788 C809 0.929 . S
H789 C818 0.930 . S
H790 C810 0.931 . S
O791 Co767 2.097 . S
O791 C819 1.214 . S
H792 C820 0.929 . S
H793 C821 0.929 . S
H794 C822 0.930 . S
H795 C823 0.929 . S
H796 C825 0.930 . S
H797 C802 0.930 . S
H798 C806 0.930 . S
O799 Co768 2.037 . S
O799 C819 1.234 . S
C800 O774 1.269 . S
C800 O775 1.257 . S
C801 H776 0.930 . S
C801 C804 1.388 . S
C801 C806 1.418 . S
C802 H797 0.930 . S
C802 C805 1.404 . S
C802 C806 1.353 . S
N803 Co768 2.145 . S
N803 C804 1.397 . S
N803 C805 1.334 . S
C804 H785 0.929 . S
C804 C801 1.388 . S
C804 N803 1.397 . S
C805 H786 0.929 . S
C805 C802 1.404 . S
C805 N803 1.334 . S
C806 H798 0.930 . S
C806 C801 1.418 . S
C806 C802 1.353 . S
C807 H777 0.930 . S
C807 N808 1.330 . S
C807 C809 1.446 . S
N808 Co767 2.151 . S
N808 C807 1.330 . S
N808 C812 1.418 . S
C809 H788 0.929 . S
C809 C807 1.446 . S
C809 C810 1.332 . S
C810 H790 0.931 . S
C810 C809 1.332 . S
C810 C811 1.267 . S
C811 H779 0.929 . S
C811 C810 1.267 . S
C811 C812 1.251 . S
C812 H782 0.929 . S
C812 N808 1.418 . S
C812 C811 1.251 . S
C813 H780 0.930 . S
C813 C815 1.406 . S
C813 C818 1.261 . S
C814 H781 0.930 . S
C814 N816 1.325 . S
C814 C817 1.357 . S
C815 H783 0.928 . S
C815 C813 1.406 . S
C815 N816 1.261 . S
N816 Co767 2.214 . S
N816 C814 1.325 . S
N816 C815 1.261 . S
C817 H787 0.931 . S
C817 C814 1.357 . S
C817 C818 1.312 . S
C818 H789 0.930 . S
C818 C813 1.261 . S
C818 C817 1.312 . S
C819 O791 1.214 . S
C819 O799 1.234 . S
C820 H792 0.929 . S
C820 C823 1.391 . S
C820 C825 1.391 . S
C821 H793 0.929 . S
C821 C822 1.390 . S
C821 N824 1.391 . S
C822 H794 0.930 . S
C822 C821 1.390 . S
C822 C823 1.392 . S
C823 H795 0.929 . S
C823 C820 1.391 . S
C823 C822 1.392 . S
N824 Co768 2.257 . S
N824 C821 1.391 . S
N824 C825 1.388 . S
C825 H796 0.930 . S
C825 C820 1.391 . S
C825 N824 1.388 . S
Co826 O828 2.143 . S
Co826 O834 2.074 . S
Co826 O837 2.093 . S
Co826 O850 2.097 . S
Co826 N867 2.151 . S
Co826 N875 2.214 . S
Co827 O828 2.160 . S
Co827 O833 2.058 . S
Co827 O843 2.057 . S
Co827 O858 2.037 . S
Co827 N862 2.145 . S
Co827 N883 2.257 . S
O828 Co826 2.143 . S
O828 Co827 2.160 . S
C829 O830 1.278 . S
C829 O837 1.224 . S
O830 C829 1.278 . S
C831 O832 1.245 . S
C831 O843 1.232 . S
O832 C831 1.245 . S
O833 Co827 2.058 . S
O833 C859 1.269 . S
O834 Co826 2.074 . S
O834 C859 1.257 . S
H835 C860 0.930 . S
H836 C866 0.930 . S
O837 Co826 2.093 . S
O837 C829 1.224 . S
H838 C870 0.929 . S
H839 C872 0.930 . S
H840 C873 0.930 . S
H841 C871 0.929 . S
H842 C874 0.928 . S
O843 Co827 2.057 . S
O843 C831 1.232 . S
H844 C863 0.929 . S
H845 C864 0.929 . S
H846 C876 0.931 . S
H847 C868 0.929 . S
H848 C877 0.930 . S
H849 C869 0.931 . S
O850 Co826 2.097 . S
O850 C878 1.214 . S
H851 C879 0.929 . S
H852 C880 0.929 . S
H853 C881 0.930 . S
H854 C882 0.929 . S
H855 C884 0.930 . S
H856 C861 0.930 . S
H857 C865 0.930 . S
O858 Co827 2.037 . S
O858 C878 1.234 . S
C859 O833 1.269 . S
C859 O834 1.257 . S
C860 H835 0.930 . S
C860 C863 1.388 . S
C860 C865 1.418 1_556 S
C861 H856 0.930 . S
C861 C864 1.404 1_554 S
C861 C865 1.353 . S
N862 Co827 2.145 . S
N862 C863 1.397 . S
N862 C864 1.334 . S
C863 H844 0.929 . S
C863 C860 1.388 . S
C863 N862 1.397 . S
C864 H845 0.929 . S
C864 C861 1.404 1_556 S
C864 N862 1.334 . S
C865 H857 0.930 . S
C865 C860 1.418 1_554 S
C865 C861 1.353 . S
C866 H836 0.930 . S
C866 N867 1.330 . S
C866 C868 1.446 . S
N867 Co826 2.151 . S
N867 C866 1.330 . S
N867 C871 1.418 . S
C868 H847 0.929 . S
C868 C866 1.446 . S
C868 C869 1.332 . S
C869 H849 0.931 . S
C869 C868 1.332 . S
C869 C870 1.267 . S
C870 H838 0.929 . S
C870 C869 1.267 . S
C870 C871 1.251 . S
C871 H841 0.929 . S
C871 N867 1.418 . S
C871 C870 1.251 . S
C872 H839 0.930 . S
C872 C874 1.406 . S
C872 C877 1.261 . S
C873 H840 0.930 . S
C873 N875 1.325 . S
C873 C876 1.357 . S
C874 H842 0.928 . S
C874 C872 1.406 . S
C874 N875 1.261 . S
N875 Co826 2.214 . S
N875 C873 1.325 . S
N875 C874 1.261 . S
C876 H846 0.931 . S
C876 C873 1.357 . S
C876 C877 1.312 . S
C877 H848 0.930 . S
C877 C872 1.261 . S
C877 C876 1.312 . S
C878 O850 1.214 . S
C878 O858 1.234 . S
C879 H851 0.929 . S
C879 C882 1.391 . S
C879 C884 1.391 . S
C880 H852 0.929 . S
C880 C881 1.390 . S
C880 N883 1.391 . S
C881 H853 0.930 . S
C881 C880 1.390 . S
C881 C882 1.392 . S
C882 H854 0.929 . S
C882 C879 1.391 . S
C882 C881 1.392 . S
N883 Co827 2.257 . S
N883 C880 1.391 . S
N883 C884 1.388 . S
C884 H855 0.930 . S
C884 C879 1.391 . S
C884 N883 1.388 . S
Co885 O887 2.143 . S
Co885 O893 2.074 . S
Co885 O896 2.093 . S
Co885 O909 2.097 . S
Co885 N926 2.151 . S
Co885 N934 2.214 . S
Co886 O887 2.160 . S
Co886 O892 2.058 . S
Co886 O902 2.057 . S
Co886 O917 2.037 . S
Co886 N921 2.145 . S
Co886 N942 2.257 . S
O887 Co885 2.143 . S
O887 Co886 2.160 . S
C888 O889 1.278 . S
C888 O896 1.224 . S
O889 C888 1.278 . S
C890 O891 1.245 . S
C890 O902 1.232 . S
O891 C890 1.245 . S
O892 Co886 2.058 . S
O892 C918 1.269 . S
O893 Co885 2.074 . S
O893 C918 1.257 . S
H894 C919 0.930 . S
H895 C925 0.930 . S
O896 Co885 2.093 . S
O896 C888 1.224 . S
H897 C929 0.929 . S
H898 C931 0.930 . S
H899 C932 0.930 . S
H900 C930 0.929 . S
H901 C933 0.928 . S
O902 Co886 2.057 . S
O902 C890 1.232 . S
H903 C922 0.929 . S
H904 C923 0.929 . S
H905 C935 0.931 . S
H906 C927 0.929 . S
H907 C936 0.930 . S
H908 C928 0.931 . S
O909 Co885 2.097 . S
O909 C937 1.214 . S
H910 C938 0.929 . S
H911 C939 0.929 . S
H912 C940 0.930 . S
H913 C941 0.929 . S
H914 C943 0.930 . S
H915 C920 0.930 . S
H916 C924 0.930 . S
O917 Co886 2.037 . S
O917 C937 1.234 . S
C918 O892 1.269 . S
C918 O893 1.257 . S
C919 H894 0.930 . S
C919 C922 1.388 . S
C919 C924 1.418 . S
C920 H915 0.930 . S
C920 C923 1.404 . S
C920 C924 1.353 . S
N921 Co886 2.145 . S
N921 C922 1.397 . S
N921 C923 1.334 . S
C922 H903 0.929 . S
C922 C919 1.388 . S
C922 N921 1.397 . S
C923 H904 0.929 . S
C923 C920 1.404 . S
C923 N921 1.334 . S
C924 H916 0.930 . S
C924 C919 1.418 . S
C924 C920 1.353 . S
C925 H895 0.930 . S
C925 N926 1.330 . S
C925 C927 1.446 . S
N926 Co885 2.151 . S
N926 C925 1.330 . S
N926 C930 1.418 . S
C927 H906 0.929 . S
C927 C925 1.446 . S
C927 C928 1.332 . S
C928 H908 0.931 . S
C928 C927 1.332 . S
C928 C929 1.267 . S
C929 H897 0.929 . S
C929 C928 1.267 . S
C929 C930 1.251 . S
C930 H900 0.929 . S
C930 N926 1.418 . S
C930 C929 1.251 . S
C931 H898 0.930 . S
C931 C933 1.406 . S
C931 C936 1.261 . S
C932 H899 0.930 . S
C932 N934 1.325 . S
C932 C935 1.357 . S
C933 H901 0.928 . S
C933 C931 1.406 . S
C933 N934 1.261 . S
N934 Co885 2.214 . S
N934 C932 1.325 . S
N934 C933 1.261 . S
C935 H905 0.931 . S
C935 C932 1.357 . S
C935 C936 1.312 . S
C936 H907 0.930 . S
C936 C931 1.261 . S
C936 C935 1.312 . S
C937 O909 1.214 . S
C937 O917 1.234 . S
C938 H910 0.929 . S
C938 C941 1.391 . S
C938 C943 1.391 . S
C939 H911 0.929 . S
C939 C940 1.390 . S
C939 N942 1.391 . S
C940 H912 0.930 . S
C940 C939 1.390 . S
C940 C941 1.392 . S
C941 H913 0.929 . S
C941 C938 1.391 . S
C941 C940 1.392 . S
N942 Co886 2.257 . S
N942 C939 1.391 . S
N942 C943 1.388 . S
C943 H914 0.930 . S
C943 C938 1.391 . S
C943 N942 1.388 . S
C944 C945 1.391 . S
C944 C946 1.394 . S
C944 H960 0.931 . S
C945 C944 1.391 . S
C945 C949 1.376 . S
C946 C944 1.394 . S
C946 C947 1.369 . S
C946 C950 1.531 . S
C947 C946 1.369 . S
C947 C948 1.410 . S
C947 C955 1.503 1_565 S
C948 C947 1.410 . S
C948 C949 1.392 . S
C948 C951 1.511 . S
C949 C945 1.376 . S
C949 C948 1.392 . S
C949 H961 0.929 . S
C950 C946 1.531 . S
C950 H962 0.960 1_565 S
C950 H963 0.962 . S
C950 H964 0.960 . S
C951 C948 1.511 . S
C951 H965 0.961 . S
C951 H966 0.961 . S
C951 H967 0.961 . S
C952 C953 1.370 . S
C952 C954 1.363 . S
C952 H968 0.931 . S
C953 C952 1.370 . S
C953 C957 1.408 . S
C954 C952 1.363 . S
C954 C955 1.370 . S
C954 C958 1.524 1_545 S
C955 C947 1.503 1_545 S
C955 C954 1.370 . S
C955 C956 1.403 . S
C956 C955 1.403 . S
C956 C957 1.404 . S
C956 C959 1.539 . S
C957 C953 1.408 . S
C957 C956 1.404 . S
C957 H969 0.930 . S
C958 C954 1.524 1_565 S
C958 H970 0.956 . S
C958 H971 0.961 . S
C958 H972 0.961 . S
C959 C956 1.539 . S
C959 H973 0.958 . S
C959 H974 0.961 . S
C959 H975 0.997 . S
H960 C944 0.931 . S
H961 C949 0.929 . S
H962 C950 0.960 1_545 S
H963 C950 0.962 . S
H964 C950 0.960 . S
H965 C951 0.961 . S
H966 C951 0.961 . S
H967 C951 0.961 . S
H968 C952 0.931 . S
H969 C957 0.930 . S
H970 C958 0.956 . S
H971 C958 0.961 . S
H972 C958 0.961 . S
H973 C959 0.958 . S
H974 C959 0.961 . S
H975 C959 0.997 . S
C976 C977 1.391 . S
C976 C978 1.394 . S
C976 H992 0.931 . S
C977 C976 1.391 . S
C977 C981 1.376 . S
C978 C976 1.394 . S
C978 C979 1.369 . S
C978 C982 1.531 1_455 S
C979 C978 1.369 . S
C979 C980 1.410 . S
C979 C987 1.503 1_455 S
C980 C979 1.410 . S
C980 C981 1.392 . S
C980 C983 1.511 . S
C981 C977 1.376 . S
C981 C980 1.392 . S
C981 H993 0.929 . S
C982 C978 1.531 1_655 S
C982 H994 0.960 . S
C982 H995 0.962 . S
C982 H996 0.960 . S
C983 C980 1.511 . S
C983 H997 0.961 . S
C983 H998 0.961 . S
C983 H999 0.961 . S
C984 C985 1.370 . S
C984 C986 1.363 . S
C984 H1000 0.931 . S
C985 C984 1.370 . S
C985 C989 1.408 . S
C986 C984 1.363 . S
C986 C987 1.370 . S
C986 C990 1.524 1_655 S
C987 C979 1.503 1_655 S
C987 C986 1.370 . S
C987 C988 1.403 . S
C988 C987 1.403 . S
C988 C989 1.404 . S
C988 C991 1.539 . S
C989 C985 1.408 . S
C989 C988 1.404 . S
C989 H1001 0.930 . S
C990 C986 1.524 1_455 S
C990 H1002 0.956 . S
C990 H1003 0.961 . S
C990 H1004 0.961 1_455 S
C991 C988 1.539 . S
C991 H1005 0.958 . S
C991 H1006 0.961 . S
C991 H1007 0.960 . S
H992 C976 0.931 . S
H993 C981 0.929 . S
H994 C982 0.960 . S
H995 C982 0.962 . S
H996 C982 0.960 . S
H997 C983 0.961 . S
H998 C983 0.961 . S
H999 C983 0.961 . S
H1000 C984 0.931 . S
H1001 C989 0.930 . S
H1002 C990 0.956 . S
H1003 C990 0.961 . S
H1004 C990 0.961 1_655 S
H1005 C991 0.958 . S
H1006 C991 0.961 . S
H1007 C991 0.960 . S
C1008 C1009 1.391 . S
C1008 C1010 1.394 . S
C1008 H1024 0.931 . S
C1009 C1008 1.391 . S
C1009 C1013 1.376 . S
C1010 C1008 1.394 . S
C1010 C1011 1.369 . S
C1010 C1014 1.531 1_565 S
C1011 C1010 1.369 . S
C1011 C1012 1.410 . S
C1011 C1019 1.503 1_565 S
C1012 C1011 1.410 . S
C1012 C1013 1.392 . S
C1012 C1015 1.511 . S
C1013 C1009 1.376 . S
C1013 C1012 1.392 . S
C1013 H1025 0.929 . S
C1014 C1010 1.531 1_545 S
C1014 H1026 0.960 . S
C1014 H1027 0.962 . S
C1014 H1028 0.960 . S
C1015 C1012 1.511 . S
C1015 H1029 0.961 . S
C1015 H1030 0.991 . S
C1015 H1031 0.961 . S
C1016 C1017 1.370 . S
C1016 C1018 1.363 . S
C1016 H1032 0.931 . S
C1017 C1016 1.370 . S
C1017 C1021 1.408 . S
C1018 C1016 1.363 . S
C1018 C1019 1.370 . S
C1018 C1022 1.524 . S
C1019 C1011 1.503 1_545 S
C1019 C1018 1.370 . S
C1019 C1020 1.403 . S
C1020 C1019 1.403 . S
C1020 C1021 1.404 . S
C1020 C1023 1.539 . S
C1021 C1017 1.408 . S
C1021 C1020 1.404 . S
C1021 H1033 0.930 . S
C1022 C1018 1.524 . S
C1022 H1034 0.956 . S
C1022 H1035 0.961 1_545 S
C1022 H1036 0.961 . S
C1023 C1020 1.539 . S
C1023 H1037 0.958 . S
C1023 H1038 0.961 . S
C1023 H1039 0.960 . S
H1024 C1008 0.931 . S
H1025 C1013 0.929 . S
H1026 C1014 0.960 . S
H1027 C1014 0.962 . S
H1028 C1014 0.960 . S
H1029 C1015 0.961 . S
H1030 C1015 0.991 . S
H1031 C1015 0.961 . S
H1032 C1016 0.931 . S
H1033 C1021 0.930 . S
H1034 C1022 0.956 . S
H1035 C1022 0.961 1_565 S
H1036 C1022 0.961 . S
H1037 C1023 0.958 . S
H1038 C1023 0.961 . S
H1039 C1023 0.960 . S
C1040 C1041 1.391 . S
C1040 C1042 1.394 . S
C1040 H1056 0.931 . S
C1041 C1040 1.391 . S
C1041 C1045 1.376 . S
C1042 C1040 1.394 . S
C1042 C1043 1.369 . S
C1042 C1046 1.531 . S
C1043 C1042 1.369 . S
C1043 C1044 1.410 . S
C1043 C1051 1.503 1_455 S
C1044 C1043 1.410 . S
C1044 C1045 1.392 . S
C1044 C1047 1.511 1_455 S
C1045 C1041 1.376 . S
C1045 C1044 1.392 . S
C1045 H1057 0.929 . S
C1046 C1042 1.531 . S
C1046 H1058 0.960 . S
C1046 H1059 0.962 . S
C1046 H1060 0.960 . S
C1047 C1044 1.511 1_655 S
C1047 H1061 0.961 . S
C1047 H1062 0.961 . S
C1047 H1063 0.961 . S
C1048 C1049 1.370 . S
C1048 C1050 1.363 . S
C1048 H1064 0.931 . S
C1049 C1048 1.370 . S
C1049 C1053 1.408 . S
C1050 C1048 1.363 . S
C1050 C1051 1.370 . S
C1050 C1054 1.524 . S
C1051 C1043 1.503 1_655 S
C1051 C1050 1.370 . S
C1051 C1052 1.403 . S
C1052 C1051 1.403 . S
C1052 C1053 1.404 . S
C1052 C1055 1.539 . S
C1053 C1049 1.408 . S
C1053 C1052 1.404 . S
C1053 H1065 0.930 . S
C1054 C1050 1.524 . S
C1054 H1066 0.928 1_655 S
C1054 H1067 0.961 . S
C1054 H1068 0.961 . S
C1055 C1052 1.539 . S
C1055 H1069 0.958 . S
C1055 H1070 0.961 . S
C1055 H1071 0.988 . S
H1056 C1040 0.931 . S
H1057 C1045 0.929 . S
H1058 C1046 0.960 . S
H1059 C1046 0.962 . S
H1060 C1046 0.960 . S
H1061 C1047 0.961 . S
H1062 C1047 0.961 . S
H1063 C1047 0.961 . S
H1064 C1048 0.931 . S
H1065 C1053 0.930 . S
H1066 C1054 0.928 1_455 S
H1067 C1054 0.961 . S
H1068 C1054 0.961 . S
H1069 C1055 0.958 . S
H1070 C1055 0.961 . S
H1071 C1055 0.988 . S
C1072 C1073 1.391 1_556 S
C1072 C1074 1.394 . S
C1072 H1088 0.931 . S
C1073 C1072 1.391 1_554 S
C1073 C1077 1.376 . S
C1074 C1072 1.394 . S
C1074 C1075 1.369 1_556 S
C1074 C1078 1.531 . S
C1075 C1074 1.369 1_554 S
C1075 C1076 1.410 . S
C1075 C1083 1.503 1_554 S
C1076 C1075 1.410 . S
C1076 C1077 1.392 . S
C1076 C1079 1.511 . S
C1077 C1073 1.376 . S
C1077 C1076 1.392 . S
C1077 H1089 0.929 . S
C1078 C1074 1.531 . S
C1078 H1090 0.960 . S
C1078 H1091 0.962 . S
C1078 H1092 0.960 . S
C1079 C1076 1.511 . S
C1079 H1093 0.961 . S
C1079 H1094 0.961 . S
C1079 H1095 0.961 . S
C1080 C1081 1.370 . S
C1080 C1082 1.363 . S
C1080 H1096 0.931 . S
C1081 C1080 1.370 . S
C1081 C1085 1.408 . S
C1082 C1080 1.363 . S
C1082 C1083 1.370 . S
C1082 C1086 1.524 . S
C1083 C1075 1.503 1_556 S
C1083 C1082 1.370 . S
C1083 C1084 1.403 . S
C1084 C1083 1.403 . S
C1084 C1085 1.404 . S
C1084 C1087 1.539 1_556 S
C1085 C1081 1.408 . S
C1085 C1084 1.404 . S
C1085 H1097 0.930 . S
C1086 C1082 1.524 . S
C1086 H1098 0.956 . S
C1086 H1099 0.961 . S
C1086 H1100 0.961 . S
C1087 C1084 1.539 1_554 S
C1087 H1101 0.958 1_554 S
C1087 H1102 0.961 . S
C1087 H1103 0.960 . S
H1088 C1072 0.931 . S
H1089 C1077 0.929 . S
H1090 C1078 0.960 . S
H1091 C1078 0.962 . S
H1092 C1078 0.960 . S
H1093 C1079 0.961 . S
H1094 C1079 0.961 . S
H1095 C1079 0.961 . S
H1096 C1080 0.931 . S
H1097 C1085 0.930 . S
H1098 C1086 0.956 . S
H1099 C1086 0.961 . S
H1100 C1086 0.961 . S
H1101 C1087 0.958 1_556 S
H1102 C1087 0.961 . S
H1103 C1087 0.960 . S
C1104 C1105 1.391 1_554 S
C1104 C1106 1.394 . S
C1104 H1120 0.931 . S
C1105 C1104 1.391 1_556 S
C1105 C1109 1.376 . S
C1106 C1104 1.394 . S
C1106 C1107 1.369 . S
C1106 C1110 1.531 . S
C1107 C1106 1.369 . S
C1107 C1108 1.410 1_554 S
C1107 C1115 1.503 . S
C1108 C1107 1.410 1_556 S
C1108 C1109 1.392 . S
C1108 C1111 1.511 . S
C1109 C1105 1.376 . S
C1109 C1108 1.392 . S
C1109 H1121 0.929 . S
C1110 C1106 1.531 . S
C1110 H1122 0.960 . S
C1110 H1123 0.962 . S
C1110 H1124 0.960 . S
C1111 C1108 1.511 . S
C1111 H1125 0.961 . S
C1111 H1126 0.961 . S
C1111 H1127 0.961 . S
C1112 C1113 1.370 . S
C1112 C1114 1.363 . S
C1112 H1128 0.931 . S
C1113 C1112 1.370 . S
C1113 C1117 1.408 . S
C1114 C1112 1.363 . S
C1114 C1115 1.370 . S
C1114 C1118 1.524 . S
C1115 C1107 1.503 . S
C1115 C1114 1.370 . S
C1115 C1116 1.403 . S
C1116 C1115 1.403 . S
C1116 C1117 1.404 . S
C1116 C1119 1.539 . S
C1117 C1113 1.408 . S
C1117 C1116 1.404 . S
C1117 H1129 0.930 . S
C1118 C1114 1.524 . S
C1118 H1130 0.956 . S
C1118 H1131 0.961 . S
C1118 H1132 0.961 . S
C1119 C1116 1.539 . S
C1119 H1133 0.958 . S
C1119 H1134 0.961 1_554 S
C1119 H1135 0.960 1_554 S
H1120 C1104 0.931 . S
H1121 C1109 0.929 . S
H1122 C1110 0.960 . S
H1123 C1110 0.962 . S
H1124 C1110 0.960 . S
H1125 C1111 0.961 . S
H1126 C1111 0.961 . S
H1127 C1111 0.961 . S
H1128 C1112 0.931 . S
H1129 C1117 0.930 . S
H1130 C1118 0.956 . S
H1131 C1118 0.961 . S
H1132 C1118 0.961 . S
H1133 C1119 0.958 . S
H1134 C1119 0.961 1_556 S
H1135 C1119 0.960 1_556 S
C1136 C1137 1.391 . S
C1136 C1138 1.394 . S
C1136 H1152 0.931 . S
C1137 C1136 1.391 . S
C1137 C1141 1.376 . S
C1138 C1136 1.394 . S
C1138 C1139 1.369 . S
C1138 C1142 1.531 . S
C1139 C1138 1.369 . S
C1139 C1140 1.410 1_556 S
C1139 C1147 1.503 1_556 S
C1140 C1139 1.410 1_554 S
C1140 C1141 1.392 1_554 S
C1140 C1143 1.511 . S
C1141 C1137 1.376 . S
C1141 C1140 1.392 1_556 S
C1141 H1153 0.929 1_556 S
C1142 C1138 1.531 . S
C1142 H1154 0.960 . S
C1142 H1155 0.962 . S
C1142 H1156 0.960 . S
C1143 C1140 1.511 . S
C1143 H1157 0.961 . S
C1143 H1158 0.961 . S
C1143 H1159 0.961 . S
C1144 C1145 1.370 . S
C1144 C1146 1.363 . S
C1144 H1160 0.931 . S
C1145 C1144 1.370 . S
C1145 C1149 1.408 . S
C1146 C1144 1.363 . S
C1146 C1147 1.370 . S
C1146 C1150 1.524 1_554 S
C1147 C1139 1.503 1_554 S
C1147 C1146 1.370 . S
C1147 C1148 1.403 . S
C1148 C1147 1.403 . S
C1148 C1149 1.404 . S
C1148 C1151 1.539 . S
C1149 C1145 1.408 . S
C1149 C1148 1.404 . S
C1149 H1161 0.930 . S
C1150 C1146 1.524 1_556 S
C1150 H1162 0.956 . S
C1150 H1163 0.961 1_556 S
C1150 H1164 0.961 . S
C1151 C1148 1.539 . S
C1151 H1165 0.958 1_554 S
C1151 H1166 0.961 . S
C1151 H1167 0.960 . S
H1152 C1136 0.931 . S
H1153 C1141 0.929 1_554 S
H1154 C1142 0.960 . S
H1155 C1142 0.962 . S
H1156 C1142 0.960 . S
H1157 C1143 0.961 . S
H1158 C1143 0.961 . S
H1159 C1143 0.961 . S
H1160 C1144 0.931 . S
H1161 C1149 0.930 . S
H1162 C1150 0.956 . S
H1163 C1150 0.961 1_554 S
H1164 C1150 0.961 . S
H1165 C1151 0.958 1_556 S
H1166 C1151 0.961 . S
H1167 C1151 0.960 . S
C1168 C1169 1.391 . S
C1168 C1170 1.394 . S
C1168 H1184 0.931 . S
C1169 C1168 1.391 . S
C1169 C1173 1.376 . S
C1170 C1168 1.394 . S
C1170 C1171 1.369 . S
C1170 C1174 1.531 . S
C1171 C1170 1.369 . S
C1171 C1172 1.410 . S
C1171 C1179 1.503 . S
C1172 C1171 1.410 . S
C1172 C1173 1.392 . S
C1172 C1175 1.511 . S
C1173 C1169 1.376 . S
C1173 C1172 1.392 . S
C1173 H1185 0.929 . S
C1174 C1170 1.531 . S
C1174 H1186 0.960 1_554 S
C1174 H1187 0.962 . S
C1174 H1188 0.960 1_554 S
C1175 C1172 1.511 . S
C1175 H1189 0.961 . S
C1175 H1190 0.961 . S
C1175 H1191 0.961 . S
C1176 C1177 1.370 1_554 S
C1176 C1178 1.363 . S
C1176 H1192 0.931 . S
C1177 C1176 1.370 1_556 S
C1177 C1181 1.408 . S
C1178 C1176 1.363 . S
C1178 C1179 1.370 . S
C1178 C1182 1.524 . S
C1179 C1171 1.503 . S
C1179 C1178 1.370 . S
C1179 C1180 1.403 1_554 S
C1180 C1179 1.403 1_556 S
C1180 C1181 1.404 . S
C1180 C1183 1.539 . S
C1181 C1177 1.408 . S
C1181 C1180 1.404 . S
C1181 H1193 0.930 . S
C1182 C1178 1.524 . S
C1182 H1194 0.956 . S
C1182 H1195 0.961 . S
C1182 H1196 0.961 . S
C1183 C1180 1.539 . S
C1183 H1197 0.958 . S
C1183 H1198 0.961 . S
C1183 H1199 0.960 . S
H1184 C1168 0.931 . S
H1185 C1173 0.929 . S
H1186 C1174 0.960 1_556 S
H1187 C1174 0.962 . S
H1188 C1174 0.960 1_556 S
H1189 C1175 0.961 . S
H1190 C1175 0.961 . S
H1191 C1175 0.961 . S
H1192 C1176 0.931 . S
H1193 C1181 0.930 . S
H1194 C1182 0.956 . S
H1195 C1182 0.961 . S
H1196 C1182 0.961 . S
H1197 C1183 0.958 . S
H1198 C1183 0.961 . S
H1199 C1183 0.960 . S
C1200 C1201 1.391 . S
C1200 C1202 1.394 . S
C1200 H1216 0.931 . S
C1201 C1200 1.391 . S
C1201 C1205 1.376 . S
C1202 C1200 1.394 . S
C1202 C1203 1.369 . S
C1202 C1206 1.531 . S
C1203 C1202 1.369 . S
C1203 C1204 1.410 . S
C1203 C1211 1.503 . S
C1204 C1203 1.410 . S
C1204 C1205 1.392 . S
C1204 C1207 1.511 . S
C1205 C1201 1.376 . S
C1205 C1204 1.392 . S
C1205 H1217 0.929 . S
C1206 C1202 1.531 . S
C1206 H1218 0.960 . S
C1206 H1219 0.962 . S
C1206 H1220 0.960 . S
C1207 C1204 1.511 . S
C1207 H1221 0.961 . S
C1207 H1222 0.961 . S
C1207 H1223 0.961 . S
C1208 C1209 1.370 . S
C1208 C1210 1.363 . S
C1208 H1224 0.931 . S
C1209 C1208 1.370 . S
C1209 C1213 1.408 . S
C1210 C1208 1.363 . S
C1210 C1211 1.370 . S
C1210 C1214 1.524 . S
C1211 C1203 1.503 . S
C1211 C1210 1.370 . S
C1211 C1212 1.403 . S
C1212 C1211 1.403 . S
C1212 C1213 1.404 . S
C1212 C1215 1.539 . S
C1213 C1209 1.408 . S
C1213 C1212 1.404 . S
C1213 H1225 0.930 . S
C1214 C1210 1.524 . S
C1214 H1226 0.956 . S
C1214 H1227 0.961 . S
C1214 H1228 0.961 . S
C1215 C1212 1.539 . S
C1215 H1229 0.958 . S
C1215 H1230 0.961 . S
C1215 H1231 0.960 . S
H1216 C1200 0.931 . S
H1217 C1205 0.929 . S
H1218 C1206 0.960 . S
H1219 C1206 0.962 . S
H1220 C1206 0.960 . S
H1221 C1207 0.961 . S
H1222 C1207 0.961 . S
H1223 C1207 0.961 . S
H1224 C1208 0.931 . S
H1225 C1213 0.930 . S
H1226 C1214 0.956 . S
H1227 C1214 0.961 . S
H1228 C1214 0.961 . S
H1229 C1215 0.958 . S
H1230 C1215 0.961 . S
H1231 C1215 0.960 . S
C1232 C1233 1.391 . S
C1232 C1234 1.394 . S
C1232 H1248 0.931 . S
C1233 C1232 1.391 . S
C1233 C1237 1.376 . S
C1234 C1232 1.394 . S
C1234 C1235 1.369 . S
C1234 C1238 1.531 . S
C1235 C1234 1.369 . S
C1235 C1236 1.410 . S
C1235 C1243 1.503 . S
C1236 C1235 1.410 . S
C1236 C1237 1.392 . S
C1236 C1239 1.511 . S
C1237 C1233 1.376 . S
C1237 C1236 1.392 . S
C1237 H1249 0.929 . S
C1238 C1234 1.531 . S
C1238 H1250 0.960 . S
C1238 H1251 0.962 . S
C1238 H1252 0.960 . S
C1239 C1236 1.511 . S
C1239 H1253 0.961 . S
C1239 H1254 0.961 . S
C1239 H1255 0.961 . S
C1240 C1241 1.370 . S
C1240 C1242 1.363 . S
C1240 H1256 0.931 . S
C1241 C1240 1.370 . S
C1241 C1245 1.408 . S
C1242 C1240 1.363 . S
C1242 C1243 1.370 . S
C1242 C1246 1.524 . S
C1243 C1235 1.503 . S
C1243 C1242 1.370 . S
C1243 C1244 1.403 . S
C1244 C1243 1.403 . S
C1244 C1245 1.404 . S
C1244 C1247 1.530 1_554 S
C1245 C1241 1.408 . S
C1245 C1244 1.404 . S
C1245 H1257 0.930 1_554 S
C1246 C1242 1.524 . S
C1246 H1258 0.956 . S
C1246 H1259 0.961 . S
C1246 H1260 0.961 . S
C1247 C1244 1.530 1_556 S
C1247 H1261 0.958 . S
C1247 H1262 0.975 . S
C1247 H1263 0.955 1_556 S
H1248 C1232 0.931 . S
H1249 C1237 0.929 . S
H1250 C1238 0.960 . S
H1251 C1238 0.962 . S
H1252 C1238 0.960 . S
H1253 C1239 0.961 . S
H1254 C1239 0.961 . S
H1255 C1239 0.961 . S
H1256 C1240 0.931 . S
H1257 C1245 0.930 1_556 S
H1258 C1246 0.956 . S
H1259 C1246 0.961 . S
H1260 C1246 0.961 . S
H1261 C1247 0.958 . S
H1262 C1247 0.975 . S
H1263 C1247 0.955 1_554 S
C1264 C1265 1.391 . S
C1264 C1266 1.394 . S
C1264 H1280 0.931 . S
C1265 C1264 1.391 . S
C1265 C1269 1.376 . S
C1266 C1264 1.394 . S
C1266 C1267 1.369 . S
C1266 C1270 1.531 . S
C1267 C1266 1.369 . S
C1267 C1268 1.410 . S
C1267 C1275 1.503 . S
C1268 C1267 1.410 . S
C1268 C1269 1.392 . S
C1268 C1271 1.511 . S
C1269 C1265 1.376 . S
C1269 C1268 1.392 . S
C1269 H1281 0.929 . S
C1270 C1266 1.531 . S
C1270 H1282 0.960 . S
C1270 H1283 0.962 . S
C1270 H1284 0.960 . S
C1271 C1268 1.511 . S
C1271 H1285 0.961 . S
C1271 H1286 0.961 . S
C1271 H1287 0.961 . S
C1272 C1273 1.370 . S
C1272 C1274 1.363 . S
C1272 H1288 0.931 . S
C1273 C1272 1.370 . S
C1273 C1277 1.408 . S
C1274 C1272 1.363 . S
C1274 C1275 1.370 . S
C1274 C1278 1.524 . S
C1275 C1267 1.503 . S
C1275 C1274 1.370 . S
C1275 C1276 1.403 . S
C1276 C1275 1.403 . S
C1276 C1277 1.404 . S
C1276 C1279 1.539 . S
C1277 C1273 1.408 . S
C1277 C1276 1.404 . S
C1277 H1289 0.930 . S
C1278 C1274 1.524 . S
C1278 H1290 0.956 . S
C1278 H1291 0.961 . S
C1278 H1292 0.961 . S
C1279 C1276 1.539 . S
C1279 H1293 0.958 . S
C1279 H1294 0.961 . S
C1279 H1295 0.960 . S
H1280 C1264 0.931 . S
H1281 C1269 0.929 . S
H1282 C1270 0.960 . S
H1283 C1270 0.962 . S
H1284 C1270 0.960 . S
H1285 C1271 0.961 . S
H1286 C1271 0.961 . S
H1287 C1271 0.961 . S
H1288 C1272 0.931 . S
H1289 C1277 0.930 . S
H1290 C1278 0.956 . S
H1291 C1278 0.961 . S
H1292 C1278 0.961 . S
H1293 C1279 0.958 . S
H1294 C1279 0.961 . S
H1295 C1279 0.960 . S
C1296 C1297 1.391 . S
C1296 C1298 1.394 . S
C1296 H1312 0.931 . S
C1297 C1296 1.391 . S
C1297 C1301 1.376 . S
C1298 C1296 1.394 . S
C1298 C1299 1.369 . S
C1298 C1302 1.531 . S
C1299 C1298 1.369 . S
C1299 C1300 1.410 . S
C1299 C1307 1.503 . S
C1300 C1299 1.410 . S
C1300 C1301 1.392 . S
C1300 C1303 1.511 . S
C1301 C1297 1.376 . S
C1301 C1300 1.392 . S
C1301 H1313 0.929 . S
C1302 C1298 1.531 . S
C1302 H1314 0.960 . S
C1302 H1315 0.962 . S
C1302 H1316 0.960 . S
C1303 C1300 1.511 . S
C1303 H1317 0.961 . S
C1303 H1318 0.961 . S
C1303 H1319 0.961 . S
C1304 C1305 1.370 . S
C1304 C1306 1.363 . S
C1304 H1320 0.931 . S
C1305 C1304 1.370 . S
C1305 C1309 1.408 . S
C1306 C1304 1.363 . S
C1306 C1307 1.370 . S
C1306 C1310 1.524 . S
C1307 C1299 1.503 . S
C1307 C1306 1.370 . S
C1307 C1308 1.403 . S
C1308 C1307 1.403 . S
C1308 C1309 1.404 . S
C1308 C1311 1.539 . S
C1309 C1305 1.408 . S
C1309 C1308 1.404 . S
C1309 H1321 0.930 . S
C1310 C1306 1.524 . S
C1310 H1322 0.956 . S
C1310 H1323 0.961 . S
C1310 H1324 0.961 . S
C1311 C1308 1.539 . S
C1311 H1325 0.958 . S
C1311 H1326 0.961 . S
C1311 H1327 0.960 . S
H1312 C1296 0.931 . S
H1313 C1301 0.929 . S
H1314 C1302 0.960 . S
H1315 C1302 0.962 . S
H1316 C1302 0.960 . S
H1317 C1303 0.961 . S
H1318 C1303 0.961 . S
H1319 C1303 0.961 . S
H1320 C1304 0.931 . S
H1321 C1309 0.930 . S
H1322 C1310 0.956 . S
H1323 C1310 0.961 . S
H1324 C1310 0.961 . S
H1325 C1311 0.958 . S
H1326 C1311 0.961 . S
H1327 C1311 0.960 . S
C1328 C1329 1.391 . S
C1328 C1330 1.394 . S
C1328 H1344 0.931 . S
C1329 C1328 1.391 . S
C1329 C1333 1.376 . S
C1330 C1328 1.394 . S
C1330 C1331 1.369 . S
C1330 C1334 1.531 1_565 S
C1331 C1330 1.369 . S
C1331 C1332 1.410 . S
C1331 C1339 1.503 1_565 S
C1332 C1331 1.410 . S
C1332 C1333 1.392 . S
C1332 C1335 1.511 . S
C1333 C1329 1.376 . S
C1333 C1332 1.392 . S
C1333 H1345 0.929 . S
C1334 C1330 1.531 1_545 S
C1334 H1346 0.960 . S
C1334 H1347 0.962 . S
C1334 H1348 0.960 1_545 S
C1335 C1332 1.511 . S
C1335 H1349 0.961 . S
C1335 H1350 0.961 1_565 S
C1335 H1351 0.961 . S
C1336 C1337 1.370 . S
C1336 C1338 1.363 . S
C1336 H1352 0.931 . S
C1337 C1336 1.370 . S
C1337 C1341 1.408 . S
C1338 C1336 1.363 . S
C1338 C1339 1.370 . S
C1338 C1342 1.524 . S
C1339 C1331 1.503 1_545 S
C1339 C1338 1.370 . S
C1339 C1340 1.403 . S
C1340 C1339 1.403 . S
C1340 C1341 1.404 . S
C1340 C1343 1.539 . S
C1341 C1337 1.408 . S
C1341 C1340 1.404 . S
C1341 H1353 0.930 . S
C1342 C1338 1.524 . S
C1342 H1354 0.956 . S
C1342 H1355 0.961 . S
C1342 H1356 0.961 . S
C1343 C1340 1.539 . S
C1343 H1357 0.958 . S
C1343 H1358 0.961 . S
C1343 H1359 0.960 1_545 S
H1344 C1328 0.931 . S
H1345 C1333 0.929 . S
H1346 C1334 0.960 . S
H1347 C1334 0.962 . S
H1348 C1334 0.960 1_565 S
H1349 C1335 0.961 . S
H1350 C1335 0.961 1_545 S
H1351 C1335 0.961 . S
H1352 C1336 0.931 . S
H1353 C1341 0.930 . S
H1354 C1342 0.956 . S
H1355 C1342 0.961 . S
H1356 C1342 0.961 . S
H1357 C1343 0.958 . S
H1358 C1343 0.961 . S
H1359 C1343 0.960 1_565 S
C1360 C1361 1.391 . S
C1360 C1362 1.394 . S
C1360 H1376 0.931 . S
C1361 C1360 1.391 . S
C1361 C1365 1.376 . S
C1362 C1360 1.394 . S
C1362 C1363 1.369 . S
C1362 C1366 1.531 . S
C1363 C1362 1.369 . S
C1363 C1364 1.410 . S
C1363 C1371 1.503 1_655 S
C1364 C1363 1.410 . S
C1364 C1365 1.392 . S
C1364 C1367 1.514 . S
C1365 C1361 1.376 . S
C1365 C1364 1.392 . S
C1365 H1377 0.929 . S
C1366 C1362 1.531 . S
C1366 H1378 0.960 . S
C1366 H1379 0.962 . S
C1366 H1380 0.960 . S
C1367 C1364 1.514 . S
C1367 H1381 0.963 . S
C1367 H1382 0.959 1_655 S
C1367 H1383 0.958 1_655 S
C1368 C1369 1.370 . S
C1368 C1370 1.363 . S
C1368 H1384 0.931 . S
C1369 C1368 1.370 . S
C1369 C1373 1.408 . S
C1370 C1368 1.363 . S
C1370 C1371 1.370 . S
C1370 C1374 1.524 1_455 S
C1371 C1363 1.503 1_455 S
C1371 C1370 1.370 . S
C1371 C1372 1.403 . S
C1372 C1371 1.403 . S
C1372 C1373 1.404 . S
C1372 C1375 1.539 . S
C1373 C1369 1.408 . S
C1373 C1372 1.404 . S
C1373 H1385 0.930 . S
C1374 C1370 1.524 1_655 S
C1374 H1386 0.956 . S
C1374 H1387 0.961 . S
C1374 H1388 0.961 . S
C1375 C1372 1.539 . S
C1375 H1389 0.958 . S
C1375 H1390 0.961 . S
C1375 H1391 0.960 . S
H1376 C1360 0.931 . S
H1377 C1365 0.929 . S
H1378 C1366 0.960 . S
H1379 C1366 0.962 . S
H1380 C1366 0.960 . S
H1381 C1367 0.963 . S
H1382 C1367 0.959 1_455 S
H1383 C1367 0.958 1_455 S
H1384 C1368 0.931 . S
H1385 C1373 0.930 . S
H1386 C1374 0.956 . S
H1387 C1374 0.961 . S
H1388 C1374 0.961 . S
H1389 C1375 0.958 . S
H1390 C1375 0.961 . S
H1391 C1375 0.960 . S
C1392 C1393 1.391 . S
C1392 C1394 1.394 . S
C1392 H1408 0.931 . S
C1393 C1392 1.391 . S
C1393 C1397 1.376 . S
C1394 C1392 1.394 . S
C1394 C1395 1.369 . S
C1394 C1398 1.531 . S
C1395 C1394 1.369 . S
C1395 C1396 1.410 . S
C1395 C1403 1.503 1_565 S
C1396 C1395 1.410 . S
C1396 C1397 1.392 . S
C1396 C1399 1.511 . S
C1397 C1393 1.376 . S
C1397 C1396 1.392 . S
C1397 H1409 0.929 . S
C1398 C1394 1.531 . S
C1398 H1410 0.960 . S
C1398 H1411 0.962 . S
C1398 H1412 0.960 . S
C1399 C1396 1.511 . S
C1399 H1413 0.961 . S
C1399 H1414 0.961 . S
C1399 H1415 0.961 . S
C1400 C1401 1.370 . S
C1400 C1402 1.363 . S
C1400 H1416 0.931 . S
C1401 C1400 1.370 . S
C1401 C1405 1.408 . S
C1402 C1400 1.363 . S
C1402 C1403 1.370 . S
C1402 C1406 1.524 . S
C1403 C1395 1.503 1_545 S
C1403 C1402 1.370 . S
C1403 C1404 1.403 . S
C1404 C1403 1.403 . S
C1404 C1405 1.404 . S
C1404 C1407 1.539 1_545 S
C1405 C1401 1.408 . S
C1405 C1404 1.404 . S
C1405 H1417 0.930 . S
C1406 C1402 1.524 . S
C1406 H1418 0.956 . S
C1406 H1419 0.961 . S
C1406 H1420 0.961 . S
C1407 C1404 1.539 1_565 S
C1407 H1421 0.958 . S
C1407 H1422 0.961 . S
C1407 H1423 0.960 . S
H1408 C1392 0.931 . S
H1409 C1397 0.929 . S
H1410 C1398 0.960 . S
H1411 C1398 0.962 . S
H1412 C1398 0.960 . S
H1413 C1399 0.961 . S
H1414 C1399 0.961 . S
H1415 C1399 0.961 . S
H1416 C1400 0.931 . S
H1417 C1405 0.930 . S
H1418 C1406 0.956 . S
H1419 C1406 0.961 . S
H1420 C1406 0.961 . S
H1421 C1407 0.958 . S
H1422 C1407 0.961 . S
H1423 C1407 0.960 . S
C1424 C1425 1.391 . S
C1424 C1426 1.394 . S
C1424 H1440 0.931 . S
C1425 C1424 1.391 . S
C1425 C1429 1.376 . S
C1426 C1424 1.394 . S
C1426 C1427 1.369 . S
C1426 C1430 1.531 1_655 S
C1427 C1426 1.369 . S
C1427 C1428 1.410 . S
C1427 C1435 1.503 1_655 S
C1428 C1427 1.410 . S
C1428 C1429 1.392 . S
C1428 C1431 1.511 . S
C1429 C1425 1.376 . S
C1429 C1428 1.392 . S
C1429 H1441 0.929 . S
C1430 C1426 1.531 1_455 S
C1430 H1442 0.960 . S
C1430 H1443 0.962 . S
C1430 H1444 0.960 . S
C1431 C1428 1.511 . S
C1431 H1445 0.961 . S
C1431 H1446 0.961 . S
C1431 H1447 0.961 . S
C1432 C1433 1.370 . S
C1432 C1434 1.363 . S
C1432 H1448 0.931 . S
C1433 C1432 1.370 . S
C1433 C1437 1.408 . S
C1434 C1432 1.363 . S
C1434 C1435 1.370 . S
C1434 C1438 1.524 . S
C1435 C1427 1.503 1_455 S
C1435 C1434 1.370 . S
C1435 C1436 1.403 . S
C1436 C1435 1.403 . S
C1436 C1437 1.404 . S
C1436 C1439 1.539 . S
C1437 C1433 1.408 . S
C1437 C1436 1.404 . S
C1437 H1449 0.930 . S
C1438 C1434 1.524 . S
C1438 H1450 0.956 . S
C1438 H1451 0.961 1_455 S
C1438 H1452 0.961 . S
C1439 C1436 1.539 . S
C1439 H1453 0.958 . S
C1439 H1454 0.961 . S
C1439 H1455 0.960 . S
H1440 C1424 0.931 . S
H1441 C1429 0.929 . S
H1442 C1430 0.960 . S
H1443 C1430 0.962 . S
H1444 C1430 0.960 . S
H1445 C1431 0.961 . S
H1446 C1431 0.961 . S
H1447 C1431 0.961 . S
H1448 C1432 0.931 . S
H1449 C1437 0.930 . S
H1450 C1438 0.956 . S
H1451 C1438 0.961 1_655 S
H1452 C1438 0.961 . S
H1453 C1439 0.958 . S
H1454 C1439 0.961 . S
H1455 C1439 0.960 . S
C1456 C1457 1.391 . S
C1456 C1458 1.394 . S
C1456 H1472 0.931 . S
C1457 C1456 1.391 . S
C1457 C1461 1.376 . S
C1458 C1456 1.394 . S
C1458 C1459 1.369 . S
C1458 C1462 1.531 . S
C1459 C1458 1.369 . S
C1459 C1460 1.410 . S
C1459 C1467 1.503 . S
C1460 C1459 1.410 . S
C1460 C1461 1.392 . S
C1460 C1463 1.511 . S
C1461 C1457 1.376 . S
C1461 C1460 1.392 . S
C1461 H1473 0.929 . S
C1462 C1458 1.531 . S
C1462 H1474 0.960 . S
C1462 H1475 0.962 . S
C1462 H1476 0.960 . S
C1463 C1460 1.511 . S
C1463 H1477 0.961 1_554 S
C1463 H1478 0.961 . S
C1463 H1479 0.961 . S
C1464 C1465 1.370 . S
C1464 C1466 1.363 . S
C1464 H1480 0.931 . S
C1465 C1464 1.370 . S
C1465 C1469 1.408 . S
C1466 C1464 1.363 . S
C1466 C1467 1.370 . S
C1466 C1470 1.524 . S
C1467 C1459 1.503 . S
C1467 C1466 1.370 . S
C1467 C1468 1.403 . S
C1468 C1467 1.403 . S
C1468 C1469 1.404 . S
C1468 C1471 1.539 . S
C1469 C1465 1.408 . S
C1469 C1468 1.404 . S
C1469 H1481 0.930 . S
C1470 C1466 1.524 . S
C1470 H1482 0.956 . S
C1470 H1483 0.961 . S
C1470 H1484 0.961 . S
C1471 C1468 1.539 . S
C1471 H1485 0.958 . S
C1471 H1486 0.961 . S
C1471 H1487 0.960 . S
H1472 C1456 0.931 . S
H1473 C1461 0.929 . S
H1474 C1462 0.960 . S
H1475 C1462 0.962 . S
H1476 C1462 0.960 . S
H1477 C1463 0.961 1_556 S
H1478 C1463 0.961 . S
H1479 C1463 0.961 . S
H1480 C1464 0.931 . S
H1481 C1469 0.930 . S
H1482 C1470 0.956 . S
H1483 C1470 0.961 . S
H1484 C1470 0.961 . S
H1485 C1471 0.958 . S
H1486 C1471 0.961 . S
H1487 C1471 0.960 . S
C1488 C1489 1.391 . S
C1488 C1490 1.394 . S
C1488 H1504 0.931 . S
C1489 C1488 1.391 . S
C1489 C1493 1.376 . S
C1490 C1488 1.394 . S
C1490 C1491 1.369 . S
C1490 C1494 1.531 . S
C1491 C1490 1.369 . S
C1491 C1492 1.410 . S
C1491 C1499 1.503 . S
C1492 C1491 1.410 . S
C1492 C1493 1.392 . S
C1492 C1495 1.511 . S
C1493 C1489 1.376 . S
C1493 C1492 1.392 . S
C1493 H1505 0.929 . S
C1494 C1490 1.531 . S
C1494 H1506 0.960 . S
C1494 H1507 0.962 . S
C1494 H1508 0.960 . S
C1495 C1492 1.511 . S
C1495 H1509 0.961 . S
C1495 H1510 0.961 . S
C1495 H1511 0.961 . S
C1496 C1497 1.370 . S
C1496 C1498 1.363 . S
C1496 H1512 0.931 . S
C1497 C1496 1.370 . S
C1497 C1501 1.408 . S
C1498 C1496 1.363 . S
C1498 C1499 1.370 . S
C1498 C1502 1.524 . S
C1499 C1491 1.503 . S
C1499 C1498 1.370 . S
C1499 C1500 1.403 . S
C1500 C1499 1.403 . S
C1500 C1501 1.404 . S
C1500 C1503 1.539 1_556 S
C1501 C1497 1.408 . S
C1501 C1500 1.404 . S
C1501 H1513 0.930 1_556 S
C1502 C1498 1.524 . S
C1502 H1514 0.956 . S
C1502 H1515 0.961 . S
C1502 H1516 0.961 . S
C1503 C1500 1.539 1_554 S
C1503 H1517 0.958 . S
C1503 H1518 0.961 . S
C1503 H1519 0.960 . S
H1504 C1488 0.931 . S
H1505 C1493 0.929 . S
H1506 C1494 0.960 . S
H1507 C1494 0.962 . S
H1508 C1494 0.960 . S
H1509 C1495 0.961 . S
H1510 C1495 0.961 . S
H1511 C1495 0.961 . S
H1512 C1496 0.931 . S
H1513 C1501 0.930 1_554 S
H1514 C1502 0.956 . S
H1515 C1502 0.961 . S
H1516 C1502 0.961 . S
H1517 C1503 0.958 . S
H1518 C1503 0.961 . S
H1519 C1503 0.960 . S
C1520 C1521 1.391 . S
C1520 C1522 1.394 . S
C1520 H1536 0.931 . S
C1521 C1520 1.391 . S
C1521 C1525 1.376 . S
C1522 C1520 1.394 . S
C1522 C1523 1.369 . S
C1522 C1526 1.531 . S
C1523 C1522 1.369 . S
C1523 C1524 1.410 . S
C1523 C1531 1.503 . S
C1524 C1523 1.410 . S
C1524 C1525 1.392 . S
C1524 C1527 1.511 . S
C1525 C1521 1.376 . S
C1525 C1524 1.392 . S
C1525 H1537 0.929 . S
C1526 C1522 1.531 . S
C1526 H1538 0.960 . S
C1526 H1539 0.962 . S
C1526 H1540 0.960 . S
C1527 C1524 1.511 . S
C1527 H1541 0.961 . S
C1527 H1542 0.961 . S
C1527 H1543 0.961 . S
C1528 C1529 1.370 . S
C1528 C1530 1.363 . S
C1528 H1544 0.931 . S
C1529 C1528 1.370 . S
C1529 C1533 1.408 . S
C1530 C1528 1.363 . S
C1530 C1531 1.370 . S
C1530 C1534 1.524 1_554 S
C1531 C1523 1.503 . S
C1531 C1530 1.370 . S
C1531 C1532 1.403 . S
C1532 C1531 1.403 . S
C1532 C1533 1.404 . S
C1532 C1535 1.539 . S
C1533 C1529 1.408 . S
C1533 C1532 1.404 . S
C1533 H1545 0.930 . S
C1534 C1530 1.524 1_556 S
C1534 H1546 0.956 1_556 S
C1534 H1547 0.961 . S
C1534 H1548 0.961 . S
C1535 C1532 1.539 . S
C1535 H1549 0.958 . S
C1535 H1550 0.961 . S
C1535 H1551 0.960 . S
H1536 C1520 0.931 . S
H1537 C1525 0.929 . S
H1538 C1526 0.960 . S
H1539 C1526 0.962 . S
H1540 C1526 0.960 . S
H1541 C1527 0.961 . S
H1542 C1527 0.961 . S
H1543 C1527 0.961 . S
H1544 C1528 0.931 . S
H1545 C1533 0.930 . S
H1546 C1534 0.956 1_554 S
H1547 C1534 0.961 . S
H1548 C1534 0.961 . S
H1549 C1535 0.958 . S
H1550 C1535 0.961 . S
H1551 C1535 0.960 . S
C1552 C1553 1.391 . S
C1552 C1554 1.394 . S
C1552 H1568 0.931 . S
C1553 C1552 1.391 . S
C1553 C1557 1.376 . S
C1554 C1552 1.394 . S
C1554 C1555 1.369 . S
C1554 C1558 1.531 . S
C1555 C1554 1.369 . S
C1555 C1556 1.410 . S
C1555 C1563 1.503 . S
C1556 C1555 1.410 . S
C1556 C1557 1.392 . S
C1556 C1559 1.511 . S
C1557 C1553 1.376 . S
C1557 C1556 1.392 . S
C1557 H1569 0.929 . S
C1558 C1554 1.531 . S
C1558 H1570 0.960 . S
C1558 H1571 0.962 . S
C1558 H1572 0.960 . S
C1559 C1556 1.511 . S
C1559 H1573 0.961 . S
C1559 H1574 0.961 . S
C1559 H1575 0.961 . S
C1560 C1561 1.370 . S
C1560 C1562 1.363 . S
C1560 H1576 0.931 . S
C1561 C1560 1.370 . S
C1561 C1565 1.408 . S
C1562 C1560 1.363 . S
C1562 C1563 1.370 . S
C1562 C1566 1.524 . S
C1563 C1555 1.503 . S
C1563 C1562 1.370 . S
C1563 C1564 1.403 . S
C1564 C1563 1.403 . S
C1564 C1565 1.404 . S
C1564 C1567 1.539 . S
C1565 C1561 1.408 . S
C1565 C1564 1.404 . S
C1565 H1577 0.930 . S
C1566 C1562 1.524 . S
C1566 H1578 0.956 . S
C1566 H1579 0.961 1_556 S
C1566 H1580 0.961 1_556 S
C1567 C1564 1.539 . S
C1567 H1581 0.958 . S
C1567 H1582 0.961 . S
C1567 H1583 0.960 . S
H1568 C1552 0.931 . S
H1569 C1557 0.929 . S
H1570 C1558 0.960 . S
H1571 C1558 0.962 . S
H1572 C1558 0.960 . S
H1573 C1559 0.961 . S
H1574 C1559 0.961 . S
H1575 C1559 0.961 . S
H1576 C1560 0.931 . S
H1577 C1565 0.930 . S
H1578 C1566 0.956 . S
H1579 C1566 0.961 1_554 S
H1580 C1566 0.961 1_554 S
H1581 C1567 0.958 . S
H1582 C1567 0.961 . S
H1583 C1567 0.960 . S
C1584 C1585 1.391 . S
C1584 C1586 1.394 . S
C1584 H1600 0.931 . S
C1585 C1584 1.391 . S
C1585 C1589 1.376 . S
C1586 C1584 1.394 . S
C1586 C1587 1.369 . S
C1586 C1590 1.531 . S
C1587 C1586 1.369 . S
C1587 C1588 1.410 . S
C1587 C1595 1.503 . S
C1588 C1587 1.410 . S
C1588 C1589 1.392 . S
C1588 C1591 1.511 . S
C1589 C1585 1.376 . S
C1589 C1588 1.392 . S
C1589 H1601 0.929 . S
C1590 C1586 1.531 . S
C1590 H1602 0.960 . S
C1590 H1603 0.962 . S
C1590 H1604 0.960 . S
C1591 C1588 1.511 . S
C1591 H1605 0.961 . S
C1591 H1606 0.961 . S
C1591 H1607 0.961 . S
C1592 C1593 1.370 . S
C1592 C1594 1.363 . S
C1592 H1608 0.931 . S
C1593 C1592 1.370 . S
C1593 C1597 1.408 . S
C1594 C1592 1.363 . S
C1594 C1595 1.370 . S
C1594 C1598 1.524 . S
C1595 C1587 1.503 . S
C1595 C1594 1.370 . S
C1595 C1596 1.403 . S
C1596 C1595 1.403 . S
C1596 C1597 1.404 . S
C1596 C1599 1.539 . S
C1597 C1593 1.408 . S
C1597 C1596 1.404 . S
C1597 H1609 0.930 . S
C1598 C1594 1.524 . S
C1598 H1610 0.956 . S
C1598 H1611 0.961 . S
C1598 H1612 0.961 . S
C1599 C1596 1.539 . S
C1599 H1613 0.958 . S
C1599 H1614 0.961 . S
C1599 H1615 0.960 . S
H1600 C1584 0.931 . S
H1601 C1589 0.929 . S
H1602 C1590 0.960 . S
H1603 C1590 0.962 . S
H1604 C1590 0.960 . S
H1605 C1591 0.961 . S
H1606 C1591 0.961 . S
H1607 C1591 0.961 . S
H1608 C1592 0.931 . S
H1609 C1597 0.930 . S
H1610 C1598 0.956 . S
H1611 C1598 0.961 . S
H1612 C1598 0.961 . S
H1613 C1599 0.958 . S
H1614 C1599 0.961 . S
H1615 C1599 0.960 . S
C1616 C1617 1.391 . S
C1616 C1618 1.394 . S
C1616 H1632 0.931 . S
C1617 C1616 1.391 . S
C1617 C1621 1.376 . S
C1618 C1616 1.394 . S
C1618 C1619 1.369 . S
C1618 C1622 1.531 . S
C1619 C1618 1.369 . S
C1619 C1620 1.410 . S
C1619 C1627 1.503 . S
C1620 C1619 1.410 . S
C1620 C1621 1.392 . S
C1620 C1623 1.511 . S
C1621 C1617 1.376 . S
C1621 C1620 1.392 . S
C1621 H1633 0.929 . S
C1622 C1618 1.531 . S
C1622 H1634 0.960 . S
C1622 H1635 0.962 . S
C1622 H1636 0.960 . S
C1623 C1620 1.511 . S
C1623 H1637 0.961 . S
C1623 H1638 0.961 . S
C1623 H1639 0.961 . S
C1624 C1625 1.370 . S
C1624 C1626 1.363 . S
C1624 H1640 0.931 . S
C1625 C1624 1.370 . S
C1625 C1629 1.408 . S
C1626 C1624 1.363 . S
C1626 C1627 1.370 . S
C1626 C1630 1.524 . S
C1627 C1619 1.503 . S
C1627 C1626 1.370 . S
C1627 C1628 1.403 . S
C1628 C1627 1.403 . S
C1628 C1629 1.404 . S
C1628 C1631 1.539 . S
C1629 C1625 1.408 . S
C1629 C1628 1.404 . S
C1629 H1641 0.930 . S
C1630 C1626 1.524 . S
C1630 H1642 0.956 . S
C1630 H1643 0.961 . S
C1630 H1644 0.961 . S
C1631 C1628 1.539 . S
C1631 H1645 0.958 . S
C1631 H1646 0.961 . S
C1631 H1647 0.960 . S
H1632 C1616 0.931 . S
H1633 C1621 0.929 . S
H1634 C1622 0.960 . S
H1635 C1622 0.962 . S
H1636 C1622 0.960 . S
H1637 C1623 0.961 . S
H1638 C1623 0.961 . S
H1639 C1623 0.961 . S
H1640 C1624 0.931 . S
H1641 C1629 0.930 . S
H1642 C1630 0.956 . S
H1643 C1630 0.961 . S
H1644 C1630 0.961 . S
H1645 C1631 0.958 . S
H1646 C1631 0.961 . S
H1647 C1631 0.960 . S
C1648 C1649 1.391 . S
C1648 C1650 1.394 . S
C1648 H1664 0.931 . S
C1649 C1648 1.391 . S
C1649 C1653 1.376 . S
C1650 C1648 1.394 . S
C1650 C1651 1.369 . S
C1650 C1654 1.531 . S
C1651 C1650 1.369 . S
C1651 C1652 1.410 . S
C1651 C1659 1.503 . S
C1652 C1651 1.410 . S
C1652 C1653 1.392 . S
C1652 C1655 1.511 . S
C1653 C1649 1.376 . S
C1653 C1652 1.392 . S
C1653 H1665 0.929 . S
C1654 C1650 1.531 . S
C1654 H1666 0.960 . S
C1654 H1667 0.962 . S
C1654 H1668 0.960 . S
C1655 C1652 1.511 . S
C1655 H1669 0.961 . S
C1655 H1670 0.961 . S
C1655 H1671 0.961 . S
C1656 C1657 1.370 . S
C1656 C1658 1.363 . S
C1656 H1672 0.931 . S
C1657 C1656 1.370 . S
C1657 C1661 1.408 . S
C1658 C1656 1.363 . S
C1658 C1659 1.370 . S
C1658 C1662 1.524 . S
C1659 C1651 1.503 . S
C1659 C1658 1.370 . S
C1659 C1660 1.403 . S
C1660 C1659 1.403 . S
C1660 C1661 1.404 . S
C1660 C1663 1.539 . S
C1661 C1657 1.408 . S
C1661 C1660 1.404 . S
C1661 H1673 0.930 . S
C1662 C1658 1.524 . S
C1662 H1674 0.956 . S
C1662 H1675 0.961 . S
C1662 H1676 0.961 . S
C1663 C1660 1.539 . S
C1663 H1677 0.958 . S
C1663 H1678 0.961 . S
C1663 H1679 0.960 . S
H1664 C1648 0.931 . S
H1665 C1653 0.929 . S
H1666 C1654 0.960 . S
H1667 C1654 0.962 . S
H1668 C1654 0.960 . S
H1669 C1655 0.961 . S
H1670 C1655 0.961 . S
H1671 C1655 0.961 . S
H1672 C1656 0.931 . S
H1673 C1661 0.930 . S
H1674 C1662 0.956 . S
H1675 C1662 0.961 . S
H1676 C1662 0.961 . S
H1677 C1663 0.958 . S
H1678 C1663 0.961 . S
H1679 C1663 0.960 . S
C1680 C1681 1.391 . S
C1680 C1682 1.394 . S
C1680 H1696 0.931 . S
C1681 C1680 1.391 . S
C1681 C1685 1.376 . S
C1682 C1680 1.394 . S
C1682 C1683 1.369 . S
C1682 C1686 1.531 . S
C1683 C1682 1.369 . S
C1683 C1684 1.410 . S
C1683 C1691 1.503 . S
C1684 C1683 1.410 . S
C1684 C1685 1.392 . S
C1684 C1687 1.511 . S
C1685 C1681 1.376 . S
C1685 C1684 1.392 . S
C1685 H1697 0.929 . S
C1686 C1682 1.531 . S
C1686 H1698 0.960 . S
C1686 H1699 0.962 . S
C1686 H1700 0.960 . S
C1687 C1684 1.511 . S
C1687 H1701 0.961 . S
C1687 H1702 0.961 . S
C1687 H1703 0.961 . S
C1688 C1689 1.370 . S
C1688 C1690 1.363 . S
C1688 H1704 0.931 . S
C1689 C1688 1.370 . S
C1689 C1693 1.408 . S
C1690 C1688 1.363 . S
C1690 C1691 1.370 . S
C1690 C1694 1.524 . S
C1691 C1683 1.503 . S
C1691 C1690 1.370 . S
C1691 C1692 1.403 . S
C1692 C1691 1.403 . S
C1692 C1693 1.404 . S
C1692 C1695 1.539 . S
C1693 C1689 1.408 . S
C1693 C1692 1.404 . S
C1693 H1705 0.930 . S
C1694 C1690 1.524 . S
C1694 H1706 0.956 . S
C1694 H1707 0.961 . S
C1694 H1708 0.961 . S
C1695 C1692 1.539 . S
C1695 H1709 0.958 . S
C1695 H1710 0.961 . S
C1695 H1711 0.960 . S
H1696 C1680 0.931 . S
H1697 C1685 0.929 . S
H1698 C1686 0.960 . S
H1699 C1686 0.962 . S
H1700 C1686 0.960 . S
H1701 C1687 0.961 . S
H1702 C1687 0.961 . S
H1703 C1687 0.961 . S
H1704 C1688 0.931 . S
H1705 C1693 0.930 . S
H1706 C1694 0.956 . S
H1707 C1694 0.961 . S
H1708 C1694 0.961 . S
H1709 C1695 0.958 . S
H1710 C1695 0.961 . S
H1711 C1695 0.960 . S
C1712 C1713 1.391 . S
C1712 C1714 1.394 . S
C1712 H1728 0.931 . S
C1713 C1712 1.391 . S
C1713 C1717 1.376 . S
C1714 C1712 1.394 . S
C1714 C1715 1.369 . S
C1714 C1718 1.531 . S
C1715 C1714 1.369 . S
C1715 C1716 1.410 . S
C1715 C1723 1.503 . S
C1716 C1715 1.410 . S
C1716 C1717 1.392 . S
C1716 C1719 1.511 . S
C1717 C1713 1.376 . S
C1717 C1716 1.392 . S
C1717 H1729 0.929 . S
C1718 C1714 1.531 . S
C1718 H1730 0.960 . S
C1718 H1731 0.962 1_556 S
C1718 H1732 0.960 . S
C1719 C1716 1.511 . S
C1719 H1733 0.961 . S
C1719 H1734 0.961 . S
C1719 H1735 0.961 . S
C1720 C1721 1.370 . S
C1720 C1722 1.363 . S
C1720 H1736 0.931 . S
C1721 C1720 1.370 . S
C1721 C1725 1.408 . S
C1722 C1720 1.363 . S
C1722 C1723 1.370 . S
C1722 C1726 1.524 . S
C1723 C1715 1.503 . S
C1723 C1722 1.370 . S
C1723 C1724 1.403 . S
C1724 C1723 1.403 . S
C1724 C1725 1.404 . S
C1724 C1727 1.539 . S
C1725 C1721 1.408 . S
C1725 C1724 1.404 . S
C1725 H1737 0.930 . S
C1726 C1722 1.524 . S
C1726 H1738 0.956 1_556 S
C1726 H1739 0.961 . S
C1726 H1740 0.961 1_556 S
C1727 C1724 1.539 . S
C1727 H1741 0.958 . S
C1727 H1742 0.961 . S
C1727 H1743 0.960 . S
H1728 C1712 0.931 . S
H1729 C1717 0.929 . S
H1730 C1718 0.960 . S
H1731 C1718 0.962 1_554 S
H1732 C1718 0.960 . S
H1733 C1719 0.961 . S
H1734 C1719 0.961 . S
H1735 C1719 0.961 . S
H1736 C1720 0.931 . S
H1737 C1725 0.930 . S
H1738 C1726 0.956 1_554 S
H1739 C1726 0.961 . S
H1740 C1726 0.961 1_554 S
H1741 C1727 0.958 . S
H1742 C1727 0.961 . S
H1743 C1727 0.960 . S
C1744 C1745 1.391 . S
C1744 C1746 1.394 . S
C1744 H1760 0.931 . S
C1745 C1744 1.391 . S
C1745 C1749 1.376 . S
C1746 C1744 1.394 . S
C1746 C1747 1.369 . S
C1746 C1750 1.531 . S
C1747 C1746 1.369 . S
C1747 C1748 1.410 . S
C1747 C1755 1.503 . S
C1748 C1747 1.410 . S
C1748 C1749 1.392 . S
C1748 C1751 1.511 1_554 S
C1749 C1745 1.376 . S
C1749 C1748 1.392 . S
C1749 H1761 0.929 . S
C1750 C1746 1.531 . S
C1750 H1762 0.960 . S
C1750 H1763 0.962 . S
C1750 H1764 0.960 . S
C1751 C1748 1.511 1_556 S
C1751 H1765 0.961 . S
C1751 H1766 0.961 . S
C1751 H1767 0.961 . S
C1752 C1753 1.370 . S
C1752 C1754 1.363 . S
C1752 H1768 0.931 . S
C1753 C1752 1.370 . S
C1753 C1757 1.408 . S
C1754 C1752 1.363 . S
C1754 C1755 1.370 . S
C1754 C1758 1.524 . S
C1755 C1747 1.503 . S
C1755 C1754 1.370 . S
C1755 C1756 1.403 . S
C1756 C1755 1.403 . S
C1756 C1757 1.404 . S
C1756 C1759 1.539 . S
C1757 C1753 1.408 . S
C1757 C1756 1.404 . S
C1757 H1769 0.930 . S
C1758 C1754 1.524 . S
C1758 H1770 0.956 . S
C1758 H1771 0.961 . S
C1758 H1772 0.961 . S
C1759 C1756 1.539 . S
C1759 H1773 0.958 . S
C1759 H1774 0.961 . S
C1759 H1775 0.960 . S
H1760 C1744 0.931 . S
H1761 C1749 0.929 . S
H1762 C1750 0.960 . S
H1763 C1750 0.962 . S
H1764 C1750 0.960 . S
H1765 C1751 0.961 . S
H1766 C1751 0.961 . S
H1767 C1751 0.961 . S
H1768 C1752 0.931 . S
H1769 C1757 0.930 . S
H1770 C1758 0.956 . S
H1771 C1758 0.961 . S
H1772 C1758 0.961 . S
H1773 C1759 0.958 . S
H1774 C1759 0.961 . S
H1775 C1759 0.960 . S
C1776 C1777 1.391 . S
C1776 C1778 1.394 . S
C1776 H1792 0.931 . S
C1777 C1776 1.391 . S
C1777 C1781 1.376 . S
C1778 C1776 1.394 . S
C1778 C1779 1.369 . S
C1778 C1782 1.531 . S
C1779 C1778 1.369 . S
C1779 C1780 1.410 . S
C1779 C1787 1.503 . S
C1780 C1779 1.410 . S
C1780 C1781 1.392 . S
C1780 C1783 1.511 1_556 S
C1781 C1777 1.376 . S
C1781 C1780 1.392 . S
C1781 H1793 0.929 . S
C1782 C1778 1.531 . S
C1782 H1794 0.960 . S
C1782 H1795 0.962 . S
C1782 H1796 0.960 . S
C1783 C1780 1.511 1_554 S
C1783 H1797 0.961 . S
C1783 H1798 0.961 1_554 S
C1783 H1799 0.961 . S
C1784 C1785 1.370 . S
C1784 C1786 1.363 . S
C1784 H1800 0.931 . S
C1785 C1784 1.370 . S
C1785 C1789 1.408 . S
C1786 C1784 1.363 . S
C1786 C1787 1.370 . S
C1786 C1790 1.524 . S
C1787 C1779 1.503 . S
C1787 C1786 1.370 . S
C1787 C1788 1.403 . S
C1788 C1787 1.403 . S
C1788 C1789 1.404 . S
C1788 C1791 1.539 . S
C1789 C1785 1.408 . S
C1789 C1788 1.404 . S
C1789 H1801 0.930 . S
C1790 C1786 1.524 . S
C1790 H1802 0.956 . S
C1790 H1803 0.961 . S
C1790 H1804 0.961 . S
C1791 C1788 1.539 . S
C1791 H1805 0.958 . S
C1791 H1806 0.961 1_556 S
C1791 H1807 0.960 . S
H1792 C1776 0.931 . S
H1793 C1781 0.929 . S
H1794 C1782 0.960 . S
H1795 C1782 0.962 . S
H1796 C1782 0.960 . S
H1797 C1783 0.961 . S
H1798 C1783 0.961 1_556 S
H1799 C1783 0.961 . S
H1800 C1784 0.931 . S
H1801 C1789 0.930 . S
H1802 C1790 0.956 . S
H1803 C1790 0.961 . S
H1804 C1790 0.961 . S
H1805 C1791 0.958 . S
H1806 C1791 0.961 1_554 S
H1807 C1791 0.960 . S
C1808 C1809 1.391 . S
C1808 C1810 1.394 . S
C1808 H1824 0.931 . S
C1809 C1808 1.391 . S
C1809 C1813 1.376 . S
C1810 C1808 1.394 . S
C1810 C1811 1.369 . S
C1810 C1814 1.531 . S
C1811 C1810 1.369 . S
C1811 C1812 1.410 . S
C1811 C1819 1.503 . S
C1812 C1811 1.410 . S
C1812 C1813 1.392 . S
C1812 C1815 1.511 . S
C1813 C1809 1.376 . S
C1813 C1812 1.392 . S
C1813 H1825 0.929 . S
C1814 C1810 1.531 . S
C1814 H1826 0.960 . S
C1814 H1827 0.962 . S
C1814 H1828 0.960 . S
C1815 C1812 1.511 . S
C1815 H1829 0.961 . S
C1815 H1830 0.961 . S
C1815 H1831 0.961 . S
C1816 C1817 1.370 . S
C1816 C1818 1.363 . S
C1816 H1832 0.931 . S
C1817 C1816 1.370 . S
C1817 C1821 1.408 1_554 S
C1818 C1816 1.363 . S
C1818 C1819 1.370 . S
C1818 C1822 1.524 . S
C1819 C1811 1.503 . S
C1819 C1818 1.370 . S
C1819 C1820 1.403 . S
C1820 C1819 1.403 . S
C1820 C1821 1.404 1_554 S
C1820 C1823 1.539 1_554 S
C1821 C1817 1.408 1_556 S
C1821 C1820 1.404 1_556 S
C1821 H1833 0.930 . S
C1822 C1818 1.524 . S
C1822 H1834 0.956 . S
C1822 H1835 0.961 . S
C1822 H1836 0.961 . S
C1823 C1820 1.539 1_556 S
C1823 H1837 0.958 . S
C1823 H1838 0.961 . S
C1823 H1839 0.960 . S
H1824 C1808 0.931 . S
H1825 C1813 0.929 . S
H1826 C1814 0.960 . S
H1827 C1814 0.962 . S
H1828 C1814 0.960 . S
H1829 C1815 0.961 . S
H1830 C1815 0.961 . S
H1831 C1815 0.961 . S
H1832 C1816 0.931 . S
H1833 C1821 0.930 . S
H1834 C1822 0.956 . S
H1835 C1822 0.961 . S
H1836 C1822 0.961 . S
H1837 C1823 0.958 . S
H1838 C1823 0.961 . S
H1839 C1823 0.960 . S
C1840 C1841 1.391 . S
C1840 C1842 1.394 . S
C1840 H1856 0.931 . S
C1841 C1840 1.391 . S
C1841 C1845 1.376 . S
C1842 C1840 1.394 . S
C1842 C1843 1.369 . S
C1842 C1846 1.531 . S
C1843 C1842 1.369 . S
C1843 C1844 1.410 . S
C1843 C1851 1.503 . S
C1844 C1843 1.410 . S
C1844 C1845 1.392 . S
C1844 C1847 1.511 . S
C1845 C1841 1.376 . S
C1845 C1844 1.392 . S
C1845 H1857 0.929 . S
C1846 C1842 1.531 . S
C1846 H1858 0.960 . S
C1846 H1859 0.962 . S
C1846 H1860 0.960 . S
C1847 C1844 1.511 . S
C1847 H1861 0.961 . S
C1847 H1862 0.961 . S
C1847 H1863 0.961 . S
C1848 C1849 1.370 . S
C1848 C1850 1.363 . S
C1848 H1864 0.931 . S
C1849 C1848 1.370 . S
C1849 C1853 1.408 . S
C1850 C1848 1.363 . S
C1850 C1851 1.370 . S
C1850 C1854 1.524 . S
C1851 C1843 1.503 . S
C1851 C1850 1.370 . S
C1851 C1852 1.403 . S
C1852 C1851 1.403 . S
C1852 C1853 1.404 . S
C1852 C1855 1.539 . S
C1853 C1849 1.408 . S
C1853 C1852 1.404 . S
C1853 H1865 0.930 . S
C1854 C1850 1.524 . S
C1854 H1866 0.956 . S
C1854 H1867 0.961 . S
C1854 H1868 0.961 . S
C1855 C1852 1.539 . S
C1855 H1869 0.958 . S
C1855 H1870 0.961 . S
C1855 H1871 0.960 . S
H1856 C1840 0.931 . S
H1857 C1845 0.929 . S
H1858 C1846 0.960 . S
H1859 C1846 0.962 . S
H1860 C1846 0.960 . S
H1861 C1847 0.961 . S
H1862 C1847 0.961 . S
H1863 C1847 0.961 . S
H1864 C1848 0.931 . S
H1865 C1853 0.930 . S
H1866 C1854 0.956 . S
H1867 C1854 0.961 . S
H1868 C1854 0.961 . S
H1869 C1855 0.958 . S
H1870 C1855 0.961 . S
H1871 C1855 0.960 . S
C1872 C1873 1.391 . S
C1872 C1874 1.394 . S
C1872 H1888 0.931 . S
C1873 C1872 1.391 . S
C1873 C1877 1.376 . S
C1874 C1872 1.394 . S
C1874 C1875 1.369 . S
C1874 C1878 1.531 . S
C1875 C1874 1.369 . S
C1875 C1876 1.410 . S
C1875 C1883 1.503 . S
C1876 C1875 1.410 . S
C1876 C1877 1.392 . S
C1876 C1879 1.511 . S
C1877 C1873 1.376 . S
C1877 C1876 1.392 . S
C1877 H1889 0.929 . S
C1878 C1874 1.531 . S
C1878 H1890 0.960 . S
C1878 H1891 0.962 . S
C1878 H1892 0.960 . S
C1879 C1876 1.511 . S
C1879 H1893 0.961 . S
C1879 H1894 0.961 . S
C1879 H1895 0.961 . S
C1880 C1881 1.370 . S
C1880 C1882 1.363 . S
C1880 H1896 0.931 . S
C1881 C1880 1.370 . S
C1881 C1885 1.408 . S
C1882 C1880 1.363 . S
C1882 C1883 1.370 . S
C1882 C1886 1.524 . S
C1883 C1875 1.503 . S
C1883 C1882 1.370 . S
C1883 C1884 1.403 . S
C1884 C1883 1.403 . S
C1884 C1885 1.404 . S
C1884 C1887 1.539 . S
C1885 C1881 1.408 . S
C1885 C1884 1.404 . S
C1885 H1897 0.930 . S
C1886 C1882 1.524 . S
C1886 H1898 0.956 . S
C1886 H1899 0.961 . S
C1886 H1900 0.961 . S
C1887 C1884 1.539 . S
C1887 H1901 0.958 . S
C1887 H1902 0.961 . S
C1887 H1903 0.960 . S
H1888 C1872 0.931 . S
H1889 C1877 0.929 . S
H1890 C1878 0.960 . S
H1891 C1878 0.962 . S
H1892 C1878 0.960 . S
H1893 C1879 0.961 . S
H1894 C1879 0.961 . S
H1895 C1879 0.961 . S
H1896 C1880 0.931 . S
H1897 C1885 0.930 . S
H1898 C1886 0.956 . S
H1899 C1886 0.961 . S
H1900 C1886 0.961 . S
H1901 C1887 0.958 . S
H1902 C1887 0.961 . S
H1903 C1887 0.960 . S
C1904 C1905 1.391 . S
C1904 C1906 1.394 . S
C1904 H1920 0.931 . S
C1905 C1904 1.391 . S
C1905 C1909 1.376 . S
C1906 C1904 1.394 . S
C1906 C1907 1.369 . S
C1906 C1910 1.531 . S
C1907 C1906 1.369 . S
C1907 C1908 1.410 . S
C1907 C1915 1.503 . S
C1908 C1907 1.410 . S
C1908 C1909 1.392 . S
C1908 C1911 1.511 . S
C1909 C1905 1.376 . S
C1909 C1908 1.392 . S
C1909 H1921 0.929 . S
C1910 C1906 1.531 . S
C1910 H1922 0.960 . S
C1910 H1923 0.962 . S
C1910 H1924 0.960 . S
C1911 C1908 1.511 . S
C1911 H1925 0.961 . S
C1911 H1926 0.961 . S
C1911 H1927 0.961 . S
C1912 C1913 1.370 . S
C1912 C1914 1.363 . S
C1912 H1928 0.931 . S
C1913 C1912 1.370 . S
C1913 C1917 1.408 . S
C1914 C1912 1.363 . S
C1914 C1915 1.370 . S
C1914 C1918 1.524 . S
C1915 C1907 1.503 . S
C1915 C1914 1.370 . S
C1915 C1916 1.403 . S
C1916 C1915 1.403 . S
C1916 C1917 1.404 . S
C1916 C1919 1.539 . S
C1917 C1913 1.408 . S
C1917 C1916 1.404 . S
C1917 H1929 0.930 . S
C1918 C1914 1.524 . S
C1918 H1930 0.956 . S
C1918 H1931 0.961 . S
C1918 H1932 0.961 . S
C1919 C1916 1.539 . S
C1919 H1933 0.958 . S
C1919 H1934 0.961 . S
C1919 H1935 0.960 . S
H1920 C1904 0.931 . S
H1921 C1909 0.929 . S
H1922 C1910 0.960 . S
H1923 C1910 0.962 . S
H1924 C1910 0.960 . S
H1925 C1911 0.961 . S
H1926 C1911 0.961 . S
H1927 C1911 0.961 . S
H1928 C1912 0.931 . S
H1929 C1917 0.930 . S
H1930 C1918 0.956 . S
H1931 C1918 0.961 . S
H1932 C1918 0.961 . S
H1933 C1919 0.958 . S
H1934 C1919 0.961 . S
H1935 C1919 0.960 . S
C1936 C1937 1.391 . S
C1936 C1938 1.394 . S
C1936 H1952 0.931 . S
C1937 C1936 1.391 . S
C1937 C1941 1.376 . S
C1938 C1936 1.394 . S
C1938 C1939 1.369 . S
C1938 C1942 1.531 . S
C1939 C1938 1.369 . S
C1939 C1940 1.410 . S
C1939 C1947 1.503 . S
C1940 C1939 1.410 . S
C1940 C1941 1.392 . S
C1940 C1943 1.511 . S
C1941 C1937 1.376 . S
C1941 C1940 1.392 . S
C1941 H1953 0.929 . S
C1942 C1938 1.531 . S
C1942 H1954 0.960 . S
C1942 H1955 0.962 . S
C1942 H1956 0.960 . S
C1943 C1940 1.511 . S
C1943 H1957 0.961 . S
C1943 H1958 0.961 . S
C1943 H1959 0.961 . S
C1944 C1945 1.370 . S
C1944 C1946 1.363 . S
C1944 H1960 0.931 . S
C1945 C1944 1.370 . S
C1945 C1949 1.408 . S
C1946 C1944 1.363 . S
C1946 C1947 1.370 . S
C1946 C1950 1.524 . S
C1947 C1939 1.503 . S
C1947 C1946 1.370 . S
C1947 C1948 1.403 . S
C1948 C1947 1.403 . S
C1948 C1949 1.404 . S
C1948 C1951 1.539 . S
C1949 C1945 1.408 . S
C1949 C1948 1.404 . S
C1949 H1961 0.930 . S
C1950 C1946 1.524 . S
C1950 H1962 0.956 . S
C1950 H1963 0.961 . S
C1950 H1964 0.961 . S
C1951 C1948 1.539 . S
C1951 H1965 0.958 . S
C1951 H1966 0.961 . S
C1951 H1967 0.960 . S
H1952 C1936 0.931 . S
H1953 C1941 0.929 . S
H1954 C1942 0.960 . S
H1955 C1942 0.962 . S
H1956 C1942 0.960 . S
H1957 C1943 0.961 . S
H1958 C1943 0.961 . S
H1959 C1943 0.961 . S
H1960 C1944 0.931 . S
H1961 C1949 0.930 . S
H1962 C1950 0.956 . S
H1963 C1950 0.961 . S
H1964 C1950 0.961 . S
H1965 C1951 0.958 . S
H1966 C1951 0.961 . S
H1967 C1951 0.960 . S
C945 C701 1.372 . S
C953 C3 1.341 . S
C977 C92 1.324 . S
C985 C524 1.291 . S
C1009 C121 1.333 . S
C1017 C583 1.353 . S
C1041 C642 1.274 . S
C1049 C210 1.315 . S
C1073 C239 1.370 . S
C1081 C347 1.343 . S
C1105 C328 1.303 . S
C1113 C406 1.283 . S
C1137 C465 1.363 . S
C1145 C357 1.341 . S
C1169 C288 1.261 . S
C1177 C446 1.315 . S
C1201 C229 1.373 . S
C1209 C475 1.345 . S
C1233 C564 1.327 . S
C1241 C52 1.306 . S
C1265 C111 1.329 . S
C1273 C593 1.355 . S
C1297 C682 1.307 . S
C1305 C170 1.292 . S
C1329 C711 1.329 . S
C1337 C819 1.363 . S
C1361 C800 1.306 . S
C1369 C878 1.280 . S
C1393 C937 1.326 . S
C1401 C829 1.358 . S
C1425 C760 1.306 . S
C1433 C918 1.326 . S
C1457 C269 1.460 . S
C1465 C33 1.474 . S
C1489 C62 1.243 . S
C1497 C298 1.273 . S
C1521 C151 1.479 . S
C1529 C387 1.463 . S
C1553 C416 1.235 . S
C1561 C180 1.268 . S
C1585 C505 1.472 . S
C1593 C741 1.465 . S
C1617 C770 1.240 . S
C1625 C534 1.256 . S
C1649 C623 1.469 . S
C1657 C859 1.466 . S
C1681 C888 1.238 . S
C1689 C652 1.257 . S
C1713 C831 1.665 . S
C1721 C5 1.700 . S
C1745 C890 1.268 . S
C1753 C64 1.251 . S
C1777 C123 1.669 . S
C1785 C713 1.699 . S
C1809 C772 1.281 . S
C1817 C182 1.242 . S
C1841 C595 1.712 . S
C1849 C241 1.676 . S
C1873 C654 1.247 . S
C1881 C300 1.260 . S
C1905 C359 1.690 . S
C1913 C477 1.692 . S
C1937 C536 1.238 . S
C1945 C418 1.258 . S
