# Generated by pormake.
# Topology swf, (7)-cn, num edge types: 1
# Building blocks:
#     Node 0, Type 0, BuildingBlock: NUHQUE_clean_sbu_2, # of connection points: 7
#     Node 1, Type 0, BuildingBlock: NUHQUE_clean_sbu_2, # of connection points: 7
#     Node 2, Type 0, BuildingBlock: NUHQUE_clean_sbu_2, # of connection points: 7
#     Node 3, Type 0, BuildingBlock: NUHQUE_clean_sbu_2, # of connection points: 7
#     Node 4, Type 0, BuildingBlock: NUHQUE_clean_sbu_2, # of connection points: 7
#     Node 5, Type 0, BuildingBlock: NUHQUE_clean_sbu_2, # of connection points: 7
#     Node 6, Type 0, BuildingBlock: NUHQUE_clean_sbu_2, # of connection points: 7
#     Node 7, Type 0, BuildingBlock: NUHQUE_clean_sbu_2, # of connection points: 7
#     Node 8, Type 0, BuildingBlock: NUHQUE_clean_sbu_2, # of connection points: 7
#     Node 9, Type 0, BuildingBlock: NUHQUE_clean_sbu_2, # of connection points: 7
#     Node 10, Type 0, BuildingBlock: NUHQUE_clean_sbu_2, # of connection points: 7
#     Node 11, Type 0, BuildingBlock: NUHQUE_clean_sbu_2, # of connection points: 7
#     Edge 12, Type (0, 0), BuildingBlock: MIFKUJ_clean_linker_0, # of connection points: 2
#     Edge 13, Type (0, 0), BuildingBlock: MIFKUJ_clean_linker_0, # of connection points: 2
#     Edge 14, Type (0, 0), BuildingBlock: MIFKUJ_clean_linker_0, # of connection points: 2
#     Edge 15, Type (0, 0), BuildingBlock: MIFKUJ_clean_linker_0, # of connection points: 2
#     Edge 16, Type (0, 0), BuildingBlock: MIFKUJ_clean_linker_0, # of connection points: 2
#     Edge 17, Type (0, 0), BuildingBlock: MIFKUJ_clean_linker_0, # of connection points: 2
#     Edge 18, Type (0, 0), BuildingBlock: MIFKUJ_clean_linker_0, # of connection points: 2
#     Edge 19, Type (0, 0), BuildingBlock: MIFKUJ_clean_linker_0, # of connection points: 2
#     Edge 20, Type (0, 0), BuildingBlock: MIFKUJ_clean_linker_0, # of connection points: 2
#     Edge 21, Type (0, 0), BuildingBlock: MIFKUJ_clean_linker_0, # of connection points: 2
#     Edge 22, Type (0, 0), BuildingBlock: MIFKUJ_clean_linker_0, # of connection points: 2
#     Edge 23, Type (0, 0), BuildingBlock: MIFKUJ_clean_linker_0, # of connection points: 2
#     Edge 24, Type (0, 0), BuildingBlock: MIFKUJ_clean_linker_0, # of connection points: 2
#     Edge 25, Type (0, 0), BuildingBlock: MIFKUJ_clean_linker_0, # of connection points: 2
#     Edge 26, Type (0, 0), BuildingBlock: MIFKUJ_clean_linker_0, # of connection points: 2
#     Edge 27, Type (0, 0), BuildingBlock: MIFKUJ_clean_linker_0, # of connection points: 2
#     Edge 28, Type (0, 0), BuildingBlock: MIFKUJ_clean_linker_0, # of connection points: 2
#     Edge 29, Type (0, 0), BuildingBlock: MIFKUJ_clean_linker_0, # of connection points: 2
#     Edge 30, Type (0, 0), BuildingBlock: MIFKUJ_clean_linker_0, # of connection points: 2
#     Edge 31, Type (0, 0), BuildingBlock: MIFKUJ_clean_linker_0, # of connection points: 2
#     Edge 32, Type (0, 0), BuildingBlock: MIFKUJ_clean_linker_0, # of connection points: 2
#     Edge 33, Type (0, 0), BuildingBlock: MIFKUJ_clean_linker_0, # of connection points: 2
#     Edge 34, Type (0, 0), BuildingBlock: MIFKUJ_clean_linker_0, # of connection points: 2
#     Edge 35, Type (0, 0), BuildingBlock: MIFKUJ_clean_linker_0, # of connection points: 2
#     Edge 36, Type (0, 0), BuildingBlock: MIFKUJ_clean_linker_0, # of connection points: 2
#     Edge 37, Type (0, 0), BuildingBlock: MIFKUJ_clean_linker_0, # of connection points: 2
#     Edge 38, Type (0, 0), BuildingBlock: MIFKUJ_clean_linker_0, # of connection points: 2
#     Edge 39, Type (0, 0), BuildingBlock: MIFKUJ_clean_linker_0, # of connection points: 2
#     Edge 40, Type (0, 0), BuildingBlock: MIFKUJ_clean_linker_0, # of connection points: 2
#     Edge 41, Type (0, 0), BuildingBlock: MIFKUJ_clean_linker_0, # of connection points: 2
#     Edge 42, Type (0, 0), BuildingBlock: MIFKUJ_clean_linker_0, # of connection points: 2
#     Edge 43, Type (0, 0), BuildingBlock: MIFKUJ_clean_linker_0, # of connection points: 2
#     Edge 44, Type (0, 0), BuildingBlock: MIFKUJ_clean_linker_0, # of connection points: 2
#     Edge 45, Type (0, 0), BuildingBlock: MIFKUJ_clean_linker_0, # of connection points: 2
#     Edge 46, Type (0, 0), BuildingBlock: MIFKUJ_clean_linker_0, # of connection points: 2
#     Edge 47, Type (0, 0), BuildingBlock: MIFKUJ_clean_linker_0, # of connection points: 2
#     Edge 48, Type (0, 0), BuildingBlock: MIFKUJ_clean_linker_0, # of connection points: 2
#     Edge 49, Type (0, 0), BuildingBlock: MIFKUJ_clean_linker_0, # of connection points: 2
#     Edge 50, Type (0, 0), BuildingBlock: MIFKUJ_clean_linker_0, # of connection points: 2
#     Edge 51, Type (0, 0), BuildingBlock: MIFKUJ_clean_linker_0, # of connection points: 2
#     Edge 52, Type (0, 0), BuildingBlock: MIFKUJ_clean_linker_0, # of connection points: 2
#     Edge 53, Type (0, 0), BuildingBlock: MIFKUJ_clean_linker_0, # of connection points: 2
# Relax obj value: 0.249
# Max RMSD: 0.208
# Mean RMSD: 0.208
data_MOF--net-swf--node1-NUHQUE_clean_sbu_2--edge1-MIFKUJ_clean_linker_0
_symmetry_space_group_name_H-M    P1
_symmetry_Int_Tables_number       1
_symmetry_cell_setting            triclinic
loop_
_symmetry_equiv_pos_as_xyz
'x, y, z'
_cell_length_a     83.242893
_cell_length_b     83.348789
_cell_length_c     27.86743
_cell_angle_alpha  89.893958
_cell_angle_beta   90.035073
_cell_angle_gamma 119.96634
loop_
_atom_site_label
_atom_site_type_symbol
_atom_site_fract_x
_atom_site_fract_y
_atom_site_fract_z
_atom_type_partial_charge
O0 O 0.53143 0.13341 0.9936 0.0
Tb1 Tb 0.50705 0.11335 0.03152 0.0
Eu2 Eu 0.46992 0.10889 0.07969 0.0
C3 C 0.53097 0.14578 0.96534 0.0
O4 O 0.51512 0.14498 0.95597 0.0
C5 C 0.46957 0.0872 0.98203 0.0
O6 O 0.44559 0.09055 0.12578 0.0
C7 C 0.46868 0.13808 0.05092 0.0
C8 C 0.445 0.09485 0.17072 0.0
O9 O 0.45782 0.11105 0.18688 0.0
C10 C 0.50843 0.12546 0.1342 0.0
C11 C 0.47249 0.15749 0.0564 0.0
C12 C 0.47394 0.16754 1.01428 0.0
C13 C 0.47569 0.18524 1.01641 0.0
C14 C 0.47616 0.19286 0.06162 0.0
C15 C 0.47511 0.18343 0.10451 0.0
C16 C 0.47299 0.16549 0.10162 0.0
O17 O 0.48639 0.10124 0.97391 0.0
O18 O 0.46144 0.08599 0.02362 0.0
O19 O 0.52122 0.09756 0.04034 0.0
O20 O 0.49624 0.08963 0.07948 0.0
C21 C 0.5096 0.08613 0.07204 0.0
O22 O 0.49068 0.11347 0.13865 0.0
O23 O 0.51448 0.13254 0.09141 0.0
O24 O 0.45608 0.12518 0.07872 0.0
O25 O 0.48215 0.13491 0.03858 0.0
H26 H 0.47341 0.1614 0.97964 0.0
H27 H 0.47668 0.20609 0.06347 0.0
H28 H 0.47174 0.15782 0.13416 0.0
O29 O 0.37109 0.49829 0.03981 0.0
Tb30 Tb 0.39697 0.49868 0.02459 0.0
Eu31 Eu 0.36492 0.4627 0.0792 0.0
C32 C 0.36386 0.5054 1.01076 0.0
O33 O 0.34914 0.50616 0.02414 0.0
C34 C 0.38712 0.45931 0.9838 0.0
O35 O 0.36637 0.44195 0.12753 0.0
C36 C 0.33076 0.45487 0.06366 0.0
C37 C 0.38227 0.44222 0.12909 0.0
O38 O 0.39592 0.45398 0.10157 0.0
C39 C 0.40034 0.49527 0.12933 0.0
C40 C 0.31605 0.46017 0.06691 0.0
C41 C 0.3081 0.46207 0.02395 0.0
C42 C 0.29294 0.46519 0.02464 0.0
C43 C 0.28583 0.46649 0.06926 0.0
C44 C 0.29346 0.46485 0.11279 0.0
C45 C 0.30852 0.46149 0.11135 0.0
O46 O 0.39531 0.47732 0.97738 0.0
O47 O 0.37574 0.45097 1.02039 0.0
O48 O 0.42006 0.52665 0.03671 0.0
O49 O 0.41495 0.51601 0.96669 0.0
C50 C 0.4264 0.52987 0.99308 0.0
O51 O 0.3821 0.48734 0.12932 0.0
O52 O 0.40821 0.49432 0.08975 0.0
O53 O 0.33603 0.44984 0.10268 0.0
O54 O 0.34424 0.46356 0.03236 0.0
H55 H 0.31361 0.46085 0.98979 0.0
H56 H 0.27367 0.46804 0.0702 0.0
H57 H 0.31428 0.45984 0.14462 0.0
O58 O 0.90063 0.40127 0.98611 0.0
Tb59 Tb 0.9172 0.39615 0.0361 0.0
Eu60 Eu 0.91633 0.36202 0.09189 0.0
C61 C 0.89049 0.38891 0.9537 0.0
O62 O 0.88989 0.37288 0.95203 0.0
C63 C 0.93756 0.37795 0.99227 0.0
O64 O 0.93233 0.35451 0.14236 0.0
C65 C 0.88568 0.33262 0.06533 0.0
C66 C 0.92667 0.34907 0.18639 0.0
O67 O 0.91033 0.34621 0.19991 0.0
C68 C 0.90481 0.38979 0.14066 0.0
C69 C 0.86613 0.317 0.06894 0.0
C70 C 0.85656 0.30869 0.02594 0.0
C71 C 0.83932 0.2921 0.02671 0.0
C72 C 0.83141 0.28427 0.07125 0.0
C73 C 0.84055 0.29203 0.11476 0.0
C74 C 0.85796 0.30858 0.1134 0.0
O75 O 0.92361 0.38069 0.98401 0.0
O76 O 0.93943 0.37295 0.03577 0.0
O77 O 0.93717 0.42567 0.02969 0.0
O78 O 0.94422 0.40855 0.07126 0.0
C79 C 0.95005 0.42528 0.05547 0.0
O80 O 0.91456 0.38146 0.14677 0.0
O81 O 0.89892 0.3905 0.0975 0.0
O82 O 0.89833 0.33216 0.09258 0.0
O83 O 0.8896 0.34951 0.05315 0.0
H84 H 0.86303 0.31461 0.99174 0.0
H85 H 0.81791 0.27182 0.07204 0.0
H86 H 0.86542 0.31444 0.14651 0.0
O87 O 0.49706 0.89167 0.9778 0.0
Tb88 Tb 0.5205 0.90607 0.02536 0.0
Eu89 Eu 0.55794 0.90865 0.07486 0.0
C90 C 0.48731 0.87347 0.97822 0.0
O91 O 0.49245 0.86413 1.00613 0.0
C92 C 0.55872 0.93106 0.97705 0.0
O93 O 0.57989 0.92747 0.12677 0.0
C94 C 0.56094 0.88029 0.04787 0.0
C95 C 0.57635 0.93955 0.14717 0.0
O96 O 0.56124 0.9397 0.13473 0.0
C97 C 0.51825 0.89173 0.12585 0.0
C98 C 0.55832 0.86127 0.0529 0.0
C99 C 0.55735 0.85157 1.01047 0.0
C100 C 0.55729 0.83464 1.01213 0.0
C101 C 0.55765 0.82721 0.05706 0.0
C102 C 0.55865 0.83646 0.10008 0.0
C103 C 0.55885 0.85354 0.09784 0.0
O104 O 0.5416 0.9176 0.96864 0.0
O105 O 0.56688 0.9316 1.01826 0.0
O106 O 0.50719 0.92149 0.04911 0.0
O107 O 0.53574 0.93173 0.06546 0.0
C108 C 0.52178 0.9344 0.07074 0.0
O109 O 0.53611 0.90283 0.13193 0.0
O110 O 0.51239 0.88558 0.08234 0.0
O111 O 0.5731 0.89361 0.07559 0.0
O112 O 0.54692 0.88252 0.03494 0.0
H113 H 0.55749 0.85765 0.97594 0.0
H114 H 0.55709 0.81394 0.05859 0.0
H115 H 0.56004 0.86104 0.13059 0.0
O116 O 0.62312 0.50412 0.95575 0.0
Tb117 Tb 0.62327 0.52435 1.00399 0.0
Eu118 Eu 0.66109 0.55707 0.06869 0.0
C119 C 0.63859 0.50662 0.93627 0.0
O120 O 0.65439 0.52167 0.94552 0.0
C121 C 0.64626 0.56395 0.96888 0.0
O122 O 0.66378 0.57782 0.12353 0.0
C123 C 0.6925 0.55887 0.04785 0.0
C124 C 0.64897 0.57941 0.129 0.0
O125 O 0.6344 0.56922 0.10207 0.0
C126 C 0.62906 0.51681 0.11254 0.0
C127 C 0.70856 0.55558 0.05141 0.0
C128 C 0.71734 0.55518 1.00842 0.0
C129 C 0.73382 0.55432 1.0092 0.0
C130 C 0.74105 0.5531 0.05367 0.0
C131 C 0.73252 0.55306 0.09728 0.0
C132 C 0.71634 0.55466 0.09591 0.0
O133 O 0.643 0.54718 0.96004 0.0
O134 O 0.65183 0.57076 1.01213 0.0
O135 O 0.5946 0.51418 0.98171 0.0
O136 O 0.60803 0.53809 0.02644 0.0
C137 C 0.59277 0.52697 1.00371 0.0
O138 O 0.64198 0.53417 0.12066 0.0
O139 O 0.624 0.51023 0.06887 0.0
O140 O 0.69094 0.56988 0.07896 0.0
O141 O 0.67659 0.54638 0.02879 0.0
H142 H 0.71179 0.55639 0.97427 0.0
H143 H 0.75371 0.55239 0.05428 0.0
H144 H 0.70983 0.55512 0.12912 0.0
O145 O 0.14116 0.64536 0.03537 0.0
Tb146 Tb 0.1158 0.6185 0.03339 0.0
Eu147 Eu 0.11898 0.65646 0.0713 0.0
C148 C 0.15708 0.64962 1.01518 0.0
O149 O 0.17167 0.66583 0.02427 0.0
C150 C 0.08909 0.63013 0.98466 0.0
O151 O 0.09658 0.65688 0.11468 0.0
C152 C 0.14599 0.69047 0.05673 0.0
C153 C 0.07991 0.64225 0.11431 0.0
O154 O 0.07668 0.6279 0.08797 0.0
C155 C 0.11366 0.62243 0.13717 0.0
C156 C 0.16568 0.70581 0.06188 0.0
C157 C 0.17591 0.71431 1.01969 0.0
C158 C 0.19351 0.73045 0.0218 0.0
C159 C 0.20099 0.73778 0.06701 0.0
C160 C 0.1912 0.72985 0.1096 0.0
C161 C 0.17355 0.71369 0.10697 0.0
O162 O 0.09327 0.61705 0.99164 0.0
O163 O 0.09803 0.64636 1.00734 0.0
O164 O 0.12306 0.59822 0.05901 0.0
O165 O 0.112 0.59521 0.98931 0.0
C166 C 0.11737 0.58757 0.0215 0.0
O167 O 0.12547 0.64017 0.1287 0.0
O168 O 0.10258 0.61299 0.10219 0.0
O169 O 0.13464 0.68548 0.0936 0.0
O170 O 0.14218 0.67677 0.02716 0.0
H171 H 0.16974 0.70882 0.98498 0.0
H172 H 0.21468 0.74994 0.06928 0.0
H173 H 0.16575 0.70776 0.13965 0.0
O174 O 0.87776 0.52222 0.62701 0.0
Tb175 Tb 0.9028 0.52354 0.59778 0.0
Eu176 Eu 0.91682 0.56051 0.53483 0.0
C177 C 0.86699 0.51139 0.66132 0.0
O178 O 0.85175 0.51168 0.67166 0.0
C179 C 0.93607 0.56151 0.63703 0.0
O180 O 0.93026 0.58087 0.47513 0.0
C181 C 0.88529 0.55774 0.55987 0.0
C182 C 0.94662 0.59549 0.48218 0.0
O183 O 0.95342 0.59919 0.5259 0.0
C184 C 0.90466 0.52129 0.48713 0.0
C185 C 0.86691 0.55661 0.55454 0.0
C186 C 0.85697 0.55517 0.59688 0.0
C187 C 0.8397 0.55442 0.59525 0.0
C188 C 0.83255 0.55538 0.5504 0.0
C189 C 0.84215 0.55706 0.50742 0.0
C190 C 0.85936 0.55743 0.50963 0.0
O191 O 0.92067 0.546 0.6474 0.0
O192 O 0.93852 0.56896 0.59397 0.0
O193 O 0.90418 0.49883 0.61785 0.0
O194 O 0.92818 0.52306 0.58918 0.0
C195 C 0.92172 0.50627 0.60557 0.0
O196 O 0.91731 0.53893 0.48588 0.0
O197 O 0.89335 0.51493 0.52399 0.0
O198 O 0.90062 0.57371 0.55395 0.0
O199 O 0.88716 0.54334 0.55001 0.0
H200 H 0.86268 0.55449 0.63132 0.0
H201 H 0.81935 0.555 0.54893 0.0
H202 H 0.86698 0.55875 0.47696 0.0
O203 O 0.38583 0.873 0.64422 0.0
Tb204 Tb 0.3957 0.89876 0.60563 0.0
Eu205 Eu 0.3708 0.91025 0.54493 0.0
C206 C 0.37216 0.86707 0.67533 0.0
O207 O 0.36424 0.877 0.68398 0.0
C208 C 0.38882 0.93003 0.64619 0.0
O209 O 0.36668 0.92961 0.49743 0.0
C210 C 0.3399 0.88075 0.56948 0.0
C211 C 0.38041 0.9468 0.49659 0.0
O212 O 0.39535 0.95131 0.52204 0.0
C213 C 0.39398 0.89401 0.49515 0.0
C214 C 0.32463 0.86113 0.56483 0.0
C215 C 0.31673 0.85102 0.60739 0.0
C216 C 0.30109 0.83307 0.60616 0.0
C217 C 0.29363 0.82523 0.56129 0.0
C218 C 0.30135 0.83471 0.51806 0.0
C219 C 0.31678 0.8529 0.52007 0.0
O220 O 0.38875 0.91456 0.6568 0.0
O221 O 0.38402 0.93231 0.6029 0.0
O222 O 0.42403 0.90731 0.6276 0.0
O223 O 0.41909 0.92173 0.57079 0.0
C224 C 0.43165 0.92057 0.59585 0.0
O225 O 0.38923 0.90677 0.49147 0.0
O226 O 0.39071 0.88479 0.53582 0.0
O227 O 0.34076 0.89321 0.53889 0.0
O228 O 0.3562 0.88444 0.58636 0.0
H229 H 0.32265 0.85733 0.64168 0.0
H230 H 0.28117 0.81176 0.55987 0.0
H231 H 0.32264 0.86056 0.48717 0.0
O232 O 0.50435 0.37801 0.62301 0.0
Tb233 Tb 0.5065 0.40465 0.61001 0.0
Eu234 Eu 0.47661 0.36568 0.55626 0.0
C235 C 0.5179 0.37625 0.6413 0.0
O236 O 0.51592 0.35971 0.64672 0.0
C237 C 0.46568 0.38843 0.63381 0.0
O238 O 0.45597 0.36756 0.50804 0.0
C239 C 0.47222 0.33244 0.55763 0.0
C240 C 0.45858 0.38417 0.4992 0.0
O241 O 0.47255 0.39844 0.51988 0.0
C242 C 0.5113 0.40205 0.50251 0.0
C243 C 0.46971 0.31339 0.55803 0.0
C244 C 0.46997 0.30497 0.60186 0.0
C245 C 0.46857 0.28737 0.60262 0.0
C246 C 0.46742 0.27856 0.55875 0.0
C247 C 0.46714 0.28655 0.51452 0.0
C248 C 0.46826 0.30404 0.5145 0.0
O249 O 0.48031 0.40351 0.61872 0.0
O250 O 0.46353 0.37194 0.62265 0.0
O251 O 0.51471 0.42372 0.67042 0.0
O252 O 0.53478 0.4277 0.61801 0.0
C253 C 0.53176 0.43452 0.65662 0.0
O254 O 0.50179 0.38376 0.50706 0.0
O255 O 0.51102 0.41277 0.5362 0.0
O256 O 0.46392 0.33765 0.52622 0.0
O257 O 0.48218 0.34501 0.58978 0.0
H258 H 0.47105 0.31202 0.63535 0.0
H259 H 0.46732 0.26552 0.55896 0.0
H260 H 0.46825 0.31047 0.48069 0.0
O261 O 0.12956 0.51645 0.66449 0.0
Tb262 Tb 0.11203 0.49526 0.61436 0.0
Eu263 Eu 0.11215 0.46302 0.54977 0.0
C264 C 0.14058 0.51403 0.69356 0.0
O265 O 0.14058 0.49829 0.69412 0.0
C266 C 0.09151 0.45602 0.65069 0.0
O267 O 0.09186 0.44104 0.50068 0.0
C268 C 0.14056 0.45929 0.57185 0.0
C269 C 0.07955 0.44452 0.48123 0.0
O270 O 0.08058 0.46047 0.49019 0.0
C271 C 0.12484 0.50425 0.50795 0.0
C272 C 0.15993 0.46266 0.5682 0.0
C273 C 0.16943 0.46351 0.61107 0.0
C274 C 0.18653 0.46384 0.61006 0.0
C275 C 0.1943 0.46383 0.56538 0.0
C276 C 0.18522 0.4629 0.5221 0.0
C277 C 0.16804 0.46249 0.52364 0.0
O278 O 0.10616 0.47196 0.66115 0.0
O279 O 0.089 0.45073 0.60562 0.0
O280 O 0.09099 0.50303 0.62785 0.0
O281 O 0.08511 0.48093 0.57932 0.0
C282 C 0.07848 0.49035 0.60009 0.0
O283 O 0.11718 0.48644 0.49845 0.0
O284 O 0.12901 0.5102 0.55239 0.0
O285 O 0.12853 0.44965 0.53803 0.0
O286 O 0.13712 0.47135 0.59347 0.0
H287 H 0.16303 0.46298 0.64535 0.0
H288 H 0.20765 0.46452 0.56416 0.0
H289 H 0.16071 0.46132 0.49051 0.0
O290 O 0.63007 0.1407 0.64559 0.0
Tb291 Tb 0.63071 0.11892 0.60573 0.0
Eu292 Eu 0.66034 0.11211 0.55026 0.0
C293 C 0.64524 0.15494 0.66231 0.0
O294 O 0.66127 0.15563 0.6574 0.0
C295 C 0.64115 0.09147 0.64995 0.0
O296 O 0.66341 0.09212 0.50328 0.0
C297 C 0.69169 0.14079 0.576 0.0
C298 C 0.64783 0.07659 0.49603 0.0
O299 O 0.63272 0.0744 0.51697 0.0
C300 C 0.63674 0.12783 0.49805 0.0
C301 C 0.70741 0.16026 0.57184 0.0
C302 C 0.71571 0.16993 0.61463 0.0
C303 C 0.73155 0.18774 0.61362 0.0
C304 C 0.73898 0.1958 0.5689 0.0
C305 C 0.73094 0.18678 0.5254 0.0
C306 C 0.71516 0.16877 0.52717 0.0
O307 O 0.64087 0.10682 0.6596 0.0
O308 O 0.64635 0.08941 0.60689 0.0
O309 O 0.60089 0.10336 0.61654 0.0
O310 O 0.61336 0.09411 0.56445 0.0
C311 C 0.59789 0.09084 0.58439 0.0
O312 O 0.64317 0.11638 0.49379 0.0
O313 O 0.63785 0.13551 0.54005 0.0
O314 O 0.69048 0.1283 0.54509 0.0
O315 O 0.67549 0.13755 0.59264 0.0
H316 H 0.7099 0.16345 0.6489 0.0
H317 H 0.75165 0.20911 0.56798 0.0
H318 H 0.70894 0.16144 0.49415 0.0
O319 O 0.50832 0.59839 0.63486 0.0
Tb320 Tb 0.53055 0.61515 0.58638 0.0
Eu321 Eu 0.56097 0.65718 0.53762 0.0
C322 C 0.50149 0.60614 0.66274 0.0
O323 O 0.50858 0.62419 0.66134 0.0
C324 C 0.56624 0.64006 0.63794 0.0
O325 O 0.58205 0.66254 0.48062 0.0
C326 C 0.55989 0.68696 0.56031 0.0
C327 C 0.59824 0.66429 0.49102 0.0
O328 O 0.6034 0.6657 0.53607 0.0
C329 C 0.52183 0.62623 0.49026 0.0
C330 C 0.55639 0.70283 0.55647 0.0
C331 C 0.55502 0.71105 0.5994 0.0
C332 C 0.55314 0.72694 0.59865 0.0
C333 C 0.55252 0.73448 0.55405 0.0
C334 C 0.55364 0.72658 0.51047 0.0
C335 C 0.55584 0.71078 0.51195 0.0
O336 O 0.54826 0.63277 0.64298 0.0
O337 O 0.5741 0.64831 0.59712 0.0
O338 O 0.52789 0.58843 0.57053 0.0
O339 O 0.55347 0.61279 0.55544 0.0
C340 C 0.54474 0.59477 0.55517 0.0
O341 O 0.53956 0.63791 0.4821 0.0
O342 O 0.51591 0.62239 0.53452 0.0
O343 O 0.57326 0.68715 0.53473 0.0
O344 O 0.54658 0.67021 0.57237 0.0
H345 H 0.55563 0.70514 0.63357 0.0
H346 H 0.55181 0.74711 0.55327 0.0
H347 H 0.55706 0.70468 0.47883 0.0
H348 H 0.41946 0.05907 0.14934 0.0
H349 H 0.40338 0.03353 0.20571 0.0
H350 H 0.42619 0.07166 0.32423 0.0
H351 H 0.44269 0.09733 0.268 0.0
H352 H 0.43339 0.04348 0.33055 0.0
H353 H 0.37948 0.04947 0.29676 0.0
H354 H 0.35681 0.05109 0.24294 0.0
H355 H 0.34064 0.99695 0.18837 0.0
H356 H 0.36339 0.99511 0.24142 0.0
H357 H 0.39383 0.98272 0.5181 0.0
H358 H 0.39912 1.00757 0.46261 0.0
H359 H 0.37297 0.96759 0.34905 0.0
H360 H 0.36679 0.94247 0.40558 0.0
H361 H 0.36663 0.99589 0.33781 0.0
H362 H 0.41939 0.98899 0.36431 0.0
H363 H 0.44277 0.98596 0.41173 0.0
H364 H 0.46233 0.04005 0.47133 0.0
H365 H 0.43886 0.04329 0.42489 0.0
C366 C 0.42076 0.06212 0.18737 0.0
C367 C 0.43249 0.08021 0.20427 0.0
C368 C 0.41148 0.04749 0.21954 0.0
C369 C 0.41358 0.05073 0.26909 0.0
C370 C 0.42443 0.06891 0.28604 0.0
C371 C 0.43379 0.08356 0.25388 0.0
C372 C 0.4061 0.03503 0.30313 0.0
C373 C 0.41874 0.03328 0.33285 0.0
C374 C 0.38714 0.02122 0.3041 0.0
C375 C 0.37323 0.02221 0.27285 0.0
C376 C 0.37116 0.03795 0.2731 0.0
C377 C 0.35828 0.0389 0.24275 0.0
C378 C 0.34731 0.02415 0.2122 0.0
C379 C 0.34915 1.00838 0.21204 0.0
C380 C 0.36201 1.00736 0.2423 0.0
C381 C 0.38879 0.97923 0.48159 0.0
C382 C 0.38011 0.96084 0.46567 0.0
C383 C 0.39187 0.99339 0.44993 0.0
C384 C 0.38693 0.98943 0.40146 0.0
C385 C 0.37699 0.97091 0.38629 0.0
C386 C 0.37347 0.95661 0.41845 0.0
C387 C 0.39385 1.00473 0.36626 0.0
C388 C 0.38123 1.00623 0.33588 0.0
C389 C 0.41295 0.01814 0.36371 0.0
C390 C 0.42725 0.01632 0.39138 0.0
C391 C 0.42859 1.00019 0.38776 0.0
C392 C 0.44187 0.99844 0.41445 0.0
C393 C 0.45402 0.0128 0.44453 0.0
C394 C 0.45291 0.02894 0.44801 0.0
C395 C 0.43963 0.03075 0.42149 0.0
H396 H 0.46433 0.01145 0.46504 0.0
H397 H 0.33736 0.02492 0.18869 0.0
H398 H 0.36082 0.42315 0.2062 0.0
H399 H 0.36897 0.40829 0.27025 0.0
H400 H 0.41957 0.42161 0.19571 0.0
H401 H 0.41155 0.43638 0.13181 0.0
H402 H 0.40404 0.38751 0.23704 0.0
H403 H 0.42133 0.44986 0.27859 0.0
H404 H 0.41616 0.47617 0.29196 0.0
H405 H 0.37676 0.44567 0.40295 0.0
H406 H 0.38144 0.41901 0.38956 0.0
H407 H 0.4645 0.41713 0.46455 0.0
H408 H 0.44697 0.42253 0.40328 0.0
H409 H 0.40869 0.36373 0.39405 0.0
H410 H 0.42669 0.35814 0.45477 0.0
H411 H 0.41403 0.4174 0.39656 0.0
H412 H 0.39351 0.35326 0.27733 0.0
H413 H 0.40457 0.33155 0.25756 0.0
H414 H 0.46022 0.37298 0.29405 0.0
H415 H 0.44952 0.39498 0.31341 0.0
C416 C 0.37349 0.42258 0.20308 0.0
C417 C 0.38565 0.43106 0.16434 0.0
C418 C 0.37813 0.41413 0.23966 0.0
C419 C 0.39492 0.41401 0.23774 0.0
C420 C 0.40652 0.42153 0.19772 0.0
C421 C 0.40197 0.43006 0.16141 0.0
C422 C 0.40138 0.40769 0.27917 0.0
C423 C 0.40598 0.39382 0.27217 0.0
C424 C 0.4044 0.41636 0.32444 0.0
C425 C 0.40153 0.43234 0.33261 0.0
C426 C 0.41142 0.44869 0.30551 0.0
C427 C 0.40862 0.46368 0.31316 0.0
C428 C 0.39611 0.46257 0.3482 0.0
C429 C 0.38641 0.44648 0.37573 0.0
C430 C 0.38912 0.43142 0.36811 0.0
C431 C 0.4523 0.4053 0.44975 0.0
C432 C 0.44703 0.38718 0.46426 0.0
C433 C 0.44223 0.40844 0.41482 0.0
C434 C 0.42658 0.39354 0.39383 0.0
C435 C 0.42089 0.37542 0.40931 0.0
C436 C 0.43113 0.37224 0.44405 0.0
C437 C 0.41686 0.39724 0.35455 0.0
C438 C 0.41163 0.41067 0.3619 0.0
C439 C 0.41406 0.38875 0.30898 0.0
C440 C 0.42065 0.37564 0.2975 0.0
C441 C 0.4081 0.35772 0.28111 0.0
C442 C 0.41431 0.34537 0.26995 0.0
C443 C 0.43307 0.35086 0.27476 0.0
C444 C 0.44568 0.36872 0.29057 0.0
C445 C 0.43954 0.38112 0.3017 0.0
H446 H 0.43785 0.34128 0.26611 0.0
H447 H 0.39396 0.4742 0.35411 0.0
H448 H 0.05784 0.45038 0.41979 0.0
H449 H 0.0299 0.42721 0.37943 0.0
H450 H 0.03705 0.38371 0.44164 0.0
H451 H 0.06559 0.40704 0.48106 0.0
H452 H 0.0266 0.37607 0.35188 0.0
H453 H 1.00328 0.39321 0.48758 0.0
H454 H 0.99991 0.41402 0.54445 0.0
H455 H 0.98417 0.43745 0.42907 0.0
H456 H 0.98733 0.41675 0.37142 0.0
H457 H 0.92107 0.34009 0.28201 0.0
H458 H 0.94512 0.34769 0.34265 0.0
H459 H 0.98692 0.36937 0.23168 0.0
H460 H 0.96316 0.361 0.17138 0.0
H461 H 0.96957 0.38064 0.36396 0.0
H462 H 0.02615 0.37269 0.26122 0.0
H463 H 0.02787 0.3508 0.20504 0.0
H464 H 0.9761 0.30687 0.25865 0.0
H465 H 0.97417 0.32843 0.31569 0.0
C466 C 0.05353 0.43588 0.42467 0.0
C467 C 0.06376 0.43045 0.45372 0.0
C468 C 0.03747 0.42266 0.40197 0.0
C469 C 0.0311 0.40374 0.40879 0.0
C470 C 0.04164 0.39825 0.43644 0.0
C471 C 0.05793 0.41155 0.45871 0.0
C472 C 1.01363 0.38987 0.3859 0.0
C473 C 1.01401 0.37683 0.35492 0.0
C474 C 0.99712 0.39065 0.39084 0.0
C475 C 0.9955 0.40337 0.42523 0.0
C476 C 0.99915 0.40284 0.4743 0.0
C477 C 0.99721 0.41457 0.50666 0.0
C478 C 0.99165 0.42692 0.49033 0.0
C479 C 0.98826 0.42773 0.44159 0.0
C480 C 0.99006 0.41596 0.40911 0.0
C481 C 0.93534 0.34591 0.27054 0.0
C482 C 0.94023 0.35009 0.22202 0.0
C483 C 0.94907 0.35029 0.30518 0.0
C484 C 0.96784 0.35899 0.29176 0.0
C485 C 0.97255 0.36222 0.243 0.0
C486 C 0.95889 0.35757 0.20845 0.0
C487 C 0.98268 0.36721 0.32837 0.0
C488 C 0.98188 0.37934 0.36187 0.0
C489 C 0.99871 0.36542 0.32603 0.0
C490 C 1.00001 0.35221 0.29276 0.0
C491 C 1.01521 0.35832 0.26141 0.0
C492 C 0.0162 0.34598 0.22928 0.0
C493 C 1.0021 0.32746 0.22825 0.0
C494 C 0.987 0.32123 0.25944 0.0
C495 C 0.98594 0.33351 0.29165 0.0
H496 H 1.00287 0.31794 0.20329 0.0
H497 H 0.98993 0.43585 0.51537 0.0
H498 H 0.61397 0.95445 0.15909 0.0
H499 H 0.63389 0.97975 0.21436 0.0
H500 H 0.58538 0.97897 0.27213 0.0
H501 H 0.5658 0.95439 0.21707 0.0
H502 H 0.61065 0.01291 0.24637 0.0
H503 H 0.60846 0.96132 0.33363 0.0
H504 H 0.61378 0.93494 0.344 0.0
H505 H 0.67212 0.97088 0.3208 0.0
H506 H 0.66709 0.99744 0.30968 0.0
H507 H 0.61747 0.04343 0.47731 0.0
H508 H 0.61352 0.02197 0.41335 0.0
H509 H 0.67082 0.0563 0.37252 0.0
H510 H 0.675 0.0782 0.43695 0.0
H511 H 0.65059 0.01119 0.3762 0.0
H512 H 0.64984 0.0644 0.30596 0.0
H513 H 0.64069 0.08835 0.30586 0.0
H514 H 0.58324 0.04619 0.30539 0.0
H515 H 0.59204 0.02198 0.30646 0.0
C516 C 0.60768 0.9596 0.18416 0.0
C517 C 0.58845 0.95273 0.18361 0.0
C518 C 0.619 0.97401 0.2155 0.0
C519 C 0.61108 0.98136 0.24677 0.0
C520 C 0.5918 0.97372 0.24768 0.0
C521 C 0.58062 0.95964 0.21631 0.0
C522 C 0.62247 0.99746 0.27775 0.0
C523 C 0.61957 0.01263 0.27439 0.0
C524 C 0.63438 0.99724 0.31363 0.0
C525 C 0.63738 0.98129 0.3201 0.0
C526 C 0.6224 0.96355 0.33026 0.0
C527 C 0.62536 0.94858 0.33638 0.0
C528 C 0.64327 0.95122 0.33286 0.0
C529 C 0.65825 0.96885 0.32336 0.0
C530 C 0.65536 0.98386 0.31715 0.0
C531 C 0.62937 0.04635 0.45534 0.0
C532 C 0.6465 0.06261 0.46168 0.0
C533 C 0.62707 0.03403 0.41895 0.0
C534 C 0.64186 0.03773 0.38834 0.0
C535 C 0.65932 0.05333 0.39611 0.0
C536 C 0.66164 0.06579 0.43267 0.0
C537 C 0.63807 0.02607 0.34567 0.0
C538 C 0.64234 0.01181 0.34684 0.0
C539 C 0.62696 0.0268 0.30836 0.0
C540 C 0.62163 0.04137 0.30657 0.0
C541 C 0.63526 0.06023 0.30619 0.0
C542 C 0.63013 0.07386 0.30593 0.0
C543 C 0.6114 0.0688 0.30574 0.0
C544 C 0.59775 0.05009 0.30559 0.0
C545 C 0.6028 0.03641 0.30596 0.0
H546 H 0.60747 0.07937 0.30563 0.0
H547 H 0.64554 0.93961 0.33764 0.0
H548 H 0.62322 0.59014 0.13617 0.0
H549 H 0.62031 0.60879 0.19908 0.0
H550 H 0.66935 0.6147 0.26824 0.0
H551 H 0.67245 0.59595 0.20488 0.0
H552 H 0.63769 0.60316 0.32962 0.0
H553 H 0.67335 0.65107 0.21449 0.0
H554 H 0.68043 0.66495 0.13357 0.0
H555 H 0.62806 0.66329 0.12985 0.0
H556 H 0.62055 0.64918 0.2105 0.0
H557 H 0.62964 0.66175 0.50084 0.0
H558 H 0.64354 0.65117 0.4403 0.0
H559 H 0.60347 0.6476 0.33623 0.0
H560 H 0.58982 0.65851 0.39588 0.0
H561 H 0.63602 0.66077 0.29548 0.0
H562 H 0.5972 0.6088 0.39738 0.0
H563 H 0.58612 0.59144 0.47341 0.0
H564 H 0.63983 0.59759 0.49806 0.0
H565 H 0.65124 0.615 0.42217 0.0
C566 C 0.63349 0.5955 0.16454 0.0
C567 C 0.64808 0.59162 0.16568 0.0
C568 C 0.63183 0.6062 0.20032 0.0
C569 C 0.6447 0.6132 0.23793 0.0
C570 C 0.65935 0.60944 0.23924 0.0
C571 C 0.66114 0.59884 0.20304 0.0
C572 C 0.64222 0.62382 0.27659 0.0
C573 C 0.6378 0.61603 0.32266 0.0
C574 C 0.64174 0.64021 0.26669 0.0
C575 C 0.64637 0.64901 0.2185 0.0
C576 C 0.6633 0.65359 0.19633 0.0
C577 C 0.6674 0.6615 0.15051 0.0
C578 C 0.6547 0.66499 0.12657 0.0
C579 C 0.63789 0.6606 0.14845 0.0
C580 C 0.63373 0.65268 0.19426 0.0
C581 C 0.62403 0.65905 0.4648 0.0
C582 C 0.60856 0.66086 0.45322 0.0
C583 C 0.63189 0.65287 0.4304 0.0
C584 C 0.62432 0.6483 0.38407 0.0
C585 C 0.6095 0.65101 0.37182 0.0
C586 C 0.6017 0.65725 0.40602 0.0
C587 C 0.63123 0.64001 0.34857 0.0
C588 C 0.63638 0.64818 0.30297 0.0
C589 C 0.63191 0.62369 0.35857 0.0
C590 C 0.62516 0.61346 0.40453 0.0
C591 C 0.6067 0.60662 0.41929 0.0
C592 C 0.60035 0.59674 0.46229 0.0
C593 C 0.61233 0.5936 0.49076 0.0
C594 C 0.63062 0.60017 0.47612 0.0
C595 C 0.63702 0.61 0.43308 0.0
H596 H 0.60742 0.5859 0.52393 0.0
H597 H 0.65788 0.6711 0.09108 0.0
H598 H 0.98247 0.62398 0.48324 0.0
H599 H 1.00417 0.63495 0.41587 0.0
H600 H 0.96022 0.59854 0.32035 0.0
H601 H 0.93843 0.58742 0.38737 0.0
H602 H 0.99108 0.59415 0.31651 0.0
H603 H 0.97754 0.64413 0.31195 0.0
H604 H 0.97458 0.66958 0.34769 0.0
H605 H 0.03233 0.69785 0.3851 0.0
H606 H 0.03558 0.67244 0.35015 0.0
H607 H 0.04267 0.62012 0.10461 0.0
H608 H 0.01876 0.61559 0.16267 0.0
H609 H 0.06069 0.65655 0.25548 0.0
H610 H 0.08455 0.66171 0.19648 0.0
H611 H 0.03041 0.65889 0.26013 0.0
H612 H 0.04496 0.61025 0.26693 0.0
H613 H 0.04922 0.58532 0.23319 0.0
H614 H 0.99126 0.55404 0.19898 0.0
H615 H 0.98677 0.57916 0.23051 0.0
C616 C 0.97732 0.6186 0.44772 0.0
C617 C 0.95877 0.60475 0.44068 0.0
C618 C 0.98974 0.62489 0.4093 0.0
C619 C 0.98376 0.61748 0.3633 0.0
C620 C 0.96507 0.60434 0.35571 0.0
C621 C 0.95263 0.5981 0.39402 0.0
C622 C 0.99725 0.6224 0.32386 0.0
C623 C 0.99947 0.60824 0.3035 0.0
C624 C 1.00862 0.64089 0.30847 0.0
C625 C 1.00676 0.65632 0.32874 0.0
C626 C 0.98958 0.65572 0.32805 0.0
C627 C 0.98786 0.67015 0.34813 0.0
C628 C 1.00325 0.6853 0.36873 0.0
C629 C 0.02042 0.6861 0.36915 0.0
C630 C 0.02221 0.6717 0.34915 0.0
C631 C 0.04672 0.62834 0.1371 0.0
C632 C 0.06541 0.6411 0.14648 0.0
C633 C 0.03309 0.62573 0.17022 0.0
C634 C 0.03803 0.63542 0.21385 0.0
C635 C 0.0566 0.64888 0.22211 0.0
C636 C 0.07021 0.65178 0.18848 0.0
C637 C 0.02409 0.6306 0.25218 0.0
C638 C 0.02191 0.64476 0.27272 0.0
C639 C 1.01297 0.61212 0.26842 0.0
C640 C 0.01556 0.59672 0.25067 0.0
C641 C 0.03313 0.59813 0.25189 0.0
C642 C 0.0356 0.58396 0.23311 0.0
C643 C 0.02052 0.56808 0.21411 0.0
C644 C 1.00294 0.56636 0.2137 0.0
C645 C 1.00044 0.5806 0.23184 0.0
H646 H 0.02243 0.55709 0.19977 0.0
H647 H 1.00188 0.69645 0.38431 0.0
H648 H 0.62777 0.05465 0.63036 0.0
H649 H 0.61337 0.02796 0.68481 0.0
H650 H 0.6224 0.06441 0.80366 0.0
H651 H 0.63617 0.09125 0.74883 0.0
H652 H 0.63463 0.03394 0.81132 0.0
H653 H 0.58326 0.04371 0.77595 0.0
H654 H 0.55888 0.04545 0.72991 0.0
H655 H 0.53863 0.99017 0.67804 0.0
H656 H 0.56331 0.98832 0.72223 0.0
H657 H 0.58746 0.96634 0.99431 0.0
H658 H 0.60122 0.99308 0.94073 0.0
H659 H 0.56596 0.95917 0.82574 0.0
H660 H 0.55132 0.93262 0.88054 0.0
H661 H 0.56723 0.9889 0.81495 0.0
H662 H 0.61771 0.97817 0.83873 0.0
H663 H 0.64053 0.97331 0.88337 0.0
H664 H 0.66233 0.02679 0.94885 0.0
H665 H 0.63948 0.03188 0.90503 0.0
C666 C 0.62676 0.05711 0.66809 0.0
C667 C 0.63335 0.07534 0.68486 0.0
C668 C 0.61836 0.0417 0.69929 0.0
C669 C 0.61658 0.04393 0.74867 0.0
C670 C 0.62345 0.06214 0.76582 0.0
C671 C 0.63142 0.07756 0.73433 0.0
C672 C 0.60814 0.02737 0.78222 0.0
C673 C 0.61984 0.02422 0.81249 0.0
C674 C 0.58891 0.01404 0.78266 0.0
C675 C 0.57534 0.01597 0.75211 0.0
C676 C 0.57394 0.0321 0.75378 0.0
C677 C 0.55996 0.03305 0.72825 0.0
C678 C 0.54712 0.01786 0.70145 0.0
C679 C 0.5485 1.00186 0.69915 0.0
C680 C 0.56256 1.00091 0.72414 0.0
C681 C 0.58272 0.96444 0.95746 0.0
C682 C 0.56829 0.94704 0.94205 0.0
C683 C 0.59078 0.97989 0.92635 0.0
C684 C 0.58517 0.97851 0.87796 0.0
C685 C 0.5708 0.96102 0.86248 0.0
C686 C 0.56243 0.94564 0.89397 0.0
C687 C 0.59368 0.99526 0.84427 0.0
C688 C 0.58205 0.99848 0.81378 0.0
C689 C 0.61304 1.00834 0.84242 0.0
C690 C 0.62675 1.00532 0.86898 0.0
C691 C 0.62728 0.98884 0.86292 0.0
C692 C 0.64024 0.98605 0.88803 0.0
C693 C 0.65283 0.99971 0.91903 0.0
C694 C 0.65254 0.01621 0.92489 0.0
C695 C 0.6396 0.01906 0.8999 0.0
H696 H 0.66286 0.99753 0.93843 0.0
H697 H 0.53611 0.01846 0.6824 0.0
H698 H 0.61879 0.54795 0.90205 0.0
H699 H 0.60775 0.56268 0.84573 0.0
H700 H 0.64979 0.61645 0.89588 0.0
H701 H 0.6599 0.60147 0.95519 0.0
H702 H 0.62275 0.61998 0.87964 0.0
H703 H 0.65011 0.59462 0.77897 0.0
H704 H 0.65691 0.57147 0.74425 0.0
H705 H 0.60031 0.53863 0.69931 0.0
H706 H 0.59296 0.56136 0.73475 0.0
H707 H 0.60349 0.65872 0.66145 0.0
H708 H 0.62001 0.64829 0.71535 0.0
H709 H 0.56893 0.59756 0.74222 0.0
H710 H 0.5523 0.60817 0.69045 0.0
H711 H 0.60462 0.59595 0.71403 0.0
H712 H 0.57971 0.62517 0.81892 0.0
H713 H 0.57705 0.65151 0.84859 0.0
H714 H 0.63544 0.68156 0.8784 0.0
H715 H 0.63854 0.65545 0.8481 0.0
C716 C 0.62582 0.56293 0.90086 0.0
C717 C 0.64048 0.57349 0.93281 0.0
C718 C 0.61956 0.57144 0.8681 0.0
C719 C 0.62821 0.59089 0.86466 0.0
C720 C 0.64281 0.60147 0.89697 0.0
C721 C 0.64872 0.59289 0.93088 0.0
C722 C 0.62162 0.6 0.82858 0.0
C723 C 0.61919 0.61485 0.84322 0.0
C724 C 0.61684 0.59363 0.78045 0.0
C725 C 0.62098 0.57969 0.75975 0.0
C726 C 0.63905 0.58239 0.76204 0.0
C727 C 0.64299 0.56934 0.74221 0.0
C728 C 0.62901 0.55361 0.71954 0.0
C729 C 0.61105 0.55084 0.71684 0.0
C730 C 0.607 0.5638 0.73681 0.0
C731 C 0.59576 0.64546 0.67934 0.0
C732 C 0.57648 0.63448 0.67221 0.0
C733 C 0.60524 0.63946 0.70997 0.0
C734 C 0.59575 0.62211 0.73297 0.0
C735 C 0.57659 0.611 0.72505 0.0
C736 C 0.56705 0.61719 0.69572 0.0
C737 C 0.60551 0.61544 0.7658 0.0
C738 C 0.60855 0.60114 0.75032 0.0
C739 C 0.61139 0.62271 0.81253 0.0
C740 C 0.6094 0.63838 0.83061 0.0
C741 C 0.59205 0.63744 0.8312 0.0
C742 C 0.59044 0.65233 0.84831 0.0
C743 C 0.60608 0.66823 0.86523 0.0
C744 C 0.62334 0.66925 0.8652 0.0
C745 C 0.62502 0.65439 0.84808 0.0
H746 H 0.6048 0.67974 0.87849 0.0
H747 H 0.63208 0.54351 0.7042 0.0
H748 H 0.08373 0.65244 0.91898 0.0
H749 H 0.05864 0.64269 0.85968 0.0
H750 H 0.03245 0.58716 0.91691 0.0
H751 H 0.05789 0.59661 0.97345 0.0
H752 H 0.02837 0.58242 0.8308 0.0
H753 H 0.01665 0.62249 0.93027 0.0
H754 H 0.02385 0.65151 0.97137 0.0
H755 H 0.03586 0.67981 0.83584 0.0
H756 H 0.02892 0.65098 0.79398 0.0
H757 H 0.93904 0.54688 0.72333 0.0
H758 H 0.96463 0.55989 0.78105 0.0
H759 H 0.99376 0.60887 0.69373 0.0
H760 H 0.96818 0.59587 0.63551 0.0
H761 H 0.99694 0.6179 0.79078 0.0
H762 H 1.00598 0.57539 0.69307 0.0
H763 H 0.99673 0.54518 0.65582 0.0
H764 H 0.98729 0.51997 0.79515 0.0
H765 H 0.99623 0.54999 0.83324 0.0
C766 C 0.07252 0.63821 0.91914 0.0
C767 C 0.07299 0.62538 0.95129 0.0
C768 C 0.05798 0.63256 0.88514 0.0
C769 C 0.04313 0.61402 0.88317 0.0
C770 C 0.04353 0.60145 0.91638 0.0
C771 C 0.05818 0.60696 0.94929 0.0
C772 C 0.02748 0.60732 0.8463 0.0
C773 C 0.02142 0.5902 0.82298 0.0
C774 C 0.01829 0.6173 0.83404 0.0
C775 C 0.02247 0.63464 0.85907 0.0
C776 C 0.02095 0.63493 0.90928 0.0
C777 C 0.02496 0.65134 0.9327 0.0
C778 C 0.03036 0.66751 0.90624 0.0
C779 C 0.03171 0.66728 0.85629 0.0
C780 C 0.02772 0.65091 0.8327 0.0
C781 C 0.95078 0.56051 0.71637 0.0
C782 C 0.95132 0.57023 0.67429 0.0
C783 C 0.96557 0.56794 0.74954 0.0
C784 C 0.98146 0.58541 0.74208 0.0
C785 C 0.98182 0.59539 0.70079 0.0
C786 C 0.96709 0.58788 0.66727 0.0
C787 C 0.99776 0.59297 0.77661 0.0
C788 C 1.00394 0.61022 0.79907 0.0
C789 C 1.00684 0.58294 0.78889 0.0
C790 C 1.00163 0.56492 0.766 0.0
C791 C 1.00181 0.56338 0.71576 0.0
C792 C 0.99664 0.54629 0.6945 0.0
C793 C 0.99139 0.53066 0.72311 0.0
C794 C 0.99134 0.53209 0.77304 0.0
C795 C 0.99648 0.54914 0.79449 0.0
H796 H 0.98742 0.51744 0.70664 0.0
H797 H 0.03346 0.6802 0.92444 0.0
H798 H 0.4766 0.08699 0.8846 0.0
H799 H 0.46235 0.06074 0.82831 0.0
H800 H 0.42821 0.02513 0.94228 0.0
H801 H 0.44183 0.05133 0.99814 0.0
H802 H 0.45017 0.01177 0.87815 0.0
H803 H 0.40613 0.03408 0.87351 0.0
H804 H 0.39762 0.05821 0.86135 0.0
H805 H 0.41901 0.06716 0.71763 0.0
H806 H 0.42789 0.04325 0.72921 0.0
H807 H 0.39325 0.92934 0.74491 0.0
H808 H 0.40569 0.9553 0.80139 0.0
H809 H 0.41394 0.99277 0.6848 0.0
H810 H 0.40029 0.9667 0.62922 0.0
H811 H 0.40593 1.00609 0.75113 0.0
H812 H 0.45041 0.98611 0.7489 0.0
H813 H 0.46267 0.96471 0.75562 0.0
H814 H 0.44596 0.95452 0.90349 0.0
H815 H 0.43336 0.97568 0.89737 0.0
C816 C 0.46594 0.07363 0.89768 0.0
C817 C 0.46038 0.0715 0.94623 0.0
C818 C 0.45779 0.05855 0.86534 0.0
C819 C 0.44416 0.04074 0.88072 0.0
C820 C 0.43868 0.03858 0.92916 0.0
C821 C 0.44646 0.05372 0.96116 0.0
C822 C 0.43564 0.02441 0.84663 0.0
C823 C 0.44032 0.0104 0.8507 0.0
C824 C 0.42329 0.02276 0.80943 0.0
C825 C 0.41786 0.03704 0.80242 0.0
C826 C 0.40918 0.04133 0.83948 0.0
C827 C 0.40425 0.05493 0.83266 0.0
C828 C 0.40782 0.06426 0.7888 0.0
C829 C 0.41628 0.05995 0.75161 0.0
C830 C 0.42125 0.04637 0.75828 0.0
C831 C 0.39757 0.94309 0.73131 0.0
C832 C 0.39565 0.94572 0.68209 0.0
C833 C 0.405 0.95814 0.76379 0.0
C834 C 0.41146 0.97653 0.74805 0.0
C835 C 0.40924 0.97901 0.69888 0.0
C836 C 0.40138 0.96394 0.66671 0.0
C837 C 0.42033 0.99307 0.78224 0.0
C838 C 0.41577 1.00724 0.7783 0.0
C839 C 0.43328 0.99514 0.81867 0.0
C840 C 0.44075 0.98233 0.82249 0.0
C841 C 0.44923 0.97921 0.78273 0.0
C842 C 0.45625 0.96713 0.78644 0.0
C843 C 0.45504 0.95821 0.82993 0.0
C844 C 0.44685 0.9614 0.8698 0.0
C845 C 0.43976 0.97344 0.86622 0.0
H846 H 0.4605 0.94887 0.83276 0.0
H847 H 0.40399 0.07478 0.78358 0.0
H848 H 0.44565 0.36727 0.71278 0.0
H849 H 0.43038 0.37602 0.77492 0.0
H850 H 0.44255 0.42488 0.69359 0.0
H851 H 0.45803 0.41647 0.63286 0.0
H852 H 0.452 0.4349 0.78081 0.0
H853 H 0.39653 0.38415 0.70974 0.0
H854 H 0.37626 0.35168 0.68509 0.0
H855 H 0.3742 0.33368 0.83058 0.0
H856 H 0.39463 0.36603 0.85598 0.0
H857 H 0.40083 0.46972 0.89303 0.0
H858 H 0.41167 0.4547 0.8375 0.0
H859 H 0.39599 0.40987 0.93786 0.0
H860 H 0.38454 0.42481 0.99378 0.0
H861 H 0.38918 0.396 0.84952 0.0
H862 H 0.44288 0.44503 0.92263 0.0
H863 H 0.46422 0.4767 0.95104 0.0
H864 H 0.47092 0.49725 0.80674 0.0
H865 H 0.4496 0.46563 0.77742 0.0
C866 C 0.44465 0.37962 0.70767 0.0
C867 C 0.45308 0.39109 0.6675 0.0
C868 C 0.43594 0.38471 0.74343 0.0
C869 C 0.4352 0.40126 0.73959 0.0
C870 C 0.44295 0.41218 0.69831 0.0
C871 C 0.45175 0.40724 0.66315 0.0
C872 C 0.42738 0.408 0.77881 0.0
C873 C 0.43814 0.42638 0.79516 0.0
C874 C 0.40961 0.39687 0.79989 0.0
C875 C 0.39724 0.37748 0.78465 0.0
C876 C 0.39184 0.37325 0.7364 0.0
C877 C 0.38031 0.35487 0.72231 0.0
C878 C 0.37399 0.34062 0.75622 0.0
C879 C 0.37913 0.34472 0.80433 0.0
C880 C 0.39066 0.36308 0.8186 0.0
C881 C 0.39951 0.45659 0.90351 0.0
C882 C 0.39183 0.44862 0.94842 0.0
C883 C 0.4059 0.44801 0.87155 0.0
C884 C 0.40523 0.43127 0.88346 0.0
C885 C 0.39688 0.42282 0.92752 0.0
C886 C 0.39026 0.43138 0.95958 0.0
C887 C 0.41358 0.42306 0.85003 0.0
C888 C 0.40302 0.40448 0.83508 0.0
C889 C 0.43168 0.43391 0.83055 0.0
C890 C 0.44451 0.45297 0.84789 0.0
C891 C 0.44881 0.45632 0.89698 0.0
C892 C 0.46092 0.47426 0.91324 0.0
C893 C 0.46884 0.48902 0.88077 0.0
C894 C 0.46475 0.48582 0.83188 0.0
C895 C 0.45269 0.46787 0.81539 0.0
H896 H 0.4782 0.50291 0.89347 0.0
H897 H 0.36507 0.3264 0.74524 0.0
H898 H 0.05416 0.43727 0.63252 0.0
H899 H 0.02841 0.42411 0.69008 0.0
H900 H 0.06732 0.44007 0.80684 0.0
H901 H 0.09326 0.45416 0.74935 0.0
H902 H 0.0344 0.40057 0.80704 0.0
H903 H 0.05132 0.46372 0.79375 0.0
H904 H 0.05751 0.49309 0.75694 0.0
H905 H 1.00026 0.4688 0.71749 0.0
H906 H 0.99399 0.43867 0.74963 0.0
H907 H 0.97196 0.3812 1.00283 0.0
H908 H 0.99749 0.3932 0.94566 0.0
H909 H 0.96325 0.39969 0.83994 0.0
H910 H 0.93779 0.38817 0.89791 0.0
H911 H 0.99441 0.42814 0.8334 0.0
H912 H 0.97855 0.36425 0.83817 0.0
H913 H 0.97213 0.33496 0.87668 0.0
H914 H 0.02675 0.36193 0.93797 0.0
H915 H 0.03342 0.39144 0.90025 0.0
C916 C 0.0573 0.43791 0.67043 0.0
C917 C 0.07589 0.44671 0.68613 0.0
C918 C 0.04249 0.43043 0.70341 0.0
C919 C 0.04579 0.43105 0.75306 0.0
C920 C 0.06433 0.43937 0.76883 0.0
C921 C 0.07918 0.44742 0.73588 0.0
C922 C 0.02991 0.42304 0.78824 0.0
C923 C 0.02578 0.40673 0.81315 0.0
C924 C 0.01829 0.43078 0.79569 0.0
C925 C 0.02229 0.44863 0.77309 0.0
C926 C 0.04016 0.46432 0.77547 0.0
C927 C 0.0437 0.48115 0.75528 0.0
C928 C 0.02936 0.4827 0.73394 0.0
C929 C 1.01146 0.46741 0.73268 0.0
C930 C 1.00795 0.45039 0.75153 0.0
C931 C 0.96972 0.38493 0.96722 0.0
C932 C 0.9526 0.38348 0.95523 0.0
C933 C 0.98446 0.39183 0.93408 0.0
C934 C 0.98259 0.39732 0.88741 0.0
C935 C 0.96537 0.39567 0.87531 0.0
C936 C 0.95066 0.3889 0.90861 0.0
C937 C 0.99866 0.40547 0.85208 0.0
C938 C 1.00286 0.42182 0.82697 0.0
C939 C 1.01034 0.3978 0.84432 0.0
C940 C 1.00643 0.38006 0.86665 0.0
C941 C 0.98915 0.36394 0.86004 0.0
C942 C 0.98548 0.34731 0.88171 0.0
C943 C 0.99901 0.34659 0.90982 0.0
C944 C 0.01628 0.3625 0.9162 0.0
C945 C 0.02003 0.37918 0.89463 0.0
H946 H 0.99613 0.3337 0.9266 0.0
H947 H 0.03205 0.4958 0.71895 0.0
H948 H 0.4959 0.93148 0.13323 0.0
H949 H 0.49406 0.95697 0.1719 0.0
H950 H 0.54693 0.99602 0.10947 0.0
H951 H 0.54897 0.97039 0.07288 0.0
H952 H 0.54226 1.00953 0.19163 0.0
H953 H 0.50578 0.98121 0.04735 0.0
H954 H 0.482 0.95558 0.9989 0.0
H955 H 0.44054 0.94663 0.10379 0.0
H956 H 0.46417 0.9721 0.15315 0.0
H957 H 0.53727 0.07821 0.06185 0.0
H958 H 0.53975 0.05326 0.10076 0.0
H959 H 0.48898 0.03699 0.17818 0.0
H960 H 0.48666 0.06227 0.13996 0.0
H961 H 0.48808 0.01012 0.11927 0.0
H962 H 0.52576 0.04834 0.244 0.0
H963 H 0.55078 0.07659 0.28149 0.0
H964 H 0.5915 0.0698 0.20386 0.0
H965 H 0.56676 0.04161 0.16548 0.0
C966 C 0.50711 0.94555 0.12855 0.0
C967 C 0.52215 0.94929 0.09893 0.0
C968 C 0.50622 0.96002 0.15095 0.0
C969 C 0.52011 0.97841 0.14242 0.0
C970 C 0.53601 0.98194 0.11635 0.0
C971 C 0.53709 0.96738 0.09503 0.0
C972 C 0.5167 0.99386 0.1525 0.0
C973 C 0.53037 1.00969 0.17625 0.0
C974 C 0.50092 0.99384 0.1334 0.0
C975 C 0.48676 0.97835 0.1042 0.0
C976 C 0.49162 0.97367 0.06022 0.0
C977 C 0.47817 0.95921 0.03258 0.0
C978 C 0.45977 0.94948 0.04827 0.0
C979 C 0.4548 0.95419 0.09167 0.0
C980 C 0.46821 0.9686 0.11955 0.0
C981 C 0.52687 0.06955 0.08794 0.0
C982 C 0.51168 0.07192 0.0976 0.0
C983 C 0.52841 0.05548 0.11059 0.0
C984 C 0.51467 0.04349 0.1428 0.0
C985 C 0.49983 0.0463 0.1539 0.0
C986 C 0.49842 0.06055 0.13167 0.0
C987 C 0.51402 0.0261 0.15641 0.0
C988 C 0.49957 0.00981 0.13684 0.0
C989 C 0.52926 0.02596 0.17829 0.0
C990 C 0.54433 0.0428 0.20175 0.0
C991 C 0.54004 0.05289 0.23474 0.0
C992 C 0.55418 0.06887 0.25627 0.0
C993 C 0.57271 0.07497 0.24509 0.0
C994 C 0.57713 0.06505 0.21251 0.0
C995 C 0.56305 0.049 0.19101 0.0
H996 H 0.58362 0.08741 0.2616 0.0
H997 H 0.44938 0.93828 0.02683 0.0
H998 H 0.44381 0.52956 0.91063 0.0
H999 H 0.4753 0.53459 0.90712 0.0
H1000 H 0.48561 0.55698 0.05037 0.0
H1001 H 0.45421 0.55225 0.05395 0.0
H1002 H 0.51396 0.5624 0.92741 0.0
H1003 H 0.49501 0.5263 0.11241 0.0
H1004 H 0.4669 0.50599 0.15954 0.0
H1005 H 0.43565 0.48458 0.02977 0.0
H1006 H 0.46348 0.50472 0.98191 0.0
H1007 H 0.59051 0.55739 0.02765 0.0
H1008 H 0.56347 0.56161 1.02059 0.0
H1009 H 0.53085 0.50583 0.9674 0.0
H1010 H 0.55804 0.50171 0.97306 0.0
H1011 H 0.51328 0.51658 0.04284 0.0
H1012 H 0.5407 0.53351 0.88944 0.0
H1013 H 0.56496 0.54913 0.82769 0.0
H1014 H 0.57509 0.60198 0.87808 0.0
H1015 H 0.5509 0.5867 0.93985 0.0
C1016 C 0.45309 0.53648 0.9404 0.0
C1017 C 0.44647 0.54022 0.98291 0.0
C1018 C 0.47107 0.53927 0.9384 0.0
C1019 C 0.48255 0.54573 0.97892 0.0
C1020 C 0.47684 0.55181 1.01891 0.0
C1021 C 0.45892 0.5492 1.02077 0.0
C1022 C 0.49854 0.5427 0.98289 0.0
C1023 C 0.51394 0.5526 0.95305 0.0
C1024 C 0.49809 0.52925 1.01487 0.0
C1025 C 0.48133 0.51706 0.04361 0.0
C1026 C 0.48216 0.5172 0.09397 0.0
C1027 C 0.46629 0.50571 0.12081 0.0
C1028 C 0.44957 0.49391 0.09771 0.0
C1029 C 0.44862 0.49368 0.04767 0.0
C1030 C 0.46443 0.50516 1.02067 0.0
C1031 C 0.57755 0.54601 1.01466 0.0
C1032 C 0.57629 0.5292 1.00108 0.0
C1033 C 0.56215 0.54845 1.01058 0.0
C1034 C 0.54519 0.534 0.99367 0.0
C1035 C 0.54381 0.51708 0.98082 0.0
C1036 C 0.55933 0.51478 0.98393 0.0
C1037 C 0.52903 0.53679 0.98846 0.0
C1038 C 0.5135 0.5267 1.01791 0.0
C1039 C 0.52907 0.54957 0.95495 0.0
C1040 C 0.54413 0.55897 0.91935 0.0
C1041 C 0.54825 0.54847 0.88751 0.0
C1042 C 0.56187 0.55723 0.85238 0.0
C1043 C 0.57136 0.57649 0.8487 0.0
C1044 C 0.56754 0.58706 0.88059 0.0
C1045 C 0.55387 0.57836 0.91565 0.0
H1046 H 0.58155 0.58314 0.82091 0.0
H1047 H 0.43732 0.48503 0.11863 0.0
H1048 H 0.1014 0.56231 0.94994 0.0
H1049 H 0.07676 0.53033 0.96274 0.0
H1050 H 0.08938 0.53555 0.11395 0.0
H1051 H 0.11421 0.56739 0.10132 0.0
H1052 H 0.06814 0.49605 1.00947 0.0
H1053 H 0.04953 0.52778 0.16638 0.0
H1054 H 0.05562 0.55842 0.19467 0.0
H1055 H 0.06246 0.57782 0.04934 0.0
H1056 H 0.05634 0.54734 1.02012 0.0
H1057 H 0.97971 0.42457 0.09463 0.0
H1058 H 1.0121 0.44974 0.09538 0.0
H1059 H 0.99584 0.48593 0.027 0.0
H1060 H 0.96353 0.46086 0.02612 0.0
H1061 H 0.02049 0.50365 0.09732 0.0
H1062 H 1.01345 0.46475 0.96385 0.0
H1063 H 1.00723 0.43692 0.91907 0.0
H1064 H 0.05037 0.43412 0.99655 0.0
H1065 H 0.05644 0.46172 0.04325 0.0
C1066 C 0.09956 0.55631 0.98544 0.0
C1067 C 0.10932 0.56739 0.02481 0.0
C1068 C 0.08546 0.53805 0.99275 0.0
C1069 C 0.08101 0.53084 0.03946 0.0
C1070 C 0.09253 0.54101 0.07773 0.0
C1071 C 0.10677 0.55918 0.07036 0.0
C1072 C 0.06247 0.51476 0.04901 0.0
C1073 C 0.05778 0.49751 0.02954 0.0
C1074 C 0.04888 0.517 0.07374 0.0
C1075 C 0.0526 0.53534 0.09116 0.0
C1076 C 0.05228 0.53858 0.14051 0.0
C1077 C 0.05569 0.55588 0.15669 0.0
C1078 C 0.05925 0.56997 0.12386 0.0
C1079 C 0.05961 0.56687 0.07473 0.0
C1080 C 0.05623 0.54961 0.05835 0.0
C1081 C 0.98305 0.43798 0.08034 0.0
C1082 C 0.96917 0.44083 0.06035 0.0
C1083 C 1.00154 0.45229 0.08056 0.0
C1084 C 1.00638 0.46965 0.06094 0.0
C1085 C 0.9924 0.47265 0.04242 0.0
C1086 C 0.97396 0.45833 0.04189 0.0
C1087 C 0.02603 0.48464 0.05821 0.0
C1088 C 0.03094 0.50184 0.07879 0.0
C1089 C 0.03966 0.48243 0.0333 0.0
C1090 C 0.03521 0.46515 1.00756 0.0
C1091 C 0.02137 0.45801 0.97206 0.0
C1092 C 0.01794 0.44231 0.9461 0.0
C1093 C 0.02848 0.43378 0.95467 0.0
C1094 C 0.04223 0.44075 0.98991 0.0
C1095 C 0.04563 0.45638 1.01628 0.0
H1096 H 0.0261 0.42185 0.93387 0.0
H1097 H 0.06188 0.58334 0.13653 0.0
H1098 H 0.91181 0.46978 0.59186 0.0
H1099 H 0.93321 0.45744 0.58571 0.0
H1100 H 0.97923 0.51182 0.61618 0.0
H1101 H 0.95809 0.52389 0.62381 0.0
H1102 H 0.98153 0.49526 0.52794 0.0
H1103 H 0.96588 0.48093 0.69844 0.0
H1104 H 0.94399 0.46432 0.76435 0.0
H1105 H 0.93174 0.41223 0.70276 0.0
H1106 H 0.95332 0.42856 0.63595 0.0
H1107 H 0.06476 0.51294 0.62146 0.0
H1108 H 0.03258 0.50593 0.61371 0.0
H1109 H 0.01641 0.45077 0.56563 0.0
H1110 H 0.04877 0.458 0.57094 0.0
H1111 H 0.99211 0.45538 0.64077 0.0
H1112 H 1.01423 0.47117 0.48281 0.0
H1113 H 0.03649 0.48808 0.41795 0.0
H1114 H 0.03716 0.53814 0.45784 0.0
H1115 H 1.01513 0.52161 0.52354 0.0
C1116 C 0.92638 0.4788 0.59919 0.0
C1117 C 0.93334 0.49767 0.60891 0.0
C1118 C 0.93859 0.47184 0.59504 0.0
C1119 C 0.95776 0.4838 0.60026 0.0
C1120 C 0.96448 0.50243 0.61188 0.0
C1121 C 0.95241 0.50929 0.61624 0.0
C1122 C 0.97139 0.47781 0.59058 0.0
C1123 C 0.98384 0.48651 0.55259 0.0
C1124 C 0.97381 0.46569 0.62141 0.0
C1125 C 0.96094 0.45595 0.66172 0.0
C1126 C 0.95835 0.46593 0.69861 0.0
C1127 C 0.94604 0.45657 0.73622 0.0
C1128 C 0.93641 0.43723 0.73759 0.0
C1129 C 0.93915 0.42721 0.70152 0.0
C1130 C 0.95141 0.43651 0.66378 0.0
C1131 C 0.05434 0.49938 0.60889 0.0
C1132 C 0.05918 0.48611 0.59601 0.0
C1133 C 0.03602 0.49536 0.6046 0.0
C1134 C 0.02223 0.47791 0.58839 0.0
C1135 C 0.0269 0.46436 0.57739 0.0
C1136 C 0.04535 0.46854 0.58039 0.0
C1137 C 1.00321 0.47455 0.58175 0.0
C1138 C 0.98961 0.46388 0.61585 0.0
C1139 C 0.99976 0.48502 0.54774 0.0
C1140 C 1.01306 0.49514 0.5083 0.0
C1141 C 0.01923 0.48582 0.47805 0.0
C1142 C 0.0318 0.49533 0.44106 0.0
C1143 C 0.03825 0.51418 0.43379 0.0
C1144 C 0.03214 0.52354 0.4635 0.0
C1145 C 0.01959 0.51409 0.50059 0.0
H1146 H 0.04797 0.52152 0.4051 0.0
H1147 H 0.92687 0.42999 0.76665 0.0
H1148 H 0.45716 0.93619 0.66695 0.0
H1149 H 0.48802 0.96379 0.65848 0.0
H1150 H 0.48122 0.96165 0.50476 0.0
H1151 H 0.45008 0.93472 0.51322 0.0
H1152 H 0.52196 0.97411 0.5635 0.0
H1153 H 0.47136 0.98663 0.51881 0.0
H1154 H 0.4407 0.98369 0.5321 0.0
H1155 H 0.45665 1.00455 0.67531 0.0
H1156 H 0.48724 1.00702 0.66334 0.0
H1157 H 0.58798 0.06727 0.50881 0.0
H1158 H 0.55997 0.03681 0.5023 0.0
H1159 H 0.54081 0.04583 0.63825 0.0
H1160 H 0.56821 0.07645 0.64351 0.0
H1161 H 0.51322 0.02844 0.58399 0.0
H1162 H 0.5678 0.02328 0.61732 0.0
H1163 H 0.59818 0.02637 0.60038 0.0
H1164 H 0.57606 0.99253 0.47493 0.0
H1165 H 0.5454 0.98915 0.49112 0.0
C1166 C 0.46257 0.94131 0.63138 0.0
C1167 C 0.45143 0.93364 0.59071 0.0
C1168 C 0.48011 0.95696 0.62659 0.0
C1169 C 0.48669 0.96461 0.58102 0.0
C1170 C 0.47628 0.95581 0.54009 0.0
C1171 C 0.45855 0.94056 0.54497 0.0
C1172 C 0.50253 0.98345 0.5768 0.0
C1173 C 0.52021 0.98609 0.56761 0.0
C1174 C 0.49997 0.99883 0.58241 0.0
C1175 C 0.48142 0.9967 0.59045 0.0
C1176 C 0.46818 0.99023 0.55345 0.0
C1177 C 0.45085 0.98868 0.56071 0.0
C1178 C 0.44672 0.99384 0.60461 0.0
C1179 C 0.45984 1.00042 0.64149 0.0
C1180 C 0.47716 1.00185 0.63453 0.0
C1181 C 0.57756 0.06276 0.53678 0.0
C1182 C 0.58018 0.07393 0.57692 0.0
C1183 C 0.5617 0.04537 0.53326 0.0
C1184 C 0.54867 0.03876 0.57072 0.0
C1185 C 0.55083 0.05048 0.60933 0.0
C1186 C 0.56645 0.06799 0.6123 0.0
C1187 C 0.53311 0.01948 0.57114 0.0
C1188 C 0.51527 0.01664 0.5798 0.0
C1189 C 0.53568 1.004 0.56474 0.0
C1190 C 0.55418 1.00592 0.55557 0.0
C1191 C 0.56929 0.01637 0.58631 0.0
C1192 C 0.58662 0.01823 0.57675 0.0
C1193 C 0.58906 1.00964 0.53666 0.0
C1194 C 0.57414 0.99914 0.50606 0.0
C1195 C 0.55677 0.99722 0.51548 0.0
H1196 H 0.60251 0.01114 0.52927 0.0
H1197 H 0.43342 0.99293 0.60981 0.0
H1198 H 0.58 0.60501 0.58292 0.0
H1199 H 0.59081 0.58363 0.60761 0.0
H1200 H 0.53968 0.53756 0.55642 0.0
H1201 H 0.52883 0.55868 0.53219 0.0
H1202 H 0.55991 0.54971 0.67437 0.0
H1203 H 0.55887 0.53335 0.49677 0.0
H1204 H 0.57331 0.54257 0.41689 0.0
H1205 H 0.62619 0.55667 0.4774 0.0
H1206 H 0.6121 0.54808 0.55806 0.0
H1207 H 0.51812 0.45517 0.69293 0.0
H1208 H 0.53179 0.4882 0.68452 0.0
H1209 H 0.58353 0.4925 0.63977 0.0
H1210 H 0.56862 0.45864 0.64151 0.0
H1211 H 0.57772 0.51026 0.58187 0.0
H1212 H 0.57465 0.5133 0.75199 0.0
H1213 H 0.5599 0.50282 0.83147 0.0
H1214 H 0.51751 0.51518 0.79197 0.0
H1215 H 0.53157 0.52535 0.71205 0.0
C1216 C 0.57151 0.5904 0.57481 0.0
C1217 C 0.55366 0.5834 0.55521 0.0
C1218 C 0.57765 0.57824 0.58917 0.0
C1219 C 0.56618 0.55911 0.58281 0.0
C1220 C 0.54893 0.55234 0.5603 0.0
C1221 C 0.54273 0.56438 0.54648 0.0
C1222 C 0.57005 0.5457 0.60723 0.0
C1223 C 0.56402 0.5411 0.65479 0.0
C1224 C 0.5762 0.53514 0.58204 0.0
C1225 C 0.58452 0.54053 0.53361 0.0
C1226 C 0.57364 0.53885 0.49331 0.0
C1227 C 0.58175 0.54386 0.4478 0.0
C1228 C 0.60068 0.5503 0.44209 0.0
C1229 C 0.61153 0.55171 0.48188 0.0
C1230 C 0.60351 0.54685 0.5275 0.0
C1231 C 0.53261 0.46317 0.68286 0.0
C1232 C 0.54234 0.45437 0.66803 0.0
C1233 C 0.5406 0.48229 0.67857 0.0
C1234 C 0.55898 0.49325 0.66238 0.0
C1235 C 0.56933 0.4845 0.65213 0.0
C1236 C 0.56092 0.46517 0.65372 0.0
C1237 C 0.56599 0.51299 0.64871 0.0
C1238 C 0.57422 0.51897 0.60312 0.0
C1239 C 0.56189 0.52487 0.67615 0.0
C1240 C 0.55424 0.52012 0.72574 0.0
C1241 C 0.56224 0.51387 0.76022 0.0
C1242 C 0.55395 0.5079 0.80528 0.0
C1243 C 0.53778 0.50821 0.81652 0.0
C1244 C 0.53 0.51485 0.7831 0.0
C1245 C 0.53817 0.5208 0.73795 0.0
H1246 H 0.53131 0.50336 0.85125 0.0
H1247 H 0.60693 0.55415 0.40683 0.0
H1248 H 0.54637 0.14905 0.13891 0.0
H1249 H 0.56816 0.14972 0.19915 0.0
H1250 H 0.52278 0.10527 0.27618 0.0
H1251 H 0.50099 0.10512 0.21731 0.0
H1252 H 0.54407 0.12559 0.33935 0.0
H1253 H 0.55565 0.1001 0.20145 0.0
H1254 H 0.56345 0.09672 0.11822 0.0
H1255 H 0.6162 0.14639 0.13168 0.0
H1256 H 0.60884 0.15003 0.21528 0.0
H1257 H 0.62604 0.10842 0.41322 0.0
H1258 H 0.60455 0.10791 0.35273 0.0
H1259 H 0.59996 0.15012 0.43053 0.0
H1260 H 0.62098 0.15018 0.49221 0.0
H1261 H 0.60263 0.12842 0.28996 0.0
H1262 H 0.55794 0.14645 0.41671 0.0
H1263 H 0.54751 0.14132 0.50106 0.0
H1264 H 0.5553 0.09418 0.50905 0.0
H1265 H 0.56547 0.09885 0.42459 0.0
C1266 C 0.54099 0.13956 0.16899 0.0
C1267 C 0.52178 0.12713 0.17305 0.0
C1268 C 0.55355 0.13978 0.20338 0.0
C1269 C 0.5474 0.12732 0.24249 0.0
C1270 C 0.52815 0.11512 0.24688 0.0
C1271 C 0.51559 0.11506 0.21291 0.0
C1272 C 0.56084 0.12701 0.2788 0.0
C1273 C 0.5569 0.12632 0.32822 0.0
C1274 C 0.57741 0.12719 0.26533 0.0
C1275 C 0.58162 0.12543 0.21455 0.0
C1276 C 0.56886 0.11039 0.1866 0.0
C1277 C 0.57321 0.10839 0.13938 0.0
C1278 C 0.59024 0.12137 0.11956 0.0
C1279 C 0.603 0.13636 0.14703 0.0
C1280 C 0.59877 0.13836 0.19441 0.0
C1281 C 0.62063 0.11777 0.41742 0.0
C1282 C 0.6254 0.12938 0.45802 0.0
C1283 C 0.60824 0.11745 0.38251 0.0
C1284 C 0.60017 0.12875 0.38679 0.0
C1285 C 0.60548 0.14087 0.42642 0.0
C1286 C 0.61774 0.14106 0.46165 0.0
C1287 C 0.58614 0.12767 0.35031 0.0
C1288 C 0.5899 0.12794 0.30095 0.0
C1289 C 0.56897 0.12614 0.36376 0.0
C1290 C 0.56269 0.12316 0.41447 0.0
C1291 C 0.55737 0.13496 0.43642 0.0
C1292 C 0.5515 0.13213 0.48426 0.0
C1293 C 0.55081 0.11748 0.51044 0.0
C1294 C 0.5559 0.10557 0.48879 0.0
C1295 C 0.56173 0.10831 0.44095 0.0
H1296 H 0.54629 0.11533 0.54748 0.0
H1297 H 0.59356 0.11979 0.08296 0.0
H1298 H 0.43774 0.51933 0.12759 0.0
H1299 H 0.45743 0.54078 0.18925 0.0
H1300 H 0.41003 0.52228 0.28231 0.0
H1301 H 0.39006 0.50054 0.22001 0.0
H1302 H 0.4302 0.55882 0.28626 0.0
H1303 H 0.44432 0.5106 0.30368 0.0
H1304 H 0.45333 0.48764 0.28063 0.0
H1305 H 0.50574 0.53122 0.22919 0.0
H1306 H 0.49694 0.55445 0.2514 0.0
H1307 H 0.48422 0.60296 0.49532 0.0
H1308 H 0.46358 0.58119 0.43514 0.0
H1309 H 0.50912 0.6008 0.3354 0.0
H1310 H 0.53003 0.62264 0.39602 0.0
H1311 H 0.48939 0.56317 0.33677 0.0
H1312 H 0.47379 0.61141 0.32262 0.0
H1313 H 0.46418 0.6331 0.35313 0.0
H1314 H 0.41325 0.58744 0.40528 0.0
H1315 H 0.42267 0.56548 0.37564 0.0
C1316 C 0.43144 0.51948 0.16141 0.0
C1317 C 0.41223 0.50787 0.16879 0.0
C1318 C 0.44282 0.53189 0.19689 0.0
C1319 C 0.43543 0.53315 0.24118 0.0
C1320 C 0.41621 0.52165 0.24868 0.0
C1321 C 0.40476 0.50914 0.21302 0.0
C1322 C 0.44776 0.54685 0.2786 0.0
C1323 C 0.443 0.55954 0.29773 0.0
C1324 C 0.46472 0.5482 0.29348 0.0
C1325 C 0.46991 0.53426 0.27889 0.0
C1326 C 0.45769 0.51528 0.28704 0.0
C1327 C 0.46279 0.50222 0.2743 0.0
C1328 C 0.48013 0.50798 0.25368 0.0
C1329 C 0.49235 0.5268 0.24541 0.0
C1330 C 0.48732 0.53991 0.25806 0.0
C1331 C 0.48989 0.60292 0.46039 0.0
C1332 C 0.5089 0.61478 0.45073 0.0
C1333 C 0.47797 0.59038 0.42578 0.0
C1334 C 0.48461 0.58928 0.3802 0.0
C1335 C 0.50354 0.60129 0.37011 0.0
C1336 C 0.5155 0.61394 0.40477 0.0
C1337 C 0.47192 0.57523 0.34394 0.0
C1338 C 0.47662 0.56246 0.32512 0.0
C1339 C 0.45478 0.57363 0.32993 0.0
C1340 C 0.44901 0.58681 0.34726 0.0
C1341 C 0.46059 0.606 0.34086 0.0
C1342 C 0.45518 0.61834 0.35796 0.0
C1343 C 0.43814 0.61165 0.38123 0.0
C1344 C 0.42645 0.5926 0.38729 0.0
C1345 C 0.43181 0.5802 0.3703 0.0
H1346 H 0.43397 0.62123 0.39447 0.0
H1347 H 0.48406 0.49785 0.24383 0.0
H1348 H 0.93346 0.41556 0.19413 0.0
H1349 H 0.93353 0.43802 0.25022 0.0
H1350 H 0.87434 0.41361 0.23235 0.0
H1351 H 0.87479 0.39237 0.17212 0.0
H1352 H 0.88499 0.44621 0.24098 0.0
H1353 H 0.90083 0.40939 0.34225 0.0
H1354 H 0.91855 0.39424 0.36669 0.0
H1355 H 0.96854 0.44714 0.37174 0.0
H1356 H 0.95113 0.46256 0.34735 0.0
H1357 H 0.87591 0.4865 0.46463 0.0
H1358 H 0.87568 0.46438 0.40602 0.0
H1359 H 0.93203 0.50356 0.36696 0.0
H1360 H 0.93217 0.52598 0.4243 0.0
H1361 H 0.9226 0.46376 0.38984 0.0
H1362 H 0.90433 0.49965 0.29039 0.0
H1363 H 0.88483 0.5133 0.27049 0.0
H1364 H 0.83647 0.45912 0.26872 0.0
H1365 H 0.85567 0.44517 0.28934 0.0
C1366 C 0.92041 0.41483 0.20268 0.0
C1367 C 0.90405 0.40188 0.17928 0.0
C1368 C 0.92039 0.42767 0.23536 0.0
C1369 C 0.90383 0.42745 0.24775 0.0
C1370 C 0.88741 0.41433 0.22431 0.0
C1371 C 0.88759 0.40196 0.19003 0.0
C1372 C 0.9037 0.44116 0.28357 0.0
C1373 C 0.89302 0.44966 0.2738 0.0
C1374 C 0.91431 0.44632 0.32673 0.0
C1375 C 0.92471 0.4371 0.34263 0.0
C1376 C 0.91561 0.41777 0.34857 0.0
C1377 C 0.92559 0.40914 0.36247 0.0
C1378 C 0.94466 0.4197 0.37078 0.0
C1379 C 0.95377 0.43894 0.36549 0.0
C1380 C 0.94384 0.44765 0.35174 0.0
C1381 C 0.88821 0.49053 0.4432 0.0
C1382 C 0.90401 0.50818 0.44912 0.0
C1383 C 0.88807 0.47781 0.40971 0.0
C1384 C 0.90385 0.48219 0.38191 0.0
C1385 C 0.91967 0.49976 0.38786 0.0
C1386 C 0.91967 0.51266 0.42052 0.0
C1387 C 0.90388 0.46844 0.34695 0.0
C1388 C 0.91452 0.46004 0.35702 0.0
C1389 C 0.89292 0.46304 0.3048 0.0
C1390 C 0.88141 0.47139 0.2919 0.0
C1391 C 0.88952 0.49066 0.28618 0.0
C1392 C 0.87852 0.49845 0.27468 0.0
C1393 C 0.85941 0.48709 0.26848 0.0
C1394 C 0.85127 0.46791 0.2736 0.0
C1395 C 0.8622 0.46005 0.28515 0.0
H1396 H 0.85092 0.49315 0.25959 0.0
H1397 H 0.95236 0.41296 0.3813 0.0
H1398 H 0.40722 0.86945 0.48847 0.0
H1399 H 0.42731 0.86801 0.42626 0.0
H1400 H 0.42705 0.91313 0.35098 0.0
H1401 H 0.40656 0.91416 0.41186 0.0
H1402 H 0.42623 0.89171 0.2871 0.0
H1403 H 0.46558 0.91795 0.42235 0.0
H1404 H 0.47637 0.92058 0.50595 0.0
H1405 H 0.4777 0.87001 0.49091 0.0
H1406 H 0.46687 0.86704 0.4072 0.0
H1407 H 0.52613 0.91064 0.21116 0.0
H1408 H 0.50473 0.91068 0.27081 0.0
H1409 H 0.45847 0.86949 0.18917 0.0
H1410 H 0.47994 0.87003 0.12812 0.0
H1411 H 0.48282 0.88968 0.33173 0.0
H1412 H 0.41932 0.86969 0.20869 0.0
H1413 H 0.41221 0.87517 0.12627 0.0
H1414 H 0.4648 0.92533 0.11831 0.0
H1415 H 0.47222 0.92018 0.20074 0.0
C1416 C 0.41125 0.87893 0.45839 0.0
C1417 C 0.40506 0.89185 0.45548 0.0
C1418 C 0.42298 0.87824 0.42285 0.0
C1419 C 0.42915 0.89066 0.38362 0.0
C1420 C 0.42264 0.90331 0.38035 0.0
C1421 C 0.41082 0.90388 0.41553 0.0
C1422 C 0.44236 0.89063 0.34617 0.0
C1423 C 0.43854 0.89116 0.29711 0.0
C1424 C 0.4589 0.89055 0.35825 0.0
C1425 C 0.4652 0.89215 0.4087 0.0
C1426 C 0.46802 0.90731 0.43699 0.0
C1427 C 0.47417 0.90888 0.48436 0.0
C1428 C 0.47761 0.89542 0.50381 0.0
C1429 C 0.47498 0.8804 0.47584 0.0
C1430 C 0.46887 0.87878 0.4284 0.0
C1431 C 0.5114 0.90145 0.20584 0.0
C1432 C 0.5049 0.89022 0.16455 0.0
C1433 C 0.49906 0.90151 0.24028 0.0
C1434 C 0.47971 0.89026 0.23502 0.0
C1435 C 0.47319 0.87871 0.19421 0.0
C1436 C 0.48556 0.87882 0.15934 0.0
C1437 C 0.46659 0.89052 0.27249 0.0
C1438 C 0.47043 0.89005 0.32163 0.0
C1439 C 0.45051 0.89154 0.26053 0.0
C1440 C 0.44643 0.89439 0.2105 0.0
C1441 C 0.4294 0.88185 0.18923 0.0
C1442 C 0.42532 0.8849 0.14255 0.0
C1443 C 0.43812 0.90054 0.11698 0.0
C1444 C 0.455 0.91316 0.13804 0.0
C1445 C 0.45918 0.91014 0.18463 0.0
H1446 H 0.43492 0.90294 0.08094 0.0
H1447 H 0.48237 0.89667 0.54049 0.0
H1448 H 0.54566 0.432 0.50764 0.0
H1449 H 0.56643 0.45005 0.44267 0.0
H1450 H 0.52702 0.41258 0.33925 0.0
H1451 H 0.50642 0.39375 0.40525 0.0
H1452 H 0.56072 0.42302 0.30893 0.0
H1453 H 0.53275 0.45811 0.36859 0.0
H1454 H 0.52423 0.47272 0.43314 0.0
H1455 H 0.58166 0.50698 0.47014 0.0
H1456 H 0.59051 0.49266 0.40566 0.0
H1457 H 0.59785 0.48259 0.1085 0.0
H1458 H 0.57909 0.46292 0.17397 0.0
H1459 H 0.61753 0.50195 0.2764 0.0
H1460 H 0.63614 0.52231 0.21032 0.0
H1461 H 0.58468 0.49077 0.3081 0.0
H1462 H 0.6134 0.4574 0.2494 0.0
H1463 H 0.62308 0.44229 0.18911 0.0
H1464 H 0.56608 0.40446 0.15461 0.0
H1465 H 0.55606 0.4195 0.21428 0.0
C1466 C 0.54143 0.42747 0.47106 0.0
C1467 C 0.52429 0.41147 0.46169 0.0
C1468 C 0.5533 0.43797 0.43371 0.0
C1469 C 0.54818 0.43322 0.3855 0.0
C1470 C 0.53133 0.41677 0.37596 0.0
C1471 C 0.51954 0.40595 0.41368 0.0
C1472 C 0.56037 0.44552 0.34561 0.0
C1473 C 0.56569 0.43778 0.30841 0.0
C1474 C 0.56754 0.465 0.34529 0.0
C1475 C 0.56227 0.47424 0.38249 0.0
C1476 C 0.54355 0.4688 0.39042 0.0
C1477 C 0.53867 0.47705 0.42696 0.0
C1478 C 0.5524 0.49077 0.45572 0.0
C1479 C 0.57105 0.49641 0.44771 0.0
C1480 C 0.57601 0.48829 0.41105 0.0
C1481 C 0.60257 0.48701 0.14484 0.0
C1482 C 0.61878 0.50411 0.15369 0.0
C1483 C 0.59175 0.47558 0.1826 0.0
C1484 C 0.59691 0.48056 0.23072 0.0
C1485 C 0.61315 0.4976 0.23982 0.0
C1486 C 0.6239 0.50923 0.20186 0.0
C1487 C 0.585 0.46826 0.27108 0.0
C1488 C 0.57972 0.47601 0.30842 0.0
C1489 C 0.57802 0.44882 0.27178 0.0
C1490 C 0.58399 0.43969 0.23602 0.0
C1491 C 0.60293 0.44594 0.22873 0.0
C1492 C 0.60848 0.43737 0.1947 0.0
C1493 C 0.5952 0.42245 0.16797 0.0
C1494 C 0.57635 0.41603 0.17531 0.0
C1495 C 0.57073 0.42456 0.20927 0.0
H1496 H 0.59953 0.41584 0.14164 0.0
H1497 H 0.54857 0.49702 0.48426 0.0
H1498 H 0.09689 0.58491 0.14768 0.0
H1499 H 0.09951 0.56681 0.21215 0.0
H1500 H 0.13737 0.61701 0.28657 0.0
H1501 H 0.13476 0.63547 0.2209 0.0
H1502 H 0.14993 0.5939 0.29362 0.0
H1503 H 0.09082 0.58676 0.32783 0.0
H1504 H 0.05856 0.57977 0.31724 0.0
H1505 H 0.04244 0.52432 0.27406 0.0
H1506 H 0.07463 0.53097 0.28444 0.0
H1507 H 0.14258 0.5425 0.51071 0.0
H1508 H 0.142 0.56363 0.45023 0.0
H1509 H 0.10969 0.51739 0.35666 0.0
H1510 H 0.11033 0.49623 0.41667 0.0
H1511 H 0.0946 0.53991 0.36402 0.0
H1512 H 0.15518 0.54833 0.33249 0.0
H1513 H 0.18685 0.5556 0.35391 0.0
H1514 H 0.1998 0.60994 0.39955 0.0
H1515 H 0.16809 0.6029 0.379 0.0
C1516 C 0.10551 0.59228 0.17807 0.0
C1517 C 0.11529 0.61183 0.17905 0.0
C1518 C 0.10702 0.58176 0.21531 0.0
C1519 C 0.11835 0.59032 0.25542 0.0
C1520 C 0.12838 0.60989 0.25647 0.0
C1521 C 0.12685 0.62051 0.21886 0.0
C1522 C 0.12006 0.57869 0.29475 0.0
C1523 C 0.13777 0.58231 0.30948 0.0
C1524 C 0.10434 0.56321 0.31551 0.0
C1525 C 0.08518 0.55943 0.30651 0.0
C1526 C 0.08044 0.57314 0.31552 0.0
C1527 C 0.06214 0.5692 0.30982 0.0
C1528 C 0.04845 0.55161 0.29501 0.0
C1529 C 0.05305 0.53792 0.28569 0.0
C1530 C 0.07131 0.54176 0.29153 0.0
C1531 C 0.13562 0.53681 0.47695 0.0
C1532 C 0.12664 0.51754 0.46879 0.0
C1533 C 0.13528 0.54897 0.44223 0.0
C1534 C 0.12583 0.54225 0.3984 0.0
C1535 C 0.11709 0.52306 0.38994 0.0
C1536 C 0.1176 0.51093 0.42435 0.0
C1537 C 0.12439 0.555 0.36222 0.0
C1538 C 0.10673 0.55154 0.3481 0.0
C1539 C 0.14012 0.57073 0.34263 0.0
C1540 C 0.15921 0.57502 0.35467 0.0
C1541 C 0.16473 0.56178 0.34745 0.0
C1542 C 0.1827 0.56587 0.35937 0.0
C1543 C 0.19531 0.5832 0.37821 0.0
C1544 C 0.19 0.59651 0.38502 0.0
C1545 C 0.17204 0.59249 0.3732 0.0
H1546 H 0.20922 0.58634 0.38742 0.0
H1547 H 0.03429 0.54859 0.29062 0.0
H1548 H 0.37254 0.83554 0.65336 0.0
H1549 H 0.37994 0.81769 0.70972 0.0
H1550 H 0.37524 0.84889 0.82713 0.0
H1551 H 0.36648 0.86553 0.77137 0.0
H1552 H 0.41106 0.83642 0.74349 0.0
H1553 H 0.37968 0.83759 0.93212 0.0
H1554 H 0.34871 0.82532 0.96823 0.0
H1555 H 0.3251 0.7838 0.85853 0.0
H1556 H 0.35593 0.79574 0.82175 0.0
H1557 H 0.47477 0.88848 0.91165 0.0
H1558 H 0.44685 0.87255 0.86291 0.0
H1559 H 0.43348 0.82052 0.92913 0.0
H1560 H 0.46158 0.83643 0.97854 0.0
H1561 H 0.40253 0.8271 0.9194 0.0
H1562 H 0.44792 0.8243 0.82317 0.0
H1563 H 0.47881 0.83609 0.78679 0.0
H1564 H 0.47266 0.87742 0.71005 0.0
H1565 H 0.44187 0.86608 0.74651 0.0
C1566 C 0.37207 0.83776 0.69152 0.0
C1567 C 0.36945 0.85215 0.70821 0.0
C1568 C 0.37629 0.82757 0.72374 0.0
C1569 C 0.37865 0.8322 0.77271 0.0
C1570 C 0.37341 0.8448 0.78979 0.0
C1571 C 0.36856 0.85454 0.75769 0.0
C1572 C 0.39151 0.82871 0.80206 0.0
C1573 C 0.40888 0.8338 0.78172 0.0
C1574 C 0.38877 0.82487 0.85186 0.0
C1575 C 0.3702 0.81754 0.87424 0.0
C1576 C 0.36794 0.82572 0.91591 0.0
C1577 C 0.35038 0.81886 0.93642 0.0
C1578 C 0.33496 0.80374 0.91582 0.0
C1579 C 0.33706 0.79547 0.87456 0.0
C1580 C 0.35457 0.80235 0.85372 0.0
C1581 C 0.46595 0.87366 0.91596 0.0
C1582 C 0.47044 0.86369 0.94867 0.0
C1583 C 0.45001 0.86458 0.88808 0.0
C1584 C 0.43827 0.84537 0.89228 0.0
C1585 C 0.44245 0.83535 0.92546 0.0
C1586 C 0.45853 0.84445 0.95334 0.0
C1587 C 0.42191 0.83613 0.86072 0.0
C1588 C 0.40415 0.82876 0.88079 0.0
C1589 C 0.42412 0.83756 0.81044 0.0
C1590 C 0.44254 0.84429 0.78759 0.0
C1591 C 0.45317 0.83594 0.79866 0.0
C1592 C 0.47068 0.84255 0.77803 0.0
C1593 C 0.47769 0.85749 0.74611 0.0
C1594 C 0.4672 0.86583 0.7347 0.0
C1595 C 0.44969 0.85928 0.75526 0.0
H1596 H 0.49125 0.8626 0.73022 0.0
H1597 H 0.32137 0.79849 0.93164 0.0
H1598 H 0.55098 0.39571 0.59595 0.0
H1599 H 0.57934 0.42217 0.62853 0.0
H1600 H 0.55013 0.41847 0.75989 0.0
H1601 H 0.52185 0.3925 0.72677 0.0
H1602 H 0.5714 0.45343 0.73516 0.0
H1603 H 0.57724 0.39861 0.74952 0.0
H1604 H 0.57839 0.37155 0.7181 0.0
H1605 H 0.62528 0.40733 0.63048 0.0
H1606 H 0.62423 0.43459 0.66101 0.0
H1607 H 0.61768 0.46943 0.93649 0.0
H1608 H 0.60754 0.44979 0.86541 0.0
H1609 H 0.64521 0.49622 0.77799 0.0
H1610 H 0.65591 0.51588 0.84967 0.0
H1611 H 0.62612 0.44566 0.76112 0.0
H1612 H 0.61685 0.50207 0.74858 0.0
H1613 H 0.61568 0.52647 0.79623 0.0
H1614 H 0.575 0.48514 0.88951 0.0
H1615 H 0.57602 0.46054 0.8426 0.0
C1616 C 0.55076 0.40078 0.63158 0.0
C1617 C 0.53453 0.39236 0.65921 0.0
C1618 C 0.56684 0.41578 0.65008 0.0
C1619 C 0.5668 0.42218 0.69665 0.0
C1620 C 0.55039 0.41381 0.72379 0.0
C1621 C 0.53434 0.39898 0.70513 0.0
C1622 C 0.58396 0.43686 0.71885 0.0
C1623 C 0.58364 0.4521 0.73891 0.0
C1624 C 0.5998 0.43491 0.72506 0.0
C1625 C 0.60051 0.41858 0.70702 0.0
C1626 C 0.5877 0.40068 0.72329 0.0
C1627 C 0.58835 0.38531 0.7057 0.0
C1628 C 0.60186 0.38771 0.67219 0.0
C1629 C 0.61479 0.40549 0.65634 0.0
C1630 C 0.61418 0.4209 0.67377 0.0
C1631 C 0.62447 0.47517 0.9025 0.0
C1632 C 0.63732 0.49408 0.89801 0.0
C1633 C 0.61883 0.46394 0.86207 0.0
C1634 C 0.62561 0.47167 0.81673 0.0
C1635 C 0.64005 0.49005 0.8129 0.0
C1636 C 0.64603 0.50125 0.85373 0.0
C1637 C 0.61363 0.46236 0.77542 0.0
C1638 C 0.61458 0.44782 0.7532 0.0
C1639 C 0.59836 0.46494 0.76679 0.0
C1640 C 0.59648 0.47954 0.79212 0.0
C1641 C 0.60755 0.49822 0.779 0.0
C1642 C 0.60697 0.51207 0.80595 0.0
C1643 C 0.59532 0.50735 0.84587 0.0
C1644 C 0.58405 0.48877 0.85864 0.0
C1645 C 0.58455 0.47487 0.83178 0.0
H1646 H 0.5949 0.51807 0.86672 0.0
H1647 H 0.60234 0.3758 0.6586 0.0
H1648 H 0.1361 0.50982 0.78942 0.0
H1649 H 0.14543 0.53498 0.84728 0.0
H1650 H 0.1772 0.57479 0.73694 0.0
H1651 H 0.16669 0.54965 0.67841 0.0
H1652 H 0.17242 0.56296 0.88788 0.0
H1653 H 0.16881 0.60984 0.73853 0.0
H1654 H 0.15459 0.60662 0.65876 0.0
H1655 H 0.11207 0.55129 0.69406 0.0
H1656 H 0.12588 0.5543 0.77421 0.0
H1657 H 0.18644 0.64411 1.00627 0.0
H1658 H 0.1893 0.62278 0.95131 0.0
H1659 H 0.1344 0.60528 0.89657 0.0
H1660 H 0.1323 0.62768 0.94872 0.0
H1661 H 0.15362 0.60724 0.82764 0.0
H1662 H 0.14442 0.57888 0.98089 0.0
H1663 H 0.15004 0.57644 0.06691 0.0
H1664 H 0.20436 0.58556 0.03378 0.0
H1665 H 0.19907 0.58831 0.94769 0.0
C1666 C 0.14555 0.52393 0.77816 0.0
C1667 C 0.15062 0.52804 0.7299 0.0
C1668 C 0.15091 0.53827 0.81112 0.0
C1669 C 0.1616 0.55677 0.796 0.0
C1670 C 0.16856 0.56063 0.74895 0.0
C1671 C 0.16269 0.54634 0.71569 0.0
C1672 C 0.16288 0.57176 0.82683 0.0
C1673 C 0.16851 0.57278 0.87469 0.0
C1674 C 0.15703 0.58408 0.81006 0.0
C1675 C 0.14855 0.58222 0.76204 0.0
C1676 C 0.15641 0.59702 0.72925 0.0
C1677 C 0.14842 0.59523 0.684 0.0
C1678 C 0.13249 0.57874 0.67128 0.0
C1679 C 0.12445 0.56403 0.70387 0.0
C1680 C 0.13236 0.56577 0.7492 0.0
C1681 C 0.17505 0.63568 0.9823 0.0
C1682 C 0.15881 0.63683 0.98272 0.0
C1683 C 0.17662 0.62343 0.95126 0.0
C1684 C 0.16186 0.61204 0.92073 0.0
C1685 C 0.14593 0.61378 0.92006 0.0
C1686 C 0.14456 0.6263 0.95037 0.0
C1687 C 0.16292 0.59835 0.88913 0.0
C1688 C 0.15783 0.59764 0.84089 0.0
C1689 C 0.16805 0.58555 0.90648 0.0
C1690 C 0.17143 0.58407 0.95811 0.0
C1691 C 0.1576 0.58055 0.99216 0.0
C1692 C 0.16071 0.57907 0.04084 0.0
C1693 C 0.17758 0.58091 0.05582 0.0
C1694 C 0.19132 0.58419 0.02213 0.0
C1695 C 0.18827 0.58571 0.97339 0.0
H1696 H 0.17997 0.57974 0.09352 0.0
H1697 H 0.12634 0.57738 0.63621 0.0
H1698 H 0.6683 0.17729 0.73338 0.0
H1699 H 0.66036 0.19368 0.79346 0.0
H1700 H 0.6104 0.17998 0.71503 0.0
H1701 H 0.61827 0.16384 0.6553 0.0
H1702 H 0.62224 0.21175 0.76824 0.0
H1703 H 0.60994 0.14752 0.78812 0.0
H1704 H 0.62045 0.12464 0.79411 0.0
H1705 H 0.65649 0.15521 0.91079 0.0
H1706 H 0.64631 0.17839 0.90499 0.0
H1707 H 0.53596 0.16002 0.87504 0.0
H1708 H 0.5656 0.17831 0.83405 0.0
H1709 H 0.59457 0.1826 0.96635 0.0
H1710 H 0.56489 0.16329 1.00645 0.0
H1711 H 0.60457 0.16773 0.90435 0.0
H1712 H 0.60066 0.22248 0.89947 0.0
H1713 H 0.58622 0.24183 0.88809 0.0
H1714 H 0.57693 0.2267 0.73928 0.0
H1715 H 0.591 0.20702 0.7498 0.0
C1716 C 0.65601 0.17843 0.72812 0.0
C1717 C 0.64355 0.16885 0.69075 0.0
C1718 C 0.65155 0.18787 0.76227 0.0
C1719 C 0.63462 0.18771 0.75909 0.0
C1720 C 0.6235 0.18024 0.71826 0.0
C1721 C 0.62788 0.17078 0.68448 0.0
C1722 C 0.62597 0.19061 0.80196 0.0
C1723 C 0.61856 0.20245 0.7987 0.0
C1724 C 0.62152 0.17867 0.84196 0.0
C1725 C 0.62758 0.16476 0.84573 0.0
C1726 C 0.62018 0.14938 0.81487 0.0
C1727 C 0.62606 0.13638 0.81822 0.0
C1728 C 0.63918 0.1385 0.85271 0.0
C1729 C 0.64638 0.15362 0.884 0.0
C1730 C 0.64058 0.1667 0.88067 0.0
C1731 C 0.54867 0.16533 0.89551 0.0
C1732 C 0.54829 0.16002 0.9434 0.0
C1733 C 0.56565 0.176 0.87228 0.0
C1734 C 0.58242 0.18196 0.89714 0.0
C1735 C 0.58186 0.17814 0.94638 0.0
C1736 C 0.56494 0.16704 0.96917 0.0
C1737 C 0.59987 0.18827 0.86989 0.0
C1738 C 0.60891 0.17799 0.87595 0.0
C1739 C 0.6054 0.20136 0.83211 0.0
C1740 C 0.59698 0.21329 0.82547 0.0
C1741 C 0.59547 0.2232 0.86435 0.0
C1742 C 0.58734 0.23423 0.85804 0.0
C1743 C 0.58071 0.23552 0.81296 0.0
C1744 C 0.58214 0.22574 0.77413 0.0
C1745 C 0.59024 0.21468 0.78023 0.0
H1746 H 0.57448 0.24411 0.808 0.0
H1747 H 0.64371 0.12842 0.85529 0.0
H1748 H 0.48718 0.6176 0.73412 0.0
H1749 H 0.46156 0.59814 0.788 0.0
H1750 H 0.45503 0.54915 0.71768 0.0
H1751 H 0.48066 0.56848 0.66368 0.0
H1752 H 0.42171 0.54715 0.73344 0.0
H1753 H 0.47474 0.5593 0.81806 0.0
H1754 H 0.50571 0.57579 0.8548 0.0
H1755 H 0.48744 0.60377 0.95042 0.0
H1756 H 0.45649 0.588 0.91296 0.0
H1757 H 0.37073 0.48885 0.93647 0.0
H1758 H 0.39093 0.50445 0.86736 0.0
H1759 H 0.39852 0.55682 0.9171 0.0
H1760 H 0.37805 0.54116 0.98551 0.0
H1761 H 0.43111 0.55475 0.90946 0.0
H1762 H 0.37621 0.53931 0.81515 0.0
H1763 H 0.3455 0.51742 0.78158 0.0
H1764 H 0.36869 0.48823 0.7091 0.0
H1765 H 0.39949 0.50978 0.74284 0.0
C1766 C 0.48027 0.6027 0.73007 0.0
C1767 C 0.48594 0.59455 0.69489 0.0
C1768 C 0.46569 0.59162 0.76086 0.0
C1769 C 0.45655 0.57226 0.75679 0.0
C1770 C 0.46195 0.56408 0.72119 0.0
C1771 C 0.47663 0.57515 0.69063 0.0
C1772 C 0.44151 0.56066 0.79038 0.0
C1773 C 0.42379 0.54857 0.77198 0.0
C1774 C 0.4444 0.56243 0.84051 0.0
C1775 C 0.46329 0.57268 0.86193 0.0
C1776 C 0.47739 0.5693 0.84611 0.0
C1777 C 0.49496 0.57847 0.86723 0.0
C1778 C 0.49857 0.59086 0.90484 0.0
C1779 C 0.48464 0.5942 0.92118 0.0
C1780 C 0.46709 0.58519 0.89987 0.0
C1781 C 0.37638 0.50361 0.93164 0.0
C1782 C 0.37322 0.514 0.96596 0.0
C1783 C 0.38773 0.51245 0.8922 0.0
C1784 C 0.3962 0.53175 0.88751 0.0
C1785 C 0.39208 0.54191 0.92039 0.0
C1786 C 0.38046 0.53302 0.95923 0.0
C1787 C 0.41128 0.54165 0.85266 0.0
C1788 C 0.42908 0.55334 0.87094 0.0
C1789 C 0.40859 0.53883 0.80271 0.0
C1790 C 0.39013 0.52608 0.78182 0.0
C1791 C 0.37474 0.52815 0.79232 0.0
C1792 C 0.35732 0.51582 0.77321 0.0
C1793 C 0.35514 0.50143 0.74329 0.0
C1794 C 0.3704 0.49938 0.7323 0.0
C1795 C 0.38784 0.51166 0.75135 0.0
H1796 H 0.34164 0.49188 0.72857 0.0
H1797 H 0.51213 0.59782 0.92145 0.0
H1798 H 0.89443 0.38477 0.85868 0.0
H1799 H 0.8924 0.40402 0.79483 0.0
H1800 H 0.8695 0.42635 0.89616 0.0
H1801 H 0.8722 0.40777 0.96002 0.0
H1802 H 0.86808 0.41243 0.75187 0.0
H1803 H 0.89478 0.47198 0.89559 0.0
H1804 H 0.91485 0.48151 0.96721 0.0
H1805 H 0.9413 0.45183 0.91634 0.0
H1806 H 0.92166 0.44242 0.84403 0.0
H1807 H 0.84247 0.47589 0.68377 0.0
H1808 H 0.84891 0.45357 0.72328 0.0
H1809 H 0.90694 0.49517 0.73281 0.0
H1810 H 0.89999 0.51786 0.69742 0.0
H1811 H 0.89989 0.47788 0.80613 0.0
H1812 H 0.88851 0.45785 0.64936 0.0
H1813 H 0.87414 0.44905 0.56922 0.0
H1814 H 0.8267 0.40177 0.6301 0.0
H1815 H 0.84072 0.41045 0.71059 0.0
C1816 C 0.88831 0.39328 0.86662 0.0
C1817 C 0.88359 0.39506 0.91388 0.0
C1818 C 0.88726 0.40429 0.83034 0.0
C1819 C 0.88134 0.41691 0.84144 0.0
C1820 C 0.87453 0.41696 0.88743 0.0
C1821 C 0.87592 0.40629 0.92369 0.0
C1822 C 0.88414 0.4316 0.80752 0.0
C1823 C 0.87506 0.42678 0.76323 0.0
C1824 C 0.89449 0.4504 0.82125 0.0
C1825 C 0.90663 0.4564 0.86441 0.0
C1826 C 0.90497 0.4676 0.89946 0.0
C1827 C 0.91626 0.47296 0.94025 0.0
C1828 C 0.92932 0.46725 0.94637 0.0
C1829 C 0.93116 0.45622 0.91162 0.0
C1830 C 0.91994 0.45086 0.87074 0.0
C1831 C 0.85656 0.4802 0.69455 0.0
C1832 C 0.87095 0.49828 0.68596 0.0
C1833 C 0.8603 0.46741 0.71643 0.0
C1834 C 0.87856 0.47243 0.72912 0.0
C1835 C 0.89278 0.49083 0.72261 0.0
C1836 C 0.8889 0.50375 0.7019 0.0
C1837 C 0.88245 0.45865 0.75165 0.0
C1838 C 0.89309 0.46366 0.79375 0.0
C1839 C 0.87445 0.44023 0.73429 0.0
C1840 C 0.86573 0.43485 0.68604 0.0
C1841 C 0.87501 0.44561 0.64559 0.0
C1842 C 0.86691 0.44065 0.60013 0.0
C1843 C 0.84952 0.42485 0.59456 0.0
C1844 C 0.8402 0.41399 0.63446 0.0
C1845 C 0.84824 0.41892 0.68003 0.0
H1846 H 0.84326 0.42101 0.55933 0.0
H1847 H 0.93801 0.47138 0.97802 0.0
H1848 H 0.45358 0.16844 0.186 0.0
H1849 H 0.45215 0.18517 0.25689 0.0
H1850 H 0.4958 0.23636 0.19788 0.0
H1851 H 0.49796 0.21968 0.12894 0.0
H1852 H 0.50104 0.2377 0.28747 0.0
H1853 H 0.44678 0.22155 0.19187 0.0
H1854 H 0.41762 0.20058 0.14981 0.0
H1855 H 0.39353 0.17227 0.28216 0.0
H1856 H 0.42262 0.19295 0.3249 0.0
H1857 H 0.48716 0.30051 0.43074 0.0
H1858 H 0.48825 0.28301 0.36128 0.0
H1859 H 0.44696 0.23213 0.4273 0.0
H1860 H 0.44531 0.24954 0.49553 0.0
H1861 H 0.44038 0.23039 0.33525 0.0
H1862 H 0.49506 0.24751 0.43056 0.0
H1863 H 0.52415 0.26933 0.47162 0.0
H1864 H 0.54744 0.29676 0.33781 0.0
H1865 H 0.5184 0.27522 0.29604 0.0
C1866 C 0.46313 0.18319 0.18869 0.0
C1867 C 0.4757 0.19269 0.15122 0.0
C1868 C 0.46212 0.19284 0.22898 0.0
C1869 C 0.47352 0.21224 0.23254 0.0
C1870 C 0.4867 0.2215 0.19628 0.0
C1871 C 0.48783 0.21189 0.15649 0.0
C1872 C 0.47168 0.22312 0.27307 0.0
C1873 C 0.48775 0.23618 0.29741 0.0
C1874 C 0.45439 0.22114 0.28713 0.0
C1875 C 0.43694 0.20866 0.26145 0.0
C1876 C 0.4353 0.21076 0.21191 0.0
C1877 C 0.41878 0.19895 0.18797 0.0
C1878 C 0.40375 0.18507 0.21327 0.0
C1879 C 0.40519 0.18301 0.26259 0.0
C1880 C 0.42169 0.19477 0.28669 0.0
C1881 C 0.47805 0.28564 0.43001 0.0
C1882 C 0.4663 0.27647 0.46915 0.0
C1883 C 0.47885 0.27558 0.39048 0.0
C1884 C 0.468 0.2561 0.38925 0.0
C1885 C 0.45562 0.24708 0.42724 0.0
C1886 C 0.45477 0.25709 0.46652 0.0
C1887 C 0.46972 0.24497 0.34934 0.0
C1888 C 0.45364 0.23187 0.32521 0.0
C1889 C 0.48701 0.247 0.33525 0.0
C1890 C 0.50451 0.25987 0.36028 0.0
C1891 C 0.50635 0.25826 0.40996 0.0
C1892 C 0.52283 0.27057 0.43334 0.0
C1893 C 0.53762 0.28445 0.40736 0.0
C1894 C 0.53597 0.28602 0.3579 0.0
C1895 C 0.51951 0.27376 0.33435 0.0
H1896 H 0.55037 0.29396 0.42553 0.0
H1897 H 0.39097 0.17595 0.19467 0.0
H1898 H 0.19775 0.43912 0.50164 0.0
H1899 H 0.21589 0.4394 0.43253 0.0
H1900 H 0.21104 0.48418 0.37006 0.0
H1901 H 0.1925 0.48371 0.43943 0.0
H1902 H 0.20855 0.46057 0.30169 0.0
H1903 H 0.2508 0.4917 0.43061 0.0
H1904 H 0.26336 0.49551 0.51258 0.0
H1905 H 0.27095 0.44866 0.49235 0.0
H1906 H 0.25816 0.44439 0.41048 0.0
H1907 H 0.28233 0.48963 0.13666 0.0
H1908 H 0.26389 0.48886 0.20559 0.0
H1909 H 0.26608 0.44191 0.26276 0.0
H1910 H 0.2845 0.44247 0.19313 0.0
H1911 H 0.27 0.46659 0.33364 0.0
H1912 H 0.2278 0.43569 0.20426 0.0
H1913 H 0.21544 0.43221 0.12216 0.0
H1914 H 0.20811 0.47918 0.14325 0.0
H1915 H 0.2207 0.48312 0.22528 0.0
C1916 C 0.20039 0.44893 0.47297 0.0
C1917 C 0.19382 0.46152 0.4763 0.0
C1918 C 0.21089 0.44916 0.43352 0.0
C1919 C 0.21535 0.46215 0.39642 0.0
C1920 C 0.20797 0.47411 0.39833 0.0
C1921 C 0.19729 0.4738 0.43788 0.0
C1922 C 0.22802 0.46341 0.35651 0.0
C1923 C 0.22209 0.46216 0.30877 0.0
C1924 C 0.2456 0.46506 0.36538 0.0
C1925 C 0.25335 0.46762 0.41456 0.0
C1926 C 0.25501 0.48212 0.44377 0.0
C1927 C 0.26219 0.48438 0.4902 0.0
C1928 C 0.26791 0.47231 0.5077 0.0
C1929 C 0.26649 0.45798 0.47877 0.0
C1930 C 0.25929 0.45565 0.43234 0.0
C1931 C 0.27898 0.47915 0.16394 0.0
C1932 C 0.28474 0.46595 0.15885 0.0
C1933 C 0.26837 0.47871 0.20339 0.0
C1934 C 0.26318 0.46507 0.23903 0.0
C1935 C 0.26977 0.4525 0.23561 0.0
C1936 C 0.2804 0.4529 0.19589 0.0
C1937 C 0.25052 0.46376 0.27894 0.0
C1938 C 0.25646 0.465 0.32664 0.0
C1939 C 0.23298 0.46216 0.27004 0.0
C1940 C 0.22537 0.45981 0.22076 0.0
C1941 C 0.2237 0.44537 0.19126 0.0
C1942 C 0.21663 0.4433 0.14476 0.0
C1943 C 0.21104 0.4555 0.12746 0.0
C1944 C 0.21247 0.46976 0.15668 0.0
C1945 C 0.21956 0.47191 0.20319 0.0
H1946 H 0.20556 0.45387 0.09145 0.0
H1947 H 0.27347 0.47408 0.54365 0.0
H1948 H 0.745 0.22345 0.50377 0.0
H1949 H 0.76369 0.2407 0.43524 0.0
H1950 H 0.75542 0.18999 0.37162 0.0
H1951 H 0.73748 0.17263 0.44237 0.0
H1952 H 0.79007 0.21513 0.3614 0.0
H1953 H 0.73385 0.21544 0.32894 0.0
H1954 H 0.7074 0.22001 0.34677 0.0
H1955 H 0.74475 0.27779 0.37272 0.0
H1956 H 0.77146 0.27352 0.35568 0.0
H1957 H 0.82493 0.25496 0.13231 0.0
H1958 H 0.80652 0.23735 0.20114 0.0
H1959 H 0.81753 0.28804 0.27054 0.0
H1960 H 0.83566 0.30585 0.20031 0.0
H1961 H 0.78142 0.26273 0.27707 0.0
H1962 H 0.83771 0.26186 0.30833 0.0
H1963 H 0.8637 0.25676 0.28879 0.0
H1964 H 0.82543 0.19921 0.26252 0.0
H1965 H 0.79918 0.20401 0.28126 0.0
C1966 C 0.74709 0.21586 0.4753 0.0
C1967 C 0.73979 0.19656 0.47918 0.0
C1968 C 0.75768 0.2258 0.43556 0.0
C1969 C 0.76093 0.21677 0.39745 0.0
C1970 C 0.75318 0.19739 0.40034 0.0
C1971 C 0.7427 0.1874 0.44064 0.0
C1972 C 0.77301 0.22774 0.35592 0.0
C1973 C 0.78794 0.2253 0.34251 0.0
C1974 C 0.77071 0.24147 0.33165 0.0
C1975 C 0.75466 0.24412 0.34138 0.0
C1976 C 0.73643 0.2291 0.33871 0.0
C1977 C 0.72139 0.23164 0.34865 0.0
C1978 C 0.7244 0.24917 0.36097 0.0
C1979 C 0.74245 0.26421 0.36321 0.0
C1980 C 0.75754 0.26175 0.35335 0.0
C1981 C 0.82357 0.26245 0.16231 0.0
C1982 C 0.83173 0.28188 0.16047 0.0
C1983 C 0.8131 0.2523 0.202 0.0
C1984 C 0.81062 0.26125 0.24159 0.0
C1985 C 0.81918 0.28074 0.24058 0.0
C1986 C 0.82971 0.29095 0.2006 0.0
C1987 C 0.79847 0.25013 0.28275 0.0
C1988 C 0.78353 0.25255 0.29601 0.0
C1989 C 0.80068 0.23629 0.3066 0.0
C1990 C 0.81646 0.23333 0.29584 0.0
C1991 C 0.83482 0.24814 0.2981 0.0
C1992 C 0.84961 0.2453 0.2872 0.0
C1993 C 0.84622 0.22768 0.27433 0.0
C1994 C 0.82804 0.21285 0.27246 0.0
C1995 C 0.8132 0.21562 0.28328 0.0
H1996 H 0.85768 0.22551 0.26587 0.0
H1997 H 0.71273 0.2511 0.36869 0.0
H1998 H 0.53854 0.83028 0.18373 0.0
H1999 H 0.53793 0.81195 0.2537 0.0
H2000 H 0.58107 0.80469 0.1899 0.0
H2001 H 0.58161 0.82279 0.12037 0.0
H2002 H 0.55475 0.7725 0.22078 0.0
H2003 H 0.58882 0.83321 0.28871 0.0
H2004 H 0.59476 0.86433 0.31099 0.0
H2005 H 0.54582 0.8401 0.3988 0.0
H2006 H 0.53944 0.80882 0.3765 0.0
H2007 H 0.57556 0.73453 0.42939 0.0
H2008 H 0.57677 0.75329 0.35979 0.0
H2009 H 0.53172 0.75847 0.41887 0.0
H2010 H 0.53029 0.73965 0.48765 0.0
H2011 H 0.5593 0.79181 0.39071 0.0
H2012 H 0.52542 0.73099 0.32195 0.0
H2013 H 0.52 0.70003 0.29995 0.0
H2014 H 0.56938 0.72484 0.21382 0.0
H2015 H 0.57525 0.75597 0.23588 0.0
C2016 C 0.54814 0.82509 0.18517 0.0
C2017 C 0.56004 0.82795 0.14626 0.0
C2018 C 0.54776 0.81452 0.22515 0.0
C2019 C 0.55942 0.80676 0.22732 0.0
C2020 C 0.57177 0.81026 0.1892 0.0
C2021 C 0.57212 0.82072 0.14943 0.0
C2022 C 0.55846 0.79451 0.26817 0.0
C2023 C 0.556 0.77688 0.25789 0.0
C2024 C 0.55972 0.79989 0.31687 0.0
C2025 C 0.56355 0.81867 0.33052 0.0
C2026 C 0.57924 0.83452 0.31247 0.0
C2027 C 0.5827 0.85219 0.32515 0.0
C2028 C 0.57065 0.85419 0.35618 0.0
C2029 C 0.55513 0.83853 0.3747 0.0
C2030 C 0.55159 0.82082 0.36209 0.0
C2031 C 0.56567 0.73934 0.42703 0.0
C2032 C 0.55293 0.73564 0.46448 0.0
C2033 C 0.56643 0.75018 0.3873 0.0
C2034 C 0.55441 0.75749 0.38399 0.0
C2035 C 0.54131 0.75326 0.42059 0.0
C2036 C 0.5405 0.74242 0.45998 0.0
C2037 C 0.5556 0.76985 0.34324 0.0
C2038 C 0.55808 0.78747 0.35357 0.0
C2039 C 0.55444 0.7645 0.29458 0.0
C2040 C 0.55088 0.74581 0.28098 0.0
C2041 C 0.53521 0.72984 0.29862 0.0
C2042 C 0.53204 0.71226 0.28609 0.0
C2043 C 0.54437 0.71047 0.25562 0.0
C2044 C 0.55986 0.72625 0.23749 0.0
C2045 C 0.56311 0.74387 0.24996 0.0
H2046 H 0.54189 0.69684 0.24596 0.0
H2047 H 0.57335 0.86788 0.36595 0.0
H2048 H 0.8366 0.53762 0.42297 0.0
H2049 H 0.81816 0.53697 0.35321 0.0
H2050 H 0.80961 0.57895 0.41875 0.0
H2051 H 0.82784 0.57956 0.48807 0.0
H2052 H 0.77765 0.5523 0.38695 0.0
H2053 H 0.83859 0.5879 0.31992 0.0
H2054 H 0.87001 0.59452 0.29792 0.0
H2055 H 0.84681 0.5461 0.20876 0.0
H2056 H 0.81522 0.53905 0.23074 0.0
H2057 H 0.73935 0.57367 0.18028 0.0
H2058 H 0.75793 0.5745 0.24983 0.0
H2059 H 0.76491 0.53115 0.18691 0.0
H2060 H 0.7463 0.53014 0.11806 0.0
H2061 H 0.79767 0.55855 0.21715 0.0
H2062 H 0.73669 0.5231 0.28428 0.0
H2063 H 0.70533 0.51667 0.30624 0.0
H2064 H 0.72877 0.56514 0.39526 0.0
H2065 H 0.7603 0.57201 0.37328 0.0
C2066 C 0.83112 0.54698 0.42196 0.0
C2067 C 0.83367 0.55858 0.4613 0.0
C2068 C 0.82048 0.54656 0.3821 0.0
C2069 C 0.81232 0.55788 0.38045 0.0
C2070 C 0.81549 0.56992 0.41902 0.0
C2071 C 0.82603 0.57031 0.45867 0.0
C2072 C 0.80002 0.55687 0.33963 0.0
C2073 C 0.78218 0.55392 0.34988 0.0
C2074 C 0.80559 0.55858 0.29095 0.0
C2075 C 0.82455 0.56285 0.27736 0.0
C2076 C 0.84019 0.57859 0.29589 0.0
C2077 C 0.85802 0.58244 0.28338 0.0
C2078 C 0.8604 0.57071 0.25207 0.0
C2079 C 0.84494 0.55515 0.23307 0.0
C2080 C 0.82707 0.55123 0.2455 0.0
C2081 C 0.7445 0.56405 0.18177 0.0
C2082 C 0.74137 0.55193 0.14323 0.0
C2083 C 0.75524 0.56459 0.2215 0.0
C2084 C 0.76301 0.55295 0.22377 0.0
C2085 C 0.75934 0.54044 0.18606 0.0
C2086 C 0.74861 0.53986 0.14662 0.0
C2087 C 0.77533 0.554 0.26453 0.0
C2088 C 0.79317 0.55695 0.25424 0.0
C2089 C 0.76978 0.55233 0.31318 0.0
C2090 C 0.75085 0.54818 0.32673 0.0
C2091 C 0.73516 0.53247 0.30825 0.0
C2092 C 0.71735 0.52873 0.32075 0.0
C2093 C 0.71506 0.54052 0.35202 0.0
C2094 C 0.73057 0.55604 0.37098 0.0
C2095 C 0.74841 0.55986 0.35854 0.0
H2096 H 0.70126 0.5376 0.36165 0.0
H2097 H 0.87423 0.57371 0.24244 0.0
H2098 H 0.19892 0.71612 0.19109 0.0
H2099 H 0.21749 0.73393 0.2605 0.0
H2100 H 0.22137 0.78354 0.20073 0.0
H2101 H 0.20333 0.7659 0.13124 0.0
H2102 H 0.25397 0.79147 0.22884 0.0
H2103 H 0.19394 0.75999 0.30277 0.0
H2104 H 0.16406 0.73296 0.32607 0.0
H2105 H 0.19273 0.71062 0.40517 0.0
H2106 H 0.2228 0.73742 0.38181 0.0
H2107 H 0.29158 0.84846 0.43981 0.0
H2108 H 0.27274 0.83095 0.37044 0.0
H2109 H 0.27156 0.78174 0.4235 0.0
H2110 H 0.29032 0.79909 0.4923 0.0
H2111 H 0.23744 0.77384 0.39925 0.0
H2112 H 0.29755 0.80571 0.32453 0.0
H2113 H 0.32721 0.83305 0.30142 0.0
H2114 H 0.2979 0.85511 0.22406 0.0
H2115 H 0.26804 0.82799 0.24727 0.0
C2116 C 0.20342 0.73073 0.19341 0.0
C2117 C 0.19961 0.73958 0.15575 0.0
C2118 C 0.2141 0.74097 0.23307 0.0
C2119 C 0.22093 0.76021 0.23628 0.0
C2120 C 0.21649 0.76882 0.19931 0.0
C2121 C 0.20603 0.75868 0.15967 0.0
C2122 C 0.23325 0.7716 0.27685 0.0
C2123 C 0.25017 0.7877 0.26609 0.0
C2124 C 0.22867 0.76667 0.32571 0.0
C2125 C 0.21062 0.75062 0.34015 0.0
C2126 C 0.19387 0.74926 0.32487 0.0
C2127 C 0.1769 0.73399 0.33812 0.0
C2128 C 0.1765 0.72006 0.36697 0.0
C2129 C 0.19307 0.72141 0.38277 0.0
C2130 C 0.21008 0.73664 0.36957 0.0
C2131 C 0.28764 0.83402 0.43609 0.0
C2132 C 0.29243 0.8252 0.47186 0.0
C2133 C 0.27676 0.82396 0.3965 0.0
C2134 C 0.27056 0.8049 0.39158 0.0
C2135 C 0.27592 0.79632 0.42645 0.0
C2136 C 0.28674 0.80631 0.4658 0.0
C2137 C 0.2581 0.79367 0.35115 0.0
C2138 C 0.24119 0.7776 0.36196 0.0
C2139 C 0.26263 0.79868 0.30236 0.0
C2140 C 0.28056 0.81491 0.28804 0.0
C2141 C 0.29743 0.81645 0.30288 0.0
C2142 C 0.31428 0.8319 0.28972 0.0
C2143 C 0.31444 0.84583 0.2614 0.0
C2144 C 0.29775 0.84432 0.24605 0.0
C2145 C 0.28086 0.8289 0.25917 0.0
H2146 H 0.3275 0.85778 0.25126 0.0
H2147 H 0.16335 0.70824 0.37717 0.0
H2148 H 0.53072 0.74147 0.61864 0.0
H2149 H 0.53162 0.75964 0.68824 0.0
H2150 H 0.57472 0.75207 0.75113 0.0
H2151 H 0.57397 0.73389 0.68112 0.0
H2152 H 0.54993 0.74884 0.8184 0.0
H2153 H 0.58488 0.79284 0.69578 0.0
H2154 H 0.59072 0.80708 0.61538 0.0
H2155 H 0.54534 0.81722 0.63357 0.0
H2156 H 0.53905 0.80279 0.71385 0.0
H2157 H 0.57883 0.81912 0.99352 0.0
H2158 H 0.57795 0.80096 0.92399 0.0
H2159 H 0.53567 0.80949 0.85962 0.0
H2160 H 0.53662 0.82792 0.92943 0.0
H2161 H 0.56007 0.81219 0.79309 0.0
H2162 H 0.52523 0.76808 0.91625 0.0
H2163 H 0.51977 0.75405 0.99686 0.0
H2164 H 0.56535 0.74426 0.97776 0.0
H2165 H 0.57125 0.75848 0.89726 0.0
C2166 C 0.54043 0.74366 0.6472 0.0
C2167 C 0.55242 0.73633 0.64382 0.0
C2168 C 0.54094 0.7541 0.68708 0.0
C2169 C 0.5535 0.75761 0.72472 0.0
C2170 C 0.56496 0.74968 0.72253 0.0
C2171 C 0.56445 0.73918 0.68251 0.0
C2172 C 0.55478 0.76974 0.76587 0.0
C2173 C 0.5524 0.76278 0.81284 0.0
C2174 C 0.5576 0.78784 0.75887 0.0
C2175 C 0.56137 0.79656 0.71064 0.0
C2176 C 0.57605 0.79797 0.68249 0.0
C2177 C 0.57946 0.8061 0.63696 0.0
C2178 C 0.56838 0.813 0.61932 0.0
C2179 C 0.55389 0.81184 0.64724 0.0
C2180 C 0.55041 0.8037 0.69278 0.0
C2181 C 0.56927 0.81711 0.96467 0.0
C2182 C 0.55758 0.82479 0.96751 0.0
C2183 C 0.56877 0.80666 0.92484 0.0
C2184 C 0.55643 0.80341 0.8868 0.0
C2185 C 0.54524 0.81165 0.88856 0.0
C2186 C 0.54581 0.82224 0.92846 0.0
C2187 C 0.55517 0.79127 0.84564 0.0
C2188 C 0.55757 0.79824 0.79865 0.0
C2189 C 0.55239 0.77318 0.85264 0.0
C2190 C 0.54878 0.7645 0.90089 0.0
C2191 C 0.53417 0.76305 0.92937 0.0
C2192 C 0.53098 0.75505 0.97502 0.0
C2193 C 0.54223 0.74831 0.99247 0.0
C2194 C 0.55666 0.74951 0.96422 0.0
C2195 C 0.55992 0.75753 0.91856 0.0
H2196 H 0.53974 0.74212 0.02783 0.0
H2197 H 0.57104 0.8193 0.58407 0.0
H2198 H 0.80241 0.5324 0.61163 0.0
H2199 H 0.7845 0.53226 0.68119 0.0
H2200 H 0.83475 0.57337 0.74982 0.0
H2201 H 0.85282 0.57348 0.68016 0.0
H2202 H 0.81269 0.5484 0.814 0.0
H2203 H 0.80433 0.58468 0.69342 0.0
H2204 H 0.79631 0.59115 0.61325 0.0
H2205 H 0.74072 0.54573 0.62909 0.0
H2206 H 0.74848 0.53881 0.7091 0.0
H2207 H 0.77097 0.5758 0.9918 0.0
H2208 H 0.78847 0.57563 0.92176 0.0
H2209 H 0.73775 0.53473 0.85446 0.0
H2210 H 0.72005 0.53509 0.92466 0.0
H2211 H 0.75985 0.55929 0.78949 0.0
H2212 H 0.76832 0.52321 0.9107 0.0
H2213 H 0.7765 0.517 0.99098 0.0
H2214 H 0.83208 0.56232 0.974 0.0
H2215 H 0.82416 0.56898 0.89387 0.0
C2216 C 0.80969 0.54143 0.6415 0.0
C2217 C 0.82908 0.5531 0.63993 0.0
C2218 C 0.79939 0.54137 0.68133 0.0
C2219 C 0.80815 0.55311 0.72059 0.0
C2220 C 0.8276 0.56425 0.72 0.0
C2221 C 0.83795 0.56425 0.68016 0.0
C2222 C 0.79698 0.5539 0.76178 0.0
C2223 C 0.8013 0.55103 0.80861 0.0
C2224 C 0.78178 0.55691 0.75503 0.0
C2225 C 0.77704 0.56112 0.70707 0.0
C2226 C 0.79043 0.57599 0.67967 0.0
C2227 C 0.78593 0.57975 0.63427 0.0
C2228 C 0.76803 0.56883 0.61604 0.0
C2229 C 0.75459 0.55416 0.64323 0.0
C2230 C 0.75903 0.55032 0.68862 0.0
C2231 C 0.7635 0.56675 0.96211 0.0
C2232 C 0.74409 0.55525 0.96421 0.0
C2233 C 0.77356 0.56662 0.92201 0.0
C2234 C 0.76457 0.55482 0.88304 0.0
C2235 C 0.74509 0.54388 0.88411 0.0
C2236 C 0.73495 0.54411 0.92423 0.0
C2237 C 0.77556 0.55379 0.84172 0.0
C2238 C 0.77122 0.55663 0.79488 0.0
C2239 C 0.79076 0.55077 0.84845 0.0
C2240 C 0.7956 0.54669 0.89645 0.0
C2241 C 0.78225 0.53192 0.92421 0.0
C2242 C 0.78685 0.52832 0.96968 0.0
C2243 C 0.80478 0.53928 0.98763 0.0
C2244 C 0.81818 0.55385 0.96008 0.0
C2245 C 0.81366 0.55754 0.91462 0.0
H2246 H 0.80831 0.53647 0.02284 0.0
H2247 H 0.76457 0.57176 0.58088 0.0
H2248 H 0.29574 0.84643 0.6918 0.0
H2249 H 0.27838 0.82866 0.76234 0.0
H2250 H 0.26731 0.77803 0.69271 0.0
H2251 H 0.28514 0.79563 0.62294 0.0
H2252 H 0.23559 0.77561 0.73216 0.0
H2253 H 0.29777 0.79489 0.7789 0.0
H2254 H 0.33072 0.81765 0.79227 0.0
H2255 H 0.31569 0.84435 0.90054 0.0
H2256 H 0.28255 0.82212 0.88662 0.0
H2257 H 0.19775 0.71579 0.93698 0.0
H2258 H 0.21644 0.73264 0.86678 0.0
H2259 H 0.23186 0.78455 0.93616 0.0
H2260 H 0.21313 0.76793 1.00569 0.0
H2261 H 0.26189 0.78576 0.89637 0.0
H2262 H 0.20004 0.76811 0.84585 0.0
H2263 H 0.16694 0.74644 0.82993 0.0
H2264 H 0.18158 0.71701 0.72893 0.0
H2265 H 0.21479 0.73838 0.74475 0.0
C2266 C 0.28995 0.83156 0.69173 0.0
C2267 C 0.29183 0.82255 0.65118 0.0
C2268 C 0.27988 0.82138 0.73207 0.0
C2269 C 0.27141 0.80196 0.73284 0.0
C2270 C 0.27352 0.79296 0.69287 0.0
C2271 C 0.28372 0.80311 0.65283 0.0
C2272 C 0.26018 0.79094 0.77496 0.0
C2273 C 0.24142 0.77766 0.76795 0.0
C2274 C 0.26766 0.79381 0.8219 0.0
C2275 C 0.28761 0.80695 0.83124 0.0
C2276 C 0.30145 0.80574 0.80517 0.0
C2277 C 0.32018 0.81858 0.81277 0.0
C2278 C 0.3253 0.8325 0.84707 0.0
C2279 C 0.31169 0.83359 0.87385 0.0
C2280 C 0.29292 0.8209 0.86603 0.0
C2281 C 0.20495 0.73078 0.93707 0.0
C2282 C 0.204 0.74042 0.97742 0.0
C2283 C 0.21571 0.74043 0.89693 0.0
C2284 C 0.22567 0.75994 0.89602 0.0
C2285 C 0.22454 0.76954 0.93599 0.0
C2286 C 0.21379 0.75996 0.97591 0.0
C2287 C 0.23723 0.77046 0.85362 0.0
C2288 C 0.25607 0.78366 0.86056 0.0
C2289 C 0.22984 0.76755 0.80657 0.0
C2290 C 0.20989 0.75472 0.7969 0.0
C2291 C 0.1962 0.75693 0.82054 0.0
C2292 C 0.17742 0.74472 0.81148 0.0
C2293 C 0.17216 0.73032 0.77855 0.0
C2294 C 0.18568 0.72815 0.7545 0.0
C2295 C 0.20448 0.74031 0.76348 0.0
H2296 H 0.15762 0.72088 0.77157 0.0
H2297 H 0.33981 0.84235 0.85311 0.0
H2298 H 0.4473 0.25061 0.62516 0.0
H2299 H 0.44925 0.23432 0.69544 0.0
H2300 H 0.49108 0.28609 0.75601 0.0
H2301 H 0.48984 0.3025 0.68406 0.0
H2302 H 0.50102 0.26085 0.7681 0.0
H2303 H 0.4453 0.26213 0.79923 0.0
H2304 H 0.4144 0.2579 0.78148 0.0
H2305 H 0.39274 0.19956 0.76208 0.0
H2306 H 0.42358 0.20347 0.77909 0.0
H2307 H 0.49708 0.22257 0.99933 0.0
H2308 H 0.49585 0.24024 0.93104 0.0
H2309 H 0.45499 0.18966 0.86333 0.0
H2310 H 0.45549 0.1719 0.93293 0.0
H2311 H 0.44491 0.2152 0.85666 0.0
H2312 H 0.50176 0.21482 0.82524 0.0
H2313 H 0.53263 0.21975 0.8473 0.0
H2314 H 0.55214 0.27749 0.87093 0.0
H2315 H 0.52135 0.27287 0.84951 0.0
C2316 C 0.45699 0.25861 0.65327 0.0
C2317 C 0.46852 0.27792 0.64853 0.0
C2318 C 0.45794 0.24924 0.6939 0.0
C2319 C 0.47017 0.2589 0.73162 0.0
C2320 C 0.48149 0.27826 0.72754 0.0
C2321 C 0.48063 0.28768 0.68655 0.0
C2322 C 0.47139 0.24863 0.77439 0.0
C2323 C 0.48876 0.25109 0.78786 0.0
C2324 C 0.45541 0.23556 0.79993 0.0
C2325 C 0.4368 0.23312 0.79006 0.0
C2326 C 0.43398 0.24841 0.79088 0.0
C2327 C 0.41647 0.24607 0.78099 0.0
C2328 C 0.40162 0.22848 0.77056 0.0
C2329 C 0.40425 0.21318 0.77013 0.0
C2330 C 0.42174 0.21545 0.77995 0.0
C2331 C 0.48778 0.21514 0.97002 0.0
C2332 C 0.47632 0.19574 0.97199 0.0
C2333 C 0.48724 0.2253 0.93059 0.0
C2334 C 0.47547 0.21635 0.8915 0.0
C2335 C 0.46424 0.19695 0.89289 0.0
C2336 C 0.46469 0.18675 0.93256 0.0
C2337 C 0.47449 0.22728 0.85001 0.0
C2338 C 0.45716 0.22496 0.83684 0.0
C2339 C 0.49051 0.24057 0.82502 0.0
C2340 C 0.5092 0.24346 0.83619 0.0
C2341 C 0.51262 0.22855 0.83528 0.0
C2342 C 0.5301 0.2313 0.84767 0.0
C2343 C 0.54429 0.24891 0.86076 0.0
C2344 C 0.54111 0.26385 0.86091 0.0
C2345 C 0.52367 0.26119 0.84856 0.0
H2346 H 0.55775 0.25098 0.87084 0.0
H2347 H 0.38808 0.2267 0.76289 0.0
H2348 H 0.20302 0.44306 0.62763 0.0
H2349 H 0.22094 0.4437 0.69748 0.0
H2350 H 0.20971 0.48352 0.76534 0.0
H2351 H 0.19206 0.48335 0.69434 0.0
H2352 H 0.24597 0.49357 0.77429 0.0
H2353 H 0.18803 0.4377 0.80195 0.0
H2354 H 0.16155 0.40711 0.78123 0.0
H2355 H 0.1985 0.38577 0.7602 0.0
H2356 H 0.22524 0.41631 0.78017 0.0
H2357 H 0.2789 0.48813 1.00498 0.0
H2358 H 0.26088 0.48771 0.93566 0.0
H2359 H 0.2684 0.44496 0.87088 0.0
H2360 H 0.28568 0.4446 0.94168 0.0
H2361 H 0.23385 0.43645 0.86042 0.0
H2362 H 0.29167 0.49144 0.8302 0.0
H2363 H 0.31882 0.52181 0.84905 0.0
H2364 H 0.2832 0.54459 0.87216 0.0
H2365 H 0.2558 0.51428 0.85397 0.0
C2366 C 0.20436 0.45202 0.65729 0.0
C2367 C 0.19617 0.46328 0.65501 0.0
C2368 C 0.21451 0.45223 0.69757 0.0
C2369 C 0.21663 0.46354 0.73713 0.0
C2370 C 0.20829 0.47465 0.73538 0.0
C2371 C 0.19806 0.47443 0.69491 0.0
C2372 C 0.22798 0.46406 0.77949 0.0
C2373 C 0.24312 0.4811 0.79361 0.0
C2374 C 0.22474 0.44775 0.80389 0.0
C2375 C 0.20866 0.42934 0.79217 0.0
C2376 C 0.19053 0.42652 0.79258 0.0
C2377 C 0.17547 0.40918 0.78102 0.0
C2378 C 0.17835 0.39452 0.7693 0.0
C2379 C 0.19629 0.39715 0.76925 0.0
C2380 C 0.2114 0.41446 0.78074 0.0
C2381 C 0.27672 0.47857 0.97613 0.0
C2382 C 0.28374 0.46632 0.97938 0.0
C2383 C 0.26654 0.4785 0.93604 0.0
C2384 C 0.26334 0.46644 0.89742 0.0
C2385 C 0.27064 0.45444 0.90002 0.0
C2386 C 0.28074 0.4544 0.94041 0.0
C2387 C 0.25188 0.46597 0.8553 0.0
C2388 C 0.23672 0.44893 0.84118 0.0
C2389 C 0.25522 0.48226 0.83059 0.0
C2390 C 0.27167 0.50054 0.84112 0.0
C2391 C 0.28961 0.50289 0.83959 0.0
C2392 C 0.30505 0.5201 0.85011 0.0
C2393 C 0.30273 0.53511 0.86192 0.0
C2394 C 0.28497 0.53295 0.86305 0.0
C2395 C 0.26949 0.51577 0.85257 0.0
H2396 H 0.3147 0.54841 0.87009 0.0
H2397 H 0.16667 0.38111 0.76035 0.0
H2398 H 0.74624 0.22476 0.63251 0.0
H2399 H 0.76454 0.24228 0.70171 0.0
H2400 H 0.75666 0.19188 0.7667 0.0
H2401 H 0.73843 0.17419 0.69697 0.0
H2402 H 0.75345 0.21401 0.83278 0.0
H2403 H 0.79742 0.22172 0.71155 0.0
H2404 H 0.81174 0.22946 0.63122 0.0
H2405 H 0.82268 0.28529 0.64641 0.0
H2406 H 0.80817 0.27781 0.7266 0.0
H2407 H 0.82355 0.25508 1.00832 0.0
H2408 H 0.80545 0.23784 0.93868 0.0
H2409 H 0.81498 0.28872 0.87286 0.0
H2410 H 0.83336 0.30619 0.94292 0.0
H2411 H 0.81725 0.26644 0.807 0.0
H2412 H 0.77326 0.25856 0.92887 0.0
H2413 H 0.75895 0.2506 1.00922 0.0
H2414 H 0.74804 0.19482 0.99279 0.0
H2415 H 0.76254 0.20252 0.91259 0.0
C2416 C 0.7484 0.21734 0.6614 0.0
C2417 C 0.74099 0.19802 0.65864 0.0
C2418 C 0.75891 0.22742 0.70107 0.0
C2419 C 0.76236 0.21852 0.73922 0.0
C2420 C 0.75432 0.19913 0.73769 0.0
C2421 C 0.74379 0.18899 0.69783 0.0
C2422 C 0.77453 0.22952 0.78021 0.0
C2423 C 0.76748 0.2253 0.82714 0.0
C2424 C 0.79275 0.24459 0.77306 0.0
C2425 C 0.80153 0.24915 0.7249 0.0
C2426 C 0.80274 0.23561 0.69761 0.0
C2427 C 0.81092 0.23995 0.65212 0.0
C2428 C 0.81807 0.25784 0.63367 0.0
C2429 C 0.81711 0.27143 0.66072 0.0
C2430 C 0.80892 0.26715 0.70621 0.0
C2431 C 0.82179 0.26266 0.97912 0.0
C2432 C 0.82969 0.28204 0.98171 0.0
C2433 C 0.81137 0.25274 0.93921 0.0
C2434 C 0.80837 0.26184 0.90075 0.0
C2435 C 0.81692 0.2813 0.90215 0.0
C2436 C 0.82747 0.2913 0.94219 0.0
C2437 C 0.79617 0.25095 0.85964 0.0
C2438 C 0.80321 0.25517 0.81266 0.0
C2439 C 0.77793 0.23586 0.86675 0.0
C2440 C 0.76914 0.23117 0.9149 0.0
C2441 C 0.76794 0.24464 0.94254 0.0
C2442 C 0.75977 0.24016 0.98803 0.0
C2443 C 0.75263 0.22223 1.00614 0.0
C2444 C 0.7536 0.20872 0.97874 0.0
C2445 C 0.76178 0.21312 0.93325 0.0
H2446 H 0.74631 0.2188 0.04137 0.0
H2447 H 0.8244 0.26118 0.59845 0.0
loop_
_geom_bond_atom_site_label_1
_geom_bond_atom_site_label_2
_geom_bond_distance
_geom_bond_site_symmetry_2
_ccdc_geom_bond_type
O0 Tb1 2.292 . S
O0 C3 1.255 . S
Tb1 O0 2.292 . S
Tb1 O17 2.326 . S
Tb1 O19 2.500 . S
Tb1 O20 2.473 1_556 S
Tb1 O23 2.324 1_556 S
Eu2 O6 2.292 . S
Eu2 C7 2.852 . S
Eu2 O18 2.324 1_554 S
Eu2 O22 2.326 . S
Eu2 O24 2.500 . S
Eu2 O25 2.473 . S
C3 O0 1.255 . S
C3 O4 1.247 . S
O4 C3 1.247 . S
C5 O17 1.242 . S
C5 O18 1.258 . S
O6 Eu2 2.292 . S
O6 C8 1.255 . S
C7 Eu2 2.852 . S
C7 C11 1.503 . S
C7 O24 1.273 . S
C7 O25 1.257 . S
C8 O6 1.255 . S
C8 O9 1.247 . S
O9 C8 1.247 . S
C10 O22 1.242 . S
C10 O23 1.258 . S
C11 C7 1.503 . S
C11 C12 1.379 . S
C11 C16 1.392 . S
C12 C11 1.379 . S
C12 C13 1.404 . S
C12 H26 0.929 1_554 S
C13 C12 1.404 . S
C13 C14 1.389 . S
C14 C13 1.389 . S
C14 C15 1.399 . S
C14 H27 0.931 . S
C15 C14 1.399 . S
C15 C16 1.390 . S
C16 C11 1.392 . S
C16 C15 1.390 . S
C16 H28 0.929 . S
O17 Tb1 2.326 . S
O17 C5 1.242 . S
O18 Eu2 2.324 1_556 S
O18 C5 1.258 . S
O19 Tb1 2.500 . S
O19 C21 1.273 . S
O20 Tb1 2.473 1_554 S
O20 C21 1.257 1_554 S
C21 O19 1.273 . S
C21 O20 1.257 1_556 S
O22 Eu2 2.326 . S
O22 C10 1.242 . S
O23 Tb1 2.324 1_554 S
O23 C10 1.258 . S
O24 Eu2 2.500 . S
O24 C7 1.273 . S
O25 Eu2 2.473 . S
O25 C7 1.257 . S
H26 C12 0.929 1_556 S
H27 C14 0.931 . S
H28 C16 0.929 . S
O29 Tb30 2.292 . S
O29 C32 1.255 . S
Tb30 O29 2.292 . S
Tb30 O46 2.326 . S
Tb30 O48 2.500 . S
Tb30 O49 2.473 1_556 S
Tb30 O52 2.324 1_556 S
Eu31 O35 2.292 . S
Eu31 C36 2.852 . S
Eu31 O47 2.324 1_554 S
Eu31 O51 2.326 . S
Eu31 O53 2.500 . S
Eu31 O54 2.473 . S
C32 O29 1.255 . S
C32 O33 1.247 . S
O33 C32 1.247 . S
C34 O46 1.242 . S
C34 O47 1.258 . S
O35 Eu31 2.292 . S
O35 C37 1.255 . S
C36 Eu31 2.852 . S
C36 C40 1.503 . S
C36 O53 1.273 . S
C36 O54 1.257 . S
C37 O35 1.255 . S
C37 O38 1.247 . S
O38 C37 1.247 . S
C39 O51 1.242 . S
C39 O52 1.258 . S
C40 C36 1.503 . S
C40 C41 1.379 . S
C40 C45 1.392 . S
C41 C40 1.379 . S
C41 C42 1.404 . S
C41 H55 0.929 1_554 S
C42 C41 1.404 . S
C42 C43 1.389 . S
C43 C42 1.389 . S
C43 C44 1.399 . S
C43 H56 0.931 . S
C44 C43 1.399 . S
C44 C45 1.390 . S
C45 C40 1.392 . S
C45 C44 1.390 . S
C45 H57 0.929 . S
O46 Tb30 2.326 . S
O46 C34 1.242 . S
O47 Eu31 2.324 1_556 S
O47 C34 1.258 . S
O48 Tb30 2.500 . S
O48 C50 1.273 . S
O49 Tb30 2.473 1_554 S
O49 C50 1.257 1_554 S
C50 O48 1.273 . S
C50 O49 1.257 1_556 S
O51 Eu31 2.326 . S
O51 C39 1.242 . S
O52 Tb30 2.324 1_554 S
O52 C39 1.258 . S
O53 Eu31 2.500 . S
O53 C36 1.273 . S
O54 Eu31 2.473 . S
O54 C36 1.257 . S
H55 C41 0.929 1_556 S
H56 C43 0.931 . S
H57 C45 0.929 . S
O58 Tb59 2.292 . S
O58 C61 1.255 . S
Tb59 O58 2.292 . S
Tb59 O75 2.326 . S
Tb59 O77 2.500 . S
Tb59 O78 2.473 1_556 S
Tb59 O81 2.324 1_556 S
Eu60 O64 2.292 . S
Eu60 C65 2.852 . S
Eu60 O76 2.324 1_554 S
Eu60 O80 2.326 . S
Eu60 O82 2.500 . S
Eu60 O83 2.473 . S
C61 O58 1.255 . S
C61 O62 1.247 . S
O62 C61 1.247 . S
C63 O75 1.242 . S
C63 O76 1.258 . S
O64 Eu60 2.292 . S
O64 C66 1.255 . S
C65 Eu60 2.852 . S
C65 C69 1.503 . S
C65 O82 1.273 . S
C65 O83 1.257 . S
C66 O64 1.255 . S
C66 O67 1.247 . S
O67 C66 1.247 . S
C68 O80 1.242 . S
C68 O81 1.258 . S
C69 C65 1.503 . S
C69 C70 1.379 . S
C69 C74 1.392 . S
C70 C69 1.379 . S
C70 C71 1.404 . S
C70 H84 0.929 1_554 S
C71 C70 1.404 . S
C71 C72 1.389 . S
C72 C71 1.389 . S
C72 C73 1.399 . S
C72 H85 0.931 . S
C73 C72 1.399 . S
C73 C74 1.390 . S
C74 C69 1.392 . S
C74 C73 1.390 . S
C74 H86 0.929 . S
O75 Tb59 2.326 . S
O75 C63 1.242 . S
O76 Eu60 2.324 1_556 S
O76 C63 1.258 . S
O77 Tb59 2.500 . S
O77 C79 1.273 . S
O78 Tb59 2.473 1_554 S
O78 C79 1.257 1_554 S
C79 O77 1.273 . S
C79 O78 1.257 1_556 S
O80 Eu60 2.326 . S
O80 C68 1.242 . S
O81 Tb59 2.324 1_554 S
O81 C68 1.258 . S
O82 Eu60 2.500 . S
O82 C65 1.273 . S
O83 Eu60 2.473 . S
O83 C65 1.257 . S
H84 C70 0.929 1_556 S
H85 C72 0.931 . S
H86 C74 0.929 . S
O87 Tb88 2.292 . S
O87 C90 1.255 . S
Tb88 O87 2.292 . S
Tb88 O104 2.326 . S
Tb88 O106 2.500 . S
Tb88 O107 2.473 1_556 S
Tb88 O110 2.324 1_556 S
Eu89 O93 2.292 . S
Eu89 C94 2.852 . S
Eu89 O105 2.324 1_554 S
Eu89 O109 2.326 . S
Eu89 O111 2.500 . S
Eu89 O112 2.473 . S
C90 O87 1.255 . S
C90 O91 1.247 . S
O91 C90 1.247 . S
C92 O104 1.242 . S
C92 O105 1.258 . S
O93 Eu89 2.292 . S
O93 C95 1.255 . S
C94 Eu89 2.852 . S
C94 C98 1.503 . S
C94 O111 1.273 . S
C94 O112 1.257 . S
C95 O93 1.255 . S
C95 O96 1.247 . S
O96 C95 1.247 . S
C97 O109 1.242 . S
C97 O110 1.258 . S
C98 C94 1.503 . S
C98 C99 1.379 . S
C98 C103 1.392 . S
C99 C98 1.379 . S
C99 C100 1.404 . S
C99 H113 0.929 1_554 S
C100 C99 1.404 . S
C100 C101 1.389 . S
C101 C100 1.389 . S
C101 C102 1.399 . S
C101 H114 0.931 . S
C102 C101 1.399 . S
C102 C103 1.390 . S
C103 C98 1.392 . S
C103 C102 1.390 . S
C103 H115 0.929 . S
O104 Tb88 2.326 . S
O104 C92 1.242 . S
O105 Eu89 2.324 1_556 S
O105 C92 1.258 . S
O106 Tb88 2.500 . S
O106 C108 1.273 . S
O107 Tb88 2.473 1_554 S
O107 C108 1.257 1_554 S
C108 O106 1.273 . S
C108 O107 1.257 1_556 S
O109 Eu89 2.326 . S
O109 C97 1.242 . S
O110 Tb88 2.324 1_554 S
O110 C97 1.258 . S
O111 Eu89 2.500 . S
O111 C94 1.273 . S
O112 Eu89 2.473 . S
O112 C94 1.257 . S
H113 C99 0.929 1_556 S
H114 C101 0.931 . S
H115 C103 0.929 . S
O116 Tb117 2.292 . S
O116 C119 1.255 . S
Tb117 O116 2.292 . S
Tb117 O133 2.326 . S
Tb117 O135 2.500 . S
Tb117 O136 2.473 1_556 S
Tb117 O139 2.324 1_556 S
Eu118 O122 2.292 . S
Eu118 C123 2.852 . S
Eu118 O134 2.324 1_554 S
Eu118 O138 2.326 . S
Eu118 O140 2.500 . S
Eu118 O141 2.473 . S
C119 O116 1.255 . S
C119 O120 1.247 . S
O120 C119 1.247 . S
C121 O133 1.242 . S
C121 O134 1.258 . S
O122 Eu118 2.292 . S
O122 C124 1.255 . S
C123 Eu118 2.852 . S
C123 C127 1.503 . S
C123 O140 1.273 . S
C123 O141 1.257 . S
C124 O122 1.255 . S
C124 O125 1.247 . S
O125 C124 1.247 . S
C126 O138 1.242 . S
C126 O139 1.258 . S
C127 C123 1.503 . S
C127 C128 1.379 . S
C127 C132 1.392 . S
C128 C127 1.379 . S
C128 C129 1.404 . S
C128 H142 0.929 1_554 S
C129 C128 1.404 . S
C129 C130 1.389 . S
C130 C129 1.389 . S
C130 C131 1.399 . S
C130 H143 0.931 . S
C131 C130 1.399 . S
C131 C132 1.390 . S
C132 C127 1.392 . S
C132 C131 1.390 . S
C132 H144 0.929 . S
O133 Tb117 2.326 . S
O133 C121 1.242 . S
O134 Eu118 2.324 1_556 S
O134 C121 1.258 . S
O135 Tb117 2.500 . S
O135 C137 1.273 . S
O136 Tb117 2.473 1_554 S
O136 C137 1.257 1_554 S
C137 O135 1.273 . S
C137 O136 1.257 1_556 S
O138 Eu118 2.326 . S
O138 C126 1.242 . S
O139 Tb117 2.324 1_554 S
O139 C126 1.258 . S
O140 Eu118 2.500 . S
O140 C123 1.273 . S
O141 Eu118 2.473 . S
O141 C123 1.257 . S
H142 C128 0.929 1_556 S
H143 C130 0.931 . S
H144 C132 0.929 . S
O145 Tb146 2.292 . S
O145 C148 1.255 . S
Tb146 O145 2.292 . S
Tb146 O162 2.326 . S
Tb146 O164 2.500 . S
Tb146 O165 2.473 1_556 S
Tb146 O168 2.324 1_556 S
Eu147 O151 2.292 . S
Eu147 C152 2.852 . S
Eu147 O163 2.324 1_554 S
Eu147 O167 2.326 . S
Eu147 O169 2.500 . S
Eu147 O170 2.473 . S
C148 O145 1.255 . S
C148 O149 1.247 . S
O149 C148 1.247 . S
C150 O162 1.242 . S
C150 O163 1.258 . S
O151 Eu147 2.292 . S
O151 C153 1.255 . S
C152 Eu147 2.852 . S
C152 C156 1.503 . S
C152 O169 1.273 . S
C152 O170 1.257 . S
C153 O151 1.255 . S
C153 O154 1.247 . S
O154 C153 1.247 . S
C155 O167 1.242 . S
C155 O168 1.258 . S
C156 C152 1.503 . S
C156 C157 1.379 . S
C156 C161 1.392 . S
C157 C156 1.379 . S
C157 C158 1.404 . S
C157 H171 0.929 1_554 S
C158 C157 1.404 . S
C158 C159 1.389 . S
C159 C158 1.389 . S
C159 C160 1.399 . S
C159 H172 0.931 . S
C160 C159 1.399 . S
C160 C161 1.390 . S
C161 C156 1.392 . S
C161 C160 1.390 . S
C161 H173 0.929 . S
O162 Tb146 2.326 . S
O162 C150 1.242 . S
O163 Eu147 2.324 1_556 S
O163 C150 1.258 . S
O164 Tb146 2.500 . S
O164 C166 1.273 . S
O165 Tb146 2.473 1_554 S
O165 C166 1.257 1_554 S
C166 O164 1.273 . S
C166 O165 1.257 1_556 S
O167 Eu147 2.326 . S
O167 C155 1.242 . S
O168 Tb146 2.324 1_554 S
O168 C155 1.258 . S
O169 Eu147 2.500 . S
O169 C152 1.273 . S
O170 Eu147 2.473 . S
O170 C152 1.257 . S
H171 C157 0.929 1_556 S
H172 C159 0.931 . S
H173 C161 0.929 . S
O174 Tb175 2.292 . S
O174 C177 1.255 . S
Tb175 O174 2.292 . S
Tb175 O191 2.326 . S
Tb175 O193 2.500 . S
Tb175 O194 2.473 . S
Tb175 O197 2.324 . S
Eu176 O180 2.292 . S
Eu176 C181 2.852 . S
Eu176 O192 2.324 . S
Eu176 O196 2.326 . S
Eu176 O198 2.500 . S
Eu176 O199 2.473 . S
C177 O174 1.255 . S
C177 O178 1.247 . S
O178 C177 1.247 . S
C179 O191 1.242 . S
C179 O192 1.258 . S
O180 Eu176 2.292 . S
O180 C182 1.255 . S
C181 Eu176 2.852 . S
C181 C185 1.503 . S
C181 O198 1.273 . S
C181 O199 1.257 . S
C182 O180 1.255 . S
C182 O183 1.247 . S
O183 C182 1.247 . S
C184 O196 1.242 . S
C184 O197 1.258 . S
C185 C181 1.503 . S
C185 C186 1.379 . S
C185 C190 1.392 . S
C186 C185 1.379 . S
C186 C187 1.404 . S
C186 H200 0.929 . S
C187 C186 1.404 . S
C187 C188 1.389 . S
C188 C187 1.389 . S
C188 C189 1.399 . S
C188 H201 0.931 . S
C189 C188 1.399 . S
C189 C190 1.390 . S
C190 C185 1.392 . S
C190 C189 1.390 . S
C190 H202 0.929 . S
O191 Tb175 2.326 . S
O191 C179 1.242 . S
O192 Eu176 2.324 . S
O192 C179 1.258 . S
O193 Tb175 2.500 . S
O193 C195 1.273 . S
O194 Tb175 2.473 . S
O194 C195 1.257 . S
C195 O193 1.273 . S
C195 O194 1.257 . S
O196 Eu176 2.326 . S
O196 C184 1.242 . S
O197 Tb175 2.324 . S
O197 C184 1.258 . S
O198 Eu176 2.500 . S
O198 C181 1.273 . S
O199 Eu176 2.473 . S
O199 C181 1.257 . S
H200 C186 0.929 . S
H201 C188 0.931 . S
H202 C190 0.929 . S
O203 Tb204 2.292 . S
O203 C206 1.255 . S
Tb204 O203 2.292 . S
Tb204 O220 2.326 . S
Tb204 O222 2.500 . S
Tb204 O223 2.473 . S
Tb204 O226 2.324 . S
Eu205 O209 2.292 . S
Eu205 C210 2.852 . S
Eu205 O221 2.324 . S
Eu205 O225 2.326 . S
Eu205 O227 2.500 . S
Eu205 O228 2.473 . S
C206 O203 1.255 . S
C206 O207 1.247 . S
O207 C206 1.247 . S
C208 O220 1.242 . S
C208 O221 1.258 . S
O209 Eu205 2.292 . S
O209 C211 1.255 . S
C210 Eu205 2.852 . S
C210 C214 1.503 . S
C210 O227 1.273 . S
C210 O228 1.257 . S
C211 O209 1.255 . S
C211 O212 1.247 . S
O212 C211 1.247 . S
C213 O225 1.242 . S
C213 O226 1.258 . S
C214 C210 1.503 . S
C214 C215 1.379 . S
C214 C219 1.392 . S
C215 C214 1.379 . S
C215 C216 1.404 . S
C215 H229 0.929 . S
C216 C215 1.404 . S
C216 C217 1.389 . S
C217 C216 1.389 . S
C217 C218 1.399 . S
C217 H230 0.931 . S
C218 C217 1.399 . S
C218 C219 1.390 . S
C219 C214 1.392 . S
C219 C218 1.390 . S
C219 H231 0.929 . S
O220 Tb204 2.326 . S
O220 C208 1.242 . S
O221 Eu205 2.324 . S
O221 C208 1.258 . S
O222 Tb204 2.500 . S
O222 C224 1.273 . S
O223 Tb204 2.473 . S
O223 C224 1.257 . S
C224 O222 1.273 . S
C224 O223 1.257 . S
O225 Eu205 2.326 . S
O225 C213 1.242 . S
O226 Tb204 2.324 . S
O226 C213 1.258 . S
O227 Eu205 2.500 . S
O227 C210 1.273 . S
O228 Eu205 2.473 . S
O228 C210 1.257 . S
H229 C215 0.929 . S
H230 C217 0.931 . S
H231 C219 0.929 . S
O232 Tb233 2.292 . S
O232 C235 1.255 . S
Tb233 O232 2.292 . S
Tb233 O249 2.326 . S
Tb233 O251 2.500 . S
Tb233 O252 2.473 . S
Tb233 O255 2.324 . S
Eu234 O238 2.292 . S
Eu234 C239 2.852 . S
Eu234 O250 2.324 . S
Eu234 O254 2.326 . S
Eu234 O256 2.500 . S
Eu234 O257 2.473 . S
C235 O232 1.255 . S
C235 O236 1.247 . S
O236 C235 1.247 . S
C237 O249 1.242 . S
C237 O250 1.258 . S
O238 Eu234 2.292 . S
O238 C240 1.255 . S
C239 Eu234 2.852 . S
C239 C243 1.503 . S
C239 O256 1.273 . S
C239 O257 1.257 . S
C240 O238 1.255 . S
C240 O241 1.247 . S
O241 C240 1.247 . S
C242 O254 1.242 . S
C242 O255 1.258 . S
C243 C239 1.503 . S
C243 C244 1.379 . S
C243 C248 1.392 . S
C244 C243 1.379 . S
C244 C245 1.404 . S
C244 H258 0.929 . S
C245 C244 1.404 . S
C245 C246 1.389 . S
C246 C245 1.389 . S
C246 C247 1.399 . S
C246 H259 0.931 . S
C247 C246 1.399 . S
C247 C248 1.390 . S
C248 C243 1.392 . S
C248 C247 1.390 . S
C248 H260 0.929 . S
O249 Tb233 2.326 . S
O249 C237 1.242 . S
O250 Eu234 2.324 . S
O250 C237 1.258 . S
O251 Tb233 2.500 . S
O251 C253 1.273 . S
O252 Tb233 2.473 . S
O252 C253 1.257 . S
C253 O251 1.273 . S
C253 O252 1.257 . S
O254 Eu234 2.326 . S
O254 C242 1.242 . S
O255 Tb233 2.324 . S
O255 C242 1.258 . S
O256 Eu234 2.500 . S
O256 C239 1.273 . S
O257 Eu234 2.473 . S
O257 C239 1.257 . S
H258 C244 0.929 . S
H259 C246 0.931 . S
H260 C248 0.929 . S
O261 Tb262 2.292 . S
O261 C264 1.255 . S
Tb262 O261 2.292 . S
Tb262 O278 2.326 . S
Tb262 O280 2.500 . S
Tb262 O281 2.473 . S
Tb262 O284 2.324 . S
Eu263 O267 2.292 . S
Eu263 C268 2.852 . S
Eu263 O279 2.324 . S
Eu263 O283 2.326 . S
Eu263 O285 2.500 . S
Eu263 O286 2.473 . S
C264 O261 1.255 . S
C264 O265 1.247 . S
O265 C264 1.247 . S
C266 O278 1.242 . S
C266 O279 1.258 . S
O267 Eu263 2.292 . S
O267 C269 1.255 . S
C268 Eu263 2.852 . S
C268 C272 1.503 . S
C268 O285 1.273 . S
C268 O286 1.257 . S
C269 O267 1.255 . S
C269 O270 1.247 . S
O270 C269 1.247 . S
C271 O283 1.242 . S
C271 O284 1.258 . S
C272 C268 1.503 . S
C272 C273 1.379 . S
C272 C277 1.392 . S
C273 C272 1.379 . S
C273 C274 1.404 . S
C273 H287 0.929 . S
C274 C273 1.404 . S
C274 C275 1.389 . S
C275 C274 1.389 . S
C275 C276 1.399 . S
C275 H288 0.931 . S
C276 C275 1.399 . S
C276 C277 1.390 . S
C277 C272 1.392 . S
C277 C276 1.390 . S
C277 H289 0.929 . S
O278 Tb262 2.326 . S
O278 C266 1.242 . S
O279 Eu263 2.324 . S
O279 C266 1.258 . S
O280 Tb262 2.500 . S
O280 C282 1.273 . S
O281 Tb262 2.473 . S
O281 C282 1.257 . S
C282 O280 1.273 . S
C282 O281 1.257 . S
O283 Eu263 2.326 . S
O283 C271 1.242 . S
O284 Tb262 2.324 . S
O284 C271 1.258 . S
O285 Eu263 2.500 . S
O285 C268 1.273 . S
O286 Eu263 2.473 . S
O286 C268 1.257 . S
H287 C273 0.929 . S
H288 C275 0.931 . S
H289 C277 0.929 . S
O290 Tb291 2.292 . S
O290 C293 1.255 . S
Tb291 O290 2.292 . S
Tb291 O307 2.326 . S
Tb291 O309 2.500 . S
Tb291 O310 2.473 . S
Tb291 O313 2.324 . S
Eu292 O296 2.292 . S
Eu292 C297 2.852 . S
Eu292 O308 2.324 . S
Eu292 O312 2.326 . S
Eu292 O314 2.500 . S
Eu292 O315 2.473 . S
C293 O290 1.255 . S
C293 O294 1.247 . S
O294 C293 1.247 . S
C295 O307 1.242 . S
C295 O308 1.258 . S
O296 Eu292 2.292 . S
O296 C298 1.255 . S
C297 Eu292 2.852 . S
C297 C301 1.503 . S
C297 O314 1.273 . S
C297 O315 1.257 . S
C298 O296 1.255 . S
C298 O299 1.247 . S
O299 C298 1.247 . S
C300 O312 1.242 . S
C300 O313 1.258 . S
C301 C297 1.503 . S
C301 C302 1.379 . S
C301 C306 1.392 . S
C302 C301 1.379 . S
C302 C303 1.404 . S
C302 H316 0.929 . S
C303 C302 1.404 . S
C303 C304 1.389 . S
C304 C303 1.389 . S
C304 C305 1.399 . S
C304 H317 0.931 . S
C305 C304 1.399 . S
C305 C306 1.390 . S
C306 C301 1.392 . S
C306 C305 1.390 . S
C306 H318 0.929 . S
O307 Tb291 2.326 . S
O307 C295 1.242 . S
O308 Eu292 2.324 . S
O308 C295 1.258 . S
O309 Tb291 2.500 . S
O309 C311 1.273 . S
O310 Tb291 2.473 . S
O310 C311 1.257 . S
C311 O309 1.273 . S
C311 O310 1.257 . S
O312 Eu292 2.326 . S
O312 C300 1.242 . S
O313 Tb291 2.324 . S
O313 C300 1.258 . S
O314 Eu292 2.500 . S
O314 C297 1.273 . S
O315 Eu292 2.473 . S
O315 C297 1.257 . S
H316 C302 0.929 . S
H317 C304 0.931 . S
H318 C306 0.929 . S
O319 Tb320 2.292 . S
O319 C322 1.255 . S
Tb320 O319 2.292 . S
Tb320 O336 2.326 . S
Tb320 O338 2.500 . S
Tb320 O339 2.473 . S
Tb320 O342 2.324 . S
Eu321 O325 2.292 . S
Eu321 C326 2.852 . S
Eu321 O337 2.324 . S
Eu321 O341 2.326 . S
Eu321 O343 2.500 . S
Eu321 O344 2.473 . S
C322 O319 1.255 . S
C322 O323 1.247 . S
O323 C322 1.247 . S
C324 O336 1.242 . S
C324 O337 1.258 . S
O325 Eu321 2.292 . S
O325 C327 1.255 . S
C326 Eu321 2.852 . S
C326 C330 1.503 . S
C326 O343 1.273 . S
C326 O344 1.257 . S
C327 O325 1.255 . S
C327 O328 1.247 . S
O328 C327 1.247 . S
C329 O341 1.242 . S
C329 O342 1.258 . S
C330 C326 1.503 . S
C330 C331 1.379 . S
C330 C335 1.392 . S
C331 C330 1.379 . S
C331 C332 1.404 . S
C331 H345 0.929 . S
C332 C331 1.404 . S
C332 C333 1.389 . S
C333 C332 1.389 . S
C333 C334 1.399 . S
C333 H346 0.931 . S
C334 C333 1.399 . S
C334 C335 1.390 . S
C335 C330 1.392 . S
C335 C334 1.390 . S
C335 H347 0.929 . S
O336 Tb320 2.326 . S
O336 C324 1.242 . S
O337 Eu321 2.324 . S
O337 C324 1.258 . S
O338 Tb320 2.500 . S
O338 C340 1.273 . S
O339 Tb320 2.473 . S
O339 C340 1.257 . S
C340 O338 1.273 . S
C340 O339 1.257 . S
O341 Eu321 2.326 . S
O341 C329 1.242 . S
O342 Tb320 2.324 . S
O342 C329 1.258 . S
O343 Eu321 2.500 . S
O343 C326 1.273 . S
O344 Eu321 2.473 . S
O344 C326 1.257 . S
H345 C331 0.929 . S
H346 C333 0.931 . S
H347 C335 0.929 . S
H348 C366 0.951 . S
H349 C368 0.951 . S
H350 C370 0.950 . S
H351 C371 0.950 . S
H352 C373 0.950 . S
H353 C376 0.950 . S
H354 C377 0.950 . S
H355 C379 0.950 . S
H356 C380 0.950 . S
H357 C381 0.951 . S
H358 C383 0.951 . S
H359 C385 0.950 . S
H360 C386 0.950 . S
H361 C388 0.950 . S
H362 C391 0.950 . S
H363 C392 0.950 . S
H364 C394 0.950 . S
H365 C395 0.950 . S
C366 H348 0.951 . S
C366 C367 1.366 . S
C366 C368 1.388 . S
C367 C366 1.366 . S
C367 C371 1.385 . S
C368 H349 0.951 . S
C368 C366 1.388 . S
C368 C369 1.366 . S
C369 C368 1.366 . S
C369 C370 1.414 . S
C369 C372 1.499 . S
C370 H350 0.950 . S
C370 C369 1.414 . S
C370 C371 1.374 . S
C371 H351 0.950 . S
C371 C367 1.385 . S
C371 C370 1.374 . S
C372 C369 1.499 . S
C372 C373 1.373 . S
C372 C374 1.380 1_545 S
C373 H352 0.950 . S
C373 C372 1.373 . S
C373 C389 1.388 . S
C374 C372 1.380 1_565 S
C374 C375 1.522 . S
C374 C388 1.388 . S
C375 C374 1.522 . S
C375 C376 1.397 1_565 S
C375 C380 1.363 . S
C376 H353 0.950 . S
C376 C375 1.397 1_545 S
C376 C377 1.334 . S
C377 H354 0.950 . S
C377 C376 1.334 . S
C377 C378 1.287 1_545 S
C378 C377 1.287 1_565 S
C378 C379 1.524 . S
C378 H397 0.913 . S
C379 H355 0.950 . S
C379 C378 1.524 . S
C379 C380 1.415 . S
C380 H356 0.950 . S
C380 C375 1.363 . S
C380 C379 1.415 . S
C381 H357 0.951 . S
C381 C382 1.366 . S
C381 C383 1.388 . S
C382 C381 1.366 . S
C382 C386 1.385 . S
C383 H358 0.951 . S
C383 C381 1.388 . S
C383 C384 1.366 . S
C384 C383 1.366 . S
C384 C385 1.414 . S
C384 C387 1.499 . S
C385 H359 0.950 . S
C385 C384 1.414 . S
C385 C386 1.374 . S
C386 H360 0.950 . S
C386 C382 1.385 . S
C386 C385 1.374 . S
C387 C384 1.499 . S
C387 C388 1.373 . S
C387 C389 1.380 1_565 S
C388 H361 0.950 . S
C388 C374 1.388 . S
C388 C387 1.373 . S
C389 C373 1.388 . S
C389 C387 1.380 1_545 S
C389 C390 1.522 . S
C390 C389 1.522 . S
C390 C391 1.397 1_545 S
C390 C395 1.363 . S
C391 H362 0.950 . S
C391 C390 1.397 1_565 S
C391 C392 1.334 . S
C392 H363 0.950 . S
C392 C391 1.334 . S
C392 C393 1.287 1_565 S
C393 C392 1.287 1_545 S
C393 C394 1.524 . S
C393 H396 0.999 . S
C394 H364 0.950 . S
C394 C393 1.524 . S
C394 C395 1.415 . S
C395 H365 0.950 . S
C395 C390 1.363 . S
C395 C394 1.415 . S
H396 C393 0.999 . S
H397 C378 0.913 . S
H398 C416 0.951 . S
H399 C418 0.951 . S
H400 C420 0.950 . S
H401 C421 0.950 . S
H402 C423 0.950 . S
H403 C426 0.950 . S
H404 C427 0.950 . S
H405 C429 0.950 . S
H406 C430 0.950 . S
H407 C431 0.951 . S
H408 C433 0.951 . S
H409 C435 0.950 . S
H410 C436 0.950 . S
H411 C438 0.950 . S
H412 C441 0.950 . S
H413 C442 0.950 . S
H414 C444 0.950 . S
H415 C445 0.950 . S
C416 H398 0.951 . S
C416 C417 1.366 . S
C416 C418 1.388 . S
C417 C416 1.366 . S
C417 C421 1.385 . S
C418 H399 0.951 . S
C418 C416 1.388 . S
C418 C419 1.366 . S
C419 C418 1.366 . S
C419 C420 1.414 . S
C419 C422 1.499 . S
C420 H400 0.950 . S
C420 C419 1.414 . S
C420 C421 1.374 . S
C421 H401 0.950 . S
C421 C417 1.385 . S
C421 C420 1.374 . S
C422 C419 1.499 . S
C422 C423 1.373 . S
C422 C424 1.389 . S
C423 H402 0.950 . S
C423 C422 1.373 . S
C423 C439 1.377 . S
C424 C422 1.389 . S
C424 C425 1.524 . S
C424 C438 1.377 . S
C425 C424 1.524 . S
C425 C426 1.397 . S
C425 C430 1.363 . S
C426 H403 0.950 . S
C426 C425 1.397 . S
C426 C427 1.334 . S
C427 H404 0.950 . S
C427 C426 1.334 . S
C427 C428 1.287 . S
C428 C427 1.287 . S
C428 C429 1.524 . S
C428 H447 0.913 . S
C429 H405 0.950 . S
C429 C428 1.524 . S
C429 C430 1.415 . S
C430 H406 0.950 . S
C430 C425 1.363 . S
C430 C429 1.415 . S
C431 H407 0.951 . S
C431 C432 1.366 . S
C431 C433 1.388 . S
C432 C431 1.366 . S
C432 C436 1.385 . S
C433 H408 0.951 . S
C433 C431 1.388 . S
C433 C434 1.366 . S
C434 C433 1.366 . S
C434 C435 1.414 . S
C434 C437 1.499 . S
C435 H409 0.950 . S
C435 C434 1.414 . S
C435 C436 1.374 . S
C436 H410 0.950 . S
C436 C432 1.385 . S
C436 C435 1.374 . S
C437 C434 1.499 . S
C437 C438 1.373 . S
C437 C439 1.389 . S
C438 H411 0.950 . S
C438 C424 1.377 . S
C438 C437 1.373 . S
C439 C423 1.377 . S
C439 C437 1.389 . S
C439 C440 1.524 . S
C440 C439 1.524 . S
C440 C441 1.397 . S
C440 C445 1.363 . S
C441 H412 0.950 . S
C441 C440 1.397 . S
C441 C442 1.334 . S
C442 H413 0.950 . S
C442 C441 1.334 . S
C442 C443 1.287 . S
C443 C442 1.287 . S
C443 C444 1.524 . S
C443 H446 0.999 . S
C444 H414 0.950 . S
C444 C443 1.524 . S
C444 C445 1.415 . S
C445 H415 0.950 . S
C445 C440 1.363 . S
C445 C444 1.415 . S
H446 C443 0.999 . S
H447 C428 0.913 . S
H448 C466 0.951 . S
H449 C468 0.951 . S
H450 C470 0.950 . S
H451 C471 0.950 . S
H452 C473 0.950 . S
H453 C476 0.950 . S
H454 C477 0.950 . S
H455 C479 0.950 . S
H456 C480 0.950 . S
H457 C481 0.951 . S
H458 C483 0.951 . S
H459 C485 0.950 . S
H460 C486 0.950 . S
H461 C488 0.950 . S
H462 C491 0.950 . S
H463 C492 0.950 . S
H464 C494 0.950 . S
H465 C495 0.950 . S
C466 H448 0.951 . S
C466 C467 1.366 . S
C466 C468 1.388 . S
C467 C466 1.366 . S
C467 C471 1.385 . S
C468 H449 0.951 . S
C468 C466 1.388 . S
C468 C469 1.366 . S
C469 C468 1.366 . S
C469 C470 1.414 . S
C469 C472 1.499 . S
C470 H450 0.950 . S
C470 C469 1.414 . S
C470 C471 1.374 . S
C471 H451 0.950 . S
C471 C467 1.385 . S
C471 C470 1.374 . S
C472 C469 1.499 . S
C472 C473 1.373 . S
C472 C474 1.389 . S
C473 H452 0.950 . S
C473 C472 1.373 . S
C473 C489 1.377 1_455 S
C474 C472 1.389 . S
C474 C475 1.524 . S
C474 C488 1.377 1_455 S
C475 C474 1.524 . S
C475 C476 1.397 . S
C475 C480 1.363 . S
C476 H453 0.950 . S
C476 C475 1.397 . S
C476 C477 1.334 . S
C477 H454 0.950 . S
C477 C476 1.334 . S
C477 C478 1.287 . S
C478 C477 1.287 . S
C478 C479 1.524 . S
C478 H497 0.913 . S
C479 H455 0.950 . S
C479 C478 1.524 . S
C479 C480 1.415 . S
C480 H456 0.950 . S
C480 C475 1.363 . S
C480 C479 1.415 . S
C481 H457 0.951 . S
C481 C482 1.366 . S
C481 C483 1.388 . S
C482 C481 1.366 . S
C482 C486 1.385 . S
C483 H458 0.951 . S
C483 C481 1.388 . S
C483 C484 1.366 . S
C484 C483 1.366 . S
C484 C485 1.414 . S
C484 C487 1.499 . S
C485 H459 0.950 . S
C485 C484 1.414 . S
C485 C486 1.374 . S
C486 H460 0.950 . S
C486 C482 1.385 . S
C486 C485 1.374 . S
C487 C484 1.499 . S
C487 C488 1.373 . S
C487 C489 1.389 . S
C488 H461 0.950 . S
C488 C474 1.377 1_655 S
C488 C487 1.373 . S
C489 C473 1.377 1_655 S
C489 C487 1.389 . S
C489 C490 1.524 . S
C490 C489 1.524 . S
C490 C491 1.397 . S
C490 C495 1.363 . S
C491 H462 0.950 . S
C491 C490 1.397 . S
C491 C492 1.334 . S
C492 H463 0.950 . S
C492 C491 1.334 . S
C492 C493 1.287 . S
C493 C492 1.287 . S
C493 C494 1.524 . S
C493 H496 0.999 . S
C494 H464 0.950 . S
C494 C493 1.524 . S
C494 C495 1.415 . S
C495 H465 0.950 . S
C495 C490 1.363 . S
C495 C494 1.415 . S
H496 C493 0.999 . S
H497 C478 0.913 . S
H498 C516 0.951 . S
H499 C518 0.951 . S
H500 C520 0.950 . S
H501 C521 0.950 . S
H502 C523 0.950 . S
H503 C526 0.950 . S
H504 C527 0.950 . S
H505 C529 0.950 . S
H506 C530 0.950 . S
H507 C531 0.951 . S
H508 C533 0.951 . S
H509 C535 0.950 . S
H510 C536 0.950 . S
H511 C538 0.950 . S
H512 C541 0.950 . S
H513 C542 0.950 . S
H514 C544 0.950 . S
H515 C545 0.950 . S
C516 H498 0.951 . S
C516 C517 1.366 . S
C516 C518 1.388 . S
C517 C516 1.366 . S
C517 C521 1.385 . S
C518 H499 0.951 . S
C518 C516 1.388 . S
C518 C519 1.366 . S
C519 C518 1.366 . S
C519 C520 1.414 . S
C519 C522 1.499 . S
C520 H500 0.950 . S
C520 C519 1.414 . S
C520 C521 1.374 . S
C521 H501 0.950 . S
C521 C517 1.385 . S
C521 C520 1.374 . S
C522 C519 1.499 . S
C522 C523 1.373 . S
C522 C524 1.389 . S
C523 H502 0.950 . S
C523 C522 1.373 . S
C523 C539 1.377 1_565 S
C524 C522 1.389 . S
C524 C525 1.524 . S
C524 C538 1.377 1_565 S
C525 C524 1.524 . S
C525 C526 1.397 . S
C525 C530 1.363 . S
C526 H503 0.950 . S
C526 C525 1.397 . S
C526 C527 1.334 . S
C527 H504 0.950 . S
C527 C526 1.334 . S
C527 C528 1.287 . S
C528 C527 1.287 . S
C528 C529 1.524 . S
C528 H547 0.913 . S
C529 H505 0.950 . S
C529 C528 1.524 . S
C529 C530 1.415 . S
C530 H506 0.950 . S
C530 C525 1.363 . S
C530 C529 1.415 . S
C531 H507 0.951 . S
C531 C532 1.366 . S
C531 C533 1.388 . S
C532 C531 1.366 . S
C532 C536 1.385 . S
C533 H508 0.951 . S
C533 C531 1.388 . S
C533 C534 1.366 . S
C534 C533 1.366 . S
C534 C535 1.414 . S
C534 C537 1.499 . S
C535 H509 0.950 . S
C535 C534 1.414 . S
C535 C536 1.374 . S
C536 H510 0.950 . S
C536 C532 1.385 . S
C536 C535 1.374 . S
C537 C534 1.499 . S
C537 C538 1.373 . S
C537 C539 1.389 . S
C538 H511 0.950 . S
C538 C524 1.377 1_545 S
C538 C537 1.373 . S
C539 C523 1.377 1_545 S
C539 C537 1.389 . S
C539 C540 1.524 . S
C540 C539 1.524 . S
C540 C541 1.397 . S
C540 C545 1.363 . S
C541 H512 0.950 . S
C541 C540 1.397 . S
C541 C542 1.334 . S
C542 H513 0.950 . S
C542 C541 1.334 . S
C542 C543 1.287 . S
C543 C542 1.287 . S
C543 C544 1.524 . S
C543 H546 0.999 . S
C544 H514 0.950 . S
C544 C543 1.524 . S
C544 C545 1.415 . S
C545 H515 0.950 . S
C545 C540 1.363 . S
C545 C544 1.415 . S
H546 C543 0.999 . S
H547 C528 0.913 . S
H548 C566 0.951 . S
H549 C568 0.951 . S
H550 C570 0.950 . S
H551 C571 0.950 . S
H552 C573 0.950 . S
H553 C576 0.950 . S
H554 C577 0.950 . S
H555 C579 0.950 . S
H556 C580 0.950 . S
H557 C581 0.951 . S
H558 C583 0.951 . S
H559 C585 0.950 . S
H560 C586 0.950 . S
H561 C588 0.950 . S
H562 C591 0.950 . S
H563 C592 0.950 . S
H564 C594 0.950 . S
H565 C595 0.950 . S
C566 H548 0.951 . S
C566 C567 1.366 . S
C566 C568 1.388 . S
C567 C566 1.366 . S
C567 C571 1.385 . S
C568 H549 0.951 . S
C568 C566 1.388 . S
C568 C569 1.366 . S
C569 C568 1.366 . S
C569 C570 1.414 . S
C569 C572 1.499 . S
C570 H550 0.950 . S
C570 C569 1.414 . S
C570 C571 1.374 . S
C571 H551 0.950 . S
C571 C567 1.385 . S
C571 C570 1.374 . S
C572 C569 1.499 . S
C572 C573 1.373 . S
C572 C574 1.389 . S
C573 H552 0.950 . S
C573 C572 1.373 . S
C573 C589 1.377 . S
C574 C572 1.389 . S
C574 C575 1.524 . S
C574 C588 1.377 . S
C575 C574 1.524 . S
C575 C576 1.397 . S
C575 C580 1.363 . S
C576 H553 0.950 . S
C576 C575 1.397 . S
C576 C577 1.334 . S
C577 H554 0.950 . S
C577 C576 1.334 . S
C577 C578 1.287 . S
C578 C577 1.287 . S
C578 C579 1.524 . S
C578 H597 0.913 . S
C579 H555 0.950 . S
C579 C578 1.524 . S
C579 C580 1.415 . S
C580 H556 0.950 . S
C580 C575 1.363 . S
C580 C579 1.415 . S
C581 H557 0.951 . S
C581 C582 1.366 . S
C581 C583 1.388 . S
C582 C581 1.366 . S
C582 C586 1.385 . S
C583 H558 0.951 . S
C583 C581 1.388 . S
C583 C584 1.366 . S
C584 C583 1.366 . S
C584 C585 1.414 . S
C584 C587 1.499 . S
C585 H559 0.950 . S
C585 C584 1.414 . S
C585 C586 1.374 . S
C586 H560 0.950 . S
C586 C582 1.385 . S
C586 C585 1.374 . S
C587 C584 1.499 . S
C587 C588 1.373 . S
C587 C589 1.389 . S
C588 H561 0.950 . S
C588 C574 1.377 . S
C588 C587 1.373 . S
C589 C573 1.377 . S
C589 C587 1.389 . S
C589 C590 1.524 . S
C590 C589 1.524 . S
C590 C591 1.397 . S
C590 C595 1.363 . S
C591 H562 0.950 . S
C591 C590 1.397 . S
C591 C592 1.334 . S
C592 H563 0.950 . S
C592 C591 1.334 . S
C592 C593 1.287 . S
C593 C592 1.287 . S
C593 C594 1.524 . S
C593 H596 0.999 . S
C594 H564 0.950 . S
C594 C593 1.524 . S
C594 C595 1.415 . S
C595 H565 0.950 . S
C595 C590 1.363 . S
C595 C594 1.415 . S
H596 C593 0.999 . S
H597 C578 0.913 . S
H598 C616 0.951 . S
H599 C618 0.951 . S
H600 C620 0.950 . S
H601 C621 0.950 . S
H602 C623 0.950 . S
H603 C626 0.950 . S
H604 C627 0.950 . S
H605 C629 0.950 . S
H606 C630 0.950 . S
H607 C631 0.951 . S
H608 C633 0.951 . S
H609 C635 0.950 . S
H610 C636 0.950 . S
H611 C638 0.950 . S
H612 C641 0.950 . S
H613 C642 0.950 . S
H614 C644 0.950 . S
H615 C645 0.950 . S
C616 H598 0.951 . S
C616 C617 1.366 . S
C616 C618 1.388 . S
C617 C616 1.366 . S
C617 C621 1.385 . S
C618 H599 0.951 . S
C618 C616 1.388 . S
C618 C619 1.366 . S
C619 C618 1.366 . S
C619 C620 1.414 . S
C619 C622 1.499 . S
C620 H600 0.950 . S
C620 C619 1.414 . S
C620 C621 1.374 . S
C621 H601 0.950 . S
C621 C617 1.385 . S
C621 C620 1.374 . S
C622 C619 1.499 . S
C622 C623 1.373 . S
C622 C624 1.389 . S
C623 H602 0.950 . S
C623 C622 1.373 . S
C623 C639 1.377 1_655 S
C624 C622 1.389 . S
C624 C625 1.524 . S
C624 C638 1.377 1_655 S
C625 C624 1.524 . S
C625 C626 1.397 . S
C625 C630 1.363 1_655 S
C626 H603 0.950 . S
C626 C625 1.397 . S
C626 C627 1.334 . S
C627 H604 0.950 . S
C627 C626 1.334 . S
C627 C628 1.287 . S
C628 C627 1.287 . S
C628 C629 1.524 1_655 S
C628 H647 0.913 . S
C629 H605 0.950 . S
C629 C628 1.524 1_455 S
C629 C630 1.415 . S
C630 H606 0.950 . S
C630 C625 1.363 1_455 S
C630 C629 1.415 . S
C631 H607 0.951 . S
C631 C632 1.366 . S
C631 C633 1.388 . S
C632 C631 1.366 . S
C632 C636 1.385 . S
C633 H608 0.951 . S
C633 C631 1.388 . S
C633 C634 1.366 . S
C634 C633 1.366 . S
C634 C635 1.414 . S
C634 C637 1.499 . S
C635 H609 0.950 . S
C635 C634 1.414 . S
C635 C636 1.374 . S
C636 H610 0.950 . S
C636 C632 1.385 . S
C636 C635 1.374 . S
C637 C634 1.499 . S
C637 C638 1.373 . S
C637 C639 1.389 . S
C638 H611 0.950 . S
C638 C624 1.377 1_455 S
C638 C637 1.373 . S
C639 C623 1.377 1_455 S
C639 C637 1.389 . S
C639 C640 1.524 . S
C640 C639 1.524 . S
C640 C641 1.397 . S
C640 C645 1.363 1_455 S
C641 H612 0.950 . S
C641 C640 1.397 . S
C641 C642 1.334 . S
C642 H613 0.950 . S
C642 C641 1.334 . S
C642 C643 1.287 . S
C643 C642 1.287 . S
C643 C644 1.524 1_455 S
C643 H646 0.999 . S
C644 H614 0.950 . S
C644 C643 1.524 1_655 S
C644 C645 1.415 . S
C645 H615 0.950 . S
C645 C640 1.363 1_655 S
C645 C644 1.415 . S
H646 C643 0.999 . S
H647 C628 0.913 . S
H648 C666 0.951 . S
H649 C668 0.951 . S
H650 C670 0.950 . S
H651 C671 0.950 . S
H652 C673 0.950 . S
H653 C676 0.950 . S
H654 C677 0.950 . S
H655 C679 0.950 . S
H656 C680 0.950 . S
H657 C681 0.951 . S
H658 C683 0.951 . S
H659 C685 0.950 . S
H660 C686 0.950 . S
H661 C688 0.950 . S
H662 C691 0.950 . S
H663 C692 0.950 . S
H664 C694 0.950 . S
H665 C695 0.950 . S
C666 H648 0.951 . S
C666 C667 1.366 . S
C666 C668 1.388 . S
C667 C666 1.366 . S
C667 C671 1.385 . S
C668 H649 0.951 . S
C668 C666 1.388 . S
C668 C669 1.366 . S
C669 C668 1.366 . S
C669 C670 1.414 . S
C669 C672 1.499 . S
C670 H650 0.950 . S
C670 C669 1.414 . S
C670 C671 1.374 . S
C671 H651 0.950 . S
C671 C667 1.385 . S
C671 C670 1.374 . S
C672 C669 1.499 . S
C672 C673 1.373 . S
C672 C674 1.385 1_545 S
C673 H652 0.950 . S
C673 C672 1.373 . S
C673 C689 1.384 . S
C674 C672 1.385 1_565 S
C674 C675 1.521 . S
C674 C688 1.384 . S
C675 C674 1.521 . S
C675 C676 1.397 1_565 S
C675 C680 1.363 . S
C676 H653 0.950 . S
C676 C675 1.397 1_545 S
C676 C677 1.334 . S
C677 H654 0.950 . S
C677 C676 1.334 . S
C677 C678 1.267 1_545 S
C678 C677 1.267 1_565 S
C678 C679 1.556 . S
C678 H697 0.901 . S
C679 H655 0.950 . S
C679 C678 1.556 . S
C679 C680 1.415 . S
C680 H656 0.950 . S
C680 C675 1.363 . S
C680 C679 1.415 . S
C681 H657 0.951 . S
C681 C682 1.366 . S
C681 C683 1.388 . S
C682 C681 1.366 . S
C682 C686 1.385 . S
C683 H658 0.951 . S
C683 C681 1.388 . S
C683 C684 1.366 . S
C684 C683 1.366 . S
C684 C685 1.414 . S
C684 C687 1.499 . S
C685 H659 0.950 . S
C685 C684 1.414 . S
C685 C686 1.374 . S
C686 H660 0.950 . S
C686 C682 1.385 . S
C686 C685 1.374 . S
C687 C684 1.499 . S
C687 C688 1.373 . S
C687 C689 1.385 1_565 S
C688 H661 0.950 . S
C688 C674 1.384 . S
C688 C687 1.373 . S
C689 C673 1.384 . S
C689 C687 1.385 1_545 S
C689 C690 1.521 . S
C690 C689 1.521 . S
C690 C691 1.397 1_545 S
C690 C695 1.363 . S
C691 H662 0.950 . S
C691 C690 1.397 1_565 S
C691 C692 1.334 . S
C692 H663 0.950 . S
C692 C691 1.334 . S
C692 C693 1.267 1_565 S
C693 C692 1.267 1_545 S
C693 C694 1.556 . S
C693 H696 0.989 . S
C694 H664 0.950 . S
C694 C693 1.556 . S
C694 C695 1.415 . S
C695 H665 0.950 . S
C695 C690 1.363 . S
C695 C694 1.415 . S
H696 C693 0.989 . S
H697 C678 0.901 . S
H698 C716 0.951 . S
H699 C718 0.951 . S
H700 C720 0.950 . S
H701 C721 0.950 . S
H702 C723 0.950 . S
H703 C726 0.950 . S
H704 C727 0.950 . S
H705 C729 0.950 . S
H706 C730 0.950 . S
H707 C731 0.951 . S
H708 C733 0.951 . S
H709 C735 0.950 . S
H710 C736 0.950 . S
H711 C738 0.950 . S
H712 C741 0.950 . S
H713 C742 0.950 . S
H714 C744 0.950 . S
H715 C745 0.950 . S
C716 H698 0.951 . S
C716 C717 1.366 . S
C716 C718 1.388 . S
C717 C716 1.366 . S
C717 C721 1.385 . S
C718 H699 0.951 . S
C718 C716 1.388 . S
C718 C719 1.366 . S
C719 C718 1.366 . S
C719 C720 1.414 . S
C719 C722 1.499 . S
C720 H700 0.950 . S
C720 C719 1.414 . S
C720 C721 1.374 . S
C721 H701 0.950 . S
C721 C717 1.385 . S
C721 C720 1.374 . S
C722 C719 1.499 . S
C722 C723 1.373 . S
C722 C724 1.389 . S
C723 H702 0.950 . S
C723 C722 1.373 . S
C723 C739 1.377 . S
C724 C722 1.389 . S
C724 C725 1.524 . S
C724 C738 1.377 . S
C725 C724 1.524 . S
C725 C726 1.397 . S
C725 C730 1.363 . S
C726 H703 0.950 . S
C726 C725 1.397 . S
C726 C727 1.334 . S
C727 H704 0.950 . S
C727 C726 1.334 . S
C727 C728 1.287 . S
C728 C727 1.287 . S
C728 C729 1.524 . S
C728 H747 0.913 . S
C729 H705 0.950 . S
C729 C728 1.524 . S
C729 C730 1.415 . S
C730 H706 0.950 . S
C730 C725 1.363 . S
C730 C729 1.415 . S
C731 H707 0.951 . S
C731 C732 1.366 . S
C731 C733 1.388 . S
C732 C731 1.366 . S
C732 C736 1.385 . S
C733 H708 0.951 . S
C733 C731 1.388 . S
C733 C734 1.366 . S
C734 C733 1.366 . S
C734 C735 1.414 . S
C734 C737 1.499 . S
C735 H709 0.950 . S
C735 C734 1.414 . S
C735 C736 1.374 . S
C736 H710 0.950 . S
C736 C732 1.385 . S
C736 C735 1.374 . S
C737 C734 1.499 . S
C737 C738 1.373 . S
C737 C739 1.389 . S
C738 H711 0.950 . S
C738 C724 1.377 . S
C738 C737 1.373 . S
C739 C723 1.377 . S
C739 C737 1.389 . S
C739 C740 1.524 . S
C740 C739 1.524 . S
C740 C741 1.397 . S
C740 C745 1.363 . S
C741 H712 0.950 . S
C741 C740 1.397 . S
C741 C742 1.334 . S
C742 H713 0.950 . S
C742 C741 1.334 . S
C742 C743 1.287 . S
C743 C742 1.287 . S
C743 C744 1.524 . S
C743 H746 0.999 . S
C744 H714 0.950 . S
C744 C743 1.524 . S
C744 C745 1.415 . S
C745 H715 0.950 . S
C745 C740 1.363 . S
C745 C744 1.415 . S
H746 C743 0.999 . S
H747 C728 0.913 . S
H748 C766 0.951 . S
H749 C768 0.951 . S
H750 C770 0.950 . S
H751 C771 0.950 . S
H752 C773 0.950 . S
H753 C776 0.950 . S
H754 C777 0.950 . S
H755 C779 0.950 . S
H756 C780 0.950 . S
H757 C781 0.951 . S
H758 C783 0.951 . S
H759 C785 0.950 . S
H760 C786 0.950 . S
H761 C788 0.950 . S
H762 C791 0.950 . S
H763 C792 0.950 . S
H764 C794 0.950 . S
H765 C795 0.950 . S
C766 H748 0.951 . S
C766 C767 1.366 . S
C766 C768 1.388 . S
C767 C766 1.366 . S
C767 C771 1.385 . S
C768 H749 0.951 . S
C768 C766 1.388 . S
C768 C769 1.366 . S
C769 C768 1.366 . S
C769 C770 1.414 . S
C769 C772 1.499 . S
C770 H750 0.950 . S
C770 C769 1.414 . S
C770 C771 1.374 . S
C771 H751 0.950 . S
C771 C767 1.385 . S
C771 C770 1.374 . S
C772 C769 1.499 . S
C772 C773 1.373 . S
C772 C774 1.389 . S
C773 H752 0.950 . S
C773 C772 1.373 . S
C773 C789 1.377 1_455 S
C774 C772 1.389 . S
C774 C775 1.524 . S
C774 C788 1.377 1_455 S
C775 C774 1.524 . S
C775 C776 1.397 . S
C775 C780 1.363 . S
C776 H753 0.950 . S
C776 C775 1.397 . S
C776 C777 1.334 . S
C777 H754 0.950 . S
C777 C776 1.334 . S
C777 C778 1.287 . S
C778 C777 1.287 . S
C778 C779 1.524 . S
C778 H797 0.913 . S
C779 H755 0.950 . S
C779 C778 1.524 . S
C779 C780 1.415 . S
C780 H756 0.950 . S
C780 C775 1.363 . S
C780 C779 1.415 . S
C781 H757 0.951 . S
C781 C782 1.366 . S
C781 C783 1.388 . S
C782 C781 1.366 . S
C782 C786 1.385 . S
C783 H758 0.951 . S
C783 C781 1.388 . S
C783 C784 1.366 . S
C784 C783 1.366 . S
C784 C785 1.414 . S
C784 C787 1.499 . S
C785 H759 0.950 . S
C785 C784 1.414 . S
C785 C786 1.374 . S
C786 H760 0.950 . S
C786 C782 1.385 . S
C786 C785 1.374 . S
C787 C784 1.499 . S
C787 C788 1.373 . S
C787 C789 1.389 . S
C788 H761 0.950 . S
C788 C774 1.377 1_655 S
C788 C787 1.373 . S
C789 C773 1.377 1_655 S
C789 C787 1.389 . S
C789 C790 1.524 . S
C790 C789 1.524 . S
C790 C791 1.397 . S
C790 C795 1.363 . S
C791 H762 0.950 . S
C791 C790 1.397 . S
C791 C792 1.334 . S
C792 H763 0.950 . S
C792 C791 1.334 . S
C792 C793 1.287 . S
C793 C792 1.287 . S
C793 C794 1.524 . S
C793 H796 0.999 . S
C794 H764 0.950 . S
C794 C793 1.524 . S
C794 C795 1.415 . S
C795 H765 0.950 . S
C795 C790 1.363 . S
C795 C794 1.415 . S
H796 C793 0.999 . S
H797 C778 0.913 . S
H798 C816 0.951 . S
H799 C818 0.951 . S
H800 C820 0.950 . S
H801 C821 0.950 . S
H802 C823 0.950 . S
H803 C826 0.950 . S
H804 C827 0.950 . S
H805 C829 0.950 . S
H806 C830 0.950 . S
H807 C831 0.951 . S
H808 C833 0.951 . S
H809 C835 0.950 . S
H810 C836 0.950 . S
H811 C838 0.950 . S
H812 C841 0.950 . S
H813 C842 0.950 . S
H814 C844 0.950 . S
H815 C845 0.950 . S
C816 H798 0.951 . S
C816 C817 1.366 . S
C816 C818 1.388 . S
C817 C816 1.366 . S
C817 C821 1.385 . S
C818 H799 0.951 . S
C818 C816 1.388 . S
C818 C819 1.366 . S
C819 C818 1.366 . S
C819 C820 1.414 . S
C819 C822 1.499 . S
C820 H800 0.950 . S
C820 C819 1.414 . S
C820 C821 1.374 . S
C821 H801 0.950 . S
C821 C817 1.385 . S
C821 C820 1.374 . S
C822 C819 1.499 . S
C822 C823 1.373 1_545 S
C822 C824 1.389 . S
C823 H802 0.950 . S
C823 C822 1.373 1_565 S
C823 C839 1.377 . S
C824 C822 1.389 . S
C824 C825 1.524 . S
C824 C838 1.377 . S
C825 C824 1.524 . S
C825 C826 1.397 . S
C825 C830 1.363 . S
C826 H803 0.950 . S
C826 C825 1.397 . S
C826 C827 1.334 . S
C827 H804 0.950 . S
C827 C826 1.334 . S
C827 C828 1.287 . S
C828 C827 1.287 . S
C828 C829 1.524 . S
C828 H847 0.913 . S
C829 H805 0.950 . S
C829 C828 1.524 . S
C829 C830 1.415 . S
C830 H806 0.950 . S
C830 C825 1.363 . S
C830 C829 1.415 . S
C831 H807 0.951 . S
C831 C832 1.366 . S
C831 C833 1.388 . S
C832 C831 1.366 . S
C832 C836 1.385 . S
C833 H808 0.951 . S
C833 C831 1.388 . S
C833 C834 1.366 . S
C834 C833 1.366 . S
C834 C835 1.414 . S
C834 C837 1.499 . S
C835 H809 0.950 . S
C835 C834 1.414 . S
C835 C836 1.374 . S
C836 H810 0.950 . S
C836 C832 1.385 . S
C836 C835 1.374 . S
C837 C834 1.499 . S
C837 C838 1.373 1_565 S
C837 C839 1.389 . S
C838 H811 0.950 . S
C838 C824 1.377 . S
C838 C837 1.373 1_545 S
C839 C823 1.377 . S
C839 C837 1.389 . S
C839 C840 1.524 . S
C840 C839 1.524 . S
C840 C841 1.397 . S
C840 C845 1.363 . S
C841 H812 0.950 . S
C841 C840 1.397 . S
C841 C842 1.334 . S
C842 H813 0.950 . S
C842 C841 1.334 . S
C842 C843 1.287 . S
C843 C842 1.287 . S
C843 C844 1.524 . S
C843 H846 0.999 . S
C844 H814 0.950 . S
C844 C843 1.524 . S
C844 C845 1.415 . S
C845 H815 0.950 . S
C845 C840 1.363 . S
C845 C844 1.415 . S
H846 C843 0.999 . S
H847 C828 0.913 . S
H848 C866 0.951 . S
H849 C868 0.951 . S
H850 C870 0.950 . S
H851 C871 0.950 . S
H852 C873 0.950 . S
H853 C876 0.950 . S
H854 C877 0.950 . S
H855 C879 0.950 . S
H856 C880 0.950 . S
H857 C881 0.951 . S
H858 C883 0.951 . S
H859 C885 0.950 . S
H860 C886 0.950 . S
H861 C888 0.950 . S
H862 C891 0.950 . S
H863 C892 0.950 . S
H864 C894 0.950 . S
H865 C895 0.950 . S
C866 H848 0.951 . S
C866 C867 1.366 . S
C866 C868 1.388 . S
C867 C866 1.366 . S
C867 C871 1.385 . S
C868 H849 0.951 . S
C868 C866 1.388 . S
C868 C869 1.366 . S
C869 C868 1.366 . S
C869 C870 1.414 . S
C869 C872 1.499 . S
C870 H850 0.950 . S
C870 C869 1.414 . S
C870 C871 1.374 . S
C871 H851 0.950 . S
C871 C867 1.385 . S
C871 C870 1.374 . S
C872 C869 1.499 . S
C872 C873 1.373 . S
C872 C874 1.389 . S
C873 H852 0.950 . S
C873 C872 1.373 . S
C873 C889 1.377 . S
C874 C872 1.389 . S
C874 C875 1.524 . S
C874 C888 1.377 . S
C875 C874 1.524 . S
C875 C876 1.397 . S
C875 C880 1.363 . S
C876 H853 0.950 . S
C876 C875 1.397 . S
C876 C877 1.334 . S
C877 H854 0.950 . S
C877 C876 1.334 . S
C877 C878 1.287 . S
C878 C877 1.287 . S
C878 C879 1.524 . S
C878 H897 0.913 . S
C879 H855 0.950 . S
C879 C878 1.524 . S
C879 C880 1.415 . S
C880 H856 0.950 . S
C880 C875 1.363 . S
C880 C879 1.415 . S
C881 H857 0.951 . S
C881 C882 1.366 . S
C881 C883 1.388 . S
C882 C881 1.366 . S
C882 C886 1.385 . S
C883 H858 0.951 . S
C883 C881 1.388 . S
C883 C884 1.366 . S
C884 C883 1.366 . S
C884 C885 1.414 . S
C884 C887 1.499 . S
C885 H859 0.950 . S
C885 C884 1.414 . S
C885 C886 1.374 . S
C886 H860 0.950 . S
C886 C882 1.385 . S
C886 C885 1.374 . S
C887 C884 1.499 . S
C887 C888 1.373 . S
C887 C889 1.389 . S
C888 H861 0.950 . S
C888 C874 1.377 . S
C888 C887 1.373 . S
C889 C873 1.377 . S
C889 C887 1.389 . S
C889 C890 1.524 . S
C890 C889 1.524 . S
C890 C891 1.397 . S
C890 C895 1.363 . S
C891 H862 0.950 . S
C891 C890 1.397 . S
C891 C892 1.334 . S
C892 H863 0.950 . S
C892 C891 1.334 . S
C892 C893 1.287 . S
C893 C892 1.287 . S
C893 C894 1.524 . S
C893 H896 0.999 . S
C894 H864 0.950 . S
C894 C893 1.524 . S
C894 C895 1.415 . S
C895 H865 0.950 . S
C895 C890 1.363 . S
C895 C894 1.415 . S
H896 C893 0.999 . S
H897 C878 0.913 . S
H898 C916 0.951 . S
H899 C918 0.951 . S
H900 C920 0.950 . S
H901 C921 0.950 . S
H902 C923 0.950 . S
H903 C926 0.950 . S
H904 C927 0.950 . S
H905 C929 0.950 . S
H906 C930 0.950 . S
H907 C931 0.951 . S
H908 C933 0.951 . S
H909 C935 0.950 . S
H910 C936 0.950 . S
H911 C938 0.950 . S
H912 C941 0.950 . S
H913 C942 0.950 . S
H914 C944 0.950 . S
H915 C945 0.950 . S
C916 H898 0.951 . S
C916 C917 1.366 . S
C916 C918 1.388 . S
C917 C916 1.366 . S
C917 C921 1.385 . S
C918 H899 0.951 . S
C918 C916 1.388 . S
C918 C919 1.366 . S
C919 C918 1.366 . S
C919 C920 1.414 . S
C919 C922 1.499 . S
C920 H900 0.950 . S
C920 C919 1.414 . S
C920 C921 1.374 . S
C921 H901 0.950 . S
C921 C917 1.385 . S
C921 C920 1.374 . S
C922 C919 1.499 . S
C922 C923 1.373 . S
C922 C924 1.389 . S
C923 H902 0.950 . S
C923 C922 1.373 . S
C923 C939 1.377 1_455 S
C924 C922 1.389 . S
C924 C925 1.524 . S
C924 C938 1.377 1_455 S
C925 C924 1.524 . S
C925 C926 1.397 . S
C925 C930 1.363 1_455 S
C926 H903 0.950 . S
C926 C925 1.397 . S
C926 C927 1.334 . S
C927 H904 0.950 . S
C927 C926 1.334 . S
C927 C928 1.287 . S
C928 C927 1.287 . S
C928 C929 1.524 1_455 S
C928 H947 0.913 . S
C929 H905 0.950 . S
C929 C928 1.524 1_655 S
C929 C930 1.415 . S
C930 H906 0.950 . S
C930 C925 1.363 1_655 S
C930 C929 1.415 . S
C931 H907 0.951 . S
C931 C932 1.366 . S
C931 C933 1.388 . S
C932 C931 1.366 . S
C932 C936 1.385 . S
C933 H908 0.951 . S
C933 C931 1.388 . S
C933 C934 1.366 . S
C934 C933 1.366 . S
C934 C935 1.414 . S
C934 C937 1.499 . S
C935 H909 0.950 . S
C935 C934 1.414 . S
C935 C936 1.374 . S
C936 H910 0.950 . S
C936 C932 1.385 . S
C936 C935 1.374 . S
C937 C934 1.499 . S
C937 C938 1.373 . S
C937 C939 1.389 . S
C938 H911 0.950 . S
C938 C924 1.377 1_655 S
C938 C937 1.373 . S
C939 C923 1.377 1_655 S
C939 C937 1.389 . S
C939 C940 1.524 . S
C940 C939 1.524 . S
C940 C941 1.397 . S
C940 C945 1.363 1_655 S
C941 H912 0.950 . S
C941 C940 1.397 . S
C941 C942 1.334 . S
C942 H913 0.950 . S
C942 C941 1.334 . S
C942 C943 1.287 . S
C943 C942 1.287 . S
C943 C944 1.524 1_655 S
C943 H946 0.999 . S
C944 H914 0.950 . S
C944 C943 1.524 1_455 S
C944 C945 1.415 . S
C945 H915 0.950 . S
C945 C940 1.363 1_455 S
C945 C944 1.415 . S
H946 C943 0.999 . S
H947 C928 0.913 . S
H948 C966 0.951 . S
H949 C968 0.951 . S
H950 C970 0.950 . S
H951 C971 0.950 . S
H952 C973 0.950 . S
H953 C976 0.950 . S
H954 C977 0.950 . S
H955 C979 0.950 . S
H956 C980 0.950 . S
H957 C981 0.951 . S
H958 C983 0.951 . S
H959 C985 0.950 . S
H960 C986 0.950 . S
H961 C988 0.950 . S
H962 C991 0.950 . S
H963 C992 0.950 . S
H964 C994 0.950 . S
H965 C995 0.950 . S
C966 H948 0.951 . S
C966 C967 1.360 1_554 S
C966 C968 1.388 . S
C967 C966 1.360 1_556 S
C967 C971 1.391 . S
C968 H949 0.951 . S
C968 C966 1.388 . S
C968 C969 1.366 1_554 S
C969 C968 1.366 1_556 S
C969 C970 1.414 . S
C969 C972 1.499 . S
C970 H950 0.950 . S
C970 C969 1.414 . S
C970 C971 1.374 . S
C971 H951 0.950 . S
C971 C967 1.391 . S
C971 C970 1.374 . S
C972 C969 1.499 . S
C972 C973 1.373 1_566 S
C972 C974 1.389 . S
C973 H952 0.950 . S
C973 C972 1.373 1_544 S
C973 C989 1.377 . S
C974 C972 1.389 . S
C974 C975 1.524 . S
C974 C988 1.377 . S
C975 C974 1.524 . S
C975 C976 1.397 . S
C975 C980 1.363 . S
C976 H953 0.950 . S
C976 C975 1.397 . S
C976 C977 1.334 . S
C977 H954 0.950 . S
C977 C976 1.334 . S
C977 C978 1.287 . S
C978 C977 1.287 . S
C978 C979 1.524 . S
C978 H997 0.913 . S
C979 H955 0.950 . S
C979 C978 1.524 . S
C979 C980 1.415 . S
C980 H956 0.950 . S
C980 C975 1.363 . S
C980 C979 1.415 . S
C981 H957 0.951 . S
C981 C982 1.366 . S
C981 C983 1.388 . S
C982 C981 1.366 . S
C982 C986 1.385 1_556 S
C983 H958 0.951 . S
C983 C981 1.388 . S
C983 C984 1.366 1_556 S
C984 C983 1.366 1_554 S
C984 C985 1.414 . S
C984 C987 1.499 . S
C985 H959 0.950 . S
C985 C984 1.414 . S
C985 C986 1.374 . S
C986 H960 0.950 . S
C986 C982 1.385 1_554 S
C986 C985 1.374 . S
C987 C984 1.499 . S
C987 C988 1.373 1_544 S
C987 C989 1.389 . S
C988 H961 0.950 . S
C988 C974 1.377 . S
C988 C987 1.373 1_566 S
C989 C973 1.377 . S
C989 C987 1.389 . S
C989 C990 1.524 . S
C990 C989 1.524 . S
C990 C991 1.397 . S
C990 C995 1.363 . S
C991 H962 0.950 . S
C991 C990 1.397 . S
C991 C992 1.334 . S
C992 H963 0.950 . S
C992 C991 1.334 . S
C992 C993 1.287 . S
C993 C992 1.287 . S
C993 C994 1.524 . S
C993 H996 0.999 . S
C994 H964 0.950 . S
C994 C993 1.524 . S
C994 C995 1.415 . S
C995 H965 0.950 . S
C995 C990 1.363 . S
C995 C994 1.415 . S
H996 C993 0.999 . S
H997 C978 0.913 . S
H998 C1016 0.951 . S
H999 C1018 0.951 . S
H1000 C1020 0.950 . S
H1001 C1021 0.950 . S
H1002 C1023 0.950 . S
H1003 C1026 0.950 . S
H1004 C1027 0.950 . S
H1005 C1029 0.950 . S
H1006 C1030 0.950 . S
H1007 C1031 0.951 . S
H1008 C1033 0.951 . S
H1009 C1035 0.950 . S
H1010 C1036 0.950 . S
H1011 C1038 0.950 . S
H1012 C1041 0.950 . S
H1013 C1042 0.950 . S
H1014 C1044 0.950 . S
H1015 C1045 0.950 . S
C1016 H998 0.951 . S
C1016 C1017 1.366 1_554 S
C1016 C1018 1.388 . S
C1017 C1016 1.366 1_556 S
C1017 C1021 1.385 . S
C1018 H999 0.951 . S
C1018 C1016 1.388 . S
C1018 C1019 1.366 . S
C1019 C1018 1.366 . S
C1019 C1020 1.414 1_554 S
C1019 C1022 1.499 . S
C1020 H1000 0.950 . S
C1020 C1019 1.414 1_556 S
C1020 C1021 1.374 . S
C1021 H1001 0.950 . S
C1021 C1017 1.385 . S
C1021 C1020 1.374 . S
C1022 C1019 1.499 . S
C1022 C1023 1.373 1_554 S
C1022 C1024 1.389 . S
C1023 H1002 0.950 . S
C1023 C1022 1.373 1_556 S
C1023 C1039 1.377 . S
C1024 C1022 1.389 . S
C1024 C1025 1.524 . S
C1024 C1038 1.377 . S
C1025 C1024 1.524 . S
C1025 C1026 1.397 . S
C1025 C1030 1.363 . S
C1026 H1003 0.950 . S
C1026 C1025 1.397 . S
C1026 C1027 1.334 . S
C1027 H1004 0.950 . S
C1027 C1026 1.334 . S
C1027 C1028 1.287 . S
C1028 C1027 1.287 . S
C1028 C1029 1.524 . S
C1028 H1047 0.913 . S
C1029 H1005 0.950 . S
C1029 C1028 1.524 . S
C1029 C1030 1.415 . S
C1030 H1006 0.950 . S
C1030 C1025 1.363 . S
C1030 C1029 1.415 . S
C1031 H1007 0.951 . S
C1031 C1032 1.369 . S
C1031 C1033 1.388 . S
C1032 C1031 1.369 . S
C1032 C1036 1.382 1_556 S
C1033 H1008 0.951 . S
C1033 C1031 1.388 . S
C1033 C1034 1.366 . S
C1034 C1033 1.366 . S
C1034 C1035 1.414 1_556 S
C1034 C1037 1.499 . S
C1035 H1009 0.950 . S
C1035 C1034 1.414 1_554 S
C1035 C1036 1.374 . S
C1036 H1010 0.950 . S
C1036 C1032 1.382 1_554 S
C1036 C1035 1.374 . S
C1037 C1034 1.499 . S
C1037 C1038 1.373 1_556 S
C1037 C1039 1.389 . S
C1038 H1011 0.950 . S
C1038 C1024 1.377 . S
C1038 C1037 1.373 1_554 S
C1039 C1023 1.377 . S
C1039 C1037 1.389 . S
C1039 C1040 1.524 . S
C1040 C1039 1.524 . S
C1040 C1041 1.397 . S
C1040 C1045 1.363 . S
C1041 H1012 0.950 . S
C1041 C1040 1.397 . S
C1041 C1042 1.334 . S
C1042 H1013 0.950 . S
C1042 C1041 1.334 . S
C1042 C1043 1.287 . S
C1043 C1042 1.287 . S
C1043 C1044 1.524 . S
C1043 H1046 0.999 . S
C1044 H1014 0.950 . S
C1044 C1043 1.524 . S
C1044 C1045 1.415 . S
C1045 H1015 0.950 . S
C1045 C1040 1.363 . S
C1045 C1044 1.415 . S
H1046 C1043 0.999 . S
H1047 C1028 0.913 . S
H1048 C1066 0.951 . S
H1049 C1068 0.951 . S
H1050 C1070 0.950 . S
H1051 C1071 0.950 . S
H1052 C1073 0.950 . S
H1053 C1076 0.950 1_455 S
H1054 C1077 0.950 . S
H1055 C1079 0.959 . S
H1056 C1080 0.932 1_556 S
H1057 C1081 0.951 . S
H1058 C1083 0.951 . S
H1059 C1085 0.950 . S
H1060 C1086 0.950 . S
H1061 C1088 0.950 . S
H1062 C1091 0.950 1_655 S
H1063 C1092 0.950 . S
H1064 C1094 0.950 . S
H1065 C1095 0.950 1_554 S
C1066 H1048 0.951 . S
C1066 C1067 1.366 . S
C1066 C1068 1.388 . S
C1067 C1066 1.366 . S
C1067 C1071 1.385 1_556 S
C1068 H1049 0.951 . S
C1068 C1066 1.388 . S
C1068 C1069 1.366 1_556 S
C1069 C1068 1.366 1_554 S
C1069 C1070 1.414 . S
C1069 C1072 1.499 . S
C1070 H1050 0.950 . S
C1070 C1069 1.414 . S
C1070 C1071 1.374 . S
C1071 H1051 0.950 . S
C1071 C1067 1.385 1_554 S
C1071 C1070 1.374 . S
C1072 C1069 1.499 . S
C1072 C1073 1.373 1_554 S
C1072 C1074 1.389 1_455 S
C1073 H1052 0.950 . S
C1073 C1072 1.373 1_556 S
C1073 C1089 1.377 . S
C1074 C1072 1.389 1_655 S
C1074 C1075 1.524 . S
C1074 C1088 1.377 . S
C1075 C1074 1.524 . S
C1075 C1076 1.397 . S
C1075 C1080 1.374 . S
C1076 H1053 0.950 1_655 S
C1076 C1075 1.397 . S
C1076 C1077 1.334 . S
C1077 H1054 0.950 . S
C1077 C1076 1.334 . S
C1077 C1078 1.287 . S
C1078 C1077 1.287 . S
C1078 C1079 1.524 . S
C1078 H1097 0.913 . S
C1079 H1055 0.959 . S
C1079 C1078 1.524 . S
C1079 C1080 1.422 . S
C1080 H1056 0.932 1_554 S
C1080 C1075 1.374 . S
C1080 C1079 1.422 . S
C1081 H1057 0.951 . S
C1081 C1082 1.354 1_554 S
C1081 C1083 1.388 . S
C1082 C1081 1.354 1_556 S
C1082 C1086 1.397 . S
C1083 H1058 0.951 . S
C1083 C1081 1.388 . S
C1083 C1084 1.366 1_554 S
C1084 C1083 1.366 1_556 S
C1084 C1085 1.414 . S
C1084 C1087 1.499 . S
C1085 H1059 0.950 . S
C1085 C1084 1.414 . S
C1085 C1086 1.374 . S
C1086 H1060 0.950 . S
C1086 C1082 1.397 . S
C1086 C1085 1.374 . S
C1087 C1084 1.499 . S
C1087 C1088 1.373 1_556 S
C1087 C1089 1.389 1_655 S
C1088 H1061 0.950 . S
C1088 C1074 1.377 . S
C1088 C1087 1.373 1_554 S
C1089 C1073 1.377 . S
C1089 C1087 1.389 1_455 S
C1089 C1090 1.524 . S
C1090 C1089 1.524 . S
C1090 C1091 1.397 . S
C1090 C1095 1.363 . S
C1091 H1062 0.950 1_455 S
C1091 C1090 1.397 . S
C1091 C1092 1.334 . S
C1092 H1063 0.950 . S
C1092 C1091 1.334 . S
C1092 C1093 1.287 . S
C1093 C1092 1.287 . S
C1093 C1094 1.524 . S
C1093 H1096 0.999 . S
C1094 H1064 0.950 . S
C1094 C1093 1.524 . S
C1094 C1095 1.415 . S
C1095 H1065 0.950 1_556 S
C1095 C1090 1.363 . S
C1095 C1094 1.415 . S
H1096 C1093 0.999 . S
H1097 C1078 0.913 . S
H1098 C1116 0.951 . S
H1099 C1118 0.951 . S
H1100 C1120 0.950 . S
H1101 C1121 0.950 . S
H1102 C1123 0.950 . S
H1103 C1126 0.950 . S
H1104 C1127 0.950 . S
H1105 C1129 0.950 . S
H1106 C1130 0.950 . S
H1107 C1131 0.951 . S
H1108 C1133 0.951 . S
H1109 C1135 0.950 . S
H1110 C1136 0.950 . S
H1111 C1138 0.950 . S
H1112 C1141 0.950 . S
H1113 C1142 0.950 . S
H1114 C1144 0.950 . S
H1115 C1145 0.950 . S
C1116 H1098 0.951 . S
C1116 C1117 1.366 . S
C1116 C1118 1.388 . S
C1117 C1116 1.366 . S
C1117 C1121 1.385 . S
C1118 H1099 0.951 . S
C1118 C1116 1.388 . S
C1118 C1119 1.366 . S
C1119 C1118 1.366 . S
C1119 C1120 1.414 . S
C1119 C1122 1.499 . S
C1120 H1100 0.950 . S
C1120 C1119 1.414 . S
C1120 C1121 1.374 . S
C1121 H1101 0.950 . S
C1121 C1117 1.385 . S
C1121 C1120 1.374 . S
C1122 C1119 1.499 . S
C1122 C1123 1.373 1_655 S
C1122 C1124 1.389 . S
C1123 H1102 0.950 . S
C1123 C1122 1.373 1_455 S
C1123 C1139 1.377 . S
C1124 C1122 1.389 . S
C1124 C1125 1.524 . S
C1124 C1138 1.377 . S
C1125 C1124 1.524 . S
C1125 C1126 1.397 . S
C1125 C1130 1.363 . S
C1126 H1103 0.950 . S
C1126 C1125 1.397 . S
C1126 C1127 1.334 . S
C1127 H1104 0.950 . S
C1127 C1126 1.334 . S
C1127 C1128 1.287 . S
C1128 C1127 1.287 . S
C1128 C1129 1.524 . S
C1128 H1147 0.913 . S
C1129 H1105 0.950 . S
C1129 C1128 1.524 . S
C1129 C1130 1.415 . S
C1130 H1106 0.950 . S
C1130 C1125 1.363 . S
C1130 C1129 1.415 . S
C1131 H1107 0.951 . S
C1131 C1132 1.366 . S
C1131 C1133 1.388 . S
C1132 C1131 1.366 . S
C1132 C1136 1.385 . S
C1133 H1108 0.951 . S
C1133 C1131 1.388 . S
C1133 C1134 1.366 . S
C1134 C1133 1.366 . S
C1134 C1135 1.414 . S
C1134 C1137 1.499 . S
C1135 H1109 0.950 . S
C1135 C1134 1.414 . S
C1135 C1136 1.374 . S
C1136 H1110 0.950 . S
C1136 C1132 1.385 . S
C1136 C1135 1.374 . S
C1137 C1134 1.499 . S
C1137 C1138 1.373 1_455 S
C1137 C1139 1.389 . S
C1138 H1111 0.950 . S
C1138 C1124 1.377 . S
C1138 C1137 1.373 1_655 S
C1139 C1123 1.377 . S
C1139 C1137 1.389 . S
C1139 C1140 1.524 . S
C1140 C1139 1.524 . S
C1140 C1141 1.397 . S
C1140 C1145 1.363 . S
C1141 H1112 0.950 . S
C1141 C1140 1.397 . S
C1141 C1142 1.334 . S
C1142 H1113 0.950 . S
C1142 C1141 1.334 . S
C1142 C1143 1.287 . S
C1143 C1142 1.287 . S
C1143 C1144 1.524 . S
C1143 H1146 0.999 . S
C1144 H1114 0.950 . S
C1144 C1143 1.524 . S
C1144 C1145 1.415 . S
C1145 H1115 0.950 . S
C1145 C1140 1.363 . S
C1145 C1144 1.415 . S
H1146 C1143 0.999 . S
H1147 C1128 0.913 . S
H1148 C1166 0.951 . S
H1149 C1168 0.951 . S
H1150 C1170 0.950 . S
H1151 C1171 0.950 . S
H1152 C1173 0.950 . S
H1153 C1176 0.950 . S
H1154 C1177 0.950 . S
H1155 C1179 0.950 . S
H1156 C1180 0.950 . S
H1157 C1181 0.951 . S
H1158 C1183 0.951 . S
H1159 C1185 0.950 . S
H1160 C1186 0.950 . S
H1161 C1188 0.950 . S
H1162 C1191 0.950 . S
H1163 C1192 0.950 . S
H1164 C1194 0.950 . S
H1165 C1195 0.950 . S
C1166 H1148 0.951 . S
C1166 C1167 1.366 . S
C1166 C1168 1.388 . S
C1167 C1166 1.366 . S
C1167 C1171 1.385 . S
C1168 H1149 0.951 . S
C1168 C1166 1.388 . S
C1168 C1169 1.366 . S
C1169 C1168 1.366 . S
C1169 C1170 1.414 . S
C1169 C1172 1.499 . S
C1170 H1150 0.950 . S
C1170 C1169 1.414 . S
C1170 C1171 1.374 . S
C1171 H1151 0.950 . S
C1171 C1167 1.385 . S
C1171 C1170 1.374 . S
C1172 C1169 1.499 . S
C1172 C1173 1.373 . S
C1172 C1174 1.389 1_565 S
C1173 H1152 0.950 . S
C1173 C1172 1.373 . S
C1173 C1189 1.377 . S
C1174 C1172 1.389 1_545 S
C1174 C1175 1.524 . S
C1174 C1188 1.377 . S
C1175 C1174 1.524 . S
C1175 C1176 1.397 . S
C1175 C1180 1.363 . S
C1176 H1153 0.950 . S
C1176 C1175 1.397 . S
C1176 C1177 1.334 . S
C1177 H1154 0.950 . S
C1177 C1176 1.334 . S
C1177 C1178 1.287 . S
C1178 C1177 1.287 . S
C1178 C1179 1.524 . S
C1178 H1197 0.913 . S
C1179 H1155 0.950 . S
C1179 C1178 1.524 . S
C1179 C1180 1.415 . S
C1180 H1156 0.950 . S
C1180 C1175 1.363 . S
C1180 C1179 1.415 . S
C1181 H1157 0.951 . S
C1181 C1182 1.366 . S
C1181 C1183 1.388 . S
C1182 C1181 1.366 . S
C1182 C1186 1.385 . S
C1183 H1158 0.951 . S
C1183 C1181 1.388 . S
C1183 C1184 1.366 . S
C1184 C1183 1.366 . S
C1184 C1185 1.414 . S
C1184 C1187 1.499 . S
C1185 H1159 0.950 . S
C1185 C1184 1.414 . S
C1185 C1186 1.374 . S
C1186 H1160 0.950 . S
C1186 C1182 1.385 . S
C1186 C1185 1.374 . S
C1187 C1184 1.499 . S
C1187 C1188 1.373 . S
C1187 C1189 1.389 1_545 S
C1188 H1161 0.950 . S
C1188 C1174 1.377 . S
C1188 C1187 1.373 . S
C1189 C1173 1.377 . S
C1189 C1187 1.389 1_565 S
C1189 C1190 1.524 . S
C1190 C1189 1.524 . S
C1190 C1191 1.397 . S
C1190 C1195 1.363 . S
C1191 H1162 0.950 . S
C1191 C1190 1.397 . S
C1191 C1192 1.334 . S
C1192 H1163 0.950 . S
C1192 C1191 1.334 . S
C1192 C1193 1.287 . S
C1193 C1192 1.287 . S
C1193 C1194 1.524 . S
C1193 H1196 0.999 . S
C1194 H1164 0.950 . S
C1194 C1193 1.524 . S
C1194 C1195 1.415 . S
C1195 H1165 0.950 . S
C1195 C1190 1.363 . S
C1195 C1194 1.415 . S
H1196 C1193 0.999 . S
H1197 C1178 0.913 . S
H1198 C1216 0.951 . S
H1199 C1218 0.951 . S
H1200 C1220 0.950 . S
H1201 C1221 0.950 . S
H1202 C1223 0.950 . S
H1203 C1226 0.950 . S
H1204 C1227 0.950 . S
H1205 C1229 0.950 . S
H1206 C1230 0.950 . S
H1207 C1231 0.951 . S
H1208 C1233 0.951 . S
H1209 C1235 0.950 . S
H1210 C1236 0.950 . S
H1211 C1238 0.950 . S
H1212 C1241 0.950 . S
H1213 C1242 0.950 . S
H1214 C1244 0.950 . S
H1215 C1245 0.950 . S
C1216 H1198 0.951 . S
C1216 C1217 1.366 . S
C1216 C1218 1.388 . S
C1217 C1216 1.366 . S
C1217 C1221 1.385 . S
C1218 H1199 0.951 . S
C1218 C1216 1.388 . S
C1218 C1219 1.366 . S
C1219 C1218 1.366 . S
C1219 C1220 1.414 . S
C1219 C1222 1.499 . S
C1220 H1200 0.950 . S
C1220 C1219 1.414 . S
C1220 C1221 1.374 . S
C1221 H1201 0.950 . S
C1221 C1217 1.385 . S
C1221 C1220 1.374 . S
C1222 C1219 1.499 . S
C1222 C1223 1.373 . S
C1222 C1224 1.389 . S
C1223 H1202 0.950 . S
C1223 C1222 1.373 . S
C1223 C1239 1.377 . S
C1224 C1222 1.389 . S
C1224 C1225 1.524 . S
C1224 C1238 1.377 . S
C1225 C1224 1.524 . S
C1225 C1226 1.397 . S
C1225 C1230 1.363 . S
C1226 H1203 0.950 . S
C1226 C1225 1.397 . S
C1226 C1227 1.334 . S
C1227 H1204 0.950 . S
C1227 C1226 1.334 . S
C1227 C1228 1.287 . S
C1228 C1227 1.287 . S
C1228 C1229 1.524 . S
C1228 H1247 0.913 . S
C1229 H1205 0.950 . S
C1229 C1228 1.524 . S
C1229 C1230 1.415 . S
C1230 H1206 0.950 . S
C1230 C1225 1.363 . S
C1230 C1229 1.415 . S
C1231 H1207 0.951 . S
C1231 C1232 1.366 . S
C1231 C1233 1.388 . S
C1232 C1231 1.366 . S
C1232 C1236 1.385 . S
C1233 H1208 0.951 . S
C1233 C1231 1.388 . S
C1233 C1234 1.366 . S
C1234 C1233 1.366 . S
C1234 C1235 1.414 . S
C1234 C1237 1.499 . S
C1235 H1209 0.950 . S
C1235 C1234 1.414 . S
C1235 C1236 1.374 . S
C1236 H1210 0.950 . S
C1236 C1232 1.385 . S
C1236 C1235 1.374 . S
C1237 C1234 1.499 . S
C1237 C1238 1.373 . S
C1237 C1239 1.389 . S
C1238 H1211 0.950 . S
C1238 C1224 1.377 . S
C1238 C1237 1.373 . S
C1239 C1223 1.377 . S
C1239 C1237 1.389 . S
C1239 C1240 1.524 . S
C1240 C1239 1.524 . S
C1240 C1241 1.397 . S
C1240 C1245 1.363 . S
C1241 H1212 0.950 . S
C1241 C1240 1.397 . S
C1241 C1242 1.334 . S
C1242 H1213 0.950 . S
C1242 C1241 1.334 . S
C1242 C1243 1.287 . S
C1243 C1242 1.287 . S
C1243 C1244 1.524 . S
C1243 H1246 0.999 . S
C1244 H1214 0.950 . S
C1244 C1243 1.524 . S
C1244 C1245 1.415 . S
C1245 H1215 0.950 . S
C1245 C1240 1.363 . S
C1245 C1244 1.415 . S
H1246 C1243 0.999 . S
H1247 C1228 0.913 . S
H1248 C1266 0.951 . S
H1249 C1268 0.951 . S
H1250 C1270 0.950 . S
H1251 C1271 0.950 . S
H1252 C1273 0.950 . S
H1253 C1276 0.950 . S
H1254 C1277 0.950 . S
H1255 C1279 0.950 . S
H1256 C1280 0.950 . S
H1257 C1281 0.951 . S
H1258 C1283 0.951 . S
H1259 C1285 0.950 . S
H1260 C1286 0.950 . S
H1261 C1288 0.950 . S
H1262 C1291 0.950 . S
H1263 C1292 0.950 . S
H1264 C1294 0.950 . S
H1265 C1295 0.950 . S
C1266 H1248 0.951 . S
C1266 C1267 1.366 . S
C1266 C1268 1.388 . S
C1267 C1266 1.366 . S
C1267 C1271 1.385 . S
C1268 H1249 0.951 . S
C1268 C1266 1.388 . S
C1268 C1269 1.366 . S
C1269 C1268 1.366 . S
C1269 C1270 1.414 . S
C1269 C1272 1.499 . S
C1270 H1250 0.950 . S
C1270 C1269 1.414 . S
C1270 C1271 1.374 . S
C1271 H1251 0.950 . S
C1271 C1267 1.385 . S
C1271 C1270 1.374 . S
C1272 C1269 1.499 . S
C1272 C1273 1.373 . S
C1272 C1274 1.389 . S
C1273 H1252 0.950 . S
C1273 C1272 1.373 . S
C1273 C1289 1.377 . S
C1274 C1272 1.389 . S
C1274 C1275 1.524 . S
C1274 C1288 1.377 . S
C1275 C1274 1.524 . S
C1275 C1276 1.397 . S
C1275 C1280 1.363 . S
C1276 H1253 0.950 . S
C1276 C1275 1.397 . S
C1276 C1277 1.334 . S
C1277 H1254 0.950 . S
C1277 C1276 1.334 . S
C1277 C1278 1.287 . S
C1278 C1277 1.287 . S
C1278 C1279 1.524 . S
C1278 H1297 0.913 . S
C1279 H1255 0.950 . S
C1279 C1278 1.524 . S
C1279 C1280 1.415 . S
C1280 H1256 0.950 . S
C1280 C1275 1.363 . S
C1280 C1279 1.415 . S
C1281 H1257 0.951 . S
C1281 C1282 1.366 . S
C1281 C1283 1.388 . S
C1282 C1281 1.366 . S
C1282 C1286 1.385 . S
C1283 H1258 0.951 . S
C1283 C1281 1.388 . S
C1283 C1284 1.366 . S
C1284 C1283 1.366 . S
C1284 C1285 1.414 . S
C1284 C1287 1.499 . S
C1285 H1259 0.950 . S
C1285 C1284 1.414 . S
C1285 C1286 1.374 . S
C1286 H1260 0.950 . S
C1286 C1282 1.385 . S
C1286 C1285 1.374 . S
C1287 C1284 1.499 . S
C1287 C1288 1.373 . S
C1287 C1289 1.389 . S
C1288 H1261 0.950 . S
C1288 C1274 1.377 . S
C1288 C1287 1.373 . S
C1289 C1273 1.377 . S
C1289 C1287 1.389 . S
C1289 C1290 1.524 . S
C1290 C1289 1.524 . S
C1290 C1291 1.397 . S
C1290 C1295 1.363 . S
C1291 H1262 0.950 . S
C1291 C1290 1.397 . S
C1291 C1292 1.334 . S
C1292 H1263 0.950 . S
C1292 C1291 1.334 . S
C1292 C1293 1.287 . S
C1293 C1292 1.287 . S
C1293 C1294 1.524 . S
C1293 H1296 0.999 . S
C1294 H1264 0.950 . S
C1294 C1293 1.524 . S
C1294 C1295 1.415 . S
C1295 H1265 0.950 . S
C1295 C1290 1.363 . S
C1295 C1294 1.415 . S
H1296 C1293 0.999 . S
H1297 C1278 0.913 . S
H1298 C1316 0.951 . S
H1299 C1318 0.951 . S
H1300 C1320 0.950 . S
H1301 C1321 0.950 . S
H1302 C1323 0.950 . S
H1303 C1326 0.950 . S
H1304 C1327 0.950 . S
H1305 C1329 0.950 . S
H1306 C1330 0.950 . S
H1307 C1331 0.951 . S
H1308 C1333 0.951 . S
H1309 C1335 0.950 . S
H1310 C1336 0.950 . S
H1311 C1338 0.950 . S
H1312 C1341 0.950 . S
H1313 C1342 0.950 . S
H1314 C1344 0.950 . S
H1315 C1345 0.950 . S
C1316 H1298 0.951 . S
C1316 C1317 1.366 . S
C1316 C1318 1.388 . S
C1317 C1316 1.366 . S
C1317 C1321 1.385 . S
C1318 H1299 0.951 . S
C1318 C1316 1.388 . S
C1318 C1319 1.366 . S
C1319 C1318 1.366 . S
C1319 C1320 1.414 . S
C1319 C1322 1.499 . S
C1320 H1300 0.950 . S
C1320 C1319 1.414 . S
C1320 C1321 1.374 . S
C1321 H1301 0.950 . S
C1321 C1317 1.385 . S
C1321 C1320 1.374 . S
C1322 C1319 1.499 . S
C1322 C1323 1.373 . S
C1322 C1324 1.389 . S
C1323 H1302 0.950 . S
C1323 C1322 1.373 . S
C1323 C1339 1.377 . S
C1324 C1322 1.389 . S
C1324 C1325 1.524 . S
C1324 C1338 1.377 . S
C1325 C1324 1.524 . S
C1325 C1326 1.397 . S
C1325 C1330 1.363 . S
C1326 H1303 0.950 . S
C1326 C1325 1.397 . S
C1326 C1327 1.334 . S
C1327 H1304 0.950 . S
C1327 C1326 1.334 . S
C1327 C1328 1.287 . S
C1328 C1327 1.287 . S
C1328 C1329 1.524 . S
C1328 H1347 0.913 . S
C1329 H1305 0.950 . S
C1329 C1328 1.524 . S
C1329 C1330 1.415 . S
C1330 H1306 0.950 . S
C1330 C1325 1.363 . S
C1330 C1329 1.415 . S
C1331 H1307 0.951 . S
C1331 C1332 1.366 . S
C1331 C1333 1.388 . S
C1332 C1331 1.366 . S
C1332 C1336 1.385 . S
C1333 H1308 0.951 . S
C1333 C1331 1.388 . S
C1333 C1334 1.366 . S
C1334 C1333 1.366 . S
C1334 C1335 1.414 . S
C1334 C1337 1.499 . S
C1335 H1309 0.950 . S
C1335 C1334 1.414 . S
C1335 C1336 1.374 . S
C1336 H1310 0.950 . S
C1336 C1332 1.385 . S
C1336 C1335 1.374 . S
C1337 C1334 1.499 . S
C1337 C1338 1.373 . S
C1337 C1339 1.389 . S
C1338 H1311 0.950 . S
C1338 C1324 1.377 . S
C1338 C1337 1.373 . S
C1339 C1323 1.377 . S
C1339 C1337 1.389 . S
C1339 C1340 1.524 . S
C1340 C1339 1.524 . S
C1340 C1341 1.397 . S
C1340 C1345 1.363 . S
C1341 H1312 0.950 . S
C1341 C1340 1.397 . S
C1341 C1342 1.334 . S
C1342 H1313 0.950 . S
C1342 C1341 1.334 . S
C1342 C1343 1.287 . S
C1343 C1342 1.287 . S
C1343 C1344 1.524 . S
C1343 H1346 0.999 . S
C1344 H1314 0.950 . S
C1344 C1343 1.524 . S
C1344 C1345 1.415 . S
C1345 H1315 0.950 . S
C1345 C1340 1.363 . S
C1345 C1344 1.415 . S
H1346 C1343 0.999 . S
H1347 C1328 0.913 . S
H1348 C1366 0.951 . S
H1349 C1368 0.951 . S
H1350 C1370 0.950 . S
H1351 C1371 0.950 . S
H1352 C1373 0.950 . S
H1353 C1376 0.950 . S
H1354 C1377 0.950 . S
H1355 C1379 0.950 . S
H1356 C1380 0.950 . S
H1357 C1381 0.951 . S
H1358 C1383 0.951 . S
H1359 C1385 0.950 . S
H1360 C1386 0.950 . S
H1361 C1388 0.950 . S
H1362 C1391 0.950 . S
H1363 C1392 0.950 . S
H1364 C1394 0.950 . S
H1365 C1395 0.950 . S
C1366 H1348 0.951 . S
C1366 C1367 1.366 . S
C1366 C1368 1.388 . S
C1367 C1366 1.366 . S
C1367 C1371 1.385 . S
C1368 H1349 0.951 . S
C1368 C1366 1.388 . S
C1368 C1369 1.366 . S
C1369 C1368 1.366 . S
C1369 C1370 1.414 . S
C1369 C1372 1.499 . S
C1370 H1350 0.950 . S
C1370 C1369 1.414 . S
C1370 C1371 1.374 . S
C1371 H1351 0.950 . S
C1371 C1367 1.385 . S
C1371 C1370 1.374 . S
C1372 C1369 1.499 . S
C1372 C1373 1.373 . S
C1372 C1374 1.389 . S
C1373 H1352 0.950 . S
C1373 C1372 1.373 . S
C1373 C1389 1.377 . S
C1374 C1372 1.389 . S
C1374 C1375 1.524 . S
C1374 C1388 1.377 . S
C1375 C1374 1.524 . S
C1375 C1376 1.397 . S
C1375 C1380 1.363 . S
C1376 H1353 0.950 . S
C1376 C1375 1.397 . S
C1376 C1377 1.334 . S
C1377 H1354 0.950 . S
C1377 C1376 1.334 . S
C1377 C1378 1.287 . S
C1378 C1377 1.287 . S
C1378 C1379 1.524 . S
C1378 H1397 0.913 . S
C1379 H1355 0.950 . S
C1379 C1378 1.524 . S
C1379 C1380 1.415 . S
C1380 H1356 0.950 . S
C1380 C1375 1.363 . S
C1380 C1379 1.415 . S
C1381 H1357 0.951 . S
C1381 C1382 1.366 . S
C1381 C1383 1.388 . S
C1382 C1381 1.366 . S
C1382 C1386 1.385 . S
C1383 H1358 0.951 . S
C1383 C1381 1.388 . S
C1383 C1384 1.366 . S
C1384 C1383 1.366 . S
C1384 C1385 1.414 . S
C1384 C1387 1.499 . S
C1385 H1359 0.950 . S
C1385 C1384 1.414 . S
C1385 C1386 1.374 . S
C1386 H1360 0.950 . S
C1386 C1382 1.385 . S
C1386 C1385 1.374 . S
C1387 C1384 1.499 . S
C1387 C1388 1.373 . S
C1387 C1389 1.389 . S
C1388 H1361 0.950 . S
C1388 C1374 1.377 . S
C1388 C1387 1.373 . S
C1389 C1373 1.377 . S
C1389 C1387 1.389 . S
C1389 C1390 1.524 . S
C1390 C1389 1.524 . S
C1390 C1391 1.397 . S
C1390 C1395 1.363 . S
C1391 H1362 0.950 . S
C1391 C1390 1.397 . S
C1391 C1392 1.334 . S
C1392 H1363 0.950 . S
C1392 C1391 1.334 . S
C1392 C1393 1.287 . S
C1393 C1392 1.287 . S
C1393 C1394 1.524 . S
C1393 H1396 0.999 . S
C1394 H1364 0.950 . S
C1394 C1393 1.524 . S
C1394 C1395 1.415 . S
C1395 H1365 0.950 . S
C1395 C1390 1.363 . S
C1395 C1394 1.415 . S
H1396 C1393 0.999 . S
H1397 C1378 0.913 . S
H1398 C1416 0.951 . S
H1399 C1418 0.951 . S
H1400 C1420 0.950 . S
H1401 C1421 0.950 . S
H1402 C1423 0.950 . S
H1403 C1426 0.950 . S
H1404 C1427 0.950 . S
H1405 C1429 0.950 . S
H1406 C1430 0.950 . S
H1407 C1431 0.951 . S
H1408 C1433 0.951 . S
H1409 C1435 0.950 . S
H1410 C1436 0.950 . S
H1411 C1438 0.950 . S
H1412 C1441 0.950 . S
H1413 C1442 0.950 . S
H1414 C1444 0.950 . S
H1415 C1445 0.950 . S
C1416 H1398 0.951 . S
C1416 C1417 1.366 . S
C1416 C1418 1.388 . S
C1417 C1416 1.366 . S
C1417 C1421 1.385 . S
C1418 H1399 0.951 . S
C1418 C1416 1.388 . S
C1418 C1419 1.366 . S
C1419 C1418 1.366 . S
C1419 C1420 1.414 . S
C1419 C1422 1.499 . S
C1420 H1400 0.950 . S
C1420 C1419 1.414 . S
C1420 C1421 1.374 . S
C1421 H1401 0.950 . S
C1421 C1417 1.385 . S
C1421 C1420 1.374 . S
C1422 C1419 1.499 . S
C1422 C1423 1.373 . S
C1422 C1424 1.389 . S
C1423 H1402 0.950 . S
C1423 C1422 1.373 . S
C1423 C1439 1.377 . S
C1424 C1422 1.389 . S
C1424 C1425 1.524 . S
C1424 C1438 1.377 . S
C1425 C1424 1.524 . S
C1425 C1426 1.397 . S
C1425 C1430 1.363 . S
C1426 H1403 0.950 . S
C1426 C1425 1.397 . S
C1426 C1427 1.334 . S
C1427 H1404 0.950 . S
C1427 C1426 1.334 . S
C1427 C1428 1.287 . S
C1428 C1427 1.287 . S
C1428 C1429 1.524 . S
C1428 H1447 0.913 . S
C1429 H1405 0.950 . S
C1429 C1428 1.524 . S
C1429 C1430 1.415 . S
C1430 H1406 0.950 . S
C1430 C1425 1.363 . S
C1430 C1429 1.415 . S
C1431 H1407 0.951 . S
C1431 C1432 1.366 . S
C1431 C1433 1.388 . S
C1432 C1431 1.366 . S
C1432 C1436 1.385 . S
C1433 H1408 0.951 . S
C1433 C1431 1.388 . S
C1433 C1434 1.366 . S
C1434 C1433 1.366 . S
C1434 C1435 1.414 . S
C1434 C1437 1.499 . S
C1435 H1409 0.950 . S
C1435 C1434 1.414 . S
C1435 C1436 1.374 . S
C1436 H1410 0.950 . S
C1436 C1432 1.385 . S
C1436 C1435 1.374 . S
C1437 C1434 1.499 . S
C1437 C1438 1.373 . S
C1437 C1439 1.389 . S
C1438 H1411 0.950 . S
C1438 C1424 1.377 . S
C1438 C1437 1.373 . S
C1439 C1423 1.377 . S
C1439 C1437 1.389 . S
C1439 C1440 1.524 . S
C1440 C1439 1.524 . S
C1440 C1441 1.397 . S
C1440 C1445 1.363 . S
C1441 H1412 0.950 . S
C1441 C1440 1.397 . S
C1441 C1442 1.334 . S
C1442 H1413 0.950 . S
C1442 C1441 1.334 . S
C1442 C1443 1.287 . S
C1443 C1442 1.287 . S
C1443 C1444 1.524 . S
C1443 H1446 0.999 . S
C1444 H1414 0.950 . S
C1444 C1443 1.524 . S
C1444 C1445 1.415 . S
C1445 H1415 0.950 . S
C1445 C1440 1.363 . S
C1445 C1444 1.415 . S
H1446 C1443 0.999 . S
H1447 C1428 0.913 . S
H1448 C1466 0.951 . S
H1449 C1468 0.951 . S
H1450 C1470 0.950 . S
H1451 C1471 0.950 . S
H1452 C1473 0.950 . S
H1453 C1476 0.950 . S
H1454 C1477 0.950 . S
H1455 C1479 0.950 . S
H1456 C1480 0.950 . S
H1457 C1481 0.951 . S
H1458 C1483 0.951 . S
H1459 C1485 0.950 . S
H1460 C1486 0.950 . S
H1461 C1488 0.950 . S
H1462 C1491 0.950 . S
H1463 C1492 0.950 . S
H1464 C1494 0.950 . S
H1465 C1495 0.950 . S
C1466 H1448 0.951 . S
C1466 C1467 1.366 . S
C1466 C1468 1.388 . S
C1467 C1466 1.366 . S
C1467 C1471 1.385 . S
C1468 H1449 0.951 . S
C1468 C1466 1.388 . S
C1468 C1469 1.366 . S
C1469 C1468 1.366 . S
C1469 C1470 1.414 . S
C1469 C1472 1.499 . S
C1470 H1450 0.950 . S
C1470 C1469 1.414 . S
C1470 C1471 1.374 . S
C1471 H1451 0.950 . S
C1471 C1467 1.385 . S
C1471 C1470 1.374 . S
C1472 C1469 1.499 . S
C1472 C1473 1.373 . S
C1472 C1474 1.389 . S
C1473 H1452 0.950 . S
C1473 C1472 1.373 . S
C1473 C1489 1.377 . S
C1474 C1472 1.389 . S
C1474 C1475 1.524 . S
C1474 C1488 1.377 . S
C1475 C1474 1.524 . S
C1475 C1476 1.397 . S
C1475 C1480 1.363 . S
C1476 H1453 0.950 . S
C1476 C1475 1.397 . S
C1476 C1477 1.334 . S
C1477 H1454 0.950 . S
C1477 C1476 1.334 . S
C1477 C1478 1.287 . S
C1478 C1477 1.287 . S
C1478 C1479 1.524 . S
C1478 H1497 0.913 . S
C1479 H1455 0.950 . S
C1479 C1478 1.524 . S
C1479 C1480 1.415 . S
C1480 H1456 0.950 . S
C1480 C1475 1.363 . S
C1480 C1479 1.415 . S
C1481 H1457 0.951 . S
C1481 C1482 1.366 . S
C1481 C1483 1.388 . S
C1482 C1481 1.366 . S
C1482 C1486 1.385 . S
C1483 H1458 0.951 . S
C1483 C1481 1.388 . S
C1483 C1484 1.366 . S
C1484 C1483 1.366 . S
C1484 C1485 1.414 . S
C1484 C1487 1.499 . S
C1485 H1459 0.950 . S
C1485 C1484 1.414 . S
C1485 C1486 1.374 . S
C1486 H1460 0.950 . S
C1486 C1482 1.385 . S
C1486 C1485 1.374 . S
C1487 C1484 1.499 . S
C1487 C1488 1.373 . S
C1487 C1489 1.389 . S
C1488 H1461 0.950 . S
C1488 C1474 1.377 . S
C1488 C1487 1.373 . S
C1489 C1473 1.377 . S
C1489 C1487 1.389 . S
C1489 C1490 1.524 . S
C1490 C1489 1.524 . S
C1490 C1491 1.397 . S
C1490 C1495 1.363 . S
C1491 H1462 0.950 . S
C1491 C1490 1.397 . S
C1491 C1492 1.334 . S
C1492 H1463 0.950 . S
C1492 C1491 1.334 . S
C1492 C1493 1.287 . S
C1493 C1492 1.287 . S
C1493 C1494 1.524 . S
C1493 H1496 0.999 . S
C1494 H1464 0.950 . S
C1494 C1493 1.524 . S
C1494 C1495 1.415 . S
C1495 H1465 0.950 . S
C1495 C1490 1.363 . S
C1495 C1494 1.415 . S
H1496 C1493 0.999 . S
H1497 C1478 0.913 . S
H1498 C1516 0.951 . S
H1499 C1518 0.951 . S
H1500 C1520 0.950 . S
H1501 C1521 0.950 . S
H1502 C1523 0.950 . S
H1503 C1526 0.950 . S
H1504 C1527 0.950 . S
H1505 C1529 0.950 . S
H1506 C1530 0.950 . S
H1507 C1531 0.951 . S
H1508 C1533 0.951 . S
H1509 C1535 0.950 . S
H1510 C1536 0.950 . S
H1511 C1538 0.950 . S
H1512 C1541 0.950 . S
H1513 C1542 0.950 . S
H1514 C1544 0.950 . S
H1515 C1545 0.950 . S
C1516 H1498 0.951 . S
C1516 C1517 1.366 . S
C1516 C1518 1.388 . S
C1517 C1516 1.366 . S
C1517 C1521 1.385 . S
C1518 H1499 0.951 . S
C1518 C1516 1.388 . S
C1518 C1519 1.366 . S
C1519 C1518 1.366 . S
C1519 C1520 1.414 . S
C1519 C1522 1.499 . S
C1520 H1500 0.950 . S
C1520 C1519 1.414 . S
C1520 C1521 1.374 . S
C1521 H1501 0.950 . S
C1521 C1517 1.385 . S
C1521 C1520 1.374 . S
C1522 C1519 1.499 . S
C1522 C1523 1.373 . S
C1522 C1524 1.389 . S
C1523 H1502 0.950 . S
C1523 C1522 1.373 . S
C1523 C1539 1.377 . S
C1524 C1522 1.389 . S
C1524 C1525 1.524 . S
C1524 C1538 1.377 . S
C1525 C1524 1.524 . S
C1525 C1526 1.397 . S
C1525 C1530 1.363 . S
C1526 H1503 0.950 . S
C1526 C1525 1.397 . S
C1526 C1527 1.334 . S
C1527 H1504 0.950 . S
C1527 C1526 1.334 . S
C1527 C1528 1.287 . S
C1528 C1527 1.287 . S
C1528 C1529 1.524 . S
C1528 H1547 0.913 . S
C1529 H1505 0.950 . S
C1529 C1528 1.524 . S
C1529 C1530 1.415 . S
C1530 H1506 0.950 . S
C1530 C1525 1.363 . S
C1530 C1529 1.415 . S
C1531 H1507 0.951 . S
C1531 C1532 1.366 . S
C1531 C1533 1.388 . S
C1532 C1531 1.366 . S
C1532 C1536 1.385 . S
C1533 H1508 0.951 . S
C1533 C1531 1.388 . S
C1533 C1534 1.366 . S
C1534 C1533 1.366 . S
C1534 C1535 1.414 . S
C1534 C1537 1.499 . S
C1535 H1509 0.950 . S
C1535 C1534 1.414 . S
C1535 C1536 1.374 . S
C1536 H1510 0.950 . S
C1536 C1532 1.385 . S
C1536 C1535 1.374 . S
C1537 C1534 1.499 . S
C1537 C1538 1.373 . S
C1537 C1539 1.389 . S
C1538 H1511 0.950 . S
C1538 C1524 1.377 . S
C1538 C1537 1.373 . S
C1539 C1523 1.377 . S
C1539 C1537 1.389 . S
C1539 C1540 1.524 . S
C1540 C1539 1.524 . S
C1540 C1541 1.397 . S
C1540 C1545 1.363 . S
C1541 H1512 0.950 . S
C1541 C1540 1.397 . S
C1541 C1542 1.334 . S
C1542 H1513 0.950 . S
C1542 C1541 1.334 . S
C1542 C1543 1.287 . S
C1543 C1542 1.287 . S
C1543 C1544 1.524 . S
C1543 H1546 0.999 . S
C1544 H1514 0.950 . S
C1544 C1543 1.524 . S
C1544 C1545 1.415 . S
C1545 H1515 0.950 . S
C1545 C1540 1.363 . S
C1545 C1544 1.415 . S
H1546 C1543 0.999 . S
H1547 C1528 0.913 . S
H1548 C1566 0.951 . S
H1549 C1568 0.951 . S
H1550 C1570 0.950 . S
H1551 C1571 0.950 . S
H1552 C1573 0.950 . S
H1553 C1576 0.950 . S
H1554 C1577 0.950 . S
H1555 C1579 0.950 . S
H1556 C1580 0.950 . S
H1557 C1581 0.951 . S
H1558 C1583 0.951 . S
H1559 C1585 0.950 . S
H1560 C1586 0.950 . S
H1561 C1588 0.950 . S
H1562 C1591 0.950 . S
H1563 C1592 0.950 . S
H1564 C1594 0.950 . S
H1565 C1595 0.950 . S
C1566 H1548 0.951 . S
C1566 C1567 1.366 . S
C1566 C1568 1.388 . S
C1567 C1566 1.366 . S
C1567 C1571 1.385 . S
C1568 H1549 0.951 . S
C1568 C1566 1.388 . S
C1568 C1569 1.366 . S
C1569 C1568 1.366 . S
C1569 C1570 1.414 . S
C1569 C1572 1.499 . S
C1570 H1550 0.950 . S
C1570 C1569 1.414 . S
C1570 C1571 1.374 . S
C1571 H1551 0.950 . S
C1571 C1567 1.385 . S
C1571 C1570 1.374 . S
C1572 C1569 1.499 . S
C1572 C1573 1.373 . S
C1572 C1574 1.389 . S
C1573 H1552 0.950 . S
C1573 C1572 1.373 . S
C1573 C1589 1.377 . S
C1574 C1572 1.389 . S
C1574 C1575 1.524 . S
C1574 C1588 1.377 . S
C1575 C1574 1.524 . S
C1575 C1576 1.397 . S
C1575 C1580 1.363 . S
C1576 H1553 0.950 . S
C1576 C1575 1.397 . S
C1576 C1577 1.334 . S
C1577 H1554 0.950 . S
C1577 C1576 1.334 . S
C1577 C1578 1.287 . S
C1578 C1577 1.287 . S
C1578 C1579 1.524 . S
C1578 H1597 0.913 . S
C1579 H1555 0.950 . S
C1579 C1578 1.524 . S
C1579 C1580 1.415 . S
C1580 H1556 0.950 . S
C1580 C1575 1.363 . S
C1580 C1579 1.415 . S
C1581 H1557 0.951 . S
C1581 C1582 1.366 . S
C1581 C1583 1.388 . S
C1582 C1581 1.366 . S
C1582 C1586 1.385 . S
C1583 H1558 0.951 . S
C1583 C1581 1.388 . S
C1583 C1584 1.366 . S
C1584 C1583 1.366 . S
C1584 C1585 1.414 . S
C1584 C1587 1.499 . S
C1585 H1559 0.950 . S
C1585 C1584 1.414 . S
C1585 C1586 1.374 . S
C1586 H1560 0.950 . S
C1586 C1582 1.385 . S
C1586 C1585 1.374 . S
C1587 C1584 1.499 . S
C1587 C1588 1.373 . S
C1587 C1589 1.389 . S
C1588 H1561 0.950 . S
C1588 C1574 1.377 . S
C1588 C1587 1.373 . S
C1589 C1573 1.377 . S
C1589 C1587 1.389 . S
C1589 C1590 1.524 . S
C1590 C1589 1.524 . S
C1590 C1591 1.397 . S
C1590 C1595 1.363 . S
C1591 H1562 0.950 . S
C1591 C1590 1.397 . S
C1591 C1592 1.334 . S
C1592 H1563 0.950 . S
C1592 C1591 1.334 . S
C1592 C1593 1.287 . S
C1593 C1592 1.287 . S
C1593 C1594 1.524 . S
C1593 H1596 0.999 . S
C1594 H1564 0.950 . S
C1594 C1593 1.524 . S
C1594 C1595 1.415 . S
C1595 H1565 0.950 . S
C1595 C1590 1.363 . S
C1595 C1594 1.415 . S
H1596 C1593 0.999 . S
H1597 C1578 0.913 . S
H1598 C1616 0.951 . S
H1599 C1618 0.951 . S
H1600 C1620 0.950 . S
H1601 C1621 0.950 . S
H1602 C1623 0.950 . S
H1603 C1626 0.950 . S
H1604 C1627 0.950 . S
H1605 C1629 0.950 . S
H1606 C1630 0.950 . S
H1607 C1631 0.951 . S
H1608 C1633 0.951 . S
H1609 C1635 0.950 . S
H1610 C1636 0.950 . S
H1611 C1638 0.950 . S
H1612 C1641 0.950 . S
H1613 C1642 0.950 . S
H1614 C1644 0.950 . S
H1615 C1645 0.950 . S
C1616 H1598 0.951 . S
C1616 C1617 1.366 . S
C1616 C1618 1.388 . S
C1617 C1616 1.366 . S
C1617 C1621 1.385 . S
C1618 H1599 0.951 . S
C1618 C1616 1.388 . S
C1618 C1619 1.366 . S
C1619 C1618 1.366 . S
C1619 C1620 1.414 . S
C1619 C1622 1.499 . S
C1620 H1600 0.950 . S
C1620 C1619 1.414 . S
C1620 C1621 1.374 . S
C1621 H1601 0.950 . S
C1621 C1617 1.385 . S
C1621 C1620 1.374 . S
C1622 C1619 1.499 . S
C1622 C1623 1.373 . S
C1622 C1624 1.389 . S
C1623 H1602 0.950 . S
C1623 C1622 1.373 . S
C1623 C1639 1.377 . S
C1624 C1622 1.389 . S
C1624 C1625 1.524 . S
C1624 C1638 1.377 . S
C1625 C1624 1.524 . S
C1625 C1626 1.397 . S
C1625 C1630 1.363 . S
C1626 H1603 0.950 . S
C1626 C1625 1.397 . S
C1626 C1627 1.334 . S
C1627 H1604 0.950 . S
C1627 C1626 1.334 . S
C1627 C1628 1.287 . S
C1628 C1627 1.287 . S
C1628 C1629 1.524 . S
C1628 H1647 0.913 . S
C1629 H1605 0.950 . S
C1629 C1628 1.524 . S
C1629 C1630 1.415 . S
C1630 H1606 0.950 . S
C1630 C1625 1.363 . S
C1630 C1629 1.415 . S
C1631 H1607 0.951 . S
C1631 C1632 1.366 . S
C1631 C1633 1.388 . S
C1632 C1631 1.366 . S
C1632 C1636 1.385 . S
C1633 H1608 0.951 . S
C1633 C1631 1.388 . S
C1633 C1634 1.366 . S
C1634 C1633 1.366 . S
C1634 C1635 1.414 . S
C1634 C1637 1.499 . S
C1635 H1609 0.950 . S
C1635 C1634 1.414 . S
C1635 C1636 1.374 . S
C1636 H1610 0.950 . S
C1636 C1632 1.385 . S
C1636 C1635 1.374 . S
C1637 C1634 1.499 . S
C1637 C1638 1.373 . S
C1637 C1639 1.389 . S
C1638 H1611 0.950 . S
C1638 C1624 1.377 . S
C1638 C1637 1.373 . S
C1639 C1623 1.377 . S
C1639 C1637 1.389 . S
C1639 C1640 1.524 . S
C1640 C1639 1.524 . S
C1640 C1641 1.397 . S
C1640 C1645 1.363 . S
C1641 H1612 0.950 . S
C1641 C1640 1.397 . S
C1641 C1642 1.334 . S
C1642 H1613 0.950 . S
C1642 C1641 1.334 . S
C1642 C1643 1.287 . S
C1643 C1642 1.287 . S
C1643 C1644 1.524 . S
C1643 H1646 0.999 . S
C1644 H1614 0.950 . S
C1644 C1643 1.524 . S
C1644 C1645 1.415 . S
C1645 H1615 0.950 . S
C1645 C1640 1.363 . S
C1645 C1644 1.415 . S
H1646 C1643 0.999 . S
H1647 C1628 0.913 . S
H1648 C1666 0.951 . S
H1649 C1668 0.951 . S
H1650 C1670 0.950 . S
H1651 C1671 0.950 . S
H1652 C1673 0.950 . S
H1653 C1676 0.950 . S
H1654 C1677 0.950 . S
H1655 C1679 0.950 . S
H1656 C1680 0.950 . S
H1657 C1681 0.951 . S
H1658 C1683 0.951 . S
H1659 C1685 0.950 . S
H1660 C1686 0.950 . S
H1661 C1688 0.950 . S
H1662 C1691 0.950 . S
H1663 C1692 0.950 . S
H1664 C1694 0.950 . S
H1665 C1695 0.950 . S
C1666 H1648 0.951 . S
C1666 C1667 1.366 . S
C1666 C1668 1.388 . S
C1667 C1666 1.366 . S
C1667 C1671 1.385 . S
C1668 H1649 0.951 . S
C1668 C1666 1.388 . S
C1668 C1669 1.366 . S
C1669 C1668 1.366 . S
C1669 C1670 1.414 . S
C1669 C1672 1.499 . S
C1670 H1650 0.950 . S
C1670 C1669 1.414 . S
C1670 C1671 1.374 . S
C1671 H1651 0.950 . S
C1671 C1667 1.385 . S
C1671 C1670 1.374 . S
C1672 C1669 1.499 . S
C1672 C1673 1.373 . S
C1672 C1674 1.389 . S
C1673 H1652 0.950 . S
C1673 C1672 1.373 . S
C1673 C1689 1.377 . S
C1674 C1672 1.389 . S
C1674 C1675 1.524 . S
C1674 C1688 1.377 . S
C1675 C1674 1.524 . S
C1675 C1676 1.397 . S
C1675 C1680 1.363 . S
C1676 H1653 0.950 . S
C1676 C1675 1.397 . S
C1676 C1677 1.334 . S
C1677 H1654 0.950 . S
C1677 C1676 1.334 . S
C1677 C1678 1.287 . S
C1678 C1677 1.287 . S
C1678 C1679 1.524 . S
C1678 H1697 0.913 . S
C1679 H1655 0.950 . S
C1679 C1678 1.524 . S
C1679 C1680 1.415 . S
C1680 H1656 0.950 . S
C1680 C1675 1.363 . S
C1680 C1679 1.415 . S
C1681 H1657 0.951 . S
C1681 C1682 1.366 . S
C1681 C1683 1.388 . S
C1682 C1681 1.366 . S
C1682 C1686 1.385 . S
C1683 H1658 0.951 . S
C1683 C1681 1.388 . S
C1683 C1684 1.366 . S
C1684 C1683 1.366 . S
C1684 C1685 1.414 . S
C1684 C1687 1.499 . S
C1685 H1659 0.950 . S
C1685 C1684 1.414 . S
C1685 C1686 1.374 . S
C1686 H1660 0.950 . S
C1686 C1682 1.385 . S
C1686 C1685 1.374 . S
C1687 C1684 1.499 . S
C1687 C1688 1.373 . S
C1687 C1689 1.389 . S
C1688 H1661 0.950 . S
C1688 C1674 1.377 . S
C1688 C1687 1.373 . S
C1689 C1673 1.377 . S
C1689 C1687 1.389 . S
C1689 C1690 1.524 . S
C1690 C1689 1.524 . S
C1690 C1691 1.397 . S
C1690 C1695 1.363 . S
C1691 H1662 0.950 . S
C1691 C1690 1.397 . S
C1691 C1692 1.334 . S
C1692 H1663 0.950 . S
C1692 C1691 1.334 . S
C1692 C1693 1.287 . S
C1693 C1692 1.287 . S
C1693 C1694 1.524 . S
C1693 H1696 0.999 . S
C1694 H1664 0.950 . S
C1694 C1693 1.524 . S
C1694 C1695 1.415 . S
C1695 H1665 0.950 . S
C1695 C1690 1.363 . S
C1695 C1694 1.415 . S
H1696 C1693 0.999 . S
H1697 C1678 0.913 . S
H1698 C1716 0.951 . S
H1699 C1718 0.951 . S
H1700 C1720 0.950 . S
H1701 C1721 0.950 . S
H1702 C1723 0.950 . S
H1703 C1726 0.950 . S
H1704 C1727 0.950 . S
H1705 C1729 0.950 . S
H1706 C1730 0.950 . S
H1707 C1731 0.951 . S
H1708 C1733 0.951 . S
H1709 C1735 0.950 . S
H1710 C1736 0.950 . S
H1711 C1738 0.950 . S
H1712 C1741 0.950 . S
H1713 C1742 0.950 . S
H1714 C1744 0.950 . S
H1715 C1745 0.950 . S
C1716 H1698 0.951 . S
C1716 C1717 1.366 . S
C1716 C1718 1.388 . S
C1717 C1716 1.366 . S
C1717 C1721 1.385 . S
C1718 H1699 0.951 . S
C1718 C1716 1.388 . S
C1718 C1719 1.366 . S
C1719 C1718 1.366 . S
C1719 C1720 1.414 . S
C1719 C1722 1.499 . S
C1720 H1700 0.950 . S
C1720 C1719 1.414 . S
C1720 C1721 1.374 . S
C1721 H1701 0.950 . S
C1721 C1717 1.385 . S
C1721 C1720 1.374 . S
C1722 C1719 1.499 . S
C1722 C1723 1.373 . S
C1722 C1724 1.389 . S
C1723 H1702 0.950 . S
C1723 C1722 1.373 . S
C1723 C1739 1.377 . S
C1724 C1722 1.389 . S
C1724 C1725 1.524 . S
C1724 C1738 1.377 . S
C1725 C1724 1.524 . S
C1725 C1726 1.397 . S
C1725 C1730 1.363 . S
C1726 H1703 0.950 . S
C1726 C1725 1.397 . S
C1726 C1727 1.334 . S
C1727 H1704 0.950 . S
C1727 C1726 1.334 . S
C1727 C1728 1.287 . S
C1728 C1727 1.287 . S
C1728 C1729 1.524 . S
C1728 H1747 0.913 . S
C1729 H1705 0.950 . S
C1729 C1728 1.524 . S
C1729 C1730 1.415 . S
C1730 H1706 0.950 . S
C1730 C1725 1.363 . S
C1730 C1729 1.415 . S
C1731 H1707 0.951 . S
C1731 C1732 1.366 . S
C1731 C1733 1.388 . S
C1732 C1731 1.366 . S
C1732 C1736 1.385 . S
C1733 H1708 0.951 . S
C1733 C1731 1.388 . S
C1733 C1734 1.366 . S
C1734 C1733 1.366 . S
C1734 C1735 1.414 . S
C1734 C1737 1.499 . S
C1735 H1709 0.950 . S
C1735 C1734 1.414 . S
C1735 C1736 1.374 . S
C1736 H1710 0.950 . S
C1736 C1732 1.385 . S
C1736 C1735 1.374 . S
C1737 C1734 1.499 . S
C1737 C1738 1.373 . S
C1737 C1739 1.389 . S
C1738 H1711 0.950 . S
C1738 C1724 1.377 . S
C1738 C1737 1.373 . S
C1739 C1723 1.377 . S
C1739 C1737 1.389 . S
C1739 C1740 1.524 . S
C1740 C1739 1.524 . S
C1740 C1741 1.397 . S
C1740 C1745 1.363 . S
C1741 H1712 0.950 . S
C1741 C1740 1.397 . S
C1741 C1742 1.334 . S
C1742 H1713 0.950 . S
C1742 C1741 1.334 . S
C1742 C1743 1.287 . S
C1743 C1742 1.287 . S
C1743 C1744 1.524 . S
C1743 H1746 0.999 . S
C1744 H1714 0.950 . S
C1744 C1743 1.524 . S
C1744 C1745 1.415 . S
C1745 H1715 0.950 . S
C1745 C1740 1.363 . S
C1745 C1744 1.415 . S
H1746 C1743 0.999 . S
H1747 C1728 0.913 . S
H1748 C1766 0.951 . S
H1749 C1768 0.951 . S
H1750 C1770 0.950 . S
H1751 C1771 0.950 . S
H1752 C1773 0.950 . S
H1753 C1776 0.950 . S
H1754 C1777 0.950 . S
H1755 C1779 0.950 . S
H1756 C1780 0.950 . S
H1757 C1781 0.951 . S
H1758 C1783 0.951 . S
H1759 C1785 0.950 . S
H1760 C1786 0.950 . S
H1761 C1788 0.950 . S
H1762 C1791 0.950 . S
H1763 C1792 0.950 . S
H1764 C1794 0.950 . S
H1765 C1795 0.950 . S
C1766 H1748 0.951 . S
C1766 C1767 1.366 . S
C1766 C1768 1.388 . S
C1767 C1766 1.366 . S
C1767 C1771 1.385 . S
C1768 H1749 0.951 . S
C1768 C1766 1.388 . S
C1768 C1769 1.366 . S
C1769 C1768 1.366 . S
C1769 C1770 1.414 . S
C1769 C1772 1.499 . S
C1770 H1750 0.950 . S
C1770 C1769 1.414 . S
C1770 C1771 1.374 . S
C1771 H1751 0.950 . S
C1771 C1767 1.385 . S
C1771 C1770 1.374 . S
C1772 C1769 1.499 . S
C1772 C1773 1.373 . S
C1772 C1774 1.389 . S
C1773 H1752 0.950 . S
C1773 C1772 1.373 . S
C1773 C1789 1.377 . S
C1774 C1772 1.389 . S
C1774 C1775 1.524 . S
C1774 C1788 1.377 . S
C1775 C1774 1.524 . S
C1775 C1776 1.397 . S
C1775 C1780 1.363 . S
C1776 H1753 0.950 . S
C1776 C1775 1.397 . S
C1776 C1777 1.334 . S
C1777 H1754 0.950 . S
C1777 C1776 1.334 . S
C1777 C1778 1.287 . S
C1778 C1777 1.287 . S
C1778 C1779 1.524 . S
C1778 H1797 0.913 . S
C1779 H1755 0.950 . S
C1779 C1778 1.524 . S
C1779 C1780 1.415 . S
C1780 H1756 0.950 . S
C1780 C1775 1.363 . S
C1780 C1779 1.415 . S
C1781 H1757 0.951 . S
C1781 C1782 1.366 . S
C1781 C1783 1.388 . S
C1782 C1781 1.366 . S
C1782 C1786 1.385 . S
C1783 H1758 0.951 . S
C1783 C1781 1.388 . S
C1783 C1784 1.366 . S
C1784 C1783 1.366 . S
C1784 C1785 1.414 . S
C1784 C1787 1.499 . S
C1785 H1759 0.950 . S
C1785 C1784 1.414 . S
C1785 C1786 1.374 . S
C1786 H1760 0.950 . S
C1786 C1782 1.385 . S
C1786 C1785 1.374 . S
C1787 C1784 1.499 . S
C1787 C1788 1.373 . S
C1787 C1789 1.389 . S
C1788 H1761 0.950 . S
C1788 C1774 1.377 . S
C1788 C1787 1.373 . S
C1789 C1773 1.377 . S
C1789 C1787 1.389 . S
C1789 C1790 1.524 . S
C1790 C1789 1.524 . S
C1790 C1791 1.397 . S
C1790 C1795 1.363 . S
C1791 H1762 0.950 . S
C1791 C1790 1.397 . S
C1791 C1792 1.334 . S
C1792 H1763 0.950 . S
C1792 C1791 1.334 . S
C1792 C1793 1.287 . S
C1793 C1792 1.287 . S
C1793 C1794 1.524 . S
C1793 H1796 0.999 . S
C1794 H1764 0.950 . S
C1794 C1793 1.524 . S
C1794 C1795 1.415 . S
C1795 H1765 0.950 . S
C1795 C1790 1.363 . S
C1795 C1794 1.415 . S
H1796 C1793 0.999 . S
H1797 C1778 0.913 . S
H1798 C1816 0.951 . S
H1799 C1818 0.951 . S
H1800 C1820 0.950 . S
H1801 C1821 0.950 . S
H1802 C1823 0.950 . S
H1803 C1826 0.950 . S
H1804 C1827 0.950 . S
H1805 C1829 0.950 . S
H1806 C1830 0.950 . S
H1807 C1831 0.951 . S
H1808 C1833 0.951 . S
H1809 C1835 0.950 . S
H1810 C1836 0.950 . S
H1811 C1838 0.950 . S
H1812 C1841 0.950 . S
H1813 C1842 0.950 . S
H1814 C1844 0.950 . S
H1815 C1845 0.950 . S
C1816 H1798 0.951 . S
C1816 C1817 1.366 . S
C1816 C1818 1.388 . S
C1817 C1816 1.366 . S
C1817 C1821 1.385 . S
C1818 H1799 0.951 . S
C1818 C1816 1.388 . S
C1818 C1819 1.366 . S
C1819 C1818 1.366 . S
C1819 C1820 1.414 . S
C1819 C1822 1.499 . S
C1820 H1800 0.950 . S
C1820 C1819 1.414 . S
C1820 C1821 1.374 . S
C1821 H1801 0.950 . S
C1821 C1817 1.385 . S
C1821 C1820 1.374 . S
C1822 C1819 1.499 . S
C1822 C1823 1.373 . S
C1822 C1824 1.389 . S
C1823 H1802 0.950 . S
C1823 C1822 1.373 . S
C1823 C1839 1.377 . S
C1824 C1822 1.389 . S
C1824 C1825 1.524 . S
C1824 C1838 1.377 . S
C1825 C1824 1.524 . S
C1825 C1826 1.397 . S
C1825 C1830 1.363 . S
C1826 H1803 0.950 . S
C1826 C1825 1.397 . S
C1826 C1827 1.334 . S
C1827 H1804 0.950 . S
C1827 C1826 1.334 . S
C1827 C1828 1.287 . S
C1828 C1827 1.287 . S
C1828 C1829 1.524 . S
C1828 H1847 0.913 . S
C1829 H1805 0.950 . S
C1829 C1828 1.524 . S
C1829 C1830 1.415 . S
C1830 H1806 0.950 . S
C1830 C1825 1.363 . S
C1830 C1829 1.415 . S
C1831 H1807 0.951 . S
C1831 C1832 1.366 . S
C1831 C1833 1.388 . S
C1832 C1831 1.366 . S
C1832 C1836 1.385 . S
C1833 H1808 0.951 . S
C1833 C1831 1.388 . S
C1833 C1834 1.366 . S
C1834 C1833 1.366 . S
C1834 C1835 1.414 . S
C1834 C1837 1.499 . S
C1835 H1809 0.950 . S
C1835 C1834 1.414 . S
C1835 C1836 1.374 . S
C1836 H1810 0.950 . S
C1836 C1832 1.385 . S
C1836 C1835 1.374 . S
C1837 C1834 1.499 . S
C1837 C1838 1.373 . S
C1837 C1839 1.389 . S
C1838 H1811 0.950 . S
C1838 C1824 1.377 . S
C1838 C1837 1.373 . S
C1839 C1823 1.377 . S
C1839 C1837 1.389 . S
C1839 C1840 1.524 . S
C1840 C1839 1.524 . S
C1840 C1841 1.397 . S
C1840 C1845 1.363 . S
C1841 H1812 0.950 . S
C1841 C1840 1.397 . S
C1841 C1842 1.334 . S
C1842 H1813 0.950 . S
C1842 C1841 1.334 . S
C1842 C1843 1.287 . S
C1843 C1842 1.287 . S
C1843 C1844 1.524 . S
C1843 H1846 0.999 . S
C1844 H1814 0.950 . S
C1844 C1843 1.524 . S
C1844 C1845 1.415 . S
C1845 H1815 0.950 . S
C1845 C1840 1.363 . S
C1845 C1844 1.415 . S
H1846 C1843 0.999 . S
H1847 C1828 0.913 . S
H1848 C1866 0.951 . S
H1849 C1868 0.951 . S
H1850 C1870 0.950 . S
H1851 C1871 0.950 . S
H1852 C1873 0.950 . S
H1853 C1876 0.950 . S
H1854 C1877 0.950 . S
H1855 C1879 0.950 . S
H1856 C1880 0.950 . S
H1857 C1881 0.951 . S
H1858 C1883 0.951 . S
H1859 C1885 0.950 . S
H1860 C1886 0.950 . S
H1861 C1888 0.950 . S
H1862 C1891 0.950 . S
H1863 C1892 0.950 . S
H1864 C1894 0.950 . S
H1865 C1895 0.950 . S
C1866 H1848 0.951 . S
C1866 C1867 1.366 . S
C1866 C1868 1.388 . S
C1867 C1866 1.366 . S
C1867 C1871 1.385 . S
C1868 H1849 0.951 . S
C1868 C1866 1.388 . S
C1868 C1869 1.366 . S
C1869 C1868 1.366 . S
C1869 C1870 1.414 . S
C1869 C1872 1.499 . S
C1870 H1850 0.950 . S
C1870 C1869 1.414 . S
C1870 C1871 1.374 . S
C1871 H1851 0.950 . S
C1871 C1867 1.385 . S
C1871 C1870 1.374 . S
C1872 C1869 1.499 . S
C1872 C1873 1.373 . S
C1872 C1874 1.389 . S
C1873 H1852 0.950 . S
C1873 C1872 1.373 . S
C1873 C1889 1.377 . S
C1874 C1872 1.389 . S
C1874 C1875 1.524 . S
C1874 C1888 1.377 . S
C1875 C1874 1.524 . S
C1875 C1876 1.397 . S
C1875 C1880 1.363 . S
C1876 H1853 0.950 . S
C1876 C1875 1.397 . S
C1876 C1877 1.334 . S
C1877 H1854 0.950 . S
C1877 C1876 1.334 . S
C1877 C1878 1.287 . S
C1878 C1877 1.287 . S
C1878 C1879 1.524 . S
C1878 H1897 0.913 . S
C1879 H1855 0.950 . S
C1879 C1878 1.524 . S
C1879 C1880 1.415 . S
C1880 H1856 0.950 . S
C1880 C1875 1.363 . S
C1880 C1879 1.415 . S
C1881 H1857 0.951 . S
C1881 C1882 1.366 . S
C1881 C1883 1.388 . S
C1882 C1881 1.366 . S
C1882 C1886 1.385 . S
C1883 H1858 0.951 . S
C1883 C1881 1.388 . S
C1883 C1884 1.366 . S
C1884 C1883 1.366 . S
C1884 C1885 1.414 . S
C1884 C1887 1.499 . S
C1885 H1859 0.950 . S
C1885 C1884 1.414 . S
C1885 C1886 1.374 . S
C1886 H1860 0.950 . S
C1886 C1882 1.385 . S
C1886 C1885 1.374 . S
C1887 C1884 1.499 . S
C1887 C1888 1.373 . S
C1887 C1889 1.389 . S
C1888 H1861 0.950 . S
C1888 C1874 1.377 . S
C1888 C1887 1.373 . S
C1889 C1873 1.377 . S
C1889 C1887 1.389 . S
C1889 C1890 1.524 . S
C1890 C1889 1.524 . S
C1890 C1891 1.397 . S
C1890 C1895 1.363 . S
C1891 H1862 0.950 . S
C1891 C1890 1.397 . S
C1891 C1892 1.334 . S
C1892 H1863 0.950 . S
C1892 C1891 1.334 . S
C1892 C1893 1.287 . S
C1893 C1892 1.287 . S
C1893 C1894 1.524 . S
C1893 H1896 0.999 . S
C1894 H1864 0.950 . S
C1894 C1893 1.524 . S
C1894 C1895 1.415 . S
C1895 H1865 0.950 . S
C1895 C1890 1.363 . S
C1895 C1894 1.415 . S
H1896 C1893 0.999 . S
H1897 C1878 0.913 . S
H1898 C1916 0.951 . S
H1899 C1918 0.951 . S
H1900 C1920 0.950 . S
H1901 C1921 0.950 . S
H1902 C1923 0.950 . S
H1903 C1926 0.950 . S
H1904 C1927 0.950 . S
H1905 C1929 0.950 . S
H1906 C1930 0.950 . S
H1907 C1931 0.951 . S
H1908 C1933 0.951 . S
H1909 C1935 0.950 . S
H1910 C1936 0.950 . S
H1911 C1938 0.950 . S
H1912 C1941 0.950 . S
H1913 C1942 0.950 . S
H1914 C1944 0.950 . S
H1915 C1945 0.950 . S
C1916 H1898 0.951 . S
C1916 C1917 1.366 . S
C1916 C1918 1.388 . S
C1917 C1916 1.366 . S
C1917 C1921 1.385 . S
C1918 H1899 0.951 . S
C1918 C1916 1.388 . S
C1918 C1919 1.366 . S
C1919 C1918 1.366 . S
C1919 C1920 1.414 . S
C1919 C1922 1.499 . S
C1920 H1900 0.950 . S
C1920 C1919 1.414 . S
C1920 C1921 1.374 . S
C1921 H1901 0.950 . S
C1921 C1917 1.385 . S
C1921 C1920 1.374 . S
C1922 C1919 1.499 . S
C1922 C1923 1.373 . S
C1922 C1924 1.389 . S
C1923 H1902 0.950 . S
C1923 C1922 1.373 . S
C1923 C1939 1.377 . S
C1924 C1922 1.389 . S
C1924 C1925 1.524 . S
C1924 C1938 1.377 . S
C1925 C1924 1.524 . S
C1925 C1926 1.397 . S
C1925 C1930 1.363 . S
C1926 H1903 0.950 . S
C1926 C1925 1.397 . S
C1926 C1927 1.334 . S
C1927 H1904 0.950 . S
C1927 C1926 1.334 . S
C1927 C1928 1.287 . S
C1928 C1927 1.287 . S
C1928 C1929 1.524 . S
C1928 H1947 0.913 . S
C1929 H1905 0.950 . S
C1929 C1928 1.524 . S
C1929 C1930 1.415 . S
C1930 H1906 0.950 . S
C1930 C1925 1.363 . S
C1930 C1929 1.415 . S
C1931 H1907 0.951 . S
C1931 C1932 1.366 . S
C1931 C1933 1.388 . S
C1932 C1931 1.366 . S
C1932 C1936 1.385 . S
C1933 H1908 0.951 . S
C1933 C1931 1.388 . S
C1933 C1934 1.366 . S
C1934 C1933 1.366 . S
C1934 C1935 1.414 . S
C1934 C1937 1.499 . S
C1935 H1909 0.950 . S
C1935 C1934 1.414 . S
C1935 C1936 1.374 . S
C1936 H1910 0.950 . S
C1936 C1932 1.385 . S
C1936 C1935 1.374 . S
C1937 C1934 1.499 . S
C1937 C1938 1.373 . S
C1937 C1939 1.389 . S
C1938 H1911 0.950 . S
C1938 C1924 1.377 . S
C1938 C1937 1.373 . S
C1939 C1923 1.377 . S
C1939 C1937 1.389 . S
C1939 C1940 1.524 . S
C1940 C1939 1.524 . S
C1940 C1941 1.397 . S
C1940 C1945 1.363 . S
C1941 H1912 0.950 . S
C1941 C1940 1.397 . S
C1941 C1942 1.334 . S
C1942 H1913 0.950 . S
C1942 C1941 1.334 . S
C1942 C1943 1.287 . S
C1943 C1942 1.287 . S
C1943 C1944 1.524 . S
C1943 H1946 0.999 . S
C1944 H1914 0.950 . S
C1944 C1943 1.524 . S
C1944 C1945 1.415 . S
C1945 H1915 0.950 . S
C1945 C1940 1.363 . S
C1945 C1944 1.415 . S
H1946 C1943 0.999 . S
H1947 C1928 0.913 . S
H1948 C1966 0.951 . S
H1949 C1968 0.951 . S
H1950 C1970 0.950 . S
H1951 C1971 0.950 . S
H1952 C1973 0.950 . S
H1953 C1976 0.950 . S
H1954 C1977 0.950 . S
H1955 C1979 0.950 . S
H1956 C1980 0.950 . S
H1957 C1981 0.951 . S
H1958 C1983 0.951 . S
H1959 C1985 0.950 . S
H1960 C1986 0.950 . S
H1961 C1988 0.950 . S
H1962 C1991 0.950 . S
H1963 C1992 0.950 . S
H1964 C1994 0.950 . S
H1965 C1995 0.950 . S
C1966 H1948 0.951 . S
C1966 C1967 1.366 . S
C1966 C1968 1.388 . S
C1967 C1966 1.366 . S
C1967 C1971 1.385 . S
C1968 H1949 0.951 . S
C1968 C1966 1.388 . S
C1968 C1969 1.366 . S
C1969 C1968 1.366 . S
C1969 C1970 1.414 . S
C1969 C1972 1.499 . S
C1970 H1950 0.950 . S
C1970 C1969 1.414 . S
C1970 C1971 1.374 . S
C1971 H1951 0.950 . S
C1971 C1967 1.385 . S
C1971 C1970 1.374 . S
C1972 C1969 1.499 . S
C1972 C1973 1.373 . S
C1972 C1974 1.389 . S
C1973 H1952 0.950 . S
C1973 C1972 1.373 . S
C1973 C1989 1.377 . S
C1974 C1972 1.389 . S
C1974 C1975 1.524 . S
C1974 C1988 1.377 . S
C1975 C1974 1.524 . S
C1975 C1976 1.397 . S
C1975 C1980 1.363 . S
C1976 H1953 0.950 . S
C1976 C1975 1.397 . S
C1976 C1977 1.334 . S
C1977 H1954 0.950 . S
C1977 C1976 1.334 . S
C1977 C1978 1.287 . S
C1978 C1977 1.287 . S
C1978 C1979 1.524 . S
C1978 H1997 0.913 . S
C1979 H1955 0.950 . S
C1979 C1978 1.524 . S
C1979 C1980 1.415 . S
C1980 H1956 0.950 . S
C1980 C1975 1.363 . S
C1980 C1979 1.415 . S
C1981 H1957 0.951 . S
C1981 C1982 1.366 . S
C1981 C1983 1.388 . S
C1982 C1981 1.366 . S
C1982 C1986 1.385 . S
C1983 H1958 0.951 . S
C1983 C1981 1.388 . S
C1983 C1984 1.366 . S
C1984 C1983 1.366 . S
C1984 C1985 1.414 . S
C1984 C1987 1.499 . S
C1985 H1959 0.950 . S
C1985 C1984 1.414 . S
C1985 C1986 1.374 . S
C1986 H1960 0.950 . S
C1986 C1982 1.385 . S
C1986 C1985 1.374 . S
C1987 C1984 1.499 . S
C1987 C1988 1.373 . S
C1987 C1989 1.389 . S
C1988 H1961 0.950 . S
C1988 C1974 1.377 . S
C1988 C1987 1.373 . S
C1989 C1973 1.377 . S
C1989 C1987 1.389 . S
C1989 C1990 1.524 . S
C1990 C1989 1.524 . S
C1990 C1991 1.397 . S
C1990 C1995 1.363 . S
C1991 H1962 0.950 . S
C1991 C1990 1.397 . S
C1991 C1992 1.334 . S
C1992 H1963 0.950 . S
C1992 C1991 1.334 . S
C1992 C1993 1.287 . S
C1993 C1992 1.287 . S
C1993 C1994 1.524 . S
C1993 H1996 0.999 . S
C1994 H1964 0.950 . S
C1994 C1993 1.524 . S
C1994 C1995 1.415 . S
C1995 H1965 0.950 . S
C1995 C1990 1.363 . S
C1995 C1994 1.415 . S
H1996 C1993 0.999 . S
H1997 C1978 0.913 . S
H1998 C2016 0.951 . S
H1999 C2018 0.951 . S
H2000 C2020 0.950 . S
H2001 C2021 0.950 . S
H2002 C2023 0.950 . S
H2003 C2026 0.950 . S
H2004 C2027 0.950 . S
H2005 C2029 0.950 . S
H2006 C2030 0.950 . S
H2007 C2031 0.951 . S
H2008 C2033 0.951 . S
H2009 C2035 0.950 . S
H2010 C2036 0.950 . S
H2011 C2038 0.950 . S
H2012 C2041 0.950 . S
H2013 C2042 0.950 . S
H2014 C2044 0.950 . S
H2015 C2045 0.950 . S
C2016 H1998 0.951 . S
C2016 C2017 1.366 . S
C2016 C2018 1.388 . S
C2017 C2016 1.366 . S
C2017 C2021 1.385 . S
C2018 H1999 0.951 . S
C2018 C2016 1.388 . S
C2018 C2019 1.366 . S
C2019 C2018 1.366 . S
C2019 C2020 1.414 . S
C2019 C2022 1.499 . S
C2020 H2000 0.950 . S
C2020 C2019 1.414 . S
C2020 C2021 1.374 . S
C2021 H2001 0.950 . S
C2021 C2017 1.385 . S
C2021 C2020 1.374 . S
C2022 C2019 1.499 . S
C2022 C2023 1.373 . S
C2022 C2024 1.389 . S
C2023 H2002 0.950 . S
C2023 C2022 1.373 . S
C2023 C2039 1.377 . S
C2024 C2022 1.389 . S
C2024 C2025 1.524 . S
C2024 C2038 1.377 . S
C2025 C2024 1.524 . S
C2025 C2026 1.397 . S
C2025 C2030 1.363 . S
C2026 H2003 0.950 . S
C2026 C2025 1.397 . S
C2026 C2027 1.334 . S
C2027 H2004 0.950 . S
C2027 C2026 1.334 . S
C2027 C2028 1.287 . S
C2028 C2027 1.287 . S
C2028 C2029 1.524 . S
C2028 H2047 0.913 . S
C2029 H2005 0.950 . S
C2029 C2028 1.524 . S
C2029 C2030 1.415 . S
C2030 H2006 0.950 . S
C2030 C2025 1.363 . S
C2030 C2029 1.415 . S
C2031 H2007 0.951 . S
C2031 C2032 1.366 . S
C2031 C2033 1.388 . S
C2032 C2031 1.366 . S
C2032 C2036 1.385 . S
C2033 H2008 0.951 . S
C2033 C2031 1.388 . S
C2033 C2034 1.366 . S
C2034 C2033 1.366 . S
C2034 C2035 1.414 . S
C2034 C2037 1.499 . S
C2035 H2009 0.950 . S
C2035 C2034 1.414 . S
C2035 C2036 1.374 . S
C2036 H2010 0.950 . S
C2036 C2032 1.385 . S
C2036 C2035 1.374 . S
C2037 C2034 1.499 . S
C2037 C2038 1.373 . S
C2037 C2039 1.389 . S
C2038 H2011 0.950 . S
C2038 C2024 1.377 . S
C2038 C2037 1.373 . S
C2039 C2023 1.377 . S
C2039 C2037 1.389 . S
C2039 C2040 1.524 . S
C2040 C2039 1.524 . S
C2040 C2041 1.397 . S
C2040 C2045 1.363 . S
C2041 H2012 0.950 . S
C2041 C2040 1.397 . S
C2041 C2042 1.334 . S
C2042 H2013 0.950 . S
C2042 C2041 1.334 . S
C2042 C2043 1.287 . S
C2043 C2042 1.287 . S
C2043 C2044 1.524 . S
C2043 H2046 0.999 . S
C2044 H2014 0.950 . S
C2044 C2043 1.524 . S
C2044 C2045 1.415 . S
C2045 H2015 0.950 . S
C2045 C2040 1.363 . S
C2045 C2044 1.415 . S
H2046 C2043 0.999 . S
H2047 C2028 0.913 . S
H2048 C2066 0.951 . S
H2049 C2068 0.951 . S
H2050 C2070 0.950 . S
H2051 C2071 0.950 . S
H2052 C2073 0.950 . S
H2053 C2076 0.950 . S
H2054 C2077 0.950 . S
H2055 C2079 0.950 . S
H2056 C2080 0.950 . S
H2057 C2081 0.951 . S
H2058 C2083 0.951 . S
H2059 C2085 0.950 . S
H2060 C2086 0.950 . S
H2061 C2088 0.950 . S
H2062 C2091 0.950 . S
H2063 C2092 0.950 . S
H2064 C2094 0.950 . S
H2065 C2095 0.950 . S
C2066 H2048 0.951 . S
C2066 C2067 1.366 . S
C2066 C2068 1.388 . S
C2067 C2066 1.366 . S
C2067 C2071 1.385 . S
C2068 H2049 0.951 . S
C2068 C2066 1.388 . S
C2068 C2069 1.366 . S
C2069 C2068 1.366 . S
C2069 C2070 1.414 . S
C2069 C2072 1.499 . S
C2070 H2050 0.950 . S
C2070 C2069 1.414 . S
C2070 C2071 1.374 . S
C2071 H2051 0.950 . S
C2071 C2067 1.385 . S
C2071 C2070 1.374 . S
C2072 C2069 1.499 . S
C2072 C2073 1.373 . S
C2072 C2074 1.389 . S
C2073 H2052 0.950 . S
C2073 C2072 1.373 . S
C2073 C2089 1.377 . S
C2074 C2072 1.389 . S
C2074 C2075 1.524 . S
C2074 C2088 1.377 . S
C2075 C2074 1.524 . S
C2075 C2076 1.397 . S
C2075 C2080 1.363 . S
C2076 H2053 0.950 . S
C2076 C2075 1.397 . S
C2076 C2077 1.334 . S
C2077 H2054 0.950 . S
C2077 C2076 1.334 . S
C2077 C2078 1.287 . S
C2078 C2077 1.287 . S
C2078 C2079 1.524 . S
C2078 H2097 0.913 . S
C2079 H2055 0.950 . S
C2079 C2078 1.524 . S
C2079 C2080 1.415 . S
C2080 H2056 0.950 . S
C2080 C2075 1.363 . S
C2080 C2079 1.415 . S
C2081 H2057 0.951 . S
C2081 C2082 1.366 . S
C2081 C2083 1.388 . S
C2082 C2081 1.366 . S
C2082 C2086 1.385 . S
C2083 H2058 0.951 . S
C2083 C2081 1.388 . S
C2083 C2084 1.366 . S
C2084 C2083 1.366 . S
C2084 C2085 1.414 . S
C2084 C2087 1.499 . S
C2085 H2059 0.950 . S
C2085 C2084 1.414 . S
C2085 C2086 1.374 . S
C2086 H2060 0.950 . S
C2086 C2082 1.385 . S
C2086 C2085 1.374 . S
C2087 C2084 1.499 . S
C2087 C2088 1.373 . S
C2087 C2089 1.389 . S
C2088 H2061 0.950 . S
C2088 C2074 1.377 . S
C2088 C2087 1.373 . S
C2089 C2073 1.377 . S
C2089 C2087 1.389 . S
C2089 C2090 1.524 . S
C2090 C2089 1.524 . S
C2090 C2091 1.397 . S
C2090 C2095 1.363 . S
C2091 H2062 0.950 . S
C2091 C2090 1.397 . S
C2091 C2092 1.334 . S
C2092 H2063 0.950 . S
C2092 C2091 1.334 . S
C2092 C2093 1.287 . S
C2093 C2092 1.287 . S
C2093 C2094 1.524 . S
C2093 H2096 0.999 . S
C2094 H2064 0.950 . S
C2094 C2093 1.524 . S
C2094 C2095 1.415 . S
C2095 H2065 0.950 . S
C2095 C2090 1.363 . S
C2095 C2094 1.415 . S
H2096 C2093 0.999 . S
H2097 C2078 0.913 . S
H2098 C2116 0.951 . S
H2099 C2118 0.951 . S
H2100 C2120 0.950 . S
H2101 C2121 0.950 . S
H2102 C2123 0.950 . S
H2103 C2126 0.950 . S
H2104 C2127 0.950 . S
H2105 C2129 0.950 . S
H2106 C2130 0.950 . S
H2107 C2131 0.951 . S
H2108 C2133 0.951 . S
H2109 C2135 0.950 . S
H2110 C2136 0.950 . S
H2111 C2138 0.950 . S
H2112 C2141 0.950 . S
H2113 C2142 0.950 . S
H2114 C2144 0.950 . S
H2115 C2145 0.950 . S
C2116 H2098 0.951 . S
C2116 C2117 1.366 . S
C2116 C2118 1.388 . S
C2117 C2116 1.366 . S
C2117 C2121 1.385 . S
C2118 H2099 0.951 . S
C2118 C2116 1.388 . S
C2118 C2119 1.366 . S
C2119 C2118 1.366 . S
C2119 C2120 1.414 . S
C2119 C2122 1.499 . S
C2120 H2100 0.950 . S
C2120 C2119 1.414 . S
C2120 C2121 1.374 . S
C2121 H2101 0.950 . S
C2121 C2117 1.385 . S
C2121 C2120 1.374 . S
C2122 C2119 1.499 . S
C2122 C2123 1.373 . S
C2122 C2124 1.389 . S
C2123 H2102 0.950 . S
C2123 C2122 1.373 . S
C2123 C2139 1.377 . S
C2124 C2122 1.389 . S
C2124 C2125 1.524 . S
C2124 C2138 1.377 . S
C2125 C2124 1.524 . S
C2125 C2126 1.397 . S
C2125 C2130 1.363 . S
C2126 H2103 0.950 . S
C2126 C2125 1.397 . S
C2126 C2127 1.334 . S
C2127 H2104 0.950 . S
C2127 C2126 1.334 . S
C2127 C2128 1.287 . S
C2128 C2127 1.287 . S
C2128 C2129 1.524 . S
C2128 H2147 0.913 . S
C2129 H2105 0.950 . S
C2129 C2128 1.524 . S
C2129 C2130 1.415 . S
C2130 H2106 0.950 . S
C2130 C2125 1.363 . S
C2130 C2129 1.415 . S
C2131 H2107 0.951 . S
C2131 C2132 1.366 . S
C2131 C2133 1.388 . S
C2132 C2131 1.366 . S
C2132 C2136 1.385 . S
C2133 H2108 0.951 . S
C2133 C2131 1.388 . S
C2133 C2134 1.366 . S
C2134 C2133 1.366 . S
C2134 C2135 1.414 . S
C2134 C2137 1.499 . S
C2135 H2109 0.950 . S
C2135 C2134 1.414 . S
C2135 C2136 1.374 . S
C2136 H2110 0.950 . S
C2136 C2132 1.385 . S
C2136 C2135 1.374 . S
C2137 C2134 1.499 . S
C2137 C2138 1.373 . S
C2137 C2139 1.389 . S
C2138 H2111 0.950 . S
C2138 C2124 1.377 . S
C2138 C2137 1.373 . S
C2139 C2123 1.377 . S
C2139 C2137 1.389 . S
C2139 C2140 1.524 . S
C2140 C2139 1.524 . S
C2140 C2141 1.397 . S
C2140 C2145 1.363 . S
C2141 H2112 0.950 . S
C2141 C2140 1.397 . S
C2141 C2142 1.334 . S
C2142 H2113 0.950 . S
C2142 C2141 1.334 . S
C2142 C2143 1.287 . S
C2143 C2142 1.287 . S
C2143 C2144 1.524 . S
C2143 H2146 0.999 . S
C2144 H2114 0.950 . S
C2144 C2143 1.524 . S
C2144 C2145 1.415 . S
C2145 H2115 0.950 . S
C2145 C2140 1.363 . S
C2145 C2144 1.415 . S
H2146 C2143 0.999 . S
H2147 C2128 0.913 . S
H2148 C2166 0.951 . S
H2149 C2168 0.951 . S
H2150 C2170 0.950 . S
H2151 C2171 0.950 . S
H2152 C2173 0.950 . S
H2153 C2176 0.950 . S
H2154 C2177 0.950 . S
H2155 C2179 0.950 . S
H2156 C2180 0.950 . S
H2157 C2181 0.951 . S
H2158 C2183 0.951 . S
H2159 C2185 0.950 . S
H2160 C2186 0.950 . S
H2161 C2188 0.950 . S
H2162 C2191 0.950 . S
H2163 C2192 0.950 . S
H2164 C2194 0.950 . S
H2165 C2195 0.950 . S
C2166 H2148 0.951 . S
C2166 C2167 1.366 . S
C2166 C2168 1.388 . S
C2167 C2166 1.366 . S
C2167 C2171 1.385 . S
C2168 H2149 0.951 . S
C2168 C2166 1.388 . S
C2168 C2169 1.366 . S
C2169 C2168 1.366 . S
C2169 C2170 1.414 . S
C2169 C2172 1.499 . S
C2170 H2150 0.950 . S
C2170 C2169 1.414 . S
C2170 C2171 1.374 . S
C2171 H2151 0.950 . S
C2171 C2167 1.385 . S
C2171 C2170 1.374 . S
C2172 C2169 1.499 . S
C2172 C2173 1.373 . S
C2172 C2174 1.389 . S
C2173 H2152 0.950 . S
C2173 C2172 1.373 . S
C2173 C2189 1.377 . S
C2174 C2172 1.389 . S
C2174 C2175 1.524 . S
C2174 C2188 1.377 . S
C2175 C2174 1.524 . S
C2175 C2176 1.397 . S
C2175 C2180 1.363 . S
C2176 H2153 0.950 . S
C2176 C2175 1.397 . S
C2176 C2177 1.334 . S
C2177 H2154 0.950 . S
C2177 C2176 1.334 . S
C2177 C2178 1.287 . S
C2178 C2177 1.287 . S
C2178 C2179 1.524 . S
C2178 H2197 0.913 . S
C2179 H2155 0.950 . S
C2179 C2178 1.524 . S
C2179 C2180 1.415 . S
C2180 H2156 0.950 . S
C2180 C2175 1.363 . S
C2180 C2179 1.415 . S
C2181 H2157 0.951 . S
C2181 C2182 1.366 . S
C2181 C2183 1.388 . S
C2182 C2181 1.366 . S
C2182 C2186 1.385 . S
C2183 H2158 0.951 . S
C2183 C2181 1.388 . S
C2183 C2184 1.366 . S
C2184 C2183 1.366 . S
C2184 C2185 1.414 . S
C2184 C2187 1.499 . S
C2185 H2159 0.950 . S
C2185 C2184 1.414 . S
C2185 C2186 1.374 . S
C2186 H2160 0.950 . S
C2186 C2182 1.385 . S
C2186 C2185 1.374 . S
C2187 C2184 1.499 . S
C2187 C2188 1.373 . S
C2187 C2189 1.389 . S
C2188 H2161 0.950 . S
C2188 C2174 1.377 . S
C2188 C2187 1.373 . S
C2189 C2173 1.377 . S
C2189 C2187 1.389 . S
C2189 C2190 1.524 . S
C2190 C2189 1.524 . S
C2190 C2191 1.397 . S
C2190 C2195 1.363 . S
C2191 H2162 0.950 . S
C2191 C2190 1.397 . S
C2191 C2192 1.334 . S
C2192 H2163 0.950 . S
C2192 C2191 1.334 . S
C2192 C2193 1.287 . S
C2193 C2192 1.287 . S
C2193 C2194 1.524 . S
C2193 H2196 0.999 . S
C2194 H2164 0.950 . S
C2194 C2193 1.524 . S
C2194 C2195 1.415 . S
C2195 H2165 0.950 . S
C2195 C2190 1.363 . S
C2195 C2194 1.415 . S
H2196 C2193 0.999 . S
H2197 C2178 0.913 . S
H2198 C2216 0.951 . S
H2199 C2218 0.951 . S
H2200 C2220 0.950 . S
H2201 C2221 0.950 . S
H2202 C2223 0.950 . S
H2203 C2226 0.950 . S
H2204 C2227 0.950 . S
H2205 C2229 0.950 . S
H2206 C2230 0.950 . S
H2207 C2231 0.951 . S
H2208 C2233 0.951 . S
H2209 C2235 0.950 . S
H2210 C2236 0.950 . S
H2211 C2238 0.950 . S
H2212 C2241 0.950 . S
H2213 C2242 0.950 . S
H2214 C2244 0.950 . S
H2215 C2245 0.950 . S
C2216 H2198 0.951 . S
C2216 C2217 1.366 . S
C2216 C2218 1.388 . S
C2217 C2216 1.366 . S
C2217 C2221 1.385 . S
C2218 H2199 0.951 . S
C2218 C2216 1.388 . S
C2218 C2219 1.366 . S
C2219 C2218 1.366 . S
C2219 C2220 1.414 . S
C2219 C2222 1.499 . S
C2220 H2200 0.950 . S
C2220 C2219 1.414 . S
C2220 C2221 1.374 . S
C2221 H2201 0.950 . S
C2221 C2217 1.385 . S
C2221 C2220 1.374 . S
C2222 C2219 1.499 . S
C2222 C2223 1.373 . S
C2222 C2224 1.389 . S
C2223 H2202 0.950 . S
C2223 C2222 1.373 . S
C2223 C2239 1.377 . S
C2224 C2222 1.389 . S
C2224 C2225 1.524 . S
C2224 C2238 1.377 . S
C2225 C2224 1.524 . S
C2225 C2226 1.397 . S
C2225 C2230 1.363 . S
C2226 H2203 0.950 . S
C2226 C2225 1.397 . S
C2226 C2227 1.334 . S
C2227 H2204 0.950 . S
C2227 C2226 1.334 . S
C2227 C2228 1.287 . S
C2228 C2227 1.287 . S
C2228 C2229 1.524 . S
C2228 H2247 0.913 . S
C2229 H2205 0.950 . S
C2229 C2228 1.524 . S
C2229 C2230 1.415 . S
C2230 H2206 0.950 . S
C2230 C2225 1.363 . S
C2230 C2229 1.415 . S
C2231 H2207 0.951 . S
C2231 C2232 1.366 . S
C2231 C2233 1.388 . S
C2232 C2231 1.366 . S
C2232 C2236 1.385 . S
C2233 H2208 0.951 . S
C2233 C2231 1.388 . S
C2233 C2234 1.366 . S
C2234 C2233 1.366 . S
C2234 C2235 1.414 . S
C2234 C2237 1.499 . S
C2235 H2209 0.950 . S
C2235 C2234 1.414 . S
C2235 C2236 1.374 . S
C2236 H2210 0.950 . S
C2236 C2232 1.385 . S
C2236 C2235 1.374 . S
C2237 C2234 1.499 . S
C2237 C2238 1.373 . S
C2237 C2239 1.389 . S
C2238 H2211 0.950 . S
C2238 C2224 1.377 . S
C2238 C2237 1.373 . S
C2239 C2223 1.377 . S
C2239 C2237 1.389 . S
C2239 C2240 1.524 . S
C2240 C2239 1.524 . S
C2240 C2241 1.397 . S
C2240 C2245 1.363 . S
C2241 H2212 0.950 . S
C2241 C2240 1.397 . S
C2241 C2242 1.334 . S
C2242 H2213 0.950 . S
C2242 C2241 1.334 . S
C2242 C2243 1.287 . S
C2243 C2242 1.287 . S
C2243 C2244 1.524 . S
C2243 H2246 0.999 . S
C2244 H2214 0.950 . S
C2244 C2243 1.524 . S
C2244 C2245 1.415 . S
C2245 H2215 0.950 . S
C2245 C2240 1.363 . S
C2245 C2244 1.415 . S
H2246 C2243 0.999 . S
H2247 C2228 0.913 . S
H2248 C2266 0.951 . S
H2249 C2268 0.951 . S
H2250 C2270 0.950 . S
H2251 C2271 0.950 . S
H2252 C2273 0.950 . S
H2253 C2276 0.950 . S
H2254 C2277 0.950 . S
H2255 C2279 0.950 . S
H2256 C2280 0.950 . S
H2257 C2281 0.951 . S
H2258 C2283 0.951 . S
H2259 C2285 0.950 . S
H2260 C2286 0.950 . S
H2261 C2288 0.950 . S
H2262 C2291 0.950 . S
H2263 C2292 0.950 . S
H2264 C2294 0.950 . S
H2265 C2295 0.950 . S
C2266 H2248 0.951 . S
C2266 C2267 1.366 . S
C2266 C2268 1.388 . S
C2267 C2266 1.366 . S
C2267 C2271 1.385 . S
C2268 H2249 0.951 . S
C2268 C2266 1.388 . S
C2268 C2269 1.366 . S
C2269 C2268 1.366 . S
C2269 C2270 1.414 . S
C2269 C2272 1.499 . S
C2270 H2250 0.950 . S
C2270 C2269 1.414 . S
C2270 C2271 1.374 . S
C2271 H2251 0.950 . S
C2271 C2267 1.385 . S
C2271 C2270 1.374 . S
C2272 C2269 1.499 . S
C2272 C2273 1.373 . S
C2272 C2274 1.389 . S
C2273 H2252 0.950 . S
C2273 C2272 1.373 . S
C2273 C2289 1.377 . S
C2274 C2272 1.389 . S
C2274 C2275 1.524 . S
C2274 C2288 1.377 . S
C2275 C2274 1.524 . S
C2275 C2276 1.397 . S
C2275 C2280 1.363 . S
C2276 H2253 0.950 . S
C2276 C2275 1.397 . S
C2276 C2277 1.334 . S
C2277 H2254 0.950 . S
C2277 C2276 1.334 . S
C2277 C2278 1.287 . S
C2278 C2277 1.287 . S
C2278 C2279 1.524 . S
C2278 H2297 0.913 . S
C2279 H2255 0.950 . S
C2279 C2278 1.524 . S
C2279 C2280 1.415 . S
C2280 H2256 0.950 . S
C2280 C2275 1.363 . S
C2280 C2279 1.415 . S
C2281 H2257 0.951 . S
C2281 C2282 1.366 . S
C2281 C2283 1.388 . S
C2282 C2281 1.366 . S
C2282 C2286 1.385 . S
C2283 H2258 0.951 . S
C2283 C2281 1.388 . S
C2283 C2284 1.366 . S
C2284 C2283 1.366 . S
C2284 C2285 1.414 . S
C2284 C2287 1.499 . S
C2285 H2259 0.950 . S
C2285 C2284 1.414 . S
C2285 C2286 1.374 . S
C2286 H2260 0.950 . S
C2286 C2282 1.385 . S
C2286 C2285 1.374 . S
C2287 C2284 1.499 . S
C2287 C2288 1.373 . S
C2287 C2289 1.389 . S
C2288 H2261 0.950 . S
C2288 C2274 1.377 . S
C2288 C2287 1.373 . S
C2289 C2273 1.377 . S
C2289 C2287 1.389 . S
C2289 C2290 1.524 . S
C2290 C2289 1.524 . S
C2290 C2291 1.397 . S
C2290 C2295 1.363 . S
C2291 H2262 0.950 . S
C2291 C2290 1.397 . S
C2291 C2292 1.334 . S
C2292 H2263 0.950 . S
C2292 C2291 1.334 . S
C2292 C2293 1.287 . S
C2293 C2292 1.287 . S
C2293 C2294 1.524 . S
C2293 H2296 0.999 . S
C2294 H2264 0.950 . S
C2294 C2293 1.524 . S
C2294 C2295 1.415 . S
C2295 H2265 0.950 . S
C2295 C2290 1.363 . S
C2295 C2294 1.415 . S
H2296 C2293 0.999 . S
H2297 C2278 0.913 . S
H2298 C2316 0.951 . S
H2299 C2318 0.951 . S
H2300 C2320 0.950 . S
H2301 C2321 0.950 . S
H2302 C2323 0.950 . S
H2303 C2326 0.950 . S
H2304 C2327 0.950 . S
H2305 C2329 0.950 . S
H2306 C2330 0.950 . S
H2307 C2331 0.951 . S
H2308 C2333 0.951 . S
H2309 C2335 0.950 . S
H2310 C2336 0.950 . S
H2311 C2338 0.950 . S
H2312 C2341 0.950 . S
H2313 C2342 0.950 . S
H2314 C2344 0.950 . S
H2315 C2345 0.950 . S
C2316 H2298 0.951 . S
C2316 C2317 1.366 . S
C2316 C2318 1.388 . S
C2317 C2316 1.366 . S
C2317 C2321 1.385 . S
C2318 H2299 0.951 . S
C2318 C2316 1.388 . S
C2318 C2319 1.366 . S
C2319 C2318 1.366 . S
C2319 C2320 1.414 . S
C2319 C2322 1.499 . S
C2320 H2300 0.950 . S
C2320 C2319 1.414 . S
C2320 C2321 1.374 . S
C2321 H2301 0.950 . S
C2321 C2317 1.385 . S
C2321 C2320 1.374 . S
C2322 C2319 1.499 . S
C2322 C2323 1.373 . S
C2322 C2324 1.389 . S
C2323 H2302 0.950 . S
C2323 C2322 1.373 . S
C2323 C2339 1.377 . S
C2324 C2322 1.389 . S
C2324 C2325 1.524 . S
C2324 C2338 1.377 . S
C2325 C2324 1.524 . S
C2325 C2326 1.397 . S
C2325 C2330 1.363 . S
C2326 H2303 0.950 . S
C2326 C2325 1.397 . S
C2326 C2327 1.334 . S
C2327 H2304 0.950 . S
C2327 C2326 1.334 . S
C2327 C2328 1.287 . S
C2328 C2327 1.287 . S
C2328 C2329 1.524 . S
C2328 H2347 0.913 . S
C2329 H2305 0.950 . S
C2329 C2328 1.524 . S
C2329 C2330 1.415 . S
C2330 H2306 0.950 . S
C2330 C2325 1.363 . S
C2330 C2329 1.415 . S
C2331 H2307 0.951 . S
C2331 C2332 1.366 . S
C2331 C2333 1.388 . S
C2332 C2331 1.366 . S
C2332 C2336 1.385 . S
C2333 H2308 0.951 . S
C2333 C2331 1.388 . S
C2333 C2334 1.366 . S
C2334 C2333 1.366 . S
C2334 C2335 1.414 . S
C2334 C2337 1.499 . S
C2335 H2309 0.950 . S
C2335 C2334 1.414 . S
C2335 C2336 1.374 . S
C2336 H2310 0.950 . S
C2336 C2332 1.385 . S
C2336 C2335 1.374 . S
C2337 C2334 1.499 . S
C2337 C2338 1.373 . S
C2337 C2339 1.389 . S
C2338 H2311 0.950 . S
C2338 C2324 1.377 . S
C2338 C2337 1.373 . S
C2339 C2323 1.377 . S
C2339 C2337 1.389 . S
C2339 C2340 1.524 . S
C2340 C2339 1.524 . S
C2340 C2341 1.397 . S
C2340 C2345 1.363 . S
C2341 H2312 0.950 . S
C2341 C2340 1.397 . S
C2341 C2342 1.334 . S
C2342 H2313 0.950 . S
C2342 C2341 1.334 . S
C2342 C2343 1.287 . S
C2343 C2342 1.287 . S
C2343 C2344 1.524 . S
C2343 H2346 0.999 . S
C2344 H2314 0.950 . S
C2344 C2343 1.524 . S
C2344 C2345 1.415 . S
C2345 H2315 0.950 . S
C2345 C2340 1.363 . S
C2345 C2344 1.415 . S
H2346 C2343 0.999 . S
H2347 C2328 0.913 . S
H2348 C2366 0.951 . S
H2349 C2368 0.951 . S
H2350 C2370 0.950 . S
H2351 C2371 0.950 . S
H2352 C2373 0.950 . S
H2353 C2376 0.950 . S
H2354 C2377 0.950 . S
H2355 C2379 0.950 . S
H2356 C2380 0.950 . S
H2357 C2381 0.951 . S
H2358 C2383 0.951 . S
H2359 C2385 0.950 . S
H2360 C2386 0.950 . S
H2361 C2388 0.950 . S
H2362 C2391 0.950 . S
H2363 C2392 0.950 . S
H2364 C2394 0.950 . S
H2365 C2395 0.950 . S
C2366 H2348 0.951 . S
C2366 C2367 1.366 . S
C2366 C2368 1.388 . S
C2367 C2366 1.366 . S
C2367 C2371 1.385 . S
C2368 H2349 0.951 . S
C2368 C2366 1.388 . S
C2368 C2369 1.366 . S
C2369 C2368 1.366 . S
C2369 C2370 1.414 . S
C2369 C2372 1.499 . S
C2370 H2350 0.950 . S
C2370 C2369 1.414 . S
C2370 C2371 1.374 . S
C2371 H2351 0.950 . S
C2371 C2367 1.385 . S
C2371 C2370 1.374 . S
C2372 C2369 1.499 . S
C2372 C2373 1.373 . S
C2372 C2374 1.389 . S
C2373 H2352 0.950 . S
C2373 C2372 1.373 . S
C2373 C2389 1.377 . S
C2374 C2372 1.389 . S
C2374 C2375 1.524 . S
C2374 C2388 1.377 . S
C2375 C2374 1.524 . S
C2375 C2376 1.397 . S
C2375 C2380 1.363 . S
C2376 H2353 0.950 . S
C2376 C2375 1.397 . S
C2376 C2377 1.334 . S
C2377 H2354 0.950 . S
C2377 C2376 1.334 . S
C2377 C2378 1.287 . S
C2378 C2377 1.287 . S
C2378 C2379 1.524 . S
C2378 H2397 0.913 . S
C2379 H2355 0.950 . S
C2379 C2378 1.524 . S
C2379 C2380 1.415 . S
C2380 H2356 0.950 . S
C2380 C2375 1.363 . S
C2380 C2379 1.415 . S
C2381 H2357 0.951 . S
C2381 C2382 1.366 . S
C2381 C2383 1.388 . S
C2382 C2381 1.366 . S
C2382 C2386 1.385 . S
C2383 H2358 0.951 . S
C2383 C2381 1.388 . S
C2383 C2384 1.366 . S
C2384 C2383 1.366 . S
C2384 C2385 1.414 . S
C2384 C2387 1.499 . S
C2385 H2359 0.950 . S
C2385 C2384 1.414 . S
C2385 C2386 1.374 . S
C2386 H2360 0.950 . S
C2386 C2382 1.385 . S
C2386 C2385 1.374 . S
C2387 C2384 1.499 . S
C2387 C2388 1.373 . S
C2387 C2389 1.389 . S
C2388 H2361 0.950 . S
C2388 C2374 1.377 . S
C2388 C2387 1.373 . S
C2389 C2373 1.377 . S
C2389 C2387 1.389 . S
C2389 C2390 1.524 . S
C2390 C2389 1.524 . S
C2390 C2391 1.397 . S
C2390 C2395 1.363 . S
C2391 H2362 0.950 . S
C2391 C2390 1.397 . S
C2391 C2392 1.334 . S
C2392 H2363 0.950 . S
C2392 C2391 1.334 . S
C2392 C2393 1.287 . S
C2393 C2392 1.287 . S
C2393 C2394 1.524 . S
C2393 H2396 0.999 . S
C2394 H2364 0.950 . S
C2394 C2393 1.524 . S
C2394 C2395 1.415 . S
C2395 H2365 0.950 . S
C2395 C2390 1.363 . S
C2395 C2394 1.415 . S
H2396 C2393 0.999 . S
H2397 C2378 0.913 . S
H2398 C2416 0.951 . S
H2399 C2418 0.951 . S
H2400 C2420 0.950 . S
H2401 C2421 0.950 . S
H2402 C2423 0.950 . S
H2403 C2426 0.950 . S
H2404 C2427 0.950 . S
H2405 C2429 0.950 . S
H2406 C2430 0.950 . S
H2407 C2431 0.951 . S
H2408 C2433 0.951 . S
H2409 C2435 0.950 . S
H2410 C2436 0.950 . S
H2411 C2438 0.950 . S
H2412 C2441 0.950 . S
H2413 C2442 0.950 . S
H2414 C2444 0.950 . S
H2415 C2445 0.950 . S
C2416 H2398 0.951 . S
C2416 C2417 1.366 . S
C2416 C2418 1.388 . S
C2417 C2416 1.366 . S
C2417 C2421 1.385 . S
C2418 H2399 0.951 . S
C2418 C2416 1.388 . S
C2418 C2419 1.366 . S
C2419 C2418 1.366 . S
C2419 C2420 1.414 . S
C2419 C2422 1.499 . S
C2420 H2400 0.950 . S
C2420 C2419 1.414 . S
C2420 C2421 1.374 . S
C2421 H2401 0.950 . S
C2421 C2417 1.385 . S
C2421 C2420 1.374 . S
C2422 C2419 1.499 . S
C2422 C2423 1.373 . S
C2422 C2424 1.389 . S
C2423 H2402 0.950 . S
C2423 C2422 1.373 . S
C2423 C2439 1.377 . S
C2424 C2422 1.389 . S
C2424 C2425 1.524 . S
C2424 C2438 1.377 . S
C2425 C2424 1.524 . S
C2425 C2426 1.397 . S
C2425 C2430 1.363 . S
C2426 H2403 0.950 . S
C2426 C2425 1.397 . S
C2426 C2427 1.334 . S
C2427 H2404 0.950 . S
C2427 C2426 1.334 . S
C2427 C2428 1.287 . S
C2428 C2427 1.287 . S
C2428 C2429 1.524 . S
C2428 H2447 0.913 . S
C2429 H2405 0.950 . S
C2429 C2428 1.524 . S
C2429 C2430 1.415 . S
C2430 H2406 0.950 . S
C2430 C2425 1.363 . S
C2430 C2429 1.415 . S
C2431 H2407 0.951 . S
C2431 C2432 1.366 . S
C2431 C2433 1.388 . S
C2432 C2431 1.366 . S
C2432 C2436 1.385 . S
C2433 H2408 0.951 . S
C2433 C2431 1.388 . S
C2433 C2434 1.366 . S
C2434 C2433 1.366 . S
C2434 C2435 1.414 . S
C2434 C2437 1.499 . S
C2435 H2409 0.950 . S
C2435 C2434 1.414 . S
C2435 C2436 1.374 . S
C2436 H2410 0.950 . S
C2436 C2432 1.385 . S
C2436 C2435 1.374 . S
C2437 C2434 1.499 . S
C2437 C2438 1.373 . S
C2437 C2439 1.389 . S
C2438 H2411 0.950 . S
C2438 C2424 1.377 . S
C2438 C2437 1.373 . S
C2439 C2423 1.377 . S
C2439 C2437 1.389 . S
C2439 C2440 1.524 . S
C2440 C2439 1.524 . S
C2440 C2441 1.397 . S
C2440 C2445 1.363 . S
C2441 H2412 0.950 . S
C2441 C2440 1.397 . S
C2441 C2442 1.334 . S
C2442 H2413 0.950 . S
C2442 C2441 1.334 . S
C2442 C2443 1.287 . S
C2443 C2442 1.287 . S
C2443 C2444 1.524 . S
C2443 H2446 0.999 . S
C2444 H2414 0.950 . S
C2444 C2443 1.524 . S
C2444 C2445 1.415 . S
C2445 H2415 0.950 . S
C2445 C2440 1.363 . S
C2445 C2444 1.415 . S
H2446 C2443 0.999 . S
H2447 C2428 0.913 . S
C367 C8 0.715 . S
C382 C211 0.716 . S
C417 C37 0.714 . S
C432 C240 0.712 . S
C467 C269 0.716 . S
C482 C66 0.715 . S
C517 C95 0.712 . S
C532 C298 0.713 . S
C567 C124 0.714 . S
C582 C327 0.716 . S
C617 C182 0.714 . S
C632 C153 0.716 . S
C667 C295 1.318 . S
C682 C92 1.317 . S
C717 C121 1.317 . S
C732 C324 1.317 . S
C767 C150 1.317 . S
C782 C179 1.318 . S
C817 C5 1.317 . S
C832 C208 1.317 . S
C867 C237 1.317 . S
C882 C34 1.318 . S
C917 C266 1.317 . S
C932 C63 1.317 . S
C967 C108 0.539 . S
C982 C21 0.537 . S
C1017 C50 0.536 . S
C1032 C137 0.538 . S
C1067 C166 0.535 . S
C1082 C79 0.537 . S
C1117 C195 0.537 . S
C1132 C282 0.537 . S
C1167 C224 0.535 . S
C1182 C311 0.535 . S
C1217 C340 0.535 . S
C1232 C253 0.536 . S
C1267 C10 2.512 . S
C1282 C300 2.512 . S
C1317 C39 2.512 . S
C1332 C329 2.512 . S
C1367 C68 2.512 . S
C1382 C184 2.511 . S
C1417 C213 2.512 . S
C1432 C97 2.512 . S
C1467 C242 2.512 . S
C1482 C126 2.512 . S
C1517 C155 2.512 . S
C1532 C271 2.512 . S
C1567 C206 0.619 . S
C1582 C90 0.619 . S
C1617 C235 0.621 . S
C1632 C119 0.621 . S
C1667 C264 0.622 . S
C1682 C148 0.622 . S
C1717 C293 0.621 . S
C1732 C3 0.621 . S
C1767 C322 0.619 . S
C1782 C32 0.619 . S
C1817 C61 0.622 . S
C1832 C177 0.622 . S
C1867 C15 2.628 . S
C1882 C247 2.628 . S
C1917 C276 2.628 . S
C1932 C44 2.628 . S
C1967 C305 2.628 . S
C1982 C73 2.628 . S
C2017 C102 2.628 . S
C2032 C334 2.628 . S
C2067 C189 2.628 . S
C2082 C131 2.628 . S
C2117 C160 2.628 . S
C2132 C218 2.628 . S
C2167 C332 3.119 . S
C2182 C100 3.119 1_556 S
C2217 C187 3.119 . S
C2232 C129 3.119 1_556 S
C2267 C216 3.118 . S
C2282 C158 3.119 1_556 S
C2317 C245 3.118 . S
C2332 C13 3.118 1_556 S
C2367 C274 3.119 . S
C2382 C42 3.118 1_556 S
C2417 C303 3.119 . S
C2432 C71 3.118 1_556 S
