# Generated by pormake.
# Topology uot, (4)-cn, num edge types: 1
# Building blocks:
#     Node 0, Type 0, BuildingBlock: CEKHIL_clean_sbu_0, # of connection points: 4
#     Node 1, Type 0, BuildingBlock: CEKHIL_clean_sbu_0, # of connection points: 4
#     Node 2, Type 0, BuildingBlock: CEKHIL_clean_sbu_0, # of connection points: 4
#     Node 3, Type 0, BuildingBlock: CEKHIL_clean_sbu_0, # of connection points: 4
#     Node 4, Type 0, BuildingBlock: CEKHIL_clean_sbu_0, # of connection points: 4
#     Node 5, Type 0, BuildingBlock: CEKHIL_clean_sbu_0, # of connection points: 4
#     Node 6, Type 0, BuildingBlock: CEKHIL_clean_sbu_0, # of connection points: 4
#     Node 7, Type 0, BuildingBlock: CEKHIL_clean_sbu_0, # of connection points: 4
#     Node 8, Type 0, BuildingBlock: CEKHIL_clean_sbu_0, # of connection points: 4
#     Node 9, Type 0, BuildingBlock: CEKHIL_clean_sbu_0, # of connection points: 4
#     Node 10, Type 0, BuildingBlock: CEKHIL_clean_sbu_0, # of connection points: 4
#     Node 11, Type 0, BuildingBlock: CEKHIL_clean_sbu_0, # of connection points: 4
#     Node 12, Type 0, BuildingBlock: CEKHIL_clean_sbu_0, # of connection points: 4
#     Node 13, Type 0, BuildingBlock: CEKHIL_clean_sbu_0, # of connection points: 4
#     Node 14, Type 0, BuildingBlock: CEKHIL_clean_sbu_0, # of connection points: 4
#     Node 15, Type 0, BuildingBlock: CEKHIL_clean_sbu_0, # of connection points: 4
#     Edge 16, Type (0, 0), BuildingBlock: XIVTED_clean_linker_0, # of connection points: 2
#     Edge 17, Type (0, 0), BuildingBlock: XIVTED_clean_linker_0, # of connection points: 2
#     Edge 18, Type (0, 0), BuildingBlock: XIVTED_clean_linker_0, # of connection points: 2
#     Edge 19, Type (0, 0), BuildingBlock: XIVTED_clean_linker_0, # of connection points: 2
#     Edge 20, Type (0, 0), BuildingBlock: XIVTED_clean_linker_0, # of connection points: 2
#     Edge 21, Type (0, 0), BuildingBlock: XIVTED_clean_linker_0, # of connection points: 2
#     Edge 22, Type (0, 0), BuildingBlock: XIVTED_clean_linker_0, # of connection points: 2
#     Edge 23, Type (0, 0), BuildingBlock: XIVTED_clean_linker_0, # of connection points: 2
#     Edge 24, Type (0, 0), BuildingBlock: XIVTED_clean_linker_0, # of connection points: 2
#     Edge 25, Type (0, 0), BuildingBlock: XIVTED_clean_linker_0, # of connection points: 2
#     Edge 26, Type (0, 0), BuildingBlock: XIVTED_clean_linker_0, # of connection points: 2
#     Edge 27, Type (0, 0), BuildingBlock: XIVTED_clean_linker_0, # of connection points: 2
#     Edge 28, Type (0, 0), BuildingBlock: XIVTED_clean_linker_0, # of connection points: 2
#     Edge 29, Type (0, 0), BuildingBlock: XIVTED_clean_linker_0, # of connection points: 2
#     Edge 30, Type (0, 0), BuildingBlock: XIVTED_clean_linker_0, # of connection points: 2
#     Edge 31, Type (0, 0), BuildingBlock: XIVTED_clean_linker_0, # of connection points: 2
#     Edge 32, Type (0, 0), BuildingBlock: XIVTED_clean_linker_0, # of connection points: 2
#     Edge 33, Type (0, 0), BuildingBlock: XIVTED_clean_linker_0, # of connection points: 2
#     Edge 34, Type (0, 0), BuildingBlock: XIVTED_clean_linker_0, # of connection points: 2
#     Edge 35, Type (0, 0), BuildingBlock: XIVTED_clean_linker_0, # of connection points: 2
#     Edge 36, Type (0, 0), BuildingBlock: XIVTED_clean_linker_0, # of connection points: 2
#     Edge 37, Type (0, 0), BuildingBlock: XIVTED_clean_linker_0, # of connection points: 2
#     Edge 38, Type (0, 0), BuildingBlock: XIVTED_clean_linker_0, # of connection points: 2
#     Edge 39, Type (0, 0), BuildingBlock: XIVTED_clean_linker_0, # of connection points: 2
#     Edge 40, Type (0, 0), BuildingBlock: XIVTED_clean_linker_0, # of connection points: 2
#     Edge 41, Type (0, 0), BuildingBlock: XIVTED_clean_linker_0, # of connection points: 2
#     Edge 42, Type (0, 0), BuildingBlock: XIVTED_clean_linker_0, # of connection points: 2
#     Edge 43, Type (0, 0), BuildingBlock: XIVTED_clean_linker_0, # of connection points: 2
#     Edge 44, Type (0, 0), BuildingBlock: XIVTED_clean_linker_0, # of connection points: 2
#     Edge 45, Type (0, 0), BuildingBlock: XIVTED_clean_linker_0, # of connection points: 2
#     Edge 46, Type (0, 0), BuildingBlock: XIVTED_clean_linker_0, # of connection points: 2
#     Edge 47, Type (0, 0), BuildingBlock: XIVTED_clean_linker_0, # of connection points: 2
# Relax obj value: 0.066
# Max RMSD: 0.082
# Mean RMSD: 0.082
data_MOF--net-uot--node1-CEKHIL_clean_sbu_0--edge1-XIVTED_clean_linker_0
_symmetry_space_group_name_H-M    P1
_symmetry_Int_Tables_number       1
_symmetry_cell_setting            triclinic
loop_
_symmetry_equiv_pos_as_xyz
'x, y, z'
_cell_length_a     44.21982
_cell_length_b     44.214372
_cell_length_c     40.332733
_cell_angle_alpha  89.993444
_cell_angle_beta   89.995773
_cell_angle_gamma 90.057531
loop_
_atom_site_label
_atom_site_type_symbol
_atom_site_fract_x
_atom_site_fract_y
_atom_site_fract_z
_atom_type_partial_charge
Co0 Co 0.20633 0.42885 0.32623 0.0
O1 O 0.23151 0.39563 0.33843 0.0
O2 O 0.2476 0.43636 0.31154 0.0
C3 C 0.16759 0.40146 0.30564 0.0
O4 O 0.18554 0.46718 0.30962 0.0
Co5 Co 0.14479 0.4344 0.36392 0.0
O6 O 0.1394 0.46934 0.33361 0.0
C7 C 0.20153 0.4475 0.39826 0.0
C8 C 0.25375 0.41035 0.32513 0.0
C9 C 0.15957 0.47984 0.31409 0.0
O10 O 0.21527 0.44878 0.37021 0.0
O11 O 0.17427 0.43826 0.40149 0.0
O12 O 0.19119 0.40685 0.28736 0.0
O13 O 0.17004 0.40947 0.33624 0.0
Co14 Co 0.42994 0.79593 0.6746 0.0
O15 O 0.39605 0.77191 0.66148 0.0
O16 O 0.43585 0.75425 0.68873 0.0
C17 C 0.40335 0.83507 0.69558 0.0
O18 O 0.46877 0.81507 0.6922 0.0
Co19 Co 0.43815 0.85828 0.639 0.0
O20 O 0.47319 0.86159 0.66953 0.0
C21 C 0.45051 0.80202 0.60325 0.0
C22 C 0.40973 0.7491 0.67492 0.0
C23 C 0.48266 0.84052 0.6885 0.0
O24 O 0.45029 0.78727 0.63074 0.0
O25 O 0.44238 0.82967 0.60071 0.0
O26 O 0.40787 0.81104 0.71344 0.0
O27 O 0.41186 0.83301 0.66511 0.0
Co28 Co 0.79215 0.57264 0.32486 0.0
O29 O 0.76599 0.60519 0.33702 0.0
O30 O 0.75061 0.56238 0.31371 0.0
C31 C 0.82791 0.60083 0.29954 0.0
O32 O 0.8134 0.53455 0.30868 0.0
Co33 Co 0.85633 0.57093 0.35661 0.0
O34 O 0.86131 0.53475 0.32793 0.0
C35 C 0.80325 0.55573 0.39682 0.0
C36 C 0.74391 0.58876 0.32599 0.0
C37 C 0.83998 0.52282 0.31107 0.0
O38 O 0.78706 0.55438 0.37039 0.0
O39 O 0.83052 0.56545 0.39717 0.0
O40 O 0.80355 0.593 0.28368 0.0
O41 O 0.82809 0.59445 0.33076 0.0
Co42 Co 0.57018 0.20509 0.67623 0.0
O43 O 0.60542 0.22798 0.66474 0.0
O44 O 0.56435 0.24737 0.68803 0.0
C45 C 0.59455 0.16609 0.7006 0.0
O46 O 0.52984 0.18749 0.69186 0.0
Co47 Co 0.56208 0.14146 0.64347 0.0
O48 O 0.5253 0.14011 0.67149 0.0
C49 C 0.55601 0.19661 0.60369 0.0
C50 C 0.59134 0.25155 0.67597 0.0
C51 C 0.51548 0.16222 0.68872 0.0
O52 O 0.55332 0.21252 0.63026 0.0
O53 O 0.56355 0.16868 0.60386 0.0
O54 O 0.58949 0.19075 0.71726 0.0
O55 O 0.58778 0.16733 0.6696 0.0
Co56 Co 0.20721 0.5725 0.67547 0.0
O57 O 0.23087 0.60692 0.66323 0.0
O58 O 0.24887 0.56675 0.68964 0.0
C59 C 0.16755 0.59803 0.69672 0.0
O60 O 0.18846 0.53312 0.69213 0.0
Co61 Co 0.14537 0.56393 0.63906 0.0
O62 O 0.14227 0.52829 0.66878 0.0
C63 C 0.20216 0.55422 0.60343 0.0
C64 C 0.2538 0.59311 0.67627 0.0
C65 C 0.16325 0.51892 0.68793 0.0
O66 O 0.21645 0.55329 0.63118 0.0
O67 O 0.17443 0.56213 0.60093 0.0
O68 O 0.19155 0.5936 0.71468 0.0
O69 O 0.16994 0.59017 0.66608 0.0
Co70 Co 0.57573 0.79256 0.32343 0.0
O71 O 0.60799 0.76681 0.33745 0.0
O72 O 0.56632 0.75083 0.31227 0.0
C73 C 0.60487 0.82816 0.29925 0.0
O74 O 0.53811 0.81323 0.30505 0.0
Co75 Co 0.5716 0.85776 0.35243 0.0
O76 O 0.54188 0.86312 0.31586 0.0
C77 C 0.55554 0.8052 0.39382 0.0
C78 C 0.59228 0.74446 0.32578 0.0
C79 C 0.52914 0.84076 0.30155 0.0
O80 O 0.55593 0.78798 0.36814 0.0
O81 O 0.56402 0.83291 0.39339 0.0
O82 O 0.59775 0.80369 0.28317 0.0
O83 O 0.59688 0.82871 0.33 0.0
Co84 Co 0.793 0.429 0.67683 0.0
O85 O 0.76903 0.39478 0.66469 0.0
O86 O 0.75078 0.4362 0.68828 0.0
C87 C 0.8305 0.40296 0.70173 0.0
O88 O 0.8121 0.46838 0.69302 0.0
Co89 Co 0.85688 0.4343 0.64448 0.0
O90 O 0.85986 0.47058 0.67331 0.0
C91 C 0.80273 0.44639 0.60478 0.0
C92 C 0.74586 0.40941 0.67595 0.0
C93 C 0.8381 0.48143 0.69036 0.0
O94 O 0.78663 0.44701 0.63133 0.0
O95 O 0.83043 0.43807 0.60425 0.0
O96 O 0.80589 0.40929 0.71788 0.0
O97 O 0.83005 0.40946 0.67057 0.0
Co98 Co 0.42997 0.21131 0.32271 0.0
O99 O 0.39782 0.23567 0.33988 0.0
O100 O 0.43713 0.2535 0.3118 0.0
C101 C 0.40027 0.17537 0.29982 0.0
O102 O 0.46713 0.19259 0.30077 0.0
Co103 Co 0.43887 0.14525 0.34765 0.0
O104 O 0.46441 0.14209 0.3074 0.0
C105 C 0.46093 0.1967 0.38808 0.0
C106 C 0.41184 0.25871 0.32724 0.0
C107 C 0.47609 0.16552 0.2942 0.0
O108 O 0.45268 0.21576 0.3658 0.0
O109 O 0.45651 0.16814 0.38605 0.0
O110 O 0.4057 0.20042 0.28408 0.0
O111 O 0.41046 0.17409 0.32979 0.0
Co112 Co 0.71168 0.92724 0.82409 0.0
O113 O 0.73896 0.89527 0.83507 0.0
O114 O 0.75266 0.93897 0.8124 0.0
C115 C 0.67642 0.89831 0.79907 0.0
O116 O 0.68918 0.96504 0.80913 0.0
Co117 Co 0.64743 0.92718 0.85587 0.0
O118 O 0.63998 0.95949 0.82254 0.0
C119 C 0.70063 0.94323 0.89611 0.0
C120 C 0.76034 0.9126 0.82399 0.0
C121 C 0.66138 0.97365 0.80805 0.0
O122 O 0.7169 0.9447 0.86977 0.0
O123 O 0.67327 0.93369 0.89631 0.0
O124 O 0.70023 0.90715 0.78281 0.0
O125 O 0.67648 0.90442 0.83034 0.0
Co126 Co 0.92683 0.29332 0.17571 0.0
O127 O 0.89395 0.26791 0.16256 0.0
O128 O 0.93608 0.2515 0.18642 0.0
C129 C 0.89873 0.32902 0.20102 0.0
O130 O 0.96508 0.31348 0.19304 0.0
Co131 Co 0.93095 0.35867 0.14708 0.0
O132 O 0.96181 0.36346 0.18259 0.0
C133 C 0.94591 0.30632 0.10494 0.0
C134 C 0.90968 0.24541 0.17379 0.0
C135 C 0.97459 0.34085 0.19634 0.0
O136 O 0.94556 0.28883 0.13041 0.0
O137 O 0.93778 0.3341 0.10578 0.0
O138 O 0.906 0.3044 0.2167 0.0
O139 O 0.90589 0.3297 0.17002 0.0
Co140 Co 0.28709 0.07296 0.82317 0.0
O141 O 0.26031 0.10479 0.83607 0.0
O142 O 0.24583 0.06223 0.8115 0.0
C143 C 0.32235 0.10249 0.79884 0.0
O144 O 0.30889 0.03556 0.80601 0.0
Co145 Co 0.35175 0.07089 0.85366 0.0
O146 O 0.3584 0.04014 0.8184 0.0
C147 C 0.29901 0.05377 0.89416 0.0
C148 C 0.2386 0.08824 0.82435 0.0
C149 C 0.33658 0.0268 0.80373 0.0
O150 O 0.28226 0.0537 0.86813 0.0
O151 O 0.32651 0.06288 0.89427 0.0
O152 O 0.2982 0.09453 0.78267 0.0
O153 O 0.32271 0.09515 0.82981 0.0
Co154 Co 0.07079 0.70933 0.17583 0.0
O155 O 0.106 0.73381 0.16927 0.0
O156 O 0.06267 0.75065 0.18986 0.0
C157 C 0.09522 0.67044 0.20026 0.0
O158 O 0.03043 0.68974 0.18765 0.0
Co159 Co 0.06676 0.64716 0.13982 0.0
O160 O 0.02934 0.6425 0.16657 0.0
C161 C 0.0571 0.70324 0.10231 0.0
C162 C 0.09069 0.75597 0.18183 0.0
C163 C 0.01765 0.66378 0.18365 0.0
O164 O 0.05595 0.71843 0.1295 0.0
O165 O 0.0647 0.67535 0.10091 0.0
O166 O 0.08751 0.69408 0.21737 0.0
O167 O 0.09072 0.67242 0.16872 0.0
Co168 Co 0.70878 0.07214 0.17318 0.0
O169 O 0.73451 0.10496 0.16072 0.0
O170 O 0.74974 0.06436 0.18846 0.0
C171 C 0.67023 0.10041 0.19279 0.0
O172 O 0.68776 0.03409 0.19016 0.0
Co173 Co 0.64707 0.06607 0.13596 0.0
O174 O 0.64191 0.03073 0.16578 0.0
C175 C 0.70379 0.05245 0.1017 0.0
C176 C 0.75637 0.09012 0.17459 0.0
C177 C 0.66217 0.02074 0.18547 0.0
O178 O 0.71771 0.05155 0.12965 0.0
O179 O 0.67656 0.06172 0.09847 0.0
O180 O 0.69351 0.09488 0.2115 0.0
O181 O 0.67276 0.09168 0.16245 0.0
Co182 Co 0.07251 0.29183 0.82455 0.0
O183 O 0.10426 0.26477 0.83688 0.0
O184 O 0.0614 0.25067 0.81274 0.0
C185 C 0.10186 0.32707 0.8 0.0
O186 O 0.03516 0.31417 0.80803 0.0
Co187 Co 0.07209 0.35592 0.85679 0.0
O188 O 0.03641 0.36196 0.82762 0.0
C189 C 0.0553 0.30287 0.89633 0.0
C190 C 0.08749 0.2432 0.82523 0.0
C191 C 0.02412 0.34105 0.81046 0.0
O192 O 0.0536 0.2869 0.86977 0.0
O193 O 0.06579 0.32985 0.89698 0.0
O194 O 0.09365 0.30302 0.78381 0.0
O195 O 0.0951 0.32717 0.83112 0.0
Co196 Co 0.29567 0.93081 0.17488 0.0
O197 O 0.27232 0.89507 0.16693 0.0
O198 O 0.25455 0.93654 0.19089 0.0
C199 C 0.33648 0.90672 0.19565 0.0
O200 O 0.31421 0.97126 0.1884 0.0
Co201 Co 0.35616 0.93912 0.13591 0.0
O202 O 0.36014 0.97551 0.16438 0.0
C203 C 0.29816 0.9479 0.10203 0.0
C204 C 0.24997 0.90884 0.18116 0.0
C205 C 0.33932 0.98541 0.18341 0.0
O206 O 0.28427 0.94782 0.13006 0.0
O207 O 0.32611 0.94108 0.09875 0.0
O208 O 0.31324 0.91205 0.21445 0.0
O209 O 0.33294 0.91319 0.16473 0.0
Co210 Co 0.928 0.71031 0.82442 0.0
O211 O 0.89597 0.73674 0.83757 0.0
O212 O 0.93819 0.75169 0.81268 0.0
C213 C 0.89873 0.67478 0.80022 0.0
O214 O 0.96551 0.68895 0.80696 0.0
Co215 Co 0.93092 0.64561 0.85473 0.0
O216 O 0.96151 0.63936 0.8192 0.0
C217 C 0.948 0.69842 0.89518 0.0
C218 C 0.91217 0.75865 0.82568 0.0
C219 C 0.97455 0.66136 0.80453 0.0
O220 O 0.94754 0.71529 0.86923 0.0
O221 O 0.93919 0.67081 0.89531 0.0
O222 O 0.90635 0.69903 0.78404 0.0
O223 O 0.90621 0.67445 0.83115 0.0
H224 H 0.29874 0.40939 0.27759 0.0
H225 H 0.38473 0.28249 0.38097 0.0
H226 H 0.27804 0.38226 0.37769 0.0
H227 H 0.40772 0.30303 0.27963 0.0
H228 H 0.35343 0.32762 0.38311 0.0
H229 H 0.3455 0.37898 0.28019 0.0
C230 C 0.30446 0.39765 0.3003 0.0
C231 C 0.28449 0.39781 0.32731 0.0
C232 C 0.36555 0.32268 0.36042 0.0
C233 C 0.33736 0.36337 0.33053 0.0
C234 C 0.38349 0.29692 0.3593 0.0
C235 C 0.39845 0.28903 0.33003 0.0
C236 C 0.36171 0.34028 0.33169 0.0
C237 C 0.39639 0.30851 0.30265 0.0
C238 C 0.33098 0.38025 0.30176 0.0
C239 C 0.29267 0.38226 0.35615 0.0
N240 N 0.3777 0.33301 0.30387 0.0
N241 N 0.31827 0.36554 0.35689 0.0
H242 H 0.40857 0.70424 0.72262 0.0
H243 H 0.27791 0.61949 0.62256 0.0
H244 H 0.37821 0.72602 0.62392 0.0
H245 H 0.2976 0.59869 0.72466 0.0
H246 H 0.32318 0.65055 0.61991 0.0
H247 H 0.37633 0.65858 0.72154 0.0
C248 C 0.39569 0.69899 0.70051 0.0
C249 C 0.39561 0.71895 0.67346 0.0
C250 C 0.31799 0.63904 0.64292 0.0
C251 C 0.35911 0.6673 0.67198 0.0
C252 C 0.29214 0.62124 0.64436 0.0
C253 C 0.28399 0.60691 0.67394 0.0
C254 C 0.33552 0.64334 0.67159 0.0
C255 C 0.30326 0.60955 0.70142 0.0
C256 C 0.37724 0.67311 0.69995 0.0
C257 C 0.37853 0.71139 0.64547 0.0
N258 N 0.32796 0.62804 0.69983 0.0
N259 N 0.36089 0.68636 0.64556 0.0
H260 H 0.59067 0.69883 0.27931 0.0
H261 H 0.71713 0.61012 0.3809 0.0
H262 H 0.62178 0.72043 0.37776 0.0
H263 H 0.70111 0.59445 0.27697 0.0
H264 H 0.67112 0.64022 0.38367 0.0
H265 H 0.62045 0.65167 0.28127 0.0
C266 C 0.6031 0.69319 0.3016 0.0
C267 C 0.60423 0.71352 0.32828 0.0
C268 C 0.67722 0.62986 0.36028 0.0
C269 C 0.63793 0.66016 0.33077 0.0
C270 C 0.70341 0.61256 0.35879 0.0
C271 C 0.71283 0.60013 0.32865 0.0
C272 C 0.66079 0.6356 0.33114 0.0
C273 C 0.69439 0.60378 0.30067 0.0
C274 C 0.62016 0.66646 0.30266 0.0
C275 C 0.62071 0.70547 0.35653 0.0
N276 N 0.66945 0.62184 0.30237 0.0
N277 N 0.63704 0.67959 0.35692 0.0
H278 H 0.62169 0.27315 0.62344 0.0
H279 H 0.70006 0.40806 0.72256 0.0
H280 H 0.59395 0.29751 0.72229 0.0
H281 H 0.72384 0.37819 0.62427 0.0
H282 H 0.65507 0.37491 0.7207 0.0
H283 H 0.65242 0.31861 0.62058 0.0
C284 C 0.6219 0.2884 0.64447 0.0
C285 C 0.60562 0.28154 0.67322 0.0
C286 C 0.66984 0.37617 0.69932 0.0
C287 C 0.64161 0.33346 0.6707 0.0
C288 C 0.69532 0.39517 0.70032 0.0
C289 C 0.71568 0.39548 0.67363 0.0
C290 C 0.66489 0.35777 0.67133 0.0
C291 C 0.70884 0.37827 0.64551 0.0
C292 C 0.63948 0.31441 0.64291 0.0
C293 C 0.60632 0.30214 0.69969 0.0
N294 N 0.68425 0.36003 0.64522 0.0
N295 N 0.62461 0.32701 0.69809 0.0
H296 H 0.78958 0.89525 0.87906 0.0
H297 H 0.91279 0.80248 0.77728 0.0
H298 H 0.80137 0.90519 0.77363 0.0
H299 H 0.88466 0.78482 0.87773 0.0
H300 H 0.8833 0.84983 0.77815 0.0
H301 H 0.83622 0.86602 0.88171 0.0
C302 C 0.80255 0.89182 0.85657 0.0
C303 C 0.79179 0.90233 0.8261 0.0
C304 C 0.88423 0.83589 0.80021 0.0
C305 C 0.84442 0.86781 0.82853 0.0
C306 C 0.90112 0.80906 0.79976 0.0
C307 C 0.90071 0.78979 0.82737 0.0
C308 C 0.86735 0.84335 0.82862 0.0
C309 C 0.88517 0.79899 0.85582 0.0
C310 C 0.82906 0.875 0.85799 0.0
C311 C 0.80919 0.89738 0.79758 0.0
N312 N 0.86896 0.82495 0.85563 0.0
N313 N 0.83445 0.8798 0.79932 0.0
H314 H 0.78415 0.11076 0.12 0.0
H315 H 0.91044 0.2006 0.22117 0.0
H316 H 0.79799 0.09766 0.22474 0.0
H317 H 0.87985 0.22105 0.12224 0.0
H318 H 0.87982 0.15388 0.22012 0.0
H319 H 0.83024 0.1408 0.11746 0.0
C320 C 0.79734 0.11386 0.14239 0.0
C321 C 0.78728 0.10215 0.17265 0.0
C322 C 0.88042 0.16831 0.19843 0.0
C323 C 0.83951 0.13746 0.17033 0.0
C324 C 0.89796 0.19477 0.19896 0.0
C325 C 0.89726 0.21463 0.17185 0.0
C326 C 0.86263 0.1618 0.1704 0.0
C327 C 0.88065 0.20641 0.14376 0.0
C328 C 0.82359 0.13108 0.14102 0.0
C329 C 0.80517 0.10648 0.20097 0.0
N330 N 0.86388 0.18078 0.14386 0.0
N331 N 0.83022 0.12445 0.19931 0.0
H332 H 0.08775 0.19988 0.77625 0.0
H333 H 0.21014 0.10747 0.87923 0.0
H334 H 0.11301 0.21615 0.87787 0.0
H335 H 0.19711 0.09505 0.77429 0.0
H336 H 0.16367 0.13691 0.88167 0.0
H337 H 0.11714 0.15248 0.77738 0.0
C338 C 0.09872 0.19295 0.79903 0.0
C339 C 0.09838 0.21186 0.82694 0.0
C340 C 0.17052 0.12739 0.8581 0.0
C341 C 0.13175 0.15829 0.82845 0.0
C342 C 0.19697 0.11047 0.85681 0.0
C343 C 0.20734 0.09914 0.82653 0.0
C344 C 0.15482 0.13393 0.82867 0.0
C345 C 0.18963 0.10351 0.79811 0.0
C346 C 0.11558 0.16609 0.79963 0.0
C347 C 0.11307 0.20225 0.85576 0.0
N348 N 0.16445 0.12123 0.79968 0.0
N349 N 0.12933 0.17631 0.85568 0.0
H350 H 0.1904 0.92519 0.17051 0.0
H351 H 0.13473 0.76069 0.22681 0.0
H352 H 0.24688 0.85371 0.20837 0.0
H353 H 0.0839 0.81357 0.15659 0.0
H354 H 0.16963 0.80287 0.23416 0.0
H355 H 0.14578 0.89186 0.1774 0.0
C356 C 0.19324 0.90276 0.18085 0.0
C357 C 0.22217 0.89191 0.1887 0.0
C358 C 0.15059 0.80558 0.21752 0.0
C359 C 0.17189 0.85433 0.19702 0.0
C360 C 0.13061 0.7816 0.21352 0.0
C361 C 0.10662 0.78385 0.19109 0.0
C362 C 0.14699 0.83188 0.19841 0.0
C363 C 0.10219 0.81123 0.17424 0.0
C364 C 0.16794 0.88381 0.18462 0.0
C365 C 0.22492 0.86274 0.20176 0.0
N366 N 0.12258 0.83421 0.17782 0.0
N367 N 0.20017 0.84503 0.20548 0.0
H368 H 0.12322 0.52462 0.33662 0.0
H369 H 0.12008 0.62055 0.17045 0.0
H370 H 0.17976 0.50073 0.25345 0.0
H371 H 0.09697 0.65741 0.26621 0.0
H372 H 0.13846 0.57448 0.19791 0.0
H373 H 0.10952 0.57142 0.30875 0.0
C374 C 0.13276 0.52923 0.31239 0.0
C375 C 0.15256 0.50868 0.29723 0.0
C376 C 0.12953 0.59278 0.21282 0.0
C377 C 0.13673 0.56234 0.26502 0.0
C378 C 0.11893 0.61896 0.19721 0.0
C379 C 0.10692 0.64275 0.21612 0.0
C380 C 0.12761 0.5903 0.24746 0.0
C381 C 0.10603 0.63961 0.25068 0.0
C382 C 0.12503 0.55606 0.29658 0.0
C383 C 0.16447 0.51604 0.26599 0.0
N384 N 0.116 0.61379 0.2652 0.0
N385 N 0.15611 0.54222 0.25066 0.0
H386 H 0.50323 0.81647 0.74749 0.0
H387 H 0.66499 0.89632 0.73263 0.0
H388 H 0.52889 0.87595 0.6674 0.0
H389 H 0.62665 0.87206 0.82738 0.0
H390 H 0.61867 0.87897 0.70553 0.0
H391 H 0.55197 0.82738 0.77468 0.0
C392 C 0.51913 0.83164 0.7356 0.0
C393 C 0.51192 0.84558 0.70535 0.0
C394 C 0.62048 0.87729 0.73225 0.0
C395 C 0.56746 0.85764 0.73579 0.0
C396 C 0.64693 0.88707 0.7477 0.0
C397 C 0.64953 0.88579 0.78229 0.0
C398 C 0.59658 0.86584 0.75147 0.0
C399 C 0.62542 0.8736 0.80063 0.0
C400 C 0.54679 0.8379 0.75111 0.0
C401 C 0.53331 0.86504 0.69093 0.0
N402 N 0.59986 0.86408 0.78499 0.0
N403 N 0.56008 0.87039 0.7062 0.0
H404 H 0.90032 0.34136 0.26735 0.0
H405 H 0.81323 0.49892 0.25537 0.0
H406 H 0.87064 0.37795 0.17368 0.0
H407 H 0.8806 0.47997 0.32995 0.0
H408 H 0.82514 0.45029 0.22877 0.0
H409 H 0.88377 0.38797 0.29476 0.0
C410 C 0.89001 0.35907 0.25263 0.0
C411 C 0.8869 0.35593 0.21823 0.0
C412 C 0.8372 0.45689 0.251 0.0
C413 C 0.8678 0.40899 0.24935 0.0
C414 C 0.83038 0.4845 0.2662 0.0
C415 C 0.84614 0.49356 0.29472 0.0
C416 C 0.85936 0.43804 0.26494 0.0
C417 C 0.86816 0.47403 0.30776 0.0
C418 C 0.88073 0.38566 0.26823 0.0
C419 C 0.87355 0.37961 0.20027 0.0
N420 N 0.87401 0.44714 0.29288 0.0
N421 N 0.86439 0.40518 0.21606 0.0
H422 H 0.49507 0.18575 0.74794 0.0
H423 H 0.33273 0.10689 0.73233 0.0
H424 H 0.46816 0.1294 0.66572 0.0
H425 H 0.37264 0.12775 0.82725 0.0
H426 H 0.37848 0.12547 0.70503 0.0
H427 H 0.44628 0.17468 0.77502 0.0
C428 C 0.4788 0.17137 0.73548 0.0
C429 C 0.4857 0.15823 0.70474 0.0
C430 C 0.37714 0.12616 0.73183 0.0
C431 C 0.43017 0.14589 0.73511 0.0
C432 C 0.35101 0.11565 0.74741 0.0
C433 C 0.349 0.11561 0.78209 0.0
C434 C 0.40131 0.13705 0.75102 0.0
C435 C 0.3734 0.12722 0.80043 0.0
C436 C 0.45114 0.16496 0.75095 0.0
C437 C 0.46391 0.1397 0.68963 0.0
N438 N 0.39862 0.13748 0.78467 0.0
N439 N 0.43716 0.13414 0.70491 0.0
H440 H 0.18543 0.49938 0.74814 0.0
H441 H 0.1066 0.33708 0.73351 0.0
H442 H 0.1296 0.4718 0.66573 0.0
H443 H 0.12674 0.37761 0.82831 0.0
H444 H 0.12517 0.38273 0.70603 0.0
H445 H 0.17373 0.45106 0.77586 0.0
C446 C 0.17096 0.48311 0.73582 0.0
C447 C 0.15821 0.48967 0.70479 0.0
C448 C 0.12568 0.38156 0.73285 0.0
C449 C 0.14522 0.43464 0.73588 0.0
C450 C 0.11518 0.3555 0.74853 0.0
C451 C 0.11494 0.3537 0.78322 0.0
C452 C 0.13633 0.40589 0.75196 0.0
C453 C 0.12635 0.37823 0.80148 0.0
C454 C 0.16422 0.4557 0.75165 0.0
C455 C 0.13958 0.46785 0.68986 0.0
N456 N 0.1366 0.4034 0.78562 0.0
N457 N 0.13373 0.44134 0.70548 0.0
H458 H 0.39294 0.91343 0.16931 0.0
H459 H 0.47717 0.80738 0.29854 0.0
H460 H 0.3454 0.8735 0.25185 0.0
H461 H 0.51877 0.88862 0.26068 0.0
H462 H 0.42974 0.82167 0.27076 0.0
H463 H 0.44075 0.8949 0.19245 0.0
C464 C 0.39256 0.9006 0.19217 0.0
C465 C 0.36529 0.89512 0.20888 0.0
C466 C 0.44941 0.83612 0.26836 0.0
C467 C 0.41957 0.8734 0.23486 0.0
C468 C 0.47643 0.82791 0.2839 0.0
C469 C 0.50174 0.84696 0.28191 0.0
C470 C 0.44811 0.86308 0.25006 0.0
C471 C 0.49962 0.87347 0.26294 0.0
C472 C 0.41978 0.89013 0.20532 0.0
C473 C 0.36603 0.87839 0.23842 0.0
N474 N 0.47326 0.88072 0.24758 0.0
N475 N 0.39278 0.86791 0.25043 0.0
H476 H 0.81334 0.50335 0.74829 0.0
H477 H 0.89615 0.66354 0.73376 0.0
H478 H 0.87462 0.52678 0.66906 0.0
H479 H 0.87253 0.62497 0.82858 0.0
H480 H 0.87812 0.61746 0.70658 0.0
H481 H 0.82512 0.552 0.77525 0.0
C482 C 0.82903 0.5188 0.73649 0.0
C483 C 0.84325 0.51097 0.70659 0.0
C484 C 0.87672 0.61919 0.73333 0.0
C485 C 0.85633 0.56641 0.73679 0.0
C486 C 0.88689 0.64549 0.74883 0.0
C487 C 0.88597 0.64795 0.78346 0.0
C488 C 0.86515 0.59534 0.75254 0.0
C489 C 0.87379 0.62384 0.8018 0.0
C490 C 0.83581 0.54639 0.75189 0.0
C491 C 0.86344 0.53175 0.69231 0.0
N492 N 0.8638 0.59847 0.78611 0.0
N493 N 0.86928 0.55851 0.70746 0.0
H494 H 0.66174 0.1319 0.25054 0.0
H495 H 0.48469 0.12259 0.24703 0.0
H496 H 0.61439 0.09895 0.16424 0.0
H497 H 0.52918 0.197 0.29601 0.0
H498 H 0.53241 0.10983 0.2195 0.0
H499 H 0.61379 0.15224 0.27181 0.0
C500 C 0.64131 0.12902 0.23608 0.0
C501 C 0.64196 0.11363 0.20568 0.0
C502 C 0.5316 0.12923 0.23587 0.0
C503 C 0.58737 0.13641 0.22989 0.0
C504 C 0.50445 0.13651 0.2515 0.0
C505 C 0.50312 0.16095 0.27354 0.0
C506 C 0.55775 0.14594 0.24321 0.0
C507 C 0.52933 0.17819 0.27882 0.0
C508 C 0.61409 0.14077 0.24809 0.0
C509 C 0.6149 0.11061 0.18781 0.0
N510 N 0.55583 0.17002 0.26419 0.0
N511 N 0.58862 0.12154 0.20038 0.0
H512 H 0.69414 0.02614 0.80509 0.0
H513 H 0.5858 0.10865 0.67848 0.0
H514 H 0.61085 0.98531 0.77187 0.0
H515 H 0.62761 0.1592 0.7577 0.0
H516 H 0.6033 0.06175 0.70397 0.0
H517 H 0.67851 0.07408 0.77912 0.0
C518 C 0.67279 0.02721 0.79199 0.0
C519 C 0.6537 0.00186 0.79053 0.0
C520 C 0.60864 0.08313 0.71571 0.0
C521 C 0.63606 0.05604 0.76077 0.0
C522 C 0.59875 0.10991 0.70119 0.0
C523 C 0.60516 0.13783 0.71612 0.0
C524 C 0.62573 0.08428 0.74492 0.0
C525 C 0.62204 0.13807 0.74558 0.0
C526 C 0.66382 0.05451 0.77752 0.0
C527 C 0.62612 0.00441 0.77361 0.0
N528 N 0.63204 0.11161 0.75896 0.0
N529 N 0.61822 0.03097 0.75913 0.0
H530 H 0.11087 0.40749 0.33131 0.0
H531 H 0.02603 0.3067 0.19796 0.0
H532 H 0.15928 0.36918 0.24848 0.0
H533 H 0.98634 0.38816 0.23747 0.0
H534 H 0.07378 0.31944 0.22611 0.0
H535 H 0.06328 0.39046 0.30659 0.0
C536 C 0.11152 0.39528 0.30807 0.0
C537 C 0.139 0.38989 0.29176 0.0
C538 C 0.05446 0.3343 0.22872 0.0
C539 C 0.08482 0.36992 0.26386 0.0
C540 C 0.02728 0.32699 0.21296 0.0
C541 C 0.00239 0.3465 0.21544 0.0
C542 C 0.05631 0.36081 0.24773 0.0
C543 C 0.00514 0.37266 0.23485 0.0
C544 C 0.08439 0.38567 0.294 0.0
C545 C 0.13851 0.37395 0.26168 0.0
N546 N 0.0316 0.37899 0.25047 0.0
N547 N 0.11178 0.36433 0.2487 0.0
H548 H 0.30316 0.97489 0.79952 0.0
H549 H 0.41144 0.89225 0.6719 0.0
H550 H 0.38623 0.0158 0.76574 0.0
H551 H 0.36866 0.84254 0.75116 0.0
H552 H 0.39331 0.93947 0.69648 0.0
H553 H 0.31794 0.92747 0.77196 0.0
C554 C 0.32425 0.97398 0.78589 0.0
C555 C 0.34358 0.99915 0.78485 0.0
C556 C 0.38783 0.91818 0.70834 0.0
C557 C 0.36025 0.94555 0.75325 0.0
C558 C 0.39806 0.89125 0.69434 0.0
C559 C 0.39165 0.86351 0.70966 0.0
C560 C 0.37044 0.91728 0.73738 0.0
C561 C 0.37424 0.86354 0.73875 0.0
C562 C 0.33272 0.94697 0.77048 0.0
C563 C 0.37081 0.9968 0.76721 0.0
N564 N 0.36401 0.89007 0.75162 0.0
N565 N 0.37827 0.9705 0.75189 0.0
H566 H 0.8777 0.6275 0.32728 0.0
H567 H 0.97282 0.62692 0.16119 0.0
H568 H 0.83875 0.60297 0.23295 0.0
H569 H 0.99519 0.68701 0.24183 0.0
H570 H 0.9252 0.61456 0.18875 0.0
H571 H 0.92275 0.6463 0.2983 0.0
C572 C 0.87859 0.6262 0.30048 0.0
C573 C 0.85454 0.6136 0.28245 0.0
C574 C 0.94041 0.63062 0.20032 0.0
C575 C 0.90596 0.63467 0.24934 0.0
C576 C 0.96764 0.63758 0.1847 0.0
C577 C 0.98801 0.65792 0.19934 0.0
C578 C 0.93372 0.64356 0.23121 0.0
C579 C 0.98004 0.67127 0.22969 0.0
C580 C 0.9042 0.63704 0.284 0.0
C581 C 0.85679 0.61252 0.24779 0.0
N582 N 0.95364 0.66354 0.24489 0.0
N583 N 0.88219 0.62261 0.23238 0.0
H584 H 0.62565 0.97544 0.16377 0.0
H585 H 0.63023 0.87801 0.32797 0.0
H586 H 0.68502 0.99935 0.24459 0.0
H587 H 0.60734 0.83982 0.23278 0.0
H588 H 0.64725 0.92429 0.30006 0.0
H589 H 0.6149 0.92739 0.19088 0.0
C590 C 0.63636 0.97062 0.18734 0.0
C591 C 0.6561 0.99155 0.20209 0.0
C592 C 0.63879 0.90563 0.28532 0.0
C593 C 0.64375 0.93646 0.23331 0.0
C594 C 0.629 0.87931 0.30118 0.0
C595 C 0.61732 0.85514 0.28261 0.0
C596 C 0.63627 0.90796 0.25075 0.0
C597 C 0.61625 0.85791 0.24801 0.0
C598 C 0.63038 0.94306 0.20265 0.0
C599 C 0.66965 0.98386 0.23242 0.0
N600 N 0.62526 0.88401 0.23321 0.0
N601 N 0.66294 0.957 0.24728 0.0
H602 H 0.84345 0.40363 0.76786 0.0
H603 H 1.00019 0.31576 0.75392 0.0
H604 H 0.87981 0.37637 0.6732 0.0
H605 H 0.98195 0.38215 0.82976 0.0
H606 H 0.95193 0.329 0.72721 0.0
H607 H 0.89018 0.38663 0.79459 0.0
C608 C 0.86118 0.39385 0.75276 0.0
C609 C 0.85791 0.3915 0.7183 0.0
C610 C 0.95862 0.34057 0.74972 0.0
C611 C 0.9111 0.37181 0.74866 0.0
C612 C 0.98601 0.33298 0.76498 0.0
C613 C 0.99514 0.34806 0.79392 0.0
C614 C 0.94007 0.36278 0.76403 0.0
C615 C 0.97595 0.37021 0.80726 0.0
C616 C 0.88783 0.38428 0.76798 0.0
C617 C 0.88159 0.37872 0.69985 0.0
N618 N 0.94926 0.37678 0.79233 0.0
N619 N 0.90722 0.36922 0.71529 0.0
H620 H 0.37842 0.12364 0.32828 0.0
H621 H 0.3722 0.03268 0.15988 0.0
H622 H 0.39291 0.16625 0.23336 0.0
H623 H 0.31883 0.00497 0.24415 0.0
H624 H 0.38373 0.08019 0.18797 0.0
H625 H 0.35989 0.07826 0.29967 0.0
C626 C 0.37751 0.12349 0.30144 0.0
C627 C 0.38724 0.14867 0.28311 0.0
C628 C 0.36931 0.06384 0.20024 0.0
C629 C 0.36654 0.0969 0.25041 0.0
C630 C 0.36284 0.03665 0.18432 0.0
C631 C 0.34463 0.01482 0.1998 0.0
C632 C 0.35804 0.06906 0.23223 0.0
C633 C 0.33289 0.02127 0.23136 0.0
C634 C 0.36685 0.09768 0.28519 0.0
C635 C 0.38558 0.14736 0.24843 0.0
N636 N 0.34014 0.04771 0.24679 0.0
N637 N 0.37577 0.12176 0.23318 0.0
H638 H 0.1106 0.58872 0.67293 0.0
H639 H 0.02584 0.69564 0.80011 0.0
H640 H 0.15924 0.63229 0.75244 0.0
H641 H 0.98631 0.6118 0.76663 0.0
H642 H 0.07348 0.68156 0.77265 0.0
H643 H 0.06296 0.60589 0.6974 0.0
C644 C 0.11127 0.60207 0.6954 0.0
C645 C 0.13884 0.60901 0.71082 0.0
C646 C 0.05423 0.66645 0.77122 0.0
C647 C 0.08461 0.62913 0.73839 0.0
C648 C 0.02709 0.67452 0.78657 0.0
C649 C 0.00226 0.65477 0.7856 0.0
C650 C 0.05613 0.63889 0.75411 0.0
C651 C 0.00505 0.62753 0.76805 0.0
C652 C 0.08411 0.61175 0.70934 0.0
C653 C 0.13839 0.62633 0.73996 0.0
N654 N 0.03149 0.62045 0.75278 0.0
N655 N 0.11164 0.63603 0.75275 0.0
H656 H 0.20091 0.57787 0.54127 0.0
H657 H 0.2033 0.42412 0.46053 0.0
H658 H 0.23473 0.50227 0.59758 0.0
H659 H 0.23124 0.50129 0.40281 0.0
H660 H 0.2169 0.4514 0.51124 0.0
H661 H 0.21409 0.55136 0.48996 0.0
C662 C 0.21188 0.556 0.54274 0.0
C663 C 0.21662 0.54205 0.57347 0.0
C664 C 0.22089 0.46204 0.48745 0.0
C665 C 0.23077 0.51134 0.51524 0.0
C666 C 0.21304 0.44655 0.45861 0.0
C667 C 0.21604 0.46065 0.42769 0.0
C668 C 0.23066 0.49218 0.48527 0.0
C669 C 0.22867 0.48972 0.42632 0.0
C670 C 0.21947 0.54095 0.51355 0.0
C671 C 0.23079 0.51371 0.57424 0.0
N672 N 0.23473 0.50495 0.45484 0.0
N673 N 0.23658 0.49881 0.54544 0.0
H674 H 0.50561 0.76957 0.4013 0.0
H675 H 0.50695 0.77846 0.59877 0.0
H676 H 0.57577 0.81476 0.45669 0.0
H677 H 0.42693 0.79687 0.54125 0.0
H678 H 0.535 0.76926 0.54707 0.0
H679 H 0.47969 0.75771 0.45374 0.0
C680 C 0.51592 0.77626 0.42454 0.0
C681 C 0.54261 0.79343 0.42487 0.0
C682 C 0.51106 0.77434 0.54596 0.0
C683 C 0.51369 0.77941 0.48432 0.0
C684 C 0.49506 0.77935 0.5753 0.0
C685 C 0.46474 0.78844 0.57396 0.0
C686 C 0.49631 0.77782 0.51541 0.0
C687 C 0.45035 0.78992 0.54306 0.0
C688 C 0.50114 0.76957 0.45426 0.0
C689 C 0.55503 0.80177 0.45551 0.0
N690 N 0.46634 0.78484 0.51485 0.0
N691 N 0.5404 0.79475 0.4841 0.0
H692 H 0.80796 0.57772 0.45971 0.0
H693 H 0.80661 0.42378 0.54216 0.0
H694 H 0.77313 0.50239 0.40355 0.0
H695 H 0.7726 0.4996 0.59797 0.0
H696 H 0.79591 0.45125 0.49061 0.0
H697 H 0.79675 0.55022 0.51114 0.0
C698 C 0.79738 0.55564 0.45832 0.0
C699 C 0.79148 0.54218 0.42755 0.0
C700 C 0.79006 0.46151 0.51414 0.0
C701 C 0.77955 0.51046 0.48582 0.0
C702 C 0.7962 0.44592 0.54343 0.0
C703 C 0.79043 0.45955 0.57414 0.0
C704 C 0.77923 0.49129 0.51575 0.0
C705 C 0.77716 0.48834 0.57466 0.0
C706 C 0.7909 0.54006 0.48755 0.0
C707 C 0.77786 0.51351 0.42691 0.0
N708 N 0.77276 0.50369 0.54584 0.0
N709 N 0.77308 0.49818 0.45567 0.0
H710 H 0.51935 0.18447 0.40026 0.0
H711 H 0.50898 0.23486 0.58884 0.0
H712 H 0.44282 0.23266 0.43978 0.0
H713 H 0.58368 0.18676 0.54493 0.0
H714 H 0.48886 0.24465 0.533 0.0
H715 H 0.54757 0.19537 0.45079 0.0
C716 C 0.50872 0.19774 0.4196 0.0
C717 C 0.47883 0.20749 0.41628 0.0
C718 C 0.51003 0.23258 0.5356 0.0
C719 C 0.51047 0.21938 0.47463 0.0
C720 C 0.52159 0.22719 0.5674 0.0
C721 C 0.5477 0.20956 0.57132 0.0
C722 C 0.52488 0.2203 0.50785 0.0
C723 C 0.56317 0.20001 0.54291 0.0
C724 C 0.52475 0.20399 0.44846 0.0
C725 C 0.46592 0.22474 0.44174 0.0
N726 N 0.55134 0.20517 0.51245 0.0
N727 N 0.48166 0.2297 0.47027 0.0
H728 H 0.70817 0.07563 0.03952 0.0
H729 H 0.69201 0.92242 0.959 0.0
H730 H 0.72906 0.99663 0.09775 0.0
H731 H 0.7363 0.99305 0.90341 0.0
H732 H 0.70539 0.9486 0.01052 0.0
H733 H 0.71922 0.04693 0.98896 0.0
C734 C 0.71595 0.05247 0.04158 0.0
C735 C 0.71771 0.03832 0.07257 0.0
C736 C 0.71281 0.95795 0.98706 0.0
C737 C 0.72916 0.00527 0.01527 0.0
C738 C 0.70502 0.94317 0.95775 0.0
C739 C 0.71287 0.95581 0.92709 0.0
C740 C 0.72757 0.98602 0.9855 0.0
C741 C 0.72983 0.98265 0.92666 0.0
C742 C 0.72227 0.03616 0.01285 0.0
C743 C 0.72762 0.00825 0.07417 0.0
N744 N 0.73594 0.99737 0.95548 0.0
N745 N 0.73214 0.99235 0.04576 0.0
H746 H 0.07815 0.30413 0.95899 0.0
H747 H 0.92479 0.31511 0.0423 0.0
H748 H 0.9997 0.2773 0.90274 0.0
H749 H 0.99711 0.27292 0.09702 0.0
H750 H 0.95145 0.30361 0.99046 0.0
H751 H 0.05001 0.29459 0.01042 0.0
C752 C 0.05522 0.29558 0.95758 0.0
C753 C 0.04111 0.29146 0.92682 0.0
C754 C 0.96111 0.29627 0.0138 0.0
C755 C 0.00871 0.2816 0.98505 0.0
C756 C 0.94602 0.30292 0.04327 0.0
C757 C 0.95891 0.29498 0.07377 0.0
C758 C 0.98972 0.28264 0.01506 0.0
C759 C 0.98647 0.27928 0.07388 0.0
C760 C 0.03925 0.29008 0.9868 0.0
C761 C 0.01133 0.28054 0.9261 0.0
N762 N 0.00143 0.2743 0.04493 0.0
N763 N 0.99575 0.27675 0.95487 0.0
H764 H 0.26486 0.00273 0.90038 0.0
H765 H 0.27034 0.00239 0.09793 0.0
H766 H 0.30663 0.07385 0.95749 0.0
H767 H 0.29445 0.92423 0.03986 0.0
H768 H 0.26006 0.03029 0.0464 0.0
H769 H 0.25291 0.97595 0.95226 0.0
C770 C 0.27075 0.01306 0.92387 0.0
C771 C 0.28703 0.04029 0.92486 0.0
C772 C 0.26659 0.00671 0.04513 0.0
C773 C 0.27285 0.01037 0.98368 0.0
C774 C 0.27219 0.99075 0.07437 0.0
C775 C 0.28327 0.9611 0.07288 0.0
C776 C 0.27148 0.99255 0.01448 0.0
C777 C 0.28595 0.94712 0.04184 0.0
C778 C 0.26399 0.99779 0.95328 0.0
C779 C 0.29435 0.05271 0.95581 0.0
N780 N 0.28029 0.96306 0.01372 0.0
N781 N 0.28728 0.03758 0.98408 0.0
H782 H 0.92728 0.69266 0.95843 0.0
H783 H 0.0809 0.70149 0.04006 0.0
H784 H 1.00046 0.73027 0.90102 0.0
H785 H 0.00372 0.73288 0.09546 0.0
H786 H 0.0533 0.71118 0.98836 0.0
H787 H 0.95462 0.70573 0.00941 0.0
C788 C 0.94888 0.70414 0.95667 0.0
C789 C 0.96178 0.71036 0.9257 0.0
C790 C 0.04278 0.7168 0.01182 0.0
C791 C 0.99333 0.72453 0.98348 0.0
C792 C 0.05848 0.71131 0.04121 0.0
C793 C 0.0445 0.7165 0.07186 0.0
C794 C 0.01256 0.72634 0.01331 0.0
C795 C 0.0153 0.72885 0.07221 0.0
C796 C 0.96434 0.71172 0.98565 0.0
C797 C 0.98981 0.72523 0.92456 0.0
N798 N 0.99988 0.73253 0.04333 0.0
N799 N 0.0051 0.73112 0.95311 0.0
loop_
_geom_bond_atom_site_label_1
_geom_bond_atom_site_label_2
_geom_bond_distance
_geom_bond_site_symmetry_2
_ccdc_geom_bond_type
Co0 O1 2.216 . S
Co0 O2 2.091 . S
Co0 O4 2.004 . S
Co0 O10 2.021 . S
Co0 O12 2.137 . S
Co0 O13 2.244 . S
O1 Co0 2.216 . S
O1 C8 1.247 . S
O2 Co0 2.091 . S
O2 C8 1.261 . S
C3 O12 1.247 . S
C3 O13 1.272 . S
O4 Co0 2.004 . S
O4 C9 1.259 . S
Co5 O6 2.061 . S
Co5 O11 2.052 . S
Co5 O13 2.135 . S
O6 Co5 2.061 . S
O6 C9 1.235 . S
C7 O10 1.238 . S
C7 O11 1.241 . S
C8 O1 1.247 . S
C8 O2 1.261 . S
C9 O4 1.259 . S
C9 O6 1.235 . S
O10 Co0 2.021 . S
O10 C7 1.238 . S
O11 Co5 2.052 . S
O11 C7 1.241 . S
O12 Co0 2.137 . S
O12 C3 1.247 . S
O13 Co0 2.244 . S
O13 C3 1.272 . S
O13 Co5 2.135 . S
Co14 O15 2.216 . S
Co14 O16 2.091 . S
Co14 O18 2.004 . S
Co14 O24 2.021 . S
Co14 O26 2.137 . S
Co14 O27 2.244 . S
O15 Co14 2.216 . S
O15 C22 1.247 . S
O16 Co14 2.091 . S
O16 C22 1.261 . S
C17 O26 1.247 . S
C17 O27 1.272 . S
O18 Co14 2.004 . S
O18 C23 1.259 . S
Co19 O20 2.061 . S
Co19 O25 2.052 . S
Co19 O27 2.135 . S
O20 Co19 2.061 . S
O20 C23 1.235 . S
C21 O24 1.238 . S
C21 O25 1.241 . S
C22 O15 1.247 . S
C22 O16 1.261 . S
C23 O18 1.259 . S
C23 O20 1.235 . S
O24 Co14 2.021 . S
O24 C21 1.238 . S
O25 Co19 2.052 . S
O25 C21 1.241 . S
O26 Co14 2.137 . S
O26 C17 1.247 . S
O27 Co14 2.244 . S
O27 C17 1.272 . S
O27 Co19 2.135 . S
Co28 O29 2.216 . S
Co28 O30 2.091 . S
Co28 O32 2.004 . S
Co28 O38 2.021 . S
Co28 O40 2.137 . S
Co28 O41 2.244 . S
O29 Co28 2.216 . S
O29 C36 1.247 . S
O30 Co28 2.091 . S
O30 C36 1.261 . S
C31 O40 1.247 . S
C31 O41 1.272 . S
O32 Co28 2.004 . S
O32 C37 1.259 . S
Co33 O34 2.061 . S
Co33 O39 2.052 . S
Co33 O41 2.135 . S
O34 Co33 2.061 . S
O34 C37 1.235 . S
C35 O38 1.238 . S
C35 O39 1.241 . S
C36 O29 1.247 . S
C36 O30 1.261 . S
C37 O32 1.259 . S
C37 O34 1.235 . S
O38 Co28 2.021 . S
O38 C35 1.238 . S
O39 Co33 2.052 . S
O39 C35 1.241 . S
O40 Co28 2.137 . S
O40 C31 1.247 . S
O41 Co28 2.244 . S
O41 C31 1.272 . S
O41 Co33 2.135 . S
Co42 O43 2.216 . S
Co42 O44 2.091 . S
Co42 O46 2.004 . S
Co42 O52 2.021 . S
Co42 O54 2.137 . S
Co42 O55 2.244 . S
O43 Co42 2.216 . S
O43 C50 1.247 . S
O44 Co42 2.091 . S
O44 C50 1.261 . S
C45 O54 1.247 . S
C45 O55 1.272 . S
O46 Co42 2.004 . S
O46 C51 1.259 . S
Co47 O48 2.061 . S
Co47 O53 2.052 . S
Co47 O55 2.135 . S
O48 Co47 2.061 . S
O48 C51 1.235 . S
C49 O52 1.238 . S
C49 O53 1.241 . S
C50 O43 1.247 . S
C50 O44 1.261 . S
C51 O46 1.259 . S
C51 O48 1.235 . S
O52 Co42 2.021 . S
O52 C49 1.238 . S
O53 Co47 2.052 . S
O53 C49 1.241 . S
O54 Co42 2.137 . S
O54 C45 1.247 . S
O55 Co42 2.244 . S
O55 C45 1.272 . S
O55 Co47 2.135 . S
Co56 O57 2.216 . S
Co56 O58 2.091 . S
Co56 O60 2.004 . S
Co56 O66 2.021 . S
Co56 O68 2.137 . S
Co56 O69 2.244 . S
O57 Co56 2.216 . S
O57 C64 1.247 . S
O58 Co56 2.091 . S
O58 C64 1.261 . S
C59 O68 1.247 . S
C59 O69 1.272 . S
O60 Co56 2.004 . S
O60 C65 1.259 . S
Co61 O62 2.061 . S
Co61 O67 2.052 . S
Co61 O69 2.135 . S
O62 Co61 2.061 . S
O62 C65 1.235 . S
C63 O66 1.238 . S
C63 O67 1.241 . S
C64 O57 1.247 . S
C64 O58 1.261 . S
C65 O60 1.259 . S
C65 O62 1.235 . S
O66 Co56 2.021 . S
O66 C63 1.238 . S
O67 Co61 2.052 . S
O67 C63 1.241 . S
O68 Co56 2.137 . S
O68 C59 1.247 . S
O69 Co56 2.244 . S
O69 C59 1.272 . S
O69 Co61 2.135 . S
Co70 O71 2.216 . S
Co70 O72 2.091 . S
Co70 O74 2.004 . S
Co70 O80 2.021 . S
Co70 O82 2.137 . S
Co70 O83 2.244 . S
O71 Co70 2.216 . S
O71 C78 1.247 . S
O72 Co70 2.091 . S
O72 C78 1.261 . S
C73 O82 1.247 . S
C73 O83 1.272 . S
O74 Co70 2.004 . S
O74 C79 1.259 . S
Co75 O76 2.061 . S
Co75 O81 2.052 . S
Co75 O83 2.135 . S
O76 Co75 2.061 . S
O76 C79 1.235 . S
C77 O80 1.238 . S
C77 O81 1.241 . S
C78 O71 1.247 . S
C78 O72 1.261 . S
C79 O74 1.259 . S
C79 O76 1.235 . S
O80 Co70 2.021 . S
O80 C77 1.238 . S
O81 Co75 2.052 . S
O81 C77 1.241 . S
O82 Co70 2.137 . S
O82 C73 1.247 . S
O83 Co70 2.244 . S
O83 C73 1.272 . S
O83 Co75 2.135 . S
Co84 O85 2.216 . S
Co84 O86 2.091 . S
Co84 O88 2.004 . S
Co84 O94 2.021 . S
Co84 O96 2.137 . S
Co84 O97 2.244 . S
O85 Co84 2.216 . S
O85 C92 1.247 . S
O86 Co84 2.091 . S
O86 C92 1.261 . S
C87 O96 1.247 . S
C87 O97 1.272 . S
O88 Co84 2.004 . S
O88 C93 1.259 . S
Co89 O90 2.061 . S
Co89 O95 2.052 . S
Co89 O97 2.135 . S
O90 Co89 2.061 . S
O90 C93 1.235 . S
C91 O94 1.238 . S
C91 O95 1.241 . S
C92 O85 1.247 . S
C92 O86 1.261 . S
C93 O88 1.259 . S
C93 O90 1.235 . S
O94 Co84 2.021 . S
O94 C91 1.238 . S
O95 Co89 2.052 . S
O95 C91 1.241 . S
O96 Co84 2.137 . S
O96 C87 1.247 . S
O97 Co84 2.244 . S
O97 C87 1.272 . S
O97 Co89 2.135 . S
Co98 O99 2.216 . S
Co98 O100 2.091 . S
Co98 O102 2.004 . S
Co98 O108 2.021 . S
Co98 O110 2.137 . S
Co98 O111 2.244 . S
O99 Co98 2.216 . S
O99 C106 1.247 . S
O100 Co98 2.091 . S
O100 C106 1.261 . S
C101 O110 1.247 . S
C101 O111 1.272 . S
O102 Co98 2.004 . S
O102 C107 1.259 . S
Co103 O104 2.061 . S
Co103 O109 2.052 . S
Co103 O111 2.135 . S
O104 Co103 2.061 . S
O104 C107 1.235 . S
C105 O108 1.238 . S
C105 O109 1.241 . S
C106 O99 1.247 . S
C106 O100 1.261 . S
C107 O102 1.259 . S
C107 O104 1.235 . S
O108 Co98 2.021 . S
O108 C105 1.238 . S
O109 Co103 2.052 . S
O109 C105 1.241 . S
O110 Co98 2.137 . S
O110 C101 1.247 . S
O111 Co98 2.244 . S
O111 C101 1.272 . S
O111 Co103 2.135 . S
Co112 O113 2.216 . S
Co112 O114 2.091 . S
Co112 O116 2.004 . S
Co112 O122 2.021 . S
Co112 O124 2.137 . S
Co112 O125 2.244 . S
O113 Co112 2.216 . S
O113 C120 1.247 . S
O114 Co112 2.091 . S
O114 C120 1.261 . S
C115 O124 1.247 . S
C115 O125 1.272 . S
O116 Co112 2.004 . S
O116 C121 1.259 1_565 S
Co117 O118 2.061 1_565 S
Co117 O123 2.052 . S
Co117 O125 2.135 . S
O118 Co117 2.061 1_545 S
O118 C121 1.235 . S
C119 O122 1.238 . S
C119 O123 1.241 . S
C120 O113 1.247 . S
C120 O114 1.261 . S
C121 O116 1.259 1_545 S
C121 O118 1.235 . S
O122 Co112 2.021 . S
O122 C119 1.238 . S
O123 Co117 2.052 . S
O123 C119 1.241 . S
O124 Co112 2.137 . S
O124 C115 1.247 . S
O125 Co112 2.244 . S
O125 C115 1.272 . S
O125 Co117 2.135 . S
Co126 O127 2.216 . S
Co126 O128 2.091 . S
Co126 O130 2.004 . S
Co126 O136 2.021 . S
Co126 O138 2.137 . S
Co126 O139 2.244 . S
O127 Co126 2.216 . S
O127 C134 1.247 . S
O128 Co126 2.091 . S
O128 C134 1.261 . S
C129 O138 1.247 . S
C129 O139 1.272 . S
O130 Co126 2.004 . S
O130 C135 1.259 1_655 S
Co131 O132 2.061 1_655 S
Co131 O137 2.052 . S
Co131 O139 2.135 . S
O132 Co131 2.061 1_455 S
O132 C135 1.235 . S
C133 O136 1.238 . S
C133 O137 1.241 . S
C134 O127 1.247 . S
C134 O128 1.261 . S
C135 O130 1.259 1_455 S
C135 O132 1.235 . S
O136 Co126 2.021 . S
O136 C133 1.238 . S
O137 Co131 2.052 . S
O137 C133 1.241 . S
O138 Co126 2.137 . S
O138 C129 1.247 . S
O139 Co126 2.244 . S
O139 C129 1.272 . S
O139 Co131 2.135 . S
Co140 O141 2.216 . S
Co140 O142 2.091 . S
Co140 O144 2.004 . S
Co140 O150 2.021 . S
Co140 O152 2.137 . S
Co140 O153 2.244 . S
O141 Co140 2.216 . S
O141 C148 1.247 . S
O142 Co140 2.091 . S
O142 C148 1.261 . S
C143 O152 1.247 . S
C143 O153 1.272 . S
O144 Co140 2.004 . S
O144 C149 1.259 1_545 S
Co145 O146 2.061 1_545 S
Co145 O151 2.052 . S
Co145 O153 2.135 . S
O146 Co145 2.061 1_565 S
O146 C149 1.235 . S
C147 O150 1.238 . S
C147 O151 1.241 . S
C148 O141 1.247 . S
C148 O142 1.261 . S
C149 O144 1.259 1_565 S
C149 O146 1.235 . S
O150 Co140 2.021 . S
O150 C147 1.238 . S
O151 Co145 2.052 . S
O151 C147 1.241 . S
O152 Co140 2.137 . S
O152 C143 1.247 . S
O153 Co140 2.244 . S
O153 C143 1.272 . S
O153 Co145 2.135 . S
Co154 O155 2.216 . S
Co154 O156 2.091 . S
Co154 O158 2.004 . S
Co154 O164 2.021 . S
Co154 O166 2.137 . S
Co154 O167 2.244 . S
O155 Co154 2.216 . S
O155 C162 1.247 . S
O156 Co154 2.091 . S
O156 C162 1.261 . S
C157 O166 1.247 . S
C157 O167 1.272 . S
O158 Co154 2.004 . S
O158 C163 1.259 1_455 S
Co159 O160 2.061 1_455 S
Co159 O165 2.052 . S
Co159 O167 2.135 . S
O160 Co159 2.061 1_655 S
O160 C163 1.235 . S
C161 O164 1.238 . S
C161 O165 1.241 . S
C162 O155 1.247 . S
C162 O156 1.261 . S
C163 O158 1.259 1_655 S
C163 O160 1.235 . S
O164 Co154 2.021 . S
O164 C161 1.238 . S
O165 Co159 2.052 . S
O165 C161 1.241 . S
O166 Co154 2.137 . S
O166 C157 1.247 . S
O167 Co154 2.244 . S
O167 C157 1.272 . S
O167 Co159 2.135 . S
Co168 O169 2.216 . S
Co168 O170 2.091 . S
Co168 O172 2.004 . S
Co168 O178 2.021 . S
Co168 O180 2.137 . S
Co168 O181 2.244 . S
O169 Co168 2.216 . S
O169 C176 1.247 . S
O170 Co168 2.091 . S
O170 C176 1.261 . S
C171 O180 1.247 . S
C171 O181 1.272 . S
O172 Co168 2.004 . S
O172 C177 1.259 1_545 S
Co173 O174 2.061 1_545 S
Co173 O179 2.052 . S
Co173 O181 2.135 . S
O174 Co173 2.061 1_565 S
O174 C177 1.235 . S
C175 O178 1.238 . S
C175 O179 1.241 . S
C176 O169 1.247 . S
C176 O170 1.261 . S
C177 O172 1.259 1_565 S
C177 O174 1.235 . S
O178 Co168 2.021 . S
O178 C175 1.238 . S
O179 Co173 2.052 . S
O179 C175 1.241 . S
O180 Co168 2.137 . S
O180 C171 1.247 . S
O181 Co168 2.244 . S
O181 C171 1.272 . S
O181 Co173 2.135 . S
Co182 O183 2.216 . S
Co182 O184 2.091 . S
Co182 O186 2.004 . S
Co182 O192 2.021 . S
Co182 O194 2.137 . S
Co182 O195 2.244 . S
O183 Co182 2.216 . S
O183 C190 1.247 . S
O184 Co182 2.091 . S
O184 C190 1.261 . S
C185 O194 1.247 . S
C185 O195 1.272 . S
O186 Co182 2.004 . S
O186 C191 1.259 1_455 S
Co187 O188 2.061 1_455 S
Co187 O193 2.052 . S
Co187 O195 2.135 . S
O188 Co187 2.061 1_655 S
O188 C191 1.235 . S
C189 O192 1.238 . S
C189 O193 1.241 . S
C190 O183 1.247 . S
C190 O184 1.261 . S
C191 O186 1.259 1_655 S
C191 O188 1.235 . S
O192 Co182 2.021 . S
O192 C189 1.238 . S
O193 Co187 2.052 . S
O193 C189 1.241 . S
O194 Co182 2.137 . S
O194 C185 1.247 . S
O195 Co182 2.244 . S
O195 C185 1.272 . S
O195 Co187 2.135 . S
Co196 O197 2.216 . S
Co196 O198 2.091 . S
Co196 O200 2.004 . S
Co196 O206 2.021 . S
Co196 O208 2.137 . S
Co196 O209 2.244 . S
O197 Co196 2.216 . S
O197 C204 1.247 . S
O198 Co196 2.091 . S
O198 C204 1.261 . S
C199 O208 1.247 . S
C199 O209 1.272 . S
O200 Co196 2.004 . S
O200 C205 1.259 1_565 S
Co201 O202 2.061 1_565 S
Co201 O207 2.052 . S
Co201 O209 2.135 . S
O202 Co201 2.061 1_545 S
O202 C205 1.235 . S
C203 O206 1.238 . S
C203 O207 1.241 . S
C204 O197 1.247 . S
C204 O198 1.261 . S
C205 O200 1.259 1_545 S
C205 O202 1.235 . S
O206 Co196 2.021 . S
O206 C203 1.238 . S
O207 Co201 2.052 . S
O207 C203 1.241 . S
O208 Co196 2.137 . S
O208 C199 1.247 . S
O209 Co196 2.244 . S
O209 C199 1.272 . S
O209 Co201 2.135 . S
Co210 O211 2.216 . S
Co210 O212 2.091 . S
Co210 O214 2.004 . S
Co210 O220 2.021 . S
Co210 O222 2.137 . S
Co210 O223 2.244 . S
O211 Co210 2.216 . S
O211 C218 1.247 . S
O212 Co210 2.091 . S
O212 C218 1.261 . S
C213 O222 1.247 . S
C213 O223 1.272 . S
O214 Co210 2.004 . S
O214 C219 1.259 1_655 S
Co215 O216 2.061 1_655 S
Co215 O221 2.052 . S
Co215 O223 2.135 . S
O216 Co215 2.061 1_455 S
O216 C219 1.235 . S
C217 O220 1.238 . S
C217 O221 1.241 . S
C218 O211 1.247 . S
C218 O212 1.261 . S
C219 O214 1.259 1_455 S
C219 O216 1.235 . S
O220 Co210 2.021 . S
O220 C217 1.238 . S
O221 Co215 2.052 . S
O221 C217 1.241 . S
O222 Co210 2.137 . S
O222 C213 1.247 . S
O223 Co210 2.244 . S
O223 C213 1.272 . S
O223 Co215 2.135 . S
H224 C230 0.930 . S
H225 C234 0.930 . S
H226 C239 0.929 . S
H227 C237 0.929 . S
H228 C232 0.929 . S
H229 C238 0.929 . S
C230 H224 0.930 . S
C230 C231 1.367 . S
C230 C238 1.378 . S
C231 C230 1.367 . S
C231 C239 1.433 . S
C232 H228 0.929 . S
C232 C234 1.378 . S
C232 C236 1.350 . S
C233 C236 1.463 . S
C233 C238 1.350 . S
C233 N241 1.427 . S
C234 H225 0.930 . S
C234 C232 1.378 . S
C234 C235 1.367 . S
C235 C234 1.367 . S
C235 C237 1.433 . S
C236 C232 1.350 . S
C236 C233 1.463 . S
C236 N240 1.427 . S
C237 H227 0.929 . S
C237 C235 1.433 . S
C237 N240 1.384 . S
C238 H229 0.929 . S
C238 C230 1.378 . S
C238 C233 1.350 . S
C239 H226 0.929 . S
C239 C231 1.433 . S
C239 N241 1.384 . S
N240 C236 1.427 . S
N240 C237 1.384 . S
N241 C233 1.427 . S
N241 C239 1.384 . S
H242 C248 0.930 . S
H243 C252 0.930 . S
H244 C257 0.929 . S
H245 C255 0.929 . S
H246 C250 0.929 . S
H247 C256 0.929 . S
C248 H242 0.930 . S
C248 C249 1.367 . S
C248 C256 1.378 . S
C249 C248 1.367 . S
C249 C257 1.433 . S
C250 H246 0.929 . S
C250 C252 1.378 . S
C250 C254 1.350 . S
C251 C254 1.463 . S
C251 C256 1.350 . S
C251 N259 1.427 . S
C252 H243 0.930 . S
C252 C250 1.378 . S
C252 C253 1.367 . S
C253 C252 1.367 . S
C253 C255 1.433 . S
C254 C250 1.350 . S
C254 C251 1.463 . S
C254 N258 1.427 . S
C255 H245 0.929 . S
C255 C253 1.433 . S
C255 N258 1.384 . S
C256 H247 0.929 . S
C256 C248 1.378 . S
C256 C251 1.350 . S
C257 H244 0.929 . S
C257 C249 1.433 . S
C257 N259 1.384 . S
N258 C254 1.427 . S
N258 C255 1.384 . S
N259 C251 1.427 . S
N259 C257 1.384 . S
H260 C266 0.930 . S
H261 C270 0.930 . S
H262 C275 0.929 . S
H263 C273 0.929 . S
H264 C268 0.929 . S
H265 C274 0.929 . S
C266 H260 0.930 . S
C266 C267 1.367 . S
C266 C274 1.378 . S
C267 C266 1.367 . S
C267 C275 1.433 . S
C268 H264 0.929 . S
C268 C270 1.378 . S
C268 C272 1.350 . S
C269 C272 1.463 . S
C269 C274 1.350 . S
C269 N277 1.427 . S
C270 H261 0.930 . S
C270 C268 1.378 . S
C270 C271 1.367 . S
C271 C270 1.367 . S
C271 C273 1.433 . S
C272 C268 1.350 . S
C272 C269 1.463 . S
C272 N276 1.427 . S
C273 H263 0.929 . S
C273 C271 1.433 . S
C273 N276 1.384 . S
C274 H265 0.929 . S
C274 C266 1.378 . S
C274 C269 1.350 . S
C275 H262 0.929 . S
C275 C267 1.433 . S
C275 N277 1.384 . S
N276 C272 1.427 . S
N276 C273 1.384 . S
N277 C269 1.427 . S
N277 C275 1.384 . S
H278 C284 0.930 . S
H279 C288 0.930 . S
H280 C293 0.929 . S
H281 C291 0.929 . S
H282 C286 0.929 . S
H283 C292 0.929 . S
C284 H278 0.930 . S
C284 C285 1.367 . S
C284 C292 1.378 . S
C285 C284 1.367 . S
C285 C293 1.433 . S
C286 H282 0.929 . S
C286 C288 1.378 . S
C286 C290 1.350 . S
C287 C290 1.463 . S
C287 C292 1.350 . S
C287 N295 1.427 . S
C288 H279 0.930 . S
C288 C286 1.378 . S
C288 C289 1.367 . S
C289 C288 1.367 . S
C289 C291 1.433 . S
C290 C286 1.350 . S
C290 C287 1.463 . S
C290 N294 1.427 . S
C291 H281 0.929 . S
C291 C289 1.433 . S
C291 N294 1.384 . S
C292 H283 0.929 . S
C292 C284 1.378 . S
C292 C287 1.350 . S
C293 H280 0.929 . S
C293 C285 1.433 . S
C293 N295 1.384 . S
N294 C290 1.427 . S
N294 C291 1.384 . S
N295 C287 1.427 . S
N295 C293 1.384 . S
H296 C302 0.930 . S
H297 C306 0.930 . S
H298 C311 0.929 . S
H299 C309 0.929 . S
H300 C304 0.929 . S
H301 C310 0.929 . S
C302 H296 0.930 . S
C302 C303 1.367 . S
C302 C310 1.378 . S
C303 C302 1.367 . S
C303 C311 1.433 . S
C304 H300 0.929 . S
C304 C306 1.378 . S
C304 C308 1.350 . S
C305 C308 1.463 . S
C305 C310 1.350 . S
C305 N313 1.427 . S
C306 H297 0.930 . S
C306 C304 1.378 . S
C306 C307 1.367 . S
C307 C306 1.367 . S
C307 C309 1.433 . S
C308 C304 1.350 . S
C308 C305 1.463 . S
C308 N312 1.427 . S
C309 H299 0.929 . S
C309 C307 1.433 . S
C309 N312 1.384 . S
C310 H301 0.929 . S
C310 C302 1.378 . S
C310 C305 1.350 . S
C311 H298 0.929 . S
C311 C303 1.433 . S
C311 N313 1.384 . S
N312 C308 1.427 . S
N312 C309 1.384 . S
N313 C305 1.427 . S
N313 C311 1.384 . S
H314 C320 0.930 . S
H315 C324 0.930 . S
H316 C329 0.929 . S
H317 C327 0.929 . S
H318 C322 0.929 . S
H319 C328 0.929 . S
C320 H314 0.930 . S
C320 C321 1.367 . S
C320 C328 1.378 . S
C321 C320 1.367 . S
C321 C329 1.433 . S
C322 H318 0.929 . S
C322 C324 1.378 . S
C322 C326 1.350 . S
C323 C326 1.463 . S
C323 C328 1.350 . S
C323 N331 1.427 . S
C324 H315 0.930 . S
C324 C322 1.378 . S
C324 C325 1.367 . S
C325 C324 1.367 . S
C325 C327 1.433 . S
C326 C322 1.350 . S
C326 C323 1.463 . S
C326 N330 1.427 . S
C327 H317 0.929 . S
C327 C325 1.433 . S
C327 N330 1.384 . S
C328 H319 0.929 . S
C328 C320 1.378 . S
C328 C323 1.350 . S
C329 H316 0.929 . S
C329 C321 1.433 . S
C329 N331 1.384 . S
N330 C326 1.427 . S
N330 C327 1.384 . S
N331 C323 1.427 . S
N331 C329 1.384 . S
H332 C338 0.930 . S
H333 C342 0.930 . S
H334 C347 0.929 . S
H335 C345 0.929 . S
H336 C340 0.929 . S
H337 C346 0.929 . S
C338 H332 0.930 . S
C338 C339 1.367 . S
C338 C346 1.378 . S
C339 C338 1.367 . S
C339 C347 1.433 . S
C340 H336 0.929 . S
C340 C342 1.378 . S
C340 C344 1.350 . S
C341 C344 1.463 . S
C341 C346 1.350 . S
C341 N349 1.427 . S
C342 H333 0.930 . S
C342 C340 1.378 . S
C342 C343 1.367 . S
C343 C342 1.367 . S
C343 C345 1.433 . S
C344 C340 1.350 . S
C344 C341 1.463 . S
C344 N348 1.427 . S
C345 H335 0.929 . S
C345 C343 1.433 . S
C345 N348 1.384 . S
C346 H337 0.929 . S
C346 C338 1.378 . S
C346 C341 1.350 . S
C347 H334 0.929 . S
C347 C339 1.433 . S
C347 N349 1.384 . S
N348 C344 1.427 . S
N348 C345 1.384 . S
N349 C341 1.427 . S
N349 C347 1.384 . S
H350 C356 0.930 . S
H351 C360 0.930 . S
H352 C365 0.929 . S
H353 C363 0.929 . S
H354 C358 0.929 . S
H355 C364 0.929 . S
C356 H350 0.930 . S
C356 C357 1.367 . S
C356 C364 1.378 . S
C357 C356 1.367 . S
C357 C365 1.433 . S
C358 H354 0.929 . S
C358 C360 1.378 . S
C358 C362 1.350 . S
C359 C362 1.463 . S
C359 C364 1.350 . S
C359 N367 1.427 . S
C360 H351 0.930 . S
C360 C358 1.378 . S
C360 C361 1.367 . S
C361 C360 1.367 . S
C361 C363 1.433 . S
C362 C358 1.350 . S
C362 C359 1.463 . S
C362 N366 1.427 . S
C363 H353 0.929 . S
C363 C361 1.433 . S
C363 N366 1.384 . S
C364 H355 0.929 . S
C364 C356 1.378 . S
C364 C359 1.350 . S
C365 H352 0.929 . S
C365 C357 1.433 . S
C365 N367 1.384 . S
N366 C362 1.427 . S
N366 C363 1.384 . S
N367 C359 1.427 . S
N367 C365 1.384 . S
H368 C374 0.930 . S
H369 C378 0.930 . S
H370 C383 0.929 . S
H371 C381 0.929 . S
H372 C376 0.929 . S
H373 C382 0.929 . S
C374 H368 0.930 . S
C374 C375 1.367 . S
C374 C382 1.378 . S
C375 C374 1.367 . S
C375 C383 1.433 . S
C376 H372 0.929 . S
C376 C378 1.378 . S
C376 C380 1.350 . S
C377 C380 1.463 . S
C377 C382 1.350 . S
C377 N385 1.427 . S
C378 H369 0.930 . S
C378 C376 1.378 . S
C378 C379 1.367 . S
C379 C378 1.367 . S
C379 C381 1.433 . S
C380 C376 1.350 . S
C380 C377 1.463 . S
C380 N384 1.427 . S
C381 H371 0.929 . S
C381 C379 1.433 . S
C381 N384 1.384 . S
C382 H373 0.929 . S
C382 C374 1.378 . S
C382 C377 1.350 . S
C383 H370 0.929 . S
C383 C375 1.433 . S
C383 N385 1.384 . S
N384 C380 1.427 . S
N384 C381 1.384 . S
N385 C377 1.427 . S
N385 C383 1.384 . S
H386 C392 0.930 . S
H387 C396 0.930 . S
H388 C401 0.929 . S
H389 C399 0.929 . S
H390 C394 0.929 . S
H391 C400 0.929 . S
C392 H386 0.930 . S
C392 C393 1.367 . S
C392 C400 1.378 . S
C393 C392 1.367 . S
C393 C401 1.433 . S
C394 H390 0.929 . S
C394 C396 1.378 . S
C394 C398 1.350 . S
C395 C398 1.463 . S
C395 C400 1.350 . S
C395 N403 1.427 . S
C396 H387 0.930 . S
C396 C394 1.378 . S
C396 C397 1.367 . S
C397 C396 1.367 . S
C397 C399 1.433 . S
C398 C394 1.350 . S
C398 C395 1.463 . S
C398 N402 1.427 . S
C399 H389 0.929 . S
C399 C397 1.433 . S
C399 N402 1.384 . S
C400 H391 0.929 . S
C400 C392 1.378 . S
C400 C395 1.350 . S
C401 H388 0.929 . S
C401 C393 1.433 . S
C401 N403 1.384 . S
N402 C398 1.427 . S
N402 C399 1.384 . S
N403 C395 1.427 . S
N403 C401 1.384 . S
H404 C410 0.930 . S
H405 C414 0.930 . S
H406 C419 0.929 . S
H407 C417 0.929 . S
H408 C412 0.929 . S
H409 C418 0.929 . S
C410 H404 0.930 . S
C410 C411 1.367 . S
C410 C418 1.378 . S
C411 C410 1.367 . S
C411 C419 1.433 . S
C412 H408 0.929 . S
C412 C414 1.378 . S
C412 C416 1.350 . S
C413 C416 1.463 . S
C413 C418 1.350 . S
C413 N421 1.427 . S
C414 H405 0.930 . S
C414 C412 1.378 . S
C414 C415 1.367 . S
C415 C414 1.367 . S
C415 C417 1.433 . S
C416 C412 1.350 . S
C416 C413 1.463 . S
C416 N420 1.427 . S
C417 H407 0.929 . S
C417 C415 1.433 . S
C417 N420 1.384 . S
C418 H409 0.929 . S
C418 C410 1.378 . S
C418 C413 1.350 . S
C419 H406 0.929 . S
C419 C411 1.433 . S
C419 N421 1.384 . S
N420 C416 1.427 . S
N420 C417 1.384 . S
N421 C413 1.427 . S
N421 C419 1.384 . S
H422 C428 0.930 . S
H423 C432 0.930 . S
H424 C437 0.929 . S
H425 C435 0.929 . S
H426 C430 0.929 . S
H427 C436 0.929 . S
C428 H422 0.930 . S
C428 C429 1.367 . S
C428 C436 1.378 . S
C429 C428 1.367 . S
C429 C437 1.433 . S
C430 H426 0.929 . S
C430 C432 1.378 . S
C430 C434 1.350 . S
C431 C434 1.463 . S
C431 C436 1.350 . S
C431 N439 1.427 . S
C432 H423 0.930 . S
C432 C430 1.378 . S
C432 C433 1.367 . S
C433 C432 1.367 . S
C433 C435 1.433 . S
C434 C430 1.350 . S
C434 C431 1.463 . S
C434 N438 1.427 . S
C435 H425 0.929 . S
C435 C433 1.433 . S
C435 N438 1.384 . S
C436 H427 0.929 . S
C436 C428 1.378 . S
C436 C431 1.350 . S
C437 H424 0.929 . S
C437 C429 1.433 . S
C437 N439 1.384 . S
N438 C434 1.427 . S
N438 C435 1.384 . S
N439 C431 1.427 . S
N439 C437 1.384 . S
H440 C446 0.930 . S
H441 C450 0.930 . S
H442 C455 0.929 . S
H443 C453 0.929 . S
H444 C448 0.929 . S
H445 C454 0.929 . S
C446 H440 0.930 . S
C446 C447 1.367 . S
C446 C454 1.378 . S
C447 C446 1.367 . S
C447 C455 1.433 . S
C448 H444 0.929 . S
C448 C450 1.378 . S
C448 C452 1.350 . S
C449 C452 1.463 . S
C449 C454 1.350 . S
C449 N457 1.427 . S
C450 H441 0.930 . S
C450 C448 1.378 . S
C450 C451 1.367 . S
C451 C450 1.367 . S
C451 C453 1.433 . S
C452 C448 1.350 . S
C452 C449 1.463 . S
C452 N456 1.427 . S
C453 H443 0.929 . S
C453 C451 1.433 . S
C453 N456 1.384 . S
C454 H445 0.929 . S
C454 C446 1.378 . S
C454 C449 1.350 . S
C455 H442 0.929 . S
C455 C447 1.433 . S
C455 N457 1.384 . S
N456 C452 1.427 . S
N456 C453 1.384 . S
N457 C449 1.427 . S
N457 C455 1.384 . S
H458 C464 0.930 . S
H459 C468 0.930 . S
H460 C473 0.929 . S
H461 C471 0.929 . S
H462 C466 0.929 . S
H463 C472 0.929 . S
C464 H458 0.930 . S
C464 C465 1.367 . S
C464 C472 1.378 . S
C465 C464 1.367 . S
C465 C473 1.433 . S
C466 H462 0.929 . S
C466 C468 1.378 . S
C466 C470 1.350 . S
C467 C470 1.463 . S
C467 C472 1.350 . S
C467 N475 1.427 . S
C468 H459 0.930 . S
C468 C466 1.378 . S
C468 C469 1.367 . S
C469 C468 1.367 . S
C469 C471 1.433 . S
C470 C466 1.350 . S
C470 C467 1.463 . S
C470 N474 1.427 . S
C471 H461 0.929 . S
C471 C469 1.433 . S
C471 N474 1.384 . S
C472 H463 0.929 . S
C472 C464 1.378 . S
C472 C467 1.350 . S
C473 H460 0.929 . S
C473 C465 1.433 . S
C473 N475 1.384 . S
N474 C470 1.427 . S
N474 C471 1.384 . S
N475 C467 1.427 . S
N475 C473 1.384 . S
H476 C482 0.930 . S
H477 C486 0.930 . S
H478 C491 0.929 . S
H479 C489 0.929 . S
H480 C484 0.929 . S
H481 C490 0.929 . S
C482 H476 0.930 . S
C482 C483 1.367 . S
C482 C490 1.378 . S
C483 C482 1.367 . S
C483 C491 1.433 . S
C484 H480 0.929 . S
C484 C486 1.378 . S
C484 C488 1.350 . S
C485 C488 1.463 . S
C485 C490 1.350 . S
C485 N493 1.427 . S
C486 H477 0.930 . S
C486 C484 1.378 . S
C486 C487 1.367 . S
C487 C486 1.367 . S
C487 C489 1.433 . S
C488 C484 1.350 . S
C488 C485 1.463 . S
C488 N492 1.427 . S
C489 H479 0.929 . S
C489 C487 1.433 . S
C489 N492 1.384 . S
C490 H481 0.929 . S
C490 C482 1.378 . S
C490 C485 1.350 . S
C491 H478 0.929 . S
C491 C483 1.433 . S
C491 N493 1.384 . S
N492 C488 1.427 . S
N492 C489 1.384 . S
N493 C485 1.427 . S
N493 C491 1.384 . S
H494 C500 0.930 . S
H495 C504 0.930 . S
H496 C509 0.929 . S
H497 C507 0.929 . S
H498 C502 0.929 . S
H499 C508 0.929 . S
C500 H494 0.930 . S
C500 C501 1.367 . S
C500 C508 1.378 . S
C501 C500 1.367 . S
C501 C509 1.433 . S
C502 H498 0.929 . S
C502 C504 1.378 . S
C502 C506 1.350 . S
C503 C506 1.463 . S
C503 C508 1.350 . S
C503 N511 1.427 . S
C504 H495 0.930 . S
C504 C502 1.378 . S
C504 C505 1.367 . S
C505 C504 1.367 . S
C505 C507 1.433 . S
C506 C502 1.350 . S
C506 C503 1.463 . S
C506 N510 1.427 . S
C507 H497 0.929 . S
C507 C505 1.433 . S
C507 N510 1.384 . S
C508 H499 0.929 . S
C508 C500 1.378 . S
C508 C503 1.350 . S
C509 H496 0.929 . S
C509 C501 1.433 . S
C509 N511 1.384 . S
N510 C506 1.427 . S
N510 C507 1.384 . S
N511 C503 1.427 . S
N511 C509 1.384 . S
H512 C518 0.930 . S
H513 C522 0.930 . S
H514 C527 0.929 . S
H515 C525 0.929 . S
H516 C520 0.929 . S
H517 C526 0.929 . S
C518 H512 0.930 . S
C518 C519 1.367 . S
C518 C526 1.378 . S
C519 C518 1.367 . S
C519 C527 1.433 . S
C520 H516 0.929 . S
C520 C522 1.378 . S
C520 C524 1.350 . S
C521 C524 1.463 . S
C521 C526 1.350 . S
C521 N529 1.427 . S
C522 H513 0.930 . S
C522 C520 1.378 . S
C522 C523 1.367 . S
C523 C522 1.367 . S
C523 C525 1.433 . S
C524 C520 1.350 . S
C524 C521 1.463 . S
C524 N528 1.427 . S
C525 H515 0.929 . S
C525 C523 1.433 . S
C525 N528 1.384 . S
C526 H517 0.929 . S
C526 C518 1.378 . S
C526 C521 1.350 . S
C527 H514 0.929 . S
C527 C519 1.433 . S
C527 N529 1.384 . S
N528 C524 1.427 . S
N528 C525 1.384 . S
N529 C521 1.427 . S
N529 C527 1.384 . S
H530 C536 0.930 . S
H531 C540 0.930 . S
H532 C545 0.929 . S
H533 C543 0.929 . S
H534 C538 0.929 . S
H535 C544 0.929 . S
C536 H530 0.930 . S
C536 C537 1.367 . S
C536 C544 1.378 . S
C537 C536 1.367 . S
C537 C545 1.433 . S
C538 H534 0.929 . S
C538 C540 1.378 . S
C538 C542 1.350 . S
C539 C542 1.463 . S
C539 C544 1.350 . S
C539 N547 1.427 . S
C540 H531 0.930 . S
C540 C538 1.378 . S
C540 C541 1.367 . S
C541 C540 1.367 . S
C541 C543 1.433 . S
C542 C538 1.350 . S
C542 C539 1.463 . S
C542 N546 1.427 . S
C543 H533 0.929 . S
C543 C541 1.433 . S
C543 N546 1.384 . S
C544 H535 0.929 . S
C544 C536 1.378 . S
C544 C539 1.350 . S
C545 H532 0.929 . S
C545 C537 1.433 . S
C545 N547 1.384 . S
N546 C542 1.427 . S
N546 C543 1.384 . S
N547 C539 1.427 . S
N547 C545 1.384 . S
H548 C554 0.930 . S
H549 C558 0.930 . S
H550 C563 0.929 . S
H551 C561 0.929 . S
H552 C556 0.929 . S
H553 C562 0.929 . S
C554 H548 0.930 . S
C554 C555 1.367 . S
C554 C562 1.378 . S
C555 C554 1.367 . S
C555 C563 1.433 . S
C556 H552 0.929 . S
C556 C558 1.378 . S
C556 C560 1.350 . S
C557 C560 1.463 . S
C557 C562 1.350 . S
C557 N565 1.427 . S
C558 H549 0.930 . S
C558 C556 1.378 . S
C558 C559 1.367 . S
C559 C558 1.367 . S
C559 C561 1.433 . S
C560 C556 1.350 . S
C560 C557 1.463 . S
C560 N564 1.427 . S
C561 H551 0.929 . S
C561 C559 1.433 . S
C561 N564 1.384 . S
C562 H553 0.929 . S
C562 C554 1.378 . S
C562 C557 1.350 . S
C563 H550 0.929 . S
C563 C555 1.433 . S
C563 N565 1.384 . S
N564 C560 1.427 . S
N564 C561 1.384 . S
N565 C557 1.427 . S
N565 C563 1.384 . S
H566 C572 0.930 . S
H567 C576 0.930 . S
H568 C581 0.929 . S
H569 C579 0.929 . S
H570 C574 0.929 . S
H571 C580 0.929 . S
C572 H566 0.930 . S
C572 C573 1.367 . S
C572 C580 1.378 . S
C573 C572 1.367 . S
C573 C581 1.433 . S
C574 H570 0.929 . S
C574 C576 1.378 . S
C574 C578 1.350 . S
C575 C578 1.463 . S
C575 C580 1.350 . S
C575 N583 1.427 . S
C576 H567 0.930 . S
C576 C574 1.378 . S
C576 C577 1.367 . S
C577 C576 1.367 . S
C577 C579 1.433 . S
C578 C574 1.350 . S
C578 C575 1.463 . S
C578 N582 1.427 . S
C579 H569 0.929 . S
C579 C577 1.433 . S
C579 N582 1.384 . S
C580 H571 0.929 . S
C580 C572 1.378 . S
C580 C575 1.350 . S
C581 H568 0.929 . S
C581 C573 1.433 . S
C581 N583 1.384 . S
N582 C578 1.427 . S
N582 C579 1.384 . S
N583 C575 1.427 . S
N583 C581 1.384 . S
H584 C590 0.930 . S
H585 C594 0.930 . S
H586 C599 0.929 . S
H587 C597 0.929 . S
H588 C592 0.929 . S
H589 C598 0.929 . S
C590 H584 0.930 . S
C590 C591 1.367 . S
C590 C598 1.378 . S
C591 C590 1.367 . S
C591 C599 1.433 . S
C592 H588 0.929 . S
C592 C594 1.378 . S
C592 C596 1.350 . S
C593 C596 1.463 . S
C593 C598 1.350 . S
C593 N601 1.427 . S
C594 H585 0.930 . S
C594 C592 1.378 . S
C594 C595 1.367 . S
C595 C594 1.367 . S
C595 C597 1.433 . S
C596 C592 1.350 . S
C596 C593 1.463 . S
C596 N600 1.427 . S
C597 H587 0.929 . S
C597 C595 1.433 . S
C597 N600 1.384 . S
C598 H589 0.929 . S
C598 C590 1.378 . S
C598 C593 1.350 . S
C599 H586 0.929 . S
C599 C591 1.433 . S
C599 N601 1.384 . S
N600 C596 1.427 . S
N600 C597 1.384 . S
N601 C593 1.427 . S
N601 C599 1.384 . S
H602 C608 0.930 . S
H603 C612 0.930 . S
H604 C617 0.929 . S
H605 C615 0.929 . S
H606 C610 0.929 . S
H607 C616 0.929 . S
C608 H602 0.930 . S
C608 C609 1.367 . S
C608 C616 1.378 . S
C609 C608 1.367 . S
C609 C617 1.433 . S
C610 H606 0.929 . S
C610 C612 1.378 . S
C610 C614 1.350 . S
C611 C614 1.463 . S
C611 C616 1.350 . S
C611 N619 1.427 . S
C612 H603 0.930 . S
C612 C610 1.378 . S
C612 C613 1.367 . S
C613 C612 1.367 . S
C613 C615 1.433 . S
C614 C610 1.350 . S
C614 C611 1.463 . S
C614 N618 1.427 . S
C615 H605 0.929 . S
C615 C613 1.433 . S
C615 N618 1.384 . S
C616 H607 0.929 . S
C616 C608 1.378 . S
C616 C611 1.350 . S
C617 H604 0.929 . S
C617 C609 1.433 . S
C617 N619 1.384 . S
N618 C614 1.427 . S
N618 C615 1.384 . S
N619 C611 1.427 . S
N619 C617 1.384 . S
H620 C626 0.930 . S
H621 C630 0.930 . S
H622 C635 0.929 . S
H623 C633 0.929 . S
H624 C628 0.929 . S
H625 C634 0.929 . S
C626 H620 0.930 . S
C626 C627 1.367 . S
C626 C634 1.378 . S
C627 C626 1.367 . S
C627 C635 1.433 . S
C628 H624 0.929 . S
C628 C630 1.378 . S
C628 C632 1.350 . S
C629 C632 1.463 . S
C629 C634 1.350 . S
C629 N637 1.427 . S
C630 H621 0.930 . S
C630 C628 1.378 . S
C630 C631 1.367 . S
C631 C630 1.367 . S
C631 C633 1.433 . S
C632 C628 1.350 . S
C632 C629 1.463 . S
C632 N636 1.427 . S
C633 H623 0.929 . S
C633 C631 1.433 . S
C633 N636 1.384 . S
C634 H625 0.929 . S
C634 C626 1.378 . S
C634 C629 1.350 . S
C635 H622 0.929 . S
C635 C627 1.433 . S
C635 N637 1.384 . S
N636 C632 1.427 . S
N636 C633 1.384 . S
N637 C629 1.427 . S
N637 C635 1.384 . S
H638 C644 0.930 . S
H639 C648 0.930 . S
H640 C653 0.929 . S
H641 C651 0.929 . S
H642 C646 0.929 . S
H643 C652 0.929 . S
C644 H638 0.930 . S
C644 C645 1.367 . S
C644 C652 1.378 . S
C645 C644 1.367 . S
C645 C653 1.433 . S
C646 H642 0.929 . S
C646 C648 1.378 . S
C646 C650 1.350 . S
C647 C650 1.463 . S
C647 C652 1.350 . S
C647 N655 1.427 . S
C648 H639 0.930 . S
C648 C646 1.378 . S
C648 C649 1.367 . S
C649 C648 1.367 . S
C649 C651 1.433 . S
C650 C646 1.350 . S
C650 C647 1.463 . S
C650 N654 1.427 . S
C651 H641 0.929 . S
C651 C649 1.433 . S
C651 N654 1.384 . S
C652 H643 0.929 . S
C652 C644 1.378 . S
C652 C647 1.350 . S
C653 H640 0.929 . S
C653 C645 1.433 . S
C653 N655 1.384 . S
N654 C650 1.427 . S
N654 C651 1.384 . S
N655 C647 1.427 . S
N655 C653 1.384 . S
H656 C662 0.930 . S
H657 C666 0.930 . S
H658 C671 0.929 . S
H659 C669 0.929 . S
H660 C664 0.929 . S
H661 C670 0.929 . S
C662 H656 0.930 . S
C662 C663 1.367 . S
C662 C670 1.378 . S
C663 C662 1.367 . S
C663 C671 1.433 . S
C664 H660 0.929 . S
C664 C666 1.378 . S
C664 C668 1.350 . S
C665 C668 1.463 . S
C665 C670 1.350 . S
C665 N673 1.427 . S
C666 H657 0.930 . S
C666 C664 1.378 . S
C666 C667 1.367 . S
C667 C666 1.367 . S
C667 C669 1.433 . S
C668 C664 1.350 . S
C668 C665 1.463 . S
C668 N672 1.427 . S
C669 H659 0.929 . S
C669 C667 1.433 . S
C669 N672 1.384 . S
C670 H661 0.929 . S
C670 C662 1.378 . S
C670 C665 1.350 . S
C671 H658 0.929 . S
C671 C663 1.433 . S
C671 N673 1.384 . S
N672 C668 1.427 . S
N672 C669 1.384 . S
N673 C665 1.427 . S
N673 C671 1.384 . S
H674 C680 0.930 . S
H675 C684 0.930 . S
H676 C689 0.929 . S
H677 C687 0.929 . S
H678 C682 0.929 . S
H679 C688 0.929 . S
C680 H674 0.930 . S
C680 C681 1.367 . S
C680 C688 1.378 . S
C681 C680 1.367 . S
C681 C689 1.433 . S
C682 H678 0.929 . S
C682 C684 1.378 . S
C682 C686 1.350 . S
C683 C686 1.463 . S
C683 C688 1.350 . S
C683 N691 1.427 . S
C684 H675 0.930 . S
C684 C682 1.378 . S
C684 C685 1.367 . S
C685 C684 1.367 . S
C685 C687 1.433 . S
C686 C682 1.350 . S
C686 C683 1.463 . S
C686 N690 1.427 . S
C687 H677 0.929 . S
C687 C685 1.433 . S
C687 N690 1.384 . S
C688 H679 0.929 . S
C688 C680 1.378 . S
C688 C683 1.350 . S
C689 H676 0.929 . S
C689 C681 1.433 . S
C689 N691 1.384 . S
N690 C686 1.427 . S
N690 C687 1.384 . S
N691 C683 1.427 . S
N691 C689 1.384 . S
H692 C698 0.930 . S
H693 C702 0.930 . S
H694 C707 0.929 . S
H695 C705 0.929 . S
H696 C700 0.929 . S
H697 C706 0.929 . S
C698 H692 0.930 . S
C698 C699 1.367 . S
C698 C706 1.378 . S
C699 C698 1.367 . S
C699 C707 1.433 . S
C700 H696 0.929 . S
C700 C702 1.378 . S
C700 C704 1.350 . S
C701 C704 1.463 . S
C701 C706 1.350 . S
C701 N709 1.427 . S
C702 H693 0.930 . S
C702 C700 1.378 . S
C702 C703 1.367 . S
C703 C702 1.367 . S
C703 C705 1.433 . S
C704 C700 1.350 . S
C704 C701 1.463 . S
C704 N708 1.427 . S
C705 H695 0.929 . S
C705 C703 1.433 . S
C705 N708 1.384 . S
C706 H697 0.929 . S
C706 C698 1.378 . S
C706 C701 1.350 . S
C707 H694 0.929 . S
C707 C699 1.433 . S
C707 N709 1.384 . S
N708 C704 1.427 . S
N708 C705 1.384 . S
N709 C701 1.427 . S
N709 C707 1.384 . S
H710 C716 0.930 . S
H711 C720 0.930 . S
H712 C725 0.929 . S
H713 C723 0.929 . S
H714 C718 0.929 . S
H715 C724 0.929 . S
C716 H710 0.930 . S
C716 C717 1.367 . S
C716 C724 1.378 . S
C717 C716 1.367 . S
C717 C725 1.433 . S
C718 H714 0.929 . S
C718 C720 1.378 . S
C718 C722 1.350 . S
C719 C722 1.463 . S
C719 C724 1.350 . S
C719 N727 1.427 . S
C720 H711 0.930 . S
C720 C718 1.378 . S
C720 C721 1.367 . S
C721 C720 1.367 . S
C721 C723 1.433 . S
C722 C718 1.350 . S
C722 C719 1.463 . S
C722 N726 1.427 . S
C723 H713 0.929 . S
C723 C721 1.433 . S
C723 N726 1.384 . S
C724 H715 0.929 . S
C724 C716 1.378 . S
C724 C719 1.350 . S
C725 H712 0.929 . S
C725 C717 1.433 . S
C725 N727 1.384 . S
N726 C722 1.427 . S
N726 C723 1.384 . S
N727 C719 1.427 . S
N727 C725 1.384 . S
H728 C734 0.930 . S
H729 C738 0.930 . S
H730 C743 0.929 . S
H731 C741 0.929 . S
H732 C736 0.929 . S
H733 C742 0.929 . S
C734 H728 0.930 . S
C734 C735 1.367 . S
C734 C742 1.378 . S
C735 C734 1.367 . S
C735 C743 1.433 1_545 S
C736 H732 0.929 . S
C736 C738 1.378 . S
C736 C740 1.350 . S
C737 C740 1.463 1_544 S
C737 C742 1.350 . S
C737 N745 1.427 1_545 S
C738 H729 0.930 . S
C738 C736 1.378 . S
C738 C739 1.367 . S
C739 C738 1.367 . S
C739 C741 1.433 1_565 S
C740 C736 1.350 . S
C740 C737 1.463 1_566 S
C740 N744 1.427 1_565 S
C741 H731 0.929 . S
C741 C739 1.433 1_545 S
C741 N744 1.384 . S
C742 H733 0.929 . S
C742 C734 1.378 . S
C742 C737 1.350 . S
C743 H730 0.929 . S
C743 C735 1.433 1_565 S
C743 N745 1.384 . S
N744 C740 1.427 1_545 S
N744 C741 1.384 . S
N745 C737 1.427 1_565 S
N745 C743 1.384 . S
H746 C752 0.930 . S
H747 C756 0.930 . S
H748 C761 0.929 . S
H749 C759 0.929 . S
H750 C754 0.929 . S
H751 C760 0.929 . S
C752 H746 0.930 . S
C752 C753 1.367 . S
C752 C760 1.378 . S
C753 C752 1.367 . S
C753 C761 1.433 . S
C754 H750 0.929 . S
C754 C756 1.378 . S
C754 C758 1.350 . S
C755 C758 1.463 1_456 S
C755 C760 1.350 . S
C755 N763 1.427 1_455 S
C756 H747 0.930 . S
C756 C754 1.378 . S
C756 C757 1.367 . S
C757 C756 1.367 . S
C757 C759 1.433 . S
C758 C754 1.350 . S
C758 C755 1.463 1_654 S
C758 N762 1.427 1_655 S
C759 H749 0.929 . S
C759 C757 1.433 . S
C759 N762 1.384 1_655 S
C760 H751 0.929 . S
C760 C752 1.378 . S
C760 C755 1.350 . S
C761 H748 0.929 . S
C761 C753 1.433 . S
C761 N763 1.384 1_455 S
N762 C758 1.427 1_455 S
N762 C759 1.384 1_455 S
N763 C755 1.427 1_655 S
N763 C761 1.384 1_655 S
H764 C770 0.930 . S
H765 C774 0.930 . S
H766 C779 0.929 . S
H767 C777 0.929 . S
H768 C772 0.929 . S
H769 C778 0.929 . S
C770 H764 0.930 . S
C770 C771 1.367 1_565 S
C770 C778 1.378 . S
C771 C770 1.367 1_545 S
C771 C779 1.433 . S
C772 H768 0.929 . S
C772 C774 1.378 . S
C772 C776 1.350 1_545 S
C773 C776 1.463 1_546 S
C773 C778 1.350 1_545 S
C773 N781 1.427 . S
C774 H765 0.930 . S
C774 C772 1.378 . S
C774 C775 1.367 1_545 S
C775 C774 1.367 1_565 S
C775 C777 1.433 . S
C776 C772 1.350 1_565 S
C776 C773 1.463 1_564 S
C776 N780 1.427 . S
C777 H767 0.929 . S
C777 C775 1.433 . S
C777 N780 1.384 . S
C778 H769 0.929 . S
C778 C770 1.378 . S
C778 C773 1.350 1_565 S
C779 H766 0.929 . S
C779 C771 1.433 . S
C779 N781 1.384 . S
N780 C776 1.427 . S
N780 C777 1.384 . S
N781 C773 1.427 . S
N781 C779 1.384 . S
H782 C788 0.930 . S
H783 C792 0.930 . S
H784 C797 0.929 . S
H785 C795 0.929 . S
H786 C790 0.929 . S
H787 C796 0.929 . S
C788 H782 0.930 . S
C788 C789 1.367 . S
C788 C796 1.378 . S
C789 C788 1.367 . S
C789 C797 1.433 1_655 S
C790 H786 0.929 . S
C790 C792 1.378 . S
C790 C794 1.350 . S
C791 C794 1.463 1_656 S
C791 C796 1.350 . S
C791 N799 1.427 1_655 S
C792 H783 0.930 . S
C792 C790 1.378 . S
C792 C793 1.367 . S
C793 C792 1.367 . S
C793 C795 1.433 1_455 S
C794 C790 1.350 . S
C794 C791 1.463 1_454 S
C794 N798 1.427 1_455 S
C795 H785 0.929 . S
C795 C793 1.433 1_655 S
C795 N798 1.384 . S
C796 H787 0.929 . S
C796 C788 1.378 . S
C796 C791 1.350 . S
C797 H784 0.929 . S
C797 C789 1.433 1_455 S
C797 N799 1.384 . S
N798 C794 1.427 1_655 S
N798 C795 1.384 . S
N799 C791 1.427 1_455 S
N799 C797 1.384 . S
C231 C8 1.261 . S
C235 C106 1.260 . S
C249 C22 1.261 . S
C253 C64 1.260 . S
C267 C78 1.260 . S
C271 C36 1.261 . S
C285 C50 1.261 . S
C289 C92 1.260 . S
C303 C120 1.262 . S
C307 C218 1.259 . S
C321 C176 1.262 . S
C325 C134 1.259 . S
C339 C190 1.259 . S
C343 C148 1.262 . S
C357 C204 1.263 . S
C361 C162 1.258 . S
C375 C9 1.345 . S
C379 C157 1.413 . S
C393 C23 1.358 . S
C397 C115 1.412 . S
C411 C129 1.412 . S
C415 C37 1.358 . S
C429 C51 1.355 . S
C433 C143 1.412 . S
C447 C65 1.358 . S
C451 C185 1.412 . S
C465 C199 1.413 . S
C469 C79 1.357 . S
C483 C93 1.355 . S
C487 C213 1.412 . S
C501 C171 1.412 . S
C505 C107 1.348 . S
C519 C121 1.355 . S
C523 C45 1.413 . S
C537 C3 1.413 . S
C541 C135 1.349 . S
C555 C149 1.353 . S
C559 C17 1.413 . S
C573 C31 1.413 . S
C577 C163 1.348 . S
C591 C177 1.346 . S
C595 C73 1.413 . S
C609 C87 1.412 . S
C613 C191 1.354 . S
C627 C101 1.413 . S
C631 C205 1.343 . S
C645 C59 1.413 . S
C649 C219 1.358 . S
C663 C63 1.582 . S
C667 C7 1.593 . S
C681 C77 1.593 . S
C685 C21 1.581 . S
C699 C35 1.592 . S
C703 C91 1.583 . S
C717 C105 1.582 . S
C721 C49 1.590 . S
C735 C175 1.591 . S
C739 C119 1.584 . S
C753 C189 1.593 . S
C757 C133 1.582 . S
C771 C147 1.589 . S
C775 C203 1.582 . S
C789 C217 1.591 . S
C793 C161 1.585 . S
