# Generated by pormake.
# Topology gis, (4)-cn, num edge types: 1
# Building blocks:
#     Node 0, Type 0, BuildingBlock: TATPOV_clean_sbu_0, # of connection points: 4
#     Node 1, Type 0, BuildingBlock: TATPOV_clean_sbu_0, # of connection points: 4
#     Node 2, Type 0, BuildingBlock: TATPOV_clean_sbu_0, # of connection points: 4
#     Node 3, Type 0, BuildingBlock: TATPOV_clean_sbu_0, # of connection points: 4
#     Node 4, Type 0, BuildingBlock: TATPOV_clean_sbu_0, # of connection points: 4
#     Node 5, Type 0, BuildingBlock: TATPOV_clean_sbu_0, # of connection points: 4
#     Node 6, Type 0, BuildingBlock: TATPOV_clean_sbu_0, # of connection points: 4
#     Node 7, Type 0, BuildingBlock: TATPOV_clean_sbu_0, # of connection points: 4
#     Node 8, Type 0, BuildingBlock: TATPOV_clean_sbu_0, # of connection points: 4
#     Node 9, Type 0, BuildingBlock: TATPOV_clean_sbu_0, # of connection points: 4
#     Node 10, Type 0, BuildingBlock: TATPOV_clean_sbu_0, # of connection points: 4
#     Node 11, Type 0, BuildingBlock: TATPOV_clean_sbu_0, # of connection points: 4
#     Node 12, Type 0, BuildingBlock: TATPOV_clean_sbu_0, # of connection points: 4
#     Node 13, Type 0, BuildingBlock: TATPOV_clean_sbu_0, # of connection points: 4
#     Node 14, Type 0, BuildingBlock: TATPOV_clean_sbu_0, # of connection points: 4
#     Node 15, Type 0, BuildingBlock: TATPOV_clean_sbu_0, # of connection points: 4
#     Edge 16, Type (0, 0), BuildingBlock: XUDNAN_clean_linker_2, # of connection points: 2
#     Edge 17, Type (0, 0), BuildingBlock: XUDNAN_clean_linker_2, # of connection points: 2
#     Edge 18, Type (0, 0), BuildingBlock: XUDNAN_clean_linker_2, # of connection points: 2
#     Edge 19, Type (0, 0), BuildingBlock: XUDNAN_clean_linker_2, # of connection points: 2
#     Edge 20, Type (0, 0), BuildingBlock: XUDNAN_clean_linker_2, # of connection points: 2
#     Edge 21, Type (0, 0), BuildingBlock: XUDNAN_clean_linker_2, # of connection points: 2
#     Edge 22, Type (0, 0), BuildingBlock: XUDNAN_clean_linker_2, # of connection points: 2
#     Edge 23, Type (0, 0), BuildingBlock: XUDNAN_clean_linker_2, # of connection points: 2
#     Edge 24, Type (0, 0), BuildingBlock: XUDNAN_clean_linker_2, # of connection points: 2
#     Edge 25, Type (0, 0), BuildingBlock: XUDNAN_clean_linker_2, # of connection points: 2
#     Edge 26, Type (0, 0), BuildingBlock: XUDNAN_clean_linker_2, # of connection points: 2
#     Edge 27, Type (0, 0), BuildingBlock: XUDNAN_clean_linker_2, # of connection points: 2
#     Edge 28, Type (0, 0), BuildingBlock: XUDNAN_clean_linker_2, # of connection points: 2
#     Edge 29, Type (0, 0), BuildingBlock: XUDNAN_clean_linker_2, # of connection points: 2
#     Edge 30, Type (0, 0), BuildingBlock: XUDNAN_clean_linker_2, # of connection points: 2
#     Edge 31, Type (0, 0), BuildingBlock: XUDNAN_clean_linker_2, # of connection points: 2
#     Edge 32, Type (0, 0), BuildingBlock: XUDNAN_clean_linker_2, # of connection points: 2
#     Edge 33, Type (0, 0), BuildingBlock: XUDNAN_clean_linker_2, # of connection points: 2
#     Edge 34, Type (0, 0), BuildingBlock: XUDNAN_clean_linker_2, # of connection points: 2
#     Edge 35, Type (0, 0), BuildingBlock: XUDNAN_clean_linker_2, # of connection points: 2
#     Edge 36, Type (0, 0), BuildingBlock: XUDNAN_clean_linker_2, # of connection points: 2
#     Edge 37, Type (0, 0), BuildingBlock: XUDNAN_clean_linker_2, # of connection points: 2
#     Edge 38, Type (0, 0), BuildingBlock: XUDNAN_clean_linker_2, # of connection points: 2
#     Edge 39, Type (0, 0), BuildingBlock: XUDNAN_clean_linker_2, # of connection points: 2
#     Edge 40, Type (0, 0), BuildingBlock: XUDNAN_clean_linker_2, # of connection points: 2
#     Edge 41, Type (0, 0), BuildingBlock: XUDNAN_clean_linker_2, # of connection points: 2
#     Edge 42, Type (0, 0), BuildingBlock: XUDNAN_clean_linker_2, # of connection points: 2
#     Edge 43, Type (0, 0), BuildingBlock: XUDNAN_clean_linker_2, # of connection points: 2
#     Edge 44, Type (0, 0), BuildingBlock: XUDNAN_clean_linker_2, # of connection points: 2
#     Edge 45, Type (0, 0), BuildingBlock: XUDNAN_clean_linker_2, # of connection points: 2
#     Edge 46, Type (0, 0), BuildingBlock: XUDNAN_clean_linker_2, # of connection points: 2
#     Edge 47, Type (0, 0), BuildingBlock: XUDNAN_clean_linker_2, # of connection points: 2
# Relax obj value: 0.143
# Max RMSD: 0.161
# Mean RMSD: 0.141
data_MOF--net-gis--node1-TATPOV_clean_sbu_0--edge1-XUDNAN_clean_linker_2
_symmetry_space_group_name_H-M    P1
_symmetry_Int_Tables_number       1
_symmetry_cell_setting            triclinic
loop_
_symmetry_equiv_pos_as_xyz
'x, y, z'
_cell_length_a     46.961924
_cell_length_b     47.038571
_cell_length_c     47.060168
_cell_angle_alpha  91.709854
_cell_angle_beta   91.681579
_cell_angle_gamma 90.023178
loop_
_atom_site_label
_atom_site_type_symbol
_atom_site_fract_x
_atom_site_fract_y
_atom_site_fract_z
_atom_type_partial_charge
Zn0 Zn 0.1392 0.63323 0.04081 0.0
Zn1 Zn 0.15914 0.61755 0.09254 0.0
O2 O 0.17883 0.5923 0.06271 0.0
O3 O 0.16256 0.60338 0.02024 0.0
O4 O 0.17651 0.60102 0.12786 0.0
O5 O 0.15605 0.67218 0.05027 0.0
O6 O 0.16927 0.66012 0.09365 0.0
C7 C 0.1786 0.58839 0.03581 0.0
C8 C 0.09542 0.61488 0.07912 0.0
O9 O 0.11648 0.611 0.09621 0.0
O10 O 0.09951 0.62394 0.05444 0.0
C11 C 0.1726 0.60743 0.15386 0.0
O12 O 0.15554 0.62853 0.16065 0.0
C13 C 0.16691 0.67874 0.07457 0.0
Zn14 Zn 0.66616 0.87824 0.46957 0.0
Zn15 Zn 0.68009 0.90167 0.42025 0.0
O16 O 0.70012 0.92575 0.45196 0.0
O17 O 0.69485 0.903 0.49167 0.0
O18 O 0.69533 0.91862 0.38487 0.0
O19 O 0.67661 0.83903 0.45446 0.0
O20 O 0.68927 0.85907 0.41511 0.0
C21 C 0.70508 0.92357 0.47854 0.0
C22 C 0.61908 0.90545 0.4379 0.0
O23 O 0.63744 0.90912 0.41896 0.0
O24 O 0.6262 0.89395 0.46111 0.0
C25 C 0.68753 0.91024 0.35992 0.0
O26 O 0.66804 0.89025 0.35674 0.0
C27 C 0.6863 0.83688 0.42966 0.0
Zn28 Zn 0.34885 0.40462 0.56539 0.0
Zn29 Zn 0.32826 0.42134 0.61429 0.0
O30 O 0.30963 0.44903 0.58532 0.0
O31 O 0.32298 0.43063 0.54428 0.0
O32 O 0.30923 0.43027 0.6515 0.0
O33 O 0.33761 0.36402 0.5695 0.0
O34 O 0.31887 0.37817 0.60975 0.0
C35 C 0.30922 0.4492 0.55817 0.0
C36 C 0.39139 0.42955 0.60431 0.0
O37 O 0.37095 0.43062 0.62159 0.0
O38 O 0.38723 0.41972 0.57918 0.0
C39 C 0.29955 0.45422 0.65988 0.0
O40 O 0.30264 0.47646 0.64401 0.0
C41 C 0.32397 0.35845 0.59142 0.0
Zn42 Zn 0.86235 0.08598 0.80898 0.0
Zn43 Zn 0.84686 0.06298 0.85879 0.0
O44 O 0.81935 0.04385 0.82976 0.0
O45 O 0.83159 0.06194 0.78925 0.0
O46 O 0.83418 0.04938 0.89639 0.0
O47 O 0.90134 0.06917 0.81628 0.0
O48 O 0.88893 0.05124 0.85686 0.0
C49 C 0.81581 0.04569 0.80296 0.0
C50 C 0.84317 0.12758 0.84955 0.0
O51 O 0.84032 0.10539 0.86397 0.0
O52 O 0.85274 0.12563 0.82467 0.0
C53 C 0.80805 0.05015 0.90282 0.0
O54 O 0.78891 0.05855 0.88397 0.0
C55 C 0.90761 0.05535 0.83831 0.0
Zn56 Zn 0.17949 0.36471 0.93157 0.0
Zn57 Zn 0.18622 0.38668 0.88062 0.0
O58 O 0.20596 0.41428 0.90979 0.0
O59 O 0.20566 0.39357 0.95106 0.0
O60 O 0.19821 0.40164 0.84293 0.0
O61 O 0.19317 0.32597 0.91923 0.0
O62 O 0.19828 0.34447 0.87734 0.0
C63 C 0.21257 0.41435 0.93625 0.0
C64 C 0.127 0.38522 0.90263 0.0
O65 O 0.14293 0.39093 0.88207 0.0
O66 O 0.13766 0.37473 0.92509 0.0
C67 C 0.19842 0.42795 0.83743 0.0
O68 O 0.18903 0.44648 0.85637 0.0
C69 C 0.19969 0.32313 0.89342 0.0
Zn70 Zn 0.84277 0.9094 0.08969 0.0
Zn71 Zn 0.82035 0.93193 0.13663 0.0
O72 O 0.80314 0.95748 0.10521 0.0
O73 O 0.82263 0.9385 0.06696 0.0
O74 O 0.80227 0.94543 0.17308 0.0
O75 O 0.82465 0.87157 0.09533 0.0
O76 O 0.80876 0.88945 0.13554 0.0
C77 C 0.80681 0.95698 0.07845 0.0
C78 C 0.88513 0.93238 0.12915 0.0
O79 O 0.86346 0.93889 0.14375 0.0
O80 O 0.88195 0.91895 0.10555 0.0
C81 C 0.77696 0.93739 0.17755 0.0
O82 O 0.76296 0.92271 0.15748 0.0
C83 C 0.81128 0.86856 0.11798 0.0
Zn84 Zn 0.36385 0.59374 0.30609 0.0
Zn85 Zn 0.34056 0.58353 0.35499 0.0
O86 O 0.3112 0.56961 0.32374 0.0
O87 O 0.33319 0.57346 0.28334 0.0
O88 O 0.32285 0.57012 0.39085 0.0
O89 O 0.39975 0.57363 0.31625 0.0
O90 O 0.38145 0.56599 0.35781 0.0
C91 C 0.31158 0.56625 0.29678 0.0
C92 C 0.34944 0.64457 0.33974 0.0
O93 O 0.34119 0.62697 0.35784 0.0
O94 O 0.35954 0.63563 0.31643 0.0
C95 C 0.31665 0.58488 0.4129 0.0
O96 O 0.32165 0.61237 0.41378 0.0
C97 C 0.40216 0.56375 0.34089 0.0
Zn98 Zn 0.60983 0.11031 0.67993 0.0
Zn99 Zn 0.64123 0.09899 0.63356 0.0
O100 O 0.65737 0.0753 0.66624 0.0
O101 O 0.63171 0.08279 0.70404 0.0
O102 O 0.66582 0.08544 0.60155 0.0
O103 O 0.57531 0.09641 0.6575 0.0
O104 O 0.60063 0.08883 0.61933 0.0
C105 C 0.65212 0.07028 0.69199 0.0
C106 C 0.63859 0.15962 0.65669 0.0
O107 O 0.6477 0.14193 0.63806 0.0
O108 O 0.62299 0.15118 0.67634 0.0
C109 C 0.69217 0.08065 0.60631 0.0
O110 O 0.70365 0.08777 0.6313 0.0
C111 C 0.5768 0.08865 0.6316 0.0
Zn112 Zn 0.87744 0.36125 0.96151 0.0
Zn113 Zn 0.85655 0.38506 0.91359 0.0
O114 O 0.83803 0.40677 0.94719 0.0
O115 O 0.85381 0.38656 0.98621 0.0
O116 O 0.83854 0.40347 0.87914 0.0
O117 O 0.86053 0.32395 0.94806 0.0
O118 O 0.84522 0.34285 0.90807 0.0
C119 C 0.83826 0.40483 0.97417 0.0
C120 C 0.92064 0.38555 0.92623 0.0
O121 O 0.8995 0.39166 0.90996 0.0
O122 O 0.91666 0.37311 0.94932 0.0
C123 C 0.81202 0.40893 0.87936 0.0
O124 O 0.79758 0.4023 0.90172 0.0
C125 C 0.84793 0.32151 0.92398 0.0
Zn126 Zn 0.32625 0.10729 0.54207 0.0
Zn127 Zn 0.32084 0.09123 0.59578 0.0
O128 O 0.29738 0.06185 0.57124 0.0
O129 O 0.29854 0.0775 0.52776 0.0
O130 O 0.31678 0.07854 0.63631 0.0
O131 O 0.31339 0.14652 0.55304 0.0
O132 O 0.30824 0.13361 0.59716 0.0
C133 C 0.29035 0.0592 0.54493 0.0
C134 C 0.37898 0.08923 0.56803 0.0
O135 O 0.36335 0.08659 0.58947 0.0
O136 O 0.36825 0.09744 0.54467 0.0
C137 C 0.31127 0.0529 0.64211 0.0
O138 O 0.30789 0.03379 0.62138 0.0
C139 C 0.30701 0.15269 0.57843 0.0
Zn140 Zn 0.65016 0.5894 0.32982 0.0
Zn141 Zn 0.66685 0.57608 0.38173 0.0
O142 O 0.69747 0.55809 0.35544 0.0
O143 O 0.68034 0.56563 0.31221 0.0
O144 O 0.67755 0.56201 0.42094 0.0
O145 O 0.611 0.57373 0.33381 0.0
O146 O 0.62447 0.56294 0.37728 0.0
C147 C 0.69925 0.55529 0.32849 0.0
C148 C 0.66854 0.63801 0.36527 0.0
O149 O 0.67163 0.61972 0.3846 0.0
O150 O 0.65978 0.63032 0.34049 0.0
C151 C 0.67107 0.53653 0.42647 0.0
O152 O 0.65893 0.52036 0.40633 0.0
C153 C 0.60537 0.5633 0.35745 0.0
Zn154 Zn 0.13893 0.91418 0.18746 0.0
Zn155 Zn 0.14897 0.9404 0.13802 0.0
O156 O 0.17777 0.95879 0.16705 0.0
O157 O 0.1681 0.93916 0.20765 0.0
O158 O 0.15827 0.95968 0.10144 0.0
O159 O 0.09861 0.92806 0.18526 0.0
O160 O 0.1061 0.9484 0.14445 0.0
C161 C 0.18229 0.95652 0.1937 0.0
C162 C 0.15749 0.87582 0.14268 0.0
O163 O 0.15763 0.89858 0.12868 0.0
O164 O 0.15033 0.87657 0.16845 0.0
C165 C 0.1842 0.95909 0.09428 0.0
O166 O 0.20294 0.9463 0.11077 0.0
C167 C 0.08957 0.94228 0.16446 0.0
Zn168 Zn 0.8349 0.62524 0.07875 0.0
Zn169 Zn 0.83037 0.60741 0.13158 0.0
O170 O 0.81049 0.577 0.10529 0.0
O171 O 0.81282 0.59238 0.06178 0.0
O172 O 0.8233 0.59282 0.17074 0.0
O173 O 0.81522 0.6615 0.08896 0.0
O174 O 0.81304 0.64797 0.13318 0.0
C175 C 0.80514 0.57364 0.07868 0.0
C176 C 0.88923 0.61346 0.10709 0.0
O177 O 0.87393 0.6071 0.12793 0.0
O178 O 0.87758 0.62182 0.08418 0.0
C179 C 0.82405 0.56641 0.17588 0.0
O180 O 0.8311 0.54819 0.15559 0.0
C181 C 0.80832 0.66653 0.1144 0.0
Zn182 Zn 0.15842 0.07326 0.80535 0.0
Zn183 Zn 0.17509 0.06256 0.85711 0.0
O184 O 0.2056 0.04319 0.83169 0.0
O185 O 0.18595 0.04563 0.7888 0.0
O186 O 0.18388 0.05001 0.89716 0.0
O187 O 0.1182 0.06159 0.81009 0.0
O188 O 0.13267 0.04997 0.85297 0.0
C189 C 0.20604 0.03741 0.80502 0.0
C190 C 0.17944 0.12296 0.83747 0.0
O191 O 0.18093 0.10597 0.85808 0.0
O192 O 0.17112 0.11398 0.81295 0.0
C193 C 0.20823 0.04378 0.90767 0.0
O194 O 0.23081 0.04627 0.8921 0.0
C195 C 0.11293 0.05129 0.83386 0.0
Zn196 Zn 0.62237 0.41407 0.71302 0.0
Zn197 Zn 0.64905 0.43059 0.66768 0.0
O198 O 0.67566 0.44313 0.70181 0.0
O199 O 0.65154 0.43254 0.73943 0.0
O200 O 0.66626 0.44888 0.63373 0.0
O201 O 0.58536 0.43289 0.7029 0.0
O202 O 0.60732 0.44491 0.66447 0.0
C203 C 0.67372 0.44254 0.72878 0.0
C204 C 0.64226 0.36771 0.67555 0.0
O205 O 0.65161 0.38743 0.66032 0.0
O206 O 0.62944 0.37389 0.69826 0.0
C207 C 0.65685 0.44237 0.60875 0.0
O208 O 0.63724 0.42252 0.60545 0.0
C209 C 0.58481 0.44446 0.679 0.0
Zn210 Zn 0.38926 0.90054 0.31715 0.0
Zn211 Zn 0.35979 0.91396 0.36486 0.0
O212 O 0.34227 0.93756 0.33315 0.0
O213 O 0.3648 0.92736 0.29385 0.0
O214 O 0.33602 0.92656 0.39766 0.0
O215 O 0.42494 0.91451 0.33879 0.0
O216 O 0.4008 0.92338 0.3775 0.0
C217 C 0.34563 0.94105 0.30674 0.0
C218 C 0.36097 0.85265 0.34271 0.0
O219 O 0.35282 0.87139 0.36073 0.0
O220 O 0.37625 0.85966 0.32225 0.0
C221 C 0.32913 0.91207 0.41879 0.0
O222 O 0.33878 0.88602 0.42121 0.0
C223 C 0.42434 0.92256 0.36473 0.0
H224 H 0.15758 0.82271 0.16553 0.0
H225 H 0.1743 0.86673 0.0879 0.0
H226 H 0.18437 0.8208 0.06365 0.0
H227 H 0.21177 0.76624 0.15619 0.0
H228 H 0.18922 0.73946 0.17045 0.0
H229 H 0.1863 0.776 0.18269 0.0
H230 H 0.1324 0.77546 0.16918 0.0
H231 H 0.13514 0.73898 0.15703 0.0
H232 H 0.12103 0.76529 0.13338 0.0
H233 H 0.18738 0.77031 0.04641 0.0
H234 H 0.18282 0.71855 0.03728 0.0
H235 H 0.1656 0.707 0.12626 0.0
C236 C 0.16382 0.82277 0.14356 0.0
C237 C 0.16517 0.84838 0.12865 0.0
C238 C 0.17313 0.84744 0.09982 0.0
C239 C 0.17903 0.82145 0.08587 0.0
C240 C 0.17714 0.7966 0.10109 0.0
C241 C 0.16985 0.79702 0.12933 0.0
C242 C 0.16743 0.76714 0.14025 0.0
C243 C 0.19003 0.76191 0.16379 0.0
C244 C 0.1372 0.76139 0.15055 0.0
C245 C 0.17357 0.74984 0.11346 0.0
C246 C 0.1794 0.76728 0.09121 0.0
C247 C 0.18338 0.75641 0.06376 0.0
C248 C 0.18071 0.727 0.05878 0.0
C249 C 0.17422 0.7088 0.08113 0.0
C250 C 0.17131 0.72035 0.10894 0.0
H251 H 0.47807 0.92454 0.3437 0.0
H252 H 0.43202 0.93173 0.42226 0.0
H253 H 0.47766 0.93312 0.44961 0.0
H254 H 0.52906 0.87794 0.36701 0.0
H255 H 0.55828 0.8929 0.34843 0.0
H256 H 0.52242 0.89689 0.33474 0.0
H257 H 0.52857 0.95166 0.33538 0.0
H258 H 0.56466 0.94783 0.34882 0.0
H259 H 0.53999 0.9701 0.36787 0.0
H260 H 0.52754 0.9263 0.46848 0.0
H261 H 0.57836 0.9152 0.47739 0.0
H262 H 0.592 0.9139 0.38655 0.0
C263 C 0.47754 0.92716 0.36662 0.0
C264 C 0.45144 0.92804 0.38082 0.0
C265 C 0.45173 0.93118 0.41087 0.0
C266 C 0.47756 0.93197 0.42661 0.0
C267 C 0.50288 0.93004 0.41196 0.0
C268 C 0.5031 0.92816 0.38261 0.0
C269 C 0.53306 0.92432 0.37209 0.0
C270 C 0.53585 0.89635 0.35455 0.0
C271 C 0.5421 0.95002 0.35503 0.0
C272 C 0.54955 0.92318 0.40013 0.0
C273 C 0.53179 0.92672 0.42288 0.0
C274 C 0.54176 0.92411 0.45086 0.0
C275 C 0.5706 0.91763 0.45569 0.0
C276 C 0.58914 0.91392 0.43267 0.0
C277 C 0.57846 0.91714 0.40459 0.0
H278 H 0.31749 0.31655 0.55077 0.0
H279 H 0.30981 0.3334 0.64132 0.0
H280 H 0.29893 0.28243 0.64787 0.0
H281 H 0.26077 0.26211 0.54345 0.0
H282 H 0.28028 0.24173 0.51748 0.0
H283 H 0.28424 0.27984 0.52002 0.0
H284 H 0.33893 0.27413 0.52687 0.0
H285 H 0.33515 0.23613 0.52436 0.0
H286 H 0.35281 0.2526 0.55514 0.0
H287 H 0.29488 0.22798 0.64458 0.0
H288 H 0.29705 0.17655 0.63166 0.0
H289 H 0.30544 0.19741 0.54308 0.0
C290 C 0.31309 0.30967 0.57196 0.0
C291 C 0.31459 0.32887 0.59556 0.0
C292 C 0.30864 0.31902 0.62292 0.0
C293 C 0.30244 0.29013 0.62681 0.0
C294 C 0.30175 0.27161 0.60305 0.0
C295 C 0.30657 0.2812 0.57611 0.0
C296 C 0.30625 0.25712 0.55416 0.0
C297 C 0.2814 0.2604 0.53251 0.0
C298 C 0.33499 0.25487 0.53928 0.0
C299 C 0.30154 0.23223 0.573 0.0
C300 C 0.29874 0.24083 0.60112 0.0
C301 C 0.29651 0.22109 0.62254 0.0
C302 C 0.29774 0.19191 0.61502 0.0
C303 C 0.30126 0.18286 0.58634 0.0
C304 C 0.30241 0.20346 0.56517 0.0
H305 H 0.06808 0.04787 0.79601 0.0
H306 H 0.09073 0.03663 0.88502 0.0
H307 H 0.03984 0.0293 0.89509 0.0
H308 H 0.00991 0.08913 0.80671 0.0
H309 H 0.98883 0.0748 0.77701 0.0
H310 H 0.02701 0.07371 0.77609 0.0
H311 H 0.02533 0.01905 0.76725 0.0
H312 H 0.98698 0.01997 0.76798 0.0
H313 H 0.00676 0.99715 0.79148 0.0
H314 H 0.98566 0.02992 0.89617 0.0
H315 H 0.93415 0.03919 0.88824 0.0
H316 H 0.94837 0.05057 0.79862 0.0
C317 C 0.06252 0.04316 0.81754 0.0
C318 C 0.08338 0.04281 0.83972 0.0
C319 C 0.07511 0.03683 0.86763 0.0
C320 C 0.04626 0.03258 0.87354 0.0
C321 C 0.0261 0.03405 0.85123 0.0
C322 C 0.03401 0.03893 0.82373 0.0
C323 C 0.00842 0.04245 0.80396 0.0
C324 C 0.00856 0.07176 0.79017 0.0
C325 C 0.00678 0.01821 0.78133 0.0
C326 C 0.98479 0.04016 0.82482 0.0
C327 C 0.99522 0.03471 0.85189 0.0
C328 C 0.97726 0.03371 0.87496 0.0
C329 C 0.94805 0.039 0.87027 0.0
C330 C 0.93729 0.04564 0.84282 0.0
C331 C 0.95591 0.04549 0.81984 0.0
H332 H 0.19727 0.27222 0.92023 0.0
H333 H 0.21327 0.30887 0.83858 0.0
H334 H 0.21429 0.26073 0.81639 0.0
H335 H 0.24067 0.20625 0.90919 0.0
H336 H 0.2154 0.18491 0.92726 0.0
H337 H 0.22032 0.22186 0.93754 0.0
H338 H 0.16622 0.23041 0.92954 0.0
H339 H 0.16117 0.19368 0.91888 0.0
H340 H 0.1497 0.22129 0.89541 0.0
H341 H 0.20667 0.20995 0.80187 0.0
H342 H 0.19409 0.15923 0.7963 0.0
H343 H 0.18366 0.15496 0.88744 0.0
C344 C 0.20185 0.27014 0.89784 0.0
C345 C 0.20529 0.29438 0.88116 0.0
C346 C 0.21071 0.29067 0.85184 0.0
C347 C 0.21133 0.26339 0.83903 0.0
C348 C 0.20677 0.24005 0.85588 0.0
C349 C 0.20253 0.24307 0.88473 0.0
C350 C 0.19596 0.2147 0.89758 0.0
C351 C 0.2195 0.20644 0.91917 0.0
C352 C 0.16652 0.21506 0.91114 0.0
C353 C 0.19615 0.19541 0.87125 0.0
C354 C 0.20264 0.21047 0.84749 0.0
C355 C 0.20208 0.19782 0.82038 0.0
C356 C 0.1947 0.16903 0.81743 0.0
C357 C 0.188 0.15311 0.84146 0.0
C358 C 0.18907 0.16647 0.86875 0.0
H359 H 0.93345 0.93208 0.09826 0.0
H360 H 0.90262 0.95081 0.18284 0.0
H361 H 0.95195 0.96147 0.19983 0.0
H362 H 0.99495 0.89658 0.1188 0.0
H363 H 0.01678 0.91037 0.09149 0.0
H364 H 0.97891 0.9073 0.08553 0.0
H365 H 0.97609 0.96091 0.07454 0.0
H366 H 0.01406 0.96418 0.08058 0.0
H367 H 0.99019 0.98683 0.10022 0.0
H368 H 0.00479 0.96386 0.20872 0.0
H369 H 0.05715 0.95881 0.20879 0.0
H370 H 0.05339 0.94109 0.11785 0.0
C371 C 0.93697 0.93877 0.1203 0.0
C372 C 0.9142 0.94051 0.13929 0.0
C373 C 0.91973 0.94938 0.16792 0.0
C374 C 0.94765 0.95556 0.17772 0.0
C375 C 0.96964 0.95324 0.15847 0.0
C376 C 0.96455 0.94532 0.13029 0.0
C377 C 0.992 0.94281 0.11429 0.0
C378 C 0.99588 0.91247 0.10181 0.0
C379 C 0.99314 0.96501 0.09103 0.0
C380 C 0.0135 0.94946 0.13812 0.0
C381 C 0.00014 0.95565 0.1634 0.0
C382 C 0.01548 0.95972 0.18896 0.0
C383 C 0.04517 0.95677 0.1888 0.0
C384 C 0.05919 0.95006 0.16324 0.0
C385 C 0.04321 0.9471 0.13749 0.0
H386 H 0.36842 0.68693 0.30674 0.0
H387 H 0.32549 0.67235 0.38549 0.0
H388 H 0.3218 0.72438 0.39409 0.0
H389 H 0.4098 0.74609 0.33219 0.0
H390 H 0.40704 0.76439 0.29912 0.0
H391 H 0.40532 0.72617 0.29904 0.0
H392 H 0.35668 0.72748 0.27155 0.0
H393 H 0.35819 0.76574 0.27164 0.0
H394 H 0.32791 0.74817 0.28598 0.0
H395 H 0.32361 0.77833 0.39406 0.0
H396 H 0.33226 0.82932 0.38642 0.0
H397 H 0.37419 0.80739 0.30771 0.0
C398 C 0.35812 0.69456 0.32579 0.0
C399 C 0.34718 0.67555 0.34543 0.0
C400 C 0.33403 0.68653 0.37015 0.0
C401 C 0.33177 0.71602 0.37516 0.0
C402 C 0.34277 0.73413 0.35526 0.0
C403 C 0.35575 0.72375 0.33112 0.0
C404 C 0.36653 0.74748 0.31334 0.0
C405 C 0.3991 0.74594 0.31079 0.0
C406 C 0.35141 0.74719 0.28389 0.0
C407 C 0.35779 0.77295 0.33131 0.0
C408 C 0.34396 0.7649 0.35532 0.0
C409 C 0.33434 0.78486 0.37529 0.0
C410 C 0.33932 0.81377 0.37073 0.0
C411 C 0.3539 0.82237 0.34645 0.0
C412 C 0.36293 0.80158 0.32644 0.0
H413 H 0.52531 0.07669 0.65336 0.0
H414 H 0.56811 0.08523 0.57358 0.0
H415 H 0.52174 0.08049 0.54751 0.0
H416 H 0.46865 0.02615 0.62598 0.0
H417 H 0.44254 0.04273 0.64837 0.0
H418 H 0.47945 0.04195 0.65997 0.0
H419 H 0.47896 0.09681 0.66709 0.0
H420 H 0.44226 0.09783 0.65526 0.0
H421 H 0.46841 0.11857 0.63769 0.0
H422 H 0.47018 0.08237 0.5312 0.0
H423 H 0.41806 0.08834 0.52573 0.0
H424 H 0.40978 0.07797 0.61649 0.0
C425 C 0.52508 0.07686 0.63035 0.0
C426 C 0.55025 0.08138 0.61547 0.0
C427 C 0.54905 0.08161 0.58538 0.0
C428 C 0.52283 0.07894 0.57041 0.0
C429 C 0.49824 0.07558 0.58589 0.0
C430 C 0.49925 0.07409 0.61519 0.0
C431 C 0.46977 0.07281 0.62714 0.0
C432 C 0.46482 0.0442 0.64119 0.0
C433 C 0.46456 0.09801 0.648 0.0
C434 C 0.4519 0.07517 0.60012 0.0
C435 C 0.46863 0.07638 0.57649 0.0
C436 C 0.45685 0.08087 0.54948 0.0
C437 C 0.42725 0.08439 0.54662 0.0
C438 C 0.40985 0.08353 0.57069 0.0
C439 C 0.42243 0.0784 0.59763 0.0
H440 H 0.85254 0.18068 0.82846 0.0
H441 H 0.81774 0.13774 0.9002 0.0
H442 H 0.80886 0.18401 0.92394 0.0
H443 H 0.88979 0.23228 0.86784 0.0
H444 H 0.88318 0.26088 0.84388 0.0
H445 H 0.88306 0.22469 0.83047 0.0
H446 H 0.83214 0.23151 0.80904 0.0
H447 H 0.8321 0.26782 0.82246 0.0
H448 H 0.80411 0.24385 0.83168 0.0
H449 H 0.81015 0.23331 0.94294 0.0
H450 H 0.82107 0.28345 0.95581 0.0
H451 H 0.85307 0.2957 0.87157 0.0
C452 C 0.84246 0.18105 0.84887 0.0
C453 C 0.83582 0.15557 0.86243 0.0
C454 C 0.82305 0.15694 0.88936 0.0
C455 C 0.81774 0.18314 0.90298 0.0
C456 C 0.82504 0.20782 0.88932 0.0
C457 C 0.83694 0.2071 0.86279 0.0
C458 C 0.84502 0.23671 0.85398 0.0
C459 C 0.87716 0.23874 0.84875 0.0
C460 C 0.82727 0.24549 0.82773 0.0
C461 C 0.8369 0.25396 0.88023 0.0
C462 C 0.8251 0.23683 0.90018 0.0
C463 C 0.81867 0.24712 0.92728 0.0
C464 C 0.825 0.27553 0.93442 0.0
C465 C 0.83738 0.29332 0.91447 0.0
C466 C 0.84276 0.28264 0.88682 0.0
H467 H 0.66936 0.66826 0.41642 0.0
H468 H 0.68457 0.67603 0.32645 0.0
H469 H 0.69603 0.72679 0.33442 0.0
H470 H 0.63385 0.73385 0.42445 0.0
H471 H 0.64817 0.74213 0.45968 0.0
H472 H 0.64438 0.70563 0.44763 0.0
H473 H 0.69804 0.69718 0.45873 0.0
H474 H 0.70201 0.73376 0.47072 0.0
H475 H 0.72418 0.71952 0.4431 0.0
H476 H 0.70316 0.77699 0.35118 0.0
H477 H 0.70186 0.82428 0.3751 0.0
H478 H 0.68059 0.78485 0.45406 0.0
C479 C 0.67556 0.68059 0.39854 0.0
C480 C 0.67621 0.66819 0.37085 0.0
C481 C 0.68386 0.68511 0.34785 0.0
C482 C 0.69061 0.71393 0.35217 0.0
C483 C 0.6895 0.72562 0.37962 0.0
C484 C 0.68199 0.7096 0.40241 0.0
C485 C 0.68009 0.72805 0.42925 0.0
C486 C 0.64982 0.72737 0.44092 0.0
C487 C 0.70241 0.71909 0.45178 0.0
C488 C 0.68708 0.75694 0.41779 0.0
C489 C 0.69294 0.75494 0.38922 0.0
C490 C 0.69884 0.77885 0.37362 0.0
C491 C 0.69809 0.80564 0.38743 0.0
C492 C 0.69117 0.80835 0.41649 0.0
C493 C 0.68618 0.78353 0.4319 0.0
H494 H 0.79188 0.70762 0.07819 0.0
H495 H 0.80224 0.69078 0.168 0.0
H496 H 0.79419 0.74178 0.1795 0.0
H497 H 0.83226 0.76554 0.0793 0.0
H498 H 0.81185 0.78502 0.05334 0.0
H499 H 0.81039 0.74693 0.05264 0.0
H500 H 0.75543 0.74856 0.05628 0.0
H501 H 0.75666 0.78688 0.05672 0.0
H502 H 0.73966 0.76879 0.0849 0.0
H503 H 0.79409 0.79568 0.18036 0.0
H504 H 0.80357 0.8462 0.17043 0.0
H505 H 0.79549 0.82669 0.07998 0.0
C506 C 0.79148 0.7144 0.10037 0.0
C507 C 0.79766 0.69523 0.1222 0.0
C508 C 0.7973 0.70506 0.15092 0.0
C509 C 0.79269 0.734 0.15763 0.0
C510 C 0.78815 0.75264 0.13539 0.0
C511 C 0.78722 0.74305 0.10731 0.0
C512 C 0.78638 0.76738 0.08705 0.0
C513 C 0.81173 0.76613 0.06694 0.0
C514 C 0.75783 0.76793 0.07026 0.0
C515 C 0.78886 0.79223 0.108 0.0
C516 C 0.78893 0.78352 0.13582 0.0
C517 C 0.79347 0.80275 0.15868 0.0
C518 C 0.79885 0.83137 0.15287 0.0
C519 C 0.80032 0.84017 0.12444 0.0
C520 C 0.79439 0.82049 0.10191 0.0
H521 H 0.62312 0.32188 0.70337 0.0
H522 H 0.67005 0.34473 0.62926 0.0
H523 H 0.67604 0.29353 0.61666 0.0
H524 H 0.66453 0.26087 0.72167 0.0
H525 H 0.63407 0.24112 0.73269 0.0
H526 H 0.63416 0.27937 0.7357 0.0
H527 H 0.58712 0.28104 0.70549 0.0
H528 H 0.58682 0.24281 0.70247 0.0
H529 H 0.58535 0.26355 0.67087 0.0
H530 H 0.67588 0.23891 0.6123 0.0
H531 H 0.66866 0.18697 0.61599 0.0
H532 H 0.62201 0.20203 0.69329 0.0
C533 C 0.63477 0.3163 0.68449 0.0
C534 C 0.64617 0.33736 0.66733 0.0
C535 C 0.66114 0.32895 0.64275 0.0
C536 C 0.66468 0.29994 0.63547 0.0
C537 C 0.65313 0.27976 0.65301 0.0
C538 C 0.63845 0.28771 0.67698 0.0
C539 C 0.62752 0.26227 0.69217 0.0
C540 C 0.64088 0.26083 0.72234 0.0
C541 C 0.59477 0.26244 0.69277 0.0
C542 C 0.63825 0.23858 0.67302 0.0
C543 C 0.65304 0.2489 0.65055 0.0
C544 C 0.6644 0.23066 0.62988 0.0
C545 C 0.66024 0.2012 0.63218 0.0
C546 C 0.6448 0.19038 0.65495 0.0
C547 C 0.63399 0.20948 0.67565 0.0
H548 H 0.08863 0.37759 0.94408 0.0
H549 H 0.09486 0.40415 0.85691 0.0
H550 H 0.04247 0.41051 0.85409 0.0
H551 H 0.02641 0.33708 0.93404 0.0
H552 H 0.01225 0.34691 0.96813 0.0
H553 H 0.05014 0.34664 0.96359 0.0
H554 H 0.05316 0.39928 0.98147 0.0
H555 H 0.01521 0.39973 0.98606 0.0
H556 H 0.03147 0.42565 0.96419 0.0
H557 H 0.98854 0.41123 0.86055 0.0
H558 H 0.93871 0.40548 0.87528 0.0
H559 H 0.96948 0.37847 0.95806 0.0
C560 C 0.07914 0.38499 0.92439 0.0
C561 C 0.09589 0.39036 0.9007 0.0
C562 C 0.08246 0.39995 0.87538 0.0
C563 C 0.05274 0.40366 0.8736 0.0
C564 C 0.03688 0.39787 0.89738 0.0
C565 C 0.04973 0.38882 0.9223 0.0
C566 C 0.02813 0.38285 0.94452 0.0
C567 C 0.02931 0.35151 0.95305 0.0
C568 C 0.03224 0.40309 0.9706 0.0
C569 C 0.00093 0.38933 0.92809 0.0
C570 C 0.00628 0.39823 0.90103 0.0
C571 C 0.98417 0.40449 0.88177 0.0
C572 C 0.95594 0.40118 0.89033 0.0
C573 C 0.95015 0.39152 0.91782 0.0
C574 C 0.97308 0.38595 0.93692 0.0
H575 H 0.56514 0.54885 0.31697 0.0
H576 H 0.5789 0.55683 0.40834 0.0
H577 H 0.52738 0.54877 0.41489 0.0
H578 H 0.50525 0.58754 0.31285 0.0
H579 H 0.4876 0.56653 0.28491 0.0
H580 H 0.52576 0.56675 0.28798 0.0
H581 H 0.52605 0.5118 0.29099 0.0
H582 H 0.4877 0.5114 0.28783 0.0
H583 H 0.5055 0.49498 0.31756 0.0
H584 H 0.47313 0.54875 0.41053 0.0
H585 H 0.42276 0.55673 0.39575 0.0
H586 H 0.44572 0.54768 0.30737 0.0
C587 C 0.55749 0.54808 0.33842 0.0
C588 C 0.57597 0.55349 0.36214 0.0
C589 C 0.56512 0.5525 0.38986 0.0
C590 C 0.53589 0.5479 0.39376 0.0
C591 C 0.518 0.54376 0.36975 0.0
C592 C 0.5286 0.54335 0.34262 0.0
C593 C 0.50499 0.54162 0.32013 0.0
C594 C 0.50597 0.56713 0.30034 0.0
C595 C 0.50613 0.51325 0.30313 0.0
C596 C 0.4793 0.54289 0.3387 0.0
C597 C 0.48704 0.5435 0.36728 0.0
C598 C 0.46683 0.5476 0.38822 0.0
C599 C 0.43824 0.55207 0.37965 0.0
C600 C 0.43031 0.55278 0.35041 0.0
C601 C 0.45104 0.54705 0.32989 0.0
H602 H 0.53186 0.43977 0.70146 0.0
H603 H 0.57508 0.46779 0.62692 0.0
H604 H 0.52865 0.47327 0.60189 0.0
H605 H 0.48365 0.39711 0.66652 0.0
H606 H 0.45382 0.40475 0.68875 0.0
H607 H 0.48954 0.40862 0.70311 0.0
H608 H 0.47945 0.46102 0.71798 0.0
H609 H 0.44344 0.45724 0.70401 0.0
H610 H 0.46591 0.48518 0.69183 0.0
H611 H 0.47942 0.46702 0.58218 0.0
H612 H 0.42999 0.45268 0.56996 0.0
H613 H 0.41777 0.42966 0.65734 0.0
C614 C 0.53155 0.44805 0.68024 0.0
C615 C 0.55717 0.45345 0.66621 0.0
C616 C 0.5558 0.46369 0.6382 0.0
C617 C 0.52949 0.46688 0.6238 0.0
C618 C 0.50474 0.4601 0.6378 0.0
C619 C 0.50546 0.45135 0.66557 0.0
C620 C 0.47609 0.44262 0.67474 0.0
C621 C 0.47578 0.41143 0.68379 0.0
C622 C 0.46561 0.46272 0.69855 0.0
C623 C 0.45899 0.44646 0.64733 0.0
C624 C 0.47591 0.45689 0.62642 0.0
C625 C 0.46579 0.45953 0.59854 0.0
C626 C 0.43775 0.45112 0.59177 0.0
C627 C 0.42005 0.44028 0.61278 0.0
C628 C 0.43067 0.43845 0.64104 0.0
H629 H 0.04583 0.62368 0.04875 0.0
H630 H 0.0783 0.59632 0.13083 0.0
H631 H 0.02893 0.59183 0.14707 0.0
H632 H 0.98981 0.66613 0.0748 0.0
H633 H 0.96529 0.65693 0.0458 0.0
H634 H 0.00305 0.65637 0.04029 0.0
H635 H -0.00041 0.60384 0.02218 0.0
H636 H 0.96177 0.60428 0.02746 0.0
H637 H 0.98373 0.57777 0.04418 0.0
H638 H 0.9754 0.5922 0.15472 0.0
H639 H 0.92282 0.59666 0.15263 0.0
H640 H 0.92681 0.62419 0.06557 0.0
C641 C 0.04266 0.61645 0.07006 0.0
C642 C 0.06598 0.61029 0.08847 0.0
C643 C 0.06078 0.60109 0.11628 0.0
C644 C 0.03281 0.59849 0.12571 0.0
C645 C 0.01033 0.60514 0.10708 0.0
C646 C 0.01503 0.61381 0.07979 0.0
C647 C 0.98742 0.62045 0.06409 0.0
C648 C 0.98634 0.65183 0.05577 0.0
C649 C 0.98286 0.60038 0.03794 0.0
C650 C 0.9664 0.6144 0.08685 0.0
C651 C 0.97989 0.6055 0.11149 0.0
C652 C 0.96462 0.59905 0.13547 0.0
C653 C 0.93479 0.60169 0.13411 0.0
C654 C 0.92064 0.61079 0.10897 0.0
C655 C 0.93685 0.61718 0.08515 0.0
H656 H 0.17967 0.57098 0.97973 0.0
H657 H 0.2148 0.55199 0.06335 0.0
H658 H 0.23717 0.50877 0.04336 0.0
H659 H 0.15886 0.50456 0.96129 0.0
H660 H 0.16723 0.50552 0.92419 0.0
H661 H 0.15969 0.53797 0.94349 0.0
H662 H 0.20829 0.55864 0.92938 0.0
H663 H 0.21603 0.526 0.91004 0.0
H664 H 0.24061 0.53942 0.93738 0.0
H665 H 0.2467 0.4634 0.01723 0.0
H666 H 0.24219 0.41971 0.98704 0.0
H667 H 0.20297 0.46841 0.91968 0.0
C668 C 0.19286 0.55825 0.99366 0.0
C669 C 0.19549 0.56493 0.02309 0.0
C670 C 0.21251 0.5474 0.04071 0.0
C671 C 0.22548 0.52286 0.02951 0.0
C672 C 0.22164 0.51632 0.00057 0.0
C673 C 0.206 0.53371 0.98279 0.0
C674 C 0.20193 0.52011 0.95337 0.0
C675 C 0.17005 0.51684 0.94514 0.0
C676 C 0.21767 0.53706 0.93124 0.0
C677 C 0.21601 0.49158 0.95794 0.0
C678 C 0.22783 0.49005 0.98512 0.0
C679 C 0.23836 0.46457 0.99561 0.0
C680 C 0.2357 0.43985 0.97834 0.0
C681 C 0.22266 0.44082 0.9509 0.0
C682 C 0.21391 0.46724 0.9402 0.0
H683 H 0.6776 0.89538 0.30362 0.0
H684 H 0.73 0.95022 0.35957 0.0
H685 H 0.75611 0.96636 0.31825 0.0
H686 H 0.73201 0.87261 0.25919 0.0
H687 H 0.71042 0.8721 0.22687 0.0
H688 H 0.69411 0.86692 0.26044 0.0
H689 H 0.65975 0.90892 0.2509 0.0
H690 H 0.67598 0.91421 0.21723 0.0
H691 H 0.67413 0.94323 0.24299 0.0
H692 H 0.77941 0.97321 0.27139 0.0
H693 H 0.79751 0.97061 0.22257 0.0
H694 H 0.72924 0.9121 0.19728 0.0
C695 C 0.69426 0.91112 0.30717 0.0
C696 C 0.7017 0.92154 0.33488 0.0
C697 C 0.72384 0.94194 0.33857 0.0
C698 C 0.73878 0.9513 0.31521 0.0
C699 C 0.73121 0.94025 0.28824 0.0
C700 C 0.70934 0.92074 0.28409 0.0
C701 C 0.70636 0.91106 0.25317 0.0
C702 C 0.71101 0.87877 0.24973 0.0
C703 C 0.67733 0.91989 0.24032 0.0
C704 C 0.73042 0.92761 0.24071 0.0
C705 C 0.7444 0.94448 0.26122 0.0
C706 C 0.76839 0.96039 0.25506 0.0
C707 C 0.77854 0.95875 0.22729 0.0
C708 C 0.7647 0.94133 0.20604 0.0
C709 C 0.74008 0.92596 0.21288 0.0
H710 H 0.29391 0.44917 0.50222 0.0
H711 H 0.29915 0.50375 0.57802 0.0
H712 H 0.29278 0.54592 0.54828 0.0
H713 H 0.33634 0.48705 0.46355 0.0
H714 H 0.31803 0.4817 0.42961 0.0
H715 H 0.31451 0.45592 0.4566 0.0
H716 H 0.25959 0.46118 0.45421 0.0
H717 H 0.26282 0.48669 0.42663 0.0
H718 H 0.24381 0.49593 0.45832 0.0
H719 H 0.29696 0.5819 0.5097 0.0
H720 H 0.30873 0.60781 0.4666 0.0
H721 H 0.30159 0.52911 0.41646 0.0
C722 C 0.29244 0.46992 0.51269 0.0
C723 C 0.29692 0.47322 0.54239 0.0
C724 C 0.29534 0.50071 0.55532 0.0
C725 C 0.29184 0.52479 0.53854 0.0
C726 C 0.28946 0.52088 0.50902 0.0
C727 C 0.2891 0.49399 0.49629 0.0
C728 C 0.29032 0.49527 0.46426 0.0
C729 C 0.31634 0.47905 0.45288 0.0
C730 C 0.26247 0.48411 0.45002 0.0
C731 C 0.29331 0.52696 0.46097 0.0
C732 C 0.29213 0.54153 0.48687 0.0
C733 C 0.2972 0.57076 0.48925 0.0
C734 C 0.304 0.58529 0.46466 0.0
C735 C 0.30608 0.57049 0.43813 0.0
C736 C 0.29997 0.5411 0.43635 0.0
H737 H 0.70628 0.05541 0.67926 0.0
H738 H 0.64249 0.046 0.74303 0.0
H739 H 0.67844 0.0244 0.77491 0.0
H740 H 0.75351 0.99151 0.7002 0.0
H741 H 0.78499 0.01196 0.69368 0.0
H742 H 0.75294 0.01704 0.67237 0.0
H743 H 0.75434 0.07089 0.68539 0.0
H744 H 0.78608 0.06606 0.70667 0.0
H745 H 0.75527 0.08232 0.72234 0.0
H746 H 0.722 0.01529 0.80353 0.0
H747 H 0.76883 0.02335 0.82725 0.0
H748 H 0.80517 0.04046 0.74584 0.0
C749 C 0.6996 0.0476 0.69941 0.0
C750 C 0.67164 0.05221 0.70865 0.0
C751 C 0.66383 0.04254 0.73551 0.0
C752 C 0.68407 0.03 0.75366 0.0
C753 C 0.71197 0.02722 0.74458 0.0
C754 C 0.71971 0.03563 0.71793 0.0
C755 C 0.75175 0.03602 0.71535 0.0
C756 C 0.76136 0.01274 0.69415 0.0
C757 C 0.76245 0.06557 0.70699 0.0
C758 C 0.76084 0.02913 0.74547 0.0
C759 C 0.73766 0.02281 0.76165 0.0
C760 C 0.74039 0.01944 0.79095 0.0
C761 C 0.76713 0.0241 0.80428 0.0
C762 C 0.79057 0.03267 0.78835 0.0
C763 C 0.78763 0.03369 0.75847 0.0
H764 H 0.81865 0.45744 0.9603 0.0
H765 H 0.82128 0.39728 0.02834 0.0
H766 H 0.80002 0.43307 0.06054 0.0
H767 H 0.84358 0.5124 0.999 0.0
H768 H 0.82241 0.53984 0.98281 0.0
H769 H 0.82958 0.5076 0.96308 0.0
H770 H 0.77539 0.49928 0.95456 0.0
H771 H 0.76804 0.53168 0.97448 0.0
H772 H 0.75231 0.49862 0.98448 0.0
H773 H 0.78902 0.47704 0.08768 0.0
H774 H 0.79228 0.52587 0.10788 0.0
H775 H 0.79669 0.55828 0.02275 0.0
C776 C 0.81363 0.45151 0.98164 0.0
C777 C 0.82144 0.42464 0.99183 0.0
C778 C 0.81542 0.4178 0.02012 0.0
C779 C 0.80306 0.4379 0.03849 0.0
C780 C 0.79671 0.4647 0.02823 0.0
C781 C 0.80163 0.47151 0.00036 0.0
C782 C 0.79774 0.50303 0.99597 0.0
C783 C 0.82494 0.51648 0.98458 0.0
C784 C 0.77182 0.50846 0.9762 0.0
C785 C 0.79219 0.51315 0.02615 0.0
C786 C 0.79061 0.49062 0.04425 0.0
C787 C 0.78944 0.49485 0.07366 0.0
C788 C 0.79136 0.52271 0.08498 0.0
C789 C 0.79483 0.54589 0.06689 0.0
C790 C 0.7937 0.54104 0.0371 0.0
H791 H 0.21 0.00266 0.75839 0.0
H792 H 0.26028 0.05367 0.81921 0.0
H793 H 0.29921 0.05541 0.78525 0.0
H794 H 0.27507 0.96529 0.72211 0.0
H795 H 0.25614 0.9663 0.68828 0.0
H796 H 0.23689 0.96116 0.72034 0.0
H797 H 0.20496 0.00413 0.70803 0.0
H798 H 0.22446 0.0101 0.6766 0.0
H799 H 0.2212 0.03832 0.70307 0.0
H800 H 0.32375 0.06551 0.74044 0.0
H801 H 0.33657 0.07511 0.69099 0.0
H802 H 0.2727 0.01465 0.65956 0.0
C803 C 0.23 0.01253 0.76516 0.0
C804 C 0.23233 0.02782 0.79137 0.0
C805 C 0.25835 0.04132 0.79944 0.0
C806 C 0.2805 0.04261 0.78013 0.0
C807 C 0.27655 0.02947 0.75331 0.0
C808 C 0.25238 0.01361 0.74624 0.0
C809 C 0.25147 0.0048 0.71498 0.0
C810 C 0.25512 0.97247 0.71121 0.0
C811 C 0.22391 0.01497 0.69982 0.0
C812 C 0.27734 0.02042 0.70503 0.0
C813 C 0.29179 0.03424 0.72747 0.0
C814 C 0.31343 0.0538 0.72287 0.0
C815 C 0.32038 0.05936 0.69475 0.0
C816 C 0.30593 0.04521 0.67164 0.0
C817 C 0.28468 0.02503 0.67695 0.0
H818 H 0.65131 0.48649 0.44665 0.0
H819 H 0.6998 0.56204 0.47221 0.0
H820 H 0.70449 0.5445 0.52118 0.0
H821 H 0.61159 0.48322 0.50863 0.0
H822 H 0.61142 0.44493 0.50948 0.0
H823 H 0.61413 0.46226 0.4761 0.0
H824 H 0.66069 0.43463 0.46606 0.0
H825 H 0.65811 0.41718 0.49946 0.0
H826 H 0.68992 0.43661 0.49175 0.0
H827 H 0.70185 0.51944 0.56805 0.0
H828 H 0.69056 0.49015 0.609 0.0
H829 H 0.64287 0.43177 0.55247 0.0
C830 C 0.66328 0.49922 0.4624 0.0
C831 C 0.67534 0.52559 0.45552 0.0
C832 C 0.69046 0.54173 0.47694 0.0
C833 C 0.69329 0.5319 0.5048 0.0
C834 C 0.68087 0.50591 0.5109 0.0
C835 C 0.66614 0.48983 0.49027 0.0
C836 C 0.65338 0.46346 0.50254 0.0
C837 C 0.6207 0.46349 0.49898 0.0
C838 C 0.66631 0.43637 0.48915 0.0
C839 C 0.66279 0.46742 0.53344 0.0
C840 C 0.67891 0.49183 0.53781 0.0
C841 C 0.68938 0.5002 0.56481 0.0
C842 C 0.68287 0.4834 0.58795 0.0
C843 C 0.66582 0.45863 0.584 0.0
C844 C 0.656 0.45051 0.55625 0.0
H845 H 0.3363 0.94146 0.24912 0.0
H846 H 0.30683 0.97844 0.32847 0.0
H847 H 0.26534 0.99851 0.30308 0.0
H848 H 0.30428 -0.00077 0.20014 0.0
H849 H 0.29533 0.97229 0.17333 0.0
H850 H 0.32698 0.96865 0.19557 0.0
H851 H 0.30958 0.91916 0.21051 0.0
H852 H 0.27805 0.92267 0.18856 0.0
H853 H 0.27502 0.916 0.22588 0.0
H854 H 0.22191 0.00195 0.27358 0.0
H855 H 0.1808 0.98962 0.24172 0.0
H856 H 0.23758 0.95282 0.18001 0.0
C857 C 0.32182 0.95493 0.26088 0.0
C858 C 0.3248 0.95842 0.29073 0.0
C859 C 0.30501 0.97551 0.30557 0.0
C860 C 0.28144 0.98719 0.29127 0.0
C861 C 0.27813 0.98194 0.26205 0.0
C862 C 0.29806 0.96661 0.24686 0.0
C863 C 0.28721 0.95983 0.21677 0.0
C864 C 0.30448 0.97597 0.19518 0.0
C865 C 0.28746 0.92752 0.21009 0.0
C866 C 0.25716 0.97135 0.21825 0.0
C867 C 0.25263 0.9848 0.24432 0.0
C868 C 0.2254 0.99262 0.25268 0.0
C869 C 0.20217 0.98554 0.23452 0.0
C870 C 0.20638 0.97113 0.20824 0.0
C871 C 0.23419 0.96506 0.19948 0.0
H872 H 0.68171 0.07199 0.54935 0.0
H873 H 0.736 0.04491 0.61953 0.0
H874 H 0.75359 0.00512 0.58965 0.0
H875 H 0.6584 0.00858 0.52713 0.0
H876 H 0.65838 0.01402 0.48937 0.0
H877 H 0.65533 0.04395 0.51358 0.0
H878 H 0.69942 0.06739 0.49209 0.0
H879 H 0.70253 0.03745 0.46753 0.0
H880 H 0.73244 0.04796 0.49034 0.0
H881 H 0.75453 0.96202 0.55768 0.0
H882 H 0.74283 0.92209 0.52387 0.0
H883 H 0.69232 0.97887 0.47218 0.0
C884 C 0.69819 0.05835 0.55797 0.0
C885 C 0.70753 0.0615 0.58665 0.0
C886 C 0.72879 0.04307 0.59748 0.0
C887 C 0.73891 0.02037 0.58065 0.0
C888 C 0.72822 0.01695 0.5528 0.0
C889 C 0.70893 0.03595 0.54125 0.0
C890 C 0.69844 0.02592 0.51192 0.0
C891 C 0.66572 0.02293 0.51045 0.0
C892 C 0.70884 0.04587 0.48912 0.0
C893 C 0.71303 0.99728 0.50973 0.0
C894 C 0.7304 0.99258 0.53339 0.0
C895 C 0.74206 0.96584 0.53846 0.0
C896 C 0.73529 0.94327 0.51926 0.0
C897 C 0.71747 0.94778 0.4951 0.0
C898 C 0.70708 0.97529 0.48984 0.0
H899 H 0.28546 0.41112 0.69486 0.0
H900 H 0.27753 0.50234 0.68544 0.0
H901 H 0.25006 0.50561 0.72946 0.0
H902 H 0.21539 0.39963 0.72049 0.0
H903 H 0.22667 0.37284 0.74498 0.0
H904 H 0.24597 0.37781 0.71299 0.0
H905 H 0.29271 0.38546 0.7429 0.0
H906 H 0.27359 0.38038 0.77497 0.0
H907 H 0.29402 0.41239 0.77099 0.0
H908 H 0.22349 0.49871 0.77488 0.0
H909 H 0.20046 0.48234 0.81804 0.0
H910 H 0.22539 0.39557 0.79687 0.0
C911 C 0.27807 0.43184 0.70205 0.0
C912 C 0.28373 0.4565 0.68668 0.0
C913 C 0.2735 0.48315 0.69684 0.0
C914 C 0.25786 0.48521 0.72181 0.0
C915 C 0.25253 0.46043 0.73632 0.0
C916 C 0.26237 0.43426 0.7268 0.0
C917 C 0.25373 0.41082 0.74617 0.0
C918 C 0.23428 0.38899 0.7302 0.0
C919 C 0.28008 0.39643 0.75955 0.0
C920 C 0.23755 0.42787 0.76818 0.0
C921 C 0.23708 0.45645 0.76216 0.0
C922 C 0.22368 0.47637 0.77975 0.0
C923 C 0.21063 0.46686 0.80421 0.0
C924 C 0.21101 0.43766 0.81085 0.0
C925 C 0.22454 0.418 0.79238 0.0
H926 H 0.84201 0.04735 0.95047 0.0
H927 H 0.75494 0.03445 0.91958 0.0
H928 H 0.74201 0.01746 0.9668 0.0
H929 H 0.84837 0.98703 0.98794 0.0
H930 H 0.86977 0.00243 0.01688 0.0
H931 H 0.87035 0.01771 0.98245 0.0
H932 H 0.85602 0.06655 0.0048 0.0
H933 H 0.85502 0.05115 0.03939 0.0
H934 H 0.82419 0.06932 0.02522 0.0
H935 H 0.74104 0.99402 0.01449 0.0
H936 H 0.75279 0.96576 0.05699 0.0
H937 H 0.83944 0.99679 0.05709 0.0
C938 C 0.82009 0.04145 0.95378 0.0
C939 C 0.7995 0.04206 0.93142 0.0
C940 C 0.77104 0.03419 0.93653 0.0
C941 C 0.76348 0.02468 0.96331 0.0
C942 C 0.78448 0.02385 0.98486 0.0
C943 C 0.81216 0.03235 0.98038 0.0
C944 C 0.83148 0.02703 0.00587 0.0
C945 C 0.85643 0.00737 0.99779 0.0
C946 C 0.8423 0.0552 0.01963 0.0
C947 C 0.81083 0.01253 0.02477 0.0
C948 C 0.78362 0.01136 0.01267 0.0
C949 C 0.76198 0.99563 0.02464 0.0
C950 C 0.76869 0.97982 0.04885 0.0
C951 C 0.79672 0.98002 0.06055 0.0
C952 C 0.8176 0.99736 0.04902 0.0
H953 H 0.18087 0.62214 0.21056 0.0
H954 H 0.20058 0.55709 0.14682 0.0
H955 H 0.23135 0.53298 0.1817 0.0
H956 H 0.24802 0.62968 0.23813 0.0
H957 H 0.23873 0.63512 0.27478 0.0
H958 H 0.21361 0.64388 0.24692 0.0
H959 H 0.17622 0.6108 0.26837 0.0
H960 H 0.20145 0.60177 0.29629 0.0
H961 H 0.18497 0.57407 0.2742 0.0
H962 H 0.26689 0.52159 0.219 0.0
H963 H 0.30501 0.52434 0.25629 0.0
H964 H 0.26163 0.5946 0.29767 0.0
C965 C 0.19096 0.60234 0.20426 0.0
C966 C 0.18827 0.5915 0.17599 0.0
C967 C 0.20233 0.56586 0.16834 0.0
C968 C 0.21969 0.55183 0.1881 0.0
C969 C 0.22261 0.56346 0.21557 0.0
C970 C 0.20849 0.58804 0.22379 0.0
C971 C 0.21816 0.59805 0.25344 0.0
C972 C 0.23037 0.62846 0.25328 0.0
C973 C 0.19374 0.59604 0.27431 0.0
C974 C 0.24114 0.5763 0.25981 0.0
C975 C 0.24292 0.55618 0.23788 0.0
C976 C 0.26512 0.53651 0.2368 0.0
C977 C 0.28663 0.53813 0.25805 0.0
C978 C 0.28553 0.55899 0.28019 0.0
C979 C 0.26204 0.57759 0.28166 0.0
H980 H 0.27011 0.0484 0.49108 0.0
H981 H 0.28733 0.008 0.57129 0.0
H982 H 0.28713 0.96118 0.54654 0.0
H983 H 0.23012 0.98402 0.45293 0.0
H984 H 0.24701 0.99247 0.42033 0.0
H985 H 0.237 0.02059 0.44495 0.0
H986 H 0.28886 0.03932 0.44588 0.0
H987 H 0.29925 0.01111 0.42207 0.0
H988 H 0.31754 0.01589 0.4561 0.0
H989 H 0.30034 0.92209 0.51265 0.0
H990 H 0.32234 0.89465 0.47344 0.0
H991 H 0.29809 0.96059 0.41508 0.0
C992 C 0.27224 0.02955 0.50363 0.0
C993 C 0.27896 0.03187 0.53302 0.0
C994 C 0.28199 0.00681 0.54875 0.0
C995 C 0.28195 0.98002 0.5348 0.0
C996 C 0.27827 0.97868 0.50525 0.0
C997 C 0.27265 0.00282 0.4899 0.0
C998 C 0.27493 0.99687 0.45825 0.0
C999 C 0.24551 0.99858 0.44323 0.0
C1000 C 0.29643 0.01696 0.44485 0.0
C1001 C 0.28559 0.96657 0.45837 0.0
C1002 C 0.28637 0.95599 0.48549 0.0
C1003 C 0.29896 0.9298 0.49122 0.0
C1004 C 0.31157 0.91441 0.46885 0.0
C1005 C 0.31199 0.92559 0.44128 0.0
C1006 C 0.29796 0.95148 0.43594 0.0
H1007 H 0.81433 0.59781 0.2245 0.0
H1008 H 0.80855 0.51209 0.18821 0.0
H1009 H 0.78352 0.49672 0.23051 0.0
H1010 H 0.82142 0.57648 0.30171 0.0
H1011 H 0.80015 0.60642 0.31296 0.0
H1012 H 0.82266 0.60919 0.28277 0.0
H1013 H 0.77909 0.6242 0.2516 0.0
H1014 H 0.75664 0.62164 0.2816 0.0
H1015 H 0.74803 0.60161 0.24923 0.0
H1016 H 0.75 0.49351 0.2708 0.0
H1017 H 0.71264 0.50291 0.30603 0.0
H1018 H 0.7429 0.58932 0.31812 0.0
C1019 C 0.8086 0.5756 0.22586 0.0
C1020 C 0.8134 0.55617 0.20307 0.0
C1021 C 0.80528 0.52735 0.20549 0.0
C1022 C 0.79111 0.51838 0.22951 0.0
C1023 C 0.78579 0.53832 0.25123 0.0
C1024 C 0.79475 0.56626 0.24982 0.0
C1025 C 0.7838 0.58426 0.27433 0.0
C1026 C 0.80848 0.5947 0.29412 0.0
C1027 C 0.76582 0.60937 0.26353 0.0
C1028 C 0.76571 0.56259 0.28869 0.0
C1029 C 0.76746 0.53604 0.27539 0.0
C1030 C 0.7493 0.51383 0.28216 0.0
C1031 C 0.72826 0.51922 0.30227 0.0
C1032 C 0.72591 0.54642 0.31548 0.0
C1033 C 0.74541 0.56796 0.30928 0.0
H1034 H 0.15078 0.98385 0.05266 0.0
H1035 H 0.23856 0.96393 0.07583 0.0
H1036 H 0.25436 0.98484 0.03154 0.0
H1037 H 0.15601 0.96746 0.97839 0.0
H1038 H 0.13296 0.99596 0.96733 0.0
H1039 H 0.12855 0.98038 0.00142 0.0
H1040 H 0.13401 0.03012 0.02617 0.0
H1041 H 0.13845 0.04585 0.99213 0.0
H1042 H 0.16518 0.05121 0.02006 0.0
H1043 H 0.2607 0.00684 0.98414 0.0
H1044 H 0.25688 0.02786 0.9367 0.0
H1045 H 0.16508 0.03341 0.94423 0.0
C1046 C 0.17334 0.98403 0.04851 0.0
C1047 C 0.19341 0.97226 0.06781 0.0
C1048 C 0.22273 0.97279 0.06144 0.0
C1049 C 0.23196 0.98468 0.03633 0.0
C1050 C 0.21165 0.99598 0.01772 0.0
C1051 C 0.18295 0.99577 0.02347 0.0
C1052 C 0.16547 0.00871 0.99955 0.0
C1053 C 0.14452 0.98682 0.98587 0.0
C1054 C 0.14986 0.03557 0.01012 0.0
C1055 C 0.18882 0.01602 0.97941 0.0
C1056 C 0.21531 0.00861 0.99035 0.0
C1057 C 0.24007 0.01284 0.97539 0.0
C1058 C 0.23769 0.0248 0.94845 0.0
C1059 C 0.21072 0.03235 0.93669 0.0
C1060 C 0.18605 0.028 0.9526 0.0
H1061 H 0.67505 0.4459 0.78673 0.0
H1062 H 0.72925 0.45134 0.71401 0.0
H1063 H 0.77179 0.4498 0.74613 0.0
H1064 H 0.72334 0.48598 0.83962 0.0
H1065 H 0.71382 0.46259 0.86747 0.0
H1066 H 0.6882 0.47053 0.83955 0.0
H1067 H 0.68174 0.41658 0.82848 0.0
H1068 H 0.7076 0.40845 0.8559 0.0
H1069 H 0.71243 0.39527 0.82001 0.0
H1070 H 0.808 0.43881 0.78525 0.0
H1071 H 0.8343 0.42194 0.82784 0.0
H1072 H 0.75582 0.4232 0.87429 0.0
C1073 C 0.69583 0.44783 0.77758 0.0
C1074 C 0.69878 0.44882 0.74784 0.0
C1075 C 0.72641 0.45088 0.73674 0.0
C1076 C 0.75072 0.44994 0.75485 0.0
C1077 C 0.74701 0.44734 0.78397 0.0
C1078 C 0.72017 0.44683 0.79529 0.0
C1079 C 0.72162 0.4408 0.8267 0.0
C1080 C 0.71113 0.46651 0.84438 0.0
C1081 C 0.70487 0.41366 0.83312 0.0
C1082 C 0.75332 0.43656 0.83106 0.0
C1083 C 0.76775 0.44088 0.80637 0.0
C1084 C 0.79697 0.43597 0.80484 0.0
C1085 C 0.81172 0.42626 0.82911 0.0
C1086 C 0.79714 0.42128 0.85444 0.0
C1087 C 0.76767 0.42699 0.85537 0.0
loop_
_geom_bond_atom_site_label_1
_geom_bond_atom_site_label_2
_geom_bond_distance
_geom_bond_site_symmetry_2
_ccdc_geom_bond_type
Zn0 O3 2.031 . S
Zn0 O5 2.049 . S
Zn0 O10 2.067 . S
Zn1 O2 1.962 . S
Zn1 O4 1.986 . S
Zn1 O6 1.996 . S
Zn1 O9 1.943 . S
O2 Zn1 1.962 . S
O2 C7 1.254 . S
O3 Zn0 2.031 . S
O3 C7 1.269 . S
O4 Zn1 1.986 . S
O4 C11 1.262 . S
O5 Zn0 2.049 . S
O5 C13 1.260 . S
O6 Zn1 1.996 . S
O6 C13 1.257 . S
C7 O2 1.254 . S
C7 O3 1.269 . S
C8 O9 1.249 . S
C8 O10 1.270 . S
O9 Zn1 1.943 . S
O9 C8 1.249 . S
O10 Zn0 2.067 . S
O10 C8 1.270 . S
C11 O4 1.262 . S
C11 O12 1.232 . S
O12 C11 1.232 . S
C13 O5 1.260 . S
C13 O6 1.257 . S
Zn14 O17 2.031 . S
Zn14 O19 2.049 . S
Zn14 O24 2.067 . S
Zn15 O16 1.962 . S
Zn15 O18 1.986 . S
Zn15 O20 1.996 . S
Zn15 O23 1.943 . S
O16 Zn15 1.962 . S
O16 C21 1.254 . S
O17 Zn14 2.031 . S
O17 C21 1.269 . S
O18 Zn15 1.986 . S
O18 C25 1.262 . S
O19 Zn14 2.049 . S
O19 C27 1.260 . S
O20 Zn15 1.996 . S
O20 C27 1.257 . S
C21 O16 1.254 . S
C21 O17 1.269 . S
C22 O23 1.249 . S
C22 O24 1.270 . S
O23 Zn15 1.943 . S
O23 C22 1.249 . S
O24 Zn14 2.067 . S
O24 C22 1.270 . S
C25 O18 1.262 . S
C25 O26 1.232 . S
O26 C25 1.232 . S
C27 O19 1.260 . S
C27 O20 1.257 . S
Zn28 O31 2.031 . S
Zn28 O33 2.049 . S
Zn28 O38 2.067 . S
Zn29 O30 1.962 . S
Zn29 O32 1.986 . S
Zn29 O34 1.996 . S
Zn29 O37 1.943 . S
O30 Zn29 1.962 . S
O30 C35 1.254 . S
O31 Zn28 2.031 . S
O31 C35 1.269 . S
O32 Zn29 1.986 . S
O32 C39 1.262 . S
O33 Zn28 2.049 . S
O33 C41 1.260 . S
O34 Zn29 1.996 . S
O34 C41 1.257 . S
C35 O30 1.254 . S
C35 O31 1.269 . S
C36 O37 1.249 . S
C36 O38 1.270 . S
O37 Zn29 1.943 . S
O37 C36 1.249 . S
O38 Zn28 2.067 . S
O38 C36 1.270 . S
C39 O32 1.262 . S
C39 O40 1.232 . S
O40 C39 1.232 . S
C41 O33 1.260 . S
C41 O34 1.257 . S
Zn42 O45 2.031 . S
Zn42 O47 2.049 . S
Zn42 O52 2.067 . S
Zn43 O44 1.962 . S
Zn43 O46 1.986 . S
Zn43 O48 1.996 . S
Zn43 O51 1.943 . S
O44 Zn43 1.962 . S
O44 C49 1.254 . S
O45 Zn42 2.031 . S
O45 C49 1.269 . S
O46 Zn43 1.986 . S
O46 C53 1.262 . S
O47 Zn42 2.049 . S
O47 C55 1.260 . S
O48 Zn43 1.996 . S
O48 C55 1.257 . S
C49 O44 1.254 . S
C49 O45 1.269 . S
C50 O51 1.249 . S
C50 O52 1.270 . S
O51 Zn43 1.943 . S
O51 C50 1.249 . S
O52 Zn42 2.067 . S
O52 C50 1.270 . S
C53 O46 1.262 . S
C53 O54 1.232 . S
O54 C53 1.232 . S
C55 O47 1.260 . S
C55 O48 1.257 . S
Zn56 O59 2.031 . S
Zn56 O61 2.049 . S
Zn56 O66 2.067 . S
Zn57 O58 1.962 . S
Zn57 O60 1.986 . S
Zn57 O62 1.996 . S
Zn57 O65 1.943 . S
O58 Zn57 1.962 . S
O58 C63 1.254 . S
O59 Zn56 2.031 . S
O59 C63 1.269 . S
O60 Zn57 1.986 . S
O60 C67 1.262 . S
O61 Zn56 2.049 . S
O61 C69 1.260 . S
O62 Zn57 1.996 . S
O62 C69 1.257 . S
C63 O58 1.254 . S
C63 O59 1.269 . S
C64 O65 1.249 . S
C64 O66 1.270 . S
O65 Zn57 1.943 . S
O65 C64 1.249 . S
O66 Zn56 2.067 . S
O66 C64 1.270 . S
C67 O60 1.262 . S
C67 O68 1.232 . S
O68 C67 1.232 . S
C69 O61 1.260 . S
C69 O62 1.257 . S
Zn70 O73 2.031 . S
Zn70 O75 2.049 . S
Zn70 O80 2.067 . S
Zn71 O72 1.962 . S
Zn71 O74 1.986 . S
Zn71 O76 1.996 . S
Zn71 O79 1.943 . S
O72 Zn71 1.962 . S
O72 C77 1.254 . S
O73 Zn70 2.031 . S
O73 C77 1.269 . S
O74 Zn71 1.986 . S
O74 C81 1.262 . S
O75 Zn70 2.049 . S
O75 C83 1.260 . S
O76 Zn71 1.996 . S
O76 C83 1.257 . S
C77 O72 1.254 . S
C77 O73 1.269 . S
C78 O79 1.249 . S
C78 O80 1.270 . S
O79 Zn71 1.943 . S
O79 C78 1.249 . S
O80 Zn70 2.067 . S
O80 C78 1.270 . S
C81 O74 1.262 . S
C81 O82 1.232 . S
O82 C81 1.232 . S
C83 O75 1.260 . S
C83 O76 1.257 . S
Zn84 O87 2.031 . S
Zn84 O89 2.049 . S
Zn84 O94 2.067 . S
Zn85 O86 1.962 . S
Zn85 O88 1.986 . S
Zn85 O90 1.996 . S
Zn85 O93 1.943 . S
O86 Zn85 1.962 . S
O86 C91 1.254 . S
O87 Zn84 2.031 . S
O87 C91 1.269 . S
O88 Zn85 1.986 . S
O88 C95 1.262 . S
O89 Zn84 2.049 . S
O89 C97 1.260 . S
O90 Zn85 1.996 . S
O90 C97 1.257 . S
C91 O86 1.254 . S
C91 O87 1.269 . S
C92 O93 1.249 . S
C92 O94 1.270 . S
O93 Zn85 1.943 . S
O93 C92 1.249 . S
O94 Zn84 2.067 . S
O94 C92 1.270 . S
C95 O88 1.262 . S
C95 O96 1.232 . S
O96 C95 1.232 . S
C97 O89 1.260 . S
C97 O90 1.257 . S
Zn98 O101 2.031 . S
Zn98 O103 2.049 . S
Zn98 O108 2.067 . S
Zn99 O100 1.962 . S
Zn99 O102 1.986 . S
Zn99 O104 1.996 . S
Zn99 O107 1.943 . S
O100 Zn99 1.962 . S
O100 C105 1.254 . S
O101 Zn98 2.031 . S
O101 C105 1.269 . S
O102 Zn99 1.986 . S
O102 C109 1.262 . S
O103 Zn98 2.049 . S
O103 C111 1.260 . S
O104 Zn99 1.996 . S
O104 C111 1.257 . S
C105 O100 1.254 . S
C105 O101 1.269 . S
C106 O107 1.249 . S
C106 O108 1.270 . S
O107 Zn99 1.943 . S
O107 C106 1.249 . S
O108 Zn98 2.067 . S
O108 C106 1.270 . S
C109 O102 1.262 . S
C109 O110 1.232 . S
O110 C109 1.232 . S
C111 O103 1.260 . S
C111 O104 1.257 . S
Zn112 O115 2.031 . S
Zn112 O117 2.049 . S
Zn112 O122 2.067 . S
Zn113 O114 1.962 . S
Zn113 O116 1.986 . S
Zn113 O118 1.996 . S
Zn113 O121 1.943 . S
O114 Zn113 1.962 . S
O114 C119 1.254 . S
O115 Zn112 2.031 . S
O115 C119 1.269 . S
O116 Zn113 1.986 . S
O116 C123 1.262 . S
O117 Zn112 2.049 . S
O117 C125 1.260 . S
O118 Zn113 1.996 . S
O118 C125 1.257 . S
C119 O114 1.254 . S
C119 O115 1.269 . S
C120 O121 1.249 . S
C120 O122 1.270 . S
O121 Zn113 1.943 . S
O121 C120 1.249 . S
O122 Zn112 2.067 . S
O122 C120 1.270 . S
C123 O116 1.262 . S
C123 O124 1.232 . S
O124 C123 1.232 . S
C125 O117 1.260 . S
C125 O118 1.257 . S
Zn126 O129 2.031 . S
Zn126 O131 2.049 . S
Zn126 O136 2.067 . S
Zn127 O128 1.962 . S
Zn127 O130 1.986 . S
Zn127 O132 1.996 . S
Zn127 O135 1.943 . S
O128 Zn127 1.962 . S
O128 C133 1.254 . S
O129 Zn126 2.031 . S
O129 C133 1.269 . S
O130 Zn127 1.986 . S
O130 C137 1.262 . S
O131 Zn126 2.049 . S
O131 C139 1.260 . S
O132 Zn127 1.996 . S
O132 C139 1.257 . S
C133 O128 1.254 . S
C133 O129 1.269 . S
C134 O135 1.249 . S
C134 O136 1.270 . S
O135 Zn127 1.943 . S
O135 C134 1.249 . S
O136 Zn126 2.067 . S
O136 C134 1.270 . S
C137 O130 1.262 . S
C137 O138 1.232 . S
O138 C137 1.232 . S
C139 O131 1.260 . S
C139 O132 1.257 . S
Zn140 O143 2.031 . S
Zn140 O145 2.049 . S
Zn140 O150 2.067 . S
Zn141 O142 1.962 . S
Zn141 O144 1.986 . S
Zn141 O146 1.996 . S
Zn141 O149 1.943 . S
O142 Zn141 1.962 . S
O142 C147 1.254 . S
O143 Zn140 2.031 . S
O143 C147 1.269 . S
O144 Zn141 1.986 . S
O144 C151 1.262 . S
O145 Zn140 2.049 . S
O145 C153 1.260 . S
O146 Zn141 1.996 . S
O146 C153 1.257 . S
C147 O142 1.254 . S
C147 O143 1.269 . S
C148 O149 1.249 . S
C148 O150 1.270 . S
O149 Zn141 1.943 . S
O149 C148 1.249 . S
O150 Zn140 2.067 . S
O150 C148 1.270 . S
C151 O144 1.262 . S
C151 O152 1.232 . S
O152 C151 1.232 . S
C153 O145 1.260 . S
C153 O146 1.257 . S
Zn154 O157 2.031 . S
Zn154 O159 2.049 . S
Zn154 O164 2.067 . S
Zn155 O156 1.962 . S
Zn155 O158 1.986 . S
Zn155 O160 1.996 . S
Zn155 O163 1.943 . S
O156 Zn155 1.962 . S
O156 C161 1.254 . S
O157 Zn154 2.031 . S
O157 C161 1.269 . S
O158 Zn155 1.986 . S
O158 C165 1.262 . S
O159 Zn154 2.049 . S
O159 C167 1.260 . S
O160 Zn155 1.996 . S
O160 C167 1.257 . S
C161 O156 1.254 . S
C161 O157 1.269 . S
C162 O163 1.249 . S
C162 O164 1.270 . S
O163 Zn155 1.943 . S
O163 C162 1.249 . S
O164 Zn154 2.067 . S
O164 C162 1.270 . S
C165 O158 1.262 . S
C165 O166 1.232 . S
O166 C165 1.232 . S
C167 O159 1.260 . S
C167 O160 1.257 . S
Zn168 O171 2.031 . S
Zn168 O173 2.049 . S
Zn168 O178 2.067 . S
Zn169 O170 1.962 . S
Zn169 O172 1.986 . S
Zn169 O174 1.996 . S
Zn169 O177 1.943 . S
O170 Zn169 1.962 . S
O170 C175 1.254 . S
O171 Zn168 2.031 . S
O171 C175 1.269 . S
O172 Zn169 1.986 . S
O172 C179 1.262 . S
O173 Zn168 2.049 . S
O173 C181 1.260 . S
O174 Zn169 1.996 . S
O174 C181 1.257 . S
C175 O170 1.254 . S
C175 O171 1.269 . S
C176 O177 1.249 . S
C176 O178 1.270 . S
O177 Zn169 1.943 . S
O177 C176 1.249 . S
O178 Zn168 2.067 . S
O178 C176 1.270 . S
C179 O172 1.262 . S
C179 O180 1.232 . S
O180 C179 1.232 . S
C181 O173 1.260 . S
C181 O174 1.257 . S
Zn182 O185 2.031 . S
Zn182 O187 2.049 . S
Zn182 O192 2.067 . S
Zn183 O184 1.962 . S
Zn183 O186 1.986 . S
Zn183 O188 1.996 . S
Zn183 O191 1.943 . S
O184 Zn183 1.962 . S
O184 C189 1.254 . S
O185 Zn182 2.031 . S
O185 C189 1.269 . S
O186 Zn183 1.986 . S
O186 C193 1.262 . S
O187 Zn182 2.049 . S
O187 C195 1.260 . S
O188 Zn183 1.996 . S
O188 C195 1.257 . S
C189 O184 1.254 . S
C189 O185 1.269 . S
C190 O191 1.249 . S
C190 O192 1.270 . S
O191 Zn183 1.943 . S
O191 C190 1.249 . S
O192 Zn182 2.067 . S
O192 C190 1.270 . S
C193 O186 1.262 . S
C193 O194 1.232 . S
O194 C193 1.232 . S
C195 O187 1.260 . S
C195 O188 1.257 . S
Zn196 O199 2.031 . S
Zn196 O201 2.049 . S
Zn196 O206 2.067 . S
Zn197 O198 1.962 . S
Zn197 O200 1.986 . S
Zn197 O202 1.996 . S
Zn197 O205 1.943 . S
O198 Zn197 1.962 . S
O198 C203 1.254 . S
O199 Zn196 2.031 . S
O199 C203 1.269 . S
O200 Zn197 1.986 . S
O200 C207 1.262 . S
O201 Zn196 2.049 . S
O201 C209 1.260 . S
O202 Zn197 1.996 . S
O202 C209 1.257 . S
C203 O198 1.254 . S
C203 O199 1.269 . S
C204 O205 1.249 . S
C204 O206 1.270 . S
O205 Zn197 1.943 . S
O205 C204 1.249 . S
O206 Zn196 2.067 . S
O206 C204 1.270 . S
C207 O200 1.262 . S
C207 O208 1.232 . S
O208 C207 1.232 . S
C209 O201 1.260 . S
C209 O202 1.257 . S
Zn210 O213 2.031 . S
Zn210 O215 2.049 . S
Zn210 O220 2.067 . S
Zn211 O212 1.962 . S
Zn211 O214 1.986 . S
Zn211 O216 1.996 . S
Zn211 O219 1.943 . S
O212 Zn211 1.962 . S
O212 C217 1.254 . S
O213 Zn210 2.031 . S
O213 C217 1.269 . S
O214 Zn211 1.986 . S
O214 C221 1.262 . S
O215 Zn210 2.049 . S
O215 C223 1.260 . S
O216 Zn211 1.996 . S
O216 C223 1.257 . S
C217 O212 1.254 . S
C217 O213 1.269 . S
C218 O219 1.249 . S
C218 O220 1.270 . S
O219 Zn211 1.943 . S
O219 C218 1.249 . S
O220 Zn210 2.067 . S
O220 C218 1.270 . S
C221 O214 1.262 . S
C221 O222 1.232 . S
O222 C221 1.232 . S
C223 O215 1.260 . S
C223 O216 1.257 . S
H224 C236 0.930 . S
H225 C238 0.930 . S
H226 C239 0.930 . S
H227 C243 0.959 . S
H228 C243 0.959 . S
H229 C243 0.961 . S
H230 C244 0.960 . S
H231 C244 0.961 . S
H232 C244 0.959 . S
H233 C247 0.929 . S
H234 C248 0.931 . S
H235 C250 0.930 . S
C236 H224 0.930 . S
C236 C237 1.399 . S
C236 C241 1.399 . S
C237 C236 1.399 . S
C237 C238 1.376 . S
C238 H225 0.930 . S
C238 C237 1.376 . S
C238 C239 1.388 . S
C239 H226 0.930 . S
C239 C238 1.388 . S
C239 C240 1.390 . S
C240 C239 1.390 . S
C240 C241 1.394 . S
C240 C246 1.465 . S
C241 C236 1.399 . S
C241 C240 1.394 . S
C241 C242 1.516 . S
C242 C241 1.516 . S
C242 C243 1.502 . S
C242 C244 1.561 . S
C242 C245 1.526 . S
C243 H227 0.959 . S
C243 H228 0.959 . S
C243 H229 0.961 . S
C243 C242 1.502 . S
C244 H230 0.960 . S
C244 H231 0.961 . S
C244 H232 0.959 . S
C244 C242 1.561 . S
C245 C242 1.526 . S
C245 C246 1.396 . S
C245 C250 1.390 . S
C246 C240 1.465 . S
C246 C245 1.396 . S
C246 C247 1.399 . S
C247 H233 0.929 . S
C247 C246 1.399 . S
C247 C248 1.385 . S
C248 H234 0.931 . S
C248 C247 1.385 . S
C248 C249 1.389 . S
C249 C248 1.389 . S
C249 C250 1.387 . S
C250 H235 0.930 . S
C250 C245 1.390 . S
C250 C249 1.387 . S
H251 C263 0.930 . S
H252 C265 0.930 . S
H253 C266 0.930 . S
H254 C270 0.959 . S
H255 C270 0.959 . S
H256 C270 0.961 . S
H257 C271 0.960 . S
H258 C271 0.961 . S
H259 C271 0.959 . S
H260 C274 0.929 . S
H261 C275 0.931 . S
H262 C277 0.930 . S
C263 H251 0.930 . S
C263 C264 1.399 . S
C263 C268 1.399 . S
C264 C263 1.399 . S
C264 C265 1.376 . S
C265 H252 0.930 . S
C265 C264 1.376 . S
C265 C266 1.388 . S
C266 H253 0.930 . S
C266 C265 1.388 . S
C266 C267 1.390 . S
C267 C266 1.390 . S
C267 C268 1.394 . S
C267 C273 1.465 . S
C268 C263 1.399 . S
C268 C267 1.394 . S
C268 C269 1.516 . S
C269 C268 1.516 . S
C269 C270 1.502 . S
C269 C271 1.561 . S
C269 C272 1.526 . S
C270 H254 0.959 . S
C270 H255 0.959 . S
C270 H256 0.961 . S
C270 C269 1.502 . S
C271 H257 0.960 . S
C271 H258 0.961 . S
C271 H259 0.959 . S
C271 C269 1.561 . S
C272 C269 1.526 . S
C272 C273 1.396 . S
C272 C277 1.390 . S
C273 C267 1.465 . S
C273 C272 1.396 . S
C273 C274 1.399 . S
C274 H260 0.929 . S
C274 C273 1.399 . S
C274 C275 1.385 . S
C275 H261 0.931 . S
C275 C274 1.385 . S
C275 C276 1.389 . S
C276 C275 1.389 . S
C276 C277 1.387 . S
C277 H262 0.930 . S
C277 C272 1.390 . S
C277 C276 1.387 . S
H278 C290 0.930 . S
H279 C292 0.930 . S
H280 C293 0.930 . S
H281 C297 0.959 . S
H282 C297 0.959 . S
H283 C297 0.961 . S
H284 C298 0.960 . S
H285 C298 0.961 . S
H286 C298 0.959 . S
H287 C301 0.929 . S
H288 C302 0.931 . S
H289 C304 0.930 . S
C290 H278 0.930 . S
C290 C291 1.399 . S
C290 C295 1.399 . S
C291 C290 1.399 . S
C291 C292 1.376 . S
C292 H279 0.930 . S
C292 C291 1.376 . S
C292 C293 1.388 . S
C293 H280 0.930 . S
C293 C292 1.388 . S
C293 C294 1.390 . S
C294 C293 1.390 . S
C294 C295 1.394 . S
C294 C300 1.465 . S
C295 C290 1.399 . S
C295 C294 1.394 . S
C295 C296 1.516 . S
C296 C295 1.516 . S
C296 C297 1.502 . S
C296 C298 1.561 . S
C296 C299 1.526 . S
C297 H281 0.959 . S
C297 H282 0.959 . S
C297 H283 0.961 . S
C297 C296 1.502 . S
C298 H284 0.960 . S
C298 H285 0.961 . S
C298 H286 0.959 . S
C298 C296 1.561 . S
C299 C296 1.526 . S
C299 C300 1.396 . S
C299 C304 1.390 . S
C300 C294 1.465 . S
C300 C299 1.396 . S
C300 C301 1.399 . S
C301 H287 0.929 . S
C301 C300 1.399 . S
C301 C302 1.385 . S
C302 H288 0.931 . S
C302 C301 1.385 . S
C302 C303 1.389 . S
C303 C302 1.389 . S
C303 C304 1.387 . S
C304 H289 0.930 . S
C304 C299 1.390 . S
C304 C303 1.387 . S
H305 C317 0.930 . S
H306 C319 0.930 . S
H307 C320 0.930 . S
H308 C324 0.963 . S
H309 C324 0.985 . S
H310 C324 0.933 1_455 S
H311 C325 0.960 . S
H312 C325 0.961 1_655 S
H313 C325 0.961 . S
H314 C328 0.929 . S
H315 C329 0.931 . S
H316 C331 0.930 . S
C317 H305 0.930 . S
C317 C318 1.399 . S
C317 C322 1.399 . S
C318 C317 1.399 . S
C318 C319 1.376 . S
C319 H306 0.930 . S
C319 C318 1.376 . S
C319 C320 1.388 . S
C320 H307 0.930 . S
C320 C319 1.388 . S
C320 C321 1.390 . S
C321 C320 1.390 . S
C321 C322 1.394 . S
C321 C327 1.465 1_455 S
C322 C317 1.399 . S
C322 C321 1.394 . S
C322 C323 1.541 . S
C323 C322 1.541 . S
C323 C324 1.502 1_455 S
C323 C325 1.562 . S
C323 C326 1.501 1_455 S
C324 H308 0.963 . S
C324 H309 0.985 . S
C324 H310 0.933 1_655 S
C324 C323 1.502 1_655 S
C325 H311 0.960 . S
C325 H312 0.961 1_455 S
C325 H313 0.961 . S
C325 C323 1.562 . S
C326 C323 1.501 1_655 S
C326 C327 1.396 . S
C326 C331 1.390 . S
C327 C321 1.465 1_655 S
C327 C326 1.396 . S
C327 C328 1.399 . S
C328 H314 0.929 . S
C328 C327 1.399 . S
C328 C329 1.385 . S
C329 H315 0.931 . S
C329 C328 1.385 . S
C329 C330 1.389 . S
C330 C329 1.389 . S
C330 C331 1.387 . S
C331 H316 0.930 . S
C331 C326 1.390 . S
C331 C330 1.387 . S
H332 C344 0.930 . S
H333 C346 0.930 . S
H334 C347 0.930 . S
H335 C351 0.959 . S
H336 C351 0.959 . S
H337 C351 0.961 . S
H338 C352 0.960 . S
H339 C352 0.961 . S
H340 C352 0.959 . S
H341 C355 0.929 . S
H342 C356 0.931 . S
H343 C358 0.930 . S
C344 H332 0.930 . S
C344 C345 1.399 . S
C344 C349 1.399 . S
C345 C344 1.399 . S
C345 C346 1.376 . S
C346 H333 0.930 . S
C346 C345 1.376 . S
C346 C347 1.388 . S
C347 H334 0.930 . S
C347 C346 1.388 . S
C347 C348 1.390 . S
C348 C347 1.390 . S
C348 C349 1.394 . S
C348 C354 1.465 . S
C349 C344 1.399 . S
C349 C348 1.394 . S
C349 C350 1.516 . S
C350 C349 1.516 . S
C350 C351 1.502 . S
C350 C352 1.561 . S
C350 C353 1.526 . S
C351 H335 0.959 . S
C351 H336 0.959 . S
C351 H337 0.961 . S
C351 C350 1.502 . S
C352 H338 0.960 . S
C352 H339 0.961 . S
C352 H340 0.959 . S
C352 C350 1.561 . S
C353 C350 1.526 . S
C353 C354 1.396 . S
C353 C358 1.390 . S
C354 C348 1.465 . S
C354 C353 1.396 . S
C354 C355 1.399 . S
C355 H341 0.929 . S
C355 C354 1.399 . S
C355 C356 1.385 . S
C356 H342 0.931 . S
C356 C355 1.385 . S
C356 C357 1.389 . S
C357 C356 1.389 . S
C357 C358 1.387 . S
C358 H343 0.930 . S
C358 C353 1.390 . S
C358 C357 1.387 . S
H359 C371 0.930 . S
H360 C373 0.930 . S
H361 C374 0.930 . S
H362 C378 0.959 . S
H363 C378 0.959 1_455 S
H364 C378 0.961 . S
H365 C379 0.960 . S
H366 C379 0.961 1_455 S
H367 C379 0.959 . S
H368 C382 0.929 . S
H369 C383 0.931 . S
H370 C385 0.930 . S
C371 H359 0.930 . S
C371 C372 1.399 . S
C371 C376 1.399 . S
C372 C371 1.399 . S
C372 C373 1.376 . S
C373 H360 0.930 . S
C373 C372 1.376 . S
C373 C374 1.388 . S
C374 H361 0.930 . S
C374 C373 1.388 . S
C374 C375 1.390 . S
C375 C374 1.390 . S
C375 C376 1.394 . S
C375 C381 1.465 1_655 S
C376 C371 1.399 . S
C376 C375 1.394 . S
C376 C377 1.516 . S
C377 C376 1.516 . S
C377 C378 1.502 . S
C377 C379 1.561 . S
C377 C380 1.526 1_655 S
C378 H362 0.959 . S
C378 H363 0.959 1_655 S
C378 H364 0.961 . S
C378 C377 1.502 . S
C379 H365 0.960 . S
C379 H366 0.961 1_655 S
C379 H367 0.959 . S
C379 C377 1.561 . S
C380 C377 1.526 1_455 S
C380 C381 1.396 . S
C380 C385 1.390 . S
C381 C375 1.465 1_455 S
C381 C380 1.396 . S
C381 C382 1.399 . S
C382 H368 0.929 . S
C382 C381 1.399 . S
C382 C383 1.385 . S
C383 H369 0.931 . S
C383 C382 1.385 . S
C383 C384 1.389 . S
C384 C383 1.389 . S
C384 C385 1.387 . S
C385 H370 0.930 . S
C385 C380 1.390 . S
C385 C384 1.387 . S
H386 C398 0.930 . S
H387 C400 0.930 . S
H388 C401 0.930 . S
H389 C405 0.959 . S
H390 C405 0.959 . S
H391 C405 0.961 . S
H392 C406 0.960 . S
H393 C406 0.961 . S
H394 C406 0.959 . S
H395 C409 0.929 . S
H396 C410 0.931 . S
H397 C412 0.930 . S
C398 H386 0.930 . S
C398 C399 1.399 . S
C398 C403 1.399 . S
C399 C398 1.399 . S
C399 C400 1.376 . S
C400 H387 0.930 . S
C400 C399 1.376 . S
C400 C401 1.388 . S
C401 H388 0.930 . S
C401 C400 1.388 . S
C401 C402 1.390 . S
C402 C401 1.390 . S
C402 C403 1.394 . S
C402 C408 1.465 . S
C403 C398 1.399 . S
C403 C402 1.394 . S
C403 C404 1.516 . S
C404 C403 1.516 . S
C404 C405 1.502 . S
C404 C406 1.561 . S
C404 C407 1.526 . S
C405 H389 0.959 . S
C405 H390 0.959 . S
C405 H391 0.961 . S
C405 C404 1.502 . S
C406 H392 0.960 . S
C406 H393 0.961 . S
C406 H394 0.959 . S
C406 C404 1.561 . S
C407 C404 1.526 . S
C407 C408 1.396 . S
C407 C412 1.390 . S
C408 C402 1.465 . S
C408 C407 1.396 . S
C408 C409 1.399 . S
C409 H395 0.929 . S
C409 C408 1.399 . S
C409 C410 1.385 . S
C410 H396 0.931 . S
C410 C409 1.385 . S
C410 C411 1.389 . S
C411 C410 1.389 . S
C411 C412 1.387 . S
C412 H397 0.930 . S
C412 C407 1.390 . S
C412 C411 1.387 . S
H413 C425 0.930 . S
H414 C427 0.930 . S
H415 C428 0.930 . S
H416 C432 0.959 . S
H417 C432 0.959 . S
H418 C432 0.961 . S
H419 C433 0.960 . S
H420 C433 0.961 . S
H421 C433 0.959 . S
H422 C436 0.929 . S
H423 C437 0.931 . S
H424 C439 0.930 . S
C425 H413 0.930 . S
C425 C426 1.399 . S
C425 C430 1.399 . S
C426 C425 1.399 . S
C426 C427 1.376 . S
C427 H414 0.930 . S
C427 C426 1.376 . S
C427 C428 1.388 . S
C428 H415 0.930 . S
C428 C427 1.388 . S
C428 C429 1.390 . S
C429 C428 1.390 . S
C429 C430 1.394 . S
C429 C435 1.465 . S
C430 C425 1.399 . S
C430 C429 1.394 . S
C430 C431 1.516 . S
C431 C430 1.516 . S
C431 C432 1.502 . S
C431 C433 1.561 . S
C431 C434 1.526 . S
C432 H416 0.959 . S
C432 H417 0.959 . S
C432 H418 0.961 . S
C432 C431 1.502 . S
C433 H419 0.960 . S
C433 H420 0.961 . S
C433 H421 0.959 . S
C433 C431 1.561 . S
C434 C431 1.526 . S
C434 C435 1.396 . S
C434 C439 1.390 . S
C435 C429 1.465 . S
C435 C434 1.396 . S
C435 C436 1.399 . S
C436 H422 0.929 . S
C436 C435 1.399 . S
C436 C437 1.385 . S
C437 H423 0.931 . S
C437 C436 1.385 . S
C437 C438 1.389 . S
C438 C437 1.389 . S
C438 C439 1.387 . S
C439 H424 0.930 . S
C439 C434 1.390 . S
C439 C438 1.387 . S
H440 C452 0.930 . S
H441 C454 0.930 . S
H442 C455 0.930 . S
H443 C459 0.959 . S
H444 C459 0.959 . S
H445 C459 0.961 . S
H446 C460 0.960 . S
H447 C460 0.961 . S
H448 C460 0.959 . S
H449 C463 0.929 . S
H450 C464 0.931 . S
H451 C466 0.930 . S
C452 H440 0.930 . S
C452 C453 1.399 . S
C452 C457 1.399 . S
C453 C452 1.399 . S
C453 C454 1.376 . S
C454 H441 0.930 . S
C454 C453 1.376 . S
C454 C455 1.388 . S
C455 H442 0.930 . S
C455 C454 1.388 . S
C455 C456 1.390 . S
C456 C455 1.390 . S
C456 C457 1.394 . S
C456 C462 1.465 . S
C457 C452 1.399 . S
C457 C456 1.394 . S
C457 C458 1.516 . S
C458 C457 1.516 . S
C458 C459 1.502 . S
C458 C460 1.561 . S
C458 C461 1.526 . S
C459 H443 0.959 . S
C459 H444 0.959 . S
C459 H445 0.961 . S
C459 C458 1.502 . S
C460 H446 0.960 . S
C460 H447 0.961 . S
C460 H448 0.959 . S
C460 C458 1.561 . S
C461 C458 1.526 . S
C461 C462 1.396 . S
C461 C466 1.390 . S
C462 C456 1.465 . S
C462 C461 1.396 . S
C462 C463 1.399 . S
C463 H449 0.929 . S
C463 C462 1.399 . S
C463 C464 1.385 . S
C464 H450 0.931 . S
C464 C463 1.385 . S
C464 C465 1.389 . S
C465 C464 1.389 . S
C465 C466 1.387 . S
C466 H451 0.930 . S
C466 C461 1.390 . S
C466 C465 1.387 . S
H467 C479 0.930 . S
H468 C481 0.930 . S
H469 C482 0.930 . S
H470 C486 0.959 . S
H471 C486 0.959 . S
H472 C486 0.961 . S
H473 C487 0.960 . S
H474 C487 0.961 . S
H475 C487 0.959 . S
H476 C490 0.929 . S
H477 C491 0.931 . S
H478 C493 0.930 . S
C479 H467 0.930 . S
C479 C480 1.399 . S
C479 C484 1.399 . S
C480 C479 1.399 . S
C480 C481 1.376 . S
C481 H468 0.930 . S
C481 C480 1.376 . S
C481 C482 1.388 . S
C482 H469 0.930 . S
C482 C481 1.388 . S
C482 C483 1.390 . S
C483 C482 1.390 . S
C483 C484 1.394 . S
C483 C489 1.465 . S
C484 C479 1.399 . S
C484 C483 1.394 . S
C484 C485 1.516 . S
C485 C484 1.516 . S
C485 C486 1.502 . S
C485 C487 1.561 . S
C485 C488 1.526 . S
C486 H470 0.959 . S
C486 H471 0.959 . S
C486 H472 0.961 . S
C486 C485 1.502 . S
C487 H473 0.960 . S
C487 H474 0.961 . S
C487 H475 0.959 . S
C487 C485 1.561 . S
C488 C485 1.526 . S
C488 C489 1.396 . S
C488 C493 1.390 . S
C489 C483 1.465 . S
C489 C488 1.396 . S
C489 C490 1.399 . S
C490 H476 0.929 . S
C490 C489 1.399 . S
C490 C491 1.385 . S
C491 H477 0.931 . S
C491 C490 1.385 . S
C491 C492 1.389 . S
C492 C491 1.389 . S
C492 C493 1.387 . S
C493 H478 0.930 . S
C493 C488 1.390 . S
C493 C492 1.387 . S
H494 C506 0.930 . S
H495 C508 0.930 . S
H496 C509 0.930 . S
H497 C513 0.959 . S
H498 C513 0.959 . S
H499 C513 0.961 . S
H500 C514 0.960 . S
H501 C514 0.961 . S
H502 C514 0.959 . S
H503 C517 0.929 . S
H504 C518 0.931 . S
H505 C520 0.930 . S
C506 H494 0.930 . S
C506 C507 1.399 . S
C506 C511 1.399 . S
C507 C506 1.399 . S
C507 C508 1.376 . S
C508 H495 0.930 . S
C508 C507 1.376 . S
C508 C509 1.388 . S
C509 H496 0.930 . S
C509 C508 1.388 . S
C509 C510 1.390 . S
C510 C509 1.390 . S
C510 C511 1.394 . S
C510 C516 1.465 . S
C511 C506 1.399 . S
C511 C510 1.394 . S
C511 C512 1.516 . S
C512 C511 1.516 . S
C512 C513 1.502 . S
C512 C514 1.561 . S
C512 C515 1.526 . S
C513 H497 0.959 . S
C513 H498 0.959 . S
C513 H499 0.961 . S
C513 C512 1.502 . S
C514 H500 0.960 . S
C514 H501 0.961 . S
C514 H502 0.959 . S
C514 C512 1.561 . S
C515 C512 1.526 . S
C515 C516 1.396 . S
C515 C520 1.390 . S
C516 C510 1.465 . S
C516 C515 1.396 . S
C516 C517 1.399 . S
C517 H503 0.929 . S
C517 C516 1.399 . S
C517 C518 1.385 . S
C518 H504 0.931 . S
C518 C517 1.385 . S
C518 C519 1.389 . S
C519 C518 1.389 . S
C519 C520 1.387 . S
C520 H505 0.930 . S
C520 C515 1.390 . S
C520 C519 1.387 . S
H521 C533 0.930 . S
H522 C535 0.930 . S
H523 C536 0.930 . S
H524 C540 0.959 . S
H525 C540 0.959 . S
H526 C540 0.961 . S
H527 C541 0.960 . S
H528 C541 0.961 . S
H529 C541 0.959 . S
H530 C544 0.929 . S
H531 C545 0.931 . S
H532 C547 0.930 . S
C533 H521 0.930 . S
C533 C534 1.399 . S
C533 C538 1.399 . S
C534 C533 1.399 . S
C534 C535 1.376 . S
C535 H522 0.930 . S
C535 C534 1.376 . S
C535 C536 1.388 . S
C536 H523 0.930 . S
C536 C535 1.388 . S
C536 C537 1.390 . S
C537 C536 1.390 . S
C537 C538 1.394 . S
C537 C543 1.465 . S
C538 C533 1.399 . S
C538 C537 1.394 . S
C538 C539 1.516 . S
C539 C538 1.516 . S
C539 C540 1.502 . S
C539 C541 1.561 . S
C539 C542 1.526 . S
C540 H524 0.959 . S
C540 H525 0.959 . S
C540 H526 0.961 . S
C540 C539 1.502 . S
C541 H527 0.960 . S
C541 H528 0.961 . S
C541 H529 0.959 . S
C541 C539 1.561 . S
C542 C539 1.526 . S
C542 C543 1.396 . S
C542 C547 1.390 . S
C543 C537 1.465 . S
C543 C542 1.396 . S
C543 C544 1.399 . S
C544 H530 0.929 . S
C544 C543 1.399 . S
C544 C545 1.385 . S
C545 H531 0.931 . S
C545 C544 1.385 . S
C545 C546 1.389 . S
C546 C545 1.389 . S
C546 C547 1.387 . S
C547 H532 0.930 . S
C547 C542 1.390 . S
C547 C546 1.387 . S
H548 C560 0.930 . S
H549 C562 0.930 . S
H550 C563 0.930 . S
H551 C567 0.958 1_655 S
H552 C567 0.945 1_655 S
H553 C567 0.976 . S
H554 C568 0.960 1_455 S
H555 C568 0.961 . S
H556 C568 0.959 . S
H557 C571 0.929 . S
H558 C572 0.931 . S
H559 C574 0.930 . S
C560 H548 0.930 . S
C560 C561 1.399 . S
C560 C565 1.399 . S
C561 C560 1.399 . S
C561 C562 1.376 . S
C562 H549 0.930 . S
C562 C561 1.376 . S
C562 C563 1.388 . S
C563 H550 0.930 . S
C563 C562 1.388 . S
C563 C564 1.390 . S
C564 C563 1.390 . S
C564 C565 1.394 . S
C564 C570 1.465 1_455 S
C565 C560 1.399 . S
C565 C564 1.394 . S
C565 C566 1.501 1_455 S
C566 C565 1.501 1_655 S
C566 C567 1.502 1_655 S
C566 C568 1.562 . S
C566 C569 1.541 . S
C567 H551 0.958 1_455 S
C567 H552 0.945 1_455 S
C567 H553 0.976 . S
C567 C566 1.502 1_455 S
C568 H554 0.960 1_655 S
C568 H555 0.961 . S
C568 H556 0.959 . S
C568 C566 1.562 . S
C569 C566 1.541 . S
C569 C570 1.396 . S
C569 C574 1.390 . S
C570 C564 1.465 1_655 S
C570 C569 1.396 . S
C570 C571 1.399 . S
C571 H557 0.929 . S
C571 C570 1.399 . S
C571 C572 1.385 . S
C572 H558 0.931 . S
C572 C571 1.385 . S
C572 C573 1.389 . S
C573 C572 1.389 . S
C573 C574 1.387 . S
C574 H559 0.930 . S
C574 C569 1.390 . S
C574 C573 1.387 . S
H575 C587 0.930 . S
H576 C589 0.930 . S
H577 C590 0.930 . S
H578 C594 0.959 . S
H579 C594 0.959 . S
H580 C594 0.961 . S
H581 C595 0.960 . S
H582 C595 0.961 . S
H583 C595 0.959 . S
H584 C598 0.929 . S
H585 C599 0.931 . S
H586 C601 0.930 . S
C587 H575 0.930 . S
C587 C588 1.399 . S
C587 C592 1.399 . S
C588 C587 1.399 . S
C588 C589 1.376 . S
C589 H576 0.930 . S
C589 C588 1.376 . S
C589 C590 1.388 . S
C590 H577 0.930 . S
C590 C589 1.388 . S
C590 C591 1.390 . S
C591 C590 1.390 . S
C591 C592 1.394 . S
C591 C597 1.465 . S
C592 C587 1.399 . S
C592 C591 1.394 . S
C592 C593 1.516 . S
C593 C592 1.516 . S
C593 C594 1.502 . S
C593 C595 1.561 . S
C593 C596 1.526 . S
C594 H578 0.959 . S
C594 H579 0.959 . S
C594 H580 0.961 . S
C594 C593 1.502 . S
C595 H581 0.960 . S
C595 H582 0.961 . S
C595 H583 0.959 . S
C595 C593 1.561 . S
C596 C593 1.526 . S
C596 C597 1.396 . S
C596 C601 1.390 . S
C597 C591 1.465 . S
C597 C596 1.396 . S
C597 C598 1.399 . S
C598 H584 0.929 . S
C598 C597 1.399 . S
C598 C599 1.385 . S
C599 H585 0.931 . S
C599 C598 1.385 . S
C599 C600 1.389 . S
C600 C599 1.389 . S
C600 C601 1.387 . S
C601 H586 0.930 . S
C601 C596 1.390 . S
C601 C600 1.387 . S
H602 C614 0.930 . S
H603 C616 0.930 . S
H604 C617 0.930 . S
H605 C621 0.959 . S
H606 C621 0.959 . S
H607 C621 0.961 . S
H608 C622 0.960 . S
H609 C622 0.961 . S
H610 C622 0.959 . S
H611 C625 0.929 . S
H612 C626 0.931 . S
H613 C628 0.930 . S
C614 H602 0.930 . S
C614 C615 1.399 . S
C614 C619 1.399 . S
C615 C614 1.399 . S
C615 C616 1.376 . S
C616 H603 0.930 . S
C616 C615 1.376 . S
C616 C617 1.388 . S
C617 H604 0.930 . S
C617 C616 1.388 . S
C617 C618 1.390 . S
C618 C617 1.390 . S
C618 C619 1.394 . S
C618 C624 1.465 . S
C619 C614 1.399 . S
C619 C618 1.394 . S
C619 C620 1.516 . S
C620 C619 1.516 . S
C620 C621 1.502 . S
C620 C622 1.561 . S
C620 C623 1.526 . S
C621 H605 0.959 . S
C621 H606 0.959 . S
C621 H607 0.961 . S
C621 C620 1.502 . S
C622 H608 0.960 . S
C622 H609 0.961 . S
C622 H610 0.959 . S
C622 C620 1.561 . S
C623 C620 1.526 . S
C623 C624 1.396 . S
C623 C628 1.390 . S
C624 C618 1.465 . S
C624 C623 1.396 . S
C624 C625 1.399 . S
C625 H611 0.929 . S
C625 C624 1.399 . S
C625 C626 1.385 . S
C626 H612 0.931 . S
C626 C625 1.385 . S
C626 C627 1.389 . S
C627 C626 1.389 . S
C627 C628 1.387 . S
C628 H613 0.930 . S
C628 C623 1.390 . S
C628 C627 1.387 . S
H629 C641 0.930 . S
H630 C643 0.930 . S
H631 C644 0.930 . S
H632 C648 0.958 . S
H633 C648 0.961 . S
H634 C648 0.959 1_455 S
H635 C649 0.960 1_455 S
H636 C649 0.961 . S
H637 C649 0.959 . S
H638 C652 0.929 . S
H639 C653 0.931 . S
H640 C655 0.930 . S
C641 H629 0.930 . S
C641 C642 1.399 . S
C641 C646 1.399 . S
C642 C641 1.399 . S
C642 C643 1.376 . S
C643 H630 0.930 . S
C643 C642 1.376 . S
C643 C644 1.388 . S
C644 H631 0.930 . S
C644 C643 1.388 . S
C644 C645 1.390 . S
C645 C644 1.390 . S
C645 C646 1.394 . S
C645 C651 1.465 1_455 S
C646 C641 1.399 . S
C646 C645 1.394 . S
C646 C647 1.520 1_455 S
C647 C646 1.520 1_655 S
C647 C648 1.502 . S
C647 C649 1.561 . S
C647 C650 1.522 . S
C648 H632 0.958 . S
C648 H633 0.961 . S
C648 H634 0.959 1_655 S
C648 C647 1.502 . S
C649 H635 0.960 1_655 S
C649 H636 0.961 . S
C649 H637 0.959 . S
C649 C647 1.561 . S
C650 C647 1.522 . S
C650 C651 1.396 . S
C650 C655 1.390 . S
C651 C645 1.465 1_655 S
C651 C650 1.396 . S
C651 C652 1.399 . S
C652 H638 0.929 . S
C652 C651 1.399 . S
C652 C653 1.385 . S
C653 H639 0.931 . S
C653 C652 1.385 . S
C653 C654 1.389 . S
C654 C653 1.389 . S
C654 C655 1.387 . S
C655 H640 0.930 . S
C655 C650 1.390 . S
C655 C654 1.387 . S
H656 C668 0.930 . S
H657 C670 0.930 . S
H658 C671 0.930 . S
H659 C675 0.940 1_554 S
H660 C675 0.959 . S
H661 C675 0.947 1_554 S
H662 C676 0.960 . S
H663 C676 0.961 . S
H664 C676 0.959 . S
H665 C679 0.929 . S
H666 C680 0.931 . S
H667 C682 0.930 . S
C668 H656 0.930 . S
C668 C669 1.399 . S
C668 C673 1.399 . S
C669 C668 1.399 . S
C669 C670 1.376 . S
C670 H657 0.930 . S
C670 C669 1.376 . S
C670 C671 1.388 . S
C671 H658 0.930 . S
C671 C670 1.388 . S
C671 C672 1.390 . S
C672 C671 1.390 . S
C672 C673 1.394 . S
C672 C678 1.465 1_554 S
C673 C668 1.399 . S
C673 C672 1.394 . S
C673 C674 1.516 1_554 S
C674 C673 1.516 1_556 S
C674 C675 1.502 . S
C674 C676 1.561 . S
C674 C677 1.526 . S
C675 H659 0.940 1_556 S
C675 H660 0.959 . S
C675 H661 0.947 1_556 S
C675 C674 1.502 . S
C676 H662 0.960 . S
C676 H663 0.961 . S
C676 H664 0.959 . S
C676 C674 1.561 . S
C677 C674 1.526 . S
C677 C678 1.396 . S
C677 C682 1.390 . S
C678 C672 1.465 1_556 S
C678 C677 1.396 . S
C678 C679 1.399 . S
C679 H665 0.929 . S
C679 C678 1.399 . S
C679 C680 1.385 . S
C680 H666 0.931 . S
C680 C679 1.385 . S
C680 C681 1.389 . S
C681 C680 1.389 . S
C681 C682 1.387 . S
C682 H667 0.930 . S
C682 C677 1.390 . S
C682 C681 1.387 . S
H683 C695 0.930 . S
H684 C697 0.930 . S
H685 C698 0.930 . S
H686 C702 0.959 . S
H687 C702 0.959 . S
H688 C702 0.961 . S
H689 C703 0.960 . S
H690 C703 0.961 . S
H691 C703 0.959 . S
H692 C706 0.929 . S
H693 C707 0.931 . S
H694 C709 0.930 . S
C695 H683 0.930 . S
C695 C696 1.399 . S
C695 C700 1.399 . S
C696 C695 1.399 . S
C696 C697 1.376 . S
C697 H684 0.930 . S
C697 C696 1.376 . S
C697 C698 1.388 . S
C698 H685 0.930 . S
C698 C697 1.388 . S
C698 C699 1.390 . S
C699 C698 1.390 . S
C699 C700 1.394 . S
C699 C705 1.465 . S
C700 C695 1.399 . S
C700 C699 1.394 . S
C700 C701 1.516 . S
C701 C700 1.516 . S
C701 C702 1.502 . S
C701 C703 1.561 . S
C701 C704 1.526 . S
C702 H686 0.959 . S
C702 H687 0.959 . S
C702 H688 0.961 . S
C702 C701 1.502 . S
C703 H689 0.960 . S
C703 H690 0.961 . S
C703 H691 0.959 . S
C703 C701 1.561 . S
C704 C701 1.526 . S
C704 C705 1.396 . S
C704 C709 1.390 . S
C705 C699 1.465 . S
C705 C704 1.396 . S
C705 C706 1.399 . S
C706 H692 0.929 . S
C706 C705 1.399 . S
C706 C707 1.385 . S
C707 H693 0.931 . S
C707 C706 1.385 . S
C707 C708 1.389 . S
C708 C707 1.389 . S
C708 C709 1.387 . S
C709 H694 0.930 . S
C709 C704 1.390 . S
C709 C708 1.387 . S
H710 C722 0.930 . S
H711 C724 0.930 . S
H712 C725 0.930 . S
H713 C729 0.959 . S
H714 C729 0.959 . S
H715 C729 0.961 . S
H716 C730 0.960 . S
H717 C730 0.961 . S
H718 C730 0.959 . S
H719 C733 0.929 . S
H720 C734 0.931 . S
H721 C736 0.930 . S
C722 H710 0.930 . S
C722 C723 1.399 . S
C722 C727 1.399 . S
C723 C722 1.399 . S
C723 C724 1.376 . S
C724 H711 0.930 . S
C724 C723 1.376 . S
C724 C725 1.388 . S
C725 H712 0.930 . S
C725 C724 1.388 . S
C725 C726 1.390 . S
C726 C725 1.390 . S
C726 C727 1.394 . S
C726 C732 1.465 . S
C727 C722 1.399 . S
C727 C726 1.394 . S
C727 C728 1.516 . S
C728 C727 1.516 . S
C728 C729 1.502 . S
C728 C730 1.561 . S
C728 C731 1.526 . S
C729 H713 0.959 . S
C729 H714 0.959 . S
C729 H715 0.961 . S
C729 C728 1.502 . S
C730 H716 0.960 . S
C730 H717 0.961 . S
C730 H718 0.959 . S
C730 C728 1.561 . S
C731 C728 1.526 . S
C731 C732 1.396 . S
C731 C736 1.390 . S
C732 C726 1.465 . S
C732 C731 1.396 . S
C732 C733 1.399 . S
C733 H719 0.929 . S
C733 C732 1.399 . S
C733 C734 1.385 . S
C734 H720 0.931 . S
C734 C733 1.385 . S
C734 C735 1.389 . S
C735 C734 1.389 . S
C735 C736 1.387 . S
C736 H721 0.930 . S
C736 C731 1.390 . S
C736 C735 1.387 . S
H737 C749 0.930 . S
H738 C751 0.930 . S
H739 C752 0.930 . S
H740 C756 0.959 . S
H741 C756 0.959 . S
H742 C756 0.961 . S
H743 C757 0.960 . S
H744 C757 0.961 . S
H745 C757 0.959 . S
H746 C760 0.929 . S
H747 C761 0.931 . S
H748 C763 0.930 . S
C749 H737 0.930 . S
C749 C750 1.399 . S
C749 C754 1.399 . S
C750 C749 1.399 . S
C750 C751 1.376 . S
C751 H738 0.930 . S
C751 C750 1.376 . S
C751 C752 1.388 . S
C752 H739 0.930 . S
C752 C751 1.388 . S
C752 C753 1.390 . S
C753 C752 1.390 . S
C753 C754 1.394 . S
C753 C759 1.465 . S
C754 C749 1.399 . S
C754 C753 1.394 . S
C754 C755 1.516 . S
C755 C754 1.516 . S
C755 C756 1.502 . S
C755 C757 1.561 . S
C755 C758 1.526 . S
C756 H740 0.959 . S
C756 H741 0.959 . S
C756 H742 0.961 . S
C756 C755 1.502 . S
C757 H743 0.960 . S
C757 H744 0.961 . S
C757 H745 0.959 . S
C757 C755 1.561 . S
C758 C755 1.526 . S
C758 C759 1.396 . S
C758 C763 1.390 . S
C759 C753 1.465 . S
C759 C758 1.396 . S
C759 C760 1.399 . S
C760 H746 0.929 . S
C760 C759 1.399 . S
C760 C761 1.385 . S
C761 H747 0.931 . S
C761 C760 1.385 . S
C761 C762 1.389 . S
C762 C761 1.389 . S
C762 C763 1.387 . S
C763 H748 0.930 . S
C763 C758 1.390 . S
C763 C762 1.387 . S
H764 C776 0.930 . S
H765 C778 0.930 . S
H766 C779 0.930 1_554 S
H767 C783 0.959 . S
H768 C783 0.959 . S
H769 C783 0.961 . S
H770 C784 0.960 . S
H771 C784 0.961 . S
H772 C784 0.959 . S
H773 C787 0.929 . S
H774 C788 0.931 . S
H775 C790 0.930 . S
C776 H764 0.930 . S
C776 C777 1.399 . S
C776 C781 1.399 . S
C777 C776 1.399 . S
C777 C778 1.376 . S
C778 H765 0.930 . S
C778 C777 1.376 . S
C778 C779 1.388 . S
C779 H766 0.930 1_556 S
C779 C778 1.388 . S
C779 C780 1.390 . S
C780 C779 1.390 . S
C780 C781 1.394 . S
C780 C786 1.465 1_556 S
C781 C776 1.399 . S
C781 C780 1.394 . S
C781 C782 1.516 . S
C782 C781 1.516 . S
C782 C783 1.502 . S
C782 C784 1.561 . S
C782 C785 1.526 1_556 S
C783 H767 0.959 . S
C783 H768 0.959 . S
C783 H769 0.961 . S
C783 C782 1.502 . S
C784 H770 0.960 . S
C784 H771 0.961 . S
C784 H772 0.959 . S
C784 C782 1.561 . S
C785 C782 1.526 1_554 S
C785 C786 1.396 . S
C785 C790 1.390 . S
C786 C780 1.465 1_554 S
C786 C785 1.396 . S
C786 C787 1.399 . S
C787 H773 0.929 . S
C787 C786 1.399 . S
C787 C788 1.385 . S
C788 H774 0.931 . S
C788 C787 1.385 . S
C788 C789 1.389 . S
C789 C788 1.389 . S
C789 C790 1.387 . S
C790 H775 0.930 . S
C790 C785 1.390 . S
C790 C789 1.387 . S
H791 C803 0.930 . S
H792 C805 0.930 . S
H793 C806 0.930 . S
H794 C810 0.959 . S
H795 C810 0.959 . S
H796 C810 0.961 . S
H797 C811 0.960 . S
H798 C811 0.961 . S
H799 C811 0.959 . S
H800 C814 0.929 . S
H801 C815 0.931 . S
H802 C817 0.930 . S
C803 H791 0.930 . S
C803 C804 1.399 . S
C803 C808 1.399 . S
C804 C803 1.399 . S
C804 C805 1.376 . S
C805 H792 0.930 . S
C805 C804 1.376 . S
C805 C806 1.388 . S
C806 H793 0.930 . S
C806 C805 1.388 . S
C806 C807 1.390 . S
C807 C806 1.390 . S
C807 C808 1.394 . S
C807 C813 1.465 . S
C808 C803 1.399 . S
C808 C807 1.394 . S
C808 C809 1.516 . S
C809 C808 1.516 . S
C809 C810 1.502 . S
C809 C811 1.561 . S
C809 C812 1.526 . S
C810 H794 0.959 . S
C810 H795 0.959 . S
C810 H796 0.961 . S
C810 C809 1.502 . S
C811 H797 0.960 . S
C811 H798 0.961 . S
C811 H799 0.959 . S
C811 C809 1.561 . S
C812 C809 1.526 . S
C812 C813 1.396 . S
C812 C817 1.390 . S
C813 C807 1.465 . S
C813 C812 1.396 . S
C813 C814 1.399 . S
C814 H800 0.929 . S
C814 C813 1.399 . S
C814 C815 1.385 . S
C815 H801 0.931 . S
C815 C814 1.385 . S
C815 C816 1.389 . S
C816 C815 1.389 . S
C816 C817 1.387 . S
C817 H802 0.930 . S
C817 C812 1.390 . S
C817 C816 1.387 . S
H818 C830 0.930 . S
H819 C832 0.930 . S
H820 C833 0.930 . S
H821 C837 0.959 . S
H822 C837 0.959 . S
H823 C837 0.961 . S
H824 C838 0.960 . S
H825 C838 0.961 . S
H826 C838 0.959 . S
H827 C841 0.929 . S
H828 C842 0.931 . S
H829 C844 0.930 . S
C830 H818 0.930 . S
C830 C831 1.399 . S
C830 C835 1.399 . S
C831 C830 1.399 . S
C831 C832 1.376 . S
C832 H819 0.930 . S
C832 C831 1.376 . S
C832 C833 1.388 . S
C833 H820 0.930 . S
C833 C832 1.388 . S
C833 C834 1.390 . S
C834 C833 1.390 . S
C834 C835 1.394 . S
C834 C840 1.465 . S
C835 C830 1.399 . S
C835 C834 1.394 . S
C835 C836 1.516 . S
C836 C835 1.516 . S
C836 C837 1.502 . S
C836 C838 1.561 . S
C836 C839 1.526 . S
C837 H821 0.959 . S
C837 H822 0.959 . S
C837 H823 0.961 . S
C837 C836 1.502 . S
C838 H824 0.960 . S
C838 H825 0.961 . S
C838 H826 0.959 . S
C838 C836 1.561 . S
C839 C836 1.526 . S
C839 C840 1.396 . S
C839 C844 1.390 . S
C840 C834 1.465 . S
C840 C839 1.396 . S
C840 C841 1.399 . S
C841 H827 0.929 . S
C841 C840 1.399 . S
C841 C842 1.385 . S
C842 H828 0.931 . S
C842 C841 1.385 . S
C842 C843 1.389 . S
C843 C842 1.389 . S
C843 C844 1.387 . S
C844 H829 0.930 . S
C844 C839 1.390 . S
C844 C843 1.387 . S
H845 C857 0.930 . S
H846 C859 0.930 . S
H847 C860 0.930 . S
H848 C864 0.959 . S
H849 C864 0.959 . S
H850 C864 0.961 . S
H851 C865 0.960 . S
H852 C865 0.961 . S
H853 C865 0.959 . S
H854 C868 0.929 . S
H855 C869 0.931 . S
H856 C871 0.930 . S
C857 H845 0.930 . S
C857 C858 1.399 . S
C857 C862 1.399 . S
C858 C857 1.399 . S
C858 C859 1.376 . S
C859 H846 0.930 . S
C859 C858 1.376 . S
C859 C860 1.388 . S
C860 H847 0.930 . S
C860 C859 1.388 . S
C860 C861 1.390 . S
C861 C860 1.390 . S
C861 C862 1.394 . S
C861 C867 1.465 . S
C862 C857 1.399 . S
C862 C861 1.394 . S
C862 C863 1.516 . S
C863 C862 1.516 . S
C863 C864 1.502 . S
C863 C865 1.561 . S
C863 C866 1.526 . S
C864 H848 0.959 . S
C864 H849 0.959 . S
C864 H850 0.961 . S
C864 C863 1.502 . S
C865 H851 0.960 . S
C865 H852 0.961 . S
C865 H853 0.959 . S
C865 C863 1.561 . S
C866 C863 1.526 . S
C866 C867 1.396 . S
C866 C871 1.390 . S
C867 C861 1.465 . S
C867 C866 1.396 . S
C867 C868 1.399 . S
C868 H854 0.929 . S
C868 C867 1.399 . S
C868 C869 1.385 . S
C869 H855 0.931 . S
C869 C868 1.385 . S
C869 C870 1.389 . S
C870 C869 1.389 . S
C870 C871 1.387 . S
C871 H856 0.930 . S
C871 C866 1.390 . S
C871 C870 1.387 . S
H872 C884 0.930 . S
H873 C886 0.930 . S
H874 C887 0.930 1_565 S
H875 C891 0.959 1_565 S
H876 C891 0.959 . S
H877 C891 0.961 . S
H878 C892 0.960 . S
H879 C892 0.961 . S
H880 C892 0.959 . S
H881 C895 0.929 . S
H882 C896 0.931 . S
H883 C898 0.930 . S
C884 H872 0.930 . S
C884 C885 1.399 . S
C884 C889 1.399 . S
C885 C884 1.399 . S
C885 C886 1.376 . S
C886 H873 0.930 . S
C886 C885 1.376 . S
C886 C887 1.388 . S
C887 H874 0.930 1_545 S
C887 C886 1.388 . S
C887 C888 1.390 . S
C888 C887 1.390 . S
C888 C889 1.394 . S
C888 C894 1.465 1_545 S
C889 C884 1.399 . S
C889 C888 1.394 . S
C889 C890 1.516 . S
C890 C889 1.516 . S
C890 C891 1.502 . S
C890 C892 1.561 . S
C890 C893 1.526 1_545 S
C891 H875 0.959 1_545 S
C891 H876 0.959 . S
C891 H877 0.961 . S
C891 C890 1.502 . S
C892 H878 0.960 . S
C892 H879 0.961 . S
C892 H880 0.959 . S
C892 C890 1.561 . S
C893 C890 1.526 1_565 S
C893 C894 1.396 . S
C893 C898 1.390 . S
C894 C888 1.465 1_565 S
C894 C893 1.396 . S
C894 C895 1.399 . S
C895 H881 0.929 . S
C895 C894 1.399 . S
C895 C896 1.385 . S
C896 H882 0.931 . S
C896 C895 1.385 . S
C896 C897 1.389 . S
C897 C896 1.389 . S
C897 C898 1.387 . S
C898 H883 0.930 . S
C898 C893 1.390 . S
C898 C897 1.387 . S
H899 C911 0.930 . S
H900 C913 0.930 . S
H901 C914 0.930 . S
H902 C918 0.959 . S
H903 C918 0.959 . S
H904 C918 0.961 . S
H905 C919 0.960 . S
H906 C919 0.961 . S
H907 C919 0.959 . S
H908 C922 0.929 . S
H909 C923 0.931 . S
H910 C925 0.930 . S
C911 H899 0.930 . S
C911 C912 1.399 . S
C911 C916 1.399 . S
C912 C911 1.399 . S
C912 C913 1.376 . S
C913 H900 0.930 . S
C913 C912 1.376 . S
C913 C914 1.388 . S
C914 H901 0.930 . S
C914 C913 1.388 . S
C914 C915 1.390 . S
C915 C914 1.390 . S
C915 C916 1.394 . S
C915 C921 1.465 . S
C916 C911 1.399 . S
C916 C915 1.394 . S
C916 C917 1.516 . S
C917 C916 1.516 . S
C917 C918 1.502 . S
C917 C919 1.561 . S
C917 C920 1.526 . S
C918 H902 0.959 . S
C918 H903 0.959 . S
C918 H904 0.961 . S
C918 C917 1.502 . S
C919 H905 0.960 . S
C919 H906 0.961 . S
C919 H907 0.959 . S
C919 C917 1.561 . S
C920 C917 1.526 . S
C920 C921 1.396 . S
C920 C925 1.390 . S
C921 C915 1.465 . S
C921 C920 1.396 . S
C921 C922 1.399 . S
C922 H908 0.929 . S
C922 C921 1.399 . S
C922 C923 1.385 . S
C923 H909 0.931 . S
C923 C922 1.385 . S
C923 C924 1.389 . S
C924 C923 1.389 . S
C924 C925 1.387 . S
C925 H910 0.930 . S
C925 C920 1.390 . S
C925 C924 1.387 . S
H926 C938 0.930 . S
H927 C940 0.930 . S
H928 C941 0.930 . S
H929 C945 0.959 . S
H930 C945 0.959 . S
H931 C945 0.961 . S
H932 C946 0.960 . S
H933 C946 0.961 . S
H934 C946 0.959 . S
H935 C949 0.929 1_556 S
H936 C950 0.931 . S
H937 C952 0.930 . S
C938 H926 0.930 . S
C938 C939 1.399 . S
C938 C943 1.399 . S
C939 C938 1.399 . S
C939 C940 1.376 . S
C940 H927 0.930 . S
C940 C939 1.376 . S
C940 C941 1.388 1_545 S
C941 H928 0.930 . S
C941 C940 1.388 1_565 S
C941 C942 1.390 . S
C942 C941 1.390 . S
C942 C943 1.393 1_565 S
C942 C948 1.466 1_556 S
C943 C938 1.399 . S
C943 C942 1.393 1_545 S
C943 C944 1.516 1_556 S
C944 C943 1.516 1_554 S
C944 C945 1.502 . S
C944 C946 1.561 . S
C944 C947 1.526 1_545 S
C945 H929 0.959 . S
C945 H930 0.959 . S
C945 H931 0.961 . S
C945 C944 1.502 . S
C946 H932 0.960 . S
C946 H933 0.961 . S
C946 H934 0.959 . S
C946 C944 1.561 . S
C947 C944 1.526 1_565 S
C947 C948 1.396 . S
C947 C952 1.390 . S
C948 C942 1.466 1_554 S
C948 C947 1.396 . S
C948 C949 1.399 . S
C949 H935 0.929 1_554 S
C949 C948 1.399 . S
C949 C950 1.385 . S
C950 H936 0.931 . S
C950 C949 1.385 . S
C950 C951 1.389 . S
C951 C950 1.389 . S
C951 C952 1.387 . S
C952 H937 0.930 . S
C952 C947 1.390 . S
C952 C951 1.387 . S
H953 C965 0.930 . S
H954 C967 0.930 . S
H955 C968 0.930 . S
H956 C972 0.959 . S
H957 C972 0.959 . S
H958 C972 0.961 . S
H959 C973 0.960 . S
H960 C973 0.961 . S
H961 C973 0.959 . S
H962 C976 0.929 . S
H963 C977 0.931 . S
H964 C979 0.930 . S
C965 H953 0.930 . S
C965 C966 1.399 . S
C965 C970 1.399 . S
C966 C965 1.399 . S
C966 C967 1.376 . S
C967 H954 0.930 . S
C967 C966 1.376 . S
C967 C968 1.388 . S
C968 H955 0.930 . S
C968 C967 1.388 . S
C968 C969 1.390 . S
C969 C968 1.390 . S
C969 C970 1.394 . S
C969 C975 1.465 . S
C970 C965 1.399 . S
C970 C969 1.394 . S
C970 C971 1.516 . S
C971 C970 1.516 . S
C971 C972 1.502 . S
C971 C973 1.561 . S
C971 C974 1.526 . S
C972 H956 0.959 . S
C972 H957 0.959 . S
C972 H958 0.961 . S
C972 C971 1.502 . S
C973 H959 0.960 . S
C973 H960 0.961 . S
C973 H961 0.959 . S
C973 C971 1.561 . S
C974 C971 1.526 . S
C974 C975 1.396 . S
C974 C979 1.390 . S
C975 C969 1.465 . S
C975 C974 1.396 . S
C975 C976 1.399 . S
C976 H962 0.929 . S
C976 C975 1.399 . S
C976 C977 1.385 . S
C977 H963 0.931 . S
C977 C976 1.385 . S
C977 C978 1.389 . S
C978 C977 1.389 . S
C978 C979 1.387 . S
C979 H964 0.930 . S
C979 C974 1.390 . S
C979 C978 1.387 . S
H980 C992 0.930 . S
H981 C994 0.930 . S
H982 C995 0.930 . S
H983 C999 0.959 . S
H984 C999 0.959 . S
H985 C999 0.961 . S
H986 C1000 0.960 . S
H987 C1000 0.961 . S
H988 C1000 0.959 . S
H989 C1003 0.929 . S
H990 C1004 0.931 . S
H991 C1006 0.930 . S
C992 H980 0.930 . S
C992 C993 1.399 . S
C992 C997 1.399 . S
C993 C992 1.399 . S
C993 C994 1.376 . S
C994 H981 0.930 . S
C994 C993 1.376 . S
C994 C995 1.388 1_545 S
C995 H982 0.930 . S
C995 C994 1.388 1_565 S
C995 C996 1.390 1_565 S
C996 C995 1.390 1_545 S
C996 C997 1.394 . S
C996 C1002 1.465 1_545 S
C997 C992 1.399 . S
C997 C996 1.394 . S
C997 C998 1.516 . S
C998 C997 1.516 . S
C998 C999 1.502 . S
C998 C1000 1.561 . S
C998 C1001 1.526 1_545 S
C999 H983 0.959 . S
C999 H984 0.959 . S
C999 H985 0.961 . S
C999 C998 1.502 . S
C1000 H986 0.960 . S
C1000 H987 0.961 . S
C1000 H988 0.959 . S
C1000 C998 1.561 . S
C1001 C998 1.526 1_565 S
C1001 C1002 1.396 . S
C1001 C1006 1.390 . S
C1002 C996 1.465 1_565 S
C1002 C1001 1.396 . S
C1002 C1003 1.399 . S
C1003 H989 0.929 . S
C1003 C1002 1.399 . S
C1003 C1004 1.385 . S
C1004 H990 0.931 . S
C1004 C1003 1.385 . S
C1004 C1005 1.389 . S
C1005 C1004 1.389 . S
C1005 C1006 1.387 . S
C1006 H991 0.930 . S
C1006 C1001 1.390 . S
C1006 C1005 1.387 . S
H1007 C1019 0.930 . S
H1008 C1021 0.930 . S
H1009 C1022 0.930 . S
H1010 C1026 0.959 . S
H1011 C1026 0.959 . S
H1012 C1026 0.961 . S
H1013 C1027 0.960 . S
H1014 C1027 0.961 . S
H1015 C1027 0.959 . S
H1016 C1030 0.929 . S
H1017 C1031 0.931 . S
H1018 C1033 0.930 . S
C1019 H1007 0.930 . S
C1019 C1020 1.399 . S
C1019 C1024 1.399 . S
C1020 C1019 1.399 . S
C1020 C1021 1.376 . S
C1021 H1008 0.930 . S
C1021 C1020 1.376 . S
C1021 C1022 1.388 . S
C1022 H1009 0.930 . S
C1022 C1021 1.388 . S
C1022 C1023 1.390 . S
C1023 C1022 1.390 . S
C1023 C1024 1.394 . S
C1023 C1029 1.465 . S
C1024 C1019 1.399 . S
C1024 C1023 1.394 . S
C1024 C1025 1.516 . S
C1025 C1024 1.516 . S
C1025 C1026 1.502 . S
C1025 C1027 1.561 . S
C1025 C1028 1.526 . S
C1026 H1010 0.959 . S
C1026 H1011 0.959 . S
C1026 H1012 0.961 . S
C1026 C1025 1.502 . S
C1027 H1013 0.960 . S
C1027 H1014 0.961 . S
C1027 H1015 0.959 . S
C1027 C1025 1.561 . S
C1028 C1025 1.526 . S
C1028 C1029 1.396 . S
C1028 C1033 1.390 . S
C1029 C1023 1.465 . S
C1029 C1028 1.396 . S
C1029 C1030 1.399 . S
C1030 H1016 0.929 . S
C1030 C1029 1.399 . S
C1030 C1031 1.385 . S
C1031 H1017 0.931 . S
C1031 C1030 1.385 . S
C1031 C1032 1.389 . S
C1032 C1031 1.389 . S
C1032 C1033 1.387 . S
C1033 H1018 0.930 . S
C1033 C1028 1.390 . S
C1033 C1032 1.387 . S
H1034 C1046 0.930 . S
H1035 C1048 0.930 . S
H1036 C1049 0.930 1_556 S
H1037 C1053 0.959 . S
H1038 C1053 0.959 . S
H1039 C1053 0.961 . S
H1040 C1054 0.960 . S
H1041 C1054 0.961 . S
H1042 C1054 0.959 . S
H1043 C1057 0.929 . S
H1044 C1058 0.931 . S
H1045 C1060 0.930 . S
C1046 H1034 0.930 . S
C1046 C1047 1.399 . S
C1046 C1051 1.399 . S
C1047 C1046 1.399 . S
C1047 C1048 1.376 . S
C1048 H1035 0.930 . S
C1048 C1047 1.376 . S
C1048 C1049 1.388 . S
C1049 H1036 0.930 1_554 S
C1049 C1048 1.388 . S
C1049 C1050 1.390 . S
C1050 C1049 1.390 . S
C1050 C1051 1.394 . S
C1050 C1056 1.490 1_554 S
C1051 C1046 1.399 . S
C1051 C1050 1.394 . S
C1051 C1052 1.516 1_565 S
C1052 C1051 1.516 1_545 S
C1052 C1053 1.502 . S
C1052 C1054 1.561 . S
C1052 C1055 1.526 1_554 S
C1053 H1037 0.959 . S
C1053 H1038 0.959 . S
C1053 H1039 0.961 . S
C1053 C1052 1.502 . S
C1054 H1040 0.960 . S
C1054 H1041 0.961 . S
C1054 H1042 0.959 . S
C1054 C1052 1.561 . S
C1055 C1052 1.526 1_556 S
C1055 C1056 1.360 1_545 S
C1055 C1060 1.390 . S
C1056 C1050 1.490 1_556 S
C1056 C1055 1.360 1_565 S
C1056 C1057 1.406 . S
C1057 H1043 0.929 . S
C1057 C1056 1.406 . S
C1057 C1058 1.385 1_565 S
C1058 H1044 0.931 . S
C1058 C1057 1.385 1_545 S
C1058 C1059 1.389 . S
C1059 C1058 1.389 . S
C1059 C1060 1.387 . S
C1060 H1045 0.930 . S
C1060 C1055 1.390 . S
C1060 C1059 1.387 . S
H1061 C1073 0.930 . S
H1062 C1075 0.930 . S
H1063 C1076 0.930 . S
H1064 C1080 0.959 . S
H1065 C1080 0.959 . S
H1066 C1080 0.961 . S
H1067 C1081 0.960 . S
H1068 C1081 0.961 . S
H1069 C1081 0.959 . S
H1070 C1084 0.929 . S
H1071 C1085 0.931 . S
H1072 C1087 0.930 . S
C1073 H1061 0.930 . S
C1073 C1074 1.399 . S
C1073 C1078 1.399 . S
C1074 C1073 1.399 . S
C1074 C1075 1.376 . S
C1075 H1062 0.930 . S
C1075 C1074 1.376 . S
C1075 C1076 1.388 . S
C1076 H1063 0.930 . S
C1076 C1075 1.388 . S
C1076 C1077 1.390 . S
C1077 C1076 1.390 . S
C1077 C1078 1.394 . S
C1077 C1083 1.465 . S
C1078 C1073 1.399 . S
C1078 C1077 1.394 . S
C1078 C1079 1.516 . S
C1079 C1078 1.516 . S
C1079 C1080 1.502 . S
C1079 C1081 1.561 . S
C1079 C1082 1.526 . S
C1080 H1064 0.959 . S
C1080 H1065 0.959 . S
C1080 H1066 0.961 . S
C1080 C1079 1.502 . S
C1081 H1067 0.960 . S
C1081 H1068 0.961 . S
C1081 H1069 0.959 . S
C1081 C1079 1.561 . S
C1082 C1079 1.526 . S
C1082 C1083 1.396 . S
C1082 C1087 1.390 . S
C1083 C1077 1.465 . S
C1083 C1082 1.396 . S
C1083 C1084 1.399 . S
C1084 H1070 0.929 . S
C1084 C1083 1.399 . S
C1084 C1085 1.385 . S
C1085 H1071 0.931 . S
C1085 C1084 1.385 . S
C1085 C1086 1.389 . S
C1086 C1085 1.389 . S
C1086 C1087 1.387 . S
C1087 H1072 0.930 . S
C1087 C1082 1.390 . S
C1087 C1086 1.387 . S
C237 C162 1.276 . S
C249 C13 1.244 . S
C264 C223 1.401 . S
C276 C22 1.368 . S
C291 C41 1.231 . S
C303 C139 1.239 . S
C318 C195 1.210 . S
C330 C55 1.188 . S
C345 C69 1.420 . S
C357 C190 1.370 . S
C372 C78 1.423 . S
C384 C167 1.404 . S
C399 C92 1.413 . S
C411 C218 1.420 . S
C426 C111 1.383 . S
C438 C134 1.344 . S
C453 C50 1.289 . S
C465 C125 1.226 . S
C480 C148 1.409 . S
C492 C27 1.442 . S
C507 C181 1.287 . S
C519 C83 1.289 . S
C534 C204 1.473 . S
C546 C106 1.466 . S
C561 C64 1.435 . S
C573 C120 1.432 . S
C588 C153 1.240 . S
C600 C97 1.219 . S
C615 C209 1.477 . S
C627 C36 1.403 . S
C642 C8 1.410 . S
C654 C176 1.415 . S
C669 C7 1.202 . S
C681 C63 1.190 . S
C696 C25 1.054 . S
C708 C81 1.049 . S
C723 C35 1.251 . S
C735 C95 1.248 . S
C750 C105 1.262 . S
C762 C49 1.233 . S
C777 C119 1.169 . S
C789 C175 1.197 . S
C804 C189 1.158 . S
C816 C137 1.181 . S
C831 C151 1.124 . S
C843 C207 1.107 . S
C858 C217 1.296 . S
C870 C161 1.278 . S
C885 C109 1.209 . S
C897 C21 1.205 . S
C912 C39 1.171 . S
C924 C67 1.153 . S
C939 C53 1.219 . S
C951 C77 1.205 . S
C966 C11 1.101 . S
C978 C91 1.080 . S
C993 C133 1.185 . S
C1005 C221 1.210 . S
C1020 C179 1.269 . S
C1032 C147 1.268 . S
C1047 C165 1.111 . S
C1059 C193 1.091 . S
C1074 C203 1.083 . S
C1086 C123 1.111 . S
