# Generated by pormake.
# Topology uom, (4)-cn, num edge types: 1
# Building blocks:
#     Node 0, Type 0, BuildingBlock: KOZSID_clean_sbu_0, # of connection points: 4
#     Node 1, Type 0, BuildingBlock: KOZSID_clean_sbu_0, # of connection points: 4
#     Node 2, Type 0, BuildingBlock: KOZSID_clean_sbu_0, # of connection points: 4
#     Node 3, Type 0, BuildingBlock: KOZSID_clean_sbu_0, # of connection points: 4
#     Node 4, Type 0, BuildingBlock: KOZSID_clean_sbu_0, # of connection points: 4
#     Node 5, Type 0, BuildingBlock: KOZSID_clean_sbu_0, # of connection points: 4
#     Edge 6, Type (0, 0), BuildingBlock: XUDNAN_clean_linker_2, # of connection points: 2
#     Edge 7, Type (0, 0), BuildingBlock: XUDNAN_clean_linker_2, # of connection points: 2
#     Edge 8, Type (0, 0), BuildingBlock: XUDNAN_clean_linker_2, # of connection points: 2
#     Edge 9, Type (0, 0), BuildingBlock: XUDNAN_clean_linker_2, # of connection points: 2
#     Edge 10, Type (0, 0), BuildingBlock: XUDNAN_clean_linker_2, # of connection points: 2
#     Edge 11, Type (0, 0), BuildingBlock: XUDNAN_clean_linker_2, # of connection points: 2
#     Edge 12, Type (0, 0), BuildingBlock: XUDNAN_clean_linker_2, # of connection points: 2
#     Edge 13, Type (0, 0), BuildingBlock: XUDNAN_clean_linker_2, # of connection points: 2
#     Edge 14, Type (0, 0), BuildingBlock: XUDNAN_clean_linker_2, # of connection points: 2
#     Edge 15, Type (0, 0), BuildingBlock: XUDNAN_clean_linker_2, # of connection points: 2
#     Edge 16, Type (0, 0), BuildingBlock: XUDNAN_clean_linker_2, # of connection points: 2
#     Edge 17, Type (0, 0), BuildingBlock: XUDNAN_clean_linker_2, # of connection points: 2
# Relax obj value: 0.150
# Max RMSD: 0.172
# Mean RMSD: 0.172
data_MOF--net-uom--node1-KOZSID_clean_sbu_0--edge1-XUDNAN_clean_linker_2
_symmetry_space_group_name_H-M    P1
_symmetry_Int_Tables_number       1
_symmetry_cell_setting            triclinic
loop_
_symmetry_equiv_pos_as_xyz
'x, y, z'
_cell_length_a     38.041337
_cell_length_b     38.032321
_cell_length_c     41.943323
_cell_angle_alpha  90.017723
_cell_angle_beta   89.982667
_cell_angle_gamma 119.8264
loop_
_atom_site_label
_atom_site_type_symbol
_atom_site_fract_x
_atom_site_fract_y
_atom_site_fract_z
_atom_type_partial_charge
C0 C 0.34935 0.12584 0.10961 0.0
C1 C 0.33708 0.10349 0.13759 0.0
C2 C 0.32579 0.06421 0.12954 0.0
C3 C 0.33191 0.06474 0.0972 0.0
N4 N 0.34626 0.1019 0.08457 0.0
Co5 Co 0.35916 0.1161 0.03904 0.0
N6 N 0.32429 0.05908 0.02527 0.0
C7 C 0.31171 0.02626 0.04399 0.0
C8 C 0.28731 0.99074 0.02802 0.0
C9 C 0.28463 0.00203 0.99738 0.0
C10 C 0.30784 0.04399 0.99626 0.0
N11 N 0.37203 0.13022 0.99345 0.0
C12 C 0.35162 0.10949 0.96704 0.0
C13 C 0.37122 0.13057 0.93966 0.0
C14 C 0.40495 0.16567 0.9495 0.0
C15 C 0.40421 0.16407 0.98227 0.0
N16 N 0.39386 0.17306 0.05297 0.0
C17 C 0.42352 0.20266 0.03558 0.0
C18 C 0.44119 0.23944 0.05098 0.0
C19 C 0.42145 0.23233 0.07978 0.0
C20 C 0.39284 0.19138 0.08052 0.0
N21 N 0.40528 0.10686 0.0425 0.0
C22 C 0.46941 0.09114 0.04777 0.0
C23 C 0.46268 0.11291 0.07153 0.0
C24 C 0.4305 0.12062 0.06839 0.0
C25 C 0.44396 0.07782 0.02121 0.0
C26 C 0.41208 0.08594 0.01902 0.0
N27 N 0.31347 0.1252 0.03532 0.0
C28 C 0.28429 0.16302 0.01314 0.0
C29 C 0.24653 0.13481 0.02547 0.0
C30 C 0.24303 0.1024 0.04364 0.0
C31 C 0.27687 0.09797 0.04809 0.0
C32 C 0.31756 0.15794 0.0187 0.0
H33 H 0.27324 0.07202 0.06123 0.0
H34 H 0.34639 0.18 0.00893 0.0
H35 H 0.42572 0.13733 0.08705 0.0
H36 H 0.39262 0.07484 0.99842 0.0
C37 C 0.31726 0.03066 0.0772 0.0
C38 C 0.36618 0.17001 0.10785 0.0
C39 C 0.31558 0.06867 0.96725 0.0
C40 C 0.42782 0.19639 1.00307 0.0
H41 H 0.33641 0.11446 0.16127 0.0
H42 H 0.3129 0.03813 0.14519 0.0
H43 H 0.27175 0.96038 0.03778 0.0
H44 H 0.26747 0.98163 0.97823 0.0
H45 H 0.36215 0.12145 0.91522 0.0
H46 H 0.42638 0.19018 0.93453 0.0
H47 H 0.46415 0.26844 0.04173 0.0
H48 H 0.4273 0.25489 0.09783 0.0
H49 H 0.48187 0.12348 0.09247 0.0
H50 H 0.44833 0.06071 1.0025 0.0
H51 H 0.28797 0.18861 0.99918 0.0
H52 H 0.21407 0.07988 0.05333 0.0
C53 C 0.32258 0.34275 0.44099 0.0
C54 C 0.33321 0.33171 0.46936 0.0
C55 C 0.36528 0.32583 0.46256 0.0
C56 C 0.37257 0.33369 0.43052 0.0
N57 N 0.34688 0.34386 0.41685 0.0
Co58 Co 0.3475 0.35819 0.37136 0.0
N59 N 0.37869 0.33138 0.35867 0.0
C60 C 0.40073 0.32203 0.37834 0.0
C61 C 0.41699 0.30147 0.36299 0.0
C62 C 0.40435 0.2978 0.33182 0.0
C63 C 0.38121 0.31666 0.32975 0.0
N64 N 0.34837 0.37254 0.32592 0.0
C65 C 0.35363 0.35488 0.29965 0.0
C66 C 0.35117 0.37383 0.27219 0.0
C67 C 0.34379 0.40416 0.28187 0.0
C68 C 0.34231 0.40218 0.31464 0.0
N69 N 0.31607 0.38485 0.38386 0.0
C70 C 0.31279 0.41283 0.36651 0.0
C71 C 0.28906 0.42596 0.38116 0.0
C72 C 0.27702 0.40513 0.40952 0.0
C73 C 0.29426 0.38046 0.41072 0.0
N74 N 0.39788 0.40898 0.37848 0.0
C75 C 0.46779 0.48411 0.38695 0.0
C76 C 0.43606 0.46993 0.40902 0.0
C77 C 0.40156 0.43228 0.40447 0.0
C78 C 0.46442 0.45937 0.36105 0.0
C79 C 0.42912 0.42197 0.35717 0.0
N80 N 0.29758 0.30795 0.36419 0.0
C81 C 0.23274 0.27142 0.33874 0.0
C82 C 0.22803 0.23526 0.35105 0.0
C83 C 0.25838 0.23597 0.37022 0.0
C84 C 0.2931 0.27268 0.37636 0.0
C85 C 0.26767 0.30765 0.34594 0.0
H86 H 0.31652 0.27251 0.39066 0.0
H87 H 0.27069 0.33536 0.33651 0.0
H88 H 0.37754 0.42237 0.42177 0.0
H89 H 0.42674 0.40389 0.33658 0.0
C90 C 0.39778 0.32499 0.41155 0.0
C91 C 0.29177 0.35528 0.43833 0.0
C92 C 0.36303 0.32169 0.30023 0.0
C93 C 0.32674 0.42072 0.3348 0.0
H94 H 0.31948 0.32862 0.49255 0.0
H95 H 0.38042 0.3156 0.47882 0.0
H96 H 0.43391 0.28847 0.37353 0.0
H97 H 0.41103 0.28244 0.31314 0.0
H98 H 0.35412 0.36631 0.24782 0.0
H99 H 0.33799 0.42375 0.26673 0.0
H100 H 0.28027 0.44701 0.37186 0.0
H101 H 0.25794 0.40799 0.42726 0.0
H102 H 0.43776 0.48795 0.42959 0.0
H103 H 0.48826 0.46939 0.34338 0.0
H104 H 0.20939 0.27172 0.32414 0.0
H105 H 0.25547 0.20829 0.38006 0.0
C106 C 0.08 0.31493 0.77399 0.0
C107 C 0.10222 0.31593 0.80065 0.0
C108 C 0.14203 0.34361 0.79448 0.0
C109 C 0.14256 0.35728 0.76414 0.0
N110 N 0.10546 0.33948 0.75079 0.0
Co111 Co 0.09403 0.34515 0.70539 0.0
N112 N 0.15132 0.36671 0.69248 0.0
C113 C 0.1834 0.38296 0.71219 0.0
C114 C 0.21918 0.39401 0.69656 0.0
C115 C 0.20881 0.38412 0.66511 0.0
C116 C 0.16713 0.36767 0.66324 0.0
N117 N 0.08252 0.35055 0.66018 0.0
C118 C 0.10364 0.35236 0.63357 0.0
C119 C 0.0845 0.35561 0.60653 0.0
C120 C 0.05022 0.35579 0.6168 0.0
C121 C 0.05037 0.35273 0.64947 0.0
N122 N 0.03689 0.32383 0.71802 0.0
C123 C 0.00988 0.32984 0.70168 0.0
C124 C 0.97357 0.31505 0.71736 0.0
C125 C 0.97819 0.2989 0.74527 0.0
C126 C 0.01708 0.30417 0.74498 0.0
N127 N 0.10496 0.40038 0.7138 0.0
C128 C 0.11633 0.47833 0.72434 0.0
C129 C 0.13304 0.47003 0.6975 0.0
C130 C 0.12698 0.43096 0.69266 0.0
C131 C 0.09433 0.44668 0.74596 0.0
C132 C 0.08932 0.40827 0.74042 0.0
N133 N 0.08313 0.29042 0.69693 0.0
C134 C 0.04366 0.22584 0.67127 0.0
C135 C 0.06994 0.21328 0.68317 0.0
C136 C 0.10271 0.2398 0.7021 0.0
C137 C 0.10895 0.27831 0.70848 0.0
C138 C 0.05053 0.26452 0.67881 0.0
H139 H 0.13496 0.29842 0.7225 0.0
H140 H 0.02976 0.27367 0.66977 0.0
H141 H 0.13982 0.42541 0.67163 0.0
H142 H 0.07212 0.38471 0.75752 0.0
C143 C 0.17744 0.37845 0.74526 0.0
C144 C 0.03501 0.29268 0.7716 0.0
C145 C 0.14326 0.3543 0.63357 0.0
C146 C 0.018 0.34427 0.67013 0.0
H147 H 0.09181 0.29783 0.82199 0.0
H148 H 0.16784 0.35046 0.80944 0.0
H149 H 0.24892 0.40551 0.70702 0.0
H150 H 0.22955 0.38806 0.64601 0.0
H151 H 0.09443 0.35786 0.58205 0.0
H152 H 0.02714 0.35635 0.60208 0.0
H153 H 0.94661 0.31512 0.70921 0.0
H154 H 0.95563 0.28528 0.76385 0.0
H155 H 0.15087 0.49349 0.68035 0.0
H156 H 0.0802 0.45113 0.76681 0.0
H157 H 0.01796 0.20585 0.6566 0.0
H158 H 0.12385 0.23107 0.7114 0.0
C159 C 0.85144 0.07099 0.10296 0.0
C160 C 0.85641 0.09404 0.13002 0.0
C161 C 0.85775 0.12904 0.11998 0.0
C162 C 0.85351 0.12555 0.08744 0.0
N163 N 0.85009 0.09077 0.07634 0.0
Co164 Co 0.84183 0.0738 0.03079 0.0
N165 N 0.86104 0.12983 0.01537 0.0
C166 C 0.86237 0.16 0.03302 0.0
C167 C 0.87532 0.19512 0.01596 0.0
C168 C 0.88253 0.18644 0.9857 0.0
C169 C 0.87398 0.14642 0.98595 0.0
N170 N 0.83383 0.057 0.98522 0.0
C171 C 0.85199 0.07926 0.95865 0.0
C172 C 0.84335 0.05376 0.93247 0.0
C173 C 0.81711 0.0152 0.94262 0.0
C174 C 0.81206 0.0186 0.97458 0.0
N175 N 0.82259 0.01763 0.04611 0.0
C176 C 0.80112 0.98372 0.02877 0.0
C177 C 0.79217 0.94905 0.04516 0.0
C178 C 0.80859 0.96185 0.07485 0.0
C179 C 0.82651 0.00383 0.07503 0.0
N180 N 0.78635 0.06441 0.03295 0.0
C181 C 0.7094 0.05706 0.03874 0.0
C182 C 0.73309 0.07412 0.01136 0.0
C183 C 0.77135 0.0775 0.00894 0.0
C184 C 0.72485 0.04282 0.06272 0.0
C185 C 0.76302 0.04647 0.05927 0.0
N186 N 0.89695 0.08355 0.02864 0.0
C187 C 0.94475 0.0656 0.00807 0.0
C188 C 0.97664 0.10191 0.01968 0.0
C189 C 0.9681 0.12824 0.03683 0.0
C190 C 0.92796 0.11863 0.04083 0.0
C191 C 0.90501 0.0567 0.01321 0.0
H192 H 0.92208 0.14004 0.05311 0.0
H193 H 0.88089 0.02857 1.00404 0.0
H194 H 0.78909 0.09134 0.98782 0.0
H195 H 0.77398 0.03554 0.07835 0.0
C196 C 0.8577 0.15598 0.06625 0.0
C197 C 0.84336 0.02882 0.10393 0.0
C198 C 0.87546 0.12431 0.95739 0.0
C199 C 0.79636 0.98613 0.99598 0.0
H200 H 0.858 0.08598 0.15452 0.0
H201 H 0.86206 0.15431 0.13465 0.0
H202 H 0.88023 0.22401 0.02469 0.0
H203 H 0.89257 0.20718 0.96573 0.0
H204 H 0.85544 0.06141 0.9086 0.0
H205 H 0.80586 0.98761 0.92883 0.0
H206 H 0.7769 0.91826 0.03626 0.0
H207 H 0.80716 0.9424 0.09422 0.0
H208 H 0.72226 0.08486 0.99187 0.0
H209 H 0.70813 0.02983 0.08452 0.0
H210 H 0.95053 0.04432 0.99514 0.0
H211 H 0.99227 0.15652 0.04623 0.0
C212 C 0.88172 0.85914 0.44616 0.0
C213 C 0.87099 0.86865 0.47518 0.0
C214 C 0.84112 0.87795 0.46888 0.0
C215 C 0.83514 0.87345 0.43649 0.0
N216 N 0.85946 0.862 0.42213 0.0
Co217 Co 0.86004 0.85142 0.37593 0.0
N218 N 0.8338 0.88373 0.36494 0.0
C219 C 0.81316 0.8941 0.38536 0.0
C220 C 0.7995 0.9177 0.37138 0.0
C221 C 0.81201 0.92208 0.34022 0.0
C222 C 0.83236 0.90045 0.33669 0.0
N223 N 0.86025 0.8406 0.32967 0.0
C224 C 0.85599 0.86017 0.30412 0.0
C225 C 0.85768 0.84194 0.27592 0.0
C226 C 0.86317 0.81005 0.28427 0.0
C227 C 0.8644 0.81035 0.31702 0.0
N228 N 0.88672 0.81956 0.38715 0.0
C229 C 0.88864 0.79193 0.36834 0.0
C230 C 0.91038 0.77586 0.38202 0.0
C231 C 0.92266 0.79446 0.41125 0.0
C232 C 0.90748 0.8208 0.41393 0.0
N233 N 0.80683 0.80292 0.37988 0.0
C234 C 0.72927 0.73625 0.38672 0.0
C235 C 0.73813 0.76343 0.36157 0.0
C236 C 0.77715 0.79625 0.35835 0.0
C237 C 0.76007 0.74227 0.40799 0.0
C238 C 0.79867 0.7761 0.40433 0.0
N239 N 0.9126 0.89954 0.37167 0.0
C240 C 0.97743 0.93403 0.34604 0.0
C241 C 0.984 0.97067 0.35888 0.0
C242 C 0.95511 0.97094 0.37931 0.0
C243 C 0.91946 0.93497 0.38533 0.0
C244 C 0.94162 0.89861 0.35307 0.0
H245 H 0.89691 0.93602 0.40019 0.0
H246 H 0.93689 0.87069 0.3427 0.0
H247 H 0.78308 0.8166 0.33863 0.0
H248 H 0.82171 0.78092 0.42153 0.0
C249 C 0.81349 0.88718 0.4182 0.0
C250 C 0.91123 0.84514 0.4425 0.0
C251 C 0.84686 0.89359 0.30585 0.0
C252 C 0.87661 0.78804 0.33624 0.0
H253 H 0.88344 0.86879 0.49842 0.0
H254 H 0.82685 0.88851 0.48573 0.0
H255 H 0.78383 0.93153 0.38276 0.0
H256 H 0.80654 0.93916 0.32222 0.0
H257 H 0.85499 0.85063 0.25187 0.0
H258 H 0.86735 0.79007 0.26829 0.0
H259 H 0.91815 0.75467 0.37142 0.0
H260 H 0.94084 0.7893 0.42838 0.0
H261 H 0.71496 0.75936 0.34456 0.0
H262 H 0.75404 0.72172 0.42777 0.0
H263 H -0.00037 0.93283 0.33058 0.0
H264 H 0.95942 0.99893 0.38965 0.0
C265 C 0.1277 0.88524 0.77453 0.0
C266 C 0.10645 0.87171 0.80295 0.0
C267 C 0.07005 0.83791 0.79573 0.0
C268 C 0.07106 0.83254 0.7634 0.0
N269 N 0.10573 0.86106 0.74995 0.0
Co270 Co 0.1197 0.86369 0.70418 0.0
N271 N 0.06222 0.8289 0.69158 0.0
C272 C 0.03185 0.80413 0.71105 0.0
C273 C 0.99494 0.78581 0.69583 0.0
C274 C 0.00281 0.80003 0.66498 0.0
C275 C 0.04429 0.82616 0.66297 0.0
N276 N 0.13352 0.86589 0.6585 0.0
C277 C 0.10991 0.85963 0.63256 0.0
C278 C 0.13176 0.86513 0.60475 0.0
C279 C 0.17049 0.87553 0.61388 0.0
C280 C 0.17011 0.87566 0.64667 0.0
N281 N 0.17724 0.89891 0.71653 0.0
C282 C 0.20947 0.90604 0.6986 0.0
C283 C 0.24563 0.93176 0.71324 0.0
C284 C 0.23542 0.94103 0.74224 0.0
C285 C 0.19342 0.92021 0.74381 0.0
N286 N 0.12535 0.81553 0.70951 0.0
C287 C 0.12907 0.74437 0.71971 0.0
C288 C 0.14886 0.77783 0.74021 0.0
C289 C 0.14629 0.81272 0.73492 0.0
C290 C 0.10845 0.74811 0.6933 0.0
C291 C 0.1073 0.78395 0.68849 0.0
N292 N 0.11362 0.91111 0.69878 0.0
C293 C 0.13309 0.97435 0.67268 0.0
C294 C 0.09878 0.9741 0.68498 0.0
C295 C 0.0728 0.94249 0.7051 0.0
C296 C 0.08067 0.91123 0.7116 0.0
C297 C 0.14025 0.94274 0.68022 0.0
H298 H 0.05941 0.88654 0.72627 0.0
H299 H 0.16672 0.94333 0.6704 0.0
H300 H 0.16088 0.83724 0.75175 0.0
H301 H 0.09104 0.78577 0.66807 0.0
C302 C 0.03803 0.8061 0.74421 0.0
C303 C 0.16975 0.91889 0.77211 0.0
C304 C 0.06655 0.84697 0.63374 0.0
C305 C 0.20434 0.89333 0.6666 0.0
H306 H 0.11639 0.88469 0.82644 0.0
H307 H 0.0453 0.8203 0.81196 0.0
H308 H 0.96549 0.76638 0.70632 0.0
H309 H 0.98041 0.79235 0.64646 0.0
H310 H 0.12091 0.86233 0.58051 0.0
H311 H 0.19631 0.88425 0.59841 0.0
H312 H 0.27582 0.94357 0.70358 0.0
H313 H 0.25654 0.96065 0.76014 0.0
H314 H 0.16619 0.77723 0.76046 0.0
H315 H 0.09232 0.72325 0.67682 0.0
H316 H 0.15421 0.99879 0.65747 0.0
H317 H 0.04597 0.94137 0.71505 0.0
H318 H 0.42147 0.22599 0.15099 0.0
H319 H 0.29392 0.16121 0.12671 0.0
H320 H 0.27922 0.19269 0.17275 0.0
H321 H 0.40915 0.21886 0.23569 0.0
H322 H 0.45068 0.26897 0.24379 0.0
H323 H 0.45149 0.24221 0.2086 0.0
H324 H 0.4607 0.30198 0.17321 0.0
H325 H 0.46035 0.32912 0.20832 0.0
H326 H 0.42503 0.31996 0.17645 0.0
H327 H 0.27822 0.23053 0.22245 0.0
H328 H 0.2912 0.27217 0.27114 0.0
H329 H 0.4197 0.31489 0.26243 0.0
C330 C 0.3906 0.21919 0.15498 0.0
C331 C 0.35886 0.19177 0.13476 0.0
C332 C 0.31869 0.18249 0.14159 0.0
C333 C 0.31009 0.20021 0.16773 0.0
C334 C 0.34199 0.22726 0.18711 0.0
C335 C 0.38151 0.23688 0.18099 0.0
C336 C 0.41014 0.2666 0.20576 0.0
C337 C 0.43163 0.24804 0.22457 0.0
C338 C 0.44087 0.3068 0.18999 0.0
C339 C 0.38061 0.27204 0.22685 0.0
C340 C 0.34141 0.24896 0.21569 0.0
C341 C 0.30883 0.24867 0.23132 0.0
C342 C 0.31644 0.27239 0.25897 0.0
C343 C 0.35626 0.29614 0.27102 0.0
C344 C 0.38877 0.29621 0.25438 0.0
H345 H 0.29363 0.41033 0.48259 0.0
H346 H 0.22715 0.28344 0.45648 0.0
H347 H 0.18141 0.26941 0.50276 0.0
H348 H 0.28877 0.39496 0.56731 0.0
H349 H 0.28281 0.43795 0.57673 0.0
H350 H 0.30936 0.43823 0.54107 0.0
H351 H 0.26068 0.45193 0.50699 0.0
H352 H 0.23411 0.45191 0.54257 0.0
H353 H 0.20678 0.41824 0.51012 0.0
H354 H 0.14298 0.26926 0.55261 0.0
H355 H 0.1162 0.28278 0.60225 0.0
H356 H 0.20737 0.40977 0.59639 0.0
C357 C 0.26905 0.37974 0.48646 0.0
C358 C 0.26338 0.34798 0.46563 0.0
C359 C 0.23161 0.30818 0.47191 0.0
C360 C 0.20556 0.29999 0.49816 0.0
C361 C 0.21175 0.33192 0.51821 0.0
C362 C 0.24277 0.37104 0.51268 0.0
C363 C 0.24338 0.39971 0.53828 0.0
C364 C 0.28347 0.41884 0.55695 0.0
C365 C 0.23578 0.43238 0.52361 0.0
C366 C 0.20802 0.3707 0.55911 0.0
C367 C 0.1901 0.33172 0.54706 0.0
C368 C 0.15692 0.29967 0.56221 0.0
C369 C 0.14186 0.30757 0.59038 0.0
C370 C 0.16003 0.34709 0.60342 0.0
C371 C 0.1933 0.3791 0.58728 0.0
H372 H 0.95061 0.19299 0.94603 0.0
H373 H 0.83802 0.1107 0.89849 0.0
H374 H 0.86881 0.14024 0.84661 0.0
H375 H 0.96171 0.27806 0.89537 0.0
H376 H 0.01629 0.30381 0.89644 0.0
H377 H 0.98735 0.27258 0.92952 0.0
H378 H 0.02459 0.23148 0.92415 0.0
H379 H 0.05296 0.26201 0.89058 0.0
H380 H 0.02328 0.20771 0.88663 0.0
H381 H 0.91645 0.17266 0.79904 0.0
H382 H 0.96702 0.21993 0.7606 0.0
H383 H 0.03749 0.29721 0.83921 0.0
C384 C 0.93245 0.18111 0.92469 0.0
C385 C 0.89288 0.1467 0.92629 0.0
C386 C 0.86954 0.13417 0.89787 0.0
C387 C 0.88661 0.15127 0.86819 0.0
C388 C 0.9263 0.18341 0.86726 0.0
C389 C 0.94803 0.19991 0.89493 0.0
C390 C 0.98759 0.23856 0.88745 0.0
C391 C 0.98827 0.27545 0.90312 0.0
C392 C 0.02427 0.23469 0.89783 0.0
C393 C 0.98523 0.24015 0.85123 0.0
C394 C 0.95029 0.20712 0.8401 0.0
C395 C 0.94329 0.19941 0.80754 0.0
C396 C 0.97229 0.22655 0.78583 0.0
C397 C 0.00715 0.26247 0.79632 0.0
C398 C 0.01293 0.26941 0.82977 0.0
H399 H 0.90086 0.028 0.14454 0.0
H400 H 0.77192 0.98198 0.13433 0.0
H401 H 0.75916 0.94217 0.18389 0.0
H402 H 0.89434 0.9367 0.17551 0.0
H403 H 0.93519 0.96191 0.20369 0.0
H404 H 0.93476 0.98751 0.16768 0.0
H405 H 0.93963 0.04709 0.20096 0.0
H406 H 0.94038 0.02179 0.23707 0.0
H407 H 0.90281 0.03702 0.23184 0.0
H408 H 0.75964 0.9042 0.23265 0.0
H409 H 0.77377 0.87564 0.2807 0.0
H410 H 0.90264 0.94777 0.26235 0.0
C411 C 0.87006 0.00977 0.15302 0.0
C412 C 0.83724 0.00777 0.13549 0.0
C413 C 0.79736 0.98371 0.14732 0.0
C414 C 0.78986 0.96095 0.1754 0.0
C415 C 0.82261 0.9628 0.19183 0.0
C416 C 0.86201 0.98697 0.1814 0.0
C417 C 0.89158 0.9836 0.20402 0.0
C418 C 0.91537 0.96641 0.18668 0.0
C419 C 0.9203 0.02483 0.21938 0.0
C420 C 0.86263 0.95364 0.22858 0.0
C421 C 0.82297 0.94188 0.22083 0.0
C422 C 0.79061 0.91367 0.23918 0.0
C423 C 0.79889 0.89761 0.26646 0.0
C424 C 0.83923 0.91015 0.27569 0.0
C425 C 0.87151 0.93811 0.25613 0.0
H426 H 0.00568 0.79019 0.59436 0.0
H427 H 0.0838 0.91934 0.60816 0.0
H428 H 0.05447 0.93277 0.56011 0.0
H429 H 0.00879 0.79053 0.50872 0.0
H430 H 0.95631 0.75247 0.50381 0.0
H431 H 0.98333 0.75276 0.53918 0.0
H432 H 0.92927 0.75613 0.57455 0.0
H433 H 0.90182 0.75532 0.5393 0.0
H434 H 0.91721 0.79576 0.56788 0.0
H435 H 0.0165 0.93217 0.51024 0.0
H436 H 0.97136 0.91774 0.46364 0.0
H437 H 0.91556 0.78907 0.48274 0.0
C438 C 0.01599 0.82129 0.5876 0.0
C439 C 0.04655 0.85385 0.60542 0.0
C440 C 0.06021 0.89403 0.59506 0.0
C441 C 0.04374 0.9019 0.56776 0.0
C442 C 0.01354 0.86923 0.5508 0.0
C443 C -0.00041 0.82969 0.56041 0.0
C444 C 0.96656 0.80014 0.53802 0.0
C445 C 0.97953 0.77233 0.52146 0.0
C446 C 0.92633 0.77538 0.55601 0.0
C447 C 0.9641 0.82916 0.51433 0.0
C448 C 0.99167 0.86889 0.52209 0.0
C449 C 0.99496 0.90115 0.50394 0.0
C450 C 0.96931 0.89271 0.47744 0.0
C451 C 0.94062 0.85235 0.46904 0.0
C452 C 0.938 0.82019 0.48793 0.0
H453 H 0.312 0.00845 0.92777 0.0
H454 H 0.26466 0.09035 0.93916 0.0
H455 H 0.22309 0.06199 0.89035 0.0
H456 H 0.31763 0.0123 0.84139 0.0
H457 H 0.30251 0.9595 0.83697 0.0
H458 H 0.32875 0.98653 0.87245 0.0
H459 H 0.27031 0.93323 0.90731 0.0
H460 H 0.24396 0.90597 0.87195 0.0
H461 H 0.21918 0.92242 0.9 0.0
H462 H 0.18499 0.02292 0.84067 0.0
H463 H 0.15513 0.97792 0.79375 0.0
H464 H 0.22696 0.92113 0.81429 0.0
C465 C 0.29268 0.0202 0.91999 0.0
C466 C 0.29106 0.05127 0.93746 0.0
C467 C 0.26607 0.0664 0.92624 0.0
C468 C 0.24237 0.05043 0.89856 0.0
C469 C 0.24414 0.01941 0.88207 0.0
C470 C 0.2688 0.00453 0.89233 0.0
C471 C 0.26509 0.97104 0.87031 0.0
C472 C 0.30593 0.98307 0.85434 0.0
C473 C 0.24865 0.93078 0.88848 0.0
C474 C 0.23444 0.96923 0.84613 0.0
C475 C 0.22273 0.9974 0.85335 0.0
C476 C 0.19423 0.00101 0.83474 0.0
C477 C 0.17742 0.97538 0.80813 0.0
C478 C 0.18922 0.94661 0.80006 0.0
C479 C 0.21795 0.94341 0.81954 0.0
H480 H 0.19216 0.13463 0.06768 0.0
H481 H 0.21932 0.14035 0.9668 0.0
H482 H 0.15446 0.13761 0.95408 0.0
H483 H 0.08965 0.06476 0.06281 0.0
H484 H 0.07375 0.08757 0.09305 0.0
H485 H 0.12399 0.09429 0.09428 0.0
H486 H 0.15482 0.17233 0.09446 0.0
H487 H 0.10457 0.16587 0.0935 0.0
H488 H 0.14108 0.19607 0.06346 0.0
H489 H 0.08346 0.12525 0.95247 0.0
H490 H 0.01299 0.10997 0.96225 0.0
H491 H 0.03394 0.11595 0.06415 0.0
C492 C 0.18462 0.13603 0.04298 0.0
C493 C 0.21035 0.13779 0.01815 0.0
C494 C 0.19989 0.13945 0.98605 0.0
C495 C 0.16321 0.13781 0.97865 0.0
C496 C 0.13798 0.13524 1.0037 0.0
C497 C 0.1485 0.13504 0.03524 0.0
C498 C 0.11537 0.13047 0.05763 0.0
C499 C 0.09978 0.09198 0.07813 0.0
C500 C 0.12983 0.16846 0.07849 0.0
C501 C 0.08395 0.12666 0.03375 0.0
C502 C 0.09757 0.12954 1.00276 0.0
C503 C 0.07271 0.12377 0.97659 0.0
C504 C 0.03286 0.11491 0.98231 0.0
C505 C 0.01872 0.1123 0.01387 0.0
C506 C 0.04461 0.1186 0.03984 0.0
H507 H 0.03628 0.02764 0.39996 0.0
H508 H 0.01322 0.99902 0.29938 0.0
H509 H 0.07319 0.0651 0.28576 0.0
H510 H 0.06873 0.13308 0.39385 0.0
H511 H 0.10727 0.14794 0.42404 0.0
H512 H 0.06269 0.09852 0.42556 0.0
H513 H 0.10768 0.06496 0.42627 0.0
H514 H 0.1524 0.11428 0.42496 0.0
H515 H 0.1447 0.07691 0.3952 0.0
H516 H 0.13423 0.13523 0.28362 0.0
H517 H 0.19533 0.20219 0.29327 0.0
H518 H 0.17809 0.18249 0.39523 0.0
C519 C 0.04396 0.0354 0.3751 0.0
C520 C 0.02052 0.00876 0.35064 0.0
C521 C 0.03133 0.01931 0.31834 0.0
C522 C 0.06502 0.05669 0.31044 0.0
C523 C 0.08738 0.08259 0.33521 0.0
C524 C 0.0775 0.07222 0.36687 0.0
C525 C 0.10672 0.10491 0.38904 0.0
C526 C 0.08505 0.12212 0.4093 0.0
C527 C 0.12921 0.08932 0.41009 0.0
C528 C 0.13465 0.13537 0.36492 0.0
C529 C 0.12288 0.12225 0.33398 0.0
C530 C 0.1439 0.14579 0.30772 0.0
C531 C 0.17825 0.18362 0.31335 0.0
C532 C 0.19103 0.1968 0.34492 0.0
C533 C 0.16887 0.17258 0.3709 0.0
H534 H 0.06198 0.15632 0.72565 0.0
H535 H 0.06732 0.18118 0.62446 0.0
H536 H 0.07007 0.11859 0.61301 0.0
H537 H 0.13158 0.12436 0.72653 0.0
H538 H 0.10631 0.08491 0.75581 0.0
H539 H 0.09861 0.12787 0.75569 0.0
H540 H 0.02096 0.0803 0.75104 0.0
H541 H 0.02831 0.03701 0.75166 0.0
H542 H 0.00089 0.04351 0.7193 0.0
H543 H 0.08252 0.05924 0.61367 0.0
H544 H 0.09693 0.00388 0.62602 0.0
H545 H 0.08174 0.01803 0.72679 0.0
C546 C 0.06259 0.14784 0.70108 0.0
C547 C 0.06424 0.173 0.67585 0.0
C548 C 0.06549 0.16166 0.64396 0.0
C549 C 0.06722 0.12639 0.63731 0.0
C550 C 0.06698 0.10282 0.66288 0.0
C551 C 0.0639 0.11271 0.6941 0.0
C552 C 0.06673 0.08399 0.71742 0.0
C553 C 0.10297 0.10665 0.74018 0.0
C554 C 0.02684 0.05976 0.73594 0.0
C555 C 0.07344 0.05725 0.69457 0.0
C556 C 0.07335 0.06837 0.6632 0.0
C557 C 0.08188 0.04975 0.63808 0.0
C558 C 0.09037 0.01872 0.64529 0.0
C559 C 0.0901 0.00679 0.67729 0.0
C560 C 0.08137 0.02621 0.7021 0.0
H561 H 0.68674 0.1124 0.01935 0.0
H562 H 0.64072 0.99629 0.06704 0.0
H563 H 0.57557 0.99386 0.07607 0.0
H564 H 0.63797 0.15201 0.0685 0.0
H565 H 0.62647 0.17585 0.03615 0.0
H566 H 0.66996 0.16899 0.03366 0.0
H567 H 0.64332 0.13011 0.9804 0.0
H568 H 0.59992 0.13714 0.98258 0.0
H569 H 0.59292 0.08685 0.97871 0.0
H570 H 0.51541 0.00413 0.08054 0.0
H571 H 0.46331 0.02507 0.07738 0.0
H572 H 0.547 0.13272 0.02503 0.0
C573 C 0.66288 0.08615 0.03134 0.0
C574 C 0.66926 0.05469 0.04269 0.0
C575 C 0.63713 0.02123 0.05865 0.0
C576 C 0.59983 0.01943 0.06376 0.0
C577 C 0.59481 0.05112 0.05257 0.0
C578 C 0.6253 0.08368 0.03643 0.0
C579 C 0.6118 0.11344 0.02638 0.0
C580 C 0.63812 0.15503 0.04212 0.0
C581 C 0.61199 0.11708 0.98985 0.0
C582 C 0.56899 0.09256 0.03948 0.0
C583 C 0.55988 0.05672 0.05465 0.0
C584 C 0.52219 0.03208 0.0687 0.0
C585 C 0.4929 0.04418 0.06691 0.0
C586 C 0.50152 0.08043 0.05116 0.0
C587 C 0.54001 0.10498 0.03736 0.0
H588 H 0.7021 0.65483 0.38402 0.0
H589 H 0.66275 0.74284 0.39814 0.0
H590 H 0.59164 0.68737 0.40239 0.0
H591 H 0.62008 0.58955 0.33395 0.0
H592 H 0.61575 0.54324 0.34917 0.0
H593 H 0.66389 0.58943 0.3502 0.0
H594 H 0.66855 0.5814 0.41115 0.0
H595 H 0.62047 0.53504 0.41029 0.0
H596 H 0.62777 0.57566 0.43655 0.0
H597 H 0.52533 0.6232 0.40349 0.0
H598 H 0.46684 0.55394 0.39913 0.0
H599 H 0.54847 0.50715 0.38183 0.0
C600 C 0.67842 0.66213 0.38854 0.0
C601 C 0.6875 0.70277 0.39114 0.0
C602 C 0.65603 0.71168 0.3963 0.0
C603 C 0.61573 0.68047 0.39878 0.0
C604 C 0.60755 0.64063 0.39573 0.0
C605 C 0.6379 0.6313 0.39057 0.0
C606 C 0.62049 0.58608 0.38615 0.0
C607 C 0.63066 0.57653 0.35289 0.0
C608 C 0.63519 0.56851 0.41262 0.0
C609 C 0.57566 0.57157 0.38939 0.0
C610 C 0.56897 0.60352 0.39528 0.0
C611 C 0.53014 0.59788 0.39903 0.0
C612 C 0.49716 0.55847 0.39662 0.0
C613 C 0.50322 0.52531 0.39024 0.0
C614 C 0.54302 0.53203 0.38658 0.0
H615 H 0.12772 0.68806 0.67675 0.0
H616 H 0.12897 0.71174 0.7783 0.0
H617 H 0.12951 0.64875 0.78998 0.0
H618 H 0.05824 0.58075 0.6831 0.0
H619 H 0.08215 0.56753 0.65187 0.0
H620 H 0.08448 0.61599 0.65122 0.0
H621 H 0.16284 0.65201 0.64854 0.0
H622 H 0.16075 0.60365 0.64939 0.0
H623 H 0.1902 0.64167 0.67873 0.0
H624 H 0.13007 0.58328 0.79107 0.0
H625 H 0.1261 0.51756 0.78152 0.0
H626 H 0.11807 0.53271 0.67957 0.0
C627 C 0.12785 0.68006 0.70149 0.0
C628 C 0.129 0.7057 0.72652 0.0
C629 C 0.12939 0.69368 0.75852 0.0
C630 C 0.12934 0.65762 0.76549 0.0
C631 C 0.12838 0.63335 0.7403 0.0
C632 C 0.12721 0.64379 0.70895 0.0
C633 C 0.12452 0.6113 0.68641 0.0
C634 C 0.08499 0.5928 0.66701 0.0
C635 C 0.16181 0.62818 0.66448 0.0
C636 C 0.12435 0.58103 0.71006 0.0
C637 C 0.12696 0.59458 0.74098 0.0
C638 C 0.12762 0.57215 0.76696 0.0
C639 C 0.12504 0.53461 0.76126 0.0
C640 C 0.12129 0.5194 0.72979 0.0
C641 C 0.1213 0.54336 0.7039 0.0
loop_
_geom_bond_atom_site_label_1
_geom_bond_atom_site_label_2
_geom_bond_distance
_geom_bond_site_symmetry_2
_ccdc_geom_bond_type
C0 C1 1.443 . S
C0 N4 1.376 . S
C0 C38 1.389 . S
C1 C0 1.443 . S
C1 C2 1.340 . S
C1 H41 0.951 . S
C2 C1 1.340 . S
C2 C3 1.439 . S
C2 H42 0.950 . S
C3 C2 1.439 . S
C3 N4 1.374 . S
C3 C37 1.395 . S
N4 C0 1.376 . S
N4 C3 1.374 . S
N4 Co5 2.008 . S
Co5 N4 2.008 . S
Co5 N6 1.995 . S
Co5 N11 2.008 1_554 S
Co5 N16 1.995 . S
Co5 N21 2.282 . S
Co5 N27 2.282 . S
N6 Co5 1.995 . S
N6 C7 1.376 . S
N6 C10 1.383 1_554 S
C7 N6 1.376 . S
C7 C8 1.446 . S
C7 C37 1.391 . S
C8 C7 1.446 . S
C8 C9 1.339 1_554 S
C8 H43 0.949 . S
C9 C8 1.339 1_556 S
C9 C10 1.439 . S
C9 H44 0.950 . S
C10 N6 1.383 1_556 S
C10 C9 1.439 . S
C10 C39 1.392 . S
N11 Co5 2.008 1_556 S
N11 C12 1.376 . S
N11 C15 1.374 . S
C12 N11 1.376 . S
C12 C13 1.443 . S
C12 C39 1.389 . S
C13 C12 1.443 . S
C13 C14 1.340 . S
C13 H45 0.951 . S
C14 C13 1.340 . S
C14 C15 1.439 . S
C14 H46 0.950 . S
C15 N11 1.374 . S
C15 C14 1.439 . S
C15 C40 1.395 . S
N16 Co5 1.995 . S
N16 C17 1.376 . S
N16 C20 1.383 . S
C17 N16 1.376 . S
C17 C18 1.446 . S
C17 C40 1.391 1_554 S
C18 C17 1.446 . S
C18 C19 1.339 . S
C18 H47 0.949 . S
C19 C18 1.339 . S
C19 C20 1.439 . S
C19 H48 0.950 . S
C20 N16 1.383 . S
C20 C19 1.439 . S
C20 C38 1.392 . S
N21 Co5 2.282 . S
N21 C24 1.332 . S
N21 C26 1.332 . S
C22 C23 1.386 . S
C22 C25 1.388 . S
C23 C22 1.386 . S
C23 C24 1.382 . S
C23 H49 0.950 . S
C24 N21 1.332 . S
C24 C23 1.382 . S
C24 H35 0.952 . S
C25 C22 1.388 . S
C25 C26 1.382 . S
C25 H50 0.950 . S
C26 N21 1.332 . S
C26 C25 1.382 . S
C26 H36 0.948 . S
N27 Co5 2.282 . S
N27 C31 1.332 . S
N27 C32 1.332 . S
C28 C29 1.388 . S
C28 C32 1.382 . S
C28 H51 0.950 . S
C29 C28 1.388 . S
C29 C30 1.386 . S
C30 C29 1.386 . S
C30 C31 1.382 . S
C30 H52 0.950 . S
C31 N27 1.332 . S
C31 C30 1.382 . S
C31 H33 0.952 . S
C32 N27 1.332 . S
C32 C28 1.382 . S
C32 H34 0.948 . S
H33 C31 0.952 . S
H34 C32 0.948 . S
H35 C24 0.952 . S
H36 C26 0.948 . S
C37 C3 1.395 . S
C37 C7 1.391 . S
C38 C0 1.389 . S
C38 C20 1.392 . S
C39 C10 1.392 . S
C39 C12 1.389 . S
C40 C15 1.395 . S
C40 C17 1.391 1_556 S
H41 C1 0.951 . S
H42 C2 0.950 . S
H43 C8 0.949 . S
H44 C9 0.950 . S
H45 C13 0.951 . S
H46 C14 0.950 . S
H47 C18 0.949 . S
H48 C19 0.950 . S
H49 C23 0.950 . S
H50 C25 0.950 . S
H51 C28 0.950 . S
H52 C30 0.950 . S
C53 C54 1.443 . S
C53 N57 1.376 . S
C53 C91 1.389 . S
C54 C53 1.443 . S
C54 C55 1.340 . S
C54 H94 0.951 . S
C55 C54 1.340 . S
C55 C56 1.439 . S
C55 H95 0.950 . S
C56 C55 1.439 . S
C56 N57 1.374 . S
C56 C90 1.395 . S
N57 C53 1.376 . S
N57 C56 1.374 . S
N57 Co58 2.008 . S
Co58 N57 2.008 . S
Co58 N59 1.995 . S
Co58 N64 2.008 . S
Co58 N69 1.995 . S
Co58 N74 2.282 . S
Co58 N80 2.282 . S
N59 Co58 1.995 . S
N59 C60 1.376 . S
N59 C63 1.383 . S
C60 N59 1.376 . S
C60 C61 1.446 . S
C60 C90 1.391 . S
C61 C60 1.446 . S
C61 C62 1.339 . S
C61 H96 0.949 . S
C62 C61 1.339 . S
C62 C63 1.439 . S
C62 H97 0.950 . S
C63 N59 1.383 . S
C63 C62 1.439 . S
C63 C92 1.392 . S
N64 Co58 2.008 . S
N64 C65 1.376 . S
N64 C68 1.374 . S
C65 N64 1.376 . S
C65 C66 1.443 . S
C65 C92 1.389 . S
C66 C65 1.443 . S
C66 C67 1.340 . S
C66 H98 0.951 . S
C67 C66 1.340 . S
C67 C68 1.439 . S
C67 H99 0.950 . S
C68 N64 1.374 . S
C68 C67 1.439 . S
C68 C93 1.395 . S
N69 Co58 1.995 . S
N69 C70 1.376 . S
N69 C73 1.383 . S
C70 N69 1.376 . S
C70 C71 1.446 . S
C70 C93 1.391 . S
C71 C70 1.446 . S
C71 C72 1.339 . S
C71 H100 0.949 . S
C72 C71 1.339 . S
C72 C73 1.439 . S
C72 H101 0.950 . S
C73 N69 1.383 . S
C73 C72 1.439 . S
C73 C91 1.392 . S
N74 Co58 2.282 . S
N74 C77 1.332 . S
N74 C79 1.332 . S
C75 C76 1.386 . S
C75 C78 1.388 . S
C76 C75 1.386 . S
C76 C77 1.382 . S
C76 H102 0.950 . S
C77 N74 1.332 . S
C77 C76 1.382 . S
C77 H88 0.952 . S
C78 C75 1.388 . S
C78 C79 1.382 . S
C78 H103 0.950 . S
C79 N74 1.332 . S
C79 C78 1.382 . S
C79 H89 0.948 . S
N80 Co58 2.282 . S
N80 C84 1.332 . S
N80 C85 1.332 . S
C81 C82 1.388 . S
C81 C85 1.382 . S
C81 H104 0.950 . S
C82 C81 1.388 . S
C82 C83 1.386 . S
C83 C82 1.386 . S
C83 C84 1.382 . S
C83 H105 0.950 . S
C84 N80 1.332 . S
C84 C83 1.382 . S
C84 H86 0.952 . S
C85 N80 1.332 . S
C85 C81 1.382 . S
C85 H87 0.948 . S
H86 C84 0.952 . S
H87 C85 0.948 . S
H88 C77 0.952 . S
H89 C79 0.948 . S
C90 C56 1.395 . S
C90 C60 1.391 . S
C91 C53 1.389 . S
C91 C73 1.392 . S
C92 C63 1.392 . S
C92 C65 1.389 . S
C93 C68 1.395 . S
C93 C70 1.391 . S
H94 C54 0.951 . S
H95 C55 0.950 . S
H96 C61 0.949 . S
H97 C62 0.950 . S
H98 C66 0.951 . S
H99 C67 0.950 . S
H100 C71 0.949 . S
H101 C72 0.950 . S
H102 C76 0.950 . S
H103 C78 0.950 . S
H104 C81 0.950 . S
H105 C83 0.950 . S
C106 C107 1.443 . S
C106 N110 1.376 . S
C106 C144 1.389 1_455 S
C107 C106 1.443 . S
C107 C108 1.340 . S
C107 H147 0.951 . S
C108 C107 1.340 . S
C108 C109 1.439 . S
C108 H148 0.950 . S
C109 C108 1.439 . S
C109 N110 1.374 . S
C109 C143 1.395 . S
N110 C106 1.376 . S
N110 C109 1.374 . S
N110 Co111 2.008 . S
Co111 N110 2.008 . S
Co111 N112 1.995 . S
Co111 N117 2.008 . S
Co111 N122 1.995 1_455 S
Co111 N127 2.282 . S
Co111 N133 2.282 . S
N112 Co111 1.995 . S
N112 C113 1.376 . S
N112 C116 1.383 . S
C113 N112 1.376 . S
C113 C114 1.446 . S
C113 C143 1.391 . S
C114 C113 1.446 . S
C114 C115 1.339 . S
C114 H149 0.949 . S
C115 C114 1.339 . S
C115 C116 1.439 . S
C115 H150 0.950 . S
C116 N112 1.383 . S
C116 C115 1.439 . S
C116 C145 1.392 . S
N117 Co111 2.008 . S
N117 C118 1.376 . S
N117 C121 1.374 1_455 S
C118 N117 1.376 . S
C118 C119 1.443 . S
C118 C145 1.389 . S
C119 C118 1.443 . S
C119 C120 1.340 1_455 S
C119 H151 0.951 . S
C120 C119 1.340 1_655 S
C120 C121 1.439 . S
C120 H152 0.950 . S
C121 N117 1.374 1_655 S
C121 C120 1.439 . S
C121 C146 1.395 . S
N122 Co111 1.995 1_655 S
N122 C123 1.376 . S
N122 C126 1.383 . S
C123 N122 1.376 . S
C123 C124 1.446 . S
C123 C146 1.391 . S
C124 C123 1.446 . S
C124 C125 1.339 . S
C124 H153 0.949 . S
C125 C124 1.339 . S
C125 C126 1.439 . S
C125 H154 0.950 . S
C126 N122 1.383 . S
C126 C125 1.439 . S
C126 C144 1.392 . S
N127 Co111 2.282 . S
N127 C130 1.332 1_455 S
N127 C132 1.332 . S
C128 C129 1.386 1_455 S
C128 C131 1.388 . S
C129 C128 1.386 1_655 S
C129 C130 1.382 . S
C129 H155 0.950 . S
C130 N127 1.332 1_655 S
C130 C129 1.382 . S
C130 H141 0.952 . S
C131 C128 1.388 . S
C131 C132 1.382 . S
C131 H156 0.950 . S
C132 N127 1.332 . S
C132 C131 1.382 . S
C132 H142 0.948 . S
N133 Co111 2.282 . S
N133 C137 1.332 . S
N133 C138 1.332 1_455 S
C134 C135 1.388 1_655 S
C134 C138 1.382 . S
C134 H157 0.950 . S
C135 C134 1.388 1_455 S
C135 C136 1.386 . S
C136 C135 1.386 . S
C136 C137 1.382 . S
C136 H158 0.950 . S
C137 N133 1.332 . S
C137 C136 1.382 . S
C137 H139 0.952 . S
C138 N133 1.332 1_655 S
C138 C134 1.382 . S
C138 H140 0.948 . S
H139 C137 0.952 . S
H140 C138 0.948 . S
H141 C130 0.952 . S
H142 C132 0.948 . S
C143 C109 1.395 . S
C143 C113 1.391 . S
C144 C106 1.389 1_655 S
C144 C126 1.392 . S
C145 C116 1.392 . S
C145 C118 1.389 . S
C146 C121 1.395 . S
C146 C123 1.391 . S
H147 C107 0.951 . S
H148 C108 0.950 . S
H149 C114 0.949 . S
H150 C115 0.950 . S
H151 C119 0.951 . S
H152 C120 0.950 . S
H153 C124 0.949 . S
H154 C125 0.950 . S
H155 C129 0.950 . S
H156 C131 0.950 . S
H157 C134 0.950 . S
H158 C136 0.950 . S
C159 C160 1.443 . S
C159 N163 1.376 . S
C159 C197 1.389 1_545 S
C160 C159 1.443 . S
C160 C161 1.340 . S
C160 H200 0.951 . S
C161 C160 1.340 . S
C161 C162 1.439 . S
C161 H201 0.950 . S
C162 C161 1.439 . S
C162 N163 1.374 . S
C162 C196 1.395 . S
N163 C159 1.376 . S
N163 C162 1.374 . S
N163 Co164 2.008 . S
Co164 N163 2.008 . S
Co164 N165 1.995 . S
Co164 N170 2.008 1_554 S
Co164 N175 1.995 1_545 S
Co164 N180 2.282 . S
Co164 N186 2.282 . S
N165 Co164 1.995 . S
N165 C166 1.376 . S
N165 C169 1.383 1_554 S
C166 N165 1.376 . S
C166 C167 1.446 . S
C166 C196 1.391 . S
C167 C166 1.446 . S
C167 C168 1.339 1_554 S
C167 H202 0.949 . S
C168 C167 1.339 1_556 S
C168 C169 1.439 . S
C168 H203 0.950 . S
C169 N165 1.383 1_556 S
C169 C168 1.439 . S
C169 C198 1.392 . S
N170 Co164 2.008 1_556 S
N170 C171 1.376 . S
N170 C174 1.374 1_545 S
C171 N170 1.376 . S
C171 C172 1.443 . S
C171 C198 1.389 . S
C172 C171 1.443 . S
C172 C173 1.340 1_545 S
C172 H204 0.951 . S
C173 C172 1.340 1_565 S
C173 C174 1.439 . S
C173 H205 0.950 . S
C174 N170 1.374 1_565 S
C174 C173 1.439 . S
C174 C199 1.395 . S
N175 Co164 1.995 1_565 S
N175 C176 1.376 . S
N175 C179 1.383 . S
C176 N175 1.376 . S
C176 C177 1.446 . S
C176 C199 1.391 1_554 S
C177 C176 1.446 . S
C177 C178 1.339 . S
C177 H206 0.949 . S
C178 C177 1.339 . S
C178 C179 1.439 . S
C178 H207 0.950 . S
C179 N175 1.383 . S
C179 C178 1.439 . S
C179 C197 1.392 . S
N180 Co164 2.282 . S
N180 C183 1.332 1_545 S
N180 C185 1.332 . S
C181 C182 1.386 1_545 S
C181 C184 1.388 . S
C182 C181 1.386 1_565 S
C182 C183 1.382 . S
C182 H208 0.950 . S
C183 N180 1.332 1_565 S
C183 C182 1.382 . S
C183 H194 0.952 . S
C184 C181 1.388 . S
C184 C185 1.382 . S
C184 H209 0.950 . S
C185 N180 1.332 . S
C185 C184 1.382 . S
C185 H195 0.948 . S
N186 Co164 2.282 . S
N186 C190 1.332 . S
N186 C191 1.332 1_545 S
C187 C188 1.388 1_565 S
C187 C191 1.382 . S
C187 H210 0.950 . S
C188 C187 1.388 1_545 S
C188 C189 1.386 . S
C189 C188 1.386 . S
C189 C190 1.382 . S
C189 H211 0.950 . S
C190 N186 1.332 . S
C190 C189 1.382 . S
C190 H192 0.952 . S
C191 N186 1.332 1_565 S
C191 C187 1.382 . S
C191 H193 0.948 . S
H192 C190 0.952 . S
H193 C191 0.948 . S
H194 C183 0.952 . S
H195 C185 0.948 . S
C196 C162 1.395 . S
C196 C166 1.391 . S
C197 C159 1.389 1_565 S
C197 C179 1.392 . S
C198 C169 1.392 . S
C198 C171 1.389 . S
C199 C174 1.395 . S
C199 C176 1.391 1_556 S
H200 C160 0.951 . S
H201 C161 0.950 . S
H202 C167 0.949 . S
H203 C168 0.950 . S
H204 C172 0.951 . S
H205 C173 0.950 . S
H206 C177 0.949 . S
H207 C178 0.950 . S
H208 C182 0.950 . S
H209 C184 0.950 . S
H210 C187 0.950 . S
H211 C189 0.950 . S
C212 C213 1.443 . S
C212 N216 1.376 . S
C212 C250 1.389 . S
C213 C212 1.443 . S
C213 C214 1.340 . S
C213 H253 0.951 . S
C214 C213 1.340 . S
C214 C215 1.439 . S
C214 H254 0.950 . S
C215 C214 1.439 . S
C215 N216 1.374 . S
C215 C249 1.395 . S
N216 C212 1.376 . S
N216 C215 1.374 . S
N216 Co217 2.008 . S
Co217 N216 2.008 . S
Co217 N218 1.995 . S
Co217 N223 2.008 . S
Co217 N228 1.995 . S
Co217 N233 2.282 . S
Co217 N239 2.282 . S
N218 Co217 1.995 . S
N218 C219 1.376 . S
N218 C222 1.383 . S
C219 N218 1.376 . S
C219 C220 1.446 . S
C219 C249 1.391 . S
C220 C219 1.446 . S
C220 C221 1.339 . S
C220 H255 0.949 . S
C221 C220 1.339 . S
C221 C222 1.439 . S
C221 H256 0.950 . S
C222 N218 1.383 . S
C222 C221 1.439 . S
C222 C251 1.392 . S
N223 Co217 2.008 . S
N223 C224 1.376 . S
N223 C227 1.374 . S
C224 N223 1.376 . S
C224 C225 1.443 . S
C224 C251 1.389 . S
C225 C224 1.443 . S
C225 C226 1.340 . S
C225 H257 0.951 . S
C226 C225 1.340 . S
C226 C227 1.439 . S
C226 H258 0.950 . S
C227 N223 1.374 . S
C227 C226 1.439 . S
C227 C252 1.395 . S
N228 Co217 1.995 . S
N228 C229 1.376 . S
N228 C232 1.383 . S
C229 N228 1.376 . S
C229 C230 1.446 . S
C229 C252 1.391 . S
C230 C229 1.446 . S
C230 C231 1.339 . S
C230 H259 0.949 . S
C231 C230 1.339 . S
C231 C232 1.439 . S
C231 H260 0.950 . S
C232 N228 1.383 . S
C232 C231 1.439 . S
C232 C250 1.392 . S
N233 Co217 2.282 . S
N233 C236 1.332 . S
N233 C238 1.332 . S
C234 C235 1.386 . S
C234 C237 1.388 . S
C235 C234 1.386 . S
C235 C236 1.382 . S
C235 H261 0.950 . S
C236 N233 1.332 . S
C236 C235 1.382 . S
C236 H247 0.952 . S
C237 C234 1.388 . S
C237 C238 1.382 . S
C237 H262 0.950 . S
C238 N233 1.332 . S
C238 C237 1.382 . S
C238 H248 0.948 . S
N239 Co217 2.282 . S
N239 C243 1.332 . S
N239 C244 1.332 . S
C240 C241 1.388 . S
C240 C244 1.382 1_455 S
C240 H263 0.950 . S
C241 C240 1.388 . S
C241 C242 1.386 1_455 S
C242 C241 1.386 1_655 S
C242 C243 1.382 . S
C242 H264 0.950 . S
C243 N239 1.332 . S
C243 C242 1.382 . S
C243 H245 0.952 . S
C244 N239 1.332 . S
C244 C240 1.382 1_655 S
C244 H246 0.948 . S
H245 C243 0.952 . S
H246 C244 0.948 . S
H247 C236 0.952 . S
H248 C238 0.948 . S
C249 C215 1.395 . S
C249 C219 1.391 . S
C250 C212 1.389 . S
C250 C232 1.392 . S
C251 C222 1.392 . S
C251 C224 1.389 . S
C252 C227 1.395 . S
C252 C229 1.391 . S
H253 C213 0.951 . S
H254 C214 0.950 . S
H255 C220 0.949 . S
H256 C221 0.950 . S
H257 C225 0.951 . S
H258 C226 0.950 . S
H259 C230 0.949 . S
H260 C231 0.950 . S
H261 C235 0.950 . S
H262 C237 0.950 . S
H263 C240 0.950 . S
H264 C242 0.950 . S
C265 C266 1.443 . S
C265 N269 1.376 . S
C265 C303 1.389 . S
C266 C265 1.443 . S
C266 C267 1.340 . S
C266 H306 0.951 . S
C267 C266 1.340 . S
C267 C268 1.439 . S
C267 H307 0.950 . S
C268 C267 1.439 . S
C268 N269 1.374 . S
C268 C302 1.395 . S
N269 C265 1.376 . S
N269 C268 1.374 . S
N269 Co270 2.008 . S
Co270 N269 2.008 . S
Co270 N271 1.995 . S
Co270 N276 2.008 . S
Co270 N281 1.995 . S
Co270 N286 2.282 . S
Co270 N292 2.282 . S
N271 Co270 1.995 . S
N271 C272 1.376 . S
N271 C275 1.383 . S
C272 N271 1.376 . S
C272 C273 1.446 . S
C272 C302 1.391 . S
C273 C272 1.446 . S
C273 C274 1.339 . S
C273 H308 0.949 . S
C274 C273 1.339 . S
C274 C275 1.439 . S
C274 H309 0.950 . S
C275 N271 1.383 . S
C275 C274 1.439 . S
C275 C304 1.392 . S
N276 Co270 2.008 . S
N276 C277 1.376 . S
N276 C280 1.374 . S
C277 N276 1.376 . S
C277 C278 1.443 . S
C277 C304 1.389 . S
C278 C277 1.443 . S
C278 C279 1.340 . S
C278 H310 0.951 . S
C279 C278 1.340 . S
C279 C280 1.439 . S
C279 H311 0.950 . S
C280 N276 1.374 . S
C280 C279 1.439 . S
C280 C305 1.395 . S
N281 Co270 1.995 . S
N281 C282 1.376 . S
N281 C285 1.383 . S
C282 N281 1.376 . S
C282 C283 1.446 . S
C282 C305 1.391 . S
C283 C282 1.446 . S
C283 C284 1.339 . S
C283 H312 0.949 . S
C284 C283 1.339 . S
C284 C285 1.439 . S
C284 H313 0.950 . S
C285 N281 1.383 . S
C285 C284 1.439 . S
C285 C303 1.392 . S
N286 Co270 2.282 . S
N286 C289 1.332 . S
N286 C291 1.332 . S
C287 C288 1.386 . S
C287 C290 1.388 . S
C288 C287 1.386 . S
C288 C289 1.382 . S
C288 H314 0.950 . S
C289 N286 1.332 . S
C289 C288 1.382 . S
C289 H300 0.952 . S
C290 C287 1.388 . S
C290 C291 1.382 . S
C290 H315 0.950 . S
C291 N286 1.332 . S
C291 C290 1.382 . S
C291 H301 0.948 . S
N292 Co270 2.282 . S
N292 C296 1.332 . S
N292 C297 1.332 . S
C293 C294 1.388 . S
C293 C297 1.382 1_545 S
C293 H316 0.950 . S
C294 C293 1.388 . S
C294 C295 1.386 1_545 S
C295 C294 1.386 1_565 S
C295 C296 1.382 . S
C295 H317 0.950 . S
C296 N292 1.332 . S
C296 C295 1.382 . S
C296 H298 0.952 . S
C297 N292 1.332 . S
C297 C293 1.382 1_565 S
C297 H299 0.948 . S
H298 C296 0.952 . S
H299 C297 0.948 . S
H300 C289 0.952 . S
H301 C291 0.948 . S
C302 C268 1.395 . S
C302 C272 1.391 . S
C303 C265 1.389 . S
C303 C285 1.392 . S
C304 C275 1.392 . S
C304 C277 1.389 . S
C305 C280 1.395 . S
C305 C282 1.391 . S
H306 C266 0.951 . S
H307 C267 0.950 . S
H308 C273 0.949 . S
H309 C274 0.950 . S
H310 C278 0.951 . S
H311 C279 0.950 . S
H312 C283 0.949 . S
H313 C284 0.950 . S
H314 C288 0.950 . S
H315 C290 0.950 . S
H316 C293 0.950 . S
H317 C295 0.950 . S
H318 C330 0.930 . S
H319 C332 0.930 . S
H320 C333 0.930 . S
H321 C337 0.959 . S
H322 C337 0.959 . S
H323 C337 0.961 . S
H324 C338 0.960 . S
H325 C338 0.961 . S
H326 C338 0.959 . S
H327 C341 0.929 . S
H328 C342 0.931 . S
H329 C344 0.930 . S
C330 H318 0.930 . S
C330 C331 1.399 . S
C330 C335 1.399 . S
C331 C330 1.399 . S
C331 C332 1.376 . S
C332 H319 0.930 . S
C332 C331 1.376 . S
C332 C333 1.388 . S
C333 H320 0.930 . S
C333 C332 1.388 . S
C333 C334 1.390 . S
C334 C333 1.390 . S
C334 C335 1.394 . S
C334 C340 1.465 . S
C335 C330 1.399 . S
C335 C334 1.394 . S
C335 C336 1.516 . S
C336 C335 1.516 . S
C336 C337 1.502 . S
C336 C338 1.561 . S
C336 C339 1.526 . S
C337 H321 0.959 . S
C337 H322 0.959 . S
C337 H323 0.961 . S
C337 C336 1.502 . S
C338 H324 0.960 . S
C338 H325 0.961 . S
C338 H326 0.959 . S
C338 C336 1.561 . S
C339 C336 1.526 . S
C339 C340 1.396 . S
C339 C344 1.390 . S
C340 C334 1.465 . S
C340 C339 1.396 . S
C340 C341 1.399 . S
C341 H327 0.929 . S
C341 C340 1.399 . S
C341 C342 1.385 . S
C342 H328 0.931 . S
C342 C341 1.385 . S
C342 C343 1.389 . S
C343 C342 1.389 . S
C343 C344 1.387 . S
C344 H329 0.930 . S
C344 C339 1.390 . S
C344 C343 1.387 . S
H345 C357 0.930 . S
H346 C359 0.930 . S
H347 C360 0.930 . S
H348 C364 0.959 . S
H349 C364 0.959 . S
H350 C364 0.961 . S
H351 C365 0.960 . S
H352 C365 0.961 . S
H353 C365 0.959 . S
H354 C368 0.929 . S
H355 C369 0.931 . S
H356 C371 0.930 . S
C357 H345 0.930 . S
C357 C358 1.399 . S
C357 C362 1.399 . S
C358 C357 1.399 . S
C358 C359 1.376 . S
C359 H346 0.930 . S
C359 C358 1.376 . S
C359 C360 1.388 . S
C360 H347 0.930 . S
C360 C359 1.388 . S
C360 C361 1.390 . S
C361 C360 1.390 . S
C361 C362 1.394 . S
C361 C367 1.465 . S
C362 C357 1.399 . S
C362 C361 1.394 . S
C362 C363 1.516 . S
C363 C362 1.516 . S
C363 C364 1.502 . S
C363 C365 1.561 . S
C363 C366 1.526 . S
C364 H348 0.959 . S
C364 H349 0.959 . S
C364 H350 0.961 . S
C364 C363 1.502 . S
C365 H351 0.960 . S
C365 H352 0.961 . S
C365 H353 0.959 . S
C365 C363 1.561 . S
C366 C363 1.526 . S
C366 C367 1.396 . S
C366 C371 1.390 . S
C367 C361 1.465 . S
C367 C366 1.396 . S
C367 C368 1.399 . S
C368 H354 0.929 . S
C368 C367 1.399 . S
C368 C369 1.385 . S
C369 H355 0.931 . S
C369 C368 1.385 . S
C369 C370 1.389 . S
C370 C369 1.389 . S
C370 C371 1.387 . S
C371 H356 0.930 . S
C371 C366 1.390 . S
C371 C370 1.387 . S
H372 C384 0.930 . S
H373 C386 0.930 . S
H374 C387 0.930 . S
H375 C391 0.959 . S
H376 C391 0.959 . S
H377 C391 0.961 . S
H378 C392 0.960 . S
H379 C392 0.961 . S
H380 C392 0.959 . S
H381 C395 0.929 . S
H382 C396 0.931 . S
H383 C398 0.930 . S
C384 H372 0.930 . S
C384 C385 1.399 . S
C384 C389 1.399 . S
C385 C384 1.399 . S
C385 C386 1.376 . S
C386 H373 0.930 . S
C386 C385 1.376 . S
C386 C387 1.388 . S
C387 H374 0.930 . S
C387 C386 1.388 . S
C387 C388 1.390 . S
C388 C387 1.390 . S
C388 C389 1.394 . S
C388 C394 1.465 . S
C389 C384 1.399 . S
C389 C388 1.394 . S
C389 C390 1.516 . S
C390 C389 1.516 . S
C390 C391 1.502 . S
C390 C392 1.561 . S
C390 C393 1.526 . S
C391 H375 0.959 . S
C391 H376 0.959 . S
C391 H377 0.961 . S
C391 C390 1.502 . S
C392 H378 0.960 . S
C392 H379 0.961 . S
C392 H380 0.959 . S
C392 C390 1.561 . S
C393 C390 1.526 . S
C393 C394 1.396 . S
C393 C398 1.390 . S
C394 C388 1.465 . S
C394 C393 1.396 . S
C394 C395 1.399 . S
C395 H381 0.929 . S
C395 C394 1.399 . S
C395 C396 1.385 . S
C396 H382 0.931 . S
C396 C395 1.385 . S
C396 C397 1.389 . S
C397 C396 1.389 . S
C397 C398 1.387 . S
C398 H383 0.930 . S
C398 C393 1.390 . S
C398 C397 1.387 . S
H399 C411 0.930 . S
H400 C413 0.930 . S
H401 C414 0.930 . S
H402 C418 0.959 . S
H403 C418 0.959 . S
H404 C418 0.961 . S
H405 C419 0.960 . S
H406 C419 0.961 . S
H407 C419 0.959 . S
H408 C422 0.929 . S
H409 C423 0.931 . S
H410 C425 0.930 . S
C411 H399 0.930 . S
C411 C412 1.399 . S
C411 C416 1.399 . S
C412 C411 1.399 . S
C412 C413 1.376 . S
C413 H400 0.930 . S
C413 C412 1.376 . S
C413 C414 1.388 . S
C414 H401 0.930 . S
C414 C413 1.388 . S
C414 C415 1.390 . S
C415 C414 1.390 . S
C415 C416 1.394 . S
C415 C421 1.465 . S
C416 C411 1.399 . S
C416 C415 1.394 . S
C416 C417 1.516 . S
C417 C416 1.516 . S
C417 C418 1.502 . S
C417 C419 1.561 . S
C417 C420 1.526 . S
C418 H402 0.959 . S
C418 H403 0.959 . S
C418 H404 0.961 . S
C418 C417 1.502 . S
C419 H405 0.960 . S
C419 H406 0.961 . S
C419 H407 0.959 . S
C419 C417 1.561 . S
C420 C417 1.526 . S
C420 C421 1.396 . S
C420 C425 1.390 . S
C421 C415 1.465 . S
C421 C420 1.396 . S
C421 C422 1.399 . S
C422 H408 0.929 . S
C422 C421 1.399 . S
C422 C423 1.385 . S
C423 H409 0.931 . S
C423 C422 1.385 . S
C423 C424 1.389 . S
C424 C423 1.389 . S
C424 C425 1.387 . S
C425 H410 0.930 . S
C425 C420 1.390 . S
C425 C424 1.387 . S
H426 C438 0.930 . S
H427 C440 0.930 . S
H428 C441 0.930 . S
H429 C445 0.959 . S
H430 C445 0.959 . S
H431 C445 0.961 . S
H432 C446 0.960 . S
H433 C446 0.961 1_655 S
H434 C446 0.959 1_655 S
H435 C449 0.938 1_455 S
H436 C450 0.931 . S
H437 C452 0.930 . S
C438 H426 0.930 . S
C438 C439 1.399 . S
C438 C443 1.399 . S
C439 C438 1.399 . S
C439 C440 1.376 . S
C440 H427 0.930 . S
C440 C439 1.376 . S
C440 C441 1.388 . S
C441 H428 0.930 . S
C441 C440 1.388 . S
C441 C442 1.390 . S
C442 C441 1.390 . S
C442 C443 1.394 . S
C442 C448 1.465 . S
C443 C438 1.399 . S
C443 C442 1.394 . S
C443 C444 1.516 . S
C444 C443 1.516 . S
C444 C445 1.502 . S
C444 C446 1.561 . S
C444 C447 1.526 . S
C445 H429 0.959 . S
C445 H430 0.959 . S
C445 H431 0.961 . S
C445 C444 1.502 . S
C446 H432 0.960 . S
C446 H433 0.961 1_455 S
C446 H434 0.959 1_455 S
C446 C444 1.561 . S
C447 C444 1.526 . S
C447 C448 1.396 . S
C447 C452 1.390 1_455 S
C448 C442 1.465 . S
C448 C447 1.396 . S
C448 C449 1.380 1_455 S
C449 H435 0.938 1_655 S
C449 C448 1.380 1_655 S
C449 C450 1.396 . S
C450 H436 0.931 . S
C450 C449 1.396 . S
C450 C451 1.389 . S
C451 C450 1.389 . S
C451 C452 1.387 . S
C452 H437 0.930 . S
C452 C447 1.390 1_655 S
C452 C451 1.387 . S
H453 C465 0.930 . S
H454 C467 0.930 . S
H455 C468 0.930 . S
H456 C472 0.959 . S
H457 C472 0.959 . S
H458 C472 0.961 . S
H459 C473 0.960 . S
H460 C473 0.961 . S
H461 C473 0.959 . S
H462 C476 0.929 . S
H463 C477 0.931 . S
H464 C479 0.930 . S
C465 H453 0.930 . S
C465 C466 1.399 . S
C465 C470 1.399 . S
C466 C465 1.399 . S
C466 C467 1.376 . S
C467 H454 0.930 . S
C467 C466 1.376 . S
C467 C468 1.388 . S
C468 H455 0.930 . S
C468 C467 1.388 . S
C468 C469 1.390 . S
C469 C468 1.390 . S
C469 C470 1.394 . S
C469 C475 1.465 . S
C470 C465 1.399 . S
C470 C469 1.394 . S
C470 C471 1.516 1_545 S
C471 C470 1.516 1_565 S
C471 C472 1.502 . S
C471 C473 1.561 . S
C471 C474 1.533 . S
C472 H456 0.959 . S
C472 H457 0.959 . S
C472 H458 0.961 . S
C472 C471 1.502 . S
C473 H459 0.960 . S
C473 H460 0.961 . S
C473 H461 0.959 . S
C473 C471 1.561 . S
C474 C471 1.533 . S
C474 C475 1.365 1_565 S
C474 C479 1.409 . S
C475 C469 1.465 . S
C475 C474 1.365 1_545 S
C475 C476 1.399 . S
C476 H462 0.929 . S
C476 C475 1.399 . S
C476 C477 1.385 . S
C477 H463 0.931 . S
C477 C476 1.385 . S
C477 C478 1.389 1_545 S
C478 C477 1.389 1_565 S
C478 C479 1.387 . S
C479 H464 0.930 . S
C479 C474 1.409 . S
C479 C478 1.387 . S
H480 C492 0.930 . S
H481 C494 0.930 . S
H482 C495 0.930 . S
H483 C499 0.959 . S
H484 C499 0.959 . S
H485 C499 0.961 . S
H486 C500 0.960 . S
H487 C500 0.961 . S
H488 C500 0.959 . S
H489 C503 0.929 . S
H490 C504 0.931 1_565 S
H491 C506 0.930 . S
C492 H480 0.930 . S
C492 C493 1.399 . S
C492 C497 1.399 . S
C493 C492 1.399 . S
C493 C494 1.376 . S
C494 H481 0.930 . S
C494 C493 1.376 . S
C494 C495 1.388 . S
C495 H482 0.930 . S
C495 C494 1.388 . S
C495 C496 1.390 . S
C496 C495 1.390 . S
C496 C497 1.394 . S
C496 C502 1.465 . S
C497 C492 1.399 . S
C497 C496 1.394 . S
C497 C498 1.516 . S
C498 C497 1.516 . S
C498 C499 1.502 . S
C498 C500 1.561 . S
C498 C501 1.526 . S
C499 H483 0.959 . S
C499 H484 0.959 . S
C499 H485 0.961 . S
C499 C498 1.502 . S
C500 H486 0.960 . S
C500 H487 0.961 . S
C500 H488 0.959 . S
C500 C498 1.561 . S
C501 C498 1.526 . S
C501 C502 1.396 . S
C501 C506 1.390 . S
C502 C496 1.465 . S
C502 C501 1.396 . S
C502 C503 1.399 . S
C503 H489 0.929 . S
C503 C502 1.399 . S
C503 C504 1.385 . S
C504 H490 0.931 1_545 S
C504 C503 1.385 . S
C504 C505 1.405 . S
C505 C504 1.405 . S
C505 C506 1.388 . S
C506 H491 0.930 . S
C506 C501 1.390 . S
C506 C505 1.388 . S
H507 C519 0.930 . S
H508 C521 0.930 1_565 S
H509 C522 0.930 . S
H510 C526 0.959 . S
H511 C526 0.959 . S
H512 C526 0.961 . S
H513 C527 0.960 . S
H514 C527 0.961 . S
H515 C527 0.959 . S
H516 C530 0.929 . S
H517 C531 0.931 . S
H518 C533 0.930 . S
C519 H507 0.930 . S
C519 C520 1.381 1_545 S
C519 C524 1.399 . S
C520 C519 1.381 1_565 S
C520 C521 1.372 1_565 S
C521 H508 0.930 1_545 S
C521 C520 1.372 1_545 S
C521 C522 1.388 . S
C522 H509 0.930 . S
C522 C521 1.388 . S
C522 C523 1.390 . S
C523 C522 1.390 . S
C523 C524 1.394 . S
C523 C529 1.465 . S
C524 C519 1.399 . S
C524 C523 1.394 . S
C524 C525 1.516 . S
C525 C524 1.516 . S
C525 C526 1.502 . S
C525 C527 1.561 . S
C525 C528 1.526 . S
C526 H510 0.959 . S
C526 H511 0.959 . S
C526 H512 0.961 . S
C526 C525 1.502 . S
C527 H513 0.960 . S
C527 H514 0.961 . S
C527 H515 0.959 . S
C527 C525 1.561 . S
C528 C525 1.526 . S
C528 C529 1.396 . S
C528 C533 1.390 . S
C529 C523 1.465 . S
C529 C528 1.396 . S
C529 C530 1.399 . S
C530 H516 0.929 . S
C530 C529 1.399 . S
C530 C531 1.385 . S
C531 H517 0.931 . S
C531 C530 1.385 . S
C531 C532 1.389 . S
C532 C531 1.389 . S
C532 C533 1.387 . S
C533 H518 0.930 . S
C533 C528 1.390 . S
C533 C532 1.387 . S
H534 C546 0.930 . S
H535 C548 0.930 . S
H536 C549 0.930 . S
H537 C553 0.959 . S
H538 C553 0.959 . S
H539 C553 0.961 . S
H540 C554 0.960 . S
H541 C554 0.961 . S
H542 C554 0.959 . S
H543 C557 0.929 . S
H544 C558 0.931 . S
H545 C560 0.930 . S
C546 H534 0.930 . S
C546 C547 1.399 . S
C546 C551 1.399 . S
C547 C546 1.399 . S
C547 C548 1.376 . S
C548 H535 0.930 . S
C548 C547 1.376 . S
C548 C549 1.388 . S
C549 H536 0.930 . S
C549 C548 1.388 . S
C549 C550 1.390 . S
C550 C549 1.390 . S
C550 C551 1.394 . S
C550 C556 1.465 . S
C551 C546 1.399 . S
C551 C550 1.394 . S
C551 C552 1.516 . S
C552 C551 1.516 . S
C552 C553 1.502 . S
C552 C554 1.561 . S
C552 C555 1.526 . S
C553 H537 0.959 . S
C553 H538 0.959 . S
C553 H539 0.961 . S
C553 C552 1.502 . S
C554 H540 0.960 . S
C554 H541 0.961 . S
C554 H542 0.959 . S
C554 C552 1.561 . S
C555 C552 1.526 . S
C555 C556 1.396 . S
C555 C560 1.390 . S
C556 C550 1.465 . S
C556 C555 1.396 . S
C556 C557 1.399 . S
C557 H543 0.929 . S
C557 C556 1.399 . S
C557 C558 1.385 . S
C558 H544 0.931 . S
C558 C557 1.385 . S
C558 C559 1.389 . S
C559 C558 1.389 . S
C559 C560 1.387 . S
C560 H545 0.930 . S
C560 C555 1.390 . S
C560 C559 1.387 . S
H561 C573 0.930 1_556 S
H562 C575 0.922 1_565 S
H563 C576 0.930 . S
H564 C580 0.959 1_554 S
H565 C580 0.959 . S
H566 C580 0.961 . S
H567 C581 0.960 . S
H568 C581 0.961 . S
H569 C581 0.959 . S
H570 C584 0.929 . S
H571 C585 0.931 . S
H572 C587 0.930 1_556 S
C573 H561 0.930 1_554 S
C573 C574 1.399 . S
C573 C578 1.399 . S
C574 C573 1.399 . S
C574 C575 1.376 . S
C575 H562 0.922 1_545 S
C575 C574 1.376 . S
C575 C576 1.388 . S
C576 H563 0.930 . S
C576 C575 1.388 . S
C576 C577 1.390 . S
C577 C576 1.390 . S
C577 C578 1.394 . S
C577 C583 1.465 . S
C578 C573 1.399 . S
C578 C577 1.394 . S
C578 C579 1.516 1_554 S
C579 C578 1.516 1_556 S
C579 C580 1.502 . S
C579 C581 1.561 . S
C579 C582 1.526 1_556 S
C580 H564 0.959 1_556 S
C580 H565 0.959 . S
C580 H566 0.961 . S
C580 C579 1.502 . S
C581 H567 0.960 . S
C581 H568 0.961 . S
C581 H569 0.959 . S
C581 C579 1.561 . S
C582 C579 1.526 1_554 S
C582 C583 1.396 . S
C582 C587 1.390 . S
C583 C577 1.465 . S
C583 C582 1.396 . S
C583 C584 1.399 . S
C584 H570 0.929 . S
C584 C583 1.399 . S
C584 C585 1.385 . S
C585 H571 0.931 . S
C585 C584 1.385 . S
C585 C586 1.389 . S
C586 C585 1.389 . S
C586 C587 1.387 . S
C587 H572 0.930 1_554 S
C587 C582 1.390 . S
C587 C586 1.387 . S
H588 C600 0.930 . S
H589 C602 0.930 . S
H590 C603 0.930 . S
H591 C607 0.959 . S
H592 C607 0.959 . S
H593 C607 0.961 . S
H594 C608 0.960 . S
H595 C608 0.961 . S
H596 C608 0.959 . S
H597 C611 0.929 . S
H598 C612 0.931 . S
H599 C614 0.930 . S
C600 H588 0.930 . S
C600 C601 1.399 . S
C600 C605 1.399 . S
C601 C600 1.399 . S
C601 C602 1.376 . S
C602 H589 0.930 . S
C602 C601 1.376 . S
C602 C603 1.388 . S
C603 H590 0.930 . S
C603 C602 1.388 . S
C603 C604 1.390 . S
C604 C603 1.390 . S
C604 C605 1.394 . S
C604 C610 1.465 . S
C605 C600 1.399 . S
C605 C604 1.394 . S
C605 C606 1.516 . S
C606 C605 1.516 . S
C606 C607 1.502 . S
C606 C608 1.561 . S
C606 C609 1.526 . S
C607 H591 0.959 . S
C607 H592 0.959 . S
C607 H593 0.961 . S
C607 C606 1.502 . S
C608 H594 0.960 . S
C608 H595 0.961 . S
C608 H596 0.959 . S
C608 C606 1.561 . S
C609 C606 1.526 . S
C609 C610 1.396 . S
C609 C614 1.390 . S
C610 C604 1.465 . S
C610 C609 1.396 . S
C610 C611 1.399 . S
C611 H597 0.929 . S
C611 C610 1.399 . S
C611 C612 1.385 . S
C612 H598 0.931 . S
C612 C611 1.385 . S
C612 C613 1.389 . S
C613 C612 1.389 . S
C613 C614 1.387 . S
C614 H599 0.930 . S
C614 C609 1.390 . S
C614 C613 1.387 . S
H615 C627 0.930 . S
H616 C629 0.930 . S
H617 C630 0.930 . S
H618 C634 0.959 . S
H619 C634 0.959 . S
H620 C634 0.961 . S
H621 C635 0.960 . S
H622 C635 0.961 . S
H623 C635 0.959 . S
H624 C638 0.929 . S
H625 C639 0.931 . S
H626 C641 0.930 . S
C627 H615 0.930 . S
C627 C628 1.399 . S
C627 C632 1.399 . S
C628 C627 1.399 . S
C628 C629 1.376 . S
C629 H616 0.930 . S
C629 C628 1.376 . S
C629 C630 1.388 . S
C630 H617 0.930 . S
C630 C629 1.388 . S
C630 C631 1.390 . S
C631 C630 1.390 . S
C631 C632 1.394 . S
C631 C637 1.465 . S
C632 C627 1.399 . S
C632 C631 1.394 . S
C632 C633 1.516 . S
C633 C632 1.516 . S
C633 C634 1.502 . S
C633 C635 1.561 . S
C633 C636 1.526 . S
C634 H618 0.959 . S
C634 H619 0.959 . S
C634 H620 0.961 . S
C634 C633 1.502 . S
C635 H621 0.960 . S
C635 H622 0.961 . S
C635 H623 0.959 . S
C635 C633 1.561 . S
C636 C633 1.526 . S
C636 C637 1.396 . S
C636 C641 1.390 . S
C637 C631 1.465 . S
C637 C636 1.396 . S
C637 C638 1.399 . S
C638 H624 0.929 . S
C638 C637 1.399 . S
C638 C639 1.385 . S
C639 H625 0.931 . S
C639 C638 1.385 . S
C639 C640 1.389 . S
C640 C639 1.389 . S
C640 C641 1.387 . S
C641 H626 0.930 . S
C641 C636 1.390 . S
C641 C640 1.387 . S
C331 C38 1.912 . S
C343 C92 1.869 . S
C358 C91 1.911 . S
C370 C145 1.850 . S
C385 C198 1.874 . S
C397 C144 1.914 . S
C412 C197 1.928 . S
C424 C251 1.885 . S
C439 C304 1.840 . S
C451 C250 1.920 . S
C466 C39 1.851 . S
C478 C303 1.911 . S
C493 C29 1.521 . S
C505 C188 1.576 1_455 S
C520 C241 1.603 . S
C532 C82 1.534 . S
C547 C135 1.585 . S
C559 C294 1.532 . S
C574 C181 1.946 . S
C586 C22 1.895 . S
C601 C234 1.909 . S
C613 C75 1.938 . S
C628 C287 1.945 . S
C640 C128 1.895 . S
