# Generated by pormake.
# Topology wht, (6)-cn, num edge types: 1
# Building blocks:
#     Node 0, Type 0, BuildingBlock: VOLQOD_clean_sbu_1, # of connection points: 6
#     Node 1, Type 0, BuildingBlock: VOLQOD_clean_sbu_1, # of connection points: 6
#     Node 2, Type 0, BuildingBlock: VOLQOD_clean_sbu_1, # of connection points: 6
#     Node 3, Type 0, BuildingBlock: VOLQOD_clean_sbu_1, # of connection points: 6
#     Node 4, Type 0, BuildingBlock: VOLQOD_clean_sbu_1, # of connection points: 6
#     Node 5, Type 0, BuildingBlock: VOLQOD_clean_sbu_1, # of connection points: 6
#     Node 6, Type 0, BuildingBlock: VOLQOD_clean_sbu_1, # of connection points: 6
#     Node 7, Type 0, BuildingBlock: VOLQOD_clean_sbu_1, # of connection points: 6
#     Edge 8, Type (0, 0), BuildingBlock: EZIPEK_clean_linker_0, # of connection points: 2
#     Edge 9, Type (0, 0), BuildingBlock: EZIPEK_clean_linker_0, # of connection points: 2
#     Edge 10, Type (0, 0), BuildingBlock: EZIPEK_clean_linker_0, # of connection points: 2
#     Edge 11, Type (0, 0), BuildingBlock: EZIPEK_clean_linker_0, # of connection points: 2
#     Edge 12, Type (0, 0), BuildingBlock: EZIPEK_clean_linker_0, # of connection points: 2
#     Edge 13, Type (0, 0), BuildingBlock: EZIPEK_clean_linker_0, # of connection points: 2
#     Edge 14, Type (0, 0), BuildingBlock: EZIPEK_clean_linker_0, # of connection points: 2
#     Edge 15, Type (0, 0), BuildingBlock: EZIPEK_clean_linker_0, # of connection points: 2
#     Edge 16, Type (0, 0), BuildingBlock: EZIPEK_clean_linker_0, # of connection points: 2
#     Edge 17, Type (0, 0), BuildingBlock: EZIPEK_clean_linker_0, # of connection points: 2
#     Edge 18, Type (0, 0), BuildingBlock: EZIPEK_clean_linker_0, # of connection points: 2
#     Edge 19, Type (0, 0), BuildingBlock: EZIPEK_clean_linker_0, # of connection points: 2
#     Edge 20, Type (0, 0), BuildingBlock: EZIPEK_clean_linker_0, # of connection points: 2
#     Edge 21, Type (0, 0), BuildingBlock: EZIPEK_clean_linker_0, # of connection points: 2
#     Edge 22, Type (0, 0), BuildingBlock: EZIPEK_clean_linker_0, # of connection points: 2
#     Edge 23, Type (0, 0), BuildingBlock: EZIPEK_clean_linker_0, # of connection points: 2
#     Edge 24, Type (0, 0), BuildingBlock: EZIPEK_clean_linker_0, # of connection points: 2
#     Edge 25, Type (0, 0), BuildingBlock: EZIPEK_clean_linker_0, # of connection points: 2
#     Edge 26, Type (0, 0), BuildingBlock: EZIPEK_clean_linker_0, # of connection points: 2
#     Edge 27, Type (0, 0), BuildingBlock: EZIPEK_clean_linker_0, # of connection points: 2
#     Edge 28, Type (0, 0), BuildingBlock: EZIPEK_clean_linker_0, # of connection points: 2
#     Edge 29, Type (0, 0), BuildingBlock: EZIPEK_clean_linker_0, # of connection points: 2
#     Edge 30, Type (0, 0), BuildingBlock: EZIPEK_clean_linker_0, # of connection points: 2
#     Edge 31, Type (0, 0), BuildingBlock: EZIPEK_clean_linker_0, # of connection points: 2
# Relax obj value: 0.363
# Max RMSD: 0.254
# Mean RMSD: 0.253
data_MOF--net-wht--node1-VOLQOD_clean_sbu_1--edge1-EZIPEK_clean_linker_0
_symmetry_space_group_name_H-M    P1
_symmetry_Int_Tables_number       1
_symmetry_cell_setting            triclinic
loop_
_symmetry_equiv_pos_as_xyz
'x, y, z'
_cell_length_a     21.05526
_cell_length_b     20.776889
_cell_length_c     38.67063
_cell_angle_alpha  90.39734
_cell_angle_beta   90.06116
_cell_angle_gamma 89.929234
loop_
_atom_site_label
_atom_site_type_symbol
_atom_site_fract_x
_atom_site_fract_y
_atom_site_fract_z
_atom_type_partial_charge
O0 O 0.12903 0.30837 0.18623 0.0
Zn1 Zn 0.14461 0.28146 0.13675 0.0
O2 O 0.06146 0.26833 0.11639 0.0
Zn3 Zn 0.04833 0.1771 0.11194 0.0
Zn4 Zn 0.99214 0.30867 0.1422 0.0
Zn5 Zn 0.06106 0.30553 0.072 0.0
O6 O 0.03855 0.14758 0.06232 0.0
O7 O 0.07291 0.23752 0.03802 0.0
O8 O 0.20162 0.19855 0.13269 0.0
O9 O 0.12499 0.12761 0.12302 0.0
O10 O 0.98621 0.15013 0.14755 0.0
O11 O 0.93824 0.24044 0.16385 0.0
O12 O 0.93318 0.36513 0.11159 0.0
O13 O 0.18455 0.36054 0.11451 0.0
O14 O 0.97995 0.34453 0.06133 0.0
O15 O 0.12583 0.37555 0.06751 0.0
C16 C 0.08415 0.34126 0.19993 0.0
C17 C 0.0614 0.17756 0.03649 0.0
C18 C 0.94618 0.18002 0.16641 0.0
C19 C 0.18288 0.14035 0.12827 0.0
C20 C 0.9348 0.36874 0.0786 0.0
C21 C 0.17073 0.39283 0.08751 0.0
O22 O 0.03175 0.35254 0.18419 0.0
O23 O 0.2858 0.61653 0.29089 0.0
Zn24 Zn 0.2552 0.64971 0.33666 0.0
O25 O 0.25021 0.57834 0.36772 0.0
Zn26 Zn 0.16441 0.55685 0.37935 0.0
Zn27 Zn 0.29667 0.50635 0.34819 0.0
Zn28 Zn 0.28974 0.60048 0.40968 0.0
O29 O 0.15107 0.55863 0.4319 0.0
O30 O 0.2286 0.62736 0.44532 0.0
O31 O 0.16678 0.69224 0.33045 0.0
O32 O 0.10687 0.62503 0.36093 0.0
O33 O 0.13873 0.47758 0.35164 0.0
O34 O 0.23033 0.45038 0.32642 0.0
O35 O 0.34906 0.45855 0.38501 0.0
O36 O 0.33013 0.70648 0.35149 0.0
O37 O 0.32769 0.52324 0.42921 0.0
O38 O 0.35955 0.663 0.40154 0.0
C39 C 0.33126 0.57743 0.28493 0.0
C40 C 0.17801 0.59746 0.45321 0.0
C41 C 0.1704 0.44444 0.32965 0.0
C42 C 0.11244 0.6743 0.34183 0.0
C43 C 0.35225 0.47206 0.41726 0.0
C44 C 0.36926 0.70141 0.37666 0.0
O45 O 0.34955 0.53648 0.30735 0.0
O46 O 0.85624 0.69713 0.6882 0.0
Zn47 Zn 0.8367 0.72588 0.63953 0.0
O48 O 0.91737 0.74323 0.61795 0.0
Zn49 Zn 0.93576 0.83337 0.6129 0.0
Zn50 Zn 0.98692 0.70327 0.64195 0.0
Zn51 Zn 0.91132 0.71025 0.57241 0.0
O52 O 0.94836 0.85837 0.56312 0.0
O53 O 0.89029 0.78011 0.53927 0.0
O54 O 0.78275 0.81032 0.63854 0.0
O55 O 0.85867 0.88136 0.62586 0.0
O56 O 0.00516 0.86364 0.64496 0.0
O57 O 0.03619 0.77042 0.66696 0.0
O58 O 0.04666 0.65634 0.60808 0.0
O59 O 0.79675 0.64488 0.61697 0.0
O60 O 0.99479 0.67842 0.55928 0.0
O61 O 0.85491 0.63347 0.56945 0.0
C62 C 0.90302 0.66511 0.7004 0.0
C63 C 0.91664 0.83519 0.53787 0.0
C64 C 0.03838 0.83142 0.66626 0.0
C65 C 0.80162 0.86838 0.63368 0.0
C66 C 0.04249 0.65576 0.57509 0.0
C67 C 0.81233 0.61304 0.58982 0.0
O68 O 0.95334 0.65509 0.6827 0.0
O69 O 0.78248 0.36999 0.94178 0.0
Zn70 Zn 0.75722 0.34747 0.8923 0.0
O71 O 0.74451 0.42764 0.86829 0.0
Zn72 Zn 0.65605 0.44946 0.86309 0.0
Zn73 Zn 0.78557 0.49948 0.89132 0.0
Zn74 Zn 0.77753 0.41426 0.82276 0.0
O75 O 0.63382 0.46904 0.81324 0.0
O76 O 0.70641 0.4048 0.78896 0.0
O77 O 0.67226 0.294 0.88822 0.0
O78 O 0.60532 0.37169 0.87216 0.0
O79 O 0.62899 0.51687 0.89816 0.0
O80 O 0.72208 0.55982 0.91223 0.0
O81 O 0.84166 0.55037 0.8578 0.0
O82 O 0.83799 0.30406 0.87239 0.0
O83 O 0.82287 0.49342 0.80981 0.0
O84 O 0.84319 0.34278 0.8194 0.0
C85 C 0.8141 0.41788 0.95372 0.0
C86 C 0.65467 0.43654 0.78749 0.0
C87 C 0.66207 0.55733 0.91529 0.0
C88 C 0.61609 0.31369 0.88035 0.0
C89 C 0.84692 0.54187 0.82516 0.0
C90 C 0.866 0.30729 0.84309 0.0
O91 O 0.82573 0.46708 0.93509 0.0
O92 O 0.64269 0.19214 0.51324 0.0
Zn93 Zn 0.66183 0.22252 0.56204 0.0
O94 O 0.58069 0.24118 0.5827 0.0
Zn95 Zn 0.56552 0.33137 0.58481 0.0
Zn96 Zn 0.50959 0.20052 0.55904 0.0
Zn97 Zn 0.58549 0.21464 0.62933 0.0
O98 O 0.5424 0.36175 0.63311 0.0
O99 O 0.60324 0.28999 0.66016 0.0
O100 O 0.71936 0.30493 0.56419 0.0
O101 O 0.64463 0.37737 0.57647 0.0
O102 O 0.50848 0.35676 0.54613 0.0
O103 O 0.45726 0.26671 0.53363 0.0
O104 O 0.44988 0.15685 0.59439 0.0
O105 O 0.69896 0.14288 0.58611 0.0
O106 O 0.50132 0.18395 0.64276 0.0
O107 O 0.64416 0.13933 0.63519 0.0
C108 C 0.59697 0.15792 0.50136 0.0
C109 C 0.57384 0.34366 0.65959 0.0
C110 C 0.46738 0.32616 0.52837 0.0
C111 C 0.70175 0.36329 0.56976 0.0
C112 C 0.45345 0.16015 0.62743 0.0
C113 C 0.68547 0.11571 0.61476 0.0
O114 O 0.5459 0.14818 0.51865 0.0
O115 O 0.27484 0.14176 0.7634 0.0
Zn116 Zn 0.25541 0.15593 0.81448 0.0
O117 O 0.25182 0.07035 0.83265 0.0
Zn118 Zn 0.1652 0.0435 0.83964 0.0
Zn119 Zn 0.29475 0.00925 0.8037 0.0
Zn120 Zn 0.29495 0.07143 0.8751 0.0
O121 O 0.14534 0.03573 0.89052 0.0
O122 O 0.23183 0.08405 0.91123 0.0
O123 O 0.1669 0.20139 0.82332 0.0
O124 O 0.10602 0.11439 0.82721 0.0
O125 O 0.14108 0.96904 0.80842 0.0
O126 O 0.22807 0.96492 0.7759 0.0
O127 O 0.3412 0.93984 0.83336 0.0
O128 O 0.33533 0.20294 0.83492 0.0
O129 O 0.33156 0.98882 0.88431 0.0
O130 O 0.36515 0.13521 0.87612 0.0
C131 C 0.31867 0.1063 0.75035 0.0
C132 C 0.17482 0.06488 0.91484 0.0
C133 C 0.17031 0.95037 0.78125 0.0
C134 C 0.11173 0.17518 0.82581 0.0
C135 C 0.34855 0.941 0.86625 0.0
C136 C 0.37489 0.18536 0.85833 0.0
O137 O 0.34296 0.05936 0.76724 0.0
O138 O 0.35055 0.78887 0.00767 0.0
Zn139 Zn 0.33195 0.77567 0.05866 0.0
O140 O 0.41392 0.76887 0.07832 0.0
Zn141 Zn 0.43819 0.68025 0.08086 0.0
Zn142 Zn 0.47502 0.81669 0.05243 0.0
Zn143 Zn 0.40529 0.80171 0.1235 0.0
O144 O 0.44392 0.65255 0.13138 0.0
O145 O 0.38659 0.73067 0.15617 0.0
O146 O 0.28574 0.68872 0.06931 0.0
O147 O 0.36938 0.62647 0.06022 0.0
O148 O 0.51326 0.65895 0.05081 0.0
O149 O 0.52882 0.75369 0.02589 0.0
O150 O 0.53401 0.86596 0.08673 0.0
O151 O 0.28949 0.85981 0.07756 0.0
O152 O 0.48728 0.83716 0.13609 0.0
O153 O 0.34444 0.87508 0.12597 0.0
C154 C 0.38644 0.83183 -0.00563 0.0
C155 C 0.41237 0.67522 0.15694 0.0
C156 C 0.53963 0.69363 0.02794 0.0
C157 C 0.3103 0.63243 0.06569 0.0
C158 C 0.53249 0.86358 0.11988 0.0
C159 C 0.30216 0.8932 0.10472 0.0
O160 O 0.42815 0.86147 0.01278 0.0
O161 O 0.78509 0.88253 0.40401 0.0
Zn162 Zn 0.75462 0.84815 0.35854 0.0
O163 O 0.74763 0.91894 0.32749 0.0
Zn164 Zn 0.66184 0.94217 0.31746 0.0
Zn165 Zn 0.7945 0.99037 0.34671 0.0
Zn166 Zn 0.78505 0.89592 0.28516 0.0
O167 O 0.64696 0.94371 0.26481 0.0
O168 O 0.72149 0.87259 0.2496 0.0
O169 O 0.66724 0.80495 0.3648 0.0
O170 O 0.60609 0.87265 0.33507 0.0
O171 O 0.63725 0.01917 0.34792 0.0
O172 O 0.73072 0.04555 0.37115 0.0
O173 O 0.8428 0.03937 0.30943 0.0
O174 O 0.8301 0.79212 0.34355 0.0
O175 O 0.82117 0.97353 0.26579 0.0
O176 O 0.85641 0.83321 0.29247 0.0
C177 C 0.83187 0.92045 0.40868 0.0
C178 C 0.67201 0.90539 0.24248 0.0
C179 C 0.67059 0.05142 0.3696 0.0
C180 C 0.61267 0.82282 0.35365 0.0
C181 C 0.8445 0.02559 0.27722 0.0
C182 C 0.86796 0.79614 0.31781 0.0
O183 O 0.85085 0.95884 0.38527 0.0
C184 C 0.90687 0.07692 0.19116 0.0
C185 C 0.91509 0.1442 0.19493 0.0
C186 C 0.87055 0.13651 0.25333 0.0
C187 C 0.87433 0.06837 0.25131 0.0
N188 N 0.92144 0.97728 0.22108 0.0
N189 N 0.92402 0.23327 0.23638 0.0
C190 C 0.90047 0.03952 0.2211 0.0
C191 C 0.9024 0.17323 0.22789 0.0
N192 N 0.90388 0.04845 0.15928 0.0
N193 N 0.83552 0.16683 0.27828 0.0
H194 H 0.95449 0.26 0.22101 0.0
H195 H 0.91888 0.25261 0.26119 0.0
H196 H 0.80769 0.14261 0.29618 0.0
H197 H 0.82847 0.21655 0.27838 0.0
H198 H 0.89453 0.99944 0.15608 0.0
H199 H 0.90227 0.07489 0.13645 0.0
H200 H 0.94388 0.95649 0.19969 0.0
H201 H 0.92428 0.94996 0.24358 0.0
C202 C 0.38463 0.3629 0.44196 0.0
C203 C 0.38704 0.43122 0.44251 0.0
C204 C 0.42712 0.42775 0.5016 0.0
C205 C 0.435 0.36012 0.49935 0.0
N206 N 0.43884 0.26703 0.46053 0.0
N207 N 0.436 0.52509 0.46889 0.0
C208 C 0.41884 0.32828 0.4676 0.0
C209 C 0.41653 0.46256 0.47104 0.0
N210 N 0.34852 0.33056 0.41823 0.0
N211 N 0.42727 0.45904 0.53277 0.0
H212 H 0.43469 0.55078 0.44579 0.0
H213 H 0.46094 0.54789 0.48882 0.0
H214 H 0.42787 0.43479 0.5563 0.0
H215 H 0.41797 0.50824 0.53501 0.0
H216 H 0.3417 0.2809 0.4193 0.0
H217 H 0.32021 0.35334 0.39994 0.0
H218 H 0.43181 0.24522 0.43645 0.0
H219 H 0.4694 0.24115 0.47635 0.0
C220 C 0.04192 0.91169 0.71512 0.0
C221 C 0.07328 0.86471 0.6944 0.0
C222 C 0.16241 0.86514 0.73512 0.0
C223 C 0.13495 0.91839 0.75281 0.0
N224 N 0.05659 0.00415 0.75207 0.0
N225 N 0.16949 0.80636 0.681 0.0
C226 C 0.07698 0.9452 0.74072 0.0
C227 C 0.13546 0.84423 0.70331 0.0
N228 N 0.97808 0.92234 0.71191 0.0
N229 N 0.21282 0.83313 0.7492 0.0
H230 H 0.15214 0.79215 0.65685 0.0
H231 H 0.21716 0.79495 0.6849 0.0
H232 H 0.23205 0.84524 0.77325 0.0
H233 H 0.2309 0.79049 0.73881 0.0
H234 H 0.95292 0.95207 0.72889 0.0
H235 H 0.94882 0.89621 0.69524 0.0
H236 H 0.01745 0.02749 0.74133 0.0
H237 H 0.08254 0.03323 0.76895 0.0
C238 C 0.62874 0.62521 0.00527 0.0
C239 C 0.57311 0.66139 -0.00102 0.0
C240 C 0.58042 0.63622 0.93697 0.0
C241 C 0.63205 0.59456 0.94378 0.0
N242 N 0.69551 0.53753 -0.01402 0.0
N243 N 0.48692 0.68828 0.96016 0.0
C244 C 0.65385 0.58594 -0.02163 0.0
C245 C 0.54644 0.6636 0.96515 0.0
N246 N 0.65804 0.62891 0.03677 0.0
N247 N 0.56458 0.65075 0.90365 0.0
H248 H 0.45885 0.70619 -0.01976 0.0
H249 H 0.46287 0.68523 0.93665 0.0
H250 H 0.58875 0.63176 0.88236 0.0
H251 H 0.53156 0.68618 0.89732 0.0
H252 H 0.70245 0.60873 0.04167 0.0
H253 H 0.64061 0.65714 0.05708 0.0
H254 H 0.70808 0.5252 0.01114 0.0
H255 H 0.71213 0.50491 0.96754 0.0
C256 C 0.10385 0.43612 0.23866 0.0
C257 C 0.09492 0.3688 0.2349 0.0
C258 C 0.12014 0.35315 0.29649 0.0
C259 C 0.13647 0.419 0.29897 0.0
N260 N 0.14674 0.52392 0.27294 0.0
N261 N 0.0915 0.26251 0.25946 0.0
C262 C 0.12801 0.46093 0.27035 0.0
C263 C 0.10171 0.32709 0.26374 0.0
N264 N 0.09025 0.47628 0.21172 0.0
N265 N 0.12213 0.31612 0.32555 0.0
H266 H 0.07443 0.24256 0.23643 0.0
H267 H 0.10143 0.22816 0.27814 0.0
H268 H 0.13574 0.33465 0.34959 0.0
H269 H 0.10662 0.26868 0.32662 0.0
H270 H 0.08795 0.52615 0.21402 0.0
H271 H 0.07704 0.46001 0.18721 0.0
H272 H 0.14957 0.55519 0.25212 0.0
H273 H 0.16307 0.54495 0.29584 0.0
C274 C 0.10155 0.57213 0.54152 0.0
C275 C 0.09594 0.63673 0.55284 0.0
C276 C 0.14309 0.67485 0.49931 0.0
C277 C 0.15017 0.6101 0.48778 0.0
N278 N 0.15279 0.49703 0.50221 0.0
N279 N 0.12917 0.74672 0.54833 0.0
C280 C 0.13459 0.55847 0.51022 0.0
C281 C 0.12392 0.68687 0.53378 0.0
N282 N 0.07289 0.52442 0.55988 0.0
N283 N 0.14961 0.7248 0.47673 0.0
H284 H 0.1146 0.75617 0.57368 0.0
H285 H 0.15358 0.78441 0.53671 0.0
H286 H 0.15811 0.71834 0.45038 0.0
H287 H 0.13943 0.77241 0.4833 0.0
H288 H 0.06854 0.47729 0.55083 0.0
H289 H 0.05097 0.53325 0.58366 0.0
H290 H 0.14742 0.4586 0.51911 0.0
H291 H 0.17881 0.48548 0.48008 0.0
C292 C 0.85071 0.64738 0.79411 0.0
C293 C 0.87994 0.58834 0.80274 0.0
C294 C 0.92829 0.5814 0.74583 0.0
C295 C 0.89957 0.64088 0.73655 0.0
N296 N 0.85613 0.74178 0.758 0.0
N297 N 0.96849 0.51827 0.79337 0.0
C298 C 0.86784 0.67774 0.76262 0.0
C299 C 0.92694 0.56258 0.78084 0.0
N300 N 0.80484 0.67301 0.81495 0.0
N301 N 0.95157 0.53976 0.72144 0.0
H302 H 0.96809 0.50545 0.81945 0.0
H303 H 0.00698 0.50132 0.77899 0.0
H304 H 0.94656 0.54661 0.69494 0.0
H305 H 0.96845 0.49406 0.72766 0.0
H306 H 0.7768 0.71204 0.80766 0.0
H307 H 0.79309 0.65319 0.8388 0.0
H308 H 0.83705 0.77111 0.77735 0.0
H309 H 0.87292 0.76715 0.73672 0.0
C310 C 0.82911 0.37315 0.0492 0.0
C311 C 0.88696 0.40358 0.05785 0.0
C312 C 0.89473 0.44803 4e-05 0.0
C313 C 0.83667 0.41738 -0.00952 0.0
N314 N 0.73726 0.37341 0.01152 0.0
N315 N 0.95689 0.49181 0.04742 0.0
C316 C 0.79994 0.38705 0.01681 0.0
C317 C 0.91217 0.44997 0.03536 0.0
N318 N 0.80376 0.32884 0.07104 0.0
N319 N 0.9367 0.46927 -0.02427 0.0
H320 H 0.9697 0.4925 0.07352 0.0
H321 H 0.97501 0.52926 0.03257 0.0
H322 H 0.93154 0.46069 0.94934 0.0
H323 H 0.98131 0.48754 -0.01785 0.0
H324 H 0.7656 0.29943 0.06424 0.0
H325 H 0.82313 0.32013 0.09542 0.0
H326 H 0.70796 0.35543 0.03089 0.0
H327 H 0.71274 0.3875 -0.0106 0.0
C328 C 0.61105 0.06197 0.46215 0.0
C329 C 0.60404 0.12952 0.46611 0.0
C330 C 0.62409 0.14377 0.40377 0.0
C331 C 0.63936 0.07763 0.40107 0.0
N332 N 0.65205 0.97352 0.42769 0.0
N333 N 0.60168 0.23564 0.44118 0.0
C334 C 0.6332 0.03649 0.43015 0.0
C335 C 0.60948 0.1707 0.43693 0.0
N336 N 0.59696 0.02201 0.48901 0.0
N337 N 0.6234 0.18037 0.37454 0.0
H338 H 0.58713 0.25649 0.46448 0.0
H339 H 0.61149 0.26934 0.42217 0.0
H340 H 0.63432 0.16132 0.35021 0.0
H341 H 0.60785 0.22787 0.37374 0.0
H342 H 0.59398 0.97218 0.48657 0.0
H343 H 0.58305 0.0386 0.51329 0.0
H344 H 0.65774 0.94351 0.44892 0.0
H345 H 0.66601 0.95174 0.40454 0.0
C346 C 0.35269 0.18432 0.70386 0.0
C347 C 0.34183 0.11987 0.71465 0.0
C348 C 0.38869 0.07996 0.66034 0.0
C349 C 0.39926 0.14415 0.65005 0.0
N350 N 0.37134 0.25569 0.6555 0.0
N351 N 0.32885 0.00849 0.69721 0.0
C352 C 0.37329 0.19557 0.66952 0.0
C353 C 0.35333 0.06816 0.69101 0.0
N354 N 0.3489 0.23443 0.72689 0.0
N355 N 0.41467 0.03054 0.6417 0.0
H356 H 0.29941 0.99895 0.71821 0.0
H357 H 0.3317 0.97061 0.67949 0.0
H358 H 0.43848 0.03801 0.61841 0.0
H359 H 0.41512 0.98307 0.65023 0.0
H360 H 0.35976 0.28173 0.7205 0.0
H361 H 0.34197 0.22854 0.75333 0.0
H362 H 0.34836 0.29453 0.66724 0.0
H363 H 0.38711 0.26454 0.63038 0.0
C364 C 0.4348 0.85685 0.93556 0.0
C365 C 0.37997 0.84627 0.95656 0.0
C366 C 0.31431 0.85623 0.90441 0.0
C367 C 0.36579 0.88399 0.88674 0.0
N368 N 0.47662 0.90822 0.88406 0.0
N369 N 0.26473 0.8468 0.96023 0.0
C370 C 0.4269 0.88216 0.90166 0.0
C371 C 0.31879 0.84737 0.94068 0.0
N372 N 0.49399 0.84167 0.94743 0.0
N373 N 0.25928 0.84443 0.88687 0.0
H374 H 0.26484 0.84874 -0.01286 0.0
H375 H 0.21954 0.85295 0.94973 0.0
H376 H 0.2555 0.85318 0.86037 0.0
H377 H 0.22081 0.82045 0.89778 0.0
H378 H 0.53442 0.84329 0.93195 0.0
H379 H 0.50201 0.82084 0.97141 0.0
H380 H 0.52119 0.91606 0.89503 0.0
H381 H 0.47152 0.92441 0.85869 0.0
C382 C 0.61744 0.82822 0.15809 0.0
C383 C 0.58765 0.88059 0.14159 0.0
C384 C 0.62716 0.95244 0.18723 0.0
C385 C 0.64378 0.89774 0.20738 0.0
N386 N 0.64364 0.78159 0.21316 0.0
N387 N 0.56271 0.99323 0.13999 0.0
C388 C 0.63695 0.83495 0.19295 0.0
C389 C 0.59282 0.94323 0.15579 0.0
N390 N 0.6235 0.77099 0.14083 0.0
N391 N 0.64569 0.01263 0.19742 0.0
H392 H 0.53981 0.98769 0.11618 0.0
H393 H 0.55822 0.03878 0.15117 0.0
H394 H 0.67329 0.02102 0.21939 0.0
H395 H 0.63927 0.05329 0.18219 0.0
H396 H 0.64898 0.73209 0.15059 0.0
H397 H 0.60844 0.76536 0.11523 0.0
H398 H 0.6336 0.73519 0.20439 0.0
H399 H 0.65169 0.78386 0.23974 0.0
C400 C 0.09245 0.05562 0.96319 0.0
C401 C 0.1398 0.09057 0.94503 0.0
C402 C 0.14369 0.16871 -0.00882 0.0
C403 C 0.08846 0.14237 0.00648 0.0
N404 N 0.00297 0.06461 0.00241 0.0
N405 N 0.18534 0.19662 0.93602 0.0
C406 C 0.06037 0.08662 -0.00872 0.0
C407 C 0.15745 0.15236 0.95709 0.0
N408 N 0.0795 0.99316 0.95472 0.0
N409 N 0.18474 0.20729 0.00918 0.0
H410 H 0.18944 0.18992 0.90934 0.0
H411 H 0.19599 0.24314 0.9446 0.0
H412 H 0.18141 0.21471 0.03581 0.0
H413 H 0.22682 0.2242 -0.00174 0.0
H414 H 0.0491 0.96456 0.96929 0.0
H415 H 0.10373 0.96822 0.93533 0.0
H416 H 0.97873 0.02735 -0.01003 0.0
H417 H 0.97676 0.08757 0.02172 0.0
C418 C 0.4435 0.63536 0.21538 0.0
C419 C 0.40011 0.63466 0.18736 0.0
C420 C 0.32619 0.56985 0.22117 0.0
C421 C 0.36312 0.58211 0.25098 0.0
N422 N 0.45812 0.62442 0.27731 0.0
N423 N 0.29808 0.60468 0.16364 0.0
C424 C 0.42297 0.613 0.24824 0.0
C425 C 0.34121 0.60191 0.19003 0.0
N426 N 0.50355 0.65857 0.21066 0.0
N427 N 0.2766 0.52773 0.22296 0.0
H428 H 0.30709 0.62847 0.14053 0.0
H429 H 0.25182 0.5874 0.16556 0.0
H430 H 0.26641 0.50258 0.24557 0.0
H431 H 0.25043 0.51272 0.2015 0.0
H432 H 0.53926 0.65558 0.22922 0.0
H433 H 0.51917 0.67635 0.18697 0.0
H434 H 0.49808 0.65385 0.27797 0.0
H435 H 0.44544 0.60616 0.30132 0.0
C436 C 0.84259 0.94436 0.47138 0.0
C437 C 0.86738 0.91463 0.44125 0.0
C438 C 0.94184 0.85203 0.47606 0.0
C439 C 0.90891 0.87258 0.50601 0.0
N440 N 0.83117 0.9406 0.53382 0.0
N441 N 0.94132 0.84233 0.41358 0.0
C442 C 0.86107 0.92061 0.50426 0.0
C443 C 0.91832 0.87009 0.44316 0.0
N444 N 0.80088 0.99448 0.46823 0.0
N445 N 0.99512 0.81487 0.47935 0.0
H446 H 0.92591 0.85605 0.38911 0.0
H447 H 0.97321 0.80403 0.41315 0.0
H448 H 0.01307 0.80128 0.5034 0.0
H449 H 0.02448 0.8022 0.45877 0.0
H450 H 0.78377 0.02149 0.48898 0.0
H451 H 0.78712 0.01244 0.44421 0.0
H452 H 0.79122 0.97011 0.5342 0.0
H453 H 0.84523 0.92562 0.55834 0.0
C454 C 0.54506 0.36439 0.72088 0.0
C455 C 0.57733 0.38475 0.69079 0.0
C456 C 0.64092 0.46035 0.72509 0.0
C457 C 0.61707 0.43129 0.75541 0.0
N458 N 0.54154 0.36262 0.78373 0.0
N459 N 0.65025 0.45624 0.66246 0.0
C460 C 0.56643 0.38642 0.75378 0.0
C461 C 0.62254 0.43526 0.69227 0.0
N462 N 0.495 0.32295 0.71763 0.0
N463 N 0.68174 0.51123 0.72811 0.0
H464 H 0.63579 0.44029 0.63808 0.0
H465 H 0.68815 0.48821 0.66158 0.0
H466 H 0.69502 0.53021 0.75212 0.0
H467 H 0.69884 0.53761 0.70736 0.0
H468 H 0.46741 0.30708 0.73811 0.0
H469 H 0.47843 0.30721 0.69356 0.0
H470 H 0.50838 0.32572 0.78492 0.0
H471 H 0.55481 0.37974 0.80806 0.0
C472 C 0.21813 0.03343 0.15013 0.0
C473 C 0.22698 0.08404 0.12617 0.0
C474 C 0.28899 0.01043 0.08895 0.0
C475 C 0.27283 0.95797 0.11074 0.0
N476 N 0.21774 0.91829 0.16077 0.0
N477 N 0.26804 0.1206 0.07168 0.0
C478 C 0.23665 0.96932 0.14117 0.0
C479 C 0.26227 0.07263 0.09543 0.0
N480 N 0.19219 0.04732 0.1817 0.0
N481 N 0.33182 1.00148 0.06278 0.0
H482 H 0.25327 0.16766 0.07662 0.0
H483 H 0.28486 0.11324 0.04664 0.0
H484 H 0.35207 0.95691 0.05691 0.0
H485 H 0.3511 0.03902 0.04854 0.0
H486 H 0.18919 0.01441 0.2018 0.0
H487 H 0.1791 0.09404 0.18885 0.0
H488 H 0.18602 0.92216 0.18131 0.0
H489 H 0.22961 0.87078 0.15469 0.0
C490 C 0.44027 0.7986 0.37927 0.0
C491 C 0.43284 0.73167 0.3739 0.0
C492 C 0.5452 0.72238 0.35711 0.0
C493 C 0.55346 0.78892 0.36403 0.0
N494 N 0.51317 0.88623 0.39069 0.0
N495 N 0.48148 0.62701 0.36554 0.0
C496 C 0.50215 0.82585 0.37777 0.0
C497 C 0.48645 0.69262 0.36556 0.0
N498 N 0.38825 0.83627 0.3856 0.0
N499 N 0.59158 0.68834 0.34031 0.0
H500 H 0.43881 0.60261 0.36912 0.0
H501 H 0.52072 0.59652 0.36399 0.0
H502 H 0.63484 0.70832 0.33299 0.0
H503 H 0.585 0.64173 0.33088 0.0
H504 H 0.38967 0.88638 0.38575 0.0
H505 H 0.34264 0.81745 0.38843 0.0
H506 H 0.47921 0.91313 0.404 0.0
H507 H 0.55826 0.90682 0.39138 0.0
C508 C 0.68896 0.99724 0.6013 0.0
C509 C 0.71005 0.04989 0.62201 0.0
C510 C 0.77036 0.97478 0.65828 0.0
C511 C 0.75766 0.92438 0.63428 0.0
N512 N 0.70808 0.88801 0.58146 0.0
N513 N 0.77208 0.08994 0.66985 0.0
C514 C 0.71702 0.93542 0.60565 0.0
C515 C 0.7505 0.03886 0.65074 0.0
N516 N 0.64063 0.00583 0.57816 0.0
N517 N 0.80167 0.96079 0.68828 0.0
H518 H 0.75843 0.13731 0.66498 0.0
H519 H 0.80681 0.08622 0.6889 0.0
H520 H 0.81592 0.91404 0.69434 0.0
H521 H 0.8084 0.99367 0.70838 0.0
H522 H 0.61856 0.96796 0.5651 0.0
H523 H 0.61839 0.05011 0.57436 0.0
H524 H 0.68634 0.89586 0.55764 0.0
H525 H 0.7259 0.8415 0.58426 0.0
C526 C 0.48523 0.21532 0.83833 0.0
C527 C 0.4367 0.21964 0.8639 0.0
C528 C 0.51148 0.27509 0.90328 0.0
C529 C 0.56013 0.26976 0.878 0.0
N530 N 0.59712 0.22783 0.82361 0.0
N531 N 0.40488 0.24715 0.92203 0.0
C532 C 0.54802 0.23748 0.8462 0.0
C533 C 0.45044 0.2474 0.89683 0.0
N534 N 0.47116 0.19041 0.80638 0.0
N535 N 0.52333 0.30891 0.93306 0.0
H536 H 0.35821 0.23251 0.9175 0.0
H537 H 0.41355 0.25893 0.9478 0.0
H538 H 0.56848 0.32598 0.93946 0.0
H539 H 0.48855 0.32226 0.95081 0.0
H540 H 0.50153 0.19235 0.78522 0.0
H541 H 0.42717 0.17061 0.80009 0.0
H542 H 0.59398 0.20031 0.80111 0.0
H543 H 0.6432 0.24369 0.82869 0.0
C544 C 0.80276 0.49682 0.60765 0.0
C545 C 0.7877 0.54654 0.5838 0.0
C546 C 0.74016 0.46582 0.54482 0.0
C547 C 0.74646 0.41852 0.57084 0.0
N548 N 0.7803 0.38893 0.62799 0.0
N549 N 0.73843 0.57945 0.53049 0.0
C550 C 0.77759 0.43381 0.60237 0.0
C551 C 0.75604 0.53116 0.55236 0.0
N552 N 0.84294 0.5091 0.63471 0.0
N553 N 0.71839 0.44774 0.51291 0.0
H554 H 0.74816 0.62784 0.53552 0.0
H555 H 0.70972 0.57246 0.50887 0.0
H556 H 0.70693 0.40001 0.50701 0.0
H557 H 0.71736 0.47812 0.49163 0.0
H558 H 0.86089 0.47337 0.65076 0.0
H559 H 0.86297 0.55416 0.63947 0.0
H560 H 0.79422 0.39949 0.65325 0.0
H561 H 0.76519 0.34154 0.62436 0.0
C562 C 0.00643 0.19229 0.85588 0.0
C563 C 0.05168 0.2137 0.83108 0.0
C564 C 0.97888 0.30253 0.8175 0.0
C565 C 0.92927 0.27384 0.83756 0.0
N566 N 0.89493 0.17879 0.86809 0.0
N567 N 0.07315 0.28349 0.7829 0.0
C568 C 0.94275 0.21495 0.85446 0.0
C569 C 0.03563 0.26708 0.81021 0.0
N570 N 0.02464 0.15238 0.88196 0.0
N571 N 0.9747 0.36507 0.8073 0.0
H572 H 0.11423 0.25829 0.77626 0.0
H573 H 0.05979 0.31815 0.76491 0.0
H574 H 0.93832 0.39579 0.81502 0.0
H575 H 0.01214 0.38869 0.79522 0.0
H576 H 0.9944 0.13951 0.9021 0.0
H577 H 0.0719 0.13962 0.88591 0.0
H578 H 0.90271 0.13317 0.87837 0.0
H579 H 0.84706 0.1903 0.86504 0.0
C580 C 0.20763 0.56684 0.06171 0.0
C581 C 0.27288 0.57143 0.07087 0.0
C582 C 0.27234 0.45527 0.08336 0.0
C583 C 0.20564 0.45367 0.08017 0.0
N584 N 0.10813 0.51472 0.07478 0.0
N585 N 0.36024 0.51967 0.10177 0.0
C586 C 0.1726 0.51134 0.07167 0.0
C587 C 0.30346 0.51554 0.08481 0.0
N588 N 0.17924 0.61346 0.04236 0.0
N589 N 0.30661 0.39944 0.08454 0.0
H590 H 0.38229 0.56289 0.1077 0.0
H591 H 0.3806 0.48073 0.11457 0.0
H592 H 0.28586 0.35407 0.08207 0.0
H593 H 0.35614 0.39878 0.08384 0.0
H594 H 0.13305 0.60893 0.03289 0.0
H595 H 0.20384 0.6524 0.03217 0.0
H596 H 0.08296 0.55758 0.07177 0.0
H597 H 0.0809 0.47709 0.08443 0.0
C598 C 0.93889 0.69832 0.31647 0.0
C599 C 0.93189 0.7657 0.32024 0.0
C600 C 0.04452 0.77488 0.33697 0.0
C601 C 0.05251 0.7078 0.33138 0.0
N602 N 0.0108 0.60897 0.30711 0.0
N603 N 0.98117 0.87028 0.32688 0.0
C604 C 0.00061 0.67047 0.31859 0.0
C605 C 0.98587 0.80466 0.32784 0.0
N606 N 0.88653 0.66072 0.31111 0.0
N607 N 0.09096 0.80958 0.3533 0.0
H608 H 0.9386 0.89467 0.32271 0.0
H609 H 0.02051 0.90058 0.32804 0.0
H610 H 0.13394 0.78964 0.36127 0.0
H611 H 0.08459 0.85678 0.36188 0.0
H612 H 0.88751 0.61066 0.31231 0.0
H613 H 0.84109 0.67976 0.3077 0.0
H614 H 0.97651 0.5816 0.29435 0.0
H615 H 0.0555 0.58753 0.30705 0.0
loop_
_geom_bond_atom_site_label_1
_geom_bond_atom_site_label_2
_geom_bond_distance
_geom_bond_site_symmetry_2
_ccdc_geom_bond_type
O0 Zn1 1.953 . S
O0 C16 1.225 . S
Zn1 O0 1.953 . S
Zn1 O2 1.949 . S
Zn1 O8 1.919 . S
Zn1 O13 1.924 . S
O2 Zn1 1.949 . S
O2 Zn3 1.923 . S
O2 Zn4 1.950 1_455 S
O2 Zn5 1.945 . S
Zn3 O2 1.923 . S
Zn3 O6 1.933 . S
Zn3 O9 1.941 . S
Zn3 O10 1.965 1_455 S
Zn4 O2 1.950 1_655 S
Zn4 O11 1.938 . S
Zn4 O12 1.906 . S
Zn4 O22 1.953 1_655 S
Zn5 O2 1.945 . S
Zn5 O7 1.932 . S
Zn5 O14 1.982 . S
Zn5 O15 1.910 . S
O6 Zn3 1.933 . S
O6 C17 1.226 . S
O7 Zn5 1.932 . S
O7 C17 1.307 . S
O8 Zn1 1.919 . S
O8 C19 1.253 . S
O9 Zn3 1.941 . S
O9 C19 1.283 . S
O10 Zn3 1.965 1_655 S
O10 C18 1.303 . S
O11 Zn4 1.938 . S
O11 C18 1.247 . S
O12 Zn4 1.906 . S
O12 C20 1.304 . S
O13 Zn1 1.924 . S
O13 C21 1.311 . S
O14 Zn5 1.982 . S
O14 C20 1.265 1_455 S
O15 Zn5 1.910 . S
O15 C21 1.231 . S
C16 O0 1.225 . S
C16 O22 1.298 . S
C17 O6 1.226 . S
C17 O7 1.307 . S
C18 O10 1.303 . S
C18 O11 1.247 . S
C19 O8 1.253 . S
C19 O9 1.283 . S
C20 O12 1.304 . S
C20 O14 1.265 1_655 S
C21 O13 1.311 . S
C21 O15 1.231 . S
O22 Zn4 1.953 1_455 S
O22 C16 1.298 . S
O23 Zn24 1.953 . S
O23 C39 1.225 . S
Zn24 O23 1.953 . S
Zn24 O25 1.949 . S
Zn24 O31 1.919 . S
Zn24 O36 1.924 . S
O25 Zn24 1.949 . S
O25 Zn26 1.923 . S
O25 Zn27 1.950 . S
O25 Zn28 1.945 . S
Zn26 O25 1.923 . S
Zn26 O29 1.933 . S
Zn26 O32 1.941 . S
Zn26 O33 1.965 . S
Zn27 O25 1.950 . S
Zn27 O34 1.938 . S
Zn27 O35 1.906 . S
Zn27 O45 1.953 . S
Zn28 O25 1.945 . S
Zn28 O30 1.932 . S
Zn28 O37 1.977 . S
Zn28 O38 1.910 . S
O29 Zn26 1.933 . S
O29 C40 1.226 . S
O30 Zn28 1.932 . S
O30 C40 1.307 . S
O31 Zn24 1.919 . S
O31 C42 1.253 . S
O32 Zn26 1.941 . S
O32 C42 1.283 . S
O33 Zn26 1.965 . S
O33 C41 1.303 . S
O34 Zn27 1.938 . S
O34 C41 1.247 . S
O35 Zn27 1.906 . S
O35 C43 1.304 . S
O36 Zn24 1.924 . S
O36 C44 1.311 . S
O37 Zn28 1.977 . S
O37 C43 1.272 . S
O38 Zn28 1.910 . S
O38 C44 1.231 . S
C39 O23 1.225 . S
C39 O45 1.298 . S
C40 O29 1.226 . S
C40 O30 1.307 . S
C41 O33 1.303 . S
C41 O34 1.247 . S
C42 O31 1.253 . S
C42 O32 1.283 . S
C43 O35 1.304 . S
C43 O37 1.272 . S
C44 O36 1.311 . S
C44 O38 1.231 . S
O45 Zn27 1.953 . S
O45 C39 1.298 . S
O46 Zn47 1.953 . S
O46 C62 1.225 . S
Zn47 O46 1.953 . S
Zn47 O48 1.949 . S
Zn47 O54 1.919 . S
Zn47 O59 1.924 . S
O48 Zn47 1.949 . S
O48 Zn49 1.923 . S
O48 Zn50 1.950 1_655 S
O48 Zn51 1.945 . S
Zn49 O48 1.923 . S
Zn49 O52 1.933 . S
Zn49 O55 1.941 . S
Zn49 O56 1.965 1_655 S
Zn50 O48 1.950 1_455 S
Zn50 O57 1.938 . S
Zn50 O58 1.906 . S
Zn50 O68 1.953 1_455 S
Zn51 O48 1.945 . S
Zn51 O53 1.932 . S
Zn51 O60 1.988 . S
Zn51 O61 1.910 . S
O52 Zn49 1.933 . S
O52 C63 1.226 . S
O53 Zn51 1.932 . S
O53 C63 1.307 . S
O54 Zn47 1.919 . S
O54 C65 1.253 . S
O55 Zn49 1.941 . S
O55 C65 1.283 . S
O56 Zn49 1.965 1_455 S
O56 C64 1.303 . S
O57 Zn50 1.938 . S
O57 C64 1.247 . S
O58 Zn50 1.906 . S
O58 C66 1.304 . S
O59 Zn47 1.924 . S
O59 C67 1.311 . S
O60 Zn51 1.988 . S
O60 C66 1.259 1_655 S
O61 Zn51 1.910 . S
O61 C67 1.231 . S
C62 O46 1.225 . S
C62 O68 1.298 . S
C63 O52 1.226 . S
C63 O53 1.307 . S
C64 O56 1.303 . S
C64 O57 1.247 . S
C65 O54 1.253 . S
C65 O55 1.283 . S
C66 O58 1.304 . S
C66 O60 1.259 1_455 S
C67 O59 1.311 . S
C67 O61 1.231 . S
O68 Zn50 1.953 1_655 S
O68 C62 1.298 . S
O69 Zn70 1.953 . S
O69 C85 1.225 . S
Zn70 O69 1.953 . S
Zn70 O71 1.949 . S
Zn70 O77 1.919 . S
Zn70 O82 1.924 . S
O71 Zn70 1.949 . S
O71 Zn72 1.923 . S
O71 Zn73 1.950 . S
O71 Zn74 1.945 . S
Zn72 O71 1.923 . S
Zn72 O75 1.933 . S
Zn72 O78 1.941 . S
Zn72 O79 1.965 . S
Zn73 O71 1.950 . S
Zn73 O80 1.938 . S
Zn73 O81 1.906 . S
Zn73 O91 1.953 . S
Zn74 O71 1.945 . S
Zn74 O76 1.932 . S
Zn74 O83 1.977 . S
Zn74 O84 1.910 . S
O75 Zn72 1.933 . S
O75 C86 1.226 . S
O76 Zn74 1.932 . S
O76 C86 1.307 . S
O77 Zn70 1.919 . S
O77 C88 1.253 . S
O78 Zn72 1.941 . S
O78 C88 1.283 . S
O79 Zn72 1.965 . S
O79 C87 1.303 . S
O80 Zn73 1.938 . S
O80 C87 1.247 . S
O81 Zn73 1.906 . S
O81 C89 1.304 . S
O82 Zn70 1.924 . S
O82 C90 1.311 . S
O83 Zn74 1.977 . S
O83 C89 1.272 . S
O84 Zn74 1.910 . S
O84 C90 1.231 . S
C85 O69 1.225 . S
C85 O91 1.298 . S
C86 O75 1.226 . S
C86 O76 1.307 . S
C87 O79 1.303 . S
C87 O80 1.247 . S
C88 O77 1.253 . S
C88 O78 1.283 . S
C89 O81 1.304 . S
C89 O83 1.272 . S
C90 O82 1.311 . S
C90 O84 1.231 . S
O91 Zn73 1.953 . S
O91 C85 1.298 . S
O92 Zn93 1.953 . S
O92 C108 1.225 . S
Zn93 O92 1.953 . S
Zn93 O94 1.949 . S
Zn93 O100 1.919 . S
Zn93 O105 1.924 . S
O94 Zn93 1.949 . S
O94 Zn95 1.923 . S
O94 Zn96 1.950 . S
O94 Zn97 1.945 . S
Zn95 O94 1.923 . S
Zn95 O98 1.933 . S
Zn95 O101 1.941 . S
Zn95 O102 1.965 . S
Zn96 O94 1.950 . S
Zn96 O103 1.938 . S
Zn96 O104 1.906 . S
Zn96 O114 1.953 . S
Zn97 O94 1.945 . S
Zn97 O99 1.932 . S
Zn97 O106 1.977 . S
Zn97 O107 1.910 . S
O98 Zn95 1.933 . S
O98 C109 1.226 . S
O99 Zn97 1.932 . S
O99 C109 1.307 . S
O100 Zn93 1.919 . S
O100 C111 1.253 . S
O101 Zn95 1.941 . S
O101 C111 1.283 . S
O102 Zn95 1.965 . S
O102 C110 1.303 . S
O103 Zn96 1.938 . S
O103 C110 1.247 . S
O104 Zn96 1.906 . S
O104 C112 1.304 . S
O105 Zn93 1.924 . S
O105 C113 1.311 . S
O106 Zn97 1.977 . S
O106 C112 1.272 . S
O107 Zn97 1.910 . S
O107 C113 1.231 . S
C108 O92 1.225 . S
C108 O114 1.298 . S
C109 O98 1.226 . S
C109 O99 1.307 . S
C110 O102 1.303 . S
C110 O103 1.247 . S
C111 O100 1.253 . S
C111 O101 1.283 . S
C112 O104 1.304 . S
C112 O106 1.272 . S
C113 O105 1.311 . S
C113 O107 1.231 . S
O114 Zn96 1.953 . S
O114 C108 1.298 . S
O115 Zn116 1.953 . S
O115 C131 1.225 . S
Zn116 O115 1.953 . S
Zn116 O117 1.949 . S
Zn116 O123 1.919 . S
Zn116 O128 1.924 . S
O117 Zn116 1.949 . S
O117 Zn118 1.923 . S
O117 Zn119 1.950 1_545 S
O117 Zn120 1.945 . S
Zn118 O117 1.923 . S
Zn118 O121 1.933 . S
Zn118 O124 1.941 . S
Zn118 O125 1.965 1_545 S
Zn119 O117 1.950 1_565 S
Zn119 O126 1.938 . S
Zn119 O127 1.906 . S
Zn119 O137 1.953 1_565 S
Zn120 O117 1.945 . S
Zn120 O122 1.932 . S
Zn120 O129 1.978 . S
Zn120 O130 1.910 . S
O121 Zn118 1.933 . S
O121 C132 1.226 . S
O122 Zn120 1.932 . S
O122 C132 1.307 . S
O123 Zn116 1.919 . S
O123 C134 1.253 . S
O124 Zn118 1.941 . S
O124 C134 1.283 . S
O125 Zn118 1.965 1_565 S
O125 C133 1.303 . S
O126 Zn119 1.938 . S
O126 C133 1.247 . S
O127 Zn119 1.906 . S
O127 C135 1.304 . S
O128 Zn116 1.924 . S
O128 C136 1.311 . S
O129 Zn120 1.978 . S
O129 C135 1.270 1_545 S
O130 Zn120 1.910 . S
O130 C136 1.231 . S
C131 O115 1.225 . S
C131 O137 1.298 . S
C132 O121 1.226 . S
C132 O122 1.307 . S
C133 O125 1.303 . S
C133 O126 1.247 . S
C134 O123 1.253 . S
C134 O124 1.283 . S
C135 O127 1.304 . S
C135 O129 1.270 1_565 S
C136 O128 1.311 . S
C136 O130 1.231 . S
O137 Zn119 1.953 1_545 S
O137 C131 1.298 . S
O138 Zn139 1.953 . S
O138 C154 1.225 . S
Zn139 O138 1.953 . S
Zn139 O140 1.949 . S
Zn139 O146 1.919 . S
Zn139 O151 1.924 . S
O140 Zn139 1.949 . S
O140 Zn141 1.923 . S
O140 Zn142 1.950 . S
O140 Zn143 1.945 . S
Zn141 O140 1.923 . S
Zn141 O144 1.933 . S
Zn141 O147 1.941 . S
Zn141 O148 1.965 . S
Zn142 O140 1.950 . S
Zn142 O149 1.938 . S
Zn142 O150 1.906 . S
Zn142 O160 1.953 . S
Zn143 O140 1.945 . S
Zn143 O145 1.932 . S
Zn143 O152 1.977 . S
Zn143 O153 1.910 . S
O144 Zn141 1.933 . S
O144 C155 1.226 . S
O145 Zn143 1.932 . S
O145 C155 1.307 . S
O146 Zn139 1.919 . S
O146 C157 1.253 . S
O147 Zn141 1.941 . S
O147 C157 1.283 . S
O148 Zn141 1.965 . S
O148 C156 1.303 . S
O149 Zn142 1.938 . S
O149 C156 1.247 . S
O150 Zn142 1.906 . S
O150 C158 1.304 . S
O151 Zn139 1.924 . S
O151 C159 1.311 . S
O152 Zn143 1.977 . S
O152 C158 1.272 . S
O153 Zn143 1.910 . S
O153 C159 1.231 . S
C154 O138 1.225 . S
C154 O160 1.298 . S
C155 O144 1.226 . S
C155 O145 1.307 . S
C156 O148 1.303 . S
C156 O149 1.247 . S
C157 O146 1.253 . S
C157 O147 1.283 . S
C158 O150 1.304 . S
C158 O152 1.272 . S
C159 O151 1.311 . S
C159 O153 1.231 . S
O160 Zn142 1.953 . S
O160 C154 1.298 . S
O161 Zn162 1.953 . S
O161 C177 1.225 . S
Zn162 O161 1.953 . S
Zn162 O163 1.949 . S
Zn162 O169 1.919 . S
Zn162 O174 1.924 . S
O163 Zn162 1.949 . S
O163 Zn164 1.923 . S
O163 Zn165 1.950 1_565 S
O163 Zn166 1.945 . S
Zn164 O163 1.923 . S
Zn164 O167 1.933 . S
Zn164 O170 1.941 . S
Zn164 O171 1.965 1_565 S
Zn165 O163 1.950 1_545 S
Zn165 O172 1.938 . S
Zn165 O173 1.906 . S
Zn165 O183 1.953 1_545 S
Zn166 O163 1.945 . S
Zn166 O168 1.932 . S
Zn166 O175 1.977 . S
Zn166 O176 1.910 . S
O167 Zn164 1.933 . S
O167 C178 1.226 . S
O168 Zn166 1.932 . S
O168 C178 1.307 . S
O169 Zn162 1.919 . S
O169 C180 1.253 . S
O170 Zn164 1.941 . S
O170 C180 1.283 . S
O171 Zn164 1.965 1_545 S
O171 C179 1.303 . S
O172 Zn165 1.938 . S
O172 C179 1.247 . S
O173 Zn165 1.906 . S
O173 C181 1.304 . S
O174 Zn162 1.924 . S
O174 C182 1.311 . S
O175 Zn166 1.977 . S
O175 C181 1.272 1_565 S
O176 Zn166 1.910 . S
O176 C182 1.231 . S
C177 O161 1.225 . S
C177 O183 1.298 . S
C178 O167 1.226 . S
C178 O168 1.307 . S
C179 O171 1.303 . S
C179 O172 1.247 . S
C180 O169 1.253 . S
C180 O170 1.283 . S
C181 O173 1.304 . S
C181 O175 1.272 1_545 S
C182 O174 1.311 . S
C182 O176 1.231 . S
O183 Zn165 1.953 1_565 S
O183 C177 1.298 . S
C184 C185 1.363 . S
C184 C190 1.379 . S
C184 N192 1.356 . S
C185 C184 1.363 . S
C185 C191 1.363 . S
C186 C187 1.363 . S
C186 C191 1.379 . S
C186 N193 1.356 . S
C187 C186 1.363 . S
C187 C190 1.363 . S
N188 C190 1.356 1_565 S
N188 H200 0.984 . S
N188 H201 0.985 . S
N189 C191 1.356 . S
N189 H194 0.984 . S
N189 H195 0.985 . S
C190 C184 1.379 . S
C190 C187 1.363 . S
C190 N188 1.356 1_545 S
C191 C185 1.363 . S
C191 C186 1.379 . S
C191 N189 1.356 . S
N192 C184 1.356 . S
N192 H198 0.984 1_545 S
N192 H199 0.984 . S
N193 C186 1.356 . S
N193 H196 0.984 . S
N193 H197 0.985 . S
H194 N189 0.984 . S
H195 N189 0.985 . S
H196 N193 0.984 . S
H197 N193 0.985 . S
H198 N192 0.984 1_565 S
H199 N192 0.984 . S
H200 N188 0.984 . S
H201 N188 0.985 . S
C202 C203 1.363 . S
C202 C208 1.379 . S
C202 N210 1.356 . S
C203 C202 1.363 . S
C203 C209 1.363 . S
C204 C205 1.363 . S
C204 C209 1.379 . S
C204 N211 1.356 . S
C205 C204 1.363 . S
C205 C208 1.363 . S
N206 C208 1.356 . S
N206 H218 0.984 . S
N206 H219 0.985 . S
N207 C209 1.356 . S
N207 H212 0.984 . S
N207 H213 0.985 . S
C208 C202 1.379 . S
C208 C205 1.363 . S
C208 N206 1.356 . S
C209 C203 1.363 . S
C209 C204 1.379 . S
C209 N207 1.356 . S
N210 C202 1.356 . S
N210 H216 0.984 . S
N210 H217 0.984 . S
N211 C204 1.356 . S
N211 H214 0.984 . S
N211 H215 0.985 . S
H212 N207 0.984 . S
H213 N207 0.985 . S
H214 N211 0.984 . S
H215 N211 0.985 . S
H216 N210 0.984 . S
H217 N210 0.984 . S
H218 N206 0.984 . S
H219 N206 0.985 . S
C220 C221 1.363 . S
C220 C226 1.379 . S
C220 N228 1.356 1_455 S
C221 C220 1.363 . S
C221 C227 1.363 . S
C222 C223 1.363 . S
C222 C227 1.379 . S
C222 N229 1.356 . S
C223 C222 1.363 . S
C223 C226 1.363 . S
N224 C226 1.356 . S
N224 H236 0.984 1_455 S
N224 H237 0.985 . S
N225 C227 1.356 . S
N225 H230 0.984 . S
N225 H231 0.985 . S
C226 C220 1.379 . S
C226 C223 1.363 . S
C226 N224 1.356 . S
C227 C221 1.363 . S
C227 C222 1.379 . S
C227 N225 1.356 . S
N228 C220 1.356 1_655 S
N228 H234 0.984 . S
N228 H235 0.984 . S
N229 C222 1.356 . S
N229 H232 0.984 . S
N229 H233 0.985 . S
H230 N225 0.984 . S
H231 N225 0.985 . S
H232 N229 0.984 . S
H233 N229 0.985 . S
H234 N228 0.984 . S
H235 N228 0.984 . S
H236 N224 0.984 1_655 S
H237 N224 0.985 . S
C238 C239 1.363 . S
C238 C244 1.379 1_554 S
C238 N246 1.356 . S
C239 C238 1.363 . S
C239 C245 1.363 . S
C240 C241 1.363 . S
C240 C245 1.379 1_556 S
C240 N247 1.356 . S
C241 C240 1.363 . S
C241 C244 1.363 . S
N242 C244 1.356 . S
N242 H254 0.984 1_556 S
N242 H255 0.985 . S
N243 C245 1.356 . S
N243 H248 0.984 . S
N243 H249 0.985 1_554 S
C244 C238 1.379 1_556 S
C244 C241 1.363 . S
C244 N242 1.356 . S
C245 C239 1.363 . S
C245 C240 1.379 1_554 S
C245 N243 1.356 . S
N246 C238 1.356 . S
N246 H252 0.984 . S
N246 H253 0.984 . S
N247 C240 1.356 . S
N247 H250 0.984 . S
N247 H251 0.985 . S
H248 N243 0.984 . S
H249 N243 0.985 1_556 S
H250 N247 0.984 . S
H251 N247 0.985 . S
H252 N246 0.984 . S
H253 N246 0.984 . S
H254 N242 0.984 1_554 S
H255 N242 0.985 . S
C256 C257 1.363 . S
C256 C262 1.379 . S
C256 N264 1.356 . S
C257 C256 1.363 . S
C257 C263 1.363 . S
C258 C259 1.363 . S
C258 C263 1.379 . S
C258 N265 1.356 . S
C259 C258 1.363 . S
C259 C262 1.363 . S
N260 C262 1.356 . S
N260 H272 0.984 . S
N260 H273 0.985 . S
N261 C263 1.356 . S
N261 H266 0.984 . S
N261 H267 0.985 . S
C262 C256 1.379 . S
C262 C259 1.363 . S
C262 N260 1.356 . S
C263 C257 1.363 . S
C263 C258 1.379 . S
C263 N261 1.356 . S
N264 C256 1.356 . S
N264 H270 0.984 . S
N264 H271 0.984 . S
N265 C258 1.356 . S
N265 H268 0.984 . S
N265 H269 0.985 . S
H266 N261 0.984 . S
H267 N261 0.985 . S
H268 N265 0.984 . S
H269 N265 0.985 . S
H270 N264 0.984 . S
H271 N264 0.984 . S
H272 N260 0.984 . S
H273 N260 0.985 . S
C274 C275 1.363 . S
C274 C280 1.379 . S
C274 N282 1.356 . S
C275 C274 1.363 . S
C275 C281 1.363 . S
C276 C277 1.363 . S
C276 C281 1.379 . S
C276 N283 1.356 . S
C277 C276 1.363 . S
C277 C280 1.363 . S
N278 C280 1.356 . S
N278 H290 0.984 . S
N278 H291 0.985 . S
N279 C281 1.356 . S
N279 H284 0.984 . S
N279 H285 0.985 . S
C280 C274 1.379 . S
C280 C277 1.363 . S
C280 N278 1.356 . S
C281 C275 1.363 . S
C281 C276 1.379 . S
C281 N279 1.356 . S
N282 C274 1.356 . S
N282 H288 0.984 1_455 S
N282 H289 0.984 . S
N283 C276 1.356 . S
N283 H286 0.984 . S
N283 H287 0.985 . S
H284 N279 0.984 . S
H285 N279 0.985 . S
H286 N283 0.984 . S
H287 N283 0.985 . S
H288 N282 0.984 1_655 S
H289 N282 0.984 . S
H290 N278 0.984 . S
H291 N278 0.985 . S
C292 C293 1.363 . S
C292 C298 1.379 . S
C292 N300 1.356 . S
C293 C292 1.363 . S
C293 C299 1.363 . S
C294 C295 1.363 . S
C294 C299 1.379 . S
C294 N301 1.356 . S
C295 C294 1.363 . S
C295 C298 1.363 . S
N296 C298 1.356 . S
N296 H308 0.984 . S
N296 H309 0.985 . S
N297 C299 1.356 . S
N297 H302 0.984 . S
N297 H303 0.985 . S
C298 C292 1.379 . S
C298 C295 1.363 . S
C298 N296 1.356 . S
C299 C293 1.363 . S
C299 C294 1.379 . S
C299 N297 1.356 . S
N300 C292 1.356 . S
N300 H306 0.984 . S
N300 H307 0.984 . S
N301 C294 1.356 . S
N301 H304 0.984 1_655 S
N301 H305 0.985 1_655 S
H302 N297 0.984 . S
H303 N297 0.985 . S
H304 N301 0.984 1_455 S
H305 N301 0.985 1_455 S
H306 N300 0.984 . S
H307 N300 0.984 . S
H308 N296 0.984 . S
H309 N296 0.985 . S
C310 C311 1.363 . S
C310 C316 1.379 . S
C310 N318 1.356 . S
C311 C310 1.363 . S
C311 C317 1.363 . S
C312 C313 1.363 . S
C312 C317 1.379 . S
C312 N319 1.356 1_554 S
C313 C312 1.363 . S
C313 C316 1.363 . S
N314 C316 1.356 . S
N314 H326 0.984 . S
N314 H327 0.985 1_554 S
N315 C317 1.356 . S
N315 H320 0.984 1_655 S
N315 H321 0.985 1_655 S
C316 C310 1.379 . S
C316 C313 1.363 . S
C316 N314 1.356 . S
C317 C311 1.363 . S
C317 C312 1.379 . S
C317 N315 1.356 . S
N318 C310 1.356 . S
N318 H324 0.984 . S
N318 H325 0.984 . S
N319 C312 1.356 1_556 S
N319 H322 0.984 . S
N319 H323 0.985 . S
H320 N315 0.984 1_455 S
H321 N315 0.985 1_455 S
H322 N319 0.984 . S
H323 N319 0.985 . S
H324 N318 0.984 . S
H325 N318 0.984 . S
H326 N314 0.984 . S
H327 N314 0.985 1_556 S
C328 C329 1.363 . S
C328 C334 1.379 . S
C328 N336 1.356 . S
C329 C328 1.363 . S
C329 C335 1.363 . S
C330 C331 1.363 . S
C330 C335 1.379 . S
C330 N337 1.356 . S
C331 C330 1.363 . S
C331 C334 1.363 . S
N332 C334 1.356 1_565 S
N332 H344 0.984 . S
N332 H345 0.985 . S
N333 C335 1.356 . S
N333 H338 0.984 . S
N333 H339 0.985 . S
C334 C328 1.379 . S
C334 C331 1.363 . S
C334 N332 1.356 1_545 S
C335 C329 1.363 . S
C335 C330 1.379 . S
C335 N333 1.356 . S
N336 C328 1.356 . S
N336 H342 0.984 . S
N336 H343 0.984 . S
N337 C330 1.356 . S
N337 H340 0.984 . S
N337 H341 0.985 . S
H338 N333 0.984 . S
H339 N333 0.985 . S
H340 N337 0.984 . S
H341 N337 0.985 . S
H342 N336 0.984 . S
H343 N336 0.984 . S
H344 N332 0.984 . S
H345 N332 0.985 . S
C346 C347 1.363 . S
C346 C352 1.379 . S
C346 N354 1.356 . S
C347 C346 1.363 . S
C347 C353 1.363 . S
C348 C349 1.363 . S
C348 C353 1.379 . S
C348 N355 1.356 . S
C349 C348 1.363 . S
C349 C352 1.363 . S
N350 C352 1.356 . S
N350 H362 0.984 . S
N350 H363 0.985 . S
N351 C353 1.356 . S
N351 H356 0.984 . S
N351 H357 0.985 . S
C352 C346 1.379 . S
C352 C349 1.363 . S
C352 N350 1.356 . S
C353 C347 1.363 . S
C353 C348 1.379 . S
C353 N351 1.356 . S
N354 C346 1.356 . S
N354 H360 0.984 . S
N354 H361 0.984 . S
N355 C348 1.356 . S
N355 H358 0.984 . S
N355 H359 0.985 . S
H356 N351 0.984 . S
H357 N351 0.985 . S
H358 N355 0.984 . S
H359 N355 0.985 . S
H360 N354 0.984 . S
H361 N354 0.984 . S
H362 N350 0.984 . S
H363 N350 0.985 . S
C364 C365 1.363 . S
C364 C370 1.379 . S
C364 N372 1.356 . S
C365 C364 1.363 . S
C365 C371 1.363 . S
C366 C367 1.363 . S
C366 C371 1.379 . S
C366 N373 1.356 . S
C367 C366 1.363 . S
C367 C370 1.363 . S
N368 C370 1.356 . S
N368 H380 0.984 . S
N368 H381 0.985 . S
N369 C371 1.356 1_554 S
N369 H374 0.984 . S
N369 H375 0.985 . S
C370 C364 1.379 . S
C370 C367 1.363 . S
C370 N368 1.356 . S
C371 C365 1.363 . S
C371 C366 1.379 . S
C371 N369 1.356 1_556 S
N372 C364 1.356 . S
N372 H378 0.984 . S
N372 H379 0.984 . S
N373 C366 1.356 . S
N373 H376 0.984 . S
N373 H377 0.985 . S
H374 N369 0.984 . S
H375 N369 0.985 . S
H376 N373 0.984 . S
H377 N373 0.985 . S
H378 N372 0.984 . S
H379 N372 0.984 . S
H380 N368 0.984 . S
H381 N368 0.985 . S
C382 C383 1.363 . S
C382 C388 1.379 . S
C382 N390 1.356 . S
C383 C382 1.363 . S
C383 C389 1.363 . S
C384 C385 1.363 . S
C384 C389 1.379 . S
C384 N391 1.356 . S
C385 C384 1.363 . S
C385 C388 1.363 . S
N386 C388 1.356 . S
N386 H398 0.984 . S
N386 H399 0.985 . S
N387 C389 1.356 . S
N387 H392 0.984 . S
N387 H393 0.985 . S
C388 C382 1.379 . S
C388 C385 1.363 . S
C388 N386 1.356 . S
C389 C383 1.363 . S
C389 C384 1.379 . S
C389 N387 1.356 . S
N390 C382 1.356 . S
N390 H396 0.984 . S
N390 H397 0.984 . S
N391 C384 1.356 . S
N391 H394 0.984 . S
N391 H395 0.985 1_565 S
H392 N387 0.984 . S
H393 N387 0.985 . S
H394 N391 0.984 . S
H395 N391 0.985 1_545 S
H396 N390 0.984 . S
H397 N390 0.984 . S
H398 N386 0.984 . S
H399 N386 0.985 . S
C400 C401 1.363 . S
C400 C406 1.379 1_556 S
C400 N408 1.356 1_545 S
C401 C400 1.363 . S
C401 C407 1.363 . S
C402 C403 1.363 . S
C402 C407 1.379 1_554 S
C402 N409 1.356 . S
C403 C402 1.363 . S
C403 C406 1.363 . S
N404 C406 1.356 . S
N404 H416 0.986 . S
N404 H417 0.985 . S
N405 C407 1.356 . S
N405 H410 0.984 . S
N405 H411 0.985 . S
C406 C400 1.379 1_554 S
C406 C403 1.363 . S
C406 N404 1.356 . S
C407 C401 1.363 . S
C407 C402 1.379 1_556 S
C407 N405 1.356 . S
N408 C400 1.356 1_565 S
N408 H414 0.984 . S
N408 H415 0.984 . S
N409 C402 1.356 . S
N409 H412 0.984 . S
N409 H413 0.985 . S
H410 N405 0.984 . S
H411 N405 0.985 . S
H412 N409 0.984 . S
H413 N409 0.985 . S
H414 N408 0.984 . S
H415 N408 0.984 . S
H416 N404 0.986 . S
H417 N404 0.985 . S
C418 C419 1.363 . S
C418 C424 1.379 . S
C418 N426 1.356 . S
C419 C418 1.363 . S
C419 C425 1.363 . S
C420 C421 1.363 . S
C420 C425 1.379 . S
C420 N427 1.356 . S
C421 C420 1.363 . S
C421 C424 1.363 . S
N422 C424 1.356 . S
N422 H434 0.984 . S
N422 H435 0.985 . S
N423 C425 1.356 . S
N423 H428 0.984 . S
N423 H429 0.985 . S
C424 C418 1.379 . S
C424 C421 1.363 . S
C424 N422 1.356 . S
C425 C419 1.363 . S
C425 C420 1.379 . S
C425 N423 1.356 . S
N426 C418 1.356 . S
N426 H432 0.984 . S
N426 H433 0.984 . S
N427 C420 1.356 . S
N427 H430 0.984 . S
N427 H431 0.985 . S
H428 N423 0.984 . S
H429 N423 0.985 . S
H430 N427 0.984 . S
H431 N427 0.985 . S
H432 N426 0.984 . S
H433 N426 0.984 . S
H434 N422 0.984 . S
H435 N422 0.985 . S
C436 C437 1.363 . S
C436 C442 1.379 . S
C436 N444 1.356 . S
C437 C436 1.363 . S
C437 C443 1.363 . S
C438 C439 1.363 . S
C438 C443 1.379 . S
C438 N445 1.356 . S
C439 C438 1.363 . S
C439 C442 1.363 . S
N440 C442 1.356 . S
N440 H452 0.984 . S
N440 H453 0.985 . S
N441 C443 1.356 1_545 S
N441 H446 0.984 . S
N441 H447 0.985 . S
C442 C436 1.379 . S
C442 C439 1.363 . S
C442 N440 1.356 . S
C443 C437 1.363 . S
C443 C438 1.379 . S
C443 N441 1.356 1_565 S
N444 C436 1.356 . S
N444 H450 0.984 . S
N444 H451 0.984 . S
N445 C438 1.356 . S
N445 H448 0.984 1_655 S
N445 H449 0.985 1_655 S
H446 N441 0.984 . S
H447 N441 0.985 . S
H448 N445 0.984 1_455 S
H449 N445 0.985 1_455 S
H450 N444 0.984 . S
H451 N444 0.984 . S
H452 N440 0.984 . S
H453 N440 0.985 . S
C454 C455 1.363 . S
C454 C460 1.379 . S
C454 N462 1.356 . S
C455 C454 1.363 . S
C455 C461 1.363 . S
C456 C457 1.363 . S
C456 C461 1.379 . S
C456 N463 1.356 . S
C457 C456 1.363 . S
C457 C460 1.363 . S
N458 C460 1.356 . S
N458 H470 0.984 . S
N458 H471 0.985 . S
N459 C461 1.356 . S
N459 H464 0.984 . S
N459 H465 0.985 . S
C460 C454 1.379 . S
C460 C457 1.363 . S
C460 N458 1.356 . S
C461 C455 1.363 . S
C461 C456 1.379 . S
C461 N459 1.356 . S
N462 C454 1.356 . S
N462 H468 0.984 . S
N462 H469 0.984 . S
N463 C456 1.356 . S
N463 H466 0.984 . S
N463 H467 0.985 . S
H464 N459 0.984 . S
H465 N459 0.985 . S
H466 N463 0.984 . S
H467 N463 0.985 . S
H468 N462 0.984 . S
H469 N462 0.984 . S
H470 N458 0.984 . S
H471 N458 0.985 . S
C472 C473 1.363 . S
C472 C478 1.379 1_545 S
C472 N480 1.356 . S
C473 C472 1.363 . S
C473 C479 1.363 . S
C474 C475 1.363 . S
C474 C479 1.379 1_565 S
C474 N481 1.356 . S
C475 C474 1.363 . S
C475 C478 1.363 . S
N476 C478 1.356 . S
N476 H488 0.984 . S
N476 H489 0.985 . S
N477 C479 1.356 . S
N477 H482 0.984 . S
N477 H483 0.985 . S
C478 C472 1.379 1_565 S
C478 C475 1.363 . S
C478 N476 1.356 . S
C479 C473 1.363 . S
C479 C474 1.379 1_545 S
C479 N477 1.356 . S
N480 C472 1.356 . S
N480 H486 0.984 1_545 S
N480 H487 0.984 . S
N481 C474 1.356 . S
N481 H484 0.984 . S
N481 H485 0.982 1_565 S
H482 N477 0.984 . S
H483 N477 0.985 . S
H484 N481 0.984 . S
H485 N481 0.982 1_545 S
H486 N480 0.984 1_565 S
H487 N480 0.984 . S
H488 N476 0.984 . S
H489 N476 0.985 . S
C490 C491 1.363 . S
C490 C496 1.379 . S
C490 N498 1.356 . S
C491 C490 1.363 . S
C491 C497 1.363 . S
C492 C493 1.363 . S
C492 C497 1.379 . S
C492 N499 1.356 . S
C493 C492 1.363 . S
C493 C496 1.363 . S
N494 C496 1.356 . S
N494 H506 0.984 . S
N494 H507 0.985 . S
N495 C497 1.356 . S
N495 H500 0.984 . S
N495 H501 0.985 . S
C496 C490 1.379 . S
C496 C493 1.363 . S
C496 N494 1.356 . S
C497 C491 1.363 . S
C497 C492 1.379 . S
C497 N495 1.356 . S
N498 C490 1.356 . S
N498 H504 0.984 . S
N498 H505 0.984 . S
N499 C492 1.356 . S
N499 H502 0.984 . S
N499 H503 0.985 . S
H500 N495 0.984 . S
H501 N495 0.985 . S
H502 N499 0.984 . S
H503 N499 0.985 . S
H504 N498 0.984 . S
H505 N498 0.984 . S
H506 N494 0.984 . S
H507 N494 0.985 . S
C508 C509 1.363 . S
C508 C514 1.379 1_545 S
C508 N516 1.356 . S
C509 C508 1.363 . S
C509 C515 1.363 . S
C510 C511 1.363 . S
C510 C515 1.379 1_565 S
C510 N517 1.356 . S
C511 C510 1.363 . S
C511 C514 1.363 . S
N512 C514 1.356 . S
N512 H524 0.984 . S
N512 H525 0.985 . S
N513 C515 1.356 . S
N513 H518 0.984 . S
N513 H519 0.985 . S
C514 C508 1.379 1_565 S
C514 C511 1.363 . S
C514 N512 1.356 . S
C515 C509 1.363 . S
C515 C510 1.379 1_545 S
C515 N513 1.356 . S
N516 C508 1.356 . S
N516 H522 0.984 . S
N516 H523 0.984 . S
N517 C510 1.356 . S
N517 H520 0.984 . S
N517 H521 0.985 . S
H518 N513 0.984 . S
H519 N513 0.985 . S
H520 N517 0.984 . S
H521 N517 0.985 . S
H522 N516 0.984 . S
H523 N516 0.984 . S
H524 N512 0.984 . S
H525 N512 0.985 . S
C526 C527 1.363 . S
C526 C532 1.379 . S
C526 N534 1.356 . S
C527 C526 1.363 . S
C527 C533 1.363 . S
C528 C529 1.363 . S
C528 C533 1.379 . S
C528 N535 1.356 . S
C529 C528 1.363 . S
C529 C532 1.363 . S
N530 C532 1.356 . S
N530 H542 0.984 . S
N530 H543 0.985 . S
N531 C533 1.356 . S
N531 H536 0.984 . S
N531 H537 0.985 . S
C532 C526 1.379 . S
C532 C529 1.363 . S
C532 N530 1.356 . S
C533 C527 1.363 . S
C533 C528 1.379 . S
C533 N531 1.356 . S
N534 C526 1.356 . S
N534 H540 0.984 . S
N534 H541 0.984 . S
N535 C528 1.356 . S
N535 H538 0.984 . S
N535 H539 0.985 . S
H536 N531 0.984 . S
H537 N531 0.985 . S
H538 N535 0.984 . S
H539 N535 0.985 . S
H540 N534 0.984 . S
H541 N534 0.984 . S
H542 N530 0.984 . S
H543 N530 0.985 . S
C544 C545 1.363 . S
C544 C550 1.379 . S
C544 N552 1.356 . S
C545 C544 1.363 . S
C545 C551 1.363 . S
C546 C547 1.363 . S
C546 C551 1.379 . S
C546 N553 1.356 . S
C547 C546 1.363 . S
C547 C550 1.363 . S
N548 C550 1.356 . S
N548 H560 0.984 . S
N548 H561 0.985 . S
N549 C551 1.356 . S
N549 H554 0.984 . S
N549 H555 0.985 . S
C550 C544 1.379 . S
C550 C547 1.363 . S
C550 N548 1.356 . S
C551 C545 1.363 . S
C551 C546 1.379 . S
C551 N549 1.356 . S
N552 C544 1.356 . S
N552 H558 0.984 . S
N552 H559 0.984 . S
N553 C546 1.356 . S
N553 H556 0.984 . S
N553 H557 0.985 . S
H554 N549 0.984 . S
H555 N549 0.985 . S
H556 N553 0.984 . S
H557 N553 0.985 . S
H558 N552 0.984 . S
H559 N552 0.984 . S
H560 N548 0.984 . S
H561 N548 0.985 . S
C562 C563 1.363 . S
C562 C568 1.379 1_455 S
C562 N570 1.356 . S
C563 C562 1.363 . S
C563 C569 1.363 . S
C564 C565 1.363 . S
C564 C569 1.379 1_655 S
C564 N571 1.356 . S
C565 C564 1.363 . S
C565 C568 1.363 . S
N566 C568 1.356 . S
N566 H578 0.984 . S
N566 H579 0.985 . S
N567 C569 1.356 . S
N567 H572 0.984 . S
N567 H573 0.985 . S
C568 C562 1.379 1_655 S
C568 C565 1.363 . S
C568 N566 1.356 . S
C569 C563 1.363 . S
C569 C564 1.379 1_455 S
C569 N567 1.356 . S
N570 C562 1.356 . S
N570 H576 0.984 . S
N570 H577 0.984 . S
N571 C564 1.356 . S
N571 H574 0.984 . S
N571 H575 0.985 . S
H572 N567 0.984 . S
H573 N567 0.985 . S
H574 N571 0.984 . S
H575 N571 0.985 . S
H576 N570 0.984 . S
H577 N570 0.984 . S
H578 N566 0.984 . S
H579 N566 0.985 . S
C580 C581 1.363 . S
C580 C586 1.379 . S
C580 N588 1.356 . S
C581 C580 1.363 . S
C581 C587 1.363 . S
C582 C583 1.363 . S
C582 C587 1.379 . S
C582 N589 1.356 . S
C583 C582 1.363 . S
C583 C586 1.363 . S
N584 C586 1.356 . S
N584 H596 0.984 . S
N584 H597 0.985 . S
N585 C587 1.356 . S
N585 H590 0.984 . S
N585 H591 0.985 . S
C586 C580 1.379 . S
C586 C583 1.363 . S
C586 N584 1.356 . S
C587 C581 1.363 . S
C587 C582 1.379 . S
C587 N585 1.356 . S
N588 C580 1.356 . S
N588 H594 0.984 . S
N588 H595 0.984 . S
N589 C582 1.356 . S
N589 H592 0.984 . S
N589 H593 0.985 . S
H590 N585 0.984 . S
H591 N585 0.985 . S
H592 N589 0.984 . S
H593 N589 0.985 . S
H594 N588 0.984 . S
H595 N588 0.984 . S
H596 N584 0.984 . S
H597 N584 0.985 . S
C598 C599 1.363 . S
C598 C604 1.379 1_655 S
C598 N606 1.356 . S
C599 C598 1.363 . S
C599 C605 1.363 . S
C600 C601 1.363 . S
C600 C605 1.379 1_455 S
C600 N607 1.356 . S
C601 C600 1.363 . S
C601 C604 1.363 . S
N602 C604 1.356 . S
N602 H614 0.984 . S
N602 H615 0.985 . S
N603 C605 1.356 . S
N603 H608 0.984 . S
N603 H609 0.985 . S
C604 C598 1.379 1_455 S
C604 C601 1.363 . S
C604 N602 1.356 . S
C605 C599 1.363 . S
C605 C600 1.379 1_655 S
C605 N603 1.356 . S
N606 C598 1.356 . S
N606 H612 0.984 . S
N606 H613 0.984 . S
N607 C600 1.356 . S
N607 H610 0.984 . S
N607 H611 0.985 . S
H608 N603 0.984 . S
H609 N603 0.985 . S
H610 N607 0.984 . S
H611 N607 0.985 . S
H612 N606 0.984 . S
H613 N606 0.984 . S
H614 N602 0.984 . S
H615 N602 0.985 . S
C185 C18 1.364 . S
C187 C181 1.330 . S
C203 C43 1.330 . S
C205 C110 1.364 . S
C221 C64 1.374 . S
C223 C133 1.375 . S
C239 C156 1.374 . S
C241 C87 1.375 . S
C257 C16 1.404 . S
C259 C41 1.448 . S
C275 C66 1.351 . S
C277 C40 1.374 . S
C293 C89 1.393 . S
C295 C62 1.394 . S
C311 C20 1.388 . S
C313 C85 1.391 1_554 S
C329 C108 1.404 . S
C331 C179 1.448 . S
C347 C131 1.391 . S
C349 C112 1.388 . S
C365 C154 1.394 1_556 S
C367 C135 1.393 . S
C383 C158 1.351 . S
C385 C178 1.374 . S
C401 C132 1.082 . S
C403 C17 1.083 . S
C419 C155 1.120 . S
C421 C39 1.104 . S
C437 C177 1.104 . S
C439 C63 1.120 . S
C455 C109 1.083 . S
C457 C86 1.082 . S
C473 C19 1.854 . S
C475 C159 1.883 . S
C491 C44 1.860 . S
C493 C180 1.820 . S
C509 C113 1.829 . S
C511 C65 1.802 . S
C527 C136 1.862 . S
C529 C88 1.834 . S
C545 C67 1.883 . S
C547 C111 1.853 . S
C563 C134 1.834 . S
C565 C90 1.862 . S
C581 C157 1.802 . S
C583 C21 1.829 . S
C599 C182 1.860 . S
C601 C42 1.820 . S
