# Generated by pormake.
# Topology fny, (5)-cn, num edge types: 1
# Building blocks:
#     Node 0, Type 0, BuildingBlock: XOMCOT_clean_sbu_0, # of connection points: 5
#     Node 1, Type 0, BuildingBlock: XOMCOT_clean_sbu_0, # of connection points: 5
#     Node 2, Type 0, BuildingBlock: XOMCOT_clean_sbu_0, # of connection points: 5
#     Node 3, Type 0, BuildingBlock: XOMCOT_clean_sbu_0, # of connection points: 5
#     Node 4, Type 0, BuildingBlock: XOMCOT_clean_sbu_0, # of connection points: 5
#     Node 5, Type 0, BuildingBlock: XOMCOT_clean_sbu_0, # of connection points: 5
#     Node 6, Type 0, BuildingBlock: XOMCOT_clean_sbu_0, # of connection points: 5
#     Node 7, Type 0, BuildingBlock: XOMCOT_clean_sbu_0, # of connection points: 5
#     Node 8, Type 0, BuildingBlock: XOMCOT_clean_sbu_0, # of connection points: 5
#     Node 9, Type 0, BuildingBlock: XOMCOT_clean_sbu_0, # of connection points: 5
#     Node 10, Type 0, BuildingBlock: XOMCOT_clean_sbu_0, # of connection points: 5
#     Node 11, Type 0, BuildingBlock: XOMCOT_clean_sbu_0, # of connection points: 5
#     Edge 12, Type (0, 0), BuildingBlock: ZUJKAS_clean_linker_0, # of connection points: 2
#     Edge 13, Type (0, 0), BuildingBlock: ZUJKAS_clean_linker_0, # of connection points: 2
#     Edge 14, Type (0, 0), BuildingBlock: ZUJKAS_clean_linker_0, # of connection points: 2
#     Edge 15, Type (0, 0), BuildingBlock: ZUJKAS_clean_linker_0, # of connection points: 2
#     Edge 16, Type (0, 0), BuildingBlock: ZUJKAS_clean_linker_0, # of connection points: 2
#     Edge 17, Type (0, 0), BuildingBlock: ZUJKAS_clean_linker_0, # of connection points: 2
#     Edge 18, Type (0, 0), BuildingBlock: ZUJKAS_clean_linker_0, # of connection points: 2
#     Edge 19, Type (0, 0), BuildingBlock: ZUJKAS_clean_linker_0, # of connection points: 2
#     Edge 20, Type (0, 0), BuildingBlock: ZUJKAS_clean_linker_0, # of connection points: 2
#     Edge 21, Type (0, 0), BuildingBlock: ZUJKAS_clean_linker_0, # of connection points: 2
#     Edge 22, Type (0, 0), BuildingBlock: ZUJKAS_clean_linker_0, # of connection points: 2
#     Edge 23, Type (0, 0), BuildingBlock: ZUJKAS_clean_linker_0, # of connection points: 2
#     Edge 24, Type (0, 0), BuildingBlock: ZUJKAS_clean_linker_0, # of connection points: 2
#     Edge 25, Type (0, 0), BuildingBlock: ZUJKAS_clean_linker_0, # of connection points: 2
#     Edge 26, Type (0, 0), BuildingBlock: ZUJKAS_clean_linker_0, # of connection points: 2
#     Edge 27, Type (0, 0), BuildingBlock: ZUJKAS_clean_linker_0, # of connection points: 2
#     Edge 28, Type (0, 0), BuildingBlock: ZUJKAS_clean_linker_0, # of connection points: 2
#     Edge 29, Type (0, 0), BuildingBlock: ZUJKAS_clean_linker_0, # of connection points: 2
#     Edge 30, Type (0, 0), BuildingBlock: ZUJKAS_clean_linker_0, # of connection points: 2
#     Edge 31, Type (0, 0), BuildingBlock: ZUJKAS_clean_linker_0, # of connection points: 2
#     Edge 32, Type (0, 0), BuildingBlock: ZUJKAS_clean_linker_0, # of connection points: 2
#     Edge 33, Type (0, 0), BuildingBlock: ZUJKAS_clean_linker_0, # of connection points: 2
#     Edge 34, Type (0, 0), BuildingBlock: ZUJKAS_clean_linker_0, # of connection points: 2
#     Edge 35, Type (0, 0), BuildingBlock: ZUJKAS_clean_linker_0, # of connection points: 2
#     Edge 36, Type (0, 0), BuildingBlock: ZUJKAS_clean_linker_0, # of connection points: 2
#     Edge 37, Type (0, 0), BuildingBlock: ZUJKAS_clean_linker_0, # of connection points: 2
#     Edge 38, Type (0, 0), BuildingBlock: ZUJKAS_clean_linker_0, # of connection points: 2
#     Edge 39, Type (0, 0), BuildingBlock: ZUJKAS_clean_linker_0, # of connection points: 2
#     Edge 40, Type (0, 0), BuildingBlock: ZUJKAS_clean_linker_0, # of connection points: 2
#     Edge 41, Type (0, 0), BuildingBlock: ZUJKAS_clean_linker_0, # of connection points: 2
# Relax obj value: 0.255
# Max RMSD: 0.234
# Mean RMSD: 0.234
data_MOF--net-fny--node1-XOMCOT_clean_sbu_0--edge1-ZUJKAS_clean_linker_0
_symmetry_space_group_name_H-M    P1
_symmetry_Int_Tables_number       1
_symmetry_cell_setting            triclinic
loop_
_symmetry_equiv_pos_as_xyz
'x, y, z'
_cell_length_a     77.559454
_cell_length_b     77.590924
_cell_length_c     31.161363
_cell_angle_alpha  90.039968
_cell_angle_beta   89.897182
_cell_angle_gamma 120.03911
loop_
_atom_site_label
_atom_site_type_symbol
_atom_site_fract_x
_atom_site_fract_y
_atom_site_fract_z
_atom_type_partial_charge
Co0 Co 0.35388 0.52799 0.28608 0.0
C1 C 0.38844 0.54011 0.34017 0.0
C2 C 0.39175 0.56491 0.30312 0.0
C3 C 0.40935 0.57059 0.32464 0.0
N4 N 0.37881 0.54577 0.31293 0.0
N5 N 0.40722 0.5548 0.34722 0.0
H6 H 0.38195 0.52525 0.35341 0.0
H7 H 0.38892 0.57381 0.28062 0.0
C8 C 0.36408 0.53606 0.19209 0.0
O9 O 0.35492 0.51668 0.18647 0.0
N10 N 0.32846 0.51013 0.25956 0.0
C11 C 0.31417 0.49198 0.27308 0.0
C12 C 0.29775 0.48542 0.24713 0.0
C13 C 0.31999 0.51476 0.22723 0.0
N14 N 0.30151 0.49978 0.21824 0.0
C15 C 0.35611 0.49196 0.29223 0.0
C16 C 0.39164 0.50607 0.24838 0.0
C17 C 0.38294 0.48704 0.26677 0.0
C18 C 0.36482 0.48 0.28869 0.0
C19 C 0.38236 0.51747 0.25243 0.0
N20 N 0.36448 0.51026 0.27326 0.0
H21 H 0.34328 0.48686 0.31258 0.0
H22 H 0.39024 0.53261 0.24085 0.0
H23 H 0.31488 0.48431 0.30123 0.0
H24 H 0.32719 0.5289 0.21068 0.0
O25 O 0.34222 0.51766 0.3421 0.0
O26 O 0.34213 0.54299 0.31004 0.0
O27 O 0.36473 0.54312 0.22969 0.0
C28 C 0.33693 0.53114 0.34314 0.0
H29 H 0.42283 0.58495 0.32268 0.0
H30 H 0.28391 0.47145 0.25017 0.0
H31 H 0.40602 0.51257 0.23268 0.0
H32 H 0.35759 0.46553 0.304 0.0
Co33 Co 0.83318 0.34615 0.77828 0.0
C34 C 0.85516 0.38092 0.83239 0.0
C35 C 0.83265 0.38313 0.79681 0.0
C36 C 0.84387 0.40064 0.81918 0.0
N37 N 0.8399 0.37093 0.80523 0.0
N38 N 0.85816 0.39921 0.84081 0.0
H39 H 0.86415 0.37503 0.84506 0.0
H40 H 0.82053 0.37978 0.77504 0.0
C41 C 0.8358 0.3566 0.68406 0.0
O42 O 0.84574 0.34719 0.67784 0.0
N43 N 0.82603 0.32082 0.75162 0.0
C44 C 0.83016 0.30675 0.76525 0.0
C45 C 0.82159 0.29081 0.73767 0.0
C46 C 0.81388 0.31255 0.71768 0.0
N47 N 0.8115 0.29459 0.70755 0.0
C48 C 0.87148 0.34862 0.78651 0.0
C49 C 0.8932 0.38412 0.74285 0.0
C50 C 0.90336 0.37547 0.76205 0.0
C51 C 0.89219 0.35738 0.78382 0.0
C52 C 0.87245 0.37474 0.74587 0.0
N53 N 0.86166 0.3569 0.7667 0.0
H54 H 0.86362 0.3359 0.80704 0.0
H55 H 0.86525 0.38253 0.73349 0.0
H56 H 0.8381 0.3074 0.79409 0.0
H57 H 0.80708 0.31965 0.70031 0.0
O58 O 0.83139 0.33446 0.83443 0.0
O59 O 0.80614 0.33414 0.80105 0.0
O60 O 0.82947 0.35728 0.72173 0.0
C61 C 0.8126 0.3291 0.83469 0.0
H62 H 0.84201 0.41356 0.81876 0.0
H63 H 0.82249 0.27736 0.73999 0.0
H64 H 0.90125 0.39828 0.72637 0.0
H65 H 0.89948 0.35058 0.80063 0.0
Co66 Co 0.49314 0.82873 0.27735 0.0
C67 C 0.48009 0.85034 0.33171 0.0
C68 C 0.45566 0.8287 0.29401 0.0
C69 C 0.44955 0.84026 0.31568 0.0
N70 N 0.47484 0.83524 0.30408 0.0
N71 N 0.46512 0.85403 0.33865 0.0
H72 H 0.49488 0.85894 0.34516 0.0
H73 H 0.44704 0.81701 0.2712 0.0
C74 C 0.48531 0.8318 0.18358 0.0
O75 O 0.50469 0.84278 0.17834 0.0
N76 N 0.51158 0.82178 0.25095 0.0
C77 C 0.52925 0.82508 0.26632 0.0
C78 C 0.53688 0.81662 0.23901 0.0
C79 C 0.50823 0.81028 0.21598 0.0
N80 N 0.52367 0.80743 0.20719 0.0
C81 C 0.52913 0.86716 0.28304 0.0
C82 C 0.51429 0.88857 0.24211 0.0
C83 C 0.53355 0.89895 0.25936 0.0
C84 C 0.54095 0.88788 0.27983 0.0
C85 C 0.50304 0.86785 0.24581 0.0
N86 N 0.51057 0.85721 0.26527 0.0
H87 H 0.53463 0.85939 0.30195 0.0
H88 H 0.48779 0.86051 0.23485 0.0
H89 H 0.53591 0.83227 0.29629 0.0
H90 H 0.49472 0.80401 0.19733 0.0
O91 O 0.50318 0.82746 0.33365 0.0
O92 O 0.47841 0.80181 0.30076 0.0
O93 O 0.47825 0.82451 0.2207 0.0
C94 C 0.48989 0.80862 0.33439 0.0
H95 H 0.43509 0.8391 0.31349 0.0
H96 H 0.55085 0.81684 0.24291 0.0
H97 H 0.50756 0.89642 0.22747 0.0
H98 H 0.55564 0.89515 0.29412 0.0
Co99 Co 0.67398 0.49317 0.7788 0.0
C100 C 0.63919 0.47896 0.83367 0.0
C101 C 0.63617 0.45578 0.79133 0.0
C102 C 0.6182 0.44946 0.8118 0.0
N103 N 0.64914 0.47436 0.80483 0.0
N104 N 0.62022 0.46418 0.83807 0.0
H105 H 0.64528 0.49343 0.84871 0.0
H106 H 0.6392 0.44779 0.76678 0.0
C107 C 0.66473 0.48616 0.68382 0.0
O108 O 0.67422 0.50556 0.67828 0.0
N109 N 0.69921 0.51205 0.75274 0.0
C110 C 0.71187 0.53117 0.76366 0.0
C111 C 0.72805 0.53885 0.73659 0.0
C112 C 0.70848 0.5081 0.72084 0.0
N113 N 0.72579 0.52433 0.70955 0.0
C114 C 0.66958 0.52754 0.79241 0.0
C115 C 0.63593 0.51508 0.74282 0.0
C116 C 0.64329 0.53294 0.76577 0.0
C117 C 0.66042 0.53912 0.79074 0.0
C118 C 0.64557 0.50395 0.74541 0.0
N119 N 0.66268 0.51051 0.76877 0.0
H120 H 0.68148 0.53174 0.81504 0.0
H121 H 0.63843 0.48945 0.73059 0.0
H122 H 0.71006 0.53912 0.78994 0.0
H123 H 0.70238 0.49376 0.70529 0.0
O124 O 0.68546 0.50267 0.83526 0.0
O125 O 0.68632 0.4783 0.8006 0.0
O126 O 0.66353 0.47892 0.72143 0.0
C127 C 0.69108 0.48946 0.83478 0.0
H128 H 0.60464 0.43538 0.80709 0.0
H129 H 0.74056 0.55391 0.73694 0.0
H130 H 0.62224 0.5092 0.72464 0.0
H131 H 0.66648 0.55258 0.80978 0.0
Co132 Co 0.18992 0.67329 0.27466 0.0
C133 C 0.17055 0.63768 0.33148 0.0
C134 C 0.19577 0.64 0.29792 0.0
C135 C 0.18658 0.62214 0.31968 0.0
N136 N 0.18529 0.64942 0.30423 0.0
N137 N 0.17082 0.62092 0.34046 0.0
H138 H 0.15951 0.64077 0.34427 0.0
H139 H 0.20864 0.64533 0.27717 0.0
C140 C 0.18114 0.64272 0.20636 0.0
O141 O 0.16622 0.63039 0.23087 0.0
N142 N 0.19505 0.69713 0.24535 0.0
C143 C 0.18855 0.70967 0.25655 0.0
C144 C 0.19493 0.72447 0.22608 0.0
C145 C 0.20526 0.70435 0.20862 0.0
N146 N 0.20541 0.72106 0.19594 0.0
C147 C 0.15031 0.66268 0.30167 0.0
C148 C 0.13198 0.65101 0.22277 0.0
C149 C 0.1201 0.64798 0.25923 0.0
C150 C 0.12972 0.65458 0.29888 0.0
C151 C 0.15261 0.65918 0.22717 0.0
N152 N 0.16132 0.66328 0.26685 0.0
H153 H 0.15728 0.66792 0.33252 0.0
H154 H 0.16148 0.66216 0.1985 0.0
H155 H 0.17964 0.70804 0.28463 0.0
H156 H 0.21202 0.69721 0.1911 0.0
O157 O 0.19345 0.68663 0.32928 0.0
O158 O 0.21776 0.68625 0.29337 0.0
O159 O 0.19202 0.66099 0.21791 0.0
C160 C 0.21219 0.69202 0.32738 0.0
H161 H 0.19096 0.6109 0.32005 0.0
H162 H 0.19209 0.73677 0.22627 0.0
H163 H 0.12544 0.64724 0.19106 0.0
H164 H 0.12142 0.65305 0.32797 0.0
Co165 Co 0.53183 0.18772 0.78232 0.0
C166 C 0.54544 0.16823 0.84148 0.0
C167 C 0.56829 0.18558 0.7955 0.0
C168 C 0.57394 0.17392 0.81803 0.0
N169 N 0.55029 0.1817 0.80998 0.0
N170 N 0.55946 0.16306 0.84661 0.0
H171 H 0.53119 0.16109 0.85778 0.0
H172 H 0.57618 0.19519 0.76872 0.0
C173 C 0.53899 0.18298 0.68888 0.0
O174 O 0.51959 0.17182 0.68449 0.0
N175 N 0.5134 0.19419 0.75465 0.0
C176 C 0.49527 0.19046 0.76807 0.0
C177 C 0.4882 0.19912 0.73992 0.0
C178 C 0.5175 0.20606 0.72014 0.0
N179 N 0.50223 0.20887 0.70978 0.0
C180 C 0.49606 0.14943 0.79222 0.0
C181 C 0.5101 0.12726 0.75143 0.0
C182 C 0.49098 0.11727 0.7696 0.0
C183 C 0.48403 0.12871 0.7902 0.0
C184 C 0.52158 0.148 0.75402 0.0
N185 N 0.51434 0.15903 0.77298 0.0
H186 H 0.49096 0.15753 0.81131 0.0
H187 H 0.53668 0.15508 0.74216 0.0
H188 H 0.48794 0.18295 0.79731 0.0
H189 H 0.53147 0.21263 0.70292 0.0
O190 O 0.52193 0.1901 0.83798 0.0
O191 O 0.54671 0.21506 0.80335 0.0
O192 O 0.54632 0.19089 0.7254 0.0
C193 C 0.53522 0.20893 0.83715 0.0
H194 H 0.58729 0.17304 0.81304 0.0
H195 H 0.47409 0.19876 0.74217 0.0
H196 H 0.51652 0.1191 0.73673 0.0
H197 H 0.46952 0.12174 0.80538 0.0
Co198 Co 0.49255 0.66683 0.74006 0.0
C199 C 0.47456 0.62838 0.69201 0.0
C200 C 0.45283 0.6358 0.71343 0.0
C201 C 0.44303 0.61716 0.69506 0.0
N202 N 0.47263 0.64276 0.7119 0.0
N203 N 0.45679 0.6125 0.68223 0.0
H204 H 0.48843 0.62911 0.68479 0.0
H205 H 0.44596 0.64343 0.72855 0.0
C206 C 0.46996 0.63739 0.80973 0.0
O207 O 0.47183 0.62441 0.78606 0.0
N208 N 0.51186 0.69079 0.76806 0.0
C209 C 0.53121 0.70236 0.75773 0.0
C210 C 0.53985 0.71766 0.78704 0.0
C211 C 0.50887 0.69912 0.80297 0.0
N212 N 0.52575 0.71556 0.81541 0.0
C213 C 0.52078 0.65499 0.71457 0.0
C214 C 0.52733 0.64422 0.79464 0.0
C215 C 0.53627 0.64087 0.75882 0.0
C216 C 0.53327 0.64694 0.71852 0.0
C217 C 0.51495 0.6524 0.78916 0.0
N218 N 0.5105 0.65617 0.74903 0.0
H219 H 0.51867 0.65942 0.68308 0.0
H220 H 0.50911 0.65575 0.81738 0.0
H221 H 0.53854 0.69971 0.73107 0.0
H222 H 0.49473 0.69295 0.8195 0.0
O223 O 0.50243 0.67934 0.6846 0.0
O224 O 0.47848 0.68046 0.72043 0.0
O225 O 0.4781 0.65561 0.79729 0.0
C226 C 0.48967 0.68551 0.68621 0.0
H227 H 0.42706 0.60759 0.69243 0.0
H228 H 0.55529 0.7294 0.78738 0.0
H229 H 0.53004 0.64076 0.82672 0.0
H230 H 0.54006 0.64501 0.6899 0.0
Co231 Co 0.83525 0.49102 0.23934 0.0
C232 C 0.85594 0.47326 0.19064 0.0
C233 C 0.82675 0.45158 0.2121 0.0
C234 C 0.83537 0.44177 0.19287 0.0
N235 N 0.83966 0.47136 0.21078 0.0
N236 N 0.8538 0.45549 0.17994 0.0
H237 H 0.86919 0.48707 0.18356 0.0
H238 H 0.81226 0.44472 0.22727 0.0
C239 C 0.84384 0.46986 0.30928 0.0
O240 O 0.85917 0.47261 0.2861 0.0
N241 N 0.83026 0.50988 0.26837 0.0
C242 C 0.83826 0.52945 0.26018 0.0
C243 C 0.83204 0.53764 0.29163 0.0
C244 C 0.81922 0.50633 0.30397 0.0
N245 N 0.82017 0.52305 0.31926 0.0
C246 C 0.8749 0.51927 0.21188 0.0
C247 C 0.89314 0.52734 0.29113 0.0
C248 C 0.90501 0.53543 0.25436 0.0
C249 C 0.89547 0.53179 0.21454 0.0
C250 C 0.8725 0.51474 0.28687 0.0
N251 N 0.86386 0.50947 0.24717 0.0
H252 H 0.868 0.51666 0.1807 0.0
H253 H 0.86358 0.50918 0.31557 0.0
H254 H 0.84842 0.5373 0.2341 0.0
H255 H 0.81086 0.49178 0.3186 0.0
O256 O 0.83203 0.50089 0.18451 0.0
O257 O 0.8074 0.47648 0.22032 0.0
O258 O 0.83269 0.47664 0.29613 0.0
C259 C 0.81318 0.48785 0.18637 0.0
H260 H 0.82877 0.42582 0.18934 0.0
H261 H 0.83655 0.55322 0.29481 0.0
H262 H 0.89975 0.53035 0.32279 0.0
H263 H 0.90385 0.53848 0.18548 0.0
Co264 Co 0.35364 0.83236 0.73714 0.0
C265 C 0.3917 0.85227 0.68754 0.0
C266 C 0.38457 0.82348 0.71081 0.0
C267 C 0.40303 0.8321 0.69154 0.0
N268 N 0.37757 0.83625 0.70874 0.0
N269 N 0.40751 0.8503 0.67749 0.0
H270 H 0.39074 0.86518 0.67926 0.0
H271 H 0.37708 0.80918 0.72679 0.0
C272 C 0.38306 0.8389 0.80642 0.0
O273 O 0.39612 0.8537 0.78269 0.0
N274 N 0.32977 0.82805 0.7653 0.0
C275 C 0.31772 0.83495 0.75282 0.0
C276 C 0.30272 0.82922 0.78269 0.0
C277 C 0.32211 0.8183 0.80233 0.0
N278 N 0.30562 0.81885 0.81381 0.0
C279 C 0.36581 0.87249 0.71187 0.0
C280 C 0.37752 0.89002 0.79161 0.0
C281 C 0.38113 0.90228 0.75565 0.0
C282 C 0.3744 0.89309 0.71563 0.0
C283 C 0.36875 0.86937 0.7863 0.0
N284 N 0.36462 0.86102 0.74624 0.0
H285 H 0.36092 0.86589 0.68056 0.0
H286 H 0.36542 0.86022 0.81457 0.0
H287 H 0.31988 0.84381 0.7244 0.0
H288 H 0.32842 0.8109 0.82045 0.0
O289 O 0.34114 0.8299 0.68183 0.0
O290 O 0.3398 0.80467 0.71722 0.0
O291 O 0.36481 0.82897 0.79416 0.0
C292 C 0.33485 0.81095 0.68315 0.0
H293 H 0.41257 0.82567 0.68901 0.0
H294 H 0.29094 0.83283 0.78218 0.0
H295 H 0.38175 0.89627 0.82349 0.0
H296 H 0.37583 0.90174 0.68722 0.0
Co297 Co 0.53296 0.35236 0.2396 0.0
C298 C 0.5431 0.38533 0.18183 0.0
C299 C 0.56869 0.39069 0.21863 0.0
C300 C 0.57334 0.40764 0.19545 0.0
N301 N 0.54969 0.37688 0.21005 0.0
N302 N 0.55706 0.40423 0.17294 0.0
H303 H 0.52808 0.37792 0.1693 0.0
H304 H 0.57818 0.38892 0.24146 0.0
C305 C 0.54256 0.36459 0.33257 0.0
O306 O 0.5233 0.35512 0.34027 0.0
N307 N 0.51608 0.32734 0.2688 0.0
C308 C 0.49784 0.31253 0.25723 0.0
C309 C 0.49157 0.29718 0.2862 0.0
C310 C 0.52109 0.32015 0.30296 0.0
N311 N 0.50616 0.30216 0.31519 0.0
C312 C 0.49619 0.35335 0.23512 0.0
C313 C 0.51027 0.38958 0.27581 0.0
C314 C 0.4909 0.38015 0.25906 0.0
C315 C 0.4839 0.3617 0.23868 0.0
C316 C 0.52201 0.38067 0.27175 0.0
N317 N 0.51484 0.36247 0.25255 0.0
H318 H 0.49102 0.34016 0.216 0.0
H319 H 0.53733 0.3891 0.28195 0.0
H320 H 0.48972 0.31234 0.22905 0.0
H321 H 0.53547 0.32778 0.31843 0.0
O322 O 0.52193 0.33945 0.18497 0.0
O323 O 0.54825 0.34089 0.21576 0.0
O324 O 0.54893 0.36469 0.29446 0.0
C325 C 0.53588 0.3348 0.18355 0.0
H326 H 0.58732 0.42156 0.19633 0.0
H327 H 0.47728 0.28357 0.28626 0.0
H328 H 0.51673 0.40422 0.29021 0.0
H329 H 0.46917 0.35391 0.22462 0.0
Co330 Co 0.18672 0.52387 0.74137 0.0
C331 C 0.16051 0.53334 0.68948 0.0
C332 C 0.19002 0.55839 0.69446 0.0
C333 C 0.17875 0.56367 0.66945 0.0
N334 N 0.17853 0.53929 0.70688 0.0
N335 N 0.16018 0.54782 0.66645 0.0
H336 H 0.14765 0.51891 0.69382 0.0
H337 H 0.20555 0.56779 0.70264 0.0
C338 C 0.18032 0.55041 0.80295 0.0
O339 O 0.16606 0.54874 0.77763 0.0
N340 N 0.19479 0.50839 0.77477 0.0
C341 C 0.19019 0.48949 0.76692 0.0
C342 C 0.19755 0.48323 0.79981 0.0
C343 C 0.20483 0.51345 0.81202 0.0
N344 N 0.20663 0.4983 0.82815 0.0
C345 C 0.14825 0.48972 0.72487 0.0
C346 C 0.12985 0.4909 0.79984 0.0
C347 C 0.11817 0.47782 0.76719 0.0
C348 C 0.12781 0.47675 0.73006 0.0
C349 C 0.15031 0.5035 0.79345 0.0
N350 N 0.15897 0.50404 0.75481 0.0
H351 H 0.15506 0.48919 0.69509 0.0
H352 H 0.15895 0.51276 0.81978 0.0
H353 H 0.18166 0.4807 0.73974 0.0
H354 H 0.21062 0.52784 0.82715 0.0
O355 O 0.19022 0.51217 0.68911 0.0
O356 O 0.21382 0.53963 0.71891 0.0
O357 O 0.1895 0.54091 0.79415 0.0
C358 C 0.20853 0.5267 0.68791 0.0
H359 H 0.18406 0.57783 0.65352 0.0
H360 H 0.19575 0.46854 0.80335 0.0
H361 H 0.12321 0.49148 0.83002 0.0
H362 H 0.11951 0.46669 0.70416 0.0
Co363 Co 0.66968 0.18437 0.23959 0.0
C364 C 0.63547 0.16305 0.18414 0.0
C365 C 0.63173 0.18343 0.22428 0.0
C366 C 0.61394 0.17119 0.20377 0.0
N367 N 0.64505 0.17805 0.21215 0.0
N368 N 0.61631 0.15817 0.17927 0.0
H369 H 0.64216 0.15508 0.1698 0.0
H370 H 0.63432 0.19449 0.24843 0.0
C371 C 0.65757 0.1802 0.333 0.0
O372 O 0.66538 0.1687 0.33804 0.0
N373 N 0.69477 0.19108 0.26684 0.0
C374 C 0.70947 0.18812 0.25197 0.0
C375 C 0.72499 0.19598 0.28078 0.0
C376 C 0.70218 0.20179 0.30301 0.0
N377 N 0.72019 0.20434 0.31306 0.0
C378 C 0.66745 0.14608 0.23306 0.0
C379 C 0.63067 0.12415 0.27196 0.0
C380 C 0.63987 0.11403 0.25501 0.0
C381 C 0.6586 0.12536 0.23554 0.0
C382 C 0.64008 0.14489 0.269 0.0
N383 N 0.65852 0.15579 0.25057 0.0
H384 H 0.68099 0.1541 0.21497 0.0
H385 H 0.632 0.15207 0.27984 0.0
H386 H 0.70944 0.18136 0.22169 0.0
H387 H 0.69486 0.20812 0.32127 0.0
O388 O 0.68154 0.18613 0.18363 0.0
O389 O 0.68214 0.21149 0.21728 0.0
O390 O 0.65857 0.18814 0.29627 0.0
C391 C 0.68718 0.20499 0.18363 0.0
H392 H 0.60009 0.17117 0.20842 0.0
H393 H 0.73862 0.19541 0.27835 0.0
H394 H 0.61589 0.11611 0.28585 0.0
H395 H 0.66627 0.11828 0.22152 0.0
H396 H 0.36559 0.5255 0.10908 0.0
H397 H 0.38362 0.547 0.04865 0.0
H398 H 0.4042 0.59869 0.12958 0.0
H399 H 0.38639 0.57713 0.19082 0.0
H400 H 0.37983 0.57639 1.00947 0.0
H401 H 0.45612 0.60796 0.07663 0.0
H402 H 0.43482 0.5867 0.10016 0.0
H403 H 0.43886 0.61133 0.10907 0.0
C404 C 0.37395 0.54144 0.11426 0.0
C405 C 0.37456 0.54952 0.15508 0.0
C406 C 0.38426 0.55376 0.07949 0.0
C407 C 0.39557 0.57451 0.08445 0.0
C408 C 0.39596 0.58272 0.12498 0.0
H409 H 0.46874 0.65965 0.87823 0.0
H410 H 0.45052 0.64692 0.94651 0.0
C411 C 0.38563 0.57036 0.15995 0.0
C412 C 0.40663 0.58726 0.04678 0.0
H413 H 0.45343 0.6188 1.00763 0.0
C414 C 0.39591 0.58579 1.00931 0.0
C415 C 0.42765 0.59967 0.04636 0.0
C416 C 0.44012 0.60147 0.08502 0.0
C417 C 0.40557 0.59587 0.97139 0.0
C418 C 0.4266 0.60764 0.97049 0.0
C419 C 0.43731 0.60983 1.00835 0.0
C420 C 0.43767 0.61585 0.92944 0.0
C421 C 0.39319 0.59354 0.93222 0.0
C422 C 0.43669 0.60269 0.89743 0.0
C423 C 0.44709 0.60985 0.85887 0.0
C424 C 0.4588 0.63044 0.85103 0.0
C425 C 0.4598 0.64372 0.88309 0.0
C426 C 0.44944 0.63647 0.92214 0.0
H427 H 0.37756 0.5889 0.94093 0.0
H428 H 0.3996 0.60766 0.91371 0.0
H429 H 0.39295 0.58191 0.91109 0.0
H430 H 0.42796 0.58674 0.90243 0.0
H431 H 0.44588 0.59912 0.83509 0.0
H432 H 0.83162 0.34652 0.59941 0.0
H433 H 0.82995 0.36538 0.53835 0.0
H434 H 0.83362 0.41064 0.62453 0.0
H435 H 0.83407 0.39109 0.68603 0.0
H436 H 0.80999 0.40697 0.56195 0.0
H437 H 0.87688 0.41157 0.48777 0.0
H438 H 0.85752 0.38618 0.49345 0.0
H439 H 0.86848 0.40131 0.54053 0.0
C440 C 0.83192 0.36043 0.60536 0.0
C441 C 0.83317 0.3674 0.64753 0.0
C442 C 0.83116 0.37134 0.57032 0.0
C443 C 0.83238 0.3899 0.57636 0.0
C444 C 0.83285 0.39651 0.61869 0.0
H445 H 0.87229 0.47511 0.36644 0.0
H446 H 0.8685 0.45707 0.43309 0.0
C447 C 0.8331 0.38531 0.65391 0.0
C448 C 0.83362 0.40251 0.53863 0.0
H449 H 0.85829 0.42146 0.44399 0.0
C450 C 0.82066 0.41026 0.5363 0.0
C451 C 0.84779 0.40727 0.5053 0.0
C452 C 0.86358 0.40133 0.50709 0.0
C453 C 0.8213 0.4223 0.50164 0.0
C454 C 0.83479 0.42617 0.46724 0.0
C455 C 0.84778 0.41849 0.46985 0.0
C456 C 0.8364 0.43864 0.42885 0.0
C457 C 0.80792 0.43121 0.50317 0.0
C458 C 0.81964 0.43487 0.40413 0.0
C459 C 0.82179 0.44576 0.36639 0.0
C460 C 0.8408 0.46014 0.35185 0.0
C461 C 0.85745 0.46406 0.37675 0.0
C462 C 0.85527 0.45365 0.41489 0.0
H463 H 0.80371 0.43241 0.53669 0.0
H464 H 0.81517 0.44624 0.4884 0.0
H465 H 0.79399 0.42142 0.48539 0.0
H466 H 0.80494 0.42306 0.41306 0.0
H467 H 0.80872 0.44223 0.34748 0.0
H468 H 0.4442 0.81224 0.18211 0.0
H469 H 0.4226 0.80858 0.12103 0.0
H470 H 0.47441 0.84159 0.04111 0.0
H471 H 0.49592 0.84503 0.10125 0.0
H472 H 0.42038 0.83726 0.07227 0.0
H473 H 0.44118 0.79295 0.96785 0.0
H474 H 0.44716 0.79648 0.02429 0.0
H475 H 0.46263 0.81534 0.986 0.0
C476 C 0.45097 0.81854 0.15139 0.0
C477 C 0.47185 0.8288 0.14666 0.0
C478 C 0.43859 0.81648 0.11651 0.0
C479 C 0.4468 0.82448 0.07609 0.0
C480 C 0.46762 0.83483 0.07152 0.0
H481 H 0.42133 0.85351 0.83222 0.0
H482 H 0.43362 0.8475 0.89901 0.0
C483 C 0.47995 0.83688 0.1062 0.0
C484 C 0.43389 0.82273 0.03881 0.0
H485 H 0.42606 0.80969 0.93274 0.0
C486 C 0.42132 0.83089 0.04198 0.0
C487 C 0.43495 0.8143 0.99923 0.0
C488 C 0.44705 0.80408 0.9942 0.0
C489 C 0.41081 0.83193 1.00607 0.0
C490 C 0.41276 0.82446 0.966 0.0
C491 C 0.4246 0.8155 0.96337 0.0
C492 C 0.40448 0.82768 0.92551 0.0
C493 C 0.39851 0.84193 0.01061 0.0
C494 C 0.38386 0.81839 0.91772 0.0
C495 C 0.37665 0.82175 0.87897 0.0
C496 C 0.38997 0.83454 0.84752 0.0
C497 C 0.41056 0.84366 0.85562 0.0
C498 C 0.41768 0.8402 0.8939 0.0
H499 H 0.40047 0.84913 0.04245 0.0
H500 H 0.40256 0.85337 0.98521 0.0
H501 H 0.38252 0.8307 1.00656 0.0
H502 H 0.37336 0.80847 0.94143 0.0
H503 H 0.36072 0.81448 0.87382 0.0
H504 H 0.58174 0.39439 0.3266 0.0
H505 H 0.60392 0.41436 0.3853 0.0
H506 H 0.55748 0.38051 0.47711 0.0
H507 H 0.53519 0.36067 0.41886 0.0
H508 H 0.59052 0.43573 0.45514 0.0
H509 H 0.61249 0.38213 0.51666 0.0
H510 H 0.60571 0.38219 0.46119 0.0
H511 H 0.58685 0.37284 0.50195 0.0
C512 C 0.57631 0.39106 0.3593 0.0
C513 C 0.55665 0.37592 0.36794 0.0
C514 C 0.58898 0.40253 0.39281 0.0
C515 C 0.58238 0.39888 0.43561 0.0
C516 C 0.56293 0.38353 0.44438 0.0
H517 H 0.63468 0.44703 0.68578 0.0
H518 H 0.61521 0.42624 0.62529 0.0
C519 C 0.55019 0.37224 0.41095 0.0
C520 C 0.59541 0.41158 0.47111 0.0
H521 H 0.6235 0.41184 0.55584 0.0
C522 C 0.59786 0.4306 0.47703 0.0
C523 C 0.6047 0.40473 0.49998 0.0
C524 C 0.60248 0.38439 0.49485 0.0
C525 C 0.6091 0.44285 0.51144 0.0
C526 C 0.61876 0.43619 0.54009 0.0
C527 C 0.61627 0.41709 0.53399 0.0
C528 C 0.63124 0.44867 0.57681 0.0
C529 C 0.60983 0.46251 0.51754 0.0
C530 C 0.64716 0.4681 0.57 0.0
C531 C 0.65817 0.4801 0.60463 0.0
C532 C 0.65384 0.47285 0.64699 0.0
C533 C 0.63846 0.45312 0.65366 0.0
C534 C 0.62728 0.4412 0.619 0.0
H535 H 0.59699 0.46256 0.5019 0.0
H536 H 0.60984 0.46601 0.5521 0.0
H537 H 0.62364 0.47453 0.50263 0.0
H538 H 0.65105 0.47408 0.53781 0.0
H539 H 0.67006 0.49512 0.59818 0.0
H540 H 0.16675 0.60401 0.18451 0.0
H541 H 0.17031 0.59034 0.11703 0.0
H542 H 0.2063 0.64969 0.06656 0.0
H543 H 0.20318 0.66363 0.1352 0.0
H544 H 0.15716 0.59295 0.04104 0.0
H545 H 0.23891 0.62473 0.02996 0.0
H546 H 0.22676 0.62559 0.07871 0.0
H547 H 0.23146 0.64308 0.03621 0.0
C548 C 0.17559 0.61426 0.15929 0.0
C549 C 0.18462 0.63498 0.16537 0.0
C550 C 0.17763 0.60636 0.12055 0.0
C551 C 0.1887 0.61888 0.08649 0.0
C552 C 0.19802 0.63965 0.09251 0.0
H553 H 0.16847 0.57709 0.82271 0.0
H554 H 0.17193 0.59421 0.89043 0.0
C555 C 0.19613 0.64763 0.13171 0.0
C556 C 0.18918 0.60986 0.04427 0.0
H557 H 0.21996 0.60749 0.96833 0.0
C558 C 0.17094 0.59616 0.02531 0.0
C559 C 0.2071 0.61372 0.02372 0.0
C560 C 0.22718 0.62743 0.04332 0.0
C561 C 0.17007 0.5864 0.98665 0.0
C562 C 0.18795 0.59075 0.96531 0.0
C563 C 0.20624 0.60425 0.98439 0.0
C564 C 0.1877 0.58161 0.92285 0.0
C565 C 0.14991 0.57117 0.96948 0.0
C566 C 0.19621 0.56942 0.91755 0.0
C567 C 0.19442 0.55963 0.87832 0.0
C568 C 0.18405 0.56187 0.84368 0.0
C569 C 0.17629 0.57473 0.84876 0.0
C570 C 0.1782 0.58454 0.88764 0.0
H571 H 0.13839 0.56539 0.99513 0.0
H572 H 0.14523 0.57823 0.94464 0.0
H573 H 0.15039 0.55841 0.95461 0.0
H574 H 0.20373 0.567 0.94414 0.0
H575 H 0.20061 0.5499 0.87556 0.0
H576 H 0.64564 0.20804 0.34193 0.0
H577 H 0.62789 0.21222 0.40275 0.0
H578 H 0.62642 0.16213 0.46629 0.0
H579 H 0.64481 0.1585 0.4069 0.0
H580 H 0.59279 0.19014 0.4349 0.0
H581 H 0.64576 0.19998 0.56328 0.0
H582 H 0.65182 0.20028 0.5073 0.0
H583 H 0.63795 0.177 0.53567 0.0
C584 C 0.64172 0.19808 0.36912 0.0
C585 C 0.6469 0.18309 0.36966 0.0
C586 C 0.63153 0.20045 0.40392 0.0
C587 C 0.62616 0.18782 0.43995 0.0
C588 C 0.63097 0.1726 0.43992 0.0
H589 H 0.5292 0.16067 0.61573 0.0
H590 H 0.55075 0.16336 0.55607 0.0
C591 C 0.6414 0.17042 0.40558 0.0
C592 C 0.61477 0.18988 0.47663 0.0
H593 H 0.61252 0.19051 0.58631 0.0
C594 C 0.59727 0.19045 0.46796 0.0
C595 C 0.62069 0.1908 0.52003 0.0
C596 C 0.6402 0.19222 0.53208 0.0
C597 C 0.58525 0.1911 0.50116 0.0
C598 C 0.59036 0.19041 0.54459 0.0
C599 C 0.60827 0.19066 0.55323 0.0
C600 C 0.57717 0.18893 0.58136 0.0
C601 C 0.56734 0.19283 0.48905 0.0
C602 C 0.58484 0.20182 0.61689 0.0
C603 C 0.57254 0.19999 0.65185 0.0
C604 C 0.55224 0.1853 0.65196 0.0
C605 C 0.54466 0.17238 0.61652 0.0
C606 C 0.55699 0.17401 0.58202 0.0
H607 H 0.56957 0.20037 0.45755 0.0
H608 H 0.55415 0.1777 0.48606 0.0
H609 H 0.56412 0.20126 0.51351 0.0
H610 H 0.60036 0.21337 0.61758 0.0
H611 H 0.57891 0.21013 0.67866 0.0
H612 H 0.5229 0.40441 0.15484 0.0
H613 H 0.51806 0.42235 0.09578 0.0
H614 H 0.58111 0.45255 0.06925 0.0
H615 H 0.58599 0.43452 0.12744 0.0
H616 H 0.55989 0.47576 0.05226 0.0
H617 H 0.52445 0.40015 0.97828 0.0
H618 H 0.51509 0.40465 0.02743 0.0
H619 H 0.53809 0.40434 0.02759 0.0
C620 C 0.53576 0.41508 0.13673 0.0
C621 C 0.55478 0.4176 0.14474 0.0
C622 C 0.53297 0.42549 0.10346 0.0
C623 C 0.54918 0.43855 0.078 0.0
C624 C 0.56841 0.44258 0.0888 0.0
H625 H 0.62572 0.48176 0.91481 0.0
H626 H 0.6003 0.47996 0.96276 0.0
C627 C 0.5712 0.43219 0.12192 0.0
C628 C 0.54632 0.44476 0.03518 0.0
H629 H 0.54498 0.42727 0.93471 0.0
C630 C 0.5558 0.46518 0.02612 0.0
C631 C 0.54017 0.43096 1.00096 0.0
C632 C 0.5288 0.40877 1.0087 0.0
C633 C 0.56249 0.47216 0.98447 0.0
C634 C 0.56036 0.45834 0.95232 0.0
C635 C 0.54733 0.43798 0.95965 0.0
C636 C 0.57572 0.46363 0.91859 0.0
C637 C 0.57356 0.49428 0.97643 0.0
C638 C 0.57061 0.45485 0.87767 0.0
C639 C 0.58526 0.45528 0.85069 0.0
C640 C 0.60522 0.46473 0.86404 0.0
C641 C 0.61045 0.47452 0.90369 0.0
C642 C 0.59587 0.4738 0.93085 0.0
H643 H 0.5654 0.50113 0.99133 0.0
H644 H 0.58842 0.50111 0.99195 0.0
H645 H 0.57547 0.49783 0.94162 0.0
H646 H 0.55519 0.44676 0.86756 0.0
H647 H 0.58096 0.44794 0.81981 0.0
H648 H 0.16315 0.62341 0.42267 0.0
H649 H 0.13921 0.59645 0.46833 0.0
H650 H 0.12076 0.55617 0.3602 0.0
H651 H 0.14599 0.58324 0.3153 0.0
H652 H 0.09932 0.57122 0.47002 0.0
H653 H 0.13754 0.5275 0.43952 0.0
H654 H 0.14827 0.55244 0.41893 0.0
H655 H 0.12565 0.53272 0.39613 0.0
C656 C 0.15401 0.60873 0.40903 0.0
C657 C 0.15659 0.605 0.36636 0.0
C658 C 0.14014 0.59341 0.43471 0.0
C659 C 0.12826 0.57417 0.41782 0.0
C660 C 0.13005 0.57073 0.3742 0.0
H661 H 0.12917 0.51338 0.63533 0.0
H662 H 0.10638 0.51051 0.579 0.0
C663 C 0.14443 0.58605 0.34873 0.0
C664 C 0.11636 0.55783 0.44827 0.0
H665 H 0.12469 0.52592 0.50716 0.0
C666 C 0.10417 0.56066 0.47754 0.0
C667 C 0.12184 0.54334 0.4573 0.0
C668 C 0.13402 0.5387 0.42645 0.0
C669 C 0.10104 0.55267 0.519 0.0
C670 C 0.11013 0.54153 0.53064 0.0
C671 C 0.11831 0.53509 0.49849 0.0
C672 C 0.11738 0.54213 0.57473 0.0
C673 C 0.09011 0.55814 0.5513 0.0
C674 C 0.13049 0.56082 0.59275 0.0
C675 C 0.14365 0.56259 0.62512 0.0
C676 C 0.14406 0.54571 0.63984 0.0
C677 C 0.12946 0.5268 0.6249 0.0
C678 C 0.11622 0.52504 0.59269 0.0
H679 H 0.07711 0.55799 0.53604 0.0
H680 H 0.08492 0.5478 0.57912 0.0
H681 H 0.10016 0.5735 0.56304 0.0
H682 H 0.132 0.57433 0.57895 0.0
H683 H 0.15432 0.57729 0.63667 0.0
H684 H 0.58354 0.15546 0.1426 0.0
H685 H 0.5627 0.13134 0.08885 0.0
H686 H 0.59466 0.09955 0.10549 0.0
H687 H 0.61534 0.1235 0.1603 0.0
H688 H 0.59969 0.11557 0.02739 0.0
H689 H 0.51955 0.07528 0.05871 0.0
H690 H 0.52968 0.09972 0.08109 0.0
H691 H 0.53774 0.08312 0.10147 0.0
C692 C 0.58563 0.14292 0.13614 0.0
C693 C 0.60151 0.1418 0.15452 0.0
C694 C 0.57351 0.12892 0.10571 0.0
C695 C 0.57705 0.11353 0.09324 0.0
C696 C 0.59161 0.11123 0.11477 0.0
H697 H 0.56761 0.13385 0.82778 0.0
H698 H 0.56621 0.10866 0.87784 0.0
C699 C 0.60368 0.12519 0.14542 0.0
C700 C 0.56981 0.10433 0.05071 0.0
H701 H 0.52995 0.0941 0.98834 0.0
C702 C 0.58428 0.10998 0.01844 0.0
C703 C 0.54966 0.09624 0.03904 0.0
C704 C 0.53329 0.08803 0.07212 0.0
C705 C 0.57989 0.11222 0.97595 0.0
C706 C 0.56034 0.10801 0.96595 0.0
C707 C 0.54509 0.09802 0.99638 0.0
C708 C 0.55715 0.11961 0.93237 0.0
C709 C 0.59685 0.12192 0.9442 0.0
C710 C 0.55142 0.13334 0.94571 0.0
C711 C 0.55176 0.14724 0.91713 0.0
C712 C 0.55821 0.14798 0.8749 0.0
C713 C 0.56311 0.13377 0.86072 0.0
C714 C 0.56225 0.11941 0.88917 0.0
H715 H 0.6112 0.12464 0.95798 0.0
H716 H 0.59355 0.11218 0.91574 0.0
H717 H 0.59877 0.13641 0.9334 0.0
H718 H 0.54758 0.13397 0.97891 0.0
H719 H 0.5478 0.15801 0.92845 0.0
H720 H 0.42636 0.58893 0.62986 0.0
H721 H 0.42466 0.56318 0.58294 0.0
H722 H 0.47856 0.56989 0.63897 0.0
H723 H 0.48024 0.5958 0.68643 0.0
H724 H 0.4834 0.57626 0.55682 0.0
H725 H 0.41275 0.50709 0.57382 0.0
H726 H 0.40685 0.52653 0.57879 0.0
H727 H 0.42319 0.5247 0.61756 0.0
C728 C 0.43742 0.58442 0.63338 0.0
C729 C 0.45365 0.5947 0.66103 0.0
C730 C 0.43636 0.56949 0.6068 0.0
C731 C 0.45139 0.56438 0.60769 0.0
C732 C 0.46676 0.5735 0.63786 0.0
H733 H 0.41075 0.52228 0.36172 0.0
H734 H 0.42976 0.5184 0.41971 0.0
C735 C 0.46782 0.58848 0.6645 0.0
C736 C 0.45315 0.55336 0.57079 0.0
H737 H 0.42063 0.52134 0.49752 0.0
C738 C 0.46999 0.5636 0.54432 0.0
C739 C 0.43629 0.53619 0.55477 0.0
C740 C 0.41889 0.52291 0.58317 0.0
C741 C 0.46862 0.55983 0.50015 0.0
C742 C 0.44995 0.54594 0.48271 0.0
C743 C 0.43476 0.53273 0.51048 0.0
C744 C 0.44383 0.54918 0.4399 0.0
C745 C 0.48642 0.57239 0.47209 0.0
C746 C 0.44602 0.56795 0.43082 0.0
C747 C 0.43508 0.57014 0.39807 0.0
C748 C 0.42154 0.55356 0.3742 0.0
C749 C 0.42071 0.5352 0.38056 0.0
C750 C 0.43175 0.53301 0.41326 0.0
H751 H 0.50012 0.574 0.48713 0.0
H752 H 0.4847 0.56585 0.43957 0.0
H753 H 0.48847 0.58756 0.46907 0.0
H754 H 0.45474 0.58058 0.45156 0.0
H755 H 0.43596 0.58441 0.39391 0.0
H756 H 0.89407 0.47747 0.18447 0.0
H757 H 0.91775 0.47562 0.13505 0.0
H758 H 0.86897 0.42481 0.07328 0.0
H759 H 0.84556 0.42643 0.12271 0.0
H760 H 0.90397 0.42271 0.07571 0.0
H761 H 0.91954 0.4968 0.01537 0.0
H762 H 0.92564 0.49381 0.06951 0.0
H763 H 0.90004 0.48401 0.05444 0.0
C764 C 0.88854 0.46574 0.16068 0.0
C765 C 0.86795 0.45233 0.15665 0.0
C766 C 0.90207 0.46468 0.13265 0.0
C767 C 0.89509 0.45034 0.10001 0.0
C768 C 0.87473 0.43598 0.09837 0.0
H769 H 0.85422 0.4244 0.89359 0.0
H770 H 0.87671 0.44351 0.95154 0.0
C771 C 0.86129 0.43691 0.12655 0.0
C772 C 0.90766 0.45158 0.0631 0.0
H773 H 0.91604 0.47313 0.96451 0.0
C774 C 0.9076 0.43408 0.05154 0.0
C775 C 0.91318 0.46683 0.03221 0.0
C776 C 0.91472 0.48649 0.04324 0.0
C777 C 0.90828 0.42953 1.00827 0.0
C778 C 0.90964 0.44323 0.97656 0.0
C779 C 0.91438 0.46248 0.98902 0.0
C780 C 0.89926 0.43585 0.9351 0.0
C781 C 0.90436 0.40897 0.99692 0.0
C782 C 0.90486 0.42598 0.90538 0.0
C783 C 0.89175 0.41474 0.87259 0.0
C784 C 0.87309 0.41356 0.86883 0.0
C785 C 0.86847 0.42507 0.89589 0.0
C786 C 0.88139 0.43604 0.9289 0.0
H787 H 0.90385 0.40029 0.02572 0.0
H788 H 0.88992 0.40059 0.97983 0.0
H789 H 0.91628 0.41011 0.97535 0.0
H790 H 0.91877 0.42604 0.90893 0.0
H791 H 0.89581 0.40633 0.85122 0.0
H792 H 0.43515 0.85258 0.38516 0.0
H793 H 0.43839 0.8754 0.44203 0.0
H794 H 0.50045 0.91355 0.40996 0.0
H795 H 0.49718 0.89047 0.35281 0.0
H796 H 0.49755 0.90225 0.48852 0.0
H797 H 0.44367 0.92737 0.47369 0.0
H798 H 0.43065 0.90186 0.45725 0.0
H799 H 0.45219 0.91975 0.42715 0.0
C800 C 0.44926 0.86619 0.38914 0.0
C801 C 0.46599 0.8695 0.36542 0.0
C802 C 0.45111 0.87944 0.42142 0.0
C803 C 0.46968 0.89638 0.43015 0.0
C804 C 0.486 0.90064 0.40376 0.0
H805 H 0.42385 0.89048 0.67724 0.0
H806 H 0.44921 0.91374 0.62736 0.0
C807 C 0.48415 0.88732 0.37154 0.0
C808 C 0.47263 0.90619 0.47239 0.0
H809 H 0.44212 0.91005 0.54503 0.0
C810 C 0.48602 0.90495 0.50081 0.0
C811 C 0.45851 0.9109 0.48881 0.0
C812 C 0.44566 0.91528 0.45978 0.0
C813 C 0.48268 0.90384 0.54513 0.0
C814 C 0.46543 0.90356 0.56059 0.0
C815 C 0.45487 0.90931 0.53306 0.0
C816 C 0.45473 0.89157 0.59864 0.0
C817 C 0.49622 0.90055 0.57439 0.0
C818 C 0.4498 0.87149 0.59989 0.0
C819 C 0.43517 0.85815 0.62781 0.0
C820 C 0.42501 0.86458 0.65471 0.0
C821 C 0.43106 0.88499 0.65595 0.0
C822 C 0.44574 0.89837 0.62794 0.0
H823 H 0.51199 0.91014 0.56441 0.0
H824 H 0.49456 0.90379 0.60839 0.0
H825 H 0.49271 0.88486 0.57177 0.0
H826 H 0.45603 0.86568 0.57676 0.0
H827 H 0.4308 0.84256 0.62595 0.0
H828 H 0.20826 0.51856 0.9001 0.0
H829 H 0.22317 0.51797 0.96873 0.0
H830 H 0.23892 0.47612 0.91694 0.0
H831 H 0.22434 0.4769 0.8478 0.0
H832 H 0.21317 0.48256 0.02149 0.0
H833 H 0.29185 0.52428 0.96494 0.0
H834 H 0.27182 0.52478 0.9366 0.0
H835 H 0.27481 0.50335 0.93286 0.0
C836 C 0.21509 0.5094 0.90315 0.0
C837 C 0.2153 0.49789 0.86852 0.0
C838 C 0.22342 0.50895 0.94242 0.0
C839 C 0.2322 0.49712 0.94752 0.0
C840 C 0.2323 0.48545 0.91328 0.0
H841 H 0.27355 0.46679 0.17733 0.0
H842 H 0.25492 0.46574 0.11325 0.0
C843 C 0.22389 0.48582 0.87401 0.0
C844 C 0.24143 0.49714 0.98871 0.0
H845 H 0.2863 0.51195 0.03589 0.0
C846 C 0.22915 0.48895 0.0248 0.0
C847 C 0.26226 0.50568 0.99259 0.0
C848 C 0.27605 0.51517 0.95484 0.0
C849 C 0.23724 0.48893 0.06496 0.0
C850 C 0.25805 0.49726 0.06869 0.0
C851 C 0.27032 0.50555 0.03264 0.0
C852 C 0.26756 0.49766 0.10978 0.0
C853 C 0.2236 0.48031 0.10321 0.0
C854 C 0.28065 0.51596 0.12895 0.0
C855 C 0.29123 0.51661 0.16558 0.0
C856 C 0.28902 0.49897 0.18337 0.0
C857 C 0.27539 0.48061 0.16475 0.0
C858 C 0.26476 0.47997 0.12812 0.0
H859 H 0.20851 0.47802 0.09669 0.0
H860 H 0.22205 0.46569 0.11145 0.0
H861 H 0.22994 0.49021 0.13154 0.0
H862 H 0.28292 0.52975 0.11507 0.0
H863 H 0.30133 0.53096 0.17956 0.0
H864 H 0.82032 0.26914 0.66655 0.0
H865 H 0.80678 0.25246 0.59807 0.0
H866 H 0.76835 0.27771 0.59341 0.0
H867 H 0.7815 0.29414 0.66219 0.0
H868 H 0.76589 0.22544 0.5734 0.0
H869 H 0.80155 0.29586 0.47993 0.0
H870 H 0.80931 0.29404 0.53357 0.0
H871 H 0.78737 0.29593 0.52555 0.0
C872 C 0.80874 0.27087 0.65141 0.0
C873 C 0.80211 0.28313 0.66967 0.0
C874 C 0.80115 0.26145 0.61216 0.0
C875 C 0.78692 0.26424 0.59053 0.0
C876 C 0.77968 0.27578 0.60935 0.0
H877 H 0.70467 0.20424 0.39064 0.0
H878 H 0.72285 0.21831 0.45713 0.0
C879 C 0.78721 0.28516 0.6486 0.0
C880 C 0.77967 0.25523 0.54803 0.0
H881 H 0.7768 0.26688 0.44379 0.0
C882 C 0.76842 0.23444 0.54492 0.0
C883 C 0.78336 0.26709 0.51099 0.0
C884 C 0.79621 0.28947 0.5124 0.0
C885 C 0.75989 0.22519 0.50585 0.0
C886 C 0.76262 0.23711 0.46936 0.0
C887 C 0.77467 0.25784 0.47202 0.0
C888 C 0.75189 0.22843 0.42901 0.0
C889 C 0.7478 0.20276 0.50399 0.0
C890 C 0.76232 0.22994 0.39108 0.0
C891 C 0.75195 0.22205 0.35281 0.0
C892 C 0.73107 0.21281 0.35199 0.0
C893 C 0.72077 0.21153 0.3901 0.0
C894 C 0.7311 0.21931 0.42823 0.0
H895 H 0.75164 0.19581 0.53069 0.0
H896 H 0.73175 0.19798 0.5068 0.0
H897 H 0.75012 0.19711 0.47303 0.0
H898 H 0.77842 0.23715 0.39117 0.0
H899 H 0.76024 0.22337 0.32384 0.0
H900 H 0.49436 0.77897 0.15806 0.0
H901 H 0.49852 0.76548 0.09058 0.0
H902 H 0.56231 0.80024 0.10389 0.0
H903 H 0.55838 0.81431 0.17096 0.0
H904 H 0.52376 0.79291 0.01694 0.0
H905 H 0.54653 0.73965 0.07764 0.0
H906 H 0.53193 0.74705 0.10989 0.0
H907 H 0.55781 0.76425 0.1006 0.0
C908 C 0.50929 0.78381 0.14676 0.0
C909 C 0.52604 0.79786 0.16986 0.0
C910 C 0.51161 0.77599 0.10833 0.0
C911 C 0.5307 0.78189 0.09258 0.0
C912 C 0.54747 0.79542 0.11594 0.0
H913 H 0.55959 0.7376 0.86121 0.0
H914 H 0.56307 0.7565 0.92671 0.0
C915 C 0.54517 0.80335 0.15434 0.0
C916 C 0.53292 0.7746 0.0505 0.0
H917 H 0.54327 0.74125 1.00291 0.0
C918 C 0.52815 0.78172 0.0137 0.0
C919 C 0.5389 0.76023 0.04671 0.0
C920 C 0.54405 0.7522 0.08568 0.0
C921 C 0.52881 0.77447 0.97292 0.0
C922 C 0.5339 0.7594 0.96921 0.0
C923 C 0.53934 0.75279 1.00596 0.0
C924 C 0.53227 0.74927 0.92802 0.0
C925 C 0.52401 0.78301 0.93426 0.0
C926 C 0.51382 0.739 0.9072 0.0
C927 C 0.51183 0.72837 0.86971 0.0
C928 C 0.5282 0.7276 0.85256 0.0
C929 C 0.54675 0.7381 0.87326 0.0
C930 C 0.54875 0.74879 0.91081 0.0
H931 H 0.52689 0.79832 0.94064 0.0
H932 H 0.53287 0.78342 0.90584 0.0
H933 H 0.50798 0.77357 0.92642 0.0
H934 H 0.50083 0.73885 0.92046 0.0
H935 H 0.4974 0.72066 0.85434 0.0
H936 H 0.73172 0.49572 0.67516 0.0
H937 H 0.74981 0.49811 0.60897 0.0
H938 H 0.7649 0.55939 0.59443 0.0
H939 H 0.74699 0.55712 0.66069 0.0
H940 H 0.7407 0.50637 0.52937 0.0
H941 H 0.81822 0.56259 0.57402 0.0
H942 H 0.79876 0.54994 0.6134 0.0
H943 H 0.80027 0.57037 0.58314 0.0
C944 C 0.73905 0.50973 0.65803 0.0
C945 C 0.73798 0.52623 0.67308 0.0
C946 C 0.74941 0.5111 0.62037 0.0
C947 C 0.75885 0.52899 0.59713 0.0
C948 C 0.75811 0.5456 0.61244 0.0
H949 H 0.81105 0.55163 0.33952 0.0
H950 H 0.79619 0.55452 0.40678 0.0
C951 C 0.74787 0.54427 0.65028 0.0
C952 C 0.76827 0.52977 0.5554 0.0
H953 H 0.81238 0.55291 0.50077 0.0
C954 C 0.75637 0.51654 0.52314 0.0
C955 C 0.78869 0.54316 0.54737 0.0
C956 C 0.8023 0.55721 0.5814 0.0
C957 C 0.7644 0.51621 0.4831 0.0
C958 C 0.78481 0.52942 0.47531 0.0
C959 C 0.79668 0.54293 0.50708 0.0
C960 C 0.7943 0.52826 0.43538 0.0
C961 C 0.75114 0.50164 0.4494 0.0
C962 C 0.79828 0.51269 0.42989 0.0
C963 C 0.80687 0.51109 0.39194 0.0
C964 C 0.81154 0.52499 0.35863 0.0
C965 C 0.80774 0.54076 0.36458 0.0
C966 C 0.79921 0.54241 0.40282 0.0
H967 H 0.73511 0.49468 0.45792 0.0
H968 H 0.75365 0.50919 0.41785 0.0
H969 H 0.7549 0.48966 0.44585 0.0
H970 H 0.79472 0.50177 0.45504 0.0
H971 H 0.81002 0.49904 0.38905 0.0
H972 H 0.19544 0.74566 0.15444 0.0
H973 H 0.21003 0.76399 0.08792 0.0
H974 H 0.24959 0.7401 0.08272 0.0
H975 H 0.23564 0.72223 0.14967 0.0
H976 H 0.25418 0.79229 0.07109 0.0
H977 H 0.21768 0.72608 0.96426 0.0
H978 H 0.20803 0.72672 0.01673 0.0
H979 H 0.2292 0.72332 0.01182 0.0
C980 C 0.2074 0.74447 0.13953 0.0
C981 C 0.21426 0.73233 0.1574 0.0
C982 C 0.21561 0.75486 0.1014 0.0
C983 C 0.23064 0.75311 0.08041 0.0
C984 C 0.23775 0.74132 0.09831 0.0
H985 H 0.31894 0.81485 0.89109 0.0
H986 H 0.29905 0.80009 0.95575 0.0
C987 C 0.22968 0.73106 0.1365 0.0
C988 C 0.23917 0.76372 0.03984 0.0
H989 H 0.24395 0.75582 0.93395 0.0
C990 C 0.25179 0.78441 0.04094 0.0
C991 C 0.23579 0.75332 1.00072 0.0
C992 C 0.22182 0.73114 0.99796 0.0
C993 C 0.2619 0.79492 1.00396 0.0
C994 C 0.25929 0.78436 0.96531 0.0
C995 C 0.24595 0.7638 0.96381 0.0
C996 C 0.27126 0.79413 0.92678 0.0
C997 C 0.27554 0.81715 1.00657 0.0
C998 C 0.2621 0.79537 0.88911 0.0
C999 C 0.27342 0.80374 0.85207 0.0
C1000 C 0.294 0.81068 0.8521 0.0
C1001 C 0.30308 0.80941 0.89 0.0
C1002 C 0.2918 0.8012 0.92704 0.0
H1003 H 0.27218 0.8236 0.03507 0.0
H1004 H 0.29117 0.82047 1.00917 0.0
H1005 H 0.27431 0.82458 0.97723 0.0
H1006 H 0.2462 0.78978 0.88835 0.0
H1007 H 0.26603 0.80438 0.82318 0.0
H1008 H 0.53281 0.23957 0.66812 0.0
H1009 H 0.53105 0.25441 0.60042 0.0
H1010 H 0.4672 0.21656 0.59933 0.0
H1011 H 0.46883 0.20132 0.66688 0.0
H1012 H 0.51342 0.23087 0.5226 0.0
H1013 H 0.47829 0.27471 0.57627 0.0
H1014 H 0.49103 0.26683 0.61288 0.0
H1015 H 0.46674 0.24915 0.59338 0.0
C1016 C 0.51838 0.2344 0.65357 0.0
C1017 C 0.50097 0.21916 0.67266 0.0
C1018 C 0.51741 0.24295 0.61505 0.0
C1019 C 0.49901 0.23654 0.59516 0.0
C1020 C 0.4815 0.2218 0.61462 0.0
H1021 H 0.48484 0.26231 0.32848 0.0
H1022 H 0.48184 0.24484 0.3961 0.0
C1023 C 0.48246 0.21318 0.65322 0.0
C1024 C 0.49841 0.24467 0.5529 0.0
H1025 H 0.48508 0.27517 0.50233 0.0
C1026 C 0.50712 0.24046 0.51796 0.0
C1027 C 0.49023 0.25718 0.54741 0.0
C1028 C 0.48112 0.26241 0.58441 0.0
C1029 C 0.50812 0.24872 0.47746 0.0
C1030 C 0.50007 0.26135 0.47202 0.0
C1031 C 0.49112 0.26536 0.50683 0.0
C1032 C 0.50191 0.27157 0.43106 0.0
C1033 C 0.51833 0.24443 0.44114 0.0
C1034 C 0.51408 0.29228 0.42876 0.0
C1035 C 0.51578 0.30223 0.39045 0.0
C1036 C 0.50523 0.29164 0.35382 0.0
C1037 C 0.49307 0.27083 0.35623 0.0
C1038 C 0.49142 0.26086 0.39464 0.0
H1039 H 0.52656 0.237 0.45245 0.0
H1040 H 0.507 0.23453 0.41748 0.0
H1041 H 0.52891 0.25843 0.42434 0.0
H1042 H 0.52221 0.30074 0.45672 0.0
H1043 H 0.52495 0.31829 0.38989 0.0
H1044 H 0.70575 0.51337 0.9055 0.0
H1045 H 0.72528 0.51115 0.96449 0.0
H1046 H 0.72167 0.45893 0.90672 0.0
H1047 H 0.70254 0.46143 0.84683 0.0
H1048 H 0.71744 0.48377 0.02438 0.0
H1049 H 0.78058 0.49167 0.926 0.0
H1050 H 0.76151 0.49599 0.90442 0.0
H1051 H 0.75705 0.471 0.91019 0.0
C1052 C 0.70915 0.50142 0.90518 0.0
C1053 C 0.70264 0.48765 0.87111 0.0
C1054 C 0.72032 0.50014 0.93912 0.0
C1055 C 0.72535 0.48507 0.94007 0.0
C1056 C 0.71852 0.47103 0.90647 0.0
H1057 H 0.77339 0.45994 0.17528 0.0
H1058 H 0.75142 0.45797 0.11644 0.0
C1059 C 0.70743 0.47239 0.87227 0.0
C1060 C 0.73759 0.48411 0.97635 0.0
H1061 H 0.78072 0.48406 0.9995 0.0
C1062 C 0.73127 0.48381 0.01886 0.0
C1063 C 0.75583 0.48442 0.96955 0.0
C1064 C 0.76428 0.48599 0.92513 0.0
C1065 C 0.74256 0.48385 0.05439 0.0
C1066 C 0.76057 0.4837 0.04756 0.0
C1067 C 0.76686 0.48396 1.00505 0.0
C1068 C 0.77373 0.48447 0.08375 0.0
C1069 C 0.73538 0.48476 0.09891 0.0
C1070 C 0.79381 0.49964 0.08481 0.0
C1071 C 0.80641 0.50061 0.11805 0.0
C1072 C 0.79937 0.48645 0.1514 0.0
C1073 C 0.7793 0.47118 0.15038 0.0
C1074 C 0.76666 0.47013 0.1168 0.0
H1075 H 0.72459 0.49022 0.09843 0.0
H1076 H 0.72774 0.4696 0.11306 0.0
H1077 H 0.74801 0.49465 0.12008 0.0
H1078 H 0.79975 0.51089 0.05992 0.0
H1079 H 0.82176 0.5126 0.11763 0.0
H1080 H 0.20414 0.70839 0.39656 0.0
H1081 H 0.22614 0.72748 0.45545 0.0
H1082 H 0.2735 0.72121 0.39898 0.0
H1083 H 0.25155 0.70241 0.33901 0.0
H1084 H 0.24403 0.71776 0.51554 0.0
H1085 H 0.30209 0.78025 0.42011 0.0
H1086 H 0.27848 0.76213 0.39749 0.0
H1087 H 0.29803 0.75628 0.40409 0.0
C1088 C 0.21928 0.71114 0.39638 0.0
C1089 C 0.22607 0.70391 0.36275 0.0
C1090 C 0.23187 0.72206 0.43031 0.0
C1091 C 0.25167 0.72612 0.43175 0.0
C1092 C 0.25848 0.71876 0.39836 0.0
H1093 H 0.32231 0.77111 0.67106 0.0
H1094 H 0.30291 0.74981 0.61081 0.0
C1095 C 0.24587 0.70789 0.36411 0.0
C1096 C 0.26482 0.73776 0.46863 0.0
H1097 H 0.30852 0.77993 0.49419 0.0
C1098 C 0.25816 0.73133 0.51078 0.0
C1099 C 0.2832 0.75565 0.4628 0.0
C1100 C 0.29083 0.76413 0.41873 0.0
C1101 C 0.26917 0.74223 0.54692 0.0
C1102 C 0.28771 0.75994 0.54109 0.0
C1103 C 0.29444 0.7663 0.49894 0.0
C1104 C 0.29982 0.77273 0.57799 0.0
C1105 C 0.26039 0.73502 0.59097 0.0
C1106 C 0.30513 0.79289 0.57946 0.0
C1107 C 0.3164 0.80511 0.61356 0.0
C1108 C 0.32274 0.79756 0.64733 0.0
C1109 C 0.31755 0.77739 0.64586 0.0
C1110 C 0.30633 0.76516 0.61145 0.0
H1111 H 0.24407 0.72455 0.58954 0.0
H1112 H 0.26739 0.72702 0.60571 0.0
H1113 H 0.26319 0.74767 0.61216 0.0
H1114 H 0.30039 0.79921 0.55426 0.0
H1115 H 0.3201 0.82055 0.61347 0.0
H1116 H 0.51018 0.31801 0.11613 0.0
H1117 H 0.51147 0.2974 0.05819 0.0
H1118 H 0.56584 0.30389 0.11049 0.0
H1119 H 0.56435 0.32416 0.16924 0.0
H1120 H 0.53786 0.30471 0.99536 0.0
H1121 H 0.53348 0.24434 0.09796 0.0
H1122 H 0.52899 0.26348 0.11857 0.0
H1123 H 0.55407 0.26841 0.11101 0.0
C1124 C 0.52242 0.31503 0.11544 0.0
C1125 C 0.53711 0.32269 0.14763 0.0
C1126 C 0.52315 0.30323 0.08213 0.0
C1127 C 0.53857 0.2987 0.08005 0.0
C1128 C 0.55349 0.30667 0.11173 0.0
H1129 H 0.56259 0.24879 0.84741 0.0
H1130 H 0.56432 0.27092 0.90561 0.0
C1131 C 0.55271 0.31842 0.14523 0.0
C1132 C 0.539 0.28583 0.04453 0.0
H1133 H 0.53993 0.24293 0.02402 0.0
C1134 C 0.53833 0.29121 1.00171 0.0
C1135 C 0.53931 0.26799 0.05247 0.0
C1136 C 0.5388 0.26057 0.09746 0.0
C1137 C 0.53805 0.27941 0.96692 0.0
C1138 C 0.53891 0.26186 0.97484 0.0
C1139 C 0.5395 0.25644 0.01767 0.0
C1140 C 0.53833 0.24844 0.93942 0.0
C1141 C 0.53617 0.28559 0.92205 0.0
C1142 C 0.52358 0.22819 0.93935 0.0
C1143 C 0.52273 0.21547 0.90639 0.0
C1144 C 0.53663 0.2226 0.8725 0.0
C1145 C 0.55156 0.2428 0.87278 0.0
C1146 C 0.55247 0.25553 0.90598 0.0
H1147 H 0.53015 0.29591 0.92215 0.0
H1148 H 0.55112 0.29343 0.90684 0.0
H1149 H 0.52632 0.27245 0.90205 0.0
H1150 H 0.51251 0.22223 0.96466 0.0
H1151 H 0.51102 0.20002 0.90735 0.0
H1152 H 0.32375 0.55781 0.35503 0.0
H1153 H 0.30338 0.55891 0.41417 0.0
H1154 H 0.3019 0.50766 0.47167 0.0
H1155 H 0.32251 0.50674 0.4133 0.0
H1156 H 0.26614 0.53216 0.43998 0.0
H1157 H 0.31806 0.54454 0.57341 0.0
H1158 H 0.32559 0.54713 0.51788 0.0
H1159 H 0.31246 0.52288 0.54239 0.0
C1160 C 0.31925 0.54689 0.38048 0.0
C1161 C 0.32495 0.53229 0.37947 0.0
C1162 C 0.30754 0.5475 0.41431 0.0
C1163 C 0.30131 0.53359 0.44807 0.0
C1164 C 0.30688 0.51891 0.44684 0.0
H1165 H 0.20128 0.50068 0.62186 0.0
H1166 H 0.22382 0.50308 0.56426 0.0
C1167 C 0.31861 0.51833 0.41315 0.0
C1168 C 0.28845 0.53398 0.48369 0.0
H1169 H 0.28465 0.53495 0.59313 0.0
C1170 C 0.27028 0.53289 0.47344 0.0
C1171 C 0.29385 0.53524 0.52754 0.0
C1172 C 0.31364 0.53772 0.54103 0.0
C1173 C 0.25724 0.5325 0.50553 0.0
C1174 C 0.26221 0.53281 0.54942 0.0
C1175 C 0.28063 0.53446 0.55966 0.0
C1176 C 0.24848 0.5313 0.58507 0.0
C1177 C 0.23835 0.53204 0.49194 0.0
C1178 C 0.25487 0.54601 0.61716 0.0
C1179 C 0.242 0.54457 0.65057 0.0
C1180 C 0.22243 0.52832 0.65284 0.0
C1181 C 0.21617 0.5135 0.62103 0.0
C1182 C 0.22904 0.51492 0.58776 0.0
H1183 H 0.23962 0.53793 0.45889 0.0
H1184 H 0.22588 0.51642 0.4922 0.0
H1185 H 0.23457 0.54087 0.51414 0.0
H1186 H 0.26981 0.55875 0.61614 0.0
H1187 H 0.24736 0.55624 0.67453 0.0
H1188 H 0.69446 0.19419 0.10508 0.0
H1189 H 0.71495 0.2157 0.04661 0.0
H1190 H 0.7284 0.26753 0.12212 0.0
H1191 H 0.70724 0.24596 0.18032 0.0
H1192 H 0.72213 0.27357 0.04151 0.0
H1193 H 0.77414 0.24437 0.03914 0.0
H1194 H 0.74893 0.22505 0.03039 0.0
H1195 H 0.75585 0.23804 0.08098 0.0
C1196 C 0.70175 0.21017 0.10932 0.0
C1197 C 0.69926 0.21831 0.14764 0.0
C1198 C 0.71366 0.22251 0.07585 0.0
C1199 C 0.72378 0.24337 0.08002 0.0
C1200 C 0.72095 0.25154 0.11796 0.0
H1201 H 0.82341 0.32199 0.91331 0.0
H1202 H 0.80188 0.30233 0.97264 0.0
C1203 C 0.70883 0.23917 0.15133 0.0
C1204 C 0.73711 0.25657 0.0448 0.0
H1205 H 0.77621 0.26476 0.97998 0.0
C1206 C 0.73402 0.27168 0.02825 0.0
C1207 C 0.75295 0.2545 0.02767 0.0
C1208 C 0.75832 0.23976 0.04576 0.0
C1209 C 0.74595 0.2844 0.99489 0.0
C1210 C 0.76117 0.2817 0.9764 0.0
C1211 C 0.76446 0.2668 0.99346 0.0
C1212 C 0.77421 0.29437 0.94019 0.0
C1213 C 0.74239 0.30095 0.9807 0.0
C1214 C 0.76606 0.29658 0.90162 0.0
C1215 C 0.77844 0.30813 0.86768 0.0
C1216 C 0.7993 0.31745 0.8711 0.0
C1217 C 0.80743 0.31507 0.90948 0.0
C1218 C 0.79508 0.30375 0.94353 0.0
H1219 H 0.73498 0.30492 1.00625 0.0
H1220 H 0.75656 0.31452 0.97184 0.0
H1221 H 0.73246 0.29596 0.95228 0.0
H1222 H 0.75008 0.2891 0.89736 0.0
H1223 H 0.77165 0.30943 0.83844 0.0
H1224 H 0.46865 0.76771 0.3399 0.0
H1225 H 0.46748 0.74678 0.4 0.0
H1226 H 0.50618 0.79935 0.47317 0.0
H1227 H 0.50795 0.82024 0.41271 0.0
H1228 H 0.51817 0.77381 0.4819 0.0
H1229 H 0.43678 0.7328 0.50934 0.0
H1230 H 0.44309 0.72976 0.45557 0.0
H1231 H 0.44867 0.75403 0.47401 0.0
C1232 C 0.47679 0.77481 0.36892 0.0
C1233 C 0.48834 0.79569 0.37142 0.0
C1234 C 0.47599 0.76279 0.40354 0.0
C1235 C 0.48642 0.77135 0.44186 0.0
C1236 C 0.49791 0.79224 0.44427 0.0
H1237 H 0.46904 0.70596 0.68437 0.0
H1238 H 0.46833 0.72702 0.6263 0.0
C1239 C 0.49889 0.80422 0.40957 0.0
C1240 C 0.48615 0.75872 0.47873 0.0
H1241 H 0.45542 0.72029 0.54534 0.0
C1242 C 0.50439 0.76219 0.49581 0.0
C1243 C 0.46826 0.74368 0.4978 0.0
C1244 C 0.4481 0.73997 0.48356 0.0
C1245 C 0.50529 0.751 0.53047 0.0
C1246 C 0.48743 0.73531 0.54813 0.0
C1247 C 0.46916 0.73207 0.53169 0.0
C1248 C 0.48745 0.72211 0.58339 0.0
C1249 C 0.52548 0.7565 0.54839 0.0
C1250 C 0.49804 0.71189 0.57869 0.0
C1251 C 0.49864 0.70006 0.61199 0.0
C1252 C 0.48834 0.69774 0.65075 0.0
C1253 C 0.47719 0.70744 0.65506 0.0
C1254 C 0.47677 0.71949 0.62177 0.0
H1255 H 0.53665 0.77228 0.54141 0.0
H1256 H 0.52484 0.75421 0.58365 0.0
H1257 H 0.53077 0.74706 0.53317 0.0
H1258 H 0.50589 0.71303 0.54912 0.0
H1259 H 0.50718 0.69264 0.60722 0.0
H1260 H 0.38496 0.4634 0.32996 0.0
H1261 H 0.40255 0.44463 0.32801 0.0
H1262 H 0.42272 0.46553 0.19948 0.0
H1263 H 0.40468 0.48392 0.20047 0.0
H1264 H 0.39832 0.41433 0.26446 0.0
H1265 H 0.47433 0.48076 0.27196 0.0
H1266 H 0.45233 0.48156 0.28788 0.0
H1267 H 0.45785 0.48126 0.23203 0.0
C1268 C 0.39284 0.46379 0.30093 0.0
C1269 C 0.39331 0.4752 0.26531 0.0
C1270 C 0.40302 0.45315 0.30004 0.0
C1271 C 0.41408 0.45385 0.26378 0.0
C1272 C 0.41448 0.46502 0.22802 0.0
H1273 H 0.46595 0.38061 0.19706 0.0
H1274 H 0.4467 0.3977 0.19906 0.0
C1275 C 0.4042 0.47557 0.22873 0.0
C1276 C 0.4252 0.44288 0.26346 0.0
H1277 H 0.4722 0.4495 0.26273 0.0
C1278 C 0.41447 0.42199 0.26405 0.0
C1279 C 0.44626 0.45295 0.26336 0.0
C1280 C 0.45846 0.47537 0.26409 0.0
C1281 C 0.42427 0.41088 0.26394 0.0
C1282 C 0.44532 0.42094 0.26311 0.0
C1283 C 0.45605 0.44184 0.26312 0.0
C1284 C 0.45651 0.41003 0.26249 0.0
C1285 C 0.41207 0.38846 0.26528 0.0
C1286 C 0.46852 0.41139 0.2974 0.0
C1287 C 0.47939 0.40144 0.29662 0.0
C1288 C 0.47865 0.39008 0.26066 0.0
C1289 C 0.46659 0.38882 0.22569 0.0
C1290 C 0.45563 0.39867 0.22664 0.0
H1291 H 0.39634 0.38313 0.27447 0.0
H1292 H 0.41216 0.38242 0.23303 0.0
H1293 H 0.41856 0.38236 0.28833 0.0
H1294 H 0.46941 0.4201 0.32538 0.0
H1295 H 0.48832 0.4026 0.32432 0.0
H1296 H 0.09331 0.49054 0.7972 0.0
H1297 H 0.05684 0.47234 0.79795 0.0
H1298 H 0.05641 0.42086 0.74457 0.0
H1299 H 0.09292 0.43888 0.74413 0.0
H1300 H 0.03202 0.45474 0.72182 0.0
H1301 H 0.01768 0.39931 0.85008 0.0
H1302 H 0.04118 0.42223 0.84491 0.0
H1303 H 0.03516 0.40189 0.80902 0.0
C1304 C 0.08548 0.47522 0.78638 0.0
C1305 C 0.09605 0.46614 0.77076 0.0
C1306 C 0.06464 0.4649 0.78654 0.0
C1307 C 0.05393 0.44522 0.77161 0.0
C1308 C 0.06439 0.43597 0.75668 0.0
H1309 H 0.92723 0.35939 0.74724 0.0
H1310 H 0.96371 0.37641 0.74819 0.0
C1311 C 0.08525 0.44633 0.75619 0.0
C1312 C 0.03184 0.43473 0.7698 0.0
H1313 H 0.98972 0.39568 0.81206 0.0
C1314 C 0.02274 0.44186 0.74161 0.0
C1315 C 0.01981 0.41785 0.7954 0.0
C1316 C 0.02886 0.40987 0.82685 0.0
C1317 C 1.00191 0.4324 0.7379 0.0
C1318 C 0.9898 0.41566 0.764 0.0
C1319 C 0.99896 0.4085 0.79209 0.0
C1320 C 0.96765 0.40544 0.76288 0.0
C1321 C 0.99313 0.44017 0.70522 0.0
C1322 C 0.95766 0.416 0.77129 0.0
C1323 C 0.93684 0.40633 0.77042 0.0
C1324 C 0.92552 0.38581 0.76177 0.0
C1325 C 0.93553 0.37519 0.75405 0.0
C1326 C 0.95637 0.38491 0.75455 0.0
H1327 H 1.004 0.44874 0.67947 0.0
H1328 H 0.97957 0.42784 0.69022 0.0
H1329 H 0.98896 0.45033 0.72133 0.0
H1330 H 0.96596 0.43169 0.77909 0.0
H1331 H 0.92958 0.41485 0.77748 0.0
H1332 H 0.63953 0.08887 0.19238 0.0
H1333 H 0.62202 0.05248 0.19311 0.0
H1334 H 0.5987 0.05221 0.31888 0.0
H1335 H 0.61658 0.08864 0.31907 0.0
H1336 H 0.6249 0.02612 0.25606 0.0
H1337 H 0.54883 0.0159 0.2433 0.0
H1338 H 0.57099 0.03904 0.22977 0.0
H1339 H 0.56431 0.03244 0.28498 0.0
C1340 C 0.63094 0.08115 0.22054 0.0
C1341 C 0.62953 0.0918 0.25571 0.0
C1342 C 0.62081 0.06031 0.22072 0.0
C1343 C 0.60889 0.04965 0.25582 0.0
C1344 C 0.60758 0.06015 0.29116 0.0
H1345 H 0.55793 0.92465 0.32174 0.0
H1346 H 0.57672 0.96101 0.31979 0.0
C1347 C 0.61779 0.081 0.29114 0.0
C1348 C 0.59789 0.02754 0.25549 0.0
H1349 H 0.55105 0.98687 0.25424 0.0
C1350 C 0.60876 0.01752 0.25564 0.0
C1351 C 0.57684 0.01638 0.25448 0.0
C1352 C 0.56447 0.02641 0.25278 0.0
C1353 C 0.59911 0.99661 0.25553 0.0
C1354 C 0.57805 0.98544 0.25544 0.0
C1355 C 0.56719 0.99547 0.25458 0.0
C1356 C 0.56701 0.96333 0.25614 0.0
C1357 C 0.61148 0.98658 0.25499 0.0
C1358 C 0.55513 0.95253 0.22115 0.0
C1359 C 0.5445 0.93169 0.22192 0.0
C1360 C 0.54536 0.92118 0.25794 0.0
C1361 C 0.55722 0.93213 0.29305 0.0
C1362 C 0.56793 0.95296 0.29212 0.0
H1363 H 0.6272 0.99706 0.24589 0.0
H1364 H 0.61139 0.98069 0.28749 0.0
H1365 H 0.60517 0.97385 0.23224 0.0
H1366 H 0.55419 0.96025 0.19308 0.0
H1367 H 0.53572 0.92382 0.19412 0.0
H1368 H 0.52879 0.60908 0.80981 0.0
H1369 H 0.54758 0.5915 0.8138 0.0
H1370 H 0.58928 0.6317 0.72014 0.0
H1371 H 0.57097 0.64974 0.71693 0.0
H1372 H 0.55492 0.57196 0.74796 0.0
H1373 H 0.6259 0.63225 0.81465 0.0
H1374 H 0.60316 0.63328 0.81542 0.0
H1375 H 0.61784 0.6393 0.76721 0.0
C1376 C 0.54217 0.61444 0.79067 0.0
C1377 C 0.54836 0.63088 0.76312 0.0
C1378 C 0.55281 0.60426 0.79273 0.0
C1379 C 0.56996 0.61039 0.76761 0.0
C1380 C 0.57629 0.62688 0.74036 0.0
H1381 H 0.62535 0.54036 0.69796 0.0
H1382 H 0.60728 0.55873 0.69861 0.0
C1383 C 0.56566 0.63706 0.73823 0.0
C1384 C 0.58077 0.59906 0.7686 0.0
H1385 H 0.62621 0.6036 0.78829 0.0
C1386 C 0.57049 0.57886 0.75694 0.0
C1387 C 0.60103 0.608 0.78075 0.0
C1388 C 0.61261 0.62934 0.79562 0.0
C1389 C 0.57999 0.56746 0.75637 0.0
C1390 C 0.60042 0.57658 0.76715 0.0
C1391 C 0.61061 0.59668 0.77957 0.0
C1392 C 0.61142 0.56543 0.76651 0.0
C1393 C 0.56798 0.54568 0.74491 0.0
C1394 C 0.62013 0.56344 0.80421 0.0
C1395 C 0.63049 0.55297 0.80394 0.0
C1396 C 0.6325 0.54436 0.76582 0.0
C1397 C 0.62388 0.54655 0.72798 0.0
C1398 C 0.61352 0.55703 0.7283 0.0
H1399 H 0.55172 0.53988 0.74831 0.0
H1400 H 0.57098 0.54365 0.711 0.0
H1401 H 0.57215 0.53665 0.76544 0.0
H1402 H 0.61871 0.56979 0.83406 0.0
H1403 H 0.63662 0.55134 0.83384 0.0
H1404 H 0.09439 0.65611 0.30418 0.0
H1405 H 0.05802 0.63712 0.30457 0.0
H1406 H 0.05891 0.59815 0.20698 0.0
H1407 H 0.0953 0.61644 0.20787 0.0
H1408 H 0.03043 0.62943 0.2433 0.0
H1409 H 0.02433 0.55852 0.29721 0.0
H1410 H 0.04756 0.58182 0.29816 0.0
H1411 H 0.03862 0.56804 0.24889 0.0
C1412 C 0.0869 0.64338 0.28307 0.0
C1413 C 0.0979 0.63769 0.25641 0.0
C1414 C 0.06606 0.63261 0.28312 0.0
C1415 C 0.05568 0.6159 0.25655 0.0
C1416 C 0.06655 0.61067 0.22861 0.0
H1417 H 0.9319 0.53293 0.20201 0.0
H1418 H 0.96824 0.5529 0.20404 0.0
C1419 C 0.08741 0.62136 0.22869 0.0
C1420 C 0.03352 0.60401 0.25815 0.0
H1421 H 0.99433 0.55699 0.27443 0.0
C1422 C 0.02255 0.61362 0.25039 0.0
C1423 C 0.02319 0.58337 0.26767 0.0
C1424 C 0.03401 0.57235 0.27889 0.0
C1425 C 1.00159 0.60309 0.25078 0.0
C1426 C 0.99132 0.58243 0.25955 0.0
C1427 C 1.00225 0.57284 0.26764 0.0
C1428 C 0.96922 0.57036 0.25907 0.0
C1429 C 0.99056 0.61402 0.24075 0.0
C1430 C 0.95767 0.57334 0.28976 0.0
C1431 C 0.93682 0.5619 0.28873 0.0
C1432 C 0.92715 0.54735 0.25682 0.0
C1433 C 0.93884 0.54425 0.22656 0.0
C1434 C 0.95962 0.55557 0.2278 0.0
H1435 H 1.00052 0.62897 0.22677 0.0
H1436 H 0.97819 0.60531 0.218 0.0
H1437 H 0.98402 0.61599 0.27076 0.0
H1438 H 0.9648 0.5845 0.31455 0.0
H1439 H 0.92827 0.56469 0.31242 0.0
H1440 H 0.40842 0.92947 0.69973 0.0
H1441 H 0.42594 0.96573 0.70454 0.0
H1442 H 0.39661 0.96187 0.82469 0.0
H1443 H 0.37861 0.92545 0.81982 0.0
H1444 H 0.40871 0.99089 0.71101 0.0
H1445 H 0.45678 0.99902 0.85065 0.0
H1446 H 0.44424 0.97641 0.81944 0.0
H1447 H 0.43053 0.9822 0.85764 0.0
C1448 C 0.40549 0.93626 0.72705 0.0
C1449 C 0.39198 0.92445 0.75931 0.0
C1450 C 0.41564 0.95703 0.72984 0.0
C1451 C 0.41273 0.96651 0.76513 0.0
C1452 C 0.39932 0.95485 0.7975 0.0
H1453 H 0.46692 0.09211 0.83318 0.0
H1454 H 0.44707 0.05579 0.83161 0.0
C1455 C 0.38907 0.93402 0.79468 0.0
C1456 C 0.42347 0.9886 0.7673 0.0
H1457 H 0.45892 0.02842 0.82346 0.0
C1458 C 0.41969 0.99912 0.7356 0.0
C1459 C 0.43771 0.99928 0.7995 0.0
C1460 C 0.44275 0.98873 0.83363 0.0
C1461 C 0.42967 0.02004 0.73534 0.0
C1462 C 0.44421 0.03077 0.76708 0.0
C1463 C 0.44782 0.02021 0.79909 0.0
C1464 C 0.45599 0.05292 0.76741 0.0
C1465 C 0.42424 0.03041 0.70151 0.0
C1466 C 0.46779 0.06346 0.73199 0.0
C1467 C 0.47897 0.08428 0.73253 0.0
C1468 C 0.47879 0.09506 0.76873 0.0
C1469 C 0.46714 0.08441 0.80438 0.0
C1470 C 0.45589 0.06359 0.80372 0.0
H1471 H 0.40914 0.02044 0.68829 0.0
H1472 H 0.42473 0.04396 0.71458 0.0
H1473 H 0.43504 0.03493 0.6746 0.0
H1474 H 0.46849 0.05558 0.70396 0.0
H1475 H 0.48766 0.09193 0.70441 0.0
loop_
_geom_bond_atom_site_label_1
_geom_bond_atom_site_label_2
_geom_bond_distance
_geom_bond_site_symmetry_2
_ccdc_geom_bond_type
Co0 N4 2.148 . S
Co0 N10 2.128 . S
Co0 N20 2.194 . S
Co0 O25 2.351 . S
Co0 O26 2.155 . S
Co0 O27 2.096 . S
C1 N4 1.301 . S
C1 N5 1.328 . S
C1 H6 0.930 . S
C2 C3 1.333 . S
C2 N4 1.317 . S
C2 H7 0.930 . S
C3 C2 1.333 . S
C3 N5 1.350 . S
C3 H29 0.931 . S
N4 Co0 2.148 . S
N4 C1 1.301 . S
N4 C2 1.317 . S
N5 C1 1.328 . S
N5 C3 1.350 . S
H6 C1 0.930 . S
H7 C2 0.930 . S
C8 O9 1.224 . S
C8 O27 1.247 . S
O9 C8 1.224 . S
N10 Co0 2.128 . S
N10 C11 1.355 . S
N10 C13 1.311 . S
C11 N10 1.355 . S
C11 C12 1.363 . S
C11 H23 0.929 . S
C12 C11 1.363 . S
C12 N14 1.375 . S
C12 H30 0.931 . S
C13 N10 1.311 . S
C13 N14 1.347 . S
C13 H24 0.929 . S
N14 C12 1.375 . S
N14 C13 1.347 . S
C15 C18 1.365 . S
C15 N20 1.328 . S
C15 H21 0.929 . S
C16 C17 1.362 . S
C16 C19 1.378 . S
C16 H31 0.929 . S
C17 C16 1.362 . S
C17 C18 1.366 . S
C18 C15 1.365 . S
C18 C17 1.366 . S
C18 H32 0.930 . S
C19 C16 1.378 . S
C19 N20 1.315 . S
C19 H22 0.930 . S
N20 Co0 2.194 . S
N20 C15 1.328 . S
N20 C19 1.315 . S
H21 C15 0.929 . S
H22 C19 0.930 . S
H23 C11 0.929 . S
H24 C13 0.929 . S
O25 Co0 2.351 . S
O25 C28 1.244 . S
O26 Co0 2.155 . S
O26 C28 1.240 . S
O27 Co0 2.096 . S
O27 C8 1.247 . S
C28 O25 1.244 . S
C28 O26 1.240 . S
H29 C3 0.931 . S
H30 C12 0.931 . S
H31 C16 0.929 . S
H32 C18 0.930 . S
Co33 N37 2.148 . S
Co33 N43 2.128 . S
Co33 N53 2.194 . S
Co33 O58 2.351 . S
Co33 O59 2.155 . S
Co33 O60 2.096 . S
C34 N37 1.301 . S
C34 N38 1.328 . S
C34 H39 0.930 . S
C35 C36 1.333 . S
C35 N37 1.317 . S
C35 H40 0.930 . S
C36 C35 1.333 . S
C36 N38 1.350 . S
C36 H62 0.931 . S
N37 Co33 2.148 . S
N37 C34 1.301 . S
N37 C35 1.317 . S
N38 C34 1.328 . S
N38 C36 1.350 . S
H39 C34 0.930 . S
H40 C35 0.930 . S
C41 O42 1.224 . S
C41 O60 1.247 . S
O42 C41 1.224 . S
N43 Co33 2.128 . S
N43 C44 1.355 . S
N43 C46 1.311 . S
C44 N43 1.355 . S
C44 C45 1.363 . S
C44 H56 0.929 . S
C45 C44 1.363 . S
C45 N47 1.375 . S
C45 H63 0.931 . S
C46 N43 1.311 . S
C46 N47 1.347 . S
C46 H57 0.929 . S
N47 C45 1.375 . S
N47 C46 1.347 . S
C48 C51 1.365 . S
C48 N53 1.328 . S
C48 H54 0.929 . S
C49 C50 1.362 . S
C49 C52 1.378 . S
C49 H64 0.929 . S
C50 C49 1.362 . S
C50 C51 1.366 . S
C51 C48 1.365 . S
C51 C50 1.366 . S
C51 H65 0.930 . S
C52 C49 1.378 . S
C52 N53 1.315 . S
C52 H55 0.930 . S
N53 Co33 2.194 . S
N53 C48 1.328 . S
N53 C52 1.315 . S
H54 C48 0.929 . S
H55 C52 0.930 . S
H56 C44 0.929 . S
H57 C46 0.929 . S
O58 Co33 2.351 . S
O58 C61 1.244 . S
O59 Co33 2.155 . S
O59 C61 1.240 . S
O60 Co33 2.096 . S
O60 C41 1.247 . S
C61 O58 1.244 . S
C61 O59 1.240 . S
H62 C36 0.931 . S
H63 C45 0.931 . S
H64 C49 0.929 . S
H65 C51 0.930 . S
Co66 N70 2.148 . S
Co66 N76 2.128 . S
Co66 N86 2.194 . S
Co66 O91 2.351 . S
Co66 O92 2.155 . S
Co66 O93 2.096 . S
C67 N70 1.301 . S
C67 N71 1.328 . S
C67 H72 0.930 . S
C68 C69 1.333 . S
C68 N70 1.317 . S
C68 H73 0.930 . S
C69 C68 1.333 . S
C69 N71 1.350 . S
C69 H95 0.931 . S
N70 Co66 2.148 . S
N70 C67 1.301 . S
N70 C68 1.317 . S
N71 C67 1.328 . S
N71 C69 1.350 . S
H72 C67 0.930 . S
H73 C68 0.930 . S
C74 O75 1.224 . S
C74 O93 1.247 . S
O75 C74 1.224 . S
N76 Co66 2.128 . S
N76 C77 1.355 . S
N76 C79 1.311 . S
C77 N76 1.355 . S
C77 C78 1.363 . S
C77 H89 0.929 . S
C78 C77 1.363 . S
C78 N80 1.375 . S
C78 H96 0.931 . S
C79 N76 1.311 . S
C79 N80 1.347 . S
C79 H90 0.929 . S
N80 C78 1.375 . S
N80 C79 1.347 . S
C81 C84 1.365 . S
C81 N86 1.328 . S
C81 H87 0.929 . S
C82 C83 1.362 . S
C82 C85 1.378 . S
C82 H97 0.929 . S
C83 C82 1.362 . S
C83 C84 1.366 . S
C84 C81 1.365 . S
C84 C83 1.366 . S
C84 H98 0.930 . S
C85 C82 1.378 . S
C85 N86 1.315 . S
C85 H88 0.930 . S
N86 Co66 2.194 . S
N86 C81 1.328 . S
N86 C85 1.315 . S
H87 C81 0.929 . S
H88 C85 0.930 . S
H89 C77 0.929 . S
H90 C79 0.929 . S
O91 Co66 2.351 . S
O91 C94 1.244 . S
O92 Co66 2.155 . S
O92 C94 1.240 . S
O93 Co66 2.096 . S
O93 C74 1.247 . S
C94 O91 1.244 . S
C94 O92 1.240 . S
H95 C69 0.931 . S
H96 C78 0.931 . S
H97 C82 0.929 . S
H98 C84 0.930 . S
Co99 N103 2.148 . S
Co99 N109 2.128 . S
Co99 N119 2.194 . S
Co99 O124 2.351 . S
Co99 O125 2.155 . S
Co99 O126 2.096 . S
C100 N103 1.301 . S
C100 N104 1.328 . S
C100 H105 0.930 . S
C101 C102 1.333 . S
C101 N103 1.317 . S
C101 H106 0.930 . S
C102 C101 1.333 . S
C102 N104 1.350 . S
C102 H128 0.931 . S
N103 Co99 2.148 . S
N103 C100 1.301 . S
N103 C101 1.317 . S
N104 C100 1.328 . S
N104 C102 1.350 . S
H105 C100 0.930 . S
H106 C101 0.930 . S
C107 O108 1.224 . S
C107 O126 1.247 . S
O108 C107 1.224 . S
N109 Co99 2.128 . S
N109 C110 1.355 . S
N109 C112 1.311 . S
C110 N109 1.355 . S
C110 C111 1.363 . S
C110 H122 0.929 . S
C111 C110 1.363 . S
C111 N113 1.375 . S
C111 H129 0.931 . S
C112 N109 1.311 . S
C112 N113 1.347 . S
C112 H123 0.929 . S
N113 C111 1.375 . S
N113 C112 1.347 . S
C114 C117 1.365 . S
C114 N119 1.328 . S
C114 H120 0.929 . S
C115 C116 1.362 . S
C115 C118 1.378 . S
C115 H130 0.929 . S
C116 C115 1.362 . S
C116 C117 1.366 . S
C117 C114 1.365 . S
C117 C116 1.366 . S
C117 H131 0.930 . S
C118 C115 1.378 . S
C118 N119 1.315 . S
C118 H121 0.930 . S
N119 Co99 2.194 . S
N119 C114 1.328 . S
N119 C118 1.315 . S
H120 C114 0.929 . S
H121 C118 0.930 . S
H122 C110 0.929 . S
H123 C112 0.929 . S
O124 Co99 2.351 . S
O124 C127 1.244 . S
O125 Co99 2.155 . S
O125 C127 1.240 . S
O126 Co99 2.096 . S
O126 C107 1.247 . S
C127 O124 1.244 . S
C127 O125 1.240 . S
H128 C102 0.931 . S
H129 C111 0.931 . S
H130 C115 0.929 . S
H131 C117 0.930 . S
Co132 N136 2.148 . S
Co132 N142 2.128 . S
Co132 N152 2.194 . S
Co132 O157 2.351 . S
Co132 O158 2.155 . S
Co132 O159 2.096 . S
C133 N136 1.301 . S
C133 N137 1.328 . S
C133 H138 0.930 . S
C134 C135 1.333 . S
C134 N136 1.317 . S
C134 H139 0.930 . S
C135 C134 1.333 . S
C135 N137 1.350 . S
C135 H161 0.931 . S
N136 Co132 2.148 . S
N136 C133 1.301 . S
N136 C134 1.317 . S
N137 C133 1.328 . S
N137 C135 1.350 . S
H138 C133 0.930 . S
H139 C134 0.930 . S
C140 O141 1.224 . S
C140 O159 1.247 . S
O141 C140 1.224 . S
N142 Co132 2.128 . S
N142 C143 1.355 . S
N142 C145 1.311 . S
C143 N142 1.355 . S
C143 C144 1.363 . S
C143 H155 0.929 . S
C144 C143 1.363 . S
C144 N146 1.375 . S
C144 H162 0.931 . S
C145 N142 1.311 . S
C145 N146 1.347 . S
C145 H156 0.929 . S
N146 C144 1.375 . S
N146 C145 1.347 . S
C147 C150 1.365 . S
C147 N152 1.328 . S
C147 H153 0.929 . S
C148 C149 1.362 . S
C148 C151 1.378 . S
C148 H163 0.929 . S
C149 C148 1.362 . S
C149 C150 1.366 . S
C150 C147 1.365 . S
C150 C149 1.366 . S
C150 H164 0.930 . S
C151 C148 1.378 . S
C151 N152 1.315 . S
C151 H154 0.930 . S
N152 Co132 2.194 . S
N152 C147 1.328 . S
N152 C151 1.315 . S
H153 C147 0.929 . S
H154 C151 0.930 . S
H155 C143 0.929 . S
H156 C145 0.929 . S
O157 Co132 2.351 . S
O157 C160 1.244 . S
O158 Co132 2.155 . S
O158 C160 1.240 . S
O159 Co132 2.096 . S
O159 C140 1.247 . S
C160 O157 1.244 . S
C160 O158 1.240 . S
H161 C135 0.931 . S
H162 C144 0.931 . S
H163 C148 0.929 . S
H164 C150 0.930 . S
Co165 N169 2.148 . S
Co165 N175 2.128 . S
Co165 N185 2.194 . S
Co165 O190 2.351 . S
Co165 O191 2.155 . S
Co165 O192 2.096 . S
C166 N169 1.301 . S
C166 N170 1.328 . S
C166 H171 0.930 . S
C167 C168 1.333 . S
C167 N169 1.317 . S
C167 H172 0.930 . S
C168 C167 1.333 . S
C168 N170 1.350 . S
C168 H194 0.931 . S
N169 Co165 2.148 . S
N169 C166 1.301 . S
N169 C167 1.317 . S
N170 C166 1.328 . S
N170 C168 1.350 . S
H171 C166 0.930 . S
H172 C167 0.930 . S
C173 O174 1.224 . S
C173 O192 1.247 . S
O174 C173 1.224 . S
N175 Co165 2.128 . S
N175 C176 1.355 . S
N175 C178 1.311 . S
C176 N175 1.355 . S
C176 C177 1.363 . S
C176 H188 0.929 . S
C177 C176 1.363 . S
C177 N179 1.375 . S
C177 H195 0.931 . S
C178 N175 1.311 . S
C178 N179 1.347 . S
C178 H189 0.929 . S
N179 C177 1.375 . S
N179 C178 1.347 . S
C180 C183 1.365 . S
C180 N185 1.328 . S
C180 H186 0.929 . S
C181 C182 1.362 . S
C181 C184 1.378 . S
C181 H196 0.929 . S
C182 C181 1.362 . S
C182 C183 1.366 . S
C183 C180 1.365 . S
C183 C182 1.366 . S
C183 H197 0.930 . S
C184 C181 1.378 . S
C184 N185 1.315 . S
C184 H187 0.930 . S
N185 Co165 2.194 . S
N185 C180 1.328 . S
N185 C184 1.315 . S
H186 C180 0.929 . S
H187 C184 0.930 . S
H188 C176 0.929 . S
H189 C178 0.929 . S
O190 Co165 2.351 . S
O190 C193 1.244 . S
O191 Co165 2.155 . S
O191 C193 1.240 . S
O192 Co165 2.096 . S
O192 C173 1.247 . S
C193 O190 1.244 . S
C193 O191 1.240 . S
H194 C168 0.931 . S
H195 C177 0.931 . S
H196 C181 0.929 . S
H197 C183 0.930 . S
Co198 N202 2.148 . S
Co198 N208 2.128 . S
Co198 N218 2.194 . S
Co198 O223 2.351 . S
Co198 O224 2.155 . S
Co198 O225 2.096 . S
C199 N202 1.301 . S
C199 N203 1.328 . S
C199 H204 0.930 . S
C200 C201 1.333 . S
C200 N202 1.317 . S
C200 H205 0.930 . S
C201 C200 1.333 . S
C201 N203 1.350 . S
C201 H227 0.931 . S
N202 Co198 2.148 . S
N202 C199 1.301 . S
N202 C200 1.317 . S
N203 C199 1.328 . S
N203 C201 1.350 . S
H204 C199 0.930 . S
H205 C200 0.930 . S
C206 O207 1.224 . S
C206 O225 1.247 . S
O207 C206 1.224 . S
N208 Co198 2.128 . S
N208 C209 1.355 . S
N208 C211 1.311 . S
C209 N208 1.355 . S
C209 C210 1.363 . S
C209 H221 0.929 . S
C210 C209 1.363 . S
C210 N212 1.375 . S
C210 H228 0.931 . S
C211 N208 1.311 . S
C211 N212 1.347 . S
C211 H222 0.929 . S
N212 C210 1.375 . S
N212 C211 1.347 . S
C213 C216 1.365 . S
C213 N218 1.328 . S
C213 H219 0.929 . S
C214 C215 1.362 . S
C214 C217 1.378 . S
C214 H229 0.929 . S
C215 C214 1.362 . S
C215 C216 1.366 . S
C216 C213 1.365 . S
C216 C215 1.366 . S
C216 H230 0.930 . S
C217 C214 1.378 . S
C217 N218 1.315 . S
C217 H220 0.930 . S
N218 Co198 2.194 . S
N218 C213 1.328 . S
N218 C217 1.315 . S
H219 C213 0.929 . S
H220 C217 0.930 . S
H221 C209 0.929 . S
H222 C211 0.929 . S
O223 Co198 2.351 . S
O223 C226 1.244 . S
O224 Co198 2.155 . S
O224 C226 1.240 . S
O225 Co198 2.096 . S
O225 C206 1.247 . S
C226 O223 1.244 . S
C226 O224 1.240 . S
H227 C201 0.931 . S
H228 C210 0.931 . S
H229 C214 0.929 . S
H230 C216 0.930 . S
Co231 N235 2.148 . S
Co231 N241 2.128 . S
Co231 N251 2.194 . S
Co231 O256 2.351 . S
Co231 O257 2.155 . S
Co231 O258 2.096 . S
C232 N235 1.301 . S
C232 N236 1.328 . S
C232 H237 0.930 . S
C233 C234 1.333 . S
C233 N235 1.317 . S
C233 H238 0.930 . S
C234 C233 1.333 . S
C234 N236 1.350 . S
C234 H260 0.931 . S
N235 Co231 2.148 . S
N235 C232 1.301 . S
N235 C233 1.317 . S
N236 C232 1.328 . S
N236 C234 1.350 . S
H237 C232 0.930 . S
H238 C233 0.930 . S
C239 O240 1.224 . S
C239 O258 1.247 . S
O240 C239 1.224 . S
N241 Co231 2.128 . S
N241 C242 1.355 . S
N241 C244 1.311 . S
C242 N241 1.355 . S
C242 C243 1.363 . S
C242 H254 0.929 . S
C243 C242 1.363 . S
C243 N245 1.375 . S
C243 H261 0.931 . S
C244 N241 1.311 . S
C244 N245 1.347 . S
C244 H255 0.929 . S
N245 C243 1.375 . S
N245 C244 1.347 . S
C246 C249 1.365 . S
C246 N251 1.328 . S
C246 H252 0.929 . S
C247 C248 1.362 . S
C247 C250 1.378 . S
C247 H262 0.929 . S
C248 C247 1.362 . S
C248 C249 1.366 . S
C249 C246 1.365 . S
C249 C248 1.366 . S
C249 H263 0.930 . S
C250 C247 1.378 . S
C250 N251 1.315 . S
C250 H253 0.930 . S
N251 Co231 2.194 . S
N251 C246 1.328 . S
N251 C250 1.315 . S
H252 C246 0.929 . S
H253 C250 0.930 . S
H254 C242 0.929 . S
H255 C244 0.929 . S
O256 Co231 2.351 . S
O256 C259 1.244 . S
O257 Co231 2.155 . S
O257 C259 1.240 . S
O258 Co231 2.096 . S
O258 C239 1.247 . S
C259 O256 1.244 . S
C259 O257 1.240 . S
H260 C234 0.931 . S
H261 C243 0.931 . S
H262 C247 0.929 . S
H263 C249 0.930 . S
Co264 N268 2.148 . S
Co264 N274 2.128 . S
Co264 N284 2.194 . S
Co264 O289 2.351 . S
Co264 O290 2.155 . S
Co264 O291 2.096 . S
C265 N268 1.301 . S
C265 N269 1.328 . S
C265 H270 0.930 . S
C266 C267 1.333 . S
C266 N268 1.317 . S
C266 H271 0.930 . S
C267 C266 1.333 . S
C267 N269 1.350 . S
C267 H293 0.931 . S
N268 Co264 2.148 . S
N268 C265 1.301 . S
N268 C266 1.317 . S
N269 C265 1.328 . S
N269 C267 1.350 . S
H270 C265 0.930 . S
H271 C266 0.930 . S
C272 O273 1.224 . S
C272 O291 1.247 . S
O273 C272 1.224 . S
N274 Co264 2.128 . S
N274 C275 1.355 . S
N274 C277 1.311 . S
C275 N274 1.355 . S
C275 C276 1.363 . S
C275 H287 0.929 . S
C276 C275 1.363 . S
C276 N278 1.375 . S
C276 H294 0.931 . S
C277 N274 1.311 . S
C277 N278 1.347 . S
C277 H288 0.929 . S
N278 C276 1.375 . S
N278 C277 1.347 . S
C279 C282 1.365 . S
C279 N284 1.328 . S
C279 H285 0.929 . S
C280 C281 1.362 . S
C280 C283 1.378 . S
C280 H295 0.929 . S
C281 C280 1.362 . S
C281 C282 1.366 . S
C282 C279 1.365 . S
C282 C281 1.366 . S
C282 H296 0.930 . S
C283 C280 1.378 . S
C283 N284 1.315 . S
C283 H286 0.930 . S
N284 Co264 2.194 . S
N284 C279 1.328 . S
N284 C283 1.315 . S
H285 C279 0.929 . S
H286 C283 0.930 . S
H287 C275 0.929 . S
H288 C277 0.929 . S
O289 Co264 2.351 . S
O289 C292 1.244 . S
O290 Co264 2.155 . S
O290 C292 1.240 . S
O291 Co264 2.096 . S
O291 C272 1.247 . S
C292 O289 1.244 . S
C292 O290 1.240 . S
H293 C267 0.931 . S
H294 C276 0.931 . S
H295 C280 0.929 . S
H296 C282 0.930 . S
Co297 N301 2.148 . S
Co297 N307 2.128 . S
Co297 N317 2.194 . S
Co297 O322 2.351 . S
Co297 O323 2.155 . S
Co297 O324 2.096 . S
C298 N301 1.301 . S
C298 N302 1.328 . S
C298 H303 0.930 . S
C299 C300 1.333 . S
C299 N301 1.317 . S
C299 H304 0.930 . S
C300 C299 1.333 . S
C300 N302 1.350 . S
C300 H326 0.931 . S
N301 Co297 2.148 . S
N301 C298 1.301 . S
N301 C299 1.317 . S
N302 C298 1.328 . S
N302 C300 1.350 . S
H303 C298 0.930 . S
H304 C299 0.930 . S
C305 O306 1.224 . S
C305 O324 1.247 . S
O306 C305 1.224 . S
N307 Co297 2.128 . S
N307 C308 1.355 . S
N307 C310 1.311 . S
C308 N307 1.355 . S
C308 C309 1.363 . S
C308 H320 0.929 . S
C309 C308 1.363 . S
C309 N311 1.375 . S
C309 H327 0.931 . S
C310 N307 1.311 . S
C310 N311 1.347 . S
C310 H321 0.929 . S
N311 C309 1.375 . S
N311 C310 1.347 . S
C312 C315 1.365 . S
C312 N317 1.328 . S
C312 H318 0.929 . S
C313 C314 1.362 . S
C313 C316 1.378 . S
C313 H328 0.929 . S
C314 C313 1.362 . S
C314 C315 1.366 . S
C315 C312 1.365 . S
C315 C314 1.366 . S
C315 H329 0.930 . S
C316 C313 1.378 . S
C316 N317 1.315 . S
C316 H319 0.930 . S
N317 Co297 2.194 . S
N317 C312 1.328 . S
N317 C316 1.315 . S
H318 C312 0.929 . S
H319 C316 0.930 . S
H320 C308 0.929 . S
H321 C310 0.929 . S
O322 Co297 2.351 . S
O322 C325 1.244 . S
O323 Co297 2.155 . S
O323 C325 1.240 . S
O324 Co297 2.096 . S
O324 C305 1.247 . S
C325 O322 1.244 . S
C325 O323 1.240 . S
H326 C300 0.931 . S
H327 C309 0.931 . S
H328 C313 0.929 . S
H329 C315 0.930 . S
Co330 N334 2.148 . S
Co330 N340 2.128 . S
Co330 N350 2.194 . S
Co330 O355 2.351 . S
Co330 O356 2.155 . S
Co330 O357 2.096 . S
C331 N334 1.301 . S
C331 N335 1.328 . S
C331 H336 0.930 . S
C332 C333 1.333 . S
C332 N334 1.317 . S
C332 H337 0.930 . S
C333 C332 1.333 . S
C333 N335 1.350 . S
C333 H359 0.931 . S
N334 Co330 2.148 . S
N334 C331 1.301 . S
N334 C332 1.317 . S
N335 C331 1.328 . S
N335 C333 1.350 . S
H336 C331 0.930 . S
H337 C332 0.930 . S
C338 O339 1.224 . S
C338 O357 1.247 . S
O339 C338 1.224 . S
N340 Co330 2.128 . S
N340 C341 1.355 . S
N340 C343 1.311 . S
C341 N340 1.355 . S
C341 C342 1.363 . S
C341 H353 0.929 . S
C342 C341 1.363 . S
C342 N344 1.375 . S
C342 H360 0.931 . S
C343 N340 1.311 . S
C343 N344 1.347 . S
C343 H354 0.929 . S
N344 C342 1.375 . S
N344 C343 1.347 . S
C345 C348 1.365 . S
C345 N350 1.328 . S
C345 H351 0.929 . S
C346 C347 1.362 . S
C346 C349 1.378 . S
C346 H361 0.929 . S
C347 C346 1.362 . S
C347 C348 1.366 . S
C348 C345 1.365 . S
C348 C347 1.366 . S
C348 H362 0.930 . S
C349 C346 1.378 . S
C349 N350 1.315 . S
C349 H352 0.930 . S
N350 Co330 2.194 . S
N350 C345 1.328 . S
N350 C349 1.315 . S
H351 C345 0.929 . S
H352 C349 0.930 . S
H353 C341 0.929 . S
H354 C343 0.929 . S
O355 Co330 2.351 . S
O355 C358 1.244 . S
O356 Co330 2.155 . S
O356 C358 1.240 . S
O357 Co330 2.096 . S
O357 C338 1.247 . S
C358 O355 1.244 . S
C358 O356 1.240 . S
H359 C333 0.931 . S
H360 C342 0.931 . S
H361 C346 0.929 . S
H362 C348 0.930 . S
Co363 N367 2.148 . S
Co363 N373 2.128 . S
Co363 N383 2.194 . S
Co363 O388 2.351 . S
Co363 O389 2.155 . S
Co363 O390 2.096 . S
C364 N367 1.301 . S
C364 N368 1.328 . S
C364 H369 0.930 . S
C365 C366 1.333 . S
C365 N367 1.317 . S
C365 H370 0.930 . S
C366 C365 1.333 . S
C366 N368 1.350 . S
C366 H392 0.931 . S
N367 Co363 2.148 . S
N367 C364 1.301 . S
N367 C365 1.317 . S
N368 C364 1.328 . S
N368 C366 1.350 . S
H369 C364 0.930 . S
H370 C365 0.930 . S
C371 O372 1.224 . S
C371 O390 1.247 . S
O372 C371 1.224 . S
N373 Co363 2.128 . S
N373 C374 1.355 . S
N373 C376 1.311 . S
C374 N373 1.355 . S
C374 C375 1.363 . S
C374 H386 0.929 . S
C375 C374 1.363 . S
C375 N377 1.375 . S
C375 H393 0.931 . S
C376 N373 1.311 . S
C376 N377 1.347 . S
C376 H387 0.929 . S
N377 C375 1.375 . S
N377 C376 1.347 . S
C378 C381 1.365 . S
C378 N383 1.328 . S
C378 H384 0.929 . S
C379 C380 1.362 . S
C379 C382 1.378 . S
C379 H394 0.929 . S
C380 C379 1.362 . S
C380 C381 1.366 . S
C381 C378 1.365 . S
C381 C380 1.366 . S
C381 H395 0.930 . S
C382 C379 1.378 . S
C382 N383 1.315 . S
C382 H385 0.930 . S
N383 Co363 2.194 . S
N383 C378 1.328 . S
N383 C382 1.315 . S
H384 C378 0.929 . S
H385 C382 0.930 . S
H386 C374 0.929 . S
H387 C376 0.929 . S
O388 Co363 2.351 . S
O388 C391 1.244 . S
O389 Co363 2.155 . S
O389 C391 1.240 . S
O390 Co363 2.096 . S
O390 C371 1.247 . S
C391 O388 1.244 . S
C391 O389 1.240 . S
H392 C366 0.931 . S
H393 C375 0.931 . S
H394 C379 0.929 . S
H395 C381 0.930 . S
H396 C404 0.929 . S
H397 C406 0.930 . S
H398 C408 0.930 . S
H399 C411 0.929 . S
H400 C414 0.930 . S
H401 C416 0.960 . S
H402 C416 0.960 . S
H403 C416 0.960 . S
C404 H396 0.929 . S
C404 C405 1.377 . S
C404 C406 1.384 . S
C405 C404 1.377 . S
C405 C411 1.390 . S
C406 H397 0.930 . S
C406 C404 1.384 . S
C406 C407 1.372 . S
C407 C406 1.372 . S
C407 C408 1.400 . S
C407 C412 1.490 . S
C408 H398 0.930 . S
C408 C407 1.400 . S
C408 C411 1.386 . S
H409 C425 0.930 . S
H410 C426 0.931 . S
C411 H399 0.929 . S
C411 C405 1.390 . S
C411 C408 1.386 . S
C412 C407 1.490 . S
C412 C414 1.395 . S
C412 C415 1.403 . S
H413 C419 0.930 . S
C414 H400 0.930 . S
C414 C412 1.395 . S
C414 C417 1.403 1_554 S
C415 C412 1.403 . S
C415 C416 1.524 . S
C415 C419 1.400 1_554 S
C416 H401 0.960 . S
C416 H402 0.960 . S
C416 H403 0.960 . S
C416 C415 1.524 . S
C417 C414 1.403 1_556 S
C417 C418 1.392 . S
C417 C421 1.495 . S
C418 C417 1.392 . S
C418 C419 1.385 . S
C418 C420 1.478 . S
C419 H413 0.930 . S
C419 C415 1.400 1_556 S
C419 C418 1.385 . S
C420 C418 1.478 . S
C420 C422 1.381 . S
C420 C426 1.383 . S
C421 C417 1.495 . S
C421 H427 0.959 . S
C421 H428 0.961 . S
C421 H429 0.960 . S
C422 C420 1.381 . S
C422 C423 1.394 . S
C422 H430 0.930 . S
C423 C422 1.394 . S
C423 C424 1.383 . S
C423 H431 0.929 . S
C424 C423 1.383 . S
C424 C425 1.377 . S
C425 H409 0.930 . S
C425 C424 1.377 . S
C425 C426 1.379 . S
C426 H410 0.931 . S
C426 C420 1.383 . S
C426 C425 1.379 . S
H427 C421 0.959 . S
H428 C421 0.961 . S
H429 C421 0.960 . S
H430 C422 0.930 . S
H431 C423 0.929 . S
H432 C440 0.929 . S
H433 C442 0.930 . S
H434 C444 0.930 . S
H435 C447 0.929 . S
H436 C450 0.930 . S
H437 C452 0.960 . S
H438 C452 0.960 . S
H439 C452 0.960 . S
C440 H432 0.929 . S
C440 C441 1.377 . S
C440 C442 1.384 . S
C441 C440 1.377 . S
C441 C447 1.390 . S
C442 H433 0.930 . S
C442 C440 1.384 . S
C442 C443 1.372 . S
C443 C442 1.372 . S
C443 C444 1.400 . S
C443 C448 1.490 . S
C444 H434 0.930 . S
C444 C443 1.400 . S
C444 C447 1.386 . S
H445 C461 0.930 . S
H446 C462 0.931 . S
C447 H435 0.929 . S
C447 C441 1.390 . S
C447 C444 1.386 . S
C448 C443 1.490 . S
C448 C450 1.395 . S
C448 C451 1.403 . S
H449 C455 0.930 . S
C450 H436 0.930 . S
C450 C448 1.395 . S
C450 C453 1.403 . S
C451 C448 1.403 . S
C451 C452 1.524 . S
C451 C455 1.400 . S
C452 H437 0.960 . S
C452 H438 0.960 . S
C452 H439 0.960 . S
C452 C451 1.524 . S
C453 C450 1.403 . S
C453 C454 1.392 . S
C453 C457 1.495 . S
C454 C453 1.392 . S
C454 C455 1.385 . S
C454 C456 1.478 . S
C455 H449 0.930 . S
C455 C451 1.400 . S
C455 C454 1.385 . S
C456 C454 1.478 . S
C456 C458 1.381 . S
C456 C462 1.383 . S
C457 C453 1.495 . S
C457 H463 0.959 . S
C457 H464 0.961 . S
C457 H465 0.960 . S
C458 C456 1.381 . S
C458 C459 1.394 . S
C458 H466 0.930 . S
C459 C458 1.394 . S
C459 C460 1.383 . S
C459 H467 0.929 . S
C460 C459 1.383 . S
C460 C461 1.377 . S
C461 H445 0.930 . S
C461 C460 1.377 . S
C461 C462 1.379 . S
C462 H446 0.931 . S
C462 C456 1.383 . S
C462 C461 1.379 . S
H463 C457 0.959 . S
H464 C457 0.961 . S
H465 C457 0.960 . S
H466 C458 0.930 . S
H467 C459 0.929 . S
H468 C476 0.929 . S
H469 C478 0.930 . S
H470 C480 0.930 . S
H471 C483 0.929 . S
H472 C486 0.930 . S
H473 C488 0.960 . S
H474 C488 0.960 . S
H475 C488 0.960 1_554 S
C476 H468 0.929 . S
C476 C477 1.377 . S
C476 C478 1.384 . S
C477 C476 1.377 . S
C477 C483 1.390 . S
C478 H469 0.930 . S
C478 C476 1.384 . S
C478 C479 1.372 . S
C479 C478 1.372 . S
C479 C480 1.400 . S
C479 C484 1.490 . S
C480 H470 0.930 . S
C480 C479 1.400 . S
C480 C483 1.386 . S
H481 C497 0.930 . S
H482 C498 0.931 . S
C483 H471 0.929 . S
C483 C477 1.390 . S
C483 C480 1.386 . S
C484 C479 1.490 . S
C484 C486 1.395 . S
C484 C487 1.410 . S
H485 C491 0.930 . S
C486 H472 0.930 . S
C486 C484 1.395 . S
C486 C489 1.407 . S
C487 C484 1.410 . S
C487 C488 1.523 1_554 S
C487 C491 1.393 1_554 S
C488 H473 0.960 . S
C488 H474 0.960 . S
C488 H475 0.960 1_556 S
C488 C487 1.523 1_556 S
C489 C486 1.407 . S
C489 C490 1.389 1_554 S
C489 C493 1.495 . S
C490 C489 1.389 1_556 S
C490 C491 1.385 . S
C490 C492 1.478 . S
C491 H485 0.930 . S
C491 C487 1.393 1_556 S
C491 C490 1.385 . S
C492 C490 1.478 . S
C492 C494 1.381 . S
C492 C498 1.383 . S
C493 C489 1.495 . S
C493 H499 0.959 . S
C493 H500 0.961 . S
C493 H501 0.960 1_554 S
C494 C492 1.381 . S
C494 C495 1.394 . S
C494 H502 0.930 . S
C495 C494 1.394 . S
C495 C496 1.383 . S
C495 H503 0.929 . S
C496 C495 1.383 . S
C496 C497 1.377 . S
C497 H481 0.930 . S
C497 C496 1.377 . S
C497 C498 1.379 . S
C498 H482 0.931 . S
C498 C492 1.383 . S
C498 C497 1.379 . S
H499 C493 0.959 . S
H500 C493 0.961 . S
H501 C493 0.960 1_556 S
H502 C494 0.930 . S
H503 C495 0.929 . S
H504 C512 0.929 . S
H505 C514 0.930 . S
H506 C516 0.930 . S
H507 C519 0.929 . S
H508 C522 0.930 . S
H509 C524 0.960 . S
H510 C524 0.960 . S
H511 C524 0.960 . S
C512 H504 0.929 . S
C512 C513 1.377 . S
C512 C514 1.384 . S
C513 C512 1.377 . S
C513 C519 1.390 . S
C514 H505 0.930 . S
C514 C512 1.384 . S
C514 C515 1.372 . S
C515 C514 1.372 . S
C515 C516 1.400 . S
C515 C520 1.490 . S
C516 H506 0.930 . S
C516 C515 1.400 . S
C516 C519 1.386 . S
H517 C533 0.930 . S
H518 C534 0.931 . S
C519 H507 0.929 . S
C519 C513 1.390 . S
C519 C516 1.386 . S
C520 C515 1.490 . S
C520 C522 1.395 . S
C520 C523 1.403 . S
H521 C527 0.930 . S
C522 H508 0.930 . S
C522 C520 1.395 . S
C522 C525 1.403 . S
C523 C520 1.403 . S
C523 C524 1.524 . S
C523 C527 1.400 . S
C524 H509 0.960 . S
C524 H510 0.960 . S
C524 H511 0.960 . S
C524 C523 1.524 . S
C525 C522 1.403 . S
C525 C526 1.392 . S
C525 C529 1.495 . S
C526 C525 1.392 . S
C526 C527 1.385 . S
C526 C528 1.478 . S
C527 H521 0.930 . S
C527 C523 1.400 . S
C527 C526 1.385 . S
C528 C526 1.478 . S
C528 C530 1.381 . S
C528 C534 1.383 . S
C529 C525 1.495 . S
C529 H535 0.959 . S
C529 H536 0.961 . S
C529 H537 0.960 . S
C530 C528 1.381 . S
C530 C531 1.394 . S
C530 H538 0.930 . S
C531 C530 1.394 . S
C531 C532 1.383 . S
C531 H539 0.929 . S
C532 C531 1.383 . S
C532 C533 1.377 . S
C533 H517 0.930 . S
C533 C532 1.377 . S
C533 C534 1.379 . S
C534 H518 0.931 . S
C534 C528 1.383 . S
C534 C533 1.379 . S
H535 C529 0.959 . S
H536 C529 0.961 . S
H537 C529 0.960 . S
H538 C530 0.930 . S
H539 C531 0.929 . S
H540 C548 0.929 . S
H541 C550 0.930 . S
H542 C552 0.930 . S
H543 C555 0.929 . S
H544 C558 0.930 . S
H545 C560 0.960 . S
H546 C560 0.960 . S
H547 C560 0.960 . S
C548 H540 0.929 . S
C548 C549 1.377 . S
C548 C550 1.384 . S
C549 C548 1.377 . S
C549 C555 1.390 . S
C550 H541 0.930 . S
C550 C548 1.384 . S
C550 C551 1.372 . S
C551 C550 1.372 . S
C551 C552 1.400 . S
C551 C556 1.490 . S
C552 H542 0.930 . S
C552 C551 1.400 . S
C552 C555 1.386 . S
H553 C569 0.930 . S
H554 C570 0.931 . S
C555 H543 0.929 . S
C555 C549 1.390 . S
C555 C552 1.386 . S
C556 C551 1.490 . S
C556 C558 1.395 . S
C556 C559 1.403 . S
H557 C563 0.930 . S
C558 H544 0.930 . S
C558 C556 1.395 . S
C558 C561 1.403 1_554 S
C559 C556 1.403 . S
C559 C560 1.524 . S
C559 C563 1.400 1_554 S
C560 H545 0.960 . S
C560 H546 0.960 . S
C560 H547 0.960 . S
C560 C559 1.524 . S
C561 C558 1.403 1_556 S
C561 C562 1.392 . S
C561 C565 1.495 . S
C562 C561 1.392 . S
C562 C563 1.385 . S
C562 C564 1.478 . S
C563 H557 0.930 . S
C563 C559 1.400 1_556 S
C563 C562 1.385 . S
C564 C562 1.478 . S
C564 C566 1.381 . S
C564 C570 1.383 . S
C565 C561 1.495 . S
C565 H571 0.959 . S
C565 H572 0.961 . S
C565 H573 0.960 . S
C566 C564 1.381 . S
C566 C567 1.394 . S
C566 H574 0.930 . S
C567 C566 1.394 . S
C567 C568 1.383 . S
C567 H575 0.929 . S
C568 C567 1.383 . S
C568 C569 1.377 . S
C569 H553 0.930 . S
C569 C568 1.377 . S
C569 C570 1.379 . S
C570 H554 0.931 . S
C570 C564 1.383 . S
C570 C569 1.379 . S
H571 C565 0.959 . S
H572 C565 0.961 . S
H573 C565 0.960 . S
H574 C566 0.930 . S
H575 C567 0.929 . S
H576 C584 0.929 . S
H577 C586 0.930 . S
H578 C588 0.930 . S
H579 C591 0.929 . S
H580 C594 0.930 . S
H581 C596 0.960 . S
H582 C596 0.960 . S
H583 C596 0.960 . S
C584 H576 0.929 . S
C584 C585 1.377 . S
C584 C586 1.384 . S
C585 C584 1.377 . S
C585 C591 1.390 . S
C586 H577 0.930 . S
C586 C584 1.384 . S
C586 C587 1.372 . S
C587 C586 1.372 . S
C587 C588 1.400 . S
C587 C592 1.490 . S
C588 H578 0.930 . S
C588 C587 1.400 . S
C588 C591 1.386 . S
H589 C605 0.930 . S
H590 C606 0.931 . S
C591 H579 0.929 . S
C591 C585 1.390 . S
C591 C588 1.386 . S
C592 C587 1.490 . S
C592 C594 1.395 . S
C592 C595 1.403 . S
H593 C599 0.930 . S
C594 H580 0.930 . S
C594 C592 1.395 . S
C594 C597 1.403 . S
C595 C592 1.403 . S
C595 C596 1.524 . S
C595 C599 1.400 . S
C596 H581 0.960 . S
C596 H582 0.960 . S
C596 H583 0.960 . S
C596 C595 1.524 . S
C597 C594 1.403 . S
C597 C598 1.392 . S
C597 C601 1.495 . S
C598 C597 1.392 . S
C598 C599 1.385 . S
C598 C600 1.478 . S
C599 H593 0.930 . S
C599 C595 1.400 . S
C599 C598 1.385 . S
C600 C598 1.478 . S
C600 C602 1.381 . S
C600 C606 1.383 . S
C601 C597 1.495 . S
C601 H607 0.959 . S
C601 H608 0.961 . S
C601 H609 0.960 . S
C602 C600 1.381 . S
C602 C603 1.394 . S
C602 H610 0.930 . S
C603 C602 1.394 . S
C603 C604 1.383 . S
C603 H611 0.929 . S
C604 C603 1.383 . S
C604 C605 1.377 . S
C605 H589 0.930 . S
C605 C604 1.377 . S
C605 C606 1.379 . S
C606 H590 0.931 . S
C606 C600 1.383 . S
C606 C605 1.379 . S
H607 C601 0.959 . S
H608 C601 0.961 . S
H609 C601 0.960 . S
H610 C602 0.930 . S
H611 C603 0.929 . S
H612 C620 0.929 . S
H613 C622 0.930 . S
H614 C624 0.930 . S
H615 C627 0.929 . S
H616 C630 0.930 . S
H617 C632 0.960 . S
H618 C632 0.960 . S
H619 C632 0.960 . S
C620 H612 0.929 . S
C620 C621 1.377 . S
C620 C622 1.384 . S
C621 C620 1.377 . S
C621 C627 1.390 . S
C622 H613 0.930 . S
C622 C620 1.384 . S
C622 C623 1.372 . S
C623 C622 1.372 . S
C623 C624 1.400 . S
C623 C628 1.490 . S
C624 H614 0.930 . S
C624 C623 1.400 . S
C624 C627 1.386 . S
H625 C641 0.930 . S
H626 C642 0.931 . S
C627 H615 0.929 . S
C627 C621 1.390 . S
C627 C624 1.386 . S
C628 C623 1.490 . S
C628 C630 1.395 . S
C628 C631 1.403 . S
H629 C635 0.930 . S
C630 H616 0.930 . S
C630 C628 1.395 . S
C630 C633 1.403 1_554 S
C631 C628 1.403 . S
C631 C632 1.524 . S
C631 C635 1.400 1_554 S
C632 H617 0.960 . S
C632 H618 0.960 . S
C632 H619 0.960 . S
C632 C631 1.524 . S
C633 C630 1.403 1_556 S
C633 C634 1.392 . S
C633 C637 1.495 . S
C634 C633 1.392 . S
C634 C635 1.385 . S
C634 C636 1.478 . S
C635 H629 0.930 . S
C635 C631 1.400 1_556 S
C635 C634 1.385 . S
C636 C634 1.478 . S
C636 C638 1.381 . S
C636 C642 1.383 . S
C637 C633 1.495 . S
C637 H643 0.959 . S
C637 H644 0.961 . S
C637 H645 0.960 . S
C638 C636 1.381 . S
C638 C639 1.394 . S
C638 H646 0.930 . S
C639 C638 1.394 . S
C639 C640 1.383 . S
C639 H647 0.929 . S
C640 C639 1.383 . S
C640 C641 1.377 . S
C641 H625 0.930 . S
C641 C640 1.377 . S
C641 C642 1.379 . S
C642 H626 0.931 . S
C642 C636 1.383 . S
C642 C641 1.379 . S
H643 C637 0.959 . S
H644 C637 0.961 . S
H645 C637 0.960 . S
H646 C638 0.930 . S
H647 C639 0.929 . S
H648 C656 0.929 . S
H649 C658 0.930 . S
H650 C660 0.930 . S
H651 C663 0.929 . S
H652 C666 0.930 . S
H653 C668 0.960 . S
H654 C668 0.960 . S
H655 C668 0.960 . S
C656 H648 0.929 . S
C656 C657 1.377 . S
C656 C658 1.384 . S
C657 C656 1.377 . S
C657 C663 1.390 . S
C658 H649 0.930 . S
C658 C656 1.384 . S
C658 C659 1.372 . S
C659 C658 1.372 . S
C659 C660 1.400 . S
C659 C664 1.490 . S
C660 H650 0.930 . S
C660 C659 1.400 . S
C660 C663 1.386 . S
H661 C677 0.930 . S
H662 C678 0.931 . S
C663 H651 0.929 . S
C663 C657 1.390 . S
C663 C660 1.386 . S
C664 C659 1.490 . S
C664 C666 1.395 . S
C664 C667 1.403 . S
H665 C671 0.930 . S
C666 H652 0.930 . S
C666 C664 1.395 . S
C666 C669 1.403 . S
C667 C664 1.403 . S
C667 C668 1.524 . S
C667 C671 1.400 . S
C668 H653 0.960 . S
C668 H654 0.960 . S
C668 H655 0.960 . S
C668 C667 1.524 . S
C669 C666 1.403 . S
C669 C670 1.392 . S
C669 C673 1.495 . S
C670 C669 1.392 . S
C670 C671 1.385 . S
C670 C672 1.478 . S
C671 H665 0.930 . S
C671 C667 1.400 . S
C671 C670 1.385 . S
C672 C670 1.478 . S
C672 C674 1.381 . S
C672 C678 1.383 . S
C673 C669 1.495 . S
C673 H679 0.959 . S
C673 H680 0.961 . S
C673 H681 0.960 . S
C674 C672 1.381 . S
C674 C675 1.394 . S
C674 H682 0.930 . S
C675 C674 1.394 . S
C675 C676 1.383 . S
C675 H683 0.929 . S
C676 C675 1.383 . S
C676 C677 1.377 . S
C677 H661 0.930 . S
C677 C676 1.377 . S
C677 C678 1.379 . S
C678 H662 0.931 . S
C678 C672 1.383 . S
C678 C677 1.379 . S
H679 C673 0.959 . S
H680 C673 0.961 . S
H681 C673 0.960 . S
H682 C674 0.930 . S
H683 C675 0.929 . S
H684 C692 0.929 . S
H685 C694 0.930 . S
H686 C696 0.930 . S
H687 C699 0.929 . S
H688 C702 0.930 . S
H689 C704 0.960 . S
H690 C704 0.960 . S
H691 C704 0.960 . S
C692 H684 0.929 . S
C692 C693 1.377 . S
C692 C694 1.384 . S
C693 C692 1.377 . S
C693 C699 1.390 . S
C694 H685 0.930 . S
C694 C692 1.384 . S
C694 C695 1.372 . S
C695 C694 1.372 . S
C695 C696 1.400 . S
C695 C700 1.490 . S
C696 H686 0.930 . S
C696 C695 1.400 . S
C696 C699 1.386 . S
H697 C713 0.930 . S
H698 C714 0.931 . S
C699 H687 0.929 . S
C699 C693 1.390 . S
C699 C696 1.386 . S
C700 C695 1.490 . S
C700 C702 1.395 1_554 S
C700 C703 1.403 . S
H701 C707 0.930 . S
C702 H688 0.930 . S
C702 C700 1.395 1_556 S
C702 C705 1.403 . S
C703 C700 1.403 . S
C703 C704 1.524 . S
C703 C707 1.400 . S
C704 H689 0.960 . S
C704 H690 0.960 . S
C704 H691 0.960 . S
C704 C703 1.524 . S
C705 C702 1.403 . S
C705 C706 1.392 . S
C705 C709 1.495 . S
C706 C705 1.392 . S
C706 C707 1.385 1_556 S
C706 C708 1.478 . S
C707 H701 0.930 . S
C707 C703 1.400 . S
C707 C706 1.385 1_554 S
C708 C706 1.478 . S
C708 C710 1.381 . S
C708 C714 1.383 . S
C709 C705 1.495 . S
C709 H715 0.959 . S
C709 H716 0.961 . S
C709 H717 0.960 . S
C710 C708 1.381 . S
C710 C711 1.394 . S
C710 H718 0.930 . S
C711 C710 1.394 . S
C711 C712 1.383 . S
C711 H719 0.929 . S
C712 C711 1.383 . S
C712 C713 1.377 . S
C713 H697 0.930 . S
C713 C712 1.377 . S
C713 C714 1.379 . S
C714 H698 0.931 . S
C714 C708 1.383 . S
C714 C713 1.379 . S
H715 C709 0.959 . S
H716 C709 0.961 . S
H717 C709 0.960 . S
H718 C710 0.930 . S
H719 C711 0.929 . S
H720 C728 0.929 . S
H721 C730 0.930 . S
H722 C732 0.930 . S
H723 C735 0.929 . S
H724 C738 0.930 . S
H725 C740 0.960 . S
H726 C740 0.960 . S
H727 C740 0.960 . S
C728 H720 0.929 . S
C728 C729 1.377 . S
C728 C730 1.384 . S
C729 C728 1.377 . S
C729 C735 1.390 . S
C730 H721 0.930 . S
C730 C728 1.384 . S
C730 C731 1.372 . S
C731 C730 1.372 . S
C731 C732 1.400 . S
C731 C736 1.490 . S
C732 H722 0.930 . S
C732 C731 1.400 . S
C732 C735 1.386 . S
H733 C749 0.930 . S
H734 C750 0.931 . S
C735 H723 0.929 . S
C735 C729 1.390 . S
C735 C732 1.386 . S
C736 C731 1.490 . S
C736 C738 1.395 . S
C736 C739 1.403 . S
H737 C743 0.930 . S
C738 H724 0.930 . S
C738 C736 1.395 . S
C738 C741 1.403 . S
C739 C736 1.403 . S
C739 C740 1.524 . S
C739 C743 1.400 . S
C740 H725 0.960 . S
C740 H726 0.960 . S
C740 H727 0.960 . S
C740 C739 1.524 . S
C741 C738 1.403 . S
C741 C742 1.392 . S
C741 C745 1.495 . S
C742 C741 1.392 . S
C742 C743 1.385 . S
C742 C744 1.478 . S
C743 H737 0.930 . S
C743 C739 1.400 . S
C743 C742 1.385 . S
C744 C742 1.478 . S
C744 C746 1.381 . S
C744 C750 1.383 . S
C745 C741 1.495 . S
C745 H751 0.959 . S
C745 H752 0.961 . S
C745 H753 0.960 . S
C746 C744 1.381 . S
C746 C747 1.394 . S
C746 H754 0.930 . S
C747 C746 1.394 . S
C747 C748 1.383 . S
C747 H755 0.929 . S
C748 C747 1.383 . S
C748 C749 1.377 . S
C749 H733 0.930 . S
C749 C748 1.377 . S
C749 C750 1.379 . S
C750 H734 0.931 . S
C750 C744 1.383 . S
C750 C749 1.379 . S
H751 C745 0.959 . S
H752 C745 0.961 . S
H753 C745 0.960 . S
H754 C746 0.930 . S
H755 C747 0.929 . S
H756 C764 0.929 . S
H757 C766 0.930 . S
H758 C768 0.930 . S
H759 C771 0.929 . S
H760 C774 0.930 . S
H761 C776 0.960 . S
H762 C776 0.960 . S
H763 C776 0.960 . S
C764 H756 0.929 . S
C764 C765 1.377 . S
C764 C766 1.384 . S
C765 C764 1.377 . S
C765 C771 1.390 . S
C766 H757 0.930 . S
C766 C764 1.384 . S
C766 C767 1.372 . S
C767 C766 1.372 . S
C767 C768 1.400 . S
C767 C772 1.490 . S
C768 H758 0.930 . S
C768 C767 1.400 . S
C768 C771 1.386 . S
H769 C785 0.930 . S
H770 C786 0.931 . S
C771 H759 0.929 . S
C771 C765 1.390 . S
C771 C768 1.386 . S
C772 C767 1.490 . S
C772 C774 1.395 . S
C772 C775 1.403 1_554 S
H773 C779 0.930 . S
C774 H760 0.930 . S
C774 C772 1.395 . S
C774 C777 1.403 . S
C775 C772 1.403 1_556 S
C775 C776 1.524 . S
C775 C779 1.400 . S
C776 H761 0.960 . S
C776 H762 0.960 . S
C776 H763 0.960 . S
C776 C775 1.524 . S
C777 C774 1.403 . S
C777 C778 1.392 1_554 S
C777 C781 1.495 . S
C778 C777 1.392 1_556 S
C778 C779 1.385 . S
C778 C780 1.478 . S
C779 H773 0.930 . S
C779 C775 1.400 . S
C779 C778 1.385 . S
C780 C778 1.478 . S
C780 C782 1.381 . S
C780 C786 1.383 . S
C781 C777 1.495 . S
C781 H787 0.959 . S
C781 H788 0.961 . S
C781 H789 0.960 . S
C782 C780 1.381 . S
C782 C783 1.394 . S
C782 H790 0.930 . S
C783 C782 1.394 . S
C783 C784 1.383 . S
C783 H791 0.929 . S
C784 C783 1.383 . S
C784 C785 1.377 . S
C785 H769 0.930 . S
C785 C784 1.377 . S
C785 C786 1.379 . S
C786 H770 0.931 . S
C786 C780 1.383 . S
C786 C785 1.379 . S
H787 C781 0.959 . S
H788 C781 0.961 . S
H789 C781 0.960 . S
H790 C782 0.930 . S
H791 C783 0.929 . S
H792 C800 0.929 . S
H793 C802 0.930 . S
H794 C804 0.930 . S
H795 C807 0.929 . S
H796 C810 0.930 . S
H797 C812 0.960 . S
H798 C812 0.960 . S
H799 C812 0.960 . S
C800 H792 0.929 . S
C800 C801 1.377 . S
C800 C802 1.384 . S
C801 C800 1.377 . S
C801 C807 1.390 . S
C802 H793 0.930 . S
C802 C800 1.384 . S
C802 C803 1.372 . S
C803 C802 1.372 . S
C803 C804 1.400 . S
C803 C808 1.490 . S
C804 H794 0.930 . S
C804 C803 1.400 . S
C804 C807 1.386 . S
H805 C821 0.930 . S
H806 C822 0.931 . S
C807 H795 0.929 . S
C807 C801 1.390 . S
C807 C804 1.386 . S
C808 C803 1.490 . S
C808 C810 1.395 . S
C808 C811 1.403 . S
H809 C815 0.930 . S
C810 H796 0.930 . S
C810 C808 1.395 . S
C810 C813 1.403 . S
C811 C808 1.403 . S
C811 C812 1.524 . S
C811 C815 1.400 . S
C812 H797 0.960 . S
C812 H798 0.960 . S
C812 H799 0.960 . S
C812 C811 1.524 . S
C813 C810 1.403 . S
C813 C814 1.392 . S
C813 C817 1.495 . S
C814 C813 1.392 . S
C814 C815 1.385 . S
C814 C816 1.478 . S
C815 H809 0.930 . S
C815 C811 1.400 . S
C815 C814 1.385 . S
C816 C814 1.478 . S
C816 C818 1.381 . S
C816 C822 1.383 . S
C817 C813 1.495 . S
C817 H823 0.959 . S
C817 H824 0.961 . S
C817 H825 0.960 . S
C818 C816 1.381 . S
C818 C819 1.394 . S
C818 H826 0.930 . S
C819 C818 1.394 . S
C819 C820 1.383 . S
C819 H827 0.929 . S
C820 C819 1.383 . S
C820 C821 1.377 . S
C821 H805 0.930 . S
C821 C820 1.377 . S
C821 C822 1.379 . S
C822 H806 0.931 . S
C822 C816 1.383 . S
C822 C821 1.379 . S
H823 C817 0.959 . S
H824 C817 0.961 . S
H825 C817 0.960 . S
H826 C818 0.930 . S
H827 C819 0.929 . S
H828 C836 0.929 . S
H829 C838 0.930 . S
H830 C840 0.930 . S
H831 C843 0.929 . S
H832 C846 0.930 . S
H833 C848 0.960 . S
H834 C848 0.960 . S
H835 C848 0.960 . S
C836 H828 0.929 . S
C836 C837 1.377 . S
C836 C838 1.384 . S
C837 C836 1.377 . S
C837 C843 1.390 . S
C838 H829 0.930 . S
C838 C836 1.384 . S
C838 C839 1.372 . S
C839 C838 1.372 . S
C839 C840 1.400 . S
C839 C844 1.490 . S
C840 H830 0.930 . S
C840 C839 1.400 . S
C840 C843 1.386 . S
H841 C857 0.930 . S
H842 C858 0.931 . S
C843 H831 0.929 . S
C843 C837 1.390 . S
C843 C840 1.386 . S
C844 C839 1.490 . S
C844 C846 1.395 1_556 S
C844 C847 1.403 . S
H845 C851 0.930 . S
C846 H832 0.930 . S
C846 C844 1.395 1_554 S
C846 C849 1.403 . S
C847 C844 1.403 . S
C847 C848 1.524 . S
C847 C851 1.400 . S
C848 H833 0.960 . S
C848 H834 0.960 . S
C848 H835 0.960 . S
C848 C847 1.524 . S
C849 C846 1.403 . S
C849 C850 1.392 . S
C849 C853 1.495 . S
C850 C849 1.392 . S
C850 C851 1.385 1_554 S
C850 C852 1.478 . S
C851 H845 0.930 . S
C851 C847 1.400 . S
C851 C850 1.385 1_556 S
C852 C850 1.478 . S
C852 C854 1.381 . S
C852 C858 1.383 . S
C853 C849 1.495 . S
C853 H859 0.959 . S
C853 H860 0.961 . S
C853 H861 0.960 . S
C854 C852 1.381 . S
C854 C855 1.394 . S
C854 H862 0.930 . S
C855 C854 1.394 . S
C855 C856 1.383 . S
C855 H863 0.929 . S
C856 C855 1.383 . S
C856 C857 1.377 . S
C857 H841 0.930 . S
C857 C856 1.377 . S
C857 C858 1.379 . S
C858 H842 0.931 . S
C858 C852 1.383 . S
C858 C857 1.379 . S
H859 C853 0.959 . S
H860 C853 0.961 . S
H861 C853 0.960 . S
H862 C854 0.930 . S
H863 C855 0.929 . S
H864 C872 0.929 . S
H865 C874 0.930 . S
H866 C876 0.930 . S
H867 C879 0.929 . S
H868 C882 0.930 . S
H869 C884 0.960 . S
H870 C884 0.960 . S
H871 C884 0.960 . S
C872 H864 0.929 . S
C872 C873 1.377 . S
C872 C874 1.384 . S
C873 C872 1.377 . S
C873 C879 1.390 . S
C874 H865 0.930 . S
C874 C872 1.384 . S
C874 C875 1.372 . S
C875 C874 1.372 . S
C875 C876 1.400 . S
C875 C880 1.490 . S
C876 H866 0.930 . S
C876 C875 1.400 . S
C876 C879 1.386 . S
H877 C893 0.930 . S
H878 C894 0.931 . S
C879 H867 0.929 . S
C879 C873 1.390 . S
C879 C876 1.386 . S
C880 C875 1.490 . S
C880 C882 1.395 . S
C880 C883 1.403 . S
H881 C887 0.930 . S
C882 H868 0.930 . S
C882 C880 1.395 . S
C882 C885 1.403 . S
C883 C880 1.403 . S
C883 C884 1.524 . S
C883 C887 1.400 . S
C884 H869 0.960 . S
C884 H870 0.960 . S
C884 H871 0.960 . S
C884 C883 1.524 . S
C885 C882 1.403 . S
C885 C886 1.392 . S
C885 C889 1.495 . S
C886 C885 1.392 . S
C886 C887 1.385 . S
C886 C888 1.478 . S
C887 H881 0.930 . S
C887 C883 1.400 . S
C887 C886 1.385 . S
C888 C886 1.478 . S
C888 C890 1.381 . S
C888 C894 1.383 . S
C889 C885 1.495 . S
C889 H895 0.959 . S
C889 H896 0.961 . S
C889 H897 0.960 . S
C890 C888 1.381 . S
C890 C891 1.394 . S
C890 H898 0.930 . S
C891 C890 1.394 . S
C891 C892 1.383 . S
C891 H899 0.929 . S
C892 C891 1.383 . S
C892 C893 1.377 . S
C893 H877 0.930 . S
C893 C892 1.377 . S
C893 C894 1.379 . S
C894 H878 0.931 . S
C894 C888 1.383 . S
C894 C893 1.379 . S
H895 C889 0.959 . S
H896 C889 0.961 . S
H897 C889 0.960 . S
H898 C890 0.930 . S
H899 C891 0.929 . S
H900 C908 0.929 . S
H901 C910 0.930 . S
H902 C912 0.930 . S
H903 C915 0.929 . S
H904 C918 0.930 . S
H905 C920 0.960 . S
H906 C920 0.960 . S
H907 C920 0.960 . S
C908 H900 0.929 . S
C908 C909 1.377 . S
C908 C910 1.384 . S
C909 C908 1.377 . S
C909 C915 1.390 . S
C910 H901 0.930 . S
C910 C908 1.384 . S
C910 C911 1.372 . S
C911 C910 1.372 . S
C911 C912 1.400 . S
C911 C916 1.490 . S
C912 H902 0.930 . S
C912 C911 1.400 . S
C912 C915 1.386 . S
H913 C929 0.930 . S
H914 C930 0.931 . S
C915 H903 0.929 . S
C915 C909 1.390 . S
C915 C912 1.386 . S
C916 C911 1.490 . S
C916 C918 1.395 1_554 S
C916 C919 1.403 . S
H917 C923 0.930 . S
C918 H904 0.930 . S
C918 C916 1.395 1_556 S
C918 C921 1.403 . S
C919 C916 1.403 . S
C919 C920 1.524 . S
C919 C923 1.400 . S
C920 H905 0.960 . S
C920 H906 0.960 . S
C920 H907 0.960 . S
C920 C919 1.524 . S
C921 C918 1.403 . S
C921 C922 1.392 . S
C921 C925 1.495 . S
C922 C921 1.392 . S
C922 C923 1.385 1_556 S
C922 C924 1.478 . S
C923 H917 0.930 . S
C923 C919 1.400 . S
C923 C922 1.385 1_554 S
C924 C922 1.478 . S
C924 C926 1.381 . S
C924 C930 1.383 . S
C925 C921 1.495 . S
C925 H931 0.959 . S
C925 H932 0.961 . S
C925 H933 0.960 . S
C926 C924 1.381 . S
C926 C927 1.394 . S
C926 H934 0.930 . S
C927 C926 1.394 . S
C927 C928 1.383 . S
C927 H935 0.929 . S
C928 C927 1.383 . S
C928 C929 1.377 . S
C929 H913 0.930 . S
C929 C928 1.377 . S
C929 C930 1.379 . S
C930 H914 0.931 . S
C930 C924 1.383 . S
C930 C929 1.379 . S
H931 C925 0.959 . S
H932 C925 0.961 . S
H933 C925 0.960 . S
H934 C926 0.930 . S
H935 C927 0.929 . S
H936 C944 0.929 . S
H937 C946 0.930 . S
H938 C948 0.930 . S
H939 C951 0.929 . S
H940 C954 0.930 . S
H941 C956 0.960 . S
H942 C956 0.960 . S
H943 C956 0.960 . S
C944 H936 0.929 . S
C944 C945 1.377 . S
C944 C946 1.384 . S
C945 C944 1.377 . S
C945 C951 1.390 . S
C946 H937 0.930 . S
C946 C944 1.384 . S
C946 C947 1.372 . S
C947 C946 1.372 . S
C947 C948 1.400 . S
C947 C952 1.490 . S
C948 H938 0.930 . S
C948 C947 1.400 . S
C948 C951 1.386 . S
H949 C965 0.930 . S
H950 C966 0.931 . S
C951 H939 0.929 . S
C951 C945 1.390 . S
C951 C948 1.386 . S
C952 C947 1.490 . S
C952 C954 1.395 . S
C952 C955 1.403 . S
H953 C959 0.930 . S
C954 H940 0.930 . S
C954 C952 1.395 . S
C954 C957 1.403 . S
C955 C952 1.403 . S
C955 C956 1.524 . S
C955 C959 1.400 . S
C956 H941 0.960 . S
C956 H942 0.960 . S
C956 H943 0.960 . S
C956 C955 1.524 . S
C957 C954 1.403 . S
C957 C958 1.392 . S
C957 C961 1.495 . S
C958 C957 1.392 . S
C958 C959 1.385 . S
C958 C960 1.478 . S
C959 H953 0.930 . S
C959 C955 1.400 . S
C959 C958 1.385 . S
C960 C958 1.478 . S
C960 C962 1.381 . S
C960 C966 1.383 . S
C961 C957 1.495 . S
C961 H967 0.959 . S
C961 H968 0.961 . S
C961 H969 0.960 . S
C962 C960 1.381 . S
C962 C963 1.394 . S
C962 H970 0.930 . S
C963 C962 1.394 . S
C963 C964 1.383 . S
C963 H971 0.929 . S
C964 C963 1.383 . S
C964 C965 1.377 . S
C965 H949 0.930 . S
C965 C964 1.377 . S
C965 C966 1.379 . S
C966 H950 0.931 . S
C966 C960 1.383 . S
C966 C965 1.379 . S
H967 C961 0.959 . S
H968 C961 0.961 . S
H969 C961 0.960 . S
H970 C962 0.930 . S
H971 C963 0.929 . S
H972 C980 0.929 . S
H973 C982 0.930 . S
H974 C984 0.930 . S
H975 C987 0.929 . S
H976 C990 0.930 . S
H977 C992 0.960 . S
H978 C992 0.960 . S
H979 C992 0.960 1_554 S
C980 H972 0.929 . S
C980 C981 1.377 . S
C980 C982 1.384 . S
C981 C980 1.377 . S
C981 C987 1.390 . S
C982 H973 0.930 . S
C982 C980 1.384 . S
C982 C983 1.372 . S
C983 C982 1.372 . S
C983 C984 1.400 . S
C983 C988 1.490 . S
C984 H974 0.930 . S
C984 C983 1.400 . S
C984 C987 1.386 . S
H985 C1001 0.930 . S
H986 C1002 0.931 . S
C987 H975 0.929 . S
C987 C981 1.390 . S
C987 C984 1.386 . S
C988 C983 1.490 . S
C988 C990 1.395 . S
C988 C991 1.403 1_554 S
H989 C995 0.930 . S
C990 H976 0.930 . S
C990 C988 1.395 . S
C990 C993 1.403 . S
C991 C988 1.403 1_556 S
C991 C992 1.524 . S
C991 C995 1.400 . S
C992 H977 0.960 . S
C992 H978 0.960 . S
C992 H979 0.960 1_556 S
C992 C991 1.524 . S
C993 C990 1.403 . S
C993 C994 1.392 1_554 S
C993 C997 1.495 . S
C994 C993 1.392 1_556 S
C994 C995 1.385 . S
C994 C996 1.478 . S
C995 H989 0.930 . S
C995 C991 1.400 . S
C995 C994 1.385 . S
C996 C994 1.478 . S
C996 C998 1.381 . S
C996 C1002 1.383 . S
C997 C993 1.495 . S
C997 H1003 0.959 . S
C997 H1004 0.961 . S
C997 H1005 0.960 1_554 S
C998 C996 1.381 . S
C998 C999 1.394 . S
C998 H1006 0.930 . S
C999 C998 1.394 . S
C999 C1000 1.383 . S
C999 H1007 0.929 . S
C1000 C999 1.383 . S
C1000 C1001 1.377 . S
C1001 H985 0.930 . S
C1001 C1000 1.377 . S
C1001 C1002 1.379 . S
C1002 H986 0.931 . S
C1002 C996 1.383 . S
C1002 C1001 1.379 . S
H1003 C997 0.959 . S
H1004 C997 0.961 . S
H1005 C997 0.960 1_556 S
H1006 C998 0.930 . S
H1007 C999 0.929 . S
H1008 C1016 0.929 . S
H1009 C1018 0.930 . S
H1010 C1020 0.930 . S
H1011 C1023 0.929 . S
H1012 C1026 0.930 . S
H1013 C1028 0.960 . S
H1014 C1028 0.960 . S
H1015 C1028 0.960 . S
C1016 H1008 0.929 . S
C1016 C1017 1.377 . S
C1016 C1018 1.384 . S
C1017 C1016 1.377 . S
C1017 C1023 1.390 . S
C1018 H1009 0.930 . S
C1018 C1016 1.384 . S
C1018 C1019 1.372 . S
C1019 C1018 1.372 . S
C1019 C1020 1.400 . S
C1019 C1024 1.490 . S
C1020 H1010 0.930 . S
C1020 C1019 1.400 . S
C1020 C1023 1.386 . S
H1021 C1037 0.930 . S
H1022 C1038 0.931 . S
C1023 H1011 0.929 . S
C1023 C1017 1.390 . S
C1023 C1020 1.386 . S
C1024 C1019 1.490 . S
C1024 C1026 1.395 . S
C1024 C1027 1.403 . S
H1025 C1031 0.930 . S
C1026 H1012 0.930 . S
C1026 C1024 1.395 . S
C1026 C1029 1.403 . S
C1027 C1024 1.403 . S
C1027 C1028 1.524 . S
C1027 C1031 1.400 . S
C1028 H1013 0.960 . S
C1028 H1014 0.960 . S
C1028 H1015 0.960 . S
C1028 C1027 1.524 . S
C1029 C1026 1.403 . S
C1029 C1030 1.392 . S
C1029 C1033 1.495 . S
C1030 C1029 1.392 . S
C1030 C1031 1.385 . S
C1030 C1032 1.478 . S
C1031 H1025 0.930 . S
C1031 C1027 1.400 . S
C1031 C1030 1.385 . S
C1032 C1030 1.478 . S
C1032 C1034 1.381 . S
C1032 C1038 1.383 . S
C1033 C1029 1.495 . S
C1033 H1039 0.959 . S
C1033 H1040 0.961 . S
C1033 H1041 0.960 . S
C1034 C1032 1.381 . S
C1034 C1035 1.394 . S
C1034 H1042 0.930 . S
C1035 C1034 1.394 . S
C1035 C1036 1.383 . S
C1035 H1043 0.929 . S
C1036 C1035 1.383 . S
C1036 C1037 1.377 . S
C1037 H1021 0.930 . S
C1037 C1036 1.377 . S
C1037 C1038 1.379 . S
C1038 H1022 0.931 . S
C1038 C1032 1.383 . S
C1038 C1037 1.379 . S
H1039 C1033 0.959 . S
H1040 C1033 0.961 . S
H1041 C1033 0.960 . S
H1042 C1034 0.930 . S
H1043 C1035 0.929 . S
H1044 C1052 0.929 . S
H1045 C1054 0.930 . S
H1046 C1056 0.930 . S
H1047 C1059 0.929 . S
H1048 C1062 0.930 . S
H1049 C1064 0.960 . S
H1050 C1064 0.960 . S
H1051 C1064 0.960 . S
C1052 H1044 0.929 . S
C1052 C1053 1.377 . S
C1052 C1054 1.384 . S
C1053 C1052 1.377 . S
C1053 C1059 1.390 . S
C1054 H1045 0.930 . S
C1054 C1052 1.384 . S
C1054 C1055 1.372 . S
C1055 C1054 1.372 . S
C1055 C1056 1.400 . S
C1055 C1060 1.490 . S
C1056 H1046 0.930 . S
C1056 C1055 1.400 . S
C1056 C1059 1.386 . S
H1057 C1073 0.930 . S
H1058 C1074 0.931 . S
C1059 H1047 0.929 . S
C1059 C1053 1.390 . S
C1059 C1056 1.386 . S
C1060 C1055 1.490 . S
C1060 C1062 1.395 1_556 S
C1060 C1063 1.403 . S
H1061 C1067 0.930 . S
C1062 H1048 0.930 . S
C1062 C1060 1.395 1_554 S
C1062 C1065 1.403 . S
C1063 C1060 1.403 . S
C1063 C1064 1.524 . S
C1063 C1067 1.400 1_556 S
C1064 H1049 0.960 . S
C1064 H1050 0.960 . S
C1064 H1051 0.960 . S
C1064 C1063 1.524 . S
C1065 C1062 1.403 . S
C1065 C1066 1.392 . S
C1065 C1069 1.495 . S
C1066 C1065 1.392 . S
C1066 C1067 1.385 . S
C1066 C1068 1.478 . S
C1067 H1061 0.930 . S
C1067 C1063 1.400 1_554 S
C1067 C1066 1.385 . S
C1068 C1066 1.478 . S
C1068 C1070 1.381 . S
C1068 C1074 1.383 . S
C1069 C1065 1.495 . S
C1069 H1075 0.959 . S
C1069 H1076 0.961 . S
C1069 H1077 0.960 . S
C1070 C1068 1.381 . S
C1070 C1071 1.394 . S
C1070 H1078 0.930 . S
C1071 C1070 1.394 . S
C1071 C1072 1.383 . S
C1071 H1079 0.929 . S
C1072 C1071 1.383 . S
C1072 C1073 1.377 . S
C1073 H1057 0.930 . S
C1073 C1072 1.377 . S
C1073 C1074 1.379 . S
C1074 H1058 0.931 . S
C1074 C1068 1.383 . S
C1074 C1073 1.379 . S
H1075 C1069 0.959 . S
H1076 C1069 0.961 . S
H1077 C1069 0.960 . S
H1078 C1070 0.930 . S
H1079 C1071 0.929 . S
H1080 C1088 0.929 . S
H1081 C1090 0.930 . S
H1082 C1092 0.930 . S
H1083 C1095 0.929 . S
H1084 C1098 0.930 . S
H1085 C1100 0.960 . S
H1086 C1100 0.960 . S
H1087 C1100 0.960 . S
C1088 H1080 0.929 . S
C1088 C1089 1.377 . S
C1088 C1090 1.384 . S
C1089 C1088 1.377 . S
C1089 C1095 1.390 . S
C1090 H1081 0.930 . S
C1090 C1088 1.384 . S
C1090 C1091 1.372 . S
C1091 C1090 1.372 . S
C1091 C1092 1.400 . S
C1091 C1096 1.490 . S
C1092 H1082 0.930 . S
C1092 C1091 1.400 . S
C1092 C1095 1.386 . S
H1093 C1109 0.930 . S
H1094 C1110 0.931 . S
C1095 H1083 0.929 . S
C1095 C1089 1.390 . S
C1095 C1092 1.386 . S
C1096 C1091 1.490 . S
C1096 C1098 1.395 . S
C1096 C1099 1.403 . S
H1097 C1103 0.930 . S
C1098 H1084 0.930 . S
C1098 C1096 1.395 . S
C1098 C1101 1.403 . S
C1099 C1096 1.403 . S
C1099 C1100 1.524 . S
C1099 C1103 1.400 . S
C1100 H1085 0.960 . S
C1100 H1086 0.960 . S
C1100 H1087 0.960 . S
C1100 C1099 1.524 . S
C1101 C1098 1.403 . S
C1101 C1102 1.392 . S
C1101 C1105 1.495 . S
C1102 C1101 1.392 . S
C1102 C1103 1.385 . S
C1102 C1104 1.478 . S
C1103 H1097 0.930 . S
C1103 C1099 1.400 . S
C1103 C1102 1.385 . S
C1104 C1102 1.478 . S
C1104 C1106 1.381 . S
C1104 C1110 1.383 . S
C1105 C1101 1.495 . S
C1105 H1111 0.959 . S
C1105 H1112 0.961 . S
C1105 H1113 0.960 . S
C1106 C1104 1.381 . S
C1106 C1107 1.394 . S
C1106 H1114 0.930 . S
C1107 C1106 1.394 . S
C1107 C1108 1.383 . S
C1107 H1115 0.929 . S
C1108 C1107 1.383 . S
C1108 C1109 1.377 . S
C1109 H1093 0.930 . S
C1109 C1108 1.377 . S
C1109 C1110 1.379 . S
C1110 H1094 0.931 . S
C1110 C1104 1.383 . S
C1110 C1109 1.379 . S
H1111 C1105 0.959 . S
H1112 C1105 0.961 . S
H1113 C1105 0.960 . S
H1114 C1106 0.930 . S
H1115 C1107 0.929 . S
H1116 C1124 0.929 . S
H1117 C1126 0.930 . S
H1118 C1128 0.930 . S
H1119 C1131 0.929 . S
H1120 C1134 0.931 . S
H1121 C1136 0.960 . S
H1122 C1136 0.960 . S
H1123 C1136 0.960 . S
C1124 H1116 0.929 . S
C1124 C1125 1.377 . S
C1124 C1126 1.384 . S
C1125 C1124 1.377 . S
C1125 C1131 1.390 . S
C1126 H1117 0.930 . S
C1126 C1124 1.384 . S
C1126 C1127 1.372 . S
C1127 C1126 1.372 . S
C1127 C1128 1.400 . S
C1127 C1132 1.490 . S
C1128 H1118 0.930 . S
C1128 C1127 1.400 . S
C1128 C1131 1.386 . S
H1129 C1145 0.930 . S
H1130 C1146 0.931 . S
C1131 H1119 0.929 . S
C1131 C1125 1.390 . S
C1131 C1128 1.386 . S
C1132 C1127 1.490 . S
C1132 C1134 1.402 . S
C1132 C1135 1.403 . S
H1133 C1139 0.930 . S
C1134 H1120 0.931 . S
C1134 C1132 1.402 . S
C1134 C1137 1.395 1_554 S
C1135 C1132 1.403 . S
C1135 C1136 1.524 . S
C1135 C1139 1.400 1_554 S
C1136 H1121 0.960 . S
C1136 H1122 0.960 . S
C1136 H1123 0.960 . S
C1136 C1135 1.524 . S
C1137 C1134 1.395 1_556 S
C1137 C1138 1.392 . S
C1137 C1141 1.495 . S
C1138 C1137 1.392 . S
C1138 C1139 1.385 . S
C1138 C1140 1.478 . S
C1139 H1133 0.930 . S
C1139 C1135 1.400 1_556 S
C1139 C1138 1.385 . S
C1140 C1138 1.478 . S
C1140 C1142 1.381 . S
C1140 C1146 1.383 . S
C1141 C1137 1.495 . S
C1141 H1147 0.959 . S
C1141 H1148 0.961 . S
C1141 H1149 0.960 . S
C1142 C1140 1.381 . S
C1142 C1143 1.394 . S
C1142 H1150 0.930 . S
C1143 C1142 1.394 . S
C1143 C1144 1.383 . S
C1143 H1151 0.929 . S
C1144 C1143 1.383 . S
C1144 C1145 1.377 . S
C1145 H1129 0.930 . S
C1145 C1144 1.377 . S
C1145 C1146 1.379 . S
C1146 H1130 0.931 . S
C1146 C1140 1.383 . S
C1146 C1145 1.379 . S
H1147 C1141 0.959 . S
H1148 C1141 0.961 . S
H1149 C1141 0.960 . S
H1150 C1142 0.930 . S
H1151 C1143 0.929 . S
H1152 C1160 0.929 . S
H1153 C1162 0.930 . S
H1154 C1164 0.930 . S
H1155 C1167 0.929 . S
H1156 C1170 0.930 . S
H1157 C1172 0.960 . S
H1158 C1172 0.960 . S
H1159 C1172 0.960 . S
C1160 H1152 0.929 . S
C1160 C1161 1.377 . S
C1160 C1162 1.384 . S
C1161 C1160 1.377 . S
C1161 C1167 1.390 . S
C1162 H1153 0.930 . S
C1162 C1160 1.384 . S
C1162 C1163 1.372 . S
C1163 C1162 1.372 . S
C1163 C1164 1.400 . S
C1163 C1168 1.490 . S
C1164 H1154 0.930 . S
C1164 C1163 1.400 . S
C1164 C1167 1.386 . S
H1165 C1181 0.930 . S
H1166 C1182 0.931 . S
C1167 H1155 0.929 . S
C1167 C1161 1.390 . S
C1167 C1164 1.386 . S
C1168 C1163 1.490 . S
C1168 C1170 1.395 . S
C1168 C1171 1.403 . S
H1169 C1175 0.930 . S
C1170 H1156 0.930 . S
C1170 C1168 1.395 . S
C1170 C1173 1.403 . S
C1171 C1168 1.403 . S
C1171 C1172 1.524 . S
C1171 C1175 1.400 . S
C1172 H1157 0.960 . S
C1172 H1158 0.960 . S
C1172 H1159 0.960 . S
C1172 C1171 1.524 . S
C1173 C1170 1.403 . S
C1173 C1174 1.392 . S
C1173 C1177 1.495 . S
C1174 C1173 1.392 . S
C1174 C1175 1.385 . S
C1174 C1176 1.478 . S
C1175 H1169 0.930 . S
C1175 C1171 1.400 . S
C1175 C1174 1.385 . S
C1176 C1174 1.478 . S
C1176 C1178 1.381 . S
C1176 C1182 1.383 . S
C1177 C1173 1.495 . S
C1177 H1183 0.959 . S
C1177 H1184 0.961 . S
C1177 H1185 0.960 . S
C1178 C1176 1.381 . S
C1178 C1179 1.394 . S
C1178 H1186 0.930 . S
C1179 C1178 1.394 . S
C1179 C1180 1.383 . S
C1179 H1187 0.929 . S
C1180 C1179 1.383 . S
C1180 C1181 1.377 . S
C1181 H1165 0.930 . S
C1181 C1180 1.377 . S
C1181 C1182 1.379 . S
C1182 H1166 0.931 . S
C1182 C1176 1.383 . S
C1182 C1181 1.379 . S
H1183 C1177 0.959 . S
H1184 C1177 0.961 . S
H1185 C1177 0.960 . S
H1186 C1178 0.930 . S
H1187 C1179 0.929 . S
H1188 C1196 0.929 . S
H1189 C1198 0.930 . S
H1190 C1200 0.930 . S
H1191 C1203 0.929 . S
H1192 C1206 0.930 . S
H1193 C1208 0.960 . S
H1194 C1208 0.960 . S
H1195 C1208 0.960 . S
C1196 H1188 0.929 . S
C1196 C1197 1.377 . S
C1196 C1198 1.384 . S
C1197 C1196 1.377 . S
C1197 C1203 1.390 . S
C1198 H1189 0.930 . S
C1198 C1196 1.384 . S
C1198 C1199 1.372 . S
C1199 C1198 1.372 . S
C1199 C1200 1.400 . S
C1199 C1204 1.490 . S
C1200 H1190 0.930 . S
C1200 C1199 1.400 . S
C1200 C1203 1.386 . S
H1201 C1217 0.930 . S
H1202 C1218 0.931 . S
C1203 H1191 0.929 . S
C1203 C1197 1.390 . S
C1203 C1200 1.386 . S
C1204 C1199 1.490 . S
C1204 C1206 1.395 . S
C1204 C1207 1.403 . S
H1205 C1211 0.930 . S
C1206 H1192 0.930 . S
C1206 C1204 1.395 . S
C1206 C1209 1.403 1_554 S
C1207 C1204 1.403 . S
C1207 C1208 1.524 . S
C1207 C1211 1.400 1_554 S
C1208 H1193 0.960 . S
C1208 H1194 0.960 . S
C1208 H1195 0.960 . S
C1208 C1207 1.524 . S
C1209 C1206 1.403 1_556 S
C1209 C1210 1.392 . S
C1209 C1213 1.495 . S
C1210 C1209 1.392 . S
C1210 C1211 1.385 . S
C1210 C1212 1.478 . S
C1211 H1205 0.930 . S
C1211 C1207 1.400 1_556 S
C1211 C1210 1.385 . S
C1212 C1210 1.478 . S
C1212 C1214 1.381 . S
C1212 C1218 1.383 . S
C1213 C1209 1.495 . S
C1213 H1219 0.959 . S
C1213 H1220 0.961 . S
C1213 H1221 0.960 . S
C1214 C1212 1.381 . S
C1214 C1215 1.394 . S
C1214 H1222 0.930 . S
C1215 C1214 1.394 . S
C1215 C1216 1.383 . S
C1215 H1223 0.929 . S
C1216 C1215 1.383 . S
C1216 C1217 1.377 . S
C1217 H1201 0.930 . S
C1217 C1216 1.377 . S
C1217 C1218 1.379 . S
C1218 H1202 0.931 . S
C1218 C1212 1.383 . S
C1218 C1217 1.379 . S
H1219 C1213 0.959 . S
H1220 C1213 0.961 . S
H1221 C1213 0.960 . S
H1222 C1214 0.930 . S
H1223 C1215 0.929 . S
H1224 C1232 0.929 . S
H1225 C1234 0.930 . S
H1226 C1236 0.930 . S
H1227 C1239 0.929 . S
H1228 C1242 0.930 . S
H1229 C1244 0.960 . S
H1230 C1244 0.960 . S
H1231 C1244 0.960 . S
C1232 H1224 0.929 . S
C1232 C1233 1.377 . S
C1232 C1234 1.384 . S
C1233 C1232 1.377 . S
C1233 C1239 1.390 . S
C1234 H1225 0.930 . S
C1234 C1232 1.384 . S
C1234 C1235 1.372 . S
C1235 C1234 1.372 . S
C1235 C1236 1.400 . S
C1235 C1240 1.490 . S
C1236 H1226 0.930 . S
C1236 C1235 1.400 . S
C1236 C1239 1.386 . S
H1237 C1253 0.930 . S
H1238 C1254 0.931 . S
C1239 H1227 0.929 . S
C1239 C1233 1.390 . S
C1239 C1236 1.386 . S
C1240 C1235 1.490 . S
C1240 C1242 1.395 . S
C1240 C1243 1.403 . S
H1241 C1247 0.930 . S
C1242 H1228 0.930 . S
C1242 C1240 1.395 . S
C1242 C1245 1.403 . S
C1243 C1240 1.403 . S
C1243 C1244 1.524 . S
C1243 C1247 1.400 . S
C1244 H1229 0.960 . S
C1244 H1230 0.960 . S
C1244 H1231 0.960 . S
C1244 C1243 1.524 . S
C1245 C1242 1.403 . S
C1245 C1246 1.392 . S
C1245 C1249 1.495 . S
C1246 C1245 1.392 . S
C1246 C1247 1.385 . S
C1246 C1248 1.478 . S
C1247 H1241 0.930 . S
C1247 C1243 1.400 . S
C1247 C1246 1.385 . S
C1248 C1246 1.478 . S
C1248 C1250 1.381 . S
C1248 C1254 1.383 . S
C1249 C1245 1.495 . S
C1249 H1255 0.959 . S
C1249 H1256 0.961 . S
C1249 H1257 0.960 . S
C1250 C1248 1.381 . S
C1250 C1251 1.394 . S
C1250 H1258 0.930 . S
C1251 C1250 1.394 . S
C1251 C1252 1.383 . S
C1251 H1259 0.929 . S
C1252 C1251 1.383 . S
C1252 C1253 1.377 . S
C1253 H1237 0.930 . S
C1253 C1252 1.377 . S
C1253 C1254 1.379 . S
C1254 H1238 0.931 . S
C1254 C1248 1.383 . S
C1254 C1253 1.379 . S
H1255 C1249 0.959 . S
H1256 C1249 0.961 . S
H1257 C1249 0.960 . S
H1258 C1250 0.930 . S
H1259 C1251 0.929 . S
H1260 C1268 0.929 . S
H1261 C1270 0.930 . S
H1262 C1272 0.930 . S
H1263 C1275 0.929 . S
H1264 C1278 0.930 . S
H1265 C1280 0.960 . S
H1266 C1280 0.960 . S
H1267 C1280 0.960 . S
C1268 H1260 0.929 . S
C1268 C1269 1.377 . S
C1268 C1270 1.384 . S
C1269 C1268 1.377 . S
C1269 C1275 1.390 . S
C1270 H1261 0.930 . S
C1270 C1268 1.384 . S
C1270 C1271 1.372 . S
C1271 C1270 1.372 . S
C1271 C1272 1.400 . S
C1271 C1276 1.490 . S
C1272 H1262 0.930 . S
C1272 C1271 1.400 . S
C1272 C1275 1.386 . S
H1273 C1289 0.930 . S
H1274 C1290 0.931 . S
C1275 H1263 0.929 . S
C1275 C1269 1.390 . S
C1275 C1272 1.386 . S
C1276 C1271 1.490 . S
C1276 C1278 1.395 . S
C1276 C1279 1.403 . S
H1277 C1283 0.930 . S
C1278 H1264 0.930 . S
C1278 C1276 1.395 . S
C1278 C1281 1.403 . S
C1279 C1276 1.403 . S
C1279 C1280 1.524 . S
C1279 C1283 1.400 . S
C1280 H1265 0.960 . S
C1280 H1266 0.960 . S
C1280 H1267 0.960 . S
C1280 C1279 1.524 . S
C1281 C1278 1.403 . S
C1281 C1282 1.392 . S
C1281 C1285 1.495 . S
C1282 C1281 1.392 . S
C1282 C1283 1.385 . S
C1282 C1284 1.478 . S
C1283 H1277 0.930 . S
C1283 C1279 1.400 . S
C1283 C1282 1.385 . S
C1284 C1282 1.478 . S
C1284 C1286 1.381 . S
C1284 C1290 1.383 . S
C1285 C1281 1.495 . S
C1285 H1291 0.959 . S
C1285 H1292 0.961 . S
C1285 H1293 0.960 . S
C1286 C1284 1.381 . S
C1286 C1287 1.394 . S
C1286 H1294 0.930 . S
C1287 C1286 1.394 . S
C1287 C1288 1.383 . S
C1287 H1295 0.929 . S
C1288 C1287 1.383 . S
C1288 C1289 1.377 . S
C1289 H1273 0.930 . S
C1289 C1288 1.377 . S
C1289 C1290 1.379 . S
C1290 H1274 0.931 . S
C1290 C1284 1.383 . S
C1290 C1289 1.379 . S
H1291 C1285 0.959 . S
H1292 C1285 0.961 . S
H1293 C1285 0.960 . S
H1294 C1286 0.930 . S
H1295 C1287 0.929 . S
H1296 C1304 0.929 . S
H1297 C1306 0.930 . S
H1298 C1308 0.930 . S
H1299 C1311 0.929 . S
H1300 C1314 0.930 . S
H1301 C1316 0.960 . S
H1302 C1316 0.960 . S
H1303 C1316 0.960 . S
C1304 H1296 0.929 . S
C1304 C1305 1.377 . S
C1304 C1306 1.384 . S
C1305 C1304 1.377 . S
C1305 C1311 1.390 . S
C1306 H1297 0.930 . S
C1306 C1304 1.384 . S
C1306 C1307 1.372 . S
C1307 C1306 1.372 . S
C1307 C1308 1.400 . S
C1307 C1312 1.490 . S
C1308 H1298 0.930 . S
C1308 C1307 1.400 . S
C1308 C1311 1.386 . S
H1309 C1325 0.930 . S
H1310 C1326 0.931 . S
C1311 H1299 0.929 . S
C1311 C1305 1.390 . S
C1311 C1308 1.386 . S
C1312 C1307 1.490 . S
C1312 C1314 1.395 . S
C1312 C1315 1.403 . S
H1313 C1319 0.930 . S
C1314 H1300 0.930 . S
C1314 C1312 1.395 . S
C1314 C1317 1.403 1_455 S
C1315 C1312 1.403 . S
C1315 C1316 1.524 . S
C1315 C1319 1.400 1_455 S
C1316 H1301 0.960 . S
C1316 H1302 0.960 . S
C1316 H1303 0.960 . S
C1316 C1315 1.524 . S
C1317 C1314 1.403 1_655 S
C1317 C1318 1.392 . S
C1317 C1321 1.495 . S
C1318 C1317 1.392 . S
C1318 C1319 1.385 . S
C1318 C1320 1.478 . S
C1319 H1313 0.930 . S
C1319 C1315 1.400 1_655 S
C1319 C1318 1.385 . S
C1320 C1318 1.478 . S
C1320 C1322 1.381 . S
C1320 C1326 1.383 . S
C1321 C1317 1.495 . S
C1321 H1327 0.959 . S
C1321 H1328 0.961 . S
C1321 H1329 0.960 . S
C1322 C1320 1.381 . S
C1322 C1323 1.394 . S
C1322 H1330 0.930 . S
C1323 C1322 1.394 . S
C1323 C1324 1.383 . S
C1323 H1331 0.929 . S
C1324 C1323 1.383 . S
C1324 C1325 1.377 . S
C1325 H1309 0.930 . S
C1325 C1324 1.377 . S
C1325 C1326 1.379 . S
C1326 H1310 0.931 . S
C1326 C1320 1.383 . S
C1326 C1325 1.379 . S
H1327 C1321 0.959 . S
H1328 C1321 0.961 . S
H1329 C1321 0.960 . S
H1330 C1322 0.930 . S
H1331 C1323 0.929 . S
H1332 C1340 0.929 . S
H1333 C1342 0.930 . S
H1334 C1344 0.930 . S
H1335 C1347 0.929 . S
H1336 C1350 0.930 . S
H1337 C1352 0.960 . S
H1338 C1352 0.960 . S
H1339 C1352 0.960 . S
C1340 H1332 0.929 . S
C1340 C1341 1.377 . S
C1340 C1342 1.384 . S
C1341 C1340 1.377 . S
C1341 C1347 1.390 . S
C1342 H1333 0.930 . S
C1342 C1340 1.384 . S
C1342 C1343 1.372 . S
C1343 C1342 1.372 . S
C1343 C1344 1.400 . S
C1343 C1348 1.490 . S
C1344 H1334 0.930 . S
C1344 C1343 1.400 . S
C1344 C1347 1.386 . S
H1345 C1361 0.930 . S
H1346 C1362 0.931 . S
C1347 H1335 0.929 . S
C1347 C1341 1.390 . S
C1347 C1344 1.386 . S
C1348 C1343 1.490 . S
C1348 C1350 1.395 . S
C1348 C1351 1.403 . S
H1349 C1355 0.930 . S
C1350 H1336 0.930 . S
C1350 C1348 1.395 . S
C1350 C1353 1.403 1_545 S
C1351 C1348 1.403 . S
C1351 C1352 1.524 . S
C1351 C1355 1.400 1_545 S
C1352 H1337 0.960 . S
C1352 H1338 0.960 . S
C1352 H1339 0.960 . S
C1352 C1351 1.524 . S
C1353 C1350 1.403 1_565 S
C1353 C1354 1.392 . S
C1353 C1357 1.495 . S
C1354 C1353 1.392 . S
C1354 C1355 1.385 . S
C1354 C1356 1.478 . S
C1355 H1349 0.930 . S
C1355 C1351 1.400 1_565 S
C1355 C1354 1.385 . S
C1356 C1354 1.478 . S
C1356 C1358 1.381 . S
C1356 C1362 1.383 . S
C1357 C1353 1.495 . S
C1357 H1363 0.959 . S
C1357 H1364 0.961 . S
C1357 H1365 0.960 . S
C1358 C1356 1.381 . S
C1358 C1359 1.394 . S
C1358 H1366 0.930 . S
C1359 C1358 1.394 . S
C1359 C1360 1.383 . S
C1359 H1367 0.929 . S
C1360 C1359 1.383 . S
C1360 C1361 1.377 . S
C1361 H1345 0.930 . S
C1361 C1360 1.377 . S
C1361 C1362 1.379 . S
C1362 H1346 0.931 . S
C1362 C1356 1.383 . S
C1362 C1361 1.379 . S
H1363 C1357 0.959 . S
H1364 C1357 0.961 . S
H1365 C1357 0.960 . S
H1366 C1358 0.930 . S
H1367 C1359 0.929 . S
H1368 C1376 0.929 . S
H1369 C1378 0.930 . S
H1370 C1380 0.930 . S
H1371 C1383 0.929 . S
H1372 C1386 0.930 . S
H1373 C1388 0.960 . S
H1374 C1388 0.960 . S
H1375 C1388 0.960 . S
C1376 H1368 0.929 . S
C1376 C1377 1.377 . S
C1376 C1378 1.384 . S
C1377 C1376 1.377 . S
C1377 C1383 1.390 . S
C1378 H1369 0.930 . S
C1378 C1376 1.384 . S
C1378 C1379 1.372 . S
C1379 C1378 1.372 . S
C1379 C1380 1.400 . S
C1379 C1384 1.490 . S
C1380 H1370 0.930 . S
C1380 C1379 1.400 . S
C1380 C1383 1.386 . S
H1381 C1397 0.930 . S
H1382 C1398 0.931 . S
C1383 H1371 0.929 . S
C1383 C1377 1.390 . S
C1383 C1380 1.386 . S
C1384 C1379 1.490 . S
C1384 C1386 1.395 . S
C1384 C1387 1.403 . S
H1385 C1391 0.930 . S
C1386 H1372 0.930 . S
C1386 C1384 1.395 . S
C1386 C1389 1.403 . S
C1387 C1384 1.403 . S
C1387 C1388 1.524 . S
C1387 C1391 1.400 . S
C1388 H1373 0.960 . S
C1388 H1374 0.960 . S
C1388 H1375 0.960 . S
C1388 C1387 1.524 . S
C1389 C1386 1.403 . S
C1389 C1390 1.392 . S
C1389 C1393 1.495 . S
C1390 C1389 1.392 . S
C1390 C1391 1.385 . S
C1390 C1392 1.478 . S
C1391 H1385 0.930 . S
C1391 C1387 1.400 . S
C1391 C1390 1.385 . S
C1392 C1390 1.478 . S
C1392 C1394 1.381 . S
C1392 C1398 1.383 . S
C1393 C1389 1.495 . S
C1393 H1399 0.959 . S
C1393 H1400 0.961 . S
C1393 H1401 0.960 . S
C1394 C1392 1.381 . S
C1394 C1395 1.394 . S
C1394 H1402 0.930 . S
C1395 C1394 1.394 . S
C1395 C1396 1.383 . S
C1395 H1403 0.929 . S
C1396 C1395 1.383 . S
C1396 C1397 1.377 . S
C1397 H1381 0.930 . S
C1397 C1396 1.377 . S
C1397 C1398 1.379 . S
C1398 H1382 0.931 . S
C1398 C1392 1.383 . S
C1398 C1397 1.379 . S
H1399 C1393 0.959 . S
H1400 C1393 0.961 . S
H1401 C1393 0.960 . S
H1402 C1394 0.930 . S
H1403 C1395 0.929 . S
H1404 C1412 0.929 . S
H1405 C1414 0.930 . S
H1406 C1416 0.930 . S
H1407 C1419 0.929 . S
H1408 C1422 0.930 . S
H1409 C1424 0.960 . S
H1410 C1424 0.960 . S
H1411 C1424 0.960 . S
C1412 H1404 0.929 . S
C1412 C1413 1.377 . S
C1412 C1414 1.384 . S
C1413 C1412 1.377 . S
C1413 C1419 1.390 . S
C1414 H1405 0.930 . S
C1414 C1412 1.384 . S
C1414 C1415 1.372 . S
C1415 C1414 1.372 . S
C1415 C1416 1.400 . S
C1415 C1420 1.490 . S
C1416 H1406 0.930 . S
C1416 C1415 1.400 . S
C1416 C1419 1.386 . S
H1417 C1433 0.930 . S
H1418 C1434 0.931 . S
C1419 H1407 0.929 . S
C1419 C1413 1.390 . S
C1419 C1416 1.386 . S
C1420 C1415 1.490 . S
C1420 C1422 1.395 . S
C1420 C1423 1.403 . S
H1421 C1427 0.930 . S
C1422 H1408 0.930 . S
C1422 C1420 1.395 . S
C1422 C1425 1.403 1_455 S
C1423 C1420 1.403 . S
C1423 C1424 1.524 . S
C1423 C1427 1.400 1_455 S
C1424 H1409 0.960 . S
C1424 H1410 0.960 . S
C1424 H1411 0.960 . S
C1424 C1423 1.524 . S
C1425 C1422 1.403 1_655 S
C1425 C1426 1.392 . S
C1425 C1429 1.495 . S
C1426 C1425 1.392 . S
C1426 C1427 1.385 . S
C1426 C1428 1.478 . S
C1427 H1421 0.930 . S
C1427 C1423 1.400 1_655 S
C1427 C1426 1.385 . S
C1428 C1426 1.478 . S
C1428 C1430 1.381 . S
C1428 C1434 1.383 . S
C1429 C1425 1.495 . S
C1429 H1435 0.959 . S
C1429 H1436 0.961 . S
C1429 H1437 0.960 . S
C1430 C1428 1.381 . S
C1430 C1431 1.394 . S
C1430 H1438 0.930 . S
C1431 C1430 1.394 . S
C1431 C1432 1.383 . S
C1431 H1439 0.929 . S
C1432 C1431 1.383 . S
C1432 C1433 1.377 . S
C1433 H1417 0.930 . S
C1433 C1432 1.377 . S
C1433 C1434 1.379 . S
C1434 H1418 0.931 . S
C1434 C1428 1.383 . S
C1434 C1433 1.379 . S
H1435 C1429 0.959 . S
H1436 C1429 0.961 . S
H1437 C1429 0.960 . S
H1438 C1430 0.930 . S
H1439 C1431 0.929 . S
H1440 C1448 0.929 . S
H1441 C1450 0.930 . S
H1442 C1452 0.930 . S
H1443 C1455 0.929 . S
H1444 C1458 0.930 . S
H1445 C1460 0.960 . S
H1446 C1460 0.960 . S
H1447 C1460 0.960 . S
C1448 H1440 0.929 . S
C1448 C1449 1.377 . S
C1448 C1450 1.384 . S
C1449 C1448 1.377 . S
C1449 C1455 1.390 . S
C1450 H1441 0.930 . S
C1450 C1448 1.384 . S
C1450 C1451 1.372 . S
C1451 C1450 1.372 . S
C1451 C1452 1.400 . S
C1451 C1456 1.490 . S
C1452 H1442 0.930 . S
C1452 C1451 1.400 . S
C1452 C1455 1.386 . S
H1453 C1469 0.930 . S
H1454 C1470 0.931 . S
C1455 H1443 0.929 . S
C1455 C1449 1.390 . S
C1455 C1452 1.386 . S
C1456 C1451 1.490 . S
C1456 C1458 1.395 . S
C1456 C1459 1.403 . S
H1457 C1463 0.930 . S
C1458 H1444 0.930 . S
C1458 C1456 1.395 . S
C1458 C1461 1.403 1_565 S
C1459 C1456 1.403 . S
C1459 C1460 1.524 . S
C1459 C1463 1.400 1_565 S
C1460 H1445 0.960 . S
C1460 H1446 0.960 . S
C1460 H1447 0.960 . S
C1460 C1459 1.524 . S
C1461 C1458 1.403 1_545 S
C1461 C1462 1.392 . S
C1461 C1465 1.495 . S
C1462 C1461 1.392 . S
C1462 C1463 1.385 . S
C1462 C1464 1.478 . S
C1463 H1457 0.930 . S
C1463 C1459 1.400 1_545 S
C1463 C1462 1.385 . S
C1464 C1462 1.478 . S
C1464 C1466 1.381 . S
C1464 C1470 1.383 . S
C1465 C1461 1.495 . S
C1465 H1471 0.959 . S
C1465 H1472 0.961 . S
C1465 H1473 0.960 . S
C1466 C1464 1.381 . S
C1466 C1467 1.394 . S
C1466 H1474 0.930 . S
C1467 C1466 1.394 . S
C1467 C1468 1.383 . S
C1467 H1475 0.929 . S
C1468 C1467 1.383 . S
C1468 C1469 1.377 . S
C1469 H1453 0.930 . S
C1469 C1468 1.377 . S
C1469 C1470 1.379 . S
C1470 H1454 0.931 . S
C1470 C1464 1.383 . S
C1470 C1469 1.379 . S
H1471 C1465 0.959 . S
H1472 C1465 0.961 . S
H1473 C1465 0.960 . S
H1474 C1466 0.930 . S
H1475 C1467 0.929 . S
C405 C8 2.300 . S
C424 C206 2.308 . S
C441 C41 2.301 . S
C460 C239 2.306 . S
C477 C74 2.301 . S
C496 C272 2.304 . S
C513 C305 2.303 . S
C532 C107 2.286 . S
C549 C140 2.303 . S
C568 C338 2.286 . S
C585 C371 2.303 . S
C604 C173 2.294 . S
C621 N302 0.831 . S
C640 N104 0.853 . S
C657 N137 0.825 . S
C676 N335 0.826 . S
C693 N368 0.813 . S
C712 N170 0.771 . S
C729 N203 0.818 . S
C748 N5 0.793 . S
C765 N236 0.833 . S
C784 N38 0.870 . S
C801 N71 0.814 . S
C820 N269 0.774 . S
C837 N344 0.747 . S
C856 N14 0.713 . S
C873 N47 0.760 . S
C892 N377 0.777 . S
C909 N80 0.747 . S
C928 N212 0.713 . S
C945 N113 0.745 . S
C964 N245 0.747 . S
C981 N146 0.760 . S
C1000 N278 0.782 . S
C1017 N179 0.746 . S
C1036 N311 0.714 . S
C1053 C127 1.732 . S
C1072 C259 1.735 . S
C1089 C160 1.732 . S
C1108 C292 1.735 . S
C1125 C325 1.733 . S
C1144 C193 1.734 . S
C1161 C28 1.730 . S
C1180 C358 1.720 . S
C1197 C391 1.730 . S
C1216 C61 1.727 . S
C1233 C94 1.733 . S
C1252 C226 1.730 . S
C1269 C17 1.189 . S
C1288 C314 1.214 . S
C1305 C347 1.193 . S
C1324 C50 1.179 . S
C1341 C380 1.189 . S
C1360 C83 1.213 . S
C1377 C215 1.195 . S
C1396 C116 1.171 . S
C1413 C149 1.192 . S
C1432 C248 1.211 . S
C1449 C281 1.189 . S
C1468 C182 1.214 . S
