# Generated by pormake.
# Topology whz, (6)-cn, num edge types: 1
# Building blocks:
#     Node 0, Type 0, BuildingBlock: UKALOJ_clean_sbu_0, # of connection points: 6
#     Node 1, Type 0, BuildingBlock: UKALOJ_clean_sbu_0, # of connection points: 6
#     Node 2, Type 0, BuildingBlock: UKALOJ_clean_sbu_0, # of connection points: 6
#     Node 3, Type 0, BuildingBlock: UKALOJ_clean_sbu_0, # of connection points: 6
#     Node 4, Type 0, BuildingBlock: UKALOJ_clean_sbu_0, # of connection points: 6
#     Node 5, Type 0, BuildingBlock: UKALOJ_clean_sbu_0, # of connection points: 6
#     Node 6, Type 0, BuildingBlock: UKALOJ_clean_sbu_0, # of connection points: 6
#     Node 7, Type 0, BuildingBlock: UKALOJ_clean_sbu_0, # of connection points: 6
#     Node 8, Type 0, BuildingBlock: UKALOJ_clean_sbu_0, # of connection points: 6
#     Node 9, Type 0, BuildingBlock: UKALOJ_clean_sbu_0, # of connection points: 6
#     Node 10, Type 0, BuildingBlock: UKALOJ_clean_sbu_0, # of connection points: 6
#     Node 11, Type 0, BuildingBlock: UKALOJ_clean_sbu_0, # of connection points: 6
#     Node 12, Type 0, BuildingBlock: UKALOJ_clean_sbu_0, # of connection points: 6
#     Node 13, Type 0, BuildingBlock: UKALOJ_clean_sbu_0, # of connection points: 6
#     Node 14, Type 0, BuildingBlock: UKALOJ_clean_sbu_0, # of connection points: 6
#     Node 15, Type 0, BuildingBlock: UKALOJ_clean_sbu_0, # of connection points: 6
#     Edge 16, Type (0, 0), None
#     Edge 17, Type (0, 0), None
#     Edge 18, Type (0, 0), None
#     Edge 19, Type (0, 0), None
#     Edge 20, Type (0, 0), None
#     Edge 21, Type (0, 0), None
#     Edge 22, Type (0, 0), None
#     Edge 23, Type (0, 0), None
#     Edge 24, Type (0, 0), None
#     Edge 25, Type (0, 0), None
#     Edge 26, Type (0, 0), None
#     Edge 27, Type (0, 0), None
#     Edge 28, Type (0, 0), None
#     Edge 29, Type (0, 0), None
#     Edge 30, Type (0, 0), None
#     Edge 31, Type (0, 0), None
#     Edge 32, Type (0, 0), None
#     Edge 33, Type (0, 0), None
#     Edge 34, Type (0, 0), None
#     Edge 35, Type (0, 0), None
#     Edge 36, Type (0, 0), None
#     Edge 37, Type (0, 0), None
#     Edge 38, Type (0, 0), None
#     Edge 39, Type (0, 0), None
#     Edge 40, Type (0, 0), None
#     Edge 41, Type (0, 0), None
#     Edge 42, Type (0, 0), None
#     Edge 43, Type (0, 0), None
#     Edge 44, Type (0, 0), None
#     Edge 45, Type (0, 0), None
#     Edge 46, Type (0, 0), None
#     Edge 47, Type (0, 0), None
#     Edge 48, Type (0, 0), None
#     Edge 49, Type (0, 0), None
#     Edge 50, Type (0, 0), None
#     Edge 51, Type (0, 0), None
#     Edge 52, Type (0, 0), None
#     Edge 53, Type (0, 0), None
#     Edge 54, Type (0, 0), None
#     Edge 55, Type (0, 0), None
#     Edge 56, Type (0, 0), None
#     Edge 57, Type (0, 0), None
#     Edge 58, Type (0, 0), None
#     Edge 59, Type (0, 0), None
#     Edge 60, Type (0, 0), None
#     Edge 61, Type (0, 0), None
#     Edge 62, Type (0, 0), None
#     Edge 63, Type (0, 0), None
# Relax obj value: 0.409
# Max RMSD: 0.276
# Mean RMSD: 0.276
data_MOF--net-whz--node1-UKALOJ_clean_sbu_0--edge1-none
_symmetry_space_group_name_H-M    P1
_symmetry_Int_Tables_number       1
_symmetry_cell_setting            triclinic
loop_
_symmetry_equiv_pos_as_xyz
'x, y, z'
_cell_length_a     22.335429
_cell_length_b     22.335354
_cell_length_c     19.173653
_cell_angle_alpha  89.999432
_cell_angle_beta   90.000703
_cell_angle_gamma 90.00011
loop_
_atom_site_label
_atom_site_type_symbol
_atom_site_fract_x
_atom_site_fract_y
_atom_site_fract_z
_atom_type_partial_charge
Zn0 Zn 0.31174 0.17618 0.08315 0.0
O1 O 0.31011 0.24023 0.16805 0.0
C2 C 0.32129 0.0651 0.17961 0.0
Zn3 Zn 0.22812 0.14614 0.13488 0.0
C4 C 0.27081 0.23938 0.21642 0.0
O5 O 0.23839 0.1938 0.22437 0.0
C6 C 0.24432 0.09754 -0.00871 0.0
O7 O 0.19257 0.22302 0.09205 0.0
O8 O 0.27002 0.2424 0.0248 0.0
N9 N 0.15068 0.12015 0.17629 0.0
C10 C 0.09406 0.12108 0.15347 0.0
C11 C 0.09678 0.06663 0.24534 0.0
N12 N 0.15215 0.08774 0.23413 0.0
N13 N 0.05957 0.08686 0.19556 0.0
C14 C 0.44225 0.2433 0.07517 0.0
C15 C 0.47632 0.20871 0.97957 0.0
N16 N 0.39968 0.2052 0.04954 0.0
N17 N 0.42179 0.18403 -0.00974 0.0
N18 N 0.49115 0.24505 0.03291 0.0
H19 H 0.39568 0.31116 0.13213 0.0
H20 H 0.47499 0.30853 0.1495 0.0
H21 H 0.42593 0.2516 0.18461 0.0
C22 C 0.43466 0.28097 0.13909 0.0
C23 C 0.07497 0.14875 0.08537 0.0
H24 H 0.11327 0.16252 0.053 0.0
H25 H 0.04617 0.18818 0.09605 0.0
H26 H 0.04892 0.11683 0.05373 0.0
O27 O 0.21061 0.10209 0.04393 0.0
O28 O 0.29823 0.11711 -0.00631 0.0
C29 C 0.21795 0.25571 0.04682 0.0
O30 O 0.35165 0.10533 0.14778 0.0
O31 O 0.26502 0.06891 0.17859 0.0
Zn32 Zn 0.60502 0.56176 0.33318 0.0
O33 O 0.54096 0.5601 0.41807 0.0
C34 C 0.71609 0.57131 0.42965 0.0
Zn35 Zn 0.63506 0.47813 0.3849 0.0
C36 C 0.5418 0.52079 0.46643 0.0
O37 O 0.58738 0.48837 0.47437 0.0
C38 C 0.68368 0.49435 0.24132 0.0
O39 O 0.5582 0.44257 0.34204 0.0
O40 O 0.53881 0.52005 0.27482 0.0
N41 N 0.66106 0.40069 0.4263 0.0
C42 C 0.66011 0.34406 0.40349 0.0
C43 C 0.71456 0.34678 0.49536 0.0
N44 N 0.69348 0.40215 0.48414 0.0
N45 N 0.69432 0.30956 0.44559 0.0
C46 C 0.53789 0.69226 0.32518 0.0
C47 C 0.57253 0.72635 0.22961 0.0
N48 N 0.576 0.6497 0.29957 0.0
N49 N 0.5972 0.67182 0.24031 0.0
N50 N 0.53616 0.74117 0.28292 0.0
H51 H 0.47001 0.64566 0.38209 0.0
H52 H 0.4726 0.72498 0.39945 0.0
H53 H 0.52952 0.67594 0.43461 0.0
C54 C 0.50018 0.68466 0.38907 0.0
C55 C 0.63242 0.32498 0.3354 0.0
H56 H 0.61874 0.36329 0.30299 0.0
H57 H 0.59292 0.29628 0.3461 0.0
H58 H 0.66427 0.29884 0.30379 0.0
O59 O 0.67914 0.46064 0.29396 0.0
O60 O 0.66409 0.54826 0.24372 0.0
C61 C 0.5255 0.46796 0.29682 0.0
O62 O 0.67586 0.60167 0.39782 0.0
O63 O 0.71228 0.51504 0.42863 0.0
Zn64 Zn 0.21944 0.85502 0.58315 0.0
O65 O 0.22107 0.79097 0.66805 0.0
C66 C 0.20989 0.96609 0.67961 0.0
Zn67 Zn 0.30307 0.88505 0.63488 0.0
C68 C 0.26038 0.79181 0.71642 0.0
O69 O 0.2928 0.83739 0.72437 0.0
C70 C 0.28687 0.93366 0.49129 0.0
O71 O 0.33862 0.80817 0.59205 0.0
O72 O 0.26116 0.78879 0.52481 0.0
N73 N 0.38051 0.91104 0.67629 0.0
C74 C 0.43713 0.91011 0.65347 0.0
C75 C 0.43441 0.96456 0.74534 0.0
N76 N 0.37903 0.94345 0.73413 0.0
N77 N 0.47162 0.94433 0.69556 0.0
C78 C 0.08893 0.7879 0.57517 0.0
C79 C 0.05486 0.82248 0.47957 0.0
N80 N 0.13151 0.82599 0.54954 0.0
N81 N 0.10939 0.84716 0.49026 0.0
N82 N 0.04003 0.78614 0.53291 0.0
H83 H 0.13551 0.72004 0.63214 0.0
H84 H 0.05619 0.72267 0.64951 0.0
H85 H 0.10526 0.77959 0.68461 0.0
C86 C 0.09652 0.75022 0.63909 0.0
C87 C 0.45621 0.88245 0.58537 0.0
H88 H 0.41791 0.86868 0.553 0.0
H89 H 0.48501 0.84301 0.59605 0.0
H90 H 0.48226 0.91435 0.55373 0.0
O91 O 0.32058 0.92911 0.54393 0.0
O92 O 0.23296 0.91409 0.49369 0.0
C93 C 0.31324 0.77549 0.54682 0.0
O94 O 0.17953 0.92587 0.64778 0.0
O95 O 0.26616 0.96228 0.67859 0.0
Zn96 Zn 0.89612 0.55306 0.8849 0.0
O97 O 0.97299 0.58862 0.84204 0.0
C98 C 0.84751 0.53684 0.74132 0.0
Zn99 Zn 0.92617 0.46943 0.83318 0.0
C100 C 1.00568 0.56323 0.79682 0.0
O101 O 0.99238 0.51114 0.77482 0.0
C102 C 0.81509 0.45988 0.92965 0.0
O103 O 0.99023 0.47109 0.91807 0.0
O104 O 0.9438 0.54282 0.97437 0.0
N105 N 0.95518 0.3815 0.79958 0.0
C106 C 0.9933 0.33893 0.82518 0.0
C107 C 0.95865 0.30484 0.72962 0.0
N108 N 0.93398 0.35937 0.74032 0.0
N109 N 0.99502 0.29002 0.78293 0.0
C110 C 0.87108 0.68713 0.90349 0.0
C111 C 0.81663 0.68441 -0.00464 0.0
N112 N 0.87013 0.6305 0.9263 0.0
N113 N 0.83771 0.62903 0.98414 0.0
N114 N 0.83687 0.72163 0.94559 0.0
H115 H 0.91245 0.6679 0.803 0.0
H116 H 0.93826 0.73491 0.8461 0.0
H117 H 0.86691 0.73235 0.80379 0.0
C118 C 0.89877 0.70621 0.8354 0.0
C119 C 0.03101 0.34653 0.88906 0.0
H120 H 0.06117 0.38553 0.88208 0.0
H121 H 0.05859 0.30621 0.89945 0.0
H122 H 1.00167 0.35525 0.93461 0.0
O123 O 0.85533 0.42952 0.89782 0.0
O124 O 0.81891 0.51615 0.92863 0.0
C125 C 0.98939 0.5104 0.96643 0.0
O126 O 0.85205 0.57055 0.79396 0.0
O127 O 0.86709 0.48294 0.74372 0.0
Zn128 Zn 0.8031 0.88504 0.8423 0.0
O129 O 0.83869 0.80821 0.88519 0.0
C130 C 0.78688 0.93368 0.98587 0.0
Zn131 Zn 0.71947 0.85498 0.89402 0.0
C132 C 0.81331 0.77551 0.9304 0.0
O133 O 0.7612 0.78876 0.95237 0.0
C134 C 0.70989 0.96605 0.79753 0.0
O135 O 0.72111 0.79092 0.80914 0.0
O136 O 0.79287 0.83732 0.75285 0.0
N137 N 0.63153 0.82595 0.92763 0.0
C138 C 0.58895 0.78787 0.902 0.0
C139 C 0.55488 0.82246 -0.0024 0.0
N140 N 0.60942 0.84712 0.98692 0.0
N141 N 0.54004 0.78613 0.94426 0.0
C142 C 0.93715 0.91013 0.8237 0.0
C143 C 0.93443 0.96457 0.73182 0.0
N144 N 0.88053 0.91105 0.80089 0.0
N145 N 0.87905 0.94346 0.74304 0.0
N146 N 0.97165 0.94434 0.7816 0.0
H147 H 0.91793 0.86881 0.92423 0.0
H148 H 0.98492 0.84296 0.88113 0.0
H149 H 0.98239 0.91433 0.9234 0.0
C150 C 0.95624 0.88247 0.89181 0.0
C151 C 0.59652 0.7502 0.83808 0.0
H152 H 0.6355 0.72001 0.84503 0.0
H153 H 0.55619 0.72266 0.82766 0.0
H154 H 0.60527 0.77957 0.79256 0.0
O155 O 0.67954 0.92582 0.82938 0.0
O156 O 0.76616 0.96223 0.79853 0.0
C157 C 0.76043 0.79175 0.76079 0.0
O158 O 0.82058 0.92916 0.93321 0.0
O159 O 0.73299 0.91405 0.98349 0.0
Zn160 Zn 0.39616 0.55307 0.59225 0.0
O161 O 0.47303 0.58862 0.63509 0.0
C162 C 0.34754 0.53687 0.73584 0.0
Zn163 Zn 0.42618 0.46944 0.64398 0.0
C164 C 0.50571 0.56323 0.68033 0.0
O165 O 0.4924 0.51116 0.70233 0.0
C166 C 0.31511 0.45989 0.54751 0.0
O167 O 0.49025 0.47108 0.55909 0.0
O168 O 0.44383 0.54281 0.50277 0.0
N169 N 0.4552 0.3815 0.6776 0.0
C170 C 0.49331 0.33893 0.65199 0.0
C171 C 0.45867 0.30485 0.74757 0.0
N172 N 0.434 0.35938 0.73686 0.0
N173 N 0.49503 0.29002 0.69425 0.0
C174 C 0.37103 0.68711 0.57373 0.0
C175 C 0.31658 0.68439 0.48184 0.0
N176 N 0.37017 0.6305 0.55085 0.0
N177 N 0.33776 0.62904 0.49299 0.0
N178 N 0.33671 0.72156 0.53171 0.0
H179 H 0.41248 0.66789 0.67418 0.0
H180 H 0.43815 0.73497 0.63113 0.0
H181 H 0.36682 0.73225 0.67346 0.0
C182 C 0.39871 0.70619 0.64182 0.0
C183 C 0.53101 0.34652 0.5881 0.0
H184 H 0.56118 0.38552 0.59508 0.0
H185 H 0.55859 0.3062 0.57772 0.0
H186 H 0.50167 0.35524 0.54256 0.0
O187 O 0.35533 0.42953 0.57934 0.0
O188 O 0.31893 0.51616 0.54852 0.0
C189 C 0.48941 0.51039 0.51072 0.0
O190 O 0.35209 0.57057 0.68319 0.0
O191 O 0.36711 0.48296 0.73344 0.0
Zn192 Zn 0.81172 0.17621 0.39402 0.0
O193 O 0.81008 0.24027 0.30914 0.0
C194 C 0.8213 0.06514 0.29753 0.0
Zn195 Zn 0.72809 0.14614 0.3423 0.0
C196 C 0.77075 0.23944 0.26079 0.0
O197 O 0.73832 0.19387 0.25285 0.0
C198 C 0.74431 0.09751 0.48587 0.0
O199 O 0.69249 0.22298 0.38519 0.0
O200 O 0.76999 0.24243 0.45237 0.0
N201 N 0.65066 0.12014 0.30089 0.0
C202 C 0.59403 0.12106 0.3237 0.0
C203 C 0.59676 0.06662 0.23182 0.0
N204 N 0.65213 0.08773 0.24304 0.0
N205 N 0.55954 0.08685 0.2816 0.0
C206 C 0.94224 0.24332 0.402 0.0
C207 C 0.97631 0.20873 0.49761 0.0
N208 N 0.89966 0.20523 0.42763 0.0
N209 N 0.92177 0.18407 0.48692 0.0
N210 N 0.99115 0.24505 0.44426 0.0
H211 H 0.89569 0.31118 0.34503 0.0
H212 H 0.975 0.30852 0.32765 0.0
H213 H 0.92592 0.25161 0.29256 0.0
C214 C 0.93467 0.28098 0.33807 0.0
C215 C 0.57495 0.14872 0.39181 0.0
H216 H 0.61326 0.16238 0.42423 0.0
H217 H 0.54627 0.18824 0.38113 0.0
H218 H 0.5488 0.11687 0.4234 0.0
O219 O 0.71061 0.10203 0.43321 0.0
O220 O 0.7982 0.11714 0.48349 0.0
C221 C 0.71788 0.25568 0.4304 0.0
O222 O 0.85165 0.10536 0.32939 0.0
O223 O 0.76503 0.06896 0.29852 0.0
Zn224 Zn 0.13503 0.47812 0.09225 0.0
O225 O 0.05815 0.44257 0.13509 0.0
C226 C 0.18365 0.49432 0.23584 0.0
Zn227 Zn 0.10501 0.56175 0.14398 0.0
C228 C 0.02548 0.46796 0.18032 0.0
O229 O 0.03879 0.52004 0.20233 0.0
C230 C 0.21608 0.5713 0.04751 0.0
O231 O 0.04094 0.56011 0.05909 0.0
O232 O 0.08736 0.48838 0.00277 0.0
N233 N 0.07599 0.64969 0.17759 0.0
C234 C 0.03788 0.69226 0.15199 0.0
C235 C 0.07253 0.72634 0.24756 0.0
N236 N 0.0972 0.67181 0.23686 0.0
N237 N 0.03616 0.74117 0.19425 0.0
C238 C 0.16016 0.34408 0.07372 0.0
C239 C 0.2146 0.3468 0.98184 0.0
N240 N 0.16101 0.40069 0.05085 0.0
N241 N 0.19342 0.40216 -0.00701 0.0
N242 N 0.19447 0.30963 0.0317 0.0
H243 H 0.1187 0.3633 0.17418 0.0
H244 H 0.09304 0.29622 0.13112 0.0
H245 H 0.16437 0.29894 0.17346 0.0
C246 C 0.13248 0.325 0.14182 0.0
C247 C 1.00017 0.68467 0.08811 0.0
H248 H 0.97001 0.64567 0.09508 0.0
H249 H 0.97259 0.72499 0.07773 0.0
H250 H 0.02951 0.67595 0.04256 0.0
O251 O 0.17586 0.60166 0.07934 0.0
O252 O 0.21225 0.51503 0.04852 0.0
C253 C 0.04178 0.5208 0.01072 0.0
O254 O 0.1791 0.46062 0.18319 0.0
O255 O 0.16408 0.54823 0.23344 0.0
Zn256 Zn 0.81178 0.67617 0.58321 0.0
O257 O 0.81012 0.74021 0.66812 0.0
C258 C 0.8213 0.5651 0.67962 0.0
Zn259 Zn 0.72814 0.64614 0.63494 0.0
C260 C 0.77081 0.73937 0.71649 0.0
O261 O 0.73838 0.69379 0.72442 0.0
C262 C 0.74437 0.59753 0.49133 0.0
O263 O 0.6926 0.72301 0.59209 0.0
O264 O 0.77007 0.7424 0.52487 0.0
N265 N 0.6507 0.62014 0.67631 0.0
C266 C 0.5941 0.62101 0.65343 0.0
C267 C 0.59681 0.56656 0.74531 0.0
N268 N 0.65216 0.58773 0.73416 0.0
N269 N 0.55964 0.5867 0.69545 0.0
C270 C 0.94215 0.74355 0.57512 0.0
C271 C 0.9765 0.70858 0.47982 0.0
N272 N 0.89972 0.70522 0.54963 0.0
N273 N 0.92201 0.68381 0.49055 0.0
N274 N 0.99109 0.74527 0.53291 0.0
H275 H 0.89524 0.81143 0.63168 0.0
H276 H 0.97457 0.80929 0.64902 0.0
H277 H 0.92583 0.75228 0.68452 0.0
C278 C 0.93438 0.78148 0.6388 0.0
C279 C 0.57502 0.64871 0.58534 0.0
H280 H 0.61334 0.66246 0.55297 0.0
H281 H 0.54628 0.68817 0.59604 0.0
H282 H 0.54894 0.61684 0.5537 0.0
O283 O 0.71067 0.60208 0.54398 0.0
O284 O 0.79827 0.61712 0.49372 0.0
C285 C 0.71798 0.7557 0.54686 0.0
O286 O 0.85169 0.60532 0.64782 0.0
O287 O 0.76503 0.56891 0.67865 0.0
Zn288 Zn 0.10499 0.06175 0.83316 0.0
O289 O 0.04096 0.06009 0.91807 0.0
C290 C 0.21605 0.07131 0.9296 0.0
Zn291 Zn 0.13507 0.97811 0.88489 0.0
C292 C 0.04179 0.02077 0.96642 0.0
O293 O 0.08736 0.98832 0.97434 0.0
C294 C 0.18368 0.99437 0.7413 0.0
O295 O 0.05823 0.94252 0.84199 0.0
O296 O 0.03876 0.02002 0.77483 0.0
N297 N 0.16108 0.90067 0.92627 0.0
C298 C 0.16015 0.84405 0.90346 0.0
C299 C 0.21459 0.84676 -0.00467 0.0
N300 N 0.1935 0.90214 0.98412 0.0
N301 N 0.19436 0.80955 0.94555 0.0
C302 C 0.03763 0.19214 0.82512 0.0
C303 C 0.07254 0.22646 0.72978 0.0
N304 N 0.07593 0.1497 0.7996 0.0
N305 N 0.0973 0.17197 0.74049 0.0
N306 N 0.03589 0.24107 0.7829 0.0
H307 H 0.96977 0.14526 0.88173 0.0
H308 H 0.97197 0.22459 0.89909 0.0
H309 H 0.02898 0.1758 0.93452 0.0
C310 C 0.99975 0.18439 0.88884 0.0
C311 C 0.13247 0.82498 0.83535 0.0
H312 H 0.11884 0.8633 0.80293 0.0
H313 H 0.09293 0.79633 0.84604 0.0
H314 H 0.1643 0.7988 0.80376 0.0
O315 O 0.17917 0.96067 0.79396 0.0
O316 O 0.16404 0.04825 0.74368 0.0
C317 C 0.02552 0.9679 0.79679 0.0
O318 O 0.17584 0.10168 0.89777 0.0
O319 O 0.21225 1.01504 0.92865 0.0
Zn320 Zn 0.80304 0.38505 0.13494 0.0
O321 O 0.83859 0.30818 0.09209 0.0
C322 C 0.78681 0.43366 -0.00867 0.0
Zn323 Zn 0.71941 0.35502 0.08321 0.0
C324 C 0.8132 0.27549 0.04687 0.0
O325 O 0.76112 0.28879 0.02487 0.0
C326 C 0.70988 0.46609 0.17962 0.0
O327 O 0.72106 0.29099 0.16812 0.0
O328 O 0.79281 0.3374 0.22442 0.0
N329 N 0.63146 0.32597 0.04963 0.0
C330 C 0.58903 0.28765 0.07512 0.0
C331 C 0.55469 0.32261 0.97982 0.0
N332 N 0.60918 0.34738 -0.00945 0.0
N333 N 0.5401 0.28592 0.03291 0.0
C334 C 0.93709 0.41018 0.15343 0.0
C335 C 0.93438 0.46463 0.24531 0.0
N336 N 0.88048 0.41105 0.17631 0.0
N337 N 0.87903 0.44346 0.23416 0.0
N338 N 0.97155 0.44449 0.19545 0.0
H339 H 0.91785 0.36874 0.05297 0.0
H340 H 0.98491 0.34302 0.09605 0.0
H341 H 0.98225 0.41435 0.0537 0.0
C342 C 0.95616 0.38248 0.08534 0.0
C343 C 0.5968 0.24972 0.13881 0.0
H344 H 0.63595 0.21977 0.13168 0.0
H345 H 0.55661 0.2219 0.14902 0.0
H346 H 0.60536 0.27892 0.18452 0.0
O347 O 0.6795 0.42587 0.14782 0.0
O348 O 0.76615 0.46228 0.17865 0.0
C349 C 0.76037 0.29183 0.21649 0.0
O350 O 0.82052 0.42912 0.04398 0.0
O351 O 0.73291 0.41408 -0.00628 0.0
Zn352 Zn 0.39612 0.05308 0.38489 0.0
O353 O 0.47295 0.08867 0.34199 0.0
C354 C 0.3475 0.03682 0.2413 0.0
Zn355 Zn 0.4262 0.96944 0.33317 0.0
C356 C 0.50567 0.06328 0.29679 0.0
O357 O 0.49242 1.01117 0.27483 0.0
C358 C 0.31513 0.95988 0.4296 0.0
O359 O 0.49022 0.9711 0.41807 0.0
O360 O 0.44383 0.04287 0.47434 0.0
N361 N 0.45525 0.88149 0.2996 0.0
C362 C 0.49355 0.83905 0.32512 0.0
C363 C 0.45864 0.80473 0.22978 0.0
N364 N 0.43387 0.85922 0.24049 0.0
N365 N 0.49529 0.79012 0.2829 0.0
C366 C 0.37104 0.18714 0.40346 0.0
C367 C 0.3166 0.18443 0.49533 0.0
N368 N 0.37011 0.13051 0.42627 0.0
N369 N 0.33769 0.12905 0.48412 0.0
N370 N 0.33683 0.22164 0.44555 0.0
H371 H 0.41235 0.1679 0.30293 0.0
H372 H 0.43825 0.23486 0.34604 0.0
H373 H 0.36688 0.23239 0.30377 0.0
C374 C 0.39872 0.20621 0.33535 0.0
C375 C 0.53144 0.84681 0.38883 0.0
H376 H 0.56142 0.88593 0.38173 0.0
H377 H 0.55922 0.8066 0.39909 0.0
H378 H 0.50222 0.85539 0.43452 0.0
O379 O 0.35535 0.92951 0.39778 0.0
O380 O 0.31893 0.01615 0.42865 0.0
C381 C 0.48939 1.01042 0.46642 0.0
O382 O 0.35201 0.07053 0.29396 0.0
O383 O 0.36714 0.98294 0.24368 0.0
Zn384 Zn 0.30308 0.38505 0.34224 0.0
O385 O 0.33867 0.30822 0.38516 0.0
C386 C 0.28682 0.43368 0.48582 0.0
Zn387 Zn 0.21943 0.35498 0.39397 0.0
C388 C 0.31328 0.27551 0.43036 0.0
O389 O 0.26116 0.28876 0.45231 0.0
C390 C 0.20988 0.46605 0.29752 0.0
O391 O 0.2211 0.29094 0.30906 0.0
O392 O 0.29287 0.33734 0.25279 0.0
N393 N 0.13149 0.32593 0.42754 0.0
C394 C 0.08904 0.28762 0.40205 0.0
C395 C 0.05471 0.32259 0.49735 0.0
N396 N 0.10921 0.34735 0.48663 0.0
N397 N 0.04011 0.28591 0.44426 0.0
C398 C 0.43711 0.4102 0.32374 0.0
C399 C 0.4344 0.46464 0.23185 0.0
N400 N 0.38051 0.41106 0.30087 0.0
N401 N 0.37905 0.44347 0.24301 0.0
N402 N 0.47157 0.44449 0.28172 0.0
H403 H 0.41786 0.36887 0.42426 0.0
H404 H 0.48482 0.34296 0.38113 0.0
H405 H 0.48237 0.41432 0.42343 0.0
C406 C 0.45618 0.3825 0.39184 0.0
C407 C 0.0968 0.2497 0.33836 0.0
H408 H 0.13594 0.21974 0.34548 0.0
H409 H 0.05661 0.2219 0.32814 0.0
H410 H 0.10537 0.2789 0.29265 0.0
O411 O 0.17951 0.42583 0.32935 0.0
O412 O 0.26615 0.46224 0.29846 0.0
C413 C 0.26043 0.29177 0.26072 0.0
O414 O 0.32052 0.42917 0.43316 0.0
O415 O 0.23294 0.41404 0.48345 0.0
Zn416 Zn 0.92621 0.96945 0.144 0.0
O417 O 0.99024 0.97109 0.05909 0.0
C418 C 0.81514 0.9599 0.04756 0.0
Zn419 Zn 0.89616 0.05309 0.09226 0.0
C420 C 0.98941 1.01041 0.01073 0.0
O421 O 0.94385 0.04286 0.0028 0.0
C422 C 0.84753 0.03686 0.23586 0.0
O423 O 0.97299 0.08867 0.13515 0.0
O424 O 0.99245 1.01118 0.20233 0.0
N425 N 0.87015 0.13051 0.05087 0.0
C426 C 0.87099 0.18712 0.07376 0.0
C427 C 0.81655 0.1844 0.98187 0.0
N428 N 0.83774 0.12905 -0.00698 0.0
N429 N 0.83668 0.22157 0.03175 0.0
C430 C 0.99356 0.83905 0.15206 0.0
C431 C 0.95866 0.80474 0.2474 0.0
N432 N 0.95527 0.8815 0.17758 0.0
N433 N 0.93389 0.85923 0.23668 0.0
N434 N 0.9953 0.79012 0.19427 0.0
H435 H 0.06143 0.88592 0.09543 0.0
H436 H 0.05922 0.80659 0.07808 0.0
H437 H 1.00221 0.85538 0.04265 0.0
C438 C 0.03144 0.8468 0.08833 0.0
C439 C 0.89866 0.20619 0.14187 0.0
H440 H 0.91238 0.16788 0.17425 0.0
H441 H 0.93814 0.23492 0.13119 0.0
H442 H 0.86679 0.23229 0.17349 0.0
O443 O 0.85205 0.07055 0.18319 0.0
O444 O 0.86716 0.98296 0.23349 0.0
C445 C 1.0057 0.06329 0.18036 0.0
O446 O 0.85535 0.92952 0.07939 0.0
O447 O 0.81896 0.01617 0.0485 0.0
Zn448 Zn 0.31176 0.67621 0.89397 0.0
O449 O 0.31009 0.74025 0.80906 0.0
C450 C 0.32131 0.56514 0.79752 0.0
Zn451 Zn 0.22811 0.64614 0.84224 0.0
C452 C 0.27075 0.73942 0.76072 0.0
O453 O 0.23831 0.69386 0.75279 0.0
C454 C 0.24437 0.5975 0.98583 0.0
O455 O 0.19252 0.72297 0.88516 0.0
O456 O 0.27003 0.74243 0.95231 0.0
N457 N 0.15068 0.62012 0.80086 0.0
C458 C 0.09408 0.62099 0.82374 0.0
C459 C 0.09678 0.56655 0.73185 0.0
N460 N 0.15214 0.58772 0.74301 0.0
N461 N 0.05961 0.58669 0.78172 0.0
C462 C 0.44214 0.74357 0.90205 0.0
C463 C 0.47648 0.7086 -0.00264 0.0
N464 N 0.3997 0.70525 0.92754 0.0
N465 N 0.42198 0.68384 0.98663 0.0
N466 N 0.49108 0.74528 0.94426 0.0
H467 H 0.39525 0.81145 0.84548 0.0
H468 H 0.47458 0.80929 0.82813 0.0
H469 H 0.42582 0.75228 0.79265 0.0
C470 C 0.43439 0.78149 0.83836 0.0
C471 C 0.07501 0.64869 0.89184 0.0
H472 H 0.11333 0.66232 0.92426 0.0
H473 H 0.04637 0.68823 0.88113 0.0
H474 H 0.04882 0.61687 0.92343 0.0
O475 O 0.21067 0.60202 0.93316 0.0
O476 O 0.29825 0.61715 0.98345 0.0
C477 C 0.21791 0.75567 0.93036 0.0
O478 O 0.35168 0.60536 0.82935 0.0
O479 O 0.26504 0.56895 0.79846 0.0
Zn480 Zn 0.63503 0.97811 0.59226 0.0
O481 O 0.55819 0.94252 0.63514 0.0
C482 C 0.68366 0.99433 0.73586 0.0
Zn483 Zn 0.60497 0.06174 0.64399 0.0
C484 C 0.52549 0.9679 0.68036 0.0
O485 O 0.53874 0.02001 0.70233 0.0
C486 C 0.71605 0.07129 0.54756 0.0
O487 O 0.54095 0.0601 0.55908 0.0
O488 O 0.58734 0.98833 0.5028 0.0
N489 N 0.57592 0.14969 0.67757 0.0
C490 C 0.53763 0.19214 0.65206 0.0
C491 C 0.57254 0.22646 0.7474 0.0
N492 N 0.5973 0.17196 0.73668 0.0
N493 N 0.53589 0.24107 0.69427 0.0
C494 C 0.66019 0.84408 0.57376 0.0
C495 C 0.71463 0.84679 0.48187 0.0
N496 N 0.66104 0.90068 0.55087 0.0
N497 N 0.69344 0.90214 0.49302 0.0
N498 N 0.6945 0.80962 0.53174 0.0
H499 H 0.6188 0.86331 0.67425 0.0
H500 H 0.59305 0.79626 0.63118 0.0
H501 H 0.6644 0.7989 0.67349 0.0
C502 C 0.63252 0.825 0.64187 0.0
C503 C 0.49974 0.18439 0.58834 0.0
H504 H 0.46976 0.14527 0.59544 0.0
H505 H 0.47196 0.2246 0.57809 0.0
H506 H 0.52897 0.17581 0.54265 0.0
O507 O 0.67584 0.10167 0.57939 0.0
O508 O 0.71223 1.01502 0.54851 0.0
C509 C 0.54177 0.02078 0.51073 0.0
O510 O 0.67913 0.96064 0.68319 0.0
O511 O 0.66403 0.04823 0.73349 0.0
loop_
_geom_bond_atom_site_label_1
_geom_bond_atom_site_label_2
_geom_bond_distance
_geom_bond_site_symmetry_2
_ccdc_geom_bond_type
Zn0 O1 2.055 . S
Zn0 O8 2.046 . S
Zn0 N16 2.036 . S
Zn0 O28 2.053 . S
Zn0 O30 2.066 . S
O1 Zn0 2.055 . S
O1 C4 1.259 . S
C2 O30 1.256 . S
C2 O31 1.244 . S
Zn3 O5 2.046 . S
Zn3 O7 2.055 . S
Zn3 N9 2.036 . S
Zn3 O27 2.066 . S
Zn3 O31 2.053 . S
C4 O1 1.259 . S
C4 O5 1.254 . S
O5 Zn3 2.046 . S
O5 C4 1.254 . S
C6 O27 1.256 . S
C6 O28 1.244 . S
O7 Zn3 2.055 . S
O7 C29 1.259 . S
O8 Zn0 2.046 . S
O8 C29 1.254 . S
N9 Zn3 2.036 . S
N9 C10 1.298 . S
N9 N12 1.398 . S
C10 N9 1.298 . S
C10 N13 1.367 . S
C10 C23 1.481 . S
C11 N12 1.299 . S
C11 N13 1.379 . S
N12 N9 1.398 . S
N12 C11 1.299 . S
N13 C10 1.367 . S
N13 C11 1.379 . S
C14 N16 1.298 . S
C14 N18 1.367 . S
C14 C22 1.481 . S
C15 N17 1.299 . S
C15 N18 1.379 . S
N16 Zn0 2.036 . S
N16 C14 1.298 . S
N16 N17 1.398 . S
N17 C15 1.299 . S
N17 N16 1.398 . S
N18 C14 1.367 . S
N18 C15 1.379 . S
H19 C22 0.980 . S
H20 C22 0.981 . S
H21 C22 0.981 . S
C22 C14 1.481 . S
C22 H19 0.980 . S
C22 H20 0.981 . S
C22 H21 0.981 . S
C23 C10 1.481 . S
C23 H24 0.980 . S
C23 H25 0.981 . S
C23 H26 0.981 . S
H24 C23 0.980 . S
H25 C23 0.981 . S
H26 C23 0.981 . S
O27 Zn3 2.066 . S
O27 C6 1.256 . S
O28 Zn0 2.053 . S
O28 C6 1.244 . S
C29 O7 1.259 . S
C29 O8 1.254 . S
O30 Zn0 2.066 . S
O30 C2 1.256 . S
O31 C2 1.244 . S
O31 Zn3 2.053 . S
Zn32 O33 2.055 . S
Zn32 O40 2.046 . S
Zn32 N48 2.036 . S
Zn32 O60 2.053 . S
Zn32 O62 2.066 . S
O33 Zn32 2.055 . S
O33 C36 1.259 . S
C34 O62 1.256 . S
C34 O63 1.244 . S
Zn35 O37 2.046 . S
Zn35 O39 2.055 . S
Zn35 N41 2.036 . S
Zn35 O59 2.066 . S
Zn35 O63 2.053 . S
C36 O33 1.259 . S
C36 O37 1.254 . S
O37 Zn35 2.046 . S
O37 C36 1.254 . S
C38 O59 1.256 . S
C38 O60 1.244 . S
O39 Zn35 2.055 . S
O39 C61 1.259 . S
O40 Zn32 2.046 . S
O40 C61 1.254 . S
N41 Zn35 2.036 . S
N41 C42 1.298 . S
N41 N44 1.398 . S
C42 N41 1.298 . S
C42 N45 1.367 . S
C42 C55 1.481 . S
C43 N44 1.299 . S
C43 N45 1.379 . S
N44 N41 1.398 . S
N44 C43 1.299 . S
N45 C42 1.367 . S
N45 C43 1.379 . S
C46 N48 1.298 . S
C46 N50 1.367 . S
C46 C54 1.481 . S
C47 N49 1.299 . S
C47 N50 1.379 . S
N48 Zn32 2.036 . S
N48 C46 1.298 . S
N48 N49 1.398 . S
N49 C47 1.299 . S
N49 N48 1.398 . S
N50 C46 1.367 . S
N50 C47 1.379 . S
H51 C54 0.980 . S
H52 C54 0.981 . S
H53 C54 0.981 . S
C54 C46 1.481 . S
C54 H51 0.980 . S
C54 H52 0.981 . S
C54 H53 0.981 . S
C55 C42 1.481 . S
C55 H56 0.980 . S
C55 H57 0.981 . S
C55 H58 0.981 . S
H56 C55 0.980 . S
H57 C55 0.981 . S
H58 C55 0.981 . S
O59 Zn35 2.066 . S
O59 C38 1.256 . S
O60 Zn32 2.053 . S
O60 C38 1.244 . S
C61 O39 1.259 . S
C61 O40 1.254 . S
O62 Zn32 2.066 . S
O62 C34 1.256 . S
O63 C34 1.244 . S
O63 Zn35 2.053 . S
Zn64 O65 2.055 . S
Zn64 O72 2.046 . S
Zn64 N80 2.036 . S
Zn64 O92 2.053 . S
Zn64 O94 2.066 . S
O65 Zn64 2.055 . S
O65 C68 1.259 . S
C66 O94 1.256 . S
C66 O95 1.244 . S
Zn67 O69 2.046 . S
Zn67 O71 2.055 . S
Zn67 N73 2.036 . S
Zn67 O91 2.066 . S
Zn67 O95 2.053 . S
C68 O65 1.259 . S
C68 O69 1.254 . S
O69 Zn67 2.046 . S
O69 C68 1.254 . S
C70 O91 1.256 . S
C70 O92 1.244 . S
O71 Zn67 2.055 . S
O71 C93 1.259 . S
O72 Zn64 2.046 . S
O72 C93 1.254 . S
N73 Zn67 2.036 . S
N73 C74 1.298 . S
N73 N76 1.398 . S
C74 N73 1.298 . S
C74 N77 1.367 . S
C74 C87 1.481 . S
C75 N76 1.299 . S
C75 N77 1.379 . S
N76 N73 1.398 . S
N76 C75 1.299 . S
N77 C74 1.367 . S
N77 C75 1.379 . S
C78 N80 1.298 . S
C78 N82 1.367 . S
C78 C86 1.481 . S
C79 N81 1.299 . S
C79 N82 1.379 . S
N80 Zn64 2.036 . S
N80 C78 1.298 . S
N80 N81 1.398 . S
N81 C79 1.299 . S
N81 N80 1.398 . S
N82 C78 1.367 . S
N82 C79 1.379 . S
H83 C86 0.980 . S
H84 C86 0.981 . S
H85 C86 0.981 . S
C86 C78 1.481 . S
C86 H83 0.980 . S
C86 H84 0.981 . S
C86 H85 0.981 . S
C87 C74 1.481 . S
C87 H88 0.980 . S
C87 H89 0.981 . S
C87 H90 0.981 . S
H88 C87 0.980 . S
H89 C87 0.981 . S
H90 C87 0.981 . S
O91 Zn67 2.066 . S
O91 C70 1.256 . S
O92 Zn64 2.053 . S
O92 C70 1.244 . S
C93 O71 1.259 . S
C93 O72 1.254 . S
O94 Zn64 2.066 . S
O94 C66 1.256 . S
O95 C66 1.244 . S
O95 Zn67 2.053 . S
Zn96 O97 2.055 . S
Zn96 O104 2.046 1_556 S
Zn96 N112 2.036 . S
Zn96 O124 2.053 . S
Zn96 O126 2.066 . S
O97 Zn96 2.055 . S
O97 C100 1.259 . S
C98 O126 1.256 . S
C98 O127 1.244 . S
Zn99 O101 2.046 . S
Zn99 O103 2.055 . S
Zn99 N105 2.036 . S
Zn99 O123 2.066 . S
Zn99 O127 2.053 . S
C100 O97 1.259 . S
C100 O101 1.254 . S
O101 Zn99 2.046 . S
O101 C100 1.254 . S
C102 O123 1.256 . S
C102 O124 1.244 . S
O103 Zn99 2.055 . S
O103 C125 1.259 1_556 S
O104 Zn96 2.046 1_554 S
O104 C125 1.254 . S
N105 Zn99 2.036 . S
N105 C106 1.298 . S
N105 N108 1.398 . S
C106 N105 1.298 . S
C106 N109 1.367 . S
C106 C119 1.481 . S
C107 N108 1.299 . S
C107 N109 1.379 . S
N108 N105 1.398 . S
N108 C107 1.299 . S
N109 C106 1.367 . S
N109 C107 1.379 . S
C110 N112 1.298 . S
C110 N114 1.367 . S
C110 C118 1.481 . S
C111 N113 1.300 . S
C111 N114 1.369 1_554 S
N112 Zn96 2.036 . S
N112 C110 1.298 . S
N112 N113 1.398 1_556 S
N113 C111 1.300 . S
N113 N112 1.398 1_554 S
N114 C110 1.367 . S
N114 C111 1.369 1_556 S
H115 C118 0.980 . S
H116 C118 0.981 . S
H117 C118 0.981 . S
C118 C110 1.481 . S
C118 H115 0.980 . S
C118 H116 0.981 . S
C118 H117 0.981 . S
C119 C106 1.481 . S
C119 H120 0.980 . S
C119 H121 0.981 1_655 S
C119 H122 0.981 . S
H120 C119 0.980 . S
H121 C119 0.981 1_455 S
H122 C119 0.981 . S
O123 Zn99 2.066 . S
O123 C102 1.256 . S
O124 Zn96 2.053 . S
O124 C102 1.244 . S
C125 O103 1.259 1_554 S
C125 O104 1.254 . S
O126 Zn96 2.066 . S
O126 C98 1.256 . S
O127 C98 1.244 . S
O127 Zn99 2.053 . S
Zn128 O129 2.055 . S
Zn128 O136 2.046 . S
Zn128 N144 2.036 . S
Zn128 O156 2.053 . S
Zn128 O158 2.066 . S
O129 Zn128 2.055 . S
O129 C132 1.259 . S
C130 O158 1.256 . S
C130 O159 1.244 . S
Zn131 O133 2.046 . S
Zn131 O135 2.055 . S
Zn131 N137 2.036 . S
Zn131 O155 2.066 . S
Zn131 O159 2.053 . S
C132 O129 1.259 . S
C132 O133 1.254 . S
O133 Zn131 2.046 . S
O133 C132 1.254 . S
C134 O155 1.256 . S
C134 O156 1.244 . S
O135 Zn131 2.055 . S
O135 C157 1.259 . S
O136 Zn128 2.046 . S
O136 C157 1.254 . S
N137 Zn131 2.036 . S
N137 C138 1.298 . S
N137 N140 1.398 . S
C138 N137 1.298 . S
C138 N141 1.367 . S
C138 C151 1.481 . S
C139 N140 1.299 . S
C139 N141 1.379 . S
N140 N137 1.398 . S
N140 C139 1.299 . S
N141 C138 1.367 . S
N141 C139 1.379 . S
C142 N144 1.298 . S
C142 N146 1.367 . S
C142 C150 1.481 . S
C143 N145 1.299 . S
C143 N146 1.379 . S
N144 Zn128 2.036 . S
N144 C142 1.298 . S
N144 N145 1.398 . S
N145 C143 1.299 . S
N145 N144 1.398 . S
N146 C142 1.367 . S
N146 C143 1.379 . S
H147 C150 0.980 . S
H148 C150 0.981 . S
H149 C150 0.981 . S
C150 C142 1.481 . S
C150 H147 0.980 . S
C150 H148 0.981 . S
C150 H149 0.981 . S
C151 C138 1.481 . S
C151 H152 0.980 . S
C151 H153 0.981 . S
C151 H154 0.981 . S
H152 C151 0.980 . S
H153 C151 0.981 . S
H154 C151 0.981 . S
O155 Zn131 2.066 . S
O155 C134 1.256 . S
O156 Zn128 2.053 . S
O156 C134 1.244 . S
C157 O135 1.259 . S
C157 O136 1.254 . S
O158 Zn128 2.066 . S
O158 C130 1.256 . S
O159 C130 1.244 . S
O159 Zn131 2.053 . S
Zn160 O161 2.055 . S
Zn160 O168 2.046 . S
Zn160 N176 2.036 . S
Zn160 O188 2.053 . S
Zn160 O190 2.066 . S
O161 Zn160 2.055 . S
O161 C164 1.259 . S
C162 O190 1.256 . S
C162 O191 1.244 . S
Zn163 O165 2.046 . S
Zn163 O167 2.055 . S
Zn163 N169 2.036 . S
Zn163 O187 2.066 . S
Zn163 O191 2.053 . S
C164 O161 1.259 . S
C164 O165 1.254 . S
O165 Zn163 2.046 . S
O165 C164 1.254 . S
C166 O187 1.256 . S
C166 O188 1.244 . S
O167 Zn163 2.055 . S
O167 C189 1.259 . S
O168 Zn160 2.046 . S
O168 C189 1.254 . S
N169 Zn163 2.036 . S
N169 C170 1.298 . S
N169 N172 1.398 . S
C170 N169 1.298 . S
C170 N173 1.367 . S
C170 C183 1.481 . S
C171 N172 1.299 . S
C171 N173 1.379 . S
N172 N169 1.398 . S
N172 C171 1.299 . S
N173 C170 1.367 . S
N173 C171 1.379 . S
C174 N176 1.298 . S
C174 N178 1.367 . S
C174 C182 1.481 . S
C175 N177 1.299 . S
C175 N178 1.379 . S
N176 Zn160 2.036 . S
N176 C174 1.298 . S
N176 N177 1.398 . S
N177 C175 1.299 . S
N177 N176 1.398 . S
N178 C174 1.367 . S
N178 C175 1.379 . S
H179 C182 0.980 . S
H180 C182 0.981 . S
H181 C182 0.981 . S
C182 C174 1.481 . S
C182 H179 0.980 . S
C182 H180 0.981 . S
C182 H181 0.981 . S
C183 C170 1.481 . S
C183 H184 0.980 . S
C183 H185 0.981 . S
C183 H186 0.981 . S
H184 C183 0.980 . S
H185 C183 0.981 . S
H186 C183 0.981 . S
O187 Zn163 2.066 . S
O187 C166 1.256 . S
O188 Zn160 2.053 . S
O188 C166 1.244 . S
C189 O167 1.259 . S
C189 O168 1.254 . S
O190 Zn160 2.066 . S
O190 C162 1.256 . S
O191 C162 1.244 . S
O191 Zn163 2.053 . S
Zn192 O193 2.055 . S
Zn192 O200 2.046 . S
Zn192 N208 2.036 . S
Zn192 O220 2.053 . S
Zn192 O222 2.066 . S
O193 Zn192 2.055 . S
O193 C196 1.259 . S
C194 O222 1.256 . S
C194 O223 1.244 . S
Zn195 O197 2.046 . S
Zn195 O199 2.055 . S
Zn195 N201 2.036 . S
Zn195 O219 2.066 . S
Zn195 O223 2.053 . S
C196 O193 1.259 . S
C196 O197 1.254 . S
O197 Zn195 2.046 . S
O197 C196 1.254 . S
C198 O219 1.256 . S
C198 O220 1.244 . S
O199 Zn195 2.055 . S
O199 C221 1.259 . S
O200 Zn192 2.046 . S
O200 C221 1.254 . S
N201 Zn195 2.036 . S
N201 C202 1.298 . S
N201 N204 1.398 . S
C202 N201 1.298 . S
C202 N205 1.367 . S
C202 C215 1.481 . S
C203 N204 1.299 . S
C203 N205 1.379 . S
N204 N201 1.398 . S
N204 C203 1.299 . S
N205 C202 1.367 . S
N205 C203 1.379 . S
C206 N208 1.298 . S
C206 N210 1.367 . S
C206 C214 1.481 . S
C207 N209 1.299 . S
C207 N210 1.379 . S
N208 Zn192 2.036 . S
N208 C206 1.298 . S
N208 N209 1.398 . S
N209 C207 1.299 . S
N209 N208 1.398 . S
N210 C206 1.367 . S
N210 C207 1.379 . S
H211 C214 0.980 . S
H212 C214 0.981 . S
H213 C214 0.981 . S
C214 C206 1.481 . S
C214 H211 0.980 . S
C214 H212 0.981 . S
C214 H213 0.981 . S
C215 C202 1.481 . S
C215 H216 0.980 . S
C215 H217 0.981 . S
C215 H218 0.981 . S
H216 C215 0.980 . S
H217 C215 0.981 . S
H218 C215 0.981 . S
O219 Zn195 2.066 . S
O219 C198 1.256 . S
O220 Zn192 2.053 . S
O220 C198 1.244 . S
C221 O199 1.259 . S
C221 O200 1.254 . S
O222 Zn192 2.066 . S
O222 C194 1.256 . S
O223 C194 1.244 . S
O223 Zn195 2.053 . S
Zn224 O225 2.055 . S
Zn224 O232 2.046 1_554 S
Zn224 N240 2.036 . S
Zn224 O252 2.053 . S
Zn224 O254 2.066 . S
O225 Zn224 2.055 . S
O225 C228 1.259 . S
C226 O254 1.256 . S
C226 O255 1.244 . S
Zn227 O229 2.046 . S
Zn227 O231 2.055 . S
Zn227 N233 2.036 . S
Zn227 O251 2.066 . S
Zn227 O255 2.053 . S
C228 O225 1.259 . S
C228 O229 1.254 . S
O229 Zn227 2.046 . S
O229 C228 1.254 . S
C230 O251 1.256 . S
C230 O252 1.244 . S
O231 Zn227 2.055 . S
O231 C253 1.259 1_554 S
O232 Zn224 2.046 1_556 S
O232 C253 1.254 . S
N233 Zn227 2.036 . S
N233 C234 1.298 . S
N233 N236 1.398 . S
C234 N233 1.298 . S
C234 N237 1.367 . S
C234 C247 1.481 . S
C235 N236 1.299 . S
C235 N237 1.379 . S
N236 N233 1.398 . S
N236 C235 1.299 . S
N237 C234 1.367 . S
N237 C235 1.379 . S
C238 N240 1.298 . S
C238 N242 1.367 . S
C238 C246 1.481 . S
C239 N241 1.300 . S
C239 N242 1.369 1_556 S
N240 Zn224 2.036 . S
N240 C238 1.298 . S
N240 N241 1.398 1_554 S
N241 C239 1.300 . S
N241 N240 1.398 1_556 S
N242 C238 1.367 . S
N242 C239 1.369 1_554 S
H243 C246 0.980 . S
H244 C246 0.981 . S
H245 C246 0.981 . S
C246 C238 1.481 . S
C246 H243 0.980 . S
C246 H244 0.981 . S
C246 H245 0.981 . S
C247 C234 1.481 . S
C247 H248 0.980 . S
C247 H249 0.981 1_455 S
C247 H250 0.981 . S
H248 C247 0.980 . S
H249 C247 0.981 1_655 S
H250 C247 0.981 . S
O251 Zn227 2.066 . S
O251 C230 1.256 . S
O252 Zn224 2.053 . S
O252 C230 1.244 . S
C253 O231 1.259 1_556 S
C253 O232 1.254 . S
O254 Zn224 2.066 . S
O254 C226 1.256 . S
O255 C226 1.244 . S
O255 Zn227 2.053 . S
Zn256 O257 2.055 . S
Zn256 O264 2.046 . S
Zn256 N272 2.036 . S
Zn256 O284 2.053 . S
Zn256 O286 2.066 . S
O257 Zn256 2.055 . S
O257 C260 1.259 . S
C258 O286 1.256 . S
C258 O287 1.244 . S
Zn259 O261 2.046 . S
Zn259 O263 2.055 . S
Zn259 N265 2.036 . S
Zn259 O283 2.066 . S
Zn259 O287 2.053 . S
C260 O257 1.259 . S
C260 O261 1.254 . S
O261 Zn259 2.046 . S
O261 C260 1.254 . S
C262 O283 1.256 . S
C262 O284 1.244 . S
O263 Zn259 2.055 . S
O263 C285 1.259 . S
O264 Zn256 2.046 . S
O264 C285 1.254 . S
N265 Zn259 2.036 . S
N265 C266 1.298 . S
N265 N268 1.398 . S
C266 N265 1.298 . S
C266 N269 1.367 . S
C266 C279 1.481 . S
C267 N268 1.299 . S
C267 N269 1.379 . S
N268 N265 1.398 . S
N268 C267 1.299 . S
N269 C266 1.367 . S
N269 C267 1.379 . S
C270 N272 1.298 . S
C270 N274 1.367 . S
C270 C278 1.481 . S
C271 N273 1.299 . S
C271 N274 1.379 . S
N272 Zn256 2.036 . S
N272 C270 1.298 . S
N272 N273 1.398 . S
N273 C271 1.299 . S
N273 N272 1.398 . S
N274 C270 1.367 . S
N274 C271 1.379 . S
H275 C278 0.980 . S
H276 C278 0.981 . S
H277 C278 0.981 . S
C278 C270 1.481 . S
C278 H275 0.980 . S
C278 H276 0.981 . S
C278 H277 0.981 . S
C279 C266 1.481 . S
C279 H280 0.980 . S
C279 H281 0.981 . S
C279 H282 0.981 . S
H280 C279 0.980 . S
H281 C279 0.981 . S
H282 C279 0.981 . S
O283 Zn259 2.066 . S
O283 C262 1.256 . S
O284 Zn256 2.053 . S
O284 C262 1.244 . S
C285 O263 1.259 . S
C285 O264 1.254 . S
O286 Zn256 2.066 . S
O286 C258 1.256 . S
O287 C258 1.244 . S
O287 Zn259 2.053 . S
Zn288 O289 2.055 . S
Zn288 O296 2.046 . S
Zn288 N304 2.036 . S
Zn288 O316 2.053 . S
Zn288 O318 2.066 . S
O289 Zn288 2.055 . S
O289 C292 1.259 1_556 S
C290 O318 1.256 . S
C290 O319 1.244 . S
Zn291 O293 2.046 1_556 S
Zn291 O295 2.055 . S
Zn291 N297 2.036 . S
Zn291 O315 2.066 . S
Zn291 O319 2.053 1_565 S
C292 O289 1.259 1_554 S
C292 O293 1.254 1_545 S
O293 Zn291 2.046 1_554 S
O293 C292 1.254 1_565 S
C294 O315 1.256 . S
C294 O316 1.244 1_565 S
O295 Zn291 2.055 . S
O295 C317 1.259 . S
O296 Zn288 2.046 . S
O296 C317 1.254 1_545 S
N297 Zn291 2.036 . S
N297 C298 1.298 . S
N297 N300 1.398 1_556 S
C298 N297 1.298 . S
C298 N301 1.367 . S
C298 C311 1.481 . S
C299 N300 1.300 . S
C299 N301 1.370 1_554 S
N300 N297 1.398 1_554 S
N300 C299 1.300 . S
N301 C298 1.367 . S
N301 C299 1.370 1_556 S
C302 N304 1.298 . S
C302 N306 1.367 . S
C302 C310 1.481 . S
C303 N305 1.299 . S
C303 N306 1.379 . S
N304 Zn288 2.036 . S
N304 C302 1.298 . S
N304 N305 1.398 . S
N305 C303 1.299 . S
N305 N304 1.398 . S
N306 C302 1.367 . S
N306 C303 1.379 . S
H307 C310 0.980 . S
H308 C310 0.981 1_655 S
H309 C310 0.981 . S
C310 C302 1.481 . S
C310 H307 0.980 . S
C310 H308 0.981 1_455 S
C310 H309 0.981 . S
C311 C298 1.481 . S
C311 H312 0.980 . S
C311 H313 0.981 . S
C311 H314 0.981 . S
H312 C311 0.980 . S
H313 C311 0.981 . S
H314 C311 0.981 . S
O315 Zn291 2.066 . S
O315 C294 1.256 . S
O316 Zn288 2.053 . S
O316 C294 1.244 1_545 S
C317 O295 1.259 . S
C317 O296 1.254 1_565 S
O318 Zn288 2.066 . S
O318 C290 1.256 . S
O319 C290 1.244 . S
O319 Zn291 2.053 1_545 S
Zn320 O321 2.055 . S
Zn320 O328 2.046 . S
Zn320 N336 2.036 . S
Zn320 O348 2.053 . S
Zn320 O350 2.066 . S
O321 Zn320 2.055 . S
O321 C324 1.259 . S
C322 O350 1.256 . S
C322 O351 1.244 . S
Zn323 O325 2.046 . S
Zn323 O327 2.055 . S
Zn323 N329 2.036 . S
Zn323 O347 2.066 . S
Zn323 O351 2.053 . S
C324 O321 1.259 . S
C324 O325 1.254 . S
O325 Zn323 2.046 . S
O325 C324 1.254 . S
C326 O347 1.256 . S
C326 O348 1.244 . S
O327 Zn323 2.055 . S
O327 C349 1.259 . S
O328 Zn320 2.046 . S
O328 C349 1.254 . S
N329 Zn323 2.036 . S
N329 C330 1.298 . S
N329 N332 1.398 . S
C330 N329 1.298 . S
C330 N333 1.367 . S
C330 C343 1.481 . S
C331 N332 1.299 . S
C331 N333 1.379 . S
N332 N329 1.398 . S
N332 C331 1.299 . S
N333 C330 1.367 . S
N333 C331 1.379 . S
C334 N336 1.298 . S
C334 N338 1.367 . S
C334 C342 1.481 . S
C335 N337 1.299 . S
C335 N338 1.379 . S
N336 Zn320 2.036 . S
N336 C334 1.298 . S
N336 N337 1.398 . S
N337 C335 1.299 . S
N337 N336 1.398 . S
N338 C334 1.367 . S
N338 C335 1.379 . S
H339 C342 0.980 . S
H340 C342 0.981 . S
H341 C342 0.981 . S
C342 C334 1.481 . S
C342 H339 0.980 . S
C342 H340 0.981 . S
C342 H341 0.981 . S
C343 C330 1.481 . S
C343 H344 0.980 . S
C343 H345 0.981 . S
C343 H346 0.981 . S
H344 C343 0.980 . S
H345 C343 0.981 . S
H346 C343 0.981 . S
O347 Zn323 2.066 . S
O347 C326 1.256 . S
O348 Zn320 2.053 . S
O348 C326 1.244 . S
C349 O327 1.259 . S
C349 O328 1.254 . S
O350 Zn320 2.066 . S
O350 C322 1.256 . S
O351 C322 1.244 . S
O351 Zn323 2.053 . S
Zn352 O353 2.055 . S
Zn352 O360 2.046 . S
Zn352 N368 2.036 . S
Zn352 O380 2.053 1_545 S
Zn352 O382 2.066 . S
O353 Zn352 2.055 . S
O353 C356 1.259 . S
C354 O382 1.256 . S
C354 O383 1.244 1_545 S
Zn355 O357 2.046 . S
Zn355 O359 2.055 . S
Zn355 N361 2.036 . S
Zn355 O379 2.066 . S
Zn355 O383 2.053 . S
C356 O353 1.259 . S
C356 O357 1.254 1_545 S
O357 Zn355 2.046 . S
O357 C356 1.254 1_565 S
C358 O379 1.256 . S
C358 O380 1.244 . S
O359 Zn355 2.055 . S
O359 C381 1.259 . S
O360 Zn352 2.046 . S
O360 C381 1.254 1_545 S
N361 Zn355 2.036 . S
N361 C362 1.298 . S
N361 N364 1.398 . S
C362 N361 1.298 . S
C362 N365 1.367 . S
C362 C375 1.481 . S
C363 N364 1.299 . S
C363 N365 1.379 . S
N364 N361 1.398 . S
N364 C363 1.299 . S
N365 C362 1.367 . S
N365 C363 1.379 . S
C366 N368 1.298 . S
C366 N370 1.367 . S
C366 C374 1.481 . S
C367 N369 1.299 . S
C367 N370 1.379 . S
N368 Zn352 2.036 . S
N368 C366 1.298 . S
N368 N369 1.398 . S
N369 C367 1.299 . S
N369 N368 1.398 . S
N370 C366 1.367 . S
N370 C367 1.379 . S
H371 C374 0.980 . S
H372 C374 0.981 . S
H373 C374 0.981 . S
C374 C366 1.481 . S
C374 H371 0.980 . S
C374 H372 0.981 . S
C374 H373 0.981 . S
C375 C362 1.481 . S
C375 H376 0.980 . S
C375 H377 0.981 . S
C375 H378 0.981 . S
H376 C375 0.980 . S
H377 C375 0.981 . S
H378 C375 0.981 . S
O379 Zn355 2.066 . S
O379 C358 1.256 . S
O380 Zn352 2.053 1_565 S
O380 C358 1.244 . S
C381 O359 1.259 . S
C381 O360 1.254 1_565 S
O382 Zn352 2.066 . S
O382 C354 1.256 . S
O383 C354 1.244 1_565 S
O383 Zn355 2.053 . S
Zn384 O385 2.055 . S
Zn384 O392 2.046 . S
Zn384 N400 2.036 . S
Zn384 O412 2.053 . S
Zn384 O414 2.066 . S
O385 Zn384 2.055 . S
O385 C388 1.259 . S
C386 O414 1.256 . S
C386 O415 1.244 . S
Zn387 O389 2.046 . S
Zn387 O391 2.055 . S
Zn387 N393 2.036 . S
Zn387 O411 2.066 . S
Zn387 O415 2.053 . S
C388 O385 1.259 . S
C388 O389 1.254 . S
O389 Zn387 2.046 . S
O389 C388 1.254 . S
C390 O411 1.256 . S
C390 O412 1.244 . S
O391 Zn387 2.055 . S
O391 C413 1.259 . S
O392 Zn384 2.046 . S
O392 C413 1.254 . S
N393 Zn387 2.036 . S
N393 C394 1.298 . S
N393 N396 1.398 . S
C394 N393 1.298 . S
C394 N397 1.367 . S
C394 C407 1.481 . S
C395 N396 1.299 . S
C395 N397 1.379 . S
N396 N393 1.398 . S
N396 C395 1.299 . S
N397 C394 1.367 . S
N397 C395 1.379 . S
C398 N400 1.298 . S
C398 N402 1.367 . S
C398 C406 1.481 . S
C399 N401 1.299 . S
C399 N402 1.379 . S
N400 Zn384 2.036 . S
N400 C398 1.298 . S
N400 N401 1.398 . S
N401 C399 1.299 . S
N401 N400 1.398 . S
N402 C398 1.367 . S
N402 C399 1.379 . S
H403 C406 0.980 . S
H404 C406 0.981 . S
H405 C406 0.981 . S
C406 C398 1.481 . S
C406 H403 0.980 . S
C406 H404 0.981 . S
C406 H405 0.981 . S
C407 C394 1.481 . S
C407 H408 0.980 . S
C407 H409 0.981 . S
C407 H410 0.981 . S
H408 C407 0.980 . S
H409 C407 0.981 . S
H410 C407 0.981 . S
O411 Zn387 2.066 . S
O411 C390 1.256 . S
O412 Zn384 2.053 . S
O412 C390 1.244 . S
C413 O391 1.259 . S
C413 O392 1.254 . S
O414 Zn384 2.066 . S
O414 C386 1.256 . S
O415 C386 1.244 . S
O415 Zn387 2.053 . S
Zn416 O417 2.055 . S
Zn416 O424 2.046 . S
Zn416 N432 2.036 . S
Zn416 O444 2.053 . S
Zn416 O446 2.066 . S
O417 Zn416 2.055 . S
O417 C420 1.259 1_554 S
C418 O446 1.256 . S
C418 O447 1.244 . S
Zn419 O421 2.046 1_554 S
Zn419 O423 2.055 . S
Zn419 N425 2.036 . S
Zn419 O443 2.066 . S
Zn419 O447 2.053 1_545 S
C420 O417 1.259 1_556 S
C420 O421 1.254 1_565 S
O421 Zn419 2.046 1_556 S
O421 C420 1.254 1_545 S
C422 O443 1.256 . S
C422 O444 1.244 1_545 S
O423 Zn419 2.055 . S
O423 C445 1.259 . S
O424 Zn416 2.046 . S
O424 C445 1.254 1_565 S
N425 Zn419 2.036 . S
N425 C426 1.298 . S
N425 N428 1.398 1_554 S
C426 N425 1.298 . S
C426 N429 1.367 . S
C426 C439 1.481 . S
C427 N428 1.300 . S
C427 N429 1.370 1_556 S
N428 N425 1.398 1_556 S
N428 C427 1.300 . S
N429 C426 1.367 . S
N429 C427 1.370 1_554 S
C430 N432 1.298 . S
C430 N434 1.367 . S
C430 C438 1.481 . S
C431 N433 1.299 . S
C431 N434 1.379 . S
N432 Zn416 2.036 . S
N432 C430 1.298 . S
N432 N433 1.398 . S
N433 C431 1.299 . S
N433 N432 1.398 . S
N434 C430 1.367 . S
N434 C431 1.379 . S
H435 C438 0.980 . S
H436 C438 0.981 1_455 S
H437 C438 0.981 . S
C438 C430 1.481 . S
C438 H435 0.980 . S
C438 H436 0.981 1_655 S
C438 H437 0.981 . S
C439 C426 1.481 . S
C439 H440 0.980 . S
C439 H441 0.981 . S
C439 H442 0.981 . S
H440 C439 0.980 . S
H441 C439 0.981 . S
H442 C439 0.981 . S
O443 Zn419 2.066 . S
O443 C422 1.256 . S
O444 Zn416 2.053 . S
O444 C422 1.244 1_565 S
C445 O423 1.259 . S
C445 O424 1.254 1_545 S
O446 Zn416 2.066 . S
O446 C418 1.256 . S
O447 C418 1.244 . S
O447 Zn419 2.053 1_565 S
Zn448 O449 2.055 . S
Zn448 O456 2.046 . S
Zn448 N464 2.036 . S
Zn448 O476 2.053 . S
Zn448 O478 2.066 . S
O449 Zn448 2.055 . S
O449 C452 1.259 . S
C450 O478 1.256 . S
C450 O479 1.244 . S
Zn451 O453 2.046 . S
Zn451 O455 2.055 . S
Zn451 N457 2.036 . S
Zn451 O475 2.066 . S
Zn451 O479 2.053 . S
C452 O449 1.259 . S
C452 O453 1.254 . S
O453 Zn451 2.046 . S
O453 C452 1.254 . S
C454 O475 1.256 . S
C454 O476 1.244 . S
O455 Zn451 2.055 . S
O455 C477 1.259 . S
O456 Zn448 2.046 . S
O456 C477 1.254 . S
N457 Zn451 2.036 . S
N457 C458 1.298 . S
N457 N460 1.398 . S
C458 N457 1.298 . S
C458 N461 1.367 . S
C458 C471 1.481 . S
C459 N460 1.299 . S
C459 N461 1.379 . S
N460 N457 1.398 . S
N460 C459 1.299 . S
N461 C458 1.367 . S
N461 C459 1.379 . S
C462 N464 1.298 . S
C462 N466 1.367 . S
C462 C470 1.481 . S
C463 N465 1.299 . S
C463 N466 1.379 . S
N464 Zn448 2.036 . S
N464 C462 1.298 . S
N464 N465 1.398 . S
N465 C463 1.299 . S
N465 N464 1.398 . S
N466 C462 1.367 . S
N466 C463 1.379 . S
H467 C470 0.980 . S
H468 C470 0.981 . S
H469 C470 0.981 . S
C470 C462 1.481 . S
C470 H467 0.980 . S
C470 H468 0.981 . S
C470 H469 0.981 . S
C471 C458 1.481 . S
C471 H472 0.980 . S
C471 H473 0.981 . S
C471 H474 0.981 . S
H472 C471 0.980 . S
H473 C471 0.981 . S
H474 C471 0.981 . S
O475 Zn451 2.066 . S
O475 C454 1.256 . S
O476 Zn448 2.053 . S
O476 C454 1.244 . S
C477 O455 1.259 . S
C477 O456 1.254 . S
O478 Zn448 2.066 . S
O478 C450 1.256 . S
O479 C450 1.244 . S
O479 Zn451 2.053 . S
Zn480 O481 2.055 . S
Zn480 O488 2.046 . S
Zn480 N496 2.036 . S
Zn480 O508 2.053 1_565 S
Zn480 O510 2.066 . S
O481 Zn480 2.055 . S
O481 C484 1.259 . S
C482 O510 1.256 . S
C482 O511 1.244 1_565 S
Zn483 O485 2.046 . S
Zn483 O487 2.055 . S
Zn483 N489 2.036 . S
Zn483 O507 2.066 . S
Zn483 O511 2.053 . S
C484 O481 1.259 . S
C484 O485 1.254 1_565 S
O485 Zn483 2.046 . S
O485 C484 1.254 1_545 S
C486 O507 1.256 . S
C486 O508 1.244 . S
O487 Zn483 2.055 . S
O487 C509 1.259 . S
O488 Zn480 2.046 . S
O488 C509 1.254 1_565 S
N489 Zn483 2.036 . S
N489 C490 1.298 . S
N489 N492 1.398 . S
C490 N489 1.298 . S
C490 N493 1.367 . S
C490 C503 1.481 . S
C491 N492 1.299 . S
C491 N493 1.379 . S
N492 N489 1.398 . S
N492 C491 1.299 . S
N493 C490 1.367 . S
N493 C491 1.379 . S
C494 N496 1.298 . S
C494 N498 1.367 . S
C494 C502 1.481 . S
C495 N497 1.299 . S
C495 N498 1.379 . S
N496 Zn480 2.036 . S
N496 C494 1.298 . S
N496 N497 1.398 . S
N497 C495 1.299 . S
N497 N496 1.398 . S
N498 C494 1.367 . S
N498 C495 1.379 . S
H499 C502 0.980 . S
H500 C502 0.981 . S
H501 C502 0.981 . S
C502 C494 1.481 . S
C502 H499 0.980 . S
C502 H500 0.981 . S
C502 H501 0.981 . S
C503 C490 1.481 . S
C503 H504 0.980 . S
C503 H505 0.981 . S
C503 H506 0.981 . S
H504 C503 0.980 . S
H505 C503 0.981 . S
H506 C503 0.981 . S
O507 Zn483 2.066 . S
O507 C486 1.256 . S
O508 Zn480 2.053 1_545 S
O508 C486 1.244 . S
C509 O487 1.259 . S
C509 O488 1.254 1_545 S
O510 Zn480 2.066 . S
O510 C482 1.256 . S
O511 C482 1.244 1_545 S
O511 Zn483 2.053 . S
C4 C413 1.926 . S
C189 C36 1.926 . S
C68 C452 1.926 . S
C125 C253 1.926 1_654 S
C157 C260 1.926 . S
C349 C196 1.926 . S
C420 C292 1.926 1_666 S
C381 C509 1.926 1_565 S
C290 C6 2.287 1_556 S
C38 C326 2.287 . S
C70 C358 2.287 . S
C258 C98 2.287 . S
C418 C130 2.287 1_554 S
C450 C162 2.287 . S
C198 C486 2.287 . S
C390 C226 2.287 . S
C262 C34 2.287 . S
C294 C66 2.287 . S
C322 C102 2.287 1_554 S
C2 C354 2.287 . S
C166 C386 2.287 . S
C422 C194 2.287 . S
C230 C454 2.287 1_554 S
C482 C134 2.287 . S
N18 N333 1.492 . S
N50 N365 1.492 . S
N274 N82 1.492 1_655 S
N109 N306 1.492 1_655 S
N141 N466 1.492 . S
N173 N493 1.492 . S
N397 N210 1.492 1_455 S
N237 N434 1.492 1_455 S
C29 N242 1.146 . S
N402 C61 1.146 . S
C93 N178 1.146 . S
C100 N461 1.146 1_655 S
C132 N114 1.146 . S
N269 C164 1.146 . S
C221 N45 1.146 . S
N338 C228 1.146 1_655 S
C285 N498 1.146 . S
N146 C317 1.146 1_655 S
N429 C324 1.146 . S
C356 N205 1.146 . S
C388 N370 1.146 . S
C445 N13 1.146 1_655 S
N301 C477 1.146 . S
N77 C484 1.146 . S
