# Generated by pormake.
# Topology wkj, (6)-cn, num edge types: 1
# Building blocks:
#     Node 0, Type 0, BuildingBlock: CUWYAW_clean_sbu_0, # of connection points: 6
#     Node 1, Type 0, BuildingBlock: CUWYAW_clean_sbu_0, # of connection points: 6
#     Node 2, Type 0, BuildingBlock: CUWYAW_clean_sbu_0, # of connection points: 6
#     Node 3, Type 0, BuildingBlock: CUWYAW_clean_sbu_0, # of connection points: 6
#     Node 4, Type 0, BuildingBlock: CUWYAW_clean_sbu_0, # of connection points: 6
#     Node 5, Type 0, BuildingBlock: CUWYAW_clean_sbu_0, # of connection points: 6
#     Node 6, Type 0, BuildingBlock: CUWYAW_clean_sbu_0, # of connection points: 6
#     Node 7, Type 0, BuildingBlock: CUWYAW_clean_sbu_0, # of connection points: 6
#     Node 8, Type 0, BuildingBlock: CUWYAW_clean_sbu_0, # of connection points: 6
#     Node 9, Type 0, BuildingBlock: CUWYAW_clean_sbu_0, # of connection points: 6
#     Node 10, Type 0, BuildingBlock: CUWYAW_clean_sbu_0, # of connection points: 6
#     Node 11, Type 0, BuildingBlock: CUWYAW_clean_sbu_0, # of connection points: 6
#     Edge 12, Type (0, 0), BuildingBlock: KIFKEQ_clean_linker_1, # of connection points: 2
#     Edge 13, Type (0, 0), BuildingBlock: KIFKEQ_clean_linker_1, # of connection points: 2
#     Edge 14, Type (0, 0), BuildingBlock: KIFKEQ_clean_linker_1, # of connection points: 2
#     Edge 15, Type (0, 0), BuildingBlock: KIFKEQ_clean_linker_1, # of connection points: 2
#     Edge 16, Type (0, 0), BuildingBlock: KIFKEQ_clean_linker_1, # of connection points: 2
#     Edge 17, Type (0, 0), BuildingBlock: KIFKEQ_clean_linker_1, # of connection points: 2
#     Edge 18, Type (0, 0), BuildingBlock: KIFKEQ_clean_linker_1, # of connection points: 2
#     Edge 19, Type (0, 0), BuildingBlock: KIFKEQ_clean_linker_1, # of connection points: 2
#     Edge 20, Type (0, 0), BuildingBlock: KIFKEQ_clean_linker_1, # of connection points: 2
#     Edge 21, Type (0, 0), BuildingBlock: KIFKEQ_clean_linker_1, # of connection points: 2
#     Edge 22, Type (0, 0), BuildingBlock: KIFKEQ_clean_linker_1, # of connection points: 2
#     Edge 23, Type (0, 0), BuildingBlock: KIFKEQ_clean_linker_1, # of connection points: 2
#     Edge 24, Type (0, 0), BuildingBlock: KIFKEQ_clean_linker_1, # of connection points: 2
#     Edge 25, Type (0, 0), BuildingBlock: KIFKEQ_clean_linker_1, # of connection points: 2
#     Edge 26, Type (0, 0), BuildingBlock: KIFKEQ_clean_linker_1, # of connection points: 2
#     Edge 27, Type (0, 0), BuildingBlock: KIFKEQ_clean_linker_1, # of connection points: 2
#     Edge 28, Type (0, 0), BuildingBlock: KIFKEQ_clean_linker_1, # of connection points: 2
#     Edge 29, Type (0, 0), BuildingBlock: KIFKEQ_clean_linker_1, # of connection points: 2
#     Edge 30, Type (0, 0), BuildingBlock: KIFKEQ_clean_linker_1, # of connection points: 2
#     Edge 31, Type (0, 0), BuildingBlock: KIFKEQ_clean_linker_1, # of connection points: 2
#     Edge 32, Type (0, 0), BuildingBlock: KIFKEQ_clean_linker_1, # of connection points: 2
#     Edge 33, Type (0, 0), BuildingBlock: KIFKEQ_clean_linker_1, # of connection points: 2
#     Edge 34, Type (0, 0), BuildingBlock: KIFKEQ_clean_linker_1, # of connection points: 2
#     Edge 35, Type (0, 0), BuildingBlock: KIFKEQ_clean_linker_1, # of connection points: 2
#     Edge 36, Type (0, 0), BuildingBlock: KIFKEQ_clean_linker_1, # of connection points: 2
#     Edge 37, Type (0, 0), BuildingBlock: KIFKEQ_clean_linker_1, # of connection points: 2
#     Edge 38, Type (0, 0), BuildingBlock: KIFKEQ_clean_linker_1, # of connection points: 2
#     Edge 39, Type (0, 0), BuildingBlock: KIFKEQ_clean_linker_1, # of connection points: 2
#     Edge 40, Type (0, 0), BuildingBlock: KIFKEQ_clean_linker_1, # of connection points: 2
#     Edge 41, Type (0, 0), BuildingBlock: KIFKEQ_clean_linker_1, # of connection points: 2
#     Edge 42, Type (0, 0), BuildingBlock: KIFKEQ_clean_linker_1, # of connection points: 2
#     Edge 43, Type (0, 0), BuildingBlock: KIFKEQ_clean_linker_1, # of connection points: 2
#     Edge 44, Type (0, 0), BuildingBlock: KIFKEQ_clean_linker_1, # of connection points: 2
#     Edge 45, Type (0, 0), BuildingBlock: KIFKEQ_clean_linker_1, # of connection points: 2
#     Edge 46, Type (0, 0), BuildingBlock: KIFKEQ_clean_linker_1, # of connection points: 2
#     Edge 47, Type (0, 0), BuildingBlock: KIFKEQ_clean_linker_1, # of connection points: 2
# Relax obj value: 0.783
# Max RMSD: 0.182
# Mean RMSD: 0.182
data_MOF--net-wkj--node1-CUWYAW_clean_sbu_0--edge1-KIFKEQ_clean_linker_1
_symmetry_space_group_name_H-M    P1
_symmetry_Int_Tables_number       1
_symmetry_cell_setting            triclinic
loop_
_symmetry_equiv_pos_as_xyz
'x, y, z'
_cell_length_a     50.486063
_cell_length_b     51.130359
_cell_length_c     30.683519
_cell_angle_alpha  89.284477
_cell_angle_beta   90.647272
_cell_angle_gamma 120.11385
loop_
_atom_site_label
_atom_site_type_symbol
_atom_site_fract_x
_atom_site_fract_y
_atom_site_fract_z
_atom_type_partial_charge
C0 C 0.58397 0.14334 0.32834 0.0
Eu1 Eu 0.5266 0.10557 0.34402 0.0
C2 C 0.59657 0.16745 0.29537 0.0
C3 C 0.57722 0.16671 0.2618 0.0
C4 C 0.5865 0.19135 0.23394 0.0
C5 C 0.61533 0.21752 0.23912 0.0
C6 C 0.63505 0.2181 0.27234 0.0
C7 C 0.62556 0.19324 0.30064 0.0
C8 C 0.49343 0.04751 0.36983 0.0
C9 C 0.47573 0.06623 0.26854 0.0
C10 C 0.40862 0.06573 0.38441 0.0
Eu11 Eu 0.46725 0.08901 0.3707 0.0
C12 C 0.38688 0.05297 0.42024 0.0
C13 C 0.35661 0.04626 0.41368 0.0
C14 C 0.33589 0.03539 0.44816 0.0
C15 C 0.34533 0.03131 0.48966 0.0
C16 C 0.3757 0.03777 0.49583 0.0
C17 C 0.39635 0.04855 0.46134 0.0
C18 C 0.49907 0.14961 0.34892 0.0
C19 C 0.51533 0.10046 0.45508 0.0
O20 O 0.56835 0.14767 0.35816 0.0
O21 O 0.56972 0.11555 0.31377 0.0
O22 O 0.51197 0.05552 0.33681 0.0
O23 O 0.49574 0.07027 0.38727 0.0
O24 O 0.50571 0.08408 0.27601 0.0
O25 O 0.45698 0.06473 0.30066 0.0
O26 O 0.42094 0.05005 0.37152 0.0
O27 O 0.42851 0.09448 0.3872 0.0
O28 O 0.48416 0.13811 0.3846 0.0
O29 O 0.49883 0.12832 0.32686 0.0
O30 O 0.48603 0.09064 0.44322 0.0
O31 O 0.53521 0.10792 0.42178 0.0
H32 H 0.55449 0.14727 0.25776 0.0
H33 H 0.57105 0.18967 0.20792 0.0
H34 H 0.65747 0.23785 0.27682 0.0
H35 H 0.64048 0.1944 0.32712 0.0
H36 H 0.34911 0.04973 0.382 0.0
H37 H 0.31268 0.03067 0.44257 0.0
H38 H 0.38345 0.03424 0.52726 0.0
H39 H 0.4197 0.05362 0.46677 0.0
C40 C 0.42987 0.56607 0.64873 0.0
Eu41 Eu 0.40353 0.51251 0.68454 0.0
C42 C 0.41636 0.5852 0.64025 0.0
C43 C 0.42859 0.60752 0.60778 0.0
C44 C 0.41074 0.6187 0.58947 0.0
C45 C 0.38023 0.6072 0.60291 0.0
C46 C 0.36946 0.58752 0.63901 0.0
C47 C 0.38745 0.57663 0.65761 0.0
C48 C 0.42572 0.47995 0.72576 0.0
C49 C 0.39517 0.46254 0.6082 0.0
C50 C 0.31613 0.40283 0.72905 0.0
Eu51 Eu 0.35818 0.45652 0.70228 0.0
C52 C 0.30307 0.38562 0.76912 0.0
C53 C 0.27596 0.35763 0.76687 0.0
C54 C 0.26369 0.34023 0.80453 0.0
C55 C 0.27841 0.35071 0.84493 0.0
C56 C 0.3052 0.37928 0.84706 0.0
C57 C 0.31742 0.39664 0.8094 0.0
C58 C 0.33399 0.48754 0.65953 0.0
C59 C 0.39222 0.5069 0.78821 0.0
O60 O 0.43385 0.56143 0.68952 0.0
O61 O 0.41711 0.54107 0.62645 0.0
O62 O 0.43677 0.50872 0.7304 0.0
O63 O 0.406 0.47029 0.69599 0.0
O64 O 0.41098 0.49132 0.62098 0.0
O65 O 0.37268 0.44366 0.63522 0.0
O66 O 0.34418 0.40997 0.72024 0.0
O67 O 0.31115 0.42509 0.72155 0.0
O68 O 0.33191 0.46265 0.6464 0.0
O69 O 0.35287 0.49735 0.69152 0.0
O70 O 0.37252 0.4782 0.77514 0.0
O71 O 0.40585 0.52673 0.75632 0.0
H72 H 0.45075 0.61422 0.59384 0.0
H73 H 0.41962 0.63361 0.56139 0.0
H74 H 0.34609 0.57829 0.64998 0.0
H75 H 0.37762 0.55934 0.68273 0.0
H76 H 0.26455 0.34902 0.73586 0.0
H77 H 0.24298 0.31842 0.80196 0.0
H78 H 0.31744 0.38775 0.87755 0.0
H79 H 0.33838 0.41829 0.81156 0.0
C80 C 0.84767 0.42415 1.00911 0.0
Eu81 Eu 0.87589 0.39411 1.0243 0.0
C82 C 0.82567 0.4205 0.97481 0.0
C83 C 0.82318 0.40344 0.93807 0.0
C84 C 0.79913 0.39511 0.90872 0.0
C85 C 0.77685 0.40343 0.91565 0.0
C86 C 0.77995 0.42152 0.95163 0.0
C87 C 0.80416 0.4298 0.98132 0.0
C88 C 0.93239 0.40885 1.05857 0.0
C89 C 0.91064 0.3823 0.94715 0.0
C90 C 0.89524 0.30411 1.06124 0.0
Eu91 Eu 0.88034 0.3457 1.04695 0.0
C92 C 0.90568 0.29321 1.09811 0.0
C93 C 0.91557 0.27242 1.0913 0.0
C94 C 0.92642 0.26259 0.12628 0.0
C95 C 0.92731 0.27338 0.16848 0.0
C96 C 0.91691 0.29394 0.17505 0.0
C97 C 0.90623 0.3038 0.14013 0.0
C98 C 0.82115 0.32444 1.01981 0.0
C99 C 0.87116 0.38356 0.13274 0.0
O100 O 0.83746 0.40098 1.03571 0.0
O101 O 0.87585 0.4337 0.9967 0.0
O102 O 0.92866 0.42398 1.02699 0.0
O103 O 0.90667 0.38967 1.07166 0.0
O104 O 0.89702 0.3978 0.95688 0.0
O105 O 0.90758 0.36128 0.97725 0.0
O106 O 0.91441 0.33133 1.04731 0.0
O107 O 0.86744 0.29933 1.0639 0.0
O108 O 0.82934 0.31865 1.057 0.0
O109 O 0.84525 0.34496 1.00028 0.0
O110 O 0.87679 0.36126 1.12083 0.0
O111 O 0.86911 0.39942 1.09931 0.0
H112 H 0.83928 0.39565 0.93283 0.0
H113 H 0.79783 0.38185 0.88067 0.0
H114 H 0.76321 0.42838 0.9575 0.0
H115 H 0.80551 0.44256 1.01001 0.0
H116 H 0.91521 0.26407 1.05889 0.0
H117 H 0.9343 0.24678 1.12033 0.0
H118 H 0.91798 0.30322 0.20699 0.0
H119 H 0.89882 0.32002 0.14578 0.0
C120 C 0.39144 0.79302 0.33165 0.0
Eu121 Eu 0.4377 0.84771 0.34211 0.0
C122 C 0.38337 0.76628 0.30464 0.0
C123 C 0.36099 0.75797 0.27198 0.0
C124 C 0.35608 0.7356 0.24213 0.0
C125 C 0.37349 0.72107 0.24432 0.0
C126 C 0.39374 0.72731 0.27959 0.0
C127 C 0.39853 0.74963 0.30966 0.0
C128 C 0.43078 0.89411 0.3518 0.0
C129 C 0.48209 0.8994 0.26915 0.0
C130 C 0.54803 0.92672 0.3903 0.0
Eu131 Eu 0.49136 0.88629 0.37197 0.0
C132 C 0.57088 0.93024 0.42333 0.0
C133 C 0.60135 0.94114 0.41102 0.0
C134 C 0.62361 0.94595 0.44244 0.0
C135 C 0.61574 0.9401 0.48677 0.0
C136 C 0.58488 0.92822 0.49859 0.0
C137 C 0.56268 0.92314 0.46721 0.0
C138 C 0.48502 0.82966 0.35384 0.0
C139 C 0.44548 0.8633 0.45387 0.0
O140 O 0.41294 0.80019 0.36098 0.0
O141 O 0.39382 0.81679 0.31144 0.0
O142 O 0.42158 0.87739 0.31724 0.0
O143 O 0.4476 0.88863 0.37754 0.0
O144 O 0.45924 0.87055 0.27294 0.0
O145 O 0.49546 0.91219 0.30657 0.0
O146 O 0.52435 0.92804 0.40393 0.0
O147 O 0.54051 0.90529 0.3621 0.0
O148 O 0.49182 0.8422 0.392 0.0
O149 O 0.4793 0.84616 0.32942 0.0
O150 O 0.47469 0.88007 0.4435 0.0
O151 O 0.42675 0.84845 0.4198 0.0
H152 H 0.34846 0.76994 0.26804 0.0
H153 H 0.34048 0.7316 0.21518 0.0
H154 H 0.40721 0.71625 0.28237 0.0
H155 H 0.41518 0.75477 0.33547 0.0
H156 H 0.60801 0.9464 0.37718 0.0
H157 H 0.64703 0.95475 0.43209 0.0
H158 H 0.57792 0.92399 0.53239 0.0
H159 H 0.53924 0.9144 0.4775 0.0
C160 C 0.54157 0.40837 0.67127 0.0
Eu161 Eu 0.57088 0.46603 0.68595 0.0
C162 C 0.54895 0.3923 0.63862 0.0
C163 C 0.56242 0.40717 0.59943 0.0
C164 C 0.57804 0.39714 0.57386 0.0
C165 C 0.58071 0.37213 0.58698 0.0
C166 C 0.56545 0.35587 0.62459 0.0
C167 C 0.54983 0.36609 0.65053 0.0
C168 C 0.55679 0.50657 0.72276 0.0
C169 C 0.58328 0.51321 0.60825 0.0
C170 C 0.66391 0.5747 0.71973 0.0
Eu171 Eu 0.62101 0.51862 0.70674 0.0
C172 C 0.67604 0.59564 0.75624 0.0
C173 C 0.69721 0.62623 0.74859 0.0
C174 C 0.7078 0.64666 0.78311 0.0
C175 C 0.69737 0.63662 0.82569 0.0
C176 C 0.67657 0.60571 0.83313 0.0
C177 C 0.66597 0.5854 0.79867 0.0
C178 C 0.64052 0.48026 0.68021 0.0
C179 C 0.58386 0.47078 0.79331 0.0
O180 O 0.56294 0.4211 0.70095 0.0
O181 O 0.53185 0.42637 0.65682 0.0
O182 O 0.54034 0.48764 0.69227 0.0
O183 O 0.57698 0.50072 0.73352 0.0
O184 O 0.56657 0.48431 0.61895 0.0
O185 O 0.60539 0.53071 0.63728 0.0
O186 O 0.63609 0.56676 0.7074 0.0
O187 O 0.66849 0.55181 0.72162 0.0
O188 O 0.6475 0.49453 0.71671 0.0
O189 O 0.62008 0.48423 0.66072 0.0
O190 O 0.60643 0.49874 0.7808 0.0
O191 O 0.5669 0.45325 0.76063 0.0
H192 H 0.56262 0.42774 0.58983 0.0
H193 H 0.58889 0.40958 0.54431 0.0
H194 H 0.56691 0.3363 0.63498 0.0
H195 H 0.54011 0.35469 0.68117 0.0
H196 H 0.70516 0.63438 0.71586 0.0
H197 H 0.72379 0.6703 0.77648 0.0
H198 H 0.66755 0.59737 0.86539 0.0
H199 H 0.64945 0.56183 0.80496 0.0
C200 C 0.12779 0.54827 1.0089 0.0
Eu201 Eu 0.094 0.57222 1.02313 0.0
C202 C 0.15168 0.55737 0.97592 0.0
C203 C 0.15066 0.57327 0.93907 0.0
C204 C 0.17592 0.58801 0.91202 0.0
C205 C 0.20298 0.58746 0.92131 0.0
C206 C 0.20369 0.57054 0.95731 0.0
C207 C 0.17821 0.5558 0.98478 0.0
C208 C 0.03601 0.55193 1.05503 0.0
C209 C 0.05692 0.58212 0.94583 0.0
C210 C 0.06467 0.65567 1.05689 0.0
Eu211 Eu 0.08418 0.61747 1.0458 0.0
C212 C 0.04903 0.6637 1.08933 0.0
C213 C 0.03431 0.67958 1.0762 0.0
C214 C 0.01867 0.68687 1.10658 0.0
C215 C 0.01782 0.67851 0.15052 0.0
C216 C 0.03289 0.66279 0.16351 0.0
C217 C 0.0483 0.65535 0.13311 0.0
C218 C 0.14438 0.64331 1.02106 0.0
C219 C 0.09625 0.58095 0.13163 0.0
O220 O 0.13452 0.56921 1.03791 0.0
O221 O 0.0995 0.53628 0.99459 0.0
O222 O 0.04186 0.53826 1.02422 0.0
O223 O 0.06077 0.57258 1.06889 0.0
O224 O 0.07433 0.57013 0.95421 0.0
O225 O 0.05618 0.60001 0.97732 0.0
O226 O 0.04842 0.62937 1.03862 0.0
O227 O 0.09218 0.66137 1.06697 0.0
O228 O 0.13461 0.64805 1.05706 0.0
O229 O 0.12142 0.62201 1.00068 0.0
O230 O 0.08781 0.60138 1.11952 0.0
O231 O 0.10092 0.56707 1.09851 0.0
H232 H 0.13071 0.57537 0.93208 0.0
H233 H 0.17427 0.60007 0.88378 0.0
H234 H 0.22414 0.56949 0.96488 0.0
H235 H 0.17961 0.5442 1.01373 0.0
H236 H 0.03471 0.68612 1.04237 0.0
H237 H 0.00721 0.69892 1.09578 0.0
H238 H 0.03202 0.65546 0.19701 0.0
H239 H 0.05935 0.64283 0.14365 0.0
C240 C 0.85304 0.40716 0.60546 0.0
Eu241 Eu 0.88332 0.46078 0.57033 0.0
C242 C 0.81996 0.39023 0.61374 0.0
C243 C 0.80827 0.36915 0.64789 0.0
C244 C 0.77911 0.35994 0.66424 0.0
C245 C 0.76162 0.37219 0.64707 0.0
C246 C 0.77213 0.39082 0.60995 0.0
C247 C 0.80108 0.39969 0.59329 0.0
C248 C 0.94148 0.49412 0.53749 0.0
C249 C 0.92412 0.51218 0.64598 0.0
C250 C 0.91136 0.57065 0.51594 0.0
Eu251 Eu 0.89595 0.51712 0.54726 0.0
C252 C 0.90638 0.58478 0.47727 0.0
C253 C 0.90574 0.61169 0.48182 0.0
C254 C 0.90485 0.62757 0.44499 0.0
C255 C 0.90479 0.6168 0.40303 0.0
C256 C 0.90344 0.58872 0.39888 0.0
C257 C 0.90412 0.5728 0.43569 0.0
C258 C 0.83977 0.48729 0.58743 0.0
C259 C 0.87849 0.46473 0.46485 0.0
O260 O 0.86107 0.41164 0.56464 0.0
O261 O 0.86793 0.43181 0.62819 0.0
O262 O 0.92396 0.46521 0.53293 0.0
O263 O 0.92871 0.50323 0.56279 0.0
O264 O 0.90678 0.4827 0.63771 0.0
O265 O 0.92565 0.53085 0.61345 0.0
O266 O 0.92754 0.55749 0.51079 0.0
O267 O 0.88784 0.55516 0.54101 0.0
O268 O 0.86254 0.51307 0.59913 0.0
O269 O 0.84887 0.47649 0.55744 0.0
O270 O 0.88429 0.49263 0.47631 0.0
O271 O 0.87538 0.44643 0.49775 0.0
H272 H 0.82258 0.36181 0.66425 0.0
H273 H 0.77176 0.34587 0.6933 0.0
H274 H 0.75914 0.4006 0.5963 0.0
H275 H 0.80971 0.41601 0.5668 0.0
H276 H 0.90713 0.62103 0.51383 0.0
H277 H 0.90551 0.64888 0.44933 0.0
H278 H 0.90387 0.57988 0.36719 0.0
H279 H 0.9043 0.55188 0.43154 0.0
C280 C 0.43639 0.86636 0.90374 0.0
Eu281 Eu 0.40398 0.8928 0.89403 0.0
C282 C 0.43244 0.8417 0.93277 0.0
C283 C 0.41518 0.83572 0.9708 0.0
C284 C 0.40582 0.80894 0.99399 0.0
C285 C 0.41317 0.78738 0.97934 0.0
C286 C 0.43148 0.79393 0.9421 0.0
C287 C 0.4409 0.82089 0.91881 0.0
C288 C 0.41756 0.94762 0.85596 0.0
C289 C 0.39639 0.92902 0.97307 0.0
C290 C 0.31132 0.91057 0.86744 0.0
Eu291 Eu 0.35424 0.89652 0.87787 0.0
C292 C 0.29562 0.91468 0.82996 0.0
C293 C 0.27701 0.92748 0.83539 0.0
C294 C 0.2648 0.93452 0.79897 0.0
C295 C 0.27118 0.92888 0.75672 0.0
C296 C 0.28869 0.91465 0.75185 0.0
C297 C 0.30079 0.90763 0.78815 0.0
C298 C 0.33414 0.8379 0.90182 0.0
C299 C 0.38521 0.88223 0.7884 0.0
O300 O 0.41421 0.85804 0.87544 0.0
O301 O 0.44386 0.89226 0.92174 0.0
O302 O 0.4343 0.94473 0.88605 0.0
O303 O 0.39694 0.92178 0.84648 0.0
O304 O 0.41203 0.91601 0.96081 0.0
O305 O 0.3731 0.92459 0.94603 0.0
O306 O 0.34037 0.93048 0.87093 0.0
O307 O 0.30591 0.88315 0.87425 0.0
O308 O 0.3269 0.84671 0.86633 0.0
O309 O 0.35548 0.86128 0.92157 0.0
O310 O 0.36373 0.88861 0.80265 0.0
O311 O 0.40385 0.88227 0.81948 0.0
H312 H 0.40789 0.8512 0.98165 0.0
H313 H 0.39243 0.80497 1.02321 0.0
H314 H 0.43754 0.77779 0.93013 0.0
H315 H 0.45367 0.8249 0.88893 0.0
H316 H 0.2728 0.93295 0.86764 0.0
H317 H 0.25131 0.94532 0.80376 0.0
H318 H 0.29469 0.91056 0.71989 0.0
H319 H 0.31522 0.89782 0.78348 0.0
C320 C 0.5681 0.43798 0.24698 0.0
Eu321 Eu 0.50951 0.40927 0.23261 0.0
C322 C 0.58451 0.4299 0.27926 0.0
C323 C 0.56897 0.41422 0.31697 0.0
C324 C 0.57999 0.39896 0.3422 0.0
C325 C 0.6067 0.3988 0.33023 0.0
C326 C 0.62333 0.41591 0.29389 0.0
C327 C 0.61208 0.43116 0.26824 0.0
C328 C 0.46766 0.42347 0.19724 0.0
C329 C 0.46292 0.3975 0.31024 0.0
C330 C 0.39858 0.31843 0.20137 0.0
Eu331 Eu 0.45589 0.36036 0.21216 0.0
C332 C 0.37531 0.30668 0.167 0.0
C333 C 0.34436 0.28912 0.17821 0.0
C334 C 0.32171 0.2795 0.14596 0.0
C335 C 0.32986 0.28724 1.10211 0.0
C336 C 0.36106 0.30419 1.09103 0.0
C337 C 0.38362 0.31392 0.12327 0.0
C338 C 0.49458 0.34004 0.23718 0.0
C339 C 0.50331 0.39696 0.1254 0.0
O340 O 0.55489 0.41751 0.21687 0.0
O341 O 0.55004 0.44729 0.26198 0.0
O342 O 0.48741 0.43953 0.22735 0.0
O343 O 0.47379 0.40404 0.18553 0.0
O344 O 0.49214 0.41355 0.29965 0.0
O345 O 0.44476 0.3759 0.28136 0.0
O346 O 0.40724 0.34574 0.21439 0.0
O347 O 0.42157 0.3139 0.19674 0.0
O348 O 0.47932 0.33374 0.20112 0.0
O349 O 0.49141 0.36029 0.25727 0.0
O350 O 0.47494 0.37497 0.13789 0.0
O351 O 0.52151 0.41337 0.15798 0.0
H352 H 0.54733 0.41231 0.32571 0.0
H353 H 0.56715 0.38667 0.37079 0.0
H354 H 0.64416 0.41639 0.28437 0.0
H355 H 0.62399 0.44255 0.23863 0.0
H356 H 0.3377 0.28343 0.21199 0.0
H357 H 0.29787 0.26651 0.15533 0.0
H358 H 0.36803 0.3111 1.05763 0.0
H359 H 0.40747 0.32771 1.11421 0.0
C360 C 0.10572 0.55626 0.58268 0.0
Eu361 Eu 0.07804 0.49858 0.568 0.0
C362 C 0.13069 0.57318 0.61389 0.0
C363 C 0.13183 0.55867 0.65232 0.0
C364 C 0.1589 0.57013 0.67617 0.0
C365 C 0.18558 0.59621 0.66199 0.0
C366 C 0.18404 0.61185 0.62498 0.0
C367 C 0.15675 0.60023 0.60085 0.0
C368 C 0.02324 0.45786 0.52752 0.0
C369 C 0.04336 0.45158 0.64574 0.0
C370 C 0.06348 0.39175 0.53518 0.0
Eu371 Eu 0.07618 0.44739 0.54813 0.0
C372 C 0.057 0.37163 0.49824 0.0
C373 C 0.04953 0.3416 0.50554 0.0
C374 C 0.0416 0.32174 0.47056 0.0
C375 C 0.04114 0.33179 0.42785 0.0
C376 C 0.0495 0.36224 0.42079 0.0
C377 C 0.05737 0.382 0.45572 0.0
C378 C 0.13489 0.48658 0.57393 0.0
C379 C 0.08862 0.49599 0.46183 0.0
O380 O 0.11361 0.54423 0.55185 0.0
O381 O 0.07865 0.53733 0.59867 0.0
O382 O 0.02542 0.47611 0.55845 0.0
O383 O 0.04968 0.46418 0.51864 0.0
O384 O 0.05511 0.48029 0.63455 0.0
O385 O 0.04843 0.43456 0.61721 0.0
O386 O 0.04287 0.39926 0.54328 0.0
O387 O 0.09118 0.41475 0.53743 0.0
O388 O 0.12687 0.47226 0.53746 0.0
O389 O 0.11062 0.48223 0.59385 0.0
O390 O 0.08291 0.46798 0.4741 0.0
O391 O 0.08846 0.51282 0.49438 0.0
H392 H 0.11231 0.53745 0.66265 0.0
H393 H 0.15912 0.55807 0.70535 0.0
H394 H 0.20419 0.63216 0.61367 0.0
H395 H 0.1565 0.61136 0.57069 0.0
H396 H 0.04927 0.33338 0.53835 0.0
H397 H 0.03534 0.29846 0.47695 0.0
H398 H 0.04873 0.37056 0.38844 0.0
H399 H 0.06301 0.40515 0.44968 0.0
C400 C 0.53456 0.10891 0.90817 0.0
Eu401 Eu 0.56069 0.07678 0.89752 0.0
C402 C 0.54414 0.13452 0.93762 0.0
C403 C 0.56101 0.13614 0.97509 0.0
C404 C 0.57776 0.16334 0.997 0.0
C405 C 0.57827 0.18965 0.98178 0.0
C406 C 0.55998 0.1877 0.94572 0.0
C407 C 0.54318 0.16029 0.92352 0.0
C408 C 0.5432 0.02102 0.86197 0.0
C409 C 0.56688 0.03777 0.97515 0.0
C410 C 0.64856 0.0509 0.86827 0.0
Eu411 Eu 0.60871 0.06869 0.8798 0.0
C412 C 0.6625 0.0459 0.83008 0.0
C413 C 0.68159 0.03346 0.83481 0.0
C414 C 0.69289 0.02652 0.79793 0.0
C415 C 0.68517 0.03197 0.75591 0.0
C416 C 0.66672 0.04532 0.75169 0.0
C417 C 0.65554 0.05224 0.78841 0.0
C418 C 0.63178 0.12778 0.90421 0.0
C419 C 0.57738 0.08466 0.79104 0.0
O420 O 0.55481 0.11447 0.87809 0.0
O421 O 0.52409 0.08208 0.926 0.0
O422 O 0.52694 0.02524 0.89079 0.0
O423 O 0.56465 0.04624 0.85155 0.0
O424 O 0.55455 0.05462 0.96532 0.0
O425 O 0.58755 0.03891 0.94627 0.0
O426 O 0.61922 0.03249 0.87244 0.0
O427 O 0.65606 0.07884 0.87538 0.0
O428 O 0.63857 0.11885 0.86904 0.0
O429 O 0.61011 0.10454 0.92375 0.0
O430 O 0.59805 0.07684 0.80505 0.0
O431 O 0.56023 0.0865 0.82227 0.0
H432 H 0.5627 0.11679 0.98605 0.0
H433 H 0.59094 0.16392 1.02547 0.0
H434 H 0.55977 0.20758 0.93359 0.0
H435 H 0.53089 0.15962 0.894 0.0
H436 H 0.68716 0.02849 0.86692 0.0
H437 H 0.70711 0.01637 0.80226 0.0
H438 H 0.65964 0.04917 0.71995 0.0
H439 H 0.6407 0.06171 0.78423 0.0
C440 C 0.41118 0.54084 0.24449 0.0
Eu441 Eu 0.46964 0.5695 0.22921 0.0
C442 C 0.39418 0.54634 0.27809 0.0
C443 C 0.40988 0.56261 0.31524 0.0
C444 C 0.39636 0.57377 0.34302 0.0
C445 C 0.36694 0.56918 0.33408 0.0
C446 C 0.35064 0.55176 0.29784 0.0
C447 C 0.36433 0.5406 0.26976 0.0
C448 C 0.50994 0.55436 0.19288 0.0
C449 C 0.51737 0.58082 0.30622 0.0
C450 C 0.58016 0.65924 0.19266 0.0
Eu451 Eu 0.52318 0.61788 0.20725 0.0
C452 C 0.60058 0.67084 0.15518 0.0
C453 C 0.63127 0.69325 0.16099 0.0
C454 C 0.6511 0.70381 0.12541 0.0
C455 C 0.64035 0.69212 1.0836 0.0
C456 C 0.60934 0.66998 1.07802 0.0
C457 C 0.58962 0.65942 1.11354 0.0
C458 C 0.4867 0.63941 0.23611 0.0
C459 C 0.47385 0.58161 1.12131 0.0
O460 O 0.42443 0.56315 0.21655 0.0
O461 O 0.42932 0.53085 0.25781 0.0
O462 O 0.49102 0.53877 0.22404 0.0
O463 O 0.50402 0.57417 0.18121 0.0
O464 O 0.48794 0.56513 0.29618 0.0
O465 O 0.53536 0.60208 0.27656 0.0
O466 O 0.57162 0.63158 0.2047 0.0
O467 O 0.55747 0.6645 0.19216 0.0
O468 O 0.50005 0.64529 0.19871 0.0
O469 O 0.4897 0.61833 0.25478 0.0
O470 O 0.50233 0.60374 0.13337 0.0
O471 O 0.45627 0.56517 0.15446 0.0
H472 H 0.43315 0.56782 0.32182 0.0
H473 H 0.40922 0.58644 0.37132 0.0
H474 H 0.3279 0.54777 0.29037 0.0
H475 H 0.35216 0.52863 0.24066 0.0
H476 H 0.63995 0.7023 0.19308 0.0
H477 H 0.67484 0.72088 0.13062 0.0
H478 H 0.60049 0.66001 1.04643 0.0
H479 H 0.56596 0.64202 1.10865 0.0
H480 H 0.52028 0.1795 0.2678 0.0
H481 H 0.48833 0.18966 0.39248 0.0
H482 H 0.52432 0.22723 0.24321 0.0
H483 H 0.49085 0.23603 0.36792 0.0
H484 H 0.50715 0.32883 0.32386 0.0
H485 H 0.51255 0.2861 0.35027 0.0
H486 H 0.502 0.25352 0.21844 0.0
H487 H 0.49816 0.29631 0.19267 0.0
C488 C 0.51407 0.19176 0.29009 0.0
C489 C 0.50381 0.18002 0.3323 0.0
C490 C 0.51608 0.21938 0.27585 0.0
C491 C 0.50765 0.23642 0.30302 0.0
C492 C 0.49805 0.2247 0.34548 0.0
C493 C 0.49633 0.19745 0.35968 0.0
C494 C 0.5065 0.31282 0.30049 0.0
C495 C 0.50202 0.31652 0.25586 0.0
C496 C 0.50921 0.28773 0.31568 0.0
C497 C 0.50741 0.26513 0.28699 0.0
C498 C 0.50397 0.26978 0.24233 0.0
C499 C 0.5015 0.29471 0.22732 0.0
H500 H 0.29922 0.4734 0.5857 0.0
H501 H 0.30836 0.51512 0.71013 0.0
H502 H 0.25388 0.47692 0.56941 0.0
H503 H 0.26216 0.51869 0.69384 0.0
H504 H 0.15495 0.4852 0.66073 0.0
H505 H 0.20419 0.48937 0.68322 0.0
H506 H 0.23546 0.50993 0.5504 0.0
H507 H 0.18709 0.5056 0.52848 0.0
C508 C 0.29185 0.48382 0.60957 0.0
C509 C 0.30818 0.49416 0.64918 0.0
C510 C 0.2655 0.48592 0.60013 0.0
C511 C 0.25356 0.49818 0.62999 0.0
C512 C 0.27002 0.50887 0.66976 0.0
C513 C 0.29694 0.50714 0.67901 0.0
C514 C 0.17259 0.49129 0.63654 0.0
C515 C 0.16645 0.49496 0.59246 0.0
C516 C 0.20104 0.49356 0.64942 0.0
C517 C 0.22428 0.49933 0.61869 0.0
C518 C 0.21842 0.50459 0.57532 0.0
C519 C 0.19041 0.50242 0.56267 0.0
H520 H 0.80724 0.30198 0.93407 0.0
H521 H 0.76651 0.28884 1.06059 0.0
H522 H 0.76144 0.25654 0.90811 0.0
H523 H 0.72022 0.24446 1.03481 0.0
H524 H 0.64769 0.14749 0.99157 0.0
H525 H 0.69124 0.19508 1.01743 0.0
H526 H 0.71336 0.22645 0.88428 0.0
H527 H 0.67103 0.17881 0.85923 0.0
C528 C 0.7882 0.28999 0.95616 0.0
C529 C 0.79105 0.29987 0.9996 0.0
C530 C 0.76143 0.26341 0.94127 0.0
C531 C 0.73595 0.24544 0.9689 0.0
C532 C 0.73873 0.25627 1.01193 0.0
C533 C 0.76554 0.28246 1.02683 0.0
C534 C 0.66161 0.16469 0.96786 0.0
C535 C 0.65526 0.15866 0.92299 0.0
C536 C 0.68705 0.19247 0.9827 0.0
C537 C 0.70728 0.21573 0.95345 0.0
C538 C 0.69982 0.20976 0.90871 0.0
C539 C 0.67479 0.18208 0.89405 0.0
H540 H 0.48777 0.6874 0.19553 0.0
H541 H 0.47708 0.64942 0.32453 0.0
H542 H 0.48799 0.7309 0.22413 0.0
H543 H 0.47538 0.6932 0.35413 0.0
H544 H 0.4712 0.80353 0.27306 0.0
H545 H 0.46893 0.75789 0.24809 0.0
H546 H 0.49466 0.74265 0.37653 0.0
H547 H 0.49611 0.78881 0.4017 0.0
C548 C 0.48486 0.68794 0.23037 0.0
C549 C 0.48247 0.66416 0.25719 0.0
C550 C 0.48467 0.7134 0.24721 0.0
C551 C 0.48146 0.71676 0.29222 0.0
C552 C 0.47831 0.69252 0.31939 0.0
C553 C 0.47892 0.66685 0.3023 0.0
C554 C 0.47648 0.79062 0.29621 0.0
C555 C 0.48399 0.80055 0.3396 0.0
C556 C 0.47533 0.7639 0.28167 0.0
C557 C 0.48177 0.74536 0.30952 0.0
C558 C 0.48912 0.75531 0.35334 0.0
C559 C 0.49021 0.78225 0.368 0.0
H560 H 0.67582 0.46267 0.72412 0.0
H561 H 0.65977 0.48228 0.59282 0.0
H562 H 0.71999 0.45983 0.70031 0.0
H563 H 0.70498 0.4797 0.56844 0.0
H564 H 0.78477 0.45743 0.53827 0.0
H565 H 0.73441 0.45166 0.55635 0.0
H566 H 0.77105 0.49479 0.67979 0.0
H567 H 0.8204 0.50044 0.66178 0.0
C568 C 0.6814 0.466 0.68976 0.0
C569 C 0.66371 0.47281 0.66078 0.0
C570 C 0.70729 0.46467 0.67601 0.0
C571 C 0.71725 0.47024 0.63232 0.0
C572 C 0.69855 0.47533 0.60242 0.0
C573 C 0.67232 0.4767 0.6164 0.0
C574 C 0.78188 0.46521 0.56955 0.0
C575 C 0.80708 0.47918 0.59864 0.0
C576 C 0.75291 0.46222 0.57984 0.0
C577 C 0.74789 0.47264 0.61988 0.0
C578 C 0.77311 0.48595 0.64893 0.0
C579 C 0.80183 0.48928 0.63848 0.0
H580 H 0.28743 0.79087 0.85868 0.0
H581 H 0.32572 0.81399 0.98802 0.0
H582 H 0.24482 0.74426 0.8856 0.0
H583 H 0.28326 0.76595 1.01545 0.0
H584 H 0.18805 0.69334 1.06326 0.0
H585 H 0.2339 0.73706 1.03655 0.0
H586 H 0.21797 0.69578 0.90983 0.0
H587 H 0.17057 0.65205 0.93682 0.0
C588 C 0.28716 0.78587 0.89313 0.0
C589 C 0.31059 0.80704 0.92084 0.0
C590 C 0.26231 0.75846 0.9088 0.0
C591 C 0.25933 0.75022 0.95333 0.0
C592 C 0.28351 0.77094 0.98107 0.0
C593 C 0.30849 0.79874 0.96524 0.0
C594 C 0.19412 0.69326 1.02954 0.0
C595 C 0.17471 0.66859 1.00248 0.0
C596 C 0.22112 0.71877 1.01403 0.0
C597 C 0.23076 0.72121 0.97041 0.0
C598 C 0.2118 0.69596 0.9434 0.0
C599 C 0.18437 0.67031 0.95901 0.0
H600 H 0.56374 0.23242 1.00674 0.0
H601 H 0.63757 0.21306 1.00719 0.0
H602 H 0.58921 0.26911 1.06431 0.0
H603 H 0.66174 0.2471 1.06649 0.0
H604 H 0.67093 0.25046 0.19823 0.0
H605 H 0.67745 0.27313 0.12637 0.0
H606 H 0.58648 0.26136 0.13454 0.0
H607 H 0.58186 0.2421 0.20733 0.0
C608 C 0.58575 0.23645 1.01867 0.0
C609 C 0.59773 0.21849 1.00477 0.0
C610 C 0.60027 0.25721 1.05233 0.0
C611 C 0.62606 0.25907 1.0739 0.0
C612 C 0.64108 0.24558 1.05334 0.0
C613 C 0.62699 0.22548 1.01919 0.0
C614 C 0.65299 0.25412 0.18529 0.0
C615 C 0.62489 0.24241 0.2068 0.0
C616 C 0.65639 0.2666 0.14346 0.0
C617 C 0.63103 0.26563 1.12189 0.0
C618 C 0.60602 0.26071 0.1479 0.0
C619 C 0.60308 0.24928 0.19012 0.0
H620 H 0.30896 0.54256 0.36836 0.0
H621 H 0.39519 0.62633 0.36562 0.0
H622 H 0.29389 0.55964 0.43237 0.0
H623 H 0.3818 0.64252 0.43066 0.0
H624 H 0.3843 0.65687 0.56033 0.0
H625 H 0.36297 0.65452 0.48791 0.0
H626 H 0.30746 0.55725 0.5015 0.0
H627 H 0.3268 0.56019 0.57391 0.0
C628 C 0.3244 0.56493 0.38088 0.0
C629 C 0.35388 0.5825 0.36356 0.0
C630 C 0.31595 0.57469 0.41794 0.0
C631 C 0.33726 0.60169 0.43893 0.0
C632 C 0.36468 0.62125 0.41687 0.0
C633 C 0.37279 0.61177 0.37957 0.0
C634 C 0.3663 0.63528 0.54844 0.0
C635 C 0.35831 0.60858 0.57179 0.0
C636 C 0.35431 0.63376 0.50662 0.0
C637 C 0.3355 0.60543 0.48698 0.0
C638 C 0.32275 0.57957 0.51415 0.0
C639 C 0.33398 0.5812 0.55632 0.0
H640 H 0.7413 0.34699 0.88359 0.0
H641 H 0.75372 0.43674 0.87723 0.0
H642 H 0.71412 0.33465 0.81559 0.0
H643 H 0.72388 0.42385 0.80993 0.0
H644 H 0.7112 0.32406 0.68471 0.0
H645 H 0.68913 0.32718 0.75326 0.0
H646 H 0.74038 0.42491 0.74289 0.0
H647 H 0.75945 0.42126 0.67352 0.0
C648 C 0.73718 0.3638 0.86809 0.0
C649 C 0.75117 0.39335 0.88414 0.0
C650 C 0.72102 0.35664 0.82889 0.0
C651 C 0.71834 0.37893 0.80486 0.0
C652 C 0.72717 0.40663 0.82569 0.0
C653 C 0.74399 0.41401 0.86471 0.0
C654 C 0.71629 0.34604 0.69631 0.0
C655 C 0.73807 0.37245 0.675 0.0
C656 C 0.7041 0.34799 0.73604 0.0
C657 C 0.71523 0.37634 0.75617 0.0
C658 C 0.73199 0.40247 0.73018 0.0
C659 C 0.74317 0.40047 0.68979 0.0
H660 H 0.35617 0.75152 1.01239 0.0
H661 H 0.44414 0.75747 1.00073 0.0
H662 H 0.34229 0.71448 1.06969 0.0
H663 H 0.42944 0.7182 1.05634 0.0
H664 H 0.42515 0.72874 0.20623 0.0
H665 H 0.43077 0.72583 0.12941 0.0
H666 H 0.33222 0.67462 1.11438 0.0
H667 H 0.32686 0.67928 0.19232 0.0
C668 C 0.37224 0.74416 1.02135 0.0
C669 C 0.40185 0.75857 1.00386 0.0
C670 C 0.36406 0.72227 1.05388 0.0
C671 C 0.38527 0.71405 1.06947 0.0
C672 C 0.41299 0.7249 1.04667 0.0
C673 C 0.4214 0.7473 1.01448 0.0
C674 C 0.40462 0.71565 0.18707 0.0
C675 C 0.37561 0.70572 0.20492 0.0
C676 C 0.40779 0.71384 0.14235 0.0
C677 C 0.38188 0.70181 1.11482 0.0
C678 C 0.35275 0.68578 0.13424 0.0
C679 C 0.3496 0.68819 0.17901 0.0
H680 H 0.57234 0.34032 0.35638 0.0
H681 H 0.66384 0.41679 0.36429 0.0
H682 H 0.58018 0.32019 0.42306 0.0
H683 H 0.67326 0.3954 0.42995 0.0
H684 H 0.63914 0.4089 0.56076 0.0
H685 H 0.66065 0.40266 0.4952 0.0
H686 H 0.58828 0.30891 0.48945 0.0
H687 H 0.56546 0.31654 0.55409 0.0
C688 C 0.59472 0.3522 0.37177 0.0
C689 C 0.6167 0.38112 0.35722 0.0
C690 C 0.59954 0.34051 0.41031 0.0
C691 C 0.6265 0.35772 0.43501 0.0
C692 C 0.65114 0.38282 0.41416 0.0
C693 C 0.64601 0.39498 0.376 0.0
C694 C 0.62823 0.38675 0.54588 0.0
C695 C 0.59959 0.36384 0.56041 0.0
C696 C 0.64073 0.38287 0.50801 0.0
C697 C 0.62458 0.35595 0.48388 0.0
C698 C 0.59997 0.33085 0.50477 0.0
C699 C 0.587 0.33497 0.54231 0.0
H700 H 0.22715 0.64465 0.88889 0.0
H701 H 0.23906 0.56691 0.88637 0.0
H702 H 0.25032 0.66027 0.81859 0.0
H703 H 0.26537 0.58398 0.81707 0.0
H704 H 0.20994 0.56233 0.69102 0.0
H705 H 0.24224 0.57326 0.75386 0.0
H706 H 0.26231 0.66623 0.74969 0.0
H707 H 0.22721 0.65388 0.68838 0.0
C708 C 0.23594 0.63151 0.87375 0.0
C709 C 0.22916 0.60336 0.8912 0.0
C710 C 0.24964 0.64058 0.83302 0.0
C711 C 0.25678 0.62151 0.80913 0.0
C712 C 0.25735 0.59769 0.83223 0.0
C713 C 0.24273 0.58807 0.87256 0.0
C714 C 0.22161 0.58524 0.70333 0.0
C715 C 0.2143 0.60662 0.68716 0.0
C716 C 0.24069 0.59185 0.73957 0.0
C717 C 0.25275 0.62007 0.76042 0.0
C718 C 0.25122 0.6434 0.73737 0.0
C719 C 0.23141 0.63654 0.70159 0.0
H720 H 0.36738 0.95534 1.02384 0.0
H721 H 0.44991 0.95063 1.02513 0.0
H722 H 0.38463 -0.01385 1.09064 0.0
H723 H 0.46726 0.98148 1.09094 0.0
H724 H 0.50726 0.05718 0.19885 0.0
H725 H 0.48871 0.02662 0.13257 0.0
H726 H 0.396 -0.00229 0.1683 0.0
H727 H 0.41467 0.02837 0.23493 0.0
C728 C 0.3893 0.96063 1.03772 0.0
C729 C 0.40657 0.94927 1.01654 0.0
C730 C 0.3995 0.97876 1.07728 0.0
C731 C 0.42819 -0.01225 1.09888 0.0
C732 C 0.44538 0.97646 1.07732 0.0
C733 C 0.43499 0.95801 1.03842 0.0
C734 C 0.48277 0.04451 0.19324 0.0
C735 C 0.4632 0.04658 0.22468 0.0
C736 C 0.47177 0.02618 0.15419 0.0
C737 C 0.4401 0.00822 0.14238 0.0
C738 C 0.42048 0.0105 0.17371 0.0
C739 C 0.43149 0.02859 0.21315 0.0
H740 H 0.40421 0.36902 0.35414 0.0
H741 H 0.4948 0.44509 0.36973 0.0
H742 H 0.38833 0.38307 0.42154 0.0
H743 H 0.47925 0.45916 0.43627 0.0
H744 H 0.44482 0.4945 0.54994 0.0
H745 H 0.45928 0.47932 0.48318 0.0
H746 H 0.3809 0.39011 0.49587 0.0
H747 H 0.36653 0.40558 0.56318 0.0
C748 C 0.42112 0.3888 0.37146 0.0
C749 C 0.45139 0.40536 0.3541 0.0
C750 C 0.41184 0.39712 0.41135 0.0
C751 C 0.43185 0.42296 0.43721 0.0
C752 C 0.46202 0.4394 0.41943 0.0
C753 C 0.47131 0.43095 0.38005 0.0
C754 C 0.43031 0.47148 0.5391 0.0
C755 C 0.40399 0.45186 0.56442 0.0
C756 C 0.43894 0.46239 0.49962 0.0
C757 C 0.42194 0.43279 0.48122 0.0
C758 C 0.3954 0.41315 0.50651 0.0
C759 C 0.38693 0.42221 0.54638 0.0
H760 H 0.01607 0.39374 0.69171 0.0
H761 H 0.0248 0.48122 0.70457 0.0
H762 H -0.01369 0.37716 0.75992 0.0
H763 H -0.00461 0.46501 0.77182 0.0
H764 H 0.92503 0.42884 0.88551 0.0
H765 H 0.95451 0.44341 0.81833 0.0
H766 H 0.97219 0.36997 0.83589 0.0
H767 H 0.94233 0.35539 0.90406 0.0
C768 C 0.01193 0.40982 0.70852 0.0
C769 C 0.02397 0.43946 0.69006 0.0
C770 C -0.00558 0.40011 0.7489 0.0
C771 C -0.013 0.41899 0.77426 0.0
C772 C -0.00089 0.44854 0.75543 0.0
C773 C 0.01675 0.45826 0.71559 0.0
C774 C 0.93499 0.41538 0.87577 0.0
C775 C 0.93009 0.39037 0.90284 0.0
C776 C 0.95268 0.42414 0.83598 0.0
C777 C 0.9672 0.40863 0.81873 0.0
C778 C 0.96213 0.38332 0.84563 0.0
C779 C 0.94455 0.37469 0.88598 0.0
H780 H 0.47625 0.8816 0.17869 0.0
H781 H 0.51531 0.96249 0.25497 0.0
H782 H 0.49651 0.91261 1.11177 0.0
H783 H 0.53463 -0.00669 0.18863 0.0
H784 H 0.54756 0.04739 1.05651 0.0
H785 H 0.52882 0.01589 1.12247 0.0
H786 H 0.53872 0.94654 1.06024 0.0
H787 H 0.55929 0.97905 0.99474 0.0
C788 C 0.48887 0.90595 0.1819 0.0
C789 C 0.49337 0.91847 0.22459 0.0
C790 C 0.50099 0.92425 0.14254 0.0
C791 C 0.51799 0.95668 0.14227 0.0
C792 C 0.52194 0.969 0.18498 0.0
C793 C 0.51056 0.95078 0.2242 0.0
C794 C 0.54631 0.02563 1.05637 0.0
C795 C 0.55606 0.0171 1.01826 0.0
C796 C 0.5351 0.00697 1.09524 0.0
C797 C 0.5312 0.97735 1.09911 0.0
C798 C 0.54054 0.96854 1.06066 0.0
C799 C 0.55289 -0.01224 1.02218 0.0
H800 H 0.53473 0.48274 0.5485 0.0
H801 H 0.61334 0.57126 0.56324 0.0
H802 H 0.52097 0.49865 0.48098 0.0
H803 H 0.59957 0.58752 0.4947 0.0
H804 H 0.57655 0.60868 0.35007 0.0
H805 H 0.59246 0.59446 0.4186 0.0
H806 H 0.50093 0.51964 0.43453 0.0
H807 H 0.48541 0.5338 0.367 0.0
C808 C 0.54948 0.50585 0.53781 0.0
C809 C 0.57565 0.52507 0.56385 0.0
C810 C 0.54123 0.51537 0.49784 0.0
C811 C 0.55846 0.54509 0.47949 0.0
C812 C 0.58492 0.56441 0.50538 0.0
C813 C 0.59305 0.55489 0.54591 0.0
C814 C 0.55954 0.58913 0.36788 0.0
C815 C 0.5291 0.5729 0.35056 0.0
C816 C 0.56884 0.58073 0.40841 0.0
C817 C 0.54865 0.55517 0.4349 0.0
C818 C 0.51832 0.53912 0.41717 0.0
C819 C 0.50904 0.54763 0.3772 0.0
H820 H 0.07157 0.57283 0.86068 0.0
H821 H -0.00373 0.57092 0.92724 0.0
H822 H 0.04159 0.55823 0.79235 0.0
H823 H 0.96554 0.55447 0.85931 0.0
H824 H 0.91109 0.48734 0.73177 0.0
H825 H 0.94084 0.50449 0.80024 0.0
H826 H 0.01333 0.5798 0.73207 0.0
H827 H 0.98278 0.56365 0.66408 0.0
C828 C 0.04863 0.56946 0.86136 0.0
C829 C 0.03752 0.57403 0.90154 0.0
C830 C 0.031 0.56082 0.8212 0.0
C831 C 0.00016 0.55464 0.81807 0.0
C832 C -0.01123 0.55866 0.85844 0.0
C833 C 0.00687 0.56849 0.89829 0.0
C834 C 0.93321 0.50784 0.73081 0.0
C835 C 0.94342 0.52373 0.69025 0.0
C836 C 0.95067 0.51792 0.77106 0.0
C837 C 0.98045 0.54409 0.77393 0.0
C838 C -0.00906 0.55966 0.73318 0.0
C839 C 0.97296 0.55023 0.69326 0.0
H840 H 0.46167 0.00627 0.30675 0.0
H841 H 0.45822 0.02874 0.44087 0.0
H842 H 0.41098 0.96295 0.31318 0.0
H843 H 0.40706 -0.01463 0.44797 0.0
H844 H 0.38212 0.89373 0.31045 0.0
H845 H 0.35723 0.92145 0.33392 0.0
H846 H 0.40089 0.93631 0.45832 0.0
H847 H 0.42784 0.91059 0.43564 0.0
C848 C 0.45008 0.00151 0.33781 0.0
C849 C 0.46439 0.01945 0.374 0.0
C850 C 0.42047 0.97714 0.34152 0.0
C851 C 0.40523 0.96943 0.38229 0.0
C852 C 0.41836 -0.01008 0.41669 0.0
C853 C 0.448 0.01415 0.41298 0.0
C854 C 0.3868 0.90317 0.34291 0.0
C855 C 0.41036 0.90399 0.36912 0.0
C856 C 0.37145 0.91786 0.35713 0.0
C857 C 0.38404 0.93702 0.3931 0.0
C858 C 0.39624 0.92661 0.42603 0.0
C859 C 0.41251 0.91272 0.41281 0.0
H860 H 0.45647 0.44861 0.71718 0.0
H861 H 0.40495 0.46548 0.81209 0.0
H862 H 0.49253 0.45418 0.7744 0.0
H863 H 0.44595 0.48048 0.86441 0.0
H864 H 0.57178 0.51431 0.81003 0.0
H865 H 0.53101 0.49686 0.86287 0.0
H866 H 0.48231 0.52381 0.77555 0.0
H867 H 0.51637 0.52873 0.71563 0.0
C868 C 0.45206 0.45261 0.7502 0.0
C869 C 0.43021 0.46109 0.75856 0.0
C870 C 0.47278 0.4559 0.78347 0.0
C871 C 0.47446 0.47314 0.82027 0.0
C872 C 0.44712 0.47083 0.83375 0.0
C873 C 0.42437 0.46395 0.80253 0.0
C874 C 0.55151 0.51493 0.80089 0.0
C875 C 0.54446 0.51754 0.75684 0.0
C876 C 0.529 0.50668 0.83239 0.0
C877 C 0.50125 0.50408 0.81964 0.0
C878 C 0.50182 0.52124 0.78277 0.0
C879 C 0.52122 0.5242 0.74845 0.0
H880 H 0.93027 0.39602 0.14594 0.0
H881 H -0.00551 0.44928 1.04525 0.0
H882 H 0.95407 0.4387 0.19461 0.0
H883 H 0.02415 0.4874 1.09987 0.0
H884 H 0.97508 0.50837 1.03953 0.0
H885 H 0.94454 0.47074 1.09487 0.0
H886 H 0.0118 0.52186 0.19254 0.0
H887 H 0.03602 0.5638 0.14196 0.0
C888 C 0.95051 0.4161 0.13483 0.0
C889 C 0.95791 0.4216 1.09009 0.0
C890 C 0.96498 0.44003 0.1638 0.0
C891 C -0.0123 0.46774 0.14747 0.0
C892 C 0.00386 0.46694 1.11053 0.0
C893 C -0.01306 0.4453 1.07881 0.0
C894 C 0.98189 0.51277 1.07346 0.0
C895 C 0.01023 0.53723 1.08559 0.0
C896 C 0.96443 0.49148 1.10555 0.0
C897 C 0.97958 0.49174 0.14487 0.0
C898 C 0.0017 0.51981 0.16051 0.0
C899 C 0.01654 0.54328 0.13054 0.0
H900 H 0.96035 0.43863 0.52788 0.0
H901 H 0.03192 0.44963 0.44124 0.0
H902 H 0.93602 0.44892 0.46478 0.0
H903 H 0.01377 0.47153 0.38629 0.0
H904 H 0.93462 0.51907 0.45873 0.0
H905 H 0.95144 0.50259 0.39602 0.0
H906 H 0.02754 0.51232 0.47201 0.0
H907 H 0.00393 0.5169 0.53804 0.0
C908 C 0.97117 0.44356 0.49625 0.0
C909 C 0.00066 0.44793 0.49126 0.0
C910 C 0.95763 0.44978 0.46029 0.0
C911 C 0.97731 0.46802 0.4265 0.0
C912 C 0.00031 0.46176 0.41544 0.0
C913 C 0.01163 0.45071 0.44817 0.0
C914 C 0.9537 0.51565 0.46269 0.0
C915 C 0.96433 0.51319 0.50428 0.0
C916 C 0.96469 0.5083 0.42595 0.0
C917 C -0.01259 0.50059 0.43203 0.0
C918 C 0.00693 0.51375 0.46855 0.0
C919 C -0.00636 0.51664 0.50677 0.0
H920 H 0.39699 0.94187 0.77143 0.0
H921 H 0.46487 0.00803 0.85794 0.0
H922 H 0.43559 0.9561 0.71577 0.0
H923 H 0.49982 0.02848 0.79633 0.0
H924 H 0.56568 0.02359 0.78005 0.0
H925 H 0.52944 0.00666 0.72007 0.0
H926 H 0.46195 0.93804 0.80269 0.0
H927 H 0.49458 0.96124 0.86657 0.0
C928 C 0.41959 0.96075 0.77785 0.0
C929 C 0.42967 0.97073 0.82088 0.0
C930 C 0.44139 0.96968 0.74492 0.0
C931 C 0.472 -0.01062 0.75596 0.0
C932 C 0.47702 0.00964 0.79039 0.0
C933 C 0.45708 -0.00184 0.82603 0.0
C934 C 0.54281 0.00511 0.78601 0.0
C935 C 0.53111 -0.00307 0.82883 0.0
C936 C 0.52243 -0.00548 0.75082 0.0
C937 C 0.49145 0.9752 0.75973 0.0
C938 C 0.48493 0.9567 0.79745 0.0
C939 C 0.50344 0.96982 0.83435 0.0
H940 H 0.52245 0.5713 1.10691 0.0
H941 H 0.52754 0.51057 0.20114 0.0
H942 H 0.50135 0.53125 1.05363 0.0
H943 H 0.51721 0.47503 0.14205 0.0
H944 H 0.45028 0.40406 1.11335 0.0
H945 H 0.46757 0.44239 1.05676 0.0
H946 H 0.4568 0.50103 0.1441 0.0
H947 H 0.45019 0.46726 0.2053 0.0
C948 C 0.52075 0.55003 1.11574 0.0
C949 C 0.52157 0.54194 0.15982 0.0
C950 C 0.51001 0.52757 1.08417 0.0
C951 C 0.50233 0.49843 1.09746 0.0
C952 C 0.51868 0.4964 0.13401 0.0
C953 C 0.52465 0.51663 0.1682 0.0
C954 C 0.45218 0.42546 1.12114 0.0
C955 C 0.45393 0.43483 0.16483 0.0
C956 C 0.46074 0.44692 1.08781 0.0
C957 C 0.46901 0.47637 1.09926 0.0
C958 C 0.45493 0.47946 0.13705 0.0
C959 C 0.45113 0.46026 0.17245 0.0
H960 H 0.25167 0.90312 0.6764 0.0
H961 H 0.27517 0.98407 0.74848 0.0
H962 H 0.25907 0.93066 0.60852 0.0
H963 H 0.28056 0.01114 0.68055 0.0
H964 H 0.35582 0.05206 0.57279 0.0
H965 H 0.32445 0.02773 0.63607 0.0
H966 H 0.25356 0.96081 0.55314 0.0
H967 H 0.28593 -0.0153 0.48962 0.0
C968 C 0.25726 0.92651 0.67774 0.0
C969 C 0.26407 0.94172 0.71772 0.0
C970 C 0.26112 0.94228 0.63873 0.0
C971 C 0.27148 0.97345 0.63912 0.0
C972 C 0.27351 -0.01264 0.67922 0.0
C973 C 0.27007 0.97169 0.71825 0.0
C974 C 0.33338 0.03237 0.56803 0.0
C975 C 0.32366 0.01979 0.52652 0.0
C976 C 0.31506 0.01866 0.60426 0.0
C977 C 0.28649 -0.00794 0.5998 0.0
C978 C 0.27562 0.98102 0.55772 0.0
C979 C 0.29408 -0.00523 0.52135 0.0
H980 H 0.32695 0.26609 1.0201 0.0
H981 H 0.28003 0.29456 1.10765 0.0
H982 H 0.29864 0.27069 0.95902 0.0
H983 H 0.25056 0.29797 1.04661 0.0
H984 H 0.25903 0.29034 0.84995 0.0
H985 H 0.25501 0.26154 0.91581 0.0
H986 H 0.27216 0.33836 0.99392 0.0
H987 H 0.27464 0.36644 0.92835 0.0
C988 C 0.30975 0.2723 1.0264 0.0
C989 C 0.30634 0.28085 1.06829 0.0
C990 C 0.29315 0.27457 0.99146 0.0
C991 C 0.27278 0.28538 0.99783 0.0
C992 C 0.26655 0.29017 1.0406 0.0
C993 C 0.28328 0.28801 1.0756 0.0
C994 C 0.26062 0.3006 0.88126 0.0
C995 C 0.26802 0.33095 0.88407 0.0
C996 C 0.25851 0.28414 0.91899 0.0
C997 C 0.26403 0.29787 0.96005 0.0
C998 C 0.26777 0.32698 0.96291 0.0
C999 C 0.26968 0.34333 0.92526 0.0
H1000 H 0.90633 0.25851 0.25168 0.0
H1001 H 0.98022 0.27099 0.16837 0.0
H1002 H 0.93596 0.26025 0.31532 0.0
H1003 H 0.00955 0.27122 0.2322 0.0
H1004 H 0.0632 0.34029 0.34493 0.0
H1005 H 0.03495 0.31243 0.28108 0.0
H1006 H 0.96351 0.24581 0.36369 0.0
H1007 H -0.00885 0.2748 0.42763 0.0
C1008 C 0.92857 0.26065 0.24699 0.0
C1009 C 0.94137 0.26559 0.20525 0.0
C1010 C 0.94548 0.2612 0.2835 0.0
C1011 C 0.97551 0.26655 0.27896 0.0
C1012 C -0.01324 0.26773 0.23682 0.0
C1013 C 0.96986 0.26737 0.20022 0.0
C1014 C 0.04176 0.31935 0.34948 0.0
C1015 C 0.0289 0.31029 0.39111 0.0
C1016 C 0.02569 0.30304 0.31284 0.0
C1017 C -0.00348 0.27721 0.31718 0.0
C1018 C -0.01441 0.26602 0.35923 0.0
C1019 C 0.00157 0.28252 0.39592 0.0
H1020 H 0.70296 0.06001 0.67652 0.0
H1021 H 0.68514 0.97872 0.74561 0.0
H1022 H 0.69864 0.03557 0.60795 0.0
H1023 H 0.68342 0.95483 0.67682 0.0
H1024 H 0.61229 0.91112 0.56409 0.0
H1025 H 0.64319 0.93378 0.6282 0.0
H1026 H 0.70643 0.01138 0.55131 0.0
H1027 H 0.67364 -0.01015 0.48795 0.0
C1028 C 0.69914 0.03718 0.67706 0.0
C1029 C 0.69305 0.0209 0.71638 0.0
C1030 C 0.69714 0.02317 0.63753 0.0
C1031 C 0.68955 -0.00735 0.63647 0.0
C1032 C 0.68811 0.97795 0.67624 0.0
C1033 C 0.68952 -0.00818 0.71585 0.0
C1034 C 0.63293 0.93292 0.56073 0.0
C1035 C 0.63961 0.94924 0.52132 0.0
C1036 C 0.65115 0.9458 0.59754 0.0
C1037 C 0.67692 0.97509 0.59556 0.0
C1038 C 0.6861 -0.01067 0.55453 0.0
C1039 C 0.66743 0.97673 0.51788 0.0
H1040 H 0.69767 0.69898 1.08309 0.0
H1041 H 0.63085 0.70414 0.99987 0.0
H1042 H 0.72631 0.69991 1.01912 0.0
H1043 H 0.65837 0.70347 0.9361 0.0
H1044 H 0.7128 0.63065 0.90916 0.0
H1045 H 0.7113 0.65808 0.972 0.0
H1046 H 0.70004 0.71996 0.88698 0.0
H1047 H 0.69997 0.69134 0.82402 0.0
C1048 C 0.68958 0.70124 1.0512 0.0
C1049 C 0.66156 0.70062 1.04633 0.0
C1050 C 0.70588 0.70154 1.01452 0.0
C1051 C 0.69425 0.70095 0.97245 0.0
C1052 C 0.66812 0.70391 0.96788 0.0
C1053 C 0.652 0.70383 1.00448 0.0
C1054 C 0.71066 0.65049 0.90387 0.0
C1055 C 0.70553 0.65827 0.86187 0.0
C1056 C 0.71025 0.66658 0.93991 0.0
C1057 C 0.70486 0.6909 0.93461 0.0
C1058 C 0.70355 0.70092 0.89218 0.0
C1059 C 0.70376 0.68466 0.85607 0.0
H1060 H 0.95968 0.66885 0.1409 0.0
H1061 H 0.03478 0.70035 0.23262 0.0
H1062 H 0.92584 0.66604 0.19926 0.0
H1063 H 0.00111 0.69642 0.29098 0.0
H1064 H 0.94375 0.67793 0.39683 0.0
H1065 H 0.96686 0.70607 0.3304 0.0
H1066 H 0.9053 0.62787 0.25439 0.0
H1067 H 0.88079 0.6005 0.32063 0.0
C1068 C 0.96916 0.67605 0.17328 0.0
C1069 C -0.0004 0.68404 0.18264 0.0
C1070 C 0.94975 0.67428 0.20675 0.0
C1071 C 0.96049 0.68034 0.25002 0.0
C1072 C -0.00813 0.69164 0.25817 0.0
C1073 C 0.0112 0.69348 0.2248 0.0
C1074 C 0.93403 0.66718 0.36595 0.0
C1075 C 0.91118 0.63651 0.36403 0.0
C1076 C 0.94756 0.6833 0.32777 0.0
C1077 C 0.93886 0.66886 0.28718 0.0
C1078 C 0.91293 0.63973 0.28504 0.0
C1079 C 0.8991 0.62378 0.32317 0.0
H1080 H 0.57189 0.11073 0.49192 0.0
H1081 H 0.48134 0.0856 0.53409 0.0
H1082 H 0.58652 0.10703 0.56738 0.0
H1083 H 0.49573 0.08183 0.60951 0.0
H1084 H 0.5299 0.09158 0.75417 0.0
H1085 H 0.51608 0.09528 0.67878 0.0
H1086 H 0.59209 0.08708 0.63432 0.0
H1087 H 0.60587 0.08336 0.71056 0.0
C1088 C 0.55476 0.10446 0.51695 0.0
C1089 C 0.525 0.09879 0.50439 0.0
C1090 C 0.56331 0.10209 0.5615 0.0
C1091 C 0.54294 0.09405 0.5977 0.0
C1092 C 0.51316 0.08846 0.58491 0.0
C1093 C 0.50456 0.09059 0.54033 0.0
C1094 C 0.54408 0.0906 0.72876 0.0
C1095 C 0.56962 0.0873 0.74111 0.0
C1096 C 0.53578 0.09258 0.6841 0.0
C1097 C 0.55237 0.09165 0.64727 0.0
C1098 C 0.57806 0.08835 0.65963 0.0
C1099 C 0.58622 0.08608 0.70457 0.0
H1100 H 0.4388 0.56263 0.82193 0.0
H1101 H 0.37159 0.4757 0.87157 0.0
H1102 H 0.45754 0.57967 0.89584 0.0
H1103 H 0.39034 0.49266 0.94617 0.0
H1104 H 0.41941 0.53163 1.08883 0.0
H1105 H 0.40061 0.51438 1.01493 0.0
H1106 H 0.4824 0.58976 0.9628 0.0
H1107 H 0.50113 0.60693 1.03731 0.0
C1108 C 0.42747 0.54674 0.84834 0.0
C1109 C 0.40271 0.51725 0.83787 0.0
C1110 C 0.43875 0.55678 0.89223 0.0
C1111 C 0.42635 0.5384 0.93045 0.0
C1112 C 0.40142 0.50877 0.91998 0.0
C1113 C 0.39024 0.49863 0.87582 0.0
C1114 C 0.43377 0.545 1.06202 0.0
C1115 C 0.46237 0.57151 1.07194 0.0
C1116 C 0.42269 0.53467 1.01813 0.0
C1117 C 0.43901 0.54988 0.97942 0.0
C1118 C 0.46779 0.57649 0.9894 0.0
C1119 C 0.479 0.58672 1.03351 0.0
H1120 H 0.87772 0.3608 0.21695 0.0
H1121 H 0.86694 0.43316 0.16484 0.0
H1122 H 0.87948 0.37939 0.29113 0.0
H1123 H 0.86864 0.45181 0.23842 0.0
H1124 H 0.8827 0.49291 0.38037 0.0
H1125 H 0.88119 0.47451 0.3061 0.0
H1126 H 0.86991 0.39133 0.35926 0.0
H1127 H 0.87146 0.40981 0.43284 0.0
C1128 C 0.87549 0.38064 0.22056 0.0
C1129 C 0.87181 0.39456 0.18202 0.0
C1130 C 0.8765 0.39173 0.26451 0.0
C1131 C 0.8742 0.418 0.27429 0.0
C1132 C 0.87076 0.43189 0.23545 0.0
C1133 C 0.86958 0.42073 0.19172 0.0
C1134 C 0.87966 0.47052 0.37684 0.0
C1135 C 0.87689 0.45342 0.41551 0.0
C1136 C 0.87875 0.45952 0.33284 0.0
C1137 C 0.87526 0.43046 0.32316 0.0
C1138 C 0.87275 0.41365 0.36212 0.0
C1139 C 0.87348 0.42454 0.40588 0.0
H1140 H 0.38584 0.8441 0.49113 0.0
H1141 H 0.47996 0.88602 0.53137 0.0
H1142 H 0.37124 0.84849 0.56612 0.0
H1143 H 0.46568 0.89029 0.60564 0.0
H1144 H 0.43556 0.88144 0.75113 0.0
H1145 H 0.44813 0.87652 0.67625 0.0
H1146 H 0.36413 0.87033 0.63174 0.0
H1147 H 0.35165 0.87555 0.70766 0.0
C1148 C 0.40376 0.85406 0.51556 0.0
C1149 C 0.43459 0.86422 0.50258 0.0
C1150 C 0.39522 0.85689 0.55979 0.0
C1151 C 0.41667 0.86979 0.59522 0.0
C1152 C 0.4474 0.87976 0.58189 0.0
C1153 C 0.45591 0.87731 0.53781 0.0
C1154 C 0.41934 0.87904 0.72591 0.0
C1155 C 0.39207 0.87893 0.73835 0.0
C1156 C 0.42687 0.8763 0.68142 0.0
C1157 C 0.40774 0.87284 0.64463 0.0
C1158 C 0.38025 0.87261 0.65701 0.0
C1159 C 0.37286 0.87577 0.7018 0.0
H1160 H 0.534 0.4169 0.82637 0.0
H1161 H 0.60758 0.50011 0.87614 0.0
H1162 H 0.51535 0.3999 0.90029 0.0
H1163 H 0.58892 0.4833 0.95069 0.0
H1164 H 0.55885 0.44469 1.09269 0.0
H1165 H 0.57739 0.46162 1.01878 0.0
H1166 H 0.49237 0.39015 0.9674 0.0
H1167 H 0.47398 0.37318 1.04207 0.0
C1168 C 0.54669 0.43193 0.85285 0.0
C1169 C 0.57318 0.46033 0.8426 0.0
C1170 C 0.53552 0.42195 0.8967 0.0
C1171 C 0.54977 0.43938 0.93486 0.0
C1172 C 0.57638 0.46795 0.92451 0.0
C1173 C 0.5875 0.478 0.88044 0.0
C1174 C 0.54372 0.43215 1.06603 0.0
C1175 C 0.51435 0.4068 1.07609 0.0
C1176 C 0.55464 0.44229 1.02215 0.0
C1177 C 0.53729 0.42804 0.98372 0.0
C1178 C 0.50773 0.40259 0.99385 0.0
C1179 C 0.49672 0.39249 1.03798 0.0
H1180 H 0.09257 0.54975 0.42999 0.0
H1181 H 0.0875 0.4698 0.37809 0.0
H1182 H 0.09421 0.5691 0.35639 0.0
H1183 H 0.08902 0.48907 0.30366 0.0
H1184 H 0.10594 0.53435 0.16404 0.0
H1185 H 0.10413 0.51464 0.23764 0.0
H1186 H 0.08215 0.57952 0.28829 0.0
H1187 H 0.08414 0.59923 0.21418 0.0
C1188 C 0.0919 0.53591 0.4031 0.0
C1189 C 0.09018 0.50766 0.4127 0.0
C1190 C 0.09266 0.54729 0.35943 0.0
C1191 C 0.09188 0.53159 0.32079 0.0
C1192 C 0.09009 0.50315 0.33039 0.0
C1193 C 0.08915 0.49164 0.37434 0.0
C1194 C 0.10082 0.54486 0.19053 0.0
C1195 C 0.09558 0.56931 0.18056 0.0
C1196 C 0.09955 0.53307 0.23413 0.0
C1197 C 0.093 0.54463 0.27221 0.0
C1198 C 0.08769 0.56915 0.26213 0.0
C1199 C 0.08881 0.58087 0.21832 0.0
loop_
_geom_bond_atom_site_label_1
_geom_bond_atom_site_label_2
_geom_bond_distance
_geom_bond_site_symmetry_2
_ccdc_geom_bond_type
C0 Eu1 2.835 . S
C0 C2 1.500 . S
C0 O20 1.257 . S
C0 O21 1.260 . S
Eu1 C0 2.835 . S
Eu1 O20 2.473 . S
Eu1 O21 2.480 . S
Eu1 O22 2.430 . S
Eu1 O23 2.670 . S
Eu1 O24 2.394 . S
Eu1 O29 2.355 . S
Eu1 O31 2.374 . S
C2 C0 1.500 . S
C2 C3 1.377 . S
C2 C7 1.377 . S
C3 C2 1.377 . S
C3 C4 1.395 . S
C3 H32 0.931 . S
C4 C3 1.395 . S
C4 C5 1.383 . S
C4 H33 0.931 . S
C5 C4 1.383 . S
C5 C6 1.394 . S
C6 C5 1.394 . S
C6 C7 1.378 . S
C6 H34 0.931 . S
C7 C2 1.377 . S
C7 C6 1.378 . S
C7 H35 0.931 . S
C8 O22 1.259 . S
C8 O23 1.270 . S
C9 O24 1.251 . S
C9 O25 1.251 . S
C10 Eu11 2.835 . S
C10 C12 1.500 . S
C10 O26 1.257 . S
C10 O27 1.260 . S
Eu11 C10 2.835 . S
Eu11 O23 2.355 . S
Eu11 O25 2.374 . S
Eu11 O26 2.473 . S
Eu11 O27 2.480 . S
Eu11 O28 2.430 . S
Eu11 O29 2.670 . S
Eu11 O30 2.394 . S
C12 C10 1.500 . S
C12 C13 1.377 . S
C12 C17 1.377 . S
C13 C12 1.377 . S
C13 C14 1.395 . S
C13 H36 0.931 . S
C14 C13 1.395 . S
C14 C15 1.383 . S
C14 H37 0.931 . S
C15 C14 1.383 . S
C15 C16 1.394 . S
C16 C15 1.394 . S
C16 C17 1.378 . S
C16 H38 0.931 . S
C17 C12 1.377 . S
C17 C16 1.378 . S
C17 H39 0.931 . S
C18 O28 1.259 . S
C18 O29 1.270 . S
C19 O30 1.251 . S
C19 O31 1.251 . S
O20 C0 1.257 . S
O20 Eu1 2.473 . S
O21 C0 1.260 . S
O21 Eu1 2.480 . S
O22 Eu1 2.430 . S
O22 C8 1.259 . S
O23 Eu1 2.670 . S
O23 C8 1.270 . S
O23 Eu11 2.355 . S
O24 Eu1 2.394 . S
O24 C9 1.251 . S
O25 C9 1.251 . S
O25 Eu11 2.374 . S
O26 C10 1.257 . S
O26 Eu11 2.473 . S
O27 C10 1.260 . S
O27 Eu11 2.480 . S
O28 Eu11 2.430 . S
O28 C18 1.259 . S
O29 Eu1 2.355 . S
O29 Eu11 2.670 . S
O29 C18 1.270 . S
O30 Eu11 2.394 . S
O30 C19 1.251 . S
O31 Eu1 2.374 . S
O31 C19 1.251 . S
H32 C3 0.931 . S
H33 C4 0.931 . S
H34 C6 0.931 . S
H35 C7 0.931 . S
H36 C13 0.931 . S
H37 C14 0.931 . S
H38 C16 0.931 . S
H39 C17 0.931 . S
C40 Eu41 2.835 . S
C40 C42 1.500 . S
C40 O60 1.257 . S
C40 O61 1.260 . S
Eu41 C40 2.835 . S
Eu41 O60 2.473 . S
Eu41 O61 2.480 . S
Eu41 O62 2.430 . S
Eu41 O63 2.670 . S
Eu41 O64 2.394 . S
Eu41 O69 2.355 . S
Eu41 O71 2.374 . S
C42 C40 1.500 . S
C42 C43 1.377 . S
C42 C47 1.377 . S
C43 C42 1.377 . S
C43 C44 1.395 . S
C43 H72 0.931 . S
C44 C43 1.395 . S
C44 C45 1.383 . S
C44 H73 0.931 . S
C45 C44 1.383 . S
C45 C46 1.394 . S
C46 C45 1.394 . S
C46 C47 1.378 . S
C46 H74 0.931 . S
C47 C42 1.377 . S
C47 C46 1.378 . S
C47 H75 0.931 . S
C48 O62 1.259 . S
C48 O63 1.270 . S
C49 O64 1.251 . S
C49 O65 1.251 . S
C50 Eu51 2.835 . S
C50 C52 1.500 . S
C50 O66 1.257 . S
C50 O67 1.260 . S
Eu51 C50 2.835 . S
Eu51 O63 2.355 . S
Eu51 O65 2.374 . S
Eu51 O66 2.473 . S
Eu51 O67 2.480 . S
Eu51 O68 2.430 . S
Eu51 O69 2.670 . S
Eu51 O70 2.394 . S
C52 C50 1.500 . S
C52 C53 1.377 . S
C52 C57 1.377 . S
C53 C52 1.377 . S
C53 C54 1.395 . S
C53 H76 0.931 . S
C54 C53 1.395 . S
C54 C55 1.383 . S
C54 H77 0.931 . S
C55 C54 1.383 . S
C55 C56 1.394 . S
C56 C55 1.394 . S
C56 C57 1.378 . S
C56 H78 0.931 . S
C57 C52 1.377 . S
C57 C56 1.378 . S
C57 H79 0.931 . S
C58 O68 1.259 . S
C58 O69 1.270 . S
C59 O70 1.251 . S
C59 O71 1.251 . S
O60 C40 1.257 . S
O60 Eu41 2.473 . S
O61 C40 1.260 . S
O61 Eu41 2.480 . S
O62 Eu41 2.430 . S
O62 C48 1.259 . S
O63 Eu41 2.670 . S
O63 C48 1.270 . S
O63 Eu51 2.355 . S
O64 Eu41 2.394 . S
O64 C49 1.251 . S
O65 C49 1.251 . S
O65 Eu51 2.374 . S
O66 C50 1.257 . S
O66 Eu51 2.473 . S
O67 C50 1.260 . S
O67 Eu51 2.480 . S
O68 Eu51 2.430 . S
O68 C58 1.259 . S
O69 Eu41 2.355 . S
O69 Eu51 2.670 . S
O69 C58 1.270 . S
O70 Eu51 2.394 . S
O70 C59 1.251 . S
O71 Eu41 2.374 . S
O71 C59 1.251 . S
H72 C43 0.931 . S
H73 C44 0.931 . S
H74 C46 0.931 . S
H75 C47 0.931 . S
H76 C53 0.931 . S
H77 C54 0.931 . S
H78 C56 0.931 . S
H79 C57 0.931 . S
C80 Eu81 2.835 . S
C80 C82 1.500 . S
C80 O100 1.257 . S
C80 O101 1.260 . S
Eu81 C80 2.835 . S
Eu81 O100 2.473 . S
Eu81 O101 2.480 . S
Eu81 O102 2.430 . S
Eu81 O103 2.670 . S
Eu81 O104 2.394 . S
Eu81 O109 2.355 . S
Eu81 O111 2.374 . S
C82 C80 1.500 . S
C82 C83 1.377 . S
C82 C87 1.377 . S
C83 C82 1.377 . S
C83 C84 1.395 . S
C83 H112 0.931 . S
C84 C83 1.395 . S
C84 C85 1.383 . S
C84 H113 0.931 . S
C85 C84 1.383 . S
C85 C86 1.394 . S
C86 C85 1.394 . S
C86 C87 1.378 . S
C86 H114 0.931 . S
C87 C82 1.377 . S
C87 C86 1.378 . S
C87 H115 0.931 . S
C88 O102 1.259 . S
C88 O103 1.270 . S
C89 O104 1.251 . S
C89 O105 1.251 . S
C90 Eu91 2.835 1_554 S
C90 C92 1.500 . S
C90 O106 1.257 1_554 S
C90 O107 1.260 1_554 S
Eu91 C90 2.835 1_556 S
Eu91 O103 2.355 . S
Eu91 O105 2.374 . S
Eu91 O106 2.473 . S
Eu91 O107 2.480 . S
Eu91 O108 2.430 . S
Eu91 O109 2.670 . S
Eu91 O110 2.394 . S
C92 C90 1.500 . S
C92 C93 1.377 . S
C92 C97 1.377 . S
C93 C92 1.377 . S
C93 C94 1.395 . S
C93 H116 0.931 . S
C94 C93 1.395 . S
C94 C95 1.383 . S
C94 H117 0.931 . S
C95 C94 1.383 . S
C95 C96 1.394 . S
C96 C95 1.394 . S
C96 C97 1.378 . S
C96 H118 0.931 . S
C97 C92 1.377 . S
C97 C96 1.378 . S
C97 H119 0.931 . S
C98 O108 1.259 . S
C98 O109 1.270 . S
C99 O110 1.251 . S
C99 O111 1.251 . S
O100 C80 1.257 . S
O100 Eu81 2.473 . S
O101 C80 1.260 . S
O101 Eu81 2.480 . S
O102 Eu81 2.430 . S
O102 C88 1.259 . S
O103 Eu81 2.670 . S
O103 C88 1.270 . S
O103 Eu91 2.355 . S
O104 Eu81 2.394 . S
O104 C89 1.251 . S
O105 C89 1.251 . S
O105 Eu91 2.374 . S
O106 C90 1.257 1_556 S
O106 Eu91 2.473 . S
O107 C90 1.260 1_556 S
O107 Eu91 2.480 . S
O108 Eu91 2.430 . S
O108 C98 1.259 . S
O109 Eu81 2.355 . S
O109 Eu91 2.670 . S
O109 C98 1.270 . S
O110 Eu91 2.394 . S
O110 C99 1.251 . S
O111 Eu81 2.374 . S
O111 C99 1.251 . S
H112 C83 0.931 . S
H113 C84 0.931 . S
H114 C86 0.931 . S
H115 C87 0.931 . S
H116 C93 0.931 . S
H117 C94 0.931 . S
H118 C96 0.931 . S
H119 C97 0.931 . S
C120 Eu121 2.835 . S
C120 C122 1.500 . S
C120 O140 1.257 . S
C120 O141 1.260 . S
Eu121 C120 2.835 . S
Eu121 O140 2.473 . S
Eu121 O141 2.480 . S
Eu121 O142 2.430 . S
Eu121 O143 2.670 . S
Eu121 O144 2.394 . S
Eu121 O149 2.355 . S
Eu121 O151 2.374 . S
C122 C120 1.500 . S
C122 C123 1.377 . S
C122 C127 1.377 . S
C123 C122 1.377 . S
C123 C124 1.395 . S
C123 H152 0.931 . S
C124 C123 1.395 . S
C124 C125 1.383 . S
C124 H153 0.931 . S
C125 C124 1.383 . S
C125 C126 1.394 . S
C126 C125 1.394 . S
C126 C127 1.378 . S
C126 H154 0.931 . S
C127 C122 1.377 . S
C127 C126 1.378 . S
C127 H155 0.931 . S
C128 O142 1.259 . S
C128 O143 1.270 . S
C129 O144 1.251 . S
C129 O145 1.251 . S
C130 Eu131 2.835 . S
C130 C132 1.500 . S
C130 O146 1.257 . S
C130 O147 1.260 . S
Eu131 C130 2.835 . S
Eu131 O143 2.355 . S
Eu131 O145 2.374 . S
Eu131 O146 2.473 . S
Eu131 O147 2.480 . S
Eu131 O148 2.430 . S
Eu131 O149 2.670 . S
Eu131 O150 2.394 . S
C132 C130 1.500 . S
C132 C133 1.377 . S
C132 C137 1.377 . S
C133 C132 1.377 . S
C133 C134 1.395 . S
C133 H156 0.931 . S
C134 C133 1.395 . S
C134 C135 1.383 . S
C134 H157 0.931 . S
C135 C134 1.383 . S
C135 C136 1.394 . S
C136 C135 1.394 . S
C136 C137 1.378 . S
C136 H158 0.931 . S
C137 C132 1.377 . S
C137 C136 1.378 . S
C137 H159 0.931 . S
C138 O148 1.259 . S
C138 O149 1.270 . S
C139 O150 1.251 . S
C139 O151 1.251 . S
O140 C120 1.257 . S
O140 Eu121 2.473 . S
O141 C120 1.260 . S
O141 Eu121 2.480 . S
O142 Eu121 2.430 . S
O142 C128 1.259 . S
O143 Eu121 2.670 . S
O143 C128 1.270 . S
O143 Eu131 2.355 . S
O144 Eu121 2.394 . S
O144 C129 1.251 . S
O145 C129 1.251 . S
O145 Eu131 2.374 . S
O146 C130 1.257 . S
O146 Eu131 2.473 . S
O147 C130 1.260 . S
O147 Eu131 2.480 . S
O148 Eu131 2.430 . S
O148 C138 1.259 . S
O149 Eu121 2.355 . S
O149 Eu131 2.670 . S
O149 C138 1.270 . S
O150 Eu131 2.394 . S
O150 C139 1.251 . S
O151 Eu121 2.374 . S
O151 C139 1.251 . S
H152 C123 0.931 . S
H153 C124 0.931 . S
H154 C126 0.931 . S
H155 C127 0.931 . S
H156 C133 0.931 . S
H157 C134 0.931 . S
H158 C136 0.931 . S
H159 C137 0.931 . S
C160 Eu161 2.835 . S
C160 C162 1.500 . S
C160 O180 1.257 . S
C160 O181 1.260 . S
Eu161 C160 2.835 . S
Eu161 O180 2.473 . S
Eu161 O181 2.480 . S
Eu161 O182 2.430 . S
Eu161 O183 2.670 . S
Eu161 O184 2.394 . S
Eu161 O189 2.355 . S
Eu161 O191 2.374 . S
C162 C160 1.500 . S
C162 C163 1.377 . S
C162 C167 1.377 . S
C163 C162 1.377 . S
C163 C164 1.395 . S
C163 H192 0.931 . S
C164 C163 1.395 . S
C164 C165 1.383 . S
C164 H193 0.931 . S
C165 C164 1.383 . S
C165 C166 1.394 . S
C166 C165 1.394 . S
C166 C167 1.378 . S
C166 H194 0.931 . S
C167 C162 1.377 . S
C167 C166 1.378 . S
C167 H195 0.931 . S
C168 O182 1.259 . S
C168 O183 1.270 . S
C169 O184 1.251 . S
C169 O185 1.251 . S
C170 Eu171 2.835 . S
C170 C172 1.500 . S
C170 O186 1.257 . S
C170 O187 1.260 . S
Eu171 C170 2.835 . S
Eu171 O183 2.355 . S
Eu171 O185 2.374 . S
Eu171 O186 2.473 . S
Eu171 O187 2.480 . S
Eu171 O188 2.430 . S
Eu171 O189 2.670 . S
Eu171 O190 2.394 . S
C172 C170 1.500 . S
C172 C173 1.377 . S
C172 C177 1.377 . S
C173 C172 1.377 . S
C173 C174 1.395 . S
C173 H196 0.931 . S
C174 C173 1.395 . S
C174 C175 1.383 . S
C174 H197 0.931 . S
C175 C174 1.383 . S
C175 C176 1.394 . S
C176 C175 1.394 . S
C176 C177 1.378 . S
C176 H198 0.931 . S
C177 C172 1.377 . S
C177 C176 1.378 . S
C177 H199 0.931 . S
C178 O188 1.259 . S
C178 O189 1.270 . S
C179 O190 1.251 . S
C179 O191 1.251 . S
O180 C160 1.257 . S
O180 Eu161 2.473 . S
O181 C160 1.260 . S
O181 Eu161 2.480 . S
O182 Eu161 2.430 . S
O182 C168 1.259 . S
O183 Eu161 2.670 . S
O183 C168 1.270 . S
O183 Eu171 2.355 . S
O184 Eu161 2.394 . S
O184 C169 1.251 . S
O185 C169 1.251 . S
O185 Eu171 2.374 . S
O186 C170 1.257 . S
O186 Eu171 2.473 . S
O187 C170 1.260 . S
O187 Eu171 2.480 . S
O188 Eu171 2.430 . S
O188 C178 1.259 . S
O189 Eu161 2.355 . S
O189 Eu171 2.670 . S
O189 C178 1.270 . S
O190 Eu171 2.394 . S
O190 C179 1.251 . S
O191 Eu161 2.374 . S
O191 C179 1.251 . S
H192 C163 0.931 . S
H193 C164 0.931 . S
H194 C166 0.931 . S
H195 C167 0.931 . S
H196 C173 0.931 . S
H197 C174 0.931 . S
H198 C176 0.931 . S
H199 C177 0.931 . S
C200 Eu201 2.835 . S
C200 C202 1.500 . S
C200 O220 1.257 . S
C200 O221 1.260 . S
Eu201 C200 2.835 . S
Eu201 O220 2.473 . S
Eu201 O221 2.480 . S
Eu201 O222 2.430 . S
Eu201 O223 2.670 . S
Eu201 O224 2.394 . S
Eu201 O229 2.355 . S
Eu201 O231 2.374 . S
C202 C200 1.500 . S
C202 C203 1.377 . S
C202 C207 1.377 . S
C203 C202 1.377 . S
C203 C204 1.395 . S
C203 H232 0.931 . S
C204 C203 1.395 . S
C204 C205 1.383 . S
C204 H233 0.931 . S
C205 C204 1.383 . S
C205 C206 1.394 . S
C206 C205 1.394 . S
C206 C207 1.378 . S
C206 H234 0.931 . S
C207 C202 1.377 . S
C207 C206 1.378 . S
C207 H235 0.931 . S
C208 O222 1.259 . S
C208 O223 1.270 . S
C209 O224 1.251 . S
C209 O225 1.251 . S
C210 Eu211 2.835 1_554 S
C210 C212 1.500 . S
C210 O226 1.257 1_554 S
C210 O227 1.260 1_554 S
Eu211 C210 2.835 1_556 S
Eu211 O223 2.355 . S
Eu211 O225 2.374 . S
Eu211 O226 2.473 . S
Eu211 O227 2.480 . S
Eu211 O228 2.430 . S
Eu211 O229 2.670 . S
Eu211 O230 2.394 . S
C212 C210 1.500 . S
C212 C213 1.377 . S
C212 C217 1.377 . S
C213 C212 1.377 . S
C213 C214 1.395 . S
C213 H236 0.931 . S
C214 C213 1.395 . S
C214 C215 1.383 . S
C214 H237 0.931 . S
C215 C214 1.383 . S
C215 C216 1.394 . S
C216 C215 1.394 . S
C216 C217 1.378 . S
C216 H238 0.931 . S
C217 C212 1.377 . S
C217 C216 1.378 . S
C217 H239 0.931 . S
C218 O228 1.259 . S
C218 O229 1.270 . S
C219 O230 1.251 . S
C219 O231 1.251 . S
O220 C200 1.257 . S
O220 Eu201 2.473 . S
O221 C200 1.260 . S
O221 Eu201 2.480 . S
O222 Eu201 2.430 . S
O222 C208 1.259 . S
O223 Eu201 2.670 . S
O223 C208 1.270 . S
O223 Eu211 2.355 . S
O224 Eu201 2.394 . S
O224 C209 1.251 . S
O225 C209 1.251 . S
O225 Eu211 2.374 . S
O226 C210 1.257 1_556 S
O226 Eu211 2.473 . S
O227 C210 1.260 1_556 S
O227 Eu211 2.480 . S
O228 Eu211 2.430 . S
O228 C218 1.259 . S
O229 Eu201 2.355 . S
O229 Eu211 2.670 . S
O229 C218 1.270 . S
O230 Eu211 2.394 . S
O230 C219 1.251 . S
O231 Eu201 2.374 . S
O231 C219 1.251 . S
H232 C203 0.931 . S
H233 C204 0.931 . S
H234 C206 0.931 . S
H235 C207 0.931 . S
H236 C213 0.931 . S
H237 C214 0.931 . S
H238 C216 0.931 . S
H239 C217 0.931 . S
C240 Eu241 2.835 . S
C240 C242 1.500 . S
C240 O260 1.257 . S
C240 O261 1.260 . S
Eu241 C240 2.835 . S
Eu241 O260 2.473 . S
Eu241 O261 2.480 . S
Eu241 O262 2.430 . S
Eu241 O263 2.670 . S
Eu241 O264 2.394 . S
Eu241 O269 2.355 . S
Eu241 O271 2.374 . S
C242 C240 1.500 . S
C242 C243 1.377 . S
C242 C247 1.377 . S
C243 C242 1.377 . S
C243 C244 1.395 . S
C243 H272 0.931 . S
C244 C243 1.395 . S
C244 C245 1.383 . S
C244 H273 0.931 . S
C245 C244 1.383 . S
C245 C246 1.394 . S
C246 C245 1.394 . S
C246 C247 1.378 . S
C246 H274 0.931 . S
C247 C242 1.377 . S
C247 C246 1.378 . S
C247 H275 0.931 . S
C248 O262 1.259 . S
C248 O263 1.270 . S
C249 O264 1.251 . S
C249 O265 1.251 . S
C250 Eu251 2.835 . S
C250 C252 1.500 . S
C250 O266 1.257 . S
C250 O267 1.260 . S
Eu251 C250 2.835 . S
Eu251 O263 2.355 . S
Eu251 O265 2.374 . S
Eu251 O266 2.473 . S
Eu251 O267 2.480 . S
Eu251 O268 2.430 . S
Eu251 O269 2.670 . S
Eu251 O270 2.394 . S
C252 C250 1.500 . S
C252 C253 1.377 . S
C252 C257 1.377 . S
C253 C252 1.377 . S
C253 C254 1.395 . S
C253 H276 0.931 . S
C254 C253 1.395 . S
C254 C255 1.383 . S
C254 H277 0.931 . S
C255 C254 1.383 . S
C255 C256 1.394 . S
C256 C255 1.394 . S
C256 C257 1.378 . S
C256 H278 0.931 . S
C257 C252 1.377 . S
C257 C256 1.378 . S
C257 H279 0.931 . S
C258 O268 1.259 . S
C258 O269 1.270 . S
C259 O270 1.251 . S
C259 O271 1.251 . S
O260 C240 1.257 . S
O260 Eu241 2.473 . S
O261 C240 1.260 . S
O261 Eu241 2.480 . S
O262 Eu241 2.430 . S
O262 C248 1.259 . S
O263 Eu241 2.670 . S
O263 C248 1.270 . S
O263 Eu251 2.355 . S
O264 Eu241 2.394 . S
O264 C249 1.251 . S
O265 C249 1.251 . S
O265 Eu251 2.374 . S
O266 C250 1.257 . S
O266 Eu251 2.473 . S
O267 C250 1.260 . S
O267 Eu251 2.480 . S
O268 Eu251 2.430 . S
O268 C258 1.259 . S
O269 Eu241 2.355 . S
O269 Eu251 2.670 . S
O269 C258 1.270 . S
O270 Eu251 2.394 . S
O270 C259 1.251 . S
O271 Eu241 2.374 . S
O271 C259 1.251 . S
H272 C243 0.931 . S
H273 C244 0.931 . S
H274 C246 0.931 . S
H275 C247 0.931 . S
H276 C253 0.931 . S
H277 C254 0.931 . S
H278 C256 0.931 . S
H279 C257 0.931 . S
C280 Eu281 2.835 . S
C280 C282 1.500 . S
C280 O300 1.257 . S
C280 O301 1.260 . S
Eu281 C280 2.835 . S
Eu281 O300 2.473 . S
Eu281 O301 2.480 . S
Eu281 O302 2.430 . S
Eu281 O303 2.670 . S
Eu281 O304 2.394 . S
Eu281 O309 2.355 . S
Eu281 O311 2.374 . S
C282 C280 1.500 . S
C282 C283 1.377 . S
C282 C287 1.377 . S
C283 C282 1.377 . S
C283 C284 1.395 . S
C283 H312 0.931 . S
C284 C283 1.395 . S
C284 C285 1.383 . S
C284 H313 0.931 . S
C285 C284 1.383 . S
C285 C286 1.394 . S
C286 C285 1.394 . S
C286 C287 1.378 . S
C286 H314 0.931 . S
C287 C282 1.377 . S
C287 C286 1.378 . S
C287 H315 0.931 . S
C288 O302 1.259 . S
C288 O303 1.270 . S
C289 O304 1.251 . S
C289 O305 1.251 . S
C290 Eu291 2.835 . S
C290 C292 1.500 . S
C290 O306 1.257 . S
C290 O307 1.260 . S
Eu291 C290 2.835 . S
Eu291 O303 2.355 . S
Eu291 O305 2.374 . S
Eu291 O306 2.473 . S
Eu291 O307 2.480 . S
Eu291 O308 2.430 . S
Eu291 O309 2.670 . S
Eu291 O310 2.394 . S
C292 C290 1.500 . S
C292 C293 1.377 . S
C292 C297 1.377 . S
C293 C292 1.377 . S
C293 C294 1.395 . S
C293 H316 0.931 . S
C294 C293 1.395 . S
C294 C295 1.383 . S
C294 H317 0.931 . S
C295 C294 1.383 . S
C295 C296 1.394 . S
C296 C295 1.394 . S
C296 C297 1.378 . S
C296 H318 0.931 . S
C297 C292 1.377 . S
C297 C296 1.378 . S
C297 H319 0.931 . S
C298 O308 1.259 . S
C298 O309 1.270 . S
C299 O310 1.251 . S
C299 O311 1.251 . S
O300 C280 1.257 . S
O300 Eu281 2.473 . S
O301 C280 1.260 . S
O301 Eu281 2.480 . S
O302 Eu281 2.430 . S
O302 C288 1.259 . S
O303 Eu281 2.670 . S
O303 C288 1.270 . S
O303 Eu291 2.355 . S
O304 Eu281 2.394 . S
O304 C289 1.251 . S
O305 C289 1.251 . S
O305 Eu291 2.374 . S
O306 C290 1.257 . S
O306 Eu291 2.473 . S
O307 C290 1.260 . S
O307 Eu291 2.480 . S
O308 Eu291 2.430 . S
O308 C298 1.259 . S
O309 Eu281 2.355 . S
O309 Eu291 2.670 . S
O309 C298 1.270 . S
O310 Eu291 2.394 . S
O310 C299 1.251 . S
O311 Eu281 2.374 . S
O311 C299 1.251 . S
H312 C283 0.931 . S
H313 C284 0.931 . S
H314 C286 0.931 . S
H315 C287 0.931 . S
H316 C293 0.931 . S
H317 C294 0.931 . S
H318 C296 0.931 . S
H319 C297 0.931 . S
C320 Eu321 2.835 . S
C320 C322 1.500 . S
C320 O340 1.257 . S
C320 O341 1.260 . S
Eu321 C320 2.835 . S
Eu321 O340 2.473 . S
Eu321 O341 2.480 . S
Eu321 O342 2.430 . S
Eu321 O343 2.670 . S
Eu321 O344 2.394 . S
Eu321 O349 2.355 . S
Eu321 O351 2.374 . S
C322 C320 1.500 . S
C322 C323 1.377 . S
C322 C327 1.377 . S
C323 C322 1.377 . S
C323 C324 1.395 . S
C323 H352 0.931 . S
C324 C323 1.395 . S
C324 C325 1.383 . S
C324 H353 0.931 . S
C325 C324 1.383 . S
C325 C326 1.394 . S
C326 C325 1.394 . S
C326 C327 1.378 . S
C326 H354 0.931 . S
C327 C322 1.377 . S
C327 C326 1.378 . S
C327 H355 0.931 . S
C328 O342 1.259 . S
C328 O343 1.270 . S
C329 O344 1.251 . S
C329 O345 1.251 . S
C330 Eu331 2.835 1_556 S
C330 C332 1.500 . S
C330 O346 1.257 1_556 S
C330 O347 1.260 1_556 S
Eu331 C330 2.835 1_554 S
Eu331 O343 2.355 . S
Eu331 O345 2.374 . S
Eu331 O346 2.473 . S
Eu331 O347 2.480 . S
Eu331 O348 2.430 . S
Eu331 O349 2.670 . S
Eu331 O350 2.394 . S
C332 C330 1.500 . S
C332 C333 1.377 . S
C332 C337 1.377 . S
C333 C332 1.377 . S
C333 C334 1.395 . S
C333 H356 0.931 . S
C334 C333 1.395 . S
C334 C335 1.383 . S
C334 H357 0.931 . S
C335 C334 1.383 . S
C335 C336 1.394 . S
C336 C335 1.394 . S
C336 C337 1.378 . S
C336 H358 0.931 . S
C337 C332 1.377 . S
C337 C336 1.378 . S
C337 H359 0.931 . S
C338 O348 1.259 . S
C338 O349 1.270 . S
C339 O350 1.251 . S
C339 O351 1.251 . S
O340 C320 1.257 . S
O340 Eu321 2.473 . S
O341 C320 1.260 . S
O341 Eu321 2.480 . S
O342 Eu321 2.430 . S
O342 C328 1.259 . S
O343 Eu321 2.670 . S
O343 C328 1.270 . S
O343 Eu331 2.355 . S
O344 Eu321 2.394 . S
O344 C329 1.251 . S
O345 C329 1.251 . S
O345 Eu331 2.374 . S
O346 C330 1.257 1_554 S
O346 Eu331 2.473 . S
O347 C330 1.260 1_554 S
O347 Eu331 2.480 . S
O348 Eu331 2.430 . S
O348 C338 1.259 . S
O349 Eu321 2.355 . S
O349 Eu331 2.670 . S
O349 C338 1.270 . S
O350 Eu331 2.394 . S
O350 C339 1.251 . S
O351 Eu321 2.374 . S
O351 C339 1.251 . S
H352 C323 0.931 . S
H353 C324 0.931 . S
H354 C326 0.931 . S
H355 C327 0.931 . S
H356 C333 0.931 . S
H357 C334 0.931 . S
H358 C336 0.931 . S
H359 C337 0.931 . S
C360 Eu361 2.835 . S
C360 C362 1.500 . S
C360 O380 1.257 . S
C360 O381 1.260 . S
Eu361 C360 2.835 . S
Eu361 O380 2.473 . S
Eu361 O381 2.480 . S
Eu361 O382 2.430 . S
Eu361 O383 2.670 . S
Eu361 O384 2.394 . S
Eu361 O389 2.355 . S
Eu361 O391 2.374 . S
C362 C360 1.500 . S
C362 C363 1.377 . S
C362 C367 1.377 . S
C363 C362 1.377 . S
C363 C364 1.395 . S
C363 H392 0.931 . S
C364 C363 1.395 . S
C364 C365 1.383 . S
C364 H393 0.931 . S
C365 C364 1.383 . S
C365 C366 1.394 . S
C366 C365 1.394 . S
C366 C367 1.378 . S
C366 H394 0.931 . S
C367 C362 1.377 . S
C367 C366 1.378 . S
C367 H395 0.931 . S
C368 O382 1.259 . S
C368 O383 1.270 . S
C369 O384 1.251 . S
C369 O385 1.251 . S
C370 Eu371 2.835 . S
C370 C372 1.500 . S
C370 O386 1.257 . S
C370 O387 1.260 . S
Eu371 C370 2.835 . S
Eu371 O383 2.355 . S
Eu371 O385 2.374 . S
Eu371 O386 2.473 . S
Eu371 O387 2.480 . S
Eu371 O388 2.430 . S
Eu371 O389 2.670 . S
Eu371 O390 2.394 . S
C372 C370 1.500 . S
C372 C373 1.377 . S
C372 C377 1.377 . S
C373 C372 1.377 . S
C373 C374 1.395 . S
C373 H396 0.931 . S
C374 C373 1.395 . S
C374 C375 1.383 . S
C374 H397 0.931 . S
C375 C374 1.383 . S
C375 C376 1.394 . S
C376 C375 1.394 . S
C376 C377 1.378 . S
C376 H398 0.931 . S
C377 C372 1.377 . S
C377 C376 1.378 . S
C377 H399 0.931 . S
C378 O388 1.259 . S
C378 O389 1.270 . S
C379 O390 1.251 . S
C379 O391 1.251 . S
O380 C360 1.257 . S
O380 Eu361 2.473 . S
O381 C360 1.260 . S
O381 Eu361 2.480 . S
O382 Eu361 2.430 . S
O382 C368 1.259 . S
O383 Eu361 2.670 . S
O383 C368 1.270 . S
O383 Eu371 2.355 . S
O384 Eu361 2.394 . S
O384 C369 1.251 . S
O385 C369 1.251 . S
O385 Eu371 2.374 . S
O386 C370 1.257 . S
O386 Eu371 2.473 . S
O387 C370 1.260 . S
O387 Eu371 2.480 . S
O388 Eu371 2.430 . S
O388 C378 1.259 . S
O389 Eu361 2.355 . S
O389 Eu371 2.670 . S
O389 C378 1.270 . S
O390 Eu371 2.394 . S
O390 C379 1.251 . S
O391 Eu361 2.374 . S
O391 C379 1.251 . S
H392 C363 0.931 . S
H393 C364 0.931 . S
H394 C366 0.931 . S
H395 C367 0.931 . S
H396 C373 0.931 . S
H397 C374 0.931 . S
H398 C376 0.931 . S
H399 C377 0.931 . S
C400 Eu401 2.835 . S
C400 C402 1.500 . S
C400 O420 1.257 . S
C400 O421 1.260 . S
Eu401 C400 2.835 . S
Eu401 O420 2.473 . S
Eu401 O421 2.480 . S
Eu401 O422 2.430 . S
Eu401 O423 2.670 . S
Eu401 O424 2.394 . S
Eu401 O429 2.355 . S
Eu401 O431 2.374 . S
C402 C400 1.500 . S
C402 C403 1.377 . S
C402 C407 1.377 . S
C403 C402 1.377 . S
C403 C404 1.395 . S
C403 H432 0.931 . S
C404 C403 1.395 . S
C404 C405 1.383 . S
C404 H433 0.931 . S
C405 C404 1.383 . S
C405 C406 1.394 . S
C406 C405 1.394 . S
C406 C407 1.378 . S
C406 H434 0.931 . S
C407 C402 1.377 . S
C407 C406 1.378 . S
C407 H435 0.931 . S
C408 O422 1.259 . S
C408 O423 1.270 . S
C409 O424 1.251 . S
C409 O425 1.251 . S
C410 Eu411 2.835 . S
C410 C412 1.500 . S
C410 O426 1.257 . S
C410 O427 1.260 . S
Eu411 C410 2.835 . S
Eu411 O423 2.355 . S
Eu411 O425 2.374 . S
Eu411 O426 2.473 . S
Eu411 O427 2.480 . S
Eu411 O428 2.430 . S
Eu411 O429 2.670 . S
Eu411 O430 2.394 . S
C412 C410 1.500 . S
C412 C413 1.377 . S
C412 C417 1.377 . S
C413 C412 1.377 . S
C413 C414 1.395 . S
C413 H436 0.931 . S
C414 C413 1.395 . S
C414 C415 1.383 . S
C414 H437 0.931 . S
C415 C414 1.383 . S
C415 C416 1.394 . S
C416 C415 1.394 . S
C416 C417 1.378 . S
C416 H438 0.931 . S
C417 C412 1.377 . S
C417 C416 1.378 . S
C417 H439 0.931 . S
C418 O428 1.259 . S
C418 O429 1.270 . S
C419 O430 1.251 . S
C419 O431 1.251 . S
O420 C400 1.257 . S
O420 Eu401 2.473 . S
O421 C400 1.260 . S
O421 Eu401 2.480 . S
O422 Eu401 2.430 . S
O422 C408 1.259 . S
O423 Eu401 2.670 . S
O423 C408 1.270 . S
O423 Eu411 2.355 . S
O424 Eu401 2.394 . S
O424 C409 1.251 . S
O425 C409 1.251 . S
O425 Eu411 2.374 . S
O426 C410 1.257 . S
O426 Eu411 2.473 . S
O427 C410 1.260 . S
O427 Eu411 2.480 . S
O428 Eu411 2.430 . S
O428 C418 1.259 . S
O429 Eu401 2.355 . S
O429 Eu411 2.670 . S
O429 C418 1.270 . S
O430 Eu411 2.394 . S
O430 C419 1.251 . S
O431 Eu401 2.374 . S
O431 C419 1.251 . S
H432 C403 0.931 . S
H433 C404 0.931 . S
H434 C406 0.931 . S
H435 C407 0.931 . S
H436 C413 0.931 . S
H437 C414 0.931 . S
H438 C416 0.931 . S
H439 C417 0.931 . S
C440 Eu441 2.835 . S
C440 C442 1.500 . S
C440 O460 1.257 . S
C440 O461 1.260 . S
Eu441 C440 2.835 . S
Eu441 O460 2.473 . S
Eu441 O461 2.480 . S
Eu441 O462 2.430 . S
Eu441 O463 2.670 . S
Eu441 O464 2.394 . S
Eu441 O469 2.355 . S
Eu441 O471 2.374 . S
C442 C440 1.500 . S
C442 C443 1.377 . S
C442 C447 1.377 . S
C443 C442 1.377 . S
C443 C444 1.395 . S
C443 H472 0.931 . S
C444 C443 1.395 . S
C444 C445 1.383 . S
C444 H473 0.931 . S
C445 C444 1.383 . S
C445 C446 1.394 . S
C446 C445 1.394 . S
C446 C447 1.378 . S
C446 H474 0.931 . S
C447 C442 1.377 . S
C447 C446 1.378 . S
C447 H475 0.931 . S
C448 O462 1.259 . S
C448 O463 1.270 . S
C449 O464 1.251 . S
C449 O465 1.251 . S
C450 Eu451 2.835 1_556 S
C450 C452 1.500 . S
C450 O466 1.257 1_556 S
C450 O467 1.260 1_556 S
Eu451 C450 2.835 1_554 S
Eu451 O463 2.355 . S
Eu451 O465 2.374 . S
Eu451 O466 2.473 . S
Eu451 O467 2.480 . S
Eu451 O468 2.430 . S
Eu451 O469 2.670 . S
Eu451 O470 2.394 . S
C452 C450 1.500 . S
C452 C453 1.377 . S
C452 C457 1.377 . S
C453 C452 1.377 . S
C453 C454 1.395 . S
C453 H476 0.931 . S
C454 C453 1.395 . S
C454 C455 1.383 . S
C454 H477 0.931 . S
C455 C454 1.383 . S
C455 C456 1.394 . S
C456 C455 1.394 . S
C456 C457 1.378 . S
C456 H478 0.931 . S
C457 C452 1.377 . S
C457 C456 1.378 . S
C457 H479 0.931 . S
C458 O468 1.259 . S
C458 O469 1.270 . S
C459 O470 1.251 . S
C459 O471 1.251 . S
O460 C440 1.257 . S
O460 Eu441 2.473 . S
O461 C440 1.260 . S
O461 Eu441 2.480 . S
O462 Eu441 2.430 . S
O462 C448 1.259 . S
O463 Eu441 2.670 . S
O463 C448 1.270 . S
O463 Eu451 2.355 . S
O464 Eu441 2.394 . S
O464 C449 1.251 . S
O465 C449 1.251 . S
O465 Eu451 2.374 . S
O466 C450 1.257 1_554 S
O466 Eu451 2.473 . S
O467 C450 1.260 1_554 S
O467 Eu451 2.480 . S
O468 Eu451 2.430 . S
O468 C458 1.259 . S
O469 Eu441 2.355 . S
O469 Eu451 2.670 . S
O469 C458 1.270 . S
O470 Eu451 2.394 . S
O470 C459 1.251 . S
O471 Eu441 2.374 . S
O471 C459 1.251 . S
H472 C443 0.931 . S
H473 C444 0.931 . S
H474 C446 0.931 . S
H475 C447 0.931 . S
H476 C453 0.931 . S
H477 C454 0.931 . S
H478 C456 0.931 . S
H479 C457 0.931 . S
H480 C488 0.950 . S
H481 C493 0.950 . S
H482 C490 0.950 . S
H483 C492 0.950 . S
H484 C494 0.950 . S
H485 C496 0.950 . S
H486 C498 0.950 . S
H487 C499 0.950 . S
C488 H480 0.950 . S
C488 C489 1.386 . S
C488 C490 1.391 . S
C489 C488 1.386 . S
C489 C493 1.393 . S
C490 H482 0.950 . S
C490 C488 1.391 . S
C490 C491 1.400 . S
C491 C490 1.400 . S
C491 C492 1.398 . S
C491 C497 1.491 . S
C492 H483 0.950 . S
C492 C491 1.398 . S
C492 C493 1.391 . S
C493 H481 0.950 . S
C493 C489 1.393 . S
C493 C492 1.391 . S
C494 H484 0.950 . S
C494 C495 1.386 . S
C494 C496 1.391 . S
C495 C494 1.386 . S
C495 C499 1.393 . S
C496 H485 0.950 . S
C496 C494 1.391 . S
C496 C497 1.400 . S
C497 C491 1.491 . S
C497 C496 1.400 . S
C497 C498 1.398 . S
C498 H486 0.950 . S
C498 C497 1.398 . S
C498 C499 1.391 . S
C499 H487 0.950 . S
C499 C495 1.393 . S
C499 C498 1.391 . S
H500 C508 0.950 . S
H501 C513 0.950 . S
H502 C510 0.950 . S
H503 C512 0.950 . S
H504 C514 0.950 . S
H505 C516 0.950 . S
H506 C518 0.950 . S
H507 C519 0.950 . S
C508 H500 0.950 . S
C508 C509 1.386 . S
C508 C510 1.391 . S
C509 C508 1.386 . S
C509 C513 1.393 . S
C510 H502 0.950 . S
C510 C508 1.391 . S
C510 C511 1.400 . S
C511 C510 1.400 . S
C511 C512 1.398 . S
C511 C517 1.491 . S
C512 H503 0.950 . S
C512 C511 1.398 . S
C512 C513 1.391 . S
C513 H501 0.950 . S
C513 C509 1.393 . S
C513 C512 1.391 . S
C514 H504 0.950 . S
C514 C515 1.386 . S
C514 C516 1.391 . S
C515 C514 1.386 . S
C515 C519 1.393 . S
C516 H505 0.950 . S
C516 C514 1.391 . S
C516 C517 1.400 . S
C517 C511 1.491 . S
C517 C516 1.400 . S
C517 C518 1.398 . S
C518 H506 0.950 . S
C518 C517 1.398 . S
C518 C519 1.391 . S
C519 H507 0.950 . S
C519 C515 1.393 . S
C519 C518 1.391 . S
H520 C528 0.950 . S
H521 C533 0.950 . S
H522 C530 0.950 . S
H523 C532 0.950 . S
H524 C534 0.950 . S
H525 C536 0.950 . S
H526 C538 0.950 . S
H527 C539 0.950 . S
C528 H520 0.950 . S
C528 C529 1.386 . S
C528 C530 1.391 . S
C529 C528 1.386 . S
C529 C533 1.393 . S
C530 H522 0.950 . S
C530 C528 1.391 . S
C530 C531 1.400 . S
C531 C530 1.400 . S
C531 C532 1.398 . S
C531 C537 1.491 . S
C532 H523 0.950 . S
C532 C531 1.398 . S
C532 C533 1.391 . S
C533 H521 0.950 . S
C533 C529 1.393 . S
C533 C532 1.391 . S
C534 H524 0.950 . S
C534 C535 1.386 . S
C534 C536 1.391 . S
C535 C534 1.386 . S
C535 C539 1.393 . S
C536 H525 0.950 . S
C536 C534 1.391 . S
C536 C537 1.400 . S
C537 C531 1.491 . S
C537 C536 1.400 . S
C537 C538 1.398 . S
C538 H526 0.950 . S
C538 C537 1.398 . S
C538 C539 1.391 . S
C539 H527 0.950 . S
C539 C535 1.393 . S
C539 C538 1.391 . S
H540 C548 0.950 . S
H541 C553 0.950 . S
H542 C550 0.950 . S
H543 C552 0.950 . S
H544 C554 0.950 . S
H545 C556 0.950 . S
H546 C558 0.950 . S
H547 C559 0.950 . S
C548 H540 0.950 . S
C548 C549 1.386 . S
C548 C550 1.391 . S
C549 C548 1.386 . S
C549 C553 1.393 . S
C550 H542 0.950 . S
C550 C548 1.391 . S
C550 C551 1.400 . S
C551 C550 1.400 . S
C551 C552 1.398 . S
C551 C557 1.491 . S
C552 H543 0.950 . S
C552 C551 1.398 . S
C552 C553 1.391 . S
C553 H541 0.950 . S
C553 C549 1.393 . S
C553 C552 1.391 . S
C554 H544 0.950 . S
C554 C555 1.386 . S
C554 C556 1.391 . S
C555 C554 1.386 . S
C555 C559 1.393 . S
C556 H545 0.950 . S
C556 C554 1.391 . S
C556 C557 1.400 . S
C557 C551 1.491 . S
C557 C556 1.400 . S
C557 C558 1.398 . S
C558 H546 0.950 . S
C558 C557 1.398 . S
C558 C559 1.391 . S
C559 H547 0.950 . S
C559 C555 1.393 . S
C559 C558 1.391 . S
H560 C568 0.950 . S
H561 C573 0.950 . S
H562 C570 0.950 . S
H563 C572 0.950 . S
H564 C574 0.950 . S
H565 C576 0.950 . S
H566 C578 0.950 . S
H567 C579 0.950 . S
C568 H560 0.950 . S
C568 C569 1.386 . S
C568 C570 1.391 . S
C569 C568 1.386 . S
C569 C573 1.393 . S
C570 H562 0.950 . S
C570 C568 1.391 . S
C570 C571 1.400 . S
C571 C570 1.400 . S
C571 C572 1.398 . S
C571 C577 1.491 . S
C572 H563 0.950 . S
C572 C571 1.398 . S
C572 C573 1.391 . S
C573 H561 0.950 . S
C573 C569 1.393 . S
C573 C572 1.391 . S
C574 H564 0.950 . S
C574 C575 1.386 . S
C574 C576 1.391 . S
C575 C574 1.386 . S
C575 C579 1.393 . S
C576 H565 0.950 . S
C576 C574 1.391 . S
C576 C577 1.400 . S
C577 C571 1.491 . S
C577 C576 1.400 . S
C577 C578 1.398 . S
C578 H566 0.950 . S
C578 C577 1.398 . S
C578 C579 1.391 . S
C579 H567 0.950 . S
C579 C575 1.393 . S
C579 C578 1.391 . S
H580 C588 0.950 . S
H581 C593 0.950 . S
H582 C590 0.950 . S
H583 C592 0.950 . S
H584 C594 0.950 . S
H585 C596 0.950 . S
H586 C598 0.950 . S
H587 C599 0.950 . S
C588 H580 0.950 . S
C588 C589 1.386 . S
C588 C590 1.391 . S
C589 C588 1.386 . S
C589 C593 1.393 . S
C590 H582 0.950 . S
C590 C588 1.391 . S
C590 C591 1.400 . S
C591 C590 1.400 . S
C591 C592 1.398 . S
C591 C597 1.491 . S
C592 H583 0.950 . S
C592 C591 1.398 . S
C592 C593 1.391 . S
C593 H581 0.950 . S
C593 C589 1.393 . S
C593 C592 1.391 . S
C594 H584 0.950 . S
C594 C595 1.386 . S
C594 C596 1.391 . S
C595 C594 1.386 . S
C595 C599 1.393 . S
C596 H585 0.950 . S
C596 C594 1.391 . S
C596 C597 1.400 . S
C597 C591 1.491 . S
C597 C596 1.400 . S
C597 C598 1.398 . S
C598 H586 0.950 . S
C598 C597 1.398 . S
C598 C599 1.391 . S
C599 H587 0.950 . S
C599 C595 1.393 . S
C599 C598 1.391 . S
H600 C608 0.950 . S
H601 C613 0.950 . S
H602 C610 0.950 . S
H603 C612 0.950 1_554 S
H604 C614 0.950 . S
H605 C616 0.950 . S
H606 C618 0.950 1_556 S
H607 C619 0.950 . S
C608 H600 0.950 . S
C608 C609 1.386 . S
C608 C610 1.391 . S
C609 C608 1.386 . S
C609 C613 1.393 . S
C610 H602 0.950 . S
C610 C608 1.391 . S
C610 C611 1.400 . S
C611 C610 1.400 . S
C611 C612 1.398 . S
C611 C617 1.491 1_556 S
C612 H603 0.950 1_556 S
C612 C611 1.398 . S
C612 C613 1.391 . S
C613 H601 0.950 . S
C613 C609 1.393 . S
C613 C612 1.391 . S
C614 H604 0.950 . S
C614 C615 1.386 . S
C614 C616 1.391 . S
C615 C614 1.386 . S
C615 C619 1.393 . S
C616 H605 0.950 . S
C616 C614 1.391 . S
C616 C617 1.400 . S
C617 C611 1.491 1_554 S
C617 C616 1.400 . S
C617 C618 1.398 . S
C618 H606 0.950 1_554 S
C618 C617 1.398 . S
C618 C619 1.391 . S
C619 H607 0.950 . S
C619 C615 1.393 . S
C619 C618 1.391 . S
H620 C628 0.950 . S
H621 C633 0.950 . S
H622 C630 0.950 . S
H623 C632 0.950 . S
H624 C634 0.950 . S
H625 C636 0.950 . S
H626 C638 0.950 . S
H627 C639 0.950 . S
C628 H620 0.950 . S
C628 C629 1.386 . S
C628 C630 1.391 . S
C629 C628 1.386 . S
C629 C633 1.393 . S
C630 H622 0.950 . S
C630 C628 1.391 . S
C630 C631 1.400 . S
C631 C630 1.400 . S
C631 C632 1.398 . S
C631 C637 1.491 . S
C632 H623 0.950 . S
C632 C631 1.398 . S
C632 C633 1.391 . S
C633 H621 0.950 . S
C633 C629 1.393 . S
C633 C632 1.391 . S
C634 H624 0.950 . S
C634 C635 1.386 . S
C634 C636 1.391 . S
C635 C634 1.386 . S
C635 C639 1.393 . S
C636 H625 0.950 . S
C636 C634 1.391 . S
C636 C637 1.400 . S
C637 C631 1.491 . S
C637 C636 1.400 . S
C637 C638 1.398 . S
C638 H626 0.950 . S
C638 C637 1.398 . S
C638 C639 1.391 . S
C639 H627 0.950 . S
C639 C635 1.393 . S
C639 C638 1.391 . S
H640 C648 0.950 . S
H641 C653 0.950 . S
H642 C650 0.950 . S
H643 C652 0.950 . S
H644 C654 0.950 . S
H645 C656 0.950 . S
H646 C658 0.950 . S
H647 C659 0.950 . S
C648 H640 0.950 . S
C648 C649 1.386 . S
C648 C650 1.391 . S
C649 C648 1.386 . S
C649 C653 1.393 . S
C650 H642 0.950 . S
C650 C648 1.391 . S
C650 C651 1.400 . S
C651 C650 1.400 . S
C651 C652 1.398 . S
C651 C657 1.491 . S
C652 H643 0.950 . S
C652 C651 1.398 . S
C652 C653 1.391 . S
C653 H641 0.950 . S
C653 C649 1.393 . S
C653 C652 1.391 . S
C654 H644 0.950 . S
C654 C655 1.386 . S
C654 C656 1.391 . S
C655 C654 1.386 . S
C655 C659 1.393 . S
C656 H645 0.950 . S
C656 C654 1.391 . S
C656 C657 1.400 . S
C657 C651 1.491 . S
C657 C656 1.400 . S
C657 C658 1.398 . S
C658 H646 0.950 . S
C658 C657 1.398 . S
C658 C659 1.391 . S
C659 H647 0.950 . S
C659 C655 1.393 . S
C659 C658 1.391 . S
H660 C668 0.950 . S
H661 C673 0.950 . S
H662 C670 0.950 1_554 S
H663 C672 0.950 . S
H664 C674 0.950 . S
H665 C676 0.950 1_556 S
H666 C678 0.950 . S
H667 C679 0.950 . S
C668 H660 0.950 . S
C668 C669 1.386 . S
C668 C670 1.391 . S
C669 C668 1.386 . S
C669 C673 1.393 . S
C670 H662 0.950 1_556 S
C670 C668 1.391 . S
C670 C671 1.400 . S
C671 C670 1.400 . S
C671 C672 1.398 . S
C671 C677 1.491 1_556 S
C672 H663 0.950 . S
C672 C671 1.398 . S
C672 C673 1.391 . S
C673 H661 0.950 . S
C673 C669 1.393 . S
C673 C672 1.391 . S
C674 H664 0.950 . S
C674 C675 1.386 . S
C674 C676 1.391 . S
C675 C674 1.386 . S
C675 C679 1.393 . S
C676 H665 0.950 1_554 S
C676 C674 1.391 . S
C676 C677 1.400 . S
C677 C671 1.491 1_554 S
C677 C676 1.400 . S
C677 C678 1.398 . S
C678 H666 0.950 . S
C678 C677 1.398 . S
C678 C679 1.391 . S
C679 H667 0.950 . S
C679 C675 1.393 . S
C679 C678 1.391 . S
H680 C688 0.950 . S
H681 C693 0.950 . S
H682 C690 0.950 . S
H683 C692 0.950 . S
H684 C694 0.950 . S
H685 C696 0.950 . S
H686 C698 0.950 . S
H687 C699 0.950 . S
C688 H680 0.950 . S
C688 C689 1.386 . S
C688 C690 1.391 . S
C689 C688 1.386 . S
C689 C693 1.393 . S
C690 H682 0.950 . S
C690 C688 1.391 . S
C690 C691 1.400 . S
C691 C690 1.400 . S
C691 C692 1.398 . S
C691 C697 1.491 . S
C692 H683 0.950 . S
C692 C691 1.398 . S
C692 C693 1.391 . S
C693 H681 0.950 . S
C693 C689 1.393 . S
C693 C692 1.391 . S
C694 H684 0.950 . S
C694 C695 1.386 . S
C694 C696 1.391 . S
C695 C694 1.386 . S
C695 C699 1.393 . S
C696 H685 0.950 . S
C696 C694 1.391 . S
C696 C697 1.400 . S
C697 C691 1.491 . S
C697 C696 1.400 . S
C697 C698 1.398 . S
C698 H686 0.950 . S
C698 C697 1.398 . S
C698 C699 1.391 . S
C699 H687 0.950 . S
C699 C695 1.393 . S
C699 C698 1.391 . S
H700 C708 0.950 . S
H701 C713 0.950 . S
H702 C710 0.950 . S
H703 C712 0.950 . S
H704 C714 0.950 . S
H705 C716 0.950 . S
H706 C718 0.950 . S
H707 C719 0.950 . S
C708 H700 0.950 . S
C708 C709 1.386 . S
C708 C710 1.391 . S
C709 C708 1.386 . S
C709 C713 1.393 . S
C710 H702 0.950 . S
C710 C708 1.391 . S
C710 C711 1.400 . S
C711 C710 1.400 . S
C711 C712 1.398 . S
C711 C717 1.491 . S
C712 H703 0.950 . S
C712 C711 1.398 . S
C712 C713 1.391 . S
C713 H701 0.950 . S
C713 C709 1.393 . S
C713 C712 1.391 . S
C714 H704 0.950 . S
C714 C715 1.386 . S
C714 C716 1.391 . S
C715 C714 1.386 . S
C715 C719 1.393 . S
C716 H705 0.950 . S
C716 C714 1.391 . S
C716 C717 1.400 . S
C717 C711 1.491 . S
C717 C716 1.400 . S
C717 C718 1.398 . S
C718 H706 0.950 . S
C718 C717 1.398 . S
C718 C719 1.391 . S
C719 H707 0.950 . S
C719 C715 1.393 . S
C719 C718 1.391 . S
H720 C728 0.950 . S
H721 C733 0.950 . S
H722 C730 0.950 . S
H723 C732 0.949 1_554 S
H724 C734 0.950 . S
H725 C736 0.950 . S
H726 C738 0.949 1_556 S
H727 C739 0.950 . S
C728 H720 0.950 . S
C728 C729 1.386 . S
C728 C730 1.391 1_565 S
C729 C728 1.386 . S
C729 C733 1.393 . S
C730 H722 0.950 . S
C730 C728 1.391 1_545 S
C730 C731 1.400 1_545 S
C731 C730 1.400 1_565 S
C731 C732 1.398 . S
C731 C737 1.491 1_566 S
C732 H723 0.949 1_556 S
C732 C731 1.398 . S
C732 C733 1.391 . S
C733 H721 0.950 . S
C733 C729 1.393 . S
C733 C732 1.391 . S
C734 H724 0.950 . S
C734 C735 1.386 . S
C734 C736 1.391 1_545 S
C735 C734 1.386 . S
C735 C739 1.393 . S
C736 H725 0.950 . S
C736 C734 1.391 1_565 S
C736 C737 1.400 1_565 S
C737 C731 1.491 1_544 S
C737 C736 1.400 1_545 S
C737 C738 1.398 . S
C738 H726 0.949 1_554 S
C738 C737 1.398 . S
C738 C739 1.391 . S
C739 H727 0.950 . S
C739 C735 1.393 . S
C739 C738 1.391 . S
H740 C748 0.950 . S
H741 C753 0.950 . S
H742 C750 0.950 . S
H743 C752 0.950 . S
H744 C754 0.950 . S
H745 C756 0.950 . S
H746 C758 0.950 . S
H747 C759 0.950 . S
C748 H740 0.950 . S
C748 C749 1.386 . S
C748 C750 1.391 . S
C749 C748 1.386 . S
C749 C753 1.393 . S
C750 H742 0.950 . S
C750 C748 1.391 . S
C750 C751 1.400 . S
C751 C750 1.400 . S
C751 C752 1.398 . S
C751 C757 1.491 . S
C752 H743 0.950 . S
C752 C751 1.398 . S
C752 C753 1.391 . S
C753 H741 0.950 . S
C753 C749 1.393 . S
C753 C752 1.391 . S
C754 H744 0.950 . S
C754 C755 1.386 . S
C754 C756 1.391 . S
C755 C754 1.386 . S
C755 C759 1.393 . S
C756 H745 0.950 . S
C756 C754 1.391 . S
C756 C757 1.400 . S
C757 C751 1.491 . S
C757 C756 1.400 . S
C757 C758 1.398 . S
C758 H746 0.950 . S
C758 C757 1.398 . S
C758 C759 1.391 . S
C759 H747 0.950 . S
C759 C755 1.393 . S
C759 C758 1.391 . S
H760 C768 0.950 . S
H761 C773 0.950 . S
H762 C770 0.950 . S
H763 C772 0.950 . S
H764 C774 0.950 . S
H765 C776 0.950 . S
H766 C778 0.950 . S
H767 C779 0.950 . S
C768 H760 0.950 . S
C768 C769 1.386 . S
C768 C770 1.391 . S
C769 C768 1.386 . S
C769 C773 1.393 . S
C770 H762 0.950 . S
C770 C768 1.391 . S
C770 C771 1.400 . S
C771 C770 1.400 . S
C771 C772 1.398 1_455 S
C771 C777 1.491 1_455 S
C772 H763 0.950 . S
C772 C771 1.398 1_655 S
C772 C773 1.391 1_655 S
C773 H761 0.950 . S
C773 C769 1.393 . S
C773 C772 1.391 1_455 S
C774 H764 0.950 . S
C774 C775 1.386 . S
C774 C776 1.391 . S
C775 C774 1.386 . S
C775 C779 1.393 . S
C776 H765 0.950 . S
C776 C774 1.391 . S
C776 C777 1.400 . S
C777 C771 1.491 1_655 S
C777 C776 1.400 . S
C777 C778 1.398 1_655 S
C778 H766 0.950 . S
C778 C777 1.398 1_455 S
C778 C779 1.391 1_455 S
C779 H767 0.950 . S
C779 C775 1.393 . S
C779 C778 1.391 1_655 S
H780 C788 0.950 . S
H781 C793 0.950 1_545 S
H782 C790 0.950 1_556 S
H783 C792 0.950 . S
H784 C794 0.950 . S
H785 C796 0.950 1_554 S
H786 C798 0.950 . S
H787 C799 0.950 1_565 S
C788 H780 0.950 . S
C788 C789 1.386 . S
C788 C790 1.391 . S
C789 C788 1.386 . S
C789 C793 1.393 . S
C790 H782 0.950 1_554 S
C790 C788 1.391 . S
C790 C791 1.400 . S
C791 C790 1.400 . S
C791 C792 1.398 1_565 S
C791 C797 1.491 1_564 S
C792 H783 0.950 . S
C792 C791 1.398 1_545 S
C792 C793 1.391 1_545 S
C793 H781 0.950 1_565 S
C793 C789 1.393 . S
C793 C792 1.391 1_565 S
C794 H784 0.950 . S
C794 C795 1.386 . S
C794 C796 1.391 . S
C795 C794 1.386 . S
C795 C799 1.393 . S
C796 H785 0.950 1_556 S
C796 C794 1.391 . S
C796 C797 1.400 . S
C797 C791 1.491 1_546 S
C797 C796 1.400 . S
C797 C798 1.398 1_545 S
C798 H786 0.950 . S
C798 C797 1.398 1_565 S
C798 C799 1.391 1_565 S
C799 H787 0.950 1_545 S
C799 C795 1.393 . S
C799 C798 1.391 1_545 S
H800 C808 0.950 . S
H801 C813 0.950 . S
H802 C810 0.950 . S
H803 C812 0.950 . S
H804 C814 0.950 . S
H805 C816 0.950 . S
H806 C818 0.950 . S
H807 C819 0.950 . S
C808 H800 0.950 . S
C808 C809 1.386 . S
C808 C810 1.391 . S
C809 C808 1.386 . S
C809 C813 1.393 . S
C810 H802 0.950 . S
C810 C808 1.391 . S
C810 C811 1.400 . S
C811 C810 1.400 . S
C811 C812 1.398 . S
C811 C817 1.491 . S
C812 H803 0.950 . S
C812 C811 1.398 . S
C812 C813 1.391 . S
C813 H801 0.950 . S
C813 C809 1.393 . S
C813 C812 1.391 . S
C814 H804 0.950 . S
C814 C815 1.386 . S
C814 C816 1.391 . S
C815 C814 1.386 . S
C815 C819 1.393 . S
C816 H805 0.950 . S
C816 C814 1.391 . S
C816 C817 1.400 . S
C817 C811 1.491 . S
C817 C816 1.400 . S
C817 C818 1.398 . S
C818 H806 0.950 . S
C818 C817 1.398 . S
C818 C819 1.391 . S
C819 H807 0.950 . S
C819 C815 1.393 . S
C819 C818 1.391 . S
H820 C828 0.950 . S
H821 C833 0.950 . S
H822 C830 0.950 . S
H823 C832 0.950 . S
H824 C834 0.950 . S
H825 C836 0.950 . S
H826 C838 0.950 . S
H827 C839 0.950 . S
C828 H820 0.950 . S
C828 C829 1.386 . S
C828 C830 1.391 . S
C829 C828 1.386 . S
C829 C833 1.393 . S
C830 H822 0.950 . S
C830 C828 1.391 . S
C830 C831 1.400 . S
C831 C830 1.400 . S
C831 C832 1.398 1_455 S
C831 C837 1.491 1_455 S
C832 H823 0.950 . S
C832 C831 1.398 1_655 S
C832 C833 1.391 1_655 S
C833 H821 0.950 . S
C833 C829 1.393 . S
C833 C832 1.391 1_455 S
C834 H824 0.950 . S
C834 C835 1.386 . S
C834 C836 1.391 . S
C835 C834 1.386 . S
C835 C839 1.393 . S
C836 H825 0.950 . S
C836 C834 1.391 . S
C836 C837 1.400 . S
C837 C831 1.491 1_655 S
C837 C836 1.400 . S
C837 C838 1.398 1_655 S
C838 H826 0.950 . S
C838 C837 1.398 1_455 S
C838 C839 1.391 1_455 S
C839 H827 0.950 . S
C839 C835 1.393 . S
C839 C838 1.391 1_655 S
H840 C848 0.950 . S
H841 C853 0.950 . S
H842 C850 0.950 1_565 S
H843 C852 0.950 . S
H844 C854 0.950 . S
H845 C856 0.950 1_545 S
H846 C858 0.950 . S
H847 C859 0.950 . S
C848 H840 0.950 . S
C848 C849 1.386 . S
C848 C850 1.391 . S
C849 C848 1.386 . S
C849 C853 1.393 . S
C850 H842 0.950 1_545 S
C850 C848 1.391 . S
C850 C851 1.400 . S
C851 C850 1.400 . S
C851 C852 1.398 . S
C851 C857 1.491 1_545 S
C852 H843 0.950 . S
C852 C851 1.398 . S
C852 C853 1.391 . S
C853 H841 0.950 . S
C853 C849 1.393 . S
C853 C852 1.391 . S
C854 H844 0.950 . S
C854 C855 1.386 . S
C854 C856 1.391 . S
C855 C854 1.386 . S
C855 C859 1.393 . S
C856 H845 0.950 1_565 S
C856 C854 1.391 . S
C856 C857 1.400 . S
C857 C851 1.491 1_565 S
C857 C856 1.400 . S
C857 C858 1.398 . S
C858 H846 0.950 . S
C858 C857 1.398 . S
C858 C859 1.391 . S
C859 H847 0.950 . S
C859 C855 1.393 . S
C859 C858 1.391 . S
H860 C868 0.950 . S
H861 C873 0.950 . S
H862 C870 0.950 . S
H863 C872 0.950 . S
H864 C874 0.950 . S
H865 C876 0.950 . S
H866 C878 0.950 . S
H867 C879 0.950 . S
C868 H860 0.950 . S
C868 C869 1.386 . S
C868 C870 1.391 . S
C869 C868 1.386 . S
C869 C873 1.393 . S
C870 H862 0.950 . S
C870 C868 1.391 . S
C870 C871 1.400 . S
C871 C870 1.400 . S
C871 C872 1.398 . S
C871 C877 1.491 . S
C872 H863 0.950 . S
C872 C871 1.398 . S
C872 C873 1.391 . S
C873 H861 0.950 . S
C873 C869 1.393 . S
C873 C872 1.391 . S
C874 H864 0.950 . S
C874 C875 1.386 . S
C874 C876 1.391 . S
C875 C874 1.386 . S
C875 C879 1.393 . S
C876 H865 0.950 . S
C876 C874 1.391 . S
C876 C877 1.400 . S
C877 C871 1.491 . S
C877 C876 1.400 . S
C877 C878 1.398 . S
C878 H866 0.950 . S
C878 C877 1.398 . S
C878 C879 1.391 . S
C879 H867 0.950 . S
C879 C875 1.393 . S
C879 C878 1.391 . S
H880 C888 0.950 . S
H881 C893 0.950 . S
H882 C890 0.950 . S
H883 C892 0.950 . S
H884 C894 0.950 . S
H885 C896 0.950 . S
H886 C898 0.950 . S
H887 C899 0.950 . S
C888 H880 0.950 . S
C888 C889 1.386 . S
C888 C890 1.391 . S
C889 C888 1.386 . S
C889 C893 1.393 . S
C890 H882 0.950 . S
C890 C888 1.391 . S
C890 C891 1.400 . S
C891 C890 1.400 . S
C891 C892 1.398 . S
C891 C897 1.491 1_655 S
C892 H883 0.950 . S
C892 C891 1.398 . S
C892 C893 1.391 . S
C893 H881 0.950 . S
C893 C889 1.393 . S
C893 C892 1.391 . S
C894 H884 0.950 . S
C894 C895 1.386 . S
C894 C896 1.391 . S
C895 C894 1.386 . S
C895 C899 1.393 . S
C896 H885 0.950 . S
C896 C894 1.391 . S
C896 C897 1.400 . S
C897 C891 1.491 1_455 S
C897 C896 1.400 . S
C897 C898 1.398 . S
C898 H886 0.950 . S
C898 C897 1.398 . S
C898 C899 1.391 . S
C899 H887 0.950 . S
C899 C895 1.393 . S
C899 C898 1.391 . S
H900 C908 0.950 . S
H901 C913 0.950 . S
H902 C910 0.950 1_655 S
H903 C912 0.950 . S
H904 C914 0.950 . S
H905 C916 0.950 1_455 S
H906 C918 0.950 . S
H907 C919 0.950 . S
C908 H900 0.950 . S
C908 C909 1.386 . S
C908 C910 1.391 . S
C909 C908 1.386 . S
C909 C913 1.393 . S
C910 H902 0.950 1_455 S
C910 C908 1.391 . S
C910 C911 1.400 . S
C911 C910 1.400 . S
C911 C912 1.398 . S
C911 C917 1.491 1_455 S
C912 H903 0.950 . S
C912 C911 1.398 . S
C912 C913 1.391 . S
C913 H901 0.950 . S
C913 C909 1.393 . S
C913 C912 1.391 . S
C914 H904 0.950 . S
C914 C915 1.386 . S
C914 C916 1.391 . S
C915 C914 1.386 . S
C915 C919 1.393 . S
C916 H905 0.950 1_655 S
C916 C914 1.391 . S
C916 C917 1.400 . S
C917 C911 1.491 1_655 S
C917 C916 1.400 . S
C917 C918 1.398 . S
C918 H906 0.950 . S
C918 C917 1.398 . S
C918 C919 1.391 . S
C919 H907 0.950 . S
C919 C915 1.393 . S
C919 C918 1.391 . S
H920 C928 0.950 . S
H921 C933 0.950 . S
H922 C930 0.950 . S
H923 C932 0.950 1_545 S
H924 C934 0.950 . S
H925 C936 0.950 . S
H926 C938 0.950 1_565 S
H927 C939 0.950 . S
C928 H920 0.950 . S
C928 C929 1.386 . S
C928 C930 1.391 . S
C929 C928 1.386 . S
C929 C933 1.393 . S
C930 H922 0.950 . S
C930 C928 1.391 . S
C930 C931 1.400 . S
C931 C930 1.400 . S
C931 C932 1.398 . S
C931 C937 1.491 1_565 S
C932 H923 0.950 1_565 S
C932 C931 1.398 . S
C932 C933 1.391 . S
C933 H921 0.950 . S
C933 C929 1.393 . S
C933 C932 1.391 . S
C934 H924 0.950 . S
C934 C935 1.386 . S
C934 C936 1.391 . S
C935 C934 1.386 . S
C935 C939 1.393 . S
C936 H925 0.950 . S
C936 C934 1.391 . S
C936 C937 1.400 . S
C937 C931 1.491 1_545 S
C937 C936 1.400 . S
C937 C938 1.398 . S
C938 H926 0.950 1_545 S
C938 C937 1.398 . S
C938 C939 1.391 . S
C939 H927 0.950 . S
C939 C935 1.393 . S
C939 C938 1.391 . S
H940 C948 0.950 . S
H941 C953 0.950 . S
H942 C950 0.950 . S
H943 C952 0.950 . S
H944 C954 0.950 . S
H945 C956 0.950 . S
H946 C958 0.950 . S
H947 C959 0.950 . S
C948 H940 0.950 . S
C948 C949 1.386 . S
C948 C950 1.391 . S
C949 C948 1.386 . S
C949 C953 1.393 . S
C950 H942 0.950 . S
C950 C948 1.391 . S
C950 C951 1.400 . S
C951 C950 1.400 . S
C951 C952 1.398 . S
C951 C957 1.491 . S
C952 H943 0.950 . S
C952 C951 1.398 . S
C952 C953 1.391 . S
C953 H941 0.950 . S
C953 C949 1.393 . S
C953 C952 1.391 . S
C954 H944 0.950 . S
C954 C955 1.386 . S
C954 C956 1.391 . S
C955 C954 1.386 . S
C955 C959 1.393 . S
C956 H945 0.950 . S
C956 C954 1.391 . S
C956 C957 1.400 . S
C957 C951 1.491 . S
C957 C956 1.400 . S
C957 C958 1.398 . S
C958 H946 0.950 . S
C958 C957 1.398 . S
C958 C959 1.391 . S
C959 H947 0.950 . S
C959 C955 1.393 . S
C959 C958 1.391 . S
H960 C968 0.950 . S
H961 C973 0.950 . S
H962 C970 0.950 . S
H963 C972 0.950 1_545 S
H964 C974 0.950 . S
H965 C976 0.950 . S
H966 C978 0.950 1_565 S
H967 C979 0.950 . S
C968 H960 0.950 . S
C968 C969 1.386 . S
C968 C970 1.391 . S
C969 C968 1.386 . S
C969 C973 1.393 . S
C970 H962 0.950 . S
C970 C968 1.391 . S
C970 C971 1.400 . S
C971 C970 1.400 . S
C971 C972 1.398 . S
C971 C977 1.491 1_565 S
C972 H963 0.950 1_565 S
C972 C971 1.398 . S
C972 C973 1.391 . S
C973 H961 0.950 . S
C973 C969 1.393 . S
C973 C972 1.391 . S
C974 H964 0.950 . S
C974 C975 1.386 . S
C974 C976 1.391 . S
C975 C974 1.386 . S
C975 C979 1.393 . S
C976 H965 0.950 . S
C976 C974 1.391 . S
C976 C977 1.400 . S
C977 C971 1.491 1_545 S
C977 C976 1.400 . S
C977 C978 1.398 . S
C978 H966 0.950 1_545 S
C978 C977 1.398 . S
C978 C979 1.391 . S
C979 H967 0.950 . S
C979 C975 1.393 . S
C979 C978 1.391 . S
H980 C988 0.950 . S
H981 C993 0.950 . S
H982 C990 0.950 . S
H983 C992 0.950 . S
H984 C994 0.950 . S
H985 C996 0.950 . S
H986 C998 0.950 . S
H987 C999 0.950 . S
C988 H980 0.950 . S
C988 C989 1.386 . S
C988 C990 1.391 . S
C989 C988 1.386 . S
C989 C993 1.393 . S
C990 H982 0.950 . S
C990 C988 1.391 . S
C990 C991 1.400 . S
C991 C990 1.400 . S
C991 C992 1.398 . S
C991 C997 1.491 . S
C992 H983 0.950 . S
C992 C991 1.398 . S
C992 C993 1.391 . S
C993 H981 0.950 . S
C993 C989 1.393 . S
C993 C992 1.391 . S
C994 H984 0.950 . S
C994 C995 1.386 . S
C994 C996 1.391 . S
C995 C994 1.386 . S
C995 C999 1.393 . S
C996 H985 0.950 . S
C996 C994 1.391 . S
C996 C997 1.400 . S
C997 C991 1.491 . S
C997 C996 1.400 . S
C997 C998 1.398 . S
C998 H986 0.950 . S
C998 C997 1.398 . S
C998 C999 1.391 . S
C999 H987 0.950 . S
C999 C995 1.393 . S
C999 C998 1.391 . S
H1000 C1008 0.950 . S
H1001 C1013 0.950 . S
H1002 C1010 0.950 . S
H1003 C1012 0.950 1_455 S
H1004 C1014 0.950 . S
H1005 C1016 0.950 . S
H1006 C1018 0.950 1_655 S
H1007 C1019 0.950 . S
C1008 H1000 0.950 . S
C1008 C1009 1.386 . S
C1008 C1010 1.391 . S
C1009 C1008 1.386 . S
C1009 C1013 1.393 . S
C1010 H1002 0.950 . S
C1010 C1008 1.391 . S
C1010 C1011 1.400 . S
C1011 C1010 1.400 . S
C1011 C1012 1.398 . S
C1011 C1017 1.491 1_655 S
C1012 H1003 0.950 1_655 S
C1012 C1011 1.398 . S
C1012 C1013 1.391 . S
C1013 H1001 0.950 . S
C1013 C1009 1.393 . S
C1013 C1012 1.391 . S
C1014 H1004 0.950 . S
C1014 C1015 1.386 . S
C1014 C1016 1.391 . S
C1015 C1014 1.386 . S
C1015 C1019 1.393 . S
C1016 H1005 0.950 . S
C1016 C1014 1.391 . S
C1016 C1017 1.400 . S
C1017 C1011 1.491 1_455 S
C1017 C1016 1.400 . S
C1017 C1018 1.398 . S
C1018 H1006 0.950 1_455 S
C1018 C1017 1.398 . S
C1018 C1019 1.391 . S
C1019 H1007 0.950 . S
C1019 C1015 1.393 . S
C1019 C1018 1.391 . S
H1020 C1028 0.950 . S
H1021 C1033 0.950 . S
H1022 C1030 0.950 . S
H1023 C1032 0.950 1_565 S
H1024 C1034 0.950 . S
H1025 C1036 0.950 . S
H1026 C1038 0.950 1_545 S
H1027 C1039 0.950 . S
C1028 H1020 0.950 . S
C1028 C1029 1.386 . S
C1028 C1030 1.391 . S
C1029 C1028 1.386 . S
C1029 C1033 1.393 . S
C1030 H1022 0.950 . S
C1030 C1028 1.391 . S
C1030 C1031 1.400 . S
C1031 C1030 1.400 . S
C1031 C1032 1.398 . S
C1031 C1037 1.491 1_545 S
C1032 H1023 0.950 1_545 S
C1032 C1031 1.398 . S
C1032 C1033 1.391 . S
C1033 H1021 0.950 . S
C1033 C1029 1.393 . S
C1033 C1032 1.391 . S
C1034 H1024 0.950 . S
C1034 C1035 1.386 . S
C1034 C1036 1.391 . S
C1035 C1034 1.386 . S
C1035 C1039 1.393 . S
C1036 H1025 0.950 . S
C1036 C1034 1.391 . S
C1036 C1037 1.400 . S
C1037 C1031 1.491 1_565 S
C1037 C1036 1.400 . S
C1037 C1038 1.398 . S
C1038 H1026 0.950 1_565 S
C1038 C1037 1.398 . S
C1038 C1039 1.391 . S
C1039 H1027 0.950 . S
C1039 C1035 1.393 . S
C1039 C1038 1.391 . S
H1040 C1048 0.950 . S
H1041 C1053 0.950 . S
H1042 C1050 0.950 . S
H1043 C1052 0.950 . S
H1044 C1054 0.950 . S
H1045 C1056 0.950 . S
H1046 C1058 0.950 . S
H1047 C1059 0.950 . S
C1048 H1040 0.950 . S
C1048 C1049 1.386 . S
C1048 C1050 1.391 . S
C1049 C1048 1.386 . S
C1049 C1053 1.393 . S
C1050 H1042 0.950 . S
C1050 C1048 1.391 . S
C1050 C1051 1.400 . S
C1051 C1050 1.400 . S
C1051 C1052 1.398 . S
C1051 C1057 1.491 . S
C1052 H1043 0.950 . S
C1052 C1051 1.398 . S
C1052 C1053 1.391 . S
C1053 H1041 0.950 . S
C1053 C1049 1.393 . S
C1053 C1052 1.391 . S
C1054 H1044 0.950 . S
C1054 C1055 1.386 . S
C1054 C1056 1.391 . S
C1055 C1054 1.386 . S
C1055 C1059 1.393 . S
C1056 H1045 0.950 . S
C1056 C1054 1.391 . S
C1056 C1057 1.400 . S
C1057 C1051 1.491 . S
C1057 C1056 1.400 . S
C1057 C1058 1.398 . S
C1058 H1046 0.950 . S
C1058 C1057 1.398 . S
C1058 C1059 1.391 . S
C1059 H1047 0.950 . S
C1059 C1055 1.393 . S
C1059 C1058 1.391 . S
H1060 C1068 0.950 . S
H1061 C1073 0.950 . S
H1062 C1070 0.950 1_655 S
H1063 C1072 0.950 . S
H1064 C1074 0.950 . S
H1065 C1076 0.950 1_455 S
H1066 C1078 0.950 . S
H1067 C1079 0.950 . S
C1068 H1060 0.950 . S
C1068 C1069 1.386 . S
C1068 C1070 1.391 . S
C1069 C1068 1.386 . S
C1069 C1073 1.393 . S
C1070 H1062 0.950 1_455 S
C1070 C1068 1.391 . S
C1070 C1071 1.400 . S
C1071 C1070 1.400 . S
C1071 C1072 1.398 . S
C1071 C1077 1.491 1_455 S
C1072 H1063 0.950 . S
C1072 C1071 1.398 . S
C1072 C1073 1.391 . S
C1073 H1061 0.950 . S
C1073 C1069 1.393 . S
C1073 C1072 1.391 . S
C1074 H1064 0.950 . S
C1074 C1075 1.386 . S
C1074 C1076 1.391 . S
C1075 C1074 1.386 . S
C1075 C1079 1.393 . S
C1076 H1065 0.950 1_655 S
C1076 C1074 1.391 . S
C1076 C1077 1.400 . S
C1077 C1071 1.491 1_655 S
C1077 C1076 1.400 . S
C1077 C1078 1.398 . S
C1078 H1066 0.950 . S
C1078 C1077 1.398 . S
C1078 C1079 1.391 . S
C1079 H1067 0.950 . S
C1079 C1075 1.393 . S
C1079 C1078 1.391 . S
H1080 C1088 0.950 . S
H1081 C1093 0.950 . S
H1082 C1090 0.950 . S
H1083 C1092 0.950 . S
H1084 C1094 0.950 . S
H1085 C1096 0.950 . S
H1086 C1098 0.950 . S
H1087 C1099 0.950 . S
C1088 H1080 0.950 . S
C1088 C1089 1.386 . S
C1088 C1090 1.391 . S
C1089 C1088 1.386 . S
C1089 C1093 1.393 . S
C1090 H1082 0.950 . S
C1090 C1088 1.391 . S
C1090 C1091 1.400 . S
C1091 C1090 1.400 . S
C1091 C1092 1.398 . S
C1091 C1097 1.491 . S
C1092 H1083 0.950 . S
C1092 C1091 1.398 . S
C1092 C1093 1.391 . S
C1093 H1081 0.950 . S
C1093 C1089 1.393 . S
C1093 C1092 1.391 . S
C1094 H1084 0.950 . S
C1094 C1095 1.386 . S
C1094 C1096 1.391 . S
C1095 C1094 1.386 . S
C1095 C1099 1.393 . S
C1096 H1085 0.950 . S
C1096 C1094 1.391 . S
C1096 C1097 1.400 . S
C1097 C1091 1.491 . S
C1097 C1096 1.400 . S
C1097 C1098 1.398 . S
C1098 H1086 0.950 . S
C1098 C1097 1.398 . S
C1098 C1099 1.391 . S
C1099 H1087 0.950 . S
C1099 C1095 1.393 . S
C1099 C1098 1.391 . S
H1100 C1108 0.950 . S
H1101 C1113 0.950 . S
H1102 C1110 0.950 . S
H1103 C1112 0.950 . S
H1104 C1114 0.950 . S
H1105 C1116 0.950 . S
H1106 C1118 0.950 . S
H1107 C1119 0.950 . S
C1108 H1100 0.950 . S
C1108 C1109 1.386 . S
C1108 C1110 1.391 . S
C1109 C1108 1.386 . S
C1109 C1113 1.393 . S
C1110 H1102 0.950 . S
C1110 C1108 1.391 . S
C1110 C1111 1.400 . S
C1111 C1110 1.400 . S
C1111 C1112 1.398 . S
C1111 C1117 1.491 . S
C1112 H1103 0.950 . S
C1112 C1111 1.398 . S
C1112 C1113 1.391 . S
C1113 H1101 0.950 . S
C1113 C1109 1.393 . S
C1113 C1112 1.391 . S
C1114 H1104 0.950 . S
C1114 C1115 1.386 . S
C1114 C1116 1.391 . S
C1115 C1114 1.386 . S
C1115 C1119 1.393 . S
C1116 H1105 0.950 . S
C1116 C1114 1.391 . S
C1116 C1117 1.400 . S
C1117 C1111 1.491 . S
C1117 C1116 1.400 . S
C1117 C1118 1.398 . S
C1118 H1106 0.950 . S
C1118 C1117 1.398 . S
C1118 C1119 1.391 . S
C1119 H1107 0.950 . S
C1119 C1115 1.393 . S
C1119 C1118 1.391 . S
H1120 C1128 0.950 . S
H1121 C1133 0.950 . S
H1122 C1130 0.950 . S
H1123 C1132 0.950 . S
H1124 C1134 0.950 . S
H1125 C1136 0.950 . S
H1126 C1138 0.950 . S
H1127 C1139 0.950 . S
C1128 H1120 0.950 . S
C1128 C1129 1.386 . S
C1128 C1130 1.391 . S
C1129 C1128 1.386 . S
C1129 C1133 1.393 . S
C1130 H1122 0.950 . S
C1130 C1128 1.391 . S
C1130 C1131 1.400 . S
C1131 C1130 1.400 . S
C1131 C1132 1.398 . S
C1131 C1137 1.491 . S
C1132 H1123 0.950 . S
C1132 C1131 1.398 . S
C1132 C1133 1.391 . S
C1133 H1121 0.950 . S
C1133 C1129 1.393 . S
C1133 C1132 1.391 . S
C1134 H1124 0.950 . S
C1134 C1135 1.386 . S
C1134 C1136 1.391 . S
C1135 C1134 1.386 . S
C1135 C1139 1.393 . S
C1136 H1125 0.950 . S
C1136 C1134 1.391 . S
C1136 C1137 1.400 . S
C1137 C1131 1.491 . S
C1137 C1136 1.400 . S
C1137 C1138 1.398 . S
C1138 H1126 0.950 . S
C1138 C1137 1.398 . S
C1138 C1139 1.391 . S
C1139 H1127 0.950 . S
C1139 C1135 1.393 . S
C1139 C1138 1.391 . S
H1140 C1148 0.950 . S
H1141 C1153 0.950 . S
H1142 C1150 0.950 . S
H1143 C1152 0.950 . S
H1144 C1154 0.950 . S
H1145 C1156 0.950 . S
H1146 C1158 0.950 . S
H1147 C1159 0.950 . S
C1148 H1140 0.950 . S
C1148 C1149 1.386 . S
C1148 C1150 1.391 . S
C1149 C1148 1.386 . S
C1149 C1153 1.393 . S
C1150 H1142 0.950 . S
C1150 C1148 1.391 . S
C1150 C1151 1.400 . S
C1151 C1150 1.400 . S
C1151 C1152 1.398 . S
C1151 C1157 1.491 . S
C1152 H1143 0.950 . S
C1152 C1151 1.398 . S
C1152 C1153 1.391 . S
C1153 H1141 0.950 . S
C1153 C1149 1.393 . S
C1153 C1152 1.391 . S
C1154 H1144 0.950 . S
C1154 C1155 1.386 . S
C1154 C1156 1.391 . S
C1155 C1154 1.386 . S
C1155 C1159 1.393 . S
C1156 H1145 0.950 . S
C1156 C1154 1.391 . S
C1156 C1157 1.400 . S
C1157 C1151 1.491 . S
C1157 C1156 1.400 . S
C1157 C1158 1.398 . S
C1158 H1146 0.950 . S
C1158 C1157 1.398 . S
C1158 C1159 1.391 . S
C1159 H1147 0.950 . S
C1159 C1155 1.393 . S
C1159 C1158 1.391 . S
H1160 C1168 0.950 . S
H1161 C1173 0.950 . S
H1162 C1170 0.950 . S
H1163 C1172 0.950 . S
H1164 C1174 0.950 . S
H1165 C1176 0.950 . S
H1166 C1178 0.950 . S
H1167 C1179 0.950 . S
C1168 H1160 0.950 . S
C1168 C1169 1.386 . S
C1168 C1170 1.391 . S
C1169 C1168 1.386 . S
C1169 C1173 1.393 . S
C1170 H1162 0.950 . S
C1170 C1168 1.391 . S
C1170 C1171 1.400 . S
C1171 C1170 1.400 . S
C1171 C1172 1.398 . S
C1171 C1177 1.491 . S
C1172 H1163 0.950 . S
C1172 C1171 1.398 . S
C1172 C1173 1.391 . S
C1173 H1161 0.950 . S
C1173 C1169 1.393 . S
C1173 C1172 1.391 . S
C1174 H1164 0.950 . S
C1174 C1175 1.386 . S
C1174 C1176 1.391 . S
C1175 C1174 1.386 . S
C1175 C1179 1.393 . S
C1176 H1165 0.950 . S
C1176 C1174 1.391 . S
C1176 C1177 1.400 . S
C1177 C1171 1.491 . S
C1177 C1176 1.400 . S
C1177 C1178 1.398 . S
C1178 H1166 0.950 . S
C1178 C1177 1.398 . S
C1178 C1179 1.391 . S
C1179 H1167 0.950 . S
C1179 C1175 1.393 . S
C1179 C1178 1.391 . S
H1180 C1188 0.950 . S
H1181 C1193 0.950 . S
H1182 C1190 0.950 . S
H1183 C1192 0.950 . S
H1184 C1194 0.950 . S
H1185 C1196 0.950 . S
H1186 C1198 0.950 . S
H1187 C1199 0.950 . S
C1188 H1180 0.950 . S
C1188 C1189 1.386 . S
C1188 C1190 1.391 . S
C1189 C1188 1.386 . S
C1189 C1193 1.393 . S
C1190 H1182 0.950 . S
C1190 C1188 1.391 . S
C1190 C1191 1.400 . S
C1191 C1190 1.400 . S
C1191 C1192 1.398 . S
C1191 C1197 1.491 . S
C1192 H1183 0.950 . S
C1192 C1191 1.398 . S
C1192 C1193 1.391 . S
C1193 H1181 0.950 . S
C1193 C1189 1.393 . S
C1193 C1192 1.391 . S
C1194 H1184 0.950 . S
C1194 C1195 1.386 . S
C1194 C1196 1.391 . S
C1195 C1194 1.386 . S
C1195 C1199 1.393 . S
C1196 H1185 0.950 . S
C1196 C1194 1.391 . S
C1196 C1197 1.400 . S
C1197 C1191 1.491 . S
C1197 C1196 1.400 . S
C1197 C1198 1.398 . S
C1198 H1186 0.950 . S
C1198 C1197 1.398 . S
C1198 C1199 1.391 . S
C1199 H1187 0.950 . S
C1199 C1195 1.393 . S
C1199 C1198 1.391 . S
C489 C18 1.026 . S
C495 C338 1.046 . S
C509 C58 1.043 . S
C515 C378 1.063 . S
C529 C98 1.043 . S
C535 C418 1.063 . S
C549 C458 1.042 . S
C555 C138 1.025 . S
C569 C178 1.051 . S
C575 C258 1.028 . S
C589 C298 1.052 . S
C595 C218 1.028 . S
C609 C405 1.603 . S
C615 C5 1.616 . S
C629 C445 1.596 . S
C635 C45 1.612 . S
C649 C85 1.615 . S
C655 C245 1.602 . S
C669 C285 1.610 . S
C675 C125 1.595 . S
C689 C325 1.606 . S
C695 C165 1.593 . S
C709 C205 1.608 . S
C715 C365 1.594 . S
C729 C289 4.316 . S
C735 C9 4.311 . S
C749 C329 4.313 . S
C755 C49 4.316 . S
C769 C369 4.310 . S
C775 C89 4.316 . S
C789 C129 4.308 . S
C795 C409 4.314 . S
C809 C169 4.308 . S
C815 C449 4.313 . S
C829 C209 4.308 . S
C835 C249 4.312 . S
C849 C8 0.514 . S
C855 C128 0.541 . S
C869 C48 0.539 . S
C875 C168 0.513 . S
C889 C88 0.588 . S
C895 C208 0.591 . S
C909 C368 0.512 . S
C915 C248 0.537 . S
C929 C288 0.557 . S
C935 C408 0.524 . S
C949 C448 0.559 . S
C955 C328 0.527 . S
C969 C295 0.673 . S
C975 C15 0.642 . S
C989 C335 0.701 . S
C995 C55 0.682 . S
C1009 C95 0.691 . S
C1015 C375 0.657 . S
C1029 C415 0.679 . S
C1035 C135 0.645 . S
C1049 C455 0.649 . S
C1055 C175 0.637 . S
C1069 C215 0.660 . S
C1075 C255 0.692 . S
C1089 C19 4.655 . S
C1095 C419 4.653 . S
C1109 C59 4.654 . S
C1115 C459 4.652 1_556 S
C1129 C99 4.654 1_554 S
C1135 C259 4.654 . S
C1149 C139 4.655 . S
C1155 C299 4.653 . S
C1169 C179 4.654 . S
C1175 C339 4.654 1_556 S
C1189 C379 4.655 . S
C1195 C219 4.653 1_554 S
