# Generated by pormake.
# Topology uoy, (4)-cn, num edge types: 1
# Building blocks:
#     Node 0, Type 0, BuildingBlock: TATPOV_clean_sbu_0, # of connection points: 4
#     Node 1, Type 0, BuildingBlock: TATPOV_clean_sbu_0, # of connection points: 4
#     Node 2, Type 0, BuildingBlock: TATPOV_clean_sbu_0, # of connection points: 4
#     Node 3, Type 0, BuildingBlock: TATPOV_clean_sbu_0, # of connection points: 4
#     Node 4, Type 0, BuildingBlock: TATPOV_clean_sbu_0, # of connection points: 4
#     Node 5, Type 0, BuildingBlock: TATPOV_clean_sbu_0, # of connection points: 4
#     Node 6, Type 0, BuildingBlock: TATPOV_clean_sbu_0, # of connection points: 4
#     Node 7, Type 0, BuildingBlock: TATPOV_clean_sbu_0, # of connection points: 4
#     Node 8, Type 0, BuildingBlock: TATPOV_clean_sbu_0, # of connection points: 4
#     Node 9, Type 0, BuildingBlock: TATPOV_clean_sbu_0, # of connection points: 4
#     Node 10, Type 0, BuildingBlock: TATPOV_clean_sbu_0, # of connection points: 4
#     Node 11, Type 0, BuildingBlock: TATPOV_clean_sbu_0, # of connection points: 4
#     Node 12, Type 0, BuildingBlock: TATPOV_clean_sbu_0, # of connection points: 4
#     Node 13, Type 0, BuildingBlock: TATPOV_clean_sbu_0, # of connection points: 4
#     Node 14, Type 0, BuildingBlock: TATPOV_clean_sbu_0, # of connection points: 4
#     Node 15, Type 0, BuildingBlock: TATPOV_clean_sbu_0, # of connection points: 4
#     Edge 16, Type (0, 0), BuildingBlock: AJUNOK_clean_linker_0, # of connection points: 2
#     Edge 17, Type (0, 0), BuildingBlock: AJUNOK_clean_linker_0, # of connection points: 2
#     Edge 18, Type (0, 0), BuildingBlock: AJUNOK_clean_linker_0, # of connection points: 2
#     Edge 19, Type (0, 0), BuildingBlock: AJUNOK_clean_linker_0, # of connection points: 2
#     Edge 20, Type (0, 0), BuildingBlock: AJUNOK_clean_linker_0, # of connection points: 2
#     Edge 21, Type (0, 0), BuildingBlock: AJUNOK_clean_linker_0, # of connection points: 2
#     Edge 22, Type (0, 0), BuildingBlock: AJUNOK_clean_linker_0, # of connection points: 2
#     Edge 23, Type (0, 0), BuildingBlock: AJUNOK_clean_linker_0, # of connection points: 2
#     Edge 24, Type (0, 0), BuildingBlock: AJUNOK_clean_linker_0, # of connection points: 2
#     Edge 25, Type (0, 0), BuildingBlock: AJUNOK_clean_linker_0, # of connection points: 2
#     Edge 26, Type (0, 0), BuildingBlock: AJUNOK_clean_linker_0, # of connection points: 2
#     Edge 27, Type (0, 0), BuildingBlock: AJUNOK_clean_linker_0, # of connection points: 2
#     Edge 28, Type (0, 0), BuildingBlock: AJUNOK_clean_linker_0, # of connection points: 2
#     Edge 29, Type (0, 0), BuildingBlock: AJUNOK_clean_linker_0, # of connection points: 2
#     Edge 30, Type (0, 0), BuildingBlock: AJUNOK_clean_linker_0, # of connection points: 2
#     Edge 31, Type (0, 0), BuildingBlock: AJUNOK_clean_linker_0, # of connection points: 2
#     Edge 32, Type (0, 0), BuildingBlock: AJUNOK_clean_linker_0, # of connection points: 2
#     Edge 33, Type (0, 0), BuildingBlock: AJUNOK_clean_linker_0, # of connection points: 2
#     Edge 34, Type (0, 0), BuildingBlock: AJUNOK_clean_linker_0, # of connection points: 2
#     Edge 35, Type (0, 0), BuildingBlock: AJUNOK_clean_linker_0, # of connection points: 2
#     Edge 36, Type (0, 0), BuildingBlock: AJUNOK_clean_linker_0, # of connection points: 2
#     Edge 37, Type (0, 0), BuildingBlock: AJUNOK_clean_linker_0, # of connection points: 2
#     Edge 38, Type (0, 0), BuildingBlock: AJUNOK_clean_linker_0, # of connection points: 2
#     Edge 39, Type (0, 0), BuildingBlock: AJUNOK_clean_linker_0, # of connection points: 2
#     Edge 40, Type (0, 0), BuildingBlock: AJUNOK_clean_linker_0, # of connection points: 2
#     Edge 41, Type (0, 0), BuildingBlock: AJUNOK_clean_linker_0, # of connection points: 2
#     Edge 42, Type (0, 0), BuildingBlock: AJUNOK_clean_linker_0, # of connection points: 2
#     Edge 43, Type (0, 0), BuildingBlock: AJUNOK_clean_linker_0, # of connection points: 2
#     Edge 44, Type (0, 0), BuildingBlock: AJUNOK_clean_linker_0, # of connection points: 2
#     Edge 45, Type (0, 0), BuildingBlock: AJUNOK_clean_linker_0, # of connection points: 2
#     Edge 46, Type (0, 0), BuildingBlock: AJUNOK_clean_linker_0, # of connection points: 2
#     Edge 47, Type (0, 0), BuildingBlock: AJUNOK_clean_linker_0, # of connection points: 2
# Relax obj value: 0.091
# Max RMSD: 0.151
# Mean RMSD: 0.151
data_MOF--net-uoy--node1-TATPOV_clean_sbu_0--edge1-AJUNOK_clean_linker_0
_symmetry_space_group_name_H-M    P1
_symmetry_Int_Tables_number       1
_symmetry_cell_setting            triclinic
loop_
_symmetry_equiv_pos_as_xyz
'x, y, z'
_cell_length_a     19.80137
_cell_length_b     19.821864
_cell_length_c     81.790474
_cell_angle_alpha  90.04865
_cell_angle_beta   90.124443
_cell_angle_gamma 90.107505
loop_
_atom_site_label
_atom_site_type_symbol
_atom_site_fract_x
_atom_site_fract_y
_atom_site_fract_z
_atom_type_partial_charge
Zn0 Zn 0.36006 0.22558 0.15981 0.0
Zn1 Zn 0.2691 0.1215 0.16176 0.0
O2 O 0.24933 0.18738 0.18034 0.0
O3 O 0.32071 0.27207 0.17956 0.0
O4 O 0.19032 0.05684 0.16371 0.0
O5 O 0.3233 0.24629 0.1373 0.0
O6 O 0.25764 0.15657 0.1386 0.0
C7 C 0.27107 0.2428 0.18622 0.0
C8 C 0.41869 0.08968 0.16465 0.0
O9 O 0.35756 0.06899 0.1647 0.0
O10 O 0.43142 0.15196 0.16274 0.0
C11 C 0.16582 0.04207 0.17762 0.0
O12 O 0.19824 0.06178 0.19081 0.0
C13 C 0.28082 0.20677 0.13075 0.0
Zn14 Zn 0.74851 0.84471 0.41766 0.0
Zn15 Zn 0.85036 0.7536 0.41772 0.0
O16 O 0.7967 0.73753 0.43871 0.0
O17 O 0.71052 0.807 0.43857 0.0
O18 O 0.91219 0.6729 0.4168 0.0
O19 O 0.71524 0.81224 0.39571 0.0
O20 O 0.80351 0.74517 0.3957 0.0
C21 C 0.74372 0.76056 0.44549 0.0
C22 C 0.8876 0.90102 0.41904 0.0
O23 O 0.90729 0.83973 0.41883 0.0
O24 O 0.82494 0.91445 0.41863 0.0
C25 C 0.93729 0.64451 0.42933 0.0
O26 O 0.9295 0.67309 0.44369 0.0
C27 C 0.75203 0.7694 0.38853 0.0
Zn28 Zn 0.17255 0.2963 0.65883 0.0
Zn29 Zn 0.27069 0.39327 0.66182 0.0
O30 O 0.28011 0.32835 0.681 0.0
O31 O 0.20505 0.24721 0.67899 0.0
O32 O 0.3525 0.45357 0.66454 0.0
O33 O 0.2104 0.27315 0.63659 0.0
O34 O 0.28298 0.35708 0.63878 0.0
C35 C 0.25387 0.2744 0.68653 0.0
C36 C 0.12409 0.4365 0.66314 0.0
O37 O 0.18653 0.45225 0.66368 0.0
O38 O 0.10664 0.37529 0.6612 0.0
C39 C 0.40786 0.42583 0.66873 0.0
O40 O 0.40907 0.36049 0.67135 0.0
C41 C 0.25679 0.30935 0.63054 0.0
Zn42 Zn 0.75444 0.68444 0.91806 0.0
Zn43 Zn 0.6577 0.78096 0.91777 0.0
O44 O 0.71204 0.79466 0.93881 0.0
O45 O 0.79372 0.72001 0.93916 0.0
O46 O 0.59934 0.86417 0.91693 0.0
O47 O 0.78959 0.71529 0.89615 0.0
O48 O 0.70469 0.78661 0.89573 0.0
C49 C 0.76315 0.76872 0.94585 0.0
C50 C 0.61257 0.63574 0.919 0.0
O51 O 0.59645 0.69801 0.91883 0.0
O52 O 0.6744 0.61876 0.91875 0.0
C53 C 0.57812 0.89428 0.92964 0.0
O54 O 0.58816 0.86644 0.944 0.0
C55 C 0.75508 0.75948 0.88875 0.0
Zn56 Zn 0.34093 0.24853 0.03238 0.0
Zn57 Zn 0.25026 0.35054 0.03314 0.0
O58 O 0.23255 0.29652 0.01215 0.0
O59 O 0.30277 0.21108 0.01151 0.0
O60 O 0.16994 0.4136 0.03357 0.0
O61 O 0.30823 0.21432 0.05409 0.0
O62 O 0.24195 0.30324 0.0552 0.0
C63 C 0.25507 0.24405 0.00504 0.0
C64 C 0.3987 0.38645 0.03158 0.0
O65 O 0.33748 0.40652 0.03202 0.0
O66 O 0.41169 0.32375 0.03165 0.0
C67 C 0.14614 0.43914 0.02052 0.0
O68 O 0.17956 0.43086 0.00682 0.0
C69 C 0.266 0.25022 0.06172 0.0
Zn70 Zn 0.72668 0.85249 0.29008 0.0
Zn71 Zn 0.62867 0.75574 0.28811 0.0
O72 O 0.69526 0.73779 0.26954 0.0
O73 O 0.77533 0.81443 0.27057 0.0
O74 O 0.56757 0.67431 0.28673 0.0
O75 O 0.74989 0.81884 0.31264 0.0
O76 O 0.66373 0.74842 0.31144 0.0
C77 C 0.74955 0.7629 0.26386 0.0
C78 C 0.588 0.90261 0.28471 0.0
O79 O 0.57133 0.84041 0.28466 0.0
O80 O 0.64929 0.91945 0.28687 0.0
C81 C 0.5515 0.64664 0.27325 0.0
O82 O 0.56879 0.67633 0.25952 0.0
C83 C 0.71274 0.77462 0.31924 0.0
Zn84 Zn 0.18839 0.27825 0.53232 0.0
Zn85 Zn 0.27807 0.17564 0.53195 0.0
O86 O 0.29311 0.23055 0.51104 0.0
O87 O 0.22409 0.317 0.51135 0.0
O88 O 0.35851 0.11318 0.53198 0.0
O89 O 0.22344 0.31066 0.55408 0.0
O90 O 0.28821 0.22059 0.55424 0.0
C91 C 0.27006 0.28365 0.50431 0.0
C92 C 0.13014 0.14015 0.5308 0.0
O93 O 0.19123 0.11968 0.53083 0.0
O94 O 0.11751 0.20289 0.53144 0.0
C95 C 0.38297 0.08818 0.51896 0.0
O96 O 0.3501 0.09648 0.50515 0.0
C97 C 0.2657 0.27313 0.56127 0.0
Zn98 Zn 0.78001 0.66713 0.7907 0.0
Zn99 Zn 0.88442 0.75722 0.78889 0.0
O100 O 0.82045 0.7745 0.76968 0.0
O101 O 0.73543 0.70353 0.77038 0.0
O102 O 0.94846 0.83665 0.78699 0.0
O103 O 0.75661 0.70532 0.81286 0.0
O104 O 0.8479 0.76898 0.81197 0.0
C105 C 0.76587 0.7519 0.7635 0.0
C106 C 0.91647 0.60819 0.78663 0.0
O107 O 0.93749 0.66913 0.78638 0.0
O108 O 0.85402 0.59588 0.78849 0.0
C109 C 0.96329 0.86136 0.7731 0.0
O110 O 0.94457 0.82867 0.75987 0.0
C111 C 0.79632 0.74722 0.81955 0.0
Zn112 Zn 0.85244 0.77664 0.66711 0.0
Zn113 Zn 0.76151 0.67382 0.66575 0.0
O114 O 0.74318 0.7225 0.68718 0.0
O115 O 0.81258 0.80881 0.6885 0.0
O116 O 0.68218 0.61092 0.66394 0.0
O117 O 0.8197 0.81307 0.64539 0.0
O118 O 0.75271 0.72469 0.64443 0.0
C119 C 0.76551 0.77404 0.69473 0.0
C120 C 0.90936 0.638 0.66685 0.0
O121 O 0.84807 0.61808 0.66639 0.0
O122 O 0.92269 0.70069 0.66722 0.0
C123 C 0.66129 0.57251 0.67527 0.0
O124 O 0.69638 0.56754 0.68887 0.0
C125 C 0.77681 0.77735 0.6378 0.0
Zn126 Zn 0.27625 0.35974 0.91043 0.0
Zn127 Zn 0.38125 0.26983 0.91228 0.0
O128 O 0.31676 0.24836 0.93091 0.0
O129 O 0.23135 0.31866 0.93028 0.0
O130 O 0.44688 0.19247 0.91359 0.0
O131 O 0.25537 0.32331 0.88782 0.0
O132 O 0.34566 0.25885 0.88924 0.0
C133 C 0.26135 0.26932 0.93687 0.0
C134 C 0.41248 0.41901 0.91535 0.0
O135 O 0.43322 0.3581 0.91536 0.0
O136 O 0.3501 0.43151 0.91341 0.0
C137 C 0.4628 0.16487 0.92708 0.0
O138 O 0.44274 0.19289 0.94079 0.0
C139 C 0.29541 0.28146 0.88131 0.0
Zn140 Zn 0.6863 0.7503 0.16763 0.0
Zn141 Zn 0.78291 0.84764 0.16746 0.0
O142 O 0.79527 0.79319 0.18853 0.0
O143 O 0.71963 0.71219 0.18893 0.0
O144 O 0.8665 0.90674 0.16727 0.0
O145 O 0.71999 0.71378 0.14617 0.0
O146 O 0.7903 0.79986 0.14547 0.0
C147 C 0.76859 0.74263 0.19563 0.0
C148 C 0.63668 0.89136 0.16811 0.0
O149 O 0.699 0.90798 0.16821 0.0
O150 O 0.62 0.82946 0.16778 0.0
C151 C 0.89331 0.92867 0.18039 0.0
O152 O 0.86161 0.91903 0.19427 0.0
C153 C 0.76452 0.74788 0.13878 0.0
Zn154 Zn 0.22691 0.16761 0.41015 0.0
Zn155 Zn 0.12874 0.26428 0.41156 0.0
O156 O 0.19529 0.28312 0.43017 0.0
O157 O 0.27498 0.20637 0.42978 0.0
O158 O 0.06747 0.34556 0.41277 0.0
O159 O 0.25055 0.20081 0.38755 0.0
O160 O 0.16423 0.27081 0.38829 0.0
C161 C 0.24915 0.25836 0.43618 0.0
C162 C 0.088 0.11724 0.41519 0.0
O163 O 0.07139 0.17941 0.41506 0.0
O164 O 0.14935 0.10051 0.41325 0.0
C165 C 0.05261 0.37372 0.42626 0.0
O166 O 0.07139 0.34473 0.43997 0.0
C167 C 0.21352 0.24448 0.3807 0.0
Zn168 Zn 0.85899 0.80486 0.5395 0.0
Zn169 Zn 0.76325 0.90393 0.53748 0.0
O170 O 0.74507 0.83538 0.51928 0.0
O171 O 0.82114 0.75515 0.52003 0.0
O172 O 0.68194 0.96491 0.53533 0.0
O173 O 0.82401 0.78376 0.56206 0.0
O174 O 0.75527 0.87109 0.56095 0.0
C175 C 0.76933 0.78096 0.5135 0.0
C176 C 0.9109 0.94293 0.53408 0.0
O177 O 0.84887 0.96027 0.53398 0.0
O178 O 0.92684 0.88156 0.53626 0.0
C179 C 0.65596 0.97719 0.52141 0.0
O180 O 0.68803 0.95731 0.50823 0.0
C181 C 0.78078 0.82184 0.56871 0.0
Zn182 Zn 0.2542 0.33948 0.78323 0.0
Zn183 Zn 0.15734 0.24376 0.78322 0.0
O184 O 0.21181 0.23098 0.76209 0.0
O185 O 0.29357 0.30584 0.76222 0.0
O186 O 0.0986 0.16013 0.78356 0.0
O187 O 0.29059 0.30751 0.80476 0.0
O188 O 0.20442 0.23728 0.80538 0.0
C189 C 0.26316 0.25748 0.75527 0.0
C190 C 0.11356 0.38958 0.78254 0.0
O191 O 0.09675 0.32737 0.78241 0.0
O192 O 0.17555 0.40607 0.78287 0.0
C193 C 0.07306 0.13516 0.77062 0.0
O194 O 0.07857 0.16893 0.75688 0.0
C195 C 0.25606 0.26342 0.81217 0.0
Zn196 Zn 0.66875 0.72245 0.04138 0.0
Zn197 Zn 0.76522 0.62549 0.03797 0.0
O198 O 0.77939 0.69375 0.01943 0.0
O199 O 0.70259 0.77298 0.02173 0.0
O200 O 0.84696 0.56488 0.03569 0.0
O201 O 0.70576 0.74429 0.06372 0.0
O202 O 0.7763 0.65899 0.0614 0.0
C203 C 0.75272 0.74819 0.01429 0.0
C204 C 0.61735 0.58451 0.03578 0.0
O205 O 0.67957 0.568 0.03505 0.0
O206 O 0.60107 0.64546 0.03844 0.0
C207 C 0.87375 0.55253 0.02189 0.0
O208 O 0.84285 0.57309 0.00859 0.0
C209 C 0.75103 0.70676 0.06974 0.0
Zn210 Zn 0.2489 0.17417 0.28215 0.0
Zn211 Zn 0.35094 0.26555 0.28218 0.0
O212 O 0.29687 0.28146 0.26122 0.0
O213 O 0.21066 0.21171 0.26121 0.0
O214 O 0.41279 0.34648 0.28299 0.0
O215 O 0.21615 0.20652 0.30413 0.0
O216 O 0.30474 0.27355 0.30425 0.0
C217 C 0.2439 0.25836 0.25436 0.0
C218 C 0.388 0.11836 0.28077 0.0
O219 O 0.40777 0.17968 0.28102 0.0
O220 O 0.32533 0.10474 0.28116 0.0
C221 C 0.43742 0.37484 0.27041 0.0
O222 O 0.42919 0.34605 0.25608 0.0
C223 C 0.25326 0.24913 0.31138 0.0
C224 C 0.25325 0.29183 0.09012 0.0
C225 C 0.25443 0.23711 0.07917 0.0
C226 C 0.25858 0.28143 0.10697 0.0
C227 C 0.2633 0.21598 0.11342 0.0
H228 H 0.2531 0.34321 0.0856 0.0
H229 H 0.26154 0.32496 0.11497 0.0
S230 S 0.2593 0.05573 0.09001 0.0
N231 N 0.25482 0.11527 0.07593 0.0
N232 N 0.26236 0.09547 0.10775 0.0
C233 C 0.25903 0.16069 0.1027 0.0
C234 C 0.25528 0.17134 0.08551 0.0
C235 C 0.67628 0.76175 0.36422 0.0
C236 C 0.74134 0.75609 0.37099 0.0
C237 C 0.66677 0.76238 0.34726 0.0
C238 C 0.72225 0.75925 0.33661 0.0
H239 H 0.63279 0.76846 0.37207 0.0
H240 H 0.61626 0.76991 0.34247 0.0
S241 S 0.9018 0.73707 0.34804 0.0
N242 N 0.86137 0.7406 0.36566 0.0
N243 N 0.84323 0.74448 0.33376 0.0
C244 C 0.78695 0.74985 0.34316 0.0
C245 C 0.79657 0.74744 0.36039 0.0
C246 C 0.27817 0.2276 0.58931 0.0
C247 C 0.27904 0.28361 0.57877 0.0
C248 C 0.27467 0.23623 0.60626 0.0
C249 C 0.27404 0.30104 0.61319 0.0
H250 H 0.27517 0.17686 0.58441 0.0
H251 H 0.26968 0.19201 0.61395 0.0
S252 S 0.28482 0.46359 0.59091 0.0
N253 N 0.28491 0.40559 0.57639 0.0
N254 N 0.28111 0.42197 0.60837 0.0
C255 C 0.28054 0.35728 0.60285 0.0
C256 C 0.28227 0.34852 0.58557 0.0
C257 C 0.84171 0.76021 0.84769 0.0
C258 C 0.78672 0.76434 0.83685 0.0
C259 C 0.83173 0.76257 0.86463 0.0
C260 C 0.76674 0.77106 0.87119 0.0
H261 H 0.89208 0.75055 0.8431 0.0
H262 H 0.87473 0.75501 0.87263 0.0
S263 S 0.60769 0.79349 0.84769 0.0
N264 N 0.66637 0.78297 0.83361 0.0
N265 N 0.6475 0.79008 0.86543 0.0
C266 C 0.71216 0.78066 0.86038 0.0
C267 C 0.72218 0.77648 0.84318 0.0
C268 C 0.77381 0.86646 0.59699 0.0
C269 C 0.76545 0.81239 0.58607 0.0
C270 C 0.77354 0.85558 0.61391 0.0
C271 C 0.76325 0.7906 0.62035 0.0
H272 H 0.78511 0.91655 0.59244 0.0
H273 H 0.78425 0.89773 0.62196 0.0
S274 S 0.72938 0.63438 0.59652 0.0
N275 N 0.74063 0.69344 0.58257 0.0
N276 N 0.73744 0.67275 0.61435 0.0
C277 C 0.7493 0.73722 0.60945 0.0
C278 C 0.75126 0.74817 0.59228 0.0
C279 C 0.22192 0.25862 0.85726 0.0
C280 C 0.28704 0.26384 0.86397 0.0
C281 C 0.21259 0.25211 0.84038 0.0
C282 C 0.26808 0.25262 0.82968 0.0
H283 H 0.17786 0.26191 0.86505 0.0
H284 H 0.16147 0.25159 0.83562 0.0
S285 S 0.44891 0.25877 0.84126 0.0
N286 N 0.40806 0.26281 0.85881 0.0
N287 N 0.39016 0.25329 0.82695 0.0
C288 C 0.33348 0.25416 0.83628 0.0
C289 C 0.34307 0.25904 0.8535 0.0
C290 C 0.77544 0.78002 0.09364 0.0
C291 C 0.76915 0.71492 0.08704 0.0
C292 C 0.78025 0.78977 0.11053 0.0
C293 C 0.77675 0.73478 0.12135 0.0
H294 H 0.77392 0.82382 0.08573 0.0
H295 H 0.78164 0.84099 0.11516 0.0
S296 S 0.76687 0.55397 0.11007 0.0
N297 N 0.76613 0.59432 0.09241 0.0
N298 N 0.77238 0.61291 0.12431 0.0
C299 C 0.77428 0.66925 0.11487 0.0
C300 C 0.77123 0.65923 0.09763 0.0
C301 C 0.16805 0.25692 0.35258 0.0
C302 C 0.22353 0.25911 0.3633 0.0
C303 C 0.17764 0.25741 0.33562 0.0
C304 C 0.24282 0.26204 0.32893 0.0
H305 H 0.11736 0.25038 0.35729 0.0
H306 H 0.13404 0.25157 0.32771 0.0
S307 S 0.4036 0.27786 0.35208 0.0
N308 N 0.34484 0.27156 0.36629 0.0
N309 N 0.36314 0.27514 0.33442 0.0
C310 C 0.29819 0.26952 0.33961 0.0
C311 C 0.28847 0.26724 0.35683 0.0
C312 C 0.1985 0.2251 0.21068 0.0
C313 C 0.24644 0.26503 0.20244 0.0
C314 C 0.19106 0.22935 0.22764 0.0
C315 C 0.23119 0.27385 0.23692 0.0
H316 H 0.17081 0.18597 0.20429 0.0
H317 H 0.15866 0.19273 0.23357 0.0
S318 S 0.34407 0.40697 0.22045 0.0
N319 N 0.32039 0.36313 0.20424 0.0
N320 N 0.30536 0.37183 0.23615 0.0
C321 C 0.27023 0.32196 0.22851 0.0
C322 C 0.27818 0.31736 0.21122 0.0
C323 C 0.68905 0.78883 0.47198 0.0
C324 C 0.73079 0.74531 0.46293 0.0
C325 C 0.69595 0.7942 0.48894 0.0
C326 C 0.74504 0.7565 0.4974 0.0
H327 H 0.65567 0.82399 0.46586 0.0
H328 H 0.66699 0.83272 0.49515 0.0
S329 S 0.84687 0.61666 0.48009 0.0
N330 N 0.80756 0.64969 0.46419 0.0
N331 N 0.82165 0.66064 0.4961 0.0
C332 C 0.77836 0.70467 0.48887 0.0
C333 C 0.7709 0.69885 0.47158 0.0
C334 C 0.31917 0.29031 0.71228 0.0
C335 C 0.27238 0.25189 0.70321 0.0
C336 C 0.32192 0.2858 0.72931 0.0
C337 C 0.27797 0.2427 0.73788 0.0
H338 H 0.34982 0.32853 0.7064 0.0
H339 H 0.3543 0.32097 0.73578 0.0
S340 S 0.16465 0.11402 0.71943 0.0
N341 N 0.19436 0.15679 0.70369 0.0
N342 N 0.20018 0.1478 0.73579 0.0
C343 C 0.23921 0.19625 0.72881 0.0
C344 C 0.2362 0.20101 0.71141 0.0
C345 C 0.72383 0.81371 -0.01069 0.0
C346 C 0.77075 0.77391 -0.00211 0.0
C347 C 0.7267 0.81913 0.97228 0.0
C348 C 0.77636 0.78468 0.96327 0.0
H349 H 0.68076 0.83547 -0.00449 0.0
H350 H 0.68579 0.84501 0.96616 0.0
S351 S 0.92539 0.69676 -0.01943 0.0
N352 N 0.87902 0.71632 -0.00335 0.0
N353 N 0.88404 0.72593 0.96453 0.0
C354 C 0.82969 0.75435 0.97193 0.0
C355 C 0.82691 0.74904 -0.0107 0.0
C356 C 0.27969 0.19034 -0.02177 0.0
C357 C 0.23699 0.23112 -0.01225 0.0
C358 C 0.28132 0.19691 0.96124 0.0
C359 C 0.24054 0.24465 0.95319 0.0
H360 H 0.31694 0.15802 -0.01605 0.0
H361 H 0.3193 0.16883 0.95461 0.0
S362 S 0.1012 0.34234 0.972 0.0
N363 N 0.13894 0.30501 -0.01244 0.0
N364 N 0.14261 0.31812 0.95552 0.0
C365 C 0.18956 0.27668 0.96228 0.0
C366 C 0.18769 0.26972 -0.02037 0.0
C367 C 0.8177 0.78324 0.23878 0.0
C368 C 0.77413 0.74078 0.24764 0.0
C369 C 0.82283 0.77777 0.22179 0.0
C370 C 0.78415 0.73004 0.21309 0.0
H371 H 0.84304 0.82514 0.24471 0.0
H372 H 0.85214 0.81556 0.2154 0.0
S373 S 0.68345 0.59112 0.23131 0.0
N374 N 0.70759 0.6374 0.24707 0.0
N375 N 0.7162 0.62783 0.21503 0.0
C376 C 0.74963 0.68031 0.22208 0.0
C377 C 0.7448 0.6856 0.23942 0.0
C378 C 0.23446 0.33058 0.46086 0.0
C379 C 0.27303 0.28242 0.45236 0.0
C380 C 0.24005 0.33745 0.47782 0.0
C381 C 0.28454 0.2965 0.48683 0.0
H382 H 0.19525 0.35883 0.45469 0.0
H383 H 0.20439 0.37015 0.48396 0.0
S384 S 0.41496 0.18291 0.46956 0.0
N385 N 0.3703 0.20754 0.45358 0.0
N386 N 0.38137 0.22127 0.48551 0.0
C387 C 0.33144 0.25714 0.47815 0.0
C388 C 0.32552 0.24985 0.46086 0.0
C389 C 0.78585 0.82835 0.7218 0.0
C390 C 0.74675 0.78458 0.71207 0.0
C391 C 0.78575 0.82284 0.73884 0.0
C392 C 0.74679 0.77319 0.74675 0.0
H393 H 0.82137 0.86307 0.71626 0.0
H394 H 0.82083 0.85393 0.74569 0.0
S395 S 0.61917 0.66198 0.72708 0.0
N396 N 0.6555 0.70201 0.71174 0.0
N397 N 0.65585 0.69111 0.74381 0.0
C398 C 0.69987 0.73644 0.73733 0.0
C399 C 0.69978 0.74224 0.71994 0.0
C400 C 0.06288 0.99126 0.16453 0.0
C401 C 0.09756 0.01083 0.17883 0.0
C402 C 0.99684 0.96571 0.16516 0.0
C403 C 0.96233 0.95866 0.18011 0.0
H404 H 0.08669 0.99606 0.15268 0.0
H405 H 0.97278 0.95127 0.15377 0.0
S406 S 0.0303 1.00244 0.22118 0.0
N407 N 0.09214 0.02114 0.20846 0.0
N408 N 0.9683 0.97331 0.20964 0.0
C409 C 0.99642 0.97788 0.19453 0.0
C410 C 0.06386 1.00376 0.19389 0.0
C411 C 0.01318 0.47578 0.44158 0.0
C412 C 0.0213 0.44191 0.42657 0.0
C413 C 0.98726 0.54149 0.44229 0.0
C414 C 0.96816 0.57633 0.42802 0.0
H415 H 0.02739 0.45166 0.45295 0.0
H416 H 0.98177 0.56484 0.45419 0.0
S417 S 0.97881 0.51042 0.38554 0.0
N418 N 1.00772 0.44839 0.39702 0.0
N419 N 0.95917 0.57168 0.39834 0.0
C420 C 0.9759 0.5431 0.4129 0.0
C421 C 1.00231 0.47605 0.41218 0.0
C422 C 0.52251 0.44226 0.68088 0.0
C423 C 0.47088 0.4655 0.67046 0.0
C424 C 0.58366 0.47746 0.68248 0.0
C425 C 0.59612 0.53641 0.67343 0.0
H426 H 0.51553 0.39662 0.68797 0.0
H427 H 0.62179 0.45773 0.6907 0.0
S428 S 0.47724 0.61858 0.64446 0.0
N429 N 0.43587 0.55165 0.65111 0.0
N430 N 0.55119 0.61717 0.65382 0.0
C431 C 0.54488 0.56025 0.66295 0.0
C432 C 0.48214 0.52503 0.66156 0.0
C433 C 0.50269 0.06268 0.94222 0.0
C434 C 0.49531 0.09733 0.9273 0.0
C435 C 0.52855 0.99697 0.94278 0.0
C436 C 0.5483 0.96292 0.92846 0.0
H437 H 0.4876 0.08605 0.95361 0.0
H438 H 0.5331 0.97283 0.95461 0.0
S439 S 0.54086 0.03158 0.88622 0.0
N440 N 0.51109 0.09284 0.89781 0.0
N441 N 0.55956 0.96949 0.89886 0.0
C442 C 0.54172 0.9971 0.91344 0.0
C443 C 0.5154 0.06418 0.91287 0.0
C444 C 0.04108 0.47544 0.0352 0.0
C445 C 0.07779 0.47048 0.02052 0.0
C446 C 0.97503 0.50091 0.03547 0.0
C447 C 0.94242 0.52215 0.02105 0.0
H448 H 0.0633 0.45923 0.04665 0.0
H449 H 0.94946 0.504 0.04714 0.0
S450 S 0.01616 0.52008 -0.0207 0.0
N451 N 0.07664 0.4903 -0.00885 0.0
N452 N 0.95215 0.53601 -0.00842 0.0
C453 C 0.97839 0.51722 0.00625 0.0
C454 C 0.04607 0.49212 0.00601 0.0
C455 C 0.51248 0.54396 0.25798 0.0
C456 C 0.52059 0.57816 0.27296 0.0
C457 C 0.4869 0.47799 0.25734 0.0
C458 C 0.46813 0.44326 0.27164 0.0
H459 H 0.52644 0.56802 0.24659 0.0
H460 H 0.48139 0.45436 0.24546 0.0
S461 S 0.47892 0.51004 0.31405 0.0
N462 N 0.50737 0.5721 0.30251 0.0
N463 N 0.45949 0.44837 0.30131 0.0
C464 C 0.47592 0.47682 0.28673 0.0
C465 C 0.50198 0.5441 0.28739 0.0
C466 C 0.55486 0.03076 0.53442 0.0
C467 C 0.58704 1.00662 0.52025 0.0
C468 C 0.48869 0.05568 0.5339 0.0
C469 C 0.45152 0.05745 0.5192 0.0
H470 H 0.5809 0.03045 0.54608 0.0
H471 H 0.46681 0.07417 0.54517 0.0
S472 S 0.51161 0.99841 0.47863 0.0
N473 N 0.576 0.98505 0.49104 0.0
N474 N 0.45171 0.03145 0.49011 0.0
C475 C 0.48283 0.03296 0.50493 0.0
C476 C 0.55048 1.00781 0.50544 0.0
C477 C 0.04061 0.02963 0.78563 0.0
C478 C 0.04368 0.06593 0.77085 0.0
C479 C 0.0159 0.96331 0.78617 0.0
C480 C 0.99341 0.93007 0.77194 0.0
H481 H 0.05755 0.05249 0.79696 0.0
H482 H 0.01422 0.93806 0.79791 0.0
S483 S 0.99033 1.00247 0.73003 0.0
N484 N 0.02153 0.06339 0.74156 0.0
N485 N 0.97567 0.93889 0.74255 0.0
C486 C 0.99642 0.96559 0.75703 0.0
C487 C 0.02124 0.03338 0.7565 0.0
C488 C 0.51428 0.92361 0.1673 0.0
C489 C 0.58263 0.94361 0.16795 0.0
C490 C 0.46194 0.97102 0.16651 0.0
C491 C 0.47537 0.04072 0.1663 0.0
H492 H 0.50073 0.87066 0.16722 0.0
H493 H 0.41048 0.95255 0.16582 0.0
S494 S 0.64547 0.12026 0.16861 0.0
N495 N 0.66069 0.03846 0.16893 0.0
N496 N 0.56259 0.12755 0.16745 0.0
C497 C 0.54348 0.06165 0.16728 0.0
C498 C 0.5969 0.01321 0.1681 0.0
C499 C 1.00674 0.94313 0.41672 0.0
C500 C 0.93781 0.95707 0.41908 0.0
C501 C 0.05466 0.99511 0.41574 0.0
C502 C 0.03594 0.06348 0.4171 0.0
H503 H 0.02395 0.89163 0.41531 0.0
H504 H 0.10684 0.98127 0.41365 0.0
S505 S 0.86244 0.12733 0.42454 0.0
N506 N 0.85363 0.04462 0.4236 0.0
N507 N 0.94364 0.14203 0.42174 0.0
C508 C 0.96738 0.07818 0.41989 0.0
C509 C 0.91846 0.02516 0.42088 0.0
C510 C 1.00225 0.47048 0.66422 0.0
C511 C 0.07094 0.48924 0.66457 0.0
C512 C 0.95071 0.51868 0.66517 0.0
C513 C 0.96539 0.58796 0.66649 0.0
H514 H 0.98777 0.41795 0.6631 0.0
H515 H 0.89887 0.50124 0.6647 0.0
S516 S 0.13708 0.6641 0.66835 0.0
N517 N 0.15083 0.58233 0.66665 0.0
N518 N 0.05424 0.67286 0.66844 0.0
C519 C 0.03392 0.60755 0.66706 0.0
C520 C 0.08651 0.55832 0.6661 0.0
C521 C 0.53127 0.46172 0.9179 0.0
C522 C 0.46168 0.47555 0.91709 0.0
C523 C 0.57914 0.51373 0.91878 0.0
C524 C 0.55975 0.58212 0.91892 0.0
H525 H 0.54934 0.41019 0.91762 0.0
H526 H 0.632 0.49987 0.91916 0.0
S527 S 0.38355 0.64602 0.91787 0.0
N528 N 0.37553 0.5632 0.91711 0.0
N529 N 0.46553 0.66076 0.91875 0.0
C530 C 0.49022 0.59683 0.91848 0.0
C531 C 0.44129 0.54372 0.91757 0.0
C532 C 0.49477 0.55213 0.03558 0.0
C533 C 0.56296 0.53297 0.03388 0.0
C534 C 0.44219 0.50486 0.03448 0.0
C535 C 0.45531 0.4361 0.03167 0.0
H536 H 0.48152 0.60421 0.03798 0.0
H537 H 0.39091 0.52239 0.03614 0.0
S538 S 0.62472 0.35971 0.02532 0.0
N539 N 0.64039 0.44044 0.02853 0.0
N540 N 0.5419 0.35161 0.02645 0.0
C541 C 0.5232 0.41631 0.02957 0.0
C542 C 0.57683 0.4646 0.03068 0.0
C543 C 0.507 0.07653 0.28329 0.0
C544 C 0.43813 0.06247 0.28072 0.0
C545 C 0.55483 0.02465 0.28429 0.0
C546 C 0.53607 0.95628 0.28275 0.0
H547 H 0.52422 0.12802 0.28486 0.0
H548 H 0.60696 0.03855 0.28655 0.0
S549 S 0.36275 0.89223 0.27468 0.0
N550 N 0.35399 0.97488 0.27577 0.0
N551 N 0.44384 0.87764 0.27768 0.0
C552 C 0.46759 0.94148 0.27973 0.0
C553 C 0.41876 0.99441 0.27871 0.0
C554 C 0.0336 0.97454 0.53379 0.0
C555 C 0.96547 0.99419 0.53225 0.0
C556 C 0.08631 0.02171 0.53297 0.0
C557 C 0.07337 0.09077 0.53061 0.0
H558 H 0.04666 0.92222 0.5359 0.0
H559 H 0.13757 1.00382 0.53452 0.0
S560 S 0.90424 0.16839 0.52465 0.0
N561 N 0.88829 0.08746 0.52739 0.0
N562 N 0.98709 0.17608 0.52584 0.0
C563 C 1.00557 0.11104 0.52861 0.0
C564 C 0.95179 0.06287 0.52942 0.0
C565 C 0.03472 0.56443 0.78401 0.0
C566 C 0.96504 0.55125 0.78501 0.0
C567 C 0.08182 0.51193 0.78298 0.0
C568 C 0.0615 0.4437 0.78286 0.0
H569 H 0.05344 0.61581 0.78421 0.0
H570 H 0.13482 0.52529 0.78242 0.0
S571 S 0.88466 0.38141 0.78457 0.0
N572 N 0.87778 0.46431 0.78534 0.0
N573 N 0.96634 0.36593 0.7834 0.0
C574 C 0.99187 0.42965 0.78356 0.0
C575 C 0.94374 0.48322 0.78464 0.0
loop_
_geom_bond_atom_site_label_1
_geom_bond_atom_site_label_2
_geom_bond_distance
_geom_bond_site_symmetry_2
_ccdc_geom_bond_type
Zn0 O3 2.031 . S
Zn0 O5 2.049 . S
Zn0 O10 2.067 . S
Zn1 O2 1.962 . S
Zn1 O4 1.986 . S
Zn1 O6 1.996 . S
Zn1 O9 1.943 . S
O2 Zn1 1.962 . S
O2 C7 1.254 . S
O3 Zn0 2.031 . S
O3 C7 1.269 . S
O4 Zn1 1.986 . S
O4 C11 1.262 . S
O5 Zn0 2.049 . S
O5 C13 1.260 . S
O6 Zn1 1.996 . S
O6 C13 1.257 . S
C7 O2 1.254 . S
C7 O3 1.269 . S
C8 O9 1.249 . S
C8 O10 1.270 . S
O9 Zn1 1.943 . S
O9 C8 1.249 . S
O10 Zn0 2.067 . S
O10 C8 1.270 . S
C11 O4 1.262 . S
C11 O12 1.232 . S
O12 C11 1.232 . S
C13 O5 1.260 . S
C13 O6 1.257 . S
Zn14 O17 2.031 . S
Zn14 O19 2.049 . S
Zn14 O24 2.067 . S
Zn15 O16 1.962 . S
Zn15 O18 1.986 . S
Zn15 O20 1.996 . S
Zn15 O23 1.943 . S
O16 Zn15 1.962 . S
O16 C21 1.254 . S
O17 Zn14 2.031 . S
O17 C21 1.269 . S
O18 Zn15 1.986 . S
O18 C25 1.262 . S
O19 Zn14 2.049 . S
O19 C27 1.260 . S
O20 Zn15 1.996 . S
O20 C27 1.257 . S
C21 O16 1.254 . S
C21 O17 1.269 . S
C22 O23 1.249 . S
C22 O24 1.270 . S
O23 Zn15 1.943 . S
O23 C22 1.249 . S
O24 Zn14 2.067 . S
O24 C22 1.270 . S
C25 O18 1.262 . S
C25 O26 1.232 . S
O26 C25 1.232 . S
C27 O19 1.260 . S
C27 O20 1.257 . S
Zn28 O31 2.031 . S
Zn28 O33 2.049 . S
Zn28 O38 2.067 . S
Zn29 O30 1.962 . S
Zn29 O32 1.986 . S
Zn29 O34 1.996 . S
Zn29 O37 1.943 . S
O30 Zn29 1.962 . S
O30 C35 1.254 . S
O31 Zn28 2.031 . S
O31 C35 1.269 . S
O32 Zn29 1.986 . S
O32 C39 1.262 . S
O33 Zn28 2.049 . S
O33 C41 1.260 . S
O34 Zn29 1.996 . S
O34 C41 1.257 . S
C35 O30 1.254 . S
C35 O31 1.269 . S
C36 O37 1.249 . S
C36 O38 1.270 . S
O37 Zn29 1.943 . S
O37 C36 1.249 . S
O38 Zn28 2.067 . S
O38 C36 1.270 . S
C39 O32 1.262 . S
C39 O40 1.232 . S
O40 C39 1.232 . S
C41 O33 1.260 . S
C41 O34 1.257 . S
Zn42 O45 2.031 . S
Zn42 O47 2.049 . S
Zn42 O52 2.067 . S
Zn43 O44 1.962 . S
Zn43 O46 1.986 . S
Zn43 O48 1.996 . S
Zn43 O51 1.943 . S
O44 Zn43 1.962 . S
O44 C49 1.254 . S
O45 Zn42 2.031 . S
O45 C49 1.269 . S
O46 Zn43 1.986 . S
O46 C53 1.262 . S
O47 Zn42 2.049 . S
O47 C55 1.260 . S
O48 Zn43 1.996 . S
O48 C55 1.257 . S
C49 O44 1.254 . S
C49 O45 1.269 . S
C50 O51 1.249 . S
C50 O52 1.270 . S
O51 Zn43 1.943 . S
O51 C50 1.249 . S
O52 Zn42 2.067 . S
O52 C50 1.270 . S
C53 O46 1.262 . S
C53 O54 1.232 . S
O54 C53 1.232 . S
C55 O47 1.260 . S
C55 O48 1.257 . S
Zn56 O59 2.031 . S
Zn56 O61 2.049 . S
Zn56 O66 2.067 . S
Zn57 O58 1.962 . S
Zn57 O60 1.986 . S
Zn57 O62 1.996 . S
Zn57 O65 1.943 . S
O58 Zn57 1.962 . S
O58 C63 1.254 . S
O59 Zn56 2.031 . S
O59 C63 1.269 . S
O60 Zn57 1.986 . S
O60 C67 1.262 . S
O61 Zn56 2.049 . S
O61 C69 1.260 . S
O62 Zn57 1.996 . S
O62 C69 1.257 . S
C63 O58 1.254 . S
C63 O59 1.269 . S
C64 O65 1.249 . S
C64 O66 1.270 . S
O65 Zn57 1.943 . S
O65 C64 1.249 . S
O66 Zn56 2.067 . S
O66 C64 1.270 . S
C67 O60 1.262 . S
C67 O68 1.232 . S
O68 C67 1.232 . S
C69 O61 1.260 . S
C69 O62 1.257 . S
Zn70 O73 2.031 . S
Zn70 O75 2.049 . S
Zn70 O80 2.067 . S
Zn71 O72 1.962 . S
Zn71 O74 1.986 . S
Zn71 O76 1.996 . S
Zn71 O79 1.943 . S
O72 Zn71 1.962 . S
O72 C77 1.254 . S
O73 Zn70 2.031 . S
O73 C77 1.269 . S
O74 Zn71 1.986 . S
O74 C81 1.262 . S
O75 Zn70 2.049 . S
O75 C83 1.260 . S
O76 Zn71 1.996 . S
O76 C83 1.257 . S
C77 O72 1.254 . S
C77 O73 1.269 . S
C78 O79 1.249 . S
C78 O80 1.270 . S
O79 Zn71 1.943 . S
O79 C78 1.249 . S
O80 Zn70 2.067 . S
O80 C78 1.270 . S
C81 O74 1.262 . S
C81 O82 1.232 . S
O82 C81 1.232 . S
C83 O75 1.260 . S
C83 O76 1.257 . S
Zn84 O87 2.031 . S
Zn84 O89 2.049 . S
Zn84 O94 2.067 . S
Zn85 O86 1.962 . S
Zn85 O88 1.986 . S
Zn85 O90 1.996 . S
Zn85 O93 1.943 . S
O86 Zn85 1.962 . S
O86 C91 1.254 . S
O87 Zn84 2.031 . S
O87 C91 1.269 . S
O88 Zn85 1.986 . S
O88 C95 1.262 . S
O89 Zn84 2.049 . S
O89 C97 1.260 . S
O90 Zn85 1.996 . S
O90 C97 1.257 . S
C91 O86 1.254 . S
C91 O87 1.269 . S
C92 O93 1.249 . S
C92 O94 1.270 . S
O93 Zn85 1.943 . S
O93 C92 1.249 . S
O94 Zn84 2.067 . S
O94 C92 1.270 . S
C95 O88 1.262 . S
C95 O96 1.232 . S
O96 C95 1.232 . S
C97 O89 1.260 . S
C97 O90 1.257 . S
Zn98 O101 2.031 . S
Zn98 O103 2.049 . S
Zn98 O108 2.067 . S
Zn99 O100 1.962 . S
Zn99 O102 1.986 . S
Zn99 O104 1.996 . S
Zn99 O107 1.943 . S
O100 Zn99 1.962 . S
O100 C105 1.254 . S
O101 Zn98 2.031 . S
O101 C105 1.269 . S
O102 Zn99 1.986 . S
O102 C109 1.262 . S
O103 Zn98 2.049 . S
O103 C111 1.260 . S
O104 Zn99 1.996 . S
O104 C111 1.257 . S
C105 O100 1.254 . S
C105 O101 1.269 . S
C106 O107 1.249 . S
C106 O108 1.270 . S
O107 Zn99 1.943 . S
O107 C106 1.249 . S
O108 Zn98 2.067 . S
O108 C106 1.270 . S
C109 O102 1.262 . S
C109 O110 1.232 . S
O110 C109 1.232 . S
C111 O103 1.260 . S
C111 O104 1.257 . S
Zn112 O115 2.031 . S
Zn112 O117 2.049 . S
Zn112 O122 2.067 . S
Zn113 O114 1.962 . S
Zn113 O116 1.986 . S
Zn113 O118 1.996 . S
Zn113 O121 1.943 . S
O114 Zn113 1.962 . S
O114 C119 1.254 . S
O115 Zn112 2.031 . S
O115 C119 1.269 . S
O116 Zn113 1.986 . S
O116 C123 1.262 . S
O117 Zn112 2.049 . S
O117 C125 1.260 . S
O118 Zn113 1.996 . S
O118 C125 1.257 . S
C119 O114 1.254 . S
C119 O115 1.269 . S
C120 O121 1.249 . S
C120 O122 1.270 . S
O121 Zn113 1.943 . S
O121 C120 1.249 . S
O122 Zn112 2.067 . S
O122 C120 1.270 . S
C123 O116 1.262 . S
C123 O124 1.232 . S
O124 C123 1.232 . S
C125 O117 1.260 . S
C125 O118 1.257 . S
Zn126 O129 2.031 . S
Zn126 O131 2.049 . S
Zn126 O136 2.067 . S
Zn127 O128 1.962 . S
Zn127 O130 1.986 . S
Zn127 O132 1.996 . S
Zn127 O135 1.943 . S
O128 Zn127 1.962 . S
O128 C133 1.254 . S
O129 Zn126 2.031 . S
O129 C133 1.269 . S
O130 Zn127 1.986 . S
O130 C137 1.262 . S
O131 Zn126 2.049 . S
O131 C139 1.260 . S
O132 Zn127 1.996 . S
O132 C139 1.257 . S
C133 O128 1.254 . S
C133 O129 1.269 . S
C134 O135 1.249 . S
C134 O136 1.270 . S
O135 Zn127 1.943 . S
O135 C134 1.249 . S
O136 Zn126 2.067 . S
O136 C134 1.270 . S
C137 O130 1.262 . S
C137 O138 1.232 . S
O138 C137 1.232 . S
C139 O131 1.260 . S
C139 O132 1.257 . S
Zn140 O143 2.031 . S
Zn140 O145 2.049 . S
Zn140 O150 2.067 . S
Zn141 O142 1.962 . S
Zn141 O144 1.986 . S
Zn141 O146 1.996 . S
Zn141 O149 1.943 . S
O142 Zn141 1.962 . S
O142 C147 1.254 . S
O143 Zn140 2.031 . S
O143 C147 1.269 . S
O144 Zn141 1.986 . S
O144 C151 1.262 . S
O145 Zn140 2.049 . S
O145 C153 1.260 . S
O146 Zn141 1.996 . S
O146 C153 1.257 . S
C147 O142 1.254 . S
C147 O143 1.269 . S
C148 O149 1.249 . S
C148 O150 1.270 . S
O149 Zn141 1.943 . S
O149 C148 1.249 . S
O150 Zn140 2.067 . S
O150 C148 1.270 . S
C151 O144 1.262 . S
C151 O152 1.232 . S
O152 C151 1.232 . S
C153 O145 1.260 . S
C153 O146 1.257 . S
Zn154 O157 2.031 . S
Zn154 O159 2.049 . S
Zn154 O164 2.067 . S
Zn155 O156 1.962 . S
Zn155 O158 1.986 . S
Zn155 O160 1.996 . S
Zn155 O163 1.943 . S
O156 Zn155 1.962 . S
O156 C161 1.254 . S
O157 Zn154 2.031 . S
O157 C161 1.269 . S
O158 Zn155 1.986 . S
O158 C165 1.262 . S
O159 Zn154 2.049 . S
O159 C167 1.260 . S
O160 Zn155 1.996 . S
O160 C167 1.257 . S
C161 O156 1.254 . S
C161 O157 1.269 . S
C162 O163 1.249 . S
C162 O164 1.270 . S
O163 Zn155 1.943 . S
O163 C162 1.249 . S
O164 Zn154 2.067 . S
O164 C162 1.270 . S
C165 O158 1.262 . S
C165 O166 1.232 . S
O166 C165 1.232 . S
C167 O159 1.260 . S
C167 O160 1.257 . S
Zn168 O171 2.031 . S
Zn168 O173 2.049 . S
Zn168 O178 2.067 . S
Zn169 O170 1.962 . S
Zn169 O172 1.986 . S
Zn169 O174 1.996 . S
Zn169 O177 1.943 . S
O170 Zn169 1.962 . S
O170 C175 1.254 . S
O171 Zn168 2.031 . S
O171 C175 1.269 . S
O172 Zn169 1.986 . S
O172 C179 1.262 . S
O173 Zn168 2.049 . S
O173 C181 1.260 . S
O174 Zn169 1.996 . S
O174 C181 1.257 . S
C175 O170 1.254 . S
C175 O171 1.269 . S
C176 O177 1.249 . S
C176 O178 1.270 . S
O177 Zn169 1.943 . S
O177 C176 1.249 . S
O178 Zn168 2.067 . S
O178 C176 1.270 . S
C179 O172 1.262 . S
C179 O180 1.232 . S
O180 C179 1.232 . S
C181 O173 1.260 . S
C181 O174 1.257 . S
Zn182 O185 2.031 . S
Zn182 O187 2.049 . S
Zn182 O192 2.067 . S
Zn183 O184 1.962 . S
Zn183 O186 1.986 . S
Zn183 O188 1.996 . S
Zn183 O191 1.943 . S
O184 Zn183 1.962 . S
O184 C189 1.254 . S
O185 Zn182 2.031 . S
O185 C189 1.269 . S
O186 Zn183 1.986 . S
O186 C193 1.262 . S
O187 Zn182 2.049 . S
O187 C195 1.260 . S
O188 Zn183 1.996 . S
O188 C195 1.257 . S
C189 O184 1.254 . S
C189 O185 1.269 . S
C190 O191 1.249 . S
C190 O192 1.270 . S
O191 Zn183 1.943 . S
O191 C190 1.249 . S
O192 Zn182 2.067 . S
O192 C190 1.270 . S
C193 O186 1.262 . S
C193 O194 1.232 . S
O194 C193 1.232 . S
C195 O187 1.260 . S
C195 O188 1.257 . S
Zn196 O199 2.031 . S
Zn196 O201 2.049 . S
Zn196 O206 2.067 . S
Zn197 O198 1.962 . S
Zn197 O200 1.986 . S
Zn197 O202 1.996 . S
Zn197 O205 1.943 . S
O198 Zn197 1.962 . S
O198 C203 1.254 . S
O199 Zn196 2.031 . S
O199 C203 1.269 . S
O200 Zn197 1.986 . S
O200 C207 1.262 . S
O201 Zn196 2.049 . S
O201 C209 1.260 . S
O202 Zn197 1.996 . S
O202 C209 1.257 . S
C203 O198 1.254 . S
C203 O199 1.269 . S
C204 O205 1.249 . S
C204 O206 1.270 . S
O205 Zn197 1.943 . S
O205 C204 1.249 . S
O206 Zn196 2.067 . S
O206 C204 1.270 . S
C207 O200 1.262 . S
C207 O208 1.232 . S
O208 C207 1.232 . S
C209 O201 1.260 . S
C209 O202 1.257 . S
Zn210 O213 2.031 . S
Zn210 O215 2.049 . S
Zn210 O220 2.067 . S
Zn211 O212 1.962 . S
Zn211 O214 1.986 . S
Zn211 O216 1.996 . S
Zn211 O219 1.943 . S
O212 Zn211 1.962 . S
O212 C217 1.254 . S
O213 Zn210 2.031 . S
O213 C217 1.269 . S
O214 Zn211 1.986 . S
O214 C221 1.262 . S
O215 Zn210 2.049 . S
O215 C223 1.260 . S
O216 Zn211 1.996 . S
O216 C223 1.257 . S
C217 O212 1.254 . S
C217 O213 1.269 . S
C218 O219 1.249 . S
C218 O220 1.270 . S
O219 Zn211 1.943 . S
O219 C218 1.249 . S
O220 Zn210 2.067 . S
O220 C218 1.270 . S
C221 O214 1.262 . S
C221 O222 1.232 . S
O222 C221 1.232 . S
C223 O215 1.260 . S
C223 O216 1.257 . S
C224 C225 1.369 . S
C224 C226 1.419 . S
C224 H228 0.930 . S
C225 C224 1.369 . S
C225 C234 1.429 . S
C226 C224 1.419 . S
C226 C227 1.363 . S
C226 H229 0.929 . S
C227 C226 1.363 . S
C227 C233 1.428 . S
H228 C224 0.930 . S
H229 C226 0.929 . S
S230 N231 1.613 . S
S230 N232 1.610 . S
N231 S230 1.613 . S
N231 C234 1.350 . S
N232 S230 1.610 . S
N232 C233 1.351 . S
C233 C227 1.428 . S
C233 N232 1.351 . S
C233 C234 1.434 . S
C234 C225 1.429 . S
C234 N231 1.350 . S
C234 C233 1.434 . S
C235 C236 1.369 . S
C235 C237 1.419 . S
C235 H239 0.930 . S
C236 C235 1.369 . S
C236 C245 1.429 . S
C237 C235 1.419 . S
C237 C238 1.363 . S
C237 H240 0.929 . S
C238 C237 1.363 . S
C238 C244 1.428 . S
H239 C235 0.930 . S
H240 C237 0.929 . S
S241 N242 1.613 . S
S241 N243 1.610 . S
N242 S241 1.613 . S
N242 C245 1.350 . S
N243 S241 1.610 . S
N243 C244 1.351 . S
C244 C238 1.428 . S
C244 N243 1.351 . S
C244 C245 1.434 . S
C245 C236 1.429 . S
C245 N242 1.350 . S
C245 C244 1.434 . S
C246 C247 1.369 . S
C246 C248 1.419 . S
C246 H250 0.930 . S
C247 C246 1.369 . S
C247 C256 1.429 . S
C248 C246 1.419 . S
C248 C249 1.363 . S
C248 H251 0.929 . S
C249 C248 1.363 . S
C249 C255 1.428 . S
H250 C246 0.930 . S
H251 C248 0.929 . S
S252 N253 1.613 . S
S252 N254 1.610 . S
N253 S252 1.613 . S
N253 C256 1.350 . S
N254 S252 1.610 . S
N254 C255 1.351 . S
C255 C249 1.428 . S
C255 N254 1.351 . S
C255 C256 1.434 . S
C256 C247 1.429 . S
C256 N253 1.350 . S
C256 C255 1.434 . S
C257 C258 1.369 . S
C257 C259 1.419 . S
C257 H261 0.930 . S
C258 C257 1.369 . S
C258 C267 1.429 . S
C259 C257 1.419 . S
C259 C260 1.363 . S
C259 H262 0.929 . S
C260 C259 1.363 . S
C260 C266 1.428 . S
H261 C257 0.930 . S
H262 C259 0.929 . S
S263 N264 1.613 . S
S263 N265 1.610 . S
N264 S263 1.613 . S
N264 C267 1.350 . S
N265 S263 1.610 . S
N265 C266 1.351 . S
C266 C260 1.428 . S
C266 N265 1.351 . S
C266 C267 1.434 . S
C267 C258 1.429 . S
C267 N264 1.350 . S
C267 C266 1.434 . S
C268 C269 1.369 . S
C268 C270 1.419 . S
C268 H272 0.930 . S
C269 C268 1.369 . S
C269 C278 1.429 . S
C270 C268 1.419 . S
C270 C271 1.363 . S
C270 H273 0.929 . S
C271 C270 1.363 . S
C271 C277 1.428 . S
H272 C268 0.930 . S
H273 C270 0.929 . S
S274 N275 1.613 . S
S274 N276 1.610 . S
N275 S274 1.613 . S
N275 C278 1.350 . S
N276 S274 1.610 . S
N276 C277 1.351 . S
C277 C271 1.428 . S
C277 N276 1.351 . S
C277 C278 1.434 . S
C278 C269 1.429 . S
C278 N275 1.350 . S
C278 C277 1.434 . S
C279 C280 1.369 . S
C279 C281 1.419 . S
C279 H283 0.930 . S
C280 C279 1.369 . S
C280 C289 1.429 . S
C281 C279 1.419 . S
C281 C282 1.363 . S
C281 H284 0.929 . S
C282 C281 1.363 . S
C282 C288 1.428 . S
H283 C279 0.930 . S
H284 C281 0.929 . S
S285 N286 1.613 . S
S285 N287 1.610 . S
N286 S285 1.613 . S
N286 C289 1.350 . S
N287 S285 1.610 . S
N287 C288 1.351 . S
C288 C282 1.428 . S
C288 N287 1.351 . S
C288 C289 1.434 . S
C289 C280 1.429 . S
C289 N286 1.350 . S
C289 C288 1.434 . S
C290 C291 1.369 . S
C290 C292 1.419 . S
C290 H294 0.930 . S
C291 C290 1.369 . S
C291 C300 1.429 . S
C292 C290 1.419 . S
C292 C293 1.363 . S
C292 H295 0.929 . S
C293 C292 1.363 . S
C293 C299 1.428 . S
H294 C290 0.930 . S
H295 C292 0.929 . S
S296 N297 1.613 . S
S296 N298 1.610 . S
N297 S296 1.613 . S
N297 C300 1.350 . S
N298 S296 1.610 . S
N298 C299 1.351 . S
C299 C293 1.428 . S
C299 N298 1.351 . S
C299 C300 1.434 . S
C300 C291 1.429 . S
C300 N297 1.350 . S
C300 C299 1.434 . S
C301 C302 1.369 . S
C301 C303 1.419 . S
C301 H305 0.930 . S
C302 C301 1.369 . S
C302 C311 1.429 . S
C303 C301 1.419 . S
C303 C304 1.363 . S
C303 H306 0.929 . S
C304 C303 1.363 . S
C304 C310 1.428 . S
H305 C301 0.930 . S
H306 C303 0.929 . S
S307 N308 1.613 . S
S307 N309 1.610 . S
N308 S307 1.613 . S
N308 C311 1.350 . S
N309 S307 1.610 . S
N309 C310 1.351 . S
C310 C304 1.428 . S
C310 N309 1.351 . S
C310 C311 1.434 . S
C311 C302 1.429 . S
C311 N308 1.350 . S
C311 C310 1.434 . S
C312 C313 1.369 . S
C312 C314 1.419 . S
C312 H316 0.930 . S
C313 C312 1.369 . S
C313 C322 1.429 . S
C314 C312 1.419 . S
C314 C315 1.363 . S
C314 H317 0.929 . S
C315 C314 1.363 . S
C315 C321 1.428 . S
H316 C312 0.930 . S
H317 C314 0.929 . S
S318 N319 1.613 . S
S318 N320 1.610 . S
N319 S318 1.613 . S
N319 C322 1.350 . S
N320 S318 1.610 . S
N320 C321 1.351 . S
C321 C315 1.428 . S
C321 N320 1.351 . S
C321 C322 1.434 . S
C322 C313 1.429 . S
C322 N319 1.350 . S
C322 C321 1.434 . S
C323 C324 1.369 . S
C323 C325 1.419 . S
C323 H327 0.930 . S
C324 C323 1.369 . S
C324 C333 1.429 . S
C325 C323 1.419 . S
C325 C326 1.363 . S
C325 H328 0.929 . S
C326 C325 1.363 . S
C326 C332 1.428 . S
H327 C323 0.930 . S
H328 C325 0.929 . S
S329 N330 1.613 . S
S329 N331 1.610 . S
N330 S329 1.613 . S
N330 C333 1.350 . S
N331 S329 1.610 . S
N331 C332 1.351 . S
C332 C326 1.428 . S
C332 N331 1.351 . S
C332 C333 1.434 . S
C333 C324 1.429 . S
C333 N330 1.350 . S
C333 C332 1.434 . S
C334 C335 1.369 . S
C334 C336 1.419 . S
C334 H338 0.930 . S
C335 C334 1.369 . S
C335 C344 1.429 . S
C336 C334 1.419 . S
C336 C337 1.363 . S
C336 H339 0.929 . S
C337 C336 1.363 . S
C337 C343 1.428 . S
H338 C334 0.930 . S
H339 C336 0.929 . S
S340 N341 1.613 . S
S340 N342 1.610 . S
N341 S340 1.613 . S
N341 C344 1.350 . S
N342 S340 1.610 . S
N342 C343 1.351 . S
C343 C337 1.428 . S
C343 N342 1.351 . S
C343 C344 1.434 . S
C344 C335 1.429 . S
C344 N341 1.350 . S
C344 C343 1.434 . S
C345 C346 1.369 . S
C345 C347 1.419 1_554 S
C345 H349 0.930 . S
C346 C345 1.369 . S
C346 C355 1.429 . S
C347 C345 1.419 1_556 S
C347 C348 1.363 . S
C347 H350 0.929 . S
C348 C347 1.363 . S
C348 C354 1.428 . S
H349 C345 0.930 . S
H350 C347 0.929 . S
S351 N352 1.613 1_556 S
S351 N353 1.610 . S
N352 S351 1.613 1_554 S
N352 C355 1.350 . S
N353 S351 1.610 . S
N353 C354 1.351 . S
C354 C348 1.428 . S
C354 N353 1.351 . S
C354 C355 1.434 1_556 S
C355 C346 1.429 . S
C355 N352 1.350 . S
C355 C354 1.434 1_554 S
C356 C357 1.369 . S
C356 C358 1.419 1_554 S
C356 H360 0.930 . S
C357 C356 1.369 . S
C357 C366 1.429 . S
C358 C356 1.419 1_556 S
C358 C359 1.363 . S
C358 H361 0.929 . S
C359 C358 1.363 . S
C359 C365 1.428 . S
H360 C356 0.930 . S
H361 C358 0.929 . S
S362 N363 1.613 1_556 S
S362 N364 1.610 . S
N363 S362 1.613 1_554 S
N363 C366 1.350 . S
N364 S362 1.610 . S
N364 C365 1.351 . S
C365 C359 1.428 . S
C365 N364 1.351 . S
C365 C366 1.434 1_556 S
C366 C357 1.429 . S
C366 N363 1.350 . S
C366 C365 1.434 1_554 S
C367 C368 1.369 . S
C367 C369 1.419 . S
C367 H371 0.930 . S
C368 C367 1.369 . S
C368 C377 1.429 . S
C369 C367 1.419 . S
C369 C370 1.363 . S
C369 H372 0.929 . S
C370 C369 1.363 . S
C370 C376 1.428 . S
H371 C367 0.930 . S
H372 C369 0.929 . S
S373 N374 1.613 . S
S373 N375 1.610 . S
N374 S373 1.613 . S
N374 C377 1.350 . S
N375 S373 1.610 . S
N375 C376 1.351 . S
C376 C370 1.428 . S
C376 N375 1.351 . S
C376 C377 1.434 . S
C377 C368 1.429 . S
C377 N374 1.350 . S
C377 C376 1.434 . S
C378 C379 1.369 . S
C378 C380 1.419 . S
C378 H382 0.930 . S
C379 C378 1.369 . S
C379 C388 1.429 . S
C380 C378 1.419 . S
C380 C381 1.363 . S
C380 H383 0.929 . S
C381 C380 1.363 . S
C381 C387 1.428 . S
H382 C378 0.930 . S
H383 C380 0.929 . S
S384 N385 1.613 . S
S384 N386 1.610 . S
N385 S384 1.613 . S
N385 C388 1.350 . S
N386 S384 1.610 . S
N386 C387 1.351 . S
C387 C381 1.428 . S
C387 N386 1.351 . S
C387 C388 1.434 . S
C388 C379 1.429 . S
C388 N385 1.350 . S
C388 C387 1.434 . S
C389 C390 1.369 . S
C389 C391 1.419 . S
C389 H393 0.930 . S
C390 C389 1.369 . S
C390 C399 1.429 . S
C391 C389 1.419 . S
C391 C392 1.363 . S
C391 H394 0.929 . S
C392 C391 1.363 . S
C392 C398 1.428 . S
H393 C389 0.930 . S
H394 C391 0.929 . S
S395 N396 1.613 . S
S395 N397 1.610 . S
N396 S395 1.613 . S
N396 C399 1.350 . S
N397 S395 1.610 . S
N397 C398 1.351 . S
C398 C392 1.428 . S
C398 N397 1.351 . S
C398 C399 1.434 . S
C399 C390 1.429 . S
C399 N396 1.350 . S
C399 C398 1.434 . S
C400 C401 1.369 . S
C400 C402 1.419 1_455 S
C400 H404 0.930 . S
C401 C400 1.369 . S
C401 C410 1.429 1_545 S
C402 C400 1.419 1_655 S
C402 C403 1.363 1_545 S
C402 H405 0.929 . S
C403 C402 1.363 1_565 S
C403 C409 1.428 . S
H404 C400 0.930 . S
H405 C402 0.929 . S
S406 N407 1.613 . S
S406 N408 1.610 1_455 S
N407 S406 1.613 . S
N407 C410 1.350 . S
N408 S406 1.610 1_655 S
N408 C409 1.351 . S
C409 C403 1.428 . S
C409 N408 1.351 . S
C409 C410 1.434 1_655 S
C410 C401 1.429 1_565 S
C410 N407 1.350 . S
C410 C409 1.434 1_455 S
C411 C412 1.369 . S
C411 C413 1.419 1_455 S
C411 H415 0.930 . S
C412 C411 1.369 . S
C412 C421 1.429 . S
C413 C411 1.419 1_655 S
C413 C414 1.363 . S
C413 H416 0.929 . S
C414 C413 1.363 . S
C414 C420 1.428 . S
H415 C411 0.930 . S
H416 C413 0.929 . S
S417 N418 1.613 . S
S417 N419 1.610 . S
N418 S417 1.613 . S
N418 C421 1.350 . S
N419 S417 1.610 . S
N419 C420 1.351 1_455 S
C420 C414 1.428 . S
C420 N419 1.351 1_655 S
C420 C421 1.434 1_655 S
C421 C412 1.429 . S
C421 N418 1.350 . S
C421 C420 1.434 1_455 S
C422 C423 1.369 . S
C422 C424 1.419 . S
C422 H426 0.930 . S
C423 C422 1.369 . S
C423 C432 1.429 . S
C424 C422 1.419 . S
C424 C425 1.363 . S
C424 H427 0.929 . S
C425 C424 1.363 . S
C425 C431 1.428 . S
H426 C422 0.930 . S
H427 C424 0.929 . S
S428 N429 1.613 . S
S428 N430 1.610 . S
N429 S428 1.613 . S
N429 C432 1.350 . S
N430 S428 1.610 . S
N430 C431 1.351 . S
C431 C425 1.428 . S
C431 N430 1.351 . S
C431 C432 1.434 . S
C432 C423 1.429 . S
C432 N429 1.350 . S
C432 C431 1.434 . S
C433 C434 1.369 . S
C433 C435 1.419 1_545 S
C433 H437 0.930 . S
C434 C433 1.369 . S
C434 C443 1.429 . S
C435 C433 1.419 1_565 S
C435 C436 1.363 . S
C435 H438 0.929 . S
C436 C435 1.363 . S
C436 C442 1.428 . S
H437 C433 0.930 . S
H438 C435 0.929 . S
S439 N440 1.613 1_565 S
S439 N441 1.610 . S
N440 S439 1.613 1_545 S
N440 C443 1.350 . S
N441 S439 1.610 . S
N441 C442 1.351 . S
C442 C436 1.428 . S
C442 N441 1.351 . S
C442 C443 1.434 1_565 S
C443 C434 1.429 . S
C443 N440 1.350 . S
C443 C442 1.434 1_545 S
C444 C445 1.369 . S
C444 C446 1.419 1_455 S
C444 H448 0.930 . S
C445 C444 1.369 . S
C445 C454 1.429 . S
C446 C444 1.419 1_655 S
C446 C447 1.363 . S
C446 H449 0.929 . S
C447 C446 1.363 . S
C447 C453 1.428 . S
H448 C444 0.930 . S
H449 C446 0.929 . S
S450 N451 1.613 . S
S450 N452 1.610 1_455 S
N451 S450 1.613 . S
N451 C454 1.350 . S
N452 S450 1.610 1_655 S
N452 C453 1.351 . S
C453 C447 1.428 . S
C453 N452 1.351 . S
C453 C454 1.434 1_655 S
C454 C445 1.429 . S
C454 N451 1.350 . S
C454 C453 1.434 1_455 S
C455 C456 1.369 . S
C455 C457 1.419 . S
C455 H459 0.930 . S
C456 C455 1.369 . S
C456 C465 1.429 . S
C457 C455 1.419 . S
C457 C458 1.363 . S
C457 H460 0.929 . S
C458 C457 1.363 . S
C458 C464 1.428 . S
H459 C455 0.930 . S
H460 C457 0.929 . S
S461 N462 1.613 . S
S461 N463 1.610 . S
N462 S461 1.613 . S
N462 C465 1.350 . S
N463 S461 1.610 . S
N463 C464 1.351 . S
C464 C458 1.428 . S
C464 N463 1.351 . S
C464 C465 1.434 . S
C465 C456 1.429 . S
C465 N462 1.350 . S
C465 C464 1.434 . S
C466 C467 1.369 . S
C466 C468 1.419 . S
C466 H470 0.930 . S
C467 C466 1.369 . S
C467 C476 1.429 1_565 S
C468 C466 1.419 . S
C468 C469 1.363 1_565 S
C468 H471 0.929 . S
C469 C468 1.363 1_545 S
C469 C475 1.428 . S
H470 C466 0.930 . S
H471 C468 0.929 . S
S472 N473 1.613 . S
S472 N474 1.610 . S
N473 S472 1.613 . S
N473 C476 1.350 . S
N474 S472 1.610 . S
N474 C475 1.351 . S
C475 C469 1.428 . S
C475 N474 1.351 . S
C475 C476 1.434 . S
C476 C467 1.429 1_545 S
C476 N473 1.350 . S
C476 C475 1.434 . S
C477 C478 1.369 1_655 S
C477 C479 1.419 1_545 S
C477 H481 0.930 . S
C478 C477 1.369 1_455 S
C478 C487 1.429 . S
C479 C477 1.419 1_565 S
C479 C480 1.363 . S
C479 H482 0.929 . S
C480 C479 1.363 . S
C480 C486 1.428 1_655 S
H481 C477 0.930 . S
H482 C479 0.929 . S
S483 N484 1.613 1_565 S
S483 N485 1.610 . S
N484 S483 1.613 1_545 S
N484 C487 1.350 . S
N485 S483 1.610 . S
N485 C486 1.351 . S
C486 C480 1.428 1_455 S
C486 N485 1.351 . S
C486 C487 1.434 1_565 S
C487 C478 1.429 . S
C487 N484 1.350 . S
C487 C486 1.434 1_545 S
C488 C489 1.369 . S
C488 C490 1.419 . S
C488 H492 0.930 . S
C489 C488 1.369 . S
C489 C498 1.429 1_565 S
C490 C488 1.419 . S
C490 C491 1.363 1_565 S
C490 H493 0.929 . S
C491 C490 1.363 1_545 S
C491 C497 1.428 . S
H492 C488 0.930 . S
H493 C490 0.929 . S
S494 N495 1.613 . S
S494 N496 1.610 . S
N495 S494 1.613 . S
N495 C498 1.350 . S
N496 S494 1.610 . S
N496 C497 1.351 . S
C497 C491 1.428 . S
C497 N496 1.351 . S
C497 C498 1.434 . S
C498 C489 1.429 1_545 S
C498 N495 1.350 . S
C498 C497 1.434 . S
C499 C500 1.369 1_455 S
C499 C501 1.419 1_565 S
C499 H503 0.930 . S
C500 C499 1.369 1_655 S
C500 C509 1.429 . S
C501 C499 1.419 1_545 S
C501 C502 1.363 . S
C501 H504 0.929 . S
C502 C501 1.363 . S
C502 C508 1.428 1_455 S
H503 C499 0.930 . S
H504 C501 0.929 . S
S505 N506 1.613 1_545 S
S505 N507 1.610 . S
N506 S505 1.613 1_565 S
N506 C509 1.350 . S
N507 S505 1.610 . S
N507 C508 1.351 . S
C508 C502 1.428 1_655 S
C508 N507 1.351 . S
C508 C509 1.434 1_545 S
C509 C500 1.429 . S
C509 N506 1.350 . S
C509 C508 1.434 1_565 S
C510 C511 1.369 . S
C510 C512 1.419 1_455 S
C510 H514 0.930 . S
C511 C510 1.369 . S
C511 C520 1.429 . S
C512 C510 1.419 1_655 S
C512 C513 1.363 . S
C512 H515 0.929 . S
C513 C512 1.363 . S
C513 C519 1.428 . S
H514 C510 0.930 . S
H515 C512 0.929 . S
S516 N517 1.613 . S
S516 N518 1.610 1_455 S
N517 S516 1.613 . S
N517 C520 1.350 . S
N518 S516 1.610 1_655 S
N518 C519 1.351 . S
C519 C513 1.428 . S
C519 N518 1.351 . S
C519 C520 1.434 1_655 S
C520 C511 1.429 . S
C520 N517 1.350 . S
C520 C519 1.434 1_455 S
C521 C522 1.369 . S
C521 C523 1.419 . S
C521 H525 0.930 . S
C522 C521 1.369 . S
C522 C531 1.429 . S
C523 C521 1.419 . S
C523 C524 1.363 . S
C523 H526 0.929 . S
C524 C523 1.363 . S
C524 C530 1.428 . S
H525 C521 0.930 . S
H526 C523 0.929 . S
S527 N528 1.613 . S
S527 N529 1.610 . S
N528 S527 1.613 . S
N528 C531 1.350 . S
N529 S527 1.610 . S
N529 C530 1.351 . S
C530 C524 1.428 . S
C530 N529 1.351 . S
C530 C531 1.434 . S
C531 C522 1.429 . S
C531 N528 1.350 . S
C531 C530 1.434 . S
C532 C533 1.369 . S
C532 C534 1.419 . S
C532 H536 0.930 . S
C533 C532 1.369 . S
C533 C542 1.429 . S
C534 C532 1.419 . S
C534 C535 1.363 . S
C534 H537 0.929 . S
C535 C534 1.363 . S
C535 C541 1.428 . S
H536 C532 0.930 . S
H537 C534 0.929 . S
S538 N539 1.613 . S
S538 N540 1.610 . S
N539 S538 1.613 . S
N539 C542 1.350 . S
N540 S538 1.610 . S
N540 C541 1.351 . S
C541 C535 1.428 . S
C541 N540 1.351 . S
C541 C542 1.434 . S
C542 C533 1.429 . S
C542 N539 1.350 . S
C542 C541 1.434 . S
C543 C544 1.369 . S
C543 C545 1.419 1_545 S
C543 H547 0.930 . S
C544 C543 1.369 . S
C544 C553 1.429 . S
C545 C543 1.419 1_565 S
C545 C546 1.363 . S
C545 H548 0.929 . S
C546 C545 1.363 . S
C546 C552 1.428 . S
H547 C543 0.930 . S
H548 C545 0.929 . S
S549 N550 1.613 1_565 S
S549 N551 1.610 . S
N550 S549 1.613 1_545 S
N550 C553 1.350 . S
N551 S549 1.610 . S
N551 C552 1.351 . S
C552 C546 1.428 . S
C552 N551 1.351 . S
C552 C553 1.434 1_565 S
C553 C544 1.429 . S
C553 N550 1.350 . S
C553 C552 1.434 1_545 S
C554 C555 1.369 . S
C554 C556 1.419 1_655 S
C554 H558 0.930 . S
C555 C554 1.369 . S
C555 C564 1.429 1_565 S
C556 C554 1.419 1_455 S
C556 C557 1.363 1_565 S
C556 H559 0.929 . S
C557 C556 1.363 1_545 S
C557 C563 1.428 . S
H558 C554 0.930 . S
H559 C556 0.929 . S
S560 N561 1.613 . S
S560 N562 1.610 1_655 S
N561 S560 1.613 . S
N561 C564 1.350 . S
N562 S560 1.610 1_455 S
N562 C563 1.351 . S
C563 C557 1.428 . S
C563 N562 1.351 . S
C563 C564 1.434 1_455 S
C564 C555 1.429 1_545 S
C564 N561 1.350 . S
C564 C563 1.434 1_655 S
C565 C566 1.369 1_455 S
C565 C567 1.419 . S
C565 H569 0.930 . S
C566 C565 1.369 1_655 S
C566 C575 1.429 . S
C567 C565 1.419 . S
C567 C568 1.363 . S
C567 H570 0.929 . S
C568 C567 1.363 . S
C568 C574 1.428 1_455 S
H569 C565 0.930 . S
H570 C567 0.929 . S
S571 N572 1.613 . S
S571 N573 1.610 . S
N572 S571 1.613 . S
N572 C575 1.350 . S
N573 S571 1.610 . S
N573 C574 1.351 . S
C574 C568 1.428 1_655 S
C574 N573 1.351 . S
C574 C575 1.434 . S
C575 C566 1.429 . S
C575 N572 1.350 . S
C575 C574 1.434 . S
C225 C69 1.249 . S
C227 C13 1.250 . S
C236 C27 1.256 . S
C238 C83 1.254 . S
C247 C97 1.251 . S
C249 C41 1.252 . S
C258 C111 1.258 . S
C260 C55 1.257 . S
C269 C181 1.253 . S
C271 C125 1.254 . S
C280 C139 1.248 . S
C282 C195 1.249 . S
C291 C209 1.253 . S
C293 C153 1.252 . S
C302 C167 1.258 . S
C304 C223 1.256 . S
C313 C7 1.330 . S
C315 C217 1.329 . S
C324 C21 1.330 . S
C326 C175 1.331 . S
C335 C35 1.332 . S
C337 C189 1.331 . S
C346 C203 1.330 . S
C348 C49 1.331 . S
C357 C63 1.329 . S
C359 C133 1.330 . S
C368 C77 1.330 . S
C370 C147 1.331 . S
C379 C161 1.331 . S
C381 C91 1.330 . S
C390 C119 1.332 . S
C392 C105 1.331 . S
C401 C11 1.493 . S
C403 C151 1.490 . S
C412 C165 1.493 . S
C414 C25 1.495 . S
C423 C39 1.493 . S
C425 C123 1.494 . S
C434 C137 1.492 . S
C436 C53 1.495 . S
C445 C67 1.493 . S
C447 C207 1.490 . S
C456 C81 1.492 . S
C458 C221 1.495 . S
C467 C179 1.493 . S
C469 C95 1.490 . S
C478 C193 1.491 . S
C480 C109 1.491 . S
C489 C148 1.471 . S
C491 C8 1.469 . S
C500 C22 1.463 . S
C502 C162 1.471 . S
C511 C36 1.474 . S
C513 C120 1.464 . S
C522 C134 1.465 . S
C524 C50 1.472 . S
C533 C204 1.473 . S
C535 C64 1.466 . S
C544 C218 1.463 . S
C546 C78 1.472 . S
C555 C176 1.474 . S
C557 C92 1.466 . S
C566 C106 1.467 . S
C568 C190 1.468 . S
