# Generated by pormake.
# Topology sol, (6)-cn, num edge types: 1
# Building blocks:
#     Node 0, Type 0, BuildingBlock: OJICUG_clean_sbu_0, # of connection points: 6
#     Node 1, Type 0, BuildingBlock: OJICUG_clean_sbu_0, # of connection points: 6
#     Node 2, Type 0, BuildingBlock: OJICUG_clean_sbu_0, # of connection points: 6
#     Node 3, Type 0, BuildingBlock: OJICUG_clean_sbu_0, # of connection points: 6
#     Node 4, Type 0, BuildingBlock: OJICUG_clean_sbu_0, # of connection points: 6
#     Node 5, Type 0, BuildingBlock: OJICUG_clean_sbu_0, # of connection points: 6
#     Node 6, Type 0, BuildingBlock: OJICUG_clean_sbu_0, # of connection points: 6
#     Node 7, Type 0, BuildingBlock: OJICUG_clean_sbu_0, # of connection points: 6
#     Edge 8, Type (0, 0), BuildingBlock: KIFKEQ_clean_linker_1, # of connection points: 2
#     Edge 9, Type (0, 0), BuildingBlock: KIFKEQ_clean_linker_1, # of connection points: 2
#     Edge 10, Type (0, 0), BuildingBlock: KIFKEQ_clean_linker_1, # of connection points: 2
#     Edge 11, Type (0, 0), BuildingBlock: KIFKEQ_clean_linker_1, # of connection points: 2
#     Edge 12, Type (0, 0), BuildingBlock: KIFKEQ_clean_linker_1, # of connection points: 2
#     Edge 13, Type (0, 0), BuildingBlock: KIFKEQ_clean_linker_1, # of connection points: 2
#     Edge 14, Type (0, 0), BuildingBlock: KIFKEQ_clean_linker_1, # of connection points: 2
#     Edge 15, Type (0, 0), BuildingBlock: KIFKEQ_clean_linker_1, # of connection points: 2
#     Edge 16, Type (0, 0), BuildingBlock: KIFKEQ_clean_linker_1, # of connection points: 2
#     Edge 17, Type (0, 0), BuildingBlock: KIFKEQ_clean_linker_1, # of connection points: 2
#     Edge 18, Type (0, 0), BuildingBlock: KIFKEQ_clean_linker_1, # of connection points: 2
#     Edge 19, Type (0, 0), BuildingBlock: KIFKEQ_clean_linker_1, # of connection points: 2
#     Edge 20, Type (0, 0), BuildingBlock: KIFKEQ_clean_linker_1, # of connection points: 2
#     Edge 21, Type (0, 0), BuildingBlock: KIFKEQ_clean_linker_1, # of connection points: 2
#     Edge 22, Type (0, 0), BuildingBlock: KIFKEQ_clean_linker_1, # of connection points: 2
#     Edge 23, Type (0, 0), BuildingBlock: KIFKEQ_clean_linker_1, # of connection points: 2
#     Edge 24, Type (0, 0), BuildingBlock: KIFKEQ_clean_linker_1, # of connection points: 2
#     Edge 25, Type (0, 0), BuildingBlock: KIFKEQ_clean_linker_1, # of connection points: 2
#     Edge 26, Type (0, 0), BuildingBlock: KIFKEQ_clean_linker_1, # of connection points: 2
#     Edge 27, Type (0, 0), BuildingBlock: KIFKEQ_clean_linker_1, # of connection points: 2
#     Edge 28, Type (0, 0), BuildingBlock: KIFKEQ_clean_linker_1, # of connection points: 2
#     Edge 29, Type (0, 0), BuildingBlock: KIFKEQ_clean_linker_1, # of connection points: 2
#     Edge 30, Type (0, 0), BuildingBlock: KIFKEQ_clean_linker_1, # of connection points: 2
#     Edge 31, Type (0, 0), BuildingBlock: KIFKEQ_clean_linker_1, # of connection points: 2
# Relax obj value: 0.163
# Max RMSD: 0.156
# Mean RMSD: 0.156
data_MOF--net-sol--node1-OJICUG_clean_sbu_0--edge1-KIFKEQ_clean_linker_1
_symmetry_space_group_name_H-M    P1
_symmetry_Int_Tables_number       1
_symmetry_cell_setting            triclinic
loop_
_symmetry_equiv_pos_as_xyz
'x, y, z'
_cell_length_a     35.295291
_cell_length_b     28.733098
_cell_length_c     30.916589
_cell_angle_alpha  90.131876
_cell_angle_beta   89.996654
_cell_angle_gamma 90.079912
loop_
_atom_site_label
_atom_site_type_symbol
_atom_site_fract_x
_atom_site_fract_y
_atom_site_fract_z
_atom_type_partial_charge
Sc0 Sc 0.21463 0.22338 0.06483 0.0
Sc1 Sc 0.11838 0.21549 0.03321 0.0
Sc2 Sc 0.15266 0.15104 0.12219 0.0
O3 O 0.16192 0.19634 0.07311 0.0
C4 C 0.23188 0.11702 0.08503 0.0
C5 C 0.18677 0.20672 0.9665 0.0
C6 C 0.09709 0.1091 0.04994 0.0
C7 C 0.16228 0.31091 0.04739 0.0
C8 C 0.21199 0.2197 0.16784 0.0
C9 C 0.08184 0.21873 0.12776 0.0
O10 O 0.24094 0.1561 0.06874 0.0
O11 O 0.15145 0.2041 0.97488 0.0
O12 O 0.11648 0.106 0.08444 0.0
O13 O 0.19269 0.29267 0.06117 0.0
O14 O 0.18615 0.18903 0.16822 0.0
O15 O 0.08149 0.23004 0.08792 0.0
O16 O 0.22524 0.23622 0.13289 0.0
O17 O 0.13408 0.28775 0.0338 0.0
O18 O 0.10548 0.19067 0.14423 0.0
O19 O 0.21159 0.21446 0.99554 0.0
O20 O 0.2006 0.10952 0.10434 0.0
O21 O 0.0961 0.14592 0.02731 0.0
Sc22 Sc 0.35148 0.32496 0.62219 0.0
Sc23 Sc 0.38475 0.26022 0.53333 0.0
Sc24 Sc 0.28787 0.25582 0.56377 0.0
O25 O 0.34133 0.2804 0.57279 0.0
C26 C 0.29012 0.2574 0.66635 0.0
C27 C 0.42025 0.25531 0.62825 0.0
C28 C 0.3384 0.16661 0.54343 0.0
C29 C 0.40871 0.36487 0.55033 0.0
C30 C 0.27405 0.36298 0.58627 0.0
C31 C 0.31593 0.27296 0.46655 0.0
O32 O 0.31439 0.29001 0.6666 0.0
O33 O 0.4223 0.24744 0.58774 0.0
O34 O 0.30722 0.18613 0.55289 0.0
O35 O 0.39129 0.36694 0.58625 0.0
O36 O 0.26289 0.32335 0.573 0.0
O37 O 0.35122 0.26956 0.47493 0.0
O38 O 0.30674 0.37017 0.60229 0.0
O39 O 0.40664 0.32967 0.52551 0.0
O40 O 0.29044 0.27008 0.49555 0.0
O41 O 0.39552 0.28133 0.64558 0.0
O42 O 0.2788 0.2384 0.63144 0.0
O43 O 0.36908 0.1883 0.53668 0.0
Sc44 Sc 0.65608 0.32971 0.89268 0.0
Sc45 Sc 0.6169 0.25636 0.97238 0.0
Sc46 Sc 0.71341 0.24773 0.94452 0.0
O47 O 0.66221 0.27838 0.93682 0.0
C48 C 0.71445 0.26306 0.84289 0.0
C49 C 0.5862 0.26137 0.87603 0.0
C50 C 0.65985 0.16112 0.95602 0.0
C51 C 0.59612 0.36428 0.96228 0.0
C52 C 0.73505 0.35451 0.93591 0.0
C53 C 0.68201 0.26057 0.04203 0.0
O54 O 0.68997 0.29528 0.8447 0.0
O55 O 0.58517 0.24328 0.91365 0.0
O56 O 0.68967 0.17938 0.94079 0.0
O57 O 0.62027 0.37265 0.93288 0.0
O58 O 0.74244 0.31325 0.94778 0.0
O59 O 0.64725 0.26726 0.03249 0.0
O60 O 0.7048 0.36649 0.91654 0.0
O61 O 0.59192 0.32413 0.9785 0.0
O62 O 0.70714 0.25059 0.01386 0.0
O63 O 0.60849 0.29417 0.86518 0.0
O64 O 0.72579 0.2416 0.8763 0.0
O65 O 0.6331 0.1844 0.97255 0.0
Sc66 Sc 0.84184 0.14932 0.39177 0.0
Sc67 Sc 0.8815 0.22197 0.47164 0.0
Sc68 Sc 0.7842 0.22982 0.44415 0.0
O69 O 0.83594 0.20038 0.43618 0.0
C70 C 0.78124 0.21447 0.34372 0.0
C71 C 0.91063 0.21726 0.37344 0.0
C72 C 0.83825 0.31742 0.4561 0.0
C73 C 0.90335 0.11544 0.46097 0.0
C74 C 0.76548 0.12144 0.4363 0.0
C75 C 0.81508 0.21747 0.54143 0.0
O76 O 0.80276 0.17929 0.34641 0.0
O77 O 0.91486 0.23045 0.4127 0.0
O78 O 0.80688 0.29898 0.44567 0.0
O79 O 0.88286 0.10998 0.42769 0.0
O80 O 0.75553 0.16343 0.4426 0.0
O81 O 0.8503 0.21585 0.53202 0.0
O82 O 0.79765 0.10947 0.42144 0.0
O83 O 0.904 0.15323 0.4822 0.0
O84 O 0.7892 0.22287 0.51315 0.0
O85 O 0.88537 0.18861 0.36097 0.0
O86 O 0.77381 0.24003 0.37612 0.0
O87 O 0.86708 0.29433 0.4675 0.0
Sc88 Sc 0.78517 0.75022 0.94576 0.0
Sc89 Sc 0.88272 0.7536 0.97225 0.0
Sc90 Sc 0.84349 0.83525 0.90003 0.0
O91 O 0.83715 0.7799 0.93965 0.0
C92 C 0.7825 0.77572 0.8462 0.0
C93 C 0.83788 0.66159 0.94645 0.0
C94 C 0.91236 0.76873 0.87576 0.0
C95 C 0.81793 0.74981 0.04325 0.0
C96 C 0.76685 0.85831 0.94893 0.0
C97 C 0.90468 0.86148 0.97225 0.0
O98 O 0.77175 0.75085 0.87773 0.0
O99 O 0.86616 0.68229 0.9629 0.0
O100 O 0.8889 0.801 0.86726 0.0
O101 O 0.79209 0.74558 0.01476 0.0
O102 O 0.79751 0.8712 0.93083 0.0
O103 O 0.90762 0.82037 0.98674 0.0
O104 O 0.75767 0.81607 0.95498 0.0
O105 O 0.8528 0.75575 0.03366 0.0
O106 O 0.88194 0.87197 0.94205 0.0
O107 O 0.80741 0.68201 0.93611 0.0
O108 O 0.80714 0.80762 0.85024 0.0
O109 O 0.9148 0.74867 0.91245 0.0
Sc110 Sc 0.71687 0.73034 0.44623 0.0
Sc111 Sc 0.6198 0.72081 0.47055 0.0
Sc112 Sc 0.66362 0.63833 0.40298 0.0
O113 O 0.66684 0.69613 0.44018 0.0
C114 C 0.72267 0.69894 0.34782 0.0
C115 C 0.66103 0.81489 0.4436 0.0
C116 C 0.59218 0.69939 0.3744 0.0
C117 C 0.68182 0.73263 0.5427 0.0
C118 C 0.74079 0.62422 0.45438 0.0
C119 C 0.60193 0.61157 0.47347 0.0
O120 O 0.7322 0.7254 0.37888 0.0
O121 O 0.63469 0.79294 0.46255 0.0
O122 O 0.61574 0.66629 0.36907 0.0
O123 O 0.70754 0.74055 0.5147 0.0
O124 O 0.7118 0.60837 0.43475 0.0
O125 O 0.59583 0.65351 0.48421 0.0
O126 O 0.74724 0.66727 0.46056 0.0
O127 O 0.64828 0.71982 0.53275 0.0
O128 O 0.6275 0.60035 0.4466 0.0
O129 O 0.6915 0.79582 0.43115 0.0
O130 O 0.69858 0.66648 0.35229 0.0
O131 O 0.59003 0.72341 0.40917 0.0
Sc132 Sc 0.34015 0.64231 0.10764 0.0
Sc133 Sc 0.38171 0.7171 0.03157 0.0
Sc134 Sc 0.284 0.72519 0.05725 0.0
O135 O 0.33544 0.69509 0.06524 0.0
C136 C 0.26453 0.6171 0.0607 0.0
C137 C 0.40161 0.61031 0.03709 0.0
C138 C 0.31534 0.71711 0.96042 0.0
C139 C 0.41065 0.70546 0.12972 0.0
C140 C 0.27995 0.70734 0.15705 0.0
C141 C 0.33975 0.81215 0.0504 0.0
O142 O 0.29678 0.60431 0.07455 0.0
O143 O 0.40147 0.64812 0.01599 0.0
O144 O 0.28899 0.71867 0.98848 0.0
O145 O 0.38344 0.67921 0.14129 0.0
O146 O 0.27418 0.73477 0.1256 0.0
O147 O 0.36954 0.78919 0.04252 0.0
O148 O 0.29998 0.67087 0.15319 0.0
O149 O 0.41575 0.7189 0.09069 0.0
O150 O 0.30733 0.79396 0.05563 0.0
O151 O 0.38205 0.60471 0.0711 0.0
O152 O 0.25437 0.6594 0.05769 0.0
O153 O 0.35052 0.71763 0.9704 0.0
Sc154 Sc 0.2116 0.75482 0.55848 0.0
Sc155 Sc 0.11505 0.758 0.52863 0.0
Sc156 Sc 0.1501 0.83134 0.61158 0.0
O157 O 0.1589 0.78175 0.56595 0.0
C158 C 0.2103 0.76821 0.6611 0.0
C159 C 0.15995 0.66546 0.55063 0.0
C160 C 0.07886 0.76432 0.62273 0.0
C161 C 0.18177 0.7608 0.46004 0.0
C162 C 0.22917 0.86183 0.57021 0.0
C163 C 0.09396 0.86592 0.53735 0.0
O164 O 0.22442 0.7511 0.62681 0.0
O165 O 0.13193 0.68624 0.53382 0.0
O166 O 0.10153 0.79553 0.63607 0.0
O167 O 0.20676 0.75451 0.48908 0.0
O168 O 0.19917 0.87007 0.59176 0.0
O169 O 0.09122 0.82622 0.51941 0.0
O170 O 0.23717 0.82232 0.55412 0.0
O171 O 0.14675 0.76592 0.46889 0.0
O172 O 0.11545 0.87357 0.56961 0.0
O173 O 0.18989 0.68576 0.5633 0.0
O174 O 0.18258 0.79625 0.66041 0.0
O175 O 0.07965 0.74697 0.58484 0.0
H176 H 0.09708 0.27094 0.19795 0.0
H177 H 0.00536 0.20902 0.1259 0.0
H178 H 0.05421 0.28751 0.25791 0.0
H179 H 0.96262 0.22285 0.18649 0.0
H180 H 0.98773 0.2244 0.37385 0.0
H181 H 0.02795 0.23966 0.31127 0.0
H182 H 0.92843 0.26955 0.23444 0.0
H183 H 0.88855 0.25153 0.29648 0.0
C184 C 0.06736 0.262 0.19472 0.0
C185 C 0.0542 0.23891 0.15763 0.0
C186 C 0.04292 0.2709 0.22919 0.0
C187 C 0.00508 0.2557 0.22758 0.0
C188 C 0.99142 0.23559 0.18889 0.0
C189 C 0.0158 0.22753 0.15406 0.0
C190 C 0.97474 0.23528 0.34378 0.0
C191 C 0.93529 0.23622 0.33956 0.0
C192 C 0.99767 0.24428 0.30786 0.0
C193 C 0.98142 0.25518 0.2674 0.0
C194 C 0.9419 0.26002 0.26461 0.0
C195 C 0.91907 0.25007 0.30018 0.0
H196 H 0.40531 0.2 0.69628 0.0
H197 H 0.49646 0.2668 0.62732 0.0
H198 H 0.44783 0.18346 0.7565 0.0
H199 H 0.5387 0.25307 0.68821 0.0
H200 H 0.50951 0.25042 0.87442 0.0
H201 H 0.4712 0.23259 0.81078 0.0
H202 H 0.57337 0.20799 0.73668 0.0
H203 H 0.61119 0.22877 0.79978 0.0
C204 C 0.43486 0.20997 0.69375 0.0
C205 C 0.44792 0.23461 0.6576 0.0
C206 C 0.45908 0.20106 0.72834 0.0
C207 C 0.49648 0.21787 0.7278 0.0
C208 C 0.51022 0.23916 0.6898 0.0
C209 C 0.48612 0.24717 0.6548 0.0
C210 C 0.52347 0.24021 0.84467 0.0
C211 C 0.56296 0.24152 0.84142 0.0
C212 C 0.50169 0.22966 0.80819 0.0
C213 C 0.51921 0.21944 0.76823 0.0
C214 C 0.55892 0.21688 0.76647 0.0
C215 C 0.58057 0.22845 0.80259 0.0
H216 H 0.98899 0.75554 0.87374 0.0
H217 H 0.88759 0.74542 0.79645 0.0
H218 H 0.0275 0.74173 0.80927 0.0
H219 H 0.92545 0.7287 0.73251 0.0
H220 H 0.00448 0.78582 0.62578 0.0
H221 H 0.96252 0.77502 0.68747 0.0
H222 H 0.04945 0.69491 0.75211 0.0
H223 H 0.09186 0.70828 0.69085 0.0
C224 C 0.97506 0.74893 0.84311 0.0
C225 C 0.93564 0.75224 0.83959 0.0
C226 C 0.99697 0.74071 0.80616 0.0
C227 C 0.9796 0.73479 0.76538 0.0
C228 C 0.93985 0.73443 0.76299 0.0
C229 C 0.91815 0.7437 0.7996 0.0
C230 C 0.01395 0.76475 0.65271 0.0
C231 C 0.05095 0.74756 0.65387 0.0
C232 C 0.99001 0.75839 0.68813 0.0
C233 C 0.00268 0.73435 0.72514 0.0
C234 C 0.03902 0.71435 0.72463 0.0
C235 C 0.06311 0.7214 0.68945 0.0
H236 H 0.59836 0.66814 0.29147 0.0
H237 H 0.52989 0.75693 0.37314 0.0
H238 H 0.55618 0.68252 0.23123 0.0
H239 H 0.48766 0.7719 0.31196 0.0
H240 H 0.39657 0.71219 0.21567 0.0
H241 H 0.44214 0.72185 0.2737 0.0
H242 H 0.53153 0.74041 0.17979 0.0
H243 H 0.48557 0.72994 0.12112 0.0
C244 C 0.57441 0.69104 0.29658 0.0
C245 C 0.56713 0.71072 0.33748 0.0
C246 C 0.55052 0.69983 0.26171 0.0
C247 C 0.51864 0.72842 0.26678 0.0
C248 C 0.51195 0.74947 0.30721 0.0
C249 C 0.53608 0.74086 0.34222 0.0
C250 C 0.42587 0.71897 0.20728 0.0
C251 C 0.43769 0.71936 0.16384 0.0
C252 C 0.45193 0.72505 0.24063 0.0
C253 C 0.49047 0.73147 0.23134 0.0
C254 C 0.502 0.73495 0.18784 0.0
C255 C 0.47574 0.72918 0.1543 0.0
H256 H 0.07849 0.03263 0.09836 0.0
H257 H 0.05757 0.09696 0.97442 0.0
H258 H 0.03125 0.97339 0.08215 0.0
H259 H 0.01123 0.0368 0.95762 0.0
H260 H 0.90164 0.95556 0.95856 0.0
H261 H 0.94892 0.01374 0.9778 0.0
H262 H 0.01668 0.90735 0.03888 0.0
H263 H 0.96879 0.84945 0.02092 0.0
C264 C 0.06433 0.03372 0.0673 0.0
C265 C 0.07181 0.06979 0.03779 0.0
C266 C 0.03719 -0.00039 0.05797 0.0
C267 C 0.01701 0.00047 0.01874 0.0
C268 C 0.02549 0.03562 0.9886 0.0
C269 C 0.05241 0.06992 0.99806 0.0
C270 C 0.92642 0.94463 0.97652 0.0
C271 C 0.93136 0.89773 0.9881 0.0
C272 C 0.95378 0.97796 0.98718 0.0
C273 C 0.98699 0.96525 0.00939 0.0
C274 C 0.99139 0.91858 0.02209 0.0
C275 C 0.96386 0.88528 0.01173 0.0
H276 H 0.60598 0.51716 0.46046 0.0
H277 H 0.53759 0.62313 0.52184 0.0
H278 H 0.55896 0.45862 0.47971 0.0
H279 H 0.49021 0.56489 0.53991 0.0
H280 H 0.4489 0.37626 0.47508 0.0
H281 H 0.49606 0.43563 0.45885 0.0
H282 H 0.47678 0.49874 0.5839 0.0
H283 H 0.4289 0.44027 0.59969 0.0
C284 C 0.58107 0.52799 0.47828 0.0
C285 C 0.57565 0.575 0.48947 0.0
C286 C 0.55388 0.49445 0.48894 0.0
C287 C 0.52049 0.50704 0.51091 0.0
C288 C 0.51566 0.55378 0.5233 0.0
C289 C 0.54291 0.58728 0.51283 0.0
C290 C 0.45442 0.40303 0.49899 0.0
C291 C 0.43499 0.40334 0.53872 0.0
C292 C 0.4818 0.43685 0.48985 0.0
C293 C 0.49059 0.47176 0.52024 0.0
C294 C 0.47057 0.47267 0.55956 0.0
C295 C 0.44307 0.43899 0.56863 0.0
H296 H 0.42179 0.534 0.08401 0.0
H297 H 0.4428 0.6022 0.96186 0.0
H298 H 0.46989 0.47676 0.06731 0.0
H299 H 0.49013 0.54327 0.94415 0.0
H300 H 0.59945 0.45806 0.94461 0.0
H301 H 0.55216 0.51717 0.96203 0.0
H302 H 0.48321 0.41232 0.02413 0.0
H303 H 0.53087 0.35419 0.00854 0.0
C304 C 0.43616 0.53633 0.05313 0.0
C305 C 0.42824 0.57278 0.02424 0.0
C306 C 0.46383 0.50325 0.04346 0.0
C307 C 0.48407 0.50517 0.00432 0.0
C308 C 0.47563 0.54109 0.97495 0.0
C309 C 0.44817 0.57463 0.98488 0.0
C310 C 0.57438 0.44783 0.96243 0.0
C311 C 0.56918 0.40137 0.9754 0.0
C312 C 0.54703 0.48163 0.97203 0.0
C313 C 0.51367 0.46966 0.99442 0.0
C314 C 0.50874 0.42322 0.00757 0.0
C315 C 0.53619 0.38969 0.99849 0.0
H316 H 0.92415 0.04044 0.41219 0.0
H317 H 0.94337 0.10519 0.53657 0.0
H318 H 0.97161 0.98217 0.42851 0.0
H319 H 0.98988 0.04535 0.55387 0.0
H320 H 0.09772 0.95933 0.55599 0.0
H321 H 0.05174 0.01929 0.53735 0.0
H322 H 0.98424 0.91643 0.47002 0.0
H323 H 0.03085 0.85733 0.48691 0.0
C324 C 0.93802 0.04179 0.44343 0.0
C325 C 0.92982 0.07755 0.4731 0.0
C326 C 0.96529 0.00815 0.45287 0.0
C327 C 0.9848 0.00886 0.49254 0.0
C328 C 0.97604 0.04413 0.52263 0.0
C329 C 0.94905 0.07822 0.51292 0.0
C330 C 0.07329 0.9497 0.53673 0.0
C331 C 0.06814 0.9035 0.52281 0.0
C332 C 0.04665 0.984 0.52642 0.0
C333 C 0.01398 0.97284 0.50238 0.0
C334 C 0.00924 0.92671 0.48796 0.0
C335 C 0.03606 0.89263 0.49776 0.0
H336 H 0.32541 0.87352 0.98702 0.0
H337 H 0.35751 0.86263 0.12117 0.0
H338 H 0.3119 0.95622 0.99696 0.0
H339 H 0.34424 0.94562 0.13143 0.0
H340 H 0.23566 0.04126 0.13696 0.0
H341 H 0.27684 0.97427 0.12927 0.0
H342 H 0.33129 0.03834 0.01926 0.0
H343 H 0.28974 0.10609 0.02693 0.0
C344 C 0.33102 0.88957 0.01814 0.0
C345 C 0.34224 0.86252 0.05344 0.0
C346 C 0.32354 0.93676 0.02383 0.0
C347 C 0.32672 0.957 0.06507 0.0
C348 C 0.3414 0.9306 0.09941 0.0
C349 C 0.34904 0.88342 0.09361 0.0
C350 C 0.25666 0.04138 0.11139 0.0
C351 C 0.25909 0.07846 0.08208 0.0
C352 C 0.28067 0.00334 0.10743 0.0
C353 C 0.30737 0.0014 0.07383 0.0
C354 C 0.31094 0.03924 0.04549 0.0
C355 C 0.28715 0.07777 0.04981 0.0
H356 H 0.16009 0.59861 0.48873 0.0
H357 H 0.15742 0.62102 0.62667 0.0
H358 H 0.17727 0.51706 0.5004 0.0
H359 H 0.17314 0.53935 0.63866 0.0
H360 H 0.27939 0.44547 0.62871 0.0
H361 H 0.23803 0.51218 0.6225 0.0
H362 H 0.16706 0.43696 0.5323 0.0
H363 H 0.20904 0.36949 0.53819 0.0
C364 C 0.16145 0.5853 0.52146 0.0
C365 C 0.15805 0.61539 0.5569 0.0
C366 C 0.17111 0.53879 0.5282 0.0
C367 C 0.17723 0.52239 0.57044 0.0
C368 C 0.16923 0.5515 0.60581 0.0
C369 C 0.16016 0.59796 0.59904 0.0
C370 C 0.25489 0.44288 0.60773 0.0
C371 C 0.24767 0.40243 0.58363 0.0
C372 C 0.23084 0.48089 0.60466 0.0
C373 C 0.19908 0.47941 0.57732 0.0
C374 C 0.1913 0.43874 0.55374 0.0
C375 C 0.21531 0.40033 0.5571 0.0
H376 H 0.7856 0.37918 0.87552 0.0
H377 H 0.74976 0.40793 0.00621 0.0
H378 H 0.82726 0.44735 0.87728 0.0
H379 H 0.79099 0.47659 0.00808 0.0
H380 H 0.86831 0.59825 1.00178 0.0
H381 H 0.85732 0.5139 1.00033 0.0
H382 H 0.79884 0.52809 0.87825 0.0
H383 H 0.80928 0.61168 0.88011 0.0
C384 C 0.78758 0.39962 0.90496 0.0
C385 C 0.76458 0.38941 0.94057 0.0
C386 C 0.81138 0.43825 0.90604 0.0
C387 C 0.81207 0.46717 0.94268 0.0
C388 C 0.7913 0.45447 0.97966 0.0
C389 C 0.7675 0.4157 0.97854 0.0
C390 C 0.85418 0.58287 0.9741 0.0
C391 C 0.8391 0.61102 0.94131 0.0
C392 C 0.84788 0.53488 0.97333 0.0
C393 C 0.82722 0.51475 0.93927 0.0
C394 C 0.81523 0.54265 0.90466 0.0
C395 C 0.82085 0.59048 0.90586 0.0
H396 H 0.69595 0.11254 0.40031 0.0
H397 H 0.77397 0.04759 0.48902 0.0
H398 H 0.65515 0.04309 0.40303 0.0
H399 H 0.73248 0.9794 0.4933 0.0
H400 H 0.63721 0.87449 0.5059 0.0
H401 H 0.65024 0.9583 0.50854 0.0
H402 H 0.69289 0.95278 0.37786 0.0
H403 H 0.6814 0.86883 0.37574 0.0
C404 C 0.70349 0.08407 0.42155 0.0
C405 C 0.73785 0.0847 0.44436 0.0
C406 C 0.68024 0.04474 0.42317 0.0
C407 C 0.69072 0.00668 0.44876 0.0
C408 C 0.72372 0.00892 0.47397 0.0
C409 C 0.74746 0.0475 0.47132 0.0
C410 C 0.648 0.89162 0.47723 0.0
C411 C 0.65871 0.86562 0.44073 0.0
C412 C 0.65532 0.93933 0.47878 0.0
C413 C 0.67224 0.96142 0.44332 0.0
C414 C 0.6793 0.93624 0.40527 0.0
C415 C 0.67301 0.88841 0.40416 0.0
H416 H 0.64587 0.10818 0.02649 0.0
H417 H 0.67173 0.1011 0.89017 0.0
H418 H 0.65976 0.0248 0.03342 0.0
H419 H 0.68385 0.01763 0.89673 0.0
H420 H 0.78102 0.93554 0.99606 0.0
H421 H 0.73902 0.00252 0.00502 0.0
H422 H 0.65096 0.93028 0.93496 0.0
H423 H 0.69251 0.86211 0.92771 0.0
C424 C 0.65279 0.08823 0.99778 0.0
C425 C 0.65816 0.11046 0.95789 0.0
C426 C 0.66053 0.04082 1.00174 0.0
C427 C 0.67244 0.01535 0.96551 0.0
C428 C 0.67408 0.03676 0.92485 0.0
C429 C 0.66749 0.0843 0.92115 0.0
C430 C 0.75223 0.9335 0.984 0.0
C431 C 0.73976 0.89431 0.96109 0.0
C432 C 0.7282 0.97139 0.98944 0.0
C433 C 0.69192 0.97088 0.97095 0.0
C434 C 0.67868 0.93074 0.95001 0.0
C435 C 0.70237 0.89216 0.94574 0.0
H436 H 0.80979 0.61395 0.41838 0.0
H437 H 0.73504 0.55769 0.51552 0.0
H438 H 0.84924 0.54385 0.42276 0.0
H439 H 0.7752 0.48859 0.52122 0.0
H440 H 0.86171 0.37143 0.52296 0.0
H441 H 0.85176 0.45574 0.5305 0.0
H442 H 0.80944 0.46095 0.39962 0.0
H443 H 0.81776 0.3768 0.3928 0.0
C444 C 0.80304 0.58759 0.4422 0.0
C445 C 0.76971 0.59062 0.46669 0.0
C446 C 0.82552 0.54777 0.4447 0.0
C447 C 0.81517 0.51136 0.47246 0.0
C448 C 0.78394 0.5167 0.50013 0.0
C449 C 0.76095 0.55592 0.49679 0.0
C450 C 0.85137 0.39106 0.49552 0.0
C451 C 0.84019 0.36821 0.45741 0.0
C452 C 0.84582 0.43898 0.49981 0.0
C453 C 0.83027 0.4644 0.46548 0.0
C454 C 0.82208 0.44196 0.4262 0.0
C455 C 0.82651 0.39401 0.4224 0.0
H456 H 0.14943 0.36522 0.97742 0.0
H457 H 0.17243 0.36951 0.11445 0.0
H458 H 0.16148 0.44936 0.97282 0.0
H459 H 0.18285 0.45349 0.11026 0.0
H460 H 0.27674 0.54487 0.00683 0.0
H461 H 0.23588 0.47699 0.99666 0.0
H462 H 0.15172 0.53874 0.0802 0.0
H463 H 0.19214 0.6079 0.08892 0.0
C464 C 0.15549 0.38464 0.0067 0.0
C465 C 0.16046 0.36157 0.0462 0.0
C466 C 0.16216 0.43246 0.0041 0.0
C467 C 0.17271 0.45744 0.04125 0.0
C468 C 0.17412 0.43487 0.0814 0.0
C469 C 0.16855 0.38701 0.08375 0.0
C470 C 0.24896 0.54446 0.02178 0.0
C471 C 0.23742 0.58088 0.04887 0.0
C472 C 0.22551 0.50608 0.01563 0.0
C473 C 0.19076 0.5032 0.03747 0.0
C474 C 0.17824 0.54082 0.06267 0.0
C475 C 0.2013 0.57997 0.06778 0.0
H476 H 0.24287 0.93172 0.62669 0.0
H477 H 0.27724 0.87692 0.50244 0.0
H478 H 0.28446 -0.00163 0.61656 0.0
H479 H 0.31863 0.94473 0.49194 0.0
H480 H 0.30555 0.11495 0.48133 0.0
H481 H 0.29221 0.03155 0.48491 0.0
H482 H 0.35599 0.02258 0.60386 0.0
H483 H 0.36999 0.10616 0.59956 0.0
C484 C 0.25965 0.93382 0.59739 0.0
C485 C 0.25651 0.89982 0.56499 0.0
C486 C 0.28386 0.97149 0.59193 0.0
C487 C 0.30484 0.97618 0.55366 0.0
C488 C 0.30286 0.94137 0.52184 0.0
C489 C 0.27914 0.90297 0.52774 0.0
C490 C 0.31786 0.09457 0.50721 0.0
C491 C 0.33846 0.11616 0.54032 0.0
C492 C 0.31056 0.04702 0.50911 0.0
C493 C 0.32308 0.02106 0.54471 0.0
C494 C 0.34629 0.04213 0.57606 0.0
C495 C 0.35418 0.08961 0.57369 0.0
H496 H 0.14521 0.21596 0.89144 0.0
H497 H 0.25866 0.19024 0.93799 0.0
H498 H 0.1696 0.22153 0.81745 0.0
H499 H 0.28267 0.19478 0.86449 0.0
H500 H 0.31784 0.27836 0.74619 0.0
H501 H 0.29162 0.25934 0.8162 0.0
H502 H 0.20096 0.18284 0.75468 0.0
H503 H 0.22718 0.20277 0.68346 0.0
C504 C 0.17518 0.21058 0.88586 0.0
C505 C 0.20003 0.20342 0.92085 0.0
C506 C 0.18915 0.21363 0.8434 0.0
C507 C 0.22822 0.2094 0.83504 0.0
C508 C 0.25256 0.19937 0.86979 0.0
C509 C 0.23872 0.1966 0.91203 0.0
C510 C 0.29239 0.25728 0.74724 0.0
C511 C 0.27462 0.24226 0.70891 0.0
C512 C 0.27747 0.246 0.78766 0.0
C513 C 0.24425 0.21927 0.79127 0.0
C514 C 0.2265 0.2037 0.75306 0.0
C515 C 0.24166 0.21485 0.71227 0.0
H516 H 0.27709 0.27017 0.18399 0.0
H517 H 0.18228 0.2043 0.2479 0.0
H518 H 0.30369 0.29118 0.25467 0.0
H519 H 0.20889 0.2246 0.31769 0.0
H520 H 0.24562 0.29668 0.43722 0.0
H521 H 0.22151 0.29137 0.36377 0.0
H522 H 0.33243 0.25113 0.31833 0.0
H523 H 0.35697 0.25714 0.39215 0.0
C524 C 0.26178 0.26048 0.21297 0.0
C525 C 0.22756 0.23541 0.21015 0.0
C526 C 0.27715 0.27227 0.25344 0.0
C527 C 0.25838 0.25973 0.29186 0.0
C528 C 0.22386 0.23549 0.28884 0.0
C529 C 0.20871 0.22349 0.24865 0.0
C530 C 0.26512 0.28726 0.41159 0.0
C531 C 0.30317 0.27667 0.42083 0.0
C532 C 0.25119 0.28406 0.36943 0.0
C533 C 0.27485 0.27 0.33525 0.0
C534 C 0.31347 0.26217 0.34389 0.0
C535 C 0.32751 0.26551 0.38626 0.0
H536 H 0.72465 0.27709 0.32375 0.0
H537 H 0.80091 0.1769 0.26609 0.0
H538 H 0.69866 0.29422 0.25183 0.0
H539 H 0.775 0.19378 0.19534 0.0
H540 H 0.75427 0.26771 0.07176 0.0
H541 H 0.77647 0.26185 0.14574 0.0
H542 H 0.66101 0.25237 0.19092 0.0
H543 H 0.63831 0.25862 0.11609 0.0
C544 C 0.73589 0.25881 0.2959 0.0
C545 C 0.76496 0.22571 0.30075 0.0
C546 C 0.72086 0.26845 0.25485 0.0
C547 C 0.73504 0.24562 0.218 0.0
C548 C 0.76389 0.21249 0.22303 0.0
C549 C 0.77859 0.20262 0.26376 0.0
C550 C 0.73341 0.26471 0.09731 0.0
C551 C 0.69446 0.26276 0.08783 0.0
C552 C 0.74622 0.26133 0.13976 0.0
C553 C 0.72052 0.25583 0.17399 0.0
C554 C 0.68144 0.25659 0.16508 0.0
C555 C 0.66849 0.26003 0.12228 0.0
H556 H 0.85805 0.2293 0.61522 0.0
H557 H 0.7441 0.19986 0.57163 0.0
H558 H 0.83481 0.23511 0.6898 0.0
H559 H 0.72135 0.20517 0.64548 0.0
H560 H 0.68791 0.28976 0.76409 0.0
H561 H 0.71423 0.27303 0.69337 0.0
H562 H 0.8033 0.1921 0.75226 0.0
H563 H 0.777 0.20933 0.82398 0.0
C564 C 0.82826 0.2233 0.62155 0.0
C565 C 0.80286 0.21496 0.58731 0.0
C566 C 0.81499 0.2265 0.66425 0.0
C567 C 0.77614 0.22138 0.67335 0.0
C568 C 0.75129 0.21034 0.6394 0.0
C569 C 0.76443 0.20722 0.597 0.0
C570 C 0.71307 0.2683 0.76224 0.0
C571 C 0.73031 0.25091 0.79986 0.0
C572 C 0.72803 0.25844 0.72154 0.0
C573 C 0.76071 0.23096 0.71719 0.0
C574 C 0.77816 0.21351 0.75467 0.0
C575 C 0.76295 0.22315 0.79565 0.0
H576 H 0.86262 0.75043 0.11678 0.0
H577 H 0.74607 0.74072 0.07437 0.0
H578 H 0.84181 0.73873 0.19173 0.0
H579 H 0.72579 0.72948 0.14835 0.0
H580 H 0.70665 0.65219 0.27297 0.0
H581 H 0.73215 0.66587 0.20118 0.0
H582 H 0.80251 0.7765 0.25138 0.0
H583 H 0.77721 0.76259 0.32395 0.0
C584 C 0.83268 0.74617 0.12333 0.0
C585 C 0.80615 0.74606 0.08931 0.0
C586 C 0.82078 0.7396 0.16624 0.0
C587 C 0.78222 0.73251 0.17581 0.0
C588 C 0.75577 0.73383 0.14196 0.0
C589 C 0.76751 0.74053 0.09943 0.0
C590 C 0.72765 0.67936 0.26899 0.0
C591 C 0.7396 0.70649 0.30437 0.0
C592 C 0.74217 0.68732 0.22769 0.0
C593 C 0.76908 0.72257 0.22054 0.0
C594 C 0.78192 0.74896 0.25595 0.0
C595 C 0.76723 0.74113 0.29745 0.0
H596 H 0.81647 0.79037 0.76862 0.0
H597 H 0.71214 0.74146 0.82553 0.0
H598 H 0.7904 0.77845 0.6969 0.0
H599 H 0.68481 0.73191 0.75335 0.0
H600 H 0.6602 0.68155 0.61367 0.0
H601 H 0.68369 0.69 0.68788 0.0
H602 H 0.74836 0.81084 0.64881 0.0
H603 H 0.72676 0.80039 0.575 0.0
C604 C 0.78769 0.77757 0.76572 0.0
C605 C 0.76625 0.76724 0.80271 0.0
C606 C 0.77251 0.77103 0.72448 0.0
C607 C 0.73506 0.75502 0.71894 0.0
C608 C 0.71378 0.74396 0.7561 0.0
C609 C 0.72935 0.74963 0.79754 0.0
C610 C 0.67929 0.70996 0.6213 0.0
C611 C 0.69207 0.73994 0.58859 0.0
C612 C 0.69271 0.71498 0.66382 0.0
C613 C 0.71862 0.75064 0.67451 0.0
C614 C 0.72963 0.78192 0.64185 0.0
C615 C 0.71694 0.77625 0.59946 0.0
H616 H 0.2773 0.72245 0.67773 0.0
H617 H 0.18172 0.78718 0.74123 0.0
H618 H 0.30522 0.70519 0.74848 0.0
H619 H 0.20966 0.77036 0.81118 0.0
H620 H 0.24616 0.69331 0.92871 0.0
H621 H 0.22278 0.70128 0.8554 0.0
H622 H 0.33316 0.74774 0.81345 0.0
H623 H 0.35708 0.73937 0.88762 0.0
C624 C 0.26216 0.73283 0.70665 0.0
C625 C 0.22716 0.75612 0.70369 0.0
C626 C 0.27832 0.72322 0.74713 0.0
C627 C 0.25958 0.73619 0.78542 0.0
C628 C 0.22459 0.75927 0.78233 0.0
C629 C 0.20864 0.76915 0.74211 0.0
C630 C 0.26571 0.70495 0.90397 0.0
C631 C 0.30342 0.71646 0.91431 0.0
C632 C 0.25218 0.70962 0.86187 0.0
C633 C 0.27588 0.72599 0.82877 0.0
C634 C 0.31421 0.73505 0.83833 0.0
C635 C 0.32789 0.73032 0.88078 0.0
H636 H 0.13853 0.76241 0.38543 0.0
H637 H 0.25447 0.75703 0.43039 0.0
H638 H 0.16088 0.7528 0.31077 0.0
H639 H 0.2763 0.74767 0.35657 0.0
H640 H 0.2958 0.66461 0.23355 0.0
H641 H 0.27044 0.68165 0.30474 0.0
H642 H 0.20154 0.79122 0.25103 0.0
H643 H 0.22699 0.77406 0.17884 0.0
C644 C 0.16868 0.75974 0.37949 0.0
C645 C 0.19458 0.75987 0.41415 0.0
C646 C 0.18146 0.75438 0.33672 0.0
C647 C 0.22031 0.74879 0.32791 0.0
C648 C 0.24614 0.75096 0.36237 0.0
C649 C 0.23351 0.75648 0.40479 0.0
C650 C 0.27519 0.69233 0.23659 0.0
C651 C 0.26358 0.71804 0.20028 0.0
C652 C 0.2608 0.70226 0.27759 0.0
C653 C 0.23422 0.73803 0.28358 0.0
C654 C 0.22192 0.76335 0.24734 0.0
C655 C 0.23666 0.75366 0.20609 0.0
loop_
_geom_bond_atom_site_label_1
_geom_bond_atom_site_label_2
_geom_bond_distance
_geom_bond_site_symmetry_2
_ccdc_geom_bond_type
Sc0 O3 2.025 . S
Sc0 O10 2.105 . S
Sc0 O13 2.105 . S
Sc0 O16 2.105 . S
Sc0 O19 2.105 . S
Sc1 O3 2.025 . S
Sc1 O11 2.105 . S
Sc1 O15 2.105 . S
Sc1 O17 2.105 . S
Sc1 O21 2.105 . S
Sc2 O3 2.025 . S
Sc2 O12 2.105 . S
Sc2 O14 2.105 . S
Sc2 O18 2.105 . S
Sc2 O20 2.105 . S
O3 Sc0 2.025 . S
O3 Sc1 2.025 . S
O3 Sc2 2.025 . S
C4 O10 1.268 . S
C4 O20 1.268 . S
C5 O11 1.271 . S
C5 O19 1.281 . S
C6 O12 1.268 . S
C6 O21 1.268 . S
C7 O13 1.268 . S
C7 O17 1.268 . S
C8 O14 1.268 . S
C8 O16 1.268 . S
C9 O15 1.268 . S
C9 O18 1.268 . S
O10 Sc0 2.105 . S
O10 C4 1.268 . S
O11 Sc1 2.105 . S
O11 C5 1.271 . S
O12 Sc2 2.105 . S
O12 C6 1.268 . S
O13 Sc0 2.105 . S
O13 C7 1.268 . S
O14 Sc2 2.105 . S
O14 C8 1.268 . S
O15 Sc1 2.105 . S
O15 C9 1.268 . S
O16 Sc0 2.105 . S
O16 C8 1.268 . S
O17 Sc1 2.105 . S
O17 C7 1.268 . S
O18 Sc2 2.105 . S
O18 C9 1.268 . S
O19 Sc0 2.105 . S
O19 C5 1.281 . S
O20 Sc2 2.105 . S
O20 C4 1.268 . S
O21 Sc1 2.105 . S
O21 C6 1.268 . S
Sc22 O25 2.025 . S
Sc22 O32 2.105 . S
Sc22 O35 2.105 . S
Sc22 O38 2.105 . S
Sc22 O41 2.105 . S
Sc23 O25 2.025 . S
Sc23 O33 2.105 . S
Sc23 O37 2.105 . S
Sc23 O39 2.105 . S
Sc23 O43 2.105 . S
Sc24 O25 2.025 . S
Sc24 O34 2.105 . S
Sc24 O36 2.105 . S
Sc24 O40 2.105 . S
Sc24 O42 2.105 . S
O25 Sc22 2.025 . S
O25 Sc23 2.025 . S
O25 Sc24 2.025 . S
C26 O32 1.268 . S
C26 O42 1.268 . S
C27 O33 1.268 . S
C27 O41 1.268 . S
C28 O34 1.268 . S
C28 O43 1.268 . S
C29 O35 1.268 . S
C29 O39 1.268 . S
C30 O36 1.268 . S
C30 O38 1.268 . S
C31 O37 1.268 . S
C31 O40 1.268 . S
O32 Sc22 2.105 . S
O32 C26 1.268 . S
O33 Sc23 2.105 . S
O33 C27 1.268 . S
O34 Sc24 2.105 . S
O34 C28 1.268 . S
O35 Sc22 2.105 . S
O35 C29 1.268 . S
O36 Sc24 2.105 . S
O36 C30 1.268 . S
O37 Sc23 2.105 . S
O37 C31 1.268 . S
O38 Sc22 2.105 . S
O38 C30 1.268 . S
O39 Sc23 2.105 . S
O39 C29 1.268 . S
O40 Sc24 2.105 . S
O40 C31 1.268 . S
O41 Sc22 2.105 . S
O41 C27 1.268 . S
O42 Sc24 2.105 . S
O42 C26 1.268 . S
O43 Sc23 2.105 . S
O43 C28 1.268 . S
Sc44 O47 2.025 . S
Sc44 O54 2.105 . S
Sc44 O57 2.105 . S
Sc44 O60 2.105 . S
Sc44 O63 2.105 . S
Sc45 O47 2.025 . S
Sc45 O55 2.105 . S
Sc45 O59 2.105 . S
Sc45 O61 2.105 . S
Sc45 O65 2.105 . S
Sc46 O47 2.025 . S
Sc46 O56 2.105 . S
Sc46 O58 2.105 . S
Sc46 O62 2.105 . S
Sc46 O64 2.105 . S
O47 Sc44 2.025 . S
O47 Sc45 2.025 . S
O47 Sc46 2.025 . S
C48 O54 1.268 . S
C48 O64 1.268 . S
C49 O55 1.268 . S
C49 O63 1.268 . S
C50 O56 1.268 . S
C50 O65 1.268 . S
C51 O57 1.268 . S
C51 O61 1.268 . S
C52 O58 1.268 . S
C52 O60 1.268 . S
C53 O59 1.271 . S
C53 O62 1.281 . S
O54 Sc44 2.105 . S
O54 C48 1.268 . S
O55 Sc45 2.105 . S
O55 C49 1.268 . S
O56 Sc46 2.105 . S
O56 C50 1.268 . S
O57 Sc44 2.105 . S
O57 C51 1.268 . S
O58 Sc46 2.105 . S
O58 C52 1.268 . S
O59 Sc45 2.105 . S
O59 C53 1.271 . S
O60 Sc44 2.105 . S
O60 C52 1.268 . S
O61 Sc45 2.105 . S
O61 C51 1.268 . S
O62 Sc46 2.105 . S
O62 C53 1.281 . S
O63 Sc44 2.105 . S
O63 C49 1.268 . S
O64 Sc46 2.105 . S
O64 C48 1.268 . S
O65 Sc45 2.105 . S
O65 C50 1.268 . S
Sc66 O69 2.025 . S
Sc66 O76 2.105 . S
Sc66 O79 2.105 . S
Sc66 O82 2.105 . S
Sc66 O85 2.105 . S
Sc67 O69 2.025 . S
Sc67 O77 2.105 . S
Sc67 O81 2.105 . S
Sc67 O83 2.105 . S
Sc67 O87 2.105 . S
Sc68 O69 2.025 . S
Sc68 O78 2.105 . S
Sc68 O80 2.105 . S
Sc68 O84 2.105 . S
Sc68 O86 2.105 . S
O69 Sc66 2.025 . S
O69 Sc67 2.025 . S
O69 Sc68 2.025 . S
C70 O76 1.268 . S
C70 O86 1.268 . S
C71 O77 1.268 . S
C71 O85 1.268 . S
C72 O78 1.268 . S
C72 O87 1.268 . S
C73 O79 1.268 . S
C73 O83 1.268 . S
C74 O80 1.268 . S
C74 O82 1.268 . S
C75 O81 1.268 . S
C75 O84 1.268 . S
O76 Sc66 2.105 . S
O76 C70 1.268 . S
O77 Sc67 2.105 . S
O77 C71 1.268 . S
O78 Sc68 2.105 . S
O78 C72 1.268 . S
O79 Sc66 2.105 . S
O79 C73 1.268 . S
O80 Sc68 2.105 . S
O80 C74 1.268 . S
O81 Sc67 2.105 . S
O81 C75 1.268 . S
O82 Sc66 2.105 . S
O82 C74 1.268 . S
O83 Sc67 2.105 . S
O83 C73 1.268 . S
O84 Sc68 2.105 . S
O84 C75 1.268 . S
O85 Sc66 2.105 . S
O85 C71 1.268 . S
O86 Sc68 2.105 . S
O86 C70 1.268 . S
O87 Sc67 2.105 . S
O87 C72 1.268 . S
Sc88 O91 2.025 . S
Sc88 O98 2.105 . S
Sc88 O101 2.105 . S
Sc88 O104 2.105 . S
Sc88 O107 2.105 . S
Sc89 O91 2.025 . S
Sc89 O99 2.105 . S
Sc89 O103 2.105 . S
Sc89 O105 2.105 . S
Sc89 O109 2.105 . S
Sc90 O91 2.025 . S
Sc90 O100 2.105 . S
Sc90 O102 2.105 . S
Sc90 O106 2.105 . S
Sc90 O108 2.105 . S
O91 Sc88 2.025 . S
O91 Sc89 2.025 . S
O91 Sc90 2.025 . S
C92 O98 1.268 . S
C92 O108 1.268 . S
C93 O99 1.268 . S
C93 O107 1.268 . S
C94 O100 1.268 . S
C94 O109 1.268 . S
C95 O101 1.281 . S
C95 O105 1.271 . S
C96 O102 1.268 . S
C96 O104 1.268 . S
C97 O103 1.268 . S
C97 O106 1.268 . S
O98 Sc88 2.105 . S
O98 C92 1.268 . S
O99 Sc89 2.105 . S
O99 C93 1.268 . S
O100 Sc90 2.105 . S
O100 C94 1.268 . S
O101 Sc88 2.105 . S
O101 C95 1.281 . S
O102 Sc90 2.105 . S
O102 C96 1.268 . S
O103 Sc89 2.105 . S
O103 C97 1.268 . S
O104 Sc88 2.105 . S
O104 C96 1.268 . S
O105 Sc89 2.105 . S
O105 C95 1.271 . S
O106 Sc90 2.105 . S
O106 C97 1.268 . S
O107 Sc88 2.105 . S
O107 C93 1.268 . S
O108 Sc90 2.105 . S
O108 C92 1.268 . S
O109 Sc89 2.105 . S
O109 C94 1.268 . S
Sc110 O113 2.025 . S
Sc110 O120 2.105 . S
Sc110 O123 2.105 . S
Sc110 O126 2.105 . S
Sc110 O129 2.105 . S
Sc111 O113 2.025 . S
Sc111 O121 2.105 . S
Sc111 O125 2.105 . S
Sc111 O127 2.105 . S
Sc111 O131 2.105 . S
Sc112 O113 2.025 . S
Sc112 O122 2.105 . S
Sc112 O124 2.105 . S
Sc112 O128 2.105 . S
Sc112 O130 2.105 . S
O113 Sc110 2.025 . S
O113 Sc111 2.025 . S
O113 Sc112 2.025 . S
C114 O120 1.268 . S
C114 O130 1.268 . S
C115 O121 1.268 . S
C115 O129 1.268 . S
C116 O122 1.268 . S
C116 O131 1.268 . S
C117 O123 1.268 . S
C117 O127 1.268 . S
C118 O124 1.268 . S
C118 O126 1.268 . S
C119 O125 1.268 . S
C119 O128 1.268 . S
O120 Sc110 2.105 . S
O120 C114 1.268 . S
O121 Sc111 2.105 . S
O121 C115 1.268 . S
O122 Sc112 2.105 . S
O122 C116 1.268 . S
O123 Sc110 2.105 . S
O123 C117 1.268 . S
O124 Sc112 2.105 . S
O124 C118 1.268 . S
O125 Sc111 2.105 . S
O125 C119 1.268 . S
O126 Sc110 2.105 . S
O126 C118 1.268 . S
O127 Sc111 2.105 . S
O127 C117 1.268 . S
O128 Sc112 2.105 . S
O128 C119 1.268 . S
O129 Sc110 2.105 . S
O129 C115 1.268 . S
O130 Sc112 2.105 . S
O130 C114 1.268 . S
O131 Sc111 2.105 . S
O131 C116 1.268 . S
Sc132 O135 2.025 . S
Sc132 O142 2.105 . S
Sc132 O145 2.105 . S
Sc132 O148 2.105 . S
Sc132 O151 2.105 . S
Sc133 O135 2.025 . S
Sc133 O143 2.105 . S
Sc133 O147 2.105 . S
Sc133 O149 2.105 . S
Sc133 O153 2.105 . S
Sc134 O135 2.025 . S
Sc134 O144 2.105 . S
Sc134 O146 2.105 . S
Sc134 O150 2.105 . S
Sc134 O152 2.105 . S
O135 Sc132 2.025 . S
O135 Sc133 2.025 . S
O135 Sc134 2.025 . S
C136 O142 1.268 . S
C136 O152 1.268 . S
C137 O143 1.268 . S
C137 O151 1.268 . S
C138 O144 1.281 . S
C138 O153 1.271 . S
C139 O145 1.268 . S
C139 O149 1.268 . S
C140 O146 1.268 . S
C140 O148 1.268 . S
C141 O147 1.268 . S
C141 O150 1.268 . S
O142 Sc132 2.105 . S
O142 C136 1.268 . S
O143 Sc133 2.105 . S
O143 C137 1.268 . S
O144 Sc134 2.105 . S
O144 C138 1.281 . S
O145 Sc132 2.105 . S
O145 C139 1.268 . S
O146 Sc134 2.105 . S
O146 C140 1.268 . S
O147 Sc133 2.105 . S
O147 C141 1.268 . S
O148 Sc132 2.105 . S
O148 C140 1.268 . S
O149 Sc133 2.105 . S
O149 C139 1.268 . S
O150 Sc134 2.105 . S
O150 C141 1.268 . S
O151 Sc132 2.105 . S
O151 C137 1.268 . S
O152 Sc134 2.105 . S
O152 C136 1.268 . S
O153 Sc133 2.105 . S
O153 C138 1.271 . S
Sc154 O157 2.025 . S
Sc154 O164 2.105 . S
Sc154 O167 2.105 . S
Sc154 O170 2.105 . S
Sc154 O173 2.105 . S
Sc155 O157 2.025 . S
Sc155 O165 2.105 . S
Sc155 O169 2.105 . S
Sc155 O171 2.105 . S
Sc155 O175 2.105 . S
Sc156 O157 2.025 . S
Sc156 O166 2.105 . S
Sc156 O168 2.105 . S
Sc156 O172 2.105 . S
Sc156 O174 2.105 . S
O157 Sc154 2.025 . S
O157 Sc155 2.025 . S
O157 Sc156 2.025 . S
C158 O164 1.268 . S
C158 O174 1.268 . S
C159 O165 1.268 . S
C159 O173 1.268 . S
C160 O166 1.268 . S
C160 O175 1.268 . S
C161 O167 1.268 . S
C161 O171 1.268 . S
C162 O168 1.268 . S
C162 O170 1.268 . S
C163 O169 1.268 . S
C163 O172 1.268 . S
O164 Sc154 2.105 . S
O164 C158 1.268 . S
O165 Sc155 2.105 . S
O165 C159 1.268 . S
O166 Sc156 2.105 . S
O166 C160 1.268 . S
O167 Sc154 2.105 . S
O167 C161 1.268 . S
O168 Sc156 2.105 . S
O168 C162 1.268 . S
O169 Sc155 2.105 . S
O169 C163 1.268 . S
O170 Sc154 2.105 . S
O170 C162 1.268 . S
O171 Sc155 2.105 . S
O171 C161 1.268 . S
O172 Sc156 2.105 . S
O172 C163 1.268 . S
O173 Sc154 2.105 . S
O173 C159 1.268 . S
O174 Sc156 2.105 . S
O174 C158 1.268 . S
O175 Sc155 2.105 . S
O175 C160 1.268 . S
H176 C184 0.950 . S
H177 C189 0.950 . S
H178 C186 0.950 . S
H179 C188 0.950 . S
H180 C190 0.950 . S
H181 C192 0.950 . S
H182 C194 0.950 . S
H183 C195 0.950 . S
C184 H176 0.950 . S
C184 C185 1.386 . S
C184 C186 1.391 . S
C185 C184 1.386 . S
C185 C189 1.393 . S
C186 H178 0.950 . S
C186 C184 1.391 . S
C186 C187 1.400 . S
C187 C186 1.400 . S
C187 C188 1.398 . S
C187 C193 1.491 1_455 S
C188 H179 0.950 . S
C188 C187 1.398 . S
C188 C189 1.391 . S
C189 H177 0.950 . S
C189 C185 1.393 . S
C189 C188 1.391 . S
C190 H180 0.950 . S
C190 C191 1.386 . S
C190 C192 1.391 . S
C191 C190 1.386 . S
C191 C195 1.393 . S
C192 H181 0.950 . S
C192 C190 1.391 . S
C192 C193 1.400 . S
C193 C187 1.491 1_655 S
C193 C192 1.400 . S
C193 C194 1.398 . S
C194 H182 0.950 . S
C194 C193 1.398 . S
C194 C195 1.391 . S
C195 H183 0.950 . S
C195 C191 1.393 . S
C195 C194 1.391 . S
H196 C204 0.950 . S
H197 C209 0.950 . S
H198 C206 0.950 . S
H199 C208 0.950 . S
H200 C210 0.950 . S
H201 C212 0.950 . S
H202 C214 0.950 . S
H203 C215 0.950 . S
C204 H196 0.950 . S
C204 C205 1.386 . S
C204 C206 1.391 . S
C205 C204 1.386 . S
C205 C209 1.393 . S
C206 H198 0.950 . S
C206 C204 1.391 . S
C206 C207 1.400 . S
C207 C206 1.400 . S
C207 C208 1.398 . S
C207 C213 1.491 . S
C208 H199 0.950 . S
C208 C207 1.398 . S
C208 C209 1.391 . S
C209 H197 0.950 . S
C209 C205 1.393 . S
C209 C208 1.391 . S
C210 H200 0.950 . S
C210 C211 1.386 . S
C210 C212 1.391 . S
C211 C210 1.386 . S
C211 C215 1.393 . S
C212 H201 0.950 . S
C212 C210 1.391 . S
C212 C213 1.400 . S
C213 C207 1.491 . S
C213 C212 1.400 . S
C213 C214 1.398 . S
C214 H202 0.950 . S
C214 C213 1.398 . S
C214 C215 1.391 . S
C215 H203 0.950 . S
C215 C211 1.393 . S
C215 C214 1.391 . S
H216 C224 0.950 . S
H217 C229 0.950 . S
H218 C226 0.950 1_455 S
H219 C228 0.950 . S
H220 C230 0.950 . S
H221 C232 0.950 1_655 S
H222 C234 0.950 . S
H223 C235 0.950 . S
C224 H216 0.950 . S
C224 C225 1.386 . S
C224 C226 1.391 . S
C225 C224 1.386 . S
C225 C229 1.393 . S
C226 H218 0.950 1_655 S
C226 C224 1.391 . S
C226 C227 1.400 . S
C227 C226 1.400 . S
C227 C228 1.398 . S
C227 C233 1.491 1_655 S
C228 H219 0.950 . S
C228 C227 1.398 . S
C228 C229 1.391 . S
C229 H217 0.950 . S
C229 C225 1.393 . S
C229 C228 1.391 . S
C230 H220 0.950 . S
C230 C231 1.386 . S
C230 C232 1.391 . S
C231 C230 1.386 . S
C231 C235 1.393 . S
C232 H221 0.950 1_455 S
C232 C230 1.391 . S
C232 C233 1.400 . S
C233 C227 1.491 1_455 S
C233 C232 1.400 . S
C233 C234 1.398 . S
C234 H222 0.950 . S
C234 C233 1.398 . S
C234 C235 1.391 . S
C235 H223 0.950 . S
C235 C231 1.393 . S
C235 C234 1.391 . S
H236 C244 0.950 . S
H237 C249 0.950 . S
H238 C246 0.950 . S
H239 C248 0.950 . S
H240 C250 0.950 . S
H241 C252 0.950 . S
H242 C254 0.950 . S
H243 C255 0.950 . S
C244 H236 0.950 . S
C244 C245 1.386 . S
C244 C246 1.391 . S
C245 C244 1.386 . S
C245 C249 1.393 . S
C246 H238 0.950 . S
C246 C244 1.391 . S
C246 C247 1.400 . S
C247 C246 1.400 . S
C247 C248 1.398 . S
C247 C253 1.491 . S
C248 H239 0.950 . S
C248 C247 1.398 . S
C248 C249 1.391 . S
C249 H237 0.950 . S
C249 C245 1.393 . S
C249 C248 1.391 . S
C250 H240 0.950 . S
C250 C251 1.386 . S
C250 C252 1.391 . S
C251 C250 1.386 . S
C251 C255 1.393 . S
C252 H241 0.950 . S
C252 C250 1.391 . S
C252 C253 1.400 . S
C253 C247 1.491 . S
C253 C252 1.400 . S
C253 C254 1.398 . S
C254 H242 0.950 . S
C254 C253 1.398 . S
C254 C255 1.391 . S
C255 H243 0.950 . S
C255 C251 1.393 . S
C255 C254 1.391 . S
H256 C264 0.950 . S
H257 C269 0.950 . S
H258 C266 0.950 1_565 S
H259 C268 0.950 . S
H260 C270 0.950 . S
H261 C272 0.950 1_545 S
H262 C274 0.950 . S
H263 C275 0.950 . S
C264 H256 0.950 . S
C264 C265 1.386 . S
C264 C266 1.391 . S
C265 C264 1.386 . S
C265 C269 1.393 . S
C266 H258 0.950 1_545 S
C266 C264 1.391 . S
C266 C267 1.400 . S
C267 C266 1.400 . S
C267 C268 1.398 1_455 S
C267 C273 1.491 1_444 S
C268 H259 0.950 . S
C268 C267 1.398 1_655 S
C268 C269 1.391 1_655 S
C269 H257 0.950 . S
C269 C265 1.393 . S
C269 C268 1.391 1_455 S
C270 H260 0.950 . S
C270 C271 1.386 . S
C270 C272 1.391 . S
C271 C270 1.386 . S
C271 C275 1.393 . S
C272 H261 0.950 1_565 S
C272 C270 1.391 . S
C272 C273 1.400 . S
C273 C267 1.491 1_666 S
C273 C272 1.400 . S
C273 C274 1.398 1_655 S
C274 H262 0.950 . S
C274 C273 1.398 1_455 S
C274 C275 1.391 1_455 S
C275 H263 0.950 . S
C275 C271 1.393 . S
C275 C274 1.391 1_655 S
H276 C284 0.950 . S
H277 C289 0.950 . S
H278 C286 0.950 . S
H279 C288 0.950 . S
H280 C290 0.950 . S
H281 C292 0.950 . S
H282 C294 0.950 . S
H283 C295 0.950 . S
C284 H276 0.950 . S
C284 C285 1.386 . S
C284 C286 1.391 . S
C285 C284 1.386 . S
C285 C289 1.393 . S
C286 H278 0.950 . S
C286 C284 1.391 . S
C286 C287 1.400 . S
C287 C286 1.400 . S
C287 C288 1.398 . S
C287 C293 1.491 . S
C288 H279 0.950 . S
C288 C287 1.398 . S
C288 C289 1.391 . S
C289 H277 0.950 . S
C289 C285 1.393 . S
C289 C288 1.391 . S
C290 H280 0.950 . S
C290 C291 1.386 . S
C290 C292 1.391 . S
C291 C290 1.386 . S
C291 C295 1.393 . S
C292 H281 0.950 . S
C292 C290 1.391 . S
C292 C293 1.400 . S
C293 C287 1.491 . S
C293 C292 1.400 . S
C293 C294 1.398 . S
C294 H282 0.950 . S
C294 C293 1.398 . S
C294 C295 1.391 . S
C295 H283 0.950 . S
C295 C291 1.393 . S
C295 C294 1.391 . S
H296 C304 0.950 . S
H297 C309 0.950 . S
H298 C306 0.950 . S
H299 C308 0.951 . S
H300 C310 0.950 . S
H301 C312 0.950 . S
H302 C314 0.951 . S
H303 C315 0.950 . S
C304 H296 0.950 . S
C304 C305 1.386 . S
C304 C306 1.391 . S
C305 C304 1.386 . S
C305 C309 1.393 . S
C306 H298 0.950 . S
C306 C304 1.391 . S
C306 C307 1.400 . S
C307 C306 1.400 . S
C307 C308 1.398 1_554 S
C307 C313 1.491 1_554 S
C308 H299 0.951 . S
C308 C307 1.398 1_556 S
C308 C309 1.390 1_556 S
C309 H297 0.950 . S
C309 C305 1.393 . S
C309 C308 1.390 1_554 S
C310 H300 0.950 . S
C310 C311 1.386 . S
C310 C312 1.391 . S
C311 C310 1.386 . S
C311 C315 1.393 . S
C312 H301 0.950 . S
C312 C310 1.391 . S
C312 C313 1.400 . S
C313 C307 1.491 1_556 S
C313 C312 1.400 . S
C313 C314 1.398 1_556 S
C314 H302 0.951 . S
C314 C313 1.398 1_554 S
C314 C315 1.390 1_554 S
C315 H303 0.950 . S
C315 C311 1.393 . S
C315 C314 1.390 1_556 S
H316 C324 0.950 . S
H317 C329 0.950 . S
H318 C326 0.934 1_455 S
H319 C328 0.950 . S
H320 C330 0.950 . S
H321 C332 0.934 1_655 S
H322 C334 0.950 . S
H323 C335 0.950 . S
C324 H316 0.950 . S
C324 C325 1.386 . S
C324 C326 1.391 . S
C325 C324 1.386 . S
C325 C329 1.393 . S
C326 H318 0.934 1_655 S
C326 C324 1.391 . S
C326 C327 1.400 . S
C327 C326 1.400 . S
C327 C328 1.398 . S
C327 C333 1.491 1_645 S
C328 H319 0.950 . S
C328 C327 1.398 . S
C328 C329 1.391 . S
C329 H317 0.950 . S
C329 C325 1.393 . S
C329 C328 1.391 . S
C330 H320 0.950 . S
C330 C331 1.386 . S
C330 C332 1.391 . S
C331 C330 1.386 . S
C331 C335 1.393 . S
C332 H321 0.934 1_455 S
C332 C330 1.391 . S
C332 C333 1.400 . S
C333 C327 1.491 1_465 S
C333 C332 1.400 . S
C333 C334 1.398 . S
C334 H322 0.950 . S
C334 C333 1.398 . S
C334 C335 1.391 . S
C335 H323 0.950 . S
C335 C331 1.393 . S
C335 C334 1.391 . S
H336 C344 0.950 . S
H337 C349 0.950 . S
H338 C346 0.950 . S
H339 C348 0.950 . S
H340 C350 0.950 . S
H341 C352 0.950 1_565 S
H342 C354 0.950 . S
H343 C355 0.950 . S
C344 H336 0.950 . S
C344 C345 1.386 . S
C344 C346 1.391 . S
C345 C344 1.386 . S
C345 C349 1.393 . S
C346 H338 0.950 . S
C346 C344 1.391 . S
C346 C347 1.400 . S
C347 C346 1.400 . S
C347 C348 1.398 . S
C347 C353 1.491 . S
C348 H339 0.950 . S
C348 C347 1.398 . S
C348 C349 1.391 . S
C349 H337 0.950 . S
C349 C345 1.393 . S
C349 C348 1.391 . S
C350 H340 0.950 . S
C350 C351 1.386 . S
C350 C352 1.391 . S
C351 C350 1.386 . S
C351 C355 1.393 . S
C352 H341 0.950 1_545 S
C352 C350 1.391 . S
C352 C353 1.400 1_545 S
C353 C347 1.491 . S
C353 C352 1.400 1_565 S
C353 C354 1.398 1_565 S
C354 H342 0.950 . S
C354 C353 1.398 1_545 S
C354 C355 1.391 . S
C355 H343 0.950 . S
C355 C351 1.393 . S
C355 C354 1.391 . S
H356 C364 0.950 . S
H357 C369 0.950 . S
H358 C366 0.950 . S
H359 C368 0.950 . S
H360 C370 0.950 . S
H361 C372 0.950 . S
H362 C374 0.950 . S
H363 C375 0.950 . S
C364 H356 0.950 . S
C364 C365 1.386 . S
C364 C366 1.391 . S
C365 C364 1.386 . S
C365 C369 1.393 . S
C366 H358 0.950 . S
C366 C364 1.391 . S
C366 C367 1.400 . S
C367 C366 1.400 . S
C367 C368 1.398 . S
C367 C373 1.491 . S
C368 H359 0.950 . S
C368 C367 1.398 . S
C368 C369 1.391 . S
C369 H357 0.950 . S
C369 C365 1.393 . S
C369 C368 1.391 . S
C370 H360 0.950 . S
C370 C371 1.386 . S
C370 C372 1.391 . S
C371 C370 1.386 . S
C371 C375 1.393 . S
C372 H361 0.950 . S
C372 C370 1.391 . S
C372 C373 1.400 . S
C373 C367 1.491 . S
C373 C372 1.400 . S
C373 C374 1.398 . S
C374 H362 0.950 . S
C374 C373 1.398 . S
C374 C375 1.391 . S
C375 H363 0.950 . S
C375 C371 1.393 . S
C375 C374 1.391 . S
H376 C384 0.950 . S
H377 C389 0.950 . S
H378 C386 0.950 . S
H379 C388 0.950 . S
H380 C390 0.950 . S
H381 C392 0.950 . S
H382 C394 0.950 . S
H383 C395 0.950 . S
C384 H376 0.950 . S
C384 C385 1.386 . S
C384 C386 1.391 . S
C385 C384 1.386 . S
C385 C389 1.393 . S
C386 H378 0.950 . S
C386 C384 1.391 . S
C386 C387 1.400 . S
C387 C386 1.400 . S
C387 C388 1.398 . S
C387 C393 1.491 . S
C388 H379 0.950 . S
C388 C387 1.398 . S
C388 C389 1.391 . S
C389 H377 0.950 . S
C389 C385 1.393 . S
C389 C388 1.391 . S
C390 H380 0.950 . S
C390 C391 1.386 . S
C390 C392 1.391 . S
C391 C390 1.386 . S
C391 C395 1.393 . S
C392 H381 0.950 . S
C392 C390 1.391 . S
C392 C393 1.400 . S
C393 C387 1.491 . S
C393 C392 1.400 . S
C393 C394 1.398 . S
C394 H382 0.950 . S
C394 C393 1.398 . S
C394 C395 1.391 . S
C395 H383 0.950 . S
C395 C391 1.393 . S
C395 C394 1.391 . S
H396 C404 0.950 . S
H397 C409 0.950 . S
H398 C406 0.950 . S
H399 C408 0.950 1_565 S
H400 C410 0.950 . S
H401 C412 0.950 . S
H402 C414 0.950 . S
H403 C415 0.950 . S
C404 H396 0.950 . S
C404 C405 1.386 . S
C404 C406 1.391 . S
C405 C404 1.386 . S
C405 C409 1.393 . S
C406 H398 0.950 . S
C406 C404 1.391 . S
C406 C407 1.400 1_545 S
C407 C406 1.400 1_565 S
C407 C408 1.398 1_565 S
C407 C413 1.491 . S
C408 H399 0.950 1_545 S
C408 C407 1.398 1_545 S
C408 C409 1.391 . S
C409 H397 0.950 . S
C409 C405 1.393 . S
C409 C408 1.391 . S
C410 H400 0.950 . S
C410 C411 1.386 . S
C410 C412 1.391 . S
C411 C410 1.386 . S
C411 C415 1.393 . S
C412 H401 0.950 . S
C412 C410 1.391 . S
C412 C413 1.400 . S
C413 C407 1.491 . S
C413 C412 1.400 . S
C413 C414 1.398 . S
C414 H402 0.950 . S
C414 C413 1.398 . S
C414 C415 1.391 . S
C415 H403 0.950 . S
C415 C411 1.393 . S
C415 C414 1.391 . S
H416 C424 0.950 . S
H417 C429 0.950 . S
H418 C426 0.950 . S
H419 C428 0.950 . S
H420 C430 0.950 . S
H421 C432 0.950 1_545 S
H422 C434 0.950 . S
H423 C435 0.950 . S
C424 H416 0.950 . S
C424 C425 1.386 . S
C424 C426 1.391 . S
C425 C424 1.386 . S
C425 C429 1.393 . S
C426 H418 0.950 . S
C426 C424 1.391 . S
C426 C427 1.400 . S
C427 C426 1.400 . S
C427 C428 1.398 . S
C427 C433 1.491 . S
C428 H419 0.950 . S
C428 C427 1.398 . S
C428 C429 1.391 . S
C429 H417 0.950 . S
C429 C425 1.393 . S
C429 C428 1.391 . S
C430 H420 0.950 . S
C430 C431 1.386 . S
C430 C432 1.391 . S
C431 C430 1.386 . S
C431 C435 1.393 . S
C432 H421 0.950 1_565 S
C432 C430 1.391 . S
C432 C433 1.400 1_565 S
C433 C427 1.491 . S
C433 C432 1.400 1_545 S
C433 C434 1.398 1_545 S
C434 H422 0.950 . S
C434 C433 1.398 1_565 S
C434 C435 1.391 . S
C435 H423 0.950 . S
C435 C431 1.393 . S
C435 C434 1.391 . S
H436 C444 0.950 . S
H437 C449 0.950 . S
H438 C446 0.950 . S
H439 C448 0.950 . S
H440 C450 0.950 . S
H441 C452 0.950 . S
H442 C454 0.950 . S
H443 C455 0.950 . S
C444 H436 0.950 . S
C444 C445 1.386 . S
C444 C446 1.391 . S
C445 C444 1.386 . S
C445 C449 1.393 . S
C446 H438 0.950 . S
C446 C444 1.391 . S
C446 C447 1.400 . S
C447 C446 1.400 . S
C447 C448 1.398 . S
C447 C453 1.491 . S
C448 H439 0.950 . S
C448 C447 1.398 . S
C448 C449 1.391 . S
C449 H437 0.950 . S
C449 C445 1.393 . S
C449 C448 1.391 . S
C450 H440 0.950 . S
C450 C451 1.386 . S
C450 C452 1.391 . S
C451 C450 1.386 . S
C451 C455 1.393 . S
C452 H441 0.950 . S
C452 C450 1.391 . S
C452 C453 1.400 . S
C453 C447 1.491 . S
C453 C452 1.400 . S
C453 C454 1.398 . S
C454 H442 0.950 . S
C454 C453 1.398 . S
C454 C455 1.391 . S
C455 H443 0.950 . S
C455 C451 1.393 . S
C455 C454 1.391 . S
H456 C464 0.950 . S
H457 C469 0.950 . S
H458 C466 0.950 . S
H459 C468 0.950 . S
H460 C470 0.950 . S
H461 C472 0.950 . S
H462 C474 0.950 . S
H463 C475 0.950 . S
C464 H456 0.950 . S
C464 C465 1.386 . S
C464 C466 1.391 . S
C465 C464 1.386 . S
C465 C469 1.393 . S
C466 H458 0.950 . S
C466 C464 1.391 . S
C466 C467 1.400 . S
C467 C466 1.400 . S
C467 C468 1.398 . S
C467 C473 1.491 . S
C468 H459 0.950 . S
C468 C467 1.398 . S
C468 C469 1.391 . S
C469 H457 0.950 . S
C469 C465 1.393 . S
C469 C468 1.391 . S
C470 H460 0.950 . S
C470 C471 1.386 . S
C470 C472 1.391 . S
C471 C470 1.386 . S
C471 C475 1.393 . S
C472 H461 0.950 . S
C472 C470 1.391 . S
C472 C473 1.400 . S
C473 C467 1.491 . S
C473 C472 1.400 . S
C473 C474 1.398 . S
C474 H462 0.950 . S
C474 C473 1.398 . S
C474 C475 1.391 . S
C475 H463 0.950 . S
C475 C471 1.393 . S
C475 C474 1.391 . S
H476 C484 0.950 . S
H477 C489 0.950 . S
H478 C486 0.950 1_545 S
H479 C488 0.950 . S
H480 C490 0.950 . S
H481 C492 0.950 . S
H482 C494 0.950 . S
H483 C495 0.950 . S
C484 H476 0.950 . S
C484 C485 1.386 . S
C484 C486 1.391 . S
C485 C484 1.386 . S
C485 C489 1.393 . S
C486 H478 0.950 1_565 S
C486 C484 1.391 . S
C486 C487 1.400 1_565 S
C487 C486 1.400 1_545 S
C487 C488 1.398 1_545 S
C487 C493 1.491 . S
C488 H479 0.950 . S
C488 C487 1.398 1_565 S
C488 C489 1.391 . S
C489 H477 0.950 . S
C489 C485 1.393 . S
C489 C488 1.391 . S
C490 H480 0.950 . S
C490 C491 1.386 . S
C490 C492 1.391 . S
C491 C490 1.386 . S
C491 C495 1.393 . S
C492 H481 0.950 . S
C492 C490 1.391 . S
C492 C493 1.400 . S
C493 C487 1.491 . S
C493 C492 1.400 . S
C493 C494 1.398 . S
C494 H482 0.950 . S
C494 C493 1.398 . S
C494 C495 1.391 . S
C495 H483 0.950 . S
C495 C491 1.393 . S
C495 C494 1.391 . S
H496 C504 0.950 . S
H497 C509 0.950 . S
H498 C506 0.950 . S
H499 C508 0.950 . S
H500 C510 0.950 . S
H501 C512 0.950 . S
H502 C514 0.950 . S
H503 C515 0.950 . S
C504 H496 0.950 . S
C504 C505 1.386 . S
C504 C506 1.391 . S
C505 C504 1.386 . S
C505 C509 1.393 . S
C506 H498 0.950 . S
C506 C504 1.391 . S
C506 C507 1.400 . S
C507 C506 1.400 . S
C507 C508 1.398 . S
C507 C513 1.491 . S
C508 H499 0.950 . S
C508 C507 1.398 . S
C508 C509 1.391 . S
C509 H497 0.950 . S
C509 C505 1.393 . S
C509 C508 1.391 . S
C510 H500 0.950 . S
C510 C511 1.386 . S
C510 C512 1.391 . S
C511 C510 1.386 . S
C511 C515 1.393 . S
C512 H501 0.950 . S
C512 C510 1.391 . S
C512 C513 1.400 . S
C513 C507 1.491 . S
C513 C512 1.400 . S
C513 C514 1.398 . S
C514 H502 0.950 . S
C514 C513 1.398 . S
C514 C515 1.391 . S
C515 H503 0.950 . S
C515 C511 1.393 . S
C515 C514 1.391 . S
H516 C524 0.950 . S
H517 C529 0.950 . S
H518 C526 0.950 . S
H519 C528 0.950 . S
H520 C530 0.950 . S
H521 C532 0.950 . S
H522 C534 0.950 . S
H523 C535 0.950 . S
C524 H516 0.950 . S
C524 C525 1.386 . S
C524 C526 1.391 . S
C525 C524 1.386 . S
C525 C529 1.393 . S
C526 H518 0.950 . S
C526 C524 1.391 . S
C526 C527 1.400 . S
C527 C526 1.400 . S
C527 C528 1.398 . S
C527 C533 1.491 . S
C528 H519 0.950 . S
C528 C527 1.398 . S
C528 C529 1.391 . S
C529 H517 0.950 . S
C529 C525 1.393 . S
C529 C528 1.391 . S
C530 H520 0.950 . S
C530 C531 1.386 . S
C530 C532 1.391 . S
C531 C530 1.386 . S
C531 C535 1.393 . S
C532 H521 0.950 . S
C532 C530 1.391 . S
C532 C533 1.400 . S
C533 C527 1.491 . S
C533 C532 1.400 . S
C533 C534 1.398 . S
C534 H522 0.950 . S
C534 C533 1.398 . S
C534 C535 1.391 . S
C535 H523 0.950 . S
C535 C531 1.393 . S
C535 C534 1.391 . S
H536 C544 0.950 . S
H537 C549 0.950 . S
H538 C546 0.950 . S
H539 C548 0.950 . S
H540 C550 0.950 . S
H541 C552 0.950 . S
H542 C554 0.950 . S
H543 C555 0.950 . S
C544 H536 0.950 . S
C544 C545 1.386 . S
C544 C546 1.391 . S
C545 C544 1.386 . S
C545 C549 1.393 . S
C546 H538 0.950 . S
C546 C544 1.391 . S
C546 C547 1.400 . S
C547 C546 1.400 . S
C547 C548 1.398 . S
C547 C553 1.491 . S
C548 H539 0.950 . S
C548 C547 1.398 . S
C548 C549 1.391 . S
C549 H537 0.950 . S
C549 C545 1.393 . S
C549 C548 1.391 . S
C550 H540 0.950 . S
C550 C551 1.386 . S
C550 C552 1.391 . S
C551 C550 1.386 . S
C551 C555 1.393 . S
C552 H541 0.950 . S
C552 C550 1.391 . S
C552 C553 1.400 . S
C553 C547 1.491 . S
C553 C552 1.400 . S
C553 C554 1.398 . S
C554 H542 0.950 . S
C554 C553 1.398 . S
C554 C555 1.391 . S
C555 H543 0.950 . S
C555 C551 1.393 . S
C555 C554 1.391 . S
H556 C564 0.950 . S
H557 C569 0.950 . S
H558 C566 0.950 . S
H559 C568 0.950 . S
H560 C570 0.950 . S
H561 C572 0.950 . S
H562 C574 0.950 . S
H563 C575 0.950 . S
C564 H556 0.950 . S
C564 C565 1.386 . S
C564 C566 1.391 . S
C565 C564 1.386 . S
C565 C569 1.393 . S
C566 H558 0.950 . S
C566 C564 1.391 . S
C566 C567 1.400 . S
C567 C566 1.400 . S
C567 C568 1.398 . S
C567 C573 1.491 . S
C568 H559 0.950 . S
C568 C567 1.398 . S
C568 C569 1.391 . S
C569 H557 0.950 . S
C569 C565 1.393 . S
C569 C568 1.391 . S
C570 H560 0.950 . S
C570 C571 1.386 . S
C570 C572 1.391 . S
C571 C570 1.386 . S
C571 C575 1.393 . S
C572 H561 0.950 . S
C572 C570 1.391 . S
C572 C573 1.400 . S
C573 C567 1.491 . S
C573 C572 1.400 . S
C573 C574 1.398 . S
C574 H562 0.950 . S
C574 C573 1.398 . S
C574 C575 1.391 . S
C575 H563 0.950 . S
C575 C571 1.393 . S
C575 C574 1.391 . S
H576 C584 0.950 . S
H577 C589 0.950 . S
H578 C586 0.950 . S
H579 C588 0.950 . S
H580 C590 0.950 . S
H581 C592 0.950 . S
H582 C594 0.950 . S
H583 C595 0.950 . S
C584 H576 0.950 . S
C584 C585 1.386 . S
C584 C586 1.391 . S
C585 C584 1.386 . S
C585 C589 1.393 . S
C586 H578 0.950 . S
C586 C584 1.391 . S
C586 C587 1.400 . S
C587 C586 1.400 . S
C587 C588 1.398 . S
C587 C593 1.491 . S
C588 H579 0.950 . S
C588 C587 1.398 . S
C588 C589 1.391 . S
C589 H577 0.950 . S
C589 C585 1.393 . S
C589 C588 1.391 . S
C590 H580 0.950 . S
C590 C591 1.386 . S
C590 C592 1.391 . S
C591 C590 1.386 . S
C591 C595 1.393 . S
C592 H581 0.950 . S
C592 C590 1.391 . S
C592 C593 1.400 . S
C593 C587 1.491 . S
C593 C592 1.400 . S
C593 C594 1.398 . S
C594 H582 0.950 . S
C594 C593 1.398 . S
C594 C595 1.391 . S
C595 H583 0.950 . S
C595 C591 1.393 . S
C595 C594 1.391 . S
H596 C604 0.950 . S
H597 C609 0.950 . S
H598 C606 0.950 . S
H599 C608 0.950 . S
H600 C610 0.950 . S
H601 C612 0.950 . S
H602 C614 0.950 . S
H603 C615 0.950 . S
C604 H596 0.950 . S
C604 C605 1.386 . S
C604 C606 1.391 . S
C605 C604 1.386 . S
C605 C609 1.393 . S
C606 H598 0.950 . S
C606 C604 1.391 . S
C606 C607 1.400 . S
C607 C606 1.400 . S
C607 C608 1.398 . S
C607 C613 1.491 . S
C608 H599 0.950 . S
C608 C607 1.398 . S
C608 C609 1.391 . S
C609 H597 0.950 . S
C609 C605 1.393 . S
C609 C608 1.391 . S
C610 H600 0.950 . S
C610 C611 1.386 . S
C610 C612 1.391 . S
C611 C610 1.386 . S
C611 C615 1.393 . S
C612 H601 0.950 . S
C612 C610 1.391 . S
C612 C613 1.400 . S
C613 C607 1.491 . S
C613 C612 1.400 . S
C613 C614 1.398 . S
C614 H602 0.950 . S
C614 C613 1.398 . S
C614 C615 1.391 . S
C615 H603 0.950 . S
C615 C611 1.393 . S
C615 C614 1.391 . S
H616 C624 0.950 . S
H617 C629 0.950 . S
H618 C626 0.950 . S
H619 C628 0.950 . S
H620 C630 0.950 . S
H621 C632 0.950 . S
H622 C634 0.950 . S
H623 C635 0.950 . S
C624 H616 0.950 . S
C624 C625 1.386 . S
C624 C626 1.391 . S
C625 C624 1.386 . S
C625 C629 1.393 . S
C626 H618 0.950 . S
C626 C624 1.391 . S
C626 C627 1.400 . S
C627 C626 1.400 . S
C627 C628 1.398 . S
C627 C633 1.491 . S
C628 H619 0.950 . S
C628 C627 1.398 . S
C628 C629 1.391 . S
C629 H617 0.950 . S
C629 C625 1.393 . S
C629 C628 1.391 . S
C630 H620 0.950 . S
C630 C631 1.386 . S
C630 C632 1.391 . S
C631 C630 1.386 . S
C631 C635 1.393 . S
C632 H621 0.950 . S
C632 C630 1.391 . S
C632 C633 1.400 . S
C633 C627 1.491 . S
C633 C632 1.400 . S
C633 C634 1.398 . S
C634 H622 0.950 . S
C634 C633 1.398 . S
C634 C635 1.391 . S
C635 H623 0.950 . S
C635 C631 1.393 . S
C635 C634 1.391 . S
H636 C644 0.950 . S
H637 C649 0.950 . S
H638 C646 0.950 . S
H639 C648 0.950 . S
H640 C650 0.950 . S
H641 C652 0.950 . S
H642 C654 0.950 . S
H643 C655 0.950 . S
C644 H636 0.950 . S
C644 C645 1.386 . S
C644 C646 1.391 . S
C645 C644 1.386 . S
C645 C649 1.393 . S
C646 H638 0.950 . S
C646 C644 1.391 . S
C646 C647 1.400 . S
C647 C646 1.400 . S
C647 C648 1.398 . S
C647 C653 1.491 . S
C648 H639 0.950 . S
C648 C647 1.398 . S
C648 C649 1.391 . S
C649 H637 0.950 . S
C649 C645 1.393 . S
C649 C648 1.391 . S
C650 H640 0.950 . S
C650 C651 1.386 . S
C650 C652 1.391 . S
C651 C650 1.386 . S
C651 C655 1.393 . S
C652 H641 0.950 . S
C652 C650 1.391 . S
C652 C653 1.400 . S
C653 C647 1.491 . S
C653 C652 1.400 . S
C653 C654 1.398 . S
C654 H642 0.950 . S
C654 C653 1.398 . S
C654 C655 1.391 . S
C655 H643 0.950 . S
C655 C651 1.393 . S
C655 C654 1.391 . S
C185 C9 0.712 . S
C191 C71 0.711 . S
C205 C27 0.710 . S
C211 C49 0.714 . S
C225 C94 0.736 . S
C231 C160 0.695 . S
C245 C116 0.701 . S
C251 C139 0.722 . S
C265 C6 1.978 . S
C271 C97 1.978 . S
C285 C119 1.987 . S
C291 C29 1.987 . S
C305 C137 1.992 . S
C311 C51 1.992 . S
C325 C73 1.985 . S
C331 C163 1.985 . S
C345 C141 0.924 . S
C351 C4 0.944 . S
C365 C159 0.925 . S
C371 C30 0.936 . S
C385 C52 0.953 . S
C391 C93 0.956 . S
C405 C74 0.952 . S
C411 C115 0.955 . S
C425 C50 0.951 . S
C431 C96 0.965 . S
C445 C118 0.951 . S
C451 C72 0.930 . S
C465 C7 0.952 . S
C471 C136 0.966 . S
C485 C162 0.938 . S
C491 C28 0.923 . S
C505 C5 1.607 1_556 S
C511 C26 1.664 . S
C525 C8 1.665 . S
C531 C31 1.625 . S
C545 C70 1.663 . S
C551 C53 1.606 1_554 S
C565 C75 1.623 . S
C571 C48 1.661 . S
C585 C95 1.614 1_554 S
C591 C114 1.656 . S
C605 C92 1.664 . S
C611 C117 1.631 . S
C625 C158 1.659 . S
C631 C138 1.624 1_556 S
C645 C161 1.636 . S
C651 C140 1.655 . S
