# Generated by pormake.
# Topology umm, (4)-cn, num edge types: 1
# Building blocks:
#     Node 0, Type 0, BuildingBlock: ICAMEG_clean_sbu_1, # of connection points: 4
#     Node 1, Type 0, BuildingBlock: ICAMEG_clean_sbu_1, # of connection points: 4
#     Node 2, Type 0, BuildingBlock: ICAMEG_clean_sbu_1, # of connection points: 4
#     Node 3, Type 0, BuildingBlock: ICAMEG_clean_sbu_1, # of connection points: 4
#     Node 4, Type 0, BuildingBlock: ICAMEG_clean_sbu_1, # of connection points: 4
#     Node 5, Type 0, BuildingBlock: ICAMEG_clean_sbu_1, # of connection points: 4
#     Node 6, Type 0, BuildingBlock: ICAMEG_clean_sbu_1, # of connection points: 4
#     Node 7, Type 0, BuildingBlock: ICAMEG_clean_sbu_1, # of connection points: 4
#     Node 8, Type 0, BuildingBlock: ICAMEG_clean_sbu_1, # of connection points: 4
#     Node 9, Type 0, BuildingBlock: ICAMEG_clean_sbu_1, # of connection points: 4
#     Node 10, Type 0, BuildingBlock: ICAMEG_clean_sbu_1, # of connection points: 4
#     Node 11, Type 0, BuildingBlock: ICAMEG_clean_sbu_1, # of connection points: 4
#     Edge 12, Type (0, 0), BuildingBlock: CIFDUS_clean_linker_0, # of connection points: 2
#     Edge 13, Type (0, 0), BuildingBlock: CIFDUS_clean_linker_0, # of connection points: 2
#     Edge 14, Type (0, 0), BuildingBlock: CIFDUS_clean_linker_0, # of connection points: 2
#     Edge 15, Type (0, 0), BuildingBlock: CIFDUS_clean_linker_0, # of connection points: 2
#     Edge 16, Type (0, 0), BuildingBlock: CIFDUS_clean_linker_0, # of connection points: 2
#     Edge 17, Type (0, 0), BuildingBlock: CIFDUS_clean_linker_0, # of connection points: 2
#     Edge 18, Type (0, 0), BuildingBlock: CIFDUS_clean_linker_0, # of connection points: 2
#     Edge 19, Type (0, 0), BuildingBlock: CIFDUS_clean_linker_0, # of connection points: 2
#     Edge 20, Type (0, 0), BuildingBlock: CIFDUS_clean_linker_0, # of connection points: 2
#     Edge 21, Type (0, 0), BuildingBlock: CIFDUS_clean_linker_0, # of connection points: 2
#     Edge 22, Type (0, 0), BuildingBlock: CIFDUS_clean_linker_0, # of connection points: 2
#     Edge 23, Type (0, 0), BuildingBlock: CIFDUS_clean_linker_0, # of connection points: 2
#     Edge 24, Type (0, 0), BuildingBlock: CIFDUS_clean_linker_0, # of connection points: 2
#     Edge 25, Type (0, 0), BuildingBlock: CIFDUS_clean_linker_0, # of connection points: 2
#     Edge 26, Type (0, 0), BuildingBlock: CIFDUS_clean_linker_0, # of connection points: 2
#     Edge 27, Type (0, 0), BuildingBlock: CIFDUS_clean_linker_0, # of connection points: 2
#     Edge 28, Type (0, 0), BuildingBlock: CIFDUS_clean_linker_0, # of connection points: 2
#     Edge 29, Type (0, 0), BuildingBlock: CIFDUS_clean_linker_0, # of connection points: 2
#     Edge 30, Type (0, 0), BuildingBlock: CIFDUS_clean_linker_0, # of connection points: 2
#     Edge 31, Type (0, 0), BuildingBlock: CIFDUS_clean_linker_0, # of connection points: 2
#     Edge 32, Type (0, 0), BuildingBlock: CIFDUS_clean_linker_0, # of connection points: 2
#     Edge 33, Type (0, 0), BuildingBlock: CIFDUS_clean_linker_0, # of connection points: 2
#     Edge 34, Type (0, 0), BuildingBlock: CIFDUS_clean_linker_0, # of connection points: 2
#     Edge 35, Type (0, 0), BuildingBlock: CIFDUS_clean_linker_0, # of connection points: 2
# Relax obj value: 0.062
# Max RMSD: 0.165
# Mean RMSD: 0.164
data_MOF--net-umm--node1-ICAMEG_clean_sbu_1--edge1-CIFDUS_clean_linker_0
_symmetry_space_group_name_H-M    P1
_symmetry_Int_Tables_number       1
_symmetry_cell_setting            triclinic
loop_
_symmetry_equiv_pos_as_xyz
'x, y, z'
_cell_length_a     53.420799
_cell_length_b     53.429419
_cell_length_c     26.80595
_cell_angle_alpha  90.000906
_cell_angle_beta   89.994216
_cell_angle_gamma 120.13705
loop_
_atom_site_label
_atom_site_type_symbol
_atom_site_fract_x
_atom_site_fract_y
_atom_site_fract_z
_atom_type_partial_charge
Co0 Co 0.38019 0.49503 0.03694 0.0
Co1 Co 0.43288 0.5618 0.08157 0.0
O2 O 0.39371 0.52827 0.08144 0.0
C3 C 0.34195 0.51856 0.01534 0.0
O4 O 0.36555 0.54408 0.01527 0.0
C5 C 0.42347 0.53772 0.183 0.0
O6 O 0.4115 0.51202 0.16227 0.0
O7 O 0.45064 0.53682 0.07841 0.0
O8 O 0.41655 0.49367 0.04846 0.0
H9 H 0.53554 0.62239 0.02234 0.0
H10 H 0.34268 0.49351 0.1197 0.0
O11 O 0.34357 0.49597 0.02421 0.0
H12 H 0.35881 0.41172 0.15096 0.0
H13 H 0.30518 0.3997 0.9639 0.0
H14 H 0.40729 0.47771 0.95791 0.0
H15 H 0.37993 0.4428 0.07695 0.0
H16 H 0.32317 0.4416 0.02064 0.0
O17 O 0.43355 0.56039 0.15612 0.0
H18 H 0.486 0.5803 0.0216 0.0
H19 H 0.46298 0.61487 0.14438 0.0
H20 H 0.39028 0.4361 0.90073 0.0
H21 H 0.32092 0.46284 0.19399 0.0
H22 H 0.33888 0.39673 0.90353 0.0
H23 H 0.32905 0.42168 0.21009 0.0
O24 O 0.39819 0.52062 0.97816 0.0
H25 H 0.36397 0.59235 0.14623 0.0
H26 H 0.4418 0.61381 0.02527 0.0
H27 H 0.41912 0.64421 0.02666 0.0
H28 H 0.3799 0.63354 0.08746 0.0
H29 H 0.3871 0.56237 0.14333 0.0
H30 H 0.51233 0.65724 0.14671 0.0
H31 H 0.54897 0.66124 0.08525 0.0
O32 O 0.43294 0.56364 0.00737 0.0
C33 C 0.44216 0.51101 0.06411 0.0
C34 C 0.51974 0.62095 0.0492 0.0
C35 C 0.50673 0.64049 0.11905 0.0
N36 N 0.47157 0.59527 0.08263 0.0
C37 C 0.49164 0.59722 0.04886 0.0
C38 C 0.47883 0.61643 0.11761 0.0
C39 C 0.52727 0.64272 0.08454 0.0
C40 C 0.34607 0.47546 0.12623 0.0
N41 N 0.36251 0.46991 0.09401 0.0
C42 C 0.3338 0.45824 0.16844 0.0
C43 C 0.3384 0.43518 0.1775 0.0
C44 C 0.35512 0.4296 0.14436 0.0
C45 C 0.3671 0.44732 0.1026 0.0
C46 C 0.32764 0.41669 0.9624 0.0
C47 C 0.38495 0.46055 0.95956 0.0
C48 C 0.33794 0.44048 -0.00563 0.0
N49 N 0.36631 0.46193 0.99284 0.0
C50 C 0.37542 0.4371 0.927 0.0
C51 C 0.34656 0.41503 0.92855 0.0
C52 C 0.4186 0.54662 0.97176 0.0
C53 C 0.3811 0.59727 0.11967 0.0
C54 C 0.42475 0.60903 0.05185 0.0
C55 C 0.41201 0.62634 0.05249 0.0
C56 C 0.39002 0.62035 0.08664 0.0
N57 N 0.41589 0.58644 0.08439 0.0
C58 C 0.39436 0.58045 0.11801 0.0
Co59 Co 0.87411 0.39488 0.36906 0.0
Co60 Co 0.85624 0.44664 0.40228 0.0
O61 O 0.8533 0.4088 0.40969 0.0
C62 C 0.81223 0.3526 0.35103 0.0
O63 O 0.80854 0.37505 0.34801 0.0
C64 C 0.87737 0.44633 0.50219 0.0
O65 O 0.89108 0.43429 0.4819 0.0
O66 O 0.8991 0.46677 0.39431 0.0
O67 O 0.91104 0.43297 0.37647 0.0
H68 H 0.88934 0.54348 0.32274 0.0
H69 H 0.83977 0.36041 0.45584 0.0
O70 O 0.83736 0.3564 0.36026 0.0
H71 H 0.93999 0.38415 0.4905 0.0
H72 H 0.89912 0.32056 0.31058 0.0
H73 H 0.91766 0.42006 0.28814 0.0
H74 H 0.92796 0.40002 0.4122 0.0
H75 H 0.8738 0.33902 0.36262 0.0
O76 O 0.86162 0.45276 0.47575 0.0
H77 H 0.88573 0.49582 0.33174 0.0
H78 H 0.83246 0.47777 0.45971 0.0
H79 H 0.94361 0.40256 0.23553 0.0
H80 H 0.85079 0.34391 0.5345 0.0
H81 H 0.93439 0.35247 0.24661 0.0
H82 H 0.90124 0.3559 0.55231 0.0
O83 O 0.86496 0.40909 0.3072 0.0
H84 H 0.76122 0.37816 0.48351 0.0
H85 H 0.80858 0.44763 0.34606 0.0
H86 H 0.75538 0.42206 0.35376 0.0
H87 H 0.73137 0.38704 0.42289 0.0
H88 H 0.81434 0.40404 0.4742 0.0
H89 H 0.83569 0.52534 0.45237 0.0
H90 H 0.86419 0.5585 0.38336 0.0
O91 O 0.85162 0.44141 0.32902 0.0
C92 C 0.91775 0.45919 0.3848 0.0
C93 C 0.87676 0.52918 0.35286 0.0
C94 C 0.84668 0.51901 0.42565 0.0
N95 N 0.85866 0.48394 0.39589 0.0
C96 C 0.87455 0.50213 0.35803 0.0
C97 C 0.84497 0.49213 0.42966 0.0
C98 C 0.86267 0.53761 0.38691 0.0
C99 C 0.86171 0.36542 0.46312 0.0
N100 N 0.88317 0.38103 0.42941 0.0
C101 C 0.86784 0.35613 0.50779 0.0
C102 C 0.89616 0.36291 0.5178 0.0
C103 C 0.91792 0.37877 0.48315 0.0
C104 C 0.91099 0.38774 0.43892 0.0
C105 C 0.90338 0.34245 0.30548 0.0
C106 C 0.91369 0.39831 0.2934 0.0
C107 C 0.88907 0.353 0.33478 0.0
N108 N 0.89445 0.38067 0.32869 0.0
C109 C 0.92838 0.38849 0.26341 0.0
C110 C 0.92317 0.36037 0.26961 0.0
C111 C 0.8564 0.42687 0.29664 0.0
C112 C 0.77143 0.39342 0.45331 0.0
C113 C 0.79828 0.43241 0.37623 0.0
C114 C 0.76816 0.41803 0.38043 0.0
C115 C 0.7547 0.39839 0.41925 0.0
N116 N 0.81454 0.42744 0.40983 0.0
C117 C 0.80151 0.40823 0.44799 0.0
Co118 Co 0.4978 0.87333 0.71331 0.0
Co119 Co 0.43168 0.86042 0.759 0.0
O120 O 0.46466 0.85402 0.75826 0.0
C121 C 0.47324 0.81101 0.69198 0.0
O122 O 0.44781 0.80918 0.69157 0.0
C123 C 0.45647 0.87576 0.8598 0.0
O124 O 0.48203 0.88832 0.83849 0.0
O125 O 0.45739 0.90311 0.75534 0.0
O126 O 0.50019 0.91156 0.725 0.0
H127 H 0.37269 0.90422 0.70074 0.0
H128 H 0.49893 0.8369 0.7957 0.0
O129 O 0.49596 0.8353 0.70048 0.0
H130 H 0.58205 0.93445 0.82635 0.0
H131 H 0.59216 0.89196 0.63884 0.0
H132 H 0.5156 0.91782 0.63415 0.0
H133 H 0.55068 0.92496 0.75295 0.0
H134 H 0.55047 0.86868 0.69619 0.0
O135 O 0.43355 0.863 0.83353 0.0
H136 H 0.41402 0.89575 0.69933 0.0
H137 H 0.37901 0.83843 0.82257 0.0
H138 H 0.55701 0.94178 0.57636 0.0
H139 H 0.52988 0.84536 0.86936 0.0
H140 H 0.59565 0.92887 0.5785 0.0
H141 H 0.57172 0.89446 0.88515 0.0
O142 O 0.47209 0.86631 0.65492 0.0
H143 H 0.39936 0.76071 0.82481 0.0
H144 H 0.379 0.81764 0.70355 0.0
H145 H 0.34765 0.76454 0.70573 0.0
H146 H 0.35776 0.73572 0.7667 0.0
H147 H 0.43028 0.81384 0.82111 0.0
H148 H 0.33739 0.84645 0.82558 0.0
H149 H 0.33401 0.87947 0.76423 0.0
O150 O 0.42944 0.85853 0.68485 0.0
C151 C 0.48325 0.92021 0.74085 0.0
C152 C 0.37387 0.88969 0.72755 0.0
C153 C 0.35407 0.8573 0.79766 0.0
N154 N 0.39878 0.86642 0.76053 0.0
C155 C 0.39717 0.88474 0.72683 0.0
C156 C 0.3777 0.85288 0.79583 0.0
C157 C 0.35219 0.87583 0.76322 0.0
C158 C 0.51727 0.85825 0.80207 0.0
N159 N 0.52306 0.88039 0.76999 0.0
C160 C 0.53465 0.86294 0.84394 0.0
C161 C 0.55809 0.89051 0.85282 0.0
C162 C 0.56389 0.91296 0.81987 0.0
C163 C 0.54601 0.90748 0.77844 0.0
C164 C 0.57549 0.89782 0.63763 0.0
C165 C 0.53244 0.91224 0.63552 0.0
C166 C 0.55181 0.88468 0.66994 0.0
N167 N 0.53077 0.89208 0.66877 0.0
C168 C 0.55578 0.92581 0.60261 0.0
C169 C 0.57744 0.91853 0.60379 0.0
C170 C 0.44629 0.86133 0.64891 0.0
C171 C 0.39469 0.77304 0.79818 0.0
C172 C 0.38354 0.80524 0.73017 0.0
C173 C 0.36569 0.77519 0.73128 0.0
C174 C 0.37137 0.75903 0.76551 0.0
N175 N 0.40635 0.81882 0.76237 0.0
C176 C 0.41204 0.80313 0.79606 0.0
Co177 Co 0.63352 0.49001 0.04049 0.0
Co178 Co 0.5776 0.42494 0.08449 0.0
O179 O 0.61771 0.45649 0.08465 0.0
C180 C 0.66556 0.45993 0.01715 0.0
O181 O 0.64024 0.43616 0.01893 0.0
C182 C 0.58785 0.4511 0.18412 0.0
O183 O 0.60221 0.47622 0.16162 0.0
O184 O 0.56288 0.45227 0.07836 0.0
O185 O 0.59961 0.49562 0.05425 0.0
H186 H 0.47498 0.36957 0.02281 0.0
H187 H 0.67033 0.48718 0.12052 0.0
O188 O 0.6674 0.48436 0.02523 0.0
H189 H 0.66457 0.57469 0.1563 0.0
H190 H 0.71409 0.58157 0.9658 0.0
H191 H 0.60918 0.51189 0.96392 0.0
H192 H 0.64002 0.54455 0.08268 0.0
H193 H 0.69296 0.5394 0.0223 0.0
O194 O 0.57637 0.4277 0.15896 0.0
H195 H 0.52583 0.40914 0.02218 0.0
H196 H 0.54385 0.37335 0.14926 0.0
H197 H 0.62936 0.55385 0.90703 0.0
H198 H 0.6954 0.5168 0.19437 0.0
H199 H 0.68218 0.58904 0.90775 0.0
H200 H 0.69251 0.56085 0.21272 0.0
O201 O 0.61268 0.46552 0.98212 0.0
H202 H 0.64002 0.38818 0.15613 0.0
H203 H 0.5653 0.37099 0.03114 0.0
H204 H 0.58428 0.33743 0.03629 0.0
H205 H 0.62192 0.34594 0.09915 0.0
H206 H 0.62058 0.42129 0.14946 0.0
H207 H 0.49311 0.33348 0.15151 0.0
H208 H 0.45832 0.33138 0.08784 0.0
O209 O 0.57793 0.4222 0.01027 0.0
C210 C 0.57319 0.47881 0.06677 0.0
C211 C 0.48995 0.37019 0.05064 0.0
C212 C 0.50012 0.34996 0.12292 0.0
N213 N 0.53782 0.3934 0.08538 0.0
C214 C 0.5188 0.39249 0.05037 0.0
C215 C 0.5288 0.3726 0.12151 0.0
C216 C 0.48062 0.34879 0.08718 0.0
C217 C 0.66924 0.50649 0.128 0.0
N218 N 0.65388 0.51423 0.09722 0.0
C219 C 0.68337 0.5231 0.16998 0.0
C220 C 0.6817 0.54779 0.18029 0.0
C221 C 0.66602 0.55556 0.14867 0.0
C222 C 0.65212 0.5384 0.10709 0.0
C223 C 0.69103 0.56643 0.96523 0.0
C224 C 0.63215 0.52724 0.9647 0.0
C225 C 0.67896 0.5425 -0.00293 0.0
N226 N 0.64984 0.52338 -0.00331 0.0
C227 C 0.64347 0.5509 0.93229 0.0
C228 C 0.67311 0.57061 0.93268 0.0
C229 C 0.59183 0.43983 0.97503 0.0
C230 C 0.62356 0.38419 0.12869 0.0
C231 C 0.58167 0.37482 0.05859 0.0
C232 C 0.59231 0.35573 0.06137 0.0
C233 C 0.61342 0.36052 0.09666 0.0
N234 N 0.5917 0.39796 0.09019 0.0
C235 C 0.61238 0.40279 0.1249 0.0
Co236 Co 0.13753 0.62534 0.37783 0.0
Co237 Co 0.15065 0.56915 0.40021 0.0
O238 O 0.15699 0.60782 0.41265 0.0
C239 C 0.19957 0.6621 0.35619 0.0
O240 O 0.19868 0.6375 0.34775 0.0
C241 C 0.13689 0.57032 0.50638 0.0
O242 O 0.12372 0.58427 0.49221 0.0
O243 O 0.10815 0.55258 0.39937 0.0
O244 O 0.09877 0.58863 0.38541 0.0
H245 H 0.10619 0.4726 0.31434 0.0
H246 H 0.17606 0.65605 0.46342 0.0
O247 O 0.17642 0.66198 0.36884 0.0
H248 H 0.07977 0.63915 0.51218 0.0
H249 H 0.12075 0.70758 0.33619 0.0
H250 H 0.0911 0.60572 0.30174 0.0
H251 H 0.0873 0.62343 0.42976 0.0
H252 H 0.14412 0.68405 0.37997 0.0
O253 O 0.14893 0.56218 0.4742 0.0
H254 H 0.11469 0.5218 0.32953 0.0
H255 H 0.17288 0.53356 0.44715 0.0
H256 H 0.06698 0.62829 0.25742 0.0
H257 H 0.16954 0.6723 0.54608 0.0
H258 H 0.0818 0.67959 0.27456 0.0
H259 H 0.12108 0.66376 0.57098 0.0
O260 O 0.14271 0.61145 0.31209 0.0
H261 H 0.25114 0.63087 0.4682 0.0
H262 H 0.19266 0.56454 0.33308 0.0
H263 H 0.24576 0.58628 0.33183 0.0
H264 H 0.27536 0.61971 0.39976 0.0
H265 H 0.19801 0.60881 0.46779 0.0
H266 H 0.1648 0.48437 0.43356 0.0
H267 H 0.13134 0.45358 0.3666 0.0
O268 O 0.15175 0.57525 0.32631 0.0
C269 C 0.0906 0.56188 0.39268 0.0
C270 C 0.12091 0.48584 0.34351 0.0
C271 C 0.15377 0.49244 0.41047 0.0
N272 N 0.14447 0.53061 0.38886 0.0
C273 C 0.12589 0.51376 0.35216 0.0
C274 C 0.15822 0.52024 0.41806 0.0
C275 C 0.135 0.47518 0.37288 0.0
C276 C 0.15499 0.65256 0.47379 0.0
N277 N 0.13213 0.63897 0.44174 0.0
C278 C 0.1514 0.66169 0.52072 0.0
C279 C 0.12419 0.65684 0.5347 0.0
C280 C 0.10099 0.64302 0.50174 0.0
C281 C 0.10538 0.63413 0.45516 0.0
C282 C 0.11406 0.68519 0.32848 0.0
C283 C 0.09751 0.62799 0.30965 0.0
C284 C 0.12724 0.67179 0.35308 0.0
N285 N 0.11879 0.64349 0.3437 0.0
C286 C 0.08385 0.64068 0.28432 0.0
C287 C 0.0922 0.66947 0.29392 0.0
C288 C 0.14789 0.59187 0.29699 0.0
C289 C 0.23847 0.61625 0.4385 0.0
C290 C 0.2054 0.57905 0.36278 0.0
C291 C 0.23545 0.59127 0.3619 0.0
C292 C 0.25204 0.61001 0.40004 0.0
N293 N 0.19226 0.58526 0.40066 0.0
C294 C 0.20837 0.60359 0.4382 0.0
Co295 Co 0.49798 0.12964 0.72341 0.0
Co296 Co 0.56773 0.14351 0.74502 0.0
O297 O 0.53548 0.15021 0.75684 0.0
C298 C 0.52113 0.19091 0.69735 0.0
O299 O 0.54574 0.19168 0.68931 0.0
C300 C 0.55434 0.1325 0.85229 0.0
O301 O 0.52694 0.11909 0.83944 0.0
O302 O 0.54178 0.10082 0.74737 0.0
O303 O 0.49642 0.09167 0.73344 0.0
H304 H 0.6188 0.09734 0.66194 0.0
H305 H 0.50656 0.16967 0.8067 0.0
O306 O 0.49913 0.16748 0.71215 0.0
H307 H 0.42792 0.07415 0.86145 0.0
H308 H 0.39761 0.10988 0.68338 0.0
H309 H 0.47104 0.08191 0.64975 0.0
H310 H 0.4502 0.08022 0.77844 0.0
H311 H 0.445 0.13483 0.72578 0.0
O312 O 0.57402 0.14364 0.81901 0.0
H313 H 0.57824 0.10608 0.67672 0.0
H314 H 0.62629 0.16699 0.79015 0.0
H315 H 0.42386 0.05622 0.60681 0.0
H316 H 0.48475 0.16464 0.88989 0.0
H317 H 0.38677 0.0702 0.62355 0.0
H318 H 0.44523 0.11657 0.91782 0.0
O319 O 0.51658 0.13401 0.6572 0.0
H320 H 0.60732 0.24556 0.80544 0.0
H321 H 0.61364 0.18393 0.67489 0.0
H322 H 0.64494 0.23695 0.66962 0.0
H323 H 0.64187 0.26814 0.73522 0.0
H324 H 0.57627 0.19245 0.80905 0.0
H325 H 0.6673 0.15875 0.77688 0.0
H326 H 0.66373 0.12379 0.71223 0.0
O327 O 0.56185 0.14301 0.67128 0.0
C328 C 0.51473 0.08341 0.74177 0.0
C329 C 0.62065 0.1127 0.6901 0.0
C330 C 0.64786 0.14714 0.75466 0.0
N331 N 0.6 0.13718 0.73398 0.0
C332 C 0.5978 0.1178 0.69853 0.0
C333 C 0.62455 0.15167 0.76208 0.0
C334 C 0.64584 0.12753 0.71837 0.0
C335 C 0.48915 0.14876 0.8184 0.0
N336 N 0.47959 0.12529 0.78771 0.0
C337 C 0.47697 0.14601 0.86562 0.0
C338 C 0.45483 0.11903 0.88129 0.0
C339 C 0.44512 0.09521 0.8497 0.0
C340 C 0.45786 0.09876 0.80278 0.0
C341 C 0.41357 0.10355 0.67586 0.0
C342 C 0.45492 0.08796 0.65747 0.0
C343 C 0.44045 0.11763 0.69968 0.0
N344 N 0.46064 0.10965 0.69053 0.0
C345 C 0.42829 0.07341 0.63294 0.0
C346 C 0.4075 0.08128 0.64231 0.0
C347 C 0.54131 0.13903 0.64201 0.0
C348 C 0.60891 0.23219 0.77672 0.0
C349 C 0.61219 0.19736 0.70359 0.0
C350 C 0.62999 0.22736 0.70044 0.0
C351 C 0.62827 0.24485 0.73727 0.0
N352 N 0.59327 0.18511 0.74241 0.0
C353 C 0.59149 0.20211 0.77869 0.0
Co354 Co 0.48872 0.62451 0.61524 0.0
Co355 Co 0.42436 0.56731 0.5714 0.0
O356 O 0.45523 0.60777 0.57092 0.0
C357 C 0.45844 0.65677 0.6363 0.0
O358 O 0.43461 0.63144 0.63611 0.0
C359 C 0.45013 0.57773 0.47143 0.0
O360 O 0.47532 0.59246 0.4936 0.0
O361 O 0.45249 0.55348 0.57722 0.0
O362 O 0.49489 0.59083 0.60338 0.0
H363 H 0.3713 0.46477 0.63382 0.0
H364 H 0.48546 0.65991 0.53306 0.0
O365 O 0.48276 0.65836 0.62836 0.0
H366 H 0.57385 0.65517 0.50055 0.0
H367 H 0.57982 0.70657 0.68842 0.0
H368 H 0.51084 0.60155 0.69381 0.0
H369 H 0.54372 0.63131 0.57452 0.0
H370 H 0.53775 0.68439 0.63173 0.0
O371 O 0.42684 0.56599 0.49691 0.0
H372 H 0.41006 0.51597 0.63386 0.0
H373 H 0.37267 0.53249 0.50737 0.0
H374 H 0.5527 0.62278 0.75094 0.0
H375 H 0.51507 0.68428 0.45883 0.0
H376 H 0.58754 0.67566 0.74845 0.0
H377 H 0.55956 0.6819 0.44212 0.0
O378 O 0.46417 0.60416 0.67396 0.0
H379 H 0.38512 0.6277 0.5002 0.0
H380 H 0.37024 0.55386 0.62546 0.0
H381 H 0.33571 0.57166 0.62074 0.0
H382 H 0.34305 0.60885 0.55774 0.0
H383 H 0.41922 0.60943 0.50646 0.0
H384 H 0.33361 0.4814 0.50571 0.0
H385 H 0.33271 0.44718 0.56939 0.0
O386 O 0.42185 0.56772 0.64559 0.0
C387 C 0.47893 0.56442 0.59006 0.0
C388 C 0.37139 0.47949 0.60599 0.0
C389 C 0.35026 0.48882 0.53404 0.0
N390 N 0.39348 0.52723 0.57092 0.0
C391 C 0.39323 0.50852 0.60592 0.0
C392 C 0.37245 0.5177 0.53511 0.0
C393 C 0.34977 0.46963 0.56979 0.0
C394 C 0.50496 0.65905 0.52629 0.0
N395 N 0.51294 0.64434 0.55818 0.0
C396 C 0.52157 0.67277 0.4841 0.0
C397 C 0.5465 0.67139 0.4747 0.0
C398 C 0.55452 0.65638 0.50745 0.0
C399 C 0.53735 0.64287 0.54922 0.0
C400 C 0.56483 0.68349 0.68977 0.0
C401 C 0.52603 0.62454 0.69227 0.0
C402 C 0.54096 0.67082 0.65783 0.0
N403 N 0.52203 0.64168 0.65919 0.0
C404 C 0.54963 0.63646 0.72481 0.0
C405 C 0.56915 0.66614 0.72344 0.0
C406 C 0.43892 0.58249 0.68092 0.0
C407 C 0.38163 0.61143 0.5277 0.0
C408 C 0.37357 0.57004 0.59796 0.0
C409 C 0.35393 0.58002 0.59542 0.0
C410 C 0.35806 0.60087 0.56005 0.0
N411 N 0.39661 0.58048 0.56605 0.0
C412 C 0.4008 0.60091 0.53127 0.0
Co413 Co 0.87961 0.49573 0.93171 0.0
Co414 Co 0.86785 0.42814 0.8973 0.0
O415 O 0.86134 0.46094 0.89038 0.0
C416 C 0.81706 0.47179 0.94894 0.0
O417 O 0.81512 0.44636 0.95209 0.0
C418 C 0.88679 0.45011 0.79665 0.0
O419 O 0.89903 0.47613 0.81611 0.0
O420 O 0.91041 0.45402 0.90431 0.0
O421 O 0.91804 0.49799 0.92549 0.0
H422 H 0.90962 0.37154 0.97509 0.0
H423 H 0.84481 0.49336 0.84397 0.0
O424 O 0.8414 0.49419 0.93941 0.0
H425 H 0.9428 0.57554 0.81238 0.0
H426 H 0.89669 0.59251 0.99087 0.0
H427 H 0.92238 0.51658 0.01409 0.0
H428 H 0.93192 0.54728 0.89018 0.0
H429 H 0.87463 0.54879 0.93802 0.0
O430 O 0.87291 0.42778 0.82384 0.0
H431 H 0.90123 0.41273 0.96674 0.0
H432 H 0.84794 0.37353 0.84006 0.0
H433 H 0.94513 0.56004 0.06752 0.0
H434 H 0.85467 0.52115 0.76577 0.0
H435 H 0.93229 0.59838 0.05606 0.0
H436 H 0.904 0.5625 0.74952 0.0
O437 O 0.87128 0.47221 0.99334 0.0
H438 H 0.77057 0.39311 0.81815 0.0
H439 H 0.82322 0.37719 0.95412 0.0
H440 H 0.7703 0.34546 0.9473 0.0
H441 H 0.74364 0.35332 0.8789 0.0
H442 H 0.82345 0.42448 0.82659 0.0
H443 H 0.85593 0.332 0.84679 0.0
H444 H 0.88688 0.33079 0.91482 0.0
O445 O 0.86335 0.42826 0.97056 0.0
C446 C 0.92713 0.48054 0.91552 0.0
C447 C 0.896 0.37176 0.94541 0.0
C448 C 0.86589 0.34959 0.87336 0.0
N449 N 0.87387 0.39537 0.90329 0.0
C450 C 0.89109 0.39497 0.94061 0.0
C451 C 0.86148 0.37317 0.8697 0.0
C452 C 0.88325 0.34892 0.91155 0.0
C453 C 0.86624 0.51152 0.83735 0.0
N454 N 0.88773 0.51877 0.87164 0.0
C455 C 0.87173 0.5271 0.79295 0.0
C456 C 0.89943 0.55027 0.78381 0.0
C457 C 0.92121 0.55758 0.81905 0.0
C458 C 0.91495 0.54147 0.86299 0.0
C459 C 0.90251 0.57599 -0.00386 0.0
C460 C 0.91685 0.53327 0.00866 0.0
C461 C 0.89006 0.55117 0.9664 0.0
N462 N 0.89742 0.53029 0.97272 0.0
C463 C 0.92973 0.55779 0.03912 0.0
C464 C 0.92249 0.57927 0.03271 0.0
C465 C 0.86536 0.44644 0.00326 0.0
C466 C 0.78196 0.38942 0.84803 0.0
C467 C 0.81175 0.38077 0.92429 0.0
C468 C 0.7818 0.3627 0.92057 0.0
C469 C 0.76686 0.36712 0.88217 0.0
N470 N 0.82641 0.40256 0.8906 0.0
C471 C 0.81191 0.40703 0.85287 0.0
Co472 Co 0.37849 0.88066 0.29428 0.0
Co473 Co 0.43213 0.86851 0.24847 0.0
O474 O 0.39256 0.86175 0.24906 0.0
C475 C 0.33993 0.81824 0.3141 0.0
O476 O 0.36351 0.81639 0.3154 0.0
C477 C 0.42225 0.88241 0.14678 0.0
O478 O 0.40955 0.89548 0.16712 0.0
O479 O 0.44903 0.91127 0.25087 0.0
O480 O 0.41476 0.91892 0.28395 0.0
H481 H 0.53533 0.9136 0.30614 0.0
H482 H 0.3416 0.84528 0.21034 0.0
O483 O 0.3418 0.84262 0.30559 0.0
H484 H 0.35693 0.94324 0.18248 0.0
H485 H 0.30261 0.89919 0.36802 0.0
H486 H 0.40488 0.92428 0.37482 0.0
H487 H 0.37792 0.93282 0.25604 0.0
H488 H 0.32117 0.87623 0.31046 0.0
O489 O 0.43257 0.87021 0.17395 0.0
H490 H 0.48536 0.90479 0.30733 0.0
H491 H 0.46288 0.84623 0.18598 0.0
H492 H 0.38729 0.94792 0.43283 0.0
H493 H 0.31997 0.85467 0.13649 0.0
H494 H 0.33581 0.93539 0.42963 0.0
H495 H 0.32769 0.90398 0.1221 0.0
O496 O 0.39643 0.87273 0.35279 0.0
H497 H 0.3646 0.76799 0.18566 0.0
H498 H 0.44249 0.82655 0.30532 0.0
H499 H 0.42084 0.77348 0.30482 0.0
H500 H 0.38159 0.74383 0.24468 0.0
H501 H 0.38672 0.8211 0.18767 0.0
H502 H 0.51266 0.85457 0.18321 0.0
H503 H 0.54925 0.88839 0.24373 0.0
O504 O 0.43265 0.86722 0.32262 0.0
C505 C 0.44024 0.92802 0.26682 0.0
C506 C 0.51956 0.89873 0.27969 0.0
C507 C 0.50684 0.86563 0.21066 0.0
N508 N 0.47118 0.87483 0.24706 0.0
C509 C 0.49121 0.89359 0.28029 0.0
C510 C 0.47871 0.86103 0.21235 0.0
C511 C 0.52736 0.8846 0.24463 0.0
C512 C 0.34481 0.86672 0.20456 0.0
N513 N 0.36096 0.88847 0.23748 0.0
C514 C 0.33261 0.87194 0.16259 0.0
C515 C 0.337 0.89962 0.15449 0.0
C516 C 0.35343 0.92167 0.18833 0.0
C517 C 0.36534 0.91567 0.22983 0.0
C518 C 0.3251 0.90487 0.3697 0.0
C519 C 0.38249 0.91887 0.373 0.0
C520 C 0.33572 0.8919 0.33728 0.0
N521 N 0.36413 0.89909 0.33905 0.0
C522 C 0.37264 0.93225 0.40603 0.0
C523 C 0.34374 0.92519 0.40425 0.0
C524 C 0.41782 0.86864 0.35861 0.0
C525 C 0.38174 0.78068 0.21194 0.0
C526 C 0.42542 0.81379 0.27904 0.0
C527 C 0.41327 0.78376 0.27889 0.0
C528 C 0.39126 0.76714 0.24511 0.0
N529 N 0.41598 0.82691 0.24636 0.0
C530 C 0.39443 0.81077 0.2131 0.0
Co531 Co 0.5086 0.37857 0.61739 0.0
Co532 Co 0.57354 0.43509 0.57398 0.0
O533 O 0.54207 0.3949 0.57301 0.0
C534 C 0.53756 0.34508 0.63694 0.0
O535 O 0.56167 0.37015 0.63678 0.0
C536 C 0.549 0.42493 0.47293 0.0
O537 O 0.52338 0.41135 0.494 0.0
O538 O 0.54593 0.44967 0.57858 0.0
O539 O 0.5036 0.41303 0.60666 0.0
H540 H 0.62767 0.53755 0.63654 0.0
H541 H 0.51078 0.34333 0.53392 0.0
O542 O 0.51344 0.34398 0.62936 0.0
H543 H 0.42389 0.35105 0.50314 0.0
H544 H 0.41639 0.29748 0.68939 0.0
H545 H 0.48749 0.40192 0.69697 0.0
H546 H 0.4542 0.37362 0.57747 0.0
H547 H 0.45852 0.31916 0.6328 0.0
O548 O 0.57184 0.43631 0.49952 0.0
H549 H 0.58823 0.48663 0.63605 0.0
H550 H 0.62599 0.46917 0.51114 0.0
H551 H 0.44557 0.38119 0.75402 0.0
H552 H 0.48098 0.32023 0.45929 0.0
H553 H 0.40967 0.32861 0.75043 0.0
H554 H 0.43724 0.32411 0.44344 0.0
O555 O 0.5334 0.39775 0.67643 0.0
H556 H 0.61152 0.37303 0.50529 0.0
H557 H 0.62701 0.44764 0.62937 0.0
H558 H 0.6608 0.42888 0.62608 0.0
H559 H 0.65314 0.39131 0.56368 0.0
H560 H 0.57814 0.39223 0.5101 0.0
H561 H 0.66574 0.51996 0.51002 0.0
H562 H 0.66679 0.5545 0.57318 0.0
O563 O 0.57551 0.43451 0.64814 0.0
C564 C 0.51969 0.43922 0.59228 0.0
C565 C 0.62751 0.52268 0.60894 0.0
C566 C 0.64886 0.51282 0.53789 0.0
N567 N 0.60496 0.47492 0.57387 0.0
C568 C 0.60529 0.49381 0.60858 0.0
C569 C 0.62627 0.48411 0.53864 0.0
C570 C 0.64944 0.53219 0.57334 0.0
C571 C 0.49162 0.34486 0.52751 0.0
N572 N 0.48417 0.35971 0.56007 0.0
C573 C 0.47489 0.33184 0.4851 0.0
C574 C 0.45038 0.33407 0.47619 0.0
C575 C 0.44289 0.3492 0.50965 0.0
C576 C 0.46016 0.36199 0.55161 0.0
C577 C 0.43185 0.32043 0.69123 0.0
C578 C 0.47184 0.37906 0.69496 0.0
C579 C 0.45575 0.33281 0.65935 0.0
N580 N 0.47527 0.36181 0.66132 0.0
C581 C 0.4482 0.36743 0.72745 0.0
C582 C 0.42809 0.33791 0.72546 0.0
C583 C 0.55875 0.41923 0.68338 0.0
C584 C 0.61513 0.38947 0.53253 0.0
C585 C 0.62354 0.43129 0.60211 0.0
C586 C 0.64276 0.42078 0.60039 0.0
C587 C 0.63846 0.39971 0.56535 0.0
N588 N 0.60073 0.42116 0.56975 0.0
C589 C 0.59638 0.40052 0.53528 0.0
Co590 Co 0.14162 0.50531 0.93097 0.0
Co591 Co 0.15031 0.57311 0.90918 0.0
O592 O 0.15956 0.54266 0.89697 0.0
C593 C 0.20349 0.53371 0.95572 0.0
O594 O 0.20159 0.55701 0.96254 0.0
C595 C 0.13781 0.55795 0.80284 0.0
O596 O 0.12642 0.53088 0.81688 0.0
O597 O 0.1082 0.54483 0.90926 0.0
O598 O 0.10205 0.50039 0.92126 0.0
H599 H 0.09971 0.61912 -0.00558 0.0
H600 H 0.18234 0.51661 0.84745 0.0
O601 O 0.18116 0.51014 0.94221 0.0
H602 H 0.08958 0.43309 0.794 0.0
H603 H 0.13064 0.40845 0.97248 0.0
H604 H 0.09442 0.47555 0.00501 0.0
H605 H 0.09419 0.45527 0.87671 0.0
H606 H 0.15207 0.45557 0.92938 0.0
O607 O 0.14851 0.57822 0.83514 0.0
H608 H 0.11185 0.58089 0.9794 0.0
H609 H 0.16906 0.63048 0.86257 0.0
H610 H 0.0722 0.42856 0.04864 0.0
H611 H 0.17875 0.49498 0.76455 0.0
H612 H 0.09033 0.39465 0.03246 0.0
H613 H 0.13207 0.45299 0.73728 0.0
O614 O 0.14458 0.52361 -0.00314 0.0
H615 H 0.25185 0.61873 0.84288 0.0
H616 H 0.18983 0.621 0.97701 0.0
H617 H 0.2424 0.6554 0.97917 0.0
H618 H 0.27378 0.65438 0.91175 0.0
H619 H 0.1992 0.58459 0.84238 0.0
H620 H 0.15738 0.66917 0.87605 0.0
H621 H 0.12255 0.66365 0.94251 0.0
O622 O 0.1515 0.56816 0.98302 0.0
C623 C 0.09216 0.51753 0.91446 0.0
C624 C 0.115 0.62183 0.96547 0.0
C625 C 0.14733 0.6499 0.89898 0.0
N626 N 0.14132 0.60358 0.92045 0.0
C627 C 0.12202 0.6003 0.9569 0.0
C628 C 0.15382 0.62791 0.89146 0.0
C629 C 0.1278 0.64679 0.93629 0.0
C630 C 0.16205 0.49814 0.83604 0.0
N631 N 0.13855 0.48712 0.86693 0.0
C632 C 0.16011 0.48606 0.78899 0.0
C633 C 0.1339 0.46253 0.77368 0.0
C634 C 0.11004 0.45137 0.80547 0.0
C635 C 0.11277 0.46404 0.85222 0.0
C636 C 0.1225 0.42301 0.97975 0.0
C637 C 0.10227 0.46081 -0.00249 0.0
C638 C 0.13458 0.44973 0.95552 0.0
N639 N 0.12432 0.46814 0.96437 0.0
C640 C 0.08967 0.43428 0.02244 0.0
C641 C 0.09988 0.41527 0.01339 0.0
C642 C 0.14845 0.54789 0.01216 0.0
C643 C 0.23839 0.61945 0.87238 0.0
C644 C 0.20335 0.62045 0.94753 0.0
C645 C 0.23309 0.63999 0.94892 0.0
C646 C 0.25069 0.63942 0.91107 0.0
N647 N 0.19145 0.60094 0.90942 0.0
C648 C 0.20855 0.60026 0.87216 0.0
Co649 Co 0.62929 0.14447 0.27767 0.0
Co650 Co 0.56909 0.15115 0.25486 0.0
O651 O 0.60922 0.16155 0.24337 0.0
C652 C 0.66147 0.2065 0.30278 0.0
O653 O 0.6358 0.20339 0.31031 0.0
C654 C 0.57256 0.13941 0.14832 0.0
O655 O 0.58884 0.12872 0.16227 0.0
O656 O 0.5562 0.10931 0.25425 0.0
O657 O 0.59508 0.10429 0.26758 0.0
H658 H 0.47166 0.09772 0.3377 0.0
H659 H 0.65843 0.18561 0.19445 0.0
O660 O 0.66356 0.18469 0.28916 0.0
H661 H 0.65174 0.09411 0.14106 0.0
H662 H 0.71669 0.13634 0.32003 0.0
H663 H 0.61262 0.09732 0.35145 0.0
H664 H 0.63341 0.09797 0.2235 0.0
H665 H 0.69016 0.15675 0.27682 0.0
O666 O 0.56257 0.14962 0.18071 0.0
H667 H 0.52259 0.11134 0.32379 0.0
H668 H 0.52977 0.16881 0.20792 0.0
H669 H 0.63824 0.07611 0.39519 0.0
H670 H 0.67722 0.18278 0.11182 0.0
H671 H 0.69065 0.09565 0.37955 0.0
H672 H 0.67381 0.13673 0.08459 0.0
O673 O 0.61326 0.14667 0.34338 0.0
H674 H 0.62369 0.25323 0.1907 0.0
H675 H 0.55911 0.18934 0.32311 0.0
H676 H 0.57623 0.24165 0.32624 0.0
H677 H 0.60877 0.27397 0.25969 0.0
H678 H 0.60621 0.20083 0.18923 0.0
H679 H 0.47882 0.15563 0.22029 0.0
H680 H 0.44944 0.11992 0.28571 0.0
O681 O 0.57465 0.15186 0.32883 0.0
C682 C 0.56792 0.09378 0.26002 0.0
C683 C 0.48426 0.11338 0.3092 0.0
C684 C 0.48827 0.14586 0.24326 0.0
N685 N 0.52918 0.14103 0.26538 0.0
C686 C 0.51314 0.12126 0.30127 0.0
C687 C 0.51708 0.15319 0.23636 0.0
C688 C 0.4718 0.12582 0.27998 0.0
C689 C 0.65718 0.16561 0.18307 0.0
N690 N 0.64499 0.14204 0.21382 0.0
C691 C 0.66773 0.16409 0.13616 0.0
C692 C 0.66577 0.13823 0.12087 0.0
C693 C 0.65336 0.1143 0.15252 0.0
C694 C 0.64299 0.1166 0.19912 0.0
C695 C 0.69384 0.1276 0.32707 0.0
C696 C 0.63539 0.10579 0.34422 0.0
C697 C 0.67873 0.1391 0.30279 0.0
N698 N 0.64984 0.12806 0.31132 0.0
C699 C 0.64979 0.09376 0.3692 0.0
C700 C 0.67921 0.10476 0.36045 0.0
C701 C 0.59204 0.14932 0.3583 0.0
C702 C 0.60944 0.23936 0.21982 0.0
C703 C 0.57324 0.20327 0.294 0.0
C704 C 0.58285 0.23286 0.29594 0.0
C705 C 0.60109 0.25098 0.25858 0.0
N706 N 0.58151 0.19204 0.25583 0.0
C707 C 0.59937 0.20966 0.21905 0.0
H708 H 0.46249 0.58321 0.23753 0.0
H709 H 0.38692 0.49831 0.25077 0.0
H710 H 0.38779 0.50366 0.34154 0.0
H711 H 0.41007 0.53266 0.41706 0.0
H712 H 0.48781 0.61591 0.4039 0.0
H713 H 0.48607 0.61112 0.31305 0.0
C714 C 0.44622 0.56591 0.26037 0.0
C715 C 0.4246 0.54049 0.23772 0.0
C716 C 0.44724 0.56889 0.3124 0.0
C717 C 0.40384 0.51804 0.26755 0.0
C718 C 0.40427 0.52113 0.31935 0.0
C719 C 0.42652 0.54975 0.39415 0.0
C720 C 0.44889 0.57468 0.41681 0.0
C721 C 0.42583 0.54649 0.34214 0.0
C722 C 0.4704 0.59652 0.38707 0.0
C723 C 0.4694 0.59381 0.33522 0.0
H724 H 0.88546 0.41543 0.57283 0.0
H725 H 0.87414 0.48915 0.55116 0.0
H726 H 0.87826 0.49817 0.64116 0.0
H727 H 0.8839 0.4842 0.72586 0.0
H728 H 0.89034 0.40766 0.74774 0.0
H729 H 0.88952 0.40059 0.65742 0.0
C730 C 0.88407 0.43354 0.58793 0.0
C731 C 0.87971 0.45175 0.55593 0.0
C732 C 0.88561 0.43803 0.63946 0.0
C733 C 0.87743 0.47487 0.57553 0.0
C734 C 0.87986 0.48006 0.62677 0.0
C735 C 0.88539 0.46617 0.71062 0.0
C736 C 0.88744 0.4466 0.74273 0.0
C737 C 0.88383 0.4617 0.65904 0.0
C738 C 0.88878 0.42295 0.7232 0.0
C739 C 0.88831 0.41891 0.6718 0.0
H740 H 0.41377 0.87684 0.91214 0.0
H741 H 0.4944 0.87753 0.92921 0.0
H742 H 0.49051 0.87891 0.02004 0.0
H743 H 0.46412 0.87991 0.09436 0.0
H744 H 0.38558 0.88329 0.07719 0.0
H745 H 0.3887 0.88044 0.98642 0.0
C746 C 0.4304 0.8772 0.93587 0.0
C747 C 0.4542 0.87683 0.91435 0.0
C748 C 0.42842 0.87881 0.98782 0.0
C749 C 0.4759 0.8778 0.94518 0.0
C750 C 0.47366 0.87855 -0.00301 0.0
C751 C 0.44769 0.87999 0.07065 0.0
C752 C 0.42456 0.88159 0.09216 0.0
C753 C 0.45002 0.87905 0.01868 0.0
C754 C 0.40362 0.88212 0.06126 0.0
C755 C 0.40534 0.88041 0.00948 0.0
H756 H 0.54363 0.41041 0.23916 0.0
H757 H 0.62547 0.48992 0.25097 0.0
H758 H 0.62084 0.48862 0.34182 0.0
H759 H 0.59352 0.46488 0.4177 0.0
H760 H 0.51006 0.38724 0.40578 0.0
H761 H 0.51518 0.38786 0.31503 0.0
C762 C 0.56045 0.42735 0.26177 0.0
C763 C 0.58493 0.45009 0.23874 0.0
C764 C 0.55728 0.42686 0.31377 0.0
C765 C 0.60642 0.47221 0.26809 0.0
C766 C 0.6038 0.47147 0.31993 0.0
C767 C 0.57647 0.44812 0.39516 0.0
C768 C 0.55153 0.42599 0.41819 0.0
C769 C 0.57933 0.44892 0.34313 0.0
C770 C 0.52941 0.40457 0.38872 0.0
C771 C 0.53238 0.40484 0.33692 0.0
H772 H 0.13578 0.60165 0.58491 0.0
H773 H 0.14064 0.52569 0.54748 0.0
H774 H 0.14085 0.51487 0.63617 0.0
H775 H 0.13906 0.52674 0.72429 0.0
H776 H 0.13792 0.60468 0.76177 0.0
H777 H 0.13694 0.6151 0.67308 0.0
C778 C 0.13684 0.58271 0.59626 0.0
C779 C 0.1379 0.56431 0.55987 0.0
C780 C 0.13764 0.57703 0.64722 0.0
C781 C 0.13979 0.54013 0.57492 0.0
C782 C 0.13985 0.53392 0.62555 0.0
C783 C 0.13856 0.54599 0.71296 0.0
C784 C 0.13828 0.56479 0.74937 0.0
C785 C 0.13867 0.55215 0.66201 0.0
C786 C 0.13814 0.5899 0.73432 0.0
C787 C 0.13751 0.59582 0.68369 0.0
H788 H 0.60409 0.13981 0.06878 0.0
H789 H 0.52515 0.13845 0.1084 0.0
H790 H 0.51227 0.13568 0.02015 0.0
H791 H 0.5231 0.1328 0.93176 0.0
H792 H 0.60367 0.13766 0.89195 0.0
H793 H 0.61632 0.13994 0.98023 0.0
C794 C 0.58407 0.13891 0.05802 0.0
C795 C 0.56546 0.13907 0.09496 0.0
C796 C 0.57711 0.13791 0.00725 0.0
C797 C 0.53982 0.13837 0.08058 0.0
C798 C 0.53241 0.13669 0.03018 0.0
C799 C 0.5434 0.13432 0.9425 0.0
C800 C 0.56231 0.13476 0.90554 0.0
C801 C 0.55081 0.13629 0.99322 0.0
C802 C 0.58877 0.13725 0.9198 0.0
C803 C 0.59598 0.1385 0.97022 0.0
H804 H 0.33094 0.5624 0.00123 0.0
H805 H 0.28925 0.46918 0.00421 0.0
H806 H 0.24281 0.46545 0.98444 0.0
H807 H 0.21388 0.48882 0.96682 0.0
H808 H 0.25618 0.58214 0.96544 0.0
H809 H 0.30244 0.58556 0.98371 0.0
C810 C 0.31174 0.54122 -0.00248 0.0
C811 C 0.31364 0.51613 0.00416 0.0
C812 C 0.28514 0.53923 0.98628 0.0
C813 C 0.28844 0.48889 -0.00061 0.0
C814 C 0.26185 0.48672 0.98797 0.0
C815 C 0.23327 0.50988 0.97024 0.0
C816 C 0.23152 0.53516 0.96481 0.0
C817 C 0.25993 0.51176 0.98132 0.0
C818 C 0.25682 0.5623 0.96968 0.0
C819 C 0.28335 0.56432 0.98012 0.0
H820 H 0.75592 0.33735 0.33837 0.0
H821 H 0.81223 0.30125 0.34444 0.0
H822 H 0.77092 0.25291 0.32861 0.0
H823 H 0.71835 0.22066 0.31318 0.0
H824 H 0.66286 0.25783 0.30895 0.0
H825 H 0.70424 0.30574 0.32353 0.0
C826 C 0.75926 0.31896 0.33623 0.0
C827 C 0.78722 0.32304 0.34255 0.0
C828 C 0.73546 0.29127 0.32726 0.0
C829 C 0.79097 0.29881 0.33984 0.0
C830 C 0.76734 0.27112 0.33066 0.0
C831 C 0.71539 0.23929 0.31523 0.0
C832 C 0.68745 0.23553 0.31003 0.0
C833 C 0.73943 0.26706 0.32424 0.0
C834 C 0.68401 0.25993 0.31308 0.0
C835 C 0.70771 0.28745 0.3214 0.0
H836 H 0.42929 0.75584 0.67727 0.0
H837 H 0.52248 0.80739 0.6845 0.0
H838 H 0.52625 0.76448 0.66739 0.0
H839 H 0.50305 0.71213 0.65031 0.0
H840 H 0.40979 0.66093 0.6438 0.0
H841 H 0.40622 0.70385 0.66051 0.0
C842 C 0.45046 0.75776 0.67508 0.0
C843 C 0.47554 0.78488 0.68211 0.0
C844 C 0.4525 0.733 0.66528 0.0
C845 C 0.50277 0.78682 0.67928 0.0
C846 C 0.50497 0.76227 0.66943 0.0
C847 C 0.48195 0.71037 0.65244 0.0
C848 C 0.45675 0.68326 0.64584 0.0
C849 C 0.47998 0.73522 0.66231 0.0
C850 C 0.42958 0.68143 0.64889 0.0
C851 C 0.42748 0.70601 0.65842 0.0
H852 H 0.72021 0.50386 -0.00494 0.0
H853 H 0.66936 0.4111 0.01298 0.0
H854 H 0.71134 0.40664 0.99256 0.0
H855 H 0.76242 0.42873 0.96983 0.0
H856 H 0.81379 0.52136 0.95128 0.0
H857 H 0.77172 0.52609 0.97135 0.0
C858 C 0.71836 0.4827 -0.00538 0.0
C859 C 0.69162 0.45789 0.00554 0.0
C860 C 0.74267 0.48018 0.98251 0.0
C861 C 0.6896 0.4306 0.00456 0.0
C862 C 0.71363 0.42798 0.99289 0.0
C863 C 0.76447 0.44998 0.97003 0.0
C864 C 0.79128 0.47463 0.95908 0.0
C865 C 0.74024 0.45258 0.98173 0.0
C866 C 0.79342 0.50198 0.95949 0.0
C867 C 0.76937 0.50473 0.9711 0.0
H868 H 0.21001 0.71789 0.3477 0.0
H869 H 0.25275 0.6675 0.353 0.0
H870 H 0.29943 0.71099 0.34099 0.0
H871 H 0.32842 0.76307 0.32724 0.0
H872 H 0.28675 0.81434 0.32019 0.0
H873 H 0.23966 0.77096 0.33438 0.0
C874 C 0.22958 0.71652 0.34651 0.0
C875 C 0.22774 0.68938 0.3511 0.0
C876 C 0.25666 0.74179 0.33899 0.0
C877 C 0.25336 0.68799 0.34923 0.0
C878 C 0.28018 0.7129 0.34239 0.0
C879 C 0.30909 0.76486 0.32889 0.0
C880 C 0.31123 0.792 0.32265 0.0
C881 C 0.2821 0.73986 0.33687 0.0
C882 C 0.28581 0.79375 0.32478 0.0
C883 C 0.25883 0.76892 0.33297 0.0
H884 H 0.56489 0.24474 0.67468 0.0
H885 H 0.47258 0.19605 0.69908 0.0
H886 H 0.46928 0.23925 0.68155 0.0
H887 H 0.49275 0.29101 0.65901 0.0
H888 H 0.58527 0.33925 0.63615 0.0
H889 H 0.58822 0.29602 0.6531 0.0
C890 C 0.544 0.24349 0.67616 0.0
C891 C 0.51902 0.21714 0.68806 0.0
C892 C 0.54227 0.26836 0.66617 0.0
C893 C 0.49218 0.21606 0.69008 0.0
C894 C 0.49026 0.24075 0.67995 0.0
C895 C 0.51353 0.29201 0.65757 0.0
C896 C 0.53873 0.31836 0.64631 0.0
C897 C 0.51517 0.26703 0.66783 0.0
C898 C 0.56552 0.31932 0.6449 0.0
C899 C 0.56726 0.29458 0.65456 0.0
H900 H 0.50116 0.54352 0.06842 0.0
H901 H 0.43063 0.45513 0.06203 0.0
H902 H 0.46496 0.43778 0.06348 0.0
H903 H 0.51461 0.44742 0.06581 0.0
H904 H 0.58581 0.53548 0.06805 0.0
H905 H 0.5515 0.55323 0.06886 0.0
C906 C 0.49328 0.52045 0.0676 0.0
C907 C 0.46325 0.50067 0.06547 0.0
C908 C 0.51323 0.51056 0.06757 0.0
C909 C 0.45351 0.47087 0.06374 0.0
C910 C 0.47316 0.4609 0.06459 0.0
C911 C 0.52277 0.47054 0.06672 0.0
C912 C 0.55283 0.49008 0.06726 0.0
C913 C 0.50301 0.48053 0.06643 0.0
C914 C 0.56283 0.51995 0.06769 0.0
C915 C 0.54321 0.5301 0.06821 0.0
H916 H 0.96484 0.45208 0.3871 0.0
H917 H 0.94081 0.51806 0.38368 0.0
H918 H 0.99178 0.55569 0.3857 0.0
H919 H 0.04362 0.57009 0.3888 0.0
H920 H 0.06658 0.50324 0.3947 0.0
H921 H 0.01592 0.46619 0.39151 0.0
C922 C 0.97067 0.47466 0.38667 0.0
C923 C 0.94886 0.48206 0.38519 0.0
C924 C 1.00004 0.49627 0.38846 0.0
C925 C 0.95703 0.51158 0.38494 0.0
C926 C 0.98625 0.53321 0.38608 0.0
C927 C 0.03755 0.54744 0.3895 0.0
C928 C 0.05918 0.53974 0.39206 0.0
C929 C 0.00801 0.52584 0.38798 0.0
C930 C 0.05068 0.51012 0.39295 0.0
C931 C 0.02156 0.48872 0.391 0.0
H932 H 0.54685 0.05686 0.73667 0.0
H933 H 0.45883 0.03887 0.75167 0.0
H934 H 0.4416 0.98703 0.75425 0.0
H935 H 0.45136 0.94681 0.75097 0.0
H936 H 0.53917 0.9648 0.73219 0.0
H937 H 0.55655 0.01666 0.73245 0.0
C938 C 0.52389 0.04167 0.7408 0.0
C939 C 0.50422 0.05189 0.74426 0.0
C940 C 0.51405 0.01185 0.7415 0.0
C941 C 0.47451 0.03173 0.74898 0.0
C942 C 0.46461 1.00204 0.75048 0.0
C943 C 0.47434 0.96203 0.74721 0.0
C944 C 0.49391 0.95178 0.74185 0.0
C945 C 0.48418 0.99185 0.74662 0.0
C946 C 0.52358 0.97195 0.73644 0.0
C947 C 0.53356 1.00166 0.73659 0.0
H948 H 0.44963 0.5056 0.59043 0.0
H949 H 0.53619 0.57955 0.59012 0.0
H950 H 0.55628 0.54728 0.58976 0.0
H951 H 0.54924 0.49816 0.58971 0.0
H952 H 0.46261 0.42438 0.59407 0.0
H953 H 0.44261 0.45664 0.59268 0.0
C954 C 0.47292 0.51475 0.59006 0.0
C955 C 0.49136 0.54504 0.5899 0.0
C956 C 0.48431 0.4961 0.59063 0.0
C957 C 0.52147 0.55638 0.59017 0.0
C958 C 0.53298 0.53793 0.58991 0.0
C959 C 0.52596 0.48906 0.59015 0.0
C960 C 0.50747 0.45879 0.59161 0.0
C961 C 0.5146 0.50776 0.59012 0.0
C962 C 0.47737 0.44752 0.59288 0.0
C963 C 0.46591 0.46597 0.59203 0.0
H964 H 0.06363 0.54755 0.9196 0.0
H965 H 0.04896 0.46058 0.90765 0.0
H966 H 0.99664 0.4415 0.90655 0.0
H967 H 0.95516 0.44964 0.9091 0.0
H968 H 0.97061 0.53685 0.92367 0.0
H969 H 0.02263 0.5556 0.92368 0.0
C970 C 0.0491 0.52439 0.91652 0.0
C971 C 0.06035 0.50557 0.91336 0.0
C972 C 0.01914 0.51358 0.91646 0.0
C973 C 0.041 0.47561 0.91002 0.0
C974 C 0.01105 0.46468 0.90938 0.0
C975 C 0.96986 0.47277 0.91216 0.0
C976 C 0.95882 0.49177 0.91607 0.0
C977 C 0.99989 0.48349 0.91258 0.0
C978 C 0.97833 0.52165 0.92049 0.0
C979 C 0.00815 0.53244 0.92047 0.0
H980 H 0.49917 0.95646 0.25487 0.0
H981 H 0.42751 0.9713 0.27667 0.0
H982 H 0.46059 0.02334 0.27508 0.0
H983 H 0.50944 0.06455 0.26833 0.0
H984 H 0.58205 0.05094 0.25057 0.0
H985 H 0.54892 0.99845 0.24982 0.0
C986 C 0.49075 0.97106 0.25906 0.0
C987 C 0.46072 0.95978 0.26552 0.0
C988 C 0.51005 1.00118 0.25892 0.0
C989 C 0.45037 0.97916 0.2715 0.0
C990 C 0.46931 0.00901 0.2706 0.0
C991 C 0.51819 0.05024 0.26404 0.0
C992 C 0.5483 0.06184 0.25914 0.0
C993 C 0.49913 0.02023 0.2644 0.0
C994 C 0.55903 0.04271 0.25431 0.0
C995 C 0.54007 0.01268 0.25386 0.0
H996 H 0.46767 0.6091 0.766 0.0
H997 H 0.38903 0.53482 0.71292 0.0
H998 H 0.37574 0.5174 0.7983 0.0
H999 H 0.38733 0.5222 0.88751 0.0
H1000 H 0.46587 0.5967 0.94024 0.0
H1001 H 0.47822 0.61497 0.85522 0.0
C1002 C 0.4475 0.58918 0.77296 0.0
C1003 C 0.42951 0.57325 0.73291 0.0
C1004 C 0.44002 0.57918 0.82205 0.0
C1005 C 0.40338 0.54756 0.74291 0.0
C1006 C 0.39577 0.5375 0.79175 0.0
C1007 C 0.40717 0.54243 0.88047 0.0
C1008 C 0.42574 0.55789 0.92023 0.0
C1009 C 0.41412 0.55294 0.83151 0.0
C1010 C 0.45118 0.58426 0.91041 0.0
C1011 C 0.4583 0.59476 0.86177 0.0
H1012 H 0.85729 0.39582 0.21752 0.0
H1013 H 0.84828 0.46937 0.25676 0.0
H1014 H 0.84892 0.48113 0.1688 0.0
H1015 H 0.85564 0.47263 0.08146 0.0
H1016 H 0.86442 0.3989 0.04256 0.0
H1017 H 0.86018 0.38514 0.13004 0.0
C1018 C 0.85526 0.41432 0.20691 0.0
C1019 C 0.85321 0.43193 0.24365 0.0
C1020 C 0.85581 0.42108 0.15645 0.0
C1021 C 0.85011 0.45554 0.22923 0.0
C1022 C 0.85057 0.46237 0.17895 0.0
C1023 C 0.85655 0.45351 0.09209 0.0
C1024 C 0.8608 0.4371 0.0557 0.0
C1025 C 0.85405 0.44565 0.14237 0.0
C1026 C 0.86139 0.41206 0.06991 0.0
C1027 C 0.85898 0.40416 0.11991 0.0
H1028 H 0.47336 0.86242 0.56225 0.0
H1029 H 0.39514 0.85694 0.6196 0.0
H1030 H 0.37922 0.85813 0.53492 0.0
H1031 H 0.38831 0.86269 0.44483 0.0
H1032 H 0.46633 0.86762 0.38773 0.0
H1033 H 0.48134 0.86463 0.47219 0.0
C1034 C 0.45274 0.86132 0.55635 0.0
C1035 C 0.43563 0.8598 0.5974 0.0
C1036 C 0.44367 0.86204 0.50757 0.0
C1037 C 0.40887 0.8582 0.58882 0.0
C1038 C 0.39972 0.85894 0.54035 0.0
C1039 C 0.40857 0.86305 0.45078 0.0
C1040 C 0.42621 0.86561 0.40989 0.0
C1041 C 0.41711 0.86121 0.49949 0.0
C1042 C 0.45229 0.86576 0.4184 0.0
C1043 C 0.46095 0.86406 0.46675 0.0
H1044 H 0.53415 0.38753 0.76717 0.0
H1045 H 0.60779 0.46731 0.71603 0.0
H1046 H 0.62501 0.47992 0.80155 0.0
H1047 H 0.6185 0.46916 0.89058 0.0
H1048 H 0.54506 0.3894 0.94224 0.0
H1049 H 0.52864 0.37587 0.85636 0.0
C1050 C 0.55398 0.40769 0.77464 0.0
C1051 C 0.5695 0.42652 0.73517 0.0
C1052 C 0.56386 0.41481 0.82388 0.0
C1053 C 0.59532 0.45241 0.7456 0.0
C1054 C 0.60522 0.45967 0.79453 0.0
C1055 C 0.59895 0.44872 0.88322 0.0
C1056 C 0.58297 0.43043 0.92295 0.0
C1057 C 0.58955 0.44113 0.83392 0.0
C1058 C 0.55781 0.40395 0.91247 0.0
C1059 C 0.54833 0.39621 0.86336 0.0
H1060 H 0.14977 0.59318 0.06153 0.0
H1061 H 0.14998 0.51334 0.08595 0.0
H1062 H 0.15088 0.52043 0.17583 0.0
H1063 H 0.15041 0.54853 0.24771 0.0
H1064 H 0.14895 0.62772 0.22323 0.0
H1065 H 0.14985 0.62155 0.13336 0.0
C1066 C 0.15014 0.57736 0.08642 0.0
C1067 C 0.14976 0.55275 0.06678 0.0
C1068 C 0.1504 0.58137 0.13822 0.0
C1069 C 0.15015 0.53247 0.09983 0.0
C1070 C 0.1507 0.53648 0.15136 0.0
C1071 C 0.15044 0.56454 0.2228 0.0
C1072 C 0.14957 0.58851 0.24242 0.0
C1073 C 0.15065 0.56076 0.17099 0.0
C1074 C 0.14951 0.60897 0.20936 0.0
C1075 C 0.15003 0.60549 0.15784 0.0
H1076 H 0.58919 0.14568 0.59367 0.0
H1077 H 0.50537 0.13697 0.56727 0.0
H1078 H 0.51409 0.1404 0.4776 0.0
H1079 H 0.54512 0.14522 0.4065 0.0
H1080 H 0.62845 0.15284 0.43309 0.0
H1081 H 0.62022 0.15066 0.52276 0.0
C1082 C 0.57279 0.14457 0.56842 0.0
C1083 C 0.54666 0.14105 0.58745 0.0
C1084 C 0.57783 0.14642 0.51679 0.0
C1085 C 0.52569 0.1396 0.55389 0.0
C1086 C 0.53065 0.14161 0.50249 0.0
C1087 C 0.56158 0.14656 0.43184 0.0
C1088 C 0.58736 0.1492 0.41285 0.0
C1089 C 0.55661 0.14496 0.48351 0.0
C1090 C 0.60834 0.15075 0.44645 0.0
C1091 C 0.60368 0.14949 0.49785 0.0
loop_
_geom_bond_atom_site_label_1
_geom_bond_atom_site_label_2
_geom_bond_distance
_geom_bond_site_symmetry_2
_ccdc_geom_bond_type
Co0 O2 2.143 . S
Co0 O8 2.074 . S
Co0 O11 2.093 . S
Co0 O24 2.097 1_554 S
Co0 N41 2.151 . S
Co0 N49 2.214 1_554 S
Co1 O2 2.160 . S
Co1 O7 2.058 . S
Co1 O17 2.057 . S
Co1 O32 2.037 1_554 S
Co1 N36 2.145 . S
Co1 N57 2.257 . S
O2 Co0 2.143 . S
O2 Co1 2.160 . S
C3 O4 1.278 . S
C3 O11 1.224 . S
O4 C3 1.278 . S
C5 O6 1.245 . S
C5 O17 1.232 . S
O6 C5 1.245 . S
O7 Co1 2.058 . S
O7 C33 1.269 . S
O8 Co0 2.074 . S
O8 C33 1.257 . S
H9 C34 0.930 . S
H10 C40 0.930 . S
O11 Co0 2.093 . S
O11 C3 1.224 . S
H12 C44 0.929 . S
H13 C46 0.930 . S
H14 C47 0.930 . S
H15 C45 0.929 . S
H16 C48 0.928 . S
O17 Co1 2.057 . S
O17 C5 1.232 . S
H18 C37 0.929 . S
H19 C38 0.929 . S
H20 C50 0.931 . S
H21 C42 0.929 . S
H22 C51 0.930 . S
H23 C43 0.931 . S
O24 Co0 2.097 1_556 S
O24 C52 1.214 . S
H25 C53 0.929 . S
H26 C54 0.929 . S
H27 C55 0.930 1_556 S
H28 C56 0.929 . S
H29 C58 0.930 . S
H30 C35 0.930 . S
H31 C39 0.930 . S
O32 Co1 2.037 1_556 S
O32 C52 1.234 . S
C33 O7 1.269 . S
C33 O8 1.257 . S
C34 H9 0.930 . S
C34 C37 1.388 . S
C34 C39 1.418 . S
C35 H30 0.930 . S
C35 C38 1.404 . S
C35 C39 1.353 . S
N36 Co1 2.145 . S
N36 C37 1.397 . S
N36 C38 1.334 . S
C37 H18 0.929 . S
C37 C34 1.388 . S
C37 N36 1.397 . S
C38 H19 0.929 . S
C38 C35 1.404 . S
C38 N36 1.334 . S
C39 H31 0.930 . S
C39 C34 1.418 . S
C39 C35 1.353 . S
C40 H10 0.930 . S
C40 N41 1.330 . S
C40 C42 1.446 . S
N41 Co0 2.151 . S
N41 C40 1.330 . S
N41 C45 1.418 . S
C42 H21 0.929 . S
C42 C40 1.446 . S
C42 C43 1.332 . S
C43 H23 0.931 . S
C43 C42 1.332 . S
C43 C44 1.267 . S
C44 H12 0.929 . S
C44 C43 1.267 . S
C44 C45 1.251 . S
C45 H15 0.929 . S
C45 N41 1.418 . S
C45 C44 1.251 . S
C46 H13 0.930 . S
C46 C48 1.406 . S
C46 C51 1.261 . S
C47 H14 0.930 . S
C47 N49 1.325 . S
C47 C50 1.357 . S
C48 H16 0.928 . S
C48 C46 1.406 . S
C48 N49 1.261 . S
N49 Co0 2.214 1_556 S
N49 C47 1.325 . S
N49 C48 1.261 . S
C50 H20 0.931 . S
C50 C47 1.357 . S
C50 C51 1.312 . S
C51 H22 0.930 . S
C51 C46 1.261 . S
C51 C50 1.312 . S
C52 O24 1.214 . S
C52 O32 1.234 . S
C53 H25 0.929 . S
C53 C56 1.391 . S
C53 C58 1.391 . S
C54 H26 0.929 . S
C54 C55 1.390 . S
C54 N57 1.391 . S
C55 H27 0.930 1_554 S
C55 C54 1.390 . S
C55 C56 1.392 . S
C56 H28 0.929 . S
C56 C53 1.391 . S
C56 C55 1.392 . S
N57 Co1 2.257 . S
N57 C54 1.391 . S
N57 C58 1.388 . S
C58 H29 0.930 . S
C58 C53 1.391 . S
C58 N57 1.388 . S
Co59 O61 2.143 . S
Co59 O67 2.074 . S
Co59 O70 2.093 . S
Co59 O83 2.097 . S
Co59 N100 2.151 . S
Co59 N108 2.214 . S
Co60 O61 2.160 . S
Co60 O66 2.058 . S
Co60 O76 2.057 . S
Co60 O91 2.037 . S
Co60 N95 2.145 . S
Co60 N116 2.257 . S
O61 Co59 2.143 . S
O61 Co60 2.160 . S
C62 O63 1.278 . S
C62 O70 1.224 . S
O63 C62 1.278 . S
C64 O65 1.245 . S
C64 O76 1.232 . S
O65 C64 1.245 . S
O66 Co60 2.058 . S
O66 C92 1.269 . S
O67 Co59 2.074 . S
O67 C92 1.257 . S
H68 C93 0.930 . S
H69 C99 0.930 . S
O70 Co59 2.093 . S
O70 C62 1.224 . S
H71 C103 0.929 . S
H72 C105 0.930 . S
H73 C106 0.930 . S
H74 C104 0.929 . S
H75 C107 0.928 . S
O76 Co60 2.057 . S
O76 C64 1.232 . S
H77 C96 0.929 . S
H78 C97 0.929 . S
H79 C109 0.931 . S
H80 C101 0.929 . S
H81 C110 0.930 . S
H82 C102 0.931 . S
O83 Co59 2.097 . S
O83 C111 1.214 . S
H84 C112 0.929 . S
H85 C113 0.929 . S
H86 C114 0.930 . S
H87 C115 0.929 . S
H88 C117 0.930 . S
H89 C94 0.930 . S
H90 C98 0.930 . S
O91 Co60 2.037 . S
O91 C111 1.234 . S
C92 O66 1.269 . S
C92 O67 1.257 . S
C93 H68 0.930 . S
C93 C96 1.388 . S
C93 C98 1.418 . S
C94 H89 0.930 . S
C94 C97 1.404 . S
C94 C98 1.353 . S
N95 Co60 2.145 . S
N95 C96 1.397 . S
N95 C97 1.334 . S
C96 H77 0.929 . S
C96 C93 1.388 . S
C96 N95 1.397 . S
C97 H78 0.929 . S
C97 C94 1.404 . S
C97 N95 1.334 . S
C98 H90 0.930 . S
C98 C93 1.418 . S
C98 C94 1.353 . S
C99 H69 0.930 . S
C99 N100 1.330 . S
C99 C101 1.446 . S
N100 Co59 2.151 . S
N100 C99 1.330 . S
N100 C104 1.418 . S
C101 H80 0.929 . S
C101 C99 1.446 . S
C101 C102 1.332 . S
C102 H82 0.931 . S
C102 C101 1.332 . S
C102 C103 1.267 . S
C103 H71 0.929 . S
C103 C102 1.267 . S
C103 C104 1.251 . S
C104 H74 0.929 . S
C104 N100 1.418 . S
C104 C103 1.251 . S
C105 H72 0.930 . S
C105 C107 1.406 . S
C105 C110 1.261 . S
C106 H73 0.930 . S
C106 N108 1.325 . S
C106 C109 1.357 . S
C107 H75 0.928 . S
C107 C105 1.406 . S
C107 N108 1.261 . S
N108 Co59 2.214 . S
N108 C106 1.325 . S
N108 C107 1.261 . S
C109 H79 0.931 . S
C109 C106 1.357 . S
C109 C110 1.312 . S
C110 H81 0.930 . S
C110 C105 1.261 . S
C110 C109 1.312 . S
C111 O83 1.214 . S
C111 O91 1.234 . S
C112 H84 0.929 . S
C112 C115 1.391 . S
C112 C117 1.391 . S
C113 H85 0.929 . S
C113 C114 1.390 . S
C113 N116 1.391 . S
C114 H86 0.930 . S
C114 C113 1.390 . S
C114 C115 1.392 . S
C115 H87 0.929 . S
C115 C112 1.391 . S
C115 C114 1.392 . S
N116 Co60 2.257 . S
N116 C113 1.391 . S
N116 C117 1.388 . S
C117 H88 0.930 . S
C117 C112 1.391 . S
C117 N116 1.388 . S
Co118 O120 2.143 . S
Co118 O126 2.074 . S
Co118 O129 2.093 . S
Co118 O142 2.097 . S
Co118 N159 2.151 . S
Co118 N167 2.214 . S
Co119 O120 2.160 . S
Co119 O125 2.058 . S
Co119 O135 2.057 . S
Co119 O150 2.037 . S
Co119 N154 2.145 . S
Co119 N175 2.257 . S
O120 Co118 2.143 . S
O120 Co119 2.160 . S
C121 O122 1.278 . S
C121 O129 1.224 . S
O122 C121 1.278 . S
C123 O124 1.245 . S
C123 O135 1.232 . S
O124 C123 1.245 . S
O125 Co119 2.058 . S
O125 C151 1.269 . S
O126 Co118 2.074 . S
O126 C151 1.257 . S
H127 C152 0.930 . S
H128 C158 0.930 . S
O129 Co118 2.093 . S
O129 C121 1.224 . S
H130 C162 0.929 . S
H131 C164 0.930 . S
H132 C165 0.930 . S
H133 C163 0.929 . S
H134 C166 0.928 . S
O135 Co119 2.057 . S
O135 C123 1.232 . S
H136 C155 0.929 . S
H137 C156 0.929 . S
H138 C168 0.931 . S
H139 C160 0.929 . S
H140 C169 0.930 . S
H141 C161 0.931 . S
O142 Co118 2.097 . S
O142 C170 1.214 . S
H143 C171 0.929 . S
H144 C172 0.929 . S
H145 C173 0.930 . S
H146 C174 0.929 . S
H147 C176 0.930 . S
H148 C153 0.930 . S
H149 C157 0.930 . S
O150 Co119 2.037 . S
O150 C170 1.234 . S
C151 O125 1.269 . S
C151 O126 1.257 . S
C152 H127 0.930 . S
C152 C155 1.388 . S
C152 C157 1.418 . S
C153 H148 0.930 . S
C153 C156 1.404 . S
C153 C157 1.353 . S
N154 Co119 2.145 . S
N154 C155 1.397 . S
N154 C156 1.334 . S
C155 H136 0.929 . S
C155 C152 1.388 . S
C155 N154 1.397 . S
C156 H137 0.929 . S
C156 C153 1.404 . S
C156 N154 1.334 . S
C157 H149 0.930 . S
C157 C152 1.418 . S
C157 C153 1.353 . S
C158 H128 0.930 . S
C158 N159 1.330 . S
C158 C160 1.446 . S
N159 Co118 2.151 . S
N159 C158 1.330 . S
N159 C163 1.418 . S
C160 H139 0.929 . S
C160 C158 1.446 . S
C160 C161 1.332 . S
C161 H141 0.931 . S
C161 C160 1.332 . S
C161 C162 1.267 . S
C162 H130 0.929 . S
C162 C161 1.267 . S
C162 C163 1.251 . S
C163 H133 0.929 . S
C163 N159 1.418 . S
C163 C162 1.251 . S
C164 H131 0.930 . S
C164 C166 1.406 . S
C164 C169 1.261 . S
C165 H132 0.930 . S
C165 N167 1.325 . S
C165 C168 1.357 . S
C166 H134 0.928 . S
C166 C164 1.406 . S
C166 N167 1.261 . S
N167 Co118 2.214 . S
N167 C165 1.325 . S
N167 C166 1.261 . S
C168 H138 0.931 . S
C168 C165 1.357 . S
C168 C169 1.312 . S
C169 H140 0.930 . S
C169 C164 1.261 . S
C169 C168 1.312 . S
C170 O142 1.214 . S
C170 O150 1.234 . S
C171 H143 0.929 . S
C171 C174 1.391 . S
C171 C176 1.391 . S
C172 H144 0.929 . S
C172 C173 1.390 . S
C172 N175 1.391 . S
C173 H145 0.930 . S
C173 C172 1.390 . S
C173 C174 1.392 . S
C174 H146 0.929 . S
C174 C171 1.391 . S
C174 C173 1.392 . S
N175 Co119 2.257 . S
N175 C172 1.391 . S
N175 C176 1.388 . S
C176 H147 0.930 . S
C176 C171 1.391 . S
C176 N175 1.388 . S
Co177 O179 2.143 . S
Co177 O185 2.074 . S
Co177 O188 2.093 . S
Co177 O201 2.097 1_554 S
Co177 N218 2.151 . S
Co177 N226 2.214 1_554 S
Co178 O179 2.160 . S
Co178 O184 2.058 . S
Co178 O194 2.057 . S
Co178 O209 2.037 1_554 S
Co178 N213 2.145 . S
Co178 N234 2.257 . S
O179 Co177 2.143 . S
O179 Co178 2.160 . S
C180 O181 1.278 . S
C180 O188 1.224 . S
O181 C180 1.278 . S
C182 O183 1.245 . S
C182 O194 1.232 . S
O183 C182 1.245 . S
O184 Co178 2.058 . S
O184 C210 1.269 . S
O185 Co177 2.074 . S
O185 C210 1.257 . S
H186 C211 0.930 . S
H187 C217 0.930 . S
O188 Co177 2.093 . S
O188 C180 1.224 . S
H189 C221 0.929 . S
H190 C223 0.930 . S
H191 C224 0.930 . S
H192 C222 0.929 . S
H193 C225 0.928 . S
O194 Co178 2.057 . S
O194 C182 1.232 . S
H195 C214 0.929 . S
H196 C215 0.929 . S
H197 C227 0.931 . S
H198 C219 0.929 . S
H199 C228 0.930 . S
H200 C220 0.931 . S
O201 Co177 2.097 1_556 S
O201 C229 1.214 . S
H202 C230 0.929 . S
H203 C231 0.929 . S
H204 C232 0.930 1_556 S
H205 C233 0.929 . S
H206 C235 0.930 . S
H207 C212 0.930 . S
H208 C216 0.930 . S
O209 Co178 2.037 1_556 S
O209 C229 1.234 . S
C210 O184 1.269 . S
C210 O185 1.257 . S
C211 H186 0.930 . S
C211 C214 1.388 . S
C211 C216 1.418 . S
C212 H207 0.930 . S
C212 C215 1.404 . S
C212 C216 1.353 . S
N213 Co178 2.145 . S
N213 C214 1.397 . S
N213 C215 1.334 . S
C214 H195 0.929 . S
C214 C211 1.388 . S
C214 N213 1.397 . S
C215 H196 0.929 . S
C215 C212 1.404 . S
C215 N213 1.334 . S
C216 H208 0.930 . S
C216 C211 1.418 . S
C216 C212 1.353 . S
C217 H187 0.930 . S
C217 N218 1.330 . S
C217 C219 1.446 . S
N218 Co177 2.151 . S
N218 C217 1.330 . S
N218 C222 1.418 . S
C219 H198 0.929 . S
C219 C217 1.446 . S
C219 C220 1.332 . S
C220 H200 0.931 . S
C220 C219 1.332 . S
C220 C221 1.267 . S
C221 H189 0.929 . S
C221 C220 1.267 . S
C221 C222 1.251 . S
C222 H192 0.929 . S
C222 N218 1.418 . S
C222 C221 1.251 . S
C223 H190 0.930 . S
C223 C225 1.406 . S
C223 C228 1.261 . S
C224 H191 0.930 . S
C224 N226 1.325 . S
C224 C227 1.357 . S
C225 H193 0.928 . S
C225 C223 1.406 . S
C225 N226 1.261 . S
N226 Co177 2.214 1_556 S
N226 C224 1.325 . S
N226 C225 1.261 . S
C227 H197 0.931 . S
C227 C224 1.357 . S
C227 C228 1.312 . S
C228 H199 0.930 . S
C228 C223 1.261 . S
C228 C227 1.312 . S
C229 O201 1.214 . S
C229 O209 1.234 . S
C230 H202 0.929 . S
C230 C233 1.391 . S
C230 C235 1.391 . S
C231 H203 0.929 . S
C231 C232 1.390 . S
C231 N234 1.391 . S
C232 H204 0.930 1_554 S
C232 C231 1.390 . S
C232 C233 1.392 . S
C233 H205 0.929 . S
C233 C230 1.391 . S
C233 C232 1.392 . S
N234 Co178 2.257 . S
N234 C231 1.391 . S
N234 C235 1.388 . S
C235 H206 0.930 . S
C235 C230 1.391 . S
C235 N234 1.388 . S
Co236 O238 2.143 . S
Co236 O244 2.074 . S
Co236 O247 2.093 . S
Co236 O260 2.097 . S
Co236 N277 2.151 . S
Co236 N285 2.214 . S
Co237 O238 2.160 . S
Co237 O243 2.058 . S
Co237 O253 2.057 . S
Co237 O268 2.037 . S
Co237 N272 2.145 . S
Co237 N293 2.257 . S
O238 Co236 2.143 . S
O238 Co237 2.160 . S
C239 O240 1.278 . S
C239 O247 1.224 . S
O240 C239 1.278 . S
C241 O242 1.245 . S
C241 O253 1.232 . S
O242 C241 1.245 . S
O243 Co237 2.058 . S
O243 C269 1.269 . S
O244 Co236 2.074 . S
O244 C269 1.257 . S
H245 C270 0.930 . S
H246 C276 0.930 . S
O247 Co236 2.093 . S
O247 C239 1.224 . S
H248 C280 0.929 . S
H249 C282 0.930 . S
H250 C283 0.930 . S
H251 C281 0.929 . S
H252 C284 0.928 . S
O253 Co237 2.057 . S
O253 C241 1.232 . S
H254 C273 0.929 . S
H255 C274 0.929 . S
H256 C286 0.931 . S
H257 C278 0.929 . S
H258 C287 0.930 . S
H259 C279 0.931 . S
O260 Co236 2.097 . S
O260 C288 1.214 . S
H261 C289 0.929 . S
H262 C290 0.929 . S
H263 C291 0.930 . S
H264 C292 0.929 . S
H265 C294 0.930 . S
H266 C271 0.930 . S
H267 C275 0.930 . S
O268 Co237 2.037 . S
O268 C288 1.234 . S
C269 O243 1.269 . S
C269 O244 1.257 . S
C270 H245 0.930 . S
C270 C273 1.388 . S
C270 C275 1.418 . S
C271 H266 0.930 . S
C271 C274 1.404 . S
C271 C275 1.353 . S
N272 Co237 2.145 . S
N272 C273 1.397 . S
N272 C274 1.334 . S
C273 H254 0.929 . S
C273 C270 1.388 . S
C273 N272 1.397 . S
C274 H255 0.929 . S
C274 C271 1.404 . S
C274 N272 1.334 . S
C275 H267 0.930 . S
C275 C270 1.418 . S
C275 C271 1.353 . S
C276 H246 0.930 . S
C276 N277 1.330 . S
C276 C278 1.446 . S
N277 Co236 2.151 . S
N277 C276 1.330 . S
N277 C281 1.418 . S
C278 H257 0.929 . S
C278 C276 1.446 . S
C278 C279 1.332 . S
C279 H259 0.931 . S
C279 C278 1.332 . S
C279 C280 1.267 . S
C280 H248 0.929 . S
C280 C279 1.267 . S
C280 C281 1.251 . S
C281 H251 0.929 . S
C281 N277 1.418 . S
C281 C280 1.251 . S
C282 H249 0.930 . S
C282 C284 1.406 . S
C282 C287 1.261 . S
C283 H250 0.930 . S
C283 N285 1.325 . S
C283 C286 1.357 . S
C284 H252 0.928 . S
C284 C282 1.406 . S
C284 N285 1.261 . S
N285 Co236 2.214 . S
N285 C283 1.325 . S
N285 C284 1.261 . S
C286 H256 0.931 . S
C286 C283 1.357 . S
C286 C287 1.312 . S
C287 H258 0.930 . S
C287 C282 1.261 . S
C287 C286 1.312 . S
C288 O260 1.214 . S
C288 O268 1.234 . S
C289 H261 0.929 . S
C289 C292 1.391 . S
C289 C294 1.391 . S
C290 H262 0.929 . S
C290 C291 1.390 . S
C290 N293 1.391 . S
C291 H263 0.930 . S
C291 C290 1.390 . S
C291 C292 1.392 . S
C292 H264 0.929 . S
C292 C289 1.391 . S
C292 C291 1.392 . S
N293 Co237 2.257 . S
N293 C290 1.391 . S
N293 C294 1.388 . S
C294 H265 0.930 . S
C294 C289 1.391 . S
C294 N293 1.388 . S
Co295 O297 2.143 . S
Co295 O303 2.074 . S
Co295 O306 2.093 . S
Co295 O319 2.097 . S
Co295 N336 2.151 . S
Co295 N344 2.214 . S
Co296 O297 2.160 . S
Co296 O302 2.058 . S
Co296 O312 2.057 . S
Co296 O327 2.037 . S
Co296 N331 2.145 . S
Co296 N352 2.257 . S
O297 Co295 2.143 . S
O297 Co296 2.160 . S
C298 O299 1.278 . S
C298 O306 1.224 . S
O299 C298 1.278 . S
C300 O301 1.245 . S
C300 O312 1.232 . S
O301 C300 1.245 . S
O302 Co296 2.058 . S
O302 C328 1.269 . S
O303 Co295 2.074 . S
O303 C328 1.257 . S
H304 C329 0.930 . S
H305 C335 0.930 . S
O306 Co295 2.093 . S
O306 C298 1.224 . S
H307 C339 0.929 . S
H308 C341 0.930 . S
H309 C342 0.930 . S
H310 C340 0.929 . S
H311 C343 0.928 . S
O312 Co296 2.057 . S
O312 C300 1.232 . S
H313 C332 0.929 . S
H314 C333 0.929 . S
H315 C345 0.931 . S
H316 C337 0.929 . S
H317 C346 0.930 . S
H318 C338 0.931 . S
O319 Co295 2.097 . S
O319 C347 1.214 . S
H320 C348 0.929 . S
H321 C349 0.929 . S
H322 C350 0.930 . S
H323 C351 0.929 . S
H324 C353 0.930 . S
H325 C330 0.930 . S
H326 C334 0.930 . S
O327 Co296 2.037 . S
O327 C347 1.234 . S
C328 O302 1.269 . S
C328 O303 1.257 . S
C329 H304 0.930 . S
C329 C332 1.388 . S
C329 C334 1.418 . S
C330 H325 0.930 . S
C330 C333 1.404 . S
C330 C334 1.353 . S
N331 Co296 2.145 . S
N331 C332 1.397 . S
N331 C333 1.334 . S
C332 H313 0.929 . S
C332 C329 1.388 . S
C332 N331 1.397 . S
C333 H314 0.929 . S
C333 C330 1.404 . S
C333 N331 1.334 . S
C334 H326 0.930 . S
C334 C329 1.418 . S
C334 C330 1.353 . S
C335 H305 0.930 . S
C335 N336 1.330 . S
C335 C337 1.446 . S
N336 Co295 2.151 . S
N336 C335 1.330 . S
N336 C340 1.418 . S
C337 H316 0.929 . S
C337 C335 1.446 . S
C337 C338 1.332 . S
C338 H318 0.931 . S
C338 C337 1.332 . S
C338 C339 1.267 . S
C339 H307 0.929 . S
C339 C338 1.267 . S
C339 C340 1.251 . S
C340 H310 0.929 . S
C340 N336 1.418 . S
C340 C339 1.251 . S
C341 H308 0.930 . S
C341 C343 1.406 . S
C341 C346 1.261 . S
C342 H309 0.930 . S
C342 N344 1.325 . S
C342 C345 1.357 . S
C343 H311 0.928 . S
C343 C341 1.406 . S
C343 N344 1.261 . S
N344 Co295 2.214 . S
N344 C342 1.325 . S
N344 C343 1.261 . S
C345 H315 0.931 . S
C345 C342 1.357 . S
C345 C346 1.312 . S
C346 H317 0.930 . S
C346 C341 1.261 . S
C346 C345 1.312 . S
C347 O319 1.214 . S
C347 O327 1.234 . S
C348 H320 0.929 . S
C348 C351 1.391 . S
C348 C353 1.391 . S
C349 H321 0.929 . S
C349 C350 1.390 . S
C349 N352 1.391 . S
C350 H322 0.930 . S
C350 C349 1.390 . S
C350 C351 1.392 . S
C351 H323 0.929 . S
C351 C348 1.391 . S
C351 C350 1.392 . S
N352 Co296 2.257 . S
N352 C349 1.391 . S
N352 C353 1.388 . S
C353 H324 0.930 . S
C353 C348 1.391 . S
C353 N352 1.388 . S
Co354 O356 2.143 . S
Co354 O362 2.074 . S
Co354 O365 2.093 . S
Co354 O378 2.097 . S
Co354 N395 2.151 . S
Co354 N403 2.214 . S
Co355 O356 2.160 . S
Co355 O361 2.058 . S
Co355 O371 2.057 . S
Co355 O386 2.037 . S
Co355 N390 2.145 . S
Co355 N411 2.257 . S
O356 Co354 2.143 . S
O356 Co355 2.160 . S
C357 O358 1.278 . S
C357 O365 1.224 . S
O358 C357 1.278 . S
C359 O360 1.245 . S
C359 O371 1.232 . S
O360 C359 1.245 . S
O361 Co355 2.058 . S
O361 C387 1.269 . S
O362 Co354 2.074 . S
O362 C387 1.257 . S
H363 C388 0.930 . S
H364 C394 0.930 . S
O365 Co354 2.093 . S
O365 C357 1.224 . S
H366 C398 0.929 . S
H367 C400 0.930 . S
H368 C401 0.930 . S
H369 C399 0.929 . S
H370 C402 0.928 . S
O371 Co355 2.057 . S
O371 C359 1.232 . S
H372 C391 0.929 . S
H373 C392 0.929 . S
H374 C404 0.931 . S
H375 C396 0.929 . S
H376 C405 0.930 . S
H377 C397 0.931 . S
O378 Co354 2.097 . S
O378 C406 1.214 . S
H379 C407 0.929 . S
H380 C408 0.929 . S
H381 C409 0.930 . S
H382 C410 0.929 . S
H383 C412 0.930 . S
H384 C389 0.930 . S
H385 C393 0.930 . S
O386 Co355 2.037 . S
O386 C406 1.234 . S
C387 O361 1.269 . S
C387 O362 1.257 . S
C388 H363 0.930 . S
C388 C391 1.388 . S
C388 C393 1.418 . S
C389 H384 0.930 . S
C389 C392 1.404 . S
C389 C393 1.353 . S
N390 Co355 2.145 . S
N390 C391 1.397 . S
N390 C392 1.334 . S
C391 H372 0.929 . S
C391 C388 1.388 . S
C391 N390 1.397 . S
C392 H373 0.929 . S
C392 C389 1.404 . S
C392 N390 1.334 . S
C393 H385 0.930 . S
C393 C388 1.418 . S
C393 C389 1.353 . S
C394 H364 0.930 . S
C394 N395 1.330 . S
C394 C396 1.446 . S
N395 Co354 2.151 . S
N395 C394 1.330 . S
N395 C399 1.418 . S
C396 H375 0.929 . S
C396 C394 1.446 . S
C396 C397 1.332 . S
C397 H377 0.931 . S
C397 C396 1.332 . S
C397 C398 1.267 . S
C398 H366 0.929 . S
C398 C397 1.267 . S
C398 C399 1.251 . S
C399 H369 0.929 . S
C399 N395 1.418 . S
C399 C398 1.251 . S
C400 H367 0.930 . S
C400 C402 1.406 . S
C400 C405 1.261 . S
C401 H368 0.930 . S
C401 N403 1.325 . S
C401 C404 1.357 . S
C402 H370 0.928 . S
C402 C400 1.406 . S
C402 N403 1.261 . S
N403 Co354 2.214 . S
N403 C401 1.325 . S
N403 C402 1.261 . S
C404 H374 0.931 . S
C404 C401 1.357 . S
C404 C405 1.312 . S
C405 H376 0.930 . S
C405 C400 1.261 . S
C405 C404 1.312 . S
C406 O378 1.214 . S
C406 O386 1.234 . S
C407 H379 0.929 . S
C407 C410 1.391 . S
C407 C412 1.391 . S
C408 H380 0.929 . S
C408 C409 1.390 . S
C408 N411 1.391 . S
C409 H381 0.930 . S
C409 C408 1.390 . S
C409 C410 1.392 . S
C410 H382 0.929 . S
C410 C407 1.391 . S
C410 C409 1.392 . S
N411 Co355 2.257 . S
N411 C408 1.391 . S
N411 C412 1.388 . S
C412 H383 0.930 . S
C412 C407 1.391 . S
C412 N411 1.388 . S
Co413 O415 2.143 . S
Co413 O421 2.074 . S
Co413 O424 2.093 . S
Co413 O437 2.097 1_556 S
Co413 N454 2.151 . S
Co413 N462 2.214 1_556 S
Co414 O415 2.160 . S
Co414 O420 2.058 . S
Co414 O430 2.057 . S
Co414 O445 2.037 1_556 S
Co414 N449 2.145 . S
Co414 N470 2.257 . S
O415 Co413 2.143 . S
O415 Co414 2.160 . S
C416 O417 1.278 . S
C416 O424 1.224 . S
O417 C416 1.278 . S
C418 O419 1.245 . S
C418 O430 1.232 . S
O419 C418 1.245 . S
O420 Co414 2.058 . S
O420 C446 1.269 . S
O421 Co413 2.074 . S
O421 C446 1.257 . S
H422 C447 0.930 . S
H423 C453 0.930 . S
O424 Co413 2.093 . S
O424 C416 1.224 . S
H425 C457 0.929 . S
H426 C459 0.930 . S
H427 C460 0.930 . S
H428 C458 0.929 . S
H429 C461 0.928 . S
O430 Co414 2.057 . S
O430 C418 1.232 . S
H431 C450 0.929 . S
H432 C451 0.929 . S
H433 C463 0.931 . S
H434 C455 0.929 . S
H435 C464 0.930 . S
H436 C456 0.931 . S
O437 Co413 2.097 1_554 S
O437 C465 1.214 . S
H438 C466 0.929 . S
H439 C467 0.929 . S
H440 C468 0.930 1_554 S
H441 C469 0.929 . S
H442 C471 0.930 . S
H443 C448 0.930 . S
H444 C452 0.930 . S
O445 Co414 2.037 1_554 S
O445 C465 1.234 . S
C446 O420 1.269 . S
C446 O421 1.257 . S
C447 H422 0.930 . S
C447 C450 1.388 . S
C447 C452 1.418 . S
C448 H443 0.930 . S
C448 C451 1.404 . S
C448 C452 1.353 . S
N449 Co414 2.145 . S
N449 C450 1.397 . S
N449 C451 1.334 . S
C450 H431 0.929 . S
C450 C447 1.388 . S
C450 N449 1.397 . S
C451 H432 0.929 . S
C451 C448 1.404 . S
C451 N449 1.334 . S
C452 H444 0.930 . S
C452 C447 1.418 . S
C452 C448 1.353 . S
C453 H423 0.930 . S
C453 N454 1.330 . S
C453 C455 1.446 . S
N454 Co413 2.151 . S
N454 C453 1.330 . S
N454 C458 1.418 . S
C455 H434 0.929 . S
C455 C453 1.446 . S
C455 C456 1.332 . S
C456 H436 0.931 . S
C456 C455 1.332 . S
C456 C457 1.267 . S
C457 H425 0.929 . S
C457 C456 1.267 . S
C457 C458 1.251 . S
C458 H428 0.929 . S
C458 N454 1.418 . S
C458 C457 1.251 . S
C459 H426 0.930 . S
C459 C461 1.406 . S
C459 C464 1.261 . S
C460 H427 0.930 . S
C460 N462 1.325 . S
C460 C463 1.357 . S
C461 H429 0.928 . S
C461 C459 1.406 . S
C461 N462 1.261 . S
N462 Co413 2.214 1_554 S
N462 C460 1.325 . S
N462 C461 1.261 . S
C463 H433 0.931 . S
C463 C460 1.357 . S
C463 C464 1.312 . S
C464 H435 0.930 . S
C464 C459 1.261 . S
C464 C463 1.312 . S
C465 O437 1.214 . S
C465 O445 1.234 . S
C466 H438 0.929 . S
C466 C469 1.391 . S
C466 C471 1.391 . S
C467 H439 0.929 . S
C467 C468 1.390 . S
C467 N470 1.391 . S
C468 H440 0.930 1_556 S
C468 C467 1.390 . S
C468 C469 1.392 . S
C469 H441 0.929 . S
C469 C466 1.391 . S
C469 C468 1.392 . S
N470 Co414 2.257 . S
N470 C467 1.391 . S
N470 C471 1.388 . S
C471 H442 0.930 . S
C471 C466 1.391 . S
C471 N470 1.388 . S
Co472 O474 2.143 . S
Co472 O480 2.074 . S
Co472 O483 2.093 . S
Co472 O496 2.097 . S
Co472 N513 2.151 . S
Co472 N521 2.214 . S
Co473 O474 2.160 . S
Co473 O479 2.058 . S
Co473 O489 2.057 . S
Co473 O504 2.037 . S
Co473 N508 2.145 . S
Co473 N529 2.257 . S
O474 Co472 2.143 . S
O474 Co473 2.160 . S
C475 O476 1.278 . S
C475 O483 1.224 . S
O476 C475 1.278 . S
C477 O478 1.245 . S
C477 O489 1.232 . S
O478 C477 1.245 . S
O479 Co473 2.058 . S
O479 C505 1.269 . S
O480 Co472 2.074 . S
O480 C505 1.257 . S
H481 C506 0.930 . S
H482 C512 0.930 . S
O483 Co472 2.093 . S
O483 C475 1.224 . S
H484 C516 0.929 . S
H485 C518 0.930 . S
H486 C519 0.930 . S
H487 C517 0.929 . S
H488 C520 0.928 . S
O489 Co473 2.057 . S
O489 C477 1.232 . S
H490 C509 0.929 . S
H491 C510 0.929 . S
H492 C522 0.931 . S
H493 C514 0.929 . S
H494 C523 0.930 . S
H495 C515 0.931 . S
O496 Co472 2.097 . S
O496 C524 1.214 . S
H497 C525 0.929 . S
H498 C526 0.929 . S
H499 C527 0.930 . S
H500 C528 0.929 . S
H501 C530 0.930 . S
H502 C507 0.930 . S
H503 C511 0.930 . S
O504 Co473 2.037 . S
O504 C524 1.234 . S
C505 O479 1.269 . S
C505 O480 1.257 . S
C506 H481 0.930 . S
C506 C509 1.388 . S
C506 C511 1.418 . S
C507 H502 0.930 . S
C507 C510 1.404 . S
C507 C511 1.353 . S
N508 Co473 2.145 . S
N508 C509 1.397 . S
N508 C510 1.334 . S
C509 H490 0.929 . S
C509 C506 1.388 . S
C509 N508 1.397 . S
C510 H491 0.929 . S
C510 C507 1.404 . S
C510 N508 1.334 . S
C511 H503 0.930 . S
C511 C506 1.418 . S
C511 C507 1.353 . S
C512 H482 0.930 . S
C512 N513 1.330 . S
C512 C514 1.446 . S
N513 Co472 2.151 . S
N513 C512 1.330 . S
N513 C517 1.418 . S
C514 H493 0.929 . S
C514 C512 1.446 . S
C514 C515 1.332 . S
C515 H495 0.931 . S
C515 C514 1.332 . S
C515 C516 1.267 . S
C516 H484 0.929 . S
C516 C515 1.267 . S
C516 C517 1.251 . S
C517 H487 0.929 . S
C517 N513 1.418 . S
C517 C516 1.251 . S
C518 H485 0.930 . S
C518 C520 1.406 . S
C518 C523 1.261 . S
C519 H486 0.930 . S
C519 N521 1.325 . S
C519 C522 1.357 . S
C520 H488 0.928 . S
C520 C518 1.406 . S
C520 N521 1.261 . S
N521 Co472 2.214 . S
N521 C519 1.325 . S
N521 C520 1.261 . S
C522 H492 0.931 . S
C522 C519 1.357 . S
C522 C523 1.312 . S
C523 H494 0.930 . S
C523 C518 1.261 . S
C523 C522 1.312 . S
C524 O496 1.214 . S
C524 O504 1.234 . S
C525 H497 0.929 . S
C525 C528 1.391 . S
C525 C530 1.391 . S
C526 H498 0.929 . S
C526 C527 1.390 . S
C526 N529 1.391 . S
C527 H499 0.930 . S
C527 C526 1.390 . S
C527 C528 1.392 . S
C528 H500 0.929 . S
C528 C525 1.391 . S
C528 C527 1.392 . S
N529 Co473 2.257 . S
N529 C526 1.391 . S
N529 C530 1.388 . S
C530 H501 0.930 . S
C530 C525 1.391 . S
C530 N529 1.388 . S
Co531 O533 2.143 . S
Co531 O539 2.074 . S
Co531 O542 2.093 . S
Co531 O555 2.097 . S
Co531 N572 2.151 . S
Co531 N580 2.214 . S
Co532 O533 2.160 . S
Co532 O538 2.058 . S
Co532 O548 2.057 . S
Co532 O563 2.037 . S
Co532 N567 2.145 . S
Co532 N588 2.257 . S
O533 Co531 2.143 . S
O533 Co532 2.160 . S
C534 O535 1.278 . S
C534 O542 1.224 . S
O535 C534 1.278 . S
C536 O537 1.245 . S
C536 O548 1.232 . S
O537 C536 1.245 . S
O538 Co532 2.058 . S
O538 C564 1.269 . S
O539 Co531 2.074 . S
O539 C564 1.257 . S
H540 C565 0.930 . S
H541 C571 0.930 . S
O542 Co531 2.093 . S
O542 C534 1.224 . S
H543 C575 0.929 . S
H544 C577 0.930 . S
H545 C578 0.930 . S
H546 C576 0.929 . S
H547 C579 0.928 . S
O548 Co532 2.057 . S
O548 C536 1.232 . S
H549 C568 0.929 . S
H550 C569 0.929 . S
H551 C581 0.931 . S
H552 C573 0.929 . S
H553 C582 0.930 . S
H554 C574 0.931 . S
O555 Co531 2.097 . S
O555 C583 1.214 . S
H556 C584 0.929 . S
H557 C585 0.929 . S
H558 C586 0.930 . S
H559 C587 0.929 . S
H560 C589 0.930 . S
H561 C566 0.930 . S
H562 C570 0.930 . S
O563 Co532 2.037 . S
O563 C583 1.234 . S
C564 O538 1.269 . S
C564 O539 1.257 . S
C565 H540 0.930 . S
C565 C568 1.388 . S
C565 C570 1.418 . S
C566 H561 0.930 . S
C566 C569 1.404 . S
C566 C570 1.353 . S
N567 Co532 2.145 . S
N567 C568 1.397 . S
N567 C569 1.334 . S
C568 H549 0.929 . S
C568 C565 1.388 . S
C568 N567 1.397 . S
C569 H550 0.929 . S
C569 C566 1.404 . S
C569 N567 1.334 . S
C570 H562 0.930 . S
C570 C565 1.418 . S
C570 C566 1.353 . S
C571 H541 0.930 . S
C571 N572 1.330 . S
C571 C573 1.446 . S
N572 Co531 2.151 . S
N572 C571 1.330 . S
N572 C576 1.418 . S
C573 H552 0.929 . S
C573 C571 1.446 . S
C573 C574 1.332 . S
C574 H554 0.931 . S
C574 C573 1.332 . S
C574 C575 1.267 . S
C575 H543 0.929 . S
C575 C574 1.267 . S
C575 C576 1.251 . S
C576 H546 0.929 . S
C576 N572 1.418 . S
C576 C575 1.251 . S
C577 H544 0.930 . S
C577 C579 1.406 . S
C577 C582 1.261 . S
C578 H545 0.930 . S
C578 N580 1.325 . S
C578 C581 1.357 . S
C579 H547 0.928 . S
C579 C577 1.406 . S
C579 N580 1.261 . S
N580 Co531 2.214 . S
N580 C578 1.325 . S
N580 C579 1.261 . S
C581 H551 0.931 . S
C581 C578 1.357 . S
C581 C582 1.312 . S
C582 H553 0.930 . S
C582 C577 1.261 . S
C582 C581 1.312 . S
C583 O555 1.214 . S
C583 O563 1.234 . S
C584 H556 0.929 . S
C584 C587 1.391 . S
C584 C589 1.391 . S
C585 H557 0.929 . S
C585 C586 1.390 . S
C585 N588 1.391 . S
C586 H558 0.930 . S
C586 C585 1.390 . S
C586 C587 1.392 . S
C587 H559 0.929 . S
C587 C584 1.391 . S
C587 C586 1.392 . S
N588 Co532 2.257 . S
N588 C585 1.391 . S
N588 C589 1.388 . S
C589 H560 0.930 . S
C589 C584 1.391 . S
C589 N588 1.388 . S
Co590 O592 2.143 . S
Co590 O598 2.074 . S
Co590 O601 2.093 . S
Co590 O614 2.097 1_556 S
Co590 N631 2.151 . S
Co590 N639 2.214 1_556 S
Co591 O592 2.160 . S
Co591 O597 2.058 . S
Co591 O607 2.057 . S
Co591 O622 2.037 1_556 S
Co591 N626 2.145 . S
Co591 N647 2.257 . S
O592 Co590 2.143 . S
O592 Co591 2.160 . S
C593 O594 1.278 . S
C593 O601 1.224 . S
O594 C593 1.278 . S
C595 O596 1.245 . S
C595 O607 1.232 . S
O596 C595 1.245 . S
O597 Co591 2.058 . S
O597 C623 1.269 . S
O598 Co590 2.074 . S
O598 C623 1.257 . S
H599 C624 0.930 . S
H600 C630 0.930 . S
O601 Co590 2.093 . S
O601 C593 1.224 . S
H602 C634 0.929 . S
H603 C636 0.930 . S
H604 C637 0.930 . S
H605 C635 0.929 . S
H606 C638 0.928 . S
O607 Co591 2.057 . S
O607 C595 1.232 . S
H608 C627 0.929 . S
H609 C628 0.929 . S
H610 C640 0.931 . S
H611 C632 0.929 . S
H612 C641 0.930 . S
H613 C633 0.931 . S
O614 Co590 2.097 1_554 S
O614 C642 1.214 . S
H615 C643 0.929 . S
H616 C644 0.929 . S
H617 C645 0.930 1_554 S
H618 C646 0.929 . S
H619 C648 0.930 . S
H620 C625 0.930 . S
H621 C629 0.930 . S
O622 Co591 2.037 1_554 S
O622 C642 1.234 . S
C623 O597 1.269 . S
C623 O598 1.257 . S
C624 H599 0.930 . S
C624 C627 1.388 . S
C624 C629 1.418 . S
C625 H620 0.930 . S
C625 C628 1.404 . S
C625 C629 1.353 . S
N626 Co591 2.145 . S
N626 C627 1.397 . S
N626 C628 1.334 . S
C627 H608 0.929 . S
C627 C624 1.388 . S
C627 N626 1.397 . S
C628 H609 0.929 . S
C628 C625 1.404 . S
C628 N626 1.334 . S
C629 H621 0.930 . S
C629 C624 1.418 . S
C629 C625 1.353 . S
C630 H600 0.930 . S
C630 N631 1.330 . S
C630 C632 1.446 . S
N631 Co590 2.151 . S
N631 C630 1.330 . S
N631 C635 1.418 . S
C632 H611 0.929 . S
C632 C630 1.446 . S
C632 C633 1.332 . S
C633 H613 0.931 . S
C633 C632 1.332 . S
C633 C634 1.267 . S
C634 H602 0.929 . S
C634 C633 1.267 . S
C634 C635 1.251 . S
C635 H605 0.929 . S
C635 N631 1.418 . S
C635 C634 1.251 . S
C636 H603 0.930 . S
C636 C638 1.406 . S
C636 C641 1.261 . S
C637 H604 0.930 . S
C637 N639 1.325 . S
C637 C640 1.357 . S
C638 H606 0.928 . S
C638 C636 1.406 . S
C638 N639 1.261 . S
N639 Co590 2.214 1_554 S
N639 C637 1.325 . S
N639 C638 1.261 . S
C640 H610 0.931 . S
C640 C637 1.357 . S
C640 C641 1.312 . S
C641 H612 0.930 . S
C641 C636 1.261 . S
C641 C640 1.312 . S
C642 O614 1.214 . S
C642 O622 1.234 . S
C643 H615 0.929 . S
C643 C646 1.391 . S
C643 C648 1.391 . S
C644 H616 0.929 . S
C644 C645 1.390 . S
C644 N647 1.391 . S
C645 H617 0.930 1_556 S
C645 C644 1.390 . S
C645 C646 1.392 . S
C646 H618 0.929 . S
C646 C643 1.391 . S
C646 C645 1.392 . S
N647 Co591 2.257 . S
N647 C644 1.391 . S
N647 C648 1.388 . S
C648 H619 0.930 . S
C648 C643 1.391 . S
C648 N647 1.388 . S
Co649 O651 2.143 . S
Co649 O657 2.074 . S
Co649 O660 2.093 . S
Co649 O673 2.097 . S
Co649 N690 2.151 . S
Co649 N698 2.214 . S
Co650 O651 2.160 . S
Co650 O656 2.058 . S
Co650 O666 2.057 . S
Co650 O681 2.037 . S
Co650 N685 2.145 . S
Co650 N706 2.257 . S
O651 Co649 2.143 . S
O651 Co650 2.160 . S
C652 O653 1.278 . S
C652 O660 1.224 . S
O653 C652 1.278 . S
C654 O655 1.245 . S
C654 O666 1.232 . S
O655 C654 1.245 . S
O656 Co650 2.058 . S
O656 C682 1.269 . S
O657 Co649 2.074 . S
O657 C682 1.257 . S
H658 C683 0.930 . S
H659 C689 0.930 . S
O660 Co649 2.093 . S
O660 C652 1.224 . S
H661 C693 0.929 . S
H662 C695 0.930 . S
H663 C696 0.930 . S
H664 C694 0.929 . S
H665 C697 0.928 . S
O666 Co650 2.057 . S
O666 C654 1.232 . S
H667 C686 0.929 . S
H668 C687 0.929 . S
H669 C699 0.931 . S
H670 C691 0.929 . S
H671 C700 0.930 . S
H672 C692 0.931 . S
O673 Co649 2.097 . S
O673 C701 1.214 . S
H674 C702 0.929 . S
H675 C703 0.929 . S
H676 C704 0.930 . S
H677 C705 0.929 . S
H678 C707 0.930 . S
H679 C684 0.930 . S
H680 C688 0.930 . S
O681 Co650 2.037 . S
O681 C701 1.234 . S
C682 O656 1.269 . S
C682 O657 1.257 . S
C683 H658 0.930 . S
C683 C686 1.388 . S
C683 C688 1.418 . S
C684 H679 0.930 . S
C684 C687 1.404 . S
C684 C688 1.353 . S
N685 Co650 2.145 . S
N685 C686 1.397 . S
N685 C687 1.334 . S
C686 H667 0.929 . S
C686 C683 1.388 . S
C686 N685 1.397 . S
C687 H668 0.929 . S
C687 C684 1.404 . S
C687 N685 1.334 . S
C688 H680 0.930 . S
C688 C683 1.418 . S
C688 C684 1.353 . S
C689 H659 0.930 . S
C689 N690 1.330 . S
C689 C691 1.446 . S
N690 Co649 2.151 . S
N690 C689 1.330 . S
N690 C694 1.418 . S
C691 H670 0.929 . S
C691 C689 1.446 . S
C691 C692 1.332 . S
C692 H672 0.931 . S
C692 C691 1.332 . S
C692 C693 1.267 . S
C693 H661 0.929 . S
C693 C692 1.267 . S
C693 C694 1.251 . S
C694 H664 0.929 . S
C694 N690 1.418 . S
C694 C693 1.251 . S
C695 H662 0.930 . S
C695 C697 1.406 . S
C695 C700 1.261 . S
C696 H663 0.930 . S
C696 N698 1.325 . S
C696 C699 1.357 . S
C697 H665 0.928 . S
C697 C695 1.406 . S
C697 N698 1.261 . S
N698 Co649 2.214 . S
N698 C696 1.325 . S
N698 C697 1.261 . S
C699 H669 0.931 . S
C699 C696 1.357 . S
C699 C700 1.312 . S
C700 H671 0.930 . S
C700 C695 1.261 . S
C700 C699 1.312 . S
C701 O673 1.214 . S
C701 O681 1.234 . S
C702 H674 0.929 . S
C702 C705 1.391 . S
C702 C707 1.391 . S
C703 H675 0.929 . S
C703 C704 1.390 . S
C703 N706 1.391 . S
C704 H676 0.930 . S
C704 C703 1.390 . S
C704 C705 1.392 . S
C705 H677 0.929 . S
C705 C702 1.391 . S
C705 C704 1.392 . S
N706 Co650 2.257 . S
N706 C703 1.391 . S
N706 C707 1.388 . S
C707 H678 0.930 . S
C707 C702 1.391 . S
C707 N706 1.388 . S
H708 C714 0.930 . S
H709 C717 0.930 . S
H710 C718 0.930 . S
H711 C719 0.930 . S
H712 C722 0.930 . S
H713 C723 0.930 . S
C714 H708 0.930 . S
C714 C715 1.355 . S
C714 C716 1.415 . S
C715 C714 1.355 . S
C715 C717 1.419 . S
C716 C714 1.415 . S
C716 C721 1.425 . S
C716 C723 1.409 . S
C717 H709 0.930 . S
C717 C715 1.419 . S
C717 C718 1.362 . S
C718 H710 0.930 . S
C718 C717 1.362 . S
C718 C721 1.409 . S
C719 H711 0.930 . S
C719 C720 1.355 . S
C719 C721 1.415 . S
C720 C719 1.355 . S
C720 C722 1.419 . S
C721 C716 1.425 . S
C721 C718 1.409 . S
C721 C719 1.415 . S
C722 H712 0.930 . S
C722 C720 1.419 . S
C722 C723 1.362 . S
C723 H713 0.930 . S
C723 C716 1.409 . S
C723 C722 1.362 . S
H724 C730 0.930 . S
H725 C733 0.930 . S
H726 C734 0.930 . S
H727 C735 0.930 . S
H728 C738 0.930 . S
H729 C739 0.930 . S
C730 H724 0.930 . S
C730 C731 1.355 . S
C730 C732 1.415 . S
C731 C730 1.355 . S
C731 C733 1.419 . S
C732 C730 1.415 . S
C732 C737 1.425 . S
C732 C739 1.409 . S
C733 H725 0.930 . S
C733 C731 1.419 . S
C733 C734 1.362 . S
C734 H726 0.930 . S
C734 C733 1.362 . S
C734 C737 1.409 . S
C735 H727 0.930 . S
C735 C736 1.355 . S
C735 C737 1.415 . S
C736 C735 1.355 . S
C736 C738 1.419 . S
C737 C732 1.425 . S
C737 C734 1.409 . S
C737 C735 1.415 . S
C738 H728 0.930 . S
C738 C736 1.419 . S
C738 C739 1.362 . S
C739 H729 0.930 . S
C739 C732 1.409 . S
C739 C738 1.362 . S
H740 C746 0.930 . S
H741 C749 0.930 . S
H742 C750 0.930 . S
H743 C751 0.930 . S
H744 C754 0.930 . S
H745 C755 0.930 . S
C746 H740 0.930 . S
C746 C747 1.355 . S
C746 C748 1.415 . S
C747 C746 1.355 . S
C747 C749 1.419 . S
C748 C746 1.415 . S
C748 C753 1.425 1_556 S
C748 C755 1.409 1_556 S
C749 H741 0.930 . S
C749 C747 1.419 . S
C749 C750 1.362 . S
C750 H742 0.930 . S
C750 C749 1.362 . S
C750 C753 1.409 1_556 S
C751 H743 0.930 . S
C751 C752 1.355 . S
C751 C753 1.415 . S
C752 C751 1.355 . S
C752 C754 1.419 . S
C753 C748 1.425 1_554 S
C753 C750 1.409 1_554 S
C753 C751 1.415 . S
C754 H744 0.930 . S
C754 C752 1.419 . S
C754 C755 1.362 . S
C755 H745 0.930 . S
C755 C748 1.409 1_554 S
C755 C754 1.362 . S
H756 C762 0.930 . S
H757 C765 0.930 . S
H758 C766 0.930 . S
H759 C767 0.930 . S
H760 C770 0.930 . S
H761 C771 0.930 . S
C762 H756 0.930 . S
C762 C763 1.355 . S
C762 C764 1.415 . S
C763 C762 1.355 . S
C763 C765 1.419 . S
C764 C762 1.415 . S
C764 C769 1.425 . S
C764 C771 1.409 . S
C765 H757 0.930 . S
C765 C763 1.419 . S
C765 C766 1.362 . S
C766 H758 0.930 . S
C766 C765 1.362 . S
C766 C769 1.409 . S
C767 H759 0.930 . S
C767 C768 1.355 . S
C767 C769 1.415 . S
C768 C767 1.355 . S
C768 C770 1.419 . S
C769 C764 1.425 . S
C769 C766 1.409 . S
C769 C767 1.415 . S
C770 H760 0.930 . S
C770 C768 1.419 . S
C770 C771 1.362 . S
C771 H761 0.930 . S
C771 C764 1.409 . S
C771 C770 1.362 . S
H772 C778 0.930 . S
H773 C781 0.930 . S
H774 C782 0.930 . S
H775 C783 0.930 . S
H776 C786 0.930 . S
H777 C787 0.930 . S
C778 H772 0.930 . S
C778 C779 1.355 . S
C778 C780 1.415 . S
C779 C778 1.355 . S
C779 C781 1.419 . S
C780 C778 1.415 . S
C780 C785 1.425 . S
C780 C787 1.409 . S
C781 H773 0.930 . S
C781 C779 1.419 . S
C781 C782 1.362 . S
C782 H774 0.930 . S
C782 C781 1.362 . S
C782 C785 1.409 . S
C783 H775 0.930 . S
C783 C784 1.355 . S
C783 C785 1.415 . S
C784 C783 1.355 . S
C784 C786 1.419 . S
C785 C780 1.425 . S
C785 C782 1.409 . S
C785 C783 1.415 . S
C786 H776 0.930 . S
C786 C784 1.419 . S
C786 C787 1.362 . S
C787 H777 0.930 . S
C787 C780 1.409 . S
C787 C786 1.362 . S
H788 C794 0.930 . S
H789 C797 0.930 . S
H790 C798 0.930 . S
H791 C799 0.930 . S
H792 C802 0.930 . S
H793 C803 0.930 . S
C794 H788 0.930 . S
C794 C795 1.355 . S
C794 C796 1.415 . S
C795 C794 1.355 . S
C795 C797 1.419 . S
C796 C794 1.415 . S
C796 C801 1.425 1_554 S
C796 C803 1.409 1_554 S
C797 H789 0.930 . S
C797 C795 1.419 . S
C797 C798 1.362 . S
C798 H790 0.930 . S
C798 C797 1.362 . S
C798 C801 1.409 1_554 S
C799 H791 0.930 . S
C799 C800 1.355 . S
C799 C801 1.415 . S
C800 C799 1.355 . S
C800 C802 1.419 . S
C801 C796 1.425 1_556 S
C801 C798 1.409 1_556 S
C801 C799 1.415 . S
C802 H792 0.930 . S
C802 C800 1.419 . S
C802 C803 1.362 . S
C803 H793 0.930 . S
C803 C796 1.409 1_556 S
C803 C802 1.362 . S
H804 C810 0.925 1_556 S
H805 C813 0.930 . S
H806 C814 0.930 . S
H807 C815 0.925 1_554 S
H808 C818 0.930 . S
H809 C819 0.930 . S
C810 H804 0.925 1_554 S
C810 C811 1.355 . S
C810 C812 1.415 1_554 S
C811 C810 1.355 . S
C811 C813 1.419 . S
C812 C810 1.415 1_556 S
C812 C817 1.425 1_556 S
C812 C819 1.409 . S
C813 H805 0.930 . S
C813 C811 1.419 . S
C813 C814 1.362 . S
C814 H806 0.930 . S
C814 C813 1.362 . S
C814 C817 1.409 . S
C815 H807 0.925 1_556 S
C815 C816 1.355 . S
C815 C817 1.415 1_556 S
C816 C815 1.355 . S
C816 C818 1.419 . S
C817 C812 1.425 1_554 S
C817 C814 1.409 . S
C817 C815 1.415 1_554 S
C818 H808 0.930 . S
C818 C816 1.419 . S
C818 C819 1.362 . S
C819 H809 0.930 . S
C819 C812 1.409 . S
C819 C818 1.362 . S
H820 C826 0.930 . S
H821 C829 0.930 . S
H822 C830 0.930 . S
H823 C831 0.930 . S
H824 C834 0.930 . S
H825 C835 0.930 . S
C826 H820 0.930 . S
C826 C827 1.355 . S
C826 C828 1.415 . S
C827 C826 1.355 . S
C827 C829 1.419 . S
C828 C826 1.415 . S
C828 C833 1.425 . S
C828 C835 1.409 . S
C829 H821 0.930 . S
C829 C827 1.419 . S
C829 C830 1.362 . S
C830 H822 0.930 . S
C830 C829 1.362 . S
C830 C833 1.409 . S
C831 H823 0.930 . S
C831 C832 1.355 . S
C831 C833 1.415 . S
C832 C831 1.355 . S
C832 C834 1.419 . S
C833 C828 1.425 . S
C833 C830 1.409 . S
C833 C831 1.415 . S
C834 H824 0.930 . S
C834 C832 1.419 . S
C834 C835 1.362 . S
C835 H825 0.930 . S
C835 C828 1.409 . S
C835 C834 1.362 . S
H836 C842 0.930 . S
H837 C845 0.930 . S
H838 C846 0.930 . S
H839 C847 0.930 . S
H840 C850 0.930 . S
H841 C851 0.930 . S
C842 H836 0.930 . S
C842 C843 1.355 . S
C842 C844 1.415 . S
C843 C842 1.355 . S
C843 C845 1.419 . S
C844 C842 1.415 . S
C844 C849 1.425 . S
C844 C851 1.409 . S
C845 H837 0.930 . S
C845 C843 1.419 . S
C845 C846 1.362 . S
C846 H838 0.930 . S
C846 C845 1.362 . S
C846 C849 1.409 . S
C847 H839 0.930 . S
C847 C848 1.355 . S
C847 C849 1.415 . S
C848 C847 1.355 . S
C848 C850 1.419 . S
C849 C844 1.425 . S
C849 C846 1.409 . S
C849 C847 1.415 . S
C850 H840 0.930 . S
C850 C848 1.419 . S
C850 C851 1.362 . S
C851 H841 0.930 . S
C851 C844 1.409 . S
C851 C850 1.362 . S
H852 C858 0.930 . S
H853 C861 0.930 . S
H854 C862 0.930 . S
H855 C863 0.930 . S
H856 C866 0.930 . S
H857 C867 0.930 . S
C858 H852 0.930 . S
C858 C859 1.355 1_556 S
C858 C860 1.415 . S
C859 C858 1.355 1_554 S
C859 C861 1.419 . S
C860 C858 1.415 . S
C860 C865 1.425 1_556 S
C860 C867 1.409 . S
C861 H853 0.930 . S
C861 C859 1.419 . S
C861 C862 1.362 . S
C862 H854 0.930 . S
C862 C861 1.362 . S
C862 C865 1.409 . S
C863 H855 0.930 . S
C863 C864 1.355 1_554 S
C863 C865 1.415 . S
C864 C863 1.355 1_556 S
C864 C866 1.419 . S
C865 C860 1.425 1_554 S
C865 C862 1.409 . S
C865 C863 1.415 . S
C866 H856 0.930 . S
C866 C864 1.419 . S
C866 C867 1.362 . S
C867 H857 0.930 . S
C867 C860 1.409 . S
C867 C866 1.362 . S
H868 C874 0.930 . S
H869 C877 0.930 . S
H870 C878 0.930 . S
H871 C879 0.930 . S
H872 C882 0.930 . S
H873 C883 0.930 . S
C874 H868 0.930 . S
C874 C875 1.355 . S
C874 C876 1.415 . S
C875 C874 1.355 . S
C875 C877 1.419 . S
C876 C874 1.415 . S
C876 C881 1.425 . S
C876 C883 1.409 . S
C877 H869 0.930 . S
C877 C875 1.419 . S
C877 C878 1.362 . S
C878 H870 0.930 . S
C878 C877 1.362 . S
C878 C881 1.409 . S
C879 H871 0.930 . S
C879 C880 1.355 . S
C879 C881 1.415 . S
C880 C879 1.355 . S
C880 C882 1.419 . S
C881 C876 1.425 . S
C881 C878 1.409 . S
C881 C879 1.415 . S
C882 H872 0.930 . S
C882 C880 1.419 . S
C882 C883 1.362 . S
C883 H873 0.930 . S
C883 C876 1.409 . S
C883 C882 1.362 . S
H884 C890 0.930 . S
H885 C893 0.930 . S
H886 C894 0.930 . S
H887 C895 0.930 . S
H888 C898 0.930 . S
H889 C899 0.930 . S
C890 H884 0.930 . S
C890 C891 1.355 . S
C890 C892 1.415 . S
C891 C890 1.355 . S
C891 C893 1.419 . S
C892 C890 1.415 . S
C892 C897 1.425 . S
C892 C899 1.409 . S
C893 H885 0.930 . S
C893 C891 1.419 . S
C893 C894 1.362 . S
C894 H886 0.930 . S
C894 C893 1.362 . S
C894 C897 1.409 . S
C895 H887 0.930 . S
C895 C896 1.355 . S
C895 C897 1.415 . S
C896 C895 1.355 . S
C896 C898 1.419 . S
C897 C892 1.425 . S
C897 C894 1.409 . S
C897 C895 1.415 . S
C898 H888 0.930 . S
C898 C896 1.419 . S
C898 C899 1.362 . S
C899 H889 0.930 . S
C899 C892 1.409 . S
C899 C898 1.362 . S
H900 C906 0.930 . S
H901 C909 0.930 . S
H902 C910 0.930 . S
H903 C911 0.930 . S
H904 C914 0.930 . S
H905 C915 0.930 . S
C906 H900 0.930 . S
C906 C907 1.355 . S
C906 C908 1.415 . S
C907 C906 1.355 . S
C907 C909 1.419 . S
C908 C906 1.415 . S
C908 C913 1.425 . S
C908 C915 1.409 . S
C909 H901 0.930 . S
C909 C907 1.419 . S
C909 C910 1.362 . S
C910 H902 0.930 . S
C910 C909 1.362 . S
C910 C913 1.409 . S
C911 H903 0.930 . S
C911 C912 1.355 . S
C911 C913 1.415 . S
C912 C911 1.355 . S
C912 C914 1.419 . S
C913 C908 1.425 . S
C913 C910 1.409 . S
C913 C911 1.415 . S
C914 H904 0.930 . S
C914 C912 1.419 . S
C914 C915 1.362 . S
C915 H905 0.930 . S
C915 C908 1.409 . S
C915 C914 1.362 . S
H916 C922 0.930 . S
H917 C925 0.930 . S
H918 C926 0.930 . S
H919 C927 0.930 . S
H920 C930 0.930 . S
H921 C931 0.930 . S
C922 H916 0.930 . S
C922 C923 1.355 . S
C922 C924 1.415 1_655 S
C923 C922 1.355 . S
C923 C925 1.419 . S
C924 C922 1.415 1_455 S
C924 C929 1.425 1_455 S
C924 C931 1.409 . S
C925 H917 0.930 . S
C925 C923 1.419 . S
C925 C926 1.362 . S
C926 H918 0.930 . S
C926 C925 1.362 . S
C926 C929 1.409 . S
C927 H919 0.930 . S
C927 C928 1.355 . S
C927 C929 1.415 1_455 S
C928 C927 1.355 . S
C928 C930 1.419 . S
C929 C924 1.425 1_655 S
C929 C926 1.409 . S
C929 C927 1.415 1_655 S
C930 H920 0.930 . S
C930 C928 1.419 . S
C930 C931 1.362 . S
C931 H921 0.930 . S
C931 C924 1.409 . S
C931 C930 1.362 . S
H932 C938 0.930 . S
H933 C941 0.930 . S
H934 C942 0.930 . S
H935 C943 0.930 . S
H936 C946 0.930 . S
H937 C947 0.930 . S
C938 H932 0.930 . S
C938 C939 1.355 . S
C938 C940 1.415 . S
C939 C938 1.355 . S
C939 C941 1.419 . S
C940 C938 1.415 . S
C940 C945 1.425 1_545 S
C940 C947 1.409 . S
C941 H933 0.930 . S
C941 C939 1.419 . S
C941 C942 1.362 1_545 S
C942 H934 0.930 . S
C942 C941 1.362 1_565 S
C942 C945 1.409 . S
C943 H935 0.930 . S
C943 C944 1.355 . S
C943 C945 1.415 . S
C944 C943 1.355 . S
C944 C946 1.419 . S
C945 C940 1.425 1_565 S
C945 C942 1.409 . S
C945 C943 1.415 . S
C946 H936 0.930 . S
C946 C944 1.419 . S
C946 C947 1.362 1_565 S
C947 H937 0.930 . S
C947 C940 1.409 . S
C947 C946 1.362 1_545 S
H948 C954 0.930 . S
H949 C957 0.930 . S
H950 C958 0.930 . S
H951 C959 0.930 . S
H952 C962 0.930 . S
H953 C963 0.930 . S
C954 H948 0.930 . S
C954 C955 1.355 . S
C954 C956 1.415 . S
C955 C954 1.355 . S
C955 C957 1.419 . S
C956 C954 1.415 . S
C956 C961 1.425 . S
C956 C963 1.409 . S
C957 H949 0.930 . S
C957 C955 1.419 . S
C957 C958 1.362 . S
C958 H950 0.930 . S
C958 C957 1.362 . S
C958 C961 1.409 . S
C959 H951 0.930 . S
C959 C960 1.355 . S
C959 C961 1.415 . S
C960 C959 1.355 . S
C960 C962 1.419 . S
C961 C956 1.425 . S
C961 C958 1.409 . S
C961 C959 1.415 . S
C962 H952 0.930 . S
C962 C960 1.419 . S
C962 C963 1.362 . S
C963 H953 0.930 . S
C963 C956 1.409 . S
C963 C962 1.362 . S
H964 C970 0.930 . S
H965 C973 0.930 1_554 S
H966 C974 0.927 1_554 S
H967 C975 0.930 1_554 S
H968 C978 0.930 . S
H969 C979 0.930 . S
C970 H964 0.930 . S
C970 C971 1.355 . S
C970 C972 1.417 1_455 S
C971 C970 1.355 . S
C971 C973 1.419 . S
C972 C970 1.417 1_655 S
C972 C977 1.424 1_655 S
C972 C979 1.407 . S
C973 H965 0.930 1_556 S
C973 C971 1.419 . S
C973 C974 1.363 . S
C974 H966 0.927 1_556 S
C974 C973 1.363 . S
C974 C977 1.410 . S
C975 H967 0.930 1_556 S
C975 C976 1.355 . S
C975 C977 1.417 1_655 S
C976 C975 1.355 . S
C976 C978 1.419 . S
C977 C972 1.424 1_455 S
C977 C974 1.410 . S
C977 C975 1.417 1_455 S
C978 H968 0.930 . S
C978 C976 1.419 . S
C978 C979 1.362 . S
C979 H969 0.930 . S
C979 C972 1.407 . S
C979 C978 1.362 . S
H980 C986 0.930 . S
H981 C989 0.930 . S
H982 C990 0.930 1_545 S
H983 C991 0.930 . S
H984 C994 0.930 . S
H985 C995 0.930 1_565 S
C986 H980 0.930 . S
C986 C987 1.355 . S
C986 C988 1.415 . S
C987 C986 1.355 . S
C987 C989 1.419 . S
C988 C986 1.415 . S
C988 C993 1.425 1_565 S
C988 C995 1.409 1_565 S
C989 H981 0.930 . S
C989 C987 1.419 . S
C989 C990 1.362 . S
C990 H982 0.930 1_565 S
C990 C989 1.362 . S
C990 C993 1.409 1_565 S
C991 H983 0.930 . S
C991 C992 1.355 . S
C991 C993 1.415 . S
C992 C991 1.355 . S
C992 C994 1.419 . S
C993 C988 1.425 1_545 S
C993 C990 1.409 1_545 S
C993 C991 1.415 . S
C994 H984 0.930 . S
C994 C992 1.419 . S
C994 C995 1.362 . S
C995 H985 0.930 1_545 S
C995 C988 1.409 1_545 S
C995 C994 1.362 . S
H996 C1002 0.930 . S
H997 C1005 0.930 . S
H998 C1006 0.930 . S
H999 C1007 0.930 . S
H1000 C1010 0.930 . S
H1001 C1011 0.930 . S
C1002 H996 0.930 . S
C1002 C1003 1.355 . S
C1002 C1004 1.415 . S
C1003 C1002 1.355 . S
C1003 C1005 1.419 . S
C1004 C1002 1.415 . S
C1004 C1009 1.425 . S
C1004 C1011 1.409 . S
C1005 H997 0.930 . S
C1005 C1003 1.419 . S
C1005 C1006 1.362 . S
C1006 H998 0.930 . S
C1006 C1005 1.362 . S
C1006 C1009 1.409 . S
C1007 H999 0.930 . S
C1007 C1008 1.355 . S
C1007 C1009 1.415 . S
C1008 C1007 1.355 . S
C1008 C1010 1.419 . S
C1009 C1004 1.425 . S
C1009 C1006 1.409 . S
C1009 C1007 1.415 . S
C1010 H1000 0.930 . S
C1010 C1008 1.419 . S
C1010 C1011 1.362 . S
C1011 H1001 0.930 . S
C1011 C1004 1.409 . S
C1011 C1010 1.362 . S
H1012 C1018 0.930 . S
H1013 C1021 0.930 . S
H1014 C1022 0.930 . S
H1015 C1023 0.930 . S
H1016 C1026 0.930 . S
H1017 C1027 0.930 . S
C1018 H1012 0.930 . S
C1018 C1019 1.355 . S
C1018 C1020 1.415 . S
C1019 C1018 1.355 . S
C1019 C1021 1.419 . S
C1020 C1018 1.415 . S
C1020 C1025 1.425 . S
C1020 C1027 1.409 . S
C1021 H1013 0.930 . S
C1021 C1019 1.419 . S
C1021 C1022 1.362 . S
C1022 H1014 0.930 . S
C1022 C1021 1.362 . S
C1022 C1025 1.409 . S
C1023 H1015 0.930 . S
C1023 C1024 1.355 . S
C1023 C1025 1.415 . S
C1024 C1023 1.355 . S
C1024 C1026 1.419 . S
C1025 C1020 1.425 . S
C1025 C1022 1.409 . S
C1025 C1023 1.415 . S
C1026 H1016 0.930 . S
C1026 C1024 1.419 . S
C1026 C1027 1.362 . S
C1027 H1017 0.930 . S
C1027 C1020 1.409 . S
C1027 C1026 1.362 . S
H1028 C1034 0.930 . S
H1029 C1037 0.930 . S
H1030 C1038 0.930 . S
H1031 C1039 0.930 . S
H1032 C1042 0.930 . S
H1033 C1043 0.930 . S
C1034 H1028 0.930 . S
C1034 C1035 1.355 . S
C1034 C1036 1.415 . S
C1035 C1034 1.355 . S
C1035 C1037 1.419 . S
C1036 C1034 1.415 . S
C1036 C1041 1.425 . S
C1036 C1043 1.409 . S
C1037 H1029 0.930 . S
C1037 C1035 1.419 . S
C1037 C1038 1.362 . S
C1038 H1030 0.930 . S
C1038 C1037 1.362 . S
C1038 C1041 1.409 . S
C1039 H1031 0.930 . S
C1039 C1040 1.355 . S
C1039 C1041 1.415 . S
C1040 C1039 1.355 . S
C1040 C1042 1.419 . S
C1041 C1036 1.425 . S
C1041 C1038 1.409 . S
C1041 C1039 1.415 . S
C1042 H1032 0.930 . S
C1042 C1040 1.419 . S
C1042 C1043 1.362 . S
C1043 H1033 0.930 . S
C1043 C1036 1.409 . S
C1043 C1042 1.362 . S
H1044 C1050 0.930 . S
H1045 C1053 0.930 . S
H1046 C1054 0.930 . S
H1047 C1055 0.930 . S
H1048 C1058 0.930 . S
H1049 C1059 0.930 . S
C1050 H1044 0.930 . S
C1050 C1051 1.355 . S
C1050 C1052 1.415 . S
C1051 C1050 1.355 . S
C1051 C1053 1.419 . S
C1052 C1050 1.415 . S
C1052 C1057 1.425 . S
C1052 C1059 1.409 . S
C1053 H1045 0.930 . S
C1053 C1051 1.419 . S
C1053 C1054 1.362 . S
C1054 H1046 0.930 . S
C1054 C1053 1.362 . S
C1054 C1057 1.409 . S
C1055 H1047 0.930 . S
C1055 C1056 1.355 . S
C1055 C1057 1.415 . S
C1056 C1055 1.355 . S
C1056 C1058 1.419 . S
C1057 C1052 1.425 . S
C1057 C1054 1.409 . S
C1057 C1055 1.415 . S
C1058 H1048 0.930 . S
C1058 C1056 1.419 . S
C1058 C1059 1.362 . S
C1059 H1049 0.930 . S
C1059 C1052 1.409 . S
C1059 C1058 1.362 . S
H1060 C1066 0.930 . S
H1061 C1069 0.930 . S
H1062 C1070 0.930 . S
H1063 C1071 0.930 . S
H1064 C1074 0.930 . S
H1065 C1075 0.930 . S
C1066 H1060 0.930 . S
C1066 C1067 1.355 . S
C1066 C1068 1.415 . S
C1067 C1066 1.355 . S
C1067 C1069 1.419 . S
C1068 C1066 1.415 . S
C1068 C1073 1.425 . S
C1068 C1075 1.409 . S
C1069 H1061 0.930 . S
C1069 C1067 1.419 . S
C1069 C1070 1.362 . S
C1070 H1062 0.930 . S
C1070 C1069 1.362 . S
C1070 C1073 1.409 . S
C1071 H1063 0.930 . S
C1071 C1072 1.355 . S
C1071 C1073 1.415 . S
C1072 C1071 1.355 . S
C1072 C1074 1.419 . S
C1073 C1068 1.425 . S
C1073 C1070 1.409 . S
C1073 C1071 1.415 . S
C1074 H1064 0.930 . S
C1074 C1072 1.419 . S
C1074 C1075 1.362 . S
C1075 H1065 0.930 . S
C1075 C1068 1.409 . S
C1075 C1074 1.362 . S
H1076 C1082 0.930 . S
H1077 C1085 0.930 . S
H1078 C1086 0.930 . S
H1079 C1087 0.930 . S
H1080 C1090 0.930 . S
H1081 C1091 0.930 . S
C1082 H1076 0.930 . S
C1082 C1083 1.355 . S
C1082 C1084 1.415 . S
C1083 C1082 1.355 . S
C1083 C1085 1.419 . S
C1084 C1082 1.415 . S
C1084 C1089 1.425 . S
C1084 C1091 1.409 . S
C1085 H1077 0.930 . S
C1085 C1083 1.419 . S
C1085 C1086 1.362 . S
C1086 H1078 0.930 . S
C1086 C1085 1.362 . S
C1086 C1089 1.409 . S
C1087 H1079 0.930 . S
C1087 C1088 1.355 . S
C1087 C1089 1.415 . S
C1088 C1087 1.355 . S
C1088 C1090 1.419 . S
C1089 C1084 1.425 . S
C1089 C1086 1.409 . S
C1089 C1087 1.415 . S
C1090 H1080 0.930 . S
C1090 C1088 1.419 . S
C1090 C1091 1.362 . S
C1091 H1081 0.930 . S
C1091 C1084 1.409 . S
C1091 C1090 1.362 . S
C715 C5 1.565 . S
C720 C359 1.564 . S
C731 C64 1.579 . S
C736 C418 1.579 . S
C747 C123 1.568 . S
C752 C477 1.586 . S
C763 C182 1.584 . S
C768 C536 1.559 . S
C779 C241 1.567 . S
C784 C595 1.586 . S
C795 C654 1.585 . S
C800 C300 1.571 . S
C811 C3 1.426 . S
C816 C593 1.402 . S
C827 C62 1.427 . S
C832 C652 1.404 . S
C843 C121 1.427 . S
C848 C357 1.402 . S
C859 C180 1.403 . S
C864 C416 1.426 . S
C875 C239 1.376 . S
C880 C475 1.410 . S
C891 C298 1.397 . S
C896 C534 1.366 . S
C907 C33 1.433 . S
C912 C210 1.434 . S
C923 C92 1.374 . S
C928 C269 1.377 . S
C939 C328 1.436 . S
C944 C151 1.437 . S
C955 C387 1.373 . S
C960 C564 1.375 . S
C971 C623 1.368 . S
C976 C446 1.366 . S
C987 C505 1.403 . S
C992 C682 1.399 . S
C1003 C406 0.986 . S
C1008 C52 0.978 . S
C1019 C111 0.996 . S
C1024 C465 0.986 . S
C1035 C170 0.996 . S
C1040 C524 0.986 . S
C1051 C583 0.994 . S
C1056 C229 1.004 . S
C1067 C642 0.984 . S
C1072 C288 0.994 . S
C1083 C347 0.986 . S
C1088 C701 0.978 . S
