# Generated by pormake.
# Topology fng, (5)-cn, num edge types: 1
# Building blocks:
#     Node 0, Type 0, BuildingBlock: XOMCOT_clean_sbu_1, # of connection points: 5
#     Node 1, Type 0, BuildingBlock: XOMCOT_clean_sbu_1, # of connection points: 5
#     Node 2, Type 0, BuildingBlock: XOMCOT_clean_sbu_1, # of connection points: 5
#     Node 3, Type 0, BuildingBlock: XOMCOT_clean_sbu_1, # of connection points: 5
#     Node 4, Type 0, BuildingBlock: XOMCOT_clean_sbu_1, # of connection points: 5
#     Node 5, Type 0, BuildingBlock: XOMCOT_clean_sbu_1, # of connection points: 5
#     Node 6, Type 0, BuildingBlock: XOMCOT_clean_sbu_1, # of connection points: 5
#     Node 7, Type 0, BuildingBlock: XOMCOT_clean_sbu_1, # of connection points: 5
#     Node 8, Type 0, BuildingBlock: XOMCOT_clean_sbu_1, # of connection points: 5
#     Node 9, Type 0, BuildingBlock: XOMCOT_clean_sbu_1, # of connection points: 5
#     Node 10, Type 0, BuildingBlock: XOMCOT_clean_sbu_1, # of connection points: 5
#     Node 11, Type 0, BuildingBlock: XOMCOT_clean_sbu_1, # of connection points: 5
#     Node 12, Type 0, BuildingBlock: XOMCOT_clean_sbu_1, # of connection points: 5
#     Node 13, Type 0, BuildingBlock: XOMCOT_clean_sbu_1, # of connection points: 5
#     Node 14, Type 0, BuildingBlock: XOMCOT_clean_sbu_1, # of connection points: 5
#     Node 15, Type 0, BuildingBlock: XOMCOT_clean_sbu_1, # of connection points: 5
#     Node 16, Type 0, BuildingBlock: XOMCOT_clean_sbu_1, # of connection points: 5
#     Node 17, Type 0, BuildingBlock: XOMCOT_clean_sbu_1, # of connection points: 5
#     Edge 18, Type (0, 0), None
#     Edge 19, Type (0, 0), None
#     Edge 20, Type (0, 0), None
#     Edge 21, Type (0, 0), None
#     Edge 22, Type (0, 0), None
#     Edge 23, Type (0, 0), None
#     Edge 24, Type (0, 0), None
#     Edge 25, Type (0, 0), None
#     Edge 26, Type (0, 0), None
#     Edge 27, Type (0, 0), None
#     Edge 28, Type (0, 0), None
#     Edge 29, Type (0, 0), None
#     Edge 30, Type (0, 0), None
#     Edge 31, Type (0, 0), None
#     Edge 32, Type (0, 0), None
#     Edge 33, Type (0, 0), None
#     Edge 34, Type (0, 0), None
#     Edge 35, Type (0, 0), None
#     Edge 36, Type (0, 0), None
#     Edge 37, Type (0, 0), None
#     Edge 38, Type (0, 0), None
#     Edge 39, Type (0, 0), None
#     Edge 40, Type (0, 0), None
#     Edge 41, Type (0, 0), None
#     Edge 42, Type (0, 0), None
#     Edge 43, Type (0, 0), None
#     Edge 44, Type (0, 0), None
#     Edge 45, Type (0, 0), None
#     Edge 46, Type (0, 0), None
#     Edge 47, Type (0, 0), None
#     Edge 48, Type (0, 0), None
#     Edge 49, Type (0, 0), None
#     Edge 50, Type (0, 0), None
#     Edge 51, Type (0, 0), None
#     Edge 52, Type (0, 0), None
#     Edge 53, Type (0, 0), None
#     Edge 54, Type (0, 0), None
#     Edge 55, Type (0, 0), None
#     Edge 56, Type (0, 0), None
#     Edge 57, Type (0, 0), None
#     Edge 58, Type (0, 0), None
#     Edge 59, Type (0, 0), None
#     Edge 60, Type (0, 0), None
#     Edge 61, Type (0, 0), None
#     Edge 62, Type (0, 0), None
# Relax obj value: 0.160
# Max RMSD: 0.164
# Mean RMSD: 0.164
data_MOF--net-fng--node1-XOMCOT_clean_sbu_1--edge1-none
_symmetry_space_group_name_H-M    P1
_symmetry_Int_Tables_number       1
_symmetry_cell_setting            triclinic
loop_
_symmetry_equiv_pos_as_xyz
'x, y, z'
_cell_length_a     38.66532
_cell_length_b     38.671991
_cell_length_c     9.0458065
_cell_angle_alpha  90.131636
_cell_angle_beta   89.886657
_cell_angle_gamma 120.28781
loop_
_atom_site_label
_atom_site_type_symbol
_atom_site_fract_x
_atom_site_fract_y
_atom_site_fract_z
_atom_type_partial_charge
C0 C 0.15488 0.29568 0.93397 0.0
C1 C 0.15138 0.29033 0.78293 0.0
N2 N 0.1755 0.27644 0.74113 0.0
N3 N 0.18094 0.285 0.98593 0.0
C4 C 0.19455 0.27546 0.86361 0.0
H5 H 0.13511 0.30091 1.00309 0.0
Co6 Co 0.17631 0.26403 0.17659 0.0
C7 C 0.19337 0.19929 0.07576 0.0
O8 O 0.15942 0.17123 0.13212 0.0
N9 N 0.17125 0.24485 0.36672 0.0
C10 C 0.18054 0.22625 0.58804 0.0
C11 C 0.18036 0.2198 0.43765 0.0
C12 C 0.16512 0.26518 0.47496 0.0
N13 N 0.17213 0.25566 0.60899 0.0
O14 O 0.22702 0.31088 0.24519 0.0
H15 H 0.18874 0.20005 0.38512 0.0
H16 H 0.15757 0.28805 0.45468 0.0
O17 O 0.20522 0.23615 0.10329 0.0
C18 C 0.22199 0.34034 0.27693 0.0
O19 O 0.19223 0.34093 0.20989 0.0
N20 N 0.12416 0.22055 0.12389 0.0
C21 C 0.04343 0.17063 0.04697 0.0
C22 C 0.07409 0.17442 0.95338 0.0
C23 C 0.11419 0.19951 0.99359 0.0
C24 C 0.09428 0.21679 0.21546 0.0
C25 C 0.05399 0.19147 0.18098 0.0
H26 H 0.13693 0.20288 0.91643 0.0
H27 H 0.10115 0.23535 0.3122 0.0
H28 H 0.21386 0.26285 0.86453 0.0
H29 H 0.1293 0.29154 0.71323 0.0
H30 H 0.18686 0.21116 0.67474 0.0
H31 H 0.06714 0.15928 0.84742 0.0
H32 H 0.03129 0.19059 0.2539 0.0
C33 C 0.74718 0.86907 0.93263 0.0
C34 C 0.75254 0.87111 0.78158 0.0
N35 N 0.76533 0.90902 0.74031 0.0
N36 N 0.75681 0.90562 0.9852 0.0
C37 C 0.76564 0.92874 0.86322 0.0
H38 H 0.74277 0.8443 1.00132 0.0
Co39 Co 0.77774 0.92258 0.17588 0.0
C40 C 0.84147 1.00555 0.07856 0.0
O41 O 0.86959 1.00055 0.13812 0.0
N42 N 0.79687 0.93722 0.3663 0.0
C43 C 0.81405 0.96561 0.5879 0.0
C44 C 0.82052 0.97202 0.43771 0.0
C45 C 0.77733 0.91029 0.4743 0.0
N46 N 0.78597 0.92704 0.60849 0.0
O47 O 0.73015 0.92457 0.2453 0.0
H48 H 0.83911 1.00061 0.38565 0.0
H49 H 0.7554 0.87932 0.45363 0.0
O50 O 0.8046 0.9796 0.10296 0.0
C51 C 0.70169 0.88939 0.27804 0.0
O52 O 0.70244 0.85955 0.21181 0.0
N53 N 0.82204 0.91577 0.12217 0.0
C54 C 0.8742 0.88826 0.04378 0.0
C55 C 0.86919 0.91432 0.95084 0.0
C56 C 0.84302 0.92773 0.99188 0.0
C57 C 0.82686 0.89027 0.2128 0.0
C58 C 0.85332 0.87696 0.1776 0.0
H59 H 0.83885 0.94663 0.91548 0.0
H60 H 0.80842 0.87788 0.30945 0.0
H61 H 0.7774 0.96064 0.86483 0.0
H62 H 0.75213 0.84819 0.71153 0.0
H63 H 0.82811 0.98741 0.67475 0.0
H64 H 0.88435 0.92318 0.84505 0.0
H65 H 0.85523 0.85568 0.2499 0.0
C66 C 0.18242 0.89236 0.92213 0.0
C67 C 0.17925 0.89254 0.77049 0.0
N68 N 0.14176 0.86422 0.73316 0.0
N69 N 0.14685 0.86457 0.97931 0.0
C70 C 0.12345 0.84647 0.86045 0.0
H71 H 0.20701 0.91486 0.98693 0.0
Co72 Co 0.12931 0.86783 0.16951 0.0
C73 C 0.04882 0.85453 0.08216 0.0
O74 O 0.05585 0.88572 0.16274 0.0
N75 N 0.11293 0.86991 0.3603 0.0
C76 C 0.08323 0.83751 0.5679 0.0
C77 C 0.07792 0.84168 0.42002 0.0
C78 C 0.1392 0.882 0.47397 0.0
N79 N 0.12195 0.86271 0.6003 0.0
O80 O 0.12508 0.81734 0.23211 0.0
H81 H 0.0525 0.82019 0.35664 0.0
H82 H 0.17128 0.89925 0.45927 0.0
O83 O 0.07293 0.84098 0.09005 0.0
C84 C 0.15994 0.8256 0.27519 0.0
O85 O 0.19044 0.85646 0.21179 0.0
N86 N 0.13822 0.92036 0.12089 0.0
C87 C 0.16642 1.00054 0.04299 0.0
C88 C 0.14085 0.96926 0.94849 0.0
C89 C 0.12712 0.92948 0.98925 0.0
C90 C 0.16309 0.95088 0.2132 0.0
C91 C 0.17673 0.99083 0.1782 0.0
H92 H 0.10896 0.90628 0.91104 0.0
H93 H 0.17496 0.94514 0.31082 0.0
H94 H 0.09202 0.82438 0.86703 0.0
H95 H 0.20116 0.91473 0.69647 0.0
H96 H 0.06146 0.81473 0.64058 0.0
H97 H 0.13269 0.97553 0.84155 0.0
H98 H 0.19762 1.01409 0.25205 0.0
C99 C 0.30987 0.15329 0.11275 0.0
C100 C 0.30624 0.15284 0.26438 0.0
N101 N 0.29636 0.18046 0.30218 0.0
N102 N 0.30149 0.18051 0.05603 0.0
C103 C 0.29561 0.19808 0.17518 0.0
H104 H 0.3125 0.13125 0.04758 0.0
Co105 Co 0.28048 0.17669 0.86624 0.0
C106 C 0.21178 0.1875 0.95512 0.0
O107 O 0.18792 0.15598 0.87507 0.0
N108 N 0.26174 0.17406 0.67584 0.0
C109 C 0.26372 0.20599 0.46841 0.0
C110 C 0.25433 0.20171 0.61654 0.0
C111 C 0.27618 0.16243 0.56164 0.0
N112 N 0.27779 0.18145 0.4354 0.0
O113 O 0.32622 0.22802 0.80369 0.0
H114 H 0.25003 0.22283 0.68026 0.0
H115 H 0.2915 0.1458 0.57566 0.0
O116 O 0.24972 0.20201 0.94663 0.0
C117 C 0.35423 0.2218 0.7614 0.0
O118 O 0.35541 0.19202 0.82585 0.0
N119 N 0.2375 0.12351 0.91491 0.0
C120 C 0.18714 0.04289 0.99335 0.0
C121 C 0.19178 0.07376 0.0876 0.0
C122 C 0.21703 0.11377 0.04655 0.0
C123 C 0.2329 0.09338 0.82297 0.0
C124 C 0.20738 0.0532 0.85818 0.0
H125 H 0.22137 0.13672 0.12467 0.0
H126 H 0.25084 0.09968 0.72566 0.0
H127 H 0.28573 0.2196 0.16896 0.0
H128 H 0.3063 0.13088 0.33807 0.0
H129 H 0.26432 0.22849 0.39594 0.0
H130 H 0.17717 0.06704 0.19455 0.0
H131 H 0.20586 0.03033 0.78456 0.0
C132 C 0.89561 0.16967 0.1167 0.0
C133 C 0.8956 0.16641 0.26832 0.0
N134 N 0.86637 0.12932 0.30547 0.0
N135 N 0.86701 0.13451 0.05933 0.0
C136 C 0.84831 0.11138 0.17807 0.0
H137 H 0.91867 0.19384 0.05209 0.0
Co138 Co 0.86953 0.11649 0.8691 0.0
C139 C 0.85347 0.03501 0.95527 0.0
O140 O 0.88412 0.04107 0.8734 0.0
N141 N 0.8709 0.09966 0.67814 0.0
C142 C 0.83758 0.07082 0.47095 0.0
C143 C 0.84155 0.06522 0.6187 0.0
C144 C 0.88388 0.12591 0.56428 0.0
N145 N 0.86408 0.10916 0.43824 0.0
O146 O 0.81995 0.11422 0.80626 0.0
H147 H 0.81932 0.04035 0.68233 0.0
H148 H 0.90214 0.15792 0.57875 0.0
O149 O 0.84111 0.06011 0.94876 0.0
C150 C 0.8307 0.14959 0.76136 0.0
O151 O 0.86295 0.17897 0.82273 0.0
N152 N 0.92135 0.12363 0.91777 0.0
C153 C 1.00116 0.1504 0.99683 0.0
C154 C 0.9696 0.12513 0.09085 0.0
C155 C 0.92998 0.11206 0.04937 0.0
C156 C 0.95215 0.14814 0.82593 0.0
C157 C 0.99191 0.16104 0.86144 0.0
H158 H 0.90655 0.09424 0.1273 0.0
H159 H 0.94687 0.16043 0.72858 0.0
H160 H 0.82545 0.08021 0.17137 0.0
H161 H 0.91819 0.18787 0.34247 0.0
H162 H 0.81414 0.04968 0.39868 0.0
H163 H 0.97556 0.11679 0.19797 0.0
H164 H 1.01543 0.18172 0.78801 0.0
C165 C 0.88355 0.74414 0.10468 0.0
C166 C 0.88532 0.74935 0.25578 0.0
N167 N 0.92351 0.76375 0.29722 0.0
N168 N 0.92054 0.75539 0.05227 0.0
C169 C 0.94376 0.76517 0.17439 0.0
H170 H 0.8584 0.73853 0.03584 0.0
Co171 Co 0.93679 0.77654 0.86146 0.0
C172 C 1.01864 0.84225 0.96127 0.0
O173 O 1.01237 0.86988 0.90505 0.0
N174 N 0.95078 0.79584 0.6713 0.0
C175 C 0.97864 0.81477 0.44951 0.0
C176 C 0.98492 0.8214 0.59979 0.0
C177 C 0.9243 0.77498 0.5635 0.0
N178 N 0.94085 0.78472 0.42919 0.0
O179 O 0.94132 0.73047 0.79187 0.0
H180 H 1.0131 0.84165 0.65182 0.0
H181 H 0.89391 0.75156 0.58435 0.0
O182 O 0.99381 0.80526 0.93402 0.0
C183 C 0.90712 0.69979 0.76384 0.0
O184 O 0.87669 0.69645 0.84001 0.0
N185 N 0.9276 0.81932 0.91515 0.0
C186 C 0.8962 0.8682 0.99367 0.0
C187 C 0.9232 0.86478 0.08687 0.0
C188 C 0.93857 0.84024 0.04574 0.0
C189 C 0.90124 0.82265 0.82415 0.0
C190 C 0.88598 0.84749 0.85943 0.0
H191 H 0.95815 0.83721 0.12235 0.0
H192 H 0.88967 0.80415 0.72716 0.0
H193 H 0.97586 0.7783 0.17306 0.0
H194 H 0.86181 0.7477 0.32581 0.0
H195 H 1.00004 0.83017 0.36246 0.0
H196 H 0.93131 0.87987 0.19295 0.0
H197 H 0.86407 0.84818 0.78686 0.0
C198 C 0.83138 0.63703 0.25552 0.0
C199 C 0.831 0.63331 0.10395 0.0
N200 N 0.85973 0.62496 0.06629 0.0
N201 N 0.85962 0.63015 0.31233 0.0
C202 C 0.87784 0.62518 0.19328 0.0
H203 H 0.80867 0.63854 0.32058 0.0
Co204 Co 0.85669 0.60942 0.50194 0.0
C205 C 0.87082 0.54283 0.41498 0.0
O206 O 0.84 0.51858 0.49724 0.0
N207 N 0.85491 0.59094 0.69258 0.0
C208 C 0.88777 0.59478 0.89979 0.0
C209 C 0.88386 0.58546 0.75164 0.0
C210 C 0.84207 0.60412 0.80715 0.0
N211 N 0.86164 0.60686 0.93318 0.0
O212 O 0.90688 0.6568 0.56493 0.0
H213 H 0.90586 0.58259 0.6878 0.0
H214 H 0.82411 0.61806 0.79353 0.0
O215 O 0.88405 0.58059 0.42153 0.0
C216 C 0.89637 0.68135 0.61276 0.0
O217 O 0.86273 0.67684 0.55966 0.0
N218 N 0.80441 0.56493 0.45281 0.0
C219 C 0.72438 0.51219 0.37318 0.0
C220 C 0.75579 0.51816 0.27931 0.0
C221 C 0.79551 0.54455 0.32102 0.0
C222 C 0.77375 0.55902 0.54437 0.0
C223 C 0.73386 0.5323 0.5086 0.0
H224 H 0.81883 0.5499 0.24316 0.0
H225 H 0.77928 0.57681 0.64167 0.0
H226 H 0.90033 0.61656 0.1996 0.0
H227 H 0.8085 0.63226 0.03025 0.0
H228 H 0.91097 0.59678 0.97201 0.0
H229 H 0.74965 0.5037 0.17213 0.0
H230 H 0.71048 0.52975 0.58187 0.0
C231 C 0.41378 0.20607 0.25364 0.0
C232 C 0.41744 0.20927 0.10206 0.0
N233 N 0.42748 0.24691 0.06489 0.0
N234 N 0.42229 0.24178 0.31099 0.0
C235 C 0.42827 0.2653 0.19223 0.0
H236 H 0.41106 0.18133 0.31835 0.0
Co237 Co 0.4434 0.25908 0.50095 0.0
C238 C 0.5124 0.33888 0.41389 0.0
O239 O 0.53587 0.33117 0.49481 0.0
N240 N 0.46223 0.27532 0.69151 0.0
C241 C 0.46054 0.30537 0.89968 0.0
C242 C 0.46992 0.31052 0.75155 0.0
C243 C 0.44767 0.24913 0.8053 0.0
N244 N 0.44617 0.26657 0.93194 0.0
O245 O 0.3977 0.26428 0.56461 0.0
H246 H 0.47453 0.33612 0.68845 0.0
H247 H 0.43227 0.21704 0.79072 0.0
O248 O 0.47437 0.31543 0.42151 0.0
C249 C 0.36968 0.22973 0.60584 0.0
O250 O 0.36841 0.19884 0.53986 0.0
N251 N 0.48627 0.24923 0.45117 0.0
C252 C 0.5372 0.22017 0.3719 0.0
C253 C 0.5321 0.24593 0.27768 0.0
C254 C 0.50658 0.26012 0.31919 0.0
C255 C 0.4912 0.22401 0.54285 0.0
C256 C 0.51703 0.20994 0.5072 0.0
H257 H 0.50204 0.27853 0.24139 0.0
H258 H 0.4734 0.21225 0.6405 0.0
H259 H 0.43831 0.29682 0.19902 0.0
H260 H 0.41731 0.18721 0.02798 0.0
H261 H 0.4602 0.32737 0.97274 0.0
H262 H 0.54666 0.25398 0.17067 0.0
H263 H 0.51898 0.1889 0.58073 0.0
C264 C 0.84409 0.22332 0.25318 0.0
C265 C 0.84089 0.2235 0.10156 0.0
N266 N 0.80341 0.19516 0.06427 0.0
N267 N 0.80853 0.1955 0.31044 0.0
C268 C 0.78514 0.17738 0.19157 0.0
H269 H 0.86865 0.24588 0.31789 0.0
Co270 Co 0.79097 0.19883 0.5007 0.0
C271 C 0.71042 0.18516 0.41289 0.0
O272 O 0.71738 0.2164 0.49294 0.0
N273 N 0.77453 0.20097 0.69159 0.0
C274 C 0.74486 0.16847 0.89911 0.0
C275 C 0.73954 0.17268 0.75127 0.0
C276 C 0.80079 0.21309 0.80537 0.0
N277 N 0.78356 0.19371 0.93158 0.0
O278 O 0.78713 0.14859 0.5642 0.0
H279 H 0.71415 0.15117 0.68785 0.0
H280 H 0.83287 0.23034 0.79076 0.0
O281 O 0.73459 0.17168 0.42136 0.0
C282 C 0.82229 0.1583 0.60865 0.0
O283 O 0.85225 0.18997 0.54675 0.0
N284 N 0.79969 0.25121 0.45149 0.0
C285 C 0.82858 0.33139 0.37234 0.0
C286 C 0.80285 0.30014 0.27806 0.0
C287 C 0.78872 0.26033 0.31956 0.0
C288 C 0.82466 0.28171 0.54362 0.0
C289 C 0.83863 0.32168 0.50803 0.0
H290 H 0.77048 0.23711 0.24155 0.0
H291 H 0.83644 0.27595 0.64139 0.0
H292 H 0.75371 0.15528 0.19815 0.0
H293 H 0.86278 0.24572 0.02756 0.0
H294 H 0.72312 0.14562 0.97166 0.0
H295 H 0.79492 0.30644 0.17075 0.0
H296 H 0.85963 0.34492 0.58171 0.0
C297 C 0.97614 0.48293 0.43509 0.0
C298 C 0.97076 0.47958 0.58612 0.0
N299 N 0.95795 0.50459 0.62787 0.0
N300 N 0.96652 0.50976 0.38303 0.0
C301 C 0.95763 0.52396 0.5053 0.0
H302 H 0.98061 0.46264 0.36602 0.0
Co303 Co 0.94567 0.50568 0.19243 0.0
C304 C 0.88224 0.52473 0.29207 0.0
O305 O 0.85381 0.49127 0.23389 0.0
N306 N 0.92659 0.50113 1.00224 0.0
C307 C 0.9093 0.51213 0.78118 0.0
C308 C 0.90286 0.512 0.93149 0.0
C309 C 0.94614 0.49394 0.89384 0.0
N310 N 0.93741 0.50191 0.75996 0.0
O311 O 0.99322 0.55576 0.12402 0.0
H312 H 0.88422 0.52175 0.98417 0.0
H313 H 0.96812 0.48515 0.914 0.0
O314 O 0.91897 0.53571 0.26616 0.0
C315 C 1.02177 0.54943 0.09073 0.0
O316 O 1.02107 0.51879 0.15584 0.0
N317 N 0.90135 0.45405 0.24507 0.0
C318 C 0.84982 0.37367 0.32221 0.0
C319 C 0.85439 0.40469 0.41551 0.0
C320 C 0.88027 0.44462 0.37517 0.0
C321 C 0.89685 0.42382 0.15382 0.0
C322 C 0.87074 0.38372 0.18839 0.0
H323 H 0.88424 0.46762 0.45216 0.0
H324 H 0.91539 0.43021 0.0573 0.0
H325 H 0.94594 0.54405 0.50422 0.0
H326 H 0.9712 0.4571 0.65585 0.0
H327 H 0.89521 0.51976 0.69474 0.0
H328 H 0.83921 0.39811 0.52132 0.0
H329 H 0.86925 0.36069 0.11571 0.0
C330 C 0.5717 0.50453 0.43658 0.0
C331 C 0.57497 0.50267 0.58762 0.0
N332 N 0.5504 0.46456 0.62891 0.0
N333 N 0.5453 0.46768 0.3841 0.0
C334 C 0.53132 0.44448 0.5061 0.0
H335 H 0.59177 0.52958 0.3678 0.0
Co336 Co 0.54971 0.45125 0.19305 0.0
C337 C 0.53128 0.36894 0.29304 0.0
O338 O 0.56509 0.3745 0.23735 0.0
N339 N 0.55454 0.43707 1.00262 0.0
C340 C 0.54494 0.40906 0.78084 0.0
C341 C 0.54522 0.40279 0.93106 0.0
C342 C 0.56065 0.46362 0.89494 0.0
N343 N 0.55351 0.44702 0.76068 0.0
O344 O 0.49943 0.44753 0.1248 0.0
H345 H 0.53672 0.37455 0.9831 0.0
H346 H 0.56809 0.4941 0.91572 0.0
O347 O 0.52007 0.39429 0.26532 0.0
C348 C 0.5045 0.48212 0.09519 0.0
O349 O 0.53296 0.51247 0.16818 0.0
N350 N 0.60156 0.45962 0.24557 0.0
C351 C 0.6821 0.49025 0.32287 0.0
C352 C 0.65126 0.4634 0.41621 0.0
C353 C 0.61125 0.44846 0.37577 0.0
C354 C 0.63162 0.48569 0.15415 0.0
C355 C 0.67182 0.50057 0.18884 0.0
H356 H 0.58837 0.42912 0.45274 0.0
H357 H 0.62498 0.4974 0.05735 0.0
H358 H 0.51167 0.41244 0.50475 0.0
H359 H 0.59719 0.526 0.65768 0.0
H360 H 0.5384 0.38754 0.69379 0.0
H361 H 0.65801 0.45517 0.52212 0.0
H362 H 0.6947 0.52236 0.11607 0.0
C363 C 0.54517 0.07462 0.43547 0.0
C364 C 0.54691 0.07971 0.58663 0.0
N365 N 0.58509 0.09404 0.62809 0.0
N366 N 0.58216 0.08588 0.3831 0.0
C367 C 0.60537 0.09556 0.50521 0.0
H368 H 0.52003 0.06904 0.36658 0.0
Co369 Co 0.59843 0.10691 0.1923 0.0
C370 C 0.68029 0.17273 0.29179 0.0
O371 O 0.67401 0.20031 0.235 0.0
N372 N 0.61244 0.12607 1.00216 0.0
C373 C 0.64012 0.14522 0.78022 0.0
C374 C 0.64645 0.15187 0.93045 0.0
C375 C 0.58598 0.10504 0.89458 0.0
N376 N 0.60243 0.11494 0.76015 0.0
O377 O 0.603 0.06076 0.12332 0.0
H378 H 0.67458 0.17235 0.98227 0.0
H379 H 0.55568 0.08148 0.91567 0.0
O380 O 0.65546 0.13571 0.26498 0.0
C381 C 0.56906 0.02947 0.09755 0.0
O382 O 0.53868 0.02549 0.17585 0.0
N383 N 0.58929 0.14979 0.24543 0.0
C384 C 0.55866 0.19946 0.32252 0.0
C385 C 0.5854 0.19574 0.41617 0.0
C386 C 0.60033 0.17077 0.37587 0.0
C387 C 0.56315 0.15336 0.15398 0.0
C388 C 0.54826 0.17857 0.18859 0.0
H389 H 0.61974 0.16758 0.45281 0.0
H390 H 0.55155 0.13486 0.05697 0.0
H391 H 0.63747 0.10868 0.50392 0.0
H392 H 0.5234 0.07802 0.65676 0.0
H393 H 0.66141 0.1608 0.69301 0.0
H394 H 0.59368 0.21097 0.52196 0.0
H395 H 0.52654 0.17949 0.11561 0.0
C396 C 0.49211 0.96658 0.59105 0.0
C397 C 0.49176 0.96292 0.43946 0.0
N398 N 0.52018 0.95411 0.4019 0.0
N399 N 0.52002 0.95923 0.6479 0.0
C400 C 0.53808 0.95399 0.52893 0.0
H401 H 0.46959 0.96845 0.65606 0.0
Co402 Co 0.51696 0.93855 0.83751 0.0
C403 C 0.53004 0.8712 0.75022 0.0
O404 O 0.49903 0.84713 0.83199 0.0
N405 N 0.51507 0.92012 0.02808 0.0
C406 C 0.54755 0.92325 0.23548 0.0
C407 C 0.54358 0.91398 0.08725 0.0
C408 C 0.50259 0.93369 0.1425 0.0
N409 N 0.52191 0.93597 0.26867 0.0
O410 O 0.56754 0.98564 0.89975 0.0
H411 H 0.56529 0.9106 0.0235 0.0
H412 H 0.48508 0.9481 0.12877 0.0
O413 O 0.54368 0.90904 0.75707 0.0
C414 C 0.55795 1.01098 0.94658 0.0
O415 O 0.52458 1.00716 0.89365 0.0
N416 N 0.46431 0.89445 0.78922 0.0
C417 C 0.38391 0.84264 0.71071 0.0
C418 C 0.41508 0.84793 0.6167 0.0
C419 C 0.45498 0.87389 0.65777 0.0
C420 C 0.43391 0.88914 0.88106 0.0
C421 C 0.39386 0.86291 0.84586 0.0
H422 H 0.47811 0.87881 0.57962 0.0
H423 H 0.43979 0.90711 0.97803 0.0
H424 H 0.56031 0.94504 0.53528 0.0
H425 H 0.46946 0.96225 0.36564 0.0
H426 H 0.57046 0.92472 0.30794 0.0
H427 H 0.40865 0.83337 0.50968 0.0
H428 H 0.37075 0.86095 0.91926 0.0
C429 C 0.08675 0.53849 0.59764 0.0
C430 C 0.09206 0.54049 0.44657 0.0
N431 N 0.10535 0.57851 0.40548 0.0
N432 N 0.09689 0.57517 0.65032 0.0
C433 C 0.10603 0.59836 0.52844 0.0
H434 H 0.08197 0.51358 0.66622 0.0
Co435 Co 0.11779 0.59192 0.84108 0.0
C436 C 0.18225 0.67456 0.74269 0.0
O437 O 0.21019 0.66907 0.80098 0.0
N438 N 0.1369 0.60644 0.03142 0.0
C439 C 0.15472 0.6347 0.25303 0.0
C440 C 0.1612 0.64105 0.10279 0.0
C441 C 0.11697 0.57965 0.13937 0.0
N442 N 0.12601 0.59635 0.27356 0.0
O443 O 0.07053 0.5946 0.91004 0.0
H444 H 0.18035 0.66951 0.05066 0.0
H445 H 0.09462 0.54883 0.11872 0.0
O446 O 0.14531 0.649 0.76814 0.0
C447 C 0.0416 0.55955 0.94164 0.0
O448 O 0.0417 0.52952 0.87425 0.0
N449 N 0.16163 0.58428 0.78805 0.0
C450 C 0.21209 0.55465 0.70997 0.0
C451 C 0.20795 0.58123 0.61682 0.0
C452 C 0.18263 0.59572 0.65772 0.0
C453 C 0.16572 0.5584 0.8791 0.0
C454 C 0.19133 0.54404 0.84408 0.0
H455 H 0.17898 0.61489 0.58099 0.0
H456 H 0.1472 0.54639 0.97574 0.0
H457 H 0.11817 0.63032 0.53004 0.0
H458 H 0.09124 0.5174 0.37637 0.0
H459 H 0.16927 0.65638 0.33996 0.0
H460 H 0.22301 0.58959 0.51074 0.0
H461 H 0.19251 0.52239 0.91657 0.0
C462 C 0.51425 0.55625 0.58803 0.0
C463 C 0.51088 0.55617 0.43643 0.0
N464 N 0.47406 0.52633 0.39931 0.0
N465 N 0.47939 0.5271 0.64535 0.0
C466 C 0.45641 0.50803 0.52665 0.0
H467 H 0.53814 0.57963 0.65267 0.0
Co468 Co 0.46103 0.52898 0.83537 0.0
C469 C 0.37882 0.51109 0.75002 0.0
O470 O 0.38424 0.54129 0.83332 0.0
N471 N 0.44385 0.52974 0.02646 0.0
C472 C 0.4156 0.49597 0.23343 0.0
C473 C 0.40984 0.49967 0.08561 0.0
C474 C 0.47002 0.54345 0.14063 0.0
N475 N 0.45364 0.5234 0.2665 0.0
O476 O 0.46032 0.48 0.89745 0.0
H477 H 0.38533 0.47698 0.02177 0.0
H478 H 0.50195 0.56253 0.12661 0.0
O479 O 0.40458 0.49953 0.75534 0.0
C480 C 0.49584 0.49257 0.94567 0.0
O481 O 0.52411 0.52695 0.89276 0.0
N482 N 0.46686 0.58034 0.7873 0.0
C483 C 0.49213 0.65986 0.70838 0.0
C484 C 0.46719 0.62806 0.6145 0.0
C485 C 0.45487 0.5886 0.65589 0.0
C486 C 0.49097 0.61135 0.87913 0.0
C487 C 0.50311 0.65094 0.84372 0.0
H488 H 0.4374 0.56505 0.57786 0.0
H489 H 0.50363 0.60645 0.9762 0.0
H490 H 0.42547 0.4846 0.53335 0.0
H491 H 0.53198 0.57902 0.36229 0.0
H492 H 0.39492 0.4722 0.30552 0.0
H493 H 0.45862 0.63375 0.50735 0.0
H494 H 0.52359 0.67465 0.91703 0.0
C495 C 0.63672 0.8126 0.77081 0.0
C496 C 0.63136 0.80924 0.92185 0.0
N497 N 0.61805 0.83385 0.96346 0.0
N498 N 0.6266 0.83906 0.71865 0.0
C499 C 0.61741 0.85302 0.84085 0.0
H500 H 0.64155 0.79254 0.70183 0.0
Co501 Co 0.60573 0.83476 0.528 0.0
C502 C 0.54164 0.85287 0.62855 0.0
O503 O 0.51338 0.8191 0.57162 0.0
N504 N 0.58661 0.83003 0.33787 0.0
C505 C 0.56884 0.84047 0.11682 0.0
C506 C 0.56238 0.84026 0.26718 0.0
C507 C 0.60649 0.82331 0.22947 0.0
N508 N 0.59746 0.83095 0.09561 0.0
O509 O 0.65296 0.88513 0.45969 0.0
H510 H 0.54329 0.84946 0.31995 0.0
H511 H 0.62884 0.81501 0.24959 0.0
O512 O 0.57843 0.86425 0.6017 0.0
C513 C 0.68189 0.87932 0.4272 0.0
O514 O 0.68181 0.84912 0.4934 0.0
N515 N 0.56185 0.7828 0.58031 0.0
C516 C 0.51198 0.70209 0.65769 0.0
C517 C 0.51573 0.7328 0.75101 0.0
C518 C 0.54078 0.7729 0.7105 0.0
C519 C 0.55801 0.75286 0.48885 0.0
C520 C 0.53272 0.7126 0.52352 0.0
H521 H 0.54426 0.7957 0.78764 0.0
H522 H 0.57659 0.75965 0.39226 0.0
H523 H 0.60534 0.87279 0.83977 0.0
H524 H 0.63218 0.78698 0.99169 0.0
H525 H 0.55437 0.84765 0.03035 0.0
H526 H 0.50068 0.7259 0.85711 0.0
H527 H 0.53189 0.68989 0.45078 0.0
C528 C 0.23462 0.8387 0.78168 0.0
C529 C 0.23463 0.83549 0.93332 0.0
N530 N 0.20578 0.79822 0.97045 0.0
N531 N 0.20641 0.80334 0.72433 0.0
C532 C 0.18793 0.78009 0.84304 0.0
H533 H 0.25743 0.86307 0.71704 0.0
Co534 Co 0.20915 0.78556 0.53412 0.0
C535 C 0.1944 0.70443 0.62071 0.0
O536 O 0.22531 0.71097 0.53943 0.0
N537 N 0.21073 0.76894 0.34329 0.0
C538 C 0.17785 0.7397 0.13584 0.0
C539 C 0.18189 0.73423 0.28367 0.0
C540 C 0.22327 0.79522 0.22963 0.0
N541 N 0.20375 0.77823 0.10338 0.0
O542 O 0.15903 0.78226 0.47208 0.0
H543 H 0.16002 0.70909 0.34716 0.0
H544 H 0.24103 0.82726 0.24427 0.0
O545 O 0.18154 0.72913 0.61382 0.0
C546 C 0.16791 0.81732 0.42928 0.0
O547 O 0.19904 0.8475 0.49293 0.0
N548 N 0.26143 0.79363 0.58208 0.0
C549 C 0.34158 0.8216 0.66031 0.0
C550 C 0.31022 0.79594 0.7544 0.0
C551 C 0.27045 0.78231 0.71343 0.0
C552 C 0.29201 0.81845 0.49 0.0
C553 C 0.33194 0.83196 0.52511 0.0
H554 H 0.24718 0.76424 0.79156 0.0
H555 H 0.2864 0.83053 0.39277 0.0
H556 H 0.16539 0.74881 0.83634 0.0
H557 H 0.25699 0.85717 1.00755 0.0
H558 H 0.15474 0.71826 0.06329 0.0
H559 H 0.31643 0.78775 0.86138 0.0
H560 H 0.35523 0.85293 0.45158 0.0
C561 C 0.21273 0.40638 0.77151 0.0
C562 C 0.21491 0.41168 0.92261 0.0
N563 N 0.25271 0.42382 0.96369 0.0
N564 N 0.24909 0.41541 0.71875 0.0
C565 C 0.2722 0.42382 0.8406 0.0
H566 H 0.18809 0.40241 0.70298 0.0
Co567 Co 0.26629 0.43617 0.52815 0.0
C568 C 0.34963 0.49927 0.62567 0.0
O569 O 0.34504 0.52756 0.56545 0.0
N570 N 0.2812 0.45513 0.33783 0.0
C571 C 0.30983 0.47151 0.11657 0.0
C572 C 0.31623 0.47799 0.26675 0.0
C573 C 0.25417 0.436 0.22965 0.0
N574 N 0.27101 0.44419 0.09565 0.0
O575 O 0.26759 0.38819 0.45925 0.0
H576 H 0.34491 0.49596 0.31913 0.0
H577 H 0.22303 0.4146 0.2501 0.0
O578 O 0.3233 0.46249 0.60176 0.0
C579 C 0.23221 0.36017 0.42606 0.0
O580 O 0.2026 0.36154 0.4916 0.0
N581 N 0.26005 0.48085 0.58119 0.0
C582 C 0.23257 0.53308 0.65941 0.0
C583 C 0.25866 0.52808 0.75239 0.0
C584 C 0.27207 0.50188 0.7114 0.0
C585 C 0.23465 0.48578 0.49036 0.0
C586 C 0.22137 0.51227 0.52544 0.0
H587 H 0.29084 0.49756 0.78803 0.0
H588 H 0.22216 0.4673 0.39386 0.0
H589 H 0.30399 0.43498 0.83888 0.0
H590 H 0.19222 0.41167 0.99288 0.0
H591 H 0.3318 0.48495 0.02998 0.0
H592 H 0.26744 0.54316 0.85838 0.0
H593 H 0.20005 0.51412 0.45311 0.0
loop_
_geom_bond_atom_site_label_1
_geom_bond_atom_site_label_2
_geom_bond_distance
_geom_bond_site_symmetry_2
_ccdc_geom_bond_type
C0 C1 1.351 . S
C0 N3 1.368 . S
C0 H5 0.931 . S
C1 C0 1.351 . S
C1 N2 1.373 . S
C1 H29 0.930 . S
N2 C1 1.373 . S
N2 C4 1.340 . S
N3 C0 1.368 . S
N3 C4 1.321 . S
N3 Co6 2.135 1_556 S
C4 N2 1.340 . S
C4 N3 1.321 . S
C4 H28 0.930 . S
H5 C0 0.931 . S
Co6 N3 2.135 1_554 S
Co6 N9 2.121 . S
Co6 O14 2.055 . S
Co6 O17 2.039 . S
Co6 N20 2.140 . S
C7 O8 1.227 1_554 S
C7 O17 1.265 . S
O8 C7 1.227 1_556 S
N9 Co6 2.121 . S
N9 C11 1.375 . S
N9 C12 1.313 . S
C10 C11 1.338 . S
C10 N13 1.377 . S
C10 H30 0.930 . S
C11 N9 1.375 . S
C11 C10 1.338 . S
C11 H15 0.931 . S
C12 N9 1.313 . S
C12 N13 1.344 . S
C12 H16 0.930 . S
N13 C10 1.377 . S
N13 C12 1.344 . S
O14 Co6 2.055 . S
O14 C18 1.253 . S
H15 C11 0.931 . S
H16 C12 0.930 . S
O17 Co6 2.039 . S
O17 C7 1.265 . S
C18 O14 1.253 . S
C18 O19 1.227 . S
O19 C18 1.227 . S
N20 Co6 2.140 . S
N20 C23 1.346 1_554 S
N20 C24 1.345 . S
C21 C22 1.387 1_554 S
C21 C25 1.391 . S
C22 C21 1.387 1_556 S
C22 C23 1.369 . S
C22 H31 0.929 . S
C23 N20 1.346 1_556 S
C23 C22 1.369 . S
C23 H26 0.928 . S
C24 N20 1.345 . S
C24 C25 1.371 . S
C24 H27 0.931 . S
C25 C21 1.391 . S
C25 C24 1.371 . S
C25 H32 0.930 . S
H26 C23 0.928 . S
H27 C24 0.931 . S
H28 C4 0.930 . S
H29 C1 0.930 . S
H30 C10 0.930 . S
H31 C22 0.929 . S
H32 C25 0.930 . S
C33 C34 1.351 . S
C33 N36 1.368 . S
C33 H38 0.931 . S
C34 C33 1.351 . S
C34 N35 1.373 . S
C34 H62 0.930 . S
N35 C34 1.373 . S
N35 C37 1.340 . S
N36 C33 1.368 . S
N36 C37 1.321 . S
N36 Co39 2.135 1_556 S
C37 N35 1.340 . S
C37 N36 1.321 . S
C37 H61 0.930 . S
H38 C33 0.931 . S
Co39 N36 2.135 1_554 S
Co39 N42 2.121 . S
Co39 O47 2.055 . S
Co39 O50 2.039 . S
Co39 N53 2.140 . S
C40 O41 1.227 1_554 S
C40 O50 1.265 . S
O41 C40 1.227 1_556 S
N42 Co39 2.121 . S
N42 C44 1.375 . S
N42 C45 1.313 . S
C43 C44 1.338 . S
C43 N46 1.377 . S
C43 H63 0.930 . S
C44 N42 1.375 . S
C44 C43 1.338 . S
C44 H48 0.931 . S
C45 N42 1.313 . S
C45 N46 1.344 . S
C45 H49 0.930 . S
N46 C43 1.377 . S
N46 C45 1.344 . S
O47 Co39 2.055 . S
O47 C51 1.253 . S
H48 C44 0.931 . S
H49 C45 0.930 . S
O50 Co39 2.039 . S
O50 C40 1.265 . S
C51 O47 1.253 . S
C51 O52 1.227 . S
O52 C51 1.227 . S
N53 Co39 2.140 . S
N53 C56 1.346 1_554 S
N53 C57 1.345 . S
C54 C55 1.387 1_554 S
C54 C58 1.391 . S
C55 C54 1.387 1_556 S
C55 C56 1.369 . S
C55 H64 0.929 . S
C56 N53 1.346 1_556 S
C56 C55 1.369 . S
C56 H59 0.928 . S
C57 N53 1.345 . S
C57 C58 1.371 . S
C57 H60 0.931 . S
C58 C54 1.391 . S
C58 C57 1.371 . S
C58 H65 0.930 . S
H59 C56 0.928 . S
H60 C57 0.931 . S
H61 C37 0.930 . S
H62 C34 0.930 . S
H63 C43 0.930 . S
H64 C55 0.929 . S
H65 C58 0.930 . S
C66 C67 1.351 . S
C66 N69 1.368 . S
C66 H71 0.931 . S
C67 C66 1.351 . S
C67 N68 1.373 . S
C67 H95 0.930 . S
N68 C67 1.373 . S
N68 C70 1.340 . S
N69 C66 1.368 . S
N69 C70 1.321 . S
N69 Co72 2.135 1_556 S
C70 N68 1.340 . S
C70 N69 1.321 . S
C70 H94 0.930 . S
H71 C66 0.931 . S
Co72 N69 2.135 1_554 S
Co72 N75 2.121 . S
Co72 O80 2.055 . S
Co72 O83 2.039 . S
Co72 N86 2.140 . S
C73 O74 1.227 1_554 S
C73 O83 1.265 . S
O74 C73 1.227 1_556 S
N75 Co72 2.121 . S
N75 C77 1.375 . S
N75 C78 1.313 . S
C76 C77 1.338 . S
C76 N79 1.377 . S
C76 H96 0.930 . S
C77 N75 1.375 . S
C77 C76 1.338 . S
C77 H81 0.931 . S
C78 N75 1.313 . S
C78 N79 1.344 . S
C78 H82 0.930 . S
N79 C76 1.377 . S
N79 C78 1.344 . S
O80 Co72 2.055 . S
O80 C84 1.253 . S
H81 C77 0.931 . S
H82 C78 0.930 . S
O83 Co72 2.039 . S
O83 C73 1.265 . S
C84 O80 1.253 . S
C84 O85 1.227 . S
O85 C84 1.227 . S
N86 Co72 2.140 . S
N86 C89 1.346 1_554 S
N86 C90 1.345 . S
C87 C88 1.387 1_554 S
C87 C91 1.391 . S
C88 C87 1.387 1_556 S
C88 C89 1.369 . S
C88 H97 0.929 . S
C89 N86 1.346 1_556 S
C89 C88 1.369 . S
C89 H92 0.928 . S
C90 N86 1.345 . S
C90 C91 1.371 . S
C90 H93 0.931 . S
C91 C87 1.391 . S
C91 C90 1.371 . S
C91 H98 0.930 . S
H92 C89 0.928 . S
H93 C90 0.931 . S
H94 C70 0.930 . S
H95 C67 0.930 . S
H96 C76 0.930 . S
H97 C88 0.929 . S
H98 C91 0.930 . S
C99 C100 1.351 . S
C99 N102 1.368 . S
C99 H104 0.931 . S
C100 C99 1.351 . S
C100 N101 1.373 . S
C100 H128 0.930 . S
N101 C100 1.373 . S
N101 C103 1.340 . S
N102 C99 1.368 . S
N102 C103 1.321 . S
N102 Co105 2.135 1_554 S
C103 N101 1.340 . S
C103 N102 1.321 . S
C103 H127 0.930 . S
H104 C99 0.931 . S
Co105 N102 2.135 1_556 S
Co105 N108 2.121 . S
Co105 O113 2.055 . S
Co105 O116 2.039 . S
Co105 N119 2.140 . S
C106 O107 1.227 1_556 S
C106 O116 1.265 . S
O107 C106 1.227 1_554 S
N108 Co105 2.121 . S
N108 C110 1.375 . S
N108 C111 1.313 . S
C109 C110 1.338 . S
C109 N112 1.377 . S
C109 H129 0.930 . S
C110 N108 1.375 . S
C110 C109 1.338 . S
C110 H114 0.931 . S
C111 N108 1.313 . S
C111 N112 1.344 . S
C111 H115 0.930 . S
N112 C109 1.377 . S
N112 C111 1.344 . S
O113 Co105 2.055 . S
O113 C117 1.253 . S
H114 C110 0.931 . S
H115 C111 0.930 . S
O116 Co105 2.039 . S
O116 C106 1.265 . S
C117 O113 1.253 . S
C117 O118 1.227 . S
O118 C117 1.227 . S
N119 Co105 2.140 . S
N119 C122 1.346 1_556 S
N119 C123 1.345 . S
C120 C121 1.387 1_556 S
C120 C124 1.391 . S
C121 C120 1.387 1_554 S
C121 C122 1.369 . S
C121 H130 0.929 . S
C122 N119 1.346 1_554 S
C122 C121 1.369 . S
C122 H125 0.928 . S
C123 N119 1.345 . S
C123 C124 1.371 . S
C123 H126 0.931 . S
C124 C120 1.391 . S
C124 C123 1.371 . S
C124 H131 0.930 . S
H125 C122 0.928 . S
H126 C123 0.931 . S
H127 C103 0.930 . S
H128 C100 0.930 . S
H129 C109 0.930 . S
H130 C121 0.929 . S
H131 C124 0.930 . S
C132 C133 1.351 . S
C132 N135 1.368 . S
C132 H137 0.931 . S
C133 C132 1.351 . S
C133 N134 1.373 . S
C133 H161 0.930 . S
N134 C133 1.373 . S
N134 C136 1.340 . S
N135 C132 1.368 . S
N135 C136 1.321 . S
N135 Co138 2.135 1_554 S
C136 N134 1.340 . S
C136 N135 1.321 . S
C136 H160 0.930 . S
H137 C132 0.931 . S
Co138 N135 2.135 1_556 S
Co138 N141 2.121 . S
Co138 O146 2.055 . S
Co138 O149 2.039 . S
Co138 N152 2.140 . S
C139 O140 1.227 1_556 S
C139 O149 1.265 . S
O140 C139 1.227 1_554 S
N141 Co138 2.121 . S
N141 C143 1.375 . S
N141 C144 1.313 . S
C142 C143 1.338 . S
C142 N145 1.377 . S
C142 H162 0.930 . S
C143 N141 1.375 . S
C143 C142 1.338 . S
C143 H147 0.931 . S
C144 N141 1.313 . S
C144 N145 1.344 . S
C144 H148 0.930 . S
N145 C142 1.377 . S
N145 C144 1.344 . S
O146 Co138 2.055 . S
O146 C150 1.253 . S
H147 C143 0.931 . S
H148 C144 0.930 . S
O149 Co138 2.039 . S
O149 C139 1.265 . S
C150 O146 1.253 . S
C150 O151 1.227 . S
O151 C150 1.227 . S
N152 Co138 2.140 . S
N152 C155 1.346 1_556 S
N152 C156 1.345 . S
C153 C154 1.387 1_556 S
C153 C157 1.391 . S
C154 C153 1.387 1_554 S
C154 C155 1.369 . S
C154 H163 0.929 . S
C155 N152 1.346 1_554 S
C155 C154 1.369 . S
C155 H158 0.928 . S
C156 N152 1.345 . S
C156 C157 1.371 . S
C156 H159 0.931 . S
C157 C153 1.391 . S
C157 C156 1.371 . S
C157 H164 0.930 . S
H158 C155 0.928 . S
H159 C156 0.931 . S
H160 C136 0.930 . S
H161 C133 0.930 . S
H162 C142 0.930 . S
H163 C154 0.929 . S
H164 C157 0.930 . S
C165 C166 1.351 . S
C165 N168 1.368 . S
C165 H170 0.931 . S
C166 C165 1.351 . S
C166 N167 1.373 . S
C166 H194 0.930 . S
N167 C166 1.373 . S
N167 C169 1.340 . S
N168 C165 1.368 . S
N168 C169 1.321 . S
N168 Co171 2.135 1_554 S
C169 N167 1.340 . S
C169 N168 1.321 . S
C169 H193 0.930 . S
H170 C165 0.931 . S
Co171 N168 2.135 1_556 S
Co171 N174 2.121 . S
Co171 O179 2.055 . S
Co171 O182 2.039 . S
Co171 N185 2.140 . S
C172 O173 1.227 1_556 S
C172 O182 1.265 . S
O173 C172 1.227 1_554 S
N174 Co171 2.121 . S
N174 C176 1.375 . S
N174 C177 1.313 . S
C175 C176 1.338 . S
C175 N178 1.377 . S
C175 H195 0.930 . S
C176 N174 1.375 . S
C176 C175 1.338 . S
C176 H180 0.931 . S
C177 N174 1.313 . S
C177 N178 1.344 . S
C177 H181 0.930 . S
N178 C175 1.377 . S
N178 C177 1.344 . S
O179 Co171 2.055 . S
O179 C183 1.253 . S
H180 C176 0.931 . S
H181 C177 0.930 . S
O182 Co171 2.039 . S
O182 C172 1.265 . S
C183 O179 1.253 . S
C183 O184 1.227 . S
O184 C183 1.227 . S
N185 Co171 2.140 . S
N185 C188 1.346 1_556 S
N185 C189 1.345 . S
C186 C187 1.387 1_556 S
C186 C190 1.391 . S
C187 C186 1.387 1_554 S
C187 C188 1.369 . S
C187 H196 0.929 . S
C188 N185 1.346 1_554 S
C188 C187 1.369 . S
C188 H191 0.928 . S
C189 N185 1.345 . S
C189 C190 1.371 . S
C189 H192 0.931 . S
C190 C186 1.391 . S
C190 C189 1.371 . S
C190 H197 0.930 . S
H191 C188 0.928 . S
H192 C189 0.931 . S
H193 C169 0.930 . S
H194 C166 0.930 . S
H195 C175 0.930 . S
H196 C187 0.929 . S
H197 C190 0.930 . S
C198 C199 1.351 . S
C198 N201 1.368 . S
C198 H203 0.931 . S
C199 C198 1.351 . S
C199 N200 1.373 . S
C199 H227 0.934 . S
N200 C199 1.373 . S
N200 C202 1.340 . S
N201 C198 1.368 . S
N201 C202 1.321 . S
N201 Co204 2.135 . S
C202 N200 1.340 . S
C202 N201 1.321 . S
C202 H226 0.930 . S
H203 C198 0.931 . S
Co204 N201 2.135 . S
Co204 N207 2.121 . S
Co204 O212 2.055 . S
Co204 O215 2.039 . S
Co204 N218 2.140 . S
C205 O206 1.227 . S
C205 O215 1.265 . S
O206 C205 1.227 . S
N207 Co204 2.121 . S
N207 C209 1.375 . S
N207 C210 1.313 . S
C208 C209 1.338 . S
C208 N211 1.377 . S
C208 H228 0.930 . S
C209 N207 1.375 . S
C209 C208 1.338 . S
C209 H213 0.931 . S
C210 N207 1.313 . S
C210 N211 1.344 . S
C210 H214 0.930 . S
N211 C208 1.377 . S
N211 C210 1.344 . S
O212 Co204 2.055 . S
O212 C216 1.253 . S
H213 C209 0.931 . S
H214 C210 0.930 . S
O215 Co204 2.039 . S
O215 C205 1.265 . S
C216 O212 1.253 . S
C216 O217 1.227 . S
O217 C216 1.227 . S
N218 Co204 2.140 . S
N218 C221 1.346 . S
N218 C222 1.345 . S
C219 C220 1.387 . S
C219 C223 1.391 . S
C220 C219 1.387 . S
C220 C221 1.369 . S
C220 H229 0.929 . S
C221 N218 1.346 . S
C221 C220 1.369 . S
C221 H224 0.928 . S
C222 N218 1.345 . S
C222 C223 1.371 . S
C222 H225 0.931 . S
C223 C219 1.391 . S
C223 C222 1.371 . S
C223 H230 0.930 . S
H224 C221 0.928 . S
H225 C222 0.931 . S
H226 C202 0.930 . S
H227 C199 0.934 . S
H228 C208 0.930 . S
H229 C220 0.929 . S
H230 C223 0.930 . S
C231 C232 1.351 . S
C231 N234 1.368 . S
C231 H236 0.931 . S
C232 C231 1.351 . S
C232 N233 1.373 . S
C232 H260 0.934 . S
N233 C232 1.373 . S
N233 C235 1.340 . S
N234 C231 1.368 . S
N234 C235 1.321 . S
N234 Co237 2.135 . S
C235 N233 1.340 . S
C235 N234 1.321 . S
C235 H259 0.930 . S
H236 C231 0.931 . S
Co237 N234 2.135 . S
Co237 N240 2.121 . S
Co237 O245 2.055 . S
Co237 O248 2.039 . S
Co237 N251 2.140 . S
C238 O239 1.227 . S
C238 O248 1.265 . S
O239 C238 1.227 . S
N240 Co237 2.121 . S
N240 C242 1.375 . S
N240 C243 1.313 . S
C241 C242 1.338 . S
C241 N244 1.377 . S
C241 H261 0.930 . S
C242 N240 1.375 . S
C242 C241 1.338 . S
C242 H246 0.931 . S
C243 N240 1.313 . S
C243 N244 1.344 . S
C243 H247 0.930 . S
N244 C241 1.377 . S
N244 C243 1.344 . S
O245 Co237 2.055 . S
O245 C249 1.253 . S
H246 C242 0.931 . S
H247 C243 0.930 . S
O248 Co237 2.039 . S
O248 C238 1.265 . S
C249 O245 1.253 . S
C249 O250 1.227 . S
O250 C249 1.227 . S
N251 Co237 2.140 . S
N251 C254 1.346 . S
N251 C255 1.345 . S
C252 C253 1.387 . S
C252 C256 1.391 . S
C253 C252 1.387 . S
C253 C254 1.369 . S
C253 H262 0.929 . S
C254 N251 1.346 . S
C254 C253 1.369 . S
C254 H257 0.928 . S
C255 N251 1.345 . S
C255 C256 1.371 . S
C255 H258 0.931 . S
C256 C252 1.391 . S
C256 C255 1.371 . S
C256 H263 0.930 . S
H257 C254 0.928 . S
H258 C255 0.931 . S
H259 C235 0.930 . S
H260 C232 0.934 . S
H261 C241 0.930 . S
H262 C253 0.929 . S
H263 C256 0.930 . S
C264 C265 1.351 . S
C264 N267 1.368 . S
C264 H269 0.931 . S
C265 C264 1.351 . S
C265 N266 1.373 . S
C265 H293 0.934 . S
N266 C265 1.373 . S
N266 C268 1.340 . S
N267 C264 1.368 . S
N267 C268 1.321 . S
N267 Co270 2.135 . S
C268 N266 1.340 . S
C268 N267 1.321 . S
C268 H292 0.930 . S
H269 C264 0.931 . S
Co270 N267 2.135 . S
Co270 N273 2.121 . S
Co270 O278 2.055 . S
Co270 O281 2.039 . S
Co270 N284 2.140 . S
C271 O272 1.227 . S
C271 O281 1.265 . S
O272 C271 1.227 . S
N273 Co270 2.121 . S
N273 C275 1.375 . S
N273 C276 1.313 . S
C274 C275 1.338 . S
C274 N277 1.377 . S
C274 H294 0.930 . S
C275 N273 1.375 . S
C275 C274 1.338 . S
C275 H279 0.931 . S
C276 N273 1.313 . S
C276 N277 1.344 . S
C276 H280 0.930 . S
N277 C274 1.377 . S
N277 C276 1.344 . S
O278 Co270 2.055 . S
O278 C282 1.253 . S
H279 C275 0.931 . S
H280 C276 0.930 . S
O281 Co270 2.039 . S
O281 C271 1.265 . S
C282 O278 1.253 . S
C282 O283 1.227 . S
O283 C282 1.227 . S
N284 Co270 2.140 . S
N284 C287 1.346 . S
N284 C288 1.345 . S
C285 C286 1.387 . S
C285 C289 1.391 . S
C286 C285 1.387 . S
C286 C287 1.369 . S
C286 H295 0.929 . S
C287 N284 1.346 . S
C287 C286 1.369 . S
C287 H290 0.928 . S
C288 N284 1.345 . S
C288 C289 1.371 . S
C288 H291 0.931 . S
C289 C285 1.391 . S
C289 C288 1.371 . S
C289 H296 0.930 . S
H290 C287 0.928 . S
H291 C288 0.931 . S
H292 C268 0.930 . S
H293 C265 0.934 . S
H294 C274 0.930 . S
H295 C286 0.929 . S
H296 C289 0.930 . S
C297 C298 1.351 . S
C297 N300 1.368 . S
C297 H302 0.931 . S
C298 C297 1.351 . S
C298 N299 1.373 . S
C298 H326 0.930 . S
N299 C298 1.373 . S
N299 C301 1.340 . S
N300 C297 1.368 . S
N300 C301 1.321 . S
N300 Co303 2.135 . S
C301 N299 1.340 . S
C301 N300 1.321 . S
C301 H325 0.930 . S
H302 C297 0.931 . S
Co303 N300 2.135 . S
Co303 N306 2.121 . S
Co303 O311 2.055 . S
Co303 O314 2.039 . S
Co303 N317 2.140 . S
C304 O305 1.227 . S
C304 O314 1.265 . S
O305 C304 1.227 . S
N306 Co303 2.121 . S
N306 C308 1.375 1_554 S
N306 C309 1.313 1_554 S
C307 C308 1.338 . S
C307 N310 1.377 . S
C307 H327 0.930 . S
C308 N306 1.375 1_556 S
C308 C307 1.338 . S
C308 H312 0.931 1_556 S
C309 N306 1.313 1_556 S
C309 N310 1.344 . S
C309 H313 0.930 . S
N310 C307 1.377 . S
N310 C309 1.344 . S
O311 Co303 2.055 . S
O311 C315 1.253 . S
H312 C308 0.931 1_554 S
H313 C309 0.930 . S
O314 Co303 2.039 . S
O314 C304 1.265 . S
C315 O311 1.253 . S
C315 O316 1.227 . S
O316 C315 1.227 . S
N317 Co303 2.140 . S
N317 C320 1.346 . S
N317 C321 1.345 . S
C318 C319 1.387 . S
C318 C322 1.391 . S
C319 C318 1.387 . S
C319 C320 1.369 . S
C319 H328 0.929 . S
C320 N317 1.346 . S
C320 C319 1.369 . S
C320 H323 0.928 . S
C321 N317 1.345 . S
C321 C322 1.371 . S
C321 H324 0.931 . S
C322 C318 1.391 . S
C322 C321 1.371 . S
C322 H329 0.930 . S
H323 C320 0.928 . S
H324 C321 0.931 . S
H325 C301 0.930 . S
H326 C298 0.930 . S
H327 C307 0.930 . S
H328 C319 0.929 . S
H329 C322 0.930 . S
C330 C331 1.351 . S
C330 N333 1.368 . S
C330 H335 0.931 . S
C331 C330 1.351 . S
C331 N332 1.373 . S
C331 H359 0.930 . S
N332 C331 1.373 . S
N332 C334 1.340 . S
N333 C330 1.368 . S
N333 C334 1.321 . S
N333 Co336 2.135 . S
C334 N332 1.340 . S
C334 N333 1.321 . S
C334 H358 0.930 . S
H335 C330 0.931 . S
Co336 N333 2.135 . S
Co336 N339 2.121 . S
Co336 O344 2.055 . S
Co336 O347 2.039 . S
Co336 N350 2.140 . S
C337 O338 1.227 . S
C337 O347 1.265 . S
O338 C337 1.227 . S
N339 Co336 2.121 . S
N339 C341 1.375 1_554 S
N339 C342 1.313 1_554 S
C340 C341 1.338 . S
C340 N343 1.377 . S
C340 H360 0.930 . S
C341 N339 1.375 1_556 S
C341 C340 1.338 . S
C341 H345 0.931 1_556 S
C342 N339 1.313 1_556 S
C342 N343 1.344 . S
C342 H346 0.930 . S
N343 C340 1.377 . S
N343 C342 1.344 . S
O344 Co336 2.055 . S
O344 C348 1.253 . S
H345 C341 0.931 1_554 S
H346 C342 0.930 . S
O347 Co336 2.039 . S
O347 C337 1.265 . S
C348 O344 1.253 . S
C348 O349 1.227 . S
O349 C348 1.227 . S
N350 Co336 2.140 . S
N350 C353 1.346 . S
N350 C354 1.345 . S
C351 C352 1.387 . S
C351 C355 1.391 . S
C352 C351 1.387 . S
C352 C353 1.369 . S
C352 H361 0.929 . S
C353 N350 1.346 . S
C353 C352 1.369 . S
C353 H356 0.928 . S
C354 N350 1.345 . S
C354 C355 1.371 . S
C354 H357 0.931 . S
C355 C351 1.391 . S
C355 C354 1.371 . S
C355 H362 0.930 . S
H356 C353 0.928 . S
H357 C354 0.931 . S
H358 C334 0.930 . S
H359 C331 0.930 . S
H360 C340 0.930 . S
H361 C352 0.929 . S
H362 C355 0.930 . S
C363 C364 1.351 . S
C363 N366 1.368 . S
C363 H368 0.931 . S
C364 C363 1.351 . S
C364 N365 1.373 . S
C364 H392 0.930 . S
N365 C364 1.373 . S
N365 C367 1.340 . S
N366 C363 1.368 . S
N366 C367 1.321 . S
N366 Co369 2.135 . S
C367 N365 1.340 . S
C367 N366 1.321 . S
C367 H391 0.930 . S
H368 C363 0.931 . S
Co369 N366 2.135 . S
Co369 N372 2.121 . S
Co369 O377 2.055 . S
Co369 O380 2.039 . S
Co369 N383 2.140 . S
C370 O371 1.227 . S
C370 O380 1.265 . S
O371 C370 1.227 . S
N372 Co369 2.121 . S
N372 C374 1.375 1_554 S
N372 C375 1.313 1_554 S
C373 C374 1.338 . S
C373 N376 1.377 . S
C373 H393 0.930 . S
C374 N372 1.375 1_556 S
C374 C373 1.338 . S
C374 H378 0.931 1_556 S
C375 N372 1.313 1_556 S
C375 N376 1.344 . S
C375 H379 0.930 . S
N376 C373 1.377 . S
N376 C375 1.344 . S
O377 Co369 2.055 . S
O377 C381 1.253 . S
H378 C374 0.931 1_554 S
H379 C375 0.930 . S
O380 Co369 2.039 . S
O380 C370 1.265 . S
C381 O377 1.253 . S
C381 O382 1.227 . S
O382 C381 1.227 . S
N383 Co369 2.140 . S
N383 C386 1.346 . S
N383 C387 1.345 . S
C384 C385 1.387 . S
C384 C388 1.391 . S
C385 C384 1.387 . S
C385 C386 1.369 . S
C385 H394 0.929 . S
C386 N383 1.346 . S
C386 C385 1.369 . S
C386 H389 0.928 . S
C387 N383 1.345 . S
C387 C388 1.371 . S
C387 H390 0.931 . S
C388 C384 1.391 . S
C388 C387 1.371 . S
C388 H395 0.930 . S
H389 C386 0.928 . S
H390 C387 0.931 . S
H391 C367 0.930 . S
H392 C364 0.930 . S
H393 C373 0.930 . S
H394 C385 0.929 . S
H395 C388 0.930 . S
C396 C397 1.351 . S
C396 N399 1.368 . S
C396 H401 0.931 . S
C397 C396 1.351 . S
C397 N398 1.373 . S
C397 H425 0.930 . S
N398 C397 1.373 . S
N398 C400 1.340 . S
N399 C396 1.368 . S
N399 C400 1.321 . S
N399 Co402 2.135 . S
C400 N398 1.340 . S
C400 N399 1.321 . S
C400 H424 0.930 . S
H401 C396 0.931 . S
Co402 N399 2.135 . S
Co402 N405 2.121 . S
Co402 O410 2.055 . S
Co402 O413 2.039 . S
Co402 N416 2.140 . S
C403 O404 1.227 . S
C403 O413 1.265 . S
O404 C403 1.227 . S
N405 Co402 2.121 . S
N405 C407 1.375 1_556 S
N405 C408 1.313 1_556 S
C406 C407 1.338 . S
C406 N409 1.377 . S
C406 H426 0.930 . S
C407 N405 1.375 1_554 S
C407 C406 1.338 . S
C407 H411 0.931 1_554 S
C408 N405 1.313 1_554 S
C408 N409 1.344 . S
C408 H412 0.930 . S
N409 C406 1.377 . S
N409 C408 1.344 . S
O410 Co402 2.055 . S
O410 C414 1.253 . S
H411 C407 0.931 1_556 S
H412 C408 0.930 . S
O413 Co402 2.039 . S
O413 C403 1.265 . S
C414 O410 1.253 . S
C414 O415 1.227 . S
O415 C414 1.227 . S
N416 Co402 2.140 . S
N416 C419 1.346 . S
N416 C420 1.345 . S
C417 C418 1.387 . S
C417 C421 1.391 . S
C418 C417 1.387 . S
C418 C419 1.369 . S
C418 H427 0.929 . S
C419 N416 1.346 . S
C419 C418 1.369 . S
C419 H422 0.928 . S
C420 N416 1.345 . S
C420 C421 1.371 . S
C420 H423 0.931 . S
C421 C417 1.391 . S
C421 C420 1.371 . S
C421 H428 0.930 . S
H422 C419 0.928 . S
H423 C420 0.931 . S
H424 C400 0.930 . S
H425 C397 0.930 . S
H426 C406 0.930 . S
H427 C418 0.929 . S
H428 C421 0.930 . S
C429 C430 1.351 . S
C429 N432 1.368 . S
C429 H434 0.931 . S
C430 C429 1.351 . S
C430 N431 1.373 . S
C430 H458 0.930 . S
N431 C430 1.373 . S
N431 C433 1.340 . S
N432 C429 1.368 . S
N432 C433 1.321 . S
N432 Co435 2.135 . S
C433 N431 1.340 . S
C433 N432 1.321 . S
C433 H457 0.930 . S
H434 C429 0.931 . S
Co435 N432 2.135 . S
Co435 N438 2.121 . S
Co435 O443 2.055 . S
Co435 O446 2.039 . S
Co435 N449 2.140 . S
C436 O437 1.227 . S
C436 O446 1.265 . S
O437 C436 1.227 . S
N438 Co435 2.121 . S
N438 C440 1.375 1_556 S
N438 C441 1.313 1_556 S
C439 C440 1.338 . S
C439 N442 1.377 . S
C439 H459 0.930 . S
C440 N438 1.375 1_554 S
C440 C439 1.338 . S
C440 H444 0.931 1_554 S
C441 N438 1.313 1_554 S
C441 N442 1.344 . S
C441 H445 0.930 . S
N442 C439 1.377 . S
N442 C441 1.344 . S
O443 Co435 2.055 . S
O443 C447 1.253 . S
H444 C440 0.931 1_556 S
H445 C441 0.930 . S
O446 Co435 2.039 . S
O446 C436 1.265 . S
C447 O443 1.253 . S
C447 O448 1.227 . S
O448 C447 1.227 . S
N449 Co435 2.140 . S
N449 C452 1.346 . S
N449 C453 1.345 . S
C450 C451 1.387 . S
C450 C454 1.391 . S
C451 C450 1.387 . S
C451 C452 1.369 . S
C451 H460 0.929 . S
C452 N449 1.346 . S
C452 C451 1.369 . S
C452 H455 0.928 . S
C453 N449 1.345 . S
C453 C454 1.371 . S
C453 H456 0.931 . S
C454 C450 1.391 . S
C454 C453 1.371 . S
C454 H461 0.930 . S
H455 C452 0.928 . S
H456 C453 0.931 . S
H457 C433 0.930 . S
H458 C430 0.930 . S
H459 C439 0.930 . S
H460 C451 0.929 . S
H461 C454 0.930 . S
C462 C463 1.351 . S
C462 N465 1.368 . S
C462 H467 0.931 . S
C463 C462 1.351 . S
C463 N464 1.373 . S
C463 H491 0.930 . S
N464 C463 1.373 . S
N464 C466 1.340 . S
N465 C462 1.368 . S
N465 C466 1.321 . S
N465 Co468 2.135 . S
C466 N464 1.340 . S
C466 N465 1.321 . S
C466 H490 0.930 . S
H467 C462 0.931 . S
Co468 N465 2.135 . S
Co468 N471 2.121 . S
Co468 O476 2.055 . S
Co468 O479 2.039 . S
Co468 N482 2.140 . S
C469 O470 1.227 . S
C469 O479 1.265 . S
O470 C469 1.227 . S
N471 Co468 2.121 . S
N471 C473 1.375 1_556 S
N471 C474 1.313 1_556 S
C472 C473 1.338 . S
C472 N475 1.377 . S
C472 H492 0.930 . S
C473 N471 1.375 1_554 S
C473 C472 1.338 . S
C473 H477 0.931 1_554 S
C474 N471 1.313 1_554 S
C474 N475 1.344 . S
C474 H478 0.930 . S
N475 C472 1.377 . S
N475 C474 1.344 . S
O476 Co468 2.055 . S
O476 C480 1.253 . S
H477 C473 0.931 1_556 S
H478 C474 0.930 . S
O479 Co468 2.039 . S
O479 C469 1.265 . S
C480 O476 1.253 . S
C480 O481 1.227 . S
O481 C480 1.227 . S
N482 Co468 2.140 . S
N482 C485 1.346 . S
N482 C486 1.345 . S
C483 C484 1.387 . S
C483 C487 1.391 . S
C484 C483 1.387 . S
C484 C485 1.369 . S
C484 H493 0.929 . S
C485 N482 1.346 . S
C485 C484 1.369 . S
C485 H488 0.928 . S
C486 N482 1.345 . S
C486 C487 1.371 . S
C486 H489 0.931 . S
C487 C483 1.391 . S
C487 C486 1.371 . S
C487 H494 0.930 . S
H488 C485 0.928 . S
H489 C486 0.931 . S
H490 C466 0.930 . S
H491 C463 0.930 . S
H492 C472 0.930 . S
H493 C484 0.929 . S
H494 C487 0.930 . S
C495 C496 1.351 . S
C495 N498 1.368 . S
C495 H500 0.931 . S
C496 C495 1.351 . S
C496 N497 1.373 . S
C496 H524 0.934 . S
N497 C496 1.373 . S
N497 C499 1.340 . S
N498 C495 1.368 . S
N498 C499 1.321 . S
N498 Co501 2.135 . S
C499 N497 1.340 . S
C499 N498 1.321 . S
C499 H523 0.930 . S
H500 C495 0.931 . S
Co501 N498 2.135 . S
Co501 N504 2.121 . S
Co501 O509 2.055 . S
Co501 O512 2.039 . S
Co501 N515 2.140 . S
C502 O503 1.227 . S
C502 O512 1.265 . S
O503 C502 1.227 . S
N504 Co501 2.121 . S
N504 C506 1.375 . S
N504 C507 1.313 . S
C505 C506 1.338 . S
C505 N508 1.377 . S
C505 H525 0.930 . S
C506 N504 1.375 . S
C506 C505 1.338 . S
C506 H510 0.931 . S
C507 N504 1.313 . S
C507 N508 1.344 . S
C507 H511 0.930 . S
N508 C505 1.377 . S
N508 C507 1.344 . S
O509 Co501 2.055 . S
O509 C513 1.253 . S
H510 C506 0.931 . S
H511 C507 0.930 . S
O512 Co501 2.039 . S
O512 C502 1.265 . S
C513 O509 1.253 . S
C513 O514 1.227 . S
O514 C513 1.227 . S
N515 Co501 2.140 . S
N515 C518 1.346 . S
N515 C519 1.345 . S
C516 C517 1.387 . S
C516 C520 1.391 . S
C517 C516 1.387 . S
C517 C518 1.369 . S
C517 H526 0.929 . S
C518 N515 1.346 . S
C518 C517 1.369 . S
C518 H521 0.928 . S
C519 N515 1.345 . S
C519 C520 1.371 . S
C519 H522 0.931 . S
C520 C516 1.391 . S
C520 C519 1.371 . S
C520 H527 0.930 . S
H521 C518 0.928 . S
H522 C519 0.931 . S
H523 C499 0.930 . S
H524 C496 0.934 . S
H525 C505 0.930 . S
H526 C517 0.929 . S
H527 C520 0.930 . S
C528 C529 1.351 . S
C528 N531 1.368 . S
C528 H533 0.931 . S
C529 C528 1.351 . S
C529 N530 1.373 . S
C529 H557 0.934 . S
N530 C529 1.373 . S
N530 C532 1.340 . S
N531 C528 1.368 . S
N531 C532 1.321 . S
N531 Co534 2.135 . S
C532 N530 1.340 . S
C532 N531 1.321 . S
C532 H556 0.930 . S
H533 C528 0.931 . S
Co534 N531 2.135 . S
Co534 N537 2.121 . S
Co534 O542 2.055 . S
Co534 O545 2.039 . S
Co534 N548 2.140 . S
C535 O536 1.227 . S
C535 O545 1.265 . S
O536 C535 1.227 . S
N537 Co534 2.121 . S
N537 C539 1.375 . S
N537 C540 1.313 . S
C538 C539 1.338 . S
C538 N541 1.377 . S
C538 H558 0.930 . S
C539 N537 1.375 . S
C539 C538 1.338 . S
C539 H543 0.931 . S
C540 N537 1.313 . S
C540 N541 1.344 . S
C540 H544 0.930 . S
N541 C538 1.377 . S
N541 C540 1.344 . S
O542 Co534 2.055 . S
O542 C546 1.253 . S
H543 C539 0.931 . S
H544 C540 0.930 . S
O545 Co534 2.039 . S
O545 C535 1.265 . S
C546 O542 1.253 . S
C546 O547 1.227 . S
O547 C546 1.227 . S
N548 Co534 2.140 . S
N548 C551 1.346 . S
N548 C552 1.345 . S
C549 C550 1.387 . S
C549 C553 1.391 . S
C550 C549 1.387 . S
C550 C551 1.369 . S
C550 H559 0.929 . S
C551 N548 1.346 . S
C551 C550 1.369 . S
C551 H554 0.928 . S
C552 N548 1.345 . S
C552 C553 1.371 . S
C552 H555 0.931 . S
C553 C549 1.391 . S
C553 C552 1.371 . S
C553 H560 0.930 . S
H554 C551 0.928 . S
H555 C552 0.931 . S
H556 C532 0.930 . S
H557 C529 0.934 . S
H558 C538 0.930 . S
H559 C550 0.929 . S
H560 C553 0.930 . S
C561 C562 1.351 . S
C561 N564 1.368 . S
C561 H566 0.931 . S
C562 C561 1.351 . S
C562 N563 1.373 . S
C562 H590 0.934 . S
N563 C562 1.373 . S
N563 C565 1.340 . S
N564 C561 1.368 . S
N564 C565 1.321 . S
N564 Co567 2.135 . S
C565 N563 1.340 . S
C565 N564 1.321 . S
C565 H589 0.930 . S
H566 C561 0.931 . S
Co567 N564 2.135 . S
Co567 N570 2.121 . S
Co567 O575 2.055 . S
Co567 O578 2.039 . S
Co567 N581 2.140 . S
C568 O569 1.227 . S
C568 O578 1.265 . S
O569 C568 1.227 . S
N570 Co567 2.121 . S
N570 C572 1.375 . S
N570 C573 1.313 . S
C571 C572 1.338 . S
C571 N574 1.377 . S
C571 H591 0.930 . S
C572 N570 1.375 . S
C572 C571 1.338 . S
C572 H576 0.931 . S
C573 N570 1.313 . S
C573 N574 1.344 . S
C573 H577 0.930 . S
N574 C571 1.377 . S
N574 C573 1.344 . S
O575 Co567 2.055 . S
O575 C579 1.253 . S
H576 C572 0.931 . S
H577 C573 0.930 . S
O578 Co567 2.039 . S
O578 C568 1.265 . S
C579 O575 1.253 . S
C579 O580 1.227 . S
O580 C579 1.227 . S
N581 Co567 2.140 . S
N581 C584 1.346 . S
N581 C585 1.345 . S
C582 C583 1.387 . S
C582 C586 1.391 . S
C583 C582 1.387 . S
C583 C584 1.369 . S
C583 H592 0.929 . S
C584 N581 1.346 . S
C584 C583 1.369 . S
C584 H587 0.928 . S
C585 N581 1.345 . S
C585 C586 1.371 . S
C585 H588 0.931 . S
C586 C582 1.391 . S
C586 C585 1.371 . S
C586 H593 0.930 . S
H587 C584 0.928 . S
H588 C585 0.931 . S
H589 C565 0.930 . S
H590 C562 0.934 . S
H591 C571 0.930 . S
H592 C583 0.929 . S
H593 C586 0.930 . S
N13 N2 2.190 . S
N46 N35 2.190 . S
N68 N79 2.189 . S
N112 N101 2.190 . S
N145 N134 2.189 . S
N167 N178 2.190 . S
N200 N211 2.190 1_554 S
N233 N244 2.190 1_554 S
N277 N266 2.189 1_556 S
N310 N299 2.190 . S
N343 N332 2.189 . S
N365 N376 2.190 . S
N398 N409 2.190 . S
N431 N442 2.190 . S
N464 N475 2.189 . S
N508 N497 2.190 1_554 S
N541 N530 2.189 1_554 S
N563 N574 2.190 1_556 S
C579 C18 2.184 . S
C51 C513 2.184 . S
C546 C84 2.183 . S
C249 C117 2.184 . S
C150 C282 2.183 . S
C183 C216 2.184 . S
C315 C447 2.184 1_654 S
C480 C348 2.183 1_556 S
C381 C414 2.184 1_544 S
C7 C106 1.504 1_554 S
C40 C139 1.503 1_564 S
C172 C73 1.503 1_656 S
C186 C54 1.700 1_556 S
C120 C87 1.699 1_546 S
C153 C21 1.699 1_656 S
C304 C205 1.504 . S
C337 C238 1.503 . S
C271 C370 1.503 . S
C384 C252 1.699 . S
C285 C318 1.699 . S
C219 C351 1.699 . S
C502 C403 1.504 . S
C535 C436 1.503 . S
C568 C469 1.503 . S
C450 C582 1.700 . S
C483 C516 1.699 . S
C549 C417 1.699 . S
