# Generated by pormake.
# Topology wjl, (5)-cn, num edge types: 1
# Building blocks:
#     Node 0, Type 0, BuildingBlock: XOMCOT_clean_sbu_1, # of connection points: 5
#     Node 1, Type 0, BuildingBlock: XOMCOT_clean_sbu_1, # of connection points: 5
#     Node 2, Type 0, BuildingBlock: XOMCOT_clean_sbu_1, # of connection points: 5
#     Node 3, Type 0, BuildingBlock: XOMCOT_clean_sbu_1, # of connection points: 5
#     Node 4, Type 0, BuildingBlock: XOMCOT_clean_sbu_1, # of connection points: 5
#     Node 5, Type 0, BuildingBlock: XOMCOT_clean_sbu_1, # of connection points: 5
#     Node 6, Type 0, BuildingBlock: XOMCOT_clean_sbu_1, # of connection points: 5
#     Node 7, Type 0, BuildingBlock: XOMCOT_clean_sbu_1, # of connection points: 5
#     Node 8, Type 0, BuildingBlock: XOMCOT_clean_sbu_1, # of connection points: 5
#     Node 9, Type 0, BuildingBlock: XOMCOT_clean_sbu_1, # of connection points: 5
#     Node 10, Type 0, BuildingBlock: XOMCOT_clean_sbu_1, # of connection points: 5
#     Node 11, Type 0, BuildingBlock: XOMCOT_clean_sbu_1, # of connection points: 5
#     Edge 12, Type (0, 0), BuildingBlock: KIFKEQ_clean_linker_1, # of connection points: 2
#     Edge 13, Type (0, 0), BuildingBlock: KIFKEQ_clean_linker_1, # of connection points: 2
#     Edge 14, Type (0, 0), BuildingBlock: KIFKEQ_clean_linker_1, # of connection points: 2
#     Edge 15, Type (0, 0), BuildingBlock: KIFKEQ_clean_linker_1, # of connection points: 2
#     Edge 16, Type (0, 0), BuildingBlock: KIFKEQ_clean_linker_1, # of connection points: 2
#     Edge 17, Type (0, 0), BuildingBlock: KIFKEQ_clean_linker_1, # of connection points: 2
#     Edge 18, Type (0, 0), BuildingBlock: KIFKEQ_clean_linker_1, # of connection points: 2
#     Edge 19, Type (0, 0), BuildingBlock: KIFKEQ_clean_linker_1, # of connection points: 2
#     Edge 20, Type (0, 0), BuildingBlock: KIFKEQ_clean_linker_1, # of connection points: 2
#     Edge 21, Type (0, 0), BuildingBlock: KIFKEQ_clean_linker_1, # of connection points: 2
#     Edge 22, Type (0, 0), BuildingBlock: KIFKEQ_clean_linker_1, # of connection points: 2
#     Edge 23, Type (0, 0), BuildingBlock: KIFKEQ_clean_linker_1, # of connection points: 2
#     Edge 24, Type (0, 0), BuildingBlock: KIFKEQ_clean_linker_1, # of connection points: 2
#     Edge 25, Type (0, 0), BuildingBlock: KIFKEQ_clean_linker_1, # of connection points: 2
#     Edge 26, Type (0, 0), BuildingBlock: KIFKEQ_clean_linker_1, # of connection points: 2
#     Edge 27, Type (0, 0), BuildingBlock: KIFKEQ_clean_linker_1, # of connection points: 2
#     Edge 28, Type (0, 0), BuildingBlock: KIFKEQ_clean_linker_1, # of connection points: 2
#     Edge 29, Type (0, 0), BuildingBlock: KIFKEQ_clean_linker_1, # of connection points: 2
#     Edge 30, Type (0, 0), BuildingBlock: KIFKEQ_clean_linker_1, # of connection points: 2
#     Edge 31, Type (0, 0), BuildingBlock: KIFKEQ_clean_linker_1, # of connection points: 2
#     Edge 32, Type (0, 0), BuildingBlock: KIFKEQ_clean_linker_1, # of connection points: 2
#     Edge 33, Type (0, 0), BuildingBlock: KIFKEQ_clean_linker_1, # of connection points: 2
#     Edge 34, Type (0, 0), BuildingBlock: KIFKEQ_clean_linker_1, # of connection points: 2
#     Edge 35, Type (0, 0), BuildingBlock: KIFKEQ_clean_linker_1, # of connection points: 2
#     Edge 36, Type (0, 0), BuildingBlock: KIFKEQ_clean_linker_1, # of connection points: 2
#     Edge 37, Type (0, 0), BuildingBlock: KIFKEQ_clean_linker_1, # of connection points: 2
#     Edge 38, Type (0, 0), BuildingBlock: KIFKEQ_clean_linker_1, # of connection points: 2
#     Edge 39, Type (0, 0), BuildingBlock: KIFKEQ_clean_linker_1, # of connection points: 2
#     Edge 40, Type (0, 0), BuildingBlock: KIFKEQ_clean_linker_1, # of connection points: 2
#     Edge 41, Type (0, 0), BuildingBlock: KIFKEQ_clean_linker_1, # of connection points: 2
# Relax obj value: 0.436
# Max RMSD: 0.222
# Mean RMSD: 0.222
data_MOF--net-wjl--node1-XOMCOT_clean_sbu_1--edge1-KIFKEQ_clean_linker_1
_symmetry_space_group_name_H-M    P1
_symmetry_Int_Tables_number       1
_symmetry_cell_setting            triclinic
loop_
_symmetry_equiv_pos_as_xyz
'x, y, z'
_cell_length_a     26.65318
_cell_length_b     26.711548
_cell_length_c     87.630161
_cell_angle_alpha  90.010328
_cell_angle_beta   90.246152
_cell_angle_gamma 119.93507
loop_
_atom_site_label
_atom_site_type_symbol
_atom_site_fract_x
_atom_site_fract_y
_atom_site_fract_z
_atom_type_partial_charge
C0 C 0.34657 0.248 0.3614 0.0
C1 C 0.38021 0.2663 0.37438 0.0
N2 N 0.42472 0.31998 0.37188 0.0
N3 N 0.36956 0.2901 0.35084 0.0
C4 C 0.41742 0.33317 0.35748 0.0
H5 H 0.30723 0.20704 0.35981 0.0
Co6 Co 0.3366 0.28514 0.33195 0.0
C7 C 0.37954 0.40493 0.32132 0.0
O8 O 0.32776 0.38705 0.31554 0.0
N9 N 0.30238 0.27754 0.31247 0.0
C10 C 0.24274 0.25894 0.29271 0.0
C11 C 0.2464 0.25602 0.30826 0.0
C12 C 0.33154 0.29231 0.2991 0.0
N13 N 0.29635 0.28192 0.28693 0.0
O14 O 0.39006 0.26433 0.32344 0.0
H15 H 0.20953 0.23834 0.31568 0.0
H16 H 0.378 0.31102 0.29835 0.0
O17 O 0.39039 0.36863 0.32806 0.0
C18 C 0.36925 0.20971 0.32328 0.0
O19 O 0.31448 0.17658 0.32688 0.0
N20 N 0.28282 0.30091 0.34155 0.0
C21 C 0.20265 0.30912 0.36041 0.0
C22 C 0.25842 0.35654 0.35837 0.0
C23 C 0.29803 0.35129 0.34915 0.0
C24 C 0.22999 0.25359 0.34406 0.0
C25 C 0.18852 0.25721 0.35291 0.0
H26 H 0.342 0.38664 0.34915 0.0
H27 H 0.22049 0.21213 0.33949 0.0
H28 H 0.44535 0.37413 0.35209 0.0
H29 H 0.37224 0.24216 0.38487 0.0
H30 H 0.2032 0.24333 0.28615 0.0
H31 H 0.27294 0.39646 0.36461 0.0
H32 H 0.14651 0.21894 0.35424 0.0
C33 C 0.09556 0.36487 0.52998 0.0
C34 C 0.11141 0.39785 0.54306 0.0
N35 N 0.1001 0.44124 0.54101 0.0
N36 N 0.07382 0.38703 0.51984 0.0
C37 C 0.07764 0.43388 0.52681 0.0
H38 H 0.09905 0.32675 0.52801 0.0
Co39 Co 0.04535 0.35502 0.50087 0.0
C40 C 0.96326 0.39372 0.49137 0.0
O41 O 0.93084 0.34251 0.48524 0.0
N42 N 0.01766 0.32156 0.48126 0.0
C43 C 0.97467 0.2613 0.46177 0.0
C44 C 0.97757 0.26687 0.47733 0.0
C45 C 0.03765 0.34831 0.46769 0.0
N46 N 0.01281 0.31249 0.45565 0.0
O47 O 0.11781 0.41187 0.49235 0.0
H48 H 0.95171 0.23208 0.48501 0.0
H49 H 0.07071 0.39318 0.46664 0.0
O50 O 0.01098 0.40541 0.49798 0.0
C51 C 0.15066 0.39091 0.48959 0.0
O52 O 0.12897 0.33477 0.49068 0.0
N53 N 0.97916 0.29755 0.51052 0.0
C54 C 0.9023 0.21201 0.53028 0.0
C55 C 0.90047 0.2632 0.5282 0.0
C56 C 0.93999 0.30595 0.51847 0.0
C57 C 0.98205 0.24851 0.51261 0.0
C58 C 0.94303 0.20449 0.52205 0.0
H59 H 0.94168 0.34711 0.51839 0.0
H60 H 0.01606 0.24428 0.50713 0.0
H61 H 0.06306 0.46134 0.52177 0.0
H62 H 0.12992 0.39055 0.55325 0.0
H63 H 0.94846 0.22154 0.45553 0.0
H64 H 0.87166 0.27209 0.53487 0.0
H65 H 0.94644 0.16599 0.52336 0.0
C66 C 0.75837 0.11266 0.70147 0.0
C67 C 0.74782 0.13 0.71531 0.0
N68 N 0.69769 0.13058 0.71414 0.0
N69 N 0.71461 0.10166 0.69179 0.0
C70 C 0.67882 0.11372 0.69975 0.0
H71 H 0.79453 0.10656 0.69877 0.0
Co72 Co 0.70499 0.07225 0.67225 0.0
C73 C 0.58602 0.04359 0.6638 0.0
O74 O 0.60537 0.07226 0.65098 0.0
N75 N 0.6958 0.04211 0.65256 0.0
C76 C 0.6635 0.98374 0.63235 0.0
C77 C 0.65491 0.98932 0.64759 0.0
C78 C 0.72923 0.06723 0.64028 0.0
N79 N 0.71048 0.03284 0.62785 0.0
O80 O 0.71924 0.14567 0.66461 0.0
H81 H 0.62089 0.95694 0.6546 0.0
H82 H 0.76631 0.11028 0.64031 0.0
O83 O 0.62153 0.04202 0.67333 0.0
C84 C 0.77377 0.1799 0.66362 0.0
O85 O 0.80867 0.15942 0.66635 0.0
N86 N 0.69699 0.00419 0.6802 0.0
C87 C 0.70718 0.91915 0.6958 0.0
C88 C 0.6571 0.92356 0.69724 0.0
C89 C 0.65305 0.96697 0.68945 0.0
C90 C 0.74467 0.99882 0.67809 0.0
C91 C 0.75076 0.95654 0.68583 0.0
H92 H 0.61624 0.9725 0.69159 0.0
H93 H 0.77953 0.02961 0.67099 0.0
H94 H 0.63813 0.10754 0.69534 0.0
H95 H 0.7741 0.13986 0.72552 0.0
H96 H 0.63774 0.94637 0.62521 0.0
H97 H 0.62304 0.89612 0.70507 0.0
H98 H 0.79003 0.95443 0.68444 0.0
C99 C 0.67318 0.71198 0.85579 0.0
C100 C 0.64452 0.70502 0.86935 0.0
N101 N 0.59222 0.65687 0.86825 0.0
N102 N 0.63932 0.6678 0.84639 0.0
C103 C 0.59021 0.63529 0.85421 0.0
H104 H 0.7157 0.7471 0.85291 0.0
Co105 Co 0.65452 0.65751 0.82648 0.0
C106 C 0.62385 0.53488 0.82489 0.0
O107 O 0.67358 0.55326 0.8179 0.0
N108 N 0.66828 0.6488 0.80584 0.0
C109 C 0.64627 0.62071 0.78163 0.0
C110 C 0.63069 0.60596 0.79652 0.0
C111 C 0.70505 0.69018 0.79614 0.0
N112 N 0.69276 0.67417 0.78132 0.0
O113 O 0.58786 0.66234 0.82037 0.0
H114 H 0.59062 0.56886 0.80009 0.0
H115 H 0.73619 0.73338 0.79974 0.0
O116 O 0.60823 0.57147 0.82884 0.0
C117 C 0.60241 0.71428 0.81691 0.0
O118 O 0.6578 0.75272 0.81617 0.0
N119 N 0.72289 0.65902 0.83339 0.0
C120 C 0.82227 0.68409 0.85016 0.0
C121 C 0.76941 0.63446 0.85323 0.0
C122 C 0.72016 0.62372 0.84508 0.0
C123 C 0.77461 0.70668 0.82994 0.0
C124 C 0.82495 0.71997 0.83816 0.0
H125 H 0.6791 0.59003 0.84928 0.0
H126 H 0.77625 0.73793 0.82192 0.0
H127 H 0.55366 0.59642 0.84969 0.0
H128 H 0.66044 0.73361 0.87913 0.0
H129 H 0.62105 0.59661 0.7718 0.0
H130 H 0.76482 0.60714 0.86287 0.0
H131 H 0.8647 0.75977 0.83579 0.0
C132 C 0.91705 0.68979 0.02476 0.0
C133 C 0.89807 0.65722 0.0379 0.0
N134 N 0.89669 0.60677 0.03537 0.0
N135 N 0.92768 0.65984 0.01413 0.0
C136 C 0.91375 0.6092 0.02082 0.0
H137 H 0.92494 0.73332 0.02324 0.0
Co138 Co 0.95937 0.68373 0.99495 0.0
C139 C 0.9836 0.58908 0.98709 0.0
O140 O 0.94671 0.5716 0.97564 0.0
N141 N 0.99167 0.70743 0.97552 0.0
C142 C 0.05328 0.73224 0.95616 0.0
C143 C 0.04554 0.71984 0.97147 0.0
C144 C 0.96777 0.71323 0.9625 0.0
N145 N 1.00426 0.72801 0.95053 0.0
O146 O 0.88607 0.62626 0.98648 0.0
H147 H 0.07692 0.71875 0.97913 0.0
H148 H 0.92375 0.7047 0.96161 0.0
O149 O 0.99006 0.63102 -0.00458 0.0
C150 C 0.85113 0.64576 0.98532 0.0
O151 O 0.87126 0.70115 0.98771 0.0
N152 N 0.0277 0.74157 0.00396 0.0
C153 C 0.1175 0.83064 0.02048 0.0
C154 C 0.10302 0.773 0.02276 0.0
C155 C 0.05765 0.7291 0.01451 0.0
C156 C 0.04182 0.79735 0.00129 0.0
C157 C 0.08681 0.84274 0.00942 0.0
H158 H 0.04447 0.68494 0.01736 0.0
H159 H 0.01657 0.80643 0.99322 0.0
H160 H 0.91735 0.57503 0.01525 0.0
H161 H 0.88915 0.67087 0.04869 0.0
H162 H 0.09177 0.74298 0.94965 0.0
H163 H 0.12416 0.76142 0.03152 0.0
H164 H 0.09642 0.88663 0.00738 0.0
C165 C 0.28087 0.99154 0.19035 0.0
C166 C 0.29128 0.97292 0.20403 0.0
N167 N 0.33479 0.96169 0.20197 0.0
N168 N 0.31824 0.99276 0.17985 0.0
C169 C 0.35001 0.97369 0.1872 0.0
H170 H 0.24906 0.00465 0.18826 0.0
Co171 Co 0.32519 0.01814 0.15991 0.0
C172 C 0.44306 0.04355 0.15055 0.0
O173 O 0.42525 0.02001 0.13701 0.0
N174 N 0.33151 0.04367 0.13967 0.0
C175 C 0.35952 0.09623 0.1184 0.0
C176 C 0.36743 0.09683 0.13398 0.0
C177 C 0.30223 0.01186 0.12739 0.0
N178 N 0.3188 0.04247 0.11433 0.0
O179 O 0.30494 0.94181 0.15324 0.0
H180 H 0.39854 0.13337 0.14065 0.0
H181 H 0.26944 0.96681 0.12786 0.0
O182 O 0.40692 0.04267 0.16015 0.0
C183 C 0.25038 0.90703 0.15332 0.0
O184 O 0.21586 0.9277 0.15627 0.0
N185 N 0.34137 0.09061 0.16718 0.0
C186 C 0.34478 0.18104 0.18389 0.0
C187 C 0.3896 0.16814 0.18512 0.0
C188 C 0.38695 0.12262 0.17676 0.0
C189 C 0.29946 0.10491 0.16496 0.0
C190 C 0.30053 0.15039 0.17313 0.0
H191 H 0.41902 0.11027 0.17914 0.0
H192 H 0.26306 0.07846 0.15756 0.0
H193 H 0.38501 0.97049 0.18196 0.0
H194 H 0.26898 0.96846 0.21467 0.0
H195 H 0.38324 0.13184 0.11063 0.0
H196 H 0.42389 0.18937 0.1935 0.0
H197 H 0.26523 0.15911 0.17172 0.0
C198 C 0.74436 0.69038 0.4601 0.0
C199 C 0.73409 0.66155 0.4464 0.0
N200 N 0.68914 0.60763 0.44825 0.0
N201 N 0.70556 0.65489 0.47042 0.0
C202 C 0.67301 0.60465 0.46294 0.0
H203 H 0.77688 0.73482 0.46231 0.0
Co204 Co 0.6977 0.6743 0.49017 0.0
C205 C 0.58238 0.58037 0.50006 0.0
O206 O 0.60298 0.57592 0.51333 0.0
N207 N 0.69037 0.69465 0.51017 0.0
C208 C 0.65967 0.71925 0.53094 0.0
C209 C 0.65281 0.71073 0.5154 0.0
C210 C 0.71954 0.6939 0.52271 0.0
N211 N 0.70137 0.70811 0.53548 0.0
O212 O 0.72019 0.62021 0.49741 0.0
H213 H 0.6212 0.71439 0.50844 0.0
H214 H 0.75318 0.68257 0.5226 0.0
O215 O 0.61631 0.61572 0.49013 0.0
C216 C 0.77494 0.64111 0.49686 0.0
O217 O 0.80748 0.69587 0.49325 0.0
N218 N 0.67961 0.72866 0.48237 0.0
C219 C 0.6721 0.81349 0.46567 0.0
C220 C 0.62899 0.75523 0.46441 0.0
C221 C 0.63369 0.71346 0.47277 0.0
C222 C 0.72024 0.78524 0.48446 0.0
C223 C 0.71711 0.82855 0.47628 0.0
H224 H 0.60269 0.6687 0.47051 0.0
H225 H 0.757 0.79648 0.49185 0.0
H226 H 0.63655 0.5673 0.46798 0.0
H227 H 0.75721 0.67916 0.43584 0.0
H228 H 0.63451 0.73053 0.53838 0.0
H229 H 0.59429 0.74118 0.45612 0.0
H230 H 0.75118 0.873 0.47768 0.0
C231 C 0.09086 0.77831 0.63156 0.0
C232 C 0.10848 0.767 0.61787 0.0
N233 N 0.10975 0.71744 0.61932 0.0
N234 N 0.08041 0.73563 0.64146 0.0
C235 C 0.09313 0.69967 0.63376 0.0
H236 H 0.08343 0.81382 0.63394 0.0
Co237 Co 0.04704 0.72635 0.6605 0.0
C238 C 0.02187 0.61035 0.67061 0.0
O239 O 0.04653 0.63124 0.6839 0.0
N240 N 0.01256 0.71715 0.67974 0.0
C241 C 0.94867 0.68061 0.69863 0.0
C242 C 0.95799 0.67632 0.6834 0.0
C243 C 0.03516 0.74626 0.69291 0.0
N244 N 0.9973 0.72465 0.70459 0.0
O245 O 0.12062 0.74584 0.6695 0.0
H246 H 0.92727 0.64426 0.67557 0.0
H247 H 0.07919 0.78123 0.69414 0.0
O248 O 0.02202 0.64431 0.66037 0.0
C249 C 0.15395 0.80027 0.67099 0.0
O250 O 0.13271 0.8345 0.66832 0.0
N251 N 0.97806 0.71165 0.65098 0.0
C252 C 0.88911 0.70692 0.63309 0.0
C253 C 0.90379 0.66336 0.63213 0.0
C254 C 0.94862 0.6667 0.64108 0.0
C255 C 0.96322 0.75335 0.65253 0.0
C256 C 0.91859 0.75173 0.64371 0.0
H257 H 0.96176 0.63495 0.63925 0.0
H258 H 0.9879 0.78939 0.66016 0.0
H259 H 0.08697 0.65934 0.6383 0.0
H260 H 0.1178 0.7922 0.60752 0.0
H261 H 0.90939 0.65309 0.70486 0.0
H262 H 0.88346 0.62886 0.62381 0.0
H263 H 0.90864 0.78622 0.64482 0.0
C264 C 0.31896 0.03717 0.80256 0.0
C265 C 0.35058 0.06139 0.78954 0.0
N266 N 0.40269 0.06534 0.7913 0.0
N267 N 0.35083 0.02512 0.81228 0.0
C268 C 0.40166 0.04312 0.80517 0.0
H269 H 0.27588 0.0295 0.80491 0.0
Co270 Co 0.33175 0.99732 0.83189 0.0
C271 C 0.36111 0.90431 0.83347 0.0
O272 O 0.30994 0.87252 0.8397 0.0
N273 N 0.31385 0.97264 0.85229 0.0
C274 C 0.33115 0.96463 0.87678 0.0
C275 C 0.34806 0.96396 0.86209 0.0
C276 C 0.27771 0.98047 0.86149 0.0
N277 N 0.28739 0.97607 0.87648 0.0
O278 O 0.39755 0.0676 0.83894 0.0
H279 H 0.38749 0.96433 0.85908 0.0
H280 H 0.24961 0.99586 0.85739 0.0
O281 O 0.37798 0.95716 0.82999 0.0
C282 C 0.38321 0.10552 0.84201 0.0
O283 O 0.32799 0.08979 0.84186 0.0
N284 N 0.26456 0.93173 0.82404 0.0
C285 C 0.16795 0.85871 0.80625 0.0
C286 C 0.22171 0.86337 0.80349 0.0
C287 C 0.26956 0.9012 0.81215 0.0
C288 C 0.21191 0.92621 0.8272 0.0
C289 C 0.16292 0.88986 0.81844 0.0
H290 H 0.31146 0.90957 0.80831 0.0
H291 H 0.20843 0.95388 0.83554 0.0
H292 H 0.43733 0.04016 0.81014 0.0
H293 H 0.3368 0.07604 0.7797 0.0
H294 H 0.35449 0.9644 0.8869 0.0
H295 H 0.22805 0.84215 0.79375 0.0
H296 H 0.12237 0.88869 0.82061 0.0
C297 C 0.24705 0.35564 0.96189 0.0
C298 C 0.25808 0.38293 0.94797 0.0
N299 N 0.30948 0.43222 0.94892 0.0
N300 N 0.29163 0.38735 0.97144 0.0
C301 C 0.32856 0.43402 0.96329 0.0
H302 H 0.20995 0.31435 0.96473 0.0
Co303 Co 0.30051 0.3663 0.99095 0.0
C304 C 0.42089 0.45384 0.00027 0.0
O305 O 0.40387 0.45851 0.01398 0.0
N306 N 0.30903 0.34399 0.01072 0.0
C307 C 0.33857 0.31289 0.03055 0.0
C308 C 0.34271 0.32174 0.01502 0.0
C309 C 0.28503 0.34825 0.02384 0.0
N310 N 0.30256 0.33006 0.03604 0.0
O311 O 0.28273 0.42316 -0.00122 0.0
H312 H 0.3699 0.31381 0.00743 0.0
H313 H 0.25555 0.36483 0.02457 0.0
O314 O 0.38367 0.42105 0.99039 0.0
C315 C 0.22749 0.39898 -0.00104 0.0
O316 O 0.19742 0.34311 -0.00373 0.0
N317 N 0.31137 0.30844 0.98249 0.0
C318 C 0.30251 0.22059 0.96364 0.0
C319 C 0.35359 0.27451 0.96408 0.0
C320 C 0.35696 0.31825 0.97345 0.0
C321 C 0.26336 0.25506 0.98319 0.0
C322 C 0.25796 0.2103 0.97384 0.0
H323 H 0.39452 0.36072 0.97251 0.0
H324 H 0.2272 0.24858 0.99016 0.0
H325 H 0.37011 0.46737 0.96752 0.0
H326 H 0.23117 0.36703 0.93786 0.0
H327 H 0.36177 0.29706 0.03732 0.0
H328 H 0.38942 0.28396 0.95657 0.0
H329 H 0.2176 0.16959 0.97381 0.0
C330 C 0.92955 0.29355 0.12893 0.0
C331 C 0.90675 0.30132 0.1156 0.0
N332 N 0.91033 0.3535 0.11618 0.0
N333 N 0.94787 0.34082 0.13775 0.0
C334 C 0.9352 0.37626 0.12979 0.0
H335 H 0.93215 0.25577 0.13209 0.0
Co336 Co 0.97736 0.35045 0.1573 0.0
C337 C 0.06501 0.47424 0.15903 0.0
O338 O 0.10033 0.4579 0.16469 0.0
N339 N 1.00378 0.35817 0.17764 0.0
C340 C 0.01514 0.38401 0.20213 0.0
C341 C 0.01095 0.40007 0.18756 0.0
C342 C 1.00129 0.31598 0.18669 0.0
N343 N 0.00828 0.33066 0.20163 0.0
O344 O 0.90527 0.3404 0.16456 0.0
H345 H 0.00692 0.43729 0.18477 0.0
H346 H 0.98841 0.27306 0.18263 0.0
O347 O 0.01237 0.43619 0.15584 0.0
C348 C 0.87107 0.28745 0.16782 0.0
O349 O 0.89155 0.25178 0.16773 0.0
N350 N 0.04538 0.35466 0.14916 0.0
C351 C 0.13228 0.3478 0.13315 0.0
C352 C 0.11721 0.38949 0.12942 0.0
C353 C 0.07281 0.39112 0.13722 0.0
C354 C 0.05908 0.3132 0.15284 0.0
C355 C 0.10268 0.30915 0.14501 0.0
H356 H 0.0589 0.42038 0.13312 0.0
H357 H 0.03399 0.28063 0.16113 0.0
H358 H 0.94459 0.41823 0.13388 0.0
H359 H 0.88847 0.27057 0.10632 0.0
H360 H 0.01606 0.40696 0.21241 0.0
H361 H 0.137 0.41835 0.11985 0.0
H362 H 0.11174 0.27497 0.14784 0.0
C363 C 0.64266 0.88973 0.2908 0.0
C364 C 0.61076 0.87877 0.27756 0.0
N365 N 0.57401 0.89917 0.27934 0.0
N366 N 0.62635 0.9173 0.30076 0.0
C367 C 0.5843 0.92217 0.29348 0.0
H368 H 0.67645 0.87939 0.29294 0.0
Co369 Co 0.66021 0.94452 0.31968 0.0
C370 C 0.62223 0.02678 0.32997 0.0
O371 O 0.6733 0.05868 0.33633 0.0
N372 N 0.69517 0.97096 0.33909 0.0
C373 C 0.75655 0.01217 0.3585 0.0
C374 C 0.7512 0.00701 0.34292 0.0
C375 C 0.66757 0.95493 0.35266 0.0
N376 N 0.70389 0.97927 0.36465 0.0
O377 O 0.6033 0.87251 0.32835 0.0
H378 H 0.78685 0.02829 0.33513 0.0
H379 H 0.62149 0.9258 0.35373 0.0
O380 O 0.61097 0.97984 0.32311 0.0
C381 C 0.62428 0.83887 0.32941 0.0
O382 O 0.67965 0.86029 0.32656 0.0
N383 N 0.71801 0.01026 0.30998 0.0
C384 C 0.80426 0.0868 0.29034 0.0
C385 C 0.75555 0.09232 0.29335 0.0
C386 C 0.71218 0.05277 0.30296 0.0
C387 C 0.76462 0.00389 0.30695 0.0
C388 C 0.80879 0.04227 0.29743 0.0
H389 H 0.67268 0.05433 0.30377 0.0
H390 H 0.76668 0.9676 0.31172 0.0
H391 H 0.56303 0.94408 0.29815 0.0
H392 H 0.61455 0.85785 0.26741 0.0
H393 H 0.79667 0.03652 0.36479 0.0
H394 H 0.74919 0.12457 0.28757 0.0
H395 H 0.8453 0.03603 0.2953 0.0
H396 H 0.33501 0.09513 0.32242 0.0
H397 H 0.48797 0.26407 0.3207 0.0
H398 H 0.39502 0.0505 0.3234 0.0
H399 H 0.54849 0.21908 0.3212 0.0
H400 H 0.6364 0.12641 0.3426 0.0
H401 H 0.57651 0.17049 0.3393 0.0
H402 H 0.45965 0.02809 0.31045 0.0
H403 H 0.51882 0.98281 0.3142 0.0
C404 C 0.38157 0.12284 0.32197 0.0
C405 C 0.40661 0.18334 0.32158 0.0
C406 C 0.4161 0.09706 0.32246 0.0
C407 C 0.4768 0.13099 0.32253 0.0
C408 C 0.5019 0.19152 0.32147 0.0
C409 C 0.46723 0.21739 0.32102 0.0
C410 C 0.5978 0.10417 0.33559 0.0
C411 C 0.58274 0.05098 0.32862 0.0
C412 C 0.56369 0.12994 0.33355 0.0
C413 C 0.51346 0.10345 0.32443 0.0
C414 C 0.49784 0.04976 0.31762 0.0
C415 C 0.53194 0.02378 0.31972 0.0
H416 H 0.22223 0.36892 0.47259 0.0
H417 H 0.22182 0.49379 0.50376 0.0
H418 H 0.3279 0.41775 0.47413 0.0
H419 H 0.32781 0.54212 0.50555 0.0
H420 H 0.49697 0.54215 0.52148 0.0
H421 H 0.3933 0.50353 0.51722 0.0
H422 H 0.42078 0.51689 0.46855 0.0
H423 H 0.52477 0.55648 0.47277 0.0
C424 C 0.24496 0.40768 0.47948 0.0
C425 C 0.21398 0.42784 0.48798 0.0
C426 C 0.30537 0.43551 0.48038 0.0
C427 C 0.33595 0.48331 0.49008 0.0
C428 C 0.30518 0.50504 0.49808 0.0
C429 C 0.2447 0.47789 0.49691 0.0
C430 C 0.48089 0.53644 0.50987 0.0
C431 C 0.51903 0.5521 0.49746 0.0
C432 C 0.42166 0.51502 0.50744 0.0
C433 C 0.39914 0.50781 0.49256 0.0
C434 C 0.43702 0.52218 0.48014 0.0
C435 C 0.49644 0.54469 0.48257 0.0
H436 H 0.972 0.52745 0.69257 0.0
H437 H 0.98613 0.5505 0.64368 0.0
H438 H 0.90449 0.42425 0.68899 0.0
H439 H 0.91922 0.44686 0.64015 0.0
H440 H 0.86659 0.24835 0.64625 0.0
H441 H 0.92383 0.35383 0.64678 0.0
H442 H 0.80009 0.35892 0.67742 0.0
H443 H 0.7419 0.25289 0.67658 0.0
C444 C 0.96119 0.51041 0.68106 0.0
C445 C 0.98475 0.5471 0.66841 0.0
C446 C 0.92193 0.45146 0.67902 0.0
C447 C 0.90614 0.42767 0.66429 0.0
C448 C 0.93048 0.4641 0.65163 0.0
C449 C 0.96888 0.52331 0.65366 0.0
C450 C 0.85072 0.27217 0.65271 0.0
C451 C 0.79965 0.24269 0.66127 0.0
C452 C 0.88353 0.33247 0.65304 0.0
C453 C 0.8667 0.36451 0.66225 0.0
C454 C 0.8142 0.33517 0.6703 0.0
C455 C 0.78057 0.2747 0.66968 0.0
H456 H 0.32176 0.78938 0.83096 0.0
H457 H 0.47753 0.95517 0.82692 0.0
H458 H 0.37553 0.74085 0.82505 0.0
H459 H 0.53265 0.90633 0.82167 0.0
H460 H 0.61212 0.8069 0.80156 0.0
H461 H 0.55257 0.85196 0.80423 0.0
H462 H 0.44104 0.71668 0.8354 0.0
H463 H 0.49945 0.67051 0.8321 0.0
C464 C 0.36784 0.8156 0.82895 0.0
C465 C 0.39547 0.87628 0.82955 0.0
C466 C 0.39886 0.78757 0.82562 0.0
C467 C 0.45879 0.81926 0.823 0.0
C468 C 0.48643 0.88021 0.82341 0.0
C469 C 0.45502 0.9084 0.82654 0.0
C470 C 0.57407 0.7862 0.80873 0.0
C471 C 0.56019 0.73496 0.81654 0.0
C472 C 0.54031 0.81249 0.81043 0.0
C473 C 0.49219 0.78872 0.82021 0.0
C474 C 0.4772 0.73613 0.82761 0.0
C475 C 0.51058 0.70937 0.82571 0.0
H476 H 0.77538 0.66651 0.96973 0.0
H477 H 0.78372 0.54127 -0.00091 0.0
H478 H 0.66994 0.61566 0.97219 0.0
H479 H 0.67793 0.49095 0.00189 0.0
H480 H 0.51039 0.48879 0.0206 0.0
H481 H 0.61299 0.5269 0.0151 0.0
H482 H 0.57649 0.51621 0.96683 0.0
H483 H 0.4734 0.47684 0.97228 0.0
C484 C 0.7544 0.62717 0.97639 0.0
C485 C 0.78763 0.60748 0.98409 0.0
C486 C 0.69407 0.59817 0.97784 0.0
C487 C 0.66571 0.54963 0.98733 0.0
C488 C 0.69871 0.52847 0.99455 0.0
C489 C 0.7591 0.55678 0.99281 0.0
C490 C 0.52417 0.49472 0.00881 0.0
C491 C 0.48367 0.4801 -0.00312 0.0
C492 C 0.58288 0.51593 0.00566 0.0
C493 C 0.60273 0.52409 0.99053 0.0
C494 C 0.56243 0.51026 0.9786 0.0
C495 C 0.50346 0.48786 0.98173 0.0
H496 H 0.14223 0.83002 0.14319 0.0
H497 H 0.30098 0.84174 0.15926 0.0
H498 H 0.09619 0.72515 0.14237 0.0
H499 H 0.25441 0.73676 0.1593 0.0
H500 H 0.17303 0.54867 0.14933 0.0
H501 H 0.21767 0.65213 0.14552 0.0
H502 H 0.05681 0.64401 0.15796 0.0
H503 H 0.01136 0.53917 0.16085 0.0
C504 C 0.16734 0.81001 0.1465 0.0
C505 C 0.22526 0.84402 0.15125 0.0
C506 C 0.14074 0.74973 0.14619 0.0
C507 C 0.17106 0.72179 0.1509 0.0
C508 C 0.22963 0.75625 0.15532 0.0
C509 C 0.25654 0.81664 0.15534 0.0
C510 C 0.14708 0.56903 0.15111 0.0
C511 C 0.08889 0.53609 0.15552 0.0
C512 C 0.17285 0.62859 0.14905 0.0
C513 C 0.14151 0.65726 0.15169 0.0
C514 C 0.08246 0.62375 0.15565 0.0
C515 C 0.05625 0.56364 0.15739 0.0
H516 H 0.86596 0.3812 0.47759 0.0
H517 H 1.00422 0.49442 0.50811 0.0
H518 H 0.82055 0.43979 0.48071 0.0
H519 H 0.9578 0.55287 0.51148 0.0
H520 H 0.8901 0.67712 0.49827 0.0
H521 H 0.93643 0.61855 0.49778 0.0
H522 H 0.76859 0.46376 0.49908 0.0
H523 H 0.72193 0.52277 0.49919 0.0
C524 C 0.88678 0.41865 0.48501 0.0
C525 C 0.93886 0.43293 0.49262 0.0
C526 C 0.86025 0.45198 0.48692 0.0
C527 C 0.88491 0.50069 0.49651 0.0
C528 C 0.93762 0.51574 0.50395 0.0
C529 C 0.96432 0.48224 0.50202 0.0
C530 C 0.86292 0.63057 0.49861 0.0
C531 C 0.80217 0.60463 0.49864 0.0
C532 C 0.88966 0.59693 0.49842 0.0
C533 C 0.8564 0.53636 0.49825 0.0
C534 C 0.79559 0.51035 0.49893 0.0
C535 C 0.76877 0.54411 0.49914 0.0
H536 H 0.22623 0.76629 0.65865 0.0
H537 H 0.22424 0.89577 0.68766 0.0
H538 H 0.3325 0.82292 0.65787 0.0
H539 H 0.33024 0.95127 0.68728 0.0
H540 H 0.52813 0.00465 0.69085 0.0
H541 H 0.42379 0.93977 0.69451 0.0
H542 H 0.39767 0.93048 0.64575 0.0
H543 H 0.50126 0.99644 0.64207 0.0
C544 C 0.24859 0.80575 0.66528 0.0
C545 C 0.21715 0.82654 0.67329 0.0
C546 C 0.30924 0.83838 0.66472 0.0
C547 C 0.33946 0.89155 0.67247 0.0
C548 C 0.30808 0.91036 0.68127 0.0
C549 C 0.24751 0.87857 0.6815 0.0
C550 C 0.5 0.98895 0.68093 0.0
C551 C 0.52283 0.00607 0.66618 0.0
C552 C 0.44044 0.95178 0.68303 0.0
C553 C 0.40286 0.92969 0.6704 0.0
C554 C 0.42579 0.94635 0.65567 0.0
C555 C 0.48498 0.98459 0.65359 0.0
H556 H 0.66387 0.45974 0.82748 0.0
H557 H 0.50817 0.47009 0.83219 0.0
H558 H 0.61084 0.35798 0.83381 0.0
H559 H 0.45368 0.36667 0.83782 0.0
H560 H 0.37418 0.18824 0.85766 0.0
H561 H 0.43414 0.29264 0.85512 0.0
H562 H 0.54535 0.26823 0.82386 0.0
H563 H 0.48666 0.16394 0.82708 0.0
C564 C 0.61795 0.44004 0.82974 0.0
C565 C 0.59009 0.47299 0.82918 0.0
C566 C 0.58733 0.3813 0.8333 0.0
C567 C 0.52757 0.35327 0.8362 0.0
C568 C 0.49978 0.38657 0.83587 0.0
C569 C 0.53082 0.44588 0.83253 0.0
C570 C 0.41235 0.20544 0.85054 0.0
C571 C 0.42604 0.168 0.84267 0.0
C572 C 0.44632 0.26536 0.8489 0.0
C573 C 0.49439 0.28949 0.8391 0.0
C574 C 0.50928 0.25177 0.83168 0.0
C575 C 0.47574 0.19175 0.83354 0.0
H576 H 0.11306 0.35443 0.00431 0.0
H577 H 0.26944 0.51647 -0.00397 0.0
H578 H 0.05604 0.40203 0.00215 0.0
H579 H 0.21155 0.56465 0.99389 0.0
H580 H 0.0834 0.6328 0.00409 0.0
H581 H 0.14483 0.59025 0.00842 0.0
H582 H 0.03039 0.44438 0.98029 0.0
H583 H 0.96876 0.48669 0.97602 0.0
C584 C 0.1355 0.40052 0.0022 0.0
C585 C 0.19592 0.43155 0.00022 0.0
C586 C 0.10257 0.4277 0.00086 0.0
C587 C 0.12901 0.48687 -0.00244 0.0
C588 C 0.18987 0.5189 -0.00358 0.0
C589 C 0.22307 0.49143 -0.0023 0.0
C590 C 0.071 0.59142 -0.00108 0.0
C591 C 0.02066 0.56286 0.98983 0.0
C592 C 0.10663 0.56736 0.00129 0.0
C593 C 0.09244 0.51382 0.99477 0.0
C594 C 0.04221 0.48538 0.98565 0.0
C595 C 0.00696 0.50972 0.98314 0.0
H596 H 0.8041 0.31794 0.15088 0.0
H597 H 0.79528 0.19747 0.18503 0.0
H598 H 0.69881 0.26022 0.14728 0.0
H599 H 0.69047 0.14033 0.18158 0.0
H600 H 0.49475 0.07681 0.17855 0.0
H601 H 0.59703 0.14261 0.18423 0.0
H602 H 0.63528 0.15855 0.13607 0.0
H603 H 0.53295 0.09256 0.13036 0.0
C604 C 0.7794 0.28031 0.15798 0.0
C605 C 0.80763 0.26234 0.16832 0.0
C606 C 0.71935 0.24682 0.15577 0.0
C607 C 0.68651 0.19543 0.16404 0.0
C608 C 0.71448 0.17975 0.17508 0.0
C609 C 0.77444 0.21255 0.17709 0.0
C610 C 0.52502 0.09415 0.16917 0.0
C611 C 0.50576 0.07931 0.154 0.0
C612 C 0.58356 0.13186 0.17243 0.0
C613 C 0.62406 0.15627 0.16059 0.0
C614 C 0.6049 0.14114 0.14543 0.0
C615 C 0.54645 0.10274 0.14217 0.0
H616 H 0.47566 0.46371 0.33985 0.0
H617 H 0.37299 0.48987 0.30593 0.0
H618 H 0.53238 0.56791 0.34401 0.0
H619 H 0.43037 0.5936 0.30975 0.0
H620 H 0.50528 0.77331 0.32873 0.0
H621 H 0.44693 0.66786 0.32779 0.0
H622 H 0.6022 0.65606 0.33237 0.0
H623 H 0.6598 0.76057 0.33379 0.0
C624 C 0.46568 0.49159 0.33313 0.0
C625 C 0.41954 0.46822 0.32261 0.0
C626 C 0.49817 0.55148 0.33552 0.0
C627 C 0.48549 0.58938 0.32738 0.0
C628 C 0.44047 0.56588 0.31654 0.0
C629 C 0.40795 0.50623 0.31422 0.0
C630 C 0.5267 0.74808 0.32985 0.0
C631 C 0.58721 0.77544 0.33123 0.0
C632 C 0.4934 0.68763 0.32914 0.0
C633 C 0.51989 0.65325 0.32977 0.0
C634 C 0.58011 0.68079 0.33193 0.0
C635 C 0.61326 0.74099 0.33266 0.0
H636 H 0.63339 0.4919 0.45198 0.0
H637 H 0.67713 0.62547 0.41841 0.0
H638 H 0.57448 0.41866 0.43307 0.0
H639 H 0.61751 0.55267 0.39955 0.0
H640 H 0.53382 0.4053 0.36579 0.0
H641 H 0.60477 0.47297 0.38402 0.0
H642 H 0.48347 0.38811 0.42068 0.0
H643 H 0.41331 0.32034 0.40251 0.0
C644 C 0.63048 0.5055 0.44054 0.0
C645 C 0.65949 0.56435 0.4367 0.0
C646 C 0.59668 0.46365 0.42971 0.0
C647 C 0.59079 0.4798 0.41483 0.0
C648 C 0.62164 0.5386 0.41084 0.0
C649 C 0.6558 0.5804 0.42165 0.0
C650 C 0.52252 0.40111 0.37775 0.0
C651 C 0.46794 0.35757 0.38271 0.0
C652 C 0.5631 0.43986 0.38819 0.0
C653 C 0.54982 0.43606 0.40381 0.0
C654 C 0.49562 0.39169 0.40878 0.0
C655 C 0.45526 0.35281 0.39836 0.0
H656 H 0.08996 0.42891 0.5716 0.0
H657 H 0.12646 0.55123 0.53528 0.0
H658 H 0.09839 0.50028 0.5902 0.0
H659 H 0.13676 0.62378 0.55391 0.0
H660 H 0.07771 0.70993 0.58973 0.0
H661 H 0.08023 0.64575 0.57039 0.0
H662 H 0.16292 0.58729 0.60272 0.0
H663 H 0.15833 0.65029 0.62215 0.0
C664 C 0.1008 0.4715 0.56763 0.0
C665 C 0.10749 0.48449 0.552 0.0
C666 C 0.10589 0.51262 0.5783 0.0
C667 C 0.11848 0.56806 0.5736 0.0
C668 C 0.12613 0.58131 0.55794 0.0
C669 C 0.12036 0.53985 0.54725 0.0
C670 C 0.09728 0.68405 0.59259 0.0
C671 C 0.11759 0.68481 0.60745 0.0
C672 C 0.09883 0.64724 0.5815 0.0
C673 C 0.12135 0.61083 0.58499 0.0
C674 C 0.144 0.61364 0.59971 0.0
C675 C 0.14174 0.64991 0.61083 0.0
H676 H 0.6248 0.17289 0.71165 0.0
H677 H 0.69604 0.1024 0.74383 0.0
H678 H 0.55757 0.16924 0.73104 0.0
H679 H 0.6286 0.09788 0.76314 0.0
H680 H 0.51725 0.11893 0.79775 0.0
H681 H 0.59613 0.14845 0.77957 0.0
H682 H 0.47249 0.09035 0.74239 0.0
H683 H 0.39406 0.06164 0.76056 0.0
C684 C 0.62641 0.15719 0.72293 0.0
C685 C 0.66515 0.13734 0.7262 0.0
C686 C 0.58791 0.15496 0.73401 0.0
C687 C 0.58721 0.13256 0.74856 0.0
C688 C 0.62836 0.11595 0.75209 0.0
C689 C 0.66707 0.1185 0.74103 0.0
C690 C 0.5071 0.1127 0.78568 0.0
C691 C 0.44949 0.08736 0.78056 0.0
C692 C 0.55223 0.12968 0.77528 0.0
C693 C 0.5406 0.12146 0.75954 0.0
C694 C 0.48311 0.09814 0.75441 0.0
C695 C 0.43806 0.08146 0.76482 0.0
H696 H 0.608 0.662 0.89879 0.0
H697 H 0.4765 0.59605 0.86362 0.0
H698 H 0.53387 0.6128 0.9181 0.0
H699 H 0.40197 0.54735 0.88292 0.0
H700 H 0.30708 0.40411 0.91918 0.0
H701 H 0.37237 0.46501 0.89929 0.0
H702 H 0.45194 0.60786 0.93108 0.0
H703 H 0.38682 0.5463 0.95105 0.0
C704 C 0.5631 0.63789 0.89524 0.0
C705 C 0.54805 0.63227 0.87971 0.0
C706 C 0.52054 0.60981 0.90629 0.0
C707 C 0.46198 0.57587 0.90204 0.0
C708 C 0.44678 0.57227 0.88654 0.0
C709 C 0.4894 0.60007 0.87549 0.0
C710 C 0.33758 0.44885 0.92182 0.0
C711 C 0.34221 0.47033 0.9367 0.0
C712 C 0.37506 0.48385 0.91042 0.0
C713 C 0.41775 0.5412 0.91364 0.0
C714 C 0.42031 0.56353 0.92832 0.0
C715 C 0.383 0.5284 0.93974 0.0
H716 H 0.89594 0.32809 0.08588 0.0
H717 H 0.88835 0.44191 0.11972 0.0
H718 H 0.88005 0.38158 0.06587 0.0
H719 H 0.87632 0.49755 0.09965 0.0
H720 H 0.82742 0.57415 0.06026 0.0
H721 H 0.81825 0.50403 0.07965 0.0
H722 H 0.94063 0.47374 0.05489 0.0
H723 H 0.94881 0.5423 0.03567 0.0
C724 C 0.89038 0.36409 0.08912 0.0
C725 C 0.89471 0.38123 0.10446 0.0
C726 C 0.88188 0.39522 0.07759 0.0
C727 C 0.878 0.44456 0.08111 0.0
C728 C 0.87899 0.45974 0.0965 0.0
C729 C 0.88692 0.42828 0.10803 0.0
C730 C 0.85189 0.55204 0.05899 0.0
C731 C 0.8885 0.56348 0.04641 0.0
C732 C 0.84673 0.51197 0.07005 0.0
C733 C 0.87848 0.48298 0.06879 0.0
C734 C 0.91436 0.49401 0.05606 0.0
C735 C 0.91919 0.53358 0.04502 0.0
H736 H 0.47108 0.89234 0.28467 0.0
H737 H 0.589 0.90974 0.24879 0.0
H738 H 0.40757 0.90063 0.26599 0.0
H739 H 0.52671 0.91978 0.2301 0.0
H740 H 0.38348 0.89496 0.19797 0.0
H741 H 0.43696 0.87277 0.21688 0.0
H742 H 0.40536 0.97213 0.25054 0.0
H743 H 0.35067 0.99262 0.23171 0.0
C744 C 0.48341 0.89809 0.27277 0.0
C745 C 0.535 0.90056 0.26818 0.0
C746 C 0.44718 0.90304 0.26206 0.0
C747 C 0.46209 0.91125 0.24652 0.0
C748 C 0.51326 0.91255 0.24191 0.0
C749 C 0.54913 0.90694 0.25262 0.0
C750 C 0.38787 0.91174 0.20944 0.0
C751 C 0.36307 0.94559 0.21337 0.0
C752 C 0.41865 0.89924 0.22028 0.0
C753 C 0.42584 0.92089 0.23525 0.0
C754 C 0.39995 0.95385 0.23922 0.0
C755 C 0.36865 0.96577 0.22842 0.0
H756 H 0.4312 0.281 0.19693 0.0
H757 H 0.24636 0.16373 0.19806 0.0
H758 H 0.42507 0.32364 0.22102 0.0
H759 H 0.24033 0.20717 0.22172 0.0
H760 H 0.38797 0.28087 0.27389 0.0
H761 H 0.40386 0.27631 0.24673 0.0
H762 H 0.254 0.29253 0.23646 0.0
H763 H 0.23842 0.2978 0.26368 0.0
C764 C 0.38911 0.26531 0.20208 0.0
C765 C 0.33946 0.21815 0.19568 0.0
C766 C 0.38567 0.2898 0.21585 0.0
C767 C 0.3324 0.26815 0.22336 0.0
C768 C 0.282 0.22511 0.21617 0.0
C769 C 0.28548 0.20027 0.20251 0.0
C770 C 0.35936 0.28514 0.26587 0.0
C771 C 0.31122 0.28848 0.27098 0.0
C772 C 0.36858 0.28272 0.25027 0.0
C773 C 0.32982 0.28354 0.23947 0.0
C774 C 0.28408 0.29099 0.24454 0.0
C775 C 0.27499 0.29361 0.26013 0.0
H776 H 0.18928 0.40231 0.36758 0.0
H777 H 0.12567 0.2231 0.37923 0.0
H778 H 0.13528 0.4106 0.38898 0.0
H779 H 0.06962 0.23105 0.39979 0.0
H780 H 0.1161 0.39567 0.44434 0.0
H781 H 0.15186 0.39986 0.41862 0.0
H782 H 0.98679 0.25545 0.40535 0.0
H783 H 0.94975 0.25233 0.43093 0.0
C784 C 0.1633 0.36449 0.37449 0.0
C785 C 0.16255 0.31215 0.37168 0.0
C786 C 0.13207 0.36928 0.38663 0.0
C787 C 0.09832 0.32144 0.39593 0.0
C788 C 0.09466 0.26836 0.39261 0.0
C789 C 0.12675 0.26384 0.38072 0.0
C790 C 0.08654 0.36605 0.43588 0.0
C791 C 0.03032 0.32271 0.43988 0.0
C792 C 0.10717 0.36854 0.42111 0.0
C793 C 0.07219 0.32751 0.41013 0.0
C794 C 0.01471 0.28712 0.41372 0.0
C795 C 0.99378 0.28513 0.42841 0.0
H796 H 0.65408 0.99747 0.60076 0.0
H797 H 0.82329 0.10057 0.6211 0.0
H798 H 0.6963 0.02858 0.57535 0.0
H799 H 0.86506 0.13276 0.59597 0.0
H800 H 0.93685 0.15581 0.55001 0.0
H801 H 0.88595 0.09956 0.57223 0.0
H802 H 0.74006 0.12169 0.56125 0.0
H803 H 0.78994 0.17584 0.53843 0.0
C804 C 0.70031 0.02614 0.59977 0.0
C805 C 0.73541 0.04704 0.61288 0.0
C806 C 0.72435 0.04426 0.58528 0.0
C807 C 0.78393 0.08305 0.58368 0.0
C808 C 0.81912 0.10226 0.59679 0.0
C809 C 0.79512 0.08445 0.61122 0.0
C810 C 0.89317 0.14718 0.55198 0.0
C811 C 0.86762 0.17075 0.54247 0.0
C812 C 0.8643 0.11548 0.56486 0.0
C813 C 0.80946 0.10702 0.56861 0.0
C814 C 0.78227 0.12738 0.55862 0.0
C815 C 0.8111 0.15896 0.54566 0.0
H816 H 0.68829 0.64026 0.75197 0.0
H817 H 0.74188 0.79139 0.78027 0.0
H818 H 0.70191 0.69852 0.72926 0.0
H819 H 0.75702 0.84934 0.75761 0.0
H820 H 0.8024 0.9458 0.71307 0.0
H821 H 0.81249 0.88593 0.73258 0.0
H822 H 0.64211 0.74549 0.7212 0.0
H823 H 0.63205 0.80533 0.70168 0.0
C824 C 0.70388 0.68597 0.75336 0.0
C825 C 0.71278 0.7107 0.76801 0.0
C826 C 0.71183 0.71925 0.74035 0.0
C827 C 0.72986 0.77817 0.74172 0.0
C828 C 0.74341 0.80401 0.75623 0.0
C829 C 0.7348 0.77062 0.76926 0.0
C830 C 0.76774 0.90164 0.71449 0.0
C831 C 0.71634 0.88011 0.70592 0.0
C832 C 0.77342 0.86762 0.7257 0.0
C833 C 0.72809 0.81124 0.72839 0.0
C834 C 0.67797 0.78865 0.71925 0.0
C835 C 0.67199 0.82293 0.70818 0.0
H836 H 0.93266 0.76448 0.93988 0.0
H837 H 0.04663 0.70227 0.92555 0.0
H838 H 0.90408 0.76439 0.91339 0.0
H839 H 0.01872 0.703 0.89899 0.0
H840 H 0.86767 0.62047 0.86183 0.0
H841 H 0.92505 0.6413 0.88518 0.0
H842 H 0.93949 0.80949 0.88771 0.0
H843 H 0.88159 0.78832 0.86442 0.0
C844 C 0.952 0.75135 0.93105 0.0
C845 C 0.99148 0.73296 0.93481 0.0
C846 C 0.93625 0.752 0.91586 0.0
C847 C 0.95932 0.7338 0.90411 0.0
C848 C 1.0002 0.71713 0.90781 0.0
C849 C 0.01637 0.71703 0.923 0.0
C850 C 0.88475 0.66256 0.86713 0.0
C851 C 0.86999 0.70264 0.86139 0.0
C852 C 0.91768 0.67458 0.88047 0.0
C853 C 0.93601 0.72672 0.88838 0.0
C854 C 0.92528 0.76868 0.88194 0.0
C855 C 0.89276 0.75684 0.86851 0.0
H856 H 0.30356 0.09812 0.09046 0.0
H857 H 0.29053 0.93672 0.10397 0.0
H858 H 0.26509 0.05741 0.0651 0.0
H859 H 0.25199 0.89609 0.07893 0.0
H860 H 0.22169 0.84591 0.03035 0.0
H861 H 0.28029 0.9065 0.05153 0.0
H862 H 0.16722 0.9782 0.05554 0.0
H863 H 0.10829 0.91731 0.03444 0.0
C864 C 0.29305 0.05426 0.08793 0.0
C865 C 0.29941 0.02032 0.09918 0.0
C866 C 0.27089 0.03094 0.0735 0.0
C867 C 0.25582 0.97369 0.07002 0.0
C868 C 0.26393 0.94057 0.08117 0.0
C869 C 0.28527 0.96355 0.09558 0.0
C870 C 0.20991 0.87532 0.03559 0.0
C871 C 0.15986 0.87616 0.03088 0.0
C872 C 0.24344 0.90998 0.0477 0.0
C873 C 0.22775 0.94636 0.05532 0.0
C874 C 0.18052 0.95078 0.04982 0.0
C875 C 0.1468 0.91592 0.03772 0.0
H876 H 0.73256 0.63405 0.54697 0.0
H877 H 0.71132 0.77924 0.55874 0.0
H878 H 0.76756 0.63386 0.57268 0.0
H879 H 0.7463 0.779 0.5847 0.0
H880 H 0.89965 0.80088 0.61775 0.0
H881 H 0.84434 0.80047 0.59549 0.0
H882 H 0.7328 0.61615 0.59994 0.0
H883 H 0.78738 0.6165 0.62242 0.0
C884 C 0.73538 0.6659 0.5551 0.0
C885 C 0.71981 0.70702 0.55085 0.0
C886 C 0.75464 0.66533 0.56987 0.0
C887 C 0.75929 0.70622 0.5807 0.0
C888 C 0.74309 0.74701 0.57655 0.0
C889 C 0.72297 0.74705 0.56177 0.0
C890 C 0.86213 0.76055 0.61433 0.0
C891 C 0.84842 0.70855 0.62174 0.0
C892 C 0.83054 0.76035 0.60154 0.0
C893 C 0.78491 0.70815 0.59587 0.0
C894 C 0.76847 0.65685 0.60393 0.0
C895 C 0.79975 0.65708 0.61677 0.0
H896 H 0.12519 0.75074 0.79425 0.0
H897 H 0.1094 0.90362 0.79152 0.0
H898 H 0.07053 0.7151 0.77047 0.0
H899 H 0.05438 0.86789 0.76774 0.0
H900 H 0.06775 0.83203 0.71564 0.0
H901 H 0.09344 0.85951 0.74232 0.0
H902 H 0.9776 0.68337 0.75604 0.0
H903 H 0.95248 0.65579 0.7293 0.0
C904 C 0.10824 0.77568 0.78882 0.0
C905 C 0.12163 0.82994 0.79466 0.0
C906 C 0.0769 0.75531 0.77522 0.0
C907 C 0.05891 0.78915 0.76716 0.0
C908 C 0.06833 0.84128 0.77365 0.0
C909 C 0.09919 0.86138 0.78734 0.0
C910 C 0.04752 0.79934 0.72437 0.0
C911 C 0.00847 0.74175 0.72038 0.0
C912 C 0.06162 0.81515 0.73965 0.0
C913 C 0.03736 0.77355 0.75126 0.0
C914 C 0.99698 0.71627 0.74732 0.0
C915 C 0.98241 0.70059 0.73203 0.0
H916 H 0.24921 0.05368 0.87598 0.0
H917 H 0.2868 0.94877 0.90628 0.0
H918 H 0.24127 0.10522 0.89771 0.0
H919 H 0.28219 1.00302 0.92804 0.0
H920 H 0.24852 0.10194 0.96547 0.0
H921 H 0.22944 0.03368 0.94459 0.0
H922 H 0.31707 0.17667 0.91337 0.0
H923 H 0.3335 0.24396 0.93385 0.0
C924 C 0.25459 0.04055 0.88725 0.0
C925 C 0.27002 0.99774 0.8893 0.0
C926 C 0.25082 0.07083 0.89974 0.0
C927 C 0.26287 0.05945 0.91457 0.0
C928 C 0.27301 0.01317 0.91678 0.0
C929 C 0.27622 0.98244 0.90427 0.0
C930 C 0.26329 0.11857 0.95411 0.0
C931 C 0.29311 0.17842 0.95137 0.0
C932 C 0.25258 0.07954 0.94218 0.0
C933 C 0.27121 0.09968 0.92728 0.0
C934 C 0.301 0.1595 0.92462 0.0
C935 C 0.31156 0.19827 0.93647 0.0
H936 H 0.28462 0.411 0.04908 0.0
H937 H 0.28907 0.2547 0.05851 0.0
H938 H 0.25579 0.41313 0.07523 0.0
H939 H 0.26059 0.25704 0.08501 0.0
H940 H 0.11595 0.24931 0.1193 0.0
H941 H 0.16888 0.24413 0.09722 0.0
H942 H 0.29204 0.42621 0.10191 0.0
H943 H 0.23883 0.43137 0.12389 0.0
C944 C 0.27957 0.37717 0.0568 0.0
C945 C 0.28846 0.33238 0.05174 0.0
C946 C 0.2639 0.37881 0.07185 0.0
C947 C 0.2564 0.33548 0.08221 0.0
C948 C 0.26616 0.29101 0.07726 0.0
C949 C 0.28258 0.28977 0.06216 0.0
C950 C 0.15562 0.28764 0.11597 0.0
C951 C 0.17294 0.34093 0.12312 0.0
C952 C 0.18587 0.28472 0.10331 0.0
C953 C 0.23381 0.33507 0.09767 0.0
C954 C 0.2545 0.387 0.10583 0.0
C955 C 0.22427 0.38992 0.11843 0.0
H956 H 0.93345 0.21498 0.20232 0.0
H957 H 0.04926 0.36057 0.23041 0.0
H958 H 0.89538 0.15572 0.22496 0.0
H959 H 0.01048 0.301 0.25322 0.0
H960 H 0.85223 0.20328 0.28626 0.0
H961 H 0.91372 0.26121 0.26527 0.0
H962 H 0.91453 0.11109 0.24723 0.0
H963 H 0.85179 0.05286 0.26794 0.0
C964 C 0.95218 0.23396 0.21327 0.0
C965 C 0.99406 0.29277 0.21457 0.0
C966 C 0.93017 0.19991 0.22629 0.0
C967 C 0.94948 0.22396 0.24087 0.0
C968 C 0.99412 0.28164 0.24213 0.0
C969 C 0.01632 0.31564 0.22909 0.0
C970 C 0.86597 0.18285 0.27787 0.0
C971 C 0.84696 0.12354 0.2787 0.0
C972 C 0.9017 0.2161 0.26596 0.0
C973 C 0.91885 0.19058 0.25461 0.0
C974 C 0.90169 0.13178 0.25577 0.0
C975 C 0.86617 0.09861 0.26771 0.0
H976 H 0.61578 0.88262 0.37723 0.0
H977 H 0.76338 0.0486 0.38851 0.0
H978 H 0.60386 0.85632 0.40405 0.0
H979 H 0.75175 0.02184 0.41542 0.0
H980 H 0.58192 0.82354 0.45374 0.0
H981 H 0.58394 0.87519 0.43053 0.0
H982 H 0.76954 0.94977 0.42838 0.0
H983 H 0.7676 0.89771 0.45122 0.0
C984 C 0.64479 0.91416 0.38544 0.0
C985 C 0.6912 0.96735 0.38065 0.0
C986 C 0.63786 0.8991 0.40086 0.0
C987 C 0.67721 0.93685 0.41183 0.0
C988 C 0.72127 0.99155 0.40719 0.0
C989 C 0.72807 0.00671 0.39177 0.0
C990 C 0.62327 0.85182 0.44845 0.0
C991 C 0.67447 0.85569 0.45422 0.0
C992 C 0.62437 0.88139 0.43519 0.0
C993 C 0.67676 0.91589 0.42753 0.0
C994 C 0.7285 0.92391 0.43407 0.0
C995 C 0.72737 0.89406 0.44725 0.0
loop_
_geom_bond_atom_site_label_1
_geom_bond_atom_site_label_2
_geom_bond_distance
_geom_bond_site_symmetry_2
_ccdc_geom_bond_type
C0 C1 1.351 . S
C0 N3 1.368 . S
C0 H5 0.931 . S
C1 C0 1.351 . S
C1 N2 1.373 . S
C1 H29 0.930 . S
N2 C1 1.373 . S
N2 C4 1.340 . S
N3 C0 1.368 . S
N3 C4 1.321 . S
N3 Co6 2.135 . S
C4 N2 1.340 . S
C4 N3 1.321 . S
C4 H28 0.930 . S
H5 C0 0.931 . S
Co6 N3 2.135 . S
Co6 N9 2.121 . S
Co6 O14 2.055 . S
Co6 O17 2.039 . S
Co6 N20 2.140 . S
C7 O8 1.227 . S
C7 O17 1.265 . S
O8 C7 1.227 . S
N9 Co6 2.121 . S
N9 C11 1.375 . S
N9 C12 1.313 . S
C10 C11 1.338 . S
C10 N13 1.377 . S
C10 H30 0.930 . S
C11 N9 1.375 . S
C11 C10 1.338 . S
C11 H15 0.931 . S
C12 N9 1.313 . S
C12 N13 1.344 . S
C12 H16 0.930 . S
N13 C10 1.377 . S
N13 C12 1.344 . S
O14 Co6 2.055 . S
O14 C18 1.253 . S
H15 C11 0.931 . S
H16 C12 0.930 . S
O17 Co6 2.039 . S
O17 C7 1.265 . S
C18 O14 1.253 . S
C18 O19 1.227 . S
O19 C18 1.227 . S
N20 Co6 2.140 . S
N20 C23 1.346 . S
N20 C24 1.345 . S
C21 C22 1.387 . S
C21 C25 1.391 . S
C22 C21 1.387 . S
C22 C23 1.369 . S
C22 H31 0.929 . S
C23 N20 1.346 . S
C23 C22 1.369 . S
C23 H26 0.928 . S
C24 N20 1.345 . S
C24 C25 1.371 . S
C24 H27 0.931 . S
C25 C21 1.391 . S
C25 C24 1.371 . S
C25 H32 0.930 . S
H26 C23 0.928 . S
H27 C24 0.931 . S
H28 C4 0.930 . S
H29 C1 0.930 . S
H30 C10 0.930 . S
H31 C22 0.929 . S
H32 C25 0.930 . S
C33 C34 1.351 . S
C33 N36 1.368 . S
C33 H38 0.931 . S
C34 C33 1.351 . S
C34 N35 1.373 . S
C34 H62 0.930 . S
N35 C34 1.373 . S
N35 C37 1.340 . S
N36 C33 1.368 . S
N36 C37 1.321 . S
N36 Co39 2.135 . S
C37 N35 1.340 . S
C37 N36 1.321 . S
C37 H61 0.930 1_455 S
H38 C33 0.931 . S
Co39 N36 2.135 . S
Co39 N42 2.121 . S
Co39 O47 2.055 . S
Co39 O50 2.039 1_455 S
Co39 N53 2.140 1_455 S
C40 O41 1.227 . S
C40 O50 1.265 . S
O41 C40 1.227 . S
N42 Co39 2.121 . S
N42 C44 1.375 1_455 S
N42 C45 1.313 . S
C43 C44 1.338 . S
C43 N46 1.377 1_655 S
C43 H63 0.930 . S
C44 N42 1.375 1_655 S
C44 C43 1.338 . S
C44 H48 0.931 . S
C45 N42 1.313 . S
C45 N46 1.344 . S
C45 H49 0.930 . S
N46 C43 1.377 1_455 S
N46 C45 1.344 . S
O47 Co39 2.055 . S
O47 C51 1.253 . S
H48 C44 0.931 . S
H49 C45 0.930 . S
O50 Co39 2.039 1_655 S
O50 C40 1.265 . S
C51 O47 1.253 . S
C51 O52 1.227 . S
O52 C51 1.227 . S
N53 Co39 2.140 1_655 S
N53 C56 1.346 . S
N53 C57 1.345 . S
C54 C55 1.387 . S
C54 C58 1.391 . S
C55 C54 1.387 . S
C55 C56 1.369 . S
C55 H64 0.929 . S
C56 N53 1.346 . S
C56 C55 1.369 . S
C56 H59 0.928 . S
C57 N53 1.345 . S
C57 C58 1.371 . S
C57 H60 0.931 1_655 S
C58 C54 1.391 . S
C58 C57 1.371 . S
C58 H65 0.930 . S
H59 C56 0.928 . S
H60 C57 0.931 1_455 S
H61 C37 0.930 1_655 S
H62 C34 0.930 . S
H63 C43 0.930 . S
H64 C55 0.929 . S
H65 C58 0.930 . S
C66 C67 1.351 . S
C66 N69 1.368 . S
C66 H71 0.931 . S
C67 C66 1.351 . S
C67 N68 1.373 . S
C67 H95 0.930 . S
N68 C67 1.373 . S
N68 C70 1.340 . S
N69 C66 1.368 . S
N69 C70 1.321 . S
N69 Co72 2.135 . S
C70 N68 1.340 . S
C70 N69 1.321 . S
C70 H94 0.930 1_545 S
H71 C66 0.931 . S
Co72 N69 2.135 . S
Co72 N75 2.121 . S
Co72 O80 2.055 . S
Co72 O83 2.039 1_545 S
Co72 N86 2.140 1_545 S
C73 O74 1.227 . S
C73 O83 1.265 . S
O74 C73 1.227 . S
N75 Co72 2.121 . S
N75 C77 1.375 1_545 S
N75 C78 1.313 . S
C76 C77 1.338 . S
C76 N79 1.377 1_565 S
C76 H96 0.930 . S
C77 N75 1.375 1_565 S
C77 C76 1.338 . S
C77 H81 0.931 . S
C78 N75 1.313 . S
C78 N79 1.344 . S
C78 H82 0.930 . S
N79 C76 1.377 1_545 S
N79 C78 1.344 . S
O80 Co72 2.055 . S
O80 C84 1.253 . S
H81 C77 0.931 . S
H82 C78 0.930 . S
O83 Co72 2.039 1_565 S
O83 C73 1.265 . S
C84 O80 1.253 . S
C84 O85 1.227 . S
O85 C84 1.227 . S
N86 Co72 2.140 1_565 S
N86 C89 1.346 . S
N86 C90 1.345 . S
C87 C88 1.387 . S
C87 C91 1.391 . S
C88 C87 1.387 . S
C88 C89 1.369 . S
C88 H97 0.929 . S
C89 N86 1.346 . S
C89 C88 1.369 . S
C89 H92 0.928 . S
C90 N86 1.345 . S
C90 C91 1.371 . S
C90 H93 0.931 1_565 S
C91 C87 1.391 . S
C91 C90 1.371 . S
C91 H98 0.930 . S
H92 C89 0.928 . S
H93 C90 0.931 1_545 S
H94 C70 0.930 1_565 S
H95 C67 0.930 . S
H96 C76 0.930 . S
H97 C88 0.929 . S
H98 C91 0.930 . S
C99 C100 1.351 . S
C99 N102 1.368 . S
C99 H104 0.931 . S
C100 C99 1.351 . S
C100 N101 1.373 . S
C100 H128 0.930 . S
N101 C100 1.373 . S
N101 C103 1.340 . S
N102 C99 1.368 . S
N102 C103 1.321 . S
N102 Co105 2.135 . S
C103 N101 1.340 . S
C103 N102 1.321 . S
C103 H127 0.930 . S
H104 C99 0.931 . S
Co105 N102 2.135 . S
Co105 N108 2.121 . S
Co105 O113 2.055 . S
Co105 O116 2.039 . S
Co105 N119 2.140 . S
C106 O107 1.227 . S
C106 O116 1.265 . S
O107 C106 1.227 . S
N108 Co105 2.121 . S
N108 C110 1.375 . S
N108 C111 1.313 . S
C109 C110 1.338 . S
C109 N112 1.377 . S
C109 H129 0.930 . S
C110 N108 1.375 . S
C110 C109 1.338 . S
C110 H114 0.931 . S
C111 N108 1.313 . S
C111 N112 1.344 . S
C111 H115 0.930 . S
N112 C109 1.377 . S
N112 C111 1.344 . S
O113 Co105 2.055 . S
O113 C117 1.253 . S
H114 C110 0.931 . S
H115 C111 0.930 . S
O116 Co105 2.039 . S
O116 C106 1.265 . S
C117 O113 1.253 . S
C117 O118 1.227 . S
O118 C117 1.227 . S
N119 Co105 2.140 . S
N119 C122 1.346 . S
N119 C123 1.345 . S
C120 C121 1.387 . S
C120 C124 1.391 . S
C121 C120 1.387 . S
C121 C122 1.369 . S
C121 H130 0.929 . S
C122 N119 1.346 . S
C122 C121 1.369 . S
C122 H125 0.928 . S
C123 N119 1.345 . S
C123 C124 1.371 . S
C123 H126 0.931 . S
C124 C120 1.391 . S
C124 C123 1.371 . S
C124 H131 0.930 . S
H125 C122 0.928 . S
H126 C123 0.931 . S
H127 C103 0.930 . S
H128 C100 0.930 . S
H129 C109 0.930 . S
H130 C121 0.929 . S
H131 C124 0.930 . S
C132 C133 1.351 . S
C132 N135 1.368 . S
C132 H137 0.931 . S
C133 C132 1.351 . S
C133 N134 1.373 . S
C133 H161 0.930 . S
N134 C133 1.373 . S
N134 C136 1.340 . S
N135 C132 1.368 . S
N135 C136 1.321 . S
N135 Co138 2.135 . S
C136 N134 1.340 . S
C136 N135 1.321 . S
C136 H160 0.930 1_655 S
H137 C132 0.931 . S
Co138 N135 2.135 . S
Co138 N141 2.121 1_554 S
Co138 O146 2.055 . S
Co138 O149 2.026 1_654 S
Co138 N152 2.140 1_655 S
C139 O140 1.227 . S
C139 O149 1.260 1_554 S
O140 C139 1.227 . S
N141 Co138 2.121 1_556 S
N141 C143 1.375 1_655 S
N141 C144 1.313 . S
C142 C143 1.338 . S
C142 N145 1.377 1_455 S
C142 H162 0.930 . S
C143 N141 1.375 1_455 S
C143 C142 1.338 . S
C143 H147 0.931 . S
C144 N141 1.313 . S
C144 N145 1.344 . S
C144 H148 0.930 . S
N145 C142 1.377 1_655 S
N145 C144 1.344 . S
O146 Co138 2.055 . S
O146 C150 1.253 . S
H147 C143 0.931 . S
H148 C144 0.930 . S
O149 Co138 2.026 1_456 S
O149 C139 1.260 1_556 S
C150 O146 1.253 . S
C150 O151 1.227 . S
O151 C150 1.227 . S
N152 Co138 2.140 1_455 S
N152 C155 1.346 . S
N152 C156 1.345 . S
C153 C154 1.387 . S
C153 C157 1.391 . S
C154 C153 1.387 . S
C154 C155 1.369 . S
C154 H163 0.929 . S
C155 N152 1.346 . S
C155 C154 1.369 . S
C155 H158 0.928 . S
C156 N152 1.345 . S
C156 C157 1.371 . S
C156 H159 0.931 1_455 S
C157 C153 1.391 . S
C157 C156 1.371 . S
C157 H164 0.930 . S
H158 C155 0.928 . S
H159 C156 0.931 1_655 S
H160 C136 0.930 1_455 S
H161 C133 0.930 . S
H162 C142 0.930 . S
H163 C154 0.929 . S
H164 C157 0.930 . S
C165 C166 1.351 . S
C165 N168 1.368 . S
C165 H170 0.931 . S
C166 C165 1.351 . S
C166 N167 1.373 . S
C166 H194 0.930 . S
N167 C166 1.373 . S
N167 C169 1.340 . S
N168 C165 1.368 . S
N168 C169 1.321 . S
N168 Co171 2.135 . S
C169 N167 1.340 . S
C169 N168 1.321 . S
C169 H193 0.930 1_565 S
H170 C165 0.931 . S
Co171 N168 2.135 . S
Co171 N174 2.121 . S
Co171 O179 2.055 . S
Co171 O182 2.039 1_565 S
Co171 N185 2.140 1_565 S
C172 O173 1.227 . S
C172 O182 1.265 . S
O173 C172 1.227 . S
N174 Co171 2.121 . S
N174 C176 1.375 1_565 S
N174 C177 1.313 . S
C175 C176 1.338 . S
C175 N178 1.377 1_545 S
C175 H195 0.930 . S
C176 N174 1.375 1_545 S
C176 C175 1.338 . S
C176 H180 0.931 . S
C177 N174 1.313 . S
C177 N178 1.344 . S
C177 H181 0.930 . S
N178 C175 1.377 1_565 S
N178 C177 1.344 . S
O179 Co171 2.055 . S
O179 C183 1.253 . S
H180 C176 0.931 . S
H181 C177 0.930 . S
O182 Co171 2.039 1_545 S
O182 C172 1.265 . S
C183 O179 1.253 . S
C183 O184 1.227 . S
O184 C183 1.227 . S
N185 Co171 2.140 1_545 S
N185 C188 1.346 . S
N185 C189 1.345 . S
C186 C187 1.387 . S
C186 C190 1.391 . S
C187 C186 1.387 . S
C187 C188 1.369 . S
C187 H196 0.929 . S
C188 N185 1.346 . S
C188 C187 1.369 . S
C188 H191 0.928 . S
C189 N185 1.345 . S
C189 C190 1.371 . S
C189 H192 0.931 1_545 S
C190 C186 1.391 . S
C190 C189 1.371 . S
C190 H197 0.930 . S
H191 C188 0.928 . S
H192 C189 0.931 1_565 S
H193 C169 0.930 1_545 S
H194 C166 0.930 . S
H195 C175 0.930 . S
H196 C187 0.929 . S
H197 C190 0.930 . S
C198 C199 1.351 . S
C198 N201 1.368 . S
C198 H203 0.931 . S
C199 C198 1.351 . S
C199 N200 1.373 . S
C199 H227 0.930 . S
N200 C199 1.373 . S
N200 C202 1.340 . S
N201 C198 1.368 . S
N201 C202 1.321 . S
N201 Co204 2.135 . S
C202 N200 1.340 . S
C202 N201 1.321 . S
C202 H226 0.930 . S
H203 C198 0.931 . S
Co204 N201 2.135 . S
Co204 N207 2.121 . S
Co204 O212 2.055 . S
Co204 O215 2.039 . S
Co204 N218 2.140 . S
C205 O206 1.227 . S
C205 O215 1.265 . S
O206 C205 1.227 . S
N207 Co204 2.121 . S
N207 C209 1.375 . S
N207 C210 1.313 . S
C208 C209 1.338 . S
C208 N211 1.377 . S
C208 H228 0.930 . S
C209 N207 1.375 . S
C209 C208 1.338 . S
C209 H213 0.931 . S
C210 N207 1.313 . S
C210 N211 1.344 . S
C210 H214 0.930 . S
N211 C208 1.377 . S
N211 C210 1.344 . S
O212 Co204 2.055 . S
O212 C216 1.253 . S
H213 C209 0.931 . S
H214 C210 0.930 . S
O215 Co204 2.039 . S
O215 C205 1.265 . S
C216 O212 1.253 . S
C216 O217 1.227 . S
O217 C216 1.227 . S
N218 Co204 2.140 . S
N218 C221 1.346 . S
N218 C222 1.345 . S
C219 C220 1.387 . S
C219 C223 1.391 . S
C220 C219 1.387 . S
C220 C221 1.369 . S
C220 H229 0.929 . S
C221 N218 1.346 . S
C221 C220 1.369 . S
C221 H224 0.928 . S
C222 N218 1.345 . S
C222 C223 1.371 . S
C222 H225 0.931 . S
C223 C219 1.391 . S
C223 C222 1.371 . S
C223 H230 0.930 . S
H224 C221 0.928 . S
H225 C222 0.931 . S
H226 C202 0.930 . S
H227 C199 0.930 . S
H228 C208 0.930 . S
H229 C220 0.929 . S
H230 C223 0.930 . S
C231 C232 1.351 . S
C231 N234 1.368 . S
C231 H236 0.931 . S
C232 C231 1.351 . S
C232 N233 1.373 . S
C232 H260 0.930 . S
N233 C232 1.373 . S
N233 C235 1.340 . S
N234 C231 1.368 . S
N234 C235 1.321 . S
N234 Co237 2.135 . S
C235 N233 1.340 . S
C235 N234 1.321 . S
C235 H259 0.930 1_455 S
H236 C231 0.931 . S
Co237 N234 2.135 . S
Co237 N240 2.121 . S
Co237 O245 2.055 . S
Co237 O248 2.039 1_455 S
Co237 N251 2.140 1_455 S
C238 O239 1.227 . S
C238 O248 1.265 . S
O239 C238 1.227 . S
N240 Co237 2.121 . S
N240 C242 1.375 1_455 S
N240 C243 1.313 . S
C241 C242 1.338 . S
C241 N244 1.377 1_655 S
C241 H261 0.930 . S
C242 N240 1.375 1_655 S
C242 C241 1.338 . S
C242 H246 0.931 . S
C243 N240 1.313 . S
C243 N244 1.344 . S
C243 H247 0.930 . S
N244 C241 1.377 1_455 S
N244 C243 1.344 . S
O245 Co237 2.055 . S
O245 C249 1.253 . S
H246 C242 0.931 . S
H247 C243 0.930 . S
O248 Co237 2.039 1_655 S
O248 C238 1.265 . S
C249 O245 1.253 . S
C249 O250 1.227 . S
O250 C249 1.227 . S
N251 Co237 2.140 1_655 S
N251 C254 1.346 . S
N251 C255 1.345 . S
C252 C253 1.387 . S
C252 C256 1.391 . S
C253 C252 1.387 . S
C253 C254 1.369 . S
C253 H262 0.929 . S
C254 N251 1.346 . S
C254 C253 1.369 . S
C254 H257 0.928 . S
C255 N251 1.345 . S
C255 C256 1.371 . S
C255 H258 0.931 1_655 S
C256 C252 1.391 . S
C256 C255 1.371 . S
C256 H263 0.930 . S
H257 C254 0.928 . S
H258 C255 0.931 1_455 S
H259 C235 0.930 1_655 S
H260 C232 0.930 . S
H261 C241 0.930 . S
H262 C253 0.929 . S
H263 C256 0.930 . S
C264 C265 1.351 . S
C264 N267 1.368 . S
C264 H269 0.931 . S
C265 C264 1.351 . S
C265 N266 1.373 . S
C265 H293 0.930 . S
N266 C265 1.373 . S
N266 C268 1.340 . S
N267 C264 1.368 . S
N267 C268 1.321 . S
N267 Co270 2.135 . S
C268 N266 1.340 . S
C268 N267 1.321 . S
C268 H292 0.930 1_545 S
H269 C264 0.931 . S
Co270 N267 2.135 . S
Co270 N273 2.121 . S
Co270 O278 2.055 . S
Co270 O281 2.039 1_545 S
Co270 N284 2.140 1_545 S
C271 O272 1.227 . S
C271 O281 1.265 . S
O272 C271 1.227 . S
N273 Co270 2.121 . S
N273 C275 1.375 1_545 S
N273 C276 1.313 . S
C274 C275 1.338 . S
C274 N277 1.377 1_565 S
C274 H294 0.930 . S
C275 N273 1.375 1_565 S
C275 C274 1.338 . S
C275 H279 0.931 . S
C276 N273 1.313 . S
C276 N277 1.344 . S
C276 H280 0.930 . S
N277 C274 1.377 1_545 S
N277 C276 1.344 . S
O278 Co270 2.055 . S
O278 C282 1.253 . S
H279 C275 0.931 . S
H280 C276 0.930 . S
O281 Co270 2.039 1_565 S
O281 C271 1.265 . S
C282 O278 1.253 . S
C282 O283 1.227 . S
O283 C282 1.227 . S
N284 Co270 2.140 1_565 S
N284 C287 1.346 . S
N284 C288 1.345 . S
C285 C286 1.387 . S
C285 C289 1.391 . S
C286 C285 1.387 . S
C286 C287 1.369 . S
C286 H295 0.929 . S
C287 N284 1.346 . S
C287 C286 1.369 . S
C287 H290 0.928 . S
C288 N284 1.345 . S
C288 C289 1.371 . S
C288 H291 0.931 1_565 S
C289 C285 1.391 . S
C289 C288 1.371 . S
C289 H296 0.930 . S
H290 C287 0.928 . S
H291 C288 0.931 1_545 S
H292 C268 0.930 1_565 S
H293 C265 0.930 . S
H294 C274 0.930 . S
H295 C286 0.929 . S
H296 C289 0.930 . S
C297 C298 1.351 . S
C297 N300 1.368 . S
C297 H302 0.931 . S
C298 C297 1.351 . S
C298 N299 1.373 . S
C298 H326 0.930 . S
N299 C298 1.373 . S
N299 C301 1.340 . S
N300 C297 1.368 . S
N300 C301 1.321 . S
N300 Co303 2.135 . S
C301 N299 1.340 . S
C301 N300 1.321 . S
C301 H325 0.930 . S
H302 C297 0.931 . S
Co303 N300 2.135 . S
Co303 N306 2.121 1_556 S
Co303 O311 2.055 . S
Co303 O314 2.039 . S
Co303 N317 2.140 . S
C304 O305 1.227 . S
C304 O314 1.265 . S
O305 C304 1.227 . S
N306 Co303 2.121 1_554 S
N306 C308 1.375 . S
N306 C309 1.313 . S
C307 C308 1.338 . S
C307 N310 1.377 . S
C307 H327 0.930 . S
C308 N306 1.375 . S
C308 C307 1.338 . S
C308 H312 0.931 . S
C309 N306 1.313 . S
C309 N310 1.344 . S
C309 H313 0.930 . S
N310 C307 1.377 . S
N310 C309 1.344 . S
O311 Co303 2.055 . S
O311 C315 1.253 . S
H312 C308 0.931 . S
H313 C309 0.930 . S
O314 Co303 2.039 . S
O314 C304 1.265 . S
C315 O311 1.253 . S
C315 O316 1.227 . S
O316 C315 1.227 . S
N317 Co303 2.140 . S
N317 C320 1.346 . S
N317 C321 1.345 . S
C318 C319 1.387 . S
C318 C322 1.391 . S
C319 C318 1.387 . S
C319 C320 1.369 . S
C319 H328 0.929 . S
C320 N317 1.346 . S
C320 C319 1.369 . S
C320 H323 0.928 . S
C321 N317 1.345 . S
C321 C322 1.371 . S
C321 H324 0.931 . S
C322 C318 1.391 . S
C322 C321 1.371 . S
C322 H329 0.930 . S
H323 C320 0.928 . S
H324 C321 0.931 . S
H325 C301 0.930 . S
H326 C298 0.930 . S
H327 C307 0.930 . S
H328 C319 0.929 . S
H329 C322 0.930 . S
C330 C331 1.351 . S
C330 N333 1.368 . S
C330 H335 0.931 . S
C331 C330 1.351 . S
C331 N332 1.373 . S
C331 H359 0.930 . S
N332 C331 1.373 . S
N332 C334 1.340 . S
N333 C330 1.368 . S
N333 C334 1.321 . S
N333 Co336 2.135 . S
C334 N332 1.340 . S
C334 N333 1.321 . S
C334 H358 0.930 1_655 S
H335 C330 0.931 . S
Co336 N333 2.135 . S
Co336 N339 2.121 . S
Co336 O344 2.055 . S
Co336 O347 2.039 1_655 S
Co336 N350 2.140 1_655 S
C337 O338 1.227 . S
C337 O347 1.265 . S
O338 C337 1.227 . S
N339 Co336 2.121 . S
N339 C341 1.375 1_655 S
N339 C342 1.313 . S
C340 C341 1.338 . S
C340 N343 1.377 1_455 S
C340 H360 0.930 . S
C341 N339 1.375 1_455 S
C341 C340 1.338 . S
C341 H345 0.931 . S
C342 N339 1.313 . S
C342 N343 1.344 . S
C342 H346 0.930 . S
N343 C340 1.377 1_655 S
N343 C342 1.344 . S
O344 Co336 2.055 . S
O344 C348 1.253 . S
H345 C341 0.931 . S
H346 C342 0.930 . S
O347 Co336 2.039 1_455 S
O347 C337 1.265 . S
C348 O344 1.253 . S
C348 O349 1.227 . S
O349 C348 1.227 . S
N350 Co336 2.140 1_455 S
N350 C353 1.346 . S
N350 C354 1.345 . S
C351 C352 1.387 . S
C351 C355 1.391 . S
C352 C351 1.387 . S
C352 C353 1.369 . S
C352 H361 0.929 . S
C353 N350 1.346 . S
C353 C352 1.369 . S
C353 H356 0.928 . S
C354 N350 1.345 . S
C354 C355 1.371 . S
C354 H357 0.931 1_455 S
C355 C351 1.391 . S
C355 C354 1.371 . S
C355 H362 0.930 . S
H356 C353 0.928 . S
H357 C354 0.931 1_655 S
H358 C334 0.930 1_455 S
H359 C331 0.930 . S
H360 C340 0.930 . S
H361 C352 0.929 . S
H362 C355 0.930 . S
C363 C364 1.351 . S
C363 N366 1.368 . S
C363 H368 0.931 . S
C364 C363 1.351 . S
C364 N365 1.373 . S
C364 H392 0.930 . S
N365 C364 1.373 . S
N365 C367 1.340 . S
N366 C363 1.368 . S
N366 C367 1.321 . S
N366 Co369 2.135 . S
C367 N365 1.340 . S
C367 N366 1.321 . S
C367 H391 0.930 1_565 S
H368 C363 0.931 . S
Co369 N366 2.135 . S
Co369 N372 2.121 . S
Co369 O377 2.055 . S
Co369 O380 2.039 1_565 S
Co369 N383 2.140 1_565 S
C370 O371 1.227 . S
C370 O380 1.265 . S
O371 C370 1.227 . S
N372 Co369 2.121 . S
N372 C374 1.375 1_565 S
N372 C375 1.313 . S
C373 C374 1.338 . S
C373 N376 1.377 1_545 S
C373 H393 0.930 . S
C374 N372 1.375 1_545 S
C374 C373 1.338 . S
C374 H378 0.931 . S
C375 N372 1.313 . S
C375 N376 1.344 . S
C375 H379 0.930 . S
N376 C373 1.377 1_565 S
N376 C375 1.344 . S
O377 Co369 2.055 . S
O377 C381 1.253 . S
H378 C374 0.931 . S
H379 C375 0.930 . S
O380 Co369 2.039 1_545 S
O380 C370 1.265 . S
C381 O377 1.253 . S
C381 O382 1.227 . S
O382 C381 1.227 . S
N383 Co369 2.140 1_545 S
N383 C386 1.346 . S
N383 C387 1.345 . S
C384 C385 1.387 . S
C384 C388 1.391 . S
C385 C384 1.387 . S
C385 C386 1.369 . S
C385 H394 0.929 . S
C386 N383 1.346 . S
C386 C385 1.369 . S
C386 H389 0.928 . S
C387 N383 1.345 . S
C387 C388 1.371 . S
C387 H390 0.931 1_545 S
C388 C384 1.391 . S
C388 C387 1.371 . S
C388 H395 0.930 . S
H389 C386 0.928 . S
H390 C387 0.931 1_565 S
H391 C367 0.930 1_545 S
H392 C364 0.930 . S
H393 C373 0.930 . S
H394 C385 0.929 . S
H395 C388 0.930 . S
H396 C404 0.950 . S
H397 C409 0.950 . S
H398 C406 0.950 . S
H399 C408 0.950 . S
H400 C410 0.950 . S
H401 C412 0.950 . S
H402 C414 0.950 . S
H403 C415 0.950 . S
C404 H396 0.950 . S
C404 C405 1.386 . S
C404 C406 1.391 . S
C405 C404 1.386 . S
C405 C409 1.393 . S
C406 H398 0.950 . S
C406 C404 1.391 . S
C406 C407 1.400 . S
C407 C406 1.400 . S
C407 C408 1.398 . S
C407 C413 1.491 . S
C408 H399 0.950 . S
C408 C407 1.398 . S
C408 C409 1.391 . S
C409 H397 0.950 . S
C409 C405 1.393 . S
C409 C408 1.391 . S
C410 H400 0.950 . S
C410 C411 1.386 . S
C410 C412 1.391 . S
C411 C410 1.386 . S
C411 C415 1.393 . S
C412 H401 0.950 . S
C412 C410 1.391 . S
C412 C413 1.400 . S
C413 C407 1.491 . S
C413 C412 1.400 . S
C413 C414 1.398 . S
C414 H402 0.950 . S
C414 C413 1.398 . S
C414 C415 1.391 . S
C415 H403 0.950 . S
C415 C411 1.393 . S
C415 C414 1.391 . S
H416 C424 0.950 . S
H417 C429 0.950 . S
H418 C426 0.950 . S
H419 C428 0.950 . S
H420 C430 0.950 . S
H421 C432 0.950 . S
H422 C434 0.950 . S
H423 C435 0.950 . S
C424 H416 0.950 . S
C424 C425 1.386 . S
C424 C426 1.391 . S
C425 C424 1.386 . S
C425 C429 1.393 . S
C426 H418 0.950 . S
C426 C424 1.391 . S
C426 C427 1.400 . S
C427 C426 1.400 . S
C427 C428 1.398 . S
C427 C433 1.491 . S
C428 H419 0.950 . S
C428 C427 1.398 . S
C428 C429 1.391 . S
C429 H417 0.950 . S
C429 C425 1.393 . S
C429 C428 1.391 . S
C430 H420 0.950 . S
C430 C431 1.386 . S
C430 C432 1.391 . S
C431 C430 1.386 . S
C431 C435 1.393 . S
C432 H421 0.950 . S
C432 C430 1.391 . S
C432 C433 1.400 . S
C433 C427 1.491 . S
C433 C432 1.400 . S
C433 C434 1.398 . S
C434 H422 0.950 . S
C434 C433 1.398 . S
C434 C435 1.391 . S
C435 H423 0.950 . S
C435 C431 1.393 . S
C435 C434 1.391 . S
H436 C444 0.950 . S
H437 C449 0.950 . S
H438 C446 0.950 . S
H439 C448 0.950 . S
H440 C450 0.950 . S
H441 C452 0.950 . S
H442 C454 0.950 . S
H443 C455 0.950 . S
C444 H436 0.950 . S
C444 C445 1.386 . S
C444 C446 1.391 . S
C445 C444 1.386 . S
C445 C449 1.393 . S
C446 H438 0.950 . S
C446 C444 1.391 . S
C446 C447 1.400 . S
C447 C446 1.400 . S
C447 C448 1.398 . S
C447 C453 1.491 . S
C448 H439 0.950 . S
C448 C447 1.398 . S
C448 C449 1.391 . S
C449 H437 0.950 . S
C449 C445 1.393 . S
C449 C448 1.391 . S
C450 H440 0.950 . S
C450 C451 1.386 . S
C450 C452 1.391 . S
C451 C450 1.386 . S
C451 C455 1.393 . S
C452 H441 0.950 . S
C452 C450 1.391 . S
C452 C453 1.400 . S
C453 C447 1.491 . S
C453 C452 1.400 . S
C453 C454 1.398 . S
C454 H442 0.950 . S
C454 C453 1.398 . S
C454 C455 1.391 . S
C455 H443 0.950 . S
C455 C451 1.393 . S
C455 C454 1.391 . S
H456 C464 0.950 . S
H457 C469 0.950 . S
H458 C466 0.950 . S
H459 C468 0.950 . S
H460 C470 0.950 . S
H461 C472 0.950 . S
H462 C474 0.950 . S
H463 C475 0.950 . S
C464 H456 0.950 . S
C464 C465 1.386 . S
C464 C466 1.391 . S
C465 C464 1.386 . S
C465 C469 1.393 . S
C466 H458 0.950 . S
C466 C464 1.391 . S
C466 C467 1.400 . S
C467 C466 1.400 . S
C467 C468 1.398 . S
C467 C473 1.491 . S
C468 H459 0.950 . S
C468 C467 1.398 . S
C468 C469 1.391 . S
C469 H457 0.950 . S
C469 C465 1.393 . S
C469 C468 1.391 . S
C470 H460 0.950 . S
C470 C471 1.386 . S
C470 C472 1.391 . S
C471 C470 1.386 . S
C471 C475 1.393 . S
C472 H461 0.950 . S
C472 C470 1.391 . S
C472 C473 1.400 . S
C473 C467 1.491 . S
C473 C472 1.400 . S
C473 C474 1.398 . S
C474 H462 0.950 . S
C474 C473 1.398 . S
C474 C475 1.391 . S
C475 H463 0.950 . S
C475 C471 1.393 . S
C475 C474 1.391 . S
H476 C484 0.950 . S
H477 C489 0.950 . S
H478 C486 0.950 . S
H479 C488 0.950 . S
H480 C490 0.950 . S
H481 C492 0.950 . S
H482 C494 0.950 . S
H483 C495 0.950 . S
C484 H476 0.950 . S
C484 C485 1.386 1_556 S
C484 C486 1.391 . S
C485 C484 1.386 1_554 S
C485 C489 1.393 . S
C486 H478 0.950 . S
C486 C484 1.391 . S
C486 C487 1.400 1_556 S
C487 C486 1.400 1_554 S
C487 C488 1.398 . S
C487 C493 1.491 . S
C488 H479 0.950 . S
C488 C487 1.398 . S
C488 C489 1.391 . S
C489 H477 0.950 . S
C489 C485 1.393 . S
C489 C488 1.391 . S
C490 H480 0.950 . S
C490 C491 1.386 . S
C490 C492 1.391 . S
C491 C490 1.386 . S
C491 C495 1.393 1_554 S
C492 H481 0.950 . S
C492 C490 1.391 . S
C492 C493 1.400 . S
C493 C487 1.491 . S
C493 C492 1.400 . S
C493 C494 1.398 1_554 S
C494 H482 0.950 . S
C494 C493 1.398 1_556 S
C494 C495 1.391 . S
C495 H483 0.950 . S
C495 C491 1.393 1_556 S
C495 C494 1.391 . S
H496 C504 0.950 . S
H497 C509 0.950 . S
H498 C506 0.950 . S
H499 C508 0.950 . S
H500 C510 0.950 . S
H501 C512 0.950 . S
H502 C514 0.950 . S
H503 C515 0.950 . S
C504 H496 0.950 . S
C504 C505 1.386 . S
C504 C506 1.391 . S
C505 C504 1.386 . S
C505 C509 1.393 . S
C506 H498 0.950 . S
C506 C504 1.391 . S
C506 C507 1.400 . S
C507 C506 1.400 . S
C507 C508 1.398 . S
C507 C513 1.491 . S
C508 H499 0.950 . S
C508 C507 1.398 . S
C508 C509 1.391 . S
C509 H497 0.950 . S
C509 C505 1.393 . S
C509 C508 1.391 . S
C510 H500 0.950 . S
C510 C511 1.386 . S
C510 C512 1.391 . S
C511 C510 1.386 . S
C511 C515 1.393 . S
C512 H501 0.950 . S
C512 C510 1.391 . S
C512 C513 1.400 . S
C513 C507 1.491 . S
C513 C512 1.400 . S
C513 C514 1.398 . S
C514 H502 0.950 . S
C514 C513 1.398 . S
C514 C515 1.391 . S
C515 H503 0.950 . S
C515 C511 1.393 . S
C515 C514 1.391 . S
H516 C524 0.950 . S
H517 C529 0.950 . S
H518 C526 0.950 . S
H519 C528 0.950 . S
H520 C530 0.950 . S
H521 C532 0.950 . S
H522 C534 0.950 . S
H523 C535 0.950 . S
C524 H516 0.950 . S
C524 C525 1.386 . S
C524 C526 1.391 . S
C525 C524 1.386 . S
C525 C529 1.393 . S
C526 H518 0.950 . S
C526 C524 1.391 . S
C526 C527 1.400 . S
C527 C526 1.400 . S
C527 C528 1.398 . S
C527 C533 1.491 . S
C528 H519 0.950 . S
C528 C527 1.398 . S
C528 C529 1.391 . S
C529 H517 0.950 . S
C529 C525 1.393 . S
C529 C528 1.391 . S
C530 H520 0.950 . S
C530 C531 1.386 . S
C530 C532 1.391 . S
C531 C530 1.386 . S
C531 C535 1.393 . S
C532 H521 0.950 . S
C532 C530 1.391 . S
C532 C533 1.400 . S
C533 C527 1.491 . S
C533 C532 1.400 . S
C533 C534 1.398 . S
C534 H522 0.950 . S
C534 C533 1.398 . S
C534 C535 1.391 . S
C535 H523 0.950 . S
C535 C531 1.393 . S
C535 C534 1.391 . S
H536 C544 0.950 . S
H537 C549 0.950 . S
H538 C546 0.950 . S
H539 C548 0.950 . S
H540 C550 0.950 . S
H541 C552 0.950 . S
H542 C554 0.950 . S
H543 C555 0.950 . S
C544 H536 0.950 . S
C544 C545 1.386 . S
C544 C546 1.391 . S
C545 C544 1.386 . S
C545 C549 1.393 . S
C546 H538 0.950 . S
C546 C544 1.391 . S
C546 C547 1.400 . S
C547 C546 1.400 . S
C547 C548 1.398 . S
C547 C553 1.491 . S
C548 H539 0.950 . S
C548 C547 1.398 . S
C548 C549 1.391 . S
C549 H537 0.950 . S
C549 C545 1.393 . S
C549 C548 1.391 . S
C550 H540 0.950 . S
C550 C551 1.386 . S
C550 C552 1.391 . S
C551 C550 1.386 . S
C551 C555 1.393 . S
C552 H541 0.950 . S
C552 C550 1.391 . S
C552 C553 1.400 . S
C553 C547 1.491 . S
C553 C552 1.400 . S
C553 C554 1.398 . S
C554 H542 0.950 . S
C554 C553 1.398 . S
C554 C555 1.391 . S
C555 H543 0.950 . S
C555 C551 1.393 . S
C555 C554 1.391 . S
H556 C564 0.950 . S
H557 C569 0.950 . S
H558 C566 0.950 . S
H559 C568 0.950 . S
H560 C570 0.950 . S
H561 C572 0.950 . S
H562 C574 0.950 . S
H563 C575 0.950 . S
C564 H556 0.950 . S
C564 C565 1.386 . S
C564 C566 1.391 . S
C565 C564 1.386 . S
C565 C569 1.393 . S
C566 H558 0.950 . S
C566 C564 1.391 . S
C566 C567 1.400 . S
C567 C566 1.400 . S
C567 C568 1.398 . S
C567 C573 1.491 . S
C568 H559 0.950 . S
C568 C567 1.398 . S
C568 C569 1.391 . S
C569 H557 0.950 . S
C569 C565 1.393 . S
C569 C568 1.391 . S
C570 H560 0.950 . S
C570 C571 1.386 . S
C570 C572 1.391 . S
C571 C570 1.386 . S
C571 C575 1.393 . S
C572 H561 0.950 . S
C572 C570 1.391 . S
C572 C573 1.400 . S
C573 C567 1.491 . S
C573 C572 1.400 . S
C573 C574 1.398 . S
C574 H562 0.950 . S
C574 C573 1.398 . S
C574 C575 1.391 . S
C575 H563 0.950 . S
C575 C571 1.393 . S
C575 C574 1.391 . S
H576 C584 0.950 . S
H577 C589 0.950 . S
H578 C586 0.950 . S
H579 C588 0.950 . S
H580 C590 0.950 . S
H581 C592 0.950 . S
H582 C594 0.950 . S
H583 C595 0.950 . S
C584 H576 0.950 . S
C584 C585 1.386 . S
C584 C586 1.391 . S
C585 C584 1.386 . S
C585 C589 1.393 1_556 S
C586 H578 0.950 . S
C586 C584 1.391 . S
C586 C587 1.400 . S
C587 C586 1.400 . S
C587 C588 1.398 1_556 S
C587 C593 1.491 . S
C588 H579 0.950 . S
C588 C587 1.398 1_554 S
C588 C589 1.391 . S
C589 H577 0.950 . S
C589 C585 1.393 1_554 S
C589 C588 1.391 . S
C590 H580 0.950 . S
C590 C591 1.386 1_554 S
C590 C592 1.391 . S
C591 C590 1.386 1_556 S
C591 C595 1.393 . S
C592 H581 0.950 . S
C592 C590 1.391 . S
C592 C593 1.400 1_554 S
C593 C587 1.491 . S
C593 C592 1.400 1_556 S
C593 C594 1.398 . S
C594 H582 0.950 . S
C594 C593 1.398 . S
C594 C595 1.391 . S
C595 H583 0.950 . S
C595 C591 1.393 . S
C595 C594 1.391 . S
H596 C604 0.950 . S
H597 C609 0.950 . S
H598 C606 0.950 . S
H599 C608 0.950 . S
H600 C610 0.950 . S
H601 C612 0.950 . S
H602 C614 0.950 . S
H603 C615 0.950 . S
C604 H596 0.950 . S
C604 C605 1.386 . S
C604 C606 1.391 . S
C605 C604 1.386 . S
C605 C609 1.393 . S
C606 H598 0.950 . S
C606 C604 1.391 . S
C606 C607 1.400 . S
C607 C606 1.400 . S
C607 C608 1.398 . S
C607 C613 1.491 . S
C608 H599 0.950 . S
C608 C607 1.398 . S
C608 C609 1.391 . S
C609 H597 0.950 . S
C609 C605 1.393 . S
C609 C608 1.391 . S
C610 H600 0.950 . S
C610 C611 1.386 . S
C610 C612 1.391 . S
C611 C610 1.386 . S
C611 C615 1.393 . S
C612 H601 0.950 . S
C612 C610 1.391 . S
C612 C613 1.400 . S
C613 C607 1.491 . S
C613 C612 1.400 . S
C613 C614 1.398 . S
C614 H602 0.950 . S
C614 C613 1.398 . S
C614 C615 1.391 . S
C615 H603 0.950 . S
C615 C611 1.393 . S
C615 C614 1.391 . S
H616 C624 0.950 . S
H617 C629 0.950 . S
H618 C626 0.950 . S
H619 C628 0.950 . S
H620 C630 0.950 . S
H621 C632 0.950 . S
H622 C634 0.950 . S
H623 C635 0.950 . S
C624 H616 0.950 . S
C624 C625 1.386 . S
C624 C626 1.391 . S
C625 C624 1.386 . S
C625 C629 1.393 . S
C626 H618 0.950 . S
C626 C624 1.391 . S
C626 C627 1.400 . S
C627 C626 1.400 . S
C627 C628 1.398 . S
C627 C633 1.491 . S
C628 H619 0.950 . S
C628 C627 1.398 . S
C628 C629 1.391 . S
C629 H617 0.950 . S
C629 C625 1.393 . S
C629 C628 1.391 . S
C630 H620 0.950 . S
C630 C631 1.386 . S
C630 C632 1.391 . S
C631 C630 1.386 . S
C631 C635 1.393 . S
C632 H621 0.950 . S
C632 C630 1.391 . S
C632 C633 1.400 . S
C633 C627 1.491 . S
C633 C632 1.400 . S
C633 C634 1.398 . S
C634 H622 0.950 . S
C634 C633 1.398 . S
C634 C635 1.391 . S
C635 H623 0.950 . S
C635 C631 1.393 . S
C635 C634 1.391 . S
H636 C644 0.950 . S
H637 C649 0.950 . S
H638 C646 0.950 . S
H639 C648 0.950 . S
H640 C650 0.950 . S
H641 C652 0.950 . S
H642 C654 0.950 . S
H643 C655 0.950 . S
C644 H636 0.950 . S
C644 C645 1.386 . S
C644 C646 1.391 . S
C645 C644 1.386 . S
C645 C649 1.393 . S
C646 H638 0.950 . S
C646 C644 1.391 . S
C646 C647 1.400 . S
C647 C646 1.400 . S
C647 C648 1.398 . S
C647 C653 1.491 . S
C648 H639 0.950 . S
C648 C647 1.398 . S
C648 C649 1.391 . S
C649 H637 0.950 . S
C649 C645 1.393 . S
C649 C648 1.391 . S
C650 H640 0.950 . S
C650 C651 1.386 . S
C650 C652 1.391 . S
C651 C650 1.386 . S
C651 C655 1.393 . S
C652 H641 0.950 . S
C652 C650 1.391 . S
C652 C653 1.400 . S
C653 C647 1.491 . S
C653 C652 1.400 . S
C653 C654 1.398 . S
C654 H642 0.950 . S
C654 C653 1.398 . S
C654 C655 1.391 . S
C655 H643 0.950 . S
C655 C651 1.393 . S
C655 C654 1.391 . S
H656 C664 0.950 . S
H657 C669 0.950 . S
H658 C666 0.950 . S
H659 C668 0.950 . S
H660 C670 0.950 . S
H661 C672 0.950 . S
H662 C674 0.950 . S
H663 C675 0.950 . S
C664 H656 0.950 . S
C664 C665 1.386 . S
C664 C666 1.391 . S
C665 C664 1.386 . S
C665 C669 1.393 1_455 S
C666 H658 0.950 . S
C666 C664 1.391 . S
C666 C667 1.400 . S
C667 C666 1.400 . S
C667 C668 1.398 1_455 S
C667 C673 1.491 . S
C668 H659 0.950 . S
C668 C667 1.398 1_655 S
C668 C669 1.391 . S
C669 H657 0.950 . S
C669 C665 1.393 1_655 S
C669 C668 1.391 . S
C670 H660 0.950 . S
C670 C671 1.386 1_655 S
C670 C672 1.391 . S
C671 C670 1.386 1_455 S
C671 C675 1.393 . S
C672 H661 0.950 . S
C672 C670 1.391 . S
C672 C673 1.400 1_655 S
C673 C667 1.491 . S
C673 C672 1.400 1_455 S
C673 C674 1.398 . S
C674 H662 0.950 . S
C674 C673 1.398 . S
C674 C675 1.391 . S
C675 H663 0.950 . S
C675 C671 1.393 . S
C675 C674 1.391 . S
H676 C684 0.950 1_565 S
H677 C689 0.950 . S
H678 C686 0.950 1_565 S
H679 C688 0.950 . S
H680 C690 0.950 . S
H681 C692 0.950 . S
H682 C694 0.950 1_565 S
H683 C695 0.950 1_565 S
C684 H676 0.950 1_545 S
C684 C685 1.386 . S
C684 C686 1.391 . S
C685 C684 1.386 . S
C685 C689 1.393 . S
C686 H678 0.950 1_545 S
C686 C684 1.391 . S
C686 C687 1.400 . S
C687 C686 1.400 . S
C687 C688 1.398 . S
C687 C693 1.491 . S
C688 H679 0.950 . S
C688 C687 1.398 . S
C688 C689 1.391 . S
C689 H677 0.950 . S
C689 C685 1.393 . S
C689 C688 1.391 . S
C690 H680 0.950 . S
C690 C691 1.386 . S
C690 C692 1.391 . S
C691 C690 1.386 . S
C691 C695 1.393 . S
C692 H681 0.950 . S
C692 C690 1.391 . S
C692 C693 1.400 . S
C693 C687 1.491 . S
C693 C692 1.400 . S
C693 C694 1.398 . S
C694 H682 0.950 1_545 S
C694 C693 1.398 . S
C694 C695 1.391 . S
C695 H683 0.950 1_545 S
C695 C691 1.393 . S
C695 C694 1.391 . S
H696 C704 0.950 . S
H697 C709 0.950 . S
H698 C706 0.950 . S
H699 C708 0.950 . S
H700 C710 0.950 . S
H701 C712 0.950 . S
H702 C714 0.950 . S
H703 C715 0.950 . S
C704 H696 0.950 . S
C704 C705 1.386 . S
C704 C706 1.391 . S
C705 C704 1.386 . S
C705 C709 1.393 . S
C706 H698 0.950 . S
C706 C704 1.391 . S
C706 C707 1.400 . S
C707 C706 1.400 . S
C707 C708 1.398 . S
C707 C713 1.491 . S
C708 H699 0.950 . S
C708 C707 1.398 . S
C708 C709 1.391 . S
C709 H697 0.950 . S
C709 C705 1.393 . S
C709 C708 1.391 . S
C710 H700 0.950 . S
C710 C711 1.386 . S
C710 C712 1.391 . S
C711 C710 1.386 . S
C711 C715 1.393 . S
C712 H701 0.950 . S
C712 C710 1.391 . S
C712 C713 1.400 . S
C713 C707 1.491 . S
C713 C712 1.400 . S
C713 C714 1.398 . S
C714 H702 0.950 . S
C714 C713 1.398 . S
C714 C715 1.391 . S
C715 H703 0.950 . S
C715 C711 1.393 . S
C715 C714 1.391 . S
H716 C724 0.950 . S
H717 C729 0.950 . S
H718 C726 0.950 . S
H719 C728 0.950 . S
H720 C730 0.950 . S
H721 C732 0.950 . S
H722 C734 0.950 . S
H723 C735 0.950 . S
C724 H716 0.950 . S
C724 C725 1.386 1_455 S
C724 C726 1.391 . S
C725 C724 1.386 1_655 S
C725 C729 1.393 . S
C726 H718 0.950 . S
C726 C724 1.391 . S
C726 C727 1.400 1_455 S
C727 C726 1.400 1_655 S
C727 C728 1.398 . S
C727 C733 1.491 . S
C728 H719 0.950 . S
C728 C727 1.398 . S
C728 C729 1.391 . S
C729 H717 0.950 . S
C729 C725 1.393 . S
C729 C728 1.391 . S
C730 H720 0.950 . S
C730 C731 1.386 . S
C730 C732 1.391 . S
C731 C730 1.386 . S
C731 C735 1.393 1_655 S
C732 H721 0.950 . S
C732 C730 1.391 . S
C732 C733 1.400 . S
C733 C727 1.491 . S
C733 C732 1.400 . S
C733 C734 1.398 1_655 S
C734 H722 0.950 . S
C734 C733 1.398 1_455 S
C734 C735 1.391 . S
C735 H723 0.950 . S
C735 C731 1.393 1_455 S
C735 C734 1.391 . S
H736 C744 0.952 . S
H737 C749 0.950 . S
H738 C746 0.947 1_545 S
H739 C748 0.950 . S
H740 C750 0.950 . S
H741 C752 0.950 . S
H742 C754 0.949 1_545 S
H743 C755 0.950 1_545 S
C744 H736 0.952 . S
C744 C745 1.380 1_545 S
C744 C746 1.396 1_545 S
C745 C744 1.380 1_565 S
C745 C749 1.393 . S
C746 H738 0.947 1_565 S
C746 C744 1.396 1_565 S
C746 C747 1.401 . S
C747 C746 1.401 . S
C747 C748 1.398 . S
C747 C753 1.491 . S
C748 H739 0.950 . S
C748 C747 1.398 . S
C748 C749 1.391 . S
C749 H737 0.950 . S
C749 C745 1.393 . S
C749 C748 1.391 . S
C750 H740 0.950 . S
C750 C751 1.386 . S
C750 C752 1.391 . S
C751 C750 1.386 . S
C751 C755 1.393 . S
C752 H741 0.950 . S
C752 C750 1.391 . S
C752 C753 1.400 . S
C753 C747 1.491 . S
C753 C752 1.400 . S
C753 C754 1.398 . S
C754 H742 0.949 1_565 S
C754 C753 1.398 . S
C754 C755 1.391 . S
C755 H743 0.950 1_565 S
C755 C751 1.393 . S
C755 C754 1.391 . S
H756 C764 0.950 . S
H757 C769 0.950 . S
H758 C766 0.950 . S
H759 C768 0.950 . S
H760 C770 0.950 . S
H761 C772 0.950 . S
H762 C774 0.950 . S
H763 C775 0.950 . S
C764 H756 0.950 . S
C764 C765 1.386 . S
C764 C766 1.391 . S
C765 C764 1.386 . S
C765 C769 1.393 . S
C766 H758 0.950 . S
C766 C764 1.391 . S
C766 C767 1.400 . S
C767 C766 1.400 . S
C767 C768 1.398 . S
C767 C773 1.491 . S
C768 H759 0.950 . S
C768 C767 1.398 . S
C768 C769 1.391 . S
C769 H757 0.950 . S
C769 C765 1.393 . S
C769 C768 1.391 . S
C770 H760 0.950 . S
C770 C771 1.386 . S
C770 C772 1.391 . S
C771 C770 1.386 . S
C771 C775 1.393 . S
C772 H761 0.950 . S
C772 C770 1.391 . S
C772 C773 1.400 . S
C773 C767 1.491 . S
C773 C772 1.400 . S
C773 C774 1.398 . S
C774 H762 0.950 . S
C774 C773 1.398 . S
C774 C775 1.391 . S
C775 H763 0.950 . S
C775 C771 1.393 . S
C775 C774 1.391 . S
H776 C784 0.950 . S
H777 C789 0.950 . S
H778 C786 0.950 . S
H779 C788 0.950 . S
H780 C790 0.950 . S
H781 C792 0.950 . S
H782 C794 0.950 . S
H783 C795 0.950 1_655 S
C784 H776 0.950 . S
C784 C785 1.386 . S
C784 C786 1.391 . S
C785 C784 1.386 . S
C785 C789 1.393 . S
C786 H778 0.950 . S
C786 C784 1.391 . S
C786 C787 1.400 . S
C787 C786 1.400 . S
C787 C788 1.398 . S
C787 C793 1.491 . S
C788 H779 0.950 . S
C788 C787 1.398 . S
C788 C789 1.391 . S
C789 H777 0.950 . S
C789 C785 1.393 . S
C789 C788 1.391 . S
C790 H780 0.950 . S
C790 C791 1.386 . S
C790 C792 1.391 . S
C791 C790 1.386 . S
C791 C795 1.393 . S
C792 H781 0.950 . S
C792 C790 1.391 . S
C792 C793 1.400 . S
C793 C787 1.491 . S
C793 C792 1.400 . S
C793 C794 1.398 . S
C794 H782 0.950 . S
C794 C793 1.398 . S
C794 C795 1.391 . S
C795 H783 0.950 1_455 S
C795 C791 1.393 . S
C795 C794 1.391 . S
H796 C804 0.950 1_565 S
H797 C809 0.950 . S
H798 C806 0.950 . S
H799 C808 0.950 . S
H800 C810 0.950 . S
H801 C812 0.950 . S
H802 C814 0.950 . S
H803 C815 0.950 . S
C804 H796 0.950 1_545 S
C804 C805 1.386 . S
C804 C806 1.391 . S
C805 C804 1.386 . S
C805 C809 1.393 . S
C806 H798 0.950 . S
C806 C804 1.391 . S
C806 C807 1.400 . S
C807 C806 1.400 . S
C807 C808 1.398 . S
C807 C813 1.491 . S
C808 H799 0.950 . S
C808 C807 1.398 . S
C808 C809 1.391 . S
C809 H797 0.950 . S
C809 C805 1.393 . S
C809 C808 1.391 . S
C810 H800 0.950 . S
C810 C811 1.386 . S
C810 C812 1.391 . S
C811 C810 1.386 . S
C811 C815 1.393 . S
C812 H801 0.950 . S
C812 C810 1.391 . S
C812 C813 1.400 . S
C813 C807 1.491 . S
C813 C812 1.400 . S
C813 C814 1.398 . S
C814 H802 0.950 . S
C814 C813 1.398 . S
C814 C815 1.391 . S
C815 H803 0.950 . S
C815 C811 1.393 . S
C815 C814 1.391 . S
H816 C824 0.950 . S
H817 C829 0.950 . S
H818 C826 0.950 . S
H819 C828 0.950 . S
H820 C830 0.950 . S
H821 C832 0.950 . S
H822 C834 0.950 . S
H823 C835 0.950 . S
C824 H816 0.950 . S
C824 C825 1.386 . S
C824 C826 1.391 . S
C825 C824 1.386 . S
C825 C829 1.393 . S
C826 H818 0.950 . S
C826 C824 1.391 . S
C826 C827 1.400 . S
C827 C826 1.400 . S
C827 C828 1.398 . S
C827 C833 1.491 . S
C828 H819 0.950 . S
C828 C827 1.398 . S
C828 C829 1.391 . S
C829 H817 0.950 . S
C829 C825 1.393 . S
C829 C828 1.391 . S
C830 H820 0.950 . S
C830 C831 1.386 . S
C830 C832 1.391 . S
C831 C830 1.386 . S
C831 C835 1.393 . S
C832 H821 0.950 . S
C832 C830 1.391 . S
C832 C833 1.400 . S
C833 C827 1.491 . S
C833 C832 1.400 . S
C833 C834 1.398 . S
C834 H822 0.950 . S
C834 C833 1.398 . S
C834 C835 1.391 . S
C835 H823 0.950 . S
C835 C831 1.393 . S
C835 C834 1.391 . S
H836 C844 0.950 . S
H837 C849 0.950 1_455 S
H838 C846 0.950 . S
H839 C848 0.950 . S
H840 C850 0.950 . S
H841 C852 0.950 . S
H842 C854 0.950 . S
H843 C855 0.950 . S
C844 H836 0.950 . S
C844 C845 1.386 . S
C844 C846 1.391 . S
C845 C844 1.386 . S
C845 C849 1.393 . S
C846 H838 0.950 . S
C846 C844 1.391 . S
C846 C847 1.400 . S
C847 C846 1.400 . S
C847 C848 1.398 . S
C847 C853 1.491 . S
C848 H839 0.950 . S
C848 C847 1.398 . S
C848 C849 1.391 . S
C849 H837 0.950 1_655 S
C849 C845 1.393 . S
C849 C848 1.391 . S
C850 H840 0.950 . S
C850 C851 1.386 . S
C850 C852 1.391 . S
C851 C850 1.386 . S
C851 C855 1.393 . S
C852 H841 0.950 . S
C852 C850 1.391 . S
C852 C853 1.400 . S
C853 C847 1.491 . S
C853 C852 1.400 . S
C853 C854 1.398 . S
C854 H842 0.950 . S
C854 C853 1.398 . S
C854 C855 1.391 . S
C855 H843 0.950 . S
C855 C851 1.393 . S
C855 C854 1.391 . S
H856 C864 0.944 1_545 S
H857 C869 0.950 . S
H858 C866 0.960 . S
H859 C868 0.950 . S
H860 C870 0.950 . S
H861 C872 0.950 . S
H862 C874 0.950 . S
H863 C875 0.950 . S
C864 H856 0.944 1_565 S
C864 C865 1.390 . S
C864 C866 1.392 . S
C865 C864 1.390 . S
C865 C869 1.393 . S
C866 H858 0.960 . S
C866 C864 1.392 . S
C866 C867 1.400 . S
C867 C866 1.400 . S
C867 C868 1.398 . S
C867 C873 1.491 . S
C868 H859 0.950 . S
C868 C867 1.398 . S
C868 C869 1.391 . S
C869 H857 0.950 . S
C869 C865 1.393 . S
C869 C868 1.391 . S
C870 H860 0.950 . S
C870 C871 1.386 . S
C870 C872 1.391 . S
C871 C870 1.386 . S
C871 C875 1.393 . S
C872 H861 0.950 . S
C872 C870 1.391 . S
C872 C873 1.400 . S
C873 C867 1.491 . S
C873 C872 1.400 . S
C873 C874 1.398 . S
C874 H862 0.950 . S
C874 C873 1.398 . S
C874 C875 1.391 . S
C875 H863 0.950 . S
C875 C871 1.393 . S
C875 C874 1.391 . S
H876 C884 0.950 . S
H877 C889 0.950 . S
H878 C886 0.950 . S
H879 C888 0.950 . S
H880 C890 0.950 . S
H881 C892 0.950 . S
H882 C894 0.950 . S
H883 C895 0.950 . S
C884 H876 0.950 . S
C884 C885 1.386 . S
C884 C886 1.391 . S
C885 C884 1.386 . S
C885 C889 1.393 . S
C886 H878 0.950 . S
C886 C884 1.391 . S
C886 C887 1.400 . S
C887 C886 1.400 . S
C887 C888 1.398 . S
C887 C893 1.491 . S
C888 H879 0.950 . S
C888 C887 1.398 . S
C888 C889 1.391 . S
C889 H877 0.950 . S
C889 C885 1.393 . S
C889 C888 1.391 . S
C890 H880 0.950 . S
C890 C891 1.386 . S
C890 C892 1.391 . S
C891 C890 1.386 . S
C891 C895 1.393 . S
C892 H881 0.950 . S
C892 C890 1.391 . S
C892 C893 1.400 . S
C893 C887 1.491 . S
C893 C892 1.400 . S
C893 C894 1.398 . S
C894 H882 0.950 . S
C894 C893 1.398 . S
C894 C895 1.391 . S
C895 H883 0.950 . S
C895 C891 1.393 . S
C895 C894 1.391 . S
H896 C904 0.950 . S
H897 C909 0.950 . S
H898 C906 0.950 . S
H899 C908 0.950 . S
H900 C910 0.950 . S
H901 C912 0.950 . S
H902 C914 0.950 1_655 S
H903 C915 0.950 1_655 S
C904 H896 0.950 . S
C904 C905 1.386 . S
C904 C906 1.391 . S
C905 C904 1.386 . S
C905 C909 1.393 . S
C906 H898 0.950 . S
C906 C904 1.391 . S
C906 C907 1.400 . S
C907 C906 1.400 . S
C907 C908 1.398 . S
C907 C913 1.491 . S
C908 H899 0.950 . S
C908 C907 1.398 . S
C908 C909 1.391 . S
C909 H897 0.950 . S
C909 C905 1.393 . S
C909 C908 1.391 . S
C910 H900 0.950 . S
C910 C911 1.386 . S
C910 C912 1.391 . S
C911 C910 1.386 . S
C911 C915 1.393 . S
C912 H901 0.950 . S
C912 C910 1.391 . S
C912 C913 1.400 . S
C913 C907 1.491 . S
C913 C912 1.400 . S
C913 C914 1.398 . S
C914 H902 0.950 1_455 S
C914 C913 1.398 . S
C914 C915 1.391 . S
C915 H903 0.950 1_455 S
C915 C911 1.393 . S
C915 C914 1.391 . S
H916 C924 0.950 . S
H917 C929 0.950 1_565 S
H918 C926 0.950 . S
H919 C928 0.950 . S
H920 C930 0.950 . S
H921 C932 0.950 . S
H922 C934 0.950 . S
H923 C935 0.950 . S
C924 H916 0.950 . S
C924 C925 1.386 . S
C924 C926 1.391 . S
C925 C924 1.386 . S
C925 C929 1.393 . S
C926 H918 0.950 . S
C926 C924 1.391 . S
C926 C927 1.400 . S
C927 C926 1.400 . S
C927 C928 1.398 . S
C927 C933 1.491 . S
C928 H919 0.950 . S
C928 C927 1.398 . S
C928 C929 1.391 . S
C929 H917 0.950 1_545 S
C929 C925 1.393 . S
C929 C928 1.391 . S
C930 H920 0.950 . S
C930 C931 1.386 . S
C930 C932 1.391 . S
C931 C930 1.386 . S
C931 C935 1.393 . S
C932 H921 0.950 . S
C932 C930 1.391 . S
C932 C933 1.400 . S
C933 C927 1.491 . S
C933 C932 1.400 . S
C933 C934 1.398 . S
C934 H922 0.950 . S
C934 C933 1.398 . S
C934 C935 1.391 . S
C935 H923 0.950 . S
C935 C931 1.393 . S
C935 C934 1.391 . S
H936 C944 0.950 . S
H937 C949 0.950 . S
H938 C946 0.950 . S
H939 C948 0.950 . S
H940 C950 0.950 . S
H941 C952 0.950 . S
H942 C954 0.950 . S
H943 C955 0.950 . S
C944 H936 0.950 . S
C944 C945 1.386 . S
C944 C946 1.391 . S
C945 C944 1.386 . S
C945 C949 1.393 . S
C946 H938 0.950 . S
C946 C944 1.391 . S
C946 C947 1.400 . S
C947 C946 1.400 . S
C947 C948 1.398 . S
C947 C953 1.491 . S
C948 H939 0.950 . S
C948 C947 1.398 . S
C948 C949 1.391 . S
C949 H937 0.950 . S
C949 C945 1.393 . S
C949 C948 1.391 . S
C950 H940 0.950 . S
C950 C951 1.386 . S
C950 C952 1.391 . S
C951 C950 1.386 . S
C951 C955 1.393 . S
C952 H941 0.950 . S
C952 C950 1.391 . S
C952 C953 1.400 . S
C953 C947 1.491 . S
C953 C952 1.400 . S
C953 C954 1.398 . S
C954 H942 0.950 . S
C954 C953 1.398 . S
C954 C955 1.391 . S
C955 H943 0.950 . S
C955 C951 1.393 . S
C955 C954 1.391 . S
H956 C964 0.950 . S
H957 C969 0.957 . S
H958 C966 0.950 . S
H959 C968 0.950 1_455 S
H960 C970 0.950 . S
H961 C972 0.950 . S
H962 C974 0.950 . S
H963 C975 0.950 . S
C964 H956 0.950 . S
C964 C965 1.386 . S
C964 C966 1.391 . S
C965 C964 1.386 . S
C965 C969 1.388 1_655 S
C966 H958 0.950 . S
C966 C964 1.391 . S
C966 C967 1.400 . S
C967 C966 1.400 . S
C967 C968 1.398 . S
C967 C973 1.491 . S
C968 H959 0.950 1_655 S
C968 C967 1.398 . S
C968 C969 1.389 1_655 S
C969 H957 0.957 . S
C969 C965 1.388 1_455 S
C969 C968 1.389 1_455 S
C970 H960 0.950 . S
C970 C971 1.386 . S
C970 C972 1.391 . S
C971 C970 1.386 . S
C971 C975 1.393 . S
C972 H961 0.950 . S
C972 C970 1.391 . S
C972 C973 1.400 . S
C973 C967 1.491 . S
C973 C972 1.400 . S
C973 C974 1.398 . S
C974 H962 0.950 . S
C974 C973 1.398 . S
C974 C975 1.391 . S
C975 H963 0.950 . S
C975 C971 1.393 . S
C975 C974 1.391 . S
H976 C984 0.950 . S
H977 C989 0.950 1_545 S
H978 C986 0.950 . S
H979 C988 0.950 . S
H980 C990 0.950 . S
H981 C992 0.950 . S
H982 C994 0.950 . S
H983 C995 0.950 . S
C984 H976 0.950 . S
C984 C985 1.386 . S
C984 C986 1.391 . S
C985 C984 1.386 . S
C985 C989 1.393 . S
C986 H978 0.950 . S
C986 C984 1.391 . S
C986 C987 1.400 . S
C987 C986 1.400 . S
C987 C988 1.398 . S
C987 C993 1.491 . S
C988 H979 0.950 . S
C988 C987 1.398 . S
C988 C989 1.391 . S
C989 H977 0.950 1_565 S
C989 C985 1.393 . S
C989 C988 1.391 . S
C990 H980 0.950 . S
C990 C991 1.386 . S
C990 C992 1.391 . S
C991 C990 1.386 . S
C991 C995 1.393 . S
C992 H981 0.950 . S
C992 C990 1.391 . S
C992 C993 1.400 . S
C993 C987 1.491 . S
C993 C992 1.400 . S
C993 C994 1.398 . S
C994 H982 0.950 . S
C994 C993 1.398 . S
C994 C995 1.391 . S
C995 H983 0.950 . S
C995 C991 1.393 . S
C995 C994 1.391 . S
C405 C18 1.843 . S
C411 C370 1.787 . S
C425 C51 1.843 . S
C431 C205 1.786 . S
C445 C238 1.768 . S
C451 C84 1.840 . S
C465 C271 1.778 . S
C471 C117 1.847 . S
C485 C150 1.841 . S
C491 C304 1.782 1_554 S
C505 C183 1.849 . S
C511 C337 1.786 . S
C525 C40 1.768 . S
C531 C216 1.840 . S
C545 C249 1.849 . S
C551 C73 1.784 . S
C565 C106 1.777 . S
C571 C282 1.847 . S
C585 C315 1.848 . S
C591 C139 1.786 1_556 S
C605 C348 1.846 . S
C611 C172 1.774 . S
C625 C7 1.791 . S
C631 C381 1.846 . S
C645 N200 0.412 . S
C651 N2 0.333 . S
C665 N35 0.347 . S
C671 N233 0.404 . S
C685 N68 0.404 . S
C691 N266 0.336 . S
C705 N101 0.341 . S
C711 N299 0.399 . S
C725 N332 0.356 . S
C731 N134 0.385 . S
C745 N365 0.410 . S
C751 N167 0.331 . S
C765 C186 1.088 . S
C771 N13 1.088 . S
C785 C21 1.096 . S
C791 N46 1.094 . S
C805 N79 1.093 . S
C811 C54 1.095 . S
C825 N112 1.084 . S
C831 C87 1.079 . S
C845 N145 1.108 . S
C851 C120 1.061 . S
C865 N178 1.085 . S
C871 C153 1.064 . S
C885 N211 1.119 . S
C891 C252 1.095 . S
C905 C285 1.092 . S
C911 N244 1.090 . S
C925 N277 1.121 . S
C931 C318 1.090 . S
C945 N310 1.117 . S
C951 C351 1.099 . S
C965 N343 1.114 . S
C971 C384 1.068 . S
C985 N376 1.106 . S
C991 C219 1.059 . S
