# Generated by pormake.
# Topology zfc, (5)-cn, num edge types: 1
# Building blocks:
#     Node 0, Type 0, BuildingBlock: XOMCOT_clean_sbu_0, # of connection points: 5
#     Node 1, Type 0, BuildingBlock: XOMCOT_clean_sbu_0, # of connection points: 5
#     Node 2, Type 0, BuildingBlock: XOMCOT_clean_sbu_0, # of connection points: 5
#     Node 3, Type 0, BuildingBlock: XOMCOT_clean_sbu_0, # of connection points: 5
#     Node 4, Type 0, BuildingBlock: XOMCOT_clean_sbu_0, # of connection points: 5
#     Node 5, Type 0, BuildingBlock: XOMCOT_clean_sbu_0, # of connection points: 5
#     Node 6, Type 0, BuildingBlock: XOMCOT_clean_sbu_0, # of connection points: 5
#     Node 7, Type 0, BuildingBlock: XOMCOT_clean_sbu_0, # of connection points: 5
#     Node 8, Type 0, BuildingBlock: XOMCOT_clean_sbu_0, # of connection points: 5
#     Node 9, Type 0, BuildingBlock: XOMCOT_clean_sbu_0, # of connection points: 5
#     Node 10, Type 0, BuildingBlock: XOMCOT_clean_sbu_0, # of connection points: 5
#     Node 11, Type 0, BuildingBlock: XOMCOT_clean_sbu_0, # of connection points: 5
#     Node 12, Type 0, BuildingBlock: XOMCOT_clean_sbu_0, # of connection points: 5
#     Node 13, Type 0, BuildingBlock: XOMCOT_clean_sbu_0, # of connection points: 5
#     Node 14, Type 0, BuildingBlock: XOMCOT_clean_sbu_0, # of connection points: 5
#     Node 15, Type 0, BuildingBlock: XOMCOT_clean_sbu_0, # of connection points: 5
#     Edge 16, Type (0, 0), BuildingBlock: KIFKEQ_clean_linker_1, # of connection points: 2
#     Edge 17, Type (0, 0), BuildingBlock: KIFKEQ_clean_linker_1, # of connection points: 2
#     Edge 18, Type (0, 0), BuildingBlock: KIFKEQ_clean_linker_1, # of connection points: 2
#     Edge 19, Type (0, 0), BuildingBlock: KIFKEQ_clean_linker_1, # of connection points: 2
#     Edge 20, Type (0, 0), BuildingBlock: KIFKEQ_clean_linker_1, # of connection points: 2
#     Edge 21, Type (0, 0), BuildingBlock: KIFKEQ_clean_linker_1, # of connection points: 2
#     Edge 22, Type (0, 0), BuildingBlock: KIFKEQ_clean_linker_1, # of connection points: 2
#     Edge 23, Type (0, 0), BuildingBlock: KIFKEQ_clean_linker_1, # of connection points: 2
#     Edge 24, Type (0, 0), BuildingBlock: KIFKEQ_clean_linker_1, # of connection points: 2
#     Edge 25, Type (0, 0), BuildingBlock: KIFKEQ_clean_linker_1, # of connection points: 2
#     Edge 26, Type (0, 0), BuildingBlock: KIFKEQ_clean_linker_1, # of connection points: 2
#     Edge 27, Type (0, 0), BuildingBlock: KIFKEQ_clean_linker_1, # of connection points: 2
#     Edge 28, Type (0, 0), BuildingBlock: KIFKEQ_clean_linker_1, # of connection points: 2
#     Edge 29, Type (0, 0), BuildingBlock: KIFKEQ_clean_linker_1, # of connection points: 2
#     Edge 30, Type (0, 0), BuildingBlock: KIFKEQ_clean_linker_1, # of connection points: 2
#     Edge 31, Type (0, 0), BuildingBlock: KIFKEQ_clean_linker_1, # of connection points: 2
#     Edge 32, Type (0, 0), BuildingBlock: KIFKEQ_clean_linker_1, # of connection points: 2
#     Edge 33, Type (0, 0), BuildingBlock: KIFKEQ_clean_linker_1, # of connection points: 2
#     Edge 34, Type (0, 0), BuildingBlock: KIFKEQ_clean_linker_1, # of connection points: 2
#     Edge 35, Type (0, 0), BuildingBlock: KIFKEQ_clean_linker_1, # of connection points: 2
#     Edge 36, Type (0, 0), BuildingBlock: KIFKEQ_clean_linker_1, # of connection points: 2
#     Edge 37, Type (0, 0), BuildingBlock: KIFKEQ_clean_linker_1, # of connection points: 2
#     Edge 38, Type (0, 0), BuildingBlock: KIFKEQ_clean_linker_1, # of connection points: 2
#     Edge 39, Type (0, 0), BuildingBlock: KIFKEQ_clean_linker_1, # of connection points: 2
#     Edge 40, Type (0, 0), BuildingBlock: KIFKEQ_clean_linker_1, # of connection points: 2
#     Edge 41, Type (0, 0), BuildingBlock: KIFKEQ_clean_linker_1, # of connection points: 2
#     Edge 42, Type (0, 0), BuildingBlock: KIFKEQ_clean_linker_1, # of connection points: 2
#     Edge 43, Type (0, 0), BuildingBlock: KIFKEQ_clean_linker_1, # of connection points: 2
#     Edge 44, Type (0, 0), BuildingBlock: KIFKEQ_clean_linker_1, # of connection points: 2
#     Edge 45, Type (0, 0), BuildingBlock: KIFKEQ_clean_linker_1, # of connection points: 2
#     Edge 46, Type (0, 0), BuildingBlock: KIFKEQ_clean_linker_1, # of connection points: 2
#     Edge 47, Type (0, 0), BuildingBlock: KIFKEQ_clean_linker_1, # of connection points: 2
#     Edge 48, Type (0, 0), BuildingBlock: KIFKEQ_clean_linker_1, # of connection points: 2
#     Edge 49, Type (0, 0), BuildingBlock: KIFKEQ_clean_linker_1, # of connection points: 2
#     Edge 50, Type (0, 0), BuildingBlock: KIFKEQ_clean_linker_1, # of connection points: 2
#     Edge 51, Type (0, 0), BuildingBlock: KIFKEQ_clean_linker_1, # of connection points: 2
#     Edge 52, Type (0, 0), BuildingBlock: KIFKEQ_clean_linker_1, # of connection points: 2
#     Edge 53, Type (0, 0), BuildingBlock: KIFKEQ_clean_linker_1, # of connection points: 2
#     Edge 54, Type (0, 0), BuildingBlock: KIFKEQ_clean_linker_1, # of connection points: 2
#     Edge 55, Type (0, 0), BuildingBlock: KIFKEQ_clean_linker_1, # of connection points: 2
# Relax obj value: 0.131
# Max RMSD: 0.149
# Mean RMSD: 0.149
data_MOF--net-zfc--node1-XOMCOT_clean_sbu_0--edge1-KIFKEQ_clean_linker_1
_symmetry_space_group_name_H-M    P1
_symmetry_Int_Tables_number       1
_symmetry_cell_setting            triclinic
loop_
_symmetry_equiv_pos_as_xyz
'x, y, z'
_cell_length_a     76.224731
_cell_length_b     76.254619
_cell_length_c     17.825739
_cell_angle_alpha  90.057741
_cell_angle_beta   89.951917
_cell_angle_gamma 90.010233
loop_
_atom_site_label
_atom_site_type_symbol
_atom_site_fract_x
_atom_site_fract_y
_atom_site_fract_z
_atom_type_partial_charge
Co0 Co 0.27304 0.09214 0.07603 0.0
C1 C 0.27516 0.09451 0.90835 0.0
C2 C 0.30033 0.09211 0.96066 0.0
C3 C 0.30269 0.09225 0.88417 0.0
N4 N 0.28309 0.09385 0.97604 0.0
N5 N 0.28684 0.09371 0.85136 0.0
H6 H 0.2612 0.0952 0.9001 0.0
H7 H 0.31048 0.09048 1.00246 0.0
C8 C 0.29694 0.12294 0.08142 0.0
O9 O 0.29058 0.12736 0.01558 0.0
N10 N 0.26338 0.08994 0.17547 0.0
C11 C 0.24644 0.087 0.19265 0.0
C12 C 0.2447 0.0869 0.26946 0.0
C13 C 0.27178 0.09148 0.24164 0.0
N14 N 0.26064 0.08974 0.30023 0.0
C15 C 0.24191 0.10749 0.01246 0.0
C16 C 0.24358 0.13882 0.08989 0.0
C17 C 0.22942 0.136 0.0411 0.0
C18 C 0.22863 0.11992 1.00282 0.0
C19 C 0.25635 0.12589 0.09902 0.0
N20 N 0.25603 0.11082 0.05739 0.0
H21 H 0.2404 0.09488 0.98584 0.0
H22 H 0.26611 0.12791 0.14183 0.0
H23 H 0.23605 0.08518 0.15208 0.0
H24 H 0.28568 0.09413 0.2467 0.0
O25 O 0.25928 0.07231 0.0437 0.0
O26 O 0.28618 0.07069 0.0903 0.0
O27 O 0.29116 0.10926 0.11482 0.0
C28 C 0.27261 0.06263 0.06229 0.0
H29 H 0.31506 0.09073 0.85502 0.0
H30 H 0.23265 0.08473 0.30019 0.0
H31 H 0.2448 0.15084 0.12182 0.0
H32 H 0.21756 0.11663 0.9675 0.0
Co33 Co 0.90313 0.26878 0.0816 0.0
C34 C 0.90136 0.27093 0.91654 0.0
C35 C 0.89541 0.29572 0.96782 0.0
C36 C 0.89488 0.29768 0.89095 0.0
N37 N 0.89939 0.27893 0.98358 0.0
N38 N 0.89869 0.28209 0.85873 0.0
H39 H 0.90472 0.25722 0.91048 0.0
H40 H 0.89339 0.3059 1.00921 0.0
C41 C 0.87238 0.2814 0.1694 0.0
O42 O 0.86992 0.26498 0.18922 0.0
N43 N 0.90756 0.2589 0.18132 0.0
C44 C 0.9156 0.24363 0.19836 0.0
C45 C 0.9172 0.24225 0.27499 0.0
C46 C 0.90552 0.26704 0.24843 0.0
N47 N 0.91072 0.25693 0.30664 0.0
C48 C 0.88942 0.23397 0.05876 0.0
C49 C 0.85608 0.24411 0.01638 0.0
C50 C 0.85983 0.22618 0.02284 0.0
C51 C 0.87689 0.22119 0.0427 0.0
C52 C 0.86904 0.25647 0.03303 0.0
N53 N 0.88519 0.25134 0.05835 0.0
H54 H 0.90264 0.22981 0.06924 0.0
H55 H 0.86602 0.27022 0.02627 0.0
H56 H 0.92094 0.23442 0.15854 0.0
H57 H 0.90051 0.2802 0.25476 0.0
O58 O 0.9232 0.25648 0.04275 0.0
O59 O 0.92394 0.28307 0.09334 0.0
O60 O 0.88514 0.2854 0.12593 0.0
C61 C 0.93237 0.27016 0.06161 0.0
H62 H 0.89243 0.3098 0.86121 0.0
H63 H 0.92328 0.23149 0.30481 0.0
H64 H 0.84318 0.2486 0.9997 0.0
H65 H 0.88064 0.2075 0.04451 0.0
Co66 Co 0.72487 0.9043 0.10465 0.0
C67 C 0.72309 0.90228 0.93938 0.0
C68 C 0.69849 0.8954 0.99025 0.0
C69 C 0.6966 0.89478 0.91341 0.0
N70 N 0.71512 0.90001 1.00627 0.0
N71 N 0.71206 0.89917 0.88147 0.0
H72 H 0.73667 0.90621 0.93348 0.0
H73 H 0.68834 0.89307 0.03144 0.0
C74 C 0.71284 0.87357 0.19318 0.0
O75 O 0.72917 0.87186 0.21577 0.0
N76 N 0.73429 0.9094 0.20471 0.0
C77 C 0.74906 0.91838 0.22161 0.0
C78 C 0.75033 0.92024 0.29811 0.0
C79 C 0.72622 0.90713 0.27182 0.0
N80 N 0.73602 0.913 0.32986 0.0
C81 C 0.76017 0.89072 0.0894 0.0
C82 C 0.75039 0.85763 0.04174 0.0
C83 C 0.76819 0.86124 0.05307 0.0
C84 C 0.77307 0.87809 0.07617 0.0
C85 C 0.73791 0.87056 0.05686 0.0
N86 N 0.74279 0.88664 0.08389 0.0
H87 H 0.76429 0.90383 0.10219 0.0
H88 H 0.72424 0.86756 0.04741 0.0
H89 H 0.75797 0.92416 0.1816 0.0
H90 H 0.71333 0.90147 0.27831 0.0
O91 O 0.73683 0.92462 0.06612 0.0
O92 O 0.70988 0.92463 0.11406 0.0
O93 O 0.70863 0.88594 0.14824 0.0
C94 C 0.72275 0.93334 0.08363 0.0
H95 H 0.68459 0.89191 0.8835 0.0
H96 H 0.76073 0.92696 0.3278 0.0
H97 H 0.74611 0.84484 0.02255 0.0
H98 H 0.78677 0.88158 0.08245 0.0
Co99 Co 0.09087 0.7201 0.08465 0.0
C100 C 0.09343 0.7181 0.91682 0.0
C101 C 0.09357 0.69287 0.96938 0.0
C102 C 0.09375 0.69048 0.89289 0.0
N103 N 0.09377 0.7102 0.98468 0.0
N104 N 0.09362 0.70637 0.85991 0.0
H105 H 0.09251 0.73201 0.90837 0.0
H106 H 0.09282 0.68263 0.01121 0.0
C107 C 0.1226 0.69769 0.09492 0.0
O108 O 0.12743 0.70466 0.03072 0.0
N109 N 0.08746 0.72953 0.18398 0.0
C110 C 0.08353 0.74628 0.20099 0.0
C111 C 0.08305 0.74799 0.2778 0.0
C112 C 0.08924 0.72123 0.25028 0.0
N113 N 0.0867 0.73225 0.30878 0.0
C114 C 0.10652 0.75118 0.02156 0.0
C115 C 0.13628 0.75102 0.10988 0.0
C116 C 0.13422 0.76438 0.05676 0.0
C117 C 0.11897 0.76447 0.01289 0.0
C118 C 0.1235 0.73802 0.11665 0.0
N119 N 0.10929 0.73757 0.0698 0.0
H120 H 0.09433 0.75232 0.99149 0.0
H121 H 0.12483 0.72866 0.16164 0.0
H122 H 0.08138 0.75657 0.16031 0.0
H123 H 0.09273 0.70754 0.25551 0.0
O124 O 0.07109 0.73345 0.04935 0.0
O125 O 0.06958 0.70644 0.09481 0.0
O126 O 0.10819 0.70245 0.12567 0.0
C127 C 0.06151 0.71989 0.06589 0.0
H128 H 0.09326 0.67801 0.86392 0.0
H129 H 0.08018 0.75992 0.30834 0.0
H130 H 0.14738 0.75092 0.14776 0.0
H131 H 0.11654 0.77481 0.97258 0.0
Co132 Co 0.26809 0.90316 0.94287 0.0
C133 C 0.27055 0.90176 0.10815 0.0
C134 C 0.29497 0.89484 0.05593 0.0
C135 C 0.29711 0.89436 0.13266 0.0
N136 N 0.27832 0.89943 0.04079 0.0
N137 N 0.28175 0.89878 0.16568 0.0
H138 H 0.25708 0.90596 0.11448 0.0
H139 H 0.30495 0.89222 0.01422 0.0
C140 C 0.28076 0.87277 0.85294 0.0
O141 O 0.2644 0.87053 0.83173 0.0
N142 N 0.25819 0.90747 0.84325 0.0
C143 C 0.24231 0.91406 0.82518 0.0
C144 C 0.24118 0.91575 0.74848 0.0
C145 C 0.26679 0.90632 0.77689 0.0
N146 N 0.25656 0.91074 0.71787 0.0
C147 C 0.23335 0.88967 0.9702 0.0
C148 C 0.24344 0.85574 1.00294 0.0
C149 C 0.22549 0.85967 0.99905 0.0
C150 C 0.22054 0.87704 0.98461 0.0
C151 C 0.2558 0.86882 0.98823 0.0
N152 N 0.25066 0.88524 0.96659 0.0
H153 H 0.22929 0.90307 0.96403 0.0
H154 H 0.26955 0.86564 0.99332 0.0
H155 H 0.23233 0.91818 0.86417 0.0
H156 H 0.28044 0.90265 0.77198 0.0
O157 O 0.25586 0.92334 0.98132 0.0
O158 O 0.28245 0.92388 0.93058 0.0
O159 O 0.28467 0.8852 0.89829 0.0
C160 C 0.26959 0.93242 0.96214 0.0
H161 H 0.30911 0.89097 0.16155 0.0
H162 H 0.22982 0.92035 0.71795 0.0
H163 H 0.24793 0.84262 0.01585 0.0
H164 H 0.20687 0.88092 0.9855 0.0
Co165 Co 0.09201 0.27179 0.94347 0.0
C166 C 0.0953 0.27401 0.11083 0.0
C167 C 0.09131 0.29899 0.05882 0.0
C168 C 0.09143 0.30131 0.13527 0.0
N169 N 0.09391 0.28188 0.04327 0.0
N170 N 0.09392 0.28558 0.16818 0.0
H171 H 0.09687 0.26013 0.11844 0.0
H172 H 0.08896 0.30902 0.01719 0.0
C173 C 0.12271 0.29584 0.93739 0.0
O174 O 0.12715 0.28974 1.00364 0.0
N175 N 0.08962 0.26209 0.84425 0.0
C176 C 0.0856 0.24536 0.82717 0.0
C177 C 0.08491 0.24373 0.75034 0.0
C178 C 0.09137 0.27043 0.77806 0.0
N179 N 0.08857 0.25948 0.71967 0.0
C180 C 0.10714 0.24049 1.00618 0.0
C181 C 0.13883 0.24244 0.93131 0.0
C182 C 0.1358 0.2284 0.97994 0.0
C183 C 0.11961 0.22729 0.01661 0.0
C184 C 0.12585 0.25512 0.92119 0.0
N185 N 0.11062 0.2547 0.96187 0.0
H186 H 0.09449 0.23903 0.03264 0.0
H187 H 0.12796 0.26488 0.87844 0.0
H188 H 0.08337 0.23507 0.86779 0.0
H189 H 0.09434 0.28425 0.77272 0.0
O190 O 0.0721 0.25821 0.97657 0.0
O191 O 0.07062 0.28505 0.92942 0.0
O192 O 0.10913 0.28981 0.90406 0.0
C193 C 0.06249 0.2716 0.95796 0.0
H194 H 0.08913 0.31359 0.16406 0.0
H195 H 0.08218 0.23182 0.7194 0.0
H196 H 0.1509 0.24326 0.89932 0.0
H197 H 0.11661 0.2163 0.05291 0.0
Co198 Co 0.72175 0.09077 0.92607 0.0
C199 C 0.72011 0.09337 0.09363 0.0
C200 C 0.69537 0.09853 0.04166 0.0
C201 C 0.69309 0.09886 0.11817 0.0
N202 N 0.71244 0.09562 0.02589 0.0
N203 N 0.70867 0.09558 0.15088 0.0
H204 H 0.7335 0.08933 0.10148 0.0
H205 H 0.68504 0.09955 1.00035 0.0
C206 C 0.70099 0.12346 0.90342 0.0
O207 O 0.70896 0.1301 0.96233 0.0
N208 N 0.73057 0.08552 0.82695 0.0
C209 C 0.74686 0.07992 0.81033 0.0
C210 C 0.7485 0.07884 0.7336 0.0
C211 C 0.72247 0.08773 0.76036 0.0
N212 N 0.73318 0.08384 0.70211 0.0
C213 C 0.75283 0.10692 0.98669 0.0
C214 C 0.7542 0.13455 0.88674 0.0
C215 C 0.76679 0.13361 0.94382 0.0
C216 C 0.76617 0.11936 0.99337 0.0
C217 C 0.74113 0.12177 0.88205 0.0
N218 N 0.73987 0.10875 0.93455 0.0
H219 H 0.75338 0.09551 0.02189 0.0
H220 H 0.73214 0.12228 0.83535 0.0
H221 H 0.75698 0.07716 0.85117 0.0
H222 H 0.70922 0.09262 0.75464 0.0
O223 O 0.73468 0.0711 0.96509 0.0
O224 O 0.70725 0.06998 0.9233 0.0
O225 O 0.7045 0.1079 0.88141 0.0
C226 C 0.72068 0.06186 0.95206 0.0
H227 H 0.68072 0.10048 0.14726 0.0
H228 H 0.76013 0.07474 0.70353 0.0
H229 H 0.75466 0.14486 0.84503 0.0
H230 H 0.7759 0.11779 0.03706 0.0
Co231 Co 0.90308 0.72453 0.92393 0.0
C232 C 0.90063 0.72287 0.0891 0.0
C233 C 0.89355 0.69832 0.0384 0.0
C234 C 0.89285 0.6965 0.11529 0.0
N235 N 0.89835 0.71488 0.02222 0.0
N236 N 0.89739 0.71192 0.14714 0.0
H237 H 0.90473 0.73639 0.09492 0.0
H238 H 0.89119 0.68815 0.99732 0.0
C239 C 0.87275 0.71231 0.83309 0.0
O240 O 0.871 0.72863 0.81068 0.0
N241 N 0.90861 0.73386 0.82405 0.0
C242 C 0.91763 0.74861 0.80741 0.0
C243 C 0.9196 0.74988 0.7309 0.0
C244 C 0.90646 0.72579 0.75685 0.0
N245 N 0.91239 0.73558 0.69891 0.0
C246 C 0.88942 0.75976 0.93738 0.0
C247 C 0.85611 0.75013 0.98277 0.0
C248 C 0.85984 0.76791 0.97152 0.0
C249 C 0.8768 0.7727 0.94955 0.0
C250 C 0.86906 0.73759 0.96872 0.0
N251 N 0.88527 0.7424 0.94284 0.0
H252 H 0.9026 0.76382 0.92556 0.0
H253 H 0.86598 0.72394 0.97809 0.0
H254 H 0.9233 0.75754 0.84761 0.0
H255 H 0.90082 0.7129 0.75017 0.0
O256 O 0.92308 0.73659 0.96466 0.0
O257 O 0.92364 0.70975 0.91642 0.0
O258 O 0.88499 0.70815 0.87883 0.0
C259 C 0.93209 0.72261 0.94836 0.0
H260 H 0.88987 0.68453 0.14531 0.0
H261 H 0.92632 0.7603 0.70141 0.0
H262 H 0.84323 0.74594 1.00117 0.0
H263 H 0.88039 0.78638 0.94345 0.0
Co264 Co 0.77102 0.59145 0.57945 0.0
C265 C 0.77288 0.59403 0.41176 0.0
C266 C 0.79815 0.59454 0.46414 0.0
C267 C 0.8005 0.59485 0.38766 0.0
N268 N 0.78082 0.59437 0.4795 0.0
N269 N 0.78459 0.59449 0.35478 0.0
H270 H 0.75895 0.593 0.4035 0.0
H271 H 0.80842 0.59398 0.50591 0.0
C272 C 0.79248 0.62385 0.58848 0.0
O273 O 0.785 0.62858 0.52524 0.0
N274 N 0.76167 0.58811 0.67887 0.0
C275 C 0.745 0.58384 0.69595 0.0
C276 C 0.74328 0.58349 0.77274 0.0
C277 C 0.76993 0.59021 0.74512 0.0
N278 N 0.75894 0.58754 0.80364 0.0
C279 C 0.73931 0.60572 0.51651 0.0
C280 C 0.73911 0.63639 0.5989 0.0
C281 C 0.72558 0.63353 0.54695 0.0
C282 C 0.72565 0.61771 0.50665 0.0
C283 C 0.75226 0.62386 0.60813 0.0
N284 N 0.75298 0.60928 0.56351 0.0
H285 H 0.73844 0.59326 0.48825 0.0
H286 H 0.76167 0.62584 0.6525 0.0
H287 H 0.73477 0.58137 0.65531 0.0
H288 H 0.78355 0.59401 0.7503 0.0
O289 O 0.75821 0.5712 0.54514 0.0
O290 O 0.78526 0.57058 0.59063 0.0
O291 O 0.78832 0.6093 0.6194 0.0
C292 C 0.77203 0.56205 0.56213 0.0
H293 H 0.81297 0.59465 0.3586 0.0
H294 H 0.73142 0.5804 0.80336 0.0
H295 H 0.73963 0.64817 0.63271 0.0
H296 H 0.71501 0.61431 0.46918 0.0
Co297 Co 0.40347 0.77407 0.59438 0.0
C298 C 0.40008 0.77599 0.42666 0.0
C299 C 0.40172 0.80116 0.47943 0.0
C300 C 0.40154 0.80357 0.40309 0.0
N301 N 0.40058 0.78388 0.49452 0.0
N302 N 0.40053 0.78771 0.3697 0.0
H303 H 0.39993 0.76206 0.41848 0.0
H304 H 0.4032 0.81132 0.52136 0.0
C305 C 0.37156 0.79625 0.6027 0.0
O306 O 0.36702 0.78921 0.53824 0.0
N307 N 0.40688 0.76479 0.69369 0.0
C308 C 0.41195 0.74836 0.71088 0.0
C309 C 0.41295 0.7469 0.78767 0.0
C310 C 0.4048 0.77312 0.75979 0.0
N311 N 0.40841 0.76245 0.81817 0.0
C312 C 0.38843 0.74261 0.53186 0.0
C313 C 0.35832 0.74274 0.61813 0.0
C314 C 0.36061 0.72935 0.56514 0.0
C315 C 0.37607 0.72926 0.52244 0.0
C316 C 0.37099 0.75583 0.62548 0.0
N317 N 0.38535 0.75631 0.57944 0.0
H318 H 0.40073 0.74159 0.50228 0.0
H319 H 0.36941 0.76527 0.67011 0.0
H320 H 0.41461 0.73814 0.67035 0.0
H321 H 0.40094 0.78672 0.76508 0.0
O322 O 0.42356 0.76096 0.56002 0.0
O323 O 0.42446 0.78814 0.60463 0.0
O324 O 0.38583 0.79154 0.6346 0.0
C325 C 0.4328 0.77475 0.57662 0.0
H326 H 0.40285 0.81603 0.37476 0.0
H327 H 0.41643 0.73522 0.81873 0.0
H328 H 0.34707 0.74285 0.65529 0.0
H329 H 0.3787 0.71893 0.48224 0.0
Co330 Co 0.22359 0.40388 0.59004 0.0
C331 C 0.22129 0.40218 0.42467 0.0
C332 C 0.19706 0.39456 0.4767 0.0
C333 C 0.19499 0.39395 0.39999 0.0
N334 N 0.21357 0.39965 0.49197 0.0
N335 N 0.21021 0.39883 0.36703 0.0
H336 H 0.23463 0.4068 0.41854 0.0
H337 H 0.18714 0.39171 0.5183 0.0
C338 C 0.21125 0.37329 0.67883 0.0
O339 O 0.22771 0.37115 0.69889 0.0
N340 N 0.2332 0.40883 0.68985 0.0
C341 C 0.24814 0.41742 0.7074 0.0
C342 C 0.24925 0.41926 0.78405 0.0
C343 C 0.22492 0.40676 0.75655 0.0
N344 N 0.23466 0.4124 0.81518 0.0
C345 C 0.25855 0.38965 0.57487 0.0
C346 C 0.24829 0.3566 0.52871 0.0
C347 C 0.26611 0.35988 0.54141 0.0
C348 C 0.27124 0.37675 0.56331 0.0
C349 C 0.23601 0.36984 0.54212 0.0
N350 N 0.24112 0.38586 0.56899 0.0
H351 H 0.26287 0.40273 0.587 0.0
H352 H 0.2223 0.36706 0.53236 0.0
H353 H 0.25734 0.4229 0.66781 0.0
H354 H 0.2117 0.40184 0.76211 0.0
O355 O 0.2359 0.42379 0.55025 0.0
O356 O 0.20917 0.42466 0.59967 0.0
O357 O 0.20706 0.38593 0.63514 0.0
C358 C 0.22214 0.43299 0.5679 0.0
H359 H 0.18308 0.39021 0.37117 0.0
H360 H 0.25997 0.42532 0.81413 0.0
H361 H 0.24384 0.34381 0.51021 0.0
H362 H 0.28497 0.38 0.57028 0.0
Co363 Co 0.59224 0.22357 0.57239 0.0
C364 C 0.59523 0.22178 0.40505 0.0
C365 C 0.59621 0.19649 0.45691 0.0
C366 C 0.59656 0.19423 0.38035 0.0
N367 N 0.59577 0.21379 0.47267 0.0
N368 N 0.59588 0.21016 0.34776 0.0
H369 H 0.59375 0.23568 0.39719 0.0
H370 H 0.59568 0.18616 0.49837 0.0
C371 C 0.62384 0.20083 0.58852 0.0
O372 O 0.62998 0.20783 0.52647 0.0
N373 N 0.58834 0.23294 0.67158 0.0
C374 C 0.5841 0.24962 0.68833 0.0
C375 C 0.58353 0.25139 0.76513 0.0
C376 C 0.59022 0.22473 0.73808 0.0
N377 N 0.58744 0.23574 0.79642 0.0
C378 C 0.60807 0.25477 0.51154 0.0
C379 C 0.63808 0.25392 0.5981 0.0
C380 C 0.63614 0.26749 0.54565 0.0
C381 C 0.62064 0.26796 0.5032 0.0
C382 C 0.62499 0.24125 0.60573 0.0
N383 N 0.61074 0.24103 0.55922 0.0
H384 H 0.59587 0.25606 0.48163 0.0
H385 H 0.62629 0.23181 0.65041 0.0
H386 H 0.58186 0.25986 0.6475 0.0
H387 H 0.59402 0.21112 0.7436 0.0
O388 O 0.57256 0.23689 0.53541 0.0
O389 O 0.57101 0.20985 0.58059 0.0
O390 O 0.60907 0.20578 0.61509 0.0
C391 C 0.56298 0.22327 0.55135 0.0
H392 H 0.59648 0.18179 0.35106 0.0
H393 H 0.58045 0.2633 0.79544 0.0
H394 H 0.64956 0.25299 0.63351 0.0
H395 H 0.61792 0.27868 0.46518 0.0
Co396 Co 0.77408 0.40249 0.44261 0.0
C397 C 0.77648 0.40083 0.61032 0.0
C398 C 0.80163 0.40119 0.55686 0.0
C399 C 0.80412 0.40121 0.63325 0.0
N400 N 0.78429 0.40054 0.54225 0.0
N401 N 0.78827 0.40102 0.66701 0.0
H402 H 0.76255 0.40184 0.61878 0.0
H403 H 0.8118 0.40185 0.51461 0.0
C404 C 0.7975 0.3713 0.43427 0.0
O405 O 0.79122 0.36671 0.50009 0.0
N406 N 0.7643 0.4049 0.34352 0.0
C407 C 0.74726 0.40708 0.32644 0.0
C408 C 0.74561 0.40768 0.24964 0.0
C409 C 0.77284 0.40431 0.27734 0.0
N410 N 0.76171 0.40594 0.21862 0.0
C411 C 0.74311 0.38734 0.50849 0.0
C412 C 0.7442 0.35597 0.43092 0.0
C413 C 0.73054 0.35895 0.48163 0.0
C414 C 0.72986 0.37497 0.51973 0.0
C415 C 0.75694 0.36888 0.42002 0.0
N416 N 0.75694 0.38395 0.46187 0.0
H417 H 0.74178 0.39995 0.53523 0.0
H418 H 0.76638 0.36689 0.37579 0.0
H419 H 0.73673 0.40793 0.367 0.0
H420 H 0.78691 0.40281 0.27262 0.0
O421 O 0.76054 0.42237 0.4759 0.0
O422 O 0.78739 0.42386 0.42844 0.0
O423 O 0.79192 0.38523 0.40228 0.0
C424 C 0.77393 0.43198 0.45718 0.0
H425 H 0.81669 0.40148 0.66136 0.0
H426 H 0.7334 0.4089 0.21928 0.0
H427 H 0.74466 0.34404 0.3979 0.0
H428 H 0.7191 0.37795 0.55742 0.0
Co429 Co 0.59109 0.77125 0.43356 0.0
C430 C 0.59444 0.773 0.60116 0.0
C431 C 0.59362 0.79824 0.5488 0.0
C432 C 0.59395 0.8006 0.62516 0.0
N433 N 0.59413 0.78094 0.5335 0.0
N434 N 0.59445 0.78471 0.6583 0.0
H435 H 0.59416 0.75905 0.60899 0.0
H436 H 0.5925 0.80846 0.50703 0.0
C437 C 0.62379 0.79225 0.42631 0.0
O438 O 0.62827 0.78464 0.48959 0.0
N439 N 0.58761 0.76209 0.33407 0.0
C440 C 0.58208 0.74581 0.31671 0.0
C441 C 0.58111 0.74435 0.23991 0.0
C442 C 0.59002 0.77033 0.26807 0.0
N443 N 0.58614 0.75976 0.20958 0.0
C444 C 0.60474 0.73918 0.49573 0.0
C445 C 0.63582 0.73902 0.41585 0.0
C446 C 0.63268 0.72571 0.46797 0.0
C447 C 0.61672 0.72556 0.50672 0.0
C448 C 0.6233 0.75212 0.40534 0.0
N449 N 0.60857 0.75288 0.44917 0.0
H450 H 0.59221 0.73846 0.52369 0.0
H451 H 0.62543 0.76148 0.36092 0.0
H452 H 0.57904 0.73568 0.35713 0.0
H453 H 0.59429 0.78381 0.26292 0.0
O454 O 0.57051 0.75878 0.46694 0.0
O455 O 0.57057 0.78599 0.4227 0.0
O456 O 0.60928 0.78827 0.3945 0.0
C457 C 0.56175 0.77286 0.45018 0.0
H458 H 0.59312 0.8131 0.65368 0.0
H459 H 0.5773 0.73278 0.20874 0.0
H460 H 0.64767 0.73905 0.38223 0.0
H461 H 0.61359 0.71506 0.5454 0.0
Co462 Co 0.22538 0.59209 0.44344 0.0
C463 C 0.22336 0.59404 0.60853 0.0
C464 C 0.19863 0.60035 0.55764 0.0
C465 C 0.19671 0.60093 0.63454 0.0
N466 N 0.21536 0.5961 0.54162 0.0
N467 N 0.21226 0.5969 0.66651 0.0
H468 H 0.23702 0.59044 0.61438 0.0
H469 H 0.18846 0.60249 0.51643 0.0
C470 C 0.21296 0.62289 0.35556 0.0
O471 O 0.22936 0.62521 0.33488 0.0
N472 N 0.23513 0.58741 0.34361 0.0
C473 C 0.25031 0.57919 0.32647 0.0
C474 C 0.25168 0.57754 0.24984 0.0
C475 C 0.22703 0.58953 0.27656 0.0
N476 N 0.23708 0.5842 0.21828 0.0
C477 C 0.26043 0.60536 0.46534 0.0
C478 C 0.25075 0.63901 0.50524 0.0
C479 C 0.26864 0.63504 0.4983 0.0
C480 C 0.27339 0.61781 0.47992 0.0
C481 C 0.23821 0.6261 0.4904 0.0
N482 N 0.2431 0.60981 0.46593 0.0
H483 H 0.26441 0.59205 0.45566 0.0
H484 H 0.22451 0.62932 0.49754 0.0
H485 H 0.25947 0.57378 0.36625 0.0
H486 H 0.21393 0.59472 0.27032 0.0
O487 O 0.23739 0.57188 0.48226 0.0
O488 O 0.21074 0.57152 0.43227 0.0
O489 O 0.20895 0.61021 0.39933 0.0
C490 C 0.22353 0.56292 0.46382 0.0
H491 H 0.18463 0.60357 0.66446 0.0
H492 H 0.26238 0.57135 0.21994 0.0
H493 H 0.2464 0.65204 0.52074 0.0
H494 H 0.28704 0.61387 0.47796 0.0
Co495 Co 0.40378 0.22561 0.42583 0.0
C496 C 0.40227 0.22324 0.59118 0.0
C497 C 0.39503 0.1989 0.53912 0.0
C498 C 0.39445 0.19681 0.61583 0.0
N499 N 0.39986 0.21548 0.52389 0.0
N500 N 0.39909 0.21211 0.64881 0.0
H501 H 0.40666 0.23665 0.59732 0.0
H502 H 0.3923 0.18895 0.4975 0.0
C503 C 0.37315 0.21291 0.33788 0.0
O504 O 0.37071 0.22932 0.31785 0.0
N505 N 0.40841 0.23534 0.32603 0.0
C506 C 0.41676 0.25042 0.30846 0.0
C507 C 0.41852 0.25157 0.2318 0.0
C508 C 0.40638 0.22706 0.25932 0.0
N509 N 0.41185 0.2369 0.20069 0.0
C510 C 0.38929 0.2604 0.4426 0.0
C511 C 0.35633 0.24979 0.48872 0.0
C512 C 0.35946 0.26765 0.4765 0.0
C513 C 0.37627 0.27295 0.45468 0.0
C514 C 0.36967 0.23765 0.47479 0.0
N515 N 0.38564 0.24294 0.44786 0.0
H516 H 0.40233 0.26485 0.43054 0.0
H517 H 0.36702 0.22391 0.48423 0.0
H518 H 0.42217 0.25966 0.348 0.0
H519 H 0.40164 0.21378 0.25377 0.0
O520 O 0.42373 0.23805 0.46497 0.0
O521 O 0.42462 0.21138 0.41499 0.0
O522 O 0.38591 0.20892 0.38127 0.0
C523 C 0.43297 0.22437 0.44651 0.0
H524 H 0.39087 0.18486 0.64463 0.0
H525 H 0.42443 0.26237 0.20172 0.0
H526 H 0.34359 0.2452 0.50718 0.0
H527 H 0.37941 0.28673 0.44811 0.0
H528 H 0.30809 0.10479 0.73911 0.0
H529 H 0.25722 0.08209 0.78322 0.0
H530 H 0.30198 0.10426 0.60484 0.0
H531 H 0.25112 0.08148 0.64928 0.0
H532 H 0.23877 0.09971 0.41228 0.0
H533 H 0.24528 0.10105 0.54571 0.0
H534 H 0.29827 0.08381 0.50137 0.0
H535 H 0.29175 0.08254 0.36751 0.0
C536 C 0.29566 0.09958 0.72015 0.0
C537 C 0.28314 0.09353 0.77202 0.0
C538 C 0.29215 0.09926 0.64318 0.0
C539 C 0.27605 0.09285 0.61623 0.0
C540 C 0.26354 0.08679 0.66814 0.0
C541 C 0.26703 0.08715 0.74506 0.0
C542 C 0.25177 0.09607 0.43092 0.0
C543 C 0.2647 0.09091 0.37911 0.0
C544 C 0.25551 0.09684 0.50753 0.0
C545 C 0.27227 0.09244 0.53438 0.0
C546 C 0.28528 0.08749 0.48252 0.0
C547 C 0.28155 0.08675 0.40575 0.0
H548 H 0.88256 0.29899 0.74391 0.0
H549 H 0.91864 0.25689 0.79285 0.0
H550 H 0.88561 0.29307 0.61013 0.0
H551 H 0.92178 0.25102 0.65924 0.0
H552 H 0.90881 0.23346 0.42055 0.0
H553 H 0.90585 0.23959 0.55377 0.0
H554 H 0.90621 0.29517 0.50744 0.0
H555 H 0.90912 0.28902 0.37377 0.0
C556 C 0.89125 0.28855 0.7262 0.0
C557 C 0.90032 0.27841 0.77943 0.0
C558 C 0.89303 0.28517 0.64934 0.0
C559 C 0.90396 0.27157 0.62361 0.0
C560 C 0.91303 0.26142 0.6769 0.0
C561 C 0.91121 0.26478 0.75372 0.0
C562 C 0.90848 0.247 0.43861 0.0
C563 C 0.9093 0.26073 0.38599 0.0
C564 C 0.90676 0.25053 0.51528 0.0
C565 C 0.90582 0.26788 0.54168 0.0
C566 C 0.90664 0.28163 0.48914 0.0
C567 C 0.90834 0.2781 0.41231 0.0
H568 H 0.70412 0.9097 0.39742 0.0
H569 H 0.7597 0.9123 0.44315 0.0
H570 H 0.69828 0.90636 0.53113 0.0
H571 H 0.75389 0.90889 0.57637 0.0
H572 H 0.73617 0.92045 0.81607 0.0
H573 H 0.74173 0.92409 0.68243 0.0
H574 H 0.70166 0.88572 0.63284 0.0
H575 H 0.69604 0.8822 0.7666 0.0
C576 C 0.71511 0.90948 0.43575 0.0
C577 C 0.73239 0.91138 0.40918 0.0
C578 C 0.71176 0.90752 0.51257 0.0
C579 C 0.72561 0.90738 0.56477 0.0
C580 C 0.74287 0.90927 0.53811 0.0
C581 C 0.74621 0.91125 0.46147 0.0
C582 C 0.72867 0.91266 0.77678 0.0
C583 C 0.71566 0.90102 0.80227 0.0
C584 C 0.73184 0.91475 0.69999 0.0
C585 C 0.72214 0.90521 0.64662 0.0
C586 C 0.70918 0.89351 0.67217 0.0
C587 C 0.70598 0.89146 0.74897 0.0
H588 H 0.09481 0.75481 0.42116 0.0
H589 H 0.08183 0.70068 0.3761 0.0
H590 H 0.09669 0.74837 0.55445 0.0
H591 H 0.08369 0.69422 0.50987 0.0
H592 H 0.10612 0.68614 0.74681 0.0
H593 H 0.10469 0.69218 0.6126 0.0
H594 H 0.07769 0.74083 0.65858 0.0
H595 H 0.07914 0.7348 0.79241 0.0
C596 C 0.09219 0.74156 0.43966 0.0
C597 C 0.08806 0.72829 0.38774 0.0
C598 C 0.09328 0.73786 0.51623 0.0
C599 C 0.09026 0.7208 0.54298 0.0
C600 C 0.0863 0.70746 0.49108 0.0
C601 C 0.08523 0.71117 0.41434 0.0
C602 C 0.09977 0.69806 0.72823 0.0
C603 C 0.09281 0.71 0.78053 0.0
C604 C 0.09894 0.70152 0.65128 0.0
C605 C 0.09111 0.71701 0.62478 0.0
C606 C 0.0841 0.72892 0.67709 0.0
C607 C 0.08494 0.72547 0.75397 0.0
H608 H 0.30565 0.90262 0.27826 0.0
H609 H 0.24993 0.89894 0.23569 0.0
H610 H 0.29983 0.9056 0.41176 0.0
H611 H 0.2442 0.90224 0.36934 0.0
H612 H 0.24066 0.92786 0.60241 0.0
H613 H 0.24679 0.92481 0.46907 0.0
H614 H 0.28837 0.88821 0.51872 0.0
H615 H 0.28209 0.89098 0.65225 0.0
C616 C 0.29216 0.90229 0.29698 0.0
C617 C 0.27828 0.90051 0.24532 0.0
C618 C 0.28884 0.90404 0.37386 0.0
C619 C 0.27156 0.90419 0.40131 0.0
C620 C 0.25767 0.90243 0.34995 0.0
C621 C 0.26098 0.90055 0.27307 0.0
C622 C 0.25104 0.91906 0.58528 0.0
C623 C 0.26083 0.90966 0.63879 0.0
C624 C 0.25455 0.91731 0.50856 0.0
C625 C 0.26802 0.90622 0.48313 0.0
C626 C 0.27802 0.89702 0.53645 0.0
C627 C 0.27444 0.89867 0.61323 0.0
H628 H 0.10982 0.28316 0.65234 0.0
H629 H 0.06917 0.24512 0.60886 0.0
H630 H 0.11184 0.28943 0.51837 0.0
H631 H 0.07073 0.25165 0.4754 0.0
H632 H 0.08916 0.25383 0.23593 0.0
H633 H 0.08873 0.24771 0.36903 0.0
H634 H 0.09697 0.30268 0.41643 0.0
H635 H 0.09859 0.30869 0.28304 0.0
C636 C 0.10117 0.2763 0.61412 0.0
C637 C 0.08939 0.2636 0.64095 0.0
C638 C 0.10229 0.27989 0.53733 0.0
C639 C 0.0915 0.27099 0.48574 0.0
C640 C 0.07954 0.25848 0.51306 0.0
C641 C 0.07857 0.25476 0.58963 0.0
C642 C 0.09117 0.26464 0.27419 0.0
C643 C 0.09388 0.28182 0.24775 0.0
C644 C 0.09066 0.26113 0.35106 0.0
C645 C 0.09266 0.27471 0.40383 0.0
C646 C 0.09554 0.29185 0.3776 0.0
C647 C 0.09623 0.29534 0.30068 0.0
H648 H 0.70121 0.08321 0.63445 0.0
H649 H 0.75667 0.08844 0.58919 0.0
H650 H 0.69508 0.08604 0.50073 0.0
H651 H 0.75053 0.09114 0.45601 0.0
H652 H 0.73433 0.0763 0.21739 0.0
H653 H 0.74004 0.07344 0.35108 0.0
H654 H 0.69636 0.10772 0.39919 0.0
H655 H 0.69068 0.11068 0.26524 0.0
C656 C 0.71209 0.08507 0.59627 0.0
C657 C 0.72946 0.0855 0.62295 0.0
C658 C 0.70857 0.08669 0.51952 0.0
C659 C 0.72232 0.08874 0.4676 0.0
C660 C 0.73965 0.08925 0.49429 0.0
C661 C 0.74317 0.08767 0.57088 0.0
C662 C 0.72604 0.08339 0.25621 0.0
C663 C 0.71206 0.09378 0.23023 0.0
C664 C 0.7293 0.08172 0.33304 0.0
C665 C 0.71867 0.09037 0.3859 0.0
C666 C 0.70465 0.10069 0.36004 0.0
C667 C 0.7014 0.10238 0.28318 0.0
H668 H 0.91199 0.75929 0.5856 0.0
H669 H 0.90863 0.70376 0.63098 0.0
H670 H 0.90828 0.75359 0.45246 0.0
H671 H 0.90498 0.69803 0.49737 0.0
H672 H 0.88044 0.69609 0.2626 0.0
H673 H 0.88427 0.70166 0.39628 0.0
H674 H 0.92297 0.74132 0.34551 0.0
H675 H 0.91902 0.73582 0.21201 0.0
C676 C 0.91072 0.74583 0.56725 0.0
C677 C 0.91071 0.732 0.61949 0.0
C678 C 0.90856 0.74255 0.49061 0.0
C679 C 0.90635 0.72534 0.46384 0.0
C680 C 0.90639 0.71148 0.51597 0.0
C681 C 0.90852 0.71477 0.59278 0.0
C682 C 0.88983 0.70593 0.27995 0.0
C683 C 0.89939 0.71552 0.22632 0.0
C684 C 0.89206 0.70911 0.35673 0.0
C685 C 0.90396 0.72193 0.38197 0.0
C686 C 0.91349 0.73154 0.32826 0.0
C687 C 0.91121 0.7284 0.25151 0.0
H688 H 0.75627 0.57988 0.2868 0.0
H689 H 0.80469 0.60741 0.24216 0.0
H690 H 0.75027 0.57853 0.1529 0.0
H691 H 0.79868 0.60606 0.10793 0.0
H692 H 0.79055 0.58307 0.87113 0.0
H693 H 0.79693 0.58503 1.00499 0.0
H694 H 0.74262 0.59756 0.04904 0.0
H695 H 0.73626 0.59558 0.91563 0.0
C696 C 0.76555 0.58582 0.24857 0.0
C697 C 0.78095 0.5938 0.27541 0.0
C698 C 0.76212 0.58503 0.17166 0.0
C699 C 0.77399 0.59221 0.11963 0.0
C700 C 0.78939 0.60018 0.1464 0.0
C701 C 0.79283 0.60096 0.22338 0.0
C702 C 0.78001 0.58639 0.90929 0.0
C703 C 0.76287 0.58905 0.88255 0.0
C704 C 0.78366 0.58752 0.98605 0.0
C705 C 0.77026 0.59136 0.03781 0.0
C706 C 0.75318 0.59424 0.01091 0.0
C707 C 0.74953 0.59309 0.93431 0.0
H708 H 0.39419 0.8105 0.25535 0.0
H709 H 0.40813 0.75657 0.30123 0.0
H710 H 0.39656 0.80481 0.1219 0.0
H711 H 0.40928 0.75066 0.16805 0.0
H712 H 0.42899 0.74977 0.92855 0.0
H713 H 0.42696 0.75616 0.06211 0.0
H714 H 0.38291 0.79048 0.0196 0.0
H715 H 0.38543 0.78442 0.88557 0.0
C716 C 0.39771 0.79742 0.23744 0.0
C717 C 0.40109 0.78408 0.29005 0.0
C718 C 0.39883 0.79409 0.16048 0.0
C719 C 0.40317 0.77728 0.1339 0.0
C720 C 0.40622 0.76386 0.18633 0.0
C721 C 0.40529 0.76722 0.26324 0.0
C722 C 0.41887 0.75864 0.94794 0.0
C723 C 0.40736 0.76657 0.89681 0.0
C724 C 0.41763 0.76226 0.02453 0.0
C725 C 0.40468 0.77375 0.05198 0.0
C726 C 0.39321 0.78177 1.00053 0.0
C727 C 0.39461 0.77829 0.92372 0.0
H728 H 0.18623 0.40046 0.25355 0.0
H729 H 0.24203 0.40159 0.29747 0.0
H730 H 0.19196 0.40376 0.12034 0.0
H731 H 0.24761 0.40528 0.16404 0.0
H732 H 0.24875 0.4312 0.9305 0.0
H733 H 0.24289 0.42771 0.06388 0.0
H734 H 0.20531 0.38697 0.01451 0.0
H735 H 0.21138 0.39012 0.8811 0.0
C736 C 0.19973 0.40127 0.23534 0.0
C737 C 0.21363 0.40072 0.28739 0.0
C738 C 0.20299 0.40321 0.15855 0.0
C739 C 0.22023 0.40482 0.13155 0.0
C740 C 0.23415 0.40431 0.18317 0.0
C741 C 0.23091 0.40221 0.25997 0.0
C742 C 0.23933 0.4214 0.9477 0.0
C743 C 0.23057 0.41096 0.8943 0.0
C744 C 0.23597 0.41941 0.02441 0.0
C745 C 0.22367 0.40704 0.04985 0.0
C746 C 0.21473 0.39676 0.99669 0.0
C747 C 0.21818 0.39864 0.91997 0.0
H748 H 0.5806 0.23826 0.28079 0.0
H749 H 0.60883 0.19037 0.23408 0.0
H750 H 0.57875 0.24427 0.14702 0.0
H751 H 0.60698 0.19639 0.09999 0.0
H752 H 0.58346 0.20411 0.86437 0.0
H753 H 0.58571 0.19778 0.99814 0.0
H754 H 0.59723 0.25231 0.04182 0.0
H755 H 0.59499 0.25861 0.90852 0.0
C756 C 0.5866 0.2291 0.24215 0.0
C757 C 0.59492 0.21384 0.26842 0.0
C758 C 0.58551 0.23254 0.16527 0.0
C759 C 0.59272 0.22082 0.11266 0.0
C760 C 0.60105 0.20556 0.13888 0.0
C761 C 0.60213 0.20212 0.2158 0.0
C762 C 0.58661 0.21472 0.90239 0.0
C763 C 0.58894 0.23189 0.87548 0.0
C764 C 0.58791 0.21109 0.97915 0.0
C765 C 0.59158 0.22455 0.03083 0.0
C766 C 0.59405 0.24168 1.00381 0.0
C767 C 0.59275 0.2453 0.9272 0.0
H768 H 0.74186 0.41822 0.10332 0.0
H769 H 0.79116 0.39267 0.15278 0.0
H770 H 0.74844 0.41668 0.97007 0.0
H771 H 0.79784 0.39156 0.01914 0.0
H772 H 0.81038 0.41137 0.77881 0.0
H773 H 0.80421 0.41234 0.91266 0.0
H774 H 0.75176 0.39337 0.87153 0.0
H775 H 0.75794 0.39193 0.73776 0.0
C776 C 0.75405 0.41218 0.08615 0.0
C777 C 0.76591 0.4055 0.13948 0.0
C778 C 0.75782 0.41133 1.00952 0.0
C779 C 0.77362 0.40395 0.98413 0.0
C780 C 0.78562 0.39748 0.03713 0.0
C781 C 0.78179 0.39818 0.11387 0.0
C782 C 0.79758 0.40718 0.79791 0.0
C783 C 0.78467 0.4016 0.74669 0.0
C784 C 0.79406 0.40779 0.87488 0.0
C785 C 0.77749 0.40298 0.90256 0.0
C786 C 0.76458 0.39739 0.85171 0.0
C787 C 0.76814 0.39662 0.77483 0.0
H788 H 0.6098 0.78098 0.14224 0.0
H789 H 0.56515 0.74771 0.09926 0.0
H790 H 0.61249 0.78692 1.00821 0.0
H791 H 0.56737 0.75399 0.96573 0.0
H792 H 0.58607 0.75378 0.72659 0.0
H793 H 0.58488 0.74791 0.85974 0.0
H794 H 0.59921 0.80166 0.90613 0.0
H795 H 0.60162 0.80729 0.77273 0.0
C796 C 0.60043 0.77514 0.10409 0.0
C797 C 0.58732 0.76383 0.13098 0.0
C798 C 0.60193 0.77854 0.0273 0.0
C799 C 0.5902 0.77087 0.97587 0.0
C800 C 0.57689 0.75981 1.0033 0.0
C801 C 0.57555 0.75625 0.07986 0.0
C802 C 0.58926 0.76434 0.76462 0.0
C803 C 0.59391 0.78108 0.7379 0.0
C804 C 0.58831 0.76101 0.84151 0.0
C805 C 0.59178 0.77434 0.89398 0.0
C806 C 0.59659 0.79101 0.86749 0.0
C807 C 0.59773 0.79431 0.79056 0.0
H808 H 0.26063 0.58578 0.10436 0.0
H809 H 0.20503 0.58631 0.15118 0.0
H810 H 0.25461 0.58891 0.97121 0.0
H811 H 0.19898 0.58939 0.01758 0.0
H812 H 0.19564 0.61327 0.78168 0.0
H813 H 0.20148 0.61005 0.91537 0.0
H814 H 0.24293 0.57322 0.86543 0.0
H815 H 0.23714 0.57653 0.7319 0.0
C816 C 0.2471 0.58633 0.08633 0.0
C817 C 0.23334 0.5857 0.13895 0.0
C818 C 0.24363 0.58814 1.0097 0.0
C819 C 0.2263 0.58937 0.98334 0.0
C820 C 0.21251 0.58874 0.03586 0.0
C821 C 0.21598 0.58694 0.11266 0.0
C822 C 0.20592 0.6044 0.79919 0.0
C823 C 0.21592 0.59519 0.74575 0.0
C824 C 0.20926 0.60253 0.87599 0.0
C825 C 0.22267 0.59135 0.90146 0.0
C826 C 0.23269 0.58215 0.84797 0.0
C827 C 0.22937 0.58406 0.77119 0.0
H828 H 0.38992 0.2133 0.13466 0.0
H829 H 0.43052 0.25121 0.08553 0.0
H830 H 0.38694 0.20715 1.0012 0.0
H831 H 0.42719 0.24526 0.95216 0.0
H832 H 0.40126 0.24397 0.71829 0.0
H833 H 0.40473 0.24963 0.85176 0.0
H834 H 0.40406 0.19401 0.89566 0.0
H835 H 0.40099 0.18819 0.76239 0.0
C836 C 0.39837 0.2202 0.09583 0.0
C837 C 0.4105 0.23278 0.12157 0.0
C838 C 0.39659 0.2167 0.01911 0.0
C839 C 0.40678 0.22577 0.96604 0.0
C840 C 0.41896 0.23824 0.99156 0.0
C841 C 0.42085 0.24165 0.06827 0.0
C842 C 0.40202 0.23288 0.75584 0.0
C843 C 0.40085 0.21558 0.72847 0.0
C844 C 0.40399 0.23617 0.83266 0.0
C845 C 0.40468 0.22227 0.88434 0.0
C846 C 0.40337 0.20501 0.85739 0.0
C847 C 0.40156 0.2017 0.78057 0.0
H848 H 0.30913 0.12106 0.22616 0.0
H849 H 0.31267 0.152 0.02364 0.0
H850 H 0.32779 0.14228 0.29108 0.0
H851 H 0.33145 0.1729 0.0879 0.0
H852 H 0.34523 0.21731 0.24476 0.0
H853 H 0.32746 0.19485 0.18522 0.0
H854 H 0.35788 0.1546 0.29517 0.0
H855 H 0.37562 0.17722 0.35632 0.0
C856 C 0.31402 0.13227 0.19529 0.0
C857 C 0.30928 0.13492 0.11989 0.0
C858 C 0.32476 0.14439 0.23243 0.0
C859 C 0.33093 0.15938 0.19487 0.0
C860 C 0.32661 0.16169 0.11889 0.0
C861 C 0.31591 0.14963 0.08192 0.0
C862 C 0.34814 0.20369 0.25663 0.0
C863 C 0.36192 0.19907 0.30501 0.0
C864 C 0.338 0.1908 0.22202 0.0
C865 C 0.34139 0.17293 0.23472 0.0
C866 C 0.3549 0.16826 0.28451 0.0
C867 C 0.3651 0.18121 0.31928 0.0
H868 H 0.8095 0.37366 0.28924 0.0
H869 H 0.81276 0.34166 0.48876 0.0
H870 H 0.82772 0.35245 0.22181 0.0
H871 H 0.83109 0.32076 0.42199 0.0
H872 H 0.87519 0.31714 0.15324 0.0
H873 H 0.85767 0.33971 0.21605 0.0
H874 H 0.82668 0.29936 0.32261 0.0
H875 H 0.84421 0.27695 0.26136 0.0
C876 C 0.81424 0.36222 0.31892 0.0
C877 C 0.80956 0.35928 0.39424 0.0
C878 C 0.82472 0.35011 0.28034 0.0
C879 C 0.83068 0.33482 0.31631 0.0
C880 C 0.8264 0.33221 0.39218 0.0
C881 C 0.81597 0.34426 0.43061 0.0
C882 C 0.86458 0.31312 0.18982 0.0
C883 C 0.86119 0.29524 0.20275 0.0
C884 C 0.85451 0.32605 0.22557 0.0
C885 C 0.84092 0.32132 0.275 0.0
C886 C 0.83729 0.30345 0.28614 0.0
C887 C 0.84729 0.29058 0.25057 0.0
H888 H 0.61681 0.81857 0.3264 0.0
H889 H 0.65915 0.79238 0.44135 0.0
H890 H 0.63781 0.83881 0.26948 0.0
H891 H 0.6802 0.81167 0.3815 0.0
H892 H 0.71287 0.85876 0.33101 0.0
H893 H 0.69079 0.83985 0.38619 0.0
H894 H 0.6603 0.84287 0.18187 0.0
H895 H 0.68211 0.86285 0.1287 0.0
C896 C 0.63064 0.81705 0.33877 0.0
C897 C 0.63635 0.80409 0.38898 0.0
C898 C 0.64271 0.82856 0.30581 0.0
C899 C 0.66078 0.82708 0.32131 0.0
C900 C 0.6664 0.81366 0.36985 0.0
C901 C 0.65434 0.80247 0.4039 0.0
C902 C 0.70144 0.85536 0.29794 0.0
C903 C 0.69923 0.86211 0.22545 0.0
C904 C 0.68879 0.84439 0.32933 0.0
C905 C 0.67378 0.83951 0.28828 0.0
C906 C 0.67153 0.84645 0.21566 0.0
C907 C 0.68406 0.8578 0.18487 0.0
H908 H 0.21737 0.65157 0.26672 0.0
H909 H 0.17725 0.61972 0.37064 0.0
H910 H 0.19489 0.66923 0.20675 0.0
H911 H 0.15463 0.63729 0.30898 0.0
H912 H 0.15278 0.68347 0.04065 0.0
H913 H 0.17386 0.66527 0.10655 0.0
H914 H 0.14138 0.6668 0.3052 0.0
H915 H 0.11997 0.68487 0.23846 0.0
C916 C 0.20374 0.64832 0.27682 0.0
C917 C 0.19911 0.63415 0.32307 0.0
C918 C 0.19084 0.65839 0.24199 0.0
C919 C 0.17297 0.65453 0.25227 0.0
C920 C 0.16828 0.64065 0.3002 0.0
C921 C 0.18124 0.63055 0.33528 0.0
C922 C 0.15005 0.6799 0.09828 0.0
C923 C 0.13474 0.68572 0.13442 0.0
C924 C 0.16221 0.66953 0.13624 0.0
C925 C 0.15942 0.66477 0.21146 0.0
C926 C 0.14387 0.67018 0.24717 0.0
C927 C 0.13164 0.68057 0.209 0.0
H928 H 0.37325 0.80899 0.74674 0.0
H929 H 0.34207 0.81097 0.5445 0.0
H930 H 0.35172 0.82756 0.81049 0.0
H931 H 0.32089 0.82969 0.60739 0.0
H932 H 0.31642 0.87528 0.87211 0.0
H933 H 0.33912 0.85729 0.81288 0.0
H934 H 0.29898 0.82641 0.70406 0.0
H935 H 0.27645 0.84449 0.76149 0.0
C936 C 0.36192 0.81352 0.71569 0.0
C937 C 0.3593 0.8084 0.64071 0.0
C938 C 0.34962 0.8242 0.75214 0.0
C939 C 0.33449 0.82994 0.71426 0.0
C940 C 0.33219 0.82518 0.63872 0.0
C941 C 0.34441 0.81452 0.6025 0.0
C942 C 0.31247 0.86461 0.83572 0.0
C943 C 0.29463 0.8614 0.82108 0.0
C944 C 0.32547 0.85426 0.80206 0.0
C945 C 0.32086 0.84053 0.75314 0.0
C946 C 0.303 0.83712 0.74016 0.0
C947 C 0.29006 0.84744 0.77353 0.0
H948 H 0.12068 0.30765 0.79216 0.0
H949 H 0.15153 0.31212 0.99467 0.0
H950 H 0.14155 0.32661 0.72676 0.0
H951 H 0.17209 0.3312 0.92989 0.0
H952 H 0.1755 0.37509 0.66054 0.0
H953 H 0.15322 0.35698 0.72215 0.0
H954 H 0.1941 0.32748 0.83251 0.0
H955 H 0.2162 0.3456 0.77252 0.0
C956 C 0.1318 0.3128 0.82291 0.0
C957 C 0.13453 0.30825 0.89848 0.0
C958 C 0.14371 0.32371 0.7855 0.0
C959 C 0.15857 0.33025 0.82293 0.0
C960 C 0.16097 0.32609 0.89902 0.0
C961 C 0.14912 0.31521 0.93628 0.0
C962 C 0.17969 0.36469 0.69777 0.0
C963 C 0.19762 0.36187 0.71202 0.0
C964 C 0.16695 0.35429 0.73281 0.0
C965 C 0.1719 0.34093 0.78284 0.0
C966 C 0.18983 0.3379 0.79552 0.0
C967 C 0.20252 0.34824 0.76066 0.0
H968 H 0.67485 0.11266 0.80965 0.0
H969 H 0.70036 0.15912 0.89564 0.0
H970 H 0.65563 0.13108 0.73254 0.0
H971 H 0.68146 0.1774 0.81704 0.0
H972 H 0.65944 0.19779 0.58517 0.0
H973 H 0.67782 0.17878 0.66292 0.0
H974 H 0.63153 0.15729 0.76761 0.0
H975 H 0.61307 0.17663 0.69132 0.0
C976 C 0.67633 0.12678 0.81206 0.0
C977 C 0.68903 0.13449 0.85875 0.0
C978 C 0.66534 0.13727 0.7682 0.0
C979 C 0.66718 0.15557 0.76902 0.0
C980 C 0.67989 0.16328 0.81545 0.0
C981 C 0.6906 0.15284 0.86059 0.0
C982 C 0.65318 0.18894 0.62442 0.0
C983 C 0.63484 0.18866 0.63225 0.0
C984 C 0.66369 0.17817 0.66904 0.0
C985 C 0.65602 0.16667 0.72096 0.0
C986 C 0.63768 0.16605 0.72764 0.0
C987 C 0.62718 0.17711 0.68424 0.0
H988 H 0.79331 0.6592 0.57326 0.0
H989 H 0.81819 0.61652 0.69116 0.0
H990 H 0.81247 0.67996 0.6354 0.0
H991 H 0.83833 0.63726 0.75061 0.0
H992 H 0.86157 0.68147 0.89549 0.0
H993 H 0.84202 0.6597 0.83902 0.0
H994 H 0.84079 0.69026 0.6346 0.0
H995 H 0.85925 0.71228 0.69287 0.0
C996 C 0.8031 0.65424 0.61182 0.0
C997 C 0.80436 0.63624 0.6269 0.0
C998 C 0.81423 0.66615 0.64723 0.0
C999 C 0.82724 0.66037 0.69742 0.0
C1000 C 0.82839 0.64228 0.71299 0.0
C1001 C 0.81694 0.63036 0.67858 0.0
C1002 C 0.85701 0.68345 0.83856 0.0
C1003 C 0.86166 0.69864 0.79886 0.0
C1004 C 0.8459 0.67094 0.80589 0.0
C1005 C 0.83955 0.67324 0.73229 0.0
C1006 C 0.84485 0.68823 0.69212 0.0
C1007 C 0.85556 0.70085 0.72531 0.0
H1008 H 0.2991 0.03911 0.08775 0.0
H1009 H 0.24582 0.04293 1.00685 0.0
H1010 H 0.29876 0.00752 0.0638 0.0
H1011 H 0.24558 0.01155 0.98194 0.0
H1012 H 0.29672 0.95499 0.93266 0.0
H1013 H 0.29779 0.98653 0.95781 0.0
H1014 H 0.24558 0.98414 0.05182 0.0
H1015 H 0.24441 0.95286 0.02575 0.0
C1016 C 0.28733 0.03321 0.06494 0.0
C1017 C 0.27246 0.04348 0.0495 0.0
C1018 C 0.28718 0.01515 0.05071 0.0
C1019 C 0.27213 0.00703 0.02109 0.0
C1020 C 0.25729 0.01736 1.00575 0.0
C1021 C 0.25746 0.03536 0.01976 0.0
C1022 C 0.28548 0.96124 0.95857 0.0
C1023 C 0.27046 0.95147 0.97691 0.0
C1024 C 0.28613 0.97927 0.97342 0.0
C1025 C 0.27175 0.98784 1.00662 0.0
C1026 C 0.25678 0.97799 0.0252 0.0
C1027 C 0.25615 0.96003 0.01055 0.0
H1028 H 0.04258 0.2451 0.01463 0.0
H1029 H 0.03925 0.29831 0.93283 0.0
H1030 H 0.01124 0.24528 0.04069 0.0
H1031 H 0.0077 0.29839 0.95793 0.0
H1032 H 0.95528 0.29709 0.09034 0.0
H1033 H 0.98683 0.29777 0.06459 0.0
H1034 H 0.98374 0.24556 0.97128 0.0
H1035 H 0.95247 0.24476 0.9979 0.0
C1036 C 0.03513 0.25681 1.00178 0.0
C1037 C 0.04337 0.27167 0.97143 0.0
C1038 C 0.01714 0.25689 0.01645 0.0
C1039 C 0.00697 0.27183 1.00119 0.0
C1040 C 0.01522 0.28674 0.97098 0.0
C1041 C 0.03325 0.28665 0.95609 0.0
C1042 C 0.96138 0.28577 0.06445 0.0
C1043 C 0.95142 0.27085 0.04646 0.0
C1044 C 0.97941 0.2862 0.04928 0.0
C1045 C 0.98779 0.27169 0.01612 0.0
C1046 C 0.97775 0.25684 0.99788 0.0
C1047 C 0.95979 0.25643 0.01285 0.0
H1048 H 0.69416 0.95197 0.0383 0.0
H1049 H 0.74885 0.95714 0.09567 0.0
H1050 H 0.69316 0.98291 1.00366 0.0
H1051 H 0.74772 0.98827 0.06759 0.0
H1052 H 0.74752 0.03884 0.94179 0.0
H1053 H 0.74737 0.00783 0.97219 0.0
H1054 H 0.69283 0.01182 0.03862 0.0
H1055 H 0.69285 0.04264 1.00177 0.0
C1056 C 0.70587 0.95989 0.04483 0.0
C1057 C 0.72161 0.95227 0.06897 0.0
C1058 C 0.70532 0.97767 0.02543 0.0
C1059 C 0.72041 0.98827 0.03185 0.0
C1060 C 0.73595 0.98057 0.05916 0.0
C1061 C 0.73661 0.96274 0.0762 0.0
C1062 C 0.73551 0.03298 0.96248 0.0
C1063 C 0.72021 0.04303 0.96954 0.0
C1064 C 0.73541 0.01521 0.98084 0.0
C1065 C 0.72015 0.00714 1.00924 0.0
C1066 C 0.70479 0.01734 0.01597 0.0
C1067 C 0.70478 0.03505 0.99532 0.0
H1068 H 0.95474 0.69529 0.92267 0.0
H1069 H 0.95208 0.74757 0.01567 0.0
H1070 H 0.98609 0.6941 0.9522 0.0
H1071 H 0.98313 0.74627 0.04609 0.0
H1072 H 0.04201 0.74638 1.00731 0.0
H1073 H 0.01084 0.74635 0.9786 0.0
H1074 H 0.0066 0.6932 0.06025 0.0
H1075 H 0.03806 0.69311 0.08804 0.0
C1076 C 0.96083 0.70648 0.94956 0.0
C1077 C 0.95098 0.72156 0.9664 0.0
C1078 C 0.97874 0.70576 0.9669 0.0
C1079 C 0.98711 0.72013 1.00114 0.0
C1080 C 0.97715 0.73509 0.01861 0.0
C1081 C 0.95932 0.7358 1.00143 0.0
C1082 C 0.03445 0.73468 0.01935 0.0
C1083 C 0.04248 0.71977 0.05025 0.0
C1084 C 0.01656 0.7347 1.00317 0.0
C1085 C 0.00622 0.71981 0.01749 0.0
C1086 C 0.01425 0.70482 0.04802 0.0
C1087 C 0.03222 0.70481 0.06441 0.0
H1088 H 0.80035 0.4555 0.42971 0.0
H1089 H 0.74756 0.45162 0.5166 0.0
H1090 H 0.80025 0.48704 0.45517 0.0
H1091 H 0.74757 0.48291 0.54315 0.0
H1092 H 0.74623 0.54171 0.50276 0.0
H1093 H 0.74712 0.51047 0.47557 0.0
H1094 H 0.80006 0.50785 0.56126 0.0
H1095 H 0.79927 0.53935 0.58736 0.0
C1096 C 0.78874 0.46138 0.45418 0.0
C1097 C 0.77394 0.4511 0.47081 0.0
C1098 C 0.78873 0.4794 0.46928 0.0
C1099 C 0.77389 0.48749 0.50108 0.0
C1100 C 0.75912 0.47715 0.51764 0.0
C1101 C 0.75914 0.45919 0.50268 0.0
C1102 C 0.75807 0.53449 0.51597 0.0
C1103 C 0.77267 0.54299 0.54746 0.0
C1104 C 0.75855 0.51655 0.50066 0.0
C1105 C 0.77364 0.50665 0.51648 0.0
C1106 C 0.7883 0.51515 0.54773 0.0
C1107 C 0.78781 0.53315 0.56318 0.0
H1108 H 0.45576 0.74782 0.58814 0.0
H1109 H 0.45236 0.80262 0.53081 0.0
H1110 H 0.48692 0.74795 0.5594 0.0
H1111 H 0.48328 0.80263 0.4956 0.0
H1112 H 0.543 0.80128 0.49623 0.0
H1113 H 0.51206 0.80218 0.53086 0.0
H1114 H 0.5068 0.74773 0.465 0.0
H1115 H 0.53797 0.7467 0.43685 0.0
C1116 C 0.46175 0.75988 0.56862 0.0
C1117 C 0.45177 0.77521 0.56177 0.0
C1118 C 0.4796 0.75995 0.55114 0.0
C1119 C 0.4878 0.77524 0.52382 0.0
C1120 C 0.47767 0.79065 0.5175 0.0
C1121 C 0.4599 0.79067 0.53729 0.0
C1122 C 0.5351 0.78958 0.48915 0.0
C1123 C 0.54277 0.77391 0.46433 0.0
C1124 C 0.51732 0.79007 0.5086 0.0
C1125 C 0.50673 0.77498 0.5016 0.0
C1126 C 0.51447 0.75949 0.4738 0.0
C1127 C 0.53233 0.7589 0.45666 0.0
H1128 H 0.19514 0.45601 0.59449 0.0
H1129 H 0.24769 0.45286 0.5044 0.0
H1130 H 0.19474 0.48758 0.56888 0.0
H1131 H 0.24719 0.4841 0.47812 0.0
H1132 H 0.19607 0.5405 0.43686 0.0
H1133 H 0.19497 0.50892 0.46193 0.0
H1134 H 0.24754 0.51115 0.55178 0.0
H1135 H 0.24874 0.54241 0.52602 0.0
C1136 C 0.20656 0.46204 0.56909 0.0
C1137 C 0.22149 0.45198 0.55192 0.0
C1138 C 0.20629 0.48006 0.55403 0.0
C1139 C 0.22098 0.48834 0.52194 0.0
C1140 C 0.23578 0.47818 0.50401 0.0
C1141 C 0.23603 0.46024 0.5188 0.0
C1142 C 0.20737 0.5342 0.46189 0.0
C1143 C 0.22253 0.5439 0.47904 0.0
C1144 C 0.2067 0.51617 0.47666 0.0
C1145 C 0.22121 0.50754 0.50842 0.0
C1146 C 0.23625 0.51735 0.52617 0.0
C1147 C 0.2369 0.5353 0.51168 0.0
H1148 H 0.54325 0.24957 0.49195 0.0
H1149 H 0.53977 0.19646 0.57491 0.0
H1150 H 0.51193 0.24935 0.46517 0.0
H1151 H 0.50827 0.19634 0.54911 0.0
H1152 H 0.45586 0.19746 0.41806 0.0
H1153 H 0.48743 0.19685 0.44288 0.0
H1154 H 0.48441 0.2492 0.53489 0.0
H1155 H 0.45309 0.24992 0.50917 0.0
C1156 C 0.53578 0.23786 0.50474 0.0
C1157 C 0.54396 0.22305 0.53578 0.0
C1158 C 0.51781 0.23776 0.48969 0.0
C1159 C 0.5076 0.22285 0.50528 0.0
C1160 C 0.51581 0.20797 0.53581 0.0
C1161 C 0.53382 0.20808 0.55104 0.0
C1162 C 0.46198 0.20882 0.44348 0.0
C1163 C 0.45202 0.22375 0.4614 0.0
C1164 C 0.48002 0.20844 0.45809 0.0
C1165 C 0.48842 0.223 0.49061 0.0
C1166 C 0.47839 0.23787 0.50875 0.0
C1167 C 0.46041 0.23824 0.49435 0.0
H1168 H 0.21664 0.15898 0.14733 0.0
H1169 H 0.20986 0.14352 0.91537 0.0
H1170 H 0.19425 0.18144 0.13162 0.0
H1171 H 0.18665 0.16534 0.90207 0.0
H1172 H 0.13222 0.19321 0.95803 0.0
H1173 H 0.15487 0.17054 0.97197 0.0
H1174 H 0.19215 0.2101 0.03962 0.0
H1175 H 0.16965 0.2328 0.02382 0.0
C1176 C 0.21054 0.16036 0.09286 0.0
C1177 C 0.2153 0.14941 0.03242 0.0
C1178 C 0.19759 0.17316 0.08429 0.0
C1179 C 0.1888 0.17505 0.01575 0.0
C1180 C 0.1932 0.164 0.95567 0.0
C1181 C 0.20643 0.15144 0.96363 0.0
C1182 C 0.14526 0.19699 0.97598 0.0
C1183 C 0.14926 0.21467 0.99001 0.0
C1184 C 0.15818 0.1841 0.98353 0.0
C1185 C 0.17517 0.18866 1.00687 0.0
C1186 C 0.1791 0.2063 0.02182 0.0
C1187 C 0.1663 0.21924 0.01262 0.0
H1188 H 0.83494 0.2256 0.91166 0.0
H1189 H 0.85375 0.19629 0.10264 0.0
H1190 H 0.8126 0.20324 0.88929 0.0
H1191 H 0.83148 0.17401 0.0804 0.0
H1192 H 0.80166 0.12881 0.97397 0.0
H1193 H 0.82415 0.1512 0.9903 0.0
H1194 H 0.78578 0.19155 0.94585 0.0
H1195 H 0.76326 0.16913 0.92939 0.0
C1196 C 0.83422 0.21446 0.94917 0.0
C1197 C 0.84616 0.2127 1.00879 0.0
C1198 C 0.82144 0.20165 0.93634 0.0
C1199 C 0.82031 0.18681 0.98287 0.0
C1200 C 0.8322 0.18511 0.04263 0.0
C1201 C 0.84496 0.19789 0.05542 0.0
C1202 C 0.798 0.14246 0.96811 0.0
C1203 C 0.78065 0.1472 0.95087 0.0
C1204 C 0.81089 0.1553 0.97744 0.0
C1205 C 0.80673 0.17317 0.96981 0.0
C1206 C 0.78945 0.17789 0.95125 0.0
C1207 C 0.77655 0.16505 0.94186 0.0
H1208 H 0.83834 0.77198 0.09284 0.0
H1209 H 0.85072 0.79434 0.87679 0.0
H1210 H 0.81602 0.79466 0.1125 0.0
H1211 H 0.8283 0.81691 0.89614 0.0
H1212 H 0.77202 0.84001 0.93075 0.0
H1213 H 0.79422 0.81723 0.91076 0.0
H1214 H 0.81663 0.82873 0.12763 0.0
H1215 H 0.79455 0.85161 0.14733 0.0
C1216 C 0.8362 0.78169 0.04951 0.0
C1217 C 0.84622 0.78146 0.98336 0.0
C1218 C 0.82354 0.7947 0.06092 0.0
C1219 C 0.82048 0.80748 1.00578 0.0
C1220 C 0.83036 0.80712 0.93928 0.0
C1221 C 0.84322 0.79432 0.92845 0.0
C1222 C 0.78169 0.83762 0.97407 0.0
C1223 C 0.78163 0.84754 0.04052 0.0
C1224 C 0.79441 0.82469 0.9625 0.0
C1225 C 0.80708 0.82125 0.01775 0.0
C1226 C 0.80692 0.83107 0.08442 0.0
C1227 C 0.7944 0.84421 0.09543 0.0
H1228 H 0.16995 0.76106 0.06021 0.0
H1229 H 0.12875 0.79961 0.03741 0.0
H1230 H 0.19192 0.78416 0.04837 0.0
H1231 H 0.15072 0.82266 0.02529 0.0
H1232 H 0.19504 0.85527 0.92076 0.0
H1233 H 0.17302 0.83241 0.93606 0.0
H1234 H 0.20337 0.80974 0.11607 0.0
H1235 H 0.22543 0.83269 0.10095 0.0
C1236 C 0.16558 0.77448 0.05323 0.0
C1237 C 0.14759 0.77847 0.04945 0.0
C1238 C 0.17817 0.78771 0.04652 0.0
C1239 C 0.17306 0.80524 0.0358 0.0
C1240 C 0.15508 0.80924 0.03233 0.0
C1241 C 0.14249 0.79602 0.03912 0.0
C1242 C 0.19693 0.84554 0.96422 0.0
C1243 C 0.21199 0.84583 1.00971 0.0
C1244 C 0.18431 0.83243 0.97294 0.0
C1245 C 0.18644 0.81927 0.02731 0.0
C1246 C 0.20147 0.81956 0.07296 0.0
C1247 C 0.21411 0.8327 0.06428 0.0
H1248 H 0.66635 0.73007 0.51336 0.0
H1249 H 0.62869 0.69043 0.4506 0.0
H1250 H 0.68849 0.70724 0.53438 0.0
H1251 H 0.65104 0.66761 0.46945 0.0
H1252 H 0.70739 0.64116 0.41773 0.0
H1253 H 0.68415 0.66278 0.40047 0.0
H1254 H 0.68878 0.67827 0.63219 0.0
H1255 H 0.71115 0.65593 0.65182 0.0
C1256 C 0.66289 0.71646 0.5039 0.0
C1257 C 0.6459 0.7119 0.4806 0.0
C1258 C 0.67548 0.70347 0.51609 0.0
C1259 C 0.67137 0.68577 0.50341 0.0
C1260 C 0.65444 0.68121 0.47936 0.0
C1261 C 0.64172 0.69418 0.4689 0.0
C1262 C 0.70327 0.64885 0.46567 0.0
C1263 C 0.71131 0.64671 0.53625 0.0
C1264 C 0.69004 0.66131 0.45542 0.0
C1265 C 0.68483 0.67213 0.51498 0.0
C1266 C 0.69275 0.67012 0.58534 0.0
C1267 C 0.70569 0.6574 0.59616 0.0
H1268 H 0.36592 0.69413 0.5429 0.0
H1269 H 0.32489 0.73282 0.56789 0.0
H1270 H 0.34382 0.67128 0.52812 0.0
H1271 H 0.30283 0.70991 0.554 0.0
H1272 H 0.26925 0.66123 0.60416 0.0
H1273 H 0.2915 0.68389 0.62123 0.0
H1274 H 0.32123 0.66236 0.43649 0.0
H1275 H 0.29894 0.63984 0.41877 0.0
C1276 C 0.3522 0.6978 0.54461 0.0
C1277 C 0.34719 0.71534 0.55637 0.0
C1278 C 0.33954 0.68469 0.53634 0.0
C1279 C 0.32158 0.68879 0.53994 0.0
C1280 C 0.31656 0.7063 0.55204 0.0
C1281 C 0.32922 0.71942 0.56001 0.0
C1282 C 0.28045 0.66141 0.56677 0.0
C1283 C 0.28229 0.6487 0.51008 0.0
C1284 C 0.29321 0.67438 0.57664 0.0
C1285 C 0.30812 0.6749 0.53023 0.0
C1286 C 0.31002 0.66215 0.47387 0.0
C1287 C 0.29724 0.64923 0.46381 0.0
H1288 H 0.34981 0.29323 0.37878 0.0
H1289 H 0.33725 0.27147 0.59579 0.0
H1290 H 0.32659 0.3151 0.39438 0.0
H1291 H 0.31409 0.29347 0.61168 0.0
H1292 H 0.27027 0.33776 0.42213 0.0
H1293 H 0.29255 0.31486 0.40643 0.0
H1294 H 0.31385 0.32751 0.62421 0.0
H1295 H 0.29169 0.35046 0.63963 0.0
C1296 C 0.34209 0.29318 0.42984 0.0
C1297 C 0.3453 0.28073 0.48619 0.0
C1298 C 0.32876 0.30558 0.43849 0.0
C1299 C 0.31858 0.30593 0.50417 0.0
C1300 C 0.32182 0.2935 0.56066 0.0
C1301 C 0.33497 0.2809 0.55144 0.0
C1302 C 0.27968 0.33556 0.46663 0.0
C1303 C 0.27934 0.34586 0.53196 0.0
C1304 C 0.29244 0.32256 0.45753 0.0
C1305 C 0.30486 0.31945 0.51418 0.0
C1306 C 0.30434 0.32958 0.57997 0.0
C1307 C 0.29177 0.34276 0.58851 0.0
H1308 H 0.73435 0.3252 0.5276 0.0
H1309 H 0.69552 0.363 0.45817 0.0
H1310 H 0.71119 0.30314 0.54449 0.0
H1311 H 0.67243 0.34079 0.47287 0.0
H1312 H 0.64543 0.28535 0.41752 0.0
H1313 H 0.66781 0.30798 0.40342 0.0
H1314 H 0.68134 0.3029 0.63709 0.0
H1315 H 0.65824 0.28115 0.65346 0.0
C1316 C 0.72086 0.32871 0.51581 0.0
C1317 C 0.71661 0.34572 0.49192 0.0
C1318 C 0.70768 0.31617 0.52561 0.0
C1319 C 0.69013 0.32036 0.50985 0.0
C1320 C 0.6859 0.33731 0.48512 0.0
C1321 C 0.69903 0.34997 0.47707 0.0
C1322 C 0.65287 0.28923 0.46649 0.0
C1323 C 0.64991 0.28127 0.53671 0.0
C1324 C 0.66577 0.30211 0.45806 0.0
C1325 C 0.67625 0.30703 0.51913 0.0
C1326 C 0.67348 0.29913 0.58907 0.0
C1327 C 0.66032 0.28655 0.59805 0.0
loop_
_geom_bond_atom_site_label_1
_geom_bond_atom_site_label_2
_geom_bond_distance
_geom_bond_site_symmetry_2
_ccdc_geom_bond_type
Co0 N4 2.148 1_554 S
Co0 N10 2.128 . S
Co0 N20 2.194 . S
Co0 O25 2.351 . S
Co0 O26 2.155 . S
Co0 O27 2.096 . S
C1 N4 1.301 . S
C1 N5 1.328 . S
C1 H6 0.930 . S
C2 C3 1.333 . S
C2 N4 1.317 . S
C2 H7 0.930 . S
C3 C2 1.333 . S
C3 N5 1.350 . S
C3 H29 0.931 . S
N4 Co0 2.148 1_556 S
N4 C1 1.301 . S
N4 C2 1.317 . S
N5 C1 1.328 . S
N5 C3 1.350 . S
H6 C1 0.930 . S
H7 C2 0.930 . S
C8 O9 1.224 . S
C8 O27 1.247 . S
O9 C8 1.224 . S
N10 Co0 2.128 . S
N10 C11 1.355 . S
N10 C13 1.311 . S
C11 N10 1.355 . S
C11 C12 1.363 . S
C11 H23 0.929 . S
C12 C11 1.363 . S
C12 N14 1.375 . S
C12 H30 0.931 . S
C13 N10 1.311 . S
C13 N14 1.347 . S
C13 H24 0.929 . S
N14 C12 1.375 . S
N14 C13 1.347 . S
C15 C18 1.365 . S
C15 N20 1.328 . S
C15 H21 0.929 . S
C16 C17 1.362 . S
C16 C19 1.378 . S
C16 H31 0.929 . S
C17 C16 1.362 . S
C17 C18 1.366 . S
C18 C15 1.365 . S
C18 C17 1.366 . S
C18 H32 0.930 . S
C19 C16 1.378 . S
C19 N20 1.315 . S
C19 H22 0.930 . S
N20 Co0 2.194 . S
N20 C15 1.328 . S
N20 C19 1.315 . S
H21 C15 0.929 . S
H22 C19 0.930 . S
H23 C11 0.929 . S
H24 C13 0.929 . S
O25 Co0 2.351 . S
O25 C28 1.244 . S
O26 Co0 2.155 . S
O26 C28 1.240 . S
O27 Co0 2.096 . S
O27 C8 1.247 . S
C28 O25 1.244 . S
C28 O26 1.240 . S
H29 C3 0.931 . S
H30 C12 0.931 . S
H31 C16 0.929 . S
H32 C18 0.930 . S
Co33 N37 2.148 1_554 S
Co33 N43 2.128 . S
Co33 N53 2.194 . S
Co33 O58 2.351 . S
Co33 O59 2.155 . S
Co33 O60 2.096 . S
C34 N37 1.301 . S
C34 N38 1.328 . S
C34 H39 0.930 . S
C35 C36 1.333 . S
C35 N37 1.317 . S
C35 H40 0.930 . S
C36 C35 1.333 . S
C36 N38 1.350 . S
C36 H62 0.931 . S
N37 Co33 2.148 1_556 S
N37 C34 1.301 . S
N37 C35 1.317 . S
N38 C34 1.328 . S
N38 C36 1.350 . S
H39 C34 0.930 . S
H40 C35 0.930 . S
C41 O42 1.224 . S
C41 O60 1.247 . S
O42 C41 1.224 . S
N43 Co33 2.128 . S
N43 C44 1.355 . S
N43 C46 1.311 . S
C44 N43 1.355 . S
C44 C45 1.363 . S
C44 H56 0.929 . S
C45 C44 1.363 . S
C45 N47 1.375 . S
C45 H63 0.931 . S
C46 N43 1.311 . S
C46 N47 1.347 . S
C46 H57 0.929 . S
N47 C45 1.375 . S
N47 C46 1.347 . S
C48 C51 1.365 . S
C48 N53 1.328 . S
C48 H54 0.929 . S
C49 C50 1.362 . S
C49 C52 1.378 . S
C49 H64 0.929 . S
C50 C49 1.362 . S
C50 C51 1.366 . S
C51 C48 1.365 . S
C51 C50 1.366 . S
C51 H65 0.930 . S
C52 C49 1.378 . S
C52 N53 1.315 . S
C52 H55 0.930 . S
N53 Co33 2.194 . S
N53 C48 1.328 . S
N53 C52 1.315 . S
H54 C48 0.929 . S
H55 C52 0.930 . S
H56 C44 0.929 . S
H57 C46 0.929 . S
O58 Co33 2.351 . S
O58 C61 1.244 . S
O59 Co33 2.155 . S
O59 C61 1.240 . S
O60 Co33 2.096 . S
O60 C41 1.247 . S
C61 O58 1.244 . S
C61 O59 1.240 . S
H62 C36 0.931 . S
H63 C45 0.931 . S
H64 C49 0.929 . S
H65 C51 0.930 . S
Co66 N70 2.148 1_554 S
Co66 N76 2.128 . S
Co66 N86 2.194 . S
Co66 O91 2.351 . S
Co66 O92 2.155 . S
Co66 O93 2.096 . S
C67 N70 1.301 . S
C67 N71 1.328 . S
C67 H72 0.930 . S
C68 C69 1.333 . S
C68 N70 1.317 . S
C68 H73 0.930 . S
C69 C68 1.333 . S
C69 N71 1.350 . S
C69 H95 0.931 . S
N70 Co66 2.148 1_556 S
N70 C67 1.301 . S
N70 C68 1.317 . S
N71 C67 1.328 . S
N71 C69 1.350 . S
H72 C67 0.930 . S
H73 C68 0.930 . S
C74 O75 1.224 . S
C74 O93 1.247 . S
O75 C74 1.224 . S
N76 Co66 2.128 . S
N76 C77 1.355 . S
N76 C79 1.311 . S
C77 N76 1.355 . S
C77 C78 1.363 . S
C77 H89 0.929 . S
C78 C77 1.363 . S
C78 N80 1.375 . S
C78 H96 0.931 . S
C79 N76 1.311 . S
C79 N80 1.347 . S
C79 H90 0.929 . S
N80 C78 1.375 . S
N80 C79 1.347 . S
C81 C84 1.365 . S
C81 N86 1.328 . S
C81 H87 0.929 . S
C82 C83 1.362 . S
C82 C85 1.378 . S
C82 H97 0.929 . S
C83 C82 1.362 . S
C83 C84 1.366 . S
C84 C81 1.365 . S
C84 C83 1.366 . S
C84 H98 0.930 . S
C85 C82 1.378 . S
C85 N86 1.315 . S
C85 H88 0.930 . S
N86 Co66 2.194 . S
N86 C81 1.328 . S
N86 C85 1.315 . S
H87 C81 0.929 . S
H88 C85 0.930 . S
H89 C77 0.929 . S
H90 C79 0.929 . S
O91 Co66 2.351 . S
O91 C94 1.244 . S
O92 Co66 2.155 . S
O92 C94 1.240 . S
O93 Co66 2.096 . S
O93 C74 1.247 . S
C94 O91 1.244 . S
C94 O92 1.240 . S
H95 C69 0.931 . S
H96 C78 0.931 . S
H97 C82 0.929 . S
H98 C84 0.930 . S
Co99 N103 2.148 1_554 S
Co99 N109 2.128 . S
Co99 N119 2.194 . S
Co99 O124 2.351 . S
Co99 O125 2.155 . S
Co99 O126 2.096 . S
C100 N103 1.301 . S
C100 N104 1.328 . S
C100 H105 0.930 . S
C101 C102 1.333 . S
C101 N103 1.317 . S
C101 H106 0.930 . S
C102 C101 1.333 . S
C102 N104 1.350 . S
C102 H128 0.931 . S
N103 Co99 2.148 1_556 S
N103 C100 1.301 . S
N103 C101 1.317 . S
N104 C100 1.328 . S
N104 C102 1.350 . S
H105 C100 0.930 . S
H106 C101 0.930 . S
C107 O108 1.224 . S
C107 O126 1.247 . S
O108 C107 1.224 . S
N109 Co99 2.128 . S
N109 C110 1.355 . S
N109 C112 1.311 . S
C110 N109 1.355 . S
C110 C111 1.363 . S
C110 H122 0.929 . S
C111 C110 1.363 . S
C111 N113 1.375 . S
C111 H129 0.931 . S
C112 N109 1.311 . S
C112 N113 1.347 . S
C112 H123 0.929 . S
N113 C111 1.375 . S
N113 C112 1.347 . S
C114 C117 1.365 . S
C114 N119 1.328 . S
C114 H120 0.929 . S
C115 C116 1.362 . S
C115 C118 1.378 . S
C115 H130 0.929 . S
C116 C115 1.362 . S
C116 C117 1.366 . S
C117 C114 1.365 . S
C117 C116 1.366 . S
C117 H131 0.930 . S
C118 C115 1.378 . S
C118 N119 1.315 . S
C118 H121 0.930 . S
N119 Co99 2.194 . S
N119 C114 1.328 . S
N119 C118 1.315 . S
H120 C114 0.929 . S
H121 C118 0.930 . S
H122 C110 0.929 . S
H123 C112 0.929 . S
O124 Co99 2.351 . S
O124 C127 1.244 . S
O125 Co99 2.155 . S
O125 C127 1.240 . S
O126 Co99 2.096 . S
O126 C107 1.247 . S
C127 O124 1.244 . S
C127 O125 1.240 . S
H128 C102 0.931 . S
H129 C111 0.931 . S
H130 C115 0.929 . S
H131 C117 0.930 . S
Co132 N136 2.148 1_556 S
Co132 N142 2.128 . S
Co132 N152 2.194 . S
Co132 O157 2.351 . S
Co132 O158 2.155 . S
Co132 O159 2.096 . S
C133 N136 1.301 . S
C133 N137 1.328 . S
C133 H138 0.930 . S
C134 C135 1.333 . S
C134 N136 1.317 . S
C134 H139 0.930 . S
C135 C134 1.333 . S
C135 N137 1.350 . S
C135 H161 0.931 . S
N136 Co132 2.148 1_554 S
N136 C133 1.301 . S
N136 C134 1.317 . S
N137 C133 1.328 . S
N137 C135 1.350 . S
H138 C133 0.930 . S
H139 C134 0.930 . S
C140 O141 1.224 . S
C140 O159 1.247 . S
O141 C140 1.224 . S
N142 Co132 2.128 . S
N142 C143 1.355 . S
N142 C145 1.311 . S
C143 N142 1.355 . S
C143 C144 1.363 . S
C143 H155 0.929 . S
C144 C143 1.363 . S
C144 N146 1.375 . S
C144 H162 0.931 . S
C145 N142 1.311 . S
C145 N146 1.347 . S
C145 H156 0.929 . S
N146 C144 1.375 . S
N146 C145 1.347 . S
C147 C150 1.365 . S
C147 N152 1.328 . S
C147 H153 0.929 . S
C148 C149 1.362 . S
C148 C151 1.378 . S
C148 H163 0.929 . S
C149 C148 1.362 . S
C149 C150 1.366 . S
C150 C147 1.365 . S
C150 C149 1.366 . S
C150 H164 0.930 . S
C151 C148 1.378 . S
C151 N152 1.315 . S
C151 H154 0.930 . S
N152 Co132 2.194 . S
N152 C147 1.328 . S
N152 C151 1.315 . S
H153 C147 0.929 . S
H154 C151 0.930 . S
H155 C143 0.929 . S
H156 C145 0.929 . S
O157 Co132 2.351 . S
O157 C160 1.244 . S
O158 Co132 2.155 . S
O158 C160 1.240 . S
O159 Co132 2.096 . S
O159 C140 1.247 . S
C160 O157 1.244 . S
C160 O158 1.240 . S
H161 C135 0.931 . S
H162 C144 0.931 . S
H163 C148 0.929 . S
H164 C150 0.930 . S
Co165 N169 2.148 1_556 S
Co165 N175 2.128 . S
Co165 N185 2.194 . S
Co165 O190 2.351 . S
Co165 O191 2.155 . S
Co165 O192 2.096 . S
C166 N169 1.301 . S
C166 N170 1.328 . S
C166 H171 0.930 . S
C167 C168 1.333 . S
C167 N169 1.317 . S
C167 H172 0.930 . S
C168 C167 1.333 . S
C168 N170 1.350 . S
C168 H194 0.931 . S
N169 Co165 2.148 1_554 S
N169 C166 1.301 . S
N169 C167 1.317 . S
N170 C166 1.328 . S
N170 C168 1.350 . S
H171 C166 0.930 . S
H172 C167 0.930 . S
C173 O174 1.224 . S
C173 O192 1.247 . S
O174 C173 1.224 . S
N175 Co165 2.128 . S
N175 C176 1.355 . S
N175 C178 1.311 . S
C176 N175 1.355 . S
C176 C177 1.363 . S
C176 H188 0.929 . S
C177 C176 1.363 . S
C177 N179 1.375 . S
C177 H195 0.931 . S
C178 N175 1.311 . S
C178 N179 1.347 . S
C178 H189 0.929 . S
N179 C177 1.375 . S
N179 C178 1.347 . S
C180 C183 1.365 . S
C180 N185 1.328 . S
C180 H186 0.929 . S
C181 C182 1.362 . S
C181 C184 1.378 . S
C181 H196 0.929 . S
C182 C181 1.362 . S
C182 C183 1.366 . S
C183 C180 1.365 . S
C183 C182 1.366 . S
C183 H197 0.930 . S
C184 C181 1.378 . S
C184 N185 1.315 . S
C184 H187 0.930 . S
N185 Co165 2.194 . S
N185 C180 1.328 . S
N185 C184 1.315 . S
H186 C180 0.929 . S
H187 C184 0.930 . S
H188 C176 0.929 . S
H189 C178 0.929 . S
O190 Co165 2.351 . S
O190 C193 1.244 . S
O191 Co165 2.155 . S
O191 C193 1.240 . S
O192 Co165 2.096 . S
O192 C173 1.247 . S
C193 O190 1.244 . S
C193 O191 1.240 . S
H194 C168 0.931 . S
H195 C177 0.931 . S
H196 C181 0.929 . S
H197 C183 0.930 . S
Co198 N202 2.148 1_556 S
Co198 N208 2.128 . S
Co198 N218 2.194 . S
Co198 O223 2.351 . S
Co198 O224 2.155 . S
Co198 O225 2.096 . S
C199 N202 1.301 . S
C199 N203 1.328 . S
C199 H204 0.930 . S
C200 C201 1.333 . S
C200 N202 1.317 . S
C200 H205 0.930 . S
C201 C200 1.333 . S
C201 N203 1.350 . S
C201 H227 0.931 . S
N202 Co198 2.148 1_554 S
N202 C199 1.301 . S
N202 C200 1.317 . S
N203 C199 1.328 . S
N203 C201 1.350 . S
H204 C199 0.930 . S
H205 C200 0.930 . S
C206 O207 1.224 . S
C206 O225 1.247 . S
O207 C206 1.224 . S
N208 Co198 2.128 . S
N208 C209 1.355 . S
N208 C211 1.311 . S
C209 N208 1.355 . S
C209 C210 1.363 . S
C209 H221 0.929 . S
C210 C209 1.363 . S
C210 N212 1.375 . S
C210 H228 0.931 . S
C211 N208 1.311 . S
C211 N212 1.347 . S
C211 H222 0.929 . S
N212 C210 1.375 . S
N212 C211 1.347 . S
C213 C216 1.365 . S
C213 N218 1.328 . S
C213 H219 0.929 . S
C214 C215 1.362 . S
C214 C217 1.378 . S
C214 H229 0.929 . S
C215 C214 1.362 . S
C215 C216 1.366 . S
C216 C213 1.365 . S
C216 C215 1.366 . S
C216 H230 0.930 . S
C217 C214 1.378 . S
C217 N218 1.315 . S
C217 H220 0.930 . S
N218 Co198 2.194 . S
N218 C213 1.328 . S
N218 C217 1.315 . S
H219 C213 0.929 . S
H220 C217 0.930 . S
H221 C209 0.929 . S
H222 C211 0.929 . S
O223 Co198 2.351 . S
O223 C226 1.244 . S
O224 Co198 2.155 . S
O224 C226 1.240 . S
O225 Co198 2.096 . S
O225 C206 1.247 . S
C226 O223 1.244 . S
C226 O224 1.240 . S
H227 C201 0.931 . S
H228 C210 0.931 . S
H229 C214 0.929 . S
H230 C216 0.930 . S
Co231 N235 2.148 1_556 S
Co231 N241 2.128 . S
Co231 N251 2.194 . S
Co231 O256 2.351 . S
Co231 O257 2.155 . S
Co231 O258 2.096 . S
C232 N235 1.301 . S
C232 N236 1.328 . S
C232 H237 0.930 . S
C233 C234 1.333 . S
C233 N235 1.317 . S
C233 H238 0.930 . S
C234 C233 1.333 . S
C234 N236 1.350 . S
C234 H260 0.931 . S
N235 Co231 2.148 1_554 S
N235 C232 1.301 . S
N235 C233 1.317 . S
N236 C232 1.328 . S
N236 C234 1.350 . S
H237 C232 0.930 . S
H238 C233 0.930 . S
C239 O240 1.224 . S
C239 O258 1.247 . S
O240 C239 1.224 . S
N241 Co231 2.128 . S
N241 C242 1.355 . S
N241 C244 1.311 . S
C242 N241 1.355 . S
C242 C243 1.363 . S
C242 H254 0.929 . S
C243 C242 1.363 . S
C243 N245 1.375 . S
C243 H261 0.931 . S
C244 N241 1.311 . S
C244 N245 1.347 . S
C244 H255 0.929 . S
N245 C243 1.375 . S
N245 C244 1.347 . S
C246 C249 1.365 . S
C246 N251 1.328 . S
C246 H252 0.929 . S
C247 C248 1.362 . S
C247 C250 1.378 . S
C247 H262 0.929 . S
C248 C247 1.362 . S
C248 C249 1.366 . S
C249 C246 1.365 . S
C249 C248 1.366 . S
C249 H263 0.930 . S
C250 C247 1.378 . S
C250 N251 1.315 . S
C250 H253 0.930 . S
N251 Co231 2.194 . S
N251 C246 1.328 . S
N251 C250 1.315 . S
H252 C246 0.929 . S
H253 C250 0.930 . S
H254 C242 0.929 . S
H255 C244 0.929 . S
O256 Co231 2.351 . S
O256 C259 1.244 . S
O257 Co231 2.155 . S
O257 C259 1.240 . S
O258 Co231 2.096 . S
O258 C239 1.247 . S
C259 O256 1.244 . S
C259 O257 1.240 . S
H260 C234 0.931 . S
H261 C243 0.931 . S
H262 C247 0.929 . S
H263 C249 0.930 . S
Co264 N268 2.148 . S
Co264 N274 2.128 . S
Co264 N284 2.194 . S
Co264 O289 2.351 . S
Co264 O290 2.155 . S
Co264 O291 2.096 . S
C265 N268 1.301 . S
C265 N269 1.328 . S
C265 H270 0.930 . S
C266 C267 1.333 . S
C266 N268 1.317 . S
C266 H271 0.930 . S
C267 C266 1.333 . S
C267 N269 1.350 . S
C267 H293 0.931 . S
N268 Co264 2.148 . S
N268 C265 1.301 . S
N268 C266 1.317 . S
N269 C265 1.328 . S
N269 C267 1.350 . S
H270 C265 0.930 . S
H271 C266 0.930 . S
C272 O273 1.224 . S
C272 O291 1.247 . S
O273 C272 1.224 . S
N274 Co264 2.128 . S
N274 C275 1.355 . S
N274 C277 1.311 . S
C275 N274 1.355 . S
C275 C276 1.363 . S
C275 H287 0.929 . S
C276 C275 1.363 . S
C276 N278 1.375 . S
C276 H294 0.931 . S
C277 N274 1.311 . S
C277 N278 1.347 . S
C277 H288 0.929 . S
N278 C276 1.375 . S
N278 C277 1.347 . S
C279 C282 1.365 . S
C279 N284 1.328 . S
C279 H285 0.929 . S
C280 C281 1.362 . S
C280 C283 1.378 . S
C280 H295 0.929 . S
C281 C280 1.362 . S
C281 C282 1.366 . S
C282 C279 1.365 . S
C282 C281 1.366 . S
C282 H296 0.930 . S
C283 C280 1.378 . S
C283 N284 1.315 . S
C283 H286 0.930 . S
N284 Co264 2.194 . S
N284 C279 1.328 . S
N284 C283 1.315 . S
H285 C279 0.929 . S
H286 C283 0.930 . S
H287 C275 0.929 . S
H288 C277 0.929 . S
O289 Co264 2.351 . S
O289 C292 1.244 . S
O290 Co264 2.155 . S
O290 C292 1.240 . S
O291 Co264 2.096 . S
O291 C272 1.247 . S
C292 O289 1.244 . S
C292 O290 1.240 . S
H293 C267 0.931 . S
H294 C276 0.931 . S
H295 C280 0.929 . S
H296 C282 0.930 . S
Co297 N301 2.148 . S
Co297 N307 2.128 . S
Co297 N317 2.194 . S
Co297 O322 2.351 . S
Co297 O323 2.155 . S
Co297 O324 2.096 . S
C298 N301 1.301 . S
C298 N302 1.328 . S
C298 H303 0.930 . S
C299 C300 1.333 . S
C299 N301 1.317 . S
C299 H304 0.930 . S
C300 C299 1.333 . S
C300 N302 1.350 . S
C300 H326 0.931 . S
N301 Co297 2.148 . S
N301 C298 1.301 . S
N301 C299 1.317 . S
N302 C298 1.328 . S
N302 C300 1.350 . S
H303 C298 0.930 . S
H304 C299 0.930 . S
C305 O306 1.224 . S
C305 O324 1.247 . S
O306 C305 1.224 . S
N307 Co297 2.128 . S
N307 C308 1.355 . S
N307 C310 1.311 . S
C308 N307 1.355 . S
C308 C309 1.363 . S
C308 H320 0.929 . S
C309 C308 1.363 . S
C309 N311 1.375 . S
C309 H327 0.931 . S
C310 N307 1.311 . S
C310 N311 1.347 . S
C310 H321 0.929 . S
N311 C309 1.375 . S
N311 C310 1.347 . S
C312 C315 1.365 . S
C312 N317 1.328 . S
C312 H318 0.929 . S
C313 C314 1.362 . S
C313 C316 1.378 . S
C313 H328 0.929 . S
C314 C313 1.362 . S
C314 C315 1.366 . S
C315 C312 1.365 . S
C315 C314 1.366 . S
C315 H329 0.930 . S
C316 C313 1.378 . S
C316 N317 1.315 . S
C316 H319 0.930 . S
N317 Co297 2.194 . S
N317 C312 1.328 . S
N317 C316 1.315 . S
H318 C312 0.929 . S
H319 C316 0.930 . S
H320 C308 0.929 . S
H321 C310 0.929 . S
O322 Co297 2.351 . S
O322 C325 1.244 . S
O323 Co297 2.155 . S
O323 C325 1.240 . S
O324 Co297 2.096 . S
O324 C305 1.247 . S
C325 O322 1.244 . S
C325 O323 1.240 . S
H326 C300 0.931 . S
H327 C309 0.931 . S
H328 C313 0.929 . S
H329 C315 0.930 . S
Co330 N334 2.148 . S
Co330 N340 2.128 . S
Co330 N350 2.194 . S
Co330 O355 2.351 . S
Co330 O356 2.155 . S
Co330 O357 2.096 . S
C331 N334 1.301 . S
C331 N335 1.328 . S
C331 H336 0.930 . S
C332 C333 1.333 . S
C332 N334 1.317 . S
C332 H337 0.930 . S
C333 C332 1.333 . S
C333 N335 1.350 . S
C333 H359 0.931 . S
N334 Co330 2.148 . S
N334 C331 1.301 . S
N334 C332 1.317 . S
N335 C331 1.328 . S
N335 C333 1.350 . S
H336 C331 0.930 . S
H337 C332 0.930 . S
C338 O339 1.224 . S
C338 O357 1.247 . S
O339 C338 1.224 . S
N340 Co330 2.128 . S
N340 C341 1.355 . S
N340 C343 1.311 . S
C341 N340 1.355 . S
C341 C342 1.363 . S
C341 H353 0.929 . S
C342 C341 1.363 . S
C342 N344 1.375 . S
C342 H360 0.931 . S
C343 N340 1.311 . S
C343 N344 1.347 . S
C343 H354 0.929 . S
N344 C342 1.375 . S
N344 C343 1.347 . S
C345 C348 1.365 . S
C345 N350 1.328 . S
C345 H351 0.929 . S
C346 C347 1.362 . S
C346 C349 1.378 . S
C346 H361 0.929 . S
C347 C346 1.362 . S
C347 C348 1.366 . S
C348 C345 1.365 . S
C348 C347 1.366 . S
C348 H362 0.930 . S
C349 C346 1.378 . S
C349 N350 1.315 . S
C349 H352 0.930 . S
N350 Co330 2.194 . S
N350 C345 1.328 . S
N350 C349 1.315 . S
H351 C345 0.929 . S
H352 C349 0.930 . S
H353 C341 0.929 . S
H354 C343 0.929 . S
O355 Co330 2.351 . S
O355 C358 1.244 . S
O356 Co330 2.155 . S
O356 C358 1.240 . S
O357 Co330 2.096 . S
O357 C338 1.247 . S
C358 O355 1.244 . S
C358 O356 1.240 . S
H359 C333 0.931 . S
H360 C342 0.931 . S
H361 C346 0.929 . S
H362 C348 0.930 . S
Co363 N367 2.148 . S
Co363 N373 2.128 . S
Co363 N383 2.194 . S
Co363 O388 2.351 . S
Co363 O389 2.155 . S
Co363 O390 2.096 . S
C364 N367 1.301 . S
C364 N368 1.328 . S
C364 H369 0.930 . S
C365 C366 1.333 . S
C365 N367 1.317 . S
C365 H370 0.930 . S
C366 C365 1.333 . S
C366 N368 1.350 . S
C366 H392 0.931 . S
N367 Co363 2.148 . S
N367 C364 1.301 . S
N367 C365 1.317 . S
N368 C364 1.328 . S
N368 C366 1.350 . S
H369 C364 0.930 . S
H370 C365 0.930 . S
C371 O372 1.224 . S
C371 O390 1.247 . S
O372 C371 1.224 . S
N373 Co363 2.128 . S
N373 C374 1.355 . S
N373 C376 1.311 . S
C374 N373 1.355 . S
C374 C375 1.363 . S
C374 H386 0.929 . S
C375 C374 1.363 . S
C375 N377 1.375 . S
C375 H393 0.931 . S
C376 N373 1.311 . S
C376 N377 1.347 . S
C376 H387 0.929 . S
N377 C375 1.375 . S
N377 C376 1.347 . S
C378 C381 1.365 . S
C378 N383 1.328 . S
C378 H384 0.929 . S
C379 C380 1.362 . S
C379 C382 1.378 . S
C379 H394 0.929 . S
C380 C379 1.362 . S
C380 C381 1.366 . S
C381 C378 1.365 . S
C381 C380 1.366 . S
C381 H395 0.930 . S
C382 C379 1.378 . S
C382 N383 1.315 . S
C382 H385 0.930 . S
N383 Co363 2.194 . S
N383 C378 1.328 . S
N383 C382 1.315 . S
H384 C378 0.929 . S
H385 C382 0.930 . S
H386 C374 0.929 . S
H387 C376 0.929 . S
O388 Co363 2.351 . S
O388 C391 1.244 . S
O389 Co363 2.155 . S
O389 C391 1.240 . S
O390 Co363 2.096 . S
O390 C371 1.247 . S
C391 O388 1.244 . S
C391 O389 1.240 . S
H392 C366 0.931 . S
H393 C375 0.931 . S
H394 C379 0.929 . S
H395 C381 0.930 . S
Co396 N400 2.148 . S
Co396 N406 2.128 . S
Co396 N416 2.194 . S
Co396 O421 2.351 . S
Co396 O422 2.155 . S
Co396 O423 2.096 . S
C397 N400 1.301 . S
C397 N401 1.328 . S
C397 H402 0.930 . S
C398 C399 1.333 . S
C398 N400 1.317 . S
C398 H403 0.930 . S
C399 C398 1.333 . S
C399 N401 1.350 . S
C399 H425 0.931 . S
N400 Co396 2.148 . S
N400 C397 1.301 . S
N400 C398 1.317 . S
N401 C397 1.328 . S
N401 C399 1.350 . S
H402 C397 0.930 . S
H403 C398 0.930 . S
C404 O405 1.224 . S
C404 O423 1.247 . S
O405 C404 1.224 . S
N406 Co396 2.128 . S
N406 C407 1.355 . S
N406 C409 1.311 . S
C407 N406 1.355 . S
C407 C408 1.363 . S
C407 H419 0.929 . S
C408 C407 1.363 . S
C408 N410 1.375 . S
C408 H426 0.931 . S
C409 N406 1.311 . S
C409 N410 1.347 . S
C409 H420 0.929 . S
N410 C408 1.375 . S
N410 C409 1.347 . S
C411 C414 1.365 . S
C411 N416 1.328 . S
C411 H417 0.929 . S
C412 C413 1.362 . S
C412 C415 1.378 . S
C412 H427 0.929 . S
C413 C412 1.362 . S
C413 C414 1.366 . S
C414 C411 1.365 . S
C414 C413 1.366 . S
C414 H428 0.930 . S
C415 C412 1.378 . S
C415 N416 1.315 . S
C415 H418 0.930 . S
N416 Co396 2.194 . S
N416 C411 1.328 . S
N416 C415 1.315 . S
H417 C411 0.929 . S
H418 C415 0.930 . S
H419 C407 0.929 . S
H420 C409 0.929 . S
O421 Co396 2.351 . S
O421 C424 1.244 . S
O422 Co396 2.155 . S
O422 C424 1.240 . S
O423 Co396 2.096 . S
O423 C404 1.247 . S
C424 O421 1.244 . S
C424 O422 1.240 . S
H425 C399 0.931 . S
H426 C408 0.931 . S
H427 C412 0.929 . S
H428 C414 0.930 . S
Co429 N433 2.148 . S
Co429 N439 2.128 . S
Co429 N449 2.194 . S
Co429 O454 2.351 . S
Co429 O455 2.155 . S
Co429 O456 2.096 . S
C430 N433 1.301 . S
C430 N434 1.328 . S
C430 H435 0.930 . S
C431 C432 1.333 . S
C431 N433 1.317 . S
C431 H436 0.930 . S
C432 C431 1.333 . S
C432 N434 1.350 . S
C432 H458 0.931 . S
N433 Co429 2.148 . S
N433 C430 1.301 . S
N433 C431 1.317 . S
N434 C430 1.328 . S
N434 C432 1.350 . S
H435 C430 0.930 . S
H436 C431 0.930 . S
C437 O438 1.224 . S
C437 O456 1.247 . S
O438 C437 1.224 . S
N439 Co429 2.128 . S
N439 C440 1.355 . S
N439 C442 1.311 . S
C440 N439 1.355 . S
C440 C441 1.363 . S
C440 H452 0.929 . S
C441 C440 1.363 . S
C441 N443 1.375 . S
C441 H459 0.931 . S
C442 N439 1.311 . S
C442 N443 1.347 . S
C442 H453 0.929 . S
N443 C441 1.375 . S
N443 C442 1.347 . S
C444 C447 1.365 . S
C444 N449 1.328 . S
C444 H450 0.929 . S
C445 C446 1.362 . S
C445 C448 1.378 . S
C445 H460 0.929 . S
C446 C445 1.362 . S
C446 C447 1.366 . S
C447 C444 1.365 . S
C447 C446 1.366 . S
C447 H461 0.930 . S
C448 C445 1.378 . S
C448 N449 1.315 . S
C448 H451 0.930 . S
N449 Co429 2.194 . S
N449 C444 1.328 . S
N449 C448 1.315 . S
H450 C444 0.929 . S
H451 C448 0.930 . S
H452 C440 0.929 . S
H453 C442 0.929 . S
O454 Co429 2.351 . S
O454 C457 1.244 . S
O455 Co429 2.155 . S
O455 C457 1.240 . S
O456 Co429 2.096 . S
O456 C437 1.247 . S
C457 O454 1.244 . S
C457 O455 1.240 . S
H458 C432 0.931 . S
H459 C441 0.931 . S
H460 C445 0.929 . S
H461 C447 0.930 . S
Co462 N466 2.148 . S
Co462 N472 2.128 . S
Co462 N482 2.194 . S
Co462 O487 2.351 . S
Co462 O488 2.155 . S
Co462 O489 2.096 . S
C463 N466 1.301 . S
C463 N467 1.328 . S
C463 H468 0.930 . S
C464 C465 1.333 . S
C464 N466 1.317 . S
C464 H469 0.930 . S
C465 C464 1.333 . S
C465 N467 1.350 . S
C465 H491 0.931 . S
N466 Co462 2.148 . S
N466 C463 1.301 . S
N466 C464 1.317 . S
N467 C463 1.328 . S
N467 C465 1.350 . S
H468 C463 0.930 . S
H469 C464 0.930 . S
C470 O471 1.224 . S
C470 O489 1.247 . S
O471 C470 1.224 . S
N472 Co462 2.128 . S
N472 C473 1.355 . S
N472 C475 1.311 . S
C473 N472 1.355 . S
C473 C474 1.363 . S
C473 H485 0.929 . S
C474 C473 1.363 . S
C474 N476 1.375 . S
C474 H492 0.931 . S
C475 N472 1.311 . S
C475 N476 1.347 . S
C475 H486 0.929 . S
N476 C474 1.375 . S
N476 C475 1.347 . S
C477 C480 1.365 . S
C477 N482 1.328 . S
C477 H483 0.929 . S
C478 C479 1.362 . S
C478 C481 1.378 . S
C478 H493 0.929 . S
C479 C478 1.362 . S
C479 C480 1.366 . S
C480 C477 1.365 . S
C480 C479 1.366 . S
C480 H494 0.930 . S
C481 C478 1.378 . S
C481 N482 1.315 . S
C481 H484 0.930 . S
N482 Co462 2.194 . S
N482 C477 1.328 . S
N482 C481 1.315 . S
H483 C477 0.929 . S
H484 C481 0.930 . S
H485 C473 0.929 . S
H486 C475 0.929 . S
O487 Co462 2.351 . S
O487 C490 1.244 . S
O488 Co462 2.155 . S
O488 C490 1.240 . S
O489 Co462 2.096 . S
O489 C470 1.247 . S
C490 O487 1.244 . S
C490 O488 1.240 . S
H491 C465 0.931 . S
H492 C474 0.931 . S
H493 C478 0.929 . S
H494 C480 0.930 . S
Co495 N499 2.148 . S
Co495 N505 2.128 . S
Co495 N515 2.194 . S
Co495 O520 2.351 . S
Co495 O521 2.155 . S
Co495 O522 2.096 . S
C496 N499 1.301 . S
C496 N500 1.328 . S
C496 H501 0.930 . S
C497 C498 1.333 . S
C497 N499 1.317 . S
C497 H502 0.930 . S
C498 C497 1.333 . S
C498 N500 1.350 . S
C498 H524 0.931 . S
N499 Co495 2.148 . S
N499 C496 1.301 . S
N499 C497 1.317 . S
N500 C496 1.328 . S
N500 C498 1.350 . S
H501 C496 0.930 . S
H502 C497 0.930 . S
C503 O504 1.224 . S
C503 O522 1.247 . S
O504 C503 1.224 . S
N505 Co495 2.128 . S
N505 C506 1.355 . S
N505 C508 1.311 . S
C506 N505 1.355 . S
C506 C507 1.363 . S
C506 H518 0.929 . S
C507 C506 1.363 . S
C507 N509 1.375 . S
C507 H525 0.931 . S
C508 N505 1.311 . S
C508 N509 1.347 . S
C508 H519 0.929 . S
N509 C507 1.375 . S
N509 C508 1.347 . S
C510 C513 1.365 . S
C510 N515 1.328 . S
C510 H516 0.929 . S
C511 C512 1.362 . S
C511 C514 1.378 . S
C511 H526 0.929 . S
C512 C511 1.362 . S
C512 C513 1.366 . S
C513 C510 1.365 . S
C513 C512 1.366 . S
C513 H527 0.930 . S
C514 C511 1.378 . S
C514 N515 1.315 . S
C514 H517 0.930 . S
N515 Co495 2.194 . S
N515 C510 1.328 . S
N515 C514 1.315 . S
H516 C510 0.929 . S
H517 C514 0.930 . S
H518 C506 0.929 . S
H519 C508 0.929 . S
O520 Co495 2.351 . S
O520 C523 1.244 . S
O521 Co495 2.155 . S
O521 C523 1.240 . S
O522 Co495 2.096 . S
O522 C503 1.247 . S
C523 O520 1.244 . S
C523 O521 1.240 . S
H524 C498 0.931 . S
H525 C507 0.931 . S
H526 C511 0.929 . S
H527 C513 0.930 . S
H528 C536 0.950 . S
H529 C541 0.950 . S
H530 C538 0.950 . S
H531 C540 0.950 . S
H532 C542 0.950 . S
H533 C544 0.950 . S
H534 C546 0.950 . S
H535 C547 0.950 . S
C536 H528 0.950 . S
C536 C537 1.386 . S
C536 C538 1.391 . S
C537 C536 1.386 . S
C537 C541 1.393 . S
C538 H530 0.950 . S
C538 C536 1.391 . S
C538 C539 1.400 . S
C539 C538 1.400 . S
C539 C540 1.398 . S
C539 C545 1.491 . S
C540 H531 0.950 . S
C540 C539 1.398 . S
C540 C541 1.391 . S
C541 H529 0.950 . S
C541 C537 1.393 . S
C541 C540 1.391 . S
C542 H532 0.950 . S
C542 C543 1.386 . S
C542 C544 1.391 . S
C543 C542 1.386 . S
C543 C547 1.393 . S
C544 H533 0.950 . S
C544 C542 1.391 . S
C544 C545 1.400 . S
C545 C539 1.491 . S
C545 C544 1.400 . S
C545 C546 1.398 . S
C546 H534 0.950 . S
C546 C545 1.398 . S
C546 C547 1.391 . S
C547 H535 0.950 . S
C547 C543 1.393 . S
C547 C546 1.391 . S
H548 C556 0.950 . S
H549 C561 0.950 . S
H550 C558 0.950 . S
H551 C560 0.950 . S
H552 C562 0.950 . S
H553 C564 0.950 . S
H554 C566 0.950 . S
H555 C567 0.950 . S
C556 H548 0.950 . S
C556 C557 1.386 . S
C556 C558 1.391 . S
C557 C556 1.386 . S
C557 C561 1.393 . S
C558 H550 0.950 . S
C558 C556 1.391 . S
C558 C559 1.400 . S
C559 C558 1.400 . S
C559 C560 1.398 . S
C559 C565 1.491 . S
C560 H551 0.950 . S
C560 C559 1.398 . S
C560 C561 1.391 . S
C561 H549 0.950 . S
C561 C557 1.393 . S
C561 C560 1.391 . S
C562 H552 0.950 . S
C562 C563 1.386 . S
C562 C564 1.391 . S
C563 C562 1.386 . S
C563 C567 1.393 . S
C564 H553 0.950 . S
C564 C562 1.391 . S
C564 C565 1.400 . S
C565 C559 1.491 . S
C565 C564 1.400 . S
C565 C566 1.398 . S
C566 H554 0.950 . S
C566 C565 1.398 . S
C566 C567 1.391 . S
C567 H555 0.950 . S
C567 C563 1.393 . S
C567 C566 1.391 . S
H568 C576 0.950 . S
H569 C581 0.950 . S
H570 C578 0.950 . S
H571 C580 0.950 . S
H572 C582 0.950 . S
H573 C584 0.950 . S
H574 C586 0.950 . S
H575 C587 0.950 . S
C576 H568 0.950 . S
C576 C577 1.386 . S
C576 C578 1.391 . S
C577 C576 1.386 . S
C577 C581 1.393 . S
C578 H570 0.950 . S
C578 C576 1.391 . S
C578 C579 1.400 . S
C579 C578 1.400 . S
C579 C580 1.398 . S
C579 C585 1.491 . S
C580 H571 0.950 . S
C580 C579 1.398 . S
C580 C581 1.391 . S
C581 H569 0.950 . S
C581 C577 1.393 . S
C581 C580 1.391 . S
C582 H572 0.950 . S
C582 C583 1.386 . S
C582 C584 1.391 . S
C583 C582 1.386 . S
C583 C587 1.393 . S
C584 H573 0.950 . S
C584 C582 1.391 . S
C584 C585 1.400 . S
C585 C579 1.491 . S
C585 C584 1.400 . S
C585 C586 1.398 . S
C586 H574 0.950 . S
C586 C585 1.398 . S
C586 C587 1.391 . S
C587 H575 0.950 . S
C587 C583 1.393 . S
C587 C586 1.391 . S
H588 C596 0.950 . S
H589 C601 0.950 . S
H590 C598 0.950 . S
H591 C600 0.950 . S
H592 C602 0.950 . S
H593 C604 0.950 . S
H594 C606 0.950 . S
H595 C607 0.950 . S
C596 H588 0.950 . S
C596 C597 1.386 . S
C596 C598 1.391 . S
C597 C596 1.386 . S
C597 C601 1.393 . S
C598 H590 0.950 . S
C598 C596 1.391 . S
C598 C599 1.400 . S
C599 C598 1.400 . S
C599 C600 1.398 . S
C599 C605 1.491 . S
C600 H591 0.950 . S
C600 C599 1.398 . S
C600 C601 1.391 . S
C601 H589 0.950 . S
C601 C597 1.393 . S
C601 C600 1.391 . S
C602 H592 0.950 . S
C602 C603 1.386 . S
C602 C604 1.391 . S
C603 C602 1.386 . S
C603 C607 1.393 . S
C604 H593 0.950 . S
C604 C602 1.391 . S
C604 C605 1.400 . S
C605 C599 1.491 . S
C605 C604 1.400 . S
C605 C606 1.398 . S
C606 H594 0.950 . S
C606 C605 1.398 . S
C606 C607 1.391 . S
C607 H595 0.950 . S
C607 C603 1.393 . S
C607 C606 1.391 . S
H608 C616 0.950 . S
H609 C621 0.950 . S
H610 C618 0.950 . S
H611 C620 0.950 . S
H612 C622 0.950 . S
H613 C624 0.950 . S
H614 C626 0.950 . S
H615 C627 0.950 . S
C616 H608 0.950 . S
C616 C617 1.386 . S
C616 C618 1.391 . S
C617 C616 1.386 . S
C617 C621 1.393 . S
C618 H610 0.950 . S
C618 C616 1.391 . S
C618 C619 1.400 . S
C619 C618 1.400 . S
C619 C620 1.398 . S
C619 C625 1.491 . S
C620 H611 0.950 . S
C620 C619 1.398 . S
C620 C621 1.391 . S
C621 H609 0.950 . S
C621 C617 1.393 . S
C621 C620 1.391 . S
C622 H612 0.950 . S
C622 C623 1.386 . S
C622 C624 1.391 . S
C623 C622 1.386 . S
C623 C627 1.393 . S
C624 H613 0.950 . S
C624 C622 1.391 . S
C624 C625 1.400 . S
C625 C619 1.491 . S
C625 C624 1.400 . S
C625 C626 1.398 . S
C626 H614 0.950 . S
C626 C625 1.398 . S
C626 C627 1.391 . S
C627 H615 0.950 . S
C627 C623 1.393 . S
C627 C626 1.391 . S
H628 C636 0.950 . S
H629 C641 0.950 . S
H630 C638 0.950 . S
H631 C640 0.950 . S
H632 C642 0.950 . S
H633 C644 0.950 . S
H634 C646 0.950 . S
H635 C647 0.950 . S
C636 H628 0.950 . S
C636 C637 1.386 . S
C636 C638 1.391 . S
C637 C636 1.386 . S
C637 C641 1.393 . S
C638 H630 0.950 . S
C638 C636 1.391 . S
C638 C639 1.400 . S
C639 C638 1.400 . S
C639 C640 1.398 . S
C639 C645 1.491 . S
C640 H631 0.950 . S
C640 C639 1.398 . S
C640 C641 1.391 . S
C641 H629 0.950 . S
C641 C637 1.393 . S
C641 C640 1.391 . S
C642 H632 0.950 . S
C642 C643 1.386 . S
C642 C644 1.391 . S
C643 C642 1.386 . S
C643 C647 1.393 . S
C644 H633 0.950 . S
C644 C642 1.391 . S
C644 C645 1.400 . S
C645 C639 1.491 . S
C645 C644 1.400 . S
C645 C646 1.398 . S
C646 H634 0.950 . S
C646 C645 1.398 . S
C646 C647 1.391 . S
C647 H635 0.950 . S
C647 C643 1.393 . S
C647 C646 1.391 . S
H648 C656 0.950 . S
H649 C661 0.950 . S
H650 C658 0.950 . S
H651 C660 0.950 . S
H652 C662 0.950 . S
H653 C664 0.950 . S
H654 C666 0.950 . S
H655 C667 0.950 . S
C656 H648 0.950 . S
C656 C657 1.386 . S
C656 C658 1.391 . S
C657 C656 1.386 . S
C657 C661 1.393 . S
C658 H650 0.950 . S
C658 C656 1.391 . S
C658 C659 1.400 . S
C659 C658 1.400 . S
C659 C660 1.398 . S
C659 C665 1.491 . S
C660 H651 0.950 . S
C660 C659 1.398 . S
C660 C661 1.391 . S
C661 H649 0.950 . S
C661 C657 1.393 . S
C661 C660 1.391 . S
C662 H652 0.950 . S
C662 C663 1.386 . S
C662 C664 1.391 . S
C663 C662 1.386 . S
C663 C667 1.393 . S
C664 H653 0.950 . S
C664 C662 1.391 . S
C664 C665 1.400 . S
C665 C659 1.491 . S
C665 C664 1.400 . S
C665 C666 1.398 . S
C666 H654 0.950 . S
C666 C665 1.398 . S
C666 C667 1.391 . S
C667 H655 0.950 . S
C667 C663 1.393 . S
C667 C666 1.391 . S
H668 C676 0.950 . S
H669 C681 0.950 . S
H670 C678 0.950 . S
H671 C680 0.950 . S
H672 C682 0.950 . S
H673 C684 0.950 . S
H674 C686 0.950 . S
H675 C687 0.950 . S
C676 H668 0.950 . S
C676 C677 1.386 . S
C676 C678 1.391 . S
C677 C676 1.386 . S
C677 C681 1.393 . S
C678 H670 0.950 . S
C678 C676 1.391 . S
C678 C679 1.400 . S
C679 C678 1.400 . S
C679 C680 1.398 . S
C679 C685 1.491 . S
C680 H671 0.950 . S
C680 C679 1.398 . S
C680 C681 1.391 . S
C681 H669 0.950 . S
C681 C677 1.393 . S
C681 C680 1.391 . S
C682 H672 0.950 . S
C682 C683 1.386 . S
C682 C684 1.391 . S
C683 C682 1.386 . S
C683 C687 1.393 . S
C684 H673 0.950 . S
C684 C682 1.391 . S
C684 C685 1.400 . S
C685 C679 1.491 . S
C685 C684 1.400 . S
C685 C686 1.398 . S
C686 H674 0.950 . S
C686 C685 1.398 . S
C686 C687 1.391 . S
C687 H675 0.950 . S
C687 C683 1.393 . S
C687 C686 1.391 . S
H688 C696 0.950 . S
H689 C701 0.950 . S
H690 C698 0.950 . S
H691 C700 0.950 . S
H692 C702 0.950 . S
H693 C704 0.950 1_554 S
H694 C706 0.950 . S
H695 C707 0.950 . S
C696 H688 0.950 . S
C696 C697 1.386 . S
C696 C698 1.391 . S
C697 C696 1.386 . S
C697 C701 1.393 . S
C698 H690 0.950 . S
C698 C696 1.391 . S
C698 C699 1.400 . S
C699 C698 1.400 . S
C699 C700 1.398 . S
C699 C705 1.491 . S
C700 H691 0.950 . S
C700 C699 1.398 . S
C700 C701 1.391 . S
C701 H689 0.950 . S
C701 C697 1.393 . S
C701 C700 1.391 . S
C702 H692 0.950 . S
C702 C703 1.386 . S
C702 C704 1.391 . S
C703 C702 1.386 . S
C703 C707 1.393 . S
C704 H693 0.950 1_556 S
C704 C702 1.391 . S
C704 C705 1.400 1_556 S
C705 C699 1.491 . S
C705 C704 1.400 1_554 S
C705 C706 1.398 . S
C706 H694 0.950 . S
C706 C705 1.398 . S
C706 C707 1.391 1_554 S
C707 H695 0.950 . S
C707 C703 1.393 . S
C707 C706 1.391 1_556 S
H708 C716 0.950 . S
H709 C721 0.950 . S
H710 C718 0.950 . S
H711 C720 0.950 . S
H712 C722 0.950 . S
H713 C724 0.950 . S
H714 C726 0.950 1_554 S
H715 C727 0.950 . S
C716 H708 0.950 . S
C716 C717 1.386 . S
C716 C718 1.391 . S
C717 C716 1.386 . S
C717 C721 1.393 . S
C718 H710 0.950 . S
C718 C716 1.391 . S
C718 C719 1.400 . S
C719 C718 1.400 . S
C719 C720 1.398 . S
C719 C725 1.491 . S
C720 H711 0.950 . S
C720 C719 1.398 . S
C720 C721 1.391 . S
C721 H709 0.950 . S
C721 C717 1.393 . S
C721 C720 1.391 . S
C722 H712 0.950 . S
C722 C723 1.386 . S
C722 C724 1.391 1_556 S
C723 C722 1.386 . S
C723 C727 1.393 . S
C724 H713 0.950 . S
C724 C722 1.391 1_554 S
C724 C725 1.400 . S
C725 C719 1.491 . S
C725 C724 1.400 . S
C725 C726 1.398 1_554 S
C726 H714 0.950 1_556 S
C726 C725 1.398 1_556 S
C726 C727 1.392 . S
C727 H715 0.950 . S
C727 C723 1.393 . S
C727 C726 1.392 . S
H728 C736 0.950 . S
H729 C741 0.950 . S
H730 C738 0.950 . S
H731 C740 0.950 . S
H732 C742 0.950 . S
H733 C744 0.950 . S
H734 C746 0.945 1_554 S
H735 C747 0.950 . S
C736 H728 0.950 . S
C736 C737 1.386 . S
C736 C738 1.391 . S
C737 C736 1.386 . S
C737 C741 1.393 . S
C738 H730 0.950 . S
C738 C736 1.391 . S
C738 C739 1.400 . S
C739 C738 1.400 . S
C739 C740 1.398 . S
C739 C745 1.491 . S
C740 H731 0.950 . S
C740 C739 1.398 . S
C740 C741 1.391 . S
C741 H729 0.950 . S
C741 C737 1.393 . S
C741 C740 1.391 . S
C742 H732 0.950 . S
C742 C743 1.386 . S
C742 C744 1.391 1_556 S
C743 C742 1.386 . S
C743 C747 1.393 . S
C744 H733 0.950 . S
C744 C742 1.391 1_554 S
C744 C745 1.400 . S
C745 C739 1.491 . S
C745 C744 1.400 . S
C745 C746 1.390 1_554 S
C746 H734 0.945 1_556 S
C746 C745 1.390 1_556 S
C746 C747 1.405 . S
C747 H735 0.950 . S
C747 C743 1.393 . S
C747 C746 1.405 . S
H748 C756 0.950 . S
H749 C761 0.950 . S
H750 C758 0.950 . S
H751 C760 0.950 . S
H752 C762 0.950 . S
H753 C764 0.950 1_554 S
H754 C766 0.950 . S
H755 C767 0.950 . S
C756 H748 0.950 . S
C756 C757 1.386 . S
C756 C758 1.391 . S
C757 C756 1.386 . S
C757 C761 1.393 . S
C758 H750 0.950 . S
C758 C756 1.391 . S
C758 C759 1.400 . S
C759 C758 1.400 . S
C759 C760 1.398 . S
C759 C765 1.491 . S
C760 H751 0.950 . S
C760 C759 1.398 . S
C760 C761 1.391 . S
C761 H749 0.950 . S
C761 C757 1.393 . S
C761 C760 1.391 . S
C762 H752 0.950 . S
C762 C763 1.386 . S
C762 C764 1.391 . S
C763 C762 1.386 . S
C763 C767 1.393 . S
C764 H753 0.950 1_556 S
C764 C762 1.391 . S
C764 C765 1.400 1_556 S
C765 C759 1.491 . S
C765 C764 1.400 1_554 S
C765 C766 1.398 . S
C766 H754 0.950 . S
C766 C765 1.398 . S
C766 C767 1.391 1_554 S
C767 H755 0.950 . S
C767 C763 1.393 . S
C767 C766 1.391 1_556 S
H768 C776 0.950 . S
H769 C781 0.950 . S
H770 C778 0.950 . S
H771 C780 0.950 1_556 S
H772 C782 0.950 . S
H773 C784 0.950 . S
H774 C786 0.950 . S
H775 C787 0.950 . S
C776 H768 0.950 . S
C776 C777 1.386 . S
C776 C778 1.391 1_554 S
C777 C776 1.386 . S
C777 C781 1.393 . S
C778 H770 0.950 . S
C778 C776 1.391 1_556 S
C778 C779 1.400 . S
C779 C778 1.400 . S
C779 C780 1.398 1_556 S
C779 C785 1.491 . S
C780 H771 0.950 1_554 S
C780 C779 1.398 1_554 S
C780 C781 1.391 . S
C781 H769 0.950 . S
C781 C777 1.393 . S
C781 C780 1.391 . S
C782 H772 0.950 . S
C782 C783 1.386 . S
C782 C784 1.391 . S
C783 C782 1.386 . S
C783 C787 1.393 . S
C784 H773 0.950 . S
C784 C782 1.391 . S
C784 C785 1.400 . S
C785 C779 1.491 . S
C785 C784 1.400 . S
C785 C786 1.398 . S
C786 H774 0.950 . S
C786 C785 1.398 . S
C786 C787 1.391 . S
C787 H775 0.950 . S
C787 C783 1.393 . S
C787 C786 1.391 . S
H788 C796 0.950 . S
H789 C801 0.950 . S
H790 C798 0.951 . S
H791 C800 0.950 . S
H792 C802 0.950 . S
H793 C804 0.950 . S
H794 C806 0.950 . S
H795 C807 0.950 . S
C796 H788 0.950 . S
C796 C797 1.386 . S
C796 C798 1.389 1_554 S
C797 C796 1.386 . S
C797 C801 1.393 . S
C798 H790 0.951 . S
C798 C796 1.389 1_556 S
C798 C799 1.402 . S
C799 C798 1.402 . S
C799 C800 1.398 . S
C799 C805 1.491 . S
C800 H791 0.950 . S
C800 C799 1.398 . S
C800 C801 1.391 1_556 S
C801 H789 0.950 . S
C801 C797 1.393 . S
C801 C800 1.391 1_554 S
C802 H792 0.950 . S
C802 C803 1.386 . S
C802 C804 1.391 . S
C803 C802 1.386 . S
C803 C807 1.393 . S
C804 H793 0.950 . S
C804 C802 1.391 . S
C804 C805 1.400 . S
C805 C799 1.491 . S
C805 C804 1.400 . S
C805 C806 1.398 . S
C806 H794 0.950 . S
C806 C805 1.398 . S
C806 C807 1.391 . S
C807 H795 0.950 . S
C807 C803 1.393 . S
C807 C806 1.391 . S
H808 C816 0.950 . S
H809 C821 0.950 . S
H810 C818 0.950 . S
H811 C820 0.948 1_556 S
H812 C822 0.950 . S
H813 C824 0.950 . S
H814 C826 0.950 . S
H815 C827 0.950 . S
C816 H808 0.950 . S
C816 C817 1.386 . S
C816 C818 1.391 1_554 S
C817 C816 1.386 . S
C817 C821 1.393 . S
C818 H810 0.950 . S
C818 C816 1.391 1_556 S
C818 C819 1.400 . S
C819 C818 1.400 . S
C819 C820 1.395 1_556 S
C819 C825 1.491 . S
C820 H811 0.948 1_554 S
C820 C819 1.395 1_554 S
C820 C821 1.396 . S
C821 H809 0.950 . S
C821 C817 1.393 . S
C821 C820 1.396 . S
C822 H812 0.950 . S
C822 C823 1.386 . S
C822 C824 1.391 . S
C823 C822 1.386 . S
C823 C827 1.393 . S
C824 H813 0.950 . S
C824 C822 1.391 . S
C824 C825 1.400 . S
C825 C819 1.491 . S
C825 C824 1.400 . S
C825 C826 1.398 . S
C826 H814 0.950 . S
C826 C825 1.398 . S
C826 C827 1.391 . S
C827 H815 0.950 . S
C827 C823 1.393 . S
C827 C826 1.391 . S
H828 C836 0.950 . S
H829 C841 0.950 . S
H830 C838 0.945 1_556 S
H831 C840 0.950 . S
H832 C842 0.950 . S
H833 C844 0.950 . S
H834 C846 0.950 . S
H835 C847 0.950 . S
C836 H828 0.950 . S
C836 C837 1.386 . S
C836 C838 1.404 . S
C837 C836 1.386 . S
C837 C841 1.393 . S
C838 H830 0.945 1_554 S
C838 C836 1.404 . S
C838 C839 1.392 1_554 S
C839 C838 1.392 1_556 S
C839 C840 1.398 . S
C839 C845 1.491 . S
C840 H831 0.950 . S
C840 C839 1.398 . S
C840 C841 1.391 1_556 S
C841 H829 0.950 . S
C841 C837 1.393 . S
C841 C840 1.391 1_554 S
C842 H832 0.950 . S
C842 C843 1.386 . S
C842 C844 1.391 . S
C843 C842 1.386 . S
C843 C847 1.393 . S
C844 H833 0.950 . S
C844 C842 1.391 . S
C844 C845 1.400 . S
C845 C839 1.491 . S
C845 C844 1.400 . S
C845 C846 1.398 . S
C846 H834 0.950 . S
C846 C845 1.398 . S
C846 C847 1.391 . S
C847 H835 0.950 . S
C847 C843 1.393 . S
C847 C846 1.391 . S
H848 C856 0.950 . S
H849 C861 0.950 . S
H850 C858 0.950 . S
H851 C860 0.950 . S
H852 C862 0.950 . S
H853 C864 0.950 . S
H854 C866 0.950 . S
H855 C867 0.950 . S
C856 H848 0.950 . S
C856 C857 1.386 . S
C856 C858 1.391 . S
C857 C856 1.386 . S
C857 C861 1.393 . S
C858 H850 0.950 . S
C858 C856 1.391 . S
C858 C859 1.400 . S
C859 C858 1.400 . S
C859 C860 1.398 . S
C859 C865 1.491 . S
C860 H851 0.950 . S
C860 C859 1.398 . S
C860 C861 1.391 . S
C861 H849 0.950 . S
C861 C857 1.393 . S
C861 C860 1.391 . S
C862 H852 0.950 . S
C862 C863 1.386 . S
C862 C864 1.391 . S
C863 C862 1.386 . S
C863 C867 1.393 . S
C864 H853 0.950 . S
C864 C862 1.391 . S
C864 C865 1.400 . S
C865 C859 1.491 . S
C865 C864 1.400 . S
C865 C866 1.398 . S
C866 H854 0.950 . S
C866 C865 1.398 . S
C866 C867 1.391 . S
C867 H855 0.950 . S
C867 C863 1.393 . S
C867 C866 1.391 . S
H868 C876 0.950 . S
H869 C881 0.950 . S
H870 C878 0.950 . S
H871 C880 0.950 . S
H872 C882 0.950 . S
H873 C884 0.950 . S
H874 C886 0.950 . S
H875 C887 0.950 . S
C876 H868 0.950 . S
C876 C877 1.386 . S
C876 C878 1.391 . S
C877 C876 1.386 . S
C877 C881 1.393 . S
C878 H870 0.950 . S
C878 C876 1.391 . S
C878 C879 1.400 . S
C879 C878 1.400 . S
C879 C880 1.398 . S
C879 C885 1.491 . S
C880 H871 0.950 . S
C880 C879 1.398 . S
C880 C881 1.391 . S
C881 H869 0.950 . S
C881 C877 1.393 . S
C881 C880 1.391 . S
C882 H872 0.950 . S
C882 C883 1.386 . S
C882 C884 1.391 . S
C883 C882 1.386 . S
C883 C887 1.393 . S
C884 H873 0.950 . S
C884 C882 1.391 . S
C884 C885 1.400 . S
C885 C879 1.491 . S
C885 C884 1.400 . S
C885 C886 1.398 . S
C886 H874 0.950 . S
C886 C885 1.398 . S
C886 C887 1.391 . S
C887 H875 0.950 . S
C887 C883 1.393 . S
C887 C886 1.391 . S
H888 C896 0.950 . S
H889 C901 0.950 . S
H890 C898 0.950 . S
H891 C900 0.950 . S
H892 C902 0.950 . S
H893 C904 0.950 . S
H894 C906 0.950 . S
H895 C907 0.950 . S
C896 H888 0.950 . S
C896 C897 1.386 . S
C896 C898 1.391 . S
C897 C896 1.386 . S
C897 C901 1.393 . S
C898 H890 0.950 . S
C898 C896 1.391 . S
C898 C899 1.400 . S
C899 C898 1.400 . S
C899 C900 1.398 . S
C899 C905 1.491 . S
C900 H891 0.950 . S
C900 C899 1.398 . S
C900 C901 1.391 . S
C901 H889 0.950 . S
C901 C897 1.393 . S
C901 C900 1.391 . S
C902 H892 0.950 . S
C902 C903 1.386 . S
C902 C904 1.391 . S
C903 C902 1.386 . S
C903 C907 1.393 . S
C904 H893 0.950 . S
C904 C902 1.391 . S
C904 C905 1.400 . S
C905 C899 1.491 . S
C905 C904 1.400 . S
C905 C906 1.398 . S
C906 H894 0.950 . S
C906 C905 1.398 . S
C906 C907 1.391 . S
C907 H895 0.950 . S
C907 C903 1.393 . S
C907 C906 1.391 . S
H908 C916 0.950 . S
H909 C921 0.950 . S
H910 C918 0.950 . S
H911 C920 0.950 . S
H912 C922 0.950 . S
H913 C924 0.950 . S
H914 C926 0.950 . S
H915 C927 0.950 . S
C916 H908 0.950 . S
C916 C917 1.386 . S
C916 C918 1.391 . S
C917 C916 1.386 . S
C917 C921 1.393 . S
C918 H910 0.950 . S
C918 C916 1.391 . S
C918 C919 1.400 . S
C919 C918 1.400 . S
C919 C920 1.398 . S
C919 C925 1.491 . S
C920 H911 0.950 . S
C920 C919 1.398 . S
C920 C921 1.391 . S
C921 H909 0.950 . S
C921 C917 1.393 . S
C921 C920 1.391 . S
C922 H912 0.950 . S
C922 C923 1.386 . S
C922 C924 1.391 . S
C923 C922 1.386 . S
C923 C927 1.393 . S
C924 H913 0.950 . S
C924 C922 1.391 . S
C924 C925 1.400 . S
C925 C919 1.491 . S
C925 C924 1.400 . S
C925 C926 1.398 . S
C926 H914 0.950 . S
C926 C925 1.398 . S
C926 C927 1.391 . S
C927 H915 0.950 . S
C927 C923 1.393 . S
C927 C926 1.391 . S
H928 C936 0.950 . S
H929 C941 0.950 . S
H930 C938 0.950 . S
H931 C940 0.950 . S
H932 C942 0.950 . S
H933 C944 0.950 . S
H934 C946 0.950 . S
H935 C947 0.950 . S
C936 H928 0.950 . S
C936 C937 1.386 . S
C936 C938 1.391 . S
C937 C936 1.386 . S
C937 C941 1.393 . S
C938 H930 0.950 . S
C938 C936 1.391 . S
C938 C939 1.400 . S
C939 C938 1.400 . S
C939 C940 1.398 . S
C939 C945 1.491 . S
C940 H931 0.950 . S
C940 C939 1.398 . S
C940 C941 1.391 . S
C941 H929 0.950 . S
C941 C937 1.393 . S
C941 C940 1.391 . S
C942 H932 0.950 . S
C942 C943 1.386 . S
C942 C944 1.391 . S
C943 C942 1.386 . S
C943 C947 1.393 . S
C944 H933 0.950 . S
C944 C942 1.391 . S
C944 C945 1.400 . S
C945 C939 1.491 . S
C945 C944 1.400 . S
C945 C946 1.398 . S
C946 H934 0.950 . S
C946 C945 1.398 . S
C946 C947 1.391 . S
C947 H935 0.950 . S
C947 C943 1.393 . S
C947 C946 1.391 . S
H948 C956 0.950 . S
H949 C961 0.950 . S
H950 C958 0.950 . S
H951 C960 0.950 . S
H952 C962 0.950 . S
H953 C964 0.950 . S
H954 C966 0.950 . S
H955 C967 0.950 . S
C956 H948 0.950 . S
C956 C957 1.386 . S
C956 C958 1.391 . S
C957 C956 1.386 . S
C957 C961 1.393 . S
C958 H950 0.950 . S
C958 C956 1.391 . S
C958 C959 1.400 . S
C959 C958 1.400 . S
C959 C960 1.398 . S
C959 C965 1.491 . S
C960 H951 0.950 . S
C960 C959 1.398 . S
C960 C961 1.391 . S
C961 H949 0.950 . S
C961 C957 1.393 . S
C961 C960 1.391 . S
C962 H952 0.950 . S
C962 C963 1.386 . S
C962 C964 1.391 . S
C963 C962 1.386 . S
C963 C967 1.393 . S
C964 H953 0.950 . S
C964 C962 1.391 . S
C964 C965 1.400 . S
C965 C959 1.491 . S
C965 C964 1.400 . S
C965 C966 1.398 . S
C966 H954 0.950 . S
C966 C965 1.398 . S
C966 C967 1.391 . S
C967 H955 0.950 . S
C967 C963 1.393 . S
C967 C966 1.391 . S
H968 C976 0.950 . S
H969 C981 0.950 . S
H970 C978 0.950 . S
H971 C980 0.950 . S
H972 C982 0.950 . S
H973 C984 0.950 . S
H974 C986 0.950 . S
H975 C987 0.950 . S
C976 H968 0.950 . S
C976 C977 1.386 . S
C976 C978 1.391 . S
C977 C976 1.386 . S
C977 C981 1.393 . S
C978 H970 0.950 . S
C978 C976 1.391 . S
C978 C979 1.400 . S
C979 C978 1.400 . S
C979 C980 1.398 . S
C979 C985 1.491 . S
C980 H971 0.950 . S
C980 C979 1.398 . S
C980 C981 1.391 . S
C981 H969 0.950 . S
C981 C977 1.393 . S
C981 C980 1.391 . S
C982 H972 0.950 . S
C982 C983 1.386 . S
C982 C984 1.391 . S
C983 C982 1.386 . S
C983 C987 1.393 . S
C984 H973 0.950 . S
C984 C982 1.391 . S
C984 C985 1.400 . S
C985 C979 1.491 . S
C985 C984 1.400 . S
C985 C986 1.398 . S
C986 H974 0.950 . S
C986 C985 1.398 . S
C986 C987 1.391 . S
C987 H975 0.950 . S
C987 C983 1.393 . S
C987 C986 1.391 . S
H988 C996 0.950 . S
H989 C1001 0.950 . S
H990 C998 0.950 . S
H991 C1000 0.950 . S
H992 C1002 0.950 . S
H993 C1004 0.950 . S
H994 C1006 0.950 . S
H995 C1007 0.950 . S
C996 H988 0.950 . S
C996 C997 1.386 . S
C996 C998 1.391 . S
C997 C996 1.386 . S
C997 C1001 1.393 . S
C998 H990 0.950 . S
C998 C996 1.391 . S
C998 C999 1.400 . S
C999 C998 1.400 . S
C999 C1000 1.398 . S
C999 C1005 1.491 . S
C1000 H991 0.950 . S
C1000 C999 1.398 . S
C1000 C1001 1.391 . S
C1001 H989 0.950 . S
C1001 C997 1.393 . S
C1001 C1000 1.391 . S
C1002 H992 0.950 . S
C1002 C1003 1.386 . S
C1002 C1004 1.391 . S
C1003 C1002 1.386 . S
C1003 C1007 1.393 . S
C1004 H993 0.950 . S
C1004 C1002 1.391 . S
C1004 C1005 1.400 . S
C1005 C999 1.491 . S
C1005 C1004 1.400 . S
C1005 C1006 1.398 . S
C1006 H994 0.950 . S
C1006 C1005 1.398 . S
C1006 C1007 1.391 . S
C1007 H995 0.950 . S
C1007 C1003 1.393 . S
C1007 C1006 1.391 . S
H1008 C1016 0.950 . S
H1009 C1021 0.950 . S
H1010 C1018 0.950 . S
H1011 C1020 0.950 . S
H1012 C1022 0.950 . S
H1013 C1024 0.950 . S
H1014 C1026 0.950 . S
H1015 C1027 0.950 . S
C1016 H1008 0.950 . S
C1016 C1017 1.386 . S
C1016 C1018 1.391 . S
C1017 C1016 1.386 . S
C1017 C1021 1.393 1_554 S
C1018 H1010 0.950 . S
C1018 C1016 1.391 . S
C1018 C1019 1.400 . S
C1019 C1018 1.400 . S
C1019 C1020 1.398 1_554 S
C1019 C1025 1.491 1_544 S
C1020 H1011 0.950 . S
C1020 C1019 1.398 1_556 S
C1020 C1021 1.391 . S
C1021 H1009 0.950 . S
C1021 C1017 1.393 1_556 S
C1021 C1020 1.391 . S
C1022 H1012 0.950 . S
C1022 C1023 1.386 . S
C1022 C1024 1.391 . S
C1023 C1022 1.386 . S
C1023 C1027 1.393 1_556 S
C1024 H1013 0.950 . S
C1024 C1022 1.391 . S
C1024 C1025 1.400 . S
C1025 C1019 1.491 1_566 S
C1025 C1024 1.400 . S
C1025 C1026 1.398 1_556 S
C1026 H1014 0.950 . S
C1026 C1025 1.398 1_554 S
C1026 C1027 1.391 . S
C1027 H1015 0.950 . S
C1027 C1023 1.393 1_554 S
C1027 C1026 1.391 . S
H1028 C1036 0.950 . S
H1029 C1041 0.950 . S
H1030 C1038 0.950 . S
H1031 C1040 0.950 . S
H1032 C1042 0.950 . S
H1033 C1044 0.950 . S
H1034 C1046 0.950 . S
H1035 C1047 0.950 . S
C1036 H1028 0.950 . S
C1036 C1037 1.386 . S
C1036 C1038 1.391 . S
C1037 C1036 1.386 . S
C1037 C1041 1.393 1_556 S
C1038 H1030 0.950 . S
C1038 C1036 1.391 . S
C1038 C1039 1.400 . S
C1039 C1038 1.400 . S
C1039 C1040 1.398 1_556 S
C1039 C1045 1.491 1_456 S
C1040 H1031 0.950 . S
C1040 C1039 1.398 1_554 S
C1040 C1041 1.391 . S
C1041 H1029 0.950 . S
C1041 C1037 1.393 1_554 S
C1041 C1040 1.391 . S
C1042 H1032 0.950 . S
C1042 C1043 1.386 . S
C1042 C1044 1.391 . S
C1043 C1042 1.386 . S
C1043 C1047 1.393 1_554 S
C1044 H1033 0.950 . S
C1044 C1042 1.391 . S
C1044 C1045 1.400 . S
C1045 C1039 1.491 1_654 S
C1045 C1044 1.400 . S
C1045 C1046 1.398 1_554 S
C1046 H1034 0.950 . S
C1046 C1045 1.398 1_556 S
C1046 C1047 1.391 . S
C1047 H1035 0.950 . S
C1047 C1043 1.393 1_556 S
C1047 C1046 1.391 . S
H1048 C1056 0.950 . S
H1049 C1061 0.950 . S
H1050 C1058 0.950 . S
H1051 C1060 0.950 . S
H1052 C1062 0.950 . S
H1053 C1064 0.950 . S
H1054 C1066 0.950 . S
H1055 C1067 0.950 . S
C1056 H1048 0.950 . S
C1056 C1057 1.386 1_556 S
C1056 C1058 1.391 . S
C1057 C1056 1.386 1_554 S
C1057 C1061 1.393 . S
C1058 H1050 0.950 . S
C1058 C1056 1.391 . S
C1058 C1059 1.400 1_556 S
C1059 C1058 1.400 1_554 S
C1059 C1060 1.398 . S
C1059 C1065 1.491 1_564 S
C1060 H1051 0.950 . S
C1060 C1059 1.398 . S
C1060 C1061 1.391 . S
C1061 H1049 0.950 . S
C1061 C1057 1.393 . S
C1061 C1060 1.391 . S
C1062 H1052 0.950 . S
C1062 C1063 1.386 1_554 S
C1062 C1064 1.391 . S
C1063 C1062 1.386 1_556 S
C1063 C1067 1.393 . S
C1064 H1053 0.950 . S
C1064 C1062 1.391 . S
C1064 C1065 1.400 1_554 S
C1065 C1059 1.491 1_546 S
C1065 C1064 1.400 1_556 S
C1065 C1066 1.398 . S
C1066 H1054 0.950 . S
C1066 C1065 1.398 . S
C1066 C1067 1.391 . S
C1067 H1055 0.950 . S
C1067 C1063 1.393 . S
C1067 C1066 1.391 . S
H1068 C1076 0.950 . S
H1069 C1081 0.950 . S
H1070 C1078 0.950 . S
H1071 C1080 0.950 . S
H1072 C1082 0.950 . S
H1073 C1084 0.950 . S
H1074 C1086 0.950 . S
H1075 C1087 0.950 . S
C1076 H1068 0.950 . S
C1076 C1077 1.386 . S
C1076 C1078 1.391 . S
C1077 C1076 1.386 . S
C1077 C1081 1.393 1_556 S
C1078 H1070 0.950 . S
C1078 C1076 1.391 . S
C1078 C1079 1.400 . S
C1079 C1078 1.400 . S
C1079 C1080 1.398 1_556 S
C1079 C1085 1.491 1_656 S
C1080 H1071 0.950 . S
C1080 C1079 1.398 1_554 S
C1080 C1081 1.391 . S
C1081 H1069 0.950 . S
C1081 C1077 1.393 1_554 S
C1081 C1080 1.391 . S
C1082 H1072 0.950 . S
C1082 C1083 1.386 . S
C1082 C1084 1.391 . S
C1083 C1082 1.386 . S
C1083 C1087 1.393 1_554 S
C1084 H1073 0.950 . S
C1084 C1082 1.391 . S
C1084 C1085 1.400 . S
C1085 C1079 1.491 1_454 S
C1085 C1084 1.400 . S
C1085 C1086 1.398 1_554 S
C1086 H1074 0.950 . S
C1086 C1085 1.398 1_556 S
C1086 C1087 1.391 . S
C1087 H1075 0.950 . S
C1087 C1083 1.393 1_556 S
C1087 C1086 1.391 . S
H1088 C1096 0.950 . S
H1089 C1101 0.950 . S
H1090 C1098 0.950 . S
H1091 C1100 0.950 . S
H1092 C1102 0.950 . S
H1093 C1104 0.950 . S
H1094 C1106 0.950 . S
H1095 C1107 0.950 . S
C1096 H1088 0.950 . S
C1096 C1097 1.386 . S
C1096 C1098 1.391 . S
C1097 C1096 1.386 . S
C1097 C1101 1.393 . S
C1098 H1090 0.950 . S
C1098 C1096 1.391 . S
C1098 C1099 1.400 . S
C1099 C1098 1.400 . S
C1099 C1100 1.398 . S
C1099 C1105 1.491 . S
C1100 H1091 0.950 . S
C1100 C1099 1.398 . S
C1100 C1101 1.391 . S
C1101 H1089 0.950 . S
C1101 C1097 1.393 . S
C1101 C1100 1.391 . S
C1102 H1092 0.950 . S
C1102 C1103 1.386 . S
C1102 C1104 1.391 . S
C1103 C1102 1.386 . S
C1103 C1107 1.393 . S
C1104 H1093 0.950 . S
C1104 C1102 1.391 . S
C1104 C1105 1.400 . S
C1105 C1099 1.491 . S
C1105 C1104 1.400 . S
C1105 C1106 1.398 . S
C1106 H1094 0.950 . S
C1106 C1105 1.398 . S
C1106 C1107 1.391 . S
C1107 H1095 0.950 . S
C1107 C1103 1.393 . S
C1107 C1106 1.391 . S
H1108 C1116 0.950 . S
H1109 C1121 0.950 . S
H1110 C1118 0.950 . S
H1111 C1120 0.950 . S
H1112 C1122 0.950 . S
H1113 C1124 0.950 . S
H1114 C1126 0.950 . S
H1115 C1127 0.950 . S
C1116 H1108 0.950 . S
C1116 C1117 1.386 . S
C1116 C1118 1.391 . S
C1117 C1116 1.386 . S
C1117 C1121 1.393 . S
C1118 H1110 0.950 . S
C1118 C1116 1.391 . S
C1118 C1119 1.400 . S
C1119 C1118 1.400 . S
C1119 C1120 1.398 . S
C1119 C1125 1.491 . S
C1120 H1111 0.950 . S
C1120 C1119 1.398 . S
C1120 C1121 1.391 . S
C1121 H1109 0.950 . S
C1121 C1117 1.393 . S
C1121 C1120 1.391 . S
C1122 H1112 0.950 . S
C1122 C1123 1.386 . S
C1122 C1124 1.391 . S
C1123 C1122 1.386 . S
C1123 C1127 1.393 . S
C1124 H1113 0.950 . S
C1124 C1122 1.391 . S
C1124 C1125 1.400 . S
C1125 C1119 1.491 . S
C1125 C1124 1.400 . S
C1125 C1126 1.398 . S
C1126 H1114 0.950 . S
C1126 C1125 1.398 . S
C1126 C1127 1.391 . S
C1127 H1115 0.950 . S
C1127 C1123 1.393 . S
C1127 C1126 1.391 . S
H1128 C1136 0.950 . S
H1129 C1141 0.950 . S
H1130 C1138 0.950 . S
H1131 C1140 0.950 . S
H1132 C1142 0.950 . S
H1133 C1144 0.950 . S
H1134 C1146 0.950 . S
H1135 C1147 0.950 . S
C1136 H1128 0.950 . S
C1136 C1137 1.386 . S
C1136 C1138 1.391 . S
C1137 C1136 1.386 . S
C1137 C1141 1.393 . S
C1138 H1130 0.950 . S
C1138 C1136 1.391 . S
C1138 C1139 1.400 . S
C1139 C1138 1.400 . S
C1139 C1140 1.398 . S
C1139 C1145 1.491 . S
C1140 H1131 0.950 . S
C1140 C1139 1.398 . S
C1140 C1141 1.391 . S
C1141 H1129 0.950 . S
C1141 C1137 1.393 . S
C1141 C1140 1.391 . S
C1142 H1132 0.950 . S
C1142 C1143 1.386 . S
C1142 C1144 1.391 . S
C1143 C1142 1.386 . S
C1143 C1147 1.393 . S
C1144 H1133 0.950 . S
C1144 C1142 1.391 . S
C1144 C1145 1.400 . S
C1145 C1139 1.491 . S
C1145 C1144 1.400 . S
C1145 C1146 1.398 . S
C1146 H1134 0.950 . S
C1146 C1145 1.398 . S
C1146 C1147 1.391 . S
C1147 H1135 0.950 . S
C1147 C1143 1.393 . S
C1147 C1146 1.391 . S
H1148 C1156 0.950 . S
H1149 C1161 0.950 . S
H1150 C1158 0.950 . S
H1151 C1160 0.950 . S
H1152 C1162 0.950 . S
H1153 C1164 0.950 . S
H1154 C1166 0.950 . S
H1155 C1167 0.950 . S
C1156 H1148 0.950 . S
C1156 C1157 1.386 . S
C1156 C1158 1.391 . S
C1157 C1156 1.386 . S
C1157 C1161 1.393 . S
C1158 H1150 0.950 . S
C1158 C1156 1.391 . S
C1158 C1159 1.400 . S
C1159 C1158 1.400 . S
C1159 C1160 1.398 . S
C1159 C1165 1.491 . S
C1160 H1151 0.950 . S
C1160 C1159 1.398 . S
C1160 C1161 1.391 . S
C1161 H1149 0.950 . S
C1161 C1157 1.393 . S
C1161 C1160 1.391 . S
C1162 H1152 0.950 . S
C1162 C1163 1.386 . S
C1162 C1164 1.391 . S
C1163 C1162 1.386 . S
C1163 C1167 1.393 . S
C1164 H1153 0.950 . S
C1164 C1162 1.391 . S
C1164 C1165 1.400 . S
C1165 C1159 1.491 . S
C1165 C1164 1.400 . S
C1165 C1166 1.398 . S
C1166 H1154 0.950 . S
C1166 C1165 1.398 . S
C1166 C1167 1.391 . S
C1167 H1155 0.950 . S
C1167 C1163 1.393 . S
C1167 C1166 1.391 . S
H1168 C1176 0.950 . S
H1169 C1181 0.950 . S
H1170 C1178 0.950 . S
H1171 C1180 0.950 . S
H1172 C1182 0.950 . S
H1173 C1184 0.950 . S
H1174 C1186 0.950 . S
H1175 C1187 0.950 . S
C1176 H1168 0.950 . S
C1176 C1177 1.386 . S
C1176 C1178 1.391 . S
C1177 C1176 1.386 . S
C1177 C1181 1.393 1_554 S
C1178 H1170 0.950 . S
C1178 C1176 1.391 . S
C1178 C1179 1.400 . S
C1179 C1178 1.400 . S
C1179 C1180 1.398 1_554 S
C1179 C1185 1.491 1_554 S
C1180 H1171 0.950 . S
C1180 C1179 1.398 1_556 S
C1180 C1181 1.391 . S
C1181 H1169 0.950 . S
C1181 C1177 1.393 1_556 S
C1181 C1180 1.391 . S
C1182 H1172 0.950 . S
C1182 C1183 1.386 . S
C1182 C1184 1.391 . S
C1183 C1182 1.386 . S
C1183 C1187 1.393 1_556 S
C1184 H1173 0.950 . S
C1184 C1182 1.391 . S
C1184 C1185 1.400 . S
C1185 C1179 1.491 1_556 S
C1185 C1184 1.400 . S
C1185 C1186 1.398 1_556 S
C1186 H1174 0.950 . S
C1186 C1185 1.398 1_554 S
C1186 C1187 1.391 . S
C1187 H1175 0.950 . S
C1187 C1183 1.393 1_554 S
C1187 C1186 1.391 . S
H1188 C1196 0.950 . S
H1189 C1201 0.950 . S
H1190 C1198 0.950 . S
H1191 C1200 0.950 . S
H1192 C1202 0.950 . S
H1193 C1204 0.950 . S
H1194 C1206 0.950 . S
H1195 C1207 0.950 . S
C1196 H1188 0.950 . S
C1196 C1197 1.386 . S
C1196 C1198 1.391 1_554 S
C1197 C1196 1.386 . S
C1197 C1201 1.393 . S
C1198 H1190 0.950 . S
C1198 C1196 1.391 1_556 S
C1198 C1199 1.400 1_556 S
C1199 C1198 1.400 1_554 S
C1199 C1200 1.398 . S
C1199 C1205 1.491 1_554 S
C1200 H1191 0.950 . S
C1200 C1199 1.398 . S
C1200 C1201 1.391 . S
C1201 H1189 0.950 . S
C1201 C1197 1.393 . S
C1201 C1200 1.391 . S
C1202 H1192 0.950 . S
C1202 C1203 1.386 . S
C1202 C1204 1.391 1_556 S
C1203 C1202 1.386 . S
C1203 C1207 1.393 . S
C1204 H1193 0.950 . S
C1204 C1202 1.391 1_554 S
C1204 C1205 1.400 1_554 S
C1205 C1199 1.491 1_556 S
C1205 C1204 1.400 1_556 S
C1205 C1206 1.398 . S
C1206 H1194 0.950 . S
C1206 C1205 1.398 . S
C1206 C1207 1.391 . S
C1207 H1195 0.950 . S
C1207 C1203 1.393 . S
C1207 C1206 1.391 . S
H1208 C1216 0.950 1_554 S
H1209 C1221 0.950 . S
H1210 C1218 0.950 . S
H1211 C1220 0.950 . S
H1212 C1222 0.950 1_556 S
H1213 C1224 0.950 . S
H1214 C1226 0.950 . S
H1215 C1227 0.950 . S
C1216 H1208 0.950 1_556 S
C1216 C1217 1.386 . S
C1216 C1218 1.391 1_556 S
C1217 C1216 1.386 . S
C1217 C1221 1.393 . S
C1218 H1210 0.950 . S
C1218 C1216 1.391 1_554 S
C1218 C1219 1.400 1_554 S
C1219 C1218 1.400 1_556 S
C1219 C1220 1.398 . S
C1219 C1225 1.491 1_556 S
C1220 H1211 0.950 . S
C1220 C1219 1.398 . S
C1220 C1221 1.391 . S
C1221 H1209 0.950 . S
C1221 C1217 1.393 . S
C1221 C1220 1.391 . S
C1222 H1212 0.950 1_554 S
C1222 C1223 1.386 . S
C1222 C1224 1.391 1_554 S
C1223 C1222 1.386 . S
C1223 C1227 1.393 . S
C1224 H1213 0.950 . S
C1224 C1222 1.391 1_556 S
C1224 C1225 1.400 1_556 S
C1225 C1219 1.491 1_554 S
C1225 C1224 1.400 1_554 S
C1225 C1226 1.398 . S
C1226 H1214 0.950 . S
C1226 C1225 1.398 . S
C1226 C1227 1.391 . S
C1227 H1215 0.950 . S
C1227 C1223 1.393 . S
C1227 C1226 1.391 . S
H1228 C1236 0.950 . S
H1229 C1241 0.950 1_556 S
H1230 C1238 0.950 . S
H1231 C1240 0.950 . S
H1232 C1242 0.950 . S
H1233 C1244 0.950 . S
H1234 C1246 0.950 . S
H1235 C1247 0.950 1_554 S
C1236 H1228 0.950 . S
C1236 C1237 1.386 . S
C1236 C1238 1.391 . S
C1237 C1236 1.386 . S
C1237 C1241 1.393 . S
C1238 H1230 0.950 . S
C1238 C1236 1.391 . S
C1238 C1239 1.400 . S
C1239 C1238 1.400 . S
C1239 C1240 1.398 1_554 S
C1239 C1245 1.491 1_554 S
C1240 H1231 0.950 . S
C1240 C1239 1.398 1_556 S
C1240 C1241 1.391 1_556 S
C1241 H1229 0.950 1_554 S
C1241 C1237 1.393 . S
C1241 C1240 1.391 1_554 S
C1242 H1232 0.950 . S
C1242 C1243 1.386 . S
C1242 C1244 1.391 . S
C1243 C1242 1.386 . S
C1243 C1247 1.393 . S
C1244 H1233 0.950 . S
C1244 C1242 1.391 . S
C1244 C1245 1.400 . S
C1245 C1239 1.491 1_556 S
C1245 C1244 1.400 . S
C1245 C1246 1.398 1_556 S
C1246 H1234 0.950 . S
C1246 C1245 1.398 1_554 S
C1246 C1247 1.391 1_554 S
C1247 H1235 0.950 1_556 S
C1247 C1243 1.393 . S
C1247 C1246 1.391 1_556 S
H1248 C1256 0.950 . S
H1249 C1261 0.950 . S
H1250 C1258 0.950 . S
H1251 C1260 0.950 . S
H1252 C1262 0.950 . S
H1253 C1264 0.950 . S
H1254 C1266 0.950 . S
H1255 C1267 0.950 . S
C1256 H1248 0.950 . S
C1256 C1257 1.386 . S
C1256 C1258 1.391 . S
C1257 C1256 1.386 . S
C1257 C1261 1.393 . S
C1258 H1250 0.950 . S
C1258 C1256 1.391 . S
C1258 C1259 1.400 . S
C1259 C1258 1.400 . S
C1259 C1260 1.398 . S
C1259 C1265 1.491 . S
C1260 H1251 0.950 . S
C1260 C1259 1.398 . S
C1260 C1261 1.391 . S
C1261 H1249 0.950 . S
C1261 C1257 1.393 . S
C1261 C1260 1.391 . S
C1262 H1252 0.950 . S
C1262 C1263 1.386 . S
C1262 C1264 1.391 . S
C1263 C1262 1.386 . S
C1263 C1267 1.393 . S
C1264 H1253 0.950 . S
C1264 C1262 1.391 . S
C1264 C1265 1.400 . S
C1265 C1259 1.491 . S
C1265 C1264 1.400 . S
C1265 C1266 1.398 . S
C1266 H1254 0.950 . S
C1266 C1265 1.398 . S
C1266 C1267 1.391 . S
C1267 H1255 0.950 . S
C1267 C1263 1.393 . S
C1267 C1266 1.391 . S
H1268 C1276 0.950 . S
H1269 C1281 0.950 . S
H1270 C1278 0.950 . S
H1271 C1280 0.950 . S
H1272 C1282 0.950 . S
H1273 C1284 0.950 . S
H1274 C1286 0.950 . S
H1275 C1287 0.950 . S
C1276 H1268 0.950 . S
C1276 C1277 1.386 . S
C1276 C1278 1.391 . S
C1277 C1276 1.386 . S
C1277 C1281 1.393 . S
C1278 H1270 0.950 . S
C1278 C1276 1.391 . S
C1278 C1279 1.400 . S
C1279 C1278 1.400 . S
C1279 C1280 1.398 . S
C1279 C1285 1.491 . S
C1280 H1271 0.950 . S
C1280 C1279 1.398 . S
C1280 C1281 1.391 . S
C1281 H1269 0.950 . S
C1281 C1277 1.393 . S
C1281 C1280 1.391 . S
C1282 H1272 0.950 . S
C1282 C1283 1.386 . S
C1282 C1284 1.391 . S
C1283 C1282 1.386 . S
C1283 C1287 1.393 . S
C1284 H1273 0.950 . S
C1284 C1282 1.391 . S
C1284 C1285 1.400 . S
C1285 C1279 1.491 . S
C1285 C1284 1.400 . S
C1285 C1286 1.398 . S
C1286 H1274 0.950 . S
C1286 C1285 1.398 . S
C1286 C1287 1.391 . S
C1287 H1275 0.950 . S
C1287 C1283 1.393 . S
C1287 C1286 1.391 . S
H1288 C1296 0.950 . S
H1289 C1301 0.950 . S
H1290 C1298 0.950 . S
H1291 C1300 0.950 . S
H1292 C1302 0.950 . S
H1293 C1304 0.950 . S
H1294 C1306 0.950 . S
H1295 C1307 0.950 . S
C1296 H1288 0.950 . S
C1296 C1297 1.386 . S
C1296 C1298 1.391 . S
C1297 C1296 1.386 . S
C1297 C1301 1.393 . S
C1298 H1290 0.950 . S
C1298 C1296 1.391 . S
C1298 C1299 1.400 . S
C1299 C1298 1.400 . S
C1299 C1300 1.398 . S
C1299 C1305 1.491 . S
C1300 H1291 0.950 . S
C1300 C1299 1.398 . S
C1300 C1301 1.391 . S
C1301 H1289 0.950 . S
C1301 C1297 1.393 . S
C1301 C1300 1.391 . S
C1302 H1292 0.950 . S
C1302 C1303 1.386 . S
C1302 C1304 1.391 . S
C1303 C1302 1.386 . S
C1303 C1307 1.393 . S
C1304 H1293 0.950 . S
C1304 C1302 1.391 . S
C1304 C1305 1.400 . S
C1305 C1299 1.491 . S
C1305 C1304 1.400 . S
C1305 C1306 1.398 . S
C1306 H1294 0.950 . S
C1306 C1305 1.398 . S
C1306 C1307 1.391 . S
C1307 H1295 0.950 . S
C1307 C1303 1.393 . S
C1307 C1306 1.391 . S
H1308 C1316 0.950 . S
H1309 C1321 0.950 . S
H1310 C1318 0.950 . S
H1311 C1320 0.950 . S
H1312 C1322 0.950 . S
H1313 C1324 0.950 . S
H1314 C1326 0.950 . S
H1315 C1327 0.950 . S
C1316 H1308 0.950 . S
C1316 C1317 1.386 . S
C1316 C1318 1.391 . S
C1317 C1316 1.386 . S
C1317 C1321 1.393 . S
C1318 H1310 0.950 . S
C1318 C1316 1.391 . S
C1318 C1319 1.400 . S
C1319 C1318 1.400 . S
C1319 C1320 1.398 . S
C1319 C1325 1.491 . S
C1320 H1311 0.950 . S
C1320 C1319 1.398 . S
C1320 C1321 1.391 . S
C1321 H1309 0.950 . S
C1321 C1317 1.393 . S
C1321 C1320 1.391 . S
C1322 H1312 0.950 . S
C1322 C1323 1.386 . S
C1322 C1324 1.391 . S
C1323 C1322 1.386 . S
C1323 C1327 1.393 . S
C1324 H1313 0.950 . S
C1324 C1322 1.391 . S
C1324 C1325 1.400 . S
C1325 C1319 1.491 . S
C1325 C1324 1.400 . S
C1325 C1326 1.398 . S
C1326 H1314 0.950 . S
C1326 C1325 1.398 . S
C1326 C1327 1.391 . S
C1327 H1315 0.950 . S
C1327 C1323 1.393 . S
C1327 C1326 1.391 . S
C537 N5 1.366 . S
C543 N14 1.365 . S
C557 N38 1.366 . S
C563 N47 1.365 . S
C577 N80 1.363 . S
C583 N71 1.365 . S
C597 N113 1.360 . S
C603 N104 1.360 . S
C617 N137 1.364 . S
C623 N146 1.364 . S
C637 N179 1.360 . S
C643 N170 1.362 . S
C657 N212 1.356 . S
C663 N203 1.359 . S
C677 N245 1.358 . S
C683 N236 1.358 . S
C697 N269 1.354 . S
C703 N278 1.353 . S
C717 N302 1.364 . S
C723 N311 1.362 . S
C737 N335 1.365 . S
C743 N344 1.363 . S
C757 N368 1.354 . S
C763 N377 1.352 . S
C777 N410 1.355 . S
C783 N401 1.355 . S
C797 N443 1.359 . S
C803 N434 1.361 . S
C817 N476 1.353 . S
C823 N467 1.354 . S
C837 N509 1.360 . S
C843 N500 1.363 . S
C857 C8 1.346 . S
C863 C503 1.355 . S
C877 C404 1.352 . S
C883 C41 1.337 . S
C897 C437 1.354 . S
C903 C74 1.337 . S
C917 C470 1.338 . S
C923 C107 1.347 . S
C937 C305 1.347 . S
C943 C140 1.338 . S
C957 C173 1.353 . S
C963 C338 1.337 . S
C977 C206 1.350 . S
C983 C371 1.352 . S
C997 C272 1.339 . S
C1003 C239 1.356 . S
C1017 C28 1.078 . S
C1023 C160 1.075 . S
C1037 C193 1.078 . S
C1043 C61 1.076 . S
C1057 C94 1.075 . S
C1063 C226 1.078 . S
C1077 C259 1.079 . S
C1083 C127 1.075 . S
C1097 C424 1.076 . S
C1103 C292 1.078 . S
C1117 C325 1.075 . S
C1123 C457 1.078 . S
C1137 C358 1.079 . S
C1143 C490 1.075 . S
C1157 C391 1.076 . S
C1163 C523 1.078 . S
C1177 C17 1.519 . S
C1183 C182 1.527 . S
C1197 C50 1.524 . S
C1203 C215 1.520 . S
C1217 C248 1.525 . S
C1223 C83 1.519 . S
C1237 C116 1.520 . S
C1243 C149 1.523 . S
C1257 C446 1.527 . S
C1263 C281 1.519 . S
C1277 C314 1.531 . S
C1283 C479 1.533 . S
C1297 C512 1.532 . S
C1303 C347 1.532 . S
C1317 C413 1.528 . S
C1323 C380 1.519 . S
