# Generated by pormake.
# Topology qzd, (4)-cn, num edge types: 1
# Building blocks:
#     Node 0, Type 0, BuildingBlock: ESEHIV_clean_sbu_0, # of connection points: 4
#     Node 1, Type 0, BuildingBlock: ESEHIV_clean_sbu_0, # of connection points: 4
#     Node 2, Type 0, BuildingBlock: ESEHIV_clean_sbu_0, # of connection points: 4
#     Edge 3, Type (0, 0), BuildingBlock: ZUJKAS_clean_linker_0, # of connection points: 2
#     Edge 4, Type (0, 0), BuildingBlock: ZUJKAS_clean_linker_0, # of connection points: 2
#     Edge 5, Type (0, 0), BuildingBlock: ZUJKAS_clean_linker_0, # of connection points: 2
#     Edge 6, Type (0, 0), BuildingBlock: ZUJKAS_clean_linker_0, # of connection points: 2
#     Edge 7, Type (0, 0), BuildingBlock: ZUJKAS_clean_linker_0, # of connection points: 2
#     Edge 8, Type (0, 0), BuildingBlock: ZUJKAS_clean_linker_0, # of connection points: 2
# Relax obj value: 0.000
# Max RMSD: 0.159
# Mean RMSD: 0.075
data_MOF--net-qzd--node1-ESEHIV_clean_sbu_0--edge1-ZUJKAS_clean_linker_0
_symmetry_space_group_name_H-M    P1
_symmetry_Int_Tables_number       1
_symmetry_cell_setting            triclinic
loop_
_symmetry_equiv_pos_as_xyz
'x, y, z'
_cell_length_a     19.134433
_cell_length_b     21.700734
_cell_length_c     59.635848
_cell_angle_alpha  99.69459
_cell_angle_beta   99.166578
_cell_angle_gamma 116.48043
loop_
_atom_site_label
_atom_site_type_symbol
_atom_site_fract_x
_atom_site_fract_y
_atom_site_fract_z
_atom_type_partial_charge
Cu0 Cu 0.21821 0.13553 0.03818 0.0
N1 N 0.19407 0.07905 0.0594 0.0
N2 N 0.17776 0.05068 0.09331 0.0
C3 C 0.19177 0.10147 0.08161 0.0
C4 C 0.17085 0.994 0.07775 0.0
C5 C 0.18096 1.01164 0.0569 0.0
O6 O 0.16138 0.19092 0.04132 0.0
C7 C 0.371 0.15361 0.04366 0.0
O8 O 0.32602 0.08371 0.03765 0.0
H9 H 0.20281 0.15495 0.08923 0.0
H10 H 0.18084 0.97813 0.04126 0.0
N11 N 0.18131 0.07988 1.00681 0.0
N12 N 0.16507 0.052 0.96774 0.0
C13 C 0.20444 0.10382 0.98837 0.0
C14 C 0.12539 1.01054 0.99758 0.0
C15 C 0.11537 0.99317 0.97355 0.0
C16 C 0.08442 0.15303 0.03515 0.0
O17 O 0.05241 0.08327 0.02754 0.0
H18 H 0.24765 0.15881 0.99008 0.0
H19 H 0.09264 0.97536 1.00748 0.0
O20 O 0.33594 0.1916 0.04517 0.0
H21 H 0.15965 0.94344 0.08117 0.0
H22 H 0.07427 0.94118 0.96136 0.0
Cu23 Cu 0.08123 0.17264 0.3732 0.0
N24 N 0.11774 0.2709 0.37879 0.0
N25 N 0.19731 0.38618 0.38142 0.0
C26 C 0.1871 0.31928 0.37547 0.0
C27 C 0.13178 0.37958 0.38878 0.0
C28 C 0.08263 0.30836 0.38704 0.0
O29 O 0.11161 0.1429 0.34529 0.0
C30 C 0.10342 0.17408 0.41972 0.0
O31 O 0.05392 0.20064 0.41697 0.0
H32 H 0.22968 0.30566 0.36908 0.0
H33 H 1.02538 0.28553 0.39149 0.0
N34 N 0.96834 0.12128 0.36679 0.0
N35 N 0.84477 0.03382 0.36418 0.0
C36 C 0.92533 0.05856 0.37153 0.0
C37 C 0.91321 0.13698 0.35615 0.0
C38 C 0.8369 0.083 0.35445 0.0
C39 C 0.08876 0.1605 0.3273 0.0
O40 O 0.04785 0.19538 0.32915 0.0
H41 H 0.95272 0.0311 0.37986 0.0
H42 H 0.92745 0.18425 0.35002 0.0
O43 O 0.12624 0.15631 0.40193 0.0
H44 H 0.11971 0.42294 0.3947 0.0
H45 H 0.78011 0.08058 0.34689 0.0
Cu46 Cu 1.02638 0.03273 0.68012 0.0
N47 N 0.9625 0.07778 0.67875 0.0
N48 N 0.92811 0.16349 0.67765 0.0
C49 C 0.98766 0.14586 0.67791 0.0
C50 C 0.86303 0.10383 0.67834 0.0
C51 C 0.88443 0.05132 0.67907 0.0
O52 O 0.08892 0.05687 0.65705 0.0
C53 C 0.04685 0.0487 0.72746 0.0
O54 O 0.96775 1.0176 0.71944 0.0
H55 H 0.04904 0.18196 0.67796 0.0
H56 H 0.84593 0.99797 0.68017 0.0
N57 N 0.96259 0.93308 0.67175 0.0
N58 N 0.92826 0.8184 0.66845 0.0
C59 C 0.98704 0.8872 0.67764 0.0
C60 C 0.88592 0.89192 0.65823 0.0
C61 C 0.86446 0.82122 0.65627 0.0
C62 C 0.04523 0.03902 0.6361 0.0
O63 O 0.96623 1.00814 0.63256 0.0
H64 H 0.04681 0.90414 0.6885 0.0
H65 H 0.84867 0.91163 0.64991 0.0
O66 O 0.08961 0.06196 0.71275 0.0
H67 H 0.80382 0.09809 0.67822 0.0
H68 H 0.80713 0.77543 0.6461 0.0
H69 H 0.12024 0.28722 0.06068 0.0
H70 H 1.02305 0.3306 0.06583 0.0
H71 H 0.82885 0.13162 0.0189 0.0
H72 H 0.92422 0.08861 0.01362 0.0
H73 H 0.82291 0.25645 0.01135 0.0
H74 H 0.85832 0.24823 0.10528 0.0
H75 H 0.94706 0.29989 0.09613 0.0
H76 H 0.89452 0.20421 0.08549 0.0
C77 C 0.05695 0.25331 0.05126 0.0
C78 C 0.02985 0.18423 0.03692 0.0
C79 C 1.00152 0.27797 0.05429 0.0
C80 C 0.91856 0.23402 0.04289 0.0
C81 C 0.89246 0.16648 0.02786 0.0
H82 H 0.45909 0.0879 0.05306 0.0
H83 H 0.60198 0.13091 0.05591 0.0
C84 C 0.94722 0.14182 0.02497 0.0
C85 C 0.85646 0.25449 0.0473 0.0
H86 H 0.74511 0.25423 0.08674 0.0
C87 C 0.8071 0.25828 0.02803 0.0
C88 C 0.83589 0.25649 0.06907 0.0
C89 C 0.88622 0.25178 0.09024 0.0
C90 C 0.73445 0.25833 0.02942 0.0
C91 C 0.71096 0.25507 0.0507 0.0
C92 C 0.76352 0.25706 0.07049 0.0
C93 C 0.62625 0.23465 0.05129 0.0
C94 C 0.67994 0.25561 1.00755 0.0
C95 C 0.59233 0.27936 0.04822 0.0
C96 C 0.50961 0.2547 0.04661 0.0
C97 C 0.45997 0.18487 0.04785 0.0
C98 C 0.49526 0.1417 0.05179 0.0
C99 C 0.57725 0.16635 0.05355 0.0
H100 H 0.70457 0.25335 0.99196 0.0
H101 H 0.61905 0.20806 1.0034 0.0
H102 H 0.67237 0.30387 0.01073 0.0
H103 H 0.62931 0.33256 0.04663 0.0
H104 H 0.4841 0.28916 0.0436 0.0
H105 H 0.695 0.95155 0.33417 0.0
H106 H 0.58613 0.84106 0.33762 0.0
H107 H 0.73974 0.85765 0.40226 0.0
H108 H 0.84938 0.96755 0.39861 0.0
H109 H 0.66084 0.72353 0.37454 0.0
H110 H 0.4418 0.82289 0.38103 0.0
H111 H 0.47541 0.83041 0.35473 0.0
H112 H 0.54672 0.88147 0.38313 0.0
C113 C 0.7053 0.93199 0.34922 0.0
C114 C 0.78063 0.96856 0.3662 0.0
C115 C 0.64294 0.8689 0.35122 0.0
C116 C 0.65404 0.84173 0.37047 0.0
C117 C 0.72957 0.87768 0.3873 0.0
H118 H 0.25938 0.51923 0.41026 0.0
H119 H 0.37286 0.62923 0.40821 0.0
C120 C 0.79227 0.94039 0.38517 0.0
C121 C 0.58746 0.77524 0.37286 0.0
H122 H 0.39002 0.69741 0.37492 0.0
C123 C 0.60173 0.71795 0.37475 0.0
C124 C 0.51067 0.76826 0.37352 0.0
C125 C 0.49287 0.82929 0.37325 0.0
C126 C 0.54108 0.65357 0.37688 0.0
C127 C 0.46318 0.64547 0.37646 0.0
C128 C 0.44937 0.7032 0.37497 0.0
C129 C 0.39533 0.57808 0.37787 0.0
C130 C 0.5618 0.59559 0.38007 0.0
C131 C 0.36948 0.51269 0.36138 0.0
C132 C 0.30508 0.44967 0.36268 0.0
C133 C 0.26417 0.45098 0.38021 0.0
C134 C 0.28928 0.51663 0.39646 0.0
C135 C 0.35429 0.57946 0.39533 0.0
H136 H 0.62804 0.61772 0.38722 0.0
H137 H 0.53022 0.56652 0.39214 0.0
H138 H 0.54281 0.55668 0.36268 0.0
H139 H 0.39842 0.51044 0.3473 0.0
H140 H 0.28616 0.40014 0.34966 0.0
H141 H 0.80531 0.69046 0.6675 0.0
H142 H 0.81269 0.58208 0.66996 0.0
H143 H 0.06899 0.69339 0.67592 0.0
H144 H 0.06207 0.80219 0.67373 0.0
H145 H 0.85668 0.50473 0.64055 0.0
H146 H 0.06345 0.60497 0.73056 0.0
H147 H 1.01528 0.65281 0.71946 0.0
H148 H 0.10344 0.65795 0.711 0.0
C149 C 0.86324 0.69188 0.66935 0.0
C150 C 0.93314 0.75504 0.6705 0.0
C151 C 0.86745 0.62997 0.67083 0.0
C152 C 0.94159 0.6298 0.67347 0.0
C153 C 1.01149 0.69266 0.6745 0.0
H154 H 0.03733 0.26923 0.66273 0.0
H155 H 0.04432 0.38417 0.66181 0.0
C156 C 1.00743 0.75483 0.6732 0.0
C157 C 0.94469 0.56297 0.67427 0.0
H158 H 0.03141 0.48993 0.70813 0.0
C159 C 0.89486 0.50159 0.65535 0.0
C160 C 0.99452 0.55883 0.69361 0.0
C161 C 0.04667 0.62192 0.71492 0.0
C162 C 0.89358 0.43637 0.65525 0.0
C163 C 0.94336 0.43243 0.67451 0.0
C164 C 0.99374 0.49361 0.69334 0.0
C165 C 0.94094 0.36407 0.67573 0.0
C166 C 0.83876 0.37164 0.63468 0.0
C167 C 0.88083 0.31528 0.68403 0.0
C168 C 0.87694 0.24984 0.68479 0.0
C169 C 0.93303 0.23171 0.67716 0.0
C170 C 0.99366 0.28137 0.66899 0.0
C171 C 0.99763 0.34702 0.66834 0.0
H172 H 0.80809 0.38467 0.62025 0.0
H173 H 0.87418 0.34791 0.62757 0.0
H174 H 0.79187 0.33051 0.64078 0.0
H175 H 0.83676 0.32785 0.68988 0.0
H176 H 0.83027 0.21386 0.69155 0.0
H177 H 0.06066 0.20588 0.28884 0.0
H178 H 0.08855 0.17951 0.25108 0.0
H179 H 0.18743 0.05192 0.27582 0.0
H180 H 0.15936 0.07816 0.31418 0.0
H181 H 0.24637 0.20856 0.24351 0.0
H182 H 1.01172 0.92062 0.21126 0.0
H183 H 1.00661 0.98207 0.23462 0.0
H184 H 0.0798 0.95247 0.24028 0.0
C185 C 0.08824 0.17203 0.2864 0.0
C186 C 0.10756 0.14393 0.30458 0.0
C187 C 0.10426 0.15716 0.26474 0.0
C188 C 0.13948 0.11344 0.26059 0.0
C189 C 0.15942 0.08526 0.27863 0.0
H190 H 0.21101 0.97766 0.12242 0.0
H191 H 0.2083 0.99086 0.1638 0.0
C192 C 0.14368 0.10051 0.30053 0.0
C193 C 0.15538 0.09892 0.23727 0.0
H194 H 0.08211 0.97189 0.18458 0.0
C195 C 0.21127 0.15659 0.2307 0.0
C196 C 0.10969 0.03105 0.22067 0.0
C197 C 0.04819 0.96775 0.22685 0.0
C198 C 0.22103 0.14877 0.20775 0.0
C199 C 0.17223 0.08185 0.19074 0.0
C200 C 0.11898 1.02328 0.1976 0.0
C201 C 0.1727 0.07279 0.16552 0.0
C202 C 0.28309 0.21252 0.20188 0.0
C203 C 0.15188 0.11333 0.15258 0.0
C204 C 0.1531 0.10578 0.12892 0.0
C205 C 0.17454 0.05704 0.11759 0.0
C206 C 0.19363 1.01531 0.13048 0.0
C207 C 0.19251 1.02301 0.15419 0.0
H208 H 0.33129 0.25164 0.21793 0.0
H209 H 0.31176 0.19598 0.18903 0.0
H210 H 0.25293 0.24009 0.19394 0.0
H211 H 0.13425 0.1507 0.16077 0.0
H212 H 0.13638 0.13765 0.11946 0.0
H213 H 0.20632 0.1054 0.63538 0.0
H214 H 0.25897 0.12904 0.60085 0.0
H215 H 1.0144 0.0275 0.55674 0.0
H216 H 0.96204 1.00284 0.59049 0.0
H217 H 0.11258 0.98675 0.53617 0.0
H218 H 0.25731 0.28328 0.56973 0.0
H219 H 0.28832 0.23607 0.58752 0.0
H220 H 0.18774 0.22432 0.58341 0.0
C221 C 0.16403 0.08793 0.61827 0.0
C222 C 0.07998 0.05265 0.61576 0.0
C223 C 0.19415 0.10165 0.59858 0.0
C224 C 0.14056 0.08048 0.57621 0.0
C225 C 0.05697 0.04411 0.57376 0.0
H226 H 0.06134 0.20854 0.45935 0.0
H227 H 0.09406 0.18777 0.49734 0.0
C228 C 1.0271 0.03038 0.59321 0.0
C229 C 0.16882 0.09783 0.55512 0.0
H230 H 0.23951 0.23591 0.52979 0.0
C231 C 0.14227 0.04129 0.53483 0.0
C232 C 0.20773 0.16906 0.55348 0.0
C233 C 0.23679 0.23194 0.57459 0.0
C234 C 0.14681 0.05367 0.51259 0.0
C235 C 0.18038 0.12472 0.51068 0.0
C236 C 0.21369 0.1815 0.5313 0.0
C237 C 0.16715 0.14059 0.48755 0.0
C238 C 0.10933 0.99042 0.49109 0.0
C239 C 0.19797 0.12155 0.46925 0.0
C240 C 0.17856 0.13293 0.44711 0.0
C241 C 0.12843 0.16382 0.44306 0.0
C242 C 0.09981 0.18435 0.46169 0.0
C243 C 0.11885 0.17286 0.48358 0.0
H244 H 0.07712 0.93877 0.49541 0.0
H245 H 0.06576 0.99499 0.47767 0.0
H246 H 0.15747 0.98938 0.48311 0.0
H247 H 0.23632 0.09744 0.47201 0.0
H248 H 0.20196 0.11692 0.43317 0.0
H249 H 0.19953 0.07708 0.75055 0.0
H250 H 0.25013 0.0929 0.79295 0.0
H251 H 1.02464 0.07278 0.80416 0.0
H252 H 0.97424 0.05722 0.76237 0.0
H253 H 0.16898 0.18692 0.83881 0.0
H254 H 0.15756 0.92157 0.82341 0.0
H255 H 0.21347 0.98302 0.80786 0.0
H256 H 0.10538 0.94425 0.801 0.0
C257 C 0.16135 0.0769 0.76217 0.0
C258 C 0.08265 0.06524 0.75309 0.0
C259 C 0.1901 0.08559 0.78631 0.0
C260 C 0.14072 0.08332 0.80163 0.0
C261 C 0.06367 0.0746 0.79267 0.0
H262 H 0.05259 0.96855 0.9261 0.0
H263 H 0.06184 0.98174 0.88673 0.0
C264 C 0.03485 0.06539 0.76871 0.0
C265 C 0.16591 0.08632 0.82681 0.0
H266 H 0.18058 0.98256 0.86252 0.0
C267 C 0.17333 0.14306 0.84412 0.0
C268 C 0.17044 0.0285 0.83357 0.0
C269 C 0.16098 0.96549 0.81558 0.0
C270 C 0.18187 0.14217 0.8679 0.0
C271 C 0.18358 0.08315 0.87452 0.0
C272 C 0.17948 0.0278 0.85737 0.0
C273 C 0.18129 0.07441 0.8986 0.0
C274 C 0.18428 0.2023 0.88551 0.0
C275 C 0.24591 0.12167 0.91837 0.0
C276 C 0.24103 0.11406 0.94103 0.0
C277 C 0.17145 0.0589 0.94434 0.0
C278 C 0.10751 1.01108 0.92435 0.0
C279 C 0.11253 1.01868 0.90176 0.0
H280 H 0.16969 0.23818 0.87685 0.0
H281 H 0.14086 0.18066 0.89615 0.0
H282 H 0.24585 0.23474 0.89778 0.0
H283 H 0.30006 0.16445 0.91629 0.0
H284 H 0.29201 0.15115 0.95591 0.0
loop_
_geom_bond_atom_site_label_1
_geom_bond_atom_site_label_2
_geom_bond_distance
_geom_bond_site_symmetry_2
_ccdc_geom_bond_type
Cu0 N1 1.999 . S
Cu0 O6 1.974 1_455 S
Cu0 N11 1.985 1_554 S
Cu0 O20 1.959 . S
N1 Cu0 1.999 . S
N1 C3 1.263 1_455 S
N1 C5 1.389 . S
N2 C3 1.358 1_455 S
N2 C4 1.400 . S
C3 N1 1.263 1_655 S
C3 N2 1.358 1_655 S
C3 H9 0.930 1_545 S
C4 N2 1.400 . S
C4 C5 1.351 . S
C4 H21 0.930 . S
C5 N1 1.389 . S
C5 C4 1.351 . S
C5 H10 0.930 . S
O6 Cu0 1.974 1_655 S
O6 C16 1.282 1_545 S
C7 O8 1.261 . S
C7 O20 1.251 1_565 S
O8 C7 1.261 . S
H9 C3 0.930 1_565 S
H10 C5 0.930 . S
N11 Cu0 1.985 1_556 S
N11 C13 1.335 . S
N11 C14 1.390 1_445 S
N12 C13 1.345 . S
N12 C15 1.336 1_445 S
C13 N11 1.335 . S
C13 N12 1.345 . S
C13 H18 0.930 . S
C14 N11 1.390 1_665 S
C14 C15 1.346 . S
C14 H19 0.930 . S
C15 N12 1.336 1_665 S
C15 C14 1.346 . S
C15 H22 0.929 . S
C16 O6 1.282 1_565 S
C16 O17 1.216 . S
O17 C16 1.216 . S
H18 C13 0.930 . S
H19 C14 0.930 . S
O20 Cu0 1.959 . S
O20 C7 1.251 1_545 S
H21 C4 0.930 . S
H22 C15 0.929 . S
Cu23 N24 1.999 . S
Cu23 O29 1.974 . S
Cu23 N34 1.985 1_455 S
Cu23 O43 1.959 . S
N24 Cu23 1.999 . S
N24 C26 1.263 . S
N24 C28 1.389 . S
N25 C26 1.358 . S
N25 C27 1.400 . S
C26 N24 1.263 . S
C26 N25 1.358 . S
C26 H32 0.930 . S
C27 N25 1.400 . S
C27 C28 1.351 . S
C27 H44 0.930 . S
C28 N24 1.389 . S
C28 C27 1.351 . S
C28 H33 0.930 . S
O29 Cu23 1.974 . S
O29 C39 1.282 1_455 S
C30 O31 1.261 1_455 S
C30 O43 1.251 . S
O31 C30 1.261 1_655 S
H32 C26 0.930 . S
H33 C28 0.930 . S
N34 Cu23 1.985 1_655 S
N34 C36 1.335 1_545 S
N34 C37 1.390 1_545 S
N35 C36 1.345 . S
N35 C38 1.336 . S
C36 N34 1.335 1_565 S
C36 N35 1.345 . S
C36 H41 0.930 . S
C37 N34 1.390 1_565 S
C37 C38 1.346 . S
C37 H42 0.930 1_565 S
C38 N35 1.336 . S
C38 C37 1.346 . S
C38 H45 0.929 . S
C39 O29 1.282 1_655 S
C39 O40 1.216 . S
O40 C39 1.216 . S
H41 C36 0.930 . S
H42 C37 0.930 1_545 S
O43 Cu23 1.959 . S
O43 C30 1.251 . S
H44 C27 0.930 . S
H45 C38 0.929 . S
Cu46 N47 1.999 . S
Cu46 O52 1.974 . S
Cu46 N57 1.985 . S
Cu46 O66 1.959 . S
N47 Cu46 1.999 . S
N47 C49 1.263 . S
N47 C51 1.389 . S
N48 C49 1.358 . S
N48 C50 1.400 . S
C49 N47 1.263 . S
C49 N48 1.358 . S
C49 H55 0.930 . S
C50 N48 1.400 . S
C50 C51 1.351 . S
C50 H67 0.930 . S
C51 N47 1.389 . S
C51 C50 1.351 . S
C51 H56 0.930 . S
O52 Cu46 1.974 . S
O52 C62 1.282 . S
C53 O54 1.261 . S
C53 O66 1.251 . S
O54 C53 1.261 . S
H55 C49 0.930 . S
H56 C51 0.930 . S
N57 Cu46 1.985 . S
N57 C59 1.335 . S
N57 C60 1.397 . S
N58 C59 1.345 1_565 S
N58 C61 1.336 . S
C59 N57 1.335 . S
C59 N58 1.345 1_545 S
C59 H64 0.930 . S
C60 N57 1.397 . S
C60 C61 1.329 1_545 S
C60 H65 0.939 . S
C61 N58 1.336 . S
C61 C60 1.329 1_565 S
C61 H68 0.929 . S
C62 O52 1.282 . S
C62 O63 1.216 . S
O63 C62 1.216 . S
H64 C59 0.930 . S
H65 C60 0.939 . S
O66 Cu46 1.959 . S
O66 C53 1.251 . S
H67 C50 0.930 . S
H68 C61 0.929 . S
H69 C77 0.929 . S
H70 C79 0.930 . S
H71 C81 0.930 1_556 S
H72 C84 0.929 1_556 S
H73 C87 0.966 . S
H74 C89 0.960 . S
H75 C89 0.960 . S
H76 C89 0.960 . S
C77 H69 0.929 . S
C77 C78 1.377 1_545 S
C77 C79 1.384 . S
C78 C77 1.377 1_565 S
C78 C84 1.390 . S
C79 H70 0.930 . S
C79 C77 1.384 . S
C79 C80 1.372 1_545 S
C80 C79 1.372 1_565 S
C80 C81 1.400 . S
C80 C85 1.490 . S
C81 H71 0.930 1_554 S
C81 C80 1.400 . S
C81 C84 1.386 . S
H82 C98 0.934 . S
H83 C99 0.931 . S
C84 H72 0.929 1_554 S
C84 C78 1.390 . S
C84 C81 1.386 . S
C85 C80 1.490 . S
C85 C87 1.365 1_564 S
C85 C88 1.403 . S
H86 C92 0.930 . S
C87 H73 0.966 . S
C87 C85 1.365 1_546 S
C87 C90 1.400 . S
C88 C85 1.403 . S
C88 C89 1.524 . S
C88 C92 1.400 . S
C89 H74 0.960 . S
C89 H75 0.960 . S
C89 H76 0.960 . S
C89 C88 1.524 . S
C90 C87 1.400 . S
C90 C91 1.392 1_546 S
C90 C94 1.495 . S
C91 C90 1.392 1_564 S
C91 C92 1.385 . S
C91 C93 1.478 . S
C92 H86 0.930 . S
C92 C88 1.400 . S
C92 C91 1.385 . S
C93 C91 1.478 . S
C93 C95 1.381 1_565 S
C93 C99 1.383 1_554 S
C94 C90 1.495 . S
C94 H100 0.959 . S
C94 H101 0.961 . S
C94 H102 0.960 . S
C95 C93 1.381 1_545 S
C95 C96 1.394 . S
C95 H103 0.930 . S
C96 C95 1.394 . S
C96 C97 1.383 1_545 S
C96 H104 0.929 . S
C97 C96 1.383 1_565 S
C97 C98 1.366 1_554 S
C98 H82 0.934 . S
C98 C97 1.366 1_556 S
C98 C99 1.388 . S
C99 H83 0.931 . S
C99 C93 1.383 1_556 S
C99 C98 1.388 . S
H100 C94 0.959 . S
H101 C94 0.961 . S
H102 C94 0.960 . S
H103 C95 0.930 . S
H104 C96 0.929 . S
H105 C113 0.929 . S
H106 C115 0.930 . S
H107 C117 0.930 . S
H108 C120 0.929 . S
H109 C123 0.930 . S
H110 C125 0.960 . S
H111 C125 0.960 . S
H112 C125 0.960 . S
C113 H105 0.929 . S
C113 C114 1.377 . S
C113 C115 1.384 . S
C114 C113 1.377 . S
C114 C120 1.390 . S
C115 H106 0.930 . S
C115 C113 1.384 . S
C115 C116 1.372 . S
C116 C115 1.372 . S
C116 C117 1.400 . S
C116 C121 1.490 . S
C117 H107 0.930 . S
C117 C116 1.400 . S
C117 C120 1.386 . S
H118 C134 0.930 . S
H119 C135 0.931 . S
C120 H108 0.929 . S
C120 C114 1.390 . S
C120 C117 1.386 . S
C121 C116 1.490 . S
C121 C123 1.395 . S
C121 C124 1.403 . S
H122 C128 0.930 . S
C123 H109 0.930 . S
C123 C121 1.395 . S
C123 C126 1.403 . S
C124 C121 1.403 . S
C124 C125 1.524 . S
C124 C128 1.400 . S
C125 H110 0.960 . S
C125 H111 0.960 . S
C125 H112 0.960 . S
C125 C124 1.524 . S
C126 C123 1.403 . S
C126 C127 1.392 . S
C126 C130 1.495 . S
C127 C126 1.392 . S
C127 C128 1.385 . S
C127 C129 1.478 . S
C128 H122 0.930 . S
C128 C124 1.400 . S
C128 C127 1.385 . S
C129 C127 1.478 . S
C129 C131 1.381 . S
C129 C135 1.383 . S
C130 C126 1.495 . S
C130 H136 0.959 . S
C130 H137 0.961 . S
C130 H138 0.960 . S
C131 C129 1.381 . S
C131 C132 1.394 . S
C131 H139 0.930 . S
C132 C131 1.394 . S
C132 C133 1.383 . S
C132 H140 0.929 . S
C133 C132 1.383 . S
C133 C134 1.377 . S
C134 H118 0.930 . S
C134 C133 1.377 . S
C134 C135 1.379 . S
C135 H119 0.931 . S
C135 C129 1.383 . S
C135 C134 1.379 . S
H136 C130 0.959 . S
H137 C130 0.961 . S
H138 C130 0.960 . S
H139 C131 0.930 . S
H140 C132 0.929 . S
H141 C149 0.929 . S
H142 C151 0.930 . S
H143 C153 0.930 . S
H144 C156 0.929 . S
H145 C159 0.930 . S
H146 C161 0.960 . S
H147 C161 0.960 . S
H148 C161 0.960 . S
C149 H141 0.929 . S
C149 C150 1.377 . S
C149 C151 1.384 . S
C150 C149 1.377 . S
C150 C156 1.390 . S
C151 H142 0.930 . S
C151 C149 1.384 . S
C151 C152 1.372 . S
C152 C151 1.372 . S
C152 C153 1.400 . S
C152 C157 1.490 . S
C153 H143 0.930 . S
C153 C152 1.400 . S
C153 C156 1.386 . S
H154 C170 0.930 . S
H155 C171 0.931 . S
C156 H144 0.929 . S
C156 C150 1.390 . S
C156 C153 1.386 . S
C157 C152 1.490 . S
C157 C159 1.395 . S
C157 C160 1.403 . S
H158 C164 0.930 . S
C159 H145 0.930 . S
C159 C157 1.395 . S
C159 C162 1.403 . S
C160 C157 1.403 . S
C160 C161 1.524 . S
C160 C164 1.400 . S
C161 H146 0.960 . S
C161 H147 0.960 . S
C161 H148 0.960 . S
C161 C160 1.524 . S
C162 C159 1.403 . S
C162 C163 1.392 . S
C162 C166 1.495 . S
C163 C162 1.392 . S
C163 C164 1.385 . S
C163 C165 1.478 . S
C164 H158 0.930 . S
C164 C160 1.400 . S
C164 C163 1.385 . S
C165 C163 1.478 . S
C165 C167 1.381 . S
C165 C171 1.383 . S
C166 C162 1.495 . S
C166 H172 0.959 . S
C166 H173 0.961 . S
C166 H174 0.960 . S
C167 C165 1.381 . S
C167 C168 1.394 . S
C167 H175 0.930 . S
C168 C167 1.394 . S
C168 C169 1.383 . S
C168 H176 0.929 . S
C169 C168 1.383 . S
C169 C170 1.377 . S
C170 H154 0.930 . S
C170 C169 1.377 . S
C170 C171 1.379 . S
C171 H155 0.931 . S
C171 C165 1.383 . S
C171 C170 1.379 . S
H172 C166 0.959 . S
H173 C166 0.961 . S
H174 C166 0.960 . S
H175 C167 0.930 . S
H176 C168 0.929 . S
H177 C185 0.929 . S
H178 C187 0.930 . S
H179 C189 0.930 1_565 S
H180 C192 0.929 . S
H181 C195 0.930 . S
H182 C197 0.960 1_565 S
H183 C197 0.960 . S
H184 C197 0.960 1_565 S
C185 H177 0.929 . S
C185 C186 1.377 1_455 S
C185 C187 1.384 . S
C186 C185 1.377 1_655 S
C186 C192 1.390 . S
C187 H178 0.930 . S
C187 C185 1.384 . S
C187 C188 1.372 1_455 S
C188 C187 1.372 1_655 S
C188 C189 1.400 . S
C188 C193 1.490 . S
C189 H179 0.930 1_545 S
C189 C188 1.400 . S
C189 C192 1.386 . S
H190 C206 0.930 . S
H191 C207 0.931 . S
C192 H180 0.929 . S
C192 C186 1.390 . S
C192 C189 1.386 . S
C193 C188 1.490 . S
C193 C195 1.395 1_655 S
C193 C196 1.403 . S
H194 C200 0.930 . S
C195 H181 0.930 . S
C195 C193 1.395 1_455 S
C195 C198 1.403 . S
C196 C193 1.403 . S
C196 C197 1.524 . S
C196 C200 1.400 . S
C197 H182 0.960 1_545 S
C197 H183 0.960 . S
C197 H184 0.960 1_545 S
C197 C196 1.524 . S
C198 C195 1.403 . S
C198 C199 1.392 . S
C198 C202 1.495 . S
C199 C198 1.392 . S
C199 C200 1.385 1_455 S
C199 C201 1.478 . S
C200 H194 0.930 . S
C200 C196 1.400 . S
C200 C199 1.385 1_655 S
C201 C199 1.478 . S
C201 C203 1.381 . S
C201 C207 1.383 1_445 S
C202 C198 1.495 . S
C202 H208 0.959 . S
C202 H209 0.961 . S
C202 H210 0.960 . S
C203 C201 1.381 . S
C203 C204 1.394 . S
C203 H211 0.930 . S
C204 C203 1.394 . S
C204 C205 1.383 . S
C204 H212 0.929 . S
C205 C204 1.383 . S
C205 C206 1.377 1_445 S
C206 H190 0.930 . S
C206 C205 1.377 1_665 S
C206 C207 1.379 . S
C207 H191 0.931 . S
C207 C201 1.383 1_665 S
C207 C206 1.379 . S
H208 C202 0.959 . S
H209 C202 0.961 . S
H210 C202 0.960 . S
H211 C203 0.930 . S
H212 C204 0.929 . S
H213 C221 0.929 . S
H214 C223 0.930 . S
H215 C225 0.930 . S
H216 C228 0.929 . S
H217 C231 0.930 . S
H218 C233 0.960 . S
H219 C233 0.960 1_455 S
H220 C233 0.960 . S
C221 H213 0.929 . S
C221 C222 1.377 . S
C221 C223 1.384 . S
C222 C221 1.377 . S
C222 C228 1.390 . S
C223 H214 0.930 . S
C223 C221 1.384 . S
C223 C224 1.372 . S
C224 C223 1.372 . S
C224 C225 1.400 . S
C224 C229 1.490 . S
C225 H215 0.930 . S
C225 C224 1.400 . S
C225 C228 1.386 . S
H226 C242 0.930 . S
H227 C243 0.931 . S
C228 H216 0.929 . S
C228 C222 1.390 . S
C228 C225 1.386 . S
C229 C224 1.490 . S
C229 C231 1.395 . S
C229 C232 1.403 . S
H230 C236 0.930 1_655 S
C231 H217 0.930 . S
C231 C229 1.395 . S
C231 C234 1.403 . S
C232 C229 1.403 . S
C232 C233 1.524 1_455 S
C232 C236 1.400 . S
C233 H218 0.960 . S
C233 H219 0.960 1_655 S
C233 H220 0.960 . S
C233 C232 1.524 1_655 S
C234 C231 1.403 . S
C234 C235 1.392 . S
C234 C238 1.495 . S
C235 C234 1.392 . S
C235 C236 1.385 . S
C235 C237 1.478 . S
C236 H230 0.930 1_455 S
C236 C232 1.400 . S
C236 C235 1.385 . S
C237 C235 1.478 . S
C237 C239 1.381 . S
C237 C243 1.383 1_455 S
C238 C234 1.495 . S
C238 H244 0.959 . S
C238 H245 0.961 . S
C238 H246 0.960 . S
C239 C237 1.381 . S
C239 C240 1.394 . S
C239 H247 0.930 . S
C240 C239 1.394 . S
C240 C241 1.383 . S
C240 H248 0.929 . S
C241 C240 1.383 . S
C241 C242 1.377 1_455 S
C242 H226 0.930 . S
C242 C241 1.377 1_655 S
C242 C243 1.379 . S
C243 H227 0.931 . S
C243 C237 1.383 1_655 S
C243 C242 1.379 . S
H244 C238 0.959 . S
H245 C238 0.961 . S
H246 C238 0.960 . S
H247 C239 0.930 . S
H248 C240 0.929 . S
H249 C257 0.929 . S
H250 C259 0.930 . S
H251 C261 0.930 . S
H252 C264 0.929 . S
H253 C267 0.930 . S
H254 C269 0.960 . S
H255 C269 0.960 1_455 S
H256 C269 0.960 . S
C257 H249 0.929 . S
C257 C258 1.377 . S
C257 C259 1.384 . S
C258 C257 1.377 . S
C258 C264 1.390 . S
C259 H250 0.930 . S
C259 C257 1.384 . S
C259 C260 1.372 . S
C260 C259 1.372 . S
C260 C261 1.400 . S
C260 C265 1.490 . S
C261 H251 0.930 . S
C261 C260 1.400 . S
C261 C264 1.386 . S
H262 C278 0.930 1_655 S
H263 C279 0.931 . S
C264 H252 0.929 . S
C264 C258 1.390 . S
C264 C261 1.386 . S
C265 C260 1.490 . S
C265 C267 1.395 . S
C265 C268 1.403 . S
H266 C272 0.930 1_565 S
C267 H253 0.930 . S
C267 C265 1.395 . S
C267 C270 1.403 . S
C268 C265 1.403 . S
C268 C269 1.524 1_445 S
C268 C272 1.400 . S
C269 H254 0.960 . S
C269 H255 0.960 1_655 S
C269 H256 0.960 . S
C269 C268 1.524 1_665 S
C270 C267 1.403 . S
C270 C271 1.392 . S
C270 C274 1.495 . S
C271 C270 1.392 . S
C271 C272 1.385 . S
C271 C273 1.478 . S
C272 H266 0.930 1_545 S
C272 C268 1.400 . S
C272 C271 1.385 . S
C273 C271 1.478 . S
C273 C275 1.381 . S
C273 C279 1.383 . S
C274 C270 1.495 . S
C274 H280 0.959 . S
C274 H281 0.961 . S
C274 H282 0.960 . S
C275 C273 1.381 . S
C275 C276 1.394 . S
C275 H283 0.930 . S
C276 C275 1.394 . S
C276 C277 1.383 . S
C276 H284 0.929 . S
C277 C276 1.383 . S
C277 C278 1.377 . S
C278 H262 0.930 1_455 S
C278 C277 1.377 . S
C278 C279 1.379 . S
C279 H263 0.931 . S
C279 C273 1.383 . S
C279 C278 1.379 . S
H280 C274 0.959 . S
H281 C274 0.961 . S
H282 C274 0.960 . S
H283 C275 0.930 . S
H284 C276 0.929 . S
C78 C16 1.476 . S
C97 C7 1.482 . S
C114 N35 1.454 . S
C133 N25 1.443 . S
C150 N58 1.461 . S
C169 N48 1.472 . S
C186 C39 1.587 . S
C205 N2 1.506 . S
C222 C62 1.574 . S
C241 C30 1.576 . S
C258 C53 1.532 . S
C277 N12 1.515 . S
