# Generated by pormake.
# Topology snk, (6)-cn, num edge types: 1
# Building blocks:
#     Node 0, Type 0, BuildingBlock: MIFKUJ_clean_sbu_0, # of connection points: 6
#     Node 1, Type 0, BuildingBlock: MIFKUJ_clean_sbu_0, # of connection points: 6
#     Node 2, Type 0, BuildingBlock: MIFKUJ_clean_sbu_0, # of connection points: 6
#     Node 3, Type 0, BuildingBlock: MIFKUJ_clean_sbu_0, # of connection points: 6
#     Node 4, Type 0, BuildingBlock: MIFKUJ_clean_sbu_0, # of connection points: 6
#     Node 5, Type 0, BuildingBlock: MIFKUJ_clean_sbu_0, # of connection points: 6
#     Node 6, Type 0, BuildingBlock: MIFKUJ_clean_sbu_0, # of connection points: 6
#     Node 7, Type 0, BuildingBlock: MIFKUJ_clean_sbu_0, # of connection points: 6
#     Edge 8, Type (0, 0), BuildingBlock: XUDNAN_clean_linker_2, # of connection points: 2
#     Edge 9, Type (0, 0), BuildingBlock: XUDNAN_clean_linker_2, # of connection points: 2
#     Edge 10, Type (0, 0), BuildingBlock: XUDNAN_clean_linker_2, # of connection points: 2
#     Edge 11, Type (0, 0), BuildingBlock: XUDNAN_clean_linker_2, # of connection points: 2
#     Edge 12, Type (0, 0), BuildingBlock: XUDNAN_clean_linker_2, # of connection points: 2
#     Edge 13, Type (0, 0), BuildingBlock: XUDNAN_clean_linker_2, # of connection points: 2
#     Edge 14, Type (0, 0), BuildingBlock: XUDNAN_clean_linker_2, # of connection points: 2
#     Edge 15, Type (0, 0), BuildingBlock: XUDNAN_clean_linker_2, # of connection points: 2
#     Edge 16, Type (0, 0), BuildingBlock: XUDNAN_clean_linker_2, # of connection points: 2
#     Edge 17, Type (0, 0), BuildingBlock: XUDNAN_clean_linker_2, # of connection points: 2
#     Edge 18, Type (0, 0), BuildingBlock: XUDNAN_clean_linker_2, # of connection points: 2
#     Edge 19, Type (0, 0), BuildingBlock: XUDNAN_clean_linker_2, # of connection points: 2
#     Edge 20, Type (0, 0), BuildingBlock: XUDNAN_clean_linker_2, # of connection points: 2
#     Edge 21, Type (0, 0), BuildingBlock: XUDNAN_clean_linker_2, # of connection points: 2
#     Edge 22, Type (0, 0), BuildingBlock: XUDNAN_clean_linker_2, # of connection points: 2
#     Edge 23, Type (0, 0), BuildingBlock: XUDNAN_clean_linker_2, # of connection points: 2
#     Edge 24, Type (0, 0), BuildingBlock: XUDNAN_clean_linker_2, # of connection points: 2
#     Edge 25, Type (0, 0), BuildingBlock: XUDNAN_clean_linker_2, # of connection points: 2
#     Edge 26, Type (0, 0), BuildingBlock: XUDNAN_clean_linker_2, # of connection points: 2
#     Edge 27, Type (0, 0), BuildingBlock: XUDNAN_clean_linker_2, # of connection points: 2
#     Edge 28, Type (0, 0), BuildingBlock: XUDNAN_clean_linker_2, # of connection points: 2
#     Edge 29, Type (0, 0), BuildingBlock: XUDNAN_clean_linker_2, # of connection points: 2
#     Edge 30, Type (0, 0), BuildingBlock: XUDNAN_clean_linker_2, # of connection points: 2
#     Edge 31, Type (0, 0), BuildingBlock: XUDNAN_clean_linker_2, # of connection points: 2
# Relax obj value: 0.034
# Max RMSD: 0.069
# Mean RMSD: 0.067
data_MOF--net-snk--node1-MIFKUJ_clean_sbu_0--edge1-XUDNAN_clean_linker_2
_symmetry_space_group_name_H-M    P1
_symmetry_Int_Tables_number       1
_symmetry_cell_setting            triclinic
loop_
_symmetry_equiv_pos_as_xyz
'x, y, z'
_cell_length_a     42.162098
_cell_length_b     42.188494
_cell_length_c     18.43846
_cell_angle_alpha  97.677636
_cell_angle_beta   82.031339
_cell_angle_gamma 88.810433
loop_
_atom_site_label
_atom_site_type_symbol
_atom_site_fract_x
_atom_site_fract_y
_atom_site_fract_z
_atom_type_partial_charge
Zn0 Zn 0.00817 0.01062 0.42492 0.0
Zn1 Zn 0.01396 0.02212 0.60036 0.0
C2 C 0.95143 0.03679 0.38906 0.0
O3 O 0.95281 0.00802 0.35114 0.0
C4 C 0.07261 0.98658 0.58879 0.0
O5 O 0.08112 0.01472 0.61785 0.0
O6 O 0.01718 0.99393 0.3148 0.0
O7 O 0.04889 0.03215 0.44992 0.0
O8 O 0.0307 0.06093 0.55724 0.0
C9 C 0.02265 0.01449 0.27025 0.0
O10 O 0.02509 0.04461 0.29756 0.0
O11 O 0.97267 0.04442 0.43035 0.0
C12 C 0.00567 1.00143 0.73897 0.0
O13 O 0.99888 0.97655 0.69359 0.0
O14 O 0.01228 0.02737 0.71272 0.0
O15 O 0.97026 0.00969 0.57964 0.0
O16 O 0.98838 0.97555 0.48089 0.0
O17 O 0.04507 0.9842 0.56833 0.0
C18 C 0.04918 0.05746 0.49585 0.0
C19 C 0.96776 0.98357 0.53818 0.0
Zn20 Zn 0.24712 0.7631 0.90773 0.0
Zn21 Zn 0.25367 0.76945 0.73242 0.0
C22 C 0.2888 0.70889 0.90487 0.0
O23 O 0.26791 0.70561 0.96293 0.0
C24 C 0.2214 0.82804 0.71698 0.0
O25 O 0.251 0.83613 0.69796 0.0
O26 O 0.24275 0.76606 0.01965 0.0
O27 O 0.2571 0.80731 0.88564 0.0
O28 O 0.28929 0.78948 0.78388 0.0
C29 C 0.26794 0.77485 0.04642 0.0
O30 O 0.29269 0.78237 1.00125 0.0
O31 O 0.285 0.7321 0.8689 0.0
C32 C 0.24989 0.75747 0.5775 0.0
O33 O 0.21982 0.75333 0.6032 0.0
O34 O 0.26989 0.76312 0.62295 0.0
O35 O 0.23553 0.72771 0.75802 0.0
O36 O 0.20871 0.74371 0.8693 0.0
O37 O 0.21652 0.80119 0.73992 0.0
C38 C 0.2829 0.80937 0.84252 0.0
C39 C 0.21209 0.72511 0.80819 0.0
Zn40 Zn 0.50897 0.00705 0.09991 0.0
Zn41 Zn 0.5031 1.00151 0.92528 0.0
C42 C 0.5659 0.04692 0.09352 0.0
O43 O 0.58331 0.02005 0.07829 0.0
C44 C 0.46567 0.94581 0.90381 0.0
O45 O 0.48882 0.93747 0.84869 0.0
O46 O 0.50275 1.00065 0.20674 0.0
O47 O 0.46561 0.0211 0.07783 0.0
O48 O 0.49018 0.04405 0.98716 0.0
C49 C 0.4903 0.02429 0.25258 0.0
O50 O 0.48106 0.05017 0.22746 0.0
O51 O 0.53557 0.04606 0.10003 0.0
C52 C 0.51588 0.99608 0.76155 0.0
O53 O 0.53615 0.97213 0.7626 0.0
O54 O 0.50118 0.01068 0.82194 0.0
O55 O 0.54526 0.97843 0.92882 0.0
O56 O 0.53442 0.96788 0.04378 0.0
O57 O 0.46731 0.97181 0.94641 0.0
C58 C 0.46659 0.04344 0.03785 0.0
C59 C 0.55065 0.96221 0.97954 0.0
Zn60 Zn 0.25744 0.26323 0.15431 0.0
Zn61 Zn 0.26007 0.24987 0.32372 0.0
C62 C 0.29664 0.31928 0.14374 0.0
O63 O 0.26896 0.33533 0.15503 0.0
C64 C 0.21839 0.19666 0.32069 0.0
O65 O 0.24559 0.18051 0.31819 0.0
O66 O 0.24254 0.26223 0.05507 0.0
O67 O 0.27195 0.21765 0.15962 0.0
O68 O 0.29712 0.2248 0.25763 0.0
C69 C 0.26276 0.25584 0.99666 0.0
O70 O 0.29281 0.24923 1.00259 0.0
O71 O 0.29719 0.28926 0.14569 0.0
C72 C 0.24037 0.26119 0.47466 0.0
O73 O 0.21603 0.272 0.44635 0.0
O74 O 0.26526 0.2498 0.431 0.0
O75 O 0.25257 0.29664 0.31514 0.0
O76 O 0.2219 0.28684 0.22862 0.0
O77 O 0.21887 0.22653 0.31689 0.0
C78 C 0.29428 0.20977 0.19441 0.0
C79 C 0.22853 0.30431 0.2857 0.0
Zn80 Zn 0.73502 0.24759 0.38261 0.0
Zn81 Zn 0.74306 0.25775 0.20655 0.0
C82 C 0.77414 0.19194 0.3994 0.0
O83 O 0.7557 0.19359 0.46336 0.0
C84 C 0.70899 0.31584 0.20386 0.0
O85 O 0.73827 0.32355 0.18011 0.0
O86 O 0.72004 0.25002 0.49236 0.0
O87 O 0.75754 0.28812 0.36774 0.0
O88 O 0.78012 0.27867 0.25021 0.0
C89 C 0.7386 0.25978 0.53878 0.0
O90 O 0.76684 0.26984 0.51454 0.0
O91 O 0.76904 0.21148 0.35492 0.0
C92 C 0.7264 0.24145 0.0675 0.0
O93 O 0.70126 0.2349 0.11277 0.0
O94 O 0.75106 0.25163 0.09469 0.0
O95 O 0.72982 0.21469 0.23397 0.0
O96 O 0.6969 0.23669 0.33061 0.0
O97 O 0.70478 0.28882 0.2264 0.0
C98 C 0.77921 0.29311 0.31573 0.0
C99 C 0.70256 0.21597 0.2734 0.0
Zn100 Zn 0.76143 0.77512 0.65106 0.0
Zn101 Zn 0.75393 0.73644 0.82381 0.0
C102 C 0.81212 0.81564 0.60755 0.0
O103 O 0.81882 0.79152 0.55418 0.0
C104 C 0.69347 0.70722 0.84949 0.0
O105 O 0.69143 0.72698 0.91155 0.0
O106 O 0.75022 0.76898 0.54761 0.0
O107 O 0.79173 0.73805 0.65516 0.0
O108 O 0.79417 0.71751 0.75855 0.0
C109 C 0.74761 0.74106 0.51389 0.0
O110 O 0.74946 0.71631 0.54968 0.0
O111 O 0.78818 0.81418 0.65709 0.0
C112 C 0.76005 0.7511 0.9815 0.0
O113 O 0.76037 0.78109 0.96953 0.0
O114 O 0.75881 0.72908 0.92782 0.0
O115 O 0.7409 0.78341 0.82865 0.0
O116 O 0.72084 0.78575 0.72474 0.0
O117 O 0.71747 0.70841 0.79987 0.0
C118 C 0.8043 0.71854 0.69077 0.0
C119 C 0.71971 0.79394 0.79405 0.0
Zn120 Zn 0.50098 0.49387 0.85822 0.0
Zn121 Zn 0.50518 0.5039 0.03347 0.0
C122 C 0.44574 0.53036 0.84876 0.0
O123 O 0.44288 0.50457 0.80203 0.0
C124 C 0.5625 0.46955 0.04999 0.0
O125 O 0.57126 0.49866 0.07104 0.0
O126 O 0.50531 0.48706 0.74531 0.0
O127 O 0.54445 0.50666 0.88042 0.0
O128 O 0.52657 0.53934 0.98131 0.0
C129 C 0.51288 0.51264 0.71838 0.0
O130 O 0.5188 0.53786 0.76379 0.0
O131 O 0.46879 0.53149 0.88675 0.0
C132 C 0.49382 0.49874 0.18837 0.0
O133 O 0.48969 0.46887 0.16175 0.0
O134 O 0.4991 0.51923 0.14366 0.0
O135 O 0.46301 0.48642 0.00717 0.0
O136 O 0.48324 0.45596 0.90356 0.0
O137 O 0.53598 0.4659 0.02503 0.0
C138 C 0.54633 0.53278 0.92217 0.0
C139 C 0.46339 0.46043 0.963 0.0
Zn140 Zn 0.02102 0.51655 0.59496 0.0
Zn141 Zn 0.99585 0.48919 0.39519 0.0
C142 C 0.07175 0.56182 0.613 0.0
O143 O 0.07953 0.55472 0.54106 0.0
C144 C 0.93895 0.45591 0.38357 0.0
O145 O 0.93458 0.47872 0.34352 0.0
O146 O 1.00251 0.49241 0.67685 0.0
O147 O 0.98724 0.54377 0.56258 0.0
O148 O 0.97614 0.53177 0.44793 0.0
C149 C 0.99137 0.50944 0.73761 0.0
O150 O 0.98858 0.54063 0.73943 0.0
O151 O 0.04826 0.54843 0.64566 0.0
C152 C 1.00279 0.46537 0.24125 0.0
O153 O 0.00782 0.43848 0.26733 0.0
O154 O 0.9981 0.49128 0.28594 0.0
O155 O 0.03973 0.47255 0.40863 0.0
O156 O 0.05198 0.48747 0.52102 0.0
O157 O 0.96382 0.45568 0.4155 0.0
C158 C 0.97242 0.54964 0.51007 0.0
C159 C 0.05882 0.47226 0.45621 0.0
H160 H 0.10713 0.05155 0.40632 0.0
H161 H 0.03917 0.12169 0.54051 0.0
H162 H 0.07323 0.16526 0.50191 0.0
H163 H 0.1773 0.09228 0.45115 0.0
H164 H 0.19992 0.08091 0.36066 0.0
H165 H 0.1692 0.05563 0.39564 0.0
H166 H 0.14161 0.05831 0.2793 0.0
H167 H 0.17207 0.08393 0.24435 0.0
H168 H 0.13041 0.09675 0.25593 0.0
H169 H 0.1141 0.20115 0.44599 0.0
H170 H 0.16243 0.22656 0.39218 0.0
H171 H 0.20566 0.13284 0.30183 0.0
C172 C 0.09941 0.0761 0.42736 0.0
C173 C 0.07044 0.08334 0.47601 0.0
C174 C 0.06134 0.11568 0.50336 0.0
C175 C 0.08039 0.14056 0.48128 0.0
C176 C 0.10868 0.13264 0.43271 0.0
C177 C 0.11847 0.10118 0.40718 0.0
C178 C 0.15094 0.09905 0.35943 0.0
C179 C 0.1758 0.0809 0.3938 0.0
C180 C 0.1486 0.0836 0.28004 0.0
C181 C 0.15794 0.13424 0.36221 0.0
C182 C 0.13297 0.15323 0.40356 0.0
C183 C 0.13383 0.18652 0.41369 0.0
C184 C 0.1613 0.20074 0.38246 0.0
C185 C 0.18778 0.18167 0.34276 0.0
C186 C 0.18578 0.14801 0.33181 0.0
H187 H 0.13518 0.98265 0.61275 0.0
H188 H 0.05262 0.92506 0.58308 0.0
H189 H 0.08157 0.8783 0.61396 0.0
H190 H 0.19592 0.91874 0.53522 0.0
H191 H 0.22269 0.93236 0.60003 0.0
H192 H 0.19594 0.9606 0.57145 0.0
H193 H 0.17316 0.97936 0.70875 0.0
H194 H 0.1994 0.9508 0.73771 0.0
H195 H 0.15674 0.95045 0.76583 0.0
H196 H 0.11767 0.83926 0.65949 0.0
H197 H 0.16104 0.80863 0.69983 0.0
H198 H 0.22089 0.89101 0.69473 0.0
C199 C 0.1234 0.96005 0.61142 0.0
C200 C 0.09166 0.9575 0.59537 0.0
C201 C 0.07703 0.92753 0.5945 0.0
C202 C 0.0932 0.90088 0.61251 0.0
C203 C 0.12411 0.90449 0.63026 0.0
C204 C 0.13932 0.93313 0.62836 0.0
C205 C 0.17259 0.93069 0.64992 0.0
C206 C 0.1983 0.93589 0.5853 0.0
C207 C 0.17563 0.95422 0.7197 0.0
C208 C 0.17354 0.89635 0.66539 0.0
C209 C 0.14524 0.88173 0.65433 0.0
C210 C 0.14007 0.85036 0.66755 0.0
C211 C 0.16475 0.83324 0.69106 0.0
C212 C 0.19435 0.84743 0.70037 0.0
C213 C 0.19858 0.87949 0.68782 0.0
H214 H 0.34297 0.8171 0.76957 0.0
H215 H 0.27663 0.85445 0.96563 0.0
H216 H 0.3169 0.89216 1.00494 0.0
H217 H 0.41426 0.82112 0.85654 0.0
H218 H 0.43909 0.83294 0.77773 0.0
H219 H 0.405 0.80889 0.76461 0.0
H220 H 0.38244 0.85102 0.69289 0.0
H221 H 0.41656 0.87508 0.70529 0.0
H222 H 0.3766 0.89213 0.73553 0.0
H223 H 0.36418 0.92615 0.02243 0.0
H224 H 0.4147 0.95491 0.01507 0.0
H225 H 0.45031 0.89472 0.80866 0.0
C226 C 0.33683 0.83327 0.82065 0.0
C227 C 0.3066 0.83283 0.86443 0.0
C228 C 0.29959 0.85436 0.93103 0.0
C229 C 0.32234 0.87582 0.95398 0.0
C230 C 0.35198 0.87542 0.90983 0.0
C231 C 0.35926 0.85478 0.8445 0.0
C232 C 0.39281 0.85933 0.807 0.0
C233 C 0.41404 0.82875 0.80116 0.0
C234 C 0.39204 0.87003 0.73067 0.0
C235 C 0.40318 0.8859 0.86125 0.0
C236 C 0.37933 0.89479 0.92027 0.0
C237 C 0.38309 0.91932 0.97662 0.0
C238 C 0.41188 0.93549 0.97199 0.0
C239 C 0.4365 0.927 0.91145 0.0
C240 C 0.43209 0.90162 0.85597 0.0
H241 H 0.42967 0.07028 0.16723 0.0
H242 H 0.44397 0.07181 0.93023 0.0
H243 H 0.39987 0.11269 0.94466 0.0
H244 H 0.34333 0.08339 0.20005 0.0
H245 H 0.34321 0.10975 0.2855 0.0
H246 H 0.37441 0.07901 0.25644 0.0
H247 H 0.41745 0.12172 0.26509 0.0
H248 H 0.38643 0.15259 0.29434 0.0
H249 H 0.41579 0.15539 0.21475 0.0
H250 H 0.35353 0.15211 0.98407 0.0
H251 H 0.3119 0.19226 0.04667 0.0
H252 H 0.33074 0.16964 0.25989 0.0
C253 C 0.42331 0.0791 0.11846 0.0
C254 C 0.44 0.06774 0.04748 0.0
C255 C 0.43144 0.08021 0.98502 0.0
C256 C 0.40636 0.10331 0.99266 0.0
C257 C 0.39047 0.11416 0.06335 0.0
C258 C 0.39887 0.10287 0.12534 0.0
C259 C 0.37929 0.12016 0.19531 0.0
C260 C 0.35885 0.09667 0.23676 0.0
C261 C 0.40104 0.13856 0.24531 0.0
C262 C 0.35851 0.14285 0.16288 0.0
C263 C 0.36503 0.13852 0.08656 0.0
C264 C 0.34838 0.1559 0.04381 0.0
C265 C 0.32469 0.1786 0.07992 0.0
C266 C 0.31821 0.18427 0.15814 0.0
C267 C 0.33538 0.16604 0.20005 0.0
H268 H 0.95464 0.92464 0.46608 0.0
H269 H 0.92139 0.9943 0.65873 0.0
H270 H 0.87809 0.95917 0.69657 0.0
H271 H 0.87617 0.90007 0.4284 0.0
H272 H 0.88867 0.85858 0.40086 0.0
H273 H 0.91704 0.88939 0.38797 0.0
H274 H 0.95472 0.86244 0.46347 0.0
H275 H 0.92645 0.83159 0.4767 0.0
H276 H 0.93963 0.85478 0.5556 0.0
H277 H 0.8386 0.91658 0.71479 0.0
H278 H 0.80539 0.86905 0.7116 0.0
H279 H 0.86407 0.82674 0.50783 0.0
C280 C 0.9382 0.93255 0.51607 0.0
C281 C 0.94147 0.96231 0.55925 0.0
C282 C 0.91944 0.97168 0.62447 0.0
C283 C 0.89471 0.95188 0.64659 0.0
C284 C 0.89222 0.92272 0.60301 0.0
C285 C 0.9133 0.91303 0.53911 0.0
C286 C 0.90533 0.88035 0.50274 0.0
C287 C 0.89626 0.88223 0.42541 0.0
C288 C 0.93319 0.85584 0.49947 0.0
C289 C 0.87657 0.87323 0.55633 0.0
C290 C 0.86941 0.89802 0.6137 0.0
C291 C 0.84393 0.89699 0.67011 0.0
C292 C 0.82521 0.86988 0.66781 0.0
C293 C 0.83209 0.84414 0.60954 0.0
C294 C 0.85816 0.84598 0.55319 0.0
H295 H 0.91233 0.07808 0.49247 0.0
H296 H 0.93661 0.04815 0.25671 0.0
H297 H 0.89518 0.08626 0.23269 0.0
H298 H 0.82787 0.08295 0.49009 0.0
H299 H 0.82049 0.11702 0.56126 0.0
H300 H 0.85399 0.08965 0.55975 0.0
H301 H 0.89262 0.13662 0.55725 0.0
H302 H 0.85919 0.16415 0.55907 0.0
H303 H 0.89274 0.16216 0.48623 0.0
H304 H 0.85119 0.12767 0.2345 0.0
H305 H 0.80483 0.16654 0.26258 0.0
H306 H 0.80622 0.1659 0.49725 0.0
C307 C 0.90911 0.08002 0.43592 0.0
C308 C 0.92767 0.06063 0.37626 0.0
C309 C 0.9225 0.063 0.30295 0.0
C310 C 0.89916 0.08459 0.28882 0.0
C311 C 0.88086 0.10317 0.34879 0.0
C312 C 0.88531 0.10088 0.42093 0.0
C313 C 0.86087 0.12187 0.47541 0.0
C314 C 0.83955 0.10166 0.52451 0.0
C315 C 0.87735 0.14774 0.52224 0.0
C316 C 0.84212 0.13632 0.42267 0.0
C317 C 0.8543 0.12559 0.34987 0.0
C318 C 0.8413 0.13613 0.2913 0.0
C319 C 0.81505 0.15818 0.30768 0.0
C320 C 0.80182 0.16889 0.38192 0.0
C321 C 0.81559 0.15775 0.43991 0.0
H322 H 0.7095 0.15964 0.1789 0.0
H323 H 0.6379 0.22626 0.31284 0.0
H324 H 0.59502 0.19239 0.27111 0.0
H325 H 0.66412 0.13747 0.02547 0.0
H326 H 0.67788 0.09609 0.01237 0.0
H327 H 0.70296 0.1269 0.04751 0.0
H328 H 0.70681 0.09844 0.16234 0.0
H329 H 0.68196 0.06747 0.12745 0.0
H330 H 0.67053 0.08936 0.21856 0.0
H331 H 0.56018 0.15102 0.21748 0.0
H332 H 0.5355 0.10219 0.16637 0.0
H333 H 0.62979 0.0607 0.07216 0.0
C334 C 0.68478 0.16722 0.19888 0.0
C335 C 0.67695 0.19561 0.24886 0.0
C336 C 0.64439 0.20455 0.27467 0.0
C337 C 0.61989 0.18561 0.25085 0.0
C338 C 0.6284 0.15774 0.20165 0.0
C339 C 0.66004 0.14837 0.17649 0.0
C340 C 0.66273 0.11618 0.12806 0.0
C341 C 0.67781 0.11936 0.04864 0.0
C342 C 0.68162 0.0914 0.16111 0.0
C343 C 0.62766 0.10851 0.13149 0.0
C344 C 0.60828 0.13318 0.17283 0.0
C345 C 0.57508 0.13158 0.18486 0.0
C346 C 0.5613 0.10372 0.15535 0.0
C347 C 0.58073 0.07756 0.11535 0.0
C348 C 0.61433 0.08029 0.10241 0.0
H349 H 0.68043 0.83449 0.73651 0.0
H350 H 0.70219 0.80709 0.94356 0.0
H351 H 0.66156 0.84691 0.01234 0.0
H352 H 0.66876 0.91887 0.8006 0.0
H353 H 0.63627 0.92443 0.74887 0.0
H354 H 0.66659 0.89322 0.71514 0.0
H355 H 0.62277 0.85117 0.71021 0.0
H356 H 0.59231 0.88227 0.74379 0.0
H357 H 0.59489 0.84813 0.79224 0.0
H358 H 0.61861 0.8893 0.05913 0.0
H359 H 0.57658 0.9323 0.08138 0.0
H360 H 0.58287 0.93375 0.84471 0.0
C361 C 0.67654 0.83675 0.7963 0.0
C362 C 0.69464 0.81761 0.83458 0.0
C363 C 0.68889 0.82155 0.9129 0.0
C364 C 0.66576 0.84407 0.95254 0.0
C365 C 0.64856 0.86268 0.91325 0.0
C366 C 0.65365 0.85937 0.83693 0.0
C367 C 0.63215 0.88283 0.80853 0.0
C368 C 0.65214 0.90623 0.76576 0.0
C369 C 0.60917 0.86503 0.76088 0.0
C370 C 0.6142 0.8998 0.88085 0.0
C371 C 0.624 0.88763 0.94046 0.0
C372 C 0.61076 0.89905 0.01291 0.0
C373 C 0.58683 0.9235 0.02493 0.0
C374 C 0.57636 0.93654 0.9649 0.0
C375 C 0.59043 0.92448 0.89186 0.0
H376 H 0.55991 0.59069 0.99833 0.0
H377 H 0.58595 0.52816 0.7904 0.0
H378 H 0.62366 0.56754 0.74659 0.0
H379 H 0.56432 0.66563 0.92243 0.0
H380 H 0.58152 0.68659 0.99843 0.0
H381 H 0.55563 0.65394 0.01342 0.0
H382 H 0.60003 0.62522 0.06755 0.0
H383 H 0.62593 0.65789 0.05332 0.0
H384 H 0.6392 0.6176 0.01384 0.0
H385 H 0.65912 0.61318 0.72513 0.0
H386 H 0.69246 0.6606 0.73111 0.0
H387 H 0.64412 0.6935 0.95295 0.0
C388 C 0.57351 0.5853 0.94357 0.0
C389 C 0.56981 0.55631 0.89784 0.0
C390 C 0.58827 0.55014 0.82666 0.0
C391 C 0.60971 0.57244 0.801 0.0
C392 C 0.61262 0.60083 0.84713 0.0
C393 C 0.59524 0.60727 0.91711 0.0
C394 C 0.60381 0.63916 0.95642 0.0
C395 C 0.57458 0.66272 0.97367 0.0
C396 C 0.6181 0.63469 0.02694 0.0
C397 C 0.62885 0.64946 0.89778 0.0
C398 C 0.63336 0.62711 0.83495 0.0
C399 C 0.65575 0.63092 0.77395 0.0
C400 C 0.67453 0.65799 0.77781 0.0
C401 C 0.67092 0.68085 0.84237 0.0
C402 C 0.64735 0.67664 0.90254 0.0
H403 H 0.70865 0.37806 0.17666 0.0
H404 H 0.64733 0.29747 0.1981 0.0
H405 H 0.6035 0.32763 0.15818 0.0
H406 H 0.64561 0.44029 0.24344 0.0
H407 H 0.66237 0.46668 0.18019 0.0
H408 H 0.68822 0.43902 0.2133 0.0
H409 H 0.71038 0.41593 0.07794 0.0
H410 H 0.6842 0.44312 0.04439 0.0
H411 H 0.68299 0.40063 0.01608 0.0
H412 H 0.56785 0.36507 0.1063 0.0
H413 H 0.54047 0.40967 0.06247 0.0
H414 H 0.62434 0.46662 0.07985 0.0
C415 C 0.68584 0.36693 0.17405 0.0
C416 C 0.68139 0.33543 0.19059 0.0
C417 C 0.65121 0.32168 0.18635 0.0
C418 C 0.62624 0.33854 0.16318 0.0
C419 C 0.63173 0.36923 0.14535 0.0
C420 C 0.66057 0.38354 0.1519 0.0
C421 C 0.66027 0.41685 0.12978 0.0
C422 C 0.66435 0.44221 0.19561 0.0
C423 C 0.68599 0.41925 0.06309 0.0
C424 C 0.62686 0.41894 0.10896 0.0
C425 C 0.6109 0.39111 0.11761 0.0
C426 C 0.58002 0.38708 0.09996 0.0
C427 C 0.56476 0.41247 0.07452 0.0
C428 C 0.58027 0.44163 0.06776 0.0
C429 C 0.61185 0.44466 0.08461 0.0
H430 H 0.89569 0.43903 0.28908 0.0
H431 H 0.9322 0.41294 0.48285 0.0
H432 H 0.89558 0.36796 0.48487 0.0
H433 H 0.81349 0.42035 0.34037 0.0
H434 H 0.80784 0.40435 0.24761 0.0
H435 H 0.83641 0.43485 0.26238 0.0
H436 H 0.88107 0.39809 0.17998 0.0
H437 H 0.85266 0.3674 0.16518 0.0
H438 H 0.8888 0.35851 0.20185 0.0
H439 H 0.85457 0.32694 0.46756 0.0
H440 H 0.81261 0.29099 0.42986 0.0
H441 H 0.80422 0.34196 0.24392 0.0
C442 C 0.89581 0.424 0.3323 0.0
C443 C 0.91657 0.42956 0.38626 0.0
C444 C 0.91642 0.40909 0.44116 0.0
C445 C 0.89573 0.38354 0.44272 0.0
C446 C 0.87569 0.37864 0.38848 0.0
C447 C 0.87566 0.39815 0.33404 0.0
C448 C 0.85223 0.38721 0.28132 0.0
C449 C 0.82594 0.41324 0.28307 0.0
C450 C 0.86975 0.37721 0.20242 0.0
C451 C 0.83887 0.35862 0.31505 0.0
C452 C 0.85266 0.35426 0.37706 0.0
C453 C 0.84363 0.33007 0.41912 0.0
C454 C 0.81966 0.30995 0.39765 0.0
C455 C 0.80519 0.31398 0.33455 0.0
C456 C 0.81518 0.33833 0.29209 0.0
H457 H 0.84367 0.67832 0.74916 0.0
H458 H 0.82473 0.70789 0.5419 0.0
H459 H 0.86665 0.66932 0.47396 0.0
H460 H 0.93043 0.66714 0.69739 0.0
H461 H 0.933 0.63271 0.74491 0.0
H462 H 0.90198 0.66331 0.77798 0.0
H463 H 0.85886 0.62061 0.76958 0.0
H464 H 0.88974 0.58993 0.73643 0.0
H465 H 0.85777 0.59531 0.68312 0.0
H466 H 0.90827 0.6252 0.42725 0.0
H467 H 0.94871 0.58047 0.40604 0.0
H468 H 0.9426 0.58095 0.64319 0.0
C469 C 0.84848 0.67685 0.68955 0.0
C470 C 0.83078 0.69624 0.65109 0.0
C471 C 0.83793 0.69348 0.57293 0.0
C472 C 0.86171 0.67157 0.53365 0.0
C473 C 0.8785 0.6527 0.57311 0.0
C474 C 0.87244 0.65528 0.64934 0.0
C475 C 0.89387 0.63196 0.67812 0.0
C476 C 0.91614 0.64985 0.72752 0.0
C477 C 0.87386 0.60804 0.71923 0.0
C478 C 0.91256 0.61561 0.60612 0.0
C479 C 0.90323 0.62786 0.5462 0.0
C480 C 0.91603 0.61564 0.47378 0.0
C481 C 0.93894 0.59018 0.46226 0.0
C482 C 0.94908 0.57735 0.52284 0.0
C483 C 0.93576 0.59051 0.59567 0.0
H484 H 0.30814 0.38358 0.16022 0.0
H485 H 0.35209 0.29041 0.06711 0.0
H486 H 0.3996 0.31645 0.0118 0.0
H487 H 0.33505 0.42481 0.0104 0.0
H488 H 0.34296 0.46143 0.06621 0.0
H489 H 0.3128 0.43565 0.10152 0.0
H490 H 0.34121 0.4325 0.21645 0.0
H491 H 0.3713 0.45858 0.18186 0.0
H492 H 0.38301 0.42007 0.20393 0.0
H493 H 0.44 0.35256 0.95707 0.0
H494 H 0.47375 0.39629 0.91888 0.0
H495 H 0.40554 0.46605 0.05384 0.0
C496 C 0.32794 0.36868 0.12895 0.0
C497 C 0.32639 0.33496 0.1179 0.0
C498 C 0.35281 0.31626 0.07675 0.0
C499 C 0.37985 0.33084 0.04478 0.0
C500 C 0.38037 0.36412 0.05548 0.0
C501 C 0.35542 0.38283 0.09773 0.0
C502 C 0.36217 0.41812 0.10089 0.0
C503 C 0.33673 0.43605 0.06777 0.0
C504 C 0.36457 0.4332 0.18051 0.0
C505 C 0.39448 0.41632 0.0525 0.0
C506 C 0.4044 0.38494 0.02644 0.0
C507 C 0.4327 0.37722 0.97789 0.0
C508 C 0.45159 0.40221 0.95612 0.0
C509 C 0.44232 0.43451 0.98361 0.0
C510 C 0.41337 0.44156 0.0325 0.0
H511 H 0.41018 0.56986 0.96275 0.0
H512 H 0.4378 0.55535 0.72505 0.0
H513 H 0.40394 0.60258 0.71425 0.0
H514 H 0.32874 0.58925 0.95647 0.0
H515 H 0.32372 0.61861 0.03816 0.0
H516 H 0.35314 0.58624 0.0284 0.0
H517 H 0.39739 0.62703 0.04743 0.0
H518 H 0.36804 0.65956 0.05729 0.0
H519 H 0.40317 0.65797 0.98877 0.0
H520 H 0.36599 0.6504 0.72881 0.0
H521 H 0.32268 0.69236 0.76661 0.0
H522 H 0.3165 0.673 0.99329 0.0
C523 C 0.40941 0.57711 0.90882 0.0
C524 C 0.42664 0.55942 0.84475 0.0
C525 C 0.42466 0.56885 0.77465 0.0
C526 C 0.40568 0.59567 0.76805 0.0
C527 C 0.38852 0.61249 0.83206 0.0
C528 C 0.38992 0.60344 0.90107 0.0
C529 C 0.36684 0.62385 0.96006 0.0
C530 C 0.34162 0.60325 0.99797 0.0
C531 C 0.38495 0.64325 0.01673 0.0
C532 C 0.35199 0.64539 0.91331 0.0
C533 C 0.3653 0.63892 0.83988 0.0
C534 C 0.35537 0.65572 0.78619 0.0
C535 C 0.33085 0.6795 0.80807 0.0
C536 C 0.31619 0.68567 0.88259 0.0
C537 C 0.32715 0.66856 0.93576 0.0
H538 H 0.20616 0.68874 0.67663 0.0
H539 H 0.1645 0.70575 0.9081 0.0
H540 H 0.1246 0.66505 0.88358 0.0
H541 H 0.13233 0.67906 0.60385 0.0
H542 H 0.14831 0.64823 0.52969 0.0
H543 H 0.17419 0.6779 0.56607 0.0
H544 H 0.21211 0.63304 0.59263 0.0
H545 H 0.18637 0.6032 0.55628 0.0
H546 H 0.19617 0.60349 0.64846 0.0
H547 H 0.08907 0.62292 0.83351 0.0
H548 H 0.05974 0.58298 0.76142 0.0
H549 H 0.12431 0.59422 0.56223 0.0
C550 C 0.18882 0.68378 0.7224 0.0
C551 C 0.18853 0.70034 0.79442 0.0
C552 C 0.16518 0.69336 0.8525 0.0
C553 C 0.14246 0.67026 0.83914 0.0
C554 C 0.14338 0.6545 0.76742 0.0
C555 C 0.16591 0.661 0.71001 0.0
C556 C 0.16127 0.64127 0.63767 0.0
C557 C 0.15356 0.66291 0.581 0.0
C558 C 0.19073 0.61893 0.60698 0.0
C559 C 0.13257 0.62262 0.66334 0.0
C560 C 0.12269 0.63053 0.73839 0.0
C561 C 0.09659 0.61652 0.77473 0.0
C562 C 0.0801 0.59385 0.73322 0.0
C563 C 0.08971 0.58547 0.6561 0.0
C564 C 0.11635 0.60009 0.62101 0.0
H565 H 0.17466 0.3276 0.23788 0.0
H566 H 0.23528 0.34575 0.4099 0.0
H567 H 0.20012 0.39234 0.46805 0.0
H568 H 0.15576 0.4112 0.22423 0.0
H569 H 0.11497 0.40387 0.20991 0.0
H570 H 0.14575 0.37278 0.17963 0.0
H571 H 0.11287 0.33452 0.25682 0.0
H572 H 0.08202 0.36544 0.2872 0.0
H573 H 0.1004 0.34679 0.35426 0.0
H574 H 0.1571 0.43556 0.51081 0.0
H575 H 0.1091 0.47192 0.53576 0.0
H576 H 0.07641 0.42607 0.33567 0.0
C577 C 0.18073 0.34151 0.28744 0.0
C578 C 0.20788 0.33299 0.3191 0.0
C579 C 0.21475 0.35178 0.38431 0.0
C580 C 0.19491 0.37835 0.41779 0.0
C581 C 0.16829 0.38597 0.38537 0.0
C582 C 0.16118 0.36815 0.3216 0.0
C583 C 0.13053 0.38087 0.29937 0.0
C584 C 0.13716 0.3929 0.2238 0.0
C585 C 0.10495 0.35539 0.29945 0.0
C586 C 0.12131 0.40838 0.36112 0.0
C587 C 0.14351 0.41098 0.40994 0.0
C588 C 0.13967 0.43388 0.47269 0.0
C589 C 0.11226 0.45443 0.48642 0.0
C590 C 0.08892 0.45203 0.43765 0.0
C591 C 0.09388 0.42884 0.3737 0.0
H592 H 0.01731 0.04752 0.85358 0.0
H593 H 0.99841 0.94678 0.80209 0.0
H594 H 1.00274 0.93894 0.93009 0.0
H595 H 0.07488 0.03743 0.97779 0.0
H596 H 0.06099 0.0728 0.04137 0.0
H597 H 0.05679 0.07088 0.94498 0.0
H598 H 0.99569 0.08325 0.97996 0.0
H599 H 0.99978 0.08541 0.07642 0.0
H600 H 0.97209 0.05843 0.03728 0.0
H601 H 0.00892 0.94147 0.06365 0.0
H602 H 0.01427 0.95516 0.19575 0.0
H603 H 0.02881 0.05411 0.16257 0.0
C604 C 0.01406 0.02385 0.8693 0.0
C605 C 0.00751 0.99781 0.8174 0.0
C606 C 1.00337 0.9672 0.84048 0.0
C607 C 0.00588 0.96241 0.91322 0.0
C608 C 0.01248 0.98843 0.96282 0.0
C609 C 0.01634 0.0186 0.94218 0.0
C610 C 0.02264 0.04253 0.00722 0.0
C611 C 0.0558 0.05674 0.9919 0.0
C612 C 0.99596 0.06896 0.02634 0.0
C613 C 0.02165 0.02106 0.06729 0.0
C614 C 0.01589 0.98991 0.04034 0.0
C615 C 0.0135 0.96579 0.08545 0.0
C616 C 0.01666 0.97378 0.16043 0.0
C617 C 0.02208 1.00566 0.18973 0.0
C618 C 0.02488 0.02946 0.142 0.0
H619 H 0.21253 0.74774 0.46626 0.0
H620 H 0.30871 0.77135 0.50818 0.0
H621 H 0.32346 0.77815 0.37707 0.0
H622 H 0.23588 0.7033 0.28225 0.0
H623 H 0.20147 0.71793 0.2467 0.0
H624 H 0.19885 0.71375 0.3433 0.0
H625 H 0.18013 0.77341 0.37806 0.0
H626 H 0.18297 0.77785 0.28162 0.0
H627 H 0.20459 0.80378 0.34161 0.0
H628 H 0.32713 0.78483 0.24351 0.0
H629 H 0.3206 0.78812 0.1141 0.0
H630 H 0.22213 0.75957 0.15742 0.0
C631 C 0.23681 0.75402 0.44779 0.0
C632 C 0.25949 0.75898 0.49764 0.0
C633 C 0.29095 0.76731 0.47113 0.0
C634 C 0.29954 0.77131 0.39675 0.0
C635 C 0.27646 0.76676 0.34946 0.0
C636 C 0.24583 0.75803 0.37366 0.0
C637 C 0.22551 0.75495 0.31148 0.0
C638 C 0.2148 0.72043 0.29496 0.0
C639 C 0.1966 0.77893 0.32928 0.0
C640 C 0.24946 0.7636 0.24866 0.0
C641 C 0.27866 0.77036 0.27196 0.0
C642 C 0.30444 0.77941 0.2245 0.0
C643 C 0.30042 0.78129 0.15102 0.0
C644 C 0.27085 0.77407 0.12537 0.0
C645 C 0.24503 0.76522 0.17521 0.0
H646 H 0.53617 0.96567 0.62051 0.0
H647 H 0.47876 0.04732 0.74286 0.0
H648 H 0.46482 0.06223 0.62627 0.0
H649 H 0.56728 1.00446 0.46463 0.0
H650 H 0.56553 0.96946 0.39778 0.0
H651 H 0.57108 0.96508 0.49108 0.0
H652 H 0.5213 0.93009 0.50259 0.0
H653 H 0.51548 0.93453 0.40946 0.0
H654 H 0.48343 0.94565 0.48466 0.0
H655 H 0.45747 0.06889 0.49741 0.0
H656 H 0.45788 0.06724 0.36307 0.0
H657 H 0.51913 0.98084 0.32371 0.0
C658 C 0.52078 0.98675 0.62275 0.0
C659 C 0.50861 1.00533 0.69087 0.0
C660 C 0.48839 0.03267 0.69141 0.0
C661 C 0.48027 0.04135 0.62548 0.0
C662 C 0.49244 0.02241 0.55943 0.0
C663 C 0.51228 0.99571 0.55737 0.0
C664 C 0.52212 0.97959 0.47871 0.0
C665 C 0.55867 0.97967 0.45677 0.0
C666 C 0.50984 0.94544 0.46827 0.0
C667 C 0.50485 1.00154 0.43704 0.0
C668 C 0.48787 0.02606 0.48475 0.0
C669 C 0.47059 0.04976 0.45941 0.0
C670 C 0.47097 0.04861 0.38303 0.0
C671 C 0.48844 0.02387 0.33299 0.0
C672 C 0.50531 0.99988 0.36062 0.0
H673 H 0.29987 0.24211 0.86082 0.0
H674 H 0.2035 0.27274 0.96609 0.0
H675 H 0.18753 0.27674 0.8438 0.0
H676 H 0.3049 0.29352 0.72111 0.0
H677 H 0.32683 0.26456 0.65015 0.0
H678 H 0.33065 0.26324 0.74579 0.0
H679 H 0.31374 0.20428 0.73336 0.0
H680 H 0.30996 0.20538 0.63759 0.0
H681 H 0.27653 0.19421 0.69983 0.0
H682 H 0.18235 0.27903 0.71159 0.0
H683 H 0.18763 0.27814 0.57677 0.0
H684 H 0.28726 0.24537 0.55589 0.0
C685 C 0.27536 0.24952 0.8582 0.0
C686 C 0.25292 0.25712 0.92312 0.0
C687 C 0.2211 0.26674 0.9172 0.0
C688 C 0.2118 0.26911 0.84799 0.0
C689 C 0.23455 0.26167 0.78524 0.0
C690 C 0.26563 0.25192 0.78953 0.0
C691 C 0.28541 0.24557 0.71347 0.0
C692 C 0.31361 0.26807 0.7073 0.0
C693 C 0.29709 0.21026 0.69499 0.0
C694 C 0.26062 0.25349 0.6658 0.0
C695 C 0.23148 0.26274 0.70849 0.0
C696 C 0.205 0.27172 0.67751 0.0
C697 C 0.2083 0.27118 0.60078 0.0
C698 C 0.23787 0.26166 0.55563 0.0
C699 C 0.26434 0.25266 0.58883 0.0
H700 H 0.76894 0.2628 0.95832 0.0
H701 H 0.67846 0.21606 0.99639 0.0
H702 H 0.67153 0.21642 0.86622 0.0
H703 H 0.74464 0.31443 0.83658 0.0
H704 H 0.78242 0.31125 0.77633 0.0
H705 H 0.78127 0.30639 0.87222 0.0
H706 H 0.8105 0.25075 0.83443 0.0
H707 H 0.81205 0.25561 0.73844 0.0
H708 H 0.79414 0.22095 0.772 0.0
H709 H 0.67302 0.22353 0.73381 0.0
H710 H 0.68475 0.23399 0.60451 0.0
H711 H 0.7743 0.27579 0.65103 0.0
C712 C 0.74788 0.25231 0.93901 0.0
C713 C 0.72423 0.23946 0.98766 0.0
C714 C 0.69689 0.22615 0.96033 0.0
C715 C 0.69267 0.22625 0.88642 0.0
C716 C 0.71604 0.23965 0.84029 0.0
C717 C 0.74326 0.25219 0.86512 0.0
C718 C 0.76453 0.26533 0.80379 0.0
C719 C 0.76843 0.3015 0.82343 0.0
C720 C 0.79724 0.24706 0.78612 0.0
C721 C 0.74488 0.25837 0.74102 0.0
C722 C 0.71697 0.24361 0.76338 0.0
C723 C 0.69486 0.23497 0.71544 0.0
C724 C 0.70167 0.24113 0.64217 0.0
C725 C 0.73041 0.25572 0.61756 0.0
C726 C 0.75209 0.26466 0.66808 0.0
H727 H 0.74988 0.78675 0.42052 0.0
H728 H 0.74323 0.6844 0.42481 0.0
H729 H 0.74562 0.67587 0.28905 0.0
H730 H 0.70182 0.79164 0.27262 0.0
H731 H 0.72631 0.82126 0.23303 0.0
H732 H 0.7226 0.81931 0.33082 0.0
H733 H 0.78443 0.81362 0.321 0.0
H734 H 0.78832 0.81525 0.2231 0.0
H735 H 0.80587 0.78176 0.25685 0.0
H736 H 0.75085 0.67826 0.15253 0.0
H737 H 0.75625 0.69158 0.02523 0.0
H738 H 0.75972 0.79238 0.11019 0.0
C739 C 0.74851 0.76256 0.39312 0.0
C740 C 0.74627 0.73624 0.43341 0.0
C741 C 0.74485 0.70496 0.39522 0.0
C742 C 0.74625 0.69985 0.31808 0.0
C743 C 0.74903 0.72626 0.27998 0.0
C744 C 0.74993 0.75702 0.31621 0.0
C745 C 0.75357 0.78122 0.26217 0.0
C746 C 0.72433 0.80474 0.27546 0.0
C747 C 0.78491 0.799 0.26603 0.0
C748 C 0.7548 0.75923 0.1898 0.0
C749 C 0.75213 0.72763 0.20131 0.0
C750 C 0.75285 0.70292 0.14283 0.0
C751 C 0.75603 0.71074 0.07069 0.0
C752 C 0.75846 0.74303 0.0576 0.0
C753 C 0.75798 0.76747 0.1182 0.0
H754 H 0.49877 0.46686 0.60594 0.0
H755 H 0.52489 0.56585 0.652 0.0
H756 H 0.52119 0.57326 0.52349 0.0
H757 H 0.54309 0.45191 0.42065 0.0
H758 H 0.51328 0.42693 0.38394 0.0
H759 H 0.5179 0.42917 0.48013 0.0
H760 H 0.45774 0.44593 0.51703 0.0
H761 H 0.453 0.44398 0.42094 0.0
H762 H 0.44188 0.48033 0.48347 0.0
H763 H 0.5141 0.57073 0.3908 0.0
H764 H 0.50684 0.5572 0.2599 0.0
H765 H 0.48588 0.45986 0.29756 0.0
C766 C 0.50387 0.49002 0.58883 0.0
C767 C 0.51213 0.51574 0.63937 0.0
C768 C 0.51855 0.5457 0.61463 0.0
C769 C 0.51643 0.55025 0.54161 0.0
C770 C 0.50796 0.52461 0.49345 0.0
C771 C 0.502 0.495 0.51565 0.0
C772 C 0.49372 0.47142 0.45204 0.0
C773 C 0.51848 0.44319 0.43308 0.0
C774 C 0.45955 0.45973 0.46943 0.0
C775 C 0.496 0.49245 0.39097 0.0
C776 C 0.5041 0.52308 0.41626 0.0
C777 C 0.50777 0.5468 0.37023 0.0
C778 C 0.5035 0.53891 0.29595 0.0
C779 C 0.49574 0.5075 0.26826 0.0
C780 C 0.49169 0.48413 0.31691 0.0
H781 H 0.97976 0.54137 0.87832 0.0
H782 H 0.99647 0.44597 0.75511 0.0
H783 H 0.99867 0.42383 0.87191 0.0
H784 H 0.0339 0.53307 1.00095 0.0
H785 H 0.01016 0.55606 0.0801 0.0
H786 H 0.00582 0.56401 0.98845 0.0
H787 H 0.94489 0.55493 0.01305 0.0
H788 H 0.94893 0.5474 0.10532 0.0
H789 H 0.93127 0.51814 0.04414 0.0
H790 H 1.00398 0.41289 1.00092 0.0
H791 H 0.00946 0.4136 0.13272 0.0
H792 H 0.99012 0.51643 0.17035 0.0
C793 C 0.98309 0.51571 0.87586 0.0
C794 C 0.98779 0.49538 0.80752 0.0
C795 C 0.99264 0.462 0.80683 0.0
C796 C 0.99398 0.44921 0.87287 0.0
C797 C 0.99033 0.4701 0.93902 0.0
C798 C 0.98468 0.50261 0.94104 0.0
C799 C 0.98352 0.52019 0.01858 0.0
C800 C 0.00992 0.54477 0.02218 0.0
C801 C 0.95016 0.53609 0.04694 0.0
C802 C 0.99002 0.49259 0.05973 0.0
C803 C 0.99369 0.46387 0.01303 0.0
C804 C 1.00084 0.4352 0.03812 0.0
C805 C 1.00405 0.43589 0.11304 0.0
C806 C 1.00023 0.46507 0.16192 0.0
C807 C 0.99314 0.49372 0.13453 0.0
loop_
_geom_bond_atom_site_label_1
_geom_bond_atom_site_label_2
_geom_bond_distance
_geom_bond_site_symmetry_2
_ccdc_geom_bond_type
Zn0 O6 1.969 1_545 S
Zn0 O7 1.965 1_655 S
Zn0 O11 2.024 . S
Zn0 O16 1.969 1_545 S
Zn1 O8 1.969 1_565 S
Zn1 O14 1.969 1_565 S
Zn1 O15 1.965 1_455 S
Zn1 O17 2.024 . S
C2 O3 1.229 . S
C2 O11 1.058 . S
O3 C2 1.229 . S
C4 O5 1.229 . S
C4 O17 1.058 . S
O5 C4 1.229 . S
O6 Zn0 1.969 1_565 S
O6 C9 1.267 1_565 S
O7 Zn0 1.965 1_455 S
O7 C18 1.260 . S
O8 Zn1 1.969 1_545 S
O8 C18 1.258 . S
C9 O6 1.267 1_545 S
C9 O10 1.235 . S
O10 C9 1.235 . S
O11 Zn0 2.024 . S
O11 C2 1.058 . S
C12 O13 1.228 . S
C12 O14 1.267 1_565 S
O13 C12 1.228 . S
O14 Zn1 1.969 1_545 S
O14 C12 1.267 1_545 S
O15 Zn1 1.965 1_655 S
O15 C19 1.260 . S
O16 Zn0 1.969 1_565 S
O16 C19 1.258 . S
O17 Zn1 2.024 . S
O17 C4 1.058 . S
C18 O7 1.260 . S
C18 O8 1.258 . S
C19 O15 1.260 . S
C19 O16 1.258 . S
Zn20 O26 1.969 . S
Zn20 O27 1.965 . S
Zn20 O31 2.024 . S
Zn20 O36 1.969 . S
Zn21 O28 1.969 . S
Zn21 O34 1.969 . S
Zn21 O35 1.965 . S
Zn21 O37 2.024 . S
C22 O23 1.229 . S
C22 O31 1.058 . S
O23 C22 1.229 . S
C24 O25 1.229 . S
C24 O37 1.058 . S
O25 C24 1.229 . S
O26 Zn20 1.969 . S
O26 C29 1.267 . S
O27 Zn20 1.965 . S
O27 C38 1.260 . S
O28 Zn21 1.969 . S
O28 C38 1.258 . S
C29 O26 1.267 . S
C29 O30 1.228 . S
O30 C29 1.228 . S
O31 Zn20 2.024 . S
O31 C22 1.058 . S
C32 O33 1.228 . S
C32 O34 1.267 . S
O33 C32 1.228 . S
O34 Zn21 1.969 . S
O34 C32 1.267 . S
O35 Zn21 1.965 . S
O35 C39 1.260 . S
O36 Zn20 1.969 . S
O36 C39 1.258 . S
O37 Zn21 2.024 . S
O37 C24 1.058 . S
C38 O27 1.260 . S
C38 O28 1.258 . S
C39 O35 1.260 . S
C39 O36 1.258 . S
Zn40 O46 1.969 1_545 S
Zn40 O47 1.965 . S
Zn40 O51 2.024 . S
Zn40 O56 1.969 1_545 S
Zn41 O48 1.969 1_565 S
Zn41 O54 1.969 1_565 S
Zn41 O55 1.965 . S
Zn41 O57 2.024 . S
C42 O43 1.229 . S
C42 O51 1.058 . S
O43 C42 1.229 . S
C44 O45 1.229 . S
C44 O57 1.058 . S
O45 C44 1.229 . S
O46 Zn40 1.969 1_565 S
O46 C49 1.267 1_565 S
O47 Zn40 1.965 . S
O47 C58 1.260 . S
O48 Zn41 1.969 1_545 S
O48 C58 1.258 1_556 S
C49 O46 1.267 1_545 S
C49 O50 1.228 . S
O50 C49 1.228 . S
O51 Zn40 2.024 . S
O51 C42 1.058 . S
C52 O53 1.228 . S
C52 O54 1.267 1_565 S
O53 C52 1.228 . S
O54 Zn41 1.969 1_545 S
O54 C52 1.267 1_545 S
O55 Zn41 1.965 . S
O55 C59 1.260 . S
O56 Zn40 1.969 1_565 S
O56 C59 1.258 1_554 S
O57 Zn41 2.024 . S
O57 C44 1.058 . S
C58 O47 1.260 . S
C58 O48 1.258 1_554 S
C59 O55 1.260 . S
C59 O56 1.258 1_556 S
Zn60 O66 1.969 . S
Zn60 O67 1.965 . S
Zn60 O71 2.024 . S
Zn60 O76 1.969 . S
Zn61 O68 1.969 . S
Zn61 O74 1.969 . S
Zn61 O75 1.965 . S
Zn61 O77 2.024 . S
C62 O63 1.229 . S
C62 O71 1.058 . S
O63 C62 1.229 . S
C64 O65 1.229 . S
C64 O77 1.058 . S
O65 C64 1.229 . S
O66 Zn60 1.969 . S
O66 C69 1.267 . S
O67 Zn60 1.965 . S
O67 C78 1.260 . S
O68 Zn61 1.969 . S
O68 C78 1.258 . S
C69 O66 1.267 . S
C69 O70 1.228 . S
O70 C69 1.228 . S
O71 Zn60 2.024 . S
O71 C62 1.058 . S
C72 O73 1.228 . S
C72 O74 1.267 . S
O73 C72 1.228 . S
O74 Zn61 1.969 . S
O74 C72 1.267 . S
O75 Zn61 1.965 . S
O75 C79 1.260 . S
O76 Zn60 1.969 . S
O76 C79 1.258 . S
O77 Zn61 2.024 . S
O77 C64 1.058 . S
C78 O67 1.260 . S
C78 O68 1.258 . S
C79 O75 1.260 . S
C79 O76 1.258 . S
Zn80 O86 1.969 . S
Zn80 O87 1.965 . S
Zn80 O91 2.024 . S
Zn80 O96 1.969 . S
Zn81 O88 1.969 . S
Zn81 O94 1.969 . S
Zn81 O95 1.965 . S
Zn81 O97 2.024 . S
C82 O83 1.229 . S
C82 O91 1.058 . S
O83 C82 1.229 . S
C84 O85 1.229 . S
C84 O97 1.058 . S
O85 C84 1.229 . S
O86 Zn80 1.969 . S
O86 C89 1.267 . S
O87 Zn80 1.965 . S
O87 C98 1.260 . S
O88 Zn81 1.969 . S
O88 C98 1.258 . S
C89 O86 1.267 . S
C89 O90 1.228 . S
O90 C89 1.228 . S
O91 Zn80 2.024 . S
O91 C82 1.058 . S
C92 O93 1.228 . S
C92 O94 1.267 . S
O93 C92 1.228 . S
O94 Zn81 1.969 . S
O94 C92 1.267 . S
O95 Zn81 1.965 . S
O95 C99 1.260 . S
O96 Zn80 1.969 . S
O96 C99 1.258 . S
O97 Zn81 2.024 . S
O97 C84 1.058 . S
C98 O87 1.260 . S
C98 O88 1.258 . S
C99 O95 1.260 . S
C99 O96 1.258 . S
Zn100 O106 1.969 . S
Zn100 O107 1.965 . S
Zn100 O111 2.024 . S
Zn100 O116 1.969 . S
Zn101 O108 1.969 . S
Zn101 O114 1.969 . S
Zn101 O115 1.965 . S
Zn101 O117 2.024 . S
C102 O103 1.229 . S
C102 O111 1.058 . S
O103 C102 1.229 . S
C104 O105 1.229 . S
C104 O117 1.058 . S
O105 C104 1.229 . S
O106 Zn100 1.969 . S
O106 C109 1.267 . S
O107 Zn100 1.965 . S
O107 C118 1.260 . S
O108 Zn101 1.969 . S
O108 C118 1.258 . S
C109 O106 1.267 . S
C109 O110 1.228 . S
O110 C109 1.228 . S
O111 Zn100 2.024 . S
O111 C102 1.058 . S
C112 O113 1.228 . S
C112 O114 1.267 . S
O113 C112 1.228 . S
O114 Zn101 1.969 . S
O114 C112 1.267 . S
O115 Zn101 1.965 . S
O115 C119 1.260 . S
O116 Zn100 1.969 . S
O116 C119 1.258 . S
O117 Zn101 2.024 . S
O117 C104 1.058 . S
C118 O107 1.260 . S
C118 O108 1.258 . S
C119 O115 1.260 . S
C119 O116 1.258 . S
Zn120 O126 1.969 . S
Zn120 O127 1.965 . S
Zn120 O131 2.024 . S
Zn120 O136 1.969 . S
Zn121 O128 1.969 . S
Zn121 O134 1.969 . S
Zn121 O135 1.965 . S
Zn121 O137 2.024 . S
C122 O123 1.229 . S
C122 O131 1.058 . S
O123 C122 1.229 . S
C124 O125 1.229 . S
C124 O137 1.058 . S
O125 C124 1.229 . S
O126 Zn120 1.969 . S
O126 C129 1.267 . S
O127 Zn120 1.965 . S
O127 C138 1.260 . S
O128 Zn121 1.969 . S
O128 C138 1.258 1_554 S
C129 O126 1.267 . S
C129 O130 1.228 . S
O130 C129 1.228 . S
O131 Zn120 2.024 . S
O131 C122 1.058 . S
C132 O133 1.228 . S
C132 O134 1.267 . S
O133 C132 1.228 . S
O134 Zn121 1.969 . S
O134 C132 1.267 . S
O135 Zn121 1.965 . S
O135 C139 1.260 . S
O136 Zn120 1.969 . S
O136 C139 1.258 1_556 S
O137 Zn121 2.024 . S
O137 C124 1.058 . S
C138 O127 1.260 . S
C138 O128 1.258 1_556 S
C139 O135 1.260 . S
C139 O136 1.258 1_554 S
Zn140 O146 1.969 . S
Zn140 O147 1.965 1_455 S
Zn140 O151 2.024 . S
Zn140 O156 1.969 . S
Zn141 O148 1.969 . S
Zn141 O154 1.969 . S
Zn141 O155 1.965 1_655 S
Zn141 O157 2.024 . S
C142 O143 1.229 . S
C142 O151 1.058 . S
O143 C142 1.229 . S
C144 O145 1.229 . S
C144 O157 1.058 . S
O145 C144 1.229 . S
O146 Zn140 1.969 . S
O146 C149 1.267 . S
O147 Zn140 1.965 1_655 S
O147 C158 1.260 . S
O148 Zn141 1.969 . S
O148 C158 1.258 . S
C149 O146 1.267 . S
C149 O150 1.233 . S
O150 C149 1.233 . S
O151 Zn140 2.024 . S
O151 C142 1.058 . S
C152 O153 1.231 . S
C152 O154 1.267 . S
O153 C152 1.231 . S
O154 Zn141 1.969 . S
O154 C152 1.267 . S
O155 Zn141 1.965 1_455 S
O155 C159 1.260 . S
O156 Zn140 1.969 . S
O156 C159 1.258 . S
O157 Zn141 2.024 . S
O157 C144 1.058 . S
C158 O147 1.260 . S
C158 O148 1.258 . S
C159 O155 1.260 . S
C159 O156 1.258 . S
H160 C172 0.930 . S
H161 C174 0.930 . S
H162 C175 0.930 . S
H163 C179 0.959 . S
H164 C179 0.959 . S
H165 C179 0.961 . S
H166 C180 0.960 . S
H167 C180 0.961 . S
H168 C180 0.959 . S
H169 C183 0.929 . S
H170 C184 0.931 . S
H171 C186 0.930 . S
C172 H160 0.930 . S
C172 C173 1.399 . S
C172 C177 1.399 . S
C173 C172 1.399 . S
C173 C174 1.376 . S
C174 H161 0.930 . S
C174 C173 1.376 . S
C174 C175 1.388 . S
C175 H162 0.930 . S
C175 C174 1.388 . S
C175 C176 1.390 . S
C176 C175 1.390 . S
C176 C177 1.394 . S
C176 C182 1.465 . S
C177 C172 1.399 . S
C177 C176 1.394 . S
C177 C178 1.516 . S
C178 C177 1.516 . S
C178 C179 1.502 . S
C178 C180 1.561 . S
C178 C181 1.526 . S
C179 H163 0.959 . S
C179 H164 0.959 . S
C179 H165 0.961 . S
C179 C178 1.502 . S
C180 H166 0.960 . S
C180 H167 0.961 . S
C180 H168 0.959 . S
C180 C178 1.561 . S
C181 C178 1.526 . S
C181 C182 1.396 . S
C181 C186 1.390 . S
C182 C176 1.465 . S
C182 C181 1.396 . S
C182 C183 1.399 . S
C183 H169 0.929 . S
C183 C182 1.399 . S
C183 C184 1.385 . S
C184 H170 0.931 . S
C184 C183 1.385 . S
C184 C185 1.389 . S
C185 C184 1.389 . S
C185 C186 1.387 . S
C186 H171 0.930 . S
C186 C181 1.390 . S
C186 C185 1.387 . S
H187 C199 0.930 . S
H188 C201 0.930 . S
H189 C202 0.930 . S
H190 C206 0.959 . S
H191 C206 0.959 . S
H192 C206 0.961 . S
H193 C207 0.960 . S
H194 C207 0.961 . S
H195 C207 0.959 . S
H196 C210 0.929 . S
H197 C211 0.931 . S
H198 C213 0.930 . S
C199 H187 0.930 . S
C199 C200 1.399 . S
C199 C204 1.399 . S
C200 C199 1.399 . S
C200 C201 1.376 . S
C201 H188 0.930 . S
C201 C200 1.376 . S
C201 C202 1.388 . S
C202 H189 0.930 . S
C202 C201 1.388 . S
C202 C203 1.390 . S
C203 C202 1.390 . S
C203 C204 1.394 . S
C203 C209 1.465 . S
C204 C199 1.399 . S
C204 C203 1.394 . S
C204 C205 1.516 . S
C205 C204 1.516 . S
C205 C206 1.502 . S
C205 C207 1.561 . S
C205 C208 1.526 . S
C206 H190 0.959 . S
C206 H191 0.959 . S
C206 H192 0.961 . S
C206 C205 1.502 . S
C207 H193 0.960 . S
C207 H194 0.961 . S
C207 H195 0.959 . S
C207 C205 1.561 . S
C208 C205 1.526 . S
C208 C209 1.396 . S
C208 C213 1.390 . S
C209 C203 1.465 . S
C209 C208 1.396 . S
C209 C210 1.399 . S
C210 H196 0.929 . S
C210 C209 1.399 . S
C210 C211 1.385 . S
C211 H197 0.931 . S
C211 C210 1.385 . S
C211 C212 1.389 . S
C212 C211 1.389 . S
C212 C213 1.387 . S
C213 H198 0.930 . S
C213 C208 1.390 . S
C213 C212 1.387 . S
H214 C226 0.930 . S
H215 C228 0.930 . S
H216 C229 0.930 . S
H217 C233 0.959 . S
H218 C233 0.959 . S
H219 C233 0.961 . S
H220 C234 0.960 . S
H221 C234 0.961 . S
H222 C234 0.959 . S
H223 C237 0.929 1_554 S
H224 C238 0.931 1_554 S
H225 C240 0.930 . S
C226 H214 0.930 . S
C226 C227 1.399 . S
C226 C231 1.399 . S
C227 C226 1.399 . S
C227 C228 1.376 . S
C228 H215 0.930 . S
C228 C227 1.376 . S
C228 C229 1.388 . S
C229 H216 0.930 . S
C229 C228 1.388 . S
C229 C230 1.390 . S
C230 C229 1.390 . S
C230 C231 1.394 . S
C230 C236 1.465 . S
C231 C226 1.399 . S
C231 C230 1.394 . S
C231 C232 1.516 . S
C232 C231 1.516 . S
C232 C233 1.502 . S
C232 C234 1.561 . S
C232 C235 1.526 . S
C233 H217 0.959 . S
C233 H218 0.959 . S
C233 H219 0.961 . S
C233 C232 1.502 . S
C234 H220 0.960 . S
C234 H221 0.961 . S
C234 H222 0.959 . S
C234 C232 1.561 . S
C235 C232 1.526 . S
C235 C236 1.396 . S
C235 C240 1.390 . S
C236 C230 1.465 . S
C236 C235 1.396 . S
C236 C237 1.399 . S
C237 H223 0.929 1_556 S
C237 C236 1.399 . S
C237 C238 1.385 . S
C238 H224 0.931 1_556 S
C238 C237 1.385 . S
C238 C239 1.389 . S
C239 C238 1.389 . S
C239 C240 1.387 . S
C240 H225 0.930 . S
C240 C235 1.390 . S
C240 C239 1.387 . S
H241 C253 0.930 . S
H242 C255 0.930 1_556 S
H243 C256 0.930 1_556 S
H244 C260 0.959 . S
H245 C260 0.959 . S
H246 C260 0.961 . S
H247 C261 0.960 . S
H248 C261 0.961 . S
H249 C261 0.959 . S
H250 C264 0.929 . S
H251 C265 0.931 . S
H252 C267 0.930 . S
C253 H241 0.930 . S
C253 C254 1.399 . S
C253 C258 1.399 . S
C254 C253 1.399 . S
C254 C255 1.376 . S
C255 H242 0.930 1_554 S
C255 C254 1.376 . S
C255 C256 1.388 . S
C256 H243 0.930 1_554 S
C256 C255 1.388 . S
C256 C257 1.390 . S
C257 C256 1.390 . S
C257 C258 1.394 . S
C257 C263 1.465 . S
C258 C253 1.399 . S
C258 C257 1.394 . S
C258 C259 1.516 . S
C259 C258 1.516 . S
C259 C260 1.502 . S
C259 C261 1.561 . S
C259 C262 1.526 . S
C260 H244 0.959 . S
C260 H245 0.959 . S
C260 H246 0.961 . S
C260 C259 1.502 . S
C261 H247 0.960 . S
C261 H248 0.961 . S
C261 H249 0.959 . S
C261 C259 1.561 . S
C262 C259 1.526 . S
C262 C263 1.396 . S
C262 C267 1.390 . S
C263 C257 1.465 . S
C263 C262 1.396 . S
C263 C264 1.399 . S
C264 H250 0.929 . S
C264 C263 1.399 . S
C264 C265 1.385 . S
C265 H251 0.931 . S
C265 C264 1.385 . S
C265 C266 1.389 . S
C266 C265 1.389 . S
C266 C267 1.387 . S
C267 H252 0.930 . S
C267 C262 1.390 . S
C267 C266 1.387 . S
H268 C280 0.930 . S
H269 C282 0.930 . S
H270 C283 0.930 . S
H271 C287 0.959 . S
H272 C287 0.959 . S
H273 C287 0.961 . S
H274 C288 0.960 . S
H275 C288 0.961 . S
H276 C288 0.959 . S
H277 C291 0.929 . S
H278 C292 0.931 . S
H279 C294 0.930 . S
C280 H268 0.930 . S
C280 C281 1.399 . S
C280 C285 1.399 . S
C281 C280 1.399 . S
C281 C282 1.376 . S
C282 H269 0.930 . S
C282 C281 1.376 . S
C282 C283 1.388 . S
C283 H270 0.930 . S
C283 C282 1.388 . S
C283 C284 1.390 . S
C284 C283 1.390 . S
C284 C285 1.394 . S
C284 C290 1.465 . S
C285 C280 1.399 . S
C285 C284 1.394 . S
C285 C286 1.516 . S
C286 C285 1.516 . S
C286 C287 1.502 . S
C286 C288 1.561 . S
C286 C289 1.526 . S
C287 H271 0.959 . S
C287 H272 0.959 . S
C287 H273 0.961 . S
C287 C286 1.502 . S
C288 H274 0.960 . S
C288 H275 0.961 . S
C288 H276 0.959 . S
C288 C286 1.561 . S
C289 C286 1.526 . S
C289 C290 1.396 . S
C289 C294 1.390 . S
C290 C284 1.465 . S
C290 C289 1.396 . S
C290 C291 1.399 . S
C291 H277 0.929 . S
C291 C290 1.399 . S
C291 C292 1.385 . S
C292 H278 0.931 . S
C292 C291 1.385 . S
C292 C293 1.389 . S
C293 C292 1.389 . S
C293 C294 1.387 . S
C294 H279 0.930 . S
C294 C289 1.390 . S
C294 C293 1.387 . S
H295 C307 0.930 . S
H296 C309 0.930 . S
H297 C310 0.930 . S
H298 C314 0.959 . S
H299 C314 0.959 . S
H300 C314 0.961 . S
H301 C315 0.960 . S
H302 C315 0.961 . S
H303 C315 0.959 . S
H304 C318 0.929 . S
H305 C319 0.931 . S
H306 C321 0.930 . S
C307 H295 0.930 . S
C307 C308 1.399 . S
C307 C312 1.399 . S
C308 C307 1.399 . S
C308 C309 1.376 . S
C309 H296 0.930 . S
C309 C308 1.376 . S
C309 C310 1.388 . S
C310 H297 0.930 . S
C310 C309 1.388 . S
C310 C311 1.390 . S
C311 C310 1.390 . S
C311 C312 1.394 . S
C311 C317 1.465 . S
C312 C307 1.399 . S
C312 C311 1.394 . S
C312 C313 1.516 . S
C313 C312 1.516 . S
C313 C314 1.502 . S
C313 C315 1.561 . S
C313 C316 1.526 . S
C314 H298 0.959 . S
C314 H299 0.959 . S
C314 H300 0.961 . S
C314 C313 1.502 . S
C315 H301 0.960 . S
C315 H302 0.961 . S
C315 H303 0.959 . S
C315 C313 1.561 . S
C316 C313 1.526 . S
C316 C317 1.396 . S
C316 C321 1.390 . S
C317 C311 1.465 . S
C317 C316 1.396 . S
C317 C318 1.399 . S
C318 H304 0.929 . S
C318 C317 1.399 . S
C318 C319 1.385 . S
C319 H305 0.931 . S
C319 C318 1.385 . S
C319 C320 1.389 . S
C320 C319 1.389 . S
C320 C321 1.387 . S
C321 H306 0.930 . S
C321 C316 1.390 . S
C321 C320 1.387 . S
H322 C334 0.930 . S
H323 C336 0.930 . S
H324 C337 0.930 . S
H325 C341 0.959 . S
H326 C341 0.959 1_556 S
H327 C341 0.961 . S
H328 C342 0.960 1_556 S
H329 C342 0.961 1_556 S
H330 C342 0.959 . S
H331 C345 0.929 . S
H332 C346 0.931 . S
H333 C348 0.930 . S
C334 H322 0.930 . S
C334 C335 1.399 . S
C334 C339 1.399 . S
C335 C334 1.399 . S
C335 C336 1.376 . S
C336 H323 0.930 . S
C336 C335 1.376 . S
C336 C337 1.388 . S
C337 H324 0.930 . S
C337 C336 1.388 . S
C337 C338 1.390 . S
C338 C337 1.390 . S
C338 C339 1.394 . S
C338 C344 1.465 . S
C339 C334 1.399 . S
C339 C338 1.394 . S
C339 C340 1.516 . S
C340 C339 1.516 . S
C340 C341 1.502 . S
C340 C342 1.561 . S
C340 C343 1.526 . S
C341 H325 0.959 . S
C341 H326 0.959 1_554 S
C341 H327 0.961 . S
C341 C340 1.502 . S
C342 H328 0.960 1_554 S
C342 H329 0.961 1_554 S
C342 H330 0.959 . S
C342 C340 1.561 . S
C343 C340 1.526 . S
C343 C344 1.396 . S
C343 C348 1.390 . S
C344 C338 1.465 . S
C344 C343 1.396 . S
C344 C345 1.399 . S
C345 H331 0.929 . S
C345 C344 1.399 . S
C345 C346 1.385 . S
C346 H332 0.931 . S
C346 C345 1.385 . S
C346 C347 1.389 . S
C347 C346 1.389 . S
C347 C348 1.387 . S
C348 H333 0.930 . S
C348 C343 1.390 . S
C348 C347 1.387 . S
H349 C361 0.930 . S
H350 C363 0.930 . S
H351 C364 0.930 . S
H352 C368 0.959 . S
H353 C368 0.959 . S
H354 C368 0.961 . S
H355 C369 0.960 . S
H356 C369 0.961 . S
H357 C369 0.959 . S
H358 C372 0.929 1_554 S
H359 C373 0.931 1_554 S
H360 C375 0.930 . S
C361 H349 0.930 . S
C361 C362 1.399 . S
C361 C366 1.399 . S
C362 C361 1.399 . S
C362 C363 1.376 . S
C363 H350 0.930 . S
C363 C362 1.376 . S
C363 C364 1.388 . S
C364 H351 0.930 . S
C364 C363 1.388 . S
C364 C365 1.390 . S
C365 C364 1.390 . S
C365 C366 1.394 . S
C365 C371 1.465 . S
C366 C361 1.399 . S
C366 C365 1.394 . S
C366 C367 1.516 . S
C367 C366 1.516 . S
C367 C368 1.502 . S
C367 C369 1.561 . S
C367 C370 1.526 . S
C368 H352 0.959 . S
C368 H353 0.959 . S
C368 H354 0.961 . S
C368 C367 1.502 . S
C369 H355 0.960 . S
C369 H356 0.961 . S
C369 H357 0.959 . S
C369 C367 1.561 . S
C370 C367 1.526 . S
C370 C371 1.396 . S
C370 C375 1.390 . S
C371 C365 1.465 . S
C371 C370 1.396 . S
C371 C372 1.399 . S
C372 H358 0.929 1_556 S
C372 C371 1.399 . S
C372 C373 1.385 . S
C373 H359 0.931 1_556 S
C373 C372 1.385 . S
C373 C374 1.389 . S
C374 C373 1.389 . S
C374 C375 1.387 . S
C375 H360 0.930 . S
C375 C370 1.390 . S
C375 C374 1.387 . S
H376 C388 0.930 1_554 S
H377 C390 0.930 . S
H378 C391 0.930 . S
H379 C395 0.959 . S
H380 C395 0.959 1_554 S
H381 C395 0.961 1_554 S
H382 C396 0.960 . S
H383 C396 0.961 . S
H384 C396 0.959 . S
H385 C399 0.929 . S
H386 C400 0.931 . S
H387 C402 0.930 . S
C388 H376 0.930 1_556 S
C388 C389 1.399 . S
C388 C393 1.399 . S
C389 C388 1.399 . S
C389 C390 1.376 . S
C390 H377 0.930 . S
C390 C389 1.376 . S
C390 C391 1.388 . S
C391 H378 0.930 . S
C391 C390 1.388 . S
C391 C392 1.390 . S
C392 C391 1.390 . S
C392 C393 1.394 . S
C392 C398 1.465 . S
C393 C388 1.399 . S
C393 C392 1.394 . S
C393 C394 1.516 . S
C394 C393 1.516 . S
C394 C395 1.502 . S
C394 C396 1.561 1_556 S
C394 C397 1.526 . S
C395 H379 0.959 . S
C395 H380 0.959 1_556 S
C395 H381 0.961 1_556 S
C395 C394 1.502 . S
C396 H382 0.960 . S
C396 H383 0.961 . S
C396 H384 0.959 . S
C396 C394 1.561 1_554 S
C397 C394 1.526 . S
C397 C398 1.396 . S
C397 C402 1.390 . S
C398 C392 1.465 . S
C398 C397 1.396 . S
C398 C399 1.399 . S
C399 H385 0.929 . S
C399 C398 1.399 . S
C399 C400 1.385 . S
C400 H386 0.931 . S
C400 C399 1.385 . S
C400 C401 1.389 . S
C401 C400 1.389 . S
C401 C402 1.387 . S
C402 H387 0.930 . S
C402 C397 1.390 . S
C402 C401 1.387 . S
H403 C415 0.930 . S
H404 C417 0.930 . S
H405 C418 0.930 . S
H406 C422 0.959 . S
H407 C422 0.959 1_556 S
H408 C422 0.961 1_556 S
H409 C423 0.960 . S
H410 C423 0.961 . S
H411 C423 0.959 1_554 S
H412 C426 0.929 . S
H413 C427 0.931 . S
H414 C429 0.930 1_556 S
C415 H403 0.930 . S
C415 C416 1.399 . S
C415 C420 1.399 . S
C416 C415 1.399 . S
C416 C417 1.376 . S
C417 H404 0.930 . S
C417 C416 1.376 . S
C417 C418 1.388 . S
C418 H405 0.930 . S
C418 C417 1.388 . S
C418 C419 1.390 . S
C419 C418 1.390 . S
C419 C420 1.394 . S
C419 C425 1.465 . S
C420 C415 1.399 . S
C420 C419 1.394 . S
C420 C421 1.516 . S
C421 C420 1.516 . S
C421 C422 1.502 . S
C421 C423 1.561 1_554 S
C421 C424 1.526 . S
C422 H406 0.959 . S
C422 H407 0.959 1_554 S
C422 H408 0.961 1_554 S
C422 C421 1.502 . S
C423 H409 0.960 . S
C423 H410 0.961 . S
C423 H411 0.959 1_556 S
C423 C421 1.561 1_556 S
C424 C421 1.526 . S
C424 C425 1.396 . S
C424 C429 1.390 . S
C425 C419 1.465 . S
C425 C424 1.396 . S
C425 C426 1.399 . S
C426 H412 0.929 . S
C426 C425 1.399 . S
C426 C427 1.385 . S
C427 H413 0.931 . S
C427 C426 1.385 . S
C427 C428 1.389 . S
C428 C427 1.389 . S
C428 C429 1.387 . S
C429 H414 0.930 1_554 S
C429 C424 1.390 . S
C429 C428 1.387 . S
H430 C442 0.930 . S
H431 C444 0.930 . S
H432 C445 0.930 . S
H433 C449 0.959 . S
H434 C449 0.959 . S
H435 C449 0.961 . S
H436 C450 0.960 . S
H437 C450 0.961 . S
H438 C450 0.959 . S
H439 C453 0.929 . S
H440 C454 0.931 . S
H441 C456 0.930 . S
C442 H430 0.930 . S
C442 C443 1.399 . S
C442 C447 1.399 . S
C443 C442 1.399 . S
C443 C444 1.376 . S
C444 H431 0.930 . S
C444 C443 1.376 . S
C444 C445 1.388 . S
C445 H432 0.930 . S
C445 C444 1.388 . S
C445 C446 1.390 . S
C446 C445 1.390 . S
C446 C447 1.394 . S
C446 C452 1.465 . S
C447 C442 1.399 . S
C447 C446 1.394 . S
C447 C448 1.516 . S
C448 C447 1.516 . S
C448 C449 1.502 . S
C448 C450 1.561 . S
C448 C451 1.526 . S
C449 H433 0.959 . S
C449 H434 0.959 . S
C449 H435 0.961 . S
C449 C448 1.502 . S
C450 H436 0.960 . S
C450 H437 0.961 . S
C450 H438 0.959 . S
C450 C448 1.561 . S
C451 C448 1.526 . S
C451 C452 1.396 . S
C451 C456 1.390 . S
C452 C446 1.465 . S
C452 C451 1.396 . S
C452 C453 1.399 . S
C453 H439 0.929 . S
C453 C452 1.399 . S
C453 C454 1.385 . S
C454 H440 0.931 . S
C454 C453 1.385 . S
C454 C455 1.389 . S
C455 C454 1.389 . S
C455 C456 1.387 . S
C456 H441 0.930 . S
C456 C451 1.390 . S
C456 C455 1.387 . S
H457 C469 0.930 . S
H458 C471 0.930 . S
H459 C472 0.930 . S
H460 C476 0.959 . S
H461 C476 0.959 . S
H462 C476 0.961 . S
H463 C477 0.960 . S
H464 C477 0.961 . S
H465 C477 0.959 . S
H466 C480 0.929 . S
H467 C481 0.931 . S
H468 C483 0.930 . S
C469 H457 0.930 . S
C469 C470 1.399 . S
C469 C474 1.399 . S
C470 C469 1.399 . S
C470 C471 1.376 . S
C471 H458 0.930 . S
C471 C470 1.376 . S
C471 C472 1.388 . S
C472 H459 0.930 . S
C472 C471 1.388 . S
C472 C473 1.390 . S
C473 C472 1.390 . S
C473 C474 1.394 . S
C473 C479 1.465 . S
C474 C469 1.399 . S
C474 C473 1.394 . S
C474 C475 1.516 . S
C475 C474 1.516 . S
C475 C476 1.502 . S
C475 C477 1.561 . S
C475 C478 1.526 . S
C476 H460 0.959 . S
C476 H461 0.959 . S
C476 H462 0.961 . S
C476 C475 1.502 . S
C477 H463 0.960 . S
C477 H464 0.961 . S
C477 H465 0.959 . S
C477 C475 1.561 . S
C478 C475 1.526 . S
C478 C479 1.396 . S
C478 C483 1.390 . S
C479 C473 1.465 . S
C479 C478 1.396 . S
C479 C480 1.399 . S
C480 H466 0.929 . S
C480 C479 1.399 . S
C480 C481 1.385 . S
C481 H467 0.931 . S
C481 C480 1.385 . S
C481 C482 1.389 . S
C482 C481 1.389 . S
C482 C483 1.387 . S
C483 H468 0.930 . S
C483 C478 1.390 . S
C483 C482 1.387 . S
H484 C496 0.930 . S
H485 C498 0.930 . S
H486 C499 0.930 . S
H487 C503 0.959 . S
H488 C503 0.959 . S
H489 C503 0.961 . S
H490 C504 0.960 . S
H491 C504 0.961 . S
H492 C504 0.959 . S
H493 C507 0.929 . S
H494 C508 0.931 1_556 S
H495 C510 0.930 . S
C496 H484 0.930 . S
C496 C497 1.399 . S
C496 C501 1.399 . S
C497 C496 1.399 . S
C497 C498 1.376 . S
C498 H485 0.930 . S
C498 C497 1.376 . S
C498 C499 1.388 . S
C499 H486 0.930 . S
C499 C498 1.388 . S
C499 C500 1.390 . S
C500 C499 1.390 . S
C500 C501 1.394 . S
C500 C506 1.465 . S
C501 C496 1.399 . S
C501 C500 1.394 . S
C501 C502 1.516 . S
C502 C501 1.516 . S
C502 C503 1.502 . S
C502 C504 1.561 . S
C502 C505 1.526 . S
C503 H487 0.959 . S
C503 H488 0.959 . S
C503 H489 0.961 . S
C503 C502 1.502 . S
C504 H490 0.960 . S
C504 H491 0.961 . S
C504 H492 0.959 . S
C504 C502 1.561 . S
C505 C502 1.526 . S
C505 C506 1.396 . S
C505 C510 1.390 . S
C506 C500 1.465 . S
C506 C505 1.396 . S
C506 C507 1.399 . S
C507 H493 0.929 . S
C507 C506 1.399 . S
C507 C508 1.385 . S
C508 H494 0.931 1_554 S
C508 C507 1.385 . S
C508 C509 1.389 . S
C509 C508 1.389 . S
C509 C510 1.387 . S
C510 H495 0.930 . S
C510 C505 1.390 . S
C510 C509 1.387 . S
H511 C523 0.930 1_554 S
H512 C525 0.930 . S
H513 C526 0.930 . S
H514 C530 0.959 . S
H515 C530 0.959 . S
H516 C530 0.961 . S
H517 C531 0.960 . S
H518 C531 0.961 . S
H519 C531 0.959 . S
H520 C534 0.929 . S
H521 C535 0.931 . S
H522 C537 0.930 . S
C523 H511 0.930 1_556 S
C523 C524 1.399 . S
C523 C528 1.399 . S
C524 C523 1.399 . S
C524 C525 1.376 . S
C525 H512 0.930 . S
C525 C524 1.376 . S
C525 C526 1.388 . S
C526 H513 0.930 . S
C526 C525 1.388 . S
C526 C527 1.390 . S
C527 C526 1.390 . S
C527 C528 1.394 . S
C527 C533 1.465 . S
C528 C523 1.399 . S
C528 C527 1.394 . S
C528 C529 1.516 . S
C529 C528 1.516 . S
C529 C530 1.502 1_556 S
C529 C531 1.561 . S
C529 C532 1.526 . S
C530 H514 0.959 . S
C530 H515 0.959 . S
C530 H516 0.961 . S
C530 C529 1.502 1_554 S
C531 H517 0.960 . S
C531 H518 0.961 . S
C531 H519 0.959 . S
C531 C529 1.561 . S
C532 C529 1.526 . S
C532 C533 1.396 . S
C532 C537 1.390 . S
C533 C527 1.465 . S
C533 C532 1.396 . S
C533 C534 1.399 . S
C534 H520 0.929 . S
C534 C533 1.399 . S
C534 C535 1.385 . S
C535 H521 0.931 . S
C535 C534 1.385 . S
C535 C536 1.389 . S
C536 C535 1.389 . S
C536 C537 1.387 . S
C537 H522 0.930 . S
C537 C532 1.390 . S
C537 C536 1.387 . S
H538 C550 0.930 . S
H539 C552 0.930 . S
H540 C553 0.930 . S
H541 C557 0.959 . S
H542 C557 0.959 . S
H543 C557 0.961 . S
H544 C558 0.960 . S
H545 C558 0.961 . S
H546 C558 0.959 . S
H547 C561 0.929 . S
H548 C562 0.931 . S
H549 C564 0.930 . S
C550 H538 0.930 . S
C550 C551 1.399 . S
C550 C555 1.399 . S
C551 C550 1.399 . S
C551 C552 1.376 . S
C552 H539 0.930 . S
C552 C551 1.376 . S
C552 C553 1.388 . S
C553 H540 0.930 . S
C553 C552 1.388 . S
C553 C554 1.390 . S
C554 C553 1.390 . S
C554 C555 1.394 . S
C554 C560 1.465 . S
C555 C550 1.399 . S
C555 C554 1.394 . S
C555 C556 1.516 . S
C556 C555 1.516 . S
C556 C557 1.502 . S
C556 C558 1.561 . S
C556 C559 1.526 . S
C557 H541 0.959 . S
C557 H542 0.959 . S
C557 H543 0.961 . S
C557 C556 1.502 . S
C558 H544 0.960 . S
C558 H545 0.961 . S
C558 H546 0.959 . S
C558 C556 1.561 . S
C559 C556 1.526 . S
C559 C560 1.396 . S
C559 C564 1.390 . S
C560 C554 1.465 . S
C560 C559 1.396 . S
C560 C561 1.399 . S
C561 H547 0.929 . S
C561 C560 1.399 . S
C561 C562 1.385 . S
C562 H548 0.931 . S
C562 C561 1.385 . S
C562 C563 1.389 . S
C563 C562 1.389 . S
C563 C564 1.387 . S
C564 H549 0.930 . S
C564 C559 1.390 . S
C564 C563 1.387 . S
H565 C577 0.930 . S
H566 C579 0.930 . S
H567 C580 0.930 . S
H568 C584 0.959 . S
H569 C584 0.959 . S
H570 C584 0.961 . S
H571 C585 0.960 . S
H572 C585 0.961 . S
H573 C585 0.959 . S
H574 C588 0.929 . S
H575 C589 0.931 . S
H576 C591 0.930 . S
C577 H565 0.930 . S
C577 C578 1.399 . S
C577 C582 1.399 . S
C578 C577 1.399 . S
C578 C579 1.376 . S
C579 H566 0.930 . S
C579 C578 1.376 . S
C579 C580 1.388 . S
C580 H567 0.930 . S
C580 C579 1.388 . S
C580 C581 1.390 . S
C581 C580 1.390 . S
C581 C582 1.394 . S
C581 C587 1.465 . S
C582 C577 1.399 . S
C582 C581 1.394 . S
C582 C583 1.516 . S
C583 C582 1.516 . S
C583 C584 1.502 . S
C583 C585 1.561 . S
C583 C586 1.526 . S
C584 H568 0.959 . S
C584 H569 0.959 . S
C584 H570 0.961 . S
C584 C583 1.502 . S
C585 H571 0.960 . S
C585 H572 0.961 . S
C585 H573 0.959 . S
C585 C583 1.561 . S
C586 C583 1.526 . S
C586 C587 1.396 . S
C586 C591 1.390 . S
C587 C581 1.465 . S
C587 C586 1.396 . S
C587 C588 1.399 . S
C588 H574 0.929 . S
C588 C587 1.399 . S
C588 C589 1.385 . S
C589 H575 0.931 . S
C589 C588 1.385 . S
C589 C590 1.389 . S
C590 C589 1.389 . S
C590 C591 1.387 . S
C591 H576 0.930 . S
C591 C586 1.390 . S
C591 C590 1.387 . S
H592 C604 0.930 . S
H593 C606 0.930 . S
H594 C607 0.930 . S
H595 C611 0.959 1_556 S
H596 C611 0.959 . S
H597 C611 0.961 1_556 S
H598 C612 0.965 1_556 S
H599 C612 0.977 . S
H600 C612 0.923 1_655 S
H601 C615 0.929 . S
H602 C616 0.931 . S
H603 C618 0.930 . S
C604 H592 0.930 . S
C604 C605 1.397 1_455 S
C604 C609 1.399 . S
C605 C604 1.397 1_655 S
C605 C606 1.379 1_545 S
C606 H593 0.930 . S
C606 C605 1.379 1_565 S
C606 C607 1.388 . S
C607 H594 0.930 . S
C607 C606 1.388 . S
C607 C608 1.390 . S
C608 C607 1.390 . S
C608 C609 1.394 1_665 S
C608 C614 1.465 1_556 S
C609 C604 1.399 . S
C609 C608 1.394 1_445 S
C609 C610 1.516 1_556 S
C610 C609 1.516 1_554 S
C610 C611 1.502 . S
C610 C612 1.578 . S
C610 C613 1.526 . S
C611 H595 0.959 1_554 S
C611 H596 0.959 . S
C611 H597 0.961 1_554 S
C611 C610 1.502 . S
C612 H598 0.965 1_554 S
C612 H599 0.977 . S
C612 H600 0.923 1_455 S
C612 C610 1.578 . S
C613 C610 1.526 . S
C613 C614 1.396 1_445 S
C613 C618 1.390 . S
C614 C608 1.465 1_554 S
C614 C613 1.396 1_665 S
C614 C615 1.399 . S
C615 H601 0.929 . S
C615 C614 1.399 . S
C615 C616 1.385 . S
C616 H602 0.931 . S
C616 C615 1.385 . S
C616 C617 1.389 . S
C617 C616 1.389 . S
C617 C618 1.387 1_665 S
C618 H603 0.930 . S
C618 C613 1.390 . S
C618 C617 1.387 1_445 S
H619 C631 0.930 . S
H620 C633 0.930 . S
H621 C634 0.930 . S
H622 C638 0.959 . S
H623 C638 0.959 . S
H624 C638 0.961 . S
H625 C639 0.960 . S
H626 C639 0.961 . S
H627 C639 0.959 . S
H628 C642 0.929 . S
H629 C643 0.931 . S
H630 C645 0.930 . S
C631 H619 0.930 . S
C631 C632 1.399 . S
C631 C636 1.399 . S
C632 C631 1.399 . S
C632 C633 1.376 . S
C633 H620 0.930 . S
C633 C632 1.376 . S
C633 C634 1.388 . S
C634 H621 0.930 . S
C634 C633 1.388 . S
C634 C635 1.390 . S
C635 C634 1.390 . S
C635 C636 1.394 . S
C635 C641 1.465 . S
C636 C631 1.399 . S
C636 C635 1.394 . S
C636 C637 1.516 . S
C637 C636 1.516 . S
C637 C638 1.502 . S
C637 C639 1.561 . S
C637 C640 1.526 . S
C638 H622 0.959 . S
C638 H623 0.959 . S
C638 H624 0.961 . S
C638 C637 1.502 . S
C639 H625 0.960 . S
C639 H626 0.961 . S
C639 H627 0.959 . S
C639 C637 1.561 . S
C640 C637 1.526 . S
C640 C641 1.396 . S
C640 C645 1.390 . S
C641 C635 1.465 . S
C641 C640 1.396 . S
C641 C642 1.399 . S
C642 H628 0.929 . S
C642 C641 1.399 . S
C642 C643 1.385 . S
C643 H629 0.931 . S
C643 C642 1.385 . S
C643 C644 1.389 . S
C644 C643 1.389 . S
C644 C645 1.387 . S
C645 H630 0.930 . S
C645 C640 1.390 . S
C645 C644 1.387 . S
H646 C658 0.930 . S
H647 C660 0.930 . S
H648 C661 0.930 . S
H649 C665 0.959 1_545 S
H650 C665 0.959 . S
H651 C665 0.961 . S
H652 C666 0.960 . S
H653 C666 0.961 . S
H654 C666 0.959 . S
H655 C669 0.929 . S
H656 C670 0.931 . S
H657 C672 0.930 . S
C658 H646 0.930 . S
C658 C659 1.399 . S
C658 C663 1.399 . S
C659 C658 1.399 . S
C659 C660 1.376 1_565 S
C660 H647 0.930 . S
C660 C659 1.376 1_545 S
C660 C661 1.388 . S
C661 H648 0.930 . S
C661 C660 1.388 . S
C661 C662 1.390 . S
C662 C661 1.390 . S
C662 C663 1.394 1_545 S
C662 C668 1.465 . S
C663 C658 1.399 . S
C663 C662 1.394 1_565 S
C663 C664 1.516 . S
C664 C663 1.516 . S
C664 C665 1.502 . S
C664 C666 1.561 . S
C664 C667 1.526 . S
C665 H649 0.959 1_565 S
C665 H650 0.959 . S
C665 H651 0.961 . S
C665 C664 1.502 . S
C666 H652 0.960 . S
C666 H653 0.961 . S
C666 H654 0.959 . S
C666 C664 1.561 . S
C667 C664 1.526 . S
C667 C668 1.396 1_565 S
C667 C672 1.390 . S
C668 C662 1.465 . S
C668 C667 1.396 1_545 S
C668 C669 1.399 . S
C669 H655 0.929 . S
C669 C668 1.399 . S
C669 C670 1.385 . S
C670 H656 0.931 . S
C670 C669 1.385 . S
C670 C671 1.389 . S
C671 C670 1.389 . S
C671 C672 1.387 1_545 S
C672 H657 0.930 . S
C672 C667 1.390 . S
C672 C671 1.387 1_565 S
H673 C685 0.930 . S
H674 C687 0.930 . S
H675 C688 0.930 . S
H676 C692 0.959 . S
H677 C692 0.959 . S
H678 C692 0.961 . S
H679 C693 0.960 . S
H680 C693 0.961 . S
H681 C693 0.959 . S
H682 C696 0.929 . S
H683 C697 0.931 . S
H684 C699 0.930 . S
C685 H673 0.930 . S
C685 C686 1.399 . S
C685 C690 1.399 . S
C686 C685 1.399 . S
C686 C687 1.376 . S
C687 H674 0.930 . S
C687 C686 1.376 . S
C687 C688 1.388 . S
C688 H675 0.930 . S
C688 C687 1.388 . S
C688 C689 1.390 . S
C689 C688 1.390 . S
C689 C690 1.394 . S
C689 C695 1.465 . S
C690 C685 1.399 . S
C690 C689 1.394 . S
C690 C691 1.516 . S
C691 C690 1.516 . S
C691 C692 1.502 . S
C691 C693 1.561 . S
C691 C694 1.526 . S
C692 H676 0.959 . S
C692 H677 0.959 . S
C692 H678 0.961 . S
C692 C691 1.502 . S
C693 H679 0.960 . S
C693 H680 0.961 . S
C693 H681 0.959 . S
C693 C691 1.561 . S
C694 C691 1.526 . S
C694 C695 1.396 . S
C694 C699 1.390 . S
C695 C689 1.465 . S
C695 C694 1.396 . S
C695 C696 1.399 . S
C696 H682 0.929 . S
C696 C695 1.399 . S
C696 C697 1.385 . S
C697 H683 0.931 . S
C697 C696 1.385 . S
C697 C698 1.389 . S
C698 C697 1.389 . S
C698 C699 1.387 . S
C699 H684 0.930 . S
C699 C694 1.390 . S
C699 C698 1.387 . S
H700 C712 0.930 . S
H701 C714 0.930 . S
H702 C715 0.930 . S
H703 C719 0.959 . S
H704 C719 0.959 . S
H705 C719 0.961 . S
H706 C720 0.960 . S
H707 C720 0.961 . S
H708 C720 0.959 . S
H709 C723 0.929 . S
H710 C724 0.931 . S
H711 C726 0.930 . S
C712 H700 0.930 . S
C712 C713 1.399 . S
C712 C717 1.399 . S
C713 C712 1.399 . S
C713 C714 1.376 . S
C714 H701 0.930 . S
C714 C713 1.376 . S
C714 C715 1.388 . S
C715 H702 0.930 . S
C715 C714 1.388 . S
C715 C716 1.390 . S
C716 C715 1.390 . S
C716 C717 1.394 . S
C716 C722 1.465 . S
C717 C712 1.399 . S
C717 C716 1.394 . S
C717 C718 1.516 . S
C718 C717 1.516 . S
C718 C719 1.502 . S
C718 C720 1.561 . S
C718 C721 1.526 . S
C719 H703 0.959 . S
C719 H704 0.959 . S
C719 H705 0.961 . S
C719 C718 1.502 . S
C720 H706 0.960 . S
C720 H707 0.961 . S
C720 H708 0.959 . S
C720 C718 1.561 . S
C721 C718 1.526 . S
C721 C722 1.396 . S
C721 C726 1.390 . S
C722 C716 1.465 . S
C722 C721 1.396 . S
C722 C723 1.399 . S
C723 H709 0.929 . S
C723 C722 1.399 . S
C723 C724 1.385 . S
C724 H710 0.931 . S
C724 C723 1.385 . S
C724 C725 1.389 . S
C725 C724 1.389 . S
C725 C726 1.387 . S
C726 H711 0.930 . S
C726 C721 1.390 . S
C726 C725 1.387 . S
H727 C739 0.930 . S
H728 C741 0.930 . S
H729 C742 0.930 . S
H730 C746 0.959 . S
H731 C746 0.959 . S
H732 C746 0.961 . S
H733 C747 0.960 . S
H734 C747 0.961 . S
H735 C747 0.959 . S
H736 C750 0.929 . S
H737 C751 0.931 . S
H738 C753 0.930 . S
C739 H727 0.930 . S
C739 C740 1.399 . S
C739 C744 1.399 . S
C740 C739 1.399 . S
C740 C741 1.376 . S
C741 H728 0.930 . S
C741 C740 1.376 . S
C741 C742 1.388 . S
C742 H729 0.930 . S
C742 C741 1.388 . S
C742 C743 1.390 . S
C743 C742 1.390 . S
C743 C744 1.394 . S
C743 C749 1.465 . S
C744 C739 1.399 . S
C744 C743 1.394 . S
C744 C745 1.516 . S
C745 C744 1.516 . S
C745 C746 1.502 . S
C745 C747 1.561 . S
C745 C748 1.526 . S
C746 H730 0.959 . S
C746 H731 0.959 . S
C746 H732 0.961 . S
C746 C745 1.502 . S
C747 H733 0.960 . S
C747 H734 0.961 . S
C747 H735 0.959 . S
C747 C745 1.561 . S
C748 C745 1.526 . S
C748 C749 1.396 . S
C748 C753 1.390 . S
C749 C743 1.465 . S
C749 C748 1.396 . S
C749 C750 1.399 . S
C750 H736 0.929 . S
C750 C749 1.399 . S
C750 C751 1.385 . S
C751 H737 0.931 . S
C751 C750 1.385 . S
C751 C752 1.389 . S
C752 C751 1.389 . S
C752 C753 1.387 . S
C753 H738 0.930 . S
C753 C748 1.390 . S
C753 C752 1.387 . S
H754 C766 0.930 . S
H755 C768 0.930 . S
H756 C769 0.930 . S
H757 C773 0.959 . S
H758 C773 0.959 . S
H759 C773 0.961 . S
H760 C774 0.960 . S
H761 C774 0.961 . S
H762 C774 0.959 . S
H763 C777 0.929 . S
H764 C778 0.931 . S
H765 C780 0.930 . S
C766 H754 0.930 . S
C766 C767 1.399 . S
C766 C771 1.399 . S
C767 C766 1.399 . S
C767 C768 1.376 . S
C768 H755 0.930 . S
C768 C767 1.376 . S
C768 C769 1.388 . S
C769 H756 0.930 . S
C769 C768 1.388 . S
C769 C770 1.390 . S
C770 C769 1.390 . S
C770 C771 1.394 . S
C770 C776 1.465 . S
C771 C766 1.399 . S
C771 C770 1.394 . S
C771 C772 1.516 . S
C772 C771 1.516 . S
C772 C773 1.502 . S
C772 C774 1.561 . S
C772 C775 1.526 . S
C773 H757 0.959 . S
C773 H758 0.959 . S
C773 H759 0.961 . S
C773 C772 1.502 . S
C774 H760 0.960 . S
C774 H761 0.961 . S
C774 H762 0.959 . S
C774 C772 1.561 . S
C775 C772 1.526 . S
C775 C776 1.396 . S
C775 C780 1.390 . S
C776 C770 1.465 . S
C776 C775 1.396 . S
C776 C777 1.399 . S
C777 H763 0.929 . S
C777 C776 1.399 . S
C777 C778 1.385 . S
C778 H764 0.931 . S
C778 C777 1.385 . S
C778 C779 1.389 . S
C779 C778 1.389 . S
C779 C780 1.387 . S
C780 H765 0.930 . S
C780 C775 1.390 . S
C780 C779 1.387 . S
H781 C793 0.930 . S
H782 C795 0.930 . S
H783 C796 0.930 . S
H784 C800 0.959 . S
H785 C800 0.959 . S
H786 C800 0.961 1_556 S
H787 C801 0.967 . S
H788 C801 0.961 . S
H789 C801 0.959 . S
H790 C804 0.929 . S
H791 C805 0.931 . S
H792 C807 0.930 . S
C793 H781 0.930 . S
C793 C794 1.399 . S
C793 C798 1.399 . S
C794 C793 1.399 . S
C794 C795 1.376 1_455 S
C795 H782 0.930 . S
C795 C794 1.376 1_655 S
C795 C796 1.388 . S
C796 H783 0.930 . S
C796 C795 1.388 . S
C796 C797 1.390 . S
C797 C796 1.390 . S
C797 C798 1.394 1_655 S
C797 C803 1.465 1_556 S
C798 C793 1.399 . S
C798 C797 1.394 1_455 S
C798 C799 1.516 1_556 S
C799 C798 1.516 1_554 S
C799 C800 1.502 . S
C799 C801 1.561 1_455 S
C799 C802 1.526 . S
C800 H784 0.959 . S
C800 H785 0.959 . S
C800 H786 0.961 1_554 S
C800 C799 1.502 . S
C801 H787 0.967 . S
C801 H788 0.961 . S
C801 H789 0.959 . S
C801 C799 1.561 1_655 S
C802 C799 1.526 . S
C802 C803 1.396 1_455 S
C802 C807 1.390 . S
C803 C797 1.465 1_554 S
C803 C802 1.396 1_655 S
C803 C804 1.399 . S
C804 H790 0.929 . S
C804 C803 1.399 . S
C804 C805 1.385 . S
C805 H791 0.931 . S
C805 C804 1.385 . S
C805 C806 1.389 . S
C806 C805 1.389 . S
C806 C807 1.387 1_655 S
C807 H792 0.930 . S
C807 C802 1.390 . S
C807 C806 1.387 1_455 S
C173 C18 1.510 . S
C185 C64 1.429 . S
C200 C4 1.036 . S
C212 C24 0.984 . S
C227 C38 1.482 . S
C239 C44 1.471 . S
C254 C58 2.006 . S
C266 C78 2.013 . S
C281 C19 1.501 . S
C293 C102 1.482 . S
C308 C2 0.955 . S
C320 C82 1.077 . S
C335 C99 1.477 . S
C347 C42 1.396 . S
C362 C119 2.016 . S
C374 C59 2.002 . S
C389 C138 1.475 . S
C401 C104 1.454 . S
C416 C84 1.069 . S
C428 C124 0.946 . S
C443 C144 1.456 . S
C455 C98 1.513 . S
C470 C118 2.010 . S
C482 C158 2.003 . S
C497 C62 1.449 . S
C509 C139 1.507 . S
C524 C122 0.931 . S
C536 C22 1.059 . S
C551 C39 1.476 . S
C563 C142 1.394 . S
C578 C79 2.015 . S
C590 C159 1.996 . S
C605 C12 1.443 1_645 S
C617 C9 1.476 1_565 S
C632 C32 1.421 . S
C644 C29 1.479 1_554 S
C659 C52 1.503 . S
C671 C49 1.516 . S
C686 C69 1.510 1_556 S
C698 C72 1.522 . S
C713 C92 1.485 1_556 S
C725 C89 1.433 . S
C740 C109 1.506 . S
C752 C112 1.513 1_554 S
C767 C129 1.420 . S
C779 C132 1.481 . S
C794 C149 1.533 . S
C806 C152 1.492 . S
