# Generated by pormake.
# Topology sma, (6)-cn, num edge types: 1
# Building blocks:
#     Node 0, Type 0, BuildingBlock: BETDAH_clean_sbu_0, # of connection points: 6
#     Node 1, Type 0, BuildingBlock: BETDAH_clean_sbu_0, # of connection points: 6
#     Node 2, Type 0, BuildingBlock: BETDAH_clean_sbu_0, # of connection points: 6
#     Edge 3, Type (0, 0), BuildingBlock: TEMPAE_clean_linker_10, # of connection points: 2
#     Edge 4, Type (0, 0), BuildingBlock: TEMPAE_clean_linker_10, # of connection points: 2
#     Edge 5, Type (0, 0), BuildingBlock: TEMPAE_clean_linker_10, # of connection points: 2
#     Edge 6, Type (0, 0), BuildingBlock: TEMPAE_clean_linker_10, # of connection points: 2
#     Edge 7, Type (0, 0), BuildingBlock: TEMPAE_clean_linker_10, # of connection points: 2
#     Edge 8, Type (0, 0), BuildingBlock: TEMPAE_clean_linker_10, # of connection points: 2
#     Edge 9, Type (0, 0), BuildingBlock: TEMPAE_clean_linker_10, # of connection points: 2
#     Edge 10, Type (0, 0), BuildingBlock: TEMPAE_clean_linker_10, # of connection points: 2
#     Edge 11, Type (0, 0), BuildingBlock: TEMPAE_clean_linker_10, # of connection points: 2
# Relax obj value: 0.130
# Max RMSD: 0.261
# Mean RMSD: 0.204
data_MOF--net-sma--node1-BETDAH_clean_sbu_0--edge1-TEMPAE_clean_linker_10
_symmetry_space_group_name_H-M    P1
_symmetry_Int_Tables_number       1
_symmetry_cell_setting            triclinic
loop_
_symmetry_equiv_pos_as_xyz
'x, y, z'
_cell_length_a     41.069663
_cell_length_b     47.89773
_cell_length_c     13.994406
_cell_angle_alpha  93.882868
_cell_angle_beta   90.076638
_cell_angle_gamma 139.89036
loop_
_atom_site_label
_atom_site_type_symbol
_atom_site_fract_x
_atom_site_fract_y
_atom_site_fract_z
_atom_type_partial_charge
Ho0 Ho 0.12949 0.65068 0.20047 0.0
Ho1 Ho 1.06615 0.66281 0.20654 0.0
C2 C 0.18555 0.74761 0.2215 0.0
C3 C 0.18877 0.64927 0.15469 0.0
C4 C 0.22282 0.64847 0.12834 0.0
C5 C 0.25089 0.66816 0.04801 0.0
C6 C 0.28375 0.66807 0.0235 0.0
C7 C 0.28882 0.64777 0.07805 0.0
C8 C 0.26087 0.62835 0.15914 0.0
C9 C 0.22843 0.62893 0.18428 0.0
C10 C 0.11103 0.6577 0.37741 0.0
C11 C 1.01037 0.56653 0.21871 0.0
C12 C 1.01034 0.67073 0.21919 0.0
C13 C 0.97011 0.66029 0.1662 0.0
C14 C 0.93327 0.64976 0.21834 0.0
C15 C 0.90077 0.64804 0.17619 0.0
C16 C 0.90454 0.65734 0.08059 0.0
C17 C 0.9395 0.66528 0.02633 0.0
C18 C 0.97196 0.66677 0.06863 0.0
C19 C 0.08227 0.64909 0.03071 0.0
O20 O 0.18663 0.72237 0.18302 0.0
O21 O 0.14387 0.73049 0.25624 0.0
O22 O 0.16782 0.63743 0.23631 0.0
O23 O 0.1764 0.66098 0.09716 0.0
O24 O 0.11897 0.6369 0.35238 0.0
O25 O 0.11916 0.6783 0.31064 0.0
O26 O 1.01022 0.59365 0.2446 0.0
O27 O 1.05028 0.58047 0.18212 0.0
O28 O 1.05464 0.6989 0.18455 0.0
O29 O 0.99851 0.63946 0.25489 0.0
O30 O 0.08144 0.6751 0.05211 0.0
O31 O 1.07191 0.63021 0.10228 0.0
H32 H 0.24783 0.68401 0.00438 0.0
H33 H 0.30551 0.68432 -0.03792 0.0
H34 H 0.26327 0.61201 0.20244 0.0
H35 H 0.20742 0.6137 0.24702 0.0
H36 H 0.93104 0.64468 0.29347 0.0
H37 H 0.87344 0.64045 0.21979 0.0
H38 H 0.94364 0.67251 0.95259 0.0
H39 H 0.99995 0.67492 0.02619 0.0
Ho40 Ho 0.63809 0.15449 0.38732 0.0
Ho41 Ho 0.58039 0.16964 0.33301 0.0
C42 C 0.51402 0.07188 0.33861 0.0
C43 C 0.6694 0.13334 0.48451 0.0
C44 C 0.65511 0.09485 0.49884 0.0
C45 C 0.64918 0.08333 0.59233 0.0
C46 C 0.63967 1.04926 0.60951 0.0
C47 C 0.63574 1.02585 0.53334 0.0
C48 C 0.63979 1.03646 0.43916 0.0
C49 C 0.6495 0.07067 0.42208 0.0
C50 C 0.62443 0.14979 0.19737 0.0
C51 C 0.70255 0.24886 0.33523 0.0
C52 C 0.54893 0.1975 0.28377 0.0
C53 C 0.55518 0.22966 0.33391 0.0
C54 C 0.55347 0.2524 0.28118 0.0
C55 C 0.55832 0.28228 0.32842 0.0
C56 C 0.56518 0.29012 0.42944 0.0
C57 C 0.56821 0.26807 0.48197 0.0
C58 C 0.56332 0.23817 0.43466 0.0
C59 C 0.59717 0.17275 0.52273 0.0
O60 O 0.55426 0.0875 0.38631 0.0
O61 O 0.51773 0.09769 0.29419 0.0
O62 O 0.68581 0.14939 0.40182 0.0
O63 O 0.63928 0.13297 0.51673 0.0
O64 O 0.66085 0.15946 0.23841 0.0
O65 O 0.59318 0.13719 0.25679 0.0
O66 O 0.65931 0.22963 0.29535 0.0
O67 O 0.70387 0.22802 0.38961 0.0
O68 O 0.52087 0.16146 0.32358 0.0
O69 O 0.5902 0.21302 0.25467 0.0
O70 O 0.55642 0.15673 0.48431 0.0
O71 O 0.62756 0.18843 0.45957 0.0
H72 H 0.65322 0.10148 0.65265 0.0
H73 H 0.63734 1.04245 0.68305 0.0
H74 H 0.63601 1.01863 0.3785 0.0
H75 H 0.65339 0.07856 0.34905 0.0
H76 H 0.54799 0.24678 0.20344 0.0
H77 H 0.55655 0.29921 0.28585 0.0
H78 H 0.57302 0.27306 0.55977 0.0
H79 H 0.56531 0.22132 0.47694 0.0
Ho80 Ho 0.6348 0.70021 0.83193 0.0
Ho81 Ho 0.55767 0.60297 0.86043 0.0
C82 C 0.5221 0.64339 0.88438 0.0
C83 C 0.68508 0.77085 0.75634 0.0
C84 C 0.67191 0.79152 0.7357 0.0
C85 C 0.6553 0.78735 0.64189 0.0
C86 C 0.64308 0.80696 0.62233 0.0
C87 C 0.64738 0.83133 0.69609 0.0
C88 C 0.66236 0.83423 0.79028 0.0
C89 C 0.67461 0.81474 0.8098 0.0
C90 C 0.62117 0.68438 0.01669 0.0
C91 C 0.67423 0.66235 0.86082 0.0
C92 C 0.50177 0.52379 0.87919 0.0
C93 C 0.51085 0.50083 0.83879 0.0
C94 C 0.52241 0.48684 0.90007 0.0
C95 C 0.53602 0.46917 0.86267 0.0
C96 C 0.53859 0.46527 0.76306 0.0
C97 C 0.52739 0.47958 0.70198 0.0
C98 C 0.51372 0.49711 0.73922 0.0
C99 C 0.58185 0.62653 0.68077 0.0
O100 O 0.56243 0.67679 0.84091 0.0
O101 O 0.51391 0.61221 0.90831 0.0
O102 O 0.69267 0.77041 0.84691 0.0
O103 O 0.65886 0.73398 0.70503 0.0
O104 O 0.63376 0.71633 -0.01496 0.0
O105 O 0.62067 0.66501 0.95015 0.0
O106 O 0.62978 0.6286 0.89286 0.0
O107 O 0.68487 0.69363 0.82493 0.0
O108 O 0.48926 0.53421 0.81699 0.0
O109 O 0.53518 0.55536 0.9478 0.0
O110 O 0.57891 0.6003 0.7141 0.0
O111 O 0.57258 0.63895 0.74401 0.0
H112 H 0.65227 0.7693 0.5833 0.0
H113 H 0.63186 0.8042 0.5489 0.0
H114 H 0.66507 0.85196 0.84916 0.0
H115 H 0.68647 0.81814 0.88317 0.0
H116 H 0.52171 0.49022 -0.02287 0.0
H117 H 0.54503 0.45894 0.91186 0.0
H118 H 0.52838 0.47661 0.62491 0.0
H119 H 0.50595 0.50817 0.6896 0.0
C120 C 0.3504 0.64989 0.11944 0.0
C121 C 0.32267 0.64649 0.04957 0.0
C122 C 0.38198 0.6483 0.09322 0.0
C123 C 0.38676 0.64402 -0.00532 0.0
C124 C 0.35947 0.64115 0.92377 0.0
C125 C 0.32729 0.64181 0.95204 0.0
C126 C 0.41045 0.65147 0.17109 0.0
C127 C 0.36369 0.6369 0.81784 0.0
C128 C 0.5044 0.68206 0.9251 0.0
C129 C 0.48666 0.64274 0.91104 0.0
C130 C 0.4724 0.68293 0.953 0.0
C131 C 0.42109 0.64342 -0.03423 0.0
C132 C 0.40266 0.60348 0.9504 0.0
C133 C 0.43586 0.60363 0.92426 0.0
C134 C 0.49358 0.7262 -0.03106 0.0
C135 C 0.34784 0.56066 0.96124 0.0
H136 H 0.34796 0.65432 0.19493 0.0
H137 H 0.30529 0.63818 0.89726 0.0
H138 H 0.40081 0.62253 0.16161 0.0
H139 H 0.45188 0.68062 0.16576 0.0
H140 H 0.40168 0.65369 0.24427 0.0
H141 H 0.34626 0.64175 0.7729 0.0
H142 H 0.40396 0.6609 0.80226 0.0
H143 H 0.34422 0.60392 0.79602 0.0
H144 H 0.54377 0.71248 0.91598 0.0
H145 H 0.42192 0.57314 0.91297 0.0
H146 H 0.48945 0.73162 0.04402 0.0
H147 H 0.47187 0.72603 0.921 0.0
H148 H 0.53428 0.75395 0.95521 0.0
H149 H 0.3381 0.56093 0.03494 0.0
H150 H 0.33944 0.53245 0.94723 0.0
H151 H 0.32289 0.55603 0.91059 0.0
C152 C 0.74534 0.31531 0.25931 0.0
C153 C 0.74943 0.29514 0.31757 0.0
C154 C 0.78775 0.35902 0.24218 0.0
C155 C 0.83629 0.38374 0.28343 0.0
C156 C 0.84102 0.36368 0.34175 0.0
C157 C 0.79757 0.3196 0.35806 0.0
C158 C 0.77986 0.37785 0.17781 0.0
C159 C 0.89189 0.38908 0.3886 0.0
C160 C 0.95413 0.48759 0.17635 0.0
C161 C 0.96525 0.51966 0.23346 0.0
C162 C 0.91192 0.44323 0.19071 0.0
C163 C 0.88161 0.43077 0.26736 0.0
C164 C 0.89285 0.46311 0.32549 0.0
C165 C 0.93364 0.50689 0.30632 0.0
C166 C 0.89907 0.40961 0.12238 0.0
C167 C 0.86125 0.45129 0.4072 0.0
H168 H 0.70861 0.297 0.22656 0.0
H169 H 0.80128 0.30449 0.40304 0.0
H170 H 0.80762 0.41328 0.19652 0.0
H171 H 0.7841 0.37273 0.10252 0.0
H172 H 0.74111 0.36124 0.1808 0.0
H173 H 0.88969 0.36849 0.42868 0.0
H174 H 0.91949 0.40358 0.33361 0.0
H175 H 0.90683 0.41637 0.43916 0.0
H176 H 0.97779 0.49708 0.11882 0.0
H177 H 0.94144 0.53129 0.35013 0.0
H178 H 0.85943 0.38516 0.09045 0.0
H179 H 0.90165 0.39198 0.16191 0.0
H180 H 0.92468 0.42435 0.06327 0.0
H181 H 0.82126 0.42803 0.37934 0.0
H182 H 0.87511 0.48022 0.44633 0.0
H183 H 0.86158 0.43486 0.4587 0.0
C184 C 0.60122 0.96507 0.62563 0.0
C185 C 0.63053 0.99239 0.55282 0.0
C186 C 0.59936 0.93584 0.64917 0.0
C187 C 0.62729 0.93368 0.59836 0.0
C188 C 0.65562 0.96013 0.52287 0.0
C189 C 0.65713 0.98927 0.50148 0.0
C190 C 0.56913 0.90865 0.73098 0.0
C191 C 0.68567 0.95865 0.46642 0.0
C192 C 0.6733 0.89875 0.71817 0.0
C193 C 0.6397 0.85611 0.67434 0.0
C194 C 0.66874 0.92379 0.69598 0.0
C195 C 0.62978 0.90599 0.62762 0.0
C196 C 0.59499 0.86268 0.58431 0.0
C197 C 0.60036 0.83821 0.60812 0.0
C198 C 0.70651 0.96976 0.74416 0.0
C199 C 0.55242 0.84241 0.51237 0.0
H200 H 0.57999 0.96677 0.66503 0.0
H201 H 0.68065 1.01069 0.44637 0.0
H202 H 0.54838 0.87497 0.71372 0.0
H203 H 0.59541 0.92334 0.79576 0.0
H204 H 0.54145 0.90709 0.74899 0.0
H205 H 0.70416 0.98013 0.40758 0.0
H206 H 0.71545 0.96895 0.51501 0.0
H207 H 0.6605 0.92481 0.43474 0.0
H208 H 0.70429 0.91316 0.76818 0.0
H209 H 0.57377 0.80508 0.57492 0.0
H210 H 0.68632 0.97389 0.78106 0.0
H211 H 0.72824 0.9932 0.68935 0.0
H212 H 0.73371 0.9783 0.79768 0.0
H213 H 0.52777 0.84213 0.54626 0.0
H214 H 0.52876 0.8085 0.48444 0.0
H215 H 0.56808 0.86221 0.45091 0.0
C216 C 0.69478 0.62818 0.91124 0.0
C217 C 0.71207 0.66465 0.87785 0.0
C218 C 0.72798 0.6289 0.93986 0.0
C219 C 0.78054 0.66685 0.93332 0.0
C220 C 0.79852 0.70335 0.89601 0.0
C221 C 0.76404 0.70198 0.86915 0.0
C222 C 0.70609 0.58938 -0.01797 0.0
C223 C 0.85424 0.74402 0.88611 0.0
C224 C 0.86459 0.67874 0.10012 0.0
C225 C 0.87422 0.66114 0.0405 0.0
C226 C 0.83542 0.68188 0.06564 0.0
C227 C 0.81613 0.66812 -0.03193 0.0
C228 C 0.82626 0.65101 0.9067 0.0
C229 C 0.85503 0.64764 0.94353 0.0
C230 C 0.82363 0.69838 0.13492 0.0
C231 C 0.80445 0.63423 0.80327 0.0
H232 H 0.65471 0.59866 0.918 0.0
H233 H 0.77781 0.73022 0.84348 0.0
H234 H 0.72798 0.58441 -0.03247 0.0
H235 H 0.70664 0.59388 0.06112 0.0
H236 H 0.66603 0.5592 0.95375 0.0
H237 H 0.86223 0.76928 0.85445 0.0
H238 H 0.87567 0.75783 0.95763 0.0
H239 H 0.86851 0.73583 0.84002 0.0
H240 H 0.87988 0.69019 0.17451 0.0
H241 H 0.86132 0.63335 0.89676 0.0
H242 H 0.78237 0.67153 0.14425 0.0
H243 H 0.83323 0.72481 0.10587 0.0
H244 H 0.84452 0.71081 0.20668 0.0
H245 H 0.76254 0.60473 0.80071 0.0
H246 H 0.81942 0.62563 0.76227 0.0
H247 H 0.81291 0.65898 0.76717 0.0
C248 C 0.46188 0.99496 0.35792 0.0
C249 C 0.46538 1.02426 0.32598 0.0
C250 C 0.4164 0.94972 0.34225 0.0
C251 C 0.37347 0.93342 0.29321 0.0
C252 C 0.37657 0.96285 0.26216 0.0
C253 C 0.42238 1.00785 0.27902 0.0
C254 C 0.41467 0.91943 0.37657 0.0
C255 C 0.33154 0.94679 0.21034 0.0
C256 C 0.27056 0.81684 0.17288 0.0
C257 C 0.23316 0.79513 0.23808 0.0
C258 C 0.31621 0.86202 0.1892 0.0
C259 C 0.32518 0.88559 0.27432 0.0
C260 C 0.28764 0.86357 0.34084 0.0
C261 C 0.24179 0.81871 0.32118 0.0
C262 C 0.35474 0.88451 0.11533 0.0
C263 C 0.29626 0.88716 0.43374 0.0
H264 H 0.49487 1.00728 0.39411 0.0
H265 H 0.4245 1.03017 0.25463 0.0
H266 H 0.3803 0.89395 0.41522 0.0
H267 H 0.4127 0.90267 0.31367 0.0
H268 H 0.44865 0.93708 0.42488 0.0
H269 H 0.34037 0.97391 0.18965 0.0
H270 H 0.31855 0.92515 0.14449 0.0
H271 H 0.29951 0.92723 0.25682 0.0
H272 H 0.26377 0.79858 0.10842 0.0
H273 H 0.21315 0.8018 0.37234 0.0
H274 H 0.39005 0.89832 0.14718 0.0
H275 H 0.36476 0.91204 0.09298 0.0
H276 H 0.34066 0.86201 0.05039 0.0
H277 H 0.32857 0.89995 0.47856 0.0
H278 H 0.26238 0.86566 0.47575 0.0
H279 H 0.30638 0.91549 0.41911 0.0
C280 C 0.5274 0.40585 0.75529 0.0
C281 C 0.55024 0.44431 0.72199 0.0
C282 C 0.53355 0.383 0.71128 0.0
C283 C 0.56376 0.39917 0.6324 0.0
C284 C 0.58885 0.43905 0.60107 0.0
C285 C 0.58157 0.46101 0.64583 0.0
C286 C 0.50602 0.34061 0.74704 0.0
C287 C 0.62211 0.45782 0.51833 0.0
C288 C 0.60222 0.34977 0.55803 0.0
C289 C 0.56664 0.31952 0.47986 0.0
C290 C 0.6026 0.37669 0.60716 0.0
C291 C 0.56598 0.3727 0.57854 0.0
C292 C 0.53022 0.34236 0.49944 0.0
C293 C 0.53116 0.31638 0.45096 0.0
C294 C 0.64201 0.40925 0.68982 0.0
C295 C 0.49011 0.3366 0.46709 0.0
H296 H 0.50284 0.39252 0.81343 0.0
H297 H 0.60001 0.49108 0.62051 0.0
H298 H 0.48004 0.31369 0.68807 0.0
H299 H 0.53363 0.34259 0.77012 0.0
H300 H 0.48358 0.33232 0.80846 0.0
H301 H 0.64368 0.49144 0.51017 0.0
H302 H 0.64934 0.4583 0.52846 0.0
H303 H 0.59831 0.43695 0.45046 0.0
H304 H 0.63003 0.35262 0.58031 0.0
H305 H 0.5031 0.29266 0.39165 0.0
H306 H 0.62329 0.40057 0.75759 0.0
H307 H 0.6625 0.44226 0.67858 0.0
H308 H 0.67008 0.41059 0.69875 0.0
H309 H 0.46623 0.32671 0.52686 0.0
H310 H 0.46517 0.31165 0.40421 0.0
H311 H 0.50821 0.36794 0.44758 0.0
C312 C 0.09618 0.63038 0.8812 0.0
C313 C 1.06481 0.62674 0.93526 0.0
C314 C 0.08646 0.62113 0.7815 0.0
C315 C 1.04598 0.60995 0.73821 0.0
C316 C 1.00964 0.59903 0.79438 0.0
C317 C 1.01945 0.60734 0.89374 0.0
C318 C 0.12328 0.62905 0.72246 0.0
C319 C 0.96441 0.58433 0.74995 0.0
C320 C 0.10138 0.67744 0.53254 0.0
C321 C 0.0816 0.64592 0.45789 0.0
C322 C 0.08554 0.6651 0.6248 0.0
C323 C 1.04971 0.62057 0.64013 0.0
C324 C 1.02527 0.58841 0.56201 0.0
C325 C 1.04154 0.60175 0.47135 0.0
C326 C 0.11187 0.70026 0.70733 0.0
C327 C 0.98582 0.54048 0.57369 0.0
H328 H 0.13033 0.644 0.91526 0.0
H329 H 0.99438 0.60288 0.93825 0.0
H330 H 0.10392 0.60682 0.65464 0.0
H331 H 0.15323 0.66308 0.70359 0.0
H332 H 0.142 0.62454 0.76332 0.0
H333 H 0.93854 0.57511 0.8044 0.0
H334 H 0.97746 0.61096 0.71266 0.0
H335 H 0.94276 0.5559 0.69577 0.0
H336 H 0.1328 0.71169 0.52147 0.0
H337 H 1.02722 0.5778 0.41317 0.0
H338 H 0.143 0.70852 0.74256 0.0
H339 H 0.08526 0.68903 0.7622 0.0
H340 H 0.12872 0.73048 0.6823 0.0
H341 H 0.9909 0.53462 0.64444 0.0
H342 H 0.98616 0.52348 0.51637 0.0
H343 H 0.94781 0.52527 0.56701 0.0
C344 C 0.60089 0.1585 0.05081 0.0
C345 C 0.61317 0.14174 0.09338 0.0
C346 C 0.59568 0.15572 0.95082 0.0
C347 C 0.6009 0.13404 0.89266 0.0
C348 C 0.60949 0.11404 0.93588 0.0
C349 C 0.61686 0.11915 0.03642 0.0
C350 C 0.58707 0.17792 0.9075 0.0
C351 C 0.6127 0.0887 0.87702 0.0
C352 C 0.55392 0.11993 0.64416 0.0
C353 C 0.59888 0.15915 0.61133 0.0
C354 C 0.55468 0.10767 0.73134 0.0
C355 C 0.6012 0.1361 0.78761 0.0
C356 C 0.64716 0.17312 0.7494 0.0
C357 C 0.64542 0.18453 0.66167 0.0
C358 C 0.50537 0.06615 0.76665 0.0
C359 C 0.6978 0.20275 0.80488 0.0
H360 H 0.59798 0.17579 0.09578 0.0
H361 H 0.62556 0.10554 0.07045 0.0
H362 H 0.61925 0.20379 0.86502 0.0
H363 H 0.55211 0.15411 0.85786 0.0
H364 H 0.58344 0.19298 -0.03708 0.0
H365 H 0.60082 0.06317 0.91746 0.0
H366 H 0.58888 0.073 0.80793 0.0
H367 H 0.65255 0.11115 0.8606 0.0
H368 H 0.51804 0.09925 0.60272 0.0
H369 H 0.68027 0.21403 0.63406 0.0
H370 H 0.49234 0.07399 0.81878 0.0
H371 H 0.51045 1.04986 0.80415 0.0
H372 H 0.47529 1.04307 0.70669 0.0
H373 H 0.70303 0.22301 0.86343 0.0
H374 H 0.72967 0.22474 0.75828 0.0
H375 H 0.69949 0.18352 0.83835 0.0
C376 C 0.58806 0.65954 0.54355 0.0
C377 C 0.6045 0.64712 0.59245 0.0
C378 C 0.6058 0.67602 0.45491 0.0
C379 C 0.64131 0.68059 0.41563 0.0
C380 C 0.66262 0.67312 0.47056 0.0
C381 C 0.64283 0.65517 0.55782 0.0
C382 C 0.58401 0.68577 0.4006 0.0
C383 C 0.70481 0.68257 0.43593 0.0
C384 C 0.60521 0.64558 0.15178 0.0
C385 C 0.63091 0.68459 0.11735 0.0
C386 C 0.61225 0.64455 0.2486 0.0
C387 C 0.64674 0.68379 0.31133 0.0
C388 C 0.67707 0.72399 0.27409 0.0
C389 C 0.66787 0.72383 0.17751 0.0
C390 C 0.57991 0.60098 0.28493 0.0
C391 C 0.71758 0.767 0.33605 0.0
H392 H 0.55956 0.6545 0.57269 0.0
H393 H 0.65713 0.64734 0.59858 0.0
H394 H 0.61499 0.72023 0.38491 0.0
H395 H 0.56449 0.66496 0.33087 0.0
H396 H 0.55657 0.68025 0.4415 0.0
H397 H 0.72768 0.68889 0.49715 0.0
H398 H 0.68856 0.65408 0.38864 0.0
H399 H 0.73025 0.71117 0.39404 0.0
H400 H 0.57786 0.61558 0.10386 0.0
H401 H 0.68961 0.7544 0.14931 0.0
H402 H 0.55482 0.59413 0.33769 0.0
H403 H 0.60426 0.60157 0.32225 0.0
H404 H 0.55591 0.57381 0.22608 0.0
H405 H 0.70337 0.77899 0.3546 0.0
H406 H 0.75158 0.79176 0.29572 0.0
H407 H 0.72917 0.76452 0.40347 0.0
loop_
_geom_bond_atom_site_label_1
_geom_bond_atom_site_label_2
_geom_bond_distance
_geom_bond_site_symmetry_2
_ccdc_geom_bond_type
Ho0 C3 2.811 . S
Ho0 O20 2.322 . S
Ho0 O22 2.378 . S
Ho0 O23 2.524 . S
Ho0 O24 2.381 . S
Ho0 O25 2.669 . S
Ho0 O27 2.346 1_455 S
Ho0 O31 2.305 . S
Ho1 C12 2.811 . S
Ho1 O21 2.346 1_655 S
Ho1 O25 2.305 1_655 S
Ho1 O26 2.322 . S
Ho1 O28 2.378 . S
Ho1 O29 2.524 . S
Ho1 O30 2.381 1_554 S
Ho1 O31 2.669 1_655 S
C2 O20 1.259 . S
C2 O21 1.268 . S
C3 Ho0 2.811 . S
C3 C4 1.488 . S
C3 O22 1.215 . S
C3 O23 1.289 . S
C4 C3 1.488 . S
C4 C5 1.348 . S
C4 C9 1.413 . S
C5 C4 1.348 . S
C5 C6 1.442 . S
C5 H32 0.930 . S
C6 C5 1.442 . S
C6 C7 1.381 . S
C6 H33 0.935 . S
C7 C6 1.381 . S
C7 C8 1.321 . S
C8 C7 1.321 . S
C8 C9 1.403 . S
C8 H34 0.934 . S
C9 C4 1.413 . S
C9 C8 1.403 . S
C9 H35 0.930 . S
C10 O24 1.275 . S
C10 O25 1.256 . S
C11 O26 1.259 . S
C11 O27 1.268 . S
C12 Ho1 2.811 . S
C12 C13 1.488 . S
C12 O28 1.215 . S
C12 O29 1.289 . S
C13 C12 1.488 . S
C13 C14 1.348 . S
C13 C18 1.413 . S
C14 C13 1.348 . S
C14 C15 1.442 . S
C14 H36 0.930 . S
C15 C14 1.442 . S
C15 C16 1.381 . S
C15 H37 0.931 . S
C16 C15 1.381 . S
C16 C17 1.321 . S
C17 C16 1.321 . S
C17 C18 1.403 . S
C17 H38 0.934 . S
C18 C13 1.413 . S
C18 C17 1.403 . S
C18 H39 0.930 . S
C19 O30 1.275 1_455 S
C19 O31 1.256 1_556 S
O20 Ho0 2.322 . S
O20 C2 1.259 . S
O21 Ho1 2.346 1_455 S
O21 C2 1.268 . S
O22 Ho0 2.378 . S
O22 C3 1.215 . S
O23 Ho0 2.524 . S
O23 C3 1.289 . S
O24 Ho0 2.381 . S
O24 C10 1.275 . S
O25 Ho0 2.669 . S
O25 Ho1 2.305 1_455 S
O25 C10 1.256 . S
O26 Ho1 2.322 . S
O26 C11 1.259 . S
O27 Ho0 2.346 1_655 S
O27 C11 1.268 . S
O28 Ho1 2.378 . S
O28 C12 1.215 . S
O29 Ho1 2.524 . S
O29 C12 1.289 . S
O30 Ho1 2.381 1_556 S
O30 C19 1.275 1_655 S
O31 Ho0 2.305 . S
O31 Ho1 2.669 1_455 S
O31 C19 1.256 1_554 S
H32 C5 0.930 . S
H33 C6 0.935 . S
H34 C8 0.934 . S
H35 C9 0.930 . S
H36 C14 0.930 . S
H37 C15 0.931 . S
H38 C17 0.934 . S
H39 C18 0.930 . S
Ho40 C43 2.811 . S
Ho40 O60 2.322 . S
Ho40 O62 2.378 . S
Ho40 O63 2.524 . S
Ho40 O64 2.381 . S
Ho40 O65 2.669 . S
Ho40 O67 2.346 . S
Ho40 O71 2.305 . S
Ho41 C52 2.811 . S
Ho41 O61 2.346 . S
Ho41 O65 2.305 . S
Ho41 O66 2.322 . S
Ho41 O68 2.378 . S
Ho41 O69 2.524 . S
Ho41 O70 2.381 . S
Ho41 O71 2.669 . S
C42 O60 1.259 . S
C42 O61 1.268 . S
C43 Ho40 2.811 . S
C43 C44 1.488 1_545 S
C43 O62 1.215 . S
C43 O63 1.289 . S
C44 C43 1.488 1_565 S
C44 C45 1.348 . S
C44 C49 1.413 . S
C45 C44 1.348 . S
C45 C46 1.442 . S
C45 H72 0.930 . S
C46 C45 1.442 . S
C46 C47 1.381 . S
C46 H73 0.931 . S
C47 C46 1.381 . S
C47 C48 1.321 . S
C48 C47 1.321 . S
C48 C49 1.403 . S
C48 H74 0.934 . S
C49 C44 1.413 . S
C49 C48 1.403 . S
C49 H75 0.930 . S
C50 O64 1.275 . S
C50 O65 1.256 . S
C51 O66 1.259 . S
C51 O67 1.268 . S
C52 Ho41 2.811 . S
C52 C53 1.488 . S
C52 O68 1.215 . S
C52 O69 1.289 . S
C53 C52 1.488 . S
C53 C54 1.348 . S
C53 C58 1.413 . S
C54 C53 1.348 . S
C54 C55 1.442 . S
C54 H76 0.930 . S
C55 C54 1.442 . S
C55 C56 1.381 . S
C55 H77 0.931 . S
C56 C55 1.381 . S
C56 C57 1.321 . S
C57 C56 1.321 . S
C57 C58 1.403 . S
C57 H78 0.934 . S
C58 C53 1.413 . S
C58 C57 1.403 . S
C58 H79 0.930 . S
C59 O70 1.275 . S
C59 O71 1.256 . S
O60 Ho40 2.322 . S
O60 C42 1.259 . S
O61 Ho41 2.346 . S
O61 C42 1.268 . S
O62 Ho40 2.378 . S
O62 C43 1.215 . S
O63 Ho40 2.524 . S
O63 C43 1.289 . S
O64 Ho40 2.381 . S
O64 C50 1.275 . S
O65 Ho40 2.669 . S
O65 Ho41 2.305 . S
O65 C50 1.256 . S
O66 Ho41 2.322 . S
O66 C51 1.259 . S
O67 Ho40 2.346 . S
O67 C51 1.268 . S
O68 Ho41 2.378 . S
O68 C52 1.215 . S
O69 Ho41 2.524 . S
O69 C52 1.289 . S
O70 Ho41 2.381 . S
O70 C59 1.275 . S
O71 Ho40 2.305 . S
O71 Ho41 2.669 . S
O71 C59 1.256 . S
H72 C45 0.930 . S
H73 C46 0.931 . S
H74 C48 0.934 . S
H75 C49 0.930 . S
H76 C54 0.930 . S
H77 C55 0.931 . S
H78 C57 0.934 . S
H79 C58 0.930 . S
Ho80 C83 2.811 . S
Ho80 O100 2.322 . S
Ho80 O102 2.378 . S
Ho80 O103 2.524 . S
Ho80 O104 2.381 1_556 S
Ho80 O105 2.669 . S
Ho80 O107 2.346 . S
Ho80 O111 2.305 . S
Ho81 C92 2.811 . S
Ho81 O101 2.346 . S
Ho81 O105 2.305 . S
Ho81 O106 2.322 . S
Ho81 O108 2.378 . S
Ho81 O109 2.524 . S
Ho81 O110 2.381 . S
Ho81 O111 2.669 . S
C82 O100 1.259 . S
C82 O101 1.268 . S
C83 Ho80 2.811 . S
C83 C84 1.488 . S
C83 O102 1.215 . S
C83 O103 1.289 . S
C84 C83 1.488 . S
C84 C85 1.348 . S
C84 C89 1.413 . S
C85 C84 1.348 . S
C85 C86 1.442 . S
C85 H112 0.930 . S
C86 C85 1.442 . S
C86 C87 1.381 . S
C86 H113 0.931 . S
C87 C86 1.381 . S
C87 C88 1.321 . S
C88 C87 1.321 . S
C88 C89 1.403 . S
C88 H114 0.934 . S
C89 C84 1.413 . S
C89 C88 1.403 . S
C89 H115 0.930 1_556 S
C90 O104 1.275 . S
C90 O105 1.256 1_554 S
C91 O106 1.259 . S
C91 O107 1.268 . S
C92 Ho81 2.811 . S
C92 C93 1.488 . S
C92 O108 1.215 . S
C92 O109 1.289 . S
C93 C92 1.488 . S
C93 C94 1.348 . S
C93 C98 1.413 . S
C94 C93 1.348 . S
C94 C95 1.442 . S
C94 H116 0.930 . S
C95 C94 1.442 . S
C95 C96 1.381 . S
C95 H117 0.931 . S
C96 C95 1.381 . S
C96 C97 1.321 . S
C97 C96 1.321 . S
C97 C98 1.403 . S
C97 H118 0.934 . S
C98 C93 1.413 . S
C98 C97 1.403 . S
C98 H119 0.930 . S
C99 O110 1.275 . S
C99 O111 1.256 . S
O100 Ho80 2.322 . S
O100 C82 1.259 . S
O101 Ho81 2.346 . S
O101 C82 1.268 . S
O102 Ho80 2.378 . S
O102 C83 1.215 . S
O103 Ho80 2.524 . S
O103 C83 1.289 . S
O104 Ho80 2.381 1_554 S
O104 C90 1.275 . S
O105 Ho80 2.669 . S
O105 Ho81 2.305 . S
O105 C90 1.256 1_556 S
O106 Ho81 2.322 . S
O106 C91 1.259 . S
O107 Ho80 2.346 . S
O107 C91 1.268 . S
O108 Ho81 2.378 . S
O108 C92 1.215 . S
O109 Ho81 2.524 . S
O109 C92 1.289 . S
O110 Ho81 2.381 . S
O110 C99 1.275 . S
O111 Ho80 2.305 . S
O111 Ho81 2.669 . S
O111 C99 1.256 . S
H112 C85 0.930 . S
H113 C86 0.931 . S
H114 C88 0.934 . S
H115 C89 0.930 1_554 S
H116 C94 0.930 . S
H117 C95 0.931 . S
H118 C97 0.934 . S
H119 C98 0.930 . S
C120 C121 1.391 . S
C120 C122 1.394 . S
C120 H136 0.931 . S
C121 C120 1.391 . S
C121 C125 1.376 1_554 S
C122 C120 1.394 . S
C122 C123 1.369 . S
C122 C126 1.531 . S
C123 C122 1.369 . S
C123 C124 1.410 1_554 S
C123 C131 1.503 1_554 S
C124 C123 1.410 1_556 S
C124 C125 1.392 . S
C124 C127 1.511 . S
C125 C121 1.376 1_556 S
C125 C124 1.392 . S
C125 H137 0.929 . S
C126 C122 1.531 . S
C126 H138 0.960 . S
C126 H139 0.962 . S
C126 H140 0.960 . S
C127 C124 1.511 . S
C127 H141 0.961 . S
C127 H142 0.961 . S
C127 H143 0.961 . S
C128 C129 1.370 . S
C128 C130 1.363 . S
C128 H144 0.931 . S
C129 C128 1.370 . S
C129 C133 1.408 . S
C130 C128 1.363 . S
C130 C131 1.370 . S
C130 C134 1.524 . S
C131 C123 1.503 1_556 S
C131 C130 1.370 . S
C131 C132 1.403 . S
C132 C131 1.403 . S
C132 C133 1.404 . S
C132 C135 1.539 . S
C133 C129 1.408 . S
C133 C132 1.404 . S
C133 H145 0.930 . S
C134 C130 1.524 . S
C134 H146 0.956 1_556 S
C134 H147 0.961 . S
C134 H148 0.961 . S
C135 C132 1.539 . S
C135 H149 0.958 1_556 S
C135 H150 0.961 . S
C135 H151 0.960 . S
H136 C120 0.931 . S
H137 C125 0.929 . S
H138 C126 0.960 . S
H139 C126 0.962 . S
H140 C126 0.960 . S
H141 C127 0.961 . S
H142 C127 0.961 . S
H143 C127 0.961 . S
H144 C128 0.931 . S
H145 C133 0.930 . S
H146 C134 0.956 1_554 S
H147 C134 0.961 . S
H148 C134 0.961 . S
H149 C135 0.958 1_554 S
H150 C135 0.961 . S
H151 C135 0.960 . S
C152 C153 1.391 . S
C152 C154 1.394 . S
C152 H168 0.931 . S
C153 C152 1.391 . S
C153 C157 1.376 . S
C154 C152 1.394 . S
C154 C155 1.369 . S
C154 C158 1.531 . S
C155 C154 1.369 . S
C155 C156 1.410 . S
C155 C163 1.503 . S
C156 C155 1.410 . S
C156 C157 1.392 . S
C156 C159 1.511 . S
C157 C153 1.376 . S
C157 C156 1.392 . S
C157 H169 0.929 . S
C158 C154 1.531 . S
C158 H170 0.960 . S
C158 H171 0.962 . S
C158 H172 0.960 . S
C159 C156 1.511 . S
C159 H173 0.961 . S
C159 H174 0.961 . S
C159 H175 0.961 . S
C160 C161 1.370 . S
C160 C162 1.363 . S
C160 H176 0.931 . S
C161 C160 1.370 . S
C161 C165 1.408 . S
C162 C160 1.363 . S
C162 C163 1.370 . S
C162 C166 1.524 . S
C163 C155 1.503 . S
C163 C162 1.370 . S
C163 C164 1.403 . S
C164 C163 1.403 . S
C164 C165 1.404 . S
C164 C167 1.539 . S
C165 C161 1.408 . S
C165 C164 1.404 . S
C165 H177 0.930 . S
C166 C162 1.524 . S
C166 H178 0.956 . S
C166 H179 0.961 . S
C166 H180 0.961 . S
C167 C164 1.539 . S
C167 H181 0.958 . S
C167 H182 0.961 . S
C167 H183 0.960 . S
H168 C152 0.931 . S
H169 C157 0.929 . S
H170 C158 0.960 . S
H171 C158 0.962 . S
H172 C158 0.960 . S
H173 C159 0.961 . S
H174 C159 0.961 . S
H175 C159 0.961 . S
H176 C160 0.931 . S
H177 C165 0.930 . S
H178 C166 0.956 . S
H179 C166 0.961 . S
H180 C166 0.961 . S
H181 C167 0.958 . S
H182 C167 0.961 . S
H183 C167 0.960 . S
C184 C185 1.391 . S
C184 C186 1.394 . S
C184 H200 0.931 . S
C185 C184 1.391 . S
C185 C189 1.376 . S
C186 C184 1.394 . S
C186 C187 1.369 . S
C186 C190 1.531 . S
C187 C186 1.369 . S
C187 C188 1.410 . S
C187 C195 1.503 . S
C188 C187 1.410 . S
C188 C189 1.392 . S
C188 C191 1.511 . S
C189 C185 1.376 . S
C189 C188 1.392 . S
C189 H201 0.929 . S
C190 C186 1.531 . S
C190 H202 0.960 . S
C190 H203 0.962 . S
C190 H204 0.960 . S
C191 C188 1.511 . S
C191 H205 0.961 . S
C191 H206 0.961 . S
C191 H207 0.961 . S
C192 C193 1.370 . S
C192 C194 1.363 . S
C192 H208 0.931 . S
C193 C192 1.370 . S
C193 C197 1.408 . S
C194 C192 1.363 . S
C194 C195 1.370 . S
C194 C198 1.524 . S
C195 C187 1.503 . S
C195 C194 1.370 . S
C195 C196 1.403 . S
C196 C195 1.403 . S
C196 C197 1.404 . S
C196 C199 1.539 . S
C197 C193 1.408 . S
C197 C196 1.404 . S
C197 H209 0.930 . S
C198 C194 1.524 . S
C198 H210 0.956 . S
C198 H211 0.961 . S
C198 H212 0.961 . S
C199 C196 1.539 . S
C199 H213 0.958 . S
C199 H214 0.961 . S
C199 H215 0.960 . S
H200 C184 0.931 . S
H201 C189 0.929 . S
H202 C190 0.960 . S
H203 C190 0.962 . S
H204 C190 0.960 . S
H205 C191 0.961 . S
H206 C191 0.961 . S
H207 C191 0.961 . S
H208 C192 0.931 . S
H209 C197 0.930 . S
H210 C198 0.956 . S
H211 C198 0.961 . S
H212 C198 0.961 . S
H213 C199 0.958 . S
H214 C199 0.961 . S
H215 C199 0.960 . S
C216 C217 1.391 . S
C216 C218 1.394 . S
C216 H232 0.931 . S
C217 C216 1.391 . S
C217 C221 1.376 . S
C218 C216 1.394 . S
C218 C219 1.369 . S
C218 C222 1.531 1_556 S
C219 C218 1.369 . S
C219 C220 1.410 . S
C219 C227 1.503 1_556 S
C220 C219 1.410 . S
C220 C221 1.392 . S
C220 C223 1.511 . S
C221 C217 1.376 . S
C221 C220 1.392 . S
C221 H233 0.929 . S
C222 C218 1.531 1_554 S
C222 H234 0.960 . S
C222 H235 0.962 . S
C222 H236 0.960 1_554 S
C223 C220 1.511 . S
C223 H237 0.961 . S
C223 H238 0.961 1_556 S
C223 H239 0.961 . S
C224 C225 1.370 . S
C224 C226 1.363 . S
C224 H240 0.931 . S
C225 C224 1.370 . S
C225 C229 1.408 . S
C226 C224 1.363 . S
C226 C227 1.370 . S
C226 C230 1.524 . S
C227 C219 1.503 1_554 S
C227 C226 1.370 . S
C227 C228 1.403 1_554 S
C228 C227 1.403 1_556 S
C228 C229 1.404 1_556 S
C228 C231 1.539 . S
C229 C225 1.408 . S
C229 C228 1.404 1_554 S
C229 H241 0.926 1_554 S
C230 C226 1.524 . S
C230 H242 0.956 . S
C230 H243 0.961 . S
C230 H244 0.961 . S
C231 C228 1.539 . S
C231 H245 0.958 . S
C231 H246 0.961 . S
C231 H247 0.960 . S
H232 C216 0.931 . S
H233 C221 0.929 . S
H234 C222 0.960 . S
H235 C222 0.962 . S
H236 C222 0.960 1_556 S
H237 C223 0.961 . S
H238 C223 0.961 1_554 S
H239 C223 0.961 . S
H240 C224 0.931 . S
H241 C229 0.926 1_556 S
H242 C230 0.956 . S
H243 C230 0.961 . S
H244 C230 0.961 . S
H245 C231 0.958 . S
H246 C231 0.961 . S
H247 C231 0.960 . S
C248 C249 1.391 . S
C248 C250 1.394 . S
C248 H264 0.931 . S
C249 C248 1.391 . S
C249 C253 1.376 . S
C250 C248 1.394 . S
C250 C251 1.369 . S
C250 C254 1.531 . S
C251 C250 1.369 . S
C251 C252 1.410 . S
C251 C259 1.503 . S
C252 C251 1.410 . S
C252 C253 1.392 . S
C252 C255 1.511 . S
C253 C249 1.376 . S
C253 C252 1.392 . S
C253 H265 0.929 . S
C254 C250 1.531 . S
C254 H266 0.960 . S
C254 H267 0.962 . S
C254 H268 0.960 . S
C255 C252 1.511 . S
C255 H269 0.961 . S
C255 H270 0.961 . S
C255 H271 0.961 . S
C256 C257 1.370 . S
C256 C258 1.363 . S
C256 H272 0.931 . S
C257 C256 1.370 . S
C257 C261 1.408 . S
C258 C256 1.363 . S
C258 C259 1.370 . S
C258 C262 1.524 . S
C259 C251 1.503 . S
C259 C258 1.370 . S
C259 C260 1.403 . S
C260 C259 1.403 . S
C260 C261 1.404 . S
C260 C263 1.539 . S
C261 C257 1.408 . S
C261 C260 1.404 . S
C261 H273 0.930 . S
C262 C258 1.524 . S
C262 H274 0.956 . S
C262 H275 0.961 . S
C262 H276 0.961 . S
C263 C260 1.539 . S
C263 H277 0.958 . S
C263 H278 0.961 . S
C263 H279 0.960 . S
H264 C248 0.931 . S
H265 C253 0.929 . S
H266 C254 0.960 . S
H267 C254 0.962 . S
H268 C254 0.960 . S
H269 C255 0.961 . S
H270 C255 0.961 . S
H271 C255 0.961 . S
H272 C256 0.931 . S
H273 C261 0.930 . S
H274 C262 0.956 . S
H275 C262 0.961 . S
H276 C262 0.961 . S
H277 C263 0.958 . S
H278 C263 0.961 . S
H279 C263 0.960 . S
C280 C281 1.391 . S
C280 C282 1.394 . S
C280 H296 0.931 . S
C281 C280 1.391 . S
C281 C285 1.376 . S
C282 C280 1.394 . S
C282 C283 1.369 . S
C282 C286 1.531 . S
C283 C282 1.369 . S
C283 C284 1.410 . S
C283 C291 1.503 . S
C284 C283 1.410 . S
C284 C285 1.392 . S
C284 C287 1.511 . S
C285 C281 1.376 . S
C285 C284 1.392 . S
C285 H297 0.929 . S
C286 C282 1.531 . S
C286 H298 0.960 . S
C286 H299 0.962 . S
C286 H300 0.960 . S
C287 C284 1.511 . S
C287 H301 0.961 . S
C287 H302 0.961 . S
C287 H303 0.961 . S
C288 C289 1.370 . S
C288 C290 1.363 . S
C288 H304 0.931 . S
C289 C288 1.370 . S
C289 C293 1.408 . S
C290 C288 1.363 . S
C290 C291 1.370 . S
C290 C294 1.524 . S
C291 C283 1.503 . S
C291 C290 1.370 . S
C291 C292 1.403 . S
C292 C291 1.403 . S
C292 C293 1.404 . S
C292 C295 1.539 . S
C293 C289 1.408 . S
C293 C292 1.404 . S
C293 H305 0.930 . S
C294 C290 1.524 . S
C294 H306 0.956 . S
C294 H307 0.961 . S
C294 H308 0.961 . S
C295 C292 1.539 . S
C295 H309 0.958 . S
C295 H310 0.961 . S
C295 H311 0.960 . S
H296 C280 0.931 . S
H297 C285 0.929 . S
H298 C286 0.960 . S
H299 C286 0.962 . S
H300 C286 0.960 . S
H301 C287 0.961 . S
H302 C287 0.961 . S
H303 C287 0.961 . S
H304 C288 0.931 . S
H305 C293 0.930 . S
H306 C294 0.956 . S
H307 C294 0.961 . S
H308 C294 0.961 . S
H309 C295 0.958 . S
H310 C295 0.961 . S
H311 C295 0.960 . S
C312 C313 1.391 . S
C312 C314 1.394 . S
C312 H328 0.931 . S
C313 C312 1.391 . S
C313 C317 1.376 1_455 S
C314 C312 1.394 . S
C314 C315 1.369 . S
C314 C318 1.531 . S
C315 C314 1.369 . S
C315 C316 1.410 1_455 S
C315 C323 1.503 . S
C316 C315 1.410 1_655 S
C316 C317 1.392 . S
C316 C319 1.511 . S
C317 C313 1.376 1_655 S
C317 C316 1.392 . S
C317 H329 0.929 . S
C318 C314 1.531 . S
C318 H330 0.960 . S
C318 H331 0.962 . S
C318 H332 0.960 . S
C319 C316 1.511 . S
C319 H333 0.961 . S
C319 H334 0.961 . S
C319 H335 0.961 . S
C320 C321 1.370 . S
C320 C322 1.363 . S
C320 H336 0.931 . S
C321 C320 1.370 . S
C321 C325 1.408 1_455 S
C322 C320 1.363 . S
C322 C323 1.370 . S
C322 C326 1.524 . S
C323 C315 1.503 . S
C323 C322 1.370 . S
C323 C324 1.403 1_455 S
C324 C323 1.403 1_655 S
C324 C325 1.404 . S
C324 C327 1.539 . S
C325 C321 1.408 1_655 S
C325 C324 1.404 . S
C325 H337 0.930 . S
C326 C322 1.524 . S
C326 H338 0.956 . S
C326 H339 0.961 . S
C326 H340 0.961 . S
C327 C324 1.539 . S
C327 H341 0.958 . S
C327 H342 0.961 . S
C327 H343 0.960 . S
H328 C312 0.931 . S
H329 C317 0.929 . S
H330 C318 0.960 . S
H331 C318 0.962 . S
H332 C318 0.960 . S
H333 C319 0.961 . S
H334 C319 0.961 . S
H335 C319 0.961 . S
H336 C320 0.931 . S
H337 C325 0.930 . S
H338 C326 0.956 . S
H339 C326 0.961 . S
H340 C326 0.961 . S
H341 C327 0.958 . S
H342 C327 0.961 . S
H343 C327 0.960 . S
C344 C345 1.391 . S
C344 C346 1.394 . S
C344 H360 0.931 . S
C345 C344 1.391 . S
C345 C349 1.376 . S
C346 C344 1.394 . S
C346 C347 1.369 . S
C346 C350 1.531 . S
C347 C346 1.369 . S
C347 C348 1.410 . S
C347 C355 1.503 1_554 S
C348 C347 1.410 . S
C348 C349 1.392 . S
C348 C351 1.511 . S
C349 C345 1.376 . S
C349 C348 1.392 . S
C349 H361 0.929 . S
C350 C346 1.531 . S
C350 H362 0.960 1_554 S
C350 H363 0.962 . S
C350 H364 0.960 . S
C351 C348 1.511 . S
C351 H365 0.961 . S
C351 H366 0.961 1_554 S
C351 H367 0.961 . S
C352 C353 1.370 . S
C352 C354 1.363 . S
C352 H368 0.931 . S
C353 C352 1.370 . S
C353 C357 1.408 . S
C354 C352 1.363 . S
C354 C355 1.370 . S
C354 C358 1.524 . S
C355 C347 1.503 1_556 S
C355 C354 1.370 . S
C355 C356 1.403 . S
C356 C355 1.403 . S
C356 C357 1.404 . S
C356 C359 1.539 . S
C357 C353 1.408 . S
C357 C356 1.404 . S
C357 H369 0.930 . S
C358 C354 1.524 . S
C358 H370 0.956 . S
C358 H371 0.961 . S
C358 H372 0.961 . S
C359 C356 1.539 . S
C359 H373 0.958 . S
C359 H374 0.961 . S
C359 H375 0.960 . S
H360 C344 0.931 . S
H361 C349 0.929 . S
H362 C350 0.960 1_556 S
H363 C350 0.962 . S
H364 C350 0.960 . S
H365 C351 0.961 . S
H366 C351 0.961 1_556 S
H367 C351 0.961 . S
H368 C352 0.931 . S
H369 C357 0.930 . S
H370 C358 0.956 . S
H371 C358 0.961 . S
H372 C358 0.961 . S
H373 C359 0.958 . S
H374 C359 0.961 . S
H375 C359 0.960 . S
C376 C377 1.391 . S
C376 C378 1.394 . S
C376 H392 0.931 . S
C377 C376 1.391 . S
C377 C381 1.376 . S
C378 C376 1.394 . S
C378 C379 1.369 . S
C378 C382 1.531 . S
C379 C378 1.369 . S
C379 C380 1.410 . S
C379 C387 1.503 . S
C380 C379 1.410 . S
C380 C381 1.392 . S
C380 C383 1.511 . S
C381 C377 1.376 . S
C381 C380 1.392 . S
C381 H393 0.929 . S
C382 C378 1.531 . S
C382 H394 0.960 . S
C382 H395 0.962 . S
C382 H396 0.960 . S
C383 C380 1.511 . S
C383 H397 0.961 . S
C383 H398 0.961 . S
C383 H399 0.961 . S
C384 C385 1.370 . S
C384 C386 1.363 . S
C384 H400 0.931 . S
C385 C384 1.370 . S
C385 C389 1.408 . S
C386 C384 1.363 . S
C386 C387 1.370 . S
C386 C390 1.524 . S
C387 C379 1.503 . S
C387 C386 1.370 . S
C387 C388 1.403 . S
C388 C387 1.403 . S
C388 C389 1.404 . S
C388 C391 1.539 . S
C389 C385 1.408 . S
C389 C388 1.404 . S
C389 H401 0.930 . S
C390 C386 1.524 . S
C390 H402 0.956 . S
C390 H403 0.961 . S
C390 H404 0.961 . S
C391 C388 1.539 . S
C391 H405 0.958 . S
C391 H406 0.961 . S
C391 H407 0.960 . S
H392 C376 0.931 . S
H393 C381 0.929 . S
H394 C382 0.960 . S
H395 C382 0.962 . S
H396 C382 0.960 . S
H397 C383 0.961 . S
H398 C383 0.961 . S
H399 C383 0.961 . S
H400 C384 0.931 . S
H401 C389 0.930 . S
H402 C390 0.956 . S
H403 C390 0.961 . S
H404 C390 0.961 . S
H405 C391 0.958 . S
H406 C391 0.961 . S
H407 C391 0.960 . S
C121 C7 2.185 . S
C129 C82 2.200 . S
C153 C51 3.014 . S
C161 C11 2.968 . S
C185 C47 1.598 . S
C193 C87 1.564 . S
C217 C91 2.589 . S
C225 C16 2.454 . S
C249 C42 2.695 1_565 S
C257 C2 2.642 . S
C281 C96 1.500 . S
C289 C56 1.516 . S
C313 C19 0.581 . S
C321 C10 0.547 . S
C345 C50 0.499 . S
C353 C59 0.555 . S
C377 C99 0.608 . S
C385 C90 0.505 . S
