# Generated by pormake.
# Topology vmq, (7)-cn, num edge types: 1
# Building blocks:
#     Node 0, Type 0, BuildingBlock: HICVOG_clean_sbu_0, # of connection points: 7
#     Node 1, Type 0, BuildingBlock: HICVOG_clean_sbu_0, # of connection points: 7
#     Node 2, Type 0, BuildingBlock: HICVOG_clean_sbu_0, # of connection points: 7
#     Node 3, Type 0, BuildingBlock: HICVOG_clean_sbu_0, # of connection points: 7
#     Node 4, Type 0, BuildingBlock: HICVOG_clean_sbu_0, # of connection points: 7
#     Node 5, Type 0, BuildingBlock: HICVOG_clean_sbu_0, # of connection points: 7
#     Node 6, Type 0, BuildingBlock: HICVOG_clean_sbu_0, # of connection points: 7
#     Node 7, Type 0, BuildingBlock: HICVOG_clean_sbu_0, # of connection points: 7
#     Edge 8, Type (0, 0), BuildingBlock: CIFDUS_clean_linker_0, # of connection points: 2
#     Edge 9, Type (0, 0), BuildingBlock: CIFDUS_clean_linker_0, # of connection points: 2
#     Edge 10, Type (0, 0), BuildingBlock: CIFDUS_clean_linker_0, # of connection points: 2
#     Edge 11, Type (0, 0), BuildingBlock: CIFDUS_clean_linker_0, # of connection points: 2
#     Edge 12, Type (0, 0), BuildingBlock: CIFDUS_clean_linker_0, # of connection points: 2
#     Edge 13, Type (0, 0), BuildingBlock: CIFDUS_clean_linker_0, # of connection points: 2
#     Edge 14, Type (0, 0), BuildingBlock: CIFDUS_clean_linker_0, # of connection points: 2
#     Edge 15, Type (0, 0), BuildingBlock: CIFDUS_clean_linker_0, # of connection points: 2
#     Edge 16, Type (0, 0), BuildingBlock: CIFDUS_clean_linker_0, # of connection points: 2
#     Edge 17, Type (0, 0), BuildingBlock: CIFDUS_clean_linker_0, # of connection points: 2
#     Edge 18, Type (0, 0), BuildingBlock: CIFDUS_clean_linker_0, # of connection points: 2
#     Edge 19, Type (0, 0), BuildingBlock: CIFDUS_clean_linker_0, # of connection points: 2
#     Edge 20, Type (0, 0), BuildingBlock: CIFDUS_clean_linker_0, # of connection points: 2
#     Edge 21, Type (0, 0), BuildingBlock: CIFDUS_clean_linker_0, # of connection points: 2
#     Edge 22, Type (0, 0), BuildingBlock: CIFDUS_clean_linker_0, # of connection points: 2
#     Edge 23, Type (0, 0), BuildingBlock: CIFDUS_clean_linker_0, # of connection points: 2
#     Edge 24, Type (0, 0), BuildingBlock: CIFDUS_clean_linker_0, # of connection points: 2
#     Edge 25, Type (0, 0), BuildingBlock: CIFDUS_clean_linker_0, # of connection points: 2
#     Edge 26, Type (0, 0), BuildingBlock: CIFDUS_clean_linker_0, # of connection points: 2
#     Edge 27, Type (0, 0), BuildingBlock: CIFDUS_clean_linker_0, # of connection points: 2
#     Edge 28, Type (0, 0), BuildingBlock: CIFDUS_clean_linker_0, # of connection points: 2
#     Edge 29, Type (0, 0), BuildingBlock: CIFDUS_clean_linker_0, # of connection points: 2
#     Edge 30, Type (0, 0), BuildingBlock: CIFDUS_clean_linker_0, # of connection points: 2
#     Edge 31, Type (0, 0), BuildingBlock: CIFDUS_clean_linker_0, # of connection points: 2
#     Edge 32, Type (0, 0), BuildingBlock: CIFDUS_clean_linker_0, # of connection points: 2
#     Edge 33, Type (0, 0), BuildingBlock: CIFDUS_clean_linker_0, # of connection points: 2
#     Edge 34, Type (0, 0), BuildingBlock: CIFDUS_clean_linker_0, # of connection points: 2
#     Edge 35, Type (0, 0), BuildingBlock: CIFDUS_clean_linker_0, # of connection points: 2
# Relax obj value: 0.312
# Max RMSD: 0.270
# Mean RMSD: 0.270
data_MOF--net-vmq--node1-HICVOG_clean_sbu_0--edge1-CIFDUS_clean_linker_0
_symmetry_space_group_name_H-M    P1
_symmetry_Int_Tables_number       1
_symmetry_cell_setting            triclinic
loop_
_symmetry_equiv_pos_as_xyz
'x, y, z'
_cell_length_a     45.890995
_cell_length_b     17.590926
_cell_length_c     31.392981
_cell_angle_alpha  90.126469
_cell_angle_beta   107.06334
_cell_angle_gamma 90.178956
loop_
_atom_site_label
_atom_site_type_symbol
_atom_site_fract_x
_atom_site_fract_y
_atom_site_fract_z
_atom_type_partial_charge
Zn0 Zn 0.41695 0.1728 0.11401 0.0
C1 C 0.45864 0.02334 0.05318 0.0
N2 N 0.47875 0.01876 0.0935 0.0
C3 C 0.46689 0.06209 0.11909 0.0
N4 N 0.43995 0.09276 0.09531 0.0
N5 N 0.43453 0.067 0.05385 0.0
C6 C 0.392 0.08135 0.91988 0.0
O7 O 0.38505 0.14987 0.93038 0.0
O8 O 0.41093 0.14651 0.17431 0.0
Zn9 Zn 0.39421 0.05191 0.01165 0.0
N10 N 0.43838 0.2692 0.11332 0.0
C11 C 0.48204 0.33568 0.10645 0.0
C12 C 0.46742 0.26796 0.11057 0.0
C13 C 0.42298 0.33601 0.11049 0.0
N14 N 0.46661 0.40199 0.10311 0.0
C15 C 0.43722 0.40478 0.10438 0.0
O16 O 0.36272 0.1351 0.00774 0.0
C17 C 0.35626 0.17976 0.03562 0.0
O18 O 0.37466 0.19094 0.07412 0.0
H19 H 0.47916 0.21486 0.11097 0.0
H20 H 0.39982 0.33462 0.11221 0.0
C21 C 0.39255 0.89682 0.04189 0.0
C22 C 0.37903 0.83374 0.05651 0.0
C23 C 0.33415 0.9063 0.04827 0.0
C24 C 0.34764 0.9683 0.03398 0.0
N25 N 0.37654 0.96262 0.03108 0.0
N26 N 0.35005 0.84081 0.05909 0.0
H27 H 0.41524 0.89375 0.03832 0.0
C28 C 0.39974 0.08155 0.17821 0.0
O29 O 0.39209 0.03615 0.14335 0.0
O30 O 0.39736 0.02977 0.94949 0.0
H31 H 0.33501 0.02046 0.02519 0.0
H32 H 0.50524 0.33545 0.10474 0.0
H33 H 0.31116 0.91007 0.0507 0.0
Zn34 Zn 0.64077 0.06476 0.47301 0.0
C35 C 0.57775 0.05667 0.3624 0.0
N36 N 0.5619 0.02031 0.38563 0.0
C37 C 0.57704 0.03829 0.42798 0.0
N38 N 0.60156 0.0828 0.43016 0.0
N39 N 0.60107 0.09662 0.38866 0.0
C40 C 0.63593 0.11018 0.29862 0.0
O41 O 0.6529 0.07263 0.33312 0.0
O42 O 0.6369 0.04558 0.53527 0.0
Zn43 Zn 0.61969 0.18269 0.36949 0.0
N44 N 0.65679 0.9717 0.45465 0.0
C45 C 0.6973 0.91123 0.43488 0.0
C46 C 0.68484 0.9756 0.44841 0.0
C47 C 0.64065 0.90526 0.448 0.0
N48 N 0.68135 0.84511 0.42841 0.0
C49 C 0.65327 0.83937 0.43464 0.0
O50 O 0.66241 0.20229 0.40703 0.0
C51 C 0.68003 0.19112 0.44611 0.0
O52 O 0.67288 0.14689 0.47377 0.0
H53 H 0.69752 0.0283 0.45382 0.0
H54 H 0.61823 0.90464 0.45263 0.0
C55 C 0.60984 0.34368 0.37565 0.0
C56 C 0.59435 0.40901 0.38361 0.0
C57 C 0.55359 0.32989 0.38936 0.0
C58 C 0.56928 0.26573 0.38236 0.0
N59 N 0.59686 0.27368 0.37496 0.0
N60 N 0.56648 0.39955 0.39005 0.0
H61 H 0.63247 0.34744 0.37186 0.0
C62 C 0.65986 0.05767 0.56899 0.0
O63 O 0.68484 0.08558 0.56263 0.0
O64 O 0.61936 0.16406 0.30539 0.0
H65 H 0.55986 0.20996 0.38405 0.0
H66 H 0.71957 0.91366 0.42968 0.0
H67 H 0.53158 0.3243 0.39516 0.0
Zn68 Zn 0.62559 0.83045 0.87173 0.0
C69 C 0.57945 0.97544 0.92508 0.0
N70 N 0.5638 0.9858 0.88212 0.0
C71 C 0.58047 0.94821 0.86067 0.0
N72 N 0.6049 0.91499 0.88857 0.0
N73 N 0.60496 0.93359 0.92941 0.0
C74 C 0.65725 0.94458 0.07168 0.0
O75 O 0.68165 0.91001 0.06766 0.0
O76 O 0.62591 0.84701 0.80768 0.0
Zn77 Zn 0.64337 0.94859 0.97566 0.0
N78 N 0.60304 0.7382 0.87649 0.0
C79 C 0.55842 0.68054 0.88612 0.0
C80 C 0.5745 0.74512 0.88062 0.0
C81 C 0.61653 0.66877 0.87893 0.0
N82 N 0.5718 0.61145 0.88848 0.0
C83 C 0.60057 0.60297 0.88526 0.0
O84 O 0.67647 0.86799 0.97803 0.0
C85 C 0.68508 0.82621 0.9506 0.0
O86 O 0.66833 0.81496 0.91088 0.0
H87 H 0.56447 0.8004 0.8807 0.0
H88 H 0.63976 0.66585 0.87754 0.0
C89 C 0.64461 0.10841 0.95245 0.0
C90 C 0.6585 0.17514 0.94244 0.0
C91 C 0.70427 0.10595 0.95105 0.0
C92 C 0.69055 0.04071 0.96132 0.0
N93 N 0.66101 0.04284 0.96168 0.0
N94 N 0.68804 0.1712 0.94195 0.0
H95 H 0.62107 0.1078 0.95248 0.0
C96 C 0.64356 0.89769 0.79997 0.0
O97 O 0.66192 0.93445 0.83386 0.0
O98 O 0.63677 0.9646 0.03656 0.0
H99 H 0.70348 0.98879 0.96892 0.0
H100 H 0.53566 0.68534 0.88931 0.0
H101 H 0.72772 0.1049 0.95048 0.0
Zn102 Zn 0.4163 0.85541 0.61021 0.0
C103 C 0.45715 0.02284 0.55955 0.0
N104 N 0.47807 0.02061 0.59923 0.0
C105 C 0.46686 0.97093 0.62257 0.0
N106 N 0.43919 0.94379 0.59821 0.0
N107 N 0.43302 0.97851 0.55907 0.0
C108 C 0.38931 0.99742 0.42418 0.0
O109 O 0.37755 0.9298 0.42612 0.0
O110 O 0.40956 0.86805 0.67152 0.0
Zn111 Zn 0.39332 1.00071 0.5188 0.0
N112 N 0.4398 0.76346 0.6052 0.0
C113 C 0.48453 0.71398 0.59151 0.0
C114 C 0.46696 0.77529 0.59688 0.0
C115 C 0.42899 0.69122 0.60657 0.0
N116 N 0.47392 0.64255 0.5931 0.0
C117 C 0.4465 0.62844 0.60005 0.0
O118 O 0.36315 0.91395 0.50775 0.0
C119 C 0.3566 0.85852 0.52933 0.0
O120 O 0.37425 0.83826 0.56695 0.0
H121 H 0.47507 0.83192 0.59397 0.0
H122 H 0.40713 0.68318 0.61249 0.0
C123 C 0.38571 0.15565 0.54782 0.0
C124 C 0.37073 0.21235 0.56535 0.0
C125 C 0.33664 0.11878 0.57739 0.0
C126 C 0.35143 0.06309 0.56002 0.0
N127 N 0.37545 0.08235 0.54512 0.0
N128 N 0.34646 0.19183 0.5794 0.0
H129 H 0.40478 0.16968 0.53554 0.0
C130 C 0.4036 0.93384 0.68366 0.0
O131 O 0.40028 0.99048 0.65544 0.0
O132 O 0.3975 0.03797 0.45937 0.0
H133 H 0.34359 1.00493 0.55816 0.0
H134 H 0.50628 0.72303 0.58539 0.0
H135 H 0.31737 0.10415 0.58904 0.0
Zn136 Zn 0.91677 0.68968 0.13009 0.0
C137 C 0.96483 0.54522 0.07587 0.0
N138 N 0.98338 0.5422 0.11767 0.0
C139 C 0.96827 0.58153 0.1408 0.0
N140 N 0.94177 0.60981 0.11439 0.0
N141 N 0.93916 0.58546 0.07342 0.0
C142 C 0.89943 0.55463 0.93807 0.0
O143 O 0.89558 0.62865 0.93701 0.0
O144 O 0.90655 0.6621 0.18715 0.0
Zn145 Zn 0.89916 0.5634 0.03233 0.0
N146 N 0.9392 0.78569 0.13685 0.0
C147 C 0.98591 0.85337 0.14887 0.0
C148 C 0.96996 0.78524 0.14505 0.0
C149 C 0.92352 0.85242 0.13043 0.0
N150 N 0.97036 0.91967 0.14275 0.0
C151 C 0.93944 0.92193 0.1332 0.0
O152 O 0.86715 0.64735 0.0199 0.0
C153 C 0.85969 0.69649 0.04472 0.0
O154 O 0.87652 0.70971 0.08411 0.0
H155 H 0.98211 0.7328 0.14746 0.0
H156 H 0.89897 0.85038 0.12201 0.0
C157 C 0.89598 0.41336 0.0638 0.0
C158 C 0.88581 0.35454 0.08638 0.0
C159 C 0.84931 0.43909 0.10034 0.0
C160 C 0.85988 0.49723 0.07863 0.0
N161 N 0.88295 0.48316 0.06076 0.0
N162 N 0.8625 0.36954 0.1038 0.0
H163 H 0.91394 0.40468 0.04847 0.0
C164 C 0.90955 0.70407 0.22129 0.0
O165 O 0.91865 0.77478 0.22055 0.0
O166 O 0.90218 0.51894 0.97423 0.0
H167 H 0.84983 0.55304 0.07625 0.0
H168 H 1.01043 0.85362 0.15572 0.0
H169 H 0.83092 0.44926 0.11468 0.0
Zn170 Zn 0.14018 0.66076 0.38163 0.0
C171 C 0.07852 0.60691 0.44688 0.0
N172 N 0.0591 0.64055 0.41191 0.0
C173 C 0.07579 0.65463 0.38441 0.0
N174 N 0.10525 0.63407 0.40305 0.0
N175 N 0.10679 0.60108 0.44177 0.0
C176 C 0.13422 0.56138 0.56642 0.0
O177 O 0.13475 0.63343 0.55568 0.0
O178 O 0.14617 0.58768 0.33382 0.0
Zn179 Zn 0.14281 0.5467 0.47906 0.0
N180 N 0.13477 0.76356 0.35628 0.0
C181 C 0.12783 0.84611 0.294 0.0
C182 C 0.13245 0.77362 0.31238 0.0
C183 C 0.13519 0.82458 0.38333 0.0
N184 N 0.12764 0.90658 0.32073 0.0
C185 C 0.13165 0.89819 0.36514 0.0
O186 O 0.18127 0.61343 0.49548 0.0
C187 C 0.19288 0.65679 0.47218 0.0
O188 O 0.17873 0.67164 0.43181 0.0
H189 H 0.13376 0.72565 0.29146 0.0
H190 H 0.13859 0.8159 0.41859 0.0
C191 C 0.14134 0.38727 0.44896 0.0
C192 C 0.15069 0.32781 0.42599 0.0
C193 C 0.1809 0.41461 0.39959 0.0
C194 C 0.17144 0.47349 0.422 0.0
N195 N 0.15203 0.45921 0.44652 0.0
N196 N 0.17032 0.3433 0.40206 0.0
H197 H 0.12627 0.37591 0.46895 0.0
C198 C 0.17101 0.58865 0.32357 0.0
O199 O 0.19382 0.63003 0.34768 0.0
O200 O 0.13675 0.51141 0.53833 0.0
H201 H 0.17984 0.53007 0.42007 0.0
H202 H 0.12509 0.85449 0.25892 0.0
H203 H 0.19644 0.42555 0.3802 0.0
Zn204 Zn 0.12219 0.3047 0.87768 0.0
C205 C 0.07392 0.44856 0.93074 0.0
N206 N 0.05485 0.44737 0.88927 0.0
C207 C 0.06976 0.40643 0.86646 0.0
N208 N 0.09717 0.383 0.89294 0.0
N209 N 0.10015 0.41065 0.93344 0.0
C210 C 0.15718 0.45277 0.07489 0.0
O211 O 0.18436 0.44583 0.0694 0.0
O212 O 0.12748 0.32523 0.81519 0.0
Zn213 Zn 0.13949 0.42352 0.98002 0.0
N214 N 0.10256 0.20703 0.88355 0.0
C215 C 0.06036 0.14156 0.89631 0.0
C216 C 0.07448 0.20879 0.89006 0.0
C217 C 0.11757 0.13996 0.88486 0.0
N218 N 0.07531 0.075 0.89775 0.0
C219 C 0.10375 0.07167 0.89274 0.0
O220 O 0.17155 0.3394 0.98683 0.0
C221 C 0.18052 0.30108 0.95852 0.0
O222 O 0.16411 0.29328 0.91849 0.0
H223 H 0.06293 0.26187 0.89045 0.0
H224 H 0.14001 0.14043 0.88027 0.0
C225 C 0.1436 0.57831 0.95109 0.0
C226 C 0.15858 0.64128 0.93902 0.0
C227 C 0.20397 0.56848 0.95394 0.0
C228 C 0.18906 0.50671 0.96576 0.0
N229 N 0.15918 0.51247 0.96397 0.0
N230 N 0.18848 0.63396 0.94096 0.0
H231 H 0.1201 0.58133 0.95118 0.0
C232 C 0.12933 0.39337 0.80235 0.0
O233 O 0.12931 0.44926 0.83018 0.0
O234 O 0.13384 0.44496 0.04111 0.0
H235 H 0.20141 0.45475 0.97648 0.0
H236 H 0.03789 0.14231 0.90087 0.0
H237 H 0.22774 0.5646 0.95521 0.0
Zn238 Zn 0.89841 0.45347 0.52404 0.0
C239 C 0.96859 0.35999 0.61624 0.0
N240 N 0.98584 0.37844 0.59025 0.0
C241 C 0.96553 0.40578 0.55347 0.0
N242 N 0.93671 0.40509 0.55703 0.0
N243 N 0.93905 0.37267 0.59583 0.0
C244 C 0.89254 0.38022 0.69975 0.0
O245 O 0.88259 0.3097 0.69629 0.0
O246 O 0.90123 0.49855 0.46562 0.0
Zn247 Zn 0.90847 0.33601 0.62132 0.0
N248 N 0.88931 0.53585 0.56025 0.0
C249 C 0.86135 0.57428 0.6097 0.0
C250 C 0.87047 0.51807 0.58512 0.0
C251 C 0.89986 0.60843 0.55973 0.0
N252 N 0.87156 0.64646 0.60881 0.0
C253 C 0.89074 0.66543 0.58469 0.0
O254 O 0.86921 0.31595 0.57482 0.0
C255 C 0.85331 0.33026 0.53516 0.0
O256 O 0.86191 0.3789 0.51102 0.0
H257 H 0.86223 0.46079 0.58559 0.0
H258 H 0.91452 0.62218 0.53946 0.0
C259 C 0.91298 0.17169 0.62435 0.0
C260 C 0.92438 0.10121 0.64313 0.0
C261 C 0.95398 0.16533 0.70808 0.0
C262 C 0.94205 0.2347 0.68982 0.0
N263 N 0.9224 0.23704 0.64792 0.0
N264 N 0.9449 0.10041 0.68443 0.0
H265 H 0.89702 0.17462 0.59129 0.0
C266 C 0.89856 0.4581 0.43104 0.0
O267 O 0.89428 0.3845 0.43324 0.0
O268 O 0.9033 0.40661 0.6698 0.0
H269 H 0.94858 0.2864 0.7089 0.0
H270 H 0.84624 0.56067 0.62938 0.0
H271 H 0.97008 0.16299 0.74105 0.0
H272 H 0.53455 0.15306 0.31793 0.0
H273 H 0.59228 0.96959 0.30148 0.0
H274 H 0.56215 0.95579 0.22334 0.0
H275 H 0.51662 0.98623 0.16424 0.0
H276 H 0.46113 0.17671 0.17788 0.0
H277 H 0.49258 0.19601 0.25411 0.0
C278 C 0.54125 0.11242 0.29666 0.0
C279 C 0.56589 0.06371 0.31443 0.0
C280 C 0.52346 0.10389 0.25246 0.0
C281 C 0.57372 0.00864 0.28758 0.0
C282 C 0.55629 1.00016 0.24337 0.0
C283 C 0.5112 0.03252 0.18346 0.0
C284 C 0.48514 0.07758 0.16564 0.0
C285 C 0.53054 0.04584 0.22612 0.0
C286 C 0.47931 0.13771 0.19127 0.0
C287 C 0.49798 0.1501 0.23464 0.0
H288 H 0.52166 0.02839 0.66561 0.0
H289 H 0.46025 0.84826 0.67568 0.0
H290 H 0.49263 0.81822 0.75018 0.0
H291 H 0.53588 0.85448 0.81498 0.0
H292 H 0.59896 0.02758 0.80072 0.0
H293 H 0.56916 0.04638 0.72309 0.0
C294 C 0.51506 0.982 0.68356 0.0
C295 C 0.48685 0.94444 0.66611 0.0
C296 C 0.53478 0.96251 0.72489 0.0
C297 C 0.47995 0.88281 0.68965 0.0
C298 C 0.49913 0.86412 0.73181 0.0
C299 C 0.54387 0.89344 0.79416 0.0
C300 C 0.56982 0.93845 0.81267 0.0
C301 C 0.52619 0.90518 0.75016 0.0
C302 C 0.57941 0.99123 0.78633 0.0
C303 C 0.56212 1.00279 0.74239 0.0
H304 H 0.02646 0.62276 0.17608 0.0
H305 H 0.94514 0.56937 0.21104 0.0
H306 H 0.9695 0.61077 0.28814 0.0
H307 H 1.01487 0.65389 0.34508 0.0
H308 H 0.10006 0.65461 0.31483 0.0
H309 H 0.07389 0.64597 0.23565 0.0
C310 C 1.01399 0.62127 0.20058 0.0
C311 C 0.98295 0.60149 0.18753 0.0
C312 C 0.02913 0.63738 0.24515 0.0
C313 C 0.9676 0.5945 0.21967 0.0
C314 C 0.98192 0.61565 0.26375 0.0
C315 C 0.02792 0.65356 0.32135 0.0
C316 C 0.06001 0.66026 0.33602 0.0
C317 C 1.0127 0.63761 0.27671 0.0
C318 C 0.07591 0.65634 0.30443 0.0
C319 C 0.06071 0.64866 0.25918 0.0
H320 H 0.02272 0.47794 0.81031 0.0
H321 H 0.07958 0.28157 0.8175 0.0
H322 H 0.05319 0.2487 0.74141 0.0
H323 H 1.01353 0.2772 0.67111 0.0
H324 H 0.95394 0.46778 0.66656 0.0
H325 H 0.98046 0.49912 0.74382 0.0
C326 C 0.02945 0.42774 0.79544 0.0
C327 C 0.05446 0.38437 0.81963 0.0
C328 C 1.0128 0.40684 0.75221 0.0
C329 C 0.06203 0.31886 0.79971 0.0
C330 C 0.04632 0.29894 0.75601 0.0
C331 C 1.00612 0.32438 0.68763 0.0
C332 C 0.9813 0.36843 0.66425 0.0
C333 C 0.02172 0.34275 0.73186 0.0
C334 C 0.97211 0.43089 0.68501 0.0
C335 C 0.98763 0.44978 0.72879 0.0
H336 H 0.35298 0.69445 0.05165 0.0
H337 H 0.44088 0.80611 0.08972 0.0
H338 H 0.46592 0.68373 0.10919 0.0
H339 H 0.46302 0.54524 0.11493 0.0
H340 H 0.37498 0.43369 0.07492 0.0
H341 H 0.35007 0.55611 0.05827 0.0
C342 C 0.37764 0.69227 0.06435 0.0
C343 C 0.39491 0.75973 0.06844 0.0
C344 C 0.39195 0.62168 0.07582 0.0
C345 C 0.42687 0.7554 0.08497 0.0
C346 C 0.44126 0.6853 0.09661 0.0
C347 C 0.43835 0.54732 0.1027 0.0
C348 C 0.42116 0.47942 0.09696 0.0
C349 C 0.42402 0.61809 0.09198 0.0
C350 C 0.38914 0.48412 0.08104 0.0
C351 C 0.37473 0.55448 0.07086 0.0
H352 H 0.66352 0.72161 0.38492 0.0
H353 H 0.60794 0.78494 0.4691 0.0
H354 H 0.58466 0.65925 0.4591 0.0
H355 H 0.58132 0.52952 0.42906 0.0
H356 H 0.63737 0.4658 0.3457 0.0
H357 H 0.65956 0.59282 0.35387 0.0
C358 C 0.64629 0.7083 0.40116 0.0
C359 C 0.63747 0.76393 0.42738 0.0
C360 C 0.63329 0.63514 0.39598 0.0
C361 C 0.61494 0.74487 0.44788 0.0
C362 C 0.60174 0.6723 0.44257 0.0
C363 C 0.59829 0.54324 0.41241 0.0
C364 C 0.60786 0.48698 0.38737 0.0
C365 C 0.61089 0.61686 0.41695 0.0
C366 C 0.62995 0.5065 0.36618 0.0
C367 C 0.64253 0.57969 0.37048 0.0
H368 H 0.58455 0.48205 0.92722 0.0
H369 H 0.64709 0.54755 0.85413 0.0
H370 H 0.66948 0.42123 0.86487 0.0
H371 H 0.67187 0.29264 0.89551 0.0
H372 H 0.60956 0.22743 0.96904 0.0
H373 H 0.58611 0.35243 0.95628 0.0
C374 C 0.60299 0.46891 0.91335 0.0
C375 C 0.61431 0.52549 0.89053 0.0
C376 C 0.61567 0.39567 0.91926 0.0
C377 C 0.63827 0.50665 0.87291 0.0
C378 C 0.65097 0.43385 0.87866 0.0
C379 C 0.65312 0.30544 0.90878 0.0
C380 C 0.64249 0.24965 0.93289 0.0
C381 C 0.63998 0.37812 0.90201 0.0
C382 C 0.61801 0.26781 0.94952 0.0
C383 C 0.6047 0.33993 0.94265 0.0
H384 H 0.42851 0.27128 0.59038 0.0
H385 H 0.33381 0.3358 0.54953 0.0
H386 H 0.34822 0.47011 0.55829 0.0
H387 H 0.38784 0.56968 0.5764 0.0
H388 H 0.48259 0.50383 0.62011 0.0
H389 H 0.46798 0.37045 0.61134 0.0
C390 C 0.41106 0.31478 0.58288 0.0
C391 C 0.38015 0.29355 0.56871 0.0
C392 C 0.41948 0.392 0.58886 0.0
C393 C 0.3578 0.35067 0.56031 0.0
C394 C 0.36601 0.42754 0.56539 0.0
C395 C 0.40534 0.52642 0.58491 0.0
C396 C 0.43635 0.54758 0.59908 0.0
C397 C 0.39681 0.44903 0.5798 0.0
C398 C 0.45853 0.48981 0.60892 0.0
C399 C 0.45024 0.41316 0.60387 0.0
H400 H 0.86028 0.2225 0.10303 0.0
H401 H 0.94369 0.31261 0.08503 0.0
H402 H 0.96607 0.18699 0.09571 0.0
H403 H 0.96291 0.05263 0.11184 0.0
H404 H 0.8812 0.96269 0.13545 0.0
H405 H 0.85754 0.08718 0.12083 0.0
C406 C 0.88337 0.2149 0.1014 0.0
C407 C 0.89981 0.27753 0.09222 0.0
C408 C 0.89659 0.14234 0.10867 0.0
C409 C 0.92981 0.26599 0.09048 0.0
C410 C 0.94291 0.19391 0.09716 0.0
C411 C 0.93993 0.05974 0.11402 0.0
C412 C 0.92399 0.99719 0.12436 0.0
C413 C 0.92656 0.13186 0.10643 0.0
C414 C 0.89411 0.00847 0.12669 0.0
C415 C 0.88052 0.08019 0.11867 0.0
H416 H 0.18186 0.20203 0.46153 0.0
H417 H 0.09332 0.27983 0.38421 0.0
H418 H 0.0775 0.14866 0.36256 0.0
H419 H 0.09233 0.01537 0.35564 0.0
H420 H 0.18031 0.93686 0.43493 0.0
H421 H 0.19287 0.0643 0.46668 0.0
C422 C 0.15878 0.18962 0.44127 0.0
C423 C 0.13869 0.24981 0.42442 0.0
C424 C 0.14996 0.11419 0.42897 0.0
C425 C 0.10894 0.23391 0.39784 0.0
C426 C 0.10004 0.15911 0.38515 0.0
C427 C 0.11382 0.02589 0.38098 0.0
C428 C 0.13543 0.96735 0.39295 0.0
C429 C 0.12081 0.09923 0.39902 0.0
C430 C 0.16326 0.98112 0.42563 0.0
C431 C 0.17054 0.0541 0.44342 0.0
H432 H 0.07708 0.93298 0.87795 0.0
H433 H 0.16559 0.04129 0.92168 0.0
H434 H 0.18979 0.91745 0.9379 0.0
H435 H 0.18573 0.77938 0.94438 0.0
H436 H 0.09712 0.67123 0.90145 0.0
H437 H 0.07319 0.79449 0.88147 0.0
C438 C 0.10171 0.9297 0.89079 0.0
C439 C 0.11935 0.99683 0.89816 0.0
C440 C 0.1155 0.85836 0.9011 0.0
C441 C 0.15128 0.99108 0.91463 0.0
C442 C 0.16519 0.92008 0.9245 0.0
C443 C 0.16117 0.7824 0.93042 0.0
C444 C 0.14336 0.71566 0.92548 0.0
C445 C 0.14748 0.85352 0.9185 0.0
C446 C 0.11154 0.72125 0.90713 0.0
C447 C 0.09777 0.79188 0.89515 0.0
H448 H 0.857 0.79346 0.57297 0.0
H449 H 0.94961 0.71458 0.603 0.0
H450 H 0.96846 0.84486 0.62077 0.0
H451 H 0.95839 0.9789 0.63563 0.0
H452 H 0.86564 0.05837 0.60192 0.0
H453 H 0.84696 0.93057 0.57712 0.0
C454 C 0.88129 0.80525 0.58256 0.0
C455 C 0.90193 0.74478 0.58692 0.0
C456 C 0.89187 0.88024 0.59233 0.0
C457 C 0.93332 0.76041 0.59913 0.0
C458 C 0.94408 0.83476 0.60962 0.0
C459 C 0.93412 0.96833 0.62207 0.0
C460 C 0.91341 0.02779 0.6208 0.0
C461 C 0.92357 0.89478 0.60751 0.0
C462 C 0.88203 0.0137 0.60292 0.0
C463 C 0.87133 0.94049 0.58906 0.0
H464 H 0.30465 0.13516 0.97201 0.0
H465 H 0.33835 0.30058 0.07677 0.0
H466 H 0.28683 0.34989 0.06449 0.0
H467 H 0.23178 0.34572 0.02404 0.0
H468 H 0.1987 0.17973 0.91937 0.0
H469 H 0.25006 0.13032 0.93226 0.0
C470 C 0.30082 0.18255 0.99184 0.0
C471 C 0.32544 0.21425 0.02508 0.0
C472 C 0.27104 0.20991 0.98513 0.0
C473 C 0.31987 0.27504 0.05087 0.0
C474 C 0.29035 0.30313 0.04403 0.0
C475 C 0.23579 0.2982 0.00446 0.0
C476 C 0.21135 0.2666 0.9708 0.0
C477 C 0.26566 0.27063 0.01148 0.0
C478 C 0.21705 0.20541 0.94542 0.0
C479 C 0.24648 0.17718 0.95261 0.0
H480 H 0.73177 0.14318 0.50728 0.0
H481 H 0.69683 0.31996 0.41098 0.0
H482 H 0.74768 0.37637 0.42741 0.0
H483 H 0.8023 0.37657 0.4702 0.0
H484 H 0.83671 0.19762 0.56543 0.0
H485 H 0.7862 0.1407 0.54778 0.0
C486 C 0.73524 0.19442 0.49018 0.0
C487 C 0.71051 0.22759 0.45828 0.0
C488 C 0.76462 0.22582 0.49917 0.0
C489 C 0.7155 0.2933 0.43582 0.0
C490 C 0.7446 0.32553 0.44507 0.0
C491 C 0.79879 0.32454 0.48653 0.0
C492 C 0.82328 0.29172 0.51915 0.0
C493 C 0.76941 0.29217 0.47661 0.0
C494 C 0.81826 0.22451 0.54033 0.0
C495 C 0.78932 0.19188 0.53042 0.0
H496 H 0.73501 0.87052 0.01834 0.0
H497 H 0.7052 0.70649 0.91181 0.0
H498 H 0.75664 0.65505 0.92948 0.0
H499 H 0.81025 0.65553 0.97542 0.0
H500 H 0.84025 0.81987 0.08176 0.0
H501 H 0.78897 0.87251 0.06349 0.0
C502 C 0.73971 0.82312 0.99923 0.0
C503 C 0.71612 0.79237 0.96391 0.0
C504 C 0.76958 0.79423 0.00917 0.0
C505 C 0.72283 0.73148 0.93917 0.0
C506 C 0.75232 0.70202 0.94917 0.0
C507 C 0.80571 0.70351 0.99424 0.0
C508 C 0.82926 0.73359 0.02987 0.0
C509 C 0.77595 0.73312 0.98394 0.0
C510 C 0.82268 0.79534 0.05415 0.0
C511 C 0.79326 0.82542 0.04386 0.0
H512 H 0.22345 0.74674 0.42969 0.0
H513 H 0.23311 0.63716 0.55603 0.0
H514 H 0.28525 0.68673 0.58423 0.0
H515 H 0.32786 0.76265 0.57295 0.0
H516 H 0.31685 0.87164 0.446 0.0
H517 H 0.26551 0.81974 0.41808 0.0
C518 C 0.2368 0.73351 0.46351 0.0
C519 C 0.22419 0.68829 0.49071 0.0
C520 C 0.26666 0.76171 0.47932 0.0
C521 C 0.24209 0.672 0.53436 0.0
C522 C 0.27197 0.70015 0.55045 0.0
C523 C 0.31435 0.77447 0.53903 0.0
C524 C 0.32635 0.82113 0.51166 0.0
C525 C 0.2845 0.74507 0.52318 0.0
C526 C 0.30833 0.83616 0.4679 0.0
C527 C 0.27887 0.80663 0.45187 0.0
H528 H 0.4048 0.94602 0.88599 0.0
H529 H 0.38257 0.18036 0.85059 0.0
H530 H 0.38393 0.15507 0.77489 0.0
H531 H 0.39106 0.06704 0.7184 0.0
H532 H 0.41332 0.8325 0.75271 0.0
H533 H 0.41215 0.85729 0.82891 0.0
C534 C 0.40026 0.99156 0.86172 0.0
C535 C 0.39351 0.065 0.87412 0.0
C536 C 0.40096 0.9766 0.81791 0.0
C537 C 0.38777 0.12328 0.84215 0.0
C538 C 0.38852 0.10889 0.79873 0.0
C539 C 0.39559 0.02114 0.74244 0.0
C540 C 0.40213 0.94791 0.72966 0.0
C541 C 0.39499 0.03581 0.78619 0.0
C542 C 0.40804 0.88934 0.76147 0.0
C543 C 0.40746 0.90352 0.80513 0.0
H544 H 0.61894 0.96693 0.59402 0.0
H545 H 0.70026 0.1022 0.6471 0.0
H546 H 0.7022 0.06492 0.72254 0.0
H547 H 0.6818 0.99222 0.77369 0.0
H548 H 0.60142 0.85351 0.72192 0.0
H549 H 0.59821 0.89352 0.64604 0.0
C550 C 0.63695 0.9886 0.62214 0.0
C551 C 0.65943 0.03737 0.61475 0.0
C552 C 0.63828 0.96583 0.66576 0.0
C553 C 0.68272 0.06446 0.65163 0.0
C554 C 0.68389 0.04311 0.6949 0.0
C555 C 0.66359 0.97048 0.74586 0.0
C556 C 0.64201 0.91953 0.75361 0.0
C557 C 0.66199 0.99338 0.70236 0.0
C558 C 0.61856 0.89213 0.71698 0.0
C559 C 0.61662 0.91531 0.67354 0.0
H560 H 0.67189 1.00616 0.275 0.0
H561 H 0.59756 0.16005 0.219 0.0
H562 H 0.59625 0.11957 0.14376 0.0
H563 H 0.61741 0.0425 0.09367 0.0
H564 H 0.69247 0.89109 0.15122 0.0
H565 H 0.69206 0.92816 0.22581 0.0
C566 C 0.65538 0.03104 0.2464 0.0
C567 C 0.63507 0.08667 0.25275 0.0
C568 C 0.65484 0.00774 0.20334 0.0
C569 C 0.61374 0.11784 0.21515 0.0
C570 C 0.6129 0.09445 0.17208 0.0
C571 C 0.63351 0.01723 0.12255 0.0
C572 C 0.65502 0.96416 0.11669 0.0
C573 C 0.63349 0.03971 0.16572 0.0
C574 C 0.67577 0.93226 0.15457 0.0
C575 C 0.6756 0.95349 0.19736 0.0
H576 H 0.37177 0.92714 0.34346 0.0
H577 H 0.41731 0.12873 0.40954 0.0
H578 H 0.42462 0.17287 0.33951 0.0
H579 H 0.41786 0.15422 0.25909 0.0
H580 H 0.37244 0.95149 0.1941 0.0
H581 H 0.36539 0.90809 0.26404 0.0
C582 C 0.38329 0.98081 0.34266 0.0
C583 C 0.39381 0.02466 0.38177 0.0
C584 C 0.38743 1.00579 0.30234 0.0
C585 C 0.40877 0.09397 0.37994 0.0
C586 C 0.41301 0.11923 0.33988 0.0
C587 C 0.40634 0.10067 0.26021 0.0
C588 C 0.3956 0.05643 0.22121 0.0
C589 C 0.40236 0.0757 0.30079 0.0
C590 C 0.38093 0.98688 0.22345 0.0
C591 C 0.37686 0.96189 0.2635 0.0
H592 H 0.89 0.32653 0.77922 0.0
H593 H 0.89955 0.53436 0.7118 0.0
H594 H 0.90284 0.60716 0.77972 0.0
H595 H 0.90251 0.61135 0.85838 0.0
H596 H 0.89534 0.40133 0.92565 0.0
H597 H 0.89186 0.32994 0.85778 0.0
C598 C 0.89259 0.38784 0.77922 0.0
C599 C 0.89408 0.42509 0.74033 0.0
C600 C 0.89507 0.42893 0.8185 0.0
C601 C 0.89811 0.50439 0.74123 0.0
C602 C 0.90004 0.54599 0.78007 0.0
C603 C 0.90023 0.54997 0.85818 0.0
C604 C 0.89897 0.51194 0.89707 0.0
C605 C 0.89849 0.50885 0.81894 0.0
C606 C 0.89634 0.43224 0.8963 0.0
C607 C 0.89425 0.39124 0.85742 0.0
H608 H 0.13309 0.41833 0.6018 0.0
H609 H 0.12997 0.65708 0.63247 0.0
H610 H 0.12817 0.62608 0.70709 0.0
H611 H 0.12848 0.5325 0.76458 0.0
H612 H 0.13105 0.29324 0.73557 0.0
H613 H 0.13209 0.32317 0.6598 0.0
C614 C 0.13195 0.46353 0.62478 0.0
C615 C 0.13185 0.54009 0.61128 0.0
C616 C 0.13094 0.44531 0.6682 0.0
C617 C 0.1302 0.59772 0.64165 0.0
C618 C 0.12919 0.58009 0.68454 0.0
C619 C 0.12933 0.48664 0.74183 0.0
C620 C 0.12996 0.41064 0.75612 0.0
C621 C 0.12977 0.50424 0.69832 0.0
C622 C 0.13075 0.35228 0.72574 0.0
C623 C 0.1313 0.3694 0.68231 0.0
H624 H 0.12425 0.54761 0.25038 0.0
H625 H 0.22239 0.55253 0.30179 0.0
H626 H 0.22661 0.50822 0.23013 0.0
H627 H 0.20276 0.47487 0.15187 0.0
H628 H 0.10472 0.47385 0.09875 0.0
H629 H 0.10016 0.50973 0.17188 0.0
C630 C 0.14654 0.53781 0.24608 0.0
C631 C 0.173 0.55324 0.28154 0.0
C632 C 0.14884 0.51376 0.20429 0.0
C633 C 0.20169 0.54122 0.27514 0.0
C634 C 0.20413 0.51604 0.23409 0.0
C635 C 0.18034 0.48206 0.1562 0.0
C636 C 0.15413 0.47175 0.11964 0.0
C637 C 0.1779 0.50333 0.19823 0.0
C638 C 0.12531 0.4814 0.12615 0.0
C639 C 0.12268 0.50196 0.16804 0.0
H640 H 0.89635 0.55693 0.23642 0.0
H641 H 0.91644 0.77566 0.30119 0.0
H642 H 0.91499 0.71931 0.37159 0.0
H643 H 0.90903 0.60726 0.41538 0.0
H644 H 0.88998 0.38836 0.35049 0.0
H645 H 0.89038 0.44539 0.27993 0.0
C646 C 0.90023 0.59254 0.26581 0.0
C647 C 0.90643 0.67064 0.26328 0.0
C648 C 0.89982 0.55956 0.30644 0.0
C649 C 0.91151 0.71552 0.30194 0.0
C650 C 0.91081 0.68325 0.34236 0.0
C651 C 0.90492 0.572 0.38581 0.0
C652 C 0.89941 0.49351 0.38841 0.0
C653 C 0.90518 0.60521 0.3451 0.0
C654 C 0.89428 0.44883 0.34967 0.0
C655 C 0.89444 0.48144 0.30916 0.0
H656 H 0.49577 0.91109 0.04578 0.0
H657 H 0.4512 0.11181 0.97937 0.0
H658 H 0.48789 0.11928 0.93663 0.0
H659 H 0.53596 0.07705 0.92483 0.0
H660 H 0.58318 0.88315 0.9965 0.0
H661 H 0.54391 0.86959 0.03454 0.0
C662 C 0.49352 0.95501 0.02078 0.0
C663 C 0.47024 0.00964 0.01483 0.0
C664 C 0.51654 0.96359 0.00011 0.0
C665 C 0.4679 0.06707 0.98309 0.0
C666 C 0.48964 0.07301 0.95997 0.0
C667 C 0.53801 0.03283 0.94958 0.0
C668 C 0.56273 0.98191 0.95844 0.0
C669 C 0.51473 0.02352 0.96971 0.0
C670 C 0.56496 0.92444 0.99013 0.0
C671 C 0.54205 0.91542 0.01088 0.0
H672 H 0.52886 0.95087 0.42707 0.0
H673 H 0.58469 0.13409 0.49967 0.0
H674 H 0.54708 0.15817 0.53952 0.0
H675 H 0.49837 0.12697 0.55316 0.0
H676 H 0.44477 0.93838 0.48353 0.0
H677 H 0.47975 0.92246 0.43898 0.0
C678 C 0.53305 0.99552 0.45207 0.0
C679 C 0.55972 0.04005 0.46078 0.0
C680 C 0.51078 0.01123 0.47311 0.0
C681 C 0.56476 0.09774 0.49313 0.0
C682 C 0.54289 0.11275 0.51506 0.0
C683 C 0.4938 0.08423 0.52701 0.0
C684 C 0.46855 0.03516 0.52093 0.0
C685 C 0.51561 0.07065 0.50469 0.0
C686 C 0.46317 0.97901 0.48765 0.0
C687 C 0.48385 0.96806 0.46333 0.0
H688 H 1.00533 0.43584 0.07571 0.0
H689 H 0.95572 0.61962 0.99651 0.0
H690 H 0.98871 0.61234 0.94777 0.0
H691 H 0.03348 0.55831 0.93067 0.0
H692 H 0.08256 0.37353 0.00955 0.0
H693 H 0.04967 0.38117 0.05825 0.0
C694 C 1.0013 0.4732 0.04712 0.0
C695 C 0.97752 0.52688 0.03893 0.0
C696 C 0.02148 0.47163 0.02112 0.0
C697 C 0.97292 0.57574 0.00235 0.0
C698 C 0.99239 0.573 0.97535 0.0
C699 C 0.03749 0.52109 0.95932 0.0
C700 C 0.06134 0.46752 0.96766 0.0
C701 C 1.0172 0.52254 0.9852 0.0
C702 C 0.06563 0.41806 0.00393 0.0
C703 C 0.04613 0.42081 0.03084 0.0
H704 H 0.03396 0.65258 0.47936 0.0
H705 H 0.09031 0.46037 0.47348 0.0
H706 H 0.0562 0.37685 0.49918 0.0
H707 H 1.00887 0.35878 0.51938 0.0
H708 H 0.95186 0.55057 0.5237 0.0
H709 H 0.98594 0.63394 0.49774 0.0
C710 C 0.03921 0.59265 0.48505 0.0
C711 C 0.0654 0.56276 0.47647 0.0
C712 C 1.01818 0.54477 0.49626 0.0
C713 C 0.07142 0.48497 0.48241 0.0
C714 C 0.05127 0.4371 0.49551 0.0
C715 C 1.00342 0.41851 0.51313 0.0
C716 C 0.97739 0.44848 0.52204 0.0
C717 C 0.02422 0.46624 0.50133 0.0
C718 C 0.97089 0.52593 0.51506 0.0
C719 C 0.99098 0.57377 0.50173 0.0
loop_
_geom_bond_atom_site_label_1
_geom_bond_atom_site_label_2
_geom_bond_distance
_geom_bond_site_symmetry_2
_ccdc_geom_bond_type
Zn0 N4 2.020 . S
Zn0 O8 2.019 . S
Zn0 N10 2.119 . S
Zn0 O18 1.975 . S
C1 N2 1.334 . S
C1 N5 1.336 . S
N2 C1 1.334 . S
N2 C3 1.334 . S
C3 N2 1.334 . S
C3 N4 1.336 . S
N4 Zn0 2.020 . S
N4 C3 1.336 . S
N4 N5 1.354 . S
N5 C1 1.336 . S
N5 N4 1.354 . S
N5 Zn9 2.020 . S
C6 O7 1.244 . S
C6 O30 1.257 . S
O7 C6 1.244 . S
O8 Zn0 2.019 . S
O8 C28 1.257 . S
Zn9 N5 2.020 . S
Zn9 O16 1.975 . S
Zn9 N25 2.119 1_545 S
Zn9 O30 2.019 1_554 S
N10 Zn0 2.119 . S
N10 C12 1.334 . S
N10 C13 1.328 . S
C11 C12 1.391 . S
C11 N14 1.329 . S
C11 H32 0.930 . S
C12 N10 1.334 . S
C12 C11 1.391 . S
C12 H19 0.930 . S
C13 N10 1.328 . S
C13 C15 1.392 . S
C13 H20 0.930 . S
N14 C11 1.329 . S
N14 C15 1.331 . S
C15 C13 1.392 . S
C15 N14 1.331 . S
O16 Zn9 1.975 . S
O16 C17 1.252 . S
C17 O16 1.252 . S
C17 O18 1.252 . S
O18 Zn0 1.975 . S
O18 C17 1.252 . S
H19 C12 0.930 . S
H20 C13 0.930 . S
C21 C22 1.392 . S
C21 N25 1.328 . S
C21 H27 0.930 1_554 S
C22 C21 1.392 . S
C22 N26 1.331 . S
C23 C24 1.391 . S
C23 N26 1.329 . S
C23 H33 0.930 . S
C24 C23 1.391 . S
C24 N25 1.334 . S
C24 H31 0.930 . S
N25 Zn9 2.119 1_565 S
N25 C21 1.328 . S
N25 C24 1.334 . S
N26 C22 1.331 . S
N26 C23 1.329 . S
H27 C21 0.930 1_556 S
C28 O8 1.257 . S
C28 O29 1.244 . S
O29 C28 1.244 . S
O30 C6 1.257 . S
O30 Zn9 2.019 1_556 S
H31 C24 0.930 . S
H32 C11 0.930 . S
H33 C23 0.930 . S
Zn34 N38 2.020 . S
Zn34 O42 2.019 . S
Zn34 N44 2.119 1_545 S
Zn34 O52 1.975 . S
C35 N36 1.334 . S
C35 N39 1.336 . S
N36 C35 1.334 . S
N36 C37 1.334 . S
C37 N36 1.334 . S
C37 N38 1.336 . S
N38 Zn34 2.020 . S
N38 C37 1.336 . S
N38 N39 1.354 . S
N39 C35 1.336 . S
N39 N38 1.354 . S
N39 Zn43 2.020 . S
C40 O41 1.244 . S
C40 O64 1.257 . S
O41 C40 1.244 . S
O42 Zn34 2.019 . S
O42 C62 1.257 . S
Zn43 N39 2.020 . S
Zn43 O50 1.975 . S
Zn43 N59 2.119 . S
Zn43 O64 2.019 . S
N44 Zn34 2.119 1_565 S
N44 C46 1.334 . S
N44 C47 1.328 . S
C45 C46 1.391 . S
C45 N48 1.329 . S
C45 H66 0.930 . S
C46 N44 1.334 . S
C46 C45 1.391 . S
C46 H53 0.930 . S
C47 N44 1.328 . S
C47 C49 1.392 . S
C47 H54 0.930 . S
N48 C45 1.329 . S
N48 C49 1.331 . S
C49 C47 1.392 . S
C49 N48 1.331 . S
O50 Zn43 1.975 . S
O50 C51 1.252 . S
C51 O50 1.252 . S
C51 O52 1.252 . S
O52 Zn34 1.975 . S
O52 C51 1.252 . S
H53 C46 0.930 . S
H54 C47 0.930 . S
C55 C56 1.392 . S
C55 N59 1.328 . S
C55 H61 0.930 . S
C56 C55 1.392 . S
C56 N60 1.331 . S
C57 C58 1.391 . S
C57 N60 1.329 . S
C57 H67 0.930 . S
C58 C57 1.391 . S
C58 N59 1.334 . S
C58 H65 0.930 . S
N59 Zn43 2.119 . S
N59 C55 1.328 . S
N59 C58 1.334 . S
N60 C56 1.331 . S
N60 C57 1.329 . S
H61 C55 0.930 . S
C62 O42 1.257 . S
C62 O63 1.244 . S
O63 C62 1.244 . S
O64 C40 1.257 . S
O64 Zn43 2.019 . S
H65 C58 0.930 . S
H66 C45 0.930 . S
H67 C57 0.930 . S
Zn68 N72 2.020 . S
Zn68 O76 2.019 . S
Zn68 N78 2.119 . S
Zn68 O86 1.975 . S
C69 N70 1.334 . S
C69 N73 1.336 . S
N70 C69 1.334 . S
N70 C71 1.334 . S
C71 N70 1.334 . S
C71 N72 1.336 . S
N72 Zn68 2.020 . S
N72 C71 1.336 . S
N72 N73 1.354 . S
N73 C69 1.336 . S
N73 N72 1.354 . S
N73 Zn77 2.020 . S
C74 O75 1.244 . S
C74 O98 1.257 . S
O75 C74 1.244 . S
O76 Zn68 2.019 . S
O76 C96 1.257 . S
Zn77 N73 2.020 . S
Zn77 O84 1.975 . S
Zn77 N93 2.119 1_565 S
Zn77 O98 2.019 1_556 S
N78 Zn68 2.119 . S
N78 C80 1.334 . S
N78 C81 1.328 . S
C79 C80 1.391 . S
C79 N82 1.329 . S
C79 H100 0.930 . S
C80 N78 1.334 . S
C80 C79 1.391 . S
C80 H87 0.930 . S
C81 N78 1.328 . S
C81 C83 1.392 . S
C81 H88 0.930 . S
N82 C79 1.329 . S
N82 C83 1.331 . S
C83 C81 1.392 . S
C83 N82 1.331 . S
O84 Zn77 1.975 . S
O84 C85 1.252 . S
C85 O84 1.252 . S
C85 O86 1.252 . S
O86 Zn68 1.975 . S
O86 C85 1.252 . S
H87 C80 0.930 . S
H88 C81 0.930 . S
C89 C90 1.392 . S
C89 N93 1.328 . S
C89 H95 0.930 1_556 S
C90 C89 1.392 . S
C90 N94 1.331 . S
C91 C92 1.391 . S
C91 N94 1.329 . S
C91 H101 0.930 . S
C92 C91 1.391 . S
C92 N93 1.334 . S
C92 H99 0.930 . S
N93 Zn77 2.119 1_545 S
N93 C89 1.328 . S
N93 C92 1.334 . S
N94 C90 1.331 . S
N94 C91 1.329 . S
H95 C89 0.930 1_554 S
C96 O76 1.257 . S
C96 O97 1.244 . S
O97 C96 1.244 . S
O98 C74 1.257 . S
O98 Zn77 2.019 1_554 S
H99 C92 0.930 . S
H100 C79 0.930 . S
H101 C91 0.930 . S
Zn102 N106 2.020 . S
Zn102 O110 2.019 . S
Zn102 N112 2.119 . S
Zn102 O120 1.975 . S
C103 N104 1.334 . S
C103 N107 1.336 . S
N104 C103 1.334 . S
N104 C105 1.334 . S
C105 N104 1.334 . S
C105 N106 1.336 . S
N106 Zn102 2.020 . S
N106 C105 1.336 . S
N106 N107 1.354 . S
N107 C103 1.336 . S
N107 N106 1.354 . S
N107 Zn111 2.020 . S
C108 O109 1.244 . S
C108 O132 1.257 . S
O109 C108 1.244 . S
O110 Zn102 2.019 . S
O110 C130 1.257 . S
Zn111 N107 2.020 . S
Zn111 O118 1.975 . S
Zn111 N127 2.119 1_565 S
Zn111 O132 2.019 . S
N112 Zn102 2.119 . S
N112 C114 1.334 . S
N112 C115 1.328 . S
C113 C114 1.391 . S
C113 N116 1.329 . S
C113 H134 0.930 . S
C114 N112 1.334 . S
C114 C113 1.391 . S
C114 H121 0.930 . S
C115 N112 1.328 . S
C115 C117 1.392 . S
C115 H122 0.930 . S
N116 C113 1.329 . S
N116 C117 1.331 . S
C117 C115 1.392 . S
C117 N116 1.331 . S
O118 Zn111 1.975 . S
O118 C119 1.252 . S
C119 O118 1.252 . S
C119 O120 1.252 . S
O120 Zn102 1.975 . S
O120 C119 1.252 . S
H121 C114 0.930 . S
H122 C115 0.930 . S
C123 C124 1.392 . S
C123 N127 1.328 . S
C123 H129 0.930 . S
C124 C123 1.392 . S
C124 N128 1.331 . S
C125 C126 1.391 . S
C125 N128 1.329 . S
C125 H135 0.930 . S
C126 C125 1.391 . S
C126 N127 1.334 . S
C126 H133 0.930 . S
N127 Zn111 2.119 1_545 S
N127 C123 1.328 . S
N127 C126 1.334 . S
N128 C124 1.331 . S
N128 C125 1.329 . S
H129 C123 0.930 . S
C130 O110 1.257 . S
C130 O131 1.244 . S
O131 C130 1.244 . S
O132 C108 1.257 . S
O132 Zn111 2.019 . S
H133 C126 0.930 . S
H134 C113 0.930 . S
H135 C125 0.930 . S
Zn136 N140 2.020 . S
Zn136 O144 2.019 . S
Zn136 N146 2.119 . S
Zn136 O154 1.975 . S
C137 N138 1.334 . S
C137 N141 1.336 . S
N138 C137 1.334 . S
N138 C139 1.334 . S
C139 N138 1.334 . S
C139 N140 1.336 . S
N140 Zn136 2.020 . S
N140 C139 1.336 . S
N140 N141 1.354 . S
N141 C137 1.336 . S
N141 N140 1.354 . S
N141 Zn145 2.020 . S
C142 O143 1.244 . S
C142 O166 1.257 . S
O143 C142 1.244 . S
O144 Zn136 2.019 . S
O144 C164 1.257 . S
Zn145 N141 2.020 . S
Zn145 O152 1.975 . S
Zn145 N161 2.119 . S
Zn145 O166 2.019 1_554 S
N146 Zn136 2.119 . S
N146 C148 1.334 . S
N146 C149 1.328 . S
C147 C148 1.391 . S
C147 N150 1.329 . S
C147 H168 0.930 . S
C148 N146 1.334 . S
C148 C147 1.391 . S
C148 H155 0.930 . S
C149 N146 1.328 . S
C149 C151 1.392 . S
C149 H156 0.930 . S
N150 C147 1.329 . S
N150 C151 1.331 . S
C151 C149 1.392 . S
C151 N150 1.331 . S
O152 Zn145 1.975 . S
O152 C153 1.252 . S
C153 O152 1.252 . S
C153 O154 1.252 . S
O154 Zn136 1.975 . S
O154 C153 1.252 . S
H155 C148 0.930 . S
H156 C149 0.930 . S
C157 C158 1.392 . S
C157 N161 1.328 . S
C157 H163 0.930 1_554 S
C158 C157 1.392 . S
C158 N162 1.331 . S
C159 C160 1.391 . S
C159 N162 1.329 . S
C159 H169 0.930 . S
C160 C159 1.391 . S
C160 N161 1.334 . S
C160 H167 0.930 . S
N161 Zn145 2.119 . S
N161 C157 1.328 . S
N161 C160 1.334 . S
N162 C158 1.331 . S
N162 C159 1.329 . S
H163 C157 0.930 1_556 S
C164 O144 1.257 . S
C164 O165 1.244 . S
O165 C164 1.244 . S
O166 C142 1.257 . S
O166 Zn145 2.019 1_556 S
H167 C160 0.930 . S
H168 C147 0.930 . S
H169 C159 0.930 . S
Zn170 N174 2.020 . S
Zn170 O178 2.019 . S
Zn170 N180 2.119 . S
Zn170 O188 1.975 . S
C171 N172 1.334 . S
C171 N175 1.336 . S
N172 C171 1.334 . S
N172 C173 1.334 . S
C173 N172 1.334 . S
C173 N174 1.336 . S
N174 Zn170 2.020 . S
N174 C173 1.336 . S
N174 N175 1.354 . S
N175 C171 1.336 . S
N175 N174 1.354 . S
N175 Zn179 2.020 . S
C176 O177 1.244 . S
C176 O200 1.257 . S
O177 C176 1.244 . S
O178 Zn170 2.019 . S
O178 C198 1.257 . S
Zn179 N175 2.020 . S
Zn179 O186 1.975 . S
Zn179 N195 2.119 . S
Zn179 O200 2.019 . S
N180 Zn170 2.119 . S
N180 C182 1.334 . S
N180 C183 1.328 . S
C181 C182 1.391 . S
C181 N184 1.329 . S
C181 H202 0.930 . S
C182 N180 1.334 . S
C182 C181 1.391 . S
C182 H189 0.930 . S
C183 N180 1.328 . S
C183 C185 1.392 . S
C183 H190 0.930 . S
N184 C181 1.329 . S
N184 C185 1.331 . S
C185 C183 1.392 . S
C185 N184 1.331 . S
O186 Zn179 1.975 . S
O186 C187 1.252 . S
C187 O186 1.252 . S
C187 O188 1.252 . S
O188 Zn170 1.975 . S
O188 C187 1.252 . S
H189 C182 0.930 . S
H190 C183 0.930 . S
C191 C192 1.392 . S
C191 N195 1.328 . S
C191 H197 0.930 . S
C192 C191 1.392 . S
C192 N196 1.331 . S
C193 C194 1.391 . S
C193 N196 1.329 . S
C193 H203 0.930 . S
C194 C193 1.391 . S
C194 N195 1.334 . S
C194 H201 0.930 . S
N195 Zn179 2.119 . S
N195 C191 1.328 . S
N195 C194 1.334 . S
N196 C192 1.331 . S
N196 C193 1.329 . S
H197 C191 0.930 . S
C198 O178 1.257 . S
C198 O199 1.244 . S
O199 C198 1.244 . S
O200 C176 1.257 . S
O200 Zn179 2.019 . S
H201 C194 0.930 . S
H202 C181 0.930 . S
H203 C193 0.930 . S
Zn204 N208 2.020 . S
Zn204 O212 2.019 . S
Zn204 N214 2.119 . S
Zn204 O222 1.975 . S
C205 N206 1.334 . S
C205 N209 1.336 . S
N206 C205 1.334 . S
N206 C207 1.334 . S
C207 N206 1.334 . S
C207 N208 1.336 . S
N208 Zn204 2.020 . S
N208 C207 1.336 . S
N208 N209 1.354 . S
N209 C205 1.336 . S
N209 N208 1.354 . S
N209 Zn213 2.020 . S
C210 O211 1.244 . S
C210 O234 1.257 . S
O211 C210 1.244 . S
O212 Zn204 2.019 . S
O212 C232 1.257 . S
Zn213 N209 2.020 . S
Zn213 O220 1.975 . S
Zn213 N229 2.119 . S
Zn213 O234 2.019 1_556 S
N214 Zn204 2.119 . S
N214 C216 1.334 . S
N214 C217 1.328 . S
C215 C216 1.391 . S
C215 N218 1.329 . S
C215 H236 0.930 . S
C216 N214 1.334 . S
C216 C215 1.391 . S
C216 H223 0.930 . S
C217 N214 1.328 . S
C217 C219 1.392 . S
C217 H224 0.930 . S
N218 C215 1.329 . S
N218 C219 1.331 . S
C219 C217 1.392 . S
C219 N218 1.331 . S
O220 Zn213 1.975 . S
O220 C221 1.252 . S
C221 O220 1.252 . S
C221 O222 1.252 . S
O222 Zn204 1.975 . S
O222 C221 1.252 . S
H223 C216 0.930 . S
H224 C217 0.930 . S
C225 C226 1.392 . S
C225 N229 1.328 . S
C225 H231 0.930 1_556 S
C226 C225 1.392 . S
C226 N230 1.331 . S
C227 C228 1.391 . S
C227 N230 1.329 . S
C227 H237 0.930 . S
C228 C227 1.391 . S
C228 N229 1.334 . S
C228 H235 0.930 . S
N229 Zn213 2.119 . S
N229 C225 1.328 . S
N229 C228 1.334 . S
N230 C226 1.331 . S
N230 C227 1.329 . S
H231 C225 0.930 1_554 S
C232 O212 1.257 . S
C232 O233 1.244 . S
O233 C232 1.244 . S
O234 C210 1.257 . S
O234 Zn213 2.019 1_554 S
H235 C228 0.930 . S
H236 C215 0.930 . S
H237 C227 0.930 . S
Zn238 N242 2.020 . S
Zn238 O246 2.019 . S
Zn238 N248 2.119 . S
Zn238 O256 1.975 . S
C239 N240 1.334 . S
C239 N243 1.336 . S
N240 C239 1.334 . S
N240 C241 1.334 . S
C241 N240 1.334 . S
C241 N242 1.336 . S
N242 Zn238 2.020 . S
N242 C241 1.336 . S
N242 N243 1.354 . S
N243 C239 1.336 . S
N243 N242 1.354 . S
N243 Zn247 2.020 . S
C244 O245 1.244 . S
C244 O268 1.257 . S
O245 C244 1.244 . S
O246 Zn238 2.019 . S
O246 C266 1.257 . S
Zn247 N243 2.020 . S
Zn247 O254 1.975 . S
Zn247 N263 2.119 . S
Zn247 O268 2.019 . S
N248 Zn238 2.119 . S
N248 C250 1.334 . S
N248 C251 1.328 . S
C249 C250 1.391 . S
C249 N252 1.329 . S
C249 H270 0.930 . S
C250 N248 1.334 . S
C250 C249 1.391 . S
C250 H257 0.930 . S
C251 N248 1.328 . S
C251 C253 1.392 . S
C251 H258 0.930 . S
N252 C249 1.329 . S
N252 C253 1.331 . S
C253 C251 1.392 . S
C253 N252 1.331 . S
O254 Zn247 1.975 . S
O254 C255 1.252 . S
C255 O254 1.252 . S
C255 O256 1.252 . S
O256 Zn238 1.975 . S
O256 C255 1.252 . S
H257 C250 0.930 . S
H258 C251 0.930 . S
C259 C260 1.392 . S
C259 N263 1.328 . S
C259 H265 0.930 . S
C260 C259 1.392 . S
C260 N264 1.331 . S
C261 C262 1.391 . S
C261 N264 1.329 . S
C261 H271 0.930 . S
C262 C261 1.391 . S
C262 N263 1.334 . S
C262 H269 0.930 . S
N263 Zn247 2.119 . S
N263 C259 1.328 . S
N263 C262 1.334 . S
N264 C260 1.331 . S
N264 C261 1.329 . S
H265 C259 0.930 . S
C266 O246 1.257 . S
C266 O267 1.244 . S
O267 C266 1.244 . S
O268 C244 1.257 . S
O268 Zn247 2.019 . S
H269 C262 0.930 . S
H270 C249 0.930 . S
H271 C261 0.930 . S
H272 C278 0.930 . S
H273 C281 0.936 . S
H274 C282 0.930 1_565 S
H275 C283 0.930 . S
H276 C286 0.930 . S
H277 C287 0.930 . S
C278 H272 0.930 . S
C278 C279 1.355 . S
C278 C280 1.415 . S
C279 C278 1.355 . S
C279 C281 1.419 . S
C280 C278 1.415 . S
C280 C285 1.425 . S
C280 C287 1.409 . S
C281 H273 0.936 . S
C281 C279 1.419 . S
C281 C282 1.362 . S
C282 H274 0.930 1_545 S
C282 C281 1.362 . S
C282 C285 1.409 . S
C283 H275 0.930 . S
C283 C284 1.355 . S
C283 C285 1.415 . S
C284 C283 1.355 . S
C284 C286 1.419 . S
C285 C280 1.425 . S
C285 C282 1.409 . S
C285 C283 1.415 . S
C286 H276 0.930 . S
C286 C284 1.419 . S
C286 C287 1.362 . S
C287 H277 0.930 . S
C287 C280 1.409 . S
C287 C286 1.362 . S
H288 C294 0.930 . S
H289 C297 0.930 . S
H290 C298 0.930 . S
H291 C299 0.930 . S
H292 C302 0.930 . S
H293 C303 0.930 . S
C294 H288 0.930 . S
C294 C295 1.355 . S
C294 C296 1.415 . S
C295 C294 1.355 . S
C295 C297 1.419 . S
C296 C294 1.415 . S
C296 C301 1.425 . S
C296 C303 1.409 . S
C297 H289 0.930 . S
C297 C295 1.419 . S
C297 C298 1.362 . S
C298 H290 0.930 . S
C298 C297 1.362 . S
C298 C301 1.409 . S
C299 H291 0.930 . S
C299 C300 1.355 . S
C299 C301 1.415 . S
C300 C299 1.355 . S
C300 C302 1.419 . S
C301 C296 1.425 . S
C301 C298 1.409 . S
C301 C299 1.415 . S
C302 H292 0.930 . S
C302 C300 1.419 . S
C302 C303 1.362 . S
C303 H293 0.930 . S
C303 C296 1.409 . S
C303 C302 1.362 . S
H304 C310 0.930 . S
H305 C313 0.930 . S
H306 C314 0.930 . S
H307 C315 0.930 . S
H308 C318 0.930 . S
H309 C319 0.930 . S
C310 H304 0.930 . S
C310 C311 1.355 . S
C310 C312 1.415 1_655 S
C311 C310 1.355 . S
C311 C313 1.419 . S
C312 C310 1.415 1_455 S
C312 C317 1.425 1_455 S
C312 C319 1.409 . S
C313 H305 0.930 . S
C313 C311 1.419 . S
C313 C314 1.362 . S
C314 H306 0.930 . S
C314 C313 1.362 . S
C314 C317 1.409 . S
C315 H307 0.930 . S
C315 C316 1.355 . S
C315 C317 1.415 1_455 S
C316 C315 1.355 . S
C316 C318 1.419 . S
C317 C312 1.425 1_655 S
C317 C314 1.409 . S
C317 C315 1.415 1_655 S
C318 H308 0.930 . S
C318 C316 1.419 . S
C318 C319 1.362 . S
C319 H309 0.930 . S
C319 C312 1.409 . S
C319 C318 1.362 . S
H320 C326 0.930 . S
H321 C329 0.930 . S
H322 C330 0.930 . S
H323 C331 0.930 . S
H324 C334 0.930 . S
H325 C335 0.930 . S
C326 H320 0.930 . S
C326 C327 1.355 . S
C326 C328 1.415 . S
C327 C326 1.355 . S
C327 C329 1.419 . S
C328 C326 1.415 . S
C328 C333 1.425 1_455 S
C328 C335 1.409 . S
C329 H321 0.930 . S
C329 C327 1.419 . S
C329 C330 1.362 1_455 S
C330 H322 0.930 . S
C330 C329 1.362 1_655 S
C330 C333 1.409 . S
C331 H323 0.930 . S
C331 C332 1.355 . S
C331 C333 1.415 . S
C332 C331 1.355 . S
C332 C334 1.419 . S
C333 C328 1.425 1_655 S
C333 C330 1.409 . S
C333 C331 1.415 . S
C334 H324 0.930 . S
C334 C332 1.419 . S
C334 C335 1.362 1_655 S
C335 H325 0.930 . S
C335 C328 1.409 . S
C335 C334 1.362 1_455 S
H336 C342 0.930 1_556 S
H337 C345 0.930 . S
H338 C346 0.930 . S
H339 C347 0.930 . S
H340 C350 0.930 . S
H341 C351 0.930 1_556 S
C342 H336 0.930 1_554 S
C342 C343 1.355 . S
C342 C344 1.415 . S
C343 C342 1.355 . S
C343 C345 1.419 . S
C344 C342 1.415 . S
C344 C349 1.425 . S
C344 C351 1.409 . S
C345 H337 0.930 . S
C345 C343 1.419 . S
C345 C346 1.362 . S
C346 H338 0.930 . S
C346 C345 1.362 . S
C346 C349 1.409 . S
C347 H339 0.930 . S
C347 C348 1.355 . S
C347 C349 1.415 . S
C348 C347 1.355 . S
C348 C350 1.419 . S
C349 C344 1.425 . S
C349 C346 1.409 . S
C349 C347 1.415 . S
C350 H340 0.930 . S
C350 C348 1.419 . S
C350 C351 1.362 . S
C351 H341 0.930 1_554 S
C351 C344 1.409 . S
C351 C350 1.362 . S
H352 C358 0.930 . S
H353 C361 0.930 . S
H354 C362 0.930 . S
H355 C363 0.930 . S
H356 C366 0.930 . S
H357 C367 0.930 . S
C358 H352 0.930 . S
C358 C359 1.355 . S
C358 C360 1.415 . S
C359 C358 1.355 . S
C359 C361 1.419 . S
C360 C358 1.415 . S
C360 C365 1.425 . S
C360 C367 1.409 . S
C361 H353 0.930 . S
C361 C359 1.419 . S
C361 C362 1.362 . S
C362 H354 0.930 . S
C362 C361 1.362 . S
C362 C365 1.409 . S
C363 H355 0.930 . S
C363 C364 1.355 . S
C363 C365 1.415 . S
C364 C363 1.355 . S
C364 C366 1.419 . S
C365 C360 1.425 . S
C365 C362 1.409 . S
C365 C363 1.415 . S
C366 H356 0.930 . S
C366 C364 1.419 . S
C366 C367 1.362 . S
C367 H357 0.930 . S
C367 C360 1.409 . S
C367 C366 1.362 . S
H368 C374 0.930 . S
H369 C377 0.930 . S
H370 C378 0.930 . S
H371 C379 0.930 . S
H372 C382 0.930 . S
H373 C383 0.930 . S
C374 H368 0.930 . S
C374 C375 1.355 . S
C374 C376 1.415 . S
C375 C374 1.355 . S
C375 C377 1.419 . S
C376 C374 1.415 . S
C376 C381 1.425 . S
C376 C383 1.409 1_556 S
C377 H369 0.930 . S
C377 C375 1.419 . S
C377 C378 1.362 . S
C378 H370 0.930 . S
C378 C377 1.362 . S
C378 C381 1.409 . S
C379 H371 0.930 . S
C379 C380 1.355 . S
C379 C381 1.415 . S
C380 C379 1.355 . S
C380 C382 1.419 1_556 S
C381 C376 1.425 . S
C381 C378 1.409 . S
C381 C379 1.415 . S
C382 H372 0.930 . S
C382 C380 1.419 1_554 S
C382 C383 1.362 . S
C383 H373 0.930 . S
C383 C376 1.409 1_554 S
C383 C382 1.362 . S
H384 C390 0.930 . S
H385 C393 0.930 . S
H386 C394 0.930 . S
H387 C395 0.930 . S
H388 C398 0.930 . S
H389 C399 0.930 . S
C390 H384 0.930 . S
C390 C391 1.355 . S
C390 C392 1.415 . S
C391 C390 1.355 . S
C391 C393 1.419 . S
C392 C390 1.415 . S
C392 C397 1.425 . S
C392 C399 1.409 . S
C393 H385 0.930 . S
C393 C391 1.419 . S
C393 C394 1.362 . S
C394 H386 0.930 . S
C394 C393 1.362 . S
C394 C397 1.409 . S
C395 H387 0.930 . S
C395 C396 1.355 . S
C395 C397 1.415 . S
C396 C395 1.355 . S
C396 C398 1.419 . S
C397 C392 1.425 . S
C397 C394 1.409 . S
C397 C395 1.415 . S
C398 H388 0.930 . S
C398 C396 1.419 . S
C398 C399 1.362 . S
C399 H389 0.930 . S
C399 C392 1.409 . S
C399 C398 1.362 . S
H400 C406 0.930 . S
H401 C409 0.930 1_556 S
H402 C410 0.930 . S
H403 C411 0.930 1_565 S
H404 C414 0.930 1_565 S
H405 C415 0.930 . S
C406 H400 0.930 . S
C406 C407 1.355 . S
C406 C408 1.415 . S
C407 C406 1.355 . S
C407 C409 1.419 . S
C408 C406 1.415 . S
C408 C413 1.425 . S
C408 C415 1.409 . S
C409 H401 0.930 1_554 S
C409 C407 1.419 . S
C409 C410 1.362 . S
C410 H402 0.930 . S
C410 C409 1.362 . S
C410 C413 1.409 . S
C411 H403 0.930 1_545 S
C411 C412 1.355 1_545 S
C411 C413 1.415 . S
C412 C411 1.355 1_565 S
C412 C414 1.419 1_565 S
C413 C408 1.425 . S
C413 C410 1.409 . S
C413 C411 1.415 . S
C414 H404 0.930 1_545 S
C414 C412 1.419 1_545 S
C414 C415 1.362 . S
C415 H405 0.930 . S
C415 C408 1.409 . S
C415 C414 1.362 . S
H416 C422 0.930 . S
H417 C425 0.930 . S
H418 C426 0.930 . S
H419 C427 0.930 1_565 S
H420 C430 0.930 1_565 S
H421 C431 0.930 . S
C422 H416 0.930 . S
C422 C423 1.355 . S
C422 C424 1.415 . S
C423 C422 1.355 . S
C423 C425 1.419 . S
C424 C422 1.415 . S
C424 C429 1.425 . S
C424 C431 1.409 . S
C425 H417 0.930 . S
C425 C423 1.419 . S
C425 C426 1.362 . S
C426 H418 0.930 . S
C426 C425 1.362 . S
C426 C429 1.409 . S
C427 H419 0.930 1_545 S
C427 C428 1.355 1_545 S
C427 C429 1.415 . S
C428 C427 1.355 1_565 S
C428 C430 1.419 1_565 S
C429 C424 1.425 . S
C429 C426 1.409 . S
C429 C427 1.415 . S
C430 H420 0.930 1_545 S
C430 C428 1.419 1_545 S
C430 C431 1.362 . S
C431 H421 0.930 . S
C431 C424 1.409 . S
C431 C430 1.362 . S
H432 C438 0.930 . S
H433 C441 0.930 . S
H434 C442 0.930 . S
H435 C443 0.930 . S
H436 C446 0.930 . S
H437 C447 0.930 . S
C438 H432 0.930 . S
C438 C439 1.355 1_565 S
C438 C440 1.415 . S
C439 C438 1.355 1_545 S
C439 C441 1.419 . S
C440 C438 1.415 . S
C440 C445 1.425 . S
C440 C447 1.409 . S
C441 H433 0.930 . S
C441 C439 1.419 . S
C441 C442 1.362 1_545 S
C442 H434 0.930 . S
C442 C441 1.362 1_565 S
C442 C445 1.409 . S
C443 H435 0.930 . S
C443 C444 1.355 . S
C443 C445 1.415 . S
C444 C443 1.355 . S
C444 C446 1.419 . S
C445 C440 1.425 . S
C445 C442 1.409 . S
C445 C443 1.415 . S
C446 H436 0.930 . S
C446 C444 1.419 . S
C446 C447 1.362 . S
C447 H437 0.930 . S
C447 C440 1.409 . S
C447 C446 1.362 . S
H448 C454 0.930 . S
H449 C457 0.930 . S
H450 C458 0.930 . S
H451 C459 0.930 . S
H452 C462 0.930 . S
H453 C463 0.930 . S
C454 H448 0.930 . S
C454 C455 1.355 . S
C454 C456 1.415 . S
C455 C454 1.355 . S
C455 C457 1.419 . S
C456 C454 1.415 . S
C456 C461 1.425 . S
C456 C463 1.409 . S
C457 H449 0.930 . S
C457 C455 1.419 . S
C457 C458 1.362 . S
C458 H450 0.930 . S
C458 C457 1.362 . S
C458 C461 1.409 . S
C459 H451 0.930 . S
C459 C460 1.355 . S
C459 C461 1.415 1_545 S
C460 C459 1.355 . S
C460 C462 1.419 1_545 S
C461 C456 1.425 . S
C461 C458 1.409 . S
C461 C459 1.415 1_565 S
C462 H452 0.930 . S
C462 C460 1.419 1_565 S
C462 C463 1.362 . S
C463 H453 0.930 . S
C463 C456 1.409 . S
C463 C462 1.362 . S
H464 C470 0.930 . S
H465 C473 0.930 . S
H466 C474 0.930 . S
H467 C475 0.930 . S
H468 C478 0.930 . S
H469 C479 0.930 . S
C470 H464 0.930 . S
C470 C471 1.355 1_556 S
C470 C472 1.415 . S
C471 C470 1.355 1_554 S
C471 C473 1.419 . S
C472 C470 1.415 . S
C472 C477 1.425 1_556 S
C472 C479 1.409 . S
C473 H465 0.930 . S
C473 C471 1.419 . S
C473 C474 1.362 . S
C474 H466 0.930 . S
C474 C473 1.362 . S
C474 C477 1.409 . S
C475 H467 0.930 . S
C475 C476 1.355 1_554 S
C475 C477 1.415 . S
C476 C475 1.355 1_556 S
C476 C478 1.419 . S
C477 C472 1.425 1_554 S
C477 C474 1.409 . S
C477 C475 1.415 . S
C478 H468 0.930 . S
C478 C476 1.419 . S
C478 C479 1.362 . S
C479 H469 0.930 . S
C479 C472 1.409 . S
C479 C478 1.362 . S
H480 C486 0.930 . S
H481 C489 0.930 . S
H482 C490 0.930 . S
H483 C491 0.930 . S
H484 C494 0.930 . S
H485 C495 0.930 . S
C486 H480 0.930 . S
C486 C487 1.355 . S
C486 C488 1.415 . S
C487 C486 1.355 . S
C487 C489 1.419 . S
C488 C486 1.415 . S
C488 C493 1.425 . S
C488 C495 1.409 . S
C489 H481 0.930 . S
C489 C487 1.419 . S
C489 C490 1.362 . S
C490 H482 0.930 . S
C490 C489 1.362 . S
C490 C493 1.409 . S
C491 H483 0.930 . S
C491 C492 1.355 . S
C491 C493 1.415 . S
C492 C491 1.355 . S
C492 C494 1.419 . S
C493 C488 1.425 . S
C493 C490 1.409 . S
C493 C491 1.415 . S
C494 H484 0.930 . S
C494 C492 1.419 . S
C494 C495 1.362 . S
C495 H485 0.930 . S
C495 C488 1.409 . S
C495 C494 1.362 . S
H496 C502 0.930 . S
H497 C505 0.930 . S
H498 C506 0.930 . S
H499 C507 0.930 . S
H500 C510 0.930 . S
H501 C511 0.930 . S
C502 H496 0.930 . S
C502 C503 1.355 . S
C502 C504 1.415 1_556 S
C503 C502 1.355 . S
C503 C505 1.419 . S
C504 C502 1.415 1_554 S
C504 C509 1.425 1_554 S
C504 C511 1.409 . S
C505 H497 0.930 . S
C505 C503 1.419 . S
C505 C506 1.362 . S
C506 H498 0.930 . S
C506 C505 1.362 . S
C506 C509 1.409 . S
C507 H499 0.930 . S
C507 C508 1.355 . S
C507 C509 1.415 1_554 S
C508 C507 1.355 . S
C508 C510 1.419 . S
C509 C504 1.425 1_556 S
C509 C506 1.409 . S
C509 C507 1.415 1_556 S
C510 H500 0.930 . S
C510 C508 1.419 . S
C510 C511 1.362 . S
C511 H501 0.930 . S
C511 C504 1.409 . S
C511 C510 1.362 . S
H512 C518 0.930 . S
H513 C521 0.930 . S
H514 C522 0.930 . S
H515 C523 0.930 . S
H516 C526 0.930 . S
H517 C527 0.930 . S
C518 H512 0.930 . S
C518 C519 1.355 . S
C518 C520 1.415 . S
C519 C518 1.355 . S
C519 C521 1.419 . S
C520 C518 1.415 . S
C520 C525 1.425 . S
C520 C527 1.409 . S
C521 H513 0.930 . S
C521 C519 1.419 . S
C521 C522 1.362 . S
C522 H514 0.930 . S
C522 C521 1.362 . S
C522 C525 1.409 . S
C523 H515 0.930 . S
C523 C524 1.355 . S
C523 C525 1.415 . S
C524 C523 1.355 . S
C524 C526 1.419 . S
C525 C520 1.425 . S
C525 C522 1.409 . S
C525 C523 1.415 . S
C526 H516 0.930 . S
C526 C524 1.419 . S
C526 C527 1.362 . S
C527 H517 0.930 . S
C527 C520 1.409 . S
C527 C526 1.362 . S
H528 C534 0.930 . S
H529 C537 0.930 . S
H530 C538 0.930 . S
H531 C539 0.930 . S
H532 C542 0.930 . S
H533 C543 0.930 . S
C534 H528 0.930 . S
C534 C535 1.355 1_565 S
C534 C536 1.415 . S
C535 C534 1.355 1_545 S
C535 C537 1.419 . S
C536 C534 1.415 . S
C536 C541 1.425 . S
C536 C543 1.409 . S
C537 H529 0.930 . S
C537 C535 1.419 . S
C537 C538 1.362 . S
C538 H530 0.930 . S
C538 C537 1.362 . S
C538 C541 1.409 1_545 S
C539 H531 0.930 . S
C539 C540 1.355 . S
C539 C541 1.415 . S
C540 C539 1.355 . S
C540 C542 1.419 . S
C541 C536 1.425 . S
C541 C538 1.409 1_565 S
C541 C539 1.415 . S
C542 H532 0.930 . S
C542 C540 1.419 . S
C542 C543 1.362 . S
C543 H533 0.930 . S
C543 C536 1.409 . S
C543 C542 1.362 . S
H544 C550 0.930 . S
H545 C553 0.930 . S
H546 C554 0.930 . S
H547 C555 0.930 . S
H548 C558 0.930 . S
H549 C559 0.930 . S
C550 H544 0.930 . S
C550 C551 1.355 . S
C550 C552 1.415 1_545 S
C551 C550 1.355 . S
C551 C553 1.419 . S
C552 C550 1.415 1_565 S
C552 C557 1.425 . S
C552 C559 1.409 . S
C553 H545 0.930 . S
C553 C551 1.419 . S
C553 C554 1.362 1_545 S
C554 H546 0.930 . S
C554 C553 1.362 1_565 S
C554 C557 1.409 . S
C555 H547 0.930 . S
C555 C556 1.355 . S
C555 C557 1.415 . S
C556 C555 1.355 . S
C556 C558 1.419 . S
C557 C552 1.425 . S
C557 C554 1.409 . S
C557 C555 1.415 . S
C558 H548 0.930 . S
C558 C556 1.419 . S
C558 C559 1.362 . S
C559 H549 0.930 . S
C559 C552 1.409 . S
C559 C558 1.362 . S
H560 C566 0.930 . S
H561 C569 0.930 . S
H562 C570 0.930 . S
H563 C571 0.930 . S
H564 C574 0.930 . S
H565 C575 0.930 . S
C566 H560 0.930 . S
C566 C567 1.355 . S
C566 C568 1.415 . S
C567 C566 1.355 . S
C567 C569 1.419 . S
C568 C566 1.415 . S
C568 C573 1.425 . S
C568 C575 1.409 1_545 S
C569 H561 0.930 . S
C569 C567 1.419 . S
C569 C570 1.362 . S
C570 H562 0.930 . S
C570 C569 1.362 . S
C570 C573 1.409 . S
C571 H563 0.930 . S
C571 C572 1.355 1_545 S
C571 C573 1.415 . S
C572 C571 1.355 1_565 S
C572 C574 1.419 . S
C573 C568 1.425 . S
C573 C570 1.409 . S
C573 C571 1.415 . S
C574 H564 0.930 . S
C574 C572 1.419 . S
C574 C575 1.362 . S
C575 H565 0.930 . S
C575 C568 1.409 1_565 S
C575 C574 1.362 . S
H576 C582 0.930 . S
H577 C585 0.930 . S
H578 C586 0.930 . S
H579 C587 0.930 . S
H580 C590 0.930 . S
H581 C591 0.930 1_565 S
C582 H576 0.930 . S
C582 C583 1.355 . S
C582 C584 1.415 1_565 S
C583 C582 1.355 . S
C583 C585 1.419 1_565 S
C584 C582 1.415 1_545 S
C584 C589 1.425 . S
C584 C591 1.409 . S
C585 H577 0.930 . S
C585 C583 1.419 1_545 S
C585 C586 1.362 . S
C586 H578 0.930 . S
C586 C585 1.362 . S
C586 C589 1.409 . S
C587 H579 0.930 . S
C587 C588 1.355 . S
C587 C589 1.415 . S
C588 C587 1.355 . S
C588 C590 1.419 . S
C589 C584 1.425 . S
C589 C586 1.409 . S
C589 C587 1.415 . S
C590 H580 0.930 . S
C590 C588 1.419 . S
C590 C591 1.362 . S
C591 H581 0.930 1_545 S
C591 C584 1.409 . S
C591 C590 1.362 . S
H592 C598 0.930 . S
H593 C601 0.930 . S
H594 C602 0.930 . S
H595 C603 0.930 . S
H596 C606 0.930 . S
H597 C607 0.930 . S
C598 H592 0.930 . S
C598 C599 1.355 . S
C598 C600 1.415 . S
C599 C598 1.355 . S
C599 C601 1.419 . S
C600 C598 1.415 . S
C600 C605 1.425 . S
C600 C607 1.409 . S
C601 H593 0.930 . S
C601 C599 1.419 . S
C601 C602 1.362 . S
C602 H594 0.930 . S
C602 C601 1.362 . S
C602 C605 1.409 . S
C603 H595 0.930 . S
C603 C604 1.355 . S
C603 C605 1.415 . S
C604 C603 1.355 . S
C604 C606 1.419 . S
C605 C600 1.425 . S
C605 C602 1.409 . S
C605 C603 1.415 . S
C606 H596 0.930 . S
C606 C604 1.419 . S
C606 C607 1.362 . S
C607 H597 0.930 . S
C607 C600 1.409 . S
C607 C606 1.362 . S
H608 C614 0.930 . S
H609 C617 0.930 . S
H610 C618 0.930 . S
H611 C619 0.930 . S
H612 C622 0.930 . S
H613 C623 0.930 . S
C614 H608 0.930 . S
C614 C615 1.355 . S
C614 C616 1.415 . S
C615 C614 1.355 . S
C615 C617 1.419 . S
C616 C614 1.415 . S
C616 C621 1.425 . S
C616 C623 1.409 . S
C617 H609 0.930 . S
C617 C615 1.419 . S
C617 C618 1.362 . S
C618 H610 0.930 . S
C618 C617 1.362 . S
C618 C621 1.409 . S
C619 H611 0.930 . S
C619 C620 1.355 . S
C619 C621 1.415 . S
C620 C619 1.355 . S
C620 C622 1.419 . S
C621 C616 1.425 . S
C621 C618 1.409 . S
C621 C619 1.415 . S
C622 H612 0.930 . S
C622 C620 1.419 . S
C622 C623 1.362 . S
C623 H613 0.930 . S
C623 C616 1.409 . S
C623 C622 1.362 . S
H624 C630 0.930 . S
H625 C633 0.930 . S
H626 C634 0.930 . S
H627 C635 0.930 . S
H628 C638 0.930 . S
H629 C639 0.930 . S
C630 H624 0.930 . S
C630 C631 1.355 . S
C630 C632 1.415 . S
C631 C630 1.355 . S
C631 C633 1.419 . S
C632 C630 1.415 . S
C632 C637 1.425 . S
C632 C639 1.409 . S
C633 H625 0.930 . S
C633 C631 1.419 . S
C633 C634 1.362 . S
C634 H626 0.930 . S
C634 C633 1.362 . S
C634 C637 1.409 . S
C635 H627 0.930 . S
C635 C636 1.355 . S
C635 C637 1.415 . S
C636 C635 1.355 . S
C636 C638 1.419 . S
C637 C632 1.425 . S
C637 C634 1.409 . S
C637 C635 1.415 . S
C638 H628 0.930 . S
C638 C636 1.419 . S
C638 C639 1.362 . S
C639 H629 0.930 . S
C639 C632 1.409 . S
C639 C638 1.362 . S
H640 C646 0.930 . S
H641 C649 0.930 . S
H642 C650 0.930 . S
H643 C651 0.930 . S
H644 C654 0.930 . S
H645 C655 0.930 . S
C646 H640 0.930 . S
C646 C647 1.355 . S
C646 C648 1.415 . S
C647 C646 1.355 . S
C647 C649 1.419 . S
C648 C646 1.415 . S
C648 C653 1.425 . S
C648 C655 1.409 . S
C649 H641 0.930 . S
C649 C647 1.419 . S
C649 C650 1.362 . S
C650 H642 0.930 . S
C650 C649 1.362 . S
C650 C653 1.409 . S
C651 H643 0.930 . S
C651 C652 1.355 . S
C651 C653 1.415 . S
C652 C651 1.355 . S
C652 C654 1.419 . S
C653 C648 1.425 . S
C653 C650 1.409 . S
C653 C651 1.415 . S
C654 H644 0.930 . S
C654 C652 1.419 . S
C654 C655 1.362 . S
C655 H645 0.930 . S
C655 C648 1.409 . S
C655 C654 1.362 . S
H656 C662 0.930 . S
H657 C665 0.930 . S
H658 C666 0.930 . S
H659 C667 0.930 . S
H660 C670 0.930 . S
H661 C671 0.930 . S
C662 H656 0.930 . S
C662 C663 1.355 1_565 S
C662 C664 1.415 1_554 S
C663 C662 1.355 1_545 S
C663 C665 1.419 . S
C664 C662 1.415 1_556 S
C664 C669 1.425 1_566 S
C664 C671 1.409 . S
C665 H657 0.930 . S
C665 C663 1.419 . S
C665 C666 1.362 . S
C666 H658 0.930 . S
C666 C665 1.362 . S
C666 C669 1.409 . S
C667 H659 0.930 . S
C667 C668 1.355 1_545 S
C667 C669 1.415 1_556 S
C668 C667 1.355 1_565 S
C668 C670 1.419 . S
C669 C664 1.425 1_544 S
C669 C666 1.409 . S
C669 C667 1.415 1_554 S
C670 H660 0.930 . S
C670 C668 1.419 . S
C670 C671 1.362 . S
C671 H661 0.930 . S
C671 C664 1.409 . S
C671 C670 1.362 . S
H672 C678 0.930 . S
H673 C681 0.930 . S
H674 C682 0.930 . S
H675 C683 0.930 . S
H676 C686 0.930 . S
H677 C687 0.930 . S
C678 H672 0.930 . S
C678 C679 1.355 . S
C678 C680 1.415 . S
C679 C678 1.355 . S
C679 C681 1.419 . S
C680 C678 1.415 . S
C680 C685 1.425 1_545 S
C680 C687 1.409 1_545 S
C681 H673 0.930 . S
C681 C679 1.419 . S
C681 C682 1.362 . S
C682 H674 0.930 . S
C682 C681 1.362 . S
C682 C685 1.409 1_545 S
C683 H675 0.930 . S
C683 C684 1.355 . S
C683 C685 1.415 . S
C684 C683 1.355 . S
C684 C686 1.419 . S
C685 C680 1.425 1_565 S
C685 C682 1.409 1_565 S
C685 C683 1.415 . S
C686 H676 0.930 . S
C686 C684 1.419 . S
C686 C687 1.362 . S
C687 H677 0.930 . S
C687 C680 1.409 1_565 S
C687 C686 1.362 . S
H688 C694 0.930 . S
H689 C697 0.930 . S
H690 C698 0.930 . S
H691 C699 0.930 . S
H692 C702 0.930 . S
H693 C703 0.930 . S
C694 H688 0.930 . S
C694 C695 1.355 1_556 S
C694 C696 1.415 . S
C695 C694 1.355 1_554 S
C695 C697 1.419 . S
C696 C694 1.415 . S
C696 C701 1.425 1_656 S
C696 C703 1.409 . S
C697 H689 0.930 . S
C697 C695 1.419 . S
C697 C698 1.362 1_655 S
C698 H690 0.930 . S
C698 C697 1.362 1_455 S
C698 C701 1.409 . S
C699 H691 0.930 . S
C699 C700 1.355 1_554 S
C699 C701 1.415 . S
C700 C699 1.355 1_556 S
C700 C702 1.419 . S
C701 C696 1.425 1_454 S
C701 C698 1.409 . S
C701 C699 1.415 . S
C702 H692 0.930 . S
C702 C700 1.419 . S
C702 C703 1.362 1_455 S
C703 H693 0.930 . S
C703 C696 1.409 . S
C703 C702 1.362 1_655 S
H704 C710 0.930 . S
H705 C713 0.930 . S
H706 C714 0.930 . S
H707 C715 0.930 . S
H708 C718 0.930 . S
H709 C719 0.930 . S
C710 H704 0.930 . S
C710 C711 1.355 . S
C710 C712 1.415 . S
C711 C710 1.355 . S
C711 C713 1.419 . S
C712 C710 1.415 . S
C712 C717 1.425 1_455 S
C712 C719 1.409 . S
C713 H705 0.930 . S
C713 C711 1.419 . S
C713 C714 1.362 1_455 S
C714 H706 0.930 . S
C714 C713 1.362 1_655 S
C714 C717 1.409 . S
C715 H707 0.930 . S
C715 C716 1.355 . S
C715 C717 1.415 . S
C716 C715 1.355 . S
C716 C718 1.419 . S
C717 C712 1.425 1_655 S
C717 C714 1.409 . S
C717 C715 1.415 . S
C718 H708 0.930 . S
C718 C716 1.419 . S
C718 C719 1.362 1_655 S
C719 H709 0.930 . S
C719 C712 1.409 . S
C719 C718 1.362 1_455 S
C279 C35 1.668 . S
C284 C3 1.721 . S
C295 C105 1.682 . S
C300 C71 1.677 . S
C311 C139 1.717 . S
C316 C173 1.729 . S
C327 C207 1.672 . S
C332 C239 1.689 . S
C343 C22 1.409 . S
C348 C15 1.421 . S
C359 C49 1.538 . S
C364 C56 1.548 . S
C375 C83 1.548 . S
C380 C90 1.539 . S
C391 C124 1.409 . S
C396 C117 1.421 . S
C407 C158 1.507 . S
C412 C151 1.514 . S
C423 C192 1.490 . S
C428 C185 1.504 . S
C439 C219 1.467 . S
C444 C226 1.452 . S
C455 C253 1.517 . S
C460 C260 1.525 . S
C471 C17 1.826 . S
C476 C221 1.826 . S
C487 C51 1.786 . S
C492 C255 1.786 . S
C503 C85 1.786 . S
C508 C153 1.786 . S
C519 C187 1.788 . S
C524 C119 1.788 . S
C535 C6 1.640 . S
C540 C130 1.627 . S
C551 C62 1.647 . S
C556 C96 1.611 . S
C567 C40 1.639 . S
C572 C74 1.655 . S
C583 C108 1.619 . S
C588 C28 1.602 . S
C599 C244 1.568 . S
C604 C142 1.606 . S
C615 C176 1.640 . S
C620 C232 1.627 . S
C631 C198 1.582 . S
C636 C210 1.625 . S
C647 C164 1.625 . S
C652 C266 1.638 . S
C663 C1 1.798 . S
C668 C69 1.798 . S
C679 C37 1.849 . S
C684 C103 1.849 . S
C695 C137 1.807 . S
C700 C205 1.807 . S
C711 C171 1.816 . S
C716 C241 1.816 . S
