# Generated by pormake.
# Topology sow, (4)-cn, num edge types: 1
# Building blocks:
#     Node 0, Type 0, BuildingBlock: NAWXER_clean_sbu_0, # of connection points: 4
#     Node 1, Type 0, BuildingBlock: NAWXER_clean_sbu_0, # of connection points: 4
#     Node 2, Type 0, BuildingBlock: NAWXER_clean_sbu_0, # of connection points: 4
#     Node 3, Type 0, BuildingBlock: NAWXER_clean_sbu_0, # of connection points: 4
#     Node 4, Type 0, BuildingBlock: NAWXER_clean_sbu_0, # of connection points: 4
#     Node 5, Type 0, BuildingBlock: NAWXER_clean_sbu_0, # of connection points: 4
#     Node 6, Type 0, BuildingBlock: NAWXER_clean_sbu_0, # of connection points: 4
#     Node 7, Type 0, BuildingBlock: NAWXER_clean_sbu_0, # of connection points: 4
#     Edge 8, Type (0, 0), BuildingBlock: MIFKUJ_clean_linker_0, # of connection points: 2
#     Edge 9, Type (0, 0), BuildingBlock: MIFKUJ_clean_linker_0, # of connection points: 2
#     Edge 10, Type (0, 0), BuildingBlock: MIFKUJ_clean_linker_0, # of connection points: 2
#     Edge 11, Type (0, 0), BuildingBlock: MIFKUJ_clean_linker_0, # of connection points: 2
#     Edge 12, Type (0, 0), BuildingBlock: MIFKUJ_clean_linker_0, # of connection points: 2
#     Edge 13, Type (0, 0), BuildingBlock: MIFKUJ_clean_linker_0, # of connection points: 2
#     Edge 14, Type (0, 0), BuildingBlock: MIFKUJ_clean_linker_0, # of connection points: 2
#     Edge 15, Type (0, 0), BuildingBlock: MIFKUJ_clean_linker_0, # of connection points: 2
#     Edge 16, Type (0, 0), BuildingBlock: MIFKUJ_clean_linker_0, # of connection points: 2
#     Edge 17, Type (0, 0), BuildingBlock: MIFKUJ_clean_linker_0, # of connection points: 2
#     Edge 18, Type (0, 0), BuildingBlock: MIFKUJ_clean_linker_0, # of connection points: 2
#     Edge 19, Type (0, 0), BuildingBlock: MIFKUJ_clean_linker_0, # of connection points: 2
#     Edge 20, Type (0, 0), BuildingBlock: MIFKUJ_clean_linker_0, # of connection points: 2
#     Edge 21, Type (0, 0), BuildingBlock: MIFKUJ_clean_linker_0, # of connection points: 2
#     Edge 22, Type (0, 0), BuildingBlock: MIFKUJ_clean_linker_0, # of connection points: 2
#     Edge 23, Type (0, 0), BuildingBlock: MIFKUJ_clean_linker_0, # of connection points: 2
# Relax obj value: 0.113
# Max RMSD: 0.238
# Mean RMSD: 0.237
data_MOF--net-sow--node1-NAWXER_clean_sbu_0--edge1-MIFKUJ_clean_linker_0
_symmetry_space_group_name_H-M    P1
_symmetry_Int_Tables_number       1
_symmetry_cell_setting            triclinic
loop_
_symmetry_equiv_pos_as_xyz
'x, y, z'
_cell_length_a     56.830048
_cell_length_b     25.183339
_cell_length_c     29.69481
_cell_angle_alpha  90.00643
_cell_angle_beta   89.970905
_cell_angle_gamma 89.96655
loop_
_atom_site_label
_atom_site_type_symbol
_atom_site_fract_x
_atom_site_fract_y
_atom_site_fract_z
_atom_type_partial_charge
C0 C 0.17477 0.18629 0.13892 0.0
C1 C 0.113 0.11867 0.04205 0.0
O2 O 0.16806 0.1389 0.13242 0.0
Zn3 Zn 0.14546 0.15298 0.08634 0.0
O4 O 0.16579 0.22399 0.11542 0.0
Zn5 Zn 0.13904 0.22984 0.06355 0.0
O6 O 0.11654 0.27668 0.09058 0.0
O7 O 0.1186 0.19763 0.12259 0.0
O8 O 0.11541 0.16912 0.03757 0.0
O9 O 0.12763 0.09308 0.06596 0.0
O10 O 0.166 0.17514 0.02794 0.0
O11 O 0.15519 0.25695 0.01209 0.0
C12 C 0.10928 0.24404 0.12008 0.0
C13 C 0.16775 0.21673 0.00317 0.0
C14 C 0.32793 0.29962 0.63671 0.0
C15 C 0.39019 0.3777 0.5466 0.0
O16 O 0.33322 0.34809 0.63101 0.0
Zn17 Zn 0.35731 0.33834 0.58729 0.0
O18 O 0.33866 0.26382 0.61359 0.0
Zn19 Zn 0.36643 0.26345 0.56276 0.0
O20 O 0.38988 0.2192 0.58964 0.0
O21 O 0.38404 0.29535 0.62523 0.0
O22 O 0.38883 0.32739 0.54055 0.0
O23 O 0.37458 0.40094 0.57001 0.0
O24 O 0.33812 0.31516 0.52776 0.0
O25 O 0.35245 0.23705 0.5086 0.0
C26 C 0.3949 0.25083 0.62152 0.0
C27 C 0.33843 0.27513 0.50104 0.0
C28 C 0.67641 0.31958 0.85638 0.0
C29 C 0.61519 0.38916 0.95427 0.0
O30 O 0.67099 0.36733 0.86514 0.0
Zn31 Zn 0.64728 0.35381 0.90967 0.0
O32 O 0.666 0.2819 0.87761 0.0
Zn33 Zn 0.6391 0.27648 0.92898 0.0
O34 O 0.61587 0.23382 0.89994 0.0
O35 O 0.61914 0.31471 0.87185 0.0
O36 O 0.61658 0.33832 0.9567 0.0
O37 O 0.63062 0.41468 0.93217 0.0
O38 O 0.6667 0.32627 0.96765 0.0
O39 O 0.65421 0.24491 0.97995 0.0
C40 C 0.60887 0.26923 0.87256 0.0
C41 C 0.66741 0.28331 0.99087 0.0
C42 C 0.82807 0.19823 0.35837 0.0
C43 C 0.891 0.12745 0.45138 0.0
O44 O 0.83312 0.15024 0.36708 0.0
Zn45 Zn 0.85794 0.16346 0.40916 0.0
O46 O 0.83917 0.23561 0.37871 0.0
Zn47 Zn 0.86692 0.24032 0.42876 0.0
O48 O 0.88982 0.28281 0.39856 0.0
O49 O 0.88436 0.20372 0.3679 0.0
O50 O 0.88968 0.17821 0.45452 0.0
O51 O 0.87531 0.10251 0.42951 0.0
O52 O 0.83959 0.19067 0.4685 0.0
O53 O 0.85243 0.27177 0.48062 0.0
C54 C 0.89494 0.24882 0.36849 0.0
C55 C 0.83923 0.2335 0.49191 0.0
C56 C 0.89084 0.86966 0.96096 0.0
C57 C 0.82866 0.80129 0.86511 0.0
O58 O 0.88913 0.81893 0.96399 0.0
Zn59 Zn 0.86613 0.75761 0.93725 0.0
O60 O 0.87549 0.89533 0.93881 0.0
Zn61 Zn 0.85813 0.83499 0.91754 0.0
O62 O 0.83903 0.80883 0.97625 0.0
O63 O 0.85081 0.72689 0.98847 0.0
O64 O 0.83409 0.849 0.87395 0.0
O65 O 0.83913 0.76345 0.88604 0.0
O66 O 0.88915 0.71417 0.90823 0.0
O67 O 0.88532 0.79421 0.87853 0.0
C68 C 0.83801 0.76598 0.99953 0.0
C69 C 0.89554 0.74866 0.8795 0.0
C70 C 0.61509 0.61197 0.46293 0.0
C71 C 0.67597 0.6818 0.36466 0.0
O72 O 0.61638 0.66281 0.46568 0.0
Zn73 Zn 0.63854 0.72486 0.43733 0.0
O74 O 0.63025 0.58691 0.43977 0.0
Zn75 Zn 0.64687 0.64767 0.41765 0.0
O76 O 0.66627 0.67523 0.47566 0.0
O77 O 0.6538 0.75665 0.48806 0.0
O78 O 0.67057 0.63403 0.37331 0.0
O79 O 0.66556 0.71944 0.386 0.0
O80 O 0.61519 0.76728 0.40801 0.0
O81 O 0.61911 0.68688 0.37931 0.0
C82 C 0.66703 0.7182 0.49886 0.0
C83 C 0.60873 0.73224 0.37984 0.0
C84 C 0.39187 0.63384 0.04405 0.0
C85 C 0.32745 0.69586 0.13867 0.0
O86 O 0.38986 0.68461 0.04303 0.0
Zn87 Zn 0.36605 0.74374 0.07046 0.0
O88 O 0.37635 0.60653 0.06434 0.0
Zn89 Zn 0.35801 0.66505 0.08702 0.0
O90 O 0.33968 0.69398 0.02852 0.0
O91 O 0.35142 0.77646 0.01918 0.0
O92 O 0.33319 0.64857 0.12873 0.0
O93 O 0.33814 0.73467 0.11948 0.0
O94 O 0.38816 0.78609 0.10326 0.0
O95 O 0.38392 0.70453 0.12951 0.0
C96 C 0.33886 0.73771 0.00642 0.0
C97 C 0.39387 0.75029 0.13138 0.0
C98 C 0.11341 0.88193 0.54579 0.0
C99 C 0.17715 0.8158 0.6392 0.0
O100 O 0.11505 0.83115 0.54347 0.0
Zn101 Zn 0.1384 0.77049 0.56995 0.0
O102 O 0.12902 0.90787 0.56698 0.0
Zn103 Zn 0.14681 0.84801 0.5882 0.0
O104 O 0.16527 0.82002 0.52911 0.0
O105 O 0.15277 0.7384 0.51828 0.0
O106 O 0.17151 0.8633 0.62995 0.0
O107 O 0.16638 0.77744 0.61947 0.0
O108 O 0.11593 0.7278 0.60109 0.0
O109 O 0.12067 0.80788 0.63025 0.0
C110 C 0.16574 0.77676 0.50626 0.0
C111 C 0.11045 0.76235 0.63046 0.0
H112 H 0.31533 0.19973 0.66513 0.0
H113 H 0.28849 0.1769 0.72682 0.0
H114 H 0.27419 0.34321 0.74845 0.0
H115 H 0.30105 0.3663 0.68761 0.0
H116 H 0.28408 0.29496 0.82586 0.0
H117 H 0.23422 0.26044 0.69774 0.0
H118 H 0.22324 0.21822 0.62584 0.0
H119 H 0.22721 0.06437 0.68772 0.0
H120 H 0.23855 0.10567 0.75988 0.0
H121 H 0.18082 0.30348 0.95442 0.0
H122 H 0.20886 0.30772 0.89236 0.0
H123 H 0.22062 0.13898 0.90252 0.0
H124 H 0.19251 0.13429 0.96527 0.0
H125 H 0.21451 0.1771 0.81221 0.0
H126 H 0.26113 0.2135 0.94228 0.0
H127 H 0.27106 0.25708 0.01414 0.0
H128 H 0.27259 0.40871 0.9481 0.0
H129 H 0.2623 0.36613 0.87593 0.0
C130 C 0.3063 0.23138 0.68278 0.0
C131 C 0.3104 0.28485 0.67149 0.0
C132 C 0.29093 0.21826 0.71797 0.0
C133 C 0.2793 0.25836 0.74224 0.0
C134 C 0.28305 0.31161 0.73038 0.0
C135 C 0.29838 0.32473 0.69542 0.0
C136 C 0.26382 0.24559 0.78106 0.0
C137 C 0.26877 0.26951 0.8227 0.0
C138 C 0.24428 0.21097 0.77742 0.0
C139 C 0.23753 0.1861 0.73404 0.0
C140 C 0.23298 0.21757 0.6959 0.0
C141 C 0.22664 0.19382 0.65512 0.0
C142 C 0.22461 0.13863 0.65217 0.0
C143 C 0.22885 0.1071 0.69003 0.0
C144 C 0.23522 0.13066 0.73088 0.0
C145 C 0.18929 0.26714 0.94352 0.0
C146 C 0.18449 0.21854 0.96494 0.0
C147 C 0.20536 0.2697 0.90808 0.0
C148 C 0.21693 0.22375 0.89314 0.0
C149 C 0.21188 0.17489 0.91369 0.0
C150 C 0.19591 0.17235 0.9496 0.0
C151 C 0.23449 0.22765 0.85639 0.0
C152 C 0.22999 0.20201 0.81534 0.0
C153 C 0.25444 0.26083 0.86043 0.0
C154 C 0.26076 0.28663 0.90374 0.0
C155 C 0.26339 0.25619 0.94313 0.0
C156 C 0.26912 0.2807 0.98392 0.0
C157 C 0.27241 0.33564 0.9857 0.0
C158 C 0.27002 0.36616 0.94667 0.0
C159 C 0.26427 0.34184 0.9058 0.0
H160 H 0.27684 0.35455 0.01731 0.0
H161 H 0.21969 0.12032 0.62057 0.0
H162 H 0.1825 0.12929 0.21509 0.0
H163 H 0.20947 0.14953 0.27648 0.0
H164 H 0.23372 0.28825 0.20463 0.0
H165 H 0.2055 0.26973 0.14429 0.0
H166 H 0.25251 0.15089 0.28469 0.0
H167 H 0.25511 0.38169 0.27528 0.0
H168 H 0.22887 0.45619 0.25539 0.0
H169 H 0.16844 0.35976 0.28435 0.0
H170 H 0.1943 0.28498 0.305 0.0
H171 H 0.34681 0.2297 0.41963 0.0
H172 H 0.31955 0.22066 0.35654 0.0
H173 H 0.26592 0.30231 0.433 0.0
H174 H 0.29383 0.31461 0.49499 0.0
H175 H 0.26087 0.32985 0.35249 0.0
H176 H 0.26904 0.16028 0.42162 0.0
H177 H 0.28962 0.08176 0.45186 0.0
H178 H 0.3182 0.04859 0.32095 0.0
H179 H 0.29802 0.12734 0.29004 0.0
C180 C 0.19355 0.16418 0.21244 0.0
C181 C 0.19189 0.198 0.17498 0.0
C182 C 0.20902 0.17573 0.24756 0.0
C183 C 0.22357 0.2208 0.24568 0.0
C184 C 0.22231 0.25402 0.20764 0.0
C185 C 0.20632 0.24321 0.17297 0.0
C186 C 0.24028 0.23194 0.28319 0.0
C187 C 0.25425 0.19009 0.29945 0.0
C188 C 0.24236 0.28274 0.30339 0.0
C189 C 0.22666 0.32755 0.29115 0.0
C190 C 0.23622 0.37645 0.27749 0.0
C191 C 0.22142 0.41872 0.26609 0.0
C192 C 0.19701 0.41265 0.26843 0.0
C193 C 0.18735 0.36435 0.28236 0.0
C194 C 0.20207 0.32199 0.29387 0.0
C195 C 0.32925 0.24609 0.42273 0.0
C196 C 0.32231 0.27245 0.46221 0.0
C197 C 0.31361 0.24061 0.38679 0.0
C198 C 0.29038 0.25942 0.39031 0.0
C199 C 0.28368 0.28723 0.42936 0.0
C200 C 0.29959 0.29415 0.46483 0.0
C201 C 0.27298 0.24876 0.3539 0.0
C202 C 0.25903 0.29069 0.3377 0.0
C203 C 0.27003 0.1974 0.3352 0.0
C204 C 0.28221 0.15 0.35363 0.0
C205 C 0.27985 0.13644 0.39936 0.0
C206 C 0.29142 0.09187 0.4166 0.0
C207 C 0.30526 0.06029 0.38837 0.0
C208 C 0.3075 0.07314 0.34279 0.0
C209 C 0.29599 0.11771 0.32538 0.0
H210 H 0.3142 0.02579 0.40179 0.0
H211 H 0.18558 0.44541 0.25957 0.0
H212 H 0.82082 0.29297 0.31542 0.0
H213 H 0.79337 0.31139 0.25399 0.0
H214 H 0.7674 0.15062 0.26176 0.0
H215 H 0.79536 0.13149 0.32201 0.0
H216 H 0.77486 0.17475 0.17844 0.0
H217 H 0.73568 0.26267 0.30137 0.0
H218 H 0.73209 0.32504 0.36505 0.0
H219 H 0.74707 0.45592 0.27692 0.0
H220 H 0.75106 0.39423 0.21281 0.0
H221 H 0.6723 0.19831 0.04716 0.0
H222 H 0.69943 0.18843 0.11019 0.0
H223 H 0.72652 0.34578 0.08586 0.0
H224 H 0.6991 0.35639 0.0228 0.0
H225 H 0.71959 0.32725 0.17554 0.0
H226 H 0.7575 0.23847 0.05231 0.0
H227 H 0.76036 0.17556 0.98889 0.0
H228 H 0.74709 0.04529 0.07865 0.0
H229 H 0.74381 0.10751 0.14252 0.0
C230 C 0.8091 0.2617 0.30431 0.0
C231 C 0.81027 0.21076 0.32357 0.0
C232 C 0.79333 0.27234 0.26927 0.0
C233 C 0.7781 0.23256 0.25344 0.0
C234 C 0.77899 0.18196 0.27325 0.0
C235 C 0.79495 0.1711 0.30781 0.0
C236 C 0.76191 0.24268 0.21502 0.0
C237 C 0.76256 0.20771 0.17819 0.0
C238 C 0.74633 0.28663 0.21388 0.0
C239 C 0.74391 0.32376 0.25239 0.0
C240 C 0.73839 0.30471 0.29564 0.0
C241 C 0.73625 0.33995 0.3318 0.0
C242 C 0.73941 0.39439 0.32506 0.0
C243 C 0.74466 0.41373 0.28211 0.0
C244 C 0.74684 0.37865 0.24585 0.0
C245 C 0.68398 0.23094 0.05514 0.0
C246 C 0.68361 0.27806 0.02972 0.0
C247 C 0.69955 0.22512 0.09115 0.0
C248 C 0.71523 0.26607 0.10234 0.0
C249 C 0.71461 0.31362 0.07769 0.0
C250 C 0.69898 0.31954 0.0416 0.0
C251 C 0.73234 0.25879 0.13959 0.0
C252 C 0.73193 0.29436 0.17596 0.0
C253 C 0.7481 0.21527 0.14048 0.0
C254 C 0.75021 0.17772 0.10214 0.0
C255 C 0.75502 0.19645 0.05847 0.0
C256 C 0.75674 0.1609 0.02245 0.0
C257 C 0.75386 0.10648 0.02972 0.0
C258 C 0.7493 0.08747 0.07306 0.0
C259 C 0.74753 0.12285 0.10919 0.0
H260 H 0.7552 0.07902 0.00179 0.0
H261 H 0.73775 0.42161 0.35309 0.0
H262 H 0.7048 0.38959 0.81178 0.0
H263 H 0.73258 0.37066 0.7512 0.0
H264 H 0.71546 0.20405 0.75923 0.0
H265 H 0.68797 0.22254 0.82078 0.0
H266 H 0.76148 0.21628 0.74792 0.0
H267 H 0.69259 0.28313 0.67548 0.0
H268 H 0.66 0.3456 0.66133 0.0
H269 H 0.70956 0.46872 0.62966 0.0
H270 H 0.74247 0.40715 0.64421 0.0
H271 H 0.8118 0.15674 0.53124 0.0
H272 H 0.78447 0.16741 0.59447 0.0
H273 H 0.8028 0.33319 0.60374 0.0
H274 H 0.8301 0.32298 0.54082 0.0
H275 H 0.75489 0.31659 0.60466 0.0
H276 H 0.82382 0.24766 0.67933 0.0
H277 H 0.85574 0.18306 0.69222 0.0
H278 H 0.80484 0.06068 0.71753 0.0
H279 H 0.7726 0.12443 0.70416 0.0
C280 C 0.70697 0.34885 0.80082 0.0
C281 C 0.69403 0.30762 0.82095 0.0
C282 C 0.72281 0.33812 0.766 0.0
C283 C 0.7258 0.28604 0.75003 0.0
C284 C 0.71338 0.24457 0.77084 0.0
C285 C 0.69763 0.25523 0.80597 0.0
C286 C 0.74172 0.27522 0.71132 0.0
C287 C 0.75981 0.23765 0.71637 0.0
C288 C 0.73975 0.30348 0.67024 0.0
C289 C 0.72 0.34063 0.66133 0.0
C290 C 0.69654 0.32363 0.66582 0.0
C291 C 0.67801 0.35886 0.65767 0.0
C292 C 0.68271 0.41113 0.6447 0.0
C293 C 0.70595 0.42823 0.63975 0.0
C294 C 0.72455 0.39317 0.6479 0.0
C295 C 0.81009 0.19542 0.54686 0.0
C296 C 0.82316 0.239 0.53098 0.0
C297 C 0.79451 0.20139 0.58307 0.0
C298 C 0.79169 0.25106 0.60391 0.0
C299 C 0.80471 0.29454 0.58812 0.0
C300 C 0.82038 0.28854 0.55223 0.0
C301 C 0.7748 0.25831 0.64156 0.0
C302 C 0.75648 0.29511 0.6362 0.0
C303 C 0.77644 0.229 0.68209 0.0
C304 C 0.7958 0.19068 0.69025 0.0
C305 C 0.81944 0.20687 0.68725 0.0
C306 C 0.83759 0.17043 0.69472 0.0
C307 C 0.83232 0.11776 0.70555 0.0
C308 C 0.80889 0.10146 0.70906 0.0
C309 C 0.79067 0.13774 0.70157 0.0
H310 H 0.8464 0.08961 0.71134 0.0
H311 H 0.66833 0.43834 0.6384 0.0
H312 H 0.82611 0.6763 0.04574 0.0
H313 H 0.79839 0.66794 0.10816 0.0
H314 H 0.78535 0.83655 0.10407 0.0
H315 H 0.81305 0.84538 0.0411 0.0
H316 H 0.79196 0.79481 0.19268 0.0
H317 H 0.74578 0.76169 0.06095 0.0
H318 H 0.73644 0.71972 0.98811 0.0
H319 H 0.73515 0.56645 0.05138 0.0
H320 H 0.74487 0.60743 0.12452 0.0
H321 H 0.68993 0.77945 0.33376 0.0
H322 H 0.7175 0.79847 0.27254 0.0
H323 H 0.72925 0.63063 0.25404 0.0
H324 H 0.70152 0.61125 0.3146 0.0
H325 H 0.72215 0.67836 0.17512 0.0
H326 H 0.77 0.71007 0.30584 0.0
H327 H 0.77993 0.75098 0.37885 0.0
H328 H 0.77856 0.90564 0.31805 0.0
H329 H 0.76828 0.86568 0.24477 0.0
C330 C 0.81744 0.71173 0.05813 0.0
C331 C 0.82173 0.76151 0.03831 0.0
C332 C 0.80156 0.70682 0.09376 0.0
C333 C 0.78972 0.75156 0.11047 0.0
C334 C 0.79432 0.80155 0.09156 0.0
C335 C 0.81006 0.80646 0.05552 0.0
C336 C 0.77222 0.74549 0.14713 0.0
C337 C 0.77647 0.77009 0.18873 0.0
C338 C 0.75229 0.7124 0.14205 0.0
C339 C 0.74627 0.68761 0.09817 0.0
C340 C 0.7437 0.71899 0.05928 0.0
C341 C 0.7383 0.69539 0.01794 0.0
C342 C 0.73526 0.64044 0.01509 0.0
C343 C 0.73754 0.60901 0.05362 0.0
C344 C 0.74298 0.63241 0.09504 0.0
C345 C 0.69848 0.74659 0.31684 0.0
C346 C 0.69351 0.69381 0.32912 0.0
C347 C 0.71429 0.75755 0.28192 0.0
C348 C 0.72556 0.71598 0.25886 0.0
C349 C 0.72073 0.66333 0.27127 0.0
C350 C 0.70492 0.65234 0.30606 0.0
C351 C 0.74202 0.72701 0.22111 0.0
C352 C 0.73754 0.70337 0.17916 0.0
C353 C 0.76176 0.76084 0.22598 0.0
C354 C 0.76811 0.78492 0.26993 0.0
C355 C 0.77163 0.75284 0.30812 0.0
C356 C 0.77735 0.77584 0.34954 0.0
C357 C 0.7798 0.83088 0.35312 0.0
C358 C 0.77661 0.86301 0.31524 0.0
C359 C 0.77085 0.84021 0.27375 0.0
H360 H 0.78422 0.84862 0.38523 0.0
H361 H 0.73109 0.62225 0.98305 0.0
H362 H 0.67445 0.80566 0.55134 0.0
H363 H 0.70188 0.81522 0.61398 0.0
H364 H 0.7241 0.65268 0.59694 0.0
H365 H 0.69651 0.64254 0.53411 0.0
H366 H 0.71709 0.67928 0.68649 0.0
H367 H 0.75846 0.74951 0.55894 0.0
H368 H 0.7638 0.80596 0.49185 0.0
H369 H 0.75537 0.94575 0.5731 0.0
H370 H 0.74965 0.8901 0.6406 0.0
H371 H 0.81891 0.70538 0.82587 0.0
H372 H 0.79137 0.68749 0.76447 0.0
H373 H 0.77075 0.85244 0.76357 0.0
H374 H 0.79871 0.87086 0.82395 0.0
H375 H 0.77795 0.82032 0.68127 0.0
H376 H 0.73544 0.75122 0.80846 0.0
H377 H 0.72957 0.69555 0.87586 0.0
H378 H 0.73942 0.55486 0.79632 0.0
H379 H 0.7457 0.60973 0.72855 0.0
C380 C 0.68512 0.77182 0.56086 0.0
C381 C 0.68336 0.72338 0.53751 0.0
C382 C 0.70084 0.77744 0.59664 0.0
C383 C 0.71522 0.73485 0.60978 0.0
C384 C 0.7132 0.68607 0.58724 0.0
C385 C 0.69749 0.68043 0.55126 0.0
C386 C 0.73249 0.74176 0.64676 0.0
C387 C 0.73064 0.70957 0.68517 0.0
C388 C 0.74984 0.782 0.64529 0.0
C389 C 0.75342 0.81559 0.60477 0.0
C390 C 0.75757 0.79227 0.56245 0.0
C391 C 0.7607 0.82413 0.52435 0.0
C392 C 0.75987 0.8794 0.5282 0.0
C393 C 0.75598 0.90293 0.57017 0.0
C394 C 0.75282 0.87125 0.60836 0.0
C395 C 0.80838 0.73776 0.81281 0.0
C396 C 0.81101 0.78955 0.82981 0.0
C397 C 0.79257 0.72743 0.7778 0.0
C398 C 0.77879 0.76851 0.75961 0.0
C399 C 0.78121 0.8201 0.77695 0.0
C400 C 0.79717 0.83055 0.81158 0.0
C401 C 0.76239 0.75839 0.72155 0.0
C402 C 0.76446 0.78991 0.68274 0.0
C403 C 0.74519 0.71769 0.72281 0.0
C404 C 0.74129 0.68463 0.76351 0.0
C405 C 0.73654 0.70843 0.8054 0.0
C406 C 0.73311 0.67701 0.84367 0.0
C407 C 0.73419 0.62172 0.8404 0.0
C408 C 0.73863 0.59771 0.79882 0.0
C409 C 0.74211 0.62894 0.76047 0.0
H410 H 0.73153 0.59747 0.87007 0.0
H411 H 0.7623 0.90399 0.49867 0.0
H412 H 0.3114 0.6613 0.96699 0.0
H413 H 0.28465 0.67172 0.90302 0.0
H414 H 0.30379 0.83698 0.8927 0.0
H415 H 0.33044 0.82706 0.95667 0.0
H416 H 0.25635 0.82276 0.88927 0.0
H417 H 0.32494 0.74751 0.81824 0.0
H418 H 0.35636 0.6811 0.80764 0.0
H419 H 0.30455 0.56011 0.7844 0.0
H420 H 0.2728 0.6257 0.79548 0.0
H421 H 0.20653 0.88701 0.67979 0.0
H422 H 0.23456 0.87044 0.74037 0.0
H423 H 0.21637 0.70415 0.73913 0.0
H424 H 0.18861 0.72023 0.67757 0.0
H425 H 0.26252 0.71572 0.74945 0.0
H426 H 0.19399 0.78886 0.81951 0.0
H427 H 0.16195 0.8535 0.83119 0.0
H428 H 0.21259 0.97593 0.8581 0.0
H429 H 0.24496 0.91215 0.846 0.0
C430 C 0.30999 0.69983 0.95102 0.0
C431 C 0.32309 0.74334 0.96695 0.0
C432 C 0.29475 0.70565 0.91434 0.0
C433 C 0.29235 0.75505 0.89289 0.0
C434 C 0.30538 0.79851 0.90875 0.0
C435 C 0.32066 0.79269 0.94525 0.0
C436 C 0.27587 0.76195 0.85455 0.0
C437 C 0.25788 0.79985 0.85846 0.0
C438 C 0.27742 0.73085 0.81494 0.0
C439 C 0.29649 0.69141 0.80815 0.0
C440 C 0.32024 0.70666 0.81124 0.0
C441 C 0.33811 0.66918 0.80508 0.0
C442 C 0.33246 0.61639 0.79548 0.0
C443 C 0.30891 0.601 0.79191 0.0
C444 C 0.29097 0.63832 0.79809 0.0
C445 C 0.20855 0.84682 0.69218 0.0
C446 C 0.1952 0.80499 0.67403 0.0
C447 C 0.22453 0.83745 0.72701 0.0
C448 C 0.22725 0.78622 0.74495 0.0
C449 C 0.21449 0.74405 0.72598 0.0
C450 C 0.19861 0.75333 0.69082 0.0
C451 C 0.24314 0.77702 0.78395 0.0
C452 C 0.26096 0.73861 0.78026 0.0
C453 C 0.24133 0.80737 0.82398 0.0
C454 C 0.2219 0.84582 0.83144 0.0
C455 C 0.1983 0.82965 0.8276 0.0
C456 C 0.18008 0.86612 0.83435 0.0
C457 C 0.18524 0.91882 0.84528 0.0
C458 C 0.20863 0.93512 0.84959 0.0
C459 C 0.22692 0.89881 0.84284 0.0
H460 H 0.1711 0.94699 0.85049 0.0
H461 H 0.34632 0.58743 0.79071 0.0
H462 H 0.29707 0.62473 0.17703 0.0
H463 H 0.26843 0.64117 0.23685 0.0
H464 H 0.28899 0.80605 0.24059 0.0
H465 H 0.31711 0.79022 0.17983 0.0
H466 H 0.27445 0.67016 0.31997 0.0
H467 H 0.24397 0.88358 0.2767 0.0
H468 H 0.23808 0.9404 0.20997 0.0
H469 H 0.22749 0.80215 0.12781 0.0
H470 H 0.233 0.74455 0.19413 0.0
H471 H 0.19555 0.85104 0.46993 0.0
H472 H 0.22256 0.83957 0.40629 0.0
H473 H 0.19858 0.67833 0.38961 0.0
H474 H 0.17177 0.68918 0.45314 0.0
H475 H 0.215 0.81446 0.31741 0.0
H476 H 0.24509 0.60082 0.35928 0.0
H477 H 0.25035 0.54306 0.42563 0.0
H478 H 0.26079 0.68009 0.50932 0.0
H479 H 0.25593 0.73861 0.4434 0.0
C480 C 0.29534 0.66461 0.19027 0.0
C481 C 0.30933 0.7062 0.17352 0.0
C482 C 0.27899 0.67394 0.22459 0.0
C483 C 0.27634 0.72496 0.24306 0.0
C484 C 0.2903 0.76657 0.22634 0.0
C485 C 0.30647 0.7574 0.19167 0.0
C486 C 0.25961 0.73404 0.2809 0.0
C487 C 0.26123 0.70124 0.31903 0.0
C488 C 0.24274 0.77551 0.28039 0.0
C489 C 0.23915 0.80977 0.24032 0.0
C490 C 0.24031 0.86533 0.24442 0.0
C491 C 0.23705 0.89766 0.20666 0.0
C492 C 0.2325 0.87489 0.16465 0.0
C493 C 0.23111 0.81973 0.16033 0.0
C494 C 0.23433 0.78722 0.19799 0.0
C495 C 0.196 0.81316 0.45267 0.0
C496 C 0.18158 0.77094 0.46683 0.0
C497 C 0.2114 0.80674 0.41623 0.0
C498 C 0.21279 0.75791 0.39355 0.0
C499 C 0.19807 0.7161 0.40704 0.0
C500 C 0.18268 0.72248 0.44333 0.0
C501 C 0.22976 0.75027 0.35604 0.0
C502 C 0.22823 0.7834 0.31816 0.0
C503 C 0.24665 0.70892 0.35662 0.0
C504 C 0.2499 0.67409 0.39645 0.0
C505 C 0.24859 0.61861 0.39182 0.0
C506 C 0.25149 0.58574 0.42935 0.0
C507 C 0.25582 0.6079 0.47169 0.0
C508 C 0.25734 0.66298 0.47655 0.0
C509 C 0.25448 0.69602 0.43911 0.0
H510 H 0.25804 0.58239 0.50071 0.0
H511 H 0.23 0.89999 0.13545 0.0
H512 H 0.09482 0.19447 0.19688 0.0
H513 H 0.05723 0.20573 0.23561 0.0
H514 H 0.03845 0.33111 0.1433 0.0
H515 H 0.07641 0.32133 0.10542 0.0
H516 H 0.0213 0.3535 0.22184 0.0
H517 H 0.02126 0.20518 0.12677 0.0
H518 H 0.03599 0.12193 0.09392 0.0
H519 H 0.02301 0.04062 0.21852 0.0
H520 H 0.00951 0.12429 0.25314 0.0
H521 H 0.90056 0.20989 0.28338 0.0
H522 H 0.93479 0.22066 0.23414 0.0
H523 H 0.96853 0.31659 0.33599 0.0
H524 H 0.93377 0.30894 0.38352 0.0
H525 H 0.97521 0.18762 0.24006 0.0
H526 H 0.00969 0.39635 0.29768 0.0
H527 H 0.99332 0.48377 0.31827 0.0
H528 H 0.93028 0.449 0.24432 0.0
H529 H 0.94638 0.36169 0.22275 0.0
C530 C 0.08287 0.22511 0.18537 0.0
C531 C 0.08845 0.25663 0.14783 0.0
C532 C 0.06135 0.23136 0.20739 0.0
C533 C 0.04477 0.26832 0.19161 0.0
C534 C 0.0509 0.30213 0.15591 0.0
C535 C 0.07261 0.29647 0.13428 0.0
C536 C 0.02057 0.26911 0.21045 0.0
C537 C 0.01118 0.3173 0.22588 0.0
C538 C 0.00688 0.22224 0.21356 0.0
C539 C 0.01457 0.17133 0.19275 0.0
C540 C 0.02175 0.16973 0.14739 0.0
C541 C 0.0299 0.1224 0.12842 0.0
C542 C 0.03026 0.07585 0.15395 0.0
C543 C 0.02268 0.0767 0.19872 0.0
C544 C 0.01492 0.12419 0.21816 0.0
C545 C 0.91513 0.23421 0.29466 0.0
C546 C 0.91449 0.25895 0.33701 0.0
C547 C 0.93473 0.24017 0.26665 0.0
C548 C 0.95429 0.26997 0.28093 0.0
C549 C 0.9535 0.29484 0.32331 0.0
C550 C 0.93364 0.29018 0.35068 0.0
C551 C 0.97616 0.27184 0.2533 0.0
C552 C 0.98515 0.22404 0.23592 0.0
C553 C 0.98892 0.31952 0.24637 0.0
C554 C 0.9792 0.37225 0.2589 0.0
C555 C 0.99239 0.40745 0.28561 0.0
C556 C 0.98314 0.45697 0.2975 0.0
C557 C 0.96076 0.47187 0.28271 0.0
C558 C 0.94759 0.43733 0.25588 0.0
C559 C 0.95675 0.38779 0.24387 0.0
H560 H 0.95363 0.51021 0.29198 0.0
H561 H 0.03645 0.03918 0.13905 0.0
H562 H 0.43872 0.22487 0.59466 0.0
H563 H 0.47409 0.22025 0.64099 0.0
H564 H 0.432 0.24674 0.76022 0.0
H565 H 0.39692 0.25629 0.71291 0.0
H566 H 0.46671 0.30082 0.76996 0.0
H567 H 0.46005 0.12024 0.72997 0.0
H568 H 0.45485 0.04181 0.68128 0.0
H569 H 0.51874 0.07959 0.61104 0.0
H570 H 0.52417 0.15868 0.65892 0.0
H571 H 0.58326 0.17772 0.86478 0.0
H572 H 0.54535 0.1663 0.82721 0.0
H573 H 0.54769 0.32916 0.78232 0.0
H574 H 0.58545 0.34112 0.82016 0.0
H575 H 0.53093 0.17078 0.74471 0.0
H576 H 0.49172 0.38261 0.78662 0.0
H577 H 0.48977 0.44502 0.85058 0.0
H578 H 0.51046 0.3207 0.94118 0.0
H579 H 0.51198 0.25725 0.8781 0.0
C580 C 0.43708 0.22878 0.63087 0.0
C581 C 0.41523 0.24021 0.65053 0.0
C582 C 0.45727 0.22584 0.65745 0.0
C583 C 0.45583 0.23198 0.70445 0.0
C584 C 0.43371 0.24191 0.72412 0.0
C585 C 0.41364 0.2469 0.69727 0.0
C586 C 0.47755 0.23161 0.73251 0.0
C587 C 0.48066 0.27216 0.76446 0.0
C588 C 0.49556 0.1932 0.72678 0.0
C589 C 0.49242 0.14564 0.69785 0.0
C590 C 0.47291 0.11203 0.70395 0.0
C591 C 0.46994 0.06742 0.67651 0.0
C592 C 0.48643 0.05578 0.64303 0.0
C593 C 0.50597 0.08868 0.63697 0.0
C594 C 0.50903 0.13336 0.6643 0.0
C595 C 0.57583 0.21098 0.84655 0.0
C596 C 0.58738 0.26035 0.8455 0.0
C597 C 0.55413 0.20439 0.82514 0.0
C598 C 0.54352 0.24708 0.80254 0.0
C599 C 0.55536 0.29592 0.80026 0.0
C600 C 0.57707 0.30253 0.82154 0.0
C601 C 0.52014 0.24067 0.78106 0.0
C602 C 0.51683 0.19909 0.75027 0.0
C603 C 0.50139 0.27618 0.78986 0.0
C604 C 0.50216 0.31521 0.82741 0.0
C605 C 0.49588 0.36857 0.82016 0.0
C606 C 0.49471 0.40406 0.85632 0.0
C607 C 0.49979 0.38667 0.89994 0.0
C608 C 0.50644 0.33403 0.9074 0.0
C609 C 0.50751 0.29831 0.87141 0.0
H610 H 0.4987 0.41408 0.92795 0.0
H611 H 0.48409 0.02123 0.62182 0.0
H612 H 0.10359 0.80478 0.71414 0.0
H613 H 0.06922 0.79327 0.76298 0.0
H614 H 0.03772 0.69031 0.66349 0.0
H615 H 0.0726 0.69885 0.61646 0.0
H616 H 0.02794 0.82174 0.75572 0.0
H617 H 0.99844 0.60742 0.70367 0.0
H618 H 0.01677 0.52129 0.68538 0.0
H619 H 0.07878 0.56571 0.75881 0.0
H620 H 0.06071 0.65181 0.77808 0.0
H621 H 0.9084 0.80086 0.80277 0.0
H622 H 0.94613 0.79497 0.76353 0.0
H623 H 0.96863 0.67249 0.85566 0.0
H624 H 0.93057 0.67653 0.89364 0.0
H625 H 0.98586 0.65136 0.77867 0.0
H626 H 0.98243 0.80413 0.86961 0.0
H627 H 0.96571 0.88719 0.89947 0.0
H628 H 0.9764 0.96322 0.77175 0.0
H629 H 0.99193 0.87967 0.74019 0.0
C630 C 0.08949 0.77882 0.70331 0.0
C631 C 0.09082 0.75227 0.6618 0.0
C632 C 0.06979 0.77246 0.73108 0.0
C633 C 0.05086 0.74034 0.71738 0.0
C634 C 0.05229 0.71389 0.67577 0.0
C635 C 0.07223 0.71903 0.64868 0.0
C636 C 0.02899 0.73707 0.74492 0.0
C637 C 0.01886 0.78439 0.76092 0.0
C638 C 0.01734 0.68825 0.75314 0.0
C639 C 0.02826 0.63628 0.74201 0.0
C640 C 0.01593 0.59872 0.71612 0.0
C641 C 0.0263 0.54992 0.70553 0.0
C642 C 0.04895 0.5381 0.72082 0.0
C643 C 0.06126 0.57499 0.74685 0.0
C644 C 0.05098 0.62383 0.75756 0.0
C645 C 0.92123 0.77197 0.81407 0.0
C646 C 0.91661 0.73943 0.85145 0.0
C647 C 0.94285 0.76888 0.79185 0.0
C648 C 0.96049 0.7343 0.80741 0.0
C649 C 0.95538 0.69969 0.84316 0.0
C650 C 0.93359 0.70202 0.86484 0.0
C651 C 0.98455 0.73611 0.7879 0.0
C652 C 0.99508 0.68859 0.77363 0.0
C653 C 0.99709 0.78446 0.78329 0.0
C654 C 0.98817 0.83529 0.80235 0.0
C655 C 0.98104 0.83836 0.8477 0.0
C656 C 0.97177 0.88558 0.86497 0.0
C657 C 0.97018 0.93058 0.83768 0.0
C658 C 0.97768 0.92833 0.7929 0.0
C659 C 0.98659 0.88093 0.7752 0.0
H660 H 0.96309 0.96716 0.85122 0.0
H661 H 0.05694 0.50031 0.71256 0.0
H662 H 0.42632 0.83046 0.13034 0.0
H663 H 0.46246 0.83599 0.17489 0.0
H664 H 0.44246 0.6948 0.24756 0.0
H665 H 0.40639 0.6887 0.2031 0.0
H666 H 0.46354 0.77366 0.30237 0.0
H667 H 0.47567 0.68148 0.16185 0.0
H668 H 0.47405 0.67384 0.07924 0.0
H669 H 0.52167 0.80506 0.06602 0.0
H670 H 0.52282 0.8151 0.14866 0.0
H671 H 0.58995 0.66522 0.317 0.0
H672 H 0.55315 0.67628 0.27562 0.0
H673 H 0.54356 0.83081 0.33556 0.0
H674 H 0.58029 0.81999 0.37743 0.0
H675 H 0.53706 0.74792 0.21462 0.0
H676 H 0.48521 0.84597 0.35886 0.0
H677 H 0.48552 0.8503 0.44191 0.0
H678 H 0.5173 0.69576 0.44797 0.0
H679 H 0.51677 0.69027 0.36496 0.0
C680 C 0.42936 0.80121 0.15643 0.0
C681 C 0.4136 0.75886 0.16295 0.0
C682 C 0.45004 0.80439 0.18174 0.0
C683 C 0.45517 0.76551 0.21412 0.0
C684 C 0.43878 0.72517 0.2227 0.0
C685 C 0.41823 0.72165 0.19713 0.0
C686 C 0.47847 0.76394 0.23624 0.0
C687 C 0.47964 0.76851 0.28322 0.0
C688 C 0.49938 0.75627 0.21115 0.0
C689 C 0.4991 0.74948 0.16148 0.0
C690 C 0.48562 0.70909 0.14137 0.0
C691 C 0.4848 0.70425 0.09452 0.0
C692 C 0.49779 0.73877 0.06738 0.0
C693 C 0.51159 0.77835 0.08707 0.0
C694 C 0.51227 0.78377 0.13393 0.0
C695 C 0.5802 0.70189 0.32099 0.0
C696 C 0.58801 0.74161 0.35074 0.0
C697 C 0.55918 0.70816 0.29723 0.0
C698 C 0.54549 0.75405 0.30299 0.0
C699 C 0.55371 0.79474 0.33117 0.0
C700 C 0.57476 0.78857 0.35489 0.0
C701 C 0.52222 0.75822 0.28082 0.0
C702 C 0.52101 0.75389 0.23377 0.0
C703 C 0.50125 0.76545 0.30589 0.0
C704 C 0.50126 0.76801 0.35577 0.0
C705 C 0.49219 0.81287 0.37795 0.0
C706 C 0.49239 0.81553 0.42499 0.0
C707 C 0.50151 0.7734 0.45018 0.0
C708 C 0.51034 0.72842 0.4284 0.0
C709 C 0.51012 0.72555 0.38138 0.0
H710 H 0.50168 0.77556 0.48658 0.0
H711 H 0.49716 0.73482 0.0311 0.0
H712 H 0.10289 0.01241 0.0431 0.0
H713 H 0.06512 0.97052 0.02635 0.0
H714 H 0.03664 0.12224 0.98675 0.0
H715 H 0.0743 0.16458 0.00359 0.0
H716 H 0.00914 0.07321 0.0482 0.0
H717 H 0.04589 0.02768 0.90956 0.0
H718 H 0.07575 0.99104 0.85796 0.0
H719 H 0.06518 0.83554 0.91364 0.0
H720 H 0.03555 0.87139 0.96619 0.0
H721 H 0.90068 0.97615 0.95964 0.0
H722 H 0.93854 0.01845 0.97485 0.0
H723 H 0.9678 0.86696 0.01305 0.0
H724 H 0.93008 0.82425 0.99773 0.0
H725 H 0.99493 0.91602 0.95185 0.0
H726 H 0.95841 0.96165 0.09069 0.0
H727 H 0.92875 0.99824 0.14273 0.0
H728 H 0.93905 0.15377 0.08692 0.0
H729 H 0.96848 0.11796 0.03392 0.0
C730 C 0.08875 0.03675 0.02996 0.0
C731 C 0.09162 0.09189 0.02478 0.0
C732 C 0.06718 0.01268 0.0203 0.0
C733 C 0.04808 0.04326 0.00526 0.0
C734 C 0.05116 0.09793 0.99832 0.0
C735 C 0.07276 0.122 0.00776 0.0
C736 C 0.02444 0.01896 1.00042 0.0
C737 C 0.00594 0.03938 0.02657 0.0
C738 C 0.02041 0.97393 0.97304 0.0
C739 C 0.0387 0.95243 0.9423 0.0
C740 C 0.05015 0.98581 0.91128 0.0
C741 C 0.06699 0.96514 0.88173 0.0
C742 C 0.07242 0.91103 0.88263 0.0
C743 C 0.06101 0.87747 0.91307 0.0
C744 C 0.04419 0.89796 0.94275 0.0
C745 C 0.91501 0.95196 0.97217 0.0
C746 C 0.91232 0.89678 0.97742 0.0
C747 C 0.93666 0.97624 0.98089 0.0
C748 C 0.956 0.94585 0.99512 0.0
C749 C 0.95311 0.89113 0.00205 0.0
C750 C 0.93147 0.86686 0.99351 0.0
C751 C 0.9796 0.97044 0.99952 0.0
C752 C 0.99811 0.95001 0.97335 0.0
C753 C 0.98365 0.01549 0.02689 0.0
C754 C 0.96543 0.03691 0.05783 0.0
C755 C 0.95412 0.00351 0.08903 0.0
C756 C 0.9374 0.02416 0.11882 0.0
C757 C 0.93195 0.07826 0.11801 0.0
C758 C 0.94323 0.11184 0.08741 0.0
C759 C 0.95993 0.09138 0.05747 0.0
H760 H 0.91905 0.09419 0.1412 0.0
H761 H 0.08542 0.89508 0.85965 0.0
H762 H 0.60203 0.50909 0.44775 0.0
H763 H 0.56404 0.46849 0.46499 0.0
H764 H 0.54257 0.61044 0.53502 0.0
H765 H 0.58048 0.65178 0.51758 0.0
H766 H 0.52838 0.50939 0.57681 0.0
H767 H 0.52886 0.60093 0.43347 0.0
H768 H 0.54475 0.61869 0.35777 0.0
H769 H 0.52949 0.45855 0.31803 0.0
H770 H 0.5145 0.43901 0.3942 0.0
H771 H 0.40511 0.47605 0.57333 0.0
H772 H 0.44384 0.51555 0.56041 0.0
H773 H 0.46294 0.3831 0.47589 0.0
H774 H 0.42431 0.34314 0.48875 0.0
H775 H 0.47867 0.47845 0.44185 0.0
H776 H 0.48116 0.38157 0.57905 0.0
H777 H 0.46858 0.35337 0.65484 0.0
H778 H 0.47985 0.51136 0.70474 0.0
H779 H 0.49217 0.54073 0.62901 0.0
C780 C 0.58948 0.53134 0.46771 0.0
C781 C 0.59422 0.58391 0.48094 0.0
C782 C 0.56775 0.50807 0.47741 0.0
C783 C 0.55047 0.53677 0.50077 0.0
C784 C 0.55572 0.58775 0.51688 0.0
C785 C 0.57737 0.6113 0.5068 0.0
C786 C 0.52626 0.51558 0.50464 0.0
C787 C 0.51736 0.50329 0.54744 0.0
C788 C 0.51225 0.50615 0.46601 0.0
C789 C 0.52078 0.51834 0.41982 0.0
C790 C 0.5291 0.56932 0.40879 0.0
C791 C 0.53793 0.57974 0.36576 0.0
C792 C 0.53805 0.53989 0.33306 0.0
C793 C 0.5294 0.48941 0.3434 0.0
C794 C 0.52081 0.47858 0.38657 0.0
C795 C 0.41735 0.45583 0.55123 0.0
C796 C 0.41166 0.40631 0.53223 0.0
C797 C 0.43954 0.47827 0.54418 0.0
C798 C 0.45635 0.45179 0.51779 0.0
C799 C 0.45024 0.40402 0.49654 0.0
C800 C 0.42814 0.38129 0.50391 0.0
C801 C 0.48066 0.47263 0.51408 0.0
C802 C 0.48961 0.4848 0.47129 0.0
C803 C 0.4949 0.48083 0.5526 0.0
C804 C 0.4873 0.46355 0.59817 0.0
C805 C 0.48071 0.41047 0.60605 0.0
C806 C 0.47368 0.39422 0.64902 0.0
C807 C 0.47334 0.4306 0.68453 0.0
C808 C 0.48007 0.48326 0.67716 0.0
C809 C 0.48709 0.49973 0.63421 0.0
H810 H 0.46789 0.41796 0.71778 0.0
H811 H 0.54484 0.54813 0.29972 0.0
H812 H 0.40229 0.5276 0.04071 0.0
H813 H 0.44034 0.48706 0.02361 0.0
H814 H 0.46915 0.64153 0.99368 0.0
H815 H 0.43109 0.68224 0.00983 0.0
H816 H 0.48687 0.5711 0.93788 0.0
H817 H 0.4781 0.58218 0.09833 0.0
H818 H 0.45823 0.56888 0.1713 0.0
H819 H 0.45991 0.39999 0.1513 0.0
H820 H 0.47952 0.41256 0.07786 0.0
H821 H 0.60705 0.49637 0.95982 0.0
H822 H 0.56948 0.54029 0.97565 0.0
H823 H 0.53719 0.38786 0.99945 0.0
H824 H 0.57465 0.34391 0.98499 0.0
H825 H 0.52167 0.45943 0.05828 0.0
H826 H 0.53766 0.4542 0.89913 0.0
H827 H 0.55764 0.47413 0.82783 0.0
H828 H 0.54506 0.64063 0.8475 0.0
H829 H 0.52496 0.62175 0.91925 0.0
C830 C 0.4166 0.55289 0.02978 0.0
C831 C 0.41365 0.60825 0.02703 0.0
C832 C 0.43842 0.52968 0.02032 0.0
C833 C 0.4578 0.56138 0.00847 0.0
C834 C 0.45452 0.61625 0.00305 0.0
C835 C 0.4327 0.63948 0.01232 0.0
C836 C 0.48171 0.53781 0.00387 0.0
C837 C 0.49465 0.54724 0.96439 0.0
C838 C 0.49176 0.50623 0.03831 0.0
C839 C 0.47999 0.49841 0.08241 0.0
C840 C 0.47402 0.54231 0.10934 0.0
C841 C 0.46286 0.53488 0.1508 0.0
C842 C 0.45774 0.48361 0.16587 0.0
C843 C 0.46385 0.43969 0.13954 0.0
C844 C 0.475 0.44695 0.09801 0.0
C845 C 0.59205 0.4723 0.9693 0.0
C846 C 0.59384 0.41661 0.97097 0.0
C847 C 0.57056 0.49744 0.97803 0.0
C848 C 0.55042 0.46727 0.98783 0.0
C849 C 0.55247 0.41194 0.99181 0.0
C850 C 0.57396 0.38686 0.98358 0.0
C851 C 0.52694 0.49264 0.99222 0.0
C852 C 0.514 0.48342 0.03171 0.0
C853 C 0.51718 0.52523 0.95798 0.0
C854 C 0.52968 0.53642 0.9149 0.0
C855 C 0.53905 0.49508 0.88847 0.0
C856 C 0.55047 0.50621 0.84786 0.0
C857 C 0.55262 0.55863 0.8331 0.0
C858 C 0.54336 0.60001 0.85895 0.0
C859 C 0.53191 0.58907 0.89958 0.0
H860 H 0.56147 0.56718 0.80165 0.0
H861 H 0.4491 0.47789 0.198 0.0
H862 H 0.0758 0.83768 0.50219 0.0
H863 H 0.03808 0.87965 0.48525 0.0
H864 H 0.06428 0.029 0.53557 0.0
H865 H 0.10204 0.98726 0.55299 0.0
H866 H 0.02227 0.00429 0.57247 0.0
H867 H 0.05489 0.01094 0.42365 0.0
H868 H 0.07363 0.97543 0.35505 0.0
H869 H 0.01544 0.86929 0.33542 0.0
H870 H 0.99647 0.90368 0.40427 0.0
H871 H 0.92871 0.16966 0.49599 0.0
H872 H 0.96605 0.12618 0.51304 0.0
H873 H 0.93907 0.97845 0.46083 0.0
H874 H 0.90168 0.02179 0.44317 0.0
H875 H 0.98126 0.00127 0.42509 0.0
H876 H 0.94844 0.9948 0.57336 0.0
H877 H 0.92961 0.02992 0.64201 0.0
H878 H 0.98805 0.13507 0.6629 0.0
H879 H 0.00709 0.10108 0.59401 0.0
C880 C 0.07372 0.87969 0.50892 0.0
C881 C 0.09197 0.90906 0.52905 0.0
C882 C 0.05212 0.90365 0.49917 0.0
C883 C 0.04835 0.9575 0.50913 0.0
C884 C 0.06678 0.98736 0.52774 0.0
C885 C 0.08841 0.96347 0.53743 0.0
C886 C 0.02477 0.98182 0.50262 0.0
C887 C 0.01344 0.00437 0.54007 0.0
C888 C 0.01296 0.98044 0.4607 0.0
C889 C 0.02437 0.95952 0.41939 0.0
C890 C 0.04618 0.97968 0.40494 0.0
C891 C 0.05683 0.95984 0.36596 0.0
C892 C 0.04576 0.92003 0.34096 0.0
C893 C 0.024 0.90007 0.35485 0.0
C894 C 0.01329 0.91976 0.39382 0.0
C895 C 0.93052 0.12768 0.48885 0.0
C896 C 0.91218 0.09926 0.46811 0.0
C897 C 0.95191 0.10284 0.49869 0.0
C898 C 0.95537 0.04901 0.48827 0.0
C899 C 0.93681 0.02006 0.46903 0.0
C900 C 0.9154 0.04486 0.45921 0.0
C901 C 0.97877 0.02387 0.49492 0.0
C902 C 0.99007 0.00115 0.4575 0.0
C903 C 0.99054 0.02503 0.53689 0.0
C904 C 0.97909 0.04574 0.57825 0.0
C905 C 0.95718 0.02575 0.59236 0.0
C906 C 0.94649 0.04538 0.63137 0.0
C907 C 0.9576 0.0848 0.65674 0.0
C908 C 0.97945 0.10458 0.64319 0.0
C909 C 0.99021 0.08511 0.60419 0.0
H910 H 0.9493 0.09992 0.68695 0.0
H911 H 0.05403 0.90474 0.31078 0.0
loop_
_geom_bond_atom_site_label_1
_geom_bond_atom_site_label_2
_geom_bond_distance
_geom_bond_site_symmetry_2
_ccdc_geom_bond_type
C0 O2 1.247 . S
C0 O4 1.258 . S
C1 O8 1.247 . S
C1 O9 1.258 . S
O2 C0 1.247 . S
O2 Zn3 2.028 . S
Zn3 O2 2.028 . S
Zn3 O7 2.035 . S
Zn3 O9 2.035 . S
Zn3 O10 2.028 . S
O4 C0 1.258 . S
O4 Zn5 2.035 . S
Zn5 O4 2.035 . S
Zn5 O6 2.028 . S
Zn5 O8 2.028 . S
Zn5 O11 2.035 . S
O6 Zn5 2.028 . S
O6 C12 1.247 . S
O7 Zn3 2.035 . S
O7 C12 1.258 . S
O8 C1 1.247 . S
O8 Zn5 2.028 . S
O9 C1 1.258 . S
O9 Zn3 2.035 . S
O10 Zn3 2.028 . S
O10 C13 1.247 . S
O11 Zn5 2.035 . S
O11 C13 1.258 . S
C12 O6 1.247 . S
C12 O7 1.258 . S
C13 O10 1.247 . S
C13 O11 1.258 . S
C14 O16 1.247 . S
C14 O18 1.258 . S
C15 O22 1.247 . S
C15 O23 1.258 . S
O16 C14 1.247 . S
O16 Zn17 2.028 . S
Zn17 O16 2.028 . S
Zn17 O21 2.035 . S
Zn17 O23 2.035 . S
Zn17 O24 2.028 . S
O18 C14 1.258 . S
O18 Zn19 2.035 . S
Zn19 O18 2.035 . S
Zn19 O20 2.028 . S
Zn19 O22 2.028 . S
Zn19 O25 2.035 . S
O20 Zn19 2.028 . S
O20 C26 1.247 . S
O21 Zn17 2.035 . S
O21 C26 1.258 . S
O22 C15 1.247 . S
O22 Zn19 2.028 . S
O23 C15 1.258 . S
O23 Zn17 2.035 . S
O24 Zn17 2.028 . S
O24 C27 1.247 . S
O25 Zn19 2.035 . S
O25 C27 1.258 . S
C26 O20 1.247 . S
C26 O21 1.258 . S
C27 O24 1.247 . S
C27 O25 1.258 . S
C28 O30 1.247 . S
C28 O32 1.258 . S
C29 O36 1.247 . S
C29 O37 1.258 . S
O30 C28 1.247 . S
O30 Zn31 2.028 . S
Zn31 O30 2.028 . S
Zn31 O35 2.035 . S
Zn31 O37 2.035 . S
Zn31 O38 2.028 . S
O32 C28 1.258 . S
O32 Zn33 2.035 . S
Zn33 O32 2.035 . S
Zn33 O34 2.028 . S
Zn33 O36 2.028 . S
Zn33 O39 2.035 . S
O34 Zn33 2.028 . S
O34 C40 1.247 . S
O35 Zn31 2.035 . S
O35 C40 1.258 . S
O36 C29 1.247 . S
O36 Zn33 2.028 . S
O37 C29 1.258 . S
O37 Zn31 2.035 . S
O38 Zn31 2.028 . S
O38 C41 1.247 . S
O39 Zn33 2.035 . S
O39 C41 1.258 . S
C40 O34 1.247 . S
C40 O35 1.258 . S
C41 O38 1.247 . S
C41 O39 1.258 . S
C42 O44 1.247 . S
C42 O46 1.258 . S
C43 O50 1.247 . S
C43 O51 1.258 . S
O44 C42 1.247 . S
O44 Zn45 2.028 . S
Zn45 O44 2.028 . S
Zn45 O49 2.035 . S
Zn45 O51 2.035 . S
Zn45 O52 2.028 . S
O46 C42 1.258 . S
O46 Zn47 2.035 . S
Zn47 O46 2.035 . S
Zn47 O48 2.028 . S
Zn47 O50 2.028 . S
Zn47 O53 2.035 . S
O48 Zn47 2.028 . S
O48 C54 1.247 . S
O49 Zn45 2.035 . S
O49 C54 1.258 . S
O50 C43 1.247 . S
O50 Zn47 2.028 . S
O51 C43 1.258 . S
O51 Zn45 2.035 . S
O52 Zn45 2.028 . S
O52 C55 1.247 . S
O53 Zn47 2.035 . S
O53 C55 1.258 . S
C54 O48 1.247 . S
C54 O49 1.258 . S
C55 O52 1.247 . S
C55 O53 1.258 . S
C56 O58 1.247 . S
C56 O60 1.258 . S
C57 O64 1.247 . S
C57 O65 1.258 . S
O58 C56 1.247 . S
O58 Zn59 2.028 . S
Zn59 O58 2.028 . S
Zn59 O63 2.035 . S
Zn59 O65 2.035 . S
Zn59 O66 2.028 . S
O60 C56 1.258 . S
O60 Zn61 2.035 . S
Zn61 O60 2.035 . S
Zn61 O62 2.028 . S
Zn61 O64 2.028 . S
Zn61 O67 2.035 . S
O62 Zn61 2.028 . S
O62 C68 1.247 . S
O63 Zn59 2.035 . S
O63 C68 1.258 . S
O64 C57 1.247 . S
O64 Zn61 2.028 . S
O65 C57 1.258 . S
O65 Zn59 2.035 . S
O66 Zn59 2.028 . S
O66 C69 1.247 . S
O67 Zn61 2.035 . S
O67 C69 1.258 . S
C68 O62 1.247 . S
C68 O63 1.258 . S
C69 O66 1.247 . S
C69 O67 1.258 . S
C70 O72 1.247 . S
C70 O74 1.258 . S
C71 O78 1.247 . S
C71 O79 1.258 . S
O72 C70 1.247 . S
O72 Zn73 2.028 . S
Zn73 O72 2.028 . S
Zn73 O77 2.035 . S
Zn73 O79 2.035 . S
Zn73 O80 2.028 . S
O74 C70 1.258 . S
O74 Zn75 2.035 . S
Zn75 O74 2.035 . S
Zn75 O76 2.028 . S
Zn75 O78 2.028 . S
Zn75 O81 2.035 . S
O76 Zn75 2.028 . S
O76 C82 1.247 . S
O77 Zn73 2.035 . S
O77 C82 1.258 . S
O78 C71 1.247 . S
O78 Zn75 2.028 . S
O79 C71 1.258 . S
O79 Zn73 2.035 . S
O80 Zn73 2.028 . S
O80 C83 1.247 . S
O81 Zn75 2.035 . S
O81 C83 1.258 . S
C82 O76 1.247 . S
C82 O77 1.258 . S
C83 O80 1.247 . S
C83 O81 1.258 . S
C84 O86 1.247 . S
C84 O88 1.258 . S
C85 O92 1.247 . S
C85 O93 1.258 . S
O86 C84 1.247 . S
O86 Zn87 2.028 . S
Zn87 O86 2.028 . S
Zn87 O91 2.035 . S
Zn87 O93 2.035 . S
Zn87 O94 2.028 . S
O88 C84 1.258 . S
O88 Zn89 2.035 . S
Zn89 O88 2.035 . S
Zn89 O90 2.028 . S
Zn89 O92 2.028 . S
Zn89 O95 2.035 . S
O90 Zn89 2.028 . S
O90 C96 1.247 . S
O91 Zn87 2.035 . S
O91 C96 1.258 . S
O92 C85 1.247 . S
O92 Zn89 2.028 . S
O93 C85 1.258 . S
O93 Zn87 2.035 . S
O94 Zn87 2.028 . S
O94 C97 1.247 . S
O95 Zn89 2.035 . S
O95 C97 1.258 . S
C96 O90 1.247 . S
C96 O91 1.258 . S
C97 O94 1.247 . S
C97 O95 1.258 . S
C98 O100 1.247 . S
C98 O102 1.258 . S
C99 O106 1.247 . S
C99 O107 1.258 . S
O100 C98 1.247 . S
O100 Zn101 2.028 . S
Zn101 O100 2.028 . S
Zn101 O105 2.035 . S
Zn101 O107 2.035 . S
Zn101 O108 2.028 . S
O102 C98 1.258 . S
O102 Zn103 2.035 . S
Zn103 O102 2.035 . S
Zn103 O104 2.028 . S
Zn103 O106 2.028 . S
Zn103 O109 2.035 . S
O104 Zn103 2.028 . S
O104 C110 1.247 . S
O105 Zn101 2.035 . S
O105 C110 1.258 . S
O106 C99 1.247 . S
O106 Zn103 2.028 . S
O107 C99 1.258 . S
O107 Zn101 2.035 . S
O108 Zn101 2.028 . S
O108 C111 1.247 . S
O109 Zn103 2.035 . S
O109 C111 1.258 . S
C110 O104 1.247 . S
C110 O105 1.258 . S
C111 O108 1.247 . S
C111 O109 1.258 . S
H112 C130 0.951 . S
H113 C132 0.951 . S
H114 C134 0.950 . S
H115 C135 0.950 . S
H116 C137 0.950 . S
H117 C140 0.950 . S
H118 C141 0.950 . S
H119 C143 0.950 . S
H120 C144 0.950 . S
H121 C145 0.951 1_554 S
H122 C147 0.951 . S
H123 C149 0.950 . S
H124 C150 0.950 . S
H125 C152 0.950 . S
H126 C155 0.950 . S
H127 C156 0.950 1_554 S
H128 C158 0.950 1_554 S
H129 C159 0.950 . S
C130 H112 0.951 . S
C130 C131 1.366 . S
C130 C132 1.388 . S
C131 C130 1.366 . S
C131 C135 1.385 . S
C132 H113 0.951 . S
C132 C130 1.388 . S
C132 C133 1.366 . S
C133 C132 1.366 . S
C133 C134 1.414 . S
C133 C136 1.499 . S
C134 H114 0.950 . S
C134 C133 1.414 . S
C134 C135 1.374 . S
C135 H115 0.950 . S
C135 C131 1.385 . S
C135 C134 1.374 . S
C136 C133 1.499 . S
C136 C137 1.373 . S
C136 C138 1.389 . S
C137 H116 0.950 . S
C137 C136 1.373 . S
C137 C153 1.377 . S
C138 C136 1.389 . S
C138 C139 1.524 . S
C138 C152 1.377 . S
C139 C138 1.524 . S
C139 C140 1.397 . S
C139 C144 1.363 . S
C140 H117 0.950 . S
C140 C139 1.397 . S
C140 C141 1.334 . S
C141 H118 0.950 . S
C141 C140 1.334 . S
C141 C142 1.287 . S
C142 C141 1.287 . S
C142 C143 1.524 . S
C142 H161 0.913 . S
C143 H119 0.950 . S
C143 C142 1.524 . S
C143 C144 1.415 . S
C144 H120 0.950 . S
C144 C139 1.363 . S
C144 C143 1.415 . S
C145 H121 0.951 1_556 S
C145 C146 1.366 . S
C145 C147 1.388 . S
C146 C145 1.366 . S
C146 C150 1.385 . S
C147 H122 0.951 . S
C147 C145 1.388 . S
C147 C148 1.366 . S
C148 C147 1.366 . S
C148 C149 1.414 . S
C148 C151 1.499 . S
C149 H123 0.950 . S
C149 C148 1.414 . S
C149 C150 1.374 . S
C150 H124 0.950 . S
C150 C146 1.385 . S
C150 C149 1.374 . S
C151 C148 1.499 . S
C151 C152 1.373 . S
C151 C153 1.389 . S
C152 H125 0.950 . S
C152 C138 1.377 . S
C152 C151 1.373 . S
C153 C137 1.377 . S
C153 C151 1.389 . S
C153 C154 1.524 . S
C154 C153 1.524 . S
C154 C155 1.397 . S
C154 C159 1.363 . S
C155 H126 0.950 . S
C155 C154 1.397 . S
C155 C156 1.334 . S
C156 H127 0.950 1_556 S
C156 C155 1.334 . S
C156 C157 1.287 1_556 S
C157 C156 1.287 1_554 S
C157 C158 1.524 1_554 S
C157 H160 0.999 . S
C158 H128 0.950 1_556 S
C158 C157 1.524 1_556 S
C158 C159 1.415 . S
C159 H129 0.950 . S
C159 C154 1.363 . S
C159 C158 1.415 . S
H160 C157 0.999 . S
H161 C142 0.913 . S
H162 C180 0.951 . S
H163 C182 0.951 . S
H164 C184 0.950 . S
H165 C185 0.950 . S
H166 C187 0.950 . S
H167 C190 0.950 . S
H168 C191 0.950 . S
H169 C193 0.950 . S
H170 C194 0.950 . S
H171 C195 0.951 . S
H172 C197 0.951 . S
H173 C199 0.950 . S
H174 C200 0.950 . S
H175 C202 0.950 . S
H176 C205 0.950 . S
H177 C206 0.950 . S
H178 C208 0.950 . S
H179 C209 0.950 . S
C180 H162 0.951 . S
C180 C181 1.366 . S
C180 C182 1.388 . S
C181 C180 1.366 . S
C181 C185 1.385 . S
C182 H163 0.951 . S
C182 C180 1.388 . S
C182 C183 1.366 . S
C183 C182 1.366 . S
C183 C184 1.414 . S
C183 C186 1.499 . S
C184 H164 0.950 . S
C184 C183 1.414 . S
C184 C185 1.374 . S
C185 H165 0.950 . S
C185 C181 1.385 . S
C185 C184 1.374 . S
C186 C183 1.499 . S
C186 C187 1.373 . S
C186 C188 1.389 . S
C187 H166 0.950 . S
C187 C186 1.373 . S
C187 C203 1.377 . S
C188 C186 1.389 . S
C188 C189 1.524 . S
C188 C202 1.377 . S
C189 C188 1.524 . S
C189 C190 1.397 . S
C189 C194 1.363 . S
C190 H167 0.950 . S
C190 C189 1.397 . S
C190 C191 1.334 . S
C191 H168 0.950 . S
C191 C190 1.334 . S
C191 C192 1.287 . S
C192 C191 1.287 . S
C192 C193 1.524 . S
C192 H211 0.913 . S
C193 H169 0.950 . S
C193 C192 1.524 . S
C193 C194 1.415 . S
C194 H170 0.950 . S
C194 C189 1.363 . S
C194 C193 1.415 . S
C195 H171 0.951 . S
C195 C196 1.366 . S
C195 C197 1.388 . S
C196 C195 1.366 . S
C196 C200 1.385 . S
C197 H172 0.951 . S
C197 C195 1.388 . S
C197 C198 1.366 . S
C198 C197 1.366 . S
C198 C199 1.414 . S
C198 C201 1.499 . S
C199 H173 0.950 . S
C199 C198 1.414 . S
C199 C200 1.374 . S
C200 H174 0.950 . S
C200 C196 1.385 . S
C200 C199 1.374 . S
C201 C198 1.499 . S
C201 C202 1.373 . S
C201 C203 1.389 . S
C202 H175 0.950 . S
C202 C188 1.377 . S
C202 C201 1.373 . S
C203 C187 1.377 . S
C203 C201 1.389 . S
C203 C204 1.524 . S
C204 C203 1.524 . S
C204 C205 1.397 . S
C204 C209 1.363 . S
C205 H176 0.950 . S
C205 C204 1.397 . S
C205 C206 1.334 . S
C206 H177 0.950 . S
C206 C205 1.334 . S
C206 C207 1.287 . S
C207 C206 1.287 . S
C207 C208 1.524 . S
C207 H210 0.999 . S
C208 H178 0.950 . S
C208 C207 1.524 . S
C208 C209 1.415 . S
C209 H179 0.950 . S
C209 C204 1.363 . S
C209 C208 1.415 . S
H210 C207 0.999 . S
H211 C192 0.913 . S
H212 C230 0.951 . S
H213 C232 0.951 . S
H214 C234 0.950 . S
H215 C235 0.950 . S
H216 C237 0.950 . S
H217 C240 0.950 . S
H218 C241 0.950 . S
H219 C243 0.950 . S
H220 C244 0.950 . S
H221 C245 0.951 . S
H222 C247 0.951 . S
H223 C249 0.950 . S
H224 C250 0.950 1_556 S
H225 C252 0.950 . S
H226 C255 0.950 . S
H227 C256 0.950 . S
H228 C258 0.950 . S
H229 C259 0.950 . S
C230 H212 0.951 . S
C230 C231 1.366 . S
C230 C232 1.388 . S
C231 C230 1.366 . S
C231 C235 1.385 . S
C232 H213 0.951 . S
C232 C230 1.388 . S
C232 C233 1.366 . S
C233 C232 1.366 . S
C233 C234 1.414 . S
C233 C236 1.499 . S
C234 H214 0.950 . S
C234 C233 1.414 . S
C234 C235 1.374 . S
C235 H215 0.950 . S
C235 C231 1.385 . S
C235 C234 1.374 . S
C236 C233 1.499 . S
C236 C237 1.373 . S
C236 C238 1.389 . S
C237 H216 0.950 . S
C237 C236 1.373 . S
C237 C253 1.377 . S
C238 C236 1.389 . S
C238 C239 1.524 . S
C238 C252 1.377 . S
C239 C238 1.524 . S
C239 C240 1.397 . S
C239 C244 1.363 . S
C240 H217 0.950 . S
C240 C239 1.397 . S
C240 C241 1.334 . S
C241 H218 0.950 . S
C241 C240 1.334 . S
C241 C242 1.287 . S
C242 C241 1.287 . S
C242 C243 1.524 . S
C242 H261 0.913 . S
C243 H219 0.950 . S
C243 C242 1.524 . S
C243 C244 1.415 . S
C244 H220 0.950 . S
C244 C239 1.363 . S
C244 C243 1.415 . S
C245 H221 0.951 . S
C245 C246 1.366 . S
C245 C247 1.388 . S
C246 C245 1.366 . S
C246 C250 1.385 . S
C247 H222 0.951 . S
C247 C245 1.388 . S
C247 C248 1.366 . S
C248 C247 1.366 . S
C248 C249 1.414 . S
C248 C251 1.499 . S
C249 H223 0.950 . S
C249 C248 1.414 . S
C249 C250 1.374 . S
C250 H224 0.950 1_554 S
C250 C246 1.385 . S
C250 C249 1.374 . S
C251 C248 1.499 . S
C251 C252 1.373 . S
C251 C253 1.389 . S
C252 H225 0.950 . S
C252 C238 1.377 . S
C252 C251 1.373 . S
C253 C237 1.377 . S
C253 C251 1.389 . S
C253 C254 1.524 . S
C254 C253 1.524 . S
C254 C255 1.397 . S
C254 C259 1.363 . S
C255 H226 0.950 . S
C255 C254 1.397 . S
C255 C256 1.334 . S
C256 H227 0.950 . S
C256 C255 1.334 . S
C256 C257 1.287 . S
C257 C256 1.287 . S
C257 C258 1.524 . S
C257 H260 0.999 . S
C258 H228 0.950 . S
C258 C257 1.524 . S
C258 C259 1.415 . S
C259 H229 0.950 . S
C259 C254 1.363 . S
C259 C258 1.415 . S
H260 C257 0.999 . S
H261 C242 0.913 . S
H262 C280 0.951 . S
H263 C282 0.951 . S
H264 C284 0.950 . S
H265 C285 0.950 . S
H266 C287 0.950 . S
H267 C290 0.950 . S
H268 C291 0.950 . S
H269 C293 0.950 . S
H270 C294 0.950 . S
H271 C295 0.951 . S
H272 C297 0.951 . S
H273 C299 0.950 . S
H274 C300 0.950 . S
H275 C302 0.950 . S
H276 C305 0.950 . S
H277 C306 0.950 . S
H278 C308 0.950 . S
H279 C309 0.950 . S
C280 H262 0.951 . S
C280 C281 1.366 . S
C280 C282 1.388 . S
C281 C280 1.366 . S
C281 C285 1.385 . S
C282 H263 0.951 . S
C282 C280 1.388 . S
C282 C283 1.366 . S
C283 C282 1.366 . S
C283 C284 1.414 . S
C283 C286 1.499 . S
C284 H264 0.950 . S
C284 C283 1.414 . S
C284 C285 1.374 . S
C285 H265 0.950 . S
C285 C281 1.385 . S
C285 C284 1.374 . S
C286 C283 1.499 . S
C286 C287 1.373 . S
C286 C288 1.389 . S
C287 H266 0.950 . S
C287 C286 1.373 . S
C287 C303 1.377 . S
C288 C286 1.389 . S
C288 C289 1.524 . S
C288 C302 1.377 . S
C289 C288 1.524 . S
C289 C290 1.397 . S
C289 C294 1.363 . S
C290 H267 0.950 . S
C290 C289 1.397 . S
C290 C291 1.334 . S
C291 H268 0.950 . S
C291 C290 1.334 . S
C291 C292 1.287 . S
C292 C291 1.287 . S
C292 C293 1.524 . S
C292 H311 0.913 . S
C293 H269 0.950 . S
C293 C292 1.524 . S
C293 C294 1.415 . S
C294 H270 0.950 . S
C294 C289 1.363 . S
C294 C293 1.415 . S
C295 H271 0.951 . S
C295 C296 1.366 . S
C295 C297 1.388 . S
C296 C295 1.366 . S
C296 C300 1.385 . S
C297 H272 0.951 . S
C297 C295 1.388 . S
C297 C298 1.366 . S
C298 C297 1.366 . S
C298 C299 1.414 . S
C298 C301 1.499 . S
C299 H273 0.950 . S
C299 C298 1.414 . S
C299 C300 1.374 . S
C300 H274 0.950 . S
C300 C296 1.385 . S
C300 C299 1.374 . S
C301 C298 1.499 . S
C301 C302 1.373 . S
C301 C303 1.389 . S
C302 H275 0.950 . S
C302 C288 1.377 . S
C302 C301 1.373 . S
C303 C287 1.377 . S
C303 C301 1.389 . S
C303 C304 1.524 . S
C304 C303 1.524 . S
C304 C305 1.397 . S
C304 C309 1.363 . S
C305 H276 0.950 . S
C305 C304 1.397 . S
C305 C306 1.334 . S
C306 H277 0.950 . S
C306 C305 1.334 . S
C306 C307 1.287 . S
C307 C306 1.287 . S
C307 C308 1.524 . S
C307 H310 0.999 . S
C308 H278 0.950 . S
C308 C307 1.524 . S
C308 C309 1.415 . S
C309 H279 0.950 . S
C309 C304 1.363 . S
C309 C308 1.415 . S
H310 C307 0.999 . S
H311 C292 0.913 . S
H312 C330 0.951 1_556 S
H313 C332 0.951 . S
H314 C334 0.950 . S
H315 C335 0.950 . S
H316 C337 0.950 . S
H317 C340 0.950 . S
H318 C341 0.950 1_556 S
H319 C343 0.950 1_556 S
H320 C344 0.950 . S
H321 C345 0.951 . S
H322 C347 0.951 . S
H323 C349 0.950 . S
H324 C350 0.950 . S
H325 C352 0.950 . S
H326 C355 0.950 . S
H327 C356 0.950 . S
H328 C358 0.950 . S
H329 C359 0.950 . S
C330 H312 0.951 1_554 S
C330 C331 1.366 . S
C330 C332 1.388 . S
C331 C330 1.366 . S
C331 C335 1.385 . S
C332 H313 0.951 . S
C332 C330 1.388 . S
C332 C333 1.366 . S
C333 C332 1.366 . S
C333 C334 1.414 . S
C333 C336 1.499 . S
C334 H314 0.950 . S
C334 C333 1.414 . S
C334 C335 1.374 . S
C335 H315 0.950 . S
C335 C331 1.385 . S
C335 C334 1.374 . S
C336 C333 1.499 . S
C336 C337 1.373 . S
C336 C338 1.389 . S
C337 H316 0.950 . S
C337 C336 1.373 . S
C337 C353 1.377 . S
C338 C336 1.389 . S
C338 C339 1.524 . S
C338 C352 1.377 . S
C339 C338 1.524 . S
C339 C340 1.397 . S
C339 C344 1.363 . S
C340 H317 0.950 . S
C340 C339 1.397 . S
C340 C341 1.334 . S
C341 H318 0.950 1_554 S
C341 C340 1.334 . S
C341 C342 1.287 1_554 S
C342 C341 1.287 1_556 S
C342 C343 1.524 1_556 S
C342 H361 0.913 . S
C343 H319 0.950 1_554 S
C343 C342 1.524 1_554 S
C343 C344 1.415 . S
C344 H320 0.950 . S
C344 C339 1.363 . S
C344 C343 1.415 . S
C345 H321 0.951 . S
C345 C346 1.366 . S
C345 C347 1.388 . S
C346 C345 1.366 . S
C346 C350 1.385 . S
C347 H322 0.951 . S
C347 C345 1.388 . S
C347 C348 1.366 . S
C348 C347 1.366 . S
C348 C349 1.414 . S
C348 C351 1.499 . S
C349 H323 0.950 . S
C349 C348 1.414 . S
C349 C350 1.374 . S
C350 H324 0.950 . S
C350 C346 1.385 . S
C350 C349 1.374 . S
C351 C348 1.499 . S
C351 C352 1.373 . S
C351 C353 1.389 . S
C352 H325 0.950 . S
C352 C338 1.377 . S
C352 C351 1.373 . S
C353 C337 1.377 . S
C353 C351 1.389 . S
C353 C354 1.524 . S
C354 C353 1.524 . S
C354 C355 1.397 . S
C354 C359 1.363 . S
C355 H326 0.950 . S
C355 C354 1.397 . S
C355 C356 1.334 . S
C356 H327 0.950 . S
C356 C355 1.334 . S
C356 C357 1.287 . S
C357 C356 1.287 . S
C357 C358 1.524 . S
C357 H360 0.999 . S
C358 H328 0.950 . S
C358 C357 1.524 . S
C358 C359 1.415 . S
C359 H329 0.950 . S
C359 C354 1.363 . S
C359 C358 1.415 . S
H360 C357 0.999 . S
H361 C342 0.913 . S
H362 C380 0.951 . S
H363 C382 0.951 . S
H364 C384 0.950 . S
H365 C385 0.950 . S
H366 C387 0.950 . S
H367 C390 0.950 . S
H368 C391 0.950 . S
H369 C393 0.950 . S
H370 C394 0.950 . S
H371 C395 0.951 . S
H372 C397 0.951 . S
H373 C399 0.950 . S
H374 C400 0.950 . S
H375 C402 0.950 . S
H376 C405 0.950 . S
H377 C406 0.950 . S
H378 C408 0.950 . S
H379 C409 0.950 . S
C380 H362 0.951 . S
C380 C381 1.366 . S
C380 C382 1.388 . S
C381 C380 1.366 . S
C381 C385 1.385 . S
C382 H363 0.951 . S
C382 C380 1.388 . S
C382 C383 1.366 . S
C383 C382 1.366 . S
C383 C384 1.414 . S
C383 C386 1.499 . S
C384 H364 0.950 . S
C384 C383 1.414 . S
C384 C385 1.374 . S
C385 H365 0.950 . S
C385 C381 1.385 . S
C385 C384 1.374 . S
C386 C383 1.499 . S
C386 C387 1.373 . S
C386 C388 1.389 . S
C387 H366 0.950 . S
C387 C386 1.373 . S
C387 C403 1.377 . S
C388 C386 1.389 . S
C388 C389 1.524 . S
C388 C402 1.377 . S
C389 C388 1.524 . S
C389 C390 1.397 . S
C389 C394 1.363 . S
C390 H367 0.950 . S
C390 C389 1.397 . S
C390 C391 1.334 . S
C391 H368 0.950 . S
C391 C390 1.334 . S
C391 C392 1.287 . S
C392 C391 1.287 . S
C392 C393 1.524 . S
C392 H411 0.913 . S
C393 H369 0.950 . S
C393 C392 1.524 . S
C393 C394 1.415 . S
C394 H370 0.950 . S
C394 C389 1.363 . S
C394 C393 1.415 . S
C395 H371 0.951 . S
C395 C396 1.366 . S
C395 C397 1.388 . S
C396 C395 1.366 . S
C396 C400 1.385 . S
C397 H372 0.951 . S
C397 C395 1.388 . S
C397 C398 1.366 . S
C398 C397 1.366 . S
C398 C399 1.414 . S
C398 C401 1.499 . S
C399 H373 0.950 . S
C399 C398 1.414 . S
C399 C400 1.374 . S
C400 H374 0.950 . S
C400 C396 1.385 . S
C400 C399 1.374 . S
C401 C398 1.499 . S
C401 C402 1.373 . S
C401 C403 1.389 . S
C402 H375 0.950 . S
C402 C388 1.377 . S
C402 C401 1.373 . S
C403 C387 1.377 . S
C403 C401 1.389 . S
C403 C404 1.524 . S
C404 C403 1.524 . S
C404 C405 1.397 . S
C404 C409 1.363 . S
C405 H376 0.950 . S
C405 C404 1.397 . S
C405 C406 1.334 . S
C406 H377 0.950 . S
C406 C405 1.334 . S
C406 C407 1.287 . S
C407 C406 1.287 . S
C407 C408 1.524 . S
C407 H410 0.999 . S
C408 H378 0.950 . S
C408 C407 1.524 . S
C408 C409 1.415 . S
C409 H379 0.950 . S
C409 C404 1.363 . S
C409 C408 1.415 . S
H410 C407 0.999 . S
H411 C392 0.913 . S
H412 C430 0.951 . S
H413 C432 0.951 . S
H414 C434 0.950 . S
H415 C435 0.950 . S
H416 C437 0.950 . S
H417 C440 0.950 . S
H418 C441 0.950 . S
H419 C443 0.950 . S
H420 C444 0.950 . S
H421 C445 0.951 . S
H422 C447 0.951 . S
H423 C449 0.950 . S
H424 C450 0.950 . S
H425 C452 0.950 . S
H426 C455 0.950 . S
H427 C456 0.950 . S
H428 C458 0.950 . S
H429 C459 0.950 . S
C430 H412 0.951 . S
C430 C431 1.366 . S
C430 C432 1.388 . S
C431 C430 1.366 . S
C431 C435 1.385 . S
C432 H413 0.951 . S
C432 C430 1.388 . S
C432 C433 1.366 . S
C433 C432 1.366 . S
C433 C434 1.414 . S
C433 C436 1.499 . S
C434 H414 0.950 . S
C434 C433 1.414 . S
C434 C435 1.374 . S
C435 H415 0.950 . S
C435 C431 1.385 . S
C435 C434 1.374 . S
C436 C433 1.499 . S
C436 C437 1.373 . S
C436 C438 1.389 . S
C437 H416 0.950 . S
C437 C436 1.373 . S
C437 C453 1.377 . S
C438 C436 1.389 . S
C438 C439 1.524 . S
C438 C452 1.377 . S
C439 C438 1.524 . S
C439 C440 1.397 . S
C439 C444 1.363 . S
C440 H417 0.950 . S
C440 C439 1.397 . S
C440 C441 1.334 . S
C441 H418 0.950 . S
C441 C440 1.334 . S
C441 C442 1.287 . S
C442 C441 1.287 . S
C442 C443 1.524 . S
C442 H461 0.913 . S
C443 H419 0.950 . S
C443 C442 1.524 . S
C443 C444 1.415 . S
C444 H420 0.950 . S
C444 C439 1.363 . S
C444 C443 1.415 . S
C445 H421 0.951 . S
C445 C446 1.366 . S
C445 C447 1.388 . S
C446 C445 1.366 . S
C446 C450 1.385 . S
C447 H422 0.951 . S
C447 C445 1.388 . S
C447 C448 1.366 . S
C448 C447 1.366 . S
C448 C449 1.414 . S
C448 C451 1.499 . S
C449 H423 0.950 . S
C449 C448 1.414 . S
C449 C450 1.374 . S
C450 H424 0.950 . S
C450 C446 1.385 . S
C450 C449 1.374 . S
C451 C448 1.499 . S
C451 C452 1.373 . S
C451 C453 1.389 . S
C452 H425 0.950 . S
C452 C438 1.377 . S
C452 C451 1.373 . S
C453 C437 1.377 . S
C453 C451 1.389 . S
C453 C454 1.524 . S
C454 C453 1.524 . S
C454 C455 1.397 . S
C454 C459 1.363 . S
C455 H426 0.950 . S
C455 C454 1.397 . S
C455 C456 1.334 . S
C456 H427 0.950 . S
C456 C455 1.334 . S
C456 C457 1.287 . S
C457 C456 1.287 . S
C457 C458 1.524 . S
C457 H460 0.999 . S
C458 H428 0.950 . S
C458 C457 1.524 . S
C458 C459 1.415 . S
C459 H429 0.950 . S
C459 C454 1.363 . S
C459 C458 1.415 . S
H460 C457 0.999 . S
H461 C442 0.913 . S
H462 C480 0.951 . S
H463 C482 0.951 . S
H464 C484 0.950 . S
H465 C485 0.950 . S
H466 C487 0.950 . S
H467 C490 0.950 . S
H468 C491 0.950 . S
H469 C493 0.950 . S
H470 C494 0.950 . S
H471 C495 0.951 . S
H472 C497 0.951 . S
H473 C499 0.950 . S
H474 C500 0.950 . S
H475 C502 0.950 . S
H476 C505 0.950 . S
H477 C506 0.950 . S
H478 C508 0.950 . S
H479 C509 0.950 . S
C480 H462 0.951 . S
C480 C481 1.366 . S
C480 C482 1.388 . S
C481 C480 1.366 . S
C481 C485 1.385 . S
C482 H463 0.951 . S
C482 C480 1.388 . S
C482 C483 1.366 . S
C483 C482 1.366 . S
C483 C484 1.414 . S
C483 C486 1.499 . S
C484 H464 0.950 . S
C484 C483 1.414 . S
C484 C485 1.374 . S
C485 H465 0.950 . S
C485 C481 1.385 . S
C485 C484 1.374 . S
C486 C483 1.499 . S
C486 C487 1.373 . S
C486 C488 1.389 . S
C487 H466 0.950 . S
C487 C486 1.373 . S
C487 C503 1.377 . S
C488 C486 1.389 . S
C488 C489 1.524 . S
C488 C502 1.377 . S
C489 C488 1.524 . S
C489 C490 1.397 . S
C489 C494 1.363 . S
C490 H467 0.950 . S
C490 C489 1.397 . S
C490 C491 1.334 . S
C491 H468 0.950 . S
C491 C490 1.334 . S
C491 C492 1.287 . S
C492 C491 1.287 . S
C492 C493 1.524 . S
C492 H511 0.913 . S
C493 H469 0.950 . S
C493 C492 1.524 . S
C493 C494 1.415 . S
C494 H470 0.950 . S
C494 C489 1.363 . S
C494 C493 1.415 . S
C495 H471 0.951 . S
C495 C496 1.366 . S
C495 C497 1.388 . S
C496 C495 1.366 . S
C496 C500 1.385 . S
C497 H472 0.951 . S
C497 C495 1.388 . S
C497 C498 1.366 . S
C498 C497 1.366 . S
C498 C499 1.414 . S
C498 C501 1.499 . S
C499 H473 0.950 . S
C499 C498 1.414 . S
C499 C500 1.374 . S
C500 H474 0.950 . S
C500 C496 1.385 . S
C500 C499 1.374 . S
C501 C498 1.499 . S
C501 C502 1.373 . S
C501 C503 1.389 . S
C502 H475 0.950 . S
C502 C488 1.377 . S
C502 C501 1.373 . S
C503 C487 1.377 . S
C503 C501 1.389 . S
C503 C504 1.524 . S
C504 C503 1.524 . S
C504 C505 1.397 . S
C504 C509 1.363 . S
C505 H476 0.950 . S
C505 C504 1.397 . S
C505 C506 1.334 . S
C506 H477 0.950 . S
C506 C505 1.334 . S
C506 C507 1.287 . S
C507 C506 1.287 . S
C507 C508 1.524 . S
C507 H510 0.999 . S
C508 H478 0.950 . S
C508 C507 1.524 . S
C508 C509 1.415 . S
C509 H479 0.950 . S
C509 C504 1.363 . S
C509 C508 1.415 . S
H510 C507 0.999 . S
H511 C492 0.913 . S
H512 C530 0.951 . S
H513 C532 0.951 . S
H514 C534 0.950 . S
H515 C535 0.950 . S
H516 C537 0.950 . S
H517 C540 0.950 . S
H518 C541 0.950 . S
H519 C543 0.950 . S
H520 C544 0.950 . S
H521 C545 0.951 . S
H522 C547 0.951 . S
H523 C549 0.950 . S
H524 C550 0.950 . S
H525 C552 0.950 . S
H526 C555 0.950 . S
H527 C556 0.950 . S
H528 C558 0.950 . S
H529 C559 0.950 . S
C530 H512 0.951 . S
C530 C531 1.366 . S
C530 C532 1.388 . S
C531 C530 1.366 . S
C531 C535 1.385 . S
C532 H513 0.951 . S
C532 C530 1.388 . S
C532 C533 1.366 . S
C533 C532 1.366 . S
C533 C534 1.414 . S
C533 C536 1.499 . S
C534 H514 0.950 . S
C534 C533 1.414 . S
C534 C535 1.374 . S
C535 H515 0.950 . S
C535 C531 1.385 . S
C535 C534 1.374 . S
C536 C533 1.499 . S
C536 C537 1.373 . S
C536 C538 1.389 . S
C537 H516 0.950 . S
C537 C536 1.373 . S
C537 C553 1.377 1_455 S
C538 C536 1.389 . S
C538 C539 1.524 . S
C538 C552 1.377 1_455 S
C539 C538 1.524 . S
C539 C540 1.397 . S
C539 C544 1.363 . S
C540 H517 0.950 . S
C540 C539 1.397 . S
C540 C541 1.334 . S
C541 H518 0.950 . S
C541 C540 1.334 . S
C541 C542 1.287 . S
C542 C541 1.287 . S
C542 C543 1.524 . S
C542 H561 0.913 . S
C543 H519 0.950 . S
C543 C542 1.524 . S
C543 C544 1.415 . S
C544 H520 0.950 . S
C544 C539 1.363 . S
C544 C543 1.415 . S
C545 H521 0.951 . S
C545 C546 1.366 . S
C545 C547 1.388 . S
C546 C545 1.366 . S
C546 C550 1.385 . S
C547 H522 0.951 . S
C547 C545 1.388 . S
C547 C548 1.366 . S
C548 C547 1.366 . S
C548 C549 1.414 . S
C548 C551 1.499 . S
C549 H523 0.950 . S
C549 C548 1.414 . S
C549 C550 1.374 . S
C550 H524 0.950 . S
C550 C546 1.385 . S
C550 C549 1.374 . S
C551 C548 1.499 . S
C551 C552 1.373 . S
C551 C553 1.389 . S
C552 H525 0.950 . S
C552 C538 1.377 1_655 S
C552 C551 1.373 . S
C553 C537 1.377 1_655 S
C553 C551 1.389 . S
C553 C554 1.524 . S
C554 C553 1.524 . S
C554 C555 1.397 . S
C554 C559 1.363 . S
C555 H526 0.950 . S
C555 C554 1.397 . S
C555 C556 1.334 . S
C556 H527 0.950 . S
C556 C555 1.334 . S
C556 C557 1.287 . S
C557 C556 1.287 . S
C557 C558 1.524 . S
C557 H560 0.999 . S
C558 H528 0.950 . S
C558 C557 1.524 . S
C558 C559 1.415 . S
C559 H529 0.950 . S
C559 C554 1.363 . S
C559 C558 1.415 . S
H560 C557 0.999 . S
H561 C542 0.913 . S
H562 C580 0.951 . S
H563 C582 0.951 . S
H564 C584 0.950 . S
H565 C585 0.950 . S
H566 C587 0.950 . S
H567 C590 0.950 . S
H568 C591 0.950 . S
H569 C593 0.950 . S
H570 C594 0.950 . S
H571 C595 0.951 . S
H572 C597 0.951 . S
H573 C599 0.950 . S
H574 C600 0.950 . S
H575 C602 0.950 . S
H576 C605 0.950 . S
H577 C606 0.950 . S
H578 C608 0.950 . S
H579 C609 0.950 . S
C580 H562 0.951 . S
C580 C581 1.366 . S
C580 C582 1.388 . S
C581 C580 1.366 . S
C581 C585 1.385 . S
C582 H563 0.951 . S
C582 C580 1.388 . S
C582 C583 1.366 . S
C583 C582 1.366 . S
C583 C584 1.414 . S
C583 C586 1.499 . S
C584 H564 0.950 . S
C584 C583 1.414 . S
C584 C585 1.374 . S
C585 H565 0.950 . S
C585 C581 1.385 . S
C585 C584 1.374 . S
C586 C583 1.499 . S
C586 C587 1.373 . S
C586 C588 1.389 . S
C587 H566 0.950 . S
C587 C586 1.373 . S
C587 C603 1.377 . S
C588 C586 1.389 . S
C588 C589 1.524 . S
C588 C602 1.377 . S
C589 C588 1.524 . S
C589 C590 1.397 . S
C589 C594 1.363 . S
C590 H567 0.950 . S
C590 C589 1.397 . S
C590 C591 1.334 . S
C591 H568 0.950 . S
C591 C590 1.334 . S
C591 C592 1.287 . S
C592 C591 1.287 . S
C592 C593 1.524 . S
C592 H611 0.913 . S
C593 H569 0.950 . S
C593 C592 1.524 . S
C593 C594 1.415 . S
C594 H570 0.950 . S
C594 C589 1.363 . S
C594 C593 1.415 . S
C595 H571 0.951 . S
C595 C596 1.366 . S
C595 C597 1.388 . S
C596 C595 1.366 . S
C596 C600 1.385 . S
C597 H572 0.951 . S
C597 C595 1.388 . S
C597 C598 1.366 . S
C598 C597 1.366 . S
C598 C599 1.414 . S
C598 C601 1.499 . S
C599 H573 0.950 . S
C599 C598 1.414 . S
C599 C600 1.374 . S
C600 H574 0.950 . S
C600 C596 1.385 . S
C600 C599 1.374 . S
C601 C598 1.499 . S
C601 C602 1.373 . S
C601 C603 1.389 . S
C602 H575 0.950 . S
C602 C588 1.377 . S
C602 C601 1.373 . S
C603 C587 1.377 . S
C603 C601 1.389 . S
C603 C604 1.524 . S
C604 C603 1.524 . S
C604 C605 1.397 . S
C604 C609 1.363 . S
C605 H576 0.950 . S
C605 C604 1.397 . S
C605 C606 1.334 . S
C606 H577 0.950 . S
C606 C605 1.334 . S
C606 C607 1.287 . S
C607 C606 1.287 . S
C607 C608 1.524 . S
C607 H610 0.999 . S
C608 H578 0.950 . S
C608 C607 1.524 . S
C608 C609 1.415 . S
C609 H579 0.950 . S
C609 C604 1.363 . S
C609 C608 1.415 . S
H610 C607 0.999 . S
H611 C592 0.913 . S
H612 C630 0.951 . S
H613 C632 0.951 . S
H614 C634 0.950 . S
H615 C635 0.950 . S
H616 C637 0.950 . S
H617 C640 0.950 . S
H618 C641 0.950 . S
H619 C643 0.950 . S
H620 C644 0.950 . S
H621 C645 0.951 . S
H622 C647 0.951 . S
H623 C649 0.950 . S
H624 C650 0.950 . S
H625 C652 0.950 . S
H626 C655 0.950 . S
H627 C656 0.950 . S
H628 C658 0.950 . S
H629 C659 0.950 . S
C630 H612 0.951 . S
C630 C631 1.366 . S
C630 C632 1.388 . S
C631 C630 1.366 . S
C631 C635 1.385 . S
C632 H613 0.951 . S
C632 C630 1.388 . S
C632 C633 1.366 . S
C633 C632 1.366 . S
C633 C634 1.414 . S
C633 C636 1.499 . S
C634 H614 0.950 . S
C634 C633 1.414 . S
C634 C635 1.374 . S
C635 H615 0.950 . S
C635 C631 1.385 . S
C635 C634 1.374 . S
C636 C633 1.499 . S
C636 C637 1.373 . S
C636 C638 1.389 . S
C637 H616 0.950 . S
C637 C636 1.373 . S
C637 C653 1.377 1_455 S
C638 C636 1.389 . S
C638 C639 1.524 . S
C638 C652 1.377 1_455 S
C639 C638 1.524 . S
C639 C640 1.397 . S
C639 C644 1.363 . S
C640 H617 0.950 . S
C640 C639 1.397 . S
C640 C641 1.334 . S
C641 H618 0.950 . S
C641 C640 1.334 . S
C641 C642 1.287 . S
C642 C641 1.287 . S
C642 C643 1.524 . S
C642 H661 0.913 . S
C643 H619 0.950 . S
C643 C642 1.524 . S
C643 C644 1.415 . S
C644 H620 0.950 . S
C644 C639 1.363 . S
C644 C643 1.415 . S
C645 H621 0.951 . S
C645 C646 1.366 . S
C645 C647 1.388 . S
C646 C645 1.366 . S
C646 C650 1.385 . S
C647 H622 0.951 . S
C647 C645 1.388 . S
C647 C648 1.366 . S
C648 C647 1.366 . S
C648 C649 1.414 . S
C648 C651 1.499 . S
C649 H623 0.950 . S
C649 C648 1.414 . S
C649 C650 1.374 . S
C650 H624 0.950 . S
C650 C646 1.385 . S
C650 C649 1.374 . S
C651 C648 1.499 . S
C651 C652 1.373 . S
C651 C653 1.389 . S
C652 H625 0.950 . S
C652 C638 1.377 1_655 S
C652 C651 1.373 . S
C653 C637 1.377 1_655 S
C653 C651 1.389 . S
C653 C654 1.524 . S
C654 C653 1.524 . S
C654 C655 1.397 . S
C654 C659 1.363 . S
C655 H626 0.950 . S
C655 C654 1.397 . S
C655 C656 1.334 . S
C656 H627 0.950 . S
C656 C655 1.334 . S
C656 C657 1.287 . S
C657 C656 1.287 . S
C657 C658 1.524 . S
C657 H660 0.999 . S
C658 H628 0.950 . S
C658 C657 1.524 . S
C658 C659 1.415 . S
C659 H629 0.950 . S
C659 C654 1.363 . S
C659 C658 1.415 . S
H660 C657 0.999 . S
H661 C642 0.913 . S
H662 C680 0.951 . S
H663 C682 0.951 . S
H664 C684 0.950 . S
H665 C685 0.950 . S
H666 C687 0.950 . S
H667 C690 0.950 . S
H668 C691 0.950 . S
H669 C693 0.950 . S
H670 C694 0.950 . S
H671 C695 0.951 . S
H672 C697 0.951 . S
H673 C699 0.950 . S
H674 C700 0.950 . S
H675 C702 0.950 . S
H676 C705 0.950 . S
H677 C706 0.950 . S
H678 C708 0.950 . S
H679 C709 0.950 . S
C680 H662 0.951 . S
C680 C681 1.366 . S
C680 C682 1.388 . S
C681 C680 1.366 . S
C681 C685 1.385 . S
C682 H663 0.951 . S
C682 C680 1.388 . S
C682 C683 1.366 . S
C683 C682 1.366 . S
C683 C684 1.414 . S
C683 C686 1.499 . S
C684 H664 0.950 . S
C684 C683 1.414 . S
C684 C685 1.374 . S
C685 H665 0.950 . S
C685 C681 1.385 . S
C685 C684 1.374 . S
C686 C683 1.499 . S
C686 C687 1.373 . S
C686 C688 1.389 . S
C687 H666 0.950 . S
C687 C686 1.373 . S
C687 C703 1.377 . S
C688 C686 1.389 . S
C688 C689 1.524 . S
C688 C702 1.377 . S
C689 C688 1.524 . S
C689 C690 1.397 . S
C689 C694 1.363 . S
C690 H667 0.950 . S
C690 C689 1.397 . S
C690 C691 1.334 . S
C691 H668 0.950 . S
C691 C690 1.334 . S
C691 C692 1.287 . S
C692 C691 1.287 . S
C692 C693 1.524 . S
C692 H711 0.913 . S
C693 H669 0.950 . S
C693 C692 1.524 . S
C693 C694 1.415 . S
C694 H670 0.950 . S
C694 C689 1.363 . S
C694 C693 1.415 . S
C695 H671 0.951 . S
C695 C696 1.366 . S
C695 C697 1.388 . S
C696 C695 1.366 . S
C696 C700 1.385 . S
C697 H672 0.951 . S
C697 C695 1.388 . S
C697 C698 1.366 . S
C698 C697 1.366 . S
C698 C699 1.414 . S
C698 C701 1.499 . S
C699 H673 0.950 . S
C699 C698 1.414 . S
C699 C700 1.374 . S
C700 H674 0.950 . S
C700 C696 1.385 . S
C700 C699 1.374 . S
C701 C698 1.499 . S
C701 C702 1.373 . S
C701 C703 1.389 . S
C702 H675 0.950 . S
C702 C688 1.377 . S
C702 C701 1.373 . S
C703 C687 1.377 . S
C703 C701 1.389 . S
C703 C704 1.524 . S
C704 C703 1.524 . S
C704 C705 1.397 . S
C704 C709 1.363 . S
C705 H676 0.950 . S
C705 C704 1.397 . S
C705 C706 1.334 . S
C706 H677 0.950 . S
C706 C705 1.334 . S
C706 C707 1.287 . S
C707 C706 1.287 . S
C707 C708 1.524 . S
C707 H710 0.999 . S
C708 H678 0.950 . S
C708 C707 1.524 . S
C708 C709 1.415 . S
C709 H679 0.950 . S
C709 C704 1.363 . S
C709 C708 1.415 . S
H710 C707 0.999 . S
H711 C692 0.913 . S
H712 C730 0.951 . S
H713 C732 0.951 1_556 S
H714 C734 0.950 . S
H715 C735 0.950 . S
H716 C737 0.950 . S
H717 C740 0.950 . S
H718 C741 0.950 . S
H719 C743 0.950 . S
H720 C744 0.950 . S
H721 C745 0.951 . S
H722 C747 0.951 1_554 S
H723 C749 0.950 . S
H724 C750 0.950 . S
H725 C752 0.950 . S
H726 C755 0.950 . S
H727 C756 0.950 . S
H728 C758 0.950 . S
H729 C759 0.950 . S
C730 H712 0.951 . S
C730 C731 1.366 . S
C730 C732 1.388 . S
C731 C730 1.366 . S
C731 C735 1.385 . S
C732 H713 0.951 1_554 S
C732 C730 1.388 . S
C732 C733 1.366 . S
C733 C732 1.366 . S
C733 C734 1.414 . S
C733 C736 1.499 . S
C734 H714 0.950 . S
C734 C733 1.414 . S
C734 C735 1.374 . S
C735 H715 0.950 . S
C735 C731 1.385 . S
C735 C734 1.374 . S
C736 C733 1.499 . S
C736 C737 1.386 . S
C736 C738 1.389 1_554 S
C737 H716 0.950 . S
C737 C736 1.386 . S
C737 C753 1.364 1_445 S
C738 C736 1.389 1_556 S
C738 C739 1.524 . S
C738 C752 1.364 1_445 S
C739 C738 1.524 . S
C739 C740 1.397 . S
C739 C744 1.363 1_545 S
C740 H717 0.950 . S
C740 C739 1.397 . S
C740 C741 1.334 . S
C741 H718 0.950 . S
C741 C740 1.334 . S
C741 C742 1.287 . S
C742 C741 1.287 . S
C742 C743 1.524 1_545 S
C742 H761 0.913 . S
C743 H719 0.950 . S
C743 C742 1.524 1_565 S
C743 C744 1.415 . S
C744 H720 0.950 . S
C744 C739 1.363 1_565 S
C744 C743 1.415 . S
C745 H721 0.951 . S
C745 C746 1.366 . S
C745 C747 1.388 . S
C746 C745 1.366 . S
C746 C750 1.385 . S
C747 H722 0.951 1_556 S
C747 C745 1.388 . S
C747 C748 1.366 . S
C748 C747 1.366 . S
C748 C749 1.414 . S
C748 C751 1.499 . S
C749 H723 0.950 . S
C749 C748 1.414 . S
C749 C750 1.374 . S
C750 H724 0.950 . S
C750 C746 1.385 . S
C750 C749 1.374 . S
C751 C748 1.499 . S
C751 C752 1.386 . S
C751 C753 1.389 1_556 S
C752 H725 0.950 . S
C752 C738 1.364 1_665 S
C752 C751 1.386 . S
C753 C737 1.364 1_665 S
C753 C751 1.389 1_554 S
C753 C754 1.524 . S
C754 C753 1.524 . S
C754 C755 1.397 . S
C754 C759 1.363 1_565 S
C755 H726 0.950 . S
C755 C754 1.397 . S
C755 C756 1.334 . S
C756 H727 0.950 . S
C756 C755 1.334 . S
C756 C757 1.287 . S
C757 C756 1.287 . S
C757 C758 1.524 1_565 S
C757 H760 0.999 . S
C758 H728 0.950 . S
C758 C757 1.524 1_545 S
C758 C759 1.415 . S
C759 H729 0.950 . S
C759 C754 1.363 1_545 S
C759 C758 1.415 . S
H760 C757 0.999 . S
H761 C742 0.913 . S
H762 C780 0.951 . S
H763 C782 0.951 . S
H764 C784 0.950 . S
H765 C785 0.950 . S
H766 C787 0.950 . S
H767 C790 0.950 . S
H768 C791 0.950 . S
H769 C793 0.950 . S
H770 C794 0.950 . S
H771 C795 0.951 . S
H772 C797 0.951 . S
H773 C799 0.950 . S
H774 C800 0.950 . S
H775 C802 0.950 . S
H776 C805 0.950 . S
H777 C806 0.950 . S
H778 C808 0.950 . S
H779 C809 0.950 . S
C780 H762 0.951 . S
C780 C781 1.366 . S
C780 C782 1.388 . S
C781 C780 1.366 . S
C781 C785 1.385 . S
C782 H763 0.951 . S
C782 C780 1.388 . S
C782 C783 1.366 . S
C783 C782 1.366 . S
C783 C784 1.414 . S
C783 C786 1.499 . S
C784 H764 0.950 . S
C784 C783 1.414 . S
C784 C785 1.374 . S
C785 H765 0.950 . S
C785 C781 1.385 . S
C785 C784 1.374 . S
C786 C783 1.499 . S
C786 C787 1.373 . S
C786 C788 1.389 . S
C787 H766 0.950 . S
C787 C786 1.373 . S
C787 C803 1.377 . S
C788 C786 1.389 . S
C788 C789 1.524 . S
C788 C802 1.377 . S
C789 C788 1.524 . S
C789 C790 1.397 . S
C789 C794 1.363 . S
C790 H767 0.950 . S
C790 C789 1.397 . S
C790 C791 1.334 . S
C791 H768 0.950 . S
C791 C790 1.334 . S
C791 C792 1.287 . S
C792 C791 1.287 . S
C792 C793 1.524 . S
C792 H811 0.913 . S
C793 H769 0.950 . S
C793 C792 1.524 . S
C793 C794 1.415 . S
C794 H770 0.950 . S
C794 C789 1.363 . S
C794 C793 1.415 . S
C795 H771 0.951 . S
C795 C796 1.366 . S
C795 C797 1.388 . S
C796 C795 1.366 . S
C796 C800 1.385 . S
C797 H772 0.951 . S
C797 C795 1.388 . S
C797 C798 1.366 . S
C798 C797 1.366 . S
C798 C799 1.414 . S
C798 C801 1.499 . S
C799 H773 0.950 . S
C799 C798 1.414 . S
C799 C800 1.374 . S
C800 H774 0.950 . S
C800 C796 1.385 . S
C800 C799 1.374 . S
C801 C798 1.499 . S
C801 C802 1.373 . S
C801 C803 1.389 . S
C802 H775 0.950 . S
C802 C788 1.377 . S
C802 C801 1.373 . S
C803 C787 1.377 . S
C803 C801 1.389 . S
C803 C804 1.524 . S
C804 C803 1.524 . S
C804 C805 1.397 . S
C804 C809 1.363 . S
C805 H776 0.950 . S
C805 C804 1.397 . S
C805 C806 1.334 . S
C806 H777 0.950 . S
C806 C805 1.334 . S
C806 C807 1.287 . S
C807 C806 1.287 . S
C807 C808 1.524 . S
C807 H810 0.999 . S
C808 H778 0.950 . S
C808 C807 1.524 . S
C808 C809 1.415 . S
C809 H779 0.950 . S
C809 C804 1.363 . S
C809 C808 1.415 . S
H810 C807 0.999 . S
H811 C792 0.913 . S
H812 C830 0.951 1_556 S
H813 C832 0.951 1_556 S
H814 C834 0.950 . S
H815 C835 0.950 . S
H816 C837 0.950 . S
H817 C840 0.950 . S
H818 C841 0.950 . S
H819 C843 0.950 . S
H820 C844 0.950 . S
H821 C845 0.951 1_554 S
H822 C847 0.951 1_554 S
H823 C849 0.950 . S
H824 C850 0.950 . S
H825 C852 0.950 . S
H826 C855 0.950 . S
H827 C856 0.950 . S
H828 C858 0.950 . S
H829 C859 0.950 . S
C830 H812 0.951 1_554 S
C830 C831 1.366 . S
C830 C832 1.388 . S
C831 C830 1.366 . S
C831 C835 1.385 . S
C832 H813 0.951 1_554 S
C832 C830 1.388 . S
C832 C833 1.366 . S
C833 C832 1.366 . S
C833 C834 1.414 . S
C833 C836 1.499 . S
C834 H814 0.950 . S
C834 C833 1.414 . S
C834 C835 1.374 . S
C835 H815 0.950 . S
C835 C831 1.385 . S
C835 C834 1.374 . S
C836 C833 1.499 . S
C836 C837 1.373 1_554 S
C836 C838 1.389 . S
C837 H816 0.950 . S
C837 C836 1.373 1_556 S
C837 C853 1.377 . S
C838 C836 1.389 . S
C838 C839 1.524 . S
C838 C852 1.377 . S
C839 C838 1.524 . S
C839 C840 1.397 . S
C839 C844 1.363 . S
C840 H817 0.950 . S
C840 C839 1.397 . S
C840 C841 1.334 . S
C841 H818 0.950 . S
C841 C840 1.334 . S
C841 C842 1.287 . S
C842 C841 1.287 . S
C842 C843 1.524 . S
C842 H861 0.913 . S
C843 H819 0.950 . S
C843 C842 1.524 . S
C843 C844 1.415 . S
C844 H820 0.950 . S
C844 C839 1.363 . S
C844 C843 1.415 . S
C845 H821 0.951 1_556 S
C845 C846 1.366 . S
C845 C847 1.388 . S
C846 C845 1.366 . S
C846 C850 1.385 . S
C847 H822 0.951 1_556 S
C847 C845 1.388 . S
C847 C848 1.366 . S
C848 C847 1.366 . S
C848 C849 1.414 . S
C848 C851 1.499 . S
C849 H823 0.950 . S
C849 C848 1.414 . S
C849 C850 1.374 . S
C850 H824 0.950 . S
C850 C846 1.385 . S
C850 C849 1.374 . S
C851 C848 1.499 . S
C851 C852 1.373 1_556 S
C851 C853 1.389 . S
C852 H825 0.950 . S
C852 C838 1.377 . S
C852 C851 1.373 1_554 S
C853 C837 1.377 . S
C853 C851 1.389 . S
C853 C854 1.524 . S
C854 C853 1.524 . S
C854 C855 1.397 . S
C854 C859 1.363 . S
C855 H826 0.950 . S
C855 C854 1.397 . S
C855 C856 1.334 . S
C856 H827 0.950 . S
C856 C855 1.334 . S
C856 C857 1.287 . S
C857 C856 1.287 . S
C857 C858 1.524 . S
C857 H860 0.999 . S
C858 H828 0.950 . S
C858 C857 1.524 . S
C858 C859 1.415 . S
C859 H829 0.950 . S
C859 C854 1.363 . S
C859 C858 1.415 . S
H860 C857 0.999 . S
H861 C842 0.913 . S
H862 C880 0.951 . S
H863 C882 0.951 . S
H864 C884 0.950 . S
H865 C885 0.950 . S
H866 C887 0.950 . S
H867 C890 0.950 . S
H868 C891 0.950 . S
H869 C893 0.950 . S
H870 C894 0.950 . S
H871 C895 0.951 . S
H872 C897 0.951 . S
H873 C899 0.950 . S
H874 C900 0.950 . S
H875 C902 0.950 . S
H876 C905 0.950 . S
H877 C906 0.950 . S
H878 C908 0.950 . S
H879 C909 0.950 . S
C880 H862 0.951 . S
C880 C881 1.366 . S
C880 C882 1.388 . S
C881 C880 1.366 . S
C881 C885 1.385 . S
C882 H863 0.951 . S
C882 C880 1.388 . S
C882 C883 1.366 . S
C883 C882 1.366 . S
C883 C884 1.414 . S
C883 C886 1.499 . S
C884 H864 0.950 . S
C884 C883 1.414 . S
C884 C885 1.374 . S
C885 H865 0.950 . S
C885 C881 1.385 . S
C885 C884 1.374 . S
C886 C883 1.499 . S
C886 C887 1.373 1_565 S
C886 C888 1.407 . S
C887 H866 0.950 . S
C887 C886 1.373 1_545 S
C887 C903 1.359 1_455 S
C888 C886 1.407 . S
C888 C889 1.524 . S
C888 C902 1.359 1_455 S
C889 C888 1.524 . S
C889 C890 1.424 . S
C889 C894 1.336 1_455 S
C890 H867 0.950 . S
C890 C889 1.424 . S
C890 C891 1.334 . S
C891 H868 0.950 . S
C891 C890 1.334 . S
C891 C892 1.287 . S
C892 C891 1.287 . S
C892 C893 1.524 1_455 S
C892 H911 0.913 . S
C893 H869 0.950 . S
C893 C892 1.524 1_655 S
C893 C894 1.415 . S
C894 H870 0.950 . S
C894 C889 1.336 1_655 S
C894 C893 1.415 . S
C895 H871 0.951 . S
C895 C896 1.366 . S
C895 C897 1.388 . S
C896 C895 1.366 . S
C896 C900 1.385 . S
C897 H872 0.951 . S
C897 C895 1.388 . S
C897 C898 1.366 . S
C898 C897 1.366 . S
C898 C899 1.414 . S
C898 C901 1.499 . S
C899 H873 0.950 . S
C899 C898 1.414 . S
C899 C900 1.374 . S
C900 H874 0.950 . S
C900 C896 1.385 . S
C900 C899 1.374 . S
C901 C898 1.499 . S
C901 C902 1.373 1_545 S
C901 C903 1.407 . S
C902 H875 0.950 . S
C902 C888 1.359 1_655 S
C902 C901 1.373 1_565 S
C903 C887 1.359 1_655 S
C903 C901 1.407 . S
C903 C904 1.524 . S
C904 C903 1.524 . S
C904 C905 1.424 . S
C904 C909 1.336 1_655 S
C905 H876 0.950 . S
C905 C904 1.424 . S
C905 C906 1.334 . S
C906 H877 0.950 . S
C906 C905 1.334 . S
C906 C907 1.287 . S
C907 C906 1.287 . S
C907 C908 1.524 1_655 S
C907 H910 0.999 . S
C908 H878 0.950 . S
C908 C907 1.524 1_455 S
C908 C909 1.415 . S
C909 H879 0.950 . S
C909 C904 1.336 1_455 S
C909 C908 1.415 . S
H910 C907 0.999 . S
H911 C892 0.913 . S
C131 C14 2.099 . S
C146 C13 2.138 1_556 S
C181 C0 2.099 . S
C196 C27 2.138 . S
C231 C42 2.098 . S
C246 C41 2.138 1_554 S
C281 C28 2.099 . S
C296 C55 2.138 . S
C331 C68 2.138 1_554 S
C346 C71 2.099 . S
C381 C82 2.138 . S
C396 C57 2.099 . S
C431 C96 2.138 1_556 S
C446 C99 2.099 . S
C481 C85 2.098 . S
C496 C110 2.138 . S
C531 C12 0.347 . S
C546 C54 0.347 . S
C581 C26 0.347 . S
C596 C40 0.347 . S
C631 C111 0.347 . S
C646 C69 0.347 . S
C681 C97 0.348 . S
C696 C83 0.348 . S
C731 C1 1.799 . S
C746 C56 1.799 . S
C781 C70 1.800 . S
C796 C15 1.800 . S
C831 C84 1.799 . S
C846 C29 1.799 . S
C881 C98 1.798 . S
C896 C43 1.798 . S
