# Generated by pormake.
# Topology mon, (4)-cn, num edge types: 1
# Building blocks:
#     Node 0, Type 0, BuildingBlock: NAHDIM_clean_sbu_0, # of connection points: 4
#     Node 1, Type 0, BuildingBlock: NAHDIM_clean_sbu_0, # of connection points: 4
#     Node 2, Type 0, BuildingBlock: NAHDIM_clean_sbu_0, # of connection points: 4
#     Node 3, Type 0, BuildingBlock: NAHDIM_clean_sbu_0, # of connection points: 4
#     Node 4, Type 0, BuildingBlock: NAHDIM_clean_sbu_0, # of connection points: 4
#     Node 5, Type 0, BuildingBlock: NAHDIM_clean_sbu_0, # of connection points: 4
#     Node 6, Type 0, BuildingBlock: NAHDIM_clean_sbu_0, # of connection points: 4
#     Node 7, Type 0, BuildingBlock: NAHDIM_clean_sbu_0, # of connection points: 4
#     Node 8, Type 0, BuildingBlock: NAHDIM_clean_sbu_0, # of connection points: 4
#     Node 9, Type 0, BuildingBlock: NAHDIM_clean_sbu_0, # of connection points: 4
#     Node 10, Type 0, BuildingBlock: NAHDIM_clean_sbu_0, # of connection points: 4
#     Node 11, Type 0, BuildingBlock: NAHDIM_clean_sbu_0, # of connection points: 4
#     Node 12, Type 0, BuildingBlock: NAHDIM_clean_sbu_0, # of connection points: 4
#     Node 13, Type 0, BuildingBlock: NAHDIM_clean_sbu_0, # of connection points: 4
#     Node 14, Type 0, BuildingBlock: NAHDIM_clean_sbu_0, # of connection points: 4
#     Node 15, Type 0, BuildingBlock: NAHDIM_clean_sbu_0, # of connection points: 4
#     Edge 16, Type (0, 0), BuildingBlock: EYOCIG_clean_linker_4, # of connection points: 2
#     Edge 17, Type (0, 0), BuildingBlock: EYOCIG_clean_linker_4, # of connection points: 2
#     Edge 18, Type (0, 0), BuildingBlock: EYOCIG_clean_linker_4, # of connection points: 2
#     Edge 19, Type (0, 0), BuildingBlock: EYOCIG_clean_linker_4, # of connection points: 2
#     Edge 20, Type (0, 0), BuildingBlock: EYOCIG_clean_linker_4, # of connection points: 2
#     Edge 21, Type (0, 0), BuildingBlock: EYOCIG_clean_linker_4, # of connection points: 2
#     Edge 22, Type (0, 0), BuildingBlock: EYOCIG_clean_linker_4, # of connection points: 2
#     Edge 23, Type (0, 0), BuildingBlock: EYOCIG_clean_linker_4, # of connection points: 2
#     Edge 24, Type (0, 0), BuildingBlock: EYOCIG_clean_linker_4, # of connection points: 2
#     Edge 25, Type (0, 0), BuildingBlock: EYOCIG_clean_linker_4, # of connection points: 2
#     Edge 26, Type (0, 0), BuildingBlock: EYOCIG_clean_linker_4, # of connection points: 2
#     Edge 27, Type (0, 0), BuildingBlock: EYOCIG_clean_linker_4, # of connection points: 2
#     Edge 28, Type (0, 0), BuildingBlock: EYOCIG_clean_linker_4, # of connection points: 2
#     Edge 29, Type (0, 0), BuildingBlock: EYOCIG_clean_linker_4, # of connection points: 2
#     Edge 30, Type (0, 0), BuildingBlock: EYOCIG_clean_linker_4, # of connection points: 2
#     Edge 31, Type (0, 0), BuildingBlock: EYOCIG_clean_linker_4, # of connection points: 2
#     Edge 32, Type (0, 0), BuildingBlock: EYOCIG_clean_linker_4, # of connection points: 2
#     Edge 33, Type (0, 0), BuildingBlock: EYOCIG_clean_linker_4, # of connection points: 2
#     Edge 34, Type (0, 0), BuildingBlock: EYOCIG_clean_linker_4, # of connection points: 2
#     Edge 35, Type (0, 0), BuildingBlock: EYOCIG_clean_linker_4, # of connection points: 2
#     Edge 36, Type (0, 0), BuildingBlock: EYOCIG_clean_linker_4, # of connection points: 2
#     Edge 37, Type (0, 0), BuildingBlock: EYOCIG_clean_linker_4, # of connection points: 2
#     Edge 38, Type (0, 0), BuildingBlock: EYOCIG_clean_linker_4, # of connection points: 2
#     Edge 39, Type (0, 0), BuildingBlock: EYOCIG_clean_linker_4, # of connection points: 2
#     Edge 40, Type (0, 0), BuildingBlock: EYOCIG_clean_linker_4, # of connection points: 2
#     Edge 41, Type (0, 0), BuildingBlock: EYOCIG_clean_linker_4, # of connection points: 2
#     Edge 42, Type (0, 0), BuildingBlock: EYOCIG_clean_linker_4, # of connection points: 2
#     Edge 43, Type (0, 0), BuildingBlock: EYOCIG_clean_linker_4, # of connection points: 2
#     Edge 44, Type (0, 0), BuildingBlock: EYOCIG_clean_linker_4, # of connection points: 2
#     Edge 45, Type (0, 0), BuildingBlock: EYOCIG_clean_linker_4, # of connection points: 2
#     Edge 46, Type (0, 0), BuildingBlock: EYOCIG_clean_linker_4, # of connection points: 2
#     Edge 47, Type (0, 0), BuildingBlock: EYOCIG_clean_linker_4, # of connection points: 2
# Relax obj value: 0.124
# Max RMSD: 0.121
# Mean RMSD: 0.121
data_MOF--net-mon--node1-NAHDIM_clean_sbu_0--edge1-EYOCIG_clean_linker_4
_symmetry_space_group_name_H-M    P1
_symmetry_Int_Tables_number       1
_symmetry_cell_setting            triclinic
loop_
_symmetry_equiv_pos_as_xyz
'x, y, z'
_cell_length_a     28.275175
_cell_length_b     28.269492
_cell_length_c     64.442631
_cell_angle_alpha  89.982344
_cell_angle_beta   89.95415
_cell_angle_gamma 89.981149
loop_
_atom_site_label
_atom_site_type_symbol
_atom_site_fract_x
_atom_site_fract_y
_atom_site_fract_z
_atom_type_partial_charge
C0 C 0.97629 0.11833 0.59533 0.0
O1 O 0.93301 0.10491 0.59095 0.0
O2 O 0.94056 -0.0063 0.60241 0.0
Zn3 Zn -0.00107 0.01992 0.58808 0.0
O4 O -0.00712 0.01643 0.55681 0.0
C5 C 0.05148 0.94004 0.60358 0.0
O6 O 0.00967 0.92001 0.60362 0.0
O7 O 0.00959 0.08825 0.59554 0.0
C8 C 0.00914 0.98217 0.54625 0.0
O9 O 0.02993 0.94654 0.55555 0.0
C10 C 0.91119 0.96734 0.59299 0.0
O11 O 0.91683 0.95834 0.57318 0.0
O12 O 0.05609 0.98249 0.59747 0.0
C13 C 0.11702 0.70781 0.84522 0.0
O14 O 0.13042 0.66461 0.84066 0.0
O15 O 0.2415 0.67186 0.85248 0.0
Zn16 Zn 0.21543 0.73026 0.83814 0.0
O17 O 0.21896 0.72418 0.80686 0.0
C18 C 0.29538 0.78253 0.85361 0.0
O19 O 0.31529 0.74063 0.8536 0.0
O20 O 0.14712 0.74106 0.84561 0.0
C21 C 0.25333 0.74023 0.7963 0.0
O22 O 0.28904 0.76082 0.8056 0.0
C23 C 0.2677 0.6423 0.84305 0.0
O24 O 0.27658 0.64772 0.82322 0.0
O25 O 0.25295 0.78731 0.84753 0.0
C26 C 0.52855 0.84841 0.09619 0.0
O27 O 0.57225 0.86214 0.09296 0.0
O28 O 0.56397 0.97275 0.10234 0.0
Zn29 Zn 0.5057 0.94656 0.08797 0.0
O30 O 0.51178 0.95026 0.0567 0.0
C31 C 0.45316 0.0263 0.10359 0.0
O32 O 0.49502 0.04623 0.10372 0.0
O33 O 0.495 0.87816 0.09536 0.0
C34 C 0.49613 -0.01507 0.04622 0.0
O35 O 0.47603 0.02085 0.05561 0.0
C36 C 0.59377 -0.00136 0.0929 0.0
O37 O 0.58872 0.00715 0.07302 0.0
O38 O 0.44851 -0.01606 0.09737 0.0
C39 C 0.38701 0.25915 0.34458 0.0
O40 O 0.3734 0.30213 0.33973 0.0
O41 O 0.26223 0.29446 0.35224 0.0
Zn42 Zn 0.28862 0.23616 0.33792 0.0
O43 O 0.28492 0.24206 0.30665 0.0
C44 C 0.209 0.18343 0.35348 0.0
O45 O 0.18886 0.22522 0.35345 0.0
O46 O 0.35703 0.22582 0.34531 0.0
C47 C 0.25035 0.22623 0.29618 0.0
O48 O 0.21451 0.20603 0.30559 0.0
C49 C 0.23643 0.32427 0.34276 0.0
O50 O 0.22809 0.31918 0.32288 0.0
O51 O 0.25147 0.17889 0.34739 0.0
C52 C 0.97553 0.84821 0.39239 0.0
O53 O 0.93179 0.86221 0.39534 0.0
O54 O 0.94054 0.97256 0.38635 0.0
Zn55 Zn -0.00126 0.94623 0.40074 0.0
O56 O -0.00733 0.9501 0.43201 0.0
C57 C 0.05151 0.02582 0.38517 0.0
O58 O 0.00973 0.04595 0.38516 0.0
O59 O 0.0092 0.87775 0.39344 0.0
C60 C 0.00869 -0.0154 0.44248 0.0
O61 O 0.02917 0.02027 0.43308 0.0
C62 C 0.91094 -0.00122 0.39574 0.0
O63 O 0.91618 0.00758 0.41558 0.0
O64 O 0.05604 -0.01663 0.3913 0.0
C65 C 0.38718 0.70691 0.64302 0.0
O66 O 0.37336 0.66341 0.64673 0.0
O67 O 0.26274 0.6718 0.63637 0.0
Zn68 Zn 0.289 0.73004 0.65075 0.0
O69 O 0.28521 0.72398 0.68202 0.0
C70 C 0.20918 0.78268 0.63538 0.0
O71 O 0.18904 0.74091 0.63559 0.0
O72 O 0.35744 0.74051 0.64338 0.0
C73 C 0.25071 0.73992 0.69254 0.0
O74 O 0.21495 0.76034 0.68318 0.0
C75 C 0.23685 0.64198 0.64579 0.0
O76 O 0.22834 0.647 0.66567 0.0
O77 O 0.25174 0.78727 0.64131 0.0
C78 C 0.52773 0.11854 0.89417 0.0
O79 O 0.57052 0.1053 0.89948 0.0
O80 O 0.56374 -0.00625 0.88619 0.0
Zn81 Zn 0.50547 0.01996 0.90059 0.0
O82 O 0.51168 0.01656 0.93187 0.0
C83 C 0.45302 0.93991 0.88536 0.0
O84 O 0.49483 0.91986 0.88548 0.0
O85 O 0.49474 0.08825 0.89308 0.0
C86 C 0.49587 0.98212 0.94246 0.0
O87 O 0.4755 0.94623 0.93319 0.0
C88 C 0.59353 0.96783 0.89561 0.0
O89 O 0.58845 0.95929 0.91548 0.0
O90 O 0.44834 0.98248 0.89129 0.0
C91 C 0.11703 0.25926 0.14391 0.0
O92 O 0.13057 0.30216 0.1489 0.0
O93 O 0.24177 0.29467 0.13628 0.0
Zn94 Zn 0.2154 0.23635 0.15057 0.0
O95 O 0.21885 0.24229 0.18185 0.0
C96 C 0.2954 0.18376 0.13532 0.0
O97 O 0.31559 0.2255 0.13565 0.0
O98 O 0.14707 0.22597 0.14309 0.0
C99 C 0.25308 0.22602 0.19242 0.0
O100 O 0.28874 0.20525 0.18312 0.0
C101 C 0.26753 0.32444 0.14577 0.0
O102 O 0.27584 0.31929 0.16566 0.0
O103 O 0.25274 0.17916 0.14114 0.0
C104 C 0.88689 0.20772 0.14393 0.0
O105 O 0.87352 0.16483 0.14904 0.0
O106 O 0.7622 0.17189 0.13618 0.0
Zn107 Zn 0.78839 0.23022 0.15051 0.0
O108 O 0.7849 0.22418 0.18179 0.0
C109 C 0.70839 0.28264 0.13516 0.0
O110 O 0.68841 0.2408 0.13528 0.0
O111 O 0.8567 0.24086 0.143 0.0
C112 C 0.7503 0.2398 0.19233 0.0
O113 O 0.71429 0.25985 0.18301 0.0
C114 C 0.73667 0.14187 0.14567 0.0
O115 O 0.72852 0.14672 0.16559 0.0
O116 O 0.75091 0.28734 0.14113 0.0
C117 C 0.61727 0.75887 0.64314 0.0
O118 O 0.63079 0.80221 0.64733 0.0
O119 O 0.74182 0.79447 0.63616 0.0
Zn120 Zn 0.71559 0.73613 0.65051 0.0
O121 O 0.71912 0.74215 0.68179 0.0
C122 C 0.79559 0.6837 0.63511 0.0
O123 O 0.81558 0.72554 0.63522 0.0
O124 O 0.64724 0.72547 0.64308 0.0
C125 C 0.75368 0.72643 0.69231 0.0
O126 O 0.78962 0.70626 0.68296 0.0
C127 C 0.76763 0.82426 0.64562 0.0
O128 O 0.77601 0.81915 0.6655 0.0
O129 O 0.75306 0.679 0.64111 0.0
C130 C 0.61719 0.2075 0.34437 0.0
O131 O 0.63052 0.16473 0.33906 0.0
O132 O 0.74199 0.17165 0.3523 0.0
Zn133 Zn 0.71573 0.22997 0.33797 0.0
O134 O 0.7192 0.2239 0.30669 0.0
C135 C 0.79569 0.28249 0.35326 0.0
O136 O 0.81582 0.24071 0.35305 0.0
O137 O 0.6474 0.24056 0.34548 0.0
C138 C 0.75348 0.24003 0.29609 0.0
O139 O 0.78918 0.2607 0.30536 0.0
C140 C 0.76804 0.142 0.34286 0.0
O141 O 0.77671 0.14727 0.32301 0.0
O142 O 0.75311 0.28713 0.34735 0.0
C143 C 0.88697 0.7599 0.84532 0.0
O144 O 0.87316 0.80323 0.84124 0.0
O145 O 0.76237 0.79487 0.85219 0.0
Zn146 Zn 0.78884 0.73664 0.83786 0.0
O147 O 0.78526 0.74262 0.80659 0.0
C148 C 0.70912 0.6839 0.85328 0.0
O149 O 0.68893 0.72566 0.85312 0.0
O150 O 0.85722 0.72632 0.84528 0.0
C151 C 0.75084 0.72663 0.79607 0.0
O152 O 0.71507 0.70618 0.80542 0.0
C153 C 0.73668 0.82477 0.84272 0.0
O154 O 0.72852 0.81984 0.82281 0.0
O155 O 0.75168 0.67936 0.8473 0.0
C156 C 0.47559 0.61854 0.09615 0.0
O157 O 0.43198 0.60491 0.0926 0.0
O158 O 0.44008 0.49412 0.10249 0.0
Zn159 Zn 0.49839 0.52036 0.08813 0.0
O160 O 0.49233 0.51688 0.05686 0.0
C161 C 0.55084 0.4403 0.10344 0.0
O162 O 0.50905 0.42024 0.10327 0.0
O163 O 0.50908 0.5887 0.09558 0.0
C164 C 0.50858 0.48262 0.04628 0.0
O165 O 0.52935 0.44696 0.05557 0.0
C166 C 0.41054 0.46796 0.09307 0.0
O167 O 0.41593 0.45921 0.07323 0.0
O168 O 0.55551 0.48289 0.09752 0.0
C169 C 0.02899 0.34827 0.59543 0.0
O170 O 0.07241 0.36188 0.59145 0.0
O171 O 0.06437 0.47283 0.60227 0.0
Zn172 Zn 0.00614 0.44658 0.5879 0.0
O173 O 0.01227 0.45021 0.55663 0.0
C174 C 0.95346 0.52644 0.6033 0.0
O175 O -0.00477 0.54658 0.60316 0.0
O176 O -0.00446 0.37819 0.59531 0.0
C177 C -0.00392 0.48454 0.54608 0.0
O178 O 0.97535 0.52018 0.5554 0.0
C179 C 0.09396 0.49902 0.59287 0.0
O180 O 0.08868 0.50783 0.57302 0.0
O181 O 0.94891 0.4839 0.59731 0.0
C182 C 0.47577 0.34868 0.89388 0.0
O183 O 0.43265 0.36238 0.89843 0.0
O184 O 0.44058 0.47333 0.88643 0.0
Zn185 Zn 0.49882 0.44701 0.90078 0.0
O186 O 0.4928 0.45079 0.93205 0.0
C187 C 0.55155 0.52657 0.88516 0.0
O188 O 0.50976 0.54668 0.88514 0.0
O189 O 0.50919 0.37858 0.89343 0.0
C190 C 0.50865 0.48535 0.94252 0.0
O191 O 0.52896 0.52114 0.93313 0.0
C192 C 0.4108 0.49924 0.89587 0.0
O193 O 0.41589 0.50775 0.91574 0.0
O194 O 0.5561 0.48414 0.89132 0.0
C195 C 0.02814 0.6182 0.39255 0.0
O196 O 0.07175 0.60459 0.39611 0.0
O197 O 0.06377 0.49378 0.38611 0.0
Zn198 Zn 0.00547 0.51997 0.40051 0.0
O199 O 0.01161 0.51636 0.43178 0.0
C200 C 0.95305 0.44006 0.38507 0.0
O201 O -0.00509 0.42009 0.38507 0.0
O202 O -0.00531 0.58834 0.39309 0.0
C203 C -0.00411 0.48179 0.44232 0.0
O204 O 0.97565 0.44591 0.43299 0.0
C205 C 0.09348 0.46776 0.39552 0.0
O206 O 0.08831 0.45913 0.41539 0.0
O207 O 0.94834 0.48252 0.39115 0.0
C208 C -0.00324 0.20902 0.59931 0.0
C209 C -0.01291 0.1677 0.59747 0.0
C210 C 0.00863 0.25753 0.59933 0.0
C211 C 0.01831 0.29887 0.59753 0.0
C212 C 0.97777 0.73995 0.84924 0.0
C213 C 0.93641 0.74945 0.84743 0.0
C214 C 0.02632 0.72823 0.84922 0.0
C215 C 0.06766 0.71863 0.84738 0.0
C216 C 0.49607 0.70923 0.10011 0.0
C217 C 0.48628 0.66793 0.09829 0.0
C218 C 0.50807 0.75771 0.10012 0.0
C219 C 0.51788 0.79901 0.09831 0.0
C220 C 0.52643 0.22769 0.34839 0.0
C221 C 0.56782 0.21828 0.34654 0.0
C222 C 0.47784 0.23922 0.34844 0.0
C223 C 0.43644 0.24859 0.34666 0.0
C224 C -0.0043 0.75742 0.38854 0.0
C225 C -0.01401 0.79875 0.39031 0.0
C226 C 0.00763 0.70891 0.38858 0.0
C227 C 0.0174 0.66759 0.39041 0.0
C228 C 0.47799 0.72692 0.63915 0.0
C229 C 0.43662 0.71739 0.64093 0.0
C230 C 0.52654 0.73861 0.63917 0.0
C231 C 0.56788 0.74817 0.641 0.0
C232 C 0.49573 0.25783 0.89006 0.0
C233 C 0.48629 0.29923 0.89183 0.0
C234 C 0.50736 0.20925 0.89012 0.0
C235 C 0.51685 0.16789 0.89198 0.0
C236 C 0.02623 0.23937 0.13995 0.0
C237 C 0.06763 0.2487 0.14177 0.0
C238 C 0.97764 0.22787 0.13995 0.0
C239 C 0.93626 0.21848 0.14178 0.0
C240 C 0.00435 -0.01639 0.48341 0.0
C241 C 0.00614 -0.01629 0.46472 0.0
C242 C 0.00445 -0.0166 0.50532 0.0
C243 C 0.00638 -0.01678 0.52401 0.0
C244 C 0.25209 0.7356 0.75538 0.0
C245 C 0.25229 0.73752 0.77407 0.0
C246 C 0.25183 0.73552 0.73347 0.0
C247 C 0.25168 0.73734 0.71477 0.0
C248 C 0.50054 -0.01617 0.00529 0.0
C249 C 0.4987 -0.016 0.02398 0.0
C250 C 0.5005 -0.01647 0.98338 0.0
C251 C 0.49859 -0.01673 0.96469 0.0
C252 C 0.2517 0.23055 0.23334 0.0
C253 C 0.25194 0.22869 0.21465 0.0
C254 C 0.25142 0.23058 0.25525 0.0
C255 C 0.25127 0.22877 0.27394 0.0
C256 C 0.75167 0.23539 0.23326 0.0
C257 C 0.7514 0.23722 0.21457 0.0
C258 C 0.75205 0.23543 0.25517 0.0
C259 C 0.75233 0.23733 0.27386 0.0
C260 C 0.75242 0.73097 0.73323 0.0
C261 C 0.75264 0.72908 0.71454 0.0
C262 C 0.75211 0.73101 0.75514 0.0
C263 C 0.75189 0.7292 0.77383 0.0
C264 C 0.50414 0.48431 0.98345 0.0
C265 C 0.50603 0.48445 0.96476 0.0
C266 C 0.5041 0.48401 0.00536 0.0
C267 C 0.50594 0.48377 0.02405 0.0
C268 C 0.00056 0.48327 0.50515 0.0
C269 C -0.00128 0.48347 0.52384 0.0
C270 C 0.0005 0.48298 0.48324 0.0
C271 C -0.00142 0.4828 0.46455 0.0
C272 C 0.15685 0.8544 0.6229 0.0
C273 C 0.18244 0.82303 0.62874 0.0
C274 C 0.12332 0.88782 0.616 0.0
C275 C 0.09187 0.91333 0.61018 0.0
C276 C 0.34781 0.85414 0.86606 0.0
C277 C 0.32221 0.82281 0.86022 0.0
C278 C 0.38131 0.88757 0.87295 0.0
C279 C 0.41271 0.91313 0.87876 0.0
C280 C 0.38132 0.07859 0.11598 0.0
C281 C 0.41276 0.05305 0.11016 0.0
C282 C 0.34779 0.11205 0.12286 0.0
C283 C 0.32219 0.14343 0.12869 0.0
C284 C 0.12338 0.07801 0.37277 0.0
C285 C 0.09196 0.05247 0.37859 0.0
C286 C 0.15685 0.11153 0.36589 0.0
C287 C 0.18235 0.14299 0.36007 0.0
C288 C 0.84673 0.04692 0.37473 0.0
C289 C 0.87624 0.02465 0.38407 0.0
C290 C 0.81612 0.07761 0.36381 0.0
C291 C 0.79389 0.10719 0.35448 0.0
C292 C 0.65801 0.04678 0.11386 0.0
C293 C 0.62849 0.02452 0.10453 0.0
C294 C 0.68861 0.07747 0.12476 0.0
C295 C 0.71081 0.10705 0.13409 0.0
C296 C 0.68844 0.88907 0.86366 0.0
C297 C 0.71071 0.85954 0.85431 0.0
C298 C 0.65779 0.91971 0.87459 0.0
C299 C 0.62827 0.94195 0.88395 0.0
C300 C 0.81588 0.88862 0.62472 0.0
C301 C 0.79357 0.85904 0.63402 0.0
C302 C 0.84665 0.9193 0.61387 0.0
C303 C 0.87631 0.94154 0.6046 0.0
C304 C 0.65598 0.35435 0.12274 0.0
C305 C 0.68156 0.32296 0.12855 0.0
C306 C 0.62252 0.38787 0.11587 0.0
C307 C 0.59115 0.41348 0.11005 0.0
C308 C 0.84795 0.35421 0.36573 0.0
C309 C 0.82242 0.32282 0.35989 0.0
C310 C 0.88139 0.3877 0.37263 0.0
C311 C 0.91274 0.41328 0.37846 0.0
C312 C 0.88162 0.57863 0.61576 0.0
C313 C 0.91307 0.55313 0.60992 0.0
C314 C 0.84806 0.61205 0.62266 0.0
C315 C 0.82242 0.64339 0.62849 0.0
C316 C 0.65693 0.6121 0.86577 0.0
C317 C 0.68246 0.64351 0.85992 0.0
C318 C 0.62343 0.57866 0.87268 0.0
C319 C 0.59199 0.55319 0.87854 0.0
C320 C 0.34644 0.5473 0.87492 0.0
C321 C 0.37601 0.52509 0.88425 0.0
C322 C 0.31577 0.57794 0.86401 0.0
C323 C 0.29353 0.60751 0.85469 0.0
C324 C 0.15819 0.5471 0.61386 0.0
C325 C 0.12868 0.52486 0.60451 0.0
C326 C 0.18879 0.57773 0.62479 0.0
C327 C 0.211 0.60725 0.63414 0.0
C328 C 0.15771 0.41952 0.37454 0.0
C329 C 0.12819 0.44183 0.38387 0.0
C330 C 0.18833 0.38875 0.36365 0.0
C331 C 0.21056 0.35913 0.35435 0.0
C332 C 0.34627 0.41971 0.11401 0.0
C333 C 0.3758 0.44203 0.1047 0.0
C334 C 0.31565 0.38895 0.1249 0.0
C335 C 0.29342 0.35932 0.1342 0.0
loop_
_geom_bond_atom_site_label_1
_geom_bond_atom_site_label_2
_geom_bond_distance
_geom_bond_site_symmetry_2
_ccdc_geom_bond_type
C0 O1 1.157 1_455 S
C0 O7 1.187 . S
O1 C0 1.157 1_655 S
O2 Zn3 1.899 1_655 S
O2 C10 1.284 1_545 S
Zn3 O2 1.899 1_455 S
Zn3 O4 2.032 . S
Zn3 O7 2.086 . S
Zn3 O12 1.977 . S
O4 Zn3 2.032 . S
O4 C8 1.278 . S
C5 O6 1.203 . S
C5 O12 1.267 1_565 S
O6 C5 1.203 . S
O7 C0 1.187 . S
O7 Zn3 2.086 . S
C8 O4 1.278 . S
C8 O9 1.211 1_545 S
O9 C8 1.211 1_565 S
C10 O2 1.284 1_565 S
C10 O11 1.273 . S
O11 C10 1.273 . S
O12 Zn3 1.977 . S
O12 C5 1.267 1_545 S
C13 O14 1.160 . S
C13 O20 1.185 . S
O14 C13 1.160 . S
O15 Zn16 1.899 . S
O15 C23 1.284 . S
Zn16 O15 1.899 . S
Zn16 O17 2.032 . S
Zn16 O20 2.086 . S
Zn16 O25 1.977 . S
O17 Zn16 2.032 . S
O17 C21 1.278 . S
C18 O19 1.203 . S
C18 O25 1.267 . S
O19 C18 1.203 . S
O20 C13 1.185 . S
O20 Zn16 2.086 . S
C21 O17 1.278 . S
C21 O22 1.211 . S
O22 C21 1.211 . S
C23 O15 1.284 . S
C23 O24 1.273 . S
O24 C23 1.273 . S
O25 Zn16 1.977 . S
O25 C18 1.267 . S
C26 O27 1.160 . S
C26 O33 1.185 . S
O27 C26 1.160 . S
O28 Zn29 1.899 . S
O28 C36 1.284 1_565 S
Zn29 O28 1.899 . S
Zn29 O30 2.032 . S
Zn29 O33 2.086 . S
Zn29 O38 1.977 . S
O30 Zn29 2.032 . S
O30 C34 1.278 . S
C31 O32 1.203 . S
C31 O38 1.267 1_545 S
O32 C31 1.203 . S
O33 C26 1.185 . S
O33 Zn29 2.086 . S
C34 O30 1.278 . S
C34 O35 1.211 1_565 S
O35 C34 1.211 1_545 S
C36 O28 1.284 1_545 S
C36 O37 1.273 . S
O37 C36 1.273 . S
O38 Zn29 1.977 . S
O38 C31 1.267 1_565 S
C39 O40 1.160 . S
C39 O46 1.185 . S
O40 C39 1.160 . S
O41 Zn42 1.899 . S
O41 C49 1.284 . S
Zn42 O41 1.899 . S
Zn42 O43 2.032 . S
Zn42 O46 2.086 . S
Zn42 O51 1.977 . S
O43 Zn42 2.032 . S
O43 C47 1.278 . S
C44 O45 1.203 . S
C44 O51 1.267 . S
O45 C44 1.203 . S
O46 C39 1.185 . S
O46 Zn42 2.086 . S
C47 O43 1.278 . S
C47 O48 1.211 . S
O48 C47 1.211 . S
C49 O41 1.284 . S
C49 O50 1.273 . S
O50 C49 1.273 . S
O51 Zn42 1.977 . S
O51 C44 1.267 . S
C52 O53 1.157 1_455 S
C52 O59 1.187 . S
O53 C52 1.157 1_655 S
O54 Zn55 1.899 1_655 S
O54 C62 1.284 1_565 S
Zn55 O54 1.899 1_455 S
Zn55 O56 2.032 . S
Zn55 O59 2.086 . S
Zn55 O64 1.977 . S
O56 Zn55 2.032 . S
O56 C60 1.278 . S
C57 O58 1.203 . S
C57 O64 1.267 1_545 S
O58 C57 1.203 . S
O59 C52 1.187 . S
O59 Zn55 2.086 . S
C60 O56 1.278 . S
C60 O61 1.211 1_565 S
O61 C60 1.211 1_545 S
C62 O54 1.284 1_545 S
C62 O63 1.273 . S
O63 C62 1.273 . S
O64 Zn55 1.977 . S
O64 C57 1.267 1_565 S
C65 O66 1.160 . S
C65 O72 1.185 . S
O66 C65 1.160 . S
O67 Zn68 1.899 . S
O67 C75 1.284 . S
Zn68 O67 1.899 . S
Zn68 O69 2.032 . S
Zn68 O72 2.086 . S
Zn68 O77 1.977 . S
O69 Zn68 2.032 . S
O69 C73 1.278 . S
C70 O71 1.203 . S
C70 O77 1.267 . S
O71 C70 1.203 . S
O72 C65 1.185 . S
O72 Zn68 2.086 . S
C73 O69 1.278 . S
C73 O74 1.211 . S
O74 C73 1.211 . S
C75 O67 1.284 . S
C75 O76 1.273 . S
O76 C75 1.273 . S
O77 Zn68 1.977 . S
O77 C70 1.267 . S
C78 O79 1.160 . S
C78 O85 1.185 . S
O79 C78 1.160 . S
O80 Zn81 1.899 . S
O80 C88 1.284 1_545 S
Zn81 O80 1.899 . S
Zn81 O82 2.032 . S
Zn81 O85 2.086 . S
Zn81 O90 1.977 . S
O82 Zn81 2.032 . S
O82 C86 1.278 . S
C83 O84 1.203 . S
C83 O90 1.267 1_565 S
O84 C83 1.203 . S
O85 C78 1.185 . S
O85 Zn81 2.086 . S
C86 O82 1.278 . S
C86 O87 1.211 1_545 S
O87 C86 1.211 1_565 S
C88 O80 1.284 1_565 S
C88 O89 1.273 . S
O89 C88 1.273 . S
O90 Zn81 1.977 . S
O90 C83 1.267 1_545 S
C91 O92 1.160 . S
C91 O98 1.185 . S
O92 C91 1.160 . S
O93 Zn94 1.899 . S
O93 C101 1.284 . S
Zn94 O93 1.899 . S
Zn94 O95 2.032 . S
Zn94 O98 2.086 . S
Zn94 O103 1.977 . S
O95 Zn94 2.032 . S
O95 C99 1.278 . S
C96 O97 1.203 . S
C96 O103 1.267 . S
O97 C96 1.203 . S
O98 C91 1.185 . S
O98 Zn94 2.086 . S
C99 O95 1.278 . S
C99 O100 1.211 . S
O100 C99 1.211 . S
C101 O93 1.284 . S
C101 O102 1.273 . S
O102 C101 1.273 . S
O103 Zn94 1.977 . S
O103 C96 1.267 . S
C104 O105 1.160 . S
C104 O111 1.185 . S
O105 C104 1.160 . S
O106 Zn107 1.899 . S
O106 C114 1.284 . S
Zn107 O106 1.899 . S
Zn107 O108 2.032 . S
Zn107 O111 2.086 . S
Zn107 O116 1.977 . S
O108 Zn107 2.032 . S
O108 C112 1.278 . S
C109 O110 1.203 . S
C109 O116 1.267 . S
O110 C109 1.203 . S
O111 C104 1.185 . S
O111 Zn107 2.086 . S
C112 O108 1.278 . S
C112 O113 1.211 . S
O113 C112 1.211 . S
C114 O106 1.284 . S
C114 O115 1.273 . S
O115 C114 1.273 . S
O116 Zn107 1.977 . S
O116 C109 1.267 . S
C117 O118 1.160 . S
C117 O124 1.185 . S
O118 C117 1.160 . S
O119 Zn120 1.899 . S
O119 C127 1.284 . S
Zn120 O119 1.899 . S
Zn120 O121 2.032 . S
Zn120 O124 2.086 . S
Zn120 O129 1.977 . S
O121 Zn120 2.032 . S
O121 C125 1.278 . S
C122 O123 1.203 . S
C122 O129 1.267 . S
O123 C122 1.203 . S
O124 C117 1.185 . S
O124 Zn120 2.086 . S
C125 O121 1.278 . S
C125 O126 1.211 . S
O126 C125 1.211 . S
C127 O119 1.284 . S
C127 O128 1.273 . S
O128 C127 1.273 . S
O129 Zn120 1.977 . S
O129 C122 1.267 . S
C130 O131 1.160 . S
C130 O137 1.185 . S
O131 C130 1.160 . S
O132 Zn133 1.899 . S
O132 C140 1.284 . S
Zn133 O132 1.899 . S
Zn133 O134 2.032 . S
Zn133 O137 2.086 . S
Zn133 O142 1.977 . S
O134 Zn133 2.032 . S
O134 C138 1.278 . S
C135 O136 1.203 . S
C135 O142 1.267 . S
O136 C135 1.203 . S
O137 C130 1.185 . S
O137 Zn133 2.086 . S
C138 O134 1.278 . S
C138 O139 1.211 . S
O139 C138 1.211 . S
C140 O132 1.284 . S
C140 O141 1.273 . S
O141 C140 1.273 . S
O142 Zn133 1.977 . S
O142 C135 1.267 . S
C143 O144 1.160 . S
C143 O150 1.185 . S
O144 C143 1.160 . S
O145 Zn146 1.899 . S
O145 C153 1.284 . S
Zn146 O145 1.899 . S
Zn146 O147 2.032 . S
Zn146 O150 2.086 . S
Zn146 O155 1.977 . S
O147 Zn146 2.032 . S
O147 C151 1.278 . S
C148 O149 1.203 . S
C148 O155 1.267 . S
O149 C148 1.203 . S
O150 C143 1.185 . S
O150 Zn146 2.086 . S
C151 O147 1.278 . S
C151 O152 1.211 . S
O152 C151 1.211 . S
C153 O145 1.284 . S
C153 O154 1.273 . S
O154 C153 1.273 . S
O155 Zn146 1.977 . S
O155 C148 1.267 . S
C156 O157 1.160 . S
C156 O163 1.185 . S
O157 C156 1.160 . S
O158 Zn159 1.899 . S
O158 C166 1.284 . S
Zn159 O158 1.899 . S
Zn159 O160 2.032 . S
Zn159 O163 2.086 . S
Zn159 O168 1.977 . S
O160 Zn159 2.032 . S
O160 C164 1.278 . S
C161 O162 1.203 . S
C161 O168 1.267 . S
O162 C161 1.203 . S
O163 C156 1.185 . S
O163 Zn159 2.086 . S
C164 O160 1.278 . S
C164 O165 1.211 . S
O165 C164 1.211 . S
C166 O158 1.284 . S
C166 O167 1.273 . S
O167 C166 1.273 . S
O168 Zn159 1.977 . S
O168 C161 1.267 . S
C169 O170 1.160 . S
C169 O176 1.185 . S
O170 C169 1.160 . S
O171 Zn172 1.899 . S
O171 C179 1.284 . S
Zn172 O171 1.899 . S
Zn172 O173 2.032 . S
Zn172 O176 2.086 . S
Zn172 O181 1.977 1_455 S
O173 Zn172 2.032 . S
O173 C177 1.278 . S
C174 O175 1.203 . S
C174 O181 1.267 . S
O175 C174 1.203 . S
O176 C169 1.185 . S
O176 Zn172 2.086 . S
C177 O173 1.278 . S
C177 O178 1.215 . S
O178 C177 1.215 . S
C179 O171 1.284 . S
C179 O180 1.273 . S
O180 C179 1.273 . S
O181 Zn172 1.977 1_655 S
O181 C174 1.267 . S
C182 O183 1.160 . S
C182 O189 1.185 . S
O183 C182 1.160 . S
O184 Zn185 1.899 . S
O184 C192 1.284 . S
Zn185 O184 1.899 . S
Zn185 O186 2.032 . S
Zn185 O189 2.086 . S
Zn185 O194 1.977 . S
O186 Zn185 2.032 . S
O186 C190 1.278 . S
C187 O188 1.203 . S
C187 O194 1.267 . S
O188 C187 1.203 . S
O189 C182 1.185 . S
O189 Zn185 2.086 . S
C190 O186 1.278 . S
C190 O191 1.211 . S
O191 C190 1.211 . S
C192 O184 1.284 . S
C192 O193 1.273 . S
O193 C192 1.273 . S
O194 Zn185 1.977 . S
O194 C187 1.267 . S
C195 O196 1.160 . S
C195 O202 1.185 . S
O196 C195 1.160 . S
O197 Zn198 1.899 . S
O197 C205 1.284 . S
Zn198 O197 1.899 . S
Zn198 O199 2.032 . S
Zn198 O202 2.086 . S
Zn198 O207 1.977 1_455 S
O199 Zn198 2.032 . S
O199 C203 1.278 . S
C200 O201 1.203 . S
C200 O207 1.267 . S
O201 C200 1.203 . S
O202 C195 1.185 . S
O202 Zn198 2.086 . S
C203 O199 1.278 . S
C203 O204 1.215 . S
O204 C203 1.215 . S
C205 O197 1.284 . S
C205 O206 1.273 . S
O206 C205 1.273 . S
O207 Zn198 1.977 1_655 S
O207 C200 1.267 . S
C208 C209 1.170 . S
C208 C210 1.380 . S
C209 C208 1.170 . S
C210 C208 1.380 . S
C210 C211 1.170 . S
C211 C210 1.170 . S
C212 C213 1.170 . S
C212 C214 1.380 1_655 S
C213 C212 1.170 . S
C214 C212 1.380 1_455 S
C214 C215 1.170 . S
C215 C214 1.170 . S
C216 C217 1.170 . S
C216 C218 1.380 . S
C217 C216 1.170 . S
C218 C216 1.380 . S
C218 C219 1.170 . S
C219 C218 1.170 . S
C220 C221 1.170 . S
C220 C222 1.380 . S
C221 C220 1.170 . S
C222 C220 1.380 . S
C222 C223 1.170 . S
C223 C222 1.170 . S
C224 C225 1.170 . S
C224 C226 1.380 . S
C225 C224 1.170 . S
C226 C224 1.380 . S
C226 C227 1.170 . S
C227 C226 1.170 . S
C228 C229 1.170 . S
C228 C230 1.380 . S
C229 C228 1.170 . S
C230 C228 1.380 . S
C230 C231 1.170 . S
C231 C230 1.170 . S
C232 C233 1.170 . S
C232 C234 1.380 . S
C233 C232 1.170 . S
C234 C232 1.380 . S
C234 C235 1.170 . S
C235 C234 1.170 . S
C236 C237 1.170 . S
C236 C238 1.380 1_455 S
C237 C236 1.170 . S
C238 C236 1.380 1_655 S
C238 C239 1.170 . S
C239 C238 1.170 . S
C240 C241 1.170 . S
C240 C242 1.380 1_565 S
C241 C240 1.170 . S
C242 C240 1.380 1_545 S
C242 C243 1.170 . S
C243 C242 1.170 . S
C244 C245 1.170 . S
C244 C246 1.380 . S
C245 C244 1.170 . S
C246 C244 1.380 . S
C246 C247 1.170 . S
C247 C246 1.170 . S
C248 C249 1.170 . S
C248 C250 1.380 1_564 S
C249 C248 1.170 . S
C250 C248 1.380 1_546 S
C250 C251 1.170 . S
C251 C250 1.170 . S
C252 C253 1.170 . S
C252 C254 1.380 . S
C253 C252 1.170 . S
C254 C252 1.380 . S
C254 C255 1.170 . S
C255 C254 1.170 . S
C256 C257 1.170 . S
C256 C258 1.380 . S
C257 C256 1.170 . S
C258 C256 1.380 . S
C258 C259 1.170 . S
C259 C258 1.170 . S
C260 C261 1.170 . S
C260 C262 1.380 . S
C261 C260 1.170 . S
C262 C260 1.380 . S
C262 C263 1.170 . S
C263 C262 1.170 . S
C264 C265 1.170 . S
C264 C266 1.380 1_556 S
C265 C264 1.170 . S
C266 C264 1.380 1_554 S
C266 C267 1.170 . S
C267 C266 1.170 . S
C268 C269 1.170 . S
C268 C270 1.380 . S
C269 C268 1.170 . S
C270 C268 1.380 . S
C270 C271 1.170 . S
C271 C270 1.170 . S
C272 C273 1.170 . S
C272 C274 1.380 . S
C273 C272 1.170 . S
C274 C272 1.380 . S
C274 C275 1.170 . S
C275 C274 1.170 . S
C276 C277 1.170 . S
C276 C278 1.380 . S
C277 C276 1.170 . S
C278 C276 1.380 . S
C278 C279 1.170 . S
C279 C278 1.170 . S
C280 C281 1.170 . S
C280 C282 1.380 . S
C281 C280 1.170 . S
C282 C280 1.380 . S
C282 C283 1.170 . S
C283 C282 1.170 . S
C284 C285 1.170 . S
C284 C286 1.380 . S
C285 C284 1.170 . S
C286 C284 1.380 . S
C286 C287 1.170 . S
C287 C286 1.170 . S
C288 C289 1.170 . S
C288 C290 1.380 . S
C289 C288 1.170 . S
C290 C288 1.380 . S
C290 C291 1.170 . S
C291 C290 1.170 . S
C292 C293 1.170 . S
C292 C294 1.380 . S
C293 C292 1.170 . S
C294 C292 1.380 . S
C294 C295 1.170 . S
C295 C294 1.170 . S
C296 C297 1.170 . S
C296 C298 1.380 . S
C297 C296 1.170 . S
C298 C296 1.380 . S
C298 C299 1.170 . S
C299 C298 1.170 . S
C300 C301 1.170 . S
C300 C302 1.380 . S
C301 C300 1.170 . S
C302 C300 1.380 . S
C302 C303 1.170 . S
C303 C302 1.170 . S
C304 C305 1.170 . S
C304 C306 1.380 . S
C305 C304 1.170 . S
C306 C304 1.380 . S
C306 C307 1.170 . S
C307 C306 1.170 . S
C308 C309 1.170 . S
C308 C310 1.380 . S
C309 C308 1.170 . S
C310 C308 1.380 . S
C310 C311 1.170 . S
C311 C310 1.170 . S
C312 C313 1.170 . S
C312 C314 1.380 . S
C313 C312 1.170 . S
C314 C312 1.380 . S
C314 C315 1.170 . S
C315 C314 1.170 . S
C316 C317 1.170 . S
C316 C318 1.380 . S
C317 C316 1.170 . S
C318 C316 1.380 . S
C318 C319 1.170 . S
C319 C318 1.170 . S
C320 C321 1.170 . S
C320 C322 1.380 . S
C321 C320 1.170 . S
C322 C320 1.380 . S
C322 C323 1.170 . S
C323 C322 1.170 . S
C324 C325 1.170 . S
C324 C326 1.380 . S
C325 C324 1.170 . S
C326 C324 1.380 . S
C326 C327 1.170 . S
C327 C326 1.170 . S
C328 C329 1.170 . S
C328 C330 1.380 . S
C329 C328 1.170 . S
C330 C328 1.380 . S
C330 C331 1.170 . S
C331 C330 1.170 . S
C332 C333 1.170 . S
C332 C334 1.380 . S
C333 C332 1.170 . S
C334 C332 1.380 . S
C334 C335 1.170 . S
C335 C334 1.170 . S
C209 C0 1.217 . S
C211 C169 1.199 . S
C213 C143 1.199 . S
C215 C13 1.215 . S
C217 C156 1.204 . S
C219 C26 1.211 . S
C221 C130 1.207 . S
C223 C39 1.207 . S
C225 C52 1.204 . S
C227 C195 1.211 . S
C229 C65 1.199 . S
C231 C117 1.215 . S
C233 C182 1.204 . S
C235 C78 1.210 . S
C237 C91 1.201 . S
C239 C104 1.213 . S
C241 C60 1.529 . S
C243 C8 1.541 . S
C245 C21 1.538 . S
C247 C73 1.528 . S
C249 C34 1.546 . S
C251 C86 1.558 . S
C253 C99 1.542 . S
C255 C47 1.529 . S
C257 C112 1.530 . S
C259 C138 1.531 . S
C261 C125 1.533 . S
C263 C151 1.549 . S
C265 C190 1.535 . S
C267 C164 1.551 . S
C269 C177 1.557 . S
C271 C203 1.556 . S
C273 C70 1.296 . S
C275 C5 1.287 . S
C277 C18 1.285 . S
C279 C83 1.294 . S
C281 C31 1.288 . S
C283 C96 1.298 . S
C285 C57 1.309 . S
C287 C44 1.314 . S
C289 C62 1.348 . S
C291 C140 1.325 . S
C293 C36 1.325 . S
C295 C114 1.360 . S
C297 C153 1.333 . S
C299 C88 1.357 . S
C301 C127 1.336 . S
C303 C10 1.335 . S
C305 C109 1.283 . S
C307 C161 1.275 . S
C309 C135 1.284 . S
C311 C200 1.276 . S
C313 C174 1.271 . S
C315 C122 1.275 . S
C317 C148 1.315 . S
C319 C187 1.311 . S
C321 C192 1.326 . S
C323 C23 1.347 . S
C325 C179 1.323 . S
C327 C75 1.352 . S
C329 C205 1.359 . S
C331 C49 1.321 . S
C333 C166 1.354 . S
C335 C101 1.322 . S
