# Generated by pormake.
# Topology tfs, (6)-cn, num edge types: 1
# Building blocks:
#     Node 0, Type 0, BuildingBlock: VOLQOD_clean_sbu_1, # of connection points: 6
#     Node 1, Type 0, BuildingBlock: VOLQOD_clean_sbu_1, # of connection points: 6
#     Node 2, Type 0, BuildingBlock: VOLQOD_clean_sbu_1, # of connection points: 6
#     Node 3, Type 0, BuildingBlock: VOLQOD_clean_sbu_1, # of connection points: 6
#     Node 4, Type 0, BuildingBlock: VOLQOD_clean_sbu_1, # of connection points: 6
#     Node 5, Type 0, BuildingBlock: VOLQOD_clean_sbu_1, # of connection points: 6
#     Edge 6, Type (0, 0), BuildingBlock: MIFKUJ_clean_linker_0, # of connection points: 2
#     Edge 7, Type (0, 0), BuildingBlock: MIFKUJ_clean_linker_0, # of connection points: 2
#     Edge 8, Type (0, 0), BuildingBlock: MIFKUJ_clean_linker_0, # of connection points: 2
#     Edge 9, Type (0, 0), BuildingBlock: MIFKUJ_clean_linker_0, # of connection points: 2
#     Edge 10, Type (0, 0), BuildingBlock: MIFKUJ_clean_linker_0, # of connection points: 2
#     Edge 11, Type (0, 0), BuildingBlock: MIFKUJ_clean_linker_0, # of connection points: 2
#     Edge 12, Type (0, 0), BuildingBlock: MIFKUJ_clean_linker_0, # of connection points: 2
#     Edge 13, Type (0, 0), BuildingBlock: MIFKUJ_clean_linker_0, # of connection points: 2
#     Edge 14, Type (0, 0), BuildingBlock: MIFKUJ_clean_linker_0, # of connection points: 2
#     Edge 15, Type (0, 0), BuildingBlock: MIFKUJ_clean_linker_0, # of connection points: 2
#     Edge 16, Type (0, 0), BuildingBlock: MIFKUJ_clean_linker_0, # of connection points: 2
#     Edge 17, Type (0, 0), BuildingBlock: MIFKUJ_clean_linker_0, # of connection points: 2
#     Edge 18, Type (0, 0), BuildingBlock: MIFKUJ_clean_linker_0, # of connection points: 2
#     Edge 19, Type (0, 0), BuildingBlock: MIFKUJ_clean_linker_0, # of connection points: 2
#     Edge 20, Type (0, 0), BuildingBlock: MIFKUJ_clean_linker_0, # of connection points: 2
#     Edge 21, Type (0, 0), BuildingBlock: MIFKUJ_clean_linker_0, # of connection points: 2
#     Edge 22, Type (0, 0), BuildingBlock: MIFKUJ_clean_linker_0, # of connection points: 2
#     Edge 23, Type (0, 0), BuildingBlock: MIFKUJ_clean_linker_0, # of connection points: 2
# Relax obj value: 0.115
# Max RMSD: 0.091
# Mean RMSD: 0.091
data_MOF--net-tfs--node1-VOLQOD_clean_sbu_1--edge1-MIFKUJ_clean_linker_0
_symmetry_space_group_name_H-M    P1
_symmetry_Int_Tables_number       1
_symmetry_cell_setting            triclinic
loop_
_symmetry_equiv_pos_as_xyz
'x, y, z'
_cell_length_a     58.087768
_cell_length_b     58.033587
_cell_length_c     21.524556
_cell_angle_alpha  89.924992
_cell_angle_beta   90.223129
_cell_angle_gamma 119.9256
loop_
_atom_site_label
_atom_site_type_symbol
_atom_site_fract_x
_atom_site_fract_y
_atom_site_fract_z
_atom_type_partial_charge
O0 O 0.23965 0.47372 0.95653 0.0
Zn1 Zn 0.20026 0.454 0.94296 0.0
O2 O 0.18255 0.42267 -0.00528 0.0
Zn3 Zn 0.16761 0.39055 0.94358 0.0
Zn4 Zn 0.20838 0.42252 0.05236 0.0
Zn5 Zn 0.15412 0.42407 0.03928 0.0
O6 O 0.12886 0.36626 0.96323 0.0
O7 O 0.11898 0.39166 0.02161 0.0
O8 O 0.19249 0.44412 0.85404 0.0
O9 O 0.16954 0.39997 0.85331 0.0
O10 O 0.1873 0.37043 0.95636 0.0
O11 O 0.21196 0.39024 0.03978 0.0
O12 O 0.19746 0.4228 0.14013 0.0
O13 O 0.18711 0.47932 0.95927 0.0
O14 O 0.16005 0.42413 0.13051 0.0
O15 O 0.1523 0.4573 0.02073 0.0
C16 C 0.25452 0.47214 -0.00211 0.0
C17 C 0.11206 0.36994 -0.00695 0.0
C18 C 0.2035 0.3721 -0.00144 0.0
C19 C 0.17996 0.42217 0.82505 0.0
C20 C 0.17781 0.4235 0.16401 0.0
C21 C 0.16761 0.47789 0.98921 0.0
O22 O 0.24503 0.45414 0.03942 0.0
O23 O 0.76238 0.23701 0.93778 0.0
Zn24 Zn 0.74479 0.19724 0.93199 0.0
O25 O 0.75956 0.1833 -0.00768 0.0
Zn26 Zn 0.77839 0.16789 0.94976 0.0
Zn27 Zn 0.78479 0.21214 0.04485 0.0
Zn28 Zn 0.73048 0.15639 0.04224 0.0
O29 O 0.76274 0.12956 0.97246 0.0
O30 O 0.7271 0.12049 0.02841 0.0
O31 O 0.74896 0.18724 0.84587 0.0
O32 O 0.77467 0.1692 0.85746 0.0
O33 O 0.81757 0.18692 0.96934 0.0
O34 O 0.82166 0.21861 0.03336 0.0
O35 O 0.77623 0.20316 0.13441 0.0
O36 O 0.70606 0.18325 0.94626 0.0
O37 O 0.73843 0.16448 0.1329 0.0
O38 O 0.69537 0.15479 0.02436 0.0
C39 C 0.77739 0.25371 0.97851 0.0
C40 C 0.74201 0.11316 0.00196 0.0
C41 C 0.83185 0.20713 0.00312 0.0
C42 C 0.76177 0.17674 0.82323 0.0
C43 C 0.75736 0.18356 0.1624 0.0
C44 C 0.68902 0.16684 0.98421 0.0
O45 O 0.78622 0.24659 0.02452 0.0
O46 O 0.52435 0.76666 0.95096 0.0
Zn47 Zn 0.54611 0.74875 0.94122 0.0
O48 O 0.57491 0.76193 0.001 0.0
Zn49 Zn 0.6091 0.77962 0.95816 0.0
Zn50 Zn 0.57273 0.78764 0.05431 0.0
Zn51 Zn 0.57138 0.73203 0.05044 0.0
O52 O 0.63042 0.76221 0.97967 0.0
O53 O 0.60269 0.72694 0.03544 0.0
O54 O 0.5598 0.7536 0.85454 0.0
O55 O 0.60369 0.77634 0.86591 0.0
O56 O 0.63054 0.81881 0.97788 0.0
O57 O 0.6033 0.82395 0.04068 0.0
O58 O 0.57471 0.77939 0.14331 0.0
O59 O 0.52089 0.71006 0.95358 0.0
O60 O 0.57202 0.7398 0.14142 0.0
O61 O 0.5372 0.69778 0.03203 0.0
C62 C 0.52322 0.78133 -0.00663 0.0
C63 C 0.62501 0.74099 0.00877 0.0
C64 C 0.62498 0.83356 0.01086 0.0
C65 C 0.58306 0.7651 0.8317 0.0
C66 C 0.57405 0.75971 0.17095 0.0
C67 C 0.51931 0.69239 -0.00891 0.0
O68 O 0.53973 0.78971 0.03832 0.0
O69 O 0.75306 0.52209 0.92498 0.0
Zn70 Zn 0.79225 0.54461 0.91069 0.0
O71 O 0.80958 0.57286 0.97141 0.0
Zn72 Zn 0.82466 0.60731 0.92894 0.0
Zn73 Zn 0.78303 0.56894 0.03147 0.0
Zn74 Zn 0.83762 0.56987 0.01465 0.0
O75 O 0.8636 0.62974 0.94806 0.0
O76 O 0.87305 0.60196 -0.00176 0.0
O77 O 0.79771 0.55888 0.82467 0.0
O78 O 0.8219 0.60273 0.83553 0.0
O79 O 0.80585 0.62715 0.95516 0.0
O80 O 0.77811 0.60041 0.02731 0.0
O81 O 0.79379 0.56642 0.11835 0.0
O82 O 0.80704 0.52021 0.91525 0.0
O83 O 0.83296 0.56894 0.10746 0.0
O84 O 0.83796 0.53652 0.98908 0.0
C85 C 0.73817 0.52083 0.96953 0.0
C86 C 0.88025 0.62455 0.97388 0.0
C87 C 0.78787 0.62172 -0.0044 0.0
C88 C 0.81011 0.58209 0.80145 0.0
C89 C 0.81432 0.5672 0.14157 0.0
C90 C 0.82461 0.51895 0.94817 0.0
O91 O 0.7473 0.53702 0.01486 0.0
O92 O 0.218 0.75066 0.94638 0.0
Zn93 Zn 0.24028 0.79006 0.93444 0.0
O94 O 0.22973 0.80941 0.98924 0.0
Zn95 Zn 0.21332 0.82582 0.94049 0.0
Zn96 Zn 0.20394 0.78462 0.04785 0.0
Zn97 Zn 0.26122 0.83657 0.03293 0.0
O98 O 0.23021 0.86442 0.96169 0.0
O99 O 0.26621 0.87298 0.01627 0.0
O100 O 0.23887 0.7995 0.84616 0.0
O101 O 0.21894 0.8237 0.84909 0.0
O102 O 0.17407 0.80898 0.95675 0.0
O103 O 0.1691 0.78298 0.03714 0.0
O104 O 0.21583 0.79594 0.13528 0.0
O105 O 0.27778 0.79973 0.94996 0.0
O106 O 0.25613 0.83124 0.12497 0.0
O107 O 0.29441 0.83493 0.01202 0.0
C108 C 0.20245 0.73657 0.98968 0.0
C109 C 0.25149 0.88067 0.98998 0.0
C110 C 0.15966 0.79282 -0.0012 0.0
C111 C 0.22993 0.81291 0.81907 0.0
C112 C 0.23707 0.81471 0.15872 0.0
C113 C 0.29722 0.81815 0.97956 0.0
O114 O 0.19652 0.74714 0.03406 0.0
O115 O 0.46553 0.22061 0.94604 0.0
Zn116 Zn 0.44565 0.24049 0.93265 0.0
O117 O 0.41721 0.23041 -0.00781 0.0
Zn118 Zn 0.38274 0.21306 0.94989 0.0
Zn119 Zn 0.41912 0.20621 0.05127 0.0
Zn120 Zn 0.42154 0.2618 0.03558 0.0
O121 O 0.3617 0.23108 0.97044 0.0
O122 O 0.39251 0.26946 0.01131 0.0
O123 O 0.43159 0.23474 0.84576 0.0
O124 O 0.3879 0.21608 0.85691 0.0
O125 O 0.36137 0.17413 0.97205 0.0
O126 O 0.38748 0.17014 0.04161 0.0
O127 O 0.41886 0.21776 0.13848 0.0
O128 O 0.47251 0.2791 0.94174 0.0
O129 O 0.41867 0.25574 0.12829 0.0
O130 O 0.45713 0.29393 0.01683 0.0
C131 C 0.46653 0.20727 -0.00801 0.0
C132 C 0.36916 0.25446 0.9902 0.0
C133 C 0.36623 0.16005 0.0095 0.0
C134 C 0.4084 0.22515 0.82254 0.0
C135 C 0.41808 0.23744 0.16216 0.0
C136 C 0.47492 0.29771 0.97721 0.0
O137 O 0.45097 0.20179 0.03804 0.0
H138 H 0.31579 0.22678 0.01055 0.0
H139 H 0.28506 0.24409 0.01041 0.0
H140 H 0.34949 0.32178 0.96049 0.0
H141 H 0.38044 0.30488 0.96526 0.0
H142 H 0.32323 0.32916 0.03869 0.0
H143 H 0.29757 0.27625 0.85476 0.0
H144 H 0.28337 0.23608 0.79091 0.0
H145 H 0.21193 0.19437 0.89808 0.0
H146 H 0.22586 0.2342 0.96309 0.0
H147 H 0.21091 0.34823 0.89746 0.0
H148 H 0.23638 0.32506 0.8936 0.0
H149 H 0.24577 0.33155 0.09297 0.0
H150 H 0.22152 0.35586 0.09659 0.0
H151 H 0.23516 0.2827 0.93474 0.0
H152 H 0.30625 0.34518 0.13565 0.0
H153 H 0.32353 0.38949 0.18318 0.0
H154 H 0.31032 0.41944 0.01225 0.0
H155 H 0.29333 0.37543 0.96346 0.0
C156 C 0.32328 0.24754 -0.00049 0.0
C157 C 0.35041 0.26455 0.988 0.0
C158 C 0.30569 0.2574 -0.00107 0.0
C159 C 0.31477 0.28421 0.98438 0.0
C160 C 0.34192 0.30107 0.97213 0.0
C161 C 0.35961 0.29142 0.97469 0.0
C162 C 0.29631 0.29502 0.98404 0.0
C163 C 0.30403 0.31894 0.01574 0.0
C164 C 0.27137 0.2821 0.95322 0.0
C165 C 0.26289 0.25813 0.91415 0.0
C166 C 0.27892 0.25845 0.86497 0.0
C167 C 0.2709 0.23576 0.82854 0.0
C168 C 0.2468 0.21267 0.84053 0.0
C169 C 0.23062 0.21226 0.88889 0.0
C170 C 0.23855 0.23489 0.92551 0.0
C171 C 0.21809 0.34434 0.9405 0.0
C172 C 0.21464 0.35417 -0.00278 0.0
C173 C 0.23261 0.33108 0.93827 0.0
C174 C 0.24357 0.32715 -0.00718 0.0
C175 C 0.23818 0.33504 0.05006 0.0
C176 C 0.22423 0.34881 0.05214 0.0
C177 C 0.26215 0.31662 0.98955 0.0
C178 C 0.25442 0.2928 0.95747 0.0
C179 C 0.28765 0.33026 0.01745 0.0
C180 C 0.29826 0.35693 0.04617 0.0
C181 C 0.30714 0.36125 0.10816 0.0
C182 C 0.31687 0.38631 0.13531 0.0
C183 C 0.31794 0.40724 0.10082 0.0
C184 C 0.3094 0.40319 0.03898 0.0
C185 C 0.29971 0.37819 0.01158 0.0
H186 H 0.32543 0.42661 0.12196 0.0
H187 H 0.24063 0.19512 0.81228 0.0
H188 H 0.07138 0.37052 0.05464 0.0
H189 H 0.025 0.33568 0.05827 0.0
H190 H 0.04221 0.28594 0.94113 0.0
H191 H 0.08891 0.32099 0.93651 0.0
H192 H -0.00195 0.28688 0.90302 0.0
H193 H 0.02988 0.27099 0.09298 0.0
H194 H 0.0539 0.28254 0.19301 0.0
H195 H 0.00278 0.31022 0.26259 0.0
H196 H 0.97869 0.2992 0.16267 0.0
H197 H 0.86158 0.18843 0.94613 0.0
H198 H 0.91003 0.20871 0.94717 0.0
H199 H 0.91618 0.27124 0.06649 0.0
H200 H 0.86808 0.251 0.0668 0.0
H201 H 0.94995 0.25522 0.10279 0.0
H202 H 0.92459 0.27926 0.9077 0.0
H203 H 0.90095 0.26926 0.8072 0.0
H204 H 0.94028 0.2271 0.74785 0.0
H205 H 0.96391 0.2366 0.84838 0.0
C206 C 0.06543 0.35218 0.02971 0.0
C207 C 0.08392 0.34856 -0.00467 0.0
C208 C 0.0389 0.33219 0.03221 0.0
C209 C 0.03027 0.30807 0.00082 0.0
C210 C 0.04855 0.30437 0.96603 0.0
C211 C 0.0752 0.32441 0.96349 0.0
C212 C 0.00187 0.28735 0.00268 0.0
C213 C 0.98761 0.27942 0.94662 0.0
C214 C 0.98826 0.2779 0.05964 0.0
C215 C 0.00255 0.28437 0.12013 0.0
C216 C 0.02386 0.27969 0.12946 0.0
C217 C 0.03747 0.28613 0.18618 0.0
C218 C 0.02989 0.29714 0.2341 0.0
C219 C 0.00863 0.30168 0.22544 0.0
C220 C 0.99496 0.2953 0.16879 0.0
C221 C 0.87326 0.20638 0.97299 0.0
C222 C 0.86095 0.2182 0.006 0.0
C223 C 0.90092 0.21795 0.97342 0.0
C224 C 0.91669 0.24162 0.0064 0.0
C225 C 0.90439 0.25295 0.04082 0.0
C226 C 0.87684 0.24139 0.04067 0.0
C227 C 0.94606 0.25557 0.00331 0.0
C228 C 0.9605 0.26218 0.05916 0.0
C229 C 0.95982 0.2639 0.94621 0.0
C230 C 0.94575 0.25835 0.88575 0.0
C231 C 0.92804 0.26769 0.87336 0.0
C232 C 0.91467 0.26215 0.81639 0.0
C233 C 0.91904 0.24748 0.77125 0.0
C234 C 0.93687 0.23841 0.78292 0.0
C235 C 0.95026 0.24387 0.83985 0.0
H236 H 0.90867 0.2432 0.72718 0.0
H237 H 0.04047 0.30212 0.27797 0.0
H238 H 0.768 0.09 0.94778 0.0
H239 H 0.75619 0.04331 0.95225 0.0
H240 H 0.68902 0.02601 0.06809 0.0
H241 H 0.70073 0.07265 0.06448 0.0
H242 H 0.71682 0.00184 0.10953 0.0
H243 H 0.68083 0.0135 0.91475 0.0
H244 H 0.68455 0.03429 0.81247 0.0
H245 H 0.73935 0.00955 0.75281 0.0
H246 H 0.73619 0.9889 0.85511 0.0
H247 H 0.61893 0.87 0.07742 0.0
H248 H 0.6475 0.9179 0.07834 0.0
H249 H 0.70173 0.91127 0.95307 0.0
H250 H 0.67271 0.86282 0.95078 0.0
H251 H 0.69064 0.94863 0.91527 0.0
H252 H 0.71993 0.92957 0.10396 0.0
H253 H 0.71583 0.90847 0.2059 0.0
H254 H 0.6746 0.94682 0.27766 0.0
H255 H 0.67809 0.96787 0.17592 0.0
C256 C 0.75075 0.0763 0.97442 0.0
C257 C 0.73519 0.08503 0.00548 0.0
C258 C 0.74406 0.04965 0.97685 0.0
C259 C 0.72167 0.03127 0.01016 0.0
C260 C 0.70643 0.03997 0.04224 0.0
C261 C 0.71307 0.06659 0.03981 0.0
C262 C 0.71338 0.00273 0.01007 0.0
C263 C 0.71102 0.99012 0.06719 0.0
C264 C 0.70687 0.98778 0.95444 0.0
C265 C 0.70852 -6e-05 0.89278 0.0
C266 C 0.69382 0.01267 0.87996 0.0
C267 C 0.6958 0.02439 0.82198 0.0
C268 C 0.71225 0.02332 0.77624 0.0
C269 C 0.72666 0.01042 0.78833 0.0
C270 C 0.72477 -0.00131 0.84628 0.0
C271 C 0.63702 0.87856 0.05036 0.0
C272 C 0.6435 0.86254 0.01389 0.0
C273 C 0.65347 0.90602 0.05137 0.0
C274 C 0.67696 0.91811 0.0166 0.0
C275 C 0.68375 0.90225 0.98057 0.0
C276 C 0.66718 0.87462 0.97938 0.0
C277 C 0.69311 0.94745 0.01509 0.0
C278 C 0.69703 0.96032 0.95764 0.0
C279 C 0.70115 0.96265 0.07046 0.0
C280 C 0.6992 0.95024 0.1321 0.0
C281 C 0.70985 0.9334 0.14135 0.0
C282 C 0.70765 0.92145 0.19914 0.0
C283 C 0.69494 0.92628 0.2482 0.0
C284 C 0.68446 0.94311 0.23962 0.0
C285 C 0.68659 0.9551 0.18191 0.0
H286 H 0.69324 0.91699 0.29289 0.0
H287 H 0.71377 0.03244 0.73139 0.0
H288 H 0.80052 0.66787 0.93286 0.0
H289 H 0.77721 0.69329 0.93865 0.0
H290 H 0.72617 0.6405 0.08133 0.0
H291 H 0.74919 0.61523 0.0765 0.0
H292 H 0.69945 0.64504 0.97645 0.0
H293 H 0.76889 0.70013 0.12147 0.0
H294 H 0.81532 0.72899 0.15489 0.0
H295 H 0.82664 0.78431 0.00935 0.0
H296 H 0.78034 0.75556 0.97447 0.0
H297 H 0.62259 0.69955 0.07449 0.0
H298 H 0.6545 0.68388 0.07398 0.0
H299 H 0.70423 0.74657 0.9469 0.0
H300 H 0.67261 0.76276 0.94787 0.0
H301 H 0.73359 0.73923 0.03574 0.0
H302 H 0.66473 0.68556 0.89149 0.0
H303 H 0.61863 0.65695 0.85544 0.0
H304 H 0.60688 0.59903 -0.0054 0.0
H305 H 0.65282 0.62748 0.03208 0.0
C306 C 0.78463 0.66195 0.96614 0.0
C307 C 0.7765 0.63932 0.00361 0.0
C308 C 0.77141 0.67652 0.96948 0.0
C309 C 0.74995 0.66858 0.01018 0.0
C310 C 0.74263 0.64679 0.04946 0.0
C311 C 0.75585 0.63239 0.0465 0.0
C312 C 0.73341 0.68126 0.00839 0.0
C313 C 0.70682 0.66556 0.99001 0.0
C314 C 0.74342 0.70825 0.02401 0.0
C315 C 0.77125 0.72552 0.04487 0.0
C316 C 0.78136 0.71831 0.09617 0.0
C317 C 0.80763 0.73468 0.11548 0.0
C318 C 0.82395 0.75843 0.08413 0.0
C319 C 0.81399 0.76589 0.03351 0.0
C320 C 0.78773 0.74956 0.01397 0.0
C321 C 0.64034 0.71011 0.0466 0.0
C322 C 0.64491 0.73223 0.01069 0.0
C323 C 0.65855 0.70112 0.04635 0.0
C324 C 0.68148 0.71386 0.00965 0.0
C325 C 0.68659 0.73646 0.97539 0.0
C326 C 0.66844 0.74558 0.97584 0.0
C327 C 0.69945 0.70277 0.00525 0.0
C328 C 0.72627 0.71876 0.02194 0.0
C329 C 0.68976 0.67603 0.98754 0.0
C330 C 0.66215 0.65877 0.96492 0.0
C331 C 0.65225 0.66681 0.9147 0.0
C332 C 0.62616 0.65061 0.89396 0.0
C333 C 0.60982 0.62621 0.9228 0.0
C334 C 0.61956 0.61794 0.97235 0.0
C335 C 0.64563 0.63409 -0.00668 0.0
H336 H 0.58963 0.61369 0.90668 0.0
H337 H 0.84428 0.77109 0.09917 0.0
H338 H 0.12453 0.76216 0.08788 0.0
H339 H 0.07628 0.73956 0.08193 0.0
H340 H 0.08092 0.77877 0.90835 0.0
H341 H 0.12958 0.80162 0.91352 0.0
H342 H 0.03668 0.76984 0.00034 0.0
H343 H 0.07516 0.7248 0.88714 0.0
H344 H 0.10623 0.70765 0.87802 0.0
H345 H 0.06986 0.65668 0.03509 0.0
H346 H 0.03884 0.67388 0.04575 0.0
H347 H 0.90549 0.67071 0.90677 0.0
H348 H 0.95272 0.70418 0.90957 0.0
H349 H 0.96584 0.65892 0.05046 0.0
H350 H 0.91899 0.62511 0.04662 0.0
H351 H 0.00186 0.67345 0.96544 0.0
H352 H 0.96453 0.71706 0.08327 0.0
H353 H 0.93484 0.73519 0.103 0.0
H354 H 0.96887 0.78869 0.94897 0.0
H355 H -0.00146 0.7706 0.9278 0.0
C356 C 0.11541 0.76645 0.04892 0.0
C357 C 0.13088 0.78327 0.00047 0.0
C358 C 0.08783 0.75361 0.04586 0.0
C359 C 0.07525 0.75736 -0.00558 0.0
C360 C 0.09046 0.77574 0.9484 0.0
C361 C 0.1182 0.78864 0.95133 0.0
C362 C 0.04661 0.7392 0.98512 0.0
C363 C 0.02892 0.74883 -0.0084 0.0
C364 C 0.03678 0.7118 0.97515 0.0
C365 C 0.05482 0.70078 0.9675 0.0
C366 C 0.07389 0.71005 0.91993 0.0
C367 C 0.09148 0.70031 0.91448 0.0
C368 C 0.09006 0.68113 0.95604 0.0
C369 C 0.07095 0.67155 0.00295 0.0
C370 C 0.05333 0.68126 0.00867 0.0
C371 C 0.91845 0.66796 0.93848 0.0
C372 C 0.90856 0.64522 0.9763 0.0
C373 C 0.94539 0.68716 0.94024 0.0
C374 C 0.96274 0.68414 0.98059 0.0
C375 C 0.95281 0.6616 0.0188 0.0
C376 C 0.92602 0.64229 0.01655 0.0
C377 C 0.99149 0.70382 0.9817 0.0
C378 C 0.00936 0.69447 0.97348 0.0
C379 C 0.00135 0.73137 -0.0091 0.0
C380 C 0.98353 0.74226 0.0035 0.0
C381 C 0.96552 0.73252 0.05327 0.0
C382 C 0.94873 0.74283 0.06478 0.0
C383 C 0.94991 0.76302 0.02714 0.0
C384 C 0.96794 0.77301 0.97801 0.0
C385 C 0.98476 0.76275 0.96626 0.0
H386 H 0.9369 0.77098 0.03614 0.0
H387 H 0.10375 0.67366 0.95185 0.0
H388 H 0.22497 0.90417 0.93968 0.0
H389 H 0.23666 0.95074 0.94735 0.0
H390 H 0.30584 0.96768 0.05629 0.0
H391 H 0.29423 0.92111 0.04957 0.0
H392 H 0.27823 0.99086 0.10443 0.0
H393 H 0.31126 0.98184 0.90324 0.0
H394 H 0.3058 0.96198 0.79913 0.0
H395 H 0.24909 0.98604 0.75097 0.0
H396 H 0.25398 0.00575 0.85515 0.0
H397 H 0.37311 0.12411 0.07637 0.0
H398 H 0.34517 0.07616 0.07703 0.0
H399 H 0.28926 0.08191 0.95451 0.0
H400 H 0.31777 0.13038 0.95202 0.0
H401 H 0.30019 0.04587 0.91366 0.0
H402 H 0.27341 0.06235 0.10814 0.0
H403 H 0.27876 0.08239 0.21192 0.0
H404 H 0.32203 0.04445 0.27391 0.0
H405 H 0.31734 0.02453 0.17026 0.0
C406 C 0.24269 0.91777 0.9653 0.0
C407 C 0.25877 0.90893 -0.00625 0.0
C408 C 0.2493 0.94436 0.96962 0.0
C409 C 0.27215 0.96259 0.00212 0.0
C410 C 0.28806 0.95383 0.03115 0.0
C411 C 0.28148 0.92725 0.0269 0.0
C412 C 0.28008 0.99104 0.00457 0.0
C413 C 0.28314 0.003 0.06288 0.0
C414 C 0.28536 0.00648 0.95006 0.0
C415 C 0.28275 0.99499 0.88717 0.0
C416 C 0.2975 0.98273 0.87057 0.0
C417 C 0.29453 0.97153 0.81154 0.0
C418 C 0.27704 0.97266 0.76853 0.0
C419 C 0.26258 0.98513 0.78437 0.0
C420 C 0.26546 0.99633 0.84338 0.0
C421 C 0.35473 0.11534 0.05005 0.0
C422 C 0.34772 0.13112 0.01394 0.0
C423 C 0.33863 0.08783 0.05092 0.0
C424 C 0.31489 0.07545 0.01666 0.0
C425 C 0.30744 0.09112 0.98157 0.0
C426 C 0.32373 0.11877 0.98025 0.0
C427 C 0.29934 0.04606 0.01383 0.0
C428 C 0.29474 0.0338 0.9554 0.0
C429 C 0.29248 0.03033 0.06831 0.0
C430 C 0.29508 0.042 0.13118 0.0
C431 C 0.28419 0.05839 0.14377 0.0
C432 C 0.28711 0.06972 0.20261 0.0
C433 C 0.30075 0.06472 0.24946 0.0
C434 C 0.31145 0.0483 0.23759 0.0
C435 C 0.30863 0.03694 0.17881 0.0
H436 H 0.303 0.07352 0.29497 0.0
H437 H 0.27473 0.96394 0.72289 0.0
H438 H 0.16483 0.69897 0.06659 0.0
H439 H 0.1488 0.65114 0.06742 0.0
H440 H 0.1998 0.66067 0.91264 0.0
H441 H 0.21547 0.70817 0.9106 0.0
H442 H 0.15256 0.61693 0.89859 0.0
H443 H 0.21787 0.65769 0.06437 0.0
H444 H 0.23565 0.68372 0.16074 0.0
H445 H 0.16508 0.62852 0.2585 0.0
H446 H 0.14675 0.60234 0.16242 0.0
H447 H 0.19147 0.52119 0.9136 0.0
H448 H 0.18691 0.56063 0.91525 0.0
H449 H 0.12979 0.52689 0.06348 0.0
H450 H 0.13434 0.48706 0.06247 0.0
H451 H 0.16903 0.5782 0.08769 0.0
H452 H 0.10853 0.53255 0.92301 0.0
H453 H 0.09269 0.50676 0.82586 0.0
H454 H 0.15545 0.57113 0.72475 0.0
H455 H 0.17194 0.59717 0.82142 0.0
C456 C 0.17252 0.69085 0.03253 0.0
C457 C 0.19164 0.70745 0.98891 0.0
C458 C 0.16334 0.66352 0.0331 0.0
C459 C 0.17333 0.6524 0.99054 0.0
C460 C 0.19177 0.66881 0.94585 0.0
C461 C 0.20082 0.69603 0.94497 0.0
C462 C 0.16582 0.62398 -0.00618 0.0
C463 C 0.15616 0.60843 0.93989 0.0
C464 C 0.16971 0.61266 0.04834 0.0
C465 C 0.18081 0.62826 0.10612 0.0
C466 C 0.20607 0.65122 0.10634 0.0
C467 C 0.21626 0.66598 0.1609 0.0
C468 C 0.20146 0.65783 0.21566 0.0
C469 C 0.17649 0.63484 0.21602 0.0
C470 C 0.16619 0.62003 0.16154 0.0
C471 C 0.17774 0.52196 0.94631 0.0
C472 C 0.16331 0.50097 0.98803 0.0
C473 C 0.17503 0.54448 0.94687 0.0
C474 C 0.15778 0.54654 0.98898 0.0
C475 C 0.14309 0.52557 0.03038 0.0
C476 C 0.14568 0.50284 0.02962 0.0
C477 C 0.1567 0.57148 -0.00825 0.0
C478 C 0.16474 0.5864 0.04682 0.0
C479 C 0.15149 0.58228 0.93812 0.0
C480 C 0.14154 0.56678 0.87963 0.0
C481 C 0.11907 0.54115 0.88014 0.0
C482 C 0.10995 0.52649 0.82513 0.0
C483 C 0.12307 0.53729 0.76918 0.0
C484 C 0.1453 0.56279 0.76812 0.0
C485 C 0.15451 0.57753 0.82301 0.0
H486 H 0.11599 0.5259 0.72665 0.0
H487 H 0.20938 0.66929 0.25785 0.0
H488 H 0.50211 0.21397 0.90084 0.0
H489 H 0.5353 0.19989 0.90233 0.0
H490 H 0.50894 0.16576 0.08426 0.0
H491 H 0.4758 0.18001 0.08357 0.0
H492 H 0.5621 0.1953 0.07956 0.0
H493 H 0.49434 0.12572 0.95852 0.0
H494 H 0.46103 0.10586 0.87474 0.0
H495 H 0.5224 0.14338 0.73796 0.0
H496 H 0.55605 0.1638 0.82094 0.0
H497 H 0.65018 0.1434 0.07291 0.0
H498 H 0.60773 0.14283 0.07648 0.0
H499 H 0.6245 0.18215 0.89861 0.0
H500 H 0.66667 0.18266 0.89438 0.0
H501 H 0.57222 0.14376 0.90865 0.0
H502 H 0.63839 0.21778 0.02966 0.0
H503 H 0.67189 0.23832 0.11291 0.0
H504 H 0.61296 0.19226 0.24954 0.0
H505 H 0.57917 0.17117 0.1669 0.0
C506 C 0.50324 0.20336 0.94113 0.0
C507 C 0.48626 0.19814 -0.00789 0.0
C508 C 0.52214 0.19518 0.94172 0.0
C509 C 0.52438 0.18149 -0.0069 0.0
C510 C 0.50748 0.17622 0.04405 0.0
C511 C 0.48853 0.18436 0.0435 0.0
C512 C 0.54519 0.17377 -0.00547 0.0
C513 C 0.56397 0.18354 0.04287 0.0
C514 C 0.54787 0.15876 0.94617 0.0
C515 C 0.52771 0.14646 0.89603 0.0
C516 C 0.50072 0.12991 0.91059 0.0
C517 C 0.48177 0.11852 0.86323 0.0
C518 C 0.48959 0.1234 0.80107 0.0
C519 C 0.51637 0.13963 0.78614 0.0
C520 C 0.5354 0.15109 0.83332 0.0
C521 C 0.64463 0.15152 0.03411 0.0
C522 C 0.66195 0.16332 0.98367 0.0
C523 C 0.62042 0.15127 0.03634 0.0
C524 C 0.61314 0.16274 0.98813 0.0
C525 C 0.62974 0.17322 0.93632 0.0
C526 C 0.65393 0.17361 0.93418 0.0
C527 C 0.58927 0.16567 -0.00694 0.0
C528 C 0.57 0.15508 0.94587 0.0
C529 C 0.58611 0.17993 0.04242 0.0
C530 C 0.60636 0.19267 0.09209 0.0
C531 C 0.63264 0.21188 0.07742 0.0
C532 C 0.65166 0.22364 0.12448 0.0
C533 C 0.64458 0.21653 0.18646 0.0
C534 C 0.61843 0.1977 0.2015 0.0
C535 C 0.59934 0.18584 0.15458 0.0
H536 H 0.65934 0.22566 0.22284 0.0
H537 H 0.47489 0.11456 0.76446 0.0
H538 H 0.50322 0.65158 0.07546 0.0
H539 H 0.45997 0.61056 0.07885 0.0
H540 H 0.43745 0.63247 0.90712 0.0
H541 H 0.48023 0.67325 0.90333 0.0
H542 H 0.40178 0.62196 -0.00012 0.0
H543 H 0.44966 0.58184 0.9112 0.0
H544 H 0.48499 0.5701 0.90774 0.0
H545 H 0.45775 0.52814 0.0805 0.0
H546 H 0.42246 0.53997 0.08543 0.0
H547 H 0.2817 0.51159 0.91333 0.0
H548 H 0.32837 0.54587 0.91615 0.0
H549 H 0.3393 0.5126 0.0855 0.0
H550 H 0.29246 0.47777 0.08269 0.0
H551 H 0.38126 0.52813 0.00612 0.0
H552 H 0.33204 0.56593 0.09244 0.0
H553 H 0.29707 0.57812 0.09798 0.0
H554 H 0.32756 0.62554 0.93329 0.0
H555 H 0.36241 0.61321 0.92602 0.0
C556 C 0.48923 0.64741 0.03787 0.0
C557 C 0.49507 0.66585 0.98952 0.0
C558 C 0.46456 0.62396 0.03985 0.0
C559 C 0.4455 0.6186 -0.00662 0.0
C560 C 0.45183 0.63634 0.94364 0.0
C561 C 0.47635 0.65966 0.9416 0.0
C562 C 0.41813 0.59585 -0.00138 0.0
C563 C 0.39727 0.60142 0.00051 0.0
C564 C 0.41241 0.56917 0.002 0.0
C565 C 0.43362 0.56206 -0.00094 0.0
C566 C 0.45136 0.57033 0.94877 0.0
C567 C 0.47135 0.56361 0.94646 0.0
C568 C 0.47367 0.54846 -0.00603 0.0
C569 C 0.45596 0.53993 0.04379 0.0
C570 C 0.43595 0.54662 0.04635 0.0
C571 C 0.29397 0.51141 0.95115 0.0
C572 C 0.28323 0.49207 -0.0018 0.0
C573 C 0.32067 0.53108 0.9527 0.0
C574 C 0.33716 0.53204 0.0016 0.0
C575 C 0.32684 0.51227 0.04752 0.0
C576 C 0.30006 0.49245 0.04594 0.0
C577 C 0.36491 0.55429 0.00533 0.0
C578 C 0.3858 0.54867 0.00571 0.0
C579 C 0.37077 0.58106 0.00433 0.0
C580 C 0.3497 0.58841 0.00836 0.0
C581 C 0.33114 0.57874 0.05704 0.0
C582 C 0.31135 0.5857 0.06053 0.0
C583 C 0.31005 0.60253 0.01592 0.0
C584 C 0.32856 0.61246 0.96775 0.0
C585 C 0.34833 0.60549 0.96392 0.0
H586 H 0.29473 0.60792 0.01876 0.0
H587 H 0.48915 0.54327 -0.0079 0.0
H588 H 0.80557 0.48217 0.85526 0.0
H589 H 0.80256 0.43876 0.85509 0.0
H590 H 0.84615 0.45771 0.02779 0.0
H591 H 0.84949 0.50149 0.02828 0.0
H592 H 0.85846 0.42746 0.94569 0.0
H593 H 0.7818 0.4256 0.03546 0.0
H594 H 0.7445 0.43451 0.03758 0.0
H595 H 0.71089 0.3861 0.8751 0.0
H596 H 0.74825 0.37726 0.87141 0.0
H597 H 0.81004 0.29531 0.05415 0.0
H598 H 0.82212 0.3419 0.04325 0.0
H599 H 0.77415 0.32281 0.87727 0.0
H600 H 0.76168 0.27613 0.88804 0.0
H601 H 0.76505 0.35363 0.95534 0.0
H602 H 0.84106 0.35419 0.86748 0.0
H603 H 0.87854 0.34557 0.86527 0.0
H604 H 0.9133 0.39607 0.02421 0.0
H605 H 0.87581 0.4047 0.02792 0.0
C606 C 0.81496 0.47736 0.89273 0.0
C607 C 0.82735 0.49507 0.94244 0.0
C608 C 0.81322 0.45254 0.89247 0.0
C609 C 0.82365 0.44493 0.94206 0.0
C610 C 0.83787 0.46327 0.98928 0.0
C611 C 0.83972 0.48823 0.98951 0.0
C612 C 0.81733 0.417 0.94754 0.0
C613 C 0.83809 0.41129 0.94848 0.0
C614 C 0.79068 0.396 0.9502 0.0
C615 C 0.76797 0.40098 0.95281 0.0
C616 C 0.76656 0.41701 -8e-05 0.0
C617 C 0.74539 0.42203 0.00144 0.0
C618 C 0.72537 0.41093 0.95642 0.0
C619 C 0.72643 0.39472 0.9099 0.0
C620 C 0.74759 0.38968 0.90808 0.0
C621 C 0.80207 0.30099 0.01523 0.0
C622 C 0.78488 0.28197 0.97195 0.0
C623 C 0.80913 0.32766 0.00892 0.0
C624 C 0.79925 0.33581 0.95909 0.0
C625 C 0.78203 0.3169 0.91597 0.0
C626 C 0.77496 0.29023 0.9222 0.0
C627 C 0.80617 0.36393 0.95303 0.0
C628 C 0.78545 0.36972 0.95228 0.0
C629 C 0.83285 0.38493 0.95066 0.0
C630 C 0.85549 0.37989 0.94834 0.0
C631 C 0.85659 0.36329 0.90228 0.0
C632 C 0.87785 0.35843 0.90069 0.0
C633 C 0.89825 0.37021 0.94467 0.0
C634 C 0.89746 0.38694 0.99022 0.0
C635 C 0.87622 0.39184 -0.00795 0.0
H636 H 0.91469 0.36642 0.94337 0.0
H637 H 0.70901 0.41486 0.95766 0.0
H638 H 0.34181 0.84843 0.05058 0.0
H639 H 0.38267 0.84583 0.053 0.0
H640 H 0.3517 0.78711 0.90685 0.0
H641 H 0.311 0.78934 0.90444 0.0
H642 H 0.36942 0.7708 0.00207 0.0
H643 H 0.40108 0.84984 0.8788 0.0
H644 H 0.41046 0.89523 0.8544 0.0
H645 H 0.46122 0.92532 0.01463 0.0
H646 H 0.45184 0.88001 0.0405 0.0
H647 H 0.48131 0.76256 0.91255 0.0
H648 H 0.44503 0.77232 0.91174 0.0
H649 H 0.48028 0.82522 0.06777 0.0
H650 H 0.51684 0.81568 0.06897 0.0
H651 H 0.46138 0.84571 0.9751 0.0
H652 H 0.43052 0.76568 0.09434 0.0
H653 H 0.42132 0.72004 0.11483 0.0
H654 H 0.36868 0.69148 0.95755 0.0
H655 H 0.3779 0.73704 0.93549 0.0
C656 C 0.34387 0.83522 0.01848 0.0
C657 C 0.32306 0.81894 0.97771 0.0
C658 C 0.36722 0.83379 0.01984 0.0
C659 C 0.37014 0.81622 0.98016 0.0
C660 C 0.34976 0.80065 0.93815 0.0
C661 C 0.3265 0.80201 0.93684 0.0
C662 C 0.3937 0.81279 0.98422 0.0
C663 C 0.38951 0.78715 -0.00449 0.0
C664 C 0.41991 0.83424 0.97729 0.0
C665 C 0.42549 0.86148 0.96201 0.0
C666 C 0.41403 0.86609 0.90919 0.0
C667 C 0.41939 0.89181 0.89501 0.0
C668 C 0.43635 0.91313 0.93305 0.0
C669 C 0.44804 0.90878 0.98527 0.0
C670 C 0.44272 0.88308 -0.0003 0.0
C671 C 0.48149 0.77639 0.94654 0.0
C672 C 0.50189 0.7882 -0.00887 0.0
C673 C 0.4607 0.78189 0.94607 0.0
C674 C 0.45989 0.79925 0.99013 0.0
C675 C 0.48058 0.81172 0.03351 0.0
C676 C 0.50136 0.80614 0.03424 0.0
C677 C 0.43697 0.80369 -0.00819 0.0
C678 C 0.44128 0.82945 0.98193 0.0
C679 C 0.41078 0.78231 -0.0004 0.0
C680 C 0.40511 0.75484 0.01293 0.0
C681 C 0.41716 0.74971 0.0638 0.0
C682 C 0.41191 0.72385 0.07574 0.0
C683 C 0.39448 0.70289 0.03742 0.0
C684 C 0.38221 0.70774 0.98715 0.0
C685 C 0.38742 0.73358 0.97493 0.0
H686 H 0.39043 0.68287 0.04674 0.0
H687 H 0.4405 0.93304 0.92198 0.0
H688 H 0.70096 0.51034 0.05922 0.0
H689 H 0.6545 0.47502 0.05939 0.0
H690 H 0.66469 0.44874 0.87951 0.0
H691 H 0.71116 0.48408 0.87858 0.0
H692 H 0.61792 0.4496 0.88745 0.0
H693 H 0.66494 0.41553 0.00326 0.0
H694 H 0.69524 0.41593 0.08432 0.0
H695 H 0.64533 0.41974 0.2258 0.0
H696 H 0.61487 0.41969 0.14546 0.0
H697 H 0.51202 0.31592 0.88525 0.0
H698 H 0.55463 0.35719 0.88385 0.0
H699 H 0.53664 0.37967 0.06017 0.0
H700 H 0.49377 0.33829 0.06207 0.0
H701 H 0.58613 0.38266 0.05672 0.0
H702 H 0.53662 0.41242 0.93504 0.0
H703 H 0.50668 0.40971 0.85032 0.0
H704 H 0.56182 0.41156 0.71538 0.0
H705 H 0.59194 0.41391 0.79935 0.0
C706 C 0.69333 0.49714 0.01951 0.0
C707 C 0.70983 0.49996 0.96899 0.0
C708 C 0.66679 0.47695 0.01979 0.0
C709 C 0.65628 0.45921 0.96967 0.0
C710 C 0.67247 0.46229 0.91857 0.0
C711 C 0.69905 0.48243 0.91829 0.0
C712 C 0.6286 0.4369 0.97143 0.0
C713 C 0.61097 0.43483 0.92415 0.0
C714 C 0.61956 0.41793 0.01988 0.0
C715 C 0.63779 0.41793 0.06834 0.0
C716 C 0.66055 0.4167 0.05164 0.0
C717 C 0.67773 0.41681 0.09744 0.0
C718 C 0.67227 0.41796 0.16016 0.0
C719 C 0.64956 0.41891 0.17719 0.0
C720 C 0.63232 0.41881 0.13155 0.0
C721 C 0.51696 0.32974 0.9235 0.0
C722 C 0.49956 0.32379 0.97393 0.0
C723 C 0.54126 0.35337 0.92243 0.0
C724 C 0.54866 0.37148 0.97176 0.0
C725 C 0.53118 0.36591 0.02163 0.0
C726 C 0.5067 0.34234 0.0225 0.0
C727 C 0.57539 0.39534 0.97278 0.0
C728 C 0.59293 0.39763 0.02047 0.0
C729 C 0.58441 0.41427 0.92422 0.0
C730 C 0.56645 0.41313 0.87356 0.0
C731 C 0.54228 0.41206 0.88732 0.0
C732 C 0.52529 0.41062 0.83942 0.0
C733 C 0.53231 0.41041 0.77751 0.0
C734 C 0.5564 0.41172 0.76337 0.0
C735 C 0.57346 0.41313 0.8111 0.0
H736 H 0.51912 0.40927 0.74049 0.0
H737 H 0.68559 0.41804 0.19556 0.0
H738 H 0.18716 0.46427 0.75503 0.0
H739 H 0.18192 0.46556 0.64297 0.0
H740 H 0.16089 0.3831 0.62982 0.0
H741 H 0.16528 0.3814 0.74248 0.0
H742 H 0.20874 0.46012 0.55551 0.0
H743 H 0.11979 0.35364 0.50795 0.0
H744 H 0.07834 0.32066 0.55898 0.0
H745 H 0.07646 0.38288 0.66255 0.0
H746 H 0.11767 0.41626 0.61152 0.0
H747 H 0.21077 0.42074 0.25065 0.0
H748 H 0.20746 0.42195 0.36331 0.0
H749 H 0.13688 0.42834 0.3443 0.0
H750 H 0.13973 0.42675 0.23135 0.0
H751 H 0.13124 0.39356 0.43386 0.0
H752 H 0.19369 0.4825 0.37943 0.0
H753 H 0.23301 0.51868 0.32802 0.0
H754 H 0.28369 0.49763 0.42923 0.0
H755 H 0.24463 0.46105 0.4806 0.0
C756 C 0.18134 0.44636 0.72834 0.0
C757 C 0.17674 0.42274 0.75738 0.0
C758 C 0.1783 0.44714 0.66437 0.0
C759 C 0.17081 0.42439 0.62828 0.0
C760 C 0.16617 0.40074 0.65709 0.0
C761 C 0.16887 0.39984 0.7213 0.0
C762 C 0.1694 0.42587 0.56008 0.0
C763 C 0.19173 0.44564 0.52897 0.0
C764 C 0.14693 0.40737 0.52567 0.0
C765 C 0.12198 0.38743 0.55626 0.0
C766 C 0.11048 0.3603 0.54141 0.0
C767 C 0.08703 0.34153 0.57038 0.0
C768 C 0.07482 0.34966 0.61411 0.0
C769 C 0.08599 0.37659 0.62884 0.0
C770 C 0.10942 0.39544 0.59997 0.0
C771 C 0.19453 0.42237 0.2703 0.0
C772 C 0.17561 0.4238 0.23209 0.0
C773 C 0.1927 0.42314 0.33463 0.0
C774 C 0.17212 0.42557 0.36176 0.0
C775 C 0.15292 0.42651 0.32397 0.0
C776 C 0.15468 0.42569 0.25955 0.0
C777 C 0.17085 0.42728 0.42975 0.0
C778 C 0.14809 0.40814 0.46067 0.0
C779 C 0.19259 0.44685 0.46414 0.0
C780 C 0.2162 0.46889 0.43352 0.0
C781 C 0.2132 0.48545 0.39039 0.0
C782 C 0.23545 0.50606 0.3613 0.0
C783 C 0.26083 0.51042 0.37526 0.0
C784 C 0.26402 0.49422 0.41843 0.0
C785 C 0.24183 0.47356 0.4476 0.0
H786 H 0.27803 0.52639 0.3527 0.0
H787 H 0.05667 0.3351 0.63651 0.0
H788 H 0.72263 0.16874 0.74197 0.0
H789 H 0.7236 0.1659 0.6286 0.0
H790 H 0.80217 0.17576 0.63869 0.0
H791 H 0.80105 0.17775 0.75253 0.0
H792 H 0.78794 0.21423 0.559 0.0
H793 H 0.76978 0.12439 0.59556 0.0
H794 H 0.74514 0.07995 0.64341 0.0
H795 H 0.6731 0.06743 0.55662 0.0
H796 H 0.69725 0.11201 0.50916 0.0
H797 H 0.80129 0.20632 0.2359 0.0
H798 H 0.80347 0.20218 0.3482 0.0
H799 H 0.71798 0.15394 0.35499 0.0
H800 H 0.71583 0.15692 0.24189 0.0
H801 H 0.73831 0.13363 0.42825 0.0
H802 H 0.75269 0.22173 0.39746 0.0
H803 H 0.7739 0.267 0.35368 0.0
H804 H 0.84874 0.28404 0.43283 0.0
H805 H 0.82804 0.23873 0.47644 0.0
C806 C 0.73998 0.17001 0.72002 0.0
C807 C 0.76182 0.17356 0.75563 0.0
C808 C 0.74043 0.16825 0.65557 0.0
C809 C 0.76288 0.1705 0.62602 0.0
C810 C 0.78464 0.17379 0.66127 0.0
C811 C 0.78395 0.17491 0.72594 0.0
C812 C 0.76422 0.17157 0.55798 0.0
C813 C 0.77761 0.19664 0.53003 0.0
C814 C 0.74981 0.14858 0.5213 0.0
C815 C 0.73528 0.12168 0.54941 0.0
C816 C 0.74863 0.11229 0.58725 0.0
C817 C 0.73477 0.08704 0.61417 0.0
C818 C 0.70755 0.07091 0.60323 0.0
C819 C 0.69417 0.07996 0.56515 0.0
C820 C 0.70795 0.10521 0.53819 0.0
C821 C 0.78295 0.19498 0.26142 0.0
C822 C 0.75836 0.18213 0.23046 0.0
C823 C 0.78421 0.19264 0.32557 0.0
C824 C 0.76085 0.17813 0.36012 0.0
C825 C 0.73625 0.16524 0.32921 0.0
C826 C 0.73502 0.16707 0.26477 0.0
C827 C 0.76209 0.17647 0.42851 0.0
C828 C 0.74901 0.15129 0.45677 0.0
C829 C 0.77638 0.19948 0.46576 0.0
C830 C 0.78887 0.22675 0.43964 0.0
C831 C 0.77371 0.23507 0.40513 0.0
C832 C 0.78563 0.26074 0.38042 0.0
C833 C 0.81267 0.27836 0.39031 0.0
C834 C 0.82782 0.27036 0.42511 0.0
C835 C 0.81599 0.24469 0.44988 0.0
H836 H 0.82186 0.29823 0.37114 0.0
H837 H 0.69685 0.05137 0.62412 0.0
H838 H 0.54818 0.72924 0.74902 0.0
H839 H 0.55263 0.72967 0.63605 0.0
H840 H 0.62872 0.80152 0.64834 0.0
H841 H 0.62477 0.80093 0.76189 0.0
H842 H 0.58667 0.80025 0.56291 0.0
H843 H 0.63432 0.75459 0.61201 0.0
H844 H 0.6408 0.72029 0.66362 0.0
H845 H 0.57155 0.65902 0.57155 0.0
H846 H 0.5644 0.69296 0.52012 0.0
H847 H 0.60631 0.803 0.23972 0.0
H848 H 0.61333 0.80518 0.35192 0.0
H849 H 0.55571 0.7215 0.36656 0.0
H850 H 0.55016 0.71896 0.25344 0.0
H851 H 0.59376 0.73167 0.4405 0.0
H852 H 0.542 0.77425 0.40146 0.0
H853 H 0.53179 0.80661 0.35261 0.0
H854 H 0.6036 0.87106 0.42832 0.0
H855 H 0.61438 0.83906 0.47706 0.0
C856 C 0.56591 0.74506 0.7277 0.0
C857 C 0.5861 0.76512 0.76396 0.0
C858 C 0.56847 0.74517 0.66341 0.0
C859 C 0.59103 0.76554 0.6345 0.0
C860 C 0.61126 0.7856 0.67035 0.0
C861 C 0.60897 0.78521 0.7349 0.0
C862 C 0.59252 0.76648 0.56639 0.0
C863 C 0.58875 0.78564 0.53581 0.0
C864 C 0.59439 0.74681 0.53197 0.0
C865 C 0.5987 0.72634 0.56264 0.0
C866 C 0.62033 0.7338 0.60322 0.0
C867 C 0.62415 0.71442 0.63234 0.0
C868 C 0.60657 0.68749 0.62099 0.0
C869 C 0.58515 0.67989 0.58035 0.0
C870 C 0.58122 0.6992 0.55115 0.0
C871 C 0.59514 0.78512 0.26709 0.0
C872 C 0.57747 0.76087 0.23854 0.0
C873 C 0.59908 0.78639 0.33112 0.0
C874 C 0.58458 0.76365 0.3679 0.0
C875 C 0.56709 0.73932 0.33914 0.0
C876 C 0.56379 0.73788 0.27476 0.0
C877 C 0.58741 0.76525 0.43635 0.0
C878 C 0.59196 0.74653 0.46719 0.0
C879 C 0.58568 0.78502 0.47123 0.0
C880 C 0.57912 0.80427 0.44236 0.0
C881 C 0.55568 0.79533 0.40737 0.0
C882 C 0.54978 0.8136 0.37975 0.0
C883 C 0.56707 0.84087 0.38721 0.0
C884 C 0.59025 0.84993 0.4225 0.0
C885 C 0.59625 0.83174 0.45019 0.0
H886 H 0.56248 0.85499 0.36577 0.0
H887 H 0.60956 0.67251 0.64358 0.0
H888 H 0.77333 0.5498 0.71744 0.0
H889 H 0.77834 0.54981 0.60506 0.0
H890 H 0.85668 0.61877 0.61942 0.0
H891 H 0.85116 0.61954 0.73227 0.0
H892 H 0.83359 0.62225 0.51828 0.0
H893 H 0.84811 0.55565 0.60524 0.0
H894 H 0.83927 0.51738 0.67129 0.0
H895 H 0.76739 0.46802 0.56965 0.0
H896 H 0.77557 0.50612 0.50357 0.0
H897 H 0.86003 0.59072 0.21013 0.0
H898 H 0.86387 0.595 0.32374 0.0
H899 H 0.77863 0.54847 0.33954 0.0
H900 H 0.77456 0.54472 0.22629 0.0
H901 H 0.81295 0.53571 0.42531 0.0
H902 H 0.79893 0.60751 0.34767 0.0
H903 H 0.81136 0.64668 0.28145 0.0
H904 H 0.88866 0.68708 0.36636 0.0
H905 H 0.87678 0.64793 0.43245 0.0
C906 C 0.79147 0.56519 0.69651 0.0
C907 C 0.81197 0.58452 0.73337 0.0
C908 C 0.79441 0.56507 0.63239 0.0
C909 C 0.81824 0.58376 0.60409 0.0
C910 C 0.83823 0.60399 0.64041 0.0
C911 C 0.83505 0.60446 0.70472 0.0
C912 C 0.82229 0.58143 0.53698 0.0
C913 C 0.82953 0.60345 0.49822 0.0
C914 C 0.81726 0.55695 0.51064 0.0
C915 C 0.81239 0.53382 0.54967 0.0
C916 C 0.83034 0.53668 0.59717 0.0
C917 C 0.82545 0.51501 0.63462 0.0
C918 C 0.80276 0.4903 0.62474 0.0
C919 C 0.78495 0.48719 0.57726 0.0
C920 C 0.78973 0.5088 0.53973 0.0
C921 C 0.84216 0.58114 0.23797 0.0
C922 C 0.81699 0.56747 0.20964 0.0
C923 C 0.84439 0.58367 0.30259 0.0
C924 C 0.82151 0.57209 0.33949 0.0
C925 C 0.79646 0.55748 0.3115 0.0
C926 C 0.79418 0.55545 0.24699 0.0
C927 C 0.82334 0.5762 0.40723 0.0
C928 C 0.81734 0.55454 0.4459 0.0
C929 C 0.83013 0.6011 0.43351 0.0
C930 C 0.83709 0.6247 0.39439 0.0
C931 C 0.81866 0.62465 0.35179 0.0
C932 C 0.82559 0.64686 0.31437 0.0
C933 C 0.85082 0.66932 0.31954 0.0
C934 C 0.86915 0.66965 0.36231 0.0
C935 C 0.86232 0.64746 0.39977 0.0
H936 H 0.85615 0.6865 0.29053 0.0
H937 H 0.799 0.47355 0.65382 0.0
H938 H 0.28223 0.83746 0.22917 0.0
H939 H 0.28533 0.84224 0.3427 0.0
H940 H 0.20007 0.80518 0.35384 0.0
H941 H 0.19668 0.79959 0.24089 0.0
H942 H 0.23841 0.8591 0.42764 0.0
H943 H 0.21445 0.76568 0.3855 0.0
H944 H 0.22296 0.73287 0.33319 0.0
H945 H 0.30153 0.77019 0.41141 0.0
H946 H 0.29356 0.80346 0.46345 0.0
H947 H 0.19845 0.8202 0.73637 0.0
H948 H 0.20429 0.82562 0.62384 0.0
H949 H 0.27666 0.82207 0.6387 0.0
H950 H 0.26997 0.81507 0.75045 0.0
H951 H 0.25089 0.79344 0.54941 0.0
H952 H 0.27542 0.88149 0.6058 0.0
H953 H 0.27217 0.91779 0.6567 0.0
H954 H 0.20139 0.89751 0.55243 0.0
H955 H 0.20396 0.86081 0.50155 0.0
C956 C 0.26419 0.83041 0.25592 0.0
C957 C 0.2392 0.81797 0.22656 0.0
C958 C 0.26601 0.83323 0.32042 0.0
C959 C 0.24292 0.82418 0.35591 0.0
C960 C 0.21804 0.81238 0.32671 0.0
C961 C 0.21615 0.80901 0.26248 0.0
C962 C 0.24443 0.82545 0.424 0.0
C963 C 0.24099 0.84476 0.45473 0.0
C964 C 0.24892 0.80737 0.45836 0.0
C965 C 0.25353 0.7872 0.42767 0.0
C966 C 0.23361 0.76702 0.39103 0.0
C967 C 0.23832 0.74832 0.36156 0.0
C968 C 0.26281 0.7495 0.36881 0.0
C969 C 0.2826 0.76933 0.40573 0.0
C970 C 0.27799 0.7881 0.43524 0.0
C971 C 0.2156 0.82066 0.71542 0.0
C972 C 0.23364 0.81703 0.75171 0.0
C973 C 0.21909 0.82401 0.65128 0.0
C974 C 0.24116 0.82467 0.62283 0.0
C975 C 0.25945 0.82155 0.65949 0.0
C976 C 0.25559 0.81752 0.72327 0.0
C977 C 0.24428 0.8269 0.55447 0.0
C978 C 0.24864 0.80818 0.5232 0.0
C979 C 0.24142 0.84612 0.51982 0.0
C980 C 0.23977 0.86823 0.55019 0.0
C981 C 0.25904 0.88463 0.59404 0.0
C982 C 0.25734 0.90531 0.62285 0.0
C983 C 0.23656 0.90992 0.60791 0.0
C984 C 0.21747 0.8939 0.564 0.0
C985 C 0.21906 0.87317 0.53509 0.0
H986 H 0.23528 0.92594 0.63027 0.0
H987 H 0.26641 0.735 0.34596 0.0
H988 H 0.44752 0.24159 0.73561 0.0
H989 H 0.44354 0.24505 0.62385 0.0
H990 H 0.35926 0.21424 0.64246 0.0
H991 H 0.36294 0.21036 0.75494 0.0
H992 H 0.36986 0.19217 0.54516 0.0
H993 H 0.3987 0.27927 0.61708 0.0
H994 H 0.4258 0.32039 0.67695 0.0
H995 H 0.49537 0.33435 0.57679 0.0
H996 H 0.46878 0.29309 0.51692 0.0
H997 H 0.407 0.27085 0.22934 0.0
H998 H 0.39931 0.2697 0.34138 0.0
H999 H 0.41519 0.20489 0.36046 0.0
H1000 H 0.42234 0.20551 0.24899 0.0
H1001 H 0.42982 0.27734 0.43891 0.0
H1002 H 0.37685 0.16196 0.46841 0.0
H1003 H 0.34669 0.12188 0.40818 0.0
H1004 H 0.31866 0.16647 0.30512 0.0
H1005 H 0.34833 0.20672 0.36528 0.0
C1006 C 0.42807 0.23545 0.71615 0.0
C1007 C 0.40556 0.22582 0.75435 0.0
C1008 C 0.42588 0.2376 0.65222 0.0
C1009 C 0.4012 0.23037 0.6251 0.0
C1010 C 0.37852 0.22009 0.66266 0.0
C1011 C 0.38067 0.21788 0.72686 0.0
C1012 C 0.39937 0.2334 0.55731 0.0
C1013 C 0.3828 0.21081 0.52186 0.0
C1014 C 0.41561 0.25797 0.5272 0.0
C1015 C 0.43174 0.28297 0.56272 0.0
C1016 C 0.41981 0.29101 0.60807 0.0
C1017 C 0.43508 0.31436 0.64199 0.0
C1018 C 0.4623 0.32995 0.63075 0.0
C1019 C 0.47429 0.32225 0.58545 0.0
C1020 C 0.45911 0.2989 0.55143 0.0
C1021 C 0.40892 0.25641 0.25746 0.0
C1022 C 0.41512 0.23816 0.23019 0.0
C1023 C 0.40448 0.25576 0.3214 0.0
C1024 C 0.40615 0.23686 0.35898 0.0
C1025 C 0.41312 0.21919 0.33208 0.0
C1026 C 0.41738 0.2197 0.26834 0.0
C1027 C 0.4013 0.2358 0.42666 0.0
C1028 C 0.41657 0.25879 0.46213 0.0
C1029 C 0.38332 0.21175 0.45674 0.0
C1030 C 0.36498 0.18743 0.42118 0.0
C1031 C 0.36413 0.16319 0.4332 0.0
C1032 C 0.34714 0.14044 0.39898 0.0
C1033 C 0.33082 0.14164 0.35276 0.0
C1034 C 0.33137 0.16558 0.34081 0.0
C1035 C 0.34829 0.18838 0.37491 0.0
H1036 H 0.31772 0.12403 0.32625 0.0
H1037 H 0.47409 0.34802 0.65708 0.0
loop_
_geom_bond_atom_site_label_1
_geom_bond_atom_site_label_2
_geom_bond_distance
_geom_bond_site_symmetry_2
_ccdc_geom_bond_type
O0 Zn1 1.953 . S
O0 C16 1.225 . S
Zn1 O0 1.953 . S
Zn1 O2 1.949 1_556 S
Zn1 O8 1.919 . S
Zn1 O13 1.924 . S
O2 Zn1 1.949 1_554 S
O2 Zn3 1.923 1_554 S
O2 Zn4 1.950 . S
O2 Zn5 1.945 . S
Zn3 O2 1.923 1_556 S
Zn3 O6 1.933 . S
Zn3 O9 1.941 . S
Zn3 O10 1.965 . S
Zn4 O2 1.950 . S
Zn4 O11 1.938 . S
Zn4 O12 1.906 . S
Zn4 O22 1.953 . S
Zn5 O2 1.945 . S
Zn5 O7 1.932 . S
Zn5 O14 1.977 . S
Zn5 O15 1.910 . S
O6 Zn3 1.933 . S
O6 C17 1.229 . S
O7 Zn5 1.932 . S
O7 C17 1.304 1_554 S
O8 Zn1 1.919 . S
O8 C19 1.253 . S
O9 Zn3 1.941 . S
O9 C19 1.283 . S
O10 Zn3 1.965 . S
O10 C18 1.303 1_556 S
O11 Zn4 1.938 . S
O11 C18 1.247 . S
O12 Zn4 1.906 . S
O12 C20 1.304 . S
O13 Zn1 1.924 . S
O13 C21 1.311 . S
O14 Zn5 1.977 . S
O14 C20 1.272 . S
O15 Zn5 1.910 . S
O15 C21 1.231 1_554 S
C16 O0 1.225 . S
C16 O22 1.298 1_556 S
C17 O6 1.229 . S
C17 O7 1.304 1_556 S
C18 O10 1.303 1_554 S
C18 O11 1.247 . S
C19 O8 1.253 . S
C19 O9 1.283 . S
C20 O12 1.304 . S
C20 O14 1.272 . S
C21 O13 1.311 . S
C21 O15 1.231 1_556 S
O22 Zn4 1.953 . S
O22 C16 1.298 1_554 S
O23 Zn24 1.953 . S
O23 C39 1.225 . S
Zn24 O23 1.953 . S
Zn24 O25 1.949 1_556 S
Zn24 O31 1.919 . S
Zn24 O36 1.924 . S
O25 Zn24 1.949 1_554 S
O25 Zn26 1.923 1_554 S
O25 Zn27 1.950 . S
O25 Zn28 1.945 . S
Zn26 O25 1.923 1_556 S
Zn26 O29 1.933 . S
Zn26 O32 1.941 . S
Zn26 O33 1.965 . S
Zn27 O25 1.950 . S
Zn27 O34 1.938 . S
Zn27 O35 1.906 . S
Zn27 O45 1.953 . S
Zn28 O25 1.945 . S
Zn28 O30 1.932 . S
Zn28 O37 1.977 . S
Zn28 O38 1.910 . S
O29 Zn26 1.933 . S
O29 C40 1.229 . S
O30 Zn28 1.932 . S
O30 C40 1.304 1_554 S
O31 Zn24 1.919 . S
O31 C42 1.253 . S
O32 Zn26 1.941 . S
O32 C42 1.283 . S
O33 Zn26 1.965 . S
O33 C41 1.303 1_556 S
O34 Zn27 1.938 . S
O34 C41 1.247 . S
O35 Zn27 1.906 . S
O35 C43 1.304 . S
O36 Zn24 1.924 . S
O36 C44 1.311 . S
O37 Zn28 1.977 . S
O37 C43 1.272 . S
O38 Zn28 1.910 . S
O38 C44 1.231 1_554 S
C39 O23 1.225 . S
C39 O45 1.298 1_556 S
C40 O29 1.229 . S
C40 O30 1.304 1_556 S
C41 O33 1.303 1_554 S
C41 O34 1.247 . S
C42 O31 1.253 . S
C42 O32 1.283 . S
C43 O35 1.304 . S
C43 O37 1.272 . S
C44 O36 1.311 . S
C44 O38 1.231 1_556 S
O45 Zn27 1.953 . S
O45 C39 1.298 1_554 S
O46 Zn47 1.953 . S
O46 C62 1.225 . S
Zn47 O46 1.953 . S
Zn47 O48 1.949 1_556 S
Zn47 O54 1.919 . S
Zn47 O59 1.924 . S
O48 Zn47 1.949 1_554 S
O48 Zn49 1.923 1_554 S
O48 Zn50 1.950 . S
O48 Zn51 1.945 . S
Zn49 O48 1.923 1_556 S
Zn49 O52 1.933 . S
Zn49 O55 1.941 . S
Zn49 O56 1.965 . S
Zn50 O48 1.950 . S
Zn50 O57 1.938 . S
Zn50 O58 1.906 . S
Zn50 O68 1.953 . S
Zn51 O48 1.945 . S
Zn51 O53 1.932 . S
Zn51 O60 1.977 . S
Zn51 O61 1.910 . S
O52 Zn49 1.933 . S
O52 C63 1.229 . S
O53 Zn51 1.932 . S
O53 C63 1.304 1_554 S
O54 Zn47 1.919 . S
O54 C65 1.253 . S
O55 Zn49 1.941 . S
O55 C65 1.283 . S
O56 Zn49 1.965 . S
O56 C64 1.303 1_556 S
O57 Zn50 1.938 . S
O57 C64 1.247 . S
O58 Zn50 1.906 . S
O58 C66 1.304 . S
O59 Zn47 1.924 . S
O59 C67 1.311 . S
O60 Zn51 1.977 . S
O60 C66 1.272 . S
O61 Zn51 1.910 . S
O61 C67 1.231 1_554 S
C62 O46 1.225 . S
C62 O68 1.298 1_556 S
C63 O52 1.229 . S
C63 O53 1.304 1_556 S
C64 O56 1.303 1_554 S
C64 O57 1.247 . S
C65 O54 1.253 . S
C65 O55 1.283 . S
C66 O58 1.304 . S
C66 O60 1.272 . S
C67 O59 1.311 . S
C67 O61 1.231 1_556 S
O68 Zn50 1.953 . S
O68 C62 1.298 1_554 S
O69 Zn70 1.953 . S
O69 C85 1.225 . S
Zn70 O69 1.953 . S
Zn70 O71 1.949 1_556 S
Zn70 O77 1.919 . S
Zn70 O82 1.924 . S
O71 Zn70 1.949 1_554 S
O71 Zn72 1.923 1_554 S
O71 Zn73 1.950 . S
O71 Zn74 1.945 . S
Zn72 O71 1.923 1_556 S
Zn72 O75 1.933 . S
Zn72 O78 1.941 . S
Zn72 O79 1.965 . S
Zn73 O71 1.950 . S
Zn73 O80 1.938 . S
Zn73 O81 1.906 . S
Zn73 O91 1.953 . S
Zn74 O71 1.945 . S
Zn74 O76 1.932 . S
Zn74 O83 1.977 . S
Zn74 O84 1.910 . S
O75 Zn72 1.933 . S
O75 C86 1.229 . S
O76 Zn74 1.932 . S
O76 C86 1.304 1_554 S
O77 Zn70 1.919 . S
O77 C88 1.253 . S
O78 Zn72 1.941 . S
O78 C88 1.283 . S
O79 Zn72 1.965 . S
O79 C87 1.303 1_556 S
O80 Zn73 1.938 . S
O80 C87 1.247 . S
O81 Zn73 1.906 . S
O81 C89 1.304 . S
O82 Zn70 1.924 . S
O82 C90 1.311 . S
O83 Zn74 1.977 . S
O83 C89 1.272 . S
O84 Zn74 1.910 . S
O84 C90 1.231 1_554 S
C85 O69 1.225 . S
C85 O91 1.298 1_556 S
C86 O75 1.229 . S
C86 O76 1.304 1_556 S
C87 O79 1.303 1_554 S
C87 O80 1.247 . S
C88 O77 1.253 . S
C88 O78 1.283 . S
C89 O81 1.304 . S
C89 O83 1.272 . S
C90 O82 1.311 . S
C90 O84 1.231 1_556 S
O91 Zn73 1.953 . S
O91 C85 1.298 1_554 S
O92 Zn93 1.953 . S
O92 C108 1.225 . S
Zn93 O92 1.953 . S
Zn93 O94 1.949 1_556 S
Zn93 O100 1.919 . S
Zn93 O105 1.924 . S
O94 Zn93 1.949 1_554 S
O94 Zn95 1.923 1_554 S
O94 Zn96 1.950 . S
O94 Zn97 1.945 . S
Zn95 O94 1.923 1_556 S
Zn95 O98 1.933 . S
Zn95 O101 1.941 . S
Zn95 O102 1.965 . S
Zn96 O94 1.950 . S
Zn96 O103 1.938 . S
Zn96 O104 1.906 . S
Zn96 O114 1.953 . S
Zn97 O94 1.945 . S
Zn97 O99 1.932 . S
Zn97 O106 1.977 . S
Zn97 O107 1.910 . S
O98 Zn95 1.933 . S
O98 C109 1.229 . S
O99 Zn97 1.932 . S
O99 C109 1.304 1_554 S
O100 Zn93 1.919 . S
O100 C111 1.253 . S
O101 Zn95 1.941 . S
O101 C111 1.283 . S
O102 Zn95 1.965 . S
O102 C110 1.303 1_556 S
O103 Zn96 1.938 . S
O103 C110 1.247 . S
O104 Zn96 1.906 . S
O104 C112 1.304 . S
O105 Zn93 1.924 . S
O105 C113 1.311 . S
O106 Zn97 1.977 . S
O106 C112 1.272 . S
O107 Zn97 1.910 . S
O107 C113 1.231 1_554 S
C108 O92 1.225 . S
C108 O114 1.298 1_556 S
C109 O98 1.229 . S
C109 O99 1.304 1_556 S
C110 O102 1.303 1_554 S
C110 O103 1.247 . S
C111 O100 1.253 . S
C111 O101 1.283 . S
C112 O104 1.304 . S
C112 O106 1.272 . S
C113 O105 1.311 . S
C113 O107 1.231 1_556 S
O114 Zn96 1.953 . S
O114 C108 1.298 1_554 S
O115 Zn116 1.953 . S
O115 C131 1.225 . S
Zn116 O115 1.953 . S
Zn116 O117 1.949 1_556 S
Zn116 O123 1.919 . S
Zn116 O128 1.924 . S
O117 Zn116 1.949 1_554 S
O117 Zn118 1.923 1_554 S
O117 Zn119 1.950 . S
O117 Zn120 1.945 . S
Zn118 O117 1.923 1_556 S
Zn118 O121 1.933 . S
Zn118 O124 1.941 . S
Zn118 O125 1.965 . S
Zn119 O117 1.950 . S
Zn119 O126 1.938 . S
Zn119 O127 1.906 . S
Zn119 O137 1.953 . S
Zn120 O117 1.945 . S
Zn120 O122 1.932 . S
Zn120 O129 1.977 . S
Zn120 O130 1.910 . S
O121 Zn118 1.933 . S
O121 C132 1.229 . S
O122 Zn120 1.932 . S
O122 C132 1.304 1_554 S
O123 Zn116 1.919 . S
O123 C134 1.253 . S
O124 Zn118 1.941 . S
O124 C134 1.283 . S
O125 Zn118 1.965 . S
O125 C133 1.303 1_556 S
O126 Zn119 1.938 . S
O126 C133 1.247 . S
O127 Zn119 1.906 . S
O127 C135 1.304 . S
O128 Zn116 1.924 . S
O128 C136 1.311 . S
O129 Zn120 1.977 . S
O129 C135 1.272 . S
O130 Zn120 1.910 . S
O130 C136 1.231 1_554 S
C131 O115 1.225 . S
C131 O137 1.298 1_556 S
C132 O121 1.229 . S
C132 O122 1.304 1_556 S
C133 O125 1.303 1_554 S
C133 O126 1.247 . S
C134 O123 1.253 . S
C134 O124 1.283 . S
C135 O127 1.304 . S
C135 O129 1.272 . S
C136 O128 1.311 . S
C136 O130 1.231 1_556 S
O137 Zn119 1.953 . S
O137 C131 1.298 1_554 S
H138 C156 0.951 . S
H139 C158 0.951 . S
H140 C160 0.950 . S
H141 C161 0.950 . S
H142 C163 0.950 . S
H143 C166 0.950 . S
H144 C167 0.950 . S
H145 C169 0.950 . S
H146 C170 0.950 . S
H147 C171 0.951 . S
H148 C173 0.951 . S
H149 C175 0.950 . S
H150 C176 0.950 . S
H151 C178 0.950 . S
H152 C181 0.950 . S
H153 C182 0.950 . S
H154 C184 0.950 . S
H155 C185 0.950 . S
C156 H138 0.951 . S
C156 C157 1.366 1_554 S
C156 C158 1.388 . S
C157 C156 1.366 1_556 S
C157 C161 1.385 . S
C158 H139 0.951 . S
C158 C156 1.388 . S
C158 C159 1.366 1_554 S
C159 C158 1.366 1_556 S
C159 C160 1.414 . S
C159 C162 1.499 . S
C160 H140 0.950 . S
C160 C159 1.414 . S
C160 C161 1.374 . S
C161 H141 0.950 . S
C161 C157 1.385 . S
C161 C160 1.374 . S
C162 C159 1.499 . S
C162 C163 1.373 . S
C162 C164 1.389 1_556 S
C163 H142 0.950 . S
C163 C162 1.373 . S
C163 C179 1.377 . S
C164 C162 1.389 1_554 S
C164 C165 1.524 . S
C164 C178 1.377 . S
C165 C164 1.524 . S
C165 C166 1.397 1_554 S
C165 C170 1.363 . S
C166 H143 0.950 . S
C166 C165 1.397 1_556 S
C166 C167 1.334 . S
C167 H144 0.950 . S
C167 C166 1.334 . S
C167 C168 1.287 . S
C168 C167 1.287 . S
C168 C169 1.524 1_556 S
C168 H187 0.913 . S
C169 H145 0.950 . S
C169 C168 1.524 1_554 S
C169 C170 1.415 . S
C170 H146 0.950 . S
C170 C165 1.363 . S
C170 C169 1.415 . S
C171 H147 0.951 . S
C171 C172 1.366 . S
C171 C173 1.388 . S
C172 C171 1.366 . S
C172 C176 1.385 1_556 S
C173 H148 0.951 . S
C173 C171 1.388 . S
C173 C174 1.366 . S
C174 C173 1.366 . S
C174 C175 1.414 1_556 S
C174 C177 1.498 1_556 S
C175 H149 0.950 . S
C175 C174 1.414 1_554 S
C175 C176 1.374 . S
C176 H150 0.950 . S
C176 C172 1.385 1_554 S
C176 C175 1.374 . S
C177 C174 1.498 1_554 S
C177 C178 1.374 . S
C177 C179 1.389 1_554 S
C178 H151 0.950 . S
C178 C164 1.377 . S
C178 C177 1.374 . S
C179 C163 1.377 . S
C179 C177 1.389 1_556 S
C179 C180 1.524 . S
C180 C179 1.524 . S
C180 C181 1.397 1_556 S
C180 C185 1.363 . S
C181 H152 0.950 . S
C181 C180 1.397 1_554 S
C181 C182 1.334 . S
C182 H153 0.950 . S
C182 C181 1.334 . S
C182 C183 1.287 1_554 S
C183 C182 1.287 1_556 S
C183 C184 1.524 . S
C183 H186 0.999 . S
C184 H154 0.950 . S
C184 C183 1.524 . S
C184 C185 1.415 . S
C185 H155 0.950 . S
C185 C180 1.363 . S
C185 C184 1.415 . S
H186 C183 0.999 . S
H187 C168 0.913 . S
H188 C206 0.951 . S
H189 C208 0.951 . S
H190 C210 0.950 . S
H191 C211 0.950 . S
H192 C213 0.950 1_455 S
H193 C216 0.950 . S
H194 C217 0.950 . S
H195 C219 0.950 . S
H196 C220 0.950 . S
H197 C221 0.951 . S
H198 C223 0.951 1_554 S
H199 C225 0.950 . S
H200 C226 0.950 . S
H201 C228 0.950 . S
H202 C231 0.950 . S
H203 C232 0.950 . S
H204 C234 0.950 . S
H205 C235 0.950 . S
C206 H188 0.951 . S
C206 C207 1.366 . S
C206 C208 1.388 . S
C207 C206 1.366 . S
C207 C211 1.385 1_556 S
C208 H189 0.951 . S
C208 C206 1.388 . S
C208 C209 1.364 1_556 S
C209 C208 1.364 1_554 S
C209 C210 1.415 . S
C209 C212 1.499 . S
C210 H190 0.950 . S
C210 C209 1.415 . S
C210 C211 1.374 . S
C211 H191 0.950 . S
C211 C207 1.385 1_554 S
C211 C210 1.374 . S
C212 C209 1.499 . S
C212 C213 1.362 1_454 S
C212 C214 1.399 1_455 S
C213 H192 0.950 1_655 S
C213 C212 1.362 1_656 S
C213 C229 1.377 . S
C214 C212 1.399 1_655 S
C214 C215 1.524 1_655 S
C214 C228 1.377 . S
C215 C214 1.524 1_455 S
C215 C216 1.397 . S
C215 C220 1.363 1_455 S
C216 H193 0.950 . S
C216 C215 1.397 . S
C216 C217 1.334 . S
C217 H194 0.950 . S
C217 C216 1.334 . S
C217 C218 1.287 . S
C218 C217 1.287 . S
C218 C219 1.524 . S
C218 H237 0.913 . S
C219 H195 0.950 . S
C219 C218 1.524 . S
C219 C220 1.415 1_455 S
C220 H196 0.950 . S
C220 C215 1.363 1_655 S
C220 C219 1.415 1_655 S
C221 H197 0.951 . S
C221 C222 1.366 1_554 S
C221 C223 1.388 1_554 S
C222 C221 1.366 1_556 S
C222 C226 1.385 . S
C223 H198 0.951 1_556 S
C223 C221 1.388 1_556 S
C223 C224 1.366 . S
C224 C223 1.366 . S
C224 C225 1.414 . S
C224 C227 1.499 . S
C225 H199 0.950 . S
C225 C224 1.414 . S
C225 C226 1.374 . S
C226 H200 0.950 . S
C226 C222 1.385 . S
C226 C225 1.374 . S
C227 C224 1.499 . S
C227 C228 1.373 1_556 S
C227 C229 1.389 . S
C228 H201 0.950 . S
C228 C214 1.377 . S
C228 C227 1.373 1_554 S
C229 C213 1.377 . S
C229 C227 1.389 . S
C229 C230 1.524 . S
C230 C229 1.524 . S
C230 C231 1.397 . S
C230 C235 1.363 . S
C231 H202 0.950 . S
C231 C230 1.397 . S
C231 C232 1.334 . S
C232 H203 0.950 . S
C232 C231 1.334 . S
C232 C233 1.287 . S
C233 C232 1.287 . S
C233 C234 1.524 . S
C233 H236 0.999 . S
C234 H204 0.950 . S
C234 C233 1.524 . S
C234 C235 1.415 . S
C235 H205 0.950 . S
C235 C230 1.363 . S
C235 C234 1.415 . S
H236 C233 0.999 . S
H237 C218 0.913 . S
H238 C256 0.951 . S
H239 C258 0.951 . S
H240 C260 0.950 . S
H241 C261 0.950 . S
H242 C263 0.950 1_545 S
H243 C266 0.950 . S
H244 C267 0.950 . S
H245 C269 0.950 . S
H246 C270 0.950 1_565 S
H247 C271 0.951 . S
H248 C273 0.951 . S
H249 C275 0.950 . S
H250 C276 0.950 . S
H251 C278 0.950 . S
H252 C281 0.950 . S
H253 C282 0.950 . S
H254 C284 0.950 . S
H255 C285 0.950 . S
C256 H238 0.951 . S
C256 C257 1.366 . S
C256 C258 1.388 . S
C257 C256 1.366 . S
C257 C261 1.385 1_556 S
C258 H239 0.951 . S
C258 C256 1.388 . S
C258 C259 1.366 . S
C259 C258 1.366 . S
C259 C260 1.414 1_556 S
C259 C262 1.499 . S
C260 H240 0.950 . S
C260 C259 1.414 1_554 S
C260 C261 1.374 . S
C261 H241 0.950 . S
C261 C257 1.385 1_554 S
C261 C260 1.374 . S
C262 C259 1.499 . S
C262 C263 1.373 1_546 S
C262 C264 1.389 1_545 S
C263 H242 0.950 1_565 S
C263 C262 1.373 1_564 S
C263 C279 1.377 . S
C264 C262 1.389 1_565 S
C264 C265 1.524 1_565 S
C264 C278 1.377 . S
C265 C264 1.524 1_545 S
C265 C266 1.397 . S
C265 C270 1.363 . S
C266 H243 0.950 . S
C266 C265 1.397 . S
C266 C267 1.334 . S
C267 H244 0.950 . S
C267 C266 1.334 . S
C267 C268 1.287 . S
C268 C267 1.287 . S
C268 C269 1.524 . S
C268 H287 0.913 . S
C269 H245 0.950 . S
C269 C268 1.524 . S
C269 C270 1.415 . S
C270 H246 0.950 1_545 S
C270 C265 1.363 . S
C270 C269 1.415 . S
C271 H247 0.951 . S
C271 C272 1.366 1_554 S
C271 C273 1.388 . S
C272 C271 1.366 1_556 S
C272 C276 1.385 . S
C273 H248 0.951 . S
C273 C271 1.388 . S
C273 C274 1.365 1_554 S
C274 C273 1.365 1_556 S
C274 C275 1.415 . S
C274 C277 1.499 . S
C275 H249 0.950 . S
C275 C274 1.415 . S
C275 C276 1.374 . S
C276 H250 0.950 . S
C276 C272 1.385 . S
C276 C275 1.374 . S
C277 C274 1.499 . S
C277 C278 1.375 . S
C277 C279 1.388 1_556 S
C278 H251 0.950 . S
C278 C264 1.377 . S
C278 C277 1.375 . S
C279 C263 1.377 . S
C279 C277 1.388 1_554 S
C279 C280 1.524 . S
C280 C279 1.524 . S
C280 C281 1.397 . S
C280 C285 1.363 . S
C281 H252 0.950 . S
C281 C280 1.397 . S
C281 C282 1.334 . S
C282 H253 0.950 . S
C282 C281 1.334 . S
C282 C283 1.287 . S
C283 C282 1.287 . S
C283 C284 1.524 . S
C283 H286 0.999 . S
C284 H254 0.950 . S
C284 C283 1.524 . S
C284 C285 1.415 . S
C285 H255 0.950 . S
C285 C280 1.363 . S
C285 C284 1.415 . S
H286 C283 0.999 . S
H287 C268 0.913 . S
H288 C306 0.951 . S
H289 C308 0.951 . S
H290 C310 0.950 . S
H291 C311 0.950 . S
H292 C313 0.950 . S
H293 C316 0.950 . S
H294 C317 0.950 . S
H295 C319 0.950 . S
H296 C320 0.950 1_556 S
H297 C321 0.951 . S
H298 C323 0.951 . S
H299 C325 0.950 . S
H300 C326 0.950 . S
H301 C328 0.950 . S
H302 C331 0.950 . S
H303 C332 0.950 . S
H304 C334 0.950 . S
H305 C335 0.950 1_554 S
C306 H288 0.951 . S
C306 C307 1.366 . S
C306 C308 1.388 . S
C307 C306 1.366 . S
C307 C311 1.385 1_556 S
C308 H289 0.951 . S
C308 C306 1.388 . S
C308 C309 1.372 . S
C309 C308 1.372 . S
C309 C310 1.408 1_556 S
C309 C312 1.498 1_556 S
C310 H290 0.950 . S
C310 C309 1.408 1_554 S
C310 C311 1.374 . S
C311 H291 0.950 . S
C311 C307 1.385 1_554 S
C311 C310 1.374 . S
C312 C309 1.498 1_554 S
C312 C313 1.369 1_554 S
C312 C314 1.393 . S
C313 H292 0.950 . S
C313 C312 1.369 1_556 S
C313 C329 1.377 . S
C314 C312 1.393 . S
C314 C315 1.524 . S
C314 C328 1.377 . S
C315 C314 1.524 . S
C315 C316 1.397 . S
C315 C320 1.363 . S
C316 H293 0.950 . S
C316 C315 1.397 . S
C316 C317 1.334 . S
C317 H294 0.950 . S
C317 C316 1.334 . S
C317 C318 1.287 . S
C318 C317 1.287 . S
C318 C319 1.524 . S
C318 H337 0.913 . S
C319 H295 0.950 . S
C319 C318 1.524 . S
C319 C320 1.415 . S
C320 H296 0.950 1_554 S
C320 C315 1.363 . S
C320 C319 1.415 . S
C321 H297 0.951 . S
C321 C322 1.366 1_554 S
C321 C323 1.388 . S
C322 C321 1.366 1_556 S
C322 C326 1.385 . S
C323 H298 0.951 . S
C323 C321 1.388 . S
C323 C324 1.366 1_554 S
C324 C323 1.366 1_556 S
C324 C325 1.414 . S
C324 C327 1.499 . S
C325 H299 0.950 . S
C325 C324 1.414 . S
C325 C326 1.374 . S
C326 H300 0.950 . S
C326 C322 1.385 . S
C326 C325 1.374 . S
C327 C324 1.499 . S
C327 C328 1.373 1_556 S
C327 C329 1.389 . S
C328 H301 0.950 . S
C328 C314 1.377 . S
C328 C327 1.373 1_554 S
C329 C313 1.377 . S
C329 C327 1.389 . S
C329 C330 1.524 . S
C330 C329 1.524 . S
C330 C331 1.397 . S
C330 C335 1.363 . S
C331 H302 0.950 . S
C331 C330 1.397 . S
C331 C332 1.334 . S
C332 H303 0.950 . S
C332 C331 1.334 . S
C332 C333 1.287 . S
C333 C332 1.287 . S
C333 C334 1.524 . S
C333 H336 0.999 . S
C334 H304 0.950 . S
C334 C333 1.524 . S
C334 C335 1.415 . S
C335 H305 0.950 1_556 S
C335 C330 1.363 . S
C335 C334 1.415 . S
H336 C333 0.999 . S
H337 C318 0.913 . S
H338 C356 0.951 . S
H339 C358 0.951 . S
H340 C360 0.950 . S
H341 C361 0.950 . S
H342 C363 0.950 . S
H343 C366 0.950 . S
H344 C367 0.950 . S
H345 C369 0.950 . S
H346 C370 0.950 . S
H347 C371 0.951 . S
H348 C373 0.951 . S
H349 C375 0.950 . S
H350 C376 0.950 . S
H351 C378 0.950 1_655 S
H352 C381 0.950 . S
H353 C382 0.950 . S
H354 C384 0.950 . S
H355 C385 0.950 1_455 S
C356 H338 0.951 . S
C356 C357 1.366 1_554 S
C356 C358 1.388 . S
C357 C356 1.366 1_556 S
C357 C361 1.385 . S
C358 H339 0.951 . S
C358 C356 1.388 . S
C358 C359 1.366 1_554 S
C359 C358 1.366 1_556 S
C359 C360 1.414 . S
C359 C362 1.499 . S
C360 H340 0.950 . S
C360 C359 1.414 . S
C360 C361 1.374 . S
C361 H341 0.950 . S
C361 C357 1.385 . S
C361 C360 1.374 . S
C362 C359 1.499 . S
C362 C363 1.373 . S
C362 C364 1.390 . S
C363 H342 0.950 . S
C363 C362 1.373 . S
C363 C379 1.377 . S
C364 C362 1.390 . S
C364 C365 1.524 . S
C364 C378 1.376 1_556 S
C365 C364 1.524 . S
C365 C366 1.397 . S
C365 C370 1.363 1_556 S
C366 H343 0.950 . S
C366 C365 1.397 . S
C366 C367 1.334 . S
C367 H344 0.950 . S
C367 C366 1.334 . S
C367 C368 1.287 . S
C368 C367 1.287 . S
C368 C369 1.524 1_556 S
C368 H387 0.913 . S
C369 H345 0.950 . S
C369 C368 1.524 1_554 S
C369 C370 1.415 . S
C370 H346 0.950 . S
C370 C365 1.363 1_554 S
C370 C369 1.415 . S
C371 H347 0.951 . S
C371 C372 1.366 . S
C371 C373 1.388 . S
C372 C371 1.366 . S
C372 C376 1.385 1_556 S
C373 H348 0.951 . S
C373 C371 1.388 . S
C373 C374 1.372 . S
C374 C373 1.372 . S
C374 C375 1.408 1_556 S
C374 C377 1.498 1_556 S
C375 H349 0.950 . S
C375 C374 1.408 1_554 S
C375 C376 1.374 . S
C376 H350 0.950 . S
C376 C372 1.385 1_554 S
C376 C375 1.374 . S
C377 C374 1.498 1_554 S
C377 C378 1.374 1_655 S
C377 C379 1.388 1_654 S
C378 H351 0.950 1_455 S
C378 C364 1.376 1_554 S
C378 C377 1.374 1_455 S
C379 C363 1.377 . S
C379 C377 1.388 1_456 S
C379 C380 1.524 1_455 S
C380 C379 1.524 1_655 S
C380 C381 1.397 1_556 S
C380 C385 1.363 . S
C381 H352 0.950 . S
C381 C380 1.397 1_554 S
C381 C382 1.334 . S
C382 H353 0.950 . S
C382 C381 1.334 . S
C382 C383 1.287 . S
C383 C382 1.287 . S
C383 C384 1.524 1_554 S
C383 H386 0.999 . S
C384 H354 0.950 . S
C384 C383 1.524 1_556 S
C384 C385 1.415 . S
C385 H355 0.950 1_655 S
C385 C380 1.363 . S
C385 C384 1.415 . S
H386 C383 0.999 . S
H387 C368 0.913 . S
H388 C406 0.951 . S
H389 C408 0.951 . S
H390 C410 0.950 . S
H391 C411 0.950 . S
H392 C413 0.950 1_565 S
H393 C416 0.950 . S
H394 C417 0.950 . S
H395 C419 0.950 . S
H396 C420 0.950 1_545 S
H397 C421 0.951 . S
H398 C423 0.951 . S
H399 C425 0.950 . S
H400 C426 0.950 . S
H401 C428 0.950 . S
H402 C431 0.950 . S
H403 C432 0.950 . S
H404 C434 0.950 . S
H405 C435 0.950 . S
C406 H388 0.951 . S
C406 C407 1.366 1_554 S
C406 C408 1.388 . S
C407 C406 1.366 1_556 S
C407 C411 1.385 . S
C408 H389 0.951 . S
C408 C406 1.388 . S
C408 C409 1.366 1_554 S
C409 C408 1.366 1_556 S
C409 C410 1.414 . S
C409 C412 1.499 . S
C410 H390 0.950 . S
C410 C409 1.414 . S
C410 C411 1.374 . S
C411 H391 0.950 . S
C411 C407 1.385 . S
C411 C410 1.374 . S
C412 C409 1.499 . S
C412 C413 1.373 1_566 S
C412 C414 1.389 1_565 S
C413 H392 0.950 1_545 S
C413 C412 1.373 1_544 S
C413 C429 1.377 . S
C414 C412 1.389 1_545 S
C414 C415 1.524 1_545 S
C414 C428 1.377 . S
C415 C414 1.524 1_565 S
C415 C416 1.397 . S
C415 C420 1.363 . S
C416 H393 0.950 . S
C416 C415 1.397 . S
C416 C417 1.334 . S
C417 H394 0.950 . S
C417 C416 1.334 . S
C417 C418 1.287 . S
C418 C417 1.287 . S
C418 C419 1.524 . S
C418 H437 0.913 . S
C419 H395 0.950 . S
C419 C418 1.524 . S
C419 C420 1.415 . S
C420 H396 0.950 1_565 S
C420 C415 1.363 . S
C420 C419 1.415 . S
C421 H397 0.951 . S
C421 C422 1.366 . S
C421 C423 1.388 . S
C422 C421 1.366 . S
C422 C426 1.385 1_556 S
C423 H398 0.951 . S
C423 C421 1.388 . S
C423 C424 1.367 . S
C424 C423 1.367 . S
C424 C425 1.413 1_556 S
C424 C427 1.498 1_556 S
C425 H399 0.950 . S
C425 C424 1.413 1_554 S
C425 C426 1.374 . S
C426 H400 0.950 . S
C426 C422 1.385 1_554 S
C426 C425 1.374 . S
C427 C424 1.498 1_554 S
C427 C428 1.367 1_554 S
C427 C429 1.395 . S
C428 H401 0.950 . S
C428 C414 1.377 . S
C428 C427 1.367 1_556 S
C429 C413 1.377 . S
C429 C427 1.395 . S
C429 C430 1.524 . S
C430 C429 1.524 . S
C430 C431 1.397 . S
C430 C435 1.363 . S
C431 H402 0.950 . S
C431 C430 1.397 . S
C431 C432 1.334 . S
C432 H403 0.950 . S
C432 C431 1.334 . S
C432 C433 1.287 . S
C433 C432 1.287 . S
C433 C434 1.524 . S
C433 H436 0.999 . S
C434 H404 0.950 . S
C434 C433 1.524 . S
C434 C435 1.415 . S
C435 H405 0.950 . S
C435 C430 1.363 . S
C435 C434 1.415 . S
H436 C433 0.999 . S
H437 C418 0.913 . S
H438 C456 0.951 . S
H439 C458 0.951 . S
H440 C460 0.950 . S
H441 C461 0.950 . S
H442 C463 0.950 . S
H443 C466 0.950 . S
H444 C467 0.950 . S
H445 C469 0.950 . S
H446 C470 0.950 . S
H447 C471 0.951 . S
H448 C473 0.951 . S
H449 C475 0.950 . S
H450 C476 0.950 . S
H451 C478 0.950 . S
H452 C481 0.950 . S
H453 C482 0.950 . S
H454 C484 0.950 . S
H455 C485 0.950 . S
C456 H438 0.951 . S
C456 C457 1.366 1_554 S
C456 C458 1.388 . S
C457 C456 1.366 1_556 S
C457 C461 1.385 . S
C458 H439 0.951 . S
C458 C456 1.388 . S
C458 C459 1.366 . S
C459 C458 1.366 . S
C459 C460 1.414 1_554 S
C459 C462 1.499 . S
C460 H440 0.950 . S
C460 C459 1.414 1_556 S
C460 C461 1.374 . S
C461 H441 0.950 . S
C461 C457 1.385 . S
C461 C460 1.374 . S
C462 C459 1.499 . S
C462 C463 1.373 1_554 S
C462 C464 1.389 . S
C463 H442 0.950 . S
C463 C462 1.373 1_556 S
C463 C479 1.377 . S
C464 C462 1.389 . S
C464 C465 1.524 . S
C464 C478 1.377 . S
C465 C464 1.524 . S
C465 C466 1.397 . S
C465 C470 1.363 . S
C466 H443 0.950 . S
C466 C465 1.397 . S
C466 C467 1.334 . S
C467 H444 0.950 . S
C467 C466 1.334 . S
C467 C468 1.287 . S
C468 C467 1.287 . S
C468 C469 1.524 . S
C468 H487 0.913 . S
C469 H445 0.950 . S
C469 C468 1.524 . S
C469 C470 1.415 . S
C470 H446 0.950 . S
C470 C465 1.363 . S
C470 C469 1.415 . S
C471 H447 0.951 . S
C471 C472 1.366 1_556 S
C471 C473 1.388 . S
C472 C471 1.366 1_554 S
C472 C476 1.385 . S
C473 H448 0.951 . S
C473 C471 1.388 . S
C473 C474 1.366 . S
C474 C473 1.366 . S
C474 C475 1.414 1_556 S
C474 C477 1.499 . S
C475 H449 0.950 . S
C475 C474 1.414 1_554 S
C475 C476 1.374 . S
C476 H450 0.950 . S
C476 C472 1.385 . S
C476 C475 1.374 . S
C477 C474 1.499 . S
C477 C478 1.373 1_556 S
C477 C479 1.389 . S
C478 H451 0.950 . S
C478 C464 1.377 . S
C478 C477 1.373 1_554 S
C479 C463 1.377 . S
C479 C477 1.389 . S
C479 C480 1.524 . S
C480 C479 1.524 . S
C480 C481 1.397 . S
C480 C485 1.363 . S
C481 H452 0.950 . S
C481 C480 1.397 . S
C481 C482 1.334 . S
C482 H453 0.950 . S
C482 C481 1.334 . S
C482 C483 1.287 . S
C483 C482 1.287 . S
C483 C484 1.524 . S
C483 H486 0.999 . S
C484 H454 0.950 . S
C484 C483 1.524 . S
C484 C485 1.415 . S
C485 H455 0.950 . S
C485 C480 1.363 . S
C485 C484 1.415 . S
H486 C483 0.999 . S
H487 C468 0.913 . S
H488 C506 0.951 . S
H489 C508 0.951 . S
H490 C510 0.950 . S
H491 C511 0.950 . S
H492 C513 0.950 . S
H493 C516 0.950 . S
H494 C517 0.950 . S
H495 C519 0.950 . S
H496 C520 0.950 . S
H497 C521 0.951 . S
H498 C523 0.951 . S
H499 C525 0.950 . S
H500 C526 0.950 . S
H501 C528 0.950 . S
H502 C531 0.950 . S
H503 C532 0.950 . S
H504 C534 0.950 . S
H505 C535 0.950 . S
C506 H488 0.951 . S
C506 C507 1.366 . S
C506 C508 1.388 . S
C507 C506 1.366 . S
C507 C511 1.385 1_556 S
C508 H489 0.951 . S
C508 C506 1.388 . S
C508 C509 1.374 . S
C509 C508 1.374 . S
C509 C510 1.406 1_556 S
C509 C512 1.498 1_556 S
C510 H490 0.950 . S
C510 C509 1.406 1_554 S
C510 C511 1.374 . S
C511 H491 0.950 . S
C511 C507 1.385 1_554 S
C511 C510 1.374 . S
C512 C509 1.498 1_554 S
C512 C513 1.373 . S
C512 C514 1.389 1_554 S
C513 H492 0.950 . S
C513 C512 1.373 . S
C513 C529 1.377 . S
C514 C512 1.389 1_556 S
C514 C515 1.524 . S
C514 C528 1.377 . S
C515 C514 1.524 . S
C515 C516 1.397 . S
C515 C520 1.363 . S
C516 H493 0.950 . S
C516 C515 1.397 . S
C516 C517 1.334 . S
C517 H494 0.950 . S
C517 C516 1.334 . S
C517 C518 1.287 . S
C518 C517 1.287 . S
C518 C519 1.524 . S
C518 H537 0.913 . S
C519 H495 0.950 . S
C519 C518 1.524 . S
C519 C520 1.415 . S
C520 H496 0.950 . S
C520 C515 1.363 . S
C520 C519 1.415 . S
C521 H497 0.951 . S
C521 C522 1.366 . S
C521 C523 1.388 . S
C522 C521 1.366 . S
C522 C526 1.385 1_554 S
C523 H498 0.951 . S
C523 C521 1.388 . S
C523 C524 1.366 . S
C524 C523 1.366 . S
C524 C525 1.414 1_554 S
C524 C527 1.499 1_554 S
C525 H499 0.950 . S
C525 C524 1.414 1_556 S
C525 C526 1.374 . S
C526 H500 0.950 . S
C526 C522 1.385 1_556 S
C526 C525 1.374 . S
C527 C524 1.499 1_556 S
C527 C528 1.373 . S
C527 C529 1.389 1_556 S
C528 H501 0.950 . S
C528 C514 1.377 . S
C528 C527 1.373 . S
C529 C513 1.377 . S
C529 C527 1.389 1_554 S
C529 C530 1.524 . S
C530 C529 1.524 . S
C530 C531 1.397 . S
C530 C535 1.363 . S
C531 H502 0.950 . S
C531 C530 1.397 . S
C531 C532 1.334 . S
C532 H503 0.950 . S
C532 C531 1.334 . S
C532 C533 1.287 . S
C533 C532 1.287 . S
C533 C534 1.524 . S
C533 H536 0.999 . S
C534 H504 0.950 . S
C534 C533 1.524 . S
C534 C535 1.415 . S
C535 H505 0.950 . S
C535 C530 1.363 . S
C535 C534 1.415 . S
H536 C533 0.999 . S
H537 C518 0.913 . S
H538 C556 0.951 . S
H539 C558 0.951 . S
H540 C560 0.950 . S
H541 C561 0.950 . S
H542 C563 0.950 . S
H543 C566 0.950 . S
H544 C567 0.950 . S
H545 C569 0.950 . S
H546 C570 0.950 . S
H547 C571 0.951 . S
H548 C573 0.951 . S
H549 C575 0.950 . S
H550 C576 0.950 . S
H551 C578 0.950 . S
H552 C581 0.950 . S
H553 C582 0.950 . S
H554 C584 0.950 . S
H555 C585 0.950 . S
C556 H538 0.951 . S
C556 C557 1.366 . S
C556 C558 1.388 . S
C557 C556 1.366 . S
C557 C561 1.385 1_554 S
C558 H539 0.951 . S
C558 C556 1.388 . S
C558 C559 1.354 1_554 S
C559 C558 1.354 1_556 S
C559 C560 1.425 . S
C559 C562 1.499 . S
C560 H540 0.950 . S
C560 C559 1.425 . S
C560 C561 1.374 . S
C561 H541 0.950 . S
C561 C557 1.385 1_556 S
C561 C560 1.374 . S
C562 C559 1.499 . S
C562 C563 1.373 . S
C562 C564 1.389 1_556 S
C563 H542 0.950 . S
C563 C562 1.373 . S
C563 C579 1.377 . S
C564 C562 1.389 1_554 S
C564 C565 1.524 . S
C564 C578 1.377 . S
C565 C564 1.524 . S
C565 C566 1.397 1_554 S
C565 C570 1.363 . S
C566 H543 0.950 . S
C566 C565 1.397 1_556 S
C566 C567 1.334 . S
C567 H544 0.950 . S
C567 C566 1.334 . S
C567 C568 1.287 . S
C568 C567 1.287 . S
C568 C569 1.524 1_556 S
C568 H587 0.913 . S
C569 H545 0.950 . S
C569 C568 1.524 1_554 S
C569 C570 1.415 . S
C570 H546 0.950 . S
C570 C565 1.363 . S
C570 C569 1.415 . S
C571 H547 0.951 . S
C571 C572 1.366 . S
C571 C573 1.388 . S
C572 C571 1.366 . S
C572 C576 1.385 1_556 S
C573 H548 0.951 . S
C573 C571 1.388 . S
C573 C574 1.366 1_556 S
C574 C573 1.366 1_554 S
C574 C575 1.414 . S
C574 C577 1.499 . S
C575 H549 0.950 . S
C575 C574 1.414 . S
C575 C576 1.374 . S
C576 H550 0.950 . S
C576 C572 1.385 1_554 S
C576 C575 1.374 . S
C577 C574 1.499 . S
C577 C578 1.373 . S
C577 C579 1.389 1_554 S
C578 H551 0.950 . S
C578 C564 1.377 . S
C578 C577 1.373 . S
C579 C563 1.377 . S
C579 C577 1.389 1_556 S
C579 C580 1.524 . S
C580 C579 1.524 . S
C580 C581 1.397 1_556 S
C580 C585 1.363 . S
C581 H552 0.950 . S
C581 C580 1.397 1_554 S
C581 C582 1.334 . S
C582 H553 0.950 . S
C582 C581 1.334 . S
C582 C583 1.287 . S
C583 C582 1.287 . S
C583 C584 1.524 1_554 S
C583 H586 0.999 . S
C584 H554 0.950 . S
C584 C583 1.524 1_556 S
C584 C585 1.415 . S
C585 H555 0.950 . S
C585 C580 1.363 . S
C585 C584 1.415 . S
H586 C583 0.999 . S
H587 C568 0.913 . S
H588 C606 0.951 . S
H589 C608 0.951 . S
H590 C610 0.950 . S
H591 C611 0.950 . S
H592 C613 0.950 . S
H593 C616 0.950 . S
H594 C617 0.950 . S
H595 C619 0.950 . S
H596 C620 0.950 . S
H597 C621 0.951 . S
H598 C623 0.951 . S
H599 C625 0.950 . S
H600 C626 0.950 . S
H601 C628 0.950 . S
H602 C631 0.950 . S
H603 C632 0.950 . S
H604 C634 0.950 . S
H605 C635 0.950 . S
C606 H588 0.951 . S
C606 C607 1.366 1_556 S
C606 C608 1.388 . S
C607 C606 1.366 1_554 S
C607 C611 1.385 . S
C608 H589 0.951 . S
C608 C606 1.388 . S
C608 C609 1.372 . S
C609 C608 1.372 . S
C609 C610 1.407 1_556 S
C609 C612 1.498 1_556 S
C610 H590 0.950 . S
C610 C609 1.407 1_554 S
C610 C611 1.374 . S
C611 H591 0.950 . S
C611 C607 1.385 . S
C611 C610 1.374 . S
C612 C609 1.498 1_554 S
C612 C613 1.380 . S
C612 C614 1.383 1_554 S
C613 H592 0.950 . S
C613 C612 1.380 . S
C613 C629 1.377 . S
C614 C612 1.383 1_556 S
C614 C615 1.524 . S
C614 C628 1.377 . S
C615 C614 1.524 . S
C615 C616 1.397 . S
C615 C620 1.363 . S
C616 H593 0.950 . S
C616 C615 1.397 . S
C616 C617 1.334 . S
C617 H594 0.950 . S
C617 C616 1.334 . S
C617 C618 1.287 . S
C618 C617 1.287 . S
C618 C619 1.524 . S
C618 H637 0.913 . S
C619 H595 0.950 . S
C619 C618 1.524 . S
C619 C620 1.415 . S
C620 H596 0.950 . S
C620 C615 1.363 . S
C620 C619 1.415 . S
C621 H597 0.951 . S
C621 C622 1.366 1_554 S
C621 C623 1.388 . S
C622 C621 1.366 1_556 S
C622 C626 1.385 . S
C623 H598 0.951 . S
C623 C621 1.388 . S
C623 C624 1.366 . S
C624 C623 1.366 . S
C624 C625 1.414 1_554 S
C624 C627 1.499 . S
C625 H599 0.950 . S
C625 C624 1.414 1_556 S
C625 C626 1.374 . S
C626 H600 0.950 . S
C626 C622 1.385 . S
C626 C625 1.374 . S
C627 C624 1.499 . S
C627 C628 1.370 1_554 S
C627 C629 1.393 . S
C628 H601 0.950 . S
C628 C614 1.377 . S
C628 C627 1.370 1_556 S
C629 C613 1.377 . S
C629 C627 1.393 . S
C629 C630 1.524 . S
C630 C629 1.524 . S
C630 C631 1.397 . S
C630 C635 1.363 . S
C631 H602 0.950 . S
C631 C630 1.397 . S
C631 C632 1.334 . S
C632 H603 0.950 . S
C632 C631 1.334 . S
C632 C633 1.287 . S
C633 C632 1.287 . S
C633 C634 1.524 . S
C633 H636 0.999 . S
C634 H604 0.950 . S
C634 C633 1.524 . S
C634 C635 1.415 . S
C635 H605 0.950 . S
C635 C630 1.363 . S
C635 C634 1.415 . S
H636 C633 0.999 . S
H637 C618 0.913 . S
H638 C656 0.951 . S
H639 C658 0.951 . S
H640 C660 0.950 . S
H641 C661 0.950 . S
H642 C663 0.950 . S
H643 C666 0.950 . S
H644 C667 0.950 . S
H645 C669 0.950 . S
H646 C670 0.950 . S
H647 C671 0.951 . S
H648 C673 0.951 . S
H649 C675 0.950 . S
H650 C676 0.950 . S
H651 C678 0.950 . S
H652 C681 0.950 . S
H653 C682 0.950 . S
H654 C684 0.950 . S
H655 C685 0.950 . S
C656 H638 0.951 . S
C656 C657 1.366 1_556 S
C656 C658 1.388 . S
C657 C656 1.366 1_554 S
C657 C661 1.385 . S
C658 H639 0.951 . S
C658 C656 1.388 . S
C658 C659 1.366 . S
C659 C658 1.366 . S
C659 C660 1.414 1_556 S
C659 C662 1.499 . S
C660 H640 0.950 . S
C660 C659 1.414 1_554 S
C660 C661 1.374 . S
C661 H641 0.950 . S
C661 C657 1.385 . S
C661 C660 1.374 . S
C662 C659 1.499 . S
C662 C663 1.373 1_556 S
C662 C664 1.389 . S
C663 H642 0.950 . S
C663 C662 1.373 1_554 S
C663 C679 1.377 . S
C664 C662 1.389 . S
C664 C665 1.524 . S
C664 C678 1.377 . S
C665 C664 1.524 . S
C665 C666 1.397 . S
C665 C670 1.363 . S
C666 H643 0.950 . S
C666 C665 1.397 . S
C666 C667 1.334 . S
C667 H644 0.950 . S
C667 C666 1.334 . S
C667 C668 1.287 . S
C668 C667 1.287 . S
C668 C669 1.524 . S
C668 H687 0.913 . S
C669 H645 0.950 . S
C669 C668 1.524 . S
C669 C670 1.415 . S
C670 H646 0.950 . S
C670 C665 1.363 . S
C670 C669 1.415 . S
C671 H647 0.951 . S
C671 C672 1.366 1_554 S
C671 C673 1.388 . S
C672 C671 1.366 1_556 S
C672 C676 1.385 . S
C673 H648 0.951 . S
C673 C671 1.388 . S
C673 C674 1.366 . S
C674 C673 1.366 . S
C674 C675 1.414 1_554 S
C674 C677 1.499 . S
C675 H649 0.950 . S
C675 C674 1.414 1_556 S
C675 C676 1.374 . S
C676 H650 0.950 . S
C676 C672 1.385 . S
C676 C675 1.374 . S
C677 C674 1.499 . S
C677 C678 1.373 1_554 S
C677 C679 1.389 . S
C678 H651 0.950 . S
C678 C664 1.377 . S
C678 C677 1.373 1_556 S
C679 C663 1.377 . S
C679 C677 1.389 . S
C679 C680 1.524 . S
C680 C679 1.524 . S
C680 C681 1.397 . S
C680 C685 1.363 . S
C681 H652 0.950 . S
C681 C680 1.397 . S
C681 C682 1.334 . S
C682 H653 0.950 . S
C682 C681 1.334 . S
C682 C683 1.287 . S
C683 C682 1.287 . S
C683 C684 1.524 . S
C683 H686 0.999 . S
C684 H654 0.950 . S
C684 C683 1.524 . S
C684 C685 1.415 . S
C685 H655 0.950 . S
C685 C680 1.363 . S
C685 C684 1.415 . S
H686 C683 0.999 . S
H687 C668 0.913 . S
H688 C706 0.951 . S
H689 C708 0.951 . S
H690 C710 0.950 . S
H691 C711 0.950 . S
H692 C713 0.950 . S
H693 C716 0.950 1_556 S
H694 C717 0.950 1_556 S
H695 C719 0.950 . S
H696 C720 0.950 . S
H697 C721 0.951 . S
H698 C723 0.951 . S
H699 C725 0.950 . S
H700 C726 0.950 . S
H701 C728 0.950 . S
H702 C731 0.950 1_554 S
H703 C732 0.950 1_554 S
H704 C734 0.950 . S
H705 C735 0.950 . S
C706 H688 0.951 . S
C706 C707 1.366 1_554 S
C706 C708 1.388 . S
C707 C706 1.366 1_556 S
C707 C711 1.385 . S
C708 H689 0.951 . S
C708 C706 1.388 . S
C708 C709 1.366 1_554 S
C709 C708 1.366 1_556 S
C709 C710 1.414 . S
C709 C712 1.499 . S
C710 H690 0.950 . S
C710 C709 1.414 . S
C710 C711 1.374 . S
C711 H691 0.950 . S
C711 C707 1.385 . S
C711 C710 1.374 . S
C712 C709 1.499 . S
C712 C713 1.373 . S
C712 C714 1.389 1_556 S
C713 H692 0.950 . S
C713 C712 1.373 . S
C713 C729 1.377 . S
C714 C712 1.389 1_554 S
C714 C715 1.524 . S
C714 C728 1.377 . S
C715 C714 1.524 . S
C715 C716 1.397 . S
C715 C720 1.363 . S
C716 H693 0.950 1_554 S
C716 C715 1.397 . S
C716 C717 1.334 . S
C717 H694 0.950 1_554 S
C717 C716 1.334 . S
C717 C718 1.287 . S
C718 C717 1.287 . S
C718 C719 1.524 . S
C718 H737 0.913 . S
C719 H695 0.950 . S
C719 C718 1.524 . S
C719 C720 1.415 . S
C720 H696 0.950 . S
C720 C715 1.363 . S
C720 C719 1.415 . S
C721 H697 0.951 . S
C721 C722 1.366 1_556 S
C721 C723 1.388 . S
C722 C721 1.366 1_554 S
C722 C726 1.385 . S
C723 H698 0.951 . S
C723 C721 1.388 . S
C723 C724 1.366 1_556 S
C724 C723 1.366 1_554 S
C724 C725 1.414 . S
C724 C727 1.499 . S
C725 H699 0.950 . S
C725 C724 1.414 . S
C725 C726 1.374 . S
C726 H700 0.950 . S
C726 C722 1.385 . S
C726 C725 1.374 . S
C727 C724 1.499 . S
C727 C728 1.373 . S
C727 C729 1.389 1_554 S
C728 H701 0.950 . S
C728 C714 1.377 . S
C728 C727 1.373 . S
C729 C713 1.377 . S
C729 C727 1.389 1_556 S
C729 C730 1.524 . S
C730 C729 1.524 . S
C730 C731 1.397 . S
C730 C735 1.363 . S
C731 H702 0.950 1_556 S
C731 C730 1.397 . S
C731 C732 1.334 . S
C732 H703 0.950 1_556 S
C732 C731 1.334 . S
C732 C733 1.287 . S
C733 C732 1.287 . S
C733 C734 1.524 . S
C733 H736 0.999 . S
C734 H704 0.950 . S
C734 C733 1.524 . S
C734 C735 1.415 . S
C735 H705 0.950 . S
C735 C730 1.363 . S
C735 C734 1.415 . S
H736 C733 0.999 . S
H737 C718 0.913 . S
H738 C756 0.951 . S
H739 C758 0.951 . S
H740 C760 0.950 . S
H741 C761 0.950 . S
H742 C763 0.950 . S
H743 C766 0.950 . S
H744 C767 0.950 . S
H745 C769 0.950 . S
H746 C770 0.950 . S
H747 C771 0.951 . S
H748 C773 0.951 . S
H749 C775 0.950 . S
H750 C776 0.950 . S
H751 C778 0.950 . S
H752 C781 0.950 . S
H753 C782 0.950 . S
H754 C784 0.950 . S
H755 C785 0.950 . S
C756 H738 0.951 . S
C756 C757 1.366 . S
C756 C758 1.388 . S
C757 C756 1.366 . S
C757 C761 1.385 . S
C758 H739 0.951 . S
C758 C756 1.388 . S
C758 C759 1.366 . S
C759 C758 1.366 . S
C759 C760 1.414 . S
C759 C762 1.499 . S
C760 H740 0.950 . S
C760 C759 1.414 . S
C760 C761 1.374 . S
C761 H741 0.950 . S
C761 C757 1.385 . S
C761 C760 1.374 . S
C762 C759 1.499 . S
C762 C763 1.373 . S
C762 C764 1.389 . S
C763 H742 0.950 . S
C763 C762 1.373 . S
C763 C779 1.377 . S
C764 C762 1.389 . S
C764 C765 1.524 . S
C764 C778 1.377 . S
C765 C764 1.524 . S
C765 C766 1.397 . S
C765 C770 1.363 . S
C766 H743 0.950 . S
C766 C765 1.397 . S
C766 C767 1.334 . S
C767 H744 0.950 . S
C767 C766 1.334 . S
C767 C768 1.287 . S
C768 C767 1.287 . S
C768 C769 1.524 . S
C768 H787 0.913 . S
C769 H745 0.950 . S
C769 C768 1.524 . S
C769 C770 1.415 . S
C770 H746 0.950 . S
C770 C765 1.363 . S
C770 C769 1.415 . S
C771 H747 0.951 . S
C771 C772 1.366 . S
C771 C773 1.388 . S
C772 C771 1.366 . S
C772 C776 1.385 . S
C773 H748 0.951 . S
C773 C771 1.388 . S
C773 C774 1.366 . S
C774 C773 1.366 . S
C774 C775 1.414 . S
C774 C777 1.499 . S
C775 H749 0.950 . S
C775 C774 1.414 . S
C775 C776 1.374 . S
C776 H750 0.950 . S
C776 C772 1.385 . S
C776 C775 1.374 . S
C777 C774 1.499 . S
C777 C778 1.373 . S
C777 C779 1.389 . S
C778 H751 0.950 . S
C778 C764 1.377 . S
C778 C777 1.373 . S
C779 C763 1.377 . S
C779 C777 1.389 . S
C779 C780 1.524 . S
C780 C779 1.524 . S
C780 C781 1.397 . S
C780 C785 1.363 . S
C781 H752 0.950 . S
C781 C780 1.397 . S
C781 C782 1.334 . S
C782 H753 0.950 . S
C782 C781 1.334 . S
C782 C783 1.287 . S
C783 C782 1.287 . S
C783 C784 1.524 . S
C783 H786 0.999 . S
C784 H754 0.950 . S
C784 C783 1.524 . S
C784 C785 1.415 . S
C785 H755 0.950 . S
C785 C780 1.363 . S
C785 C784 1.415 . S
H786 C783 0.999 . S
H787 C768 0.913 . S
H788 C806 0.951 . S
H789 C808 0.951 . S
H790 C810 0.950 . S
H791 C811 0.950 . S
H792 C813 0.950 . S
H793 C816 0.950 . S
H794 C817 0.950 . S
H795 C819 0.950 . S
H796 C820 0.950 . S
H797 C821 0.951 . S
H798 C823 0.951 . S
H799 C825 0.950 . S
H800 C826 0.950 . S
H801 C828 0.950 . S
H802 C831 0.950 . S
H803 C832 0.950 . S
H804 C834 0.950 . S
H805 C835 0.950 . S
C806 H788 0.951 . S
C806 C807 1.366 . S
C806 C808 1.388 . S
C807 C806 1.366 . S
C807 C811 1.385 . S
C808 H789 0.951 . S
C808 C806 1.388 . S
C808 C809 1.366 . S
C809 C808 1.366 . S
C809 C810 1.414 . S
C809 C812 1.499 . S
C810 H790 0.950 . S
C810 C809 1.414 . S
C810 C811 1.374 . S
C811 H791 0.950 . S
C811 C807 1.385 . S
C811 C810 1.374 . S
C812 C809 1.499 . S
C812 C813 1.373 . S
C812 C814 1.389 . S
C813 H792 0.950 . S
C813 C812 1.373 . S
C813 C829 1.377 . S
C814 C812 1.389 . S
C814 C815 1.524 . S
C814 C828 1.377 . S
C815 C814 1.524 . S
C815 C816 1.397 . S
C815 C820 1.363 . S
C816 H793 0.950 . S
C816 C815 1.397 . S
C816 C817 1.334 . S
C817 H794 0.950 . S
C817 C816 1.334 . S
C817 C818 1.287 . S
C818 C817 1.287 . S
C818 C819 1.524 . S
C818 H837 0.913 . S
C819 H795 0.950 . S
C819 C818 1.524 . S
C819 C820 1.415 . S
C820 H796 0.950 . S
C820 C815 1.363 . S
C820 C819 1.415 . S
C821 H797 0.951 . S
C821 C822 1.366 . S
C821 C823 1.388 . S
C822 C821 1.366 . S
C822 C826 1.385 . S
C823 H798 0.951 . S
C823 C821 1.388 . S
C823 C824 1.366 . S
C824 C823 1.366 . S
C824 C825 1.414 . S
C824 C827 1.499 . S
C825 H799 0.950 . S
C825 C824 1.414 . S
C825 C826 1.374 . S
C826 H800 0.950 . S
C826 C822 1.385 . S
C826 C825 1.374 . S
C827 C824 1.499 . S
C827 C828 1.373 . S
C827 C829 1.389 . S
C828 H801 0.950 . S
C828 C814 1.377 . S
C828 C827 1.373 . S
C829 C813 1.377 . S
C829 C827 1.389 . S
C829 C830 1.524 . S
C830 C829 1.524 . S
C830 C831 1.397 . S
C830 C835 1.363 . S
C831 H802 0.950 . S
C831 C830 1.397 . S
C831 C832 1.334 . S
C832 H803 0.950 . S
C832 C831 1.334 . S
C832 C833 1.287 . S
C833 C832 1.287 . S
C833 C834 1.524 . S
C833 H836 0.999 . S
C834 H804 0.950 . S
C834 C833 1.524 . S
C834 C835 1.415 . S
C835 H805 0.950 . S
C835 C830 1.363 . S
C835 C834 1.415 . S
H836 C833 0.999 . S
H837 C818 0.913 . S
H838 C856 0.951 . S
H839 C858 0.951 . S
H840 C860 0.950 . S
H841 C861 0.950 . S
H842 C863 0.950 . S
H843 C866 0.950 . S
H844 C867 0.950 . S
H845 C869 0.950 . S
H846 C870 0.950 . S
H847 C871 0.951 . S
H848 C873 0.951 . S
H849 C875 0.950 . S
H850 C876 0.950 . S
H851 C878 0.950 . S
H852 C881 0.950 . S
H853 C882 0.950 . S
H854 C884 0.950 . S
H855 C885 0.950 . S
C856 H838 0.951 . S
C856 C857 1.366 . S
C856 C858 1.388 . S
C857 C856 1.366 . S
C857 C861 1.385 . S
C858 H839 0.951 . S
C858 C856 1.388 . S
C858 C859 1.366 . S
C859 C858 1.366 . S
C859 C860 1.414 . S
C859 C862 1.499 . S
C860 H840 0.950 . S
C860 C859 1.414 . S
C860 C861 1.374 . S
C861 H841 0.950 . S
C861 C857 1.385 . S
C861 C860 1.374 . S
C862 C859 1.499 . S
C862 C863 1.373 . S
C862 C864 1.389 . S
C863 H842 0.950 . S
C863 C862 1.373 . S
C863 C879 1.377 . S
C864 C862 1.389 . S
C864 C865 1.524 . S
C864 C878 1.377 . S
C865 C864 1.524 . S
C865 C866 1.397 . S
C865 C870 1.363 . S
C866 H843 0.950 . S
C866 C865 1.397 . S
C866 C867 1.334 . S
C867 H844 0.950 . S
C867 C866 1.334 . S
C867 C868 1.287 . S
C868 C867 1.287 . S
C868 C869 1.524 . S
C868 H887 0.913 . S
C869 H845 0.950 . S
C869 C868 1.524 . S
C869 C870 1.415 . S
C870 H846 0.950 . S
C870 C865 1.363 . S
C870 C869 1.415 . S
C871 H847 0.951 . S
C871 C872 1.366 . S
C871 C873 1.388 . S
C872 C871 1.366 . S
C872 C876 1.385 . S
C873 H848 0.951 . S
C873 C871 1.388 . S
C873 C874 1.366 . S
C874 C873 1.366 . S
C874 C875 1.414 . S
C874 C877 1.499 . S
C875 H849 0.950 . S
C875 C874 1.414 . S
C875 C876 1.374 . S
C876 H850 0.950 . S
C876 C872 1.385 . S
C876 C875 1.374 . S
C877 C874 1.499 . S
C877 C878 1.373 . S
C877 C879 1.389 . S
C878 H851 0.950 . S
C878 C864 1.377 . S
C878 C877 1.373 . S
C879 C863 1.377 . S
C879 C877 1.389 . S
C879 C880 1.524 . S
C880 C879 1.524 . S
C880 C881 1.397 . S
C880 C885 1.363 . S
C881 H852 0.950 . S
C881 C880 1.397 . S
C881 C882 1.334 . S
C882 H853 0.950 . S
C882 C881 1.334 . S
C882 C883 1.287 . S
C883 C882 1.287 . S
C883 C884 1.524 . S
C883 H886 0.999 . S
C884 H854 0.950 . S
C884 C883 1.524 . S
C884 C885 1.415 . S
C885 H855 0.950 . S
C885 C880 1.363 . S
C885 C884 1.415 . S
H886 C883 0.999 . S
H887 C868 0.913 . S
H888 C906 0.951 . S
H889 C908 0.951 . S
H890 C910 0.950 . S
H891 C911 0.950 . S
H892 C913 0.950 . S
H893 C916 0.950 . S
H894 C917 0.950 . S
H895 C919 0.950 . S
H896 C920 0.950 . S
H897 C921 0.951 . S
H898 C923 0.951 . S
H899 C925 0.950 . S
H900 C926 0.950 . S
H901 C928 0.950 . S
H902 C931 0.950 . S
H903 C932 0.950 . S
H904 C934 0.950 . S
H905 C935 0.950 . S
C906 H888 0.951 . S
C906 C907 1.366 . S
C906 C908 1.388 . S
C907 C906 1.366 . S
C907 C911 1.385 . S
C908 H889 0.951 . S
C908 C906 1.388 . S
C908 C909 1.366 . S
C909 C908 1.366 . S
C909 C910 1.414 . S
C909 C912 1.499 . S
C910 H890 0.950 . S
C910 C909 1.414 . S
C910 C911 1.374 . S
C911 H891 0.950 . S
C911 C907 1.385 . S
C911 C910 1.374 . S
C912 C909 1.499 . S
C912 C913 1.373 . S
C912 C914 1.389 . S
C913 H892 0.950 . S
C913 C912 1.373 . S
C913 C929 1.377 . S
C914 C912 1.389 . S
C914 C915 1.524 . S
C914 C928 1.377 . S
C915 C914 1.524 . S
C915 C916 1.397 . S
C915 C920 1.363 . S
C916 H893 0.950 . S
C916 C915 1.397 . S
C916 C917 1.334 . S
C917 H894 0.950 . S
C917 C916 1.334 . S
C917 C918 1.287 . S
C918 C917 1.287 . S
C918 C919 1.524 . S
C918 H937 0.913 . S
C919 H895 0.950 . S
C919 C918 1.524 . S
C919 C920 1.415 . S
C920 H896 0.950 . S
C920 C915 1.363 . S
C920 C919 1.415 . S
C921 H897 0.951 . S
C921 C922 1.366 . S
C921 C923 1.388 . S
C922 C921 1.366 . S
C922 C926 1.385 . S
C923 H898 0.951 . S
C923 C921 1.388 . S
C923 C924 1.366 . S
C924 C923 1.366 . S
C924 C925 1.414 . S
C924 C927 1.499 . S
C925 H899 0.950 . S
C925 C924 1.414 . S
C925 C926 1.374 . S
C926 H900 0.950 . S
C926 C922 1.385 . S
C926 C925 1.374 . S
C927 C924 1.499 . S
C927 C928 1.373 . S
C927 C929 1.389 . S
C928 H901 0.950 . S
C928 C914 1.377 . S
C928 C927 1.373 . S
C929 C913 1.377 . S
C929 C927 1.389 . S
C929 C930 1.524 . S
C930 C929 1.524 . S
C930 C931 1.397 . S
C930 C935 1.363 . S
C931 H902 0.950 . S
C931 C930 1.397 . S
C931 C932 1.334 . S
C932 H903 0.950 . S
C932 C931 1.334 . S
C932 C933 1.287 . S
C933 C932 1.287 . S
C933 C934 1.524 . S
C933 H936 0.999 . S
C934 H904 0.950 . S
C934 C933 1.524 . S
C934 C935 1.415 . S
C935 H905 0.950 . S
C935 C930 1.363 . S
C935 C934 1.415 . S
H936 C933 0.999 . S
H937 C918 0.913 . S
H938 C956 0.951 . S
H939 C958 0.951 . S
H940 C960 0.950 . S
H941 C961 0.950 . S
H942 C963 0.950 . S
H943 C966 0.950 . S
H944 C967 0.950 . S
H945 C969 0.950 . S
H946 C970 0.950 . S
H947 C971 0.951 . S
H948 C973 0.951 . S
H949 C975 0.950 . S
H950 C976 0.950 . S
H951 C978 0.950 . S
H952 C981 0.950 . S
H953 C982 0.950 . S
H954 C984 0.950 . S
H955 C985 0.950 . S
C956 H938 0.951 . S
C956 C957 1.366 . S
C956 C958 1.388 . S
C957 C956 1.366 . S
C957 C961 1.385 . S
C958 H939 0.951 . S
C958 C956 1.388 . S
C958 C959 1.366 . S
C959 C958 1.366 . S
C959 C960 1.414 . S
C959 C962 1.499 . S
C960 H940 0.950 . S
C960 C959 1.414 . S
C960 C961 1.374 . S
C961 H941 0.950 . S
C961 C957 1.385 . S
C961 C960 1.374 . S
C962 C959 1.499 . S
C962 C963 1.373 . S
C962 C964 1.389 . S
C963 H942 0.950 . S
C963 C962 1.373 . S
C963 C979 1.377 . S
C964 C962 1.389 . S
C964 C965 1.524 . S
C964 C978 1.377 . S
C965 C964 1.524 . S
C965 C966 1.397 . S
C965 C970 1.363 . S
C966 H943 0.950 . S
C966 C965 1.397 . S
C966 C967 1.334 . S
C967 H944 0.950 . S
C967 C966 1.334 . S
C967 C968 1.287 . S
C968 C967 1.287 . S
C968 C969 1.524 . S
C968 H987 0.913 . S
C969 H945 0.950 . S
C969 C968 1.524 . S
C969 C970 1.415 . S
C970 H946 0.950 . S
C970 C965 1.363 . S
C970 C969 1.415 . S
C971 H947 0.951 . S
C971 C972 1.366 . S
C971 C973 1.388 . S
C972 C971 1.366 . S
C972 C976 1.385 . S
C973 H948 0.951 . S
C973 C971 1.388 . S
C973 C974 1.366 . S
C974 C973 1.366 . S
C974 C975 1.414 . S
C974 C977 1.499 . S
C975 H949 0.950 . S
C975 C974 1.414 . S
C975 C976 1.374 . S
C976 H950 0.950 . S
C976 C972 1.385 . S
C976 C975 1.374 . S
C977 C974 1.499 . S
C977 C978 1.373 . S
C977 C979 1.389 . S
C978 H951 0.950 . S
C978 C964 1.377 . S
C978 C977 1.373 . S
C979 C963 1.377 . S
C979 C977 1.389 . S
C979 C980 1.524 . S
C980 C979 1.524 . S
C980 C981 1.397 . S
C980 C985 1.363 . S
C981 H952 0.950 . S
C981 C980 1.397 . S
C981 C982 1.334 . S
C982 H953 0.950 . S
C982 C981 1.334 . S
C982 C983 1.287 . S
C983 C982 1.287 . S
C983 C984 1.524 . S
C983 H986 0.999 . S
C984 H954 0.950 . S
C984 C983 1.524 . S
C984 C985 1.415 . S
C985 H955 0.950 . S
C985 C980 1.363 . S
C985 C984 1.415 . S
H986 C983 0.999 . S
H987 C968 0.913 . S
H988 C1006 0.951 . S
H989 C1008 0.951 . S
H990 C1010 0.950 . S
H991 C1011 0.950 . S
H992 C1013 0.950 . S
H993 C1016 0.950 . S
H994 C1017 0.950 . S
H995 C1019 0.950 . S
H996 C1020 0.950 . S
H997 C1021 0.951 . S
H998 C1023 0.951 . S
H999 C1025 0.950 . S
H1000 C1026 0.950 . S
H1001 C1028 0.950 . S
H1002 C1031 0.950 . S
H1003 C1032 0.950 . S
H1004 C1034 0.950 . S
H1005 C1035 0.950 . S
C1006 H988 0.951 . S
C1006 C1007 1.366 . S
C1006 C1008 1.388 . S
C1007 C1006 1.366 . S
C1007 C1011 1.385 . S
C1008 H989 0.951 . S
C1008 C1006 1.388 . S
C1008 C1009 1.366 . S
C1009 C1008 1.366 . S
C1009 C1010 1.414 . S
C1009 C1012 1.499 . S
C1010 H990 0.950 . S
C1010 C1009 1.414 . S
C1010 C1011 1.374 . S
C1011 H991 0.950 . S
C1011 C1007 1.385 . S
C1011 C1010 1.374 . S
C1012 C1009 1.499 . S
C1012 C1013 1.373 . S
C1012 C1014 1.389 . S
C1013 H992 0.950 . S
C1013 C1012 1.373 . S
C1013 C1029 1.377 . S
C1014 C1012 1.389 . S
C1014 C1015 1.524 . S
C1014 C1028 1.377 . S
C1015 C1014 1.524 . S
C1015 C1016 1.397 . S
C1015 C1020 1.363 . S
C1016 H993 0.950 . S
C1016 C1015 1.397 . S
C1016 C1017 1.334 . S
C1017 H994 0.950 . S
C1017 C1016 1.334 . S
C1017 C1018 1.287 . S
C1018 C1017 1.287 . S
C1018 C1019 1.524 . S
C1018 H1037 0.913 . S
C1019 H995 0.950 . S
C1019 C1018 1.524 . S
C1019 C1020 1.415 . S
C1020 H996 0.950 . S
C1020 C1015 1.363 . S
C1020 C1019 1.415 . S
C1021 H997 0.951 . S
C1021 C1022 1.366 . S
C1021 C1023 1.388 . S
C1022 C1021 1.366 . S
C1022 C1026 1.385 . S
C1023 H998 0.951 . S
C1023 C1021 1.388 . S
C1023 C1024 1.366 . S
C1024 C1023 1.366 . S
C1024 C1025 1.414 . S
C1024 C1027 1.499 . S
C1025 H999 0.950 . S
C1025 C1024 1.414 . S
C1025 C1026 1.374 . S
C1026 H1000 0.950 . S
C1026 C1022 1.385 . S
C1026 C1025 1.374 . S
C1027 C1024 1.499 . S
C1027 C1028 1.373 . S
C1027 C1029 1.389 . S
C1028 H1001 0.950 . S
C1028 C1014 1.377 . S
C1028 C1027 1.373 . S
C1029 C1013 1.377 . S
C1029 C1027 1.389 . S
C1029 C1030 1.524 . S
C1030 C1029 1.524 . S
C1030 C1031 1.397 . S
C1030 C1035 1.363 . S
C1031 H1002 0.950 . S
C1031 C1030 1.397 . S
C1031 C1032 1.334 . S
C1032 H1003 0.950 . S
C1032 C1031 1.334 . S
C1032 C1033 1.287 . S
C1033 C1032 1.287 . S
C1033 C1034 1.524 . S
C1033 H1036 0.999 . S
C1034 H1004 0.950 . S
C1034 C1033 1.524 . S
C1034 C1035 1.415 . S
C1035 H1005 0.950 . S
C1035 C1030 1.363 . S
C1035 C1034 1.415 . S
H1036 C1033 0.999 . S
H1037 C1018 0.913 . S
C157 C132 1.461 . S
C172 C18 1.445 1_556 S
C207 C17 1.461 . S
C222 C41 1.445 1_556 S
C257 C40 1.461 . S
C272 C64 1.445 1_556 S
C307 C87 1.445 1_556 S
C322 C63 1.461 . S
C357 C110 1.445 1_556 S
C372 C86 1.461 . S
C407 C109 1.461 . S
C422 C133 1.445 1_556 S
C457 C108 1.434 . S
C472 C21 1.437 1_554 S
C507 C131 1.433 . S
C522 C44 1.436 1_554 S
C557 C67 1.437 1_554 S
C572 C16 1.434 . S
C607 C90 1.437 1_554 S
C622 C39 1.434 . S
C657 C113 1.437 1_554 S
C672 C62 1.434 . S
C707 C85 1.434 . S
C722 C136 1.437 1_554 S
C757 C19 1.418 . S
C772 C20 1.429 . S
C807 C42 1.418 . S
C822 C43 1.429 . S
C857 C65 1.418 . S
C872 C66 1.429 . S
C907 C88 1.419 . S
C922 C89 1.428 . S
C957 C112 1.429 . S
C972 C111 1.418 . S
C1007 C134 1.418 . S
C1022 C135 1.429 . S
