# Generated by pormake.
# Topology wne, (6)-cn, num edge types: 1
# Building blocks:
#     Node 0, Type 0, BuildingBlock: BETDIP_clean_sbu_0, # of connection points: 6
#     Node 1, Type 0, BuildingBlock: BETDIP_clean_sbu_0, # of connection points: 6
#     Node 2, Type 0, BuildingBlock: BETDIP_clean_sbu_0, # of connection points: 6
#     Node 3, Type 0, BuildingBlock: BETDIP_clean_sbu_0, # of connection points: 6
#     Node 4, Type 0, BuildingBlock: BETDIP_clean_sbu_0, # of connection points: 6
#     Node 5, Type 0, BuildingBlock: BETDIP_clean_sbu_0, # of connection points: 6
#     Node 6, Type 0, BuildingBlock: BETDIP_clean_sbu_0, # of connection points: 6
#     Node 7, Type 0, BuildingBlock: BETDIP_clean_sbu_0, # of connection points: 6
#     Node 8, Type 0, BuildingBlock: BETDIP_clean_sbu_0, # of connection points: 6
#     Node 9, Type 0, BuildingBlock: BETDIP_clean_sbu_0, # of connection points: 6
#     Node 10, Type 0, BuildingBlock: BETDIP_clean_sbu_0, # of connection points: 6
#     Node 11, Type 0, BuildingBlock: BETDIP_clean_sbu_0, # of connection points: 6
#     Node 12, Type 0, BuildingBlock: BETDIP_clean_sbu_0, # of connection points: 6
#     Node 13, Type 0, BuildingBlock: BETDIP_clean_sbu_0, # of connection points: 6
#     Node 14, Type 0, BuildingBlock: BETDIP_clean_sbu_0, # of connection points: 6
#     Node 15, Type 0, BuildingBlock: BETDIP_clean_sbu_0, # of connection points: 6
#     Node 16, Type 0, BuildingBlock: BETDIP_clean_sbu_0, # of connection points: 6
#     Node 17, Type 0, BuildingBlock: BETDIP_clean_sbu_0, # of connection points: 6
#     Node 18, Type 0, BuildingBlock: BETDIP_clean_sbu_0, # of connection points: 6
#     Node 19, Type 0, BuildingBlock: BETDIP_clean_sbu_0, # of connection points: 6
#     Node 20, Type 0, BuildingBlock: BETDIP_clean_sbu_0, # of connection points: 6
#     Node 21, Type 0, BuildingBlock: BETDIP_clean_sbu_0, # of connection points: 6
#     Node 22, Type 0, BuildingBlock: BETDIP_clean_sbu_0, # of connection points: 6
#     Node 23, Type 0, BuildingBlock: BETDIP_clean_sbu_0, # of connection points: 6
#     Node 24, Type 0, BuildingBlock: BETDIP_clean_sbu_0, # of connection points: 6
#     Node 25, Type 0, BuildingBlock: BETDIP_clean_sbu_0, # of connection points: 6
#     Node 26, Type 0, BuildingBlock: BETDIP_clean_sbu_0, # of connection points: 6
#     Node 27, Type 0, BuildingBlock: BETDIP_clean_sbu_0, # of connection points: 6
#     Node 28, Type 0, BuildingBlock: BETDIP_clean_sbu_0, # of connection points: 6
#     Node 29, Type 0, BuildingBlock: BETDIP_clean_sbu_0, # of connection points: 6
#     Node 30, Type 0, BuildingBlock: BETDIP_clean_sbu_0, # of connection points: 6
#     Node 31, Type 0, BuildingBlock: BETDIP_clean_sbu_0, # of connection points: 6
#     Node 32, Type 0, BuildingBlock: BETDIP_clean_sbu_0, # of connection points: 6
#     Node 33, Type 0, BuildingBlock: BETDIP_clean_sbu_0, # of connection points: 6
#     Node 34, Type 0, BuildingBlock: BETDIP_clean_sbu_0, # of connection points: 6
#     Node 35, Type 0, BuildingBlock: BETDIP_clean_sbu_0, # of connection points: 6
#     Edge 36, Type (0, 0), BuildingBlock: AJUNOK_clean_linker_0, # of connection points: 2
#     Edge 37, Type (0, 0), BuildingBlock: AJUNOK_clean_linker_0, # of connection points: 2
#     Edge 38, Type (0, 0), BuildingBlock: AJUNOK_clean_linker_0, # of connection points: 2
#     Edge 39, Type (0, 0), BuildingBlock: AJUNOK_clean_linker_0, # of connection points: 2
#     Edge 40, Type (0, 0), BuildingBlock: AJUNOK_clean_linker_0, # of connection points: 2
#     Edge 41, Type (0, 0), BuildingBlock: AJUNOK_clean_linker_0, # of connection points: 2
#     Edge 42, Type (0, 0), BuildingBlock: AJUNOK_clean_linker_0, # of connection points: 2
#     Edge 43, Type (0, 0), BuildingBlock: AJUNOK_clean_linker_0, # of connection points: 2
#     Edge 44, Type (0, 0), BuildingBlock: AJUNOK_clean_linker_0, # of connection points: 2
#     Edge 45, Type (0, 0), BuildingBlock: AJUNOK_clean_linker_0, # of connection points: 2
#     Edge 46, Type (0, 0), BuildingBlock: AJUNOK_clean_linker_0, # of connection points: 2
#     Edge 47, Type (0, 0), BuildingBlock: AJUNOK_clean_linker_0, # of connection points: 2
#     Edge 48, Type (0, 0), BuildingBlock: AJUNOK_clean_linker_0, # of connection points: 2
#     Edge 49, Type (0, 0), BuildingBlock: AJUNOK_clean_linker_0, # of connection points: 2
#     Edge 50, Type (0, 0), BuildingBlock: AJUNOK_clean_linker_0, # of connection points: 2
#     Edge 51, Type (0, 0), BuildingBlock: AJUNOK_clean_linker_0, # of connection points: 2
#     Edge 52, Type (0, 0), BuildingBlock: AJUNOK_clean_linker_0, # of connection points: 2
#     Edge 53, Type (0, 0), BuildingBlock: AJUNOK_clean_linker_0, # of connection points: 2
#     Edge 54, Type (0, 0), BuildingBlock: AJUNOK_clean_linker_0, # of connection points: 2
#     Edge 55, Type (0, 0), BuildingBlock: AJUNOK_clean_linker_0, # of connection points: 2
#     Edge 56, Type (0, 0), BuildingBlock: AJUNOK_clean_linker_0, # of connection points: 2
#     Edge 57, Type (0, 0), BuildingBlock: AJUNOK_clean_linker_0, # of connection points: 2
#     Edge 58, Type (0, 0), BuildingBlock: AJUNOK_clean_linker_0, # of connection points: 2
#     Edge 59, Type (0, 0), BuildingBlock: AJUNOK_clean_linker_0, # of connection points: 2
#     Edge 60, Type (0, 0), BuildingBlock: AJUNOK_clean_linker_0, # of connection points: 2
#     Edge 61, Type (0, 0), BuildingBlock: AJUNOK_clean_linker_0, # of connection points: 2
#     Edge 62, Type (0, 0), BuildingBlock: AJUNOK_clean_linker_0, # of connection points: 2
#     Edge 63, Type (0, 0), BuildingBlock: AJUNOK_clean_linker_0, # of connection points: 2
#     Edge 64, Type (0, 0), BuildingBlock: AJUNOK_clean_linker_0, # of connection points: 2
#     Edge 65, Type (0, 0), BuildingBlock: AJUNOK_clean_linker_0, # of connection points: 2
#     Edge 66, Type (0, 0), BuildingBlock: AJUNOK_clean_linker_0, # of connection points: 2
#     Edge 67, Type (0, 0), BuildingBlock: AJUNOK_clean_linker_0, # of connection points: 2
#     Edge 68, Type (0, 0), BuildingBlock: AJUNOK_clean_linker_0, # of connection points: 2
#     Edge 69, Type (0, 0), BuildingBlock: AJUNOK_clean_linker_0, # of connection points: 2
#     Edge 70, Type (0, 0), BuildingBlock: AJUNOK_clean_linker_0, # of connection points: 2
#     Edge 71, Type (0, 0), BuildingBlock: AJUNOK_clean_linker_0, # of connection points: 2
#     Edge 72, Type (0, 0), BuildingBlock: AJUNOK_clean_linker_0, # of connection points: 2
#     Edge 73, Type (0, 0), BuildingBlock: AJUNOK_clean_linker_0, # of connection points: 2
#     Edge 74, Type (0, 0), BuildingBlock: AJUNOK_clean_linker_0, # of connection points: 2
#     Edge 75, Type (0, 0), BuildingBlock: AJUNOK_clean_linker_0, # of connection points: 2
#     Edge 76, Type (0, 0), BuildingBlock: AJUNOK_clean_linker_0, # of connection points: 2
#     Edge 77, Type (0, 0), BuildingBlock: AJUNOK_clean_linker_0, # of connection points: 2
#     Edge 78, Type (0, 0), BuildingBlock: AJUNOK_clean_linker_0, # of connection points: 2
#     Edge 79, Type (0, 0), BuildingBlock: AJUNOK_clean_linker_0, # of connection points: 2
#     Edge 80, Type (0, 0), BuildingBlock: AJUNOK_clean_linker_0, # of connection points: 2
#     Edge 81, Type (0, 0), BuildingBlock: AJUNOK_clean_linker_0, # of connection points: 2
#     Edge 82, Type (0, 0), BuildingBlock: AJUNOK_clean_linker_0, # of connection points: 2
#     Edge 83, Type (0, 0), BuildingBlock: AJUNOK_clean_linker_0, # of connection points: 2
#     Edge 84, Type (0, 0), BuildingBlock: AJUNOK_clean_linker_0, # of connection points: 2
#     Edge 85, Type (0, 0), BuildingBlock: AJUNOK_clean_linker_0, # of connection points: 2
#     Edge 86, Type (0, 0), BuildingBlock: AJUNOK_clean_linker_0, # of connection points: 2
#     Edge 87, Type (0, 0), BuildingBlock: AJUNOK_clean_linker_0, # of connection points: 2
#     Edge 88, Type (0, 0), BuildingBlock: AJUNOK_clean_linker_0, # of connection points: 2
#     Edge 89, Type (0, 0), BuildingBlock: AJUNOK_clean_linker_0, # of connection points: 2
#     Edge 90, Type (0, 0), BuildingBlock: AJUNOK_clean_linker_0, # of connection points: 2
#     Edge 91, Type (0, 0), BuildingBlock: AJUNOK_clean_linker_0, # of connection points: 2
#     Edge 92, Type (0, 0), BuildingBlock: AJUNOK_clean_linker_0, # of connection points: 2
#     Edge 93, Type (0, 0), BuildingBlock: AJUNOK_clean_linker_0, # of connection points: 2
#     Edge 94, Type (0, 0), BuildingBlock: AJUNOK_clean_linker_0, # of connection points: 2
#     Edge 95, Type (0, 0), BuildingBlock: AJUNOK_clean_linker_0, # of connection points: 2
#     Edge 96, Type (0, 0), BuildingBlock: AJUNOK_clean_linker_0, # of connection points: 2
#     Edge 97, Type (0, 0), BuildingBlock: AJUNOK_clean_linker_0, # of connection points: 2
#     Edge 98, Type (0, 0), BuildingBlock: AJUNOK_clean_linker_0, # of connection points: 2
#     Edge 99, Type (0, 0), BuildingBlock: AJUNOK_clean_linker_0, # of connection points: 2
#     Edge 100, Type (0, 0), BuildingBlock: AJUNOK_clean_linker_0, # of connection points: 2
#     Edge 101, Type (0, 0), BuildingBlock: AJUNOK_clean_linker_0, # of connection points: 2
#     Edge 102, Type (0, 0), BuildingBlock: AJUNOK_clean_linker_0, # of connection points: 2
#     Edge 103, Type (0, 0), BuildingBlock: AJUNOK_clean_linker_0, # of connection points: 2
#     Edge 104, Type (0, 0), BuildingBlock: AJUNOK_clean_linker_0, # of connection points: 2
#     Edge 105, Type (0, 0), BuildingBlock: AJUNOK_clean_linker_0, # of connection points: 2
#     Edge 106, Type (0, 0), BuildingBlock: AJUNOK_clean_linker_0, # of connection points: 2
#     Edge 107, Type (0, 0), BuildingBlock: AJUNOK_clean_linker_0, # of connection points: 2
#     Edge 108, Type (0, 0), BuildingBlock: AJUNOK_clean_linker_0, # of connection points: 2
#     Edge 109, Type (0, 0), BuildingBlock: AJUNOK_clean_linker_0, # of connection points: 2
#     Edge 110, Type (0, 0), BuildingBlock: AJUNOK_clean_linker_0, # of connection points: 2
#     Edge 111, Type (0, 0), BuildingBlock: AJUNOK_clean_linker_0, # of connection points: 2
#     Edge 112, Type (0, 0), BuildingBlock: AJUNOK_clean_linker_0, # of connection points: 2
#     Edge 113, Type (0, 0), BuildingBlock: AJUNOK_clean_linker_0, # of connection points: 2
#     Edge 114, Type (0, 0), BuildingBlock: AJUNOK_clean_linker_0, # of connection points: 2
#     Edge 115, Type (0, 0), BuildingBlock: AJUNOK_clean_linker_0, # of connection points: 2
#     Edge 116, Type (0, 0), BuildingBlock: AJUNOK_clean_linker_0, # of connection points: 2
#     Edge 117, Type (0, 0), BuildingBlock: AJUNOK_clean_linker_0, # of connection points: 2
#     Edge 118, Type (0, 0), BuildingBlock: AJUNOK_clean_linker_0, # of connection points: 2
#     Edge 119, Type (0, 0), BuildingBlock: AJUNOK_clean_linker_0, # of connection points: 2
#     Edge 120, Type (0, 0), BuildingBlock: AJUNOK_clean_linker_0, # of connection points: 2
#     Edge 121, Type (0, 0), BuildingBlock: AJUNOK_clean_linker_0, # of connection points: 2
#     Edge 122, Type (0, 0), BuildingBlock: AJUNOK_clean_linker_0, # of connection points: 2
#     Edge 123, Type (0, 0), BuildingBlock: AJUNOK_clean_linker_0, # of connection points: 2
#     Edge 124, Type (0, 0), BuildingBlock: AJUNOK_clean_linker_0, # of connection points: 2
#     Edge 125, Type (0, 0), BuildingBlock: AJUNOK_clean_linker_0, # of connection points: 2
#     Edge 126, Type (0, 0), BuildingBlock: AJUNOK_clean_linker_0, # of connection points: 2
#     Edge 127, Type (0, 0), BuildingBlock: AJUNOK_clean_linker_0, # of connection points: 2
#     Edge 128, Type (0, 0), BuildingBlock: AJUNOK_clean_linker_0, # of connection points: 2
#     Edge 129, Type (0, 0), BuildingBlock: AJUNOK_clean_linker_0, # of connection points: 2
#     Edge 130, Type (0, 0), BuildingBlock: AJUNOK_clean_linker_0, # of connection points: 2
#     Edge 131, Type (0, 0), BuildingBlock: AJUNOK_clean_linker_0, # of connection points: 2
#     Edge 132, Type (0, 0), BuildingBlock: AJUNOK_clean_linker_0, # of connection points: 2
#     Edge 133, Type (0, 0), BuildingBlock: AJUNOK_clean_linker_0, # of connection points: 2
#     Edge 134, Type (0, 0), BuildingBlock: AJUNOK_clean_linker_0, # of connection points: 2
#     Edge 135, Type (0, 0), BuildingBlock: AJUNOK_clean_linker_0, # of connection points: 2
#     Edge 136, Type (0, 0), BuildingBlock: AJUNOK_clean_linker_0, # of connection points: 2
#     Edge 137, Type (0, 0), BuildingBlock: AJUNOK_clean_linker_0, # of connection points: 2
#     Edge 138, Type (0, 0), BuildingBlock: AJUNOK_clean_linker_0, # of connection points: 2
#     Edge 139, Type (0, 0), BuildingBlock: AJUNOK_clean_linker_0, # of connection points: 2
#     Edge 140, Type (0, 0), BuildingBlock: AJUNOK_clean_linker_0, # of connection points: 2
#     Edge 141, Type (0, 0), BuildingBlock: AJUNOK_clean_linker_0, # of connection points: 2
#     Edge 142, Type (0, 0), BuildingBlock: AJUNOK_clean_linker_0, # of connection points: 2
#     Edge 143, Type (0, 0), BuildingBlock: AJUNOK_clean_linker_0, # of connection points: 2
# Relax obj value: 0.522
# Max RMSD: 0.298
# Mean RMSD: 0.298
data_MOF--net-wne--node1-BETDIP_clean_sbu_0--edge1-AJUNOK_clean_linker_0
_symmetry_space_group_name_H-M    P1
_symmetry_Int_Tables_number       1
_symmetry_cell_setting            triclinic
loop_
_symmetry_equiv_pos_as_xyz
'x, y, z'
_cell_length_a     68.070568
_cell_length_b     68.021619
_cell_length_c     22.899321
_cell_angle_alpha  90.184351
_cell_angle_beta   89.900045
_cell_angle_gamma 120.02091
loop_
_atom_site_label
_atom_site_type_symbol
_atom_site_fract_x
_atom_site_fract_y
_atom_site_fract_z
_atom_type_partial_charge
Tb0 Tb 0.31465 0.21555 0.09523 0.0
Tb1 Tb 0.34522 0.25884 0.12142 0.0
C2 C 0.29263 0.17341 0.06434 0.0
C3 C 0.29194 0.15112 0.04889 0.0
C4 C 0.27391 0.13475 1.01459 0.0
C5 C 0.27108 0.11293 1.00352 0.0
C6 C 0.28613 0.1062 0.02632 0.0
C7 C 0.30469 0.1229 0.05922 0.0
C8 C 0.30744 0.14481 0.07057 0.0
C9 C 0.29749 0.23282 0.18153 0.0
C10 C 0.36101 0.22279 0.14963 0.0
C11 C 0.36908 0.29434 0.17943 0.0
C12 C 0.36121 0.30853 0.20643 0.0
C13 C 0.33777 0.30021 0.20898 0.0
C14 C 0.32945 0.31493 0.2173 0.0
C15 C 0.34456 0.33818 0.22247 0.0
C16 C 0.36805 0.34619 0.22642 0.0
C17 C 0.37636 0.33138 0.21805 0.0
C18 C 0.35592 0.25323 1.01245 0.0
C19 C 0.30105 0.25099 0.05337 0.0
O20 O 0.30114 0.19048 0.0277 0.0
O21 O 0.29641 0.18071 0.11833 0.0
O22 O 0.31746 0.23531 0.17595 0.0
O23 O 0.28648 0.21889 0.13923 0.0
O24 O 0.33927 0.20818 0.14063 0.0
O25 O 0.36791 0.24454 0.14057 0.0
O26 O 0.36048 0.27402 0.20125 0.0
O27 O 0.3679 0.29391 0.12264 0.0
O28 O 0.34912 0.23819 0.05399 0.0
O29 O 0.35314 0.26965 0.03117 0.0
O30 O 0.31654 0.26382 0.09284 0.0
O31 O 0.30042 0.23183 0.03758 0.0
H32 H 0.26155 0.13869 0.99684 0.0
H33 H 0.25692 0.10126 0.97663 0.0
H34 H 0.31686 0.11884 0.07765 0.0
H35 H 0.32158 0.15673 0.09687 0.0
H36 H 0.32601 0.28268 0.19897 0.0
H37 H 0.31139 0.30845 0.21578 0.0
H38 H 0.38011 0.3642 0.22977 0.0
H39 H 0.39451 0.33807 0.21555 0.0
Tb40 Tb 0.88844 0.12113 0.10066 0.0
Tb41 Tb 0.84406 0.1072 0.1238 0.0
C42 C 0.93112 0.14202 0.07474 0.0
C43 C 0.95363 0.16405 0.06207 0.0
C44 C 0.96124 0.17107 1.00426 0.0
C45 C 0.98328 0.1896 0.99184 0.0
C46 C 0.99911 0.20223 0.03649 0.0
C47 C 0.99156 0.19509 0.09437 0.0
C48 C 0.96946 0.17652 0.10681 0.0
C49 C 0.87 0.08535 0.18327 0.0
C50 C 0.87938 0.15938 0.15476 0.0
C51 C 0.8076 0.09327 0.17911 0.0
C52 C 0.79231 0.0699 0.1972 0.0
C53 C 0.76911 0.06196 0.2014 0.0
C54 C 0.75386 1.03886 0.19404 0.0
C55 C 0.76183 1.02362 0.1824 0.0
C56 C 0.78496 1.0312 0.18894 0.0
C57 C 0.80013 0.05435 0.19455 0.0
C58 C 0.85112 0.12481 1.01592 0.0
C59 C 0.85393 0.07252 0.0538 0.0
O60 O 0.91461 0.13356 0.03622 0.0
O61 O 0.92292 0.13758 0.12789 0.0
O62 O 0.86732 0.10277 0.17838 0.0
O63 O 0.8851 0.08948 0.14325 0.0
O64 O 0.89459 0.15311 0.14446 0.0
O65 O 0.85769 0.14384 0.1472 0.0
O66 O 0.82747 0.10324 0.20408 0.0
O67 O 0.80921 0.09587 0.12263 0.0
O68 O 0.86556 0.13261 0.05907 0.0
O69 O 0.83443 0.1054 0.03259 0.0
O70 O 0.8402 0.07437 0.0919 0.0
O71 O 0.87315 0.09137 0.04041 0.0
H72 H 0.95028 0.1618 0.96799 0.0
H73 H 0.9881 0.19359 0.9465 0.0
H74 H 1.00279 0.20394 0.13055 0.0
H75 H 0.96493 0.17165 0.15194 0.0
H76 H 0.76278 0.07374 0.20321 0.0
H77 H 0.73606 1.0336 0.18959 0.0
H78 H 0.79152 1.01985 0.18078 0.0
H79 H 0.81793 0.0603 0.18891 0.0
Tb80 Tb 0.98335 0.79017 0.1056 0.0
Tb81 Tb 0.99763 0.75634 0.11742 0.0
C82 C 0.96248 0.81166 0.07792 0.0
C83 C 0.94011 0.81167 0.06726 0.0
C84 C 0.92608 0.8019 0.01762 0.0
C85 C 0.90691 0.80464 1.00651 0.0
C86 C 0.9011 0.81772 0.04371 0.0
C87 C 0.91492 0.82702 0.09379 0.0
C88 C 0.93382 0.82407 0.10515 0.0
C89 C 1.01892 0.80513 0.19171 0.0
C90 C 0.9459 0.74218 0.15795 0.0
C91 C 1.0104 0.73199 0.16753 0.0
C92 C 1.03317 0.73769 0.18558 0.0
C93 C 1.05 0.76062 0.18942 0.0
C94 C 0.0728 0.76683 0.18627 0.0
C95 C 0.0789 0.75025 0.17783 0.0
C96 C 1.06211 0.72716 0.18191 0.0
C97 C 1.03927 0.72091 0.1855 0.0
C98 C 0.97758 0.74897 1.01416 0.0
C99 C 1.03187 0.80411 0.05435 0.0
O100 O 0.97068 0.80314 0.03965 0.0
O101 O 0.96746 0.8088 0.13132 0.0
O102 O 1.00785 0.78712 0.16078 0.0
O103 O 1.00784 0.81523 0.17514 0.0
O104 O 0.95258 0.76394 0.15118 0.0
O105 O 0.96086 0.73537 0.14643 0.0
O106 O 1.00166 0.74265 0.19538 0.0
O107 O 1.00809 0.73228 0.11089 0.0
O108 O 0.97154 0.7556 0.06149 0.0
O109 O 0.99653 0.74952 0.02533 0.0
O110 O 1.02976 0.78607 0.08347 0.0
O111 O 1.01392 0.80694 0.04921 0.0
H112 H 0.93013 0.79241 0.98657 0.0
H113 H 0.897 0.79706 0.96745 0.0
H114 H 0.91118 0.83676 0.12472 0.0
H115 H 0.94397 0.83213 0.1436 0.0
H116 H 1.04542 0.7737 0.18982 0.0
H117 H 0.08557 0.78452 0.18413 0.0
H118 H 0.06628 0.71392 0.17476 0.0
H119 H 1.02643 0.70313 0.18211 0.0
Tb120 Tb 0.23608 0.29376 0.42756 0.0
Tb121 Tb 0.28444 0.32659 0.42257 0.0
C122 C 0.19363 0.27125 0.45296 0.0
C123 C 0.17105 0.27017 0.46697 0.0
C124 C 0.16466 0.27208 0.52454 0.0
C125 C 0.14259 0.26823 0.53781 0.0
C126 C 0.12566 0.26212 0.4943 0.0
C127 C 0.13201 0.25999 0.43684 0.0
C128 C 0.15412 0.26394 0.42354 0.0
C129 C 0.25665 0.27872 0.34245 0.0
C130 C 0.24904 0.34291 0.37627 0.0
C131 C 0.32465 0.34966 0.38974 0.0
C132 C 0.34194 0.34272 0.3888 0.0
C133 C 0.33798 0.32279 0.35982 0.0
C134 C 0.35254 0.31411 0.36801 0.0
C135 C 0.36984 0.32395 0.40948 0.0
C136 C 0.37435 0.34438 0.4367 0.0
C137 C 0.36077 0.35388 0.42564 0.0
C138 C 0.26938 0.33358 0.52347 0.0
C139 C 0.26887 0.27796 0.48114 0.0
O140 O 0.21003 0.27836 0.49188 0.0
O141 O 0.20184 0.27655 0.39987 0.0
O142 O 0.26435 0.29636 0.37523 0.0
O143 O 0.2352 0.26979 0.35502 0.0
O144 O 0.23292 0.32165 0.38617 0.0
O145 O 0.27067 0.34843 0.38574 0.0
O146 O 0.30769 0.33943 0.35307 0.0
O147 O 0.31791 0.3511 0.44216 0.0
O148 O 0.25831 0.32779 0.47388 0.0
O149 O 0.28699 0.33124 0.51627 0.0
O150 O 0.28547 0.2962 0.45483 0.0
O151 O 0.24824 0.27555 0.48421 0.0
H152 H 0.17663 0.27612 0.55993 0.0
H153 H 0.13865 0.26958 0.58294 0.0
H154 H 0.11985 0.25537 0.40168 0.0
H155 H 0.15781 0.26164 0.37885 0.0
H156 H 0.32318 0.31347 0.33259 0.0
H157 H 0.34989 0.29936 0.34369 0.0
H158 H 0.38825 0.35287 0.46734 0.0
H159 H 0.36414 0.36919 0.44873 0.0
Tb160 Tb 0.81163 0.96299 0.42576 0.0
Tb161 Tb 0.7809 0.9775 0.40862 0.0
C162 C 0.83367 0.9422 0.44773 0.0
C163 C 0.83487 0.92073 0.46015 0.0
C164 C 0.81634 0.89987 0.47882 0.0
C165 C 0.81887 0.88063 0.49073 0.0
C166 C 0.84007 0.88141 0.48497 0.0
C167 C 0.85854 0.9026 0.46754 0.0
C168 C 0.85594 0.92158 0.45504 0.0
C169 C 0.82668 0.99801 0.34151 0.0
C170 C 0.76346 0.92539 0.37318 0.0
C171 C 0.76043 0.99708 0.37436 0.0
C172 C 0.76905 1.0209 0.39068 0.0
C173 C 0.76897 1.03644 0.35119 0.0
C174 C 0.78061 0.05965 0.36455 0.0
C175 C 0.79352 0.06785 0.41661 0.0
C176 C 0.79433 0.05202 0.45411 0.0
C177 C 0.78144 1.02896 0.44269 0.0
C178 C 0.77326 0.96016 0.5166 0.0
C179 C 0.82715 1.01108 0.47546 0.0
O180 O 0.82605 0.95059 0.48762 0.0
O181 O 0.82876 0.94599 0.39516 0.0
O182 O 0.80679 0.98068 0.34971 0.0
O183 O 0.83886 0.99411 0.37812 0.0
O184 O 0.7844 0.93084 0.38756 0.0
O185 O 0.758 0.9417 0.37596 0.0
O186 O 0.7742 0.99409 0.34074 0.0
O187 O 0.753 0.98264 0.41747 0.0
O188 O 0.77812 0.95204 0.47095 0.0
O189 O 0.77745 0.98027 0.50243 0.0
O190 O 0.81122 1.00944 0.43943 0.0
O191 O 0.82758 0.99221 0.487 0.0
H192 H 0.79986 0.89839 0.48435 0.0
H193 H 0.80402 0.865 0.50413 0.0
H194 H 0.87542 0.9049 0.4647 0.0
H195 H 0.87079 0.93729 0.44198 0.0
H196 H 0.7597 1.03058 0.31064 0.0
H197 H 0.77854 0.07082 0.33496 0.0
H198 H 0.80423 0.05723 0.49387 0.0
H199 H 0.78163 1.01746 0.47463 0.0
Tb200 Tb 0.14209 0.86923 0.43268 0.0
Tb201 Tb 0.12918 0.82509 0.41026 0.0
C202 C 0.16205 0.91195 0.45727 0.0
C203 C 0.18383 0.9346 0.46834 0.0
C204 C 0.20494 0.93665 0.48273 0.0
C205 C 0.22448 0.95826 0.49416 0.0
C206 C 0.2238 0.97883 0.49215 0.0
C207 C 0.20266 0.97656 0.47666 0.0
C208 C 0.18325 0.95506 0.4652 0.0
C209 C 0.10655 0.85018 0.34988 0.0
C210 C 0.18118 0.86072 0.38055 0.0
C211 C 0.11763 0.78915 0.35401 0.0
C212 C 0.09545 0.77384 0.32897 0.0
C213 C 0.07992 0.78158 0.32397 0.0
C214 C 1.05676 0.76627 0.32615 0.0
C215 C 1.04917 0.74326 0.33508 0.0
C216 C 0.06456 0.73525 0.32875 0.0
C217 C 0.08778 0.7506 0.32652 0.0
C218 C 0.14717 0.83319 0.51815 0.0
C219 C 0.09341 0.83383 0.47873 0.0
O220 O 0.15464 0.89567 0.49626 0.0
O221 O 0.15747 0.90351 0.40434 0.0
O222 O 0.12426 0.84797 0.35474 0.0
O223 O 0.10995 0.86485 0.39054 0.0
O224 O 0.17463 0.8758 0.39041 0.0
O225 O 0.16581 0.83904 0.38823 0.0
O226 O 0.12846 0.8093 0.3307 0.0
O227 O 0.11743 0.79016 0.41086 0.0
O228 O 0.15434 0.84725 0.47448 0.0
O229 O 0.1282 0.81579 0.50174 0.0
O230 O 0.09581 0.82028 0.44088 0.0
O231 O 0.112 0.85338 0.49224 0.0
H232 H 0.2064 0.92154 0.48523 0.0
H233 H 0.24025 0.95875 0.50409 0.0
H234 H 0.20087 0.99149 0.47458 0.0
H235 H 0.16747 0.95444 0.45431 0.0
H236 H 0.08566 0.79947 0.32595 0.0
H237 H 1.0451 0.77264 0.32839 0.0
H238 H 1.05903 0.71745 0.33528 0.0
H239 H 0.09959 0.74437 0.33045 0.0
Tb240 Tb 0.78059 0.82445 0.90476 0.0
Tb241 Tb 0.81143 0.86937 0.92855 0.0
C242 C 0.75971 0.78617 0.85757 0.0
C243 C 0.7621 0.76673 0.87523 0.0
C244 C 0.77347 0.75904 0.8386 0.0
C245 C 0.78204 0.74571 0.86098 0.0
C246 C 0.77996 0.74062 0.92076 0.0
C247 C 0.76694 0.74681 0.95596 0.0
C248 C 0.7581 0.75963 0.93355 0.0
C249 C 0.77027 0.83178 1.01271 0.0
C250 C 0.82467 0.83512 0.98082 0.0
C251 C 0.83283 0.91211 0.95375 0.0
C252 C 0.83218 0.93407 0.96627 0.0
C253 C 0.83092 0.94107 0.02384 0.0
C254 C 0.83359 0.96285 0.03613 0.0
C255 C 0.83803 0.97901 0.99164 0.0
C256 C 0.83878 0.97177 0.93394 0.0
C257 C 0.83605 0.94998 0.92167 0.0
C258 C 0.82732 0.84982 0.84486 0.0
C259 C 0.76433 0.86005 0.87172 0.0
O260 O 0.77819 0.80295 0.83585 0.0
O261 O 0.75029 0.79328 0.89545 0.0
O262 O 0.77734 0.84627 0.96982 0.0
O263 O 0.77247 0.81475 0.99575 0.0
O264 O 0.80831 0.82044 0.94562 0.0
O265 O 0.82609 0.85508 0.98998 0.0
O266 O 0.82516 0.89572 0.99246 0.0
O267 O 0.8293 0.90378 0.90063 0.0
O268 O 0.8077 0.84819 0.85034 0.0
O269 O 0.83894 0.86463 0.88501 0.0
O270 O 0.785 0.87533 0.88882 0.0
O271 O 0.75885 0.83833 0.87228 0.0
H272 H 0.77695 0.76456 0.79378 0.0
H273 H 0.79109 0.74026 0.83232 0.0
H274 H 0.76365 0.74191 1.00144 0.0
H275 H 0.74928 0.76504 0.96314 0.0
H276 H 0.82844 0.92987 0.06008 0.0
H277 H 0.83287 0.96729 0.08122 0.0
H278 H 0.8415 0.98297 0.89759 0.0
H279 H 0.83749 0.94582 0.87678 0.0
Tb280 Tb 0.28432 0.97781 0.91519 0.0
Tb281 Tb 0.23572 0.96262 0.92947 0.0
C282 C 0.32179 0.99165 0.86532 0.0
C283 C 0.33743 1.0149 0.84671 0.0
C284 C 0.32926 1.03009 0.84631 0.0
C285 C 0.34406 0.05339 0.85011 0.0
C286 C 0.36741 0.06174 0.85352 0.0
C287 C 0.37573 0.04657 0.84633 0.0
C288 C 0.36075 1.02317 0.84359 0.0
C289 C 0.27204 0.95756 0.019 0.0
C290 C 0.2703 1.01209 0.97536 0.0
C291 C 0.19353 0.94225 0.9591 0.0
C292 C 0.17068 0.92069 0.97147 0.0
C293 C 0.16807 0.90129 1.00106 0.0
C294 C 0.14612 0.88208 1.01228 0.0
C295 C 0.12573 0.88142 0.99484 0.0
C296 C 0.1286 0.90096 0.96546 0.0
C297 C 0.15039 0.91992 0.95394 0.0
C298 C 0.25515 0.99776 0.84294 0.0
C299 C 0.24704 0.92584 0.87593 0.0
O300 O 0.30234 0.98143 0.83763 0.0
O301 O 0.31914 0.98967 0.922 0.0
O302 O 0.25923 0.95169 0.97214 0.0
O303 O 0.29055 0.97631 1.0069 0.0
O304 O 0.28605 1.01006 0.9452 0.0
O305 O 0.25007 0.99367 0.98448 0.0
O306 O 0.21047 0.95023 0.99657 0.0
O307 O 0.20104 0.94652 0.90529 0.0
O308 O 0.26281 0.98724 0.87326 0.0
O309 O 0.23407 0.98624 0.85996 0.0
O310 O 0.23147 0.93178 0.88442 0.0
O311 O 0.26878 0.94126 0.8857 0.0
H312 H 0.31129 1.02343 0.84904 0.0
H313 H 0.33727 0.06464 0.85638 0.0
H314 H 0.39371 0.05251 0.84998 0.0
H315 H 0.36736 1.01163 0.84455 0.0
H316 H 0.18299 0.90095 1.0159 0.0
H317 H 0.14519 0.86791 0.036 0.0
H318 H 0.11385 0.9016 0.95058 0.0
H319 H 0.15134 0.93432 0.93125 0.0
Tb320 Tb 0.12889 0.32564 0.91213 0.0
Tb321 Tb 0.1417 0.29475 0.93036 0.0
C322 C 0.11719 0.35079 0.86112 0.0
C323 C 0.09507 0.34339 0.83542 0.0
C324 C 0.0795 0.32007 0.83434 0.0
C325 C 1.05681 0.31219 0.82287 0.0
C326 C 1.0493 0.32757 0.81333 0.0
C327 C 0.06521 0.35097 0.80964 0.0
C328 C 0.08812 0.35888 0.82077 0.0
C329 C 0.14631 0.33511 0.0198 0.0
C330 C 0.09292 0.28036 0.97697 0.0
C331 C 0.1621 0.27239 0.95396 0.0
C332 C 0.18415 0.27212 0.9667 0.0
C333 C 0.18941 0.26855 0.02396 0.0
C334 C 0.20807 0.2653 0.03593 0.0
C335 C 0.22264 0.26546 0.99133 0.0
C336 C 0.21727 0.26882 0.93382 0.0
C337 C 0.19851 0.27205 0.9218 0.0
C338 C 0.10589 0.27818 0.84804 0.0
C339 C 0.18088 0.34208 0.88005 0.0
O340 O 0.12876 0.34262 0.83588 0.0
O341 O 0.11656 0.3483 0.91757 0.0
O342 O 0.15404 0.32866 0.9761 0.0
O343 O 0.12685 0.33234 1.00398 0.0
O344 O 0.09548 0.29672 0.94085 0.0
O345 O 0.11149 0.27936 0.98968 0.0
O346 O 0.15341 0.27993 0.9933 0.0
O347 O 0.15804 0.27684 0.90121 0.0
O348 O 0.12335 0.29831 0.85346 0.0
O349 O 0.11008 0.26689 0.88678 0.0
O350 O 0.17387 0.32023 0.88632 0.0
O351 O 0.16579 0.34854 0.89122 0.0
H352 H 0.08469 0.30804 0.84633 0.0
H353 H 1.0449 0.2942 0.82398 0.0
H354 H 1.05969 0.36325 0.8033 0.0
H355 H 0.09999 0.37698 0.822 0.0
H356 H 0.17865 0.26765 0.05993 0.0
H357 H 0.2107 0.26207 0.08067 0.0
H358 H 0.2277 0.26908 0.89775 0.0
H359 H 0.19504 0.27414 0.87682 0.0
Tb360 Tb 0.84556 0.76039 0.62463 0.0
Tb361 Tb 0.88999 0.79092 0.59896 0.0
C362 C 0.8085 0.73967 0.67837 0.0
C363 C 0.79295 0.74837 0.68893 0.0
C364 C 0.80128 0.77188 0.68568 0.0
C365 C 0.78658 0.78029 0.67673 0.0
C366 C 0.76331 0.76518 0.67037 0.0
C367 C 0.75477 0.74183 0.68037 0.0
C368 C 0.76954 0.73347 0.68933 0.0
C369 C 0.85217 0.74961 0.51657 0.0
C370 C 0.85518 0.80397 0.5506 0.0
C371 C 0.93271 0.81322 0.57379 0.0
C372 C 0.95556 0.81448 0.56271 0.0
C373 C 0.9584 0.79536 0.55725 0.0
C374 C 0.9802 0.79773 0.54691 0.0
C375 C 1.00021 0.81932 0.54085 0.0
C376 C 0.99715 0.83832 0.54718 0.0
C377 C 0.97547 0.83594 0.55773 0.0
C378 C 0.87159 0.80817 0.68166 0.0
C379 C 0.88114 0.7438 0.65471 0.0
O380 O 0.82808 0.75056 0.70464 0.0
O381 O 0.8108 0.73619 0.62346 0.0
O382 O 0.8668 0.75631 0.55912 0.0
O383 O 0.83563 0.75247 0.53373 0.0
O384 O 0.84182 0.78902 0.59021 0.0
O385 O 0.87441 0.80439 0.53727 0.0
O386 O 0.91634 0.80404 0.53505 0.0
O387 O 0.92438 0.80967 0.62674 0.0
O388 O 0.86952 0.78834 0.67738 0.0
O389 O 0.88591 0.81915 0.6402 0.0
O390 O 0.89616 0.76512 0.6419 0.0
O391 O 0.85927 0.73752 0.64977 0.0
H392 H 0.81926 0.78362 0.68479 0.0
H393 H 0.79354 0.7983 0.6695 0.0
H394 H 0.73686 0.72973 0.67504 0.0
H395 H 0.76278 0.71529 0.69129 0.0
H396 H 0.94377 0.77851 0.56103 0.0
H397 H 0.98128 0.78242 0.54438 0.0
H398 H 1.01158 0.85528 0.54284 0.0
H399 H 0.97427 0.85118 0.5617 0.0
Tb400 Tb 0.34586 0.10778 0.62723 0.0
Tb401 Tb 0.31484 0.12035 0.60148 0.0
C402 C 0.36981 0.09543 0.68231 0.0
C403 C 0.36358 0.07254 0.70126 0.0
C404 C 0.34055 0.0563 0.70791 0.0
C405 C 0.3334 1.03324 0.70496 0.0
C406 C 0.3491 1.02631 0.69236 0.0
C407 C 0.37243 1.04241 0.6939 0.0
C408 C 0.37965 0.0655 0.69818 0.0
C409 C 0.35673 0.12491 0.51856 0.0
C410 C 0.30193 0.0717 0.55737 0.0
C411 C 0.2922 0.14014 0.57461 0.0
C412 C 0.29099 0.16178 0.56428 0.0
C413 C 0.30687 0.18044 0.53075 0.0
C414 C 0.3039 0.19944 0.51937 0.0
C415 C 0.28484 0.20058 0.54057 0.0
C416 C 0.2691 0.18182 0.57402 0.0
C417 C 0.27216 0.16303 0.58571 0.0
C418 C 0.29775 0.08538 0.68559 0.0
C419 C 0.36146 0.15998 0.65502 0.0
O420 O 0.35896 0.10444 0.70736 0.0
O421 O 0.37032 0.09767 0.62583 0.0
O422 O 0.34941 0.13247 0.56078 0.0
O423 O 0.35394 0.10561 0.53644 0.0
O424 O 0.31747 0.07428 0.59653 0.0
O425 O 0.30116 0.0902 0.54235 0.0
O426 O 0.30194 0.13328 0.5365 0.0
O427 O 0.29497 0.13496 0.62777 0.0
O428 O 0.31775 0.10305 0.68121 0.0
O429 O 0.28685 0.08863 0.64385 0.0
O430 O 0.33986 0.15293 0.64411 0.0
O431 O 0.36818 0.14478 0.64954 0.0
H432 H 0.32789 0.06141 0.70924 0.0
H433 H 0.31551 1.02102 0.70597 0.0
H434 H 0.38493 1.03746 0.68401 0.0
H435 H 0.39748 0.07779 0.69241 0.0
H436 H 0.3215 0.1803 0.51265 0.0
H437 H 0.31638 0.21302 0.49248 0.0
H438 H 0.25426 0.18164 0.59177 0.0
H439 H 0.25937 0.1491 0.61123 0.0
Tb440 Tb 0.99814 0.26212 0.60706 0.0
Tb441 Tb 0.98327 0.21467 0.6034 0.0
C442 C 1.01528 0.30286 0.63303 0.0
C443 C 1.03985 0.31887 0.63582 0.0
C444 C 1.05034 0.33452 0.5907 0.0
C445 C 0.07382 0.34606 0.58534 0.0
C446 C 0.0874 0.34262 0.62583 0.0
C447 C 0.077 0.32817 0.67321 0.0
C448 C 1.05338 0.31603 0.67732 0.0
C449 C 0.9771 0.24706 0.50566 0.0
C450 C 1.03259 0.24722 0.55466 0.0
C451 C 0.96318 0.17218 0.5777 0.0
C452 C 0.94121 0.14996 0.56404 0.0
C453 C 0.93301 0.14321 0.50647 0.0
C454 C 0.91441 0.1212 0.49391 0.0
C455 C 0.90334 0.10468 0.5381 0.0
C456 C 0.91131 0.11166 0.59572 0.0
C457 C 0.92976 0.13365 0.60829 0.0
C458 C 1.01767 0.23508 0.6917 0.0
C459 C 0.94672 0.22705 0.65404 0.0
O460 O 1.0068 0.28677 0.67252 0.0
O461 O 1.00788 0.29514 0.58066 0.0
O462 O 0.97102 0.23607 0.55509 0.0
O463 O 0.99755 0.26373 0.51283 0.0
O464 O 1.03044 0.26318 0.58291 0.0
O465 O 1.01412 0.22693 0.54755 0.0
O466 O 0.97273 0.18856 0.53891 0.0
O467 O 0.96629 0.18045 0.6308 0.0
O468 O 1.0084 0.24298 0.65759 0.0
O469 O 1.00552 0.21369 0.67771 0.0
O470 O 0.952 0.21105 0.64437 0.0
O471 O 0.96271 0.24867 0.64426 0.0
H472 H 1.04034 0.33708 0.55804 0.0
H473 H 0.08133 0.35793 0.54958 0.0
H474 H 0.08712 0.32582 0.70582 0.0
H475 H 1.04555 0.3037 0.71163 0.0
H476 H 0.94134 0.15479 0.4706 0.0
H477 H 0.90912 0.11688 0.44889 0.0
H478 H 0.90325 0.10007 0.63171 0.0
H479 H 0.93544 0.13769 0.65313 0.0
Tb480 Tb 0.98086 0.54853 0.43799 0.0
Tb481 Tb 1.0119 0.593 0.46056 0.0
C482 C 0.95854 0.50586 0.41255 0.0
C483 C 0.95736 0.48307 0.40129 0.0
C484 C 0.9754 0.4808 0.37834 0.0
C485 C 0.97285 0.45903 0.36636 0.0
C486 C 0.95205 0.43846 0.37596 0.0
C487 C 0.93427 0.44097 0.40003 0.0
C488 C 0.93687 0.46264 0.41226 0.0
C489 C 0.96397 0.56684 0.52233 0.0
C490 C 1.02773 0.55657 0.49141 0.0
C491 C 1.03602 0.63106 0.5093 0.0
C492 C 1.03033 0.64891 0.51931 0.0
C493 C 1.00777 0.64356 0.51234 0.0
C494 C 1.00211 0.66044 0.50843 0.0
C495 C 1.01927 0.68296 0.50295 0.0
C496 C 1.04184 0.68872 0.51549 0.0
C497 C 1.04732 0.67167 0.52429 0.0
C498 C 1.02141 0.58546 0.35211 0.0
C499 C 0.96667 0.58292 0.39282 0.0
O500 O 0.96757 0.52225 0.37386 0.0
O501 O 0.96211 0.51414 0.46561 0.0
O502 O 0.98425 0.57 0.51604 0.0
O503 O 0.95273 0.55133 0.48338 0.0
O504 O 1.00625 0.54173 0.48025 0.0
O505 O 1.03421 0.57849 0.48578 0.0
O506 O 1.02378 0.61223 0.53788 0.0
O507 O 1.03765 0.62712 0.45442 0.0
O508 O 1.01523 0.57124 0.3956 0.0
O509 O 1.01791 0.6017 0.36852 0.0
O510 O 0.98266 0.5966 0.4301 0.0
O511 O 0.96594 0.56358 0.37875 0.0
H512 H 0.99154 0.49587 0.36951 0.0
H513 H 0.98744 0.45842 0.34987 0.0
H514 H 0.91793 0.42608 0.40829 0.0
H515 H 0.92248 0.46342 0.42977 0.0
H516 H 0.99478 0.62643 0.50353 0.0
H517 H 0.98472 0.65577 0.50008 0.0
H518 H 1.05558 0.7061 0.51173 0.0
H519 H 0.06493 0.67622 0.52884 0.0
Tb520 Tb 0.55572 0.45572 0.42901 0.0
Tb521 Tb 0.5118 0.44252 0.45253 0.0
C522 C 0.59849 0.47628 0.40583 0.0
C523 C 0.62078 0.49865 0.39584 0.0
C524 C 0.6272 0.5092 0.34045 0.0
C525 C 0.64924 0.5281 0.32996 0.0
C526 C 0.66614 0.5372 0.374 0.0
C527 C 0.65948 0.52692 0.42966 0.0
C528 C 0.63746 0.50813 0.44019 0.0
C529 C 0.53655 0.41981 0.51114 0.0
C530 C 0.54689 0.49422 0.48571 0.0
C531 C 0.474 0.42452 0.49969 0.0
C532 C 0.45955 0.39962 0.49738 0.0
C533 C 0.46475 0.38565 0.53169 0.0
C534 C 0.45573 0.36266 0.51804 0.0
C535 C 0.44165 0.35335 0.46916 0.0
C536 C 0.43615 0.36736 0.43583 0.0
C537 C 0.44461 0.38997 0.45038 0.0
C538 C 0.51954 0.46149 0.3456 0.0
C539 C 0.52093 0.40791 0.37909 0.0
O540 O 0.58238 0.46835 0.3662 0.0
O541 O 0.58981 0.47117 0.45846 0.0
O542 O 0.53485 0.43782 0.50718 0.0
O543 O 0.55089 0.42308 0.46977 0.0
O544 O 0.562 0.48841 0.46949 0.0
O545 O 0.52513 0.47826 0.48347 0.0
O546 O 0.49263 0.43215 0.53003 0.0
O547 O 0.47782 0.43461 0.44919 0.0
O548 O 0.53365 0.46828 0.38928 0.0
O549 O 0.50295 0.44177 0.36082 0.0
O550 O 0.50742 0.40986 0.41762 0.0
O551 O 0.5404 0.42663 0.36663 0.0
H552 H 0.61534 0.50249 0.30443 0.0
H553 H 0.65325 0.53517 0.28639 0.0
H554 H 0.67135 0.53338 0.46569 0.0
H555 H 0.63368 0.50063 0.48332 0.0
H556 H 0.47622 0.39262 0.56829 0.0
H557 H 0.45952 0.35212 0.54584 0.0
H558 H 0.42465 0.36082 0.39911 0.0
H559 H 0.44032 0.40019 0.42281 0.0
Tb560 Tb 0.64977 0.12488 0.43138 0.0
Tb561 Tb 0.66378 0.09369 0.44368 0.0
C562 C 0.62826 0.14627 0.40986 0.0
C563 C 0.6058 0.14579 0.39785 0.0
C564 C 0.59941 0.14794 0.34049 0.0
C565 C 0.58058 0.15102 0.32926 0.0
C566 C 0.56705 0.15221 0.37474 0.0
C567 C 0.57326 0.14972 0.43219 0.0
C568 C 0.59215 0.14666 0.44341 0.0
C569 C 0.68614 0.1402 0.51158 0.0
C570 C 0.61228 0.07721 0.48436 0.0
C571 C 0.68178 0.07198 0.47974 0.0
C572 C 0.70666 0.08156 0.47888 0.0
C573 C 0.72002 0.09519 0.52534 0.0
C574 C 0.74362 0.10774 0.5205 0.0
C575 C 0.75447 0.10694 0.46929 0.0
C576 C 0.74106 0.09323 0.4227 0.0
C577 C 0.7175 0.08068 0.42751 0.0
C578 C 0.64443 0.0857 0.33816 0.0
C579 C 0.69773 0.13987 0.37901 0.0
O580 O 0.63722 0.13929 0.36979 0.0
O581 O 0.63277 0.14192 0.46233 0.0
O582 O 0.66882 0.12016 0.5042 0.0
O583 O 0.68115 0.15234 0.47766 0.0
O584 O 0.61868 0.09882 0.4761 0.0
O585 O 0.6276 0.07082 0.47406 0.0
O586 O 0.67438 0.08196 0.51505 0.0
O587 O 0.67208 0.06822 0.42874 0.0
O588 O 0.63751 0.09115 0.38522 0.0
O589 O 0.66451 0.08913 0.34961 0.0
O590 O 0.69604 0.123 0.41146 0.0
O591 O 0.67927 0.14151 0.37146 0.0
H592 H 0.60944 0.14787 0.30381 0.0
H593 H 0.57672 0.15266 0.2843 0.0
H594 H 0.56409 0.15103 0.46921 0.0
H595 H 0.59647 0.14567 0.48837 0.0
H596 H 0.71214 0.0968 0.56464 0.0
H597 H 0.75355 0.11783 0.55712 0.0
H598 H 0.74873 0.09132 0.38321 0.0
H599 H 0.70778 0.07053 0.3905 0.0
Tb600 Tb 0.90053 0.62749 0.76199 0.0
Tb601 Tb 0.94635 0.65785 0.74439 0.0
C602 C 0.85787 0.60672 0.78618 0.0
C603 C 0.83592 0.60685 0.80045 0.0
C604 C 0.82239 0.59398 0.84801 0.0
C605 C 0.80061 0.5912 0.859 0.0
C606 C 0.79116 0.60127 0.82321 0.0
C607 C 0.80489 0.61454 0.77598 0.0
C608 C 0.82669 0.61714 0.76462 0.0
C609 C 0.91969 0.61029 0.68073 0.0
C610 C 0.91182 0.67541 0.70719 0.0
C611 C 0.98518 0.67928 0.69846 0.0
C612 C 1.00085 0.67071 0.6878 0.0
C613 C 0.99374 0.64804 0.701 0.0
C614 C 1.00868 0.63982 0.7003 0.0
C615 C 1.03179 0.65488 0.69278 0.0
C616 C 1.03891 0.67736 0.67463 0.0
C617 C 1.02341 0.68516 0.67165 0.0
C618 C 0.9363 0.66817 0.85012 0.0
C619 C 0.93304 0.61227 0.81456 0.0
O620 O 0.87404 0.61339 0.82535 0.0
O621 O 0.86632 0.61143 0.73324 0.0
O622 O 0.92334 0.63069 0.6878 0.0
O623 O 0.90295 0.599 0.7165 0.0
O624 O 0.89603 0.65417 0.71817 0.0
O625 O 0.93346 0.68107 0.71527 0.0
O626 O 0.96639 0.66941 0.66845 0.0
O627 O 0.98124 0.68083 0.75345 0.0
O628 O 0.92342 0.66166 0.80396 0.0
O629 O 0.95334 0.66547 0.83705 0.0
O630 O 0.94773 0.62802 0.77886 0.0
O631 O 0.91366 0.61193 0.8246 0.0
H632 H 0.82847 0.58545 0.87638 0.0
H633 H 0.79107 0.58098 0.89598 0.0
H634 H 0.7985 0.62239 0.74634 0.0
H635 H 0.83612 0.62689 0.72693 0.0
H636 H 0.97668 0.63666 0.71419 0.0
H637 H 1.00262 0.62246 0.71377 0.0
H638 H 1.05673 0.68966 0.66904 0.0
H639 H 1.02937 0.70281 0.66155 0.0
Tb640 Tb 0.47718 0.29773 0.75745 0.0
Tb641 Tb 0.44655 0.31172 0.73673 0.0
C642 C 0.49946 0.27712 0.78068 0.0
C643 C 0.50101 0.25577 0.79425 0.0
C644 C 0.48219 0.23356 0.8001 0.0
C645 C 0.48503 0.2145 0.81298 0.0
C646 C 0.50682 0.21669 0.82013 0.0
C647 C 0.52544 0.23907 0.81496 0.0
C648 C 0.5226 0.25794 0.80227 0.0
C649 C 0.49277 0.33333 0.6737 0.0
C650 C 0.42963 0.25972 0.70257 0.0
C651 C 0.42512 0.32953 0.69673 0.0
C652 C 0.42871 0.35154 0.71809 0.0
C653 C 0.42257 0.35331 0.77554 0.0
C654 C 0.4322 0.3743 0.80306 0.0
C655 C 0.44822 0.39412 0.77399 0.0
C656 C 0.45272 0.39265 0.7148 0.0
C657 C 0.44313 0.37149 0.68722 0.0
C658 C 0.43697 0.29426 0.84478 0.0
C659 C 0.49107 0.34528 0.81083 0.0
O660 O 0.49182 0.2857 0.82002 0.0
O661 O 0.4945 0.2807 0.72792 0.0
O662 O 0.47316 0.31531 0.67963 0.0
O663 O 0.50441 0.33014 0.71361 0.0
O664 O 0.45028 0.26504 0.71957 0.0
O665 O 0.4244 0.27613 0.70315 0.0
O666 O 0.44265 0.33069 0.67033 0.0
O667 O 0.41622 0.31276 0.73385 0.0
O668 O 0.44322 0.28649 0.80074 0.0
O669 O 0.44087 0.31421 0.82917 0.0
O670 O 0.4747 0.34366 0.77604 0.0
O671 O 0.49234 0.32666 0.8194 0.0
H672 H 0.46521 0.23085 0.79467 0.0
H673 H 0.47003 0.1979 0.81655 0.0
H674 H 0.54251 0.24226 0.82181 0.0
H675 H 0.53761 0.27457 0.79897 0.0
H676 H 0.41126 0.33838 0.8006 0.0
H677 H 0.42698 0.37491 0.84742 0.0
H678 H 0.46405 0.40775 0.69035 0.0
H679 H 0.44804 0.37053 0.64292 0.0
Tb680 Tb 0.80737 0.20262 0.76003 0.0
Tb681 Tb 0.79487 0.15888 0.73648 0.0
C682 C 0.82632 0.24532 0.78509 0.0
C683 C 0.84724 0.26859 0.79723 0.0
C684 C 0.86954 0.27238 0.80208 0.0
C685 C 0.88836 0.29451 0.813 0.0
C686 C 0.8858 0.31392 0.82051 0.0
C687 C 0.86343 0.30995 0.81463 0.0
C688 C 0.84471 0.28792 0.80335 0.0
C689 C 0.77203 0.18369 0.67597 0.0
C690 C 0.84705 0.19556 0.70658 0.0
C691 C 0.78152 0.12146 0.68559 0.0
C692 C 0.75806 0.10389 0.67407 0.0
C693 C 0.75186 0.08099 0.678 0.0
C694 C 0.72913 0.06463 0.68674 0.0
C695 C 0.71254 0.07114 0.69139 0.0
C696 C 0.71848 0.09352 0.67946 0.0
C697 C 0.74115 0.10994 0.67211 0.0
C698 C 0.8119 0.16586 0.84531 0.0
C699 C 0.75913 0.16743 0.80624 0.0
O700 O 0.81908 0.22901 0.82394 0.0
O701 O 0.82258 0.23694 0.73214 0.0
O702 O 0.78979 0.18158 0.68102 0.0
O703 O 0.77545 0.1983 0.71687 0.0
O704 O 0.84015 0.21019 0.71857 0.0
O705 O 0.83175 0.17361 0.7118 0.0
O706 O 0.78868 0.14057 0.65795 0.0
O707 O 0.78651 0.12477 0.74084 0.0
O708 O 0.81963 0.18043 0.80237 0.0
O709 O 0.79233 0.1496 0.82801 0.0
O710 O 0.76153 0.15411 0.76768 0.0
O711 O 0.77769 0.18681 0.82032 0.0
H712 H 0.87248 0.25822 0.79749 0.0
H713 H 0.90507 0.29633 0.81502 0.0
H714 H 0.86019 0.3239 0.81999 0.0
H715 H 0.82796 0.28597 0.79974 0.0
H716 H 0.7647 0.07605 0.68013 0.0
H717 H 0.72497 0.04739 0.69638 0.0
H718 H 0.70575 0.09846 0.68078 0.0
H719 H 0.74558 0.12754 0.6692 0.0
Tb720 Tb 0.44646 0.15801 0.24194 0.0
Tb721 Tb 0.47646 0.20317 0.26053 0.0
C722 C 0.42667 0.11894 0.20022 0.0
C723 C 0.43324 0.10207 0.21559 0.0
C724 C 0.43621 0.09864 0.27453 0.0
C725 C 0.44653 0.08626 0.28992 0.0
C726 C 0.45434 0.07699 0.24686 0.0
C727 C 0.45143 0.08048 0.18771 0.0
C728 C 0.44105 0.09302 0.17233 0.0
C729 C 0.43727 0.16643 0.3495 0.0
C730 C 0.49151 0.17052 0.31411 0.0
C731 C 0.49722 0.24615 0.28326 0.0
C732 C 0.49681 0.26833 0.2943 0.0
C733 C 0.49437 0.27524 0.35101 0.0
C734 C 0.49736 0.29721 0.36231 0.0
C735 C 0.50334 0.31369 0.31773 0.0
C736 C 0.50525 0.30653 0.26079 0.0
C737 C 0.50218 0.28455 0.24949 0.0
C738 C 0.49263 0.18332 0.17848 0.0
C739 C 0.42882 0.19201 0.20454 0.0
O740 O 0.44231 0.13631 0.17178 0.0
O741 O 0.41788 0.12519 0.24206 0.0
O742 O 0.44279 0.18011 0.30504 0.0
O743 O 0.44118 0.15031 0.33452 0.0
O744 O 0.47507 0.1553 0.28046 0.0
O745 O 0.49304 0.1906 0.32122 0.0
O746 O 0.48963 0.2301 0.32289 0.0
O747 O 0.49372 0.23738 0.23065 0.0
O748 O 0.47277 0.18108 0.18441 0.0
O749 O 0.50426 0.19897 0.21684 0.0
O750 O 0.44986 0.20782 0.21703 0.0
O751 O 0.42332 0.1704 0.21065 0.0
H752 H 0.43089 0.10581 0.3092 0.0
H753 H 0.44746 0.08322 0.33595 0.0
H754 H 0.45696 0.0733 0.15355 0.0
H755 H 0.43955 0.09612 0.12684 0.0
H756 H 0.49071 0.26381 0.38744 0.0
H757 H 0.49567 0.30154 0.40685 0.0
H758 H 0.50916 0.31797 0.2243 0.0
H759 H 0.50458 0.28046 0.20528 0.0
Tb760 Tb 0.94675 0.31007 0.24455 0.0
Tb761 Tb 0.90208 0.29682 0.26245 0.0
C762 C 0.98521 0.32402 0.19934 0.0
C763 C 1.00221 0.34747 0.18579 0.0
C764 C 0.99642 0.36444 0.19234 0.0
C765 C 1.01309 0.38716 0.19515 0.0
C766 C 1.0359 0.39312 0.19578 0.0
C767 C 1.04173 0.37636 0.18276 0.0
C768 C 1.02489 0.35359 0.17768 0.0
C769 C 0.93665 0.2901 0.35025 0.0
C770 C 0.93629 0.34511 0.31134 0.0
C771 C 0.85933 0.27646 0.28583 0.0
C772 C 0.83635 0.25497 0.29571 0.0
C773 C 0.83354 0.23418 0.31668 0.0
C774 C 0.81151 0.21513 0.32752 0.0
C775 C 0.79134 0.21607 0.31829 0.0
C776 C 0.79444 0.23694 0.29702 0.0
C777 C 0.81629 0.25577 0.28588 0.0
C778 C 0.92194 0.33258 0.18058 0.0
C779 C 0.91082 0.2586 0.20709 0.0
O780 O 0.9665 0.31547 0.16919 0.0
O781 O 0.98113 0.32027 0.25491 0.0
O782 O 0.92353 0.28393 0.30461 0.0
O783 O 0.95363 0.30988 0.33737 0.0
O784 O 0.95034 0.34288 0.27531 0.0
O785 O 0.91671 0.32648 0.32346 0.0
O786 O 0.87544 0.28341 0.32525 0.0
O787 O 0.8679 0.28158 0.23316 0.0
O788 O 0.92462 0.31519 0.18677 0.0
O789 O 0.90606 0.32841 0.21825 0.0
O790 O 0.89592 0.26535 0.21659 0.0
O791 O 0.93258 0.27363 0.21663 0.0
H792 H 0.97905 0.36005 0.19921 0.0
H793 H 1.00831 0.39975 0.20474 0.0
H794 H 1.05923 0.38027 0.18379 0.0
H795 H 1.0297 0.34069 0.17324 0.0
H796 H 0.84836 0.23266 0.32528 0.0
H797 H 0.8104 0.19979 0.34469 0.0
H798 H 0.77981 0.2388 0.2885 0.0
H799 H 0.81748 0.27131 0.26995 0.0
Tb800 Tb 0.794 0.65746 0.24158 0.0
Tb801 Tb 0.808 0.62728 0.26535 0.0
C802 C 0.77652 0.67797 0.19309 0.0
C803 C 0.75202 0.66934 0.18937 0.0
C804 C 0.73685 0.64575 0.18989 0.0
C805 C 0.71391 0.63713 0.20226 0.0
C806 C 0.70596 0.65204 0.2145 0.0
C807 C 0.72065 0.67559 0.20812 0.0
C808 C 0.74361 0.6842 0.19612 0.0
C809 C 0.81191 0.6685 0.34944 0.0
C810 C 0.76005 0.61353 0.31451 0.0
C811 C 0.82868 0.60533 0.29038 0.0
C812 C 0.85069 0.60515 0.30413 0.0
C813 C 0.85523 0.60083 0.36141 0.0
C814 C 0.87381 0.59755 0.37423 0.0
C815 C 0.88904 0.59848 0.33052 0.0
C816 C 0.88442 0.60267 0.27299 0.0
C817 C 0.86572 0.6059 0.2601 0.0
C818 C 0.77252 0.61021 0.18206 0.0
C819 C 0.84623 0.67457 0.20985 0.0
O820 O 0.784 0.66651 0.16407 0.0
O821 O 0.78457 0.68249 0.24598 0.0
O822 O 0.81955 0.66175 0.30624 0.0
O823 O 0.79208 0.66471 0.33321 0.0
O824 O 0.76172 0.62877 0.27594 0.0
O825 O 0.77887 0.61308 0.32709 0.0
O826 O 0.81982 0.61291 0.32915 0.0
O827 O 0.8247 0.60958 0.23729 0.0
O828 O 0.79026 0.63003 0.18674 0.0
O829 O 0.77574 0.5992 0.22352 0.0
O830 O 0.84039 0.6535 0.22427 0.0
O831 O 0.83023 0.68037 0.21346 0.0
H832 H 0.74294 0.63397 0.18421 0.0
H833 H 0.70282 0.61897 0.20669 0.0
H834 H 0.71486 0.68744 0.21823 0.0
H835 H 0.75501 0.7024 0.19643 0.0
H836 H 0.84393 0.59931 0.39665 0.0
H837 H 0.87578 0.59361 0.41882 0.0
H838 H 0.89536 0.60353 0.23753 0.0
H839 H 0.86283 0.60861 0.21511 0.0
Tb840 Tb 0.513 0.09479 0.95634 0.0
Tb841 Tb 0.55738 0.12587 0.93431 0.0
C842 C 0.4759 0.07284 1.00923 0.0
C843 C 0.46031 0.08117 0.02286 0.0
C844 C 0.46844 0.10465 0.02081 0.0
C845 C 0.4536 0.11285 1.01146 0.0
C846 C 0.43045 0.09752 1.00379 0.0
C847 C 0.42206 0.07421 1.01418 0.0
C848 C 0.43697 0.06606 0.02327 0.0
C849 C 0.52134 0.08459 0.84904 0.0
C850 C 0.52268 0.13913 0.88489 0.0
C851 C 0.60011 0.14841 0.91034 0.0
C852 C 0.62268 0.14911 0.89949 0.0
C853 C 0.6245 0.13025 0.88111 0.0
C854 C 0.64602 0.13224 0.86911 0.0
C855 C 0.66675 0.15325 0.87413 0.0
C856 C 0.6647 0.1719 0.89369 0.0
C857 C 0.64328 0.16986 0.90595 0.0
C858 C 0.53789 0.14215 1.01675 0.0
C859 C 0.54883 0.07849 0.98772 0.0
O860 O 0.49544 0.08318 0.03584 0.0
O861 O 0.47826 0.07074 0.95348 0.0
O862 O 0.53526 0.09145 0.89304 0.0
O863 O 0.50409 0.08657 0.86455 0.0
O864 O 0.50891 0.1235 0.92277 0.0
O865 O 0.54217 0.13986 0.87274 0.0
O866 O 0.58387 0.13946 0.8712 0.0
O867 O 0.59164 0.1448 0.96316 0.0
O868 O 0.53605 0.12243 1.01173 0.0
O869 O 0.55257 0.15354 0.97633 0.0
O870 O 0.56373 0.10006 0.97693 0.0
O871 O 0.52696 0.07203 0.9812 0.0
H872 H 0.4864 0.1165 0.01995 0.0
H873 H 0.46043 0.13082 1.00372 0.0
H874 H 0.40424 0.06194 1.00799 0.0
H875 H 0.43041 0.0479 0.02448 0.0
H876 H 0.60927 0.11389 0.87582 0.0
H877 H 0.6463 0.11707 0.85622 0.0
H878 H 0.67974 0.18843 0.89831 0.0
H879 H 0.64284 0.18487 0.91984 0.0
Tb880 Tb 1.01134 0.44101 0.9484 0.0
Tb881 Tb 0.9802 0.45568 0.94137 0.0
C882 C 1.0348 0.42282 0.96765 0.0
C883 C 1.027 0.40008 0.94345 0.0
C884 C 1.03055 0.38391 0.97139 0.0
C885 C 1.0195 0.36145 0.95066 0.0
C886 C 1.00377 0.35459 0.90353 0.0
C887 C 0.99978 0.371 0.87863 0.0
C888 C 1.01225 0.39341 0.89563 0.0
C889 C 1.0184 0.46248 0.84492 0.0
C890 C 0.96335 0.40719 0.88881 0.0
C891 C 0.95846 0.47696 0.92224 0.0
C892 C 0.95819 0.49901 0.90994 0.0
C893 C 0.96317 0.50941 0.85428 0.0
C894 C 0.95968 0.52791 0.84133 0.0
C895 C 0.95066 0.53674 0.88299 0.0
C896 C 0.94615 0.5266 0.93899 0.0
C897 C 0.94975 0.5082 0.95199 0.0
C898 C 0.96601 0.41972 0.0223 0.0
C899 C 1.02873 0.49202 0.99488 0.0
O900 O 1.02132 0.42369 1.00666 0.0
O901 O 1.04031 0.43858 0.92862 0.0
O902 O 1.01346 0.46815 0.89444 0.0
O903 O 1.0139 0.44185 0.85283 0.0
O904 O 0.98035 0.40893 0.92073 0.0
O905 O 0.96267 0.42615 0.88013 0.0
O906 O 0.96497 0.46783 0.8815 0.0
O907 O 0.96372 0.47304 0.97434 0.0
O908 O 0.98616 0.43664 1.01264 0.0
O909 O 0.95354 0.42504 0.99077 0.0
O910 O 1.00776 0.48716 0.98244 0.0
O911 O 1.03389 0.47565 0.98767 0.0
H912 H 1.04164 0.38853 1.009 0.0
H913 H 1.0237 0.34975 0.97133 0.0
H914 H 0.98725 0.36693 0.84499 0.0
H915 H 1.00967 0.40545 0.87162 0.0
H916 H 0.96931 0.5029 0.81989 0.0
H917 H 0.96344 0.53488 0.79763 0.0
H918 H 0.93979 0.53287 0.97336 0.0
H919 H 0.94534 0.50075 0.99513 0.0
Tb920 Tb 0.6647 0.5976 0.95427 0.0
Tb921 Tb 0.64969 0.54908 0.93688 0.0
C922 C 0.67807 0.63332 1.01253 0.0
C923 C 0.70028 0.64764 0.03944 0.0
C924 C 0.71437 0.63842 0.04897 0.0
C925 C 0.73773 0.65258 0.05366 0.0
C926 C 0.74721 0.67602 0.04918 0.0
C927 C 0.73276 0.68531 0.04869 0.0
C928 C 0.70933 0.67112 0.04322 0.0
C929 C 0.64456 0.58638 0.85023 0.0
C930 C 0.69791 0.58417 0.88591 0.0
C931 C 0.62886 0.50693 0.90653 0.0
C932 C 0.60702 0.48485 0.89014 0.0
C933 C 0.58606 0.47678 0.91967 0.0
C934 C 0.56703 0.45477 0.90823 0.0
C935 C 0.56817 0.43952 0.86772 0.0
C936 C 0.58901 0.44795 0.83745 0.0
C937 C 0.60785 0.46994 0.84838 0.0
C938 C 0.68511 0.56855 0.02371 0.0
C939 C 0.61256 0.56013 0.9903 0.0
O940 O 0.66613 0.61297 0.03484 0.0
O941 O 0.67855 0.6329 0.95536 0.0
O942 O 0.6388 0.57287 0.89572 0.0
O943 O 0.66255 0.60535 0.86436 0.0
O944 O 0.69633 0.59976 0.91827 0.0
O945 O 0.67983 0.56356 0.87921 0.0
O946 O 0.63902 0.52388 0.86943 0.0
O947 O 0.63151 0.51441 0.9604 0.0
O948 O 0.6741 0.57582 0.99406 0.0
O949 O 0.67407 0.54761 1.005 0.0
O950 O 0.61853 0.54462 0.98072 0.0
O951 O 0.62799 0.58194 0.98158 0.0
H952 H 0.70748 0.62031 0.04684 0.0
H953 H 0.74864 0.64539 0.05541 0.0
H954 H 0.7397 0.70345 0.04467 0.0
H955 H 0.69869 0.67854 0.03598 0.0
H956 H 0.58445 0.48732 0.95267 0.0
H957 H 0.55155 0.4494 0.93273 0.0
H958 H 0.59091 0.43745 0.80488 0.0
H959 H 0.62349 0.47508 0.82483 0.0
Tb960 Tb 0.65016 0.88342 0.76399 0.0
Tb961 Tb 0.68065 0.9276 0.79128 0.0
C962 C 0.62852 0.84115 0.73466 0.0
C963 C 0.62737 0.81847 0.72185 0.0
C964 C 0.64612 0.81489 0.72384 0.0
C965 C 0.6435 0.79291 0.71399 0.0
C966 C 0.62201 0.77355 0.70188 0.0
C967 C 0.60356 0.77759 0.69829 0.0
C968 C 0.60617 0.79935 0.70835 0.0
C969 C 0.63212 0.90108 0.84652 0.0
C970 C 0.69657 0.89154 0.82151 0.0
C971 C 0.7022 0.96387 0.84822 0.0
C972 C 0.69358 0.979 0.86414 0.0
C973 C 0.67018 0.97082 0.85942 0.0
C974 C 0.66198 0.98576 0.85288 0.0
C975 C 0.67725 1.0091 0.85016 0.0
C976 C 0.70031 1.01732 0.86364 0.0
C977 C 0.70849 1.00229 0.86985 0.0
C978 C 0.69227 0.92125 0.68335 0.0
C979 C 0.63688 0.91872 0.719 0.0
O980 O 0.63789 0.85801 0.6974 0.0
O981 O 0.63144 0.84871 0.78839 0.0
O982 O 0.65221 0.90369 0.84287 0.0
O983 O 0.6215 0.88651 0.80512 0.0
O984 O 0.6751 0.87671 0.8097 0.0
O985 O 0.70319 0.91343 0.81527 0.0
O986 O 0.69187 0.94389 0.87259 0.0
O987 O 0.70446 0.96244 0.79212 0.0
O988 O 0.68495 0.90654 0.72573 0.0
O989 O 0.68938 0.93779 0.7008 0.0
O990 O 0.65229 0.93206 0.75791 0.0
O991 O 0.63631 0.89945 0.70469 0.0
H992 H 0.66282 0.82905 0.73323 0.0
H993 H 0.65835 0.79104 0.7169 0.0
H994 H 0.58684 0.76388 0.68692 0.0
H995 H 0.59129 0.8012 0.70563 0.0
H996 H 0.65854 0.95294 0.85409 0.0
H997 H 0.64422 0.97904 0.84248 0.0
H998 H 0.71256 1.0353 0.86133 0.0
H999 H 0.7266 1.00891 0.87314 0.0
Tb1000 Tb 0.22461 0.78869 0.77215 0.0
Tb1001 Tb 0.17687 0.77437 0.78865 0.0
C1002 C 0.26632 0.80856 0.73891 0.0
C1003 C 0.28839 0.82996 0.72105 0.0
C1004 C 0.29464 0.85215 0.74014 0.0
C1005 C 0.31654 0.87116 0.72801 0.0
C1006 C 0.33336 0.8688 0.6971 0.0
C1007 C 0.32672 0.84663 0.67695 0.0
C1008 C 0.30488 0.82779 0.68866 0.0
C1009 C 0.20578 0.7538 0.85993 0.0
C1010 C 0.21468 0.82617 0.82713 0.0
C1011 C 0.13962 0.76105 0.83869 0.0
C1012 C 0.12412 0.73773 0.85658 0.0
C1013 C 0.13288 0.72302 0.85907 0.0
C1014 C 0.11884 0.69979 0.85064 0.0
C1015 C 0.09576 0.69112 0.84077 0.0
C1016 C 0.08647 0.70549 0.84681 0.0
C1017 C 0.10069 0.72884 0.85402 0.0
C1018 C 0.18829 0.79411 0.68404 0.0
C1019 C 0.18969 0.73952 0.72707 0.0
O1020 O 0.24894 0.79857 0.70302 0.0
O1021 O 0.25951 0.80652 0.79323 0.0
O1022 O 0.19799 0.76433 0.83018 0.0
O1023 O 0.22668 0.7651 0.84133 0.0
O1024 O 0.22982 0.81977 0.81742 0.0
O1025 O 0.19281 0.81106 0.81786 0.0
O1026 O 0.15908 0.7712 0.86633 0.0
O1027 O 0.1422 0.76319 0.78203 0.0
O1028 O 0.20137 0.80024 0.73046 0.0
O1029 O 0.17055 0.77474 0.69654 0.0
O1030 O 0.17446 0.74174 0.75917 0.0
O1031 O 0.20977 0.75783 0.71673 0.0
H1032 H 0.2827 0.85479 0.7653 0.0
H1033 H 0.32052 0.88769 0.74445 0.0
H1034 H 0.33849 0.84371 0.65175 0.0
H1035 H 0.30106 0.81117 0.6732 0.0
H1036 H 0.15095 0.73008 0.86119 0.0
H1037 H 0.12618 0.68898 0.84574 0.0
H1038 H 0.06861 0.69912 0.83853 0.0
H1039 H 0.09366 0.74 0.85131 0.0
Tb1040 Tb 0.3175 0.45771 0.76879 0.0
Tb1041 Tb 0.3321 0.42692 0.7889 0.0
C1042 C 0.29574 0.47859 0.74338 0.0
C1043 C 0.27356 0.47863 0.73022 0.0
C1044 C 0.27106 0.48774 0.67714 0.0
C1045 C 0.25233 0.49106 0.66646 0.0
C1046 C 0.23492 0.48533 0.70817 0.0
C1047 C 0.23701 0.47556 0.76072 0.0
C1048 C 0.25603 0.47262 0.77185 0.0
C1049 C 0.35357 0.47464 0.85017 0.0
C1050 C 0.28019 0.41024 0.82533 0.0
C1051 C 0.34795 0.40563 0.84207 0.0
C1052 C 0.37093 0.41518 0.866 0.0
C1053 C 0.3862 0.43851 0.86012 0.0
C1054 C 0.40911 0.44764 0.87303 0.0
C1055 C 0.41744 0.43325 0.8884 0.0
C1056 C 0.40173 0.41012 0.89947 0.0
C1057 C 0.37859 0.40118 0.88864 0.0
C1058 C 0.31185 0.41581 0.683 0.0
C1059 C 0.366 0.47243 0.71927 0.0
O1060 O 0.30459 0.47101 0.70458 0.0
O1061 O 0.30018 0.47483 0.79653 0.0
O1062 O 0.33636 0.4545 0.84417 0.0
O1063 O 0.34906 0.48601 0.81237 0.0
O1064 O 0.28648 0.43179 0.8154 0.0
O1065 O 0.29558 0.40389 0.81575 0.0
O1066 O 0.33535 0.41267 0.86703 0.0
O1067 O 0.34712 0.40648 0.78531 0.0
O1068 O 0.30573 0.42319 0.72808 0.0
O1069 O 0.33084 0.4171 0.69753 0.0
O1070 O 0.36427 0.45621 0.75468 0.0
O1071 O 0.34731 0.47346 0.70897 0.0
H1072 H 0.28408 0.49301 0.64397 0.0
H1073 H 0.25158 0.49831 0.62508 0.0
H1074 H 0.22427 0.47089 0.79444 0.0
H1075 H 0.25727 0.46615 0.81392 0.0
H1076 H 0.38062 0.44953 0.84239 0.0
H1077 H 0.42066 0.46542 0.86385 0.0
H1078 H 0.40748 0.39833 0.91029 0.0
H1079 H 0.36707 0.38312 0.89347 0.0
Tb1080 Tb 0.56926 0.96166 0.08789 0.0
Tb1081 Tb 0.61751 0.99531 0.07439 0.0
C1082 C 0.52704 0.93945 0.11682 0.0
C1083 C 0.50464 0.93896 0.13062 0.0
C1084 C 0.49778 0.93986 0.18843 0.0
C1085 C 0.47584 0.93654 0.20134 0.0
C1086 C 0.45944 0.93198 0.15723 0.0
C1087 C 0.46624 0.93085 0.09949 0.0
C1088 C 0.48823 0.93429 0.08655 0.0
C1089 C 0.58887 0.94662 0.99977 0.0
C1090 C 0.58016 1.01002 0.0357 0.0
C1091 C 0.65489 1.02044 0.02549 0.0
C1092 C 0.67194 1.01496 1.00528 0.0
C1093 C 0.66523 0.99211 0.99617 0.0
C1094 C 0.68071 0.9846 1.00295 0.0
C1095 C 0.7032 1.00018 0.01743 0.0
C1096 C 0.71066 1.02358 1.01657 0.0
C1097 C 0.69496 1.03096 1.01127 0.0
C1098 C 0.60475 1.00352 0.17771 0.0
C1099 C 0.60422 0.94706 0.13398 0.0
O1100 O 0.5439 0.94726 0.1546 0.0
O1101 O 0.53473 0.94359 0.06312 0.0
O1102 O 0.59641 0.96462 0.03095 0.0
O1103 O 0.56778 0.93684 1.01675 0.0
O1104 O 0.56458 0.98858 0.04573 0.0
O1105 O 0.60193 1.0162 0.0442 0.0
O1106 O 0.63553 1.01043 0.99747 0.0
O1107 O 0.65211 1.0189 0.08217 0.0
O1108 O 0.59225 0.99639 0.13038 0.0
O1109 O 0.62279 1.0022 0.16688 0.0
O1110 O 0.61973 0.96489 0.10335 0.0
O1111 O 0.58384 0.945 0.14287 0.0
H1112 H 0.50926 0.94267 0.22427 0.0
H1113 H 0.47156 0.93704 0.24666 0.0
H1114 H 0.45452 0.92742 0.06382 0.0
H1115 H 0.4922 0.9328 0.04152 0.0
H1116 H 0.64753 0.97996 0.99017 0.0
H1117 H 0.67473 0.96657 1.00284 0.0
H1118 H 0.72798 1.03589 0.02828 0.0
H1119 H 0.70042 0.04871 0.01849 0.0
Tb1120 Tb 0.1447 0.63041 0.10063 0.0
Tb1121 Tb 0.11409 0.64322 0.07438 0.0
C1122 C 0.16707 0.61027 0.12794 0.0
C1123 C 0.16824 0.58862 0.13937 0.0
C1124 C 0.14914 0.56696 0.14915 0.0
C1125 C 0.15145 0.54751 0.15998 0.0
C1126 C 0.17298 0.54878 0.16221 0.0
C1127 C 0.19193 0.57051 0.15143 0.0
C1128 C 0.1896 0.58982 0.14041 0.0
C1129 C 0.16246 0.66569 1.0168 0.0
C1130 C 0.09811 0.59104 0.04646 0.0
C1131 C 0.09004 0.65478 1.01681 0.0
C1132 C 0.09626 0.67729 0.99508 0.0
C1133 C 0.11935 0.69361 0.99114 0.0
C1134 C 0.12633 0.71656 0.99609 0.0
C1135 C 0.11036 0.7231 1.00873 0.0
C1136 C 0.08714 0.70719 1.00186 0.0
C1137 C 0.08007 0.6842 0.99528 0.0
C1138 C 0.10262 0.6263 0.18299 0.0
C1139 C 0.15803 0.67939 0.14427 0.0
O1140 O 0.1576 0.6175 0.16587 0.0
O1141 O 0.16389 0.615 0.07468 0.0
O1142 O 0.14239 0.64809 0.02083 0.0
O1143 O 0.17309 0.66214 0.05877 0.0
O1144 O 0.11975 0.59804 0.05653 0.0
O1145 O 0.09149 0.60623 0.05341 0.0
O1146 O 0.10076 0.64535 0.99339 0.0
O1147 O 0.08989 0.65364 0.07357 0.0
O1148 O 0.11001 0.61848 0.14132 0.0
O1149 O 0.10587 0.64573 0.16473 0.0
O1150 O 0.14244 0.6768 0.1052 0.0
O1151 O 0.15873 0.66082 0.15927 0.0
H1152 H 0.13234 0.56497 0.14836 0.0
H1153 H 0.13612 0.53134 0.16597 0.0
H1154 H 0.20885 0.57282 0.15265 0.0
H1155 H 0.20482 0.60601 0.13303 0.0
H1156 H 0.13206 0.68857 0.9917 0.0
H1157 H 0.14419 0.72875 0.9982 0.0
H1158 H 0.07442 0.71192 1.01098 0.0
H1159 H 1.06216 0.67181 0.99834 0.0
Tb1160 Tb 0.4761 0.5393 0.09218 0.0
Tb1161 Tb 0.46187 0.49437 0.08213 0.0
C1162 C 0.49763 0.5825 0.10934 0.0
C1163 C 0.52 0.60474 0.11787 0.0
C1164 C 0.53823 0.60693 0.15234 0.0
C1165 C 0.55783 0.62855 0.16308 0.0
C1166 C 0.55995 0.64893 0.14035 0.0
C1167 C 0.54174 0.64647 0.1054 0.0
C1168 C 0.52238 0.62497 0.09433 0.0
C1169 C 0.44039 0.51786 1.01007 0.0
C1170 C 0.5132 0.52866 0.03964 0.0
C1171 C 0.44342 0.45302 0.0587 0.0
C1172 C 0.42096 0.4372 0.08248 0.0
C1173 C 0.41326 0.44421 0.13064 0.0
C1174 C 0.39082 0.43238 0.14803 0.0
C1175 C 0.37571 0.41165 0.12175 0.0
C1176 C 0.38383 0.40392 0.0748 0.0
C1177 C 0.40608 0.41693 0.05442 0.0
C1178 C 0.4808 0.50639 0.18786 0.0
C1179 C 0.4285 0.50818 0.14582 0.0
O1180 O 0.48971 0.56725 0.15098 0.0
O1181 O 0.4924 0.57283 0.05778 0.0
O1182 O 0.45766 0.51516 0.01853 0.0
O1183 O 0.44478 0.53472 0.0447 0.0
O1184 O 0.50751 0.54417 0.05087 0.0
O1185 O 0.49728 0.50693 0.04671 0.0
O1186 O 0.44352 0.46778 0.02241 0.0
O1187 O 0.45947 0.46275 0.09743 0.0
O1188 O 0.48825 0.5182 0.14033 0.0
O1189 O 0.46007 0.49117 0.17703 0.0
O1190 O 0.43004 0.49313 0.11232 0.0
O1191 O 0.44737 0.52781 0.15441 0.0
H1192 H 0.5372 0.59198 0.17192 0.0
H1193 H 0.57102 0.62932 0.19097 0.0
H1194 H 0.54237 0.66133 0.08644 0.0
H1195 H 0.50883 0.62426 0.06798 0.0
H1196 H 0.42449 0.45898 0.15539 0.0
H1197 H 0.3857 0.43919 0.18393 0.0
H1198 H 0.37355 0.38748 0.05475 0.0
H1199 H 0.41174 0.41093 0.01794 0.0
Tb1200 Tb 0.11045 0.48856 0.59072 0.0
Tb1201 Tb 0.14346 0.53645 0.59932 0.0
C1202 C 0.08786 0.44939 0.55123 0.0
C1203 C 0.09644 0.43348 0.54677 0.0
C1204 C 0.11648 0.43943 0.51555 0.0
C1205 C 0.12859 0.42822 0.52596 0.0
C1206 C 0.12194 0.41237 0.57103 0.0
C1207 C 0.10094 0.40525 0.59893 0.0
C1208 C 0.08812 0.41536 0.586 0.0
C1209 C 0.10235 0.50258 0.69168 0.0
C1210 C 0.15825 0.5029 0.65282 0.0
C1211 C 0.16583 0.57855 0.62865 0.0
C1212 C 0.16685 0.60076 0.64611 0.0
C1213 C 0.18651 0.61791 0.67391 0.0
C1214 C 0.18956 0.63974 0.68576 0.0
C1215 C 0.17303 0.64563 0.67058 0.0
C1216 C 0.15295 0.62822 0.6442 0.0
C1217 C 0.15001 0.60633 0.63162 0.0
C1218 C 0.15897 0.51598 0.51431 0.0
C1219 C 0.09547 0.52486 0.54446 0.0
O1220 O 0.0975 0.46726 0.51731 0.0
O1221 O 0.08591 0.45467 0.60503 0.0
O1222 O 0.1089 0.51436 0.64326 0.0
O1223 O 0.10422 0.48472 0.68369 0.0
O1224 O 0.14028 0.48661 0.62467 0.0
O1225 O 0.16059 0.52349 0.65708 0.0
O1226 O 0.159 0.56167 0.66589 0.0
O1227 O 0.16014 0.57104 0.57502 0.0
O1228 O 0.14113 0.50851 0.54598 0.0
O1229 O 0.16816 0.53739 0.5284 0.0
O1230 O 0.11665 0.54066 0.55587 0.0
O1231 O 0.08947 0.50311 0.55356 0.0
H1232 H 0.12357 0.45362 0.48569 0.0
H1233 H 0.14357 0.43254 0.50055 0.0
H1234 H 0.09451 0.39209 0.63182 0.0
H1235 H 0.07272 0.4104 0.61059 0.0
H1236 H 0.19998 0.61457 0.68564 0.0
H1237 H 0.20506 0.65211 0.70716 0.0
H1238 H 0.13967 0.63172 0.6317 0.0
H1239 H 0.13468 0.59386 0.60978 0.0
Tb1240 Tb 0.61353 0.64436 0.56637 0.0
Tb1241 Tb 0.57032 0.63219 0.59769 0.0
C1242 C 0.65272 0.66559 0.52318 0.0
C1243 C 0.66781 0.6897 0.51107 0.0
C1244 C 0.65969 0.70495 0.51584 0.0
C1245 C 0.67478 0.72819 0.52191 0.0
C1246 C 0.69818 0.73631 0.52322 0.0
C1247 C 0.70618 0.7212 0.51089 0.0
C1248 C 0.69106 0.69799 0.50558 0.0
C1249 C 0.60417 0.61588 0.65725 0.0
C1250 C 0.60474 0.6792 0.6472 0.0
C1251 C 0.52733 0.61131 0.62118 0.0
C1252 C 0.50465 0.58921 0.63179 0.0
C1253 C 0.50177 0.57217 0.67193 0.0
C1254 C 0.47992 0.553 0.68399 0.0
C1255 C 0.45975 0.54994 0.65702 0.0
C1256 C 0.46284 0.56706 0.61688 0.0
C1257 C 0.48461 0.58603 0.60452 0.0
C1258 C 0.58833 0.66667 0.51212 0.0
C1259 C 0.57752 0.59338 0.53688 0.0
O1260 O 0.63426 0.65538 0.49179 0.0
O1261 O 0.64868 0.66081 0.57862 0.0
O1262 O 0.5973 0.63068 0.65231 0.0
O1263 O 0.61513 0.61709 0.61016 0.0
O1264 O 0.61855 0.67629 0.61126 0.0
O1265 O 0.58427 0.6616 0.65656 0.0
O1266 O 0.54353 0.61913 0.66037 0.0
O1267 O 0.53597 0.61629 0.56859 0.0
O1268 O 0.58936 0.64824 0.51536 0.0
O1269 O 0.57529 0.66458 0.55584 0.0
O1270 O 0.56485 0.59836 0.57042 0.0
O1271 O 0.59778 0.6104 0.52198 0.0
H1272 H 0.64178 0.69863 0.52062 0.0
H1273 H 0.6682 0.7394 0.53192 0.0
H1274 H 0.72414 0.72686 0.51243 0.0
H1275 H 0.69761 0.68643 0.50191 0.0
H1276 H 0.5164 0.57378 0.69488 0.0
H1277 H 0.47884 0.54086 0.71608 0.0
H1278 H 0.44827 0.56583 0.59444 0.0
H1279 H 0.48569 0.59864 0.57391 0.0
Tb1280 Tb 0.46135 0.9947 0.58198 0.0
Tb1281 Tb 0.47683 0.96184 0.59618 0.0
C1282 C 0.44676 1.01793 0.53455 0.0
C1283 C 0.42318 1.01016 0.51966 0.0
C1284 C 0.40796 0.98676 0.51951 0.0
C1285 C 0.38481 0.97829 0.52709 0.0
C1286 C 0.37675 0.99341 0.53446 0.0
C1287 C 0.39175 1.0169 0.52651 0.0
C1288 C 0.41497 1.02527 0.51992 0.0
C1289 C 0.48216 1.00349 0.68521 0.0
C1290 C 0.42739 0.94665 0.64286 0.0
C1291 C 0.49806 0.94101 0.62663 0.0
C1292 C 0.52065 0.9416 0.6386 0.0
C1293 C 0.53001 0.94437 0.6953 0.0
C1294 C 0.54918 0.94168 0.70658 0.0
C1295 C 0.55971 0.93562 0.66201 0.0
C1296 C 0.55057 0.93333 0.60525 0.0
C1297 C 0.5316 0.93618 0.59393 0.0
C1298 C 0.44144 0.94566 0.50986 0.0
C1299 C 0.5131 1.00954 0.54001 0.0
O1300 O 0.45621 1.00826 0.50525 0.0
O1301 O 0.45014 1.01811 0.59078 0.0
O1302 O 0.48799 0.99664 0.63803 0.0
O1303 O 0.46246 1.00133 0.67439 0.0
O1304 O 0.42927 0.96425 0.61242 0.0
O1305 O 0.44589 0.94497 0.65161 0.0
O1306 O 0.48935 0.94936 0.66395 0.0
O1307 O 0.49329 0.94362 0.57279 0.0
O1308 O 0.45201 0.96387 0.54011 0.0
O1309 O 0.45302 0.93617 0.52692 0.0
O1310 O 0.50744 0.9882 0.55018 0.0
O1311 O 0.49756 1.01574 0.54967 0.0
H1312 H 0.4145 0.9753 0.51933 0.0
H1313 H 0.37369 0.96024 0.53371 0.0
H1314 H 0.38604 1.02903 0.53293 0.0
H1315 H 0.42655 0.04343 0.52056 0.0
H1316 H 0.52218 0.9481 0.73158 0.0
H1317 H 0.55532 0.94365 0.75101 0.0
H1318 H 0.55809 0.92925 0.56889 0.0
H1319 H 0.52512 0.93352 0.54973 0.0
Tb1320 Tb 0.18092 0.4268 0.29657 0.0
Tb1321 Tb 0.22388 0.45794 0.27183 0.0
C1322 C 0.14502 0.40221 0.3524 0.0
C1323 C 0.12862 0.40835 0.37374 0.0
C1324 C 0.13545 0.43145 0.37886 0.0
C1325 C 0.11958 0.43848 0.37365 0.0
C1326 C 0.09705 0.42253 0.36115 0.0
C1327 C 0.08966 0.39927 0.36707 0.0
C1328 C 0.10553 0.39216 0.37282 0.0
C1329 C 0.18696 0.41595 0.1879 0.0
C1330 C 0.18812 0.47064 0.22707 0.0
C1331 C 0.26632 0.48096 0.24515 0.0
C1332 C 0.28895 0.4817 0.2341 0.0
C1333 C 0.2947 0.47619 0.17942 0.0
C1334 C 0.3169 0.48 0.16758 0.0
C1335 C 0.33462 0.48991 0.20938 0.0
C1336 C 0.32867 0.49496 0.2644 0.0
C1337 C 0.30648 0.49102 0.27633 0.0
C1338 C 0.20535 0.47454 0.35625 0.0
C1339 C 0.21767 0.41138 0.3241 0.0
O1340 O 0.16501 0.41287 0.37665 0.0
O1341 O 0.14639 0.40223 0.29571 0.0
O1342 O 0.20201 0.42338 0.2297 0.0
O1343 O 0.17056 0.41887 0.20604 0.0
O1344 O 0.17516 0.45491 0.26598 0.0
O1345 O 0.20757 0.47166 0.2126 0.0
O1346 O 0.24978 0.47177 0.20686 0.0
O1347 O 0.25825 0.47781 0.29834 0.0
O1348 O 0.20364 0.45482 0.35177 0.0
O1349 O 0.2192 0.48561 0.31404 0.0
O1350 O 0.23201 0.43317 0.31432 0.0
O1351 O 0.19577 0.40447 0.31728 0.0
H1352 H 0.15322 0.44415 0.38004 0.0
H1353 H 0.1253 0.45638 0.37225 0.0
H1354 H 0.07221 0.38661 0.35773 0.0
H1355 H 0.1 0.37426 0.3688 0.0
H1356 H 0.28214 0.46936 0.14496 0.0
H1357 H 0.32035 0.47576 0.1246 0.0
H1358 H 0.34121 0.50202 0.29883 0.0
H1359 H 0.30321 0.49585 0.31877 0.0
Tb1360 Tb 0.67899 0.77499 0.29271 0.0
Tb1361 Tb 0.64821 0.78754 0.26324 0.0
C1362 C 0.69689 0.75387 0.33673 0.0
C1363 C 0.68785 0.73011 0.35288 0.0
C1364 C 0.66449 0.71479 0.34924 0.0
C1365 C 0.65622 0.69144 0.35092 0.0
C1366 C 0.6714 0.68321 0.35486 0.0
C1367 C 0.6946 0.69877 0.36474 0.0
C1368 C 0.70275 0.72207 0.36372 0.0
C1369 C 0.69821 0.80344 0.20194 0.0
C1370 C 0.63591 0.74153 0.20881 0.0
C1371 C 0.62585 0.80819 0.24066 0.0
C1372 C 0.62543 0.83021 0.22739 0.0
C1373 C 0.63147 0.84101 0.17227 0.0
C1374 C 0.62832 0.85968 0.15837 0.0
C1375 C 0.61882 0.86857 0.19863 0.0
C1376 C 0.61263 0.85762 0.25359 0.0
C1377 C 0.61589 0.83901 0.26757 0.0
C1378 C 0.63147 0.75241 0.34775 0.0
C1379 C 0.6944 0.82625 0.32226 0.0
O1380 O 0.68945 0.76497 0.36748 0.0
O1381 O 0.69664 0.7574 0.28077 0.0
O1382 O 0.67652 0.78885 0.2076 0.0
O1383 O 0.70807 0.80214 0.24858 0.0
O1384 O 0.65238 0.74373 0.24464 0.0
O1385 O 0.63287 0.75909 0.20218 0.0
O1386 O 0.63303 0.7992 0.20137 0.0
O1387 O 0.63075 0.80441 0.2932 0.0
O1388 O 0.65095 0.77084 0.34478 0.0
O1389 O 0.62073 0.75483 0.30418 0.0
O1390 O 0.67667 0.82156 0.2895 0.0
O1391 O 0.69739 0.80902 0.33644 0.0
H1392 H 0.653 0.72092 0.33991 0.0
H1393 H 0.63841 0.67991 0.34247 0.0
H1394 H 0.70691 0.69314 0.36694 0.0
H1395 H 0.72085 0.73373 0.36677 0.0
H1396 H 0.63826 0.83473 0.13898 0.0
H1397 H 0.63285 0.86676 0.11492 0.0
H1398 H 0.60528 0.86351 0.28638 0.0
H1399 H 0.61041 0.83114 0.31001 0.0
Tb1400 Tb 0.33119 0.92599 0.30097 0.0
Tb1401 Tb 0.3186 0.88273 0.26947 0.0
C1402 C 0.35096 0.96483 0.34708 0.0
C1403 C 0.37398 0.97941 0.36873 0.0
C1404 C 0.38857 0.97062 0.37489 0.0
C1405 C 0.41188 0.98518 0.37947 0.0
C1406 C 0.42071 1.00853 0.37335 0.0
C1407 C 0.40592 1.01734 0.37684 0.0
C1408 C 0.38252 1.00275 0.37425 0.0
C1409 C 0.30276 0.91697 0.20949 0.0
C1410 C 0.36643 0.91679 0.22272 0.0
C1411 C 0.29791 0.83977 0.2457 0.0
C1412 C 0.27621 0.81706 0.23363 0.0
C1413 C 0.27683 0.79661 0.23677 0.0
C1414 C 0.25747 0.77505 0.22511 0.0
C1415 C 0.23626 0.77263 0.20958 0.0
C1416 C 0.23556 0.79322 0.20755 0.0
C1417 C 0.25507 0.81489 0.21888 0.0
C1418 C 0.35292 0.89988 0.35551 0.0
C1419 C 0.28002 0.89027 0.32986 0.0
O1420 O 0.33886 0.94608 0.37627 0.0
O1421 O 0.34948 0.96132 0.29066 0.0
O1422 O 0.31735 0.90985 0.21461 0.0
O1423 O 0.30432 0.92812 0.25638 0.0
O1424 O 0.36353 0.93064 0.25889 0.0
O1425 O 0.34857 0.89655 0.21194 0.0
O1426 O 0.3061 0.85595 0.20652 0.0
O1427 O 0.30188 0.84841 0.29834 0.0
O1428 O 0.33496 0.90175 0.35207 0.0
O1429 O 0.35013 0.88637 0.31229 0.0
O1430 O 0.28477 0.87734 0.29657 0.0
O1431 O 0.29719 0.91046 0.3445 0.0
H1432 H 0.38216 0.95268 0.37022 0.0
H1433 H 0.42301 0.97816 0.38083 0.0
H1434 H 0.41244 1.03544 0.37263 0.0
H1435 H 0.3714 1.0098 0.37035 0.0
H1436 H 0.29262 0.79728 0.2479 0.0
H1437 H 0.25936 0.76018 0.22722 0.0
H1438 H 0.21977 0.79271 0.19781 0.0
H1439 H 0.25355 0.82996 0.21614 0.0
C1440 C 0.29994 0.07789 1.00006 0.0
C1441 C 0.28216 0.08198 1.01622 0.0
C1442 C 0.29617 0.0556 0.98808 0.0
C1443 C 0.27444 1.03583 0.9926 0.0
H1444 H 0.31696 0.09215 0.9951 0.0
H1445 H 0.31052 0.05395 0.97452 0.0
S1446 S 0.22204 1.03647 0.0365 0.0
N1447 N 0.24189 0.06352 0.03809 0.0
N1448 N 0.23494 1.02246 1.01638 0.0
C1449 C 0.25665 1.03968 1.01002 0.0
C1450 C 0.26043 0.06233 0.02149 0.0
C1451 C 0.06515 0.24479 0.03795 0.0
C1452 C 0.06886 0.26113 0.99445 0.0
C1453 C 1.04299 0.22634 0.05205 0.0
C1454 C 1.02302 0.22261 0.02263 0.0
H1455 H 0.07956 0.24617 0.06152 0.0
H1456 H 1.04161 0.21456 0.08566 0.0
S1457 S 1.02247 0.25978 0.90511 0.0
N1458 N 1.04959 0.2717 0.92249 0.0
N1459 N 1.00901 0.23763 0.9482 0.0
C1460 C 1.02652 0.2388 0.97928 0.0
C1461 C 1.04893 0.25772 0.96555 0.0
C1462 C 0.84138 0.8087 0.99878 0.0
C1463 C 0.84358 0.83055 1.00221 0.0
C1464 C 0.85966 0.80467 1.01161 0.0
C1465 C 0.88133 0.82216 0.03013 0.0
H1466 H 0.82534 0.79446 0.98505 0.0
H1467 H 0.85666 0.78753 1.00725 0.0
S1468 S 0.8967 0.88267 0.04735 0.0
N1469 N 0.86994 0.87 0.02626 0.0
N1470 N 0.90347 0.86254 0.05096 0.0
C1471 C 0.8836 0.844 0.03505 0.0
C1472 C 0.8651 0.84813 0.02129 0.0
C1473 C 1.05956 0.23648 0.50032 0.0
C1474 C 1.05639 0.25163 0.53663 0.0
C1475 C 0.08159 0.24 0.48596 0.0
C1476 C 0.10189 0.25849 0.50855 0.0
H1477 H 1.04484 0.22166 0.48262 0.0
H1478 H 0.08265 0.22774 0.45784 0.0
S1479 S 0.10388 0.3031 0.60583 0.0
N1480 N 0.07657 0.28661 0.59253 0.0
N1481 N 0.11687 0.29204 0.56935 0.0
C1482 C 0.09894 0.27361 0.54484 0.0
C1483 C 0.07669 0.27052 0.55775 0.0
C1484 C 0.83112 0.84539 0.54423 0.0
C1485 C 0.84316 0.86078 0.49842 0.0
C1486 C 0.83461 0.82702 0.55926 0.0
C1487 C 0.85041 0.82269 0.52974 0.0
H1488 H 0.8192 0.84785 0.57013 0.0
H1489 H 0.82516 0.81642 0.59578 0.0
S1490 S 0.88473 0.85577 0.40213 0.0
N1491 N 0.87031 0.86848 0.42012 0.0
N1492 N 0.87719 0.83493 0.44944 0.0
C1493 C 0.86212 0.83748 0.48292 0.0
C1494 C 0.85844 0.85609 0.46716 0.0
C1495 C 0.24929 1.02247 0.47704 0.0
C1496 C 0.24455 1.00232 0.5072 0.0
C1497 C 0.26785 0.04436 0.49219 0.0
C1498 C 0.28304 0.04772 0.53849 0.0
H1499 H 0.23852 1.02139 0.44101 0.0
H1500 H 0.27016 0.05889 0.46737 0.0
S1501 S 0.27686 1.00127 0.63641 0.0
N1502 N 0.25613 0.98804 0.58896 0.0
N1503 N 0.29043 1.02826 0.61688 0.0
C1504 C 0.27834 1.02771 0.56921 0.0
C1505 C 0.25944 1.00548 0.55383 0.0
C1506 C 0.83273 1.02881 0.06242 0.0
C1507 C 0.84947 0.04885 0.0345 0.0
C1508 C 0.82918 1.00677 0.04859 0.0
C1509 C 0.84202 1.0031 1.00548 0.0
H1510 H 0.82245 1.03013 0.09661 0.0
H1511 H 0.81605 0.99238 0.07207 0.0
S1512 S 0.88893 0.04965 0.92067 0.0
N1513 N 0.87954 0.0631 0.96216 0.0
N1514 N 0.8731 1.02244 0.9366 0.0
C1515 C 0.8589 1.02304 0.97737 0.0
C1516 C 0.86257 0.04551 0.99172 0.0
C1517 C 0.08354 0.86456 0.02478 0.0
C1518 C 0.10167 0.8611 1.00779 0.0
C1519 C 1.06128 0.8463 0.03739 0.0
C1520 C 1.05543 0.82318 0.0342 0.0
H1521 H 0.08664 0.88171 0.02966 0.0
H1522 H 1.04861 0.85047 0.05159 0.0
S1523 S 0.0952 0.80393 0.98512 0.0
N1524 N 0.11095 0.83189 0.98369 0.0
N1525 N 0.06986 0.79813 1.00829 0.0
C1526 C 0.07314 0.81937 1.01575 0.0
C1527 C 0.09585 0.83801 1.00255 0.0
C1528 C 0.26747 0.24498 0.98683 0.0
C1529 C 0.28209 0.25602 0.03493 0.0
C1530 C 0.24893 0.24839 0.97193 0.0
C1531 C 0.24329 0.26253 1.00527 0.0
H1532 H 0.27028 0.23341 0.96027 0.0
H1533 H 0.23851 0.2393 0.93471 0.0
S1534 S 0.27503 0.2951 0.13602 0.0
N1535 N 0.28909 0.28233 0.11493 0.0
N1536 N 0.25432 0.28762 0.08876 0.0
C1537 C 0.25773 0.27362 0.05314 0.0
C1538 C 0.27693 0.27071 0.06734 0.0
C1539 C 0.06628 0.84335 0.53676 0.0
C1540 C 0.06945 0.82893 0.49764 0.0
C1541 C 1.04433 0.8401 0.55092 0.0
C1542 C 1.02388 0.8222 0.52695 0.0
H1543 H 0.08099 0.85759 0.55643 0.0
H1544 H 1.04346 0.85188 0.58126 0.0
S1545 S 1.02193 0.78056 0.41858 0.0
N1546 N 1.04924 0.79624 0.43364 0.0
N1547 N 1.009 0.79074 0.45885 0.0
C1548 C 1.02683 0.80781 0.4876 0.0
C1549 C 1.0491 0.81098 0.47345 0.0
C1550 C 0.2592 0.21738 0.51393 0.0
C1551 C 0.28102 0.22075 0.52756 0.0
C1552 C 0.25532 0.2357 0.50109 0.0
C1553 C 0.27298 0.25869 0.50104 0.0
H1554 H 0.24488 0.20027 0.51187 0.0
H1555 H 0.23829 0.23167 0.48952 0.0
S1556 S 0.33274 0.27757 0.54057 0.0
N1557 N 0.32017 0.24967 0.54483 0.0
N1558 N 0.31304 0.28353 0.52029 0.0
C1559 C 0.29471 0.26235 0.51623 0.0
C1560 C 0.29866 0.2437 0.52938 0.0
C1561 C 0.86658 0.07679 0.48361 0.0
C1562 C 0.88379 0.08052 0.52414 0.0
C1563 C 0.84844 0.05469 0.46974 0.0
C1564 C 0.84624 1.03465 0.4949 0.0
H1565 H 0.86698 0.09119 0.46239 0.0
H1566 H 0.83616 0.05339 0.4379 0.0
S1567 S 0.88703 1.03419 0.60196 0.0
N1568 N 0.89741 0.06145 0.58823 0.0
N1569 N 0.86375 1.0205 0.56227 0.0
C1570 C 0.86338 1.03806 0.53528 0.0
C1571 C 0.88184 0.06064 0.54982 0.0
C1572 C 0.93493 0.39507 0.39436 0.0
C1573 C 0.9486 0.41472 0.36014 0.0
C1574 C 0.93115 0.37298 0.37923 0.0
C1575 C 0.941 0.36903 0.32922 0.0
H1576 H 0.92703 0.3967 0.43372 0.0
H1577 H 0.92042 0.35885 0.40736 0.0
S1578 S 0.97571 0.41363 0.22001 0.0
N1579 N 0.97007 0.42755 0.27008 0.0
N1580 N 0.96385 0.38717 0.24325 0.0
C1581 C 0.95443 0.38847 0.29434 0.0
C1582 C 0.958 0.41082 0.30927 0.0
C1583 C 0.71646 0.59389 0.31374 0.0
C1584 C 0.73645 0.59469 0.33457 0.0
C1585 C 0.69425 0.57568 0.32652 0.0
C1586 C 0.69039 0.55698 0.36172 0.0
H1587 H 0.71795 0.60737 0.28597 0.0
H1588 H 0.67991 0.57638 0.30858 0.0
S1589 S 0.73656 0.5499 0.42715 0.0
N1590 N 0.75038 0.57437 0.39244 0.0
N1591 N 0.70932 0.54063 0.4164 0.0
C1592 C 0.71024 0.55763 0.38342 0.0
C1593 C 0.73289 0.57617 0.36999 0.0
C1594 C 0.53183 0.17705 0.30387 0.0
C1595 C 0.51076 0.16654 0.33347 0.0
C1596 C 0.54946 0.17228 0.31721 0.0
C1597 C 0.54745 0.15695 0.36186 0.0
H1598 H 0.53461 0.18881 0.26883 0.0
H1599 H 0.56503 0.181 0.29228 0.0
S1600 S 0.49592 0.12553 0.45489 0.0
N1601 N 0.4891 0.14022 0.41034 0.0
N1602 N 0.52188 0.13166 0.43669 0.0
C1603 C 0.52647 0.14663 0.39259 0.0
C1604 C 0.50835 0.15123 0.37806 0.0
C1605 C 0.74901 0.57551 0.85041 0.0
C1606 C 0.76706 0.59728 0.83484 0.0
C1607 C 0.72679 0.57135 0.86369 0.0
C1608 C 0.72115 0.58877 0.8636 0.0
H1609 H 0.75204 0.56135 0.8525 0.0
H1610 H 0.71407 0.55433 0.87634 0.0
S1611 S 0.76155 0.64895 0.82553 0.0
N1612 N 0.77699 0.63651 0.81915 0.0
N1613 N 0.73592 0.62887 0.84527 0.0
C1614 C 0.73887 0.61057 0.84736 0.0
C1615 C 0.76146 0.61474 0.83273 0.0
C1616 C 0.49985 0.16035 0.88774 0.0
C1617 C 0.51795 0.15807 0.86423 0.0
C1618 C 0.49608 0.17862 0.8727 0.0
C1619 C 0.51031 0.19619 0.8335 0.0
H1620 H 0.48865 0.14809 0.91946 0.0
H1621 H 0.48211 0.17926 0.89351 0.0
S1622 S 0.5593 0.19793 0.75551 0.0
N1623 N 0.54967 0.17509 0.7968 0.0
N1624 N 0.54271 0.20869 0.76865 0.0
C1625 C 0.52819 0.19382 0.80873 0.0
C1626 C 0.53195 0.17516 0.82392 0.0
C1627 C 0.90817 0.35831 0.81412 0.0
C1628 C 0.90593 0.33776 0.83639 0.0
C1629 C 0.92651 0.38034 0.83006 0.0
C1630 C 0.94389 0.3834 0.86958 0.0
H1631 H 0.89565 0.35744 0.78354 0.0
H1632 H 0.927 0.39514 0.81115 0.0
S1633 S 0.94498 0.33549 0.94546 0.0
N1634 N 0.9224 0.32266 0.90349 0.0
N1635 N 0.95596 0.36291 0.93317 0.0
C1636 C 0.94147 0.36293 0.89274 0.0
C1637 C 0.92294 0.34064 0.87636 0.0
C1638 C 0.49418 0.3419 0.37114 0.0
C1639 C 0.5077 0.33798 0.33077 0.0
C1640 C 0.49805 0.3641 0.38442 0.0
C1641 C 0.51597 0.38411 0.35914 0.0
H1642 H 0.48026 0.32759 0.39285 0.0
H1643 H 0.48705 0.36554 0.41618 0.0
S1644 S 0.55728 0.3842 0.25234 0.0
N1645 N 0.54041 0.35698 0.26654 0.0
N1646 N 0.54763 0.39797 0.29162 0.0
C1647 C 0.52967 0.3805 0.31884 0.0
C1648 C 0.52558 0.35785 0.30475 0.0
C1649 C 0.72811 0.18199 0.37036 0.0
C1650 C 0.72114 0.15892 0.35968 0.0
C1651 C 0.75044 0.19993 0.35726 0.0
C1652 C 0.76731 0.19608 0.33202 0.0
H1653 H 0.71634 0.18627 0.39062 0.0
H1654 H 0.75458 0.21708 0.36809 0.0
S1655 S 0.75667 0.13894 0.28659 0.0
N1656 N 0.73261 0.13349 0.31794 0.0
N1657 N 0.77377 0.16671 0.29139 0.0
C1658 C 0.7602 0.17302 0.31943 0.0
C1659 C 0.73752 0.15473 0.33364 0.0
C1660 C 0.91566 0.58195 0.3098 0.0
C1661 C 0.90939 0.59514 0.34519 0.0
C1662 C 0.93392 0.57811 0.3247 0.0
C1663 C 0.94753 0.58769 0.37518 0.0
H1664 H 0.90601 0.57399 0.27064 0.0
H1665 H 0.93741 0.5675 0.29613 0.0
S1666 S 0.93858 0.6236 0.48314 0.0
N1667 N 0.91898 0.61786 0.43341 0.0
N1668 N 0.95255 0.61092 0.46082 0.0
C1669 C 0.94153 0.6011 0.41036 0.0
C1670 C 0.92284 0.60472 0.39567 0.0
C1671 C 0.73209 0.17391 0.8735 0.0
C1672 C 0.73529 0.16256 0.82552 0.0
C1673 C 0.71031 0.17068 0.88934 0.0
C1674 C 0.69015 0.156 0.858 0.0
H1675 H 0.74665 0.18558 0.89928 0.0
H1676 H 0.70933 0.17986 0.92688 0.0
S1677 S 0.68884 0.1243 0.72443 0.0
N1678 N 0.7157 0.13685 0.74484 0.0
N1679 N 0.6758 0.1316 0.77307 0.0
C1680 C 0.6932 0.14491 0.80944 0.0
C1681 C 0.71528 0.14796 0.79372 0.0
C1682 C 0.95718 0.59284 0.8181 0.0
C1683 C 0.93749 0.59339 0.83602 0.0
C1684 C 0.96122 0.57485 0.83325 0.0
C1685 C 0.94596 0.55617 0.86794 0.0
H1686 H 0.96968 0.60639 0.79118 0.0
H1687 H 0.97668 0.57576 0.8177 0.0
S1688 S 0.89128 0.5484 0.92546 0.0
N1689 N 0.90226 0.57278 0.89023 0.0
N1690 N 0.9097 0.53946 0.91842 0.0
C1691 C 0.92621 0.55652 0.88643 0.0
C1692 C 0.92204 0.57482 0.87065 0.0
C1693 C 0.52541 0.41012 0.85077 0.0
C1694 C 0.54818 0.41506 0.85745 0.0
C1695 C 0.50712 0.38777 0.8378 0.0
C1696 C 0.51025 0.36873 0.83166 0.0
H1697 H 0.52169 0.42382 0.85368 0.0
H1698 H 0.49036 0.38549 0.83123 0.0
S1699 S 0.56583 0.37136 0.85063 0.0
N1700 N 0.57201 0.39789 0.86075 0.0
N1701 N 0.53833 0.35676 0.83715 0.0
C1702 C 0.53274 0.37329 0.84072 0.0
C1703 C 0.55135 0.39603 0.85315 0.0
C1704 C 0.63416 0.74545 0.66082 0.0
C1705 C 0.61855 0.74941 0.69269 0.0
C1706 C 0.63023 0.7231 0.64877 0.0
C1707 C 0.6104 0.70315 0.66757 0.0
H1708 H 0.64934 0.75976 0.64327 0.0
H1709 H 0.64261 0.72149 0.62269 0.0
S1710 S 0.56551 0.70351 0.76001 0.0
N1711 N 0.58349 0.73069 0.74847 0.0
N1712 N 0.576 0.68957 0.72501 0.0
C1713 C 0.59522 0.70693 0.70177 0.0
C1714 C 0.59926 0.72962 0.71428 0.0
C1715 C 0.36162 0.91056 0.6676 0.0
C1716 C 0.35759 0.88898 0.6863 0.0
C1717 C 0.38387 0.92896 0.65501 0.0
C1718 C 0.40371 0.9272 0.66113 0.0
H1719 H 0.34734 0.91317 0.66114 0.0
H1720 H 0.38545 0.94471 0.63955 0.0
S1721 S 0.40329 0.87514 0.71294 0.0
N1722 N 0.37621 0.86778 0.71306 0.0
N1723 N 0.41721 0.90168 0.69002 0.0
C1724 C 0.39993 0.9059 0.68132 0.0
C1725 C 0.3773 0.88714 0.69357 0.0
C1726 C 0.17395 0.47766 0.69253 0.0
C1727 C 0.17772 0.49898 0.67224 0.0
C1728 C 0.19216 0.47354 0.70559 0.0
C1729 C 0.21531 0.49021 0.6973 0.0
H1730 H 0.15669 0.46386 0.6978 0.0
H1731 H 0.18798 0.4568 0.72055 0.0
S1732 S 0.2349 0.54894 0.64523 0.0
N1733 N 0.207 0.53705 0.6457 0.0
N1734 N 0.24049 0.52926 0.66816 0.0
C1735 C 0.21922 0.51156 0.67731 0.0
C1736 C 0.20078 0.51592 0.66546 0.0
C1737 C 0.39344 0.90789 0.16221 0.0
C1738 C 0.3904 0.92214 0.20237 0.0
C1739 C 0.41534 0.91125 0.1468 0.0
C1740 C 0.43576 0.92883 0.17142 0.0
H1741 H 0.37867 0.89367 0.14272 0.0
H1742 H 0.41618 0.89949 0.11631 0.0
S1743 S 0.43847 0.97129 0.27713 0.0
N1744 N 0.41096 0.95517 0.26506 0.0
N1745 N 0.45116 0.96106 0.23639 0.0
C1746 C 0.43302 0.94332 0.21056 0.0
C1747 C 0.41083 0.94014 0.22582 0.0
C1748 C 0.19285 0.52458 0.15035 0.0
C1749 C 0.17591 0.52806 0.17687 0.0
C1750 C 0.19622 0.50602 0.16529 0.0
C1751 C 0.18295 0.48952 0.20791 0.0
H1752 H 0.20375 0.53636 0.11732 0.0
H1753 H 0.20967 0.50478 0.14335 0.0
S1754 S 0.13759 0.49157 0.29463 0.0
N1755 N 0.14661 0.51355 0.25082 0.0
N1756 N 0.15264 0.47935 0.27834 0.0
C1757 C 0.16604 0.49292 0.23482 0.0
C1758 C 0.16264 0.51181 0.21962 0.0
C1759 C 0.59472 0.71305 0.18258 0.0
C1760 C 0.6176 0.71823 0.18611 0.0
C1761 C 0.57665 0.69105 0.16779 0.0
C1762 C 0.58016 0.67266 0.15478 0.0
H1763 H 0.59048 0.72599 0.19352 0.0
H1764 H 0.55957 0.68836 0.16795 0.0
S1765 S 0.63716 0.67782 0.14659 0.0
N1766 N 0.64278 0.70321 0.16916 0.0
N1767 N 0.6093 0.66248 0.13964 0.0
C1768 C 0.60311 0.67786 0.15551 0.0
C1769 C 0.62156 0.7003 0.17143 0.0
C1770 C 0.16449 0.69582 0.72186 0.0
C1771 C 0.18517 0.71579 0.70844 0.0
C1772 C 0.16043 0.67356 0.70847 0.0
C1773 C 0.17704 0.66975 0.68183 0.0
H1774 H 0.15138 0.69736 0.7443 0.0
H1775 H 0.14426 0.65915 0.72077 0.0
S1776 S 0.23403 0.71578 0.63493 0.0
N1777 N 0.22231 0.72963 0.66441 0.0
N1778 N 0.21496 0.68855 0.64045 0.0
C1779 C 0.19773 0.68956 0.66758 0.0
C1780 C 0.20171 0.7122 0.68047 0.0
C1781 C 0.41639 0.53234 0.67564 0.0
C1782 C 0.43574 0.52962 0.67108 0.0
C1783 C 0.39419 0.514 0.6892 0.0
C1784 C 0.38966 0.49154 0.69935 0.0
H1785 H 0.41842 0.54904 0.66978 0.0
H1786 H 0.3805 0.51767 0.6932 0.0
S1787 S 0.43304 0.47382 0.68522 0.0
N1788 N 0.4476 0.50139 0.67267 0.0
N1789 N 0.40676 0.46768 0.69915 0.0
C1790 C 0.40867 0.48843 0.69363 0.0
C1791 C 0.43125 0.50707 0.67938 0.0
C1792 C 0.61641 0.94208 0.72396 0.0
C1793 C 0.61788 0.92353 0.70027 0.0
C1794 C 0.59794 0.94581 0.71182 0.0
C1795 C 0.57969 0.93142 0.67451 0.0
H1796 H 0.62952 0.95374 0.7534 0.0
H1797 H 0.59805 0.96029 0.73195 0.0
S1798 S 0.57432 0.87984 0.60193 0.0
N1799 N 0.59852 0.89029 0.6379 0.0
N1800 N 0.56448 0.89721 0.61521 0.0
C1801 C 0.58101 0.91287 0.6503 0.0
C1802 C 0.59973 0.90897 0.66303 0.0
C1803 C 0.36279 0.47928 0.16362 0.0
C1804 C 0.35893 0.49489 0.19555 0.0
C1805 C 0.38497 0.48352 0.14972 0.0
C1806 C 0.405 0.50374 0.16601 0.0
H1807 H 0.34844 0.46337 0.14935 0.0
H1808 H 0.38633 0.47071 0.12514 0.0
S1809 S 0.40509 0.55099 0.24851 0.0
N1810 N 0.37785 0.53205 0.24211 0.0
N1811 N 0.41893 0.53984 0.21597 0.0
C1812 C 0.40146 0.51956 0.19798 0.0
C1813 C 0.3788 0.51519 0.21263 0.0
C1814 C 0.59571 0.88979 0.19931 0.0
C1815 C 0.61551 0.88901 0.18359 0.0
C1816 C 0.59241 0.90839 0.18422 0.0
C1817 C 0.60889 0.92787 0.15359 0.0
H1818 H 0.58224 0.87556 0.22246 0.0
H1819 H 0.57653 0.9073 0.1965 0.0
S1820 S 0.66452 0.93527 0.10525 0.0
N1821 N 0.65209 0.91017 0.13658 0.0
N1822 N 0.64676 0.94504 0.11167 0.0
C1823 C 0.62909 0.92756 0.13956 0.0
C1824 C 0.63213 0.90835 0.15349 0.0
C1825 C 0.21115 0.72877 0.22362 0.0
C1826 C 0.2155 0.74902 0.19458 0.0
C1827 C 0.1926 0.70681 0.2085 0.0
C1828 C 0.17699 0.70343 0.16324 0.0
H1829 H 0.22221 0.72979 0.25883 0.0
H1830 H 0.19064 0.69225 0.2325 0.0
S1831 S 0.1818 0.75016 0.06864 0.0
N1832 N 0.20288 0.76336 0.11511 0.0
N1833 N 0.16878 0.72306 0.08703 0.0
C1834 C 0.18129 0.72354 0.13362 0.0
C1835 C 0.20014 0.74584 0.14908 0.0
C1836 C 0.40181 0.22931 0.16208 0.0
C1837 C 0.37797 0.21456 0.16483 0.0
C1838 C 0.41774 0.2219 0.17385 0.0
C1839 C 0.41108 0.19911 0.18861 0.0
H1840 H 0.40838 0.24691 0.15035 0.0
H1841 H 0.43563 0.23435 0.17122 0.0
S1842 S 0.35088 0.15343 0.20539 0.0
N1843 N 0.34889 0.17581 0.1868 0.0
N1844 N 0.37827 0.16205 0.2069 0.0
C1845 C 0.38731 0.1842 0.19174 0.0
C1846 C 0.37107 0.19181 0.18045 0.0
C1847 C 0.9103 0.20153 0.17287 0.0
C1848 C 0.88699 0.18455 0.16918 0.0
C1849 C 0.91779 0.225 0.18405 0.0
C1850 C 0.90256 0.23333 0.19199 0.0
H1851 H 0.9231 0.19669 0.16693 0.0
H1852 H 0.93586 0.23675 0.18669 0.0
S1853 S 0.83956 0.19649 0.18727 0.0
N1854 N 0.84876 0.17853 0.17502 0.0
N1855 N 0.86246 0.22167 0.19541 0.0
C1856 C 0.87919 0.21651 0.18831 0.0
C1857 C 0.87158 0.19263 0.17715 0.0
C1858 C 0.88854 0.68575 0.19332 0.0
C1859 C 0.87147 0.69204 0.19498 0.0
C1860 C 0.91208 0.70162 0.18222 0.0
C1861 C 0.92048 0.72511 0.17244 0.0
H1862 H 0.88372 0.6682 0.20085 0.0
H1863 H 0.92383 0.69527 0.18127 0.0
S1864 S 0.88346 0.75115 0.17051 0.0
N1865 N 0.8655 0.72415 0.18454 0.0
N1866 N 0.90867 0.75337 0.1644 0.0
C1867 C 0.90355 0.7316 0.17381 0.0
C1868 C 0.8796 0.71542 0.18479 0.0
C1869 C 0.21113 0.37073 0.34508 0.0
C1870 C 0.22628 0.39438 0.3379 0.0
C1871 C 0.21862 0.35472 0.35606 0.0
C1872 C 0.2419 0.36091 0.36067 0.0
H1873 H 0.19306 0.36433 0.34215 0.0
H1874 H 0.20571 0.33708 0.36142 0.0
S1875 S 0.28925 0.42053 0.34496 0.0
N1876 N 0.26639 0.4228 0.33598 0.0
N1877 N 0.28008 0.39333 0.35651 0.0
C1878 C 0.25728 0.38451 0.3534 0.0
C1879 C 0.24965 0.40087 0.34214 0.0
C1880 C 0.70697 0.86922 0.33061 0.0
C1881 C 0.71197 0.85136 0.33729 0.0
C1882 C 0.72323 0.89265 0.34177 0.0
C1883 C 0.74589 0.90008 0.35927 0.0
H1884 H 0.69014 0.86507 0.31667 0.0
H1885 H 0.7179 0.9051 0.33631 0.0
S1886 S 0.76854 0.86071 0.38201 0.0
N1887 N 0.74193 0.84354 0.36266 0.0
N1888 N 0.77203 0.88654 0.3819 0.0
C1889 C 0.7511 0.88234 0.36561 0.0
C1890 C 0.73446 0.85851 0.35515 0.0
C1891 C 0.24757 0.89807 0.36103 0.0
C1892 C 0.25491 0.88258 0.34508 0.0
C1893 C 0.22415 0.89113 0.37128 0.0
C1894 C 0.20635 0.86816 0.36678 0.0
H1895 H 0.26002 0.91594 0.36485 0.0
H1896 H 0.22002 0.90405 0.38332 0.0
S1897 S 0.21583 0.82027 0.32841 0.0
N1898 N 0.2416 0.84267 0.32671 0.0
N1899 N 0.19865 0.82992 0.34598 0.0
C1900 C 0.21355 0.85251 0.35151 0.0
C1901 C 0.23729 0.85957 0.34071 0.0
C1902 C 0.75322 0.89089 0.85181 0.0
C1903 C 0.74677 0.86758 0.85713 0.0
C1904 C 0.73726 0.89841 0.84127 0.0
C1905 C 0.71357 0.88324 0.83594 0.0
H1906 H 0.77096 0.90367 0.85579 0.0
H1907 H 0.74372 0.91647 0.83704 0.0
S1908 S 0.68689 0.82034 0.849 0.0
N1909 N 0.71421 0.82944 0.85731 0.0
N1910 N 0.68477 0.84324 0.83902 0.0
C1911 C 0.70686 0.85989 0.84193 0.0
C1912 C 0.72313 0.85223 0.85206 0.0
C1913 C 0.20843 0.86079 0.83966 0.0
C1914 C 0.22299 0.85148 0.84202 0.0
C1915 C 0.21629 0.88442 0.84951 0.0
C1916 C 0.23934 0.90061 0.86196 0.0
H1917 H 0.19066 0.84974 0.82951 0.0
H1918 H 0.20396 0.89002 0.84728 0.0
S1919 S 0.2848 0.88568 0.87617 0.0
N1920 N 0.262 0.86117 0.86042 0.0
N1921 N 0.27643 0.90465 0.87758 0.0
C1922 C 0.25404 0.89151 0.86483 0.0
C1923 C 0.24603 0.86744 0.85526 0.0
C1924 C 0.22282 0.35309 0.85635 0.0
C1925 C 0.20616 0.3596 0.86563 0.0
C1926 C 0.2463 0.36913 0.84475 0.0
C1927 C 0.25499 0.39295 0.84153 0.0
H1928 H 0.21772 0.33526 0.85812 0.0
H1929 H 0.25776 0.36264 0.83794 0.0
S1930 S 0.21926 0.41973 0.86453 0.0
N1931 N 0.20103 0.39237 0.87187 0.0
N1932 N 0.24403 0.42179 0.85068 0.0
C1933 C 0.23851 0.39965 0.85139 0.0
C1934 C 0.21467 0.38336 0.86314 0.0
C1935 C 0.87397 0.70297 0.67504 0.0
C1936 C 0.88926 0.72663 0.66929 0.0
C1937 C 0.88134 0.68692 0.68607 0.0
C1938 C 0.90458 0.6932 0.69196 0.0
H1939 H 0.85594 0.69663 0.67069 0.0
H1940 H 0.86844 0.66922 0.69026 0.0
S1941 S 0.95213 0.75286 0.68114 0.0
N1942 N 0.92936 0.75516 0.67096 0.0
N1943 N 0.94282 0.72555 0.69099 0.0
C1944 C 0.92006 0.71678 0.68619 0.0
C1945 C 0.91257 0.73316 0.67512 0.0
C1946 C 0.40161 0.19354 0.68153 0.0
C1947 C 0.37848 0.18551 0.66782 0.0
C1948 C 0.41765 0.21707 0.69159 0.0
C1949 C 0.41193 0.23452 0.68824 0.0
H1950 H 0.40752 0.18148 0.68472 0.0
H1951 H 0.43488 0.22158 0.70246 0.0
S1952 S 0.35395 0.22352 0.65194 0.0
N1953 N 0.35115 0.19796 0.65046 0.0
N1954 N 0.38074 0.24126 0.66883 0.0
C1955 C 0.38891 0.22676 0.67407 0.0
C1956 C 0.37252 0.20277 0.66408 0.0
C1957 C 0.90451 0.19646 0.67348 0.0
C1958 C 0.92161 0.21979 0.66968 0.0
C1959 C 0.88102 0.18893 0.68444 0.0
C1960 C 0.87256 0.20408 0.69225 0.0
H1961 H 0.90926 0.18359 0.6675 0.0
H1962 H 0.86931 0.17083 0.68693 0.0
S1963 S 0.90945 0.26714 0.68685 0.0
N1964 N 0.9275 0.25799 0.67537 0.0
N1965 N 0.88427 0.24422 0.69485 0.0
C1966 C 0.88946 0.22749 0.68853 0.0
C1967 C 0.91345 0.23516 0.67766 0.0
C1968 C 0.06795 0.56323 0.51843 0.0
C1969 C 1.04477 0.54813 0.50521 0.0
C1970 C 0.08384 0.55565 0.52962 0.0
C1971 C 0.07792 0.53237 0.52818 0.0
H1972 H 0.07402 0.58128 0.52036 0.0
H1973 H 0.10111 0.56841 0.54011 0.0
S1974 S 1.01988 0.48535 0.49235 0.0
N1975 N 1.01726 0.50818 0.48955 0.0
N1976 N 1.04661 0.49439 0.50967 0.0
C1977 C 1.0549 0.51711 0.51406 0.0
C1978 C 1.03865 0.5248 0.50292 0.0
C1979 C 0.58416 0.56079 0.49979 0.0
C1980 C 0.56941 0.5681 0.52217 0.0
C1981 C 0.57698 0.53733 0.48939 0.0
C1982 C 0.55447 0.51939 0.5002 0.0
H1983 H 0.60165 0.57333 0.49068 0.0
H1984 H 0.58934 0.53326 0.47206 0.0
S1985 S 0.50861 0.52858 0.55887 0.0
N1986 N 0.5307 0.5545 0.55487 0.0
N1987 N 0.51751 0.51144 0.53501 0.0
C1988 C 0.53954 0.52649 0.52234 0.0
C1989 C 0.54687 0.55032 0.53334 0.0
C1990 C 0.57859 1.03655 0.50784 0.0
C1991 C 0.58698 0.0601 0.49963 0.0
C1992 C 0.55513 1.02067 0.51958 0.0
C1993 C 0.53815 1.02704 0.52375 0.0
H1994 H 0.59028 1.03016 0.50507 0.0
H1995 H 0.55032 1.00305 0.52584 0.0
S1996 S 0.55015 0.08637 0.50427 0.0
N1997 N 0.57526 0.08854 0.49576 0.0
N1998 N 0.53222 0.05928 0.51733 0.0
C1999 C 0.54626 0.05049 0.51518 0.0
C2000 C 0.57013 0.06668 0.50336 0.0
C2001 C 0.54933 1.02163 0.01939 0.0
C2002 C 0.57263 1.02775 0.0215 0.0
C2003 C 0.54187 1.03772 1.00952 0.0
C2004 C 0.5571 0.06128 1.00109 0.0
H2005 H 0.53647 1.00404 0.02582 0.0
H2006 H 0.52379 1.03147 1.00826 0.0
S2007 S 0.62009 0.08703 1.00137 0.0
N2008 N 0.61085 0.05986 1.01348 0.0
N2009 N 0.59723 0.08946 0.99519 0.0
C2010 C 0.58046 0.06763 1.0029 0.0
C2011 C 0.58804 0.05123 1.01294 0.0
C2012 C 1.04102 0.53428 1.01472 0.0
C2013 C 1.04684 0.51693 1.0106 0.0
C2014 C 1.05734 0.55766 0.0255 0.0
C2015 C 0.08086 0.56565 0.0327 0.0
H2016 H 1.02348 0.52983 1.00916 0.0
H2017 H 1.05129 0.56964 0.02822 0.0
S2018 S 0.10596 0.52792 0.02635 0.0
N2019 N 0.07866 0.51025 1.01509 0.0
N2020 N 0.10877 0.55332 0.03486 0.0
C2021 C 0.08696 0.54851 0.02881 0.0
C2022 C 0.0703 0.52464 0.01796 0.0
C2023 C 0.54695 0.52146 0.01952 0.0
C2024 C 0.53844 0.53663 0.02505 0.0
C2025 C 0.5705 0.52908 1.00944 0.0
C2026 C 0.58738 0.55243 1.00444 0.0
H2027 H 0.53531 0.5034 0.02344 0.0
H2028 H 0.5755 0.51632 1.00537 0.0
S2029 S 0.57493 0.59973 1.0161 0.0
N2030 N 0.54987 0.57678 0.02484 0.0
N2031 N 0.59305 0.59059 1.00642 0.0
C2032 C 0.57911 0.56776 1.01009 0.0
C2033 C 0.55518 0.56006 0.02019 0.0
C2034 C 0.37915 0.2766 0.92401 0.0
C2035 C 0.3752 0.25964 0.9659 0.0
C2036 C 0.3982 0.2864 0.88532 0.0
C2037 C 0.41534 0.28024 0.88415 0.0
H2038 H 0.3675 0.28305 0.92193 0.0
H2039 H 0.39961 0.29954 0.85617 0.0
S2040 S 0.41418 0.2364 0.98381 0.0
N2041 N 0.39101 0.23699 1.00264 0.0
N2042 N 0.42623 0.25498 0.93033 0.0
C2043 C 0.41148 0.26278 0.92473 0.0
C2044 C 0.39184 0.25273 0.96496 0.0
C2045 C 0.8304 0.12592 0.92265 0.0
C2046 C 0.84544 0.13822 0.9691 0.0
C2047 C 0.82115 0.13546 0.88298 0.0
C2048 C 0.82591 0.15837 0.88538 0.0
H2049 H 0.82499 0.10809 0.91758 0.0
H2050 H 0.80944 0.12419 0.85024 0.0
S2051 S 0.86414 0.19909 0.99862 0.0
N2052 N 0.86459 0.1756 1.01439 0.0
N2053 N 0.84752 0.19328 0.94085 0.0
C2054 C 0.84139 0.17128 0.93094 0.0
C2055 C 0.85093 0.16141 0.97195 0.0
C2056 C 0.96132 0.71104 0.87378 0.0
C2057 C 0.94223 0.68967 0.88818 0.0
C2058 C 0.9709 0.73024 0.91256 0.0
C2059 C 0.96222 0.73003 0.96926 0.0
H2060 H 0.96985 0.71271 0.83256 0.0
H2061 H 0.98626 0.7453 0.89871 0.0
S2062 S 0.9123 0.67867 0.03115 0.0
N2063 N 0.91497 0.67001 0.96555 0.0
N2064 N 0.93253 0.70554 0.03689 0.0
C2065 C 0.94264 0.70898 0.98389 0.0
C2066 C 0.9329 0.68921 0.94424 0.0
C2067 C 0.28774 0.37723 0.54202 0.0
C2068 C 0.27427 0.35452 0.56254 0.0
C2069 C 0.29822 0.39678 0.58019 0.0
C2070 C 0.29589 0.3954 0.64214 0.0
H2071 H 0.29148 0.3799 0.49579 0.0
H2072 H 0.30922 0.4132 0.56074 0.0
S2073 S 0.26339 0.34033 0.72056 0.0
N2074 N 0.26016 0.3325 0.65124 0.0
N2075 N 0.27887 0.36833 0.72105 0.0
C2076 C 0.28211 0.37285 0.66305 0.0
C2077 C 0.27171 0.35293 0.62427 0.0
C2078 C 0.73241 0.95078 0.64764 0.0
C2079 C 0.71379 0.92819 0.64427 0.0
C2080 C 0.75143 0.9598 0.60887 0.0
C2081 C 0.75382 0.94722 0.56251 0.0
H2082 H 0.73218 0.96216 0.68044 0.0
H2083 H 0.76432 0.97745 0.61448 0.0
S2084 S 0.71056 0.88686 0.53189 0.0
N2085 N 0.69976 0.89313 0.58901 0.0
N2086 N 0.73498 0.90993 0.51675 0.0
C2087 C 0.73567 0.9243 0.55894 0.0
C2088 C 0.71606 0.91496 0.59914 0.0
C2089 C 0.15217 0.81917 0.61895 0.0
C2090 C 0.16167 0.82873 0.5638 0.0
C2091 C 0.16213 0.81031 0.65852 0.0
C2092 C 0.1824 0.80976 0.64648 0.0
H2093 H 0.13609 0.81767 0.6311 0.0
H2094 H 0.15298 0.80259 0.69845 0.0
S2095 S 0.21473 0.83206 0.50778 0.0
N2096 N 0.19345 0.83703 0.50008 0.0
N2097 N 0.21148 0.82004 0.57246 0.0
C2098 C 0.19244 0.81964 0.5918 0.0
C2099 C 0.18239 0.82908 0.55151 0.0
C2100 C 0.73442 0.83322 0.14759 0.0
C2101 C 0.71345 0.81216 0.14607 0.0
C2102 C 0.75182 0.84021 0.10359 0.0
C2103 C 0.74996 0.82642 0.05493 0.0
H2104 H 0.73787 0.84429 0.18495 0.0
H2105 H 0.76742 0.85619 0.10956 0.0
S2106 S 0.69909 0.76935 0.02827 0.0
N2107 N 0.69247 0.77771 0.08934 0.0
N2108 N 0.72442 0.79014 1.00892 0.0
C2109 C 0.72892 0.80543 0.0524 0.0
C2110 C 0.71107 0.79853 0.09675 0.0
C2111 C 0.26738 0.9378 0.11946 0.0
C2112 C 0.27553 0.94147 0.06128 0.0
C2113 C 0.27531 0.92857 0.16394 0.0
C2114 C 0.29235 0.92242 0.15485 0.0
H2115 H 0.25545 0.9432 0.13189 0.0
H2116 H 0.26852 0.92715 0.20752 0.0
S2117 S 0.31986 0.92827 1.01046 0.0
N2118 N 0.30203 0.9376 0.99766 0.0
N2119 N 0.31662 0.92068 0.07991 0.0
C2120 C 0.30024 0.92536 0.0964 0.0
C2121 C 0.29208 0.93476 0.05075 0.0
C2122 C 0.15712 0.37576 0.1526 0.0
C2123 C 0.1797 0.39436 0.14849 0.0
C2124 C 0.14769 0.35676 0.11353 0.0
C2125 C 0.15981 0.35429 0.06622 0.0
H2126 H 0.14604 0.37603 0.18617 0.0
H2127 H 0.13005 0.34395 0.11966 0.0
S2128 S 0.21987 0.39755 0.0329 0.0
N2129 N 0.21418 0.40834 0.09107 0.0
N2130 N 0.19665 0.37312 0.01849 0.0
C2131 C 0.18272 0.37241 0.06184 0.0
C2132 C 0.19248 0.39205 0.10223 0.0
C2133 C 0.83029 0.72702 0.42569 0.0
C2134 C 0.84619 0.73037 0.47018 0.0
C2135 C 0.8207 0.70796 0.38689 0.0
C2136 C 0.82601 0.69023 0.38841 0.0
H2137 H 0.82448 0.73915 0.42162 0.0
H2138 H 0.80832 0.70696 0.35561 0.0
S2139 S 0.86693 0.6897 0.49563 0.0
N2140 N 0.86698 0.71342 0.51226 0.0
N2141 N 0.8493 0.6781 0.43996 0.0
C2142 C 0.84245 0.69348 0.43165 0.0
C2143 C 0.85231 0.71316 0.47186 0.0
C2144 C 0.39678 0.13543 0.48163 0.0
C2145 C 0.37813 0.13934 0.47875 0.0
C2146 C 0.41568 0.14529 0.44237 0.0
C2147 C 0.41795 0.1601 0.39593 0.0
H2148 H 0.39668 0.12395 0.51447 0.0
H2149 H 0.42859 0.14056 0.4477 0.0
S2150 S 0.37443 0.17681 0.36596 0.0
N2151 N 0.36387 0.16002 0.42345 0.0
N2152 N 0.39884 0.17819 0.35039 0.0
C2153 C 0.39974 0.16476 0.39273 0.0
C2154 C 0.38024 0.15462 0.4334 0.0
C2155 C 0.97183 0.26276 0.4082 0.0
C2156 C 0.96243 0.25252 0.46299 0.0
C2157 C 0.96247 0.27308 0.37156 0.0
C2158 C 0.94278 0.27427 0.38614 0.0
H2159 H 0.9875 0.26374 0.39418 0.0
H2160 H 0.97152 0.28118 0.33181 0.0
S2161 S 0.91039 0.25004 0.52383 0.0
N2162 N 0.93116 0.24418 0.52871 0.0
N2163 N 0.91392 0.26337 0.46105 0.0
C2164 C 0.93265 0.26354 0.44004 0.0
C2165 C 0.94223 0.25285 0.47767 0.0
C2166 C 0.06384 0.61838 0.22431 0.0
C2167 C 0.08107 0.61232 0.22317 0.0
C2168 C 1.04482 0.60869 0.26326 0.0
C2169 C 1.04092 0.59192 0.30577 0.0
H2170 H 0.06512 0.63137 0.19476 0.0
H2171 H 1.03312 0.61508 0.26077 0.0
S2172 S 0.08009 0.56889 0.32425 0.0
N2173 N 0.09203 0.58727 0.27028 0.0
N2174 N 1.05693 0.56953 0.34306 0.0
C2175 C 1.05766 0.58511 0.305 0.0
C2176 C 0.07727 0.59504 0.26441 0.0
C2177 C 0.49099 0.47441 0.31634 0.0
C2178 C 0.51282 0.47677 0.3088 0.0
C2179 C 0.48204 0.48507 0.2796 0.0
C2180 C 0.49392 0.49914 0.23128 0.0
H2181 H 0.48013 0.46353 0.35085 0.0
H2182 H 0.46494 0.48153 0.2884 0.0
S2183 S 0.55208 0.51175 0.18952 0.0
N2184 N 0.54636 0.49519 0.24729 0.0
N2185 N 0.52971 0.5148 0.17894 0.0
C2186 C 0.51609 0.50222 0.22347 0.0
C2187 C 0.52536 0.49129 0.26152 0.0
C2188 C 0.63869 0.06591 0.2378 0.0
C2189 C 0.62993 0.0659 0.29421 0.0
C2190 C 0.62909 0.04657 0.19947 0.0
C2191 C 0.60997 1.0252 0.21413 0.0
H2192 H 0.65398 0.08098 0.22364 0.0
H2193 H 0.63768 0.04811 0.15844 0.0
S2194 S 0.57988 1.01478 0.3567 0.0
N2195 N 0.60005 1.04169 0.36181 0.0
N2196 N 0.58272 1.00582 0.29167 0.0
C2197 C 0.60064 1.02495 0.27003 0.0
C2198 C 0.61029 0.04491 0.30906 0.0
C2199 C 0.49767 0.04584 0.70999 0.0
C2200 C 0.49786 1.02538 0.72176 0.0
C2201 C 0.50653 0.06486 0.7492 0.0
C2202 C 0.51681 0.06547 0.8036 0.0
H2203 H 0.48937 0.04681 0.67069 0.0
H2204 H 0.50446 0.07912 0.73741 0.0
S2205 S 0.52252 1.01697 0.85813 0.0
N2206 N 0.50978 1.00758 0.79436 0.0
N2207 N 0.5268 0.043 0.86605 0.0
C2208 C 0.51798 0.04551 0.81543 0.0
C2209 C 0.50854 1.02581 0.77554 0.0
C2210 C 0.08199 0.49225 0.79201 0.0
C2211 C 0.08213 0.49847 0.73262 0.0
C2212 C 1.06213 0.48266 0.82853 0.0
C2213 C 1.0404 0.47792 0.80863 0.0
H2214 H 0.09742 0.4939 0.81022 0.0
H2215 H 0.0637 0.47786 0.87253 0.0
S2216 S 1.03013 0.4904 0.65712 0.0
N2217 N 1.05755 0.49902 0.65677 0.0
N2218 N 1.02085 0.48079 0.72357 0.0
C2219 C 1.04026 0.48441 0.7497 0.0
C2220 C 1.06068 0.49459 0.71261 0.0
C2221 C 0.6166 0.58919 0.70335 0.0
C2222 C 0.60964 0.60564 0.71207 0.0
C2223 C 0.62572 0.58145 0.74851 0.0
C2224 C 0.62839 0.5892 0.80697 0.0
H2225 H 0.61592 0.58273 0.65966 0.0
H2226 H 0.63185 0.57006 0.73649 0.0
S2227 S 0.61245 0.63167 0.85716 0.0
N2228 N 0.60584 0.62877 0.787 0.0
N2229 N 0.62252 0.61449 0.87059 0.0
C2230 C 0.62078 0.60508 0.81712 0.0
C2231 C 0.61152 0.61306 0.77077 0.0
C2232 C 0.25931 0.25777 0.24688 0.0
C2233 C 0.26835 0.26784 0.3025 0.0
C2234 C 0.26842 0.2467 0.21021 0.0
C2235 C 0.28764 0.24448 0.22492 0.0
H2236 H 0.24472 0.25846 0.23076 0.0
H2237 H 0.26015 0.23986 0.16877 0.0
S2238 S 0.31261 0.25895 0.37415 0.0
N2239 N 0.29483 0.26885 0.37493 0.0
N2240 N 0.3115 0.24892 0.30776 0.0
C2241 C 0.29574 0.25274 0.28237 0.0
C2242 C 0.28641 0.26402 0.31997 0.0
C2243 C 0.8436 0.05948 0.27318 0.0
C2244 C 0.85811 0.06299 0.22402 0.0
C2245 C 0.83277 1.03869 0.308 0.0
C2246 C 0.83583 1.0195 0.29846 0.0
H2247 H 0.84028 0.07297 0.28499 0.0
H2248 H 0.82202 1.03789 0.34377 0.0
S2249 S 0.87185 1.01854 0.17675 0.0
N2250 N 0.87403 0.04369 0.16907 0.0
N2251 N 0.8553 1.00663 0.23394 0.0
C2252 C 0.85045 1.02295 0.2501 0.0
C2253 C 0.861 0.04378 0.21389 0.0
C2254 C 1.04227 0.82284 0.29032 0.0
C2255 C 1.0416 0.81533 0.23149 0.0
C2256 C 1.0626 0.83362 0.32653 0.0
C2257 C 0.08456 0.83794 0.30832 0.0
H2258 H 1.02666 0.82052 0.3092 0.0
H2259 H 1.06094 0.83876 0.37015 0.0
S2260 S 0.09525 0.82755 0.155 0.0
N2261 N 0.06751 0.81725 0.1556 0.0
N2262 N 0.10417 0.8363 0.22212 0.0
C2263 C 0.08449 0.83142 0.24909 0.0
C2264 C 0.0638 0.82064 0.21181 0.0
C2265 C 0.8583 0.83791 0.70979 0.0
C2266 C 0.85941 0.81791 0.72332 0.0
C2267 C 0.84752 0.8473 0.74674 0.0
C2268 C 0.83662 0.83767 0.80117 0.0
H2269 H 0.86603 0.8467 0.66953 0.0
H2270 H 0.8481 0.86273 0.73242 0.0
S2271 S 0.83559 0.78604 0.86129 0.0
N2272 N 0.84885 0.78961 0.79854 0.0
N2273 N 0.82915 0.80642 0.86579 0.0
C2274 C 0.83783 0.81773 0.81523 0.0
C2275 C 0.84881 0.8082 0.77752 0.0
C2276 C 0.28668 1.04144 0.81837 0.0
C2277 C 0.26671 1.02041 0.80344 0.0
C2278 C 0.29681 0.06172 0.78171 0.0
C2279 C 0.28728 0.06348 0.72763 0.0
H2280 H 0.29427 0.04281 0.86058 0.0
H2281 H 0.31217 0.07646 0.79699 0.0
S2282 S 0.23179 1.01615 0.67343 0.0
N2283 N 0.2363 1.00508 0.73245 0.0
N2284 N 0.2537 1.04213 0.66774 0.0
C2285 C 0.26623 0.04328 0.71504 0.0
C2286 C 0.25642 1.02251 0.75137 0.0
C2287 C 1.05906 0.2691 0.72428 0.0
C2288 C 1.04 0.24683 0.73252 0.0
C2289 C 0.07989 0.279 0.75901 0.0
C2290 C 0.08355 0.26779 0.80713 0.0
H2291 H 1.05802 0.27897 0.68934 0.0
H2292 H 0.09333 0.29587 0.74783 0.0
S2293 S 1.03931 0.20924 0.85191 0.0
N2294 N 1.02729 0.21416 0.79555 0.0
N2295 N 0.06446 0.23217 0.86006 0.0
C2296 C 0.06447 0.24553 0.81614 0.0
C2297 C 1.04358 0.2354 0.77998 0.0
C2298 C 0.95382 0.61116 0.61828 0.0
C2299 C 0.93087 0.59958 0.6382 0.0
C2300 C 0.96489 0.60021 0.58904 0.0
C2301 C 0.95317 0.57769 0.56574 0.0
H2302 H 0.96345 0.62919 0.62457 0.0
H2303 H 0.983 0.60976 0.58448 0.0
S2304 S 0.89153 0.53913 0.59649 0.0
N2305 N 0.89686 0.56264 0.63111 0.0
N2306 N 0.91555 0.54439 0.56516 0.0
C2307 C 0.92967 0.56621 0.58174 0.0
C2308 C 0.91914 0.57648 0.6186 0.0
C2309 C 0.5205 0.37581 0.53561 0.0
C2310 C 0.5241 0.39773 0.55252 0.0
C2311 C 0.50986 0.35558 0.57242 0.0
C2312 C 0.5019 0.35506 0.63069 0.0
H2313 H 0.52613 0.37412 0.49262 0.0
H2314 H 0.50834 0.34008 0.55489 0.0
S2315 S 0.50824 0.40781 0.70059 0.0
N2316 N 0.51891 0.41687 0.63497 0.0
N2317 N 0.50003 0.38048 0.70238 0.0
C2318 C 0.50575 0.37704 0.64825 0.0
C2319 C 0.51633 0.39754 0.6104 0.0
C2320 C 0.72723 0.14791 0.54606 0.0
C2321 C 0.70739 0.14979 0.55576 0.0
C2322 C 0.74746 0.15826 0.58323 0.0
C2323 C 0.75012 0.17197 0.63353 0.0
H2324 H 0.7275 0.1388 0.50762 0.0
H2325 H 0.76147 0.15581 0.57142 0.0
S2326 S 0.70487 0.18502 0.6776 0.0
N2327 N 0.69354 0.16852 0.61988 0.0
N2328 N 0.73005 0.18744 0.68695 0.0
C2329 C 0.73067 0.17459 0.64231 0.0
C2330 C 0.71014 0.16395 0.60478 0.0
C2331 C 0.51159 0.1797 0.07926 0.0
C2332 C 0.50216 0.17112 0.13566 0.0
C2333 C 0.5226 0.17044 0.04271 0.0
C2334 C 0.52531 0.15152 0.05837 0.0
H2335 H 0.51087 0.19425 0.06303 0.0
H2336 H 0.5292 0.17846 1.00092 0.0
S2337 S 0.50593 0.12295 0.20259 0.0
N2338 N 0.49807 0.1423 0.20492 0.0
N2339 N 0.51783 0.12545 0.13809 0.0
C2340 C 0.5161 0.14281 0.11459 0.0
C2341 C 0.50504 0.15234 0.15209 0.0
C2342 C 0.92602 0.37048 0.13543 0.0
C2343 C 0.93367 0.35434 0.1383 0.0
C2344 C 0.93643 0.39086 0.09961 0.0
C2345 C 0.95644 0.39809 0.06511 0.0
H2346 H 0.91137 0.36727 0.16122 0.0
H2347 H 0.92864 0.40137 0.09975 0.0
S2348 S 0.98375 0.36236 0.05282 0.0
N2349 N 0.96199 0.34704 0.09613 0.0
N2350 N 0.98286 0.3856 0.03744 0.0
C2351 C 0.9644 0.38221 0.068 0.0
C2352 C 0.95292 0.36069 0.10175 0.0
C2353 C 0.72827 0.58403 0.15977 0.0
C2354 C 0.75057 0.6006 0.14061 0.0
C2355 C 0.70801 0.57461 0.12334 0.0
C2356 C 0.70777 0.5806 0.06354 0.0
H2357 H 0.72629 0.57808 0.20431 0.0
H2358 H 0.6921 0.56218 0.14285 0.0
S2359 S 0.76194 0.62002 0.98608 0.0
N2360 N 0.77071 0.62034 0.05341 0.0
N2361 N 0.73409 0.60318 0.98686 0.0
C2362 C 0.73022 0.59651 0.04331 0.0
C2363 C 0.75085 0.60623 0.08067 0.0
C2364 C 0.63121 0.92512 0.93983 0.0
C2365 C 0.62158 0.91299 0.88665 0.0
C2366 C 0.62111 0.93575 0.97486 0.0
C2367 C 0.6007 0.93583 0.96019 0.0
H2368 H 0.6468 0.92633 0.95527 0.0
H2369 H 0.62929 0.94364 1.01518 0.0
S2370 S 0.56702 0.90556 0.82794 0.0
N2371 N 0.58878 0.9012 0.8241 0.0
N2372 N 0.5709 0.92087 0.88745 0.0
C2373 C 0.5907 0.9233 0.90795 0.0
C2374 C 0.60075 0.9123 0.87245 0.0
C2375 C 0.164 0.6897 0.92063 0.0
C2376 C 0.1732 0.68779 0.97511 0.0
C2377 C 0.17427 0.7101 0.88435 0.0
C2378 C 0.19419 0.7311 0.89956 0.0
H2379 H 0.1487 0.67501 0.90486 0.0
H2380 H 0.16668 0.70904 0.84239 0.0
S2381 S 0.22818 0.73528 0.03159 0.0
N2382 N 0.20633 0.70923 0.03647 0.0
N2383 N 0.22406 0.74639 0.97207 0.0
C2384 C 0.20415 0.72893 0.95224 0.0
C2385 C 0.19413 0.70807 0.98846 0.0
C2386 C 0.41482 0.51719 0.92083 0.0
C2387 C 0.41887 0.50548 0.96688 0.0
C2388 C 0.39449 0.50725 0.88465 0.0
C2389 C 0.37555 0.48477 0.89187 0.0
H2390 H 0.42771 0.53458 0.91216 0.0
H2391 H 0.39362 0.51767 0.85026 0.0
S2392 S 0.37487 0.44645 1.00884 0.0
N2393 N 0.40022 0.46918 1.01692 0.0
N2394 N 0.3625 0.45195 0.95441 0.0
C2395 C 0.37891 0.47315 0.93917 0.0
C2396 C 0.40003 0.48294 0.9746 0.0
C2397 C 0.17738 0.51093 0.4162 0.0
C2398 C 0.16961 0.50387 0.47464 0.0
C2399 C 0.1885 0.50166 0.38018 0.0
C2400 C 0.19297 0.48411 0.39816 0.0
H2401 H 0.17496 0.52416 0.39747 0.0
H2402 H 0.19384 0.50864 0.33689 0.0
S2403 S 0.18363 0.46404 0.55221 0.0
N2404 N 0.17225 0.48055 0.5509 0.0
N2405 N 0.19228 0.4637 0.48501 0.0
C2406 C 0.18657 0.47776 0.45748 0.0
C2407 C 0.17531 0.4873 0.49448 0.0
C2408 C 0.62242 0.73141 0.45256 0.0
C2409 C 0.62167 0.73053 0.39012 0.0
C2410 C 0.61168 0.71138 0.48999 0.0
C2411 C 0.60048 0.6883 0.46937 0.0
H2412 H 0.63075 0.74793 0.47338 0.0
H2413 H 0.61251 0.71416 0.53658 0.0
S2414 S 0.59224 0.67493 0.31047 0.0
N2415 N 0.60632 0.70299 0.3112 0.0
N2416 N 0.5892 0.66684 0.37936 0.0
C2417 C 0.59983 0.68717 0.4073 0.0
C2418 C 0.60946 0.70752 0.36914 0.0
C2419 C 0.39731 0.9324 0.48829 0.0
C2420 C 0.41863 0.93461 0.47094 0.0
C2421 C 0.37673 0.92191 0.45261 0.0
C2422 C 0.37509 0.91168 0.3967 0.0
H2423 H 0.39607 0.93819 0.5313 0.0
H2424 H 0.36175 0.92156 0.46989 0.0
S2425 S 0.42409 0.90856 0.33277 0.0
N2426 N 0.43489 0.92286 0.39391 0.0
N2427 N 0.39752 0.90292 0.33031 0.0
C2428 C 0.39591 0.91261 0.38065 0.0
C2429 C 0.41687 0.92373 0.41632 0.0
C2430 C 0.34602 0.37444 0.2414 0.0
C2431 C 0.33722 0.35452 0.20809 0.0
C2432 C 0.35418 0.39527 0.21339 0.0
C2433 C 0.35389 0.39612 0.15169 0.0
H2434 H 0.35061 0.37443 0.28665 0.0
H2435 H 0.3645 0.41021 0.2395 0.0
S2436 S 0.31957 0.3483 0.05273 0.0
N2437 N 0.32028 0.3366 0.11516 0.0
N2438 N 0.33279 0.3759 0.06528 0.0
C2439 C 0.338 0.37636 0.12276 0.0
C2440 C 0.3307 0.35515 0.15015 0.0
C2441 C 0.70886 0.98701 0.11154 0.0
C2442 C 0.71614 0.99284 0.05341 0.0
C2443 C 0.72443 0.9916 0.15639 0.0
C2444 C 0.74773 1.00393 0.14431 0.0
H2445 H 0.69177 0.98256 0.12384 0.0
H2446 H 0.71853 0.99003 0.20106 0.0
S2447 S 0.77431 1.01514 0.99741 0.0
N2448 N 0.74699 1.00464 0.98449 0.0
N2449 N 0.77675 1.01472 0.06906 0.0
C2450 C 0.75468 1.00521 0.08562 0.0
C2451 C 0.73869 0.99984 0.03981 0.0
C2452 C 0.10077 0.7644 0.08765 0.0
C2453 C 0.09962 0.75605 0.14454 0.0
C2454 C 0.10873 0.75689 0.04126 0.0
C2455 C 0.11617 0.74138 0.05148 0.0
H2456 H 0.09176 0.77328 0.07722 0.0
H2457 H 0.10571 0.76032 0.997 0.0
S2458 S 0.12454 0.72195 0.19577 0.0
N2459 N 0.11274 0.73747 0.21091 0.0
N2460 N 0.1278 0.72316 0.12419 0.0
C2461 C 0.11981 0.73723 0.10966 0.0
C2462 C 0.11155 0.74478 0.15656 0.0
C2463 C 0.4105 0.31844 0.50162 0.0
C2464 C 0.42808 0.32843 0.46047 0.0
C2465 C 0.38867 0.31286 0.4839 0.0
C2466 C 0.3841 0.31398 0.42436 0.0
H2467 H 0.41437 0.32143 0.54781 0.0
H2468 H 0.37699 0.31203 0.5171 0.0
S2469 S 0.42168 0.31956 0.30122 0.0
N2470 N 0.43771 0.32539 0.36009 0.0
N2471 N 0.39613 0.31294 0.32484 0.0
C2472 C 0.39973 0.31459 0.38338 0.0
C2473 C 0.4221 0.32111 0.40242 0.0
C2474 C 0.79712 0.09369 0.49821 0.0
C2475 C 0.801 0.09124 0.43862 0.0
C2476 C 0.78639 0.10586 0.51373 0.0
C2477 C 0.77917 0.11509 0.46962 0.0
H2478 H 0.79806 0.08304 0.53169 0.0
H2479 H 0.77945 0.1034 0.55741 0.0
S2480 S 0.80386 0.12982 0.32139 0.0
N2481 N 0.81087 0.11129 0.34574 0.0
N2482 N 0.78981 0.13367 0.37505 0.0
C2483 C 0.79097 0.12006 0.41642 0.0
C2484 C 0.80212 0.10791 0.40055 0.0
C2485 C 1.03419 0.73748 0.43395 0.0
C2486 C 1.03012 0.73045 0.37509 0.0
C2487 C 1.0268 0.72158 0.47893 0.0
C2488 C 1.01525 0.69834 0.46586 0.0
H2489 H 1.0465 0.75487 0.44495 0.0
H2490 H 1.03313 0.72738 0.5227 0.0
S2491 S 0.9933 0.67222 0.32017 0.0
N2492 N 1.00845 0.69974 0.30745 0.0
N2493 N 0.99432 0.6694 0.39149 0.0
C2494 C 1.00699 0.69147 0.40838 0.0
C2495 C 1.01454 0.70777 0.36278 0.0
C2496 C 0.77041 0.68577 0.96225 0.0
C2497 C 0.76979 0.68943 0.02264 0.0
C2498 C 0.77927 0.70424 0.92399 0.0
C2499 C 0.78833 0.72629 0.94661 0.0
H2500 H 0.7597 0.669 0.94398 0.0
H2501 H 0.77491 0.70089 0.87815 0.0
S2502 S 0.80388 0.74389 0.10016 0.0
N2503 N 0.78778 0.71597 0.10253 0.0
N2504 N 0.80676 0.75071 0.03024 0.0
C2505 C 0.79486 0.72976 1.00566 0.0
C2506 C 0.78473 0.71108 0.04462 0.0
C2507 C 0.37658 0.08519 0.94185 0.0
C2508 C 0.38202 0.08356 0.88328 0.0
C2509 C 0.39375 0.09514 0.98384 0.0
C2510 C 0.41648 0.10369 0.96753 0.0
H2511 H 0.35924 0.07525 0.95716 0.0
H2512 H 0.38901 0.09237 0.02955 0.0
S2513 S 0.43902 0.11339 0.81653 0.0
N2514 N 0.41118 0.09861 0.80873 0.0
N2515 N 0.44362 0.11775 0.88743 0.0
C2516 C 0.42198 0.10755 0.90781 0.0
C2517 C 0.40453 0.09719 0.86527 0.0
C2518 C 0.99972 0.31643 0.90064 0.0
C2519 C 0.99581 0.33247 0.87234 0.0
C2520 C 1.01549 0.31126 0.87646 0.0
C2521 C 1.02525 0.32023 0.82166 0.0
H2522 H 0.99545 0.31267 0.9464 0.0
H2523 H 1.02268 0.30372 0.90459 0.0
S2524 S 1.00341 0.34479 0.71373 0.0
N2525 N 0.98944 0.3427 0.77452 0.0
N2526 N 1.02059 0.33506 0.7299 0.0
C2527 C 1.01471 0.32888 0.7863 0.0
C2528 C 0.99837 0.3335 0.81101 0.0
C2529 C 0.72642 0.76358 0.6573 0.0
C2530 C 0.74884 0.77197 0.63825 0.0
C2531 C 0.70881 0.75647 0.61663 0.0
C2532 C 0.71338 0.75709 0.55642 0.0
H2533 H 0.7221 0.75911 0.70277 0.0
H2534 H 0.69156 0.74661 0.63263 0.0
S2535 S 0.76977 0.78718 0.48626 0.0
N2536 N 0.7752 0.78811 0.55681 0.0
N2537 N 0.74185 0.77417 0.48057 0.0
C2538 C 0.73588 0.7706 0.53786 0.0
C2539 C 0.75384 0.77809 0.57912 0.0
C2540 C 0.35738 0.98163 0.62839 0.0
C2541 C 0.35612 0.9866 0.56925 0.0
C2542 C 0.35072 0.99141 0.67235 0.0
C2543 C 0.34207 1.00562 0.65751 0.0
H2544 H 0.36748 0.97408 0.64106 0.0
H2545 H 0.3557 0.9909 0.71699 0.0
S2546 S 0.32656 1.01496 0.50911 0.0
N2547 N 0.33868 0.99943 0.49853 0.0
N2548 N 0.32631 1.01819 0.58052 0.0
C2549 C 0.33567 1.00575 0.5991 0.0
C2550 C 0.34244 0.99576 0.55469 0.0
C2551 C 0.13518 0.39644 0.64639 0.0
C2552 C 0.13525 0.40134 0.58657 0.0
C2553 C 0.12285 0.3737 0.66427 0.0
C2554 C 0.11236 0.35666 0.62156 0.0
H2555 H 0.13862 0.40946 0.67865 0.0
H2556 H 0.1174 0.37024 0.7094 0.0
S2557 S 0.12754 0.36234 0.46541 0.0
N2558 N 0.13821 0.38867 0.4895 0.0
N2559 N 0.11623 0.34583 0.52286 0.0
C2560 C 0.12176 0.36175 0.56526 0.0
C2561 C 0.13349 0.38476 0.54726 0.0
C2562 C 1.04343 0.64448 0.7838 0.0
C2563 C 1.04799 0.65021 0.72408 0.0
C2564 C 1.0608 0.65465 0.82502 0.0
C2565 C 0.08287 0.67012 0.80684 0.0
H2566 H 1.0262 0.63578 0.80021 0.0
H2567 H 1.0563 0.65349 0.87082 0.0
S2568 S 0.10439 0.6806 0.65472 0.0
N2569 N 0.07662 0.66438 0.64819 0.0
N2570 N 0.10948 0.68377 0.72562 0.0
C2571 C 0.08821 0.67079 0.74721 0.0
C2572 C 0.07052 0.6605 0.70537 0.0
C2573 C 0.45309 0.43256 0.77736 0.0
C2574 C 0.45701 0.41626 0.80392 0.0
C2575 C 0.44572 0.44474 0.81126 0.0
C2576 C 0.44085 0.43954 0.87093 0.0
H2577 H 0.45168 0.43302 0.73034 0.0
H2578 H 0.43904 0.45399 0.78842 0.0
S2579 S 0.46304 0.41037 0.96236 0.0
N2580 N 0.46747 0.40523 0.89446 0.0
N2581 N 0.45164 0.42679 0.95764 0.0
C2582 C 0.45168 0.42926 0.89888 0.0
C2583 C 0.46009 0.41757 0.8648 0.0
C2584 C 0.67863 1.03368 0.70983 0.0
C2585 C 0.69189 0.05661 0.72534 0.0
C2586 C 0.6683 1.01716 0.75311 0.0
C2587 C 0.67192 1.02337 0.81262 0.0
H2588 H 0.67905 1.02827 0.6655 0.0
H2589 H 0.66127 0.99956 0.74017 0.0
S2590 S 0.69713 0.0814 0.87289 0.0
N2591 N 0.70155 0.085 0.80179 0.0
N2592 N 0.68277 0.05366 0.88323 0.0
C2593 C 0.68053 0.04622 0.82718 0.0
C2594 C 0.69065 0.06307 0.78314 0.0
C2595 C 0.44686 1.03798 0.2402 0.0
C2596 C 0.46026 0.05967 0.26461 0.0
C2597 C 0.43699 1.01904 0.27652 0.0
C2598 C 0.44098 1.02146 0.33712 0.0
H2599 H 0.44006 1.03596 0.19646 0.0
H2600 H 0.42294 1.00358 0.25893 0.0
S2601 S 0.48586 0.07207 0.41209 0.0
N2602 N 0.48558 0.08075 0.34487 0.0
N2603 N 0.46628 0.04491 0.41406 0.0
C2604 C 0.45916 1.04173 0.35778 0.0
C2605 C 0.46947 0.06098 0.32047 0.0
C2606 C 1.04587 0.41486 0.2877 0.0
C2607 C 1.05206 0.41329 0.22966 0.0
C2608 C 1.06194 0.42216 0.33249 0.0
C2609 C 0.08446 0.4285 0.31974 0.0
H2610 H 1.02818 0.40684 0.30033 0.0
H2611 H 1.05615 0.41959 0.3774 0.0
S2612 S 0.11003 0.43547 0.17256 0.0
N2613 N 0.08276 0.42536 0.16007 0.0
N2614 N 0.11303 0.43825 0.24412 0.0
C2615 C 0.09144 0.43159 0.26089 0.0
C2616 C 0.0751 0.42435 0.21548 0.0
C2617 C 0.65918 0.65839 0.26928 0.0
C2618 C 0.66538 0.66098 0.32863 0.0
C2619 C 0.66945 0.65077 0.22921 0.0
C2620 C 0.68507 0.64451 0.24867 0.0
H2621 H 0.65021 0.66648 0.25228 0.0
H2622 H 0.66808 0.65332 0.18304 0.0
S2623 S 0.69653 0.63661 0.40222 0.0
N2624 N 0.68038 0.64833 0.40671 0.0
N2625 N 0.69913 0.63305 0.3318 0.0
C2626 C 0.68601 0.64094 0.30878 0.0
C2627 C 0.67594 0.64919 0.34926 0.0
loop_
_geom_bond_atom_site_label_1
_geom_bond_atom_site_label_2
_geom_bond_distance
_geom_bond_site_symmetry_2
_ccdc_geom_bond_type
Tb0 C2 2.809 . S
Tb0 O20 2.484 . S
Tb0 O21 2.440 . S
Tb0 O22 2.658 . S
Tb0 O23 2.409 . S
Tb0 O24 2.378 . S
Tb0 O28 2.325 . S
Tb0 O31 2.341 . S
Tb1 C11 2.809 . S
Tb1 O22 2.325 . S
Tb1 O25 2.341 . S
Tb1 O26 2.484 . S
Tb1 O27 2.440 . S
Tb1 O28 2.658 . S
Tb1 O29 2.409 . S
Tb1 O30 2.378 . S
C2 Tb0 2.809 . S
C2 C3 1.514 . S
C2 O20 1.248 . S
C2 O21 1.266 . S
C3 C2 1.514 . S
C3 C4 1.359 . S
C3 C8 1.348 . S
C4 C3 1.359 . S
C4 C5 1.380 . S
C4 H32 0.929 . S
C5 C4 1.380 . S
C5 C6 1.347 . S
C5 H33 0.931 . S
C6 C5 1.347 . S
C6 C7 1.369 . S
C7 C6 1.369 . S
C7 C8 1.408 . S
C7 H34 0.930 . S
C8 C3 1.348 . S
C8 C7 1.408 . S
C8 H35 0.930 . S
C9 O22 1.281 . S
C9 O23 1.254 . S
C10 O24 1.236 . S
C10 O25 1.266 . S
C11 Tb1 2.809 . S
C11 C12 1.514 . S
C11 O26 1.248 . S
C11 O27 1.266 . S
C12 C11 1.514 . S
C12 C13 1.359 . S
C12 C17 1.348 . S
C13 C12 1.359 . S
C13 C14 1.380 . S
C13 H36 0.929 . S
C14 C13 1.380 . S
C14 C15 1.347 . S
C14 H37 0.931 . S
C15 C14 1.347 . S
C15 C16 1.369 . S
C16 C15 1.369 . S
C16 C17 1.408 . S
C16 H38 0.930 . S
C17 C12 1.348 . S
C17 C16 1.408 . S
C17 H39 0.930 . S
C18 O28 1.281 . S
C18 O29 1.254 . S
C19 O30 1.236 . S
C19 O31 1.266 . S
O20 Tb0 2.484 . S
O20 C2 1.248 . S
O21 Tb0 2.440 . S
O21 C2 1.266 . S
O22 Tb0 2.658 . S
O22 Tb1 2.325 . S
O22 C9 1.281 . S
O23 Tb0 2.409 . S
O23 C9 1.254 . S
O24 Tb0 2.378 . S
O24 C10 1.236 . S
O25 Tb1 2.341 . S
O25 C10 1.266 . S
O26 Tb1 2.484 . S
O26 C11 1.248 . S
O27 Tb1 2.440 . S
O27 C11 1.266 . S
O28 Tb0 2.325 . S
O28 Tb1 2.658 . S
O28 C18 1.281 . S
O29 Tb1 2.409 . S
O29 C18 1.254 . S
O30 Tb1 2.378 . S
O30 C19 1.236 . S
O31 Tb0 2.341 . S
O31 C19 1.266 . S
H32 C4 0.929 . S
H33 C5 0.931 . S
H34 C7 0.930 . S
H35 C8 0.930 . S
H36 C13 0.929 . S
H37 C14 0.931 . S
H38 C16 0.930 . S
H39 C17 0.930 . S
Tb40 C42 2.809 . S
Tb40 O60 2.484 . S
Tb40 O61 2.440 . S
Tb40 O62 2.658 . S
Tb40 O63 2.409 . S
Tb40 O64 2.378 . S
Tb40 O68 2.325 . S
Tb40 O71 2.341 . S
Tb41 C51 2.809 . S
Tb41 O62 2.325 . S
Tb41 O65 2.341 . S
Tb41 O66 2.484 . S
Tb41 O67 2.440 . S
Tb41 O68 2.658 . S
Tb41 O69 2.409 . S
Tb41 O70 2.378 . S
C42 Tb40 2.809 . S
C42 C43 1.514 . S
C42 O60 1.248 . S
C42 O61 1.266 . S
C43 C42 1.514 . S
C43 C44 1.359 . S
C43 C48 1.348 . S
C44 C43 1.359 . S
C44 C45 1.380 . S
C44 H72 0.929 . S
C45 C44 1.380 . S
C45 C46 1.347 . S
C45 H73 0.931 . S
C46 C45 1.347 . S
C46 C47 1.369 . S
C47 C46 1.369 . S
C47 C48 1.408 . S
C47 H74 0.930 . S
C48 C43 1.348 . S
C48 C47 1.408 . S
C48 H75 0.930 . S
C49 O62 1.281 . S
C49 O63 1.254 . S
C50 O64 1.236 . S
C50 O65 1.266 . S
C51 Tb41 2.809 . S
C51 C52 1.514 . S
C51 O66 1.248 . S
C51 O67 1.266 . S
C52 C51 1.514 . S
C52 C53 1.359 . S
C52 C57 1.348 . S
C53 C52 1.359 . S
C53 C54 1.380 1_545 S
C53 H76 0.929 . S
C54 C53 1.380 1_565 S
C54 C55 1.347 . S
C54 H77 0.931 . S
C55 C54 1.347 . S
C55 C56 1.369 1_565 S
C56 C55 1.369 1_545 S
C56 C57 1.408 . S
C56 H78 0.930 . S
C57 C52 1.348 . S
C57 C56 1.408 . S
C57 H79 0.930 . S
C58 O68 1.281 . S
C58 O69 1.254 . S
C59 O70 1.236 . S
C59 O71 1.266 . S
O60 Tb40 2.484 . S
O60 C42 1.248 . S
O61 Tb40 2.440 . S
O61 C42 1.266 . S
O62 Tb40 2.658 . S
O62 Tb41 2.325 . S
O62 C49 1.281 . S
O63 Tb40 2.409 . S
O63 C49 1.254 . S
O64 Tb40 2.378 . S
O64 C50 1.236 . S
O65 Tb41 2.341 . S
O65 C50 1.266 . S
O66 Tb41 2.484 . S
O66 C51 1.248 . S
O67 Tb41 2.440 . S
O67 C51 1.266 . S
O68 Tb40 2.325 . S
O68 Tb41 2.658 . S
O68 C58 1.281 . S
O69 Tb41 2.409 . S
O69 C58 1.254 . S
O70 Tb41 2.378 . S
O70 C59 1.236 . S
O71 Tb40 2.341 . S
O71 C59 1.266 . S
H72 C44 0.929 . S
H73 C45 0.931 . S
H74 C47 0.930 . S
H75 C48 0.930 . S
H76 C53 0.929 . S
H77 C54 0.931 . S
H78 C56 0.930 . S
H79 C57 0.930 . S
Tb80 C82 2.809 . S
Tb80 O100 2.484 . S
Tb80 O101 2.440 . S
Tb80 O102 2.658 . S
Tb80 O103 2.409 . S
Tb80 O104 2.378 . S
Tb80 O108 2.325 . S
Tb80 O111 2.341 . S
Tb81 C91 2.809 . S
Tb81 O102 2.325 . S
Tb81 O105 2.341 . S
Tb81 O106 2.484 . S
Tb81 O107 2.440 . S
Tb81 O108 2.658 . S
Tb81 O109 2.409 . S
Tb81 O110 2.378 . S
C82 Tb80 2.809 . S
C82 C83 1.514 . S
C82 O100 1.248 . S
C82 O101 1.266 . S
C83 C82 1.514 . S
C83 C84 1.359 . S
C83 C88 1.348 . S
C84 C83 1.359 . S
C84 C85 1.380 . S
C84 H112 0.929 . S
C85 C84 1.380 . S
C85 C86 1.347 . S
C85 H113 0.931 . S
C86 C85 1.347 . S
C86 C87 1.369 . S
C87 C86 1.369 . S
C87 C88 1.408 . S
C87 H114 0.930 . S
C88 C83 1.348 . S
C88 C87 1.408 . S
C88 H115 0.930 . S
C89 O102 1.281 . S
C89 O103 1.254 . S
C90 O104 1.236 . S
C90 O105 1.266 . S
C91 Tb81 2.809 . S
C91 C92 1.514 . S
C91 O106 1.248 . S
C91 O107 1.266 . S
C92 C91 1.514 . S
C92 C93 1.359 . S
C92 C97 1.348 . S
C93 C92 1.359 . S
C93 C94 1.380 1_655 S
C93 H116 0.929 . S
C94 C93 1.380 1_455 S
C94 C95 1.347 . S
C94 H117 0.931 . S
C95 C94 1.347 . S
C95 C96 1.369 1_455 S
C96 C95 1.369 1_655 S
C96 C97 1.408 . S
C96 H118 0.930 . S
C97 C92 1.348 . S
C97 C96 1.408 . S
C97 H119 0.930 . S
C98 O108 1.281 . S
C98 O109 1.254 . S
C99 O110 1.236 . S
C99 O111 1.266 . S
O100 Tb80 2.484 . S
O100 C82 1.248 . S
O101 Tb80 2.440 . S
O101 C82 1.266 . S
O102 Tb80 2.658 . S
O102 Tb81 2.325 . S
O102 C89 1.281 . S
O103 Tb80 2.409 . S
O103 C89 1.254 . S
O104 Tb80 2.378 . S
O104 C90 1.236 . S
O105 Tb81 2.341 . S
O105 C90 1.266 . S
O106 Tb81 2.484 . S
O106 C91 1.248 . S
O107 Tb81 2.440 . S
O107 C91 1.266 . S
O108 Tb80 2.325 . S
O108 Tb81 2.658 . S
O108 C98 1.281 . S
O109 Tb81 2.409 . S
O109 C98 1.254 . S
O110 Tb81 2.378 . S
O110 C99 1.236 . S
O111 Tb80 2.341 . S
O111 C99 1.266 . S
H112 C84 0.929 . S
H113 C85 0.931 . S
H114 C87 0.930 . S
H115 C88 0.930 . S
H116 C93 0.929 . S
H117 C94 0.931 . S
H118 C96 0.930 . S
H119 C97 0.930 . S
Tb120 C122 2.809 . S
Tb120 O140 2.484 . S
Tb120 O141 2.440 . S
Tb120 O142 2.658 . S
Tb120 O143 2.409 . S
Tb120 O144 2.378 . S
Tb120 O148 2.325 . S
Tb120 O151 2.341 . S
Tb121 C131 2.809 . S
Tb121 O142 2.325 . S
Tb121 O145 2.341 . S
Tb121 O146 2.484 . S
Tb121 O147 2.440 . S
Tb121 O148 2.658 . S
Tb121 O149 2.409 . S
Tb121 O150 2.378 . S
C122 Tb120 2.809 . S
C122 C123 1.514 . S
C122 O140 1.248 . S
C122 O141 1.266 . S
C123 C122 1.514 . S
C123 C124 1.359 . S
C123 C128 1.348 . S
C124 C123 1.359 . S
C124 C125 1.380 . S
C124 H152 0.929 . S
C125 C124 1.380 . S
C125 C126 1.347 . S
C125 H153 0.931 . S
C126 C125 1.347 . S
C126 C127 1.369 . S
C127 C126 1.369 . S
C127 C128 1.408 . S
C127 H154 0.930 . S
C128 C123 1.348 . S
C128 C127 1.408 . S
C128 H155 0.930 . S
C129 O142 1.281 . S
C129 O143 1.254 . S
C130 O144 1.236 . S
C130 O145 1.266 . S
C131 Tb121 2.809 . S
C131 C132 1.514 . S
C131 O146 1.248 . S
C131 O147 1.266 . S
C132 C131 1.514 . S
C132 C133 1.359 . S
C132 C137 1.348 . S
C133 C132 1.359 . S
C133 C134 1.380 . S
C133 H156 0.929 . S
C134 C133 1.380 . S
C134 C135 1.347 . S
C134 H157 0.931 . S
C135 C134 1.347 . S
C135 C136 1.369 . S
C136 C135 1.369 . S
C136 C137 1.408 . S
C136 H158 0.930 . S
C137 C132 1.348 . S
C137 C136 1.408 . S
C137 H159 0.930 . S
C138 O148 1.281 . S
C138 O149 1.254 . S
C139 O150 1.236 . S
C139 O151 1.266 . S
O140 Tb120 2.484 . S
O140 C122 1.248 . S
O141 Tb120 2.440 . S
O141 C122 1.266 . S
O142 Tb120 2.658 . S
O142 Tb121 2.325 . S
O142 C129 1.281 . S
O143 Tb120 2.409 . S
O143 C129 1.254 . S
O144 Tb120 2.378 . S
O144 C130 1.236 . S
O145 Tb121 2.341 . S
O145 C130 1.266 . S
O146 Tb121 2.484 . S
O146 C131 1.248 . S
O147 Tb121 2.440 . S
O147 C131 1.266 . S
O148 Tb120 2.325 . S
O148 Tb121 2.658 . S
O148 C138 1.281 . S
O149 Tb121 2.409 . S
O149 C138 1.254 . S
O150 Tb121 2.378 . S
O150 C139 1.236 . S
O151 Tb120 2.341 . S
O151 C139 1.266 . S
H152 C124 0.929 . S
H153 C125 0.931 . S
H154 C127 0.930 . S
H155 C128 0.930 . S
H156 C133 0.929 . S
H157 C134 0.931 . S
H158 C136 0.930 . S
H159 C137 0.930 . S
Tb160 C162 2.809 . S
Tb160 O180 2.484 . S
Tb160 O181 2.440 . S
Tb160 O182 2.658 . S
Tb160 O183 2.409 . S
Tb160 O184 2.378 . S
Tb160 O188 2.325 . S
Tb160 O191 2.341 . S
Tb161 C171 2.809 . S
Tb161 O182 2.325 . S
Tb161 O185 2.341 . S
Tb161 O186 2.484 . S
Tb161 O187 2.440 . S
Tb161 O188 2.658 . S
Tb161 O189 2.409 . S
Tb161 O190 2.378 . S
C162 Tb160 2.809 . S
C162 C163 1.514 . S
C162 O180 1.248 . S
C162 O181 1.266 . S
C163 C162 1.514 . S
C163 C164 1.359 . S
C163 C168 1.348 . S
C164 C163 1.359 . S
C164 C165 1.380 . S
C164 H192 0.929 . S
C165 C164 1.380 . S
C165 C166 1.347 . S
C165 H193 0.931 . S
C166 C165 1.347 . S
C166 C167 1.369 . S
C167 C166 1.369 . S
C167 C168 1.408 . S
C167 H194 0.930 . S
C168 C163 1.348 . S
C168 C167 1.408 . S
C168 H195 0.930 . S
C169 O182 1.281 . S
C169 O183 1.254 . S
C170 O184 1.236 . S
C170 O185 1.266 . S
C171 Tb161 2.809 . S
C171 C172 1.514 . S
C171 O186 1.248 . S
C171 O187 1.266 . S
C172 C171 1.514 . S
C172 C173 1.359 . S
C172 C177 1.348 . S
C173 C172 1.359 . S
C173 C174 1.380 1_565 S
C173 H196 0.929 . S
C174 C173 1.380 1_545 S
C174 C175 1.347 . S
C174 H197 0.931 . S
C175 C174 1.347 . S
C175 C176 1.369 1_545 S
C176 C175 1.369 1_565 S
C176 C177 1.408 . S
C176 H198 0.930 . S
C177 C172 1.348 . S
C177 C176 1.408 . S
C177 H199 0.930 . S
C178 O188 1.281 . S
C178 O189 1.254 . S
C179 O190 1.236 . S
C179 O191 1.266 . S
O180 Tb160 2.484 . S
O180 C162 1.248 . S
O181 Tb160 2.440 . S
O181 C162 1.266 . S
O182 Tb160 2.658 . S
O182 Tb161 2.325 . S
O182 C169 1.281 . S
O183 Tb160 2.409 . S
O183 C169 1.254 . S
O184 Tb160 2.378 . S
O184 C170 1.236 . S
O185 Tb161 2.341 . S
O185 C170 1.266 . S
O186 Tb161 2.484 . S
O186 C171 1.248 . S
O187 Tb161 2.440 . S
O187 C171 1.266 . S
O188 Tb160 2.325 . S
O188 Tb161 2.658 . S
O188 C178 1.281 . S
O189 Tb161 2.409 . S
O189 C178 1.254 . S
O190 Tb161 2.378 . S
O190 C179 1.236 . S
O191 Tb160 2.341 . S
O191 C179 1.266 . S
H192 C164 0.929 . S
H193 C165 0.931 . S
H194 C167 0.930 . S
H195 C168 0.930 . S
H196 C173 0.929 . S
H197 C174 0.931 . S
H198 C176 0.930 . S
H199 C177 0.930 . S
Tb200 C202 2.809 . S
Tb200 O220 2.484 . S
Tb200 O221 2.440 . S
Tb200 O222 2.658 . S
Tb200 O223 2.409 . S
Tb200 O224 2.378 . S
Tb200 O228 2.325 . S
Tb200 O231 2.341 . S
Tb201 C211 2.809 . S
Tb201 O222 2.325 . S
Tb201 O225 2.341 . S
Tb201 O226 2.484 . S
Tb201 O227 2.440 . S
Tb201 O228 2.658 . S
Tb201 O229 2.409 . S
Tb201 O230 2.378 . S
C202 Tb200 2.809 . S
C202 C203 1.514 . S
C202 O220 1.248 . S
C202 O221 1.266 . S
C203 C202 1.514 . S
C203 C204 1.359 . S
C203 C208 1.348 . S
C204 C203 1.359 . S
C204 C205 1.380 . S
C204 H232 0.929 . S
C205 C204 1.380 . S
C205 C206 1.347 . S
C205 H233 0.931 . S
C206 C205 1.347 . S
C206 C207 1.369 . S
C207 C206 1.369 . S
C207 C208 1.408 . S
C207 H234 0.930 . S
C208 C203 1.348 . S
C208 C207 1.408 . S
C208 H235 0.930 . S
C209 O222 1.281 . S
C209 O223 1.254 . S
C210 O224 1.236 . S
C210 O225 1.266 . S
C211 Tb201 2.809 . S
C211 C212 1.514 . S
C211 O226 1.248 . S
C211 O227 1.266 . S
C212 C211 1.514 . S
C212 C213 1.359 . S
C212 C217 1.348 . S
C213 C212 1.359 . S
C213 C214 1.380 1_455 S
C213 H236 0.929 . S
C214 C213 1.380 1_655 S
C214 C215 1.347 . S
C214 H237 0.931 . S
C215 C214 1.347 . S
C215 C216 1.369 1_655 S
C216 C215 1.369 1_455 S
C216 C217 1.408 . S
C216 H238 0.930 . S
C217 C212 1.348 . S
C217 C216 1.408 . S
C217 H239 0.930 . S
C218 O228 1.281 . S
C218 O229 1.254 . S
C219 O230 1.236 . S
C219 O231 1.266 . S
O220 Tb200 2.484 . S
O220 C202 1.248 . S
O221 Tb200 2.440 . S
O221 C202 1.266 . S
O222 Tb200 2.658 . S
O222 Tb201 2.325 . S
O222 C209 1.281 . S
O223 Tb200 2.409 . S
O223 C209 1.254 . S
O224 Tb200 2.378 . S
O224 C210 1.236 . S
O225 Tb201 2.341 . S
O225 C210 1.266 . S
O226 Tb201 2.484 . S
O226 C211 1.248 . S
O227 Tb201 2.440 . S
O227 C211 1.266 . S
O228 Tb200 2.325 . S
O228 Tb201 2.658 . S
O228 C218 1.281 . S
O229 Tb201 2.409 . S
O229 C218 1.254 . S
O230 Tb201 2.378 . S
O230 C219 1.236 . S
O231 Tb200 2.341 . S
O231 C219 1.266 . S
H232 C204 0.929 . S
H233 C205 0.931 . S
H234 C207 0.930 . S
H235 C208 0.930 . S
H236 C213 0.929 . S
H237 C214 0.931 . S
H238 C216 0.930 . S
H239 C217 0.930 . S
Tb240 C242 2.809 . S
Tb240 O260 2.484 . S
Tb240 O261 2.440 . S
Tb240 O262 2.658 . S
Tb240 O263 2.409 . S
Tb240 O264 2.378 . S
Tb240 O268 2.325 . S
Tb240 O271 2.341 . S
Tb241 C251 2.809 . S
Tb241 O262 2.325 . S
Tb241 O265 2.341 . S
Tb241 O266 2.484 . S
Tb241 O267 2.440 . S
Tb241 O268 2.658 . S
Tb241 O269 2.409 . S
Tb241 O270 2.378 . S
C242 Tb240 2.809 . S
C242 C243 1.514 . S
C242 O260 1.248 . S
C242 O261 1.266 . S
C243 C242 1.514 . S
C243 C244 1.359 . S
C243 C248 1.348 . S
C244 C243 1.359 . S
C244 C245 1.380 . S
C244 H272 0.929 . S
C245 C244 1.380 . S
C245 C246 1.347 . S
C245 H273 0.931 . S
C246 C245 1.347 . S
C246 C247 1.369 . S
C247 C246 1.369 . S
C247 C248 1.408 . S
C247 H274 0.930 . S
C248 C243 1.348 . S
C248 C247 1.408 . S
C248 H275 0.930 . S
C249 O262 1.281 . S
C249 O263 1.254 . S
C250 O264 1.236 . S
C250 O265 1.266 . S
C251 Tb241 2.809 . S
C251 C252 1.514 . S
C251 O266 1.248 . S
C251 O267 1.266 . S
C252 C251 1.514 . S
C252 C253 1.359 . S
C252 C257 1.348 . S
C253 C252 1.359 . S
C253 C254 1.380 . S
C253 H276 0.929 . S
C254 C253 1.380 . S
C254 C255 1.347 . S
C254 H277 0.931 . S
C255 C254 1.347 . S
C255 C256 1.369 . S
C256 C255 1.369 . S
C256 C257 1.408 . S
C256 H278 0.930 . S
C257 C252 1.348 . S
C257 C256 1.408 . S
C257 H279 0.930 . S
C258 O268 1.281 . S
C258 O269 1.254 . S
C259 O270 1.236 . S
C259 O271 1.266 . S
O260 Tb240 2.484 . S
O260 C242 1.248 . S
O261 Tb240 2.440 . S
O261 C242 1.266 . S
O262 Tb240 2.658 . S
O262 Tb241 2.325 . S
O262 C249 1.281 . S
O263 Tb240 2.409 . S
O263 C249 1.254 . S
O264 Tb240 2.378 . S
O264 C250 1.236 . S
O265 Tb241 2.341 . S
O265 C250 1.266 . S
O266 Tb241 2.484 . S
O266 C251 1.248 . S
O267 Tb241 2.440 . S
O267 C251 1.266 . S
O268 Tb240 2.325 . S
O268 Tb241 2.658 . S
O268 C258 1.281 . S
O269 Tb241 2.409 . S
O269 C258 1.254 . S
O270 Tb241 2.378 . S
O270 C259 1.236 . S
O271 Tb240 2.341 . S
O271 C259 1.266 . S
H272 C244 0.929 . S
H273 C245 0.931 . S
H274 C247 0.930 . S
H275 C248 0.930 . S
H276 C253 0.929 . S
H277 C254 0.931 . S
H278 C256 0.930 . S
H279 C257 0.930 . S
Tb280 C282 2.809 . S
Tb280 O300 2.484 . S
Tb280 O301 2.440 . S
Tb280 O302 2.658 . S
Tb280 O303 2.409 . S
Tb280 O304 2.378 . S
Tb280 O308 2.325 . S
Tb280 O311 2.341 . S
Tb281 C291 2.809 . S
Tb281 O302 2.325 . S
Tb281 O305 2.341 . S
Tb281 O306 2.484 . S
Tb281 O307 2.440 . S
Tb281 O308 2.658 . S
Tb281 O309 2.409 . S
Tb281 O310 2.378 . S
C282 Tb280 2.809 . S
C282 C283 1.514 . S
C282 O300 1.248 . S
C282 O301 1.266 . S
C283 C282 1.514 . S
C283 C284 1.359 . S
C283 C288 1.348 . S
C284 C283 1.359 . S
C284 C285 1.380 1_565 S
C284 H312 0.929 . S
C285 C284 1.380 1_545 S
C285 C286 1.347 . S
C285 H313 0.931 . S
C286 C285 1.347 . S
C286 C287 1.369 1_545 S
C287 C286 1.369 1_565 S
C287 C288 1.408 . S
C287 H314 0.930 . S
C288 C283 1.348 . S
C288 C287 1.408 . S
C288 H315 0.930 . S
C289 O302 1.281 . S
C289 O303 1.254 . S
C290 O304 1.236 . S
C290 O305 1.266 . S
C291 Tb281 2.809 . S
C291 C292 1.514 . S
C291 O306 1.248 . S
C291 O307 1.266 . S
C292 C291 1.514 . S
C292 C293 1.359 . S
C292 C297 1.348 . S
C293 C292 1.359 . S
C293 C294 1.380 . S
C293 H316 0.929 . S
C294 C293 1.380 . S
C294 C295 1.347 . S
C294 H317 0.931 . S
C295 C294 1.347 . S
C295 C296 1.369 . S
C296 C295 1.369 . S
C296 C297 1.408 . S
C296 H318 0.930 . S
C297 C292 1.348 . S
C297 C296 1.408 . S
C297 H319 0.930 . S
C298 O308 1.281 . S
C298 O309 1.254 . S
C299 O310 1.236 . S
C299 O311 1.266 . S
O300 Tb280 2.484 . S
O300 C282 1.248 . S
O301 Tb280 2.440 . S
O301 C282 1.266 . S
O302 Tb280 2.658 . S
O302 Tb281 2.325 . S
O302 C289 1.281 . S
O303 Tb280 2.409 . S
O303 C289 1.254 . S
O304 Tb280 2.378 . S
O304 C290 1.236 . S
O305 Tb281 2.341 . S
O305 C290 1.266 . S
O306 Tb281 2.484 . S
O306 C291 1.248 . S
O307 Tb281 2.440 . S
O307 C291 1.266 . S
O308 Tb280 2.325 . S
O308 Tb281 2.658 . S
O308 C298 1.281 . S
O309 Tb281 2.409 . S
O309 C298 1.254 . S
O310 Tb281 2.378 . S
O310 C299 1.236 . S
O311 Tb280 2.341 . S
O311 C299 1.266 . S
H312 C284 0.929 . S
H313 C285 0.931 . S
H314 C287 0.930 . S
H315 C288 0.930 . S
H316 C293 0.929 . S
H317 C294 0.931 . S
H318 C296 0.930 . S
H319 C297 0.930 . S
Tb320 C322 2.809 . S
Tb320 O340 2.484 . S
Tb320 O341 2.440 . S
Tb320 O342 2.658 . S
Tb320 O343 2.409 . S
Tb320 O344 2.378 . S
Tb320 O348 2.325 . S
Tb320 O351 2.341 . S
Tb321 C331 2.809 . S
Tb321 O342 2.325 . S
Tb321 O345 2.341 . S
Tb321 O346 2.484 . S
Tb321 O347 2.440 . S
Tb321 O348 2.658 . S
Tb321 O349 2.409 . S
Tb321 O350 2.378 . S
C322 Tb320 2.809 . S
C322 C323 1.514 . S
C322 O340 1.248 . S
C322 O341 1.266 . S
C323 C322 1.514 . S
C323 C324 1.359 . S
C323 C328 1.348 . S
C324 C323 1.359 . S
C324 C325 1.380 1_455 S
C324 H352 0.929 . S
C325 C324 1.380 1_655 S
C325 C326 1.347 . S
C325 H353 0.931 . S
C326 C325 1.347 . S
C326 C327 1.369 1_655 S
C327 C326 1.369 1_455 S
C327 C328 1.408 . S
C327 H354 0.930 . S
C328 C323 1.348 . S
C328 C327 1.408 . S
C328 H355 0.930 . S
C329 O342 1.281 . S
C329 O343 1.254 . S
C330 O344 1.236 . S
C330 O345 1.266 . S
C331 Tb321 2.809 . S
C331 C332 1.514 . S
C331 O346 1.248 . S
C331 O347 1.266 . S
C332 C331 1.514 . S
C332 C333 1.359 . S
C332 C337 1.348 . S
C333 C332 1.359 . S
C333 C334 1.380 . S
C333 H356 0.929 . S
C334 C333 1.380 . S
C334 C335 1.347 . S
C334 H357 0.931 . S
C335 C334 1.347 . S
C335 C336 1.369 . S
C336 C335 1.369 . S
C336 C337 1.408 . S
C336 H358 0.930 . S
C337 C332 1.348 . S
C337 C336 1.408 . S
C337 H359 0.930 . S
C338 O348 1.281 . S
C338 O349 1.254 . S
C339 O350 1.236 . S
C339 O351 1.266 . S
O340 Tb320 2.484 . S
O340 C322 1.248 . S
O341 Tb320 2.440 . S
O341 C322 1.266 . S
O342 Tb320 2.658 . S
O342 Tb321 2.325 . S
O342 C329 1.281 . S
O343 Tb320 2.409 . S
O343 C329 1.254 . S
O344 Tb320 2.378 . S
O344 C330 1.236 . S
O345 Tb321 2.341 . S
O345 C330 1.266 . S
O346 Tb321 2.484 . S
O346 C331 1.248 . S
O347 Tb321 2.440 . S
O347 C331 1.266 . S
O348 Tb320 2.325 . S
O348 Tb321 2.658 . S
O348 C338 1.281 . S
O349 Tb321 2.409 . S
O349 C338 1.254 . S
O350 Tb321 2.378 . S
O350 C339 1.236 . S
O351 Tb320 2.341 . S
O351 C339 1.266 . S
H352 C324 0.929 . S
H353 C325 0.931 . S
H354 C327 0.930 . S
H355 C328 0.930 . S
H356 C333 0.929 . S
H357 C334 0.931 . S
H358 C336 0.930 . S
H359 C337 0.930 . S
Tb360 C362 2.809 . S
Tb360 O380 2.484 . S
Tb360 O381 2.440 . S
Tb360 O382 2.658 . S
Tb360 O383 2.409 . S
Tb360 O384 2.378 . S
Tb360 O388 2.325 . S
Tb360 O391 2.341 . S
Tb361 C371 2.809 . S
Tb361 O382 2.325 . S
Tb361 O385 2.341 . S
Tb361 O386 2.484 . S
Tb361 O387 2.440 . S
Tb361 O388 2.658 . S
Tb361 O389 2.409 . S
Tb361 O390 2.378 . S
C362 Tb360 2.809 . S
C362 C363 1.514 . S
C362 O380 1.248 . S
C362 O381 1.266 . S
C363 C362 1.514 . S
C363 C364 1.359 . S
C363 C368 1.348 . S
C364 C363 1.359 . S
C364 C365 1.380 . S
C364 H392 0.929 . S
C365 C364 1.380 . S
C365 C366 1.347 . S
C365 H393 0.931 . S
C366 C365 1.347 . S
C366 C367 1.369 . S
C367 C366 1.369 . S
C367 C368 1.408 . S
C367 H394 0.930 . S
C368 C363 1.348 . S
C368 C367 1.408 . S
C368 H395 0.930 . S
C369 O382 1.281 . S
C369 O383 1.254 . S
C370 O384 1.236 . S
C370 O385 1.266 . S
C371 Tb361 2.809 . S
C371 C372 1.514 . S
C371 O386 1.248 . S
C371 O387 1.266 . S
C372 C371 1.514 . S
C372 C373 1.359 . S
C372 C377 1.348 . S
C373 C372 1.359 . S
C373 C374 1.380 . S
C373 H396 0.929 . S
C374 C373 1.380 . S
C374 C375 1.347 . S
C374 H397 0.931 . S
C375 C374 1.347 . S
C375 C376 1.369 . S
C376 C375 1.369 . S
C376 C377 1.408 . S
C376 H398 0.930 . S
C377 C372 1.348 . S
C377 C376 1.408 . S
C377 H399 0.930 . S
C378 O388 1.281 . S
C378 O389 1.254 . S
C379 O390 1.236 . S
C379 O391 1.266 . S
O380 Tb360 2.484 . S
O380 C362 1.248 . S
O381 Tb360 2.440 . S
O381 C362 1.266 . S
O382 Tb360 2.658 . S
O382 Tb361 2.325 . S
O382 C369 1.281 . S
O383 Tb360 2.409 . S
O383 C369 1.254 . S
O384 Tb360 2.378 . S
O384 C370 1.236 . S
O385 Tb361 2.341 . S
O385 C370 1.266 . S
O386 Tb361 2.484 . S
O386 C371 1.248 . S
O387 Tb361 2.440 . S
O387 C371 1.266 . S
O388 Tb360 2.325 . S
O388 Tb361 2.658 . S
O388 C378 1.281 . S
O389 Tb361 2.409 . S
O389 C378 1.254 . S
O390 Tb361 2.378 . S
O390 C379 1.236 . S
O391 Tb360 2.341 . S
O391 C379 1.266 . S
H392 C364 0.929 . S
H393 C365 0.931 . S
H394 C367 0.930 . S
H395 C368 0.930 . S
H396 C373 0.929 . S
H397 C374 0.931 . S
H398 C376 0.930 . S
H399 C377 0.930 . S
Tb400 C402 2.809 . S
Tb400 O420 2.484 . S
Tb400 O421 2.440 . S
Tb400 O422 2.658 . S
Tb400 O423 2.409 . S
Tb400 O424 2.378 . S
Tb400 O428 2.325 . S
Tb400 O431 2.341 . S
Tb401 C411 2.809 . S
Tb401 O422 2.325 . S
Tb401 O425 2.341 . S
Tb401 O426 2.484 . S
Tb401 O427 2.440 . S
Tb401 O428 2.658 . S
Tb401 O429 2.409 . S
Tb401 O430 2.378 . S
C402 Tb400 2.809 . S
C402 C403 1.514 . S
C402 O420 1.248 . S
C402 O421 1.266 . S
C403 C402 1.514 . S
C403 C404 1.359 . S
C403 C408 1.348 . S
C404 C403 1.359 . S
C404 C405 1.380 1_545 S
C404 H432 0.929 . S
C405 C404 1.380 1_565 S
C405 C406 1.347 . S
C405 H433 0.931 . S
C406 C405 1.347 . S
C406 C407 1.369 1_565 S
C407 C406 1.369 1_545 S
C407 C408 1.408 . S
C407 H434 0.930 . S
C408 C403 1.348 . S
C408 C407 1.408 . S
C408 H435 0.930 . S
C409 O422 1.281 . S
C409 O423 1.254 . S
C410 O424 1.236 . S
C410 O425 1.266 . S
C411 Tb401 2.809 . S
C411 C412 1.514 . S
C411 O426 1.248 . S
C411 O427 1.266 . S
C412 C411 1.514 . S
C412 C413 1.359 . S
C412 C417 1.348 . S
C413 C412 1.359 . S
C413 C414 1.380 . S
C413 H436 0.929 . S
C414 C413 1.380 . S
C414 C415 1.347 . S
C414 H437 0.931 . S
C415 C414 1.347 . S
C415 C416 1.369 . S
C416 C415 1.369 . S
C416 C417 1.408 . S
C416 H438 0.930 . S
C417 C412 1.348 . S
C417 C416 1.408 . S
C417 H439 0.930 . S
C418 O428 1.281 . S
C418 O429 1.254 . S
C419 O430 1.236 . S
C419 O431 1.266 . S
O420 Tb400 2.484 . S
O420 C402 1.248 . S
O421 Tb400 2.440 . S
O421 C402 1.266 . S
O422 Tb400 2.658 . S
O422 Tb401 2.325 . S
O422 C409 1.281 . S
O423 Tb400 2.409 . S
O423 C409 1.254 . S
O424 Tb400 2.378 . S
O424 C410 1.236 . S
O425 Tb401 2.341 . S
O425 C410 1.266 . S
O426 Tb401 2.484 . S
O426 C411 1.248 . S
O427 Tb401 2.440 . S
O427 C411 1.266 . S
O428 Tb400 2.325 . S
O428 Tb401 2.658 . S
O428 C418 1.281 . S
O429 Tb401 2.409 . S
O429 C418 1.254 . S
O430 Tb401 2.378 . S
O430 C419 1.236 . S
O431 Tb400 2.341 . S
O431 C419 1.266 . S
H432 C404 0.929 . S
H433 C405 0.931 . S
H434 C407 0.930 . S
H435 C408 0.930 . S
H436 C413 0.929 . S
H437 C414 0.931 . S
H438 C416 0.930 . S
H439 C417 0.930 . S
Tb440 C442 2.809 . S
Tb440 O460 2.484 . S
Tb440 O461 2.440 . S
Tb440 O462 2.658 . S
Tb440 O463 2.409 . S
Tb440 O464 2.378 . S
Tb440 O468 2.325 . S
Tb440 O471 2.341 . S
Tb441 C451 2.809 . S
Tb441 O462 2.325 . S
Tb441 O465 2.341 . S
Tb441 O466 2.484 . S
Tb441 O467 2.440 . S
Tb441 O468 2.658 . S
Tb441 O469 2.409 . S
Tb441 O470 2.378 . S
C442 Tb440 2.809 . S
C442 C443 1.514 . S
C442 O460 1.248 . S
C442 O461 1.266 . S
C443 C442 1.514 . S
C443 C444 1.359 . S
C443 C448 1.348 . S
C444 C443 1.359 . S
C444 C445 1.380 1_655 S
C444 H472 0.929 . S
C445 C444 1.380 1_455 S
C445 C446 1.347 . S
C445 H473 0.931 . S
C446 C445 1.347 . S
C446 C447 1.369 1_455 S
C447 C446 1.369 1_655 S
C447 C448 1.408 . S
C447 H474 0.930 . S
C448 C443 1.348 . S
C448 C447 1.408 . S
C448 H475 0.930 . S
C449 O462 1.281 . S
C449 O463 1.254 . S
C450 O464 1.236 . S
C450 O465 1.266 . S
C451 Tb441 2.809 . S
C451 C452 1.514 . S
C451 O466 1.248 . S
C451 O467 1.266 . S
C452 C451 1.514 . S
C452 C453 1.359 . S
C452 C457 1.348 . S
C453 C452 1.359 . S
C453 C454 1.380 . S
C453 H476 0.929 . S
C454 C453 1.380 . S
C454 C455 1.347 . S
C454 H477 0.931 . S
C455 C454 1.347 . S
C455 C456 1.369 . S
C456 C455 1.369 . S
C456 C457 1.408 . S
C456 H478 0.930 . S
C457 C452 1.348 . S
C457 C456 1.408 . S
C457 H479 0.930 . S
C458 O468 1.281 . S
C458 O469 1.254 . S
C459 O470 1.236 . S
C459 O471 1.266 . S
O460 Tb440 2.484 . S
O460 C442 1.248 . S
O461 Tb440 2.440 . S
O461 C442 1.266 . S
O462 Tb440 2.658 . S
O462 Tb441 2.325 . S
O462 C449 1.281 . S
O463 Tb440 2.409 . S
O463 C449 1.254 . S
O464 Tb440 2.378 . S
O464 C450 1.236 . S
O465 Tb441 2.341 . S
O465 C450 1.266 . S
O466 Tb441 2.484 . S
O466 C451 1.248 . S
O467 Tb441 2.440 . S
O467 C451 1.266 . S
O468 Tb440 2.325 . S
O468 Tb441 2.658 . S
O468 C458 1.281 . S
O469 Tb441 2.409 . S
O469 C458 1.254 . S
O470 Tb441 2.378 . S
O470 C459 1.236 . S
O471 Tb440 2.341 . S
O471 C459 1.266 . S
H472 C444 0.929 . S
H473 C445 0.931 . S
H474 C447 0.930 . S
H475 C448 0.930 . S
H476 C453 0.929 . S
H477 C454 0.931 . S
H478 C456 0.930 . S
H479 C457 0.930 . S
Tb480 C482 2.809 . S
Tb480 O500 2.484 . S
Tb480 O501 2.440 . S
Tb480 O502 2.658 . S
Tb480 O503 2.409 . S
Tb480 O504 2.378 . S
Tb480 O508 2.325 . S
Tb480 O511 2.341 . S
Tb481 C491 2.809 . S
Tb481 O502 2.325 . S
Tb481 O505 2.341 . S
Tb481 O506 2.484 . S
Tb481 O507 2.440 . S
Tb481 O508 2.658 . S
Tb481 O509 2.409 . S
Tb481 O510 2.378 . S
C482 Tb480 2.809 . S
C482 C483 1.514 . S
C482 O500 1.248 . S
C482 O501 1.266 . S
C483 C482 1.514 . S
C483 C484 1.359 . S
C483 C488 1.348 . S
C484 C483 1.359 . S
C484 C485 1.380 . S
C484 H512 0.929 . S
C485 C484 1.380 . S
C485 C486 1.347 . S
C485 H513 0.931 . S
C486 C485 1.347 . S
C486 C487 1.369 . S
C487 C486 1.369 . S
C487 C488 1.408 . S
C487 H514 0.930 . S
C488 C483 1.348 . S
C488 C487 1.408 . S
C488 H515 0.930 . S
C489 O502 1.281 . S
C489 O503 1.254 . S
C490 O504 1.236 . S
C490 O505 1.266 . S
C491 Tb481 2.809 . S
C491 C492 1.514 . S
C491 O506 1.248 . S
C491 O507 1.266 . S
C492 C491 1.514 . S
C492 C493 1.359 . S
C492 C497 1.348 . S
C493 C492 1.359 . S
C493 C494 1.380 . S
C493 H516 0.929 . S
C494 C493 1.380 . S
C494 C495 1.347 . S
C494 H517 0.931 . S
C495 C494 1.347 . S
C495 C496 1.369 . S
C496 C495 1.369 . S
C496 C497 1.408 . S
C496 H518 0.930 . S
C497 C492 1.348 . S
C497 C496 1.408 . S
C497 H519 0.930 . S
C498 O508 1.281 . S
C498 O509 1.254 . S
C499 O510 1.236 . S
C499 O511 1.266 . S
O500 Tb480 2.484 . S
O500 C482 1.248 . S
O501 Tb480 2.440 . S
O501 C482 1.266 . S
O502 Tb480 2.658 . S
O502 Tb481 2.325 . S
O502 C489 1.281 . S
O503 Tb480 2.409 . S
O503 C489 1.254 . S
O504 Tb480 2.378 . S
O504 C490 1.236 . S
O505 Tb481 2.341 . S
O505 C490 1.266 . S
O506 Tb481 2.484 . S
O506 C491 1.248 . S
O507 Tb481 2.440 . S
O507 C491 1.266 . S
O508 Tb480 2.325 . S
O508 Tb481 2.658 . S
O508 C498 1.281 . S
O509 Tb481 2.409 . S
O509 C498 1.254 . S
O510 Tb481 2.378 . S
O510 C499 1.236 . S
O511 Tb480 2.341 . S
O511 C499 1.266 . S
H512 C484 0.929 . S
H513 C485 0.931 . S
H514 C487 0.930 . S
H515 C488 0.930 . S
H516 C493 0.929 . S
H517 C494 0.931 . S
H518 C496 0.930 . S
H519 C497 0.930 . S
Tb520 C522 2.809 . S
Tb520 O540 2.484 . S
Tb520 O541 2.440 . S
Tb520 O542 2.658 . S
Tb520 O543 2.409 . S
Tb520 O544 2.378 . S
Tb520 O548 2.325 . S
Tb520 O551 2.341 . S
Tb521 C531 2.809 . S
Tb521 O542 2.325 . S
Tb521 O545 2.341 . S
Tb521 O546 2.484 . S
Tb521 O547 2.440 . S
Tb521 O548 2.658 . S
Tb521 O549 2.409 . S
Tb521 O550 2.378 . S
C522 Tb520 2.809 . S
C522 C523 1.514 . S
C522 O540 1.248 . S
C522 O541 1.266 . S
C523 C522 1.514 . S
C523 C524 1.359 . S
C523 C528 1.348 . S
C524 C523 1.359 . S
C524 C525 1.380 . S
C524 H552 0.929 . S
C525 C524 1.380 . S
C525 C526 1.347 . S
C525 H553 0.931 . S
C526 C525 1.347 . S
C526 C527 1.369 . S
C527 C526 1.369 . S
C527 C528 1.408 . S
C527 H554 0.930 . S
C528 C523 1.348 . S
C528 C527 1.408 . S
C528 H555 0.930 . S
C529 O542 1.281 . S
C529 O543 1.254 . S
C530 O544 1.236 . S
C530 O545 1.266 . S
C531 Tb521 2.809 . S
C531 C532 1.514 . S
C531 O546 1.248 . S
C531 O547 1.266 . S
C532 C531 1.514 . S
C532 C533 1.359 . S
C532 C537 1.348 . S
C533 C532 1.359 . S
C533 C534 1.380 . S
C533 H556 0.929 . S
C534 C533 1.380 . S
C534 C535 1.347 . S
C534 H557 0.931 . S
C535 C534 1.347 . S
C535 C536 1.369 . S
C536 C535 1.369 . S
C536 C537 1.408 . S
C536 H558 0.930 . S
C537 C532 1.348 . S
C537 C536 1.408 . S
C537 H559 0.930 . S
C538 O548 1.281 . S
C538 O549 1.254 . S
C539 O550 1.236 . S
C539 O551 1.266 . S
O540 Tb520 2.484 . S
O540 C522 1.248 . S
O541 Tb520 2.440 . S
O541 C522 1.266 . S
O542 Tb520 2.658 . S
O542 Tb521 2.325 . S
O542 C529 1.281 . S
O543 Tb520 2.409 . S
O543 C529 1.254 . S
O544 Tb520 2.378 . S
O544 C530 1.236 . S
O545 Tb521 2.341 . S
O545 C530 1.266 . S
O546 Tb521 2.484 . S
O546 C531 1.248 . S
O547 Tb521 2.440 . S
O547 C531 1.266 . S
O548 Tb520 2.325 . S
O548 Tb521 2.658 . S
O548 C538 1.281 . S
O549 Tb521 2.409 . S
O549 C538 1.254 . S
O550 Tb521 2.378 . S
O550 C539 1.236 . S
O551 Tb520 2.341 . S
O551 C539 1.266 . S
H552 C524 0.929 . S
H553 C525 0.931 . S
H554 C527 0.930 . S
H555 C528 0.930 . S
H556 C533 0.929 . S
H557 C534 0.931 . S
H558 C536 0.930 . S
H559 C537 0.930 . S
Tb560 C562 2.809 . S
Tb560 O580 2.484 . S
Tb560 O581 2.440 . S
Tb560 O582 2.658 . S
Tb560 O583 2.409 . S
Tb560 O584 2.378 . S
Tb560 O588 2.325 . S
Tb560 O591 2.341 . S
Tb561 C571 2.809 . S
Tb561 O582 2.325 . S
Tb561 O585 2.341 . S
Tb561 O586 2.484 . S
Tb561 O587 2.440 . S
Tb561 O588 2.658 . S
Tb561 O589 2.409 . S
Tb561 O590 2.378 . S
C562 Tb560 2.809 . S
C562 C563 1.514 . S
C562 O580 1.248 . S
C562 O581 1.266 . S
C563 C562 1.514 . S
C563 C564 1.359 . S
C563 C568 1.348 . S
C564 C563 1.359 . S
C564 C565 1.380 . S
C564 H592 0.929 . S
C565 C564 1.380 . S
C565 C566 1.347 . S
C565 H593 0.931 . S
C566 C565 1.347 . S
C566 C567 1.369 . S
C567 C566 1.369 . S
C567 C568 1.408 . S
C567 H594 0.930 . S
C568 C563 1.348 . S
C568 C567 1.408 . S
C568 H595 0.930 . S
C569 O582 1.281 . S
C569 O583 1.254 . S
C570 O584 1.236 . S
C570 O585 1.266 . S
C571 Tb561 2.809 . S
C571 C572 1.514 . S
C571 O586 1.248 . S
C571 O587 1.266 . S
C572 C571 1.514 . S
C572 C573 1.359 . S
C572 C577 1.348 . S
C573 C572 1.359 . S
C573 C574 1.380 . S
C573 H596 0.929 . S
C574 C573 1.380 . S
C574 C575 1.347 . S
C574 H597 0.931 . S
C575 C574 1.347 . S
C575 C576 1.369 . S
C576 C575 1.369 . S
C576 C577 1.408 . S
C576 H598 0.930 . S
C577 C572 1.348 . S
C577 C576 1.408 . S
C577 H599 0.930 . S
C578 O588 1.281 . S
C578 O589 1.254 . S
C579 O590 1.236 . S
C579 O591 1.266 . S
O580 Tb560 2.484 . S
O580 C562 1.248 . S
O581 Tb560 2.440 . S
O581 C562 1.266 . S
O582 Tb560 2.658 . S
O582 Tb561 2.325 . S
O582 C569 1.281 . S
O583 Tb560 2.409 . S
O583 C569 1.254 . S
O584 Tb560 2.378 . S
O584 C570 1.236 . S
O585 Tb561 2.341 . S
O585 C570 1.266 . S
O586 Tb561 2.484 . S
O586 C571 1.248 . S
O587 Tb561 2.440 . S
O587 C571 1.266 . S
O588 Tb560 2.325 . S
O588 Tb561 2.658 . S
O588 C578 1.281 . S
O589 Tb561 2.409 . S
O589 C578 1.254 . S
O590 Tb561 2.378 . S
O590 C579 1.236 . S
O591 Tb560 2.341 . S
O591 C579 1.266 . S
H592 C564 0.929 . S
H593 C565 0.931 . S
H594 C567 0.930 . S
H595 C568 0.930 . S
H596 C573 0.929 . S
H597 C574 0.931 . S
H598 C576 0.930 . S
H599 C577 0.930 . S
Tb600 C602 2.809 . S
Tb600 O620 2.484 . S
Tb600 O621 2.440 . S
Tb600 O622 2.658 . S
Tb600 O623 2.409 . S
Tb600 O624 2.378 . S
Tb600 O628 2.325 . S
Tb600 O631 2.341 . S
Tb601 C611 2.809 . S
Tb601 O622 2.325 . S
Tb601 O625 2.341 . S
Tb601 O626 2.484 . S
Tb601 O627 2.440 . S
Tb601 O628 2.658 . S
Tb601 O629 2.409 . S
Tb601 O630 2.378 . S
C602 Tb600 2.809 . S
C602 C603 1.514 . S
C602 O620 1.248 . S
C602 O621 1.266 . S
C603 C602 1.514 . S
C603 C604 1.359 . S
C603 C608 1.348 . S
C604 C603 1.359 . S
C604 C605 1.380 . S
C604 H632 0.929 . S
C605 C604 1.380 . S
C605 C606 1.347 . S
C605 H633 0.931 . S
C606 C605 1.347 . S
C606 C607 1.369 . S
C607 C606 1.369 . S
C607 C608 1.408 . S
C607 H634 0.930 . S
C608 C603 1.348 . S
C608 C607 1.408 . S
C608 H635 0.930 . S
C609 O622 1.281 . S
C609 O623 1.254 . S
C610 O624 1.236 . S
C610 O625 1.266 . S
C611 Tb601 2.809 . S
C611 C612 1.514 . S
C611 O626 1.248 . S
C611 O627 1.266 . S
C612 C611 1.514 . S
C612 C613 1.359 . S
C612 C617 1.348 . S
C613 C612 1.359 . S
C613 C614 1.380 . S
C613 H636 0.929 . S
C614 C613 1.380 . S
C614 C615 1.347 . S
C614 H637 0.931 . S
C615 C614 1.347 . S
C615 C616 1.369 . S
C616 C615 1.369 . S
C616 C617 1.408 . S
C616 H638 0.930 . S
C617 C612 1.348 . S
C617 C616 1.408 . S
C617 H639 0.930 . S
C618 O628 1.281 . S
C618 O629 1.254 . S
C619 O630 1.236 . S
C619 O631 1.266 . S
O620 Tb600 2.484 . S
O620 C602 1.248 . S
O621 Tb600 2.440 . S
O621 C602 1.266 . S
O622 Tb600 2.658 . S
O622 Tb601 2.325 . S
O622 C609 1.281 . S
O623 Tb600 2.409 . S
O623 C609 1.254 . S
O624 Tb600 2.378 . S
O624 C610 1.236 . S
O625 Tb601 2.341 . S
O625 C610 1.266 . S
O626 Tb601 2.484 . S
O626 C611 1.248 . S
O627 Tb601 2.440 . S
O627 C611 1.266 . S
O628 Tb600 2.325 . S
O628 Tb601 2.658 . S
O628 C618 1.281 . S
O629 Tb601 2.409 . S
O629 C618 1.254 . S
O630 Tb601 2.378 . S
O630 C619 1.236 . S
O631 Tb600 2.341 . S
O631 C619 1.266 . S
H632 C604 0.929 . S
H633 C605 0.931 . S
H634 C607 0.930 . S
H635 C608 0.930 . S
H636 C613 0.929 . S
H637 C614 0.931 . S
H638 C616 0.930 . S
H639 C617 0.930 . S
Tb640 C642 2.809 . S
Tb640 O660 2.484 . S
Tb640 O661 2.440 . S
Tb640 O662 2.658 . S
Tb640 O663 2.409 . S
Tb640 O664 2.378 . S
Tb640 O668 2.325 . S
Tb640 O671 2.341 . S
Tb641 C651 2.809 . S
Tb641 O662 2.325 . S
Tb641 O665 2.341 . S
Tb641 O666 2.484 . S
Tb641 O667 2.440 . S
Tb641 O668 2.658 . S
Tb641 O669 2.409 . S
Tb641 O670 2.378 . S
C642 Tb640 2.809 . S
C642 C643 1.514 . S
C642 O660 1.248 . S
C642 O661 1.266 . S
C643 C642 1.514 . S
C643 C644 1.359 . S
C643 C648 1.348 . S
C644 C643 1.359 . S
C644 C645 1.380 . S
C644 H672 0.929 . S
C645 C644 1.380 . S
C645 C646 1.347 . S
C645 H673 0.931 . S
C646 C645 1.347 . S
C646 C647 1.369 . S
C647 C646 1.369 . S
C647 C648 1.408 . S
C647 H674 0.930 . S
C648 C643 1.348 . S
C648 C647 1.408 . S
C648 H675 0.930 . S
C649 O662 1.281 . S
C649 O663 1.254 . S
C650 O664 1.236 . S
C650 O665 1.266 . S
C651 Tb641 2.809 . S
C651 C652 1.514 . S
C651 O666 1.248 . S
C651 O667 1.266 . S
C652 C651 1.514 . S
C652 C653 1.359 . S
C652 C657 1.348 . S
C653 C652 1.359 . S
C653 C654 1.380 . S
C653 H676 0.929 . S
C654 C653 1.380 . S
C654 C655 1.347 . S
C654 H677 0.931 . S
C655 C654 1.347 . S
C655 C656 1.369 . S
C656 C655 1.369 . S
C656 C657 1.408 . S
C656 H678 0.930 . S
C657 C652 1.348 . S
C657 C656 1.408 . S
C657 H679 0.930 . S
C658 O668 1.281 . S
C658 O669 1.254 . S
C659 O670 1.236 . S
C659 O671 1.266 . S
O660 Tb640 2.484 . S
O660 C642 1.248 . S
O661 Tb640 2.440 . S
O661 C642 1.266 . S
O662 Tb640 2.658 . S
O662 Tb641 2.325 . S
O662 C649 1.281 . S
O663 Tb640 2.409 . S
O663 C649 1.254 . S
O664 Tb640 2.378 . S
O664 C650 1.236 . S
O665 Tb641 2.341 . S
O665 C650 1.266 . S
O666 Tb641 2.484 . S
O666 C651 1.248 . S
O667 Tb641 2.440 . S
O667 C651 1.266 . S
O668 Tb640 2.325 . S
O668 Tb641 2.658 . S
O668 C658 1.281 . S
O669 Tb641 2.409 . S
O669 C658 1.254 . S
O670 Tb641 2.378 . S
O670 C659 1.236 . S
O671 Tb640 2.341 . S
O671 C659 1.266 . S
H672 C644 0.929 . S
H673 C645 0.931 . S
H674 C647 0.930 . S
H675 C648 0.930 . S
H676 C653 0.929 . S
H677 C654 0.931 . S
H678 C656 0.930 . S
H679 C657 0.930 . S
Tb680 C682 2.809 . S
Tb680 O700 2.484 . S
Tb680 O701 2.440 . S
Tb680 O702 2.658 . S
Tb680 O703 2.409 . S
Tb680 O704 2.378 . S
Tb680 O708 2.325 . S
Tb680 O711 2.341 . S
Tb681 C691 2.809 . S
Tb681 O702 2.325 . S
Tb681 O705 2.341 . S
Tb681 O706 2.484 . S
Tb681 O707 2.440 . S
Tb681 O708 2.658 . S
Tb681 O709 2.409 . S
Tb681 O710 2.378 . S
C682 Tb680 2.809 . S
C682 C683 1.514 . S
C682 O700 1.248 . S
C682 O701 1.266 . S
C683 C682 1.514 . S
C683 C684 1.359 . S
C683 C688 1.348 . S
C684 C683 1.359 . S
C684 C685 1.380 . S
C684 H712 0.929 . S
C685 C684 1.380 . S
C685 C686 1.347 . S
C685 H713 0.931 . S
C686 C685 1.347 . S
C686 C687 1.369 . S
C687 C686 1.369 . S
C687 C688 1.408 . S
C687 H714 0.930 . S
C688 C683 1.348 . S
C688 C687 1.408 . S
C688 H715 0.930 . S
C689 O702 1.281 . S
C689 O703 1.254 . S
C690 O704 1.236 . S
C690 O705 1.266 . S
C691 Tb681 2.809 . S
C691 C692 1.514 . S
C691 O706 1.248 . S
C691 O707 1.266 . S
C692 C691 1.514 . S
C692 C693 1.359 . S
C692 C697 1.348 . S
C693 C692 1.359 . S
C693 C694 1.380 . S
C693 H716 0.929 . S
C694 C693 1.380 . S
C694 C695 1.347 . S
C694 H717 0.931 . S
C695 C694 1.347 . S
C695 C696 1.369 . S
C696 C695 1.369 . S
C696 C697 1.408 . S
C696 H718 0.930 . S
C697 C692 1.348 . S
C697 C696 1.408 . S
C697 H719 0.930 . S
C698 O708 1.281 . S
C698 O709 1.254 . S
C699 O710 1.236 . S
C699 O711 1.266 . S
O700 Tb680 2.484 . S
O700 C682 1.248 . S
O701 Tb680 2.440 . S
O701 C682 1.266 . S
O702 Tb680 2.658 . S
O702 Tb681 2.325 . S
O702 C689 1.281 . S
O703 Tb680 2.409 . S
O703 C689 1.254 . S
O704 Tb680 2.378 . S
O704 C690 1.236 . S
O705 Tb681 2.341 . S
O705 C690 1.266 . S
O706 Tb681 2.484 . S
O706 C691 1.248 . S
O707 Tb681 2.440 . S
O707 C691 1.266 . S
O708 Tb680 2.325 . S
O708 Tb681 2.658 . S
O708 C698 1.281 . S
O709 Tb681 2.409 . S
O709 C698 1.254 . S
O710 Tb681 2.378 . S
O710 C699 1.236 . S
O711 Tb680 2.341 . S
O711 C699 1.266 . S
H712 C684 0.929 . S
H713 C685 0.931 . S
H714 C687 0.930 . S
H715 C688 0.930 . S
H716 C693 0.929 . S
H717 C694 0.931 . S
H718 C696 0.930 . S
H719 C697 0.930 . S
Tb720 C722 2.809 . S
Tb720 O740 2.484 . S
Tb720 O741 2.440 . S
Tb720 O742 2.658 . S
Tb720 O743 2.409 . S
Tb720 O744 2.378 . S
Tb720 O748 2.325 . S
Tb720 O751 2.341 . S
Tb721 C731 2.809 . S
Tb721 O742 2.325 . S
Tb721 O745 2.341 . S
Tb721 O746 2.484 . S
Tb721 O747 2.440 . S
Tb721 O748 2.658 . S
Tb721 O749 2.409 . S
Tb721 O750 2.378 . S
C722 Tb720 2.809 . S
C722 C723 1.514 . S
C722 O740 1.248 . S
C722 O741 1.266 . S
C723 C722 1.514 . S
C723 C724 1.359 . S
C723 C728 1.348 . S
C724 C723 1.359 . S
C724 C725 1.380 . S
C724 H752 0.929 . S
C725 C724 1.380 . S
C725 C726 1.347 . S
C725 H753 0.931 . S
C726 C725 1.347 . S
C726 C727 1.369 . S
C727 C726 1.369 . S
C727 C728 1.408 . S
C727 H754 0.930 . S
C728 C723 1.348 . S
C728 C727 1.408 . S
C728 H755 0.930 . S
C729 O742 1.281 . S
C729 O743 1.254 . S
C730 O744 1.236 . S
C730 O745 1.266 . S
C731 Tb721 2.809 . S
C731 C732 1.514 . S
C731 O746 1.248 . S
C731 O747 1.266 . S
C732 C731 1.514 . S
C732 C733 1.359 . S
C732 C737 1.348 . S
C733 C732 1.359 . S
C733 C734 1.380 . S
C733 H756 0.929 . S
C734 C733 1.380 . S
C734 C735 1.347 . S
C734 H757 0.931 . S
C735 C734 1.347 . S
C735 C736 1.369 . S
C736 C735 1.369 . S
C736 C737 1.408 . S
C736 H758 0.930 . S
C737 C732 1.348 . S
C737 C736 1.408 . S
C737 H759 0.930 . S
C738 O748 1.281 . S
C738 O749 1.254 . S
C739 O750 1.236 . S
C739 O751 1.266 . S
O740 Tb720 2.484 . S
O740 C722 1.248 . S
O741 Tb720 2.440 . S
O741 C722 1.266 . S
O742 Tb720 2.658 . S
O742 Tb721 2.325 . S
O742 C729 1.281 . S
O743 Tb720 2.409 . S
O743 C729 1.254 . S
O744 Tb720 2.378 . S
O744 C730 1.236 . S
O745 Tb721 2.341 . S
O745 C730 1.266 . S
O746 Tb721 2.484 . S
O746 C731 1.248 . S
O747 Tb721 2.440 . S
O747 C731 1.266 . S
O748 Tb720 2.325 . S
O748 Tb721 2.658 . S
O748 C738 1.281 . S
O749 Tb721 2.409 . S
O749 C738 1.254 . S
O750 Tb721 2.378 . S
O750 C739 1.236 . S
O751 Tb720 2.341 . S
O751 C739 1.266 . S
H752 C724 0.929 . S
H753 C725 0.931 . S
H754 C727 0.930 . S
H755 C728 0.930 . S
H756 C733 0.929 . S
H757 C734 0.931 . S
H758 C736 0.930 . S
H759 C737 0.930 . S
Tb760 C762 2.809 . S
Tb760 O780 2.484 . S
Tb760 O781 2.440 . S
Tb760 O782 2.658 . S
Tb760 O783 2.409 . S
Tb760 O784 2.378 . S
Tb760 O788 2.325 . S
Tb760 O791 2.341 . S
Tb761 C771 2.809 . S
Tb761 O782 2.325 . S
Tb761 O785 2.341 . S
Tb761 O786 2.484 . S
Tb761 O787 2.440 . S
Tb761 O788 2.658 . S
Tb761 O789 2.409 . S
Tb761 O790 2.378 . S
C762 Tb760 2.809 . S
C762 C763 1.514 . S
C762 O780 1.248 . S
C762 O781 1.266 . S
C763 C762 1.514 . S
C763 C764 1.359 . S
C763 C768 1.348 . S
C764 C763 1.359 . S
C764 C765 1.380 . S
C764 H792 0.929 . S
C765 C764 1.380 . S
C765 C766 1.347 . S
C765 H793 0.931 . S
C766 C765 1.347 . S
C766 C767 1.369 . S
C767 C766 1.369 . S
C767 C768 1.408 . S
C767 H794 0.930 . S
C768 C763 1.348 . S
C768 C767 1.408 . S
C768 H795 0.930 . S
C769 O782 1.281 . S
C769 O783 1.254 . S
C770 O784 1.236 . S
C770 O785 1.266 . S
C771 Tb761 2.809 . S
C771 C772 1.514 . S
C771 O786 1.248 . S
C771 O787 1.266 . S
C772 C771 1.514 . S
C772 C773 1.359 . S
C772 C777 1.348 . S
C773 C772 1.359 . S
C773 C774 1.380 . S
C773 H796 0.929 . S
C774 C773 1.380 . S
C774 C775 1.347 . S
C774 H797 0.931 . S
C775 C774 1.347 . S
C775 C776 1.369 . S
C776 C775 1.369 . S
C776 C777 1.408 . S
C776 H798 0.930 . S
C777 C772 1.348 . S
C777 C776 1.408 . S
C777 H799 0.930 . S
C778 O788 1.281 . S
C778 O789 1.254 . S
C779 O790 1.236 . S
C779 O791 1.266 . S
O780 Tb760 2.484 . S
O780 C762 1.248 . S
O781 Tb760 2.440 . S
O781 C762 1.266 . S
O782 Tb760 2.658 . S
O782 Tb761 2.325 . S
O782 C769 1.281 . S
O783 Tb760 2.409 . S
O783 C769 1.254 . S
O784 Tb760 2.378 . S
O784 C770 1.236 . S
O785 Tb761 2.341 . S
O785 C770 1.266 . S
O786 Tb761 2.484 . S
O786 C771 1.248 . S
O787 Tb761 2.440 . S
O787 C771 1.266 . S
O788 Tb760 2.325 . S
O788 Tb761 2.658 . S
O788 C778 1.281 . S
O789 Tb761 2.409 . S
O789 C778 1.254 . S
O790 Tb761 2.378 . S
O790 C779 1.236 . S
O791 Tb760 2.341 . S
O791 C779 1.266 . S
H792 C764 0.929 . S
H793 C765 0.931 . S
H794 C767 0.930 . S
H795 C768 0.930 . S
H796 C773 0.929 . S
H797 C774 0.931 . S
H798 C776 0.930 . S
H799 C777 0.930 . S
Tb800 C802 2.809 . S
Tb800 O820 2.484 . S
Tb800 O821 2.440 . S
Tb800 O822 2.658 . S
Tb800 O823 2.409 . S
Tb800 O824 2.378 . S
Tb800 O828 2.325 . S
Tb800 O831 2.341 . S
Tb801 C811 2.809 . S
Tb801 O822 2.325 . S
Tb801 O825 2.341 . S
Tb801 O826 2.484 . S
Tb801 O827 2.440 . S
Tb801 O828 2.658 . S
Tb801 O829 2.409 . S
Tb801 O830 2.378 . S
C802 Tb800 2.809 . S
C802 C803 1.514 . S
C802 O820 1.248 . S
C802 O821 1.266 . S
C803 C802 1.514 . S
C803 C804 1.359 . S
C803 C808 1.348 . S
C804 C803 1.359 . S
C804 C805 1.380 . S
C804 H832 0.929 . S
C805 C804 1.380 . S
C805 C806 1.347 . S
C805 H833 0.931 . S
C806 C805 1.347 . S
C806 C807 1.369 . S
C807 C806 1.369 . S
C807 C808 1.408 . S
C807 H834 0.930 . S
C808 C803 1.348 . S
C808 C807 1.408 . S
C808 H835 0.930 . S
C809 O822 1.281 . S
C809 O823 1.254 . S
C810 O824 1.236 . S
C810 O825 1.266 . S
C811 Tb801 2.809 . S
C811 C812 1.514 . S
C811 O826 1.248 . S
C811 O827 1.266 . S
C812 C811 1.514 . S
C812 C813 1.359 . S
C812 C817 1.348 . S
C813 C812 1.359 . S
C813 C814 1.380 . S
C813 H836 0.929 . S
C814 C813 1.380 . S
C814 C815 1.347 . S
C814 H837 0.931 . S
C815 C814 1.347 . S
C815 C816 1.369 . S
C816 C815 1.369 . S
C816 C817 1.408 . S
C816 H838 0.930 . S
C817 C812 1.348 . S
C817 C816 1.408 . S
C817 H839 0.930 . S
C818 O828 1.281 . S
C818 O829 1.254 . S
C819 O830 1.236 . S
C819 O831 1.266 . S
O820 Tb800 2.484 . S
O820 C802 1.248 . S
O821 Tb800 2.440 . S
O821 C802 1.266 . S
O822 Tb800 2.658 . S
O822 Tb801 2.325 . S
O822 C809 1.281 . S
O823 Tb800 2.409 . S
O823 C809 1.254 . S
O824 Tb800 2.378 . S
O824 C810 1.236 . S
O825 Tb801 2.341 . S
O825 C810 1.266 . S
O826 Tb801 2.484 . S
O826 C811 1.248 . S
O827 Tb801 2.440 . S
O827 C811 1.266 . S
O828 Tb800 2.325 . S
O828 Tb801 2.658 . S
O828 C818 1.281 . S
O829 Tb801 2.409 . S
O829 C818 1.254 . S
O830 Tb801 2.378 . S
O830 C819 1.236 . S
O831 Tb800 2.341 . S
O831 C819 1.266 . S
H832 C804 0.929 . S
H833 C805 0.931 . S
H834 C807 0.930 . S
H835 C808 0.930 . S
H836 C813 0.929 . S
H837 C814 0.931 . S
H838 C816 0.930 . S
H839 C817 0.930 . S
Tb840 C842 2.809 . S
Tb840 O860 2.484 . S
Tb840 O861 2.440 . S
Tb840 O862 2.658 . S
Tb840 O863 2.409 . S
Tb840 O864 2.378 . S
Tb840 O868 2.325 . S
Tb840 O871 2.341 . S
Tb841 C851 2.809 . S
Tb841 O862 2.325 . S
Tb841 O865 2.341 . S
Tb841 O866 2.484 . S
Tb841 O867 2.440 . S
Tb841 O868 2.658 . S
Tb841 O869 2.409 . S
Tb841 O870 2.378 . S
C842 Tb840 2.809 . S
C842 C843 1.514 . S
C842 O860 1.248 . S
C842 O861 1.266 . S
C843 C842 1.514 . S
C843 C844 1.359 . S
C843 C848 1.348 . S
C844 C843 1.359 . S
C844 C845 1.380 . S
C844 H872 0.929 . S
C845 C844 1.380 . S
C845 C846 1.347 . S
C845 H873 0.931 . S
C846 C845 1.347 . S
C846 C847 1.369 . S
C847 C846 1.369 . S
C847 C848 1.408 . S
C847 H874 0.930 . S
C848 C843 1.348 . S
C848 C847 1.408 . S
C848 H875 0.930 . S
C849 O862 1.281 . S
C849 O863 1.254 . S
C850 O864 1.236 . S
C850 O865 1.266 . S
C851 Tb841 2.809 . S
C851 C852 1.514 . S
C851 O866 1.248 . S
C851 O867 1.266 . S
C852 C851 1.514 . S
C852 C853 1.359 . S
C852 C857 1.348 . S
C853 C852 1.359 . S
C853 C854 1.380 . S
C853 H876 0.929 . S
C854 C853 1.380 . S
C854 C855 1.347 . S
C854 H877 0.931 . S
C855 C854 1.347 . S
C855 C856 1.369 . S
C856 C855 1.369 . S
C856 C857 1.408 . S
C856 H878 0.930 . S
C857 C852 1.348 . S
C857 C856 1.408 . S
C857 H879 0.930 . S
C858 O868 1.281 1_554 S
C858 O869 1.254 1_554 S
C859 O870 1.236 . S
C859 O871 1.266 . S
O860 Tb840 2.484 . S
O860 C842 1.248 . S
O861 Tb840 2.440 . S
O861 C842 1.266 . S
O862 Tb840 2.658 . S
O862 Tb841 2.325 . S
O862 C849 1.281 . S
O863 Tb840 2.409 . S
O863 C849 1.254 . S
O864 Tb840 2.378 . S
O864 C850 1.236 . S
O865 Tb841 2.341 . S
O865 C850 1.266 . S
O866 Tb841 2.484 . S
O866 C851 1.248 . S
O867 Tb841 2.440 . S
O867 C851 1.266 . S
O868 Tb840 2.325 . S
O868 Tb841 2.658 . S
O868 C858 1.281 1_556 S
O869 Tb841 2.409 . S
O869 C858 1.254 1_556 S
O870 Tb841 2.378 . S
O870 C859 1.236 . S
O871 Tb840 2.341 . S
O871 C859 1.266 . S
H872 C844 0.929 . S
H873 C845 0.931 . S
H874 C847 0.930 . S
H875 C848 0.930 . S
H876 C853 0.929 . S
H877 C854 0.931 . S
H878 C856 0.930 . S
H879 C857 0.930 . S
Tb880 C882 2.809 . S
Tb880 O900 2.484 . S
Tb880 O901 2.440 . S
Tb880 O902 2.658 . S
Tb880 O903 2.409 . S
Tb880 O904 2.378 . S
Tb880 O908 2.325 . S
Tb880 O911 2.341 . S
Tb881 C891 2.809 . S
Tb881 O902 2.325 . S
Tb881 O905 2.341 . S
Tb881 O906 2.484 . S
Tb881 O907 2.440 . S
Tb881 O908 2.658 . S
Tb881 O909 2.409 . S
Tb881 O910 2.378 . S
C882 Tb880 2.809 . S
C882 C883 1.514 . S
C882 O900 1.248 . S
C882 O901 1.266 . S
C883 C882 1.514 . S
C883 C884 1.359 . S
C883 C888 1.348 . S
C884 C883 1.359 . S
C884 C885 1.380 . S
C884 H912 0.929 . S
C885 C884 1.380 . S
C885 C886 1.347 . S
C885 H913 0.931 . S
C886 C885 1.347 . S
C886 C887 1.369 . S
C887 C886 1.369 . S
C887 C888 1.408 . S
C887 H914 0.930 . S
C888 C883 1.348 . S
C888 C887 1.408 . S
C888 H915 0.930 . S
C889 O902 1.281 . S
C889 O903 1.254 . S
C890 O904 1.236 . S
C890 O905 1.266 . S
C891 Tb881 2.809 . S
C891 C892 1.514 . S
C891 O906 1.248 . S
C891 O907 1.266 . S
C892 C891 1.514 . S
C892 C893 1.359 . S
C892 C897 1.348 . S
C893 C892 1.359 . S
C893 C894 1.380 . S
C893 H916 0.929 . S
C894 C893 1.380 . S
C894 C895 1.347 . S
C894 H917 0.931 . S
C895 C894 1.347 . S
C895 C896 1.369 . S
C896 C895 1.369 . S
C896 C897 1.408 . S
C896 H918 0.930 . S
C897 C892 1.348 . S
C897 C896 1.408 . S
C897 H919 0.930 . S
C898 O908 1.281 1_554 S
C898 O909 1.254 1_554 S
C899 O910 1.236 . S
C899 O911 1.266 . S
O900 Tb880 2.484 . S
O900 C882 1.248 . S
O901 Tb880 2.440 . S
O901 C882 1.266 . S
O902 Tb880 2.658 . S
O902 Tb881 2.325 . S
O902 C889 1.281 . S
O903 Tb880 2.409 . S
O903 C889 1.254 . S
O904 Tb880 2.378 . S
O904 C890 1.236 . S
O905 Tb881 2.341 . S
O905 C890 1.266 . S
O906 Tb881 2.484 . S
O906 C891 1.248 . S
O907 Tb881 2.440 . S
O907 C891 1.266 . S
O908 Tb880 2.325 . S
O908 Tb881 2.658 . S
O908 C898 1.281 1_556 S
O909 Tb881 2.409 . S
O909 C898 1.254 1_556 S
O910 Tb881 2.378 . S
O910 C899 1.236 . S
O911 Tb880 2.341 . S
O911 C899 1.266 . S
H912 C884 0.929 . S
H913 C885 0.931 . S
H914 C887 0.930 . S
H915 C888 0.930 . S
H916 C893 0.929 . S
H917 C894 0.931 . S
H918 C896 0.930 . S
H919 C897 0.930 . S
Tb920 C922 2.809 . S
Tb920 O940 2.484 . S
Tb920 O941 2.440 . S
Tb920 O942 2.658 . S
Tb920 O943 2.409 . S
Tb920 O944 2.378 . S
Tb920 O948 2.325 . S
Tb920 O951 2.341 . S
Tb921 C931 2.809 . S
Tb921 O942 2.325 . S
Tb921 O945 2.341 . S
Tb921 O946 2.484 . S
Tb921 O947 2.440 . S
Tb921 O948 2.658 . S
Tb921 O949 2.409 . S
Tb921 O950 2.378 . S
C922 Tb920 2.809 . S
C922 C923 1.514 . S
C922 O940 1.248 . S
C922 O941 1.266 . S
C923 C922 1.514 . S
C923 C924 1.359 . S
C923 C928 1.348 . S
C924 C923 1.359 . S
C924 C925 1.380 . S
C924 H952 0.929 . S
C925 C924 1.380 . S
C925 C926 1.347 . S
C925 H953 0.931 . S
C926 C925 1.347 . S
C926 C927 1.369 . S
C927 C926 1.369 . S
C927 C928 1.408 . S
C927 H954 0.930 . S
C928 C923 1.348 . S
C928 C927 1.408 . S
C928 H955 0.930 . S
C929 O942 1.281 . S
C929 O943 1.254 . S
C930 O944 1.236 . S
C930 O945 1.266 . S
C931 Tb921 2.809 . S
C931 C932 1.514 . S
C931 O946 1.248 . S
C931 O947 1.266 . S
C932 C931 1.514 . S
C932 C933 1.359 . S
C932 C937 1.348 . S
C933 C932 1.359 . S
C933 C934 1.380 . S
C933 H956 0.929 . S
C934 C933 1.380 . S
C934 C935 1.347 . S
C934 H957 0.931 . S
C935 C934 1.347 . S
C935 C936 1.369 . S
C936 C935 1.369 . S
C936 C937 1.408 . S
C936 H958 0.930 . S
C937 C932 1.348 . S
C937 C936 1.408 . S
C937 H959 0.930 . S
C938 O948 1.281 1_554 S
C938 O949 1.254 1_554 S
C939 O950 1.236 . S
C939 O951 1.266 . S
O940 Tb920 2.484 . S
O940 C922 1.248 . S
O941 Tb920 2.440 . S
O941 C922 1.266 . S
O942 Tb920 2.658 . S
O942 Tb921 2.325 . S
O942 C929 1.281 . S
O943 Tb920 2.409 . S
O943 C929 1.254 . S
O944 Tb920 2.378 . S
O944 C930 1.236 . S
O945 Tb921 2.341 . S
O945 C930 1.266 . S
O946 Tb921 2.484 . S
O946 C931 1.248 . S
O947 Tb921 2.440 . S
O947 C931 1.266 . S
O948 Tb920 2.325 . S
O948 Tb921 2.658 . S
O948 C938 1.281 1_556 S
O949 Tb921 2.409 . S
O949 C938 1.254 1_556 S
O950 Tb921 2.378 . S
O950 C939 1.236 . S
O951 Tb920 2.341 . S
O951 C939 1.266 . S
H952 C924 0.929 . S
H953 C925 0.931 . S
H954 C927 0.930 . S
H955 C928 0.930 . S
H956 C933 0.929 . S
H957 C934 0.931 . S
H958 C936 0.930 . S
H959 C937 0.930 . S
Tb960 C962 2.809 . S
Tb960 O980 2.484 . S
Tb960 O981 2.440 . S
Tb960 O982 2.658 . S
Tb960 O983 2.409 . S
Tb960 O984 2.378 . S
Tb960 O988 2.325 . S
Tb960 O991 2.341 . S
Tb961 C971 2.809 . S
Tb961 O982 2.325 . S
Tb961 O985 2.341 . S
Tb961 O986 2.484 . S
Tb961 O987 2.440 . S
Tb961 O988 2.658 . S
Tb961 O989 2.409 . S
Tb961 O990 2.378 . S
C962 Tb960 2.809 . S
C962 C963 1.514 . S
C962 O980 1.248 . S
C962 O981 1.266 . S
C963 C962 1.514 . S
C963 C964 1.359 . S
C963 C968 1.348 . S
C964 C963 1.359 . S
C964 C965 1.380 . S
C964 H992 0.929 . S
C965 C964 1.380 . S
C965 C966 1.347 . S
C965 H993 0.931 . S
C966 C965 1.347 . S
C966 C967 1.369 . S
C967 C966 1.369 . S
C967 C968 1.408 . S
C967 H994 0.930 . S
C968 C963 1.348 . S
C968 C967 1.408 . S
C968 H995 0.930 . S
C969 O982 1.281 . S
C969 O983 1.254 . S
C970 O984 1.236 . S
C970 O985 1.266 . S
C971 Tb961 2.809 . S
C971 C972 1.514 . S
C971 O986 1.248 . S
C971 O987 1.266 . S
C972 C971 1.514 . S
C972 C973 1.359 . S
C972 C977 1.348 . S
C973 C972 1.359 . S
C973 C974 1.380 . S
C973 H996 0.929 . S
C974 C973 1.380 . S
C974 C975 1.347 . S
C974 H997 0.931 . S
C975 C974 1.347 . S
C975 C976 1.369 . S
C976 C975 1.369 . S
C976 C977 1.408 . S
C976 H998 0.930 . S
C977 C972 1.348 . S
C977 C976 1.408 . S
C977 H999 0.930 . S
C978 O988 1.281 . S
C978 O989 1.254 . S
C979 O990 1.236 . S
C979 O991 1.266 . S
O980 Tb960 2.484 . S
O980 C962 1.248 . S
O981 Tb960 2.440 . S
O981 C962 1.266 . S
O982 Tb960 2.658 . S
O982 Tb961 2.325 . S
O982 C969 1.281 . S
O983 Tb960 2.409 . S
O983 C969 1.254 . S
O984 Tb960 2.378 . S
O984 C970 1.236 . S
O985 Tb961 2.341 . S
O985 C970 1.266 . S
O986 Tb961 2.484 . S
O986 C971 1.248 . S
O987 Tb961 2.440 . S
O987 C971 1.266 . S
O988 Tb960 2.325 . S
O988 Tb961 2.658 . S
O988 C978 1.281 . S
O989 Tb961 2.409 . S
O989 C978 1.254 . S
O990 Tb961 2.378 . S
O990 C979 1.236 . S
O991 Tb960 2.341 . S
O991 C979 1.266 . S
H992 C964 0.929 . S
H993 C965 0.931 . S
H994 C967 0.930 . S
H995 C968 0.930 . S
H996 C973 0.929 . S
H997 C974 0.931 . S
H998 C976 0.930 . S
H999 C977 0.930 . S
Tb1000 C1002 2.809 . S
Tb1000 O1020 2.484 . S
Tb1000 O1021 2.440 . S
Tb1000 O1022 2.658 . S
Tb1000 O1023 2.409 . S
Tb1000 O1024 2.378 . S
Tb1000 O1028 2.325 . S
Tb1000 O1031 2.341 . S
Tb1001 C1011 2.809 . S
Tb1001 O1022 2.325 . S
Tb1001 O1025 2.341 . S
Tb1001 O1026 2.484 . S
Tb1001 O1027 2.440 . S
Tb1001 O1028 2.658 . S
Tb1001 O1029 2.409 . S
Tb1001 O1030 2.378 . S
C1002 Tb1000 2.809 . S
C1002 C1003 1.514 . S
C1002 O1020 1.248 . S
C1002 O1021 1.266 . S
C1003 C1002 1.514 . S
C1003 C1004 1.359 . S
C1003 C1008 1.348 . S
C1004 C1003 1.359 . S
C1004 C1005 1.380 . S
C1004 H1032 0.929 . S
C1005 C1004 1.380 . S
C1005 C1006 1.347 . S
C1005 H1033 0.931 . S
C1006 C1005 1.347 . S
C1006 C1007 1.369 . S
C1007 C1006 1.369 . S
C1007 C1008 1.408 . S
C1007 H1034 0.930 . S
C1008 C1003 1.348 . S
C1008 C1007 1.408 . S
C1008 H1035 0.930 . S
C1009 O1022 1.281 . S
C1009 O1023 1.254 . S
C1010 O1024 1.236 . S
C1010 O1025 1.266 . S
C1011 Tb1001 2.809 . S
C1011 C1012 1.514 . S
C1011 O1026 1.248 . S
C1011 O1027 1.266 . S
C1012 C1011 1.514 . S
C1012 C1013 1.359 . S
C1012 C1017 1.348 . S
C1013 C1012 1.359 . S
C1013 C1014 1.380 . S
C1013 H1036 0.929 . S
C1014 C1013 1.380 . S
C1014 C1015 1.347 . S
C1014 H1037 0.931 . S
C1015 C1014 1.347 . S
C1015 C1016 1.369 . S
C1016 C1015 1.369 . S
C1016 C1017 1.408 . S
C1016 H1038 0.930 . S
C1017 C1012 1.348 . S
C1017 C1016 1.408 . S
C1017 H1039 0.930 . S
C1018 O1028 1.281 . S
C1018 O1029 1.254 . S
C1019 O1030 1.236 . S
C1019 O1031 1.266 . S
O1020 Tb1000 2.484 . S
O1020 C1002 1.248 . S
O1021 Tb1000 2.440 . S
O1021 C1002 1.266 . S
O1022 Tb1000 2.658 . S
O1022 Tb1001 2.325 . S
O1022 C1009 1.281 . S
O1023 Tb1000 2.409 . S
O1023 C1009 1.254 . S
O1024 Tb1000 2.378 . S
O1024 C1010 1.236 . S
O1025 Tb1001 2.341 . S
O1025 C1010 1.266 . S
O1026 Tb1001 2.484 . S
O1026 C1011 1.248 . S
O1027 Tb1001 2.440 . S
O1027 C1011 1.266 . S
O1028 Tb1000 2.325 . S
O1028 Tb1001 2.658 . S
O1028 C1018 1.281 . S
O1029 Tb1001 2.409 . S
O1029 C1018 1.254 . S
O1030 Tb1001 2.378 . S
O1030 C1019 1.236 . S
O1031 Tb1000 2.341 . S
O1031 C1019 1.266 . S
H1032 C1004 0.929 . S
H1033 C1005 0.931 . S
H1034 C1007 0.930 . S
H1035 C1008 0.930 . S
H1036 C1013 0.929 . S
H1037 C1014 0.931 . S
H1038 C1016 0.930 . S
H1039 C1017 0.930 . S
Tb1040 C1042 2.809 . S
Tb1040 O1060 2.484 . S
Tb1040 O1061 2.440 . S
Tb1040 O1062 2.658 . S
Tb1040 O1063 2.409 . S
Tb1040 O1064 2.378 . S
Tb1040 O1068 2.325 . S
Tb1040 O1071 2.341 . S
Tb1041 C1051 2.809 . S
Tb1041 O1062 2.325 . S
Tb1041 O1065 2.341 . S
Tb1041 O1066 2.484 . S
Tb1041 O1067 2.440 . S
Tb1041 O1068 2.658 . S
Tb1041 O1069 2.409 . S
Tb1041 O1070 2.378 . S
C1042 Tb1040 2.809 . S
C1042 C1043 1.514 . S
C1042 O1060 1.248 . S
C1042 O1061 1.266 . S
C1043 C1042 1.514 . S
C1043 C1044 1.359 . S
C1043 C1048 1.348 . S
C1044 C1043 1.359 . S
C1044 C1045 1.380 . S
C1044 H1072 0.929 . S
C1045 C1044 1.380 . S
C1045 C1046 1.347 . S
C1045 H1073 0.931 . S
C1046 C1045 1.347 . S
C1046 C1047 1.369 . S
C1047 C1046 1.369 . S
C1047 C1048 1.408 . S
C1047 H1074 0.930 . S
C1048 C1043 1.348 . S
C1048 C1047 1.408 . S
C1048 H1075 0.930 . S
C1049 O1062 1.281 . S
C1049 O1063 1.254 . S
C1050 O1064 1.236 . S
C1050 O1065 1.266 . S
C1051 Tb1041 2.809 . S
C1051 C1052 1.514 . S
C1051 O1066 1.248 . S
C1051 O1067 1.266 . S
C1052 C1051 1.514 . S
C1052 C1053 1.359 . S
C1052 C1057 1.348 . S
C1053 C1052 1.359 . S
C1053 C1054 1.380 . S
C1053 H1076 0.929 . S
C1054 C1053 1.380 . S
C1054 C1055 1.347 . S
C1054 H1077 0.931 . S
C1055 C1054 1.347 . S
C1055 C1056 1.369 . S
C1056 C1055 1.369 . S
C1056 C1057 1.408 . S
C1056 H1078 0.930 . S
C1057 C1052 1.348 . S
C1057 C1056 1.408 . S
C1057 H1079 0.930 . S
C1058 O1068 1.281 . S
C1058 O1069 1.254 . S
C1059 O1070 1.236 . S
C1059 O1071 1.266 . S
O1060 Tb1040 2.484 . S
O1060 C1042 1.248 . S
O1061 Tb1040 2.440 . S
O1061 C1042 1.266 . S
O1062 Tb1040 2.658 . S
O1062 Tb1041 2.325 . S
O1062 C1049 1.281 . S
O1063 Tb1040 2.409 . S
O1063 C1049 1.254 . S
O1064 Tb1040 2.378 . S
O1064 C1050 1.236 . S
O1065 Tb1041 2.341 . S
O1065 C1050 1.266 . S
O1066 Tb1041 2.484 . S
O1066 C1051 1.248 . S
O1067 Tb1041 2.440 . S
O1067 C1051 1.266 . S
O1068 Tb1040 2.325 . S
O1068 Tb1041 2.658 . S
O1068 C1058 1.281 . S
O1069 Tb1041 2.409 . S
O1069 C1058 1.254 . S
O1070 Tb1041 2.378 . S
O1070 C1059 1.236 . S
O1071 Tb1040 2.341 . S
O1071 C1059 1.266 . S
H1072 C1044 0.929 . S
H1073 C1045 0.931 . S
H1074 C1047 0.930 . S
H1075 C1048 0.930 . S
H1076 C1053 0.929 . S
H1077 C1054 0.931 . S
H1078 C1056 0.930 . S
H1079 C1057 0.930 . S
Tb1080 C1082 2.809 . S
Tb1080 O1100 2.484 . S
Tb1080 O1101 2.440 . S
Tb1080 O1102 2.658 . S
Tb1080 O1103 2.409 . S
Tb1080 O1104 2.378 . S
Tb1080 O1108 2.325 . S
Tb1080 O1111 2.341 . S
Tb1081 C1091 2.809 . S
Tb1081 O1102 2.325 . S
Tb1081 O1105 2.341 . S
Tb1081 O1106 2.484 . S
Tb1081 O1107 2.440 . S
Tb1081 O1108 2.658 . S
Tb1081 O1109 2.409 . S
Tb1081 O1110 2.378 . S
C1082 Tb1080 2.809 . S
C1082 C1083 1.514 . S
C1082 O1100 1.248 . S
C1082 O1101 1.266 . S
C1083 C1082 1.514 . S
C1083 C1084 1.359 . S
C1083 C1088 1.348 . S
C1084 C1083 1.359 . S
C1084 C1085 1.380 . S
C1084 H1112 0.929 . S
C1085 C1084 1.380 . S
C1085 C1086 1.347 . S
C1085 H1113 0.931 . S
C1086 C1085 1.347 . S
C1086 C1087 1.369 . S
C1087 C1086 1.369 . S
C1087 C1088 1.408 . S
C1087 H1114 0.930 . S
C1088 C1083 1.348 . S
C1088 C1087 1.408 . S
C1088 H1115 0.930 . S
C1089 O1102 1.281 1_556 S
C1089 O1103 1.254 1_556 S
C1090 O1104 1.236 . S
C1090 O1105 1.266 . S
C1091 Tb1081 2.809 . S
C1091 C1092 1.514 . S
C1091 O1106 1.248 . S
C1091 O1107 1.266 . S
C1092 C1091 1.514 . S
C1092 C1093 1.359 . S
C1092 C1097 1.348 . S
C1093 C1092 1.359 . S
C1093 C1094 1.380 . S
C1093 H1116 0.929 . S
C1094 C1093 1.380 . S
C1094 C1095 1.347 . S
C1094 H1117 0.931 . S
C1095 C1094 1.347 . S
C1095 C1096 1.369 . S
C1096 C1095 1.369 . S
C1096 C1097 1.408 . S
C1096 H1118 0.930 . S
C1097 C1092 1.348 . S
C1097 C1096 1.408 . S
C1097 H1119 0.930 . S
C1098 O1108 1.281 . S
C1098 O1109 1.254 . S
C1099 O1110 1.236 . S
C1099 O1111 1.266 . S
O1100 Tb1080 2.484 . S
O1100 C1082 1.248 . S
O1101 Tb1080 2.440 . S
O1101 C1082 1.266 . S
O1102 Tb1080 2.658 . S
O1102 Tb1081 2.325 . S
O1102 C1089 1.281 1_554 S
O1103 Tb1080 2.409 . S
O1103 C1089 1.254 1_554 S
O1104 Tb1080 2.378 . S
O1104 C1090 1.236 . S
O1105 Tb1081 2.341 . S
O1105 C1090 1.266 . S
O1106 Tb1081 2.484 . S
O1106 C1091 1.248 . S
O1107 Tb1081 2.440 . S
O1107 C1091 1.266 . S
O1108 Tb1080 2.325 . S
O1108 Tb1081 2.658 . S
O1108 C1098 1.281 . S
O1109 Tb1081 2.409 . S
O1109 C1098 1.254 . S
O1110 Tb1081 2.378 . S
O1110 C1099 1.236 . S
O1111 Tb1080 2.341 . S
O1111 C1099 1.266 . S
H1112 C1084 0.929 . S
H1113 C1085 0.931 . S
H1114 C1087 0.930 . S
H1115 C1088 0.930 . S
H1116 C1093 0.929 . S
H1117 C1094 0.931 . S
H1118 C1096 0.930 . S
H1119 C1097 0.930 . S
Tb1120 C1122 2.809 . S
Tb1120 O1140 2.484 . S
Tb1120 O1141 2.440 . S
Tb1120 O1142 2.658 . S
Tb1120 O1143 2.409 . S
Tb1120 O1144 2.378 . S
Tb1120 O1148 2.325 . S
Tb1120 O1151 2.341 . S
Tb1121 C1131 2.809 . S
Tb1121 O1142 2.325 . S
Tb1121 O1145 2.341 . S
Tb1121 O1146 2.484 . S
Tb1121 O1147 2.440 . S
Tb1121 O1148 2.658 . S
Tb1121 O1149 2.409 . S
Tb1121 O1150 2.378 . S
C1122 Tb1120 2.809 . S
C1122 C1123 1.514 . S
C1122 O1140 1.248 . S
C1122 O1141 1.266 . S
C1123 C1122 1.514 . S
C1123 C1124 1.359 . S
C1123 C1128 1.348 . S
C1124 C1123 1.359 . S
C1124 C1125 1.380 . S
C1124 H1152 0.929 . S
C1125 C1124 1.380 . S
C1125 C1126 1.347 . S
C1125 H1153 0.931 . S
C1126 C1125 1.347 . S
C1126 C1127 1.369 . S
C1127 C1126 1.369 . S
C1127 C1128 1.408 . S
C1127 H1154 0.930 . S
C1128 C1123 1.348 . S
C1128 C1127 1.408 . S
C1128 H1155 0.930 . S
C1129 O1142 1.281 1_556 S
C1129 O1143 1.254 1_556 S
C1130 O1144 1.236 . S
C1130 O1145 1.266 . S
C1131 Tb1121 2.809 . S
C1131 C1132 1.514 . S
C1131 O1146 1.248 . S
C1131 O1147 1.266 . S
C1132 C1131 1.514 . S
C1132 C1133 1.359 . S
C1132 C1137 1.348 . S
C1133 C1132 1.359 . S
C1133 C1134 1.380 . S
C1133 H1156 0.929 . S
C1134 C1133 1.380 . S
C1134 C1135 1.347 . S
C1134 H1157 0.931 . S
C1135 C1134 1.347 . S
C1135 C1136 1.369 . S
C1136 C1135 1.369 . S
C1136 C1137 1.408 . S
C1136 H1158 0.930 . S
C1137 C1132 1.348 . S
C1137 C1136 1.408 . S
C1137 H1159 0.930 . S
C1138 O1148 1.281 . S
C1138 O1149 1.254 . S
C1139 O1150 1.236 . S
C1139 O1151 1.266 . S
O1140 Tb1120 2.484 . S
O1140 C1122 1.248 . S
O1141 Tb1120 2.440 . S
O1141 C1122 1.266 . S
O1142 Tb1120 2.658 . S
O1142 Tb1121 2.325 . S
O1142 C1129 1.281 1_554 S
O1143 Tb1120 2.409 . S
O1143 C1129 1.254 1_554 S
O1144 Tb1120 2.378 . S
O1144 C1130 1.236 . S
O1145 Tb1121 2.341 . S
O1145 C1130 1.266 . S
O1146 Tb1121 2.484 . S
O1146 C1131 1.248 . S
O1147 Tb1121 2.440 . S
O1147 C1131 1.266 . S
O1148 Tb1120 2.325 . S
O1148 Tb1121 2.658 . S
O1148 C1138 1.281 . S
O1149 Tb1121 2.409 . S
O1149 C1138 1.254 . S
O1150 Tb1121 2.378 . S
O1150 C1139 1.236 . S
O1151 Tb1120 2.341 . S
O1151 C1139 1.266 . S
H1152 C1124 0.929 . S
H1153 C1125 0.931 . S
H1154 C1127 0.930 . S
H1155 C1128 0.930 . S
H1156 C1133 0.929 . S
H1157 C1134 0.931 . S
H1158 C1136 0.930 . S
H1159 C1137 0.930 . S
Tb1160 C1162 2.809 . S
Tb1160 O1180 2.484 . S
Tb1160 O1181 2.440 . S
Tb1160 O1182 2.658 . S
Tb1160 O1183 2.409 . S
Tb1160 O1184 2.378 . S
Tb1160 O1188 2.325 . S
Tb1160 O1191 2.341 . S
Tb1161 C1171 2.809 . S
Tb1161 O1182 2.325 . S
Tb1161 O1185 2.341 . S
Tb1161 O1186 2.484 . S
Tb1161 O1187 2.440 . S
Tb1161 O1188 2.658 . S
Tb1161 O1189 2.409 . S
Tb1161 O1190 2.378 . S
C1162 Tb1160 2.809 . S
C1162 C1163 1.514 . S
C1162 O1180 1.248 . S
C1162 O1181 1.266 . S
C1163 C1162 1.514 . S
C1163 C1164 1.359 . S
C1163 C1168 1.348 . S
C1164 C1163 1.359 . S
C1164 C1165 1.380 . S
C1164 H1192 0.929 . S
C1165 C1164 1.380 . S
C1165 C1166 1.347 . S
C1165 H1193 0.931 . S
C1166 C1165 1.347 . S
C1166 C1167 1.369 . S
C1167 C1166 1.369 . S
C1167 C1168 1.408 . S
C1167 H1194 0.930 . S
C1168 C1163 1.348 . S
C1168 C1167 1.408 . S
C1168 H1195 0.930 . S
C1169 O1182 1.281 1_556 S
C1169 O1183 1.254 1_556 S
C1170 O1184 1.236 . S
C1170 O1185 1.266 . S
C1171 Tb1161 2.809 . S
C1171 C1172 1.514 . S
C1171 O1186 1.248 . S
C1171 O1187 1.266 . S
C1172 C1171 1.514 . S
C1172 C1173 1.359 . S
C1172 C1177 1.348 . S
C1173 C1172 1.359 . S
C1173 C1174 1.380 . S
C1173 H1196 0.929 . S
C1174 C1173 1.380 . S
C1174 C1175 1.347 . S
C1174 H1197 0.931 . S
C1175 C1174 1.347 . S
C1175 C1176 1.369 . S
C1176 C1175 1.369 . S
C1176 C1177 1.408 . S
C1176 H1198 0.930 . S
C1177 C1172 1.348 . S
C1177 C1176 1.408 . S
C1177 H1199 0.930 . S
C1178 O1188 1.281 . S
C1178 O1189 1.254 . S
C1179 O1190 1.236 . S
C1179 O1191 1.266 . S
O1180 Tb1160 2.484 . S
O1180 C1162 1.248 . S
O1181 Tb1160 2.440 . S
O1181 C1162 1.266 . S
O1182 Tb1160 2.658 . S
O1182 Tb1161 2.325 . S
O1182 C1169 1.281 1_554 S
O1183 Tb1160 2.409 . S
O1183 C1169 1.254 1_554 S
O1184 Tb1160 2.378 . S
O1184 C1170 1.236 . S
O1185 Tb1161 2.341 . S
O1185 C1170 1.266 . S
O1186 Tb1161 2.484 . S
O1186 C1171 1.248 . S
O1187 Tb1161 2.440 . S
O1187 C1171 1.266 . S
O1188 Tb1160 2.325 . S
O1188 Tb1161 2.658 . S
O1188 C1178 1.281 . S
O1189 Tb1161 2.409 . S
O1189 C1178 1.254 . S
O1190 Tb1161 2.378 . S
O1190 C1179 1.236 . S
O1191 Tb1160 2.341 . S
O1191 C1179 1.266 . S
H1192 C1164 0.929 . S
H1193 C1165 0.931 . S
H1194 C1167 0.930 . S
H1195 C1168 0.930 . S
H1196 C1173 0.929 . S
H1197 C1174 0.931 . S
H1198 C1176 0.930 . S
H1199 C1177 0.930 . S
Tb1200 C1202 2.809 . S
Tb1200 O1220 2.484 . S
Tb1200 O1221 2.440 . S
Tb1200 O1222 2.658 . S
Tb1200 O1223 2.409 . S
Tb1200 O1224 2.378 . S
Tb1200 O1228 2.325 . S
Tb1200 O1231 2.341 . S
Tb1201 C1211 2.809 . S
Tb1201 O1222 2.325 . S
Tb1201 O1225 2.341 . S
Tb1201 O1226 2.484 . S
Tb1201 O1227 2.440 . S
Tb1201 O1228 2.658 . S
Tb1201 O1229 2.409 . S
Tb1201 O1230 2.378 . S
C1202 Tb1200 2.809 . S
C1202 C1203 1.514 . S
C1202 O1220 1.248 . S
C1202 O1221 1.266 . S
C1203 C1202 1.514 . S
C1203 C1204 1.359 . S
C1203 C1208 1.348 . S
C1204 C1203 1.359 . S
C1204 C1205 1.380 . S
C1204 H1232 0.929 . S
C1205 C1204 1.380 . S
C1205 C1206 1.347 . S
C1205 H1233 0.931 . S
C1206 C1205 1.347 . S
C1206 C1207 1.369 . S
C1207 C1206 1.369 . S
C1207 C1208 1.408 . S
C1207 H1234 0.930 . S
C1208 C1203 1.348 . S
C1208 C1207 1.408 . S
C1208 H1235 0.930 . S
C1209 O1222 1.281 . S
C1209 O1223 1.254 . S
C1210 O1224 1.236 . S
C1210 O1225 1.266 . S
C1211 Tb1201 2.809 . S
C1211 C1212 1.514 . S
C1211 O1226 1.248 . S
C1211 O1227 1.266 . S
C1212 C1211 1.514 . S
C1212 C1213 1.359 . S
C1212 C1217 1.348 . S
C1213 C1212 1.359 . S
C1213 C1214 1.380 . S
C1213 H1236 0.929 . S
C1214 C1213 1.380 . S
C1214 C1215 1.347 . S
C1214 H1237 0.931 . S
C1215 C1214 1.347 . S
C1215 C1216 1.369 . S
C1216 C1215 1.369 . S
C1216 C1217 1.408 . S
C1216 H1238 0.930 . S
C1217 C1212 1.348 . S
C1217 C1216 1.408 . S
C1217 H1239 0.930 . S
C1218 O1228 1.281 . S
C1218 O1229 1.254 . S
C1219 O1230 1.236 . S
C1219 O1231 1.266 . S
O1220 Tb1200 2.484 . S
O1220 C1202 1.248 . S
O1221 Tb1200 2.440 . S
O1221 C1202 1.266 . S
O1222 Tb1200 2.658 . S
O1222 Tb1201 2.325 . S
O1222 C1209 1.281 . S
O1223 Tb1200 2.409 . S
O1223 C1209 1.254 . S
O1224 Tb1200 2.378 . S
O1224 C1210 1.236 . S
O1225 Tb1201 2.341 . S
O1225 C1210 1.266 . S
O1226 Tb1201 2.484 . S
O1226 C1211 1.248 . S
O1227 Tb1201 2.440 . S
O1227 C1211 1.266 . S
O1228 Tb1200 2.325 . S
O1228 Tb1201 2.658 . S
O1228 C1218 1.281 . S
O1229 Tb1201 2.409 . S
O1229 C1218 1.254 . S
O1230 Tb1201 2.378 . S
O1230 C1219 1.236 . S
O1231 Tb1200 2.341 . S
O1231 C1219 1.266 . S
H1232 C1204 0.929 . S
H1233 C1205 0.931 . S
H1234 C1207 0.930 . S
H1235 C1208 0.930 . S
H1236 C1213 0.929 . S
H1237 C1214 0.931 . S
H1238 C1216 0.930 . S
H1239 C1217 0.930 . S
Tb1240 C1242 2.809 . S
Tb1240 O1260 2.484 . S
Tb1240 O1261 2.440 . S
Tb1240 O1262 2.658 . S
Tb1240 O1263 2.409 . S
Tb1240 O1264 2.378 . S
Tb1240 O1268 2.325 . S
Tb1240 O1271 2.341 . S
Tb1241 C1251 2.809 . S
Tb1241 O1262 2.325 . S
Tb1241 O1265 2.341 . S
Tb1241 O1266 2.484 . S
Tb1241 O1267 2.440 . S
Tb1241 O1268 2.658 . S
Tb1241 O1269 2.409 . S
Tb1241 O1270 2.378 . S
C1242 Tb1240 2.809 . S
C1242 C1243 1.514 . S
C1242 O1260 1.248 . S
C1242 O1261 1.266 . S
C1243 C1242 1.514 . S
C1243 C1244 1.359 . S
C1243 C1248 1.348 . S
C1244 C1243 1.359 . S
C1244 C1245 1.380 . S
C1244 H1272 0.929 . S
C1245 C1244 1.380 . S
C1245 C1246 1.347 . S
C1245 H1273 0.931 . S
C1246 C1245 1.347 . S
C1246 C1247 1.369 . S
C1247 C1246 1.369 . S
C1247 C1248 1.408 . S
C1247 H1274 0.930 . S
C1248 C1243 1.348 . S
C1248 C1247 1.408 . S
C1248 H1275 0.930 . S
C1249 O1262 1.281 . S
C1249 O1263 1.254 . S
C1250 O1264 1.236 . S
C1250 O1265 1.266 . S
C1251 Tb1241 2.809 . S
C1251 C1252 1.514 . S
C1251 O1266 1.248 . S
C1251 O1267 1.266 . S
C1252 C1251 1.514 . S
C1252 C1253 1.359 . S
C1252 C1257 1.348 . S
C1253 C1252 1.359 . S
C1253 C1254 1.380 . S
C1253 H1276 0.929 . S
C1254 C1253 1.380 . S
C1254 C1255 1.347 . S
C1254 H1277 0.931 . S
C1255 C1254 1.347 . S
C1255 C1256 1.369 . S
C1256 C1255 1.369 . S
C1256 C1257 1.408 . S
C1256 H1278 0.930 . S
C1257 C1252 1.348 . S
C1257 C1256 1.408 . S
C1257 H1279 0.930 . S
C1258 O1268 1.281 . S
C1258 O1269 1.254 . S
C1259 O1270 1.236 . S
C1259 O1271 1.266 . S
O1260 Tb1240 2.484 . S
O1260 C1242 1.248 . S
O1261 Tb1240 2.440 . S
O1261 C1242 1.266 . S
O1262 Tb1240 2.658 . S
O1262 Tb1241 2.325 . S
O1262 C1249 1.281 . S
O1263 Tb1240 2.409 . S
O1263 C1249 1.254 . S
O1264 Tb1240 2.378 . S
O1264 C1250 1.236 . S
O1265 Tb1241 2.341 . S
O1265 C1250 1.266 . S
O1266 Tb1241 2.484 . S
O1266 C1251 1.248 . S
O1267 Tb1241 2.440 . S
O1267 C1251 1.266 . S
O1268 Tb1240 2.325 . S
O1268 Tb1241 2.658 . S
O1268 C1258 1.281 . S
O1269 Tb1241 2.409 . S
O1269 C1258 1.254 . S
O1270 Tb1241 2.378 . S
O1270 C1259 1.236 . S
O1271 Tb1240 2.341 . S
O1271 C1259 1.266 . S
H1272 C1244 0.929 . S
H1273 C1245 0.931 . S
H1274 C1247 0.930 . S
H1275 C1248 0.930 . S
H1276 C1253 0.929 . S
H1277 C1254 0.931 . S
H1278 C1256 0.930 . S
H1279 C1257 0.930 . S
Tb1280 C1282 2.809 . S
Tb1280 O1300 2.484 . S
Tb1280 O1301 2.440 . S
Tb1280 O1302 2.658 . S
Tb1280 O1303 2.409 . S
Tb1280 O1304 2.378 . S
Tb1280 O1308 2.325 . S
Tb1280 O1311 2.341 . S
Tb1281 C1291 2.809 . S
Tb1281 O1302 2.325 . S
Tb1281 O1305 2.341 . S
Tb1281 O1306 2.484 . S
Tb1281 O1307 2.440 . S
Tb1281 O1308 2.658 . S
Tb1281 O1309 2.409 . S
Tb1281 O1310 2.378 . S
C1282 Tb1280 2.809 . S
C1282 C1283 1.514 . S
C1282 O1300 1.248 . S
C1282 O1301 1.266 . S
C1283 C1282 1.514 . S
C1283 C1284 1.359 . S
C1283 C1288 1.348 . S
C1284 C1283 1.359 . S
C1284 C1285 1.380 . S
C1284 H1312 0.929 . S
C1285 C1284 1.380 . S
C1285 C1286 1.347 . S
C1285 H1313 0.931 . S
C1286 C1285 1.347 . S
C1286 C1287 1.369 . S
C1287 C1286 1.369 . S
C1287 C1288 1.408 . S
C1287 H1314 0.930 . S
C1288 C1283 1.348 . S
C1288 C1287 1.408 . S
C1288 H1315 0.930 . S
C1289 O1302 1.281 . S
C1289 O1303 1.254 . S
C1290 O1304 1.236 . S
C1290 O1305 1.266 . S
C1291 Tb1281 2.809 . S
C1291 C1292 1.514 . S
C1291 O1306 1.248 . S
C1291 O1307 1.266 . S
C1292 C1291 1.514 . S
C1292 C1293 1.359 . S
C1292 C1297 1.348 . S
C1293 C1292 1.359 . S
C1293 C1294 1.380 . S
C1293 H1316 0.929 . S
C1294 C1293 1.380 . S
C1294 C1295 1.347 . S
C1294 H1317 0.931 . S
C1295 C1294 1.347 . S
C1295 C1296 1.369 . S
C1296 C1295 1.369 . S
C1296 C1297 1.408 . S
C1296 H1318 0.930 . S
C1297 C1292 1.348 . S
C1297 C1296 1.408 . S
C1297 H1319 0.930 . S
C1298 O1308 1.281 . S
C1298 O1309 1.254 . S
C1299 O1310 1.236 . S
C1299 O1311 1.266 . S
O1300 Tb1280 2.484 . S
O1300 C1282 1.248 . S
O1301 Tb1280 2.440 . S
O1301 C1282 1.266 . S
O1302 Tb1280 2.658 . S
O1302 Tb1281 2.325 . S
O1302 C1289 1.281 . S
O1303 Tb1280 2.409 . S
O1303 C1289 1.254 . S
O1304 Tb1280 2.378 . S
O1304 C1290 1.236 . S
O1305 Tb1281 2.341 . S
O1305 C1290 1.266 . S
O1306 Tb1281 2.484 . S
O1306 C1291 1.248 . S
O1307 Tb1281 2.440 . S
O1307 C1291 1.266 . S
O1308 Tb1280 2.325 . S
O1308 Tb1281 2.658 . S
O1308 C1298 1.281 . S
O1309 Tb1281 2.409 . S
O1309 C1298 1.254 . S
O1310 Tb1281 2.378 . S
O1310 C1299 1.236 . S
O1311 Tb1280 2.341 . S
O1311 C1299 1.266 . S
H1312 C1284 0.929 . S
H1313 C1285 0.931 . S
H1314 C1287 0.930 . S
H1315 C1288 0.930 . S
H1316 C1293 0.929 . S
H1317 C1294 0.931 . S
H1318 C1296 0.930 . S
H1319 C1297 0.930 . S
Tb1320 C1322 2.809 . S
Tb1320 O1340 2.484 . S
Tb1320 O1341 2.440 . S
Tb1320 O1342 2.658 . S
Tb1320 O1343 2.409 . S
Tb1320 O1344 2.378 . S
Tb1320 O1348 2.325 . S
Tb1320 O1351 2.341 . S
Tb1321 C1331 2.809 . S
Tb1321 O1342 2.325 . S
Tb1321 O1345 2.341 . S
Tb1321 O1346 2.484 . S
Tb1321 O1347 2.440 . S
Tb1321 O1348 2.658 . S
Tb1321 O1349 2.409 . S
Tb1321 O1350 2.378 . S
C1322 Tb1320 2.809 . S
C1322 C1323 1.514 . S
C1322 O1340 1.248 . S
C1322 O1341 1.266 . S
C1323 C1322 1.514 . S
C1323 C1324 1.359 . S
C1323 C1328 1.348 . S
C1324 C1323 1.359 . S
C1324 C1325 1.380 . S
C1324 H1352 0.929 . S
C1325 C1324 1.380 . S
C1325 C1326 1.347 . S
C1325 H1353 0.931 . S
C1326 C1325 1.347 . S
C1326 C1327 1.369 . S
C1327 C1326 1.369 . S
C1327 C1328 1.408 . S
C1327 H1354 0.930 . S
C1328 C1323 1.348 . S
C1328 C1327 1.408 . S
C1328 H1355 0.930 . S
C1329 O1342 1.281 . S
C1329 O1343 1.254 . S
C1330 O1344 1.236 . S
C1330 O1345 1.266 . S
C1331 Tb1321 2.809 . S
C1331 C1332 1.514 . S
C1331 O1346 1.248 . S
C1331 O1347 1.266 . S
C1332 C1331 1.514 . S
C1332 C1333 1.359 . S
C1332 C1337 1.348 . S
C1333 C1332 1.359 . S
C1333 C1334 1.380 . S
C1333 H1356 0.929 . S
C1334 C1333 1.380 . S
C1334 C1335 1.347 . S
C1334 H1357 0.931 . S
C1335 C1334 1.347 . S
C1335 C1336 1.369 . S
C1336 C1335 1.369 . S
C1336 C1337 1.408 . S
C1336 H1358 0.930 . S
C1337 C1332 1.348 . S
C1337 C1336 1.408 . S
C1337 H1359 0.930 . S
C1338 O1348 1.281 . S
C1338 O1349 1.254 . S
C1339 O1350 1.236 . S
C1339 O1351 1.266 . S
O1340 Tb1320 2.484 . S
O1340 C1322 1.248 . S
O1341 Tb1320 2.440 . S
O1341 C1322 1.266 . S
O1342 Tb1320 2.658 . S
O1342 Tb1321 2.325 . S
O1342 C1329 1.281 . S
O1343 Tb1320 2.409 . S
O1343 C1329 1.254 . S
O1344 Tb1320 2.378 . S
O1344 C1330 1.236 . S
O1345 Tb1321 2.341 . S
O1345 C1330 1.266 . S
O1346 Tb1321 2.484 . S
O1346 C1331 1.248 . S
O1347 Tb1321 2.440 . S
O1347 C1331 1.266 . S
O1348 Tb1320 2.325 . S
O1348 Tb1321 2.658 . S
O1348 C1338 1.281 . S
O1349 Tb1321 2.409 . S
O1349 C1338 1.254 . S
O1350 Tb1321 2.378 . S
O1350 C1339 1.236 . S
O1351 Tb1320 2.341 . S
O1351 C1339 1.266 . S
H1352 C1324 0.929 . S
H1353 C1325 0.931 . S
H1354 C1327 0.930 . S
H1355 C1328 0.930 . S
H1356 C1333 0.929 . S
H1357 C1334 0.931 . S
H1358 C1336 0.930 . S
H1359 C1337 0.930 . S
Tb1360 C1362 2.809 . S
Tb1360 O1380 2.484 . S
Tb1360 O1381 2.440 . S
Tb1360 O1382 2.658 . S
Tb1360 O1383 2.409 . S
Tb1360 O1384 2.378 . S
Tb1360 O1388 2.325 . S
Tb1360 O1391 2.341 . S
Tb1361 C1371 2.809 . S
Tb1361 O1382 2.325 . S
Tb1361 O1385 2.341 . S
Tb1361 O1386 2.484 . S
Tb1361 O1387 2.440 . S
Tb1361 O1388 2.658 . S
Tb1361 O1389 2.409 . S
Tb1361 O1390 2.378 . S
C1362 Tb1360 2.809 . S
C1362 C1363 1.514 . S
C1362 O1380 1.248 . S
C1362 O1381 1.266 . S
C1363 C1362 1.514 . S
C1363 C1364 1.359 . S
C1363 C1368 1.348 . S
C1364 C1363 1.359 . S
C1364 C1365 1.380 . S
C1364 H1392 0.929 . S
C1365 C1364 1.380 . S
C1365 C1366 1.347 . S
C1365 H1393 0.931 . S
C1366 C1365 1.347 . S
C1366 C1367 1.369 . S
C1367 C1366 1.369 . S
C1367 C1368 1.408 . S
C1367 H1394 0.930 . S
C1368 C1363 1.348 . S
C1368 C1367 1.408 . S
C1368 H1395 0.930 . S
C1369 O1382 1.281 . S
C1369 O1383 1.254 . S
C1370 O1384 1.236 . S
C1370 O1385 1.266 . S
C1371 Tb1361 2.809 . S
C1371 C1372 1.514 . S
C1371 O1386 1.248 . S
C1371 O1387 1.266 . S
C1372 C1371 1.514 . S
C1372 C1373 1.359 . S
C1372 C1377 1.348 . S
C1373 C1372 1.359 . S
C1373 C1374 1.380 . S
C1373 H1396 0.929 . S
C1374 C1373 1.380 . S
C1374 C1375 1.347 . S
C1374 H1397 0.931 . S
C1375 C1374 1.347 . S
C1375 C1376 1.369 . S
C1376 C1375 1.369 . S
C1376 C1377 1.408 . S
C1376 H1398 0.930 . S
C1377 C1372 1.348 . S
C1377 C1376 1.408 . S
C1377 H1399 0.930 . S
C1378 O1388 1.281 . S
C1378 O1389 1.254 . S
C1379 O1390 1.236 . S
C1379 O1391 1.266 . S
O1380 Tb1360 2.484 . S
O1380 C1362 1.248 . S
O1381 Tb1360 2.440 . S
O1381 C1362 1.266 . S
O1382 Tb1360 2.658 . S
O1382 Tb1361 2.325 . S
O1382 C1369 1.281 . S
O1383 Tb1360 2.409 . S
O1383 C1369 1.254 . S
O1384 Tb1360 2.378 . S
O1384 C1370 1.236 . S
O1385 Tb1361 2.341 . S
O1385 C1370 1.266 . S
O1386 Tb1361 2.484 . S
O1386 C1371 1.248 . S
O1387 Tb1361 2.440 . S
O1387 C1371 1.266 . S
O1388 Tb1360 2.325 . S
O1388 Tb1361 2.658 . S
O1388 C1378 1.281 . S
O1389 Tb1361 2.409 . S
O1389 C1378 1.254 . S
O1390 Tb1361 2.378 . S
O1390 C1379 1.236 . S
O1391 Tb1360 2.341 . S
O1391 C1379 1.266 . S
H1392 C1364 0.929 . S
H1393 C1365 0.931 . S
H1394 C1367 0.930 . S
H1395 C1368 0.930 . S
H1396 C1373 0.929 . S
H1397 C1374 0.931 . S
H1398 C1376 0.930 . S
H1399 C1377 0.930 . S
Tb1400 C1402 2.809 . S
Tb1400 O1420 2.484 . S
Tb1400 O1421 2.440 . S
Tb1400 O1422 2.658 . S
Tb1400 O1423 2.409 . S
Tb1400 O1424 2.378 . S
Tb1400 O1428 2.325 . S
Tb1400 O1431 2.341 . S
Tb1401 C1411 2.809 . S
Tb1401 O1422 2.325 . S
Tb1401 O1425 2.341 . S
Tb1401 O1426 2.484 . S
Tb1401 O1427 2.440 . S
Tb1401 O1428 2.658 . S
Tb1401 O1429 2.409 . S
Tb1401 O1430 2.378 . S
C1402 Tb1400 2.809 . S
C1402 C1403 1.514 . S
C1402 O1420 1.248 . S
C1402 O1421 1.266 . S
C1403 C1402 1.514 . S
C1403 C1404 1.359 . S
C1403 C1408 1.348 . S
C1404 C1403 1.359 . S
C1404 C1405 1.380 . S
C1404 H1432 0.929 . S
C1405 C1404 1.380 . S
C1405 C1406 1.347 . S
C1405 H1433 0.931 . S
C1406 C1405 1.347 . S
C1406 C1407 1.369 . S
C1407 C1406 1.369 . S
C1407 C1408 1.408 . S
C1407 H1434 0.930 . S
C1408 C1403 1.348 . S
C1408 C1407 1.408 . S
C1408 H1435 0.930 . S
C1409 O1422 1.281 . S
C1409 O1423 1.254 . S
C1410 O1424 1.236 . S
C1410 O1425 1.266 . S
C1411 Tb1401 2.809 . S
C1411 C1412 1.514 . S
C1411 O1426 1.248 . S
C1411 O1427 1.266 . S
C1412 C1411 1.514 . S
C1412 C1413 1.359 . S
C1412 C1417 1.348 . S
C1413 C1412 1.359 . S
C1413 C1414 1.380 . S
C1413 H1436 0.929 . S
C1414 C1413 1.380 . S
C1414 C1415 1.347 . S
C1414 H1437 0.931 . S
C1415 C1414 1.347 . S
C1415 C1416 1.369 . S
C1416 C1415 1.369 . S
C1416 C1417 1.408 . S
C1416 H1438 0.930 . S
C1417 C1412 1.348 . S
C1417 C1416 1.408 . S
C1417 H1439 0.930 . S
C1418 O1428 1.281 . S
C1418 O1429 1.254 . S
C1419 O1430 1.236 . S
C1419 O1431 1.266 . S
O1420 Tb1400 2.484 . S
O1420 C1402 1.248 . S
O1421 Tb1400 2.440 . S
O1421 C1402 1.266 . S
O1422 Tb1400 2.658 . S
O1422 Tb1401 2.325 . S
O1422 C1409 1.281 . S
O1423 Tb1400 2.409 . S
O1423 C1409 1.254 . S
O1424 Tb1400 2.378 . S
O1424 C1410 1.236 . S
O1425 Tb1401 2.341 . S
O1425 C1410 1.266 . S
O1426 Tb1401 2.484 . S
O1426 C1411 1.248 . S
O1427 Tb1401 2.440 . S
O1427 C1411 1.266 . S
O1428 Tb1400 2.325 . S
O1428 Tb1401 2.658 . S
O1428 C1418 1.281 . S
O1429 Tb1401 2.409 . S
O1429 C1418 1.254 . S
O1430 Tb1401 2.378 . S
O1430 C1419 1.236 . S
O1431 Tb1400 2.341 . S
O1431 C1419 1.266 . S
H1432 C1404 0.929 . S
H1433 C1405 0.931 . S
H1434 C1407 0.930 . S
H1435 C1408 0.930 . S
H1436 C1413 0.929 . S
H1437 C1414 0.931 . S
H1438 C1416 0.930 . S
H1439 C1417 0.930 . S
C1440 C1441 1.369 . S
C1440 C1442 1.419 1_545 S
C1440 H1444 0.930 . S
C1441 C1440 1.369 . S
C1441 C1450 1.429 1_554 S
C1442 C1440 1.419 1_565 S
C1442 C1443 1.363 1_554 S
C1442 H1445 0.929 . S
C1443 C1442 1.363 1_556 S
C1443 C1449 1.428 . S
H1444 C1440 0.930 . S
H1445 C1442 0.929 . S
S1446 N1447 1.613 . S
S1446 N1448 1.610 1_545 S
N1447 S1446 1.613 . S
N1447 C1450 1.350 . S
N1448 S1446 1.610 1_565 S
N1448 C1449 1.351 . S
C1449 C1443 1.428 . S
C1449 N1448 1.351 . S
C1449 C1450 1.434 1_565 S
C1450 C1441 1.429 1_556 S
C1450 N1447 1.350 . S
C1450 C1449 1.434 1_545 S
C1451 C1452 1.371 . S
C1451 C1453 1.419 1_456 S
C1451 H1455 0.930 . S
C1452 C1451 1.371 . S
C1452 C1461 1.420 1_556 S
C1453 C1451 1.419 1_654 S
C1453 C1454 1.363 . S
C1453 H1456 0.929 . S
C1454 C1453 1.363 . S
C1454 C1460 1.428 . S
H1455 C1451 0.930 . S
H1456 C1453 0.929 . S
S1457 N1458 1.613 . S
S1457 N1459 1.610 1_455 S
N1458 S1457 1.613 . S
N1458 C1461 1.350 . S
N1459 S1457 1.610 1_655 S
N1459 C1460 1.351 . S
C1460 C1454 1.428 . S
C1460 N1459 1.351 . S
C1460 C1461 1.434 1_655 S
C1461 C1452 1.420 1_554 S
C1461 N1458 1.350 . S
C1461 C1460 1.434 1_455 S
C1462 C1463 1.369 . S
C1462 C1464 1.419 1_556 S
C1462 H1466 0.930 . S
C1463 C1462 1.369 . S
C1463 C1472 1.429 1_556 S
C1464 C1462 1.419 1_554 S
C1464 C1465 1.363 . S
C1464 H1467 0.929 . S
C1465 C1464 1.363 . S
C1465 C1471 1.428 . S
H1466 C1462 0.930 . S
H1467 C1464 0.929 . S
S1468 N1469 1.613 . S
S1468 N1470 1.610 . S
N1469 S1468 1.613 . S
N1469 C1472 1.350 . S
N1470 S1468 1.610 . S
N1470 C1471 1.351 . S
C1471 C1465 1.428 . S
C1471 N1470 1.351 . S
C1471 C1472 1.434 . S
C1472 C1463 1.429 1_554 S
C1472 N1469 1.350 . S
C1472 C1471 1.434 . S
C1473 C1474 1.369 . S
C1473 C1475 1.419 1_655 S
C1473 H1477 0.930 . S
C1474 C1473 1.369 . S
C1474 C1483 1.429 . S
C1475 C1473 1.419 1_455 S
C1475 C1476 1.363 . S
C1475 H1478 0.929 . S
C1476 C1475 1.363 . S
C1476 C1482 1.428 . S
H1477 C1473 0.930 . S
H1478 C1475 0.929 . S
S1479 N1480 1.613 1_455 S
S1479 N1481 1.610 . S
N1480 S1479 1.613 1_655 S
N1480 C1483 1.350 . S
N1481 S1479 1.610 . S
N1481 C1482 1.351 . S
C1482 C1476 1.428 . S
C1482 N1481 1.351 . S
C1482 C1483 1.434 1_455 S
C1483 C1474 1.429 . S
C1483 N1480 1.350 . S
C1483 C1482 1.434 1_655 S
C1484 C1485 1.369 . S
C1484 C1486 1.419 . S
C1484 H1488 0.930 . S
C1485 C1484 1.369 . S
C1485 C1494 1.429 . S
C1486 C1484 1.419 . S
C1486 C1487 1.363 . S
C1486 H1489 0.929 . S
C1487 C1486 1.363 . S
C1487 C1493 1.428 . S
H1488 C1484 0.930 . S
H1489 C1486 0.929 . S
S1490 N1491 1.613 . S
S1490 N1492 1.610 . S
N1491 S1490 1.613 . S
N1491 C1494 1.350 . S
N1492 S1490 1.610 . S
N1492 C1493 1.351 . S
C1493 C1487 1.428 . S
C1493 N1492 1.351 . S
C1493 C1494 1.434 . S
C1494 C1485 1.429 . S
C1494 N1491 1.350 . S
C1494 C1493 1.434 . S
C1495 C1496 1.369 . S
C1495 C1497 1.419 1_565 S
C1495 H1499 0.930 . S
C1496 C1495 1.369 . S
C1496 C1505 1.429 . S
C1497 C1495 1.419 1_545 S
C1497 C1498 1.363 . S
C1497 H1500 0.929 . S
C1498 C1497 1.363 . S
C1498 C1504 1.428 1_545 S
H1499 C1495 0.930 . S
H1500 C1497 0.929 . S
S1501 N1502 1.613 . S
S1501 N1503 1.610 . S
N1502 S1501 1.613 . S
N1502 C1505 1.350 . S
N1503 S1501 1.610 . S
N1503 C1504 1.351 . S
C1504 C1498 1.428 1_565 S
C1504 N1503 1.351 . S
C1504 C1505 1.434 . S
C1505 C1496 1.429 . S
C1505 N1502 1.350 . S
C1505 C1504 1.434 . S
C1506 C1507 1.369 1_556 S
C1506 C1508 1.419 1_545 S
C1506 H1510 0.930 . S
C1507 C1506 1.369 1_554 S
C1507 C1516 1.429 1_554 S
C1508 C1506 1.419 1_565 S
C1508 C1509 1.363 . S
C1508 H1511 0.929 . S
C1509 C1508 1.363 . S
C1509 C1515 1.428 . S
H1510 C1506 0.930 . S
H1511 C1508 0.929 . S
S1512 N1513 1.613 1_556 S
S1512 N1514 1.610 1_545 S
N1513 S1512 1.613 1_554 S
N1513 C1516 1.350 1_554 S
N1514 S1512 1.610 1_565 S
N1514 C1515 1.351 . S
C1515 C1509 1.428 . S
C1515 N1514 1.351 . S
C1515 C1516 1.434 1_565 S
C1516 C1507 1.429 1_556 S
C1516 N1513 1.350 1_556 S
C1516 C1515 1.434 1_545 S
C1517 C1518 1.369 . S
C1517 C1519 1.419 1_455 S
C1517 H1521 0.930 . S
C1518 C1517 1.369 . S
C1518 C1527 1.429 . S
C1519 C1517 1.419 1_655 S
C1519 C1520 1.363 1_556 S
C1519 H1522 0.929 . S
C1520 C1519 1.363 1_554 S
C1520 C1526 1.428 1_554 S
H1521 C1517 0.930 . S
H1522 C1519 0.929 . S
S1523 N1524 1.613 . S
S1523 N1525 1.610 1_456 S
N1524 S1523 1.613 . S
N1524 C1527 1.350 . S
N1525 S1523 1.610 1_654 S
N1525 C1526 1.351 1_554 S
C1526 C1520 1.428 1_556 S
C1526 N1525 1.351 1_556 S
C1526 C1527 1.434 1_655 S
C1527 C1518 1.429 . S
C1527 N1524 1.350 . S
C1527 C1526 1.434 1_455 S
C1528 C1529 1.369 1_556 S
C1528 C1530 1.419 . S
C1528 H1532 0.930 . S
C1529 C1528 1.369 1_554 S
C1529 C1538 1.429 . S
C1530 C1528 1.419 . S
C1530 C1531 1.363 . S
C1530 H1533 0.929 . S
C1531 C1530 1.363 . S
C1531 C1537 1.428 . S
H1532 C1528 0.930 . S
H1533 C1530 0.929 . S
S1534 N1535 1.613 . S
S1534 N1536 1.610 1_554 S
N1535 S1534 1.613 . S
N1535 C1538 1.350 . S
N1536 S1534 1.610 1_556 S
N1536 C1537 1.351 . S
C1537 C1531 1.428 . S
C1537 N1536 1.351 . S
C1537 C1538 1.434 1_556 S
C1538 C1529 1.429 . S
C1538 N1535 1.350 . S
C1538 C1537 1.434 1_554 S
C1539 C1540 1.369 . S
C1539 C1541 1.419 1_455 S
C1539 H1543 0.930 . S
C1540 C1539 1.369 . S
C1540 C1549 1.429 1_455 S
C1541 C1539 1.419 1_655 S
C1541 C1542 1.363 . S
C1541 H1544 0.929 . S
C1542 C1541 1.363 . S
C1542 C1548 1.428 . S
H1543 C1539 0.930 . S
H1544 C1541 0.929 . S
S1545 N1546 1.613 . S
S1545 N1547 1.610 . S
N1546 S1545 1.613 . S
N1546 C1549 1.350 . S
N1547 S1545 1.610 . S
N1547 C1548 1.351 . S
C1548 C1542 1.428 . S
C1548 N1547 1.351 . S
C1548 C1549 1.434 . S
C1549 C1540 1.429 1_655 S
C1549 N1546 1.350 . S
C1549 C1548 1.434 . S
C1550 C1551 1.369 . S
C1550 C1552 1.419 . S
C1550 H1554 0.930 . S
C1551 C1550 1.369 . S
C1551 C1560 1.429 . S
C1552 C1550 1.419 . S
C1552 C1553 1.363 . S
C1552 H1555 0.929 . S
C1553 C1552 1.363 . S
C1553 C1559 1.428 . S
H1554 C1550 0.930 . S
H1555 C1552 0.929 . S
S1556 N1557 1.613 . S
S1556 N1558 1.610 . S
N1557 S1556 1.613 . S
N1557 C1560 1.350 . S
N1558 S1556 1.610 . S
N1558 C1559 1.351 . S
C1559 C1553 1.428 . S
C1559 N1558 1.351 . S
C1559 C1560 1.434 . S
C1560 C1551 1.429 . S
C1560 N1557 1.350 . S
C1560 C1559 1.434 . S
C1561 C1562 1.369 . S
C1561 C1563 1.419 1_545 S
C1561 H1565 0.930 . S
C1562 C1561 1.369 . S
C1562 C1571 1.429 . S
C1563 C1561 1.419 1_565 S
C1563 C1564 1.363 . S
C1563 H1566 0.929 . S
C1564 C1563 1.363 . S
C1564 C1570 1.428 . S
H1565 C1561 0.930 . S
H1566 C1563 0.929 . S
S1567 N1568 1.613 1_565 S
S1567 N1569 1.610 . S
N1568 S1567 1.613 1_545 S
N1568 C1571 1.350 . S
N1569 S1567 1.610 . S
N1569 C1570 1.351 . S
C1570 C1564 1.428 . S
C1570 N1569 1.351 . S
C1570 C1571 1.434 1_565 S
C1571 C1562 1.429 . S
C1571 N1568 1.350 . S
C1571 C1570 1.434 1_545 S
C1572 C1573 1.369 . S
C1572 C1574 1.419 . S
C1572 H1576 0.930 . S
C1573 C1572 1.369 . S
C1573 C1582 1.429 . S
C1574 C1572 1.419 . S
C1574 C1575 1.363 . S
C1574 H1577 0.929 . S
C1575 C1574 1.363 . S
C1575 C1581 1.428 . S
H1576 C1572 0.930 . S
H1577 C1574 0.929 . S
S1578 N1579 1.613 . S
S1578 N1580 1.610 . S
N1579 S1578 1.613 . S
N1579 C1582 1.350 . S
N1580 S1578 1.610 . S
N1580 C1581 1.351 . S
C1581 C1575 1.428 . S
C1581 N1580 1.351 . S
C1581 C1582 1.434 . S
C1582 C1573 1.429 . S
C1582 N1579 1.350 . S
C1582 C1581 1.434 . S
C1583 C1584 1.369 . S
C1583 C1585 1.419 . S
C1583 H1587 0.930 . S
C1584 C1583 1.369 . S
C1584 C1593 1.429 . S
C1585 C1583 1.419 . S
C1585 C1586 1.363 . S
C1585 H1588 0.929 . S
C1586 C1585 1.363 . S
C1586 C1592 1.428 . S
H1587 C1583 0.930 . S
H1588 C1585 0.929 . S
S1589 N1590 1.613 . S
S1589 N1591 1.610 . S
N1590 S1589 1.613 . S
N1590 C1593 1.350 . S
N1591 S1589 1.610 . S
N1591 C1592 1.351 . S
C1592 C1586 1.428 . S
C1592 N1591 1.351 . S
C1592 C1593 1.434 . S
C1593 C1584 1.429 . S
C1593 N1590 1.350 . S
C1593 C1592 1.434 . S
C1594 C1595 1.369 . S
C1594 C1596 1.419 . S
C1594 H1598 0.930 . S
C1595 C1594 1.369 . S
C1595 C1604 1.429 . S
C1596 C1594 1.419 . S
C1596 C1597 1.363 . S
C1596 H1599 0.929 . S
C1597 C1596 1.363 . S
C1597 C1603 1.428 . S
H1598 C1594 0.930 . S
H1599 C1596 0.929 . S
S1600 N1601 1.613 . S
S1600 N1602 1.610 . S
N1601 S1600 1.613 . S
N1601 C1604 1.350 . S
N1602 S1600 1.610 . S
N1602 C1603 1.351 . S
C1603 C1597 1.428 . S
C1603 N1602 1.351 . S
C1603 C1604 1.434 . S
C1604 C1595 1.429 . S
C1604 N1601 1.350 . S
C1604 C1603 1.434 . S
C1605 C1606 1.369 . S
C1605 C1607 1.419 . S
C1605 H1609 0.930 . S
C1606 C1605 1.369 . S
C1606 C1615 1.429 . S
C1607 C1605 1.419 . S
C1607 C1608 1.363 . S
C1607 H1610 0.929 . S
C1608 C1607 1.363 . S
C1608 C1614 1.428 . S
H1609 C1605 0.930 . S
H1610 C1607 0.929 . S
S1611 N1612 1.613 . S
S1611 N1613 1.610 . S
N1612 S1611 1.613 . S
N1612 C1615 1.350 . S
N1613 S1611 1.610 . S
N1613 C1614 1.351 . S
C1614 C1608 1.428 . S
C1614 N1613 1.351 . S
C1614 C1615 1.434 . S
C1615 C1606 1.429 . S
C1615 N1612 1.350 . S
C1615 C1614 1.434 . S
C1616 C1617 1.369 . S
C1616 C1618 1.419 . S
C1616 H1620 0.930 . S
C1617 C1616 1.369 . S
C1617 C1626 1.429 . S
C1618 C1616 1.419 . S
C1618 C1619 1.363 . S
C1618 H1621 0.929 . S
C1619 C1618 1.363 . S
C1619 C1625 1.428 . S
H1620 C1616 0.930 . S
H1621 C1618 0.929 . S
S1622 N1623 1.613 . S
S1622 N1624 1.610 . S
N1623 S1622 1.613 . S
N1623 C1626 1.350 . S
N1624 S1622 1.610 . S
N1624 C1625 1.351 . S
C1625 C1619 1.428 . S
C1625 N1624 1.351 . S
C1625 C1626 1.434 . S
C1626 C1617 1.429 . S
C1626 N1623 1.350 . S
C1626 C1625 1.434 . S
C1627 C1628 1.369 . S
C1627 C1629 1.419 . S
C1627 H1631 0.930 . S
C1628 C1627 1.369 . S
C1628 C1637 1.429 . S
C1629 C1627 1.419 . S
C1629 C1630 1.363 . S
C1629 H1632 0.929 . S
C1630 C1629 1.363 . S
C1630 C1636 1.428 . S
H1631 C1627 0.930 . S
H1632 C1629 0.929 . S
S1633 N1634 1.613 . S
S1633 N1635 1.610 . S
N1634 S1633 1.613 . S
N1634 C1637 1.350 . S
N1635 S1633 1.610 . S
N1635 C1636 1.351 . S
C1636 C1630 1.428 . S
C1636 N1635 1.351 . S
C1636 C1637 1.434 . S
C1637 C1628 1.429 . S
C1637 N1634 1.350 . S
C1637 C1636 1.434 . S
C1638 C1639 1.369 . S
C1638 C1640 1.419 . S
C1638 H1642 0.930 . S
C1639 C1638 1.369 . S
C1639 C1648 1.429 . S
C1640 C1638 1.419 . S
C1640 C1641 1.363 . S
C1640 H1643 0.929 . S
C1641 C1640 1.363 . S
C1641 C1647 1.428 . S
H1642 C1638 0.930 . S
H1643 C1640 0.929 . S
S1644 N1645 1.613 . S
S1644 N1646 1.610 . S
N1645 S1644 1.613 . S
N1645 C1648 1.350 . S
N1646 S1644 1.610 . S
N1646 C1647 1.351 . S
C1647 C1641 1.428 . S
C1647 N1646 1.351 . S
C1647 C1648 1.434 . S
C1648 C1639 1.429 . S
C1648 N1645 1.350 . S
C1648 C1647 1.434 . S
C1649 C1650 1.369 . S
C1649 C1651 1.419 . S
C1649 H1653 0.930 . S
C1650 C1649 1.369 . S
C1650 C1659 1.429 . S
C1651 C1649 1.419 . S
C1651 C1652 1.363 . S
C1651 H1654 0.929 . S
C1652 C1651 1.363 . S
C1652 C1658 1.428 . S
H1653 C1649 0.930 . S
H1654 C1651 0.929 . S
S1655 N1656 1.613 . S
S1655 N1657 1.610 . S
N1656 S1655 1.613 . S
N1656 C1659 1.350 . S
N1657 S1655 1.610 . S
N1657 C1658 1.351 . S
C1658 C1652 1.428 . S
C1658 N1657 1.351 . S
C1658 C1659 1.434 . S
C1659 C1650 1.429 . S
C1659 N1656 1.350 . S
C1659 C1658 1.434 . S
C1660 C1661 1.369 . S
C1660 C1662 1.419 . S
C1660 H1664 0.930 . S
C1661 C1660 1.369 . S
C1661 C1670 1.429 . S
C1662 C1660 1.419 . S
C1662 C1663 1.363 . S
C1662 H1665 0.929 . S
C1663 C1662 1.363 . S
C1663 C1669 1.428 . S
H1664 C1660 0.930 . S
H1665 C1662 0.929 . S
S1666 N1667 1.613 . S
S1666 N1668 1.610 . S
N1667 S1666 1.613 . S
N1667 C1670 1.350 . S
N1668 S1666 1.610 . S
N1668 C1669 1.351 . S
C1669 C1663 1.428 . S
C1669 N1668 1.351 . S
C1669 C1670 1.434 . S
C1670 C1661 1.429 . S
C1670 N1667 1.350 . S
C1670 C1669 1.434 . S
C1671 C1672 1.369 . S
C1671 C1673 1.419 . S
C1671 H1675 0.930 . S
C1672 C1671 1.369 . S
C1672 C1681 1.429 . S
C1673 C1671 1.419 . S
C1673 C1674 1.363 . S
C1673 H1676 0.929 . S
C1674 C1673 1.363 . S
C1674 C1680 1.428 . S
H1675 C1671 0.930 . S
H1676 C1673 0.929 . S
S1677 N1678 1.613 . S
S1677 N1679 1.610 . S
N1678 S1677 1.613 . S
N1678 C1681 1.350 . S
N1679 S1677 1.610 . S
N1679 C1680 1.351 . S
C1680 C1674 1.428 . S
C1680 N1679 1.351 . S
C1680 C1681 1.434 . S
C1681 C1672 1.429 . S
C1681 N1678 1.350 . S
C1681 C1680 1.434 . S
C1682 C1683 1.369 . S
C1682 C1684 1.419 . S
C1682 H1686 0.930 . S
C1683 C1682 1.369 . S
C1683 C1692 1.429 . S
C1684 C1682 1.419 . S
C1684 C1685 1.363 . S
C1684 H1687 0.929 . S
C1685 C1684 1.363 . S
C1685 C1691 1.428 . S
H1686 C1682 0.930 . S
H1687 C1684 0.929 . S
S1688 N1689 1.613 . S
S1688 N1690 1.610 . S
N1689 S1688 1.613 . S
N1689 C1692 1.350 . S
N1690 S1688 1.610 . S
N1690 C1691 1.351 . S
C1691 C1685 1.428 . S
C1691 N1690 1.351 . S
C1691 C1692 1.434 . S
C1692 C1683 1.429 . S
C1692 N1689 1.350 . S
C1692 C1691 1.434 . S
C1693 C1694 1.369 . S
C1693 C1695 1.419 . S
C1693 H1697 0.930 . S
C1694 C1693 1.369 . S
C1694 C1703 1.429 . S
C1695 C1693 1.419 . S
C1695 C1696 1.363 . S
C1695 H1698 0.929 . S
C1696 C1695 1.363 . S
C1696 C1702 1.428 . S
H1697 C1693 0.930 . S
H1698 C1695 0.929 . S
S1699 N1700 1.613 . S
S1699 N1701 1.610 . S
N1700 S1699 1.613 . S
N1700 C1703 1.350 . S
N1701 S1699 1.610 . S
N1701 C1702 1.351 . S
C1702 C1696 1.428 . S
C1702 N1701 1.351 . S
C1702 C1703 1.434 . S
C1703 C1694 1.429 . S
C1703 N1700 1.350 . S
C1703 C1702 1.434 . S
C1704 C1705 1.369 . S
C1704 C1706 1.419 . S
C1704 H1708 0.930 . S
C1705 C1704 1.369 . S
C1705 C1714 1.429 . S
C1706 C1704 1.419 . S
C1706 C1707 1.363 . S
C1706 H1709 0.929 . S
C1707 C1706 1.363 . S
C1707 C1713 1.428 . S
H1708 C1704 0.930 . S
H1709 C1706 0.929 . S
S1710 N1711 1.613 . S
S1710 N1712 1.610 . S
N1711 S1710 1.613 . S
N1711 C1714 1.350 . S
N1712 S1710 1.610 . S
N1712 C1713 1.351 . S
C1713 C1707 1.428 . S
C1713 N1712 1.351 . S
C1713 C1714 1.434 . S
C1714 C1705 1.429 . S
C1714 N1711 1.350 . S
C1714 C1713 1.434 . S
C1715 C1716 1.369 . S
C1715 C1717 1.419 . S
C1715 H1719 0.930 . S
C1716 C1715 1.369 . S
C1716 C1725 1.429 . S
C1717 C1715 1.419 . S
C1717 C1718 1.363 . S
C1717 H1720 0.929 . S
C1718 C1717 1.363 . S
C1718 C1724 1.428 . S
H1719 C1715 0.930 . S
H1720 C1717 0.929 . S
S1721 N1722 1.613 . S
S1721 N1723 1.610 . S
N1722 S1721 1.613 . S
N1722 C1725 1.350 . S
N1723 S1721 1.610 . S
N1723 C1724 1.351 . S
C1724 C1718 1.428 . S
C1724 N1723 1.351 . S
C1724 C1725 1.434 . S
C1725 C1716 1.429 . S
C1725 N1722 1.350 . S
C1725 C1724 1.434 . S
C1726 C1727 1.369 . S
C1726 C1728 1.419 . S
C1726 H1730 0.930 . S
C1727 C1726 1.369 . S
C1727 C1736 1.429 . S
C1728 C1726 1.419 . S
C1728 C1729 1.363 . S
C1728 H1731 0.929 . S
C1729 C1728 1.363 . S
C1729 C1735 1.428 . S
H1730 C1726 0.930 . S
H1731 C1728 0.929 . S
S1732 N1733 1.613 . S
S1732 N1734 1.610 . S
N1733 S1732 1.613 . S
N1733 C1736 1.350 . S
N1734 S1732 1.610 . S
N1734 C1735 1.351 . S
C1735 C1729 1.428 . S
C1735 N1734 1.351 . S
C1735 C1736 1.434 . S
C1736 C1727 1.429 . S
C1736 N1733 1.350 . S
C1736 C1735 1.434 . S
C1737 C1738 1.369 . S
C1737 C1739 1.419 . S
C1737 H1741 0.930 . S
C1738 C1737 1.369 . S
C1738 C1747 1.429 . S
C1739 C1737 1.419 . S
C1739 C1740 1.363 . S
C1739 H1742 0.929 . S
C1740 C1739 1.363 . S
C1740 C1746 1.428 . S
H1741 C1737 0.930 . S
H1742 C1739 0.929 . S
S1743 N1744 1.613 . S
S1743 N1745 1.610 . S
N1744 S1743 1.613 . S
N1744 C1747 1.350 . S
N1745 S1743 1.610 . S
N1745 C1746 1.351 . S
C1746 C1740 1.428 . S
C1746 N1745 1.351 . S
C1746 C1747 1.434 . S
C1747 C1738 1.429 . S
C1747 N1744 1.350 . S
C1747 C1746 1.434 . S
C1748 C1749 1.369 . S
C1748 C1750 1.419 . S
C1748 H1752 0.930 . S
C1749 C1748 1.369 . S
C1749 C1758 1.429 . S
C1750 C1748 1.419 . S
C1750 C1751 1.363 . S
C1750 H1753 0.929 . S
C1751 C1750 1.363 . S
C1751 C1757 1.428 . S
H1752 C1748 0.930 . S
H1753 C1750 0.929 . S
S1754 N1755 1.613 . S
S1754 N1756 1.610 . S
N1755 S1754 1.613 . S
N1755 C1758 1.350 . S
N1756 S1754 1.610 . S
N1756 C1757 1.351 . S
C1757 C1751 1.428 . S
C1757 N1756 1.351 . S
C1757 C1758 1.434 . S
C1758 C1749 1.429 . S
C1758 N1755 1.350 . S
C1758 C1757 1.434 . S
C1759 C1760 1.369 . S
C1759 C1761 1.419 . S
C1759 H1763 0.930 . S
C1760 C1759 1.369 . S
C1760 C1769 1.429 . S
C1761 C1759 1.419 . S
C1761 C1762 1.363 . S
C1761 H1764 0.929 . S
C1762 C1761 1.363 . S
C1762 C1768 1.428 . S
H1763 C1759 0.930 . S
H1764 C1761 0.929 . S
S1765 N1766 1.613 . S
S1765 N1767 1.610 . S
N1766 S1765 1.613 . S
N1766 C1769 1.350 . S
N1767 S1765 1.610 . S
N1767 C1768 1.351 . S
C1768 C1762 1.428 . S
C1768 N1767 1.351 . S
C1768 C1769 1.434 . S
C1769 C1760 1.429 . S
C1769 N1766 1.350 . S
C1769 C1768 1.434 . S
C1770 C1771 1.369 . S
C1770 C1772 1.419 . S
C1770 H1774 0.930 . S
C1771 C1770 1.369 . S
C1771 C1780 1.429 . S
C1772 C1770 1.419 . S
C1772 C1773 1.363 . S
C1772 H1775 0.929 . S
C1773 C1772 1.363 . S
C1773 C1779 1.428 . S
H1774 C1770 0.930 . S
H1775 C1772 0.929 . S
S1776 N1777 1.613 . S
S1776 N1778 1.610 . S
N1777 S1776 1.613 . S
N1777 C1780 1.350 . S
N1778 S1776 1.610 . S
N1778 C1779 1.351 . S
C1779 C1773 1.428 . S
C1779 N1778 1.351 . S
C1779 C1780 1.434 . S
C1780 C1771 1.429 . S
C1780 N1777 1.350 . S
C1780 C1779 1.434 . S
C1781 C1782 1.369 . S
C1781 C1783 1.419 . S
C1781 H1785 0.930 . S
C1782 C1781 1.369 . S
C1782 C1791 1.429 . S
C1783 C1781 1.419 . S
C1783 C1784 1.363 . S
C1783 H1786 0.929 . S
C1784 C1783 1.363 . S
C1784 C1790 1.428 . S
H1785 C1781 0.930 . S
H1786 C1783 0.929 . S
S1787 N1788 1.613 . S
S1787 N1789 1.610 . S
N1788 S1787 1.613 . S
N1788 C1791 1.350 . S
N1789 S1787 1.610 . S
N1789 C1790 1.351 . S
C1790 C1784 1.428 . S
C1790 N1789 1.351 . S
C1790 C1791 1.434 . S
C1791 C1782 1.429 . S
C1791 N1788 1.350 . S
C1791 C1790 1.434 . S
C1792 C1793 1.369 . S
C1792 C1794 1.419 . S
C1792 H1796 0.930 . S
C1793 C1792 1.369 . S
C1793 C1802 1.429 . S
C1794 C1792 1.419 . S
C1794 C1795 1.363 . S
C1794 H1797 0.929 . S
C1795 C1794 1.363 . S
C1795 C1801 1.428 . S
H1796 C1792 0.930 . S
H1797 C1794 0.929 . S
S1798 N1799 1.613 . S
S1798 N1800 1.610 . S
N1799 S1798 1.613 . S
N1799 C1802 1.350 . S
N1800 S1798 1.610 . S
N1800 C1801 1.351 . S
C1801 C1795 1.428 . S
C1801 N1800 1.351 . S
C1801 C1802 1.434 . S
C1802 C1793 1.429 . S
C1802 N1799 1.350 . S
C1802 C1801 1.434 . S
C1803 C1804 1.369 . S
C1803 C1805 1.419 . S
C1803 H1807 0.930 . S
C1804 C1803 1.369 . S
C1804 C1813 1.429 . S
C1805 C1803 1.419 . S
C1805 C1806 1.363 . S
C1805 H1808 0.929 . S
C1806 C1805 1.363 . S
C1806 C1812 1.428 . S
H1807 C1803 0.930 . S
H1808 C1805 0.929 . S
S1809 N1810 1.613 . S
S1809 N1811 1.610 . S
N1810 S1809 1.613 . S
N1810 C1813 1.350 . S
N1811 S1809 1.610 . S
N1811 C1812 1.351 . S
C1812 C1806 1.428 . S
C1812 N1811 1.351 . S
C1812 C1813 1.434 . S
C1813 C1804 1.429 . S
C1813 N1810 1.350 . S
C1813 C1812 1.434 . S
C1814 C1815 1.369 . S
C1814 C1816 1.419 . S
C1814 H1818 0.930 . S
C1815 C1814 1.369 . S
C1815 C1824 1.429 . S
C1816 C1814 1.419 . S
C1816 C1817 1.363 . S
C1816 H1819 0.929 . S
C1817 C1816 1.363 . S
C1817 C1823 1.428 . S
H1818 C1814 0.930 . S
H1819 C1816 0.929 . S
S1820 N1821 1.613 . S
S1820 N1822 1.610 . S
N1821 S1820 1.613 . S
N1821 C1824 1.350 . S
N1822 S1820 1.610 . S
N1822 C1823 1.351 . S
C1823 C1817 1.428 . S
C1823 N1822 1.351 . S
C1823 C1824 1.434 . S
C1824 C1815 1.429 . S
C1824 N1821 1.350 . S
C1824 C1823 1.434 . S
C1825 C1826 1.369 . S
C1825 C1827 1.419 . S
C1825 H1829 0.930 . S
C1826 C1825 1.369 . S
C1826 C1835 1.429 . S
C1827 C1825 1.419 . S
C1827 C1828 1.363 . S
C1827 H1830 0.929 . S
C1828 C1827 1.363 . S
C1828 C1834 1.428 . S
H1829 C1825 0.930 . S
H1830 C1827 0.929 . S
S1831 N1832 1.613 . S
S1831 N1833 1.610 . S
N1832 S1831 1.613 . S
N1832 C1835 1.350 . S
N1833 S1831 1.610 . S
N1833 C1834 1.351 . S
C1834 C1828 1.428 . S
C1834 N1833 1.351 . S
C1834 C1835 1.434 . S
C1835 C1826 1.429 . S
C1835 N1832 1.350 . S
C1835 C1834 1.434 . S
C1836 C1837 1.369 . S
C1836 C1838 1.419 . S
C1836 H1840 0.930 . S
C1837 C1836 1.369 . S
C1837 C1846 1.429 . S
C1838 C1836 1.419 . S
C1838 C1839 1.363 . S
C1838 H1841 0.929 . S
C1839 C1838 1.363 . S
C1839 C1845 1.428 . S
H1840 C1836 0.930 . S
H1841 C1838 0.929 . S
S1842 N1843 1.613 . S
S1842 N1844 1.610 . S
N1843 S1842 1.613 . S
N1843 C1846 1.350 . S
N1844 S1842 1.610 . S
N1844 C1845 1.351 . S
C1845 C1839 1.428 . S
C1845 N1844 1.351 . S
C1845 C1846 1.434 . S
C1846 C1837 1.429 . S
C1846 N1843 1.350 . S
C1846 C1845 1.434 . S
C1847 C1848 1.369 . S
C1847 C1849 1.419 . S
C1847 H1851 0.930 . S
C1848 C1847 1.369 . S
C1848 C1857 1.429 . S
C1849 C1847 1.419 . S
C1849 C1850 1.363 . S
C1849 H1852 0.929 . S
C1850 C1849 1.363 . S
C1850 C1856 1.428 . S
H1851 C1847 0.930 . S
H1852 C1849 0.929 . S
S1853 N1854 1.613 . S
S1853 N1855 1.610 . S
N1854 S1853 1.613 . S
N1854 C1857 1.350 . S
N1855 S1853 1.610 . S
N1855 C1856 1.351 . S
C1856 C1850 1.428 . S
C1856 N1855 1.351 . S
C1856 C1857 1.434 . S
C1857 C1848 1.429 . S
C1857 N1854 1.350 . S
C1857 C1856 1.434 . S
C1858 C1859 1.369 . S
C1858 C1860 1.419 . S
C1858 H1862 0.930 . S
C1859 C1858 1.369 . S
C1859 C1868 1.429 . S
C1860 C1858 1.419 . S
C1860 C1861 1.363 . S
C1860 H1863 0.929 . S
C1861 C1860 1.363 . S
C1861 C1867 1.428 . S
H1862 C1858 0.930 . S
H1863 C1860 0.929 . S
S1864 N1865 1.613 . S
S1864 N1866 1.610 . S
N1865 S1864 1.613 . S
N1865 C1868 1.350 . S
N1866 S1864 1.610 . S
N1866 C1867 1.351 . S
C1867 C1861 1.428 . S
C1867 N1866 1.351 . S
C1867 C1868 1.434 . S
C1868 C1859 1.429 . S
C1868 N1865 1.350 . S
C1868 C1867 1.434 . S
C1869 C1870 1.369 . S
C1869 C1871 1.419 . S
C1869 H1873 0.930 . S
C1870 C1869 1.369 . S
C1870 C1879 1.429 . S
C1871 C1869 1.419 . S
C1871 C1872 1.363 . S
C1871 H1874 0.929 . S
C1872 C1871 1.363 . S
C1872 C1878 1.428 . S
H1873 C1869 0.930 . S
H1874 C1871 0.929 . S
S1875 N1876 1.613 . S
S1875 N1877 1.610 . S
N1876 S1875 1.613 . S
N1876 C1879 1.350 . S
N1877 S1875 1.610 . S
N1877 C1878 1.351 . S
C1878 C1872 1.428 . S
C1878 N1877 1.351 . S
C1878 C1879 1.434 . S
C1879 C1870 1.429 . S
C1879 N1876 1.350 . S
C1879 C1878 1.434 . S
C1880 C1881 1.369 . S
C1880 C1882 1.419 . S
C1880 H1884 0.930 . S
C1881 C1880 1.369 . S
C1881 C1890 1.429 . S
C1882 C1880 1.419 . S
C1882 C1883 1.363 . S
C1882 H1885 0.929 . S
C1883 C1882 1.363 . S
C1883 C1889 1.428 . S
H1884 C1880 0.930 . S
H1885 C1882 0.929 . S
S1886 N1887 1.613 . S
S1886 N1888 1.610 . S
N1887 S1886 1.613 . S
N1887 C1890 1.350 . S
N1888 S1886 1.610 . S
N1888 C1889 1.351 . S
C1889 C1883 1.428 . S
C1889 N1888 1.351 . S
C1889 C1890 1.434 . S
C1890 C1881 1.429 . S
C1890 N1887 1.350 . S
C1890 C1889 1.434 . S
C1891 C1892 1.369 . S
C1891 C1893 1.419 . S
C1891 H1895 0.930 . S
C1892 C1891 1.369 . S
C1892 C1901 1.429 . S
C1893 C1891 1.419 . S
C1893 C1894 1.363 . S
C1893 H1896 0.929 . S
C1894 C1893 1.363 . S
C1894 C1900 1.428 . S
H1895 C1891 0.930 . S
H1896 C1893 0.929 . S
S1897 N1898 1.613 . S
S1897 N1899 1.610 . S
N1898 S1897 1.613 . S
N1898 C1901 1.350 . S
N1899 S1897 1.610 . S
N1899 C1900 1.351 . S
C1900 C1894 1.428 . S
C1900 N1899 1.351 . S
C1900 C1901 1.434 . S
C1901 C1892 1.429 . S
C1901 N1898 1.350 . S
C1901 C1900 1.434 . S
C1902 C1903 1.369 . S
C1902 C1904 1.419 . S
C1902 H1906 0.930 . S
C1903 C1902 1.369 . S
C1903 C1912 1.429 . S
C1904 C1902 1.419 . S
C1904 C1905 1.363 . S
C1904 H1907 0.929 . S
C1905 C1904 1.363 . S
C1905 C1911 1.428 . S
H1906 C1902 0.930 . S
H1907 C1904 0.929 . S
S1908 N1909 1.613 . S
S1908 N1910 1.610 . S
N1909 S1908 1.613 . S
N1909 C1912 1.350 . S
N1910 S1908 1.610 . S
N1910 C1911 1.351 . S
C1911 C1905 1.428 . S
C1911 N1910 1.351 . S
C1911 C1912 1.434 . S
C1912 C1903 1.429 . S
C1912 N1909 1.350 . S
C1912 C1911 1.434 . S
C1913 C1914 1.369 . S
C1913 C1915 1.419 . S
C1913 H1917 0.930 . S
C1914 C1913 1.369 . S
C1914 C1923 1.429 . S
C1915 C1913 1.419 . S
C1915 C1916 1.363 . S
C1915 H1918 0.929 . S
C1916 C1915 1.363 . S
C1916 C1922 1.428 . S
H1917 C1913 0.930 . S
H1918 C1915 0.929 . S
S1919 N1920 1.613 . S
S1919 N1921 1.610 . S
N1920 S1919 1.613 . S
N1920 C1923 1.350 . S
N1921 S1919 1.610 . S
N1921 C1922 1.351 . S
C1922 C1916 1.428 . S
C1922 N1921 1.351 . S
C1922 C1923 1.434 . S
C1923 C1914 1.429 . S
C1923 N1920 1.350 . S
C1923 C1922 1.434 . S
C1924 C1925 1.369 . S
C1924 C1926 1.419 . S
C1924 H1928 0.930 . S
C1925 C1924 1.369 . S
C1925 C1934 1.429 . S
C1926 C1924 1.419 . S
C1926 C1927 1.363 . S
C1926 H1929 0.929 . S
C1927 C1926 1.363 . S
C1927 C1933 1.428 . S
H1928 C1924 0.930 . S
H1929 C1926 0.929 . S
S1930 N1931 1.613 . S
S1930 N1932 1.610 . S
N1931 S1930 1.613 . S
N1931 C1934 1.350 . S
N1932 S1930 1.610 . S
N1932 C1933 1.351 . S
C1933 C1927 1.428 . S
C1933 N1932 1.351 . S
C1933 C1934 1.434 . S
C1934 C1925 1.429 . S
C1934 N1931 1.350 . S
C1934 C1933 1.434 . S
C1935 C1936 1.369 . S
C1935 C1937 1.419 . S
C1935 H1939 0.930 . S
C1936 C1935 1.369 . S
C1936 C1945 1.429 . S
C1937 C1935 1.419 . S
C1937 C1938 1.363 . S
C1937 H1940 0.929 . S
C1938 C1937 1.363 . S
C1938 C1944 1.428 . S
H1939 C1935 0.930 . S
H1940 C1937 0.929 . S
S1941 N1942 1.613 . S
S1941 N1943 1.610 . S
N1942 S1941 1.613 . S
N1942 C1945 1.350 . S
N1943 S1941 1.610 . S
N1943 C1944 1.351 . S
C1944 C1938 1.428 . S
C1944 N1943 1.351 . S
C1944 C1945 1.434 . S
C1945 C1936 1.429 . S
C1945 N1942 1.350 . S
C1945 C1944 1.434 . S
C1946 C1947 1.369 . S
C1946 C1948 1.419 . S
C1946 H1950 0.930 . S
C1947 C1946 1.369 . S
C1947 C1956 1.429 . S
C1948 C1946 1.419 . S
C1948 C1949 1.363 . S
C1948 H1951 0.929 . S
C1949 C1948 1.363 . S
C1949 C1955 1.428 . S
H1950 C1946 0.930 . S
H1951 C1948 0.929 . S
S1952 N1953 1.613 . S
S1952 N1954 1.610 . S
N1953 S1952 1.613 . S
N1953 C1956 1.350 . S
N1954 S1952 1.610 . S
N1954 C1955 1.351 . S
C1955 C1949 1.428 . S
C1955 N1954 1.351 . S
C1955 C1956 1.434 . S
C1956 C1947 1.429 . S
C1956 N1953 1.350 . S
C1956 C1955 1.434 . S
C1957 C1958 1.369 . S
C1957 C1959 1.419 . S
C1957 H1961 0.930 . S
C1958 C1957 1.369 . S
C1958 C1967 1.429 . S
C1959 C1957 1.419 . S
C1959 C1960 1.363 . S
C1959 H1962 0.929 . S
C1960 C1959 1.363 . S
C1960 C1966 1.428 . S
H1961 C1957 0.930 . S
H1962 C1959 0.929 . S
S1963 N1964 1.613 . S
S1963 N1965 1.610 . S
N1964 S1963 1.613 . S
N1964 C1967 1.350 . S
N1965 S1963 1.610 . S
N1965 C1966 1.351 . S
C1966 C1960 1.428 . S
C1966 N1965 1.351 . S
C1966 C1967 1.434 . S
C1967 C1958 1.429 . S
C1967 N1964 1.350 . S
C1967 C1966 1.434 . S
C1968 C1969 1.369 . S
C1968 C1970 1.419 1_655 S
C1968 H1972 0.930 . S
C1969 C1968 1.369 . S
C1969 C1978 1.429 . S
C1970 C1968 1.419 1_455 S
C1970 C1971 1.363 . S
C1970 H1973 0.929 . S
C1971 C1970 1.363 . S
C1971 C1977 1.428 . S
H1972 C1968 0.930 . S
H1973 C1970 0.929 . S
S1974 N1975 1.613 . S
S1974 N1976 1.610 1_655 S
N1975 S1974 1.613 . S
N1975 C1978 1.350 . S
N1976 S1974 1.610 1_455 S
N1976 C1977 1.351 . S
C1977 C1971 1.428 . S
C1977 N1976 1.351 . S
C1977 C1978 1.434 1_455 S
C1978 C1969 1.429 . S
C1978 N1975 1.350 . S
C1978 C1977 1.434 1_655 S
C1979 C1980 1.369 . S
C1979 C1981 1.419 . S
C1979 H1983 0.930 . S
C1980 C1979 1.369 . S
C1980 C1989 1.429 . S
C1981 C1979 1.419 . S
C1981 C1982 1.363 . S
C1981 H1984 0.929 . S
C1982 C1981 1.363 . S
C1982 C1988 1.428 . S
H1983 C1979 0.930 . S
H1984 C1981 0.929 . S
S1985 N1986 1.613 . S
S1985 N1987 1.610 . S
N1986 S1985 1.613 . S
N1986 C1989 1.350 . S
N1987 S1985 1.610 . S
N1987 C1988 1.351 . S
C1988 C1982 1.428 . S
C1988 N1987 1.351 . S
C1988 C1989 1.434 . S
C1989 C1980 1.429 . S
C1989 N1986 1.350 . S
C1989 C1988 1.434 . S
C1990 C1991 1.369 . S
C1990 C1992 1.419 1_545 S
C1990 H1994 0.930 . S
C1991 C1990 1.369 . S
C1991 C2000 1.429 . S
C1992 C1990 1.419 1_565 S
C1992 C1993 1.363 . S
C1992 H1995 0.929 . S
C1993 C1992 1.363 . S
C1993 C1999 1.428 . S
H1994 C1990 0.930 . S
H1995 C1992 0.929 . S
S1996 N1997 1.613 . S
S1996 N1998 1.610 1_545 S
N1997 S1996 1.613 . S
N1997 C2000 1.350 . S
N1998 S1996 1.610 1_565 S
N1998 C1999 1.351 . S
C1999 C1993 1.428 . S
C1999 N1998 1.351 . S
C1999 C2000 1.434 1_565 S
C2000 C1991 1.429 . S
C2000 N1997 1.350 . S
C2000 C1999 1.434 1_545 S
C2001 C2002 1.369 1_556 S
C2001 C2003 1.419 1_565 S
C2001 H2005 0.930 . S
C2002 C2001 1.369 1_554 S
C2002 C2011 1.429 . S
C2003 C2001 1.419 1_545 S
C2003 C2004 1.363 . S
C2003 H2006 0.929 . S
C2004 C2003 1.363 . S
C2004 C2010 1.428 1_556 S
H2005 C2001 0.930 . S
H2006 C2003 0.929 . S
S2007 N2008 1.613 1_545 S
S2007 N2009 1.610 . S
N2008 S2007 1.613 1_565 S
N2008 C2011 1.350 . S
N2009 S2007 1.610 . S
N2009 C2010 1.351 . S
C2010 C2004 1.428 1_554 S
C2010 N2009 1.351 . S
C2010 C2011 1.434 1_545 S
C2011 C2002 1.429 . S
C2011 N2008 1.350 . S
C2011 C2010 1.434 1_565 S
C2012 C2013 1.369 1_554 S
C2012 C2014 1.419 1_655 S
C2012 H2016 0.930 . S
C2013 C2012 1.369 1_556 S
C2013 C2022 1.429 . S
C2014 C2012 1.419 1_455 S
C2014 C2015 1.363 . S
C2014 H2017 0.929 . S
C2015 C2014 1.363 . S
C2015 C2021 1.428 1_554 S
H2016 C2012 0.930 . S
H2017 C2014 0.929 . S
S2018 N2019 1.613 1_455 S
S2018 N2020 1.610 . S
N2019 S2018 1.613 1_655 S
N2019 C2022 1.350 . S
N2020 S2018 1.610 . S
N2020 C2021 1.351 . S
C2021 C2015 1.428 1_556 S
C2021 N2020 1.351 . S
C2021 C2022 1.434 1_455 S
C2022 C2013 1.429 . S
C2022 N2019 1.350 . S
C2022 C2021 1.434 1_655 S
C2023 C2024 1.369 1_556 S
C2023 C2025 1.419 . S
C2023 H2027 0.930 . S
C2024 C2023 1.369 1_554 S
C2024 C2033 1.429 . S
C2025 C2023 1.419 . S
C2025 C2026 1.363 . S
C2025 H2028 0.929 . S
C2026 C2025 1.363 . S
C2026 C2032 1.428 1_556 S
H2027 C2023 0.930 . S
H2028 C2025 0.929 . S
S2029 N2030 1.613 . S
S2029 N2031 1.610 . S
N2030 S2029 1.613 . S
N2030 C2033 1.350 . S
N2031 S2029 1.610 . S
N2031 C2032 1.351 . S
C2032 C2026 1.428 1_554 S
C2032 N2031 1.351 . S
C2032 C2033 1.434 . S
C2033 C2024 1.429 . S
C2033 N2030 1.350 . S
C2033 C2032 1.434 . S
C2034 C2035 1.369 . S
C2034 C2036 1.419 . S
C2034 H2038 0.930 . S
C2035 C2034 1.369 . S
C2035 C2044 1.429 . S
C2036 C2034 1.419 . S
C2036 C2037 1.363 . S
C2036 H2039 0.929 . S
C2037 C2036 1.363 . S
C2037 C2043 1.428 . S
H2038 C2034 0.930 . S
H2039 C2036 0.929 . S
S2040 N2041 1.613 . S
S2040 N2042 1.610 1_554 S
N2041 S2040 1.613 . S
N2041 C2044 1.350 1_554 S
N2042 S2040 1.610 1_556 S
N2042 C2043 1.351 . S
C2043 C2037 1.428 . S
C2043 N2042 1.351 . S
C2043 C2044 1.434 . S
C2044 C2035 1.429 . S
C2044 N2041 1.350 1_556 S
C2044 C2043 1.434 . S
C2045 C2046 1.369 . S
C2045 C2047 1.419 . S
C2045 H2049 0.930 . S
C2046 C2045 1.369 . S
C2046 C2055 1.429 . S
C2047 C2045 1.419 . S
C2047 C2048 1.363 . S
C2047 H2050 0.929 . S
C2048 C2047 1.363 . S
C2048 C2054 1.428 . S
H2049 C2045 0.930 . S
H2050 C2047 0.929 . S
S2051 N2052 1.613 . S
S2051 N2053 1.610 1_554 S
N2052 S2051 1.613 . S
N2052 C2055 1.350 1_554 S
N2053 S2051 1.610 1_556 S
N2053 C2054 1.351 . S
C2054 C2048 1.428 . S
C2054 N2053 1.351 . S
C2054 C2055 1.434 . S
C2055 C2046 1.429 . S
C2055 N2052 1.350 1_556 S
C2055 C2054 1.434 . S
C2056 C2057 1.369 . S
C2056 C2058 1.419 . S
C2056 H2060 0.930 . S
C2057 C2056 1.369 . S
C2057 C2066 1.429 . S
C2058 C2056 1.419 . S
C2058 C2059 1.363 . S
C2058 H2061 0.929 . S
C2059 C2058 1.363 . S
C2059 C2065 1.428 . S
H2060 C2056 0.930 . S
H2061 C2058 0.929 . S
S2062 N2063 1.613 1_554 S
S2062 N2064 1.610 . S
N2063 S2062 1.613 1_556 S
N2063 C2066 1.350 . S
N2064 S2062 1.610 . S
N2064 C2065 1.351 1_554 S
C2065 C2059 1.428 . S
C2065 N2064 1.351 1_556 S
C2065 C2066 1.434 . S
C2066 C2057 1.429 . S
C2066 N2063 1.350 . S
C2066 C2065 1.434 . S
C2067 C2068 1.369 . S
C2067 C2069 1.419 . S
C2067 H2071 0.930 . S
C2068 C2067 1.369 . S
C2068 C2077 1.429 . S
C2069 C2067 1.419 . S
C2069 C2070 1.363 . S
C2069 H2072 0.929 . S
C2070 C2069 1.363 . S
C2070 C2076 1.428 . S
H2071 C2067 0.930 . S
H2072 C2069 0.929 . S
S2073 N2074 1.613 . S
S2073 N2075 1.610 . S
N2074 S2073 1.613 . S
N2074 C2077 1.350 . S
N2075 S2073 1.610 . S
N2075 C2076 1.351 . S
C2076 C2070 1.428 . S
C2076 N2075 1.351 . S
C2076 C2077 1.434 . S
C2077 C2068 1.429 . S
C2077 N2074 1.350 . S
C2077 C2076 1.434 . S
C2078 C2079 1.369 . S
C2078 C2080 1.419 . S
C2078 H2082 0.930 . S
C2079 C2078 1.369 . S
C2079 C2088 1.429 . S
C2080 C2078 1.419 . S
C2080 C2081 1.363 . S
C2080 H2083 0.929 . S
C2081 C2080 1.363 . S
C2081 C2087 1.428 . S
H2082 C2078 0.930 . S
H2083 C2080 0.929 . S
S2084 N2085 1.613 . S
S2084 N2086 1.610 . S
N2085 S2084 1.613 . S
N2085 C2088 1.350 . S
N2086 S2084 1.610 . S
N2086 C2087 1.351 . S
C2087 C2081 1.428 . S
C2087 N2086 1.351 . S
C2087 C2088 1.434 . S
C2088 C2079 1.429 . S
C2088 N2085 1.350 . S
C2088 C2087 1.434 . S
C2089 C2090 1.369 . S
C2089 C2091 1.419 . S
C2089 H2093 0.930 . S
C2090 C2089 1.369 . S
C2090 C2099 1.429 . S
C2091 C2089 1.419 . S
C2091 C2092 1.363 . S
C2091 H2094 0.929 . S
C2092 C2091 1.363 . S
C2092 C2098 1.428 . S
H2093 C2089 0.930 . S
H2094 C2091 0.929 . S
S2095 N2096 1.613 . S
S2095 N2097 1.610 . S
N2096 S2095 1.613 . S
N2096 C2099 1.350 . S
N2097 S2095 1.610 . S
N2097 C2098 1.351 . S
C2098 C2092 1.428 . S
C2098 N2097 1.351 . S
C2098 C2099 1.434 . S
C2099 C2090 1.429 . S
C2099 N2096 1.350 . S
C2099 C2098 1.434 . S
C2100 C2101 1.369 . S
C2100 C2102 1.419 . S
C2100 H2104 0.930 . S
C2101 C2100 1.369 . S
C2101 C2110 1.429 . S
C2102 C2100 1.419 . S
C2102 C2103 1.363 . S
C2102 H2105 0.929 . S
C2103 C2102 1.363 . S
C2103 C2109 1.428 . S
H2104 C2100 0.930 . S
H2105 C2102 0.929 . S
S2106 N2107 1.613 . S
S2106 N2108 1.610 . S
N2107 S2106 1.613 . S
N2107 C2110 1.350 . S
N2108 S2106 1.610 . S
N2108 C2109 1.351 . S
C2109 C2103 1.428 . S
C2109 N2108 1.351 . S
C2109 C2110 1.434 . S
C2110 C2101 1.429 . S
C2110 N2107 1.350 . S
C2110 C2109 1.434 . S
C2111 C2112 1.369 . S
C2111 C2113 1.419 . S
C2111 H2115 0.930 . S
C2112 C2111 1.369 . S
C2112 C2121 1.429 . S
C2113 C2111 1.419 . S
C2113 C2114 1.363 . S
C2113 H2116 0.929 . S
C2114 C2113 1.363 . S
C2114 C2120 1.428 . S
H2115 C2111 0.930 . S
H2116 C2113 0.929 . S
S2117 N2118 1.613 . S
S2117 N2119 1.610 . S
N2118 S2117 1.613 . S
N2118 C2121 1.350 . S
N2119 S2117 1.610 . S
N2119 C2120 1.351 . S
C2120 C2114 1.428 . S
C2120 N2119 1.351 . S
C2120 C2121 1.434 . S
C2121 C2112 1.429 . S
C2121 N2118 1.350 . S
C2121 C2120 1.434 . S
C2122 C2123 1.369 . S
C2122 C2124 1.419 . S
C2122 H2126 0.930 . S
C2123 C2122 1.369 . S
C2123 C2132 1.429 . S
C2124 C2122 1.419 . S
C2124 C2125 1.363 . S
C2124 H2127 0.929 . S
C2125 C2124 1.363 . S
C2125 C2131 1.428 . S
H2126 C2122 0.930 . S
H2127 C2124 0.929 . S
S2128 N2129 1.613 1_556 S
S2128 N2130 1.610 . S
N2129 S2128 1.613 1_554 S
N2129 C2132 1.350 . S
N2130 S2128 1.610 . S
N2130 C2131 1.351 1_556 S
C2131 C2125 1.428 . S
C2131 N2130 1.351 1_554 S
C2131 C2132 1.434 . S
C2132 C2123 1.429 . S
C2132 N2129 1.350 . S
C2132 C2131 1.434 . S
C2133 C2134 1.369 . S
C2133 C2135 1.419 . S
C2133 H2137 0.930 . S
C2134 C2133 1.369 . S
C2134 C2143 1.429 . S
C2135 C2133 1.419 . S
C2135 C2136 1.363 . S
C2135 H2138 0.929 . S
C2136 C2135 1.363 . S
C2136 C2142 1.428 . S
H2137 C2133 0.930 . S
H2138 C2135 0.929 . S
S2139 N2140 1.613 . S
S2139 N2141 1.610 . S
N2140 S2139 1.613 . S
N2140 C2143 1.350 . S
N2141 S2139 1.610 . S
N2141 C2142 1.351 . S
C2142 C2136 1.428 . S
C2142 N2141 1.351 . S
C2142 C2143 1.434 . S
C2143 C2134 1.429 . S
C2143 N2140 1.350 . S
C2143 C2142 1.434 . S
C2144 C2145 1.369 . S
C2144 C2146 1.419 . S
C2144 H2148 0.930 . S
C2145 C2144 1.369 . S
C2145 C2154 1.429 . S
C2146 C2144 1.419 . S
C2146 C2147 1.363 . S
C2146 H2149 0.929 . S
C2147 C2146 1.363 . S
C2147 C2153 1.428 . S
H2148 C2144 0.930 . S
H2149 C2146 0.929 . S
S2150 N2151 1.613 . S
S2150 N2152 1.610 . S
N2151 S2150 1.613 . S
N2151 C2154 1.350 . S
N2152 S2150 1.610 . S
N2152 C2153 1.351 . S
C2153 C2147 1.428 . S
C2153 N2152 1.351 . S
C2153 C2154 1.434 . S
C2154 C2145 1.429 . S
C2154 N2151 1.350 . S
C2154 C2153 1.434 . S
C2155 C2156 1.369 . S
C2155 C2157 1.419 . S
C2155 H2159 0.930 . S
C2156 C2155 1.369 . S
C2156 C2165 1.429 . S
C2157 C2155 1.419 . S
C2157 C2158 1.363 . S
C2157 H2160 0.929 . S
C2158 C2157 1.363 . S
C2158 C2164 1.428 . S
H2159 C2155 0.930 . S
H2160 C2157 0.929 . S
S2161 N2162 1.613 . S
S2161 N2163 1.610 . S
N2162 S2161 1.613 . S
N2162 C2165 1.350 . S
N2163 S2161 1.610 . S
N2163 C2164 1.351 . S
C2164 C2158 1.428 . S
C2164 N2163 1.351 . S
C2164 C2165 1.434 . S
C2165 C2156 1.429 . S
C2165 N2162 1.350 . S
C2165 C2164 1.434 . S
C2166 C2167 1.369 . S
C2166 C2168 1.419 1_455 S
C2166 H2170 0.930 . S
C2167 C2166 1.369 . S
C2167 C2176 1.429 . S
C2168 C2166 1.419 1_655 S
C2168 C2169 1.363 . S
C2168 H2171 0.929 . S
C2169 C2168 1.363 . S
C2169 C2175 1.428 . S
H2170 C2166 0.930 . S
H2171 C2168 0.929 . S
S2172 N2173 1.613 . S
S2172 N2174 1.610 1_455 S
N2173 S2172 1.613 . S
N2173 C2176 1.350 . S
N2174 S2172 1.610 1_655 S
N2174 C2175 1.351 . S
C2175 C2169 1.428 . S
C2175 N2174 1.351 . S
C2175 C2176 1.434 1_655 S
C2176 C2167 1.429 . S
C2176 N2173 1.350 . S
C2176 C2175 1.434 1_455 S
C2177 C2178 1.369 . S
C2177 C2179 1.419 . S
C2177 H2181 0.930 . S
C2178 C2177 1.369 . S
C2178 C2187 1.429 . S
C2179 C2177 1.419 . S
C2179 C2180 1.363 . S
C2179 H2182 0.929 . S
C2180 C2179 1.363 . S
C2180 C2186 1.428 . S
H2181 C2177 0.930 . S
H2182 C2179 0.929 . S
S2183 N2184 1.613 . S
S2183 N2185 1.610 . S
N2184 S2183 1.613 . S
N2184 C2187 1.350 . S
N2185 S2183 1.610 . S
N2185 C2186 1.351 . S
C2186 C2180 1.428 . S
C2186 N2185 1.351 . S
C2186 C2187 1.434 . S
C2187 C2178 1.429 . S
C2187 N2184 1.350 . S
C2187 C2186 1.434 . S
C2188 C2189 1.369 . S
C2188 C2190 1.419 1_545 S
C2188 H2192 0.930 . S
C2189 C2188 1.369 . S
C2189 C2198 1.429 . S
C2190 C2188 1.419 1_565 S
C2190 C2191 1.363 . S
C2190 H2193 0.929 . S
C2191 C2190 1.363 . S
C2191 C2197 1.428 . S
H2192 C2188 0.930 . S
H2193 C2190 0.929 . S
S2194 N2195 1.613 1_565 S
S2194 N2196 1.610 . S
N2195 S2194 1.613 1_545 S
N2195 C2198 1.350 . S
N2196 S2194 1.610 . S
N2196 C2197 1.351 . S
C2197 C2191 1.428 . S
C2197 N2196 1.351 . S
C2197 C2198 1.434 1_565 S
C2198 C2189 1.429 . S
C2198 N2195 1.350 . S
C2198 C2197 1.434 1_545 S
C2199 C2200 1.369 . S
C2199 C2201 1.419 1_565 S
C2199 H2203 0.930 . S
C2200 C2199 1.369 . S
C2200 C2209 1.429 . S
C2201 C2199 1.419 1_545 S
C2201 C2202 1.363 . S
C2201 H2204 0.929 . S
C2202 C2201 1.363 . S
C2202 C2208 1.428 . S
H2203 C2199 0.930 . S
H2204 C2201 0.929 . S
S2205 N2206 1.613 . S
S2205 N2207 1.610 1_565 S
N2206 S2205 1.613 . S
N2206 C2209 1.350 . S
N2207 S2205 1.610 1_545 S
N2207 C2208 1.351 . S
C2208 C2202 1.428 . S
C2208 N2207 1.351 . S
C2208 C2209 1.434 1_545 S
C2209 C2200 1.429 . S
C2209 N2206 1.350 . S
C2209 C2208 1.434 1_565 S
C2210 C2211 1.369 . S
C2210 C2212 1.419 1_455 S
C2210 H2214 0.930 . S
C2211 C2210 1.369 . S
C2211 C2220 1.429 . S
C2212 C2210 1.419 1_655 S
C2212 C2213 1.363 . S
C2212 H2215 0.929 . S
C2213 C2212 1.363 . S
C2213 C2219 1.428 . S
H2214 C2210 0.930 . S
H2215 C2212 0.929 . S
S2216 N2217 1.613 1_655 S
S2216 N2218 1.610 . S
N2217 S2216 1.613 1_455 S
N2217 C2220 1.350 . S
N2218 S2216 1.610 . S
N2218 C2219 1.351 . S
C2219 C2213 1.428 . S
C2219 N2218 1.351 . S
C2219 C2220 1.434 1_655 S
C2220 C2211 1.429 . S
C2220 N2217 1.350 . S
C2220 C2219 1.434 1_455 S
C2221 C2222 1.369 . S
C2221 C2223 1.419 . S
C2221 H2225 0.930 . S
C2222 C2221 1.369 . S
C2222 C2231 1.429 . S
C2223 C2221 1.419 . S
C2223 C2224 1.363 . S
C2223 H2226 0.929 . S
C2224 C2223 1.363 . S
C2224 C2230 1.428 . S
H2225 C2221 0.930 . S
H2226 C2223 0.929 . S
S2227 N2228 1.613 . S
S2227 N2229 1.610 . S
N2228 S2227 1.613 . S
N2228 C2231 1.350 . S
N2229 S2227 1.610 . S
N2229 C2230 1.351 . S
C2230 C2224 1.428 . S
C2230 N2229 1.351 . S
C2230 C2231 1.434 . S
C2231 C2222 1.429 . S
C2231 N2228 1.350 . S
C2231 C2230 1.434 . S
C2232 C2233 1.369 . S
C2232 C2234 1.419 . S
C2232 H2236 0.930 . S
C2233 C2232 1.369 . S
C2233 C2242 1.429 . S
C2234 C2232 1.419 . S
C2234 C2235 1.363 . S
C2234 H2237 0.929 . S
C2235 C2234 1.363 . S
C2235 C2241 1.428 . S
H2236 C2232 0.930 . S
H2237 C2234 0.929 . S
S2238 N2239 1.613 . S
S2238 N2240 1.610 . S
N2239 S2238 1.613 . S
N2239 C2242 1.350 . S
N2240 S2238 1.610 . S
N2240 C2241 1.351 . S
C2241 C2235 1.428 . S
C2241 N2240 1.351 . S
C2241 C2242 1.434 . S
C2242 C2233 1.429 . S
C2242 N2239 1.350 . S
C2242 C2241 1.434 . S
C2243 C2244 1.369 . S
C2243 C2245 1.419 1_545 S
C2243 H2247 0.930 . S
C2244 C2243 1.369 . S
C2244 C2253 1.429 . S
C2245 C2243 1.419 1_565 S
C2245 C2246 1.363 . S
C2245 H2248 0.929 . S
C2246 C2245 1.363 . S
C2246 C2252 1.428 . S
H2247 C2243 0.930 . S
H2248 C2245 0.929 . S
S2249 N2250 1.613 . S
S2249 N2251 1.610 1_545 S
N2250 S2249 1.613 . S
N2250 C2253 1.350 . S
N2251 S2249 1.610 1_565 S
N2251 C2252 1.351 . S
C2252 C2246 1.428 . S
C2252 N2251 1.351 . S
C2252 C2253 1.434 1_565 S
C2253 C2244 1.429 . S
C2253 N2250 1.350 . S
C2253 C2252 1.434 1_545 S
C2254 C2255 1.369 . S
C2254 C2256 1.419 1_655 S
C2254 H2258 0.930 . S
C2255 C2254 1.369 . S
C2255 C2264 1.429 . S
C2256 C2254 1.419 1_455 S
C2256 C2257 1.363 . S
C2256 H2259 0.929 . S
C2257 C2256 1.363 . S
C2257 C2263 1.428 . S
H2258 C2254 0.930 . S
H2259 C2256 0.929 . S
S2260 N2261 1.613 1_455 S
S2260 N2262 1.610 . S
N2261 S2260 1.613 1_655 S
N2261 C2264 1.350 . S
N2262 S2260 1.610 . S
N2262 C2263 1.351 . S
C2263 C2257 1.428 . S
C2263 N2262 1.351 . S
C2263 C2264 1.434 1_455 S
C2264 C2255 1.429 . S
C2264 N2261 1.350 . S
C2264 C2263 1.434 1_655 S
C2265 C2266 1.369 . S
C2265 C2267 1.419 . S
C2265 H2269 0.930 . S
C2266 C2265 1.369 . S
C2266 C2275 1.429 . S
C2267 C2265 1.419 . S
C2267 C2268 1.363 . S
C2267 H2270 0.929 . S
C2268 C2267 1.363 . S
C2268 C2274 1.428 . S
H2269 C2265 0.930 . S
H2270 C2267 0.929 . S
S2271 N2272 1.613 . S
S2271 N2273 1.610 . S
N2272 S2271 1.613 . S
N2272 C2275 1.350 . S
N2273 S2271 1.610 . S
N2273 C2274 1.351 . S
C2274 C2268 1.428 . S
C2274 N2273 1.351 . S
C2274 C2275 1.434 . S
C2275 C2266 1.429 . S
C2275 N2272 1.350 . S
C2275 C2274 1.434 . S
C2276 C2277 1.369 . S
C2276 C2278 1.419 1_565 S
C2276 H2280 0.930 . S
C2277 C2276 1.369 . S
C2277 C2286 1.429 . S
C2278 C2276 1.419 1_545 S
C2278 C2279 1.363 . S
C2278 H2281 0.929 . S
C2279 C2278 1.363 . S
C2279 C2285 1.428 . S
H2280 C2276 0.930 . S
H2281 C2278 0.929 . S
S2282 N2283 1.613 . S
S2282 N2284 1.610 1_565 S
N2283 S2282 1.613 . S
N2283 C2286 1.350 . S
N2284 S2282 1.610 1_545 S
N2284 C2285 1.351 . S
C2285 C2279 1.428 . S
C2285 N2284 1.351 . S
C2285 C2286 1.434 1_545 S
C2286 C2277 1.429 . S
C2286 N2283 1.350 . S
C2286 C2285 1.434 1_565 S
C2287 C2288 1.369 . S
C2287 C2289 1.419 1_655 S
C2287 H2291 0.930 . S
C2288 C2287 1.369 . S
C2288 C2297 1.429 . S
C2289 C2287 1.419 1_455 S
C2289 C2290 1.363 . S
C2289 H2292 0.929 . S
C2290 C2289 1.363 . S
C2290 C2296 1.428 . S
H2291 C2287 0.930 . S
H2292 C2289 0.929 . S
S2293 N2294 1.613 . S
S2293 N2295 1.610 1_655 S
N2294 S2293 1.613 . S
N2294 C2297 1.350 . S
N2295 S2293 1.610 1_455 S
N2295 C2296 1.351 . S
C2296 C2290 1.428 . S
C2296 N2295 1.351 . S
C2296 C2297 1.434 1_455 S
C2297 C2288 1.429 . S
C2297 N2294 1.350 . S
C2297 C2296 1.434 1_655 S
C2298 C2299 1.369 . S
C2298 C2300 1.419 . S
C2298 H2302 0.930 . S
C2299 C2298 1.369 . S
C2299 C2308 1.429 . S
C2300 C2298 1.419 . S
C2300 C2301 1.363 . S
C2300 H2303 0.929 . S
C2301 C2300 1.363 . S
C2301 C2307 1.428 . S
H2302 C2298 0.930 . S
H2303 C2300 0.929 . S
S2304 N2305 1.613 . S
S2304 N2306 1.610 . S
N2305 S2304 1.613 . S
N2305 C2308 1.350 . S
N2306 S2304 1.610 . S
N2306 C2307 1.351 . S
C2307 C2301 1.428 . S
C2307 N2306 1.351 . S
C2307 C2308 1.434 . S
C2308 C2299 1.429 . S
C2308 N2305 1.350 . S
C2308 C2307 1.434 . S
C2309 C2310 1.369 . S
C2309 C2311 1.419 . S
C2309 H2313 0.930 . S
C2310 C2309 1.369 . S
C2310 C2319 1.429 . S
C2311 C2309 1.419 . S
C2311 C2312 1.363 . S
C2311 H2314 0.929 . S
C2312 C2311 1.363 . S
C2312 C2318 1.428 . S
H2313 C2309 0.930 . S
H2314 C2311 0.929 . S
S2315 N2316 1.613 . S
S2315 N2317 1.610 . S
N2316 S2315 1.613 . S
N2316 C2319 1.350 . S
N2317 S2315 1.610 . S
N2317 C2318 1.351 . S
C2318 C2312 1.428 . S
C2318 N2317 1.351 . S
C2318 C2319 1.434 . S
C2319 C2310 1.429 . S
C2319 N2316 1.350 . S
C2319 C2318 1.434 . S
C2320 C2321 1.369 . S
C2320 C2322 1.419 . S
C2320 H2324 0.930 . S
C2321 C2320 1.369 . S
C2321 C2330 1.429 . S
C2322 C2320 1.419 . S
C2322 C2323 1.363 . S
C2322 H2325 0.929 . S
C2323 C2322 1.363 . S
C2323 C2329 1.428 . S
H2324 C2320 0.930 . S
H2325 C2322 0.929 . S
S2326 N2327 1.613 . S
S2326 N2328 1.610 . S
N2327 S2326 1.613 . S
N2327 C2330 1.350 . S
N2328 S2326 1.610 . S
N2328 C2329 1.351 . S
C2329 C2323 1.428 . S
C2329 N2328 1.351 . S
C2329 C2330 1.434 . S
C2330 C2321 1.429 . S
C2330 N2327 1.350 . S
C2330 C2329 1.434 . S
C2331 C2332 1.369 . S
C2331 C2333 1.419 . S
C2331 H2335 0.930 . S
C2332 C2331 1.369 . S
C2332 C2341 1.429 . S
C2333 C2331 1.419 . S
C2333 C2334 1.363 . S
C2333 H2336 0.929 . S
C2334 C2333 1.363 . S
C2334 C2340 1.428 . S
H2335 C2331 0.930 . S
H2336 C2333 0.929 . S
S2337 N2338 1.613 . S
S2337 N2339 1.610 . S
N2338 S2337 1.613 . S
N2338 C2341 1.350 . S
N2339 S2337 1.610 . S
N2339 C2340 1.351 . S
C2340 C2334 1.428 . S
C2340 N2339 1.351 . S
C2340 C2341 1.434 . S
C2341 C2332 1.429 . S
C2341 N2338 1.350 . S
C2341 C2340 1.434 . S
C2342 C2343 1.369 . S
C2342 C2344 1.419 . S
C2342 H2346 0.930 . S
C2343 C2342 1.369 . S
C2343 C2352 1.429 . S
C2344 C2342 1.419 . S
C2344 C2345 1.363 . S
C2344 H2347 0.929 . S
C2345 C2344 1.363 . S
C2345 C2351 1.428 . S
H2346 C2342 0.930 . S
H2347 C2344 0.929 . S
S2348 N2349 1.613 . S
S2348 N2350 1.610 . S
N2349 S2348 1.613 . S
N2349 C2352 1.350 . S
N2350 S2348 1.610 . S
N2350 C2351 1.351 . S
C2351 C2345 1.428 . S
C2351 N2350 1.351 . S
C2351 C2352 1.434 . S
C2352 C2343 1.429 . S
C2352 N2349 1.350 . S
C2352 C2351 1.434 . S
C2353 C2354 1.369 . S
C2353 C2355 1.419 . S
C2353 H2357 0.930 . S
C2354 C2353 1.369 . S
C2354 C2363 1.429 . S
C2355 C2353 1.419 . S
C2355 C2356 1.363 . S
C2355 H2358 0.929 . S
C2356 C2355 1.363 . S
C2356 C2362 1.428 . S
H2357 C2353 0.930 . S
H2358 C2355 0.929 . S
S2359 N2360 1.613 1_556 S
S2359 N2361 1.610 1_556 S
N2360 S2359 1.613 1_554 S
N2360 C2363 1.350 . S
N2361 S2359 1.610 1_554 S
N2361 C2362 1.351 . S
C2362 C2356 1.428 . S
C2362 N2361 1.351 . S
C2362 C2363 1.434 . S
C2363 C2354 1.429 . S
C2363 N2360 1.350 . S
C2363 C2362 1.434 . S
C2364 C2365 1.369 . S
C2364 C2366 1.419 . S
C2364 H2368 0.930 . S
C2365 C2364 1.369 . S
C2365 C2374 1.429 . S
C2366 C2364 1.419 . S
C2366 C2367 1.363 . S
C2366 H2369 0.929 1_556 S
C2367 C2366 1.363 . S
C2367 C2373 1.428 . S
H2368 C2364 0.930 . S
H2369 C2366 0.929 1_554 S
S2370 N2371 1.613 . S
S2370 N2372 1.610 . S
N2371 S2370 1.613 . S
N2371 C2374 1.350 . S
N2372 S2370 1.610 . S
N2372 C2373 1.351 . S
C2373 C2367 1.428 . S
C2373 N2372 1.351 . S
C2373 C2374 1.434 . S
C2374 C2365 1.429 . S
C2374 N2371 1.350 . S
C2374 C2373 1.434 . S
C2375 C2376 1.369 . S
C2375 C2377 1.419 . S
C2375 H2379 0.930 . S
C2376 C2375 1.369 . S
C2376 C2385 1.429 . S
C2377 C2375 1.419 . S
C2377 C2378 1.363 . S
C2377 H2380 0.929 . S
C2378 C2377 1.363 . S
C2378 C2384 1.428 . S
H2379 C2375 0.930 . S
H2380 C2377 0.929 . S
S2381 N2382 1.613 . S
S2381 N2383 1.610 . S
N2382 S2381 1.613 . S
N2382 C2385 1.350 . S
N2383 S2381 1.610 . S
N2383 C2384 1.351 . S
C2384 C2378 1.428 . S
C2384 N2383 1.351 . S
C2384 C2385 1.434 . S
C2385 C2376 1.429 . S
C2385 N2382 1.350 . S
C2385 C2384 1.434 . S
C2386 C2387 1.369 . S
C2386 C2388 1.419 . S
C2386 H2390 0.930 . S
C2387 C2386 1.369 . S
C2387 C2396 1.429 . S
C2388 C2386 1.419 . S
C2388 C2389 1.363 . S
C2388 H2391 0.929 . S
C2389 C2388 1.363 . S
C2389 C2395 1.428 . S
H2390 C2386 0.930 . S
H2391 C2388 0.929 . S
S2392 N2393 1.613 . S
S2392 N2394 1.610 . S
N2393 S2392 1.613 . S
N2393 C2396 1.350 . S
N2394 S2392 1.610 . S
N2394 C2395 1.351 . S
C2395 C2389 1.428 . S
C2395 N2394 1.351 . S
C2395 C2396 1.434 . S
C2396 C2387 1.429 . S
C2396 N2393 1.350 . S
C2396 C2395 1.434 . S
C2397 C2398 1.369 . S
C2397 C2399 1.419 . S
C2397 H2401 0.930 . S
C2398 C2397 1.369 . S
C2398 C2407 1.429 . S
C2399 C2397 1.419 . S
C2399 C2400 1.363 . S
C2399 H2402 0.929 . S
C2400 C2399 1.363 . S
C2400 C2406 1.428 . S
H2401 C2397 0.930 . S
H2402 C2399 0.929 . S
S2403 N2404 1.613 . S
S2403 N2405 1.610 . S
N2404 S2403 1.613 . S
N2404 C2407 1.350 . S
N2405 S2403 1.610 . S
N2405 C2406 1.351 . S
C2406 C2400 1.428 . S
C2406 N2405 1.351 . S
C2406 C2407 1.434 . S
C2407 C2398 1.429 . S
C2407 N2404 1.350 . S
C2407 C2406 1.434 . S
C2408 C2409 1.369 . S
C2408 C2410 1.419 . S
C2408 H2412 0.930 . S
C2409 C2408 1.369 . S
C2409 C2418 1.429 . S
C2410 C2408 1.419 . S
C2410 C2411 1.363 . S
C2410 H2413 0.929 . S
C2411 C2410 1.363 . S
C2411 C2417 1.428 . S
H2412 C2408 0.930 . S
H2413 C2410 0.929 . S
S2414 N2415 1.613 . S
S2414 N2416 1.610 . S
N2415 S2414 1.613 . S
N2415 C2418 1.350 . S
N2416 S2414 1.610 . S
N2416 C2417 1.351 . S
C2417 C2411 1.428 . S
C2417 N2416 1.351 . S
C2417 C2418 1.434 . S
C2418 C2409 1.429 . S
C2418 N2415 1.350 . S
C2418 C2417 1.434 . S
C2419 C2420 1.369 . S
C2419 C2421 1.419 . S
C2419 H2423 0.930 . S
C2420 C2419 1.369 . S
C2420 C2429 1.429 . S
C2421 C2419 1.419 . S
C2421 C2422 1.363 . S
C2421 H2424 0.929 . S
C2422 C2421 1.363 . S
C2422 C2428 1.428 . S
H2423 C2419 0.930 . S
H2424 C2421 0.929 . S
S2425 N2426 1.613 . S
S2425 N2427 1.610 . S
N2426 S2425 1.613 . S
N2426 C2429 1.350 . S
N2427 S2425 1.610 . S
N2427 C2428 1.351 . S
C2428 C2422 1.428 . S
C2428 N2427 1.351 . S
C2428 C2429 1.434 . S
C2429 C2420 1.429 . S
C2429 N2426 1.350 . S
C2429 C2428 1.434 . S
C2430 C2431 1.369 . S
C2430 C2432 1.419 . S
C2430 H2434 0.930 . S
C2431 C2430 1.369 . S
C2431 C2440 1.429 . S
C2432 C2430 1.419 . S
C2432 C2433 1.363 . S
C2432 H2435 0.929 . S
C2433 C2432 1.363 . S
C2433 C2439 1.428 . S
H2434 C2430 0.930 . S
H2435 C2432 0.929 . S
S2436 N2437 1.613 1_556 S
S2436 N2438 1.610 . S
N2437 S2436 1.613 1_554 S
N2437 C2440 1.350 . S
N2438 S2436 1.610 . S
N2438 C2439 1.351 1_556 S
C2439 C2433 1.428 . S
C2439 N2438 1.351 1_554 S
C2439 C2440 1.434 . S
C2440 C2431 1.429 . S
C2440 N2437 1.350 . S
C2440 C2439 1.434 . S
C2441 C2442 1.369 . S
C2441 C2443 1.419 . S
C2441 H2445 0.930 . S
C2442 C2441 1.369 . S
C2442 C2451 1.429 . S
C2443 C2441 1.419 . S
C2443 C2444 1.363 . S
C2443 H2446 0.929 . S
C2444 C2443 1.363 . S
C2444 C2450 1.428 . S
H2445 C2441 0.930 . S
H2446 C2443 0.929 . S
S2447 N2448 1.613 1_545 S
S2447 N2449 1.610 . S
N2448 S2447 1.613 1_565 S
N2448 C2451 1.350 . S
N2449 S2447 1.610 . S
N2449 C2450 1.351 1_545 S
C2450 C2444 1.428 . S
C2450 N2449 1.351 1_565 S
C2450 C2451 1.434 . S
C2451 C2442 1.429 . S
C2451 N2448 1.350 . S
C2451 C2450 1.434 . S
C2452 C2453 1.369 . S
C2452 C2454 1.419 . S
C2452 H2456 0.930 . S
C2453 C2452 1.369 . S
C2453 C2462 1.429 . S
C2454 C2452 1.419 . S
C2454 C2455 1.363 . S
C2454 H2457 0.929 1_554 S
C2455 C2454 1.363 . S
C2455 C2461 1.428 . S
H2456 C2452 0.930 . S
H2457 C2454 0.929 1_556 S
S2458 N2459 1.613 . S
S2458 N2460 1.610 . S
N2459 S2458 1.613 . S
N2459 C2462 1.350 . S
N2460 S2458 1.610 . S
N2460 C2461 1.351 . S
C2461 C2455 1.428 . S
C2461 N2460 1.351 . S
C2461 C2462 1.434 . S
C2462 C2453 1.429 . S
C2462 N2459 1.350 . S
C2462 C2461 1.434 . S
C2463 C2464 1.369 . S
C2463 C2465 1.419 . S
C2463 H2467 0.930 . S
C2464 C2463 1.369 . S
C2464 C2473 1.429 . S
C2465 C2463 1.419 . S
C2465 C2466 1.363 . S
C2465 H2468 0.929 . S
C2466 C2465 1.363 . S
C2466 C2472 1.428 . S
H2467 C2463 0.930 . S
H2468 C2465 0.929 . S
S2469 N2470 1.613 . S
S2469 N2471 1.610 . S
N2470 S2469 1.613 . S
N2470 C2473 1.350 . S
N2471 S2469 1.610 . S
N2471 C2472 1.351 . S
C2472 C2466 1.428 . S
C2472 N2471 1.351 . S
C2472 C2473 1.434 . S
C2473 C2464 1.429 . S
C2473 N2470 1.350 . S
C2473 C2472 1.434 . S
C2474 C2475 1.369 . S
C2474 C2476 1.419 . S
C2474 H2478 0.930 1_545 S
C2475 C2474 1.369 . S
C2475 C2484 1.429 . S
C2476 C2474 1.419 . S
C2476 C2477 1.363 . S
C2476 H2479 0.929 . S
C2477 C2476 1.363 . S
C2477 C2483 1.428 . S
H2478 C2474 0.930 1_565 S
H2479 C2476 0.929 . S
S2480 N2481 1.613 . S
S2480 N2482 1.610 . S
N2481 S2480 1.613 . S
N2481 C2484 1.350 . S
N2482 S2480 1.610 . S
N2482 C2483 1.351 . S
C2483 C2477 1.428 . S
C2483 N2482 1.351 . S
C2483 C2484 1.434 . S
C2484 C2475 1.429 . S
C2484 N2481 1.350 . S
C2484 C2483 1.434 . S
C2485 C2486 1.369 . S
C2485 C2487 1.419 . S
C2485 H2489 0.930 . S
C2486 C2485 1.369 . S
C2486 C2495 1.429 . S
C2487 C2485 1.419 . S
C2487 C2488 1.363 . S
C2487 H2490 0.929 . S
C2488 C2487 1.363 . S
C2488 C2494 1.428 . S
H2489 C2485 0.930 . S
H2490 C2487 0.929 . S
S2491 N2492 1.627 . S
S2491 N2493 1.640 . S
N2492 S2491 1.627 . S
N2492 C2495 1.372 . S
N2493 S2491 1.640 . S
N2493 C2494 1.351 . S
C2494 C2488 1.428 . S
C2494 N2493 1.351 . S
C2494 C2495 1.434 . S
C2495 C2486 1.429 . S
C2495 N2492 1.372 . S
C2495 C2494 1.434 . S
C2496 C2497 1.369 . S
C2496 C2498 1.419 . S
C2496 H2500 0.930 . S
C2497 C2496 1.369 . S
C2497 C2506 1.429 . S
C2498 C2496 1.419 . S
C2498 C2499 1.363 . S
C2498 H2501 0.929 . S
C2499 C2498 1.363 . S
C2499 C2505 1.428 . S
H2500 C2496 0.930 . S
H2501 C2498 0.929 . S
S2502 N2503 1.613 . S
S2502 N2504 1.610 1_554 S
N2503 S2502 1.613 . S
N2503 C2506 1.350 1_554 S
N2504 S2502 1.610 1_556 S
N2504 C2505 1.351 . S
C2505 C2499 1.428 . S
C2505 N2504 1.351 . S
C2505 C2506 1.434 . S
C2506 C2497 1.429 . S
C2506 N2503 1.350 1_556 S
C2506 C2505 1.434 . S
C2507 C2508 1.369 . S
C2507 C2509 1.419 . S
C2507 H2511 0.930 . S
C2508 C2507 1.369 . S
C2508 C2517 1.429 . S
C2509 C2507 1.419 . S
C2509 C2510 1.363 . S
C2509 H2512 0.929 1_556 S
C2510 C2509 1.363 . S
C2510 C2516 1.428 . S
H2511 C2507 0.930 . S
H2512 C2509 0.929 1_554 S
S2513 N2514 1.613 . S
S2513 N2515 1.610 . S
N2514 S2513 1.613 . S
N2514 C2517 1.350 . S
N2515 S2513 1.610 . S
N2515 C2516 1.351 . S
C2516 C2510 1.428 . S
C2516 N2515 1.351 . S
C2516 C2517 1.434 . S
C2517 C2508 1.429 . S
C2517 N2514 1.350 . S
C2517 C2516 1.434 . S
C2518 C2519 1.369 . S
C2518 C2520 1.419 . S
C2518 H2522 0.930 . S
C2519 C2518 1.369 . S
C2519 C2528 1.429 . S
C2520 C2518 1.419 . S
C2520 C2521 1.363 . S
C2520 H2523 0.929 . S
C2521 C2520 1.363 . S
C2521 C2527 1.428 . S
H2522 C2518 0.930 . S
H2523 C2520 0.929 . S
S2524 N2525 1.618 . S
S2524 N2526 1.605 1_655 S
N2525 S2524 1.618 . S
N2525 C2528 1.350 . S
N2526 S2524 1.605 1_455 S
N2526 C2527 1.350 1_455 S
C2527 C2521 1.428 . S
C2527 N2526 1.350 1_655 S
C2527 C2528 1.434 . S
C2528 C2519 1.429 . S
C2528 N2525 1.350 . S
C2528 C2527 1.434 . S
C2529 C2530 1.369 . S
C2529 C2531 1.419 . S
C2529 H2533 0.930 . S
C2530 C2529 1.369 . S
C2530 C2539 1.429 . S
C2531 C2529 1.419 . S
C2531 C2532 1.363 . S
C2531 H2534 0.929 . S
C2532 C2531 1.363 . S
C2532 C2538 1.428 . S
H2533 C2529 0.930 . S
H2534 C2531 0.929 . S
S2535 N2536 1.613 . S
S2535 N2537 1.610 . S
N2536 S2535 1.613 . S
N2536 C2539 1.350 . S
N2537 S2535 1.610 . S
N2537 C2538 1.351 . S
C2538 C2532 1.428 . S
C2538 N2537 1.351 . S
C2538 C2539 1.434 . S
C2539 C2530 1.429 . S
C2539 N2536 1.350 . S
C2539 C2538 1.434 . S
C2540 C2541 1.369 . S
C2540 C2542 1.419 . S
C2540 H2544 0.930 . S
C2541 C2540 1.369 . S
C2541 C2550 1.429 . S
C2542 C2540 1.419 . S
C2542 C2543 1.363 . S
C2542 H2545 0.929 . S
C2543 C2542 1.363 . S
C2543 C2549 1.428 . S
H2544 C2540 0.930 . S
H2545 C2542 0.929 . S
S2546 N2547 1.613 . S
S2546 N2548 1.610 . S
N2547 S2546 1.613 . S
N2547 C2550 1.350 . S
N2548 S2546 1.610 . S
N2548 C2549 1.351 . S
C2549 C2543 1.428 . S
C2549 N2548 1.351 . S
C2549 C2550 1.434 . S
C2550 C2541 1.429 . S
C2550 N2547 1.350 . S
C2550 C2549 1.434 . S
C2551 C2552 1.369 . S
C2551 C2553 1.419 . S
C2551 H2555 0.930 . S
C2552 C2551 1.369 . S
C2552 C2561 1.429 . S
C2553 C2551 1.419 . S
C2553 C2554 1.363 . S
C2553 H2556 0.929 . S
C2554 C2553 1.363 . S
C2554 C2560 1.428 . S
H2555 C2551 0.930 . S
H2556 C2553 0.929 . S
S2557 N2558 1.613 1_655 S
S2557 N2559 1.610 . S
N2558 S2557 1.613 1_455 S
N2558 C2561 1.350 . S
N2559 S2557 1.610 . S
N2559 C2560 1.351 1_655 S
C2560 C2554 1.428 . S
C2560 N2559 1.351 1_455 S
C2560 C2561 1.434 . S
C2561 C2552 1.429 . S
C2561 N2558 1.350 . S
C2561 C2560 1.434 . S
C2562 C2563 1.369 . S
C2562 C2564 1.420 1_655 S
C2562 H2566 0.930 . S
C2563 C2562 1.369 . S
C2563 C2572 1.391 1_655 S
C2564 C2562 1.420 1_455 S
C2564 C2565 1.362 . S
C2564 H2567 0.925 1_455 S
C2565 C2564 1.362 . S
C2565 C2571 1.428 . S
H2566 C2562 0.930 . S
H2567 C2564 0.925 1_655 S
S2568 N2569 1.613 . S
S2568 N2570 1.610 . S
N2569 S2568 1.613 . S
N2569 C2572 1.361 . S
N2570 S2568 1.610 . S
N2570 C2571 1.351 . S
C2571 C2565 1.428 . S
C2571 N2570 1.351 . S
C2571 C2572 1.467 . S
C2572 C2563 1.391 1_455 S
C2572 N2569 1.361 . S
C2572 C2571 1.467 . S
C2573 C2574 1.369 . S
C2573 C2575 1.419 . S
C2573 H2577 0.930 . S
C2574 C2573 1.369 . S
C2574 C2583 1.429 . S
C2575 C2573 1.419 . S
C2575 C2576 1.363 . S
C2575 H2578 0.929 . S
C2576 C2575 1.363 . S
C2576 C2582 1.428 . S
H2577 C2573 0.930 . S
H2578 C2575 0.929 . S
S2579 N2580 1.613 . S
S2579 N2581 1.610 . S
N2580 S2579 1.613 . S
N2580 C2583 1.350 . S
N2581 S2579 1.610 . S
N2581 C2582 1.351 . S
C2582 C2576 1.428 . S
C2582 N2581 1.351 . S
C2582 C2583 1.434 . S
C2583 C2574 1.429 . S
C2583 N2580 1.350 . S
C2583 C2582 1.434 . S
C2584 C2585 1.369 . S
C2584 C2586 1.419 1_545 S
C2584 H2588 0.930 . S
C2585 C2584 1.369 . S
C2585 C2594 1.429 . S
C2586 C2584 1.419 1_565 S
C2586 C2587 1.363 . S
C2586 H2589 0.929 . S
C2587 C2586 1.363 . S
C2587 C2593 1.428 . S
H2588 C2584 0.930 . S
H2589 C2586 0.929 . S
S2590 N2591 1.622 . S
S2590 N2592 1.608 1_545 S
N2591 S2590 1.622 . S
N2591 C2594 1.350 . S
N2592 S2590 1.608 1_565 S
N2592 C2593 1.351 . S
C2593 C2587 1.428 . S
C2593 N2592 1.351 . S
C2593 C2594 1.434 1_565 S
C2594 C2585 1.429 . S
C2594 N2591 1.350 . S
C2594 C2593 1.434 1_545 S
C2595 C2596 1.369 . S
C2595 C2597 1.419 1_545 S
C2595 H2599 0.930 . S
C2596 C2595 1.369 . S
C2596 C2605 1.429 . S
C2597 C2595 1.419 1_565 S
C2597 C2598 1.363 . S
C2597 H2600 0.929 . S
C2598 C2597 1.363 . S
C2598 C2604 1.454 . S
H2599 C2595 0.930 . S
H2600 C2597 0.929 . S
S2601 N2602 1.613 . S
S2601 N2603 1.610 . S
N2602 S2601 1.613 . S
N2602 C2605 1.350 . S
N2603 S2601 1.610 . S
N2603 C2604 1.343 1_545 S
C2604 C2598 1.454 . S
C2604 N2603 1.343 1_565 S
C2604 C2605 1.414 1_565 S
C2605 C2596 1.429 . S
C2605 N2602 1.350 . S
C2605 C2604 1.414 1_545 S
C2606 C2607 1.369 . S
C2606 C2608 1.419 1_655 S
C2606 H2610 0.930 . S
C2607 C2606 1.369 . S
C2607 C2616 1.442 . S
C2608 C2606 1.419 1_455 S
C2608 C2609 1.363 . S
C2608 H2611 0.929 . S
C2609 C2608 1.363 . S
C2609 C2615 1.428 . S
H2610 C2606 0.930 . S
H2611 C2608 0.929 . S
S2612 N2613 1.613 . S
S2612 N2614 1.610 . S
N2613 S2612 1.613 . S
N2613 C2616 1.353 1_455 S
N2614 S2612 1.610 . S
N2614 C2615 1.351 . S
C2615 C2609 1.428 . S
C2615 N2614 1.351 . S
C2615 C2616 1.415 1_455 S
C2616 C2607 1.442 . S
C2616 N2613 1.353 1_655 S
C2616 C2615 1.415 1_655 S
C2617 C2618 1.369 . S
C2617 C2619 1.419 . S
C2617 H2621 0.930 . S
C2618 C2617 1.369 . S
C2618 C2627 1.429 . S
C2619 C2617 1.419 . S
C2619 C2620 1.363 . S
C2619 H2622 0.929 . S
C2620 C2619 1.363 . S
C2620 C2626 1.428 . S
H2621 C2617 0.930 . S
H2622 C2619 0.929 . S
S2623 N2624 1.613 . S
S2623 N2625 1.610 . S
N2624 S2623 1.613 . S
N2624 C2627 1.350 . S
N2625 S2623 1.610 . S
N2625 C2626 1.351 . S
C2626 C2620 1.428 . S
C2626 N2625 1.351 . S
C2626 C2627 1.434 . S
C2627 C2618 1.429 . S
C2627 N2624 1.350 . S
C2627 C2626 1.434 . S
C1441 C6 1.895 . S
C1443 C290 1.925 . S
C1452 C330 1.930 . S
C1454 C46 1.900 . S
C1463 C250 1.924 . S
C1465 C86 1.898 . S
C1474 C450 1.925 . S
C1476 C126 1.899 . S
C1485 C166 1.901 . S
C1487 C370 1.925 . S
C1496 C206 1.895 . S
C1498 C410 1.927 . S
C1507 C59 1.923 . S
C1509 C255 1.898 . S
C1518 C295 1.899 . S
C1520 C99 1.926 . S
C1529 C19 1.927 . S
C1531 C335 1.896 . S
C1540 C219 1.926 . S
C1542 C375 1.895 . S
C1551 C415 1.900 . S
C1553 C139 1.926 . S
C1562 C455 1.895 . S
C1564 C179 1.925 . S
C1573 C486 1.895 . S
C1575 C770 1.926 . S
C1584 C810 1.924 . S
C1586 C526 1.898 . S
C1595 C730 1.925 . S
C1597 C566 1.900 . S
C1606 C606 1.899 . S
C1608 C930 1.925 . S
C1617 C850 1.923 . S
C1619 C646 1.900 . S
C1628 C686 1.895 . S
C1630 C890 1.927 . S
C1639 C735 1.895 . S
C1641 C539 1.925 . S
C1650 C579 1.927 . S
C1652 C775 1.897 . S
C1661 C815 1.899 . S
C1663 C499 1.926 . S
C1672 C699 1.927 . S
C1674 C855 1.896 . S
C1683 C619 1.924 . S
C1685 C895 1.899 . S
C1694 C935 1.900 . S
C1696 C659 1.924 . S
C1705 C966 1.900 . S
C1707 C1250 1.924 . S
C1716 C1006 1.901 . S
C1718 C1290 1.925 . S
C1727 C1210 1.927 . S
C1729 C1046 1.896 . S
C1738 C1410 1.927 . S
C1740 C1086 1.897 . S
C1749 C1126 1.895 . S
C1751 C1330 1.926 . S
C1760 C1370 1.925 . S
C1762 C1166 1.900 . S
C1771 C1019 1.925 . S
C1773 C1215 1.895 . S
C1782 C1255 1.899 . S
C1784 C1059 1.926 . S
C1793 C979 1.924 . S
C1795 C1295 1.898 . S
C1804 C1335 1.895 . S
C1806 C1179 1.925 . S
C1815 C1375 1.900 . S
C1817 C1099 1.925 . S
C1826 C1415 1.901 . S
C1828 C1139 1.925 . S
C1837 C10 2.439 . S
C1839 C739 2.433 . S
C1848 C50 2.435 . S
C1850 C779 2.435 . S
C1859 C819 2.432 . S
C1861 C90 2.438 . S
C1870 C1339 2.435 . S
C1872 C130 2.435 . S
C1881 C1379 2.432 . S
C1883 C170 2.438 . S
C1892 C1419 2.433 . S
C1894 C210 2.436 . S
C1903 C259 2.436 . S
C1905 C970 2.435 . S
C1914 C1010 2.439 . S
C1916 C299 2.432 . S
C1925 C339 2.432 . S
C1927 C1050 2.437 . S
C1936 C379 2.432 . S
C1938 C610 2.437 . S
C1947 C419 2.439 . S
C1949 C650 2.432 . S
C1958 C459 2.433 . S
C1960 C690 2.437 . S
C1969 C490 2.438 . S
C1971 C1219 2.433 . S
C1980 C1259 2.436 . S
C1982 C530 2.434 . S
C1991 C570 2.437 . S
C1993 C1299 2.434 . S
C2002 C1090 2.432 . S
C2004 C859 2.438 . S
C2013 C899 2.432 . S
C2015 C1130 2.438 . S
C2024 C1170 2.438 . S
C2026 C939 2.433 . S
C2035 C18 2.379 1_556 S
C2037 C658 2.387 . S
C2046 C58 2.381 1_556 S
C2048 C698 2.388 . S
C2057 C618 2.388 . S
C2059 C98 2.383 1_556 S
C2068 C138 2.386 . S
C2070 C1058 2.380 . S
C2079 C978 2.389 . S
C2081 C178 2.381 . S
C2090 C218 2.382 . S
C2092 C1018 2.388 . S
C2101 C1369 2.379 . S
C2103 C249 2.384 1_554 S
C2112 C289 2.381 1_554 S
C2114 C1409 2.382 . S
C2123 C1329 2.388 . S
C2125 C329 2.381 1_554 S
C2134 C369 2.383 . S
C2136 C809 2.387 . S
C2145 C409 2.386 . S
C2147 C729 2.380 . S
C2156 C449 2.387 . S
C2158 C769 2.386 . S
C2167 C1138 2.388 . S
C2169 C498 2.381 . S
C2178 C538 2.387 . S
C2180 C1178 2.385 . S
C2189 C578 2.381 . S
C2191 C1098 2.388 . S
C2200 C1289 2.386 . S
C2202 C849 2.380 . S
C2211 C1209 2.383 . S
C2213 C889 2.387 . S
C2222 C1249 2.381 . S
C2224 C929 2.382 . S
C2233 C129 3.043 . S
C2235 C9 3.046 . S
C2244 C49 3.045 . S
C2246 C169 3.043 . S
C2255 C89 3.044 . S
C2257 C209 3.045 . S
C2266 C378 3.045 . S
C2268 C258 3.044 . S
C2277 C298 3.047 . S
C2279 C418 3.042 . S
C2288 C458 3.047 . S
C2290 C338 3.042 . S
C2299 C609 3.042 . S
C2301 C489 3.044 . S
C2310 C529 3.046 . S
C2312 C649 3.044 . S
C2321 C569 3.041 . S
C2323 C689 3.045 . S
C2332 C738 3.042 . S
C2334 C858 3.046 . S
C2343 C778 3.045 . S
C2345 C898 3.044 . S
C2354 C818 3.046 . S
C2356 C938 3.044 . S
C2365 C969 3.041 . S
C2367 C1089 3.046 . S
C2376 C1129 3.041 . S
C2378 C1009 3.045 . S
C2387 C1169 3.045 . S
C2389 C1049 3.045 . S
C2398 C1218 3.041 . S
C2400 C1338 3.046 . S
C2409 C1378 3.041 . S
C2411 C1258 3.046 . S
C2420 C1298 3.046 . S
C2422 C1418 3.042 . S
C2431 C15 0.469 . S
C2433 C1175 0.494 . S
C2442 C1095 0.485 . S
C2444 C55 0.471 . S
C2453 C95 0.499 . S
C2455 C1135 0.474 . S
C2464 C535 0.473 . S
C2466 C135 0.478 . S
C2475 C175 0.490 . S
C2477 C575 0.489 . S
C2486 C215 0.491 . S
C2488 C495 0.470 . S
C2497 C926 0.496 . S
C2499 C246 0.472 . S
C2508 C286 0.489 . S
C2510 C846 0.470 . S
C2519 C886 0.466 . S
C2521 C326 0.488 . S
C2530 C366 0.483 . S
C2532 C1246 0.494 . S
C2541 C1286 0.499 . S
C2543 C406 0.476 . S
C2552 C1206 0.477 . S
C2554 C446 0.473 . S
C2563 C615 0.499 . S
C2565 C1015 0.476 . S
C2574 C655 0.467 . S
C2576 C1055 0.484 . S
C2585 C695 0.480 . S
C2587 C975 0.473 . S
C2596 C726 0.467 . S
C2598 C1406 0.492 . S
C2607 C766 0.497 . S
C2609 C1326 0.473 . S
C2618 C1366 0.499 . S
C2620 C806 0.475 . S
