# Generated by pormake.
# Topology snp, (6)-cn, num edge types: 1
# Building blocks:
#     Node 0, Type 0, BuildingBlock: MIFKUJ_clean_sbu_0, # of connection points: 6
#     Node 1, Type 0, BuildingBlock: MIFKUJ_clean_sbu_0, # of connection points: 6
#     Node 2, Type 0, BuildingBlock: MIFKUJ_clean_sbu_0, # of connection points: 6
#     Node 3, Type 0, BuildingBlock: MIFKUJ_clean_sbu_0, # of connection points: 6
#     Edge 4, Type (0, 0), BuildingBlock: KIFKEQ_clean_linker_1, # of connection points: 2
#     Edge 5, Type (0, 0), BuildingBlock: KIFKEQ_clean_linker_1, # of connection points: 2
#     Edge 6, Type (0, 0), BuildingBlock: KIFKEQ_clean_linker_1, # of connection points: 2
#     Edge 7, Type (0, 0), BuildingBlock: KIFKEQ_clean_linker_1, # of connection points: 2
#     Edge 8, Type (0, 0), BuildingBlock: KIFKEQ_clean_linker_1, # of connection points: 2
#     Edge 9, Type (0, 0), BuildingBlock: KIFKEQ_clean_linker_1, # of connection points: 2
#     Edge 10, Type (0, 0), BuildingBlock: KIFKEQ_clean_linker_1, # of connection points: 2
#     Edge 11, Type (0, 0), BuildingBlock: KIFKEQ_clean_linker_1, # of connection points: 2
#     Edge 12, Type (0, 0), BuildingBlock: KIFKEQ_clean_linker_1, # of connection points: 2
#     Edge 13, Type (0, 0), BuildingBlock: KIFKEQ_clean_linker_1, # of connection points: 2
#     Edge 14, Type (0, 0), BuildingBlock: KIFKEQ_clean_linker_1, # of connection points: 2
#     Edge 15, Type (0, 0), BuildingBlock: KIFKEQ_clean_linker_1, # of connection points: 2
# Relax obj value: 0.280
# Max RMSD: 0.225
# Mean RMSD: 0.225
data_MOF--net-snp--node1-MIFKUJ_clean_sbu_0--edge1-KIFKEQ_clean_linker_1
_symmetry_space_group_name_H-M    P1
_symmetry_Int_Tables_number       1
_symmetry_cell_setting            triclinic
loop_
_symmetry_equiv_pos_as_xyz
'x, y, z'
_cell_length_a     23.819751
_cell_length_b     23.920737
_cell_length_c     30.470583
_cell_angle_alpha  89.832229
_cell_angle_beta   89.841686
_cell_angle_gamma 89.812537
loop_
_atom_site_label
_atom_site_type_symbol
_atom_site_fract_x
_atom_site_fract_y
_atom_site_fract_z
_atom_type_partial_charge
Zn0 Zn 0.33447 0.95269 0.09198 0.0
Zn1 Zn 0.32956 0.93584 0.94998 0.0
C2 C 0.29452 0.85094 0.13087 0.0
O3 O 0.26802 0.84671 0.09326 0.0
C4 C 0.34266 0.00674 0.8753 0.0
O5 O 0.37543 0.9654 0.86285 0.0
O6 O 0.35391 0.02115 0.12792 0.0
O7 O 0.38461 0.94291 0.03771 0.0
O8 O 0.41086 0.93116 0.96919 0.0
C9 C 0.38724 0.01664 0.16034 0.0
O10 O 0.4131 0.96876 0.16696 0.0
O11 O 0.33199 0.88829 0.13484 0.0
C12 C 0.25363 0.85398 0.91306 0.0
O13 O 0.22119 0.86973 0.94568 0.0
O14 O 0.30366 0.87223 0.91128 0.0
O15 O 0.28632 0.94748 1.00526 0.0
O16 O 0.25412 0.96208 0.07087 0.0
O17 O 0.31968 0.00456 0.91295 0.0
C18 C 0.42379 0.94006 1.00924 0.0
C19 C 0.24482 0.95732 0.03003 0.0
Zn20 Zn 0.16528 0.33904 0.57754 0.0
Zn21 Zn 0.21253 0.33369 0.44318 0.0
C22 C 0.18438 0.26477 0.64596 0.0
O23 O 0.12934 0.26592 0.64307 0.0
C24 C 0.10007 0.33958 0.40299 0.0
O25 O 0.08178 0.35732 0.4412 0.0
O26 O 0.11033 0.3833 0.61471 0.0
O27 O 0.21076 0.37644 0.53036 0.0
O28 O 0.21499 0.41444 0.46571 0.0
C29 C 0.12586 0.4032 0.65138 0.0
O30 O 0.17986 0.40638 0.65966 0.0
O31 O 0.21299 0.29395 0.61912 0.0
C32 C 0.30079 0.25825 0.41579 0.0
O33 O 0.28205 0.22835 0.44891 0.0
O34 O 0.28182 0.30755 0.41045 0.0
O35 O 0.19094 0.28347 0.49465 0.0
O36 O 0.12113 0.28467 0.54179 0.0
O37 O 0.15185 0.32863 0.39777 0.0
C38 C 0.2029 0.41896 0.50627 0.0
C39 C 0.14064 0.27043 0.50449 0.0
Zn40 Zn 0.81171 0.16296 0.08006 0.0
Zn41 Zn 0.83168 0.19581 0.94329 0.0
C42 C 0.86902 0.18372 0.15899 0.0
O43 O 0.86255 0.12926 0.16117 0.0
C44 C 0.79501 0.1195 0.87747 0.0
O45 O 0.75073 0.15229 0.87936 0.0
O46 O 0.7602 0.10916 0.11207 0.0
O47 O 0.78057 0.20921 0.0307 0.0
O48 O 0.75024 0.20179 0.96371 0.0
C49 C 0.73443 0.12392 0.14679 0.0
O50 O 0.72951 0.17755 0.15523 0.0
O51 O 0.85105 0.20989 0.12542 0.0
C52 C 0.90897 0.28072 0.9119 0.0
O53 O 0.94007 0.26095 0.94392 0.0
O54 O 0.85924 0.26234 0.90751 0.0
O55 O 0.87736 0.17999 0.99804 0.0
O56 O 0.86941 0.11607 0.04946 0.0
O57 O 0.83617 0.12909 0.90286 0.0
C58 C 0.74224 0.19412 1.0046 0.0
C59 C 0.88786 0.13081 1.01194 0.0
Zn60 Zn 0.97147 0.83302 0.57457 0.0
Zn61 Zn 0.93895 0.82616 0.43358 0.0
C62 C 0.87451 0.88485 0.61519 0.0
O63 O 0.87296 0.91379 0.5785 0.0
C64 C 0.04936 0.8067 0.3935 0.0
O65 O 0.06443 0.7899 0.43285 0.0
O66 O 0.03926 0.81076 0.61117 0.0
O67 O 0.95207 0.78433 0.52236 0.0
O68 O 0.93381 0.74687 0.45891 0.0
C69 C 0.03169 0.77885 0.64419 0.0
O70 O 0.98224 0.75564 0.64976 0.0
O71 O 0.90876 0.84419 0.61833 0.0
C72 C 0.85644 0.90603 0.40359 0.0
O73 O 0.88433 0.93817 0.43066 0.0
O74 O 0.86904 0.85431 0.4018 0.0
O75 O 0.96333 0.87729 0.48288 0.0
O76 O 0.98646 0.90869 0.54785 0.0
O77 O -0.00046 0.82424 0.38736 0.0
C78 C 0.9479 0.74069 0.49898 0.0
C79 C 0.97891 0.91745 0.50704 0.0
H80 H 0.89118 0.01762 1.01195 0.0
H81 H 0.9796 0.16287 0.96437 0.0
H82 H 0.97455 0.96043 0.99928 0.0
H83 H 0.06338 0.10631 0.95281 0.0
H84 H 0.2155 -0.00281 0.94873 0.0
H85 H 0.12162 0.02703 0.92521 0.0
H86 H 0.05383 0.97068 0.0494 0.0
H87 H 0.14664 0.94118 0.0724 0.0
C88 C 0.92787 0.03688 0.99731 0.0
C89 C 0.92959 0.09482 0.99013 0.0
C90 C 0.97558 0.00422 0.99014 0.0
C91 C 0.02596 0.02925 0.97641 0.0
C92 C 0.02526 0.08576 0.96353 0.0
C93 C 0.97719 0.11834 0.97022 0.0
C94 C 0.18013 0.99016 0.9704 0.0
C95 C 0.18817 0.96763 1.01258 0.0
C96 C 0.12654 0.00719 0.95698 0.0
C97 C 0.08029 0.00113 0.98536 0.0
C98 C 0.08824 0.97516 0.02636 0.0
C99 C 0.14158 0.95888 0.03986 0.0
H100 H 0.95621 0.01437 0.54775 0.0
H101 H 0.02151 0.94711 0.42656 0.0
H102 H 0.98299 0.10754 0.52504 0.0
H103 H 0.04944 0.04174 0.40343 0.0
H104 H 0.18005 0.18394 0.45493 0.0
H105 H 0.12609 0.10127 0.43592 0.0
H106 H 0.97325 0.18638 0.47354 0.0
H107 H 0.02771 0.26814 0.49437 0.0
C108 C 0.97543 0.01992 0.51575 0.0
C109 C 0.9877 0.97382 0.48918 0.0
C110 C 0.99011 0.07346 0.50235 0.0
C111 C 0.01822 0.08212 0.46227 0.0
C112 C 0.02772 0.03623 0.43441 0.0
C113 C 0.01191 0.98232 0.44761 0.0
C114 C 0.13476 0.18586 0.45727 0.0
C115 C 0.10809 0.23143 0.47746 0.0
C116 C 0.10368 0.13851 0.44614 0.0
C117 C 0.04567 0.13681 0.45472 0.0
C118 C 0.01815 0.18611 0.46776 0.0
C119 C 0.04927 0.23283 0.47972 0.0
H120 H 0.64691 0.2003 0.05331 0.0
H121 H 0.75517 0.0851 0.98468 0.0
H122 H 0.57832 0.12584 0.06487 0.0
H123 H 0.68832 0.00959 0.99783 0.0
H124 H 0.51575 0.93751 0.95607 0.0
H125 H 0.6011 0.99068 0.96497 0.0
H126 H 0.54845 0.03862 0.09552 0.0
H127 H 0.4615 0.98648 0.08576 0.0
C128 C 0.65635 0.15854 0.04169 0.0
C129 C 0.70517 0.14818 0.0174 0.0
C130 C 0.61752 0.11568 0.04864 0.0
C131 C 0.6274 0.06172 0.03172 0.0
C132 C 0.67872 0.05084 1.01038 0.0
C133 C 0.71701 0.09386 1.00291 0.0
C134 C 0.52288 0.95818 0.98714 0.0
C135 C 0.48128 0.95871 0.01987 0.0
C136 C 0.57223 0.98854 0.99243 0.0
C137 C 0.58137 0.01987 0.03074 0.0
C138 C 0.54216 0.01597 0.06522 0.0
C139 C 0.49255 0.98563 0.05981 0.0
H140 H 0.22135 0.52994 0.51196 0.0
H141 H 0.09288 0.40454 0.52587 0.0
H142 H 0.1508 0.60346 0.52195 0.0
H143 H 0.0217 0.47811 0.53515 0.0
H144 H 0.93092 0.63674 0.46423 0.0
H145 H 0.98846 0.55345 0.4774 0.0
H146 H 0.07843 0.64091 0.57884 0.0
H147 H 0.02139 0.72373 0.56537 0.0
C148 C 0.17812 0.51834 0.51822 0.0
C149 C 0.16228 0.46209 0.51887 0.0
C150 C 0.13784 0.56016 0.52404 0.0
C151 C 0.08092 0.54627 0.52954 0.0
C152 C 0.06533 0.48976 0.53116 0.0
C153 C 0.10589 0.44788 0.52613 0.0
C154 C 0.96173 0.6375 0.4903 0.0
C155 C 0.97166 0.68683 0.51394 0.0
C156 C -0.0055 0.58983 0.49793 0.0
C157 C 0.0381 0.59111 0.52889 0.0
C158 C 0.04518 0.63898 0.55469 0.0
C159 C 0.01208 0.68625 0.54736 0.0
H160 H 0.32887 0.30126 0.33507 0.0
H161 H 0.34206 0.15161 0.4142 0.0
H162 H 0.36271 0.24946 0.27133 0.0
H163 H 0.37476 0.09983 0.35052 0.0
H164 H 0.45253 0.01901 0.23398 0.0
H165 H 0.44597 0.08403 0.29525 0.0
H166 H 0.31976 0.17871 0.22538 0.0
H167 H 0.32712 0.11442 0.16381 0.0
C168 C 0.34005 0.25763 0.33915 0.0
C169 C 0.33214 0.23046 0.37972 0.0
C170 C 0.35902 0.22783 0.30248 0.0
C171 C 0.37077 0.17029 0.30558 0.0
C172 C 0.36655 0.14416 0.34689 0.0
C173 C 0.3475 0.17387 0.38348 0.0
C174 C 0.4241 0.05428 0.23133 0.0
C175 C 0.38984 0.06107 0.19416 0.0
C176 C 0.42016 0.09142 0.26659 0.0
C177 C 0.38186 0.13625 0.26555 0.0
C178 C 0.35008 0.14496 0.22724 0.0
C179 C 0.35407 0.10785 0.19194 0.0
H180 H 0.01825 0.36347 0.65384 0.0
H181 H 0.14185 0.44758 0.73305 0.0
H182 H 0.9613 0.34684 0.71868 0.0
H183 H 0.08354 0.43322 0.79795 0.0
H184 H 0.0187 0.3118 0.90457 0.0
H185 H 0.06463 0.35529 0.84228 0.0
H186 H 0.90417 0.37457 0.77791 0.0
H187 H 0.85833 0.32859 0.83997 0.0
C188 C 0.03244 0.38013 0.68489 0.0
C189 C 0.08513 0.40613 0.6883 0.0
C190 C -0.00047 0.37072 0.72228 0.0
C191 C 0.01809 0.38768 0.764 0.0
C192 C 0.06851 0.41809 0.76667 0.0
C193 C 0.10178 0.42687 0.72934 0.0
C194 C 0.99295 0.32606 0.8775 0.0
C195 C 0.93484 0.31603 0.87715 0.0
C196 C 0.01936 0.35155 0.84168 0.0
C197 C 0.98837 0.36831 0.80459 0.0
C198 C 0.92967 0.36129 0.80542 0.0
C199 C 0.90325 0.33527 0.84119 0.0
H200 H 0.82716 0.01588 0.39629 0.0
H201 H 0.80179 0.85544 0.33487 0.0
H202 H 0.78126 0.06179 0.33516 0.0
H203 H 0.75372 0.90151 0.27386 0.0
H204 H 0.76857 0.01444 0.14849 0.0
H205 H 0.78299 0.95688 0.2132 0.0
H206 H 0.70069 0.08198 0.29292 0.0
H207 H 0.68825 0.14072 0.22817 0.0
C208 C 0.8105 0.99015 0.37022 0.0
C209 C 0.81891 0.93195 0.37032 0.0
C210 C 0.7836 0.01658 0.33511 0.0
C211 C 0.76394 0.98557 0.29913 0.0
C212 C 0.76913 0.9269 0.30057 0.0
C213 C 0.79636 0.90039 0.33574 0.0
C214 C 0.7522 0.02918 0.17959 0.0
C215 C 0.72828 0.08284 0.18318 0.0
C216 C 0.76033 -0.00411 0.21689 0.0
C217 C 0.74418 0.01515 0.25869 0.0
C218 C 0.71516 0.06641 0.26151 0.0
C219 C 0.70749 0.09994 0.22425 0.0
H220 H 0.03005 0.71104 0.71645 0.0
H221 H 0.12894 0.83886 0.65265 0.0
H222 H 0.09059 0.71596 0.78063 0.0
H223 H 0.18868 0.84473 0.71724 0.0
H224 H 0.30301 0.83251 0.83332 0.0
H225 H 0.25661 0.80212 0.76618 0.0
H226 H 0.10072 0.78449 0.83764 0.0
H227 H 0.14714 0.81363 0.90463 0.0
C228 C 0.06518 0.73968 0.71585 0.0
C229 C 0.0742 0.77506 0.67959 0.0
C230 C 0.09972 0.74271 0.7528 0.0
C231 C 0.14405 0.78133 0.75448 0.0
C232 C 0.15522 0.81419 0.71707 0.0
C233 C 0.12076 0.81101 0.68001 0.0
C234 C 0.25913 0.82091 0.83491 0.0
C235 C 0.2287 0.82594 0.87436 0.0
C236 C 0.23243 0.80392 0.7963 0.0
C237 C 0.17476 0.79138 0.7963 0.0
C238 C 0.14527 0.79325 0.83636 0.0
C239 C 0.17189 0.81028 0.87487 0.0
H240 H 0.7154 0.0912 0.81721 0.0
H241 H 0.88265 0.04815 0.86069 0.0
H242 H 0.72442 0.02542 0.75667 0.0
H243 H 0.89194 0.98302 0.79967 0.0
H244 H 0.88557 0.84693 0.69969 0.0
H245 H 0.85859 0.89591 0.76663 0.0
H246 H 0.77906 0.02488 0.6889 0.0
H247 H 0.80523 0.97571 0.62209 0.0
C248 C 0.75395 0.06738 0.8141 0.0
C249 C 0.79858 0.07541 0.84352 0.0
C250 C 0.75913 0.0298 0.77928 0.0
C251 C 0.80899 -0.00075 0.77312 0.0
C252 C 0.8527 0.00546 0.8037 0.0
C253 C 0.84755 0.04312 0.83853 0.0
C254 C 0.86116 0.88506 0.69687 0.0
C255 C 0.8481 0.90773 0.65545 0.0
C256 C 0.84613 0.91335 0.73527 0.0
C257 C 0.81742 0.96471 0.73311 0.0
C258 C 0.80092 0.98528 0.6918 0.0
C259 C 0.8161 0.95712 0.65341 0.0
H260 H 0.3258 0.86684 0.21649 0.0
H261 H 0.20485 0.78019 0.13622 0.0
H262 H 0.26953 0.84681 0.28152 0.0
H263 H 0.14912 0.75959 0.20141 0.0
H264 H 0.02719 0.82686 0.30717 0.0
H265 H 0.09208 0.82447 0.24559 0.0
H266 H 0.22702 0.77788 0.33288 0.0
H267 H 0.16174 0.78063 0.39509 0.0
C268 C 0.28812 0.84207 0.21281 0.0
C269 C 0.26932 0.82604 0.17095 0.0
C270 C 0.25587 0.83053 0.25019 0.0
C271 C 0.20424 0.80269 0.24647 0.0
C272 C 0.18808 0.78228 0.20518 0.0
C273 C 0.2203 0.79373 0.16784 0.0
C274 C 0.0706 0.81586 0.31337 0.0
C275 C 0.08927 0.80415 0.35614 0.0
C276 C 0.10775 0.81392 0.27792 0.0
C277 C 0.16465 0.80047 0.28425 0.0
C278 C 0.18344 0.78846 0.32698 0.0
C279 C 0.14604 0.79 0.36256 0.0
H280 H 0.29698 0.24562 0.65847 0.0
H281 H 0.13322 0.20757 0.71202 0.0
H282 H 0.34062 0.18875 0.71606 0.0
H283 H 0.17656 0.15068 0.76877 0.0
H284 H 0.26894 0.0929 0.88835 0.0
H285 H 0.23526 0.16013 0.83423 0.0
H286 H 0.34617 0.08846 0.73697 0.0
H287 H 0.38064 0.02162 0.79128 0.0
C288 C 0.27035 0.22522 0.68249 0.0
C289 C 0.21166 0.23098 0.68062 0.0
C290 C 0.29531 0.19257 0.71534 0.0
C291 C 0.26204 0.1655 0.74708 0.0
C292 C 0.20343 0.17173 0.74527 0.0
C293 C 0.17856 0.204 0.71245 0.0
C294 C 0.28677 0.09192 0.85561 0.0
C295 C 0.32713 0.05156 0.84402 0.0
C296 C 0.26721 0.13026 0.82454 0.0
C297 C 0.2876 0.12916 0.78121 0.0
C298 C 0.32988 0.09056 0.77015 0.0
C299 C 0.3494 0.05208 0.80123 0.0
H300 H 0.91813 0.28703 0.15731 0.0
H301 H 0.88193 0.14736 0.24295 0.0
H302 H 0.96894 0.33278 0.21706 0.0
H303 H 0.93202 0.1933 0.30248 0.0
H304 H 0.98864 0.31386 0.40965 0.0
H305 H 0.92672 0.28232 0.35064 0.0
H306 H 0.06096 0.30502 0.25685 0.0
H307 H 0.12294 0.3357 0.31565 0.0
C308 C 0.9205 0.26646 0.18897 0.0
C309 C 0.89657 0.21346 0.1954 0.0
C310 C 0.94959 0.29255 0.22304 0.0
C311 C 0.95423 0.26654 0.2643 0.0
C312 C 0.92858 0.21448 0.27112 0.0
C313 C 0.90038 0.18802 0.23692 0.0
C314 C 0.00454 0.31296 0.37631 0.0
C315 C 0.06058 0.327 0.36718 0.0
C316 C 0.96926 0.29469 0.34267 0.0
C317 C 0.98917 0.2913 0.29928 0.0
C318 C 0.04444 0.30775 0.28994 0.0
C319 C 0.07994 0.32497 0.32361 0.0
loop_
_geom_bond_atom_site_label_1
_geom_bond_atom_site_label_2
_geom_bond_distance
_geom_bond_site_symmetry_2
_ccdc_geom_bond_type
Zn0 O6 1.969 . S
Zn0 O7 1.965 . S
Zn0 O11 2.024 1_545 S
Zn0 O16 1.969 . S
Zn1 O8 1.969 . S
Zn1 O14 1.969 . S
Zn1 O15 1.965 . S
Zn1 O17 2.024 1_565 S
C2 O3 1.229 . S
C2 O11 1.058 . S
O3 C2 1.229 . S
C4 O5 1.229 . S
C4 O17 1.058 . S
O5 C4 1.229 . S
O6 Zn0 1.969 . S
O6 C9 1.267 . S
O7 Zn0 1.965 . S
O7 C18 1.243 1_554 S
O8 Zn1 1.969 . S
O8 C18 1.284 1_565 S
C9 O6 1.267 . S
C9 O10 1.228 . S
O10 C9 1.228 . S
O11 Zn0 2.024 1_565 S
O11 C2 1.058 . S
C12 O13 1.228 . S
C12 O14 1.267 . S
O13 C12 1.228 . S
O14 Zn1 1.969 . S
O14 C12 1.267 . S
O15 Zn1 1.965 . S
O15 C19 1.253 1_566 S
O16 Zn0 1.969 . S
O16 C19 1.261 . S
O17 Zn1 2.024 1_545 S
O17 C4 1.058 . S
C18 O7 1.243 1_556 S
C18 O8 1.284 1_545 S
C19 O15 1.253 1_544 S
C19 O16 1.261 . S
Zn20 O26 1.969 . S
Zn20 O27 1.965 . S
Zn20 O31 2.024 . S
Zn20 O36 1.969 . S
Zn21 O28 1.969 . S
Zn21 O34 1.969 . S
Zn21 O35 1.965 . S
Zn21 O37 2.024 . S
C22 O23 1.229 . S
C22 O31 1.058 . S
O23 C22 1.229 . S
C24 O25 1.229 . S
C24 O37 1.058 . S
O25 C24 1.229 . S
O26 Zn20 1.969 . S
O26 C29 1.267 . S
O27 Zn20 1.965 . S
O27 C38 1.260 . S
O28 Zn21 1.969 . S
O28 C38 1.258 . S
C29 O26 1.267 . S
C29 O30 1.228 . S
O30 C29 1.228 . S
O31 Zn20 2.024 . S
O31 C22 1.058 . S
C32 O33 1.228 . S
C32 O34 1.267 . S
O33 C32 1.228 . S
O34 Zn21 1.969 . S
O34 C32 1.267 . S
O35 Zn21 1.965 . S
O35 C39 1.260 . S
O36 Zn20 1.969 . S
O36 C39 1.258 . S
O37 Zn21 2.024 . S
O37 C24 1.058 . S
C38 O27 1.260 . S
C38 O28 1.258 . S
C39 O35 1.260 . S
C39 O36 1.258 . S
Zn40 O46 1.969 . S
Zn40 O47 1.965 . S
Zn40 O51 2.024 . S
Zn40 O56 1.969 . S
Zn41 O48 1.969 . S
Zn41 O54 1.969 . S
Zn41 O55 1.965 . S
Zn41 O57 2.024 . S
C42 O43 1.229 . S
C42 O51 1.058 . S
O43 C42 1.229 . S
C44 O45 1.229 . S
C44 O57 1.058 . S
O45 C44 1.229 . S
O46 Zn40 1.969 . S
O46 C49 1.267 . S
O47 Zn40 1.965 . S
O47 C58 1.244 1_554 S
O48 Zn41 1.969 . S
O48 C58 1.283 . S
C49 O46 1.267 . S
C49 O50 1.228 . S
O50 C49 1.228 . S
O51 Zn40 2.024 . S
O51 C42 1.058 . S
C52 O53 1.228 . S
C52 O54 1.267 . S
O53 C52 1.228 . S
O54 Zn41 1.969 . S
O54 C52 1.267 . S
O55 Zn41 1.965 . S
O55 C59 1.260 1_556 S
O56 Zn40 1.969 . S
O56 C59 1.258 . S
O57 Zn41 2.024 . S
O57 C44 1.058 . S
C58 O47 1.244 1_556 S
C58 O48 1.283 . S
C59 O55 1.260 1_554 S
C59 O56 1.258 . S
Zn60 O66 1.969 . S
Zn60 O67 1.965 . S
Zn60 O71 2.024 1_455 S
Zn60 O76 1.969 . S
Zn61 O68 1.969 . S
Zn61 O74 1.969 . S
Zn61 O75 1.965 . S
Zn61 O77 2.024 1_655 S
C62 O63 1.229 . S
C62 O71 1.058 . S
O63 C62 1.229 . S
C64 O65 1.229 . S
C64 O77 1.058 . S
O65 C64 1.229 . S
O66 Zn60 1.969 . S
O66 C69 1.267 . S
O67 Zn60 1.965 . S
O67 C78 1.260 . S
O68 Zn61 1.969 . S
O68 C78 1.258 1_655 S
C69 O66 1.267 . S
C69 O70 1.228 . S
O70 C69 1.228 . S
O71 Zn60 2.024 1_655 S
O71 C62 1.058 . S
C72 O73 1.228 . S
C72 O74 1.267 . S
O73 C72 1.228 . S
O74 Zn61 1.969 . S
O74 C72 1.267 . S
O75 Zn61 1.965 . S
O75 C79 1.254 1_655 S
O76 Zn60 1.969 . S
O76 C79 1.261 . S
O77 Zn61 2.024 1_455 S
O77 C64 1.058 . S
C78 O67 1.260 . S
C78 O68 1.258 1_455 S
C79 O75 1.254 1_455 S
C79 O76 1.261 . S
H80 C88 0.950 . S
H81 C93 0.950 . S
H82 C90 0.950 . S
H83 C92 0.950 . S
H84 C94 0.950 . S
H85 C96 0.950 . S
H86 C98 0.950 . S
H87 C99 0.950 . S
C88 H80 0.950 . S
C88 C89 1.386 1_554 S
C88 C90 1.391 1_655 S
C89 C88 1.386 1_556 S
C89 C93 1.393 . S
C90 H82 0.950 . S
C90 C88 1.391 1_455 S
C90 C91 1.400 1_554 S
C91 C90 1.400 1_556 S
C91 C92 1.398 . S
C91 C97 1.491 . S
C92 H83 0.950 . S
C92 C91 1.398 . S
C92 C93 1.391 1_455 S
C93 H81 0.950 . S
C93 C89 1.393 . S
C93 C92 1.391 1_655 S
C94 H84 0.950 . S
C94 C95 1.381 1_545 S
C94 C96 1.391 . S
C95 C94 1.381 1_565 S
C95 C99 1.393 1_556 S
C96 H85 0.950 . S
C96 C94 1.391 . S
C96 C97 1.400 . S
C97 C91 1.491 . S
C97 C96 1.400 . S
C97 C98 1.398 1_556 S
C98 H86 0.950 . S
C98 C97 1.398 1_554 S
C98 C99 1.391 1_545 S
C99 H87 0.950 . S
C99 C95 1.393 1_554 S
C99 C98 1.391 1_565 S
H100 C108 0.950 . S
H101 C113 0.950 . S
H102 C110 0.950 1_655 S
H103 C112 0.951 . S
H104 C114 0.950 . S
H105 C116 0.950 . S
H106 C118 0.950 . S
H107 C119 0.950 . S
C108 H100 0.950 . S
C108 C109 1.394 . S
C108 C110 1.391 1_665 S
C109 C108 1.394 . S
C109 C113 1.374 1_655 S
C110 H102 0.950 1_455 S
C110 C108 1.391 1_445 S
C110 C111 1.400 . S
C111 C110 1.400 . S
C111 C112 1.398 1_545 S
C111 C117 1.491 . S
C112 H103 0.951 . S
C112 C111 1.398 1_565 S
C112 C113 1.391 . S
C113 H101 0.950 . S
C113 C109 1.374 1_455 S
C113 C112 1.391 . S
C114 H104 0.950 . S
C114 C115 1.386 . S
C114 C116 1.391 . S
C115 C114 1.386 . S
C115 C119 1.393 . S
C116 H105 0.950 . S
C116 C114 1.391 . S
C116 C117 1.400 . S
C117 C111 1.491 . S
C117 C116 1.400 . S
C117 C118 1.398 . S
C118 H106 0.950 . S
C118 C117 1.398 . S
C118 C119 1.391 . S
C119 H107 0.950 . S
C119 C115 1.393 . S
C119 C118 1.391 . S
H120 C128 0.950 . S
H121 C133 0.950 . S
H122 C130 0.950 . S
H123 C132 0.950 . S
H124 C134 0.950 . S
H125 C136 0.950 1_565 S
H126 C138 0.950 . S
H127 C139 0.950 . S
C128 H120 0.950 . S
C128 C129 1.386 1_556 S
C128 C130 1.391 . S
C129 C128 1.386 1_554 S
C129 C133 1.393 . S
C130 H122 0.950 . S
C130 C128 1.391 . S
C130 C131 1.400 1_556 S
C131 C130 1.400 1_554 S
C131 C132 1.398 . S
C131 C137 1.491 . S
C132 H123 0.950 . S
C132 C131 1.398 . S
C132 C133 1.391 . S
C133 H121 0.950 . S
C133 C129 1.393 . S
C133 C132 1.391 . S
C134 H124 0.950 . S
C134 C135 1.386 1_565 S
C134 C136 1.391 1_565 S
C135 C134 1.386 1_545 S
C135 C139 1.393 1_554 S
C136 H125 0.950 1_545 S
C136 C134 1.391 1_545 S
C136 C137 1.400 . S
C137 C131 1.491 . S
C137 C136 1.400 . S
C137 C138 1.398 1_554 S
C138 H126 0.950 . S
C138 C137 1.398 1_556 S
C138 C139 1.391 . S
C139 H127 0.950 . S
C139 C135 1.393 1_556 S
C139 C138 1.391 . S
H140 C148 0.950 . S
H141 C153 0.950 . S
H142 C150 0.950 . S
H143 C152 0.950 . S
H144 C154 0.950 . S
H145 C156 0.953 . S
H146 C158 0.950 . S
H147 C159 0.950 . S
C148 H140 0.950 . S
C148 C149 1.386 . S
C148 C150 1.391 . S
C149 C148 1.386 . S
C149 C153 1.393 . S
C150 H142 0.950 . S
C150 C148 1.391 . S
C150 C151 1.400 . S
C151 C150 1.400 . S
C151 C152 1.398 . S
C151 C157 1.491 . S
C152 H143 0.950 . S
C152 C151 1.398 . S
C152 C153 1.391 . S
C153 H141 0.950 . S
C153 C149 1.393 . S
C153 C152 1.391 . S
C154 H144 0.950 . S
C154 C155 1.386 1_655 S
C154 C156 1.394 . S
C155 C154 1.386 1_455 S
C155 C159 1.393 . S
C156 H145 0.953 . S
C156 C154 1.394 . S
C156 C157 1.394 1_655 S
C157 C151 1.491 . S
C157 C156 1.394 1_455 S
C157 C158 1.398 . S
C158 H146 0.950 . S
C158 C157 1.398 . S
C158 C159 1.391 . S
C159 H147 0.950 . S
C159 C155 1.393 . S
C159 C158 1.391 . S
H160 C168 0.950 . S
H161 C173 0.950 . S
H162 C170 0.950 . S
H163 C172 0.950 . S
H164 C174 0.950 . S
H165 C176 0.950 . S
H166 C178 0.950 . S
H167 C179 0.950 . S
C168 H160 0.950 . S
C168 C169 1.386 . S
C168 C170 1.391 . S
C169 C168 1.386 . S
C169 C173 1.393 . S
C170 H162 0.950 . S
C170 C168 1.391 . S
C170 C171 1.400 . S
C171 C170 1.400 . S
C171 C172 1.398 . S
C171 C177 1.491 . S
C172 H163 0.950 . S
C172 C171 1.398 . S
C172 C173 1.391 . S
C173 H161 0.950 . S
C173 C169 1.393 . S
C173 C172 1.391 . S
C174 H164 0.950 . S
C174 C175 1.386 . S
C174 C176 1.391 . S
C175 C174 1.386 . S
C175 C179 1.393 . S
C176 H165 0.950 . S
C176 C174 1.391 . S
C176 C177 1.400 . S
C177 C171 1.491 . S
C177 C176 1.400 . S
C177 C178 1.398 . S
C178 H166 0.950 . S
C178 C177 1.398 . S
C178 C179 1.391 . S
C179 H167 0.950 . S
C179 C175 1.393 . S
C179 C178 1.391 . S
H180 C188 0.950 . S
H181 C193 0.950 . S
H182 C190 0.950 . S
H183 C192 0.950 . S
H184 C194 0.950 . S
H185 C196 0.950 . S
H186 C198 0.950 . S
H187 C199 0.950 . S
C188 H180 0.950 . S
C188 C189 1.386 1_655 S
C188 C190 1.391 . S
C189 C188 1.386 1_455 S
C189 C193 1.393 . S
C190 H182 0.950 . S
C190 C188 1.391 . S
C190 C191 1.400 . S
C191 C190 1.400 . S
C191 C192 1.398 1_655 S
C191 C197 1.491 . S
C192 H183 0.950 . S
C192 C191 1.398 1_455 S
C192 C193 1.391 . S
C193 H181 0.950 . S
C193 C189 1.393 . S
C193 C192 1.391 . S
C194 H184 0.950 . S
C194 C195 1.386 . S
C194 C196 1.391 . S
C195 C194 1.386 . S
C195 C199 1.393 . S
C196 H185 0.950 . S
C196 C194 1.391 . S
C196 C197 1.400 . S
C197 C191 1.491 . S
C197 C196 1.400 . S
C197 C198 1.398 . S
C198 H186 0.950 . S
C198 C197 1.398 . S
C198 C199 1.391 . S
C199 H187 0.950 . S
C199 C195 1.393 . S
C199 C198 1.391 . S
H200 C208 0.950 . S
H201 C213 0.950 . S
H202 C210 0.950 . S
H203 C212 0.950 . S
H204 C214 0.950 . S
H205 C216 0.950 . S
H206 C218 0.950 . S
H207 C219 0.950 . S
C208 H200 0.950 . S
C208 C209 1.386 . S
C208 C210 1.391 . S
C209 C208 1.386 . S
C209 C213 1.393 . S
C210 H202 0.950 . S
C210 C208 1.391 . S
C210 C211 1.400 . S
C211 C210 1.400 . S
C211 C212 1.398 . S
C211 C217 1.491 . S
C212 H203 0.950 . S
C212 C211 1.398 . S
C212 C213 1.391 . S
C213 H201 0.950 . S
C213 C209 1.393 . S
C213 C212 1.391 . S
C214 H204 0.950 . S
C214 C215 1.386 1_565 S
C214 C216 1.391 . S
C215 C214 1.386 1_545 S
C215 C219 1.393 . S
C216 H205 0.950 . S
C216 C214 1.391 . S
C216 C217 1.400 . S
C217 C211 1.491 . S
C217 C216 1.400 . S
C217 C218 1.398 . S
C218 H206 0.950 . S
C218 C217 1.398 . S
C218 C219 1.391 1_565 S
C219 H207 0.950 . S
C219 C215 1.393 . S
C219 C218 1.391 1_545 S
H220 C228 0.950 . S
H221 C233 0.950 . S
H222 C230 0.950 . S
H223 C232 0.950 . S
H224 C234 0.950 . S
H225 C236 0.950 . S
H226 C238 0.950 . S
H227 C239 0.950 . S
C228 H220 0.950 . S
C228 C229 1.386 . S
C228 C230 1.391 . S
C229 C228 1.386 . S
C229 C233 1.393 . S
C230 H222 0.950 . S
C230 C228 1.391 . S
C230 C231 1.400 . S
C231 C230 1.400 . S
C231 C232 1.398 . S
C231 C237 1.491 . S
C232 H223 0.950 . S
C232 C231 1.398 . S
C232 C233 1.391 . S
C233 H221 0.950 . S
C233 C229 1.393 . S
C233 C232 1.391 . S
C234 H224 0.950 . S
C234 C235 1.386 . S
C234 C236 1.391 . S
C235 C234 1.386 . S
C235 C239 1.393 . S
C236 H225 0.950 . S
C236 C234 1.391 . S
C236 C237 1.400 . S
C237 C231 1.491 . S
C237 C236 1.400 . S
C237 C238 1.398 . S
C238 H226 0.950 . S
C238 C237 1.398 . S
C238 C239 1.391 . S
C239 H227 0.950 . S
C239 C235 1.393 . S
C239 C238 1.391 . S
H240 C248 0.950 . S
H241 C253 0.950 . S
H242 C250 0.950 . S
H243 C252 0.950 . S
H244 C254 0.950 . S
H245 C256 0.950 . S
H246 C258 0.950 . S
H247 C259 0.950 . S
C248 H240 0.950 . S
C248 C249 1.386 . S
C248 C250 1.391 1_545 S
C249 C248 1.386 . S
C249 C253 1.393 . S
C250 H242 0.950 . S
C250 C248 1.391 1_565 S
C250 C251 1.400 . S
C251 C250 1.400 . S
C251 C252 1.398 . S
C251 C257 1.491 . S
C252 H243 0.950 . S
C252 C251 1.398 . S
C252 C253 1.391 1_565 S
C253 H241 0.950 . S
C253 C249 1.393 . S
C253 C252 1.391 1_545 S
C254 H244 0.950 . S
C254 C255 1.386 . S
C254 C256 1.391 . S
C255 C254 1.386 . S
C255 C259 1.393 . S
C256 H245 0.950 . S
C256 C254 1.391 . S
C256 C257 1.400 . S
C257 C251 1.491 . S
C257 C256 1.400 . S
C257 C258 1.398 . S
C258 H246 0.950 . S
C258 C257 1.398 . S
C258 C259 1.391 . S
C259 H247 0.950 . S
C259 C255 1.393 . S
C259 C258 1.391 . S
H260 C268 0.950 . S
H261 C273 0.950 . S
H262 C270 0.950 . S
H263 C272 0.950 . S
H264 C274 0.950 . S
H265 C276 0.950 . S
H266 C278 0.950 . S
H267 C279 0.950 . S
C268 H260 0.950 . S
C268 C269 1.386 . S
C268 C270 1.391 . S
C269 C268 1.386 . S
C269 C273 1.393 . S
C270 H262 0.950 . S
C270 C268 1.391 . S
C270 C271 1.400 . S
C271 C270 1.400 . S
C271 C272 1.398 . S
C271 C277 1.491 . S
C272 H263 0.950 . S
C272 C271 1.398 . S
C272 C273 1.391 . S
C273 H261 0.950 . S
C273 C269 1.393 . S
C273 C272 1.391 . S
C274 H264 0.950 . S
C274 C275 1.386 . S
C274 C276 1.391 . S
C275 C274 1.386 . S
C275 C279 1.393 . S
C276 H265 0.950 . S
C276 C274 1.391 . S
C276 C277 1.400 . S
C277 C271 1.491 . S
C277 C276 1.400 . S
C277 C278 1.398 . S
C278 H266 0.950 . S
C278 C277 1.398 . S
C278 C279 1.391 . S
C279 H267 0.950 . S
C279 C275 1.393 . S
C279 C278 1.391 . S
H280 C288 0.950 . S
H281 C293 0.950 . S
H282 C290 0.950 . S
H283 C292 0.950 . S
H284 C294 0.950 . S
H285 C296 0.950 . S
H286 C298 0.950 . S
H287 C299 0.950 . S
C288 H280 0.950 . S
C288 C289 1.386 . S
C288 C290 1.391 . S
C289 C288 1.386 . S
C289 C293 1.393 . S
C290 H282 0.950 . S
C290 C288 1.391 . S
C290 C291 1.400 . S
C291 C290 1.400 . S
C291 C292 1.398 . S
C291 C297 1.491 . S
C292 H283 0.950 . S
C292 C291 1.398 . S
C292 C293 1.391 . S
C293 H281 0.950 . S
C293 C289 1.393 . S
C293 C292 1.391 . S
C294 H284 0.950 . S
C294 C295 1.386 . S
C294 C296 1.391 . S
C295 C294 1.386 . S
C295 C299 1.393 . S
C296 H285 0.950 . S
C296 C294 1.391 . S
C296 C297 1.400 . S
C297 C291 1.491 . S
C297 C296 1.400 . S
C297 C298 1.398 . S
C298 H286 0.950 . S
C298 C297 1.398 . S
C298 C299 1.391 . S
C299 H287 0.950 . S
C299 C295 1.393 . S
C299 C298 1.391 . S
H300 C308 0.950 . S
H301 C313 0.950 . S
H302 C310 0.950 1_455 S
H303 C312 0.950 . S
H304 C314 0.950 . S
H305 C316 0.950 . S
H306 C318 0.950 . S
H307 C319 0.950 . S
C308 H300 0.950 . S
C308 C309 1.386 . S
C308 C310 1.391 . S
C309 C308 1.386 . S
C309 C313 1.393 . S
C310 H302 0.950 1_655 S
C310 C308 1.391 . S
C310 C311 1.400 . S
C311 C310 1.400 . S
C311 C312 1.398 . S
C311 C317 1.491 . S
C312 H303 0.950 . S
C312 C311 1.398 . S
C312 C313 1.391 . S
C313 H301 0.950 . S
C313 C309 1.393 . S
C313 C312 1.391 . S
C314 H304 0.950 . S
C314 C315 1.386 1_655 S
C314 C316 1.391 . S
C315 C314 1.386 1_455 S
C315 C319 1.393 . S
C316 H305 0.950 . S
C316 C314 1.391 . S
C316 C317 1.400 . S
C317 C311 1.491 . S
C317 C316 1.400 . S
C317 C318 1.398 1_655 S
C318 H306 0.950 . S
C318 C317 1.398 1_455 S
C318 C319 1.391 . S
C319 H307 0.950 . S
C319 C315 1.393 . S
C319 C318 1.391 . S
C89 C59 0.357 1_556 S
C95 C19 0.323 1_566 S
C109 C79 0.315 1_655 S
C115 C39 0.371 . S
C129 C58 1.148 1_554 S
C135 C18 1.165 1_554 S
C149 C38 1.154 . S
C155 C78 1.175 . S
C169 C32 1.176 . S
C175 C9 1.201 . S
C189 C29 1.202 . S
C195 C52 1.181 . S
C209 C72 1.146 . S
C215 C49 1.235 . S
C229 C69 1.234 . S
C235 C12 1.159 . S
C249 C44 1.627 . S
C255 C62 1.529 . S
C269 C2 1.500 . S
C275 C64 1.646 . S
C289 C22 1.542 . S
C295 C4 1.637 . S
C309 C42 1.542 . S
C315 C24 1.638 . S
