# Generated by pormake.
# Topology pcl, (4)-cn, num edge types: 1
# Building blocks:
#     Node 0, Type 0, BuildingBlock: UXUYUI_clean_sbu_0, # of connection points: 4
#     Node 1, Type 0, BuildingBlock: UXUYUI_clean_sbu_0, # of connection points: 4
#     Node 2, Type 0, BuildingBlock: UXUYUI_clean_sbu_0, # of connection points: 4
#     Node 3, Type 0, BuildingBlock: UXUYUI_clean_sbu_0, # of connection points: 4
#     Node 4, Type 0, BuildingBlock: UXUYUI_clean_sbu_0, # of connection points: 4
#     Node 5, Type 0, BuildingBlock: UXUYUI_clean_sbu_0, # of connection points: 4
#     Node 6, Type 0, BuildingBlock: UXUYUI_clean_sbu_0, # of connection points: 4
#     Node 7, Type 0, BuildingBlock: UXUYUI_clean_sbu_0, # of connection points: 4
#     Node 8, Type 0, BuildingBlock: UXUYUI_clean_sbu_0, # of connection points: 4
#     Node 9, Type 0, BuildingBlock: UXUYUI_clean_sbu_0, # of connection points: 4
#     Node 10, Type 0, BuildingBlock: UXUYUI_clean_sbu_0, # of connection points: 4
#     Node 11, Type 0, BuildingBlock: UXUYUI_clean_sbu_0, # of connection points: 4
#     Node 12, Type 0, BuildingBlock: UXUYUI_clean_sbu_0, # of connection points: 4
#     Node 13, Type 0, BuildingBlock: UXUYUI_clean_sbu_0, # of connection points: 4
#     Node 14, Type 0, BuildingBlock: UXUYUI_clean_sbu_0, # of connection points: 4
#     Node 15, Type 0, BuildingBlock: UXUYUI_clean_sbu_0, # of connection points: 4
#     Edge 16, Type (0, 0), BuildingBlock: UVAHIK_clean_linker_0, # of connection points: 2
#     Edge 17, Type (0, 0), BuildingBlock: UVAHIK_clean_linker_0, # of connection points: 2
#     Edge 18, Type (0, 0), BuildingBlock: UVAHIK_clean_linker_0, # of connection points: 2
#     Edge 19, Type (0, 0), BuildingBlock: UVAHIK_clean_linker_0, # of connection points: 2
#     Edge 20, Type (0, 0), BuildingBlock: UVAHIK_clean_linker_0, # of connection points: 2
#     Edge 21, Type (0, 0), BuildingBlock: UVAHIK_clean_linker_0, # of connection points: 2
#     Edge 22, Type (0, 0), BuildingBlock: UVAHIK_clean_linker_0, # of connection points: 2
#     Edge 23, Type (0, 0), BuildingBlock: UVAHIK_clean_linker_0, # of connection points: 2
#     Edge 24, Type (0, 0), BuildingBlock: UVAHIK_clean_linker_0, # of connection points: 2
#     Edge 25, Type (0, 0), BuildingBlock: UVAHIK_clean_linker_0, # of connection points: 2
#     Edge 26, Type (0, 0), BuildingBlock: UVAHIK_clean_linker_0, # of connection points: 2
#     Edge 27, Type (0, 0), BuildingBlock: UVAHIK_clean_linker_0, # of connection points: 2
#     Edge 28, Type (0, 0), BuildingBlock: UVAHIK_clean_linker_0, # of connection points: 2
#     Edge 29, Type (0, 0), BuildingBlock: UVAHIK_clean_linker_0, # of connection points: 2
#     Edge 30, Type (0, 0), BuildingBlock: UVAHIK_clean_linker_0, # of connection points: 2
#     Edge 31, Type (0, 0), BuildingBlock: UVAHIK_clean_linker_0, # of connection points: 2
#     Edge 32, Type (0, 0), BuildingBlock: UVAHIK_clean_linker_0, # of connection points: 2
#     Edge 33, Type (0, 0), BuildingBlock: UVAHIK_clean_linker_0, # of connection points: 2
#     Edge 34, Type (0, 0), BuildingBlock: UVAHIK_clean_linker_0, # of connection points: 2
#     Edge 35, Type (0, 0), BuildingBlock: UVAHIK_clean_linker_0, # of connection points: 2
#     Edge 36, Type (0, 0), BuildingBlock: UVAHIK_clean_linker_0, # of connection points: 2
#     Edge 37, Type (0, 0), BuildingBlock: UVAHIK_clean_linker_0, # of connection points: 2
#     Edge 38, Type (0, 0), BuildingBlock: UVAHIK_clean_linker_0, # of connection points: 2
#     Edge 39, Type (0, 0), BuildingBlock: UVAHIK_clean_linker_0, # of connection points: 2
#     Edge 40, Type (0, 0), BuildingBlock: UVAHIK_clean_linker_0, # of connection points: 2
#     Edge 41, Type (0, 0), BuildingBlock: UVAHIK_clean_linker_0, # of connection points: 2
#     Edge 42, Type (0, 0), BuildingBlock: UVAHIK_clean_linker_0, # of connection points: 2
#     Edge 43, Type (0, 0), BuildingBlock: UVAHIK_clean_linker_0, # of connection points: 2
#     Edge 44, Type (0, 0), BuildingBlock: UVAHIK_clean_linker_0, # of connection points: 2
#     Edge 45, Type (0, 0), BuildingBlock: UVAHIK_clean_linker_0, # of connection points: 2
#     Edge 46, Type (0, 0), BuildingBlock: UVAHIK_clean_linker_0, # of connection points: 2
#     Edge 47, Type (0, 0), BuildingBlock: UVAHIK_clean_linker_0, # of connection points: 2
# Relax obj value: 0.133
# Max RMSD: 0.100
# Mean RMSD: 0.099
data_MOF--net-pcl--node1-UXUYUI_clean_sbu_0--edge1-UVAHIK_clean_linker_0
_symmetry_space_group_name_H-M    P1
_symmetry_Int_Tables_number       1
_symmetry_cell_setting            triclinic
loop_
_symmetry_equiv_pos_as_xyz
'x, y, z'
_cell_length_a     75.423022
_cell_length_b     87.819916
_cell_length_c     77.617004
_cell_angle_alpha  90.008705
_cell_angle_beta   90.008686
_cell_angle_gamma 90.006703
loop_
_atom_site_label
_atom_site_type_symbol
_atom_site_fract_x
_atom_site_fract_y
_atom_site_fract_z
_atom_type_partial_charge
Li0 Li 0.18279 0.36878 0.09707 0.0
Li1 Li 0.18554 0.35538 0.06957 0.0
Li2 Li 0.18285 0.38401 0.07023 0.0
Li3 Li 0.1573 0.36704 0.0762 0.0
C4 C 0.21824 0.37473 0.08563 0.0
N5 N 0.25134 0.38287 0.0978 0.0
C6 C 0.23174 0.36387 0.08673 0.0
C7 C 0.22164 0.38977 0.09048 0.0
C8 C 0.24837 0.3682 0.09298 0.0
C9 C 0.23844 0.39365 0.09666 0.0
C10 C 0.17016 0.33526 0.09132 0.0
C11 C 0.16251 0.30988 0.08209 0.0
N12 N 0.17206 0.30406 0.09541 0.0
C13 C 0.17979 0.32905 0.10501 0.0
C14 C 0.16132 0.32563 0.07984 0.0
C15 C 0.18062 0.31323 0.10683 0.0
C16 C 0.17445 0.37282 0.13142 0.0
N17 N 0.18826 0.36926 0.12095 0.0
C18 C 0.20781 0.36751 0.14512 0.0
C19 C 0.20468 0.36637 0.12742 0.0
C20 C 0.19387 0.37159 0.15621 0.0
C21 C 0.17697 0.3741 0.14914 0.0
H22 H 0.16146 0.37477 0.12595 0.0
H23 H 0.21536 0.36321 0.11892 0.0
C24 C 0.19526 0.33795 0.04072 0.0
N25 N 0.19673 0.33887 0.05813 0.0
C26 C 0.20302 0.32589 0.03179 0.0
C27 C 0.21378 0.31595 0.05888 0.0
C28 C 0.20603 0.32834 0.06725 0.0
C29 C 0.21231 0.31456 0.04089 0.0
H30 H 0.18812 0.34665 0.03374 0.0
H31 H 0.20735 0.32952 0.08104 0.0
C32 C 0.16208 0.39794 0.09804 0.0
N33 N 0.15452 0.42477 0.11513 0.0
C34 C 0.14513 0.40432 0.097 0.0
C35 C 0.17514 0.40515 0.10788 0.0
C36 C 0.14159 0.41791 0.10569 0.0
C37 C 0.17106 0.41871 0.11641 0.0
C38 C 0.15935 0.36928 0.04139 0.0
C39 C 0.15591 0.38286 0.03262 0.0
C40 C 0.15045 0.35597 0.03665 0.0
C41 C 0.14338 0.38292 0.01935 0.0
C42 C 0.13801 0.35651 0.02333 0.0
N43 N 0.13476 0.36986 0.01503 0.0
C44 C 0.20481 0.4023 0.04958 0.0
C45 C 0.1811 0.41564 0.0628 0.0
C46 C 0.21073 0.41567 0.04167 0.0
N47 N 0.19027 0.40256 0.05993 0.0
C48 C 0.18673 0.42928 0.05544 0.0
C49 C 0.20168 0.42936 0.04471 0.0
H50 H 0.21177 0.3917 0.04745 0.0
H51 H 0.16931 0.41552 0.07064 0.0
C52 C 0.12405 0.35447 0.08432 0.0
N53 N 0.1322 0.36536 0.07475 0.0
C54 C 0.10561 0.3531 0.0841 0.0
C55 C 0.10431 0.37406 0.06398 0.0
C56 C 0.12274 0.37521 0.06487 0.0
C57 C 0.09541 0.36295 0.07379 0.0
H58 H 0.13187 0.34698 0.09235 0.0
H59 H 0.12948 0.38406 0.05777 0.0
O60 O 0.20192 0.37066 0.0795 0.0
O61 O 0.16925 0.35069 0.08931 0.0
O62 O 0.16576 0.38469 0.0895 0.0
O63 O 0.17152 0.36901 0.05443 0.0
H64 H 0.22937 0.3522 0.08289 0.0
H65 H 0.21149 0.39839 0.08937 0.0
H66 H 0.25891 0.35989 0.094 0.0
H67 H 0.24124 0.40524 0.10051 0.0
H68 H 0.15582 0.30229 0.07324 0.0
H69 H 0.18663 0.33636 0.11406 0.0
H70 H 0.15368 0.33028 0.06929 0.0
H71 H 0.1881 0.30825 0.11731 0.0
H72 H 0.22104 0.36547 0.15002 0.0
H73 H 0.16574 0.3769 0.15724 0.0
H74 H 0.20187 0.32554 0.01789 0.0
H75 H 0.22064 0.30748 0.06651 0.0
H76 H 0.13486 0.39886 0.08948 0.0
H77 H 0.18823 0.40026 0.10906 0.0
H78 H 0.12855 0.423 0.10494 0.0
H79 H 0.18104 0.4244 0.12407 0.0
H80 H 0.16275 0.39325 0.03609 0.0
H81 H 0.15308 0.34535 0.04323 0.0
H82 H 0.14051 0.39336 0.01249 0.0
H83 H 0.13095 0.34631 0.01958 0.0
H84 H 0.22228 0.41534 0.03339 0.0
H85 H 0.17924 0.4396 0.05778 0.0
H86 H 0.09944 0.3446 0.09223 0.0
H87 H 0.09718 0.38182 0.05566 0.0
Li88 Li 0.81689 0.63001 0.59721 0.0
Li89 Li 0.81432 0.64373 0.56993 0.0
Li90 Li 0.81681 0.61511 0.57016 0.0
Li91 Li 0.84231 0.63174 0.57631 0.0
C92 C 0.78144 0.62482 0.58613 0.0
N93 N 0.74833 0.61762 0.59906 0.0
C94 C 0.76853 0.63613 0.58795 0.0
C95 C 0.77737 0.6098 0.59056 0.0
C96 C 0.75191 0.63228 0.59461 0.0
C97 C 0.7606 0.6064 0.59716 0.0
C98 C 0.82946 0.66358 0.59171 0.0
C99 C 0.83622 0.68906 0.58217 0.0
N100 N 0.82678 0.69476 0.59564 0.0
C101 C 0.81996 0.66968 0.60554 0.0
C102 C 0.83779 0.67333 0.58001 0.0
C103 C 0.81872 0.68548 0.60728 0.0
C104 C 0.82335 0.62338 0.63176 0.0
N105 N 0.81099 0.62948 0.62105 0.0
C106 C 0.79158 0.6342 0.64482 0.0
C107 C 0.79542 0.63506 0.62723 0.0
C108 C 0.80391 0.62755 0.65609 0.0
C109 C 0.82002 0.62219 0.64936 0.0
H110 H 0.83584 0.61942 0.62659 0.0
H111 H 0.78604 0.6403 0.61858 0.0
C112 C 0.80532 0.66178 0.54132 0.0
N113 N 0.80332 0.66048 0.55866 0.0
C114 C 0.79777 0.67402 0.53252 0.0
C115 C 0.78612 0.68332 0.55956 0.0
C116 C 0.79375 0.67081 0.56781 0.0
C117 C 0.78813 0.68503 0.54169 0.0
H118 H 0.81281 0.65332 0.53431 0.0
H119 H 0.79207 0.66936 0.58154 0.0
C120 C 0.83631 0.59988 0.59676 0.0
N121 N 0.8414 0.57146 0.61123 0.0
C122 C 0.85268 0.59255 0.59518 0.0
C123 C 0.82262 0.59285 0.60591 0.0
C124 C 0.85496 0.57815 0.60251 0.0
C125 C 0.82543 0.57846 0.61308 0.0
C126 C 0.84089 0.62988 0.54196 0.0
C127 C 0.84474 0.61627 0.5334 0.0
C128 C 0.85002 0.64317 0.53756 0.0
C129 C 0.85791 0.61614 0.52073 0.0
C130 C 0.86311 0.64257 0.52484 0.0
N131 N 0.86676 0.62918 0.51678 0.0
C132 C 0.79351 0.59638 0.55123 0.0
C133 C 0.82034 0.5844 0.55957 0.0
C134 C 0.78789 0.58313 0.54287 0.0
N135 N 0.80945 0.59673 0.55942 0.0
C136 C 0.81518 0.5709 0.55157 0.0
C137 C 0.79878 0.57017 0.54306 0.0
H138 H 0.78522 0.60643 0.55112 0.0
H139 H 0.83321 0.58512 0.56557 0.0
C140 C 0.87599 0.64512 0.58167 0.0
N141 N 0.8674 0.63313 0.5744 0.0
C142 C 0.89442 0.64625 0.58058 0.0
C143 C 0.8948 0.62269 0.56448 0.0
C144 C 0.87639 0.62196 0.56603 0.0
C145 C 0.90411 0.63492 0.57188 0.0
H146 H 0.86854 0.65373 0.5885 0.0
H147 H 0.86926 0.61243 0.56058 0.0
O148 O 0.79775 0.62841 0.57956 0.0
O149 O 0.83068 0.64814 0.58973 0.0
O150 O 0.83386 0.61397 0.58958 0.0
O151 O 0.82817 0.63019 0.55451 0.0
H152 H 0.77135 0.64778 0.58439 0.0
H153 H 0.78696 0.60081 0.58875 0.0
H154 H 0.74186 0.64095 0.59621 0.0
H155 H 0.75731 0.59482 0.60069 0.0
H156 H 0.8425 0.69674 0.57314 0.0
H157 H 0.81351 0.66231 0.61477 0.0
H158 H 0.84531 0.66879 0.56932 0.0
H159 H 0.81133 0.69037 0.61787 0.0
H160 H 0.77903 0.63854 0.64951 0.0
H161 H 0.83007 0.61731 0.65766 0.0
H162 H 0.79969 0.67499 0.51873 0.0
H163 H 0.77857 0.69146 0.56705 0.0
H164 H 0.86348 0.59788 0.5883 0.0
H165 H 0.81005 0.59851 0.60769 0.0
H166 H 0.86753 0.57231 0.6013 0.0
H167 H 0.81493 0.57289 0.62019 0.0
H168 H 0.83773 0.6059 0.53656 0.0
H169 H 0.84709 0.65381 0.54395 0.0
H170 H 0.86111 0.60568 0.51407 0.0
H171 H 0.87037 0.65274 0.52139 0.0
H172 H 0.77517 0.583 0.5364 0.0
H173 H 0.82413 0.56126 0.55165 0.0
H174 H 0.90101 0.65573 0.58677 0.0
H175 H 0.90162 0.61379 0.55747 0.0
Li176 Li 0.18239 0.61427 0.92779 0.0
Li177 Li 0.15691 0.63085 0.9209 0.0
Li178 Li 0.18302 0.62836 0.90077 0.0
Li179 Li 0.18562 0.64292 0.92758 0.0
C180 C 0.16099 0.59788 0.90553 0.0
N181 N 0.1518 0.56775 0.90052 0.0
C182 C 0.14396 0.59282 0.90973 0.0
C183 C 0.17328 0.58767 0.8986 0.0
C184 C 0.13959 0.57753 0.90715 0.0
C185 C 0.1684 0.57247 0.89622 0.0
C186 C 0.16104 0.63164 0.9573 0.0
C187 C 0.14532 0.64782 0.97723 0.0
N188 N 0.14123 0.63541 0.98693 0.0
C189 C 0.15685 0.61907 0.96757 0.0
C190 C 0.15539 0.64615 0.96224 0.0
C191 C 0.14675 0.62121 0.98247 0.0
C192 C 0.20676 0.5947 0.94412 0.0
N193 N 0.18953 0.59611 0.93919 0.0
C194 C 0.18271 0.57155 0.9506 0.0
C195 C 0.17747 0.58499 0.94254 0.0
C196 C 0.20041 0.56975 0.95571 0.0
C197 C 0.21251 0.58155 0.95258 0.0
H198 H 0.21601 0.60383 0.94155 0.0
H199 H 0.16373 0.5866 0.93912 0.0
C200 C 0.12389 0.64025 0.90834 0.0
N201 N 0.1318 0.63305 0.92181 0.0
C202 C 0.10549 0.64192 0.90788 0.0
C203 C 0.10369 0.62877 0.93518 0.0
C204 C 0.12211 0.6272 0.93501 0.0
C205 C 0.09518 0.63615 0.92144 0.0
H206 H 0.13189 0.64459 0.89788 0.0
H207 H 0.12857 0.62104 0.94526 0.0
C208 C 0.21752 0.62541 0.90981 0.0
N209 N 0.24886 0.62213 0.89178 0.0
C210 C 0.22889 0.63784 0.90773 0.0
C211 C 0.22219 0.61127 0.90293 0.0
C212 C 0.24465 0.63597 0.89851 0.0
C213 C 0.23806 0.60985 0.89379 0.0
C214 C 0.16583 0.66192 0.90564 0.0
C215 C 0.17309 0.6701 0.8919 0.0
C216 C 0.15445 0.66922 0.9172 0.0
C217 C 0.1691 0.68555 0.89015 0.0
C218 C 0.15078 0.68468 0.915 0.0
N219 N 0.15814 0.69247 0.90165 0.0
C220 C 0.18114 0.61755 0.86681 0.0
C221 C 0.20206 0.63738 0.87073 0.0
C222 C 0.18515 0.61675 0.84931 0.0
N223 N 0.18966 0.62767 0.87714 0.0
C224 C 0.20654 0.63694 0.85327 0.0
C225 C 0.19802 0.62652 0.84229 0.0
H226 H 0.17098 0.61026 0.8721 0.0
H227 H 0.20832 0.64559 0.87912 0.0
C228 C 0.19906 0.65905 0.95594 0.0
N229 N 0.19663 0.65974 0.93861 0.0
C230 C 0.2068 0.67124 0.9647 0.0
C231 C 0.20969 0.6845 0.93756 0.0
C232 C 0.20203 0.672 0.92933 0.0
C233 C 0.21211 0.68427 0.95553 0.0
H234 H 0.19501 0.64901 0.96296 0.0
H235 H 0.20045 0.67209 0.91551 0.0
O236 O 0.16549 0.61281 0.908 0.0
O237 O 0.17089 0.62973 0.94266 0.0
O238 O 0.20202 0.62704 0.91874 0.0
O239 O 0.1697 0.64681 0.9076 0.0
H240 H 0.13425 0.60059 0.91501 0.0
H241 H 0.18643 0.59144 0.89509 0.0
H242 H 0.12648 0.57343 0.91041 0.0
H243 H 0.1778 0.56442 0.89094 0.0
H244 H 0.14082 0.65898 0.98117 0.0
H245 H 0.16123 0.60778 0.96402 0.0
H246 H 0.15886 0.65604 0.95467 0.0
H247 H 0.14331 0.61157 0.99048 0.0
H248 H 0.17296 0.56276 0.95313 0.0
H249 H 0.22625 0.58054 0.95647 0.0
H250 H 0.09939 0.6477 0.89707 0.0
H251 H 0.09615 0.62391 0.94571 0.0
H252 H 0.22551 0.64885 0.91308 0.0
H253 H 0.21368 0.60149 0.90467 0.0
H254 H 0.25352 0.64551 0.89671 0.0
H255 H 0.24181 0.59899 0.88833 0.0
H256 H 0.18181 0.66459 0.88276 0.0
H257 H 0.14842 0.66298 0.92766 0.0
H258 H 0.17473 0.69205 0.87964 0.0
H259 H 0.14204 0.69049 0.92389 0.0
H260 H 0.17791 0.6088 0.84128 0.0
H261 H 0.21656 0.64467 0.84843 0.0
H262 H 0.20876 0.67036 0.97848 0.0
H263 H 0.21345 0.6943 0.92993 0.0
Li264 Li 0.81524 0.38484 0.42527 0.0
Li265 Li 0.84141 0.36775 0.41849 0.0
Li266 Li 0.81635 0.36914 0.4003 0.0
Li267 Li 0.81299 0.3558 0.42672 0.0
C268 C 0.83513 0.39244 0.39047 0.0
N269 N 0.83922 0.4045 0.35783 0.0
C270 C 0.8477 0.38633 0.3792 0.0
C271 C 0.8247 0.40474 0.38518 0.0
C272 C 0.84954 0.39256 0.36273 0.0
C273 C 0.82697 0.41067 0.36862 0.0
C274 C 0.83548 0.37276 0.45612 0.0
C275 C 0.84562 0.36428 0.484 0.0
N276 N 0.85056 0.37877 0.48787 0.0
C277 C 0.84059 0.38759 0.46042 0.0
C278 C 0.83793 0.36101 0.46805 0.0
C279 C 0.84822 0.39039 0.47651 0.0
C280 C 0.79506 0.40265 0.44819 0.0
N281 N 0.80779 0.40314 0.43581 0.0
C282 C 0.81064 0.43006 0.43897 0.0
C283 C 0.81566 0.41643 0.43116 0.0
C284 C 0.7976 0.42993 0.45187 0.0
C285 C 0.78978 0.41601 0.45652 0.0
H286 H 0.78915 0.39186 0.45167 0.0
H287 H 0.82607 0.41641 0.42159 0.0
C288 C 0.87505 0.35796 0.40712 0.0
N289 N 0.86668 0.36592 0.41977 0.0
C290 C 0.89346 0.35632 0.40733 0.0
C291 C 0.89437 0.37103 0.43362 0.0
C292 C 0.87596 0.37249 0.43281 0.0
C293 C 0.90334 0.36288 0.42073 0.0
H294 H 0.86741 0.3529 0.39681 0.0
H295 H 0.86918 0.37901 0.44252 0.0
C296 C 0.78127 0.36948 0.40776 0.0
N297 N 0.7506 0.36636 0.38865 0.0
C298 C 0.77724 0.35556 0.39996 0.0
C299 C 0.76965 0.38177 0.40601 0.0
C300 C 0.76169 0.35423 0.39029 0.0
C301 C 0.75422 0.37997 0.39625 0.0
C302 C 0.83743 0.33699 0.41134 0.0
C303 C 0.83801 0.325 0.39951 0.0
C304 C 0.84536 0.33523 0.42749 0.0
C305 C 0.84657 0.31146 0.40402 0.0
C306 C 0.8538 0.32153 0.43152 0.0
N307 N 0.85422 0.31002 0.4198 0.0
C308 C 0.81663 0.3577 0.36657 0.0
C309 C 0.79781 0.37909 0.36999 0.0
C310 C 0.81238 0.35677 0.34912 0.0
N311 N 0.80932 0.36869 0.37661 0.0
C312 C 0.79321 0.37862 0.35258 0.0
C313 C 0.80053 0.36734 0.3419 0.0
H314 H 0.82599 0.34977 0.37208 0.0
H315 H 0.79237 0.38788 0.37816 0.0
C316 C 0.79723 0.34164 0.45548 0.0
N317 N 0.80202 0.33962 0.43877 0.0
C318 C 0.78929 0.32977 0.46464 0.0
C319 C 0.79103 0.31413 0.43904 0.0
C320 C 0.79895 0.32628 0.43042 0.0
C321 C 0.78614 0.31577 0.45641 0.0
H322 H 0.79957 0.35248 0.46169 0.0
H323 H 0.80268 0.32505 0.41705 0.0
O324 O 0.83291 0.38628 0.40652 0.0
O325 O 0.82767 0.36984 0.44053 0.0
O326 O 0.79647 0.37106 0.41715 0.0
O327 O 0.82888 0.35024 0.4071 0.0
H328 H 0.8558 0.37677 0.38304 0.0
H329 H 0.8147 0.40946 0.39361 0.0
H330 H 0.85914 0.38788 0.35384 0.0
H331 H 0.81889 0.42011 0.36431 0.0
H332 H 0.84762 0.35529 0.49333 0.0
H333 H 0.83897 0.39681 0.45133 0.0
H334 H 0.83393 0.34948 0.46506 0.0
H335 H 0.85232 0.4018 0.47996 0.0
H336 H 0.8172 0.44053 0.43528 0.0
H337 H 0.77968 0.41549 0.46642 0.0
H338 H 0.89988 0.34988 0.39719 0.0
H339 H 0.90153 0.37648 0.44402 0.0
H340 H 0.78615 0.34597 0.40115 0.0
H341 H 0.7726 0.3926 0.41202 0.0
H342 H 0.75846 0.34356 0.38406 0.0
H343 H 0.74513 0.3894 0.3947 0.0
H344 H 0.83183 0.32608 0.38699 0.0
H345 H 0.84514 0.34435 0.43677 0.0
H346 H 0.84709 0.30209 0.39499 0.0
H347 H 0.86003 0.32006 0.44397 0.0
H348 H 0.8186 0.34808 0.34128 0.0
H349 H 0.78398 0.38695 0.34755 0.0
H350 H 0.78549 0.33158 0.47794 0.0
H351 H 0.78899 0.3035 0.43225 0.0
Li352 Li 0.81387 0.6442 0.9264 0.0
Li353 Li 0.81811 0.61696 0.92687 0.0
Li354 Li 0.8423 0.63442 0.91809 0.0
Li355 Li 0.81713 0.63026 0.89882 0.0
C356 C 0.83158 0.63845 0.95683 0.0
N357 N 0.83302 0.65104 0.98943 0.0
C358 C 0.82451 0.63059 0.9709 0.0
C359 C 0.83965 0.6526 0.9594 0.0
C360 C 0.8253 0.63717 0.98727 0.0
C361 C 0.84017 0.6588 0.97596 0.0
C362 C 0.78198 0.62812 0.9249 0.0
C363 C 0.75021 0.63124 0.92497 0.0
N364 N 0.74993 0.6282 0.94215 0.0
C365 C 0.78136 0.62502 0.94254 0.0
C366 C 0.76628 0.63125 0.91602 0.0
C367 C 0.76505 0.62512 0.95104 0.0
C368 C 0.80063 0.67405 0.92775 0.0
N369 N 0.80207 0.66098 0.93703 0.0
C370 C 0.78721 0.67246 0.96091 0.0
C371 C 0.79541 0.65995 0.95326 0.0
C372 C 0.78574 0.68619 0.95174 0.0
C373 C 0.79251 0.68687 0.9349 0.0
H374 H 0.80581 0.67453 0.91478 0.0
H375 H 0.79655 0.64946 0.9604 0.0
C376 C 0.82768 0.59289 0.94775 0.0
N377 N 0.81389 0.59825 0.9383 0.0
C378 C 0.82607 0.57929 0.95684 0.0
C379 C 0.79609 0.57684 0.94614 0.0
C380 C 0.79837 0.59046 0.93708 0.0
C381 C 0.81003 0.57112 0.9563 0.0
H382 H 0.83996 0.59925 0.94821 0.0
H383 H 0.78773 0.59483 0.92918 0.0
C384 C 0.83929 0.66039 0.89945 0.0
N385 N 0.86296 0.68157 0.88665 0.0
C386 C 0.84425 0.66 0.88211 0.0
C387 C 0.84613 0.67172 0.91021 0.0
C388 C 0.8563 0.67076 0.8759 0.0
C389 C 0.85814 0.68228 0.90352 0.0
C390 C 0.83251 0.60115 0.89941 0.0
C391 C 0.84718 0.59202 0.89567 0.0
C392 C 0.81546 0.59594 0.89551 0.0
C393 C 0.84455 0.5778 0.88803 0.0
C394 C 0.81338 0.58165 0.88788 0.0
N395 N 0.82784 0.57295 0.88433 0.0
C396 C 0.8761 0.6368 0.93369 0.0
C397 C 0.87612 0.63831 0.90322 0.0
C398 C 0.89456 0.6379 0.93408 0.0
N399 N 0.8673 0.63708 0.91841 0.0
C400 C 0.89456 0.63968 0.90301 0.0
C401 C 0.90409 0.63934 0.91858 0.0
H402 H 0.86883 0.63534 0.94556 0.0
H403 H 0.86886 0.638 0.89123 0.0
C404 C 0.79502 0.63413 0.86939 0.0
N405 N 0.81087 0.62885 0.87521 0.0
C406 C 0.79077 0.6331 0.85189 0.0
C407 C 0.81926 0.62128 0.84683 0.0
C408 C 0.82299 0.62264 0.86434 0.0
C409 C 0.80296 0.62652 0.8404 0.0
H410 H 0.78576 0.63923 0.87831 0.0
H411 H 0.83567 0.61889 0.86925 0.0
O412 O 0.83087 0.6322 0.94069 0.0
O413 O 0.79784 0.62811 0.91632 0.0
O414 O 0.82756 0.64991 0.90578 0.0
O415 O 0.83492 0.61508 0.90696 0.0
H416 H 0.81841 0.61954 0.96921 0.0
H417 H 0.84547 0.6587 0.94873 0.0
H418 H 0.81978 0.63125 0.99825 0.0
H419 H 0.84628 0.66978 0.97811 0.0
H420 H 0.73795 0.63364 0.91825 0.0
H421 H 0.79337 0.6226 0.9496 0.0
H422 H 0.76649 0.63365 0.90235 0.0
H423 H 0.76441 0.62276 0.9647 0.0
H424 H 0.78237 0.67146 0.974 0.0
H425 H 0.79142 0.69715 0.92727 0.0
H426 H 0.83735 0.57516 0.96409 0.0
H427 H 0.78347 0.57101 0.94537 0.0
H428 H 0.83896 0.6514 0.87355 0.0
H429 H 0.84212 0.67241 0.92355 0.0
H430 H 0.86036 0.67052 0.86254 0.0
H431 H 0.8636 0.69107 0.91172 0.0
H432 H 0.86046 0.59591 0.89864 0.0
H433 H 0.80394 0.60284 0.89833 0.0
H434 H 0.85578 0.57061 0.88505 0.0
H435 H 0.80027 0.57747 0.88479 0.0
H436 H 0.90129 0.6372 0.94637 0.0
H437 H 0.90122 0.64091 0.89074 0.0
H438 H 0.77808 0.63729 0.84741 0.0
H439 H 0.82919 0.61645 0.83836 0.0
Li440 Li 0.18187 0.38201 0.42644 0.0
Li441 Li 0.18499 0.35434 0.42733 0.0
Li442 Li 0.18059 0.3684 0.3995 0.0
Li443 Li 0.15574 0.36505 0.4196 0.0
C444 C 0.21609 0.37702 0.41965 0.0
N445 N 0.24659 0.39288 0.42784 0.0
C446 C 0.22739 0.37165 0.43256 0.0
C447 C 0.22043 0.39033 0.41074 0.0
C448 C 0.24272 0.37986 0.43655 0.0
C449 C 0.23586 0.39823 0.41512 0.0
C450 C 0.16547 0.36203 0.45767 0.0
C451 C 0.14953 0.34505 0.47657 0.0
N452 N 0.15793 0.35133 0.49035 0.0
C453 C 0.17374 0.36847 0.47205 0.0
C454 C 0.15309 0.35036 0.45996 0.0
C455 C 0.16984 0.36284 0.48845 0.0
C456 C 0.18002 0.41349 0.43208 0.0
N457 N 0.18841 0.40061 0.43731 0.0
C458 C 0.20481 0.41459 0.4584 0.0
C459 C 0.20059 0.40089 0.45022 0.0
C460 C 0.1963 0.4281 0.4533 0.0
C461 C 0.1838 0.42741 0.4399 0.0
H462 H 0.17013 0.41293 0.42204 0.0
H463 H 0.20691 0.39046 0.4543 0.0
C464 C 0.1994 0.32482 0.4286 0.0
N465 N 0.19656 0.33761 0.43806 0.0
C466 C 0.20737 0.3121 0.43609 0.0
C467 C 0.20999 0.32616 0.46274 0.0
C468 C 0.20193 0.33858 0.45474 0.0
C469 C 0.21266 0.31264 0.45343 0.0
H470 H 0.19541 0.32448 0.41522 0.0
H471 H 0.20006 0.34903 0.46183 0.0
C472 C 0.15906 0.39234 0.39391 0.0
N473 N 0.14995 0.40861 0.36475 0.0
C474 C 0.1422 0.3907 0.38665 0.0
C475 C 0.17118 0.40243 0.38648 0.0
C476 C 0.13787 0.39899 0.37187 0.0
C477 C 0.16636 0.4105 0.37169 0.0
C478 C 0.16058 0.33584 0.40435 0.0
C479 C 0.15603 0.33168 0.38753 0.0
C480 C 0.15616 0.32622 0.41803 0.0
C481 C 0.14679 0.31812 0.38473 0.0
C482 C 0.14694 0.31274 0.4147 0.0
N483 N 0.14245 0.30901 0.39826 0.0
C484 C 0.20304 0.37069 0.37009 0.0
C485 C 0.17228 0.36814 0.36441 0.0
C486 C 0.20664 0.37188 0.35247 0.0
N487 N 0.18605 0.36903 0.37565 0.0
C488 C 0.17523 0.36955 0.34678 0.0
C489 C 0.19256 0.37156 0.34065 0.0
H490 H 0.21375 0.37121 0.37933 0.0
H491 H 0.15896 0.36653 0.36919 0.0
C492 C 0.12238 0.36965 0.43492 0.0
N493 N 0.13073 0.36286 0.42144 0.0
C494 C 0.10394 0.36889 0.43641 0.0
C495 C 0.10306 0.35419 0.41009 0.0
C496 C 0.12148 0.35532 0.40906 0.0
C497 C 0.09406 0.3611 0.42385 0.0
H498 H 0.13004 0.37579 0.44444 0.0
H499 H 0.12832 0.35051 0.39814 0.0
O500 O 0.20096 0.3692 0.41565 0.0
O501 O 0.16912 0.36746 0.44152 0.0
O502 O 0.16363 0.38415 0.40823 0.0
O503 O 0.16956 0.34913 0.4073 0.0
H504 H 0.22432 0.36131 0.4395 0.0
H505 H 0.21194 0.39456 0.40059 0.0
H506 H 0.25154 0.37588 0.44658 0.0
H507 H 0.23932 0.4086 0.4084 0.0
H508 H 0.14001 0.336 0.47851 0.0
H509 H 0.18317 0.37763 0.47057 0.0
H510 H 0.1461 0.34558 0.44909 0.0
H511 H 0.17627 0.36763 0.49967 0.0
H512 H 0.2146 0.4146 0.46861 0.0
H513 H 0.17663 0.43746 0.43579 0.0
H514 H 0.2095 0.302 0.42834 0.0
H515 H 0.21383 0.32707 0.47614 0.0
H516 H 0.13261 0.38304 0.39229 0.0
H517 H 0.18421 0.40395 0.39202 0.0
H518 H 0.12492 0.39776 0.36606 0.0
H519 H 0.17567 0.41825 0.36574 0.0
H520 H 0.15952 0.33888 0.37676 0.0
H521 H 0.16003 0.32899 0.43104 0.0
H522 H 0.14308 0.31482 0.37179 0.0
H523 H 0.14342 0.30521 0.42518 0.0
H524 H 0.22019 0.37339 0.34816 0.0
H525 H 0.16408 0.36902 0.338 0.0
H526 H 0.0975 0.37434 0.44725 0.0
H527 H 0.0959 0.34836 0.39995 0.0
Li528 Li 0.81661 0.36692 0.10059 0.0
Li529 Li 0.8428 0.36425 0.08112 0.0
Li530 Li 0.81793 0.38098 0.0735 0.0
Li531 Li 0.81486 0.35359 0.07191 0.0
C532 C 0.83901 0.39732 0.09456 0.0
N533 N 0.84819 0.42777 0.09485 0.0
C534 C 0.85559 0.40194 0.08844 0.0
C535 C 0.82719 0.40816 0.10104 0.0
C536 C 0.85996 0.4174 0.08865 0.0
C537 C 0.83205 0.42351 0.101 0.0
C538 C 0.84102 0.33817 0.09922 0.0
C539 C 0.86339 0.31888 0.0952 0.0
N540 N 0.86658 0.31892 0.11245 0.0
C541 C 0.84442 0.33796 0.11692 0.0
C542 C 0.85047 0.32849 0.08827 0.0
C543 C 0.85742 0.32816 0.12336 0.0
C544 C 0.79577 0.35772 0.12899 0.0
N545 N 0.80914 0.36701 0.12376 0.0
C546 C 0.81301 0.3765 0.15231 0.0
C547 C 0.81772 0.37633 0.13495 0.0
C548 C 0.79934 0.36695 0.1582 0.0
C549 C 0.79062 0.3575 0.14628 0.0
H550 H 0.7892 0.35044 0.11973 0.0
H551 H 0.8284 0.3835 0.1304 0.0
C552 C 0.876 0.3637 0.0648 0.0
N553 N 0.86789 0.36217 0.08034 0.0
C554 C 0.89443 0.36287 0.06357 0.0
C555 C 0.89583 0.35871 0.09434 0.0
C556 C 0.87738 0.35993 0.09502 0.0
C557 C 0.90453 0.36029 0.07846 0.0
H558 H 0.86817 0.3658 0.05339 0.0
H559 H 0.87065 0.35926 0.10729 0.0
C560 C 0.78201 0.37507 0.08445 0.0
N561 N 0.74917 0.38849 0.0887 0.0
C562 C 0.76817 0.37161 0.07315 0.0
C563 C 0.77913 0.38527 0.098 0.0
C564 C 0.75167 0.37854 0.07548 0.0
C565 C 0.76244 0.39196 0.0999 0.0
C566 C 0.8302 0.36156 0.0422 0.0
C567 C 0.82046 0.36956 0.02983 0.0
C568 C 0.83876 0.34803 0.03764 0.0
C569 C 0.81926 0.36375 0.01311 0.0
C570 C 0.8372 0.34259 0.02079 0.0
N571 N 0.82756 0.3505 0.00898 0.0
C572 C 0.82746 0.40637 0.05467 0.0
C573 C 0.79687 0.40673 0.06161 0.0
C574 C 0.82611 0.4205 0.04663 0.0
N575 N 0.81306 0.39991 0.06225 0.0
C576 C 0.79483 0.42077 0.05338 0.0
C577 C 0.80964 0.42788 0.04599 0.0
H578 H 0.84008 0.40053 0.05499 0.0
H579 H 0.7855 0.40141 0.06744 0.0
C580 C 0.80579 0.32289 0.06655 0.0
N581 N 0.80384 0.33719 0.06013 0.0
C582 C 0.79799 0.31052 0.0582 0.0
C583 C 0.78639 0.32782 0.03673 0.0
C584 C 0.79411 0.33989 0.0457 0.0
C585 C 0.7883 0.31294 0.04302 0.0
H586 H 0.81337 0.3211 0.07819 0.0
H587 H 0.79236 0.35141 0.04114 0.0
O588 O 0.83435 0.38227 0.09414 0.0
O589 O 0.82844 0.34775 0.09266 0.0
O590 O 0.79817 0.36826 0.08241 0.0
O591 O 0.83143 0.36699 0.05866 0.0
H592 H 0.86491 0.39371 0.0834 0.0
H593 H 0.81436 0.40478 0.10589 0.0
H594 H 0.87269 0.42115 0.08384 0.0
H595 H 0.82298 0.43203 0.10585 0.0
H596 H 0.87089 0.3114 0.08687 0.0
H597 H 0.83718 0.34534 0.12557 0.0
H598 H 0.84793 0.32847 0.07455 0.0
H599 H 0.86026 0.32792 0.13701 0.0
H600 H 0.82029 0.38376 0.16109 0.0
H601 H 0.77994 0.35005 0.15026 0.0
H602 H 0.90073 0.36418 0.05111 0.0
H603 H 0.90325 0.35695 0.10612 0.0
H604 H 0.77015 0.36367 0.06266 0.0
H605 H 0.78965 0.38804 0.1069 0.0
H606 H 0.74084 0.37601 0.0668 0.0
H607 H 0.76004 0.3999 0.11029 0.0
H608 H 0.81375 0.38004 0.03315 0.0
H609 H 0.84642 0.34176 0.04704 0.0
H610 H 0.81168 0.36977 0.00343 0.0
H611 H 0.84365 0.33209 0.0171 0.0
H612 H 0.83777 0.42556 0.04083 0.0
H613 H 0.78191 0.42616 0.05309 0.0
H614 H 0.79972 0.29917 0.06339 0.0
H615 H 0.77879 0.33009 0.02517 0.0
Li616 Li 0.18214 0.62909 0.5996 0.0
Li617 Li 0.15659 0.63221 0.57907 0.0
Li618 Li 0.18103 0.61576 0.57259 0.0
Li619 Li 0.18589 0.64246 0.57155 0.0
C620 C 0.16284 0.59861 0.59328 0.0
N621 N 0.16113 0.5672 0.59419 0.0
C622 C 0.14918 0.59097 0.58473 0.0
C623 C 0.17559 0.5903 0.60236 0.0
C624 C 0.14856 0.57507 0.58532 0.0
C625 C 0.17449 0.57442 0.60266 0.0
C626 C 0.16371 0.66005 0.59995 0.0
C627 C 0.15524 0.6865 0.60153 0.0
N628 N 0.14931 0.68426 0.61789 0.0
C629 C 0.15761 0.65803 0.6168 0.0
C630 C 0.1626 0.67442 0.59227 0.0
C631 C 0.15035 0.6704 0.62564 0.0
C632 C 0.20272 0.6365 0.62907 0.0
N633 N 0.18843 0.62864 0.62318 0.0
C634 C 0.18201 0.6195 0.65145 0.0
C635 C 0.17805 0.62031 0.63394 0.0
C636 C 0.19671 0.62744 0.65797 0.0
C637 C 0.2071 0.63611 0.64658 0.0
H638 H 0.21068 0.64307 0.62017 0.0
H639 H 0.16661 0.61437 0.62892 0.0
C640 C 0.12343 0.62592 0.56496 0.0
N641 N 0.13156 0.63472 0.57701 0.0
C642 C 0.10508 0.62659 0.56281 0.0
C643 C 0.1038 0.64566 0.58523 0.0
C644 C 0.12217 0.64453 0.58704 0.0
C645 C 0.09502 0.63651 0.57309 0.0
H646 H 0.13124 0.61829 0.55708 0.0
H647 H 0.12882 0.65137 0.59656 0.0
C648 C 0.21652 0.62524 0.57263 0.0
N649 N 0.24667 0.62217 0.55273 0.0
C650 C 0.21514 0.62391 0.55473 0.0
C651 C 0.23322 0.625 0.58041 0.0
C652 C 0.23054 0.62237 0.54489 0.0
C653 C 0.24831 0.62344 0.57012 0.0
C654 C 0.16175 0.63903 0.54435 0.0
C655 C 0.16175 0.63406 0.52725 0.0
C656 C 0.15401 0.65299 0.54853 0.0
C657 C 0.15404 0.64321 0.51457 0.0
C658 C 0.1464 0.6618 0.5355 0.0
N659 N 0.14659 0.65678 0.51893 0.0
C660 C 0.17604 0.59305 0.54803 0.0
C661 C 0.20021 0.58812 0.56677 0.0
C662 C 0.17927 0.5796 0.53905 0.0
N663 N 0.1865 0.59705 0.56153 0.0
C664 C 0.20384 0.57447 0.55823 0.0
C665 C 0.19335 0.57014 0.54409 0.0
H666 H 0.16512 0.60032 0.54431 0.0
H667 H 0.20829 0.59161 0.57759 0.0
C668 C 0.20458 0.67018 0.57092 0.0
N669 N 0.19793 0.65891 0.56079 0.0
C670 C 0.21283 0.68281 0.56347 0.0
C671 C 0.20756 0.6718 0.53538 0.0
C672 C 0.19958 0.65934 0.54336 0.0
C673 C 0.21413 0.6838 0.54546 0.0
H674 H 0.20322 0.66944 0.58477 0.0
H675 H 0.19465 0.65007 0.5356 0.0
O676 O 0.16395 0.61414 0.59249 0.0
O677 O 0.17103 0.64811 0.59113 0.0
O678 O 0.20167 0.62678 0.5826 0.0
O679 O 0.16941 0.63019 0.55683 0.0
H680 H 0.13924 0.59722 0.57762 0.0
H681 H 0.18638 0.59604 0.60887 0.0
H682 H 0.13811 0.569 0.5787 0.0
H683 H 0.18433 0.56784 0.60955 0.0
H684 H 0.15425 0.69767 0.59573 0.0
H685 H 0.15827 0.64699 0.62292 0.0
H686 H 0.16738 0.67626 0.5793 0.0
H687 H 0.1455 0.66898 0.63866 0.0
H688 H 0.17348 0.61292 0.65985 0.0
H689 H 0.21857 0.64236 0.65112 0.0
H690 H 0.09883 0.61947 0.55316 0.0
H691 H 0.0965 0.65333 0.59353 0.0
H692 H 0.20235 0.62403 0.54846 0.0
H693 H 0.23449 0.62602 0.59425 0.0
H694 H 0.22967 0.62133 0.53103 0.0
H695 H 0.26133 0.62324 0.57597 0.0
H696 H 0.16776 0.62329 0.52378 0.0
H697 H 0.15379 0.65696 0.56169 0.0
H698 H 0.15399 0.63953 0.50127 0.0
H699 H 0.14035 0.67264 0.53857 0.0
H700 H 0.17071 0.57654 0.52839 0.0
H701 H 0.21486 0.5675 0.56245 0.0
H702 H 0.21772 0.69187 0.57167 0.0
H703 H 0.20862 0.67202 0.52146 0.0
Li704 Li 0.68349 0.86891 0.09789 0.0
Li705 Li 0.68663 0.85561 0.07144 0.0
Li706 Li 0.68475 0.88465 0.07298 0.0
Li707 Li 0.65834 0.86781 0.07976 0.0
C708 C 0.71851 0.86905 0.09047 0.0
N709 N 0.74903 0.86584 0.10977 0.0
C710 C 0.72253 0.85507 0.09813 0.0
C711 C 0.73007 0.88135 0.09245 0.0
C712 C 0.738 0.85369 0.1079 0.0
C713 C 0.74543 0.87951 0.1023 0.0
C714 C 0.66179 0.8371 0.0866 0.0
C715 C 0.64549 0.82198 0.06602 0.0
N716 N 0.64434 0.81053 0.07776 0.0
C717 C 0.66045 0.82517 0.09845 0.0
C718 C 0.65427 0.83548 0.07024 0.0
C719 C 0.65158 0.81183 0.09374 0.0
C720 C 0.68299 0.8574 0.13164 0.0
N721 N 0.69047 0.86834 0.12163 0.0
C722 C 0.7062 0.87838 0.14585 0.0
C723 C 0.70195 0.87871 0.12835 0.0
C724 C 0.69862 0.86722 0.1565 0.0
C725 C 0.68694 0.85658 0.14917 0.0
H726 H 0.67369 0.84946 0.12605 0.0
H727 H 0.70756 0.88744 0.12021 0.0
C728 C 0.70212 0.8415 0.04253 0.0
N729 N 0.69722 0.83933 0.05919 0.0
C730 C 0.7094 0.82952 0.03305 0.0
C731 C 0.70685 0.81346 0.05824 0.0
C732 C 0.69966 0.82574 0.06722 0.0
C733 C 0.71169 0.81522 0.04088 0.0
H734 H 0.70021 0.85251 0.03657 0.0
H735 H 0.69598 0.82443 0.08059 0.0
C736 C 0.66533 0.89267 0.10775 0.0
N737 N 0.66204 0.90528 0.14023 0.0
C738 C 0.65268 0.88705 0.11927 0.0
C739 C 0.67626 0.90476 0.11273 0.0
C740 C 0.65125 0.89355 0.13564 0.0
C741 C 0.67438 0.91098 0.1292 0.0
C742 C 0.66435 0.87336 0.04225 0.0
C743 C 0.659 0.8883 0.03881 0.0
C744 C 0.66212 0.86213 0.02966 0.0
C745 C 0.65147 0.89174 0.02283 0.0
C746 C 0.65452 0.86603 0.01385 0.0
N747 N 0.64941 0.88063 0.01079 0.0
C748 C 0.70473 0.90208 0.04953 0.0
C749 C 0.68495 0.9163 0.06702 0.0
C750 C 0.71001 0.9153 0.04092 0.0
N751 N 0.69239 0.90285 0.06227 0.0
C752 C 0.69004 0.92979 0.05896 0.0
C753 C 0.70264 0.92937 0.04567 0.0
H754 H 0.71026 0.89117 0.04594 0.0
H755 H 0.67478 0.9165 0.07682 0.0
C756 C 0.62481 0.85893 0.092 0.0
N757 N 0.63304 0.86595 0.07858 0.0
C758 C 0.60641 0.85725 0.09212 0.0
C759 C 0.60524 0.86971 0.0644 0.0
C760 C 0.62364 0.87132 0.06492 0.0
C761 C 0.59641 0.86268 0.07817 0.0
H762 H 0.63258 0.85462 0.10266 0.0
H763 H 0.6303 0.87693 0.05445 0.0
O764 O 0.70337 0.87068 0.08099 0.0
O765 O 0.67063 0.85016 0.09106 0.0
O766 O 0.66712 0.88625 0.09177 0.0
O767 O 0.67205 0.8698 0.05771 0.0
H768 H 0.71366 0.84546 0.09672 0.0
H769 H 0.72713 0.89223 0.08654 0.0
H770 H 0.74123 0.84298 0.11401 0.0
H771 H 0.75447 0.88895 0.10403 0.0
H772 H 0.63959 0.82061 0.05341 0.0
H773 H 0.66629 0.82614 0.11113 0.0
H774 H 0.65509 0.84453 0.06091 0.0
H775 H 0.65047 0.80251 0.10278 0.0
H776 H 0.71532 0.88676 0.15098 0.0
H777 H 0.68056 0.84796 0.15699 0.0
H778 H 0.71288 0.83134 0.01968 0.0
H779 H 0.70871 0.80272 0.06486 0.0
H780 H 0.64418 0.87768 0.11568 0.0
H781 H 0.68636 0.90908 0.10415 0.0
H782 H 0.64158 0.88925 0.14471 0.0
H783 H 0.68284 0.92026 0.13327 0.0
H784 H 0.66033 0.89708 0.04847 0.0
H785 H 0.6662 0.85051 0.03205 0.0
H786 H 0.64721 0.90324 0.02003 0.0
H787 H 0.65271 0.85745 0.00401 0.0
H788 H 0.71975 0.91455 0.0307 0.0
H789 H 0.68381 0.9404 0.06273 0.0
H790 H 0.60007 0.85164 0.10292 0.0
H791 H 0.59796 0.8742 0.05349 0.0
Li792 Li 0.31329 0.14267 0.57092 0.0
Li793 Li 0.31669 0.12927 0.59727 0.0
Li794 Li 0.34176 0.13077 0.57912 0.0
Li795 Li 0.31564 0.11359 0.5723 0.0
C796 C 0.33773 0.16148 0.58632 0.0
N797 N 0.35448 0.18846 0.57779 0.0
C798 C 0.33823 0.17353 0.5981 0.0
C799 C 0.34574 0.16321 0.57021 0.0
C800 C 0.34676 0.18707 0.59355 0.0
C801 C 0.35415 0.17691 0.56614 0.0
C802 C 0.28177 0.12855 0.59014 0.0
C803 C 0.25543 0.11738 0.60237 0.0
N804 N 0.25153 0.13092 0.60999 0.0
C805 C 0.27744 0.14239 0.59795 0.0
C806 C 0.27065 0.11595 0.59223 0.0
C807 C 0.26212 0.14334 0.60801 0.0
C808 C 0.2978 0.15705 0.54212 0.0
N809 N 0.30243 0.15893 0.5589 0.0
C810 C 0.29213 0.18463 0.55858 0.0
C811 C 0.29952 0.17228 0.56729 0.0
C812 C 0.28757 0.18318 0.54111 0.0
C813 C 0.29034 0.16911 0.5329 0.0
H814 H 0.30006 0.14622 0.53586 0.0
H815 H 0.30298 0.17336 0.58074 0.0
C816 C 0.31625 0.14086 0.63103 0.0
N817 N 0.30965 0.12952 0.62099 0.0
C818 C 0.31208 0.1415 0.64852 0.0
C819 C 0.29442 0.11874 0.64508 0.0
C820 C 0.2989 0.11857 0.62764 0.0
C821 C 0.30108 0.13031 0.65577 0.0
H822 H 0.325 0.14927 0.6255 0.0
H823 H 0.29399 0.10955 0.61946 0.0
C824 C 0.33587 0.12594 0.54144 0.0
N825 N 0.35099 0.12033 0.50961 0.0
C826 C 0.341 0.11118 0.53691 0.0
C827 C 0.33832 0.13784 0.52969 0.0
C828 C 0.34866 0.10858 0.52079 0.0
C829 C 0.34602 0.13477 0.5137 0.0
C830 C 0.33583 0.10602 0.60699 0.0
C831 C 0.3479 0.11261 0.61844 0.0
C832 C 0.3262 0.09316 0.61204 0.0
C833 C 0.35003 0.1063 0.63483 0.0
C834 C 0.32874 0.08718 0.62853 0.0
N835 N 0.34048 0.09383 0.6395 0.0
C836 C 0.37547 0.14066 0.59033 0.0
C837 C 0.37625 0.1257 0.56494 0.0
C838 C 0.39389 0.14222 0.59006 0.0
N839 N 0.36703 0.13254 0.57784 0.0
C840 C 0.39466 0.12707 0.56408 0.0
C841 C 0.40371 0.13539 0.57678 0.0
H842 H 0.36788 0.1459 0.60055 0.0
H843 H 0.36942 0.11902 0.5554 0.0
C844 C 0.29496 0.09523 0.55021 0.0
N845 N 0.30845 0.09518 0.56182 0.0
C846 C 0.28999 0.08174 0.54195 0.0
C847 C 0.31274 0.06847 0.55798 0.0
C848 C 0.31736 0.08221 0.56579 0.0
C849 C 0.29894 0.06814 0.54584 0.0
H850 H 0.2882 0.10578 0.54726 0.0
H851 H 0.3283 0.08259 0.57478 0.0
O852 O 0.32919 0.14823 0.59058 0.0
O853 O 0.29677 0.12733 0.58038 0.0
O854 O 0.32802 0.12866 0.55706 0.0
O855 O 0.33331 0.11223 0.59102 0.0
H856 H 0.33199 0.17249 0.61059 0.0
H857 H 0.34561 0.15405 0.56098 0.0
H858 H 0.34721 0.19648 0.60253 0.0
H859 H 0.36043 0.17835 0.55371 0.0
H860 H 0.24674 0.10771 0.60419 0.0
H861 H 0.28595 0.15221 0.59646 0.0
H862 H 0.27383 0.10518 0.5862 0.0
H863 H 0.25866 0.15394 0.61426 0.0
H864 H 0.28988 0.19516 0.5655 0.0
H865 H 0.28709 0.16753 0.51943 0.0
H866 H 0.31777 0.15046 0.65636 0.0
H867 H 0.28584 0.10992 0.65014 0.0
H868 H 0.3394 0.10185 0.54585 0.0
H869 H 0.33429 0.14932 0.53283 0.0
H870 H 0.35278 0.09722 0.51718 0.0
H871 H 0.34802 0.14388 0.50451 0.0
H872 H 0.35536 0.1226 0.61479 0.0
H873 H 0.31661 0.08803 0.60345 0.0
H874 H 0.35924 0.11135 0.64386 0.0
H875 H 0.32128 0.0773 0.63265 0.0
H876 H 0.40037 0.14878 0.60006 0.0
H877 H 0.40178 0.1214 0.5538 0.0
H878 H 0.27925 0.08193 0.53269 0.0
H879 H 0.3202 0.05829 0.56109 0.0
Li880 Li 0.68238 0.11452 0.92719 0.0
Li881 Li 0.65686 0.13107 0.92075 0.0
Li882 Li 0.68224 0.12884 0.89982 0.0
Li883 Li 0.68508 0.14321 0.92676 0.0
C884 C 0.66285 0.0988 0.90123 0.0
N885 N 0.65791 0.06998 0.88778 0.0
C886 C 0.64657 0.0914 0.90322 0.0
C887 C 0.67654 0.09163 0.89222 0.0
C888 C 0.64436 0.0768 0.89638 0.0
C889 C 0.6738 0.07704 0.88556 0.0
C890 C 0.65904 0.1308 0.9555 0.0
C891 C 0.63852 0.1453 0.97276 0.0
N892 N 0.63441 0.13249 0.98176 0.0
C893 C 0.65474 0.1178 0.96501 0.0
C894 C 0.651 0.14469 0.95948 0.0
C895 C 0.64221 0.11888 0.97821 0.0
C896 C 0.7061 0.09531 0.94513 0.0
N897 N 0.68959 0.09623 0.93816 0.0
C898 C 0.68297 0.07085 0.94707 0.0
C899 C 0.67798 0.08444 0.93918 0.0
C900 C 0.69997 0.0695 0.95428 0.0
C901 C 0.71159 0.08196 0.95335 0.0
H902 H 0.71497 0.10496 0.94434 0.0
H903 H 0.66473 0.08565 0.9341 0.0
C904 C 0.62322 0.14373 0.91377 0.0
N905 N 0.6318 0.13259 0.92259 0.0
C906 C 0.60477 0.14487 0.91456 0.0
C907 C 0.60437 0.1231 0.9336 0.0
C908 C 0.62279 0.12226 0.93223 0.0
C909 C 0.59505 0.13447 0.92461 0.0
H910 H 0.63067 0.1516 0.90589 0.0
H911 H 0.62989 0.11328 0.93877 0.0
C912 C 0.71798 0.12485 0.91097 0.0
N913 N 0.75155 0.11942 0.89811 0.0
C914 C 0.73018 0.13677 0.90954 0.0
C915 C 0.72295 0.11013 0.90612 0.0
C916 C 0.74706 0.1338 0.90294 0.0
C917 C 0.73995 0.10763 0.89957 0.0
C918 C 0.66892 0.16242 0.90379 0.0
C919 C 0.67789 0.16806 0.88938 0.0
C920 C 0.66006 0.17247 0.91478 0.0
C921 C 0.67807 0.18374 0.88636 0.0
C922 C 0.66058 0.18807 0.91132 0.0
N923 N 0.66951 0.19334 0.89731 0.0
C924 C 0.67459 0.12264 0.8656 0.0
C925 C 0.70378 0.13203 0.86941 0.0
C926 C 0.67729 0.12124 0.84791 0.0
N927 N 0.68781 0.12778 0.87596 0.0
C928 C 0.70709 0.13077 0.85175 0.0
C929 C 0.69376 0.12523 0.84076 0.0
H930 H 0.66189 0.11965 0.87111 0.0
H931 H 0.71393 0.13648 0.87778 0.0
C932 C 0.69635 0.1604 0.95515 0.0
N933 N 0.69618 0.16009 0.93765 0.0
C934 C 0.70407 0.17261 0.96388 0.0
C935 C 0.71135 0.18395 0.93641 0.0
C936 C 0.70377 0.17138 0.92823 0.0
C937 C 0.71155 0.18472 0.95451 0.0
H938 H 0.69056 0.15111 0.96234 0.0
H939 H 0.70392 0.17068 0.91435 0.0
O940 O 0.66522 0.11307 0.9079 0.0
O941 O 0.67117 0.12994 0.94246 0.0
O942 O 0.70142 0.12756 0.91746 0.0
O943 O 0.66863 0.14711 0.90696 0.0
H944 H 0.63579 0.09684 0.91006 0.0
H945 H 0.68907 0.09731 0.89025 0.0
H946 H 0.63187 0.0709 0.89791 0.0
H947 H 0.6843 0.07135 0.87857 0.0
H948 H 0.63212 0.15596 0.97593 0.0
H949 H 0.66093 0.10698 0.96216 0.0
H950 H 0.65435 0.15488 0.95238 0.0
H951 H 0.63867 0.1089 0.98561 0.0
H952 H 0.6735 0.0616 0.94788 0.0
H953 H 0.72479 0.08134 0.95881 0.0
H954 H 0.59821 0.15362 0.90709 0.0
H955 H 0.59755 0.11492 0.94166 0.0
H956 H 0.72661 0.1482 0.91338 0.0
H957 H 0.71384 0.10071 0.90753 0.0
H958 H 0.7566 0.14293 0.90165 0.0
H959 H 0.74395 0.0963 0.89572 0.0
H960 H 0.68472 0.16042 0.8807 0.0
H961 H 0.65289 0.16827 0.92586 0.0
H962 H 0.68504 0.18828 0.87532 0.0
H963 H 0.65386 0.196 0.91977 0.0
H964 H 0.66647 0.11729 0.8399 0.0
H965 H 0.71999 0.13398 0.84682 0.0
H966 H 0.70429 0.17244 0.97782 0.0
H967 H 0.71677 0.19301 0.92857 0.0
Li968 Li 0.34054 0.86622 0.41893 0.0
Li969 Li 0.31413 0.88291 0.42543 0.0
Li970 Li 0.31303 0.8541 0.42663 0.0
Li971 Li 0.31513 0.86694 0.39996 0.0
C972 C 0.33976 0.87059 0.45336 0.0
N973 N 0.36579 0.87503 0.47793 0.0
C974 C 0.3424 0.88502 0.46053 0.0
C975 C 0.35023 0.85839 0.45886 0.0
C976 C 0.35565 0.88704 0.4729 0.0
C977 C 0.36337 0.86087 0.47124 0.0
C978 C 0.33602 0.88995 0.3908 0.0
C979 C 0.33266 0.90854 0.36818 0.0
N980 N 0.34486 0.90093 0.35858 0.0
C981 C 0.34857 0.88233 0.38075 0.0
C982 C 0.32801 0.90318 0.38451 0.0
C983 C 0.35285 0.88805 0.36448 0.0
C984 C 0.37476 0.85412 0.41261 0.0
N985 N 0.36577 0.86576 0.42013 0.0
C986 C 0.3929 0.87738 0.42905 0.0
C987 C 0.37444 0.87743 0.42794 0.0
C988 C 0.40261 0.86538 0.42163 0.0
C989 C 0.39326 0.85369 0.41321 0.0
H990 H 0.36759 0.84526 0.4059 0.0
H991 H 0.367 0.88681 0.43332 0.0
C992 C 0.29346 0.90091 0.44763 0.0
N993 N 0.30667 0.90129 0.43574 0.0
C994 C 0.28852 0.91419 0.45629 0.0
C995 C 0.31072 0.92797 0.44008 0.0
C996 C 0.31526 0.91443 0.43179 0.0
C997 C 0.2973 0.92794 0.45264 0.0
H998 H 0.28697 0.89024 0.45055 0.0
H999 H 0.32597 0.91429 0.42253 0.0
C1000 C 0.32893 0.83345 0.40848 0.0
N1001 N 0.32815 0.80213 0.41199 0.0
C1002 C 0.31752 0.82471 0.39829 0.0
C1003 C 0.33998 0.82623 0.42041 0.0
C1004 C 0.31733 0.80889 0.40026 0.0
C1005 C 0.33937 0.8104 0.42202 0.0
C1006 C 0.28077 0.87046 0.40702 0.0
C1007 C 0.27461 0.85833 0.39701 0.0
C1008 C 0.27175 0.88437 0.40671 0.0
C1009 C 0.25959 0.86036 0.38672 0.0
C1010 C 0.25676 0.88593 0.39628 0.0
N1011 N 0.25105 0.874 0.38657 0.0
C1012 C 0.30733 0.83582 0.45611 0.0
C1013 C 0.291 0.8282 0.43152 0.0
C1014 C 0.30026 0.82381 0.46569 0.0
N1015 N 0.30276 0.83769 0.43931 0.0
C1016 C 0.28378 0.81594 0.44052 0.0
C1017 C 0.28838 0.81359 0.45787 0.0
H1018 H 0.31638 0.84371 0.46215 0.0
H1019 H 0.28737 0.83001 0.41825 0.0
C1020 C 0.31535 0.85587 0.36578 0.0
N1021 N 0.3088 0.86709 0.37602 0.0
C1022 C 0.31141 0.85563 0.34822 0.0
C1023 C 0.29466 0.87886 0.35188 0.0
C1024 C 0.29878 0.87857 0.3694 0.0
C1025 C 0.30094 0.86723 0.34108 0.0
H1026 H 0.32394 0.84727 0.37116 0.0
H1027 H 0.29416 0.88762 0.37769 0.0
O1028 O 0.32692 0.86841 0.44113 0.0
O1029 O 0.3313 0.88427 0.40654 0.0
O1030 O 0.32918 0.84899 0.40691 0.0
O1031 O 0.29545 0.86875 0.41718 0.0
H1032 H 0.3344 0.89459 0.45653 0.0
H1033 H 0.3483 0.84712 0.4536 0.0
H1034 H 0.35789 0.89816 0.47848 0.0
H1035 H 0.37163 0.85155 0.47552 0.0
H1036 H 0.32649 0.91871 0.36309 0.0
H1037 H 0.35476 0.87199 0.38536 0.0
H1038 H 0.3181 0.90911 0.39204 0.0
H1039 H 0.36246 0.88223 0.35651 0.0
H1040 H 0.39945 0.8866 0.43577 0.0
H1041 H 0.40013 0.84443 0.40687 0.0
H1042 H 0.27803 0.9137 0.4658 0.0
H1043 H 0.31804 0.93825 0.4371 0.0
H1044 H 0.30862 0.83006 0.3892 0.0
H1045 H 0.3489 0.83278 0.42838 0.0
H1046 H 0.30848 0.80201 0.39253 0.0
H1047 H 0.34782 0.80469 0.43125 0.0
H1048 H 0.28157 0.84758 0.39686 0.0
H1049 H 0.27633 0.89388 0.41436 0.0
H1050 H 0.25478 0.85111 0.37878 0.0
H1051 H 0.24969 0.89664 0.39587 0.0
H1052 H 0.30391 0.82268 0.47912 0.0
H1053 H 0.27487 0.80828 0.43384 0.0
H1054 H 0.31687 0.84667 0.34022 0.0
H1055 H 0.28661 0.88805 0.34683 0.0
Li1056 Li 0.31344 0.14312 0.92639 0.0
Li1057 Li 0.31744 0.11609 0.92511 0.0
Li1058 Li 0.34222 0.13197 0.91825 0.0
Li1059 Li 0.31627 0.12882 0.89776 0.0
C1060 C 0.33555 0.1387 0.95437 0.0
N1061 N 0.3469 0.15575 0.9822 0.0
C1062 C 0.33078 0.13449 0.97111 0.0
C1063 C 0.34612 0.15157 0.95181 0.0
C1064 C 0.33663 0.14327 0.98501 0.0
C1065 C 0.35173 0.16004 0.96604 0.0
C1066 C 0.28226 0.12071 0.92025 0.0
C1067 C 0.25634 0.1059 0.91324 0.0
N1068 N 0.25188 0.10555 0.93022 0.0
C1069 C 0.27737 0.12032 0.93761 0.0
C1070 C 0.27164 0.11353 0.90793 0.0
C1071 C 0.26198 0.11254 0.9424 0.0
C1072 C 0.29945 0.17282 0.92792 0.0
N1073 N 0.30226 0.15993 0.93721 0.0
C1074 C 0.29004 0.17148 0.9624 0.0
C1075 C 0.29743 0.15894 0.95404 0.0
C1076 C 0.28732 0.18505 0.95324 0.0
C1077 C 0.29191 0.1856 0.93572 0.0
H1078 H 0.3032 0.17321 0.91448 0.0
H1079 H 0.29937 0.14844 0.96101 0.0
C1080 C 0.32062 0.09457 0.95135 0.0
N1081 N 0.31167 0.09739 0.9365 0.0
C1082 C 0.31761 0.08118 0.96052 0.0
C1083 C 0.29645 0.07358 0.93877 0.0
C1084 C 0.29991 0.08715 0.92999 0.0
C1085 C 0.30531 0.07049 0.95431 0.0
H1086 H 0.33036 0.10263 0.95593 0.0
H1087 H 0.29337 0.08939 0.91789 0.0
C1088 C 0.33737 0.1594 0.8981 0.0
N1089 N 0.35603 0.18252 0.88212 0.0
C1090 C 0.34169 0.1583 0.88062 0.0
C1091 C 0.34228 0.17239 0.90736 0.0
C1092 C 0.35119 0.17008 0.8728 0.0
C1093 C 0.35179 0.18391 0.89908 0.0
C1094 C 0.33653 0.09845 0.90549 0.0
C1095 C 0.34945 0.09202 0.91615 0.0
C1096 C 0.32573 0.08901 0.89547 0.0
C1097 C 0.35125 0.0762 0.91673 0.0
C1098 C 0.32798 0.07324 0.89639 0.0
N1099 N 0.34057 0.06721 0.90693 0.0
C1100 C 0.37556 0.12786 0.93365 0.0
C1101 C 0.37691 0.14067 0.90682 0.0
C1102 C 0.39397 0.12858 0.93531 0.0
N1103 N 0.36741 0.13394 0.91962 0.0
C1104 C 0.39533 0.1418 0.90804 0.0
C1105 C 0.40407 0.13565 0.9224 0.0
H1106 H 0.36775 0.12235 0.94353 0.0
H1107 H 0.37029 0.14496 0.89552 0.0
C1108 C 0.29504 0.13658 0.86913 0.0
N1109 N 0.30937 0.12845 0.8744 0.0
C1110 C 0.29029 0.13679 0.85173 0.0
C1111 C 0.31505 0.12012 0.84567 0.0
C1112 C 0.31935 0.12029 0.86314 0.0
C1113 C 0.30039 0.1285 0.83975 0.0
H1114 H 0.28741 0.14299 0.87844 0.0
H1115 H 0.33082 0.11411 0.86771 0.0
O1116 O 0.32957 0.1304 0.94061 0.0
O1117 O 0.29729 0.12819 0.91529 0.0
O1118 O 0.328 0.148 0.90593 0.0
O1119 O 0.33426 0.11388 0.90509 0.0
H1120 H 0.32241 0.12468 0.97334 0.0
H1121 H 0.34999 0.15496 0.93899 0.0
H1122 H 0.33295 0.14018 0.99802 0.0
H1123 H 0.35993 0.17002 0.96422 0.0
H1124 H 0.24802 0.10022 0.90387 0.0
H1125 H 0.2855 0.12578 0.94729 0.0
H1126 H 0.27526 0.11378 0.89444 0.0
H1127 H 0.25809 0.11203 0.9558 0.0
H1128 H 0.28638 0.17054 0.97585 0.0
H1129 H 0.29003 0.19589 0.92824 0.0
H1130 H 0.32511 0.07909 0.97218 0.0
H1131 H 0.28688 0.06566 0.93349 0.0
H1132 H 0.33795 0.14839 0.87322 0.0
H1133 H 0.3387 0.17364 0.92078 0.0
H1134 H 0.35474 0.16932 0.85932 0.0
H1135 H 0.35574 0.19399 0.90612 0.0
H1136 H 0.35784 0.09917 0.92404 0.0
H1137 H 0.31555 0.0938 0.88729 0.0
H1138 H 0.36112 0.07106 0.92501 0.0
H1139 H 0.31965 0.06579 0.8888 0.0
H1140 H 0.40023 0.12373 0.94661 0.0
H1141 H 0.40269 0.14708 0.89765 0.0
H1142 H 0.27884 0.14332 0.8477 0.0
H1143 H 0.32338 0.1138 0.83683 0.0
Li1144 Li 0.68439 0.85547 0.42739 0.0
Li1145 Li 0.68053 0.88225 0.42571 0.0
Li1146 Li 0.65567 0.86694 0.41913 0.0
Li1147 Li 0.68165 0.86952 0.3986 0.0
C1148 C 0.6598 0.8589 0.45331 0.0
N1149 N 0.64317 0.83995 0.47673 0.0
C1150 C 0.65911 0.86285 0.47075 0.0
C1151 C 0.65201 0.8453 0.44781 0.0
C1152 C 0.65066 0.85312 0.48238 0.0
C1153 C 0.64366 0.83588 0.45983 0.0
C1154 C 0.71561 0.87697 0.42205 0.0
C1155 C 0.74231 0.89137 0.41698 0.0
N1156 N 0.74587 0.89105 0.43416 0.0
C1157 C 0.71959 0.87666 0.43963 0.0
C1158 C 0.72708 0.88428 0.41059 0.0
C1159 C 0.73494 0.8839 0.44551 0.0
C1160 C 0.70182 0.82713 0.42837 0.0
N1161 N 0.6958 0.83881 0.43825 0.0
C1162 C 0.70606 0.82654 0.46383 0.0
C1163 C 0.69798 0.83884 0.45563 0.0
C1164 C 0.71219 0.81415 0.45403 0.0
C1165 C 0.71007 0.81461 0.43603 0.0
H1166 H 0.70018 0.82756 0.41454 0.0
H1167 H 0.69342 0.84842 0.46316 0.0
C1168 C 0.67964 0.90366 0.4524 0.0
N1169 N 0.68715 0.90089 0.4368 0.0
C1170 C 0.6835 0.91704 0.4613 0.0
C1171 C 0.70262 0.92464 0.43784 0.0
C1172 C 0.69843 0.91106 0.42941 0.0
C1173 C 0.69514 0.92774 0.45403 0.0
H1174 H 0.67045 0.89555 0.45782 0.0
H1175 H 0.70404 0.90873 0.41688 0.0
C1176 C 0.66222 0.83921 0.39748 0.0
N1177 N 0.64789 0.81604 0.3778 0.0
C1178 C 0.65635 0.84212 0.38071 0.0
C1179 C 0.66088 0.82448 0.4042 0.0
C1180 C 0.64913 0.83026 0.37098 0.0
C1181 C 0.65356 0.81293 0.39406 0.0
C1182 C 0.6624 0.90028 0.40561 0.0
C1183 C 0.65022 0.9075 0.41644 0.0
C1184 C 0.67323 0.90903 0.39485 0.0
C1185 C 0.64918 0.92339 0.41644 0.0
C1186 C 0.67175 0.92488 0.39519 0.0
N1187 N 0.65988 0.93167 0.40591 0.0
C1188 C 0.62229 0.87311 0.43331 0.0
C1189 C 0.62101 0.85636 0.40942 0.0
C1190 C 0.60386 0.87282 0.4349 0.0
N1191 N 0.63046 0.86506 0.42062 0.0
C1192 C 0.60256 0.8556 0.41064 0.0
C1193 C 0.59376 0.86403 0.42341 0.0
H1194 H 0.63012 0.87985 0.44215 0.0
H1195 H 0.62767 0.85013 0.39938 0.0
C1196 C 0.70286 0.86126 0.37005 0.0
N1197 N 0.68859 0.86954 0.3752 0.0
C1198 C 0.70764 0.86085 0.35266 0.0
C1199 C 0.68305 0.87763 0.34634 0.0
C1200 C 0.67871 0.87764 0.3638 0.0
C1201 C 0.69765 0.86912 0.34056 0.0
H1202 H 0.71042 0.85488 0.37945 0.0
H1203 H 0.66724 0.8839 0.36824 0.0
O1204 O 0.66822 0.8683 0.44184 0.0
O1205 O 0.70059 0.87007 0.41606 0.0
O1206 O 0.66961 0.85063 0.40712 0.0
O1207 O 0.66385 0.88476 0.40567 0.0
H1208 H 0.66517 0.87326 0.4753 0.0
H1209 H 0.65229 0.84206 0.43443 0.0
H1210 H 0.65008 0.85603 0.49591 0.0
H1211 H 0.63756 0.82534 0.45571 0.0
H1212 H 0.75127 0.89714 0.40829 0.0
H1213 H 0.7108 0.87107 0.44865 0.0
H1214 H 0.72416 0.88456 0.39694 0.0
H1215 H 0.73813 0.88386 0.4591 0.0
H1216 H 0.70724 0.82665 0.47773 0.0
H1217 H 0.71487 0.80546 0.42792 0.0
H1218 H 0.67716 0.91912 0.47359 0.0
H1219 H 0.71169 0.93258 0.4318 0.0
H1220 H 0.65709 0.85346 0.37536 0.0
H1221 H 0.66542 0.82197 0.4171 0.0
H1222 H 0.64446 0.83238 0.35802 0.0
H1223 H 0.65242 0.8015 0.39911 0.0
H1224 H 0.6418 0.90093 0.4249 0.0
H1225 H 0.6829 0.90365 0.38655 0.0
H1226 H 0.63989 0.92912 0.42484 0.0
H1227 H 0.68013 0.93179 0.38702 0.0
H1228 H 0.59757 0.87936 0.44503 0.0
H1229 H 0.59523 0.84881 0.40142 0.0
H1230 H 0.71904 0.85421 0.34872 0.0
H1231 H 0.6748 0.88392 0.33742 0.0
Li1232 Li 0.31898 0.86798 0.09944 0.0
Li1233 Li 0.34417 0.86479 0.07955 0.0
Li1234 Li 0.31853 0.88211 0.07206 0.0
Li1235 Li 0.31554 0.8544 0.07092 0.0
C1236 C 0.3397 0.89438 0.10338 0.0
N1237 N 0.34713 0.91604 0.12818 0.0
C1238 C 0.35652 0.89503 0.11089 0.0
C1239 C 0.32674 0.90488 0.10831 0.0
C1240 C 0.36 0.90603 0.12346 0.0
C1241 C 0.33073 0.91571 0.12091 0.0
C1242 C 0.34147 0.83769 0.09695 0.0
C1243 C 0.36072 0.81635 0.09119 0.0
N1244 N 0.36484 0.8156 0.10823 0.0
C1245 C 0.34572 0.83658 0.11443 0.0
C1246 C 0.34886 0.82739 0.08525 0.0
C1247 C 0.35763 0.82538 0.11987 0.0
C1248 C 0.29546 0.86459 0.12762 0.0
N1249 N 0.31231 0.86835 0.12306 0.0
C1250 C 0.32012 0.8726 0.15248 0.0
C1251 C 0.32466 0.87208 0.1351 0.0
C1252 C 0.3028 0.86893 0.15757 0.0
C1253 C 0.29039 0.86475 0.14494 0.0
H1254 H 0.28598 0.86143 0.1178 0.0
H1255 H 0.33814 0.87441 0.13125 0.0
C1256 C 0.37751 0.86547 0.06315 0.0
N1257 N 0.36923 0.86254 0.07835 0.0
C1258 C 0.39595 0.86449 0.06195 0.0
C1259 C 0.39697 0.85738 0.09202 0.0
C1260 C 0.37855 0.85869 0.09269 0.0
C1261 C 0.40588 0.86038 0.07652 0.0
H1262 H 0.36982 0.8688 0.05202 0.0
H1263 H 0.37173 0.85697 0.10476 0.0
C1264 C 0.28353 0.87667 0.08119 0.0
N1265 N 0.25135 0.8916 0.07905 0.0
C1266 C 0.27142 0.87283 0.06827 0.0
C1267 C 0.27914 0.8879 0.09321 0.0
C1268 C 0.25526 0.88057 0.06735 0.0
C1269 C 0.26285 0.89537 0.09186 0.0
C1270 C 0.3325 0.86188 0.04085 0.0
C1271 C 0.32381 0.86935 0.02737 0.0
C1272 C 0.34206 0.84859 0.03747 0.0
C1273 C 0.3245 0.86319 0.01079 0.0
C1274 C 0.34244 0.84278 0.02072 0.0
N1275 N 0.3337 0.85012 0.00784 0.0
C1276 C 0.32281 0.91315 0.06466 0.0
C1277 C 0.29852 0.9018 0.05017 0.0
C1278 C 0.31924 0.92715 0.05694 0.0
N1279 N 0.31238 0.90088 0.06133 0.0
C1280 C 0.29455 0.91557 0.04202 0.0
C1281 C 0.30497 0.92848 0.04543 0.0
H1282 H 0.33412 0.91203 0.0731 0.0
H1283 H 0.29076 0.89179 0.0473 0.0
C1284 C 0.30419 0.82405 0.06732 0.0
N1285 N 0.30419 0.83791 0.05951 0.0
C1286 C 0.29633 0.81155 0.05925 0.0
C1287 C 0.28847 0.82784 0.03533 0.0
C1288 C 0.29628 0.84006 0.04396 0.0
C1289 C 0.2885 0.81336 0.04297 0.0
H1290 H 0.31031 0.8227 0.07981 0.0
H1291 H 0.29598 0.85127 0.03826 0.0
O1292 O 0.33605 0.88362 0.09112 0.0
O1293 O 0.32994 0.84866 0.09138 0.0
O1294 O 0.2994 0.86919 0.0823 0.0
O1295 O 0.33181 0.86768 0.0572 0.0
H1296 H 0.36677 0.88709 0.10713 0.0
H1297 H 0.3138 0.90477 0.10236 0.0
H1298 H 0.37293 0.9066 0.12945 0.0
H1299 H 0.3208 0.92388 0.12487 0.0
H1300 H 0.36661 0.80836 0.08226 0.0
H1301 H 0.33999 0.84434 0.12369 0.0
H1302 H 0.34543 0.82787 0.07175 0.0
H1303 H 0.36113 0.82446 0.13334 0.0
H1304 H 0.33017 0.87554 0.1619 0.0
H1305 H 0.27692 0.8618 0.14842 0.0
H1306 H 0.40236 0.8669 0.04976 0.0
H1307 H 0.40421 0.85447 0.10362 0.0
H1308 H 0.27451 0.86405 0.05898 0.0
H1309 H 0.28812 0.89072 0.10357 0.0
H1310 H 0.24582 0.8778 0.05733 0.0
H1311 H 0.25931 0.90412 0.10105 0.0
H1312 H 0.3165 0.87973 0.0297 0.0
H1313 H 0.34917 0.84285 0.04766 0.0
H1314 H 0.31772 0.86878 0.00027 0.0
H1315 H 0.3497 0.83244 0.01796 0.0
H1316 H 0.32785 0.93674 0.05961 0.0
H1317 H 0.28347 0.91612 0.03317 0.0
H1318 H 0.29664 0.80054 0.06554 0.0
H1319 H 0.28229 0.82972 0.02291 0.0
Li1320 Li 0.65612 0.13264 0.57745 0.0
Li1321 Li 0.68105 0.12957 0.59753 0.0
Li1322 Li 0.68525 0.14356 0.5696 0.0
Li1323 Li 0.68239 0.11591 0.57066 0.0
C1324 C 0.66099 0.16203 0.59282 0.0
N1325 N 0.64317 0.18891 0.59943 0.0
C1326 C 0.65651 0.16599 0.60972 0.0
C1327 C 0.65666 0.17189 0.57933 0.0
C1328 C 0.64742 0.17958 0.61279 0.0
C1329 C 0.6476 0.18539 0.58292 0.0
C1330 C 0.65962 0.10557 0.6033 0.0
C1331 C 0.66699 0.0879 0.62599 0.0
N1332 N 0.65041 0.08957 0.63262 0.0
C1333 C 0.6426 0.10699 0.61024 0.0
C1334 C 0.67186 0.09583 0.61113 0.0
C1335 C 0.63822 0.09884 0.6251 0.0
C1336 C 0.62269 0.12762 0.56242 0.0
N1337 N 0.63109 0.13467 0.57571 0.0
C1338 C 0.60346 0.14354 0.58694 0.0
C1339 C 0.62188 0.14244 0.58794 0.0
C1340 C 0.59441 0.13638 0.57336 0.0
C1341 C 0.60425 0.12834 0.56098 0.0
H1342 H 0.63032 0.12133 0.55302 0.0
H1343 H 0.62876 0.14746 0.59871 0.0
C1344 C 0.70358 0.12766 0.62693 0.0
N1345 N 0.68655 0.12907 0.62138 0.0
C1346 C 0.70722 0.12646 0.64454 0.0
C1347 C 0.67576 0.12827 0.65025 0.0
C1348 C 0.67278 0.12972 0.63263 0.0
C1349 C 0.69314 0.1265 0.65636 0.0
H1350 H 0.71429 0.12731 0.61768 0.0
H1351 H 0.65941 0.13112 0.62787 0.0
C1352 C 0.66514 0.13596 0.53959 0.0
N1353 N 0.65629 0.14719 0.50744 0.0
C1354 C 0.67279 0.12974 0.52476 0.0
C1355 C 0.65271 0.14767 0.53801 0.0
C1356 C 0.66823 0.13564 0.50864 0.0
C1357 C 0.64848 0.15325 0.52166 0.0
C1358 C 0.71643 0.121 0.57712 0.0
C1359 C 0.72737 0.12616 0.56382 0.0
C1360 C 0.72096 0.10779 0.58614 0.0
C1361 C 0.74255 0.11785 0.55956 0.0
C1362 C 0.73623 0.09979 0.58148 0.0
N1363 N 0.74661 0.10494 0.56839 0.0
C1364 C 0.69963 0.1731 0.56813 0.0
C1365 C 0.70153 0.15938 0.54191 0.0
C1366 C 0.70726 0.18589 0.56045 0.0
N1367 N 0.69661 0.16031 0.55872 0.0
C1368 C 0.7092 0.17187 0.53371 0.0
C1369 C 0.71198 0.18542 0.54295 0.0
H1370 H 0.69591 0.17343 0.58158 0.0
H1371 H 0.69962 0.1489 0.53489 0.0
C1372 C 0.68211 0.0842 0.56576 0.0
N1373 N 0.68925 0.0974 0.55981 0.0
C1374 C 0.68628 0.07038 0.55791 0.0
C1375 C 0.70506 0.08394 0.53788 0.0
C1376 C 0.70055 0.09752 0.54616 0.0
C1377 C 0.69782 0.07013 0.54371 0.0
H1378 H 0.67291 0.08443 0.57641 0.0
H1379 H 0.70594 0.10818 0.5416 0.0
O1380 O 0.66984 0.14871 0.58963 0.0
O1381 O 0.66422 0.11364 0.58889 0.0
O1382 O 0.66947 0.13029 0.55548 0.0
O1383 O 0.70141 0.12889 0.58135 0.0
H1384 H 0.65994 0.15862 0.62036 0.0
H1385 H 0.6605 0.1693 0.56627 0.0
H1386 H 0.64378 0.18272 0.62579 0.0
H1387 H 0.64415 0.19311 0.57258 0.0
H1388 H 0.67639 0.08042 0.63226 0.0
H1389 H 0.6329 0.11438 0.6043 0.0
H1390 H 0.68504 0.09451 0.60587 0.0
H1391 H 0.62513 0.09991 0.63067 0.0
H1392 H 0.59634 0.14956 0.59696 0.0
H1393 H 0.59777 0.1227 0.55028 0.0
H1394 H 0.72079 0.12514 0.64886 0.0
H1395 H 0.66461 0.12857 0.65904 0.0
H1396 H 0.68224 0.12053 0.52568 0.0
H1397 H 0.64618 0.15228 0.54923 0.0
H1398 H 0.67417 0.13101 0.49709 0.0
H1399 H 0.63891 0.16234 0.52028 0.0
H1400 H 0.72413 0.13641 0.55678 0.0
H1401 H 0.71274 0.10372 0.59657 0.0
H1402 H 0.75108 0.12166 0.54923 0.0
H1403 H 0.73983 0.08949 0.58828 0.0
H1404 H 0.7091 0.19611 0.56805 0.0
H1405 H 0.71305 0.17089 0.52031 0.0
H1406 H 0.68012 0.06004 0.56262 0.0
H1407 H 0.71409 0.08425 0.52704 0.0
C1408 C 0.06519 0.37504 0.07156 0.0
C1409 C 0.07567 0.36187 0.07354 0.0
C1410 C 0.04671 0.37406 0.07138 0.0
C1411 C 0.00984 0.35236 0.08768 0.0
H1412 H 0.98307 0.36961 0.04977 0.0
C1413 C 0.93349 0.34748 0.0846 0.0
C1414 C 0.92409 0.35974 0.07748 0.0
C1415 C 0.95199 0.34698 0.08355 0.0
C1416 C 0.99027 0.36495 0.06062 0.0
H1417 H 0.07461 0.33729 0.07668 0.0
H1418 H 0.04231 0.33579 0.07717 0.0
H1419 H 0.01536 0.37043 0.04921 0.0
H1420 H 0.92648 0.38124 0.06405 0.0
H1421 H 0.95873 0.38079 0.06286 0.0
H1422 H 0.98494 0.34748 0.09957 0.0
C1423 C 0.04858 0.34681 0.07563 0.0
C1424 C 0.00878 0.36533 0.06019 0.0
C1425 C 0.06708 0.34772 0.07546 0.0
C1426 C 0.93346 0.37156 0.06945 0.0
C1427 C 0.95195 0.37122 0.06868 0.0
C1428 C 0.99132 0.35224 0.08829 0.0
C1429 C 0.03826 0.35996 0.07352 0.0
C1430 C 0.0187 0.35908 0.07373 0.0
C1431 C 0.9615 0.35889 0.07564 0.0
C1432 C 0.98125 0.35859 0.0748 0.0
H1433 H 0.0712 0.38619 0.07045 0.0
H1434 H 0.03899 0.38438 0.06993 0.0
H1435 H 0.01726 0.34759 0.09835 0.0
H1436 H 0.9265 0.33817 0.09073 0.0
H1437 H 0.95878 0.33715 0.08878 0.0
C1438 C 0.93252 0.64975 0.56878 0.0
C1439 C 0.92379 0.6357 0.57083 0.0
C1440 C 0.95103 0.65044 0.56806 0.0
C1441 C 0.99043 0.62735 0.55853 0.0
H1442 H 0.0154 0.65675 0.58682 0.0
C1443 C 0.06565 0.62343 0.57031 0.0
C1444 C 0.07543 0.637 0.5715 0.0
C1445 C 0.04717 0.62381 0.56932 0.0
C1446 C 0.00866 0.64863 0.57862 0.0
H1447 H 0.92784 0.61137 0.57394 0.0
H1448 H 0.96004 0.61258 0.57231 0.0
H1449 H 0.98306 0.65655 0.58657 0.0
H1450 H 0.07357 0.66162 0.5722 0.0
H1451 H 0.04128 0.66231 0.57017 0.0
H1452 H 0.01593 0.61946 0.55045 0.0
C1453 C 0.95252 0.62304 0.57112 0.0
C1454 C 0.99013 0.6485 0.57852 0.0
C1455 C 0.93405 0.62236 0.57201 0.0
C1456 C 0.06635 0.65097 0.5715 0.0
C1457 C 0.04786 0.65136 0.57038 0.0
C1458 C 0.00895 0.62755 0.55851 0.0
C1459 C 0.9612 0.63708 0.56919 0.0
C1460 C 0.98084 0.63774 0.56863 0.0
C1461 C 0.03802 0.63777 0.56937 0.0
C1462 C 0.01831 0.63808 0.56871 0.0
H1463 H 0.92506 0.66023 0.56755 0.0
H1464 H 0.95737 0.6614 0.56639 0.0
H1465 H 0.9836 0.61907 0.55058 0.0
H1466 H 0.07226 0.61249 0.57055 0.0
H1467 H 0.04004 0.61311 0.5689 0.0
C1468 C 0.93363 0.6328 0.90547 0.0
C1469 C 0.92384 0.63991 0.91863 0.0
C1470 C 0.95214 0.63299 0.90568 0.0
C1471 C 0.99083 0.65242 0.92582 0.0
H1472 H 0.01585 0.61657 0.90968 0.0
C1473 C 0.06618 0.6422 0.93569 0.0
C1474 C 0.0756 0.6374 0.92104 0.0
C1475 C 0.04767 0.64305 0.93536 0.0
C1476 C 0.00902 0.6267 0.91411 0.0
H1477 H 0.92606 0.65305 0.94223 0.0
H1478 H 0.95828 0.65275 0.94303 0.0
H1479 H 0.98357 0.61689 0.90944 0.0
H1480 H 0.0731 0.62967 0.89463 0.0
H1481 H 0.04072 0.63101 0.89413 0.0
H1482 H 0.01647 0.66198 0.93092 0.0
C1483 C 0.95164 0.6473 0.93231 0.0
C1484 C 0.99052 0.62694 0.91391 0.0
C1485 C 0.9331 0.64727 0.93199 0.0
C1486 C 0.06617 0.63351 0.90606 0.0
C1487 C 0.04767 0.63417 0.90581 0.0
C1488 C 0.00936 0.65209 0.92623 0.0
C1489 C 0.96141 0.64011 0.91919 0.0
C1490 C 0.98115 0.63984 0.91965 0.0
C1491 C 0.03825 0.63891 0.92047 0.0
C1492 C 0.01862 0.63926 0.92028 0.0
H1493 H 0.92703 0.62681 0.89509 0.0
H1494 H 0.95916 0.62756 0.89518 0.0
H1495 H 0.98412 0.66265 0.9301 0.0
H1496 H 0.07314 0.64534 0.94737 0.0
H1497 H 0.0407 0.64667 0.94686 0.0
C1498 C 0.06518 0.3471 0.42116 0.0
C1499 C 0.07442 0.36065 0.4247 0.0
C1500 C 0.04665 0.34686 0.42128 0.0
C1501 C 0.00821 0.37182 0.41555 0.0
H1502 H 0.98189 0.3392 0.43748 0.0
C1503 C 0.93292 0.36404 0.40609 0.0
C1504 C 0.92294 0.36157 0.42111 0.0
C1505 C 0.95142 0.36343 0.40659 0.0
C1506 C 0.98908 0.3484 0.43135 0.0
H1507 H 0.07151 0.38453 0.43117 0.0
H1508 H 0.03914 0.3841 0.43141 0.0
H1509 H 0.01431 0.33927 0.43877 0.0
H1510 H 0.92444 0.35612 0.44831 0.0
H1511 H 0.95682 0.35503 0.44917 0.0
H1512 H 0.98303 0.38098 0.40817 0.0
C1513 C 0.04624 0.37368 0.42851 0.0
C1514 C 0.00761 0.34838 0.43198 0.0
C1515 C 0.06476 0.3739 0.42854 0.0
C1516 C 0.93181 0.3582 0.43657 0.0
C1517 C 0.95032 0.35745 0.43703 0.0
C1518 C 0.98972 0.37176 0.41479 0.0
C1519 C 0.037 0.36019 0.42477 0.0
C1520 C 0.01735 0.36013 0.42413 0.0
C1521 C 0.96031 0.36021 0.42208 0.0
C1522 C 0.97996 0.36008 0.42271 0.0
H1523 H 0.07229 0.33669 0.41829 0.0
H1524 H 0.03987 0.33632 0.41825 0.0
H1525 H 0.01538 0.38094 0.40924 0.0
H1526 H 0.92645 0.36677 0.39402 0.0
H1527 H 0.95879 0.36547 0.39483 0.0
C1528 C 0.43508 0.87182 0.06833 0.0
C1529 C 0.42549 0.85979 0.07577 0.0
C1530 C 0.4536 0.87164 0.06833 0.0
C1531 C 0.49219 0.84655 0.07077 0.0
H1532 H 0.5169 0.88254 0.08703 0.0
C1533 C 0.56788 0.85613 0.06335 0.0
C1534 C 0.57684 0.86133 0.0781 0.0
C1535 C 0.54938 0.8553 0.06314 0.0
C1536 C 0.51016 0.8724 0.08251 0.0
H1537 H 0.42766 0.83797 0.08864 0.0
H1538 H 0.46013 0.83757 0.08844 0.0
H1539 H 0.4845 0.88233 0.08614 0.0
H1540 H 0.57353 0.86973 0.10416 0.0
H1541 H 0.54113 0.86843 0.10372 0.0
H1542 H 0.51791 0.83667 0.06702 0.0
C1543 C 0.45329 0.84715 0.0827 0.0
C1544 C 0.49166 0.87233 0.08187 0.0
C1545 C 0.43476 0.84743 0.08291 0.0
C1546 C 0.56696 0.86559 0.09267 0.0
C1547 C 0.54845 0.86495 0.09237 0.0
C1548 C 0.51072 0.8467 0.07117 0.0
C1549 C 0.46287 0.85933 0.07557 0.0
C1550 C 0.4825 0.85939 0.07604 0.0
C1551 C 0.53949 0.85985 0.07759 0.0
C1552 C 0.51987 0.85961 0.07712 0.0
H1553 H 0.42827 0.88154 0.06285 0.0
H1554 H 0.46069 0.88112 0.06265 0.0
H1555 H 0.48542 0.83646 0.06614 0.0
H1556 H 0.5752 0.85269 0.052 0.0
H1557 H 0.54277 0.8514 0.05156 0.0
C1558 C 0.56561 0.15052 0.57574 0.0
C1559 C 0.57478 0.13688 0.57252 0.0
C1560 C 0.54708 0.15082 0.57564 0.0
C1561 C 0.50853 0.1261 0.582 0.0
H1562 H 0.48235 0.15843 0.55936 0.0
C1563 C 0.43331 0.13436 0.5914 0.0
C1564 C 0.42331 0.13662 0.57634 0.0
C1565 C 0.45181 0.13488 0.59086 0.0
C1566 C 0.4895 0.14931 0.56569 0.0
H1567 H 0.57175 0.11288 0.56663 0.0
H1568 H 0.53938 0.11342 0.56642 0.0
H1569 H 0.51477 0.15821 0.55803 0.0
H1570 H 0.42478 0.1416 0.54903 0.0
H1571 H 0.45716 0.14253 0.54809 0.0
H1572 H 0.48331 0.11718 0.58962 0.0
C1573 C 0.54654 0.12386 0.56906 0.0
C1574 C 0.50803 0.14925 0.56503 0.0
C1575 C 0.56505 0.12359 0.56902 0.0
C1576 C 0.43217 0.13969 0.5608 0.0
C1577 C 0.45067 0.14035 0.56029 0.0
C1578 C 0.49004 0.12625 0.58279 0.0
C1579 C 0.53736 0.13746 0.57248 0.0
C1580 C 0.51772 0.1376 0.57313 0.0
C1581 C 0.46068 0.1378 0.57528 0.0
C1582 C 0.48033 0.13783 0.57461 0.0
H1583 H 0.57277 0.16096 0.57835 0.0
H1584 H 0.54036 0.16144 0.57842 0.0
H1585 H 0.51566 0.11707 0.5885 0.0
H1586 H 0.42684 0.13186 0.60353 0.0
H1587 H 0.45919 0.13301 0.60264 0.0
C1588 C 0.56651 0.1494 0.92504 0.0
C1589 C 0.57533 0.13527 0.9254 0.0
C1590 C 0.54799 0.15009 0.9254 0.0
C1591 C 0.50862 0.12883 0.9387 0.0
H1592 H 0.4839 0.15273 0.90426 0.0
C1593 C 0.43332 0.12323 0.92829 0.0
C1594 C 0.42366 0.13627 0.92369 0.0
C1595 C 0.45181 0.12367 0.9291 0.0
C1596 C 0.49055 0.14621 0.91417 0.0
H1597 H 0.57137 0.11078 0.92625 0.0
H1598 H 0.53915 0.11207 0.92745 0.0
H1599 H 0.51623 0.15269 0.90488 0.0
H1600 H 0.42569 0.16009 0.9167 0.0
H1601 H 0.45797 0.16102 0.91856 0.0
H1602 H 0.48309 0.1225 0.94824 0.0
C1603 C 0.54664 0.12259 0.92693 0.0
C1604 C 0.50908 0.14615 0.91446 0.0
C1605 C 0.56513 0.12188 0.92632 0.0
C1606 C 0.43284 0.14982 0.9201 0.0
C1607 C 0.45133 0.15032 0.92111 0.0
C1608 C 0.49011 0.12902 0.93857 0.0
C1609 C 0.5379 0.13669 0.92639 0.0
C1610 C 0.51828 0.13733 0.92661 0.0
C1611 C 0.46108 0.13722 0.92553 0.0
C1612 C 0.48081 0.13758 0.92617 0.0
H1613 H 0.57388 0.15997 0.92464 0.0
H1614 H 0.54156 0.16111 0.92514 0.0
H1615 H 0.51542 0.12208 0.94835 0.0
H1616 H 0.42659 0.11258 0.93088 0.0
H1617 H 0.45884 0.11327 0.9322 0.0
C1618 C 0.4321 0.87879 0.42123 0.0
C1619 C 0.42234 0.86518 0.42242 0.0
C1620 C 0.4506 0.87861 0.42192 0.0
C1621 C 0.48882 0.85431 0.43468 0.0
H1622 H 0.51516 0.88243 0.40589 0.0
C1623 C 0.56461 0.85029 0.42316 0.0
C1624 C 0.57414 0.86399 0.42438 0.0
C1625 C 0.54608 0.85035 0.42356 0.0
C1626 C 0.50797 0.8746 0.41411 0.0
H1627 H 0.42457 0.84069 0.42549 0.0
H1628 H 0.45679 0.8403 0.42591 0.0
H1629 H 0.48288 0.88257 0.40506 0.0
H1630 H 0.5718 0.88849 0.42692 0.0
H1631 H 0.5394 0.8886 0.4275 0.0
H1632 H 0.51407 0.84614 0.44336 0.0
C1633 C 0.45013 0.85118 0.4248 0.0
C1634 C 0.48946 0.8747 0.41369 0.0
C1635 C 0.43161 0.85138 0.42429 0.0
C1636 C 0.5648 0.87775 0.42609 0.0
C1637 C 0.54628 0.87783 0.42628 0.0
C1638 C 0.50735 0.85411 0.43494 0.0
C1639 C 0.45988 0.86479 0.42362 0.0
C1640 C 0.47962 0.8646 0.42402 0.0
C1641 C 0.53674 0.86414 0.42496 0.0
C1642 C 0.51709 0.86429 0.4247 0.0
H1643 H 0.42548 0.88963 0.41955 0.0
H1644 H 0.45762 0.88935 0.42122 0.0
H1645 H 0.48172 0.84654 0.44303 0.0
H1646 H 0.57149 0.83951 0.42195 0.0
H1647 H 0.53904 0.83964 0.42242 0.0
C1648 C 0.18841 0.38496 0.18421 0.0
C1649 C 0.19674 0.37315 0.17505 0.0
C1650 C 0.18994 0.38586 0.20209 0.0
C1651 C 0.21585 0.37323 0.23961 0.0
H1652 H 0.17127 0.3784 0.26378 0.0
C1653 C 0.20807 0.36424 0.31333 0.0
C1654 C 0.19571 0.37342 0.32198 0.0
C1655 C 0.20975 0.36512 0.2954 0.0
C1656 C 0.1839 0.37723 0.25729 0.0
H1657 H 0.21374 0.35334 0.17744 0.0
H1658 H 0.21651 0.35501 0.20878 0.0
H1659 H 0.17165 0.37847 0.23251 0.0
H1660 H 0.17623 0.39133 0.31902 0.0
H1661 H 0.17949 0.39325 0.28788 0.0
H1662 H 0.22812 0.37207 0.26448 0.0
C1663 C 0.20885 0.36358 0.20204 0.0
C1664 C 0.18409 0.37722 0.23934 0.0
C1665 C 0.20726 0.36263 0.18411 0.0
C1666 C 0.18564 0.38396 0.31257 0.0
C1667 C 0.18747 0.38498 0.29473 0.0
C1668 C 0.21569 0.37338 0.25765 0.0
C1669 C 0.1999 0.37503 0.21122 0.0
C1670 C 0.20004 0.37523 0.2303 0.0
C1671 C 0.19921 0.37532 0.28586 0.0
C1672 C 0.19969 0.3754 0.2667 0.0
H1673 H 0.18057 0.39346 0.17758 0.0
H1674 H 0.18316 0.39497 0.20881 0.0
H1675 H 0.22835 0.37176 0.23294 0.0
H1676 H 0.21593 0.35599 0.32034 0.0
H1677 H 0.21881 0.35742 0.28899 0.0
C1678 C 0.80461 0.61298 0.6838 0.0
C1679 C 0.80027 0.62636 0.67482 0.0
C1680 C 0.80243 0.61216 0.70162 0.0
C1681 C 0.78093 0.63064 0.73913 0.0
H1682 H 0.82032 0.61275 0.76404 0.0
C1683 C 0.79199 0.63785 0.81268 0.0
C1684 C 0.79909 0.6254 0.82171 0.0
C1685 C 0.79002 0.63723 0.79477 0.0
C1686 C 0.80907 0.61757 0.7573 0.0
H1687 H 0.78977 0.64922 0.67741 0.0
H1688 H 0.7861 0.64784 0.70865 0.0
H1689 H 0.82069 0.61301 0.73276 0.0
H1690 H 0.80861 0.60221 0.81927 0.0
H1691 H 0.80506 0.60107 0.78809 0.0
H1692 H 0.76947 0.63539 0.76383 0.0
C1693 C 0.79099 0.63792 0.70186 0.0
C1694 C 0.80928 0.61772 0.73934 0.0
C1695 C 0.79312 0.63873 0.68398 0.0
C1696 C 0.80343 0.61209 0.8126 0.0
C1697 C 0.80141 0.61145 0.79475 0.0
C1698 C 0.78071 0.63049 0.75716 0.0
C1699 C 0.79593 0.62471 0.71091 0.0
C1700 C 0.79524 0.62426 0.73003 0.0
C1701 C 0.79508 0.62413 0.78557 0.0
C1702 C 0.79481 0.62396 0.76644 0.0
H1703 H 0.80982 0.60316 0.67703 0.0
H1704 H 0.806 0.6017 0.70816 0.0
H1705 H 0.76984 0.63565 0.73231 0.0
H1706 H 0.78864 0.64829 0.81935 0.0
H1707 H 0.78524 0.64724 0.78807 0.0
C1708 C 0.2024 0.6122 0.81462 0.0
C1709 C 0.20193 0.62614 0.82353 0.0
C1710 C 0.20451 0.61188 0.79676 0.0
C1711 C 0.21857 0.63452 0.75904 0.0
H1712 H 0.18511 0.60891 0.73456 0.0
C1713 C 0.20474 0.64013 0.68588 0.0
C1714 C 0.20085 0.62679 0.67663 0.0
C1715 C 0.20705 0.63963 0.70376 0.0
C1716 C 0.19478 0.61593 0.74115 0.0
H1717 H 0.20386 0.65066 0.82063 0.0
H1718 H 0.2077 0.65006 0.78943 0.0
H1719 H 0.18552 0.60871 0.76586 0.0
H1720 H 0.19738 0.60236 0.67863 0.0
H1721 H 0.20169 0.60141 0.70972 0.0
H1722 H 0.22775 0.64181 0.73425 0.0
C1723 C 0.20653 0.63939 0.79632 0.0
C1724 C 0.19499 0.61583 0.75912 0.0
C1725 C 0.20434 0.63972 0.81421 0.0
C1726 C 0.20004 0.61286 0.68548 0.0
C1727 C 0.20247 0.61234 0.7033 0.0
C1728 C 0.21843 0.63457 0.74101 0.0
C1729 C 0.20628 0.62548 0.78738 0.0
C1730 C 0.2068 0.62517 0.76827 0.0
C1731 C 0.20563 0.62575 0.71271 0.0
C1732 C 0.20646 0.62533 0.73185 0.0
H1733 H 0.20096 0.60152 0.82144 0.0
H1734 H 0.20458 0.60097 0.79024 0.0
H1735 H 0.22794 0.64175 0.76576 0.0
H1736 H 0.20531 0.65105 0.6794 0.0
H1737 H 0.20929 0.65019 0.71061 0.0
C1738 C 0.7943 0.37996 0.18656 0.0
C1739 C 0.7948 0.36648 0.1768 0.0
C1740 C 0.7916 0.37942 0.20434 0.0
C1741 C 0.79799 0.35367 0.24097 0.0
H1742 H 0.77143 0.38434 0.26599 0.0
C1743 C 0.79345 0.35278 0.31496 0.0
C1744 C 0.7963 0.3668 0.32325 0.0
C1745 C 0.79058 0.35219 0.2972 0.0
C1746 C 0.77896 0.37574 0.25918 0.0
H1747 H 0.79227 0.3419 0.17799 0.0
H1748 H 0.78726 0.34099 0.20902 0.0
H1749 H 0.77088 0.38422 0.23452 0.0
H1750 H 0.79807 0.39121 0.31944 0.0
H1751 H 0.79314 0.39019 0.28842 0.0
H1752 H 0.8064 0.34538 0.26553 0.0
C1753 C 0.78918 0.35196 0.20292 0.0
C1754 C 0.77864 0.37567 0.24117 0.0
C1755 C 0.79186 0.35249 0.18512 0.0
C1756 C 0.79572 0.38025 0.31346 0.0
C1757 C 0.79287 0.37966 0.29569 0.0
C1758 C 0.79831 0.35374 0.25895 0.0
C1759 C 0.78934 0.36539 0.21278 0.0
C1760 C 0.78834 0.36475 0.23187 0.0
C1761 C 0.79052 0.3656 0.28732 0.0
C1762 C 0.78899 0.3649 0.26826 0.0
H1763 H 0.79628 0.39093 0.18048 0.0
H1764 H 0.79194 0.38997 0.21156 0.0
H1765 H 0.80585 0.34526 0.23421 0.0
H1766 H 0.79352 0.34224 0.32221 0.0
H1767 H 0.78852 0.3412 0.29117 0.0
C1768 C 0.70119 0.88184 0.31185 0.0
C1769 C 0.70198 0.86856 0.32192 0.0
C1770 C 0.70389 0.88117 0.29407 0.0
C1771 C 0.69976 0.85471 0.25787 0.0
H1772 H 0.72489 0.88614 0.23265 0.0
C1773 C 0.70524 0.85311 0.18386 0.0
C1774 C 0.70231 0.86697 0.17527 0.0
C1775 C 0.7077 0.85281 0.2017 0.0
C1776 C 0.71773 0.87732 0.2395 0.0
H1777 H 0.70664 0.8442 0.32129 0.0
H1778 H 0.7115 0.84304 0.2902 0.0
H1779 H 0.72492 0.8865 0.26411 0.0
H1780 H 0.6998 0.89138 0.17862 0.0
H1781 H 0.7039 0.89086 0.20975 0.0
H1782 H 0.69214 0.84575 0.23336 0.0
C1783 C 0.70867 0.85396 0.29608 0.0
C1784 C 0.71778 0.87752 0.25751 0.0
C1785 C 0.70605 0.85465 0.3139 0.0
C1786 C 0.70227 0.88055 0.18484 0.0
C1787 C 0.70465 0.88024 0.20269 0.0
C1788 C 0.69966 0.85454 0.23988 0.0
C1789 C 0.70737 0.86718 0.28595 0.0
C1790 C 0.70861 0.86632 0.26689 0.0
C1791 C 0.7072 0.86635 0.21136 0.0
C1792 C 0.70845 0.86595 0.23047 0.0
H1793 H 0.69827 0.89276 0.31771 0.0
H1794 H 0.70266 0.89154 0.28662 0.0
H1795 H 0.69234 0.84605 0.26471 0.0
H1796 H 0.70561 0.84249 0.17678 0.0
H1797 H 0.70993 0.84194 0.20793 0.0
C1798 C 0.29723 0.11566 0.81105 0.0
C1799 C 0.29615 0.12895 0.82108 0.0
C1800 C 0.29461 0.11627 0.79325 0.0
C1801 C 0.29833 0.14282 0.75705 0.0
H1802 H 0.27447 0.11079 0.73164 0.0
C1803 C 0.29337 0.14421 0.68301 0.0
C1804 C 0.29712 0.13045 0.6745 0.0
C1805 C 0.29068 0.14446 0.70082 0.0
C1806 C 0.28126 0.11978 0.73855 0.0
H1807 H 0.29102 0.15324 0.82037 0.0
H1808 H 0.28625 0.15427 0.78928 0.0
H1809 H 0.27412 0.11047 0.76309 0.0
H1810 H 0.30079 0.10616 0.67796 0.0
H1811 H 0.29621 0.1066 0.70903 0.0
H1812 H 0.30586 0.15195 0.7326 0.0
C1813 C 0.28928 0.1434 0.79518 0.0
C1814 C 0.28104 0.1196 0.75656 0.0
C1815 C 0.29184 0.14278 0.813 0.0
C1816 C 0.2977 0.11691 0.68411 0.0
C1817 C 0.29505 0.11716 0.70192 0.0
C1818 C 0.29858 0.14299 0.73907 0.0
C1819 C 0.2909 0.13019 0.78508 0.0
C1820 C 0.28978 0.13101 0.766 0.0
C1821 C 0.29172 0.13097 0.71052 0.0
C1822 C 0.29025 0.13136 0.7296 0.0
H1823 H 0.30032 0.1048 0.81693 0.0
H1824 H 0.2961 0.1059 0.78582 0.0
H1825 H 0.30543 0.15165 0.76394 0.0
H1826 H 0.29256 0.1548 0.6759 0.0
H1827 H 0.28786 0.15525 0.707 0.0
C1828 C 0.70621 0.1351 0.81283 0.0
C1829 C 0.69678 0.12384 0.82191 0.0
C1830 C 0.70795 0.13424 0.79491 0.0
C1831 C 0.68467 0.11919 0.75756 0.0
H1832 H 0.72833 0.12685 0.73265 0.0
C1833 C 0.68677 0.11352 0.6842 0.0
C1834 C 0.69631 0.12455 0.675 0.0
C1835 C 0.68859 0.11234 0.70203 0.0
C1836 C 0.71599 0.12484 0.73941 0.0
H1837 H 0.68267 0.10242 0.81935 0.0
H1838 H 0.68541 0.10112 0.78811 0.0
H1839 H 0.72841 0.12699 0.76418 0.0
H1840 H 0.71557 0.14273 0.67697 0.0
H1841 H 0.71837 0.14108 0.70831 0.0
H1842 H 0.67202 0.11754 0.73307 0.0
C1843 C 0.69127 0.11068 0.79485 0.0
C1844 C 0.71607 0.12488 0.75744 0.0
C1845 C 0.68965 0.11147 0.81273 0.0
C1846 C 0.70814 0.1341 0.68384 0.0
C1847 C 0.70977 0.13309 0.70176 0.0
C1848 C 0.68453 0.11932 0.73961 0.0
C1849 C 0.70018 0.12217 0.78574 0.0
C1850 C 0.70041 0.12199 0.76666 0.0
C1851 C 0.69976 0.12236 0.71111 0.0
C1852 C 0.70019 0.12207 0.73027 0.0
H1853 H 0.71173 0.14486 0.81947 0.0
H1854 H 0.71477 0.14332 0.78817 0.0
H1855 H 0.67233 0.11722 0.76435 0.0
H1856 H 0.67777 0.10587 0.67759 0.0
H1857 H 0.68104 0.10367 0.70871 0.0
C1858 C 0.2895 0.85658 0.18365 0.0
C1859 C 0.29799 0.86914 0.17605 0.0
C1860 C 0.28648 0.85625 0.20142 0.0
C1861 C 0.28355 0.88024 0.24025 0.0
H1862 H 0.30159 0.84471 0.26415 0.0
C1863 C 0.29941 0.88086 0.3128 0.0
C1864 C 0.29714 0.86744 0.32237 0.0
C1865 C 0.29683 0.88086 0.29498 0.0
C1866 C 0.29613 0.8546 0.25773 0.0
H1867 H 0.30921 0.89146 0.18083 0.0
H1868 H 0.30378 0.89095 0.21185 0.0
H1869 H 0.3012 0.84511 0.2328 0.0
H1870 H 0.2897 0.84365 0.32097 0.0
H1871 H 0.28477 0.84368 0.28989 0.0
H1872 H 0.27852 0.88978 0.26513 0.0
C1873 C 0.29952 0.88135 0.20411 0.0
C1874 C 0.29596 0.85482 0.23974 0.0
C1875 C 0.30275 0.8816 0.18641 0.0
C1876 C 0.29177 0.8541 0.31385 0.0
C1877 C 0.289 0.85413 0.29605 0.0
C1878 C 0.28355 0.87996 0.25825 0.0
C1879 C 0.29165 0.86857 0.21184 0.0
C1880 C 0.28998 0.86775 0.23083 0.0
C1881 C 0.29174 0.86746 0.28634 0.0
C1882 C 0.29017 0.86725 0.26723 0.0
H1883 H 0.28578 0.8468 0.17594 0.0
H1884 H 0.28031 0.84629 0.20706 0.0
H1885 H 0.27869 0.89029 0.23368 0.0
H1886 H 0.30375 0.89126 0.31903 0.0
H1887 H 0.29938 0.89127 0.28793 0.0
C1888 C 0.26613 0.207 0.95437 0.0
C1889 C 0.27987 0.19859 0.962 0.0
C1890 C 0.25896 0.21964 0.96281 0.0
C1891 C 0.25599 0.23766 0.00606 0.0
H1892 H 0.24086 0.27288 0.97975 0.0
C1893 C 0.23651 0.29507 0.03723 0.0
C1894 C 0.22034 0.30139 0.03166 0.0
C1895 C 0.24389 0.28259 0.02869 0.0
C1896 C 0.24495 0.26307 0.98723 0.0
H1897 H 0.29723 0.19698 0.98416 0.0
H1898 H 0.2851 0.21925 0.9987 0.0
H1899 H 0.25382 0.2511 0.96486 0.0
H1900 H 0.19923 0.2993 0.01275 0.0
H1901 H 0.21248 0.27784 0.99757 0.0
H1902 H 0.24746 0.24989 0.02846 0.0
C1903 C 0.27945 0.21588 0.98646 0.0
C1904 C 0.2523 0.25056 0.97871 0.0
C1905 C 0.28646 0.20315 0.97811 0.0
C1906 C 0.21186 0.29497 0.01723 0.0
C1907 C 0.21938 0.28263 0.00856 0.0
C1908 C 0.24886 0.25026 0.01458 0.0
C1909 C 0.26553 0.22425 0.97896 0.0
C1910 C 0.25786 0.23766 0.98802 0.0
C1911 C 0.23542 0.27629 0.01426 0.0
C1912 C 0.24322 0.26305 0.00523 0.0
H1913 H 0.26069 0.20362 0.94203 0.0
H1914 H 0.24806 0.22563 0.95677 0.0
H1915 H 0.25979 0.22783 0.01363 0.0
H1916 H 0.24361 0.29987 0.04807 0.0
H1917 H 0.25638 0.278 0.03322 0.0
C1918 C 0.77108 0.69627 0.51707 0.0
C1919 C 0.78026 0.69826 0.53264 0.0
C1920 C 0.76376 0.70876 0.50849 0.0
C1921 C 0.75011 0.74889 0.51527 0.0
H1922 H 0.75184 0.75055 0.46536 0.0
C1923 C 0.73183 0.80288 0.47686 0.0
C1924 C 0.72061 0.80084 0.46257 0.0
C1925 C 0.73928 0.79035 0.48525 0.0
C1926 C 0.75115 0.75018 0.4793 0.0
H1927 H 0.78924 0.71489 0.55134 0.0
H1928 H 0.77677 0.73675 0.53624 0.0
H1929 H 0.76456 0.72875 0.4804 0.0
H1930 H 0.70846 0.78394 0.44591 0.0
H1931 H 0.72174 0.76209 0.4604 0.0
H1932 H 0.73692 0.77046 0.51412 0.0
C1933 C 0.77483 0.72551 0.53082 0.0
C1934 C 0.75838 0.73768 0.48793 0.0
C1935 C 0.78202 0.713 0.53947 0.0
C1936 C 0.71725 0.78595 0.45671 0.0
C1937 C 0.72481 0.77343 0.46503 0.0
C1938 C 0.74302 0.76145 0.50665 0.0
C1939 C 0.76559 0.72354 0.51523 0.0
C1940 C 0.75793 0.73686 0.50603 0.0
C1941 C 0.73579 0.7755 0.47946 0.0
C1942 C 0.74344 0.76221 0.48857 0.0
H1943 H 0.76934 0.685 0.51163 0.0
H1944 H 0.75646 0.70678 0.49668 0.0
H1945 H 0.74924 0.74853 0.52919 0.0
H1946 H 0.73499 0.81418 0.48152 0.0
H1947 H 0.74791 0.79229 0.49619 0.0
C1948 C 0.26904 0.79025 0.04279 0.0
C1949 C 0.28045 0.80019 0.03399 0.0
C1950 C 0.26149 0.77781 0.03431 0.0
C1951 C 0.25231 0.76258 0.9905 0.0
H1952 H 0.24625 0.72451 0.01513 0.0
C1953 C 0.2338 0.706 0.95696 0.0
C1954 C 0.22007 0.69752 0.96463 0.0
C1955 C 0.24109 0.71857 0.96542 0.0
C1956 C 0.24776 0.73511 0.00815 0.0
H1957 H 0.29317 0.80483 0.00952 0.0
H1958 H 0.28041 0.78289 0.99479 0.0
H1959 H 0.25929 0.74633 0.02986 0.0
H1960 H 0.20318 0.6958 0.9872 0.0
H1961 H 0.21627 0.71751 0.0021 0.0
H1962 H 0.24111 0.75115 0.96868 0.0
C1963 C 0.27686 0.78489 0.00811 0.0
C1964 C 0.25516 0.74764 0.01658 0.0
C1965 C 0.28423 0.79743 0.01655 0.0
C1966 C 0.21394 0.70187 0.98103 0.0
C1967 C 0.22137 0.71434 0.98956 0.0
C1968 C 0.2451 0.74999 0.98202 0.0
C1969 C 0.26536 0.77492 0.01687 0.0
C1970 C 0.2575 0.76156 0.00788 0.0
C1971 C 0.23497 0.72284 0.98181 0.0
C1972 C 0.24272 0.73615 0.99078 0.0
H1973 H 0.26574 0.79223 0.05619 0.0
H1974 H 0.25244 0.77056 0.04139 0.0
H1975 H 0.2536 0.77317 0.98347 0.0
H1976 H 0.2391 0.70284 0.9445 0.0
H1977 H 0.25172 0.72483 0.95926 0.0
C1978 C 0.71423 0.20296 0.51757 0.0
C1979 C 0.71959 0.19901 0.53432 0.0
C1980 C 0.7213 0.21575 0.50941 0.0
C1981 C 0.74393 0.25217 0.51806 0.0
H1982 H 0.75704 0.24946 0.46985 0.0
C1983 C 0.78303 0.29949 0.48281 0.0
C1984 C 0.77788 0.30291 0.46584 0.0
C1985 C 0.77569 0.28703 0.49144 0.0
C1986 C 0.75325 0.25046 0.48326 0.0
H1987 H 0.73673 0.20533 0.55559 0.0
H1988 H 0.7491 0.2277 0.54134 0.0
H1989 H 0.74481 0.22723 0.48438 0.0
H1990 H 0.76057 0.29624 0.44483 0.0
H1991 H 0.74774 0.27454 0.4599 0.0
H1992 H 0.7524 0.27542 0.51692 0.0
C1993 C 0.73923 0.221 0.53461 0.0
C1994 C 0.74626 0.23772 0.49159 0.0
C1995 C 0.73216 0.20818 0.54277 0.0
C1996 C 0.76504 0.29374 0.45779 0.0
C1997 C 0.7577 0.28131 0.46642 0.0
C1998 C 0.75093 0.26493 0.50973 0.0
C1999 C 0.7339 0.2249 0.51783 0.0
C2000 C 0.74148 0.23844 0.50907 0.0
C2001 C 0.76304 0.27774 0.48329 0.0
C2002 C 0.75563 0.26422 0.49222 0.0
H2003 H 0.70434 0.19628 0.51083 0.0
H2004 H 0.71671 0.2186 0.49659 0.0
H2005 H 0.74016 0.25314 0.53148 0.0
H2006 H 0.79305 0.30623 0.48928 0.0
H2007 H 0.78023 0.28448 0.50436 0.0
C2008 C 0.71152 0.78758 0.03285 0.0
C2009 C 0.71894 0.80217 0.031 0.0
C2010 C 0.71843 0.77522 0.02376 0.0
C2011 C 0.74589 0.76525 0.98599 0.0
H2012 H 0.7509 0.72661 0.00968 0.0
C2013 C 0.78477 0.7143 0.9576 0.0
C2014 C 0.77739 0.69973 0.95983 0.0
C2015 C 0.7773 0.72695 0.96575 0.0
C2016 C 0.7494 0.73727 0.00282 0.0
H2017 H 0.73949 0.81521 0.0182 0.0
H2018 H 0.75164 0.79358 0.00236 0.0
H2019 H 0.73865 0.74842 0.02497 0.0
H2020 H 0.75602 0.68711 0.97191 0.0
H2021 H 0.74303 0.70917 0.98619 0.0
H2022 H 0.75677 0.75407 0.96386 0.0
C2023 C 0.74029 0.79176 0.01066 0.0
C2024 C 0.74237 0.74977 0.01158 0.0
C2025 C 0.73335 0.80414 0.01974 0.0
C2026 C 0.76221 0.69813 0.97018 0.0
C2027 C 0.75477 0.71077 0.97835 0.0
C2028 C 0.75295 0.75274 0.97723 0.0
C2029 C 0.73295 0.77715 0.01262 0.0
C2030 C 0.7405 0.7639 0.00326 0.0
C2031 C 0.7623 0.7253 0.97634 0.0
C2032 C 0.75475 0.73861 0.98555 0.0
H2033 H 0.7002 0.78574 0.04119 0.0
H2034 H 0.71226 0.76417 0.02532 0.0
H2035 H 0.7444 0.77592 0.97915 0.0
H2036 H 0.7966 0.71588 0.94989 0.0
H2037 H 0.78353 0.73797 0.96412 0.0
C2038 C 0.26599 0.19432 0.51992 0.0
C2039 C 0.2801 0.19632 0.53154 0.0
C2040 C 0.25886 0.20678 0.51112 0.0
C2041 C 0.25531 0.24861 0.5134 0.0
H2042 H 0.2428 0.24533 0.46507 0.0
C2043 C 0.23527 0.3009 0.47307 0.0
C2044 C 0.22083 0.29916 0.46179 0.0
C2045 C 0.24269 0.28825 0.48125 0.0
C2046 C 0.24606 0.24637 0.47861 0.0
H2047 H 0.29811 0.21289 0.54265 0.0
H2048 H 0.28567 0.2346 0.52731 0.0
H2049 H 0.25535 0.22337 0.47999 0.0
H2050 H 0.2028 0.2828 0.45033 0.0
H2051 H 0.21575 0.26072 0.46463 0.0
H2052 H 0.24601 0.27158 0.51205 0.0
C2053 C 0.27991 0.22345 0.52524 0.0
C2054 C 0.25324 0.2338 0.48716 0.0
C2055 C 0.28703 0.21102 0.53403 0.0
C2056 C 0.21408 0.28449 0.45876 0.0
C2057 C 0.22149 0.27184 0.46695 0.0
C2058 C 0.24814 0.26117 0.50486 0.0
C2059 C 0.26569 0.22149 0.51374 0.0
C2060 C 0.25797 0.23479 0.50464 0.0
C2061 C 0.23583 0.27359 0.47835 0.0
C2062 C 0.24346 0.26021 0.48737 0.0
H2063 H 0.26023 0.18317 0.51788 0.0
H2064 H 0.24777 0.20492 0.50251 0.0
H2065 H 0.25853 0.24966 0.52694 0.0
H2066 H 0.24096 0.31202 0.47545 0.0
H2067 H 0.25392 0.28995 0.48974 0.0
C2068 C 0.76928 0.28967 0.04261 0.0
C2069 C 0.78021 0.29998 0.0338 0.0
C2070 C 0.76165 0.27738 0.03392 0.0
C2071 C 0.75208 0.26284 0.98971 0.0
H2072 H 0.74562 0.22464 0.01399 0.0
C2073 C 0.73433 0.20563 0.95665 0.0
C2074 C 0.71949 0.19804 0.96356 0.0
C2075 C 0.74163 0.21822 0.96507 0.0
C2076 C 0.74729 0.23528 0.00711 0.0
H2077 H 0.79202 0.30554 0.00919 0.0
H2078 H 0.77937 0.28374 0.99409 0.0
H2079 H 0.75895 0.24621 0.02891 0.0
H2080 H 0.70063 0.19804 0.98474 0.0
H2081 H 0.71393 0.21958 -0.00027 0.0
H2082 H 0.74095 0.25154 0.96773 0.0
C2083 C 0.77612 0.28534 0.00755 0.0
C2084 C 0.75482 0.24769 0.01565 0.0
C2085 C 0.78347 0.29779 0.01619 0.0
C2086 C 0.71226 0.20333 0.97918 0.0
C2087 C 0.71978 0.21574 0.98774 0.0
C2088 C 0.74486 0.25033 0.98109 0.0
C2089 C 0.76507 0.27497 0.01629 0.0
C2090 C 0.75722 0.26168 0.00711 0.0
C2091 C 0.73446 0.22331 0.98072 0.0
C2092 C 0.74232 0.23648 0.98975 0.0
H2093 H 0.76644 0.29125 0.05618 0.0
H2094 H 0.75292 0.26988 0.04102 0.0
H2095 H 0.75337 0.27347 0.98277 0.0
H2096 H 0.74051 0.20176 0.94486 0.0
H2097 H 0.75308 0.22382 0.95952 0.0
C2098 C 0.21331 0.70429 0.52314 0.0
C2099 C 0.22196 0.69739 0.53713 0.0
C2100 C 0.22066 0.717 0.51507 0.0
C2101 C 0.25391 0.74773 0.52105 0.0
H2102 H 0.24923 0.75134 0.47145 0.0
C2103 C 0.29115 0.79266 0.47987 0.0
C2104 C 0.28083 0.80056 0.46769 0.0
C2105 C 0.28412 0.78024 0.48883 0.0
C2106 C 0.25052 0.75052 0.48532 0.0
H2107 H 0.24508 0.69833 0.55365 0.0
H2108 H 0.25822 0.72035 0.53929 0.0
H2109 H 0.23699 0.72918 0.48608 0.0
H2110 H 0.25478 0.80178 0.45583 0.0
H2111 H 0.24276 0.77987 0.47111 0.0
H2112 H 0.26783 0.76901 0.52009 0.0
C2113 C 0.24555 0.71616 0.53477 0.0
C2114 C 0.24346 0.73786 0.49374 0.0
C2115 C 0.23807 0.70351 0.54297 0.0
C2116 C 0.26326 0.79579 0.46481 0.0
C2117 C 0.25633 0.78328 0.47361 0.0
C2118 C 0.26116 0.76033 0.51258 0.0
C2119 C 0.23695 0.72303 0.52067 0.0
C2120 C 0.24492 0.73636 0.51173 0.0
C2121 C 0.2667 0.77536 0.48565 0.0
C2122 C 0.2594 0.76189 0.49466 0.0
H2123 H 0.20071 0.69995 0.51856 0.0
H2124 H 0.21345 0.72219 0.50453 0.0
H2125 H 0.25508 0.74707 0.53493 0.0
H2126 H 0.3048 0.79584 0.48225 0.0
H2127 H 0.29245 0.77423 0.49794 0.0
C2128 C 0.21384 0.55643 0.98101 0.0
C2129 C 0.20598 0.5557 0.96463 0.0
C2130 C 0.21745 0.54307 0.99015 0.0
C2131 C 0.22438 0.50199 0.98625 0.0
H2132 H 0.20025 0.49911 0.03021 0.0
C2133 C 0.20897 0.44438 0.01833 0.0
C2134 C 0.20728 0.44366 0.0363 0.0
C2135 C 0.21227 0.45829 0.0102 0.0
C2136 C 0.20749 0.49975 0.01819 0.0
H2137 H 0.19648 0.54062 0.94457 0.0
H2138 H 0.20321 0.51721 0.9604 0.0
H2139 H 0.20048 0.52318 0.01477 0.0
H2140 H 0.20873 0.45656 0.06001 0.0
H2141 H 0.2153 0.48076 0.04597 0.0
H2142 H 0.23152 0.47862 0.98962 0.0
C2143 C 0.20644 0.52808 0.9662 0.0
C2144 C 0.20752 0.51356 0.00932 0.0
C2145 C 0.2025 0.54143 0.95722 0.0
C2146 C 0.20979 0.45691 0.04609 0.0
C2147 C 0.21342 0.47077 0.03801 0.0
C2148 C 0.22464 0.48821 0.99527 0.0
C2149 C 0.21361 0.5288 0.98288 0.0
C2150 C 0.21562 0.51471 0.99311 0.0
C2151 C 0.21423 0.47174 0.01992 0.0
C2152 C 0.21582 0.4868 0.01118 0.0
H2153 H 0.21654 0.56734 0.98698 0.0
H2154 H 0.22298 0.54388 0.003 0.0
H2155 H 0.23083 0.50266 0.9738 0.0
H2156 H 0.20694 0.4343 0.01051 0.0
H2157 H 0.2125 0.45855 0.99626 0.0
C2158 C 0.7873 0.55674 0.51686 0.0
C2159 C 0.79353 0.55608 0.5339 0.0
C2160 C 0.78404 0.54335 0.50765 0.0
C2161 C 0.77656 0.50202 0.51199 0.0
H2162 H 0.80042 0.49954 0.46783 0.0
C2163 C 0.79229 0.44482 0.47888 0.0
C2164 C 0.79276 0.44423 0.46081 0.0
C2165 C 0.78934 0.45864 0.48735 0.0
C2166 C 0.79332 0.50008 0.47995 0.0
H2167 H 0.80035 0.541 0.55497 0.0
H2168 H 0.79457 0.51759 0.53891 0.0
H2169 H 0.80017 0.52351 0.48349 0.0
H2170 H 0.78955 0.45736 0.4374 0.0
H2171 H 0.78389 0.48142 0.45213 0.0
H2172 H 0.76978 0.47856 0.50851 0.0
C2173 C 0.79225 0.52844 0.53266 0.0
C2174 C 0.79323 0.51384 0.48894 0.0
C2175 C 0.7957 0.54181 0.5418 0.0
C2176 C 0.7895 0.45757 0.45136 0.0
C2177 C 0.78634 0.47134 0.45981 0.0
C2178 C 0.77649 0.48827 0.5029 0.0
C2179 C 0.78674 0.52907 0.51539 0.0
C2180 C 0.78513 0.51488 0.50517 0.0
C2181 C 0.7866 0.47212 0.47792 0.0
C2182 C 0.78515 0.48705 0.4869 0.0
H2183 H 0.78561 0.56759 0.51043 0.0
H2184 H 0.77969 0.54415 0.49437 0.0
H2185 H 0.77006 0.50257 0.52441 0.0
H2186 H 0.79493 0.43473 0.48647 0.0
H2187 H 0.78991 0.45881 0.50128 0.0
C2188 C 0.79527 0.44554 0.02489 0.0
C2189 C 0.80806 0.44295 0.03769 0.0
C2190 C 0.79447 0.45959 0.01644 0.0
C2191 C 0.82194 0.49395 0.00802 0.0
H2192 H 0.77735 0.51117 0.99253 0.0
C2193 C 0.81616 0.55515 0.98246 0.0
C2194 C 0.80803 0.55674 0.96624 0.0
C2195 C 0.81521 0.54141 0.99143 0.0
C2196 C 0.78988 0.50642 0.99673 0.0
H2197 H 0.8295 0.45304 0.05229 0.0
H2198 H 0.82772 0.47773 0.03811 0.0
H2199 H 0.77742 0.48703 0.0082 0.0
H2200 H 0.79213 0.54509 0.94697 0.0
H2201 H 0.79007 0.5212 0.96298 0.0
H2202 H 0.8343 0.51358 0.99692 0.0
C2203 C 0.81871 0.46883 0.03405 0.0
C2204 C 0.78996 0.49257 0.00563 0.0
C2205 C 0.81969 0.45473 0.04227 0.0
C2206 C 0.79839 0.54436 0.9595 0.0
C2207 C 0.79724 0.53066 0.96861 0.0
C2208 C 0.82182 0.50787 -0.00062 0.0
C2209 C 0.80629 0.47138 0.02082 0.0
C2210 C 0.80602 0.48616 0.01141 0.0
C2211 C 0.80588 0.52901 0.98452 0.0
C2212 C 0.8058 0.51423 0.99366 0.0
H2213 H 0.78623 0.43656 0.02108 0.0
H2214 H 0.78489 0.46103 0.00618 0.0
H2215 H 0.83461 0.48923 0.01184 0.0
H2216 H 0.8233 0.56453 0.98828 0.0
H2217 H 0.82177 0.54047 0.0038 0.0
C2218 C 0.20055 0.45644 0.45296 0.0
C2219 C 0.19981 0.44273 0.46228 0.0
C2220 C 0.20226 0.47035 0.46151 0.0
C2221 C 0.21464 0.48821 0.5029 0.0
H2222 H 0.18188 0.51971 0.48834 0.0
C2223 C 0.20006 0.54216 0.54346 0.0
C2224 C 0.19693 0.55583 0.53459 0.0
C2225 C 0.20224 0.52851 0.53442 0.0
C2226 C 0.19134 0.51116 0.49241 0.0
H2227 H 0.20078 0.43288 0.4879 0.0
H2228 H 0.20388 0.45719 0.50282 0.0
H2229 H 0.18282 0.49568 0.47284 0.0
H2230 H 0.19454 0.56612 0.50931 0.0
H2231 H 0.19861 0.5424 0.49352 0.0
H2232 H 0.22308 0.50373 0.52256 0.0
C2233 C 0.20327 0.45714 0.48887 0.0
C2234 C 0.19185 0.49736 0.48353 0.0
C2235 C 0.2015 0.44321 0.48032 0.0
C2236 C 0.19661 0.55569 0.5165 0.0
C2237 C 0.19891 0.5421 0.50746 0.0
C2238 C 0.21418 0.50208 0.51177 0.0
C2239 C 0.20332 0.47087 0.47957 0.0
C2240 C 0.20344 0.48571 0.4887 0.0
C2241 C 0.20144 0.5283 0.51631 0.0
C2242 C 0.20247 0.5137 0.50666 0.0
H2243 H 0.19964 0.45644 0.43903 0.0
H2244 H 0.20258 0.48073 0.45398 0.0
H2245 H 0.22382 0.47948 0.50709 0.0
H2246 H 0.20023 0.54193 0.55742 0.0
H2247 H 0.20398 0.51807 0.54164 0.0
C2248 C 0.71278 0.05577 0.97968 0.0
C2249 C 0.70519 0.05527 0.96316 0.0
C2250 C 0.71616 0.04231 0.9887 0.0
C2251 C 0.72177 0.00084 0.98406 0.0
H2252 H 0.70099 0.99897 0.02969 0.0
C2253 C 0.70686 0.94403 0.01834 0.0
C2254 C 0.70742 0.94351 0.0364 0.0
C2255 C 0.70964 0.95775 0.00965 0.0
C2256 C 0.70725 -0.00068 0.01714 0.0
H2257 H 0.69603 0.04037 0.94276 0.0
H2258 H 0.70206 0.01683 0.95848 0.0
H2259 H 0.70091 0.0229 0.01398 0.0
H2260 H 0.71229 0.95664 0.05954 0.0
H2261 H 0.71774 0.98053 0.0444 0.0
H2262 H 0.7281 0.97725 0.98717 0.0
C2263 C 0.70534 0.02761 0.96447 0.0
C2264 C 0.70713 0.01307 0.00812 0.0
C2265 C 0.70175 0.04107 0.95554 0.0
C2266 C 0.71156 0.95681 0.0456 0.0
C2267 C 0.71459 0.97049 0.03691 0.0
C2268 C 0.72209 0.98711 0.99317 0.0
C2269 C 0.71225 0.02811 0.98127 0.0
C2270 C 0.71411 0.0139 0.99139 0.0
C2271 C 0.71327 0.97123 0.01884 0.0
C2272 C 0.71452 0.9861 0.00972 0.0
H2273 H 0.71548 0.06658 0.98588 0.0
H2274 H 0.72159 0.043 0.00161 0.0
H2275 H 0.7274 0.00123 0.97123 0.0
H2276 H 0.70352 0.93395 0.01097 0.0
H2277 H 0.70825 0.95789 0.99577 0.0
C2278 C 0.29243 0.95619 0.45413 0.0
C2279 C 0.2932 0.942 0.46247 0.0
C2280 C 0.29 0.96956 0.46361 0.0
C2281 C 0.29804 0.98488 0.50673 0.0
H2282 H 0.26888 0.01858 0.49124 0.0
C2283 C 0.29334 0.04003 0.5462 0.0
C2284 C 0.29445 0.05372 0.53691 0.0
C2285 C 0.2906 0.02624 0.53765 0.0
C2286 C 0.27718 0.0093 0.49567 0.0
H2287 H 0.29164 0.93068 0.48726 0.0
H2288 H 0.28723 0.95399 0.50378 0.0
H2289 H 0.26872 0.99464 0.47517 0.0
H2290 H 0.29313 0.06378 0.51145 0.0
H2291 H 0.28861 0.03968 0.49645 0.0
H2292 H 0.30693 -0.00045 0.5269 0.0
C2293 C 0.28862 0.95478 0.48992 0.0
C2294 C 0.27705 0.9956 0.48648 0.0
C2295 C 0.29096 0.94142 0.48043 0.0
C2296 C 0.29217 0.05341 0.51895 0.0
C2297 C 0.28954 0.0396 0.51038 0.0
C2298 C 0.29823 0.99857 0.51585 0.0
C2299 C 0.28839 0.96901 0.48164 0.0
C2300 C 0.28759 0.98328 0.49186 0.0
C2301 C 0.28903 0.02581 0.5196 0.0
C2302 C 0.28791 0.011 0.51037 0.0
H2303 H 0.29392 0.95698 0.44028 0.0
H2304 H 0.29001 0.98036 0.45688 0.0
H2305 H 0.30654 0.9757 0.51103 0.0
H2306 H 0.29477 0.03996 0.56008 0.0
H2307 H 0.28989 0.01588 0.54518 0.0
C2308 C 0.29831 0.94358 0.01878 0.0
C2309 C 0.30151 0.94315 0.03661 0.0
C2310 C 0.29653 0.95751 0.01024 0.0
C2311 C 0.30893 0.99793 0.01503 0.0
H2312 H 0.27693 0.00385 0.97649 0.0
C2313 C 0.30146 0.05612 0.98198 0.0
C2314 C 0.30212 0.0561 0.96388 0.0
C2315 C 0.2996 0.04251 0.99108 0.0
C2316 C 0.28599 0.00231 0.98718 0.0
H2317 H 0.30441 0.95689 0.05962 0.0
H2318 H 0.30102 0.9812 0.04482 0.0
H2319 H 0.27658 0.97974 0.99223 0.0
H2320 H 0.30098 0.04176 0.94114 0.0
H2321 H 0.2976 0.01797 0.95709 0.0
H2322 H 0.31837 0.02045 0.00998 0.0
C2323 C 0.30035 0.97081 0.03733 0.0
C2324 C 0.28582 0.98851 0.99618 0.0
C2325 C 0.30225 0.95689 0.04583 0.0
C2326 C 0.30033 0.04219 0.95507 0.0
C2327 C 0.2984 0.02856 0.9642 0.0
C2328 C 0.30903 0.01172 0.00611 0.0
C2329 C 0.29781 0.9713 0.01938 0.0
C2330 C 0.29736 0.98614 0.01017 0.0
C2331 C 0.29829 0.02857 0.98231 0.0
C2332 C 0.29763 0.01405 0.99205 0.0
H2333 H 0.29786 0.93316 0.01132 0.0
H2334 H 0.2948 0.95747 0.9964 0.0
H2335 H 0.31826 0.9964 0.02549 0.0
H2336 H 0.30244 0.06667 0.98914 0.0
H2337 H 0.29926 0.0429 0.00503 0.0
C2338 C 0.70152 0.05494 0.51656 0.0
C2339 C 0.70158 0.0556 0.53466 0.0
C2340 C 0.70352 0.04102 0.50806 0.0
C2341 C 0.69652 0.00011 0.51514 0.0
H2342 H 0.72248 0.99566 0.47231 0.0
C2343 C 0.70192 0.9422 0.48109 0.0
C2344 C 0.69904 0.94219 0.4632 0.0
C2345 C 0.70443 0.95587 0.48994 0.0
C2346 C 0.71509 0.99676 0.48421 0.0
H2347 H 0.70475 0.0423 0.55799 0.0
H2348 H 0.7083 0.01801 0.54315 0.0
H2349 H 0.72317 0.01996 0.48766 0.0
H2350 H 0.69687 0.95648 0.44052 0.0
H2351 H 0.70117 0.98038 0.456 0.0
H2352 H 0.68818 0.97707 0.51162 0.0
C2353 C 0.70635 0.02821 0.53554 0.0
C2354 C 0.7155 0.01066 0.493 0.0
C2355 C 0.70432 0.04212 0.54404 0.0
C2356 C 0.69924 0.95611 0.45428 0.0
C2357 C 0.70172 0.9698 0.46315 0.0
C2358 C 0.69612 0.98624 0.50638 0.0
C2359 C 0.70565 0.02746 0.51746 0.0
C2360 C 0.70611 0.01252 0.50851 0.0
C2361 C 0.70408 0.96985 0.48112 0.0
C2362 C 0.7053 0.98443 0.49075 0.0
H2363 H 0.69923 0.06509 0.50897 0.0
H2364 H 0.70272 0.04081 0.49413 0.0
H2365 H 0.68887 0.00123 0.52688 0.0
H2366 H 0.70215 0.93163 0.48827 0.0
H2367 H 0.70655 0.95549 0.50374 0.0
loop_
_geom_bond_atom_site_label_1
_geom_bond_atom_site_label_2
_geom_bond_distance
_geom_bond_site_symmetry_2
_ccdc_geom_bond_type
Li0 N17 1.990 . S
Li0 O60 1.956 . S
Li0 O61 1.970 . S
Li0 O62 1.961 . S
Li1 N25 1.990 . S
Li1 O60 1.970 . S
Li1 O61 1.956 . S
Li1 O63 1.961 . S
Li2 N47 1.990 . S
Li2 O60 1.961 . S
Li2 O62 1.956 . S
Li2 O63 1.970 . S
Li3 N53 1.990 . S
Li3 O61 1.961 . S
Li3 O62 1.970 . S
Li3 O63 1.956 . S
C4 C6 1.348 . S
C4 C7 1.356 . S
C4 O60 1.325 . S
N5 C8 1.314 . S
N5 C9 1.279 . S
C6 C4 1.348 . S
C6 C8 1.353 . S
C6 H64 0.929 . S
C7 C4 1.356 . S
C7 C9 1.358 . S
C7 H65 0.930 . S
C8 N5 1.314 . S
C8 C6 1.353 . S
C8 H66 0.930 . S
C9 N5 1.279 . S
C9 C7 1.358 . S
C9 H67 0.930 . S
C10 C13 1.348 . S
C10 C14 1.356 . S
C10 O61 1.325 . S
C11 N12 1.279 . S
C11 C14 1.358 . S
C11 H68 0.930 . S
N12 C11 1.279 . S
N12 C15 1.314 . S
C13 C10 1.348 . S
C13 C15 1.353 . S
C13 H69 0.929 . S
C14 C10 1.356 . S
C14 C11 1.358 . S
C14 H70 0.930 . S
C15 N12 1.314 . S
C15 C13 1.353 . S
C15 H71 0.930 . S
C16 N17 1.314 . S
C16 C21 1.353 . S
C16 H22 0.930 . S
N17 Li0 1.990 . S
N17 C16 1.314 . S
N17 C19 1.279 . S
C18 C19 1.358 . S
C18 C20 1.356 . S
C18 H72 0.930 . S
C19 N17 1.279 . S
C19 C18 1.358 . S
C19 H23 0.930 . S
C20 C18 1.356 . S
C20 C21 1.348 . S
C21 C16 1.353 . S
C21 C20 1.348 . S
C21 H73 0.929 . S
H22 C16 0.930 . S
H23 C19 0.930 . S
C24 N25 1.314 . S
C24 C26 1.353 . S
C24 H30 0.930 . S
N25 Li1 1.990 . S
N25 C24 1.314 . S
N25 C28 1.279 . S
C26 C24 1.353 . S
C26 C29 1.348 . S
C26 H74 0.929 . S
C27 C28 1.358 . S
C27 C29 1.356 . S
C27 H75 0.930 . S
C28 N25 1.279 . S
C28 C27 1.358 . S
C28 H31 0.930 . S
C29 C26 1.348 . S
C29 C27 1.356 . S
H30 C24 0.930 . S
H31 C28 0.930 . S
C32 C34 1.348 . S
C32 C35 1.356 . S
C32 O62 1.325 . S
N33 C36 1.314 . S
N33 C37 1.279 . S
C34 C32 1.348 . S
C34 C36 1.353 . S
C34 H76 0.929 . S
C35 C32 1.356 . S
C35 C37 1.358 . S
C35 H77 0.930 . S
C36 N33 1.314 . S
C36 C34 1.353 . S
C36 H78 0.930 . S
C37 N33 1.279 . S
C37 C35 1.358 . S
C37 H79 0.930 . S
C38 C39 1.348 . S
C38 C40 1.356 . S
C38 O63 1.325 . S
C39 C38 1.348 . S
C39 C41 1.353 . S
C39 H80 0.929 . S
C40 C38 1.356 . S
C40 C42 1.358 . S
C40 H81 0.930 . S
C41 C39 1.353 . S
C41 N43 1.314 . S
C41 H82 0.930 . S
C42 C40 1.358 . S
C42 N43 1.279 . S
C42 H83 0.930 . S
N43 C41 1.314 . S
N43 C42 1.279 . S
C44 C46 1.353 . S
C44 N47 1.314 . S
C44 H50 0.930 . S
C45 N47 1.279 . S
C45 C48 1.358 . S
C45 H51 0.930 . S
C46 C44 1.353 . S
C46 C49 1.348 . S
C46 H84 0.929 . S
N47 Li2 1.990 . S
N47 C44 1.314 . S
N47 C45 1.279 . S
C48 C45 1.358 . S
C48 C49 1.356 . S
C48 H85 0.930 . S
C49 C46 1.348 . S
C49 C48 1.356 . S
H50 C44 0.930 . S
H51 C45 0.930 . S
C52 N53 1.314 . S
C52 C54 1.353 . S
C52 H58 0.930 . S
N53 Li3 1.990 . S
N53 C52 1.314 . S
N53 C56 1.279 . S
C54 C52 1.353 . S
C54 C57 1.348 . S
C54 H86 0.929 . S
C55 C56 1.358 . S
C55 C57 1.356 . S
C55 H87 0.930 . S
C56 N53 1.279 . S
C56 C55 1.358 . S
C56 H59 0.930 . S
C57 C54 1.348 . S
C57 C55 1.356 . S
H58 C52 0.930 . S
H59 C56 0.930 . S
O60 Li0 1.956 . S
O60 Li1 1.970 . S
O60 Li2 1.961 . S
O60 C4 1.325 . S
O61 Li0 1.970 . S
O61 Li1 1.956 . S
O61 Li3 1.961 . S
O61 C10 1.325 . S
O62 Li0 1.961 . S
O62 Li2 1.956 . S
O62 Li3 1.970 . S
O62 C32 1.325 . S
O63 Li1 1.961 . S
O63 Li2 1.970 . S
O63 Li3 1.956 . S
O63 C38 1.325 . S
H64 C6 0.929 . S
H65 C7 0.930 . S
H66 C8 0.930 . S
H67 C9 0.930 . S
H68 C11 0.930 . S
H69 C13 0.929 . S
H70 C14 0.930 . S
H71 C15 0.930 . S
H72 C18 0.930 . S
H73 C21 0.929 . S
H74 C26 0.929 . S
H75 C27 0.930 . S
H76 C34 0.929 . S
H77 C35 0.930 . S
H78 C36 0.930 . S
H79 C37 0.930 . S
H80 C39 0.929 . S
H81 C40 0.930 . S
H82 C41 0.930 . S
H83 C42 0.930 . S
H84 C46 0.929 . S
H85 C48 0.930 . S
H86 C54 0.929 . S
H87 C55 0.930 . S
Li88 N105 1.990 . S
Li88 O148 1.956 . S
Li88 O149 1.970 . S
Li88 O150 1.961 . S
Li89 N113 1.990 . S
Li89 O148 1.970 . S
Li89 O149 1.956 . S
Li89 O151 1.961 . S
Li90 N135 1.990 . S
Li90 O148 1.961 . S
Li90 O150 1.956 . S
Li90 O151 1.970 . S
Li91 N141 1.990 . S
Li91 O149 1.961 . S
Li91 O150 1.970 . S
Li91 O151 1.956 . S
C92 C94 1.348 . S
C92 C95 1.356 . S
C92 O148 1.325 . S
N93 C96 1.314 . S
N93 C97 1.279 . S
C94 C92 1.348 . S
C94 C96 1.353 . S
C94 H152 0.929 . S
C95 C92 1.356 . S
C95 C97 1.358 . S
C95 H153 0.930 . S
C96 N93 1.314 . S
C96 C94 1.353 . S
C96 H154 0.930 . S
C97 N93 1.279 . S
C97 C95 1.358 . S
C97 H155 0.930 . S
C98 C101 1.348 . S
C98 C102 1.356 . S
C98 O149 1.325 . S
C99 N100 1.279 . S
C99 C102 1.358 . S
C99 H156 0.930 . S
N100 C99 1.279 . S
N100 C103 1.314 . S
C101 C98 1.348 . S
C101 C103 1.353 . S
C101 H157 0.929 . S
C102 C98 1.356 . S
C102 C99 1.358 . S
C102 H158 0.930 . S
C103 N100 1.314 . S
C103 C101 1.353 . S
C103 H159 0.930 . S
C104 N105 1.314 . S
C104 C109 1.353 . S
C104 H110 0.930 . S
N105 Li88 1.990 . S
N105 C104 1.314 . S
N105 C107 1.279 . S
C106 C107 1.358 . S
C106 C108 1.356 . S
C106 H160 0.930 . S
C107 N105 1.279 . S
C107 C106 1.358 . S
C107 H111 0.930 . S
C108 C106 1.356 . S
C108 C109 1.348 . S
C109 C104 1.353 . S
C109 C108 1.348 . S
C109 H161 0.929 . S
H110 C104 0.930 . S
H111 C107 0.930 . S
C112 N113 1.314 . S
C112 C114 1.353 . S
C112 H118 0.930 . S
N113 Li89 1.990 . S
N113 C112 1.314 . S
N113 C116 1.279 . S
C114 C112 1.353 . S
C114 C117 1.348 . S
C114 H162 0.929 . S
C115 C116 1.358 . S
C115 C117 1.356 . S
C115 H163 0.930 . S
C116 N113 1.279 . S
C116 C115 1.358 . S
C116 H119 0.930 . S
C117 C114 1.348 . S
C117 C115 1.356 . S
H118 C112 0.930 . S
H119 C116 0.930 . S
C120 C122 1.348 . S
C120 C123 1.356 . S
C120 O150 1.325 . S
N121 C124 1.314 . S
N121 C125 1.279 . S
C122 C120 1.348 . S
C122 C124 1.353 . S
C122 H164 0.929 . S
C123 C120 1.356 . S
C123 C125 1.358 . S
C123 H165 0.930 . S
C124 N121 1.314 . S
C124 C122 1.353 . S
C124 H166 0.930 . S
C125 N121 1.279 . S
C125 C123 1.358 . S
C125 H167 0.930 . S
C126 C127 1.348 . S
C126 C128 1.356 . S
C126 O151 1.325 . S
C127 C126 1.348 . S
C127 C129 1.353 . S
C127 H168 0.929 . S
C128 C126 1.356 . S
C128 C130 1.358 . S
C128 H169 0.930 . S
C129 C127 1.353 . S
C129 N131 1.314 . S
C129 H170 0.930 . S
C130 C128 1.358 . S
C130 N131 1.279 . S
C130 H171 0.930 . S
N131 C129 1.314 . S
N131 C130 1.279 . S
C132 C134 1.353 . S
C132 N135 1.314 . S
C132 H138 0.930 . S
C133 N135 1.279 . S
C133 C136 1.358 . S
C133 H139 0.930 . S
C134 C132 1.353 . S
C134 C137 1.348 . S
C134 H172 0.929 . S
N135 Li90 1.990 . S
N135 C132 1.314 . S
N135 C133 1.279 . S
C136 C133 1.358 . S
C136 C137 1.356 . S
C136 H173 0.930 . S
C137 C134 1.348 . S
C137 C136 1.356 . S
H138 C132 0.930 . S
H139 C133 0.930 . S
C140 N141 1.314 . S
C140 C142 1.353 . S
C140 H146 0.930 . S
N141 Li91 1.990 . S
N141 C140 1.314 . S
N141 C144 1.279 . S
C142 C140 1.353 . S
C142 C145 1.348 . S
C142 H174 0.929 . S
C143 C144 1.358 . S
C143 C145 1.356 . S
C143 H175 0.930 . S
C144 N141 1.279 . S
C144 C143 1.358 . S
C144 H147 0.930 . S
C145 C142 1.348 . S
C145 C143 1.356 . S
H146 C140 0.930 . S
H147 C144 0.930 . S
O148 Li88 1.956 . S
O148 Li89 1.970 . S
O148 Li90 1.961 . S
O148 C92 1.325 . S
O149 Li88 1.970 . S
O149 Li89 1.956 . S
O149 Li91 1.961 . S
O149 C98 1.325 . S
O150 Li88 1.961 . S
O150 Li90 1.956 . S
O150 Li91 1.970 . S
O150 C120 1.325 . S
O151 Li89 1.961 . S
O151 Li90 1.970 . S
O151 Li91 1.956 . S
O151 C126 1.325 . S
H152 C94 0.929 . S
H153 C95 0.930 . S
H154 C96 0.930 . S
H155 C97 0.930 . S
H156 C99 0.930 . S
H157 C101 0.929 . S
H158 C102 0.930 . S
H159 C103 0.930 . S
H160 C106 0.930 . S
H161 C109 0.929 . S
H162 C114 0.929 . S
H163 C115 0.930 . S
H164 C122 0.929 . S
H165 C123 0.930 . S
H166 C124 0.930 . S
H167 C125 0.930 . S
H168 C127 0.929 . S
H169 C128 0.930 . S
H170 C129 0.930 . S
H171 C130 0.930 . S
H172 C134 0.929 . S
H173 C136 0.930 . S
H174 C142 0.929 . S
H175 C143 0.930 . S
Li176 N193 1.990 . S
Li176 O236 1.956 . S
Li176 O237 1.970 . S
Li176 O238 1.961 . S
Li177 N201 1.990 . S
Li177 O236 1.970 . S
Li177 O237 1.956 . S
Li177 O239 1.961 . S
Li178 N223 1.990 . S
Li178 O236 1.961 . S
Li178 O238 1.956 . S
Li178 O239 1.970 . S
Li179 N229 1.990 . S
Li179 O237 1.961 . S
Li179 O238 1.970 . S
Li179 O239 1.956 . S
C180 C182 1.348 . S
C180 C183 1.356 . S
C180 O236 1.325 . S
N181 C184 1.314 . S
N181 C185 1.279 . S
C182 C180 1.348 . S
C182 C184 1.353 . S
C182 H240 0.929 . S
C183 C180 1.356 . S
C183 C185 1.358 . S
C183 H241 0.930 . S
C184 N181 1.314 . S
C184 C182 1.353 . S
C184 H242 0.930 . S
C185 N181 1.279 . S
C185 C183 1.358 . S
C185 H243 0.930 . S
C186 C189 1.348 . S
C186 C190 1.356 . S
C186 O237 1.325 . S
C187 N188 1.279 . S
C187 C190 1.358 . S
C187 H244 0.930 . S
N188 C187 1.279 . S
N188 C191 1.314 . S
C189 C186 1.348 . S
C189 C191 1.353 . S
C189 H245 0.929 . S
C190 C186 1.356 . S
C190 C187 1.358 . S
C190 H246 0.930 . S
C191 N188 1.314 . S
C191 C189 1.353 . S
C191 H247 0.930 . S
C192 N193 1.314 . S
C192 C197 1.353 . S
C192 H198 0.930 . S
N193 Li176 1.990 . S
N193 C192 1.314 . S
N193 C195 1.279 . S
C194 C195 1.358 . S
C194 C196 1.356 . S
C194 H248 0.930 . S
C195 N193 1.279 . S
C195 C194 1.358 . S
C195 H199 0.930 . S
C196 C194 1.356 . S
C196 C197 1.348 . S
C197 C192 1.353 . S
C197 C196 1.348 . S
C197 H249 0.929 . S
H198 C192 0.930 . S
H199 C195 0.930 . S
C200 N201 1.314 . S
C200 C202 1.353 . S
C200 H206 0.930 . S
N201 Li177 1.990 . S
N201 C200 1.314 . S
N201 C204 1.279 . S
C202 C200 1.353 . S
C202 C205 1.348 . S
C202 H250 0.929 . S
C203 C204 1.358 . S
C203 C205 1.356 . S
C203 H251 0.930 . S
C204 N201 1.279 . S
C204 C203 1.358 . S
C204 H207 0.930 . S
C205 C202 1.348 . S
C205 C203 1.356 . S
H206 C200 0.930 . S
H207 C204 0.930 . S
C208 C210 1.348 . S
C208 C211 1.356 . S
C208 O238 1.325 . S
N209 C212 1.314 . S
N209 C213 1.279 . S
C210 C208 1.348 . S
C210 C212 1.353 . S
C210 H252 0.929 . S
C211 C208 1.356 . S
C211 C213 1.358 . S
C211 H253 0.930 . S
C212 N209 1.314 . S
C212 C210 1.353 . S
C212 H254 0.930 . S
C213 N209 1.279 . S
C213 C211 1.358 . S
C213 H255 0.930 . S
C214 C215 1.348 . S
C214 C216 1.356 . S
C214 O239 1.325 . S
C215 C214 1.348 . S
C215 C217 1.353 . S
C215 H256 0.929 . S
C216 C214 1.356 . S
C216 C218 1.358 . S
C216 H257 0.930 . S
C217 C215 1.353 . S
C217 N219 1.314 . S
C217 H258 0.930 . S
C218 C216 1.358 . S
C218 N219 1.279 . S
C218 H259 0.930 . S
N219 C217 1.314 . S
N219 C218 1.279 . S
C220 C222 1.353 . S
C220 N223 1.314 . S
C220 H226 0.930 . S
C221 N223 1.279 . S
C221 C224 1.358 . S
C221 H227 0.930 . S
C222 C220 1.353 . S
C222 C225 1.348 . S
C222 H260 0.929 . S
N223 Li178 1.990 . S
N223 C220 1.314 . S
N223 C221 1.279 . S
C224 C221 1.358 . S
C224 C225 1.356 . S
C224 H261 0.930 . S
C225 C222 1.348 . S
C225 C224 1.356 . S
H226 C220 0.930 . S
H227 C221 0.930 . S
C228 N229 1.314 . S
C228 C230 1.353 . S
C228 H234 0.930 . S
N229 Li179 1.990 . S
N229 C228 1.314 . S
N229 C232 1.279 . S
C230 C228 1.353 . S
C230 C233 1.348 . S
C230 H262 0.929 . S
C231 C232 1.358 . S
C231 C233 1.356 . S
C231 H263 0.930 . S
C232 N229 1.279 . S
C232 C231 1.358 . S
C232 H235 0.930 . S
C233 C230 1.348 . S
C233 C231 1.356 . S
H234 C228 0.930 . S
H235 C232 0.930 . S
O236 Li176 1.956 . S
O236 Li177 1.970 . S
O236 Li178 1.961 . S
O236 C180 1.325 . S
O237 Li176 1.970 . S
O237 Li177 1.956 . S
O237 Li179 1.961 . S
O237 C186 1.325 . S
O238 Li176 1.961 . S
O238 Li178 1.956 . S
O238 Li179 1.970 . S
O238 C208 1.325 . S
O239 Li177 1.961 . S
O239 Li178 1.970 . S
O239 Li179 1.956 . S
O239 C214 1.325 . S
H240 C182 0.929 . S
H241 C183 0.930 . S
H242 C184 0.930 . S
H243 C185 0.930 . S
H244 C187 0.930 . S
H245 C189 0.929 . S
H246 C190 0.930 . S
H247 C191 0.930 . S
H248 C194 0.930 . S
H249 C197 0.929 . S
H250 C202 0.929 . S
H251 C203 0.930 . S
H252 C210 0.929 . S
H253 C211 0.930 . S
H254 C212 0.930 . S
H255 C213 0.930 . S
H256 C215 0.929 . S
H257 C216 0.930 . S
H258 C217 0.930 . S
H259 C218 0.930 . S
H260 C222 0.929 . S
H261 C224 0.930 . S
H262 C230 0.929 . S
H263 C231 0.930 . S
Li264 N281 1.990 . S
Li264 O324 1.956 . S
Li264 O325 1.970 . S
Li264 O326 1.961 . S
Li265 N289 1.990 . S
Li265 O324 1.970 . S
Li265 O325 1.956 . S
Li265 O327 1.961 . S
Li266 N311 1.990 . S
Li266 O324 1.961 . S
Li266 O326 1.956 . S
Li266 O327 1.970 . S
Li267 N317 1.990 . S
Li267 O325 1.961 . S
Li267 O326 1.970 . S
Li267 O327 1.956 . S
C268 C270 1.348 . S
C268 C271 1.356 . S
C268 O324 1.325 . S
N269 C272 1.314 . S
N269 C273 1.279 . S
C270 C268 1.348 . S
C270 C272 1.353 . S
C270 H328 0.929 . S
C271 C268 1.356 . S
C271 C273 1.358 . S
C271 H329 0.930 . S
C272 N269 1.314 . S
C272 C270 1.353 . S
C272 H330 0.930 . S
C273 N269 1.279 . S
C273 C271 1.358 . S
C273 H331 0.930 . S
C274 C277 1.348 . S
C274 C278 1.356 . S
C274 O325 1.325 . S
C275 N276 1.279 . S
C275 C278 1.358 . S
C275 H332 0.930 . S
N276 C275 1.279 . S
N276 C279 1.314 . S
C277 C274 1.348 . S
C277 C279 1.353 . S
C277 H333 0.929 . S
C278 C274 1.356 . S
C278 C275 1.358 . S
C278 H334 0.930 . S
C279 N276 1.314 . S
C279 C277 1.353 . S
C279 H335 0.930 . S
C280 N281 1.314 . S
C280 C285 1.353 . S
C280 H286 0.930 . S
N281 Li264 1.990 . S
N281 C280 1.314 . S
N281 C283 1.279 . S
C282 C283 1.358 . S
C282 C284 1.356 . S
C282 H336 0.930 . S
C283 N281 1.279 . S
C283 C282 1.358 . S
C283 H287 0.930 . S
C284 C282 1.356 . S
C284 C285 1.348 . S
C285 C280 1.353 . S
C285 C284 1.348 . S
C285 H337 0.929 . S
H286 C280 0.930 . S
H287 C283 0.930 . S
C288 N289 1.314 . S
C288 C290 1.353 . S
C288 H294 0.930 . S
N289 Li265 1.990 . S
N289 C288 1.314 . S
N289 C292 1.279 . S
C290 C288 1.353 . S
C290 C293 1.348 . S
C290 H338 0.929 . S
C291 C292 1.358 . S
C291 C293 1.356 . S
C291 H339 0.930 . S
C292 N289 1.279 . S
C292 C291 1.358 . S
C292 H295 0.930 . S
C293 C290 1.348 . S
C293 C291 1.356 . S
H294 C288 0.930 . S
H295 C292 0.930 . S
C296 C298 1.348 . S
C296 C299 1.356 . S
C296 O326 1.325 . S
N297 C300 1.314 . S
N297 C301 1.279 . S
C298 C296 1.348 . S
C298 C300 1.353 . S
C298 H340 0.929 . S
C299 C296 1.356 . S
C299 C301 1.358 . S
C299 H341 0.930 . S
C300 N297 1.314 . S
C300 C298 1.353 . S
C300 H342 0.930 . S
C301 N297 1.279 . S
C301 C299 1.358 . S
C301 H343 0.930 . S
C302 C303 1.348 . S
C302 C304 1.356 . S
C302 O327 1.325 . S
C303 C302 1.348 . S
C303 C305 1.353 . S
C303 H344 0.929 . S
C304 C302 1.356 . S
C304 C306 1.358 . S
C304 H345 0.930 . S
C305 C303 1.353 . S
C305 N307 1.314 . S
C305 H346 0.930 . S
C306 C304 1.358 . S
C306 N307 1.279 . S
C306 H347 0.930 . S
N307 C305 1.314 . S
N307 C306 1.279 . S
C308 C310 1.353 . S
C308 N311 1.314 . S
C308 H314 0.930 . S
C309 N311 1.279 . S
C309 C312 1.358 . S
C309 H315 0.930 . S
C310 C308 1.353 . S
C310 C313 1.348 . S
C310 H348 0.929 . S
N311 Li266 1.990 . S
N311 C308 1.314 . S
N311 C309 1.279 . S
C312 C309 1.358 . S
C312 C313 1.356 . S
C312 H349 0.930 . S
C313 C310 1.348 . S
C313 C312 1.356 . S
H314 C308 0.930 . S
H315 C309 0.930 . S
C316 N317 1.314 . S
C316 C318 1.353 . S
C316 H322 0.930 . S
N317 Li267 1.990 . S
N317 C316 1.314 . S
N317 C320 1.279 . S
C318 C316 1.353 . S
C318 C321 1.348 . S
C318 H350 0.929 . S
C319 C320 1.358 . S
C319 C321 1.356 . S
C319 H351 0.930 . S
C320 N317 1.279 . S
C320 C319 1.358 . S
C320 H323 0.930 . S
C321 C318 1.348 . S
C321 C319 1.356 . S
H322 C316 0.930 . S
H323 C320 0.930 . S
O324 Li264 1.956 . S
O324 Li265 1.970 . S
O324 Li266 1.961 . S
O324 C268 1.325 . S
O325 Li264 1.970 . S
O325 Li265 1.956 . S
O325 Li267 1.961 . S
O325 C274 1.325 . S
O326 Li264 1.961 . S
O326 Li266 1.956 . S
O326 Li267 1.970 . S
O326 C296 1.325 . S
O327 Li265 1.961 . S
O327 Li266 1.970 . S
O327 Li267 1.956 . S
O327 C302 1.325 . S
H328 C270 0.929 . S
H329 C271 0.930 . S
H330 C272 0.930 . S
H331 C273 0.930 . S
H332 C275 0.930 . S
H333 C277 0.929 . S
H334 C278 0.930 . S
H335 C279 0.930 . S
H336 C282 0.930 . S
H337 C285 0.929 . S
H338 C290 0.929 . S
H339 C291 0.930 . S
H340 C298 0.929 . S
H341 C299 0.930 . S
H342 C300 0.930 . S
H343 C301 0.930 . S
H344 C303 0.929 . S
H345 C304 0.930 . S
H346 C305 0.930 . S
H347 C306 0.930 . S
H348 C310 0.929 . S
H349 C312 0.930 . S
H350 C318 0.929 . S
H351 C319 0.930 . S
Li352 N369 1.990 . S
Li352 O412 1.956 . S
Li352 O413 1.970 . S
Li352 O414 1.961 . S
Li353 N377 1.990 . S
Li353 O412 1.970 . S
Li353 O413 1.956 . S
Li353 O415 1.961 . S
Li354 N399 1.990 . S
Li354 O412 1.961 . S
Li354 O414 1.956 . S
Li354 O415 1.970 . S
Li355 N405 1.990 . S
Li355 O413 1.961 . S
Li355 O414 1.970 . S
Li355 O415 1.956 . S
C356 C358 1.348 . S
C356 C359 1.356 . S
C356 O412 1.325 . S
N357 C360 1.314 . S
N357 C361 1.279 . S
C358 C356 1.348 . S
C358 C360 1.353 . S
C358 H416 0.929 . S
C359 C356 1.356 . S
C359 C361 1.358 . S
C359 H417 0.930 . S
C360 N357 1.314 . S
C360 C358 1.353 . S
C360 H418 0.930 . S
C361 N357 1.279 . S
C361 C359 1.358 . S
C361 H419 0.930 . S
C362 C365 1.348 . S
C362 C366 1.356 . S
C362 O413 1.325 . S
C363 N364 1.279 . S
C363 C366 1.358 . S
C363 H420 0.930 . S
N364 C363 1.279 . S
N364 C367 1.314 . S
C365 C362 1.348 . S
C365 C367 1.353 . S
C365 H421 0.929 . S
C366 C362 1.356 . S
C366 C363 1.358 . S
C366 H422 0.930 . S
C367 N364 1.314 . S
C367 C365 1.353 . S
C367 H423 0.930 . S
C368 N369 1.314 . S
C368 C373 1.353 . S
C368 H374 0.930 . S
N369 Li352 1.990 . S
N369 C368 1.314 . S
N369 C371 1.279 . S
C370 C371 1.358 . S
C370 C372 1.356 . S
C370 H424 0.930 . S
C371 N369 1.279 . S
C371 C370 1.358 . S
C371 H375 0.930 . S
C372 C370 1.356 . S
C372 C373 1.348 . S
C373 C368 1.353 . S
C373 C372 1.348 . S
C373 H425 0.929 . S
H374 C368 0.930 . S
H375 C371 0.930 . S
C376 N377 1.314 . S
C376 C378 1.353 . S
C376 H382 0.930 . S
N377 Li353 1.990 . S
N377 C376 1.314 . S
N377 C380 1.279 . S
C378 C376 1.353 . S
C378 C381 1.348 . S
C378 H426 0.929 . S
C379 C380 1.358 . S
C379 C381 1.356 . S
C379 H427 0.930 . S
C380 N377 1.279 . S
C380 C379 1.358 . S
C380 H383 0.930 . S
C381 C378 1.348 . S
C381 C379 1.356 . S
H382 C376 0.930 . S
H383 C380 0.930 . S
C384 C386 1.348 . S
C384 C387 1.356 . S
C384 O414 1.325 . S
N385 C388 1.314 . S
N385 C389 1.279 . S
C386 C384 1.348 . S
C386 C388 1.353 . S
C386 H428 0.929 . S
C387 C384 1.356 . S
C387 C389 1.358 . S
C387 H429 0.930 . S
C388 N385 1.314 . S
C388 C386 1.353 . S
C388 H430 0.930 . S
C389 N385 1.279 . S
C389 C387 1.358 . S
C389 H431 0.930 . S
C390 C391 1.348 . S
C390 C392 1.356 . S
C390 O415 1.325 . S
C391 C390 1.348 . S
C391 C393 1.353 . S
C391 H432 0.929 . S
C392 C390 1.356 . S
C392 C394 1.358 . S
C392 H433 0.930 . S
C393 C391 1.353 . S
C393 N395 1.314 . S
C393 H434 0.930 . S
C394 C392 1.358 . S
C394 N395 1.279 . S
C394 H435 0.930 . S
N395 C393 1.314 . S
N395 C394 1.279 . S
C396 C398 1.353 . S
C396 N399 1.314 . S
C396 H402 0.930 . S
C397 N399 1.279 . S
C397 C400 1.358 . S
C397 H403 0.930 . S
C398 C396 1.353 . S
C398 C401 1.348 . S
C398 H436 0.929 . S
N399 Li354 1.990 . S
N399 C396 1.314 . S
N399 C397 1.279 . S
C400 C397 1.358 . S
C400 C401 1.356 . S
C400 H437 0.930 . S
C401 C398 1.348 . S
C401 C400 1.356 . S
H402 C396 0.930 . S
H403 C397 0.930 . S
C404 N405 1.314 . S
C404 C406 1.353 . S
C404 H410 0.930 . S
N405 Li355 1.990 . S
N405 C404 1.314 . S
N405 C408 1.279 . S
C406 C404 1.353 . S
C406 C409 1.348 . S
C406 H438 0.929 . S
C407 C408 1.358 . S
C407 C409 1.356 . S
C407 H439 0.930 . S
C408 N405 1.279 . S
C408 C407 1.358 . S
C408 H411 0.930 . S
C409 C406 1.348 . S
C409 C407 1.356 . S
H410 C404 0.930 . S
H411 C408 0.930 . S
O412 Li352 1.956 . S
O412 Li353 1.970 . S
O412 Li354 1.961 . S
O412 C356 1.325 . S
O413 Li352 1.970 . S
O413 Li353 1.956 . S
O413 Li355 1.961 . S
O413 C362 1.325 . S
O414 Li352 1.961 . S
O414 Li354 1.956 . S
O414 Li355 1.970 . S
O414 C384 1.325 . S
O415 Li353 1.961 . S
O415 Li354 1.970 . S
O415 Li355 1.956 . S
O415 C390 1.325 . S
H416 C358 0.929 . S
H417 C359 0.930 . S
H418 C360 0.930 . S
H419 C361 0.930 . S
H420 C363 0.930 . S
H421 C365 0.929 . S
H422 C366 0.930 . S
H423 C367 0.930 . S
H424 C370 0.930 . S
H425 C373 0.929 . S
H426 C378 0.929 . S
H427 C379 0.930 . S
H428 C386 0.929 . S
H429 C387 0.930 . S
H430 C388 0.930 . S
H431 C389 0.930 . S
H432 C391 0.929 . S
H433 C392 0.930 . S
H434 C393 0.930 . S
H435 C394 0.930 . S
H436 C398 0.929 . S
H437 C400 0.930 . S
H438 C406 0.929 . S
H439 C407 0.930 . S
Li440 N457 1.990 . S
Li440 O500 1.956 . S
Li440 O501 1.970 . S
Li440 O502 1.961 . S
Li441 N465 1.990 . S
Li441 O500 1.970 . S
Li441 O501 1.956 . S
Li441 O503 1.961 . S
Li442 N487 1.990 . S
Li442 O500 1.961 . S
Li442 O502 1.956 . S
Li442 O503 1.970 . S
Li443 N493 1.990 . S
Li443 O501 1.961 . S
Li443 O502 1.970 . S
Li443 O503 1.956 . S
C444 C446 1.348 . S
C444 C447 1.356 . S
C444 O500 1.325 . S
N445 C448 1.314 . S
N445 C449 1.279 . S
C446 C444 1.348 . S
C446 C448 1.353 . S
C446 H504 0.929 . S
C447 C444 1.356 . S
C447 C449 1.358 . S
C447 H505 0.930 . S
C448 N445 1.314 . S
C448 C446 1.353 . S
C448 H506 0.930 . S
C449 N445 1.279 . S
C449 C447 1.358 . S
C449 H507 0.930 . S
C450 C453 1.348 . S
C450 C454 1.356 . S
C450 O501 1.325 . S
C451 N452 1.279 . S
C451 C454 1.358 . S
C451 H508 0.930 . S
N452 C451 1.279 . S
N452 C455 1.314 . S
C453 C450 1.348 . S
C453 C455 1.353 . S
C453 H509 0.929 . S
C454 C450 1.356 . S
C454 C451 1.358 . S
C454 H510 0.930 . S
C455 N452 1.314 . S
C455 C453 1.353 . S
C455 H511 0.930 . S
C456 N457 1.314 . S
C456 C461 1.353 . S
C456 H462 0.930 . S
N457 Li440 1.990 . S
N457 C456 1.314 . S
N457 C459 1.279 . S
C458 C459 1.358 . S
C458 C460 1.356 . S
C458 H512 0.930 . S
C459 N457 1.279 . S
C459 C458 1.358 . S
C459 H463 0.930 . S
C460 C458 1.356 . S
C460 C461 1.348 . S
C461 C456 1.353 . S
C461 C460 1.348 . S
C461 H513 0.929 . S
H462 C456 0.930 . S
H463 C459 0.930 . S
C464 N465 1.314 . S
C464 C466 1.353 . S
C464 H470 0.930 . S
N465 Li441 1.990 . S
N465 C464 1.314 . S
N465 C468 1.279 . S
C466 C464 1.353 . S
C466 C469 1.348 . S
C466 H514 0.929 . S
C467 C468 1.358 . S
C467 C469 1.356 . S
C467 H515 0.930 . S
C468 N465 1.279 . S
C468 C467 1.358 . S
C468 H471 0.930 . S
C469 C466 1.348 . S
C469 C467 1.356 . S
H470 C464 0.930 . S
H471 C468 0.930 . S
C472 C474 1.348 . S
C472 C475 1.356 . S
C472 O502 1.325 . S
N473 C476 1.314 . S
N473 C477 1.279 . S
C474 C472 1.348 . S
C474 C476 1.353 . S
C474 H516 0.929 . S
C475 C472 1.356 . S
C475 C477 1.358 . S
C475 H517 0.930 . S
C476 N473 1.314 . S
C476 C474 1.353 . S
C476 H518 0.930 . S
C477 N473 1.279 . S
C477 C475 1.358 . S
C477 H519 0.930 . S
C478 C479 1.348 . S
C478 C480 1.356 . S
C478 O503 1.325 . S
C479 C478 1.348 . S
C479 C481 1.353 . S
C479 H520 0.929 . S
C480 C478 1.356 . S
C480 C482 1.358 . S
C480 H521 0.930 . S
C481 C479 1.353 . S
C481 N483 1.314 . S
C481 H522 0.930 . S
C482 C480 1.358 . S
C482 N483 1.279 . S
C482 H523 0.930 . S
N483 C481 1.314 . S
N483 C482 1.279 . S
C484 C486 1.353 . S
C484 N487 1.314 . S
C484 H490 0.930 . S
C485 N487 1.279 . S
C485 C488 1.358 . S
C485 H491 0.930 . S
C486 C484 1.353 . S
C486 C489 1.348 . S
C486 H524 0.929 . S
N487 Li442 1.990 . S
N487 C484 1.314 . S
N487 C485 1.279 . S
C488 C485 1.358 . S
C488 C489 1.356 . S
C488 H525 0.930 . S
C489 C486 1.348 . S
C489 C488 1.356 . S
H490 C484 0.930 . S
H491 C485 0.930 . S
C492 N493 1.314 . S
C492 C494 1.353 . S
C492 H498 0.930 . S
N493 Li443 1.990 . S
N493 C492 1.314 . S
N493 C496 1.279 . S
C494 C492 1.353 . S
C494 C497 1.348 . S
C494 H526 0.929 . S
C495 C496 1.358 . S
C495 C497 1.356 . S
C495 H527 0.930 . S
C496 N493 1.279 . S
C496 C495 1.358 . S
C496 H499 0.930 . S
C497 C494 1.348 . S
C497 C495 1.356 . S
H498 C492 0.930 . S
H499 C496 0.930 . S
O500 Li440 1.956 . S
O500 Li441 1.970 . S
O500 Li442 1.961 . S
O500 C444 1.325 . S
O501 Li440 1.970 . S
O501 Li441 1.956 . S
O501 Li443 1.961 . S
O501 C450 1.325 . S
O502 Li440 1.961 . S
O502 Li442 1.956 . S
O502 Li443 1.970 . S
O502 C472 1.325 . S
O503 Li441 1.961 . S
O503 Li442 1.970 . S
O503 Li443 1.956 . S
O503 C478 1.325 . S
H504 C446 0.929 . S
H505 C447 0.930 . S
H506 C448 0.930 . S
H507 C449 0.930 . S
H508 C451 0.930 . S
H509 C453 0.929 . S
H510 C454 0.930 . S
H511 C455 0.930 . S
H512 C458 0.930 . S
H513 C461 0.929 . S
H514 C466 0.929 . S
H515 C467 0.930 . S
H516 C474 0.929 . S
H517 C475 0.930 . S
H518 C476 0.930 . S
H519 C477 0.930 . S
H520 C479 0.929 . S
H521 C480 0.930 . S
H522 C481 0.930 . S
H523 C482 0.930 . S
H524 C486 0.929 . S
H525 C488 0.930 . S
H526 C494 0.929 . S
H527 C495 0.930 . S
Li528 N545 1.990 . S
Li528 O588 1.956 . S
Li528 O589 1.970 . S
Li528 O590 1.961 . S
Li529 N553 1.990 . S
Li529 O588 1.970 . S
Li529 O589 1.956 . S
Li529 O591 1.961 . S
Li530 N575 1.990 . S
Li530 O588 1.961 . S
Li530 O590 1.956 . S
Li530 O591 1.970 . S
Li531 N581 1.990 . S
Li531 O589 1.961 . S
Li531 O590 1.970 . S
Li531 O591 1.956 . S
C532 C534 1.348 . S
C532 C535 1.356 . S
C532 O588 1.325 . S
N533 C536 1.314 . S
N533 C537 1.279 . S
C534 C532 1.348 . S
C534 C536 1.353 . S
C534 H592 0.929 . S
C535 C532 1.356 . S
C535 C537 1.358 . S
C535 H593 0.930 . S
C536 N533 1.314 . S
C536 C534 1.353 . S
C536 H594 0.930 . S
C537 N533 1.279 . S
C537 C535 1.358 . S
C537 H595 0.930 . S
C538 C541 1.348 . S
C538 C542 1.356 . S
C538 O589 1.325 . S
C539 N540 1.279 . S
C539 C542 1.358 . S
C539 H596 0.930 . S
N540 C539 1.279 . S
N540 C543 1.314 . S
C541 C538 1.348 . S
C541 C543 1.353 . S
C541 H597 0.929 . S
C542 C538 1.356 . S
C542 C539 1.358 . S
C542 H598 0.930 . S
C543 N540 1.314 . S
C543 C541 1.353 . S
C543 H599 0.930 . S
C544 N545 1.314 . S
C544 C549 1.353 . S
C544 H550 0.930 . S
N545 Li528 1.990 . S
N545 C544 1.314 . S
N545 C547 1.279 . S
C546 C547 1.358 . S
C546 C548 1.356 . S
C546 H600 0.930 . S
C547 N545 1.279 . S
C547 C546 1.358 . S
C547 H551 0.930 . S
C548 C546 1.356 . S
C548 C549 1.348 . S
C549 C544 1.353 . S
C549 C548 1.348 . S
C549 H601 0.929 . S
H550 C544 0.930 . S
H551 C547 0.930 . S
C552 N553 1.314 . S
C552 C554 1.353 . S
C552 H558 0.930 . S
N553 Li529 1.990 . S
N553 C552 1.314 . S
N553 C556 1.279 . S
C554 C552 1.353 . S
C554 C557 1.348 . S
C554 H602 0.929 . S
C555 C556 1.358 . S
C555 C557 1.356 . S
C555 H603 0.930 . S
C556 N553 1.279 . S
C556 C555 1.358 . S
C556 H559 0.930 . S
C557 C554 1.348 . S
C557 C555 1.356 . S
H558 C552 0.930 . S
H559 C556 0.930 . S
C560 C562 1.348 . S
C560 C563 1.356 . S
C560 O590 1.325 . S
N561 C564 1.314 . S
N561 C565 1.279 . S
C562 C560 1.348 . S
C562 C564 1.353 . S
C562 H604 0.929 . S
C563 C560 1.356 . S
C563 C565 1.358 . S
C563 H605 0.930 . S
C564 N561 1.314 . S
C564 C562 1.353 . S
C564 H606 0.930 . S
C565 N561 1.279 . S
C565 C563 1.358 . S
C565 H607 0.930 . S
C566 C567 1.348 . S
C566 C568 1.356 . S
C566 O591 1.325 . S
C567 C566 1.348 . S
C567 C569 1.353 . S
C567 H608 0.929 . S
C568 C566 1.356 . S
C568 C570 1.358 . S
C568 H609 0.930 . S
C569 C567 1.353 . S
C569 N571 1.314 . S
C569 H610 0.930 . S
C570 C568 1.358 . S
C570 N571 1.279 . S
C570 H611 0.930 . S
N571 C569 1.314 . S
N571 C570 1.279 . S
C572 C574 1.353 . S
C572 N575 1.314 . S
C572 H578 0.930 . S
C573 N575 1.279 . S
C573 C576 1.358 . S
C573 H579 0.930 . S
C574 C572 1.353 . S
C574 C577 1.348 . S
C574 H612 0.929 . S
N575 Li530 1.990 . S
N575 C572 1.314 . S
N575 C573 1.279 . S
C576 C573 1.358 . S
C576 C577 1.356 . S
C576 H613 0.930 . S
C577 C574 1.348 . S
C577 C576 1.356 . S
H578 C572 0.930 . S
H579 C573 0.930 . S
C580 N581 1.314 . S
C580 C582 1.353 . S
C580 H586 0.930 . S
N581 Li531 1.990 . S
N581 C580 1.314 . S
N581 C584 1.279 . S
C582 C580 1.353 . S
C582 C585 1.348 . S
C582 H614 0.929 . S
C583 C584 1.358 . S
C583 C585 1.356 . S
C583 H615 0.930 . S
C584 N581 1.279 . S
C584 C583 1.358 . S
C584 H587 0.930 . S
C585 C582 1.348 . S
C585 C583 1.356 . S
H586 C580 0.930 . S
H587 C584 0.930 . S
O588 Li528 1.956 . S
O588 Li529 1.970 . S
O588 Li530 1.961 . S
O588 C532 1.325 . S
O589 Li528 1.970 . S
O589 Li529 1.956 . S
O589 Li531 1.961 . S
O589 C538 1.325 . S
O590 Li528 1.961 . S
O590 Li530 1.956 . S
O590 Li531 1.970 . S
O590 C560 1.325 . S
O591 Li529 1.961 . S
O591 Li530 1.970 . S
O591 Li531 1.956 . S
O591 C566 1.325 . S
H592 C534 0.929 . S
H593 C535 0.930 . S
H594 C536 0.930 . S
H595 C537 0.930 . S
H596 C539 0.930 . S
H597 C541 0.929 . S
H598 C542 0.930 . S
H599 C543 0.930 . S
H600 C546 0.930 . S
H601 C549 0.929 . S
H602 C554 0.929 . S
H603 C555 0.930 . S
H604 C562 0.929 . S
H605 C563 0.930 . S
H606 C564 0.930 . S
H607 C565 0.930 . S
H608 C567 0.929 . S
H609 C568 0.930 . S
H610 C569 0.930 . S
H611 C570 0.930 . S
H612 C574 0.929 . S
H613 C576 0.930 . S
H614 C582 0.929 . S
H615 C583 0.930 . S
Li616 N633 1.990 . S
Li616 O676 1.956 . S
Li616 O677 1.970 . S
Li616 O678 1.961 . S
Li617 N641 1.990 . S
Li617 O676 1.970 . S
Li617 O677 1.956 . S
Li617 O679 1.961 . S
Li618 N663 1.990 . S
Li618 O676 1.961 . S
Li618 O678 1.956 . S
Li618 O679 1.970 . S
Li619 N669 1.990 . S
Li619 O677 1.961 . S
Li619 O678 1.970 . S
Li619 O679 1.956 . S
C620 C622 1.348 . S
C620 C623 1.356 . S
C620 O676 1.325 . S
N621 C624 1.314 . S
N621 C625 1.279 . S
C622 C620 1.348 . S
C622 C624 1.353 . S
C622 H680 0.929 . S
C623 C620 1.356 . S
C623 C625 1.358 . S
C623 H681 0.930 . S
C624 N621 1.314 . S
C624 C622 1.353 . S
C624 H682 0.930 . S
C625 N621 1.279 . S
C625 C623 1.358 . S
C625 H683 0.930 . S
C626 C629 1.348 . S
C626 C630 1.356 . S
C626 O677 1.325 . S
C627 N628 1.279 . S
C627 C630 1.358 . S
C627 H684 0.930 . S
N628 C627 1.279 . S
N628 C631 1.314 . S
C629 C626 1.348 . S
C629 C631 1.353 . S
C629 H685 0.929 . S
C630 C626 1.356 . S
C630 C627 1.358 . S
C630 H686 0.930 . S
C631 N628 1.314 . S
C631 C629 1.353 . S
C631 H687 0.930 . S
C632 N633 1.314 . S
C632 C637 1.353 . S
C632 H638 0.930 . S
N633 Li616 1.990 . S
N633 C632 1.314 . S
N633 C635 1.279 . S
C634 C635 1.358 . S
C634 C636 1.356 . S
C634 H688 0.930 . S
C635 N633 1.279 . S
C635 C634 1.358 . S
C635 H639 0.930 . S
C636 C634 1.356 . S
C636 C637 1.348 . S
C637 C632 1.353 . S
C637 C636 1.348 . S
C637 H689 0.929 . S
H638 C632 0.930 . S
H639 C635 0.930 . S
C640 N641 1.314 . S
C640 C642 1.353 . S
C640 H646 0.930 . S
N641 Li617 1.990 . S
N641 C640 1.314 . S
N641 C644 1.279 . S
C642 C640 1.353 . S
C642 C645 1.348 . S
C642 H690 0.929 . S
C643 C644 1.358 . S
C643 C645 1.356 . S
C643 H691 0.930 . S
C644 N641 1.279 . S
C644 C643 1.358 . S
C644 H647 0.930 . S
C645 C642 1.348 . S
C645 C643 1.356 . S
H646 C640 0.930 . S
H647 C644 0.930 . S
C648 C650 1.348 . S
C648 C651 1.356 . S
C648 O678 1.325 . S
N649 C652 1.314 . S
N649 C653 1.279 . S
C650 C648 1.348 . S
C650 C652 1.353 . S
C650 H692 0.929 . S
C651 C648 1.356 . S
C651 C653 1.358 . S
C651 H693 0.930 . S
C652 N649 1.314 . S
C652 C650 1.353 . S
C652 H694 0.930 . S
C653 N649 1.279 . S
C653 C651 1.358 . S
C653 H695 0.930 . S
C654 C655 1.348 . S
C654 C656 1.356 . S
C654 O679 1.325 . S
C655 C654 1.348 . S
C655 C657 1.353 . S
C655 H696 0.929 . S
C656 C654 1.356 . S
C656 C658 1.358 . S
C656 H697 0.930 . S
C657 C655 1.353 . S
C657 N659 1.314 . S
C657 H698 0.930 . S
C658 C656 1.358 . S
C658 N659 1.279 . S
C658 H699 0.930 . S
N659 C657 1.314 . S
N659 C658 1.279 . S
C660 C662 1.353 . S
C660 N663 1.314 . S
C660 H666 0.930 . S
C661 N663 1.279 . S
C661 C664 1.358 . S
C661 H667 0.930 . S
C662 C660 1.353 . S
C662 C665 1.348 . S
C662 H700 0.929 . S
N663 Li618 1.990 . S
N663 C660 1.314 . S
N663 C661 1.279 . S
C664 C661 1.358 . S
C664 C665 1.356 . S
C664 H701 0.930 . S
C665 C662 1.348 . S
C665 C664 1.356 . S
H666 C660 0.930 . S
H667 C661 0.930 . S
C668 N669 1.314 . S
C668 C670 1.353 . S
C668 H674 0.930 . S
N669 Li619 1.990 . S
N669 C668 1.314 . S
N669 C672 1.279 . S
C670 C668 1.353 . S
C670 C673 1.348 . S
C670 H702 0.929 . S
C671 C672 1.358 . S
C671 C673 1.356 . S
C671 H703 0.930 . S
C672 N669 1.279 . S
C672 C671 1.358 . S
C672 H675 0.930 . S
C673 C670 1.348 . S
C673 C671 1.356 . S
H674 C668 0.930 . S
H675 C672 0.930 . S
O676 Li616 1.956 . S
O676 Li617 1.970 . S
O676 Li618 1.961 . S
O676 C620 1.325 . S
O677 Li616 1.970 . S
O677 Li617 1.956 . S
O677 Li619 1.961 . S
O677 C626 1.325 . S
O678 Li616 1.961 . S
O678 Li618 1.956 . S
O678 Li619 1.970 . S
O678 C648 1.325 . S
O679 Li617 1.961 . S
O679 Li618 1.970 . S
O679 Li619 1.956 . S
O679 C654 1.325 . S
H680 C622 0.929 . S
H681 C623 0.930 . S
H682 C624 0.930 . S
H683 C625 0.930 . S
H684 C627 0.930 . S
H685 C629 0.929 . S
H686 C630 0.930 . S
H687 C631 0.930 . S
H688 C634 0.930 . S
H689 C637 0.929 . S
H690 C642 0.929 . S
H691 C643 0.930 . S
H692 C650 0.929 . S
H693 C651 0.930 . S
H694 C652 0.930 . S
H695 C653 0.930 . S
H696 C655 0.929 . S
H697 C656 0.930 . S
H698 C657 0.930 . S
H699 C658 0.930 . S
H700 C662 0.929 . S
H701 C664 0.930 . S
H702 C670 0.929 . S
H703 C671 0.930 . S
Li704 N721 1.990 . S
Li704 O764 1.956 . S
Li704 O765 1.970 . S
Li704 O766 1.961 . S
Li705 N729 1.990 . S
Li705 O764 1.970 . S
Li705 O765 1.956 . S
Li705 O767 1.961 . S
Li706 N751 1.990 . S
Li706 O764 1.961 . S
Li706 O766 1.956 . S
Li706 O767 1.970 . S
Li707 N757 1.990 . S
Li707 O765 1.961 . S
Li707 O766 1.970 . S
Li707 O767 1.956 . S
C708 C710 1.348 . S
C708 C711 1.356 . S
C708 O764 1.325 . S
N709 C712 1.314 . S
N709 C713 1.279 . S
C710 C708 1.348 . S
C710 C712 1.353 . S
C710 H768 0.929 . S
C711 C708 1.356 . S
C711 C713 1.358 . S
C711 H769 0.930 . S
C712 N709 1.314 . S
C712 C710 1.353 . S
C712 H770 0.930 . S
C713 N709 1.279 . S
C713 C711 1.358 . S
C713 H771 0.930 . S
C714 C717 1.348 . S
C714 C718 1.356 . S
C714 O765 1.325 . S
C715 N716 1.279 . S
C715 C718 1.358 . S
C715 H772 0.930 . S
N716 C715 1.279 . S
N716 C719 1.314 . S
C717 C714 1.348 . S
C717 C719 1.353 . S
C717 H773 0.929 . S
C718 C714 1.356 . S
C718 C715 1.358 . S
C718 H774 0.930 . S
C719 N716 1.314 . S
C719 C717 1.353 . S
C719 H775 0.930 . S
C720 N721 1.314 . S
C720 C725 1.353 . S
C720 H726 0.930 . S
N721 Li704 1.990 . S
N721 C720 1.314 . S
N721 C723 1.279 . S
C722 C723 1.358 . S
C722 C724 1.356 . S
C722 H776 0.930 . S
C723 N721 1.279 . S
C723 C722 1.358 . S
C723 H727 0.930 . S
C724 C722 1.356 . S
C724 C725 1.348 . S
C725 C720 1.353 . S
C725 C724 1.348 . S
C725 H777 0.929 . S
H726 C720 0.930 . S
H727 C723 0.930 . S
C728 N729 1.314 . S
C728 C730 1.353 . S
C728 H734 0.930 . S
N729 Li705 1.990 . S
N729 C728 1.314 . S
N729 C732 1.279 . S
C730 C728 1.353 . S
C730 C733 1.348 . S
C730 H778 0.929 . S
C731 C732 1.358 . S
C731 C733 1.356 . S
C731 H779 0.930 . S
C732 N729 1.279 . S
C732 C731 1.358 . S
C732 H735 0.930 . S
C733 C730 1.348 . S
C733 C731 1.356 . S
H734 C728 0.930 . S
H735 C732 0.930 . S
C736 C738 1.348 . S
C736 C739 1.356 . S
C736 O766 1.325 . S
N737 C740 1.314 . S
N737 C741 1.279 . S
C738 C736 1.348 . S
C738 C740 1.353 . S
C738 H780 0.929 . S
C739 C736 1.356 . S
C739 C741 1.358 . S
C739 H781 0.930 . S
C740 N737 1.314 . S
C740 C738 1.353 . S
C740 H782 0.930 . S
C741 N737 1.279 . S
C741 C739 1.358 . S
C741 H783 0.930 . S
C742 C743 1.348 . S
C742 C744 1.356 . S
C742 O767 1.325 . S
C743 C742 1.348 . S
C743 C745 1.353 . S
C743 H784 0.929 . S
C744 C742 1.356 . S
C744 C746 1.358 . S
C744 H785 0.930 . S
C745 C743 1.353 . S
C745 N747 1.314 . S
C745 H786 0.930 . S
C746 C744 1.358 . S
C746 N747 1.279 . S
C746 H787 0.930 . S
N747 C745 1.314 . S
N747 C746 1.279 . S
C748 C750 1.353 . S
C748 N751 1.314 . S
C748 H754 0.930 . S
C749 N751 1.279 . S
C749 C752 1.358 . S
C749 H755 0.930 . S
C750 C748 1.353 . S
C750 C753 1.348 . S
C750 H788 0.929 . S
N751 Li706 1.990 . S
N751 C748 1.314 . S
N751 C749 1.279 . S
C752 C749 1.358 . S
C752 C753 1.356 . S
C752 H789 0.930 . S
C753 C750 1.348 . S
C753 C752 1.356 . S
H754 C748 0.930 . S
H755 C749 0.930 . S
C756 N757 1.314 . S
C756 C758 1.353 . S
C756 H762 0.930 . S
N757 Li707 1.990 . S
N757 C756 1.314 . S
N757 C760 1.279 . S
C758 C756 1.353 . S
C758 C761 1.348 . S
C758 H790 0.929 . S
C759 C760 1.358 . S
C759 C761 1.356 . S
C759 H791 0.930 . S
C760 N757 1.279 . S
C760 C759 1.358 . S
C760 H763 0.930 . S
C761 C758 1.348 . S
C761 C759 1.356 . S
H762 C756 0.930 . S
H763 C760 0.930 . S
O764 Li704 1.956 . S
O764 Li705 1.970 . S
O764 Li706 1.961 . S
O764 C708 1.325 . S
O765 Li704 1.970 . S
O765 Li705 1.956 . S
O765 Li707 1.961 . S
O765 C714 1.325 . S
O766 Li704 1.961 . S
O766 Li706 1.956 . S
O766 Li707 1.970 . S
O766 C736 1.325 . S
O767 Li705 1.961 . S
O767 Li706 1.970 . S
O767 Li707 1.956 . S
O767 C742 1.325 . S
H768 C710 0.929 . S
H769 C711 0.930 . S
H770 C712 0.930 . S
H771 C713 0.930 . S
H772 C715 0.930 . S
H773 C717 0.929 . S
H774 C718 0.930 . S
H775 C719 0.930 . S
H776 C722 0.930 . S
H777 C725 0.929 . S
H778 C730 0.929 . S
H779 C731 0.930 . S
H780 C738 0.929 . S
H781 C739 0.930 . S
H782 C740 0.930 . S
H783 C741 0.930 . S
H784 C743 0.929 . S
H785 C744 0.930 . S
H786 C745 0.930 . S
H787 C746 0.930 . S
H788 C750 0.929 . S
H789 C752 0.930 . S
H790 C758 0.929 . S
H791 C759 0.930 . S
Li792 N809 1.990 . S
Li792 O852 1.956 . S
Li792 O853 1.970 . S
Li792 O854 1.961 . S
Li793 N817 1.990 . S
Li793 O852 1.970 . S
Li793 O853 1.956 . S
Li793 O855 1.961 . S
Li794 N839 1.990 . S
Li794 O852 1.961 . S
Li794 O854 1.956 . S
Li794 O855 1.970 . S
Li795 N845 1.990 . S
Li795 O853 1.961 . S
Li795 O854 1.970 . S
Li795 O855 1.956 . S
C796 C798 1.348 . S
C796 C799 1.356 . S
C796 O852 1.325 . S
N797 C800 1.314 . S
N797 C801 1.279 . S
C798 C796 1.348 . S
C798 C800 1.353 . S
C798 H856 0.929 . S
C799 C796 1.356 . S
C799 C801 1.358 . S
C799 H857 0.930 . S
C800 N797 1.314 . S
C800 C798 1.353 . S
C800 H858 0.930 . S
C801 N797 1.279 . S
C801 C799 1.358 . S
C801 H859 0.930 . S
C802 C805 1.348 . S
C802 C806 1.356 . S
C802 O853 1.325 . S
C803 N804 1.279 . S
C803 C806 1.358 . S
C803 H860 0.930 . S
N804 C803 1.279 . S
N804 C807 1.314 . S
C805 C802 1.348 . S
C805 C807 1.353 . S
C805 H861 0.929 . S
C806 C802 1.356 . S
C806 C803 1.358 . S
C806 H862 0.930 . S
C807 N804 1.314 . S
C807 C805 1.353 . S
C807 H863 0.930 . S
C808 N809 1.314 . S
C808 C813 1.353 . S
C808 H814 0.930 . S
N809 Li792 1.990 . S
N809 C808 1.314 . S
N809 C811 1.279 . S
C810 C811 1.358 . S
C810 C812 1.356 . S
C810 H864 0.930 . S
C811 N809 1.279 . S
C811 C810 1.358 . S
C811 H815 0.930 . S
C812 C810 1.356 . S
C812 C813 1.348 . S
C813 C808 1.353 . S
C813 C812 1.348 . S
C813 H865 0.929 . S
H814 C808 0.930 . S
H815 C811 0.930 . S
C816 N817 1.314 . S
C816 C818 1.353 . S
C816 H822 0.930 . S
N817 Li793 1.990 . S
N817 C816 1.314 . S
N817 C820 1.279 . S
C818 C816 1.353 . S
C818 C821 1.348 . S
C818 H866 0.929 . S
C819 C820 1.358 . S
C819 C821 1.356 . S
C819 H867 0.930 . S
C820 N817 1.279 . S
C820 C819 1.358 . S
C820 H823 0.930 . S
C821 C818 1.348 . S
C821 C819 1.356 . S
H822 C816 0.930 . S
H823 C820 0.930 . S
C824 C826 1.348 . S
C824 C827 1.356 . S
C824 O854 1.325 . S
N825 C828 1.314 . S
N825 C829 1.279 . S
C826 C824 1.348 . S
C826 C828 1.353 . S
C826 H868 0.929 . S
C827 C824 1.356 . S
C827 C829 1.358 . S
C827 H869 0.930 . S
C828 N825 1.314 . S
C828 C826 1.353 . S
C828 H870 0.930 . S
C829 N825 1.279 . S
C829 C827 1.358 . S
C829 H871 0.930 . S
C830 C831 1.348 . S
C830 C832 1.356 . S
C830 O855 1.325 . S
C831 C830 1.348 . S
C831 C833 1.353 . S
C831 H872 0.929 . S
C832 C830 1.356 . S
C832 C834 1.358 . S
C832 H873 0.930 . S
C833 C831 1.353 . S
C833 N835 1.314 . S
C833 H874 0.930 . S
C834 C832 1.358 . S
C834 N835 1.279 . S
C834 H875 0.930 . S
N835 C833 1.314 . S
N835 C834 1.279 . S
C836 C838 1.353 . S
C836 N839 1.314 . S
C836 H842 0.930 . S
C837 N839 1.279 . S
C837 C840 1.358 . S
C837 H843 0.930 . S
C838 C836 1.353 . S
C838 C841 1.348 . S
C838 H876 0.929 . S
N839 Li794 1.990 . S
N839 C836 1.314 . S
N839 C837 1.279 . S
C840 C837 1.358 . S
C840 C841 1.356 . S
C840 H877 0.930 . S
C841 C838 1.348 . S
C841 C840 1.356 . S
H842 C836 0.930 . S
H843 C837 0.930 . S
C844 N845 1.314 . S
C844 C846 1.353 . S
C844 H850 0.930 . S
N845 Li795 1.990 . S
N845 C844 1.314 . S
N845 C848 1.279 . S
C846 C844 1.353 . S
C846 C849 1.348 . S
C846 H878 0.929 . S
C847 C848 1.358 . S
C847 C849 1.356 . S
C847 H879 0.930 . S
C848 N845 1.279 . S
C848 C847 1.358 . S
C848 H851 0.930 . S
C849 C846 1.348 . S
C849 C847 1.356 . S
H850 C844 0.930 . S
H851 C848 0.930 . S
O852 Li792 1.956 . S
O852 Li793 1.970 . S
O852 Li794 1.961 . S
O852 C796 1.325 . S
O853 Li792 1.970 . S
O853 Li793 1.956 . S
O853 Li795 1.961 . S
O853 C802 1.325 . S
O854 Li792 1.961 . S
O854 Li794 1.956 . S
O854 Li795 1.970 . S
O854 C824 1.325 . S
O855 Li793 1.961 . S
O855 Li794 1.970 . S
O855 Li795 1.956 . S
O855 C830 1.325 . S
H856 C798 0.929 . S
H857 C799 0.930 . S
H858 C800 0.930 . S
H859 C801 0.930 . S
H860 C803 0.930 . S
H861 C805 0.929 . S
H862 C806 0.930 . S
H863 C807 0.930 . S
H864 C810 0.930 . S
H865 C813 0.929 . S
H866 C818 0.929 . S
H867 C819 0.930 . S
H868 C826 0.929 . S
H869 C827 0.930 . S
H870 C828 0.930 . S
H871 C829 0.930 . S
H872 C831 0.929 . S
H873 C832 0.930 . S
H874 C833 0.930 . S
H875 C834 0.930 . S
H876 C838 0.929 . S
H877 C840 0.930 . S
H878 C846 0.929 . S
H879 C847 0.930 . S
Li880 N897 1.990 . S
Li880 O940 1.956 . S
Li880 O941 1.970 . S
Li880 O942 1.961 . S
Li881 N905 1.990 . S
Li881 O940 1.970 . S
Li881 O941 1.956 . S
Li881 O943 1.961 . S
Li882 N927 1.990 . S
Li882 O940 1.961 . S
Li882 O942 1.956 . S
Li882 O943 1.970 . S
Li883 N933 1.990 . S
Li883 O941 1.961 . S
Li883 O942 1.970 . S
Li883 O943 1.956 . S
C884 C886 1.348 . S
C884 C887 1.356 . S
C884 O940 1.325 . S
N885 C888 1.314 . S
N885 C889 1.279 . S
C886 C884 1.348 . S
C886 C888 1.353 . S
C886 H944 0.929 . S
C887 C884 1.356 . S
C887 C889 1.358 . S
C887 H945 0.930 . S
C888 N885 1.314 . S
C888 C886 1.353 . S
C888 H946 0.930 . S
C889 N885 1.279 . S
C889 C887 1.358 . S
C889 H947 0.930 . S
C890 C893 1.348 . S
C890 C894 1.356 . S
C890 O941 1.325 . S
C891 N892 1.279 . S
C891 C894 1.358 . S
C891 H948 0.930 . S
N892 C891 1.279 . S
N892 C895 1.314 . S
C893 C890 1.348 . S
C893 C895 1.353 . S
C893 H949 0.929 . S
C894 C890 1.356 . S
C894 C891 1.358 . S
C894 H950 0.930 . S
C895 N892 1.314 . S
C895 C893 1.353 . S
C895 H951 0.930 . S
C896 N897 1.314 . S
C896 C901 1.353 . S
C896 H902 0.930 . S
N897 Li880 1.990 . S
N897 C896 1.314 . S
N897 C899 1.279 . S
C898 C899 1.358 . S
C898 C900 1.356 . S
C898 H952 0.930 . S
C899 N897 1.279 . S
C899 C898 1.358 . S
C899 H903 0.930 . S
C900 C898 1.356 . S
C900 C901 1.348 . S
C901 C896 1.353 . S
C901 C900 1.348 . S
C901 H953 0.929 . S
H902 C896 0.930 . S
H903 C899 0.930 . S
C904 N905 1.314 . S
C904 C906 1.353 . S
C904 H910 0.930 . S
N905 Li881 1.990 . S
N905 C904 1.314 . S
N905 C908 1.279 . S
C906 C904 1.353 . S
C906 C909 1.348 . S
C906 H954 0.929 . S
C907 C908 1.358 . S
C907 C909 1.356 . S
C907 H955 0.930 . S
C908 N905 1.279 . S
C908 C907 1.358 . S
C908 H911 0.930 . S
C909 C906 1.348 . S
C909 C907 1.356 . S
H910 C904 0.930 . S
H911 C908 0.930 . S
C912 C914 1.348 . S
C912 C915 1.356 . S
C912 O942 1.325 . S
N913 C916 1.314 . S
N913 C917 1.279 . S
C914 C912 1.348 . S
C914 C916 1.353 . S
C914 H956 0.929 . S
C915 C912 1.356 . S
C915 C917 1.358 . S
C915 H957 0.930 . S
C916 N913 1.314 . S
C916 C914 1.353 . S
C916 H958 0.930 . S
C917 N913 1.279 . S
C917 C915 1.358 . S
C917 H959 0.930 . S
C918 C919 1.348 . S
C918 C920 1.356 . S
C918 O943 1.325 . S
C919 C918 1.348 . S
C919 C921 1.353 . S
C919 H960 0.929 . S
C920 C918 1.356 . S
C920 C922 1.358 . S
C920 H961 0.930 . S
C921 C919 1.353 . S
C921 N923 1.314 . S
C921 H962 0.930 . S
C922 C920 1.358 . S
C922 N923 1.279 . S
C922 H963 0.930 . S
N923 C921 1.314 . S
N923 C922 1.279 . S
C924 C926 1.353 . S
C924 N927 1.314 . S
C924 H930 0.930 . S
C925 N927 1.279 . S
C925 C928 1.358 . S
C925 H931 0.930 . S
C926 C924 1.353 . S
C926 C929 1.348 . S
C926 H964 0.929 . S
N927 Li882 1.990 . S
N927 C924 1.314 . S
N927 C925 1.279 . S
C928 C925 1.358 . S
C928 C929 1.356 . S
C928 H965 0.930 . S
C929 C926 1.348 . S
C929 C928 1.356 . S
H930 C924 0.930 . S
H931 C925 0.930 . S
C932 N933 1.314 . S
C932 C934 1.353 . S
C932 H938 0.930 . S
N933 Li883 1.990 . S
N933 C932 1.314 . S
N933 C936 1.279 . S
C934 C932 1.353 . S
C934 C937 1.348 . S
C934 H966 0.929 . S
C935 C936 1.358 . S
C935 C937 1.356 . S
C935 H967 0.930 . S
C936 N933 1.279 . S
C936 C935 1.358 . S
C936 H939 0.930 . S
C937 C934 1.348 . S
C937 C935 1.356 . S
H938 C932 0.930 . S
H939 C936 0.930 . S
O940 Li880 1.956 . S
O940 Li881 1.970 . S
O940 Li882 1.961 . S
O940 C884 1.325 . S
O941 Li880 1.970 . S
O941 Li881 1.956 . S
O941 Li883 1.961 . S
O941 C890 1.325 . S
O942 Li880 1.961 . S
O942 Li882 1.956 . S
O942 Li883 1.970 . S
O942 C912 1.325 . S
O943 Li881 1.961 . S
O943 Li882 1.970 . S
O943 Li883 1.956 . S
O943 C918 1.325 . S
H944 C886 0.929 . S
H945 C887 0.930 . S
H946 C888 0.930 . S
H947 C889 0.930 . S
H948 C891 0.930 . S
H949 C893 0.929 . S
H950 C894 0.930 . S
H951 C895 0.930 . S
H952 C898 0.930 . S
H953 C901 0.929 . S
H954 C906 0.929 . S
H955 C907 0.930 . S
H956 C914 0.929 . S
H957 C915 0.930 . S
H958 C916 0.930 . S
H959 C917 0.930 . S
H960 C919 0.929 . S
H961 C920 0.930 . S
H962 C921 0.930 . S
H963 C922 0.930 . S
H964 C926 0.929 . S
H965 C928 0.930 . S
H966 C934 0.929 . S
H967 C935 0.930 . S
Li968 N985 1.990 . S
Li968 O1028 1.956 . S
Li968 O1029 1.970 . S
Li968 O1030 1.961 . S
Li969 N993 1.990 . S
Li969 O1028 1.970 . S
Li969 O1029 1.956 . S
Li969 O1031 1.961 . S
Li970 N1015 1.990 . S
Li970 O1028 1.961 . S
Li970 O1030 1.956 . S
Li970 O1031 1.970 . S
Li971 N1021 1.990 . S
Li971 O1029 1.961 . S
Li971 O1030 1.970 . S
Li971 O1031 1.956 . S
C972 C974 1.348 . S
C972 C975 1.356 . S
C972 O1028 1.325 . S
N973 C976 1.314 . S
N973 C977 1.279 . S
C974 C972 1.348 . S
C974 C976 1.353 . S
C974 H1032 0.929 . S
C975 C972 1.356 . S
C975 C977 1.358 . S
C975 H1033 0.930 . S
C976 N973 1.314 . S
C976 C974 1.353 . S
C976 H1034 0.930 . S
C977 N973 1.279 . S
C977 C975 1.358 . S
C977 H1035 0.930 . S
C978 C981 1.348 . S
C978 C982 1.356 . S
C978 O1029 1.325 . S
C979 N980 1.279 . S
C979 C982 1.358 . S
C979 H1036 0.930 . S
N980 C979 1.279 . S
N980 C983 1.314 . S
C981 C978 1.348 . S
C981 C983 1.353 . S
C981 H1037 0.929 . S
C982 C978 1.356 . S
C982 C979 1.358 . S
C982 H1038 0.930 . S
C983 N980 1.314 . S
C983 C981 1.353 . S
C983 H1039 0.930 . S
C984 N985 1.314 . S
C984 C989 1.353 . S
C984 H990 0.930 . S
N985 Li968 1.990 . S
N985 C984 1.314 . S
N985 C987 1.279 . S
C986 C987 1.358 . S
C986 C988 1.356 . S
C986 H1040 0.930 . S
C987 N985 1.279 . S
C987 C986 1.358 . S
C987 H991 0.930 . S
C988 C986 1.356 . S
C988 C989 1.348 . S
C989 C984 1.353 . S
C989 C988 1.348 . S
C989 H1041 0.929 . S
H990 C984 0.930 . S
H991 C987 0.930 . S
C992 N993 1.314 . S
C992 C994 1.353 . S
C992 H998 0.930 . S
N993 Li969 1.990 . S
N993 C992 1.314 . S
N993 C996 1.279 . S
C994 C992 1.353 . S
C994 C997 1.348 . S
C994 H1042 0.929 . S
C995 C996 1.358 . S
C995 C997 1.356 . S
C995 H1043 0.930 . S
C996 N993 1.279 . S
C996 C995 1.358 . S
C996 H999 0.930 . S
C997 C994 1.348 . S
C997 C995 1.356 . S
H998 C992 0.930 . S
H999 C996 0.930 . S
C1000 C1002 1.348 . S
C1000 C1003 1.356 . S
C1000 O1030 1.325 . S
N1001 C1004 1.314 . S
N1001 C1005 1.279 . S
C1002 C1000 1.348 . S
C1002 C1004 1.353 . S
C1002 H1044 0.929 . S
C1003 C1000 1.356 . S
C1003 C1005 1.358 . S
C1003 H1045 0.930 . S
C1004 N1001 1.314 . S
C1004 C1002 1.353 . S
C1004 H1046 0.930 . S
C1005 N1001 1.279 . S
C1005 C1003 1.358 . S
C1005 H1047 0.930 . S
C1006 C1007 1.348 . S
C1006 C1008 1.356 . S
C1006 O1031 1.325 . S
C1007 C1006 1.348 . S
C1007 C1009 1.353 . S
C1007 H1048 0.929 . S
C1008 C1006 1.356 . S
C1008 C1010 1.358 . S
C1008 H1049 0.930 . S
C1009 C1007 1.353 . S
C1009 N1011 1.314 . S
C1009 H1050 0.930 . S
C1010 C1008 1.358 . S
C1010 N1011 1.279 . S
C1010 H1051 0.930 . S
N1011 C1009 1.314 . S
N1011 C1010 1.279 . S
C1012 C1014 1.353 . S
C1012 N1015 1.314 . S
C1012 H1018 0.930 . S
C1013 N1015 1.279 . S
C1013 C1016 1.358 . S
C1013 H1019 0.930 . S
C1014 C1012 1.353 . S
C1014 C1017 1.348 . S
C1014 H1052 0.929 . S
N1015 Li970 1.990 . S
N1015 C1012 1.314 . S
N1015 C1013 1.279 . S
C1016 C1013 1.358 . S
C1016 C1017 1.356 . S
C1016 H1053 0.930 . S
C1017 C1014 1.348 . S
C1017 C1016 1.356 . S
H1018 C1012 0.930 . S
H1019 C1013 0.930 . S
C1020 N1021 1.314 . S
C1020 C1022 1.353 . S
C1020 H1026 0.930 . S
N1021 Li971 1.990 . S
N1021 C1020 1.314 . S
N1021 C1024 1.279 . S
C1022 C1020 1.353 . S
C1022 C1025 1.348 . S
C1022 H1054 0.929 . S
C1023 C1024 1.358 . S
C1023 C1025 1.356 . S
C1023 H1055 0.930 . S
C1024 N1021 1.279 . S
C1024 C1023 1.358 . S
C1024 H1027 0.930 . S
C1025 C1022 1.348 . S
C1025 C1023 1.356 . S
H1026 C1020 0.930 . S
H1027 C1024 0.930 . S
O1028 Li968 1.956 . S
O1028 Li969 1.970 . S
O1028 Li970 1.961 . S
O1028 C972 1.325 . S
O1029 Li968 1.970 . S
O1029 Li969 1.956 . S
O1029 Li971 1.961 . S
O1029 C978 1.325 . S
O1030 Li968 1.961 . S
O1030 Li970 1.956 . S
O1030 Li971 1.970 . S
O1030 C1000 1.325 . S
O1031 Li969 1.961 . S
O1031 Li970 1.970 . S
O1031 Li971 1.956 . S
O1031 C1006 1.325 . S
H1032 C974 0.929 . S
H1033 C975 0.930 . S
H1034 C976 0.930 . S
H1035 C977 0.930 . S
H1036 C979 0.930 . S
H1037 C981 0.929 . S
H1038 C982 0.930 . S
H1039 C983 0.930 . S
H1040 C986 0.930 . S
H1041 C989 0.929 . S
H1042 C994 0.929 . S
H1043 C995 0.930 . S
H1044 C1002 0.929 . S
H1045 C1003 0.930 . S
H1046 C1004 0.930 . S
H1047 C1005 0.930 . S
H1048 C1007 0.929 . S
H1049 C1008 0.930 . S
H1050 C1009 0.930 . S
H1051 C1010 0.930 . S
H1052 C1014 0.929 . S
H1053 C1016 0.930 . S
H1054 C1022 0.929 . S
H1055 C1023 0.930 . S
Li1056 N1073 1.990 . S
Li1056 O1116 1.956 . S
Li1056 O1117 1.970 . S
Li1056 O1118 1.961 . S
Li1057 N1081 1.990 . S
Li1057 O1116 1.970 . S
Li1057 O1117 1.956 . S
Li1057 O1119 1.961 . S
Li1058 N1103 1.990 . S
Li1058 O1116 1.961 . S
Li1058 O1118 1.956 . S
Li1058 O1119 1.970 . S
Li1059 N1109 1.990 . S
Li1059 O1117 1.961 . S
Li1059 O1118 1.970 . S
Li1059 O1119 1.956 . S
C1060 C1062 1.348 . S
C1060 C1063 1.356 . S
C1060 O1116 1.325 . S
N1061 C1064 1.314 . S
N1061 C1065 1.279 . S
C1062 C1060 1.348 . S
C1062 C1064 1.353 . S
C1062 H1120 0.929 . S
C1063 C1060 1.356 . S
C1063 C1065 1.358 . S
C1063 H1121 0.930 . S
C1064 N1061 1.314 . S
C1064 C1062 1.353 . S
C1064 H1122 0.930 . S
C1065 N1061 1.279 . S
C1065 C1063 1.358 . S
C1065 H1123 0.930 . S
C1066 C1069 1.348 . S
C1066 C1070 1.356 . S
C1066 O1117 1.325 . S
C1067 N1068 1.279 . S
C1067 C1070 1.358 . S
C1067 H1124 0.930 . S
N1068 C1067 1.279 . S
N1068 C1071 1.314 . S
C1069 C1066 1.348 . S
C1069 C1071 1.353 . S
C1069 H1125 0.929 . S
C1070 C1066 1.356 . S
C1070 C1067 1.358 . S
C1070 H1126 0.930 . S
C1071 N1068 1.314 . S
C1071 C1069 1.353 . S
C1071 H1127 0.930 . S
C1072 N1073 1.314 . S
C1072 C1077 1.353 . S
C1072 H1078 0.930 . S
N1073 Li1056 1.990 . S
N1073 C1072 1.314 . S
N1073 C1075 1.279 . S
C1074 C1075 1.358 . S
C1074 C1076 1.356 . S
C1074 H1128 0.930 . S
C1075 N1073 1.279 . S
C1075 C1074 1.358 . S
C1075 H1079 0.930 . S
C1076 C1074 1.356 . S
C1076 C1077 1.348 . S
C1077 C1072 1.353 . S
C1077 C1076 1.348 . S
C1077 H1129 0.929 . S
H1078 C1072 0.930 . S
H1079 C1075 0.930 . S
C1080 N1081 1.314 . S
C1080 C1082 1.353 . S
C1080 H1086 0.930 . S
N1081 Li1057 1.990 . S
N1081 C1080 1.314 . S
N1081 C1084 1.279 . S
C1082 C1080 1.353 . S
C1082 C1085 1.348 . S
C1082 H1130 0.929 . S
C1083 C1084 1.358 . S
C1083 C1085 1.356 . S
C1083 H1131 0.930 . S
C1084 N1081 1.279 . S
C1084 C1083 1.358 . S
C1084 H1087 0.930 . S
C1085 C1082 1.348 . S
C1085 C1083 1.356 . S
H1086 C1080 0.930 . S
H1087 C1084 0.930 . S
C1088 C1090 1.348 . S
C1088 C1091 1.356 . S
C1088 O1118 1.325 . S
N1089 C1092 1.314 . S
N1089 C1093 1.279 . S
C1090 C1088 1.348 . S
C1090 C1092 1.353 . S
C1090 H1132 0.929 . S
C1091 C1088 1.356 . S
C1091 C1093 1.358 . S
C1091 H1133 0.930 . S
C1092 N1089 1.314 . S
C1092 C1090 1.353 . S
C1092 H1134 0.930 . S
C1093 N1089 1.279 . S
C1093 C1091 1.358 . S
C1093 H1135 0.930 . S
C1094 C1095 1.348 . S
C1094 C1096 1.356 . S
C1094 O1119 1.325 . S
C1095 C1094 1.348 . S
C1095 C1097 1.353 . S
C1095 H1136 0.929 . S
C1096 C1094 1.356 . S
C1096 C1098 1.358 . S
C1096 H1137 0.930 . S
C1097 C1095 1.353 . S
C1097 N1099 1.314 . S
C1097 H1138 0.930 . S
C1098 C1096 1.358 . S
C1098 N1099 1.279 . S
C1098 H1139 0.930 . S
N1099 C1097 1.314 . S
N1099 C1098 1.279 . S
C1100 C1102 1.353 . S
C1100 N1103 1.314 . S
C1100 H1106 0.930 . S
C1101 N1103 1.279 . S
C1101 C1104 1.358 . S
C1101 H1107 0.930 . S
C1102 C1100 1.353 . S
C1102 C1105 1.348 . S
C1102 H1140 0.929 . S
N1103 Li1058 1.990 . S
N1103 C1100 1.314 . S
N1103 C1101 1.279 . S
C1104 C1101 1.358 . S
C1104 C1105 1.356 . S
C1104 H1141 0.930 . S
C1105 C1102 1.348 . S
C1105 C1104 1.356 . S
H1106 C1100 0.930 . S
H1107 C1101 0.930 . S
C1108 N1109 1.314 . S
C1108 C1110 1.353 . S
C1108 H1114 0.930 . S
N1109 Li1059 1.990 . S
N1109 C1108 1.314 . S
N1109 C1112 1.279 . S
C1110 C1108 1.353 . S
C1110 C1113 1.348 . S
C1110 H1142 0.929 . S
C1111 C1112 1.358 . S
C1111 C1113 1.356 . S
C1111 H1143 0.930 . S
C1112 N1109 1.279 . S
C1112 C1111 1.358 . S
C1112 H1115 0.930 . S
C1113 C1110 1.348 . S
C1113 C1111 1.356 . S
H1114 C1108 0.930 . S
H1115 C1112 0.930 . S
O1116 Li1056 1.956 . S
O1116 Li1057 1.970 . S
O1116 Li1058 1.961 . S
O1116 C1060 1.325 . S
O1117 Li1056 1.970 . S
O1117 Li1057 1.956 . S
O1117 Li1059 1.961 . S
O1117 C1066 1.325 . S
O1118 Li1056 1.961 . S
O1118 Li1058 1.956 . S
O1118 Li1059 1.970 . S
O1118 C1088 1.325 . S
O1119 Li1057 1.961 . S
O1119 Li1058 1.970 . S
O1119 Li1059 1.956 . S
O1119 C1094 1.325 . S
H1120 C1062 0.929 . S
H1121 C1063 0.930 . S
H1122 C1064 0.930 . S
H1123 C1065 0.930 . S
H1124 C1067 0.930 . S
H1125 C1069 0.929 . S
H1126 C1070 0.930 . S
H1127 C1071 0.930 . S
H1128 C1074 0.930 . S
H1129 C1077 0.929 . S
H1130 C1082 0.929 . S
H1131 C1083 0.930 . S
H1132 C1090 0.929 . S
H1133 C1091 0.930 . S
H1134 C1092 0.930 . S
H1135 C1093 0.930 . S
H1136 C1095 0.929 . S
H1137 C1096 0.930 . S
H1138 C1097 0.930 . S
H1139 C1098 0.930 . S
H1140 C1102 0.929 . S
H1141 C1104 0.930 . S
H1142 C1110 0.929 . S
H1143 C1111 0.930 . S
Li1144 N1161 1.990 . S
Li1144 O1204 1.956 . S
Li1144 O1205 1.970 . S
Li1144 O1206 1.961 . S
Li1145 N1169 1.990 . S
Li1145 O1204 1.970 . S
Li1145 O1205 1.956 . S
Li1145 O1207 1.961 . S
Li1146 N1191 1.990 . S
Li1146 O1204 1.961 . S
Li1146 O1206 1.956 . S
Li1146 O1207 1.970 . S
Li1147 N1197 1.990 . S
Li1147 O1205 1.961 . S
Li1147 O1206 1.970 . S
Li1147 O1207 1.956 . S
C1148 C1150 1.348 . S
C1148 C1151 1.356 . S
C1148 O1204 1.325 . S
N1149 C1152 1.314 . S
N1149 C1153 1.279 . S
C1150 C1148 1.348 . S
C1150 C1152 1.353 . S
C1150 H1208 0.929 . S
C1151 C1148 1.356 . S
C1151 C1153 1.358 . S
C1151 H1209 0.930 . S
C1152 N1149 1.314 . S
C1152 C1150 1.353 . S
C1152 H1210 0.930 . S
C1153 N1149 1.279 . S
C1153 C1151 1.358 . S
C1153 H1211 0.930 . S
C1154 C1157 1.348 . S
C1154 C1158 1.356 . S
C1154 O1205 1.325 . S
C1155 N1156 1.279 . S
C1155 C1158 1.358 . S
C1155 H1212 0.930 . S
N1156 C1155 1.279 . S
N1156 C1159 1.314 . S
C1157 C1154 1.348 . S
C1157 C1159 1.353 . S
C1157 H1213 0.929 . S
C1158 C1154 1.356 . S
C1158 C1155 1.358 . S
C1158 H1214 0.930 . S
C1159 N1156 1.314 . S
C1159 C1157 1.353 . S
C1159 H1215 0.930 . S
C1160 N1161 1.314 . S
C1160 C1165 1.353 . S
C1160 H1166 0.930 . S
N1161 Li1144 1.990 . S
N1161 C1160 1.314 . S
N1161 C1163 1.279 . S
C1162 C1163 1.358 . S
C1162 C1164 1.356 . S
C1162 H1216 0.930 . S
C1163 N1161 1.279 . S
C1163 C1162 1.358 . S
C1163 H1167 0.930 . S
C1164 C1162 1.356 . S
C1164 C1165 1.348 . S
C1165 C1160 1.353 . S
C1165 C1164 1.348 . S
C1165 H1217 0.929 . S
H1166 C1160 0.930 . S
H1167 C1163 0.930 . S
C1168 N1169 1.314 . S
C1168 C1170 1.353 . S
C1168 H1174 0.930 . S
N1169 Li1145 1.990 . S
N1169 C1168 1.314 . S
N1169 C1172 1.279 . S
C1170 C1168 1.353 . S
C1170 C1173 1.348 . S
C1170 H1218 0.929 . S
C1171 C1172 1.358 . S
C1171 C1173 1.356 . S
C1171 H1219 0.930 . S
C1172 N1169 1.279 . S
C1172 C1171 1.358 . S
C1172 H1175 0.930 . S
C1173 C1170 1.348 . S
C1173 C1171 1.356 . S
H1174 C1168 0.930 . S
H1175 C1172 0.930 . S
C1176 C1178 1.348 . S
C1176 C1179 1.356 . S
C1176 O1206 1.325 . S
N1177 C1180 1.314 . S
N1177 C1181 1.279 . S
C1178 C1176 1.348 . S
C1178 C1180 1.353 . S
C1178 H1220 0.929 . S
C1179 C1176 1.356 . S
C1179 C1181 1.358 . S
C1179 H1221 0.930 . S
C1180 N1177 1.314 . S
C1180 C1178 1.353 . S
C1180 H1222 0.930 . S
C1181 N1177 1.279 . S
C1181 C1179 1.358 . S
C1181 H1223 0.930 . S
C1182 C1183 1.348 . S
C1182 C1184 1.356 . S
C1182 O1207 1.325 . S
C1183 C1182 1.348 . S
C1183 C1185 1.353 . S
C1183 H1224 0.929 . S
C1184 C1182 1.356 . S
C1184 C1186 1.358 . S
C1184 H1225 0.930 . S
C1185 C1183 1.353 . S
C1185 N1187 1.314 . S
C1185 H1226 0.930 . S
C1186 C1184 1.358 . S
C1186 N1187 1.279 . S
C1186 H1227 0.930 . S
N1187 C1185 1.314 . S
N1187 C1186 1.279 . S
C1188 C1190 1.353 . S
C1188 N1191 1.314 . S
C1188 H1194 0.930 . S
C1189 N1191 1.279 . S
C1189 C1192 1.358 . S
C1189 H1195 0.930 . S
C1190 C1188 1.353 . S
C1190 C1193 1.348 . S
C1190 H1228 0.929 . S
N1191 Li1146 1.990 . S
N1191 C1188 1.314 . S
N1191 C1189 1.279 . S
C1192 C1189 1.358 . S
C1192 C1193 1.356 . S
C1192 H1229 0.930 . S
C1193 C1190 1.348 . S
C1193 C1192 1.356 . S
H1194 C1188 0.930 . S
H1195 C1189 0.930 . S
C1196 N1197 1.314 . S
C1196 C1198 1.353 . S
C1196 H1202 0.930 . S
N1197 Li1147 1.990 . S
N1197 C1196 1.314 . S
N1197 C1200 1.279 . S
C1198 C1196 1.353 . S
C1198 C1201 1.348 . S
C1198 H1230 0.929 . S
C1199 C1200 1.358 . S
C1199 C1201 1.356 . S
C1199 H1231 0.930 . S
C1200 N1197 1.279 . S
C1200 C1199 1.358 . S
C1200 H1203 0.930 . S
C1201 C1198 1.348 . S
C1201 C1199 1.356 . S
H1202 C1196 0.930 . S
H1203 C1200 0.930 . S
O1204 Li1144 1.956 . S
O1204 Li1145 1.970 . S
O1204 Li1146 1.961 . S
O1204 C1148 1.325 . S
O1205 Li1144 1.970 . S
O1205 Li1145 1.956 . S
O1205 Li1147 1.961 . S
O1205 C1154 1.325 . S
O1206 Li1144 1.961 . S
O1206 Li1146 1.956 . S
O1206 Li1147 1.970 . S
O1206 C1176 1.325 . S
O1207 Li1145 1.961 . S
O1207 Li1146 1.970 . S
O1207 Li1147 1.956 . S
O1207 C1182 1.325 . S
H1208 C1150 0.929 . S
H1209 C1151 0.930 . S
H1210 C1152 0.930 . S
H1211 C1153 0.930 . S
H1212 C1155 0.930 . S
H1213 C1157 0.929 . S
H1214 C1158 0.930 . S
H1215 C1159 0.930 . S
H1216 C1162 0.930 . S
H1217 C1165 0.929 . S
H1218 C1170 0.929 . S
H1219 C1171 0.930 . S
H1220 C1178 0.929 . S
H1221 C1179 0.930 . S
H1222 C1180 0.930 . S
H1223 C1181 0.930 . S
H1224 C1183 0.929 . S
H1225 C1184 0.930 . S
H1226 C1185 0.930 . S
H1227 C1186 0.930 . S
H1228 C1190 0.929 . S
H1229 C1192 0.930 . S
H1230 C1198 0.929 . S
H1231 C1199 0.930 . S
Li1232 N1249 1.990 . S
Li1232 O1292 1.956 . S
Li1232 O1293 1.970 . S
Li1232 O1294 1.961 . S
Li1233 N1257 1.990 . S
Li1233 O1292 1.970 . S
Li1233 O1293 1.956 . S
Li1233 O1295 1.961 . S
Li1234 N1279 1.990 . S
Li1234 O1292 1.961 . S
Li1234 O1294 1.956 . S
Li1234 O1295 1.970 . S
Li1235 N1285 1.990 . S
Li1235 O1293 1.961 . S
Li1235 O1294 1.970 . S
Li1235 O1295 1.956 . S
C1236 C1238 1.348 . S
C1236 C1239 1.356 . S
C1236 O1292 1.325 . S
N1237 C1240 1.314 . S
N1237 C1241 1.279 . S
C1238 C1236 1.348 . S
C1238 C1240 1.353 . S
C1238 H1296 0.929 . S
C1239 C1236 1.356 . S
C1239 C1241 1.358 . S
C1239 H1297 0.930 . S
C1240 N1237 1.314 . S
C1240 C1238 1.353 . S
C1240 H1298 0.930 . S
C1241 N1237 1.279 . S
C1241 C1239 1.358 . S
C1241 H1299 0.930 . S
C1242 C1245 1.348 . S
C1242 C1246 1.356 . S
C1242 O1293 1.325 . S
C1243 N1244 1.279 . S
C1243 C1246 1.358 . S
C1243 H1300 0.930 . S
N1244 C1243 1.279 . S
N1244 C1247 1.314 . S
C1245 C1242 1.348 . S
C1245 C1247 1.353 . S
C1245 H1301 0.929 . S
C1246 C1242 1.356 . S
C1246 C1243 1.358 . S
C1246 H1302 0.930 . S
C1247 N1244 1.314 . S
C1247 C1245 1.353 . S
C1247 H1303 0.930 . S
C1248 N1249 1.314 . S
C1248 C1253 1.353 . S
C1248 H1254 0.930 . S
N1249 Li1232 1.990 . S
N1249 C1248 1.314 . S
N1249 C1251 1.279 . S
C1250 C1251 1.358 . S
C1250 C1252 1.356 . S
C1250 H1304 0.930 . S
C1251 N1249 1.279 . S
C1251 C1250 1.358 . S
C1251 H1255 0.930 . S
C1252 C1250 1.356 . S
C1252 C1253 1.348 . S
C1253 C1248 1.353 . S
C1253 C1252 1.348 . S
C1253 H1305 0.929 . S
H1254 C1248 0.930 . S
H1255 C1251 0.930 . S
C1256 N1257 1.314 . S
C1256 C1258 1.353 . S
C1256 H1262 0.930 . S
N1257 Li1233 1.990 . S
N1257 C1256 1.314 . S
N1257 C1260 1.279 . S
C1258 C1256 1.353 . S
C1258 C1261 1.348 . S
C1258 H1306 0.929 . S
C1259 C1260 1.358 . S
C1259 C1261 1.356 . S
C1259 H1307 0.930 . S
C1260 N1257 1.279 . S
C1260 C1259 1.358 . S
C1260 H1263 0.930 . S
C1261 C1258 1.348 . S
C1261 C1259 1.356 . S
H1262 C1256 0.930 . S
H1263 C1260 0.930 . S
C1264 C1266 1.348 . S
C1264 C1267 1.356 . S
C1264 O1294 1.325 . S
N1265 C1268 1.314 . S
N1265 C1269 1.279 . S
C1266 C1264 1.348 . S
C1266 C1268 1.353 . S
C1266 H1308 0.929 . S
C1267 C1264 1.356 . S
C1267 C1269 1.358 . S
C1267 H1309 0.930 . S
C1268 N1265 1.314 . S
C1268 C1266 1.353 . S
C1268 H1310 0.930 . S
C1269 N1265 1.279 . S
C1269 C1267 1.358 . S
C1269 H1311 0.930 . S
C1270 C1271 1.348 . S
C1270 C1272 1.356 . S
C1270 O1295 1.325 . S
C1271 C1270 1.348 . S
C1271 C1273 1.353 . S
C1271 H1312 0.929 . S
C1272 C1270 1.356 . S
C1272 C1274 1.358 . S
C1272 H1313 0.930 . S
C1273 C1271 1.353 . S
C1273 N1275 1.314 . S
C1273 H1314 0.930 . S
C1274 C1272 1.358 . S
C1274 N1275 1.279 . S
C1274 H1315 0.930 . S
N1275 C1273 1.314 . S
N1275 C1274 1.279 . S
C1276 C1278 1.353 . S
C1276 N1279 1.314 . S
C1276 H1282 0.930 . S
C1277 N1279 1.279 . S
C1277 C1280 1.358 . S
C1277 H1283 0.930 . S
C1278 C1276 1.353 . S
C1278 C1281 1.348 . S
C1278 H1316 0.929 . S
N1279 Li1234 1.990 . S
N1279 C1276 1.314 . S
N1279 C1277 1.279 . S
C1280 C1277 1.358 . S
C1280 C1281 1.356 . S
C1280 H1317 0.930 . S
C1281 C1278 1.348 . S
C1281 C1280 1.356 . S
H1282 C1276 0.930 . S
H1283 C1277 0.930 . S
C1284 N1285 1.314 . S
C1284 C1286 1.353 . S
C1284 H1290 0.930 . S
N1285 Li1235 1.990 . S
N1285 C1284 1.314 . S
N1285 C1288 1.279 . S
C1286 C1284 1.353 . S
C1286 C1289 1.348 . S
C1286 H1318 0.929 . S
C1287 C1288 1.358 . S
C1287 C1289 1.356 . S
C1287 H1319 0.930 . S
C1288 N1285 1.279 . S
C1288 C1287 1.358 . S
C1288 H1291 0.930 . S
C1289 C1286 1.348 . S
C1289 C1287 1.356 . S
H1290 C1284 0.930 . S
H1291 C1288 0.930 . S
O1292 Li1232 1.956 . S
O1292 Li1233 1.970 . S
O1292 Li1234 1.961 . S
O1292 C1236 1.325 . S
O1293 Li1232 1.970 . S
O1293 Li1233 1.956 . S
O1293 Li1235 1.961 . S
O1293 C1242 1.325 . S
O1294 Li1232 1.961 . S
O1294 Li1234 1.956 . S
O1294 Li1235 1.970 . S
O1294 C1264 1.325 . S
O1295 Li1233 1.961 . S
O1295 Li1234 1.970 . S
O1295 Li1235 1.956 . S
O1295 C1270 1.325 . S
H1296 C1238 0.929 . S
H1297 C1239 0.930 . S
H1298 C1240 0.930 . S
H1299 C1241 0.930 . S
H1300 C1243 0.930 . S
H1301 C1245 0.929 . S
H1302 C1246 0.930 . S
H1303 C1247 0.930 . S
H1304 C1250 0.930 . S
H1305 C1253 0.929 . S
H1306 C1258 0.929 . S
H1307 C1259 0.930 . S
H1308 C1266 0.929 . S
H1309 C1267 0.930 . S
H1310 C1268 0.930 . S
H1311 C1269 0.930 . S
H1312 C1271 0.929 . S
H1313 C1272 0.930 . S
H1314 C1273 0.930 . S
H1315 C1274 0.930 . S
H1316 C1278 0.929 . S
H1317 C1280 0.930 . S
H1318 C1286 0.929 . S
H1319 C1287 0.930 . S
Li1320 N1337 1.990 . S
Li1320 O1380 1.956 . S
Li1320 O1381 1.970 . S
Li1320 O1382 1.961 . S
Li1321 N1345 1.990 . S
Li1321 O1380 1.970 . S
Li1321 O1381 1.956 . S
Li1321 O1383 1.961 . S
Li1322 N1367 1.990 . S
Li1322 O1380 1.961 . S
Li1322 O1382 1.956 . S
Li1322 O1383 1.970 . S
Li1323 N1373 1.990 . S
Li1323 O1381 1.961 . S
Li1323 O1382 1.970 . S
Li1323 O1383 1.956 . S
C1324 C1326 1.348 . S
C1324 C1327 1.356 . S
C1324 O1380 1.325 . S
N1325 C1328 1.314 . S
N1325 C1329 1.279 . S
C1326 C1324 1.348 . S
C1326 C1328 1.353 . S
C1326 H1384 0.929 . S
C1327 C1324 1.356 . S
C1327 C1329 1.358 . S
C1327 H1385 0.930 . S
C1328 N1325 1.314 . S
C1328 C1326 1.353 . S
C1328 H1386 0.930 . S
C1329 N1325 1.279 . S
C1329 C1327 1.358 . S
C1329 H1387 0.930 . S
C1330 C1333 1.348 . S
C1330 C1334 1.356 . S
C1330 O1381 1.325 . S
C1331 N1332 1.279 . S
C1331 C1334 1.358 . S
C1331 H1388 0.930 . S
N1332 C1331 1.279 . S
N1332 C1335 1.314 . S
C1333 C1330 1.348 . S
C1333 C1335 1.353 . S
C1333 H1389 0.929 . S
C1334 C1330 1.356 . S
C1334 C1331 1.358 . S
C1334 H1390 0.930 . S
C1335 N1332 1.314 . S
C1335 C1333 1.353 . S
C1335 H1391 0.930 . S
C1336 N1337 1.314 . S
C1336 C1341 1.353 . S
C1336 H1342 0.930 . S
N1337 Li1320 1.990 . S
N1337 C1336 1.314 . S
N1337 C1339 1.279 . S
C1338 C1339 1.358 . S
C1338 C1340 1.356 . S
C1338 H1392 0.930 . S
C1339 N1337 1.279 . S
C1339 C1338 1.358 . S
C1339 H1343 0.930 . S
C1340 C1338 1.356 . S
C1340 C1341 1.348 . S
C1341 C1336 1.353 . S
C1341 C1340 1.348 . S
C1341 H1393 0.929 . S
H1342 C1336 0.930 . S
H1343 C1339 0.930 . S
C1344 N1345 1.314 . S
C1344 C1346 1.353 . S
C1344 H1350 0.930 . S
N1345 Li1321 1.990 . S
N1345 C1344 1.314 . S
N1345 C1348 1.279 . S
C1346 C1344 1.353 . S
C1346 C1349 1.348 . S
C1346 H1394 0.929 . S
C1347 C1348 1.358 . S
C1347 C1349 1.356 . S
C1347 H1395 0.930 . S
C1348 N1345 1.279 . S
C1348 C1347 1.358 . S
C1348 H1351 0.930 . S
C1349 C1346 1.348 . S
C1349 C1347 1.356 . S
H1350 C1344 0.930 . S
H1351 C1348 0.930 . S
C1352 C1354 1.348 . S
C1352 C1355 1.356 . S
C1352 O1382 1.325 . S
N1353 C1356 1.314 . S
N1353 C1357 1.279 . S
C1354 C1352 1.348 . S
C1354 C1356 1.353 . S
C1354 H1396 0.929 . S
C1355 C1352 1.356 . S
C1355 C1357 1.358 . S
C1355 H1397 0.930 . S
C1356 N1353 1.314 . S
C1356 C1354 1.353 . S
C1356 H1398 0.930 . S
C1357 N1353 1.279 . S
C1357 C1355 1.358 . S
C1357 H1399 0.930 . S
C1358 C1359 1.348 . S
C1358 C1360 1.356 . S
C1358 O1383 1.325 . S
C1359 C1358 1.348 . S
C1359 C1361 1.353 . S
C1359 H1400 0.929 . S
C1360 C1358 1.356 . S
C1360 C1362 1.358 . S
C1360 H1401 0.930 . S
C1361 C1359 1.353 . S
C1361 N1363 1.314 . S
C1361 H1402 0.930 . S
C1362 C1360 1.358 . S
C1362 N1363 1.279 . S
C1362 H1403 0.930 . S
N1363 C1361 1.314 . S
N1363 C1362 1.279 . S
C1364 C1366 1.353 . S
C1364 N1367 1.314 . S
C1364 H1370 0.930 . S
C1365 N1367 1.279 . S
C1365 C1368 1.358 . S
C1365 H1371 0.930 . S
C1366 C1364 1.353 . S
C1366 C1369 1.348 . S
C1366 H1404 0.929 . S
N1367 Li1322 1.990 . S
N1367 C1364 1.314 . S
N1367 C1365 1.279 . S
C1368 C1365 1.358 . S
C1368 C1369 1.356 . S
C1368 H1405 0.930 . S
C1369 C1366 1.348 . S
C1369 C1368 1.356 . S
H1370 C1364 0.930 . S
H1371 C1365 0.930 . S
C1372 N1373 1.314 . S
C1372 C1374 1.353 . S
C1372 H1378 0.930 . S
N1373 Li1323 1.990 . S
N1373 C1372 1.314 . S
N1373 C1376 1.279 . S
C1374 C1372 1.353 . S
C1374 C1377 1.348 . S
C1374 H1406 0.929 . S
C1375 C1376 1.358 . S
C1375 C1377 1.356 . S
C1375 H1407 0.930 . S
C1376 N1373 1.279 . S
C1376 C1375 1.358 . S
C1376 H1379 0.930 . S
C1377 C1374 1.348 . S
C1377 C1375 1.356 . S
H1378 C1372 0.930 . S
H1379 C1376 0.930 . S
O1380 Li1320 1.956 . S
O1380 Li1321 1.970 . S
O1380 Li1322 1.961 . S
O1380 C1324 1.325 . S
O1381 Li1320 1.970 . S
O1381 Li1321 1.956 . S
O1381 Li1323 1.961 . S
O1381 C1330 1.325 . S
O1382 Li1320 1.961 . S
O1382 Li1322 1.956 . S
O1382 Li1323 1.970 . S
O1382 C1352 1.325 . S
O1383 Li1321 1.961 . S
O1383 Li1322 1.970 . S
O1383 Li1323 1.956 . S
O1383 C1358 1.325 . S
H1384 C1326 0.929 . S
H1385 C1327 0.930 . S
H1386 C1328 0.930 . S
H1387 C1329 0.930 . S
H1388 C1331 0.930 . S
H1389 C1333 0.929 . S
H1390 C1334 0.930 . S
H1391 C1335 0.930 . S
H1392 C1338 0.930 . S
H1393 C1341 0.929 . S
H1394 C1346 0.929 . S
H1395 C1347 0.930 . S
H1396 C1354 0.929 . S
H1397 C1355 0.930 . S
H1398 C1356 0.930 . S
H1399 C1357 0.930 . S
H1400 C1359 0.929 . S
H1401 C1360 0.930 . S
H1402 C1361 0.930 . S
H1403 C1362 0.930 . S
H1404 C1366 0.929 . S
H1405 C1368 0.930 . S
H1406 C1374 0.929 . S
H1407 C1375 0.930 . S
C1408 C1409 1.349 . S
C1408 C1410 1.327 . S
C1408 H1433 0.950 . S
C1409 C1408 1.349 . S
C1409 C1425 1.349 . S
C1410 C1408 1.327 . S
C1410 C1429 1.429 . S
C1410 H1434 0.950 . S
C1411 C1428 1.574 1_455 S
C1411 C1430 1.368 . S
C1411 H1435 0.949 . S
H1412 C1416 0.949 . S
C1413 C1414 1.349 . S
C1413 C1415 1.327 . S
C1413 H1436 0.950 . S
C1414 C1413 1.349 . S
C1414 C1426 1.349 . S
C1415 C1413 1.327 . S
C1415 C1431 1.429 . S
C1415 H1437 0.950 . S
C1416 H1412 0.949 . S
C1416 C1424 1.574 1_655 S
C1416 C1432 1.368 . S
H1417 C1425 0.950 . S
H1418 C1423 0.950 . S
H1419 C1424 0.949 . S
H1420 C1426 0.950 . S
H1421 C1427 0.950 . S
H1422 C1428 0.949 . S
C1423 H1418 0.950 . S
C1423 C1425 1.327 . S
C1423 C1429 1.429 . S
C1424 C1416 1.574 1_455 S
C1424 H1419 0.949 . S
C1424 C1430 1.368 . S
C1425 C1409 1.349 . S
C1425 H1417 0.950 . S
C1425 C1423 1.327 . S
C1426 C1414 1.349 . S
C1426 H1420 0.950 . S
C1426 C1427 1.327 . S
C1427 H1421 0.950 . S
C1427 C1426 1.327 . S
C1427 C1431 1.429 . S
C1428 C1411 1.574 1_655 S
C1428 H1422 0.949 . S
C1428 C1432 1.368 . S
C1429 C1410 1.429 . S
C1429 C1423 1.429 . S
C1429 C1430 1.523 . S
C1430 C1411 1.368 . S
C1430 C1424 1.368 . S
C1430 C1429 1.523 . S
C1431 C1415 1.429 . S
C1431 C1427 1.429 . S
C1431 C1432 1.523 . S
C1432 C1416 1.368 . S
C1432 C1428 1.368 . S
C1432 C1431 1.523 . S
H1433 C1408 0.950 . S
H1434 C1410 0.950 . S
H1435 C1411 0.949 . S
H1436 C1413 0.950 . S
H1437 C1415 0.950 . S
C1438 C1439 1.349 . S
C1438 C1440 1.327 . S
C1438 H1463 0.950 . S
C1439 C1438 1.349 . S
C1439 C1455 1.349 . S
C1440 C1438 1.327 . S
C1440 C1459 1.429 . S
C1440 H1464 0.950 . S
C1441 C1458 1.574 1_655 S
C1441 C1460 1.368 . S
C1441 H1465 0.949 . S
H1442 C1446 0.949 . S
C1443 C1444 1.349 . S
C1443 C1445 1.327 . S
C1443 H1466 0.950 . S
C1444 C1443 1.349 . S
C1444 C1456 1.349 . S
C1445 C1443 1.327 . S
C1445 C1461 1.429 . S
C1445 H1467 0.950 . S
C1446 H1442 0.949 . S
C1446 C1454 1.574 1_455 S
C1446 C1462 1.368 . S
H1447 C1455 0.950 . S
H1448 C1453 0.950 . S
H1449 C1454 0.949 . S
H1450 C1456 0.950 . S
H1451 C1457 0.950 . S
H1452 C1458 0.949 . S
C1453 H1448 0.950 . S
C1453 C1455 1.327 . S
C1453 C1459 1.429 . S
C1454 C1446 1.574 1_655 S
C1454 H1449 0.949 . S
C1454 C1460 1.368 . S
C1455 C1439 1.349 . S
C1455 H1447 0.950 . S
C1455 C1453 1.327 . S
C1456 C1444 1.349 . S
C1456 H1450 0.950 . S
C1456 C1457 1.327 . S
C1457 H1451 0.950 . S
C1457 C1456 1.327 . S
C1457 C1461 1.429 . S
C1458 C1441 1.574 1_455 S
C1458 H1452 0.949 . S
C1458 C1462 1.368 . S
C1459 C1440 1.429 . S
C1459 C1453 1.429 . S
C1459 C1460 1.523 . S
C1460 C1441 1.368 . S
C1460 C1454 1.368 . S
C1460 C1459 1.523 . S
C1461 C1445 1.429 . S
C1461 C1457 1.429 . S
C1461 C1462 1.523 . S
C1462 C1446 1.368 . S
C1462 C1458 1.368 . S
C1462 C1461 1.523 . S
H1463 C1438 0.950 . S
H1464 C1440 0.950 . S
H1465 C1441 0.949 . S
H1466 C1443 0.950 . S
H1467 C1445 0.950 . S
C1468 C1469 1.349 . S
C1468 C1470 1.327 . S
C1468 H1493 0.950 . S
C1469 C1468 1.349 . S
C1469 C1485 1.349 . S
C1470 C1468 1.327 . S
C1470 C1489 1.429 . S
C1470 H1494 0.950 . S
C1471 C1488 1.574 1_655 S
C1471 C1490 1.368 . S
C1471 H1495 0.949 . S
H1472 C1476 0.949 . S
C1473 C1474 1.349 . S
C1473 C1475 1.327 . S
C1473 H1496 0.950 . S
C1474 C1473 1.349 . S
C1474 C1486 1.349 . S
C1475 C1473 1.327 . S
C1475 C1491 1.429 . S
C1475 H1497 0.950 . S
C1476 H1472 0.949 . S
C1476 C1484 1.574 1_455 S
C1476 C1492 1.368 . S
H1477 C1485 0.950 . S
H1478 C1483 0.950 . S
H1479 C1484 0.949 . S
H1480 C1486 0.950 . S
H1481 C1487 0.950 . S
H1482 C1488 0.949 . S
C1483 H1478 0.950 . S
C1483 C1485 1.327 . S
C1483 C1489 1.429 . S
C1484 C1476 1.574 1_655 S
C1484 H1479 0.949 . S
C1484 C1490 1.368 . S
C1485 C1469 1.349 . S
C1485 H1477 0.950 . S
C1485 C1483 1.327 . S
C1486 C1474 1.349 . S
C1486 H1480 0.950 . S
C1486 C1487 1.327 . S
C1487 H1481 0.950 . S
C1487 C1486 1.327 . S
C1487 C1491 1.429 . S
C1488 C1471 1.574 1_455 S
C1488 H1482 0.949 . S
C1488 C1492 1.368 . S
C1489 C1470 1.429 . S
C1489 C1483 1.429 . S
C1489 C1490 1.523 . S
C1490 C1471 1.368 . S
C1490 C1484 1.368 . S
C1490 C1489 1.523 . S
C1491 C1475 1.429 . S
C1491 C1487 1.429 . S
C1491 C1492 1.523 . S
C1492 C1476 1.368 . S
C1492 C1488 1.368 . S
C1492 C1491 1.523 . S
H1493 C1468 0.950 . S
H1494 C1470 0.950 . S
H1495 C1471 0.949 . S
H1496 C1473 0.950 . S
H1497 C1475 0.950 . S
C1498 C1499 1.349 . S
C1498 C1500 1.327 . S
C1498 H1523 0.950 . S
C1499 C1498 1.349 . S
C1499 C1515 1.349 . S
C1500 C1498 1.327 . S
C1500 C1519 1.429 . S
C1500 H1524 0.950 . S
C1501 C1518 1.574 1_455 S
C1501 C1520 1.368 . S
C1501 H1525 0.949 . S
H1502 C1506 0.949 . S
C1503 C1504 1.349 . S
C1503 C1505 1.327 . S
C1503 H1526 0.950 . S
C1504 C1503 1.349 . S
C1504 C1516 1.349 . S
C1505 C1503 1.327 . S
C1505 C1521 1.429 . S
C1505 H1527 0.950 . S
C1506 H1502 0.949 . S
C1506 C1514 1.574 1_655 S
C1506 C1522 1.368 . S
H1507 C1515 0.950 . S
H1508 C1513 0.950 . S
H1509 C1514 0.949 . S
H1510 C1516 0.950 . S
H1511 C1517 0.950 . S
H1512 C1518 0.949 . S
C1513 H1508 0.950 . S
C1513 C1515 1.327 . S
C1513 C1519 1.429 . S
C1514 C1506 1.574 1_455 S
C1514 H1509 0.949 . S
C1514 C1520 1.368 . S
C1515 C1499 1.349 . S
C1515 H1507 0.950 . S
C1515 C1513 1.327 . S
C1516 C1504 1.349 . S
C1516 H1510 0.950 . S
C1516 C1517 1.327 . S
C1517 H1511 0.950 . S
C1517 C1516 1.327 . S
C1517 C1521 1.429 . S
C1518 C1501 1.574 1_655 S
C1518 H1512 0.949 . S
C1518 C1522 1.368 . S
C1519 C1500 1.429 . S
C1519 C1513 1.429 . S
C1519 C1520 1.523 . S
C1520 C1501 1.368 . S
C1520 C1514 1.368 . S
C1520 C1519 1.523 . S
C1521 C1505 1.429 . S
C1521 C1517 1.429 . S
C1521 C1522 1.523 . S
C1522 C1506 1.368 . S
C1522 C1518 1.368 . S
C1522 C1521 1.523 . S
H1523 C1498 0.950 . S
H1524 C1500 0.950 . S
H1525 C1501 0.949 . S
H1526 C1503 0.950 . S
H1527 C1505 0.950 . S
C1528 C1529 1.349 . S
C1528 C1530 1.327 . S
C1528 H1553 0.950 . S
C1529 C1528 1.349 . S
C1529 C1545 1.349 . S
C1530 C1528 1.327 . S
C1530 C1549 1.429 . S
C1530 H1554 0.950 . S
C1531 C1548 1.574 . S
C1531 C1550 1.368 . S
C1531 H1555 0.949 . S
H1532 C1536 0.949 . S
C1533 C1534 1.349 . S
C1533 C1535 1.327 . S
C1533 H1556 0.950 . S
C1534 C1533 1.349 . S
C1534 C1546 1.349 . S
C1535 C1533 1.327 . S
C1535 C1551 1.429 . S
C1535 H1557 0.950 . S
C1536 H1532 0.949 . S
C1536 C1544 1.574 . S
C1536 C1552 1.368 . S
H1537 C1545 0.950 . S
H1538 C1543 0.950 . S
H1539 C1544 0.949 . S
H1540 C1546 0.950 . S
H1541 C1547 0.950 . S
H1542 C1548 0.949 . S
C1543 H1538 0.950 . S
C1543 C1545 1.327 . S
C1543 C1549 1.429 . S
C1544 C1536 1.574 . S
C1544 H1539 0.949 . S
C1544 C1550 1.368 . S
C1545 C1529 1.349 . S
C1545 H1537 0.950 . S
C1545 C1543 1.327 . S
C1546 C1534 1.349 . S
C1546 H1540 0.950 . S
C1546 C1547 1.327 . S
C1547 H1541 0.950 . S
C1547 C1546 1.327 . S
C1547 C1551 1.429 . S
C1548 C1531 1.574 . S
C1548 H1542 0.949 . S
C1548 C1552 1.368 . S
C1549 C1530 1.429 . S
C1549 C1543 1.429 . S
C1549 C1550 1.523 . S
C1550 C1531 1.368 . S
C1550 C1544 1.368 . S
C1550 C1549 1.523 . S
C1551 C1535 1.429 . S
C1551 C1547 1.429 . S
C1551 C1552 1.523 . S
C1552 C1536 1.368 . S
C1552 C1548 1.368 . S
C1552 C1551 1.523 . S
H1553 C1528 0.950 . S
H1554 C1530 0.950 . S
H1555 C1531 0.949 . S
H1556 C1533 0.950 . S
H1557 C1535 0.950 . S
C1558 C1559 1.349 . S
C1558 C1560 1.327 . S
C1558 H1583 0.950 . S
C1559 C1558 1.349 . S
C1559 C1575 1.349 . S
C1560 C1558 1.327 . S
C1560 C1579 1.429 . S
C1560 H1584 0.950 . S
C1561 C1578 1.574 . S
C1561 C1580 1.368 . S
C1561 H1585 0.949 . S
H1562 C1566 0.949 . S
C1563 C1564 1.349 . S
C1563 C1565 1.327 . S
C1563 H1586 0.950 . S
C1564 C1563 1.349 . S
C1564 C1576 1.349 . S
C1565 C1563 1.327 . S
C1565 C1581 1.429 . S
C1565 H1587 0.950 . S
C1566 H1562 0.949 . S
C1566 C1574 1.574 . S
C1566 C1582 1.368 . S
H1567 C1575 0.950 . S
H1568 C1573 0.950 . S
H1569 C1574 0.949 . S
H1570 C1576 0.950 . S
H1571 C1577 0.950 . S
H1572 C1578 0.949 . S
C1573 H1568 0.950 . S
C1573 C1575 1.327 . S
C1573 C1579 1.429 . S
C1574 C1566 1.574 . S
C1574 H1569 0.949 . S
C1574 C1580 1.368 . S
C1575 C1559 1.349 . S
C1575 H1567 0.950 . S
C1575 C1573 1.327 . S
C1576 C1564 1.349 . S
C1576 H1570 0.950 . S
C1576 C1577 1.327 . S
C1577 H1571 0.950 . S
C1577 C1576 1.327 . S
C1577 C1581 1.429 . S
C1578 C1561 1.574 . S
C1578 H1572 0.949 . S
C1578 C1582 1.368 . S
C1579 C1560 1.429 . S
C1579 C1573 1.429 . S
C1579 C1580 1.523 . S
C1580 C1561 1.368 . S
C1580 C1574 1.368 . S
C1580 C1579 1.523 . S
C1581 C1565 1.429 . S
C1581 C1577 1.429 . S
C1581 C1582 1.523 . S
C1582 C1566 1.368 . S
C1582 C1578 1.368 . S
C1582 C1581 1.523 . S
H1583 C1558 0.950 . S
H1584 C1560 0.950 . S
H1585 C1561 0.949 . S
H1586 C1563 0.950 . S
H1587 C1565 0.950 . S
C1588 C1589 1.349 . S
C1588 C1590 1.327 . S
C1588 H1613 0.950 . S
C1589 C1588 1.349 . S
C1589 C1605 1.349 . S
C1590 C1588 1.327 . S
C1590 C1609 1.429 . S
C1590 H1614 0.950 . S
C1591 C1608 1.574 . S
C1591 C1610 1.368 . S
C1591 H1615 0.949 . S
H1592 C1596 0.949 . S
C1593 C1594 1.349 . S
C1593 C1595 1.327 . S
C1593 H1616 0.950 . S
C1594 C1593 1.349 . S
C1594 C1606 1.349 . S
C1595 C1593 1.327 . S
C1595 C1611 1.429 . S
C1595 H1617 0.950 . S
C1596 H1592 0.949 . S
C1596 C1604 1.574 . S
C1596 C1612 1.368 . S
H1597 C1605 0.950 . S
H1598 C1603 0.950 . S
H1599 C1604 0.949 . S
H1600 C1606 0.950 . S
H1601 C1607 0.950 . S
H1602 C1608 0.949 . S
C1603 H1598 0.950 . S
C1603 C1605 1.327 . S
C1603 C1609 1.429 . S
C1604 C1596 1.574 . S
C1604 H1599 0.949 . S
C1604 C1610 1.368 . S
C1605 C1589 1.349 . S
C1605 H1597 0.950 . S
C1605 C1603 1.327 . S
C1606 C1594 1.349 . S
C1606 H1600 0.950 . S
C1606 C1607 1.327 . S
C1607 H1601 0.950 . S
C1607 C1606 1.327 . S
C1607 C1611 1.429 . S
C1608 C1591 1.574 . S
C1608 H1602 0.949 . S
C1608 C1612 1.368 . S
C1609 C1590 1.429 . S
C1609 C1603 1.429 . S
C1609 C1610 1.523 . S
C1610 C1591 1.368 . S
C1610 C1604 1.368 . S
C1610 C1609 1.523 . S
C1611 C1595 1.429 . S
C1611 C1607 1.429 . S
C1611 C1612 1.523 . S
C1612 C1596 1.368 . S
C1612 C1608 1.368 . S
C1612 C1611 1.523 . S
H1613 C1588 0.950 . S
H1614 C1590 0.950 . S
H1615 C1591 0.949 . S
H1616 C1593 0.950 . S
H1617 C1595 0.950 . S
C1618 C1619 1.349 . S
C1618 C1620 1.327 . S
C1618 H1643 0.950 . S
C1619 C1618 1.349 . S
C1619 C1635 1.349 . S
C1620 C1618 1.327 . S
C1620 C1639 1.429 . S
C1620 H1644 0.950 . S
C1621 C1638 1.574 . S
C1621 C1640 1.368 . S
C1621 H1645 0.949 . S
H1622 C1626 0.949 . S
C1623 C1624 1.349 . S
C1623 C1625 1.327 . S
C1623 H1646 0.950 . S
C1624 C1623 1.349 . S
C1624 C1636 1.349 . S
C1625 C1623 1.327 . S
C1625 C1641 1.429 . S
C1625 H1647 0.950 . S
C1626 H1622 0.949 . S
C1626 C1634 1.574 . S
C1626 C1642 1.368 . S
H1627 C1635 0.950 . S
H1628 C1633 0.950 . S
H1629 C1634 0.949 . S
H1630 C1636 0.950 . S
H1631 C1637 0.950 . S
H1632 C1638 0.949 . S
C1633 H1628 0.950 . S
C1633 C1635 1.327 . S
C1633 C1639 1.429 . S
C1634 C1626 1.574 . S
C1634 H1629 0.949 . S
C1634 C1640 1.368 . S
C1635 C1619 1.349 . S
C1635 H1627 0.950 . S
C1635 C1633 1.327 . S
C1636 C1624 1.349 . S
C1636 H1630 0.950 . S
C1636 C1637 1.327 . S
C1637 H1631 0.950 . S
C1637 C1636 1.327 . S
C1637 C1641 1.429 . S
C1638 C1621 1.574 . S
C1638 H1632 0.949 . S
C1638 C1642 1.368 . S
C1639 C1620 1.429 . S
C1639 C1633 1.429 . S
C1639 C1640 1.523 . S
C1640 C1621 1.368 . S
C1640 C1634 1.368 . S
C1640 C1639 1.523 . S
C1641 C1625 1.429 . S
C1641 C1637 1.429 . S
C1641 C1642 1.523 . S
C1642 C1626 1.368 . S
C1642 C1638 1.368 . S
C1642 C1641 1.523 . S
H1643 C1618 0.950 . S
H1644 C1620 0.950 . S
H1645 C1621 0.949 . S
H1646 C1623 0.950 . S
H1647 C1625 0.950 . S
C1648 C1649 1.349 . S
C1648 C1650 1.327 . S
C1648 H1673 0.950 . S
C1649 C1648 1.349 . S
C1649 C1665 1.349 . S
C1650 C1648 1.327 . S
C1650 C1669 1.429 . S
C1650 H1674 0.950 . S
C1651 C1668 1.574 . S
C1651 C1670 1.368 . S
C1651 H1675 0.949 . S
H1652 C1656 0.949 . S
C1653 C1654 1.349 . S
C1653 C1655 1.327 . S
C1653 H1676 0.950 . S
C1654 C1653 1.349 . S
C1654 C1666 1.349 . S
C1655 C1653 1.327 . S
C1655 C1671 1.429 . S
C1655 H1677 0.950 . S
C1656 H1652 0.949 . S
C1656 C1664 1.574 . S
C1656 C1672 1.368 . S
H1657 C1665 0.950 . S
H1658 C1663 0.950 . S
H1659 C1664 0.949 . S
H1660 C1666 0.950 . S
H1661 C1667 0.950 . S
H1662 C1668 0.949 . S
C1663 H1658 0.950 . S
C1663 C1665 1.327 . S
C1663 C1669 1.429 . S
C1664 C1656 1.574 . S
C1664 H1659 0.949 . S
C1664 C1670 1.368 . S
C1665 C1649 1.349 . S
C1665 H1657 0.950 . S
C1665 C1663 1.327 . S
C1666 C1654 1.349 . S
C1666 H1660 0.950 . S
C1666 C1667 1.327 . S
C1667 H1661 0.950 . S
C1667 C1666 1.327 . S
C1667 C1671 1.429 . S
C1668 C1651 1.574 . S
C1668 H1662 0.949 . S
C1668 C1672 1.368 . S
C1669 C1650 1.429 . S
C1669 C1663 1.429 . S
C1669 C1670 1.523 . S
C1670 C1651 1.368 . S
C1670 C1664 1.368 . S
C1670 C1669 1.523 . S
C1671 C1655 1.429 . S
C1671 C1667 1.429 . S
C1671 C1672 1.523 . S
C1672 C1656 1.368 . S
C1672 C1668 1.368 . S
C1672 C1671 1.523 . S
H1673 C1648 0.950 . S
H1674 C1650 0.950 . S
H1675 C1651 0.949 . S
H1676 C1653 0.950 . S
H1677 C1655 0.950 . S
C1678 C1679 1.349 . S
C1678 C1680 1.327 . S
C1678 H1703 0.950 . S
C1679 C1678 1.349 . S
C1679 C1695 1.349 . S
C1680 C1678 1.327 . S
C1680 C1699 1.429 . S
C1680 H1704 0.950 . S
C1681 C1698 1.574 . S
C1681 C1700 1.368 . S
C1681 H1705 0.949 . S
H1682 C1686 0.949 . S
C1683 C1684 1.349 . S
C1683 C1685 1.327 . S
C1683 H1706 0.950 . S
C1684 C1683 1.349 . S
C1684 C1696 1.349 . S
C1685 C1683 1.327 . S
C1685 C1701 1.429 . S
C1685 H1707 0.950 . S
C1686 H1682 0.949 . S
C1686 C1694 1.574 . S
C1686 C1702 1.368 . S
H1687 C1695 0.950 . S
H1688 C1693 0.950 . S
H1689 C1694 0.949 . S
H1690 C1696 0.950 . S
H1691 C1697 0.950 . S
H1692 C1698 0.949 . S
C1693 H1688 0.950 . S
C1693 C1695 1.327 . S
C1693 C1699 1.429 . S
C1694 C1686 1.574 . S
C1694 H1689 0.949 . S
C1694 C1700 1.368 . S
C1695 C1679 1.349 . S
C1695 H1687 0.950 . S
C1695 C1693 1.327 . S
C1696 C1684 1.349 . S
C1696 H1690 0.950 . S
C1696 C1697 1.327 . S
C1697 H1691 0.950 . S
C1697 C1696 1.327 . S
C1697 C1701 1.429 . S
C1698 C1681 1.574 . S
C1698 H1692 0.949 . S
C1698 C1702 1.368 . S
C1699 C1680 1.429 . S
C1699 C1693 1.429 . S
C1699 C1700 1.523 . S
C1700 C1681 1.368 . S
C1700 C1694 1.368 . S
C1700 C1699 1.523 . S
C1701 C1685 1.429 . S
C1701 C1697 1.429 . S
C1701 C1702 1.523 . S
C1702 C1686 1.368 . S
C1702 C1698 1.368 . S
C1702 C1701 1.523 . S
H1703 C1678 0.950 . S
H1704 C1680 0.950 . S
H1705 C1681 0.949 . S
H1706 C1683 0.950 . S
H1707 C1685 0.950 . S
C1708 C1709 1.349 . S
C1708 C1710 1.327 . S
C1708 H1733 0.950 . S
C1709 C1708 1.349 . S
C1709 C1725 1.349 . S
C1710 C1708 1.327 . S
C1710 C1729 1.429 . S
C1710 H1734 0.950 . S
C1711 C1728 1.574 . S
C1711 C1730 1.368 . S
C1711 H1735 0.949 . S
H1712 C1716 0.949 . S
C1713 C1714 1.349 . S
C1713 C1715 1.327 . S
C1713 H1736 0.950 . S
C1714 C1713 1.349 . S
C1714 C1726 1.349 . S
C1715 C1713 1.327 . S
C1715 C1731 1.429 . S
C1715 H1737 0.950 . S
C1716 H1712 0.949 . S
C1716 C1724 1.574 . S
C1716 C1732 1.368 . S
H1717 C1725 0.950 . S
H1718 C1723 0.950 . S
H1719 C1724 0.949 . S
H1720 C1726 0.950 . S
H1721 C1727 0.950 . S
H1722 C1728 0.949 . S
C1723 H1718 0.950 . S
C1723 C1725 1.327 . S
C1723 C1729 1.429 . S
C1724 C1716 1.574 . S
C1724 H1719 0.949 . S
C1724 C1730 1.368 . S
C1725 C1709 1.349 . S
C1725 H1717 0.950 . S
C1725 C1723 1.327 . S
C1726 C1714 1.349 . S
C1726 H1720 0.950 . S
C1726 C1727 1.327 . S
C1727 H1721 0.950 . S
C1727 C1726 1.327 . S
C1727 C1731 1.429 . S
C1728 C1711 1.574 . S
C1728 H1722 0.949 . S
C1728 C1732 1.368 . S
C1729 C1710 1.429 . S
C1729 C1723 1.429 . S
C1729 C1730 1.523 . S
C1730 C1711 1.368 . S
C1730 C1724 1.368 . S
C1730 C1729 1.523 . S
C1731 C1715 1.429 . S
C1731 C1727 1.429 . S
C1731 C1732 1.523 . S
C1732 C1716 1.368 . S
C1732 C1728 1.368 . S
C1732 C1731 1.523 . S
H1733 C1708 0.950 . S
H1734 C1710 0.950 . S
H1735 C1711 0.949 . S
H1736 C1713 0.950 . S
H1737 C1715 0.950 . S
C1738 C1739 1.349 . S
C1738 C1740 1.327 . S
C1738 H1763 0.950 . S
C1739 C1738 1.349 . S
C1739 C1755 1.349 . S
C1740 C1738 1.327 . S
C1740 C1759 1.429 . S
C1740 H1764 0.950 . S
C1741 C1758 1.574 . S
C1741 C1760 1.368 . S
C1741 H1765 0.949 . S
H1742 C1746 0.949 . S
C1743 C1744 1.349 . S
C1743 C1745 1.327 . S
C1743 H1766 0.950 . S
C1744 C1743 1.349 . S
C1744 C1756 1.349 . S
C1745 C1743 1.327 . S
C1745 C1761 1.429 . S
C1745 H1767 0.950 . S
C1746 H1742 0.949 . S
C1746 C1754 1.574 . S
C1746 C1762 1.368 . S
H1747 C1755 0.950 . S
H1748 C1753 0.950 . S
H1749 C1754 0.949 . S
H1750 C1756 0.950 . S
H1751 C1757 0.950 . S
H1752 C1758 0.949 . S
C1753 H1748 0.950 . S
C1753 C1755 1.327 . S
C1753 C1759 1.429 . S
C1754 C1746 1.574 . S
C1754 H1749 0.949 . S
C1754 C1760 1.368 . S
C1755 C1739 1.349 . S
C1755 H1747 0.950 . S
C1755 C1753 1.327 . S
C1756 C1744 1.349 . S
C1756 H1750 0.950 . S
C1756 C1757 1.327 . S
C1757 H1751 0.950 . S
C1757 C1756 1.327 . S
C1757 C1761 1.429 . S
C1758 C1741 1.574 . S
C1758 H1752 0.949 . S
C1758 C1762 1.368 . S
C1759 C1740 1.429 . S
C1759 C1753 1.429 . S
C1759 C1760 1.523 . S
C1760 C1741 1.368 . S
C1760 C1754 1.368 . S
C1760 C1759 1.523 . S
C1761 C1745 1.429 . S
C1761 C1757 1.429 . S
C1761 C1762 1.523 . S
C1762 C1746 1.368 . S
C1762 C1758 1.368 . S
C1762 C1761 1.523 . S
H1763 C1738 0.950 . S
H1764 C1740 0.950 . S
H1765 C1741 0.949 . S
H1766 C1743 0.950 . S
H1767 C1745 0.950 . S
C1768 C1769 1.349 . S
C1768 C1770 1.327 . S
C1768 H1793 0.950 . S
C1769 C1768 1.349 . S
C1769 C1785 1.349 . S
C1770 C1768 1.327 . S
C1770 C1789 1.429 . S
C1770 H1794 0.950 . S
C1771 C1788 1.574 . S
C1771 C1790 1.368 . S
C1771 H1795 0.949 . S
H1772 C1776 0.949 . S
C1773 C1774 1.349 . S
C1773 C1775 1.327 . S
C1773 H1796 0.950 . S
C1774 C1773 1.349 . S
C1774 C1786 1.349 . S
C1775 C1773 1.327 . S
C1775 C1791 1.429 . S
C1775 H1797 0.950 . S
C1776 H1772 0.949 . S
C1776 C1784 1.574 . S
C1776 C1792 1.368 . S
H1777 C1785 0.950 . S
H1778 C1783 0.950 . S
H1779 C1784 0.949 . S
H1780 C1786 0.950 . S
H1781 C1787 0.950 . S
H1782 C1788 0.949 . S
C1783 H1778 0.950 . S
C1783 C1785 1.327 . S
C1783 C1789 1.429 . S
C1784 C1776 1.574 . S
C1784 H1779 0.949 . S
C1784 C1790 1.368 . S
C1785 C1769 1.349 . S
C1785 H1777 0.950 . S
C1785 C1783 1.327 . S
C1786 C1774 1.349 . S
C1786 H1780 0.950 . S
C1786 C1787 1.327 . S
C1787 H1781 0.950 . S
C1787 C1786 1.327 . S
C1787 C1791 1.429 . S
C1788 C1771 1.574 . S
C1788 H1782 0.949 . S
C1788 C1792 1.368 . S
C1789 C1770 1.429 . S
C1789 C1783 1.429 . S
C1789 C1790 1.523 . S
C1790 C1771 1.368 . S
C1790 C1784 1.368 . S
C1790 C1789 1.523 . S
C1791 C1775 1.429 . S
C1791 C1787 1.429 . S
C1791 C1792 1.523 . S
C1792 C1776 1.368 . S
C1792 C1788 1.368 . S
C1792 C1791 1.523 . S
H1793 C1768 0.950 . S
H1794 C1770 0.950 . S
H1795 C1771 0.949 . S
H1796 C1773 0.950 . S
H1797 C1775 0.950 . S
C1798 C1799 1.349 . S
C1798 C1800 1.327 . S
C1798 H1823 0.950 . S
C1799 C1798 1.349 . S
C1799 C1815 1.349 . S
C1800 C1798 1.327 . S
C1800 C1819 1.429 . S
C1800 H1824 0.950 . S
C1801 C1818 1.574 . S
C1801 C1820 1.368 . S
C1801 H1825 0.949 . S
H1802 C1806 0.949 . S
C1803 C1804 1.349 . S
C1803 C1805 1.327 . S
C1803 H1826 0.950 . S
C1804 C1803 1.349 . S
C1804 C1816 1.349 . S
C1805 C1803 1.327 . S
C1805 C1821 1.429 . S
C1805 H1827 0.950 . S
C1806 H1802 0.949 . S
C1806 C1814 1.574 . S
C1806 C1822 1.368 . S
H1807 C1815 0.950 . S
H1808 C1813 0.950 . S
H1809 C1814 0.949 . S
H1810 C1816 0.950 . S
H1811 C1817 0.950 . S
H1812 C1818 0.949 . S
C1813 H1808 0.950 . S
C1813 C1815 1.327 . S
C1813 C1819 1.429 . S
C1814 C1806 1.574 . S
C1814 H1809 0.949 . S
C1814 C1820 1.368 . S
C1815 C1799 1.349 . S
C1815 H1807 0.950 . S
C1815 C1813 1.327 . S
C1816 C1804 1.349 . S
C1816 H1810 0.950 . S
C1816 C1817 1.327 . S
C1817 H1811 0.950 . S
C1817 C1816 1.327 . S
C1817 C1821 1.429 . S
C1818 C1801 1.574 . S
C1818 H1812 0.949 . S
C1818 C1822 1.368 . S
C1819 C1800 1.429 . S
C1819 C1813 1.429 . S
C1819 C1820 1.523 . S
C1820 C1801 1.368 . S
C1820 C1814 1.368 . S
C1820 C1819 1.523 . S
C1821 C1805 1.429 . S
C1821 C1817 1.429 . S
C1821 C1822 1.523 . S
C1822 C1806 1.368 . S
C1822 C1818 1.368 . S
C1822 C1821 1.523 . S
H1823 C1798 0.950 . S
H1824 C1800 0.950 . S
H1825 C1801 0.949 . S
H1826 C1803 0.950 . S
H1827 C1805 0.950 . S
C1828 C1829 1.349 . S
C1828 C1830 1.327 . S
C1828 H1853 0.950 . S
C1829 C1828 1.349 . S
C1829 C1845 1.349 . S
C1830 C1828 1.327 . S
C1830 C1849 1.429 . S
C1830 H1854 0.950 . S
C1831 C1848 1.574 . S
C1831 C1850 1.368 . S
C1831 H1855 0.949 . S
H1832 C1836 0.949 . S
C1833 C1834 1.349 . S
C1833 C1835 1.327 . S
C1833 H1856 0.950 . S
C1834 C1833 1.349 . S
C1834 C1846 1.349 . S
C1835 C1833 1.327 . S
C1835 C1851 1.429 . S
C1835 H1857 0.950 . S
C1836 H1832 0.949 . S
C1836 C1844 1.574 . S
C1836 C1852 1.368 . S
H1837 C1845 0.950 . S
H1838 C1843 0.950 . S
H1839 C1844 0.949 . S
H1840 C1846 0.950 . S
H1841 C1847 0.950 . S
H1842 C1848 0.949 . S
C1843 H1838 0.950 . S
C1843 C1845 1.327 . S
C1843 C1849 1.429 . S
C1844 C1836 1.574 . S
C1844 H1839 0.949 . S
C1844 C1850 1.368 . S
C1845 C1829 1.349 . S
C1845 H1837 0.950 . S
C1845 C1843 1.327 . S
C1846 C1834 1.349 . S
C1846 H1840 0.950 . S
C1846 C1847 1.327 . S
C1847 H1841 0.950 . S
C1847 C1846 1.327 . S
C1847 C1851 1.429 . S
C1848 C1831 1.574 . S
C1848 H1842 0.949 . S
C1848 C1852 1.368 . S
C1849 C1830 1.429 . S
C1849 C1843 1.429 . S
C1849 C1850 1.523 . S
C1850 C1831 1.368 . S
C1850 C1844 1.368 . S
C1850 C1849 1.523 . S
C1851 C1835 1.429 . S
C1851 C1847 1.429 . S
C1851 C1852 1.523 . S
C1852 C1836 1.368 . S
C1852 C1848 1.368 . S
C1852 C1851 1.523 . S
H1853 C1828 0.950 . S
H1854 C1830 0.950 . S
H1855 C1831 0.949 . S
H1856 C1833 0.950 . S
H1857 C1835 0.950 . S
C1858 C1859 1.349 . S
C1858 C1860 1.327 . S
C1858 H1883 0.950 . S
C1859 C1858 1.349 . S
C1859 C1875 1.349 . S
C1860 C1858 1.327 . S
C1860 C1879 1.429 . S
C1860 H1884 0.950 . S
C1861 C1878 1.574 . S
C1861 C1880 1.368 . S
C1861 H1885 0.949 . S
H1862 C1866 0.949 . S
C1863 C1864 1.349 . S
C1863 C1865 1.327 . S
C1863 H1886 0.950 . S
C1864 C1863 1.349 . S
C1864 C1876 1.349 . S
C1865 C1863 1.327 . S
C1865 C1881 1.429 . S
C1865 H1887 0.950 . S
C1866 H1862 0.949 . S
C1866 C1874 1.574 . S
C1866 C1882 1.368 . S
H1867 C1875 0.950 . S
H1868 C1873 0.950 . S
H1869 C1874 0.949 . S
H1870 C1876 0.950 . S
H1871 C1877 0.950 . S
H1872 C1878 0.949 . S
C1873 H1868 0.950 . S
C1873 C1875 1.327 . S
C1873 C1879 1.429 . S
C1874 C1866 1.574 . S
C1874 H1869 0.949 . S
C1874 C1880 1.368 . S
C1875 C1859 1.349 . S
C1875 H1867 0.950 . S
C1875 C1873 1.327 . S
C1876 C1864 1.349 . S
C1876 H1870 0.950 . S
C1876 C1877 1.327 . S
C1877 H1871 0.950 . S
C1877 C1876 1.327 . S
C1877 C1881 1.429 . S
C1878 C1861 1.574 . S
C1878 H1872 0.949 . S
C1878 C1882 1.368 . S
C1879 C1860 1.429 . S
C1879 C1873 1.429 . S
C1879 C1880 1.523 . S
C1880 C1861 1.368 . S
C1880 C1874 1.368 . S
C1880 C1879 1.523 . S
C1881 C1865 1.429 . S
C1881 C1877 1.429 . S
C1881 C1882 1.523 . S
C1882 C1866 1.368 . S
C1882 C1878 1.368 . S
C1882 C1881 1.523 . S
H1883 C1858 0.950 . S
H1884 C1860 0.950 . S
H1885 C1861 0.949 . S
H1886 C1863 0.950 . S
H1887 C1865 0.950 . S
C1888 C1889 1.349 . S
C1888 C1890 1.327 . S
C1888 H1913 0.950 . S
C1889 C1888 1.349 . S
C1889 C1905 1.349 . S
C1890 C1888 1.327 . S
C1890 C1909 1.429 . S
C1890 H1914 0.950 . S
C1891 C1908 1.574 . S
C1891 C1910 1.368 1_554 S
C1891 H1915 0.949 . S
H1892 C1896 0.949 . S
C1893 C1894 1.349 . S
C1893 C1895 1.327 . S
C1893 H1916 0.950 . S
C1894 C1893 1.349 . S
C1894 C1906 1.349 . S
C1895 C1893 1.327 . S
C1895 C1911 1.429 . S
C1895 H1917 0.950 . S
C1896 H1892 0.949 . S
C1896 C1904 1.574 . S
C1896 C1912 1.368 1_556 S
H1897 C1905 0.950 . S
H1898 C1903 0.950 . S
H1899 C1904 0.949 . S
H1900 C1906 0.950 . S
H1901 C1907 0.950 . S
H1902 C1908 0.949 . S
C1903 H1898 0.950 . S
C1903 C1905 1.327 . S
C1903 C1909 1.429 . S
C1904 C1896 1.574 . S
C1904 H1899 0.949 . S
C1904 C1910 1.368 . S
C1905 C1889 1.349 . S
C1905 H1897 0.950 . S
C1905 C1903 1.327 . S
C1906 C1894 1.349 . S
C1906 H1900 0.950 . S
C1906 C1907 1.327 . S
C1907 H1901 0.950 . S
C1907 C1906 1.327 . S
C1907 C1911 1.429 . S
C1908 C1891 1.574 . S
C1908 H1902 0.949 . S
C1908 C1912 1.368 . S
C1909 C1890 1.429 . S
C1909 C1903 1.429 . S
C1909 C1910 1.523 . S
C1910 C1891 1.368 1_556 S
C1910 C1904 1.368 . S
C1910 C1909 1.523 . S
C1911 C1895 1.429 . S
C1911 C1907 1.429 . S
C1911 C1912 1.523 . S
C1912 C1896 1.368 1_554 S
C1912 C1908 1.368 . S
C1912 C1911 1.523 . S
H1913 C1888 0.950 . S
H1914 C1890 0.950 . S
H1915 C1891 0.949 . S
H1916 C1893 0.950 . S
H1917 C1895 0.950 . S
C1918 C1919 1.349 . S
C1918 C1920 1.327 . S
C1918 H1943 0.950 . S
C1919 C1918 1.349 . S
C1919 C1935 1.349 . S
C1920 C1918 1.327 . S
C1920 C1939 1.429 . S
C1920 H1944 0.950 . S
C1921 C1938 1.574 . S
C1921 C1940 1.368 . S
C1921 H1945 0.949 . S
H1922 C1926 0.949 . S
C1923 C1924 1.349 . S
C1923 C1925 1.327 . S
C1923 H1946 0.950 . S
C1924 C1923 1.349 . S
C1924 C1936 1.349 . S
C1925 C1923 1.327 . S
C1925 C1941 1.429 . S
C1925 H1947 0.950 . S
C1926 H1922 0.949 . S
C1926 C1934 1.574 . S
C1926 C1942 1.368 . S
H1927 C1935 0.950 . S
H1928 C1933 0.950 . S
H1929 C1934 0.949 . S
H1930 C1936 0.950 . S
H1931 C1937 0.950 . S
H1932 C1938 0.949 . S
C1933 H1928 0.950 . S
C1933 C1935 1.327 . S
C1933 C1939 1.429 . S
C1934 C1926 1.574 . S
C1934 H1929 0.949 . S
C1934 C1940 1.368 . S
C1935 C1919 1.349 . S
C1935 H1927 0.950 . S
C1935 C1933 1.327 . S
C1936 C1924 1.349 . S
C1936 H1930 0.950 . S
C1936 C1937 1.327 . S
C1937 H1931 0.950 . S
C1937 C1936 1.327 . S
C1937 C1941 1.429 . S
C1938 C1921 1.574 . S
C1938 H1932 0.949 . S
C1938 C1942 1.368 . S
C1939 C1920 1.429 . S
C1939 C1933 1.429 . S
C1939 C1940 1.523 . S
C1940 C1921 1.368 . S
C1940 C1934 1.368 . S
C1940 C1939 1.523 . S
C1941 C1925 1.429 . S
C1941 C1937 1.429 . S
C1941 C1942 1.523 . S
C1942 C1926 1.368 . S
C1942 C1938 1.368 . S
C1942 C1941 1.523 . S
H1943 C1918 0.950 . S
H1944 C1920 0.950 . S
H1945 C1921 0.949 . S
H1946 C1923 0.950 . S
H1947 C1925 0.950 . S
C1948 C1949 1.349 . S
C1948 C1950 1.327 . S
C1948 H1973 0.950 . S
C1949 C1948 1.349 . S
C1949 C1965 1.349 . S
C1950 C1948 1.327 . S
C1950 C1969 1.429 . S
C1950 H1974 0.950 . S
C1951 C1968 1.574 . S
C1951 C1970 1.368 1_556 S
C1951 H1975 0.949 . S
H1952 C1956 0.949 . S
C1953 C1954 1.349 . S
C1953 C1955 1.327 . S
C1953 H1976 0.950 . S
C1954 C1953 1.349 . S
C1954 C1966 1.349 . S
C1955 C1953 1.327 . S
C1955 C1971 1.429 . S
C1955 H1977 0.950 . S
C1956 H1952 0.949 . S
C1956 C1964 1.574 . S
C1956 C1972 1.368 1_554 S
H1957 C1965 0.950 . S
H1958 C1963 0.950 . S
H1959 C1964 0.949 . S
H1960 C1966 0.950 . S
H1961 C1967 0.950 . S
H1962 C1968 0.949 . S
C1963 H1958 0.950 . S
C1963 C1965 1.327 . S
C1963 C1969 1.429 . S
C1964 C1956 1.574 . S
C1964 H1959 0.949 . S
C1964 C1970 1.368 . S
C1965 C1949 1.349 . S
C1965 H1957 0.950 . S
C1965 C1963 1.327 . S
C1966 C1954 1.349 . S
C1966 H1960 0.950 . S
C1966 C1967 1.327 . S
C1967 H1961 0.950 . S
C1967 C1966 1.327 . S
C1967 C1971 1.429 . S
C1968 C1951 1.574 . S
C1968 H1962 0.949 . S
C1968 C1972 1.368 . S
C1969 C1950 1.429 . S
C1969 C1963 1.429 . S
C1969 C1970 1.523 . S
C1970 C1951 1.368 1_554 S
C1970 C1964 1.368 . S
C1970 C1969 1.523 . S
C1971 C1955 1.429 . S
C1971 C1967 1.429 . S
C1971 C1972 1.523 . S
C1972 C1956 1.368 1_556 S
C1972 C1968 1.368 . S
C1972 C1971 1.523 . S
H1973 C1948 0.950 . S
H1974 C1950 0.950 . S
H1975 C1951 0.949 . S
H1976 C1953 0.950 . S
H1977 C1955 0.950 . S
C1978 C1979 1.349 . S
C1978 C1980 1.327 . S
C1978 H2003 0.950 . S
C1979 C1978 1.349 . S
C1979 C1995 1.349 . S
C1980 C1978 1.327 . S
C1980 C1999 1.429 . S
C1980 H2004 0.950 . S
C1981 C1998 1.574 . S
C1981 C2000 1.368 . S
C1981 H2005 0.949 . S
H1982 C1986 0.949 . S
C1983 C1984 1.349 . S
C1983 C1985 1.327 . S
C1983 H2006 0.950 . S
C1984 C1983 1.349 . S
C1984 C1996 1.349 . S
C1985 C1983 1.327 . S
C1985 C2001 1.429 . S
C1985 H2007 0.950 . S
C1986 H1982 0.949 . S
C1986 C1994 1.574 . S
C1986 C2002 1.368 . S
H1987 C1995 0.950 . S
H1988 C1993 0.950 . S
H1989 C1994 0.949 . S
H1990 C1996 0.950 . S
H1991 C1997 0.950 . S
H1992 C1998 0.949 . S
C1993 H1988 0.950 . S
C1993 C1995 1.327 . S
C1993 C1999 1.429 . S
C1994 C1986 1.574 . S
C1994 H1989 0.949 . S
C1994 C2000 1.368 . S
C1995 C1979 1.349 . S
C1995 H1987 0.950 . S
C1995 C1993 1.327 . S
C1996 C1984 1.349 . S
C1996 H1990 0.950 . S
C1996 C1997 1.327 . S
C1997 H1991 0.950 . S
C1997 C1996 1.327 . S
C1997 C2001 1.429 . S
C1998 C1981 1.574 . S
C1998 H1992 0.949 . S
C1998 C2002 1.368 . S
C1999 C1980 1.429 . S
C1999 C1993 1.429 . S
C1999 C2000 1.523 . S
C2000 C1981 1.368 . S
C2000 C1994 1.368 . S
C2000 C1999 1.523 . S
C2001 C1985 1.429 . S
C2001 C1997 1.429 . S
C2001 C2002 1.523 . S
C2002 C1986 1.368 . S
C2002 C1998 1.368 . S
C2002 C2001 1.523 . S
H2003 C1978 0.950 . S
H2004 C1980 0.950 . S
H2005 C1981 0.949 . S
H2006 C1983 0.950 . S
H2007 C1985 0.950 . S
C2008 C2009 1.349 . S
C2008 C2010 1.327 . S
C2008 H2033 0.950 . S
C2009 C2008 1.349 . S
C2009 C2025 1.349 . S
C2010 C2008 1.327 . S
C2010 C2029 1.429 . S
C2010 H2034 0.950 . S
C2011 C2028 1.574 . S
C2011 C2030 1.368 1_556 S
C2011 H2035 0.949 . S
H2012 C2016 0.949 . S
C2013 C2014 1.349 . S
C2013 C2015 1.327 . S
C2013 H2036 0.950 . S
C2014 C2013 1.349 . S
C2014 C2026 1.349 . S
C2015 C2013 1.327 . S
C2015 C2031 1.429 . S
C2015 H2037 0.950 . S
C2016 H2012 0.949 . S
C2016 C2024 1.574 . S
C2016 C2032 1.368 1_554 S
H2017 C2025 0.950 . S
H2018 C2023 0.950 . S
H2019 C2024 0.949 . S
H2020 C2026 0.950 . S
H2021 C2027 0.950 . S
H2022 C2028 0.949 . S
C2023 H2018 0.950 . S
C2023 C2025 1.327 . S
C2023 C2029 1.429 . S
C2024 C2016 1.574 . S
C2024 H2019 0.949 . S
C2024 C2030 1.368 . S
C2025 C2009 1.349 . S
C2025 H2017 0.950 . S
C2025 C2023 1.327 . S
C2026 C2014 1.349 . S
C2026 H2020 0.950 . S
C2026 C2027 1.327 . S
C2027 H2021 0.950 . S
C2027 C2026 1.327 . S
C2027 C2031 1.429 . S
C2028 C2011 1.574 . S
C2028 H2022 0.949 . S
C2028 C2032 1.368 . S
C2029 C2010 1.429 . S
C2029 C2023 1.429 . S
C2029 C2030 1.523 . S
C2030 C2011 1.368 1_554 S
C2030 C2024 1.368 . S
C2030 C2029 1.523 . S
C2031 C2015 1.429 . S
C2031 C2027 1.429 . S
C2031 C2032 1.523 . S
C2032 C2016 1.368 1_556 S
C2032 C2028 1.368 . S
C2032 C2031 1.523 . S
H2033 C2008 0.950 . S
H2034 C2010 0.950 . S
H2035 C2011 0.949 . S
H2036 C2013 0.950 . S
H2037 C2015 0.950 . S
C2038 C2039 1.349 . S
C2038 C2040 1.327 . S
C2038 H2063 0.950 . S
C2039 C2038 1.349 . S
C2039 C2055 1.349 . S
C2040 C2038 1.327 . S
C2040 C2059 1.429 . S
C2040 H2064 0.950 . S
C2041 C2058 1.574 . S
C2041 C2060 1.368 . S
C2041 H2065 0.949 . S
H2042 C2046 0.949 . S
C2043 C2044 1.349 . S
C2043 C2045 1.327 . S
C2043 H2066 0.950 . S
C2044 C2043 1.349 . S
C2044 C2056 1.349 . S
C2045 C2043 1.327 . S
C2045 C2061 1.429 . S
C2045 H2067 0.950 . S
C2046 H2042 0.949 . S
C2046 C2054 1.574 . S
C2046 C2062 1.368 . S
H2047 C2055 0.950 . S
H2048 C2053 0.950 . S
H2049 C2054 0.949 . S
H2050 C2056 0.950 . S
H2051 C2057 0.950 . S
H2052 C2058 0.949 . S
C2053 H2048 0.950 . S
C2053 C2055 1.327 . S
C2053 C2059 1.429 . S
C2054 C2046 1.574 . S
C2054 H2049 0.949 . S
C2054 C2060 1.368 . S
C2055 C2039 1.349 . S
C2055 H2047 0.950 . S
C2055 C2053 1.327 . S
C2056 C2044 1.349 . S
C2056 H2050 0.950 . S
C2056 C2057 1.327 . S
C2057 H2051 0.950 . S
C2057 C2056 1.327 . S
C2057 C2061 1.429 . S
C2058 C2041 1.574 . S
C2058 H2052 0.949 . S
C2058 C2062 1.368 . S
C2059 C2040 1.429 . S
C2059 C2053 1.429 . S
C2059 C2060 1.523 . S
C2060 C2041 1.368 . S
C2060 C2054 1.368 . S
C2060 C2059 1.523 . S
C2061 C2045 1.429 . S
C2061 C2057 1.429 . S
C2061 C2062 1.523 . S
C2062 C2046 1.368 . S
C2062 C2058 1.368 . S
C2062 C2061 1.523 . S
H2063 C2038 0.950 . S
H2064 C2040 0.950 . S
H2065 C2041 0.949 . S
H2066 C2043 0.950 . S
H2067 C2045 0.950 . S
C2068 C2069 1.349 . S
C2068 C2070 1.327 . S
C2068 H2093 0.950 . S
C2069 C2068 1.349 . S
C2069 C2085 1.349 . S
C2070 C2068 1.327 . S
C2070 C2089 1.429 . S
C2070 H2094 0.950 . S
C2071 C2088 1.574 . S
C2071 C2090 1.368 1_556 S
C2071 H2095 0.949 . S
H2072 C2076 0.949 . S
C2073 C2074 1.349 . S
C2073 C2075 1.327 . S
C2073 H2096 0.950 . S
C2074 C2073 1.349 . S
C2074 C2086 1.349 . S
C2075 C2073 1.327 . S
C2075 C2091 1.429 . S
C2075 H2097 0.950 . S
C2076 H2072 0.949 . S
C2076 C2084 1.574 . S
C2076 C2092 1.368 1_554 S
H2077 C2085 0.950 . S
H2078 C2083 0.950 . S
H2079 C2084 0.949 . S
H2080 C2086 0.950 . S
H2081 C2087 0.950 . S
H2082 C2088 0.949 . S
C2083 H2078 0.950 . S
C2083 C2085 1.327 . S
C2083 C2089 1.429 . S
C2084 C2076 1.574 . S
C2084 H2079 0.949 . S
C2084 C2090 1.368 . S
C2085 C2069 1.349 . S
C2085 H2077 0.950 . S
C2085 C2083 1.327 . S
C2086 C2074 1.349 . S
C2086 H2080 0.950 . S
C2086 C2087 1.327 . S
C2087 H2081 0.950 . S
C2087 C2086 1.327 . S
C2087 C2091 1.429 . S
C2088 C2071 1.574 . S
C2088 H2082 0.949 . S
C2088 C2092 1.368 . S
C2089 C2070 1.429 . S
C2089 C2083 1.429 . S
C2089 C2090 1.523 . S
C2090 C2071 1.368 1_554 S
C2090 C2084 1.368 . S
C2090 C2089 1.523 . S
C2091 C2075 1.429 . S
C2091 C2087 1.429 . S
C2091 C2092 1.523 . S
C2092 C2076 1.368 1_556 S
C2092 C2088 1.368 . S
C2092 C2091 1.523 . S
H2093 C2068 0.950 . S
H2094 C2070 0.950 . S
H2095 C2071 0.949 . S
H2096 C2073 0.950 . S
H2097 C2075 0.950 . S
C2098 C2099 1.349 . S
C2098 C2100 1.327 . S
C2098 H2123 0.950 . S
C2099 C2098 1.349 . S
C2099 C2115 1.349 . S
C2100 C2098 1.327 . S
C2100 C2119 1.429 . S
C2100 H2124 0.950 . S
C2101 C2118 1.574 . S
C2101 C2120 1.368 . S
C2101 H2125 0.949 . S
H2102 C2106 0.949 . S
C2103 C2104 1.349 . S
C2103 C2105 1.327 . S
C2103 H2126 0.950 . S
C2104 C2103 1.349 . S
C2104 C2116 1.349 . S
C2105 C2103 1.327 . S
C2105 C2121 1.429 . S
C2105 H2127 0.950 . S
C2106 H2102 0.949 . S
C2106 C2114 1.574 . S
C2106 C2122 1.368 . S
H2107 C2115 0.950 . S
H2108 C2113 0.950 . S
H2109 C2114 0.949 . S
H2110 C2116 0.950 . S
H2111 C2117 0.950 . S
H2112 C2118 0.949 . S
C2113 H2108 0.950 . S
C2113 C2115 1.327 . S
C2113 C2119 1.429 . S
C2114 C2106 1.574 . S
C2114 H2109 0.949 . S
C2114 C2120 1.368 . S
C2115 C2099 1.349 . S
C2115 H2107 0.950 . S
C2115 C2113 1.327 . S
C2116 C2104 1.349 . S
C2116 H2110 0.950 . S
C2116 C2117 1.327 . S
C2117 H2111 0.950 . S
C2117 C2116 1.327 . S
C2117 C2121 1.429 . S
C2118 C2101 1.574 . S
C2118 H2112 0.949 . S
C2118 C2122 1.368 . S
C2119 C2100 1.429 . S
C2119 C2113 1.429 . S
C2119 C2120 1.523 . S
C2120 C2101 1.368 . S
C2120 C2114 1.368 . S
C2120 C2119 1.523 . S
C2121 C2105 1.429 . S
C2121 C2117 1.429 . S
C2121 C2122 1.523 . S
C2122 C2106 1.368 . S
C2122 C2118 1.368 . S
C2122 C2121 1.523 . S
H2123 C2098 0.950 . S
H2124 C2100 0.950 . S
H2125 C2101 0.949 . S
H2126 C2103 0.950 . S
H2127 C2105 0.950 . S
C2128 C2129 1.349 . S
C2128 C2130 1.327 . S
C2128 H2153 0.950 . S
C2129 C2128 1.349 . S
C2129 C2145 1.349 . S
C2130 C2128 1.327 . S
C2130 C2149 1.429 . S
C2130 H2154 0.944 1_556 S
C2131 C2148 1.574 . S
C2131 C2150 1.368 . S
C2131 H2155 0.949 . S
H2132 C2136 0.949 . S
C2133 C2134 1.349 . S
C2133 C2135 1.327 . S
C2133 H2156 0.950 . S
C2134 C2133 1.349 . S
C2134 C2146 1.349 . S
C2135 C2133 1.327 . S
C2135 C2151 1.429 . S
C2135 H2157 0.944 1_554 S
C2136 H2132 0.949 . S
C2136 C2144 1.574 . S
C2136 C2152 1.368 . S
H2137 C2145 0.950 . S
H2138 C2143 0.950 . S
H2139 C2144 0.949 . S
H2140 C2146 0.950 . S
H2141 C2147 0.950 . S
H2142 C2148 0.949 . S
C2143 H2138 0.950 . S
C2143 C2145 1.327 . S
C2143 C2149 1.429 . S
C2144 C2136 1.574 . S
C2144 H2139 0.949 . S
C2144 C2150 1.368 1_554 S
C2145 C2129 1.349 . S
C2145 H2137 0.950 . S
C2145 C2143 1.327 . S
C2146 C2134 1.349 . S
C2146 H2140 0.950 . S
C2146 C2147 1.327 . S
C2147 H2141 0.950 . S
C2147 C2146 1.327 . S
C2147 C2151 1.429 . S
C2148 C2131 1.574 . S
C2148 H2142 0.949 . S
C2148 C2152 1.368 1_556 S
C2149 C2130 1.429 . S
C2149 C2143 1.429 . S
C2149 C2150 1.523 . S
C2150 C2131 1.368 . S
C2150 C2144 1.368 1_556 S
C2150 C2149 1.523 . S
C2151 C2135 1.429 . S
C2151 C2147 1.429 . S
C2151 C2152 1.523 . S
C2152 C2136 1.368 . S
C2152 C2148 1.368 1_554 S
C2152 C2151 1.523 . S
H2153 C2128 0.950 . S
H2154 C2130 0.944 1_554 S
H2155 C2131 0.949 . S
H2156 C2133 0.950 . S
H2157 C2135 0.944 1_556 S
C2158 C2159 1.349 . S
C2158 C2160 1.327 . S
C2158 H2183 0.950 . S
C2159 C2158 1.349 . S
C2159 C2175 1.349 . S
C2160 C2158 1.327 . S
C2160 C2179 1.429 . S
C2160 H2184 0.950 . S
C2161 C2178 1.574 . S
C2161 C2180 1.368 . S
C2161 H2185 0.949 . S
H2162 C2166 0.949 . S
C2163 C2164 1.349 . S
C2163 C2165 1.327 . S
C2163 H2186 0.950 . S
C2164 C2163 1.349 . S
C2164 C2176 1.349 . S
C2165 C2163 1.327 . S
C2165 C2181 1.429 . S
C2165 H2187 0.950 . S
C2166 H2162 0.949 . S
C2166 C2174 1.574 . S
C2166 C2182 1.368 . S
H2167 C2175 0.950 . S
H2168 C2173 0.950 . S
H2169 C2174 0.949 . S
H2170 C2176 0.950 . S
H2171 C2177 0.950 . S
H2172 C2178 0.949 . S
C2173 H2168 0.950 . S
C2173 C2175 1.327 . S
C2173 C2179 1.429 . S
C2174 C2166 1.574 . S
C2174 H2169 0.949 . S
C2174 C2180 1.368 . S
C2175 C2159 1.349 . S
C2175 H2167 0.950 . S
C2175 C2173 1.327 . S
C2176 C2164 1.349 . S
C2176 H2170 0.950 . S
C2176 C2177 1.327 . S
C2177 H2171 0.950 . S
C2177 C2176 1.327 . S
C2177 C2181 1.429 . S
C2178 C2161 1.574 . S
C2178 H2172 0.949 . S
C2178 C2182 1.368 . S
C2179 C2160 1.429 . S
C2179 C2173 1.429 . S
C2179 C2180 1.523 . S
C2180 C2161 1.368 . S
C2180 C2174 1.368 . S
C2180 C2179 1.523 . S
C2181 C2165 1.429 . S
C2181 C2177 1.429 . S
C2181 C2182 1.523 . S
C2182 C2166 1.368 . S
C2182 C2178 1.368 . S
C2182 C2181 1.523 . S
H2183 C2158 0.950 . S
H2184 C2160 0.950 . S
H2185 C2161 0.949 . S
H2186 C2163 0.950 . S
H2187 C2165 0.950 . S
C2188 C2189 1.349 . S
C2188 C2190 1.327 . S
C2188 H2213 0.950 . S
C2189 C2188 1.349 . S
C2189 C2205 1.349 . S
C2190 C2188 1.327 . S
C2190 C2209 1.429 . S
C2190 H2214 0.950 . S
C2191 C2208 1.574 . S
C2191 C2210 1.368 . S
C2191 H2215 0.949 . S
H2192 C2196 0.949 . S
C2193 C2194 1.349 . S
C2193 C2195 1.327 . S
C2193 H2216 0.950 . S
C2194 C2193 1.349 . S
C2194 C2206 1.349 . S
C2195 C2193 1.327 . S
C2195 C2211 1.429 . S
C2195 H2217 0.950 . S
C2196 H2192 0.949 . S
C2196 C2204 1.574 . S
C2196 C2212 1.368 . S
H2197 C2205 0.950 . S
H2198 C2203 0.950 . S
H2199 C2204 0.949 . S
H2200 C2206 0.950 . S
H2201 C2207 0.950 . S
H2202 C2208 0.949 . S
C2203 H2198 0.950 . S
C2203 C2205 1.327 . S
C2203 C2209 1.429 . S
C2204 C2196 1.574 . S
C2204 H2199 0.949 . S
C2204 C2210 1.368 1_556 S
C2205 C2189 1.349 . S
C2205 H2197 0.950 . S
C2205 C2203 1.327 . S
C2206 C2194 1.349 . S
C2206 H2200 0.950 . S
C2206 C2207 1.327 . S
C2207 H2201 0.950 . S
C2207 C2206 1.327 . S
C2207 C2211 1.429 . S
C2208 C2191 1.574 . S
C2208 H2202 0.949 . S
C2208 C2212 1.368 1_554 S
C2209 C2190 1.429 . S
C2209 C2203 1.429 . S
C2209 C2210 1.523 . S
C2210 C2191 1.368 . S
C2210 C2204 1.368 1_554 S
C2210 C2209 1.523 . S
C2211 C2195 1.429 . S
C2211 C2207 1.429 . S
C2211 C2212 1.523 . S
C2212 C2196 1.368 . S
C2212 C2208 1.368 1_556 S
C2212 C2211 1.523 . S
H2213 C2188 0.950 . S
H2214 C2190 0.950 . S
H2215 C2191 0.949 . S
H2216 C2193 0.950 . S
H2217 C2195 0.950 . S
C2218 C2219 1.349 . S
C2218 C2220 1.327 . S
C2218 H2243 0.950 . S
C2219 C2218 1.349 . S
C2219 C2235 1.349 . S
C2220 C2218 1.327 . S
C2220 C2239 1.429 . S
C2220 H2244 0.950 . S
C2221 C2238 1.574 . S
C2221 C2240 1.368 . S
C2221 H2245 0.949 . S
H2222 C2226 0.949 . S
C2223 C2224 1.349 . S
C2223 C2225 1.327 . S
C2223 H2246 0.950 . S
C2224 C2223 1.349 . S
C2224 C2236 1.349 . S
C2225 C2223 1.327 . S
C2225 C2241 1.429 . S
C2225 H2247 0.950 . S
C2226 H2222 0.949 . S
C2226 C2234 1.574 . S
C2226 C2242 1.368 . S
H2227 C2235 0.950 . S
H2228 C2233 0.950 . S
H2229 C2234 0.949 . S
H2230 C2236 0.950 . S
H2231 C2237 0.950 . S
H2232 C2238 0.949 . S
C2233 H2228 0.950 . S
C2233 C2235 1.327 . S
C2233 C2239 1.429 . S
C2234 C2226 1.574 . S
C2234 H2229 0.949 . S
C2234 C2240 1.368 . S
C2235 C2219 1.349 . S
C2235 H2227 0.950 . S
C2235 C2233 1.327 . S
C2236 C2224 1.349 . S
C2236 H2230 0.950 . S
C2236 C2237 1.327 . S
C2237 H2231 0.950 . S
C2237 C2236 1.327 . S
C2237 C2241 1.429 . S
C2238 C2221 1.574 . S
C2238 H2232 0.949 . S
C2238 C2242 1.368 . S
C2239 C2220 1.429 . S
C2239 C2233 1.429 . S
C2239 C2240 1.523 . S
C2240 C2221 1.368 . S
C2240 C2234 1.368 . S
C2240 C2239 1.523 . S
C2241 C2225 1.429 . S
C2241 C2237 1.429 . S
C2241 C2242 1.523 . S
C2242 C2226 1.368 . S
C2242 C2238 1.368 . S
C2242 C2241 1.523 . S
H2243 C2218 0.950 . S
H2244 C2220 0.950 . S
H2245 C2221 0.949 . S
H2246 C2223 0.950 . S
H2247 C2225 0.950 . S
C2248 C2249 1.349 . S
C2248 C2250 1.327 . S
C2248 H2273 0.950 . S
C2249 C2248 1.349 . S
C2249 C2265 1.349 . S
C2250 C2248 1.327 . S
C2250 C2269 1.429 . S
C2250 H2274 0.950 1_556 S
C2251 C2268 1.574 1_545 S
C2251 C2270 1.368 . S
C2251 H2275 0.949 . S
H2252 C2256 0.949 . S
C2253 C2254 1.349 . S
C2253 C2255 1.327 . S
C2253 H2276 0.950 . S
C2254 C2253 1.349 . S
C2254 C2266 1.349 . S
C2255 C2253 1.327 . S
C2255 C2271 1.429 . S
C2255 H2277 0.950 1_554 S
C2256 H2252 0.949 . S
C2256 C2264 1.574 1_565 S
C2256 C2272 1.368 . S
H2257 C2265 0.950 . S
H2258 C2263 0.950 . S
H2259 C2264 0.949 . S
H2260 C2266 0.950 . S
H2261 C2267 0.950 . S
H2262 C2268 0.949 . S
C2263 H2258 0.950 . S
C2263 C2265 1.327 . S
C2263 C2269 1.429 . S
C2264 C2256 1.574 1_545 S
C2264 H2259 0.949 . S
C2264 C2270 1.368 1_554 S
C2265 C2249 1.349 . S
C2265 H2257 0.950 . S
C2265 C2263 1.327 . S
C2266 C2254 1.349 . S
C2266 H2260 0.950 . S
C2266 C2267 1.327 . S
C2267 H2261 0.950 . S
C2267 C2266 1.327 . S
C2267 C2271 1.429 . S
C2268 C2251 1.574 1_565 S
C2268 H2262 0.949 . S
C2268 C2272 1.368 1_556 S
C2269 C2250 1.429 . S
C2269 C2263 1.429 . S
C2269 C2270 1.523 . S
C2270 C2251 1.368 . S
C2270 C2264 1.368 1_556 S
C2270 C2269 1.523 . S
C2271 C2255 1.429 . S
C2271 C2267 1.429 . S
C2271 C2272 1.523 . S
C2272 C2256 1.368 . S
C2272 C2268 1.368 1_554 S
C2272 C2271 1.523 . S
H2273 C2248 0.950 . S
H2274 C2250 0.950 1_554 S
H2275 C2251 0.949 . S
H2276 C2253 0.950 . S
H2277 C2255 0.950 1_556 S
C2278 C2279 1.349 . S
C2278 C2280 1.327 . S
C2278 H2303 0.950 . S
C2279 C2278 1.349 . S
C2279 C2295 1.349 . S
C2280 C2278 1.327 . S
C2280 C2299 1.429 . S
C2280 H2304 0.950 . S
C2281 C2298 1.574 1_565 S
C2281 C2300 1.368 . S
C2281 H2305 0.949 . S
H2282 C2286 0.949 . S
C2283 C2284 1.349 . S
C2283 C2285 1.327 . S
C2283 H2306 0.950 . S
C2284 C2283 1.349 . S
C2284 C2296 1.349 . S
C2285 C2283 1.327 . S
C2285 C2301 1.429 . S
C2285 H2307 0.950 . S
C2286 H2282 0.949 . S
C2286 C2294 1.574 1_545 S
C2286 C2302 1.368 . S
H2287 C2295 0.950 . S
H2288 C2293 0.950 . S
H2289 C2294 0.949 . S
H2290 C2296 0.950 . S
H2291 C2297 0.950 . S
H2292 C2298 0.949 . S
C2293 H2288 0.950 . S
C2293 C2295 1.327 . S
C2293 C2299 1.429 . S
C2294 C2286 1.574 1_565 S
C2294 H2289 0.949 . S
C2294 C2300 1.368 . S
C2295 C2279 1.349 . S
C2295 H2287 0.950 . S
C2295 C2293 1.327 . S
C2296 C2284 1.349 . S
C2296 H2290 0.950 . S
C2296 C2297 1.327 . S
C2297 H2291 0.950 . S
C2297 C2296 1.327 . S
C2297 C2301 1.429 . S
C2298 C2281 1.574 1_545 S
C2298 H2292 0.949 . S
C2298 C2302 1.368 . S
C2299 C2280 1.429 . S
C2299 C2293 1.429 . S
C2299 C2300 1.523 . S
C2300 C2281 1.368 . S
C2300 C2294 1.368 . S
C2300 C2299 1.523 . S
C2301 C2285 1.429 . S
C2301 C2297 1.429 . S
C2301 C2302 1.523 . S
C2302 C2286 1.368 . S
C2302 C2298 1.368 . S
C2302 C2301 1.523 . S
H2303 C2278 0.950 . S
H2304 C2280 0.950 . S
H2305 C2281 0.949 . S
H2306 C2283 0.950 . S
H2307 C2285 0.950 . S
C2308 C2309 1.349 . S
C2308 C2310 1.327 . S
C2308 H2333 0.950 . S
C2309 C2308 1.349 . S
C2309 C2325 1.349 . S
C2310 C2308 1.327 . S
C2310 C2329 1.429 . S
C2310 H2334 0.950 . S
C2311 C2328 1.574 1_565 S
C2311 C2330 1.368 . S
C2311 H2335 0.949 . S
H2312 C2316 0.949 . S
C2313 C2314 1.349 . S
C2313 C2315 1.327 . S
C2313 H2336 0.950 . S
C2314 C2313 1.349 . S
C2314 C2326 1.349 . S
C2315 C2313 1.327 . S
C2315 C2331 1.429 . S
C2315 H2337 0.950 . S
C2316 H2312 0.949 . S
C2316 C2324 1.574 1_545 S
C2316 C2332 1.368 . S
H2317 C2325 0.950 . S
H2318 C2323 0.950 . S
H2319 C2324 0.949 . S
H2320 C2326 0.950 . S
H2321 C2327 0.950 . S
H2322 C2328 0.949 . S
C2323 H2318 0.950 . S
C2323 C2325 1.327 . S
C2323 C2329 1.429 . S
C2324 C2316 1.574 1_565 S
C2324 H2319 0.949 . S
C2324 C2330 1.368 1_556 S
C2325 C2309 1.349 . S
C2325 H2317 0.950 . S
C2325 C2323 1.327 . S
C2326 C2314 1.349 . S
C2326 H2320 0.950 . S
C2326 C2327 1.327 . S
C2327 H2321 0.950 . S
C2327 C2326 1.327 . S
C2327 C2331 1.429 . S
C2328 C2311 1.574 1_545 S
C2328 H2322 0.949 . S
C2328 C2332 1.368 1_554 S
C2329 C2310 1.429 . S
C2329 C2323 1.429 . S
C2329 C2330 1.523 . S
C2330 C2311 1.368 . S
C2330 C2324 1.368 1_554 S
C2330 C2329 1.523 . S
C2331 C2315 1.429 . S
C2331 C2327 1.429 . S
C2331 C2332 1.523 . S
C2332 C2316 1.368 . S
C2332 C2328 1.368 1_556 S
C2332 C2331 1.523 . S
H2333 C2308 0.950 . S
H2334 C2310 0.950 . S
H2335 C2311 0.949 . S
H2336 C2313 0.950 . S
H2337 C2315 0.950 . S
C2338 C2339 1.349 . S
C2338 C2340 1.327 . S
C2338 H2363 0.950 . S
C2339 C2338 1.349 . S
C2339 C2355 1.349 . S
C2340 C2338 1.327 . S
C2340 C2359 1.429 . S
C2340 H2364 0.950 . S
C2341 C2358 1.574 1_545 S
C2341 C2360 1.368 . S
C2341 H2365 0.949 . S
H2342 C2346 0.949 . S
C2343 C2344 1.349 . S
C2343 C2345 1.327 . S
C2343 H2366 0.950 . S
C2344 C2343 1.349 . S
C2344 C2356 1.349 . S
C2345 C2343 1.327 . S
C2345 C2361 1.429 . S
C2345 H2367 0.950 . S
C2346 H2342 0.949 . S
C2346 C2354 1.574 1_565 S
C2346 C2362 1.368 . S
H2347 C2355 0.950 . S
H2348 C2353 0.950 . S
H2349 C2354 0.949 . S
H2350 C2356 0.950 . S
H2351 C2357 0.950 . S
H2352 C2358 0.949 . S
C2353 H2348 0.950 . S
C2353 C2355 1.327 . S
C2353 C2359 1.429 . S
C2354 C2346 1.574 1_545 S
C2354 H2349 0.949 . S
C2354 C2360 1.368 . S
C2355 C2339 1.349 . S
C2355 H2347 0.950 . S
C2355 C2353 1.327 . S
C2356 C2344 1.349 . S
C2356 H2350 0.950 . S
C2356 C2357 1.327 . S
C2357 H2351 0.950 . S
C2357 C2356 1.327 . S
C2357 C2361 1.429 . S
C2358 C2341 1.574 1_565 S
C2358 H2352 0.949 . S
C2358 C2362 1.368 . S
C2359 C2340 1.429 . S
C2359 C2353 1.429 . S
C2359 C2360 1.523 . S
C2360 C2341 1.368 . S
C2360 C2354 1.368 . S
C2360 C2359 1.523 . S
C2361 C2345 1.429 . S
C2361 C2357 1.429 . S
C2361 C2362 1.523 . S
C2362 C2346 1.368 . S
C2362 C2358 1.368 . S
C2362 C2361 1.523 . S
H2363 C2338 0.950 . S
H2364 C2340 0.950 . S
H2365 C2341 0.949 . S
H2366 C2343 0.950 . S
H2367 C2345 0.950 . S
C1409 C57 1.514 . S
C1414 C557 1.514 . S
C1439 C145 1.514 . S
C1444 C645 1.514 . S
C1469 C401 1.514 . S
C1474 C205 1.514 . S
C1499 C497 1.514 . S
C1504 C293 1.514 . S
C1529 C1261 1.514 . S
C1534 C761 1.514 . S
C1559 C1340 1.514 . S
C1564 C841 1.514 . S
C1589 C909 1.514 . S
C1594 C1105 1.514 . S
C1619 C988 1.514 . S
C1624 C1193 1.514 . S
C1649 C20 1.378 . S
C1654 C489 1.377 . S
C1679 C108 1.378 . S
C1684 C409 1.376 . S
C1709 C225 1.378 . S
C1714 C636 1.377 . S
C1739 C548 1.376 . S
C1744 C313 1.378 . S
C1769 C1201 1.377 . S
C1774 C724 1.378 . S
C1799 C1113 1.376 . S
C1804 C821 1.378 . S
C1829 C929 1.378 . S
C1834 C1349 1.377 . S
C1859 C1252 1.376 . S
C1864 C1025 1.378 . S
C1889 C1076 1.097 . S
C1894 C29 1.097 . S
C1919 C117 1.097 . S
C1924 C1164 1.097 . S
C1949 C1289 1.097 . S
C1954 C233 1.097 . S
C1979 C1369 1.097 . S
C1984 C321 1.097 . S
C2009 C733 1.097 . S
C2014 C372 1.097 . S
C2039 C812 1.097 . S
C2044 C469 1.097 . S
C2069 C585 1.097 . S
C2074 C937 1.097 . S
C2099 C673 1.097 . S
C2104 C1017 1.097 . S
C2129 C196 1.377 . S
C2134 C49 1.377 . S
C2159 C137 1.377 . S
C2164 C284 1.377 . S
C2189 C577 1.379 . S
C2194 C381 1.379 . S
C2219 C460 1.379 . S
C2224 C665 1.379 . S
C2249 C900 1.377 . S
C2254 C753 1.377 . S
C2279 C997 1.377 . S
C2284 C849 1.377 . S
C2309 C1281 1.379 . S
C2314 C1085 1.379 . S
C2339 C1377 1.379 . S
C2344 C1173 1.379 . S
