# Generated by pormake.
# Topology umy, (4)-cn, num edge types: 1
# Building blocks:
#     Node 0, Type 0, BuildingBlock: GALJAG_clean_sbu_0, # of connection points: 4
#     Node 1, Type 0, BuildingBlock: GALJAG_clean_sbu_0, # of connection points: 4
#     Node 2, Type 0, BuildingBlock: GALJAG_clean_sbu_0, # of connection points: 4
#     Node 3, Type 0, BuildingBlock: GALJAG_clean_sbu_0, # of connection points: 4
#     Node 4, Type 0, BuildingBlock: GALJAG_clean_sbu_0, # of connection points: 4
#     Node 5, Type 0, BuildingBlock: GALJAG_clean_sbu_0, # of connection points: 4
#     Node 6, Type 0, BuildingBlock: GALJAG_clean_sbu_0, # of connection points: 4
#     Node 7, Type 0, BuildingBlock: GALJAG_clean_sbu_0, # of connection points: 4
#     Node 8, Type 0, BuildingBlock: GALJAG_clean_sbu_0, # of connection points: 4
#     Node 9, Type 0, BuildingBlock: GALJAG_clean_sbu_0, # of connection points: 4
#     Node 10, Type 0, BuildingBlock: GALJAG_clean_sbu_0, # of connection points: 4
#     Node 11, Type 0, BuildingBlock: GALJAG_clean_sbu_0, # of connection points: 4
#     Edge 12, Type (0, 0), BuildingBlock: CIFDUS_clean_linker_0, # of connection points: 2
#     Edge 13, Type (0, 0), BuildingBlock: CIFDUS_clean_linker_0, # of connection points: 2
#     Edge 14, Type (0, 0), BuildingBlock: CIFDUS_clean_linker_0, # of connection points: 2
#     Edge 15, Type (0, 0), BuildingBlock: CIFDUS_clean_linker_0, # of connection points: 2
#     Edge 16, Type (0, 0), BuildingBlock: CIFDUS_clean_linker_0, # of connection points: 2
#     Edge 17, Type (0, 0), BuildingBlock: CIFDUS_clean_linker_0, # of connection points: 2
#     Edge 18, Type (0, 0), BuildingBlock: CIFDUS_clean_linker_0, # of connection points: 2
#     Edge 19, Type (0, 0), BuildingBlock: CIFDUS_clean_linker_0, # of connection points: 2
#     Edge 20, Type (0, 0), BuildingBlock: CIFDUS_clean_linker_0, # of connection points: 2
#     Edge 21, Type (0, 0), BuildingBlock: CIFDUS_clean_linker_0, # of connection points: 2
#     Edge 22, Type (0, 0), BuildingBlock: CIFDUS_clean_linker_0, # of connection points: 2
#     Edge 23, Type (0, 0), BuildingBlock: CIFDUS_clean_linker_0, # of connection points: 2
#     Edge 24, Type (0, 0), BuildingBlock: CIFDUS_clean_linker_0, # of connection points: 2
#     Edge 25, Type (0, 0), BuildingBlock: CIFDUS_clean_linker_0, # of connection points: 2
#     Edge 26, Type (0, 0), BuildingBlock: CIFDUS_clean_linker_0, # of connection points: 2
#     Edge 27, Type (0, 0), BuildingBlock: CIFDUS_clean_linker_0, # of connection points: 2
#     Edge 28, Type (0, 0), BuildingBlock: CIFDUS_clean_linker_0, # of connection points: 2
#     Edge 29, Type (0, 0), BuildingBlock: CIFDUS_clean_linker_0, # of connection points: 2
#     Edge 30, Type (0, 0), BuildingBlock: CIFDUS_clean_linker_0, # of connection points: 2
#     Edge 31, Type (0, 0), BuildingBlock: CIFDUS_clean_linker_0, # of connection points: 2
#     Edge 32, Type (0, 0), BuildingBlock: CIFDUS_clean_linker_0, # of connection points: 2
#     Edge 33, Type (0, 0), BuildingBlock: CIFDUS_clean_linker_0, # of connection points: 2
#     Edge 34, Type (0, 0), BuildingBlock: CIFDUS_clean_linker_0, # of connection points: 2
#     Edge 35, Type (0, 0), BuildingBlock: CIFDUS_clean_linker_0, # of connection points: 2
# Relax obj value: 0.077
# Max RMSD: 0.076
# Mean RMSD: 0.076
data_MOF--net-umy--node1-GALJAG_clean_sbu_0--edge1-CIFDUS_clean_linker_0
_symmetry_space_group_name_H-M    P1
_symmetry_Int_Tables_number       1
_symmetry_cell_setting            triclinic
loop_
_symmetry_equiv_pos_as_xyz
'x, y, z'
_cell_length_a     30.975309
_cell_length_b     30.927635
_cell_length_c     52.4419
_cell_angle_alpha  89.935352
_cell_angle_beta   90.135404
_cell_angle_gamma 120.02433
loop_
_atom_site_label
_atom_site_type_symbol
_atom_site_fract_x
_atom_site_fract_y
_atom_site_fract_z
_atom_type_partial_charge
In0 In 0.04395 0.32309 0.14138 0.0
O1 O 0.04426 0.28188 0.10534 0.0
O2 O 0.11246 0.34533 0.11692 0.0
C3 C 0.95529 0.25552 0.16166 0.0
C4 C 0.0324 0.39845 0.12359 0.0
C5 C 0.10018 0.32801 0.18192 0.0
O6 O 0.97882 0.24312 0.14652 0.0
O7 O 0.97487 0.30192 0.16506 0.0
O8 O 0.09841 0.36571 0.17406 0.0
O9 O 0.07571 0.28923 0.16865 0.0
C10 C 0.08998 0.31083 0.10079 0.0
O11 O 0.05277 0.40062 0.1448 0.0
O12 O 0.01691 0.35793 0.11163 0.0
In13 In 0.70699 0.05094 0.31248 0.0
O14 O 0.64606 0.07108 0.30848 0.0
O15 O 0.63967 0.01005 0.2865 0.0
C16 C 0.75299 0.09906 0.35567 0.0
C17 C 0.76729 0.1068 0.27427 0.0
C18 C 0.68266 0.96065 0.33113 0.0
O19 O 0.71165 0.0944 0.34887 0.0
O20 O 0.77093 0.08065 0.34045 0.0
O21 O 0.7218 0.98583 0.31806 0.0
O22 O 0.65564 0.98021 0.33365 0.0
C23 C 0.62156 0.03741 0.29217 0.0
O24 O 0.75259 0.06065 0.27605 0.0
O25 O 0.75243 0.12386 0.29184 0.0
In26 In 0.64985 0.71773 0.47926 0.0
O27 O 0.56576 0.66962 0.47601 0.0
O28 O 0.60996 0.64503 0.45662 0.0
C29 C 0.63809 0.76336 0.52042 0.0
C30 C 0.67205 0.7731 0.43634 0.0
C31 C 0.71699 0.69599 0.49937 0.0
O32 O 0.62236 0.71711 0.51978 0.0
O33 O 0.65884 0.78638 0.50021 0.0
O34 O 0.72886 0.73943 0.49197 0.0
O35 O 0.6721 0.66338 0.49531 0.0
C36 C 0.56686 0.63765 0.46151 0.0
O37 O 0.7016 0.75998 0.44542 0.0
O38 O 0.6328 0.75893 0.44904 0.0
In39 In 0.94495 0.67518 0.64371 0.0
O40 O 0.93537 0.59738 0.64636 0.0
O41 O 0.97372 0.64178 0.61409 0.0
C42 C 0.88312 0.66856 0.68165 0.0
C43 C 0.90197 0.6906 0.60265 0.0
C44 C 0.03256 0.73864 0.66663 0.0
O45 O 0.88679 0.63153 0.6746 0.0
O46 O 0.90931 0.70792 0.66909 0.0
O47 O 0.0137 0.75303 0.64961 0.0
O48 O 0.00867 0.69237 0.67088 0.0
C49 C 0.95717 0.60058 0.62555 0.0
O50 O 0.94605 0.72158 0.60944 0.0
O51 O 0.87989 0.65234 0.6166 0.0
In52 In 0.29707 0.93922 0.81327 0.0
O53 O 0.24932 0.92945 0.77768 0.0
O54 O 0.24462 0.86493 0.79482 0.0
C55 C 0.317 0.03006 0.82997 0.0
C56 C 0.38359 0.95417 0.79354 0.0
C57 C 0.25949 0.88721 0.85675 0.0
O58 O 0.27515 -0.00098 0.8206 0.0
O59 O 0.34902 0.01632 0.82934 0.0
O60 O 0.29145 0.88311 0.84368 0.0
O61 O 0.24638 0.91662 0.84766 0.0
C62 C 0.23041 0.88252 0.77712 0.0
O63 O 0.37148 0.94153 0.81648 0.0
O64 O 0.35226 0.95972 0.78061 0.0
In65 In 0.33021 0.27251 0.97512 0.0
O66 O 0.41084 0.33514 0.97748 0.0
O67 O 0.3664 0.33617 0.94658 0.0
C68 C 0.32851 0.21623 0.01489 0.0
C69 C 0.31405 0.21402 0.93399 0.0
C70 C 0.27351 0.30591 0.99694 0.0
O71 O 0.36849 0.25344 0.00722 0.0
O72 O 0.2905 0.20664 1.00189 0.0
O73 O 0.25524 0.26876 0.98208 0.0
O74 O 0.32018 0.32742 0.99942 0.0
C75 C 0.40847 0.35675 0.95749 0.0
O76 O 0.28414 0.22878 0.94023 0.0
O77 O 0.35107 0.22811 0.94865 0.0
In78 In 0.67793 0.94259 0.69764 0.0
O79 O 0.73078 0.94274 0.7285 0.0
O80 O 0.65503 0.88441 0.72882 0.0
C81 C 0.75396 0.02704 0.67773 0.0
C82 C 0.60349 0.95601 0.71479 0.0
C83 C 0.65167 0.88036 0.65706 0.0
O84 O 0.75695 0.9883 0.68142 0.0
O85 O 0.71419 0.0241 0.68568 0.0
O86 O 0.65232 0.92136 0.65653 0.0
O87 O 0.66322 0.86985 0.67831 0.0
C88 C 0.69737 0.90368 0.73927 0.0
O89 O 0.59975 0.93183 0.69476 0.0
O90 O 0.64509 0.97422 0.72598 0.0
In91 In 0.71569 0.65012 0.86037 0.0
O92 O 0.76383 0.68467 0.89629 0.0
O93 O 0.76899 0.62729 0.87676 0.0
C94 C 0.69822 0.72415 0.84645 0.0
C95 C 0.62926 0.57736 0.87969 0.0
C96 C 0.74943 0.63764 0.81516 0.0
O97 O 0.74065 0.73268 0.85378 0.0
O98 O 0.66436 0.67904 0.84798 0.0
O99 O 0.71908 0.60086 0.82847 0.0
O100 O 0.76306 0.67973 0.82492 0.0
C101 C 0.78298 0.65696 0.89542 0.0
O102 O 0.64029 0.57903 0.8564 0.0
O103 O 0.66147 0.61272 0.89312 0.0
In104 In 0.0636 0.71359 0.02692 0.0
O105 O 0.07322 0.7592 0.06313 0.0
O106 O 0.13528 0.7542 0.04936 0.0
C107 C 0.97622 0.69402 0.00568 0.0
C108 C 0.04571 0.62455 0.04471 0.0
C109 C 0.12045 0.76857 0.98771 0.0
O110 O 0.99634 0.7259 0.02333 0.0
O111 O -0.00138 0.67067 1.00023 0.0
O112 O 0.11714 0.7274 0.99377 0.0
O113 O 0.09629 0.78196 1.00179 0.0
C114 C 0.11845 0.77113 0.0661 0.0
O115 O 0.06801 0.64242 0.02386 0.0
O116 O 0.03177 0.65119 0.05633 0.0
In117 In 0.33173 0.06003 0.19468 0.0
O118 O 0.41237 0.09886 0.20758 0.0
O119 O 0.36762 0.0218 0.21659 0.0
C120 C 0.34715 0.1091 0.15008 0.0
C121 C 0.30705 0.1027 0.2325 0.0
C122 C 0.26511 0.9708 0.17488 0.0
O123 O 0.3801 0.10208 0.16024 0.0
O124 O 0.30742 0.09269 0.1627 0.0
O125 O 0.25215 0.99605 0.1885 0.0
O126 O 0.31167 0.9893 0.1726 0.0
C127 C 0.40959 0.06112 0.21834 0.0
O128 O 0.28824 0.05592 0.231 0.0
O129 O 0.33628 0.12698 0.21461 0.0
In130 In 0.26714 0.34289 0.36049 0.0
O131 O 0.21883 0.29122 0.39305 0.0
O132 O 0.21831 0.35867 0.38626 0.0
C133 C 0.29551 0.28594 0.33507 0.0
C134 C 0.35051 0.41122 0.38429 0.0
C135 C 0.22512 0.35699 0.31856 0.0
O136 O 0.2583 0.26699 0.34991 0.0
O137 O 0.31911 0.33306 0.33426 0.0
O138 O 0.26368 0.39229 0.32872 0.0
O139 O 0.20692 0.31592 0.33023 0.0
C140 C 0.20292 0.32 0.39973 0.0
O141 O 0.32252 0.42271 0.37205 0.0
O142 O 0.33694 0.36534 0.38423 0.0
In143 In 0.92739 0.28766 0.52721 0.0
O144 O 0.92382 0.35927 0.52457 0.0
O145 O 0.95657 0.34783 0.55785 0.0
C146 C 0.86702 0.23929 0.48732 0.0
C147 C 0.88228 0.22818 0.56772 0.0
C148 C 0.01568 0.31224 0.50535 0.0
O149 O 0.86613 0.27514 0.49831 0.0
O150 O 0.89697 0.22744 0.49692 0.0
O151 O 0.99072 0.27194 0.51754 0.0
O152 O -0.00263 0.34057 0.50549 0.0
C153 C 0.94416 0.37559 0.54603 0.0
O154 O 0.92652 0.24091 0.56155 0.0
O155 O 0.86118 0.24461 0.55325 0.0
H156 H 0.03557 0.59776 0.09438 0.0
H157 H 0.04144 0.54633 0.01877 0.0
H158 H 0.03365 0.46952 0.03656 0.0
H159 H 0.02904 0.4189 0.07375 0.0
H160 H 0.03148 0.47419 0.14949 0.0
H161 H 0.03192 0.54758 0.13161 0.0
C162 C 0.03466 0.56946 0.08183 0.0
C163 C 0.03876 0.57735 0.05534 0.0
C164 C 0.03183 0.52628 0.09224 0.0
C165 C 0.03835 0.54092 0.03925 0.0
C166 C 0.03389 0.49708 0.0494 0.0
C167 C 0.02913 0.44682 0.08629 0.0
C168 C 0.02986 0.44118 0.11285 0.0
C169 C 0.03112 0.4896 0.07587 0.0
C170 C 0.03087 0.47788 0.12897 0.0
C171 C 0.03114 0.51977 0.11876 0.0
H172 H 0.60061 0.11067 0.28288 0.0
H173 H 0.54372 0.95311 0.2722 0.0
H174 H 0.47151 0.94573 0.24906 0.0
H175 H 0.42576 0.98499 0.23091 0.0
H176 H 0.48747 0.14407 0.23857 0.0
H177 H 0.55669 0.15015 0.26371 0.0
C178 C 0.57209 0.07469 0.27568 0.0
C179 C 0.57694 0.0324 0.27939 0.0
C180 C 0.53183 0.07115 0.26168 0.0
C181 C 0.54046 0.98611 0.26957 0.0
C182 C 0.4993 0.98192 0.25634 0.0
C183 C 0.45441 0.02088 0.23814 0.0
C184 C 0.4516 0.06398 0.23298 0.0
C185 C 0.49479 0.0243 0.2521 0.0
C186 C 0.48906 0.1104 0.24221 0.0
C187 C 0.52853 0.11391 0.25666 0.0
H188 H 0.55419 0.55205 0.44011 0.0
H189 H 0.47816 0.63405 0.45544 0.0
H190 H 0.40496 0.57187 0.43216 0.0
H191 H 0.3633 0.49534 0.40651 0.0
H192 H 0.436 0.40942 0.39385 0.0
H193 H 0.50995 0.47197 0.41692 0.0
C194 C 0.52142 0.55601 0.43845 0.0
C195 C 0.52154 0.59755 0.44933 0.0
C196 C 0.47913 0.51966 0.42538 0.0
C197 C 0.47881 0.6022 0.44729 0.0
C198 C 0.43706 0.56684 0.43388 0.0
C199 C 0.39546 0.49051 0.40878 0.0
C200 C 0.39476 0.44844 0.39832 0.0
C201 C 0.43699 0.52571 0.42266 0.0
C202 C 0.43603 0.4418 0.40174 0.0
C203 C 0.47819 0.47747 0.41489 0.0
H204 H 0.96266 0.58172 0.57569 0.0
H205 H 0.95655 0.52387 0.65125 0.0
H206 H 0.95577 0.45051 0.63323 0.0
H207 H 0.95258 0.40095 0.59589 0.0
H208 H 0.95057 0.45508 0.52034 0.0
H209 H 0.95885 0.53185 0.53834 0.0
C210 C 0.96174 0.55327 0.58816 0.0
C211 C 0.96001 0.55814 0.61471 0.0
C212 C 0.95953 0.51047 0.57764 0.0
C213 C 0.95793 0.52076 0.63073 0.0
C214 C 0.95745 0.47887 0.62044 0.0
C215 C 0.95442 0.42982 0.58341 0.0
C216 C 0.95122 0.42266 0.55687 0.0
C217 C 0.95761 0.47305 0.59392 0.0
C218 C 0.95289 0.45987 0.54085 0.0
C219 C 0.95766 0.50372 0.55113 0.0
H220 H 0.58935 0.97306 0.7638 0.0
H221 H 0.52274 0.94609 0.68898 0.0
H222 H 0.44999 0.94673 0.70659 0.0
H223 H 0.40358 0.9507 0.74361 0.0
H224 H 0.46723 0.97063 0.81889 0.0
H225 H 0.543 0.97714 0.80082 0.0
C226 C 0.55911 0.9679 0.75135 0.0
C227 C 0.56133 0.95978 0.72516 0.0
C228 C 0.51683 0.96675 0.76173 0.0
C229 C 0.5217 0.95238 0.70923 0.0
C230 C 0.48015 0.95271 0.71928 0.0
C231 C 0.43426 0.9569 0.756 0.0
C232 C 0.43004 0.96031 0.78249 0.0
C233 C 0.47704 0.95922 0.74555 0.0
C234 C 0.4697 0.96776 0.79841 0.0
C235 C 0.51298 0.97152 0.7881 0.0
H236 H 0.42219 0.39103 0.90897 0.0
H237 H 0.49272 0.42247 0.98293 0.0
H238 H 0.56638 0.49553 0.9656 0.0
H239 H 0.61168 0.54878 0.92911 0.0
H240 H 0.54375 0.51357 0.8545 0.0
H241 H 0.46795 0.44368 0.87235 0.0
C242 C 0.45358 0.41415 0.9213 0.0
C243 C 0.45208 0.40169 0.94718 0.0
C244 C 0.49622 0.45524 0.91106 0.0
C245 C 0.49315 0.43143 0.96292 0.0
C246 C 0.53521 0.47315 0.95304 0.0
C247 C 0.5801 0.52598 0.91683 0.0
C248 C 0.58304 0.53629 0.89059 0.0
C249 C 0.53728 0.48518 0.9271 0.0
C250 C 0.54224 0.50619 0.87477 0.0
C251 C 0.49896 0.4663 0.88496 0.0
H252 H 0.18376 0.37473 0.08453 0.0
H253 H 0.05295 0.23385 0.06661 0.0
H254 H 0.09657 0.22237 0.03073 0.0
H255 H 0.17406 0.24967 0.00645 0.0
H256 H 0.305 0.3899 0.02526 0.0
H257 H 0.25888 0.40479 0.05844 0.0
C258 C 0.16471 0.34161 0.0727 0.0
C259 C 0.11543 0.30493 0.07838 0.0
C260 C 0.18999 0.33528 0.05217 0.0
C261 C 0.09104 0.26248 0.06272 0.0
C262 C 0.11594 0.25593 0.04219 0.0
C263 C 0.19213 0.28395 0.01746 0.0
C264 C 0.24287 0.31859 0.01345 0.0
C265 C 0.16567 0.29176 0.03695 0.0
C266 C 0.26597 0.36264 0.02801 0.0
C267 C 0.23972 0.37106 0.04709 0.0
H268 H 0.80417 0.08114 0.2331 0.0
H269 H 0.80092 0.20553 0.26844 0.0
H270 H 0.85426 0.26111 0.2351 0.0
H271 H 0.90571 0.27591 0.19749 0.0
H272 H 0.91236 0.15357 0.16212 0.0
H273 H 0.8531 0.09561 0.19348 0.0
C274 C 0.81508 0.12036 0.2334 0.0
C275 C 0.79893 0.13918 0.25336 0.0
C276 C 0.84612 0.15249 0.21408 0.0
C277 C 0.81308 0.19005 0.25342 0.0
C278 C 0.84351 0.22196 0.23431 0.0
C279 C 0.89364 0.23644 0.19636 0.0
C280 C 0.91344 0.21909 0.17755 0.0
C281 C 0.86069 0.20374 0.21474 0.0
C282 C 0.89749 0.16784 0.17639 0.0
C283 C 0.86391 0.13475 0.19444 0.0
H284 H 0.60527 0.7853 0.40925 0.0
H285 H 0.76118 0.82965 0.4115 0.0
H286 H 0.77765 0.8878 0.37605 0.0
H287 H 0.74845 0.93241 0.34774 0.0
H288 H 0.59249 0.88854 0.34752 0.0
H289 H 0.57507 0.8231 0.37854 0.0
C290 C 0.64284 0.80735 0.40184 0.0
C291 C 0.6821 0.80385 0.41316 0.0
C292 C 0.65191 0.84072 0.38179 0.0
C293 C 0.73041 0.83199 0.40314 0.0
C294 C 0.7398 0.86527 0.38293 0.0
C295 C 0.71054 0.90761 0.35404 0.0
C296 C 0.67178 0.91529 0.34548 0.0
C297 C 0.70098 0.87083 0.37252 0.0
C298 C 0.6229 0.88339 0.35394 0.0
C299 C 0.61295 0.84615 0.37176 0.0
H300 H 0.81135 0.76171 0.51535 0.0
H301 H 0.69704 0.60635 0.51883 0.0
H302 H 0.74572 0.59055 0.55023 0.0
H303 H 0.81695 0.6222 0.57943 0.0
H304 H 0.93176 0.77723 0.57626 0.0
H305 H 0.88679 0.79184 0.54196 0.0
C306 C 0.79753 0.72424 0.52266 0.0
C307 C 0.75048 0.68535 0.51491 0.0
C308 C 0.82549 0.7155 0.54099 0.0
C309 C 0.73307 0.63699 0.52453 0.0
C310 C 0.76076 0.62794 0.54259 0.0
C311 C 0.83229 0.65912 0.57111 0.0
C312 C 0.87722 0.69873 0.58055 0.0
C313 C 0.80635 0.66715 0.55143 0.0
C314 C 0.89705 0.7462 0.56937 0.0
C315 C 0.87134 0.75457 0.5498 0.0
H316 H 0.07488 0.71399 0.70474 0.0
H317 H 0.08478 0.84102 0.66523 0.0
H318 H 0.14787 0.89748 0.69575 0.0
H319 H 0.19698 0.91016 0.73523 0.0
H320 H 0.18454 0.78162 0.77449 0.0
H321 H 0.12551 0.72645 0.74262 0.0
C322 C 0.09123 0.75406 0.70259 0.0
C323 C 0.07517 0.77328 0.68277 0.0
C324 C 0.12665 0.78605 0.72038 0.0
C325 C 0.09668 0.8253 0.68029 0.0
C326 C 0.13251 0.85756 0.69783 0.0
C327 C 0.18134 0.87009 0.73674 0.0
C328 C 0.19493 0.85006 0.75731 0.0
C329 C 0.1472 0.8383 0.71823 0.0
C330 C 0.1746 0.79807 0.75894 0.0
C331 C 0.14086 0.7664 0.74068 0.0
H332 H 0.24822 0.05503 0.84555 0.0
H333 H 0.40533 0.10376 0.84826 0.0
H334 H 0.41849 0.16705 0.87979 0.0
H335 H 0.3843 0.20252 0.90979 0.0
H336 H 0.22766 0.1551 0.90764 0.0
H337 H 0.21529 0.09735 0.87269 0.0
C338 C 0.28547 0.08028 0.85262 0.0
C339 C 0.32568 0.07445 0.84471 0.0
C340 C 0.29271 0.11621 0.87116 0.0
C341 C 0.37372 0.10731 0.85412 0.0
C342 C 0.38127 0.14335 0.87227 0.0
C343 C 0.3475 0.17977 0.90155 0.0
C344 C 0.3068 0.1824 0.91148 0.0
C345 C 0.34083 0.14704 0.88149 0.0
C346 C 0.25949 0.15344 0.90037 0.0
C347 C 0.25244 0.12042 0.88042 0.0
H348 H 0.76903 0.81193 0.82573 0.0
H349 H 0.6099 0.71756 0.83418 0.0
H350 H 0.59582 0.76753 0.80279 0.0
H351 H 0.62838 0.83164 0.76955 0.0
H352 H 0.78724 0.92519 0.7599 0.0
H353 H 0.80185 0.88198 0.79516 0.0
C354 C 0.73132 0.80314 0.82118 0.0
C355 C 0.69054 0.761 0.83219 0.0
C356 C 0.72346 0.83127 0.80255 0.0
C357 C 0.64188 0.74976 0.82593 0.0
C358 C 0.6338 0.7781 0.80785 0.0
C359 C 0.66623 0.84286 0.77529 0.0
C360 C 0.70669 0.88104 0.76194 0.0
C361 C 0.67425 0.81782 0.79544 0.0
C362 C 0.75549 0.89566 0.7698 0.0
C363 C 0.76383 0.87096 0.78994 0.0
H364 H 0.81603 0.71308 0.93907 0.0
H365 H 0.82789 0.60108 0.89549 0.0
H366 H 0.88499 0.59979 0.92698 0.0
H367 H 0.93383 0.63204 0.96579 0.0
H368 H 0.9256 0.74569 0.00954 0.0
H369 H 0.8641 0.74407 0.97939 0.0
C370 C 0.83118 0.68846 0.93652 0.0
C371 C 0.81791 0.65744 0.91487 0.0
C372 C 0.86429 0.68787 0.95481 0.0
C373 C 0.8376 0.62551 0.91189 0.0
C374 C 0.87019 0.6246 0.92993 0.0
C375 C 0.91821 0.65611 0.96897 0.0
C376 C 0.93423 0.6889 0.98989 0.0
C377 C 0.88398 0.65575 0.95135 0.0
C378 C 0.91368 0.71991 0.99363 0.0
C379 C 0.87879 0.71923 0.9763 0.0
H380 H 0.28582 0.91592 0.14228 0.0
H381 H 0.16374 0.92928 0.17269 0.0
H382 H 0.10645 0.8665 0.1424 0.0
H383 H 0.09261 0.8128 0.10484 0.0
H384 H 0.21608 0.80174 0.07435 0.0
H385 H 0.27109 0.8586 0.10702 0.0
C386 C 0.24653 0.90455 0.14257 0.0
C387 C 0.22911 0.92735 0.15963 0.0
C388 C 0.2141 0.86926 0.12483 0.0
C389 C 0.17809 0.91223 0.15975 0.0
C390 C 0.14536 0.87656 0.14232 0.0
C391 C 0.13147 0.82262 0.10549 0.0
C392 C 0.15028 0.80341 0.08704 0.0
C393 C 0.16319 0.85567 0.12436 0.0
C394 C 0.20066 0.81623 0.08821 0.0
C395 C 0.23223 0.84873 0.10691 0.0
H396 H 0.36406 0.1989 0.24602 0.0
H397 H 0.23138 0.06284 0.26763 0.0
H398 H 0.21757 0.10675 0.30284 0.0
H399 H 0.24173 0.18539 0.32612 0.0
H400 H 0.37589 0.32013 0.30412 0.0
H401 H 0.39103 0.27491 0.27066 0.0
C402 C 0.33204 0.17882 0.25841 0.0
C403 C 0.29837 0.12797 0.25408 0.0
C404 C 0.32485 0.20401 0.27864 0.0
C405 C 0.2576 0.10216 0.27054 0.0
C406 C 0.24978 0.12723 0.29066 0.0
C407 C 0.27464 0.20457 0.31424 0.0
C408 C 0.3075 0.2561 0.31753 0.0
C409 C 0.283 0.17833 0.29477 0.0
C410 C 0.34992 0.28054 0.30195 0.0
C411 C 0.35854 0.25478 0.28272 0.0
H412 H 0.18275 0.38607 0.42218 0.0
H413 H 0.1493 0.23317 0.42695 0.0
H414 H 0.09145 0.21813 0.46221 0.0
H415 H 0.04624 0.2476 0.48966 0.0
H416 H 0.08078 0.40088 0.48382 0.0
H417 H 0.14301 0.41684 0.45128 0.0
C418 C 0.16292 0.34943 0.43096 0.0
C419 C 0.16972 0.31059 0.42179 0.0
C420 C 0.13012 0.34125 0.45113 0.0
C421 C 0.14438 0.26357 0.43361 0.0
C422 C 0.11136 0.25501 0.45375 0.0
C423 C 0.06814 0.28469 0.4816 0.0
C424 C 0.05882 0.32298 0.48908 0.0
C425 C 0.10343 0.29345 0.46246 0.0
C426 C 0.08715 0.37076 0.47835 0.0
C427 C 0.12259 0.37989 0.45964 0.0
H428 H 0.90822 0.16998 0.59572 0.0
H429 H 0.79876 0.21703 0.59021 0.0
H430 H 0.75312 0.16364 0.62608 0.0
H431 H 0.74065 0.09928 0.65685 0.0
H432 H 0.84564 0.04649 0.66088 0.0
H433 H 0.89714 0.10695 0.62816 0.0
C434 C 0.8746 0.16873 0.60255 0.0
C435 C 0.85672 0.19714 0.59024 0.0
C436 C 0.84781 0.13703 0.62297 0.0
C437 C 0.81305 0.19515 0.59921 0.0
C438 C 0.78697 0.16475 0.61978 0.0
C439 C 0.77528 0.10159 0.65094 0.0
C440 C 0.7894 0.06858 0.66132 0.0
C441 C 0.80355 0.13498 0.63153 0.0
C442 C 0.83408 0.07166 0.65322 0.0
C443 C 0.86335 0.10599 0.6344 0.0
H444 H 0.17089 0.28237 0.28585 0.0
H445 H 0.23705 0.44157 0.29507 0.0
H446 H 0.20538 0.44741 0.25299 0.0
H447 H 0.15751 0.40625 0.21376 0.0
H448 H 0.09593 0.24731 0.20464 0.0
H449 H 0.12777 0.24249 0.24637 0.0
C450 C 0.17809 0.31833 0.27873 0.0
C451 C 0.20551 0.36137 0.29362 0.0
C452 C 0.16099 0.32146 0.25444 0.0
C453 C 0.21561 0.40788 0.28396 0.0
C454 C 0.19764 0.4112 0.25992 0.0
C455 C 0.1515 0.37071 0.22086 0.0
C456 C 0.12426 0.32719 0.20614 0.0
C457 C 0.17021 0.36815 0.24497 0.0
C458 C 0.11684 0.28139 0.21554 0.0
C459 C 0.13481 0.2785 0.23947 0.0
H460 H 0.88188 0.17998 0.45546 0.0
H461 H 0.78858 0.24511 0.46667 0.0
H462 H 0.74375 0.20652 0.42695 0.0
H463 H 0.73246 0.15509 0.38854 0.0
H464 H 0.82986 0.09443 0.37733 0.0
H465 H 0.8718 0.13059 0.41752 0.0
C466 C 0.8515 0.1855 0.44933 0.0
C467 C 0.83829 0.21502 0.464 0.0
C468 C 0.82685 0.16422 0.42638 0.0
C469 C 0.7993 0.22238 0.45566 0.0
C470 C 0.77376 0.2004 0.43297 0.0
C471 C 0.76285 0.14988 0.39496 0.0
C472 C 0.77805 0.12217 0.37998 0.0
C473 C 0.78742 0.17141 0.41808 0.0
C474 C 0.81759 0.1158 0.38844 0.0
C475 C 0.84155 0.13634 0.41146 0.0
H476 H 0.65055 0.9076 0.60823 0.0
H477 H 0.632 0.78396 0.65442 0.0
H478 H 0.62187 0.73497 0.61594 0.0
H479 H 0.62339 0.72941 0.56912 0.0
H480 H 0.64815 0.8557 0.52329 0.0
H481 H 0.65046 0.90154 0.56168 0.0
C482 C 0.64374 0.86972 0.60988 0.0
C483 C 0.64192 0.84932 0.63408 0.0
C484 C 0.63929 0.84241 0.58773 0.0
C485 C 0.6336 0.80043 0.63596 0.0
C486 C 0.62785 0.77247 0.61398 0.0
C487 C 0.62869 0.76674 0.56757 0.0
C488 C 0.63551 0.7892 0.54348 0.0
C489 C 0.63135 0.79336 0.58976 0.0
C490 C 0.64292 0.83775 0.54168 0.0
C491 C 0.64428 0.86396 0.56359 0.0
H492 H 0.82949 0.59097 0.71426 0.0
H493 H 0.87281 0.74492 0.69984 0.0
H494 H 0.83379 0.74804 0.73952 0.0
H495 H 0.79212 0.70912 0.77942 0.0
H496 H 0.74701 0.55513 0.79441 0.0
H497 H 0.78192 0.54982 0.75336 0.0
C498 C 0.82984 0.62496 0.7197 0.0
C499 C 0.85433 0.66775 0.70423 0.0
C500 C 0.80748 0.62664 0.74271 0.0
C501 C 0.85441 0.71153 0.71146 0.0
C502 C 0.83224 0.71343 0.73419 0.0
C503 C 0.78983 0.67433 0.77369 0.0
C504 C 0.76766 0.63275 0.78997 0.0
C505 C 0.80955 0.67156 0.75015 0.0
C506 C 0.76415 0.58768 0.78217 0.0
C507 C 0.78413 0.58469 0.75875 0.0
H508 H 0.20916 0.90769 0.8919 0.0
H509 H 0.26444 0.80735 0.87596 0.0
H510 H 0.22751 0.76211 0.91573 0.0
H511 H 0.17695 0.74987 0.95442 0.0
H512 H 0.1242 0.85266 0.96996 0.0
H513 H 0.16303 0.89836 0.93102 0.0
C514 C 0.21316 0.87591 0.89712 0.0
C515 C 0.23901 0.86052 0.88098 0.0
C516 C 0.19236 0.85061 0.91996 0.0
C517 C 0.24452 0.81975 0.88811 0.0
C518 C 0.22339 0.79391 0.9108 0.0
C519 C 0.17432 0.78247 0.94932 0.0
C520 C 0.14754 0.79769 0.965 0.0
C521 C 0.1969 0.80882 0.9268 0.0
C522 C 0.14454 0.8401 0.95823 0.0
C523 C 0.16662 0.86624 0.93592 0.0
H524 H 0.27388 0.09723 0.11819 0.0
H525 H 0.43392 0.17187 0.12521 0.0
H526 H 0.44284 0.21077 0.0833 0.0
H527 H 0.40444 0.22518 0.04518 0.0
H528 H 0.24402 0.14653 0.03811 0.0
H529 H 0.23596 0.10711 0.07938 0.0
C530 C 0.31072 0.12214 0.11056 0.0
C531 C 0.35318 0.13232 0.1248 0.0
C532 C 0.31545 0.14337 0.08639 0.0
C533 C 0.40071 0.16379 0.11456 0.0
C534 C 0.40578 0.18596 0.09063 0.0
C535 C 0.36781 0.19906 0.05261 0.0
C536 C 0.32492 0.18899 0.03866 0.0
C537 C 0.36335 0.1762 0.07642 0.0
C538 C 0.27765 0.15491 0.04844 0.0
C539 C 0.27294 0.13249 0.07211 0.0
loop_
_geom_bond_atom_site_label_1
_geom_bond_atom_site_label_2
_geom_bond_distance
_geom_bond_site_symmetry_2
_ccdc_geom_bond_type
In0 O1 2.294 . S
In0 O2 2.326 . S
In0 O6 2.266 1_455 S
In0 O7 2.326 . S
In0 O8 2.266 . S
In0 O9 2.326 . S
In0 O11 2.294 . S
In0 O12 2.326 . S
O1 In0 2.294 . S
O1 C10 1.240 . S
O2 In0 2.326 . S
O2 C10 1.252 . S
C3 O6 1.252 . S
C3 O7 1.260 1_655 S
C4 O11 1.240 . S
C4 O12 1.252 . S
C5 O8 1.252 . S
C5 O9 1.260 . S
O6 In0 2.266 1_655 S
O6 C3 1.252 . S
O7 In0 2.326 . S
O7 C3 1.260 1_455 S
O8 In0 2.266 . S
O8 C5 1.252 . S
O9 In0 2.326 . S
O9 C5 1.260 . S
C10 O1 1.240 . S
C10 O2 1.252 . S
O11 In0 2.294 . S
O11 C4 1.240 . S
O12 In0 2.326 . S
O12 C4 1.252 . S
In13 O14 2.294 . S
In13 O15 2.326 . S
In13 O19 2.266 . S
In13 O20 2.326 . S
In13 O21 2.266 1_545 S
In13 O22 2.326 . S
In13 O24 2.294 . S
In13 O25 2.326 . S
O14 In13 2.294 . S
O14 C23 1.240 . S
O15 In13 2.326 . S
O15 C23 1.252 . S
C16 O19 1.252 . S
C16 O20 1.260 . S
C17 O24 1.240 . S
C17 O25 1.252 . S
C18 O21 1.252 . S
C18 O22 1.260 1_565 S
O19 In13 2.266 . S
O19 C16 1.252 . S
O20 In13 2.326 . S
O20 C16 1.260 . S
O21 In13 2.266 1_565 S
O21 C18 1.252 . S
O22 In13 2.326 . S
O22 C18 1.260 1_545 S
C23 O14 1.240 . S
C23 O15 1.252 . S
O24 In13 2.294 . S
O24 C17 1.240 . S
O25 In13 2.326 . S
O25 C17 1.252 . S
In26 O27 2.294 . S
In26 O28 2.326 . S
In26 O32 2.266 . S
In26 O33 2.326 . S
In26 O34 2.266 . S
In26 O35 2.326 . S
In26 O37 2.294 . S
In26 O38 2.326 . S
O27 In26 2.294 . S
O27 C36 1.240 . S
O28 In26 2.326 . S
O28 C36 1.252 . S
C29 O32 1.252 . S
C29 O33 1.260 . S
C30 O37 1.240 . S
C30 O38 1.252 . S
C31 O34 1.252 . S
C31 O35 1.260 . S
O32 In26 2.266 . S
O32 C29 1.252 . S
O33 In26 2.326 . S
O33 C29 1.260 . S
O34 In26 2.266 . S
O34 C31 1.252 . S
O35 In26 2.326 . S
O35 C31 1.260 . S
C36 O27 1.240 . S
C36 O28 1.252 . S
O37 In26 2.294 . S
O37 C30 1.240 . S
O38 In26 2.326 . S
O38 C30 1.252 . S
In39 O40 2.294 . S
In39 O41 2.326 . S
In39 O45 2.266 . S
In39 O46 2.326 . S
In39 O47 2.266 1_655 S
In39 O48 2.326 . S
In39 O50 2.294 . S
In39 O51 2.326 . S
O40 In39 2.294 . S
O40 C49 1.240 . S
O41 In39 2.326 . S
O41 C49 1.252 . S
C42 O45 1.252 . S
C42 O46 1.260 . S
C43 O50 1.240 . S
C43 O51 1.252 . S
C44 O47 1.252 . S
C44 O48 1.260 1_455 S
O45 In39 2.266 . S
O45 C42 1.252 . S
O46 In39 2.326 . S
O46 C42 1.260 . S
O47 In39 2.266 1_455 S
O47 C44 1.252 . S
O48 In39 2.326 . S
O48 C44 1.260 1_655 S
C49 O40 1.240 . S
C49 O41 1.252 . S
O50 In39 2.294 . S
O50 C43 1.240 . S
O51 In39 2.326 . S
O51 C43 1.252 . S
In52 O53 2.294 . S
In52 O54 2.326 . S
In52 O58 2.266 1_565 S
In52 O59 2.326 . S
In52 O60 2.266 . S
In52 O61 2.326 . S
In52 O63 2.294 . S
In52 O64 2.326 . S
O53 In52 2.294 . S
O53 C62 1.240 . S
O54 In52 2.326 . S
O54 C62 1.252 . S
C55 O58 1.252 . S
C55 O59 1.260 1_545 S
C56 O63 1.240 . S
C56 O64 1.252 . S
C57 O60 1.252 . S
C57 O61 1.260 . S
O58 In52 2.266 1_545 S
O58 C55 1.252 . S
O59 In52 2.326 . S
O59 C55 1.260 1_565 S
O60 In52 2.266 . S
O60 C57 1.252 . S
O61 In52 2.326 . S
O61 C57 1.260 . S
C62 O53 1.240 . S
C62 O54 1.252 . S
O63 In52 2.294 . S
O63 C56 1.240 . S
O64 In52 2.326 . S
O64 C56 1.252 . S
In65 O66 2.294 . S
In65 O67 2.326 . S
In65 O71 2.266 1_556 S
In65 O72 2.326 1_556 S
In65 O73 2.266 . S
In65 O74 2.326 1_556 S
In65 O76 2.294 . S
In65 O77 2.326 . S
O66 In65 2.294 . S
O66 C75 1.240 . S
O67 In65 2.326 . S
O67 C75 1.252 . S
C68 O71 1.252 . S
C68 O72 1.260 . S
C69 O76 1.240 . S
C69 O77 1.252 . S
C70 O73 1.252 1_554 S
C70 O74 1.260 . S
O71 In65 2.266 1_554 S
O71 C68 1.252 . S
O72 In65 2.326 1_554 S
O72 C68 1.260 . S
O73 In65 2.266 . S
O73 C70 1.252 1_556 S
O74 In65 2.326 1_554 S
O74 C70 1.260 . S
C75 O66 1.240 . S
C75 O67 1.252 . S
O76 In65 2.294 . S
O76 C69 1.240 . S
O77 In65 2.326 . S
O77 C69 1.252 . S
In78 O79 2.294 . S
In78 O80 2.326 . S
In78 O84 2.266 1_565 S
In78 O85 2.326 . S
In78 O86 2.266 . S
In78 O87 2.326 . S
In78 O89 2.294 . S
In78 O90 2.326 . S
O79 In78 2.294 . S
O79 C88 1.240 . S
O80 In78 2.326 . S
O80 C88 1.252 . S
C81 O84 1.252 . S
C81 O85 1.260 1_545 S
C82 O89 1.240 . S
C82 O90 1.252 . S
C83 O86 1.252 . S
C83 O87 1.260 . S
O84 In78 2.266 1_545 S
O84 C81 1.252 . S
O85 In78 2.326 . S
O85 C81 1.260 1_565 S
O86 In78 2.266 . S
O86 C83 1.252 . S
O87 In78 2.326 . S
O87 C83 1.260 . S
C88 O79 1.240 . S
C88 O80 1.252 . S
O89 In78 2.294 . S
O89 C82 1.240 . S
O90 In78 2.326 . S
O90 C82 1.252 . S
In91 O92 2.294 . S
In91 O93 2.326 . S
In91 O97 2.266 . S
In91 O98 2.326 . S
In91 O99 2.266 . S
In91 O100 2.326 . S
In91 O102 2.294 . S
In91 O103 2.326 . S
O92 In91 2.294 . S
O92 C101 1.240 . S
O93 In91 2.326 . S
O93 C101 1.252 . S
C94 O97 1.252 . S
C94 O98 1.260 . S
C95 O102 1.240 . S
C95 O103 1.252 . S
C96 O99 1.252 . S
C96 O100 1.260 . S
O97 In91 2.266 . S
O97 C94 1.252 . S
O98 In91 2.326 . S
O98 C94 1.260 . S
O99 In91 2.266 . S
O99 C96 1.252 . S
O100 In91 2.326 . S
O100 C96 1.260 . S
C101 O92 1.240 . S
C101 O93 1.252 . S
O102 In91 2.294 . S
O102 C95 1.240 . S
O103 In91 2.326 . S
O103 C95 1.252 . S
In104 O105 2.294 . S
In104 O106 2.326 . S
In104 O110 2.266 1_455 S
In104 O111 2.326 1_554 S
In104 O112 2.266 1_554 S
In104 O113 2.326 1_554 S
In104 O115 2.294 . S
In104 O116 2.326 . S
O105 In104 2.294 . S
O105 C114 1.240 . S
O106 In104 2.326 . S
O106 C114 1.252 . S
C107 O110 1.252 1_556 S
C107 O111 1.260 1_655 S
C108 O115 1.240 . S
C108 O116 1.252 . S
C109 O112 1.252 . S
C109 O113 1.260 . S
O110 In104 2.266 1_655 S
O110 C107 1.252 1_554 S
O111 In104 2.326 1_556 S
O111 C107 1.260 1_455 S
O112 In104 2.266 1_556 S
O112 C109 1.252 . S
O113 In104 2.326 1_556 S
O113 C109 1.260 . S
C114 O105 1.240 . S
C114 O106 1.252 . S
O115 In104 2.294 . S
O115 C108 1.240 . S
O116 In104 2.326 . S
O116 C108 1.252 . S
In117 O118 2.294 . S
In117 O119 2.326 . S
In117 O123 2.266 . S
In117 O124 2.326 . S
In117 O125 2.266 1_545 S
In117 O126 2.326 . S
In117 O128 2.294 . S
In117 O129 2.326 . S
O118 In117 2.294 . S
O118 C127 1.240 . S
O119 In117 2.326 . S
O119 C127 1.252 . S
C120 O123 1.252 . S
C120 O124 1.260 . S
C121 O128 1.240 . S
C121 O129 1.252 . S
C122 O125 1.252 . S
C122 O126 1.260 1_565 S
O123 In117 2.266 . S
O123 C120 1.252 . S
O124 In117 2.326 . S
O124 C120 1.260 . S
O125 In117 2.266 1_565 S
O125 C122 1.252 . S
O126 In117 2.326 . S
O126 C122 1.260 1_545 S
C127 O118 1.240 . S
C127 O119 1.252 . S
O128 In117 2.294 . S
O128 C121 1.240 . S
O129 In117 2.326 . S
O129 C121 1.252 . S
In130 O131 2.294 . S
In130 O132 2.326 . S
In130 O136 2.266 . S
In130 O137 2.326 . S
In130 O138 2.266 . S
In130 O139 2.326 . S
In130 O141 2.294 . S
In130 O142 2.326 . S
O131 In130 2.294 . S
O131 C140 1.240 . S
O132 In130 2.326 . S
O132 C140 1.252 . S
C133 O136 1.252 . S
C133 O137 1.260 . S
C134 O141 1.240 . S
C134 O142 1.252 . S
C135 O138 1.252 . S
C135 O139 1.260 . S
O136 In130 2.266 . S
O136 C133 1.252 . S
O137 In130 2.326 . S
O137 C133 1.260 . S
O138 In130 2.266 . S
O138 C135 1.252 . S
O139 In130 2.326 . S
O139 C135 1.260 . S
C140 O131 1.240 . S
C140 O132 1.252 . S
O141 In130 2.294 . S
O141 C134 1.240 . S
O142 In130 2.326 . S
O142 C134 1.252 . S
In143 O144 2.294 . S
In143 O145 2.326 . S
In143 O149 2.266 . S
In143 O150 2.326 . S
In143 O151 2.266 1_655 S
In143 O152 2.326 . S
In143 O154 2.294 . S
In143 O155 2.326 . S
O144 In143 2.294 . S
O144 C153 1.240 . S
O145 In143 2.326 . S
O145 C153 1.252 . S
C146 O149 1.252 . S
C146 O150 1.260 . S
C147 O154 1.240 . S
C147 O155 1.252 . S
C148 O151 1.252 . S
C148 O152 1.260 1_455 S
O149 In143 2.266 . S
O149 C146 1.252 . S
O150 In143 2.326 . S
O150 C146 1.260 . S
O151 In143 2.266 1_455 S
O151 C148 1.252 . S
O152 In143 2.326 . S
O152 C148 1.260 1_655 S
C153 O144 1.240 . S
C153 O145 1.252 . S
O154 In143 2.294 . S
O154 C147 1.240 . S
O155 In143 2.326 . S
O155 C147 1.252 . S
H156 C162 0.930 . S
H157 C165 0.930 . S
H158 C166 0.930 . S
H159 C167 0.930 . S
H160 C170 0.930 . S
H161 C171 0.930 . S
C162 H156 0.930 . S
C162 C163 1.355 . S
C162 C164 1.415 . S
C163 C162 1.355 . S
C163 C165 1.419 . S
C164 C162 1.415 . S
C164 C169 1.425 . S
C164 C171 1.409 . S
C165 H157 0.930 . S
C165 C163 1.419 . S
C165 C166 1.362 . S
C166 H158 0.930 . S
C166 C165 1.362 . S
C166 C169 1.409 . S
C167 H159 0.930 . S
C167 C168 1.355 . S
C167 C169 1.415 . S
C168 C167 1.355 . S
C168 C170 1.419 . S
C169 C164 1.425 . S
C169 C166 1.409 . S
C169 C167 1.415 . S
C170 H160 0.930 . S
C170 C168 1.419 . S
C170 C171 1.362 . S
C171 H161 0.930 . S
C171 C164 1.409 . S
C171 C170 1.362 . S
H172 C178 0.930 . S
H173 C181 0.930 1_565 S
H174 C182 0.930 . S
H175 C183 0.930 1_565 S
H176 C186 0.930 . S
H177 C187 0.930 . S
C178 H172 0.930 . S
C178 C179 1.355 . S
C178 C180 1.415 . S
C179 C178 1.355 . S
C179 C181 1.419 . S
C180 C178 1.415 . S
C180 C185 1.425 . S
C180 C187 1.409 . S
C181 H173 0.930 1_545 S
C181 C179 1.419 . S
C181 C182 1.362 1_545 S
C182 H174 0.930 . S
C182 C181 1.362 1_565 S
C182 C185 1.409 1_565 S
C183 H175 0.930 1_545 S
C183 C184 1.355 . S
C183 C185 1.415 . S
C184 C183 1.355 . S
C184 C186 1.419 . S
C185 C180 1.425 . S
C185 C182 1.409 1_545 S
C185 C183 1.415 . S
C186 H176 0.930 . S
C186 C184 1.419 . S
C186 C187 1.362 . S
C187 H177 0.930 . S
C187 C180 1.409 . S
C187 C186 1.362 . S
H188 C194 0.930 . S
H189 C197 0.930 . S
H190 C198 0.930 . S
H191 C199 0.930 . S
H192 C202 0.930 . S
H193 C203 0.930 . S
C194 H188 0.930 . S
C194 C195 1.355 . S
C194 C196 1.415 . S
C195 C194 1.355 . S
C195 C197 1.419 . S
C196 C194 1.415 . S
C196 C201 1.425 . S
C196 C203 1.409 . S
C197 H189 0.930 . S
C197 C195 1.419 . S
C197 C198 1.362 . S
C198 H190 0.930 . S
C198 C197 1.362 . S
C198 C201 1.409 . S
C199 H191 0.930 . S
C199 C200 1.355 . S
C199 C201 1.415 . S
C200 C199 1.355 . S
C200 C202 1.419 . S
C201 C196 1.425 . S
C201 C198 1.409 . S
C201 C199 1.415 . S
C202 H192 0.930 . S
C202 C200 1.419 . S
C202 C203 1.362 . S
C203 H193 0.930 . S
C203 C196 1.409 . S
C203 C202 1.362 . S
H204 C210 0.930 . S
H205 C213 0.930 . S
H206 C214 0.930 . S
H207 C215 0.930 . S
H208 C218 0.930 . S
H209 C219 0.930 . S
C210 H204 0.930 . S
C210 C211 1.355 . S
C210 C212 1.415 . S
C211 C210 1.355 . S
C211 C213 1.419 . S
C212 C210 1.415 . S
C212 C217 1.425 . S
C212 C219 1.409 . S
C213 H205 0.930 . S
C213 C211 1.419 . S
C213 C214 1.362 . S
C214 H206 0.930 . S
C214 C213 1.362 . S
C214 C217 1.409 . S
C215 H207 0.930 . S
C215 C216 1.355 . S
C215 C217 1.415 . S
C216 C215 1.355 . S
C216 C218 1.419 . S
C217 C212 1.425 . S
C217 C214 1.409 . S
C217 C215 1.415 . S
C218 H208 0.930 . S
C218 C216 1.419 . S
C218 C219 1.362 . S
C219 H209 0.930 . S
C219 C212 1.409 . S
C219 C218 1.362 . S
H220 C226 0.930 . S
H221 C229 0.930 . S
H222 C230 0.930 . S
H223 C231 0.930 . S
H224 C234 0.930 . S
H225 C235 0.930 . S
C226 H220 0.930 . S
C226 C227 1.355 . S
C226 C228 1.415 . S
C227 C226 1.355 . S
C227 C229 1.419 . S
C228 C226 1.415 . S
C228 C233 1.425 . S
C228 C235 1.409 . S
C229 H221 0.930 . S
C229 C227 1.419 . S
C229 C230 1.362 . S
C230 H222 0.930 . S
C230 C229 1.362 . S
C230 C233 1.409 . S
C231 H223 0.930 . S
C231 C232 1.355 . S
C231 C233 1.415 . S
C232 C231 1.355 . S
C232 C234 1.419 . S
C233 C228 1.425 . S
C233 C230 1.409 . S
C233 C231 1.415 . S
C234 H224 0.930 . S
C234 C232 1.419 . S
C234 C235 1.362 . S
C235 H225 0.930 . S
C235 C228 1.409 . S
C235 C234 1.362 . S
H236 C242 0.930 . S
H237 C245 0.930 . S
H238 C246 0.930 . S
H239 C247 0.930 . S
H240 C250 0.930 . S
H241 C251 0.930 . S
C242 H236 0.930 . S
C242 C243 1.355 . S
C242 C244 1.415 . S
C243 C242 1.355 . S
C243 C245 1.419 . S
C244 C242 1.415 . S
C244 C249 1.425 . S
C244 C251 1.409 . S
C245 H237 0.930 . S
C245 C243 1.419 . S
C245 C246 1.362 . S
C246 H238 0.930 . S
C246 C245 1.362 . S
C246 C249 1.409 . S
C247 H239 0.930 . S
C247 C248 1.355 . S
C247 C249 1.415 . S
C248 C247 1.355 . S
C248 C250 1.419 . S
C249 C244 1.425 . S
C249 C246 1.409 . S
C249 C247 1.415 . S
C250 H240 0.930 . S
C250 C248 1.419 . S
C250 C251 1.362 . S
C251 H241 0.930 . S
C251 C244 1.409 . S
C251 C250 1.362 . S
H252 C258 0.930 . S
H253 C261 0.930 . S
H254 C262 0.930 . S
H255 C263 0.930 . S
H256 C266 0.930 . S
H257 C267 0.930 . S
C258 H252 0.930 . S
C258 C259 1.355 . S
C258 C260 1.415 . S
C259 C258 1.355 . S
C259 C261 1.419 . S
C260 C258 1.415 . S
C260 C265 1.425 . S
C260 C267 1.409 . S
C261 H253 0.930 . S
C261 C259 1.419 . S
C261 C262 1.362 . S
C262 H254 0.930 . S
C262 C261 1.362 . S
C262 C265 1.409 . S
C263 H255 0.930 . S
C263 C264 1.355 . S
C263 C265 1.415 . S
C264 C263 1.355 . S
C264 C266 1.419 . S
C265 C260 1.425 . S
C265 C262 1.409 . S
C265 C263 1.415 . S
C266 H256 0.930 . S
C266 C264 1.419 . S
C266 C267 1.362 . S
C267 H257 0.930 . S
C267 C260 1.409 . S
C267 C266 1.362 . S
H268 C274 0.930 . S
H269 C277 0.930 . S
H270 C278 0.930 . S
H271 C279 0.930 . S
H272 C282 0.930 . S
H273 C283 0.930 . S
C274 H268 0.930 . S
C274 C275 1.355 . S
C274 C276 1.415 . S
C275 C274 1.355 . S
C275 C277 1.419 . S
C276 C274 1.415 . S
C276 C281 1.425 . S
C276 C283 1.409 . S
C277 H269 0.930 . S
C277 C275 1.419 . S
C277 C278 1.362 . S
C278 H270 0.930 . S
C278 C277 1.362 . S
C278 C281 1.409 . S
C279 H271 0.930 . S
C279 C280 1.355 . S
C279 C281 1.415 . S
C280 C279 1.355 . S
C280 C282 1.419 . S
C281 C276 1.425 . S
C281 C278 1.409 . S
C281 C279 1.415 . S
C282 H272 0.930 . S
C282 C280 1.419 . S
C282 C283 1.362 . S
C283 H273 0.930 . S
C283 C276 1.409 . S
C283 C282 1.362 . S
H284 C290 0.930 . S
H285 C293 0.930 . S
H286 C294 0.930 . S
H287 C295 0.930 . S
H288 C298 0.930 . S
H289 C299 0.930 . S
C290 H284 0.930 . S
C290 C291 1.355 . S
C290 C292 1.415 . S
C291 C290 1.355 . S
C291 C293 1.419 . S
C292 C290 1.415 . S
C292 C297 1.425 . S
C292 C299 1.409 . S
C293 H285 0.930 . S
C293 C291 1.419 . S
C293 C294 1.362 . S
C294 H286 0.930 . S
C294 C293 1.362 . S
C294 C297 1.409 . S
C295 H287 0.930 . S
C295 C296 1.355 . S
C295 C297 1.415 . S
C296 C295 1.355 . S
C296 C298 1.419 . S
C297 C292 1.425 . S
C297 C294 1.409 . S
C297 C295 1.415 . S
C298 H288 0.930 . S
C298 C296 1.419 . S
C298 C299 1.362 . S
C299 H289 0.930 . S
C299 C292 1.409 . S
C299 C298 1.362 . S
H300 C306 0.930 . S
H301 C309 0.930 . S
H302 C310 0.930 . S
H303 C311 0.930 . S
H304 C314 0.930 . S
H305 C315 0.930 . S
C306 H300 0.930 . S
C306 C307 1.355 . S
C306 C308 1.415 . S
C307 C306 1.355 . S
C307 C309 1.419 . S
C308 C306 1.415 . S
C308 C313 1.425 . S
C308 C315 1.409 . S
C309 H301 0.930 . S
C309 C307 1.419 . S
C309 C310 1.362 . S
C310 H302 0.930 . S
C310 C309 1.362 . S
C310 C313 1.409 . S
C311 H303 0.930 . S
C311 C312 1.355 . S
C311 C313 1.415 . S
C312 C311 1.355 . S
C312 C314 1.419 . S
C313 C308 1.425 . S
C313 C310 1.409 . S
C313 C311 1.415 . S
C314 H304 0.930 . S
C314 C312 1.419 . S
C314 C315 1.362 . S
C315 H305 0.930 . S
C315 C308 1.409 . S
C315 C314 1.362 . S
H316 C322 0.930 . S
H317 C325 0.930 . S
H318 C326 0.930 . S
H319 C327 0.930 . S
H320 C330 0.930 . S
H321 C331 0.930 . S
C322 H316 0.930 . S
C322 C323 1.355 . S
C322 C324 1.415 . S
C323 C322 1.355 . S
C323 C325 1.419 . S
C324 C322 1.415 . S
C324 C329 1.425 . S
C324 C331 1.409 . S
C325 H317 0.930 . S
C325 C323 1.419 . S
C325 C326 1.362 . S
C326 H318 0.930 . S
C326 C325 1.362 . S
C326 C329 1.409 . S
C327 H319 0.930 . S
C327 C328 1.355 . S
C327 C329 1.415 . S
C328 C327 1.355 . S
C328 C330 1.419 . S
C329 C324 1.425 . S
C329 C326 1.409 . S
C329 C327 1.415 . S
C330 H320 0.930 . S
C330 C328 1.419 . S
C330 C331 1.362 . S
C331 H321 0.930 . S
C331 C324 1.409 . S
C331 C330 1.362 . S
H332 C338 0.930 . S
H333 C341 0.930 . S
H334 C342 0.930 . S
H335 C343 0.930 . S
H336 C346 0.930 . S
H337 C347 0.930 . S
C338 H332 0.930 . S
C338 C339 1.355 . S
C338 C340 1.415 . S
C339 C338 1.355 . S
C339 C341 1.419 . S
C340 C338 1.415 . S
C340 C345 1.425 . S
C340 C347 1.409 . S
C341 H333 0.930 . S
C341 C339 1.419 . S
C341 C342 1.362 . S
C342 H334 0.930 . S
C342 C341 1.362 . S
C342 C345 1.409 . S
C343 H335 0.930 . S
C343 C344 1.355 . S
C343 C345 1.415 . S
C344 C343 1.355 . S
C344 C346 1.419 . S
C345 C340 1.425 . S
C345 C342 1.409 . S
C345 C343 1.415 . S
C346 H336 0.930 . S
C346 C344 1.419 . S
C346 C347 1.362 . S
C347 H337 0.930 . S
C347 C340 1.409 . S
C347 C346 1.362 . S
H348 C354 0.930 . S
H349 C357 0.930 . S
H350 C358 0.930 . S
H351 C359 0.930 . S
H352 C362 0.930 . S
H353 C363 0.930 . S
C354 H348 0.930 . S
C354 C355 1.355 . S
C354 C356 1.415 . S
C355 C354 1.355 . S
C355 C357 1.419 . S
C356 C354 1.415 . S
C356 C361 1.425 . S
C356 C363 1.409 . S
C357 H349 0.930 . S
C357 C355 1.419 . S
C357 C358 1.362 . S
C358 H350 0.930 . S
C358 C357 1.362 . S
C358 C361 1.409 . S
C359 H351 0.930 . S
C359 C360 1.355 . S
C359 C361 1.415 . S
C360 C359 1.355 . S
C360 C362 1.419 . S
C361 C356 1.425 . S
C361 C358 1.409 . S
C361 C359 1.415 . S
C362 H352 0.930 . S
C362 C360 1.419 . S
C362 C363 1.362 . S
C363 H353 0.930 . S
C363 C356 1.409 . S
C363 C362 1.362 . S
H364 C370 0.930 . S
H365 C373 0.930 . S
H366 C374 0.930 . S
H367 C375 0.930 . S
H368 C378 0.930 1_554 S
H369 C379 0.930 . S
C370 H364 0.930 . S
C370 C371 1.355 . S
C370 C372 1.415 . S
C371 C370 1.355 . S
C371 C373 1.419 . S
C372 C370 1.415 . S
C372 C377 1.425 . S
C372 C379 1.409 . S
C373 H365 0.930 . S
C373 C371 1.419 . S
C373 C374 1.362 . S
C374 H366 0.930 . S
C374 C373 1.362 . S
C374 C377 1.409 . S
C375 H367 0.930 . S
C375 C376 1.355 . S
C375 C377 1.415 . S
C376 C375 1.355 . S
C376 C378 1.419 . S
C377 C372 1.425 . S
C377 C374 1.409 . S
C377 C375 1.415 . S
C378 H368 0.930 1_556 S
C378 C376 1.419 . S
C378 C379 1.362 . S
C379 H369 0.930 . S
C379 C372 1.409 . S
C379 C378 1.362 . S
H380 C386 0.930 . S
H381 C389 0.930 . S
H382 C390 0.930 . S
H383 C391 0.930 . S
H384 C394 0.930 . S
H385 C395 0.930 . S
C386 H380 0.930 . S
C386 C387 1.355 . S
C386 C388 1.415 . S
C387 C386 1.355 . S
C387 C389 1.419 . S
C388 C386 1.415 . S
C388 C393 1.425 . S
C388 C395 1.409 . S
C389 H381 0.930 . S
C389 C387 1.419 . S
C389 C390 1.362 . S
C390 H382 0.930 . S
C390 C389 1.362 . S
C390 C393 1.409 . S
C391 H383 0.930 . S
C391 C392 1.355 . S
C391 C393 1.415 . S
C392 C391 1.355 . S
C392 C394 1.419 . S
C393 C388 1.425 . S
C393 C390 1.409 . S
C393 C391 1.415 . S
C394 H384 0.930 . S
C394 C392 1.419 . S
C394 C395 1.362 . S
C395 H385 0.930 . S
C395 C388 1.409 . S
C395 C394 1.362 . S
H396 C402 0.930 . S
H397 C405 0.930 . S
H398 C406 0.930 . S
H399 C407 0.930 . S
H400 C410 0.930 . S
H401 C411 0.930 . S
C402 H396 0.930 . S
C402 C403 1.355 . S
C402 C404 1.415 . S
C403 C402 1.355 . S
C403 C405 1.419 . S
C404 C402 1.415 . S
C404 C409 1.425 . S
C404 C411 1.409 . S
C405 H397 0.930 . S
C405 C403 1.419 . S
C405 C406 1.362 . S
C406 H398 0.930 . S
C406 C405 1.362 . S
C406 C409 1.409 . S
C407 H399 0.930 . S
C407 C408 1.355 . S
C407 C409 1.415 . S
C408 C407 1.355 . S
C408 C410 1.419 . S
C409 C404 1.425 . S
C409 C406 1.409 . S
C409 C407 1.415 . S
C410 H400 0.930 . S
C410 C408 1.419 . S
C410 C411 1.362 . S
C411 H401 0.930 . S
C411 C404 1.409 . S
C411 C410 1.362 . S
H412 C418 0.930 . S
H413 C421 0.930 . S
H414 C422 0.930 . S
H415 C423 0.930 . S
H416 C426 0.941 . S
H417 C427 0.930 . S
C418 H412 0.930 . S
C418 C419 1.355 . S
C418 C420 1.415 . S
C419 C418 1.355 . S
C419 C421 1.419 . S
C420 C418 1.415 . S
C420 C425 1.425 . S
C420 C427 1.409 . S
C421 H413 0.930 . S
C421 C419 1.419 . S
C421 C422 1.362 . S
C422 H414 0.930 . S
C422 C421 1.362 . S
C422 C425 1.409 . S
C423 H415 0.930 . S
C423 C424 1.355 . S
C423 C425 1.415 . S
C424 C423 1.355 . S
C424 C426 1.419 . S
C425 C420 1.425 . S
C425 C422 1.409 . S
C425 C423 1.415 . S
C426 H416 0.941 . S
C426 C424 1.419 . S
C426 C427 1.362 . S
C427 H417 0.930 . S
C427 C420 1.409 . S
C427 C426 1.362 . S
H428 C434 0.930 . S
H429 C437 0.930 . S
H430 C438 0.930 . S
H431 C439 0.930 . S
H432 C442 0.930 . S
H433 C443 0.930 . S
C434 H428 0.930 . S
C434 C435 1.355 . S
C434 C436 1.415 . S
C435 C434 1.355 . S
C435 C437 1.419 . S
C436 C434 1.415 . S
C436 C441 1.425 . S
C436 C443 1.409 . S
C437 H429 0.930 . S
C437 C435 1.419 . S
C437 C438 1.362 . S
C438 H430 0.930 . S
C438 C437 1.362 . S
C438 C441 1.409 . S
C439 H431 0.930 . S
C439 C440 1.355 . S
C439 C441 1.415 . S
C440 C439 1.355 . S
C440 C442 1.419 . S
C441 C436 1.425 . S
C441 C438 1.409 . S
C441 C439 1.415 . S
C442 H432 0.930 . S
C442 C440 1.419 . S
C442 C443 1.362 . S
C443 H433 0.930 . S
C443 C436 1.409 . S
C443 C442 1.362 . S
H444 C450 0.930 . S
H445 C453 0.930 . S
H446 C454 0.930 . S
H447 C455 0.930 . S
H448 C458 0.930 . S
H449 C459 0.930 . S
C450 H444 0.930 . S
C450 C451 1.355 . S
C450 C452 1.415 . S
C451 C450 1.355 . S
C451 C453 1.419 . S
C452 C450 1.415 . S
C452 C457 1.425 . S
C452 C459 1.409 . S
C453 H445 0.930 . S
C453 C451 1.419 . S
C453 C454 1.362 . S
C454 H446 0.930 . S
C454 C453 1.362 . S
C454 C457 1.409 . S
C455 H447 0.930 . S
C455 C456 1.355 . S
C455 C457 1.415 . S
C456 C455 1.355 . S
C456 C458 1.419 . S
C457 C452 1.425 . S
C457 C454 1.409 . S
C457 C455 1.415 . S
C458 H448 0.930 . S
C458 C456 1.419 . S
C458 C459 1.362 . S
C459 H449 0.930 . S
C459 C452 1.409 . S
C459 C458 1.362 . S
H460 C466 0.930 . S
H461 C469 0.930 . S
H462 C470 0.930 . S
H463 C471 0.930 . S
H464 C474 0.930 . S
H465 C475 0.930 . S
C466 H460 0.930 . S
C466 C467 1.355 . S
C466 C468 1.415 . S
C467 C466 1.355 . S
C467 C469 1.419 . S
C468 C466 1.415 . S
C468 C473 1.425 . S
C468 C475 1.409 . S
C469 H461 0.930 . S
C469 C467 1.419 . S
C469 C470 1.362 . S
C470 H462 0.930 . S
C470 C469 1.362 . S
C470 C473 1.409 . S
C471 H463 0.930 . S
C471 C472 1.355 . S
C471 C473 1.415 . S
C472 C471 1.355 . S
C472 C474 1.419 . S
C473 C468 1.425 . S
C473 C470 1.409 . S
C473 C471 1.415 . S
C474 H464 0.930 . S
C474 C472 1.419 . S
C474 C475 1.362 . S
C475 H465 0.930 . S
C475 C468 1.409 . S
C475 C474 1.362 . S
H476 C482 0.930 . S
H477 C485 0.930 . S
H478 C486 0.930 . S
H479 C487 0.930 . S
H480 C490 0.930 . S
H481 C491 0.930 . S
C482 H476 0.930 . S
C482 C483 1.355 . S
C482 C484 1.415 . S
C483 C482 1.355 . S
C483 C485 1.419 . S
C484 C482 1.415 . S
C484 C489 1.425 . S
C484 C491 1.409 . S
C485 H477 0.930 . S
C485 C483 1.419 . S
C485 C486 1.362 . S
C486 H478 0.930 . S
C486 C485 1.362 . S
C486 C489 1.409 . S
C487 H479 0.930 . S
C487 C488 1.355 . S
C487 C489 1.415 . S
C488 C487 1.355 . S
C488 C490 1.419 . S
C489 C484 1.425 . S
C489 C486 1.409 . S
C489 C487 1.415 . S
C490 H480 0.930 . S
C490 C488 1.419 . S
C490 C491 1.362 . S
C491 H481 0.930 . S
C491 C484 1.409 . S
C491 C490 1.362 . S
H492 C498 0.930 . S
H493 C501 0.930 . S
H494 C502 0.930 . S
H495 C503 0.930 . S
H496 C506 0.930 . S
H497 C507 0.930 . S
C498 H492 0.930 . S
C498 C499 1.355 . S
C498 C500 1.415 . S
C499 C498 1.355 . S
C499 C501 1.419 . S
C500 C498 1.415 . S
C500 C505 1.425 . S
C500 C507 1.409 . S
C501 H493 0.930 . S
C501 C499 1.419 . S
C501 C502 1.362 . S
C502 H494 0.930 . S
C502 C501 1.362 . S
C502 C505 1.409 . S
C503 H495 0.930 . S
C503 C504 1.355 . S
C503 C505 1.415 . S
C504 C503 1.355 . S
C504 C506 1.419 . S
C505 C500 1.425 . S
C505 C502 1.409 . S
C505 C503 1.415 . S
C506 H496 0.930 . S
C506 C504 1.419 . S
C506 C507 1.362 . S
C507 H497 0.930 . S
C507 C500 1.409 . S
C507 C506 1.362 . S
H508 C514 0.930 . S
H509 C517 0.930 . S
H510 C518 0.930 . S
H511 C519 0.930 . S
H512 C522 0.930 . S
H513 C523 0.930 . S
C514 H508 0.930 . S
C514 C515 1.355 . S
C514 C516 1.415 . S
C515 C514 1.355 . S
C515 C517 1.419 . S
C516 C514 1.415 . S
C516 C521 1.425 . S
C516 C523 1.409 . S
C517 H509 0.930 . S
C517 C515 1.419 . S
C517 C518 1.362 . S
C518 H510 0.930 . S
C518 C517 1.362 . S
C518 C521 1.409 . S
C519 H511 0.930 . S
C519 C520 1.355 . S
C519 C521 1.415 . S
C520 C519 1.355 . S
C520 C522 1.419 . S
C521 C516 1.425 . S
C521 C518 1.409 . S
C521 C519 1.415 . S
C522 H512 0.930 . S
C522 C520 1.419 . S
C522 C523 1.362 . S
C523 H513 0.930 . S
C523 C516 1.409 . S
C523 C522 1.362 . S
H524 C530 0.930 . S
H525 C533 0.930 . S
H526 C534 0.930 . S
H527 C535 0.930 . S
H528 C538 0.930 . S
H529 C539 0.930 . S
C530 H524 0.930 . S
C530 C531 1.355 . S
C530 C532 1.415 . S
C531 C530 1.355 . S
C531 C533 1.419 . S
C532 C530 1.415 . S
C532 C537 1.425 . S
C532 C539 1.409 . S
C533 H525 0.930 . S
C533 C531 1.419 . S
C533 C534 1.362 . S
C534 H526 0.930 . S
C534 C533 1.362 . S
C534 C537 1.409 . S
C535 H527 0.930 . S
C535 C536 1.355 . S
C535 C537 1.415 . S
C536 C535 1.355 . S
C536 C538 1.419 . S
C537 C532 1.425 . S
C537 C534 1.409 . S
C537 C535 1.415 . S
C538 H528 0.930 . S
C538 C536 1.419 . S
C538 C539 1.362 . S
C539 H529 0.930 . S
C539 C532 1.409 . S
C539 C538 1.362 . S
C163 C108 1.346 . S
C168 C4 1.357 . S
C179 C23 1.359 . S
C184 C127 1.345 . S
C195 C36 1.345 . S
C200 C134 1.363 . S
C211 C49 1.348 . S
C216 C153 1.355 . S
C227 C82 1.345 . S
C232 C56 1.360 . S
C243 C75 1.346 . S
C248 C95 1.356 . S
C259 C10 1.545 . S
C264 C70 1.505 . S
C275 C17 1.533 . S
C280 C3 1.518 . S
C291 C30 1.550 . S
C296 C18 1.515 . S
C307 C31 1.531 . S
C312 C43 1.551 . S
C323 C44 1.503 . S
C328 C62 1.542 . S
C339 C55 1.547 . S
C344 C69 1.542 . S
C355 C94 1.547 . S
C360 C88 1.542 . S
C371 C101 1.535 . S
C376 C107 1.540 . S
C387 C122 1.534 . S
C392 C114 1.533 . S
C403 C121 1.547 . S
C408 C133 1.507 . S
C419 C140 1.542 . S
C424 C148 1.503 . S
C435 C147 1.535 . S
C440 C81 1.509 . S
C451 C135 1.322 . S
C456 C5 1.311 . S
C467 C146 1.323 . S
C472 C16 1.312 . S
C483 C83 1.324 . S
C488 C29 1.320 . S
C499 C42 1.319 . S
C504 C96 1.324 . S
C515 C57 1.325 . S
C520 C109 1.317 . S
C531 C120 1.322 . S
C536 C68 1.311 . S
