# Generated by pormake.
# Topology uox, (4)-cn, num edge types: 1
# Building blocks:
#     Node 0, Type 0, BuildingBlock: KUFVIS_clean_sbu_0, # of connection points: 4
#     Node 1, Type 0, BuildingBlock: KUFVIS_clean_sbu_0, # of connection points: 4
#     Node 2, Type 0, BuildingBlock: KUFVIS_clean_sbu_0, # of connection points: 4
#     Node 3, Type 0, BuildingBlock: KUFVIS_clean_sbu_0, # of connection points: 4
#     Node 4, Type 0, BuildingBlock: KUFVIS_clean_sbu_0, # of connection points: 4
#     Node 5, Type 0, BuildingBlock: KUFVIS_clean_sbu_0, # of connection points: 4
#     Node 6, Type 0, BuildingBlock: KUFVIS_clean_sbu_0, # of connection points: 4
#     Node 7, Type 0, BuildingBlock: KUFVIS_clean_sbu_0, # of connection points: 4
#     Node 8, Type 0, BuildingBlock: KUFVIS_clean_sbu_0, # of connection points: 4
#     Node 9, Type 0, BuildingBlock: KUFVIS_clean_sbu_0, # of connection points: 4
#     Node 10, Type 0, BuildingBlock: KUFVIS_clean_sbu_0, # of connection points: 4
#     Node 11, Type 0, BuildingBlock: KUFVIS_clean_sbu_0, # of connection points: 4
#     Node 12, Type 0, BuildingBlock: KUFVIS_clean_sbu_0, # of connection points: 4
#     Node 13, Type 0, BuildingBlock: KUFVIS_clean_sbu_0, # of connection points: 4
#     Node 14, Type 0, BuildingBlock: KUFVIS_clean_sbu_0, # of connection points: 4
#     Node 15, Type 0, BuildingBlock: KUFVIS_clean_sbu_0, # of connection points: 4
#     Node 16, Type 0, BuildingBlock: KUFVIS_clean_sbu_0, # of connection points: 4
#     Node 17, Type 0, BuildingBlock: KUFVIS_clean_sbu_0, # of connection points: 4
#     Node 18, Type 0, BuildingBlock: KUFVIS_clean_sbu_0, # of connection points: 4
#     Node 19, Type 0, BuildingBlock: KUFVIS_clean_sbu_0, # of connection points: 4
#     Node 20, Type 0, BuildingBlock: KUFVIS_clean_sbu_0, # of connection points: 4
#     Node 21, Type 0, BuildingBlock: KUFVIS_clean_sbu_0, # of connection points: 4
#     Node 22, Type 0, BuildingBlock: KUFVIS_clean_sbu_0, # of connection points: 4
#     Node 23, Type 0, BuildingBlock: KUFVIS_clean_sbu_0, # of connection points: 4
#     Node 24, Type 0, BuildingBlock: KUFVIS_clean_sbu_0, # of connection points: 4
#     Node 25, Type 0, BuildingBlock: KUFVIS_clean_sbu_0, # of connection points: 4
#     Node 26, Type 0, BuildingBlock: KUFVIS_clean_sbu_0, # of connection points: 4
#     Node 27, Type 0, BuildingBlock: KUFVIS_clean_sbu_0, # of connection points: 4
#     Node 28, Type 0, BuildingBlock: KUFVIS_clean_sbu_0, # of connection points: 4
#     Node 29, Type 0, BuildingBlock: KUFVIS_clean_sbu_0, # of connection points: 4
#     Node 30, Type 0, BuildingBlock: KUFVIS_clean_sbu_0, # of connection points: 4
#     Node 31, Type 0, BuildingBlock: KUFVIS_clean_sbu_0, # of connection points: 4
#     Edge 32, Type (0, 0), BuildingBlock: EZIPEK_clean_linker_0, # of connection points: 2
#     Edge 33, Type (0, 0), BuildingBlock: EZIPEK_clean_linker_0, # of connection points: 2
#     Edge 34, Type (0, 0), BuildingBlock: EZIPEK_clean_linker_0, # of connection points: 2
#     Edge 35, Type (0, 0), BuildingBlock: EZIPEK_clean_linker_0, # of connection points: 2
#     Edge 36, Type (0, 0), BuildingBlock: EZIPEK_clean_linker_0, # of connection points: 2
#     Edge 37, Type (0, 0), BuildingBlock: EZIPEK_clean_linker_0, # of connection points: 2
#     Edge 38, Type (0, 0), BuildingBlock: EZIPEK_clean_linker_0, # of connection points: 2
#     Edge 39, Type (0, 0), BuildingBlock: EZIPEK_clean_linker_0, # of connection points: 2
#     Edge 40, Type (0, 0), BuildingBlock: EZIPEK_clean_linker_0, # of connection points: 2
#     Edge 41, Type (0, 0), BuildingBlock: EZIPEK_clean_linker_0, # of connection points: 2
#     Edge 42, Type (0, 0), BuildingBlock: EZIPEK_clean_linker_0, # of connection points: 2
#     Edge 43, Type (0, 0), BuildingBlock: EZIPEK_clean_linker_0, # of connection points: 2
#     Edge 44, Type (0, 0), BuildingBlock: EZIPEK_clean_linker_0, # of connection points: 2
#     Edge 45, Type (0, 0), BuildingBlock: EZIPEK_clean_linker_0, # of connection points: 2
#     Edge 46, Type (0, 0), BuildingBlock: EZIPEK_clean_linker_0, # of connection points: 2
#     Edge 47, Type (0, 0), BuildingBlock: EZIPEK_clean_linker_0, # of connection points: 2
#     Edge 48, Type (0, 0), BuildingBlock: EZIPEK_clean_linker_0, # of connection points: 2
#     Edge 49, Type (0, 0), BuildingBlock: EZIPEK_clean_linker_0, # of connection points: 2
#     Edge 50, Type (0, 0), BuildingBlock: EZIPEK_clean_linker_0, # of connection points: 2
#     Edge 51, Type (0, 0), BuildingBlock: EZIPEK_clean_linker_0, # of connection points: 2
#     Edge 52, Type (0, 0), BuildingBlock: EZIPEK_clean_linker_0, # of connection points: 2
#     Edge 53, Type (0, 0), BuildingBlock: EZIPEK_clean_linker_0, # of connection points: 2
#     Edge 54, Type (0, 0), BuildingBlock: EZIPEK_clean_linker_0, # of connection points: 2
#     Edge 55, Type (0, 0), BuildingBlock: EZIPEK_clean_linker_0, # of connection points: 2
#     Edge 56, Type (0, 0), BuildingBlock: EZIPEK_clean_linker_0, # of connection points: 2
#     Edge 57, Type (0, 0), BuildingBlock: EZIPEK_clean_linker_0, # of connection points: 2
#     Edge 58, Type (0, 0), BuildingBlock: EZIPEK_clean_linker_0, # of connection points: 2
#     Edge 59, Type (0, 0), BuildingBlock: EZIPEK_clean_linker_0, # of connection points: 2
#     Edge 60, Type (0, 0), BuildingBlock: EZIPEK_clean_linker_0, # of connection points: 2
#     Edge 61, Type (0, 0), BuildingBlock: EZIPEK_clean_linker_0, # of connection points: 2
#     Edge 62, Type (0, 0), BuildingBlock: EZIPEK_clean_linker_0, # of connection points: 2
#     Edge 63, Type (0, 0), BuildingBlock: EZIPEK_clean_linker_0, # of connection points: 2
#     Edge 64, Type (0, 0), BuildingBlock: EZIPEK_clean_linker_0, # of connection points: 2
#     Edge 65, Type (0, 0), BuildingBlock: EZIPEK_clean_linker_0, # of connection points: 2
#     Edge 66, Type (0, 0), BuildingBlock: EZIPEK_clean_linker_0, # of connection points: 2
#     Edge 67, Type (0, 0), BuildingBlock: EZIPEK_clean_linker_0, # of connection points: 2
#     Edge 68, Type (0, 0), BuildingBlock: EZIPEK_clean_linker_0, # of connection points: 2
#     Edge 69, Type (0, 0), BuildingBlock: EZIPEK_clean_linker_0, # of connection points: 2
#     Edge 70, Type (0, 0), BuildingBlock: EZIPEK_clean_linker_0, # of connection points: 2
#     Edge 71, Type (0, 0), BuildingBlock: EZIPEK_clean_linker_0, # of connection points: 2
#     Edge 72, Type (0, 0), BuildingBlock: EZIPEK_clean_linker_0, # of connection points: 2
#     Edge 73, Type (0, 0), BuildingBlock: EZIPEK_clean_linker_0, # of connection points: 2
#     Edge 74, Type (0, 0), BuildingBlock: EZIPEK_clean_linker_0, # of connection points: 2
#     Edge 75, Type (0, 0), BuildingBlock: EZIPEK_clean_linker_0, # of connection points: 2
#     Edge 76, Type (0, 0), BuildingBlock: EZIPEK_clean_linker_0, # of connection points: 2
#     Edge 77, Type (0, 0), BuildingBlock: EZIPEK_clean_linker_0, # of connection points: 2
#     Edge 78, Type (0, 0), BuildingBlock: EZIPEK_clean_linker_0, # of connection points: 2
#     Edge 79, Type (0, 0), BuildingBlock: EZIPEK_clean_linker_0, # of connection points: 2
#     Edge 80, Type (0, 0), BuildingBlock: EZIPEK_clean_linker_0, # of connection points: 2
#     Edge 81, Type (0, 0), BuildingBlock: EZIPEK_clean_linker_0, # of connection points: 2
#     Edge 82, Type (0, 0), BuildingBlock: EZIPEK_clean_linker_0, # of connection points: 2
#     Edge 83, Type (0, 0), BuildingBlock: EZIPEK_clean_linker_0, # of connection points: 2
#     Edge 84, Type (0, 0), BuildingBlock: EZIPEK_clean_linker_0, # of connection points: 2
#     Edge 85, Type (0, 0), BuildingBlock: EZIPEK_clean_linker_0, # of connection points: 2
#     Edge 86, Type (0, 0), BuildingBlock: EZIPEK_clean_linker_0, # of connection points: 2
#     Edge 87, Type (0, 0), BuildingBlock: EZIPEK_clean_linker_0, # of connection points: 2
#     Edge 88, Type (0, 0), BuildingBlock: EZIPEK_clean_linker_0, # of connection points: 2
#     Edge 89, Type (0, 0), BuildingBlock: EZIPEK_clean_linker_0, # of connection points: 2
#     Edge 90, Type (0, 0), BuildingBlock: EZIPEK_clean_linker_0, # of connection points: 2
#     Edge 91, Type (0, 0), BuildingBlock: EZIPEK_clean_linker_0, # of connection points: 2
#     Edge 92, Type (0, 0), BuildingBlock: EZIPEK_clean_linker_0, # of connection points: 2
#     Edge 93, Type (0, 0), BuildingBlock: EZIPEK_clean_linker_0, # of connection points: 2
#     Edge 94, Type (0, 0), BuildingBlock: EZIPEK_clean_linker_0, # of connection points: 2
#     Edge 95, Type (0, 0), BuildingBlock: EZIPEK_clean_linker_0, # of connection points: 2
# Relax obj value: 0.067
# Max RMSD: 0.100
# Mean RMSD: 0.100
data_MOF--net-uox--node1-KUFVIS_clean_sbu_0--edge1-EZIPEK_clean_linker_0
_symmetry_space_group_name_H-M    P1
_symmetry_Int_Tables_number       1
_symmetry_cell_setting            triclinic
loop_
_symmetry_equiv_pos_as_xyz
'x, y, z'
_cell_length_a     33.373949
_cell_length_b     33.34101
_cell_length_c     56.745485
_cell_angle_alpha  89.901598
_cell_angle_beta   90.083348
_cell_angle_gamma 90.007177
loop_
_atom_site_label
_atom_site_type_symbol
_atom_site_fract_x
_atom_site_fract_y
_atom_site_fract_z
_atom_type_partial_charge
Mn0 Mn 0.41806 0.07418 0.15908 0.0
Mn1 Mn 0.46603 0.98687 0.1515 0.0
C2 C 0.48625 0.07515 0.15179 0.0
C3 C 0.3831 0.12849 0.1421 0.0
C4 C 0.43518 0.01602 0.19925 0.0
O5 O 0.373 0.03383 0.15312 0.0
O6 O 0.40949 0.98043 0.14107 0.0
C7 C 0.46495 0.97569 0.0998 0.0
N8 N 0.48598 0.98016 0.12022 0.0
C9 C 0.54858 0.97008 0.1001 0.0
C10 C 0.52761 0.96561 0.07884 0.0
C11 C 0.48562 0.96853 0.07869 0.0
C12 C 0.52637 0.97735 0.12057 0.0
H13 H 0.43266 0.97751 0.09965 0.0
C14 C 0.37616 0.99884 0.14408 0.0
O15 O 0.3808 0.12029 0.16446 0.0
O16 O 0.40328 0.10313 0.12965 0.0
N17 N 0.52119 0.99039 0.16072 0.0
C18 C 0.5371 0.99781 0.1824 0.0
C19 C 0.57887 0.99778 0.18536 0.0
C20 C 0.60389 0.98991 0.16605 0.0
C21 C 0.58688 0.98237 0.14389 0.0
C22 C 0.54504 0.983 0.14198 0.0
H23 H 0.51813 1.0043 0.19727 0.0
O24 O 0.4684 0.10571 0.16113 0.0
O25 O 0.46321 0.04479 0.1467 0.0
O26 O 0.42695 0.05188 0.19275 0.0
O27 O 0.44688 0.98983 0.1845 0.0
C28 C 0.60983 0.97458 0.12359 0.0
C29 C 0.59068 0.96817 0.10174 0.0
H30 H 0.54345 0.96012 0.06251 0.0
H31 H 0.46921 0.96509 0.06235 0.0
H32 H 0.59175 1.00391 0.2025 0.0
H33 H 0.63611 0.98995 0.1684 0.0
H34 H 0.64224 0.97374 0.12454 0.0
H35 H 0.60865 0.96256 0.08621 0.0
Mn36 Mn 0.19045 0.16074 0.41472 0.0
Mn37 Mn 0.27351 0.2186 0.41468 0.0
C38 C 0.18458 0.22985 0.40924 0.0
C39 C 0.14163 0.12017 0.39637 0.0
C40 C 0.23892 0.18073 0.4591 0.0
O41 O 0.23522 0.12075 0.40766 0.0
O42 O 0.2881 0.16303 0.40484 0.0
C43 C 0.29535 0.21875 0.36411 0.0
N44 N 0.28464 0.23915 0.38391 0.0
C45 C 0.29312 0.30262 0.36429 0.0
C46 C 0.30426 0.28229 0.34371 0.0
C47 C 0.30517 0.24017 0.34359 0.0
C48 C 0.28337 0.27967 0.38415 0.0
H49 H 0.2965 0.18639 0.36397 0.0
C50 C 0.27192 0.12827 0.40286 0.0
O51 O 0.15029 0.11754 0.41853 0.0
O52 O 0.1622 0.14653 0.38456 0.0
N53 N 0.2625 0.27309 0.42307 0.0
C54 C 0.24975 0.28812 0.44407 0.0
C55 C 0.24493 0.32971 0.44668 0.0
C56 C 0.25389 0.35547 0.4278 0.0
C57 C 0.26752 0.33936 0.40646 0.0
C58 C 0.27127 0.29763 0.40481 0.0
H59 H 0.24318 0.26855 0.45871 0.0
O60 O 0.15492 0.20889 0.4175 0.0
O61 O 0.21738 0.20979 0.40536 0.0
O62 O 0.20832 0.1654 0.44922 0.0
O63 O 0.26563 0.2002 0.44779 0.0
C64 C 0.27749 0.36309 0.38675 0.0
C65 C 0.29062 0.34475 0.36575 0.0
H66 H 0.31186 0.2987 0.32784 0.0
H67 H 0.31362 0.22425 0.32775 0.0
H68 H 0.23449 0.34189 0.46323 0.0
H69 H 0.25026 0.38755 0.42989 0.0
H70 H 0.27503 0.39545 0.38752 0.0
H71 H 0.29794 0.36328 0.35066 0.0
Mn72 Mn 0.09954 0.93515 0.66187 0.0
Mn73 Mn 0.04392 0.01958 0.66502 0.0
C74 C 0.03057 0.93188 0.65584 0.0
C75 C 0.13578 0.88605 0.64085 0.0
C76 C 0.07945 0.97795 0.70812 0.0
O77 O 0.14122 0.97969 0.65749 0.0
O78 O 0.10007 0.03373 0.65628 0.0
C79 C 0.04554 0.04707 0.61538 0.0
N80 N 0.0244 0.03488 0.63462 0.0
C81 C 0.96173 0.04544 0.61452 0.0
C82 C 0.98283 0.05813 0.5945 0.0
C83 C 0.02491 0.05881 0.59491 0.0
C84 C 0.98391 0.03394 0.63438 0.0
H85 H 0.07788 0.04781 0.61561 0.0
C86 C 0.13462 0.01718 0.65423 0.0
O87 O 0.13964 0.89103 0.66341 0.0
O88 O 0.1133 0.91222 0.63031 0.0
N89 N 0.98902 0.0091 0.67261 0.0
C90 C 0.9732 0.99472 0.69307 0.0
C91 C 0.93151 0.99034 0.69513 0.0
C92 C 0.90649 1.00133 0.67627 0.0
C93 C 0.9234 0.01667 0.65553 0.0
C94 C 0.96518 0.02009 0.65444 0.0
H95 H 0.99223 0.98637 0.70766 0.0
O96 O 0.0507 0.90071 0.66267 0.0
O97 O 0.05139 0.96467 0.65343 0.0
O98 O 0.09422 0.94807 0.69718 0.0
O99 O 0.0615 1.00681 0.69772 0.0
C100 C 0.90046 0.02852 0.63586 0.0
C101 C 0.91959 0.04314 0.61543 0.0
H102 H 0.96703 0.06714 0.57866 0.0
H103 H 0.04141 0.06844 0.5795 0.0
H104 H 0.9187 0.97855 0.71122 0.0
H105 H 0.87433 0.9979 0.67793 0.0
H106 H 0.86808 0.02628 0.6362 0.0
H107 H 0.90165 0.05183 0.60034 0.0
Mn108 Mn 0.32118 0.83897 0.91143 0.0
Mn109 Mn 0.23456 0.78916 0.90497 0.0
C110 C 0.32314 0.77105 0.90308 0.0
C111 C 0.37406 0.87583 0.89429 0.0
C112 C 0.26573 0.81913 0.95253 0.0
O113 O 0.27974 0.88345 0.90655 0.0
O114 O 0.22624 0.8461 0.89548 0.0
C115 C 0.21885 0.7922 0.85367 0.0
N116 N 0.2257 0.77039 0.87359 0.0
C117 C 0.21372 0.70849 0.85298 0.0
C118 C 0.20694 0.7303 0.83221 0.0
C119 C 0.2096 0.77234 0.83255 0.0
C120 C 0.22292 0.72994 0.87349 0.0
H121 H 0.22021 0.82451 0.85393 0.0
C122 C 0.24429 0.87979 0.8982 0.0
O123 O 0.36665 0.87693 0.91675 0.0
O124 O 0.34864 0.85562 0.88185 0.0
N125 N 0.24044 0.73359 0.91311 0.0
C126 C 0.25303 0.71681 0.93373 0.0
C127 C 0.25425 0.67489 0.936 0.0
C128 C 0.24313 0.65058 0.9169 0.0
C129 C 0.23163 0.66846 0.89557 0.0
C130 C 0.23099 0.71042 0.89438 0.0
H131 H 0.26315 0.73525 0.94814 0.0
O132 O 0.35372 0.78915 0.91226 0.0
O133 O 0.29203 0.79367 0.8989 0.0
O134 O 0.30087 0.82849 0.94537 0.0
O135 O 0.23883 0.80705 0.93826 0.0
C136 C 0.22168 0.64626 0.87528 0.0
C137 C 0.2124 0.66628 0.85405 0.0
H138 H 0.19986 0.71508 0.81588 0.0
H139 H 0.2043 0.78941 0.81661 0.0
H140 H 0.2642 0.66137 0.95234 0.0
H141 H 0.24436 0.61825 0.91866 0.0
H142 H 0.22165 0.61378 0.87572 0.0
H143 H 0.2053 0.64889 0.83849 0.0
Mn144 Mn 0.41705 0.93859 0.34529 0.0
Mn145 Mn 0.47108 0.02449 0.34568 0.0
C146 C 0.48666 0.93586 0.34949 0.0
C147 C 0.38172 0.88649 0.36374 0.0
C148 C 0.4325 0.99036 0.30147 0.0
O149 O 0.37539 0.98076 0.35387 0.0
O150 O 0.41518 0.03566 0.3567 0.0
C151 C 0.47354 0.04721 0.39609 0.0
N152 N 0.493 0.03556 0.37617 0.0
C153 C 0.5572 0.04505 0.39476 0.0
C154 C 0.53774 0.05608 0.41564 0.0
C155 C 0.4957 0.05718 0.41629 0.0
C156 C 0.53349 0.03498 0.37526 0.0
H157 H 0.44143 0.04963 0.39644 0.0
C158 C 0.38127 0.01766 0.35885 0.0
O159 O 0.37516 0.89637 0.34197 0.0
O160 O 0.40718 0.90846 0.37528 0.0
N161 N 0.52548 0.01606 0.33611 0.0
C162 C 0.53979 1.00512 0.31459 0.0
C163 C 0.58129 1.00148 0.31119 0.0
C164 C 0.60771 0.00981 0.32983 0.0
C165 C 0.59235 0.02172 0.3517 0.0
C166 C 0.55067 0.02423 0.35414 0.0
H167 H 0.51975 0.99916 0.30011 0.0
O168 O 0.46676 0.90571 0.34091 0.0
O169 O 0.46528 0.96751 0.35415 0.0
O170 O 0.41882 0.95863 0.31106 0.0
O171 O 0.45146 0.01724 0.3129 0.0
C172 C 0.61679 0.03139 0.37114 0.0
C173 C 0.59924 0.04344 0.39258 0.0
H174 H 0.55476 0.06396 0.43122 0.0
H175 H 0.48043 0.06621 0.43223 0.0
H176 H 0.59288 0.99246 0.2942 0.0
H177 H 0.63972 0.00718 0.32711 0.0
H178 H 0.64912 0.02982 0.36976 0.0
H179 H 0.61833 0.0509 0.40739 0.0
Mn180 Mn 0.32528 0.16784 0.60109 0.0
Mn181 Mn 0.24233 0.22386 0.60814 0.0
C182 C 0.33177 0.23647 0.60663 0.0
C183 C 0.37741 0.12948 0.61746 0.0
C184 C 0.26696 0.1877 0.56088 0.0
O185 O 0.28218 0.1268 0.60973 0.0
O186 O 0.23086 0.1681 0.61923 0.0
C187 C 0.22928 0.22569 0.65969 0.0
N188 N 0.23688 0.24545 0.63917 0.0
C189 C 0.22819 0.30948 0.65804 0.0
C190 C 0.22097 0.28975 0.67945 0.0
C191 C 0.22161 0.24766 0.68028 0.0
C192 C 0.23597 0.28596 0.63814 0.0
H193 H 0.22846 0.19346 0.66026 0.0
C194 C 0.2471 0.13323 0.61792 0.0
O195 O 0.36592 0.12455 0.59576 0.0
O196 O 0.35687 0.15468 0.6299 0.0
N197 N 0.25115 0.27829 0.59844 0.0
C198 C 0.26373 0.29267 0.57723 0.0
C199 C 0.26704 0.33425 0.57376 0.0
C200 C 0.25794 0.36062 0.59226 0.0
C201 C 0.24648 0.34511 0.61421 0.0
C202 C 0.24394 0.30337 0.61663 0.0
H203 H 0.2722 0.27253 0.56326 0.0
O204 O 0.3601 0.21588 0.59671 0.0
O205 O 0.30005 0.21608 0.61263 0.0
O206 O 0.30125 0.17481 0.56761 0.0
O207 O 0.2427 0.20391 0.57527 0.0
C208 C 0.23823 0.36938 0.63391 0.0
C209 C 0.22865 0.35158 0.65575 0.0
H210 H 0.21498 0.30661 0.69536 0.0
H211 H 0.21575 0.23217 0.6967 0.0
H212 H 0.27696 0.3459 0.55695 0.0
H213 H 0.26065 0.39268 0.58955 0.0
H214 H 0.23964 0.40176 0.63253 0.0
H215 H 0.22275 0.37054 0.67084 0.0
Mn216 Mn 0.09006 0.06855 0.84717 0.0
Mn217 Mn 0.04023 0.98331 0.85837 0.0
C218 C 0.02203 0.07119 0.85545 0.0
C219 C 0.1257 0.12378 0.8628 0.0
C220 C 0.07017 1.00678 0.80917 0.0
O221 O 0.13473 0.02812 0.8542 0.0
O222 O 0.09741 0.97599 0.86737 0.0
C223 C 0.04597 0.98018 0.91039 0.0
N224 N 0.0231 0.98199 0.89051 0.0
C225 C 0.96236 0.98229 0.9133 0.0
C226 C 0.98529 0.98064 0.93401 0.0
C227 C 0.02728 0.97955 0.93253 0.0
C228 C 0.98268 0.98274 0.89172 0.0
H229 H 0.07822 0.97942 0.90935 0.0
C230 C 0.13105 0.9936 0.86387 0.0
O231 O 0.12778 0.11425 0.84062 0.0
O232 O 0.10545 0.09925 0.87574 0.0
N233 N 0.98433 0.98778 0.85083 0.0
C234 C 0.96652 0.99257 0.8294 0.0
C235 C 0.92453 0.99329 0.82777 0.0
C236 C 0.90124 0.99039 0.84827 0.0
C237 C 0.92018 0.98704 0.87025 0.0
C238 C 0.96212 0.98528 0.8707 0.0
H239 H 0.98414 0.99732 0.81379 0.0
O240 O 0.03947 0.10065 0.84471 0.0
O241 O 0.04517 0.04111 0.86062 0.0
O242 O 0.08038 0.04276 0.8145 0.0
O243 O 0.0568 0.9822 0.82462 0.0
C244 C 0.8991 0.9862 0.89173 0.0
C245 C 0.92018 0.98395 0.91325 0.0
H246 H 0.97097 0.98033 0.95113 0.0
H247 H 0.04519 0.97831 0.94843 0.0
H248 H 0.91019 0.99712 0.8108 0.0
H249 H 0.86888 0.99179 0.84699 0.0
H250 H 0.86668 0.98775 0.89191 0.0
H251 H 0.90366 0.98373 0.92966 0.0
Mn252 Mn 0.18214 0.8497 0.09608 0.0
Mn253 Mn 0.26831 0.79714 0.10159 0.0
C254 C 0.18006 0.78032 0.102 0.0
C255 C 0.12954 0.88647 0.11303 0.0
C256 C 0.23781 0.82915 0.05464 0.0
O257 O 0.22289 0.89299 0.10406 0.0
O258 O 0.2779 0.85464 0.10986 0.0
C259 C 0.27883 0.80356 0.15331 0.0
N260 N 0.27371 0.78053 0.13374 0.0
C261 C 0.27371 0.72008 0.15701 0.0
C262 C 0.27858 0.74323 0.17741 0.0
C263 C 0.28123 0.78516 0.17554 0.0
C264 C 0.27135 0.74013 0.13534 0.0
H265 H 0.28108 0.83571 0.15197 0.0
C266 C 0.2595 0.88844 0.10996 0.0
O267 O 0.13959 0.8912 0.0911 0.0
O268 O 0.15103 0.8615 0.1252 0.0
N269 N 0.26277 0.74121 0.09465 0.0
C270 C 0.25967 0.7231 0.07321 0.0
C271 C 0.25845 0.68105 0.07191 0.0
C272 C 0.26063 0.65806 0.09263 0.0
C273 C 0.26442 0.67732 0.11446 0.0
C274 C 0.26616 0.71929 0.11462 0.0
H275 H 0.25803 0.74055 0.05719 0.0
O276 O 0.14994 0.79899 0.0925 0.0
O277 O 0.21071 0.80282 0.10686 0.0
O278 O 0.20558 0.84464 0.0627 0.0
O279 O 0.26393 0.81172 0.06764 0.0
C280 C 0.26657 0.65652 0.13605 0.0
C281 C 0.27101 0.6779 0.15732 0.0
H282 H 0.28043 0.72914 0.19459 0.0
H283 H 0.28513 0.80325 0.19119 0.0
H284 H 0.25562 0.66641 0.05498 0.0
H285 H 0.25929 0.62565 0.09157 0.0
H286 H 0.26485 0.62407 0.13649 0.0
H287 H 0.27258 0.66158 0.17382 0.0
Mn288 Mn 0.59565 0.93653 0.84954 0.0
Mn289 Mn 0.54033 0.01995 0.85704 0.0
C290 C 0.52728 0.93052 0.85624 0.0
C291 C 0.63518 0.88439 0.86513 0.0
C292 C 0.57444 0.99466 0.80937 0.0
O293 O 0.63702 0.97966 0.85766 0.0
O294 O 0.59622 0.03134 0.86728 0.0
C295 C 0.54128 0.03199 0.90868 0.0
N296 N 0.52039 0.02547 0.88841 0.0
C297 C 0.45751 0.03448 0.9084 0.0
C298 C 0.47836 0.04106 0.92952 0.0
C299 C 0.52042 0.03961 0.92967 0.0
C300 C 0.47992 0.02678 0.88808 0.0
H301 H 0.57361 0.03166 0.9088 0.0
C302 C 0.63082 0.01482 0.86587 0.0
O303 O 0.63871 0.89598 0.84337 0.0
O304 O 0.61041 0.90466 0.87805 0.0
N305 N 0.48551 0.0115 0.84825 0.0
C306 C 0.46999 0.99951 0.8272 0.0
C307 C 0.42827 0.99667 0.82443 0.0
C308 C 0.40293 1.00578 0.84342 0.0
C309 C 0.4196 0.01689 0.86514 0.0
C310 C 0.46142 0.01898 0.86685 0.0
H311 H 0.48934 0.99123 0.8128 0.0
O312 O 0.54719 0.9019 0.84609 0.0
O313 O 0.54812 0.96218 0.86174 0.0
O314 O 0.58722 0.96037 0.81616 0.0
O315 O 0.55889 0.01927 0.82384 0.0
C316 C 0.39641 0.02522 0.88527 0.0
C317 C 0.41535 0.03443 0.90683 0.0
H318 H 0.46236 0.04694 0.94575 0.0
H319 H 0.53674 0.04468 0.94589 0.0
H320 H 0.4157 0.98715 0.80777 0.0
H321 H 0.37076 1.00342 0.84125 0.0
H322 H 0.364 0.02413 0.88444 0.0
H323 H 0.39722 0.0403 0.92226 0.0
Mn324 Mn 0.82295 0.84455 0.60091 0.0
Mn325 Mn 0.7386 0.79375 0.61256 0.0
C326 C 0.82674 0.7765 0.60951 0.0
C327 C 0.87742 0.88108 0.61641 0.0
C328 C 0.76121 0.82342 0.56314 0.0
O329 O 0.78205 0.88878 0.60758 0.0
O330 O 0.73051 0.85112 0.62111 0.0
C331 C 0.73608 0.80044 0.66452 0.0
N332 N 0.73783 0.77719 0.64483 0.0
C333 C 0.73903 0.71683 0.66812 0.0
C334 C 0.73737 0.74014 0.68864 0.0
C335 C 0.73587 0.78213 0.68682 0.0
C336 C 0.73904 0.73676 0.64638 0.0
H337 H 0.73505 0.83271 0.66322 0.0
C338 C 0.74764 0.88493 0.61723 0.0
O339 O 0.86798 0.88309 0.59418 0.0
O340 O 0.85326 0.86052 0.62942 0.0
N341 N 0.74368 0.73771 0.60547 0.0
C342 C 0.74853 0.71955 0.58419 0.0
C343 C 0.74974 0.67751 0.5829 0.0
C344 C 0.74728 0.65454 0.6036 0.0
C345 C 0.74389 0.67387 0.62541 0.0
C346 C 0.74162 0.71583 0.62553 0.0
H347 H 0.75302 0.73695 0.56844 0.0
O348 O 0.8558 0.79439 0.59869 0.0
O349 O 0.79637 0.79927 0.61464 0.0
O350 O 0.79708 0.83419 0.56833 0.0
O351 O 0.73701 0.80978 0.57869 0.0
C352 C 0.74348 0.65316 0.64707 0.0
C353 C 0.74117 0.67463 0.66842 0.0
H354 H 0.73739 0.72614 0.70588 0.0
H355 H 0.73466 0.80035 0.70257 0.0
H356 H 0.75364 0.66288 0.56604 0.0
H357 H 0.74908 0.62215 0.60258 0.0
H358 H 0.7454 0.62073 0.64752 0.0
H359 H 0.74128 0.6584 0.68497 0.0
Mn360 Mn 0.91835 0.07701 0.35128 0.0
Mn361 Mn 0.96866 0.9909 0.36009 0.0
C362 C 0.98732 0.07896 0.35749 0.0
C363 C 0.87986 0.12963 0.36761 0.0
C364 C 0.93427 0.01614 0.31234 0.0
O365 O 0.87449 0.03616 0.35948 0.0
O366 O 0.91267 0.98397 0.37159 0.0
C367 C 0.97057 0.98344 0.41207 0.0
N368 N 0.99037 0.98708 0.39122 0.0
C369 C 0.05419 0.97945 0.41052 0.0
C370 C 0.03444 0.97593 0.43221 0.0
C371 C 0.99244 0.97808 0.43299 0.0
C372 C 0.03079 0.98498 0.39027 0.0
H373 H 0.93836 0.9842 0.41268 0.0
C374 C 0.87876 1.00163 0.36904 0.0
O375 O 0.87763 0.12011 0.34547 0.0
O376 O 0.90508 0.10876 0.37993 0.0
N377 N 0.02328 0.99475 0.34991 0.0
C378 C 0.03791 1.0003 0.32774 0.0
C379 C 0.07949 1.00005 0.32401 0.0
C380 C 0.10564 0.99414 0.34311 0.0
C381 C 0.08995 0.98866 0.36578 0.0
C382 C 0.04822 0.98914 0.36841 0.0
H383 H 0.01809 1.00557 0.31306 0.0
O384 O 0.96908 0.10907 0.34768 0.0
O385 O 0.96445 0.049 0.36324 0.0
O386 O 0.92503 0.05202 0.31819 0.0
O387 O 0.94831 0.99128 0.32728 0.0
C388 C 0.11409 0.98303 0.3859 0.0
C389 C 0.09622 0.97819 0.40824 0.0
H390 H 0.05123 0.97177 0.44838 0.0
H391 H 0.97694 0.97529 0.44965 0.0
H392 H 0.09135 1.0047 0.30648 0.0
H393 H 0.13771 0.99422 0.34018 0.0
H394 H 0.14644 0.98254 0.38441 0.0
H395 H 0.11509 0.97408 0.4236 0.0
Mn396 Mn 0.69027 0.17408 0.10218 0.0
Mn397 Mn 0.77474 0.22549 0.1112 0.0
C398 C 0.68606 0.24197 0.11114 0.0
C399 C 0.63874 0.13405 0.1181 0.0
C400 C 0.74877 0.19295 0.06312 0.0
O401 O 0.73298 0.13086 0.1078 0.0
O402 O 0.7828 0.16957 0.12251 0.0
C403 C 0.78184 0.22687 0.1632 0.0
N404 N 0.77758 0.24691 0.14242 0.0
C405 C 0.7773 0.31057 0.16235 0.0
C406 C 0.78098 0.29052 0.18398 0.0
C407 C 0.7834 0.24848 0.18439 0.0
C408 C 0.77585 0.28739 0.1418 0.0
H409 H 0.78408 0.19467 0.16359 0.0
C410 C 0.76658 0.13535 0.1184 0.0
O411 O 0.64692 0.13419 0.09572 0.0
O412 O 0.66212 0.15572 0.13105 0.0
N413 N 0.76891 0.28023 0.10121 0.0
C414 C 0.76353 0.29515 0.07906 0.0
C415 C 0.7621 0.33682 0.07554 0.0
C416 C 0.76522 0.3628 0.09489 0.0
C417 C 0.76958 0.34684 0.11761 0.0
C418 C 0.77183 0.30506 0.11997 0.0
H419 H 0.7593 0.27553 0.06424 0.0
O420 O 0.65616 0.22368 0.10131 0.0
O421 O 0.71722 0.21965 0.11517 0.0
O422 O 0.71254 0.18575 0.06909 0.0
O423 O 0.77478 0.20464 0.07818 0.0
C424 C 0.77112 0.37076 0.13803 0.0
C425 C 0.77483 0.35262 0.16039 0.0
H426 H 0.78213 0.30711 0.20037 0.0
H427 H 0.78651 0.23277 0.201 0.0
H428 H 0.75781 0.34886 0.05799 0.0
H429 H 0.76344 0.39491 0.09215 0.0
H430 H 0.76915 0.40312 0.13674 0.0
H431 H 0.77575 0.37131 0.17598 0.0
Mn432 Mn 0.59709 0.0789 0.6649 0.0
Mn433 Mn 0.54656 0.99129 0.66118 0.0
C434 C 0.52754 0.07912 0.66017 0.0
C435 C 0.63052 0.13289 0.64698 0.0
C436 C 0.5804 0.02351 0.70723 0.0
O437 O 0.64104 0.03907 0.65634 0.0
O438 O 0.60376 0.98292 0.65189 0.0
C439 C 0.55019 0.97914 0.60951 0.0
N440 N 0.52824 0.98476 0.62944 0.0
C441 C 0.46661 0.98352 0.60735 0.0
C442 C 0.48865 0.97833 0.58656 0.0
C443 C 0.53063 0.97601 0.58767 0.0
C444 C 0.4878 0.98665 0.62859 0.0
H445 H 0.58234 0.97699 0.61028 0.0
C446 C 0.63709 1.00211 0.65096 0.0
O447 O 0.63716 0.12303 0.66879 0.0
O448 O 0.60608 0.11011 0.63533 0.0
N449 N 0.49101 0.99584 0.66918 0.0
C450 C 0.47407 0.99894 0.69094 0.0
C451 C 0.43216 0.99965 0.69305 0.0
C452 C 0.40809 0.99698 0.67279 0.0
C453 C 0.42616 0.99311 0.65063 0.0
C454 C 0.46807 0.99193 0.64966 0.0
H455 H 0.49236 1.00098 0.7066 0.0
O456 O 0.54585 0.10976 0.66927 0.0
O457 O 0.55053 0.04889 0.65519 0.0
O458 O 0.59451 0.05603 0.69861 0.0
O459 O 0.56296 0.99668 0.69478 0.0
C460 C 0.40423 0.99026 0.62947 0.0
C461 C 0.42445 0.98567 0.60783 0.0
H462 H 0.47365 0.97587 0.56969 0.0
H463 H 0.54787 0.97175 0.57173 0.0
H464 H 0.41844 1.00249 0.71023 0.0
H465 H 0.37577 0.9979 0.67446 0.0
H466 H 0.3718 0.9915 0.62964 0.0
H467 H 0.40727 0.9835 0.59167 0.0
Mn468 Mn 0.68566 0.8499 0.41615 0.0
Mn469 Mn 0.77349 0.79994 0.41916 0.0
C470 C 0.68677 0.78042 0.41116 0.0
C471 C 0.63578 0.88396 0.3943 0.0
C472 C 0.73062 0.83346 0.46228 0.0
O473 O 0.72757 0.89434 0.41147 0.0
O474 O 0.78372 0.85648 0.40941 0.0
C475 C 0.79623 0.80148 0.36874 0.0
N476 N 0.78769 0.78029 0.38866 0.0
C477 C 0.7986 0.71761 0.36871 0.0
C478 C 0.80774 0.73877 0.34803 0.0
C479 C 0.80641 0.78088 0.34803 0.0
C480 C 0.78857 0.73976 0.3888 0.0
H481 H 0.79512 0.83384 0.3686 0.0
C482 C 0.76511 0.88998 0.40747 0.0
O483 O 0.63956 0.88784 0.41694 0.0
O484 O 0.66277 0.86188 0.3843 0.0
N485 N 0.76734 0.74469 0.42774 0.0
C486 C 0.75696 0.72871 0.44899 0.0
C487 C 0.75597 0.68686 0.45178 0.0
C488 C 0.76601 0.66189 0.43279 0.0
C489 C 0.77729 0.679 0.41121 0.0
C490 C 0.77794 0.72091 0.40951 0.0
H491 H 0.74925 0.74769 0.46369 0.0
O492 O 0.65406 0.79861 0.41722 0.0
O493 O 0.71783 0.80353 0.40853 0.0
O494 O 0.69934 0.84569 0.45146 0.0
O495 O 0.76079 0.81798 0.45179 0.0
C496 C 0.78769 0.65611 0.39129 0.0
C497 C 0.79839 0.6754 0.37006 0.0
H498 H 0.81548 0.72299 0.332 0.0
H499 H 0.81318 0.79742 0.3321 0.0
H500 H 0.74732 0.67389 0.46851 0.0
H501 H 0.76492 0.62962 0.43496 0.0
H502 H 0.78732 0.62365 0.39205 0.0
H503 H 0.80594 0.65748 0.3548 0.0
Mn504 Mn 0.91628 0.94229 0.16673 0.0
Mn505 Mn 0.96861 0.02866 0.16523 0.0
C506 C 0.98504 0.94049 0.15957 0.0
C507 C 0.8789 0.89255 0.14707 0.0
C508 C 0.93641 0.99112 0.21064 0.0
O509 O 0.87281 0.98493 0.16218 0.0
O510 O 0.91187 0.0395 0.15651 0.0
C511 C 0.96374 0.04459 0.11394 0.0
N512 N 0.98624 0.03767 0.13359 0.0
C513 C 0.04713 0.03812 0.11091 0.0
C514 C 0.0246 0.04529 0.09046 0.0
C515 C 0.98272 0.04854 0.09199 0.0
C516 C 0.02653 0.0343 0.13228 0.0
H517 H 0.93151 0.04669 0.11495 0.0
C518 C 0.87784 0.02173 0.1565 0.0
O519 O 0.877 0.89764 0.16971 0.0
O520 O 0.90114 0.91804 0.13591 0.0
N521 N 0.02423 0.02204 0.17263 0.0
C522 C 0.04179 0.01858 0.19422 0.0
C523 C 0.08371 0.01629 0.19592 0.0
C524 C 0.1072 0.01864 0.17546 0.0
C525 C 0.08857 0.02417 0.15353 0.0
C526 C 0.04669 0.02659 0.15299 0.0
H527 H 0.024 0.0183 0.21004 0.0
O528 O 0.96638 0.90904 0.16729 0.0
O529 O 0.96275 0.97215 0.15692 0.0
O530 O 0.92386 0.95871 0.20125 0.0
O531 O 0.95213 0.01999 0.19885 0.0
C532 C 0.10993 0.02774 0.13224 0.0
C533 C 0.08919 0.03447 0.11091 0.0
H534 H 0.03912 0.0483 0.07349 0.0
H535 H 0.9651 0.05391 0.07627 0.0
H536 H 0.09788 0.01297 0.21298 0.0
H537 H 0.13953 0.01673 0.17681 0.0
H538 H 0.14231 0.02551 0.13207 0.0
H539 H 0.10592 0.03713 0.09464 0.0
Mn540 Mn 0.82371 0.16101 0.91743 0.0
Mn541 Mn 0.73925 0.21692 0.91665 0.0
C542 C 0.82801 0.23032 0.913 0.0
C543 C 0.87454 0.12456 0.89902 0.0
C544 C 0.7741 0.18096 0.96142 0.0
O545 O 0.78096 0.1199 0.9094 0.0
O546 O 0.72649 0.1602 0.90749 0.0
C547 C 0.71729 0.21478 0.86605 0.0
N548 N 0.72792 0.23607 0.88554 0.0
C549 C 0.71836 0.29861 0.86502 0.0
C550 C 0.70789 0.27728 0.84465 0.0
C551 C 0.70744 0.23517 0.84517 0.0
C552 C 0.72834 0.27663 0.88524 0.0
H553 H 0.71591 0.18252 0.86649 0.0
C554 C 0.74388 0.126 0.90525 0.0
O555 O 0.86502 0.11835 0.92088 0.0
O556 O 0.85283 0.15022 0.88744 0.0
N557 N 0.7484 0.27206 0.92443 0.0
C558 C 0.76026 0.2882 0.94536 0.0
C559 C 0.76381 0.33 0.94748 0.0
C560 C 0.75453 0.3548 0.92821 0.0
C561 C 0.74191 0.33755 0.90695 0.0
C562 C 0.73944 0.29567 0.90578 0.0
H563 H 0.7673 0.26935 0.96029 0.0
O564 O 0.85775 0.20978 0.92156 0.0
O565 O 0.79588 0.20971 0.90819 0.0
O566 O 0.80408 0.16412 0.9517 0.0
O567 O 0.74765 0.20043 0.94989 0.0
C568 C 0.7317 0.36028 0.88687 0.0
C569 C 0.71962 0.34084 0.86598 0.0
H570 H 0.70013 0.29292 0.82853 0.0
H571 H 0.69913 0.21847 0.82957 0.0
H572 H 0.77357 0.34307 0.96397 0.0
H573 H 0.75717 0.38705 0.92994 0.0
H574 H 0.73316 0.39273 0.88728 0.0
H575 H 0.71203 0.35862 0.85062 0.0
Mn576 Mn 0.91961 0.57557 0.66896 0.0
Mn577 Mn 0.97291 0.48948 0.66555 0.0
C578 C 0.98908 0.57785 0.66396 0.0
C579 C 0.88341 0.6284 0.65178 0.0
C580 C 0.93711 0.52051 0.71124 0.0
O581 O 0.87711 0.5341 0.66036 0.0
O582 O 0.91617 0.47915 0.6557 0.0
C583 C 0.97116 0.47413 0.61416 0.0
N584 N 0.99234 0.48166 0.6342 0.0
C585 C 0.05492 0.47501 0.61353 0.0
C586 C 0.03371 0.46758 0.59264 0.0
C587 C 0.99164 0.46723 0.59296 0.0
C588 C 0.03285 0.48196 0.63409 0.0
H589 H 0.93892 0.473 0.6144 0.0
C590 C 0.88227 0.49738 0.65471 0.0
O591 O 0.87797 0.6178 0.67355 0.0
O592 O 0.90848 0.60703 0.63967 0.0
N593 N 0.02803 0.49639 0.67408 0.0
C594 C 0.04405 0.50441 0.69567 0.0
C595 C 0.08585 0.50663 0.69826 0.0
C596 C 0.11074 0.50024 0.67869 0.0
C597 C 0.0936 0.49157 0.65671 0.0
C598 C 0.05175 0.48982 0.65519 0.0
H599 H 0.02512 0.50938 0.7108 0.0
O600 O 0.97004 0.60804 0.67309 0.0
O601 O 0.96694 0.54693 0.65899 0.0
O602 O 0.92298 0.55292 0.70259 0.0
O603 O 0.95565 0.49447 0.6989 0.0
C604 C 0.11641 0.48467 0.63625 0.0
C605 C 0.09709 0.47618 0.6147 0.0
H606 H 0.04942 0.46219 0.57626 0.0
H607 H 0.97504 0.46135 0.57694 0.0
H608 H 0.09884 0.51336 0.71528 0.0
H609 H 0.14297 0.50212 0.68073 0.0
H610 H 0.14883 0.48587 0.63687 0.0
H611 H 0.11494 0.47105 0.59907 0.0
Mn612 Mn 0.68769 0.66683 0.91543 0.0
Mn613 Mn 0.77573 0.71602 0.91194 0.0
C614 C 0.68807 0.7358 0.90801 0.0
C615 C 0.63585 0.6308 0.89684 0.0
C616 C 0.73961 0.68689 0.95827 0.0
O617 O 0.72792 0.62157 0.91058 0.0
O618 O 0.78372 0.65824 0.90376 0.0
C619 C 0.79044 0.70941 0.86061 0.0
N620 N 0.78425 0.73254 0.88002 0.0
C621 C 0.78705 0.79296 0.85679 0.0
C622 C 0.79298 0.76971 0.83653 0.0
C623 C 0.79478 0.72775 0.83847 0.0
C624 C 0.78272 0.77297 0.87836 0.0
H625 H 0.79202 0.67722 0.862 0.0
C626 C 0.76459 0.62485 0.90447 0.0
O627 O 0.64182 0.62916 0.91944 0.0
O628 O 0.66136 0.65221 0.88514 0.0
N629 N 0.77152 0.77209 0.91882 0.0
C630 C 0.76801 0.79027 0.94021 0.0
C631 C 0.76765 0.83233 0.9415 0.0
C632 C 0.77121 0.85526 0.92083 0.0
C633 C 0.77579 0.83591 0.89909 0.0
C634 C 0.77657 0.79392 0.89895 0.0
H635 H 0.76531 0.77287 0.95619 0.0
O636 O 0.65646 0.71827 0.91633 0.0
O637 O 0.71863 0.71227 0.90469 0.0
O638 O 0.70675 0.67404 0.94952 0.0
O639 O 0.76811 0.70141 0.94578 0.0
C640 C 0.77983 0.85666 0.87758 0.0
C641 C 0.78526 0.83519 0.85642 0.0
H642 H 0.79636 0.78376 0.81942 0.0
H643 H 0.79952 0.70958 0.82293 0.0
H644 H 0.76439 0.84704 0.95838 0.0
H645 H 0.77055 0.8877 0.92187 0.0
H646 H 0.77893 0.88913 0.87711 0.0
H647 H 0.78835 0.85146 0.83999 0.0
Mn648 Mn 0.59161 0.44281 0.16838 0.0
Mn649 Mn 0.53894 0.52676 0.15791 0.0
C650 C 0.52295 0.43828 0.16136 0.0
C651 C 0.63029 0.3896 0.1536 0.0
C652 C 0.57323 0.50508 0.20638 0.0
O653 O 0.63427 0.48454 0.15986 0.0
O654 O 0.595 0.53554 0.1472 0.0
C655 C 0.53969 0.52866 0.10576 0.0
N656 N 0.51881 0.52685 0.12634 0.0
C657 C 0.45599 0.52468 0.1055 0.0
C658 C 0.47687 0.52625 0.08409 0.0
C659 C 0.5189 0.5283 0.08424 0.0
C660 C 0.47835 0.52515 0.1264 0.0
H661 H 0.57197 0.53019 0.10579 0.0
C662 C 0.62925 0.51887 0.15021 0.0
O663 O 0.63383 0.40158 0.17529 0.0
O664 O 0.60569 0.40969 0.14045 0.0
N665 N 0.484 0.52121 0.16722 0.0
C666 C 0.46836 0.51757 0.18928 0.0
C667 C 0.42661 0.51635 0.19224 0.0
C668 C 0.40135 0.518 0.17246 0.0
C669 C 0.41809 0.52061 0.14988 0.0
C670 C 0.45989 0.52277 0.14806 0.0
H671 H 0.48754 0.51468 0.20446 0.0
O672 O 0.54171 0.40942 0.1721 0.0
O673 O 0.54514 0.46882 0.15579 0.0
O674 O 0.5835 0.46932 0.20084 0.0
O675 O 0.55843 0.52923 0.19116 0.0
C676 C 0.39496 0.52043 0.12909 0.0
C677 C 0.41391 0.52228 0.10691 0.0
H678 H 0.46093 0.52584 0.06745 0.0
H679 H 0.53524 0.52952 0.06779 0.0
H680 H 0.41396 0.51343 0.20971 0.0
H681 H 0.36918 0.51637 0.17479 0.0
H682 H 0.36259 0.51842 0.12995 0.0
H683 H 0.39584 0.52174 0.09104 0.0
Mn684 Mn 0.83272 0.35228 0.41416 0.0
Mn685 Mn 0.74928 0.29491 0.41421 0.0
C686 C 0.83799 0.28312 0.40817 0.0
C687 C 0.87935 0.39427 0.39491 0.0
C688 C 0.78549 0.33109 0.45877 0.0
O689 O 0.78741 0.3927 0.40856 0.0
O690 O 0.73483 0.3505 0.40449 0.0
C691 C 0.73065 0.29572 0.36317 0.0
N692 N 0.73921 0.27485 0.38322 0.0
C693 C 0.73402 0.21189 0.36278 0.0
C694 C 0.72489 0.23269 0.34196 0.0
C695 C 0.72338 0.27479 0.34214 0.0
C696 C 0.74122 0.23437 0.38317 0.0
H697 H 0.72946 0.32808 0.3632 0.0
C698 C 0.75078 0.38541 0.40339 0.0
O699 O 0.87305 0.39569 0.41739 0.0
O700 O 0.8583 0.36785 0.3835 0.0
N701 N 0.75936 0.24017 0.42264 0.0
C702 C 0.76896 0.22458 0.44413 0.0
C703 C 0.77222 0.18285 0.44686 0.0
C704 C 0.76507 0.15752 0.42756 0.0
C705 C 0.75462 0.17418 0.4057 0.0
C706 C 0.75166 0.21599 0.40407 0.0
H707 H 0.77387 0.24378 0.45912 0.0
O708 O 0.86862 0.30374 0.41545 0.0
O709 O 0.80531 0.30367 0.4051 0.0
O710 O 0.81655 0.34563 0.44888 0.0
O711 O 0.75759 0.31323 0.44739 0.0
C712 C 0.74712 0.15092 0.38546 0.0
C713 C 0.73683 0.16976 0.36401 0.0
H714 H 0.71931 0.21666 0.32569 0.0
H715 H 0.7166 0.29108 0.32611 0.0
H716 H 0.78017 0.17023 0.46382 0.0
H717 H 0.76777 0.12534 0.42971 0.0
H718 H 0.74938 0.11853 0.38617 0.0
H719 H 0.73149 0.15159 0.34852 0.0
Mn720 Mn 0.91783 0.43525 0.85434 0.0
Mn721 Mn 0.96665 0.52322 0.85875 0.0
C722 C 0.98687 0.4356 0.85993 0.0
C723 C 0.88356 0.38177 0.87282 0.0
C724 C 0.93052 0.49188 0.81266 0.0
O725 O 0.87312 0.47553 0.86124 0.0
O726 O 0.91039 0.53049 0.86954 0.0
C727 C 0.96698 0.53421 0.9105 0.0
N728 N 0.98742 0.53027 0.88987 0.0
C729 C 0.05076 0.537 0.90978 0.0
C730 C 0.03038 0.54123 0.93123 0.0
C731 C 0.98832 0.53972 0.93159 0.0
C732 C 0.02789 0.53149 0.88934 0.0
H733 H 0.93466 0.53305 0.91084 0.0
C734 C 0.87699 0.51154 0.86866 0.0
O735 O 0.88002 0.38923 0.85044 0.0
O736 O 0.90558 0.40686 0.88443 0.0
N737 N 0.02147 0.51962 0.84912 0.0
C738 C 0.03657 0.51474 0.82701 0.0
C739 C 0.07825 0.51489 0.82365 0.0
C740 C 0.10395 0.52046 0.843 0.0
C741 C 0.0877 0.52622 0.86551 0.0
C742 C 0.04592 0.526 0.86775 0.0
H743 H 0.01698 0.51054 0.81206 0.0
O744 O 0.96912 0.4042 0.85147 0.0
O745 O 0.96355 0.46572 0.86464 0.0
O746 O 0.92247 0.45672 0.82035 0.0
O747 O 0.94701 0.51823 0.82584 0.0
C748 C 0.11132 0.53202 0.88582 0.0
C749 C 0.09286 0.53745 0.90794 0.0
H750 H 0.04674 0.54536 0.94755 0.0
H751 H 0.97239 0.54278 0.94808 0.0
H752 H 0.09055 0.51058 0.8062 0.0
H753 H 0.13609 0.52028 0.84036 0.0
H754 H 0.14372 0.53219 0.88464 0.0
H755 H 0.11134 0.54156 0.92345 0.0
Mn756 Mn 0.81944 0.67353 0.10198 0.0
Mn757 Mn 0.73351 0.72517 0.10815 0.0
C758 C 0.82219 0.74213 0.10777 0.0
C759 C 0.87302 0.63805 0.11881 0.0
C760 C 0.76219 0.69222 0.0609 0.0
O761 O 0.77847 0.63011 0.10991 0.0
O762 O 0.72409 0.66834 0.11768 0.0
C763 C 0.71989 0.72226 0.15964 0.0
N764 N 0.72603 0.74399 0.13962 0.0
C765 C 0.71447 0.80597 0.16019 0.0
C766 C 0.70829 0.78425 0.18105 0.0
C767 C 0.71117 0.74222 0.18078 0.0
C768 C 0.72332 0.78444 0.13969 0.0
H769 H 0.72136 0.68995 0.15943 0.0
C770 C 0.74236 0.63452 0.11686 0.0
O771 O 0.86241 0.63258 0.097 0.0
O772 O 0.85078 0.66198 0.13109 0.0
N773 N 0.7397 0.78061 0.09994 0.0
C774 C 0.75123 0.79722 0.07908 0.0
C775 C 0.7524 0.83913 0.07673 0.0
C776 C 0.74202 0.86356 0.0959 0.0
C777 C 0.73128 0.84582 0.1174 0.0
C778 C 0.73087 0.80387 0.11871 0.0
H779 H 0.76045 0.77862 0.06455 0.0
O780 O 0.85182 0.72317 0.09806 0.0
O781 O 0.79134 0.72014 0.11339 0.0
O782 O 0.79624 0.67974 0.0683 0.0
O783 O 0.73672 0.70762 0.07488 0.0
C784 C 0.72167 0.8681 0.13769 0.0
C785 C 0.71291 0.84818 0.15903 0.0
H786 H 0.70155 0.79955 0.1974 0.0
H787 H 0.70639 0.72523 0.1968 0.0
H788 H 0.7616 0.85256 0.06022 0.0
H789 H 0.74308 0.89588 0.09405 0.0
H790 H 0.72144 0.90058 0.13717 0.0
H791 H 0.70605 0.86564 0.17459 0.0
Mn792 Mn 0.60565 0.58033 0.35249 0.0
Mn793 Mn 0.54823 0.49674 0.3524 0.0
C794 C 0.53689 0.58564 0.35916 0.0
C795 C 0.64745 0.62725 0.37161 0.0
C796 C 0.58364 0.53358 0.30794 0.0
O797 O 0.64623 0.53543 0.35772 0.0
O798 O 0.60427 0.48255 0.3622 0.0
C799 C 0.54734 0.47033 0.40227 0.0
N800 N 0.5274 0.48412 0.38294 0.0
C801 C 0.46376 0.4754 0.40225 0.0
C802 C 0.4838 0.46228 0.42257 0.0
C803 C 0.52578 0.45969 0.42256 0.0
C804 C 0.48691 0.48606 0.38265 0.0
H805 H 0.57934 0.46673 0.40205 0.0
C806 C 0.63923 0.49881 0.36297 0.0
O807 O 0.64876 0.62114 0.34909 0.0
O808 O 0.62138 0.60583 0.38305 0.0
N809 N 0.49376 0.50808 0.34395 0.0
C810 C 0.47888 0.52173 0.32304 0.0
C811 C 0.43739 0.52701 0.32038 0.0
C812 C 0.41154 0.51767 0.3391 0.0
C813 C 0.42747 0.5032 0.36035 0.0
C814 C 0.46914 0.49905 0.36208 0.0
H815 H 0.49847 0.52886 0.30853 0.0
O816 O 0.55748 0.61594 0.35136 0.0
O817 O 0.55711 0.55264 0.36219 0.0
O818 O 0.59871 0.56446 0.31773 0.0
O819 O 0.56627 0.50574 0.31949 0.0
C820 C 0.40361 0.49274 0.37987 0.0
C821 C 0.42172 0.47848 0.40073 0.0
H822 H 0.46724 0.45385 0.43822 0.0
H823 H 0.54147 0.44898 0.43805 0.0
H824 H 0.42535 0.53817 0.30391 0.0
H825 H 0.37953 0.52166 0.33696 0.0
H826 H 0.3713 0.49553 0.37903 0.0
H827 H 0.40307 0.47053 0.41563 0.0
Mn828 Mn 0.69304 0.35047 0.59687 0.0
Mn829 Mn 0.77356 0.29371 0.60944 0.0
C830 C 0.68483 0.28218 0.60401 0.0
C831 C 0.64078 0.39147 0.6104 0.0
C832 C 0.7561 0.32712 0.56014 0.0
O833 O 0.73588 0.39141 0.6063 0.0
O834 O 0.7848 0.34995 0.61927 0.0
C835 C 0.77304 0.29764 0.66156 0.0
N836 N 0.77123 0.27556 0.64141 0.0
C837 C 0.76587 0.21414 0.66351 0.0
C838 C 0.76741 0.23626 0.68449 0.0
C839 C 0.77103 0.2782 0.68349 0.0
C840 C 0.76798 0.23518 0.64217 0.0
H841 H 0.77592 0.32982 0.6609 0.0
C842 C 0.7696 0.38491 0.61632 0.0
O843 O 0.65405 0.39438 0.58895 0.0
O844 O 0.65908 0.36619 0.624 0.0
N845 N 0.76571 0.23847 0.60123 0.0
C846 C 0.76171 0.22165 0.57951 0.0
C847 C 0.75908 0.17978 0.57738 0.0
C848 C 0.75946 0.15565 0.59768 0.0
C849 C 0.76198 0.17367 0.61993 0.0
C850 C 0.76569 0.21549 0.6209 0.0
H851 H 0.75932 0.24005 0.56398 0.0
O852 O 0.65771 0.30214 0.59251 0.0
O853 O 0.71597 0.30293 0.61029 0.0
O854 O 0.72126 0.34083 0.56505 0.0
O855 O 0.77838 0.3108 0.57582 0.0
C856 C 0.76021 0.15183 0.64117 0.0
C857 C 0.76197 0.17207 0.66296 0.0
H858 H 0.76576 0.22137 0.70144 0.0
H859 H 0.77227 0.2955 0.6996 0.0
H860 H 0.75593 0.16621 0.56017 0.0
H861 H 0.7567 0.12341 0.596 0.0
H862 H 0.75703 0.1195 0.64096 0.0
H863 H 0.76018 0.155 0.67918 0.0
Mn864 Mn 0.09936 0.43497 0.34766 0.0
Mn865 Mn 0.0515 0.52362 0.35115 0.0
C866 C 0.03036 0.43645 0.35368 0.0
C867 C 0.13248 0.38116 0.36659 0.0
C868 C 0.08613 0.49006 0.30524 0.0
O869 O 0.14481 0.47492 0.35409 0.0
O870 O 0.10817 0.53071 0.36144 0.0
C871 C 0.05263 0.53814 0.4026 0.0
N872 N 0.03163 0.53267 0.38226 0.0
C873 C 0.96891 0.54201 0.40239 0.0
C874 C 0.98988 0.54771 0.42355 0.0
C875 C 0.03192 0.54566 0.42366 0.0
C876 C 0.99117 0.5345 0.38197 0.0
H877 H 0.08492 0.53685 0.40274 0.0
C878 C 0.14141 0.51138 0.36088 0.0
O879 O 0.13615 0.38801 0.34416 0.0
O880 O 0.11144 0.40724 0.37803 0.0
N881 N 0.99638 0.51995 0.34201 0.0
C882 C 0.98063 0.51338 0.32018 0.0
C883 C 0.93886 0.51352 0.31716 0.0
C884 C 0.91375 0.52081 0.33653 0.0
C885 C 0.93066 0.52821 0.35873 0.0
C886 C 0.9725 0.52777 0.36066 0.0
H887 H 0.99976 0.50782 0.30522 0.0
O888 O 0.0475 0.40465 0.34533 0.0
O889 O 0.0542 0.46639 0.3579 0.0
O890 O 0.09456 0.4553 0.31338 0.0
O891 O 0.07004 0.51689 0.31822 0.0
C892 C 0.90766 0.53587 0.37902 0.0
C893 C 0.92677 0.54291 0.40082 0.0
H894 H 0.97401 0.55343 0.43984 0.0
H895 H 0.04833 0.54994 0.43992 0.0
H896 H 0.92604 0.5079 0.29995 0.0
H897 H 0.88154 0.52067 0.33415 0.0
H898 H 0.87524 0.5363 0.37808 0.0
H899 H 0.90875 0.54852 0.41633 0.0
Mn900 Mn 0.3241 0.35135 0.0973 0.0
Mn901 Mn 0.24224 0.29221 0.09833 0.0
C902 C 0.3311 0.2821 0.10271 0.0
C903 C 0.37345 0.38917 0.11669 0.0
C904 C 0.27547 0.32978 0.05338 0.0
O905 O 0.27858 0.39141 0.10316 0.0
O906 O 0.22822 0.34769 0.10826 0.0
C907 C 0.22186 0.29217 0.1491 0.0
N908 N 0.23213 0.27174 0.12923 0.0
C909 C 0.22369 0.20828 0.14887 0.0
C910 C 0.21312 0.22864 0.16955 0.0
C911 C 0.2124 0.27077 0.16968 0.0
C912 C 0.23313 0.23121 0.12895 0.0
H913 H 0.22077 0.32454 0.14923 0.0
C914 C 0.24232 0.38352 0.10873 0.0
O915 O 0.36479 0.39518 0.09465 0.0
O916 O 0.35093 0.36388 0.12791 0.0
N917 N 0.25309 0.23773 0.08986 0.0
C918 C 0.26542 0.2227 0.06877 0.0
C919 C 0.26999 0.18109 0.06611 0.0
C920 C 0.26122 0.15534 0.08503 0.0
C921 C 0.24808 0.17146 0.10647 0.0
C922 C 0.24461 0.21321 0.10817 0.0
H923 H 0.27197 0.24229 0.05412 0.0
O924 O 0.36048 0.30358 0.09466 0.0
O925 O 0.29818 0.30173 0.10664 0.0
O926 O 0.30625 0.34599 0.06272 0.0
O927 O 0.24924 0.31049 0.06521 0.0
C928 C 0.23839 0.14776 0.12624 0.0
C929 C 0.22585 0.16614 0.14735 0.0
H930 H 0.20577 0.21224 0.18546 0.0
H931 H 0.20431 0.2867 0.18558 0.0
H932 H 0.28011 0.16889 0.04949 0.0
H933 H 0.26465 0.12324 0.08289 0.0
H934 H 0.24064 0.11538 0.12542 0.0
H935 H 0.21874 0.14761 0.16248 0.0
Mn936 Mn 0.41847 0.56903 0.84827 0.0
Mn937 Mn 0.47127 0.48431 0.85469 0.0
C938 C 0.48614 0.5735 0.85712 0.0
C939 C 0.37881 0.61935 0.86557 0.0
C940 C 0.44061 0.5153 0.80722 0.0
O941 O 0.37583 0.52554 0.8525 0.0
O942 O 0.41508 0.47405 0.86457 0.0
C943 C 0.47006 0.46839 0.906 0.0
N944 N 0.49109 0.47616 0.88595 0.0
C945 C 0.55385 0.46692 0.90616 0.0
C946 C 0.53286 0.45918 0.92707 0.0
C947 C 0.49078 0.46003 0.92699 0.0
C948 C 0.53157 0.47529 0.88581 0.0
H949 H 0.43774 0.46838 0.90594 0.0
C950 C 0.38082 0.49063 0.86143 0.0
O951 O 0.37845 0.61275 0.84301 0.0
O952 O 0.40011 0.59465 0.87793 0.0
N953 N 0.52628 0.49192 0.84609 0.0
C954 C 0.54208 0.5028 0.8249 0.0
C955 C 0.58383 0.50537 0.82231 0.0
C956 C 0.60896 0.49664 0.84151 0.0
C957 C 0.59206 0.48577 0.8632 0.0
C958 C 0.55022 0.48397 0.86476 0.0
H959 H 0.52303 0.51012 0.81016 0.0
O960 O 0.46703 0.60372 0.84816 0.0
O961 O 0.46468 0.5415 0.86087 0.0
O962 O 0.43044 0.5502 0.81435 0.0
O963 O 0.45262 0.48851 0.82157 0.0
C964 C 0.6151 0.47702 0.88338 0.0
C965 C 0.59601 0.46727 0.9048 0.0
H966 H 0.54875 0.45273 0.9433 0.0
H967 H 0.47436 0.45401 0.94304 0.0
H968 H 0.59661 0.51419 0.80557 0.0
H969 H 0.64116 0.4987 0.83945 0.0
H970 H 0.64752 0.47799 0.88268 0.0
H971 H 0.61404 0.46091 0.92025 0.0
Mn972 Mn 0.18653 0.66115 0.59855 0.0
Mn973 Mn 0.27121 0.71663 0.59559 0.0
C974 C 0.18292 0.73081 0.60247 0.0
C975 C 0.13884 0.62218 0.61942 0.0
C976 C 0.23204 0.67845 0.5526 0.0
O977 O 0.23086 0.62015 0.60501 0.0
O978 O 0.28487 0.6611 0.60607 0.0
C979 C 0.296 0.71831 0.64571 0.0
N980 N 0.28508 0.73816 0.6257 0.0
C981 C 0.29784 0.80214 0.64378 0.0
C982 C 0.30926 0.78238 0.66457 0.0
C983 C 0.30811 0.74029 0.66557 0.0
C984 C 0.28567 0.77867 0.62464 0.0
H985 H 0.29556 0.68595 0.64651 0.0
C986 C 0.26807 0.6268 0.60885 0.0
O987 O 0.14489 0.61864 0.597 0.0
O988 O 0.16086 0.64898 0.62986 0.0
N989 N 0.26165 0.77107 0.58639 0.0
C990 C 0.24829 0.78558 0.56534 0.0
C991 C 0.24538 0.8272 0.56194 0.0
C992 C 0.25695 0.85347 0.58004 0.0
C993 C 0.27124 0.83785 0.60141 0.0
C994 C 0.27296 0.7961 0.60389 0.0
H995 H 0.23968 0.76559 0.55129 0.0
O996 O 0.15197 0.71009 0.59578 0.0
O997 O 0.21542 0.71008 0.60612 0.0
O998 O 0.20177 0.6641 0.5634 0.0
O999 O 0.26031 0.69707 0.56309 0.0
C1000 C 0.28383 0.86208 0.62034 0.0
C1001 C 0.29744 0.84424 0.64145 0.0
H1002 H 0.31868 0.79922 0.67991 0.0
H1003 H 0.31676 0.72482 0.68157 0.0
H1004 H 0.23442 0.839 0.54536 0.0
H1005 H 0.25481 0.88556 0.57731 0.0
H1006 H 0.283 0.89447 0.6189 0.0
H1007 H 0.30674 0.86318 0.65595 0.0
Mn1008 Mn 0.09456 0.57833 0.16324 0.0
Mn1009 Mn 0.03481 0.49751 0.15799 0.0
C1010 C 0.02511 0.58653 0.15926 0.0
C1011 C 0.13253 0.62941 0.14547 0.0
C1012 C 0.07497 0.52213 0.20418 0.0
O1013 O 0.13389 0.53316 0.15481 0.0
O1014 O 0.08936 0.48517 0.14601 0.0
C1015 C 0.03218 0.49236 0.10591 0.0
N1016 N 0.01274 0.49623 0.12688 0.0
C1017 C 0.94881 0.50065 0.10738 0.0
C1018 C 0.96814 0.49677 0.08559 0.0
C1019 C 0.01001 0.49262 0.08486 0.0
C1020 C 0.97249 0.50038 0.12777 0.0
H1021 H 0.06438 0.48942 0.10522 0.0
C1022 C 0.12542 0.49835 0.14678 0.0
O1023 O 0.13913 0.61815 0.16706 0.0
O1024 O 0.10631 0.6088 0.1338 0.0
N1025 N 0.98094 0.50619 0.16835 0.0
C1026 C 0.9668 0.50887 0.19081 0.0
C1027 C 0.92535 0.51168 0.19466 0.0
C1028 C 0.89885 0.51147 0.17542 0.0
C1029 C 0.91405 0.50834 0.15248 0.0
C1030 C 0.9556 0.50497 0.14975 0.0
H1031 H 0.98695 0.50877 0.20571 0.0
O1032 O 0.04697 0.61492 0.16812 0.0
O1033 O 0.04463 0.55438 0.15376 0.0
O1034 O 0.08989 0.55492 0.19649 0.0
O1035 O 0.05535 0.49761 0.19113 0.0
C1036 C 0.88959 0.50852 0.13221 0.0
C1037 C 0.90699 0.50496 0.10967 0.0
H1038 H 0.95116 0.49697 0.06931 0.0
H1039 H 0.02516 0.48971 0.0681 0.0
H1040 H 0.91385 0.51408 0.21242 0.0
H1041 H 0.86691 0.51394 0.17845 0.0
H1042 H 0.85739 0.51154 0.13377 0.0
H1043 H 0.88791 0.50538 0.09422 0.0
Mn1044 Mn 0.18762 0.3437 0.9117 0.0
Mn1045 Mn 0.26972 0.28728 0.90394 0.0
C1046 C 0.17983 0.27639 0.90239 0.0
C1047 C 0.1398 0.38888 0.89636 0.0
C1048 C 0.24339 0.31969 0.95189 0.0
O1049 O 0.23265 0.38424 0.90638 0.0
O1050 O 0.28238 0.34314 0.89408 0.0
C1051 C 0.28422 0.28845 0.85254 0.0
N1052 N 0.276 0.2675 0.87258 0.0
C1053 C 0.28399 0.20457 0.85244 0.0
C1054 C 0.29223 0.22549 0.83154 0.0
C1055 C 0.29219 0.26762 0.83158 0.0
C1056 C 0.27616 0.22696 0.87276 0.0
H1057 H 0.285 0.3208 0.85258 0.0
C1058 C 0.26706 0.37801 0.89722 0.0
O1059 O 0.14836 0.38715 0.91864 0.0
O1060 O 0.15912 0.36387 0.88306 0.0
N1061 N 0.25936 0.23253 0.91238 0.0
C1062 C 0.24524 0.21715 0.93301 0.0
C1063 C 0.24081 0.17548 0.9355 0.0
C1064 C 0.25023 0.15006 0.9166 0.0
C1065 C 0.26316 0.16665 0.89521 0.0
C1066 C 0.26691 0.20843 0.89378 0.0
H1067 H 0.23643 0.23658 0.94726 0.0
O1068 O 0.15103 0.29638 0.9123 0.0
O1069 O 0.21248 0.29669 0.89839 0.0
O1070 O 0.20857 0.33089 0.9452 0.0
O1071 O 0.26877 0.30578 0.93727 0.0
C1072 C 0.27155 0.14345 0.87509 0.0
C1073 C 0.28239 0.16238 0.85378 0.0
H1074 H 0.29831 0.20951 0.81533 0.0
H1075 H 0.29857 0.28399 0.81553 0.0
H1076 H 0.2297 0.16302 0.95186 0.0
H1077 H 0.24655 0.11794 0.91853 0.0
H1078 H 0.2692 0.11106 0.87571 0.0
H1079 H 0.2883 0.14426 0.83834 0.0
Mn1080 Mn 0.42547 0.44179 0.66187 0.0
Mn1081 Mn 0.47286 0.53087 0.65855 0.0
C1082 C 0.49425 0.44347 0.65433 0.0
C1083 C 0.39029 0.38876 0.64371 0.0
C1084 C 0.44189 0.49484 0.70453 0.0
O1085 O 0.37965 0.48172 0.65661 0.0
O1086 O 0.41586 0.5375 0.64852 0.0
C1087 C 0.47092 0.54657 0.60715 0.0
N1088 N 0.49221 0.53955 0.62721 0.0
C1089 C 0.55456 0.54283 0.60599 0.0
C1090 C 0.53316 0.54908 0.58503 0.0
C1091 C 0.49115 0.55117 0.58564 0.0
C1092 C 0.53269 0.53819 0.62687 0.0
H1093 H 0.43879 0.54888 0.60759 0.0
C1094 C 0.38266 0.51803 0.64948 0.0
O1095 O 0.38874 0.39535 0.66622 0.0
O1096 O 0.41106 0.41447 0.63171 0.0
N1097 N 0.52824 0.52721 0.66728 0.0
C1098 C 0.54451 0.52389 0.68923 0.0
C1099 C 0.58635 0.52361 0.6919 0.0
C1100 C 0.61105 0.52723 0.672 0.0
C1101 C 0.59367 0.53172 0.64965 0.0
C1102 C 0.55178 0.53222 0.64813 0.0
H1103 H 0.52577 0.52172 0.70464 0.0
O1104 O 0.47748 0.4115 0.66279 0.0
O1105 O 0.47017 0.47366 0.65121 0.0
O1106 O 0.43241 0.46076 0.69597 0.0
O1107 O 0.4552 0.52388 0.69198 0.0
C1108 C 0.61627 0.53587 0.62884 0.0
C1109 C 0.59672 0.54124 0.60701 0.0
H1110 H 0.54869 0.55273 0.56841 0.0
H1111 H 0.47441 0.55647 0.56958 0.0
H1112 H 0.59951 0.52058 0.70925 0.0
H1113 H 0.64331 0.52677 0.6741 0.0
H1114 H 0.6487 0.53515 0.62944 0.0
H1115 H 0.61441 0.54453 0.59113 0.0
Mn1116 Mn 0.32632 0.66864 0.41397 0.0
Mn1117 Mn 0.2408 0.71749 0.40231 0.0
C1118 C 0.32831 0.73709 0.40608 0.0
C1119 C 0.3825 0.63442 0.39856 0.0
C1120 C 0.26342 0.68699 0.45161 0.0
O1121 O 0.28676 0.62339 0.40632 0.0
O1122 O 0.23441 0.66022 0.39298 0.0
C1123 C 0.2388 0.7127 0.35025 0.0
N1124 N 0.24 0.73523 0.37024 0.0
C1125 C 0.24039 0.79645 0.34773 0.0
C1126 C 0.23938 0.77388 0.32691 0.0
C1127 C 0.23854 0.73182 0.32819 0.0
C1128 C 0.24046 0.77572 0.36921 0.0
H1129 H 0.2382 0.68039 0.35113 0.0
C1130 C 0.25238 0.62669 0.39644 0.0
O1131 O 0.37252 0.63145 0.42064 0.0
O1132 O 0.3579 0.65451 0.38555 0.0
N1133 N 0.24438 0.77336 0.41014 0.0
C1134 C 0.24839 0.79083 0.43169 0.0
C1135 C 0.24883 0.83283 0.43351 0.0
C1136 C 0.24642 0.85649 0.41308 0.0
C1137 C 0.24377 0.83791 0.391 0.0
C1138 C 0.24229 0.79593 0.39034 0.0
H1139 H 0.2527 0.77294 0.44729 0.0
O1140 O 0.3576 0.71974 0.41703 0.0
O1141 O 0.29871 0.7136 0.4005 0.0
O1142 O 0.2996 0.67722 0.44651 0.0
O1143 O 0.23913 0.70032 0.43599 0.0
C1144 C 0.24336 0.8594 0.36961 0.0
C1145 C 0.24177 0.83868 0.34798 0.0
H1146 H 0.23937 0.78852 0.30985 0.0
H1147 H 0.23777 0.71417 0.3122 0.0
H1148 H 0.25206 0.8469 0.45058 0.0
H1149 H 0.24761 0.88887 0.41451 0.0
H1150 H 0.2447 0.89186 0.36958 0.0
H1151 H 0.24184 0.85552 0.33164 0.0
C1152 C 0.40566 0.02343 0.26449 0.0
C1153 C 0.43037 0.99409 0.27522 0.0
C1154 C 0.45431 0.97291 0.23598 0.0
C1155 C 0.43109 1.0044 0.2251 0.0
N1156 N 0.3711 0.04446 0.22914 0.0
N1157 N 0.48067 0.94292 0.27176 0.0
C1158 C 0.40303 0.02556 0.23943 0.0
C1159 C 0.45475 0.96903 0.26106 0.0
N1160 N 0.38502 0.04993 0.27822 0.0
N1161 N 0.47417 0.94466 0.22293 0.0
H1162 H 0.47991 0.93672 0.28971 0.0
H1163 H 0.50496 0.92964 0.26332 0.0
H1164 H 0.47831 0.94453 0.20491 0.0
H1165 H 0.48444 0.9177 0.22998 0.0
H1166 H 0.37039 0.07505 0.27145 0.0
H1167 H 0.38527 0.04869 0.29657 0.0
H1168 H 0.34779 0.05733 0.23869 0.0
H1169 H 0.36459 0.04209 0.21123 0.0
C1170 C 0.26903 0.14981 0.52196 0.0
C1171 C 0.25437 0.18306 0.53526 0.0
C1172 C 0.22001 0.2068 0.49907 0.0
C1173 C 0.24185 0.17903 0.48541 0.0
N1174 N 0.28594 0.12226 0.48367 0.0
N1175 N 0.21341 0.24423 0.5348 0.0
C1176 C 0.26621 0.15014 0.49683 0.0
C1177 C 0.22888 0.21161 0.52347 0.0
N1178 N 0.28266 0.11631 0.53336 0.0
N1179 N 0.18915 0.22763 0.48896 0.0
H1180 H 0.2103 0.24724 0.55283 0.0
H1181 H 0.20311 0.26948 0.52577 0.0
H1182 H 0.18105 0.22409 0.47139 0.0
H1183 H 0.16882 0.24486 0.49851 0.0
H1184 H 0.29056 0.08995 0.52473 0.0
H1185 H 0.28103 0.11274 0.55158 0.0
H1186 H 0.30841 0.10379 0.4904 0.0
H1187 H 0.28054 0.11879 0.46572 0.0
C1188 C 0.04948 0.96508 0.77253 0.0
C1189 C 0.0764 0.99244 0.78403 0.0
C1190 C 0.11064 1.00326 0.74591 0.0
C1191 C 0.08185 0.97895 0.73446 0.0
N1192 N 0.03365 0.92591 0.73771 0.0
N1193 N 0.14206 0.02307 0.7826 0.0
C1194 C 0.05415 0.95672 0.74803 0.0
C1195 C 0.10971 0.00752 0.77094 0.0
N1196 N 0.0189 0.94706 0.78448 0.0
N1197 N 0.13965 0.0215 0.73281 0.0
H1198 H 0.14453 0.02309 0.8009 0.0
H1199 H 0.1686 0.03149 0.77435 0.0
H1200 H 0.14469 0.0138 0.71527 0.0
H1201 H 0.158 0.04436 0.73913 0.0
H1202 H 0.99366 0.93541 0.77611 0.0
H1203 H 0.01851 0.94243 0.80252 0.0
H1204 H 0.01606 0.90545 0.74694 0.0
H1205 H 0.03786 0.91794 0.72017 0.0
C1206 C 0.22603 0.79858 0.99003 0.0
C1207 C 0.25526 0.82353 0.97849 0.0
C1208 C 0.27418 0.85063 0.01748 0.0
C1209 C 0.24349 0.82801 0.02849 0.0
N1210 N 0.18409 0.78744 0.02416 0.0
N1211 N 0.29403 0.88474 0.98181 0.0
C1212 C 0.21755 0.80436 0.01442 0.0
C1213 C 0.27573 0.85277 0.9924 0.0
N1214 N 0.20683 0.7681 0.97856 0.0
N1215 N 0.30176 0.87055 0.03084 0.0
H1216 H 0.29147 0.89075 0.96384 0.0
H1217 H 0.30657 0.9084 0.99127 0.0
H1218 H 0.30131 0.87033 0.0492 0.0
H1219 H 0.32703 0.88427 0.02363 0.0
H1220 H 0.19238 0.74489 0.98748 0.0
H1221 H 0.20563 0.76404 0.96054 0.0
H1222 H 0.16115 0.77475 0.01415 0.0
H1223 H 0.17725 0.78897 0.042 0.0
C1224 C 0.60874 0.98853 0.76946 0.0
C1225 C 0.57816 1.00651 0.78351 0.0
C1226 C 0.55549 0.04252 0.74758 0.0
C1227 C 0.58067 0.0183 0.73343 0.0
N1228 N 0.62764 0.96362 0.73097 0.0
N1229 N 0.51933 0.05082 0.78369 0.0
C1230 C 0.60595 0.98968 0.74439 0.0
C1231 C 0.55087 0.03379 0.77206 0.0
N1232 N 0.64228 0.97302 0.77989 0.0
N1233 N 0.536 0.07459 0.7378 0.0
H1234 H 0.51573 0.05224 0.80174 0.0
H1235 H 0.49492 0.06333 0.77486 0.0
H1236 H 0.53707 0.0815 0.71993 0.0
H1237 H 0.52165 0.09652 0.74777 0.0
H1238 H 0.66667 0.96239 0.77031 0.0
H1239 H 0.64837 0.97629 0.79781 0.0
H1240 H 0.64362 0.93968 0.73818 0.0
H1241 H 0.62671 0.96379 0.71262 0.0
C1242 C 0.71059 0.80708 0.5022 0.0
C1243 C 0.73179 0.83563 0.48863 0.0
C1244 C 0.76033 0.86359 0.52509 0.0
C1245 C 0.74639 0.82964 0.53809 0.0
N1246 N 0.70266 0.77091 0.53855 0.0
N1247 N 0.77258 0.89471 0.48705 0.0
C1248 C 0.71958 0.80219 0.52663 0.0
C1249 C 0.75553 0.86488 0.50009 0.0
N1250 N 0.68014 0.78588 0.49198 0.0
N1251 N 0.77523 0.89616 0.53683 0.0
H1252 H 0.76412 0.89999 0.46964 0.0
H1253 H 0.79506 0.91357 0.49331 0.0
H1254 H 0.77549 0.89829 0.55515 0.0
H1255 H 0.78282 0.92307 0.52868 0.0
H1256 H 0.66042 0.76755 0.50127 0.0
H1257 H 0.67153 0.79022 0.47455 0.0
H1258 H 0.69162 0.74542 0.53015 0.0
H1259 H 0.69827 0.77024 0.5566 0.0
C1260 C 0.95854 0.97668 0.27615 0.0
C1261 C 0.93009 1.00316 0.28683 0.0
C1262 C 0.89937 0.01223 0.24747 0.0
C1263 C 0.93354 0.99463 0.23685 0.0
N1264 N 0.99652 0.96035 0.24127 0.0
N1265 N 0.86821 0.0402 0.28234 0.0
C1266 C 0.96346 0.97724 0.25128 0.0
C1267 C 0.89907 0.01945 0.27232 0.0
N1268 N 0.97857 0.9483 0.28902 0.0
N1269 N 0.86619 0.01958 0.23401 0.0
H1270 H 0.86233 0.03954 0.30037 0.0
H1271 H 0.84838 0.05798 0.27273 0.0
H1272 H 0.86469 0.01161 0.21628 0.0
H1273 H 0.8389 0.02931 0.24077 0.0
H1274 H 0.99735 0.92699 0.28144 0.0
H1275 H 0.97186 0.94072 0.3063 0.0
H1276 H 0.02195 0.95235 0.25089 0.0
H1277 H 0.99947 0.95691 0.22317 0.0
C1278 C 0.79907 0.20239 1.00148 0.0
C1279 C 0.77106 0.18056 0.9877 0.0
C1280 C 0.7391 0.15736 0.02414 0.0
C1281 C 0.76094 0.18603 0.03767 0.0
N1282 N 0.81391 0.23691 0.03759 0.0
N1283 N 0.7111 0.14029 0.98613 0.0
C1284 C 0.79185 0.20855 0.02601 0.0
C1285 C 0.73995 0.15916 0.99909 0.0
N1286 N 0.83318 0.21706 0.99128 0.0
N1287 N 0.71979 0.12639 0.03511 0.0
H1288 H 0.71101 0.14016 0.96777 0.0
H1289 H 0.68555 0.12768 0.99369 0.0
H1290 H 0.72251 0.12086 0.05314 0.0
H1291 H 0.7061 0.10303 0.02595 0.0
H1292 H 0.85715 0.22857 1.00092 0.0
H1293 H 0.83943 0.21444 0.97341 0.0
H1294 H 0.83012 0.25904 0.02877 0.0
H1295 H 0.81605 0.23992 0.05568 0.0
C1296 C 0.94591 0.54326 0.75323 0.0
C1297 C 0.93268 0.51346 0.73719 0.0
C1298 C 0.90682 0.47387 0.77075 0.0
C1299 C 0.92393 0.50199 0.78677 0.0
N1300 N 0.93528 0.57327 0.79124 0.0
N1301 N 0.90119 0.44915 0.73063 0.0
C1302 C 0.93657 0.53964 0.77753 0.0
C1303 C 0.91336 0.47834 0.74594 0.0
N1304 N 0.96914 0.5744 0.74554 0.0
N1305 N 0.88005 0.44608 0.77889 0.0
H1306 H 0.90206 0.45241 0.71239 0.0
H1307 H 0.89232 0.42061 0.73596 0.0
H1308 H 0.86852 0.44693 0.79593 0.0
H1309 H 0.86423 0.42642 0.76812 0.0
H1310 H 0.98308 0.59442 0.75703 0.0
H1311 H 0.97808 0.57771 0.72806 0.0
H1312 H 0.9415 0.60187 0.78476 0.0
H1313 H 0.92112 0.57379 0.80759 0.0
C1314 C 0.72503 0.71586 0.02299 0.0
C1315 C 0.75181 0.68862 0.03486 0.0
C1316 C 0.77172 0.66184 0.99603 0.0
C1317 C 0.74384 0.6873 0.98453 0.0
N1318 N 0.68723 0.73191 0.98781 0.0
N1319 N 0.78614 0.6249 0.03167 0.0
C1320 C 0.71849 0.71211 0.99825 0.0
C1321 C 0.77111 0.65853 0.02107 0.0
N1322 N 0.70617 0.74643 0.03456 0.0
N1323 N 0.79868 0.64029 0.98315 0.0
H1324 H 0.78173 0.61851 0.04947 0.0
H1325 H 0.79761 0.6007 0.02224 0.0
H1326 H 0.79972 0.64123 0.96481 0.0
H1327 H 0.82218 0.62433 0.99083 0.0
H1328 H 0.69483 0.77148 0.02578 0.0
H1329 H 0.70126 0.74807 0.0525 0.0
H1330 H 0.66438 0.74575 0.9973 0.0
H1331 H 0.68194 0.73181 0.96976 0.0
C1332 C 0.60816 0.50076 0.27047 0.0
C1333 C 0.5844 0.53034 0.28163 0.0
C1334 C 0.55534 0.54856 0.24306 0.0
C1335 C 0.57977 0.51884 0.23167 0.0
N1336 N 0.64211 0.48206 0.23462 0.0
N1337 N 0.54357 0.58956 0.27762 0.0
C1338 C 0.60992 0.49941 0.24542 0.0
C1339 C 0.56069 0.55647 0.26762 0.0
N1340 N 0.62934 0.47383 0.28368 0.0
N1341 N 0.52609 0.56896 0.23117 0.0
H1342 H 0.54582 0.59616 0.29547 0.0
H1343 H 0.5303 0.61253 0.26789 0.0
H1344 H 0.52421 0.57192 0.21305 0.0
H1345 H 0.50259 0.58346 0.23973 0.0
H1346 H 0.64375 0.44906 0.27637 0.0
H1347 H 0.62987 0.47444 0.30203 0.0
H1348 H 0.66643 0.47035 0.24389 0.0
H1349 H 0.64733 0.4846 0.21656 0.0
C1350 C 0.7581 0.36502 0.52133 0.0
C1351 C 0.77122 0.3315 0.535 0.0
C1352 C 0.80322 0.30428 0.49904 0.0
C1353 C 0.78275 0.333 0.4851 0.0
N1354 N 0.74324 0.39306 0.48279 0.0
N1355 N 0.81273 0.27129 0.53636 0.0
C1356 C 0.76087 0.36402 0.49623 0.0
C1357 C 0.79599 0.30197 0.52381 0.0
N1358 N 0.74598 0.39926 0.53248 0.0
N1359 N 0.83136 0.28029 0.48873 0.0
H1360 H 0.81862 0.27229 0.55428 0.0
H1361 H 0.8221 0.24457 0.52863 0.0
H1362 H 0.83762 0.28161 0.47082 0.0
H1363 H 0.85106 0.26192 0.49802 0.0
H1364 H 0.73928 0.42589 0.52372 0.0
H1365 H 0.74757 0.4028 0.55071 0.0
H1366 H 0.72219 0.41326 0.48927 0.0
H1367 H 0.74891 0.39592 0.46482 0.0
C1368 C 0.08086 0.53814 0.27049 0.0
C1369 C 0.09162 0.49955 0.27916 0.0
C1370 C 0.09807 0.47673 0.23779 0.0
C1371 C 0.07991 0.51309 0.22992 0.0
N1372 N 0.04692 0.57523 0.23999 0.0
N1373 N 0.1296 0.44001 0.2699 0.0
C1374 C 0.06938 0.54285 0.24662 0.0
C1375 C 0.1053 0.47055 0.2625 0.0
N1376 N 0.08581 0.57134 0.28427 0.0
N1377 N 0.10898 0.44838 0.22163 0.0
H1378 H 0.1426 0.43944 0.28658 0.0
H1379 H 0.14211 0.41856 0.25886 0.0
H1380 H 0.10858 0.45345 0.20352 0.0
H1381 H 0.11697 0.41914 0.22599 0.0
H1382 H 0.08103 0.60041 0.27807 0.0
H1383 H 0.10127 0.57047 0.30024 0.0
H1384 H 0.03525 0.59557 0.25212 0.0
H1385 H 0.03622 0.57931 0.22289 0.0
C1386 C 0.24158 0.35549 0.01635 0.0
C1387 C 0.27084 0.33081 0.02717 0.0
C1388 C 0.2837 0.29835 0.98905 0.0
C1389 C 0.25546 0.32454 0.9776 0.0
N1390 N 0.22156 0.3887 0.98035 0.0
N1391 N 0.32819 0.28793 0.02226 0.0
C1392 C 0.23825 0.35616 0.99127 0.0
C1393 C 0.29458 0.30531 0.013 0.0
N1394 N 0.21724 0.37888 0.02992 0.0
N1395 N 0.2994 0.26561 0.97793 0.0
H1396 H 0.33738 0.29241 0.03958 0.0
H1397 H 0.34927 0.27276 0.01208 0.0
H1398 H 0.29622 0.25896 0.96027 0.0
H1399 H 0.31424 0.24277 0.98698 0.0
H1400 H 0.1925 0.39411 0.02311 0.0
H1401 H 0.22022 0.38087 0.04819 0.0
H1402 H 0.21145 0.41381 0.9895 0.0
H1403 H 0.22313 0.39335 0.96221 0.0
C1404 C 0.46564 0.47809 0.76985 0.0
C1405 C 0.43855 0.50565 0.78108 0.0
C1406 C 0.41244 0.52481 0.74172 0.0
C1407 C 0.44088 0.4994 0.73077 0.0
N1408 N 0.49857 0.45675 0.73404 0.0
N1409 N 0.37542 0.54053 0.77715 0.0
C1410 C 0.46819 0.4772 0.74478 0.0
C1411 C 0.40909 0.52518 0.76682 0.0
N1412 N 0.48728 0.45044 0.78244 0.0
N1413 N 0.38895 0.54923 0.72816 0.0
H1414 H 0.36902 0.5368 0.795 0.0
H1415 H 0.35114 0.55183 0.7677 0.0
H1416 H 0.38991 0.54916 0.70981 0.0
H1417 H 0.37108 0.57197 0.73508 0.0
H1418 H 0.50168 0.42615 0.77463 0.0
H1419 H 0.48847 0.44746 0.80054 0.0
H1420 H 0.52386 0.44609 0.74284 0.0
H1421 H 0.50042 0.45364 0.71588 0.0
C1422 C 0.21093 0.70196 0.51221 0.0
C1423 C 0.2339 0.67548 0.52627 0.0
C1424 C 0.26452 0.64819 0.49024 0.0
C1425 C 0.24861 0.68067 0.47671 0.0
N1426 N 0.20146 0.73682 0.47555 0.0
N1427 N 0.27955 0.62013 0.52876 0.0
C1428 C 0.21999 0.70678 0.48778 0.0
C1429 C 0.25993 0.64774 0.51526 0.0
N1430 N 0.1789 0.72127 0.52199 0.0
N1431 N 0.28119 0.616 0.47902 0.0
H1432 H 0.27209 0.61532 0.54636 0.0
H1433 H 0.30336 0.60283 0.52268 0.0
H1434 H 0.28126 0.61294 0.46075 0.0
H1435 H 0.29031 0.58997 0.48764 0.0
H1436 H 0.15799 0.73766 0.51231 0.0
H1437 H 0.1705 0.71718 0.53947 0.0
H1438 H 0.18873 0.76167 0.48377 0.0
H1439 H 0.19759 0.73729 0.45746 0.0
C1440 C 0.3313 0.97696 0.11128 0.0
C1441 C 0.33958 0.97811 0.1358 0.0
C1442 C 0.28508 0.9305 0.14315 0.0
C1443 C 0.28203 0.92383 0.11854 0.0
N1444 N 0.29844 0.94258 0.0788 0.0
N1445 N 0.32472 0.95706 0.17546 0.0
C1446 C 0.3037 0.94805 0.10245 0.0
C1447 C 0.31609 0.95569 0.15192 0.0
N1448 N 0.3496 1.00389 0.09663 0.0
N1449 N 0.25788 0.91316 0.15798 0.0
H1450 H 0.34636 0.9762 0.18252 0.0
H1451 H 0.312 0.93786 0.18786 0.0
H1452 H 0.23464 0.89494 0.1519 0.0
H1453 H 0.25609 0.91952 0.1759 0.0
H1454 H 0.34289 1.00699 0.07881 0.0
H1455 H 0.36958 0.02558 0.10279 0.0
H1456 H 0.31649 0.95553 0.06593 0.0
H1457 H 0.27614 0.92394 0.07201 0.0
C1458 C 0.29046 0.0855 0.36804 0.0
C1459 C 0.2966 0.09607 0.3921 0.0
C1460 C 0.34996 0.04594 0.39501 0.0
C1461 C 0.34837 0.04024 0.37033 0.0
N1462 N 0.31694 0.05305 0.33295 0.0
N1463 N 0.33664 0.09082 0.42741 0.0
C1464 C 0.31822 0.05927 0.35673 0.0
C1465 C 0.32747 0.07739 0.40534 0.0
N1466 N 0.25845 0.10092 0.35598 0.0
N1467 N 0.37225 0.02056 0.40867 0.0
H1468 H 0.32185 0.11484 0.43518 0.0
H1469 H 0.36146 0.08084 0.43692 0.0
H1470 H 0.38845 0.99665 0.4016 0.0
H1471 H 0.37156 0.0209 0.42703 0.0
H1472 H 0.24981 0.09131 0.33929 0.0
H1473 H 0.23885 0.12191 0.36318 0.0
H1474 H 0.2991 0.06951 0.3214 0.0
H1475 H 0.33515 0.03203 0.3246 0.0
C1476 C 0.18543 0.0721 0.66047 0.0
C1477 C 0.16773 0.04306 0.64545 0.0
C1478 C 0.20474 0.07138 0.61182 0.0
C1479 C 0.22385 0.09876 0.6273 0.0
N1480 N 0.24222 0.11585 0.66703 0.0
N1481 N 0.16505 0.01079 0.6074 0.0
C1482 C 0.21732 0.09611 0.65187 0.0
C1483 C 0.17919 0.04108 0.62132 0.0
N1484 N 0.17062 0.07826 0.68257 0.0
N1485 N 0.20941 0.07559 0.58802 0.0
H1486 H 0.14471 0.9893 0.61333 0.0
H1487 H 0.17557 1.00527 0.59045 0.0
H1488 H 0.22822 0.09711 0.58057 0.0
H1489 H 0.19276 0.05968 0.57565 0.0
H1490 H 0.18017 0.10158 0.69341 0.0
H1491 H 0.14581 0.06288 0.68899 0.0
H1492 H 0.24097 0.1122 0.68526 0.0
H1493 H 0.26682 0.13245 0.66119 0.0
C1494 C 0.17656 0.97157 0.89642 0.0
C1495 C 0.16735 0.97207 0.872 0.0
C1496 C 0.21958 0.92196 0.86491 0.0
C1497 C 0.22313 0.916 0.88956 0.0
N1498 N 0.2059 0.93484 0.9292 0.0
N1499 N 0.17895 0.94736 0.83273 0.0
C1500 C 0.20237 0.9412 0.90549 0.0
C1501 C 0.18902 0.94762 0.85608 0.0
N1502 N 0.16065 1.00027 0.91079 0.0
N1503 N 0.24574 0.90326 0.85003 0.0
H1504 H 0.1571 0.96622 0.82565 0.0
H1505 H 0.19037 0.92681 0.82068 0.0
H1506 H 0.26869 0.88466 0.85613 0.0
H1507 H 0.2471 0.90904 0.83201 0.0
H1508 H 0.16866 1.00378 0.92841 0.0
H1509 H 0.14194 0.02296 0.90445 0.0
H1510 H 0.18807 0.94901 0.94172 0.0
H1511 H 0.22547 0.91364 0.93635 0.0
C1512 C 0.6989 0.06595 0.91014 0.0
C1513 C 0.72018 0.09249 0.89516 0.0
C1514 C 0.68754 0.0633 0.86041 0.0
C1515 C 0.66517 0.03776 0.87542 0.0
N1516 N 0.65568 0.00747 0.91354 0.0
N1517 N 0.74413 0.10849 0.85622 0.0
C1518 C 0.67285 0.03678 0.90002 0.0
C1519 C 0.71746 0.08863 0.8703 0.0
N1520 N 0.70323 0.06918 0.934 0.0
N1521 N 0.67914 0.06437 0.83682 0.0
H1522 H 0.76658 0.12702 0.86295 0.0
H1523 H 0.74631 0.10401 0.83812 0.0
H1524 H 0.6585 0.04511 0.82889 0.0
H1525 H 0.69088 0.08573 0.82534 0.0
H1526 H 0.68521 0.05434 0.94616 0.0
H1527 H 0.72446 0.08801 0.94169 0.0
H1528 H 0.66247 1.00269 0.93122 0.0
H1529 H 0.63666 0.98566 0.90654 0.0
C1530 C 0.69899 0.96064 0.65793 0.0
C1531 C 0.67248 0.97994 0.64201 0.0
C1532 C 0.70077 0.94217 0.609 0.0
C1533 C 0.72599 0.92137 0.62501 0.0
N1534 N 0.75682 0.9171 0.6633 0.0
N1535 N 0.65758 0.99964 0.60219 0.0
C1536 C 0.72762 0.93275 0.64909 0.0
C1537 C 0.67647 0.97409 0.61742 0.0
N1538 N 0.69596 0.96831 0.6815 0.0
N1539 N 0.69859 0.93017 0.58602 0.0
H1540 H 0.64031 0.02377 0.60802 0.0
H1541 H 0.66202 0.99929 0.58403 0.0
H1542 H 0.71635 0.90724 0.57921 0.0
H1543 H 0.67743 0.94108 0.57412 0.0
H1544 H 0.71075 0.95191 0.69448 0.0
H1545 H 0.67744 0.99082 0.68812 0.0
H1546 H 0.76191 0.92633 0.68056 0.0
H1547 H 0.77824 0.89686 0.65716 0.0
C1548 C 0.81784 0.94337 0.41287 0.0
C1549 C 0.78876 0.92457 0.39833 0.0
C1550 C 0.81503 0.96152 0.36404 0.0
C1551 C 0.84312 0.98088 0.37896 0.0
N1552 N 0.86128 1.00083 0.41822 0.0
N1553 N 0.75468 0.92107 0.36082 0.0
C1554 C 0.84115 0.97527 0.40362 0.0
C1555 C 0.78544 0.93577 0.37418 0.0
N1556 N 0.82491 0.92942 0.43511 0.0
N1557 N 0.81799 0.96601 0.34017 0.0
H1558 H 0.73361 0.9008 0.3673 0.0
H1559 H 0.74831 0.93116 0.34385 0.0
H1560 H 0.83869 0.98525 0.33229 0.0
H1561 H 0.80162 0.94909 0.32813 0.0
H1562 H 0.8484 0.93967 0.44561 0.0
H1563 H 0.81002 0.90469 0.44204 0.0
H1564 H 0.85825 1.00029 0.43649 0.0
H1565 H 0.87761 0.02523 0.4118 0.0
C1566 C 0.80697 0.07196 0.11317 0.0
C1567 C 0.78735 0.09966 0.12816 0.0
C1568 C 0.82407 0.07355 0.16219 0.0
C1569 C 0.84323 0.04512 0.14749 0.0
N1570 N 0.84722 0.01149 0.10994 0.0
N1571 N 0.76666 0.11698 0.16743 0.0
C1572 C 0.83248 0.0422 0.12329 0.0
C1573 C 0.79245 0.09713 0.15288 0.0
N1574 N 0.80305 0.0755 0.08928 0.0
N1575 N 0.83742 0.07972 0.18464 0.0
H1576 H 0.74245 0.13354 0.16097 0.0
H1577 H 0.76685 0.11356 0.18569 0.0
H1578 H 0.86176 0.06428 0.19169 0.0
H1579 H 0.82695 0.10283 0.19533 0.0
H1580 H 0.82022 0.05934 0.07729 0.0
H1581 H 0.78416 0.0965 0.08135 0.0
H1582 H 0.83755 1.0055 0.09285 0.0
H1583 H 0.86694 0.99 0.11659 0.0
C1584 C 0.79138 0.4284 0.64997 0.0
C1585 C 0.79279 0.41948 0.62554 0.0
C1586 C 0.84395 0.4714 0.62002 0.0
C1587 C 0.84777 0.47483 0.64483 0.0
N1588 N 0.82462 0.45836 0.68379 0.0
N1589 N 0.82102 0.43119 0.58708 0.0
C1590 C 0.821 0.45413 0.65994 0.0
C1591 C 0.81891 0.44098 0.61042 0.0
N1592 N 0.76125 0.41281 0.66346 0.0
N1593 N 0.86365 0.49782 0.60571 0.0
H1594 H 0.80257 0.40962 0.57938 0.0
H1595 H 0.84273 0.44251 0.5757 0.0
H1596 H 0.88165 0.52083 0.61232 0.0
H1597 H 0.85927 0.49934 0.58756 0.0
H1598 H 0.75629 0.42075 0.68095 0.0
H1599 H 0.73892 0.39438 0.65649 0.0
H1600 H 0.80946 0.44056 0.69595 0.0
H1601 H 0.84429 0.47887 0.69146 0.0
C1602 C 0.83295 0.5335 0.90187 0.0
C1603 C 0.8412 0.5332 0.87734 0.0
C1604 C 0.78868 0.58333 0.87074 0.0
C1605 C 0.78567 0.58881 0.89545 0.0
N1606 N 0.80095 0.56728 0.93487 0.0
N1607 N 0.82733 0.55687 0.83806 0.0
C1608 C 0.80628 0.56291 0.91115 0.0
C1609 C 0.81872 0.55742 0.8616 0.0
N1610 N 0.85061 0.50549 0.91613 0.0
N1611 N 0.76226 0.60245 0.85613 0.0
H1612 H 0.84801 0.53705 0.83069 0.0
H1613 H 0.81559 0.57729 0.82599 0.0
H1614 H 0.73966 0.62121 0.86245 0.0
H1615 H 0.76037 0.59713 0.83809 0.0
H1616 H 0.84394 0.50184 0.93391 0.0
H1617 H 0.87013 0.48367 0.90969 0.0
H1618 H 0.81824 0.5529 0.94759 0.0
H1619 H 0.77925 0.58634 0.94185 0.0
C1620 C 0.69803 0.57519 0.10888 0.0
C1621 C 0.72004 0.59878 0.12514 0.0
C1622 C 0.68751 0.56454 0.15826 0.0
C1623 C 0.66477 0.54159 0.142 0.0
N1624 N 0.65585 0.51672 0.10258 0.0
N1625 N 0.74443 0.60865 0.16464 0.0
C1626 C 0.67252 0.54423 0.11749 0.0
C1627 C 0.71763 0.59099 0.14967 0.0
N1628 N 0.70038 0.58342 0.08531 0.0
N1629 N 0.67895 0.56251 0.18178 0.0
H1630 H 0.76693 0.62796 0.15875 0.0
H1631 H 0.74673 0.60149 0.18246 0.0
H1632 H 0.65775 0.5428 0.18872 0.0
H1633 H 0.69109 0.58191 0.19425 0.0
H1634 H 0.68168 0.5705 0.07274 0.0
H1635 H 0.7198 0.60496 0.07841 0.0
H1636 H 0.66288 0.5147 0.08476 0.0
H1637 H 0.63763 0.4934 0.10859 0.0
C1638 C 0.69504 0.43573 0.4075 0.0
C1639 C 0.72564 0.41829 0.39358 0.0
C1640 C 0.7022 0.45704 0.35919 0.0
C1641 C 0.67233 0.47486 0.37349 0.0
N1642 N 0.65033 0.49217 0.41256 0.0
N1643 N 0.76242 0.41614 0.35699 0.0
C1644 C 0.67189 0.46763 0.39808 0.0
C1645 C 0.73069 0.43042 0.36968 0.0
N1646 N 0.68678 0.4208 0.42938 0.0
N1647 N 0.70256 0.46477 0.33555 0.0
H1648 H 0.78259 0.39508 0.36365 0.0
H1649 H 0.77029 0.42677 0.34038 0.0
H1650 H 0.68381 0.48605 0.32781 0.0
H1651 H 0.72019 0.44928 0.3235 0.0
H1652 H 0.66219 0.42993 0.43931 0.0
H1653 H 0.70206 0.39644 0.43655 0.0
H1654 H 0.65194 0.49066 0.43088 0.0
H1655 H 0.63394 0.51659 0.40622 0.0
C1656 C 0.18269 0.53624 0.39459 0.0
C1657 C 0.17725 0.53286 0.36988 0.0
C1658 C 0.23144 0.58139 0.3635 0.0
C1659 C 0.23155 0.59006 0.38797 0.0
N1660 N 0.20708 0.57669 0.42712 0.0
N1661 N 0.19595 0.55161 0.33043 0.0
C1662 C 0.20759 0.56727 0.40369 0.0
C1663 C 0.20194 0.55483 0.35419 0.0
N1664 N 0.16401 0.50963 0.40926 0.0
N1665 N 0.25978 0.5984 0.34929 0.0
H1666 H 0.17562 0.53135 0.32311 0.0
H1667 H 0.20955 0.57026 0.31808 0.0
H1668 H 0.2819 0.61759 0.35579 0.0
H1669 H 0.26363 0.59087 0.33165 0.0
H1670 H 0.16935 0.5081 0.42732 0.0
H1671 H 0.14574 0.48658 0.40297 0.0
H1672 H 0.18685 0.56446 0.43909 0.0
H1673 H 0.22549 0.59872 0.43439 0.0
C1674 C 0.22701 0.45442 0.12573 0.0
C1675 C 0.21424 0.41634 0.11676 0.0
C1676 C 0.14855 0.42979 0.13342 0.0
C1677 C 0.1579 0.47082 0.13762 0.0
N1678 N 0.20691 0.52359 0.12954 0.0
N1679 N 0.15506 0.38025 0.10328 0.0
C1680 C 0.19736 0.48389 0.13132 0.0
C1681 C 0.17254 0.40793 0.11768 0.0
N1682 N 0.26639 0.46269 0.1301 0.0
N1683 N 0.11859 0.41038 0.14515 0.0
H1684 H 0.16993 0.36769 0.08892 0.0
H1685 H 0.12423 0.37487 0.10365 0.0
H1686 H 0.1047 0.4223 0.16002 0.0
H1687 H 0.11262 0.38 0.14236 0.0
H1688 H 0.27542 0.48935 0.13812 0.0
H1689 H 0.28932 0.44178 0.12892 0.0
H1690 H 0.23483 0.53319 0.12352 0.0
H1691 H 0.1861 0.54666 0.13066 0.0
C1692 C 0.33916 0.46622 0.89495 0.0
C1693 C 0.34549 0.4685 0.87026 0.0
C1694 C 0.29133 0.42023 0.86379 0.0
C1695 C 0.29012 0.41278 0.8884 0.0
N1696 N 0.31242 0.4279 0.92778 0.0
N1697 N 0.3284 0.44814 0.83082 0.0
C1698 C 0.3135 0.43597 0.90416 0.0
C1699 C 0.32137 0.44606 0.85451 0.0
N1700 N 0.35737 0.49339 0.90946 0.0
N1701 N 0.26332 0.40298 0.84941 0.0
H1702 H 0.34934 0.46772 0.82345 0.0
H1703 H 0.31514 0.42904 0.81858 0.0
H1704 H 0.24076 0.38422 0.8558 0.0
H1705 H 0.2602 0.40993 0.83161 0.0
H1706 H 0.35134 0.49575 0.92739 0.0
H1707 H 0.376 0.51609 0.90309 0.0
H1708 H 0.33216 0.44045 0.93993 0.0
H1709 H 0.29307 0.40674 0.93515 0.0
C1710 C 0.34663 0.5442 0.61431 0.0
C1711 C 0.34703 0.53797 0.63895 0.0
C1712 C 0.2886 0.58228 0.64281 0.0
C1713 C 0.29319 0.59392 0.61877 0.0
N1714 N 0.33119 0.59007 0.58267 0.0
N1715 N 0.31778 0.549 0.67703 0.0
C1716 C 0.32331 0.57582 0.60474 0.0
C1717 C 0.3174 0.55598 0.65331 0.0
N1718 N 0.3681 0.5193 0.60001 0.0
N1719 N 0.25727 0.59697 0.65567 0.0
H1720 H 0.33679 0.52791 0.68476 0.0
H1721 H 0.30044 0.56478 0.68909 0.0
H1722 H 0.2371 0.61808 0.64908 0.0
H1723 H 0.24979 0.58667 0.67241 0.0
H1724 H 0.36612 0.52007 0.58168 0.0
H1725 H 0.38482 0.4953 0.60662 0.0
H1726 H 0.35543 0.58043 0.5726 0.0
H1727 H 0.3161 0.61447 0.57545 0.0
C1728 C 0.38176 0.1814 0.10947 0.0
C1729 C 0.36688 0.16675 0.13149 0.0
C1730 C 0.331 0.23068 0.1359 0.0
C1731 C 0.33938 0.24097 0.11207 0.0
N1732 N 0.36604 0.21985 0.07463 0.0
N1733 N 0.31777 0.17586 0.16259 0.0
C1734 C 0.3621 0.21398 0.0983 0.0
C1735 C 0.33844 0.19079 0.14378 0.0
N1736 N 0.417 0.16782 0.10018 0.0
N1737 N 0.31799 0.25903 0.15145 0.0
H1738 H 0.31687 0.14543 0.16669 0.0
H1739 H 0.29696 0.19267 0.172 0.0
H1740 H 0.31426 0.2891 0.14699 0.0
H1741 H 0.3151 0.25339 0.16944 0.0
H1742 H 0.42936 0.17982 0.08484 0.0
H1743 H 0.43744 0.15035 0.10948 0.0
H1744 H 0.37976 0.19892 0.06364 0.0
H1745 H 0.35172 0.24324 0.06585 0.0
C1746 C 0.07467 0.08486 0.40068 0.0
C1747 C 0.10606 0.09874 0.38587 0.0
C1748 C 0.06125 0.09224 0.35153 0.0
C1749 C 0.0287 0.08392 0.36692 0.0
N1750 N 1.00325 0.08135 0.40681 0.0
N1751 N 0.1334 0.09847 0.34674 0.0
C1752 C 0.03509 0.08258 0.39167 0.0
C1753 C 0.10053 0.09774 0.36106 0.0
N1754 N 0.0828 0.07107 0.42286 0.0
N1755 N 0.0544 0.0959 0.32786 0.0
H1756 H 0.16251 0.09775 0.35345 0.0
H1757 H 0.13228 0.09458 0.32857 0.0
H1758 H 0.02669 0.08982 0.32014 0.0
H1759 H 0.07551 0.1067 0.31596 0.0
H1760 H 0.06106 0.0594 0.43408 0.0
H1761 H 0.11172 0.06422 0.42846 0.0
H1762 H 1.00619 0.08509 0.42495 0.0
H1763 H 0.9735 0.0808 0.40129 0.0
C1764 C 0.18217 0.82584 0.6405 0.0
C1765 C 0.15271 0.84946 0.62866 0.0
C1766 C 0.15471 0.80008 0.59643 0.0
C1767 C 0.17712 0.77316 0.61059 0.0
N1768 N 0.20168 0.75796 0.64981 0.0
N1769 N 0.10277 0.84976 0.59698 0.0
C1770 C 0.18797 0.78522 0.63373 0.0
C1771 C 0.13688 0.83447 0.6069 0.0
N1772 N 0.20519 0.842 0.65797 0.0
N1773 N 0.14957 0.79254 0.57302 0.0
H1774 H 0.08419 0.87071 0.60487 0.0
H1775 H 0.0893 0.83699 0.5822 0.0
H1776 H 0.16244 0.7678 0.56485 0.0
H1777 H 0.13662 0.8132 0.56148 0.0
H1778 H 0.22674 0.82563 0.66715 0.0
H1779 H 0.20683 0.87281 0.66093 0.0
H1780 H 0.20646 0.7652 0.66746 0.0
H1781 H 0.20421 0.72743 0.64629 0.0
C1782 C 0.47614 0.92773 0.88937 0.0
C1783 C 0.48609 0.92211 0.86526 0.0
C1784 C 0.42566 0.88129 0.8609 0.0
C1785 C 0.41166 0.89349 0.88364 0.0
N1786 N 0.42167 0.93938 0.91635 0.0
N1787 N 0.46435 0.90053 0.82673 0.0
C1788 C 0.43618 0.9203 0.89689 0.0
C1789 C 0.45854 0.90175 0.85054 0.0
N1790 N 0.50482 0.93791 0.90546 0.0
N1791 N 0.41129 0.84768 0.85001 0.0
H1792 H 0.48825 0.91494 0.81845 0.0
H1793 H 0.44298 0.88883 0.8152 0.0
H1794 H 0.39362 0.82625 0.85829 0.0
H1795 H 0.42284 0.83722 0.8341 0.0
H1796 H 0.49921 0.93873 0.92352 0.0
H1797 H 0.53498 0.94119 0.90121 0.0
H1798 H 0.43902 0.9586 0.92659 0.0
H1799 H 0.39122 0.94093 0.92022 0.0
C1800 C 0.34223 0.81126 0.40895 0.0
C1801 C 0.33583 0.77674 0.39479 0.0
C1802 C 0.36315 0.81315 0.36078 0.0
C1803 C 0.36419 0.84921 0.37417 0.0
N1804 N 0.34555 0.88377 0.40986 0.0
N1805 N 0.33581 0.74665 0.35595 0.0
C1806 C 0.35104 0.84864 0.39795 0.0
C1807 C 0.34414 0.77854 0.37024 0.0
N1808 N 0.34078 0.80837 0.43294 0.0
N1809 N 0.38381 0.81034 0.34003 0.0
H1810 H 0.32527 0.71919 0.36204 0.0
H1811 H 0.3365 0.74863 0.33762 0.0
H1812 H 0.4019 0.83314 0.3334 0.0
H1813 H 0.38745 0.78352 0.3309 0.0
H1814 H 0.34953 0.83163 0.44407 0.0
H1815 H 0.33322 0.78193 0.44173 0.0
H1816 H 0.33274 0.88507 0.42658 0.0
H1817 H 0.34949 0.91183 0.40204 0.0
C1818 C 0.41546 0.09897 0.65147 0.0
C1819 C 0.41448 0.11045 0.62735 0.0
C1820 C 0.4852 0.09046 0.62389 0.0
C1821 C 0.48762 0.08536 0.64878 0.0
N1822 N 0.45581 0.09233 0.68669 0.0
N1823 N 0.45281 0.12636 0.59225 0.0
C1824 C 0.45298 0.09202 0.6627 0.0
C1825 C 0.45032 0.10815 0.61383 0.0
N1826 N 0.38048 0.09339 0.66352 0.0
N1827 N 0.51659 0.08009 0.60972 0.0
H1828 H 0.42987 0.14323 0.58478 0.0
H1829 H 0.47957 0.12917 0.58297 0.0
H1830 H 0.54405 0.06989 0.61595 0.0
H1831 H 0.51403 0.07844 0.59143 0.0
H1832 H 0.37946 0.08214 0.68065 0.0
H1833 H 0.35243 0.09541 0.65548 0.0
H1834 H 0.43241 0.10138 0.6976 0.0
H1835 H 0.48235 0.08587 0.69557 0.0
C1836 C 0.16983 0.18687 0.86025 0.0
C1837 C 0.14217 0.16235 0.87292 0.0
C1838 C 0.14902 0.20833 0.90651 0.0
C1839 C 0.17123 0.23568 0.89263 0.0
N1840 N 0.18983 0.25551 0.85306 0.0
N1841 N 0.0931 0.16349 0.9048 0.0
C1842 C 0.17795 0.22643 0.8685 0.0
C1843 C 0.12839 0.17652 0.89528 0.0
N1844 N 0.18905 0.17283 0.84073 0.0
N1845 N 0.14612 0.21335 0.93032 0.0
H1846 H 0.07175 0.14741 0.89535 0.0
H1847 H 0.08163 0.175 0.92048 0.0
H1848 H 0.16072 0.2364 0.93931 0.0
H1849 H 0.13264 0.19203 0.94122 0.0
H1850 H 0.20921 0.1901 0.83107 0.0
H1851 H 0.18956 0.14268 0.83608 0.0
H1852 H 0.19144 0.25074 0.83493 0.0
H1853 H 0.19394 0.28534 0.85792 0.0
C1854 C 0.09554 0.91815 0.1479 0.0
C1855 C 0.09407 0.90689 0.12379 0.0
C1856 C 0.02429 0.93054 0.12223 0.0
C1857 C 0.02397 0.93465 0.14717 0.0
N1858 N 0.05813 0.92376 0.18411 0.0
N1859 N 0.05247 0.89424 0.08948 0.0
C1860 C 0.05926 0.92587 0.16013 0.0
C1861 C 0.05743 0.91145 0.11115 0.0
N1862 N 0.13158 0.9226 0.15904 0.0
N1863 N 0.99239 0.94313 0.10904 0.0
H1864 H 0.074 0.87656 0.08131 0.0
H1865 H 0.02494 0.8932 0.08081 0.0
H1866 H 0.96636 0.95507 0.11625 0.0
H1867 H 0.99334 0.945 0.09071 0.0
H1868 H 0.1342 0.93332 0.17621 0.0
H1869 H 0.15887 0.92037 0.1502 0.0
H1870 H 0.08219 0.91363 0.19425 0.0
H1871 H 0.03208 0.92904 0.19362 0.0
C1872 C 0.67619 0.81054 0.91013 0.0
C1873 C 0.68329 0.77574 0.89639 0.0
C1874 C 0.65935 0.81204 0.86134 0.0
C1875 C 0.65597 0.84799 0.87477 0.0
N1876 N 0.67379 0.88304 0.91048 0.0
N1877 N 0.68915 0.74622 0.85763 0.0
C1878 C 0.66836 0.84772 0.89872 0.0
C1879 C 0.67806 0.77771 0.87155 0.0
N1880 N 0.67594 0.80812 0.93412 0.0
N1881 N 0.64127 0.8088 0.83979 0.0
H1882 H 0.70054 0.71941 0.86421 0.0
H1883 H 0.69036 0.74821 0.83931 0.0
H1884 H 0.62391 0.83125 0.83218 0.0
H1885 H 0.63927 0.78186 0.83059 0.0
H1886 H 0.66654 0.83159 0.94489 0.0
H1887 H 0.68297 0.78183 0.94311 0.0
H1888 H 0.68557 0.88451 0.92747 0.0
H1889 H 0.67116 0.91091 0.90225 0.0
C1890 C 0.96288 0.90091 0.65969 0.0
C1891 C 0.98901 0.92584 0.64664 0.0
C1892 C 0.9384 0.92808 0.61512 0.0
C1893 C 0.91583 0.89742 0.62655 0.0
N1894 N 0.91991 0.84387 0.6558 0.0
N1895 N 1.00557 0.95239 0.60806 0.0
C1896 C 0.93143 0.88087 0.64789 0.0
C1897 C 0.97802 0.93654 0.62319 0.0
N1898 N 0.96884 0.89496 0.6832 0.0
N1899 N 0.92241 0.94967 0.59696 0.0
H1900 H 0.03543 0.95709 0.61262 0.0
H1901 H 0.99954 0.95709 0.59024 0.0
H1902 H 0.89229 0.94819 0.59226 0.0
H1903 H 0.93784 0.97284 0.58861 0.0
H1904 H 0.9486 0.87911 0.69367 0.0
H1905 H 0.99138 0.90971 0.69243 0.0
H1906 H 0.93262 0.83044 0.67065 0.0
H1907 H 0.90357 0.82368 0.64563 0.0
C1908 C 0.85665 0.20989 0.41265 0.0
C1909 C 0.84379 0.24209 0.39809 0.0
C1910 C 0.84191 0.19612 0.36407 0.0
C1911 C 0.85855 0.16516 0.37827 0.0
N1912 N 0.86098 0.13792 0.41754 0.0
N1913 N 0.83114 0.2674 0.35881 0.0
C1914 C 0.85997 0.17068 0.40305 0.0
C1915 C 0.83799 0.23556 0.37351 0.0
N1916 N 0.86709 0.21682 0.43554 0.0
N1917 N 0.82674 0.18737 0.34232 0.0
H1918 H 0.8289 0.2969 0.36465 0.0
H1919 H 0.83147 0.2652 0.34051 0.0
H1920 H 0.82269 0.15807 0.33648 0.0
H1921 H 0.81183 0.20813 0.33177 0.0
H1922 H 0.88089 0.19545 0.44623 0.0
H1923 H 0.8653 0.24501 0.44321 0.0
H1924 H 0.85862 0.13966 0.43581 0.0
H1925 H 0.85792 0.10877 0.41112 0.0
C1926 C 0.58763 0.12168 0.1512 0.0
C1927 C 0.60261 0.11283 0.12813 0.0
C1928 C 0.54022 0.07621 0.12035 0.0
C1929 C 0.52861 0.08011 0.14427 0.0
N1930 N 0.54825 0.09707 0.1839 0.0
N1931 N 0.59699 0.06757 0.09471 0.0
C1932 C 0.55525 0.09884 0.16022 0.0
C1933 C 0.5803 0.08543 0.11395 0.0
N1934 N 0.60027 0.15432 0.16375 0.0
N1935 N 0.51295 0.0664 0.10337 0.0
H1936 H 0.62769 0.06804 0.09144 0.0
H1937 H 0.58128 0.04744 0.08414 0.0
H1938 H 0.48272 0.06164 0.10691 0.0
H1939 H 0.51995 0.0668 0.08546 0.0
H1940 H 0.58783 0.16213 0.17995 0.0
H1941 H 0.61722 0.17759 0.15682 0.0
H1942 H 0.56882 0.10766 0.19627 0.0
H1943 H 0.52407 0.08138 0.19104 0.0
C1944 C 0.66693 0.20874 0.60108 0.0
C1945 C 0.67402 0.24314 0.61518 0.0
C1946 C 0.64814 0.20661 0.64961 0.0
C1947 C 0.64707 0.17049 0.6363 0.0
N1948 N 0.66375 0.13623 0.60012 0.0
N1949 N 0.67478 0.27348 0.65397 0.0
C1950 C 0.65867 0.17129 0.6122 0.0
C1951 C 0.66632 0.24143 0.63982 0.0
N1952 N 0.66793 0.2117 0.57708 0.0
N1953 N 0.6284 0.20919 0.67067 0.0
H1954 H 0.68447 0.30115 0.64771 0.0
H1955 H 0.67489 0.27155 0.6723 0.0
H1956 H 0.61088 0.18619 0.67758 0.0
H1957 H 0.62483 0.23597 0.67986 0.0
H1958 H 0.65868 0.18861 0.56597 0.0
H1959 H 0.67553 0.2381 0.56827 0.0
H1960 H 0.67504 0.13502 0.58303 0.0
H1961 H 0.66134 0.10811 0.60805 0.0
C1962 C 0.53633 0.93746 0.38364 0.0
C1963 C 0.52752 0.92857 0.35967 0.0
C1964 C 0.5882 0.88708 0.35845 0.0
C1965 C 0.60044 0.90149 0.3811 0.0
N1966 N 0.58973 0.9527 0.4108 0.0
N1967 N 0.55203 0.90293 0.32272 0.0
C1968 C 0.57575 0.93071 0.39226 0.0
C1969 C 0.55601 0.90644 0.34654 0.0
N1970 N 0.50709 0.95006 0.39872 0.0
N1971 N 0.60387 0.8529 0.3489 0.0
H1972 H 0.52902 0.91692 0.31348 0.0
H1973 H 0.57406 0.89004 0.31214 0.0
H1974 H 0.62246 0.83309 0.35783 0.0
H1975 H 0.59317 0.84064 0.33321 0.0
H1976 H 0.51207 0.95345 0.41675 0.0
H1977 H 0.47709 0.95273 0.39398 0.0
H1978 H 0.57232 0.97389 0.41954 0.0
H1979 H 0.62005 0.95423 0.41512 0.0
C1980 C 0.84954 0.81119 0.10174 0.0
C1981 C 0.82919 0.78367 0.11651 0.0
C1982 C 0.83077 0.83383 0.14783 0.0
C1983 C 0.85907 0.85736 0.13507 0.0
N1984 N 0.90342 0.85867 0.10066 0.0
N1985 N 0.81233 0.76567 0.15673 0.0
C1986 C 0.87049 0.84389 0.11205 0.0
C1987 C 0.823 0.79396 0.14049 0.0
N1988 N 0.85032 0.8054 0.07792 0.0
N1989 N 0.81075 0.84925 0.1667 0.0
H1990 H 0.80915 0.73538 0.15277 0.0
H1991 H 0.81094 0.77187 0.17473 0.0
H1992 H 0.80994 0.87989 0.17029 0.0
H1993 H 0.79037 0.83255 0.17655 0.0
H1994 H 0.8618 0.82674 0.06629 0.0
H1995 H 0.83572 0.78147 0.06976 0.0
H1996 H 0.91352 0.84694 0.08472 0.0
H1997 H 0.92454 0.87757 0.10814 0.0
C1998 C 0.94809 0.08558 0.85318 0.0
C1999 C 0.98287 0.07871 0.86704 0.0
C2000 C 0.94757 0.10512 0.90156 0.0
C2001 C 0.91123 0.10656 0.88843 0.0
N2002 N 0.87567 0.08878 0.85285 0.0
N2003 N 0.01399 0.07743 0.90566 0.0
C2004 C 0.9111 0.09401 0.86454 0.0
C2005 C 0.98178 0.08626 0.89168 0.0
N2006 N 0.95038 0.08493 0.82916 0.0
N2007 N 0.95105 0.12534 0.92244 0.0
H2008 H 0.04124 0.06703 0.89928 0.0
H2009 H 0.01247 0.07758 0.92401 0.0
H2010 H 0.9286 0.14344 0.92939 0.0
H2011 H 0.97812 0.12865 0.93139 0.0
H2012 H 0.92685 0.09403 0.8183 0.0
H2013 H 0.97658 0.07771 0.8201 0.0
H2014 H 0.87392 0.07657 0.83599 0.0
H2015 H 0.84787 0.09226 0.86097 0.0
C2016 C 0.84202 0.70269 0.60677 0.0
C2017 C 0.83483 0.73706 0.62087 0.0
C2018 C 0.86239 0.7012 0.65508 0.0
C2019 C 0.86442 0.66522 0.64165 0.0
N2020 N 0.84612 0.63027 0.60597 0.0
N2021 N 0.8337 0.76722 0.65967 0.0
C2022 C 0.85126 0.66551 0.61785 0.0
C2023 C 0.84283 0.73544 0.64548 0.0
N2024 N 0.8409 0.70551 0.58277 0.0
N2025 N 0.88258 0.70438 0.676 0.0
H2026 H 0.82272 0.79443 0.65344 0.0
H2027 H 0.83418 0.76534 0.67801 0.0
H2028 H 0.90094 0.68195 0.68281 0.0
H2029 H 0.88549 0.73126 0.68518 0.0
H2030 H 0.85022 0.68237 0.57173 0.0
H2031 H 0.83303 0.7318 0.5739 0.0
H2032 H 0.8335 0.62881 0.58918 0.0
H2033 H 0.84995 0.60229 0.6139 0.0
C2034 C 0.57686 0.58253 0.89795 0.0
C2035 C 0.60013 0.61125 0.88529 0.0
C2036 C 0.55477 0.60133 0.85164 0.0
C2037 C 0.52751 0.58011 0.86611 0.0
N2038 N 0.509 0.56182 0.90596 0.0
N2039 N 0.60035 0.65684 0.85144 0.0
C2040 C 0.53739 0.57378 0.89015 0.0
C2041 C 0.58661 0.62292 0.86232 0.0
N2042 N 0.5922 0.56285 0.91704 0.0
N2043 N 0.54928 0.60256 0.8278 0.0
H2044 H 0.61755 0.67867 0.85968 0.0
H2045 H 0.58891 0.66692 0.83537 0.0
H2046 H 0.52585 0.58752 0.81941 0.0
H2047 H 0.57044 0.61495 0.8164 0.0
H2048 H 0.57576 0.54195 0.92668 0.0
H2049 H 0.62266 0.56275 0.92105 0.0
H2050 H 0.51458 0.56041 0.92404 0.0
H2051 H 0.4791 0.55721 0.90145 0.0
C2052 C 0.66352 0.35309 0.12017 0.0
C2053 C 0.65119 0.35329 0.14413 0.0
C2054 C 0.67294 0.28295 0.1475 0.0
C2055 C 0.67896 0.28136 0.12271 0.0
N2056 N 0.67122 0.31344 0.08483 0.0
N2057 N 0.63613 0.31418 0.17912 0.0
C2058 C 0.67155 0.31597 0.10884 0.0
C2059 C 0.65433 0.31732 0.15761 0.0
N2060 N 0.6688 0.38843 0.10835 0.0
N2061 N 0.68309 0.25103 0.16142 0.0
H2062 H 0.61904 0.3368 0.18668 0.0
H2063 H 0.63383 0.28726 0.18836 0.0
H2064 H 0.6936 0.22389 0.15486 0.0
H2065 H 0.68407 0.25273 0.17975 0.0
H2066 H 0.68034 0.38996 0.09132 0.0
H2067 H 0.66631 0.4163 0.11655 0.0
H2068 H 0.66176 0.33692 0.07402 0.0
H2069 H 0.67787 0.28706 0.07578 0.0
C2070 C 0.94369 0.43444 0.39743 0.0
C2071 C 0.91293 0.41732 0.38342 0.0
C2072 C 0.95642 0.42305 0.34858 0.0
C2073 C 0.98909 0.43352 0.36347 0.0
N2074 N 0.01487 0.4418 0.40312 0.0
N2075 N 0.88439 0.41428 0.34459 0.0
C2076 C 0.983 0.43756 0.38816 0.0
C2077 C 0.91763 0.41698 0.35857 0.0
N2078 N 0.93498 0.45028 0.419 0.0
N2079 N 0.96276 0.4177 0.325 0.0
H2080 H 0.8555 0.41469 0.35157 0.0
H2081 H 0.88488 0.41704 0.32633 0.0
H2082 H 0.99004 0.42413 0.31687 0.0
H2083 H 0.94168 0.40528 0.31362 0.0
H2084 H 0.95606 0.4649 0.42946 0.0
H2085 H 0.90564 0.45512 0.42456 0.0
H2086 H 0.01215 0.44019 0.42138 0.0
H2087 H 0.04454 0.44301 0.39753 0.0
C2088 C 0.83599 0.32185 0.87216 0.0
C2089 C 0.86555 0.34496 0.88423 0.0
C2090 C 0.85855 0.29856 0.91769 0.0
C2091 C 0.83589 0.27163 0.90377 0.0
N2092 N 0.81447 0.25416 0.8642 0.0
N2093 N 0.9143 0.3438 0.91643 0.0
C2094 C 0.82778 0.28212 0.87993 0.0
C2095 C 0.87933 0.33055 0.90658 0.0
N2096 N 0.81493 0.33756 0.85369 0.0
N2097 N 0.86133 0.29312 0.94146 0.0
H2098 H 0.93536 0.36105 0.90755 0.0
H2099 H 0.92578 0.33182 0.93203 0.0
H2100 H 0.84592 0.27035 0.95017 0.0
H2101 H 0.87506 0.31396 0.95254 0.0
H2102 H 0.79337 0.3213 0.84448 0.0
H2103 H 0.81444 0.36812 0.84988 0.0
H2104 H 0.81166 0.26021 0.84624 0.0
H2105 H 0.81044 0.22404 0.86842 0.0
C2106 C 0.98175 0.60219 0.12411 0.0
C2107 C 0.98525 0.59631 0.14886 0.0
C2108 C 0.91354 0.6109 0.15306 0.0
C2109 C 0.91117 0.62148 0.12878 0.0
N2110 N 0.94804 0.63921 0.09346 0.0
N2111 N 0.9562 0.60397 0.18745 0.0
C2112 C 0.94647 0.62004 0.11478 0.0
C2113 C 0.95172 0.60373 0.16354 0.0
N2114 N 0.01244 0.59213 0.10934 0.0
N2115 N 0.87933 0.60591 0.16594 0.0
H2116 H 0.98335 0.59746 0.19572 0.0
H2117 H 0.93371 0.61332 0.19891 0.0
H2118 H 0.8508 0.60703 0.15847 0.0
H2119 H 0.87929 0.59588 0.18333 0.0
H2120 H 0.00907 0.59111 0.09108 0.0
H2121 H 0.04012 0.58168 0.11509 0.0
H2122 H 0.97436 0.64226 0.08377 0.0
H2123 H 0.925 0.65699 0.08684 0.0
C2124 C 0.66711 0.66732 0.40774 0.0
C2125 C 0.67001 0.66114 0.38312 0.0
C2126 C 0.69236 0.73066 0.37785 0.0
C2127 C 0.68475 0.73844 0.40209 0.0
N2128 N 0.66226 0.7145 0.43997 0.0
N2129 N 0.70707 0.68038 0.34846 0.0
C2130 C 0.67164 0.70673 0.41703 0.0
C2131 C 0.68922 0.6908 0.3692 0.0
N2132 N 0.66349 0.63495 0.42237 0.0
N2133 N 0.69995 0.76153 0.36261 0.0
H2134 H 0.71095 0.65054 0.3435 0.0
H2135 H 0.72378 0.70029 0.33828 0.0
H2136 H 0.7015 0.79145 0.36773 0.0
H2137 H 0.70105 0.75785 0.34439 0.0
H2138 H 0.66465 0.63681 0.44066 0.0
H2139 H 0.66516 0.60558 0.41612 0.0
H2140 H 0.6477 0.69414 0.45094 0.0
H2141 H 0.66728 0.74229 0.44768 0.0
C2142 C 0.60588 0.42634 0.6434 0.0
C2143 C 0.60538 0.4142 0.61948 0.0
C2144 C 0.53474 0.43519 0.61716 0.0
C2145 C 0.53365 0.43937 0.64212 0.0
N2146 N 0.56782 0.43105 0.6793 0.0
N2147 N 0.56605 0.40176 0.58425 0.0
C2148 C 0.56915 0.43273 0.65533 0.0
C2149 C 0.56919 0.41792 0.6063 0.0
N2150 N 0.64156 0.43225 0.65471 0.0
N2151 N 0.50242 0.44598 0.60377 0.0
H2152 H 0.58926 0.38711 0.57565 0.0
H2153 H 0.53893 0.39932 0.57524 0.0
H2154 H 0.4755 0.45609 0.6108 0.0
H2155 H 0.50361 0.44815 0.58545 0.0
H2156 H 0.64358 0.44369 0.67175 0.0
H2157 H 0.66904 0.43026 0.64603 0.0
H2158 H 0.59215 0.4222 0.68963 0.0
H2159 H 0.5415 0.43549 0.68864 0.0
C2160 C 0.17823 0.31965 0.36687 0.0
C2161 C 0.14885 0.34383 0.37829 0.0
C2162 C 0.15296 0.29812 0.41227 0.0
C2163 C 0.17641 0.27065 0.3992 0.0
N2164 N 0.1993 0.25132 0.36029 0.0
N2165 N 0.09796 0.34407 0.40916 0.0
C2166 C 0.18563 0.28012 0.37535 0.0
C2167 C 0.13342 0.33011 0.40038 0.0
N2168 N 0.19983 0.33415 0.34831 0.0
N2169 N 0.14831 0.29332 0.43596 0.0
H2170 H 0.07786 0.36136 0.39951 0.0
H2171 H 0.08516 0.33266 0.42453 0.0
H2172 H 0.1625 0.27045 0.44524 0.0
H2173 H 0.13413 0.31466 0.44648 0.0
H2174 H 0.22128 0.31719 0.3395 0.0
H2175 H 0.20082 0.36448 0.34395 0.0
H2176 H 0.20289 0.25646 0.34229 0.0
H2177 H 0.20275 0.22136 0.36506 0.0
C2178 C 0.41133 0.41669 0.15189 0.0
C2179 C 0.41088 0.4055 0.12772 0.0
C2180 C 0.48234 0.42302 0.12501 0.0
C2181 C 0.4837 0.42986 0.14974 0.0
N2182 N 0.451 0.42392 0.18746 0.0
N2183 N 0.4504 0.38595 0.09379 0.0
C2184 C 0.44868 0.42364 0.16343 0.0
C2185 C 0.44744 0.40581 0.11481 0.0
N2186 N 0.3761 0.42221 0.16367 0.0
N2187 N 0.5148 0.43122 0.11117 0.0
H2188 H 0.4275 0.36863 0.08664 0.0
H2189 H 0.47743 0.38189 0.08495 0.0
H2190 H 0.54246 0.44035 0.11768 0.0
H2191 H 0.51321 0.43182 0.09282 0.0
H2192 H 0.37465 0.43333 0.18079 0.0
H2193 H 0.34821 0.42005 0.15548 0.0
H2194 H 0.4273 0.41531 0.19828 0.0
H2195 H 0.47744 0.43024 0.19655 0.0
C2196 C 0.3497 0.70219 0.90945 0.0
C2197 C 0.32861 0.72914 0.89465 0.0
C2198 C 0.33057 0.67847 0.86351 0.0
C2199 C 0.35921 0.65557 0.87647 0.0
N2200 N 0.40557 0.65724 0.90991 0.0
N2201 N 0.31029 0.74623 0.85455 0.0
C2202 C 0.3712 0.67007 0.89913 0.0
C2203 C 0.32199 0.71833 0.87077 0.0
N2204 N 0.35129 0.70845 0.93321 0.0
N2205 N 0.31107 0.66254 0.84457 0.0
H2206 H 0.30613 0.77638 0.85861 0.0
H2207 H 0.30865 0.73993 0.83657 0.0
H2208 H 0.31169 0.63203 0.84066 0.0
H2209 H 0.28991 0.67857 0.83487 0.0
H2210 H 0.36371 0.68754 0.94481 0.0
H2211 H 0.33663 0.73229 0.94138 0.0
H2212 H 0.41575 0.66932 0.92576 0.0
H2213 H 0.42766 0.64049 0.90161 0.0
C2214 C 0.03454 0.57993 0.62849 0.0
C2215 C 0.02962 0.58393 0.65328 0.0
C2216 C 0.10108 0.60214 0.65672 0.0
C2217 C 0.10486 0.60072 0.63178 0.0
N2218 N 0.08085 0.56683 0.59687 0.0
N2219 N 0.0575 0.60172 0.69104 0.0
C2220 C 0.07334 0.58322 0.61847 0.0
C2221 C 0.0628 0.59574 0.66743 0.0
N2222 N 1.00196 0.57524 0.61411 0.0
N2223 N 0.13483 0.60573 0.6702 0.0
H2224 H 0.03077 0.59506 0.69967 0.0
H2225 H 0.07878 0.61508 0.70191 0.0
H2226 H 0.16347 0.60516 0.6629 0.0
H2227 H 0.13511 0.60375 0.6885 0.0
H2228 H 1.00368 0.57687 0.5958 0.0
H2229 H 0.9726 0.57402 0.62019 0.0
H2230 H 0.05917 0.55221 0.58685 0.0
H2231 H 0.10978 0.56112 0.59091 0.0
C2232 C 0.15224 0.70283 0.14862 0.0
C2233 C 0.15012 0.66687 0.13515 0.0
C2234 C 0.16646 0.70576 0.09956 0.0
C2235 C 0.17331 0.74046 0.11344 0.0
N2236 N 0.1786 0.76994 0.15235 0.0
N2237 N 0.16494 0.63318 0.09857 0.0
C2238 C 0.16876 0.7381 0.13834 0.0
C2239 C 0.1601 0.66809 0.11082 0.0
N2240 N 0.13481 0.70495 0.1704 0.0
N2241 N 0.1656 0.70866 0.07557 0.0
H2242 H 0.1631 0.60503 0.10651 0.0
H2243 H 0.17533 0.63221 0.08128 0.0
H2244 H 0.17193 0.73522 0.06668 0.0
H2245 H 0.15626 0.68532 0.06467 0.0
H2246 H 0.1318 0.73166 0.17973 0.0
H2247 H 0.11865 0.68167 0.17804 0.0
H2248 H 0.18096 0.76757 0.17062 0.0
H2249 H 0.18751 0.79776 0.14594 0.0
C2250 C 0.07603 0.42931 0.90202 0.0
C2251 C 0.10581 0.41378 0.88678 0.0
C2252 C 0.06038 0.42313 0.85306 0.0
C2253 C 0.02867 0.43217 0.86887 0.0
N2254 N 1.00525 0.43775 0.90912 0.0
N2255 N 0.13215 0.41607 0.84742 0.0
C2256 C 0.03625 0.43407 0.89354 0.0
C2257 C 0.09972 0.41652 0.86208 0.0
N2258 N 0.08615 0.44217 0.92407 0.0
N2259 N 0.05263 0.41952 0.8295 0.0
H2260 H 0.16144 0.41592 0.85388 0.0
H2261 H 0.13047 0.42132 0.82936 0.0
H2262 H 0.02481 0.42626 0.82207 0.0
H2263 H 0.07314 0.40808 0.81745 0.0
H2264 H 0.06602 0.45611 0.93542 0.0
H2265 H 0.11585 0.44527 0.92944 0.0
H2266 H 0.00879 0.43449 0.92726 0.0
H2267 H 0.97539 0.44043 0.90402 0.0
C2268 C 0.36189 0.30454 0.60007 0.0
C2269 C 0.34089 0.27786 0.6151 0.0
C2270 C 0.34345 0.32882 0.64602 0.0
C2271 C 0.37129 0.35212 0.63275 0.0
N2272 N 0.41617 0.35167 0.5987 0.0
N2273 N 0.32445 0.26095 0.65552 0.0
C2274 C 0.38291 0.33753 0.61004 0.0
C2275 C 0.33527 0.28879 0.63904 0.0
N2276 N 0.36292 0.29791 0.57634 0.0
N2277 N 0.324 0.34466 0.66499 0.0
H2278 H 0.32077 0.23064 0.65174 0.0
H2279 H 0.32351 0.26741 0.67349 0.0
H2280 H 0.32286 0.37539 0.66823 0.0
H2281 H 0.30418 0.32816 0.67532 0.0
H2282 H 0.3749 0.31867 0.56452 0.0
H2283 H 0.34808 0.27395 0.56837 0.0
H2284 H 0.42647 0.3394 0.58295 0.0
H2285 H 0.43729 0.37048 0.60632 0.0
C2286 C 0.46883 0.61662 0.35546 0.0
C2287 C 0.49571 0.59276 0.36871 0.0
C2288 C 0.44566 0.59025 0.40048 0.0
C2289 C 0.42168 0.6194 0.3886 0.0
N2290 N 0.42379 0.67218 0.3588 0.0
N2291 N 0.51374 0.56835 0.40756 0.0
C2292 C 0.43667 0.63586 0.36708 0.0
C2293 C 0.48545 0.58283 0.39237 0.0
N2294 N 0.47447 0.62212 0.33188 0.0
N2295 N 0.43083 0.56894 0.41908 0.0
H2296 H 0.54363 0.56431 0.40292 0.0
H2297 H 0.50829 0.56432 0.42549 0.0
H2298 H 0.40065 0.56879 0.42363 0.0
H2299 H 0.4474 0.54717 0.42795 0.0
H2300 H 0.45363 0.63699 0.32129 0.0
H2301 H 0.49745 0.60801 0.3227 0.0
H2302 H 0.43593 0.68561 0.3438 0.0
H2303 H 0.4069 0.6921 0.36879 0.0
loop_
_geom_bond_atom_site_label_1
_geom_bond_atom_site_label_2
_geom_bond_distance
_geom_bond_site_symmetry_2
_ccdc_geom_bond_type
Mn0 O5 2.095 . S
Mn0 O15 2.162 . S
Mn0 O16 2.297 . S
Mn0 O24 2.385 . S
Mn0 O25 2.209 . S
Mn0 O26 2.094 . S
Mn1 O6 2.121 . S
Mn1 N8 2.257 . S
Mn1 N17 2.282 . S
Mn1 O25 2.215 1_565 S
Mn1 O27 2.117 . S
C2 O24 1.234 . S
C2 O25 1.283 . S
C3 O15 1.281 . S
C3 O16 1.236 . S
C4 O26 1.240 . S
C4 O27 1.264 1_545 S
O5 Mn0 2.095 . S
O5 C14 1.250 1_545 S
O6 Mn1 2.121 . S
O6 C14 1.258 . S
C7 N8 1.326 . S
C7 C11 1.460 . S
C7 H13 0.929 . S
N8 Mn1 2.257 . S
N8 C7 1.326 . S
N8 C12 1.362 . S
C9 C10 1.258 . S
C9 C12 1.431 . S
C9 C29 1.449 . S
C10 C9 1.258 . S
C10 C11 1.477 . S
C10 H30 0.931 . S
C11 C7 1.460 . S
C11 C10 1.477 . S
C11 H31 0.930 . S
C12 N8 1.362 . S
C12 C9 1.431 . S
C12 C22 1.476 . S
H13 C7 0.929 . S
C14 O5 1.250 1_565 S
C14 O6 1.258 . S
O15 Mn0 2.162 . S
O15 C3 1.281 . S
O16 Mn0 2.297 . S
O16 C3 1.236 . S
N17 Mn1 2.282 . S
N17 C18 1.328 . S
N17 C22 1.318 . S
C18 N17 1.328 . S
C18 C19 1.456 1_565 S
C18 H23 0.929 1_565 S
C19 C18 1.456 1_545 S
C19 C20 1.289 1_545 S
C19 H32 0.933 . S
C20 C19 1.289 1_565 S
C20 C21 1.373 . S
C20 H33 0.929 . S
C21 C20 1.373 . S
C21 C22 1.396 . S
C21 C28 1.403 . S
C22 C12 1.476 . S
C22 N17 1.318 . S
C22 C21 1.396 . S
H23 C18 0.929 1_545 S
O24 Mn0 2.385 . S
O24 C2 1.234 . S
O25 Mn0 2.209 . S
O25 Mn1 2.215 1_545 S
O25 C2 1.283 . S
O26 Mn0 2.094 . S
O26 C4 1.240 . S
O27 Mn1 2.117 . S
O27 C4 1.264 1_565 S
C28 C21 1.403 . S
C28 C29 1.399 . S
C28 H34 0.929 . S
C29 C9 1.449 . S
C29 C28 1.399 . S
C29 H35 0.930 . S
H30 C10 0.931 . S
H31 C11 0.930 . S
H32 C19 0.933 . S
H33 C20 0.929 . S
H34 C28 0.929 . S
H35 C29 0.930 . S
Mn36 O41 2.095 . S
Mn36 O51 2.162 . S
Mn36 O52 2.297 . S
Mn36 O60 2.385 . S
Mn36 O61 2.209 . S
Mn36 O62 2.094 . S
Mn37 O42 2.121 . S
Mn37 N44 2.257 . S
Mn37 N53 2.282 . S
Mn37 O61 2.215 . S
Mn37 O63 2.117 . S
C38 O60 1.234 . S
C38 O61 1.283 . S
C39 O51 1.281 . S
C39 O52 1.236 . S
C40 O62 1.240 . S
C40 O63 1.264 . S
O41 Mn36 2.095 . S
O41 C50 1.250 . S
O42 Mn37 2.121 . S
O42 C50 1.258 . S
C43 N44 1.326 . S
C43 C47 1.460 . S
C43 H49 0.929 . S
N44 Mn37 2.257 . S
N44 C43 1.326 . S
N44 C48 1.362 . S
C45 C46 1.258 . S
C45 C48 1.431 . S
C45 C65 1.449 . S
C46 C45 1.258 . S
C46 C47 1.477 . S
C46 H66 0.931 . S
C47 C43 1.460 . S
C47 C46 1.477 . S
C47 H67 0.930 . S
C48 N44 1.362 . S
C48 C45 1.431 . S
C48 C58 1.476 . S
H49 C43 0.929 . S
C50 O41 1.250 . S
C50 O42 1.258 . S
O51 Mn36 2.162 . S
O51 C39 1.281 . S
O52 Mn36 2.297 . S
O52 C39 1.236 . S
N53 Mn37 2.282 . S
N53 C54 1.328 . S
N53 C58 1.318 . S
C54 N53 1.328 . S
C54 C55 1.457 . S
C54 H59 0.929 . S
C55 C54 1.457 . S
C55 C56 1.291 . S
C55 H68 0.931 . S
C56 C55 1.291 . S
C56 C57 1.373 . S
C56 H69 0.929 . S
C57 C56 1.373 . S
C57 C58 1.396 . S
C57 C64 1.403 . S
C58 C48 1.476 . S
C58 N53 1.318 . S
C58 C57 1.396 . S
H59 C54 0.929 . S
O60 Mn36 2.385 . S
O60 C38 1.234 . S
O61 Mn36 2.209 . S
O61 Mn37 2.215 . S
O61 C38 1.283 . S
O62 Mn36 2.094 . S
O62 C40 1.240 . S
O63 Mn37 2.117 . S
O63 C40 1.264 . S
C64 C57 1.403 . S
C64 C65 1.399 . S
C64 H70 0.929 . S
C65 C45 1.449 . S
C65 C64 1.399 . S
C65 H71 0.930 . S
H66 C46 0.931 . S
H67 C47 0.930 . S
H68 C55 0.931 . S
H69 C56 0.929 . S
H70 C64 0.929 . S
H71 C65 0.930 . S
Mn72 O77 2.095 . S
Mn72 O87 2.162 . S
Mn72 O88 2.297 . S
Mn72 O96 2.385 . S
Mn72 O97 2.209 . S
Mn72 O98 2.094 . S
Mn73 O78 2.121 . S
Mn73 N80 2.257 . S
Mn73 N89 2.282 1_455 S
Mn73 O97 2.215 1_545 S
Mn73 O99 2.117 . S
C74 O96 1.234 . S
C74 O97 1.283 . S
C75 O87 1.281 . S
C75 O88 1.236 . S
C76 O98 1.240 . S
C76 O99 1.264 1_565 S
O77 Mn72 2.095 . S
O77 C86 1.250 1_565 S
O78 Mn73 2.121 . S
O78 C86 1.258 . S
C79 N80 1.326 . S
C79 C83 1.460 . S
C79 H85 0.929 . S
N80 Mn73 2.257 . S
N80 C79 1.326 . S
N80 C84 1.362 1_455 S
C81 C82 1.258 . S
C81 C84 1.431 . S
C81 C101 1.449 . S
C82 C81 1.258 . S
C82 C83 1.477 1_655 S
C82 H102 0.931 . S
C83 C79 1.460 . S
C83 C82 1.477 1_455 S
C83 H103 0.930 . S
C84 N80 1.362 1_655 S
C84 C81 1.431 . S
C84 C94 1.476 . S
H85 C79 0.929 . S
C86 O77 1.250 1_545 S
C86 O78 1.258 . S
O87 Mn72 2.162 . S
O87 C75 1.281 . S
O88 Mn72 2.297 . S
O88 C75 1.236 . S
N89 Mn73 2.282 1_655 S
N89 C90 1.328 . S
N89 C94 1.318 . S
C90 N89 1.328 . S
C90 C91 1.456 1_545 S
C90 H95 0.929 1_545 S
C91 C90 1.456 1_565 S
C91 C92 1.289 1_565 S
C91 H104 0.933 . S
C92 C91 1.289 1_545 S
C92 C93 1.373 . S
C92 H105 0.929 . S
C93 C92 1.373 . S
C93 C94 1.396 . S
C93 C100 1.403 . S
C94 C84 1.476 . S
C94 N89 1.318 . S
C94 C93 1.396 . S
H95 C90 0.929 1_565 S
O96 Mn72 2.385 . S
O96 C74 1.234 . S
O97 Mn72 2.209 . S
O97 Mn73 2.215 1_565 S
O97 C74 1.283 . S
O98 Mn72 2.094 . S
O98 C76 1.240 . S
O99 Mn73 2.117 . S
O99 C76 1.264 1_545 S
C100 C93 1.403 . S
C100 C101 1.399 . S
C100 H106 0.929 . S
C101 C81 1.449 . S
C101 C100 1.399 . S
C101 H107 0.930 . S
H102 C82 0.931 . S
H103 C83 0.930 . S
H104 C91 0.933 . S
H105 C92 0.929 . S
H106 C100 0.929 . S
H107 C101 0.930 . S
Mn108 O113 2.095 . S
Mn108 O123 2.162 . S
Mn108 O124 2.297 . S
Mn108 O132 2.385 . S
Mn108 O133 2.209 . S
Mn108 O134 2.094 . S
Mn109 O114 2.121 . S
Mn109 N116 2.257 . S
Mn109 N125 2.282 . S
Mn109 O133 2.215 . S
Mn109 O135 2.117 . S
C110 O132 1.234 . S
C110 O133 1.283 . S
C111 O123 1.281 . S
C111 O124 1.236 . S
C112 O134 1.240 . S
C112 O135 1.264 . S
O113 Mn108 2.095 . S
O113 C122 1.250 . S
O114 Mn109 2.121 . S
O114 C122 1.258 . S
C115 N116 1.326 . S
C115 C119 1.460 . S
C115 H121 0.929 . S
N116 Mn109 2.257 . S
N116 C115 1.326 . S
N116 C120 1.362 . S
C117 C118 1.258 . S
C117 C120 1.431 . S
C117 C137 1.449 . S
C118 C117 1.258 . S
C118 C119 1.477 . S
C118 H138 0.931 . S
C119 C115 1.460 . S
C119 C118 1.477 . S
C119 H139 0.930 . S
C120 N116 1.362 . S
C120 C117 1.431 . S
C120 C130 1.476 . S
H121 C115 0.929 . S
C122 O113 1.250 . S
C122 O114 1.258 . S
O123 Mn108 2.162 . S
O123 C111 1.281 . S
O124 Mn108 2.297 . S
O124 C111 1.236 . S
N125 Mn109 2.282 . S
N125 C126 1.328 . S
N125 C130 1.318 . S
C126 N125 1.328 . S
C126 C127 1.457 . S
C126 H131 0.929 . S
C127 C126 1.457 . S
C127 C128 1.291 . S
C127 H140 0.931 . S
C128 C127 1.291 . S
C128 C129 1.373 . S
C128 H141 0.929 . S
C129 C128 1.373 . S
C129 C130 1.396 . S
C129 C136 1.403 . S
C130 C120 1.476 . S
C130 N125 1.318 . S
C130 C129 1.396 . S
H131 C126 0.929 . S
O132 Mn108 2.385 . S
O132 C110 1.234 . S
O133 Mn108 2.209 . S
O133 Mn109 2.215 . S
O133 C110 1.283 . S
O134 Mn108 2.094 . S
O134 C112 1.240 . S
O135 Mn109 2.117 . S
O135 C112 1.264 . S
C136 C129 1.403 . S
C136 C137 1.399 . S
C136 H142 0.929 . S
C137 C117 1.449 . S
C137 C136 1.399 . S
C137 H143 0.930 . S
H138 C118 0.931 . S
H139 C119 0.930 . S
H140 C127 0.931 . S
H141 C128 0.929 . S
H142 C136 0.929 . S
H143 C137 0.930 . S
Mn144 O149 2.095 . S
Mn144 O159 2.162 . S
Mn144 O160 2.297 . S
Mn144 O168 2.385 . S
Mn144 O169 2.209 . S
Mn144 O170 2.094 . S
Mn145 O150 2.121 . S
Mn145 N152 2.257 . S
Mn145 N161 2.282 . S
Mn145 O169 2.215 1_545 S
Mn145 O171 2.117 . S
C146 O168 1.234 . S
C146 O169 1.283 . S
C147 O159 1.281 . S
C147 O160 1.236 . S
C148 O170 1.240 . S
C148 O171 1.264 1_565 S
O149 Mn144 2.095 . S
O149 C158 1.250 1_565 S
O150 Mn145 2.121 . S
O150 C158 1.258 . S
C151 N152 1.326 . S
C151 C155 1.460 . S
C151 H157 0.929 . S
N152 Mn145 2.257 . S
N152 C151 1.326 . S
N152 C156 1.362 . S
C153 C154 1.258 . S
C153 C156 1.431 . S
C153 C173 1.449 . S
C154 C153 1.258 . S
C154 C155 1.477 . S
C154 H174 0.931 . S
C155 C151 1.460 . S
C155 C154 1.477 . S
C155 H175 0.930 . S
C156 N152 1.362 . S
C156 C153 1.431 . S
C156 C166 1.476 . S
H157 C151 0.929 . S
C158 O149 1.250 1_545 S
C158 O150 1.258 . S
O159 Mn144 2.162 . S
O159 C147 1.281 . S
O160 Mn144 2.297 . S
O160 C147 1.236 . S
N161 Mn145 2.282 . S
N161 C162 1.328 . S
N161 C166 1.318 . S
C162 N161 1.328 . S
C162 C163 1.456 1_545 S
C162 H167 0.929 1_545 S
C163 C162 1.456 1_565 S
C163 C164 1.289 1_565 S
C163 H176 0.933 . S
C164 C163 1.289 1_545 S
C164 C165 1.373 . S
C164 H177 0.929 . S
C165 C164 1.373 . S
C165 C166 1.396 . S
C165 C172 1.403 . S
C166 C156 1.476 . S
C166 N161 1.318 . S
C166 C165 1.396 . S
H167 C162 0.929 1_565 S
O168 Mn144 2.385 . S
O168 C146 1.234 . S
O169 Mn144 2.209 . S
O169 Mn145 2.215 1_565 S
O169 C146 1.283 . S
O170 Mn144 2.094 . S
O170 C148 1.240 . S
O171 Mn145 2.117 . S
O171 C148 1.264 1_545 S
C172 C165 1.403 . S
C172 C173 1.399 . S
C172 H178 0.929 . S
C173 C153 1.449 . S
C173 C172 1.399 . S
C173 H179 0.930 . S
H174 C154 0.931 . S
H175 C155 0.930 . S
H176 C163 0.933 . S
H177 C164 0.929 . S
H178 C172 0.929 . S
H179 C173 0.930 . S
Mn180 O185 2.095 . S
Mn180 O195 2.162 . S
Mn180 O196 2.297 . S
Mn180 O204 2.385 . S
Mn180 O205 2.209 . S
Mn180 O206 2.094 . S
Mn181 O186 2.121 . S
Mn181 N188 2.257 . S
Mn181 N197 2.282 . S
Mn181 O205 2.215 . S
Mn181 O207 2.117 . S
C182 O204 1.234 . S
C182 O205 1.283 . S
C183 O195 1.281 . S
C183 O196 1.236 . S
C184 O206 1.240 . S
C184 O207 1.264 . S
O185 Mn180 2.095 . S
O185 C194 1.250 . S
O186 Mn181 2.121 . S
O186 C194 1.258 . S
C187 N188 1.326 . S
C187 C191 1.460 . S
C187 H193 0.929 . S
N188 Mn181 2.257 . S
N188 C187 1.326 . S
N188 C192 1.362 . S
C189 C190 1.258 . S
C189 C192 1.431 . S
C189 C209 1.449 . S
C190 C189 1.258 . S
C190 C191 1.477 . S
C190 H210 0.931 . S
C191 C187 1.460 . S
C191 C190 1.477 . S
C191 H211 0.930 . S
C192 N188 1.362 . S
C192 C189 1.431 . S
C192 C202 1.476 . S
H193 C187 0.929 . S
C194 O185 1.250 . S
C194 O186 1.258 . S
O195 Mn180 2.162 . S
O195 C183 1.281 . S
O196 Mn180 2.297 . S
O196 C183 1.236 . S
N197 Mn181 2.282 . S
N197 C198 1.328 . S
N197 C202 1.318 . S
C198 N197 1.328 . S
C198 C199 1.457 . S
C198 H203 0.929 . S
C199 C198 1.457 . S
C199 C200 1.291 . S
C199 H212 0.931 . S
C200 C199 1.291 . S
C200 C201 1.373 . S
C200 H213 0.929 . S
C201 C200 1.373 . S
C201 C202 1.396 . S
C201 C208 1.403 . S
C202 C192 1.476 . S
C202 N197 1.318 . S
C202 C201 1.396 . S
H203 C198 0.929 . S
O204 Mn180 2.385 . S
O204 C182 1.234 . S
O205 Mn180 2.209 . S
O205 Mn181 2.215 . S
O205 C182 1.283 . S
O206 Mn180 2.094 . S
O206 C184 1.240 . S
O207 Mn181 2.117 . S
O207 C184 1.264 . S
C208 C201 1.403 . S
C208 C209 1.399 . S
C208 H214 0.929 . S
C209 C189 1.449 . S
C209 C208 1.399 . S
C209 H215 0.930 . S
H210 C190 0.931 . S
H211 C191 0.930 . S
H212 C199 0.931 . S
H213 C200 0.929 . S
H214 C208 0.929 . S
H215 C209 0.930 . S
Mn216 O221 2.095 . S
Mn216 O231 2.162 . S
Mn216 O232 2.297 . S
Mn216 O240 2.385 . S
Mn216 O241 2.209 . S
Mn216 O242 2.094 . S
Mn217 O222 2.121 . S
Mn217 N224 2.257 . S
Mn217 N233 2.282 1_455 S
Mn217 O241 2.215 1_565 S
Mn217 O243 2.117 . S
C218 O240 1.234 . S
C218 O241 1.283 . S
C219 O231 1.281 . S
C219 O232 1.236 . S
C220 O242 1.240 . S
C220 O243 1.264 1_545 S
O221 Mn216 2.095 . S
O221 C230 1.250 1_545 S
O222 Mn217 2.121 . S
O222 C230 1.258 . S
C223 N224 1.326 . S
C223 C227 1.460 . S
C223 H229 0.929 . S
N224 Mn217 2.257 . S
N224 C223 1.326 . S
N224 C228 1.362 1_455 S
C225 C226 1.258 . S
C225 C228 1.431 . S
C225 C245 1.449 . S
C226 C225 1.258 . S
C226 C227 1.477 1_655 S
C226 H246 0.931 . S
C227 C223 1.460 . S
C227 C226 1.477 1_455 S
C227 H247 0.930 . S
C228 N224 1.362 1_655 S
C228 C225 1.431 . S
C228 C238 1.476 . S
H229 C223 0.929 . S
C230 O221 1.250 1_565 S
C230 O222 1.258 . S
O231 Mn216 2.162 . S
O231 C219 1.281 . S
O232 Mn216 2.297 . S
O232 C219 1.236 . S
N233 Mn217 2.282 1_655 S
N233 C234 1.328 . S
N233 C238 1.318 . S
C234 N233 1.328 . S
C234 C235 1.456 1_565 S
C234 H239 0.929 1_565 S
C235 C234 1.456 1_545 S
C235 C236 1.289 1_545 S
C235 H248 0.933 . S
C236 C235 1.289 1_565 S
C236 C237 1.373 . S
C236 H249 0.929 . S
C237 C236 1.373 . S
C237 C238 1.396 . S
C237 C244 1.403 . S
C238 C228 1.476 . S
C238 N233 1.318 . S
C238 C237 1.396 . S
H239 C234 0.929 1_545 S
O240 Mn216 2.385 . S
O240 C218 1.234 . S
O241 Mn216 2.209 . S
O241 Mn217 2.215 1_545 S
O241 C218 1.283 . S
O242 Mn216 2.094 . S
O242 C220 1.240 . S
O243 Mn217 2.117 . S
O243 C220 1.264 1_565 S
C244 C237 1.403 . S
C244 C245 1.399 . S
C244 H250 0.929 . S
C245 C225 1.449 . S
C245 C244 1.399 . S
C245 H251 0.930 . S
H246 C226 0.931 . S
H247 C227 0.930 . S
H248 C235 0.933 . S
H249 C236 0.929 . S
H250 C244 0.929 . S
H251 C245 0.930 . S
Mn252 O257 2.095 . S
Mn252 O267 2.162 . S
Mn252 O268 2.297 . S
Mn252 O276 2.385 . S
Mn252 O277 2.209 . S
Mn252 O278 2.094 . S
Mn253 O258 2.121 . S
Mn253 N260 2.257 . S
Mn253 N269 2.282 . S
Mn253 O277 2.215 . S
Mn253 O279 2.117 . S
C254 O276 1.234 . S
C254 O277 1.283 . S
C255 O267 1.281 . S
C255 O268 1.236 . S
C256 O278 1.240 . S
C256 O279 1.264 . S
O257 Mn252 2.095 . S
O257 C266 1.250 . S
O258 Mn253 2.121 . S
O258 C266 1.258 . S
C259 N260 1.326 . S
C259 C263 1.460 . S
C259 H265 0.929 . S
N260 Mn253 2.257 . S
N260 C259 1.326 . S
N260 C264 1.362 . S
C261 C262 1.258 . S
C261 C264 1.431 . S
C261 C281 1.449 . S
C262 C261 1.258 . S
C262 C263 1.477 . S
C262 H282 0.931 . S
C263 C259 1.460 . S
C263 C262 1.477 . S
C263 H283 0.930 . S
C264 N260 1.362 . S
C264 C261 1.431 . S
C264 C274 1.476 . S
H265 C259 0.929 . S
C266 O257 1.250 . S
C266 O258 1.258 . S
O267 Mn252 2.162 . S
O267 C255 1.281 . S
O268 Mn252 2.297 . S
O268 C255 1.236 . S
N269 Mn253 2.282 . S
N269 C270 1.328 . S
N269 C274 1.318 . S
C270 N269 1.328 . S
C270 C271 1.457 . S
C270 H275 0.929 . S
C271 C270 1.457 . S
C271 C272 1.291 . S
C271 H284 0.931 . S
C272 C271 1.291 . S
C272 C273 1.373 . S
C272 H285 0.929 . S
C273 C272 1.373 . S
C273 C274 1.396 . S
C273 C280 1.403 . S
C274 C264 1.476 . S
C274 N269 1.318 . S
C274 C273 1.396 . S
H275 C270 0.929 . S
O276 Mn252 2.385 . S
O276 C254 1.234 . S
O277 Mn252 2.209 . S
O277 Mn253 2.215 . S
O277 C254 1.283 . S
O278 Mn252 2.094 . S
O278 C256 1.240 . S
O279 Mn253 2.117 . S
O279 C256 1.264 . S
C280 C273 1.403 . S
C280 C281 1.399 . S
C280 H286 0.929 . S
C281 C261 1.449 . S
C281 C280 1.399 . S
C281 H287 0.930 . S
H282 C262 0.931 . S
H283 C263 0.930 . S
H284 C271 0.931 . S
H285 C272 0.929 . S
H286 C280 0.929 . S
H287 C281 0.930 . S
Mn288 O293 2.095 . S
Mn288 O303 2.162 . S
Mn288 O304 2.297 . S
Mn288 O312 2.385 . S
Mn288 O313 2.209 . S
Mn288 O314 2.094 . S
Mn289 O294 2.121 . S
Mn289 N296 2.257 . S
Mn289 N305 2.282 . S
Mn289 O313 2.215 1_545 S
Mn289 O315 2.117 . S
C290 O312 1.234 . S
C290 O313 1.283 . S
C291 O303 1.281 . S
C291 O304 1.236 . S
C292 O314 1.240 . S
C292 O315 1.264 1_565 S
O293 Mn288 2.095 . S
O293 C302 1.250 1_565 S
O294 Mn289 2.121 . S
O294 C302 1.258 . S
C295 N296 1.326 . S
C295 C299 1.460 . S
C295 H301 0.929 . S
N296 Mn289 2.257 . S
N296 C295 1.326 . S
N296 C300 1.362 . S
C297 C298 1.258 . S
C297 C300 1.431 . S
C297 C317 1.449 . S
C298 C297 1.258 . S
C298 C299 1.477 . S
C298 H318 0.931 . S
C299 C295 1.460 . S
C299 C298 1.477 . S
C299 H319 0.930 . S
C300 N296 1.362 . S
C300 C297 1.431 . S
C300 C310 1.476 . S
H301 C295 0.929 . S
C302 O293 1.250 1_545 S
C302 O294 1.258 . S
O303 Mn288 2.162 . S
O303 C291 1.281 . S
O304 Mn288 2.297 . S
O304 C291 1.236 . S
N305 Mn289 2.282 . S
N305 C306 1.328 . S
N305 C310 1.318 . S
C306 N305 1.328 . S
C306 C307 1.456 1_545 S
C306 H311 0.929 1_545 S
C307 C306 1.456 1_565 S
C307 C308 1.289 1_565 S
C307 H320 0.933 . S
C308 C307 1.289 1_545 S
C308 C309 1.373 . S
C308 H321 0.929 . S
C309 C308 1.373 . S
C309 C310 1.396 . S
C309 C316 1.403 . S
C310 C300 1.476 . S
C310 N305 1.318 . S
C310 C309 1.396 . S
H311 C306 0.929 1_565 S
O312 Mn288 2.385 . S
O312 C290 1.234 . S
O313 Mn288 2.209 . S
O313 Mn289 2.215 1_565 S
O313 C290 1.283 . S
O314 Mn288 2.094 . S
O314 C292 1.240 . S
O315 Mn289 2.117 . S
O315 C292 1.264 1_545 S
C316 C309 1.403 . S
C316 C317 1.399 . S
C316 H322 0.929 . S
C317 C297 1.449 . S
C317 C316 1.399 . S
C317 H323 0.930 . S
H318 C298 0.931 . S
H319 C299 0.930 . S
H320 C307 0.933 . S
H321 C308 0.929 . S
H322 C316 0.929 . S
H323 C317 0.930 . S
Mn324 O329 2.095 . S
Mn324 O339 2.162 . S
Mn324 O340 2.297 . S
Mn324 O348 2.385 . S
Mn324 O349 2.209 . S
Mn324 O350 2.094 . S
Mn325 O330 2.121 . S
Mn325 N332 2.257 . S
Mn325 N341 2.282 . S
Mn325 O349 2.215 . S
Mn325 O351 2.117 . S
C326 O348 1.234 . S
C326 O349 1.283 . S
C327 O339 1.281 . S
C327 O340 1.236 . S
C328 O350 1.240 . S
C328 O351 1.264 . S
O329 Mn324 2.095 . S
O329 C338 1.250 . S
O330 Mn325 2.121 . S
O330 C338 1.258 . S
C331 N332 1.326 . S
C331 C335 1.460 . S
C331 H337 0.929 . S
N332 Mn325 2.257 . S
N332 C331 1.326 . S
N332 C336 1.362 . S
C333 C334 1.258 . S
C333 C336 1.431 . S
C333 C353 1.449 . S
C334 C333 1.258 . S
C334 C335 1.477 . S
C334 H354 0.931 . S
C335 C331 1.460 . S
C335 C334 1.477 . S
C335 H355 0.930 . S
C336 N332 1.362 . S
C336 C333 1.431 . S
C336 C346 1.476 . S
H337 C331 0.929 . S
C338 O329 1.250 . S
C338 O330 1.258 . S
O339 Mn324 2.162 . S
O339 C327 1.281 . S
O340 Mn324 2.297 . S
O340 C327 1.236 . S
N341 Mn325 2.282 . S
N341 C342 1.328 . S
N341 C346 1.318 . S
C342 N341 1.328 . S
C342 C343 1.457 . S
C342 H347 0.929 . S
C343 C342 1.457 . S
C343 C344 1.291 . S
C343 H356 0.931 . S
C344 C343 1.291 . S
C344 C345 1.373 . S
C344 H357 0.929 . S
C345 C344 1.373 . S
C345 C346 1.396 . S
C345 C352 1.403 . S
C346 C336 1.476 . S
C346 N341 1.318 . S
C346 C345 1.396 . S
H347 C342 0.929 . S
O348 Mn324 2.385 . S
O348 C326 1.234 . S
O349 Mn324 2.209 . S
O349 Mn325 2.215 . S
O349 C326 1.283 . S
O350 Mn324 2.094 . S
O350 C328 1.240 . S
O351 Mn325 2.117 . S
O351 C328 1.264 . S
C352 C345 1.403 . S
C352 C353 1.399 . S
C352 H358 0.929 . S
C353 C333 1.449 . S
C353 C352 1.399 . S
C353 H359 0.930 . S
H354 C334 0.931 . S
H355 C335 0.930 . S
H356 C343 0.931 . S
H357 C344 0.929 . S
H358 C352 0.929 . S
H359 C353 0.930 . S
Mn360 O365 2.095 . S
Mn360 O375 2.162 . S
Mn360 O376 2.297 . S
Mn360 O384 2.385 . S
Mn360 O385 2.209 . S
Mn360 O386 2.094 . S
Mn361 O366 2.121 . S
Mn361 N368 2.257 . S
Mn361 N377 2.282 1_655 S
Mn361 O385 2.215 1_565 S
Mn361 O387 2.117 . S
C362 O384 1.234 . S
C362 O385 1.283 . S
C363 O375 1.281 . S
C363 O376 1.236 . S
C364 O386 1.240 . S
C364 O387 1.264 1_545 S
O365 Mn360 2.095 . S
O365 C374 1.250 1_545 S
O366 Mn361 2.121 . S
O366 C374 1.258 . S
C367 N368 1.326 . S
C367 C371 1.460 . S
C367 H373 0.929 . S
N368 Mn361 2.257 . S
N368 C367 1.326 . S
N368 C372 1.362 1_655 S
C369 C370 1.258 . S
C369 C372 1.431 . S
C369 C389 1.449 . S
C370 C369 1.258 . S
C370 C371 1.477 1_455 S
C370 H390 0.931 . S
C371 C367 1.460 . S
C371 C370 1.477 1_655 S
C371 H391 0.930 . S
C372 N368 1.362 1_455 S
C372 C369 1.431 . S
C372 C382 1.476 . S
H373 C367 0.929 . S
C374 O365 1.250 1_565 S
C374 O366 1.258 . S
O375 Mn360 2.162 . S
O375 C363 1.281 . S
O376 Mn360 2.297 . S
O376 C363 1.236 . S
N377 Mn361 2.282 1_455 S
N377 C378 1.328 . S
N377 C382 1.318 . S
C378 N377 1.328 . S
C378 C379 1.456 1_565 S
C378 H383 0.929 1_565 S
C379 C378 1.456 1_545 S
C379 C380 1.289 1_545 S
C379 H392 0.933 . S
C380 C379 1.289 1_565 S
C380 C381 1.373 . S
C380 H393 0.929 . S
C381 C380 1.373 . S
C381 C382 1.396 . S
C381 C388 1.403 . S
C382 C372 1.476 . S
C382 N377 1.318 . S
C382 C381 1.396 . S
H383 C378 0.929 1_545 S
O384 Mn360 2.385 . S
O384 C362 1.234 . S
O385 Mn360 2.209 . S
O385 Mn361 2.215 1_545 S
O385 C362 1.283 . S
O386 Mn360 2.094 . S
O386 C364 1.240 . S
O387 Mn361 2.117 . S
O387 C364 1.264 1_565 S
C388 C381 1.403 . S
C388 C389 1.399 . S
C388 H394 0.929 . S
C389 C369 1.449 . S
C389 C388 1.399 . S
C389 H395 0.930 . S
H390 C370 0.931 . S
H391 C371 0.930 . S
H392 C379 0.933 . S
H393 C380 0.929 . S
H394 C388 0.929 . S
H395 C389 0.930 . S
Mn396 O401 2.095 . S
Mn396 O411 2.162 . S
Mn396 O412 2.297 . S
Mn396 O420 2.385 . S
Mn396 O421 2.209 . S
Mn396 O422 2.094 . S
Mn397 O402 2.121 . S
Mn397 N404 2.257 . S
Mn397 N413 2.282 . S
Mn397 O421 2.215 . S
Mn397 O423 2.117 . S
C398 O420 1.234 . S
C398 O421 1.283 . S
C399 O411 1.281 . S
C399 O412 1.236 . S
C400 O422 1.240 . S
C400 O423 1.264 . S
O401 Mn396 2.095 . S
O401 C410 1.250 . S
O402 Mn397 2.121 . S
O402 C410 1.258 . S
C403 N404 1.326 . S
C403 C407 1.460 . S
C403 H409 0.929 . S
N404 Mn397 2.257 . S
N404 C403 1.326 . S
N404 C408 1.362 . S
C405 C406 1.258 . S
C405 C408 1.431 . S
C405 C425 1.449 . S
C406 C405 1.258 . S
C406 C407 1.477 . S
C406 H426 0.931 . S
C407 C403 1.460 . S
C407 C406 1.477 . S
C407 H427 0.930 . S
C408 N404 1.362 . S
C408 C405 1.431 . S
C408 C418 1.476 . S
H409 C403 0.929 . S
C410 O401 1.250 . S
C410 O402 1.258 . S
O411 Mn396 2.162 . S
O411 C399 1.281 . S
O412 Mn396 2.297 . S
O412 C399 1.236 . S
N413 Mn397 2.282 . S
N413 C414 1.328 . S
N413 C418 1.318 . S
C414 N413 1.328 . S
C414 C415 1.457 . S
C414 H419 0.929 . S
C415 C414 1.457 . S
C415 C416 1.291 . S
C415 H428 0.931 . S
C416 C415 1.291 . S
C416 C417 1.373 . S
C416 H429 0.929 . S
C417 C416 1.373 . S
C417 C418 1.396 . S
C417 C424 1.403 . S
C418 C408 1.476 . S
C418 N413 1.318 . S
C418 C417 1.396 . S
H419 C414 0.929 . S
O420 Mn396 2.385 . S
O420 C398 1.234 . S
O421 Mn396 2.209 . S
O421 Mn397 2.215 . S
O421 C398 1.283 . S
O422 Mn396 2.094 . S
O422 C400 1.240 . S
O423 Mn397 2.117 . S
O423 C400 1.264 . S
C424 C417 1.403 . S
C424 C425 1.399 . S
C424 H430 0.929 . S
C425 C405 1.449 . S
C425 C424 1.399 . S
C425 H431 0.930 . S
H426 C406 0.931 . S
H427 C407 0.930 . S
H428 C415 0.931 . S
H429 C416 0.929 . S
H430 C424 0.929 . S
H431 C425 0.930 . S
Mn432 O437 2.095 . S
Mn432 O447 2.162 . S
Mn432 O448 2.297 . S
Mn432 O456 2.385 . S
Mn432 O457 2.209 . S
Mn432 O458 2.094 . S
Mn433 O438 2.121 . S
Mn433 N440 2.257 . S
Mn433 N449 2.282 . S
Mn433 O457 2.215 1_565 S
Mn433 O459 2.117 . S
C434 O456 1.234 . S
C434 O457 1.283 . S
C435 O447 1.281 . S
C435 O448 1.236 . S
C436 O458 1.240 . S
C436 O459 1.264 1_545 S
O437 Mn432 2.095 . S
O437 C446 1.250 1_545 S
O438 Mn433 2.121 . S
O438 C446 1.258 . S
C439 N440 1.326 . S
C439 C443 1.460 . S
C439 H445 0.929 . S
N440 Mn433 2.257 . S
N440 C439 1.326 . S
N440 C444 1.362 . S
C441 C442 1.258 . S
C441 C444 1.431 . S
C441 C461 1.449 . S
C442 C441 1.258 . S
C442 C443 1.477 . S
C442 H462 0.931 . S
C443 C439 1.460 . S
C443 C442 1.477 . S
C443 H463 0.930 . S
C444 N440 1.362 . S
C444 C441 1.431 . S
C444 C454 1.476 . S
H445 C439 0.929 . S
C446 O437 1.250 1_565 S
C446 O438 1.258 . S
O447 Mn432 2.162 . S
O447 C435 1.281 . S
O448 Mn432 2.297 . S
O448 C435 1.236 . S
N449 Mn433 2.282 . S
N449 C450 1.328 . S
N449 C454 1.318 . S
C450 N449 1.328 . S
C450 C451 1.456 1_565 S
C450 H455 0.929 1_565 S
C451 C450 1.456 1_545 S
C451 C452 1.289 1_545 S
C451 H464 0.933 . S
C452 C451 1.289 1_565 S
C452 C453 1.373 . S
C452 H465 0.929 . S
C453 C452 1.373 . S
C453 C454 1.396 . S
C453 C460 1.403 . S
C454 C444 1.476 . S
C454 N449 1.318 . S
C454 C453 1.396 . S
H455 C450 0.929 1_545 S
O456 Mn432 2.385 . S
O456 C434 1.234 . S
O457 Mn432 2.209 . S
O457 Mn433 2.215 1_545 S
O457 C434 1.283 . S
O458 Mn432 2.094 . S
O458 C436 1.240 . S
O459 Mn433 2.117 . S
O459 C436 1.264 1_565 S
C460 C453 1.403 . S
C460 C461 1.399 . S
C460 H466 0.929 . S
C461 C441 1.449 . S
C461 C460 1.399 . S
C461 H467 0.930 . S
H462 C442 0.931 . S
H463 C443 0.930 . S
H464 C451 0.933 . S
H465 C452 0.929 . S
H466 C460 0.929 . S
H467 C461 0.930 . S
Mn468 O473 2.095 . S
Mn468 O483 2.162 . S
Mn468 O484 2.297 . S
Mn468 O492 2.385 . S
Mn468 O493 2.209 . S
Mn468 O494 2.094 . S
Mn469 O474 2.121 . S
Mn469 N476 2.257 . S
Mn469 N485 2.282 . S
Mn469 O493 2.215 . S
Mn469 O495 2.117 . S
C470 O492 1.234 . S
C470 O493 1.283 . S
C471 O483 1.281 . S
C471 O484 1.236 . S
C472 O494 1.240 . S
C472 O495 1.264 . S
O473 Mn468 2.095 . S
O473 C482 1.250 . S
O474 Mn469 2.121 . S
O474 C482 1.258 . S
C475 N476 1.326 . S
C475 C479 1.460 . S
C475 H481 0.929 . S
N476 Mn469 2.257 . S
N476 C475 1.326 . S
N476 C480 1.362 . S
C477 C478 1.258 . S
C477 C480 1.431 . S
C477 C497 1.449 . S
C478 C477 1.258 . S
C478 C479 1.477 . S
C478 H498 0.931 . S
C479 C475 1.460 . S
C479 C478 1.477 . S
C479 H499 0.930 . S
C480 N476 1.362 . S
C480 C477 1.431 . S
C480 C490 1.476 . S
H481 C475 0.929 . S
C482 O473 1.250 . S
C482 O474 1.258 . S
O483 Mn468 2.162 . S
O483 C471 1.281 . S
O484 Mn468 2.297 . S
O484 C471 1.236 . S
N485 Mn469 2.282 . S
N485 C486 1.328 . S
N485 C490 1.318 . S
C486 N485 1.328 . S
C486 C487 1.457 . S
C486 H491 0.929 . S
C487 C486 1.457 . S
C487 C488 1.291 . S
C487 H500 0.931 . S
C488 C487 1.291 . S
C488 C489 1.373 . S
C488 H501 0.929 . S
C489 C488 1.373 . S
C489 C490 1.396 . S
C489 C496 1.403 . S
C490 C480 1.476 . S
C490 N485 1.318 . S
C490 C489 1.396 . S
H491 C486 0.929 . S
O492 Mn468 2.385 . S
O492 C470 1.234 . S
O493 Mn468 2.209 . S
O493 Mn469 2.215 . S
O493 C470 1.283 . S
O494 Mn468 2.094 . S
O494 C472 1.240 . S
O495 Mn469 2.117 . S
O495 C472 1.264 . S
C496 C489 1.403 . S
C496 C497 1.399 . S
C496 H502 0.929 . S
C497 C477 1.449 . S
C497 C496 1.399 . S
C497 H503 0.930 . S
H498 C478 0.931 . S
H499 C479 0.930 . S
H500 C487 0.931 . S
H501 C488 0.929 . S
H502 C496 0.929 . S
H503 C497 0.930 . S
Mn504 O509 2.095 . S
Mn504 O519 2.162 . S
Mn504 O520 2.297 . S
Mn504 O528 2.385 . S
Mn504 O529 2.209 . S
Mn504 O530 2.094 . S
Mn505 O510 2.121 . S
Mn505 N512 2.257 . S
Mn505 N521 2.282 1_655 S
Mn505 O529 2.215 1_545 S
Mn505 O531 2.117 . S
C506 O528 1.234 . S
C506 O529 1.283 . S
C507 O519 1.281 . S
C507 O520 1.236 . S
C508 O530 1.240 . S
C508 O531 1.264 1_565 S
O509 Mn504 2.095 . S
O509 C518 1.250 1_565 S
O510 Mn505 2.121 . S
O510 C518 1.258 . S
C511 N512 1.326 . S
C511 C515 1.460 . S
C511 H517 0.929 . S
N512 Mn505 2.257 . S
N512 C511 1.326 . S
N512 C516 1.362 1_655 S
C513 C514 1.258 . S
C513 C516 1.431 . S
C513 C533 1.449 . S
C514 C513 1.258 . S
C514 C515 1.477 1_455 S
C514 H534 0.931 . S
C515 C511 1.460 . S
C515 C514 1.477 1_655 S
C515 H535 0.930 . S
C516 N512 1.362 1_455 S
C516 C513 1.431 . S
C516 C526 1.476 . S
H517 C511 0.929 . S
C518 O509 1.250 1_545 S
C518 O510 1.258 . S
O519 Mn504 2.162 . S
O519 C507 1.281 . S
O520 Mn504 2.297 . S
O520 C507 1.236 . S
N521 Mn505 2.282 1_455 S
N521 C522 1.328 . S
N521 C526 1.318 . S
C522 N521 1.328 . S
C522 C523 1.456 1_545 S
C522 H527 0.929 1_545 S
C523 C522 1.456 1_565 S
C523 C524 1.289 1_565 S
C523 H536 0.933 . S
C524 C523 1.289 1_545 S
C524 C525 1.373 . S
C524 H537 0.929 . S
C525 C524 1.373 . S
C525 C526 1.396 . S
C525 C532 1.403 . S
C526 C516 1.476 . S
C526 N521 1.318 . S
C526 C525 1.396 . S
H527 C522 0.929 1_565 S
O528 Mn504 2.385 . S
O528 C506 1.234 . S
O529 Mn504 2.209 . S
O529 Mn505 2.215 1_565 S
O529 C506 1.283 . S
O530 Mn504 2.094 . S
O530 C508 1.240 . S
O531 Mn505 2.117 . S
O531 C508 1.264 1_545 S
C532 C525 1.403 . S
C532 C533 1.399 . S
C532 H538 0.929 . S
C533 C513 1.449 . S
C533 C532 1.399 . S
C533 H539 0.930 . S
H534 C514 0.931 . S
H535 C515 0.930 . S
H536 C523 0.933 . S
H537 C524 0.929 . S
H538 C532 0.929 . S
H539 C533 0.930 . S
Mn540 O545 2.095 . S
Mn540 O555 2.162 . S
Mn540 O556 2.297 . S
Mn540 O564 2.385 . S
Mn540 O565 2.209 . S
Mn540 O566 2.094 . S
Mn541 O546 2.121 . S
Mn541 N548 2.257 . S
Mn541 N557 2.282 . S
Mn541 O565 2.215 . S
Mn541 O567 2.117 . S
C542 O564 1.234 . S
C542 O565 1.283 . S
C543 O555 1.281 . S
C543 O556 1.236 . S
C544 O566 1.240 . S
C544 O567 1.264 . S
O545 Mn540 2.095 . S
O545 C554 1.250 . S
O546 Mn541 2.121 . S
O546 C554 1.258 . S
C547 N548 1.326 . S
C547 C551 1.460 . S
C547 H553 0.929 . S
N548 Mn541 2.257 . S
N548 C547 1.326 . S
N548 C552 1.362 . S
C549 C550 1.258 . S
C549 C552 1.431 . S
C549 C569 1.449 . S
C550 C549 1.258 . S
C550 C551 1.477 . S
C550 H570 0.931 . S
C551 C547 1.460 . S
C551 C550 1.477 . S
C551 H571 0.930 . S
C552 N548 1.362 . S
C552 C549 1.431 . S
C552 C562 1.476 . S
H553 C547 0.929 . S
C554 O545 1.250 . S
C554 O546 1.258 . S
O555 Mn540 2.162 . S
O555 C543 1.281 . S
O556 Mn540 2.297 . S
O556 C543 1.236 . S
N557 Mn541 2.282 . S
N557 C558 1.328 . S
N557 C562 1.318 . S
C558 N557 1.328 . S
C558 C559 1.457 . S
C558 H563 0.929 . S
C559 C558 1.457 . S
C559 C560 1.291 . S
C559 H572 0.931 . S
C560 C559 1.291 . S
C560 C561 1.373 . S
C560 H573 0.929 . S
C561 C560 1.373 . S
C561 C562 1.396 . S
C561 C568 1.403 . S
C562 C552 1.476 . S
C562 N557 1.318 . S
C562 C561 1.396 . S
H563 C558 0.929 . S
O564 Mn540 2.385 . S
O564 C542 1.234 . S
O565 Mn540 2.209 . S
O565 Mn541 2.215 . S
O565 C542 1.283 . S
O566 Mn540 2.094 . S
O566 C544 1.240 . S
O567 Mn541 2.117 . S
O567 C544 1.264 . S
C568 C561 1.403 . S
C568 C569 1.399 . S
C568 H574 0.929 . S
C569 C549 1.449 . S
C569 C568 1.399 . S
C569 H575 0.930 . S
H570 C550 0.931 . S
H571 C551 0.930 . S
H572 C559 0.931 . S
H573 C560 0.929 . S
H574 C568 0.929 . S
H575 C569 0.930 . S
Mn576 O581 2.095 . S
Mn576 O591 2.162 . S
Mn576 O592 2.297 . S
Mn576 O600 2.385 . S
Mn576 O601 2.209 . S
Mn576 O602 2.094 . S
Mn577 O582 2.121 . S
Mn577 N584 2.257 . S
Mn577 N593 2.282 1_655 S
Mn577 O601 2.215 . S
Mn577 O603 2.117 . S
C578 O600 1.234 . S
C578 O601 1.283 . S
C579 O591 1.281 . S
C579 O592 1.236 . S
C580 O602 1.240 . S
C580 O603 1.264 . S
O581 Mn576 2.095 . S
O581 C590 1.250 . S
O582 Mn577 2.121 . S
O582 C590 1.258 . S
C583 N584 1.326 . S
C583 C587 1.460 . S
C583 H589 0.929 . S
N584 Mn577 2.257 . S
N584 C583 1.326 . S
N584 C588 1.362 1_655 S
C585 C586 1.258 . S
C585 C588 1.431 . S
C585 C605 1.449 . S
C586 C585 1.258 . S
C586 C587 1.477 1_455 S
C586 H606 0.931 . S
C587 C583 1.460 . S
C587 C586 1.477 1_655 S
C587 H607 0.930 . S
C588 N584 1.362 1_455 S
C588 C585 1.431 . S
C588 C598 1.476 . S
H589 C583 0.929 . S
C590 O581 1.250 . S
C590 O582 1.258 . S
O591 Mn576 2.162 . S
O591 C579 1.281 . S
O592 Mn576 2.297 . S
O592 C579 1.236 . S
N593 Mn577 2.282 1_455 S
N593 C594 1.328 . S
N593 C598 1.318 . S
C594 N593 1.328 . S
C594 C595 1.457 . S
C594 H599 0.929 . S
C595 C594 1.457 . S
C595 C596 1.291 . S
C595 H608 0.931 . S
C596 C595 1.291 . S
C596 C597 1.373 . S
C596 H609 0.929 . S
C597 C596 1.373 . S
C597 C598 1.396 . S
C597 C604 1.403 . S
C598 C588 1.476 . S
C598 N593 1.318 . S
C598 C597 1.396 . S
H599 C594 0.929 . S
O600 Mn576 2.385 . S
O600 C578 1.234 . S
O601 Mn576 2.209 . S
O601 Mn577 2.215 . S
O601 C578 1.283 . S
O602 Mn576 2.094 . S
O602 C580 1.240 . S
O603 Mn577 2.117 . S
O603 C580 1.264 . S
C604 C597 1.403 . S
C604 C605 1.399 . S
C604 H610 0.929 . S
C605 C585 1.449 . S
C605 C604 1.399 . S
C605 H611 0.930 . S
H606 C586 0.931 . S
H607 C587 0.930 . S
H608 C595 0.931 . S
H609 C596 0.929 . S
H610 C604 0.929 . S
H611 C605 0.930 . S
Mn612 O617 2.095 . S
Mn612 O627 2.162 . S
Mn612 O628 2.297 . S
Mn612 O636 2.385 . S
Mn612 O637 2.209 . S
Mn612 O638 2.094 . S
Mn613 O618 2.121 . S
Mn613 N620 2.257 . S
Mn613 N629 2.282 . S
Mn613 O637 2.215 . S
Mn613 O639 2.117 . S
C614 O636 1.234 . S
C614 O637 1.283 . S
C615 O627 1.281 . S
C615 O628 1.236 . S
C616 O638 1.240 . S
C616 O639 1.264 . S
O617 Mn612 2.095 . S
O617 C626 1.250 . S
O618 Mn613 2.121 . S
O618 C626 1.258 . S
C619 N620 1.326 . S
C619 C623 1.460 . S
C619 H625 0.929 . S
N620 Mn613 2.257 . S
N620 C619 1.326 . S
N620 C624 1.362 . S
C621 C622 1.258 . S
C621 C624 1.431 . S
C621 C641 1.449 . S
C622 C621 1.258 . S
C622 C623 1.477 . S
C622 H642 0.931 . S
C623 C619 1.460 . S
C623 C622 1.477 . S
C623 H643 0.930 . S
C624 N620 1.362 . S
C624 C621 1.431 . S
C624 C634 1.476 . S
H625 C619 0.929 . S
C626 O617 1.250 . S
C626 O618 1.258 . S
O627 Mn612 2.162 . S
O627 C615 1.281 . S
O628 Mn612 2.297 . S
O628 C615 1.236 . S
N629 Mn613 2.282 . S
N629 C630 1.328 . S
N629 C634 1.318 . S
C630 N629 1.328 . S
C630 C631 1.457 . S
C630 H635 0.929 . S
C631 C630 1.457 . S
C631 C632 1.291 . S
C631 H644 0.931 . S
C632 C631 1.291 . S
C632 C633 1.373 . S
C632 H645 0.929 . S
C633 C632 1.373 . S
C633 C634 1.396 . S
C633 C640 1.403 . S
C634 C624 1.476 . S
C634 N629 1.318 . S
C634 C633 1.396 . S
H635 C630 0.929 . S
O636 Mn612 2.385 . S
O636 C614 1.234 . S
O637 Mn612 2.209 . S
O637 Mn613 2.215 . S
O637 C614 1.283 . S
O638 Mn612 2.094 . S
O638 C616 1.240 . S
O639 Mn613 2.117 . S
O639 C616 1.264 . S
C640 C633 1.403 . S
C640 C641 1.399 . S
C640 H646 0.929 . S
C641 C621 1.449 . S
C641 C640 1.399 . S
C641 H647 0.930 . S
H642 C622 0.931 . S
H643 C623 0.930 . S
H644 C631 0.931 . S
H645 C632 0.929 . S
H646 C640 0.929 . S
H647 C641 0.930 . S
Mn648 O653 2.095 . S
Mn648 O663 2.162 . S
Mn648 O664 2.297 . S
Mn648 O672 2.385 . S
Mn648 O673 2.209 . S
Mn648 O674 2.094 . S
Mn649 O654 2.121 . S
Mn649 N656 2.257 . S
Mn649 N665 2.282 . S
Mn649 O673 2.215 . S
Mn649 O675 2.117 . S
C650 O672 1.234 . S
C650 O673 1.283 . S
C651 O663 1.281 . S
C651 O664 1.236 . S
C652 O674 1.240 . S
C652 O675 1.264 . S
O653 Mn648 2.095 . S
O653 C662 1.250 . S
O654 Mn649 2.121 . S
O654 C662 1.258 . S
C655 N656 1.326 . S
C655 C659 1.460 . S
C655 H661 0.929 . S
N656 Mn649 2.257 . S
N656 C655 1.326 . S
N656 C660 1.362 . S
C657 C658 1.258 . S
C657 C660 1.431 . S
C657 C677 1.449 . S
C658 C657 1.258 . S
C658 C659 1.477 . S
C658 H678 0.931 . S
C659 C655 1.460 . S
C659 C658 1.477 . S
C659 H679 0.930 . S
C660 N656 1.362 . S
C660 C657 1.431 . S
C660 C670 1.476 . S
H661 C655 0.929 . S
C662 O653 1.250 . S
C662 O654 1.258 . S
O663 Mn648 2.162 . S
O663 C651 1.281 . S
O664 Mn648 2.297 . S
O664 C651 1.236 . S
N665 Mn649 2.282 . S
N665 C666 1.328 . S
N665 C670 1.318 . S
C666 N665 1.328 . S
C666 C667 1.457 . S
C666 H671 0.929 . S
C667 C666 1.457 . S
C667 C668 1.291 . S
C667 H680 0.931 . S
C668 C667 1.291 . S
C668 C669 1.373 . S
C668 H681 0.929 . S
C669 C668 1.373 . S
C669 C670 1.396 . S
C669 C676 1.403 . S
C670 C660 1.476 . S
C670 N665 1.318 . S
C670 C669 1.396 . S
H671 C666 0.929 . S
O672 Mn648 2.385 . S
O672 C650 1.234 . S
O673 Mn648 2.209 . S
O673 Mn649 2.215 . S
O673 C650 1.283 . S
O674 Mn648 2.094 . S
O674 C652 1.240 . S
O675 Mn649 2.117 . S
O675 C652 1.264 . S
C676 C669 1.403 . S
C676 C677 1.399 . S
C676 H682 0.929 . S
C677 C657 1.449 . S
C677 C676 1.399 . S
C677 H683 0.930 . S
H678 C658 0.931 . S
H679 C659 0.930 . S
H680 C667 0.931 . S
H681 C668 0.929 . S
H682 C676 0.929 . S
H683 C677 0.930 . S
Mn684 O689 2.095 . S
Mn684 O699 2.162 . S
Mn684 O700 2.297 . S
Mn684 O708 2.385 . S
Mn684 O709 2.209 . S
Mn684 O710 2.094 . S
Mn685 O690 2.121 . S
Mn685 N692 2.257 . S
Mn685 N701 2.282 . S
Mn685 O709 2.215 . S
Mn685 O711 2.117 . S
C686 O708 1.234 . S
C686 O709 1.283 . S
C687 O699 1.281 . S
C687 O700 1.236 . S
C688 O710 1.240 . S
C688 O711 1.264 . S
O689 Mn684 2.095 . S
O689 C698 1.250 . S
O690 Mn685 2.121 . S
O690 C698 1.258 . S
C691 N692 1.326 . S
C691 C695 1.460 . S
C691 H697 0.929 . S
N692 Mn685 2.257 . S
N692 C691 1.326 . S
N692 C696 1.362 . S
C693 C694 1.258 . S
C693 C696 1.431 . S
C693 C713 1.449 . S
C694 C693 1.258 . S
C694 C695 1.477 . S
C694 H714 0.931 . S
C695 C691 1.460 . S
C695 C694 1.477 . S
C695 H715 0.930 . S
C696 N692 1.362 . S
C696 C693 1.431 . S
C696 C706 1.476 . S
H697 C691 0.929 . S
C698 O689 1.250 . S
C698 O690 1.258 . S
O699 Mn684 2.162 . S
O699 C687 1.281 . S
O700 Mn684 2.297 . S
O700 C687 1.236 . S
N701 Mn685 2.282 . S
N701 C702 1.328 . S
N701 C706 1.318 . S
C702 N701 1.328 . S
C702 C703 1.457 . S
C702 H707 0.929 . S
C703 C702 1.457 . S
C703 C704 1.291 . S
C703 H716 0.931 . S
C704 C703 1.291 . S
C704 C705 1.373 . S
C704 H717 0.929 . S
C705 C704 1.373 . S
C705 C706 1.396 . S
C705 C712 1.403 . S
C706 C696 1.476 . S
C706 N701 1.318 . S
C706 C705 1.396 . S
H707 C702 0.929 . S
O708 Mn684 2.385 . S
O708 C686 1.234 . S
O709 Mn684 2.209 . S
O709 Mn685 2.215 . S
O709 C686 1.283 . S
O710 Mn684 2.094 . S
O710 C688 1.240 . S
O711 Mn685 2.117 . S
O711 C688 1.264 . S
C712 C705 1.403 . S
C712 C713 1.399 . S
C712 H718 0.929 . S
C713 C693 1.449 . S
C713 C712 1.399 . S
C713 H719 0.930 . S
H714 C694 0.931 . S
H715 C695 0.930 . S
H716 C703 0.931 . S
H717 C704 0.929 . S
H718 C712 0.929 . S
H719 C713 0.930 . S
Mn720 O725 2.095 . S
Mn720 O735 2.162 . S
Mn720 O736 2.297 . S
Mn720 O744 2.385 . S
Mn720 O745 2.209 . S
Mn720 O746 2.094 . S
Mn721 O726 2.121 . S
Mn721 N728 2.257 . S
Mn721 N737 2.282 1_655 S
Mn721 O745 2.215 . S
Mn721 O747 2.117 . S
C722 O744 1.234 . S
C722 O745 1.283 . S
C723 O735 1.281 . S
C723 O736 1.236 . S
C724 O746 1.240 . S
C724 O747 1.264 . S
O725 Mn720 2.095 . S
O725 C734 1.250 . S
O726 Mn721 2.121 . S
O726 C734 1.258 . S
C727 N728 1.326 . S
C727 C731 1.460 . S
C727 H733 0.929 . S
N728 Mn721 2.257 . S
N728 C727 1.326 . S
N728 C732 1.362 1_655 S
C729 C730 1.258 . S
C729 C732 1.431 . S
C729 C749 1.449 . S
C730 C729 1.258 . S
C730 C731 1.477 1_455 S
C730 H750 0.931 . S
C731 C727 1.460 . S
C731 C730 1.477 1_655 S
C731 H751 0.930 . S
C732 N728 1.362 1_455 S
C732 C729 1.431 . S
C732 C742 1.476 . S
H733 C727 0.929 . S
C734 O725 1.250 . S
C734 O726 1.258 . S
O735 Mn720 2.162 . S
O735 C723 1.281 . S
O736 Mn720 2.297 . S
O736 C723 1.236 . S
N737 Mn721 2.282 1_455 S
N737 C738 1.328 . S
N737 C742 1.318 . S
C738 N737 1.328 . S
C738 C739 1.457 . S
C738 H743 0.929 . S
C739 C738 1.457 . S
C739 C740 1.291 . S
C739 H752 0.931 . S
C740 C739 1.291 . S
C740 C741 1.373 . S
C740 H753 0.929 . S
C741 C740 1.373 . S
C741 C742 1.396 . S
C741 C748 1.403 . S
C742 C732 1.476 . S
C742 N737 1.318 . S
C742 C741 1.396 . S
H743 C738 0.929 . S
O744 Mn720 2.385 . S
O744 C722 1.234 . S
O745 Mn720 2.209 . S
O745 Mn721 2.215 . S
O745 C722 1.283 . S
O746 Mn720 2.094 . S
O746 C724 1.240 . S
O747 Mn721 2.117 . S
O747 C724 1.264 . S
C748 C741 1.403 . S
C748 C749 1.399 . S
C748 H754 0.929 . S
C749 C729 1.449 . S
C749 C748 1.399 . S
C749 H755 0.930 . S
H750 C730 0.931 . S
H751 C731 0.930 . S
H752 C739 0.931 . S
H753 C740 0.929 . S
H754 C748 0.929 . S
H755 C749 0.930 . S
Mn756 O761 2.095 . S
Mn756 O771 2.162 . S
Mn756 O772 2.297 . S
Mn756 O780 2.385 . S
Mn756 O781 2.209 . S
Mn756 O782 2.094 . S
Mn757 O762 2.121 . S
Mn757 N764 2.257 . S
Mn757 N773 2.282 . S
Mn757 O781 2.215 . S
Mn757 O783 2.117 . S
C758 O780 1.234 . S
C758 O781 1.283 . S
C759 O771 1.281 . S
C759 O772 1.236 . S
C760 O782 1.240 . S
C760 O783 1.264 . S
O761 Mn756 2.095 . S
O761 C770 1.250 . S
O762 Mn757 2.121 . S
O762 C770 1.258 . S
C763 N764 1.326 . S
C763 C767 1.460 . S
C763 H769 0.929 . S
N764 Mn757 2.257 . S
N764 C763 1.326 . S
N764 C768 1.362 . S
C765 C766 1.258 . S
C765 C768 1.431 . S
C765 C785 1.449 . S
C766 C765 1.258 . S
C766 C767 1.477 . S
C766 H786 0.931 . S
C767 C763 1.460 . S
C767 C766 1.477 . S
C767 H787 0.930 . S
C768 N764 1.362 . S
C768 C765 1.431 . S
C768 C778 1.476 . S
H769 C763 0.929 . S
C770 O761 1.250 . S
C770 O762 1.258 . S
O771 Mn756 2.162 . S
O771 C759 1.281 . S
O772 Mn756 2.297 . S
O772 C759 1.236 . S
N773 Mn757 2.282 . S
N773 C774 1.328 . S
N773 C778 1.318 . S
C774 N773 1.328 . S
C774 C775 1.457 . S
C774 H779 0.929 . S
C775 C774 1.457 . S
C775 C776 1.291 . S
C775 H788 0.931 . S
C776 C775 1.291 . S
C776 C777 1.373 . S
C776 H789 0.929 . S
C777 C776 1.373 . S
C777 C778 1.396 . S
C777 C784 1.403 . S
C778 C768 1.476 . S
C778 N773 1.318 . S
C778 C777 1.396 . S
H779 C774 0.929 . S
O780 Mn756 2.385 . S
O780 C758 1.234 . S
O781 Mn756 2.209 . S
O781 Mn757 2.215 . S
O781 C758 1.283 . S
O782 Mn756 2.094 . S
O782 C760 1.240 . S
O783 Mn757 2.117 . S
O783 C760 1.264 . S
C784 C777 1.403 . S
C784 C785 1.399 . S
C784 H790 0.929 . S
C785 C765 1.449 . S
C785 C784 1.399 . S
C785 H791 0.930 . S
H786 C766 0.931 . S
H787 C767 0.930 . S
H788 C775 0.931 . S
H789 C776 0.929 . S
H790 C784 0.929 . S
H791 C785 0.930 . S
Mn792 O797 2.095 . S
Mn792 O807 2.162 . S
Mn792 O808 2.297 . S
Mn792 O816 2.385 . S
Mn792 O817 2.209 . S
Mn792 O818 2.094 . S
Mn793 O798 2.121 . S
Mn793 N800 2.257 . S
Mn793 N809 2.282 . S
Mn793 O817 2.215 . S
Mn793 O819 2.117 . S
C794 O816 1.234 . S
C794 O817 1.283 . S
C795 O807 1.281 . S
C795 O808 1.236 . S
C796 O818 1.240 . S
C796 O819 1.264 . S
O797 Mn792 2.095 . S
O797 C806 1.250 . S
O798 Mn793 2.121 . S
O798 C806 1.258 . S
C799 N800 1.326 . S
C799 C803 1.460 . S
C799 H805 0.929 . S
N800 Mn793 2.257 . S
N800 C799 1.326 . S
N800 C804 1.362 . S
C801 C802 1.258 . S
C801 C804 1.431 . S
C801 C821 1.449 . S
C802 C801 1.258 . S
C802 C803 1.477 . S
C802 H822 0.931 . S
C803 C799 1.460 . S
C803 C802 1.477 . S
C803 H823 0.930 . S
C804 N800 1.362 . S
C804 C801 1.431 . S
C804 C814 1.476 . S
H805 C799 0.929 . S
C806 O797 1.250 . S
C806 O798 1.258 . S
O807 Mn792 2.162 . S
O807 C795 1.281 . S
O808 Mn792 2.297 . S
O808 C795 1.236 . S
N809 Mn793 2.282 . S
N809 C810 1.328 . S
N809 C814 1.318 . S
C810 N809 1.328 . S
C810 C811 1.457 . S
C810 H815 0.929 . S
C811 C810 1.457 . S
C811 C812 1.291 . S
C811 H824 0.931 . S
C812 C811 1.291 . S
C812 C813 1.373 . S
C812 H825 0.929 . S
C813 C812 1.373 . S
C813 C814 1.396 . S
C813 C820 1.403 . S
C814 C804 1.476 . S
C814 N809 1.318 . S
C814 C813 1.396 . S
H815 C810 0.929 . S
O816 Mn792 2.385 . S
O816 C794 1.234 . S
O817 Mn792 2.209 . S
O817 Mn793 2.215 . S
O817 C794 1.283 . S
O818 Mn792 2.094 . S
O818 C796 1.240 . S
O819 Mn793 2.117 . S
O819 C796 1.264 . S
C820 C813 1.403 . S
C820 C821 1.399 . S
C820 H826 0.929 . S
C821 C801 1.449 . S
C821 C820 1.399 . S
C821 H827 0.930 . S
H822 C802 0.931 . S
H823 C803 0.930 . S
H824 C811 0.931 . S
H825 C812 0.929 . S
H826 C820 0.929 . S
H827 C821 0.930 . S
Mn828 O833 2.095 . S
Mn828 O843 2.162 . S
Mn828 O844 2.297 . S
Mn828 O852 2.385 . S
Mn828 O853 2.209 . S
Mn828 O854 2.094 . S
Mn829 O834 2.121 . S
Mn829 N836 2.257 . S
Mn829 N845 2.282 . S
Mn829 O853 2.215 . S
Mn829 O855 2.117 . S
C830 O852 1.234 . S
C830 O853 1.283 . S
C831 O843 1.281 . S
C831 O844 1.236 . S
C832 O854 1.240 . S
C832 O855 1.264 . S
O833 Mn828 2.095 . S
O833 C842 1.250 . S
O834 Mn829 2.121 . S
O834 C842 1.258 . S
C835 N836 1.326 . S
C835 C839 1.460 . S
C835 H841 0.929 . S
N836 Mn829 2.257 . S
N836 C835 1.326 . S
N836 C840 1.362 . S
C837 C838 1.258 . S
C837 C840 1.431 . S
C837 C857 1.449 . S
C838 C837 1.258 . S
C838 C839 1.477 . S
C838 H858 0.931 . S
C839 C835 1.460 . S
C839 C838 1.477 . S
C839 H859 0.930 . S
C840 N836 1.362 . S
C840 C837 1.431 . S
C840 C850 1.476 . S
H841 C835 0.929 . S
C842 O833 1.250 . S
C842 O834 1.258 . S
O843 Mn828 2.162 . S
O843 C831 1.281 . S
O844 Mn828 2.297 . S
O844 C831 1.236 . S
N845 Mn829 2.282 . S
N845 C846 1.328 . S
N845 C850 1.318 . S
C846 N845 1.328 . S
C846 C847 1.457 . S
C846 H851 0.929 . S
C847 C846 1.457 . S
C847 C848 1.291 . S
C847 H860 0.931 . S
C848 C847 1.291 . S
C848 C849 1.373 . S
C848 H861 0.929 . S
C849 C848 1.373 . S
C849 C850 1.396 . S
C849 C856 1.403 . S
C850 C840 1.476 . S
C850 N845 1.318 . S
C850 C849 1.396 . S
H851 C846 0.929 . S
O852 Mn828 2.385 . S
O852 C830 1.234 . S
O853 Mn828 2.209 . S
O853 Mn829 2.215 . S
O853 C830 1.283 . S
O854 Mn828 2.094 . S
O854 C832 1.240 . S
O855 Mn829 2.117 . S
O855 C832 1.264 . S
C856 C849 1.403 . S
C856 C857 1.399 . S
C856 H862 0.929 . S
C857 C837 1.449 . S
C857 C856 1.399 . S
C857 H863 0.930 . S
H858 C838 0.931 . S
H859 C839 0.930 . S
H860 C847 0.931 . S
H861 C848 0.929 . S
H862 C856 0.929 . S
H863 C857 0.930 . S
Mn864 O869 2.095 . S
Mn864 O879 2.162 . S
Mn864 O880 2.297 . S
Mn864 O888 2.385 . S
Mn864 O889 2.209 . S
Mn864 O890 2.094 . S
Mn865 O870 2.121 . S
Mn865 N872 2.257 . S
Mn865 N881 2.282 1_455 S
Mn865 O889 2.215 . S
Mn865 O891 2.117 . S
C866 O888 1.234 . S
C866 O889 1.283 . S
C867 O879 1.281 . S
C867 O880 1.236 . S
C868 O890 1.240 . S
C868 O891 1.264 . S
O869 Mn864 2.095 . S
O869 C878 1.250 . S
O870 Mn865 2.121 . S
O870 C878 1.258 . S
C871 N872 1.326 . S
C871 C875 1.460 . S
C871 H877 0.929 . S
N872 Mn865 2.257 . S
N872 C871 1.326 . S
N872 C876 1.362 1_455 S
C873 C874 1.258 . S
C873 C876 1.431 . S
C873 C893 1.449 . S
C874 C873 1.258 . S
C874 C875 1.477 1_655 S
C874 H894 0.931 . S
C875 C871 1.460 . S
C875 C874 1.477 1_455 S
C875 H895 0.930 . S
C876 N872 1.362 1_655 S
C876 C873 1.431 . S
C876 C886 1.476 . S
H877 C871 0.929 . S
C878 O869 1.250 . S
C878 O870 1.258 . S
O879 Mn864 2.162 . S
O879 C867 1.281 . S
O880 Mn864 2.297 . S
O880 C867 1.236 . S
N881 Mn865 2.282 1_655 S
N881 C882 1.328 . S
N881 C886 1.318 . S
C882 N881 1.328 . S
C882 C883 1.457 . S
C882 H887 0.929 . S
C883 C882 1.457 . S
C883 C884 1.291 . S
C883 H896 0.931 . S
C884 C883 1.291 . S
C884 C885 1.373 . S
C884 H897 0.929 . S
C885 C884 1.373 . S
C885 C886 1.396 . S
C885 C892 1.403 . S
C886 C876 1.476 . S
C886 N881 1.318 . S
C886 C885 1.396 . S
H887 C882 0.929 . S
O888 Mn864 2.385 . S
O888 C866 1.234 . S
O889 Mn864 2.209 . S
O889 Mn865 2.215 . S
O889 C866 1.283 . S
O890 Mn864 2.094 . S
O890 C868 1.240 . S
O891 Mn865 2.117 . S
O891 C868 1.264 . S
C892 C885 1.403 . S
C892 C893 1.399 . S
C892 H898 0.929 . S
C893 C873 1.449 . S
C893 C892 1.399 . S
C893 H899 0.930 . S
H894 C874 0.931 . S
H895 C875 0.930 . S
H896 C883 0.931 . S
H897 C884 0.929 . S
H898 C892 0.929 . S
H899 C893 0.930 . S
Mn900 O905 2.095 . S
Mn900 O915 2.162 . S
Mn900 O916 2.297 . S
Mn900 O924 2.385 . S
Mn900 O925 2.209 . S
Mn900 O926 2.094 . S
Mn901 O906 2.121 . S
Mn901 N908 2.257 . S
Mn901 N917 2.282 . S
Mn901 O925 2.215 . S
Mn901 O927 2.117 . S
C902 O924 1.234 . S
C902 O925 1.283 . S
C903 O915 1.281 . S
C903 O916 1.236 . S
C904 O926 1.240 . S
C904 O927 1.264 . S
O905 Mn900 2.095 . S
O905 C914 1.250 . S
O906 Mn901 2.121 . S
O906 C914 1.258 . S
C907 N908 1.326 . S
C907 C911 1.460 . S
C907 H913 0.929 . S
N908 Mn901 2.257 . S
N908 C907 1.326 . S
N908 C912 1.362 . S
C909 C910 1.258 . S
C909 C912 1.431 . S
C909 C929 1.449 . S
C910 C909 1.258 . S
C910 C911 1.477 . S
C910 H930 0.931 . S
C911 C907 1.460 . S
C911 C910 1.477 . S
C911 H931 0.930 . S
C912 N908 1.362 . S
C912 C909 1.431 . S
C912 C922 1.476 . S
H913 C907 0.929 . S
C914 O905 1.250 . S
C914 O906 1.258 . S
O915 Mn900 2.162 . S
O915 C903 1.281 . S
O916 Mn900 2.297 . S
O916 C903 1.236 . S
N917 Mn901 2.282 . S
N917 C918 1.328 . S
N917 C922 1.318 . S
C918 N917 1.328 . S
C918 C919 1.457 . S
C918 H923 0.929 . S
C919 C918 1.457 . S
C919 C920 1.291 . S
C919 H932 0.931 . S
C920 C919 1.291 . S
C920 C921 1.373 . S
C920 H933 0.929 . S
C921 C920 1.373 . S
C921 C922 1.396 . S
C921 C928 1.403 . S
C922 C912 1.476 . S
C922 N917 1.318 . S
C922 C921 1.396 . S
H923 C918 0.929 . S
O924 Mn900 2.385 . S
O924 C902 1.234 . S
O925 Mn900 2.209 . S
O925 Mn901 2.215 . S
O925 C902 1.283 . S
O926 Mn900 2.094 . S
O926 C904 1.240 . S
O927 Mn901 2.117 . S
O927 C904 1.264 . S
C928 C921 1.403 . S
C928 C929 1.399 . S
C928 H934 0.929 . S
C929 C909 1.449 . S
C929 C928 1.399 . S
C929 H935 0.930 . S
H930 C910 0.931 . S
H931 C911 0.930 . S
H932 C919 0.931 . S
H933 C920 0.929 . S
H934 C928 0.929 . S
H935 C929 0.930 . S
Mn936 O941 2.095 . S
Mn936 O951 2.162 . S
Mn936 O952 2.297 . S
Mn936 O960 2.385 . S
Mn936 O961 2.209 . S
Mn936 O962 2.094 . S
Mn937 O942 2.121 . S
Mn937 N944 2.257 . S
Mn937 N953 2.282 . S
Mn937 O961 2.215 . S
Mn937 O963 2.117 . S
C938 O960 1.234 . S
C938 O961 1.283 . S
C939 O951 1.281 . S
C939 O952 1.236 . S
C940 O962 1.240 . S
C940 O963 1.264 . S
O941 Mn936 2.095 . S
O941 C950 1.250 . S
O942 Mn937 2.121 . S
O942 C950 1.258 . S
C943 N944 1.326 . S
C943 C947 1.460 . S
C943 H949 0.929 . S
N944 Mn937 2.257 . S
N944 C943 1.326 . S
N944 C948 1.362 . S
C945 C946 1.258 . S
C945 C948 1.431 . S
C945 C965 1.449 . S
C946 C945 1.258 . S
C946 C947 1.477 . S
C946 H966 0.931 . S
C947 C943 1.460 . S
C947 C946 1.477 . S
C947 H967 0.930 . S
C948 N944 1.362 . S
C948 C945 1.431 . S
C948 C958 1.476 . S
H949 C943 0.929 . S
C950 O941 1.250 . S
C950 O942 1.258 . S
O951 Mn936 2.162 . S
O951 C939 1.281 . S
O952 Mn936 2.297 . S
O952 C939 1.236 . S
N953 Mn937 2.282 . S
N953 C954 1.328 . S
N953 C958 1.318 . S
C954 N953 1.328 . S
C954 C955 1.457 . S
C954 H959 0.929 . S
C955 C954 1.457 . S
C955 C956 1.291 . S
C955 H968 0.931 . S
C956 C955 1.291 . S
C956 C957 1.373 . S
C956 H969 0.929 . S
C957 C956 1.373 . S
C957 C958 1.396 . S
C957 C964 1.403 . S
C958 C948 1.476 . S
C958 N953 1.318 . S
C958 C957 1.396 . S
H959 C954 0.929 . S
O960 Mn936 2.385 . S
O960 C938 1.234 . S
O961 Mn936 2.209 . S
O961 Mn937 2.215 . S
O961 C938 1.283 . S
O962 Mn936 2.094 . S
O962 C940 1.240 . S
O963 Mn937 2.117 . S
O963 C940 1.264 . S
C964 C957 1.403 . S
C964 C965 1.399 . S
C964 H970 0.929 . S
C965 C945 1.449 . S
C965 C964 1.399 . S
C965 H971 0.930 . S
H966 C946 0.931 . S
H967 C947 0.930 . S
H968 C955 0.931 . S
H969 C956 0.929 . S
H970 C964 0.929 . S
H971 C965 0.930 . S
Mn972 O977 2.095 . S
Mn972 O987 2.162 . S
Mn972 O988 2.297 . S
Mn972 O996 2.385 . S
Mn972 O997 2.209 . S
Mn972 O998 2.094 . S
Mn973 O978 2.121 . S
Mn973 N980 2.257 . S
Mn973 N989 2.282 . S
Mn973 O997 2.215 . S
Mn973 O999 2.117 . S
C974 O996 1.234 . S
C974 O997 1.283 . S
C975 O987 1.281 . S
C975 O988 1.236 . S
C976 O998 1.240 . S
C976 O999 1.264 . S
O977 Mn972 2.095 . S
O977 C986 1.250 . S
O978 Mn973 2.121 . S
O978 C986 1.258 . S
C979 N980 1.326 . S
C979 C983 1.460 . S
C979 H985 0.929 . S
N980 Mn973 2.257 . S
N980 C979 1.326 . S
N980 C984 1.362 . S
C981 C982 1.258 . S
C981 C984 1.431 . S
C981 C1001 1.449 . S
C982 C981 1.258 . S
C982 C983 1.477 . S
C982 H1002 0.931 . S
C983 C979 1.460 . S
C983 C982 1.477 . S
C983 H1003 0.930 . S
C984 N980 1.362 . S
C984 C981 1.431 . S
C984 C994 1.476 . S
H985 C979 0.929 . S
C986 O977 1.250 . S
C986 O978 1.258 . S
O987 Mn972 2.162 . S
O987 C975 1.281 . S
O988 Mn972 2.297 . S
O988 C975 1.236 . S
N989 Mn973 2.282 . S
N989 C990 1.328 . S
N989 C994 1.318 . S
C990 N989 1.328 . S
C990 C991 1.457 . S
C990 H995 0.929 . S
C991 C990 1.457 . S
C991 C992 1.291 . S
C991 H1004 0.931 . S
C992 C991 1.291 . S
C992 C993 1.373 . S
C992 H1005 0.929 . S
C993 C992 1.373 . S
C993 C994 1.396 . S
C993 C1000 1.403 . S
C994 C984 1.476 . S
C994 N989 1.318 . S
C994 C993 1.396 . S
H995 C990 0.929 . S
O996 Mn972 2.385 . S
O996 C974 1.234 . S
O997 Mn972 2.209 . S
O997 Mn973 2.215 . S
O997 C974 1.283 . S
O998 Mn972 2.094 . S
O998 C976 1.240 . S
O999 Mn973 2.117 . S
O999 C976 1.264 . S
C1000 C993 1.403 . S
C1000 C1001 1.399 . S
C1000 H1006 0.929 . S
C1001 C981 1.449 . S
C1001 C1000 1.399 . S
C1001 H1007 0.930 . S
H1002 C982 0.931 . S
H1003 C983 0.930 . S
H1004 C991 0.931 . S
H1005 C992 0.929 . S
H1006 C1000 0.929 . S
H1007 C1001 0.930 . S
Mn1008 O1013 2.095 . S
Mn1008 O1023 2.162 . S
Mn1008 O1024 2.297 . S
Mn1008 O1032 2.385 . S
Mn1008 O1033 2.209 . S
Mn1008 O1034 2.094 . S
Mn1009 O1014 2.121 . S
Mn1009 N1016 2.257 . S
Mn1009 N1025 2.282 1_455 S
Mn1009 O1033 2.215 . S
Mn1009 O1035 2.117 . S
C1010 O1032 1.234 . S
C1010 O1033 1.283 . S
C1011 O1023 1.281 . S
C1011 O1024 1.236 . S
C1012 O1034 1.240 . S
C1012 O1035 1.264 . S
O1013 Mn1008 2.095 . S
O1013 C1022 1.250 . S
O1014 Mn1009 2.121 . S
O1014 C1022 1.258 . S
C1015 N1016 1.326 . S
C1015 C1019 1.460 . S
C1015 H1021 0.929 . S
N1016 Mn1009 2.257 . S
N1016 C1015 1.326 . S
N1016 C1020 1.362 1_455 S
C1017 C1018 1.258 . S
C1017 C1020 1.431 . S
C1017 C1037 1.449 . S
C1018 C1017 1.258 . S
C1018 C1019 1.477 1_655 S
C1018 H1038 0.931 . S
C1019 C1015 1.460 . S
C1019 C1018 1.477 1_455 S
C1019 H1039 0.930 . S
C1020 N1016 1.362 1_655 S
C1020 C1017 1.431 . S
C1020 C1030 1.476 . S
H1021 C1015 0.929 . S
C1022 O1013 1.250 . S
C1022 O1014 1.258 . S
O1023 Mn1008 2.162 . S
O1023 C1011 1.281 . S
O1024 Mn1008 2.297 . S
O1024 C1011 1.236 . S
N1025 Mn1009 2.282 1_655 S
N1025 C1026 1.328 . S
N1025 C1030 1.318 . S
C1026 N1025 1.328 . S
C1026 C1027 1.457 . S
C1026 H1031 0.929 . S
C1027 C1026 1.457 . S
C1027 C1028 1.291 . S
C1027 H1040 0.931 . S
C1028 C1027 1.291 . S
C1028 C1029 1.373 . S
C1028 H1041 0.929 . S
C1029 C1028 1.373 . S
C1029 C1030 1.396 . S
C1029 C1036 1.403 . S
C1030 C1020 1.476 . S
C1030 N1025 1.318 . S
C1030 C1029 1.396 . S
H1031 C1026 0.929 . S
O1032 Mn1008 2.385 . S
O1032 C1010 1.234 . S
O1033 Mn1008 2.209 . S
O1033 Mn1009 2.215 . S
O1033 C1010 1.283 . S
O1034 Mn1008 2.094 . S
O1034 C1012 1.240 . S
O1035 Mn1009 2.117 . S
O1035 C1012 1.264 . S
C1036 C1029 1.403 . S
C1036 C1037 1.399 . S
C1036 H1042 0.929 . S
C1037 C1017 1.449 . S
C1037 C1036 1.399 . S
C1037 H1043 0.930 . S
H1038 C1018 0.931 . S
H1039 C1019 0.930 . S
H1040 C1027 0.931 . S
H1041 C1028 0.929 . S
H1042 C1036 0.929 . S
H1043 C1037 0.930 . S
Mn1044 O1049 2.095 . S
Mn1044 O1059 2.162 . S
Mn1044 O1060 2.297 . S
Mn1044 O1068 2.385 . S
Mn1044 O1069 2.209 . S
Mn1044 O1070 2.094 . S
Mn1045 O1050 2.121 . S
Mn1045 N1052 2.257 . S
Mn1045 N1061 2.282 . S
Mn1045 O1069 2.215 . S
Mn1045 O1071 2.117 . S
C1046 O1068 1.234 . S
C1046 O1069 1.283 . S
C1047 O1059 1.281 . S
C1047 O1060 1.236 . S
C1048 O1070 1.240 . S
C1048 O1071 1.264 . S
O1049 Mn1044 2.095 . S
O1049 C1058 1.250 . S
O1050 Mn1045 2.121 . S
O1050 C1058 1.258 . S
C1051 N1052 1.326 . S
C1051 C1055 1.460 . S
C1051 H1057 0.929 . S
N1052 Mn1045 2.257 . S
N1052 C1051 1.326 . S
N1052 C1056 1.362 . S
C1053 C1054 1.258 . S
C1053 C1056 1.431 . S
C1053 C1073 1.449 . S
C1054 C1053 1.258 . S
C1054 C1055 1.477 . S
C1054 H1074 0.931 . S
C1055 C1051 1.460 . S
C1055 C1054 1.477 . S
C1055 H1075 0.930 . S
C1056 N1052 1.362 . S
C1056 C1053 1.431 . S
C1056 C1066 1.476 . S
H1057 C1051 0.929 . S
C1058 O1049 1.250 . S
C1058 O1050 1.258 . S
O1059 Mn1044 2.162 . S
O1059 C1047 1.281 . S
O1060 Mn1044 2.297 . S
O1060 C1047 1.236 . S
N1061 Mn1045 2.282 . S
N1061 C1062 1.328 . S
N1061 C1066 1.318 . S
C1062 N1061 1.328 . S
C1062 C1063 1.457 . S
C1062 H1067 0.929 . S
C1063 C1062 1.457 . S
C1063 C1064 1.291 . S
C1063 H1076 0.931 . S
C1064 C1063 1.291 . S
C1064 C1065 1.373 . S
C1064 H1077 0.929 . S
C1065 C1064 1.373 . S
C1065 C1066 1.396 . S
C1065 C1072 1.403 . S
C1066 C1056 1.476 . S
C1066 N1061 1.318 . S
C1066 C1065 1.396 . S
H1067 C1062 0.929 . S
O1068 Mn1044 2.385 . S
O1068 C1046 1.234 . S
O1069 Mn1044 2.209 . S
O1069 Mn1045 2.215 . S
O1069 C1046 1.283 . S
O1070 Mn1044 2.094 . S
O1070 C1048 1.240 . S
O1071 Mn1045 2.117 . S
O1071 C1048 1.264 . S
C1072 C1065 1.403 . S
C1072 C1073 1.399 . S
C1072 H1078 0.929 . S
C1073 C1053 1.449 . S
C1073 C1072 1.399 . S
C1073 H1079 0.930 . S
H1074 C1054 0.931 . S
H1075 C1055 0.930 . S
H1076 C1063 0.931 . S
H1077 C1064 0.929 . S
H1078 C1072 0.929 . S
H1079 C1073 0.930 . S
Mn1080 O1085 2.095 . S
Mn1080 O1095 2.162 . S
Mn1080 O1096 2.297 . S
Mn1080 O1104 2.385 . S
Mn1080 O1105 2.209 . S
Mn1080 O1106 2.094 . S
Mn1081 O1086 2.121 . S
Mn1081 N1088 2.257 . S
Mn1081 N1097 2.282 . S
Mn1081 O1105 2.215 . S
Mn1081 O1107 2.117 . S
C1082 O1104 1.234 . S
C1082 O1105 1.283 . S
C1083 O1095 1.281 . S
C1083 O1096 1.236 . S
C1084 O1106 1.240 . S
C1084 O1107 1.264 . S
O1085 Mn1080 2.095 . S
O1085 C1094 1.250 . S
O1086 Mn1081 2.121 . S
O1086 C1094 1.258 . S
C1087 N1088 1.326 . S
C1087 C1091 1.460 . S
C1087 H1093 0.929 . S
N1088 Mn1081 2.257 . S
N1088 C1087 1.326 . S
N1088 C1092 1.362 . S
C1089 C1090 1.258 . S
C1089 C1092 1.431 . S
C1089 C1109 1.449 . S
C1090 C1089 1.258 . S
C1090 C1091 1.477 . S
C1090 H1110 0.931 . S
C1091 C1087 1.460 . S
C1091 C1090 1.477 . S
C1091 H1111 0.930 . S
C1092 N1088 1.362 . S
C1092 C1089 1.431 . S
C1092 C1102 1.476 . S
H1093 C1087 0.929 . S
C1094 O1085 1.250 . S
C1094 O1086 1.258 . S
O1095 Mn1080 2.162 . S
O1095 C1083 1.281 . S
O1096 Mn1080 2.297 . S
O1096 C1083 1.236 . S
N1097 Mn1081 2.282 . S
N1097 C1098 1.328 . S
N1097 C1102 1.318 . S
C1098 N1097 1.328 . S
C1098 C1099 1.457 . S
C1098 H1103 0.929 . S
C1099 C1098 1.457 . S
C1099 C1100 1.291 . S
C1099 H1112 0.931 . S
C1100 C1099 1.291 . S
C1100 C1101 1.373 . S
C1100 H1113 0.929 . S
C1101 C1100 1.373 . S
C1101 C1102 1.396 . S
C1101 C1108 1.403 . S
C1102 C1092 1.476 . S
C1102 N1097 1.318 . S
C1102 C1101 1.396 . S
H1103 C1098 0.929 . S
O1104 Mn1080 2.385 . S
O1104 C1082 1.234 . S
O1105 Mn1080 2.209 . S
O1105 Mn1081 2.215 . S
O1105 C1082 1.283 . S
O1106 Mn1080 2.094 . S
O1106 C1084 1.240 . S
O1107 Mn1081 2.117 . S
O1107 C1084 1.264 . S
C1108 C1101 1.403 . S
C1108 C1109 1.399 . S
C1108 H1114 0.929 . S
C1109 C1089 1.449 . S
C1109 C1108 1.399 . S
C1109 H1115 0.930 . S
H1110 C1090 0.931 . S
H1111 C1091 0.930 . S
H1112 C1099 0.931 . S
H1113 C1100 0.929 . S
H1114 C1108 0.929 . S
H1115 C1109 0.930 . S
Mn1116 O1121 2.095 . S
Mn1116 O1131 2.162 . S
Mn1116 O1132 2.297 . S
Mn1116 O1140 2.385 . S
Mn1116 O1141 2.209 . S
Mn1116 O1142 2.094 . S
Mn1117 O1122 2.121 . S
Mn1117 N1124 2.257 . S
Mn1117 N1133 2.282 . S
Mn1117 O1141 2.215 . S
Mn1117 O1143 2.117 . S
C1118 O1140 1.234 . S
C1118 O1141 1.283 . S
C1119 O1131 1.281 . S
C1119 O1132 1.236 . S
C1120 O1142 1.240 . S
C1120 O1143 1.264 . S
O1121 Mn1116 2.095 . S
O1121 C1130 1.250 . S
O1122 Mn1117 2.121 . S
O1122 C1130 1.258 . S
C1123 N1124 1.326 . S
C1123 C1127 1.460 . S
C1123 H1129 0.929 . S
N1124 Mn1117 2.257 . S
N1124 C1123 1.326 . S
N1124 C1128 1.362 . S
C1125 C1126 1.258 . S
C1125 C1128 1.431 . S
C1125 C1145 1.449 . S
C1126 C1125 1.258 . S
C1126 C1127 1.477 . S
C1126 H1146 0.931 . S
C1127 C1123 1.460 . S
C1127 C1126 1.477 . S
C1127 H1147 0.930 . S
C1128 N1124 1.362 . S
C1128 C1125 1.431 . S
C1128 C1138 1.476 . S
H1129 C1123 0.929 . S
C1130 O1121 1.250 . S
C1130 O1122 1.258 . S
O1131 Mn1116 2.162 . S
O1131 C1119 1.281 . S
O1132 Mn1116 2.297 . S
O1132 C1119 1.236 . S
N1133 Mn1117 2.282 . S
N1133 C1134 1.328 . S
N1133 C1138 1.318 . S
C1134 N1133 1.328 . S
C1134 C1135 1.457 . S
C1134 H1139 0.929 . S
C1135 C1134 1.457 . S
C1135 C1136 1.291 . S
C1135 H1148 0.931 . S
C1136 C1135 1.291 . S
C1136 C1137 1.373 . S
C1136 H1149 0.929 . S
C1137 C1136 1.373 . S
C1137 C1138 1.396 . S
C1137 C1144 1.403 . S
C1138 C1128 1.476 . S
C1138 N1133 1.318 . S
C1138 C1137 1.396 . S
H1139 C1134 0.929 . S
O1140 Mn1116 2.385 . S
O1140 C1118 1.234 . S
O1141 Mn1116 2.209 . S
O1141 Mn1117 2.215 . S
O1141 C1118 1.283 . S
O1142 Mn1116 2.094 . S
O1142 C1120 1.240 . S
O1143 Mn1117 2.117 . S
O1143 C1120 1.264 . S
C1144 C1137 1.403 . S
C1144 C1145 1.399 . S
C1144 H1150 0.929 . S
C1145 C1125 1.449 . S
C1145 C1144 1.399 . S
C1145 H1151 0.930 . S
H1146 C1126 0.931 . S
H1147 C1127 0.930 . S
H1148 C1135 0.931 . S
H1149 C1136 0.929 . S
H1150 C1144 0.929 . S
H1151 C1145 0.930 . S
C1152 C1153 1.363 1_545 S
C1152 C1158 1.379 . S
C1152 N1160 1.356 . S
C1153 C1152 1.363 1_565 S
C1153 C1159 1.363 . S
C1154 C1155 1.363 1_565 S
C1154 C1159 1.379 . S
C1154 N1161 1.356 . S
C1155 C1154 1.363 1_545 S
C1155 C1158 1.363 . S
N1156 C1158 1.356 . S
N1156 H1168 0.984 . S
N1156 H1169 0.985 . S
N1157 C1159 1.356 . S
N1157 H1162 0.984 . S
N1157 H1163 0.985 . S
C1158 C1152 1.379 . S
C1158 C1155 1.363 . S
C1158 N1156 1.356 . S
C1159 C1153 1.363 . S
C1159 C1154 1.379 . S
C1159 N1157 1.356 . S
N1160 C1152 1.356 . S
N1160 H1166 0.984 . S
N1160 H1167 0.984 . S
N1161 C1154 1.356 . S
N1161 H1164 0.984 . S
N1161 H1165 0.985 . S
H1162 N1157 0.984 . S
H1163 N1157 0.985 . S
H1164 N1161 0.984 . S
H1165 N1161 0.985 . S
H1166 N1160 0.984 . S
H1167 N1160 0.984 . S
H1168 N1156 0.984 . S
H1169 N1156 0.985 . S
C1170 C1171 1.363 . S
C1170 C1176 1.379 . S
C1170 N1178 1.356 . S
C1171 C1170 1.363 . S
C1171 C1177 1.363 . S
C1172 C1173 1.363 . S
C1172 C1177 1.379 . S
C1172 N1179 1.356 . S
C1173 C1172 1.363 . S
C1173 C1176 1.363 . S
N1174 C1176 1.356 . S
N1174 H1186 0.984 . S
N1174 H1187 0.985 . S
N1175 C1177 1.356 . S
N1175 H1180 0.984 . S
N1175 H1181 0.985 . S
C1176 C1170 1.379 . S
C1176 C1173 1.363 . S
C1176 N1174 1.356 . S
C1177 C1171 1.363 . S
C1177 C1172 1.379 . S
C1177 N1175 1.356 . S
N1178 C1170 1.356 . S
N1178 H1184 0.984 . S
N1178 H1185 0.984 . S
N1179 C1172 1.356 . S
N1179 H1182 0.984 . S
N1179 H1183 0.985 . S
H1180 N1175 0.984 . S
H1181 N1175 0.985 . S
H1182 N1179 0.984 . S
H1183 N1179 0.985 . S
H1184 N1178 0.984 . S
H1185 N1178 0.984 . S
H1186 N1174 0.984 . S
H1187 N1174 0.985 . S
C1188 C1189 1.363 1_565 S
C1188 C1194 1.379 . S
C1188 N1196 1.356 . S
C1189 C1188 1.363 1_545 S
C1189 C1195 1.363 . S
C1190 C1191 1.363 1_545 S
C1190 C1195 1.379 . S
C1190 N1197 1.356 . S
C1191 C1190 1.363 1_565 S
C1191 C1194 1.363 . S
N1192 C1194 1.356 . S
N1192 H1204 0.984 . S
N1192 H1205 0.985 . S
N1193 C1195 1.356 . S
N1193 H1198 0.984 . S
N1193 H1199 0.985 . S
C1194 C1188 1.379 . S
C1194 C1191 1.363 . S
C1194 N1192 1.356 . S
C1195 C1189 1.363 . S
C1195 C1190 1.379 . S
C1195 N1193 1.356 . S
N1196 C1188 1.356 . S
N1196 H1202 0.984 . S
N1196 H1203 0.984 . S
N1197 C1190 1.356 . S
N1197 H1200 0.984 . S
N1197 H1201 0.985 . S
H1198 N1193 0.984 . S
H1199 N1193 0.985 . S
H1200 N1197 0.984 . S
H1201 N1197 0.985 . S
H1202 N1196 0.984 . S
H1203 N1196 0.984 . S
H1204 N1192 0.984 . S
H1205 N1192 0.985 . S
C1206 C1207 1.363 . S
C1206 C1212 1.379 1_556 S
C1206 N1214 1.356 . S
C1207 C1206 1.363 . S
C1207 C1213 1.363 . S
C1208 C1209 1.363 . S
C1208 C1213 1.379 1_554 S
C1208 N1215 1.356 . S
C1209 C1208 1.363 . S
C1209 C1212 1.363 . S
N1210 C1212 1.356 . S
N1210 H1222 0.984 . S
N1210 H1223 0.985 . S
N1211 C1213 1.356 . S
N1211 H1216 0.984 . S
N1211 H1217 0.985 . S
C1212 C1206 1.379 1_554 S
C1212 C1209 1.363 . S
C1212 N1210 1.356 . S
C1213 C1207 1.363 . S
C1213 C1208 1.379 1_556 S
C1213 N1211 1.356 . S
N1214 C1206 1.356 . S
N1214 H1220 0.984 . S
N1214 H1221 0.984 . S
N1215 C1208 1.356 . S
N1215 H1218 0.984 . S
N1215 H1219 0.985 . S
H1216 N1211 0.984 . S
H1217 N1211 0.985 . S
H1218 N1215 0.984 . S
H1219 N1215 0.985 . S
H1220 N1214 0.984 . S
H1221 N1214 0.984 . S
H1222 N1210 0.984 . S
H1223 N1210 0.985 . S
C1224 C1225 1.363 . S
C1224 C1230 1.379 . S
C1224 N1232 1.356 . S
C1225 C1224 1.363 . S
C1225 C1231 1.363 1_565 S
C1226 C1227 1.363 . S
C1226 C1231 1.379 . S
C1226 N1233 1.356 . S
C1227 C1226 1.363 . S
C1227 C1230 1.363 1_545 S
N1228 C1230 1.356 . S
N1228 H1240 0.984 . S
N1228 H1241 0.985 1_565 S
N1229 C1231 1.356 . S
N1229 H1234 0.984 1_545 S
N1229 H1235 0.985 . S
C1230 C1224 1.379 . S
C1230 C1227 1.363 1_565 S
C1230 N1228 1.356 . S
C1231 C1225 1.363 1_545 S
C1231 C1226 1.379 . S
C1231 N1229 1.356 . S
N1232 C1224 1.356 . S
N1232 H1238 0.984 . S
N1232 H1239 0.984 . S
N1233 C1226 1.356 . S
N1233 H1236 0.984 . S
N1233 H1237 0.985 . S
H1234 N1229 0.984 1_565 S
H1235 N1229 0.985 . S
H1236 N1233 0.984 . S
H1237 N1233 0.985 . S
H1238 N1232 0.984 . S
H1239 N1232 0.984 . S
H1240 N1228 0.984 . S
H1241 N1228 0.985 1_545 S
C1242 C1243 1.363 . S
C1242 C1248 1.379 . S
C1242 N1250 1.356 . S
C1243 C1242 1.363 . S
C1243 C1249 1.363 . S
C1244 C1245 1.363 . S
C1244 C1249 1.379 . S
C1244 N1251 1.356 . S
C1245 C1244 1.363 . S
C1245 C1248 1.363 . S
N1246 C1248 1.356 . S
N1246 H1258 0.984 . S
N1246 H1259 0.985 . S
N1247 C1249 1.356 . S
N1247 H1252 0.984 . S
N1247 H1253 0.985 . S
C1248 C1242 1.379 . S
C1248 C1245 1.363 . S
C1248 N1246 1.356 . S
C1249 C1243 1.363 . S
C1249 C1244 1.379 . S
C1249 N1247 1.356 . S
N1250 C1242 1.356 . S
N1250 H1256 0.984 . S
N1250 H1257 0.984 . S
N1251 C1244 1.356 . S
N1251 H1254 0.984 . S
N1251 H1255 0.985 . S
H1252 N1247 0.984 . S
H1253 N1247 0.985 . S
H1254 N1251 0.984 . S
H1255 N1251 0.985 . S
H1256 N1250 0.984 . S
H1257 N1250 0.984 . S
H1258 N1246 0.984 . S
H1259 N1246 0.985 . S
C1260 C1261 1.363 1_565 S
C1260 C1266 1.379 . S
C1260 N1268 1.356 . S
C1261 C1260 1.363 1_545 S
C1261 C1267 1.363 . S
C1262 C1263 1.363 1_545 S
C1262 C1267 1.379 . S
C1262 N1269 1.356 . S
C1263 C1262 1.363 1_565 S
C1263 C1266 1.363 . S
N1264 C1266 1.356 . S
N1264 H1276 0.984 . S
N1264 H1277 0.985 . S
N1265 C1267 1.356 . S
N1265 H1270 0.984 . S
N1265 H1271 0.985 . S
C1266 C1260 1.379 . S
C1266 C1263 1.363 . S
C1266 N1264 1.356 . S
C1267 C1261 1.363 . S
C1267 C1262 1.379 . S
C1267 N1265 1.356 . S
N1268 C1260 1.356 . S
N1268 H1274 0.984 . S
N1268 H1275 0.984 . S
N1269 C1262 1.356 . S
N1269 H1272 0.984 . S
N1269 H1273 0.985 . S
H1270 N1265 0.984 . S
H1271 N1265 0.985 . S
H1272 N1269 0.984 . S
H1273 N1269 0.985 . S
H1274 N1268 0.984 . S
H1275 N1268 0.984 . S
H1276 N1264 0.984 . S
H1277 N1264 0.985 . S
C1278 C1279 1.363 . S
C1278 C1284 1.379 1_556 S
C1278 N1286 1.356 . S
C1279 C1278 1.363 . S
C1279 C1285 1.363 . S
C1280 C1281 1.363 . S
C1280 C1285 1.379 1_554 S
C1280 N1287 1.356 . S
C1281 C1280 1.363 . S
C1281 C1284 1.363 . S
N1282 C1284 1.356 . S
N1282 H1294 0.984 . S
N1282 H1295 0.985 . S
N1283 C1285 1.356 . S
N1283 H1288 0.984 . S
N1283 H1289 0.985 . S
C1284 C1278 1.379 1_554 S
C1284 C1281 1.363 . S
C1284 N1282 1.356 . S
C1285 C1279 1.363 . S
C1285 C1280 1.379 1_556 S
C1285 N1283 1.356 . S
N1286 C1278 1.356 . S
N1286 H1292 0.984 . S
N1286 H1293 0.984 . S
N1287 C1280 1.356 . S
N1287 H1290 0.984 . S
N1287 H1291 0.985 . S
H1288 N1283 0.984 . S
H1289 N1283 0.985 . S
H1290 N1287 0.984 . S
H1291 N1287 0.985 . S
H1292 N1286 0.984 . S
H1293 N1286 0.984 . S
H1294 N1282 0.984 . S
H1295 N1282 0.985 . S
C1296 C1297 1.363 . S
C1296 C1302 1.379 . S
C1296 N1304 1.356 . S
C1297 C1296 1.363 . S
C1297 C1303 1.363 . S
C1298 C1299 1.363 . S
C1298 C1303 1.379 . S
C1298 N1305 1.356 . S
C1299 C1298 1.363 . S
C1299 C1302 1.363 . S
N1300 C1302 1.356 . S
N1300 H1312 0.984 . S
N1300 H1313 0.985 . S
N1301 C1303 1.356 . S
N1301 H1306 0.984 . S
N1301 H1307 0.985 . S
C1302 C1296 1.379 . S
C1302 C1299 1.363 . S
C1302 N1300 1.356 . S
C1303 C1297 1.363 . S
C1303 C1298 1.379 . S
C1303 N1301 1.356 . S
N1304 C1296 1.356 . S
N1304 H1310 0.984 . S
N1304 H1311 0.984 . S
N1305 C1298 1.356 . S
N1305 H1308 0.984 . S
N1305 H1309 0.985 . S
H1306 N1301 0.984 . S
H1307 N1301 0.985 . S
H1308 N1305 0.984 . S
H1309 N1305 0.985 . S
H1310 N1304 0.984 . S
H1311 N1304 0.984 . S
H1312 N1300 0.984 . S
H1313 N1300 0.985 . S
C1314 C1315 1.363 . S
C1314 C1320 1.379 1_554 S
C1314 N1322 1.356 . S
C1315 C1314 1.363 . S
C1315 C1321 1.363 . S
C1316 C1317 1.363 . S
C1316 C1321 1.379 1_556 S
C1316 N1323 1.356 . S
C1317 C1316 1.363 . S
C1317 C1320 1.363 . S
N1318 C1320 1.356 . S
N1318 H1330 0.984 . S
N1318 H1331 0.985 . S
N1319 C1321 1.356 . S
N1319 H1324 0.984 . S
N1319 H1325 0.985 . S
C1320 C1314 1.379 1_556 S
C1320 C1317 1.363 . S
C1320 N1318 1.356 . S
C1321 C1315 1.363 . S
C1321 C1316 1.379 1_554 S
C1321 N1319 1.356 . S
N1322 C1314 1.356 . S
N1322 H1328 0.984 . S
N1322 H1329 0.984 . S
N1323 C1316 1.356 . S
N1323 H1326 0.984 . S
N1323 H1327 0.985 . S
H1324 N1319 0.984 . S
H1325 N1319 0.985 . S
H1326 N1323 0.984 . S
H1327 N1323 0.985 . S
H1328 N1322 0.984 . S
H1329 N1322 0.984 . S
H1330 N1318 0.984 . S
H1331 N1318 0.985 . S
C1332 C1333 1.363 . S
C1332 C1338 1.379 . S
C1332 N1340 1.356 . S
C1333 C1332 1.363 . S
C1333 C1339 1.363 . S
C1334 C1335 1.363 . S
C1334 C1339 1.379 . S
C1334 N1341 1.356 . S
C1335 C1334 1.363 . S
C1335 C1338 1.363 . S
N1336 C1338 1.356 . S
N1336 H1348 0.984 . S
N1336 H1349 0.985 . S
N1337 C1339 1.356 . S
N1337 H1342 0.984 . S
N1337 H1343 0.985 . S
C1338 C1332 1.379 . S
C1338 C1335 1.363 . S
C1338 N1336 1.356 . S
C1339 C1333 1.363 . S
C1339 C1334 1.379 . S
C1339 N1337 1.356 . S
N1340 C1332 1.356 . S
N1340 H1346 0.984 . S
N1340 H1347 0.984 . S
N1341 C1334 1.356 . S
N1341 H1344 0.984 . S
N1341 H1345 0.985 . S
H1342 N1337 0.984 . S
H1343 N1337 0.985 . S
H1344 N1341 0.984 . S
H1345 N1341 0.985 . S
H1346 N1340 0.984 . S
H1347 N1340 0.984 . S
H1348 N1336 0.984 . S
H1349 N1336 0.985 . S
C1350 C1351 1.363 . S
C1350 C1356 1.379 . S
C1350 N1358 1.356 . S
C1351 C1350 1.363 . S
C1351 C1357 1.363 . S
C1352 C1353 1.363 . S
C1352 C1357 1.379 . S
C1352 N1359 1.356 . S
C1353 C1352 1.363 . S
C1353 C1356 1.363 . S
N1354 C1356 1.356 . S
N1354 H1366 0.984 . S
N1354 H1367 0.985 . S
N1355 C1357 1.356 . S
N1355 H1360 0.984 . S
N1355 H1361 0.985 . S
C1356 C1350 1.379 . S
C1356 C1353 1.363 . S
C1356 N1354 1.356 . S
C1357 C1351 1.363 . S
C1357 C1352 1.379 . S
C1357 N1355 1.356 . S
N1358 C1350 1.356 . S
N1358 H1364 0.984 . S
N1358 H1365 0.984 . S
N1359 C1352 1.356 . S
N1359 H1362 0.984 . S
N1359 H1363 0.985 . S
H1360 N1355 0.984 . S
H1361 N1355 0.985 . S
H1362 N1359 0.984 . S
H1363 N1359 0.985 . S
H1364 N1358 0.984 . S
H1365 N1358 0.984 . S
H1366 N1354 0.984 . S
H1367 N1354 0.985 . S
C1368 C1369 1.363 . S
C1368 C1374 1.379 . S
C1368 N1376 1.356 . S
C1369 C1368 1.363 . S
C1369 C1375 1.363 . S
C1370 C1371 1.363 . S
C1370 C1375 1.379 . S
C1370 N1377 1.356 . S
C1371 C1370 1.363 . S
C1371 C1374 1.363 . S
N1372 C1374 1.356 . S
N1372 H1384 0.984 . S
N1372 H1385 0.985 . S
N1373 C1375 1.356 . S
N1373 H1378 0.984 . S
N1373 H1379 0.985 . S
C1374 C1368 1.379 . S
C1374 C1371 1.363 . S
C1374 N1372 1.356 . S
C1375 C1369 1.363 . S
C1375 C1370 1.379 . S
C1375 N1373 1.356 . S
N1376 C1368 1.356 . S
N1376 H1382 0.984 . S
N1376 H1383 0.984 . S
N1377 C1370 1.356 . S
N1377 H1380 0.984 . S
N1377 H1381 0.985 . S
H1378 N1373 0.984 . S
H1379 N1373 0.985 . S
H1380 N1377 0.984 . S
H1381 N1377 0.985 . S
H1382 N1376 0.984 . S
H1383 N1376 0.984 . S
H1384 N1372 0.984 . S
H1385 N1372 0.985 . S
C1386 C1387 1.363 . S
C1386 C1392 1.379 1_554 S
C1386 N1394 1.356 . S
C1387 C1386 1.363 . S
C1387 C1393 1.363 . S
C1388 C1389 1.363 . S
C1388 C1393 1.379 1_556 S
C1388 N1395 1.356 . S
C1389 C1388 1.363 . S
C1389 C1392 1.363 . S
N1390 C1392 1.356 . S
N1390 H1402 0.984 . S
N1390 H1403 0.985 . S
N1391 C1393 1.356 . S
N1391 H1396 0.984 . S
N1391 H1397 0.985 . S
C1392 C1386 1.379 1_556 S
C1392 C1389 1.363 . S
C1392 N1390 1.356 . S
C1393 C1387 1.363 . S
C1393 C1388 1.379 1_554 S
C1393 N1391 1.356 . S
N1394 C1386 1.356 . S
N1394 H1400 0.984 . S
N1394 H1401 0.984 . S
N1395 C1388 1.356 . S
N1395 H1398 0.984 . S
N1395 H1399 0.985 . S
H1396 N1391 0.984 . S
H1397 N1391 0.985 . S
H1398 N1395 0.984 . S
H1399 N1395 0.985 . S
H1400 N1394 0.984 . S
H1401 N1394 0.984 . S
H1402 N1390 0.984 . S
H1403 N1390 0.985 . S
C1404 C1405 1.363 . S
C1404 C1410 1.379 . S
C1404 N1412 1.356 . S
C1405 C1404 1.363 . S
C1405 C1411 1.363 . S
C1406 C1407 1.363 . S
C1406 C1411 1.379 . S
C1406 N1413 1.356 . S
C1407 C1406 1.363 . S
C1407 C1410 1.363 . S
N1408 C1410 1.356 . S
N1408 H1420 0.984 . S
N1408 H1421 0.985 . S
N1409 C1411 1.356 . S
N1409 H1414 0.984 . S
N1409 H1415 0.985 . S
C1410 C1404 1.379 . S
C1410 C1407 1.363 . S
C1410 N1408 1.356 . S
C1411 C1405 1.363 . S
C1411 C1406 1.379 . S
C1411 N1409 1.356 . S
N1412 C1404 1.356 . S
N1412 H1418 0.984 . S
N1412 H1419 0.984 . S
N1413 C1406 1.356 . S
N1413 H1416 0.984 . S
N1413 H1417 0.985 . S
H1414 N1409 0.984 . S
H1415 N1409 0.985 . S
H1416 N1413 0.984 . S
H1417 N1413 0.985 . S
H1418 N1412 0.984 . S
H1419 N1412 0.984 . S
H1420 N1408 0.984 . S
H1421 N1408 0.985 . S
C1422 C1423 1.363 . S
C1422 C1428 1.379 . S
C1422 N1430 1.356 . S
C1423 C1422 1.363 . S
C1423 C1429 1.363 . S
C1424 C1425 1.363 . S
C1424 C1429 1.379 . S
C1424 N1431 1.356 . S
C1425 C1424 1.363 . S
C1425 C1428 1.363 . S
N1426 C1428 1.356 . S
N1426 H1438 0.984 . S
N1426 H1439 0.985 . S
N1427 C1429 1.356 . S
N1427 H1432 0.984 . S
N1427 H1433 0.985 . S
C1428 C1422 1.379 . S
C1428 C1425 1.363 . S
C1428 N1426 1.356 . S
C1429 C1423 1.363 . S
C1429 C1424 1.379 . S
C1429 N1427 1.356 . S
N1430 C1422 1.356 . S
N1430 H1436 0.984 . S
N1430 H1437 0.984 . S
N1431 C1424 1.356 . S
N1431 H1434 0.984 . S
N1431 H1435 0.985 . S
H1432 N1427 0.984 . S
H1433 N1427 0.985 . S
H1434 N1431 0.984 . S
H1435 N1431 0.985 . S
H1436 N1430 0.984 . S
H1437 N1430 0.984 . S
H1438 N1426 0.984 . S
H1439 N1426 0.985 . S
C1440 C1441 1.363 . S
C1440 C1446 1.379 . S
C1440 N1448 1.356 1_565 S
C1441 C1440 1.363 . S
C1441 C1447 1.363 . S
C1442 C1443 1.363 . S
C1442 C1447 1.379 . S
C1442 N1449 1.356 . S
C1443 C1442 1.363 . S
C1443 C1446 1.363 . S
N1444 C1446 1.356 . S
N1444 H1456 0.984 . S
N1444 H1457 0.985 . S
N1445 C1447 1.356 . S
N1445 H1450 0.984 . S
N1445 H1451 0.985 . S
C1446 C1440 1.379 . S
C1446 C1443 1.363 . S
C1446 N1444 1.356 . S
C1447 C1441 1.363 . S
C1447 C1442 1.379 . S
C1447 N1445 1.356 . S
N1448 C1440 1.356 1_545 S
N1448 H1454 0.984 . S
N1448 H1455 0.984 . S
N1449 C1442 1.356 . S
N1449 H1452 0.984 . S
N1449 H1453 0.985 . S
H1450 N1445 0.984 . S
H1451 N1445 0.985 . S
H1452 N1449 0.984 . S
H1453 N1449 0.985 . S
H1454 N1448 0.984 . S
H1455 N1448 0.984 . S
H1456 N1444 0.984 . S
H1457 N1444 0.985 . S
C1458 C1459 1.363 . S
C1458 C1464 1.379 . S
C1458 N1466 1.356 . S
C1459 C1458 1.363 . S
C1459 C1465 1.363 . S
C1460 C1461 1.363 . S
C1460 C1465 1.379 . S
C1460 N1467 1.356 . S
C1461 C1460 1.363 . S
C1461 C1464 1.363 . S
N1462 C1464 1.356 1_565 S
N1462 H1474 0.984 . S
N1462 H1475 0.985 . S
N1463 C1465 1.356 . S
N1463 H1468 0.984 . S
N1463 H1469 0.985 . S
C1464 C1458 1.379 . S
C1464 C1461 1.363 . S
C1464 N1462 1.356 1_545 S
C1465 C1459 1.363 . S
C1465 C1460 1.379 . S
C1465 N1463 1.356 . S
N1466 C1458 1.356 . S
N1466 H1472 0.984 . S
N1466 H1473 0.984 . S
N1467 C1460 1.356 . S
N1467 H1470 0.984 . S
N1467 H1471 0.985 . S
H1468 N1463 0.984 . S
H1469 N1463 0.985 . S
H1470 N1467 0.984 . S
H1471 N1467 0.985 . S
H1472 N1466 0.984 . S
H1473 N1466 0.984 . S
H1474 N1462 0.984 . S
H1475 N1462 0.985 . S
C1476 C1477 1.363 . S
C1476 C1482 1.379 . S
C1476 N1484 1.356 . S
C1477 C1476 1.363 . S
C1477 C1483 1.363 . S
C1478 C1479 1.363 . S
C1478 C1483 1.379 . S
C1478 N1485 1.356 . S
C1479 C1478 1.363 . S
C1479 C1482 1.363 . S
N1480 C1482 1.356 . S
N1480 H1492 0.984 . S
N1480 H1493 0.985 . S
N1481 C1483 1.356 1_565 S
N1481 H1486 0.984 . S
N1481 H1487 0.985 . S
C1482 C1476 1.379 . S
C1482 C1479 1.363 . S
C1482 N1480 1.356 . S
C1483 C1477 1.363 . S
C1483 C1478 1.379 . S
C1483 N1481 1.356 1_545 S
N1484 C1476 1.356 . S
N1484 H1490 0.984 . S
N1484 H1491 0.984 . S
N1485 C1478 1.356 . S
N1485 H1488 0.984 . S
N1485 H1489 0.985 . S
H1486 N1481 0.984 . S
H1487 N1481 0.985 . S
H1488 N1485 0.984 . S
H1489 N1485 0.985 . S
H1490 N1484 0.984 . S
H1491 N1484 0.984 . S
H1492 N1480 0.984 . S
H1493 N1480 0.985 . S
C1494 C1495 1.363 . S
C1494 C1500 1.379 . S
C1494 N1502 1.356 1_565 S
C1495 C1494 1.363 . S
C1495 C1501 1.363 . S
C1496 C1497 1.363 . S
C1496 C1501 1.379 . S
C1496 N1503 1.356 . S
C1497 C1496 1.363 . S
C1497 C1500 1.363 . S
N1498 C1500 1.356 . S
N1498 H1510 0.984 . S
N1498 H1511 0.985 . S
N1499 C1501 1.356 . S
N1499 H1504 0.984 . S
N1499 H1505 0.985 . S
C1500 C1494 1.379 . S
C1500 C1497 1.363 . S
C1500 N1498 1.356 . S
C1501 C1495 1.363 . S
C1501 C1496 1.379 . S
C1501 N1499 1.356 . S
N1502 C1494 1.356 1_545 S
N1502 H1508 0.984 . S
N1502 H1509 0.984 . S
N1503 C1496 1.356 . S
N1503 H1506 0.984 . S
N1503 H1507 0.985 . S
H1504 N1499 0.984 . S
H1505 N1499 0.985 . S
H1506 N1503 0.984 . S
H1507 N1503 0.985 . S
H1508 N1502 0.984 . S
H1509 N1502 0.984 . S
H1510 N1498 0.984 . S
H1511 N1498 0.985 . S
C1512 C1513 1.363 . S
C1512 C1518 1.379 . S
C1512 N1520 1.356 . S
C1513 C1512 1.363 . S
C1513 C1519 1.363 . S
C1514 C1515 1.363 . S
C1514 C1519 1.379 . S
C1514 N1521 1.356 . S
C1515 C1514 1.363 . S
C1515 C1518 1.363 . S
N1516 C1518 1.356 1_565 S
N1516 H1528 0.984 . S
N1516 H1529 0.985 . S
N1517 C1519 1.356 . S
N1517 H1522 0.984 . S
N1517 H1523 0.985 . S
C1518 C1512 1.379 . S
C1518 C1515 1.363 . S
C1518 N1516 1.356 1_545 S
C1519 C1513 1.363 . S
C1519 C1514 1.379 . S
C1519 N1517 1.356 . S
N1520 C1512 1.356 . S
N1520 H1526 0.984 . S
N1520 H1527 0.984 . S
N1521 C1514 1.356 . S
N1521 H1524 0.984 . S
N1521 H1525 0.985 . S
H1522 N1517 0.984 . S
H1523 N1517 0.985 . S
H1524 N1521 0.984 . S
H1525 N1521 0.985 . S
H1526 N1520 0.984 . S
H1527 N1520 0.984 . S
H1528 N1516 0.984 . S
H1529 N1516 0.985 . S
C1530 C1531 1.363 . S
C1530 C1536 1.379 . S
C1530 N1538 1.356 1_565 S
C1531 C1530 1.363 . S
C1531 C1537 1.363 . S
C1532 C1533 1.363 . S
C1532 C1537 1.379 . S
C1532 N1539 1.356 . S
C1533 C1532 1.363 . S
C1533 C1536 1.363 . S
N1534 C1536 1.356 . S
N1534 H1546 0.984 . S
N1534 H1547 0.985 . S
N1535 C1537 1.356 . S
N1535 H1540 0.984 . S
N1535 H1541 0.985 . S
C1536 C1530 1.379 . S
C1536 C1533 1.363 . S
C1536 N1534 1.356 . S
C1537 C1531 1.363 . S
C1537 C1532 1.379 . S
C1537 N1535 1.356 . S
N1538 C1530 1.356 1_545 S
N1538 H1544 0.984 . S
N1538 H1545 0.984 . S
N1539 C1532 1.356 . S
N1539 H1542 0.984 . S
N1539 H1543 0.985 . S
H1540 N1535 0.984 . S
H1541 N1535 0.985 . S
H1542 N1539 0.984 . S
H1543 N1539 0.985 . S
H1544 N1538 0.984 . S
H1545 N1538 0.984 . S
H1546 N1534 0.984 . S
H1547 N1534 0.985 . S
C1548 C1549 1.363 . S
C1548 C1554 1.379 . S
C1548 N1556 1.356 . S
C1549 C1548 1.363 . S
C1549 C1555 1.363 . S
C1550 C1551 1.363 . S
C1550 C1555 1.379 . S
C1550 N1557 1.356 1_565 S
C1551 C1550 1.363 . S
C1551 C1554 1.363 . S
N1552 C1554 1.356 . S
N1552 H1564 0.984 . S
N1552 H1565 0.985 . S
N1553 C1555 1.356 . S
N1553 H1558 0.984 . S
N1553 H1559 0.985 . S
C1554 C1548 1.379 . S
C1554 C1551 1.363 . S
C1554 N1552 1.356 . S
C1555 C1549 1.363 . S
C1555 C1550 1.379 . S
C1555 N1553 1.356 . S
N1556 C1548 1.356 . S
N1556 H1562 0.984 . S
N1556 H1563 0.984 . S
N1557 C1550 1.356 1_545 S
N1557 H1560 0.984 . S
N1557 H1561 0.985 . S
H1558 N1553 0.984 . S
H1559 N1553 0.985 . S
H1560 N1557 0.984 . S
H1561 N1557 0.985 . S
H1562 N1556 0.984 . S
H1563 N1556 0.984 . S
H1564 N1552 0.984 . S
H1565 N1552 0.985 . S
C1566 C1567 1.363 . S
C1566 C1572 1.379 . S
C1566 N1574 1.356 . S
C1567 C1566 1.363 . S
C1567 C1573 1.363 . S
C1568 C1569 1.363 . S
C1568 C1573 1.379 . S
C1568 N1575 1.356 . S
C1569 C1568 1.363 . S
C1569 C1572 1.363 . S
N1570 C1572 1.356 1_565 S
N1570 H1582 0.984 . S
N1570 H1583 0.985 . S
N1571 C1573 1.356 . S
N1571 H1576 0.984 . S
N1571 H1577 0.985 . S
C1572 C1566 1.379 . S
C1572 C1569 1.363 . S
C1572 N1570 1.356 1_545 S
C1573 C1567 1.363 . S
C1573 C1568 1.379 . S
C1573 N1571 1.356 . S
N1574 C1566 1.356 . S
N1574 H1580 0.984 . S
N1574 H1581 0.984 . S
N1575 C1568 1.356 . S
N1575 H1578 0.984 . S
N1575 H1579 0.985 . S
H1576 N1571 0.984 . S
H1577 N1571 0.985 . S
H1578 N1575 0.984 . S
H1579 N1575 0.985 . S
H1580 N1574 0.984 . S
H1581 N1574 0.984 . S
H1582 N1570 0.984 . S
H1583 N1570 0.985 . S
C1584 C1585 1.363 . S
C1584 C1590 1.379 . S
C1584 N1592 1.356 . S
C1585 C1584 1.363 . S
C1585 C1591 1.363 . S
C1586 C1587 1.363 . S
C1586 C1591 1.379 . S
C1586 N1593 1.356 . S
C1587 C1586 1.363 . S
C1587 C1590 1.363 . S
N1588 C1590 1.356 . S
N1588 H1600 0.984 . S
N1588 H1601 0.985 . S
N1589 C1591 1.356 . S
N1589 H1594 0.984 . S
N1589 H1595 0.985 . S
C1590 C1584 1.379 . S
C1590 C1587 1.363 . S
C1590 N1588 1.356 . S
C1591 C1585 1.363 . S
C1591 C1586 1.379 . S
C1591 N1589 1.356 . S
N1592 C1584 1.356 . S
N1592 H1598 0.984 . S
N1592 H1599 0.984 . S
N1593 C1586 1.356 . S
N1593 H1596 0.984 . S
N1593 H1597 0.985 . S
H1594 N1589 0.984 . S
H1595 N1589 0.985 . S
H1596 N1593 0.984 . S
H1597 N1593 0.985 . S
H1598 N1592 0.984 . S
H1599 N1592 0.984 . S
H1600 N1588 0.984 . S
H1601 N1588 0.985 . S
C1602 C1603 1.363 . S
C1602 C1608 1.379 . S
C1602 N1610 1.356 . S
C1603 C1602 1.363 . S
C1603 C1609 1.363 . S
C1604 C1605 1.363 . S
C1604 C1609 1.379 . S
C1604 N1611 1.356 . S
C1605 C1604 1.363 . S
C1605 C1608 1.363 . S
N1606 C1608 1.356 . S
N1606 H1618 0.984 . S
N1606 H1619 0.985 . S
N1607 C1609 1.356 . S
N1607 H1612 0.984 . S
N1607 H1613 0.985 . S
C1608 C1602 1.379 . S
C1608 C1605 1.363 . S
C1608 N1606 1.356 . S
C1609 C1603 1.363 . S
C1609 C1604 1.379 . S
C1609 N1607 1.356 . S
N1610 C1602 1.356 . S
N1610 H1616 0.984 . S
N1610 H1617 0.984 . S
N1611 C1604 1.356 . S
N1611 H1614 0.984 . S
N1611 H1615 0.985 . S
H1612 N1607 0.984 . S
H1613 N1607 0.985 . S
H1614 N1611 0.984 . S
H1615 N1611 0.985 . S
H1616 N1610 0.984 . S
H1617 N1610 0.984 . S
H1618 N1606 0.984 . S
H1619 N1606 0.985 . S
C1620 C1621 1.363 . S
C1620 C1626 1.379 . S
C1620 N1628 1.356 . S
C1621 C1620 1.363 . S
C1621 C1627 1.363 . S
C1622 C1623 1.363 . S
C1622 C1627 1.379 . S
C1622 N1629 1.356 . S
C1623 C1622 1.363 . S
C1623 C1626 1.363 . S
N1624 C1626 1.356 . S
N1624 H1636 0.984 . S
N1624 H1637 0.985 . S
N1625 C1627 1.356 . S
N1625 H1630 0.984 . S
N1625 H1631 0.985 . S
C1626 C1620 1.379 . S
C1626 C1623 1.363 . S
C1626 N1624 1.356 . S
C1627 C1621 1.363 . S
C1627 C1622 1.379 . S
C1627 N1625 1.356 . S
N1628 C1620 1.356 . S
N1628 H1634 0.984 . S
N1628 H1635 0.984 . S
N1629 C1622 1.356 . S
N1629 H1632 0.984 . S
N1629 H1633 0.985 . S
H1630 N1625 0.984 . S
H1631 N1625 0.985 . S
H1632 N1629 0.984 . S
H1633 N1629 0.985 . S
H1634 N1628 0.984 . S
H1635 N1628 0.984 . S
H1636 N1624 0.984 . S
H1637 N1624 0.985 . S
C1638 C1639 1.363 . S
C1638 C1644 1.379 . S
C1638 N1646 1.356 . S
C1639 C1638 1.363 . S
C1639 C1645 1.363 . S
C1640 C1641 1.363 . S
C1640 C1645 1.379 . S
C1640 N1647 1.356 . S
C1641 C1640 1.363 . S
C1641 C1644 1.363 . S
N1642 C1644 1.356 . S
N1642 H1654 0.984 . S
N1642 H1655 0.985 . S
N1643 C1645 1.356 . S
N1643 H1648 0.984 . S
N1643 H1649 0.985 . S
C1644 C1638 1.379 . S
C1644 C1641 1.363 . S
C1644 N1642 1.356 . S
C1645 C1639 1.363 . S
C1645 C1640 1.379 . S
C1645 N1643 1.356 . S
N1646 C1638 1.356 . S
N1646 H1652 0.984 . S
N1646 H1653 0.984 . S
N1647 C1640 1.356 . S
N1647 H1650 0.984 . S
N1647 H1651 0.985 . S
H1648 N1643 0.984 . S
H1649 N1643 0.985 . S
H1650 N1647 0.984 . S
H1651 N1647 0.985 . S
H1652 N1646 0.984 . S
H1653 N1646 0.984 . S
H1654 N1642 0.984 . S
H1655 N1642 0.985 . S
C1656 C1657 1.363 . S
C1656 C1662 1.379 . S
C1656 N1664 1.356 . S
C1657 C1656 1.363 . S
C1657 C1663 1.363 . S
C1658 C1659 1.363 . S
C1658 C1663 1.379 . S
C1658 N1665 1.356 . S
C1659 C1658 1.363 . S
C1659 C1662 1.363 . S
N1660 C1662 1.356 . S
N1660 H1672 0.984 . S
N1660 H1673 0.985 . S
N1661 C1663 1.356 . S
N1661 H1666 0.984 . S
N1661 H1667 0.985 . S
C1662 C1656 1.379 . S
C1662 C1659 1.363 . S
C1662 N1660 1.356 . S
C1663 C1657 1.363 . S
C1663 C1658 1.379 . S
C1663 N1661 1.356 . S
N1664 C1656 1.356 . S
N1664 H1670 0.984 . S
N1664 H1671 0.984 . S
N1665 C1658 1.356 . S
N1665 H1668 0.984 . S
N1665 H1669 0.985 . S
H1666 N1661 0.984 . S
H1667 N1661 0.985 . S
H1668 N1665 0.984 . S
H1669 N1665 0.985 . S
H1670 N1664 0.984 . S
H1671 N1664 0.984 . S
H1672 N1660 0.984 . S
H1673 N1660 0.985 . S
C1674 C1675 1.363 . S
C1674 C1680 1.379 . S
C1674 N1682 1.356 . S
C1675 C1674 1.363 . S
C1675 C1681 1.363 . S
C1676 C1677 1.363 . S
C1676 C1681 1.379 . S
C1676 N1683 1.356 . S
C1677 C1676 1.363 . S
C1677 C1680 1.363 . S
N1678 C1680 1.356 . S
N1678 H1690 0.984 . S
N1678 H1691 0.985 . S
N1679 C1681 1.356 . S
N1679 H1684 0.984 . S
N1679 H1685 0.985 . S
C1680 C1674 1.379 . S
C1680 C1677 1.363 . S
C1680 N1678 1.356 . S
C1681 C1675 1.363 . S
C1681 C1676 1.379 . S
C1681 N1679 1.356 . S
N1682 C1674 1.356 . S
N1682 H1688 0.984 . S
N1682 H1689 0.984 . S
N1683 C1676 1.356 . S
N1683 H1686 0.984 . S
N1683 H1687 0.985 . S
H1684 N1679 0.984 . S
H1685 N1679 0.985 . S
H1686 N1683 0.984 . S
H1687 N1683 0.985 . S
H1688 N1682 0.984 . S
H1689 N1682 0.984 . S
H1690 N1678 0.984 . S
H1691 N1678 0.985 . S
C1692 C1693 1.363 . S
C1692 C1698 1.379 . S
C1692 N1700 1.356 . S
C1693 C1692 1.363 . S
C1693 C1699 1.363 . S
C1694 C1695 1.363 . S
C1694 C1699 1.379 . S
C1694 N1701 1.356 . S
C1695 C1694 1.363 . S
C1695 C1698 1.363 . S
N1696 C1698 1.356 . S
N1696 H1708 0.984 . S
N1696 H1709 0.985 . S
N1697 C1699 1.356 . S
N1697 H1702 0.984 . S
N1697 H1703 0.985 . S
C1698 C1692 1.379 . S
C1698 C1695 1.363 . S
C1698 N1696 1.356 . S
C1699 C1693 1.363 . S
C1699 C1694 1.379 . S
C1699 N1697 1.356 . S
N1700 C1692 1.356 . S
N1700 H1706 0.984 . S
N1700 H1707 0.984 . S
N1701 C1694 1.356 . S
N1701 H1704 0.984 . S
N1701 H1705 0.985 . S
H1702 N1697 0.984 . S
H1703 N1697 0.985 . S
H1704 N1701 0.984 . S
H1705 N1701 0.985 . S
H1706 N1700 0.984 . S
H1707 N1700 0.984 . S
H1708 N1696 0.984 . S
H1709 N1696 0.985 . S
C1710 C1711 1.363 . S
C1710 C1716 1.379 . S
C1710 N1718 1.356 . S
C1711 C1710 1.363 . S
C1711 C1717 1.363 . S
C1712 C1713 1.363 . S
C1712 C1717 1.379 . S
C1712 N1719 1.356 . S
C1713 C1712 1.363 . S
C1713 C1716 1.363 . S
N1714 C1716 1.356 . S
N1714 H1726 0.984 . S
N1714 H1727 0.985 . S
N1715 C1717 1.356 . S
N1715 H1720 0.984 . S
N1715 H1721 0.985 . S
C1716 C1710 1.379 . S
C1716 C1713 1.363 . S
C1716 N1714 1.356 . S
C1717 C1711 1.363 . S
C1717 C1712 1.379 . S
C1717 N1715 1.356 . S
N1718 C1710 1.356 . S
N1718 H1724 0.984 . S
N1718 H1725 0.984 . S
N1719 C1712 1.356 . S
N1719 H1722 0.984 . S
N1719 H1723 0.985 . S
H1720 N1715 0.984 . S
H1721 N1715 0.985 . S
H1722 N1719 0.984 . S
H1723 N1719 0.985 . S
H1724 N1718 0.984 . S
H1725 N1718 0.984 . S
H1726 N1714 0.984 . S
H1727 N1714 0.985 . S
C1728 C1729 1.363 . S
C1728 C1734 1.379 . S
C1728 N1736 1.356 . S
C1729 C1728 1.363 . S
C1729 C1735 1.363 . S
C1730 C1731 1.363 . S
C1730 C1735 1.379 . S
C1730 N1737 1.356 . S
C1731 C1730 1.363 . S
C1731 C1734 1.363 . S
N1732 C1734 1.356 . S
N1732 H1744 0.984 . S
N1732 H1745 0.985 . S
N1733 C1735 1.356 . S
N1733 H1738 0.984 . S
N1733 H1739 0.985 . S
C1734 C1728 1.379 . S
C1734 C1731 1.363 . S
C1734 N1732 1.356 . S
C1735 C1729 1.363 . S
C1735 C1730 1.379 . S
C1735 N1733 1.356 . S
N1736 C1728 1.356 . S
N1736 H1742 0.984 . S
N1736 H1743 0.984 . S
N1737 C1730 1.356 . S
N1737 H1740 0.984 . S
N1737 H1741 0.985 . S
H1738 N1733 0.984 . S
H1739 N1733 0.985 . S
H1740 N1737 0.984 . S
H1741 N1737 0.985 . S
H1742 N1736 0.984 . S
H1743 N1736 0.984 . S
H1744 N1732 0.984 . S
H1745 N1732 0.985 . S
C1746 C1747 1.363 . S
C1746 C1752 1.379 . S
C1746 N1754 1.356 . S
C1747 C1746 1.363 . S
C1747 C1753 1.363 . S
C1748 C1749 1.363 . S
C1748 C1753 1.379 . S
C1748 N1755 1.356 . S
C1749 C1748 1.363 . S
C1749 C1752 1.363 . S
N1750 C1752 1.356 1_655 S
N1750 H1762 0.984 . S
N1750 H1763 0.985 . S
N1751 C1753 1.356 . S
N1751 H1756 0.984 . S
N1751 H1757 0.985 . S
C1752 C1746 1.379 . S
C1752 C1749 1.363 . S
C1752 N1750 1.356 1_455 S
C1753 C1747 1.363 . S
C1753 C1748 1.379 . S
C1753 N1751 1.356 . S
N1754 C1746 1.356 . S
N1754 H1760 0.984 . S
N1754 H1761 0.984 . S
N1755 C1748 1.356 . S
N1755 H1758 0.984 1_455 S
N1755 H1759 0.985 . S
H1756 N1751 0.984 . S
H1757 N1751 0.985 . S
H1758 N1755 0.984 1_655 S
H1759 N1755 0.985 . S
H1760 N1754 0.984 . S
H1761 N1754 0.984 . S
H1762 N1750 0.984 . S
H1763 N1750 0.985 . S
C1764 C1765 1.363 . S
C1764 C1770 1.379 . S
C1764 N1772 1.356 . S
C1765 C1764 1.363 . S
C1765 C1771 1.363 . S
C1766 C1767 1.363 . S
C1766 C1771 1.379 . S
C1766 N1773 1.356 . S
C1767 C1766 1.363 . S
C1767 C1770 1.363 . S
N1768 C1770 1.356 . S
N1768 H1780 0.984 . S
N1768 H1781 0.985 . S
N1769 C1771 1.356 . S
N1769 H1774 0.984 . S
N1769 H1775 0.985 . S
C1770 C1764 1.379 . S
C1770 C1767 1.363 . S
C1770 N1768 1.356 . S
C1771 C1765 1.363 . S
C1771 C1766 1.379 . S
C1771 N1769 1.356 . S
N1772 C1764 1.356 . S
N1772 H1778 0.984 . S
N1772 H1779 0.984 . S
N1773 C1766 1.356 . S
N1773 H1776 0.984 . S
N1773 H1777 0.985 . S
H1774 N1769 0.984 . S
H1775 N1769 0.985 . S
H1776 N1773 0.984 . S
H1777 N1773 0.985 . S
H1778 N1772 0.984 . S
H1779 N1772 0.984 . S
H1780 N1768 0.984 . S
H1781 N1768 0.985 . S
C1782 C1783 1.363 . S
C1782 C1788 1.379 . S
C1782 N1790 1.356 . S
C1783 C1782 1.363 . S
C1783 C1789 1.363 . S
C1784 C1785 1.363 . S
C1784 C1789 1.379 . S
C1784 N1791 1.356 . S
C1785 C1784 1.363 . S
C1785 C1788 1.363 . S
N1786 C1788 1.356 . S
N1786 H1798 0.984 . S
N1786 H1799 0.985 . S
N1787 C1789 1.356 . S
N1787 H1792 0.984 . S
N1787 H1793 0.985 . S
C1788 C1782 1.379 . S
C1788 C1785 1.363 . S
C1788 N1786 1.356 . S
C1789 C1783 1.363 . S
C1789 C1784 1.379 . S
C1789 N1787 1.356 . S
N1790 C1782 1.356 . S
N1790 H1796 0.984 . S
N1790 H1797 0.984 . S
N1791 C1784 1.356 . S
N1791 H1794 0.984 . S
N1791 H1795 0.985 . S
H1792 N1787 0.984 . S
H1793 N1787 0.985 . S
H1794 N1791 0.984 . S
H1795 N1791 0.985 . S
H1796 N1790 0.984 . S
H1797 N1790 0.984 . S
H1798 N1786 0.984 . S
H1799 N1786 0.985 . S
C1800 C1801 1.363 . S
C1800 C1806 1.379 . S
C1800 N1808 1.356 . S
C1801 C1800 1.363 . S
C1801 C1807 1.363 . S
C1802 C1803 1.363 . S
C1802 C1807 1.379 . S
C1802 N1809 1.356 . S
C1803 C1802 1.363 . S
C1803 C1806 1.363 . S
N1804 C1806 1.356 . S
N1804 H1816 0.984 . S
N1804 H1817 0.985 . S
N1805 C1807 1.356 . S
N1805 H1810 0.984 . S
N1805 H1811 0.985 . S
C1806 C1800 1.379 . S
C1806 C1803 1.363 . S
C1806 N1804 1.356 . S
C1807 C1801 1.363 . S
C1807 C1802 1.379 . S
C1807 N1805 1.356 . S
N1808 C1800 1.356 . S
N1808 H1814 0.984 . S
N1808 H1815 0.984 . S
N1809 C1802 1.356 . S
N1809 H1812 0.984 . S
N1809 H1813 0.985 . S
H1810 N1805 0.984 . S
H1811 N1805 0.985 . S
H1812 N1809 0.984 . S
H1813 N1809 0.985 . S
H1814 N1808 0.984 . S
H1815 N1808 0.984 . S
H1816 N1804 0.984 . S
H1817 N1804 0.985 . S
C1818 C1819 1.363 . S
C1818 C1824 1.379 . S
C1818 N1826 1.356 . S
C1819 C1818 1.363 . S
C1819 C1825 1.363 . S
C1820 C1821 1.363 . S
C1820 C1825 1.379 . S
C1820 N1827 1.356 . S
C1821 C1820 1.363 . S
C1821 C1824 1.363 . S
N1822 C1824 1.356 . S
N1822 H1834 0.984 . S
N1822 H1835 0.985 . S
N1823 C1825 1.356 . S
N1823 H1828 0.984 . S
N1823 H1829 0.985 . S
C1824 C1818 1.379 . S
C1824 C1821 1.363 . S
C1824 N1822 1.356 . S
C1825 C1819 1.363 . S
C1825 C1820 1.379 . S
C1825 N1823 1.356 . S
N1826 C1818 1.356 . S
N1826 H1832 0.984 . S
N1826 H1833 0.984 . S
N1827 C1820 1.356 . S
N1827 H1830 0.984 . S
N1827 H1831 0.985 . S
H1828 N1823 0.984 . S
H1829 N1823 0.985 . S
H1830 N1827 0.984 . S
H1831 N1827 0.985 . S
H1832 N1826 0.984 . S
H1833 N1826 0.984 . S
H1834 N1822 0.984 . S
H1835 N1822 0.985 . S
C1836 C1837 1.363 . S
C1836 C1842 1.379 . S
C1836 N1844 1.356 . S
C1837 C1836 1.363 . S
C1837 C1843 1.363 . S
C1838 C1839 1.363 . S
C1838 C1843 1.379 . S
C1838 N1845 1.356 . S
C1839 C1838 1.363 . S
C1839 C1842 1.363 . S
N1840 C1842 1.356 . S
N1840 H1852 0.984 . S
N1840 H1853 0.985 . S
N1841 C1843 1.356 . S
N1841 H1846 0.984 . S
N1841 H1847 0.985 . S
C1842 C1836 1.379 . S
C1842 C1839 1.363 . S
C1842 N1840 1.356 . S
C1843 C1837 1.363 . S
C1843 C1838 1.379 . S
C1843 N1841 1.356 . S
N1844 C1836 1.356 . S
N1844 H1850 0.984 . S
N1844 H1851 0.984 . S
N1845 C1838 1.356 . S
N1845 H1848 0.984 . S
N1845 H1849 0.985 . S
H1846 N1841 0.984 . S
H1847 N1841 0.985 . S
H1848 N1845 0.984 . S
H1849 N1845 0.985 . S
H1850 N1844 0.984 . S
H1851 N1844 0.984 . S
H1852 N1840 0.984 . S
H1853 N1840 0.985 . S
C1854 C1855 1.363 . S
C1854 C1860 1.379 . S
C1854 N1862 1.356 . S
C1855 C1854 1.363 . S
C1855 C1861 1.363 . S
C1856 C1857 1.363 . S
C1856 C1861 1.379 . S
C1856 N1863 1.356 1_455 S
C1857 C1856 1.363 . S
C1857 C1860 1.363 . S
N1858 C1860 1.356 . S
N1858 H1870 0.984 . S
N1858 H1871 0.985 1_455 S
N1859 C1861 1.356 . S
N1859 H1864 0.984 . S
N1859 H1865 0.985 . S
C1860 C1854 1.379 . S
C1860 C1857 1.363 . S
C1860 N1858 1.356 . S
C1861 C1855 1.363 . S
C1861 C1856 1.379 . S
C1861 N1859 1.356 . S
N1862 C1854 1.356 . S
N1862 H1868 0.984 . S
N1862 H1869 0.984 . S
N1863 C1856 1.356 1_655 S
N1863 H1866 0.984 . S
N1863 H1867 0.985 . S
H1864 N1859 0.984 . S
H1865 N1859 0.985 . S
H1866 N1863 0.984 . S
H1867 N1863 0.985 . S
H1868 N1862 0.984 . S
H1869 N1862 0.984 . S
H1870 N1858 0.984 . S
H1871 N1858 0.985 1_655 S
C1872 C1873 1.363 . S
C1872 C1878 1.379 . S
C1872 N1880 1.356 . S
C1873 C1872 1.363 . S
C1873 C1879 1.363 . S
C1874 C1875 1.363 . S
C1874 C1879 1.379 . S
C1874 N1881 1.356 . S
C1875 C1874 1.363 . S
C1875 C1878 1.363 . S
N1876 C1878 1.356 . S
N1876 H1888 0.984 . S
N1876 H1889 0.985 . S
N1877 C1879 1.356 . S
N1877 H1882 0.984 . S
N1877 H1883 0.985 . S
C1878 C1872 1.379 . S
C1878 C1875 1.363 . S
C1878 N1876 1.356 . S
C1879 C1873 1.363 . S
C1879 C1874 1.379 . S
C1879 N1877 1.356 . S
N1880 C1872 1.356 . S
N1880 H1886 0.984 . S
N1880 H1887 0.984 . S
N1881 C1874 1.356 . S
N1881 H1884 0.984 . S
N1881 H1885 0.985 . S
H1882 N1877 0.984 . S
H1883 N1877 0.985 . S
H1884 N1881 0.984 . S
H1885 N1881 0.985 . S
H1886 N1880 0.984 . S
H1887 N1880 0.984 . S
H1888 N1876 0.984 . S
H1889 N1876 0.985 . S
C1890 C1891 1.363 . S
C1890 C1896 1.379 . S
C1890 N1898 1.356 1_655 S
C1891 C1890 1.363 . S
C1891 C1897 1.363 . S
C1892 C1893 1.363 . S
C1892 C1897 1.379 . S
C1892 N1899 1.356 . S
C1893 C1892 1.363 . S
C1893 C1896 1.363 . S
N1894 C1896 1.356 . S
N1894 H1906 0.984 . S
N1894 H1907 0.985 . S
N1895 C1897 1.356 . S
N1895 H1900 0.984 1_655 S
N1895 H1901 0.985 1_565 S
C1896 C1890 1.379 . S
C1896 C1893 1.363 . S
C1896 N1894 1.356 . S
C1897 C1891 1.363 . S
C1897 C1892 1.379 . S
C1897 N1895 1.356 . S
N1898 C1890 1.356 1_455 S
N1898 H1904 0.984 . S
N1898 H1905 0.984 . S
N1899 C1892 1.356 . S
N1899 H1902 0.984 . S
N1899 H1903 0.985 . S
H1900 N1895 0.984 1_455 S
H1901 N1895 0.985 1_545 S
H1902 N1899 0.984 . S
H1903 N1899 0.985 . S
H1904 N1898 0.984 . S
H1905 N1898 0.984 . S
H1906 N1894 0.984 . S
H1907 N1894 0.985 . S
C1908 C1909 1.363 . S
C1908 C1914 1.379 . S
C1908 N1916 1.356 . S
C1909 C1908 1.363 . S
C1909 C1915 1.363 . S
C1910 C1911 1.363 . S
C1910 C1915 1.379 . S
C1910 N1917 1.356 . S
C1911 C1910 1.363 . S
C1911 C1914 1.363 . S
N1912 C1914 1.356 . S
N1912 H1924 0.984 . S
N1912 H1925 0.985 . S
N1913 C1915 1.356 . S
N1913 H1918 0.984 . S
N1913 H1919 0.985 . S
C1914 C1908 1.379 . S
C1914 C1911 1.363 . S
C1914 N1912 1.356 . S
C1915 C1909 1.363 . S
C1915 C1910 1.379 . S
C1915 N1913 1.356 . S
N1916 C1908 1.356 . S
N1916 H1922 0.984 . S
N1916 H1923 0.984 . S
N1917 C1910 1.356 . S
N1917 H1920 0.984 . S
N1917 H1921 0.985 . S
H1918 N1913 0.984 . S
H1919 N1913 0.985 . S
H1920 N1917 0.984 . S
H1921 N1917 0.985 . S
H1922 N1916 0.984 . S
H1923 N1916 0.984 . S
H1924 N1912 0.984 . S
H1925 N1912 0.985 . S
C1926 C1927 1.363 . S
C1926 C1932 1.379 . S
C1926 N1934 1.356 . S
C1927 C1926 1.363 . S
C1927 C1933 1.363 . S
C1928 C1929 1.363 . S
C1928 C1933 1.379 . S
C1928 N1935 1.356 . S
C1929 C1928 1.363 . S
C1929 C1932 1.363 . S
N1930 C1932 1.356 . S
N1930 H1942 0.984 . S
N1930 H1943 0.985 . S
N1931 C1933 1.356 . S
N1931 H1936 0.984 . S
N1931 H1937 0.985 . S
C1932 C1926 1.379 . S
C1932 C1929 1.363 . S
C1932 N1930 1.356 . S
C1933 C1927 1.363 . S
C1933 C1928 1.379 . S
C1933 N1931 1.356 . S
N1934 C1926 1.356 . S
N1934 H1940 0.984 . S
N1934 H1941 0.984 . S
N1935 C1928 1.356 . S
N1935 H1938 0.984 . S
N1935 H1939 0.985 . S
H1936 N1931 0.984 . S
H1937 N1931 0.985 . S
H1938 N1935 0.984 . S
H1939 N1935 0.985 . S
H1940 N1934 0.984 . S
H1941 N1934 0.984 . S
H1942 N1930 0.984 . S
H1943 N1930 0.985 . S
C1944 C1945 1.363 . S
C1944 C1950 1.379 . S
C1944 N1952 1.356 . S
C1945 C1944 1.363 . S
C1945 C1951 1.363 . S
C1946 C1947 1.363 . S
C1946 C1951 1.379 . S
C1946 N1953 1.356 . S
C1947 C1946 1.363 . S
C1947 C1950 1.363 . S
N1948 C1950 1.356 . S
N1948 H1960 0.984 . S
N1948 H1961 0.985 . S
N1949 C1951 1.356 . S
N1949 H1954 0.984 . S
N1949 H1955 0.985 . S
C1950 C1944 1.379 . S
C1950 C1947 1.363 . S
C1950 N1948 1.356 . S
C1951 C1945 1.363 . S
C1951 C1946 1.379 . S
C1951 N1949 1.356 . S
N1952 C1944 1.356 . S
N1952 H1958 0.984 . S
N1952 H1959 0.984 . S
N1953 C1946 1.356 . S
N1953 H1956 0.984 . S
N1953 H1957 0.985 . S
H1954 N1949 0.984 . S
H1955 N1949 0.985 . S
H1956 N1953 0.984 . S
H1957 N1953 0.985 . S
H1958 N1952 0.984 . S
H1959 N1952 0.984 . S
H1960 N1948 0.984 . S
H1961 N1948 0.985 . S
C1962 C1963 1.363 . S
C1962 C1968 1.379 . S
C1962 N1970 1.356 . S
C1963 C1962 1.363 . S
C1963 C1969 1.363 . S
C1964 C1965 1.363 . S
C1964 C1969 1.379 . S
C1964 N1971 1.356 . S
C1965 C1964 1.363 . S
C1965 C1968 1.363 . S
N1966 C1968 1.356 . S
N1966 H1978 0.984 . S
N1966 H1979 0.985 . S
N1967 C1969 1.356 . S
N1967 H1972 0.984 . S
N1967 H1973 0.985 . S
C1968 C1962 1.379 . S
C1968 C1965 1.363 . S
C1968 N1966 1.356 . S
C1969 C1963 1.363 . S
C1969 C1964 1.379 . S
C1969 N1967 1.356 . S
N1970 C1962 1.356 . S
N1970 H1976 0.984 1_565 S
N1970 H1977 0.984 . S
N1971 C1964 1.356 . S
N1971 H1974 0.984 . S
N1971 H1975 0.985 . S
H1972 N1967 0.984 . S
H1973 N1967 0.985 . S
H1974 N1971 0.984 . S
H1975 N1971 0.985 . S
H1976 N1970 0.984 1_545 S
H1977 N1970 0.984 . S
H1978 N1966 0.984 . S
H1979 N1966 0.985 . S
C1980 C1981 1.363 . S
C1980 C1986 1.379 . S
C1980 N1988 1.356 . S
C1981 C1980 1.363 . S
C1981 C1987 1.363 . S
C1982 C1983 1.363 . S
C1982 C1987 1.379 . S
C1982 N1989 1.356 . S
C1983 C1982 1.363 . S
C1983 C1986 1.363 . S
N1984 C1986 1.356 . S
N1984 H1996 0.984 . S
N1984 H1997 0.985 . S
N1985 C1987 1.356 . S
N1985 H1990 0.984 . S
N1985 H1991 0.985 . S
C1986 C1980 1.379 . S
C1986 C1983 1.363 . S
C1986 N1984 1.356 . S
C1987 C1981 1.363 . S
C1987 C1982 1.379 . S
C1987 N1985 1.356 . S
N1988 C1980 1.356 . S
N1988 H1994 0.984 . S
N1988 H1995 0.984 . S
N1989 C1982 1.356 . S
N1989 H1992 0.984 . S
N1989 H1993 0.985 . S
H1990 N1985 0.984 . S
H1991 N1985 0.985 . S
H1992 N1989 0.984 . S
H1993 N1989 0.985 . S
H1994 N1988 0.984 . S
H1995 N1988 0.984 . S
H1996 N1984 0.984 . S
H1997 N1984 0.985 . S
C1998 C1999 1.363 . S
C1998 C2004 1.379 . S
C1998 N2006 1.356 . S
C1999 C1998 1.363 . S
C1999 C2005 1.363 . S
C2000 C2001 1.363 . S
C2000 C2005 1.379 . S
C2000 N2007 1.356 . S
C2001 C2000 1.363 . S
C2001 C2004 1.363 . S
N2002 C2004 1.356 . S
N2002 H2014 0.984 . S
N2002 H2015 0.985 . S
N2003 C2005 1.356 1_455 S
N2003 H2008 0.984 . S
N2003 H2009 0.985 . S
C2004 C1998 1.379 . S
C2004 C2001 1.363 . S
C2004 N2002 1.356 . S
C2005 C1999 1.363 . S
C2005 C2000 1.379 . S
C2005 N2003 1.356 1_655 S
N2006 C1998 1.356 . S
N2006 H2012 0.984 . S
N2006 H2013 0.984 1_655 S
N2007 C2000 1.356 . S
N2007 H2010 0.984 . S
N2007 H2011 0.985 . S
H2008 N2003 0.984 . S
H2009 N2003 0.985 . S
H2010 N2007 0.984 . S
H2011 N2007 0.985 . S
H2012 N2006 0.984 . S
H2013 N2006 0.984 1_455 S
H2014 N2002 0.984 . S
H2015 N2002 0.985 . S
C2016 C2017 1.363 . S
C2016 C2022 1.379 . S
C2016 N2024 1.356 . S
C2017 C2016 1.363 . S
C2017 C2023 1.363 . S
C2018 C2019 1.363 . S
C2018 C2023 1.379 . S
C2018 N2025 1.356 . S
C2019 C2018 1.363 . S
C2019 C2022 1.363 . S
N2020 C2022 1.356 . S
N2020 H2032 0.984 . S
N2020 H2033 0.985 . S
N2021 C2023 1.356 . S
N2021 H2026 0.984 . S
N2021 H2027 0.985 . S
C2022 C2016 1.379 . S
C2022 C2019 1.363 . S
C2022 N2020 1.356 . S
C2023 C2017 1.363 . S
C2023 C2018 1.379 . S
C2023 N2021 1.356 . S
N2024 C2016 1.356 . S
N2024 H2030 0.984 . S
N2024 H2031 0.984 . S
N2025 C2018 1.356 . S
N2025 H2028 0.984 . S
N2025 H2029 0.985 . S
H2026 N2021 0.984 . S
H2027 N2021 0.985 . S
H2028 N2025 0.984 . S
H2029 N2025 0.985 . S
H2030 N2024 0.984 . S
H2031 N2024 0.984 . S
H2032 N2020 0.984 . S
H2033 N2020 0.985 . S
C2034 C2035 1.363 . S
C2034 C2040 1.379 . S
C2034 N2042 1.356 . S
C2035 C2034 1.363 . S
C2035 C2041 1.363 . S
C2036 C2037 1.363 . S
C2036 C2041 1.379 . S
C2036 N2043 1.356 . S
C2037 C2036 1.363 . S
C2037 C2040 1.363 . S
N2038 C2040 1.356 . S
N2038 H2050 0.984 . S
N2038 H2051 0.985 . S
N2039 C2041 1.356 . S
N2039 H2044 0.984 . S
N2039 H2045 0.985 . S
C2040 C2034 1.379 . S
C2040 C2037 1.363 . S
C2040 N2038 1.356 . S
C2041 C2035 1.363 . S
C2041 C2036 1.379 . S
C2041 N2039 1.356 . S
N2042 C2034 1.356 . S
N2042 H2048 0.984 . S
N2042 H2049 0.984 . S
N2043 C2036 1.356 . S
N2043 H2046 0.984 . S
N2043 H2047 0.985 . S
H2044 N2039 0.984 . S
H2045 N2039 0.985 . S
H2046 N2043 0.984 . S
H2047 N2043 0.985 . S
H2048 N2042 0.984 . S
H2049 N2042 0.984 . S
H2050 N2038 0.984 . S
H2051 N2038 0.985 . S
C2052 C2053 1.363 . S
C2052 C2058 1.379 . S
C2052 N2060 1.356 . S
C2053 C2052 1.363 . S
C2053 C2059 1.363 . S
C2054 C2055 1.363 . S
C2054 C2059 1.379 . S
C2054 N2061 1.356 . S
C2055 C2054 1.363 . S
C2055 C2058 1.363 . S
N2056 C2058 1.356 . S
N2056 H2068 0.984 . S
N2056 H2069 0.985 . S
N2057 C2059 1.356 . S
N2057 H2062 0.984 . S
N2057 H2063 0.985 . S
C2058 C2052 1.379 . S
C2058 C2055 1.363 . S
C2058 N2056 1.356 . S
C2059 C2053 1.363 . S
C2059 C2054 1.379 . S
C2059 N2057 1.356 . S
N2060 C2052 1.356 . S
N2060 H2066 0.984 . S
N2060 H2067 0.984 . S
N2061 C2054 1.356 . S
N2061 H2064 0.984 . S
N2061 H2065 0.985 . S
H2062 N2057 0.984 . S
H2063 N2057 0.985 . S
H2064 N2061 0.984 . S
H2065 N2061 0.985 . S
H2066 N2060 0.984 . S
H2067 N2060 0.984 . S
H2068 N2056 0.984 . S
H2069 N2056 0.985 . S
C2070 C2071 1.363 . S
C2070 C2076 1.379 . S
C2070 N2078 1.356 . S
C2071 C2070 1.363 . S
C2071 C2077 1.363 . S
C2072 C2073 1.363 . S
C2072 C2077 1.379 . S
C2072 N2079 1.356 1_655 S
C2073 C2072 1.363 . S
C2073 C2076 1.363 . S
N2074 C2076 1.356 . S
N2074 H2086 0.984 . S
N2074 H2087 0.985 1_655 S
N2075 C2077 1.356 . S
N2075 H2080 0.984 . S
N2075 H2081 0.985 . S
C2076 C2070 1.379 . S
C2076 C2073 1.363 . S
C2076 N2074 1.356 . S
C2077 C2071 1.363 . S
C2077 C2072 1.379 . S
C2077 N2075 1.356 . S
N2078 C2070 1.356 . S
N2078 H2084 0.984 . S
N2078 H2085 0.984 . S
N2079 C2072 1.356 1_455 S
N2079 H2082 0.984 . S
N2079 H2083 0.985 . S
H2080 N2075 0.984 . S
H2081 N2075 0.985 . S
H2082 N2079 0.984 . S
H2083 N2079 0.985 . S
H2084 N2078 0.984 . S
H2085 N2078 0.984 . S
H2086 N2074 0.984 . S
H2087 N2074 0.985 1_455 S
C2088 C2089 1.363 . S
C2088 C2094 1.379 . S
C2088 N2096 1.356 . S
C2089 C2088 1.363 . S
C2089 C2095 1.363 . S
C2090 C2091 1.363 . S
C2090 C2095 1.379 . S
C2090 N2097 1.356 . S
C2091 C2090 1.363 . S
C2091 C2094 1.363 . S
N2092 C2094 1.356 . S
N2092 H2104 0.984 . S
N2092 H2105 0.985 . S
N2093 C2095 1.356 . S
N2093 H2098 0.984 . S
N2093 H2099 0.985 . S
C2094 C2088 1.379 . S
C2094 C2091 1.363 . S
C2094 N2092 1.356 . S
C2095 C2089 1.363 . S
C2095 C2090 1.379 . S
C2095 N2093 1.356 . S
N2096 C2088 1.356 . S
N2096 H2102 0.984 . S
N2096 H2103 0.984 . S
N2097 C2090 1.356 . S
N2097 H2100 0.984 . S
N2097 H2101 0.985 . S
H2098 N2093 0.984 . S
H2099 N2093 0.985 . S
H2100 N2097 0.984 . S
H2101 N2097 0.985 . S
H2102 N2096 0.984 . S
H2103 N2096 0.984 . S
H2104 N2092 0.984 . S
H2105 N2092 0.985 . S
C2106 C2107 1.363 . S
C2106 C2112 1.379 . S
C2106 N2114 1.356 1_655 S
C2107 C2106 1.363 . S
C2107 C2113 1.363 . S
C2108 C2109 1.363 . S
C2108 C2113 1.379 . S
C2108 N2115 1.356 . S
C2109 C2108 1.363 . S
C2109 C2112 1.363 . S
N2110 C2112 1.356 . S
N2110 H2122 0.984 . S
N2110 H2123 0.985 . S
N2111 C2113 1.356 . S
N2111 H2116 0.984 1_655 S
N2111 H2117 0.985 . S
C2112 C2106 1.379 . S
C2112 C2109 1.363 . S
C2112 N2110 1.356 . S
C2113 C2107 1.363 . S
C2113 C2108 1.379 . S
C2113 N2111 1.356 . S
N2114 C2106 1.356 1_455 S
N2114 H2120 0.984 . S
N2114 H2121 0.984 . S
N2115 C2108 1.356 . S
N2115 H2118 0.984 . S
N2115 H2119 0.985 . S
H2116 N2111 0.984 1_455 S
H2117 N2111 0.985 . S
H2118 N2115 0.984 . S
H2119 N2115 0.985 . S
H2120 N2114 0.984 . S
H2121 N2114 0.984 . S
H2122 N2110 0.984 . S
H2123 N2110 0.985 . S
C2124 C2125 1.363 . S
C2124 C2130 1.379 . S
C2124 N2132 1.356 . S
C2125 C2124 1.363 . S
C2125 C2131 1.363 . S
C2126 C2127 1.363 . S
C2126 C2131 1.379 . S
C2126 N2133 1.356 . S
C2127 C2126 1.363 . S
C2127 C2130 1.363 . S
N2128 C2130 1.356 . S
N2128 H2140 0.984 . S
N2128 H2141 0.985 . S
N2129 C2131 1.356 . S
N2129 H2134 0.984 . S
N2129 H2135 0.985 . S
C2130 C2124 1.379 . S
C2130 C2127 1.363 . S
C2130 N2128 1.356 . S
C2131 C2125 1.363 . S
C2131 C2126 1.379 . S
C2131 N2129 1.356 . S
N2132 C2124 1.356 . S
N2132 H2138 0.984 . S
N2132 H2139 0.984 . S
N2133 C2126 1.356 . S
N2133 H2136 0.984 . S
N2133 H2137 0.985 . S
H2134 N2129 0.984 . S
H2135 N2129 0.985 . S
H2136 N2133 0.984 . S
H2137 N2133 0.985 . S
H2138 N2132 0.984 . S
H2139 N2132 0.984 . S
H2140 N2128 0.984 . S
H2141 N2128 0.985 . S
C2142 C2143 1.363 . S
C2142 C2148 1.379 . S
C2142 N2150 1.356 . S
C2143 C2142 1.363 . S
C2143 C2149 1.363 . S
C2144 C2145 1.363 . S
C2144 C2149 1.379 . S
C2144 N2151 1.356 . S
C2145 C2144 1.363 . S
C2145 C2148 1.363 . S
N2146 C2148 1.356 . S
N2146 H2158 0.984 . S
N2146 H2159 0.985 . S
N2147 C2149 1.356 . S
N2147 H2152 0.984 . S
N2147 H2153 0.985 . S
C2148 C2142 1.379 . S
C2148 C2145 1.363 . S
C2148 N2146 1.356 . S
C2149 C2143 1.363 . S
C2149 C2144 1.379 . S
C2149 N2147 1.356 . S
N2150 C2142 1.356 . S
N2150 H2156 0.984 . S
N2150 H2157 0.984 . S
N2151 C2144 1.356 . S
N2151 H2154 0.984 . S
N2151 H2155 0.985 . S
H2152 N2147 0.984 . S
H2153 N2147 0.985 . S
H2154 N2151 0.984 . S
H2155 N2151 0.985 . S
H2156 N2150 0.984 . S
H2157 N2150 0.984 . S
H2158 N2146 0.984 . S
H2159 N2146 0.985 . S
C2160 C2161 1.363 . S
C2160 C2166 1.379 . S
C2160 N2168 1.356 . S
C2161 C2160 1.363 . S
C2161 C2167 1.363 . S
C2162 C2163 1.363 . S
C2162 C2167 1.379 . S
C2162 N2169 1.356 . S
C2163 C2162 1.363 . S
C2163 C2166 1.363 . S
N2164 C2166 1.356 . S
N2164 H2176 0.984 . S
N2164 H2177 0.985 . S
N2165 C2167 1.356 . S
N2165 H2170 0.984 . S
N2165 H2171 0.985 . S
C2166 C2160 1.379 . S
C2166 C2163 1.363 . S
C2166 N2164 1.356 . S
C2167 C2161 1.363 . S
C2167 C2162 1.379 . S
C2167 N2165 1.356 . S
N2168 C2160 1.356 . S
N2168 H2174 0.984 . S
N2168 H2175 0.984 . S
N2169 C2162 1.356 . S
N2169 H2172 0.984 . S
N2169 H2173 0.985 . S
H2170 N2165 0.984 . S
H2171 N2165 0.985 . S
H2172 N2169 0.984 . S
H2173 N2169 0.985 . S
H2174 N2168 0.984 . S
H2175 N2168 0.984 . S
H2176 N2164 0.984 . S
H2177 N2164 0.985 . S
C2178 C2179 1.363 . S
C2178 C2184 1.379 . S
C2178 N2186 1.356 . S
C2179 C2178 1.363 . S
C2179 C2185 1.363 . S
C2180 C2181 1.363 . S
C2180 C2185 1.379 . S
C2180 N2187 1.356 . S
C2181 C2180 1.363 . S
C2181 C2184 1.363 . S
N2182 C2184 1.356 . S
N2182 H2194 0.984 . S
N2182 H2195 0.985 . S
N2183 C2185 1.356 . S
N2183 H2188 0.984 . S
N2183 H2189 0.985 . S
C2184 C2178 1.379 . S
C2184 C2181 1.363 . S
C2184 N2182 1.356 . S
C2185 C2179 1.363 . S
C2185 C2180 1.379 . S
C2185 N2183 1.356 . S
N2186 C2178 1.356 . S
N2186 H2192 0.984 . S
N2186 H2193 0.984 . S
N2187 C2180 1.356 . S
N2187 H2190 0.984 . S
N2187 H2191 0.985 . S
H2188 N2183 0.984 . S
H2189 N2183 0.985 . S
H2190 N2187 0.984 . S
H2191 N2187 0.985 . S
H2192 N2186 0.984 . S
H2193 N2186 0.984 . S
H2194 N2182 0.984 . S
H2195 N2182 0.985 . S
C2196 C2197 1.363 . S
C2196 C2202 1.379 . S
C2196 N2204 1.356 . S
C2197 C2196 1.363 . S
C2197 C2203 1.363 . S
C2198 C2199 1.363 . S
C2198 C2203 1.379 . S
C2198 N2205 1.356 . S
C2199 C2198 1.363 . S
C2199 C2202 1.363 . S
N2200 C2202 1.356 . S
N2200 H2212 0.984 . S
N2200 H2213 0.985 . S
N2201 C2203 1.356 . S
N2201 H2206 0.984 . S
N2201 H2207 0.985 . S
C2202 C2196 1.379 . S
C2202 C2199 1.363 . S
C2202 N2200 1.356 . S
C2203 C2197 1.363 . S
C2203 C2198 1.379 . S
C2203 N2201 1.356 . S
N2204 C2196 1.356 . S
N2204 H2210 0.984 . S
N2204 H2211 0.984 . S
N2205 C2198 1.356 . S
N2205 H2208 0.984 . S
N2205 H2209 0.985 . S
H2206 N2201 0.984 . S
H2207 N2201 0.985 . S
H2208 N2205 0.984 . S
H2209 N2205 0.985 . S
H2210 N2204 0.984 . S
H2211 N2204 0.984 . S
H2212 N2200 0.984 . S
H2213 N2200 0.985 . S
C2214 C2215 1.363 . S
C2214 C2220 1.379 . S
C2214 N2222 1.356 . S
C2215 C2214 1.363 . S
C2215 C2221 1.363 . S
C2216 C2217 1.363 . S
C2216 C2221 1.379 . S
C2216 N2223 1.356 . S
C2217 C2216 1.363 . S
C2217 C2220 1.363 . S
N2218 C2220 1.356 . S
N2218 H2230 0.984 . S
N2218 H2231 0.985 . S
N2219 C2221 1.356 1_655 S
N2219 H2224 0.984 . S
N2219 H2225 0.985 . S
C2220 C2214 1.379 . S
C2220 C2217 1.363 . S
C2220 N2218 1.356 . S
C2221 C2215 1.363 . S
C2221 C2216 1.379 . S
C2221 N2219 1.356 1_455 S
N2222 C2214 1.356 . S
N2222 H2228 0.984 . S
N2222 H2229 0.984 1_455 S
N2223 C2216 1.356 . S
N2223 H2226 0.984 . S
N2223 H2227 0.985 . S
H2224 N2219 0.984 . S
H2225 N2219 0.985 . S
H2226 N2223 0.984 . S
H2227 N2223 0.985 . S
H2228 N2222 0.984 . S
H2229 N2222 0.984 1_655 S
H2230 N2218 0.984 . S
H2231 N2218 0.985 . S
C2232 C2233 1.363 . S
C2232 C2238 1.379 . S
C2232 N2240 1.356 . S
C2233 C2232 1.363 . S
C2233 C2239 1.363 . S
C2234 C2235 1.363 . S
C2234 C2239 1.379 . S
C2234 N2241 1.356 . S
C2235 C2234 1.363 . S
C2235 C2238 1.363 . S
N2236 C2238 1.356 . S
N2236 H2248 0.984 . S
N2236 H2249 0.985 . S
N2237 C2239 1.356 . S
N2237 H2242 0.984 . S
N2237 H2243 0.985 . S
C2238 C2232 1.379 . S
C2238 C2235 1.363 . S
C2238 N2236 1.356 . S
C2239 C2233 1.363 . S
C2239 C2234 1.379 . S
C2239 N2237 1.356 . S
N2240 C2232 1.356 . S
N2240 H2246 0.984 . S
N2240 H2247 0.984 . S
N2241 C2234 1.356 . S
N2241 H2244 0.984 . S
N2241 H2245 0.985 . S
H2242 N2237 0.984 . S
H2243 N2237 0.985 . S
H2244 N2241 0.984 . S
H2245 N2241 0.985 . S
H2246 N2240 0.984 . S
H2247 N2240 0.984 . S
H2248 N2236 0.984 . S
H2249 N2236 0.985 . S
C2250 C2251 1.363 . S
C2250 C2256 1.379 . S
C2250 N2258 1.356 . S
C2251 C2250 1.363 . S
C2251 C2257 1.363 . S
C2252 C2253 1.363 . S
C2252 C2257 1.379 . S
C2252 N2259 1.356 . S
C2253 C2252 1.363 . S
C2253 C2256 1.363 . S
N2254 C2256 1.356 1_655 S
N2254 H2266 0.984 . S
N2254 H2267 0.985 . S
N2255 C2257 1.356 . S
N2255 H2260 0.984 . S
N2255 H2261 0.985 . S
C2256 C2250 1.379 . S
C2256 C2253 1.363 . S
C2256 N2254 1.356 1_455 S
C2257 C2251 1.363 . S
C2257 C2252 1.379 . S
C2257 N2255 1.356 . S
N2258 C2250 1.356 . S
N2258 H2264 0.984 . S
N2258 H2265 0.984 . S
N2259 C2252 1.356 . S
N2259 H2262 0.984 1_455 S
N2259 H2263 0.985 . S
H2260 N2255 0.984 . S
H2261 N2255 0.985 . S
H2262 N2259 0.984 1_655 S
H2263 N2259 0.985 . S
H2264 N2258 0.984 . S
H2265 N2258 0.984 . S
H2266 N2254 0.984 . S
H2267 N2254 0.985 . S
C2268 C2269 1.363 . S
C2268 C2274 1.379 . S
C2268 N2276 1.356 . S
C2269 C2268 1.363 . S
C2269 C2275 1.363 . S
C2270 C2271 1.363 . S
C2270 C2275 1.379 . S
C2270 N2277 1.356 . S
C2271 C2270 1.363 . S
C2271 C2274 1.363 . S
N2272 C2274 1.356 . S
N2272 H2284 0.984 . S
N2272 H2285 0.985 . S
N2273 C2275 1.356 . S
N2273 H2278 0.984 . S
N2273 H2279 0.985 . S
C2274 C2268 1.379 . S
C2274 C2271 1.363 . S
C2274 N2272 1.356 . S
C2275 C2269 1.363 . S
C2275 C2270 1.379 . S
C2275 N2273 1.356 . S
N2276 C2268 1.356 . S
N2276 H2282 0.984 . S
N2276 H2283 0.984 . S
N2277 C2270 1.356 . S
N2277 H2280 0.984 . S
N2277 H2281 0.985 . S
H2278 N2273 0.984 . S
H2279 N2273 0.985 . S
H2280 N2277 0.984 . S
H2281 N2277 0.985 . S
H2282 N2276 0.984 . S
H2283 N2276 0.984 . S
H2284 N2272 0.984 . S
H2285 N2272 0.985 . S
C2286 C2287 1.363 . S
C2286 C2292 1.379 . S
C2286 N2294 1.356 . S
C2287 C2286 1.363 . S
C2287 C2293 1.363 . S
C2288 C2289 1.363 . S
C2288 C2293 1.379 . S
C2288 N2295 1.356 . S
C2289 C2288 1.363 . S
C2289 C2292 1.363 . S
N2290 C2292 1.356 . S
N2290 H2302 0.984 . S
N2290 H2303 0.985 . S
N2291 C2293 1.356 . S
N2291 H2296 0.984 . S
N2291 H2297 0.985 . S
C2292 C2286 1.379 . S
C2292 C2289 1.363 . S
C2292 N2290 1.356 . S
C2293 C2287 1.363 . S
C2293 C2288 1.379 . S
C2293 N2291 1.356 . S
N2294 C2286 1.356 . S
N2294 H2300 0.984 . S
N2294 H2301 0.984 . S
N2295 C2288 1.356 . S
N2295 H2298 0.984 . S
N2295 H2299 0.985 . S
H2296 N2291 0.984 . S
H2297 N2291 0.985 . S
H2298 N2295 0.984 . S
H2299 N2295 0.985 . S
H2300 N2294 0.984 . S
H2301 N2294 0.984 . S
H2302 N2290 0.984 . S
H2303 N2290 0.985 . S
C1153 C148 1.508 . S
C1155 C4 1.508 . S
C1171 C184 1.508 . S
C1173 C40 1.508 . S
C1189 C220 1.508 . S
C1191 C76 1.508 . S
C1207 C112 1.508 . S
C1209 C256 1.508 . S
C1225 C292 1.508 . S
C1227 C436 1.508 . S
C1243 C472 1.508 . S
C1245 C328 1.508 . S
C1261 C364 1.508 . S
C1263 C508 1.508 . S
C1279 C544 1.508 . S
C1281 C400 1.508 . S
C1297 C580 1.508 . S
C1299 C724 1.508 . S
C1315 C760 1.508 . S
C1317 C616 1.508 . S
C1333 C796 1.508 . S
C1335 C652 1.508 . S
C1351 C832 1.508 . S
C1353 C688 1.508 . S
C1369 C868 1.508 . S
C1371 C1012 1.508 . S
C1387 C904 1.508 . S
C1389 C1048 1.508 . S
C1405 C940 1.508 . S
C1407 C1084 1.508 . S
C1423 C976 1.508 . S
C1425 C1120 1.508 . S
C1441 C14 1.189 . S
C1443 C266 1.189 . S
C1459 C50 1.189 . S
C1461 C158 1.189 . S
C1477 C86 1.189 . S
C1479 C194 1.189 . S
C1495 C230 1.189 . S
C1497 C122 1.189 . S
C1513 C554 1.189 . S
C1515 C302 1.189 . S
C1531 C446 1.189 . S
C1533 C338 1.189 . S
C1549 C482 1.189 . S
C1551 C374 1.189 . S
C1567 C410 1.189 . S
C1569 C518 1.189 . S
C1585 C842 1.189 . S
C1587 C590 1.189 . S
C1603 C734 1.189 . S
C1605 C626 1.189 . S
C1621 C770 1.189 . S
C1623 C662 1.189 . S
C1639 C698 1.189 . S
C1641 C806 1.189 . S
C1657 C878 1.189 . S
C1659 C1130 1.189 . S
C1675 C914 1.189 . S
C1677 C1022 1.189 . S
C1693 C950 1.189 . S
C1695 C1058 1.189 . S
C1711 C1094 1.189 . S
C1713 C986 1.189 . S
C1729 C3 1.479 . S
C1731 C902 1.451 . S
C1747 C39 1.479 . S
C1749 C362 1.451 1_455 S
C1765 C75 1.479 . S
C1767 C974 1.451 . S
C1783 C290 1.451 . S
C1785 C111 1.479 . S
C1801 C1118 1.451 . S
C1803 C147 1.479 . S
C1819 C183 1.479 . S
C1821 C434 1.451 . S
C1837 C219 1.479 . S
C1839 C1046 1.451 . S
C1855 C255 1.479 . S
C1857 C506 1.451 1_455 S
C1873 C614 1.451 . S
C1875 C291 1.479 . S
C1891 C74 1.451 1_655 S
C1893 C327 1.479 . S
C1909 C686 1.451 . S
C1911 C363 1.479 . S
C1927 C399 1.479 . S
C1929 C2 1.451 . S
C1945 C830 1.451 . S
C1947 C435 1.479 . S
C1963 C146 1.451 . S
C1965 C471 1.479 . S
C1981 C758 1.451 . S
C1983 C507 1.479 . S
C1999 C218 1.451 1_655 S
C2001 C543 1.479 . S
C2017 C326 1.451 . S
C2019 C579 1.479 . S
C2035 C615 1.479 . S
C2037 C938 1.451 . S
C2053 C651 1.479 . S
C2055 C398 1.451 . S
C2071 C687 1.479 . S
C2073 C866 1.451 1_655 S
C2089 C723 1.479 . S
C2091 C542 1.451 . S
C2107 C1010 1.451 1_655 S
C2109 C759 1.479 . S
C2125 C795 1.479 . S
C2127 C470 1.451 . S
C2143 C831 1.479 . S
C2145 C1082 1.451 . S
C2161 C867 1.479 . S
C2163 C38 1.451 . S
C2179 C903 1.479 . S
C2181 C650 1.451 . S
C2197 C110 1.451 . S
C2199 C939 1.479 . S
C2215 C578 1.451 1_455 S
C2217 C975 1.479 . S
C2233 C1011 1.479 . S
C2235 C254 1.451 . S
C2251 C1047 1.479 . S
C2253 C722 1.451 1_455 S
C2269 C182 1.451 . S
C2271 C1083 1.479 . S
C2287 C794 1.451 . S
C2289 C1119 1.479 . S
