# Generated by pormake.
# Topology fcm, (5)-cn, num edge types: 1
# Building blocks:
#     Node 0, Type 0, BuildingBlock: BEQFEK_clean_sbu_0, # of connection points: 5
#     Node 1, Type 0, BuildingBlock: BEQFEK_clean_sbu_0, # of connection points: 5
#     Node 2, Type 0, BuildingBlock: BEQFEK_clean_sbu_0, # of connection points: 5
#     Node 3, Type 0, BuildingBlock: BEQFEK_clean_sbu_0, # of connection points: 5
#     Node 4, Type 0, BuildingBlock: BEQFEK_clean_sbu_0, # of connection points: 5
#     Node 5, Type 0, BuildingBlock: BEQFEK_clean_sbu_0, # of connection points: 5
#     Node 6, Type 0, BuildingBlock: BEQFEK_clean_sbu_0, # of connection points: 5
#     Node 7, Type 0, BuildingBlock: BEQFEK_clean_sbu_0, # of connection points: 5
#     Node 8, Type 0, BuildingBlock: BEQFEK_clean_sbu_0, # of connection points: 5
#     Node 9, Type 0, BuildingBlock: BEQFEK_clean_sbu_0, # of connection points: 5
#     Node 10, Type 0, BuildingBlock: BEQFEK_clean_sbu_0, # of connection points: 5
#     Node 11, Type 0, BuildingBlock: BEQFEK_clean_sbu_0, # of connection points: 5
#     Node 12, Type 0, BuildingBlock: BEQFEK_clean_sbu_0, # of connection points: 5
#     Node 13, Type 0, BuildingBlock: BEQFEK_clean_sbu_0, # of connection points: 5
#     Node 14, Type 0, BuildingBlock: BEQFEK_clean_sbu_0, # of connection points: 5
#     Node 15, Type 0, BuildingBlock: BEQFEK_clean_sbu_0, # of connection points: 5
#     Node 16, Type 0, BuildingBlock: BEQFEK_clean_sbu_0, # of connection points: 5
#     Node 17, Type 0, BuildingBlock: BEQFEK_clean_sbu_0, # of connection points: 5
#     Node 18, Type 0, BuildingBlock: BEQFEK_clean_sbu_0, # of connection points: 5
#     Node 19, Type 0, BuildingBlock: BEQFEK_clean_sbu_0, # of connection points: 5
#     Node 20, Type 0, BuildingBlock: BEQFEK_clean_sbu_0, # of connection points: 5
#     Node 21, Type 0, BuildingBlock: BEQFEK_clean_sbu_0, # of connection points: 5
#     Node 22, Type 0, BuildingBlock: BEQFEK_clean_sbu_0, # of connection points: 5
#     Node 23, Type 0, BuildingBlock: BEQFEK_clean_sbu_0, # of connection points: 5
#     Node 24, Type 0, BuildingBlock: BEQFEK_clean_sbu_0, # of connection points: 5
#     Node 25, Type 0, BuildingBlock: BEQFEK_clean_sbu_0, # of connection points: 5
#     Node 26, Type 0, BuildingBlock: BEQFEK_clean_sbu_0, # of connection points: 5
#     Node 27, Type 0, BuildingBlock: BEQFEK_clean_sbu_0, # of connection points: 5
#     Node 28, Type 0, BuildingBlock: BEQFEK_clean_sbu_0, # of connection points: 5
#     Node 29, Type 0, BuildingBlock: BEQFEK_clean_sbu_0, # of connection points: 5
#     Node 30, Type 0, BuildingBlock: BEQFEK_clean_sbu_0, # of connection points: 5
#     Node 31, Type 0, BuildingBlock: BEQFEK_clean_sbu_0, # of connection points: 5
#     Node 32, Type 0, BuildingBlock: BEQFEK_clean_sbu_0, # of connection points: 5
#     Node 33, Type 0, BuildingBlock: BEQFEK_clean_sbu_0, # of connection points: 5
#     Node 34, Type 0, BuildingBlock: BEQFEK_clean_sbu_0, # of connection points: 5
#     Node 35, Type 0, BuildingBlock: BEQFEK_clean_sbu_0, # of connection points: 5
#     Node 36, Type 0, BuildingBlock: BEQFEK_clean_sbu_0, # of connection points: 5
#     Node 37, Type 0, BuildingBlock: BEQFEK_clean_sbu_0, # of connection points: 5
#     Node 38, Type 0, BuildingBlock: BEQFEK_clean_sbu_0, # of connection points: 5
#     Node 39, Type 0, BuildingBlock: BEQFEK_clean_sbu_0, # of connection points: 5
#     Node 40, Type 0, BuildingBlock: BEQFEK_clean_sbu_0, # of connection points: 5
#     Node 41, Type 0, BuildingBlock: BEQFEK_clean_sbu_0, # of connection points: 5
#     Node 42, Type 0, BuildingBlock: BEQFEK_clean_sbu_0, # of connection points: 5
#     Node 43, Type 0, BuildingBlock: BEQFEK_clean_sbu_0, # of connection points: 5
#     Node 44, Type 0, BuildingBlock: BEQFEK_clean_sbu_0, # of connection points: 5
#     Node 45, Type 0, BuildingBlock: BEQFEK_clean_sbu_0, # of connection points: 5
#     Node 46, Type 0, BuildingBlock: BEQFEK_clean_sbu_0, # of connection points: 5
#     Node 47, Type 0, BuildingBlock: BEQFEK_clean_sbu_0, # of connection points: 5
#     Edge 48, Type (0, 0), BuildingBlock: XIVTED_clean_linker_0, # of connection points: 2
#     Edge 49, Type (0, 0), BuildingBlock: XIVTED_clean_linker_0, # of connection points: 2
#     Edge 50, Type (0, 0), BuildingBlock: XIVTED_clean_linker_0, # of connection points: 2
#     Edge 51, Type (0, 0), BuildingBlock: XIVTED_clean_linker_0, # of connection points: 2
#     Edge 52, Type (0, 0), BuildingBlock: XIVTED_clean_linker_0, # of connection points: 2
#     Edge 53, Type (0, 0), BuildingBlock: XIVTED_clean_linker_0, # of connection points: 2
#     Edge 54, Type (0, 0), BuildingBlock: XIVTED_clean_linker_0, # of connection points: 2
#     Edge 55, Type (0, 0), BuildingBlock: XIVTED_clean_linker_0, # of connection points: 2
#     Edge 56, Type (0, 0), BuildingBlock: XIVTED_clean_linker_0, # of connection points: 2
#     Edge 57, Type (0, 0), BuildingBlock: XIVTED_clean_linker_0, # of connection points: 2
#     Edge 58, Type (0, 0), BuildingBlock: XIVTED_clean_linker_0, # of connection points: 2
#     Edge 59, Type (0, 0), BuildingBlock: XIVTED_clean_linker_0, # of connection points: 2
#     Edge 60, Type (0, 0), BuildingBlock: XIVTED_clean_linker_0, # of connection points: 2
#     Edge 61, Type (0, 0), BuildingBlock: XIVTED_clean_linker_0, # of connection points: 2
#     Edge 62, Type (0, 0), BuildingBlock: XIVTED_clean_linker_0, # of connection points: 2
#     Edge 63, Type (0, 0), BuildingBlock: XIVTED_clean_linker_0, # of connection points: 2
#     Edge 64, Type (0, 0), BuildingBlock: XIVTED_clean_linker_0, # of connection points: 2
#     Edge 65, Type (0, 0), BuildingBlock: XIVTED_clean_linker_0, # of connection points: 2
#     Edge 66, Type (0, 0), BuildingBlock: XIVTED_clean_linker_0, # of connection points: 2
#     Edge 67, Type (0, 0), BuildingBlock: XIVTED_clean_linker_0, # of connection points: 2
#     Edge 68, Type (0, 0), BuildingBlock: XIVTED_clean_linker_0, # of connection points: 2
#     Edge 69, Type (0, 0), BuildingBlock: XIVTED_clean_linker_0, # of connection points: 2
#     Edge 70, Type (0, 0), BuildingBlock: XIVTED_clean_linker_0, # of connection points: 2
#     Edge 71, Type (0, 0), BuildingBlock: XIVTED_clean_linker_0, # of connection points: 2
#     Edge 72, Type (0, 0), BuildingBlock: XIVTED_clean_linker_0, # of connection points: 2
#     Edge 73, Type (0, 0), BuildingBlock: XIVTED_clean_linker_0, # of connection points: 2
#     Edge 74, Type (0, 0), BuildingBlock: XIVTED_clean_linker_0, # of connection points: 2
#     Edge 75, Type (0, 0), BuildingBlock: XIVTED_clean_linker_0, # of connection points: 2
#     Edge 76, Type (0, 0), BuildingBlock: XIVTED_clean_linker_0, # of connection points: 2
#     Edge 77, Type (0, 0), BuildingBlock: XIVTED_clean_linker_0, # of connection points: 2
#     Edge 78, Type (0, 0), BuildingBlock: XIVTED_clean_linker_0, # of connection points: 2
#     Edge 79, Type (0, 0), BuildingBlock: XIVTED_clean_linker_0, # of connection points: 2
#     Edge 80, Type (0, 0), BuildingBlock: XIVTED_clean_linker_0, # of connection points: 2
#     Edge 81, Type (0, 0), BuildingBlock: XIVTED_clean_linker_0, # of connection points: 2
#     Edge 82, Type (0, 0), BuildingBlock: XIVTED_clean_linker_0, # of connection points: 2
#     Edge 83, Type (0, 0), BuildingBlock: XIVTED_clean_linker_0, # of connection points: 2
#     Edge 84, Type (0, 0), BuildingBlock: XIVTED_clean_linker_0, # of connection points: 2
#     Edge 85, Type (0, 0), BuildingBlock: XIVTED_clean_linker_0, # of connection points: 2
#     Edge 86, Type (0, 0), BuildingBlock: XIVTED_clean_linker_0, # of connection points: 2
#     Edge 87, Type (0, 0), BuildingBlock: XIVTED_clean_linker_0, # of connection points: 2
#     Edge 88, Type (0, 0), BuildingBlock: XIVTED_clean_linker_0, # of connection points: 2
#     Edge 89, Type (0, 0), BuildingBlock: XIVTED_clean_linker_0, # of connection points: 2
#     Edge 90, Type (0, 0), BuildingBlock: XIVTED_clean_linker_0, # of connection points: 2
#     Edge 91, Type (0, 0), BuildingBlock: XIVTED_clean_linker_0, # of connection points: 2
#     Edge 92, Type (0, 0), BuildingBlock: XIVTED_clean_linker_0, # of connection points: 2
#     Edge 93, Type (0, 0), BuildingBlock: XIVTED_clean_linker_0, # of connection points: 2
#     Edge 94, Type (0, 0), BuildingBlock: XIVTED_clean_linker_0, # of connection points: 2
#     Edge 95, Type (0, 0), BuildingBlock: XIVTED_clean_linker_0, # of connection points: 2
#     Edge 96, Type (0, 0), BuildingBlock: XIVTED_clean_linker_0, # of connection points: 2
#     Edge 97, Type (0, 0), BuildingBlock: XIVTED_clean_linker_0, # of connection points: 2
#     Edge 98, Type (0, 0), BuildingBlock: XIVTED_clean_linker_0, # of connection points: 2
#     Edge 99, Type (0, 0), BuildingBlock: XIVTED_clean_linker_0, # of connection points: 2
#     Edge 100, Type (0, 0), BuildingBlock: XIVTED_clean_linker_0, # of connection points: 2
#     Edge 101, Type (0, 0), BuildingBlock: XIVTED_clean_linker_0, # of connection points: 2
#     Edge 102, Type (0, 0), BuildingBlock: XIVTED_clean_linker_0, # of connection points: 2
#     Edge 103, Type (0, 0), BuildingBlock: XIVTED_clean_linker_0, # of connection points: 2
#     Edge 104, Type (0, 0), BuildingBlock: XIVTED_clean_linker_0, # of connection points: 2
#     Edge 105, Type (0, 0), BuildingBlock: XIVTED_clean_linker_0, # of connection points: 2
#     Edge 106, Type (0, 0), BuildingBlock: XIVTED_clean_linker_0, # of connection points: 2
#     Edge 107, Type (0, 0), BuildingBlock: XIVTED_clean_linker_0, # of connection points: 2
#     Edge 108, Type (0, 0), BuildingBlock: XIVTED_clean_linker_0, # of connection points: 2
#     Edge 109, Type (0, 0), BuildingBlock: XIVTED_clean_linker_0, # of connection points: 2
#     Edge 110, Type (0, 0), BuildingBlock: XIVTED_clean_linker_0, # of connection points: 2
#     Edge 111, Type (0, 0), BuildingBlock: XIVTED_clean_linker_0, # of connection points: 2
#     Edge 112, Type (0, 0), BuildingBlock: XIVTED_clean_linker_0, # of connection points: 2
#     Edge 113, Type (0, 0), BuildingBlock: XIVTED_clean_linker_0, # of connection points: 2
#     Edge 114, Type (0, 0), BuildingBlock: XIVTED_clean_linker_0, # of connection points: 2
#     Edge 115, Type (0, 0), BuildingBlock: XIVTED_clean_linker_0, # of connection points: 2
#     Edge 116, Type (0, 0), BuildingBlock: XIVTED_clean_linker_0, # of connection points: 2
#     Edge 117, Type (0, 0), BuildingBlock: XIVTED_clean_linker_0, # of connection points: 2
#     Edge 118, Type (0, 0), BuildingBlock: XIVTED_clean_linker_0, # of connection points: 2
#     Edge 119, Type (0, 0), BuildingBlock: XIVTED_clean_linker_0, # of connection points: 2
#     Edge 120, Type (0, 0), BuildingBlock: XIVTED_clean_linker_0, # of connection points: 2
#     Edge 121, Type (0, 0), BuildingBlock: XIVTED_clean_linker_0, # of connection points: 2
#     Edge 122, Type (0, 0), BuildingBlock: XIVTED_clean_linker_0, # of connection points: 2
#     Edge 123, Type (0, 0), BuildingBlock: XIVTED_clean_linker_0, # of connection points: 2
#     Edge 124, Type (0, 0), BuildingBlock: XIVTED_clean_linker_0, # of connection points: 2
#     Edge 125, Type (0, 0), BuildingBlock: XIVTED_clean_linker_0, # of connection points: 2
#     Edge 126, Type (0, 0), BuildingBlock: XIVTED_clean_linker_0, # of connection points: 2
#     Edge 127, Type (0, 0), BuildingBlock: XIVTED_clean_linker_0, # of connection points: 2
#     Edge 128, Type (0, 0), BuildingBlock: XIVTED_clean_linker_0, # of connection points: 2
#     Edge 129, Type (0, 0), BuildingBlock: XIVTED_clean_linker_0, # of connection points: 2
#     Edge 130, Type (0, 0), BuildingBlock: XIVTED_clean_linker_0, # of connection points: 2
#     Edge 131, Type (0, 0), BuildingBlock: XIVTED_clean_linker_0, # of connection points: 2
#     Edge 132, Type (0, 0), BuildingBlock: XIVTED_clean_linker_0, # of connection points: 2
#     Edge 133, Type (0, 0), BuildingBlock: XIVTED_clean_linker_0, # of connection points: 2
#     Edge 134, Type (0, 0), BuildingBlock: XIVTED_clean_linker_0, # of connection points: 2
#     Edge 135, Type (0, 0), BuildingBlock: XIVTED_clean_linker_0, # of connection points: 2
#     Edge 136, Type (0, 0), BuildingBlock: XIVTED_clean_linker_0, # of connection points: 2
#     Edge 137, Type (0, 0), BuildingBlock: XIVTED_clean_linker_0, # of connection points: 2
#     Edge 138, Type (0, 0), BuildingBlock: XIVTED_clean_linker_0, # of connection points: 2
#     Edge 139, Type (0, 0), BuildingBlock: XIVTED_clean_linker_0, # of connection points: 2
#     Edge 140, Type (0, 0), BuildingBlock: XIVTED_clean_linker_0, # of connection points: 2
#     Edge 141, Type (0, 0), BuildingBlock: XIVTED_clean_linker_0, # of connection points: 2
#     Edge 142, Type (0, 0), BuildingBlock: XIVTED_clean_linker_0, # of connection points: 2
#     Edge 143, Type (0, 0), BuildingBlock: XIVTED_clean_linker_0, # of connection points: 2
#     Edge 144, Type (0, 0), BuildingBlock: XIVTED_clean_linker_0, # of connection points: 2
#     Edge 145, Type (0, 0), BuildingBlock: XIVTED_clean_linker_0, # of connection points: 2
#     Edge 146, Type (0, 0), BuildingBlock: XIVTED_clean_linker_0, # of connection points: 2
#     Edge 147, Type (0, 0), BuildingBlock: XIVTED_clean_linker_0, # of connection points: 2
#     Edge 148, Type (0, 0), BuildingBlock: XIVTED_clean_linker_0, # of connection points: 2
#     Edge 149, Type (0, 0), BuildingBlock: XIVTED_clean_linker_0, # of connection points: 2
#     Edge 150, Type (0, 0), BuildingBlock: XIVTED_clean_linker_0, # of connection points: 2
#     Edge 151, Type (0, 0), BuildingBlock: XIVTED_clean_linker_0, # of connection points: 2
#     Edge 152, Type (0, 0), BuildingBlock: XIVTED_clean_linker_0, # of connection points: 2
#     Edge 153, Type (0, 0), BuildingBlock: XIVTED_clean_linker_0, # of connection points: 2
#     Edge 154, Type (0, 0), BuildingBlock: XIVTED_clean_linker_0, # of connection points: 2
#     Edge 155, Type (0, 0), BuildingBlock: XIVTED_clean_linker_0, # of connection points: 2
#     Edge 156, Type (0, 0), BuildingBlock: XIVTED_clean_linker_0, # of connection points: 2
#     Edge 157, Type (0, 0), BuildingBlock: XIVTED_clean_linker_0, # of connection points: 2
#     Edge 158, Type (0, 0), BuildingBlock: XIVTED_clean_linker_0, # of connection points: 2
#     Edge 159, Type (0, 0), BuildingBlock: XIVTED_clean_linker_0, # of connection points: 2
#     Edge 160, Type (0, 0), BuildingBlock: XIVTED_clean_linker_0, # of connection points: 2
#     Edge 161, Type (0, 0), BuildingBlock: XIVTED_clean_linker_0, # of connection points: 2
#     Edge 162, Type (0, 0), BuildingBlock: XIVTED_clean_linker_0, # of connection points: 2
#     Edge 163, Type (0, 0), BuildingBlock: XIVTED_clean_linker_0, # of connection points: 2
#     Edge 164, Type (0, 0), BuildingBlock: XIVTED_clean_linker_0, # of connection points: 2
#     Edge 165, Type (0, 0), BuildingBlock: XIVTED_clean_linker_0, # of connection points: 2
#     Edge 166, Type (0, 0), BuildingBlock: XIVTED_clean_linker_0, # of connection points: 2
#     Edge 167, Type (0, 0), BuildingBlock: XIVTED_clean_linker_0, # of connection points: 2
# Relax obj value: 0.470
# Max RMSD: 0.213
# Mean RMSD: 0.213
data_MOF--net-fcm--node1-BEQFEK_clean_sbu_0--edge1-XIVTED_clean_linker_0
_symmetry_space_group_name_H-M    P1
_symmetry_Int_Tables_number       1
_symmetry_cell_setting            triclinic
loop_
_symmetry_equiv_pos_as_xyz
'x, y, z'
_cell_length_a     70.756153
_cell_length_b     70.727895
_cell_length_c     70.733536
_cell_angle_alpha  89.969063
_cell_angle_beta   89.962543
_cell_angle_gamma 89.996071
loop_
_atom_site_label
_atom_site_type_symbol
_atom_site_fract_x
_atom_site_fract_y
_atom_site_fract_z
_atom_type_partial_charge
Co0 Co 0.01703 0.05545 0.32498 0.0
Co1 Co 0.98283 0.03318 0.34221 0.0
C2 C -0.00266 0.02546 0.30306 0.0
O3 O 0.00962 0.03841 0.3047 0.0
O4 O 0.98633 0.0211 0.31667 0.0
C5 C 0.04962 0.06429 0.30269 0.0
O6 O 0.04056 0.05533 0.2892 0.0
C7 C 0.96796 0.00034 0.36155 0.0
C8 C 0.94307 0.01172 0.37658 0.0
C9 C 0.95427 -0.00428 0.37483 0.0
N10 N 0.96533 0.01836 0.35622 0.0
N11 N 0.95021 0.02501 0.36494 0.0
C12 C 0.98342 0.98802 0.35393 0.0
H13 H 0.9861 0.99146 0.33888 0.0
H14 H -0.00331 0.9907 0.3618 0.0
H15 H 0.97967 0.97284 0.35525 0.0
C16 C 0.03524 0.04268 0.35971 0.0
N17 N 0.02037 0.04263 0.34792 0.0
N18 N 0.00577 0.03481 0.35634 0.0
C19 C 0.01077 0.03043 0.37429 0.0
C20 C 0.02964 0.03515 0.37685 0.0
C21 C 0.05442 0.05008 0.35472 0.0
H22 H 0.05397 0.06576 0.35446 0.0
H23 H 0.05851 0.04491 0.3405 0.0
H24 H 0.06528 0.04544 0.36503 0.0
O25 O -0.00279 0.07462 0.32728 0.0
O26 O 0.97221 0.05885 0.3381 0.0
H27 H 0.00222 0.02984 0.40358 0.0
H28 H -0.00357 0.00914 0.39025 0.0
C29 C -0.00272 0.02475 0.38959 0.0
H30 H 0.98304 0.03061 0.38679 0.0
H31 H 0.94535 0.03888 0.3637 0.0
O32 O 0.04133 0.06736 0.3183 0.0
C33 C 0.97986 0.07406 0.33212 0.0
Co34 Co 0.1845 0.77094 0.58185 0.0
Co35 Co 0.20791 0.73695 0.59824 0.0
C36 C 0.21651 0.75187 0.56036 0.0
O37 O 0.20292 0.76341 0.56232 0.0
O38 O 0.22112 0.74059 0.5736 0.0
C39 C 0.19114 0.8072 0.57186 0.0
O40 O 0.20794 0.79938 0.57292 0.0
C41 C 0.23943 0.71737 0.61575 0.0
C42 C 0.22505 0.69774 0.63534 0.0
C43 C 0.24267 0.70483 0.6305 0.0
N44 N 0.22075 0.7182 0.61259 0.0
N45 N 0.21225 0.70605 0.62396 0.0
C46 C 0.25365 0.72874 0.60491 0.0
H47 H 0.25122 0.72678 0.58956 0.0
H48 H 0.25176 0.74399 0.60803 0.0
H49 H 0.26834 0.72437 0.60823 0.0
C50 C 0.19266 0.78658 0.61921 0.0
N51 N 0.19511 0.77303 0.6061 0.0
N52 N 0.2057 0.75945 0.61309 0.0
C53 C 0.21056 0.76421 0.63099 0.0
C54 C 0.2026 0.78165 0.63527 0.0
C55 C 0.17895 0.80264 0.61747 0.0
H56 H 0.16692 0.79861 0.60829 0.0
H57 H 0.18629 0.81504 0.6113 0.0
H58 H 0.17334 0.80682 0.63152 0.0
O59 O 0.1645 0.75151 0.5822 0.0
O60 O 0.18227 0.72739 0.59221 0.0
H61 H 0.2149 0.7385 0.64631 0.0
H62 H 0.22461 0.75915 0.65778 0.0
C63 C 0.22215 0.75219 0.64396 0.0
H64 H 0.23603 0.74943 0.63736 0.0
H65 H 0.19763 0.70433 0.62479 0.0
O66 O 0.17663 0.79685 0.57446 0.0
C67 C 0.16655 0.73404 0.58635 0.0
Co68 Co 0.47833 0.9286 0.83351 0.0
Co69 Co 0.50871 0.95451 0.85246 0.0
C70 C 0.49901 0.96026 0.81289 0.0
O71 O 0.48888 0.94549 0.81394 0.0
O72 O 0.50682 0.96732 0.82747 0.0
C73 C 0.44444 0.93172 0.81488 0.0
O74 O 0.45153 0.94881 0.81337 0.0
C75 C 0.52576 0.98682 0.87161 0.0
C76 C 0.54576 0.97284 0.89112 0.0
C77 C 0.53832 0.99034 0.88631 0.0
N78 N 0.52565 0.96815 0.8682 0.0
N79 N 0.53791 0.95991 0.87961 0.0
C80 C 0.51242 0.0004 0.86233 0.0
H81 H 0.50064 0.99269 0.85542 0.0
H82 H 0.50661 0.01052 0.87281 0.0
H83 H 0.52016 0.00851 0.85135 0.0
C84 C 0.45706 0.93916 0.86745 0.0
N85 N 0.47234 0.94104 0.85627 0.0
N86 N 0.48484 0.95193 0.86465 0.0
C87 C 0.4778 0.95734 0.88159 0.0
C88 C 0.4599 0.94956 0.88374 0.0
C89 C 0.44118 0.92566 0.86376 0.0
H90 H 0.44663 0.91263 0.85698 0.0
H91 H 0.43086 0.93247 0.85413 0.0
H92 H 0.43375 0.9217 0.877 0.0
O93 O 0.49762 0.90928 0.83821 0.0
O94 O 0.52 0.92909 0.84819 0.0
H95 H 0.5022 0.96282 0.89864 0.0
H96 H 0.48026 0.97067 0.90914 0.0
C97 C 0.48819 0.96917 0.89571 0.0
H98 H 0.49033 0.98349 0.88982 0.0
H99 H 0.54023 0.94535 0.88018 0.0
O100 O 0.45423 0.91891 0.82285 0.0
C101 C 0.51459 0.91259 0.84332 0.0
Co102 Co 0.30721 0.22378 0.08176 0.0
Co103 Co 0.28447 0.25719 0.10035 0.0
C104 C 0.27604 0.24344 0.0612 0.0
O105 O 0.28927 0.23138 0.06227 0.0
O106 O 0.27181 0.25404 0.07514 0.0
C107 C 0.31545 0.19174 0.05836 0.0
O108 O 0.30567 0.20102 0.0456 0.0
C109 C 0.25167 0.27069 0.12071 0.0
C110 C 0.26291 0.29484 0.13698 0.0
C111 C 0.24707 0.28348 0.13488 0.0
N112 N 0.26956 0.27391 0.11526 0.0
N113 N 0.2761 0.28862 0.12472 0.0
C114 C 0.23951 0.25544 0.11247 0.0
H115 H 0.24257 0.25381 0.0972 0.0
H116 H 0.24274 0.24176 0.11942 0.0
H117 H 0.22429 0.25872 0.1144 0.0
C118 C 0.29617 0.20475 0.1167 0.0
N119 N 0.29534 0.21977 0.10508 0.0
N120 N 0.28717 0.23397 0.11385 0.0
C121 C 0.28323 0.22855 0.13177 0.0
C122 C 0.28866 0.20984 0.13398 0.0
C123 C 0.3042 0.18592 0.11135 0.0
H124 H 0.31979 0.18711 0.11024 0.0
H125 H 0.29851 0.18158 0.09741 0.0
H126 H 0.30062 0.17485 0.12187 0.0
O127 O 0.32594 0.24416 0.08378 0.0
O128 O 0.30973 0.26847 0.09557 0.0
H129 H 0.28305 0.2559 0.145 0.0
H130 H 0.28221 0.2363 0.16128 0.0
C131 C 0.27725 0.24156 0.14735 0.0
H132 H 0.26163 0.24228 0.14784 0.0
H133 H 0.28989 0.29374 0.12358 0.0
O134 O 0.31916 0.19967 0.07403 0.0
C135 C 0.32496 0.26141 0.08894 0.0
Co136 Co 0.00862 0.92973 0.15444 0.0
Co137 Co 0.97596 0.95583 0.13956 0.0
C138 C 0.99403 0.96393 0.1759 0.0
O139 O 0.00371 0.94898 0.17391 0.0
O140 O 0.98318 0.96976 0.16283 0.0
C141 C 0.04593 0.93315 0.16129 0.0
O142 O 0.0402 0.9503 0.15702 0.0
C143 C 0.95976 0.98892 0.12165 0.0
C144 C 0.9355 0.97719 0.10593 0.0
C145 C 0.94611 0.9935 0.10833 0.0
N146 N 0.95778 0.97063 0.12629 0.0
N147 N 0.94294 0.96379 0.11725 0.0
C148 C 0.97465 0.00153 0.12991 0.0
H149 H 0.97433 0.00037 0.14553 0.0
H150 H 0.98883 -0.00319 0.12515 0.0
H151 H 0.97241 0.01655 0.12603 0.0
C152 C 0.02218 0.93504 0.1154 0.0
N153 N 0.00998 0.93909 0.12947 0.0
N154 N -0.00329 0.95045 0.12308 0.0
C155 C 0.00034 0.95423 0.10468 0.0
C156 C 0.01659 0.94469 0.09933 0.0
C157 C 0.03884 0.92209 0.11731 0.0
H158 H 0.03566 0.9106 0.12746 0.0
H159 H 0.05114 0.93032 0.12244 0.0
H160 H 0.04292 0.91567 0.10365 0.0
O161 O 0.98746 0.91185 0.15615 0.0
O162 O 0.96416 0.93166 0.14806 0.0
H163 H 0.99188 0.96346 0.07674 0.0
H164 H 0.98853 0.98038 0.09538 0.0
C165 C 0.9877 0.9652 0.09176 0.0
H166 H 0.97293 0.96033 0.09342 0.0
H167 H 0.93861 0.9497 0.11791 0.0
O168 O 0.03385 0.91981 0.16158 0.0
C169 C 0.96994 0.91553 0.15381 0.0
Co170 Co 0.30392 0.76279 0.40861 0.0
Co171 Co 0.27944 0.72922 0.39311 0.0
C172 C 0.26992 0.74746 0.42952 0.0
O173 O 0.28394 0.75843 0.4274 0.0
O174 O 0.26579 0.73514 0.41711 0.0
C175 C 0.30136 0.80024 0.41612 0.0
O176 O 0.28388 0.79516 0.41245 0.0
C177 C 0.2471 0.71301 0.37394 0.0
C178 C 0.25986 0.68936 0.35805 0.0
C179 C 0.24337 0.69981 0.35988 0.0
N180 N 0.26515 0.71101 0.37941 0.0
N181 N 0.27256 0.69647 0.37031 0.0
C182 C 0.23403 0.72761 0.38198 0.0
H183 H 0.23559 0.72803 0.39757 0.0
H184 H 0.23789 0.74179 0.37651 0.0
H185 H 0.21907 0.72446 0.3785 0.0
C186 C 0.29844 0.77692 0.36984 0.0
N187 N 0.29473 0.76435 0.38369 0.0
N188 N 0.28401 0.75069 0.377 0.0
C189 C 0.28041 0.75443 0.35857 0.0
C190 C 0.28925 0.77118 0.35363 0.0
C191 C 0.31099 0.79386 0.37189 0.0
H192 H 0.32279 0.79074 0.38169 0.0
H193 H 0.30256 0.80583 0.37747 0.0
H194 H 0.317 0.79841 0.35817 0.0
O195 O 0.32219 0.74177 0.41014 0.0
O196 O 0.30402 0.71788 0.40028 0.0
H197 H 0.27321 0.74561 0.33018 0.0
H198 H 0.25538 0.74166 0.34775 0.0
C199 C 0.27075 0.74134 0.34508 0.0
H200 H 0.27609 0.72678 0.34704 0.0
H201 H 0.28665 0.69228 0.37147 0.0
O202 O 0.31428 0.78772 0.4158 0.0
C203 C 0.31969 0.72426 0.40653 0.0
Co204 Co 0.46812 0.04892 0.664 0.0
Co205 Co 0.50539 0.03103 0.64821 0.0
C206 C 0.48962 0.01898 0.68517 0.0
O207 O 0.47623 0.03073 0.68323 0.0
O208 O 0.5019 0.01665 0.67224 0.0
C209 C 0.43077 0.04164 0.67156 0.0
O210 O 0.4373 0.02467 0.66772 0.0
C211 C 0.52671 0.00134 0.63051 0.0
C212 C 0.54937 0.01658 0.61533 0.0
C213 C 0.54147 -0.0012 0.61784 0.0
N214 N 0.52582 0.0197 0.63506 0.0
N215 N 0.53966 0.02873 0.62634 0.0
C216 C 0.51184 0.98729 0.63605 0.0
H217 H 0.49902 0.99459 0.64136 0.0
H218 H 0.50799 0.97818 0.62389 0.0
H219 H 0.51743 0.97813 0.6475 0.0
C220 C 0.45556 0.04163 0.62504 0.0
N221 N 0.46825 0.03949 0.63907 0.0
N222 N 0.48366 0.03158 0.63227 0.0
C223 C 0.48107 0.02818 0.61363 0.0
C224 C 0.46321 0.03438 0.6086 0.0
C225 C 0.43688 0.05143 0.62707 0.0
H226 H 0.43822 0.06373 0.63667 0.0
H227 H 0.42647 0.04135 0.63302 0.0
H228 H 0.43123 0.05635 0.61334 0.0
O229 O 0.48558 0.07035 0.66569 0.0
O230 O 0.51227 0.05728 0.65509 0.0
H231 H 0.50925 0.0297 0.60264 0.0
H232 H 0.4917 0.02345 0.58529 0.0
C233 C 0.49608 0.02161 0.60024 0.0
H234 H 0.49892 0.00641 0.60268 0.0
H235 H 0.54174 0.04332 0.62698 0.0
O236 O 0.44206 0.05562 0.67118 0.0
C237 C 0.50317 0.07133 0.66183 0.0
Co238 Co 0.18149 0.22661 0.91411 0.0
Co239 Co 0.20724 0.25766 0.89535 0.0
C240 C 0.21466 0.24409 0.93429 0.0
O241 O 0.20009 0.23366 0.93341 0.0
O242 O 0.22022 0.25365 0.92008 0.0
C243 C 0.17337 0.19485 0.93793 0.0
O244 O 0.18378 0.20401 0.95025 0.0
C245 C 0.24022 0.27023 0.87452 0.0
C246 C 0.22928 0.29476 0.85857 0.0
C247 C 0.2449 0.28306 0.86042 0.0
N248 N 0.22246 0.27377 0.88018 0.0
N249 N 0.21611 0.28869 0.87091 0.0
C250 C 0.25224 0.25479 0.88263 0.0
H251 H 0.24946 0.25334 0.89798 0.0
H252 H 0.24859 0.24113 0.87588 0.0
H253 H 0.26748 0.25773 0.88037 0.0
C254 C 0.19079 0.20659 0.87897 0.0
N255 N 0.19292 0.2215 0.8906 0.0
N256 N 0.20255 0.2348 0.88189 0.0
C257 C 0.20616 0.22901 0.86404 0.0
C258 C 0.19902 0.21089 0.86175 0.0
C259 C 0.18115 0.18855 0.88437 0.0
H260 H 0.16582 0.19124 0.88627 0.0
H261 H 0.18701 0.18342 0.89797 0.0
H262 H 0.18317 0.17735 0.87359 0.0
O263 O 0.1638 0.24813 0.91184 0.0
O264 O 0.18311 0.27054 0.90086 0.0
H265 H 0.20874 0.25615 0.8506 0.0
H266 H 0.20856 0.23647 0.83449 0.0
C267 C 0.21353 0.24141 0.84852 0.0
H268 H 0.22917 0.24098 0.84846 0.0
H269 H 0.20247 0.29412 0.87229 0.0
O270 O 0.16885 0.20297 0.92254 0.0
C271 C 0.16701 0.26522 0.907 0.0
Co272 Co 0.32949 0.01409 0.05689 0.0
Co273 Co 0.34336 0.98017 0.03187 0.0
C274 C 0.30592 -0.00316 0.02541 0.0
O275 O 0.309 0.00762 0.03938 0.0
O276 O 0.31849 0.98537 0.01959 0.0
C277 C 0.31844 0.05063 0.05242 0.0
O278 O 0.31817 0.04364 0.03523 0.0
C279 C 0.36043 0.96221 -0.00071 0.0
C280 C 0.37503 0.93768 0.01197 0.0
C281 C 0.37287 0.94758 0.99516 0.0
N282 N 0.35585 0.96116 0.01767 0.0
N283 N 0.3642 0.94619 0.02509 0.0
C284 C 0.35481 0.97843 0.98687 0.0
H285 H 0.34929 0.99033 0.99547 0.0
H286 H 0.36695 0.98334 0.97824 0.0
H287 H 0.34348 0.97369 0.97711 0.0
C288 C 0.367 0.02864 0.04734 0.0
N289 N 0.35325 0.01571 0.04505 0.0
N290 N 0.35948 0.00179 0.03439 0.0
C291 C 0.37763 0.00557 0.02957 0.0
C292 C 0.38279 0.02272 0.03752 0.0
C293 C 0.36522 0.04605 0.05929 0.0
H294 H 0.35793 0.0426 0.07273 0.0
H295 H 0.35679 0.05671 0.05153 0.0
H296 H 0.37909 0.05252 0.06252 0.0
O297 O 0.33007 0.994 0.07627 0.0
O298 O 0.33788 0.96999 0.05733 0.0
H299 H 0.38863 0.97763 0.02532 0.0
H300 H 0.40572 -0.00378 0.02192 0.0
C301 C 0.39073 0.99213 0.01981 0.0
H302 H 0.3878 0.99227 0.00445 0.0
H303 H 0.36344 0.9425 0.03936 0.0
O304 O 0.32285 0.03979 0.06611 0.0
C305 C 0.33317 0.97642 0.07351 0.0
Co306 Co 0.22547 0.07553 0.30987 0.0
Co307 Co 0.25627 0.09294 0.28355 0.0
C308 C 0.24405 0.05418 0.27736 0.0
O309 O 0.23436 0.05555 0.29241 0.0
O310 O 0.25263 0.06841 0.27049 0.0
C311 C 0.19041 0.06171 0.30492 0.0
O312 O 0.19794 0.06204 0.28795 0.0
C313 C 0.27377 0.11065 0.25095 0.0
C314 C 0.29372 0.13069 0.2642 0.0
C315 C 0.28611 0.12534 0.24697 0.0
N316 N 0.27367 0.10785 0.2697 0.0
N317 N 0.28596 0.11953 0.27753 0.0
C318 C 0.26216 0.0993 0.23736 0.0
H319 H 0.26617 0.08419 0.23864 0.0
H320 H 0.24698 0.10033 0.24112 0.0
H321 H 0.2644 0.10379 0.22251 0.0
C322 C 0.2064 0.11124 0.30062 0.0
N323 N 0.22079 0.09904 0.29815 0.0
N324 N 0.23331 0.10654 0.28666 0.0
C325 C 0.2271 0.12381 0.28127 0.0
C326 C 0.20974 0.12718 0.28982 0.0
C327 C 0.191 0.10886 0.31497 0.0
H328 H 0.19611 0.1005 0.32719 0.0
H329 H 0.17892 0.10144 0.3083 0.0
H330 H 0.1859 0.12276 0.32015 0.0
O331 O 0.24532 0.0785 0.32897 0.0
O332 O 0.26766 0.08776 0.3087 0.0
H333 H 0.25163 0.1403 0.27484 0.0
H334 H 0.22983 0.15032 0.26602 0.0
C335 C 0.23768 0.137 0.26855 0.0
H336 H 0.23998 0.13006 0.25474 0.0
H337 H 0.28826 0.1206 0.29206 0.0
O338 O 0.2006 0.06641 0.31899 0.0
C339 C 0.26244 0.08284 0.32526 0.0
Co340 Co 0.16362 0.97813 0.55703 0.0
Co341 Co 0.14841 0.00787 0.52805 0.0
C342 C 0.18718 0.99182 0.5244 0.0
O343 O 0.18488 0.98258 0.53964 0.0
O344 O 0.17387 0.0017 0.51733 0.0
C345 C 0.18591 0.9481 0.57259 0.0
O346 O 0.20015 0.95727 0.56498 0.0
C347 C 0.13022 0.01998 0.49315 0.0
C348 C 0.1162 0.04643 0.5021 0.0
C349 C 0.11772 0.03387 0.48715 0.0
N350 N 0.13532 0.02388 0.511 0.0
N351 N 0.12721 0.0399 0.51616 0.0
C352 C 0.13755 0.00341 0.48219 0.0
H353 H 0.15247 0.00062 0.48608 0.0
H354 H 0.1293 0.99058 0.48575 0.0
H355 H 0.13654 0.00602 0.46674 0.0
C356 C 0.12912 0.95823 0.54545 0.0
N357 N 0.14114 0.97287 0.54378 0.0
N358 N 0.13356 0.98591 0.53292 0.0
C359 C 0.11592 0.9803 0.52812 0.0
C360 C 0.11269 0.9625 0.53574 0.0
C361 C 0.13349 0.94037 0.55592 0.0
H362 H 0.133 0.94318 0.57135 0.0
H363 H 0.1479 0.93551 0.55216 0.0
H364 H 0.12336 0.92892 0.55245 0.0
O365 O 0.16041 0.00072 0.57312 0.0
O366 O 0.15215 0.02222 0.55165 0.0
H367 H 0.104 0.00774 0.52251 0.0
H368 H 0.08694 0.98889 0.52412 0.0
C369 C 0.10132 0.99271 0.51911 0.0
H370 H 0.1016 0.99074 0.50359 0.0
H371 H 0.12848 0.04589 0.52957 0.0
O372 O 0.1696 0.9556 0.57243 0.0
C373 C 0.15637 0.01768 0.56855 0.0
Co374 Co 0.26795 0.9113 0.8043 0.0
Co375 Co 0.2314 0.89394 0.78594 0.0
C376 C 0.2459 0.93183 0.77451 0.0
O377 O 0.25909 0.9306 0.78657 0.0
O378 O 0.23441 0.91826 0.77179 0.0
C379 C 0.30416 0.92735 0.80098 0.0
O380 O 0.297 0.93277 0.78473 0.0
C381 C 0.21304 0.87503 0.75511 0.0
C382 C 0.18982 0.8592 0.76874 0.0
C383 C 0.19903 0.86177 0.75159 0.0
N384 N 0.21225 0.87989 0.77341 0.0
N385 N 0.19809 0.87074 0.78145 0.0
C386 C 0.22877 0.88094 0.74219 0.0
H387 H 0.24066 0.88708 0.75035 0.0
H388 H 0.23394 0.86873 0.73381 0.0
H389 H 0.22346 0.89186 0.73226 0.0
C390 C 0.28302 0.87398 0.79484 0.0
N391 N 0.26919 0.88697 0.79376 0.0
N392 N 0.25384 0.87908 0.78688 0.0
C393 C 0.25741 0.86057 0.78368 0.0
C394 C 0.276 0.85686 0.7886 0.0
C395 C 0.30246 0.87778 0.80229 0.0
H396 H 0.3015 0.88237 0.81726 0.0
H397 H 0.30897 0.88931 0.79393 0.0
H398 H 0.31177 0.86523 0.80129 0.0
O399 O 0.2498 0.91147 0.82529 0.0
O400 O 0.2234 0.90046 0.81202 0.0
H401 H 0.22953 0.84897 0.78638 0.0
H402 H 0.24767 0.8316 0.78206 0.0
C403 C 0.24282 0.84612 0.77861 0.0
H404 H 0.23999 0.84679 0.76322 0.0
H405 H 0.19483 0.87148 0.79582 0.0
O406 O 0.29369 0.91854 0.81265 0.0
C407 C 0.23227 0.9073 0.82617 0.0
Co408 Co 0.33635 0.9746 0.42857 0.0
Co409 Co 0.35173 0.00602 0.45551 0.0
C410 C 0.31492 0.98902 0.4631 0.0
O411 O 0.3168 0.97976 0.44785 0.0
O412 O 0.32823 -0.00067 0.46933 0.0
C413 C 0.32875 0.9377 0.43178 0.0
O414 O 0.33328 0.94336 0.44888 0.0
C415 C 0.36955 0.02246 0.48844 0.0
C416 C 0.38683 0.04537 0.47609 0.0
C417 C 0.38348 0.03557 0.49273 0.0
N418 N 0.36544 0.02395 0.47 0.0
N419 N 0.37541 0.038 0.46276 0.0
C420 C 0.3602 0.00857 0.50144 0.0
H421 H 0.34466 0.01018 0.50035 0.0
H422 H 0.36368 0.99394 0.49699 0.0
H423 H 0.36436 0.01079 0.51638 0.0
C424 C 0.37489 0.95959 0.43423 0.0
N425 N 0.36117 0.97224 0.43815 0.0
N426 N 0.36762 0.98484 0.45019 0.0
C427 C 0.38564 0.98025 0.45465 0.0
C428 C 0.3907 0.9641 0.44477 0.0
C429 C 0.37293 0.94351 0.4206 0.0
H430 H 0.3628 0.94718 0.40923 0.0
H431 H 0.3678 0.93085 0.4283 0.0
H432 H 0.38664 0.93978 0.41405 0.0
O433 O 0.33559 -0.00408 0.41083 0.0
O434 O 0.34407 0.01831 0.43142 0.0
H435 H 0.39817 0.0067 0.46225 0.0
H436 H 0.41327 0.98662 0.46618 0.0
C437 C 0.39846 0.99176 0.46687 0.0
H438 H 0.39358 0.99088 0.48169 0.0
H439 H 0.37529 0.04177 0.4485 0.0
O440 O 0.32859 0.94974 0.4184 0.0
C441 C 0.33851 0.01323 0.41503 0.0
Co442 Co 0.25737 0.07878 0.68052 0.0
Co443 Co 0.22721 0.09773 0.70672 0.0
C444 C 0.23871 0.05866 0.71353 0.0
O445 O 0.24854 0.05951 0.69857 0.0
O446 O 0.23033 0.07318 0.71997 0.0
C447 C 0.29239 0.06562 0.68539 0.0
O448 O 0.2859 0.06948 0.70237 0.0
C449 C 0.21302 0.11648 0.74017 0.0
C450 C 0.19074 0.13524 0.7289 0.0
C451 C 0.2006 0.13078 0.74523 0.0
N452 N 0.21097 0.11305 0.72164 0.0
N453 N 0.19738 0.12402 0.71501 0.0
C454 C 0.22654 0.10591 0.75259 0.0
H455 H 0.22315 0.09061 0.75197 0.0
H456 H 0.24116 0.10761 0.74719 0.0
H457 H 0.2257 0.11051 0.76754 0.0
C458 C 0.27714 0.1146 0.68788 0.0
N459 N 0.26273 0.10261 0.69126 0.0
N460 N 0.25052 0.11068 0.70273 0.0
C461 C 0.25708 0.12805 0.70732 0.0
C462 C 0.27416 0.13095 0.69814 0.0
C463 C 0.29316 0.11069 0.67457 0.0
H464 H 0.28826 0.10189 0.66258 0.0
H465 H 0.30446 0.10308 0.68229 0.0
H466 H 0.29945 0.12385 0.6689 0.0
O467 O 0.2371 0.08191 0.66195 0.0
O468 O 0.21493 0.09266 0.68179 0.0
H469 H 0.23166 0.14341 0.71328 0.0
H470 H 0.25301 0.15672 0.71728 0.0
C471 C 0.24641 0.14253 0.71845 0.0
H472 H 0.24625 0.13838 0.73353 0.0
H473 H 0.19325 0.12446 0.70086 0.0
O474 O 0.28156 0.06809 0.67123 0.0
C475 C 0.22015 0.0871 0.66541 0.0
Co476 Co 0.15876 0.01891 0.93937 0.0
Co477 Co 0.13996 0.98241 0.95656 0.0
C478 C 0.17537 -0.00013 0.97272 0.0
O479 O 0.17457 0.01363 0.96126 0.0
O480 O 0.16319 0.98661 0.97237 0.0
C481 C 0.17921 0.05374 0.93651 0.0
O482 O 0.19077 0.04554 0.94849 0.0
C483 C 0.1171 0.96619 0.98608 0.0
C484 C 0.10485 0.94072 0.97284 0.0
C485 C 0.10396 0.95191 0.98891 0.0
N486 N 0.12487 0.96393 0.96893 0.0
N487 N 0.1178 0.94848 0.96118 0.0
C488 C 0.1222 0.98199 -0.00076 0.0
H489 H 0.11401 0.99482 0.9955 0.0
H490 H 0.11916 0.97811 0.01414 0.0
H491 H 0.13738 0.98552 -0.00221 0.0
C492 C 0.12038 0.03357 0.94394 0.0
N493 N 0.13324 0.01976 0.94624 0.0
N494 N 0.12484 0.0044 0.9525 0.0
C495 C 0.10606 0.00781 0.95359 0.0
C496 C 0.10274 0.02642 0.94835 0.0
C497 C 0.12507 0.05337 0.93808 0.0
H498 H 0.12895 0.05348 0.92288 0.0
H499 H 0.13733 0.05851 0.94637 0.0
H500 H 0.11307 0.06317 0.9404 0.0
O501 O 0.16339 -0.00146 0.92061 0.0
O502 O 0.14892 0.97293 0.9321 0.0
H503 H 0.09583 0.97931 0.95118 0.0
H504 H 0.07765 -0.00284 0.95032 0.0
C505 C 0.09125 0.99309 0.957 0.0
H506 H 0.08878 0.99163 0.97239 0.0
H507 H 0.12109 0.94377 0.94759 0.0
O508 O 0.16576 0.0442 0.92939 0.0
C509 C 0.15874 0.98112 0.9194 0.0
Co510 Co 0.22163 0.90896 0.17938 0.0
Co511 Co 0.25224 0.89024 0.20541 0.0
C512 C 0.23753 0.92762 0.2148 0.0
O513 O 0.22799 0.92706 0.19961 0.0
O514 O 0.24712 0.91343 0.22029 0.0
C515 C 0.18465 0.91766 0.18245 0.0
O516 O 0.18989 0.91294 0.19963 0.0
C517 C 0.26913 0.87024 0.23722 0.0
C518 C 0.28913 0.85098 0.22291 0.0
C519 C 0.28123 0.85511 0.24035 0.0
N520 N 0.26939 0.87438 0.2187 0.0
N521 N 0.28171 0.86314 0.21028 0.0
C522 C 0.25744 0.88074 0.25143 0.0
H523 H 0.24221 0.87854 0.24847 0.0
H524 H 0.26072 0.87633 0.26611 0.0
H525 H 0.26027 0.8961 0.25009 0.0
C526 C 0.20469 0.87138 0.183 0.0
N527 N 0.21801 0.88404 0.18784 0.0
N528 N 0.23003 0.87617 0.19961 0.0
C529 C 0.22432 0.85823 0.20305 0.0
C530 C 0.208 0.85477 0.1927 0.0
C531 C 0.19054 0.87417 0.16749 0.0
H532 H 0.19583 0.88454 0.15699 0.0
H533 H 0.17708 0.87936 0.17361 0.0
H534 H 0.18757 0.8606 0.16019 0.0
O535 O 0.24281 0.90929 0.16158 0.0
O536 O 0.26481 0.89849 0.18154 0.0
H537 H 0.24837 0.84131 0.21 0.0
H538 H 0.22616 0.83135 0.21773 0.0
C539 C 0.23424 0.84465 0.21588 0.0
H540 H 0.23611 0.85121 0.22993 0.0
H541 H 0.28426 0.86307 0.19575 0.0
O542 O 0.19705 0.91797 0.1694 0.0
C543 C 0.25993 0.90517 0.16548 0.0
Co544 Co 0.05777 0.33032 0.01737 0.0
Co545 Co 0.03252 0.3466 0.98466 0.0
C546 C 0.02457 0.30897 0.00034 0.0
O547 O 0.03887 0.31088 0.01099 0.0
O548 O 0.01936 0.32213 0.98924 0.0
C549 C 0.05431 0.31873 0.05382 0.0
O550 O 0.03682 0.31963 0.04766 0.0
C551 C 0.00017 0.36447 0.96664 0.0
C552 C 0.01377 0.38254 0.94508 0.0
C553 C -0.00349 0.37848 0.9534 0.0
N554 N 0.01879 0.36089 0.96655 0.0
N555 N 0.02681 0.3714 0.95334 0.0
C556 C 0.98636 0.35436 0.97915 0.0
H557 H 0.98985 0.35698 0.9942 0.0
H558 H 0.97157 0.35863 0.97622 0.0
H559 H 0.98768 0.33892 0.97678 0.0
C560 C 0.04946 0.36725 0.03399 0.0
N561 N 0.047 0.35439 0.02021 0.0
N562 N 0.03598 0.36147 0.00702 0.0
C563 C 0.03098 0.37922 0.01218 0.0
C564 C 0.03919 0.38323 0.02956 0.0
C565 C 0.06314 0.36522 0.05003 0.0
H566 H 0.0756 0.35686 0.04553 0.0
H567 H 0.05606 0.35794 0.06197 0.0
H568 H 0.06806 0.37923 0.05509 0.0
O569 O 0.07654 0.33082 -0.00323 0.0
O570 O 0.05745 0.34039 0.97353 0.0
H571 H 0.02511 0.39378 0.98631 0.0
H572 H 0.01767 0.40642 0.00722 0.0
C573 C 0.01898 0.39226 0.00065 0.0
H574 H 0.00463 0.38622 -0.00067 0.0
H575 H 0.04131 0.37169 0.95065 0.0
O576 O 0.06772 0.32257 0.04245 0.0
C577 C 0.07353 0.33472 0.9794 0.0
Co578 Co 0.55423 0.16244 0.97717 0.0
Co579 Co 0.52901 0.14438 0.0089 0.0
C580 C 0.51942 0.18168 0.99354 0.0
O581 O 0.53395 0.18048 0.98308 0.0
O582 O 0.51473 0.16826 0.00457 0.0
C583 C 0.55126 0.17234 0.94049 0.0
O584 O 0.53404 0.1675 0.94549 0.0
C585 C 0.49716 0.12467 0.02607 0.0
C586 C 0.5116 0.10474 0.04529 0.0
C587 C 0.4941 0.1091 0.03765 0.0
N588 N 0.51569 0.12874 0.02627 0.0
N589 N 0.52417 0.11714 0.0382 0.0
C590 C 0.48291 0.13551 0.01474 0.0
H591 H 0.48457 0.15082 0.01765 0.0
H592 H 0.48554 0.1334 -0.00057 0.0
H593 H 0.46824 0.13128 0.01831 0.0
C594 C 0.54893 0.12509 0.95997 0.0
N595 N 0.54517 0.13776 0.97365 0.0
N596 N 0.53376 0.13017 0.98623 0.0
C597 C 0.52961 0.11235 0.98061 0.0
C598 C 0.53901 0.1087 0.96374 0.0
C599 C 0.56353 0.1277 0.94485 0.0
H600 H 0.57472 0.13756 0.94965 0.0
H601 H 0.5567 0.13352 0.932 0.0
H602 H 0.57013 0.11398 0.94102 0.0
O603 O 0.57233 0.16266 -0.00182 0.0
O604 O 0.55337 0.15163 0.0209 0.0
H605 H 0.52314 0.09575 0.00504 0.0
H606 H 0.51458 0.08571 0.98319 0.0
C607 C 0.51692 0.09905 0.99105 0.0
H608 H 0.50302 0.10582 0.99319 0.0
H609 H 0.53873 0.11688 0.04054 0.0
O610 O 0.56435 0.17169 0.9528 0.0
C611 C 0.56922 0.15824 0.01539 0.0
Co612 Co 0.08112 0.3051 0.22966 0.0
Co613 Co 0.09536 0.27912 0.26274 0.0
C614 C 0.05702 0.2742 0.24724 0.0
O615 O 0.06015 0.28822 0.2365 0.0
O616 O 0.06984 0.26783 0.25814 0.0
C617 C 0.06676 0.3039 0.19358 0.0
O618 O 0.06427 0.28651 0.19959 0.0
C619 C 0.11223 0.24545 0.27882 0.0
C620 C 0.12782 0.25675 0.30339 0.0
C621 C 0.125 0.24044 0.29287 0.0
N622 N 0.10805 0.26385 0.2808 0.0
N623 N 0.11702 0.27045 0.29579 0.0
C624 C 0.10596 0.23386 0.26225 0.0
H625 H 0.10027 0.24307 0.25089 0.0
H626 H 0.11784 0.22528 0.25665 0.0
H627 H 0.09461 0.22407 0.26687 0.0
C628 C 0.11756 0.2943 0.21336 0.0
N629 N 0.10424 0.29231 0.22681 0.0
N630 N 0.11083 0.28169 0.24059 0.0
C631 C 0.12884 0.27679 0.23633 0.0
C632 C 0.13353 0.28453 0.21891 0.0
C633 C 0.11518 0.30592 0.19581 0.0
H634 H 0.11009 0.32025 0.1996 0.0
H635 H 0.1045 0.29909 0.18664 0.0
H636 H 0.12842 0.30712 0.18754 0.0
O637 O 0.08319 0.32385 0.25028 0.0
O638 O 0.09106 0.30441 0.27389 0.0
H639 H 0.14036 0.27291 0.26412 0.0
H640 H 0.15722 0.26972 0.24528 0.0
C641 C 0.14233 0.26736 0.24962 0.0
H642 H 0.13969 0.25193 0.24964 0.0
H643 H 0.11669 0.28455 0.3001 0.0
O644 O 0.07407 0.316 0.2047 0.0
C645 C 0.08668 0.3208 0.26774 0.0
Co646 Co 0.92847 0.83262 0.47733 0.0
Co647 Co 0.95708 0.84874 0.50714 0.0
C648 C 0.96223 0.81041 0.49047 0.0
O649 O 0.94695 0.81216 0.4812 0.0
O650 O 0.96864 0.82387 0.50057 0.0
C651 C 0.9134 0.80961 0.44763 0.0
O652 O 0.92051 0.7956 0.45752 0.0
C653 C 0.99199 0.867 0.51915 0.0
C654 C 0.98316 0.88137 0.54545 0.0
C655 C -0.00184 0.87946 0.53299 0.0
N656 N 0.97402 0.86225 0.52299 0.0
N657 N 0.96891 0.87061 0.53889 0.0
C658 C 0.00297 0.85932 0.50274 0.0
H659 H -0.00116 0.84446 0.49999 0.0
H660 H -0.00028 0.86759 0.48984 0.0
H661 H 0.0184 0.86 0.50547 0.0
C662 C 0.93806 0.86817 0.45815 0.0
N663 N 0.9404 0.85596 0.47254 0.0
N664 N 0.95134 0.86364 0.48544 0.0
C665 C 0.9557 0.88143 0.47991 0.0
C666 C 0.94752 0.88475 0.46239 0.0
C667 C 0.92746 0.86371 0.4404 0.0
H668 H 0.93213 0.84978 0.43495 0.0
H669 H 0.92988 0.87444 0.42922 0.0
H670 H 0.91213 0.86294 0.44361 0.0
O671 O 0.9126 0.83428 0.50027 0.0
O672 O 0.93382 0.84343 0.52169 0.0
H673 H 0.961 0.91039 0.48794 0.0
H674 H 0.98083 0.89479 0.49013 0.0
C675 C 0.96533 0.89587 0.49202 0.0
H676 H 0.96179 0.89357 0.50709 0.0
H677 H 0.95545 0.86957 0.54486 0.0
O678 O 0.91348 0.82615 0.45462 0.0
C679 C 0.91717 0.83819 0.51727 0.0
Co680 Co 0.90785 0.19198 0.22598 0.0
Co681 Co 0.88976 0.20909 0.26257 0.0
C682 C 0.92491 0.22525 0.24587 0.0
O683 O 0.92391 0.21353 0.23235 0.0
O684 O 0.91269 0.22538 0.25909 0.0
C685 C 0.91612 0.1976 0.18835 0.0
O686 O 0.91109 0.21468 0.19366 0.0
C687 C 0.86947 0.23767 0.2835 0.0
C688 C 0.85361 0.22108 0.30465 0.0
C689 C 0.85594 0.23916 0.29751 0.0
N690 N 0.87499 0.21958 0.28238 0.0
N691 N 0.86583 0.20976 0.29539 0.0
C692 C 0.87542 0.2527 0.26981 0.0
H693 H 0.8802 0.24627 0.25632 0.0
H694 H 0.86371 0.26279 0.26707 0.0
H695 H 0.88739 0.26071 0.27599 0.0
C696 C 0.86868 0.19522 0.2123 0.0
N697 N 0.88204 0.19826 0.22551 0.0
N698 N 0.87437 0.20645 0.24035 0.0
C699 C 0.85581 0.20932 0.23672 0.0
C700 C 0.85172 0.2023 0.21889 0.0
C701 C 0.87204 0.18558 0.19374 0.0
H702 H 0.88257 0.17411 0.1954 0.0
H703 H 0.87736 0.19609 0.1834 0.0
H704 H 0.85891 0.17947 0.18784 0.0
O705 O 0.91248 0.17215 0.24487 0.0
O706 O 0.89891 0.18392 0.27077 0.0
H707 H 0.84302 0.20992 0.26414 0.0
H708 H 0.82711 0.2158 0.24514 0.0
C709 C 0.84181 0.21731 0.25039 0.0
H710 H 0.84479 0.23253 0.25252 0.0
H711 H 0.86696 0.19514 0.29706 0.0
O712 O 0.91615 0.18434 0.2005 0.0
C713 C 0.90806 0.17089 0.26232 0.0
Co714 Co 0.43394 0.66164 0.51186 0.0
Co715 Co 0.46017 0.64507 0.48026 0.0
C716 C 0.46753 0.68281 0.49572 0.0
O717 O 0.45257 0.68122 0.50546 0.0
O718 O 0.47368 0.66914 0.48581 0.0
C719 C 0.4371 0.67135 0.54847 0.0
O720 O 0.45447 0.66792 0.54286 0.0
C721 C 0.49321 0.62583 0.46534 0.0
C722 C 0.48136 0.60935 0.44163 0.0
C723 C 0.4976 0.61182 0.4523 0.0
N724 N 0.47505 0.63079 0.46295 0.0
N725 N 0.46816 0.62127 0.44844 0.0
C726 C 0.50585 0.63445 0.47997 0.0
H727 H 0.50425 0.65004 0.47974 0.0
H728 H 0.5016 0.62953 0.49424 0.0
H729 H 0.52091 0.63091 0.4774 0.0
C730 C 0.44002 0.62392 0.52817 0.0
N731 N 0.44406 0.6372 0.51511 0.0
N732 N 0.45532 0.62998 0.50218 0.0
C733 C 0.45897 0.61178 0.50686 0.0
C734 C 0.44953 0.60753 0.52349 0.0
C735 C 0.42668 0.62664 0.54441 0.0
H736 H 0.43444 0.63317 0.55634 0.0
H737 H 0.4208 0.61309 0.54958 0.0
H738 H 0.41483 0.63598 0.5402 0.0
O739 O 0.41583 0.66091 0.49097 0.0
O740 O 0.43561 0.65177 0.46804 0.0
H741 H 0.46678 0.5831 0.49953 0.0
H742 H 0.48447 0.60072 0.49511 0.0
C743 C 0.46913 0.59782 0.49463 0.0
H744 H 0.46412 0.59904 0.47987 0.0
H745 H 0.45414 0.62207 0.44393 0.0
O746 O 0.42374 0.67008 0.53649 0.0
C747 C 0.41932 0.65723 0.47365 0.0
Co748 Co 0.08051 0.68909 0.26403 0.0
Co749 Co 0.09645 0.70763 0.22723 0.0
C750 C 0.0625 0.72325 0.24658 0.0
O751 O 0.06422 0.71094 0.25948 0.0
O752 O 0.07391 0.72387 0.23268 0.0
C753 C 0.07563 0.69433 0.30188 0.0
O754 O 0.08147 0.71102 0.29616 0.0
C755 C 0.11495 0.73716 0.20629 0.0
C756 C 0.12901 0.72192 0.18292 0.0
C757 C 0.12715 0.73961 0.19115 0.0
N758 N 0.1099 0.71892 0.207 0.0
N759 N 0.118 0.70989 0.1928 0.0
C760 C 0.11022 0.75113 0.22149 0.0
H761 H 0.10576 0.74374 0.23459 0.0
H762 H 0.12253 0.76032 0.22465 0.0
H763 H 0.0984 0.76021 0.21661 0.0
C764 C 0.12053 0.69097 0.27509 0.0
N765 N 0.10638 0.69498 0.26303 0.0
N766 N 0.11318 0.70397 0.24822 0.0
C767 C 0.13198 0.70647 0.25078 0.0
C768 C 0.13711 0.69828 0.26783 0.0
C769 C 0.11833 0.68007 0.29313 0.0
H770 H 0.10702 0.66933 0.29167 0.0
H771 H 0.11467 0.68998 0.3047 0.0
H772 H 0.13157 0.67279 0.29718 0.0
O773 O 0.07452 0.66996 0.24486 0.0
O774 O 0.08673 0.68283 0.21876 0.0
H775 H 0.14312 0.7085 0.22271 0.0
H776 H 0.16012 0.71347 0.24104 0.0
C777 C 0.14515 0.71519 0.23671 0.0
H778 H 0.14203 0.73049 0.23546 0.0
H779 H 0.11684 0.69537 0.19046 0.0
O780 O 0.07375 0.68115 0.28982 0.0
C781 C 0.07802 0.66947 0.22717 0.0
Co782 Co 0.40845 0.30657 0.76269 0.0
Co783 Co 0.39444 0.2794 0.73048 0.0
C784 C 0.43342 0.27654 0.74502 0.0
O785 O 0.42998 0.2906 0.75558 0.0
O786 O 0.42061 0.26946 0.73457 0.0
C787 C 0.42386 0.30674 0.7983 0.0
O788 O 0.42707 0.28943 0.79246 0.0
C789 C 0.37799 0.24489 0.71562 0.0
C790 C 0.36145 0.25539 0.69131 0.0
C791 C 0.3647 0.23943 0.70224 0.0
N792 N 0.38176 0.26332 0.71314 0.0
N793 N 0.37223 0.26943 0.6983 0.0
C794 C 0.38707 0.23303 0.73064 0.0
H795 H 0.40207 0.23721 0.73235 0.0
H796 H 0.37993 0.23547 0.74438 0.0
H797 H 0.38631 0.21778 0.72704 0.0
C798 C 0.37313 0.29425 0.78028 0.0
N799 N 0.38615 0.29261 0.76651 0.0
N800 N 0.37956 0.28166 0.753 0.0
C801 C 0.36177 0.27633 0.7577 0.0
C802 C 0.35732 0.284 0.77518 0.0
C803 C 0.3755 0.30617 0.79763 0.0
H804 H 0.37966 0.32072 0.79352 0.0
H805 H 0.38683 0.3 0.80648 0.0
H806 H 0.36251 0.30674 0.80636 0.0
O807 O 0.40473 0.32483 0.7418 0.0
O808 O 0.39695 0.30464 0.71885 0.0
H809 H 0.34974 0.27266 0.73009 0.0
H810 H 0.33324 0.26932 0.7492 0.0
C811 C 0.34805 0.26699 0.74459 0.0
H812 H 0.35065 0.25157 0.74443 0.0
H813 H 0.3722 0.28343 0.69363 0.0
O814 O 0.41563 0.3183 0.78723 0.0
C815 C 0.40068 0.32133 0.72455 0.0
Co816 Co 0.51785 0.55648 0.8258 0.0
Co817 Co 0.4851 0.53184 0.84298 0.0
C818 C 0.4997 0.52441 0.80442 0.0
O819 O 0.51058 0.5386 0.80588 0.0
O820 O 0.48948 0.51897 0.81822 0.0
C821 C 0.55158 0.56246 0.80437 0.0
O822 O 0.54325 0.55131 0.79211 0.0
C823 C 0.46976 0.49959 0.86321 0.0
C824 C 0.44517 0.51203 0.87792 0.0
C825 C 0.45601 0.49575 0.8767 0.0
N826 N 0.46753 0.51749 0.85732 0.0
N827 N 0.45256 0.52473 0.86582 0.0
C828 C 0.48484 0.48665 0.85587 0.0
H829 H 0.48706 0.48919 0.84056 0.0
H830 H 0.49839 0.48963 0.86312 0.0
H831 H 0.48097 0.47161 0.85815 0.0
C832 C 0.53622 0.54556 0.86132 0.0
N833 N 0.52163 0.5443 0.8492 0.0
N834 N 0.50759 0.53524 0.85735 0.0
C835 C 0.51259 0.5312 0.87536 0.0
C836 C 0.53094 0.53744 0.87831 0.0
C837 C 0.55493 0.55421 0.8566 0.0
H838 H 0.5532 0.56971 0.85487 0.0
H839 H 0.56011 0.54821 0.84308 0.0
H840 H 0.56568 0.55139 0.86764 0.0
O841 O 0.49726 0.57523 0.82788 0.0
O842 O 0.47369 0.55664 0.83751 0.0
H843 H 0.48487 0.52971 0.88775 0.0
H844 H 0.50393 0.52919 0.90459 0.0
C845 C 0.49933 0.52437 0.8904 0.0
H846 H 0.49917 0.50872 0.89051 0.0
H847 H 0.448 0.53867 0.86414 0.0
O848 O 0.54228 0.5683 0.8186 0.0
C849 C 0.47991 0.57265 0.83208 0.0
Co850 Co 0.68105 0.26505 0.07898 0.0
Co851 Co 0.70598 0.23231 0.09574 0.0
C852 C 0.71287 0.24711 0.05705 0.0
O853 O 0.69867 0.25795 0.05873 0.0
O854 O 0.71849 0.23685 0.07075 0.0
C855 C 0.67411 0.29854 0.0574 0.0
O856 O 0.68468 0.29004 0.04473 0.0
C857 C 0.7387 0.21765 0.11565 0.0
C858 C 0.72695 0.19284 0.13056 0.0
C859 C 0.74295 0.20408 0.1292 0.0
N860 N 0.72084 0.21495 0.10987 0.0
N861 N 0.71402 0.19984 0.11849 0.0
C862 C 0.75119 0.23305 0.10818 0.0
H863 H 0.74845 0.23521 0.0929 0.0
H864 H 0.74794 0.24653 0.11547 0.0
H865 H 0.76633 0.22955 0.1103 0.0
C866 C 0.69263 0.28353 0.11429 0.0
N867 N 0.69358 0.26889 0.10218 0.0
N868 N 0.70264 0.25479 0.11022 0.0
C869 C 0.70689 0.25977 0.12819 0.0
C870 C 0.70089 0.27821 0.1312 0.0
C871 C 0.68421 0.30236 0.10957 0.0
H872 H 0.68981 0.30721 0.09575 0.0
H873 H 0.68766 0.31321 0.12034 0.0
H874 H 0.66864 0.30094 0.10845 0.0
O875 O 0.66245 0.24431 0.08138 0.0
O876 O 0.68114 0.22068 0.0907 0.0
H877 H 0.70869 0.25093 0.15736 0.0
H878 H 0.7293 0.24636 0.1434 0.0
C879 C 0.71366 0.24643 0.14317 0.0
H880 H 0.70841 0.23196 0.1404 0.0
H881 H 0.70019 0.19495 0.11694 0.0
O882 O 0.66897 0.28945 0.07203 0.0
C883 C 0.66505 0.22694 0.08553 0.0
Co884 Co 0.97793 0.42978 0.33219 0.0
Co885 Co 0.00962 0.45685 0.34788 0.0
C886 C 0.99339 0.46245 0.3096 0.0
O887 O 0.98334 0.44773 0.31167 0.0
O888 O 0.0037 0.4687 0.32296 0.0
C889 C 0.94551 0.4193 0.3103 0.0
O890 O 0.95456 0.42792 0.29657 0.0
C891 C 0.02314 0.491 0.36643 0.0
C892 C 0.04904 0.48104 0.38073 0.0
C893 C 0.03708 0.49649 0.37912 0.0
N894 N 0.0264 0.473 0.36133 0.0
N895 N 0.0421 0.46723 0.36963 0.0
C896 C 0.00703 0.50255 0.35897 0.0
H897 H 0.00396 0.49857 0.34414 0.0
H898 H 0.99413 0.49967 0.3674 0.0
H899 H 0.01029 0.51788 0.35966 0.0
C900 C 0.9601 0.44005 0.36817 0.0
N901 N 0.97415 0.44207 0.35551 0.0
N902 N 0.9878 0.45224 0.36298 0.0
C903 C 0.98312 0.45632 0.38106 0.0
C904 C 0.96537 0.44884 0.38482 0.0
C905 C 0.94184 0.43013 0.3642 0.0
H906 H 0.93598 0.43537 0.35064 0.0
H907 H 0.93121 0.43263 0.37544 0.0
H908 H 0.94448 0.41473 0.36289 0.0
O909 O -0.00012 0.41253 0.33391 0.0
O910 O 0.02259 0.43268 0.34253 0.0
H911 H 0.01099 0.46005 0.39253 0.0
H912 H 0.99239 0.46023 0.40991 0.0
C913 C -0.00369 0.46464 0.39537 0.0
H914 H -0.00443 0.48027 0.39472 0.0
H915 H 0.04759 0.45359 0.36841 0.0
O916 O 0.95397 0.41647 0.3259 0.0
C917 C 0.01717 0.41624 0.33752 0.0
Co918 Co 0.80809 0.73036 0.58048 0.0
Co919 Co 0.78172 0.76213 0.59684 0.0
C920 C 0.77592 0.74797 0.55814 0.0
O921 O 0.79033 0.73756 0.5604 0.0
O922 O 0.76974 0.75829 0.57152 0.0
C923 C 0.80704 0.69493 0.56486 0.0
O924 O 0.78944 0.70064 0.56362 0.0
C925 C 0.74826 0.77728 0.61529 0.0
C926 C 0.76007 0.80068 0.63227 0.0
C927 C 0.74367 0.79042 0.62913 0.0
N928 N 0.76664 0.77927 0.611 0.0
N929 N 0.77353 0.79356 0.62085 0.0
C930 C 0.73555 0.76308 0.60607 0.0
H931 H 0.73871 0.74874 0.61154 0.0
H932 H 0.72044 0.76644 0.60858 0.0
H933 H 0.73825 0.76287 0.59063 0.0
C934 C 0.79803 0.71186 0.61617 0.0
N935 N 0.79595 0.72614 0.60376 0.0
N936 N 0.78506 0.73929 0.61114 0.0
C937 C 0.78005 0.73374 0.62879 0.0
C938 C 0.78796 0.71616 0.63235 0.0
C939 C 0.80972 0.69455 0.61267 0.0
H940 H 0.82376 0.69867 0.60707 0.0
H941 H 0.80248 0.68562 0.60205 0.0
H942 H 0.81165 0.68587 0.62555 0.0
O943 O 0.82641 0.75128 0.58296 0.0
O944 O 0.80666 0.77404 0.59232 0.0
H945 H 0.77548 0.76058 0.64216 0.0
H946 H 0.77254 0.74055 0.65764 0.0
C947 C 0.77021 0.74588 0.64306 0.0
H948 H 0.75483 0.74574 0.64029 0.0
H949 H 0.78766 0.79779 0.62053 0.0
O950 O 0.8193 0.70603 0.57195 0.0
C951 C 0.82307 0.76849 0.58729 0.0
Co952 Co 0.50674 0.42737 0.6561 0.0
Co953 Co 0.47681 0.45581 0.64026 0.0
C954 C 0.49303 0.46213 0.67756 0.0
O955 O 0.50161 0.44648 0.67574 0.0
O956 O 0.48347 0.46909 0.66405 0.0
C957 C 0.54343 0.42945 0.66491 0.0
O958 O 0.5381 0.44685 0.66117 0.0
C959 C 0.46191 0.48959 0.62234 0.0
C960 C 0.43928 0.47805 0.60419 0.0
C961 C 0.44936 0.49441 0.60805 0.0
N962 N 0.45985 0.47112 0.62615 0.0
N963 N 0.44596 0.46438 0.61564 0.0
C964 C 0.4757 0.50214 0.63238 0.0
H965 H 0.49035 0.49776 0.62896 0.0
H966 H 0.47361 0.51725 0.62871 0.0
H967 H 0.47383 0.5005 0.64785 0.0
C968 C 0.52301 0.43304 0.61817 0.0
N969 N 0.51013 0.43728 0.63154 0.0
N970 N 0.49825 0.44995 0.6249 0.0
C971 C 0.50362 0.45453 0.60711 0.0
C972 C 0.51948 0.44402 0.60239 0.0
C973 C 0.53842 0.41868 0.62045 0.0
H974 H 0.53393 0.40732 0.63026 0.0
H975 H 0.55121 0.42575 0.62611 0.0
H976 H 0.54237 0.41216 0.60679 0.0
O977 O 0.48486 0.41043 0.65593 0.0
O978 O 0.46342 0.43203 0.64741 0.0
H979 H 0.49884 0.46703 0.57956 0.0
H980 H 0.49418 0.48216 0.59946 0.0
C981 C 0.49309 0.4675 0.59415 0.0
H982 H 0.47801 0.46337 0.5937 0.0
H983 H 0.44185 0.45022 0.61546 0.0
O984 O 0.53115 0.41631 0.66425 0.0
C985 C 0.46779 0.41534 0.65275 0.0
Co986 Co 0.80475 0.2693 0.908 0.0
Co987 Co 0.7808 0.23643 0.89073 0.0
C988 C 0.77221 0.25002 0.92872 0.0
O989 O 0.78658 0.26071 0.92746 0.0
O990 O 0.7666 0.2403 0.91468 0.0
C991 C 0.79878 0.30534 0.91953 0.0
O992 O 0.78178 0.29789 0.91901 0.0
C993 C 0.74994 0.21703 0.8718 0.0
C994 C 0.76521 0.19776 0.85254 0.0
C995 C 0.74738 0.2047 0.85675 0.0
N996 N 0.76847 0.21788 0.87573 0.0
N997 N 0.77748 0.20592 0.86457 0.0
C998 C 0.73523 0.22819 0.88218 0.0
H999 H 0.73679 0.22569 0.89758 0.0
H1000 H 0.73744 0.24352 0.87973 0.0
H1001 H 0.72072 0.2241 0.87789 0.0
C1002 C 0.79729 0.28603 0.87083 0.0
N1003 N 0.79432 0.27233 0.88371 0.0
N1004 N 0.78378 0.25899 0.87624 0.0
C1005 C 0.77947 0.26402 0.85829 0.0
C1006 C 0.7878 0.28138 0.85441 0.0
C1007 C 0.81112 0.3019 0.87319 0.0
H1008 H 0.82297 0.29748 0.88242 0.0
H1009 H 0.8038 0.31414 0.87967 0.0
H1010 H 0.81695 0.30646 0.85936 0.0
O1011 O 0.82464 0.25007 0.90704 0.0
O1012 O 0.8061 0.22632 0.89768 0.0
H1013 H 0.77524 0.2387 0.84232 0.0
H1014 H 0.76557 0.25963 0.83129 0.0
C1015 C 0.76799 0.25234 0.84494 0.0
H1016 H 0.75407 0.24945 0.85137 0.0
H1017 H 0.79213 0.20428 0.86431 0.0
O1018 O 0.81294 0.29475 0.9162 0.0
C1019 C 0.82205 0.23262 0.9033 0.0
Co1020 Co 0.97095 0.55265 0.15946 0.0
Co1021 Co 0.00708 0.53231 0.14393 0.0
C1022 C 0.99072 0.52275 0.18178 0.0
O1023 O 0.97799 0.53521 0.17963 0.0
O1024 O 0.00272 0.51924 0.16879 0.0
C1025 C 0.9373 0.56007 0.18067 0.0
O1026 O 0.94632 0.55151 0.19446 0.0
C1027 C 0.02535 0.50074 0.12583 0.0
C1028 C 0.04954 0.51398 0.11114 0.0
C1029 C 0.03985 0.49705 0.11313 0.0
N1030 N 0.02633 0.51899 0.13086 0.0
N1031 N 0.04105 0.52677 0.12241 0.0
C1032 C 0.00919 0.48811 0.1311 0.0
H1033 H -0.00264 0.49644 0.13715 0.0
H1034 H 0.00414 0.48009 0.11861 0.0
H1035 H 0.01401 0.47783 0.14192 0.0
C1036 C 0.95585 0.54106 0.12293 0.0
N1037 N 0.96972 0.54073 0.13588 0.0
N1038 N 0.98504 0.53332 0.12841 0.0
C1039 C 0.98148 0.52926 0.11006 0.0
C1040 C 0.96287 0.53401 0.10611 0.0
C1041 C 0.93634 0.54843 0.12653 0.0
H1042 H 0.93088 0.54247 0.13997 0.0
H1043 H 0.92645 0.54459 0.115 0.0
H1044 H 0.93689 0.56405 0.12786 0.0
O1045 O 0.98989 0.57279 0.15909 0.0
O1046 O 0.01604 0.55828 0.14932 0.0
H1047 H 0.99171 0.52729 0.08131 0.0
H1048 H -0.0019 0.50799 0.0965 0.0
C1049 C -0.00388 0.52352 0.09589 0.0
H1050 H 0.00975 0.53053 0.09905 0.0
H1051 H 0.04459 0.54106 0.1234 0.0
O1052 O 0.9458 0.56319 0.16518 0.0
C1053 C 0.00748 0.573 0.15523 0.0
Co1054 Co 0.68705 0.72412 0.41067 0.0
Co1055 Co 0.70537 0.76023 0.39242 0.0
C1056 C 0.71965 0.74435 0.42875 0.0
O1057 O 0.70763 0.73109 0.4278 0.0
O1058 O 0.72068 0.75701 0.41601 0.0
C1059 C 0.69265 0.68729 0.42225 0.0
O1060 O 0.71004 0.69373 0.42152 0.0
C1061 C 0.73572 0.77961 0.37358 0.0
C1062 C 0.72116 0.801 0.35609 0.0
C1063 C 0.73877 0.7932 0.35977 0.0
N1064 N 0.71724 0.7793 0.37773 0.0
N1065 N 0.7086 0.79239 0.36757 0.0
C1066 C 0.74944 0.76509 0.38066 0.0
H1067 H 0.74185 0.75244 0.38599 0.0
H1068 H 0.75936 0.76073 0.36932 0.0
H1069 H 0.75776 0.77123 0.39244 0.0
C1070 C 0.69307 0.70909 0.37259 0.0
N1071 N 0.69495 0.72299 0.38541 0.0
N1072 N 0.70312 0.7377 0.37748 0.0
C1073 C 0.70682 0.73343 0.35918 0.0
C1074 C 0.70076 0.71508 0.35568 0.0
C1075 C 0.68228 0.69114 0.37582 0.0
H1076 H 0.66981 0.69389 0.38489 0.0
H1077 H 0.69161 0.68071 0.38289 0.0
H1078 H 0.67732 0.68493 0.3623 0.0
O1079 O 0.66719 0.74331 0.41385 0.0
O1080 O 0.68005 0.76896 0.4007 0.0
H1081 H 0.70824 0.76028 0.34525 0.0
H1082 H 0.71586 0.74069 0.33075 0.0
C1083 C 0.71583 0.74658 0.34526 0.0
H1084 H 0.73069 0.74909 0.34941 0.0
H1085 H 0.69403 0.79465 0.36765 0.0
O1086 O 0.67905 0.69845 0.41854 0.0
C1087 C 0.66651 0.7608 0.40941 0.0
Co1088 Co 0.83235 0.51877 0.55337 0.0
Co1089 Co 0.84963 0.48218 0.53476 0.0
C1090 C 0.81212 0.49779 0.52279 0.0
O1091 O 0.8138 0.51128 0.53445 0.0
O1092 O 0.82491 0.48526 0.52113 0.0
C1093 C 0.81776 0.55514 0.54961 0.0
O1094 O 0.81491 0.54835 0.53258 0.0
C1095 C 0.86963 0.46589 0.50342 0.0
C1096 C 0.88355 0.44071 0.51553 0.0
C1097 C 0.8826 0.45178 0.49936 0.0
N1098 N 0.86369 0.46367 0.52129 0.0
N1099 N 0.87173 0.44837 0.52839 0.0
C1100 C 0.86312 0.48158 0.49074 0.0
H1101 H 0.84801 0.48469 0.49334 0.0
H1102 H 0.87122 0.49462 0.49391 0.0
H1103 H 0.86513 0.47785 0.47564 0.0
C1104 C 0.86993 0.53372 0.54473 0.0
N1105 N 0.85686 0.51997 0.5434 0.0
N1106 N 0.8647 0.5046 0.53647 0.0
C1107 C 0.88333 0.50801 0.53377 0.0
C1108 C 0.88709 0.52659 0.53873 0.0
C1109 C 0.86609 0.55324 0.552 0.0
H1110 H 0.86074 0.55239 0.56671 0.0
H1111 H 0.85516 0.55996 0.54305 0.0
H1112 H 0.87881 0.56237 0.55162 0.0
O1113 O 0.83117 0.49946 0.57364 0.0
O1114 O 0.84344 0.47349 0.56051 0.0
H1115 H 0.89392 0.47964 0.53622 0.0
H1116 H 0.91201 0.49756 0.53486 0.0
C1117 C 0.89789 0.49324 0.52957 0.0
H1118 H 0.89899 0.4913 0.51409 0.0
H1119 H 0.86991 0.44373 0.54228 0.0
O1120 O 0.82499 0.54446 0.56215 0.0
C1121 C 0.83581 0.48201 0.57447 0.0
Co1122 Co 0.72404 0.57448 0.80524 0.0
Co1123 Co 0.75507 0.59154 0.77844 0.0
C1124 C 0.7414 0.55224 0.77339 0.0
O1125 O 0.73123 0.55394 0.78807 0.0
O1126 O 0.75082 0.56611 0.76679 0.0
C1127 C 0.6917 0.55194 0.81436 0.0
O1128 O 0.7003 0.53908 0.80411 0.0
C1129 C 0.76848 0.61125 0.74485 0.0
C1130 C 0.79327 0.6267 0.75589 0.0
C1131 C 0.78182 0.62488 0.74009 0.0
N1132 N 0.77156 0.60585 0.76279 0.0
N1133 N 0.78664 0.61482 0.76919 0.0
C1134 C 0.75313 0.60321 0.7327 0.0
H1135 H 0.75093 0.58808 0.73618 0.0
H1136 H 0.73965 0.61068 0.73553 0.0
H1137 H 0.75669 0.60464 0.71749 0.0
C1138 C 0.70382 0.60862 0.79323 0.0
N1139 N 0.71884 0.59703 0.79201 0.0
N1140 N 0.73224 0.60532 0.78214 0.0
C1141 C 0.72642 0.62297 0.77758 0.0
C1142 C 0.70816 0.62547 0.7843 0.0
C1143 C 0.6856 0.60355 0.8027 0.0
H1144 H 0.68781 0.60289 0.81821 0.0
H1145 H 0.68094 0.58946 0.79769 0.0
H1146 H 0.67426 0.61389 0.79953 0.0
O1147 O 0.7452 0.57833 0.82299 0.0
O1148 O 0.76773 0.58762 0.80301 0.0
H1149 H 0.75368 0.63612 0.77462 0.0
H1150 H 0.7341 0.65238 0.77468 0.0
C1151 C 0.73892 0.63824 0.76989 0.0
H1152 H 0.73839 0.63808 0.75425 0.0
H1153 H 0.79179 0.61357 0.78295 0.0
O1154 O 0.70044 0.56708 0.8185 0.0
C1155 C 0.76229 0.58293 0.81953 0.0
Co1156 Co 0.66204 0.47172 0.05703 0.0
Co1157 Co 0.64545 0.50422 0.03172 0.0
C1158 C 0.68294 0.48644 0.02328 0.0
O1159 O 0.6813 0.47528 0.03725 0.0
O1160 O 0.67006 0.49835 0.01925 0.0
C1161 C 0.68321 0.43888 0.06739 0.0
O1162 O 0.69689 0.44721 0.05799 0.0
C1163 C 0.62605 0.51724 -0.00183 0.0
C1164 C 0.61332 0.54421 0.00745 0.0
C1165 C 0.6139 0.53154 0.99252 0.0
N1166 N 0.6319 0.52099 0.0158 0.0
N1167 N 0.62453 0.53729 0.0212 0.0
C1168 C 0.63227 0.50029 0.98708 0.0
H1169 H 0.64702 0.49654 0.99077 0.0
H1170 H 0.62325 0.488 0.99069 0.0
H1171 H 0.63126 0.503 0.97166 0.0
C1172 C 0.62506 0.45481 0.04888 0.0
N1173 N 0.63789 0.46863 0.04636 0.0
N1174 N 0.63018 0.48259 0.03682 0.0
C1175 C 0.6118 0.47839 0.0337 0.0
C1176 C 0.60807 0.46059 0.0411 0.0
C1177 C 0.62918 0.43628 0.05824 0.0
H1178 H 0.64248 0.43037 0.05242 0.0
H1179 H 0.61772 0.42585 0.05592 0.0
H1180 H 0.63104 0.43856 0.07364 0.0
O1181 O 0.66228 0.49409 0.07411 0.0
O1182 O 0.65136 0.51709 0.05548 0.0
H1183 H 0.60104 0.50666 0.03064 0.0
H1184 H 0.58309 0.48863 0.03206 0.0
C1185 C 0.59734 0.49205 0.02645 0.0
H1186 H 0.59668 0.49118 0.01083 0.0
H1187 H 0.62652 0.54328 0.03453 0.0
O1188 O 0.66807 0.44798 0.07065 0.0
C1189 C 0.65788 0.51138 0.07124 0.0
Co1190 Co 0.7699 0.41154 0.30627 0.0
Co1191 Co 0.7364 0.39415 0.28273 0.0
C1192 C 0.75148 0.43254 0.27428 0.0
O1193 O 0.76281 0.43134 0.28813 0.0
O1194 O 0.741 0.4187 0.26958 0.0
C1195 C 0.80483 0.43133 0.31047 0.0
O1196 O 0.79737 0.44233 0.29751 0.0
C1197 C 0.72262 0.37327 0.25047 0.0
C1198 C 0.69514 0.3621 0.26026 0.0
C1199 C 0.70782 0.36151 0.24531 0.0
N1200 N 0.7191 0.38006 0.26782 0.0
N1201 N 0.70254 0.37358 0.27354 0.0
C1202 C 0.73977 0.37837 0.23914 0.0
H1203 H 0.74484 0.39266 0.24307 0.0
H1204 H 0.75131 0.36822 0.2422 0.0
H1205 H 0.73663 0.3779 0.22377 0.0
C1206 C 0.78694 0.37489 0.29702 0.0
N1207 N 0.77304 0.38766 0.2947 0.0
N1208 N 0.75844 0.37942 0.28674 0.0
C1209 C 0.76218 0.36078 0.28483 0.0
C1210 C 0.78045 0.35735 0.29116 0.0
C1211 C 0.80606 0.37946 0.30482 0.0
H1212 H 0.81131 0.3927 0.29828 0.0
H1213 H 0.81643 0.36809 0.30184 0.0
H1214 H 0.80497 0.38157 0.32033 0.0
O1215 O 0.74901 0.41033 0.32514 0.0
O1216 O 0.72502 0.40016 0.30731 0.0
H1217 H 0.75087 0.33254 0.28778 0.0
H1218 H 0.74724 0.34334 0.26512 0.0
C1219 C 0.74756 0.34606 0.28054 0.0
H1220 H 0.73342 0.35088 0.28522 0.0
H1221 H 0.6966 0.37646 0.28674 0.0
O1222 O 0.79469 0.41841 0.31783 0.0
C1223 C 0.73155 0.40616 0.32299 0.0
Co1224 Co 0.83105 0.4762 0.92792 0.0
Co1225 Co 0.84733 0.50826 0.9537 0.0
C1226 C 0.81045 0.48938 0.96241 0.0
O1227 O 0.81218 0.47874 0.94807 0.0
O1228 O 0.823 0.50161 0.96656 0.0
C1229 C 0.80821 0.44598 0.9144 0.0
O1230 O 0.79436 0.45594 0.92173 0.0
C1231 C 0.86686 0.52136 0.98719 0.0
C1232 C 0.88069 0.54753 0.97719 0.0
C1233 C 0.87971 0.53521 0.9924 0.0
N1234 N 0.86104 0.52499 0.96951 0.0
N1235 N 0.86903 0.54085 0.96372 0.0
C1236 C 0.86003 0.50491 -0.00132 0.0
H1237 H 0.84475 0.50263 -0.00385 0.0
H1238 H 0.86751 0.49187 0.99425 0.0
H1239 H 0.86242 0.50729 0.014 0.0
C1240 C 0.86771 0.45888 0.93618 0.0
N1241 N 0.85518 0.47302 0.93828 0.0
N1242 N 0.86285 0.48677 0.94815 0.0
C1243 C 0.88098 0.48203 0.95195 0.0
C1244 C 0.88451 0.46416 0.94466 0.0
C1245 C 0.86327 0.44034 0.92699 0.0
H1246 H 0.84961 0.43495 0.93248 0.0
H1247 H 0.87432 0.42958 0.92977 0.0
H1248 H 0.86192 0.44247 0.91151 0.0
O1249 O 0.83035 0.49877 0.91135 0.0
O1250 O 0.84084 0.52169 0.93024 0.0
H1251 H 0.90984 0.49127 0.95527 0.0
H1252 H 0.89531 0.49372 0.97585 0.0
C1253 C 0.89545 0.49503 0.96026 0.0
H1254 H 0.89242 0.50986 0.95625 0.0
H1255 H 0.86728 0.54659 0.95023 0.0
O1256 O 0.8247 0.45304 0.91382 0.0
C1257 C 0.83438 0.51607 0.91442 0.0
Co1258 Co 0.76147 0.58072 0.18174 0.0
Co1259 Co 0.72942 0.59839 0.20642 0.0
C1260 C 0.74239 0.56011 0.21431 0.0
O1261 O 0.75244 0.56128 0.19952 0.0
O1262 O 0.73339 0.57435 0.2206 0.0
C1263 C 0.79644 0.565 0.18611 0.0
O1264 O 0.78929 0.5644 0.20323 0.0
C1265 C 0.71266 0.6181 0.23808 0.0
C1266 C 0.68957 0.63432 0.22468 0.0
C1267 C 0.69899 0.63174 0.24169 0.0
N1268 N 0.71149 0.61315 0.21982 0.0
N1269 N 0.69741 0.62255 0.21195 0.0
C1270 C 0.72821 0.61151 0.25086 0.0
H1271 H 0.73996 0.60531 0.24251 0.0
H1272 H 0.73367 0.62335 0.25957 0.0
H1273 H 0.72261 0.60045 0.26048 0.0
C1274 C 0.77988 0.6169 0.19048 0.0
N1275 N 0.76551 0.60463 0.19279 0.0
N1276 N 0.75214 0.61258 0.20299 0.0
C1277 C 0.75768 0.63033 0.20746 0.0
C1278 C 0.77544 0.6335 0.19978 0.0
C1279 C 0.79746 0.61277 0.17941 0.0
H1280 H 0.79372 0.60608 0.16575 0.0
H1281 H 0.80636 0.60283 0.1876 0.0
H1282 H 0.80598 0.62562 0.17669 0.0
O1283 O 0.7419 0.58272 0.16227 0.0
O1284 O 0.71844 0.59171 0.18139 0.0
H1285 H 0.73091 0.64398 0.21158 0.0
H1286 H 0.75101 0.65936 0.21438 0.0
C1287 C 0.74557 0.64486 0.21694 0.0
H1288 H 0.74556 0.64233 0.23238 0.0
H1289 H 0.69385 0.62171 0.19766 0.0
O1290 O 0.78627 0.57133 0.17268 0.0
C1291 C 0.72449 0.58641 0.16523 0.0
Co1292 Co 0.66166 0.51205 0.43475 0.0
Co1293 Co 0.64467 0.47881 0.45899 0.0
C1294 C 0.68198 0.4947 0.46831 0.0
O1295 O 0.68034 0.50557 0.45415 0.0
O1296 O 0.66881 0.48337 0.47295 0.0
C1297 C 0.67631 0.54805 0.43689 0.0
O1298 O 0.67672 0.54252 0.45459 0.0
C1299 C 0.6246 0.46251 0.49088 0.0
C1300 C 0.60853 0.43928 0.4776 0.0
C1301 C 0.61056 0.44923 0.49436 0.0
N1302 N 0.63001 0.46094 0.47275 0.0
N1303 N 0.62071 0.44673 0.46499 0.0
C1304 C 0.63286 0.47659 0.50437 0.0
H1305 H 0.64838 0.4773 0.50241 0.0
H1306 H 0.6271 0.49085 0.50134 0.0
H1307 H 0.6298 0.47273 0.51926 0.0
C1308 C 0.62449 0.52863 0.44197 0.0
N1309 N 0.63732 0.51488 0.44483 0.0
N1310 N 0.62969 0.50115 0.45481 0.0
C1311 C 0.61147 0.50581 0.45846 0.0
C1312 C 0.60774 0.52337 0.45054 0.0
C1313 C 0.62827 0.54644 0.43113 0.0
H1314 H 0.63475 0.54293 0.41729 0.0
H1315 H 0.63832 0.55527 0.43924 0.0
H1316 H 0.61534 0.55492 0.42879 0.0
O1317 O 0.66186 0.49132 0.41613 0.0
O1318 O 0.65194 0.46752 0.4344 0.0
H1319 H 0.59869 0.4785 0.46144 0.0
H1320 H 0.58251 0.49795 0.46439 0.0
C1321 C 0.59712 0.49296 0.46719 0.0
H1322 H 0.59923 0.49256 0.48269 0.0
H1323 H 0.62187 0.44284 0.45081 0.0
O1324 O 0.67004 0.53679 0.42434 0.0
C1325 C 0.65818 0.47383 0.41869 0.0
Co1326 Co 0.71976 0.40534 0.67779 0.0
Co1327 Co 0.75416 0.38909 0.70048 0.0
C1328 C 0.73653 0.42526 0.71161 0.0
O1329 O 0.72527 0.42367 0.69776 0.0
O1330 O 0.74836 0.41228 0.71549 0.0
C1331 C 0.68219 0.41109 0.68231 0.0
O1332 O 0.688 0.40598 0.6992 0.0
C1333 C 0.77285 0.37149 0.73223 0.0
C1334 C 0.79595 0.35524 0.71889 0.0
C1335 C 0.78719 0.35867 0.73611 0.0
N1336 N 0.77308 0.37533 0.71366 0.0
N1337 N 0.78713 0.36588 0.70577 0.0
C1338 C 0.75749 0.37806 0.74527 0.0
H1339 H 0.74482 0.38238 0.73712 0.0
H1340 H 0.75351 0.36674 0.75539 0.0
H1341 H 0.76262 0.39044 0.75341 0.0
C1342 C 0.7065 0.36638 0.68203 0.0
N1343 N 0.71909 0.38007 0.68589 0.0
N1344 N 0.73283 0.37307 0.69626 0.0
C1345 C 0.72905 0.35462 0.69972 0.0
C1346 C 0.71212 0.34996 0.69095 0.0
C1347 C 0.69068 0.36818 0.66806 0.0
H1348 H 0.69412 0.37892 0.65718 0.0
H1349 H 0.67757 0.37236 0.67557 0.0
H1350 H 0.68796 0.35446 0.66094 0.0
O1351 O 0.7398 0.40853 0.65913 0.0
O1352 O 0.76452 0.39805 0.67573 0.0
H1353 H 0.75577 0.34142 0.70486 0.0
H1354 H 0.7357 0.32709 0.71153 0.0
C1355 C 0.74138 0.34168 0.71104 0.0
H1356 H 0.74236 0.347 0.72571 0.0
H1357 H 0.79008 0.36595 0.69131 0.0
O1358 O 0.69423 0.41247 0.66902 0.0
C1359 C 0.75749 0.40544 0.6608 0.0
Co1360 Co 0.55872 0.83081 0.525 0.0
Co1361 Co 0.53783 0.84828 0.48994 0.0
C1362 C 0.52748 0.81046 0.50404 0.0
O1363 O 0.54061 0.81167 0.51619 0.0
O1364 O 0.5235 0.82425 0.49319 0.0
C1365 C 0.55107 0.82045 0.56126 0.0
O1366 O 0.53433 0.82097 0.55324 0.0
C1367 C 0.50734 0.86639 0.46932 0.0
C1368 C 0.52256 0.88582 0.45018 0.0
C1369 C 0.50466 0.88114 0.45665 0.0
N1370 N 0.52595 0.86302 0.47079 0.0
N1371 N 0.53497 0.87432 0.45895 0.0
C1372 C 0.49262 0.85573 0.48022 0.0
H1373 H 0.49463 0.84036 0.47792 0.0
H1374 H 0.49438 0.85843 0.49556 0.0
H1375 H 0.4781 0.85952 0.47572 0.0
C1376 C 0.55108 0.86838 0.54038 0.0
N1377 N 0.54885 0.85541 0.52667 0.0
N1378 N 0.5394 0.86291 0.51254 0.0
C1379 C 0.53494 0.88096 0.51711 0.0
C1380 C 0.54208 0.88484 0.53498 0.0
C1381 C 0.56393 0.86611 0.55706 0.0
H1382 H 0.57587 0.8566 0.55354 0.0
H1383 H 0.5558 0.86009 0.56904 0.0
H1384 H 0.56977 0.87994 0.56163 0.0
O1385 O 0.57935 0.83041 0.50667 0.0
O1386 O 0.56381 0.84115 0.48137 0.0
H1387 H 0.53248 0.89658 0.49134 0.0
H1388 H 0.52193 0.90817 0.51153 0.0
C1389 C 0.52441 0.89434 0.50459 0.0
H1390 H 0.51052 0.88817 0.501 0.0
H1391 H 0.54965 0.87499 0.45771 0.0
O1392 O 0.56562 0.82317 0.55103 0.0
C1393 C 0.57872 0.83445 0.48908 0.0
Co1394 Co 0.06013 0.66349 0.47658 0.0
Co1395 Co 0.03379 0.64664 0.50769 0.0
C1396 C 0.02489 0.68339 0.49135 0.0
O1397 O 0.0403 0.6822 0.48226 0.0
O1398 O 0.01893 0.66965 0.5013 0.0
C1399 C 0.05698 0.67304 0.4401 0.0
O1400 O 0.03979 0.66858 0.44554 0.0
C1401 C 0.00179 0.62679 0.52391 0.0
C1402 C 0.0149 0.61083 0.54735 0.0
C1403 C -0.00181 0.61297 0.53737 0.0
N1404 N 0.01994 0.63205 0.52546 0.0
N1405 N 0.02761 0.62283 0.53978 0.0
C1406 C 0.98838 0.63511 0.50978 0.0
H1407 H 0.98814 0.65069 0.51152 0.0
H1408 H 0.99347 0.63221 0.49524 0.0
H1409 H 0.9738 0.62968 0.51162 0.0
C1410 C 0.05519 0.62539 0.46028 0.0
N1411 N 0.05115 0.63854 0.47348 0.0
N1412 N 0.03964 0.63128 0.48616 0.0
C1413 C 0.03577 0.61322 0.48115 0.0
C1414 C 0.04535 0.60904 0.46457 0.0
C1415 C 0.0682 0.62846 0.44384 0.0
H1416 H 0.07971 0.63832 0.44777 0.0
H1417 H 0.06004 0.63452 0.43192 0.0
H1418 H 0.07456 0.61508 0.43883 0.0
O1419 O 0.07789 0.66426 0.49777 0.0
O1420 O 0.05755 0.65523 0.52019 0.0
H1421 H 0.02895 0.60028 0.50768 0.0
H1422 H 0.02654 0.58477 0.48766 0.0
C1423 C 0.02455 0.5995 0.49269 0.0
H1424 H 0.00937 0.60306 0.49161 0.0
H1425 H 0.04178 0.62393 0.54369 0.0
O1426 O 0.07032 0.6723 0.45213 0.0
C1427 C 0.07378 0.66124 0.51507 0.0
Co1428 Co 0.58035 0.81149 0.73082 0.0
Co1429 Co 0.59557 0.78237 0.76055 0.0
C1430 C 0.55782 0.77753 0.74213 0.0
O1431 O 0.56024 0.79249 0.73251 0.0
O1432 O 0.57037 0.77162 0.75361 0.0
C1433 C 0.55794 0.82809 0.70176 0.0
O1434 O 0.54378 0.82108 0.71154 0.0
C1435 C 0.61303 0.74684 0.77155 0.0
C1436 C 0.62705 0.75439 0.79842 0.0
C1437 C 0.62516 0.73994 0.78533 0.0
N1438 N 0.60845 0.7647 0.77603 0.0
N1439 N 0.61658 0.76904 0.79227 0.0
C1440 C 0.60554 0.73668 0.75455 0.0
H1441 H 0.59079 0.74111 0.75173 0.0
H1442 H 0.61406 0.74042 0.74194 0.0
H1443 H 0.60601 0.72113 0.75662 0.0
C1444 C 0.6162 0.80236 0.71226 0.0
N1445 N 0.60374 0.79982 0.72639 0.0
N1446 N 0.611 0.78844 0.73917 0.0
C1447 C 0.62883 0.784 0.73384 0.0
C1448 C 0.63257 0.79258 0.71657 0.0
C1449 C 0.61209 0.81332 0.69463 0.0
H1450 H 0.59815 0.80896 0.68896 0.0
H1451 H 0.62289 0.81092 0.68353 0.0
H1452 H 0.6115 0.82861 0.69807 0.0
O1453 O 0.58107 0.82645 0.7545 0.0
O1454 O 0.59075 0.80519 0.77564 0.0
H1455 H 0.65756 0.77823 0.74231 0.0
H1456 H 0.64181 0.75844 0.74349 0.0
C1457 C 0.64293 0.77386 0.74593 0.0
H1458 H 0.64032 0.77688 0.76106 0.0
H1459 H 0.61563 0.78226 0.79874 0.0
O1460 O 0.57447 0.82745 0.70871 0.0
C1461 C 0.58519 0.82177 0.77142 0.0
Co1462 Co 0.43174 0.33232 0.97474 0.0
Co1463 Co 0.45388 0.34888 0.00965 0.0
C1464 C 0.46401 0.31155 0.99287 0.0
O1465 O 0.45103 0.31347 0.98071 0.0
O1466 O 0.46714 0.32422 0.00522 0.0
C1467 C 0.43536 0.32039 0.93816 0.0
O1468 O 0.45284 0.32067 0.94439 0.0
C1469 C 0.4867 0.36747 0.02503 0.0
C1470 C 0.4756 0.38267 0.04994 0.0
C1471 C 0.49158 0.38057 0.03876 0.0
N1472 N 0.46855 0.36258 0.02755 0.0
N1473 N 0.46207 0.37136 0.04272 0.0
C1474 C 0.49887 0.35981 0.00947 0.0
H1475 H 0.49681 0.34433 0.00827 0.0
H1476 H 0.49463 0.3662 -0.00421 0.0
H1477 H 0.51406 0.36266 0.01209 0.0
C1478 C 0.43921 0.37022 0.95964 0.0
N1479 N 0.44156 0.35693 0.97308 0.0
N1480 N 0.4507 0.36424 0.98753 0.0
C1481 C 0.45427 0.38265 0.98368 0.0
C1482 C 0.44728 0.38685 0.96588 0.0
C1483 C 0.42919 0.36708 0.94125 0.0
H1484 H 0.4156 0.3597 0.94379 0.0
H1485 H 0.43817 0.35818 0.93202 0.0
H1486 H 0.42638 0.38043 0.93358 0.0
O1487 O 0.41291 0.33095 0.99536 0.0
O1488 O 0.42869 0.34264 0.02011 0.0
H1489 H 0.456 0.39405 0.01173 0.0
H1490 H 0.45825 0.41142 0.9932 0.0
C1491 C 0.46187 0.39675 -0.00252 0.0
H1492 H 0.47744 0.39559 -0.002 0.0
H1493 H 0.44815 0.37042 0.04753 0.0
O1494 O 0.42206 0.32493 0.94941 0.0
C1495 C 0.41385 0.33536 0.01287 0.0
Co1496 Co 0.4107 0.68463 0.72442 0.0
Co1497 Co 0.39335 0.70833 0.75764 0.0
C1498 C 0.42899 0.72021 0.7396 0.0
O1499 O 0.42809 0.70596 0.72877 0.0
O1500 O 0.41609 0.72355 0.75164 0.0
C1501 C 0.41736 0.68833 0.68716 0.0
O1502 O 0.41175 0.70515 0.69271 0.0
C1503 C 0.37343 0.73999 0.77382 0.0
C1504 C 0.35789 0.72722 0.79773 0.0
C1505 C 0.35973 0.74374 0.78733 0.0
N1506 N 0.3789 0.72194 0.7757 0.0
N1507 N 0.36995 0.71447 0.79031 0.0
C1508 C 0.38123 0.75311 0.75912 0.0
H1509 H 0.39683 0.75357 0.76041 0.0
H1510 H 0.37793 0.74763 0.7448 0.0
H1511 H 0.37573 0.76771 0.76071 0.0
C1512 C 0.37151 0.68711 0.71043 0.0
N1513 N 0.38508 0.6918 0.72296 0.0
N1514 N 0.37775 0.70251 0.73629 0.0
C1515 C 0.35926 0.70529 0.73229 0.0
C1516 C 0.35485 0.69574 0.71579 0.0
C1517 C 0.37433 0.67439 0.69373 0.0
H1518 H 0.38536 0.6637 0.69678 0.0
H1519 H 0.37863 0.68301 0.68137 0.0
H1520 H 0.36113 0.66692 0.68988 0.0
O1521 O 0.41372 0.66672 0.74561 0.0
O1522 O 0.40249 0.68458 0.76918 0.0
H1523 H 0.34697 0.71061 0.75944 0.0
H1524 H 0.33069 0.71303 0.74004 0.0
C1525 C 0.34548 0.71548 0.74465 0.0
H1526 H 0.34838 0.73082 0.74395 0.0
H1527 H 0.37125 0.70038 0.79451 0.0
O1528 O 0.41865 0.67514 0.69935 0.0
C1529 C 0.40998 0.66934 0.76309 0.0
Co1530 Co 0.93116 0.16227 0.014 0.0
Co1531 Co 0.95463 0.14444 0.98085 0.0
C1532 C 0.96666 0.18029 -0.00162 0.0
O1533 O 0.95241 0.17948 0.0092 0.0
O1534 O 0.97004 0.16728 0.98647 0.0
C1535 C 0.9348 0.17079 0.05096 0.0
O1536 O 0.9517 0.16512 0.04572 0.0
C1537 C 0.98602 0.12372 0.96507 0.0
C1538 C 0.97358 0.10957 0.94017 0.0
C1539 C 0.98983 0.11057 0.95105 0.0
N1540 N 0.9682 0.12976 0.96293 0.0
N1541 N 0.96092 0.1216 0.94779 0.0
C1542 C -0.00105 0.13062 0.98036 0.0
H1543 H -8e-05 0.14624 0.97958 0.0
H1544 H 0.99294 0.12706 0.99441 0.0
H1545 H 0.01338 0.12467 0.97901 0.0
C1546 C 0.93398 0.12342 0.02887 0.0
N1547 N 0.93853 0.13674 0.01601 0.0
N1548 N 0.94874 0.12908 0.00246 0.0
C1549 C 0.95113 0.11053 0.00651 0.0
C1550 C 0.94201 0.10647 0.02338 0.0
C1551 C 0.92204 0.12684 0.04604 0.0
H1552 H 0.91087 0.13735 0.04286 0.0
H1553 H 0.93113 0.1323 0.05758 0.0
H1554 H 0.91527 0.11373 0.05123 0.0
O1555 O 0.9132 0.16491 0.99282 0.0
O1556 O 0.9309 0.15351 0.96924 0.0
H1557 H 0.95543 0.09861 0.97897 0.0
H1558 H 0.95652 0.08166 -0.00205 0.0
C1559 C 0.96016 0.09632 0.99371 0.0
H1560 H 0.97569 0.0979 0.99443 0.0
H1561 H 0.94702 0.12352 0.94322 0.0
O1562 O 0.92159 0.17104 0.03877 0.0
C1563 C 0.9157 0.16104 0.97536 0.0
Co1564 Co 0.58024 0.19097 0.7653 0.0
Co1565 Co 0.59774 0.20587 0.7275 0.0
C1566 C 0.56408 0.22432 0.74517 0.0
O1567 O 0.56509 0.21331 0.75928 0.0
O1568 O 0.57567 0.22306 0.73147 0.0
C1569 C 0.5737 0.19719 0.80326 0.0
O1570 O 0.57966 0.21394 0.79783 0.0
C1571 C 0.61753 0.23396 0.70598 0.0
C1572 C 0.63199 0.21766 0.6836 0.0
C1573 C 0.63025 0.23565 0.69118 0.0
N1574 N 0.61204 0.21588 0.70713 0.0
N1575 N 0.6204 0.2062 0.69351 0.0
C1576 C 0.61276 0.24851 0.72063 0.0
H1577 H 0.60801 0.24163 0.7339 0.0
H1578 H 0.62514 0.25765 0.72367 0.0
H1579 H 0.60113 0.25756 0.71527 0.0
C1580 C 0.62013 0.1922 0.77719 0.0
N1581 N 0.60636 0.19565 0.76451 0.0
N1582 N 0.61383 0.20289 0.74907 0.0
C1583 C 0.63267 0.20473 0.75174 0.0
C1584 C 0.63714 0.19799 0.76957 0.0
C1585 C 0.61713 0.18336 0.79621 0.0
H1586 H 0.60594 0.17244 0.79542 0.0
H1587 H 0.61284 0.19446 0.8064 0.0
H1588 H 0.63021 0.17673 0.80167 0.0
O1589 O 0.5736 0.17126 0.74692 0.0
O1590 O 0.58711 0.18114 0.72018 0.0
H1591 H 0.64416 0.20377 0.72375 0.0
H1592 H 0.66126 0.20923 0.74183 0.0
C1593 C 0.64645 0.21147 0.73718 0.0
H1594 H 0.64429 0.22677 0.73465 0.0
H1595 H 0.619 0.19163 0.69163 0.0
O1596 O 0.57252 0.18399 0.79113 0.0
C1597 C 0.5773 0.16914 0.7294 0.0
Co1598 Co 0.90893 0.80701 0.27013 0.0
Co1599 Co 0.89337 0.7816 0.23717 0.0
C1600 C 0.93152 0.77503 0.25226 0.0
O1601 O 0.92911 0.78904 0.26322 0.0
O1602 O 0.91837 0.76939 0.24136 0.0
C1603 C 0.91872 0.8022 0.30682 0.0
O1604 O 0.91856 0.78506 0.29969 0.0
C1605 C 0.87638 0.74893 0.21884 0.0
C1606 C 0.85743 0.76232 0.19795 0.0
C1607 C 0.86206 0.74506 0.20598 0.0
N1608 N 0.87949 0.76765 0.21888 0.0
N1609 N 0.86849 0.77554 0.20601 0.0
C1610 C 0.88696 0.73524 0.23106 0.0
H1611 H 0.90234 0.73793 0.22971 0.0
H1612 H 0.88316 0.73747 0.2461 0.0
H1613 H 0.88407 0.72038 0.22698 0.0
C1614 C 0.87164 0.79871 0.28578 0.0
N1615 N 0.88501 0.79572 0.27259 0.0
N1616 N 0.87836 0.78437 0.25947 0.0
C1617 C 0.86044 0.77954 0.26418 0.0
C1618 C 0.85579 0.78834 0.28112 0.0
C1619 C 0.87286 0.81346 0.30094 0.0
H1620 H 0.88192 0.82537 0.29629 0.0
H1621 H 0.87892 0.80703 0.31388 0.0
H1622 H 0.85867 0.81909 0.30452 0.0
O1623 O 0.90798 0.82621 0.24988 0.0
O1624 O 0.89867 0.80702 0.2266 0.0
H1625 H 0.84561 0.77413 0.2384 0.0
H1626 H 0.83376 0.76524 0.25923 0.0
C1627 C 0.8477 0.76745 0.25242 0.0
H1628 H 0.85431 0.75346 0.25035 0.0
H1629 H 0.86772 0.79007 0.20355 0.0
O1630 O 0.91582 0.81615 0.29579 0.0
C1631 C 0.90398 0.82322 0.23252 0.0
H1632 H 0.03679 0.00509 0.39994 0.0
H1633 H 0.10598 0.06448 0.46716 0.0
H1634 H 0.04763 0.06468 0.39341 0.0
H1635 H 0.10045 0.0038 0.46977 0.0
H1636 H 0.08326 0.06506 0.44114 0.0
H1637 H 0.05829 0.00453 0.42722 0.0
C1638 C 0.04359 0.01805 0.40443 0.0
C1639 C 0.04075 0.03489 0.39443 0.0
C1640 C 0.08717 0.05158 0.44727 0.0
C1641 C 0.06526 0.03444 0.42526 0.0
C1642 C 0.10017 0.05126 0.46206 0.0
C1643 C 0.10548 0.03404 0.47028 0.0
C1644 C 0.07919 0.03456 0.44086 0.0
C1645 C 0.0973 0.01733 0.46341 0.0
C1646 C 0.05592 0.01774 0.41985 0.0
C1647 C 0.04976 0.05137 0.40068 0.0
N1648 N 0.08453 0.01801 0.4491 0.0
N1649 N 0.0617 0.05073 0.41564 0.0
H1650 H 0.19234 0.82379 0.75009 0.0
H1651 H 0.21253 0.81834 0.63899 0.0
H1652 H 0.20123 0.8725 0.71449 0.0
H1653 H 0.19359 0.77026 0.67128 0.0
H1654 H 0.21027 0.83795 0.66729 0.0
H1655 H 0.19333 0.80354 0.72198 0.0
C1656 C 0.1943 0.83023 0.73633 0.0
C1657 C 0.19711 0.84979 0.7346 0.0
C1658 C 0.20669 0.8231 0.66828 0.0
C1659 C 0.19851 0.82678 0.70255 0.0
C1660 C 0.20809 0.81191 0.65217 0.0
C1661 C 0.20338 0.7927 0.65294 0.0
C1662 C 0.20053 0.81501 0.68534 0.0
C1663 C 0.19764 0.78498 0.67026 0.0
C1664 C 0.195 0.81867 0.72033 0.0
C1665 C 0.19959 0.85743 0.7165 0.0
N1666 N 0.19634 0.79619 0.68585 0.0
N1667 N 0.20039 0.8459 0.7012 0.0
H1668 H 0.40992 0.93745 0.99449 0.0
H1669 H 0.423 0.95991 0.88439 0.0
H1670 H 0.36394 0.95324 0.95769 0.0
H1671 H 0.46787 0.93954 0.92016 0.0
H1672 H 0.40117 0.95811 0.91122 0.0
H1673 H 0.43128 0.93775 0.96741 0.0
C1674 C 0.40428 0.94083 0.98066 0.0
C1675 C 0.3852 0.94572 0.9784 0.0
C1676 C 0.4158 0.95413 0.91327 0.0
C1677 C 0.40962 0.9463 0.94736 0.0
C1678 C 0.42824 0.95526 0.89801 0.0
C1679 C 0.44722 0.95015 0.90027 0.0
C1680 C 0.42244 0.94777 0.93086 0.0
C1681 C 0.45339 0.944 0.91804 0.0
C1682 C 0.41652 0.94113 0.96523 0.0
C1683 C 0.37866 0.94996 0.96018 0.0
N1684 N 0.44102 0.94298 0.93269 0.0
N1685 N 0.39088 0.95029 0.94536 0.0
H1686 H 0.31756 0.14009 0.23032 0.0
H1687 H 0.25844 0.20183 0.15631 0.0
H1688 H 0.25688 0.13773 0.22523 0.0
H1689 H 0.31833 0.19218 0.15086 0.0
H1690 H 0.25795 0.18101 0.18406 0.0
H1691 H 0.31859 0.16157 0.20304 0.0
C1692 C 0.30452 0.1439 0.22326 0.0
C1693 C 0.28718 0.13676 0.22961 0.0
C1694 C 0.27121 0.18345 0.1768 0.0
C1695 C 0.28813 0.16157 0.19898 0.0
C1696 C 0.27147 0.19537 0.1611 0.0
C1697 C 0.28839 0.19842 0.15135 0.0
C1698 C 0.28804 0.17477 0.18281 0.0
C1699 C 0.30498 0.18987 0.15798 0.0
C1700 C 0.30508 0.15615 0.20779 0.0
C1701 C 0.2706 0.14241 0.22036 0.0
N1702 N 0.3044 0.17837 0.17333 0.0
N1703 N 0.27147 0.15452 0.20553 0.0
H1704 H 0.09013 0.91981 0.00534 0.0
H1705 H 0.03002 0.97628 0.0824 0.0
H1706 H 0.08428 0.98051 0.00603 0.0
H1707 H 0.02578 0.91596 0.07507 0.0
H1708 H 0.04976 0.97805 0.05404 0.0
H1709 H 0.06656 0.91772 0.03075 0.0
C1710 C 0.08397 0.93267 0.01092 0.0
C1711 C 0.08971 0.95038 0.00409 0.0
C1712 C 0.04446 0.96441 0.05854 0.0
C1713 C 0.06271 0.94816 0.03284 0.0
C1714 C 0.03318 0.96344 0.07466 0.0
C1715 C 0.02672 0.94592 0.08117 0.0
C1716 C 0.04936 0.9477 0.04896 0.0
C1717 C 0.03102 0.92966 0.0707 0.0
C1718 C 0.07052 0.93149 0.02534 0.0
C1719 C 0.08102 0.96661 0.01148 0.0
N1720 N 0.04229 0.9309 0.05519 0.0
N1721 N 0.06809 0.96511 0.02554 0.0
H1722 H 0.31811 0.77954 0.32936 0.0
H1723 H 0.25222 0.84289 0.26268 0.0
H1724 H 0.25801 0.78564 0.33695 0.0
H1725 H 0.31249 0.838 0.25503 0.0
H1726 H 0.25405 0.82118 0.28936 0.0
H1727 H 0.31632 0.79961 0.30111 0.0
C1728 C 0.30454 0.7851 0.32495 0.0
C1729 C 0.28822 0.78133 0.33549 0.0
C1730 C 0.26693 0.82495 0.28199 0.0
C1731 C 0.28598 0.80408 0.30339 0.0
C1732 C 0.26593 0.83758 0.26692 0.0
C1733 C 0.28235 0.84277 0.25711 0.0
C1734 C 0.28446 0.81726 0.28718 0.0
C1735 C 0.29957 0.83461 0.26251 0.0
C1736 C 0.3035 0.79651 0.30889 0.0
C1737 C 0.2709 0.78842 0.32915 0.0
N1738 N 0.30021 0.82231 0.27728 0.0
N1739 N 0.27024 0.79961 0.31357 0.0
H1740 H 0.3985 0.06642 0.51035 0.0
H1741 H 0.45332 0.00407 0.58743 0.0
H1742 H 0.39802 0.00547 0.51202 0.0
H1743 H 0.45372 0.06496 0.58723 0.0
H1744 H 0.43522 0.00441 0.55792 0.0
H1745 H 0.42047 0.06649 0.5372 0.0
C1746 C 0.40287 0.05309 0.51651 0.0
C1747 C 0.39592 0.03595 0.50943 0.0
C1748 C 0.43934 0.01773 0.56423 0.0
C1749 C 0.42124 0.03583 0.53968 0.0
C1750 C 0.44972 0.01749 0.58097 0.0
C1751 C 0.45459 0.0345 0.58972 0.0
C1752 C 0.43386 0.03514 0.55632 0.0
C1753 C 0.44983 0.05158 0.58091 0.0
C1754 C 0.41543 0.05311 0.53173 0.0
C1755 C 0.40235 0.01903 0.51753 0.0
N1756 N 0.43952 0.0515 0.56473 0.0
N1757 N 0.41457 0.01941 0.53226 0.0
H1758 H 0.23086 0.14448 0.76472 0.0
H1759 H 0.16857 0.19464 0.84461 0.0
H1760 H 0.16994 0.14357 0.76481 0.0
H1761 H 0.22887 0.20146 0.83944 0.0
H1762 H 0.16866 0.17484 0.81619 0.0
H1763 H 0.23039 0.16407 0.79304 0.0
C1764 C 0.21737 0.14812 0.77095 0.0
C1765 C 0.2004 0.14196 0.7628 0.0
C1766 C 0.18187 0.18067 0.82124 0.0
C1767 C 0.19972 0.1649 0.79488 0.0
C1768 C 0.18183 0.19187 0.83747 0.0
C1769 C 0.19877 0.19943 0.84436 0.0
C1770 C 0.19902 0.17703 0.81192 0.0
C1771 C 0.21554 0.1958 0.83451 0.0
C1772 C 0.2171 0.15951 0.78698 0.0
C1773 C 0.18331 0.14782 0.7709 0.0
N1774 N 0.21527 0.18476 0.81881 0.0
N1775 N 0.18339 0.1589 0.7866 0.0
H1776 H 0.39992 0.03776 0.00665 0.0
H1777 H 0.48021 0.0894 0.0677 0.0
H1778 H 0.40698 0.02965 0.06657 0.0
H1779 H 0.4717 0.0984 0.00799 0.0
H1780 H 0.45455 0.0661 0.06742 0.0
H1781 H 0.42798 0.05813 0.00639 0.0
C1782 C 0.40763 0.04009 0.01967 0.0
C1783 C 0.4012 0.03235 0.03668 0.0
C1784 C 0.4582 0.07331 0.05442 0.0
C1785 C 0.43292 0.05567 0.03667 0.0
C1786 C 0.47274 0.08666 0.05461 0.0
C1787 C 0.47763 0.09631 0.03801 0.0
C1788 C 0.44869 0.06943 0.03741 0.0
C1789 C 0.46788 0.09193 0.0213 0.0
C1790 C 0.42351 0.05179 0.01959 0.0
C1791 C 0.41153 0.03564 0.05323 0.0
N1792 N 0.45386 0.07884 0.02144 0.0
N1793 N 0.42681 0.04723 0.05287 0.0
H1794 H 0.22003 0.16366 0.29738 0.0
H1795 H 0.1145 0.20352 0.28669 0.0
H1796 H 0.17233 0.12919 0.28171 0.0
H1797 H 0.1624 0.23826 0.30137 0.0
H1798 H 0.13534 0.17598 0.2853 0.0
H1799 H 0.19918 0.1913 0.29879 0.0
C1800 C 0.2052 0.16203 0.29395 0.0
C1801 C 0.19784 0.14429 0.28919 0.0
C1802 C 0.1413 0.18963 0.28883 0.0
C1803 C 0.17387 0.17556 0.29122 0.0
C1804 C 0.12941 0.20536 0.28954 0.0
C1805 C 0.13681 0.22324 0.29379 0.0
C1806 C 0.1607 0.19181 0.29248 0.0
C1807 C 0.15613 0.22472 0.29799 0.0
C1808 C 0.19327 0.17772 0.29492 0.0
C1809 C 0.17848 0.14272 0.28536 0.0
N1810 N 0.16744 0.20923 0.29711 0.0
N1811 N 0.16714 0.15816 0.28647 0.0
H1812 H 0.01829 0.89026 0.56389 0.0
H1813 H 0.09196 0.95293 0.50471 0.0
H1814 H 0.01682 0.89586 0.50319 0.0
H1815 H 0.09371 0.94668 0.5653 0.0
H1816 H 0.06393 0.93255 0.5038 0.0
H1817 H 0.04585 0.91113 0.56473 0.0
C1818 C 0.02393 0.8957 0.55073 0.0
C1819 C 0.0156 0.89091 0.53342 0.0
C1820 C 0.07043 0.93563 0.5173 0.0
C1821 C 0.04686 0.91503 0.53423 0.0
C1822 C 0.08632 0.94732 0.51781 0.0
C1823 C 0.09517 0.95121 0.53507 0.0
C1824 C 0.06336 0.92792 0.53422 0.0
C1825 C 0.08743 0.94367 0.55167 0.0
C1826 C 0.03961 0.90764 0.5512 0.0
C1827 C 0.02323 0.89857 0.51678 0.0
N1828 N 0.07199 0.93232 0.55084 0.0
N1829 N 0.03843 0.91026 0.5176 0.0
H1830 H 0.29121 0.83961 0.81939 0.0
H1831 H 0.34204 0.76046 0.75745 0.0
H1832 H 0.28243 0.83259 0.75955 0.0
H1833 H 0.34612 0.76246 0.81824 0.0
H1834 H 0.31963 0.78644 0.75824 0.0
H1835 H 0.31033 0.81073 0.81975 0.0
C1836 C 0.29325 0.83182 0.80637 0.0
C1837 C 0.2856 0.83845 0.78936 0.0
C1838 C 0.32542 0.78129 0.77144 0.0
C1839 C 0.30732 0.80564 0.78958 0.0
C1840 C 0.33843 0.76657 0.77098 0.0
C1841 C 0.3464 0.75974 0.78778 0.0
C1842 C 0.32027 0.78924 0.78885 0.0
C1843 C 0.34052 0.76763 0.80496 0.0
C1844 C 0.30411 0.81538 0.80656 0.0
C1845 C 0.28828 0.82788 0.77289 0.0
N1846 N 0.32791 0.78214 0.80506 0.0
N1847 N 0.29912 0.81205 0.77336 0.0
H1848 H 0.49165 0.89756 0.4242 0.0
H1849 H 0.4047 0.94813 0.47656 0.0
H1850 H 0.47996 0.89291 0.48386 0.0
H1851 H 0.41644 0.95528 0.41722 0.0
H1852 H 0.43271 0.92806 0.4794 0.0
H1853 H 0.46432 0.91875 0.42097 0.0
C1854 C 0.48317 0.90081 0.43654 0.0
C1855 C 0.48765 0.89297 0.45418 0.0
C1856 C 0.42922 0.93399 0.46572 0.0
C1857 C 0.45677 0.91737 0.45075 0.0
C1858 C 0.4133 0.94547 0.46416 0.0
C1859 C 0.40825 0.95304 0.4466 0.0
C1860 C 0.44016 0.93009 0.44959 0.0
C1861 C 0.41975 0.94931 0.43091 0.0
C1862 C 0.46766 0.91292 0.43473 0.0
C1863 C 0.47655 0.89795 0.46984 0.0
N1864 N 0.43518 0.93799 0.43274 0.0
N1865 N 0.46162 0.90978 0.46774 0.0
H1866 H 0.28354 0.15443 0.66907 0.0
H1867 H 0.35188 0.21827 0.73228 0.0
H1868 H 0.29229 0.14546 0.72866 0.0
H1869 H 0.34898 0.22246 0.67148 0.0
H1870 H 0.32974 0.19207 0.73135 0.0
H1871 H 0.30638 0.18046 0.66985 0.0
C1872 C 0.29032 0.15803 0.68231 0.0
C1873 C 0.28639 0.14776 0.69877 0.0
C1874 C 0.33412 0.19853 0.71817 0.0
C1875 C 0.3123 0.17742 0.69988 0.0
C1876 C 0.34707 0.21335 0.71865 0.0
C1877 C 0.3528 0.22224 0.70185 0.0
C1878 C 0.32658 0.1927 0.70079 0.0
C1879 C 0.34512 0.21584 0.68474 0.0
C1880 C 0.30333 0.17283 0.68277 0.0
C1881 C 0.29512 0.15309 0.71568 0.0
N1882 N 0.33238 0.20146 0.68464 0.0
N1883 N 0.30777 0.16753 0.7158 0.0
H1884 H 0.08822 0.04595 0.91846 0.0
H1885 H 0.00525 0.09055 0.98008 0.0
H1886 H 0.07612 0.02947 0.97587 0.0
H1887 H 0.00976 0.09933 0.91993 0.0
H1888 H 0.03133 0.0682 0.97861 0.0
H1889 H 0.05947 0.0653 0.91825 0.0
C1890 C 0.07937 0.04636 0.93096 0.0
C1891 C 0.08451 0.0364 0.9473 0.0
C1892 C 0.02668 0.07499 0.9657 0.0
C1893 C 0.05183 0.05837 0.94721 0.0
C1894 C 0.01192 0.08794 0.96657 0.0
C1895 C 0.00576 0.09719 0.95017 0.0
C1896 C 0.03539 0.07125 0.94827 0.0
C1897 C 0.01438 0.09268 0.93292 0.0
C1898 C 0.063 0.05732 0.93083 0.0
C1899 C 0.07258 0.03705 0.96305 0.0
N1900 N 0.02894 0.08014 0.93243 0.0
N1901 N 0.05686 0.04805 0.96269 0.0
H1902 H 0.16485 0.7406 0.18326 0.0
H1903 H 0.1702 0.85248 0.19754 0.0
H1904 H 0.11616 0.77657 0.19037 0.0
H1905 H 0.21918 0.81837 0.18527 0.0
H1906 H 0.15021 0.82461 0.19412 0.0
H1907 H 0.18503 0.76874 0.18213 0.0
C1908 C 0.1584 0.75445 0.18428 0.0
C1909 C 0.13891 0.75635 0.18729 0.0
C1910 C 0.16532 0.82314 0.19218 0.0
C1911 C 0.16179 0.78842 0.18628 0.0
C1912 C 0.17671 0.83902 0.19418 0.0
C1913 C 0.19629 0.83758 0.19183 0.0
C1914 C 0.17359 0.80562 0.18784 0.0
C1915 C 0.20412 0.8199 0.18751 0.0
C1916 C 0.16992 0.77047 0.18378 0.0
C1917 C 0.13121 0.77453 0.18852 0.0
N1918 N 0.19272 0.80453 0.18569 0.0
N1919 N 0.14269 0.78987 0.18821 0.0
H1920 H 0.02829 0.38548 0.06606 0.0
H1921 H 0.04854 0.49631 0.07561 0.0
H1922 H 0.0481 0.41963 0.01964 0.0
H1923 H 0.03593 0.45971 0.12275 0.0
H1924 H 0.04818 0.46881 0.05461 0.0
H1925 H 0.02961 0.41314 0.08668 0.0
C1926 C 0.0327 0.39894 0.06022 0.0
C1927 C 0.03791 0.40045 0.04118 0.0
C1928 C 0.04553 0.4668 0.06956 0.0
C1929 C 0.03974 0.43207 0.06463 0.0
C1930 C 0.04586 0.48245 0.08156 0.0
C1931 C 0.04186 0.48029 0.10087 0.0
C1932 C 0.04121 0.4489 0.07697 0.0
C1933 C 0.0385 0.46207 0.10786 0.0
C1934 C 0.03357 0.41468 0.07197 0.0
C1935 C 0.04366 0.41807 0.03421 0.0
N1936 N 0.03811 0.44709 0.0959 0.0
N1937 N 0.04446 0.43326 0.04597 0.0
H1938 H 0.54384 0.99322 0.92424 0.0
H1939 H 0.53266 0.1056 0.92604 0.0
H1940 H 0.53846 0.02732 0.87392 0.0
H1941 H 0.5463 0.0725 0.97535 0.0
H1942 H 0.53419 0.07697 0.90673 0.0
H1943 H 0.54488 0.02199 0.94322 0.0
C1944 C 0.54297 0.00677 0.91716 0.0
C1945 C 0.54057 0.00785 0.89749 0.0
C1946 C 0.53683 0.07592 0.92177 0.0
C1947 C 0.54162 0.04085 0.91917 0.0
C1948 C 0.53593 0.09223 0.93277 0.0
C1949 C 0.53915 0.09127 0.95228 0.0
C1950 C 0.54097 0.05852 0.93039 0.0
C1951 C 0.54335 0.0737 0.96039 0.0
C1952 C 0.54348 0.02319 0.92802 0.0
C1953 C 0.53961 0.02578 0.88908 0.0
N1954 N 0.54409 0.05796 0.94939 0.0
N1955 N 0.53999 0.04159 0.89999 0.0
H1956 H 0.22806 0.25272 0.14912 0.0
H1957 H 0.1559 0.3146 0.21031 0.0
H1958 H 0.22951 0.31367 0.1512 0.0
H1959 H 0.15277 0.25397 0.20563 0.0
H1960 H 0.18445 0.31442 0.1907 0.0
H1961 H 0.20164 0.2528 0.1711 0.0
C1962 C 0.22256 0.26618 0.15384 0.0
C1963 C 0.23058 0.28328 0.14775 0.0
C1964 C 0.17762 0.30113 0.19402 0.0
C1965 C 0.20071 0.28341 0.17366 0.0
C1966 C 0.1614 0.30124 0.20522 0.0
C1967 C 0.15198 0.2843 0.20924 0.0
C1968 C 0.18444 0.28391 0.18687 0.0
C1969 C 0.15966 0.26731 0.20266 0.0
C1970 C 0.20762 0.26618 0.16667 0.0
C1971 C 0.22351 0.30019 0.15529 0.0
N1972 N 0.17539 0.26755 0.19162 0.0
N1973 N 0.2089 0.29984 0.16778 0.0
H1974 H 0.98382 0.97632 0.39078 0.0
H1975 H 0.91781 0.90417 0.44747 0.0
H1976 H 0.92291 0.9781 0.38869 0.0
H1977 H 0.97857 0.90472 0.45147 0.0
H1978 H 0.91922 0.93146 0.42621 0.0
H1979 H 0.98209 0.94996 0.41275 0.0
C1980 C 0.97005 0.9709 0.39457 0.0
C1981 C 0.95346 0.97905 0.3874 0.0
C1982 C 0.93225 0.9257 0.43178 0.0
C1983 C 0.95137 0.94922 0.41324 0.0
C1984 C 0.93144 0.91014 0.44386 0.0
C1985 C 0.94812 0.90218 0.45096 0.0
C1986 C 0.9499 0.9333 0.42678 0.0
C1987 C 0.96542 0.91052 0.44621 0.0
C1988 C 0.96908 0.95599 0.4074 0.0
C1989 C 0.93604 0.97202 0.39369 0.0
N1990 N 0.96588 0.92557 0.43428 0.0
N1991 N 0.93543 0.95743 0.4062 0.0
H1992 H 0.83254 0.2333 0.20699 0.0
H1993 H 0.7595 0.17303 0.14488 0.0
H1994 H 0.83034 0.17245 0.20738 0.0
H1995 H 0.76192 0.23398 0.14512 0.0
H1996 H 0.78453 0.17238 0.16877 0.0
H1997 H 0.80513 0.23387 0.18581 0.0
C1998 C 0.82604 0.22009 0.20278 0.0
C1999 C 0.83366 0.20281 0.20861 0.0
C2000 C 0.77967 0.18589 0.16346 0.0
C2001 C 0.80268 0.20322 0.18432 0.0
C2002 C 0.76547 0.18625 0.14978 0.0
C2003 C 0.75902 0.20354 0.14254 0.0
C2004 C 0.78732 0.20298 0.1701 0.0
C2005 C 0.76694 0.22029 0.14964 0.0
C2006 C 0.81052 0.22037 0.19062 0.0
C2007 C 0.82488 0.18603 0.20288 0.0
N2008 N 0.78069 0.21958 0.16299 0.0
N2009 N 0.80993 0.18663 0.19088 0.0
H2010 H 0.41955 0.58433 0.53056 0.0
H2011 H 0.48007 0.51418 0.59532 0.0
H2012 H 0.47942 0.59009 0.53987 0.0
H2013 H 0.41925 0.51208 0.59172 0.0
H2014 H 0.48024 0.54092 0.57371 0.0
H2015 H 0.41932 0.55631 0.551 0.0
C2016 C 0.43264 0.57958 0.53692 0.0
C2017 C 0.44947 0.58955 0.53395 0.0
C2018 C 0.46681 0.53478 0.57778 0.0
C2019 C 0.44942 0.55767 0.55709 0.0
C2020 C 0.46668 0.51966 0.59038 0.0
C2021 C 0.44954 0.51137 0.5959 0.0
C2022 C 0.44969 0.5415 0.57038 0.0
C2023 C 0.43273 0.51835 0.58808 0.0
C2024 C 0.43252 0.56365 0.54855 0.0
C2025 C 0.46617 0.58275 0.54204 0.0
N2026 N 0.43321 0.53309 0.57575 0.0
N2027 N 0.46571 0.56727 0.55338 0.0
H2028 H 0.22414 0.73024 0.3452 0.0
H2029 H 0.15991 0.66837 0.27609 0.0
H2030 H 0.22819 0.66947 0.34151 0.0
H2031 H 0.1555 0.72883 0.2817 0.0
H2032 H 0.187 0.66858 0.29772 0.0
H2033 H 0.20034 0.73 0.32064 0.0
C2034 C 0.21973 0.71675 0.3396 0.0
C2035 C 0.22776 0.69975 0.34596 0.0
C2036 C 0.18028 0.68184 0.29406 0.0
C2037 C 0.20086 0.69948 0.31702 0.0
C2038 C 0.16496 0.68171 0.28167 0.0
C2039 C 0.15555 0.69859 0.27738 0.0
C2040 C 0.18612 0.69899 0.30217 0.0
C2041 C 0.16248 0.71555 0.28477 0.0
C2042 C 0.20629 0.71667 0.32527 0.0
C2043 C 0.2221 0.68286 0.33726 0.0
N2044 N 0.17726 0.71531 0.297 0.0
N2045 N 0.20891 0.68313 0.32329 0.0
H2046 H 0.26322 0.25218 0.84567 0.0
H2047 H 0.33474 0.31392 0.78357 0.0
H2048 H 0.26274 0.31316 0.84433 0.0
H2049 H 0.33859 0.25339 0.78904 0.0
H2050 H 0.30642 0.31368 0.80348 0.0
H2051 H 0.28939 0.25213 0.82334 0.0
C2052 C 0.2689 0.26559 0.84104 0.0
C2053 C 0.26124 0.28275 0.84742 0.0
C2054 C 0.31336 0.30042 0.80028 0.0
C2055 C 0.29074 0.28275 0.82114 0.0
C2056 C 0.32944 0.30057 0.78891 0.0
C2057 C 0.33901 0.28368 0.78505 0.0
C2058 C 0.30682 0.28322 0.80774 0.0
C2059 C 0.33158 0.26669 0.79192 0.0
C2060 C 0.28368 0.26554 0.82803 0.0
C2061 C 0.26848 0.29964 0.84001 0.0
N2062 N 0.31597 0.26689 0.80312 0.0
N2063 N 0.2829 0.29923 0.82732 0.0
H2064 H 0.54807 0.56706 0.89592 0.0
H2065 H 0.59506 0.50222 0.97569 0.0
H2066 H 0.53832 0.50711 0.90084 0.0
H2067 H 0.60377 0.56247 0.97192 0.0
H2068 H 0.57414 0.50378 0.94843 0.0
H2069 H 0.56802 0.56586 0.92413 0.0
C2070 C 0.55018 0.55365 0.90302 0.0
C2071 C 0.54185 0.5371 0.89603 0.0
C2072 C 0.58071 0.51666 0.95345 0.0
C2073 C 0.56446 0.53559 0.92825 0.0
C2074 C 0.5929 0.51574 0.96887 0.0
C2075 C 0.60164 0.53218 0.97568 0.0
C2076 C 0.57711 0.53418 0.94485 0.0
C2077 C 0.59749 0.54944 0.9669 0.0
C2078 C 0.5615 0.55296 0.91911 0.0
C2079 C 0.54462 0.52014 0.90583 0.0
N2080 N 0.58559 0.55 0.95185 0.0
N2081 N 0.55582 0.51978 0.92142 0.0
H2082 H 0.73162 0.28433 0.15351 0.0
H2083 H 0.67627 0.35261 0.22511 0.0
H2084 H 0.67216 0.29677 0.14902 0.0
H2085 H 0.73601 0.34097 0.22848 0.0
H2086 H 0.6741 0.33128 0.19791 0.0
H2087 H 0.73323 0.304 0.18196 0.0
C2088 C 0.71891 0.29117 0.15862 0.0
C2089 C 0.70181 0.28922 0.14888 0.0
C2090 C 0.68771 0.33351 0.20453 0.0
C2091 C 0.70346 0.31173 0.18122 0.0
C2092 C 0.68894 0.34568 0.22002 0.0
C2093 C 0.70644 0.34901 0.22867 0.0
C2094 C 0.70408 0.32445 0.19784 0.0
C2095 C 0.72238 0.33946 0.22176 0.0
C2096 C 0.71981 0.30244 0.17478 0.0
C2097 C 0.68569 0.29827 0.156 0.0
N2098 N 0.72083 0.32765 0.20673 0.0
N2099 N 0.68691 0.30922 0.17171 0.0
H2100 H 0.89478 0.42016 0.4808 0.0
H2101 H 0.95734 0.47926 0.4069 0.0
H2102 H 0.90081 0.48083 0.48151 0.0
H2103 H 0.94997 0.41886 0.40363 0.0
H2104 H 0.93828 0.47968 0.43578 0.0
H2105 H 0.9165 0.41883 0.45373 0.0
C2106 C 0.90058 0.43317 0.47518 0.0
C2107 C 0.89552 0.45066 0.483 0.0
C2108 C 0.94084 0.46631 0.42879 0.0
C2109 C 0.92047 0.4493 0.4524 0.0
C2110 C 0.95177 0.46609 0.41239 0.0
C2111 C 0.95493 0.44906 0.40286 0.0
C2112 C 0.93309 0.44934 0.43569 0.0
C2113 C 0.94749 0.43233 0.41047 0.0
C2114 C 0.91296 0.43243 0.45978 0.0
C2115 C 0.90368 0.4671 0.47548 0.0
N2116 N 0.9368 0.43288 0.42642 0.0
N2117 N 0.91567 0.46602 0.46058 0.0
H2118 H 0.7518 0.63972 0.72031 0.0
H2119 H 0.81692 0.70546 0.65522 0.0
H2120 H 0.8127 0.64061 0.72342 0.0
H2121 H 0.75656 0.70117 0.64872 0.0
H2122 H 0.8154 0.68325 0.68175 0.0
H2123 H 0.75303 0.66292 0.69491 0.0
C2124 C 0.76548 0.64438 0.71533 0.0
C2125 C 0.78223 0.63774 0.72362 0.0
C2126 C 0.80245 0.6872 0.67461 0.0
C2127 C 0.78368 0.66503 0.69504 0.0
C2128 C 0.80333 0.69988 0.65956 0.0
C2129 C 0.78687 0.70481 0.64977 0.0
C2130 C 0.78493 0.67948 0.67991 0.0
C2131 C 0.76954 0.69754 0.65596 0.0
C2132 C 0.76614 0.65791 0.701 0.0
C2133 C 0.79946 0.64517 0.71723 0.0
N2134 N 0.76902 0.68507 0.67058 0.0
N2135 N 0.79975 0.6584 0.70331 0.0
H2136 H 0.59389 0.41779 0.5092 0.0
H2137 H 0.53757 0.47501 0.58896 0.0
H2138 H 0.59595 0.47845 0.51526 0.0
H2139 H 0.52761 0.41615 0.5769 0.0
H2140 H 0.55955 0.47647 0.56223 0.0
H2141 H 0.57039 0.4165 0.53466 0.0
C2142 C 0.58959 0.43079 0.51607 0.0
C2143 C 0.59739 0.44816 0.51055 0.0
C2144 C 0.55253 0.46323 0.56536 0.0
C2145 C 0.57035 0.44689 0.53936 0.0
C2146 C 0.53996 0.46245 0.58052 0.0
C2147 C 0.53113 0.44538 0.58518 0.0
C2148 C 0.55627 0.44677 0.55486 0.0
C2149 C 0.53456 0.42946 0.57392 0.0
C2150 C 0.57614 0.43007 0.53051 0.0
C2151 C 0.59104 0.46465 0.51959 0.0
N2152 N 0.54701 0.43049 0.55933 0.0
N2153 N 0.57796 0.46359 0.53358 0.0
H2154 H 0.78594 0.37173 0.77254 0.0
H2155 H 0.79727 0.269 0.81895 0.0
H2156 H 0.79532 0.32119 0.73978 0.0
H2157 H 0.77953 0.31851 0.84971 0.0
H2158 H 0.79899 0.28804 0.78999 0.0
H2159 H 0.78669 0.35278 0.80141 0.0
C2160 C 0.78813 0.35663 0.77144 0.0
C2161 C 0.79009 0.34792 0.75377 0.0
C2162 C 0.79465 0.29473 0.80306 0.0
C2163 C 0.79122 0.32616 0.78669 0.0
C2164 C 0.7935 0.28384 0.8195 0.0
C2165 C 0.78798 0.29222 0.83657 0.0
C2166 C 0.7904 0.31413 0.80382 0.0
C2167 C 0.78378 0.31156 0.83675 0.0
C2168 C 0.78861 0.34581 0.78791 0.0
C2169 C 0.79361 0.32841 0.75316 0.0
N2170 N 0.78507 0.32188 0.82062 0.0
N2171 N 0.79389 0.31813 0.76939 0.0
H2172 H 0.89201 0.5658 0.0122 0.0
H2173 H 0.95734 0.50465 0.08179 0.0
H2174 H 0.89769 0.50517 0.00896 0.0
H2175 H 0.94681 0.56424 0.0888 0.0
H2176 H 0.93815 0.50506 0.05287 0.0
H2177 H 0.91441 0.56604 0.03859 0.0
C2178 C 0.89784 0.55254 0.01718 0.0
C2179 C 0.89254 0.5354 0.00882 0.0
C2180 C 0.94011 0.51807 0.06068 0.0
C2181 C 0.91836 0.53553 0.03863 0.0
C2182 C 0.95112 0.51783 0.07706 0.0
C2183 C 0.9533 0.53437 0.08765 0.0
C2184 C 0.9314 0.53502 0.05496 0.0
C2185 C 0.94511 0.55115 0.08107 0.0
C2186 C 0.91064 0.55267 0.03217 0.0
C2187 C 0.90077 0.51863 0.01548 0.0
N2188 N 0.93439 0.55103 0.06518 0.0
N2189 N 0.91324 0.51911 0.03004 0.0
H2190 H 0.71621 0.68039 0.35163 0.0
H2191 H 0.6905 0.66932 0.24247 0.0
H2192 H 0.68708 0.72392 0.32049 0.0
H2193 H 0.70331 0.62226 0.27913 0.0
H2194 H 0.69114 0.69039 0.26989 0.0
H2195 H 0.71477 0.65989 0.32387 0.0
C2196 C 0.70972 0.68566 0.33879 0.0
C2197 C 0.7019 0.70384 0.33818 0.0
C2198 C 0.69379 0.67545 0.2719 0.0
C2199 C 0.7 0.68051 0.30649 0.0
C2200 C 0.69334 0.66339 0.2563 0.0
C2201 C 0.69736 0.64408 0.25847 0.0
C2202 C 0.69834 0.6681 0.28976 0.0
C2203 C 0.70085 0.63715 0.2767 0.0
C2204 C 0.70878 0.67396 0.32303 0.0
C2205 C 0.69356 0.71008 0.32134 0.0
N2206 N 0.70144 0.64919 0.29162 0.0
N2207 N 0.69281 0.6984 0.30609 0.0
H2208 H 0.91084 0.53264 0.50919 0.0
H2209 H 0.9808 0.59891 0.56878 0.0
H2210 H 0.90471 0.54253 0.56897 0.0
H2211 H 0.98014 0.59588 0.5079 0.0
H2212 H 0.95521 0.57549 0.56981 0.0
H2213 H 0.93921 0.55257 0.50912 0.0
C2214 C 0.91568 0.53886 0.52231 0.0
C2215 C 0.90545 0.53633 0.53903 0.0
C2216 C 0.96061 0.58007 0.55623 0.0
C2217 C 0.93755 0.55909 0.53914 0.0
C2218 C 0.97511 0.59345 0.55565 0.0
C2219 C 0.98211 0.59976 0.53823 0.0
C2220 C 0.95336 0.57276 0.53924 0.0
C2221 C 0.97465 0.59196 0.52161 0.0
C2222 C 0.93174 0.5503 0.52229 0.0
C2223 C 0.91219 0.54449 0.55575 0.0
N2224 N 0.96065 0.5789 0.52252 0.0
N2225 N 0.92777 0.55568 0.55538 0.0
H2226 H 0.63527 0.71829 0.81543 0.0
H2227 H 0.69904 0.64751 0.75403 0.0
H2228 H 0.64194 0.72265 0.75497 0.0
H2229 H 0.69166 0.64291 0.81434 0.0
H2230 H 0.67854 0.67549 0.75401 0.0
H2231 H 0.65604 0.69064 0.81533 0.0
C2232 C 0.64092 0.71326 0.80212 0.0
C2233 C 0.63647 0.72243 0.78514 0.0
C2234 C 0.68139 0.66836 0.76725 0.0
C2235 C 0.66047 0.69109 0.78489 0.0
C2236 C 0.69313 0.6525 0.76725 0.0
C2237 C 0.69674 0.64288 0.78416 0.0
C2238 C 0.67336 0.67462 0.78433 0.0
C2239 C 0.68887 0.64981 0.80096 0.0
C2240 C 0.6528 0.69753 0.80205 0.0
C2241 C 0.64439 0.71558 0.76829 0.0
N2242 N 0.67748 0.66523 0.80062 0.0
N2243 N 0.65602 0.70032 0.76859 0.0
H2244 H 0.59041 0.44494 0.07164 0.0
H2245 H 0.50943 0.39751 0.00897 0.0
H2246 H 0.58453 0.4534 0.01159 0.0
H2247 H 0.51132 0.39258 0.06971 0.0
H2248 H 0.53691 0.41804 0.00991 0.0
H2249 H 0.56135 0.42608 0.07159 0.0
C2250 C 0.58292 0.4428 0.05846 0.0
C2251 C 0.58987 0.45044 0.04154 0.0
C2252 C 0.53143 0.41244 0.02306 0.0
C2253 C 0.55673 0.42909 0.04135 0.0
C2254 C 0.51583 0.40049 0.02252 0.0
C2255 C 0.50845 0.39284 0.03927 0.0
C2256 C 0.53972 0.4169 0.0405 0.0
C2257 C 0.51681 0.39797 0.05647 0.0
C2258 C 0.56634 0.43213 0.05844 0.0
C2259 C 0.57958 0.44766 0.0249 0.0
N2260 N 0.53214 0.40959 0.05666 0.0
N2261 N 0.56357 0.43707 0.02519 0.0
H2262 H 0.79919 0.34448 0.32242 0.0
H2263 H 0.82232 0.24289 0.27987 0.0
H2264 H 0.78242 0.32795 0.26619 0.0
H2265 H 0.85969 0.27096 0.31885 0.0
H2266 H 0.80203 0.27105 0.27945 0.0
H2267 H 0.8163 0.31459 0.32578 0.0
C2268 C 0.79922 0.33459 0.31073 0.0
C2269 C 0.78981 0.33884 0.2938 0.0
C2270 C 0.81455 0.27094 0.28826 0.0
C2271 C 0.80865 0.30445 0.29787 0.0
C2272 C 0.82599 0.25492 0.2886 0.0
C2273 C 0.8425 0.25479 0.2995 0.0
C2274 C 0.81961 0.28675 0.29909 0.0
C2275 C 0.84692 0.27064 0.31043 0.0
C2276 C 0.80884 0.31753 0.31274 0.0
C2277 C 0.7896 0.32522 0.27942 0.0
N2278 N 0.83549 0.28608 0.30998 0.0
N2279 N 0.79894 0.30859 0.28176 0.0
H2280 H 0.9049 0.45575 0.97613 0.0
H2281 H 0.98078 0.39221 0.92103 0.0
H2282 H 0.90373 0.44731 0.91581 0.0
H2283 H 0.97453 0.39284 0.98167 0.0
H2284 H 0.95405 0.41419 0.91847 0.0
H2285 H 0.9325 0.43492 0.97817 0.0
C2286 C 0.91063 0.44962 0.96331 0.0
C2287 C 0.90207 0.45302 0.94581 0.0
C2288 C 0.95842 0.40934 0.93232 0.0
C2289 C 0.93337 0.42917 0.94796 0.0
C2290 C 0.97358 0.39678 0.93375 0.0
C2291 C 0.97945 0.3903 0.95152 0.0
C2292 C 0.94937 0.41571 0.94882 0.0
C2293 C 0.97001 0.39694 0.96765 0.0
C2294 C 0.92625 0.43765 0.96447 0.0
C2295 C 0.90989 0.44477 0.92958 0.0
N2296 N 0.95545 0.4093 0.96591 0.0
N2297 N 0.92509 0.43315 0.93104 0.0
H2298 H 0.78896 0.65054 0.23136 0.0
H2299 H 0.84608 0.73018 0.17426 0.0
H2300 H 0.78787 0.65552 0.17068 0.0
H2301 H 0.85014 0.72182 0.23452 0.0
H2302 H 0.82408 0.70344 0.1725 0.0
H2303 H 0.81034 0.67777 0.23288 0.0
C2304 C 0.79318 0.65752 0.21839 0.0
C2305 C 0.78698 0.65079 0.20088 0.0
C2306 C 0.82998 0.70733 0.18608 0.0
C2307 C 0.81137 0.68171 0.20237 0.0
C2308 C 0.84257 0.72251 0.18705 0.0
C2309 C 0.85038 0.72784 0.20445 0.0
C2310 C 0.82495 0.69766 0.2027 0.0
C2311 C 0.84507 0.71775 0.2207 0.0
C2312 C 0.80543 0.67295 0.21921 0.0
C2313 C 0.79267 0.66024 0.18442 0.0
N2314 N 0.83268 0.70317 0.21942 0.0
N2315 N 0.80465 0.6752 0.18554 0.0
H2316 H 0.51655 0.5971 0.48274 0.0
H2317 H 0.58689 0.5345 0.42016 0.0
H2318 H 0.51488 0.59576 0.42179 0.0
H2319 H 0.58829 0.53639 0.48101 0.0
H2320 H 0.55943 0.55563 0.42038 0.0
H2321 H 0.54224 0.57429 0.48233 0.0
C2322 C 0.52188 0.59237 0.46922 0.0
C2323 C 0.51398 0.59886 0.45222 0.0
C2324 C 0.56564 0.55136 0.43371 0.0
C2325 C 0.543 0.57203 0.45169 0.0
C2326 C 0.58123 0.5393 0.43357 0.0
C2327 C 0.58985 0.53403 0.45059 0.0
C2328 C 0.55866 0.55812 0.45103 0.0
C2329 C 0.582 0.5403 0.46761 0.0
C2330 C 0.5364 0.57907 0.46901 0.0
C2331 C 0.52082 0.59135 0.43519 0.0
N2332 N 0.56691 0.55218 0.46741 0.0
N2333 N 0.53501 0.57839 0.43534 0.0
H2334 H 0.61937 0.27241 0.68821 0.0
H2335 H 0.72411 0.31433 0.68095 0.0
H2336 H 0.66836 0.2363 0.685 0.0
H2337 H 0.6756 0.34546 0.70071 0.0
H2338 H 0.70427 0.28581 0.67847 0.0
H2339 H 0.64 0.30003 0.68736 0.0
C2340 C 0.63451 0.27035 0.68719 0.0
C2341 C 0.64226 0.25216 0.6871 0.0
C2342 C 0.69806 0.29889 0.68344 0.0
C2343 C 0.66597 0.28359 0.68613 0.0
C2344 C 0.70938 0.31503 0.68504 0.0
C2345 C 0.70141 0.3321 0.69119 0.0
C2346 C 0.6787 0.30007 0.68779 0.0
C2347 C 0.6822 0.33252 0.69588 0.0
C2348 C 0.64628 0.28608 0.68675 0.0
C2349 C 0.6619 0.25017 0.68521 0.0
N2350 N 0.67149 0.31677 0.69401 0.0
N2351 N 0.67317 0.26576 0.68501 0.0
H2352 H 0.55262 0.92055 0.52398 0.0
H2353 H 0.542 0.96174 0.62875 0.0
H2354 H 0.53094 0.88882 0.5713 0.0
H2355 H 0.54883 -0.00225 0.58 0.0
H2356 H 0.54239 0.93414 0.60804 0.0
H2357 H 0.5545 0.94873 0.54424 0.0
C2358 C 0.54796 0.91965 0.53854 0.0
C2359 C 0.54143 0.90251 0.54602 0.0
C2360 C 0.54385 0.94807 0.60185 0.0
C2361 C 0.54414 0.93422 0.56928 0.0
C2362 C 0.54363 0.9638 0.61367 0.0
C2363 C 0.54492 0.982 0.60599 0.0
C2364 C 0.54553 0.95058 0.58222 0.0
C2365 C 0.54768 0.98391 0.58644 0.0
C2366 C 0.54922 0.93562 0.55012 0.0
C2367 C 0.53603 0.90184 0.56506 0.0
N2368 N 0.54771 0.96836 0.57515 0.0
N2369 N 0.53758 0.91744 0.57606 0.0
H2370 H 0.00759 0.51637 0.39484 0.0
H2371 H 0.07418 0.58531 0.45465 0.0
H2372 H 0.06849 0.51457 0.39214 0.0
H2373 H 0.01406 0.59314 0.44914 0.0
H2374 H 0.07228 0.55788 0.43355 0.0
H2375 H 0.00956 0.5434 0.41599 0.0
C2376 C 0.02139 0.52195 0.39825 0.0
C2377 C 0.03792 0.51358 0.39114 0.0
C2378 C 0.0595 0.56559 0.43693 0.0
C2379 C 0.04027 0.54408 0.41619 0.0
C2380 C 0.0606 0.58123 0.4489 0.0
C2381 C 0.0443 0.59158 0.45324 0.0
C2382 C 0.04191 0.56022 0.42944 0.0
C2383 C 0.02694 0.5855 0.44597 0.0
C2384 C 0.0225 0.53725 0.41061 0.0
C2385 C 0.0554 0.52078 0.39708 0.0
N2386 N 0.0262 0.57024 0.43433 0.0
N2387 N 0.05613 0.53564 0.40924 0.0
H2388 H 0.65226 0.76154 0.70509 0.0
H2389 H 0.72673 0.82155 0.64415 0.0
H2390 H 0.6525 0.82242 0.70263 0.0
H2391 H 0.72312 0.76068 0.64309 0.0
H2392 H 0.70039 0.82228 0.66664 0.0
H2393 H 0.67965 0.76092 0.68384 0.0
C2394 C 0.65826 0.77476 0.70019 0.0
C2395 C 0.65013 0.79203 0.70536 0.0
C2396 C 0.70525 0.80877 0.66132 0.0
C2397 C 0.68116 0.79154 0.68103 0.0
C2398 C 0.7202 0.80837 0.64845 0.0
C2399 C 0.72675 0.79109 0.64133 0.0
C2400 C 0.69698 0.79172 0.66731 0.0
C2401 C 0.71809 0.77438 0.64763 0.0
C2402 C 0.67376 0.77443 0.68798 0.0
C2403 C 0.65829 0.80881 0.69868 0.0
N2404 N 0.70367 0.77511 0.66026 0.0
N2405 N 0.67332 0.80815 0.68677 0.0
H2406 H 0.41801 0.4088 0.9539 0.0
H2407 H 0.48528 0.47633 0.89313 0.0
H2408 H 0.47879 0.4055 0.95452 0.0
H2409 H 0.42441 0.47973 0.89182 0.0
H2410 H 0.48315 0.45119 0.91646 0.0
H2411 H 0.41997 0.43623 0.93279 0.0
C2412 C 0.43176 0.41406 0.94968 0.0
C2413 C 0.44827 0.4049 0.9556 0.0
C2414 C 0.47023 0.45731 0.91099 0.0
C2415 C 0.4507 0.43599 0.93153 0.0
C2416 C 0.47143 0.47149 0.89739 0.0
C2417 C 0.45496 0.47971 0.89002 0.0
C2418 C 0.45243 0.45137 0.91743 0.0
C2419 C 0.43744 0.47354 0.89693 0.0
C2420 C 0.4329 0.42962 0.93763 0.0
C2421 C 0.46578 0.41223 0.95008 0.0
N2422 N 0.43662 0.45965 0.9102 0.0
N2423 N 0.46655 0.42727 0.93817 0.0
H2424 H 0.26649 0.73309 0.64162 0.0
H2425 H 0.33119 0.66667 0.70629 0.0
H2426 H 0.25659 0.67324 0.64783 0.0
H2427 H 0.33856 0.72687 0.70078 0.0
H2428 H 0.30359 0.66844 0.68534 0.0
H2429 H 0.29311 0.73072 0.66309 0.0
C2430 C 0.27021 0.71932 0.64713 0.0
C2431 C 0.25971 0.70319 0.64241 0.0
C2432 C 0.31119 0.68128 0.68876 0.0
C2433 C 0.28983 0.7005 0.66777 0.0
C2434 C 0.3269 0.68025 0.70065 0.0
C2435 C 0.33715 0.69663 0.70492 0.0
C2436 C 0.3058 0.69884 0.68119 0.0
C2437 C 0.33096 0.71395 0.69769 0.0
C2438 C 0.28528 0.71803 0.65967 0.0
C2439 C 0.26458 0.68593 0.65086 0.0
N2440 N 0.31575 0.7146 0.68605 0.0
N2441 N 0.27937 0.685 0.6631 0.0
H2442 H 0.91176 0.08477 0.03389 0.0
H2443 H 0.9759 0.01222 0.09228 0.0
H2444 H 0.97252 0.08749 0.03655 0.0
H2445 H 0.91498 0.01163 0.09439 0.0
H2446 H 0.97473 0.03878 0.07056 0.0
H2447 H 0.91239 0.05669 0.05428 0.0
C2448 C 0.92521 0.07938 0.03881 0.0
C2449 C 0.9421 0.08851 0.03394 0.0
C2450 C 0.96158 0.03301 0.07587 0.0
C2451 C 0.94301 0.0565 0.05696 0.0
C2452 C 0.96224 0.01796 0.08853 0.0
C2453 C 0.9455 0.01016 0.09573 0.0
C2454 C 0.94403 0.04022 0.07012 0.0
C2455 C 0.92821 0.01752 0.08943 0.0
C2456 C 0.92559 0.06339 0.05038 0.0
C2457 C 0.95921 0.08083 0.04016 0.0
N2458 N 0.92791 0.03224 0.07704 0.0
N2459 N 0.95924 0.06532 0.05147 0.0
H2460 H 0.65851 0.16804 0.78099 0.0
H2461 H 0.72466 0.2334 0.84455 0.0
H2462 H 0.65683 0.2289 0.78042 0.0
H2463 H 0.73391 0.17342 0.8386 0.0
H2464 H 0.69931 0.23162 0.82151 0.0
H2465 H 0.68633 0.16926 0.80168 0.0
C2466 C 0.66426 0.18164 0.78506 0.0
C2467 C 0.65549 0.19841 0.77926 0.0
C2468 C 0.70676 0.21879 0.82529 0.0
C2469 C 0.68687 0.19998 0.80292 0.0
C2470 C 0.72107 0.21974 0.83871 0.0
C2471 C 0.73099 0.2034 0.84395 0.0
C2472 C 0.70234 0.20136 0.81692 0.0
C2473 C 0.72632 0.18627 0.83516 0.0
C2474 C 0.68003 0.18235 0.79686 0.0
C2475 C 0.6633 0.21571 0.78471 0.0
N2476 N 0.7122 0.18565 0.82214 0.0
N2477 N 0.67847 0.21606 0.79643 0.0
H2478 H 0.77538 0.79463 0.37192 0.0
H2479 H 0.82021 0.79657 0.26802 0.0
H2480 H 0.74127 0.79732 0.32149 0.0
H2481 H 0.8509 0.78099 0.31829 0.0
H2482 H 0.79131 0.79959 0.28708 0.0
H2483 H 0.80375 0.79353 0.35229 0.0
C2484 C 0.7739 0.79505 0.35669 0.0
C2485 C 0.75601 0.79563 0.34828 0.0
C2486 C 0.80435 0.79538 0.29389 0.0
C2487 C 0.78834 0.7945 0.32571 0.0
C2488 C 0.82074 0.79345 0.28301 0.0
C2489 C 0.83779 0.78829 0.29165 0.0
C2490 C 0.8052 0.79233 0.31351 0.0
C2491 C 0.83795 0.78494 0.31116 0.0
C2492 C 0.79007 0.79441 0.34549 0.0
C2493 C 0.75486 0.79676 0.32851 0.0
N2494 N 0.82192 0.78708 0.32145 0.0
N2495 N 0.77083 0.79599 0.31784 0.0
H2496 H 0.16729 0.07238 0.33433 0.0
H2497 H 0.07331 0.05223 0.27466 0.0
H2498 H 0.16653 0.04721 0.27875 0.0
H2499 H 0.07321 0.08073 0.32864 0.0
H2500 H 0.10766 0.05053 0.27602 0.0
H2501 H 0.13269 0.07425 0.33347 0.0
C2502 C 0.15983 0.06693 0.32213 0.0
C2503 C 0.16975 0.05976 0.30653 0.0
C2504 C 0.10014 0.05725 0.28754 0.0
C2505 C 0.13041 0.06216 0.30528 0.0
C2506 C 0.08052 0.05837 0.28669 0.0
C2507 C 0.07034 0.06641 0.30167 0.0
C2508 C 0.10968 0.06418 0.30352 0.0
C2509 C 0.08047 0.07417 0.31688 0.0
C2510 C 0.14013 0.0682 0.32153 0.0
C2511 C 0.15944 0.05301 0.29101 0.0
N2512 N 0.0996 0.0727 0.31751 0.0
N2513 N 0.14036 0.05448 0.29074 0.0
H2514 H 0.219 0.83182 0.56247 0.0
H2515 H 0.15907 0.92428 0.58736 0.0
H2516 H 0.1606 0.8299 0.58006 0.0
H2517 H 0.21639 0.92518 0.56637 0.0
H2518 H 0.15995 0.88975 0.58729 0.0
H2519 H 0.21843 0.86608 0.5651 0.0
C2520 C 0.20597 0.83864 0.56673 0.0
C2521 C 0.18981 0.82799 0.57104 0.0
C2522 C 0.17237 0.89752 0.58284 0.0
C2523 C 0.18913 0.86733 0.57434 0.0
C2524 C 0.17193 0.91724 0.58297 0.0
C2525 C 0.18757 0.92766 0.57654 0.0
C2526 C 0.18861 0.88817 0.57633 0.0
C2527 C 0.20394 0.91777 0.5713 0.0
C2528 C 0.20569 0.85823 0.56832 0.0
C2529 C 0.17333 0.8376 0.57646 0.0
N2530 N 0.20395 0.89858 0.57114 0.0
N2531 N 0.17343 0.85677 0.57805 0.0
H2532 H 0.32552 0.90936 0.82794 0.0
H2533 H 0.42279 0.95278 0.79128 0.0
H2534 H 0.3298 0.94736 0.78033 0.0
H2535 H 0.42026 0.9046 0.82865 0.0
H2536 H 0.38857 0.95156 0.78784 0.0
H2537 H 0.36006 0.90873 0.83001 0.0
C2538 C 0.3337 0.91773 0.81806 0.0
C2539 C 0.32478 0.92843 0.80393 0.0
C2540 C 0.39547 0.94112 0.79665 0.0
C2541 C 0.36419 0.92762 0.80612 0.0
C2542 C 0.41502 0.94177 0.79858 0.0
C2543 C 0.42433 0.92883 0.81034 0.0
C2544 C 0.38509 0.92758 0.80677 0.0
C2545 C 0.41361 0.91481 0.81941 0.0
C2546 C 0.3534 0.91721 0.81914 0.0
C2547 C 0.33608 0.93889 0.79143 0.0
N2548 N 0.39446 0.9147 0.81763 0.0
N2549 N 0.35518 0.93823 0.79283 0.0
H2550 H 0.32951 0.07251 0.08262 0.0
H2551 H 0.30443 0.16913 0.02908 0.0
H2552 H 0.30404 0.07572 0.02728 0.0
H2553 H 0.33266 0.16734 0.08317 0.0
H2554 H 0.30472 0.13473 0.02822 0.0
H2555 H 0.33014 0.10719 0.0838 0.0
C2556 C 0.32381 0.0805 0.07087 0.0
C2557 C 0.31675 0.07126 0.05482 0.0
C2558 C 0.31095 0.14184 0.04025 0.0
C2559 C 0.3177 0.11073 0.05591 0.0
C2560 C 0.31091 0.16152 0.04069 0.0
C2561 C 0.31836 0.17116 0.05631 0.0
C2562 C 0.31847 0.13166 0.05556 0.0
C2563 C 0.32658 0.1605 0.07092 0.0
C2564 C 0.32434 0.10026 0.07146 0.0
C2565 C 0.30971 0.08226 0.03989 0.0
N2566 N 0.32628 0.14129 0.07027 0.0
N2567 N 0.31042 0.10138 0.04078 0.0
H2568 H 0.06323 0.90359 0.17957 0.0
H2569 H 0.168 0.93527 0.15209 0.0
H2570 H 0.07492 0.95444 0.1479 0.0
H2571 H 0.1552 0.90418 0.20304 0.0
H2572 H 0.13393 0.93799 0.14581 0.0
H2573 H 0.09741 0.89895 0.18377 0.0
C2574 C 0.07298 0.91369 0.17345 0.0
C2575 C 0.0663 0.92951 0.16358 0.0
C2576 C 0.13867 0.93058 0.15835 0.0
C2577 C 0.10512 0.92419 0.16801 0.0
C2578 C 0.15804 0.92903 0.16191 0.0
C2579 C 0.16436 0.91971 0.17821 0.0
C2580 C 0.12569 0.92238 0.17096 0.0
C2581 C 0.1509 0.91175 0.19045 0.0
C2582 C 0.09241 0.91108 0.17587 0.0
C2583 C 0.0795 0.94218 0.15584 0.0
N2584 N 0.13219 0.91318 0.18654 0.0
N2585 N 0.09829 0.93922 0.15817 0.0
H2586 H 0.28021 0.83002 0.4042 0.0
H2587 H 0.34267 0.90854 0.45237 0.0
H2588 H 0.33307 0.81641 0.43144 0.0
H2589 H 0.30851 0.92079 0.40334 0.0
H2590 H 0.33709 0.87483 0.44756 0.0
H2591 H 0.28796 0.86358 0.40651 0.0
C2592 C 0.29342 0.8341 0.41076 0.0
C2593 C 0.30599 0.82046 0.41778 0.0
C2594 C 0.33092 0.88489 0.4378 0.0
C2595 C 0.31484 0.85876 0.42046 0.0
C2596 C 0.33397 0.90411 0.44058 0.0
C2597 C 0.32589 0.91741 0.42828 0.0
C2598 C 0.31938 0.87896 0.42286 0.0
C2599 C 0.31495 0.91093 0.41312 0.0
C2600 C 0.29788 0.85323 0.4119 0.0
C2601 C 0.323 0.82652 0.4259 0.0
N2602 N 0.31179 0.89209 0.41095 0.0
N2603 N 0.32686 0.8453 0.42721 0.0
H2604 H 0.32049 0.07461 0.70971 0.0
H2605 H 0.40233 0.01942 0.6581 0.0
H2606 H 0.31041 0.04776 0.65585 0.0
H2607 H 0.41275 0.07087 0.68918 0.0
H2608 H 0.36825 0.02521 0.66065 0.0
H2609 H 0.35423 0.06879 0.706 0.0
C2610 C 0.32537 0.06734 0.69714 0.0
C2611 C 0.31267 0.06158 0.68306 0.0
C2612 C 0.37805 0.03519 0.66686 0.0
C2613 C 0.35123 0.05482 0.67888 0.0
C2614 C 0.39743 0.03185 0.66559 0.0
C2615 C 0.4103 0.04467 0.67356 0.0
C2616 C 0.37159 0.05119 0.67656 0.0
C2617 C 0.40326 0.06066 0.68287 0.0
C2618 C 0.34463 0.06418 0.69501 0.0
C2619 C 0.3198 0.05243 0.66699 0.0
N2620 N 0.38432 0.06339 0.68429 0.0
N2621 N 0.33869 0.04915 0.66539 0.0
H2622 H 0.18919 0.17157 0.96437 0.0
H2623 H 0.15695 0.07587 0.91366 0.0
H2624 H 0.15342 0.17076 0.91493 0.0
H2625 H 0.20083 0.07913 0.95594 0.0
H2626 H 0.15378 0.1103 0.91486 0.0
H2627 H 0.19073 0.13718 0.96342 0.0
C2628 C 0.1814 0.16417 0.95347 0.0
C2629 C 0.17132 0.17411 0.93957 0.0
C2630 C 0.16418 0.10346 0.92377 0.0
C2631 C 0.17329 0.13466 0.93824 0.0
C2632 C 0.16607 0.08382 0.92303 0.0
C2633 C 0.17912 0.07457 0.93479 0.0
C2634 C 0.17534 0.11389 0.93644 0.0
C2635 C 0.19057 0.08561 0.94663 0.0
C2636 C 0.18245 0.14451 0.95282 0.0
C2637 C 0.16151 0.16368 0.92582 0.0
N2638 N 0.18831 0.10466 0.94725 0.0
N2639 N 0.16285 0.14451 0.92541 0.0
H2640 H 0.04232 0.28619 0.17019 0.0
H2641 H 0.08464 0.33003 0.07537 0.0
H2642 H 0.08444 0.3303 0.17112 0.0
H2643 H 0.03102 0.30112 0.07852 0.0
H2644 H 0.08734 0.32775 0.10998 0.0
H2645 H 0.03993 0.28957 0.13602 0.0
C2646 C 0.05093 0.29676 0.16317 0.0
C2647 C 0.06356 0.308 0.17344 0.0
C2648 C 0.07504 0.32188 0.10301 0.0
C2649 C 0.0612 0.31171 0.13426 0.0
C2650 C 0.07361 0.32298 0.08331 0.0
C2651 C 0.0576 0.31571 0.07414 0.0
C2652 C 0.06049 0.31323 0.11342 0.0
C2653 C 0.04357 0.30695 0.08505 0.0
C2654 C 0.04959 0.29865 0.14367 0.0
C2655 C 0.0744 0.32147 0.16368 0.0
N2656 N 0.04536 0.30593 0.10408 0.0
N2657 N 0.07313 0.32282 0.14452 0.0
H2658 H 0.58168 0.19111 0.9253 0.0
H2659 H 0.55355 0.16818 0.81885 0.0
H2660 H 0.53015 0.16219 0.91016 0.0
H2661 H 0.58668 0.21727 0.83349 0.0
H2662 H 0.54865 0.16192 0.85256 0.0
H2663 H 0.58761 0.19718 0.89157 0.0
C2664 C 0.57167 0.18604 0.91489 0.0
C2665 C 0.55535 0.17627 0.92047 0.0
C2666 C 0.55696 0.17407 0.84834 0.0
C2667 C 0.56215 0.18284 0.88219 0.0
C2668 C 0.55978 0.17762 0.82917 0.0
C2669 C 0.5704 0.19333 0.82344 0.0
C2670 C 0.56511 0.18613 0.86183 0.0
C2671 C 0.57822 0.20511 0.83735 0.0
C2672 C 0.57501 0.18954 0.89574 0.0
C2673 C 0.54281 0.16996 0.90647 0.0
N2674 N 0.57551 0.20121 0.85596 0.0
N2675 N 0.54652 0.17325 0.88797 0.0
H2676 H 0.90952 0.83365 0.32788 0.0
H2677 H 0.91955 0.77813 0.42608 0.0
H2678 H 0.92725 0.77547 0.33302 0.0
H2679 H 0.90036 0.83595 0.42224 0.0
H2680 H 0.92054 0.77657 0.39171 0.0
H2681 H 0.90573 0.83503 0.36233 0.0
C2682 C 0.91287 0.82127 0.33626 0.0
C2683 C 0.91872 0.80442 0.32758 0.0
C2684 C 0.91599 0.78959 0.39836 0.0
C2685 C 0.91409 0.80578 0.36682 0.0
C2686 C 0.91527 0.79043 0.41803 0.0
C2687 C 0.9102 0.80731 0.4271 0.0
C2688 C 0.91166 0.80575 0.38764 0.0
C2689 C 0.9047 0.82275 0.41586 0.0
C2690 C 0.91051 0.822 0.35588 0.0
C2691 C 0.92265 0.78874 0.33909 0.0
N2692 N 0.9058 0.82168 0.39671 0.0
N2693 N 0.92022 0.7898 0.35806 0.0
H2694 H 0.93408 0.16713 0.17278 0.0
H2695 H 0.90593 0.1915 0.0666 0.0
H2696 H 0.90457 0.2185 0.15811 0.0
H2697 H 0.95545 0.15888 0.08098 0.0
H2698 H 0.90103 0.19803 0.1004 0.0
H2699 H 0.93802 0.16028 0.13905 0.0
C2700 C 0.92847 0.17696 0.16246 0.0
C2701 C 0.91913 0.19346 0.16818 0.0
C2702 C 0.91296 0.18947 0.09606 0.0
C2703 C 0.92327 0.18558 0.12979 0.0
C2704 C 0.9157 0.18569 0.07686 0.0
C2705 C 0.93118 0.17477 0.07105 0.0
C2706 C 0.92556 0.1819 0.10941 0.0
C2707 C 0.94345 0.16754 0.08486 0.0
C2708 C 0.93073 0.17307 0.14327 0.0
C2709 C 0.91205 0.20572 0.15426 0.0
N2710 N 0.94032 0.17115 0.10341 0.0
N2711 N 0.91416 0.20147 0.13566 0.0
H2712 H 0.43772 0.66005 0.67012 0.0
H2713 H 0.40569 0.68661 0.56541 0.0
H2714 H 0.40216 0.70816 0.65805 0.0
H2715 H 0.45965 0.66091 0.57769 0.0
H2716 H 0.4 0.68978 0.59956 0.0
H2717 H 0.44176 0.65511 0.63595 0.0
C2718 C 0.43073 0.66949 0.66029 0.0
C2719 C 0.41978 0.68463 0.66683 0.0
C2720 C 0.41306 0.68346 0.59467 0.0
C2721 C 0.42402 0.67892 0.62808 0.0
C2722 C 0.41629 0.68165 0.57528 0.0
C2723 C 0.43322 0.67369 0.56878 0.0
C2724 C 0.42669 0.67686 0.60752 0.0
C2725 C 0.4465 0.66737 0.58212 0.0
C2726 C 0.43306 0.66671 0.64088 0.0
C2727 C 0.41095 0.69646 0.65356 0.0
N2728 N 0.44291 0.669 0.60087 0.0
N2729 N 0.41319 0.69331 0.63479 0.0
H2730 H 0.08753 0.69056 0.4237 0.0
H2731 H 0.05599 0.66557 0.31861 0.0
H2732 H 0.03497 0.66247 0.4106 0.0
H2733 H 0.09022 0.71448 0.33125 0.0
H2734 H 0.05228 0.65991 0.3526 0.0
H2735 H 0.09286 0.69537 0.38966 0.0
C2736 C 0.07717 0.68541 0.41368 0.0
C2737 C 0.06073 0.67627 0.4199 0.0
C2738 C 0.06059 0.67187 0.34787 0.0
C2739 C 0.06685 0.68137 0.38132 0.0
C2740 C 0.06273 0.67507 0.32854 0.0
C2741 C 0.07326 0.6906 0.32219 0.0
C2742 C 0.06933 0.68408 0.36083 0.0
C2743 C 0.08179 0.70247 0.33561 0.0
C2744 C 0.08018 0.68818 0.39435 0.0
C2745 C 0.04773 0.6698 0.4064 0.0
N2746 N 0.07971 0.69892 0.35435 0.0
N2747 N 0.05112 0.67238 0.38773 0.0
H2748 H 0.44938 0.2904 0.8215 0.0
H2749 H 0.40543 0.33259 0.91646 0.0
H2750 H 0.40518 0.33243 0.8208 0.0
H2751 H 0.4584 0.30248 0.91351 0.0
H2752 H 0.40308 0.33087 0.8818 0.0
H2753 H 0.45157 0.29361 0.85564 0.0
C2754 C 0.44029 0.3005 0.82856 0.0
C2755 C 0.42708 0.31115 0.81837 0.0
C2756 C 0.41516 0.32462 0.88882 0.0
C2757 C 0.42922 0.31465 0.85757 0.0
C2758 C 0.41639 0.3254 0.90855 0.0
C2759 C 0.43213 0.31764 0.9178 0.0
C2760 C 0.42966 0.31584 0.87845 0.0
C2761 C 0.44606 0.3087 0.90693 0.0
C2762 C 0.44149 0.30229 0.84808 0.0
C2763 C 0.41564 0.32405 0.82819 0.0
N2764 N 0.44449 0.30805 0.88787 0.0
N2765 N 0.41681 0.3253 0.84736 0.0
H2766 H 0.57416 0.58385 0.82762 0.0
H2767 H 0.6672 0.52728 0.79762 0.0
H2768 H 0.57655 0.54309 0.78225 0.0
H2769 H 0.6687 0.57596 0.83443 0.0
H2770 H 0.63309 0.53086 0.79487 0.0
H2771 H 0.60832 0.58042 0.83192 0.0
C2772 C 0.58189 0.57441 0.81838 0.0
C2773 C 0.57243 0.56361 0.80467 0.0
C2774 C 0.64085 0.54071 0.80364 0.0
C2775 C 0.61137 0.55938 0.80975 0.0
C2776 C 0.66033 0.53854 0.80541 0.0
C2777 C 0.67088 0.55151 0.81607 0.0
C2778 C 0.6318 0.55589 0.81267 0.0
C2779 C 0.66114 0.56577 0.82587 0.0
C2780 C 0.60136 0.57236 0.82093 0.0
C2781 C 0.58318 0.55166 0.79305 0.0
N2782 N 0.64214 0.5677 0.8238 0.0
N2783 N 0.60202 0.54972 0.79599 0.0
H2784 H 0.65813 0.41661 0.08697 0.0
H2785 H 0.69211 0.32321 0.0338 0.0
H2786 H 0.70745 0.41367 0.05111 0.0
H2787 H 0.6537 0.32146 0.08125 0.0
H2788 H 0.69482 0.3573 0.03767 0.0
H2789 H 0.65447 0.3823 0.08406 0.0
C2790 C 0.66836 0.40873 0.07873 0.0
C2791 C 0.68303 0.41806 0.06913 0.0
C2792 C 0.68573 0.34948 0.04719 0.0
C2793 C 0.67868 0.37897 0.06546 0.0
C2794 C 0.68399 0.33001 0.04486 0.0
C2795 C 0.67281 0.3194 0.05735 0.0
C2796 C 0.67611 0.35849 0.06202 0.0
C2797 C 0.66261 0.32907 0.0714 0.0
C2798 C 0.66619 0.38918 0.07701 0.0
C2799 C 0.6959 0.40713 0.05873 0.0
N2800 N 0.66459 0.34809 0.07344 0.0
N2801 N 0.69329 0.38821 0.05699 0.0
H2802 H 0.83095 0.45256 0.29166 0.0
H2803 H 0.9216 0.4022 0.33582 0.0
H2804 H 0.82619 0.4088 0.334 0.0
H2805 H 0.92182 0.43351 0.28339 0.0
H2806 H 0.88713 0.40546 0.33715 0.0
H2807 H 0.86502 0.44807 0.29129 0.0
C2808 C 0.83707 0.44215 0.30109 0.0
C2809 C 0.82562 0.43091 0.31276 0.0
C2810 C 0.89475 0.41144 0.32529 0.0
C2811 C 0.86478 0.42553 0.31219 0.0
C2812 C 0.91441 0.40952 0.32446 0.0
C2813 C 0.92466 0.41776 0.30956 0.0
C2814 C 0.88537 0.42181 0.31121 0.0
C2815 C 0.91457 0.42698 0.29519 0.0
C2816 C 0.85655 0.43947 0.30071 0.0
C2817 C 0.83446 0.4177 0.32469 0.0
N2818 N 0.89554 0.42894 0.2965 0.0
N2819 N 0.85354 0.4153 0.32404 0.0
H2820 H 0.83518 0.6727 0.57993 0.0
H2821 H 0.797 0.57957 0.52863 0.0
H2822 H 0.78795 0.67163 0.54138 0.0
H2823 H 0.83381 0.57731 0.57722 0.0
H2824 H 0.79602 0.61383 0.53127 0.0
H2825 H 0.83807 0.63821 0.57665 0.0
C2826 C 0.82568 0.66526 0.57053 0.0
C2827 C 0.81127 0.67494 0.56095 0.0
C2828 C 0.80424 0.60589 0.54145 0.0
C2829 C 0.81433 0.63578 0.55732 0.0
C2830 C 0.80476 0.5863 0.53998 0.0
C2831 C 0.81547 0.5756 0.55275 0.0
C2832 C 0.81464 0.61493 0.55571 0.0
C2833 C 0.82526 0.58507 0.56718 0.0
C2834 C 0.82719 0.64561 0.56883 0.0
C2835 C 0.79918 0.66467 0.54911 0.0
N2836 N 0.82472 0.60428 0.56821 0.0
N2837 N 0.80096 0.64566 0.54766 0.0
H2838 H 0.66484 0.42999 0.65332 0.0
H2839 H 0.56027 0.39859 0.68156 0.0
H2840 H 0.65327 0.39628 0.70288 0.0
H2841 H 0.57268 0.451 0.65281 0.0
H2842 H 0.59445 0.39298 0.68494 0.0
H2843 H 0.6307 0.43327 0.64817 0.0
C2844 C 0.65512 0.42325 0.66305 0.0
C2845 C 0.66181 0.41306 0.67865 0.0
C2846 C 0.58957 0.40567 0.67789 0.0
C2847 C 0.62301 0.41645 0.67271 0.0
C2848 C 0.57017 0.40884 0.67594 0.0
C2849 C 0.56371 0.42536 0.6671 0.0
C2850 C 0.60244 0.41891 0.67054 0.0
C2851 C 0.57707 0.4382 0.65997 0.0
C2852 C 0.63571 0.42514 0.66014 0.0
C2853 C 0.64865 0.4045 0.69082 0.0
N2854 N 0.5958 0.43467 0.66177 0.0
N2855 N 0.62984 0.40634 0.68757 0.0
H2856 H 0.83424 0.42073 0.90074 0.0
H2857 H 0.77162 0.33094 0.9287 0.0
H2858 H 0.77717 0.42427 0.92212 0.0
H2859 H 0.82995 0.32698 0.9112 0.0
H2860 H 0.77324 0.36515 0.92542 0.0
H2861 H 0.83231 0.38631 0.90226 0.0
C2862 C 0.82121 0.41428 0.90553 0.0
C2863 C 0.80593 0.42543 0.91157 0.0
C2864 C 0.78573 0.35685 0.92238 0.0
C2865 C 0.8037 0.38604 0.91348 0.0
C2866 C 0.78486 0.3373 0.92436 0.0
C2867 C 0.80068 0.32609 0.9202 0.0
C2868 C 0.80254 0.36531 0.91613 0.0
C2869 C 0.81745 0.3351 0.91465 0.0
C2870 C 0.82017 0.39462 0.90649 0.0
C2871 C 0.78934 0.41628 0.91742 0.0
N2872 N 0.81792 0.35422 0.91266 0.0
N2873 N 0.78873 0.39712 0.91839 0.0
H2874 H 0.91389 0.57583 0.15412 0.0
H2875 H 0.82026 0.54782 0.21076 0.0
H2876 H 0.91357 0.54978 0.20936 0.0
H2877 H 0.81923 0.57566 0.15644 0.0
H2878 H 0.85458 0.54722 0.20952 0.0
H2879 H 0.87937 0.57585 0.15433 0.0
C2880 C 0.90657 0.57028 0.16637 0.0
C2881 C 0.91664 0.56267 0.1817 0.0
C2882 C 0.8469 0.55337 0.19779 0.0
C2883 C 0.87717 0.56249 0.18193 0.0
C2884 C 0.82727 0.55362 0.19844 0.0
C2885 C 0.81689 0.5619 0.18373 0.0
C2886 C 0.85629 0.56153 0.18233 0.0
C2887 C 0.82671 0.5691 0.16807 0.0
C2888 C 0.88686 0.57021 0.16643 0.0
C2889 C 0.90642 0.55575 0.19722 0.0
N2890 N 0.84593 0.56889 0.16785 0.0
N2891 N 0.88725 0.55574 0.19688 0.0
H2892 H 0.70094 0.57065 0.45535 0.0
H2893 H 0.66202 0.66617 0.41126 0.0
H2894 H 0.66099 0.57065 0.4093 0.0
H2895 H 0.71646 0.66196 0.43845 0.0
H2896 H 0.65891 0.63163 0.41314 0.0
H2897 H 0.70493 0.60469 0.45153 0.0
C2898 C 0.69318 0.57784 0.44427 0.0
C2899 C 0.68065 0.56791 0.4326 0.0
C2900 C 0.6715 0.63834 0.41868 0.0
C2901 C 0.68479 0.60686 0.42844 0.0
C2902 C 0.67319 0.658 0.41781 0.0
C2903 C 0.6895 0.66687 0.42477 0.0
C2904 C 0.68608 0.62763 0.42685 0.0
C2905 C 0.70366 0.65566 0.4329 0.0
C2906 C 0.69543 0.59724 0.44211 0.0
C2907 C 0.6709 0.57784 0.41847 0.0
N2908 N 0.70159 0.63663 0.43379 0.0
N2909 N 0.67298 0.5969 0.41693 0.0
H2910 H 0.58437 0.84169 0.67686 0.0
H2911 H 0.52278 0.81365 0.58644 0.0
H2912 H 0.52683 0.82155 0.67978 0.0
H2913 H 0.58189 0.82849 0.58348 0.0
H2914 H 0.52359 0.81824 0.62053 0.0
H2915 H 0.58285 0.84004 0.64241 0.0
C2916 C 0.57132 0.83717 0.67027 0.0
C2917 C 0.55581 0.83141 0.68125 0.0
C2918 C 0.53643 0.82042 0.61247 0.0
C2919 C 0.55405 0.82937 0.64186 0.0
C2920 C 0.53601 0.81768 0.59299 0.0
C2921 C 0.55231 0.82067 0.58209 0.0
C2922 C 0.55326 0.82625 0.62117 0.0
C2923 C 0.56903 0.82591 0.59136 0.0
C2924 C 0.57051 0.83614 0.6506 0.0
C2925 C 0.53919 0.82599 0.67192 0.0
N2926 N 0.56905 0.82863 0.61039 0.0
N2927 N 0.53882 0.82491 0.65276 0.0
H2928 H 0.93773 0.14845 0.25294 0.0
H2929 H 0.94128 0.07799 0.33624 0.0
H2930 H 0.89699 0.15822 0.29742 0.0
H2931 H 0.99114 0.10751 0.31678 0.0
H2932 H 0.92164 0.10217 0.32075 0.0
H2933 H 0.95414 0.12616 0.27339 0.0
C2934 C 0.93202 0.14567 0.26688 0.0
C2935 C 0.91604 0.15529 0.27355 0.0
C2936 C 0.9369 0.1034 0.32031 0.0
C2937 C 0.93482 0.12986 0.29691 0.0
C2938 C 0.94811 0.08972 0.32914 0.0
C2939 C 0.9679 0.0905 0.32745 0.0
C2940 C 0.94565 0.11754 0.30955 0.0
C2941 C 0.97597 0.10608 0.31817 0.0
C2942 C 0.94151 0.13312 0.27857 0.0
C2943 C 0.90936 0.15115 0.29182 0.0
N2944 N 0.96481 0.11873 0.30918 0.0
N2945 N 0.9188 0.13863 0.30297 0.0
H2946 H 0.12863 0.74114 0.58243 0.0
H2947 H 0.11227 0.65943 0.51383 0.0
H2948 H 0.17009 0.69643 0.5792 0.0
H2949 H 0.06573 0.67718 0.54905 0.0
H2950 H 0.13426 0.67417 0.53619 0.0
H2951 H 0.10501 0.71948 0.56915 0.0
C2952 C 0.13265 0.72671 0.57925 0.0
C2953 C 0.15134 0.72061 0.58173 0.0
C2954 C 0.11924 0.67446 0.53918 0.0
C2955 C 0.12471 0.69614 0.56628 0.0
C2956 C 0.10675 0.66615 0.52644 0.0
C2957 C 0.08726 0.66717 0.52967 0.0
C2958 C 0.11207 0.68436 0.5548 0.0
C2959 C 0.08072 0.67605 0.54617 0.0
C2960 C 0.1192 0.71439 0.57178 0.0
C2961 C 0.15584 0.70174 0.57746 0.0
N2962 N 0.09311 0.68475 0.55795 0.0
N2963 N 0.14272 0.69028 0.5695 0.0
H2964 H 0.5097 0.87419 0.84256 0.0
H2965 H 0.58711 0.86031 0.77058 0.0
H2966 H 0.55213 0.91768 0.83674 0.0
H2967 H 0.57319 0.8133 0.80694 0.0
H2968 H 0.5744 0.88196 0.79445 0.0
H2969 H 0.53232 0.8511 0.83009 0.0
C2970 C 0.5239 0.87877 0.8391 0.0
C2971 C 0.52899 0.89787 0.8404 0.0
C2972 C 0.57459 0.86693 0.79736 0.0
C2973 C 0.55456 0.87182 0.82581 0.0
C2974 C 0.58172 0.85462 0.78375 0.0
C2975 C 0.58101 0.83507 0.7868 0.0
C2976 C 0.56616 0.85952 0.81374 0.0
C2977 C 0.57395 0.82833 0.80409 0.0
C2978 C 0.53678 0.86562 0.83207 0.0
C2979 C 0.5476 0.90309 0.83583 0.0
N2980 N 0.56628 0.84053 0.81675 0.0
N2981 N 0.55957 0.89022 0.82818 0.0
H2982 H 0.40654 0.34665 0.04939 0.0
H2983 H 0.35868 0.25152 0.07314 0.0
H2984 H 0.38742 0.30844 0.00575 0.0
H2985 H 0.32705 0.30019 0.09229 0.0
H2986 H 0.38016 0.2726 0.0564 0.0
H2987 H 0.38566 0.33035 0.07208 0.0
C2988 C 0.39772 0.33512 0.0445 0.0
C2989 C 0.39878 0.3288 0.02568 0.0
C2990 C 0.36871 0.27858 0.06465 0.0
C2991 C 0.37573 0.31005 0.05146 0.0
C2992 C 0.35648 0.26663 0.07427 0.0
C2993 C 0.34072 0.27408 0.08373 0.0
C2994 C 0.36538 0.29807 0.06476 0.0
C2995 C 0.33885 0.29386 0.08491 0.0
C2996 C 0.38595 0.32589 0.05743 0.0
C2997 C 0.38709 0.31381 0.02008 0.0
N2998 N 0.35094 0.30528 0.07521 0.0
N2999 N 0.37635 0.30468 0.03303 0.0
H3000 H 0.90689 0.86155 0.2379 0.0
H3001 H 0.97226 0.87702 0.15292 0.0
H3002 H 0.91074 0.8183 0.19499 0.0
H3003 H 0.93628 0.92295 0.17074 0.0
H3004 H 0.9513 0.8548 0.16934 0.0
H3005 H 0.9188 0.88469 0.21491 0.0
C3006 C 0.90993 0.85701 0.2236 0.0
C3007 C 0.908 0.83799 0.21838 0.0
C3008 C 0.94783 0.86972 0.16928 0.0
C3009 C 0.92188 0.86409 0.19238 0.0
C3010 C 0.95976 0.88234 0.15999 0.0
C3011 C 0.95595 0.90176 0.16055 0.0
C3012 C 0.93243 0.8767 0.17967 0.0
C3013 C 0.93962 0.90803 0.16993 0.0
C3014 C 0.91663 0.87018 0.21052 0.0
C3015 C 0.91207 0.83282 0.19963 0.0
N3016 N 0.92865 0.89556 0.17955 0.0
N3017 N 0.91925 0.84573 0.18741 0.0
H3018 H 0.42472 0.67082 0.43807 0.0
H3019 H 0.31551 0.68767 0.41768 0.0
H3020 H 0.38107 0.65424 0.47737 0.0
H3021 H 0.35785 0.73022 0.40666 0.0
H3022 H 0.34019 0.66688 0.4303 0.0
H3023 H 0.40038 0.68398 0.41716 0.0
C3024 C 0.40998 0.66948 0.44203 0.0
C3025 C 0.4048 0.66165 0.45951 0.0
C3026 C 0.34403 0.68063 0.42474 0.0
C3027 C 0.3772 0.67632 0.4357 0.0
C3028 C 0.33005 0.69245 0.41752 0.0
C3029 C 0.3347 0.71074 0.41137 0.0
C3030 C 0.36275 0.68701 0.42536 0.0
C3031 C 0.35371 0.7163 0.41152 0.0
C3032 C 0.3962 0.67706 0.43017 0.0
C3033 C 0.38557 0.66037 0.46408 0.0
N3034 N 0.36711 0.70446 0.4185 0.0
N3035 N 0.3724 0.66774 0.45225 0.0
H3036 H 0.53963 0.08113 0.65288 0.0
H3037 H 0.54745 0.14799 0.7412 0.0
H3038 H 0.49116 0.0994 0.68528 0.0
H3039 H 0.58533 0.15572 0.69386 0.0
H3040 H 0.52918 0.12567 0.7225 0.0
H3041 H 0.55867 0.10553 0.66849 0.0
C3042 C 0.53292 0.09045 0.66301 0.0
C3043 C 0.51384 0.0881 0.66798 0.0
C3044 C 0.54152 0.13225 0.71624 0.0
C3045 C 0.53553 0.11547 0.68601 0.0
C3046 C 0.5521 0.1448 0.72696 0.0
C3047 C 0.5679 0.15377 0.71903 0.0
C3048 C 0.54693 0.12839 0.69758 0.0
C3049 C 0.57318 0.14915 0.70045 0.0
C3050 C 0.54379 0.10429 0.67189 0.0
C3051 C 0.50583 0.10061 0.6811 0.0
N3052 N 0.56269 0.13667 0.69029 0.0
N3053 N 0.51681 0.11355 0.68991 0.0
H3054 H 0.17328 0.30242 0.91475 0.0
H3055 H 0.11193 0.33484 0.98398 0.0
H3056 H 0.12871 0.26095 0.91026 0.0
H3057 H 0.0681 0.3237 0.94305 0.0
H3058 H 0.13533 0.32235 0.96162 0.0
H3059 H 0.15088 0.32438 0.92939 0.0
C3060 C 0.15867 0.29811 0.91637 0.0
C3061 C 0.15284 0.27974 0.91158 0.0
C3062 C 0.12063 0.32316 0.9574 0.0
C3063 C 0.12742 0.30471 0.92818 0.0
C3064 C 0.10732 0.33012 0.97016 0.0
C3065 C 0.08813 0.33023 0.96532 0.0
C3066 C 0.11455 0.31584 0.93999 0.0
C3067 C 0.08281 0.32392 0.94727 0.0
C3068 C 0.14602 0.31059 0.92484 0.0
C3069 C 0.13379 0.2749 0.91401 0.0
N3070 N 0.09592 0.31648 0.93541 0.0
N3071 N 0.12172 0.28732 0.92227 0.0
H3072 H 0.25839 0.90415 0.12698 0.0
H3073 H 0.33047 0.98265 0.11172 0.0
H3074 H 0.2948 0.91895 0.17359 0.0
H3075 H 0.32482 0.93912 0.06928 0.0
H3076 H 0.31677 0.96093 0.13507 0.0
H3077 H 0.28143 0.91804 0.1051 0.0
C3078 C 0.27139 0.91004 0.13253 0.0
C3079 C 0.27477 0.91051 0.15201 0.0
C3080 C 0.31898 0.95609 0.12071 0.0
C3081 C 0.3007 0.92673 0.12735 0.0
C3082 C 0.32669 0.96845 0.10741 0.0
C3083 C 0.32855 0.96274 0.08853 0.0
C3084 C 0.31265 0.93823 0.11486 0.0
C3085 C 0.32354 0.94414 0.08368 0.0
C3086 C 0.28451 0.91786 0.1201 0.0
C3087 C 0.29178 0.91829 0.1586 0.0
N3088 N 0.31535 0.93268 0.09667 0.0
N3089 N 0.30397 0.92656 0.14629 0.0
H3090 H 0.25844 0.0814 0.36378 0.0
H3091 H 0.33878 0.0114 0.37644 0.0
H3092 H 0.2997 0.07571 0.31911 0.0
H3093 H 0.32493 0.04824 0.42308 0.0
H3094 H 0.32406 0.03407 0.35475 0.0
H3095 H 0.28177 0.06908 0.38624 0.0
C3096 C 0.2725 0.07794 0.35879 0.0
C3097 C 0.2771 0.07933 0.33957 0.0
C3098 C 0.32467 0.03734 0.3697 0.0
C3099 C 0.30346 0.06495 0.36491 0.0
C3100 C 0.33295 0.02441 0.38203 0.0
C3101 C 0.3329 0.02795 0.4015 0.0
C3102 C 0.31579 0.0535 0.37705 0.0
C3103 C 0.32523 0.04502 0.40811 0.0
C3104 C 0.28579 0.071 0.37158 0.0
C3105 C 0.29555 0.07475 0.33382 0.0
N3106 N 0.31651 0.057 0.39593 0.0
N3107 N 0.30794 0.06726 0.34637 0.0
H3108 H 0.1664 0.05426 0.56198 0.0
H3109 H 0.18341 0.0771 0.67072 0.0
H3110 H 0.15273 0.01528 0.60695 0.0
H3111 H 0.22428 0.08945 0.6271 0.0
H3112 H 0.16192 0.0647 0.64654 0.0
H3113 H 0.17719 0.07715 0.58561 0.0
C3114 C 0.16515 0.05074 0.57684 0.0
C3115 C 0.15899 0.03277 0.5826 0.0
C3116 C 0.17538 0.07065 0.6423 0.0
C3117 C 0.17091 0.05889 0.60941 0.0
C3118 C 0.1876 0.07777 0.65599 0.0
C3119 C 0.20571 0.084 0.65083 0.0
C3120 C 0.18123 0.07021 0.62338 0.0
C3121 C 0.21051 0.0845 0.63161 0.0
C3122 C 0.17133 0.06377 0.59023 0.0
C3123 C 0.15768 0.02889 0.60198 0.0
N3124 N 0.19836 0.0775 0.61853 0.0
N3125 N 0.16377 0.04184 0.61476 0.0
H3126 H 0.14714 0.94647 0.90632 0.0
H3127 H 0.24527 0.9275 0.85631 0.0
H3128 H 0.1905 0.98889 0.89926 0.0
H3129 H 0.19446 0.90217 0.83374 0.0
H3130 H 0.22614 0.94439 0.87936 0.0
H3131 H 0.1649 0.92548 0.88501 0.0
C3132 C 0.16024 0.95144 0.90012 0.0
C3133 C 0.16737 0.96945 0.9045 0.0
C3134 C 0.21925 0.93495 0.86948 0.0
C3135 C 0.1878 0.94544 0.88095 0.0
C3136 C 0.23014 0.92516 0.85641 0.0
C3137 C 0.22141 0.91369 0.84279 0.0
C3138 C 0.19955 0.93308 0.86911 0.0
C3139 C 0.20173 0.91109 0.84381 0.0
C3140 C 0.17033 0.93946 0.8881 0.0
C3141 C 0.18441 0.9752 0.89618 0.0
N3142 N 0.19137 0.9209 0.85669 0.0
N3143 N 0.19417 0.96312 0.88499 0.0
H3144 H 0.62685 0.23306 0.08526 0.0
H3145 H 0.60758 0.15717 0.01167 0.0
H3146 H 0.66902 0.18991 0.076 0.0
H3147 H 0.56314 0.17071 0.0512 0.0
H3148 H 0.63076 0.17006 0.03397 0.0
H3149 H 0.60283 0.21169 0.07231 0.0
C3150 C 0.63096 0.21897 0.08087 0.0
C3151 C 0.64991 0.21327 0.08152 0.0
C3152 C 0.61596 0.1698 0.03789 0.0
C3153 C 0.62281 0.18917 0.06639 0.0
C3154 C 0.60279 0.16256 0.02518 0.0
C3155 C 0.58351 0.163 0.02965 0.0
C3156 C 0.60966 0.17806 0.05479 0.0
C3157 C 0.57793 0.17011 0.04731 0.0
C3158 C 0.61728 0.20681 0.07357 0.0
C3159 C 0.65454 0.19486 0.0757 0.0
N3160 N 0.59093 0.17784 0.0591 0.0
N3161 N 0.64114 0.1836 0.06789 0.0
H3162 H 0.08659 0.35916 0.26215 0.0
H3163 H 0.01389 0.37778 0.33944 0.0
H3164 H 0.07725 0.31643 0.30478 0.0
H3165 H 0.05292 0.42236 0.32483 0.0
H3166 H 0.03608 0.35464 0.32627 0.0
H3167 H 0.07393 0.38297 0.28395 0.0
C3168 C 0.08223 0.35487 0.2762 0.0
C3169 C 0.08277 0.33581 0.28162 0.0
C3170 C 0.03993 0.36947 0.32637 0.0
C3171 C 0.06798 0.36271 0.30624 0.0
C3172 C 0.02728 0.38262 0.3338 0.0
C3173 C 0.03158 0.40194 0.33309 0.0
C3174 C 0.0566 0.37581 0.31767 0.0
C3175 C 0.04911 0.40755 0.32565 0.0
C3176 C 0.0751 0.36843 0.28862 0.0
C3177 C 0.07702 0.33098 0.30001 0.0
N3178 N 0.06082 0.39456 0.31775 0.0
N3179 N 0.06939 0.34428 0.31152 0.0
H3180 H 0.92514 0.82534 0.55262 0.0
H3181 H 0.81777 0.80573 0.57918 0.0
H3182 H 0.87866 0.84065 0.51622 0.0
H3183 H 0.86152 0.76382 0.58663 0.0
H3184 H 0.84136 0.82761 0.56648 0.0
H3185 H 0.90254 0.81194 0.57526 0.0
C3186 C 0.91015 0.82639 0.54967 0.0
C3187 C 0.90367 0.83389 0.53247 0.0
C3188 C 0.84579 0.81378 0.57137 0.0
C3189 C 0.87803 0.81897 0.5583 0.0
C3190 C 0.83242 0.80131 0.57867 0.0
C3191 C 0.83771 0.78284 0.58368 0.0
C3192 C 0.86456 0.80785 0.56951 0.0
C3193 C 0.85686 0.77785 0.58267 0.0
C3194 C 0.89736 0.81869 0.56252 0.0
C3195 C 0.88416 0.83479 0.52924 0.0
N3196 N 0.86964 0.79028 0.57553 0.0
N3197 N 0.87197 0.82729 0.54203 0.0
H3198 H 0.04821 0.64722 0.23652 0.0
H3199 H 0.04548 0.57964 0.15001 0.0
H3200 H 0.08843 0.6576 0.19171 0.0
H3201 H 0.99484 0.60422 0.17383 0.0
H3202 H 0.06425 0.60394 0.16626 0.0
H3203 H 0.03151 0.62525 0.21595 0.0
C3204 C 0.05371 0.64465 0.22246 0.0
C3205 C 0.06966 0.65428 0.21575 0.0
C3206 C 0.049 0.60408 0.16754 0.0
C3207 C 0.05058 0.62929 0.19224 0.0
C3208 C 0.03828 0.59032 0.1583 0.0
C3209 C 0.01859 0.58969 0.16086 0.0
C3210 C 0.03989 0.61686 0.17961 0.0
C3211 C 0.00998 0.60395 0.17164 0.0
C3212 C 0.04405 0.6323 0.2107 0.0
C3213 C 0.07609 0.65049 0.19733 0.0
N3214 N 0.02074 0.6167 0.18096 0.0
N3215 N 0.06652 0.63815 0.18613 0.0
H3216 H 0.43354 0.42404 0.66782 0.0
H3217 H 0.40603 0.31679 0.68667 0.0
H3218 H 0.46772 0.37689 0.64962 0.0
H3219 H 0.40148 0.35977 0.72981 0.0
H3220 H 0.41744 0.34071 0.66453 0.0
H3221 H 0.411 0.40177 0.68197 0.0
C3222 C 0.436 0.40899 0.66632 0.0
C3223 C 0.45255 0.40219 0.65777 0.0
C3224 C 0.41346 0.34491 0.67872 0.0
C3225 C 0.42685 0.37696 0.67349 0.0
C3226 C 0.4069 0.33134 0.69137 0.0
C3227 C 0.40318 0.33628 0.71025 0.0
C3228 C 0.41591 0.36353 0.6849 0.0
C3229 C 0.40452 0.35535 0.71548 0.0
C3230 C 0.4232 0.39639 0.67443 0.0
C3231 C 0.45519 0.38263 0.6563 0.0
N3232 N 0.41099 0.36832 0.70288 0.0
N3233 N 0.44247 0.37063 0.6642 0.0
H3234 H 0.44299 0.56824 0.82251 0.0
H3235 H 0.42353 0.67588 0.79838 0.0
H3236 H 0.48576 0.61091 0.83121 0.0
H3237 H 0.41081 0.63097 0.75911 0.0
H3238 H 0.43775 0.65261 0.81983 0.0
H3239 H 0.42223 0.59236 0.80894 0.0
C3240 C 0.44781 0.58278 0.82207 0.0
C3241 C 0.46619 0.58763 0.82776 0.0
C3242 C 0.43149 0.64792 0.80667 0.0
C3243 C 0.4425 0.61502 0.81259 0.0
C3244 C 0.42337 0.66107 0.79449 0.0
C3245 C 0.41618 0.65523 0.77695 0.0
C3246 C 0.43188 0.62885 0.80143 0.0
C3247 C 0.41639 0.63596 0.77246 0.0
C3248 C 0.43601 0.59642 0.81425 0.0
C3249 C 0.47177 0.60662 0.82677 0.0
N3250 N 0.42416 0.62337 0.78468 0.0
N3251 N 0.45995 0.6197 0.81918 0.0
H3252 H 0.87742 0.16273 0.97987 0.0
H3253 H 0.86031 0.23827 0.90456 0.0
H3254 H 0.92204 0.17391 0.93976 0.0
H3255 H 0.81721 0.19612 0.91419 0.0
H3256 H 0.88367 0.21689 0.91876 0.0
H3257 H 0.85468 0.17689 0.95781 0.0
C3258 C 0.88234 0.16795 0.96633 0.0
C3259 C 0.90153 0.16724 0.96156 0.0
C3260 C 0.86915 0.21225 0.91734 0.0
C3261 C 0.87594 0.18368 0.93672 0.0
C3262 C 0.85586 0.2244 0.90932 0.0
C3263 C 0.83685 0.21895 0.90834 0.0
C3264 C 0.86315 0.19491 0.92488 0.0
C3265 C 0.83176 0.20084 0.91468 0.0
C3266 C 0.86942 0.17589 0.95377 0.0
C3267 C 0.90729 0.17416 0.94387 0.0
N3268 N 0.84477 0.1896 0.92315 0.0
N3269 N 0.89458 0.18251 0.9322 0.0
H3270 H 0.60855 0.8122 0.499 0.0
H3271 H 0.65652 0.79731 0.40026 0.0
H3272 H 0.58413 0.84134 0.45115 0.0
H3273 H 0.64269 0.7513 0.43804 0.0
H3274 H 0.63594 0.8182 0.41904 0.0
H3275 H 0.62947 0.79531 0.47753 0.0
C3276 C 0.60785 0.8154 0.48404 0.0
C3277 C 0.59431 0.82796 0.47683 0.0
C3278 C 0.63734 0.80345 0.42293 0.0
C3279 C 0.6182 0.80861 0.45231 0.0
C3280 C 0.64894 0.79153 0.41225 0.0
C3281 C 0.65141 0.77256 0.41767 0.0
C3282 C 0.62872 0.79636 0.43929 0.0
C3283 C 0.64127 0.76579 0.43332 0.0
C3284 C 0.61967 0.80561 0.47182 0.0
C3285 C 0.5942 0.83157 0.45726 0.0
N3286 N 0.63065 0.77778 0.44378 0.0
N3287 N 0.60592 0.82179 0.44556 0.0
H3288 H 0.84532 0.44548 0.58392 0.0
H3289 H 0.74851 0.43055 0.6331 0.0
H3290 H 0.80998 0.49228 0.60109 0.0
H3291 H 0.79575 0.39959 0.65644 0.0
H3292 H 0.77043 0.44892 0.61402 0.0
H3293 H 0.82759 0.42481 0.60555 0.0
C3294 C 0.83416 0.4515 0.59251 0.0
C3295 C 0.82893 0.47059 0.5905 0.0
C3296 C 0.77593 0.43798 0.62322 0.0
C3297 C 0.80853 0.44704 0.61453 0.0
C3298 C 0.76345 0.42732 0.63397 0.0
C3299 C 0.77033 0.41363 0.64656 0.0
C3300 C 0.79537 0.43472 0.62477 0.0
C3301 C 0.7899 0.41014 0.64701 0.0
C3302 C 0.82409 0.4397 0.60474 0.0
C3303 C 0.81443 0.47766 0.60203 0.0
N3304 N 0.80185 0.42069 0.63623 0.0
N3305 N 0.80444 0.46578 0.61322 0.0
H3306 H 0.83508 0.51215 0.87608 0.0
H3307 H 0.75755 0.58389 0.85791 0.0
H3308 H 0.82175 0.55187 0.92042 0.0
H3309 H 0.79946 0.57452 0.81452 0.0
H3310 H 0.78003 0.57219 0.88153 0.0
H3311 H 0.82161 0.53413 0.85292 0.0
C3312 C 0.82961 0.52564 0.88085 0.0
C3313 C 0.82936 0.53023 0.9001 0.0
C3314 C 0.78441 0.57318 0.86689 0.0
C3315 C 0.81367 0.55502 0.87396 0.0
C3316 C 0.77161 0.57976 0.85344 0.0
C3317 C 0.77662 0.57994 0.83427 0.0
C3318 C 0.80201 0.56623 0.86095 0.0
C3319 C 0.79502 0.57453 0.82918 0.0
C3320 C 0.82205 0.53818 0.86768 0.0
C3321 C 0.82218 0.54787 0.90565 0.0
N3322 N 0.80692 0.56738 0.8424 0.0
N3323 N 0.81413 0.55948 0.89266 0.0
H3324 H 0.65942 0.50672 0.10962 0.0
H3325 H 0.72914 0.58689 0.12686 0.0
H3326 H 0.66733 0.54815 0.06546 0.0
H3327 H 0.68873 0.57358 0.17064 0.0
H3328 H 0.70818 0.57197 0.10362 0.0
H3329 H 0.67153 0.52967 0.13264 0.0
C3330 C 0.66344 0.52072 0.10485 0.0
C3331 C 0.66251 0.52557 0.08568 0.0
C3332 C 0.70377 0.57277 0.11826 0.0
C3333 C 0.6766 0.55148 0.11163 0.0
C3334 C 0.71569 0.5812 0.13147 0.0
C3335 C 0.71065 0.58133 0.15063 0.0
C3336 C 0.68712 0.56392 0.12445 0.0
C3337 C 0.69309 0.57378 0.15596 0.0
C3338 C 0.67021 0.53379 0.11795 0.0
C3339 C 0.66783 0.54389 0.08016 0.0
N3340 N 0.68213 0.56489 0.14299 0.0
N3341 N 0.67509 0.55608 0.09303 0.0
H3342 H 0.73795 0.40839 0.36116 0.0
H3343 H 0.65795 0.47845 0.38034 0.0
H3344 H 0.69451 0.41533 0.31886 0.0
H3345 H 0.67245 0.43865 0.42427 0.0
H3346 H 0.67294 0.45753 0.35706 0.0
H3347 H 0.71613 0.42123 0.38494 0.0
C3348 C 0.72376 0.41232 0.35697 0.0
C3349 C 0.71802 0.4109 0.33806 0.0
C3350 C 0.67246 0.45326 0.37177 0.0
C3351 C 0.69342 0.42589 0.36485 0.0
C3352 C 0.66398 0.46516 0.38499 0.0
C3353 C 0.66402 0.46021 0.40416 0.0
C3354 C 0.68153 0.43674 0.37795 0.0
C3355 C 0.67206 0.44288 0.40956 0.0
C3356 C 0.71135 0.41955 0.37049 0.0
C3357 C 0.69948 0.41618 0.33331 0.0
N3358 N 0.68094 0.43192 0.39655 0.0
N3359 N 0.68795 0.42387 0.34655 0.0
H3360 H 0.00236 0.94799 0.20983 0.0
H3361 H 0.00314 0.04187 0.26896 0.0
H3362 H 0.98536 0.00089 0.18454 0.0
H3363 H 0.98677 0.98896 0.29459 0.0
H3364 H 0.001 0.02719 0.23778 0.0
H3365 H 0.00132 0.96284 0.24097 0.0
C3366 C -0.00145 0.9628 0.21081 0.0
C3367 C 0.99407 0.9733 0.19455 0.0
C3368 C -0.00224 0.01884 0.25022 0.0
C3369 C 0.99291 0.99027 0.23015 0.0
C3370 C -0.0009 0.02712 0.268 0.0
C3371 C 0.99523 0.01653 0.28435 0.0
C3372 C 0.99299 -0.0003 0.24877 0.0
C3373 C 0.98985 -0.00242 0.28231 0.0
C3374 C -0.00222 0.97116 0.2286 0.0
C3375 C 0.98896 0.99233 0.19671 0.0
N3376 N 0.98915 0.98964 0.26479 0.0
N3377 N 0.98873 0.00031 0.21422 0.0
H3378 H 0.2634 0.77854 0.451 0.0
H3379 H 0.2336 0.72142 0.54326 0.0
H3380 H 0.25399 0.71831 0.44961 0.0
H3381 H 0.22022 0.78035 0.53487 0.0
H3382 H 0.24536 0.71994 0.51052 0.0
H3383 H 0.25089 0.77947 0.48317 0.0
C3384 C 0.25844 0.76554 0.45742 0.0
C3385 C 0.25961 0.74834 0.44764 0.0
C3386 C 0.23989 0.73317 0.51595 0.0
C3387 C 0.2458 0.7492 0.48464 0.0
C3388 C 0.23341 0.73408 0.53464 0.0
C3389 C 0.22596 0.75103 0.54175 0.0
C3390 C 0.23919 0.74942 0.50452 0.0
C3391 C 0.22581 0.76698 0.52993 0.0
C3392 C 0.25137 0.76606 0.47578 0.0
C3393 C 0.2531 0.73188 0.45663 0.0
N3394 N 0.23237 0.76579 0.51195 0.0
N3395 N 0.24667 0.73267 0.47477 0.0
H3396 H 0.47637 0.03153 0.71892 0.0
H3397 H 0.50194 0.94234 0.77917 0.0
H3398 H 0.50893 0.98628 0.69405 0.0
H3399 H 0.50084 -0.00201 0.80405 0.0
H3400 H 0.5018 0.9567 0.74767 0.0
H3401 H 0.48168 0.01788 0.75011 0.0
C3402 C 0.48451 0.0186 0.71999 0.0
C3403 C 0.4921 0.00991 0.70382 0.0
C3404 C 0.50185 0.96575 0.76002 0.0
C3405 C 0.49822 0.99431 0.73957 0.0
C3406 C 0.50186 0.95762 0.77796 0.0
C3407 C 0.50131 0.96906 0.79416 0.0
C3408 C 0.50075 0.98544 0.7583 0.0
C3409 C 0.50132 0.98873 0.79188 0.0
C3410 C 0.48771 0.01098 0.73783 0.0
C3411 C 0.50277 0.99336 0.70615 0.0
N3412 N 0.50068 -0.00367 0.77422 0.0
N3413 N 0.50535 0.98593 0.72373 0.0
H3414 H 0.2518 0.25302 0.94152 0.0
H3415 H 0.2396 0.25493 0.05384 0.0
H3416 H 0.19893 0.23989 0.96903 0.0
H3417 H 0.29142 0.23771 0.0266 0.0
H3418 H 0.22459 0.25728 0.0225 0.0
H3419 H 0.26688 0.25521 0.97279 0.0
C3420 C 0.24339 0.2507 0.95411 0.0
C3421 C 0.2242 0.246 0.95273 0.0
C3422 C 0.23927 0.25309 0.02349 0.0
C3423 C 0.2411 0.24889 0.98826 0.0
C3424 C 0.2478 0.25179 0.04129 0.0
C3425 C 0.26664 0.24586 0.04276 0.0
C3426 C 0.24985 0.24889 0.00719 0.0
C3427 C 0.27674 0.24202 0.02609 0.0
C3428 C 0.25195 0.25192 0.97188 0.0
C3429 C 0.21386 0.24322 0.96947 0.0
N3430 N 0.26824 0.24365 0.00899 0.0
N3431 N 0.22242 0.24477 0.98655 0.0
H3432 H 0.19434 0.96776 0.98332 0.0
H3433 H 0.28117 0.02608 0.02591 0.0
H3434 H 0.19582 0.02856 0.98783 0.0
H3435 H 0.28701 0.96856 0.0064 0.0
H3436 H 0.2484 0.02603 0.01563 0.0
H3437 H 0.22649 0.96642 -0.00356 0.0
C3438 C 0.20123 0.98077 0.98755 0.0
C3439 C 0.19247 -0.00169 0.98451 0.0
C3440 C 0.25682 0.01342 0.01348 0.0
C3441 C 0.22913 -0.0031 -0.0009 0.0
C3442 C 0.27558 0.01345 0.01929 0.0
C3443 C 0.28686 -0.00269 0.01694 0.0
C3444 C 0.2491 -0.00294 0.00538 0.0
C3445 C 0.27883 0.98136 0.00829 0.0
C3446 C 0.21964 0.98001 0.99475 0.0
C3447 C 0.2021 0.01476 0.98991 0.0
N3448 N 0.26034 0.98158 0.00291 0.0
N3449 N 0.21992 0.01365 -0.00314 0.0
H3450 H 0.2505 0.04638 0.23989 0.0
H3451 H 0.24825 0.9342 0.25166 0.0
H3452 H 0.23989 0.01964 0.29374 0.0
H3453 H 0.23033 0.96262 0.20068 0.0
H3454 H 0.25144 0.96518 0.26713 0.0
H3455 H 0.24984 0.01509 0.22481 0.0
C3456 C 0.24822 0.03393 0.24853 0.0
C3457 C 0.24507 0.03557 0.26802 0.0
C3458 C 0.24679 0.96452 0.25257 0.0
C3459 C 0.24451 -4e-05 0.25102 0.0
C3460 C 0.24495 0.9469 0.24377 0.0
C3461 C 0.23885 0.94583 0.22494 0.0
C3462 C 0.24292 0.98108 0.24228 0.0
C3463 C 0.23486 0.96275 0.2153 0.0
C3464 C 0.24775 0.01615 0.23995 0.0
C3465 C 0.24216 0.019 0.27861 0.0
N3466 N 0.23709 0.97966 0.22403 0.0
N3467 N 0.242 0.00186 0.26998 0.0
H3468 H 0.22102 0.98554 0.54158 0.0
H3469 H 0.28099 0.97996 0.44746 0.0
H3470 H 0.19642 -0.00217 0.48712 0.0
H3471 H 0.30619 -0.00181 0.49995 0.0
H3472 H 0.24987 0.98123 0.4623 0.0
H3473 H 0.25236 0.98515 0.52699 0.0
C3474 C 0.2222 0.98807 0.52652 0.0
C3475 C 0.20608 0.99164 0.51549 0.0
C3476 C 0.26221 0.98494 0.47055 0.0
C3477 C 0.24187 0.99104 0.49879 0.0
C3478 C 0.28001 0.98408 0.46217 0.0
C3479 C 0.29625 0.98893 0.47252 0.0
C3480 C 0.26061 0.99031 0.48953 0.0
C3481 C 0.29405 0.99435 0.49148 0.0
C3482 C 0.2401 0.98797 0.51827 0.0
C3483 C 0.20848 0.99504 0.49611 0.0
N3484 N 0.27653 0.99475 0.49945 0.0
N3485 N 0.22606 0.99446 0.48831 0.0
H3486 H 0.23405 0.05132 0.75136 0.0
H3487 H 0.22936 0.9391 0.74002 0.0
H3488 H 0.2392 0.02406 0.69704 0.0
H3489 H 0.25544 0.96641 0.78794 0.0
H3490 H 0.22505 0.97037 0.72526 0.0
H3491 H 0.23369 0.01998 0.76649 0.0
C3492 C 0.23488 0.03876 0.74265 0.0
C3493 C 0.23689 0.0402 0.723 0.0
C3494 C 0.23165 0.9694 0.73904 0.0
C3495 C 0.23617 0.00462 0.74001 0.0
C3496 C 0.23411 0.95164 0.74742 0.0
C3497 C 0.24299 0.9502 0.76507 0.0
C3498 C 0.23765 0.9857 0.74867 0.0
C3499 C 0.24879 0.96687 0.77416 0.0
C3500 C 0.23474 0.02096 0.75124 0.0
C3501 C 0.2379 0.02351 0.71228 0.0
N3502 N 0.24594 0.98394 0.7659 0.0
N3503 N 0.2375 0.00639 0.72092 0.0
H3504 H 0.02102 0.28477 0.0299 0.0
H3505 H 0.9843 0.19787 0.96867 0.0
H3506 H 0.00683 0.29094 0.9709 0.0
H3507 H 0.97395 0.2028 0.02858 0.0
H3508 H -0.00184 0.22978 0.96886 0.0
H3509 H 0.00842 0.25264 0.02932 0.0
C3510 C 0.01508 0.27939 0.01685 0.0
C3511 C 0.01485 0.29052 0.00044 0.0
C3512 C 0.99298 0.22374 0.98195 0.0
C3513 C 0.00088 0.25362 -0.00042 0.0
C3514 C 0.98533 0.2055 0.9819 0.0
C3515 C 0.97803 0.19775 -0.00135 0.0
C3516 C 0.9936 0.23403 -0.00108 0.0
C3517 C 0.97941 0.2083 0.01537 0.0
C3518 C 0.00795 0.26105 0.01653 0.0
C3519 C 0.00706 0.28285 0.9839 0.0
N3520 N 0.98706 0.22589 0.01509 0.0
N3521 N 0.00053 0.26473 0.98382 0.0
H3522 H 0.50031 0.19858 0.02289 0.0
H3523 H 0.47306 0.28985 0.96268 0.0
H3524 H 0.51577 0.20625 0.96437 0.0
H3525 H 0.4775 0.29174 0.02347 0.0
H3526 H 0.48554 0.25775 0.96301 0.0
H3527 H 0.48771 0.23104 0.0233 0.0
C3528 C 0.50073 0.20696 0.01007 0.0
C3529 C 0.50906 0.19977 0.99356 0.0
C3530 C 0.48397 0.2652 0.97629 0.0
C3531 C 0.49496 0.23668 0.99399 0.0
C3532 C 0.47692 0.28355 0.9761 0.0
C3533 C 0.47436 0.29346 0.99307 0.0
C3534 C 0.48819 0.25649 0.9936 0.0
C3535 C 0.47949 0.28462 0.01007 0.0
C3536 C 0.49379 0.2255 0.01039 0.0
C3537 C 0.50951 0.21127 0.9774 0.0
N3538 N 0.48599 0.26648 0.00994 0.0
N3539 N 0.50256 0.22912 0.97803 0.0
H3540 H 0.94386 0.24169 0.21693 0.0
H3541 H 0.0393 0.25381 0.27543 0.0
H3542 H 0.94582 0.23369 0.27733 0.0
H3543 H 0.03033 0.2774 0.21985 0.0
H3544 H 0.00584 0.24432 0.27625 0.0
H3545 H 0.97601 0.25409 0.21775 0.0
C3546 C 0.95096 0.24298 0.23044 0.0
C3547 C 0.94219 0.2368 0.2471 0.0
C3548 C 0.01128 0.25158 0.26392 0.0
C3549 C 0.97927 0.2503 0.2481 0.0
C3550 C 0.03039 0.25678 0.26334 0.0
C3551 C 0.03763 0.26637 0.24753 0.0
C3552 C -0.0005 0.25582 0.24847 0.0
C3553 C 0.02539 0.27007 0.23235 0.0
C3554 C 0.96936 0.24992 0.23091 0.0
C3555 C 0.95205 0.23856 0.26422 0.0
N3556 N 0.00701 0.26476 0.23319 0.0
N3557 N 0.97024 0.24489 0.26426 0.0
H3558 H 0.98736 0.69069 0.49898 0.0
H3559 H -0.00054 0.80258 0.49805 0.0
H3560 H 0.03983 0.71791 0.48377 0.0
H3561 H 0.94659 0.77595 0.48329 0.0
H3562 H 0.01449 0.77129 0.49856 0.0
H3563 H 0.97184 0.72187 0.4989 0.0
C3564 C -0.00442 0.70318 0.49564 0.0
C3565 C 0.01485 0.70171 0.49124 0.0
C3566 C -0.00039 0.77238 0.49518 0.0
C3567 C -0.00258 0.73717 0.49151 0.0
C3568 C 0.99105 0.79018 0.49491 0.0
C3569 C 0.97182 0.79186 0.49046 0.0
C3570 C 0.98875 0.75618 0.49141 0.0
C3571 C 0.96152 0.77531 0.48656 0.0
C3572 C 0.98675 0.72089 0.49556 0.0
C3573 C 0.02489 0.71834 0.48705 0.0
N3574 N 0.97008 0.75813 0.48726 0.0
N3575 N 0.0161 0.73538 0.48743 0.0
H3576 H 0.4919 0.80288 0.49022 0.0
H3577 H 0.50516 0.69086 0.49002 0.0
H3578 H 0.54217 0.77591 0.51184 0.0
H3579 H 0.45101 0.71712 0.50007 0.0
H3580 H 0.51993 0.72239 0.49058 0.0
H3581 H 0.47736 0.77147 0.48647 0.0
C3582 C 0.49985 0.79039 0.49412 0.0
C3583 C 0.51814 0.79197 0.50156 0.0
C3584 C 0.5048 0.72115 0.49258 0.0
C3585 C 0.50192 0.75628 0.49688 0.0
C3586 C 0.49641 0.70324 0.49221 0.0
C3587 C 0.47692 0.70143 0.49523 0.0
C3588 C 0.4935 0.73724 0.49548 0.0
C3589 C 0.46615 0.7179 0.49796 0.0
C3590 C 0.49159 0.77255 0.49199 0.0
C3591 C 0.52792 0.77533 0.50631 0.0
N3592 N 0.47457 0.73513 0.49794 0.0
N3593 N 0.51974 0.75818 0.5038 0.0
H3594 H 0.04466 0.73755 0.27735 0.0
H3595 H 0.94777 0.75519 0.22301 0.0
H3596 H 0.04062 0.7343 0.21662 0.0
H3597 H 0.95893 0.77622 0.27918 0.0
H3598 H 0.98088 0.74489 0.22079 0.0
H3599 H 0.0127 0.75048 0.27854 0.0
C3600 C 0.03714 0.73996 0.26423 0.0
C3601 C 0.04528 0.73496 0.24686 0.0
C3602 C 0.97601 0.75175 0.23358 0.0
C3603 C 0.00844 0.74912 0.24813 0.0
C3604 C 0.9571 0.7574 0.23495 0.0
C3605 C 0.95059 0.76654 0.25132 0.0
C3606 C 0.98836 0.75505 0.24879 0.0
C3607 C 0.96334 0.76927 0.26627 0.0
C3608 C 0.01887 0.74722 0.26491 0.0
C3609 C 0.0349 0.7382 0.23027 0.0
N3610 N 0.98155 0.76352 0.26466 0.0
N3611 N 0.01685 0.74482 0.23132 0.0
H3612 H 0.54427 0.23389 0.71333 0.0
H3613 H 0.4603 0.2813 0.77199 0.0
H3614 H 0.54497 0.24124 0.77385 0.0
H3615 H 0.45131 0.25558 0.71738 0.0
H3616 H 0.49321 0.27154 0.77091 0.0
H3617 H 0.51231 0.24752 0.71247 0.0
C3618 C 0.53792 0.23887 0.72634 0.0
C3619 C 0.54721 0.23647 0.7437 0.0
C3620 C 0.48406 0.26797 0.75916 0.0
C3621 C 0.5108 0.25171 0.74284 0.0
C3622 C 0.46522 0.2735 0.75977 0.0
C3623 C 0.45297 0.26916 0.74478 0.0
C3624 C 0.4909 0.25816 0.74337 0.0
C3625 C 0.46023 0.25905 0.72932 0.0
C3626 C 0.51962 0.24637 0.72587 0.0
C3627 C 0.53826 0.24284 0.76019 0.0
N3628 N 0.47881 0.25394 0.72896 0.0
N3629 N 0.52054 0.2501 0.75936 0.0
H3630 H 0.49914 0.4455 0.71165 0.0
H3631 H 0.5071 0.54001 0.7701 0.0
H3632 H 0.48753 0.4997 0.68608 0.0
H3633 H 0.48851 0.48805 0.79622 0.0
H3634 H 0.50438 0.52512 0.7391 0.0
H3635 H 0.49965 0.46054 0.7427 0.0
C3636 C 0.49678 0.4606 0.71256 0.0
C3637 C 0.49339 0.47142 0.69624 0.0
C3638 C 0.50084 0.51701 0.75161 0.0
C3639 C 0.49407 0.48864 0.73175 0.0
C3640 C 0.50253 0.52541 0.76932 0.0
C3641 C 0.49813 0.51518 0.78577 0.0
C3642 C 0.49509 0.49812 0.75032 0.0
C3643 C 0.49205 0.49641 0.78388 0.0
C3644 C 0.49693 0.46911 0.7303 0.0
C3645 C 0.4902 0.49088 0.6983 0.0
N3646 N 0.4909 0.48838 0.76644 0.0
N3647 N 0.49083 0.49893 0.71576 0.0
H3648 H 0.74971 0.23787 0.04863 0.0
H3649 H 0.73545 0.24003 0.93669 0.0
H3650 H 0.69661 0.25322 0.02284 0.0
H3651 H 0.78819 0.2554 0.96319 0.0
H3652 H 0.72092 0.23764 0.96824 0.0
H3653 H 0.76422 0.23701 0.01699 0.0
C3654 C 0.74112 0.24094 0.03633 0.0
C3655 C 0.72203 0.24583 0.03833 0.0
C3656 C 0.73569 0.24148 0.96704 0.0
C3657 C 0.7383 0.2445 0.00235 0.0
C3658 C 0.74395 0.24282 0.94911 0.0
C3659 C 0.76296 0.24813 0.94735 0.0
C3660 C 0.74667 0.24502 0.98322 0.0
C3661 C 0.77341 0.25152 0.9639 0.0
C3662 C 0.74937 0.24049 0.01836 0.0
C3663 C 0.71147 0.24964 0.02194 0.0
N3664 N 0.76515 0.24982 0.98114 0.0
N3665 N 0.71971 0.24882 0.00463 0.0
H3666 H 0.98795 0.44536 0.27566 0.0
H3667 H 0.98191 0.53837 0.21557 0.0
H3668 H 0.00061 0.49957 0.30059 0.0
H3669 H 0.00346 0.48701 0.19069 0.0
H3670 H 0.98416 0.5239 0.24683 0.0
H3671 H 0.98909 0.45985 0.24427 0.0
C3672 C 0.99088 0.46035 0.27452 0.0
C3673 C 0.99405 0.47136 0.29074 0.0
C3674 C 0.98847 0.51584 0.23454 0.0
C3675 C 0.99524 0.48792 0.25494 0.0
C3676 C 0.98705 0.52399 0.21669 0.0
C3677 C 0.99238 0.51378 0.20052 0.0
C3678 C 0.99483 0.49718 0.23624 0.0
C3679 C -0.0008 0.49531 0.20282 0.0
C3680 C 0.99169 0.46852 0.25662 0.0
C3681 C -0.00194 0.49063 0.28844 0.0
N3682 N -2e-05 0.48746 0.22039 0.0
N3683 N -0.00171 0.49838 0.27084 0.0
H3684 H 0.75403 0.77574 0.54157 0.0
H3685 H 0.73434 0.71529 0.44885 0.0
H3686 H 0.77792 0.72049 0.5315 0.0
H3687 H 0.7299 0.7761 0.4485 0.0
H3688 H 0.74816 0.71672 0.48038 0.0
H3689 H 0.74201 0.7759 0.50886 0.0
C3690 C 0.75657 0.76361 0.53258 0.0
C3691 C 0.76696 0.74808 0.53927 0.0
C3692 C 0.7444 0.7298 0.47336 0.0
C3693 C 0.75344 0.74821 0.5021 0.0
C3694 C 0.7366 0.72899 0.45534 0.0
C3695 C 0.73111 0.74561 0.44608 0.0
C3696 C 0.74638 0.74735 0.48241 0.0
C3697 C 0.73419 0.76299 0.45514 0.0
C3698 C 0.74991 0.76379 0.51392 0.0
C3699 C 0.77003 0.7328 0.52698 0.0
N3700 N 0.74141 0.76342 0.47299 0.0
N3701 N 0.76326 0.73323 0.50908 0.0
H3702 H 0.79342 0.46573 0.51103 0.0
H3703 H 0.70488 0.52484 0.47337 0.0
H3704 H 0.7895 0.52659 0.51177 0.0
H3705 H 0.70081 0.46521 0.4855 0.0
H3706 H 0.73696 0.52494 0.48541 0.0
H3707 H 0.76089 0.46428 0.49865 0.0
C3708 C 0.78586 0.47875 0.50825 0.0
C3709 C 0.79411 0.49632 0.51242 0.0
C3710 C 0.72909 0.51181 0.48563 0.0
C3711 C 0.75711 0.49477 0.49865 0.0
C3712 C 0.7107 0.51177 0.47881 0.0
C3713 C 0.70016 0.49501 0.47848 0.0
C3714 C 0.73724 0.49489 0.49202 0.0
C3715 C 0.70844 0.47847 0.4857 0.0
C3716 C 0.76727 0.47792 0.50145 0.0
C3717 C 0.78365 0.51276 0.50884 0.0
N3718 N 0.72664 0.47877 0.49204 0.0
N3719 N 0.76575 0.51157 0.50221 0.0
H3720 H 0.7389 0.51819 0.79093 0.0
H3721 H 0.72479 0.45919 0.69811 0.0
H3722 H 0.74646 0.54345 0.7359 0.0
H3723 H 0.75063 0.43345 0.74707 0.0
H3724 H 0.72785 0.49008 0.71301 0.0
H3725 H 0.73897 0.48685 0.77628 0.0
C3726 C 0.74061 0.51712 0.77574 0.0
C3727 C 0.74256 0.53341 0.76454 0.0
C3728 C 0.73285 0.47767 0.72047 0.0
C3729 C 0.74238 0.4977 0.74781 0.0
C3730 C 0.73093 0.45999 0.71211 0.0
C3731 C 0.73736 0.44366 0.72144 0.0
C3732 C 0.74087 0.47909 0.73849 0.0
C3733 C 0.74545 0.44567 0.73944 0.0
C3734 C 0.74076 0.49925 0.76746 0.0
C3735 C 0.74492 0.53123 0.74499 0.0
N3736 N 0.74681 0.4631 0.7475 0.0
N3737 N 0.74448 0.51367 0.73718 0.0
H3738 H 0.78823 0.45847 0.96782 0.0
H3739 H 0.69952 0.51613 0.00478 0.0
H3740 H 0.79195 0.51792 0.98095 0.0
H3741 H 0.70772 0.45726 0.01861 0.0
H3742 H 0.73136 0.5169 0.99097 0.0
H3743 H 0.75682 0.45756 0.98231 0.0
C3744 C 0.78249 0.47128 0.97395 0.0
C3745 C 0.7927 0.48828 0.97329 0.0
C3746 C 0.7261 0.50383 -0.00302 0.0
C3747 C 0.75664 0.48743 0.98934 0.0
C3748 C 0.7079 0.50331 0.00464 0.0
C3749 C 0.701 0.4866 0.01282 0.0
C3750 C 0.73727 0.48742 -0.00282 0.0
C3751 C 0.71253 0.47045 0.01249 0.0
C3752 C 0.76459 0.47075 0.98216 0.0
C3753 C 0.7846 0.5045 0.98136 0.0
N3754 N 0.73007 0.47123 0.00472 0.0
N3755 N 0.76689 0.50374 0.98885 0.0
H3756 H 0.73719 0.44016 0.23894 0.0
H3757 H 0.73811 0.5523 0.25219 0.0
H3758 H 0.76026 0.46716 0.28856 0.0
H3759 H 0.74398 0.52573 0.1976 0.0
H3760 H 0.73907 0.52079 0.26704 0.0
H3761 H 0.73286 0.47151 0.22454 0.0
C3762 C 0.74135 0.45264 0.24677 0.0
C3763 C 0.74928 0.45106 0.26486 0.0
C3764 C 0.74001 0.52196 0.2518 0.0
C3765 C 0.74393 0.48675 0.24878 0.0
C3766 C 0.73936 0.53985 0.24336 0.0
C3767 C 0.74115 0.54155 0.22371 0.0
C3768 C 0.74201 0.50578 0.2404 0.0
C3769 C 0.74279 0.52501 0.21285 0.0
C3770 C 0.73886 0.47047 0.23859 0.0
C3771 C 0.75433 0.46771 0.27446 0.0
N3772 N 0.74314 0.50781 0.22133 0.0
N3773 N 0.75147 0.48487 0.26635 0.0
H3774 H 0.44577 0.73817 0.7694 0.0
H3775 H 0.53427 0.77609 0.71175 0.0
H3776 H 0.45245 0.727 0.70981 0.0
H3777 H 0.53903 0.7581 0.76985 0.0
H3778 H 0.50204 0.76349 0.71086 0.0
H3779 H 0.47764 0.75194 0.76993 0.0
C3780 C 0.45378 0.73899 0.75637 0.0
C3781 C 0.44653 0.73146 0.73953 0.0
C3782 C 0.51021 0.76221 0.72375 0.0
C3783 C 0.48278 0.74702 0.74009 0.0
C3784 C 0.52857 0.76933 0.72426 0.0
C3785 C 0.53933 0.76799 0.74087 0.0
C3786 C 0.5024 0.75416 0.74009 0.0
C3787 C 0.53126 0.7592 0.75671 0.0
C3788 C 0.47199 0.74661 0.75674 0.0
C3789 C 0.45757 0.73263 0.72308 0.0
N3790 N 0.51314 0.75279 0.75602 0.0
N3791 N 0.47516 0.7403 0.72375 0.0
loop_
_geom_bond_atom_site_label_1
_geom_bond_atom_site_label_2
_geom_bond_distance
_geom_bond_site_symmetry_2
_ccdc_geom_bond_type
Co0 O3 1.970 . S
Co0 N17 1.989 . S
Co0 O25 1.967 1_455 S
Co0 O32 1.920 . S
Co1 O4 1.966 . S
Co1 N10 2.022 . S
Co1 N18 1.993 1_655 S
Co1 O26 1.941 . S
C2 O3 1.298 . S
C2 O4 1.230 1_455 S
O3 Co0 1.970 . S
O3 C2 1.298 . S
O4 Co1 1.966 . S
O4 C2 1.230 1_655 S
C5 O6 1.235 . S
C5 O32 1.289 . S
O6 C5 1.235 . S
C7 C9 1.400 . S
C7 N10 1.351 . S
C7 C12 1.501 1_545 S
C8 C9 1.387 . S
C8 N11 1.341 . S
C9 C7 1.400 . S
C9 C8 1.387 . S
N10 Co1 2.022 . S
N10 C7 1.351 . S
N10 N11 1.365 . S
N11 C8 1.341 . S
N11 N10 1.365 . S
N11 H31 0.862 . S
C12 C7 1.501 1_565 S
C12 H13 0.961 1_565 S
C12 H14 0.961 . S
C12 H15 0.960 . S
H13 C12 0.961 1_545 S
H14 C12 0.961 . S
H15 C12 0.960 . S
C16 N17 1.342 . S
C16 C20 1.401 . S
C16 C21 1.499 . S
N17 Co0 1.989 . S
N17 C16 1.342 . S
N17 N18 1.388 . S
N18 Co1 1.993 1_455 S
N18 N17 1.388 . S
N18 C19 1.346 . S
C19 N18 1.346 . S
C19 C20 1.396 . S
C19 C29 1.510 1_455 S
C20 C16 1.401 . S
C20 C19 1.396 . S
C21 C16 1.499 . S
C21 H22 0.959 . S
C21 H23 0.960 . S
C21 H24 0.961 . S
H22 C21 0.959 . S
H23 C21 0.960 . S
H24 C21 0.961 . S
O25 Co0 1.967 1_655 S
O25 C33 1.258 . S
O26 Co1 1.941 . S
O26 C33 1.266 . S
H27 C29 0.959 . S
H28 C29 0.961 1_455 S
C29 C19 1.510 1_655 S
C29 H27 0.959 . S
C29 H28 0.961 1_655 S
C29 H30 0.960 . S
H30 C29 0.960 . S
H31 N11 0.862 . S
O32 Co0 1.920 . S
O32 C5 1.289 . S
C33 O25 1.258 . S
C33 O26 1.266 . S
Co34 O37 1.970 . S
Co34 N51 1.989 . S
Co34 O59 1.967 . S
Co34 O66 1.920 . S
Co35 O38 1.966 . S
Co35 N44 2.022 . S
Co35 N52 1.993 . S
Co35 O60 1.941 . S
C36 O37 1.258 . S
C36 O38 1.263 . S
O37 Co34 1.970 . S
O37 C36 1.258 . S
O38 Co35 1.966 . S
O38 C36 1.263 . S
C39 O40 1.235 . S
C39 O66 1.289 . S
O40 C39 1.235 . S
C41 C43 1.400 . S
C41 N44 1.351 . S
C41 C46 1.501 . S
C42 C43 1.387 . S
C42 N45 1.341 . S
C43 C41 1.400 . S
C43 C42 1.387 . S
N44 Co35 2.022 . S
N44 C41 1.351 . S
N44 N45 1.365 . S
N45 C42 1.341 . S
N45 N44 1.365 . S
N45 H65 0.862 . S
C46 C41 1.501 . S
C46 H47 0.961 . S
C46 H48 0.961 . S
C46 H49 0.960 . S
H47 C46 0.961 . S
H48 C46 0.961 . S
H49 C46 0.960 . S
C50 N51 1.342 . S
C50 C54 1.401 . S
C50 C55 1.499 . S
N51 Co34 1.989 . S
N51 C50 1.342 . S
N51 N52 1.388 . S
N52 Co35 1.993 . S
N52 N51 1.388 . S
N52 C53 1.346 . S
C53 N52 1.346 . S
C53 C54 1.396 . S
C53 C63 1.510 . S
C54 C50 1.401 . S
C54 C53 1.396 . S
C55 C50 1.499 . S
C55 H56 0.959 . S
C55 H57 0.960 . S
C55 H58 0.961 . S
H56 C55 0.959 . S
H57 C55 0.960 . S
H58 C55 0.961 . S
O59 Co34 1.967 . S
O59 C67 1.258 . S
O60 Co35 1.941 . S
O60 C67 1.266 . S
H61 C63 0.959 . S
H62 C63 0.961 . S
C63 C53 1.510 . S
C63 H61 0.959 . S
C63 H62 0.961 . S
C63 H64 0.960 . S
H64 C63 0.960 . S
H65 N45 0.862 . S
O66 Co34 1.920 . S
O66 C39 1.289 . S
C67 O59 1.258 . S
C67 O60 1.266 . S
Co68 O71 1.970 . S
Co68 N85 1.989 . S
Co68 O93 1.967 . S
Co68 O100 1.920 . S
Co69 O72 1.966 . S
Co69 N78 2.022 . S
Co69 N86 1.993 . S
Co69 O94 1.941 . S
C70 O71 1.258 . S
C70 O72 1.263 . S
O71 Co68 1.970 . S
O71 C70 1.258 . S
O72 Co69 1.966 . S
O72 C70 1.263 . S
C73 O74 1.235 . S
C73 O100 1.289 . S
O74 C73 1.235 . S
C75 C77 1.400 . S
C75 N78 1.351 . S
C75 C80 1.485 1_565 S
C76 C77 1.387 . S
C76 N79 1.341 . S
C77 C75 1.400 . S
C77 C76 1.387 . S
N78 Co69 2.022 . S
N78 C75 1.351 . S
N78 N79 1.365 . S
N79 C76 1.341 . S
N79 N78 1.365 . S
N79 H99 0.862 . S
C80 C75 1.485 1_545 S
C80 H81 0.942 1_545 S
C80 H82 0.983 . S
C80 H83 0.973 . S
H81 C80 0.942 1_565 S
H82 C80 0.983 . S
H83 C80 0.973 . S
C84 N85 1.342 . S
C84 C88 1.401 . S
C84 C89 1.499 . S
N85 Co68 1.989 . S
N85 C84 1.342 . S
N85 N86 1.388 . S
N86 Co69 1.993 . S
N86 N85 1.388 . S
N86 C87 1.346 . S
C87 N86 1.346 . S
C87 C88 1.396 . S
C87 C97 1.510 . S
C88 C84 1.401 . S
C88 C87 1.396 . S
C89 C84 1.499 . S
C89 H90 0.959 . S
C89 H91 0.960 . S
C89 H92 0.961 . S
H90 C89 0.959 . S
H91 C89 0.960 . S
H92 C89 0.961 . S
O93 Co68 1.967 . S
O93 C101 1.258 . S
O94 Co69 1.941 . S
O94 C101 1.266 . S
H95 C97 0.959 . S
H96 C97 0.961 . S
C97 C87 1.510 . S
C97 H95 0.959 . S
C97 H96 0.961 . S
C97 H98 0.960 . S
H98 C97 0.960 . S
H99 N79 0.862 . S
O100 Co68 1.920 . S
O100 C73 1.289 . S
C101 O93 1.258 . S
C101 O94 1.266 . S
Co102 O105 1.970 . S
Co102 N119 1.989 . S
Co102 O127 1.967 . S
Co102 O134 1.920 . S
Co103 O106 1.966 . S
Co103 N112 2.022 . S
Co103 N120 1.993 . S
Co103 O128 1.941 . S
C104 O105 1.258 . S
C104 O106 1.263 . S
O105 Co102 1.970 . S
O105 C104 1.258 . S
O106 Co103 1.966 . S
O106 C104 1.263 . S
C107 O108 1.235 . S
C107 O134 1.289 . S
O108 C107 1.235 . S
C109 C111 1.400 . S
C109 N112 1.351 . S
C109 C114 1.501 . S
C110 C111 1.387 . S
C110 N113 1.341 . S
C111 C109 1.400 . S
C111 C110 1.387 . S
N112 Co103 2.022 . S
N112 C109 1.351 . S
N112 N113 1.365 . S
N113 C110 1.341 . S
N113 N112 1.365 . S
N113 H133 0.862 . S
C114 C109 1.501 . S
C114 H115 0.961 . S
C114 H116 0.961 . S
C114 H117 0.960 . S
H115 C114 0.961 . S
H116 C114 0.961 . S
H117 C114 0.960 . S
C118 N119 1.342 . S
C118 C122 1.401 . S
C118 C123 1.499 . S
N119 Co102 1.989 . S
N119 C118 1.342 . S
N119 N120 1.388 . S
N120 Co103 1.993 . S
N120 N119 1.388 . S
N120 C121 1.346 . S
C121 N120 1.346 . S
C121 C122 1.396 . S
C121 C131 1.510 . S
C122 C118 1.401 . S
C122 C121 1.396 . S
C123 C118 1.499 . S
C123 H124 0.959 . S
C123 H125 0.960 . S
C123 H126 0.961 . S
H124 C123 0.959 . S
H125 C123 0.960 . S
H126 C123 0.961 . S
O127 Co102 1.967 . S
O127 C135 1.258 . S
O128 Co103 1.941 . S
O128 C135 1.266 . S
H129 C131 0.959 . S
H130 C131 0.961 . S
C131 C121 1.510 . S
C131 H129 0.959 . S
C131 H130 0.961 . S
C131 H132 0.960 . S
H132 C131 0.960 . S
H133 N113 0.862 . S
O134 Co102 1.920 . S
O134 C107 1.289 . S
C135 O127 1.258 . S
C135 O128 1.266 . S
Co136 O139 1.970 . S
Co136 N153 1.989 . S
Co136 O161 1.967 1_455 S
Co136 O168 1.920 . S
Co137 O140 1.966 . S
Co137 N146 2.022 . S
Co137 N154 1.993 1_655 S
Co137 O162 1.941 . S
C138 O139 1.298 . S
C138 O140 1.230 1_455 S
O139 Co136 1.970 . S
O139 C138 1.298 . S
O140 Co137 1.966 . S
O140 C138 1.230 1_655 S
C141 O142 1.235 . S
C141 O168 1.289 . S
O142 C141 1.235 . S
C143 C145 1.400 . S
C143 N146 1.351 . S
C143 C148 1.485 1_565 S
C144 C145 1.387 . S
C144 N147 1.341 . S
C145 C143 1.400 . S
C145 C144 1.387 . S
N146 Co137 2.022 . S
N146 C143 1.351 . S
N146 N147 1.365 . S
N147 C144 1.341 . S
N147 N146 1.365 . S
N147 H167 0.862 . S
C148 C143 1.485 1_545 S
C148 H149 0.942 1_545 S
C148 H150 0.983 . S
C148 H151 0.973 . S
H149 C148 0.942 1_565 S
H150 C148 0.983 . S
H151 C148 0.973 . S
C152 N153 1.342 . S
C152 C156 1.401 . S
C152 C157 1.499 . S
N153 Co136 1.989 . S
N153 C152 1.342 . S
N153 N154 1.388 . S
N154 Co137 1.993 1_455 S
N154 N153 1.388 . S
N154 C155 1.346 . S
C155 N154 1.346 . S
C155 C156 1.396 . S
C155 C165 1.510 1_455 S
C156 C152 1.401 . S
C156 C155 1.396 . S
C157 C152 1.499 . S
C157 H158 0.959 . S
C157 H159 0.960 . S
C157 H160 0.961 . S
H158 C157 0.959 . S
H159 C157 0.960 . S
H160 C157 0.961 . S
O161 Co136 1.967 1_655 S
O161 C169 1.258 . S
O162 Co137 1.941 . S
O162 C169 1.266 . S
H163 C165 0.959 . S
H164 C165 0.961 1_455 S
C165 C155 1.510 1_655 S
C165 H163 0.959 . S
C165 H164 0.961 1_655 S
C165 H166 0.960 . S
H166 C165 0.960 . S
H167 N147 0.862 . S
O168 Co136 1.920 . S
O168 C141 1.289 . S
C169 O161 1.258 . S
C169 O162 1.266 . S
Co170 O173 1.970 . S
Co170 N187 1.989 . S
Co170 O195 1.967 . S
Co170 O202 1.920 . S
Co171 O174 1.966 . S
Co171 N180 2.022 . S
Co171 N188 1.993 . S
Co171 O196 1.941 . S
C172 O173 1.258 . S
C172 O174 1.263 . S
O173 Co170 1.970 . S
O173 C172 1.258 . S
O174 Co171 1.966 . S
O174 C172 1.263 . S
C175 O176 1.235 . S
C175 O202 1.289 . S
O176 C175 1.235 . S
C177 C179 1.400 . S
C177 N180 1.351 . S
C177 C182 1.501 . S
C178 C179 1.387 . S
C178 N181 1.341 . S
C179 C177 1.400 . S
C179 C178 1.387 . S
N180 Co171 2.022 . S
N180 C177 1.351 . S
N180 N181 1.365 . S
N181 C178 1.341 . S
N181 N180 1.365 . S
N181 H201 0.862 . S
C182 C177 1.501 . S
C182 H183 0.961 . S
C182 H184 0.961 . S
C182 H185 0.960 . S
H183 C182 0.961 . S
H184 C182 0.961 . S
H185 C182 0.960 . S
C186 N187 1.342 . S
C186 C190 1.401 . S
C186 C191 1.499 . S
N187 Co170 1.989 . S
N187 C186 1.342 . S
N187 N188 1.388 . S
N188 Co171 1.993 . S
N188 N187 1.388 . S
N188 C189 1.346 . S
C189 N188 1.346 . S
C189 C190 1.396 . S
C189 C199 1.510 . S
C190 C186 1.401 . S
C190 C189 1.396 . S
C191 C186 1.499 . S
C191 H192 0.959 . S
C191 H193 0.960 . S
C191 H194 0.961 . S
H192 C191 0.959 . S
H193 C191 0.960 . S
H194 C191 0.961 . S
O195 Co170 1.967 . S
O195 C203 1.258 . S
O196 Co171 1.941 . S
O196 C203 1.266 . S
H197 C199 0.959 . S
H198 C199 0.961 . S
C199 C189 1.510 . S
C199 H197 0.959 . S
C199 H198 0.961 . S
C199 H200 0.960 . S
H200 C199 0.960 . S
H201 N181 0.862 . S
O202 Co170 1.920 . S
O202 C175 1.289 . S
C203 O195 1.258 . S
C203 O196 1.266 . S
Co204 O207 1.970 . S
Co204 N221 1.989 . S
Co204 O229 1.967 . S
Co204 O236 1.920 . S
Co205 O208 1.966 . S
Co205 N214 2.022 . S
Co205 N222 1.993 . S
Co205 O230 1.941 . S
C206 O207 1.258 . S
C206 O208 1.263 . S
O207 Co204 1.970 . S
O207 C206 1.258 . S
O208 Co205 1.966 . S
O208 C206 1.263 . S
C209 O210 1.235 . S
C209 O236 1.289 . S
O210 C209 1.235 . S
C211 C213 1.400 . S
C211 N214 1.351 . S
C211 C216 1.501 1_545 S
C212 C213 1.387 . S
C212 N215 1.341 . S
C213 C211 1.400 . S
C213 C212 1.387 . S
N214 Co205 2.022 . S
N214 C211 1.351 . S
N214 N215 1.365 . S
N215 C212 1.341 . S
N215 N214 1.365 . S
N215 H235 0.862 . S
C216 C211 1.501 1_565 S
C216 H217 0.961 1_565 S
C216 H218 0.961 . S
C216 H219 0.960 . S
H217 C216 0.961 1_545 S
H218 C216 0.961 . S
H219 C216 0.960 . S
C220 N221 1.342 . S
C220 C224 1.401 . S
C220 C225 1.499 . S
N221 Co204 1.989 . S
N221 C220 1.342 . S
N221 N222 1.388 . S
N222 Co205 1.993 . S
N222 N221 1.388 . S
N222 C223 1.346 . S
C223 N222 1.346 . S
C223 C224 1.396 . S
C223 C233 1.510 . S
C224 C220 1.401 . S
C224 C223 1.396 . S
C225 C220 1.499 . S
C225 H226 0.959 . S
C225 H227 0.960 . S
C225 H228 0.961 . S
H226 C225 0.959 . S
H227 C225 0.960 . S
H228 C225 0.961 . S
O229 Co204 1.967 . S
O229 C237 1.258 . S
O230 Co205 1.941 . S
O230 C237 1.266 . S
H231 C233 0.959 . S
H232 C233 0.961 . S
C233 C223 1.510 . S
C233 H231 0.959 . S
C233 H232 0.961 . S
C233 H234 0.960 . S
H234 C233 0.960 . S
H235 N215 0.862 . S
O236 Co204 1.920 . S
O236 C209 1.289 . S
C237 O229 1.258 . S
C237 O230 1.266 . S
Co238 O241 1.970 . S
Co238 N255 1.989 . S
Co238 O263 1.967 . S
Co238 O270 1.920 . S
Co239 O242 1.966 . S
Co239 N248 2.022 . S
Co239 N256 1.993 . S
Co239 O264 1.941 . S
C240 O241 1.258 . S
C240 O242 1.263 . S
O241 Co238 1.970 . S
O241 C240 1.258 . S
O242 Co239 1.966 . S
O242 C240 1.263 . S
C243 O244 1.235 . S
C243 O270 1.289 . S
O244 C243 1.235 . S
C245 C247 1.400 . S
C245 N248 1.351 . S
C245 C250 1.501 . S
C246 C247 1.387 . S
C246 N249 1.341 . S
C247 C245 1.400 . S
C247 C246 1.387 . S
N248 Co239 2.022 . S
N248 C245 1.351 . S
N248 N249 1.365 . S
N249 C246 1.341 . S
N249 N248 1.365 . S
N249 H269 0.862 . S
C250 C245 1.501 . S
C250 H251 0.961 . S
C250 H252 0.961 . S
C250 H253 0.960 . S
H251 C250 0.961 . S
H252 C250 0.961 . S
H253 C250 0.960 . S
C254 N255 1.342 . S
C254 C258 1.401 . S
C254 C259 1.499 . S
N255 Co238 1.989 . S
N255 C254 1.342 . S
N255 N256 1.388 . S
N256 Co239 1.993 . S
N256 N255 1.388 . S
N256 C257 1.346 . S
C257 N256 1.346 . S
C257 C258 1.396 . S
C257 C267 1.510 . S
C258 C254 1.401 . S
C258 C257 1.396 . S
C259 C254 1.499 . S
C259 H260 0.959 . S
C259 H261 0.960 . S
C259 H262 0.961 . S
H260 C259 0.959 . S
H261 C259 0.960 . S
H262 C259 0.961 . S
O263 Co238 1.967 . S
O263 C271 1.258 . S
O264 Co239 1.941 . S
O264 C271 1.266 . S
H265 C267 0.959 . S
H266 C267 0.961 . S
C267 C257 1.510 . S
C267 H265 0.959 . S
C267 H266 0.961 . S
C267 H268 0.960 . S
H268 C267 0.960 . S
H269 N249 0.862 . S
O270 Co238 1.920 . S
O270 C243 1.289 . S
C271 O263 1.258 . S
C271 O264 1.266 . S
Co272 O275 1.970 . S
Co272 N289 1.989 . S
Co272 O297 1.967 1_545 S
Co272 O304 1.920 . S
Co273 O276 1.966 . S
Co273 N282 2.022 . S
Co273 N290 1.993 1_565 S
Co273 O298 1.941 . S
C274 O275 1.298 . S
C274 O276 1.230 1_545 S
O275 Co272 1.970 . S
O275 C274 1.298 . S
O276 Co273 1.966 . S
O276 C274 1.230 1_565 S
C277 O278 1.235 . S
C277 O304 1.289 . S
O278 C277 1.235 . S
C279 C281 1.400 . S
C279 N282 1.351 . S
C279 C284 1.501 1_554 S
C280 C281 1.387 . S
C280 N283 1.341 . S
C281 C279 1.400 . S
C281 C280 1.387 . S
N282 Co273 2.022 . S
N282 C279 1.351 . S
N282 N283 1.365 . S
N283 C280 1.341 . S
N283 N282 1.365 . S
N283 H303 0.862 . S
C284 C279 1.501 1_556 S
C284 H285 0.961 1_556 S
C284 H286 0.961 . S
C284 H287 0.960 . S
H285 C284 0.961 1_554 S
H286 C284 0.961 . S
H287 C284 0.960 . S
C288 N289 1.342 . S
C288 C292 1.401 . S
C288 C293 1.499 . S
N289 Co272 1.989 . S
N289 C288 1.342 . S
N289 N290 1.388 . S
N290 Co273 1.993 1_545 S
N290 N289 1.388 . S
N290 C291 1.346 . S
C291 N290 1.346 . S
C291 C292 1.396 . S
C291 C301 1.510 1_545 S
C292 C288 1.401 . S
C292 C291 1.396 . S
C293 C288 1.499 . S
C293 H294 0.959 . S
C293 H295 0.960 . S
C293 H296 0.961 . S
H294 C293 0.959 . S
H295 C293 0.960 . S
H296 C293 0.961 . S
O297 Co272 1.967 1_565 S
O297 C305 1.258 . S
O298 Co273 1.941 . S
O298 C305 1.266 . S
H299 C301 0.959 . S
H300 C301 0.961 1_545 S
C301 C291 1.510 1_565 S
C301 H299 0.959 . S
C301 H300 0.961 1_565 S
C301 H302 0.960 . S
H302 C301 0.960 . S
H303 N283 0.862 . S
O304 Co272 1.920 . S
O304 C277 1.289 . S
C305 O297 1.258 . S
C305 O298 1.266 . S
Co306 O309 1.970 . S
Co306 N323 1.989 . S
Co306 O331 1.967 . S
Co306 O338 1.920 . S
Co307 O310 1.966 . S
Co307 N316 2.022 . S
Co307 N324 1.993 . S
Co307 O332 1.941 . S
C308 O309 1.258 . S
C308 O310 1.263 . S
O309 Co306 1.970 . S
O309 C308 1.258 . S
O310 Co307 1.966 . S
O310 C308 1.263 . S
C311 O312 1.235 . S
C311 O338 1.289 . S
O312 C311 1.235 . S
C313 C315 1.400 . S
C313 N316 1.351 . S
C313 C318 1.501 . S
C314 C315 1.387 . S
C314 N317 1.341 . S
C315 C313 1.400 . S
C315 C314 1.387 . S
N316 Co307 2.022 . S
N316 C313 1.351 . S
N316 N317 1.365 . S
N317 C314 1.341 . S
N317 N316 1.365 . S
N317 H337 0.862 . S
C318 C313 1.501 . S
C318 H319 0.961 . S
C318 H320 0.961 . S
C318 H321 0.960 . S
H319 C318 0.961 . S
H320 C318 0.961 . S
H321 C318 0.960 . S
C322 N323 1.342 . S
C322 C326 1.401 . S
C322 C327 1.499 . S
N323 Co306 1.989 . S
N323 C322 1.342 . S
N323 N324 1.388 . S
N324 Co307 1.993 . S
N324 N323 1.388 . S
N324 C325 1.346 . S
C325 N324 1.346 . S
C325 C326 1.396 . S
C325 C335 1.510 . S
C326 C322 1.401 . S
C326 C325 1.396 . S
C327 C322 1.499 . S
C327 H328 0.959 . S
C327 H329 0.960 . S
C327 H330 0.961 . S
H328 C327 0.959 . S
H329 C327 0.960 . S
H330 C327 0.961 . S
O331 Co306 1.967 . S
O331 C339 1.258 . S
O332 Co307 1.941 . S
O332 C339 1.266 . S
H333 C335 0.959 . S
H334 C335 0.961 . S
C335 C325 1.510 . S
C335 H333 0.959 . S
C335 H334 0.961 . S
C335 H336 0.960 . S
H336 C335 0.960 . S
H337 N317 0.862 . S
O338 Co306 1.920 . S
O338 C311 1.289 . S
C339 O331 1.258 . S
C339 O332 1.266 . S
Co340 O343 1.970 . S
Co340 N357 1.989 . S
Co340 O365 1.967 1_565 S
Co340 O372 1.920 . S
Co341 O344 1.966 . S
Co341 N350 2.022 . S
Co341 N358 1.993 1_545 S
Co341 O366 1.941 . S
C342 O343 1.258 . S
C342 O344 1.263 1_565 S
O343 Co340 1.970 . S
O343 C342 1.258 . S
O344 Co341 1.966 . S
O344 C342 1.263 1_545 S
C345 O346 1.235 . S
C345 O372 1.289 . S
O346 C345 1.235 . S
C347 C349 1.400 . S
C347 N350 1.351 . S
C347 C352 1.501 . S
C348 C349 1.387 . S
C348 N351 1.341 . S
C349 C347 1.400 . S
C349 C348 1.387 . S
N350 Co341 2.022 . S
N350 C347 1.351 . S
N350 N351 1.365 . S
N351 C348 1.341 . S
N351 N350 1.365 . S
N351 H371 0.862 . S
C352 C347 1.501 . S
C352 H353 0.961 . S
C352 H354 0.961 . S
C352 H355 0.960 . S
H353 C352 0.961 . S
H354 C352 0.961 . S
H355 C352 0.960 . S
C356 N357 1.342 . S
C356 C360 1.401 . S
C356 C361 1.499 . S
N357 Co340 1.989 . S
N357 C356 1.342 . S
N357 N358 1.388 . S
N358 Co341 1.993 1_565 S
N358 N357 1.388 . S
N358 C359 1.346 . S
C359 N358 1.346 . S
C359 C360 1.396 . S
C359 C369 1.538 . S
C360 C356 1.401 . S
C360 C359 1.396 . S
C361 C356 1.499 . S
C361 H362 0.959 . S
C361 H363 0.960 . S
C361 H364 0.961 . S
H362 C361 0.959 . S
H363 C361 0.960 . S
H364 C361 0.961 . S
O365 Co340 1.967 1_545 S
O365 C373 1.258 . S
O366 Co341 1.941 . S
O366 C373 1.266 . S
H367 C369 0.945 1_545 S
H368 C369 0.987 . S
C369 C359 1.538 . S
C369 H367 0.945 1_565 S
C369 H368 0.987 . S
C369 H370 0.923 1_565 S
H370 C369 0.923 1_545 S
H371 N351 0.862 . S
O372 Co340 1.920 . S
O372 C345 1.289 . S
C373 O365 1.258 . S
C373 O366 1.266 . S
Co374 O377 1.970 . S
Co374 N391 1.989 . S
Co374 O399 1.967 . S
Co374 O406 1.920 . S
Co375 O378 1.966 . S
Co375 N384 2.022 . S
Co375 N392 1.993 . S
Co375 O400 1.941 . S
C376 O377 1.258 . S
C376 O378 1.263 . S
O377 Co374 1.970 . S
O377 C376 1.258 . S
O378 Co375 1.966 . S
O378 C376 1.263 . S
C379 O380 1.235 . S
C379 O406 1.289 . S
O380 C379 1.235 . S
C381 C383 1.400 . S
C381 N384 1.351 . S
C381 C386 1.501 . S
C382 C383 1.387 . S
C382 N385 1.341 . S
C383 C381 1.400 . S
C383 C382 1.387 . S
N384 Co375 2.022 . S
N384 C381 1.351 . S
N384 N385 1.365 . S
N385 C382 1.341 . S
N385 N384 1.365 . S
N385 H405 0.862 . S
C386 C381 1.501 . S
C386 H387 0.961 . S
C386 H388 0.961 . S
C386 H389 0.960 . S
H387 C386 0.961 . S
H388 C386 0.961 . S
H389 C386 0.960 . S
C390 N391 1.342 . S
C390 C394 1.401 . S
C390 C395 1.499 . S
N391 Co374 1.989 . S
N391 C390 1.342 . S
N391 N392 1.388 . S
N392 Co375 1.993 . S
N392 N391 1.388 . S
N392 C393 1.346 . S
C393 N392 1.346 . S
C393 C394 1.396 . S
C393 C403 1.510 . S
C394 C390 1.401 . S
C394 C393 1.396 . S
C395 C390 1.499 . S
C395 H396 0.959 . S
C395 H397 0.960 . S
C395 H398 0.961 . S
H396 C395 0.959 . S
H397 C395 0.960 . S
H398 C395 0.961 . S
O399 Co374 1.967 . S
O399 C407 1.258 . S
O400 Co375 1.941 . S
O400 C407 1.266 . S
H401 C403 0.959 . S
H402 C403 0.961 . S
C403 C393 1.510 . S
C403 H401 0.959 . S
C403 H402 0.961 . S
C403 H404 0.960 . S
H404 C403 0.960 . S
H405 N385 0.862 . S
O406 Co374 1.920 . S
O406 C379 1.289 . S
C407 O399 1.258 . S
C407 O400 1.266 . S
Co408 O411 1.970 . S
Co408 N425 1.989 . S
Co408 O433 1.967 1_565 S
Co408 O440 1.920 . S
Co409 O412 1.966 . S
Co409 N418 2.022 . S
Co409 N426 1.993 1_545 S
Co409 O434 1.941 . S
C410 O411 1.258 . S
C410 O412 1.263 1_565 S
O411 Co408 1.970 . S
O411 C410 1.258 . S
O412 Co409 1.966 . S
O412 C410 1.263 1_545 S
C413 O414 1.235 . S
C413 O440 1.289 . S
O414 C413 1.235 . S
C415 C417 1.400 . S
C415 N418 1.351 . S
C415 C420 1.501 . S
C416 C417 1.387 . S
C416 N419 1.341 . S
C417 C415 1.400 . S
C417 C416 1.387 . S
N418 Co409 2.022 . S
N418 C415 1.351 . S
N418 N419 1.365 . S
N419 C416 1.341 . S
N419 N418 1.365 . S
N419 H439 0.862 . S
C420 C415 1.501 . S
C420 H421 0.961 . S
C420 H422 0.961 . S
C420 H423 0.960 . S
H421 C420 0.961 . S
H422 C420 0.961 . S
H423 C420 0.960 . S
C424 N425 1.342 . S
C424 C428 1.401 . S
C424 C429 1.499 . S
N425 Co408 1.989 . S
N425 C424 1.342 . S
N425 N426 1.388 . S
N426 Co409 1.993 1_565 S
N426 N425 1.388 . S
N426 C427 1.346 . S
C427 N426 1.346 . S
C427 C428 1.396 . S
C427 C437 1.538 . S
C428 C424 1.401 . S
C428 C427 1.396 . S
C429 C424 1.499 . S
C429 H430 0.959 . S
C429 H431 0.960 . S
C429 H432 0.961 . S
H430 C429 0.959 . S
H431 C429 0.960 . S
H432 C429 0.961 . S
O433 Co408 1.967 1_545 S
O433 C441 1.258 . S
O434 Co409 1.941 . S
O434 C441 1.266 . S
H435 C437 0.945 1_545 S
H436 C437 0.987 . S
C437 C427 1.538 . S
C437 H435 0.945 1_565 S
C437 H436 0.987 . S
C437 H438 0.923 1_565 S
H438 C437 0.923 1_545 S
H439 N419 0.862 . S
O440 Co408 1.920 . S
O440 C413 1.289 . S
C441 O433 1.258 . S
C441 O434 1.266 . S
Co442 O445 1.970 . S
Co442 N459 1.989 . S
Co442 O467 1.967 . S
Co442 O474 1.920 . S
Co443 O446 1.966 . S
Co443 N452 2.022 . S
Co443 N460 1.993 . S
Co443 O468 1.941 . S
C444 O445 1.258 . S
C444 O446 1.263 . S
O445 Co442 1.970 . S
O445 C444 1.258 . S
O446 Co443 1.966 . S
O446 C444 1.263 . S
C447 O448 1.235 . S
C447 O474 1.289 . S
O448 C447 1.235 . S
C449 C451 1.400 . S
C449 N452 1.351 . S
C449 C454 1.501 . S
C450 C451 1.387 . S
C450 N453 1.341 . S
C451 C449 1.400 . S
C451 C450 1.387 . S
N452 Co443 2.022 . S
N452 C449 1.351 . S
N452 N453 1.365 . S
N453 C450 1.341 . S
N453 N452 1.365 . S
N453 H473 0.862 . S
C454 C449 1.501 . S
C454 H455 0.961 . S
C454 H456 0.961 . S
C454 H457 0.960 . S
H455 C454 0.961 . S
H456 C454 0.961 . S
H457 C454 0.960 . S
C458 N459 1.342 . S
C458 C462 1.401 . S
C458 C463 1.499 . S
N459 Co442 1.989 . S
N459 C458 1.342 . S
N459 N460 1.388 . S
N460 Co443 1.993 . S
N460 N459 1.388 . S
N460 C461 1.346 . S
C461 N460 1.346 . S
C461 C462 1.396 . S
C461 C471 1.510 . S
C462 C458 1.401 . S
C462 C461 1.396 . S
C463 C458 1.499 . S
C463 H464 0.959 . S
C463 H465 0.960 . S
C463 H466 0.961 . S
H464 C463 0.959 . S
H465 C463 0.960 . S
H466 C463 0.961 . S
O467 Co442 1.967 . S
O467 C475 1.258 . S
O468 Co443 1.941 . S
O468 C475 1.266 . S
H469 C471 0.959 . S
H470 C471 0.961 . S
C471 C461 1.510 . S
C471 H469 0.959 . S
C471 H470 0.961 . S
C471 H472 0.960 . S
H472 C471 0.960 . S
H473 N453 0.862 . S
O474 Co442 1.920 . S
O474 C447 1.289 . S
C475 O467 1.258 . S
C475 O468 1.266 . S
Co476 O479 1.970 . S
Co476 N493 1.989 . S
Co476 O501 1.967 1_545 S
Co476 O508 1.920 . S
Co477 O480 1.966 . S
Co477 N486 2.022 . S
Co477 N494 1.993 1_565 S
Co477 O502 1.941 . S
C478 O479 1.298 . S
C478 O480 1.230 1_545 S
O479 Co476 1.970 . S
O479 C478 1.298 . S
O480 Co477 1.966 . S
O480 C478 1.230 1_565 S
C481 O482 1.235 . S
C481 O508 1.289 . S
O482 C481 1.235 . S
C483 C485 1.400 . S
C483 N486 1.351 . S
C483 C488 1.485 1_556 S
C484 C485 1.387 . S
C484 N487 1.341 . S
C485 C483 1.400 . S
C485 C484 1.387 . S
N486 Co477 2.022 . S
N486 C483 1.351 . S
N486 N487 1.365 . S
N487 C484 1.341 . S
N487 N486 1.365 . S
N487 H507 0.862 . S
C488 C483 1.485 1_554 S
C488 H489 0.942 1_554 S
C488 H490 0.983 . S
C488 H491 0.973 . S
H489 C488 0.942 1_556 S
H490 C488 0.983 . S
H491 C488 0.973 . S
C492 N493 1.342 . S
C492 C496 1.401 . S
C492 C497 1.499 . S
N493 Co476 1.989 . S
N493 C492 1.342 . S
N493 N494 1.388 . S
N494 Co477 1.993 1_545 S
N494 N493 1.388 . S
N494 C495 1.346 . S
C495 N494 1.346 . S
C495 C496 1.396 . S
C495 C505 1.510 1_545 S
C496 C492 1.401 . S
C496 C495 1.396 . S
C497 C492 1.499 . S
C497 H498 0.959 . S
C497 H499 0.960 . S
C497 H500 0.961 . S
H498 C497 0.959 . S
H499 C497 0.960 . S
H500 C497 0.961 . S
O501 Co476 1.967 1_565 S
O501 C509 1.258 . S
O502 Co477 1.941 . S
O502 C509 1.266 . S
H503 C505 0.959 . S
H504 C505 0.961 1_545 S
C505 C495 1.510 1_565 S
C505 H503 0.959 . S
C505 H504 0.961 1_565 S
C505 H506 0.960 . S
H506 C505 0.960 . S
H507 N487 0.862 . S
O508 Co476 1.920 . S
O508 C481 1.289 . S
C509 O501 1.258 . S
C509 O502 1.266 . S
Co510 O513 1.970 . S
Co510 N527 1.989 . S
Co510 O535 1.967 . S
Co510 O542 1.920 . S
Co511 O514 1.966 . S
Co511 N520 2.022 . S
Co511 N528 1.993 . S
Co511 O536 1.941 . S
C512 O513 1.258 . S
C512 O514 1.263 . S
O513 Co510 1.970 . S
O513 C512 1.258 . S
O514 Co511 1.966 . S
O514 C512 1.263 . S
C515 O516 1.235 . S
C515 O542 1.289 . S
O516 C515 1.235 . S
C517 C519 1.400 . S
C517 N520 1.351 . S
C517 C522 1.501 . S
C518 C519 1.387 . S
C518 N521 1.341 . S
C519 C517 1.400 . S
C519 C518 1.387 . S
N520 Co511 2.022 . S
N520 C517 1.351 . S
N520 N521 1.365 . S
N521 C518 1.341 . S
N521 N520 1.365 . S
N521 H541 0.862 . S
C522 C517 1.501 . S
C522 H523 0.961 . S
C522 H524 0.961 . S
C522 H525 0.960 . S
H523 C522 0.961 . S
H524 C522 0.961 . S
H525 C522 0.960 . S
C526 N527 1.342 . S
C526 C530 1.401 . S
C526 C531 1.499 . S
N527 Co510 1.989 . S
N527 C526 1.342 . S
N527 N528 1.388 . S
N528 Co511 1.993 . S
N528 N527 1.388 . S
N528 C529 1.346 . S
C529 N528 1.346 . S
C529 C530 1.396 . S
C529 C539 1.510 . S
C530 C526 1.401 . S
C530 C529 1.396 . S
C531 C526 1.499 . S
C531 H532 0.959 . S
C531 H533 0.960 . S
C531 H534 0.961 . S
H532 C531 0.959 . S
H533 C531 0.960 . S
H534 C531 0.961 . S
O535 Co510 1.967 . S
O535 C543 1.258 . S
O536 Co511 1.941 . S
O536 C543 1.266 . S
H537 C539 0.959 . S
H538 C539 0.961 . S
C539 C529 1.510 . S
C539 H537 0.959 . S
C539 H538 0.961 . S
C539 H540 0.960 . S
H540 C539 0.960 . S
H541 N521 0.862 . S
O542 Co510 1.920 . S
O542 C515 1.289 . S
C543 O535 1.258 . S
C543 O536 1.266 . S
Co544 O547 1.970 . S
Co544 N561 1.989 . S
Co544 O569 1.967 1_554 S
Co544 O576 1.920 . S
Co545 O548 1.966 . S
Co545 N554 2.022 . S
Co545 N562 1.993 1_556 S
Co545 O570 1.941 . S
C546 O547 1.298 . S
C546 O548 1.230 1_554 S
O547 Co544 1.970 . S
O547 C546 1.298 . S
O548 Co545 1.966 . S
O548 C546 1.230 1_556 S
C549 O550 1.235 . S
C549 O576 1.289 . S
O550 C549 1.235 . S
C551 C553 1.400 . S
C551 N554 1.351 . S
C551 C556 1.501 1_455 S
C552 C553 1.387 . S
C552 N555 1.341 . S
C553 C551 1.400 . S
C553 C552 1.387 . S
N554 Co545 2.022 . S
N554 C551 1.351 . S
N554 N555 1.365 . S
N555 C552 1.341 . S
N555 N554 1.365 . S
N555 H575 0.862 . S
C556 C551 1.501 1_655 S
C556 H557 0.961 1_655 S
C556 H558 0.961 . S
C556 H559 0.960 . S
H557 C556 0.961 1_455 S
H558 C556 0.961 . S
H559 C556 0.960 . S
C560 N561 1.342 . S
C560 C564 1.401 . S
C560 C565 1.499 . S
N561 Co544 1.989 . S
N561 C560 1.342 . S
N561 N562 1.388 . S
N562 Co545 1.993 1_554 S
N562 N561 1.388 . S
N562 C563 1.346 . S
C563 N562 1.346 . S
C563 C564 1.396 . S
C563 C573 1.510 1_554 S
C564 C560 1.401 . S
C564 C563 1.396 . S
C565 C560 1.499 . S
C565 H566 0.959 . S
C565 H567 0.960 . S
C565 H568 0.961 . S
H566 C565 0.959 . S
H567 C565 0.960 . S
H568 C565 0.961 . S
O569 Co544 1.967 1_556 S
O569 C577 1.258 . S
O570 Co545 1.941 . S
O570 C577 1.266 . S
H571 C573 0.959 . S
H572 C573 0.961 1_554 S
C573 C563 1.510 1_556 S
C573 H571 0.959 . S
C573 H572 0.961 1_556 S
C573 H574 0.960 . S
H574 C573 0.960 . S
H575 N555 0.862 . S
O576 Co544 1.920 . S
O576 C549 1.289 . S
C577 O569 1.258 . S
C577 O570 1.266 . S
Co578 O581 1.970 . S
Co578 N595 1.989 . S
Co578 O603 1.967 1_556 S
Co578 O610 1.920 . S
Co579 O582 1.966 . S
Co579 N588 2.022 . S
Co579 N596 1.993 1_554 S
Co579 O604 1.941 . S
C580 O581 1.258 . S
C580 O582 1.263 1_556 S
O581 Co578 1.970 . S
O581 C580 1.258 . S
O582 Co579 1.966 . S
O582 C580 1.263 1_554 S
C583 O584 1.235 . S
C583 O610 1.289 . S
O584 C583 1.235 . S
C585 C587 1.400 . S
C585 N588 1.351 . S
C585 C590 1.501 . S
C586 C587 1.387 . S
C586 N589 1.341 . S
C587 C585 1.400 . S
C587 C586 1.387 . S
N588 Co579 2.022 . S
N588 C585 1.351 . S
N588 N589 1.365 . S
N589 C586 1.341 . S
N589 N588 1.365 . S
N589 H609 0.862 . S
C590 C585 1.501 . S
C590 H591 0.961 . S
C590 H592 0.961 . S
C590 H593 0.960 . S
H591 C590 0.961 . S
H592 C590 0.961 . S
H593 C590 0.960 . S
C594 N595 1.342 . S
C594 C598 1.401 . S
C594 C599 1.499 . S
N595 Co578 1.989 . S
N595 C594 1.342 . S
N595 N596 1.388 . S
N596 Co579 1.993 1_556 S
N596 N595 1.388 . S
N596 C597 1.346 . S
C597 N596 1.346 . S
C597 C598 1.396 . S
C597 C607 1.538 . S
C598 C594 1.401 . S
C598 C597 1.396 . S
C599 C594 1.499 . S
C599 H600 0.959 . S
C599 H601 0.960 . S
C599 H602 0.961 . S
H600 C599 0.959 . S
H601 C599 0.960 . S
H602 C599 0.961 . S
O603 Co578 1.967 1_554 S
O603 C611 1.258 . S
O604 Co579 1.941 . S
O604 C611 1.266 . S
H605 C607 0.945 1_554 S
H606 C607 0.987 . S
C607 C597 1.538 . S
C607 H605 0.945 1_556 S
C607 H606 0.987 . S
C607 H608 0.923 1_556 S
H608 C607 0.923 1_554 S
H609 N589 0.862 . S
O610 Co578 1.920 . S
O610 C583 1.289 . S
C611 O603 1.258 . S
C611 O604 1.266 . S
Co612 O615 1.970 . S
Co612 N629 1.989 . S
Co612 O637 1.967 . S
Co612 O644 1.920 . S
Co613 O616 1.966 . S
Co613 N622 2.022 . S
Co613 N630 1.993 . S
Co613 O638 1.941 . S
C614 O615 1.258 . S
C614 O616 1.263 . S
O615 Co612 1.970 . S
O615 C614 1.258 . S
O616 Co613 1.966 . S
O616 C614 1.263 . S
C617 O618 1.235 . S
C617 O644 1.289 . S
O618 C617 1.235 . S
C619 C621 1.400 . S
C619 N622 1.351 . S
C619 C624 1.501 . S
C620 C621 1.387 . S
C620 N623 1.341 . S
C621 C619 1.400 . S
C621 C620 1.387 . S
N622 Co613 2.022 . S
N622 C619 1.351 . S
N622 N623 1.365 . S
N623 C620 1.341 . S
N623 N622 1.365 . S
N623 H643 0.862 . S
C624 C619 1.501 . S
C624 H625 0.961 . S
C624 H626 0.961 . S
C624 H627 0.960 . S
H625 C624 0.961 . S
H626 C624 0.961 . S
H627 C624 0.960 . S
C628 N629 1.342 . S
C628 C632 1.401 . S
C628 C633 1.499 . S
N629 Co612 1.989 . S
N629 C628 1.342 . S
N629 N630 1.388 . S
N630 Co613 1.993 . S
N630 N629 1.388 . S
N630 C631 1.346 . S
C631 N630 1.346 . S
C631 C632 1.396 . S
C631 C641 1.510 . S
C632 C628 1.401 . S
C632 C631 1.396 . S
C633 C628 1.499 . S
C633 H634 0.959 . S
C633 H635 0.960 . S
C633 H636 0.961 . S
H634 C633 0.959 . S
H635 C633 0.960 . S
H636 C633 0.961 . S
O637 Co612 1.967 . S
O637 C645 1.258 . S
O638 Co613 1.941 . S
O638 C645 1.266 . S
H639 C641 0.959 . S
H640 C641 0.961 . S
C641 C631 1.510 . S
C641 H639 0.959 . S
C641 H640 0.961 . S
C641 H642 0.960 . S
H642 C641 0.960 . S
H643 N623 0.862 . S
O644 Co612 1.920 . S
O644 C617 1.289 . S
C645 O637 1.258 . S
C645 O638 1.266 . S
Co646 O649 1.970 . S
Co646 N663 1.989 . S
Co646 O671 1.967 . S
Co646 O678 1.920 . S
Co647 O650 1.966 . S
Co647 N656 2.022 . S
Co647 N664 1.993 . S
Co647 O672 1.941 . S
C648 O649 1.258 . S
C648 O650 1.263 . S
O649 Co646 1.970 . S
O649 C648 1.258 . S
O650 Co647 1.966 . S
O650 C648 1.263 . S
C651 O652 1.235 . S
C651 O678 1.289 . S
O652 C651 1.235 . S
C653 C655 1.400 . S
C653 N656 1.351 . S
C653 C658 1.485 1_655 S
C654 C655 1.387 . S
C654 N657 1.341 . S
C655 C653 1.400 . S
C655 C654 1.387 . S
N656 Co647 2.022 . S
N656 C653 1.351 . S
N656 N657 1.365 . S
N657 C654 1.341 . S
N657 N656 1.365 . S
N657 H677 0.862 . S
C658 C653 1.485 1_455 S
C658 H659 0.942 1_455 S
C658 H660 0.983 . S
C658 H661 0.973 . S
H659 C658 0.942 1_655 S
H660 C658 0.983 . S
H661 C658 0.973 . S
C662 N663 1.342 . S
C662 C666 1.401 . S
C662 C667 1.499 . S
N663 Co646 1.989 . S
N663 C662 1.342 . S
N663 N664 1.388 . S
N664 Co647 1.993 . S
N664 N663 1.388 . S
N664 C665 1.346 . S
C665 N664 1.346 . S
C665 C666 1.396 . S
C665 C675 1.510 . S
C666 C662 1.401 . S
C666 C665 1.396 . S
C667 C662 1.499 . S
C667 H668 0.959 . S
C667 H669 0.960 . S
C667 H670 0.961 . S
H668 C667 0.959 . S
H669 C667 0.960 . S
H670 C667 0.961 . S
O671 Co646 1.967 . S
O671 C679 1.258 . S
O672 Co647 1.941 . S
O672 C679 1.266 . S
H673 C675 0.959 . S
H674 C675 0.961 . S
C675 C665 1.510 . S
C675 H673 0.959 . S
C675 H674 0.961 . S
C675 H676 0.960 . S
H676 C675 0.960 . S
H677 N657 0.862 . S
O678 Co646 1.920 . S
O678 C651 1.289 . S
C679 O671 1.258 . S
C679 O672 1.266 . S
Co680 O683 1.970 . S
Co680 N697 1.989 . S
Co680 O705 1.967 . S
Co680 O712 1.920 . S
Co681 O684 1.966 . S
Co681 N690 2.022 . S
Co681 N698 1.993 . S
Co681 O706 1.941 . S
C682 O683 1.258 . S
C682 O684 1.263 . S
O683 Co680 1.970 . S
O683 C682 1.258 . S
O684 Co681 1.966 . S
O684 C682 1.263 . S
C685 O686 1.235 . S
C685 O712 1.289 . S
O686 C685 1.235 . S
C687 C689 1.400 . S
C687 N690 1.351 . S
C687 C692 1.501 . S
C688 C689 1.387 . S
C688 N691 1.341 . S
C689 C687 1.400 . S
C689 C688 1.387 . S
N690 Co681 2.022 . S
N690 C687 1.351 . S
N690 N691 1.365 . S
N691 C688 1.341 . S
N691 N690 1.365 . S
N691 H711 0.862 . S
C692 C687 1.501 . S
C692 H693 0.961 . S
C692 H694 0.961 . S
C692 H695 0.960 . S
H693 C692 0.961 . S
H694 C692 0.961 . S
H695 C692 0.960 . S
C696 N697 1.342 . S
C696 C700 1.401 . S
C696 C701 1.499 . S
N697 Co680 1.989 . S
N697 C696 1.342 . S
N697 N698 1.388 . S
N698 Co681 1.993 . S
N698 N697 1.388 . S
N698 C699 1.346 . S
C699 N698 1.346 . S
C699 C700 1.396 . S
C699 C709 1.510 . S
C700 C696 1.401 . S
C700 C699 1.396 . S
C701 C696 1.499 . S
C701 H702 0.959 . S
C701 H703 0.960 . S
C701 H704 0.961 . S
H702 C701 0.959 . S
H703 C701 0.960 . S
H704 C701 0.961 . S
O705 Co680 1.967 . S
O705 C713 1.258 . S
O706 Co681 1.941 . S
O706 C713 1.266 . S
H707 C709 0.959 . S
H708 C709 0.961 . S
C709 C699 1.510 . S
C709 H707 0.959 . S
C709 H708 0.961 . S
C709 H710 0.960 . S
H710 C709 0.960 . S
H711 N691 0.862 . S
O712 Co680 1.920 . S
O712 C685 1.289 . S
C713 O705 1.258 . S
C713 O706 1.266 . S
Co714 O717 1.970 . S
Co714 N731 1.989 . S
Co714 O739 1.967 . S
Co714 O746 1.920 . S
Co715 O718 1.966 . S
Co715 N724 2.022 . S
Co715 N732 1.993 . S
Co715 O740 1.941 . S
C716 O717 1.258 . S
C716 O718 1.263 . S
O717 Co714 1.970 . S
O717 C716 1.258 . S
O718 Co715 1.966 . S
O718 C716 1.263 . S
C719 O720 1.235 . S
C719 O746 1.289 . S
O720 C719 1.235 . S
C721 C723 1.400 . S
C721 N724 1.351 . S
C721 C726 1.501 . S
C722 C723 1.387 . S
C722 N725 1.341 . S
C723 C721 1.400 . S
C723 C722 1.387 . S
N724 Co715 2.022 . S
N724 C721 1.351 . S
N724 N725 1.365 . S
N725 C722 1.341 . S
N725 N724 1.365 . S
N725 H745 0.862 . S
C726 C721 1.501 . S
C726 H727 0.961 . S
C726 H728 0.961 . S
C726 H729 0.960 . S
H727 C726 0.961 . S
H728 C726 0.961 . S
H729 C726 0.960 . S
C730 N731 1.342 . S
C730 C734 1.401 . S
C730 C735 1.499 . S
N731 Co714 1.989 . S
N731 C730 1.342 . S
N731 N732 1.388 . S
N732 Co715 1.993 . S
N732 N731 1.388 . S
N732 C733 1.346 . S
C733 N732 1.346 . S
C733 C734 1.396 . S
C733 C743 1.510 . S
C734 C730 1.401 . S
C734 C733 1.396 . S
C735 C730 1.499 . S
C735 H736 0.959 . S
C735 H737 0.960 . S
C735 H738 0.961 . S
H736 C735 0.959 . S
H737 C735 0.960 . S
H738 C735 0.961 . S
O739 Co714 1.967 . S
O739 C747 1.258 . S
O740 Co715 1.941 . S
O740 C747 1.266 . S
H741 C743 0.959 . S
H742 C743 0.961 . S
C743 C733 1.510 . S
C743 H741 0.959 . S
C743 H742 0.961 . S
C743 H744 0.960 . S
H744 C743 0.960 . S
H745 N725 0.862 . S
O746 Co714 1.920 . S
O746 C719 1.289 . S
C747 O739 1.258 . S
C747 O740 1.266 . S
Co748 O751 1.970 . S
Co748 N765 1.989 . S
Co748 O773 1.967 . S
Co748 O780 1.920 . S
Co749 O752 1.966 . S
Co749 N758 2.022 . S
Co749 N766 1.993 . S
Co749 O774 1.941 . S
C750 O751 1.258 . S
C750 O752 1.263 . S
O751 Co748 1.970 . S
O751 C750 1.258 . S
O752 Co749 1.966 . S
O752 C750 1.263 . S
C753 O754 1.235 . S
C753 O780 1.289 . S
O754 C753 1.235 . S
C755 C757 1.400 . S
C755 N758 1.351 . S
C755 C760 1.501 . S
C756 C757 1.387 . S
C756 N759 1.341 . S
C757 C755 1.400 . S
C757 C756 1.387 . S
N758 Co749 2.022 . S
N758 C755 1.351 . S
N758 N759 1.365 . S
N759 C756 1.341 . S
N759 N758 1.365 . S
N759 H779 0.862 . S
C760 C755 1.501 . S
C760 H761 0.961 . S
C760 H762 0.961 . S
C760 H763 0.960 . S
H761 C760 0.961 . S
H762 C760 0.961 . S
H763 C760 0.960 . S
C764 N765 1.342 . S
C764 C768 1.401 . S
C764 C769 1.499 . S
N765 Co748 1.989 . S
N765 C764 1.342 . S
N765 N766 1.388 . S
N766 Co749 1.993 . S
N766 N765 1.388 . S
N766 C767 1.346 . S
C767 N766 1.346 . S
C767 C768 1.396 . S
C767 C777 1.510 . S
C768 C764 1.401 . S
C768 C767 1.396 . S
C769 C764 1.499 . S
C769 H770 0.959 . S
C769 H771 0.960 . S
C769 H772 0.961 . S
H770 C769 0.959 . S
H771 C769 0.960 . S
H772 C769 0.961 . S
O773 Co748 1.967 . S
O773 C781 1.258 . S
O774 Co749 1.941 . S
O774 C781 1.266 . S
H775 C777 0.959 . S
H776 C777 0.961 . S
C777 C767 1.510 . S
C777 H775 0.959 . S
C777 H776 0.961 . S
C777 H778 0.960 . S
H778 C777 0.960 . S
H779 N759 0.862 . S
O780 Co748 1.920 . S
O780 C753 1.289 . S
C781 O773 1.258 . S
C781 O774 1.266 . S
Co782 O785 1.970 . S
Co782 N799 1.989 . S
Co782 O807 1.967 . S
Co782 O814 1.920 . S
Co783 O786 1.966 . S
Co783 N792 2.022 . S
Co783 N800 1.993 . S
Co783 O808 1.941 . S
C784 O785 1.258 . S
C784 O786 1.263 . S
O785 Co782 1.970 . S
O785 C784 1.258 . S
O786 Co783 1.966 . S
O786 C784 1.263 . S
C787 O788 1.235 . S
C787 O814 1.289 . S
O788 C787 1.235 . S
C789 C791 1.400 . S
C789 N792 1.351 . S
C789 C794 1.501 . S
C790 C791 1.387 . S
C790 N793 1.341 . S
C791 C789 1.400 . S
C791 C790 1.387 . S
N792 Co783 2.022 . S
N792 C789 1.351 . S
N792 N793 1.365 . S
N793 C790 1.341 . S
N793 N792 1.365 . S
N793 H813 0.862 . S
C794 C789 1.501 . S
C794 H795 0.961 . S
C794 H796 0.961 . S
C794 H797 0.960 . S
H795 C794 0.961 . S
H796 C794 0.961 . S
H797 C794 0.960 . S
C798 N799 1.342 . S
C798 C802 1.401 . S
C798 C803 1.499 . S
N799 Co782 1.989 . S
N799 C798 1.342 . S
N799 N800 1.388 . S
N800 Co783 1.993 . S
N800 N799 1.388 . S
N800 C801 1.346 . S
C801 N800 1.346 . S
C801 C802 1.396 . S
C801 C811 1.510 . S
C802 C798 1.401 . S
C802 C801 1.396 . S
C803 C798 1.499 . S
C803 H804 0.959 . S
C803 H805 0.960 . S
C803 H806 0.961 . S
H804 C803 0.959 . S
H805 C803 0.960 . S
H806 C803 0.961 . S
O807 Co782 1.967 . S
O807 C815 1.258 . S
O808 Co783 1.941 . S
O808 C815 1.266 . S
H809 C811 0.959 . S
H810 C811 0.961 . S
C811 C801 1.510 . S
C811 H809 0.959 . S
C811 H810 0.961 . S
C811 H812 0.960 . S
H812 C811 0.960 . S
H813 N793 0.862 . S
O814 Co782 1.920 . S
O814 C787 1.289 . S
C815 O807 1.258 . S
C815 O808 1.266 . S
Co816 O819 1.970 . S
Co816 N833 1.989 . S
Co816 O841 1.967 . S
Co816 O848 1.920 . S
Co817 O820 1.966 . S
Co817 N826 2.022 . S
Co817 N834 1.993 . S
Co817 O842 1.941 . S
C818 O819 1.258 . S
C818 O820 1.263 . S
O819 Co816 1.970 . S
O819 C818 1.258 . S
O820 Co817 1.966 . S
O820 C818 1.263 . S
C821 O822 1.235 . S
C821 O848 1.289 . S
O822 C821 1.235 . S
C823 C825 1.400 . S
C823 N826 1.351 . S
C823 C828 1.501 . S
C824 C825 1.387 . S
C824 N827 1.341 . S
C825 C823 1.400 . S
C825 C824 1.387 . S
N826 Co817 2.022 . S
N826 C823 1.351 . S
N826 N827 1.365 . S
N827 C824 1.341 . S
N827 N826 1.365 . S
N827 H847 0.862 . S
C828 C823 1.501 . S
C828 H829 0.961 . S
C828 H830 0.961 . S
C828 H831 0.960 . S
H829 C828 0.961 . S
H830 C828 0.961 . S
H831 C828 0.960 . S
C832 N833 1.342 . S
C832 C836 1.401 . S
C832 C837 1.499 . S
N833 Co816 1.989 . S
N833 C832 1.342 . S
N833 N834 1.388 . S
N834 Co817 1.993 . S
N834 N833 1.388 . S
N834 C835 1.346 . S
C835 N834 1.346 . S
C835 C836 1.396 . S
C835 C845 1.510 . S
C836 C832 1.401 . S
C836 C835 1.396 . S
C837 C832 1.499 . S
C837 H838 0.959 . S
C837 H839 0.960 . S
C837 H840 0.961 . S
H838 C837 0.959 . S
H839 C837 0.960 . S
H840 C837 0.961 . S
O841 Co816 1.967 . S
O841 C849 1.258 . S
O842 Co817 1.941 . S
O842 C849 1.266 . S
H843 C845 0.959 . S
H844 C845 0.961 . S
C845 C835 1.510 . S
C845 H843 0.959 . S
C845 H844 0.961 . S
C845 H846 0.960 . S
H846 C845 0.960 . S
H847 N827 0.862 . S
O848 Co816 1.920 . S
O848 C821 1.289 . S
C849 O841 1.258 . S
C849 O842 1.266 . S
Co850 O853 1.970 . S
Co850 N867 1.989 . S
Co850 O875 1.967 . S
Co850 O882 1.920 . S
Co851 O854 1.966 . S
Co851 N860 2.022 . S
Co851 N868 1.993 . S
Co851 O876 1.941 . S
C852 O853 1.258 . S
C852 O854 1.263 . S
O853 Co850 1.970 . S
O853 C852 1.258 . S
O854 Co851 1.966 . S
O854 C852 1.263 . S
C855 O856 1.235 . S
C855 O882 1.289 . S
O856 C855 1.235 . S
C857 C859 1.400 . S
C857 N860 1.351 . S
C857 C862 1.501 . S
C858 C859 1.387 . S
C858 N861 1.341 . S
C859 C857 1.400 . S
C859 C858 1.387 . S
N860 Co851 2.022 . S
N860 C857 1.351 . S
N860 N861 1.365 . S
N861 C858 1.341 . S
N861 N860 1.365 . S
N861 H881 0.862 . S
C862 C857 1.501 . S
C862 H863 0.961 . S
C862 H864 0.961 . S
C862 H865 0.960 . S
H863 C862 0.961 . S
H864 C862 0.961 . S
H865 C862 0.960 . S
C866 N867 1.342 . S
C866 C870 1.401 . S
C866 C871 1.499 . S
N867 Co850 1.989 . S
N867 C866 1.342 . S
N867 N868 1.388 . S
N868 Co851 1.993 . S
N868 N867 1.388 . S
N868 C869 1.346 . S
C869 N868 1.346 . S
C869 C870 1.396 . S
C869 C879 1.510 . S
C870 C866 1.401 . S
C870 C869 1.396 . S
C871 C866 1.499 . S
C871 H872 0.959 . S
C871 H873 0.960 . S
C871 H874 0.961 . S
H872 C871 0.959 . S
H873 C871 0.960 . S
H874 C871 0.961 . S
O875 Co850 1.967 . S
O875 C883 1.258 . S
O876 Co851 1.941 . S
O876 C883 1.266 . S
H877 C879 0.959 . S
H878 C879 0.961 . S
C879 C869 1.510 . S
C879 H877 0.959 . S
C879 H878 0.961 . S
C879 H880 0.960 . S
H880 C879 0.960 . S
H881 N861 0.862 . S
O882 Co850 1.920 . S
O882 C855 1.289 . S
C883 O875 1.258 . S
C883 O876 1.266 . S
Co884 O887 1.970 . S
Co884 N901 1.989 . S
Co884 O909 1.967 1_655 S
Co884 O916 1.920 . S
Co885 O888 1.966 . S
Co885 N894 2.022 . S
Co885 N902 1.993 1_455 S
Co885 O910 1.941 . S
C886 O887 1.258 . S
C886 O888 1.263 1_655 S
O887 Co884 1.970 . S
O887 C886 1.258 . S
O888 Co885 1.966 . S
O888 C886 1.263 1_455 S
C889 O890 1.235 . S
C889 O916 1.289 . S
O890 C889 1.235 . S
C891 C893 1.400 . S
C891 N894 1.351 . S
C891 C896 1.501 . S
C892 C893 1.387 . S
C892 N895 1.341 . S
C893 C891 1.400 . S
C893 C892 1.387 . S
N894 Co885 2.022 . S
N894 C891 1.351 . S
N894 N895 1.365 . S
N895 C892 1.341 . S
N895 N894 1.365 . S
N895 H915 0.862 . S
C896 C891 1.501 . S
C896 H897 0.961 . S
C896 H898 0.961 . S
C896 H899 0.960 . S
H897 C896 0.961 . S
H898 C896 0.961 . S
H899 C896 0.960 . S
C900 N901 1.342 . S
C900 C904 1.401 . S
C900 C905 1.499 . S
N901 Co884 1.989 . S
N901 C900 1.342 . S
N901 N902 1.388 . S
N902 Co885 1.993 1_655 S
N902 N901 1.388 . S
N902 C903 1.346 . S
C903 N902 1.346 . S
C903 C904 1.396 . S
C903 C913 1.538 . S
C904 C900 1.401 . S
C904 C903 1.396 . S
C905 C900 1.499 . S
C905 H906 0.959 . S
C905 H907 0.960 . S
C905 H908 0.961 . S
H906 C905 0.959 . S
H907 C905 0.960 . S
H908 C905 0.961 . S
O909 Co884 1.967 1_455 S
O909 C917 1.258 . S
O910 Co885 1.941 . S
O910 C917 1.266 . S
H911 C913 0.945 1_455 S
H912 C913 0.987 . S
C913 C903 1.538 . S
C913 H911 0.945 1_655 S
C913 H912 0.987 . S
C913 H914 0.923 1_655 S
H914 C913 0.923 1_455 S
H915 N895 0.862 . S
O916 Co884 1.920 . S
O916 C889 1.289 . S
C917 O909 1.258 . S
C917 O910 1.266 . S
Co918 O921 1.970 . S
Co918 N935 1.989 . S
Co918 O943 1.967 . S
Co918 O950 1.920 . S
Co919 O922 1.966 . S
Co919 N928 2.022 . S
Co919 N936 1.993 . S
Co919 O944 1.941 . S
C920 O921 1.258 . S
C920 O922 1.263 . S
O921 Co918 1.970 . S
O921 C920 1.258 . S
O922 Co919 1.966 . S
O922 C920 1.263 . S
C923 O924 1.235 . S
C923 O950 1.289 . S
O924 C923 1.235 . S
C925 C927 1.400 . S
C925 N928 1.351 . S
C925 C930 1.501 . S
C926 C927 1.387 . S
C926 N929 1.341 . S
C927 C925 1.400 . S
C927 C926 1.387 . S
N928 Co919 2.022 . S
N928 C925 1.351 . S
N928 N929 1.365 . S
N929 C926 1.341 . S
N929 N928 1.365 . S
N929 H949 0.862 . S
C930 C925 1.501 . S
C930 H931 0.961 . S
C930 H932 0.961 . S
C930 H933 0.960 . S
H931 C930 0.961 . S
H932 C930 0.961 . S
H933 C930 0.960 . S
C934 N935 1.342 . S
C934 C938 1.401 . S
C934 C939 1.499 . S
N935 Co918 1.989 . S
N935 C934 1.342 . S
N935 N936 1.388 . S
N936 Co919 1.993 . S
N936 N935 1.388 . S
N936 C937 1.346 . S
C937 N936 1.346 . S
C937 C938 1.396 . S
C937 C947 1.510 . S
C938 C934 1.401 . S
C938 C937 1.396 . S
C939 C934 1.499 . S
C939 H940 0.959 . S
C939 H941 0.960 . S
C939 H942 0.961 . S
H940 C939 0.959 . S
H941 C939 0.960 . S
H942 C939 0.961 . S
O943 Co918 1.967 . S
O943 C951 1.258 . S
O944 Co919 1.941 . S
O944 C951 1.266 . S
H945 C947 0.959 . S
H946 C947 0.961 . S
C947 C937 1.510 . S
C947 H945 0.959 . S
C947 H946 0.961 . S
C947 H948 0.960 . S
H948 C947 0.960 . S
H949 N929 0.862 . S
O950 Co918 1.920 . S
O950 C923 1.289 . S
C951 O943 1.258 . S
C951 O944 1.266 . S
Co952 O955 1.970 . S
Co952 N969 1.989 . S
Co952 O977 1.967 . S
Co952 O984 1.920 . S
Co953 O956 1.966 . S
Co953 N962 2.022 . S
Co953 N970 1.993 . S
Co953 O978 1.941 . S
C954 O955 1.258 . S
C954 O956 1.263 . S
O955 Co952 1.970 . S
O955 C954 1.258 . S
O956 Co953 1.966 . S
O956 C954 1.263 . S
C957 O958 1.235 . S
C957 O984 1.289 . S
O958 C957 1.235 . S
C959 C961 1.400 . S
C959 N962 1.351 . S
C959 C964 1.501 . S
C960 C961 1.387 . S
C960 N963 1.341 . S
C961 C959 1.400 . S
C961 C960 1.387 . S
N962 Co953 2.022 . S
N962 C959 1.351 . S
N962 N963 1.365 . S
N963 C960 1.341 . S
N963 N962 1.365 . S
N963 H983 0.862 . S
C964 C959 1.501 . S
C964 H965 0.961 . S
C964 H966 0.961 . S
C964 H967 0.960 . S
H965 C964 0.961 . S
H966 C964 0.961 . S
H967 C964 0.960 . S
C968 N969 1.342 . S
C968 C972 1.401 . S
C968 C973 1.499 . S
N969 Co952 1.989 . S
N969 C968 1.342 . S
N969 N970 1.388 . S
N970 Co953 1.993 . S
N970 N969 1.388 . S
N970 C971 1.346 . S
C971 N970 1.346 . S
C971 C972 1.396 . S
C971 C981 1.510 . S
C972 C968 1.401 . S
C972 C971 1.396 . S
C973 C968 1.499 . S
C973 H974 0.959 . S
C973 H975 0.960 . S
C973 H976 0.961 . S
H974 C973 0.959 . S
H975 C973 0.960 . S
H976 C973 0.961 . S
O977 Co952 1.967 . S
O977 C985 1.258 . S
O978 Co953 1.941 . S
O978 C985 1.266 . S
H979 C981 0.959 . S
H980 C981 0.961 . S
C981 C971 1.510 . S
C981 H979 0.959 . S
C981 H980 0.961 . S
C981 H982 0.960 . S
H982 C981 0.960 . S
H983 N963 0.862 . S
O984 Co952 1.920 . S
O984 C957 1.289 . S
C985 O977 1.258 . S
C985 O978 1.266 . S
Co986 O989 1.970 . S
Co986 N1003 1.989 . S
Co986 O1011 1.967 . S
Co986 O1018 1.920 . S
Co987 O990 1.966 . S
Co987 N996 2.022 . S
Co987 N1004 1.993 . S
Co987 O1012 1.941 . S
C988 O989 1.258 . S
C988 O990 1.263 . S
O989 Co986 1.970 . S
O989 C988 1.258 . S
O990 Co987 1.966 . S
O990 C988 1.263 . S
C991 O992 1.235 . S
C991 O1018 1.289 . S
O992 C991 1.235 . S
C993 C995 1.400 . S
C993 N996 1.351 . S
C993 C998 1.501 . S
C994 C995 1.387 . S
C994 N997 1.341 . S
C995 C993 1.400 . S
C995 C994 1.387 . S
N996 Co987 2.022 . S
N996 C993 1.351 . S
N996 N997 1.365 . S
N997 C994 1.341 . S
N997 N996 1.365 . S
N997 H1017 0.862 . S
C998 C993 1.501 . S
C998 H999 0.961 . S
C998 H1000 0.961 . S
C998 H1001 0.960 . S
H999 C998 0.961 . S
H1000 C998 0.961 . S
H1001 C998 0.960 . S
C1002 N1003 1.342 . S
C1002 C1006 1.401 . S
C1002 C1007 1.499 . S
N1003 Co986 1.989 . S
N1003 C1002 1.342 . S
N1003 N1004 1.388 . S
N1004 Co987 1.993 . S
N1004 N1003 1.388 . S
N1004 C1005 1.346 . S
C1005 N1004 1.346 . S
C1005 C1006 1.396 . S
C1005 C1015 1.510 . S
C1006 C1002 1.401 . S
C1006 C1005 1.396 . S
C1007 C1002 1.499 . S
C1007 H1008 0.959 . S
C1007 H1009 0.960 . S
C1007 H1010 0.961 . S
H1008 C1007 0.959 . S
H1009 C1007 0.960 . S
H1010 C1007 0.961 . S
O1011 Co986 1.967 . S
O1011 C1019 1.258 . S
O1012 Co987 1.941 . S
O1012 C1019 1.266 . S
H1013 C1015 0.959 . S
H1014 C1015 0.961 . S
C1015 C1005 1.510 . S
C1015 H1013 0.959 . S
C1015 H1014 0.961 . S
C1015 H1016 0.960 . S
H1016 C1015 0.960 . S
H1017 N997 0.862 . S
O1018 Co986 1.920 . S
O1018 C991 1.289 . S
C1019 O1011 1.258 . S
C1019 O1012 1.266 . S
Co1020 O1023 1.970 . S
Co1020 N1037 1.989 . S
Co1020 O1045 1.967 1_655 S
Co1020 O1052 1.920 . S
Co1021 O1024 1.966 . S
Co1021 N1030 2.022 . S
Co1021 N1038 1.993 1_455 S
Co1021 O1046 1.941 . S
C1022 O1023 1.258 . S
C1022 O1024 1.263 1_655 S
O1023 Co1020 1.970 . S
O1023 C1022 1.258 . S
O1024 Co1021 1.966 . S
O1024 C1022 1.263 1_455 S
C1025 O1026 1.235 . S
C1025 O1052 1.289 . S
O1026 C1025 1.235 . S
C1027 C1029 1.400 . S
C1027 N1030 1.351 . S
C1027 C1032 1.501 . S
C1028 C1029 1.387 . S
C1028 N1031 1.341 . S
C1029 C1027 1.400 . S
C1029 C1028 1.387 . S
N1030 Co1021 2.022 . S
N1030 C1027 1.351 . S
N1030 N1031 1.365 . S
N1031 C1028 1.341 . S
N1031 N1030 1.365 . S
N1031 H1051 0.862 . S
C1032 C1027 1.501 . S
C1032 H1033 0.961 . S
C1032 H1034 0.961 . S
C1032 H1035 0.960 . S
H1033 C1032 0.961 . S
H1034 C1032 0.961 . S
H1035 C1032 0.960 . S
C1036 N1037 1.342 . S
C1036 C1040 1.401 . S
C1036 C1041 1.499 . S
N1037 Co1020 1.989 . S
N1037 C1036 1.342 . S
N1037 N1038 1.388 . S
N1038 Co1021 1.993 1_655 S
N1038 N1037 1.388 . S
N1038 C1039 1.346 . S
C1039 N1038 1.346 . S
C1039 C1040 1.396 . S
C1039 C1049 1.538 . S
C1040 C1036 1.401 . S
C1040 C1039 1.396 . S
C1041 C1036 1.499 . S
C1041 H1042 0.959 . S
C1041 H1043 0.960 . S
C1041 H1044 0.961 . S
H1042 C1041 0.959 . S
H1043 C1041 0.960 . S
H1044 C1041 0.961 . S
O1045 Co1020 1.967 1_455 S
O1045 C1053 1.258 . S
O1046 Co1021 1.941 . S
O1046 C1053 1.266 . S
H1047 C1049 0.945 1_455 S
H1048 C1049 0.987 . S
C1049 C1039 1.538 . S
C1049 H1047 0.945 1_655 S
C1049 H1048 0.987 . S
C1049 H1050 0.923 1_655 S
H1050 C1049 0.923 1_455 S
H1051 N1031 0.862 . S
O1052 Co1020 1.920 . S
O1052 C1025 1.289 . S
C1053 O1045 1.258 . S
C1053 O1046 1.266 . S
Co1054 O1057 1.970 . S
Co1054 N1071 1.989 . S
Co1054 O1079 1.967 . S
Co1054 O1086 1.920 . S
Co1055 O1058 1.966 . S
Co1055 N1064 2.022 . S
Co1055 N1072 1.993 . S
Co1055 O1080 1.941 . S
C1056 O1057 1.258 . S
C1056 O1058 1.263 . S
O1057 Co1054 1.970 . S
O1057 C1056 1.258 . S
O1058 Co1055 1.966 . S
O1058 C1056 1.263 . S
C1059 O1060 1.235 . S
C1059 O1086 1.289 . S
O1060 C1059 1.235 . S
C1061 C1063 1.400 . S
C1061 N1064 1.351 . S
C1061 C1066 1.501 . S
C1062 C1063 1.387 . S
C1062 N1065 1.341 . S
C1063 C1061 1.400 . S
C1063 C1062 1.387 . S
N1064 Co1055 2.022 . S
N1064 C1061 1.351 . S
N1064 N1065 1.365 . S
N1065 C1062 1.341 . S
N1065 N1064 1.365 . S
N1065 H1085 0.862 . S
C1066 C1061 1.501 . S
C1066 H1067 0.961 . S
C1066 H1068 0.961 . S
C1066 H1069 0.960 . S
H1067 C1066 0.961 . S
H1068 C1066 0.961 . S
H1069 C1066 0.960 . S
C1070 N1071 1.342 . S
C1070 C1074 1.401 . S
C1070 C1075 1.499 . S
N1071 Co1054 1.989 . S
N1071 C1070 1.342 . S
N1071 N1072 1.388 . S
N1072 Co1055 1.993 . S
N1072 N1071 1.388 . S
N1072 C1073 1.346 . S
C1073 N1072 1.346 . S
C1073 C1074 1.396 . S
C1073 C1083 1.510 . S
C1074 C1070 1.401 . S
C1074 C1073 1.396 . S
C1075 C1070 1.499 . S
C1075 H1076 0.959 . S
C1075 H1077 0.960 . S
C1075 H1078 0.961 . S
H1076 C1075 0.959 . S
H1077 C1075 0.960 . S
H1078 C1075 0.961 . S
O1079 Co1054 1.967 . S
O1079 C1087 1.258 . S
O1080 Co1055 1.941 . S
O1080 C1087 1.266 . S
H1081 C1083 0.959 . S
H1082 C1083 0.961 . S
C1083 C1073 1.510 . S
C1083 H1081 0.959 . S
C1083 H1082 0.961 . S
C1083 H1084 0.960 . S
H1084 C1083 0.960 . S
H1085 N1065 0.862 . S
O1086 Co1054 1.920 . S
O1086 C1059 1.289 . S
C1087 O1079 1.258 . S
C1087 O1080 1.266 . S
Co1088 O1091 1.970 . S
Co1088 N1105 1.989 . S
Co1088 O1113 1.967 . S
Co1088 O1120 1.920 . S
Co1089 O1092 1.966 . S
Co1089 N1098 2.022 . S
Co1089 N1106 1.993 . S
Co1089 O1114 1.941 . S
C1090 O1091 1.258 . S
C1090 O1092 1.263 . S
O1091 Co1088 1.970 . S
O1091 C1090 1.258 . S
O1092 Co1089 1.966 . S
O1092 C1090 1.263 . S
C1093 O1094 1.235 . S
C1093 O1120 1.289 . S
O1094 C1093 1.235 . S
C1095 C1097 1.400 . S
C1095 N1098 1.351 . S
C1095 C1100 1.501 . S
C1096 C1097 1.387 . S
C1096 N1099 1.341 . S
C1097 C1095 1.400 . S
C1097 C1096 1.387 . S
N1098 Co1089 2.022 . S
N1098 C1095 1.351 . S
N1098 N1099 1.365 . S
N1099 C1096 1.341 . S
N1099 N1098 1.365 . S
N1099 H1119 0.862 . S
C1100 C1095 1.501 . S
C1100 H1101 0.961 . S
C1100 H1102 0.961 . S
C1100 H1103 0.960 . S
H1101 C1100 0.961 . S
H1102 C1100 0.961 . S
H1103 C1100 0.960 . S
C1104 N1105 1.342 . S
C1104 C1108 1.401 . S
C1104 C1109 1.499 . S
N1105 Co1088 1.989 . S
N1105 C1104 1.342 . S
N1105 N1106 1.388 . S
N1106 Co1089 1.993 . S
N1106 N1105 1.388 . S
N1106 C1107 1.346 . S
C1107 N1106 1.346 . S
C1107 C1108 1.396 . S
C1107 C1117 1.510 . S
C1108 C1104 1.401 . S
C1108 C1107 1.396 . S
C1109 C1104 1.499 . S
C1109 H1110 0.959 . S
C1109 H1111 0.960 . S
C1109 H1112 0.961 . S
H1110 C1109 0.959 . S
H1111 C1109 0.960 . S
H1112 C1109 0.961 . S
O1113 Co1088 1.967 . S
O1113 C1121 1.258 . S
O1114 Co1089 1.941 . S
O1114 C1121 1.266 . S
H1115 C1117 0.959 . S
H1116 C1117 0.961 . S
C1117 C1107 1.510 . S
C1117 H1115 0.959 . S
C1117 H1116 0.961 . S
C1117 H1118 0.960 . S
H1118 C1117 0.960 . S
H1119 N1099 0.862 . S
O1120 Co1088 1.920 . S
O1120 C1093 1.289 . S
C1121 O1113 1.258 . S
C1121 O1114 1.266 . S
Co1122 O1125 1.970 . S
Co1122 N1139 1.989 . S
Co1122 O1147 1.967 . S
Co1122 O1154 1.920 . S
Co1123 O1126 1.966 . S
Co1123 N1132 2.022 . S
Co1123 N1140 1.993 . S
Co1123 O1148 1.941 . S
C1124 O1125 1.258 . S
C1124 O1126 1.263 . S
O1125 Co1122 1.970 . S
O1125 C1124 1.258 . S
O1126 Co1123 1.966 . S
O1126 C1124 1.263 . S
C1127 O1128 1.235 . S
C1127 O1154 1.289 . S
O1128 C1127 1.235 . S
C1129 C1131 1.400 . S
C1129 N1132 1.351 . S
C1129 C1134 1.501 . S
C1130 C1131 1.387 . S
C1130 N1133 1.341 . S
C1131 C1129 1.400 . S
C1131 C1130 1.387 . S
N1132 Co1123 2.022 . S
N1132 C1129 1.351 . S
N1132 N1133 1.365 . S
N1133 C1130 1.341 . S
N1133 N1132 1.365 . S
N1133 H1153 0.862 . S
C1134 C1129 1.501 . S
C1134 H1135 0.961 . S
C1134 H1136 0.961 . S
C1134 H1137 0.960 . S
H1135 C1134 0.961 . S
H1136 C1134 0.961 . S
H1137 C1134 0.960 . S
C1138 N1139 1.342 . S
C1138 C1142 1.401 . S
C1138 C1143 1.499 . S
N1139 Co1122 1.989 . S
N1139 C1138 1.342 . S
N1139 N1140 1.388 . S
N1140 Co1123 1.993 . S
N1140 N1139 1.388 . S
N1140 C1141 1.346 . S
C1141 N1140 1.346 . S
C1141 C1142 1.396 . S
C1141 C1151 1.510 . S
C1142 C1138 1.401 . S
C1142 C1141 1.396 . S
C1143 C1138 1.499 . S
C1143 H1144 0.959 . S
C1143 H1145 0.960 . S
C1143 H1146 0.961 . S
H1144 C1143 0.959 . S
H1145 C1143 0.960 . S
H1146 C1143 0.961 . S
O1147 Co1122 1.967 . S
O1147 C1155 1.258 . S
O1148 Co1123 1.941 . S
O1148 C1155 1.266 . S
H1149 C1151 0.959 . S
H1150 C1151 0.961 . S
C1151 C1141 1.510 . S
C1151 H1149 0.959 . S
C1151 H1150 0.961 . S
C1151 H1152 0.960 . S
H1152 C1151 0.960 . S
H1153 N1133 0.862 . S
O1154 Co1122 1.920 . S
O1154 C1127 1.289 . S
C1155 O1147 1.258 . S
C1155 O1148 1.266 . S
Co1156 O1159 1.970 . S
Co1156 N1173 1.989 . S
Co1156 O1181 1.967 . S
Co1156 O1188 1.920 . S
Co1157 O1160 1.966 . S
Co1157 N1166 2.022 . S
Co1157 N1174 1.993 . S
Co1157 O1182 1.941 . S
C1158 O1159 1.258 . S
C1158 O1160 1.263 . S
O1159 Co1156 1.970 . S
O1159 C1158 1.258 . S
O1160 Co1157 1.966 . S
O1160 C1158 1.263 . S
C1161 O1162 1.235 . S
C1161 O1188 1.289 . S
O1162 C1161 1.235 . S
C1163 C1165 1.400 . S
C1163 N1166 1.351 . S
C1163 C1168 1.501 1_554 S
C1164 C1165 1.387 . S
C1164 N1167 1.341 . S
C1165 C1163 1.400 . S
C1165 C1164 1.387 . S
N1166 Co1157 2.022 . S
N1166 C1163 1.351 . S
N1166 N1167 1.365 . S
N1167 C1164 1.341 . S
N1167 N1166 1.365 . S
N1167 H1187 0.862 . S
C1168 C1163 1.501 1_556 S
C1168 H1169 0.961 1_556 S
C1168 H1170 0.961 . S
C1168 H1171 0.960 . S
H1169 C1168 0.961 1_554 S
H1170 C1168 0.961 . S
H1171 C1168 0.960 . S
C1172 N1173 1.342 . S
C1172 C1176 1.401 . S
C1172 C1177 1.499 . S
N1173 Co1156 1.989 . S
N1173 C1172 1.342 . S
N1173 N1174 1.388 . S
N1174 Co1157 1.993 . S
N1174 N1173 1.388 . S
N1174 C1175 1.346 . S
C1175 N1174 1.346 . S
C1175 C1176 1.396 . S
C1175 C1185 1.510 . S
C1176 C1172 1.401 . S
C1176 C1175 1.396 . S
C1177 C1172 1.499 . S
C1177 H1178 0.959 . S
C1177 H1179 0.960 . S
C1177 H1180 0.961 . S
H1178 C1177 0.959 . S
H1179 C1177 0.960 . S
H1180 C1177 0.961 . S
O1181 Co1156 1.967 . S
O1181 C1189 1.258 . S
O1182 Co1157 1.941 . S
O1182 C1189 1.266 . S
H1183 C1185 0.959 . S
H1184 C1185 0.961 . S
C1185 C1175 1.510 . S
C1185 H1183 0.959 . S
C1185 H1184 0.961 . S
C1185 H1186 0.960 . S
H1186 C1185 0.960 . S
H1187 N1167 0.862 . S
O1188 Co1156 1.920 . S
O1188 C1161 1.289 . S
C1189 O1181 1.258 . S
C1189 O1182 1.266 . S
Co1190 O1193 1.970 . S
Co1190 N1207 1.989 . S
Co1190 O1215 1.967 . S
Co1190 O1222 1.920 . S
Co1191 O1194 1.966 . S
Co1191 N1200 2.022 . S
Co1191 N1208 1.993 . S
Co1191 O1216 1.941 . S
C1192 O1193 1.258 . S
C1192 O1194 1.263 . S
O1193 Co1190 1.970 . S
O1193 C1192 1.258 . S
O1194 Co1191 1.966 . S
O1194 C1192 1.263 . S
C1195 O1196 1.235 . S
C1195 O1222 1.289 . S
O1196 C1195 1.235 . S
C1197 C1199 1.400 . S
C1197 N1200 1.351 . S
C1197 C1202 1.501 . S
C1198 C1199 1.387 . S
C1198 N1201 1.341 . S
C1199 C1197 1.400 . S
C1199 C1198 1.387 . S
N1200 Co1191 2.022 . S
N1200 C1197 1.351 . S
N1200 N1201 1.365 . S
N1201 C1198 1.341 . S
N1201 N1200 1.365 . S
N1201 H1221 0.862 . S
C1202 C1197 1.501 . S
C1202 H1203 0.961 . S
C1202 H1204 0.961 . S
C1202 H1205 0.960 . S
H1203 C1202 0.961 . S
H1204 C1202 0.961 . S
H1205 C1202 0.960 . S
C1206 N1207 1.342 . S
C1206 C1210 1.401 . S
C1206 C1211 1.499 . S
N1207 Co1190 1.989 . S
N1207 C1206 1.342 . S
N1207 N1208 1.388 . S
N1208 Co1191 1.993 . S
N1208 N1207 1.388 . S
N1208 C1209 1.346 . S
C1209 N1208 1.346 . S
C1209 C1210 1.396 . S
C1209 C1219 1.510 . S
C1210 C1206 1.401 . S
C1210 C1209 1.396 . S
C1211 C1206 1.499 . S
C1211 H1212 0.959 . S
C1211 H1213 0.960 . S
C1211 H1214 0.961 . S
H1212 C1211 0.959 . S
H1213 C1211 0.960 . S
H1214 C1211 0.961 . S
O1215 Co1190 1.967 . S
O1215 C1223 1.258 . S
O1216 Co1191 1.941 . S
O1216 C1223 1.266 . S
H1217 C1219 0.959 . S
H1218 C1219 0.961 . S
C1219 C1209 1.510 . S
C1219 H1217 0.959 . S
C1219 H1218 0.961 . S
C1219 H1220 0.960 . S
H1220 C1219 0.960 . S
H1221 N1201 0.862 . S
O1222 Co1190 1.920 . S
O1222 C1195 1.289 . S
C1223 O1215 1.258 . S
C1223 O1216 1.266 . S
Co1224 O1227 1.970 . S
Co1224 N1241 1.989 . S
Co1224 O1249 1.967 . S
Co1224 O1256 1.920 . S
Co1225 O1228 1.966 . S
Co1225 N1234 2.022 . S
Co1225 N1242 1.993 . S
Co1225 O1250 1.941 . S
C1226 O1227 1.258 . S
C1226 O1228 1.263 . S
O1227 Co1224 1.970 . S
O1227 C1226 1.258 . S
O1228 Co1225 1.966 . S
O1228 C1226 1.263 . S
C1229 O1230 1.235 . S
C1229 O1256 1.289 . S
O1230 C1229 1.235 . S
C1231 C1233 1.400 . S
C1231 N1234 1.351 . S
C1231 C1236 1.485 1_556 S
C1232 C1233 1.387 . S
C1232 N1235 1.341 . S
C1233 C1231 1.400 . S
C1233 C1232 1.387 . S
N1234 Co1225 2.022 . S
N1234 C1231 1.351 . S
N1234 N1235 1.365 . S
N1235 C1232 1.341 . S
N1235 N1234 1.365 . S
N1235 H1255 0.862 . S
C1236 C1231 1.485 1_554 S
C1236 H1237 0.942 1_554 S
C1236 H1238 0.983 . S
C1236 H1239 0.973 . S
H1237 C1236 0.942 1_556 S
H1238 C1236 0.983 . S
H1239 C1236 0.973 . S
C1240 N1241 1.342 . S
C1240 C1244 1.401 . S
C1240 C1245 1.499 . S
N1241 Co1224 1.989 . S
N1241 C1240 1.342 . S
N1241 N1242 1.388 . S
N1242 Co1225 1.993 . S
N1242 N1241 1.388 . S
N1242 C1243 1.346 . S
C1243 N1242 1.346 . S
C1243 C1244 1.396 . S
C1243 C1253 1.510 . S
C1244 C1240 1.401 . S
C1244 C1243 1.396 . S
C1245 C1240 1.499 . S
C1245 H1246 0.959 . S
C1245 H1247 0.960 . S
C1245 H1248 0.961 . S
H1246 C1245 0.959 . S
H1247 C1245 0.960 . S
H1248 C1245 0.961 . S
O1249 Co1224 1.967 . S
O1249 C1257 1.258 . S
O1250 Co1225 1.941 . S
O1250 C1257 1.266 . S
H1251 C1253 0.959 . S
H1252 C1253 0.961 . S
C1253 C1243 1.510 . S
C1253 H1251 0.959 . S
C1253 H1252 0.961 . S
C1253 H1254 0.960 . S
H1254 C1253 0.960 . S
H1255 N1235 0.862 . S
O1256 Co1224 1.920 . S
O1256 C1229 1.289 . S
C1257 O1249 1.258 . S
C1257 O1250 1.266 . S
Co1258 O1261 1.970 . S
Co1258 N1275 1.989 . S
Co1258 O1283 1.967 . S
Co1258 O1290 1.920 . S
Co1259 O1262 1.966 . S
Co1259 N1268 2.022 . S
Co1259 N1276 1.993 . S
Co1259 O1284 1.941 . S
C1260 O1261 1.258 . S
C1260 O1262 1.263 . S
O1261 Co1258 1.970 . S
O1261 C1260 1.258 . S
O1262 Co1259 1.966 . S
O1262 C1260 1.263 . S
C1263 O1264 1.235 . S
C1263 O1290 1.289 . S
O1264 C1263 1.235 . S
C1265 C1267 1.400 . S
C1265 N1268 1.351 . S
C1265 C1270 1.501 . S
C1266 C1267 1.387 . S
C1266 N1269 1.341 . S
C1267 C1265 1.400 . S
C1267 C1266 1.387 . S
N1268 Co1259 2.022 . S
N1268 C1265 1.351 . S
N1268 N1269 1.365 . S
N1269 C1266 1.341 . S
N1269 N1268 1.365 . S
N1269 H1289 0.862 . S
C1270 C1265 1.501 . S
C1270 H1271 0.961 . S
C1270 H1272 0.961 . S
C1270 H1273 0.960 . S
H1271 C1270 0.961 . S
H1272 C1270 0.961 . S
H1273 C1270 0.960 . S
C1274 N1275 1.342 . S
C1274 C1278 1.401 . S
C1274 C1279 1.499 . S
N1275 Co1258 1.989 . S
N1275 C1274 1.342 . S
N1275 N1276 1.388 . S
N1276 Co1259 1.993 . S
N1276 N1275 1.388 . S
N1276 C1277 1.346 . S
C1277 N1276 1.346 . S
C1277 C1278 1.396 . S
C1277 C1287 1.510 . S
C1278 C1274 1.401 . S
C1278 C1277 1.396 . S
C1279 C1274 1.499 . S
C1279 H1280 0.959 . S
C1279 H1281 0.960 . S
C1279 H1282 0.961 . S
H1280 C1279 0.959 . S
H1281 C1279 0.960 . S
H1282 C1279 0.961 . S
O1283 Co1258 1.967 . S
O1283 C1291 1.258 . S
O1284 Co1259 1.941 . S
O1284 C1291 1.266 . S
H1285 C1287 0.959 . S
H1286 C1287 0.961 . S
C1287 C1277 1.510 . S
C1287 H1285 0.959 . S
C1287 H1286 0.961 . S
C1287 H1288 0.960 . S
H1288 C1287 0.960 . S
H1289 N1269 0.862 . S
O1290 Co1258 1.920 . S
O1290 C1263 1.289 . S
C1291 O1283 1.258 . S
C1291 O1284 1.266 . S
Co1292 O1295 1.970 . S
Co1292 N1309 1.989 . S
Co1292 O1317 1.967 . S
Co1292 O1324 1.920 . S
Co1293 O1296 1.966 . S
Co1293 N1302 2.022 . S
Co1293 N1310 1.993 . S
Co1293 O1318 1.941 . S
C1294 O1295 1.258 . S
C1294 O1296 1.263 . S
O1295 Co1292 1.970 . S
O1295 C1294 1.258 . S
O1296 Co1293 1.966 . S
O1296 C1294 1.263 . S
C1297 O1298 1.235 . S
C1297 O1324 1.289 . S
O1298 C1297 1.235 . S
C1299 C1301 1.400 . S
C1299 N1302 1.351 . S
C1299 C1304 1.501 . S
C1300 C1301 1.387 . S
C1300 N1303 1.341 . S
C1301 C1299 1.400 . S
C1301 C1300 1.387 . S
N1302 Co1293 2.022 . S
N1302 C1299 1.351 . S
N1302 N1303 1.365 . S
N1303 C1300 1.341 . S
N1303 N1302 1.365 . S
N1303 H1323 0.862 . S
C1304 C1299 1.501 . S
C1304 H1305 0.961 . S
C1304 H1306 0.961 . S
C1304 H1307 0.960 . S
H1305 C1304 0.961 . S
H1306 C1304 0.961 . S
H1307 C1304 0.960 . S
C1308 N1309 1.342 . S
C1308 C1312 1.401 . S
C1308 C1313 1.499 . S
N1309 Co1292 1.989 . S
N1309 C1308 1.342 . S
N1309 N1310 1.388 . S
N1310 Co1293 1.993 . S
N1310 N1309 1.388 . S
N1310 C1311 1.346 . S
C1311 N1310 1.346 . S
C1311 C1312 1.396 . S
C1311 C1321 1.510 . S
C1312 C1308 1.401 . S
C1312 C1311 1.396 . S
C1313 C1308 1.499 . S
C1313 H1314 0.959 . S
C1313 H1315 0.960 . S
C1313 H1316 0.961 . S
H1314 C1313 0.959 . S
H1315 C1313 0.960 . S
H1316 C1313 0.961 . S
O1317 Co1292 1.967 . S
O1317 C1325 1.258 . S
O1318 Co1293 1.941 . S
O1318 C1325 1.266 . S
H1319 C1321 0.959 . S
H1320 C1321 0.961 . S
C1321 C1311 1.510 . S
C1321 H1319 0.959 . S
C1321 H1320 0.961 . S
C1321 H1322 0.960 . S
H1322 C1321 0.960 . S
H1323 N1303 0.862 . S
O1324 Co1292 1.920 . S
O1324 C1297 1.289 . S
C1325 O1317 1.258 . S
C1325 O1318 1.266 . S
Co1326 O1329 1.970 . S
Co1326 N1343 1.989 . S
Co1326 O1351 1.967 . S
Co1326 O1358 1.920 . S
Co1327 O1330 1.966 . S
Co1327 N1336 2.022 . S
Co1327 N1344 1.993 . S
Co1327 O1352 1.941 . S
C1328 O1329 1.258 . S
C1328 O1330 1.263 . S
O1329 Co1326 1.970 . S
O1329 C1328 1.258 . S
O1330 Co1327 1.966 . S
O1330 C1328 1.263 . S
C1331 O1332 1.235 . S
C1331 O1358 1.289 . S
O1332 C1331 1.235 . S
C1333 C1335 1.400 . S
C1333 N1336 1.351 . S
C1333 C1338 1.501 . S
C1334 C1335 1.387 . S
C1334 N1337 1.341 . S
C1335 C1333 1.400 . S
C1335 C1334 1.387 . S
N1336 Co1327 2.022 . S
N1336 C1333 1.351 . S
N1336 N1337 1.365 . S
N1337 C1334 1.341 . S
N1337 N1336 1.365 . S
N1337 H1357 0.862 . S
C1338 C1333 1.501 . S
C1338 H1339 0.961 . S
C1338 H1340 0.961 . S
C1338 H1341 0.960 . S
H1339 C1338 0.961 . S
H1340 C1338 0.961 . S
H1341 C1338 0.960 . S
C1342 N1343 1.342 . S
C1342 C1346 1.401 . S
C1342 C1347 1.499 . S
N1343 Co1326 1.989 . S
N1343 C1342 1.342 . S
N1343 N1344 1.388 . S
N1344 Co1327 1.993 . S
N1344 N1343 1.388 . S
N1344 C1345 1.346 . S
C1345 N1344 1.346 . S
C1345 C1346 1.396 . S
C1345 C1355 1.510 . S
C1346 C1342 1.401 . S
C1346 C1345 1.396 . S
C1347 C1342 1.499 . S
C1347 H1348 0.959 . S
C1347 H1349 0.960 . S
C1347 H1350 0.961 . S
H1348 C1347 0.959 . S
H1349 C1347 0.960 . S
H1350 C1347 0.961 . S
O1351 Co1326 1.967 . S
O1351 C1359 1.258 . S
O1352 Co1327 1.941 . S
O1352 C1359 1.266 . S
H1353 C1355 0.959 . S
H1354 C1355 0.961 . S
C1355 C1345 1.510 . S
C1355 H1353 0.959 . S
C1355 H1354 0.961 . S
C1355 H1356 0.960 . S
H1356 C1355 0.960 . S
H1357 N1337 0.862 . S
O1358 Co1326 1.920 . S
O1358 C1331 1.289 . S
C1359 O1351 1.258 . S
C1359 O1352 1.266 . S
Co1360 O1363 1.970 . S
Co1360 N1377 1.989 . S
Co1360 O1385 1.967 . S
Co1360 O1392 1.920 . S
Co1361 O1364 1.966 . S
Co1361 N1370 2.022 . S
Co1361 N1378 1.993 . S
Co1361 O1386 1.941 . S
C1362 O1363 1.258 . S
C1362 O1364 1.263 . S
O1363 Co1360 1.970 . S
O1363 C1362 1.258 . S
O1364 Co1361 1.966 . S
O1364 C1362 1.263 . S
C1365 O1366 1.235 . S
C1365 O1392 1.289 . S
O1366 C1365 1.235 . S
C1367 C1369 1.400 . S
C1367 N1370 1.351 . S
C1367 C1372 1.501 . S
C1368 C1369 1.387 . S
C1368 N1371 1.341 . S
C1369 C1367 1.400 . S
C1369 C1368 1.387 . S
N1370 Co1361 2.022 . S
N1370 C1367 1.351 . S
N1370 N1371 1.365 . S
N1371 C1368 1.341 . S
N1371 N1370 1.365 . S
N1371 H1391 0.862 . S
C1372 C1367 1.501 . S
C1372 H1373 0.961 . S
C1372 H1374 0.961 . S
C1372 H1375 0.960 . S
H1373 C1372 0.961 . S
H1374 C1372 0.961 . S
H1375 C1372 0.960 . S
C1376 N1377 1.342 . S
C1376 C1380 1.401 . S
C1376 C1381 1.499 . S
N1377 Co1360 1.989 . S
N1377 C1376 1.342 . S
N1377 N1378 1.388 . S
N1378 Co1361 1.993 . S
N1378 N1377 1.388 . S
N1378 C1379 1.346 . S
C1379 N1378 1.346 . S
C1379 C1380 1.396 . S
C1379 C1389 1.510 . S
C1380 C1376 1.401 . S
C1380 C1379 1.396 . S
C1381 C1376 1.499 . S
C1381 H1382 0.959 . S
C1381 H1383 0.960 . S
C1381 H1384 0.961 . S
H1382 C1381 0.959 . S
H1383 C1381 0.960 . S
H1384 C1381 0.961 . S
O1385 Co1360 1.967 . S
O1385 C1393 1.258 . S
O1386 Co1361 1.941 . S
O1386 C1393 1.266 . S
H1387 C1389 0.959 . S
H1388 C1389 0.961 . S
C1389 C1379 1.510 . S
C1389 H1387 0.959 . S
C1389 H1388 0.961 . S
C1389 H1390 0.960 . S
H1390 C1389 0.960 . S
H1391 N1371 0.862 . S
O1392 Co1360 1.920 . S
O1392 C1365 1.289 . S
C1393 O1385 1.258 . S
C1393 O1386 1.266 . S
Co1394 O1397 1.970 . S
Co1394 N1411 1.989 . S
Co1394 O1419 1.967 . S
Co1394 O1426 1.920 . S
Co1395 O1398 1.966 . S
Co1395 N1404 2.022 . S
Co1395 N1412 1.993 . S
Co1395 O1420 1.941 . S
C1396 O1397 1.258 . S
C1396 O1398 1.263 . S
O1397 Co1394 1.970 . S
O1397 C1396 1.258 . S
O1398 Co1395 1.966 . S
O1398 C1396 1.263 . S
C1399 O1400 1.235 . S
C1399 O1426 1.289 . S
O1400 C1399 1.235 . S
C1401 C1403 1.400 . S
C1401 N1404 1.351 . S
C1401 C1406 1.501 1_455 S
C1402 C1403 1.387 . S
C1402 N1405 1.341 . S
C1403 C1401 1.400 . S
C1403 C1402 1.387 . S
N1404 Co1395 2.022 . S
N1404 C1401 1.351 . S
N1404 N1405 1.365 . S
N1405 C1402 1.341 . S
N1405 N1404 1.365 . S
N1405 H1425 0.862 . S
C1406 C1401 1.501 1_655 S
C1406 H1407 0.961 1_655 S
C1406 H1408 0.961 . S
C1406 H1409 0.960 . S
H1407 C1406 0.961 1_455 S
H1408 C1406 0.961 . S
H1409 C1406 0.960 . S
C1410 N1411 1.342 . S
C1410 C1414 1.401 . S
C1410 C1415 1.499 . S
N1411 Co1394 1.989 . S
N1411 C1410 1.342 . S
N1411 N1412 1.388 . S
N1412 Co1395 1.993 . S
N1412 N1411 1.388 . S
N1412 C1413 1.346 . S
C1413 N1412 1.346 . S
C1413 C1414 1.396 . S
C1413 C1423 1.510 . S
C1414 C1410 1.401 . S
C1414 C1413 1.396 . S
C1415 C1410 1.499 . S
C1415 H1416 0.959 . S
C1415 H1417 0.960 . S
C1415 H1418 0.961 . S
H1416 C1415 0.959 . S
H1417 C1415 0.960 . S
H1418 C1415 0.961 . S
O1419 Co1394 1.967 . S
O1419 C1427 1.258 . S
O1420 Co1395 1.941 . S
O1420 C1427 1.266 . S
H1421 C1423 0.959 . S
H1422 C1423 0.961 . S
C1423 C1413 1.510 . S
C1423 H1421 0.959 . S
C1423 H1422 0.961 . S
C1423 H1424 0.960 . S
H1424 C1423 0.960 . S
H1425 N1405 0.862 . S
O1426 Co1394 1.920 . S
O1426 C1399 1.289 . S
C1427 O1419 1.258 . S
C1427 O1420 1.266 . S
Co1428 O1431 1.970 . S
Co1428 N1445 1.989 . S
Co1428 O1453 1.967 . S
Co1428 O1460 1.920 . S
Co1429 O1432 1.966 . S
Co1429 N1438 2.022 . S
Co1429 N1446 1.993 . S
Co1429 O1454 1.941 . S
C1430 O1431 1.258 . S
C1430 O1432 1.263 . S
O1431 Co1428 1.970 . S
O1431 C1430 1.258 . S
O1432 Co1429 1.966 . S
O1432 C1430 1.263 . S
C1433 O1434 1.235 . S
C1433 O1460 1.289 . S
O1434 C1433 1.235 . S
C1435 C1437 1.400 . S
C1435 N1438 1.351 . S
C1435 C1440 1.501 . S
C1436 C1437 1.387 . S
C1436 N1439 1.341 . S
C1437 C1435 1.400 . S
C1437 C1436 1.387 . S
N1438 Co1429 2.022 . S
N1438 C1435 1.351 . S
N1438 N1439 1.365 . S
N1439 C1436 1.341 . S
N1439 N1438 1.365 . S
N1439 H1459 0.862 . S
C1440 C1435 1.501 . S
C1440 H1441 0.961 . S
C1440 H1442 0.961 . S
C1440 H1443 0.960 . S
H1441 C1440 0.961 . S
H1442 C1440 0.961 . S
H1443 C1440 0.960 . S
C1444 N1445 1.342 . S
C1444 C1448 1.401 . S
C1444 C1449 1.499 . S
N1445 Co1428 1.989 . S
N1445 C1444 1.342 . S
N1445 N1446 1.388 . S
N1446 Co1429 1.993 . S
N1446 N1445 1.388 . S
N1446 C1447 1.346 . S
C1447 N1446 1.346 . S
C1447 C1448 1.396 . S
C1447 C1457 1.510 . S
C1448 C1444 1.401 . S
C1448 C1447 1.396 . S
C1449 C1444 1.499 . S
C1449 H1450 0.959 . S
C1449 H1451 0.960 . S
C1449 H1452 0.961 . S
H1450 C1449 0.959 . S
H1451 C1449 0.960 . S
H1452 C1449 0.961 . S
O1453 Co1428 1.967 . S
O1453 C1461 1.258 . S
O1454 Co1429 1.941 . S
O1454 C1461 1.266 . S
H1455 C1457 0.959 . S
H1456 C1457 0.961 . S
C1457 C1447 1.510 . S
C1457 H1455 0.959 . S
C1457 H1456 0.961 . S
C1457 H1458 0.960 . S
H1458 C1457 0.960 . S
H1459 N1439 0.862 . S
O1460 Co1428 1.920 . S
O1460 C1433 1.289 . S
C1461 O1453 1.258 . S
C1461 O1454 1.266 . S
Co1462 O1465 1.970 . S
Co1462 N1479 1.989 . S
Co1462 O1487 1.967 1_556 S
Co1462 O1494 1.920 . S
Co1463 O1466 1.966 . S
Co1463 N1472 2.022 . S
Co1463 N1480 1.993 1_554 S
Co1463 O1488 1.941 . S
C1464 O1465 1.258 . S
C1464 O1466 1.263 1_556 S
O1465 Co1462 1.970 . S
O1465 C1464 1.258 . S
O1466 Co1463 1.966 . S
O1466 C1464 1.263 1_554 S
C1467 O1468 1.235 . S
C1467 O1494 1.289 . S
O1468 C1467 1.235 . S
C1469 C1471 1.400 . S
C1469 N1472 1.351 . S
C1469 C1474 1.501 . S
C1470 C1471 1.387 . S
C1470 N1473 1.341 . S
C1471 C1469 1.400 . S
C1471 C1470 1.387 . S
N1472 Co1463 2.022 . S
N1472 C1469 1.351 . S
N1472 N1473 1.365 . S
N1473 C1470 1.341 . S
N1473 N1472 1.365 . S
N1473 H1493 0.862 . S
C1474 C1469 1.501 . S
C1474 H1475 0.961 . S
C1474 H1476 0.961 . S
C1474 H1477 0.960 . S
H1475 C1474 0.961 . S
H1476 C1474 0.961 . S
H1477 C1474 0.960 . S
C1478 N1479 1.342 . S
C1478 C1482 1.401 . S
C1478 C1483 1.499 . S
N1479 Co1462 1.989 . S
N1479 C1478 1.342 . S
N1479 N1480 1.388 . S
N1480 Co1463 1.993 1_556 S
N1480 N1479 1.388 . S
N1480 C1481 1.346 . S
C1481 N1480 1.346 . S
C1481 C1482 1.396 . S
C1481 C1491 1.538 . S
C1482 C1478 1.401 . S
C1482 C1481 1.396 . S
C1483 C1478 1.499 . S
C1483 H1484 0.959 . S
C1483 H1485 0.960 . S
C1483 H1486 0.961 . S
H1484 C1483 0.959 . S
H1485 C1483 0.960 . S
H1486 C1483 0.961 . S
O1487 Co1462 1.967 1_554 S
O1487 C1495 1.258 . S
O1488 Co1463 1.941 . S
O1488 C1495 1.266 . S
H1489 C1491 0.945 1_554 S
H1490 C1491 0.987 . S
C1491 C1481 1.538 . S
C1491 H1489 0.945 1_556 S
C1491 H1490 0.987 . S
C1491 H1492 0.923 1_556 S
H1492 C1491 0.923 1_554 S
H1493 N1473 0.862 . S
O1494 Co1462 1.920 . S
O1494 C1467 1.289 . S
C1495 O1487 1.258 . S
C1495 O1488 1.266 . S
Co1496 O1499 1.970 . S
Co1496 N1513 1.989 . S
Co1496 O1521 1.967 . S
Co1496 O1528 1.920 . S
Co1497 O1500 1.966 . S
Co1497 N1506 2.022 . S
Co1497 N1514 1.993 . S
Co1497 O1522 1.941 . S
C1498 O1499 1.258 . S
C1498 O1500 1.263 . S
O1499 Co1496 1.970 . S
O1499 C1498 1.258 . S
O1500 Co1497 1.966 . S
O1500 C1498 1.263 . S
C1501 O1502 1.235 . S
C1501 O1528 1.289 . S
O1502 C1501 1.235 . S
C1503 C1505 1.400 . S
C1503 N1506 1.351 . S
C1503 C1508 1.501 . S
C1504 C1505 1.387 . S
C1504 N1507 1.341 . S
C1505 C1503 1.400 . S
C1505 C1504 1.387 . S
N1506 Co1497 2.022 . S
N1506 C1503 1.351 . S
N1506 N1507 1.365 . S
N1507 C1504 1.341 . S
N1507 N1506 1.365 . S
N1507 H1527 0.862 . S
C1508 C1503 1.501 . S
C1508 H1509 0.961 . S
C1508 H1510 0.961 . S
C1508 H1511 0.960 . S
H1509 C1508 0.961 . S
H1510 C1508 0.961 . S
H1511 C1508 0.960 . S
C1512 N1513 1.342 . S
C1512 C1516 1.401 . S
C1512 C1517 1.499 . S
N1513 Co1496 1.989 . S
N1513 C1512 1.342 . S
N1513 N1514 1.388 . S
N1514 Co1497 1.993 . S
N1514 N1513 1.388 . S
N1514 C1515 1.346 . S
C1515 N1514 1.346 . S
C1515 C1516 1.396 . S
C1515 C1525 1.510 . S
C1516 C1512 1.401 . S
C1516 C1515 1.396 . S
C1517 C1512 1.499 . S
C1517 H1518 0.959 . S
C1517 H1519 0.960 . S
C1517 H1520 0.961 . S
H1518 C1517 0.959 . S
H1519 C1517 0.960 . S
H1520 C1517 0.961 . S
O1521 Co1496 1.967 . S
O1521 C1529 1.258 . S
O1522 Co1497 1.941 . S
O1522 C1529 1.266 . S
H1523 C1525 0.959 . S
H1524 C1525 0.961 . S
C1525 C1515 1.510 . S
C1525 H1523 0.959 . S
C1525 H1524 0.961 . S
C1525 H1526 0.960 . S
H1526 C1525 0.960 . S
H1527 N1507 0.862 . S
O1528 Co1496 1.920 . S
O1528 C1501 1.289 . S
C1529 O1521 1.258 . S
C1529 O1522 1.266 . S
Co1530 O1533 1.970 . S
Co1530 N1547 1.989 . S
Co1530 O1555 1.967 1_554 S
Co1530 O1562 1.920 . S
Co1531 O1534 1.966 . S
Co1531 N1540 2.022 . S
Co1531 N1548 1.993 1_556 S
Co1531 O1556 1.941 . S
C1532 O1533 1.298 . S
C1532 O1534 1.230 1_554 S
O1533 Co1530 1.970 . S
O1533 C1532 1.298 . S
O1534 Co1531 1.966 . S
O1534 C1532 1.230 1_556 S
C1535 O1536 1.235 . S
C1535 O1562 1.289 . S
O1536 C1535 1.235 . S
C1537 C1539 1.400 . S
C1537 N1540 1.351 . S
C1537 C1542 1.485 1_655 S
C1538 C1539 1.387 . S
C1538 N1541 1.341 . S
C1539 C1537 1.400 . S
C1539 C1538 1.387 . S
N1540 Co1531 2.022 . S
N1540 C1537 1.351 . S
N1540 N1541 1.365 . S
N1541 C1538 1.341 . S
N1541 N1540 1.365 . S
N1541 H1561 0.862 . S
C1542 C1537 1.485 1_455 S
C1542 H1543 0.942 1_455 S
C1542 H1544 0.983 . S
C1542 H1545 0.973 . S
H1543 C1542 0.942 1_655 S
H1544 C1542 0.983 . S
H1545 C1542 0.973 . S
C1546 N1547 1.342 . S
C1546 C1550 1.401 . S
C1546 C1551 1.499 . S
N1547 Co1530 1.989 . S
N1547 C1546 1.342 . S
N1547 N1548 1.388 . S
N1548 Co1531 1.993 1_554 S
N1548 N1547 1.388 . S
N1548 C1549 1.346 . S
C1549 N1548 1.346 . S
C1549 C1550 1.396 . S
C1549 C1559 1.510 1_554 S
C1550 C1546 1.401 . S
C1550 C1549 1.396 . S
C1551 C1546 1.499 . S
C1551 H1552 0.959 . S
C1551 H1553 0.960 . S
C1551 H1554 0.961 . S
H1552 C1551 0.959 . S
H1553 C1551 0.960 . S
H1554 C1551 0.961 . S
O1555 Co1530 1.967 1_556 S
O1555 C1563 1.258 . S
O1556 Co1531 1.941 . S
O1556 C1563 1.266 . S
H1557 C1559 0.959 . S
H1558 C1559 0.961 1_554 S
C1559 C1549 1.510 1_556 S
C1559 H1557 0.959 . S
C1559 H1558 0.961 1_556 S
C1559 H1560 0.960 . S
H1560 C1559 0.960 . S
H1561 N1541 0.862 . S
O1562 Co1530 1.920 . S
O1562 C1535 1.289 . S
C1563 O1555 1.258 . S
C1563 O1556 1.266 . S
Co1564 O1567 1.970 . S
Co1564 N1581 1.989 . S
Co1564 O1589 1.967 . S
Co1564 O1596 1.920 . S
Co1565 O1568 1.966 . S
Co1565 N1574 2.022 . S
Co1565 N1582 1.993 . S
Co1565 O1590 1.941 . S
C1566 O1567 1.258 . S
C1566 O1568 1.263 . S
O1567 Co1564 1.970 . S
O1567 C1566 1.258 . S
O1568 Co1565 1.966 . S
O1568 C1566 1.263 . S
C1569 O1570 1.235 . S
C1569 O1596 1.289 . S
O1570 C1569 1.235 . S
C1571 C1573 1.400 . S
C1571 N1574 1.351 . S
C1571 C1576 1.501 . S
C1572 C1573 1.387 . S
C1572 N1575 1.341 . S
C1573 C1571 1.400 . S
C1573 C1572 1.387 . S
N1574 Co1565 2.022 . S
N1574 C1571 1.351 . S
N1574 N1575 1.365 . S
N1575 C1572 1.341 . S
N1575 N1574 1.365 . S
N1575 H1595 0.862 . S
C1576 C1571 1.501 . S
C1576 H1577 0.961 . S
C1576 H1578 0.961 . S
C1576 H1579 0.960 . S
H1577 C1576 0.961 . S
H1578 C1576 0.961 . S
H1579 C1576 0.960 . S
C1580 N1581 1.342 . S
C1580 C1584 1.401 . S
C1580 C1585 1.499 . S
N1581 Co1564 1.989 . S
N1581 C1580 1.342 . S
N1581 N1582 1.388 . S
N1582 Co1565 1.993 . S
N1582 N1581 1.388 . S
N1582 C1583 1.346 . S
C1583 N1582 1.346 . S
C1583 C1584 1.396 . S
C1583 C1593 1.510 . S
C1584 C1580 1.401 . S
C1584 C1583 1.396 . S
C1585 C1580 1.499 . S
C1585 H1586 0.959 . S
C1585 H1587 0.960 . S
C1585 H1588 0.961 . S
H1586 C1585 0.959 . S
H1587 C1585 0.960 . S
H1588 C1585 0.961 . S
O1589 Co1564 1.967 . S
O1589 C1597 1.258 . S
O1590 Co1565 1.941 . S
O1590 C1597 1.266 . S
H1591 C1593 0.959 . S
H1592 C1593 0.961 . S
C1593 C1583 1.510 . S
C1593 H1591 0.959 . S
C1593 H1592 0.961 . S
C1593 H1594 0.960 . S
H1594 C1593 0.960 . S
H1595 N1575 0.862 . S
O1596 Co1564 1.920 . S
O1596 C1569 1.289 . S
C1597 O1589 1.258 . S
C1597 O1590 1.266 . S
Co1598 O1601 1.970 . S
Co1598 N1615 1.989 . S
Co1598 O1623 1.967 . S
Co1598 O1630 1.920 . S
Co1599 O1602 1.966 . S
Co1599 N1608 2.022 . S
Co1599 N1616 1.993 . S
Co1599 O1624 1.941 . S
C1600 O1601 1.258 . S
C1600 O1602 1.263 . S
O1601 Co1598 1.970 . S
O1601 C1600 1.258 . S
O1602 Co1599 1.966 . S
O1602 C1600 1.263 . S
C1603 O1604 1.235 . S
C1603 O1630 1.289 . S
O1604 C1603 1.235 . S
C1605 C1607 1.400 . S
C1605 N1608 1.351 . S
C1605 C1610 1.501 . S
C1606 C1607 1.387 . S
C1606 N1609 1.341 . S
C1607 C1605 1.400 . S
C1607 C1606 1.387 . S
N1608 Co1599 2.022 . S
N1608 C1605 1.351 . S
N1608 N1609 1.365 . S
N1609 C1606 1.341 . S
N1609 N1608 1.365 . S
N1609 H1629 0.862 . S
C1610 C1605 1.501 . S
C1610 H1611 0.961 . S
C1610 H1612 0.961 . S
C1610 H1613 0.960 . S
H1611 C1610 0.961 . S
H1612 C1610 0.961 . S
H1613 C1610 0.960 . S
C1614 N1615 1.342 . S
C1614 C1618 1.401 . S
C1614 C1619 1.499 . S
N1615 Co1598 1.989 . S
N1615 C1614 1.342 . S
N1615 N1616 1.388 . S
N1616 Co1599 1.993 . S
N1616 N1615 1.388 . S
N1616 C1617 1.346 . S
C1617 N1616 1.346 . S
C1617 C1618 1.396 . S
C1617 C1627 1.510 . S
C1618 C1614 1.401 . S
C1618 C1617 1.396 . S
C1619 C1614 1.499 . S
C1619 H1620 0.959 . S
C1619 H1621 0.960 . S
C1619 H1622 0.961 . S
H1620 C1619 0.959 . S
H1621 C1619 0.960 . S
H1622 C1619 0.961 . S
O1623 Co1598 1.967 . S
O1623 C1631 1.258 . S
O1624 Co1599 1.941 . S
O1624 C1631 1.266 . S
H1625 C1627 0.959 . S
H1626 C1627 0.961 . S
C1627 C1617 1.510 . S
C1627 H1625 0.959 . S
C1627 H1626 0.961 . S
C1627 H1628 0.960 . S
H1628 C1627 0.960 . S
H1629 N1609 0.862 . S
O1630 Co1598 1.920 . S
O1630 C1603 1.289 . S
C1631 O1623 1.258 . S
C1631 O1624 1.266 . S
H1632 C1638 0.930 . S
H1633 C1642 0.930 . S
H1634 C1647 0.929 . S
H1635 C1645 0.929 . S
H1636 C1640 0.929 . S
H1637 C1646 0.929 . S
C1638 H1632 0.930 . S
C1638 C1639 1.367 . S
C1638 C1646 1.378 . S
C1639 C1638 1.367 . S
C1639 C1647 1.433 . S
C1640 H1636 0.929 . S
C1640 C1642 1.378 . S
C1640 C1644 1.350 . S
C1641 C1644 1.463 . S
C1641 C1646 1.350 . S
C1641 N1649 1.427 . S
C1642 H1633 0.930 . S
C1642 C1640 1.378 . S
C1642 C1643 1.367 . S
C1643 C1642 1.367 . S
C1643 C1645 1.433 . S
C1644 C1640 1.350 . S
C1644 C1641 1.463 . S
C1644 N1648 1.427 . S
C1645 H1635 0.929 . S
C1645 C1643 1.433 . S
C1645 N1648 1.384 . S
C1646 H1637 0.929 . S
C1646 C1638 1.378 . S
C1646 C1641 1.350 . S
C1647 H1634 0.929 . S
C1647 C1639 1.433 . S
C1647 N1649 1.384 . S
N1648 C1644 1.427 . S
N1648 C1645 1.384 . S
N1649 C1641 1.427 . S
N1649 C1647 1.384 . S
H1650 C1656 0.930 . S
H1651 C1660 0.930 . S
H1652 C1665 0.929 . S
H1653 C1663 0.929 . S
H1654 C1658 0.929 . S
H1655 C1664 0.929 . S
C1656 H1650 0.930 . S
C1656 C1657 1.367 . S
C1656 C1664 1.378 . S
C1657 C1656 1.367 . S
C1657 C1665 1.433 . S
C1658 H1654 0.929 . S
C1658 C1660 1.378 . S
C1658 C1662 1.350 . S
C1659 C1662 1.463 . S
C1659 C1664 1.350 . S
C1659 N1667 1.427 . S
C1660 H1651 0.930 . S
C1660 C1658 1.378 . S
C1660 C1661 1.367 . S
C1661 C1660 1.367 . S
C1661 C1663 1.433 . S
C1662 C1658 1.350 . S
C1662 C1659 1.463 . S
C1662 N1666 1.427 . S
C1663 H1653 0.929 . S
C1663 C1661 1.433 . S
C1663 N1666 1.384 . S
C1664 H1655 0.929 . S
C1664 C1656 1.378 . S
C1664 C1659 1.350 . S
C1665 H1652 0.929 . S
C1665 C1657 1.433 . S
C1665 N1667 1.384 . S
N1666 C1662 1.427 . S
N1666 C1663 1.384 . S
N1667 C1659 1.427 . S
N1667 C1665 1.384 . S
H1668 C1674 0.930 1_554 S
H1669 C1678 0.930 . S
H1670 C1683 0.929 . S
H1671 C1681 0.929 . S
H1672 C1676 0.929 . S
H1673 C1682 0.929 . S
C1674 H1668 0.930 1_556 S
C1674 C1675 1.367 . S
C1674 C1682 1.378 . S
C1675 C1674 1.367 . S
C1675 C1683 1.433 . S
C1676 H1672 0.929 . S
C1676 C1678 1.378 . S
C1676 C1680 1.350 . S
C1677 C1680 1.463 . S
C1677 C1682 1.350 . S
C1677 N1685 1.427 . S
C1678 H1669 0.930 . S
C1678 C1676 1.378 . S
C1678 C1679 1.367 . S
C1679 C1678 1.367 . S
C1679 C1681 1.433 . S
C1680 C1676 1.350 . S
C1680 C1677 1.463 . S
C1680 N1684 1.427 . S
C1681 H1671 0.929 . S
C1681 C1679 1.433 . S
C1681 N1684 1.384 . S
C1682 H1673 0.929 . S
C1682 C1674 1.378 . S
C1682 C1677 1.350 . S
C1683 H1670 0.929 . S
C1683 C1675 1.433 . S
C1683 N1685 1.384 . S
N1684 C1680 1.427 . S
N1684 C1681 1.384 . S
N1685 C1677 1.427 . S
N1685 C1683 1.384 . S
H1686 C1692 0.930 . S
H1687 C1696 0.930 . S
H1688 C1701 0.929 . S
H1689 C1699 0.929 . S
H1690 C1694 0.929 . S
H1691 C1700 0.929 . S
C1692 H1686 0.930 . S
C1692 C1693 1.367 . S
C1692 C1700 1.378 . S
C1693 C1692 1.367 . S
C1693 C1701 1.433 . S
C1694 H1690 0.929 . S
C1694 C1696 1.378 . S
C1694 C1698 1.350 . S
C1695 C1698 1.463 . S
C1695 C1700 1.350 . S
C1695 N1703 1.427 . S
C1696 H1687 0.930 . S
C1696 C1694 1.378 . S
C1696 C1697 1.367 . S
C1697 C1696 1.367 . S
C1697 C1699 1.433 . S
C1698 C1694 1.350 . S
C1698 C1695 1.463 . S
C1698 N1702 1.427 . S
C1699 H1689 0.929 . S
C1699 C1697 1.433 . S
C1699 N1702 1.384 . S
C1700 H1691 0.929 . S
C1700 C1692 1.378 . S
C1700 C1695 1.350 . S
C1701 H1688 0.929 . S
C1701 C1693 1.433 . S
C1701 N1703 1.384 . S
N1702 C1698 1.427 . S
N1702 C1699 1.384 . S
N1703 C1695 1.427 . S
N1703 C1701 1.384 . S
H1704 C1710 0.930 . S
H1705 C1714 0.930 . S
H1706 C1719 0.929 . S
H1707 C1717 0.929 . S
H1708 C1712 0.929 . S
H1709 C1718 0.929 . S
C1710 H1704 0.930 . S
C1710 C1711 1.367 . S
C1710 C1718 1.378 . S
C1711 C1710 1.367 . S
C1711 C1719 1.433 . S
C1712 H1708 0.929 . S
C1712 C1714 1.378 . S
C1712 C1716 1.350 . S
C1713 C1716 1.463 . S
C1713 C1718 1.350 . S
C1713 N1721 1.427 . S
C1714 H1705 0.930 . S
C1714 C1712 1.378 . S
C1714 C1715 1.367 . S
C1715 C1714 1.367 . S
C1715 C1717 1.433 . S
C1716 C1712 1.350 . S
C1716 C1713 1.463 . S
C1716 N1720 1.427 . S
C1717 H1707 0.929 . S
C1717 C1715 1.433 . S
C1717 N1720 1.384 . S
C1718 H1709 0.929 . S
C1718 C1710 1.378 . S
C1718 C1713 1.350 . S
C1719 H1706 0.929 . S
C1719 C1711 1.433 . S
C1719 N1721 1.384 . S
N1720 C1716 1.427 . S
N1720 C1717 1.384 . S
N1721 C1713 1.427 . S
N1721 C1719 1.384 . S
H1722 C1728 0.930 . S
H1723 C1732 0.930 . S
H1724 C1737 0.929 . S
H1725 C1735 0.929 . S
H1726 C1730 0.929 . S
H1727 C1736 0.929 . S
C1728 H1722 0.930 . S
C1728 C1729 1.367 . S
C1728 C1736 1.378 . S
C1729 C1728 1.367 . S
C1729 C1737 1.433 . S
C1730 H1726 0.929 . S
C1730 C1732 1.378 . S
C1730 C1734 1.350 . S
C1731 C1734 1.463 . S
C1731 C1736 1.350 . S
C1731 N1739 1.427 . S
C1732 H1723 0.930 . S
C1732 C1730 1.378 . S
C1732 C1733 1.367 . S
C1733 C1732 1.367 . S
C1733 C1735 1.433 . S
C1734 C1730 1.350 . S
C1734 C1731 1.463 . S
C1734 N1738 1.427 . S
C1735 H1725 0.929 . S
C1735 C1733 1.433 . S
C1735 N1738 1.384 . S
C1736 H1727 0.929 . S
C1736 C1728 1.378 . S
C1736 C1731 1.350 . S
C1737 H1724 0.929 . S
C1737 C1729 1.433 . S
C1737 N1739 1.384 . S
N1738 C1734 1.427 . S
N1738 C1735 1.384 . S
N1739 C1731 1.427 . S
N1739 C1737 1.384 . S
H1740 C1746 0.930 . S
H1741 C1750 0.930 . S
H1742 C1755 0.929 . S
H1743 C1753 0.929 . S
H1744 C1748 0.929 . S
H1745 C1754 0.929 . S
C1746 H1740 0.930 . S
C1746 C1747 1.367 . S
C1746 C1754 1.378 . S
C1747 C1746 1.367 . S
C1747 C1755 1.433 . S
C1748 H1744 0.929 . S
C1748 C1750 1.378 . S
C1748 C1752 1.350 . S
C1749 C1752 1.463 . S
C1749 C1754 1.350 . S
C1749 N1757 1.427 . S
C1750 H1741 0.930 . S
C1750 C1748 1.378 . S
C1750 C1751 1.367 . S
C1751 C1750 1.367 . S
C1751 C1753 1.433 . S
C1752 C1748 1.350 . S
C1752 C1749 1.463 . S
C1752 N1756 1.427 . S
C1753 H1743 0.929 . S
C1753 C1751 1.433 . S
C1753 N1756 1.384 . S
C1754 H1745 0.929 . S
C1754 C1746 1.378 . S
C1754 C1749 1.350 . S
C1755 H1742 0.929 . S
C1755 C1747 1.433 . S
C1755 N1757 1.384 . S
N1756 C1752 1.427 . S
N1756 C1753 1.384 . S
N1757 C1749 1.427 . S
N1757 C1755 1.384 . S
H1758 C1764 0.930 . S
H1759 C1768 0.930 . S
H1760 C1773 0.929 . S
H1761 C1771 0.929 . S
H1762 C1766 0.929 . S
H1763 C1772 0.929 . S
C1764 H1758 0.930 . S
C1764 C1765 1.367 . S
C1764 C1772 1.378 . S
C1765 C1764 1.367 . S
C1765 C1773 1.433 . S
C1766 H1762 0.929 . S
C1766 C1768 1.378 . S
C1766 C1770 1.350 . S
C1767 C1770 1.463 . S
C1767 C1772 1.350 . S
C1767 N1775 1.427 . S
C1768 H1759 0.930 . S
C1768 C1766 1.378 . S
C1768 C1769 1.367 . S
C1769 C1768 1.367 . S
C1769 C1771 1.433 . S
C1770 C1766 1.350 . S
C1770 C1767 1.463 . S
C1770 N1774 1.427 . S
C1771 H1761 0.929 . S
C1771 C1769 1.433 . S
C1771 N1774 1.384 . S
C1772 H1763 0.929 . S
C1772 C1764 1.378 . S
C1772 C1767 1.350 . S
C1773 H1760 0.929 . S
C1773 C1765 1.433 . S
C1773 N1775 1.384 . S
N1774 C1770 1.427 . S
N1774 C1771 1.384 . S
N1775 C1767 1.427 . S
N1775 C1773 1.384 . S
H1776 C1782 0.930 . S
H1777 C1786 0.930 . S
H1778 C1791 0.929 . S
H1779 C1789 0.929 . S
H1780 C1784 0.929 . S
H1781 C1790 0.929 . S
C1782 H1776 0.930 . S
C1782 C1783 1.367 . S
C1782 C1790 1.378 . S
C1783 C1782 1.367 . S
C1783 C1791 1.433 . S
C1784 H1780 0.929 . S
C1784 C1786 1.378 . S
C1784 C1788 1.350 . S
C1785 C1788 1.463 . S
C1785 C1790 1.350 . S
C1785 N1793 1.427 . S
C1786 H1777 0.930 . S
C1786 C1784 1.378 . S
C1786 C1787 1.367 . S
C1787 C1786 1.367 . S
C1787 C1789 1.433 . S
C1788 C1784 1.350 . S
C1788 C1785 1.463 . S
C1788 N1792 1.427 . S
C1789 H1779 0.929 . S
C1789 C1787 1.433 . S
C1789 N1792 1.384 . S
C1790 H1781 0.929 . S
C1790 C1782 1.378 . S
C1790 C1785 1.350 . S
C1791 H1778 0.929 . S
C1791 C1783 1.433 . S
C1791 N1793 1.384 . S
N1792 C1788 1.427 . S
N1792 C1789 1.384 . S
N1793 C1785 1.427 . S
N1793 C1791 1.384 . S
H1794 C1800 0.930 . S
H1795 C1804 0.930 . S
H1796 C1809 0.929 . S
H1797 C1807 0.929 . S
H1798 C1802 0.929 . S
H1799 C1808 0.929 . S
C1800 H1794 0.930 . S
C1800 C1801 1.367 . S
C1800 C1808 1.378 . S
C1801 C1800 1.367 . S
C1801 C1809 1.433 . S
C1802 H1798 0.929 . S
C1802 C1804 1.378 . S
C1802 C1806 1.350 . S
C1803 C1806 1.463 . S
C1803 C1808 1.350 . S
C1803 N1811 1.427 . S
C1804 H1795 0.930 . S
C1804 C1802 1.378 . S
C1804 C1805 1.367 . S
C1805 C1804 1.367 . S
C1805 C1807 1.433 . S
C1806 C1802 1.350 . S
C1806 C1803 1.463 . S
C1806 N1810 1.427 . S
C1807 H1797 0.929 . S
C1807 C1805 1.433 . S
C1807 N1810 1.384 . S
C1808 H1799 0.929 . S
C1808 C1800 1.378 . S
C1808 C1803 1.350 . S
C1809 H1796 0.929 . S
C1809 C1801 1.433 . S
C1809 N1811 1.384 . S
N1810 C1806 1.427 . S
N1810 C1807 1.384 . S
N1811 C1803 1.427 . S
N1811 C1809 1.384 . S
H1812 C1818 0.931 1_655 S
H1813 C1822 0.930 . S
H1814 C1827 0.929 . S
H1815 C1825 0.929 . S
H1816 C1820 0.929 . S
H1817 C1826 0.929 . S
C1818 H1812 0.931 1_455 S
C1818 C1819 1.367 . S
C1818 C1826 1.378 . S
C1819 C1818 1.367 . S
C1819 C1827 1.433 . S
C1820 H1816 0.929 . S
C1820 C1822 1.378 . S
C1820 C1824 1.350 . S
C1821 C1824 1.463 . S
C1821 C1826 1.350 . S
C1821 N1829 1.427 . S
C1822 H1813 0.930 . S
C1822 C1820 1.378 . S
C1822 C1823 1.367 . S
C1823 C1822 1.367 . S
C1823 C1825 1.433 . S
C1824 C1820 1.350 . S
C1824 C1821 1.463 . S
C1824 N1828 1.427 . S
C1825 H1815 0.929 . S
C1825 C1823 1.433 . S
C1825 N1828 1.384 . S
C1826 H1817 0.929 . S
C1826 C1818 1.378 . S
C1826 C1821 1.350 . S
C1827 H1814 0.929 . S
C1827 C1819 1.433 . S
C1827 N1829 1.384 . S
N1828 C1824 1.427 . S
N1828 C1825 1.384 . S
N1829 C1821 1.427 . S
N1829 C1827 1.384 . S
H1830 C1836 0.930 . S
H1831 C1840 0.930 . S
H1832 C1845 0.929 . S
H1833 C1843 0.929 . S
H1834 C1838 0.929 . S
H1835 C1844 0.929 . S
C1836 H1830 0.930 . S
C1836 C1837 1.367 . S
C1836 C1844 1.378 . S
C1837 C1836 1.367 . S
C1837 C1845 1.433 . S
C1838 H1834 0.929 . S
C1838 C1840 1.378 . S
C1838 C1842 1.350 . S
C1839 C1842 1.463 . S
C1839 C1844 1.350 . S
C1839 N1847 1.427 . S
C1840 H1831 0.930 . S
C1840 C1838 1.378 . S
C1840 C1841 1.367 . S
C1841 C1840 1.367 . S
C1841 C1843 1.433 . S
C1842 C1838 1.350 . S
C1842 C1839 1.463 . S
C1842 N1846 1.427 . S
C1843 H1833 0.929 . S
C1843 C1841 1.433 . S
C1843 N1846 1.384 . S
C1844 H1835 0.929 . S
C1844 C1836 1.378 . S
C1844 C1839 1.350 . S
C1845 H1832 0.929 . S
C1845 C1837 1.433 . S
C1845 N1847 1.384 . S
N1846 C1842 1.427 . S
N1846 C1843 1.384 . S
N1847 C1839 1.427 . S
N1847 C1845 1.384 . S
H1848 C1854 0.930 . S
H1849 C1858 0.930 . S
H1850 C1863 0.929 . S
H1851 C1861 0.929 . S
H1852 C1856 0.929 . S
H1853 C1862 0.929 . S
C1854 H1848 0.930 . S
C1854 C1855 1.367 . S
C1854 C1862 1.378 . S
C1855 C1854 1.367 . S
C1855 C1863 1.433 . S
C1856 H1852 0.929 . S
C1856 C1858 1.378 . S
C1856 C1860 1.350 . S
C1857 C1860 1.463 . S
C1857 C1862 1.350 . S
C1857 N1865 1.427 . S
C1858 H1849 0.930 . S
C1858 C1856 1.378 . S
C1858 C1859 1.367 . S
C1859 C1858 1.367 . S
C1859 C1861 1.433 . S
C1860 C1856 1.350 . S
C1860 C1857 1.463 . S
C1860 N1864 1.427 . S
C1861 H1851 0.929 . S
C1861 C1859 1.433 . S
C1861 N1864 1.384 . S
C1862 H1853 0.929 . S
C1862 C1854 1.378 . S
C1862 C1857 1.350 . S
C1863 H1850 0.929 . S
C1863 C1855 1.433 . S
C1863 N1865 1.384 . S
N1864 C1860 1.427 . S
N1864 C1861 1.384 . S
N1865 C1857 1.427 . S
N1865 C1863 1.384 . S
H1866 C1872 0.930 . S
H1867 C1876 0.930 . S
H1868 C1881 0.929 . S
H1869 C1879 0.929 . S
H1870 C1874 0.929 . S
H1871 C1880 0.929 . S
C1872 H1866 0.930 . S
C1872 C1873 1.367 . S
C1872 C1880 1.378 . S
C1873 C1872 1.367 . S
C1873 C1881 1.433 . S
C1874 H1870 0.929 . S
C1874 C1876 1.378 . S
C1874 C1878 1.350 . S
C1875 C1878 1.463 . S
C1875 C1880 1.350 . S
C1875 N1883 1.427 . S
C1876 H1867 0.930 . S
C1876 C1874 1.378 . S
C1876 C1877 1.367 . S
C1877 C1876 1.367 . S
C1877 C1879 1.433 . S
C1878 C1874 1.350 . S
C1878 C1875 1.463 . S
C1878 N1882 1.427 . S
C1879 H1869 0.929 . S
C1879 C1877 1.433 . S
C1879 N1882 1.384 . S
C1880 H1871 0.929 . S
C1880 C1872 1.378 . S
C1880 C1875 1.350 . S
C1881 H1868 0.929 . S
C1881 C1873 1.433 . S
C1881 N1883 1.384 . S
N1882 C1878 1.427 . S
N1882 C1879 1.384 . S
N1883 C1875 1.427 . S
N1883 C1881 1.384 . S
H1884 C1890 0.930 . S
H1885 C1894 0.930 . S
H1886 C1899 0.929 . S
H1887 C1897 0.929 . S
H1888 C1892 0.929 . S
H1889 C1898 0.929 . S
C1890 H1884 0.930 . S
C1890 C1891 1.367 . S
C1890 C1898 1.378 . S
C1891 C1890 1.367 . S
C1891 C1899 1.433 . S
C1892 H1888 0.929 . S
C1892 C1894 1.378 . S
C1892 C1896 1.350 . S
C1893 C1896 1.463 . S
C1893 C1898 1.350 . S
C1893 N1901 1.427 . S
C1894 H1885 0.930 . S
C1894 C1892 1.378 . S
C1894 C1895 1.367 . S
C1895 C1894 1.367 . S
C1895 C1897 1.433 . S
C1896 C1892 1.350 . S
C1896 C1893 1.463 . S
C1896 N1900 1.427 . S
C1897 H1887 0.929 . S
C1897 C1895 1.433 . S
C1897 N1900 1.384 . S
C1898 H1889 0.929 . S
C1898 C1890 1.378 . S
C1898 C1893 1.350 . S
C1899 H1886 0.929 . S
C1899 C1891 1.433 . S
C1899 N1901 1.384 . S
N1900 C1896 1.427 . S
N1900 C1897 1.384 . S
N1901 C1893 1.427 . S
N1901 C1899 1.384 . S
H1902 C1908 0.930 . S
H1903 C1912 0.930 . S
H1904 C1917 0.929 . S
H1905 C1915 0.929 . S
H1906 C1910 0.929 . S
H1907 C1916 0.929 . S
C1908 H1902 0.930 . S
C1908 C1909 1.367 . S
C1908 C1916 1.378 . S
C1909 C1908 1.367 . S
C1909 C1917 1.433 . S
C1910 H1906 0.929 . S
C1910 C1912 1.378 . S
C1910 C1914 1.350 . S
C1911 C1914 1.463 . S
C1911 C1916 1.350 . S
C1911 N1919 1.427 . S
C1912 H1903 0.930 . S
C1912 C1910 1.378 . S
C1912 C1913 1.367 . S
C1913 C1912 1.367 . S
C1913 C1915 1.433 . S
C1914 C1910 1.350 . S
C1914 C1911 1.463 . S
C1914 N1918 1.427 . S
C1915 H1905 0.929 . S
C1915 C1913 1.433 . S
C1915 N1918 1.384 . S
C1916 H1907 0.929 . S
C1916 C1908 1.378 . S
C1916 C1911 1.350 . S
C1917 H1904 0.929 . S
C1917 C1909 1.433 . S
C1917 N1919 1.384 . S
N1918 C1914 1.427 . S
N1918 C1915 1.384 . S
N1919 C1911 1.427 . S
N1919 C1917 1.384 . S
H1920 C1926 0.930 . S
H1921 C1930 0.930 . S
H1922 C1935 0.929 . S
H1923 C1933 0.929 . S
H1924 C1928 0.929 . S
H1925 C1934 0.929 . S
C1926 H1920 0.930 . S
C1926 C1927 1.367 . S
C1926 C1934 1.378 . S
C1927 C1926 1.367 . S
C1927 C1935 1.433 . S
C1928 H1924 0.929 . S
C1928 C1930 1.378 . S
C1928 C1932 1.350 . S
C1929 C1932 1.463 . S
C1929 C1934 1.350 . S
C1929 N1937 1.427 . S
C1930 H1921 0.930 . S
C1930 C1928 1.378 . S
C1930 C1931 1.367 . S
C1931 C1930 1.367 . S
C1931 C1933 1.433 . S
C1932 C1928 1.350 . S
C1932 C1929 1.463 . S
C1932 N1936 1.427 . S
C1933 H1923 0.929 . S
C1933 C1931 1.433 . S
C1933 N1936 1.384 . S
C1934 H1925 0.929 . S
C1934 C1926 1.378 . S
C1934 C1929 1.350 . S
C1935 H1922 0.929 . S
C1935 C1927 1.433 . S
C1935 N1937 1.384 . S
N1936 C1932 1.427 . S
N1936 C1933 1.384 . S
N1937 C1929 1.427 . S
N1937 C1935 1.384 . S
H1938 C1944 0.930 1_565 S
H1939 C1948 0.930 . S
H1940 C1953 0.929 . S
H1941 C1951 0.929 . S
H1942 C1946 0.929 . S
H1943 C1952 0.929 . S
C1944 H1938 0.930 1_545 S
C1944 C1945 1.367 . S
C1944 C1952 1.378 . S
C1945 C1944 1.367 . S
C1945 C1953 1.433 . S
C1946 H1942 0.929 . S
C1946 C1948 1.378 . S
C1946 C1950 1.350 . S
C1947 C1950 1.463 . S
C1947 C1952 1.350 . S
C1947 N1955 1.427 . S
C1948 H1939 0.930 . S
C1948 C1946 1.378 . S
C1948 C1949 1.367 . S
C1949 C1948 1.367 . S
C1949 C1951 1.433 . S
C1950 C1946 1.350 . S
C1950 C1947 1.463 . S
C1950 N1954 1.427 . S
C1951 H1941 0.929 . S
C1951 C1949 1.433 . S
C1951 N1954 1.384 . S
C1952 H1943 0.929 . S
C1952 C1944 1.378 . S
C1952 C1947 1.350 . S
C1953 H1940 0.929 . S
C1953 C1945 1.433 . S
C1953 N1955 1.384 . S
N1954 C1950 1.427 . S
N1954 C1951 1.384 . S
N1955 C1947 1.427 . S
N1955 C1953 1.384 . S
H1956 C1962 0.930 . S
H1957 C1966 0.930 . S
H1958 C1971 0.929 . S
H1959 C1969 0.929 . S
H1960 C1964 0.929 . S
H1961 C1970 0.929 . S
C1962 H1956 0.930 . S
C1962 C1963 1.367 . S
C1962 C1970 1.378 . S
C1963 C1962 1.367 . S
C1963 C1971 1.433 . S
C1964 H1960 0.929 . S
C1964 C1966 1.378 . S
C1964 C1968 1.350 . S
C1965 C1968 1.463 . S
C1965 C1970 1.350 . S
C1965 N1973 1.427 . S
C1966 H1957 0.930 . S
C1966 C1964 1.378 . S
C1966 C1967 1.367 . S
C1967 C1966 1.367 . S
C1967 C1969 1.433 . S
C1968 C1964 1.350 . S
C1968 C1965 1.463 . S
C1968 N1972 1.427 . S
C1969 H1959 0.929 . S
C1969 C1967 1.433 . S
C1969 N1972 1.384 . S
C1970 H1961 0.929 . S
C1970 C1962 1.378 . S
C1970 C1965 1.350 . S
C1971 H1958 0.929 . S
C1971 C1963 1.433 . S
C1971 N1973 1.384 . S
N1972 C1968 1.427 . S
N1972 C1969 1.384 . S
N1973 C1965 1.427 . S
N1973 C1971 1.384 . S
H1974 C1980 0.930 . S
H1975 C1984 0.930 . S
H1976 C1989 0.929 . S
H1977 C1987 0.929 . S
H1978 C1982 0.929 . S
H1979 C1988 0.929 . S
C1980 H1974 0.930 . S
C1980 C1981 1.367 . S
C1980 C1988 1.378 . S
C1981 C1980 1.367 . S
C1981 C1989 1.433 . S
C1982 H1978 0.929 . S
C1982 C1984 1.378 . S
C1982 C1986 1.350 . S
C1983 C1986 1.463 . S
C1983 C1988 1.350 . S
C1983 N1991 1.427 . S
C1984 H1975 0.930 . S
C1984 C1982 1.378 . S
C1984 C1985 1.367 . S
C1985 C1984 1.367 . S
C1985 C1987 1.433 . S
C1986 C1982 1.350 . S
C1986 C1983 1.463 . S
C1986 N1990 1.427 . S
C1987 H1977 0.929 . S
C1987 C1985 1.433 . S
C1987 N1990 1.384 . S
C1988 H1979 0.929 . S
C1988 C1980 1.378 . S
C1988 C1983 1.350 . S
C1989 H1976 0.929 . S
C1989 C1981 1.433 . S
C1989 N1991 1.384 . S
N1990 C1986 1.427 . S
N1990 C1987 1.384 . S
N1991 C1983 1.427 . S
N1991 C1989 1.384 . S
H1992 C1998 0.930 . S
H1993 C2002 0.930 . S
H1994 C2007 0.929 . S
H1995 C2005 0.929 . S
H1996 C2000 0.929 . S
H1997 C2006 0.929 . S
C1998 H1992 0.930 . S
C1998 C1999 1.367 . S
C1998 C2006 1.378 . S
C1999 C1998 1.367 . S
C1999 C2007 1.433 . S
C2000 H1996 0.929 . S
C2000 C2002 1.378 . S
C2000 C2004 1.350 . S
C2001 C2004 1.463 . S
C2001 C2006 1.350 . S
C2001 N2009 1.427 . S
C2002 H1993 0.930 . S
C2002 C2000 1.378 . S
C2002 C2003 1.367 . S
C2003 C2002 1.367 . S
C2003 C2005 1.433 . S
C2004 C2000 1.350 . S
C2004 C2001 1.463 . S
C2004 N2008 1.427 . S
C2005 H1995 0.929 . S
C2005 C2003 1.433 . S
C2005 N2008 1.384 . S
C2006 H1997 0.929 . S
C2006 C1998 1.378 . S
C2006 C2001 1.350 . S
C2007 H1994 0.929 . S
C2007 C1999 1.433 . S
C2007 N2009 1.384 . S
N2008 C2004 1.427 . S
N2008 C2005 1.384 . S
N2009 C2001 1.427 . S
N2009 C2007 1.384 . S
H2010 C2016 0.930 . S
H2011 C2020 0.930 . S
H2012 C2025 0.929 . S
H2013 C2023 0.929 . S
H2014 C2018 0.929 . S
H2015 C2024 0.929 . S
C2016 H2010 0.930 . S
C2016 C2017 1.367 . S
C2016 C2024 1.378 . S
C2017 C2016 1.367 . S
C2017 C2025 1.433 . S
C2018 H2014 0.929 . S
C2018 C2020 1.378 . S
C2018 C2022 1.350 . S
C2019 C2022 1.463 . S
C2019 C2024 1.350 . S
C2019 N2027 1.427 . S
C2020 H2011 0.930 . S
C2020 C2018 1.378 . S
C2020 C2021 1.367 . S
C2021 C2020 1.367 . S
C2021 C2023 1.433 . S
C2022 C2018 1.350 . S
C2022 C2019 1.463 . S
C2022 N2026 1.427 . S
C2023 H2013 0.929 . S
C2023 C2021 1.433 . S
C2023 N2026 1.384 . S
C2024 H2015 0.929 . S
C2024 C2016 1.378 . S
C2024 C2019 1.350 . S
C2025 H2012 0.929 . S
C2025 C2017 1.433 . S
C2025 N2027 1.384 . S
N2026 C2022 1.427 . S
N2026 C2023 1.384 . S
N2027 C2019 1.427 . S
N2027 C2025 1.384 . S
H2028 C2034 0.930 . S
H2029 C2038 0.930 . S
H2030 C2043 0.929 . S
H2031 C2041 0.929 . S
H2032 C2036 0.929 . S
H2033 C2042 0.929 . S
C2034 H2028 0.930 . S
C2034 C2035 1.367 . S
C2034 C2042 1.378 . S
C2035 C2034 1.367 . S
C2035 C2043 1.433 . S
C2036 H2032 0.929 . S
C2036 C2038 1.378 . S
C2036 C2040 1.350 . S
C2037 C2040 1.463 . S
C2037 C2042 1.350 . S
C2037 N2045 1.427 . S
C2038 H2029 0.930 . S
C2038 C2036 1.378 . S
C2038 C2039 1.367 . S
C2039 C2038 1.367 . S
C2039 C2041 1.433 . S
C2040 C2036 1.350 . S
C2040 C2037 1.463 . S
C2040 N2044 1.427 . S
C2041 H2031 0.929 . S
C2041 C2039 1.433 . S
C2041 N2044 1.384 . S
C2042 H2033 0.929 . S
C2042 C2034 1.378 . S
C2042 C2037 1.350 . S
C2043 H2030 0.929 . S
C2043 C2035 1.433 . S
C2043 N2045 1.384 . S
N2044 C2040 1.427 . S
N2044 C2041 1.384 . S
N2045 C2037 1.427 . S
N2045 C2043 1.384 . S
H2046 C2052 0.930 . S
H2047 C2056 0.930 . S
H2048 C2061 0.929 . S
H2049 C2059 0.929 . S
H2050 C2054 0.929 . S
H2051 C2060 0.929 . S
C2052 H2046 0.930 . S
C2052 C2053 1.367 . S
C2052 C2060 1.378 . S
C2053 C2052 1.367 . S
C2053 C2061 1.433 . S
C2054 H2050 0.929 . S
C2054 C2056 1.378 . S
C2054 C2058 1.350 . S
C2055 C2058 1.463 . S
C2055 C2060 1.350 . S
C2055 N2063 1.427 . S
C2056 H2047 0.930 . S
C2056 C2054 1.378 . S
C2056 C2057 1.367 . S
C2057 C2056 1.367 . S
C2057 C2059 1.433 . S
C2058 C2054 1.350 . S
C2058 C2055 1.463 . S
C2058 N2062 1.427 . S
C2059 H2049 0.929 . S
C2059 C2057 1.433 . S
C2059 N2062 1.384 . S
C2060 H2051 0.929 . S
C2060 C2052 1.378 . S
C2060 C2055 1.350 . S
C2061 H2048 0.929 . S
C2061 C2053 1.433 . S
C2061 N2063 1.384 . S
N2062 C2058 1.427 . S
N2062 C2059 1.384 . S
N2063 C2055 1.427 . S
N2063 C2061 1.384 . S
H2064 C2070 0.930 . S
H2065 C2074 0.930 . S
H2066 C2079 0.929 . S
H2067 C2077 0.929 . S
H2068 C2072 0.929 . S
H2069 C2078 0.929 . S
C2070 H2064 0.930 . S
C2070 C2071 1.367 . S
C2070 C2078 1.378 . S
C2071 C2070 1.367 . S
C2071 C2079 1.433 . S
C2072 H2068 0.929 . S
C2072 C2074 1.378 . S
C2072 C2076 1.350 . S
C2073 C2076 1.463 . S
C2073 C2078 1.350 . S
C2073 N2081 1.427 . S
C2074 H2065 0.930 . S
C2074 C2072 1.378 . S
C2074 C2075 1.367 . S
C2075 C2074 1.367 . S
C2075 C2077 1.433 . S
C2076 C2072 1.350 . S
C2076 C2073 1.463 . S
C2076 N2080 1.427 . S
C2077 H2067 0.929 . S
C2077 C2075 1.433 . S
C2077 N2080 1.384 . S
C2078 H2069 0.929 . S
C2078 C2070 1.378 . S
C2078 C2073 1.350 . S
C2079 H2066 0.929 . S
C2079 C2071 1.433 . S
C2079 N2081 1.384 . S
N2080 C2076 1.427 . S
N2080 C2077 1.384 . S
N2081 C2073 1.427 . S
N2081 C2079 1.384 . S
H2082 C2088 0.930 . S
H2083 C2092 0.930 . S
H2084 C2097 0.929 . S
H2085 C2095 0.929 . S
H2086 C2090 0.929 . S
H2087 C2096 0.929 . S
C2088 H2082 0.930 . S
C2088 C2089 1.367 . S
C2088 C2096 1.378 . S
C2089 C2088 1.367 . S
C2089 C2097 1.433 . S
C2090 H2086 0.929 . S
C2090 C2092 1.378 . S
C2090 C2094 1.350 . S
C2091 C2094 1.463 . S
C2091 C2096 1.350 . S
C2091 N2099 1.427 . S
C2092 H2083 0.930 . S
C2092 C2090 1.378 . S
C2092 C2093 1.367 . S
C2093 C2092 1.367 . S
C2093 C2095 1.433 . S
C2094 C2090 1.350 . S
C2094 C2091 1.463 . S
C2094 N2098 1.427 . S
C2095 H2085 0.929 . S
C2095 C2093 1.433 . S
C2095 N2098 1.384 . S
C2096 H2087 0.929 . S
C2096 C2088 1.378 . S
C2096 C2091 1.350 . S
C2097 H2084 0.929 . S
C2097 C2089 1.433 . S
C2097 N2099 1.384 . S
N2098 C2094 1.427 . S
N2098 C2095 1.384 . S
N2099 C2091 1.427 . S
N2099 C2097 1.384 . S
H2100 C2106 0.930 . S
H2101 C2110 0.930 . S
H2102 C2115 0.929 . S
H2103 C2113 0.929 . S
H2104 C2108 0.929 . S
H2105 C2114 0.929 . S
C2106 H2100 0.930 . S
C2106 C2107 1.367 . S
C2106 C2114 1.378 . S
C2107 C2106 1.367 . S
C2107 C2115 1.433 . S
C2108 H2104 0.929 . S
C2108 C2110 1.378 . S
C2108 C2112 1.350 . S
C2109 C2112 1.463 . S
C2109 C2114 1.350 . S
C2109 N2117 1.427 . S
C2110 H2101 0.930 . S
C2110 C2108 1.378 . S
C2110 C2111 1.367 . S
C2111 C2110 1.367 . S
C2111 C2113 1.433 . S
C2112 C2108 1.350 . S
C2112 C2109 1.463 . S
C2112 N2116 1.427 . S
C2113 H2103 0.929 . S
C2113 C2111 1.433 . S
C2113 N2116 1.384 . S
C2114 H2105 0.929 . S
C2114 C2106 1.378 . S
C2114 C2109 1.350 . S
C2115 H2102 0.929 . S
C2115 C2107 1.433 . S
C2115 N2117 1.384 . S
N2116 C2112 1.427 . S
N2116 C2113 1.384 . S
N2117 C2109 1.427 . S
N2117 C2115 1.384 . S
H2118 C2124 0.930 . S
H2119 C2128 0.930 . S
H2120 C2133 0.929 . S
H2121 C2131 0.929 . S
H2122 C2126 0.929 . S
H2123 C2132 0.929 . S
C2124 H2118 0.930 . S
C2124 C2125 1.367 . S
C2124 C2132 1.378 . S
C2125 C2124 1.367 . S
C2125 C2133 1.433 . S
C2126 H2122 0.929 . S
C2126 C2128 1.378 . S
C2126 C2130 1.350 . S
C2127 C2130 1.463 . S
C2127 C2132 1.350 . S
C2127 N2135 1.427 . S
C2128 H2119 0.930 . S
C2128 C2126 1.378 . S
C2128 C2129 1.367 . S
C2129 C2128 1.367 . S
C2129 C2131 1.433 . S
C2130 C2126 1.350 . S
C2130 C2127 1.463 . S
C2130 N2134 1.427 . S
C2131 H2121 0.929 . S
C2131 C2129 1.433 . S
C2131 N2134 1.384 . S
C2132 H2123 0.929 . S
C2132 C2124 1.378 . S
C2132 C2127 1.350 . S
C2133 H2120 0.929 . S
C2133 C2125 1.433 . S
C2133 N2135 1.384 . S
N2134 C2130 1.427 . S
N2134 C2131 1.384 . S
N2135 C2127 1.427 . S
N2135 C2133 1.384 . S
H2136 C2142 0.930 . S
H2137 C2146 0.930 . S
H2138 C2151 0.929 . S
H2139 C2149 0.929 . S
H2140 C2144 0.929 . S
H2141 C2150 0.929 . S
C2142 H2136 0.930 . S
C2142 C2143 1.367 . S
C2142 C2150 1.378 . S
C2143 C2142 1.367 . S
C2143 C2151 1.433 . S
C2144 H2140 0.929 . S
C2144 C2146 1.378 . S
C2144 C2148 1.350 . S
C2145 C2148 1.463 . S
C2145 C2150 1.350 . S
C2145 N2153 1.427 . S
C2146 H2137 0.930 . S
C2146 C2144 1.378 . S
C2146 C2147 1.367 . S
C2147 C2146 1.367 . S
C2147 C2149 1.433 . S
C2148 C2144 1.350 . S
C2148 C2145 1.463 . S
C2148 N2152 1.427 . S
C2149 H2139 0.929 . S
C2149 C2147 1.433 . S
C2149 N2152 1.384 . S
C2150 H2141 0.929 . S
C2150 C2142 1.378 . S
C2150 C2145 1.350 . S
C2151 H2138 0.929 . S
C2151 C2143 1.433 . S
C2151 N2153 1.384 . S
N2152 C2148 1.427 . S
N2152 C2149 1.384 . S
N2153 C2145 1.427 . S
N2153 C2151 1.384 . S
H2154 C2160 0.930 . S
H2155 C2164 0.930 . S
H2156 C2169 0.929 . S
H2157 C2167 0.929 . S
H2158 C2162 0.929 . S
H2159 C2168 0.929 . S
C2160 H2154 0.930 . S
C2160 C2161 1.367 . S
C2160 C2168 1.378 . S
C2161 C2160 1.367 . S
C2161 C2169 1.433 . S
C2162 H2158 0.929 . S
C2162 C2164 1.378 . S
C2162 C2166 1.350 . S
C2163 C2166 1.463 . S
C2163 C2168 1.350 . S
C2163 N2171 1.427 . S
C2164 H2155 0.930 . S
C2164 C2162 1.378 . S
C2164 C2165 1.367 . S
C2165 C2164 1.367 . S
C2165 C2167 1.433 . S
C2166 C2162 1.350 . S
C2166 C2163 1.463 . S
C2166 N2170 1.427 . S
C2167 H2157 0.929 . S
C2167 C2165 1.433 . S
C2167 N2170 1.384 . S
C2168 H2159 0.929 . S
C2168 C2160 1.378 . S
C2168 C2163 1.350 . S
C2169 H2156 0.929 . S
C2169 C2161 1.433 . S
C2169 N2171 1.384 . S
N2170 C2166 1.427 . S
N2170 C2167 1.384 . S
N2171 C2163 1.427 . S
N2171 C2169 1.384 . S
H2172 C2178 0.930 . S
H2173 C2182 0.930 . S
H2174 C2187 0.929 . S
H2175 C2185 0.929 . S
H2176 C2180 0.929 . S
H2177 C2186 0.929 . S
C2178 H2172 0.930 . S
C2178 C2179 1.367 . S
C2178 C2186 1.378 . S
C2179 C2178 1.367 . S
C2179 C2187 1.433 . S
C2180 H2176 0.929 . S
C2180 C2182 1.378 . S
C2180 C2184 1.350 . S
C2181 C2184 1.463 . S
C2181 C2186 1.350 . S
C2181 N2189 1.427 . S
C2182 H2173 0.930 . S
C2182 C2180 1.378 . S
C2182 C2183 1.367 . S
C2183 C2182 1.367 . S
C2183 C2185 1.433 . S
C2184 C2180 1.350 . S
C2184 C2181 1.463 . S
C2184 N2188 1.427 . S
C2185 H2175 0.929 . S
C2185 C2183 1.433 . S
C2185 N2188 1.384 . S
C2186 H2177 0.929 . S
C2186 C2178 1.378 . S
C2186 C2181 1.350 . S
C2187 H2174 0.929 . S
C2187 C2179 1.433 . S
C2187 N2189 1.384 . S
N2188 C2184 1.427 . S
N2188 C2185 1.384 . S
N2189 C2181 1.427 . S
N2189 C2187 1.384 . S
H2190 C2196 0.930 . S
H2191 C2200 0.930 . S
H2192 C2205 0.929 . S
H2193 C2203 0.929 . S
H2194 C2198 0.929 . S
H2195 C2204 0.929 . S
C2196 H2190 0.930 . S
C2196 C2197 1.367 . S
C2196 C2204 1.378 . S
C2197 C2196 1.367 . S
C2197 C2205 1.433 . S
C2198 H2194 0.929 . S
C2198 C2200 1.378 . S
C2198 C2202 1.350 . S
C2199 C2202 1.463 . S
C2199 C2204 1.350 . S
C2199 N2207 1.427 . S
C2200 H2191 0.930 . S
C2200 C2198 1.378 . S
C2200 C2201 1.367 . S
C2201 C2200 1.367 . S
C2201 C2203 1.433 . S
C2202 C2198 1.350 . S
C2202 C2199 1.463 . S
C2202 N2206 1.427 . S
C2203 H2193 0.929 . S
C2203 C2201 1.433 . S
C2203 N2206 1.384 . S
C2204 H2195 0.929 . S
C2204 C2196 1.378 . S
C2204 C2199 1.350 . S
C2205 H2192 0.929 . S
C2205 C2197 1.433 . S
C2205 N2207 1.384 . S
N2206 C2202 1.427 . S
N2206 C2203 1.384 . S
N2207 C2199 1.427 . S
N2207 C2205 1.384 . S
H2208 C2214 0.930 . S
H2209 C2218 0.921 1_455 S
H2210 C2223 0.929 . S
H2211 C2221 0.929 . S
H2212 C2216 0.929 . S
H2213 C2222 0.929 . S
C2214 H2208 0.930 . S
C2214 C2215 1.367 . S
C2214 C2222 1.378 . S
C2215 C2214 1.367 . S
C2215 C2223 1.433 . S
C2216 H2212 0.929 . S
C2216 C2218 1.378 . S
C2216 C2220 1.350 . S
C2217 C2220 1.463 . S
C2217 C2222 1.350 . S
C2217 N2225 1.427 . S
C2218 H2209 0.921 1_655 S
C2218 C2216 1.378 . S
C2218 C2219 1.367 . S
C2219 C2218 1.367 . S
C2219 C2221 1.433 . S
C2220 C2216 1.350 . S
C2220 C2217 1.463 . S
C2220 N2224 1.427 . S
C2221 H2211 0.929 . S
C2221 C2219 1.433 . S
C2221 N2224 1.384 . S
C2222 H2213 0.929 . S
C2222 C2214 1.378 . S
C2222 C2217 1.350 . S
C2223 H2210 0.929 . S
C2223 C2215 1.433 . S
C2223 N2225 1.384 . S
N2224 C2220 1.427 . S
N2224 C2221 1.384 . S
N2225 C2217 1.427 . S
N2225 C2223 1.384 . S
H2226 C2232 0.930 . S
H2227 C2236 0.930 . S
H2228 C2241 0.929 . S
H2229 C2239 0.929 . S
H2230 C2234 0.929 . S
H2231 C2240 0.929 . S
C2232 H2226 0.930 . S
C2232 C2233 1.367 . S
C2232 C2240 1.378 . S
C2233 C2232 1.367 . S
C2233 C2241 1.433 . S
C2234 H2230 0.929 . S
C2234 C2236 1.378 . S
C2234 C2238 1.350 . S
C2235 C2238 1.463 . S
C2235 C2240 1.350 . S
C2235 N2243 1.427 . S
C2236 H2227 0.930 . S
C2236 C2234 1.378 . S
C2236 C2237 1.367 . S
C2237 C2236 1.367 . S
C2237 C2239 1.433 . S
C2238 C2234 1.350 . S
C2238 C2235 1.463 . S
C2238 N2242 1.427 . S
C2239 H2229 0.929 . S
C2239 C2237 1.433 . S
C2239 N2242 1.384 . S
C2240 H2231 0.929 . S
C2240 C2232 1.378 . S
C2240 C2235 1.350 . S
C2241 H2228 0.929 . S
C2241 C2233 1.433 . S
C2241 N2243 1.384 . S
N2242 C2238 1.427 . S
N2242 C2239 1.384 . S
N2243 C2235 1.427 . S
N2243 C2241 1.384 . S
H2244 C2250 0.930 . S
H2245 C2254 0.930 . S
H2246 C2259 0.929 . S
H2247 C2257 0.929 . S
H2248 C2252 0.929 . S
H2249 C2258 0.929 . S
C2250 H2244 0.930 . S
C2250 C2251 1.367 . S
C2250 C2258 1.378 . S
C2251 C2250 1.367 . S
C2251 C2259 1.433 . S
C2252 H2248 0.929 . S
C2252 C2254 1.378 . S
C2252 C2256 1.350 . S
C2253 C2256 1.463 . S
C2253 C2258 1.350 . S
C2253 N2261 1.427 . S
C2254 H2245 0.930 . S
C2254 C2252 1.378 . S
C2254 C2255 1.367 . S
C2255 C2254 1.367 . S
C2255 C2257 1.433 . S
C2256 C2252 1.350 . S
C2256 C2253 1.463 . S
C2256 N2260 1.427 . S
C2257 H2247 0.929 . S
C2257 C2255 1.433 . S
C2257 N2260 1.384 . S
C2258 H2249 0.929 . S
C2258 C2250 1.378 . S
C2258 C2253 1.350 . S
C2259 H2246 0.929 . S
C2259 C2251 1.433 . S
C2259 N2261 1.384 . S
N2260 C2256 1.427 . S
N2260 C2257 1.384 . S
N2261 C2253 1.427 . S
N2261 C2259 1.384 . S
H2262 C2268 0.930 . S
H2263 C2272 0.930 . S
H2264 C2277 0.929 . S
H2265 C2275 0.929 . S
H2266 C2270 0.929 . S
H2267 C2276 0.929 . S
C2268 H2262 0.930 . S
C2268 C2269 1.367 . S
C2268 C2276 1.378 . S
C2269 C2268 1.367 . S
C2269 C2277 1.433 . S
C2270 H2266 0.929 . S
C2270 C2272 1.378 . S
C2270 C2274 1.350 . S
C2271 C2274 1.463 . S
C2271 C2276 1.350 . S
C2271 N2279 1.427 . S
C2272 H2263 0.930 . S
C2272 C2270 1.378 . S
C2272 C2273 1.367 . S
C2273 C2272 1.367 . S
C2273 C2275 1.433 . S
C2274 C2270 1.350 . S
C2274 C2271 1.463 . S
C2274 N2278 1.427 . S
C2275 H2265 0.929 . S
C2275 C2273 1.433 . S
C2275 N2278 1.384 . S
C2276 H2267 0.929 . S
C2276 C2268 1.378 . S
C2276 C2271 1.350 . S
C2277 H2264 0.929 . S
C2277 C2269 1.433 . S
C2277 N2279 1.384 . S
N2278 C2274 1.427 . S
N2278 C2275 1.384 . S
N2279 C2271 1.427 . S
N2279 C2277 1.384 . S
H2280 C2286 0.930 . S
H2281 C2290 0.930 . S
H2282 C2295 0.929 . S
H2283 C2293 0.929 . S
H2284 C2288 0.929 . S
H2285 C2294 0.929 . S
C2286 H2280 0.930 . S
C2286 C2287 1.367 . S
C2286 C2294 1.378 . S
C2287 C2286 1.367 . S
C2287 C2295 1.433 . S
C2288 H2284 0.929 . S
C2288 C2290 1.378 . S
C2288 C2292 1.350 . S
C2289 C2292 1.463 . S
C2289 C2294 1.350 . S
C2289 N2297 1.427 . S
C2290 H2281 0.930 . S
C2290 C2288 1.378 . S
C2290 C2291 1.367 . S
C2291 C2290 1.367 . S
C2291 C2293 1.433 . S
C2292 C2288 1.350 . S
C2292 C2289 1.463 . S
C2292 N2296 1.427 . S
C2293 H2283 0.929 . S
C2293 C2291 1.433 . S
C2293 N2296 1.384 . S
C2294 H2285 0.929 . S
C2294 C2286 1.378 . S
C2294 C2289 1.350 . S
C2295 H2282 0.929 . S
C2295 C2287 1.433 . S
C2295 N2297 1.384 . S
N2296 C2292 1.427 . S
N2296 C2293 1.384 . S
N2297 C2289 1.427 . S
N2297 C2295 1.384 . S
H2298 C2304 0.930 . S
H2299 C2308 0.930 . S
H2300 C2313 0.929 . S
H2301 C2311 0.929 . S
H2302 C2306 0.929 . S
H2303 C2312 0.929 . S
C2304 H2298 0.930 . S
C2304 C2305 1.367 . S
C2304 C2312 1.378 . S
C2305 C2304 1.367 . S
C2305 C2313 1.433 . S
C2306 H2302 0.929 . S
C2306 C2308 1.378 . S
C2306 C2310 1.350 . S
C2307 C2310 1.463 . S
C2307 C2312 1.350 . S
C2307 N2315 1.427 . S
C2308 H2299 0.930 . S
C2308 C2306 1.378 . S
C2308 C2309 1.367 . S
C2309 C2308 1.367 . S
C2309 C2311 1.433 . S
C2310 C2306 1.350 . S
C2310 C2307 1.463 . S
C2310 N2314 1.427 . S
C2311 H2301 0.929 . S
C2311 C2309 1.433 . S
C2311 N2314 1.384 . S
C2312 H2303 0.929 . S
C2312 C2304 1.378 . S
C2312 C2307 1.350 . S
C2313 H2300 0.929 . S
C2313 C2305 1.433 . S
C2313 N2315 1.384 . S
N2314 C2310 1.427 . S
N2314 C2311 1.384 . S
N2315 C2307 1.427 . S
N2315 C2313 1.384 . S
H2316 C2322 0.930 . S
H2317 C2326 0.930 . S
H2318 C2331 0.929 . S
H2319 C2329 0.929 . S
H2320 C2324 0.929 . S
H2321 C2330 0.929 . S
C2322 H2316 0.930 . S
C2322 C2323 1.367 . S
C2322 C2330 1.378 . S
C2323 C2322 1.367 . S
C2323 C2331 1.433 . S
C2324 H2320 0.929 . S
C2324 C2326 1.378 . S
C2324 C2328 1.350 . S
C2325 C2328 1.463 . S
C2325 C2330 1.350 . S
C2325 N2333 1.427 . S
C2326 H2317 0.930 . S
C2326 C2324 1.378 . S
C2326 C2327 1.367 . S
C2327 C2326 1.367 . S
C2327 C2329 1.433 . S
C2328 C2324 1.350 . S
C2328 C2325 1.463 . S
C2328 N2332 1.427 . S
C2329 H2319 0.929 . S
C2329 C2327 1.433 . S
C2329 N2332 1.384 . S
C2330 H2321 0.929 . S
C2330 C2322 1.378 . S
C2330 C2325 1.350 . S
C2331 H2318 0.929 . S
C2331 C2323 1.433 . S
C2331 N2333 1.384 . S
N2332 C2328 1.427 . S
N2332 C2329 1.384 . S
N2333 C2325 1.427 . S
N2333 C2331 1.384 . S
H2334 C2340 0.930 . S
H2335 C2344 0.930 . S
H2336 C2349 0.929 . S
H2337 C2347 0.929 . S
H2338 C2342 0.929 . S
H2339 C2348 0.929 . S
C2340 H2334 0.930 . S
C2340 C2341 1.367 . S
C2340 C2348 1.378 . S
C2341 C2340 1.367 . S
C2341 C2349 1.433 . S
C2342 H2338 0.929 . S
C2342 C2344 1.378 . S
C2342 C2346 1.350 . S
C2343 C2346 1.463 . S
C2343 C2348 1.350 . S
C2343 N2351 1.427 . S
C2344 H2335 0.930 . S
C2344 C2342 1.378 . S
C2344 C2345 1.367 . S
C2345 C2344 1.367 . S
C2345 C2347 1.433 . S
C2346 C2342 1.350 . S
C2346 C2343 1.463 . S
C2346 N2350 1.427 . S
C2347 H2337 0.929 . S
C2347 C2345 1.433 . S
C2347 N2350 1.384 . S
C2348 H2339 0.929 . S
C2348 C2340 1.378 . S
C2348 C2343 1.350 . S
C2349 H2336 0.929 . S
C2349 C2341 1.433 . S
C2349 N2351 1.384 . S
N2350 C2346 1.427 . S
N2350 C2347 1.384 . S
N2351 C2343 1.427 . S
N2351 C2349 1.384 . S
H2352 C2358 0.930 . S
H2353 C2362 0.930 . S
H2354 C2367 0.929 . S
H2355 C2365 0.929 1_545 S
H2356 C2360 0.929 . S
H2357 C2366 0.929 . S
C2358 H2352 0.930 . S
C2358 C2359 1.367 . S
C2358 C2366 1.378 . S
C2359 C2358 1.367 . S
C2359 C2367 1.433 . S
C2360 H2356 0.929 . S
C2360 C2362 1.378 . S
C2360 C2364 1.350 . S
C2361 C2364 1.463 . S
C2361 C2366 1.350 . S
C2361 N2369 1.427 . S
C2362 H2353 0.930 . S
C2362 C2360 1.378 . S
C2362 C2363 1.367 . S
C2363 C2362 1.367 . S
C2363 C2365 1.433 . S
C2364 C2360 1.350 . S
C2364 C2361 1.463 . S
C2364 N2368 1.427 . S
C2365 H2355 0.929 1_565 S
C2365 C2363 1.433 . S
C2365 N2368 1.384 . S
C2366 H2357 0.929 . S
C2366 C2358 1.378 . S
C2366 C2361 1.350 . S
C2367 H2354 0.929 . S
C2367 C2359 1.433 . S
C2367 N2369 1.384 . S
N2368 C2364 1.427 . S
N2368 C2365 1.384 . S
N2369 C2361 1.427 . S
N2369 C2367 1.384 . S
H2370 C2376 0.930 . S
H2371 C2380 0.930 . S
H2372 C2385 0.929 . S
H2373 C2383 0.929 . S
H2374 C2378 0.929 . S
H2375 C2384 0.929 . S
C2376 H2370 0.930 . S
C2376 C2377 1.367 . S
C2376 C2384 1.378 . S
C2377 C2376 1.367 . S
C2377 C2385 1.433 . S
C2378 H2374 0.929 . S
C2378 C2380 1.378 . S
C2378 C2382 1.350 . S
C2379 C2382 1.463 . S
C2379 C2384 1.350 . S
C2379 N2387 1.427 . S
C2380 H2371 0.930 . S
C2380 C2378 1.378 . S
C2380 C2381 1.367 . S
C2381 C2380 1.367 . S
C2381 C2383 1.433 . S
C2382 C2378 1.350 . S
C2382 C2379 1.463 . S
C2382 N2386 1.427 . S
C2383 H2373 0.929 . S
C2383 C2381 1.433 . S
C2383 N2386 1.384 . S
C2384 H2375 0.929 . S
C2384 C2376 1.378 . S
C2384 C2379 1.350 . S
C2385 H2372 0.929 . S
C2385 C2377 1.433 . S
C2385 N2387 1.384 . S
N2386 C2382 1.427 . S
N2386 C2383 1.384 . S
N2387 C2379 1.427 . S
N2387 C2385 1.384 . S
H2388 C2394 0.930 . S
H2389 C2398 0.930 . S
H2390 C2403 0.929 . S
H2391 C2401 0.929 . S
H2392 C2396 0.929 . S
H2393 C2402 0.929 . S
C2394 H2388 0.930 . S
C2394 C2395 1.367 . S
C2394 C2402 1.378 . S
C2395 C2394 1.367 . S
C2395 C2403 1.433 . S
C2396 H2392 0.929 . S
C2396 C2398 1.378 . S
C2396 C2400 1.350 . S
C2397 C2400 1.463 . S
C2397 C2402 1.350 . S
C2397 N2405 1.427 . S
C2398 H2389 0.930 . S
C2398 C2396 1.378 . S
C2398 C2399 1.367 . S
C2399 C2398 1.367 . S
C2399 C2401 1.433 . S
C2400 C2396 1.350 . S
C2400 C2397 1.463 . S
C2400 N2404 1.427 . S
C2401 H2391 0.929 . S
C2401 C2399 1.433 . S
C2401 N2404 1.384 . S
C2402 H2393 0.929 . S
C2402 C2394 1.378 . S
C2402 C2397 1.350 . S
C2403 H2390 0.929 . S
C2403 C2395 1.433 . S
C2403 N2405 1.384 . S
N2404 C2400 1.427 . S
N2404 C2401 1.384 . S
N2405 C2397 1.427 . S
N2405 C2403 1.384 . S
H2406 C2412 0.930 . S
H2407 C2416 0.930 . S
H2408 C2421 0.929 . S
H2409 C2419 0.929 . S
H2410 C2414 0.929 . S
H2411 C2420 0.929 . S
C2412 H2406 0.930 . S
C2412 C2413 1.367 . S
C2412 C2420 1.378 . S
C2413 C2412 1.367 . S
C2413 C2421 1.433 . S
C2414 H2410 0.929 . S
C2414 C2416 1.378 . S
C2414 C2418 1.350 . S
C2415 C2418 1.463 . S
C2415 C2420 1.350 . S
C2415 N2423 1.427 . S
C2416 H2407 0.930 . S
C2416 C2414 1.378 . S
C2416 C2417 1.367 . S
C2417 C2416 1.367 . S
C2417 C2419 1.433 . S
C2418 C2414 1.350 . S
C2418 C2415 1.463 . S
C2418 N2422 1.427 . S
C2419 H2409 0.929 . S
C2419 C2417 1.433 . S
C2419 N2422 1.384 . S
C2420 H2411 0.929 . S
C2420 C2412 1.378 . S
C2420 C2415 1.350 . S
C2421 H2408 0.929 . S
C2421 C2413 1.433 . S
C2421 N2423 1.384 . S
N2422 C2418 1.427 . S
N2422 C2419 1.384 . S
N2423 C2415 1.427 . S
N2423 C2421 1.384 . S
H2424 C2430 0.930 . S
H2425 C2434 0.930 . S
H2426 C2439 0.929 . S
H2427 C2437 0.929 . S
H2428 C2432 0.929 . S
H2429 C2438 0.929 . S
C2430 H2424 0.930 . S
C2430 C2431 1.367 . S
C2430 C2438 1.378 . S
C2431 C2430 1.367 . S
C2431 C2439 1.433 . S
C2432 H2428 0.929 . S
C2432 C2434 1.378 . S
C2432 C2436 1.350 . S
C2433 C2436 1.463 . S
C2433 C2438 1.350 . S
C2433 N2441 1.427 . S
C2434 H2425 0.930 . S
C2434 C2432 1.378 . S
C2434 C2435 1.367 . S
C2435 C2434 1.367 . S
C2435 C2437 1.433 . S
C2436 C2432 1.350 . S
C2436 C2433 1.463 . S
C2436 N2440 1.427 . S
C2437 H2427 0.929 . S
C2437 C2435 1.433 . S
C2437 N2440 1.384 . S
C2438 H2429 0.929 . S
C2438 C2430 1.378 . S
C2438 C2433 1.350 . S
C2439 H2426 0.929 . S
C2439 C2431 1.433 . S
C2439 N2441 1.384 . S
N2440 C2436 1.427 . S
N2440 C2437 1.384 . S
N2441 C2433 1.427 . S
N2441 C2439 1.384 . S
H2442 C2448 0.930 . S
H2443 C2452 0.930 . S
H2444 C2457 0.929 . S
H2445 C2455 0.900 1_565 S
H2446 C2450 0.929 . S
H2447 C2456 0.929 . S
C2448 H2442 0.930 . S
C2448 C2449 1.367 . S
C2448 C2456 1.378 . S
C2449 C2448 1.367 . S
C2449 C2457 1.433 . S
C2450 H2446 0.929 . S
C2450 C2452 1.378 . S
C2450 C2454 1.350 . S
C2451 C2454 1.463 . S
C2451 C2456 1.350 . S
C2451 N2459 1.427 . S
C2452 H2443 0.930 . S
C2452 C2450 1.378 . S
C2452 C2453 1.367 . S
C2453 C2452 1.367 . S
C2453 C2455 1.433 . S
C2454 C2450 1.350 . S
C2454 C2451 1.463 . S
C2454 N2458 1.427 . S
C2455 H2445 0.900 1_545 S
C2455 C2453 1.433 . S
C2455 N2458 1.384 . S
C2456 H2447 0.929 . S
C2456 C2448 1.378 . S
C2456 C2451 1.350 . S
C2457 H2444 0.929 . S
C2457 C2449 1.433 . S
C2457 N2459 1.384 . S
N2458 C2454 1.427 . S
N2458 C2455 1.384 . S
N2459 C2451 1.427 . S
N2459 C2457 1.384 . S
H2460 C2466 0.930 . S
H2461 C2470 0.930 . S
H2462 C2475 0.929 . S
H2463 C2473 0.929 . S
H2464 C2468 0.929 . S
H2465 C2474 0.929 . S
C2466 H2460 0.930 . S
C2466 C2467 1.367 . S
C2466 C2474 1.378 . S
C2467 C2466 1.367 . S
C2467 C2475 1.433 . S
C2468 H2464 0.929 . S
C2468 C2470 1.378 . S
C2468 C2472 1.350 . S
C2469 C2472 1.463 . S
C2469 C2474 1.350 . S
C2469 N2477 1.427 . S
C2470 H2461 0.930 . S
C2470 C2468 1.378 . S
C2470 C2471 1.367 . S
C2471 C2470 1.367 . S
C2471 C2473 1.433 . S
C2472 C2468 1.350 . S
C2472 C2469 1.463 . S
C2472 N2476 1.427 . S
C2473 H2463 0.929 . S
C2473 C2471 1.433 . S
C2473 N2476 1.384 . S
C2474 H2465 0.929 . S
C2474 C2466 1.378 . S
C2474 C2469 1.350 . S
C2475 H2462 0.929 . S
C2475 C2467 1.433 . S
C2475 N2477 1.384 . S
N2476 C2472 1.427 . S
N2476 C2473 1.384 . S
N2477 C2469 1.427 . S
N2477 C2475 1.384 . S
H2478 C2484 0.930 . S
H2479 C2488 0.930 . S
H2480 C2493 0.929 . S
H2481 C2491 0.929 . S
H2482 C2486 0.929 . S
H2483 C2492 0.929 . S
C2484 H2478 0.930 . S
C2484 C2485 1.367 . S
C2484 C2492 1.378 . S
C2485 C2484 1.367 . S
C2485 C2493 1.433 . S
C2486 H2482 0.929 . S
C2486 C2488 1.378 . S
C2486 C2490 1.350 . S
C2487 C2490 1.463 . S
C2487 C2492 1.350 . S
C2487 N2495 1.427 . S
C2488 H2479 0.930 . S
C2488 C2486 1.378 . S
C2488 C2489 1.367 . S
C2489 C2488 1.367 . S
C2489 C2491 1.433 . S
C2490 C2486 1.350 . S
C2490 C2487 1.463 . S
C2490 N2494 1.427 . S
C2491 H2481 0.929 . S
C2491 C2489 1.433 . S
C2491 N2494 1.384 . S
C2492 H2483 0.929 . S
C2492 C2484 1.378 . S
C2492 C2487 1.350 . S
C2493 H2480 0.929 . S
C2493 C2485 1.433 . S
C2493 N2495 1.384 . S
N2494 C2490 1.427 . S
N2494 C2491 1.384 . S
N2495 C2487 1.427 . S
N2495 C2493 1.384 . S
H2496 C2502 0.930 . S
H2497 C2506 0.930 . S
H2498 C2511 0.929 . S
H2499 C2509 0.929 . S
H2500 C2504 0.929 . S
H2501 C2510 0.929 . S
C2502 H2496 0.930 . S
C2502 C2503 1.367 . S
C2502 C2510 1.378 . S
C2503 C2502 1.367 . S
C2503 C2511 1.433 . S
C2504 H2500 0.929 . S
C2504 C2506 1.378 . S
C2504 C2508 1.350 . S
C2505 C2508 1.463 . S
C2505 C2510 1.350 . S
C2505 N2513 1.427 . S
C2506 H2497 0.930 . S
C2506 C2504 1.378 . S
C2506 C2507 1.367 . S
C2507 C2506 1.367 . S
C2507 C2509 1.433 . S
C2508 C2504 1.350 . S
C2508 C2505 1.463 . S
C2508 N2512 1.427 . S
C2509 H2499 0.929 . S
C2509 C2507 1.433 . S
C2509 N2512 1.384 . S
C2510 H2501 0.929 . S
C2510 C2502 1.378 . S
C2510 C2505 1.350 . S
C2511 H2498 0.929 . S
C2511 C2503 1.433 . S
C2511 N2513 1.384 . S
N2512 C2508 1.427 . S
N2512 C2509 1.384 . S
N2513 C2505 1.427 . S
N2513 C2511 1.384 . S
H2514 C2520 0.930 . S
H2515 C2524 0.930 . S
H2516 C2529 0.929 . S
H2517 C2527 0.929 . S
H2518 C2522 0.929 . S
H2519 C2528 0.929 . S
C2520 H2514 0.930 . S
C2520 C2521 1.367 . S
C2520 C2528 1.378 . S
C2521 C2520 1.367 . S
C2521 C2529 1.433 . S
C2522 H2518 0.929 . S
C2522 C2524 1.378 . S
C2522 C2526 1.350 . S
C2523 C2526 1.463 . S
C2523 C2528 1.350 . S
C2523 N2531 1.427 . S
C2524 H2515 0.930 . S
C2524 C2522 1.378 . S
C2524 C2525 1.367 . S
C2525 C2524 1.367 . S
C2525 C2527 1.433 . S
C2526 C2522 1.350 . S
C2526 C2523 1.463 . S
C2526 N2530 1.427 . S
C2527 H2517 0.929 . S
C2527 C2525 1.433 . S
C2527 N2530 1.384 . S
C2528 H2519 0.929 . S
C2528 C2520 1.378 . S
C2528 C2523 1.350 . S
C2529 H2516 0.929 . S
C2529 C2521 1.433 . S
C2529 N2531 1.384 . S
N2530 C2526 1.427 . S
N2530 C2527 1.384 . S
N2531 C2523 1.427 . S
N2531 C2529 1.384 . S
H2532 C2538 0.930 . S
H2533 C2542 0.930 . S
H2534 C2547 0.929 . S
H2535 C2545 0.929 . S
H2536 C2540 0.929 . S
H2537 C2546 0.929 . S
C2538 H2532 0.930 . S
C2538 C2539 1.367 . S
C2538 C2546 1.378 . S
C2539 C2538 1.367 . S
C2539 C2547 1.433 . S
C2540 H2536 0.929 . S
C2540 C2542 1.378 . S
C2540 C2544 1.350 . S
C2541 C2544 1.463 . S
C2541 C2546 1.350 . S
C2541 N2549 1.427 . S
C2542 H2533 0.930 . S
C2542 C2540 1.378 . S
C2542 C2543 1.367 . S
C2543 C2542 1.367 . S
C2543 C2545 1.433 . S
C2544 C2540 1.350 . S
C2544 C2541 1.463 . S
C2544 N2548 1.427 . S
C2545 H2535 0.929 . S
C2545 C2543 1.433 . S
C2545 N2548 1.384 . S
C2546 H2537 0.929 . S
C2546 C2538 1.378 . S
C2546 C2541 1.350 . S
C2547 H2534 0.929 . S
C2547 C2539 1.433 . S
C2547 N2549 1.384 . S
N2548 C2544 1.427 . S
N2548 C2545 1.384 . S
N2549 C2541 1.427 . S
N2549 C2547 1.384 . S
H2550 C2556 0.930 . S
H2551 C2560 0.930 . S
H2552 C2565 0.929 . S
H2553 C2563 0.929 . S
H2554 C2558 0.929 . S
H2555 C2564 0.929 . S
C2556 H2550 0.930 . S
C2556 C2557 1.367 . S
C2556 C2564 1.378 . S
C2557 C2556 1.367 . S
C2557 C2565 1.433 . S
C2558 H2554 0.929 . S
C2558 C2560 1.378 . S
C2558 C2562 1.350 . S
C2559 C2562 1.463 . S
C2559 C2564 1.350 . S
C2559 N2567 1.427 . S
C2560 H2551 0.930 . S
C2560 C2558 1.378 . S
C2560 C2561 1.367 . S
C2561 C2560 1.367 . S
C2561 C2563 1.433 . S
C2562 C2558 1.350 . S
C2562 C2559 1.463 . S
C2562 N2566 1.427 . S
C2563 H2553 0.929 . S
C2563 C2561 1.433 . S
C2563 N2566 1.384 . S
C2564 H2555 0.929 . S
C2564 C2556 1.378 . S
C2564 C2559 1.350 . S
C2565 H2552 0.929 . S
C2565 C2557 1.433 . S
C2565 N2567 1.384 . S
N2566 C2562 1.427 . S
N2566 C2563 1.384 . S
N2567 C2559 1.427 . S
N2567 C2565 1.384 . S
H2568 C2574 0.930 . S
H2569 C2578 0.930 . S
H2570 C2583 0.929 . S
H2571 C2581 0.929 . S
H2572 C2576 0.929 . S
H2573 C2582 0.929 . S
C2574 H2568 0.930 . S
C2574 C2575 1.367 . S
C2574 C2582 1.378 . S
C2575 C2574 1.367 . S
C2575 C2583 1.433 . S
C2576 H2572 0.929 . S
C2576 C2578 1.378 . S
C2576 C2580 1.350 . S
C2577 C2580 1.463 . S
C2577 C2582 1.350 . S
C2577 N2585 1.427 . S
C2578 H2569 0.930 . S
C2578 C2576 1.378 . S
C2578 C2579 1.367 . S
C2579 C2578 1.367 . S
C2579 C2581 1.433 . S
C2580 C2576 1.350 . S
C2580 C2577 1.463 . S
C2580 N2584 1.427 . S
C2581 H2571 0.929 . S
C2581 C2579 1.433 . S
C2581 N2584 1.384 . S
C2582 H2573 0.929 . S
C2582 C2574 1.378 . S
C2582 C2577 1.350 . S
C2583 H2570 0.929 . S
C2583 C2575 1.433 . S
C2583 N2585 1.384 . S
N2584 C2580 1.427 . S
N2584 C2581 1.384 . S
N2585 C2577 1.427 . S
N2585 C2583 1.384 . S
H2586 C2592 0.930 . S
H2587 C2596 0.930 . S
H2588 C2601 0.929 . S
H2589 C2599 0.929 . S
H2590 C2594 0.929 . S
H2591 C2600 0.929 . S
C2592 H2586 0.930 . S
C2592 C2593 1.367 . S
C2592 C2600 1.378 . S
C2593 C2592 1.367 . S
C2593 C2601 1.433 . S
C2594 H2590 0.929 . S
C2594 C2596 1.378 . S
C2594 C2598 1.350 . S
C2595 C2598 1.463 . S
C2595 C2600 1.350 . S
C2595 N2603 1.427 . S
C2596 H2587 0.930 . S
C2596 C2594 1.378 . S
C2596 C2597 1.367 . S
C2597 C2596 1.367 . S
C2597 C2599 1.433 . S
C2598 C2594 1.350 . S
C2598 C2595 1.463 . S
C2598 N2602 1.427 . S
C2599 H2589 0.929 . S
C2599 C2597 1.433 . S
C2599 N2602 1.384 . S
C2600 H2591 0.929 . S
C2600 C2592 1.378 . S
C2600 C2595 1.350 . S
C2601 H2588 0.929 . S
C2601 C2593 1.433 . S
C2601 N2603 1.384 . S
N2602 C2598 1.427 . S
N2602 C2599 1.384 . S
N2603 C2595 1.427 . S
N2603 C2601 1.384 . S
H2604 C2610 0.930 . S
H2605 C2614 0.930 . S
H2606 C2619 0.929 . S
H2607 C2617 0.929 . S
H2608 C2612 0.929 . S
H2609 C2618 0.929 . S
C2610 H2604 0.930 . S
C2610 C2611 1.367 . S
C2610 C2618 1.378 . S
C2611 C2610 1.367 . S
C2611 C2619 1.433 . S
C2612 H2608 0.929 . S
C2612 C2614 1.378 . S
C2612 C2616 1.350 . S
C2613 C2616 1.463 . S
C2613 C2618 1.350 . S
C2613 N2621 1.427 . S
C2614 H2605 0.930 . S
C2614 C2612 1.378 . S
C2614 C2615 1.367 . S
C2615 C2614 1.367 . S
C2615 C2617 1.433 . S
C2616 C2612 1.350 . S
C2616 C2613 1.463 . S
C2616 N2620 1.427 . S
C2617 H2607 0.929 . S
C2617 C2615 1.433 . S
C2617 N2620 1.384 . S
C2618 H2609 0.929 . S
C2618 C2610 1.378 . S
C2618 C2613 1.350 . S
C2619 H2606 0.929 . S
C2619 C2611 1.433 . S
C2619 N2621 1.384 . S
N2620 C2616 1.427 . S
N2620 C2617 1.384 . S
N2621 C2613 1.427 . S
N2621 C2619 1.384 . S
H2622 C2628 0.930 . S
H2623 C2632 0.930 . S
H2624 C2637 0.929 . S
H2625 C2635 0.929 . S
H2626 C2630 0.929 . S
H2627 C2636 0.929 . S
C2628 H2622 0.930 . S
C2628 C2629 1.367 . S
C2628 C2636 1.378 . S
C2629 C2628 1.367 . S
C2629 C2637 1.433 . S
C2630 H2626 0.929 . S
C2630 C2632 1.378 . S
C2630 C2634 1.350 . S
C2631 C2634 1.463 . S
C2631 C2636 1.350 . S
C2631 N2639 1.427 . S
C2632 H2623 0.930 . S
C2632 C2630 1.378 . S
C2632 C2633 1.367 . S
C2633 C2632 1.367 . S
C2633 C2635 1.433 . S
C2634 C2630 1.350 . S
C2634 C2631 1.463 . S
C2634 N2638 1.427 . S
C2635 H2625 0.929 . S
C2635 C2633 1.433 . S
C2635 N2638 1.384 . S
C2636 H2627 0.929 . S
C2636 C2628 1.378 . S
C2636 C2631 1.350 . S
C2637 H2624 0.929 . S
C2637 C2629 1.433 . S
C2637 N2639 1.384 . S
N2638 C2634 1.427 . S
N2638 C2635 1.384 . S
N2639 C2631 1.427 . S
N2639 C2637 1.384 . S
H2640 C2646 0.930 . S
H2641 C2650 0.930 . S
H2642 C2655 0.929 . S
H2643 C2653 0.929 . S
H2644 C2648 0.929 . S
H2645 C2654 0.929 . S
C2646 H2640 0.930 . S
C2646 C2647 1.367 . S
C2646 C2654 1.378 . S
C2647 C2646 1.367 . S
C2647 C2655 1.433 . S
C2648 H2644 0.929 . S
C2648 C2650 1.378 . S
C2648 C2652 1.350 . S
C2649 C2652 1.463 . S
C2649 C2654 1.350 . S
C2649 N2657 1.427 . S
C2650 H2641 0.930 . S
C2650 C2648 1.378 . S
C2650 C2651 1.367 . S
C2651 C2650 1.367 . S
C2651 C2653 1.433 . S
C2652 C2648 1.350 . S
C2652 C2649 1.463 . S
C2652 N2656 1.427 . S
C2653 H2643 0.929 . S
C2653 C2651 1.433 . S
C2653 N2656 1.384 . S
C2654 H2645 0.929 . S
C2654 C2646 1.378 . S
C2654 C2649 1.350 . S
C2655 H2642 0.929 . S
C2655 C2647 1.433 . S
C2655 N2657 1.384 . S
N2656 C2652 1.427 . S
N2656 C2653 1.384 . S
N2657 C2649 1.427 . S
N2657 C2655 1.384 . S
H2658 C2664 0.930 . S
H2659 C2668 0.930 . S
H2660 C2673 0.929 . S
H2661 C2671 0.929 . S
H2662 C2666 0.929 . S
H2663 C2672 0.929 . S
C2664 H2658 0.930 . S
C2664 C2665 1.367 . S
C2664 C2672 1.378 . S
C2665 C2664 1.367 . S
C2665 C2673 1.433 . S
C2666 H2662 0.929 . S
C2666 C2668 1.378 . S
C2666 C2670 1.350 . S
C2667 C2670 1.463 . S
C2667 C2672 1.350 . S
C2667 N2675 1.427 . S
C2668 H2659 0.930 . S
C2668 C2666 1.378 . S
C2668 C2669 1.367 . S
C2669 C2668 1.367 . S
C2669 C2671 1.433 . S
C2670 C2666 1.350 . S
C2670 C2667 1.463 . S
C2670 N2674 1.427 . S
C2671 H2661 0.929 . S
C2671 C2669 1.433 . S
C2671 N2674 1.384 . S
C2672 H2663 0.929 . S
C2672 C2664 1.378 . S
C2672 C2667 1.350 . S
C2673 H2660 0.929 . S
C2673 C2665 1.433 . S
C2673 N2675 1.384 . S
N2674 C2670 1.427 . S
N2674 C2671 1.384 . S
N2675 C2667 1.427 . S
N2675 C2673 1.384 . S
H2676 C2682 0.930 . S
H2677 C2686 0.930 . S
H2678 C2691 0.929 . S
H2679 C2689 0.929 . S
H2680 C2684 0.929 . S
H2681 C2690 0.929 . S
C2682 H2676 0.930 . S
C2682 C2683 1.367 . S
C2682 C2690 1.378 . S
C2683 C2682 1.367 . S
C2683 C2691 1.433 . S
C2684 H2680 0.929 . S
C2684 C2686 1.378 . S
C2684 C2688 1.350 . S
C2685 C2688 1.463 . S
C2685 C2690 1.350 . S
C2685 N2693 1.427 . S
C2686 H2677 0.930 . S
C2686 C2684 1.378 . S
C2686 C2687 1.367 . S
C2687 C2686 1.367 . S
C2687 C2689 1.433 . S
C2688 C2684 1.350 . S
C2688 C2685 1.463 . S
C2688 N2692 1.427 . S
C2689 H2679 0.929 . S
C2689 C2687 1.433 . S
C2689 N2692 1.384 . S
C2690 H2681 0.929 . S
C2690 C2682 1.378 . S
C2690 C2685 1.350 . S
C2691 H2678 0.929 . S
C2691 C2683 1.433 . S
C2691 N2693 1.384 . S
N2692 C2688 1.427 . S
N2692 C2689 1.384 . S
N2693 C2685 1.427 . S
N2693 C2691 1.384 . S
H2694 C2700 0.930 . S
H2695 C2704 0.930 . S
H2696 C2709 0.929 . S
H2697 C2707 0.929 . S
H2698 C2702 0.929 . S
H2699 C2708 0.929 . S
C2700 H2694 0.930 . S
C2700 C2701 1.367 . S
C2700 C2708 1.378 . S
C2701 C2700 1.367 . S
C2701 C2709 1.433 . S
C2702 H2698 0.929 . S
C2702 C2704 1.378 . S
C2702 C2706 1.350 . S
C2703 C2706 1.463 . S
C2703 C2708 1.350 . S
C2703 N2711 1.427 . S
C2704 H2695 0.930 . S
C2704 C2702 1.378 . S
C2704 C2705 1.367 . S
C2705 C2704 1.367 . S
C2705 C2707 1.433 . S
C2706 C2702 1.350 . S
C2706 C2703 1.463 . S
C2706 N2710 1.427 . S
C2707 H2697 0.929 . S
C2707 C2705 1.433 . S
C2707 N2710 1.384 . S
C2708 H2699 0.929 . S
C2708 C2700 1.378 . S
C2708 C2703 1.350 . S
C2709 H2696 0.929 . S
C2709 C2701 1.433 . S
C2709 N2711 1.384 . S
N2710 C2706 1.427 . S
N2710 C2707 1.384 . S
N2711 C2703 1.427 . S
N2711 C2709 1.384 . S
H2712 C2718 0.930 . S
H2713 C2722 0.930 . S
H2714 C2727 0.929 . S
H2715 C2725 0.929 . S
H2716 C2720 0.929 . S
H2717 C2726 0.929 . S
C2718 H2712 0.930 . S
C2718 C2719 1.367 . S
C2718 C2726 1.378 . S
C2719 C2718 1.367 . S
C2719 C2727 1.433 . S
C2720 H2716 0.929 . S
C2720 C2722 1.378 . S
C2720 C2724 1.350 . S
C2721 C2724 1.463 . S
C2721 C2726 1.350 . S
C2721 N2729 1.427 . S
C2722 H2713 0.930 . S
C2722 C2720 1.378 . S
C2722 C2723 1.367 . S
C2723 C2722 1.367 . S
C2723 C2725 1.433 . S
C2724 C2720 1.350 . S
C2724 C2721 1.463 . S
C2724 N2728 1.427 . S
C2725 H2715 0.929 . S
C2725 C2723 1.433 . S
C2725 N2728 1.384 . S
C2726 H2717 0.929 . S
C2726 C2718 1.378 . S
C2726 C2721 1.350 . S
C2727 H2714 0.929 . S
C2727 C2719 1.433 . S
C2727 N2729 1.384 . S
N2728 C2724 1.427 . S
N2728 C2725 1.384 . S
N2729 C2721 1.427 . S
N2729 C2727 1.384 . S
H2730 C2736 0.930 . S
H2731 C2740 0.930 . S
H2732 C2745 0.929 . S
H2733 C2743 0.929 . S
H2734 C2738 0.929 . S
H2735 C2744 0.929 . S
C2736 H2730 0.930 . S
C2736 C2737 1.367 . S
C2736 C2744 1.378 . S
C2737 C2736 1.367 . S
C2737 C2745 1.433 . S
C2738 H2734 0.929 . S
C2738 C2740 1.378 . S
C2738 C2742 1.350 . S
C2739 C2742 1.463 . S
C2739 C2744 1.350 . S
C2739 N2747 1.427 . S
C2740 H2731 0.930 . S
C2740 C2738 1.378 . S
C2740 C2741 1.367 . S
C2741 C2740 1.367 . S
C2741 C2743 1.433 . S
C2742 C2738 1.350 . S
C2742 C2739 1.463 . S
C2742 N2746 1.427 . S
C2743 H2733 0.929 . S
C2743 C2741 1.433 . S
C2743 N2746 1.384 . S
C2744 H2735 0.929 . S
C2744 C2736 1.378 . S
C2744 C2739 1.350 . S
C2745 H2732 0.929 . S
C2745 C2737 1.433 . S
C2745 N2747 1.384 . S
N2746 C2742 1.427 . S
N2746 C2743 1.384 . S
N2747 C2739 1.427 . S
N2747 C2745 1.384 . S
H2748 C2754 0.930 . S
H2749 C2758 0.930 . S
H2750 C2763 0.929 . S
H2751 C2761 0.929 . S
H2752 C2756 0.929 . S
H2753 C2762 0.929 . S
C2754 H2748 0.930 . S
C2754 C2755 1.367 . S
C2754 C2762 1.378 . S
C2755 C2754 1.367 . S
C2755 C2763 1.433 . S
C2756 H2752 0.929 . S
C2756 C2758 1.378 . S
C2756 C2760 1.350 . S
C2757 C2760 1.463 . S
C2757 C2762 1.350 . S
C2757 N2765 1.427 . S
C2758 H2749 0.930 . S
C2758 C2756 1.378 . S
C2758 C2759 1.367 . S
C2759 C2758 1.367 . S
C2759 C2761 1.433 . S
C2760 C2756 1.350 . S
C2760 C2757 1.463 . S
C2760 N2764 1.427 . S
C2761 H2751 0.929 . S
C2761 C2759 1.433 . S
C2761 N2764 1.384 . S
C2762 H2753 0.929 . S
C2762 C2754 1.378 . S
C2762 C2757 1.350 . S
C2763 H2750 0.929 . S
C2763 C2755 1.433 . S
C2763 N2765 1.384 . S
N2764 C2760 1.427 . S
N2764 C2761 1.384 . S
N2765 C2757 1.427 . S
N2765 C2763 1.384 . S
H2766 C2772 0.930 . S
H2767 C2776 0.930 . S
H2768 C2781 0.929 . S
H2769 C2779 0.929 . S
H2770 C2774 0.929 . S
H2771 C2780 0.929 . S
C2772 H2766 0.930 . S
C2772 C2773 1.367 . S
C2772 C2780 1.378 . S
C2773 C2772 1.367 . S
C2773 C2781 1.433 . S
C2774 H2770 0.929 . S
C2774 C2776 1.378 . S
C2774 C2778 1.350 . S
C2775 C2778 1.463 . S
C2775 C2780 1.350 . S
C2775 N2783 1.427 . S
C2776 H2767 0.930 . S
C2776 C2774 1.378 . S
C2776 C2777 1.367 . S
C2777 C2776 1.367 . S
C2777 C2779 1.433 . S
C2778 C2774 1.350 . S
C2778 C2775 1.463 . S
C2778 N2782 1.427 . S
C2779 H2769 0.929 . S
C2779 C2777 1.433 . S
C2779 N2782 1.384 . S
C2780 H2771 0.929 . S
C2780 C2772 1.378 . S
C2780 C2775 1.350 . S
C2781 H2768 0.929 . S
C2781 C2773 1.433 . S
C2781 N2783 1.384 . S
N2782 C2778 1.427 . S
N2782 C2779 1.384 . S
N2783 C2775 1.427 . S
N2783 C2781 1.384 . S
H2784 C2790 0.930 . S
H2785 C2794 0.930 . S
H2786 C2799 0.929 . S
H2787 C2797 0.929 . S
H2788 C2792 0.929 . S
H2789 C2798 0.929 . S
C2790 H2784 0.930 . S
C2790 C2791 1.367 . S
C2790 C2798 1.378 . S
C2791 C2790 1.367 . S
C2791 C2799 1.433 . S
C2792 H2788 0.929 . S
C2792 C2794 1.378 . S
C2792 C2796 1.350 . S
C2793 C2796 1.463 . S
C2793 C2798 1.350 . S
C2793 N2801 1.427 . S
C2794 H2785 0.930 . S
C2794 C2792 1.378 . S
C2794 C2795 1.367 . S
C2795 C2794 1.367 . S
C2795 C2797 1.433 . S
C2796 C2792 1.350 . S
C2796 C2793 1.463 . S
C2796 N2800 1.427 . S
C2797 H2787 0.929 . S
C2797 C2795 1.433 . S
C2797 N2800 1.384 . S
C2798 H2789 0.929 . S
C2798 C2790 1.378 . S
C2798 C2793 1.350 . S
C2799 H2786 0.929 . S
C2799 C2791 1.433 . S
C2799 N2801 1.384 . S
N2800 C2796 1.427 . S
N2800 C2797 1.384 . S
N2801 C2793 1.427 . S
N2801 C2799 1.384 . S
H2802 C2808 0.930 . S
H2803 C2812 0.930 . S
H2804 C2817 0.929 . S
H2805 C2815 0.929 . S
H2806 C2810 0.929 . S
H2807 C2816 0.929 . S
C2808 H2802 0.930 . S
C2808 C2809 1.367 . S
C2808 C2816 1.378 . S
C2809 C2808 1.367 . S
C2809 C2817 1.433 . S
C2810 H2806 0.929 . S
C2810 C2812 1.378 . S
C2810 C2814 1.350 . S
C2811 C2814 1.463 . S
C2811 C2816 1.350 . S
C2811 N2819 1.427 . S
C2812 H2803 0.930 . S
C2812 C2810 1.378 . S
C2812 C2813 1.367 . S
C2813 C2812 1.367 . S
C2813 C2815 1.433 . S
C2814 C2810 1.350 . S
C2814 C2811 1.463 . S
C2814 N2818 1.427 . S
C2815 H2805 0.929 . S
C2815 C2813 1.433 . S
C2815 N2818 1.384 . S
C2816 H2807 0.929 . S
C2816 C2808 1.378 . S
C2816 C2811 1.350 . S
C2817 H2804 0.929 . S
C2817 C2809 1.433 . S
C2817 N2819 1.384 . S
N2818 C2814 1.427 . S
N2818 C2815 1.384 . S
N2819 C2811 1.427 . S
N2819 C2817 1.384 . S
H2820 C2826 0.930 . S
H2821 C2830 0.930 . S
H2822 C2835 0.929 . S
H2823 C2833 0.929 . S
H2824 C2828 0.929 . S
H2825 C2834 0.929 . S
C2826 H2820 0.930 . S
C2826 C2827 1.367 . S
C2826 C2834 1.378 . S
C2827 C2826 1.367 . S
C2827 C2835 1.433 . S
C2828 H2824 0.929 . S
C2828 C2830 1.378 . S
C2828 C2832 1.350 . S
C2829 C2832 1.463 . S
C2829 C2834 1.350 . S
C2829 N2837 1.427 . S
C2830 H2821 0.930 . S
C2830 C2828 1.378 . S
C2830 C2831 1.367 . S
C2831 C2830 1.367 . S
C2831 C2833 1.433 . S
C2832 C2828 1.350 . S
C2832 C2829 1.463 . S
C2832 N2836 1.427 . S
C2833 H2823 0.929 . S
C2833 C2831 1.433 . S
C2833 N2836 1.384 . S
C2834 H2825 0.929 . S
C2834 C2826 1.378 . S
C2834 C2829 1.350 . S
C2835 H2822 0.929 . S
C2835 C2827 1.433 . S
C2835 N2837 1.384 . S
N2836 C2832 1.427 . S
N2836 C2833 1.384 . S
N2837 C2829 1.427 . S
N2837 C2835 1.384 . S
H2838 C2844 0.930 . S
H2839 C2848 0.930 . S
H2840 C2853 0.929 . S
H2841 C2851 0.929 . S
H2842 C2846 0.929 . S
H2843 C2852 0.929 . S
C2844 H2838 0.930 . S
C2844 C2845 1.367 . S
C2844 C2852 1.378 . S
C2845 C2844 1.367 . S
C2845 C2853 1.433 . S
C2846 H2842 0.929 . S
C2846 C2848 1.378 . S
C2846 C2850 1.350 . S
C2847 C2850 1.463 . S
C2847 C2852 1.350 . S
C2847 N2855 1.427 . S
C2848 H2839 0.930 . S
C2848 C2846 1.378 . S
C2848 C2849 1.367 . S
C2849 C2848 1.367 . S
C2849 C2851 1.433 . S
C2850 C2846 1.350 . S
C2850 C2847 1.463 . S
C2850 N2854 1.427 . S
C2851 H2841 0.929 . S
C2851 C2849 1.433 . S
C2851 N2854 1.384 . S
C2852 H2843 0.929 . S
C2852 C2844 1.378 . S
C2852 C2847 1.350 . S
C2853 H2840 0.929 . S
C2853 C2845 1.433 . S
C2853 N2855 1.384 . S
N2854 C2850 1.427 . S
N2854 C2851 1.384 . S
N2855 C2847 1.427 . S
N2855 C2853 1.384 . S
H2856 C2862 0.930 . S
H2857 C2866 0.930 . S
H2858 C2871 0.929 . S
H2859 C2869 0.929 . S
H2860 C2864 0.929 . S
H2861 C2870 0.929 . S
C2862 H2856 0.930 . S
C2862 C2863 1.367 . S
C2862 C2870 1.378 . S
C2863 C2862 1.367 . S
C2863 C2871 1.433 . S
C2864 H2860 0.929 . S
C2864 C2866 1.378 . S
C2864 C2868 1.350 . S
C2865 C2868 1.463 . S
C2865 C2870 1.350 . S
C2865 N2873 1.427 . S
C2866 H2857 0.930 . S
C2866 C2864 1.378 . S
C2866 C2867 1.367 . S
C2867 C2866 1.367 . S
C2867 C2869 1.433 . S
C2868 C2864 1.350 . S
C2868 C2865 1.463 . S
C2868 N2872 1.427 . S
C2869 H2859 0.929 . S
C2869 C2867 1.433 . S
C2869 N2872 1.384 . S
C2870 H2861 0.929 . S
C2870 C2862 1.378 . S
C2870 C2865 1.350 . S
C2871 H2858 0.929 . S
C2871 C2863 1.433 . S
C2871 N2873 1.384 . S
N2872 C2868 1.427 . S
N2872 C2869 1.384 . S
N2873 C2865 1.427 . S
N2873 C2871 1.384 . S
H2874 C2880 0.930 . S
H2875 C2884 0.930 . S
H2876 C2889 0.929 . S
H2877 C2887 0.929 . S
H2878 C2882 0.929 . S
H2879 C2888 0.929 . S
C2880 H2874 0.930 . S
C2880 C2881 1.367 . S
C2880 C2888 1.378 . S
C2881 C2880 1.367 . S
C2881 C2889 1.433 . S
C2882 H2878 0.929 . S
C2882 C2884 1.378 . S
C2882 C2886 1.350 . S
C2883 C2886 1.463 . S
C2883 C2888 1.350 . S
C2883 N2891 1.427 . S
C2884 H2875 0.930 . S
C2884 C2882 1.378 . S
C2884 C2885 1.367 . S
C2885 C2884 1.367 . S
C2885 C2887 1.433 . S
C2886 C2882 1.350 . S
C2886 C2883 1.463 . S
C2886 N2890 1.427 . S
C2887 H2877 0.929 . S
C2887 C2885 1.433 . S
C2887 N2890 1.384 . S
C2888 H2879 0.929 . S
C2888 C2880 1.378 . S
C2888 C2883 1.350 . S
C2889 H2876 0.929 . S
C2889 C2881 1.433 . S
C2889 N2891 1.384 . S
N2890 C2886 1.427 . S
N2890 C2887 1.384 . S
N2891 C2883 1.427 . S
N2891 C2889 1.384 . S
H2892 C2898 0.930 . S
H2893 C2902 0.930 . S
H2894 C2907 0.929 . S
H2895 C2905 0.929 . S
H2896 C2900 0.929 . S
H2897 C2906 0.929 . S
C2898 H2892 0.930 . S
C2898 C2899 1.367 . S
C2898 C2906 1.378 . S
C2899 C2898 1.367 . S
C2899 C2907 1.433 . S
C2900 H2896 0.929 . S
C2900 C2902 1.378 . S
C2900 C2904 1.350 . S
C2901 C2904 1.463 . S
C2901 C2906 1.350 . S
C2901 N2909 1.427 . S
C2902 H2893 0.930 . S
C2902 C2900 1.378 . S
C2902 C2903 1.367 . S
C2903 C2902 1.367 . S
C2903 C2905 1.433 . S
C2904 C2900 1.350 . S
C2904 C2901 1.463 . S
C2904 N2908 1.427 . S
C2905 H2895 0.929 . S
C2905 C2903 1.433 . S
C2905 N2908 1.384 . S
C2906 H2897 0.929 . S
C2906 C2898 1.378 . S
C2906 C2901 1.350 . S
C2907 H2894 0.929 . S
C2907 C2899 1.433 . S
C2907 N2909 1.384 . S
N2908 C2904 1.427 . S
N2908 C2905 1.384 . S
N2909 C2901 1.427 . S
N2909 C2907 1.384 . S
H2910 C2916 0.930 . S
H2911 C2920 0.930 . S
H2912 C2925 0.929 . S
H2913 C2923 0.929 . S
H2914 C2918 0.929 . S
H2915 C2924 0.929 . S
C2916 H2910 0.930 . S
C2916 C2917 1.367 . S
C2916 C2924 1.378 . S
C2917 C2916 1.367 . S
C2917 C2925 1.433 . S
C2918 H2914 0.929 . S
C2918 C2920 1.378 . S
C2918 C2922 1.350 . S
C2919 C2922 1.463 . S
C2919 C2924 1.350 . S
C2919 N2927 1.427 . S
C2920 H2911 0.930 . S
C2920 C2918 1.378 . S
C2920 C2921 1.367 . S
C2921 C2920 1.367 . S
C2921 C2923 1.433 . S
C2922 C2918 1.350 . S
C2922 C2919 1.463 . S
C2922 N2926 1.427 . S
C2923 H2913 0.929 . S
C2923 C2921 1.433 . S
C2923 N2926 1.384 . S
C2924 H2915 0.929 . S
C2924 C2916 1.378 . S
C2924 C2919 1.350 . S
C2925 H2912 0.929 . S
C2925 C2917 1.433 . S
C2925 N2927 1.384 . S
N2926 C2922 1.427 . S
N2926 C2923 1.384 . S
N2927 C2919 1.427 . S
N2927 C2925 1.384 . S
H2928 C2934 0.930 . S
H2929 C2938 0.930 . S
H2930 C2943 0.929 . S
H2931 C2941 0.929 . S
H2932 C2936 0.929 . S
H2933 C2942 0.929 . S
C2934 H2928 0.930 . S
C2934 C2935 1.367 . S
C2934 C2942 1.378 . S
C2935 C2934 1.367 . S
C2935 C2943 1.433 . S
C2936 H2932 0.929 . S
C2936 C2938 1.378 . S
C2936 C2940 1.350 . S
C2937 C2940 1.463 . S
C2937 C2942 1.350 . S
C2937 N2945 1.427 . S
C2938 H2929 0.930 . S
C2938 C2936 1.378 . S
C2938 C2939 1.367 . S
C2939 C2938 1.367 . S
C2939 C2941 1.433 . S
C2940 C2936 1.350 . S
C2940 C2937 1.463 . S
C2940 N2944 1.427 . S
C2941 H2931 0.929 . S
C2941 C2939 1.433 . S
C2941 N2944 1.384 . S
C2942 H2933 0.929 . S
C2942 C2934 1.378 . S
C2942 C2937 1.350 . S
C2943 H2930 0.929 . S
C2943 C2935 1.433 . S
C2943 N2945 1.384 . S
N2944 C2940 1.427 . S
N2944 C2941 1.384 . S
N2945 C2937 1.427 . S
N2945 C2943 1.384 . S
H2946 C2952 0.930 . S
H2947 C2956 0.930 . S
H2948 C2961 0.929 . S
H2949 C2959 0.929 . S
H2950 C2954 0.929 . S
H2951 C2960 0.929 . S
C2952 H2946 0.930 . S
C2952 C2953 1.367 . S
C2952 C2960 1.378 . S
C2953 C2952 1.367 . S
C2953 C2961 1.433 . S
C2954 H2950 0.929 . S
C2954 C2956 1.378 . S
C2954 C2958 1.350 . S
C2955 C2958 1.463 . S
C2955 C2960 1.350 . S
C2955 N2963 1.427 . S
C2956 H2947 0.930 . S
C2956 C2954 1.378 . S
C2956 C2957 1.367 . S
C2957 C2956 1.367 . S
C2957 C2959 1.433 . S
C2958 C2954 1.350 . S
C2958 C2955 1.463 . S
C2958 N2962 1.427 . S
C2959 H2949 0.929 . S
C2959 C2957 1.433 . S
C2959 N2962 1.384 . S
C2960 H2951 0.929 . S
C2960 C2952 1.378 . S
C2960 C2955 1.350 . S
C2961 H2948 0.929 . S
C2961 C2953 1.433 . S
C2961 N2963 1.384 . S
N2962 C2958 1.427 . S
N2962 C2959 1.384 . S
N2963 C2955 1.427 . S
N2963 C2961 1.384 . S
H2964 C2970 0.930 . S
H2965 C2974 0.930 . S
H2966 C2979 0.929 . S
H2967 C2977 0.929 . S
H2968 C2972 0.929 . S
H2969 C2978 0.929 . S
C2970 H2964 0.930 . S
C2970 C2971 1.367 . S
C2970 C2978 1.378 . S
C2971 C2970 1.367 . S
C2971 C2979 1.433 . S
C2972 H2968 0.929 . S
C2972 C2974 1.378 . S
C2972 C2976 1.350 . S
C2973 C2976 1.463 . S
C2973 C2978 1.350 . S
C2973 N2981 1.427 . S
C2974 H2965 0.930 . S
C2974 C2972 1.378 . S
C2974 C2975 1.367 . S
C2975 C2974 1.367 . S
C2975 C2977 1.433 . S
C2976 C2972 1.350 . S
C2976 C2973 1.463 . S
C2976 N2980 1.427 . S
C2977 H2967 0.929 . S
C2977 C2975 1.433 . S
C2977 N2980 1.384 . S
C2978 H2969 0.929 . S
C2978 C2970 1.378 . S
C2978 C2973 1.350 . S
C2979 H2966 0.929 . S
C2979 C2971 1.433 . S
C2979 N2981 1.384 . S
N2980 C2976 1.427 . S
N2980 C2977 1.384 . S
N2981 C2973 1.427 . S
N2981 C2979 1.384 . S
H2982 C2988 0.930 . S
H2983 C2992 0.930 . S
H2984 C2997 0.929 . S
H2985 C2995 0.929 . S
H2986 C2990 0.929 . S
H2987 C2996 0.929 . S
C2988 H2982 0.930 . S
C2988 C2989 1.367 . S
C2988 C2996 1.378 . S
C2989 C2988 1.367 . S
C2989 C2997 1.433 . S
C2990 H2986 0.929 . S
C2990 C2992 1.378 . S
C2990 C2994 1.350 . S
C2991 C2994 1.463 . S
C2991 C2996 1.350 . S
C2991 N2999 1.427 . S
C2992 H2983 0.930 . S
C2992 C2990 1.378 . S
C2992 C2993 1.367 . S
C2993 C2992 1.367 . S
C2993 C2995 1.433 . S
C2994 C2990 1.350 . S
C2994 C2991 1.463 . S
C2994 N2998 1.427 . S
C2995 H2985 0.929 . S
C2995 C2993 1.433 . S
C2995 N2998 1.384 . S
C2996 H2987 0.929 . S
C2996 C2988 1.378 . S
C2996 C2991 1.350 . S
C2997 H2984 0.929 . S
C2997 C2989 1.433 . S
C2997 N2999 1.384 . S
N2998 C2994 1.427 . S
N2998 C2995 1.384 . S
N2999 C2991 1.427 . S
N2999 C2997 1.384 . S
H3000 C3006 0.930 . S
H3001 C3010 0.930 . S
H3002 C3015 0.929 . S
H3003 C3013 0.929 . S
H3004 C3008 0.929 . S
H3005 C3014 0.929 . S
C3006 H3000 0.930 . S
C3006 C3007 1.367 . S
C3006 C3014 1.378 . S
C3007 C3006 1.367 . S
C3007 C3015 1.433 . S
C3008 H3004 0.929 . S
C3008 C3010 1.378 . S
C3008 C3012 1.350 . S
C3009 C3012 1.463 . S
C3009 C3014 1.350 . S
C3009 N3017 1.427 . S
C3010 H3001 0.930 . S
C3010 C3008 1.378 . S
C3010 C3011 1.367 . S
C3011 C3010 1.367 . S
C3011 C3013 1.433 . S
C3012 C3008 1.350 . S
C3012 C3009 1.463 . S
C3012 N3016 1.427 . S
C3013 H3003 0.929 . S
C3013 C3011 1.433 . S
C3013 N3016 1.384 . S
C3014 H3005 0.929 . S
C3014 C3006 1.378 . S
C3014 C3009 1.350 . S
C3015 H3002 0.929 . S
C3015 C3007 1.433 . S
C3015 N3017 1.384 . S
N3016 C3012 1.427 . S
N3016 C3013 1.384 . S
N3017 C3009 1.427 . S
N3017 C3015 1.384 . S
H3018 C3024 0.930 . S
H3019 C3028 0.930 . S
H3020 C3033 0.929 . S
H3021 C3031 0.929 . S
H3022 C3026 0.929 . S
H3023 C3032 0.929 . S
C3024 H3018 0.930 . S
C3024 C3025 1.367 . S
C3024 C3032 1.378 . S
C3025 C3024 1.367 . S
C3025 C3033 1.433 . S
C3026 H3022 0.929 . S
C3026 C3028 1.378 . S
C3026 C3030 1.350 . S
C3027 C3030 1.463 . S
C3027 C3032 1.350 . S
C3027 N3035 1.427 . S
C3028 H3019 0.930 . S
C3028 C3026 1.378 . S
C3028 C3029 1.367 . S
C3029 C3028 1.367 . S
C3029 C3031 1.433 . S
C3030 C3026 1.350 . S
C3030 C3027 1.463 . S
C3030 N3034 1.427 . S
C3031 H3021 0.929 . S
C3031 C3029 1.433 . S
C3031 N3034 1.384 . S
C3032 H3023 0.929 . S
C3032 C3024 1.378 . S
C3032 C3027 1.350 . S
C3033 H3020 0.929 . S
C3033 C3025 1.433 . S
C3033 N3035 1.384 . S
N3034 C3030 1.427 . S
N3034 C3031 1.384 . S
N3035 C3027 1.427 . S
N3035 C3033 1.384 . S
H3036 C3042 0.930 . S
H3037 C3046 0.930 . S
H3038 C3051 0.929 . S
H3039 C3049 0.929 . S
H3040 C3044 0.929 . S
H3041 C3050 0.929 . S
C3042 H3036 0.930 . S
C3042 C3043 1.367 . S
C3042 C3050 1.378 . S
C3043 C3042 1.367 . S
C3043 C3051 1.433 . S
C3044 H3040 0.929 . S
C3044 C3046 1.378 . S
C3044 C3048 1.350 . S
C3045 C3048 1.463 . S
C3045 C3050 1.350 . S
C3045 N3053 1.427 . S
C3046 H3037 0.930 . S
C3046 C3044 1.378 . S
C3046 C3047 1.367 . S
C3047 C3046 1.367 . S
C3047 C3049 1.433 . S
C3048 C3044 1.350 . S
C3048 C3045 1.463 . S
C3048 N3052 1.427 . S
C3049 H3039 0.929 . S
C3049 C3047 1.433 . S
C3049 N3052 1.384 . S
C3050 H3041 0.929 . S
C3050 C3042 1.378 . S
C3050 C3045 1.350 . S
C3051 H3038 0.929 . S
C3051 C3043 1.433 . S
C3051 N3053 1.384 . S
N3052 C3048 1.427 . S
N3052 C3049 1.384 . S
N3053 C3045 1.427 . S
N3053 C3051 1.384 . S
H3054 C3060 0.930 . S
H3055 C3064 0.930 . S
H3056 C3069 0.929 . S
H3057 C3067 0.929 . S
H3058 C3062 0.929 . S
H3059 C3068 0.929 . S
C3060 H3054 0.930 . S
C3060 C3061 1.367 . S
C3060 C3068 1.378 . S
C3061 C3060 1.367 . S
C3061 C3069 1.433 . S
C3062 H3058 0.929 . S
C3062 C3064 1.378 . S
C3062 C3066 1.350 . S
C3063 C3066 1.463 . S
C3063 C3068 1.350 . S
C3063 N3071 1.427 . S
C3064 H3055 0.930 . S
C3064 C3062 1.378 . S
C3064 C3065 1.367 . S
C3065 C3064 1.367 . S
C3065 C3067 1.433 . S
C3066 C3062 1.350 . S
C3066 C3063 1.463 . S
C3066 N3070 1.427 . S
C3067 H3057 0.929 . S
C3067 C3065 1.433 . S
C3067 N3070 1.384 . S
C3068 H3059 0.929 . S
C3068 C3060 1.378 . S
C3068 C3063 1.350 . S
C3069 H3056 0.929 . S
C3069 C3061 1.433 . S
C3069 N3071 1.384 . S
N3070 C3066 1.427 . S
N3070 C3067 1.384 . S
N3071 C3063 1.427 . S
N3071 C3069 1.384 . S
H3072 C3078 0.930 . S
H3073 C3082 0.930 . S
H3074 C3087 0.929 . S
H3075 C3085 0.929 . S
H3076 C3080 0.929 . S
H3077 C3086 0.929 . S
C3078 H3072 0.930 . S
C3078 C3079 1.367 . S
C3078 C3086 1.378 . S
C3079 C3078 1.367 . S
C3079 C3087 1.433 . S
C3080 H3076 0.929 . S
C3080 C3082 1.378 . S
C3080 C3084 1.350 . S
C3081 C3084 1.463 . S
C3081 C3086 1.350 . S
C3081 N3089 1.427 . S
C3082 H3073 0.930 . S
C3082 C3080 1.378 . S
C3082 C3083 1.367 . S
C3083 C3082 1.367 . S
C3083 C3085 1.433 . S
C3084 C3080 1.350 . S
C3084 C3081 1.463 . S
C3084 N3088 1.427 . S
C3085 H3075 0.929 . S
C3085 C3083 1.433 . S
C3085 N3088 1.384 . S
C3086 H3077 0.929 . S
C3086 C3078 1.378 . S
C3086 C3081 1.350 . S
C3087 H3074 0.929 . S
C3087 C3079 1.433 . S
C3087 N3089 1.384 . S
N3088 C3084 1.427 . S
N3088 C3085 1.384 . S
N3089 C3081 1.427 . S
N3089 C3087 1.384 . S
H3090 C3096 0.930 . S
H3091 C3100 0.930 . S
H3092 C3105 0.929 . S
H3093 C3103 0.929 . S
H3094 C3098 0.929 . S
H3095 C3104 0.929 . S
C3096 H3090 0.930 . S
C3096 C3097 1.367 . S
C3096 C3104 1.378 . S
C3097 C3096 1.367 . S
C3097 C3105 1.433 . S
C3098 H3094 0.929 . S
C3098 C3100 1.378 . S
C3098 C3102 1.350 . S
C3099 C3102 1.463 . S
C3099 C3104 1.350 . S
C3099 N3107 1.427 . S
C3100 H3091 0.930 . S
C3100 C3098 1.378 . S
C3100 C3101 1.367 . S
C3101 C3100 1.367 . S
C3101 C3103 1.433 . S
C3102 C3098 1.350 . S
C3102 C3099 1.463 . S
C3102 N3106 1.427 . S
C3103 H3093 0.929 . S
C3103 C3101 1.433 . S
C3103 N3106 1.384 . S
C3104 H3095 0.929 . S
C3104 C3096 1.378 . S
C3104 C3099 1.350 . S
C3105 H3092 0.929 . S
C3105 C3097 1.433 . S
C3105 N3107 1.384 . S
N3106 C3102 1.427 . S
N3106 C3103 1.384 . S
N3107 C3099 1.427 . S
N3107 C3105 1.384 . S
H3108 C3114 0.930 . S
H3109 C3118 0.930 . S
H3110 C3123 0.929 . S
H3111 C3121 0.929 . S
H3112 C3116 0.929 . S
H3113 C3122 0.929 . S
C3114 H3108 0.930 . S
C3114 C3115 1.367 . S
C3114 C3122 1.378 . S
C3115 C3114 1.367 . S
C3115 C3123 1.433 . S
C3116 H3112 0.929 . S
C3116 C3118 1.378 . S
C3116 C3120 1.350 . S
C3117 C3120 1.463 . S
C3117 C3122 1.350 . S
C3117 N3125 1.427 . S
C3118 H3109 0.930 . S
C3118 C3116 1.378 . S
C3118 C3119 1.367 . S
C3119 C3118 1.367 . S
C3119 C3121 1.433 . S
C3120 C3116 1.350 . S
C3120 C3117 1.463 . S
C3120 N3124 1.427 . S
C3121 H3111 0.929 . S
C3121 C3119 1.433 . S
C3121 N3124 1.384 . S
C3122 H3113 0.929 . S
C3122 C3114 1.378 . S
C3122 C3117 1.350 . S
C3123 H3110 0.929 . S
C3123 C3115 1.433 . S
C3123 N3125 1.384 . S
N3124 C3120 1.427 . S
N3124 C3121 1.384 . S
N3125 C3117 1.427 . S
N3125 C3123 1.384 . S
H3126 C3132 0.930 . S
H3127 C3136 0.930 . S
H3128 C3141 0.929 . S
H3129 C3139 0.929 . S
H3130 C3134 0.929 . S
H3131 C3140 0.929 . S
C3132 H3126 0.930 . S
C3132 C3133 1.367 . S
C3132 C3140 1.378 . S
C3133 C3132 1.367 . S
C3133 C3141 1.433 . S
C3134 H3130 0.929 . S
C3134 C3136 1.378 . S
C3134 C3138 1.350 . S
C3135 C3138 1.463 . S
C3135 C3140 1.350 . S
C3135 N3143 1.427 . S
C3136 H3127 0.930 . S
C3136 C3134 1.378 . S
C3136 C3137 1.367 . S
C3137 C3136 1.367 . S
C3137 C3139 1.433 . S
C3138 C3134 1.350 . S
C3138 C3135 1.463 . S
C3138 N3142 1.427 . S
C3139 H3129 0.929 . S
C3139 C3137 1.433 . S
C3139 N3142 1.384 . S
C3140 H3131 0.929 . S
C3140 C3132 1.378 . S
C3140 C3135 1.350 . S
C3141 H3128 0.929 . S
C3141 C3133 1.433 . S
C3141 N3143 1.384 . S
N3142 C3138 1.427 . S
N3142 C3139 1.384 . S
N3143 C3135 1.427 . S
N3143 C3141 1.384 . S
H3144 C3150 0.930 . S
H3145 C3154 0.930 . S
H3146 C3159 0.929 . S
H3147 C3157 0.929 . S
H3148 C3152 0.929 . S
H3149 C3158 0.929 . S
C3150 H3144 0.930 . S
C3150 C3151 1.367 . S
C3150 C3158 1.378 . S
C3151 C3150 1.367 . S
C3151 C3159 1.433 . S
C3152 H3148 0.929 . S
C3152 C3154 1.378 . S
C3152 C3156 1.350 . S
C3153 C3156 1.463 . S
C3153 C3158 1.350 . S
C3153 N3161 1.427 . S
C3154 H3145 0.930 . S
C3154 C3152 1.378 . S
C3154 C3155 1.367 . S
C3155 C3154 1.367 . S
C3155 C3157 1.433 . S
C3156 C3152 1.350 . S
C3156 C3153 1.463 . S
C3156 N3160 1.427 . S
C3157 H3147 0.929 . S
C3157 C3155 1.433 . S
C3157 N3160 1.384 . S
C3158 H3149 0.929 . S
C3158 C3150 1.378 . S
C3158 C3153 1.350 . S
C3159 H3146 0.929 . S
C3159 C3151 1.433 . S
C3159 N3161 1.384 . S
N3160 C3156 1.427 . S
N3160 C3157 1.384 . S
N3161 C3153 1.427 . S
N3161 C3159 1.384 . S
H3162 C3168 0.930 . S
H3163 C3172 0.930 . S
H3164 C3177 0.929 . S
H3165 C3175 0.929 . S
H3166 C3170 0.929 . S
H3167 C3176 0.929 . S
C3168 H3162 0.930 . S
C3168 C3169 1.367 . S
C3168 C3176 1.378 . S
C3169 C3168 1.367 . S
C3169 C3177 1.433 . S
C3170 H3166 0.929 . S
C3170 C3172 1.378 . S
C3170 C3174 1.350 . S
C3171 C3174 1.463 . S
C3171 C3176 1.350 . S
C3171 N3179 1.427 . S
C3172 H3163 0.930 . S
C3172 C3170 1.378 . S
C3172 C3173 1.367 . S
C3173 C3172 1.367 . S
C3173 C3175 1.433 . S
C3174 C3170 1.350 . S
C3174 C3171 1.463 . S
C3174 N3178 1.427 . S
C3175 H3165 0.929 . S
C3175 C3173 1.433 . S
C3175 N3178 1.384 . S
C3176 H3167 0.929 . S
C3176 C3168 1.378 . S
C3176 C3171 1.350 . S
C3177 H3164 0.929 . S
C3177 C3169 1.433 . S
C3177 N3179 1.384 . S
N3178 C3174 1.427 . S
N3178 C3175 1.384 . S
N3179 C3171 1.427 . S
N3179 C3177 1.384 . S
H3180 C3186 0.930 . S
H3181 C3190 0.930 . S
H3182 C3195 0.929 . S
H3183 C3193 0.929 . S
H3184 C3188 0.929 . S
H3185 C3194 0.929 . S
C3186 H3180 0.930 . S
C3186 C3187 1.367 . S
C3186 C3194 1.378 . S
C3187 C3186 1.367 . S
C3187 C3195 1.433 . S
C3188 H3184 0.929 . S
C3188 C3190 1.378 . S
C3188 C3192 1.350 . S
C3189 C3192 1.463 . S
C3189 C3194 1.350 . S
C3189 N3197 1.427 . S
C3190 H3181 0.930 . S
C3190 C3188 1.378 . S
C3190 C3191 1.367 . S
C3191 C3190 1.367 . S
C3191 C3193 1.433 . S
C3192 C3188 1.350 . S
C3192 C3189 1.463 . S
C3192 N3196 1.427 . S
C3193 H3183 0.929 . S
C3193 C3191 1.433 . S
C3193 N3196 1.384 . S
C3194 H3185 0.929 . S
C3194 C3186 1.378 . S
C3194 C3189 1.350 . S
C3195 H3182 0.929 . S
C3195 C3187 1.433 . S
C3195 N3197 1.384 . S
N3196 C3192 1.427 . S
N3196 C3193 1.384 . S
N3197 C3189 1.427 . S
N3197 C3195 1.384 . S
H3198 C3204 0.930 . S
H3199 C3208 0.930 . S
H3200 C3213 0.929 . S
H3201 C3211 0.929 . S
H3202 C3206 0.929 . S
H3203 C3212 0.929 . S
C3204 H3198 0.930 . S
C3204 C3205 1.367 . S
C3204 C3212 1.378 . S
C3205 C3204 1.367 . S
C3205 C3213 1.433 . S
C3206 H3202 0.929 . S
C3206 C3208 1.378 . S
C3206 C3210 1.350 . S
C3207 C3210 1.463 . S
C3207 C3212 1.350 . S
C3207 N3215 1.427 . S
C3208 H3199 0.930 . S
C3208 C3206 1.378 . S
C3208 C3209 1.367 . S
C3209 C3208 1.367 . S
C3209 C3211 1.433 . S
C3210 C3206 1.350 . S
C3210 C3207 1.463 . S
C3210 N3214 1.427 . S
C3211 H3201 0.929 . S
C3211 C3209 1.433 . S
C3211 N3214 1.384 . S
C3212 H3203 0.929 . S
C3212 C3204 1.378 . S
C3212 C3207 1.350 . S
C3213 H3200 0.929 . S
C3213 C3205 1.433 . S
C3213 N3215 1.384 . S
N3214 C3210 1.427 . S
N3214 C3211 1.384 . S
N3215 C3207 1.427 . S
N3215 C3213 1.384 . S
H3216 C3222 0.930 . S
H3217 C3226 0.930 . S
H3218 C3231 0.929 . S
H3219 C3229 0.929 . S
H3220 C3224 0.929 . S
H3221 C3230 0.929 . S
C3222 H3216 0.930 . S
C3222 C3223 1.367 . S
C3222 C3230 1.378 . S
C3223 C3222 1.367 . S
C3223 C3231 1.433 . S
C3224 H3220 0.929 . S
C3224 C3226 1.378 . S
C3224 C3228 1.350 . S
C3225 C3228 1.463 . S
C3225 C3230 1.350 . S
C3225 N3233 1.427 . S
C3226 H3217 0.930 . S
C3226 C3224 1.378 . S
C3226 C3227 1.367 . S
C3227 C3226 1.367 . S
C3227 C3229 1.433 . S
C3228 C3224 1.350 . S
C3228 C3225 1.463 . S
C3228 N3232 1.427 . S
C3229 H3219 0.929 . S
C3229 C3227 1.433 . S
C3229 N3232 1.384 . S
C3230 H3221 0.929 . S
C3230 C3222 1.378 . S
C3230 C3225 1.350 . S
C3231 H3218 0.929 . S
C3231 C3223 1.433 . S
C3231 N3233 1.384 . S
N3232 C3228 1.427 . S
N3232 C3229 1.384 . S
N3233 C3225 1.427 . S
N3233 C3231 1.384 . S
H3234 C3240 0.930 . S
H3235 C3244 0.930 . S
H3236 C3249 0.929 . S
H3237 C3247 0.929 . S
H3238 C3242 0.929 . S
H3239 C3248 0.929 . S
C3240 H3234 0.930 . S
C3240 C3241 1.367 . S
C3240 C3248 1.378 . S
C3241 C3240 1.367 . S
C3241 C3249 1.433 . S
C3242 H3238 0.929 . S
C3242 C3244 1.378 . S
C3242 C3246 1.350 . S
C3243 C3246 1.463 . S
C3243 C3248 1.350 . S
C3243 N3251 1.427 . S
C3244 H3235 0.930 . S
C3244 C3242 1.378 . S
C3244 C3245 1.367 . S
C3245 C3244 1.367 . S
C3245 C3247 1.433 . S
C3246 C3242 1.350 . S
C3246 C3243 1.463 . S
C3246 N3250 1.427 . S
C3247 H3237 0.929 . S
C3247 C3245 1.433 . S
C3247 N3250 1.384 . S
C3248 H3239 0.929 . S
C3248 C3240 1.378 . S
C3248 C3243 1.350 . S
C3249 H3236 0.929 . S
C3249 C3241 1.433 . S
C3249 N3251 1.384 . S
N3250 C3246 1.427 . S
N3250 C3247 1.384 . S
N3251 C3243 1.427 . S
N3251 C3249 1.384 . S
H3252 C3258 0.930 . S
H3253 C3262 0.930 . S
H3254 C3267 0.929 . S
H3255 C3265 0.929 . S
H3256 C3260 0.929 . S
H3257 C3266 0.929 . S
C3258 H3252 0.930 . S
C3258 C3259 1.367 . S
C3258 C3266 1.378 . S
C3259 C3258 1.367 . S
C3259 C3267 1.433 . S
C3260 H3256 0.929 . S
C3260 C3262 1.378 . S
C3260 C3264 1.350 . S
C3261 C3264 1.463 . S
C3261 C3266 1.350 . S
C3261 N3269 1.427 . S
C3262 H3253 0.930 . S
C3262 C3260 1.378 . S
C3262 C3263 1.367 . S
C3263 C3262 1.367 . S
C3263 C3265 1.433 . S
C3264 C3260 1.350 . S
C3264 C3261 1.463 . S
C3264 N3268 1.427 . S
C3265 H3255 0.929 . S
C3265 C3263 1.433 . S
C3265 N3268 1.384 . S
C3266 H3257 0.929 . S
C3266 C3258 1.378 . S
C3266 C3261 1.350 . S
C3267 H3254 0.929 . S
C3267 C3259 1.433 . S
C3267 N3269 1.384 . S
N3268 C3264 1.427 . S
N3268 C3265 1.384 . S
N3269 C3261 1.427 . S
N3269 C3267 1.384 . S
H3270 C3276 0.930 . S
H3271 C3280 0.930 . S
H3272 C3285 0.929 . S
H3273 C3283 0.929 . S
H3274 C3278 0.929 . S
H3275 C3284 0.929 . S
C3276 H3270 0.930 . S
C3276 C3277 1.367 . S
C3276 C3284 1.378 . S
C3277 C3276 1.367 . S
C3277 C3285 1.433 . S
C3278 H3274 0.929 . S
C3278 C3280 1.378 . S
C3278 C3282 1.350 . S
C3279 C3282 1.463 . S
C3279 C3284 1.350 . S
C3279 N3287 1.427 . S
C3280 H3271 0.930 . S
C3280 C3278 1.378 . S
C3280 C3281 1.367 . S
C3281 C3280 1.367 . S
C3281 C3283 1.433 . S
C3282 C3278 1.350 . S
C3282 C3279 1.463 . S
C3282 N3286 1.427 . S
C3283 H3273 0.929 . S
C3283 C3281 1.433 . S
C3283 N3286 1.384 . S
C3284 H3275 0.929 . S
C3284 C3276 1.378 . S
C3284 C3279 1.350 . S
C3285 H3272 0.929 . S
C3285 C3277 1.433 . S
C3285 N3287 1.384 . S
N3286 C3282 1.427 . S
N3286 C3283 1.384 . S
N3287 C3279 1.427 . S
N3287 C3285 1.384 . S
H3288 C3294 0.930 . S
H3289 C3298 0.930 . S
H3290 C3303 0.929 . S
H3291 C3301 0.929 . S
H3292 C3296 0.929 . S
H3293 C3302 0.929 . S
C3294 H3288 0.930 . S
C3294 C3295 1.367 . S
C3294 C3302 1.378 . S
C3295 C3294 1.367 . S
C3295 C3303 1.433 . S
C3296 H3292 0.929 . S
C3296 C3298 1.378 . S
C3296 C3300 1.350 . S
C3297 C3300 1.463 . S
C3297 C3302 1.350 . S
C3297 N3305 1.427 . S
C3298 H3289 0.930 . S
C3298 C3296 1.378 . S
C3298 C3299 1.367 . S
C3299 C3298 1.367 . S
C3299 C3301 1.433 . S
C3300 C3296 1.350 . S
C3300 C3297 1.463 . S
C3300 N3304 1.427 . S
C3301 H3291 0.929 . S
C3301 C3299 1.433 . S
C3301 N3304 1.384 . S
C3302 H3293 0.929 . S
C3302 C3294 1.378 . S
C3302 C3297 1.350 . S
C3303 H3290 0.929 . S
C3303 C3295 1.433 . S
C3303 N3305 1.384 . S
N3304 C3300 1.427 . S
N3304 C3301 1.384 . S
N3305 C3297 1.427 . S
N3305 C3303 1.384 . S
H3306 C3312 0.930 . S
H3307 C3316 0.930 . S
H3308 C3321 0.929 . S
H3309 C3319 0.929 . S
H3310 C3314 0.929 . S
H3311 C3320 0.929 . S
C3312 H3306 0.930 . S
C3312 C3313 1.367 . S
C3312 C3320 1.378 . S
C3313 C3312 1.367 . S
C3313 C3321 1.433 . S
C3314 H3310 0.929 . S
C3314 C3316 1.378 . S
C3314 C3318 1.350 . S
C3315 C3318 1.463 . S
C3315 C3320 1.350 . S
C3315 N3323 1.427 . S
C3316 H3307 0.930 . S
C3316 C3314 1.378 . S
C3316 C3317 1.367 . S
C3317 C3316 1.367 . S
C3317 C3319 1.433 . S
C3318 C3314 1.350 . S
C3318 C3315 1.463 . S
C3318 N3322 1.427 . S
C3319 H3309 0.929 . S
C3319 C3317 1.433 . S
C3319 N3322 1.384 . S
C3320 H3311 0.929 . S
C3320 C3312 1.378 . S
C3320 C3315 1.350 . S
C3321 H3308 0.929 . S
C3321 C3313 1.433 . S
C3321 N3323 1.384 . S
N3322 C3318 1.427 . S
N3322 C3319 1.384 . S
N3323 C3315 1.427 . S
N3323 C3321 1.384 . S
H3324 C3330 0.930 . S
H3325 C3334 0.930 . S
H3326 C3339 0.929 . S
H3327 C3337 0.929 . S
H3328 C3332 0.929 . S
H3329 C3338 0.929 . S
C3330 H3324 0.930 . S
C3330 C3331 1.367 . S
C3330 C3338 1.378 . S
C3331 C3330 1.367 . S
C3331 C3339 1.433 . S
C3332 H3328 0.929 . S
C3332 C3334 1.378 . S
C3332 C3336 1.350 . S
C3333 C3336 1.463 . S
C3333 C3338 1.350 . S
C3333 N3341 1.427 . S
C3334 H3325 0.930 . S
C3334 C3332 1.378 . S
C3334 C3335 1.367 . S
C3335 C3334 1.367 . S
C3335 C3337 1.433 . S
C3336 C3332 1.350 . S
C3336 C3333 1.463 . S
C3336 N3340 1.427 . S
C3337 H3327 0.929 . S
C3337 C3335 1.433 . S
C3337 N3340 1.384 . S
C3338 H3329 0.929 . S
C3338 C3330 1.378 . S
C3338 C3333 1.350 . S
C3339 H3326 0.929 . S
C3339 C3331 1.433 . S
C3339 N3341 1.384 . S
N3340 C3336 1.427 . S
N3340 C3337 1.384 . S
N3341 C3333 1.427 . S
N3341 C3339 1.384 . S
H3342 C3348 0.930 . S
H3343 C3352 0.930 . S
H3344 C3357 0.929 . S
H3345 C3355 0.929 . S
H3346 C3350 0.929 . S
H3347 C3356 0.929 . S
C3348 H3342 0.930 . S
C3348 C3349 1.367 . S
C3348 C3356 1.378 . S
C3349 C3348 1.367 . S
C3349 C3357 1.433 . S
C3350 H3346 0.929 . S
C3350 C3352 1.378 . S
C3350 C3354 1.350 . S
C3351 C3354 1.463 . S
C3351 C3356 1.350 . S
C3351 N3359 1.427 . S
C3352 H3343 0.930 . S
C3352 C3350 1.378 . S
C3352 C3353 1.367 . S
C3353 C3352 1.367 . S
C3353 C3355 1.433 . S
C3354 C3350 1.350 . S
C3354 C3351 1.463 . S
C3354 N3358 1.427 . S
C3355 H3345 0.929 . S
C3355 C3353 1.433 . S
C3355 N3358 1.384 . S
C3356 H3347 0.929 . S
C3356 C3348 1.378 . S
C3356 C3351 1.350 . S
C3357 H3344 0.929 . S
C3357 C3349 1.433 . S
C3357 N3359 1.384 . S
N3358 C3354 1.427 . S
N3358 C3355 1.384 . S
N3359 C3351 1.427 . S
N3359 C3357 1.384 . S
H3360 C3366 0.930 . S
H3361 C3370 0.930 . S
H3362 C3375 0.929 1_545 S
H3363 C3373 0.902 1_565 S
H3364 C3368 0.929 . S
H3365 C3374 0.929 . S
C3366 H3360 0.930 . S
C3366 C3367 1.358 1_455 S
C3366 C3374 1.378 . S
C3367 C3366 1.358 1_655 S
C3367 C3375 1.442 . S
C3368 H3364 0.929 . S
C3368 C3370 1.378 . S
C3368 C3372 1.367 . S
C3369 C3372 1.462 1_565 S
C3369 C3374 1.343 1_655 S
C3369 N3377 1.435 1_565 S
C3370 H3361 0.930 . S
C3370 C3368 1.378 . S
C3370 C3371 1.382 . S
C3371 C3370 1.382 . S
C3371 C3373 1.471 1_655 S
C3372 C3368 1.367 . S
C3372 C3369 1.462 1_545 S
C3372 N3376 1.411 1_645 S
C3373 H3363 0.902 1_545 S
C3373 C3371 1.471 1_455 S
C3373 N3376 1.362 1_545 S
C3374 H3365 0.929 . S
C3374 C3366 1.378 . S
C3374 C3369 1.343 1_455 S
C3375 H3362 0.929 1_565 S
C3375 C3367 1.442 . S
C3375 N3377 1.384 1_565 S
N3376 C3372 1.411 1_465 S
N3376 C3373 1.362 1_565 S
N3377 C3369 1.435 1_545 S
N3377 C3375 1.384 1_545 S
H3378 C3384 0.930 . S
H3379 C3388 0.930 . S
H3380 C3393 0.929 . S
H3381 C3391 0.929 . S
H3382 C3386 0.929 . S
H3383 C3392 0.929 . S
C3384 H3378 0.930 . S
C3384 C3385 1.367 . S
C3384 C3392 1.378 . S
C3385 C3384 1.367 . S
C3385 C3393 1.433 . S
C3386 H3382 0.929 . S
C3386 C3388 1.378 . S
C3386 C3390 1.350 . S
C3387 C3390 1.463 . S
C3387 C3392 1.350 . S
C3387 N3395 1.427 . S
C3388 H3379 0.930 . S
C3388 C3386 1.378 . S
C3388 C3389 1.367 . S
C3389 C3388 1.367 . S
C3389 C3391 1.433 . S
C3390 C3386 1.350 . S
C3390 C3387 1.463 . S
C3390 N3394 1.427 . S
C3391 H3381 0.929 . S
C3391 C3389 1.433 . S
C3391 N3394 1.384 . S
C3392 H3383 0.929 . S
C3392 C3384 1.378 . S
C3392 C3387 1.350 . S
C3393 H3380 0.929 . S
C3393 C3385 1.433 . S
C3393 N3395 1.384 . S
N3394 C3390 1.427 . S
N3394 C3391 1.384 . S
N3395 C3387 1.427 . S
N3395 C3393 1.384 . S
H3396 C3402 0.930 . S
H3397 C3406 0.930 . S
H3398 C3411 0.929 1_565 S
H3399 C3409 0.929 1_545 S
H3400 C3404 0.929 . S
H3401 C3410 0.929 . S
C3402 H3396 0.930 . S
C3402 C3403 1.367 . S
C3402 C3410 1.378 . S
C3403 C3402 1.367 . S
C3403 C3411 1.433 . S
C3404 H3400 0.929 . S
C3404 C3406 1.378 . S
C3404 C3408 1.350 . S
C3405 C3408 1.463 1_545 S
C3405 C3410 1.350 . S
C3405 N3413 1.427 1_545 S
C3406 H3397 0.930 . S
C3406 C3404 1.378 . S
C3406 C3407 1.367 . S
C3407 C3406 1.367 . S
C3407 C3409 1.433 . S
C3408 C3404 1.350 . S
C3408 C3405 1.463 1_565 S
C3408 N3412 1.427 1_565 S
C3409 H3399 0.929 1_565 S
C3409 C3407 1.433 . S
C3409 N3412 1.384 1_565 S
C3410 H3401 0.929 . S
C3410 C3402 1.378 . S
C3410 C3405 1.350 . S
C3411 H3398 0.929 1_545 S
C3411 C3403 1.433 . S
C3411 N3413 1.384 1_545 S
N3412 C3408 1.427 1_545 S
N3412 C3409 1.384 1_545 S
N3413 C3405 1.427 1_565 S
N3413 C3411 1.384 1_565 S
H3414 C3420 0.930 . S
H3415 C3424 0.930 . S
H3416 C3429 0.929 . S
H3417 C3427 0.929 . S
H3418 C3422 0.929 . S
H3419 C3428 0.929 . S
C3420 H3414 0.930 . S
C3420 C3421 1.367 . S
C3420 C3428 1.378 . S
C3421 C3420 1.367 . S
C3421 C3429 1.433 . S
C3422 H3418 0.929 . S
C3422 C3424 1.378 . S
C3422 C3426 1.350 . S
C3423 C3426 1.463 1_556 S
C3423 C3428 1.350 . S
C3423 N3431 1.427 . S
C3424 H3415 0.930 . S
C3424 C3422 1.378 . S
C3424 C3425 1.367 . S
C3425 C3424 1.367 . S
C3425 C3427 1.433 . S
C3426 C3422 1.350 . S
C3426 C3423 1.463 1_554 S
C3426 N3430 1.427 . S
C3427 H3417 0.929 . S
C3427 C3425 1.433 . S
C3427 N3430 1.384 . S
C3428 H3419 0.929 . S
C3428 C3420 1.378 . S
C3428 C3423 1.350 . S
C3429 H3416 0.929 . S
C3429 C3421 1.433 . S
C3429 N3431 1.384 . S
N3430 C3426 1.427 . S
N3430 C3427 1.384 . S
N3431 C3423 1.427 . S
N3431 C3429 1.384 . S
H3432 C3438 0.930 . S
H3433 C3442 0.930 . S
H3434 C3447 0.953 . S
H3435 C3445 0.909 1_556 S
H3436 C3440 0.929 . S
H3437 C3446 0.929 . S
C3438 H3432 0.930 . S
C3438 C3439 1.400 . S
C3438 C3446 1.378 . S
C3439 C3438 1.400 . S
C3439 C3447 1.401 1_565 S
C3440 H3436 0.929 . S
C3440 C3442 1.378 . S
C3440 C3444 1.344 1_545 S
C3441 C3444 1.463 1_556 S
C3441 C3446 1.350 . S
C3441 N3449 1.427 1_566 S
C3442 H3433 0.930 . S
C3442 C3440 1.378 . S
C3442 C3443 1.356 1_545 S
C3443 C3442 1.356 1_565 S
C3443 C3445 1.444 . S
C3444 C3440 1.344 1_565 S
C3444 C3441 1.463 1_554 S
C3444 N3448 1.433 1_554 S
C3445 H3435 0.909 1_554 S
C3445 C3443 1.444 . S
C3445 N3448 1.384 1_554 S
C3446 H3437 0.929 . S
C3446 C3438 1.378 . S
C3446 C3441 1.350 . S
C3447 H3434 0.953 . S
C3447 C3439 1.401 1_545 S
C3447 N3449 1.384 1_556 S
N3448 C3444 1.433 1_556 S
N3448 C3445 1.384 1_556 S
N3449 C3441 1.427 1_544 S
N3449 C3447 1.384 1_554 S
H3450 C3456 0.930 . S
H3451 C3460 0.930 . S
H3452 C3465 0.929 . S
H3453 C3463 0.929 . S
H3454 C3458 0.929 . S
H3455 C3464 0.929 . S
C3456 H3450 0.930 . S
C3456 C3457 1.367 . S
C3456 C3464 1.378 . S
C3457 C3456 1.367 . S
C3457 C3465 1.433 . S
C3458 H3454 0.929 . S
C3458 C3460 1.378 . S
C3458 C3462 1.350 . S
C3459 C3462 1.463 1_545 S
C3459 C3464 1.350 . S
C3459 N3467 1.427 . S
C3460 H3451 0.930 . S
C3460 C3458 1.378 . S
C3460 C3461 1.367 . S
C3461 C3460 1.367 . S
C3461 C3463 1.433 . S
C3462 C3458 1.350 . S
C3462 C3459 1.463 1_565 S
C3462 N3466 1.427 . S
C3463 H3453 0.929 . S
C3463 C3461 1.433 . S
C3463 N3466 1.384 . S
C3464 H3455 0.929 . S
C3464 C3456 1.378 . S
C3464 C3459 1.350 . S
C3465 H3452 0.929 . S
C3465 C3457 1.433 . S
C3465 N3467 1.384 . S
N3466 C3462 1.427 . S
N3466 C3463 1.384 . S
N3467 C3459 1.427 . S
N3467 C3465 1.384 . S
H3468 C3474 0.930 . S
H3469 C3478 0.930 . S
H3470 C3483 0.929 . S
H3471 C3481 0.929 . S
H3472 C3476 0.929 . S
H3473 C3482 0.929 . S
C3474 H3468 0.930 . S
C3474 C3475 1.367 1_545 S
C3474 C3482 1.378 . S
C3475 C3474 1.367 1_565 S
C3475 C3483 1.433 . S
C3476 H3472 0.929 . S
C3476 C3478 1.378 . S
C3476 C3480 1.350 . S
C3477 C3480 1.466 . S
C3477 C3482 1.321 1_565 S
C3477 N3485 1.458 . S
C3478 H3469 0.930 . S
C3478 C3476 1.378 . S
C3478 C3479 1.367 . S
C3479 C3478 1.367 . S
C3479 C3481 1.433 1_565 S
C3480 C3476 1.350 . S
C3480 C3477 1.466 . S
C3480 N3484 1.427 1_565 S
C3481 H3471 0.929 . S
C3481 C3479 1.433 1_545 S
C3481 N3484 1.384 . S
C3482 H3473 0.929 . S
C3482 C3474 1.378 . S
C3482 C3477 1.321 1_545 S
C3483 H3470 0.929 . S
C3483 C3475 1.433 . S
C3483 N3485 1.384 . S
N3484 C3480 1.427 1_545 S
N3484 C3481 1.384 . S
N3485 C3477 1.458 . S
N3485 C3483 1.384 . S
H3486 C3492 0.930 . S
H3487 C3496 0.930 . S
H3488 C3501 0.929 . S
H3489 C3499 0.929 . S
H3490 C3494 0.929 . S
H3491 C3500 0.929 . S
C3492 H3486 0.930 . S
C3492 C3493 1.367 . S
C3492 C3500 1.378 . S
C3493 C3492 1.367 . S
C3493 C3501 1.433 . S
C3494 H3490 0.929 . S
C3494 C3496 1.378 . S
C3494 C3498 1.350 . S
C3495 C3498 1.463 1_545 S
C3495 C3500 1.350 . S
C3495 N3503 1.427 . S
C3496 H3487 0.930 . S
C3496 C3494 1.378 . S
C3496 C3497 1.367 . S
C3497 C3496 1.367 . S
C3497 C3499 1.433 . S
C3498 C3494 1.350 . S
C3498 C3495 1.463 1_565 S
C3498 N3502 1.427 . S
C3499 H3489 0.929 . S
C3499 C3497 1.433 . S
C3499 N3502 1.384 . S
C3500 H3491 0.929 . S
C3500 C3492 1.378 . S
C3500 C3495 1.350 . S
C3501 H3488 0.929 . S
C3501 C3493 1.433 . S
C3501 N3503 1.384 . S
N3502 C3498 1.427 . S
N3502 C3499 1.384 . S
N3503 C3495 1.427 . S
N3503 C3501 1.384 . S
H3504 C3510 0.930 . S
H3505 C3514 0.930 . S
H3506 C3519 0.929 . S
H3507 C3517 0.929 . S
H3508 C3512 0.929 . S
H3509 C3518 0.929 . S
C3510 H3504 0.930 . S
C3510 C3511 1.359 1_554 S
C3510 C3518 1.378 . S
C3511 C3510 1.359 1_556 S
C3511 C3519 1.442 . S
C3512 H3508 0.929 . S
C3512 C3514 1.378 . S
C3512 C3516 1.350 . S
C3513 C3516 1.462 1_455 S
C3513 C3518 1.352 1_556 S
C3513 N3521 1.425 . S
C3514 H3505 0.930 . S
C3514 C3512 1.378 . S
C3514 C3515 1.367 . S
C3515 C3514 1.367 . S
C3515 C3517 1.433 1_556 S
C3516 C3512 1.350 . S
C3516 C3513 1.462 1_655 S
C3516 N3520 1.427 1_556 S
C3517 H3507 0.929 . S
C3517 C3515 1.433 1_554 S
C3517 N3520 1.384 . S
C3518 H3509 0.929 . S
C3518 C3510 1.378 . S
C3518 C3513 1.352 1_554 S
C3519 H3506 0.929 . S
C3519 C3511 1.442 . S
C3519 N3521 1.384 . S
N3520 C3516 1.427 1_554 S
N3520 C3517 1.384 . S
N3521 C3513 1.425 . S
N3521 C3519 1.384 . S
H3522 C3528 0.930 . S
H3523 C3532 0.930 . S
H3524 C3537 0.929 . S
H3525 C3535 0.929 . S
H3526 C3530 0.929 . S
H3527 C3536 0.929 . S
C3528 H3522 0.930 . S
C3528 C3529 1.323 1_554 S
C3528 C3536 1.378 . S
C3529 C3528 1.323 1_556 S
C3529 C3537 1.479 . S
C3530 H3526 0.929 . S
C3530 C3532 1.378 . S
C3530 C3534 1.350 . S
C3531 C3534 1.466 . S
C3531 C3536 1.314 1_556 S
C3531 N3539 1.464 . S
C3532 H3523 0.930 . S
C3532 C3530 1.378 . S
C3532 C3533 1.367 . S
C3533 C3532 1.367 . S
C3533 C3535 1.433 1_556 S
C3534 C3530 1.350 . S
C3534 C3531 1.466 . S
C3534 N3538 1.427 1_556 S
C3535 H3525 0.929 . S
C3535 C3533 1.433 1_554 S
C3535 N3538 1.384 . S
C3536 H3527 0.929 . S
C3536 C3528 1.378 . S
C3536 C3531 1.314 1_554 S
C3537 H3524 0.929 . S
C3537 C3529 1.479 . S
C3537 N3539 1.384 . S
N3538 C3534 1.427 1_554 S
N3538 C3535 1.384 . S
N3539 C3531 1.464 . S
N3539 C3537 1.384 . S
H3540 C3546 0.930 . S
H3541 C3550 0.930 . S
H3542 C3555 0.929 . S
H3543 C3553 0.929 . S
H3544 C3548 0.929 . S
H3545 C3554 0.929 . S
C3546 H3540 0.930 . S
C3546 C3547 1.367 . S
C3546 C3554 1.378 . S
C3547 C3546 1.367 . S
C3547 C3555 1.433 . S
C3548 H3544 0.929 . S
C3548 C3550 1.378 . S
C3548 C3552 1.350 . S
C3549 C3552 1.463 1_655 S
C3549 C3554 1.350 . S
C3549 N3557 1.427 . S
C3550 H3541 0.930 . S
C3550 C3548 1.378 . S
C3550 C3551 1.367 . S
C3551 C3550 1.367 . S
C3551 C3553 1.433 . S
C3552 C3548 1.350 . S
C3552 C3549 1.463 1_455 S
C3552 N3556 1.427 . S
C3553 H3543 0.929 . S
C3553 C3551 1.433 . S
C3553 N3556 1.384 . S
C3554 H3545 0.929 . S
C3554 C3546 1.378 . S
C3554 C3549 1.350 . S
C3555 H3542 0.929 . S
C3555 C3547 1.433 . S
C3555 N3557 1.384 . S
N3556 C3552 1.427 . S
N3556 C3553 1.384 . S
N3557 C3549 1.427 . S
N3557 C3555 1.384 . S
H3558 C3564 0.905 1_655 S
H3559 C3568 0.930 1_455 S
H3560 C3573 0.929 . S
H3561 C3571 0.929 . S
H3562 C3566 0.929 . S
H3563 C3572 0.929 . S
C3564 H3558 0.905 1_455 S
C3564 C3565 1.413 . S
C3564 C3572 1.358 1_455 S
C3565 C3564 1.413 . S
C3565 C3573 1.433 . S
C3566 H3562 0.929 . S
C3566 C3568 1.378 1_455 S
C3566 C3570 1.350 1_455 S
C3567 C3570 1.463 1_455 S
C3567 C3572 1.350 1_455 S
C3567 N3575 1.427 . S
C3568 H3559 0.930 1_655 S
C3568 C3566 1.378 1_655 S
C3568 C3569 1.367 . S
C3569 C3568 1.367 . S
C3569 C3571 1.433 . S
C3570 C3566 1.350 1_655 S
C3570 C3567 1.463 1_655 S
C3570 N3574 1.427 . S
C3571 H3561 0.929 . S
C3571 C3569 1.433 . S
C3571 N3574 1.384 . S
C3572 H3563 0.929 . S
C3572 C3564 1.358 1_655 S
C3572 C3567 1.350 1_655 S
C3573 H3560 0.929 . S
C3573 C3565 1.433 . S
C3573 N3575 1.384 . S
N3574 C3570 1.427 . S
N3574 C3571 1.384 . S
N3575 C3567 1.427 . S
N3575 C3573 1.384 . S
H3576 C3582 0.930 . S
H3577 C3586 0.930 . S
H3578 C3591 0.929 . S
H3579 C3589 0.929 . S
H3580 C3584 0.929 . S
H3581 C3590 0.929 . S
C3582 H3576 0.930 . S
C3582 C3583 1.367 . S
C3582 C3590 1.378 . S
C3583 C3582 1.367 . S
C3583 C3591 1.433 . S
C3584 H3580 0.929 . S
C3584 C3586 1.378 . S
C3584 C3588 1.350 . S
C3585 C3588 1.463 . S
C3585 C3590 1.350 . S
C3585 N3593 1.427 . S
C3586 H3577 0.930 . S
C3586 C3584 1.378 . S
C3586 C3587 1.367 . S
C3587 C3586 1.367 . S
C3587 C3589 1.433 . S
C3588 C3584 1.350 . S
C3588 C3585 1.463 . S
C3588 N3592 1.427 . S
C3589 H3579 0.929 . S
C3589 C3587 1.433 . S
C3589 N3592 1.384 . S
C3590 H3581 0.929 . S
C3590 C3582 1.378 . S
C3590 C3585 1.350 . S
C3591 H3578 0.929 . S
C3591 C3583 1.433 . S
C3591 N3593 1.384 . S
N3592 C3588 1.427 . S
N3592 C3589 1.384 . S
N3593 C3585 1.427 . S
N3593 C3591 1.384 . S
H3594 C3600 0.930 . S
H3595 C3604 0.930 . S
H3596 C3609 0.929 . S
H3597 C3607 0.929 . S
H3598 C3602 0.929 . S
H3599 C3608 0.929 . S
C3600 H3594 0.930 . S
C3600 C3601 1.367 . S
C3600 C3608 1.378 . S
C3601 C3600 1.367 . S
C3601 C3609 1.433 . S
C3602 H3598 0.929 . S
C3602 C3604 1.378 . S
C3602 C3606 1.350 . S
C3603 C3606 1.463 1_455 S
C3603 C3608 1.350 . S
C3603 N3611 1.427 . S
C3604 H3595 0.930 . S
C3604 C3602 1.378 . S
C3604 C3605 1.367 . S
C3605 C3604 1.367 . S
C3605 C3607 1.433 . S
C3606 C3602 1.350 . S
C3606 C3603 1.463 1_655 S
C3606 N3610 1.427 . S
C3607 H3597 0.929 . S
C3607 C3605 1.433 . S
C3607 N3610 1.384 . S
C3608 H3599 0.929 . S
C3608 C3600 1.378 . S
C3608 C3603 1.350 . S
C3609 H3596 0.929 . S
C3609 C3601 1.433 . S
C3609 N3611 1.384 . S
N3610 C3606 1.427 . S
N3610 C3607 1.384 . S
N3611 C3603 1.427 . S
N3611 C3609 1.384 . S
H3612 C3618 0.930 . S
H3613 C3622 0.930 . S
H3614 C3627 0.929 . S
H3615 C3625 0.929 . S
H3616 C3620 0.929 . S
H3617 C3626 0.929 . S
C3618 H3612 0.930 . S
C3618 C3619 1.367 . S
C3618 C3626 1.378 . S
C3619 C3618 1.367 . S
C3619 C3627 1.433 . S
C3620 H3616 0.929 . S
C3620 C3622 1.378 . S
C3620 C3624 1.350 . S
C3621 C3624 1.463 . S
C3621 C3626 1.350 . S
C3621 N3629 1.427 . S
C3622 H3613 0.930 . S
C3622 C3620 1.378 . S
C3622 C3623 1.367 . S
C3623 C3622 1.367 . S
C3623 C3625 1.433 . S
C3624 C3620 1.350 . S
C3624 C3621 1.463 . S
C3624 N3628 1.427 . S
C3625 H3615 0.929 . S
C3625 C3623 1.433 . S
C3625 N3628 1.384 . S
C3626 H3617 0.929 . S
C3626 C3618 1.378 . S
C3626 C3621 1.350 . S
C3627 H3614 0.929 . S
C3627 C3619 1.433 . S
C3627 N3629 1.384 . S
N3628 C3624 1.427 . S
N3628 C3625 1.384 . S
N3629 C3621 1.427 . S
N3629 C3627 1.384 . S
H3630 C3636 0.930 . S
H3631 C3640 0.930 . S
H3632 C3645 0.929 . S
H3633 C3643 0.929 . S
H3634 C3638 0.929 . S
H3635 C3644 0.929 . S
C3636 H3630 0.930 . S
C3636 C3637 1.367 . S
C3636 C3644 1.378 . S
C3637 C3636 1.367 . S
C3637 C3645 1.433 . S
C3638 H3634 0.929 . S
C3638 C3640 1.378 . S
C3638 C3642 1.350 . S
C3639 C3642 1.463 . S
C3639 C3644 1.350 . S
C3639 N3647 1.427 . S
C3640 H3631 0.930 . S
C3640 C3638 1.378 . S
C3640 C3641 1.367 . S
C3641 C3640 1.367 . S
C3641 C3643 1.433 . S
C3642 C3638 1.350 . S
C3642 C3639 1.463 . S
C3642 N3646 1.427 . S
C3643 H3633 0.929 . S
C3643 C3641 1.433 . S
C3643 N3646 1.384 . S
C3644 H3635 0.929 . S
C3644 C3636 1.378 . S
C3644 C3639 1.350 . S
C3645 H3632 0.929 . S
C3645 C3637 1.433 . S
C3645 N3647 1.384 . S
N3646 C3642 1.427 . S
N3646 C3643 1.384 . S
N3647 C3639 1.427 . S
N3647 C3645 1.384 . S
H3648 C3654 0.930 . S
H3649 C3658 0.930 . S
H3650 C3663 0.929 . S
H3651 C3661 0.929 . S
H3652 C3656 0.929 . S
H3653 C3662 0.929 . S
C3654 H3648 0.930 . S
C3654 C3655 1.367 . S
C3654 C3662 1.378 . S
C3655 C3654 1.367 . S
C3655 C3663 1.433 . S
C3656 H3652 0.929 . S
C3656 C3658 1.378 . S
C3656 C3660 1.350 . S
C3657 C3660 1.463 1_554 S
C3657 C3662 1.350 . S
C3657 N3665 1.427 . S
C3658 H3649 0.930 . S
C3658 C3656 1.378 . S
C3658 C3659 1.367 . S
C3659 C3658 1.367 . S
C3659 C3661 1.433 . S
C3660 C3656 1.350 . S
C3660 C3657 1.463 1_556 S
C3660 N3664 1.427 . S
C3661 H3651 0.929 . S
C3661 C3659 1.433 . S
C3661 N3664 1.384 . S
C3662 H3653 0.929 . S
C3662 C3654 1.378 . S
C3662 C3657 1.350 . S
C3663 H3650 0.929 . S
C3663 C3655 1.433 . S
C3663 N3665 1.384 . S
N3664 C3660 1.427 . S
N3664 C3661 1.384 . S
N3665 C3657 1.427 . S
N3665 C3663 1.384 . S
H3666 C3672 0.930 . S
H3667 C3676 0.930 . S
H3668 C3681 0.929 . S
H3669 C3679 0.929 . S
H3670 C3674 0.929 . S
H3671 C3680 0.929 . S
C3672 H3666 0.930 . S
C3672 C3673 1.367 . S
C3672 C3680 1.378 . S
C3673 C3672 1.367 . S
C3673 C3681 1.433 1_655 S
C3674 H3670 0.929 . S
C3674 C3676 1.378 . S
C3674 C3678 1.350 1_455 S
C3675 C3678 1.463 . S
C3675 C3680 1.350 . S
C3675 N3683 1.427 1_655 S
C3676 H3667 0.930 . S
C3676 C3674 1.378 . S
C3676 C3677 1.367 1_455 S
C3677 C3676 1.367 1_655 S
C3677 C3679 1.433 . S
C3678 C3674 1.350 1_655 S
C3678 C3675 1.463 . S
C3678 N3682 1.427 . S
C3679 H3669 0.929 . S
C3679 C3677 1.433 . S
C3679 N3682 1.384 . S
C3680 H3671 0.929 . S
C3680 C3672 1.378 . S
C3680 C3675 1.350 . S
C3681 H3668 0.929 . S
C3681 C3673 1.433 1_455 S
C3681 N3683 1.384 . S
N3682 C3678 1.427 . S
N3682 C3679 1.384 . S
N3683 C3675 1.427 1_455 S
N3683 C3681 1.384 . S
H3684 C3690 0.930 . S
H3685 C3694 0.930 . S
H3686 C3699 0.929 . S
H3687 C3697 0.929 . S
H3688 C3692 0.929 . S
H3689 C3698 0.929 . S
C3690 H3684 0.930 . S
C3690 C3691 1.367 . S
C3690 C3698 1.378 . S
C3691 C3690 1.367 . S
C3691 C3699 1.433 . S
C3692 H3688 0.929 . S
C3692 C3694 1.378 . S
C3692 C3696 1.350 . S
C3693 C3696 1.463 . S
C3693 C3698 1.350 . S
C3693 N3701 1.427 . S
C3694 H3685 0.930 . S
C3694 C3692 1.378 . S
C3694 C3695 1.367 . S
C3695 C3694 1.367 . S
C3695 C3697 1.433 . S
C3696 C3692 1.350 . S
C3696 C3693 1.463 . S
C3696 N3700 1.427 . S
C3697 H3687 0.929 . S
C3697 C3695 1.433 . S
C3697 N3700 1.384 . S
C3698 H3689 0.929 . S
C3698 C3690 1.378 . S
C3698 C3693 1.350 . S
C3699 H3686 0.929 . S
C3699 C3691 1.433 . S
C3699 N3701 1.384 . S
N3700 C3696 1.427 . S
N3700 C3697 1.384 . S
N3701 C3693 1.427 . S
N3701 C3699 1.384 . S
H3702 C3708 0.930 . S
H3703 C3712 0.930 . S
H3704 C3717 0.929 . S
H3705 C3715 0.929 . S
H3706 C3710 0.929 . S
H3707 C3716 0.929 . S
C3708 H3702 0.930 . S
C3708 C3709 1.367 . S
C3708 C3716 1.378 . S
C3709 C3708 1.367 . S
C3709 C3717 1.433 . S
C3710 H3706 0.929 . S
C3710 C3712 1.378 . S
C3710 C3714 1.350 . S
C3711 C3714 1.463 . S
C3711 C3716 1.350 . S
C3711 N3719 1.427 . S
C3712 H3703 0.930 . S
C3712 C3710 1.378 . S
C3712 C3713 1.367 . S
C3713 C3712 1.367 . S
C3713 C3715 1.433 . S
C3714 C3710 1.350 . S
C3714 C3711 1.463 . S
C3714 N3718 1.427 . S
C3715 H3705 0.929 . S
C3715 C3713 1.433 . S
C3715 N3718 1.384 . S
C3716 H3707 0.929 . S
C3716 C3708 1.378 . S
C3716 C3711 1.350 . S
C3717 H3704 0.929 . S
C3717 C3709 1.433 . S
C3717 N3719 1.384 . S
N3718 C3714 1.427 . S
N3718 C3715 1.384 . S
N3719 C3711 1.427 . S
N3719 C3717 1.384 . S
H3720 C3726 0.930 . S
H3721 C3730 0.930 . S
H3722 C3735 0.929 . S
H3723 C3733 0.929 . S
H3724 C3728 0.929 . S
H3725 C3734 0.929 . S
C3726 H3720 0.930 . S
C3726 C3727 1.367 . S
C3726 C3734 1.378 . S
C3727 C3726 1.367 . S
C3727 C3735 1.433 . S
C3728 H3724 0.929 . S
C3728 C3730 1.378 . S
C3728 C3732 1.350 . S
C3729 C3732 1.463 . S
C3729 C3734 1.350 . S
C3729 N3737 1.427 . S
C3730 H3721 0.930 . S
C3730 C3728 1.378 . S
C3730 C3731 1.367 . S
C3731 C3730 1.367 . S
C3731 C3733 1.433 . S
C3732 C3728 1.350 . S
C3732 C3729 1.463 . S
C3732 N3736 1.427 . S
C3733 H3723 0.929 . S
C3733 C3731 1.433 . S
C3733 N3736 1.384 . S
C3734 H3725 0.929 . S
C3734 C3726 1.378 . S
C3734 C3729 1.350 . S
C3735 H3722 0.929 . S
C3735 C3727 1.433 . S
C3735 N3737 1.384 . S
N3736 C3732 1.427 . S
N3736 C3733 1.384 . S
N3737 C3729 1.427 . S
N3737 C3735 1.384 . S
H3738 C3744 0.930 . S
H3739 C3748 0.930 . S
H3740 C3753 0.929 . S
H3741 C3751 0.929 . S
H3742 C3746 0.929 . S
H3743 C3752 0.921 1_554 S
C3744 H3738 0.930 . S
C3744 C3745 1.367 . S
C3744 C3752 1.383 . S
C3745 C3744 1.367 . S
C3745 C3753 1.433 . S
C3746 H3742 0.929 . S
C3746 C3748 1.378 1_556 S
C3746 C3750 1.350 1_556 S
C3747 C3750 1.463 1_556 S
C3747 C3752 1.353 . S
C3747 N3755 1.427 . S
C3748 H3739 0.930 . S
C3748 C3746 1.378 1_554 S
C3748 C3749 1.367 . S
C3749 C3748 1.367 . S
C3749 C3751 1.433 . S
C3750 C3746 1.350 1_554 S
C3750 C3747 1.463 1_554 S
C3750 N3754 1.427 . S
C3751 H3741 0.929 . S
C3751 C3749 1.433 . S
C3751 N3754 1.384 . S
C3752 H3743 0.921 1_556 S
C3752 C3744 1.383 . S
C3752 C3747 1.353 . S
C3753 H3740 0.929 . S
C3753 C3745 1.433 . S
C3753 N3755 1.384 . S
N3754 C3750 1.427 . S
N3754 C3751 1.384 . S
N3755 C3747 1.427 . S
N3755 C3753 1.384 . S
H3756 C3762 0.930 . S
H3757 C3766 0.930 . S
H3758 C3771 0.929 . S
H3759 C3769 0.929 . S
H3760 C3764 0.929 . S
H3761 C3770 0.929 . S
C3762 H3756 0.930 . S
C3762 C3763 1.367 . S
C3762 C3770 1.378 . S
C3763 C3762 1.367 . S
C3763 C3771 1.433 . S
C3764 H3760 0.929 . S
C3764 C3766 1.378 . S
C3764 C3768 1.350 . S
C3765 C3768 1.463 . S
C3765 C3770 1.350 . S
C3765 N3773 1.427 . S
C3766 H3757 0.930 . S
C3766 C3764 1.378 . S
C3766 C3767 1.367 . S
C3767 C3766 1.367 . S
C3767 C3769 1.433 . S
C3768 C3764 1.350 . S
C3768 C3765 1.463 . S
C3768 N3772 1.427 . S
C3769 H3759 0.929 . S
C3769 C3767 1.433 . S
C3769 N3772 1.384 . S
C3770 H3761 0.929 . S
C3770 C3762 1.378 . S
C3770 C3765 1.350 . S
C3771 H3758 0.929 . S
C3771 C3763 1.433 . S
C3771 N3773 1.384 . S
N3772 C3768 1.427 . S
N3772 C3769 1.384 . S
N3773 C3765 1.427 . S
N3773 C3771 1.384 . S
H3774 C3780 0.930 . S
H3775 C3784 0.930 . S
H3776 C3789 0.929 . S
H3777 C3787 0.929 . S
H3778 C3782 0.929 . S
H3779 C3788 0.929 . S
C3780 H3774 0.930 . S
C3780 C3781 1.367 . S
C3780 C3788 1.378 . S
C3781 C3780 1.367 . S
C3781 C3789 1.433 . S
C3782 H3778 0.929 . S
C3782 C3784 1.378 . S
C3782 C3786 1.350 . S
C3783 C3786 1.463 . S
C3783 C3788 1.350 . S
C3783 N3791 1.427 . S
C3784 H3775 0.930 . S
C3784 C3782 1.378 . S
C3784 C3785 1.367 . S
C3785 C3784 1.367 . S
C3785 C3787 1.433 . S
C3786 C3782 1.350 . S
C3786 C3783 1.463 . S
C3786 N3790 1.427 . S
C3787 H3777 0.929 . S
C3787 C3785 1.433 . S
C3787 N3790 1.384 . S
C3788 H3779 0.929 . S
C3788 C3780 1.378 . S
C3788 C3783 1.350 . S
C3789 H3776 0.929 . S
C3789 C3781 1.433 . S
C3789 N3791 1.384 . S
N3790 C3786 1.427 . S
N3790 C3787 1.384 . S
N3791 C3783 1.427 . S
N3791 C3789 1.384 . S
C1639 C20 1.160 . S
C1643 C349 1.133 . S
C1657 C383 1.117 . S
C1661 C54 1.155 . S
C1675 C281 1.119 1_556 S
C1679 C88 1.154 . S
C1693 C315 1.121 . S
C1697 C122 1.155 . S
C1711 C485 1.136 1_554 S
C1715 C156 1.163 . S
C1729 C190 1.157 . S
C1733 C519 1.118 . S
C1747 C417 1.133 . S
C1751 C224 1.160 . S
C1765 C451 1.130 . S
C1769 C258 1.164 . S
C1783 C292 1.158 . S
C1787 C587 1.129 . S
C1801 C326 1.165 . S
C1805 C621 1.138 . S
C1819 C655 1.124 1_455 S
C1823 C360 1.156 . S
C1837 C394 1.164 . S
C1841 C1505 1.129 . S
C1855 C1369 1.134 . S
C1859 C428 1.161 . S
C1873 C462 1.162 . S
C1877 C791 1.125 . S
C1891 C496 1.163 . S
C1895 C1539 1.126 1_455 S
C1909 C757 1.117 . S
C1913 C530 1.155 . S
C1927 C564 1.154 . S
C1931 C1029 1.117 . S
C1945 C77 1.118 1_545 S
C1949 C598 1.154 . S
C1963 C111 1.134 . S
C1967 C632 1.166 . S
C1981 C9 1.119 1_565 S
C1985 C666 1.158 . S
C1999 C700 1.156 . S
C2003 C859 1.125 . S
C2017 C734 1.157 . S
C2021 C961 1.118 . S
C2035 C179 1.128 . S
C2039 C768 1.163 . S
C2053 C247 1.124 . S
C2057 C802 1.161 . S
C2071 C836 1.160 . S
C2075 C1165 1.122 1_556 S
C2089 C870 1.163 . S
C2093 C1199 1.137 . S
C2107 C1097 1.134 . S
C2111 C904 1.161 . S
C2125 C1131 1.129 . S
C2129 C938 1.164 . S
C2143 C1301 1.134 . S
C2147 C972 1.161 . S
C2161 C1335 1.136 . S
C2165 C1006 1.166 . S
C2179 C1233 1.134 1_554 S
C2183 C1040 1.161 . S
C2197 C1074 1.156 . S
C2201 C1267 1.117 . S
C2215 C1108 1.155 . S
C2219 C1403 1.123 1_655 S
C2233 C1437 1.130 . S
C2237 C1142 1.159 . S
C2251 C1176 1.160 . S
C2255 C1471 1.122 . S
C2269 C1210 1.157 . S
C2273 C689 1.118 . S
C2287 C1244 1.161 . S
C2291 C553 1.135 1_655 S
C2305 C1278 1.155 . S
C2309 C1607 1.123 . S
C2323 C723 1.124 . S
C2327 C1312 1.161 . S
C2341 C1573 1.137 . S
C2345 C1346 1.166 . S
C2359 C1380 1.166 . S
C2363 C213 1.138 1_565 S
C2377 C893 1.133 . S
C2381 C1414 1.165 . S
C2395 C1448 1.162 . S
C2399 C927 1.136 . S
C2413 C1482 1.162 . S
C2417 C825 1.125 . S
C2431 C43 1.120 . S
C2435 C1516 1.159 . S
C2449 C1550 1.165 . S
C2453 C145 1.131 1_545 S
C2467 C1584 1.163 . S
C2471 C995 1.128 . S
C2485 C1063 1.138 . S
C2489 C1618 1.165 . S
C2503 C311 1.460 . S
C2507 C5 1.454 . S
C2521 C39 1.458 . S
C2525 C345 1.463 . S
C2539 C379 1.455 . S
C2543 C73 1.448 . S
C2557 C277 1.456 . S
C2561 C107 1.449 . S
C2575 C141 1.465 . S
C2579 C515 1.465 . S
C2593 C175 1.443 . S
C2597 C413 1.442 . S
C2611 C447 1.442 . S
C2615 C209 1.443 . S
C2629 C243 1.443 . S
C2633 C481 1.449 . S
C2647 C617 1.449 . S
C2651 C549 1.456 . S
C2665 C583 1.463 . S
C2669 C1569 1.465 . S
C2683 C1603 1.455 . S
C2687 C651 1.448 . S
C2701 C685 1.465 . S
C2705 C1535 1.462 . S
C2719 C1501 1.460 . S
C2723 C719 1.464 . S
C2737 C1399 1.465 . S
C2741 C753 1.465 . S
C2755 C787 1.449 . S
C2759 C1467 1.456 . S
C2773 C821 1.449 . S
C2777 C1127 1.443 . S
C2791 C1161 1.455 . S
C2795 C855 1.448 . S
C2809 C1195 1.451 . S
C2813 C889 1.458 . S
C2827 C923 1.463 . S
C2831 C1093 1.458 . S
C2845 C1331 1.463 . S
C2849 C957 1.465 . S
C2863 C1229 1.458 . S
C2867 C991 1.451 . S
C2881 C1025 1.450 . S
C2885 C1263 1.444 . S
C2899 C1297 1.449 . S
C2903 C1059 1.456 . S
C2917 C1433 1.453 . S
C2921 C1365 1.446 . S
C2935 C713 1.420 . S
C2939 C33 1.426 . S
C2953 C67 1.426 . S
C2957 C1427 1.426 . S
C2971 C101 1.426 . S
C2975 C1461 1.426 . S
C2989 C1495 1.425 . S
C2993 C135 1.419 . S
C3007 C1631 1.423 . S
C3011 C169 1.427 . S
C3025 C747 1.414 . S
C3029 C203 1.416 . S
C3043 C237 1.421 . S
C3047 C1597 1.415 . S
C3061 C271 1.425 . S
C3065 C577 1.419 . S
C3079 C543 1.427 . S
C3083 C305 1.422 . S
C3097 C339 1.425 . S
C3101 C441 1.427 . S
C3115 C373 1.414 . S
C3119 C475 1.417 . S
C3133 C509 1.426 . S
C3137 C407 1.420 . S
C3151 C883 1.423 . S
C3155 C611 1.427 . S
C3169 C645 1.424 . S
C3173 C917 1.427 . S
C3187 C679 1.414 . S
C3191 C951 1.416 . S
C3205 C781 1.421 . S
C3209 C1053 1.426 . S
C3223 C985 1.417 . S
C3227 C815 1.414 . S
C3241 C849 1.414 . S
C3245 C1529 1.417 . S
C3259 C1563 1.427 . S
C3263 C1019 1.422 . S
C3277 C1393 1.414 . S
C3281 C1087 1.420 . S
C3295 C1121 1.425 . S
C3299 C1359 1.418 . S
C3313 C1257 1.425 . S
C3317 C1155 1.427 . S
C3331 C1189 1.423 . S
C3335 C1291 1.427 . S
C3349 C1223 1.427 . S
C3353 C1325 1.422 . S
C3367 C138 2.355 1_655 S
C3371 C2 2.355 1_655 S
C3385 C172 2.358 . S
C3389 C36 2.360 . S
C3403 C206 2.357 . S
C3407 C70 2.358 . S
C3421 C240 2.359 . S
C3425 C104 2.359 . S
C3439 C478 2.356 1_565 S
C3443 C274 2.356 1_565 S
C3457 C308 2.359 . S
C3461 C512 2.360 . S
C3475 C342 2.358 . S
C3479 C410 2.357 . S
C3493 C444 2.360 . S
C3497 C376 2.359 . S
C3511 C546 2.356 1_556 S
C3515 C1532 2.357 1_556 S
C3529 C580 2.363 . S
C3533 C1464 2.357 . S
C3547 C682 2.358 . S
C3551 C614 2.360 . S
C3565 C1396 2.359 . S
C3569 C648 2.360 . S
C3583 C1362 2.358 . S
C3587 C716 2.360 . S
C3601 C750 2.358 . S
C3605 C1600 2.360 . S
C3619 C1566 2.360 . S
C3623 C784 2.357 . S
C3637 C954 2.357 . S
C3641 C818 2.358 . S
C3655 C852 2.359 . S
C3659 C988 2.360 . S
C3673 C886 2.357 . S
C3677 C1022 2.358 . S
C3691 C920 2.359 . S
C3695 C1056 2.357 . S
C3709 C1090 2.360 . S
C3713 C1294 2.357 . S
C3727 C1124 2.357 . S
C3731 C1328 2.358 . S
C3745 C1226 2.358 . S
C3749 C1158 2.360 . S
C3763 C1192 2.360 . S
C3767 C1260 2.359 . S
C3781 C1498 2.360 . S
C3785 C1430 2.357 . S
