# Generated by pormake.
# Topology wkj, (6)-cn, num edge types: 1
# Building blocks:
#     Node 0, Type 0, BuildingBlock: FUNLAD_clean_sbu_0, # of connection points: 6
#     Node 1, Type 0, BuildingBlock: FUNLAD_clean_sbu_0, # of connection points: 6
#     Node 2, Type 0, BuildingBlock: FUNLAD_clean_sbu_0, # of connection points: 6
#     Node 3, Type 0, BuildingBlock: FUNLAD_clean_sbu_0, # of connection points: 6
#     Node 4, Type 0, BuildingBlock: FUNLAD_clean_sbu_0, # of connection points: 6
#     Node 5, Type 0, BuildingBlock: FUNLAD_clean_sbu_0, # of connection points: 6
#     Node 6, Type 0, BuildingBlock: FUNLAD_clean_sbu_0, # of connection points: 6
#     Node 7, Type 0, BuildingBlock: FUNLAD_clean_sbu_0, # of connection points: 6
#     Node 8, Type 0, BuildingBlock: FUNLAD_clean_sbu_0, # of connection points: 6
#     Node 9, Type 0, BuildingBlock: FUNLAD_clean_sbu_0, # of connection points: 6
#     Node 10, Type 0, BuildingBlock: FUNLAD_clean_sbu_0, # of connection points: 6
#     Node 11, Type 0, BuildingBlock: FUNLAD_clean_sbu_0, # of connection points: 6
#     Edge 12, Type (0, 0), BuildingBlock: XIVTED_clean_linker_0, # of connection points: 2
#     Edge 13, Type (0, 0), BuildingBlock: XIVTED_clean_linker_0, # of connection points: 2
#     Edge 14, Type (0, 0), BuildingBlock: XIVTED_clean_linker_0, # of connection points: 2
#     Edge 15, Type (0, 0), BuildingBlock: XIVTED_clean_linker_0, # of connection points: 2
#     Edge 16, Type (0, 0), BuildingBlock: XIVTED_clean_linker_0, # of connection points: 2
#     Edge 17, Type (0, 0), BuildingBlock: XIVTED_clean_linker_0, # of connection points: 2
#     Edge 18, Type (0, 0), BuildingBlock: XIVTED_clean_linker_0, # of connection points: 2
#     Edge 19, Type (0, 0), BuildingBlock: XIVTED_clean_linker_0, # of connection points: 2
#     Edge 20, Type (0, 0), BuildingBlock: XIVTED_clean_linker_0, # of connection points: 2
#     Edge 21, Type (0, 0), BuildingBlock: XIVTED_clean_linker_0, # of connection points: 2
#     Edge 22, Type (0, 0), BuildingBlock: XIVTED_clean_linker_0, # of connection points: 2
#     Edge 23, Type (0, 0), BuildingBlock: XIVTED_clean_linker_0, # of connection points: 2
#     Edge 24, Type (0, 0), BuildingBlock: XIVTED_clean_linker_0, # of connection points: 2
#     Edge 25, Type (0, 0), BuildingBlock: XIVTED_clean_linker_0, # of connection points: 2
#     Edge 26, Type (0, 0), BuildingBlock: XIVTED_clean_linker_0, # of connection points: 2
#     Edge 27, Type (0, 0), BuildingBlock: XIVTED_clean_linker_0, # of connection points: 2
#     Edge 28, Type (0, 0), BuildingBlock: XIVTED_clean_linker_0, # of connection points: 2
#     Edge 29, Type (0, 0), BuildingBlock: XIVTED_clean_linker_0, # of connection points: 2
#     Edge 30, Type (0, 0), BuildingBlock: XIVTED_clean_linker_0, # of connection points: 2
#     Edge 31, Type (0, 0), BuildingBlock: XIVTED_clean_linker_0, # of connection points: 2
#     Edge 32, Type (0, 0), BuildingBlock: XIVTED_clean_linker_0, # of connection points: 2
#     Edge 33, Type (0, 0), BuildingBlock: XIVTED_clean_linker_0, # of connection points: 2
#     Edge 34, Type (0, 0), BuildingBlock: XIVTED_clean_linker_0, # of connection points: 2
#     Edge 35, Type (0, 0), BuildingBlock: XIVTED_clean_linker_0, # of connection points: 2
#     Edge 36, Type (0, 0), BuildingBlock: XIVTED_clean_linker_0, # of connection points: 2
#     Edge 37, Type (0, 0), BuildingBlock: XIVTED_clean_linker_0, # of connection points: 2
#     Edge 38, Type (0, 0), BuildingBlock: XIVTED_clean_linker_0, # of connection points: 2
#     Edge 39, Type (0, 0), BuildingBlock: XIVTED_clean_linker_0, # of connection points: 2
#     Edge 40, Type (0, 0), BuildingBlock: XIVTED_clean_linker_0, # of connection points: 2
#     Edge 41, Type (0, 0), BuildingBlock: XIVTED_clean_linker_0, # of connection points: 2
#     Edge 42, Type (0, 0), BuildingBlock: XIVTED_clean_linker_0, # of connection points: 2
#     Edge 43, Type (0, 0), BuildingBlock: XIVTED_clean_linker_0, # of connection points: 2
#     Edge 44, Type (0, 0), BuildingBlock: XIVTED_clean_linker_0, # of connection points: 2
#     Edge 45, Type (0, 0), BuildingBlock: XIVTED_clean_linker_0, # of connection points: 2
#     Edge 46, Type (0, 0), BuildingBlock: XIVTED_clean_linker_0, # of connection points: 2
#     Edge 47, Type (0, 0), BuildingBlock: XIVTED_clean_linker_0, # of connection points: 2
# Relax obj value: 1.258
# Max RMSD: 0.250
# Mean RMSD: 0.250
data_MOF--net-wkj--node1-FUNLAD_clean_sbu_0--edge1-XIVTED_clean_linker_0
_symmetry_space_group_name_H-M    P1
_symmetry_Int_Tables_number       1
_symmetry_cell_setting            triclinic
loop_
_symmetry_equiv_pos_as_xyz
'x, y, z'
_cell_length_a     68.577045
_cell_length_b     68.629759
_cell_length_c     21.496861
_cell_angle_alpha  90.034443
_cell_angle_beta   89.918909
_cell_angle_gamma 120.03962
loop_
_atom_site_label
_atom_site_type_symbol
_atom_site_fract_x
_atom_site_fract_y
_atom_site_fract_z
_atom_type_partial_charge
C0 C 0.51268 0.0938 0.16835 0.0
N1 N 0.48343 0.13503 0.22465 0.0
C2 C 0.503 0.15309 0.20445 0.0
C3 C 0.50398 0.17353 0.18931 0.0
C4 C 0.48474 0.17585 0.19567 0.0
C5 C 0.46481 0.1568 0.21671 0.0
C6 C 0.46448 0.13661 0.23027 0.0
Zn7 Zn 0.48224 0.1047 0.25037 0.0
C8 C 0.44661 0.06407 0.18169 0.0
N9 N 0.47857 0.0429 0.30783 0.0
C10 C 0.46588 0.02248 0.27975 0.0
C11 C 0.48383 0.04412 0.36931 0.0
C12 C 0.47561 0.02489 0.40528 0.0
C13 C 0.46148 1.00369 0.37893 0.0
C14 C 0.45728 1.00249 0.31463 0.0
Zn15 Zn 0.48228 0.07271 0.27299 0.0
O16 O 0.50748 0.10903 0.17931 0.0
C17 C 0.51833 0.112 0.34207 0.0
O18 O 0.50358 0.07578 0.2005 0.0
H19 H 0.49295 0.06007 0.39279 0.0
H20 H 0.51801 0.15176 0.20023 0.0
H21 H 0.46137 0.02162 0.23125 0.0
O22 O 0.50928 0.12266 0.31863 0.0
O23 O 0.51064 0.09152 0.32837 0.0
H24 H 0.44898 0.12223 0.24607 0.0
O25 O 0.46117 0.06938 0.34422 0.0
O26 O 0.45663 0.09799 0.32279 0.0
O27 O 0.45447 0.05477 0.21651 0.0
O28 O 0.45537 0.08546 0.18315 0.0
C29 C 0.45176 0.08069 0.3557 0.0
H30 H 0.51974 0.18728 0.17235 0.0
H31 H 0.44951 0.1574 0.22397 0.0
H32 H 0.48029 0.0268 0.45395 0.0
H33 H 0.44701 0.9864 0.29206 0.0
C34 C 0.43261 0.50316 0.5038 0.0
N35 N 0.36441 0.47377 0.57221 0.0
C36 C 0.36541 0.49405 0.56649 0.0
C37 C 0.34592 0.49522 0.55334 0.0
C38 C 0.32499 0.47535 0.54564 0.0
C39 C 0.32451 0.4547 0.55258 0.0
C40 C 0.34435 0.4543 0.56577 0.0
Zn41 Zn 0.39369 0.47185 0.58809 0.0
C42 C 0.39564 0.43651 0.51081 0.0
N43 N 0.45229 0.46649 0.61997 0.0
C44 C 0.47333 0.4847 0.62006 0.0
C45 C 0.44849 0.44585 0.63853 0.0
C46 C 0.46577 0.44351 0.66516 0.0
C47 C 0.48724 0.46244 0.67029 0.0
C48 C 0.49117 0.48295 0.64443 0.0
Zn49 Zn 0.42523 0.47056 0.60364 0.0
O50 O 0.41253 0.49813 0.51844 0.0
C51 C 0.42574 0.50622 0.68235 0.0
O52 O 0.44147 0.49299 0.53064 0.0
H53 H 0.43166 0.43142 0.63713 0.0
H54 H 0.38143 0.50941 0.57139 0.0
H55 H 0.47598 0.50093 0.60547 0.0
O56 O 0.40568 0.49815 0.66128 0.0
O57 O 0.43759 0.4978 0.66456 0.0
H58 H 0.34371 0.4383 0.57044 0.0
O59 O 0.40932 0.44876 0.67615 0.0
O60 O 0.3762 0.44502 0.65771 0.0
O61 O 0.41326 0.44365 0.54335 0.0
O62 O 0.38368 0.44591 0.51599 0.0
C63 C 0.38855 0.43934 0.68807 0.0
H64 H 0.3474 0.51158 0.54787 0.0
H65 H 0.30888 0.43887 0.54828 0.0
H66 H 0.46206 0.42757 0.68549 0.0
H67 H 0.50737 0.49809 0.64898 0.0
C68 C 0.94736 0.42724 0.83735 0.0
N69 N 0.90897 0.3589 0.90588 0.0
C70 C 0.88967 0.3599 0.90126 0.0
C71 C 0.86893 0.34045 0.88822 0.0
C72 C 0.86779 0.31952 0.8797 0.0
C73 C 0.88804 0.31908 0.88519 0.0
C74 C 0.90837 0.33889 0.89825 0.0
Zn75 Zn 0.94043 0.38815 0.92044 0.0
C76 C 0.97646 0.39003 0.83746 0.0
N77 N 1.00508 0.44612 0.9484 0.0
C78 C 1.00846 0.46725 0.95422 0.0
C79 C 0.02175 0.44141 0.96205 0.0
C80 C 0.04177 0.45763 0.98962 0.0
C81 C 0.04491 0.47905 1.00068 0.0
C82 C 0.0285 0.48412 0.9797 0.0
Zn83 Zn 0.97353 0.41958 0.93355 0.0
O84 O 0.93242 0.40719 0.85265 0.0
C85 C 0.93918 0.4204 0.01613 0.0
O86 O 0.96673 0.43608 0.86249 0.0
H87 H 1.01886 0.42451 0.95647 0.0
H88 H 0.89033 0.37588 0.9072 0.0
H89 H 0.99501 0.47061 0.94358 0.0
O90 O 0.92691 0.40028 0.99576 0.0
O91 O 0.95935 0.43204 0.997 0.0
H92 H 0.92379 0.33828 0.9014 0.0
O93 O 0.98021 0.4037 1.00438 0.0
O94 O 0.95069 0.37052 0.98855 0.0
O95 O 0.98758 0.40751 0.87007 0.0
O96 O 0.95522 0.37813 0.84544 0.0
C97 C 0.96918 0.38303 0.01711 0.0
H98 H 0.85391 0.34182 0.88535 0.0
H99 H 0.88837 0.30363 0.87814 0.0
H100 H 0.05386 0.45305 0.0061 0.0
H101 H 0.03008 0.50031 0.98897 0.0
C102 C 0.53 0.936 0.16958 0.0
N103 N 0.56622 0.90295 0.22826 0.0
C104 C 0.54648 0.88306 0.22329 0.0
C105 C 0.54637 0.863 0.20956 0.0
C106 C 0.56678 0.86309 0.20072 0.0
C107 C 0.58692 0.88392 0.20615 0.0
C108 C 0.58626 0.90363 0.21984 0.0
Zn109 Zn 0.56508 0.93226 0.24987 0.0
C110 C 0.59646 0.97269 0.17082 0.0
N111 N 0.56065 0.99124 0.29432 0.0
C112 C 0.53935 0.98773 0.29901 0.0
C113 C 0.57702 1.00549 0.33453 0.0
C114 C 0.5709 1.01094 0.39126 0.0
C115 C 0.54816 1.0035 0.40227 0.0
C116 C 0.53274 0.99398 0.35314 0.0
Zn117 Zn 0.56222 0.96323 0.26618 0.0
O118 O 0.53819 0.9233 0.18173 0.0
C119 C 0.53044 0.92483 0.3471 0.0
O120 O 0.53758 0.95467 0.19786 0.0
H121 H 0.59423 1.00933 0.32824 0.0
H122 H 0.53067 0.88268 0.2303 0.0
H123 H 0.52648 0.97665 0.2668 0.0
O124 O 0.5396 0.91434 0.323 0.0
O125 O 0.53696 0.94483 0.33055 0.0
H126 H 0.60183 0.91951 0.22373 0.0
O127 O 0.58668 0.97097 0.33301 0.0
O128 O 0.59247 0.94275 0.31769 0.0
O129 O 0.58732 0.98161 0.20246 0.0
O130 O 0.59011 0.95185 0.17847 0.0
C131 C 0.59751 0.96109 0.34545 0.0
H132 H 0.53037 0.84748 0.20693 0.0
H133 H 0.60311 0.88509 0.19906 0.0
H134 H 0.58327 0.01866 0.42793 0.0
H135 H 0.51501 0.98823 0.36024 0.0
C136 C 0.61203 0.53025 0.48347 0.0
N137 N 0.67834 0.55669 0.56478 0.0
C138 C 0.67763 0.53666 0.55622 0.0
C139 C 0.69749 0.53598 0.54438 0.0
C140 C 0.71843 0.5561 0.54086 0.0
C141 C 0.71857 0.57644 0.55096 0.0
C142 C 0.69841 0.57635 0.56274 0.0
Zn143 Zn 0.64906 0.55895 0.57625 0.0
C144 C 0.65033 0.59549 0.49549 0.0
N145 N 0.59153 0.56703 0.59553 0.0
C146 C 0.57066 0.54865 0.59823 0.0
C147 C 0.59587 0.58701 0.62113 0.0
C148 C 0.58107 0.5873 0.66519 0.0
C149 C 0.56143 0.56709 0.67904 0.0
C150 C 0.55481 0.54866 0.63849 0.0
Zn151 Zn 0.61823 0.56211 0.58364 0.0
O152 O 0.6311 0.53353 0.50283 0.0
C153 C 0.61492 0.52538 0.66652 0.0
O154 O 0.60327 0.54073 0.50902 0.0
H155 H 0.61237 0.60177 0.61615 0.0
H156 H 0.66159 0.52116 0.55749 0.0
H157 H 0.56745 0.53301 0.57711 0.0
O158 O 0.63501 0.53229 0.64726 0.0
O159 O 0.60408 0.53454 0.64596 0.0
H160 H 0.69881 0.59217 0.56943 0.0
O161 O 0.63288 0.58315 0.65714 0.0
O162 O 0.66551 0.58487 0.65048 0.0
O163 O 0.63202 0.58918 0.52419 0.0
O164 O 0.66135 0.58536 0.50533 0.0
C165 C 0.6528 0.59127 0.67585 0.0
H166 H 0.69631 0.51985 0.53643 0.0
H167 H 0.73418 0.5924 0.54996 0.0
H168 H 0.58662 0.60193 0.69478 0.0
H169 H 0.53962 0.5328 0.64695 0.0
C170 C 0.0993 0.60761 0.80173 0.0
N171 N 0.13935 0.67345 0.88638 0.0
C172 C 0.15862 0.67291 0.87481 0.0
C173 C 0.17896 0.69282 0.86151 0.0
C174 C 0.17973 0.71375 0.85989 0.0
C175 C 0.15956 0.71372 0.87278 0.0
C176 C 0.13964 0.69346 0.88581 0.0
Zn177 Zn 0.10819 0.64359 0.90004 0.0
C178 C 0.07103 0.64436 0.82863 0.0
N179 N 0.04442 0.58467 0.92454 0.0
C180 C 0.04286 0.5642 0.92443 0.0
C181 C 0.0293 0.58829 0.95641 0.0
C182 C 1.01608 0.57323 1.00282 0.0
C183 C 1.01765 0.55391 0.01225 0.0
C184 C 0.02887 0.54811 0.96735 0.0
Zn185 Zn 0.07533 0.61206 0.90913 0.0
O186 O 0.11527 0.62621 0.82325 0.0
C187 C 0.1109 0.60919 0.98204 0.0
O188 O 0.0801 0.59859 0.82783 0.0
H189 H 0.03034 0.60453 0.95414 0.0
H190 H 0.15822 0.65695 0.87514 0.0
H191 H 0.05493 0.56162 0.89858 0.0
O192 O 0.12258 0.63007 0.9678 0.0
O193 O 0.09105 0.59757 0.96074 0.0
H194 H 0.12423 0.69373 0.89439 0.0
O195 O 0.07046 0.62501 0.99 0.0
O196 O 0.09864 0.65915 0.97681 0.0
O197 O 0.05989 0.62624 0.85889 0.0
O198 O 0.09244 0.65527 0.83314 0.0
C199 C 0.0811 0.64522 0.00716 0.0
H200 H 0.19395 0.69176 0.85286 0.0
H201 H 0.15893 0.72916 0.87129 0.0
H202 H 1.00752 0.57819 0.03621 0.0
H203 H 0.03044 0.53331 0.97284 0.0
C204 C 0.93941 0.52813 0.51644 0.0
N205 N 0.90507 0.55734 0.42392 0.0
C206 C 0.88544 0.53732 0.42835 0.0
C207 C 0.86491 0.53661 0.43935 0.0
C208 C 0.86426 0.55669 0.44624 0.0
C209 C 0.88478 0.57715 0.44041 0.0
C210 C 0.90498 0.57709 0.42933 0.0
Zn211 Zn 0.9354 0.55696 0.41487 0.0
C212 C 0.97323 0.59327 0.49016 0.0
N213 N 0.9963 0.55456 0.40257 0.0
C214 C 0.99433 0.53447 0.41839 0.0
C215 C 1.01006 0.56694 0.35483 0.0
C216 C 1.01548 0.5561 0.30889 0.0
C217 C 1.00884 0.53346 0.31769 0.0
C218 C 1.00081 0.52353 0.37602 0.0
Zn219 Zn 0.96708 0.55577 0.41222 0.0
O220 O 0.92467 0.53168 0.49077 0.0
C221 C 0.93097 0.51907 0.33468 0.0
O222 O 0.95918 0.53758 0.49449 0.0
H223 H 1.01315 0.58375 0.34582 0.0
H224 H 0.8857 0.52174 0.42428 0.0
H225 H 0.98414 0.52498 0.45752 0.0
O226 O 0.92066 0.52991 0.34542 0.0
O227 O 0.94991 0.52553 0.36018 0.0
H228 H 0.92068 0.59289 0.42626 0.0
O229 O 0.9748 0.57436 0.331 0.0
O230 O 0.94802 0.58268 0.33949 0.0
O231 O 0.98391 0.58522 0.4622 0.0
O232 O 0.95191 0.58396 0.4833 0.0
C233 C 0.9658 0.58541 0.31224 0.0
H234 H 0.84966 0.52038 0.44228 0.0
H235 H 0.88541 0.59313 0.44601 0.0
H236 H 0.0222 0.56433 0.26466 0.0
H237 H 0.99583 0.50606 0.38429 0.0
C238 C 0.42369 0.92475 0.84685 0.0
N239 N 0.364 0.9015 0.74067 0.0
C240 C 0.36354 0.8814 0.73928 0.0
C241 C 0.34318 0.86097 0.74615 0.0
C242 C 0.32278 0.8609 0.75499 0.0
C243 C 0.32367 0.88188 0.75343 0.0
C244 C 0.34443 0.90195 0.74629 0.0
Zn245 Zn 0.39554 0.93114 0.75113 0.0
C246 C 0.3946 0.96176 0.84628 0.0
N247 N 0.46059 0.98974 0.78622 0.0
C248 C 0.4602 1.0055 0.82431 0.0
C249 C 0.47814 0.9858 0.78825 0.0
C250 C 0.49328 0.99413 0.8375 0.0
C251 C 0.49008 1.00633 0.8849 0.0
C252 C 0.47442 1.01343 0.87619 0.0
Zn253 Zn 0.43002 0.96196 0.7629 0.0
O254 O 0.40406 0.91398 0.82308 0.0
C255 C 0.4325 0.93239 0.66732 0.0
O256 O 0.43709 0.94461 0.82932 0.0
H257 H 0.47844 0.97336 0.75815 0.0
H258 H 0.37917 0.88119 0.73606 0.0
H259 H 0.44682 1.0094 0.82036 0.0
O260 O 0.41146 0.92051 0.67978 0.0
O261 O 0.44436 0.95107 0.69502 0.0
H262 H 0.34494 0.91795 0.74804 0.0
O263 O 0.42319 0.97956 0.69788 0.0
O264 O 0.38908 0.95087 0.67996 0.0
O265 O 0.41495 0.97189 0.82944 0.0
O266 O 0.381 0.94274 0.82251 0.0
C267 C 0.40445 0.97137 0.66975 0.0
H268 H 0.34367 0.84546 0.74761 0.0
H269 H 0.30851 0.8829 0.75891 0.0
H270 H 0.5054 0.98851 0.84287 0.0
H271 H 0.47182 0.02317 0.9115 0.0
C272 C 0.5024 0.42673 0.1631 0.0
N273 N 0.47933 0.35973 0.08447 0.0
C274 C 0.4992 0.36179 0.10404 0.0
C275 C 0.5011 0.34254 0.11542 0.0
C276 C 0.48244 0.32073 0.10631 0.0
C277 C 0.46246 0.31937 0.08433 0.0
C278 C 0.46117 0.33888 0.0748 0.0
Zn279 Zn 0.47354 0.38723 0.07567 0.0
C280 C 0.43744 0.3824 0.16343 0.0
N281 N 0.45615 0.4393 0.06174 0.0
C282 C 0.47004 0.46156 0.05034 0.0
C283 C 0.43327 0.42988 0.05716 0.0
C284 C 0.42376 0.44203 0.03298 0.0
C285 C 0.43781 0.46434 0.01538 0.0
C286 C 0.46108 0.47458 0.02799 0.0
Zn287 Zn 0.46714 0.41641 0.07014 0.0
O288 O 0.49912 0.40736 0.14658 0.0
C289 C 0.50394 0.42373 0.98257 0.0
O290 O 0.49048 0.43421 0.13896 0.0
H291 H 0.42226 0.41217 0.06613 0.0
H292 H 0.51349 0.37834 0.11253 0.0
H293 H 0.4881 0.46876 0.05384 0.0
O294 O 0.49942 0.40425 1.00236 0.0
O295 O 0.49262 0.43249 1.00309 0.0
H296 H 0.44525 0.33712 0.06095 0.0
O297 O 0.44447 0.39916 1.00186 0.0
O298 O 0.44752 0.36899 1.00321 0.0
O299 O 0.44263 0.40069 0.13655 0.0
O300 O 0.44799 0.37212 0.14942 0.0
C301 C 0.43825 0.3797 0.98191 0.0
H302 H 0.5169 0.34484 0.13292 0.0
H303 H 0.44763 0.30331 0.07468 0.0
H304 H 0.40587 0.43353 0.02308 0.0
H305 H 0.47251 0.49183 0.01444 0.0
C306 C 0.09654 0.50299 0.46801 0.0
N307 N 0.13967 0.47508 0.41714 0.0
C308 C 0.15879 0.49551 0.42279 0.0
C309 C 0.17955 0.49699 0.437 0.0
C310 C 0.18085 0.47727 0.44536 0.0
C311 C 0.16072 0.4565 0.43983 0.0
C312 C 0.14042 0.45579 0.42573 0.0
Zn313 Zn 0.10812 0.47133 0.39399 0.0
C314 C 0.0709 0.43735 0.47598 0.0
N315 N 0.04246 0.45926 0.34471 0.0
C316 C 0.0401 0.45696 0.28191 0.0
C317 C 0.02408 0.44914 0.38258 0.0
C318 C 1.00243 0.43617 0.3572 0.0
C319 C 0.99957 0.43318 0.29211 0.0
C320 C 1.0192 0.44339 0.25513 0.0
Zn321 Zn 0.07436 0.46782 0.37344 0.0
O322 O 0.11187 0.49766 0.46042 0.0
C323 C 0.11004 0.50248 0.29061 0.0
O324 O 0.07841 0.49281 0.43638 0.0
H325 H 0.02619 0.45028 0.43254 0.0
H326 H 0.15802 0.51072 0.4158 0.0
H327 H 0.05473 0.4642 0.252 0.0
O328 O 0.12285 0.49717 0.32044 0.0
O329 O 0.08916 0.49255 0.3032 0.0
H330 H 0.12517 0.43966 0.42148 0.0
O331 O 0.0702 0.44316 0.31367 0.0
O332 O 0.10226 0.44428 0.32582 0.0
O333 O 0.06006 0.44377 0.44238 0.0
O334 O 0.09208 0.44607 0.46774 0.0
C335 C 0.08293 0.43559 0.30022 0.0
H336 H 0.19451 0.51344 0.44019 0.0
H337 H 0.16053 0.44079 0.44692 0.0
H338 H 0.98818 0.4286 0.38855 0.0
H339 H 1.01877 0.44221 0.20499 0.0
C340 C 0.61784 0.09689 0.83666 0.0
N341 N 0.6819 0.13545 0.74634 0.0
C342 C 0.68096 0.15464 0.75529 0.0
C343 C 0.70072 0.17534 0.76648 0.0
C344 C 0.72183 0.17649 0.769 0.0
C345 C 0.72224 0.15648 0.75773 0.0
C346 C 0.70215 0.13622 0.74664 0.0
Zn347 Zn 0.65256 0.10352 0.74197 0.0
C348 C 0.65631 0.07065 0.82259 0.0
N349 N 0.59551 0.0369 0.73801 0.0
C350 C 0.57535 0.03305 0.76029 0.0
C351 C 0.60123 0.02048 0.73973 0.0
C352 C 0.58858 1.00109 0.77522 0.0
C353 C 0.56936 0.99823 0.80587 0.0
C354 C 0.56177 0.01351 0.79421 0.0
Zn355 Zn 0.62197 0.06937 0.73425 0.0
O356 O 0.63634 0.1129 0.81521 0.0
C357 C 0.61607 0.10085 0.65482 0.0
O358 O 0.60936 0.07757 0.81198 0.0
H359 H 0.61733 0.0238 0.72171 0.0
H360 H 0.6648 0.15382 0.7557 0.0
H361 H 0.57119 0.04632 0.75901 0.0
O362 O 0.6366 0.11398 0.67088 0.0
O363 O 0.60543 0.08086 0.67617 0.0
H364 H 0.70274 0.1209 0.73999 0.0
O365 O 0.63419 0.061 0.65905 0.0
O366 O 0.66722 0.09174 0.6682 0.0
O367 O 0.63857 0.05844 0.79226 0.0
O368 O 0.66657 0.09183 0.81419 0.0
C369 C 0.65445 0.07274 0.64201 0.0
H370 H 0.69932 0.19012 0.77531 0.0
H371 H 0.73797 0.15637 0.75793 0.0
H372 H 0.59498 0.98976 0.78379 0.0
H373 H 0.54713 1.01194 0.8181 0.0
C374 C 0.53334 0.61086 0.1796 0.0
N375 N 0.56462 0.67564 0.09324 0.0
C376 C 0.54516 0.67628 0.09922 0.0
C377 C 0.54562 0.69671 0.10956 0.0
C378 C 0.56633 0.71701 0.114 0.0
C379 C 0.58617 0.71582 0.10736 0.0
C380 C 0.58493 0.69499 0.09699 0.0
Zn381 Zn 0.56263 0.6443 0.08075 0.0
C382 C 0.59831 0.64007 0.15192 0.0
N383 N 0.55675 0.57968 0.05748 0.0
C384 C 0.53639 0.562 0.07417 0.0
C385 C 0.56829 0.57788 0.00814 0.0
C386 C 0.55676 0.56123 0.96354 0.0
C387 C 0.53413 0.54542 0.97415 0.0
C388 C 0.52471 0.54437 0.03272 0.0
Zn389 Zn 0.56025 0.61096 0.07274 0.0
O390 O 0.53741 0.62963 0.15617 0.0
C391 C 0.52423 0.6129 0.99925 0.0
O392 O 0.54217 0.60029 0.15533 0.0
H393 H 0.58513 0.59128 0.9976 0.0
H394 H 0.52913 0.66081 0.09659 0.0
H395 H 0.52739 0.56312 0.11391 0.0
O396 O 0.53557 0.63392 0.01152 0.0
O397 O 0.53031 0.59985 0.02253 0.0
H398 H 0.60028 0.69429 0.0922 0.0
O399 O 0.57893 0.62251 0.99143 0.0
O400 O 0.58835 0.65768 0.00662 0.0
O401 O 0.58971 0.62174 0.12168 0.0
O402 O 0.58954 0.65267 0.14823 0.0
C403 C 0.59064 0.64296 0.97627 0.0
H404 H 0.52982 0.69647 0.11525 0.0
H405 H 0.60257 0.73088 0.10952 0.0
H406 H 0.56459 0.56223 0.91903 0.0
H407 H 0.50722 0.53216 0.04227 0.0
H408 H 0.52095 0.21988 0.2011 0.0
H409 H 0.44779 0.27894 0.14397 0.0
H410 H 0.45002 0.18273 0.15628 0.0
H411 H 0.5191 0.31348 0.10347 0.0
H412 H 0.44886 0.24457 0.16256 0.0
H413 H 0.52113 0.2549 0.17832 0.0
C414 C 0.5054 0.21883 0.18615 0.0
C415 C 0.48539 0.1978 0.18112 0.0
C416 C 0.46427 0.25965 0.14941 0.0
C417 C 0.48552 0.23849 0.15666 0.0
C418 C 0.46371 0.27946 0.1381 0.0
C419 C 0.48332 0.29954 0.12064 0.0
C420 C 0.48467 0.25962 0.14483 0.0
C421 C 0.50348 0.29875 0.117 0.0
C422 C 0.50556 0.23902 0.17351 0.0
C423 C 0.46583 0.19818 0.16266 0.0
N424 N 0.50363 0.27924 0.12909 0.0
N425 N 0.46639 0.21804 0.15169 0.0
H426 H 0.28978 0.44674 0.4694 0.0
H427 H 0.21665 0.50779 0.51794 0.0
H428 H 0.31176 0.5056 0.5846 0.0
H429 H 0.19561 0.44868 0.40457 0.0
H430 H 0.25175 0.50799 0.54133 0.0
H431 H 0.25548 0.44763 0.44507 0.0
C432 C 0.28742 0.45981 0.49008 0.0
C433 C 0.30391 0.47604 0.52964 0.0
C434 C 0.23944 0.49498 0.51132 0.0
C435 C 0.26429 0.47732 0.50081 0.0
C436 C 0.21937 0.49492 0.49755 0.0
C437 C 0.20282 0.47812 0.4593 0.0
C438 C 0.24324 0.47816 0.48664 0.0
C439 C 0.20747 0.46177 0.43515 0.0
C440 C 0.26778 0.46038 0.47569 0.0
C441 C 0.2998 0.49281 0.55347 0.0
N442 N 0.22708 0.46221 0.44919 0.0
N443 N 0.28049 0.49297 0.53888 0.0
H444 H 0.85319 0.27576 0.91699 0.0
H445 H 0.73451 0.22042 0.7365 0.0
H446 H 0.83189 0.31462 0.80827 0.0
H447 H 0.75806 0.18219 0.83909 0.0
H448 H 0.76929 0.25507 0.76403 0.0
H449 H 0.81817 0.24162 0.89008 0.0
C450 C 0.84128 0.27722 0.88715 0.0
C451 C 0.84587 0.2984 0.86483 0.0
C452 C 0.76686 0.23909 0.78045 0.0
C453 C 0.80506 0.25885 0.83418 0.0
C454 C 0.74687 0.21921 0.76498 0.0
C455 C 0.74312 0.19807 0.78506 0.0
C456 C 0.78338 0.23804 0.8167 0.0
C457 C 0.76013 0.19786 0.82136 0.0
C458 C 0.82111 0.2576 0.87206 0.0
C459 C 0.82924 0.2989 0.8274 0.0
N460 N 0.77934 0.21739 0.8359 0.0
N461 N 0.80973 0.27953 0.81326 0.0
H462 H 0.59701 0.75343 0.18396 0.0
H463 H 0.537 0.82707 0.12843 0.0
H464 H 0.53748 0.73133 0.07161 0.0
H465 H 0.59696 0.84987 0.23936 0.0
H466 H 0.53708 0.79212 0.10718 0.0
H467 H 0.59765 0.78888 0.20351 0.0
C468 C 0.58414 0.75599 0.16292 0.0
C469 C 0.56714 0.73907 0.12594 0.0
C470 C 0.55025 0.80476 0.13615 0.0
C471 C 0.56766 0.77995 0.14909 0.0
C472 C 0.55015 0.82477 0.14873 0.0
C473 C 0.56696 0.84168 0.18614 0.0
C474 C 0.56725 0.80133 0.16106 0.0
C475 C 0.58376 0.83761 0.20976 0.0
C476 C 0.58445 0.77629 0.17453 0.0
C477 C 0.55075 0.74353 0.10115 0.0
N478 N 0.58343 0.81794 0.19702 0.0
N479 N 0.55144 0.7634 0.11312 0.0
H480 H 0.75454 0.58648 0.4699 0.0
H481 H 0.82839 0.52641 0.51857 0.0
H482 H 0.73168 0.52566 0.57691 0.0
H483 H 0.85001 0.58598 0.40669 0.0
H484 H 0.79312 0.52585 0.54041 0.0
H485 H 0.78958 0.58669 0.44748 0.0
C486 C 0.75686 0.5732 0.48916 0.0
C487 C 0.73991 0.55608 0.52586 0.0
C488 C 0.80556 0.53904 0.51103 0.0
C489 C 0.78037 0.55612 0.49932 0.0
C490 C 0.82576 0.53932 0.49807 0.0
C491 C 0.84247 0.55624 0.46032 0.0
C492 C 0.80177 0.55582 0.48629 0.0
C493 C 0.83795 0.57272 0.43658 0.0
C494 C 0.77692 0.57328 0.47588 0.0
C495 C 0.74399 0.53913 0.54801 0.0
N496 N 0.81816 0.57207 0.44986 0.0
N497 N 0.76372 0.53962 0.5346 0.0
H498 H 0.28795 0.85418 0.8336 0.0
H499 H 0.21376 0.72041 0.7777 0.0
H500 H 0.30785 0.81786 0.70911 0.0
H501 H 0.19502 0.75684 0.90531 0.0
H502 H 0.24802 0.75568 0.7518 0.0
H503 H 0.2536 0.81893 0.85826 0.0
C504 C 0.2851 0.8389 0.81079 0.0
C505 C 0.30111 0.83932 0.76883 0.0
C506 C 0.23641 0.75597 0.78549 0.0
C507 C 0.26145 0.79834 0.79812 0.0
C508 C 0.21681 0.73571 0.80078 0.0
C509 C 0.20115 0.73533 0.84402 0.0
C510 C 0.24067 0.77627 0.81344 0.0
C511 C 0.20619 0.75606 0.87109 0.0
C512 C 0.26544 0.81864 0.82544 0.0
C513 C 0.29634 0.8186 0.74222 0.0
N514 N 0.22536 0.77552 0.85544 0.0
N515 N 0.27707 0.7991 0.75721 0.0
H516 H 0.594 0.06535 0.92273 0.0
H517 H 0.53906 0.13065 0.09211 0.0
H518 H 0.61362 0.13363 0.87309 0.0
H519 H 0.52475 0.0632 0.13364 0.0
H520 H 0.56697 0.13374 0.01407 0.0
H521 H 0.57005 0.0663 1.00404 0.0
C522 C 0.59337 0.08069 0.92928 0.0
C523 C 0.60583 0.09943 0.89082 0.0
C524 C 0.55769 0.11834 0.04054 0.0
C525 C 0.5776 0.10045 0.98403 0.0
C526 C 0.54171 0.11653 0.08491 0.0
C527 C 0.52943 0.09662 0.11971 0.0
C528 C 0.56135 0.10012 0.03106 0.0
C529 C 0.53368 0.07892 0.10838 0.0
C530 C 0.57953 0.08118 0.97577 0.0
C531 C 0.60437 0.11886 0.90198 0.0
N532 N 0.54913 0.08112 0.06538 0.0
N533 N 0.59027 0.11881 0.94725 0.0
H534 H 0.54491 0.5968 0.28218 0.0
H535 H 0.4199 0.52667 0.42336 0.0
H536 H 0.48953 0.60093 0.20228 0.0
H537 H 0.47739 0.5215 0.48138 0.0
H538 H 0.44447 0.5565 0.34928 0.0
H539 H 0.52024 0.57299 0.36473 0.0
C540 C 0.52755 0.59302 0.28294 0.0
C541 C 0.51929 0.60096 0.23572 0.0
C542 C 0.4516 0.54881 0.37852 0.0
C543 C 0.49039 0.57276 0.3293 0.0
C544 C 0.4376 0.53178 0.42069 0.0
C545 C 0.44648 0.52133 0.45841 0.0
C546 C 0.47463 0.55555 0.37468 0.0
C547 C 0.46958 0.52875 0.45309 0.0
C548 C 0.51335 0.57922 0.32983 0.0
C549 C 0.49659 0.59537 0.23848 0.0
N550 N 0.48269 0.54525 0.41231 0.0
N551 N 0.48279 0.58132 0.28413 0.0
H552 H 0.9112 0.41414 0.75626 0.0
H553 H 0.96324 0.53981 0.6225 0.0
H554 H 0.97275 0.47228 0.81769 0.0
H555 H 0.9065 0.48361 0.53493 0.0
H556 H 0.9624 0.51497 0.70446 0.0
H557 H 0.90543 0.43855 0.68303 0.0
C558 C 0.92343 0.43196 0.75458 0.0
C559 C 0.94262 0.44106 0.79295 0.0
C560 C 0.94986 0.50794 0.668 0.0
C561 C 0.93596 0.46905 0.71014 0.0
C562 C 0.95022 0.52222 0.62146 0.0
C563 C 0.93481 0.5138 0.57223 0.0
C564 C 0.93422 0.48476 0.66517 0.0
C565 C 0.91846 0.4908 0.5727 0.0
C566 C 0.92011 0.44587 0.71284 0.0
C567 C 0.95783 0.46431 0.78883 0.0
N568 N 0.91875 0.47696 0.61809 0.0
N569 N 0.95416 0.47733 0.74848 0.0
H570 H 0.41548 0.92435 0.97009 0.0
H571 H 0.51927 0.90795 0.06781 0.0
H572 H 0.45221 0.90829 0.83681 0.0
H573 H 0.49827 0.9487 0.16857 0.0
H574 H 0.48921 0.89908 0.99128 0.0
H575 H 0.43935 0.92317 0.05321 0.0
C576 C 0.42787 0.91948 0.95888 0.0
C577 C 0.4315 0.91576 0.89698 0.0
C578 C 0.49112 0.90978 0.03056 0.0
C579 C 0.45947 0.91529 0.99107 0.0
C580 C 0.50821 0.91481 0.07418 0.0
C581 C 0.51137 0.9292 0.12435 0.0
C582 C 0.4768 0.91877 0.03817 0.0
C583 C 0.4966 0.9377 0.1303 0.0
C584 C 0.44176 0.91922 0.00604 0.0
C585 C 0.44851 0.91061 0.88433 0.0
N586 N 0.47997 0.93232 0.08795 0.0
N587 N 0.46199 0.91066 0.9309 0.0
H588 H 0.51574 0.47011 0.19149 0.0
H589 H 0.60926 0.48991 0.44677 0.0
H590 H 0.53046 0.41751 0.23647 0.0
H591 H 0.58613 0.53609 0.40038 0.0
H592 H 0.58387 0.46384 0.36583 0.0
H593 H 0.5444 0.4949 0.26336 0.0
C594 C 0.52495 0.46363 0.21674 0.0
C595 C 0.52036 0.44145 0.208 0.0
C596 C 0.58458 0.47979 0.37326 0.0
C597 C 0.55386 0.47034 0.29204 0.0
C598 C 0.59916 0.49471 0.41901 0.0
C599 C 0.5997 0.51515 0.43056 0.0
C600 C 0.57076 0.4856 0.33881 0.0
C601 C 0.58615 0.52046 0.39369 0.0
C602 C 0.54151 0.47796 0.25805 0.0
C603 C 0.5333 0.43441 0.24195 0.0
N604 N 0.57233 0.50585 0.35002 0.0
N605 N 0.54942 0.44878 0.28283 0.0
H606 H 0.13736 0.6067 0.76011 0.0
H607 H 0.06694 0.51769 0.49085 0.0
H608 H 0.0671 0.581 0.71948 0.0
H609 H 0.13191 0.52877 0.54929 0.0
H610 H 0.06975 0.54516 0.56654 0.0
H611 H 0.13865 0.58271 0.67596 0.0
C612 C 0.12236 0.59634 0.733 0.0
C613 C 0.10207 0.59584 0.74704 0.0
C614 C 0.08348 0.5417 0.5631 0.0
C615 C 0.1034 0.56844 0.65122 0.0
C616 C 0.0819 0.52591 0.51955 0.0
C617 C 0.09913 0.52062 0.51359 0.0
C618 C 0.10247 0.55259 0.60179 0.0
C619 C 0.11814 0.53217 0.55231 0.0
C620 C 0.12305 0.58253 0.68539 0.0
C621 C 0.08308 0.58189 0.7108 0.0
N622 N 0.11928 0.54756 0.59492 0.0
N623 N 0.08424 0.56887 0.66501 0.0
H624 H 0.3778 0.94733 0.96337 0.0
H625 H 0.43704 0.07535 0.06711 0.0
H626 H 0.39927 1.00296 0.83664 0.0
H627 H 0.41636 0.01949 0.19306 0.0
H628 H 0.41429 0.04873 0.98511 0.0
H629 H 0.38212 0.97253 0.04997 0.0
C630 C 0.38237 0.96459 0.95356 0.0
C631 C 0.3881 0.97313 0.89307 0.0
C632 C 0.41434 0.04234 0.03112 0.0
C633 C 0.39407 1.00226 0.99154 0.0
C634 C 0.42722 0.05758 0.07799 0.0
C635 C 0.42892 0.04959 0.13655 0.0
C636 C 0.40317 0.01901 0.04307 0.0
C637 C 0.41587 0.02635 0.14811 0.0
C638 C 0.38519 0.9791 1.003 0.0
C639 C 0.3946 0.99578 0.88285 0.0
N640 N 0.40388 1.01189 0.10163 0.0
N641 N 0.39782 1.00966 0.93162 0.0
H642 H 0.4401 0.3686 0.28135 0.0
H643 H 0.3737 0.42785 0.39771 0.0
H644 H 0.39842 0.38306 0.16244 0.0
H645 H 0.40758 0.40451 0.5198 0.0
H646 H 0.3754 0.40418 0.31454 0.0
H647 H 0.42119 0.3733 0.37224 0.0
C648 C 0.42626 0.37172 0.27435 0.0
C649 C 0.42093 0.37566 0.21455 0.0
C650 C 0.38201 0.40384 0.36 0.0
C651 C 0.39989 0.38204 0.31784 0.0
C652 C 0.3809 0.41728 0.40751 0.0
C653 C 0.39093 0.4185 0.4652 0.0
C654 C 0.39334 0.39173 0.37043 0.0
C655 C 0.40008 0.40445 0.47543 0.0
C656 C 0.41565 0.37476 0.32622 0.0
C657 C 0.40313 0.38009 0.20804 0.0
N658 N 0.40145 0.39202 0.42831 0.0
N659 N 0.39363 0.3837 0.25896 0.0
H660 H 0.0863 0.43327 0.59102 0.0
H661 H 0.96081 0.3709 0.72234 0.0
H662 H 0.02671 0.40537 0.47668 0.0
H663 H 1.02027 0.40081 0.83733 0.0
H664 H 0.98445 0.37474 0.63207 0.0
H665 H 0.06255 0.41321 0.681 0.0
C666 C 0.06834 0.42241 0.5845 0.0
C667 C 0.05842 0.42127 0.52667 0.0
C668 C 0.99227 0.37999 0.67735 0.0
C669 C 0.03112 0.39861 0.62911 0.0
C670 C 0.97871 0.37759 0.72894 0.0
C671 C 0.98865 0.38588 0.78705 0.0
C672 C 1.01587 0.39081 0.68419 0.0
C673 C 1.01198 0.39455 0.79297 0.0
C674 C 0.05473 0.41109 0.63588 0.0
C675 C 0.03501 0.40703 0.5208 0.0
N676 N 0.02483 0.39715 0.74211 0.0
N677 N 0.02215 0.39657 0.57144 0.0
H678 H 0.60855 0.9601 0.06196 0.0
H679 H 0.67048 0.08663 0.94046 0.0
H680 H 0.62376 0.01799 0.17482 0.0
H681 H 0.65144 0.02898 0.82286 0.0
H682 H 0.66325 0.06264 0.03191 0.0
H683 H 0.63273 0.98553 0.97941 0.0
C684 C 0.61735 0.9781 0.06985 0.0
C685 C 0.61384 0.98696 0.12473 0.0
C686 C 0.66128 0.05534 0.98606 0.0
C687 C 0.64142 0.01612 0.03098 0.0
C688 C 0.66578 0.06916 0.93386 0.0
C689 C 0.66134 0.05971 0.87421 0.0
C690 C 0.65219 0.03198 0.97818 0.0
C691 C 0.65488 0.03686 0.86828 0.0
C692 C 0.6311 0.99263 0.02276 0.0
C693 C 0.62565 1.01044 0.13265 0.0
N694 N 0.65002 0.02367 0.91956 0.0
N695 N 0.63866 0.02417 0.08612 0.0
H696 H 0.67093 0.59877 0.38306 0.0
H697 H 0.63153 0.63017 0.13444 0.0
H698 H 0.64231 0.63031 0.49502 0.0
H699 H 0.60707 0.65996 0.26724 0.0
H700 H 0.65538 0.62797 0.21373 0.0
H701 H 0.66857 0.61868 0.29227 0.0
C702 C 0.6648 0.61047 0.38874 0.0
C703 C 0.65631 0.6125 0.44612 0.0
C704 C 0.64523 0.63535 0.22624 0.0
C705 C 0.65251 0.6348 0.34191 0.0
C706 C 0.63161 0.63673 0.18038 0.0
C707 C 0.617 0.64485 0.19472 0.0
C708 C 0.64387 0.64171 0.28758 0.0
C709 C 0.61799 0.65343 0.25442 0.0
C710 C 0.66306 0.62169 0.33645 0.0
C711 C 0.64858 0.62791 0.4511 0.0
N712 N 0.63078 0.65115 0.29903 0.0
N713 N 0.64643 0.63806 0.39955 0.0
H714 H 0.08562 0.66487 0.71494 0.0
H715 H 0.95896 0.60123 0.60193 0.0
H716 H 0.02795 0.63573 0.83701 0.0
H717 H 1.01673 0.62661 0.48075 0.0
H718 H 0.98375 0.62437 0.68651 0.0
H719 H 0.06098 0.66205 0.62873 0.0
C720 C 0.06793 0.65866 0.72407 0.0
C721 C 0.05869 0.65007 0.78269 0.0
C722 C 0.99093 0.62535 0.64093 0.0
C723 C 0.03035 0.64627 0.68444 0.0
C724 C 0.97672 0.61227 0.59258 0.0
C725 C 0.98592 0.6117 0.53485 0.0
C726 C 1.0144 0.63779 0.63118 0.0
C727 C 1.00907 0.62625 0.52514 0.0
C728 C 0.0538 0.65684 0.67476 0.0
C729 C 0.03564 0.64212 0.79202 0.0
N730 N 0.02257 0.63836 0.57308 0.0
N731 N 0.02218 0.63996 0.74317 0.0
H732 H 0.44422 0.99561 0.49854 0.0
H733 H 0.53784 0.03012 0.47421 0.0
H734 H 0.46223 0.96473 0.35233 0.0
H735 H 0.53566 0.96642 0.47216 0.0
H736 H 0.50299 1.01307 0.53321 0.0
H737 H 0.46231 0.98323 0.57391 0.0
C738 C 0.45073 0.98498 0.48258 0.0
C739 C 0.45435 0.9835 0.41861 0.0
C740 C 0.51056 1.00284 0.52303 0.0
C741 C 0.47441 0.96923 0.50364 0.0
C742 C 0.53067 1.01281 0.48932 0.0
C743 C 0.53884 0.99931 0.46567 0.0
C744 C 0.49776 0.97911 0.52623 0.0
C745 C 0.52912 0.97709 0.48741 0.0
C746 C 0.46099 0.97784 0.52596 0.0
C747 C 0.46106 0.96811 0.40096 0.0
N748 N 0.5083 0.96724 0.51357 0.0
N749 N 0.47168 0.96206 0.44342 0.0
H750 H 0.53172 0.47492 0.65296 0.0
H751 H 0.58765 0.56928 0.77626 0.0
H752 H 0.48067 0.4534 0.7943 0.0
H753 H 0.51915 0.54971 0.73182 0.0
H754 H 0.57462 0.5329 0.82588 0.0
H755 H 0.55793 0.50423 0.72185 0.0
C756 C 0.52647 0.47523 0.70034 0.0
C757 C 0.50359 0.46324 0.71625 0.0
C758 C 0.56236 0.53706 0.80835 0.0
C759 C 0.53314 0.49679 0.79438 0.0
C760 C 0.56965 0.55803 0.7809 0.0
C761 C 0.55446 0.56134 0.74454 0.0
C762 C 0.5397 0.5205 0.80241 0.0
C763 C 0.53151 0.547 0.7556 0.0
C764 C 0.54151 0.49214 0.74004 0.0
C765 C 0.49794 0.46362 0.77879 0.0
N766 N 0.52477 0.5264 0.78012 0.0
N767 N 0.51226 0.48127 0.81481 0.0
H768 H 0.04765 0.47001 0.1226 0.0
H769 H 0.9934 0.51076 0.05532 0.0
H770 H 0.07907 0.52313 0.98787 0.0
H771 H 0.04223 0.57793 0.11185 0.0
H772 H 1.01509 0.49681 0.10725 0.0
H773 H 0.04671 0.49658 0.1959 0.0
C774 C 0.05574 0.48762 0.10962 0.0
C775 C 0.06132 0.49411 0.04724 0.0
C776 C 1.02031 0.51444 0.11296 0.0
C777 C 0.05923 0.52371 0.1289 0.0
C778 C 1.00767 0.52239 0.08328 0.0
C779 C 1.01693 0.54557 0.07585 0.0
C780 C 0.04169 0.5298 0.13731 0.0
C781 C 0.03524 0.55987 0.11408 0.0
C782 C 0.05493 0.50275 0.15153 0.0
C783 C 0.07289 0.51718 0.03438 0.0
N784 N 0.04803 0.55198 0.13992 0.0
N785 N 0.07061 0.53125 0.07423 0.0
H786 H 0.98474 0.41819 0.16845 0.0
H787 H 0.02843 0.50956 0.28215 0.0
H788 H 0.95712 0.42457 0.34054 0.0
H789 H 0.97353 0.52096 0.24075 0.0
H790 H 1.00842 0.4737 0.22837 0.0
H791 H 0.97634 0.44532 0.12128 0.0
C792 C 0.97605 0.42461 0.19632 0.0
C793 C 0.97686 0.42422 0.26187 0.0
C794 C 1.00109 0.48435 0.22895 0.0
C795 C 0.96424 0.45194 0.20739 0.0
C796 C 1.01266 0.50492 0.259 0.0
C797 C 1.0027 0.51816 0.2648 0.0
C798 C 0.97901 0.47644 0.20768 0.0
C799 C 0.98182 0.51114 0.23579 0.0
C800 C 0.97078 0.43979 0.16848 0.0
C801 C 0.96125 0.42858 0.29195 0.0
N802 N 0.97008 0.49015 0.21095 0.0
N803 N 0.95618 0.44338 0.26495 0.0
H804 H 0.53072 0.03798 0.93309 0.0
H805 H 0.59096 1.00551 0.91606 0.0
H806 H 0.47186 0.97446 0.975 0.0
H807 H 0.5284 0.9601 0.82586 0.0
H808 H 0.57049 1.00159 0.01244 0.0
H809 H 0.55371 0.02545 0.98563 0.0
C810 C 0.52247 0.02183 0.95657 0.0
C811 C 0.49966 1.00664 0.94638 0.0
C812 C 0.56136 0.9913 0.97282 0.0
C813 C 0.52601 0.99126 0.99971 0.0
C814 C 0.57305 0.99348 0.91759 0.0
C815 C 0.561 0.98424 0.86231 0.0
C816 C 0.53774 0.98042 0.97077 0.0
C817 C 0.53808 0.96844 0.86703 0.0
C818 C 0.53562 0.01445 0.98669 0.0
C819 C 0.48976 0.98618 0.97909 0.0
N820 N 0.52696 0.96744 0.92025 0.0
N821 N 0.50314 0.9785 1.00189 0.0
H822 H 0.51231 0.50152 0.93882 0.0
H823 H 0.42199 0.44888 0.89918 0.0
H824 H 0.51923 0.566 0.8968 0.0
H825 H 0.43634 0.50409 0.02128 0.0
H826 H 0.44089 0.47542 0.8151 0.0
H827 H 0.4767 0.48331 0.88377 0.0
C828 C 0.5067 0.51182 0.91541 0.0
C829 C 0.51847 0.53512 0.92224 0.0
C830 C 0.43854 0.48175 0.85901 0.0
C831 C 0.47672 0.51452 0.86395 0.0
C832 C 0.42774 0.46651 0.90752 0.0
C833 C 0.43011 0.47473 0.96862 0.0
C834 C 0.45234 0.50452 0.8748 0.0
C835 C 0.43633 0.49737 0.97572 0.0
C836 C 0.48635 0.50152 0.88336 0.0
C837 C 0.51039 0.54785 0.89228 0.0
N838 N 0.44783 0.51188 0.92888 0.0
N839 N 0.48949 0.53733 0.86662 0.0
H840 H 0.41631 0.01421 0.69593 0.0
H841 H 0.40989 0.0454 0.34249 0.0
H842 H 0.38678 0.96474 0.55018 0.0
H843 H 0.45549 0.09174 0.47853 0.0
H844 H 0.39094 0.01736 0.42457 0.0
H845 H 0.42032 0.04332 0.62349 0.0
C846 C 0.41016 1.00939 0.64879 0.0
C847 C 0.40129 0.98701 0.62896 0.0
C848 C 0.4045 0.03396 0.43696 0.0
C849 C 0.40621 0.02054 0.5451 0.0
C850 C 0.415 0.0502 0.39036 0.0
C851 C 0.43409 0.07113 0.4038 0.0
C852 C 0.41306 0.03873 0.49771 0.0
C853 C 0.44056 0.07607 0.46624 0.0
C854 C 0.41255 0.02607 0.60741 0.0
C855 C 0.39357 0.98173 0.56747 0.0
N856 N 0.43033 0.05987 0.51066 0.0
N857 N 0.39654 0.99847 0.52733 0.0
H858 H 0.44006 0.37188 0.85779 0.0
H859 H 0.37899 0.39778 0.65483 0.0
H860 H 0.39625 0.37165 1.00168 0.0
H861 H 0.38215 0.43737 0.8139 0.0
H862 H 0.38353 0.37186 0.72374 0.0
H863 H 0.41745 0.37807 0.78039 0.0
C864 C 0.42484 0.37165 0.87263 0.0
C865 C 0.41982 0.37091 0.93609 0.0
C866 C 0.38237 0.38573 0.74376 0.0
C867 C 0.3946 0.37921 0.84859 0.0
C868 C 0.37928 0.40025 0.70471 0.0
C869 C 0.37972 0.4195 0.72889 0.0
C870 C 0.38581 0.39045 0.80757 0.0
C871 C 0.38115 0.42246 0.79357 0.0
C872 C 0.41208 0.37553 0.82855 0.0
C873 C 0.40045 0.37179 0.95302 0.0
N874 N 0.38438 0.40822 0.83067 0.0
N875 N 0.38907 0.37673 0.90996 0.0
H876 H 1.002 0.37507 0.98037 0.0
H877 H 0.09148 0.43606 0.17612 0.0
H878 H 0.96592 0.37594 0.14325 0.0
H879 H 0.04942 0.39359 0.32405 0.0
H880 H 0.06153 0.41353 0.1017 0.0
H881 H 0.03348 0.38063 0.0464 0.0
C882 C 1.00018 0.37515 0.03046 0.0
C883 C 0.98109 0.37464 0.0564 0.0
C884 C 0.05921 0.40837 0.15 0.0
C885 C 1.01758 0.38209 0.13217 0.0
C886 C 0.07658 0.42105 0.19244 0.0
C887 C 0.07323 0.41646 0.25637 0.0
C888 C 0.03815 0.39127 0.17191 0.0
C889 C 0.05293 0.39742 0.27502 0.0
C890 C 1.01841 0.37889 0.06796 0.0
C891 C 0.98008 0.37578 0.12141 0.0
N892 N 0.0359 0.38609 0.23355 0.0
N893 N 0.99818 0.37973 0.15702 0.0
H894 H 0.66284 0.08132 0.5175 0.0
H895 H 0.6026 0.95351 0.46794 0.0
H896 H 0.66012 0.03742 0.66428 0.0
H897 H 0.63565 0.99888 0.31532 0.0
H898 H 0.62719 0.98339 0.5406 0.0
H899 H 0.65742 0.05242 0.44116 0.0
C900 C 0.66239 0.06612 0.53337 0.0
C901 C 0.66232 0.0619 0.59714 0.0
C902 C 0.62971 0.98657 0.49108 0.0
C903 C 0.65465 0.02816 0.51074 0.0
C904 C 0.61587 0.96935 0.44963 0.0
C905 C 0.61741 0.97361 0.38558 0.0
C906 C 0.64461 1.00833 0.4682 0.0
C907 C 0.63424 0.99483 0.36443 0.0
C908 C 0.65892 0.04942 0.48991 0.0
C909 C 0.66065 0.04145 0.61536 0.0
N910 N 0.64676 1.01156 0.40553 0.0
N911 N 0.65626 0.02511 0.57268 0.0
H912 H 0.59462 0.65285 0.85125 0.0
H913 H 0.65845 0.58847 0.8008 0.0
H914 H 0.6282 0.64209 1.0052 0.0
H915 H 0.65896 0.63268 0.65816 0.0
H916 H 0.64999 0.60955 0.87818 0.0
H917 H 0.6195 0.64747 0.77926 0.0
C918 C 0.60795 0.65046 0.86989 0.0
C919 C 0.60978 0.64851 0.9342 0.0
C920 C 0.65286 0.61523 0.83031 0.0
C921 C 0.63735 0.641 0.8525 0.0
C922 C 0.65815 0.60344 0.78634 0.0
C923 C 0.65993 0.60914 0.72315 0.0
C924 C 0.64863 0.63234 0.81047 0.0
C925 C 0.65821 0.62806 0.70665 0.0
C926 C 0.62198 0.64711 0.8289 0.0
C927 C 0.62664 0.64426 0.95588 0.0
N928 N 0.652 0.63854 0.74953 0.0
N929 N 0.6394 0.64016 0.91527 0.0
H930 H 0.04773 0.65437 0.9878 0.0
H931 H 0.95871 0.58843 0.18707 0.0
H932 H 0.08557 0.64563 0.13366 0.0
H933 H 1.00563 0.62214 0.336 0.0
H934 H 0.9886 0.61134 0.11174 0.0
H935 H 1.01702 0.64521 0.06162 0.0
C936 C 0.05013 0.6518 0.03631 0.0
C937 C 0.06958 0.6514 0.05488 0.0
C938 C 0.99212 0.61442 0.16096 0.0
C939 C 0.03391 0.63971 0.13913 0.0
C940 C 0.97493 0.60147 0.20394 0.0
C941 C 0.97948 0.60385 0.26794 0.0
C942 C 1.01414 0.6294 0.18224 0.0
C943 C 1.00125 0.6202 0.28709 0.0
C944 C 0.0323 0.64595 0.07801 0.0
C945 C 0.07123 0.64683 0.11769 0.0
N946 N 1.01783 0.63191 0.24465 0.0
N947 N 0.05359 0.64102 0.15739 0.0
H948 H 0.56329 0.12855 0.32526 0.0
H949 H 0.57177 0.08809 0.65948 0.0
H950 H 0.51322 0.11403 0.46621 0.0
H951 H 0.6323 0.13062 0.55564 0.0
H952 H 0.55041 0.09773 0.58763 0.0
H953 H 0.58971 0.13103 0.40638 0.0
C954 C 0.55825 0.12693 0.37364 0.0
C955 C 0.53628 0.1217 0.38939 0.0
C956 C 0.5684 0.10522 0.58077 0.0
C957 C 0.56585 0.12317 0.48185 0.0
C958 C 0.58061 0.09961 0.62162 0.0
C959 C 0.60386 0.10848 0.61341 0.0
C960 C 0.5793 0.11942 0.52997 0.0
C961 C 0.61442 0.12345 0.5637 0.0
C962 C 0.57322 0.12808 0.41982 0.0
C963 C 0.5302 0.11871 0.4524 0.0
N964 N 0.60199 0.12815 0.52312 0.0
N965 N 0.54473 0.11909 0.49614 0.0
H966 H 0.46722 0.54255 0.66999 0.0
H967 H 0.48186 0.57803 0.01878 0.0
H968 H 0.40948 0.51444 0.79157 0.0
H969 H 0.52452 0.62377 0.87674 0.0
H970 H 0.45427 0.55526 0.93879 0.0
H971 H 0.4881 0.57254 0.74535 0.0
C972 C 0.45878 0.54298 0.71221 0.0
C973 C 0.43651 0.52607 0.72429 0.0
C974 C 0.46938 0.57055 0.92516 0.0
C975 C 0.46062 0.56023 0.81194 0.0
C976 C 0.48505 0.58365 0.97084 0.0
C977 C 0.5053 0.60305 0.95443 0.0
C978 C 0.47443 0.57631 0.86218 0.0
C979 C 0.50891 0.60923 0.89149 0.0
C980 C 0.47071 0.56017 0.75518 0.0
C981 C 0.42651 0.52732 0.78007 0.0
N982 N 0.49389 0.59564 0.84756 0.0
N983 N 0.43878 0.54387 0.82245 0.0
H984 H 0.94776 0.46325 0.00868 0.0
H985 H 0.92376 0.47661 0.35302 0.0
H986 H 0.9117 0.40351 0.12075 0.0
H987 H 0.92129 0.51973 0.21169 0.0
H988 H 0.91837 0.4489 0.27242 0.0
H989 H 0.93855 0.4841 0.08373 0.0
C990 C 0.93754 0.4544 0.04875 0.0
C991 C 0.93045 0.43155 0.0583 0.0
C992 C 0.91846 0.46416 0.25916 0.0
C993 C 0.92017 0.45565 0.14566 0.0
C994 C 0.92147 0.47994 0.30512 0.0
C995 C 0.92265 0.50035 0.28903 0.0
C996 C 0.91782 0.46933 0.19624 0.0
C997 C 0.9201 0.50406 0.22617 0.0
C998 C 0.93219 0.46633 0.09147 0.0
C999 C 0.91733 0.42103 0.11128 0.0
N1000 N 0.91838 0.48899 0.18199 0.0
N1001 N 0.91301 0.43329 0.15375 0.0
H1002 H 0.48684 0.91283 0.32931 0.0
H1003 H 0.47391 0.93707 0.6804 0.0
H1004 H 0.53331 0.91755 0.47083 0.0
H1005 H 0.41746 0.91031 0.5547 0.0
H1006 H 0.49478 0.92772 0.60556 0.0
H1007 H 0.45999 0.90906 0.41038 0.0
C1008 C 0.49094 0.91203 0.37757 0.0
C1009 C 0.51205 0.91483 0.39341 0.0
C1010 C 0.47773 0.92356 0.59443 0.0
C1011 C 0.48186 0.91168 0.48674 0.0
C1012 C 0.46583 0.92902 0.63706 0.0
C1013 C 0.44394 0.92454 0.62364 0.0
C1014 C 0.46805 0.91421 0.53663 0.0
C1015 C 0.43428 0.914 0.56691 0.0
C1016 C 0.4757 0.91013 0.42388 0.0
C1017 C 0.51696 0.91473 0.45664 0.0
N1018 N 0.44656 0.90958 0.52494 0.0
N1019 N 0.50215 0.91356 0.50097 0.0
H1020 H 0.59065 0.47921 0.65701 0.0
H1021 H 0.52916 0.46923 0.97712 0.0
H1022 H 0.61341 0.53342 0.78902 0.0
H1023 H 0.52238 0.40968 0.88904 0.0
H1024 H 0.55957 0.49246 0.90565 0.0
H1025 H 0.5659 0.4528 0.73782 0.0
C1026 C 0.59101 0.48538 0.70363 0.0
C1027 C 0.60441 0.50844 0.71685 0.0
C1028 C 0.55165 0.47433 0.90196 0.0
C1029 C 0.57561 0.47859 0.80863 0.0
C1030 C 0.5341 0.46098 0.94268 0.0
C1031 C 0.52309 0.43738 0.93928 0.0
C1032 C 0.55808 0.46422 0.85565 0.0
C1033 C 0.53042 0.42779 0.89356 0.0
C1034 C 0.5768 0.47035 0.7496 0.0
C1035 C 0.60367 0.51572 0.77727 0.0
N1036 N 0.54723 0.44123 0.85289 0.0
N1037 N 0.58938 0.50096 0.82051 0.0
H1038 H 0.13317 0.54805 0.30849 0.0
H1039 H 0.11438 0.57251 0.95462 0.0
H1040 H 0.10424 0.49766 0.16521 0.0
H1041 H 0.12538 0.61883 0.10365 0.0
H1042 H 0.12106 0.54892 0.0271 0.0
H1043 H 0.13922 0.5771 0.23115 0.0
C1044 C 0.12883 0.54324 0.26028 0.0
C1045 C 0.11868 0.52051 0.24283 0.0
C1046 C 0.12217 0.5643 0.04406 0.0
C1047 C 0.12515 0.55351 0.15436 0.0
C1048 C 0.11862 0.5779 1.00252 0.0
C1049 C 0.11952 0.59774 0.02303 0.0
C1050 C 0.1257 0.56997 0.10749 0.0
C1051 C 0.12479 0.60379 0.0858 0.0
C1052 C 0.13205 0.55977 0.21633 0.0
C1053 C 0.11258 0.51505 0.18028 0.0
N1054 N 0.12731 0.58977 0.12607 0.0
N1055 N 0.11591 0.53137 0.13848 0.0
loop_
_geom_bond_atom_site_label_1
_geom_bond_atom_site_label_2
_geom_bond_distance
_geom_bond_site_symmetry_2
_ccdc_geom_bond_type
C0 O16 1.251 . S
C0 O18 1.254 . S
N1 C2 1.333 . S
N1 C6 1.307 . S
N1 Zn7 2.020 . S
C2 N1 1.333 . S
C2 C3 1.379 . S
C2 H20 0.952 . S
C3 C2 1.379 . S
C3 C4 1.390 . S
C3 H30 0.949 . S
C4 C3 1.390 . S
C4 C5 1.357 . S
C5 C4 1.357 . S
C5 C6 1.370 . S
C5 H31 0.950 . S
C6 N1 1.307 . S
C6 C5 1.370 . S
C6 H24 0.948 . S
Zn7 N1 2.020 . S
Zn7 O16 2.039 . S
Zn7 O22 2.034 . S
Zn7 O26 2.025 . S
Zn7 O28 2.024 . S
C8 O27 1.246 . S
C8 O28 1.249 . S
N9 C10 1.307 . S
N9 C11 1.333 . S
N9 Zn15 2.020 . S
C10 N9 1.307 . S
C10 C14 1.370 . S
C10 H21 0.948 . S
C11 N9 1.333 . S
C11 C12 1.379 . S
C11 H19 0.952 . S
C12 C11 1.379 . S
C12 C13 1.390 . S
C12 H32 0.949 1_545 S
C13 C12 1.390 . S
C13 C14 1.357 . S
C14 C10 1.370 . S
C14 C13 1.357 . S
C14 H33 0.950 . S
Zn15 N9 2.020 . S
Zn15 O18 2.025 . S
Zn15 O23 2.024 . S
Zn15 O25 2.039 . S
Zn15 O27 2.034 . S
O16 C0 1.251 . S
O16 Zn7 2.039 . S
C17 O22 1.246 . S
C17 O23 1.249 . S
O18 C0 1.254 . S
O18 Zn15 2.025 . S
H19 C11 0.952 . S
H20 C2 0.952 . S
H21 C10 0.948 . S
O22 Zn7 2.034 . S
O22 C17 1.246 . S
O23 Zn15 2.024 . S
O23 C17 1.249 . S
H24 C6 0.948 . S
O25 Zn15 2.039 . S
O25 C29 1.251 . S
O26 Zn7 2.025 . S
O26 C29 1.254 . S
O27 C8 1.246 . S
O27 Zn15 2.034 . S
O28 Zn7 2.024 . S
O28 C8 1.249 . S
C29 O25 1.251 . S
C29 O26 1.254 . S
H30 C3 0.949 . S
H31 C5 0.950 . S
H32 C12 0.949 1_565 S
H33 C14 0.950 . S
C34 O50 1.251 . S
C34 O52 1.254 . S
N35 C36 1.333 . S
N35 C40 1.307 . S
N35 Zn41 2.020 . S
C36 N35 1.333 . S
C36 C37 1.379 . S
C36 H54 0.952 . S
C37 C36 1.379 . S
C37 C38 1.390 . S
C37 H64 0.949 . S
C38 C37 1.390 . S
C38 C39 1.357 . S
C39 C38 1.357 . S
C39 C40 1.370 . S
C39 H65 0.950 . S
C40 N35 1.307 . S
C40 C39 1.370 . S
C40 H58 0.948 . S
Zn41 N35 2.020 . S
Zn41 O50 2.039 . S
Zn41 O56 2.034 . S
Zn41 O60 2.025 . S
Zn41 O62 2.024 . S
C42 O61 1.246 . S
C42 O62 1.249 . S
N43 C44 1.307 . S
N43 C45 1.333 . S
N43 Zn49 2.020 . S
C44 N43 1.307 . S
C44 C48 1.370 . S
C44 H55 0.948 . S
C45 N43 1.333 . S
C45 C46 1.379 . S
C45 H53 0.952 . S
C46 C45 1.379 . S
C46 C47 1.390 . S
C46 H66 0.949 . S
C47 C46 1.390 . S
C47 C48 1.357 . S
C48 C44 1.370 . S
C48 C47 1.357 . S
C48 H67 0.950 . S
Zn49 N43 2.020 . S
Zn49 O52 2.025 . S
Zn49 O57 2.024 . S
Zn49 O59 2.039 . S
Zn49 O61 2.034 . S
O50 C34 1.251 . S
O50 Zn41 2.039 . S
C51 O56 1.246 . S
C51 O57 1.249 . S
O52 C34 1.254 . S
O52 Zn49 2.025 . S
H53 C45 0.952 . S
H54 C36 0.952 . S
H55 C44 0.948 . S
O56 Zn41 2.034 . S
O56 C51 1.246 . S
O57 Zn49 2.024 . S
O57 C51 1.249 . S
H58 C40 0.948 . S
O59 Zn49 2.039 . S
O59 C63 1.251 . S
O60 Zn41 2.025 . S
O60 C63 1.254 . S
O61 C42 1.246 . S
O61 Zn49 2.034 . S
O62 Zn41 2.024 . S
O62 C42 1.249 . S
C63 O59 1.251 . S
C63 O60 1.254 . S
H64 C37 0.949 . S
H65 C39 0.950 . S
H66 C46 0.949 . S
H67 C48 0.950 . S
C68 O84 1.251 . S
C68 O86 1.254 . S
N69 C70 1.333 . S
N69 C74 1.307 . S
N69 Zn75 2.020 . S
C70 N69 1.333 . S
C70 C71 1.379 . S
C70 H88 0.952 . S
C71 C70 1.379 . S
C71 C72 1.390 . S
C71 H98 0.949 . S
C72 C71 1.390 . S
C72 C73 1.357 . S
C73 C72 1.357 . S
C73 C74 1.370 . S
C73 H99 0.950 . S
C74 N69 1.307 . S
C74 C73 1.370 . S
C74 H92 0.948 . S
Zn75 N69 2.020 . S
Zn75 O84 2.039 . S
Zn75 O90 2.034 . S
Zn75 O94 2.025 . S
Zn75 O96 2.024 . S
C76 O95 1.246 . S
C76 O96 1.249 . S
N77 C78 1.307 . S
N77 C79 1.333 . S
N77 Zn83 2.020 . S
C78 N77 1.307 . S
C78 C82 1.370 . S
C78 H89 0.948 . S
C79 N77 1.333 . S
C79 C80 1.379 . S
C79 H87 0.952 . S
C80 C79 1.379 . S
C80 C81 1.390 . S
C80 H100 0.949 1_655 S
C81 C80 1.390 . S
C81 C82 1.357 . S
C82 C78 1.370 . S
C82 C81 1.357 . S
C82 H101 0.950 . S
Zn83 N77 2.020 . S
Zn83 O86 2.025 . S
Zn83 O91 2.024 . S
Zn83 O93 2.039 . S
Zn83 O95 2.034 . S
O84 C68 1.251 . S
O84 Zn75 2.039 . S
C85 O90 1.246 1_554 S
C85 O91 1.249 1_554 S
O86 C68 1.254 . S
O86 Zn83 2.025 . S
H87 C79 0.952 . S
H88 C70 0.952 . S
H89 C78 0.948 . S
O90 Zn75 2.034 . S
O90 C85 1.246 1_556 S
O91 Zn83 2.024 . S
O91 C85 1.249 1_556 S
H92 C74 0.948 . S
O93 Zn83 2.039 . S
O93 C97 1.251 1_556 S
O94 Zn75 2.025 . S
O94 C97 1.254 1_556 S
O95 C76 1.246 . S
O95 Zn83 2.034 . S
O96 Zn75 2.024 . S
O96 C76 1.249 . S
C97 O93 1.251 1_554 S
C97 O94 1.254 1_554 S
H98 C71 0.949 . S
H99 C73 0.950 . S
H100 C80 0.949 1_455 S
H101 C82 0.950 . S
C102 O118 1.251 . S
C102 O120 1.254 . S
N103 C104 1.333 . S
N103 C108 1.307 . S
N103 Zn109 2.020 . S
C104 N103 1.333 . S
C104 C105 1.379 . S
C104 H122 0.952 . S
C105 C104 1.379 . S
C105 C106 1.390 . S
C105 H132 0.949 . S
C106 C105 1.390 . S
C106 C107 1.357 . S
C107 C106 1.357 . S
C107 C108 1.370 . S
C107 H133 0.950 . S
C108 N103 1.307 . S
C108 C107 1.370 . S
C108 H126 0.948 . S
Zn109 N103 2.020 . S
Zn109 O118 2.039 . S
Zn109 O124 2.034 . S
Zn109 O128 2.025 . S
Zn109 O130 2.024 . S
C110 O129 1.246 . S
C110 O130 1.249 . S
N111 C112 1.307 . S
N111 C113 1.333 . S
N111 Zn117 2.020 . S
C112 N111 1.307 . S
C112 C116 1.370 . S
C112 H123 0.948 . S
C113 N111 1.333 . S
C113 C114 1.379 . S
C113 H121 0.952 . S
C114 C113 1.379 . S
C114 C115 1.390 . S
C114 H134 0.949 1_565 S
C115 C114 1.390 . S
C115 C116 1.357 . S
C116 C112 1.370 . S
C116 C115 1.357 . S
C116 H135 0.950 . S
Zn117 N111 2.020 . S
Zn117 O120 2.025 . S
Zn117 O125 2.024 . S
Zn117 O127 2.039 . S
Zn117 O129 2.034 . S
O118 C102 1.251 . S
O118 Zn109 2.039 . S
C119 O124 1.246 . S
C119 O125 1.249 . S
O120 C102 1.254 . S
O120 Zn117 2.025 . S
H121 C113 0.952 . S
H122 C104 0.952 . S
H123 C112 0.948 . S
O124 Zn109 2.034 . S
O124 C119 1.246 . S
O125 Zn117 2.024 . S
O125 C119 1.249 . S
H126 C108 0.948 . S
O127 Zn117 2.039 . S
O127 C131 1.251 . S
O128 Zn109 2.025 . S
O128 C131 1.254 . S
O129 C110 1.246 . S
O129 Zn117 2.034 . S
O130 Zn109 2.024 . S
O130 C110 1.249 . S
C131 O127 1.251 . S
C131 O128 1.254 . S
H132 C105 0.949 . S
H133 C107 0.950 . S
H134 C114 0.949 1_545 S
H135 C116 0.950 . S
C136 O152 1.251 . S
C136 O154 1.254 . S
N137 C138 1.333 . S
N137 C142 1.307 . S
N137 Zn143 2.020 . S
C138 N137 1.333 . S
C138 C139 1.379 . S
C138 H156 0.952 . S
C139 C138 1.379 . S
C139 C140 1.390 . S
C139 H166 0.949 . S
C140 C139 1.390 . S
C140 C141 1.357 . S
C141 C140 1.357 . S
C141 C142 1.370 . S
C141 H167 0.950 . S
C142 N137 1.307 . S
C142 C141 1.370 . S
C142 H160 0.948 . S
Zn143 N137 2.020 . S
Zn143 O152 2.039 . S
Zn143 O158 2.034 . S
Zn143 O162 2.025 . S
Zn143 O164 2.024 . S
C144 O163 1.246 . S
C144 O164 1.249 . S
N145 C146 1.307 . S
N145 C147 1.333 . S
N145 Zn151 2.020 . S
C146 N145 1.307 . S
C146 C150 1.370 . S
C146 H157 0.948 . S
C147 N145 1.333 . S
C147 C148 1.379 . S
C147 H155 0.952 . S
C148 C147 1.379 . S
C148 C149 1.390 . S
C148 H168 0.949 . S
C149 C148 1.390 . S
C149 C150 1.357 . S
C150 C146 1.370 . S
C150 C149 1.357 . S
C150 H169 0.950 . S
Zn151 N145 2.020 . S
Zn151 O154 2.025 . S
Zn151 O159 2.024 . S
Zn151 O161 2.039 . S
Zn151 O163 2.034 . S
O152 C136 1.251 . S
O152 Zn143 2.039 . S
C153 O158 1.246 . S
C153 O159 1.249 . S
O154 C136 1.254 . S
O154 Zn151 2.025 . S
H155 C147 0.952 . S
H156 C138 0.952 . S
H157 C146 0.948 . S
O158 Zn143 2.034 . S
O158 C153 1.246 . S
O159 Zn151 2.024 . S
O159 C153 1.249 . S
H160 C142 0.948 . S
O161 Zn151 2.039 . S
O161 C165 1.251 . S
O162 Zn143 2.025 . S
O162 C165 1.254 . S
O163 C144 1.246 . S
O163 Zn151 2.034 . S
O164 Zn143 2.024 . S
O164 C144 1.249 . S
C165 O161 1.251 . S
C165 O162 1.254 . S
H166 C139 0.949 . S
H167 C141 0.950 . S
H168 C148 0.949 . S
H169 C150 0.950 . S
C170 O186 1.251 . S
C170 O188 1.254 . S
N171 C172 1.333 . S
N171 C176 1.307 . S
N171 Zn177 2.020 . S
C172 N171 1.333 . S
C172 C173 1.379 . S
C172 H190 0.952 . S
C173 C172 1.379 . S
C173 C174 1.390 . S
C173 H200 0.949 . S
C174 C173 1.390 . S
C174 C175 1.357 . S
C175 C174 1.357 . S
C175 C176 1.370 . S
C175 H201 0.950 . S
C176 N171 1.307 . S
C176 C175 1.370 . S
C176 H194 0.948 . S
Zn177 N171 2.020 . S
Zn177 O186 2.039 . S
Zn177 O192 2.034 . S
Zn177 O196 2.025 . S
Zn177 O198 2.024 . S
C178 O197 1.246 . S
C178 O198 1.249 . S
N179 C180 1.307 . S
N179 C181 1.333 . S
N179 Zn185 2.020 . S
C180 N179 1.307 . S
C180 C184 1.370 . S
C180 H191 0.948 . S
C181 N179 1.333 . S
C181 C182 1.379 . S
C181 H189 0.952 . S
C182 C181 1.379 . S
C182 C183 1.390 . S
C182 H202 0.949 1_455 S
C183 C182 1.390 . S
C183 C184 1.357 . S
C184 C180 1.370 . S
C184 C183 1.357 . S
C184 H203 0.950 . S
Zn185 N179 2.020 . S
Zn185 O188 2.025 . S
Zn185 O193 2.024 . S
Zn185 O195 2.039 . S
Zn185 O197 2.034 . S
O186 C170 1.251 . S
O186 Zn177 2.039 . S
C187 O192 1.246 1_554 S
C187 O193 1.249 1_554 S
O188 C170 1.254 . S
O188 Zn185 2.025 . S
H189 C181 0.952 . S
H190 C172 0.952 . S
H191 C180 0.948 . S
O192 Zn177 2.034 . S
O192 C187 1.246 1_556 S
O193 Zn185 2.024 . S
O193 C187 1.249 1_556 S
H194 C176 0.948 . S
O195 Zn185 2.039 . S
O195 C199 1.251 1_556 S
O196 Zn177 2.025 . S
O196 C199 1.254 1_556 S
O197 C178 1.246 . S
O197 Zn185 2.034 . S
O198 Zn177 2.024 . S
O198 C178 1.249 . S
C199 O195 1.251 1_554 S
C199 O196 1.254 1_554 S
H200 C173 0.949 . S
H201 C175 0.950 . S
H202 C182 0.949 1_655 S
H203 C184 0.950 . S
C204 O220 1.251 . S
C204 O222 1.254 . S
N205 C206 1.333 . S
N205 C210 1.307 . S
N205 Zn211 2.020 . S
C206 N205 1.333 . S
C206 C207 1.379 . S
C206 H224 0.952 . S
C207 C206 1.379 . S
C207 C208 1.390 . S
C207 H234 0.949 . S
C208 C207 1.390 . S
C208 C209 1.357 . S
C209 C208 1.357 . S
C209 C210 1.370 . S
C209 H235 0.950 . S
C210 N205 1.307 . S
C210 C209 1.370 . S
C210 H228 0.948 . S
Zn211 N205 2.020 . S
Zn211 O220 2.039 . S
Zn211 O226 2.034 . S
Zn211 O230 2.025 . S
Zn211 O232 2.024 . S
C212 O231 1.246 . S
C212 O232 1.249 . S
N213 C214 1.307 . S
N213 C215 1.333 . S
N213 Zn219 2.020 . S
C214 N213 1.307 . S
C214 C218 1.370 . S
C214 H225 0.948 . S
C215 N213 1.333 . S
C215 C216 1.379 . S
C215 H223 0.952 . S
C216 C215 1.379 . S
C216 C217 1.390 . S
C216 H236 0.949 1_655 S
C217 C216 1.390 . S
C217 C218 1.357 . S
C218 C214 1.370 . S
C218 C217 1.357 . S
C218 H237 0.950 . S
Zn219 N213 2.020 . S
Zn219 O222 2.025 . S
Zn219 O227 2.024 . S
Zn219 O229 2.039 . S
Zn219 O231 2.034 . S
O220 C204 1.251 . S
O220 Zn211 2.039 . S
C221 O226 1.246 . S
C221 O227 1.249 . S
O222 C204 1.254 . S
O222 Zn219 2.025 . S
H223 C215 0.952 . S
H224 C206 0.952 . S
H225 C214 0.948 . S
O226 Zn211 2.034 . S
O226 C221 1.246 . S
O227 Zn219 2.024 . S
O227 C221 1.249 . S
H228 C210 0.948 . S
O229 Zn219 2.039 . S
O229 C233 1.251 . S
O230 Zn211 2.025 . S
O230 C233 1.254 . S
O231 C212 1.246 . S
O231 Zn219 2.034 . S
O232 Zn211 2.024 . S
O232 C212 1.249 . S
C233 O229 1.251 . S
C233 O230 1.254 . S
H234 C207 0.949 . S
H235 C209 0.950 . S
H236 C216 0.949 1_455 S
H237 C218 0.950 . S
C238 O254 1.251 . S
C238 O256 1.254 . S
N239 C240 1.333 . S
N239 C244 1.307 . S
N239 Zn245 2.020 . S
C240 N239 1.333 . S
C240 C241 1.379 . S
C240 H258 0.952 . S
C241 C240 1.379 . S
C241 C242 1.390 . S
C241 H268 0.949 . S
C242 C241 1.390 . S
C242 C243 1.357 . S
C243 C242 1.357 . S
C243 C244 1.370 . S
C243 H269 0.950 . S
C244 N239 1.307 . S
C244 C243 1.370 . S
C244 H262 0.948 . S
Zn245 N239 2.020 . S
Zn245 O254 2.039 . S
Zn245 O260 2.034 . S
Zn245 O264 2.025 . S
Zn245 O266 2.024 . S
C246 O265 1.246 . S
C246 O266 1.249 . S
N247 C248 1.307 . S
N247 C249 1.333 . S
N247 Zn253 2.020 . S
C248 N247 1.307 . S
C248 C252 1.370 . S
C248 H259 0.948 . S
C249 N247 1.333 . S
C249 C250 1.379 . S
C249 H257 0.952 . S
C250 C249 1.379 . S
C250 C251 1.390 . S
C250 H270 0.949 1_565 S
C251 C250 1.390 . S
C251 C252 1.357 . S
C252 C248 1.370 . S
C252 C251 1.357 . S
C252 H271 0.950 . S
Zn253 N247 2.020 . S
Zn253 O256 2.025 . S
Zn253 O261 2.024 . S
Zn253 O263 2.039 . S
Zn253 O265 2.034 . S
O254 C238 1.251 . S
O254 Zn245 2.039 . S
C255 O260 1.246 . S
C255 O261 1.249 . S
O256 C238 1.254 . S
O256 Zn253 2.025 . S
H257 C249 0.952 . S
H258 C240 0.952 . S
H259 C248 0.948 . S
O260 Zn245 2.034 . S
O260 C255 1.246 . S
O261 Zn253 2.024 . S
O261 C255 1.249 . S
H262 C244 0.948 . S
O263 Zn253 2.039 . S
O263 C267 1.251 . S
O264 Zn245 2.025 . S
O264 C267 1.254 . S
O265 C246 1.246 . S
O265 Zn253 2.034 . S
O266 Zn245 2.024 . S
O266 C246 1.249 . S
C267 O263 1.251 . S
C267 O264 1.254 . S
H268 C241 0.949 . S
H269 C243 0.950 . S
H270 C250 0.949 1_545 S
H271 C252 0.950 . S
C272 O288 1.251 . S
C272 O290 1.254 . S
N273 C274 1.333 . S
N273 C278 1.307 . S
N273 Zn279 2.020 . S
C274 N273 1.333 . S
C274 C275 1.379 . S
C274 H292 0.952 . S
C275 C274 1.379 . S
C275 C276 1.390 . S
C275 H302 0.949 . S
C276 C275 1.390 . S
C276 C277 1.357 . S
C277 C276 1.357 . S
C277 C278 1.370 . S
C277 H303 0.950 . S
C278 N273 1.307 . S
C278 C277 1.370 . S
C278 H296 0.948 . S
Zn279 N273 2.020 . S
Zn279 O288 2.039 . S
Zn279 O294 2.034 . S
Zn279 O298 2.025 . S
Zn279 O300 2.024 . S
C280 O299 1.246 . S
C280 O300 1.249 . S
N281 C282 1.307 . S
N281 C283 1.333 . S
N281 Zn287 2.020 . S
C282 N281 1.307 . S
C282 C286 1.370 . S
C282 H293 0.948 . S
C283 N281 1.333 . S
C283 C284 1.379 . S
C283 H291 0.952 . S
C284 C283 1.379 . S
C284 C285 1.390 . S
C284 H304 0.949 . S
C285 C284 1.390 . S
C285 C286 1.357 . S
C286 C282 1.370 . S
C286 C285 1.357 . S
C286 H305 0.950 . S
Zn287 N281 2.020 . S
Zn287 O290 2.025 . S
Zn287 O295 2.024 . S
Zn287 O297 2.039 . S
Zn287 O299 2.034 . S
O288 C272 1.251 . S
O288 Zn279 2.039 . S
C289 O294 1.246 1_556 S
C289 O295 1.249 1_556 S
O290 C272 1.254 . S
O290 Zn287 2.025 . S
H291 C283 0.952 . S
H292 C274 0.952 . S
H293 C282 0.948 . S
O294 Zn279 2.034 . S
O294 C289 1.246 1_554 S
O295 Zn287 2.024 . S
O295 C289 1.249 1_554 S
H296 C278 0.948 . S
O297 Zn287 2.039 . S
O297 C301 1.251 1_554 S
O298 Zn279 2.025 . S
O298 C301 1.254 1_554 S
O299 C280 1.246 . S
O299 Zn287 2.034 . S
O300 Zn279 2.024 . S
O300 C280 1.249 . S
C301 O297 1.251 1_556 S
C301 O298 1.254 1_556 S
H302 C275 0.949 . S
H303 C277 0.950 . S
H304 C284 0.949 . S
H305 C286 0.950 . S
C306 O322 1.251 . S
C306 O324 1.254 . S
N307 C308 1.333 . S
N307 C312 1.307 . S
N307 Zn313 2.020 . S
C308 N307 1.333 . S
C308 C309 1.379 . S
C308 H326 0.952 . S
C309 C308 1.379 . S
C309 C310 1.390 . S
C309 H336 0.949 . S
C310 C309 1.390 . S
C310 C311 1.357 . S
C311 C310 1.357 . S
C311 C312 1.370 . S
C311 H337 0.950 . S
C312 N307 1.307 . S
C312 C311 1.370 . S
C312 H330 0.948 . S
Zn313 N307 2.020 . S
Zn313 O322 2.039 . S
Zn313 O328 2.034 . S
Zn313 O332 2.025 . S
Zn313 O334 2.024 . S
C314 O333 1.246 . S
C314 O334 1.249 . S
N315 C316 1.307 . S
N315 C317 1.333 . S
N315 Zn321 2.020 . S
C316 N315 1.307 . S
C316 C320 1.370 . S
C316 H327 0.948 . S
C317 N315 1.333 . S
C317 C318 1.379 . S
C317 H325 0.952 . S
C318 C317 1.379 . S
C318 C319 1.390 . S
C318 H338 0.949 1_455 S
C319 C318 1.390 . S
C319 C320 1.357 . S
C320 C316 1.370 . S
C320 C319 1.357 . S
C320 H339 0.950 . S
Zn321 N315 2.020 . S
Zn321 O324 2.025 . S
Zn321 O329 2.024 . S
Zn321 O331 2.039 . S
Zn321 O333 2.034 . S
O322 C306 1.251 . S
O322 Zn313 2.039 . S
C323 O328 1.246 . S
C323 O329 1.249 . S
O324 C306 1.254 . S
O324 Zn321 2.025 . S
H325 C317 0.952 . S
H326 C308 0.952 . S
H327 C316 0.948 . S
O328 Zn313 2.034 . S
O328 C323 1.246 . S
O329 Zn321 2.024 . S
O329 C323 1.249 . S
H330 C312 0.948 . S
O331 Zn321 2.039 . S
O331 C335 1.251 . S
O332 Zn313 2.025 . S
O332 C335 1.254 . S
O333 C314 1.246 . S
O333 Zn321 2.034 . S
O334 Zn313 2.024 . S
O334 C314 1.249 . S
C335 O331 1.251 . S
C335 O332 1.254 . S
H336 C309 0.949 . S
H337 C311 0.950 . S
H338 C318 0.949 1_655 S
H339 C320 0.950 . S
C340 O356 1.251 . S
C340 O358 1.254 . S
N341 C342 1.333 . S
N341 C346 1.307 . S
N341 Zn347 2.020 . S
C342 N341 1.333 . S
C342 C343 1.379 . S
C342 H360 0.952 . S
C343 C342 1.379 . S
C343 C344 1.390 . S
C343 H370 0.949 . S
C344 C343 1.390 . S
C344 C345 1.357 . S
C345 C344 1.357 . S
C345 C346 1.370 . S
C345 H371 0.950 . S
C346 N341 1.307 . S
C346 C345 1.370 . S
C346 H364 0.948 . S
Zn347 N341 2.020 . S
Zn347 O356 2.039 . S
Zn347 O362 2.034 . S
Zn347 O366 2.025 . S
Zn347 O368 2.024 . S
C348 O367 1.246 . S
C348 O368 1.249 . S
N349 C350 1.307 . S
N349 C351 1.333 . S
N349 Zn355 2.020 . S
C350 N349 1.307 . S
C350 C354 1.370 . S
C350 H361 0.948 . S
C351 N349 1.333 . S
C351 C352 1.379 . S
C351 H359 0.952 . S
C352 C351 1.379 . S
C352 C353 1.390 . S
C352 H372 0.949 1_545 S
C353 C352 1.390 . S
C353 C354 1.357 . S
C354 C350 1.370 . S
C354 C353 1.357 . S
C354 H373 0.950 . S
Zn355 N349 2.020 . S
Zn355 O358 2.025 . S
Zn355 O363 2.024 . S
Zn355 O365 2.039 . S
Zn355 O367 2.034 . S
O356 C340 1.251 . S
O356 Zn347 2.039 . S
C357 O362 1.246 . S
C357 O363 1.249 . S
O358 C340 1.254 . S
O358 Zn355 2.025 . S
H359 C351 0.952 . S
H360 C342 0.952 . S
H361 C350 0.948 . S
O362 Zn347 2.034 . S
O362 C357 1.246 . S
O363 Zn355 2.024 . S
O363 C357 1.249 . S
H364 C346 0.948 . S
O365 Zn355 2.039 . S
O365 C369 1.251 . S
O366 Zn347 2.025 . S
O366 C369 1.254 . S
O367 C348 1.246 . S
O367 Zn355 2.034 . S
O368 Zn347 2.024 . S
O368 C348 1.249 . S
C369 O365 1.251 . S
C369 O366 1.254 . S
H370 C343 0.949 . S
H371 C345 0.950 . S
H372 C352 0.949 1_565 S
H373 C354 0.950 . S
C374 O390 1.251 . S
C374 O392 1.254 . S
N375 C376 1.333 . S
N375 C380 1.307 . S
N375 Zn381 2.020 . S
C376 N375 1.333 . S
C376 C377 1.379 . S
C376 H394 0.952 . S
C377 C376 1.379 . S
C377 C378 1.390 . S
C377 H404 0.949 . S
C378 C377 1.390 . S
C378 C379 1.357 . S
C379 C378 1.357 . S
C379 C380 1.370 . S
C379 H405 0.950 . S
C380 N375 1.307 . S
C380 C379 1.370 . S
C380 H398 0.948 . S
Zn381 N375 2.020 . S
Zn381 O390 2.039 . S
Zn381 O396 2.034 . S
Zn381 O400 2.025 . S
Zn381 O402 2.024 . S
C382 O401 1.246 . S
C382 O402 1.249 . S
N383 C384 1.307 . S
N383 C385 1.333 . S
N383 Zn389 2.020 . S
C384 N383 1.307 . S
C384 C388 1.370 . S
C384 H395 0.948 . S
C385 N383 1.333 . S
C385 C386 1.379 . S
C385 H393 0.952 . S
C386 C385 1.379 . S
C386 C387 1.390 . S
C386 H406 0.949 . S
C387 C386 1.390 . S
C387 C388 1.357 . S
C388 C384 1.370 . S
C388 C387 1.357 . S
C388 H407 0.950 . S
Zn389 N383 2.020 . S
Zn389 O392 2.025 . S
Zn389 O397 2.024 . S
Zn389 O399 2.039 . S
Zn389 O401 2.034 . S
O390 C374 1.251 . S
O390 Zn381 2.039 . S
C391 O396 1.246 1_556 S
C391 O397 1.249 1_556 S
O392 C374 1.254 . S
O392 Zn389 2.025 . S
H393 C385 0.952 . S
H394 C376 0.952 . S
H395 C384 0.948 . S
O396 Zn381 2.034 . S
O396 C391 1.246 1_554 S
O397 Zn389 2.024 . S
O397 C391 1.249 1_554 S
H398 C380 0.948 . S
O399 Zn389 2.039 . S
O399 C403 1.251 1_554 S
O400 Zn381 2.025 . S
O400 C403 1.254 1_554 S
O401 C382 1.246 . S
O401 Zn389 2.034 . S
O402 Zn381 2.024 . S
O402 C382 1.249 . S
C403 O399 1.251 1_556 S
C403 O400 1.254 1_556 S
H404 C377 0.949 . S
H405 C379 0.950 . S
H406 C386 0.949 . S
H407 C388 0.950 . S
H408 C414 0.930 . S
H409 C418 0.930 . S
H410 C423 0.929 . S
H411 C421 0.929 . S
H412 C416 0.929 . S
H413 C422 0.929 . S
C414 H408 0.930 . S
C414 C415 1.367 . S
C414 C422 1.378 . S
C415 C414 1.367 . S
C415 C423 1.433 . S
C416 H412 0.929 . S
C416 C418 1.378 . S
C416 C420 1.350 . S
C417 C420 1.463 . S
C417 C422 1.350 . S
C417 N425 1.427 . S
C418 H409 0.930 . S
C418 C416 1.378 . S
C418 C419 1.367 . S
C419 C418 1.367 . S
C419 C421 1.433 . S
C420 C416 1.350 . S
C420 C417 1.463 . S
C420 N424 1.427 . S
C421 H411 0.929 . S
C421 C419 1.433 . S
C421 N424 1.384 . S
C422 H413 0.929 . S
C422 C414 1.378 . S
C422 C417 1.350 . S
C423 H410 0.929 . S
C423 C415 1.433 . S
C423 N425 1.384 . S
N424 C420 1.427 . S
N424 C421 1.384 . S
N425 C417 1.427 . S
N425 C423 1.384 . S
H426 C432 0.930 . S
H427 C436 0.930 . S
H428 C441 0.929 . S
H429 C439 0.929 . S
H430 C434 0.929 . S
H431 C440 0.929 . S
C432 H426 0.930 . S
C432 C433 1.367 . S
C432 C440 1.378 . S
C433 C432 1.367 . S
C433 C441 1.433 . S
C434 H430 0.929 . S
C434 C436 1.378 . S
C434 C438 1.350 . S
C435 C438 1.463 . S
C435 C440 1.350 . S
C435 N443 1.427 . S
C436 H427 0.930 . S
C436 C434 1.378 . S
C436 C437 1.367 . S
C437 C436 1.367 . S
C437 C439 1.433 . S
C438 C434 1.350 . S
C438 C435 1.463 . S
C438 N442 1.427 . S
C439 H429 0.929 . S
C439 C437 1.433 . S
C439 N442 1.384 . S
C440 H431 0.929 . S
C440 C432 1.378 . S
C440 C435 1.350 . S
C441 H428 0.929 . S
C441 C433 1.433 . S
C441 N443 1.384 . S
N442 C438 1.427 . S
N442 C439 1.384 . S
N443 C435 1.427 . S
N443 C441 1.384 . S
H444 C450 0.930 . S
H445 C454 0.930 . S
H446 C459 0.929 . S
H447 C457 0.929 . S
H448 C452 0.929 . S
H449 C458 0.929 . S
C450 H444 0.930 . S
C450 C451 1.367 . S
C450 C458 1.378 . S
C451 C450 1.367 . S
C451 C459 1.433 . S
C452 H448 0.929 . S
C452 C454 1.378 . S
C452 C456 1.350 . S
C453 C456 1.463 . S
C453 C458 1.350 . S
C453 N461 1.427 . S
C454 H445 0.930 . S
C454 C452 1.378 . S
C454 C455 1.367 . S
C455 C454 1.367 . S
C455 C457 1.433 . S
C456 C452 1.350 . S
C456 C453 1.463 . S
C456 N460 1.427 . S
C457 H447 0.929 . S
C457 C455 1.433 . S
C457 N460 1.384 . S
C458 H449 0.929 . S
C458 C450 1.378 . S
C458 C453 1.350 . S
C459 H446 0.929 . S
C459 C451 1.433 . S
C459 N461 1.384 . S
N460 C456 1.427 . S
N460 C457 1.384 . S
N461 C453 1.427 . S
N461 C459 1.384 . S
H462 C468 0.930 . S
H463 C472 0.930 . S
H464 C477 0.929 . S
H465 C475 0.929 . S
H466 C470 0.929 . S
H467 C476 0.929 . S
C468 H462 0.930 . S
C468 C469 1.367 . S
C468 C476 1.378 . S
C469 C468 1.367 . S
C469 C477 1.433 . S
C470 H466 0.929 . S
C470 C472 1.378 . S
C470 C474 1.350 . S
C471 C474 1.463 . S
C471 C476 1.350 . S
C471 N479 1.427 . S
C472 H463 0.930 . S
C472 C470 1.378 . S
C472 C473 1.367 . S
C473 C472 1.367 . S
C473 C475 1.433 . S
C474 C470 1.350 . S
C474 C471 1.463 . S
C474 N478 1.427 . S
C475 H465 0.929 . S
C475 C473 1.433 . S
C475 N478 1.384 . S
C476 H467 0.929 . S
C476 C468 1.378 . S
C476 C471 1.350 . S
C477 H464 0.929 . S
C477 C469 1.433 . S
C477 N479 1.384 . S
N478 C474 1.427 . S
N478 C475 1.384 . S
N479 C471 1.427 . S
N479 C477 1.384 . S
H480 C486 0.930 . S
H481 C490 0.930 . S
H482 C495 0.929 . S
H483 C493 0.929 . S
H484 C488 0.929 . S
H485 C494 0.929 . S
C486 H480 0.930 . S
C486 C487 1.367 . S
C486 C494 1.378 . S
C487 C486 1.367 . S
C487 C495 1.433 . S
C488 H484 0.929 . S
C488 C490 1.378 . S
C488 C492 1.350 . S
C489 C492 1.463 . S
C489 C494 1.350 . S
C489 N497 1.427 . S
C490 H481 0.930 . S
C490 C488 1.378 . S
C490 C491 1.367 . S
C491 C490 1.367 . S
C491 C493 1.433 . S
C492 C488 1.350 . S
C492 C489 1.463 . S
C492 N496 1.427 . S
C493 H483 0.929 . S
C493 C491 1.433 . S
C493 N496 1.384 . S
C494 H485 0.929 . S
C494 C486 1.378 . S
C494 C489 1.350 . S
C495 H482 0.929 . S
C495 C487 1.433 . S
C495 N497 1.384 . S
N496 C492 1.427 . S
N496 C493 1.384 . S
N497 C489 1.427 . S
N497 C495 1.384 . S
H498 C504 0.930 . S
H499 C508 0.930 . S
H500 C513 0.929 . S
H501 C511 0.929 . S
H502 C506 0.929 . S
H503 C512 0.929 . S
C504 H498 0.930 . S
C504 C505 1.367 . S
C504 C512 1.378 . S
C505 C504 1.367 . S
C505 C513 1.433 . S
C506 H502 0.929 . S
C506 C508 1.378 . S
C506 C510 1.350 . S
C507 C510 1.463 . S
C507 C512 1.350 . S
C507 N515 1.427 . S
C508 H499 0.930 . S
C508 C506 1.378 . S
C508 C509 1.367 . S
C509 C508 1.367 . S
C509 C511 1.433 . S
C510 C506 1.350 . S
C510 C507 1.463 . S
C510 N514 1.427 . S
C511 H501 0.929 . S
C511 C509 1.433 . S
C511 N514 1.384 . S
C512 H503 0.929 . S
C512 C504 1.378 . S
C512 C507 1.350 . S
C513 H500 0.929 . S
C513 C505 1.433 . S
C513 N515 1.384 . S
N514 C510 1.427 . S
N514 C511 1.384 . S
N515 C507 1.427 . S
N515 C513 1.384 . S
H516 C522 0.930 . S
H517 C526 0.930 . S
H518 C531 0.929 . S
H519 C529 0.929 . S
H520 C524 0.928 . S
H521 C530 0.928 . S
C522 H516 0.930 . S
C522 C523 1.367 . S
C522 C530 1.378 . S
C523 C522 1.367 . S
C523 C531 1.433 . S
C524 H520 0.928 . S
C524 C526 1.378 . S
C524 C528 1.350 . S
C525 C528 1.463 1_556 S
C525 C530 1.350 . S
C525 N533 1.427 . S
C526 H517 0.930 . S
C526 C524 1.378 . S
C526 C527 1.367 . S
C527 C526 1.367 . S
C527 C529 1.433 . S
C528 C524 1.350 . S
C528 C525 1.463 1_554 S
C528 N532 1.427 . S
C529 H519 0.929 . S
C529 C527 1.433 . S
C529 N532 1.384 . S
C530 H521 0.928 . S
C530 C522 1.378 . S
C530 C525 1.350 . S
C531 H518 0.929 . S
C531 C523 1.433 . S
C531 N533 1.384 . S
N532 C528 1.427 . S
N532 C529 1.384 . S
N533 C525 1.427 . S
N533 C531 1.384 . S
H534 C540 0.930 . S
H535 C544 0.930 . S
H536 C549 0.929 . S
H537 C547 0.929 . S
H538 C542 0.929 . S
H539 C548 0.929 . S
C540 H534 0.930 . S
C540 C541 1.367 . S
C540 C548 1.378 . S
C541 C540 1.367 . S
C541 C549 1.433 . S
C542 H538 0.929 . S
C542 C544 1.378 . S
C542 C546 1.350 . S
C543 C546 1.463 . S
C543 C548 1.350 . S
C543 N551 1.427 . S
C544 H535 0.930 . S
C544 C542 1.378 . S
C544 C545 1.367 . S
C545 C544 1.367 . S
C545 C547 1.433 . S
C546 C542 1.350 . S
C546 C543 1.463 . S
C546 N550 1.427 . S
C547 H537 0.929 . S
C547 C545 1.433 . S
C547 N550 1.384 . S
C548 H539 0.929 . S
C548 C540 1.378 . S
C548 C543 1.350 . S
C549 H536 0.929 . S
C549 C541 1.433 . S
C549 N551 1.384 . S
N550 C546 1.427 . S
N550 C547 1.384 . S
N551 C543 1.427 . S
N551 C549 1.384 . S
H552 C558 0.930 . S
H553 C562 0.930 . S
H554 C567 0.929 . S
H555 C565 0.929 . S
H556 C560 0.929 . S
H557 C566 0.929 . S
C558 H552 0.930 . S
C558 C559 1.367 . S
C558 C566 1.378 . S
C559 C558 1.367 . S
C559 C567 1.433 . S
C560 H556 0.929 . S
C560 C562 1.378 . S
C560 C564 1.350 . S
C561 C564 1.463 . S
C561 C566 1.350 . S
C561 N569 1.427 . S
C562 H553 0.930 . S
C562 C560 1.378 . S
C562 C563 1.367 . S
C563 C562 1.367 . S
C563 C565 1.433 . S
C564 C560 1.350 . S
C564 C561 1.463 . S
C564 N568 1.427 . S
C565 H555 0.929 . S
C565 C563 1.433 . S
C565 N568 1.384 . S
C566 H557 0.929 . S
C566 C558 1.378 . S
C566 C561 1.350 . S
C567 H554 0.929 . S
C567 C559 1.433 . S
C567 N569 1.384 . S
N568 C564 1.427 . S
N568 C565 1.384 . S
N569 C561 1.427 . S
N569 C567 1.384 . S
H570 C576 0.930 . S
H571 C580 0.930 . S
H572 C585 0.929 . S
H573 C583 0.929 . S
H574 C578 0.929 . S
H575 C584 0.929 . S
C576 H570 0.930 . S
C576 C577 1.367 . S
C576 C584 1.378 . S
C577 C576 1.367 . S
C577 C585 1.433 . S
C578 H574 0.929 . S
C578 C580 1.378 . S
C578 C582 1.350 . S
C579 C582 1.463 1_556 S
C579 C584 1.350 . S
C579 N587 1.427 . S
C580 H571 0.930 . S
C580 C578 1.378 . S
C580 C581 1.367 . S
C581 C580 1.367 . S
C581 C583 1.433 . S
C582 C578 1.350 . S
C582 C579 1.463 1_554 S
C582 N586 1.427 . S
C583 H573 0.929 . S
C583 C581 1.433 . S
C583 N586 1.384 . S
C584 H575 0.929 . S
C584 C576 1.378 . S
C584 C579 1.350 . S
C585 H572 0.929 . S
C585 C577 1.433 . S
C585 N587 1.384 . S
N586 C582 1.427 . S
N586 C583 1.384 . S
N587 C579 1.427 . S
N587 C585 1.384 . S
H588 C594 0.930 . S
H589 C598 0.930 . S
H590 C603 0.929 . S
H591 C601 0.929 . S
H592 C596 0.929 . S
H593 C602 0.929 . S
C594 H588 0.930 . S
C594 C595 1.367 . S
C594 C602 1.378 . S
C595 C594 1.367 . S
C595 C603 1.433 . S
C596 H592 0.929 . S
C596 C598 1.378 . S
C596 C600 1.350 . S
C597 C600 1.463 . S
C597 C602 1.350 . S
C597 N605 1.427 . S
C598 H589 0.930 . S
C598 C596 1.378 . S
C598 C599 1.367 . S
C599 C598 1.367 . S
C599 C601 1.433 . S
C600 C596 1.350 . S
C600 C597 1.463 . S
C600 N604 1.427 . S
C601 H591 0.929 . S
C601 C599 1.433 . S
C601 N604 1.384 . S
C602 H593 0.929 . S
C602 C594 1.378 . S
C602 C597 1.350 . S
C603 H590 0.929 . S
C603 C595 1.433 . S
C603 N605 1.384 . S
N604 C600 1.427 . S
N604 C601 1.384 . S
N605 C597 1.427 . S
N605 C603 1.384 . S
H606 C612 0.930 . S
H607 C616 0.930 . S
H608 C621 0.929 . S
H609 C619 0.929 . S
H610 C614 0.929 . S
H611 C620 0.929 . S
C612 H606 0.930 . S
C612 C613 1.367 . S
C612 C620 1.378 . S
C613 C612 1.367 . S
C613 C621 1.433 . S
C614 H610 0.929 . S
C614 C616 1.378 . S
C614 C618 1.350 . S
C615 C618 1.463 . S
C615 C620 1.350 . S
C615 N623 1.427 . S
C616 H607 0.930 . S
C616 C614 1.378 . S
C616 C617 1.367 . S
C617 C616 1.367 . S
C617 C619 1.433 . S
C618 C614 1.350 . S
C618 C615 1.463 . S
C618 N622 1.427 . S
C619 H609 0.929 . S
C619 C617 1.433 . S
C619 N622 1.384 . S
C620 H611 0.929 . S
C620 C612 1.378 . S
C620 C615 1.350 . S
C621 H608 0.929 . S
C621 C613 1.433 . S
C621 N623 1.384 . S
N622 C618 1.427 . S
N622 C619 1.384 . S
N623 C615 1.427 . S
N623 C621 1.384 . S
H624 C630 0.930 . S
H625 C634 0.930 . S
H626 C639 0.929 . S
H627 C637 0.929 . S
H628 C632 0.929 1_556 S
H629 C638 0.929 1_554 S
C630 H624 0.930 . S
C630 C631 1.367 . S
C630 C638 1.378 . S
C631 C630 1.367 . S
C631 C639 1.433 . S
C632 H628 0.929 1_554 S
C632 C634 1.378 . S
C632 C636 1.350 . S
C633 C636 1.463 1_566 S
C633 C638 1.350 . S
C633 N641 1.427 . S
C634 H625 0.930 . S
C634 C632 1.378 . S
C634 C635 1.367 . S
C635 C634 1.367 . S
C635 C637 1.433 . S
C636 C632 1.350 . S
C636 C633 1.463 1_544 S
C636 N640 1.427 . S
C637 H627 0.929 . S
C637 C635 1.433 . S
C637 N640 1.384 . S
C638 H629 0.929 1_556 S
C638 C630 1.378 . S
C638 C633 1.350 . S
C639 H626 0.929 . S
C639 C631 1.433 . S
C639 N641 1.384 . S
N640 C636 1.427 . S
N640 C637 1.384 . S
N641 C633 1.427 . S
N641 C639 1.384 . S
H642 C648 0.930 . S
H643 C652 0.930 . S
H644 C657 0.929 . S
H645 C655 0.929 . S
H646 C650 0.929 . S
H647 C656 0.929 . S
C648 H642 0.930 . S
C648 C649 1.367 . S
C648 C656 1.378 . S
C649 C648 1.367 . S
C649 C657 1.433 . S
C650 H646 0.929 . S
C650 C652 1.378 . S
C650 C654 1.350 . S
C651 C654 1.463 . S
C651 C656 1.350 . S
C651 N659 1.427 . S
C652 H643 0.930 . S
C652 C650 1.378 . S
C652 C653 1.367 . S
C653 C652 1.367 . S
C653 C655 1.433 . S
C654 C650 1.350 . S
C654 C651 1.463 . S
C654 N658 1.427 . S
C655 H645 0.929 . S
C655 C653 1.433 . S
C655 N658 1.384 . S
C656 H647 0.929 . S
C656 C648 1.378 . S
C656 C651 1.350 . S
C657 H644 0.929 . S
C657 C649 1.433 . S
C657 N659 1.384 . S
N658 C654 1.427 . S
N658 C655 1.384 . S
N659 C651 1.427 . S
N659 C657 1.384 . S
H660 C666 0.930 . S
H661 C670 0.930 . S
H662 C675 0.929 . S
H663 C673 0.929 . S
H664 C668 0.929 . S
H665 C674 0.929 . S
C666 H660 0.930 . S
C666 C667 1.367 . S
C666 C674 1.378 . S
C667 C666 1.367 . S
C667 C675 1.433 . S
C668 H664 0.929 . S
C668 C670 1.378 . S
C668 C672 1.350 . S
C669 C672 1.463 1_455 S
C669 C674 1.350 . S
C669 N677 1.427 . S
C670 H661 0.930 . S
C670 C668 1.378 . S
C670 C671 1.367 . S
C671 C670 1.367 . S
C671 C673 1.433 . S
C672 C668 1.350 . S
C672 C669 1.463 1_655 S
C672 N676 1.427 . S
C673 H663 0.929 . S
C673 C671 1.433 . S
C673 N676 1.384 . S
C674 H665 0.929 . S
C674 C666 1.378 . S
C674 C669 1.350 . S
C675 H662 0.929 . S
C675 C667 1.433 . S
C675 N677 1.384 . S
N676 C672 1.427 . S
N676 C673 1.384 . S
N677 C669 1.427 . S
N677 C675 1.384 . S
H678 C684 0.930 . S
H679 C688 0.930 . S
H680 C693 0.929 . S
H681 C691 0.929 . S
H682 C686 0.929 1_554 S
H683 C692 0.929 1_556 S
C684 H678 0.930 . S
C684 C685 1.367 . S
C684 C692 1.378 . S
C685 C684 1.367 . S
C685 C693 1.433 . S
C686 H682 0.929 1_556 S
C686 C688 1.378 . S
C686 C690 1.350 . S
C687 C690 1.463 1_564 S
C687 C692 1.350 . S
C687 N695 1.427 . S
C688 H679 0.930 . S
C688 C686 1.378 . S
C688 C689 1.367 . S
C689 C688 1.367 . S
C689 C691 1.433 . S
C690 C686 1.350 . S
C690 C687 1.463 1_546 S
C690 N694 1.427 . S
C691 H681 0.929 . S
C691 C689 1.433 . S
C691 N694 1.384 . S
C692 H683 0.929 1_554 S
C692 C684 1.378 . S
C692 C687 1.350 . S
C693 H680 0.929 . S
C693 C685 1.433 . S
C693 N695 1.384 . S
N694 C690 1.427 . S
N694 C691 1.384 . S
N695 C687 1.427 . S
N695 C693 1.384 . S
H696 C702 0.930 . S
H697 C706 0.930 . S
H698 C711 0.929 . S
H699 C709 0.929 . S
H700 C704 0.929 . S
H701 C710 0.929 . S
C702 H696 0.930 . S
C702 C703 1.367 . S
C702 C710 1.378 . S
C703 C702 1.367 . S
C703 C711 1.433 . S
C704 H700 0.929 . S
C704 C706 1.378 . S
C704 C708 1.350 . S
C705 C708 1.463 . S
C705 C710 1.350 . S
C705 N713 1.427 . S
C706 H697 0.930 . S
C706 C704 1.378 . S
C706 C707 1.367 . S
C707 C706 1.367 . S
C707 C709 1.433 . S
C708 C704 1.350 . S
C708 C705 1.463 . S
C708 N712 1.427 . S
C709 H699 0.929 . S
C709 C707 1.433 . S
C709 N712 1.384 . S
C710 H701 0.929 . S
C710 C702 1.378 . S
C710 C705 1.350 . S
C711 H698 0.929 . S
C711 C703 1.433 . S
C711 N713 1.384 . S
N712 C708 1.427 . S
N712 C709 1.384 . S
N713 C705 1.427 . S
N713 C711 1.384 . S
H714 C720 0.930 . S
H715 C724 0.930 . S
H716 C729 0.929 . S
H717 C727 0.929 . S
H718 C722 0.929 . S
H719 C728 0.929 . S
C720 H714 0.930 . S
C720 C721 1.367 . S
C720 C728 1.378 . S
C721 C720 1.367 . S
C721 C729 1.433 . S
C722 H718 0.929 . S
C722 C724 1.378 . S
C722 C726 1.350 . S
C723 C726 1.463 1_455 S
C723 C728 1.350 . S
C723 N731 1.427 . S
C724 H715 0.930 . S
C724 C722 1.378 . S
C724 C725 1.367 . S
C725 C724 1.367 . S
C725 C727 1.433 . S
C726 C722 1.350 . S
C726 C723 1.463 1_655 S
C726 N730 1.427 . S
C727 H717 0.929 . S
C727 C725 1.433 . S
C727 N730 1.384 . S
C728 H719 0.929 . S
C728 C720 1.378 . S
C728 C723 1.350 . S
C729 H716 0.929 . S
C729 C721 1.433 . S
C729 N731 1.384 . S
N730 C726 1.427 . S
N730 C727 1.384 . S
N731 C723 1.427 . S
N731 C729 1.384 . S
H732 C738 0.930 . S
H733 C742 0.930 . S
H734 C747 0.929 . S
H735 C745 0.929 . S
H736 C740 0.929 . S
H737 C746 0.929 . S
C738 H732 0.930 . S
C738 C739 1.367 . S
C738 C746 1.378 . S
C739 C738 1.367 . S
C739 C747 1.433 . S
C740 H736 0.929 . S
C740 C742 1.378 . S
C740 C744 1.350 . S
C741 C744 1.463 1_565 S
C741 C746 1.350 . S
C741 N749 1.427 . S
C742 H733 0.930 . S
C742 C740 1.378 . S
C742 C743 1.367 . S
C743 C742 1.367 . S
C743 C745 1.433 . S
C744 C740 1.350 . S
C744 C741 1.463 1_545 S
C744 N748 1.427 . S
C745 H735 0.929 . S
C745 C743 1.433 . S
C745 N748 1.384 . S
C746 H737 0.929 . S
C746 C738 1.378 . S
C746 C741 1.350 . S
C747 H734 0.929 . S
C747 C739 1.433 . S
C747 N749 1.384 . S
N748 C744 1.427 . S
N748 C745 1.384 . S
N749 C741 1.427 . S
N749 C747 1.384 . S
H750 C756 0.930 . S
H751 C760 0.930 . S
H752 C765 0.929 . S
H753 C763 0.929 . S
H754 C758 0.929 . S
H755 C764 0.929 . S
C756 H750 0.930 . S
C756 C757 1.367 . S
C756 C764 1.378 . S
C757 C756 1.367 . S
C757 C765 1.433 . S
C758 H754 0.929 . S
C758 C760 1.378 . S
C758 C762 1.350 . S
C759 C762 1.463 . S
C759 C764 1.350 . S
C759 N767 1.427 . S
C760 H751 0.930 . S
C760 C758 1.378 . S
C760 C761 1.367 . S
C761 C760 1.367 . S
C761 C763 1.433 . S
C762 C758 1.350 . S
C762 C759 1.463 . S
C762 N766 1.427 . S
C763 H753 0.929 . S
C763 C761 1.433 . S
C763 N766 1.384 . S
C764 H755 0.929 . S
C764 C756 1.378 . S
C764 C759 1.350 . S
C765 H752 0.929 . S
C765 C757 1.433 . S
C765 N767 1.384 . S
N766 C762 1.427 . S
N766 C763 1.384 . S
N767 C759 1.427 . S
N767 C765 1.384 . S
H768 C774 0.930 1_554 S
H769 C778 0.930 . S
H770 C783 0.929 . S
H771 C781 0.916 1_554 S
H772 C776 0.929 . S
H773 C782 0.929 1_554 S
C774 H768 0.930 1_556 S
C774 C775 1.367 . S
C774 C782 1.378 . S
C775 C774 1.367 . S
C775 C783 1.433 . S
C776 H772 0.929 . S
C776 C778 1.378 . S
C776 C780 1.350 . S
C777 C780 1.463 1_455 S
C777 C782 1.350 . S
C777 N785 1.427 . S
C778 H769 0.930 . S
C778 C776 1.378 . S
C778 C779 1.367 . S
C779 C778 1.367 . S
C779 C781 1.447 . S
C780 C776 1.350 . S
C780 C777 1.463 1_655 S
C780 N784 1.427 . S
C781 H771 0.916 1_556 S
C781 C779 1.447 . S
C781 N784 1.384 . S
C782 H773 0.929 1_556 S
C782 C774 1.378 . S
C782 C777 1.350 . S
C783 H770 0.929 . S
C783 C775 1.433 . S
C783 N785 1.384 . S
N784 C780 1.427 . S
N784 C781 1.384 . S
N785 C777 1.427 . S
N785 C783 1.384 . S
H786 C792 0.930 . S
H787 C796 0.930 . S
H788 C801 0.914 1_455 S
H789 C799 0.914 1_655 S
H790 C794 0.929 . S
H791 C800 0.929 . S
C792 H786 0.930 . S
C792 C793 1.367 . S
C792 C800 1.378 . S
C793 C792 1.367 . S
C793 C801 1.433 . S
C794 H790 0.929 . S
C794 C796 1.378 . S
C794 C798 1.350 . S
C795 C798 1.463 1_655 S
C795 C800 1.350 . S
C795 N803 1.427 1_655 S
C796 H787 0.930 . S
C796 C794 1.378 . S
C796 C797 1.367 . S
C797 C796 1.367 . S
C797 C799 1.433 . S
C798 C794 1.350 . S
C798 C795 1.463 1_455 S
C798 N802 1.427 1_455 S
C799 H789 0.914 1_455 S
C799 C797 1.433 . S
C799 N802 1.384 1_455 S
C800 H791 0.929 . S
C800 C792 1.378 . S
C800 C795 1.350 . S
C801 H788 0.914 1_655 S
C801 C793 1.433 . S
C801 N803 1.384 1_655 S
N802 C798 1.427 1_655 S
N802 C799 1.384 1_655 S
N803 C795 1.427 1_455 S
N803 C801 1.384 1_455 S
H804 C810 0.930 . S
H805 C814 0.930 . S
H806 C819 0.929 . S
H807 C817 0.929 . S
H808 C812 0.929 1_545 S
H809 C818 0.929 1_565 S
C810 H804 0.930 . S
C810 C811 1.367 . S
C810 C818 1.378 . S
C811 C810 1.367 . S
C811 C819 1.433 . S
C812 H808 0.929 1_565 S
C812 C814 1.378 . S
C812 C816 1.350 . S
C813 C816 1.463 1_545 S
C813 C818 1.350 . S
C813 N821 1.427 . S
C814 H805 0.930 . S
C814 C812 1.378 . S
C814 C815 1.367 . S
C815 C814 1.367 . S
C815 C817 1.433 . S
C816 C812 1.350 . S
C816 C813 1.463 1_565 S
C816 N820 1.427 . S
C817 H807 0.929 . S
C817 C815 1.433 . S
C817 N820 1.384 . S
C818 H809 0.929 1_545 S
C818 C810 1.378 . S
C818 C813 1.350 . S
C819 H806 0.929 . S
C819 C811 1.433 . S
C819 N821 1.384 . S
N820 C816 1.427 . S
N820 C817 1.384 . S
N821 C813 1.427 . S
N821 C819 1.384 . S
H822 C828 0.930 . S
H823 C832 0.930 . S
H824 C837 0.929 . S
H825 C835 0.929 . S
H826 C830 0.929 . S
H827 C836 0.929 . S
C828 H822 0.930 . S
C828 C829 1.367 . S
C828 C836 1.378 . S
C829 C828 1.367 . S
C829 C837 1.433 1_554 S
C830 H826 0.929 . S
C830 C832 1.378 . S
C830 C834 1.350 1_556 S
C831 C834 1.463 . S
C831 C836 1.350 . S
C831 N839 1.427 1_554 S
C832 H823 0.930 . S
C832 C830 1.378 . S
C832 C833 1.367 1_556 S
C833 C832 1.367 1_554 S
C833 C835 1.433 . S
C834 C830 1.350 1_554 S
C834 C831 1.463 . S
C834 N838 1.427 . S
C835 H825 0.929 . S
C835 C833 1.433 . S
C835 N838 1.384 . S
C836 H827 0.929 . S
C836 C828 1.378 . S
C836 C831 1.350 . S
C837 H824 0.929 . S
C837 C829 1.433 1_556 S
C837 N839 1.384 . S
N838 C834 1.427 . S
N838 C835 1.384 . S
N839 C831 1.427 1_556 S
N839 C837 1.384 . S
H840 C846 0.930 . S
H841 C850 0.930 . S
H842 C855 0.929 . S
H843 C853 0.929 . S
H844 C848 0.929 1_565 S
H845 C854 0.929 1_545 S
C846 H840 0.930 . S
C846 C847 1.367 . S
C846 C854 1.378 . S
C847 C846 1.367 . S
C847 C855 1.433 . S
C848 H844 0.929 1_545 S
C848 C850 1.378 . S
C848 C852 1.350 . S
C849 C852 1.463 1_565 S
C849 C854 1.350 . S
C849 N857 1.427 . S
C850 H841 0.930 . S
C850 C848 1.378 . S
C850 C851 1.367 . S
C851 C850 1.367 . S
C851 C853 1.433 . S
C852 C848 1.350 . S
C852 C849 1.463 1_545 S
C852 N856 1.427 . S
C853 H843 0.929 . S
C853 C851 1.433 . S
C853 N856 1.384 . S
C854 H845 0.929 1_565 S
C854 C846 1.378 . S
C854 C849 1.350 . S
C855 H842 0.929 . S
C855 C847 1.433 . S
C855 N857 1.384 . S
N856 C852 1.427 . S
N856 C853 1.384 . S
N857 C849 1.427 . S
N857 C855 1.384 . S
H858 C864 0.930 . S
H859 C868 0.930 . S
H860 C873 0.929 . S
H861 C871 0.929 . S
H862 C866 0.929 . S
H863 C872 0.929 . S
C864 H858 0.930 . S
C864 C865 1.367 . S
C864 C872 1.378 . S
C865 C864 1.367 . S
C865 C873 1.433 . S
C866 H862 0.929 . S
C866 C868 1.378 . S
C866 C870 1.350 . S
C867 C870 1.463 . S
C867 C872 1.350 . S
C867 N875 1.427 . S
C868 H859 0.930 . S
C868 C866 1.378 . S
C868 C869 1.367 . S
C869 C868 1.367 . S
C869 C871 1.433 . S
C870 C866 1.350 . S
C870 C867 1.463 . S
C870 N874 1.427 . S
C871 H861 0.929 . S
C871 C869 1.433 . S
C871 N874 1.384 . S
C872 H863 0.929 . S
C872 C864 1.378 . S
C872 C867 1.350 . S
C873 H860 0.929 . S
C873 C865 1.433 . S
C873 N875 1.384 . S
N874 C870 1.427 . S
N874 C871 1.384 . S
N875 C867 1.427 . S
N875 C873 1.384 . S
H876 C882 0.930 . S
H877 C886 0.930 . S
H878 C891 0.929 . S
H879 C889 0.929 . S
H880 C884 0.929 . S
H881 C890 0.929 . S
C882 H876 0.930 . S
C882 C883 1.367 . S
C882 C890 1.378 . S
C883 C882 1.367 . S
C883 C891 1.433 . S
C884 H880 0.929 . S
C884 C886 1.378 . S
C884 C888 1.350 . S
C885 C888 1.463 1_655 S
C885 C890 1.350 . S
C885 N893 1.427 . S
C886 H877 0.930 . S
C886 C884 1.378 . S
C886 C887 1.367 . S
C887 C886 1.367 . S
C887 C889 1.433 . S
C888 C884 1.350 . S
C888 C885 1.463 1_455 S
C888 N892 1.427 . S
C889 H879 0.929 . S
C889 C887 1.433 . S
C889 N892 1.384 . S
C890 H881 0.929 . S
C890 C882 1.378 . S
C890 C885 1.350 . S
C891 H878 0.929 . S
C891 C883 1.433 . S
C891 N893 1.384 . S
N892 C888 1.427 . S
N892 C889 1.384 . S
N893 C885 1.427 . S
N893 C891 1.384 . S
H894 C900 0.930 . S
H895 C904 0.930 . S
H896 C909 0.929 . S
H897 C907 0.929 . S
H898 C902 0.929 . S
H899 C908 0.929 . S
C900 H894 0.930 . S
C900 C901 1.367 . S
C900 C908 1.378 . S
C901 C900 1.367 . S
C901 C909 1.433 . S
C902 H898 0.929 . S
C902 C904 1.378 . S
C902 C906 1.350 . S
C903 C906 1.463 1_545 S
C903 C908 1.350 . S
C903 N911 1.427 . S
C904 H895 0.930 . S
C904 C902 1.378 . S
C904 C905 1.367 . S
C905 C904 1.367 . S
C905 C907 1.433 . S
C906 C902 1.350 . S
C906 C903 1.463 1_565 S
C906 N910 1.427 . S
C907 H897 0.929 . S
C907 C905 1.433 . S
C907 N910 1.384 . S
C908 H899 0.929 . S
C908 C900 1.378 . S
C908 C903 1.350 . S
C909 H896 0.929 . S
C909 C901 1.433 . S
C909 N911 1.384 . S
N910 C906 1.427 . S
N910 C907 1.384 . S
N911 C903 1.427 . S
N911 C909 1.384 . S
H912 C918 0.930 . S
H913 C922 0.930 . S
H914 C927 0.929 . S
H915 C925 0.929 . S
H916 C920 0.929 . S
H917 C926 0.929 . S
C918 H912 0.930 . S
C918 C919 1.367 . S
C918 C926 1.378 . S
C919 C918 1.367 . S
C919 C927 1.433 . S
C920 H916 0.929 . S
C920 C922 1.378 . S
C920 C924 1.350 . S
C921 C924 1.463 . S
C921 C926 1.350 . S
C921 N929 1.427 . S
C922 H913 0.930 . S
C922 C920 1.378 . S
C922 C923 1.367 . S
C923 C922 1.367 . S
C923 C925 1.433 . S
C924 C920 1.350 . S
C924 C921 1.463 . S
C924 N928 1.427 . S
C925 H915 0.929 . S
C925 C923 1.433 . S
C925 N928 1.384 . S
C926 H917 0.929 . S
C926 C918 1.378 . S
C926 C921 1.350 . S
C927 H914 0.929 . S
C927 C919 1.433 . S
C927 N929 1.384 . S
N928 C924 1.427 . S
N928 C925 1.384 . S
N929 C921 1.427 . S
N929 C927 1.384 . S
H930 C936 0.930 . S
H931 C940 0.930 . S
H932 C945 0.929 . S
H933 C943 0.929 . S
H934 C938 0.929 . S
H935 C944 0.929 . S
C936 H930 0.930 . S
C936 C937 1.367 . S
C936 C944 1.378 . S
C937 C936 1.367 . S
C937 C945 1.433 . S
C938 H934 0.929 . S
C938 C940 1.378 . S
C938 C942 1.350 . S
C939 C942 1.463 1_455 S
C939 C944 1.350 . S
C939 N947 1.427 . S
C940 H931 0.930 . S
C940 C938 1.378 . S
C940 C941 1.367 . S
C941 C940 1.367 . S
C941 C943 1.433 . S
C942 C938 1.350 . S
C942 C939 1.463 1_655 S
C942 N946 1.427 . S
C943 H933 0.929 . S
C943 C941 1.433 . S
C943 N946 1.384 . S
C944 H935 0.929 . S
C944 C936 1.378 . S
C944 C939 1.350 . S
C945 H932 0.929 . S
C945 C937 1.433 . S
C945 N947 1.384 . S
N946 C942 1.427 . S
N946 C943 1.384 . S
N947 C939 1.427 . S
N947 C945 1.384 . S
H948 C954 0.930 . S
H949 C958 0.930 . S
H950 C963 0.929 . S
H951 C961 0.929 . S
H952 C956 0.929 . S
H953 C962 0.929 . S
C954 H948 0.930 . S
C954 C955 1.367 . S
C954 C962 1.378 . S
C955 C954 1.367 . S
C955 C963 1.433 . S
C956 H952 0.929 . S
C956 C958 1.378 . S
C956 C960 1.350 . S
C957 C960 1.463 . S
C957 C962 1.350 . S
C957 N965 1.427 . S
C958 H949 0.930 . S
C958 C956 1.378 . S
C958 C959 1.367 . S
C959 C958 1.367 . S
C959 C961 1.433 . S
C960 C956 1.350 . S
C960 C957 1.463 . S
C960 N964 1.427 . S
C961 H951 0.929 . S
C961 C959 1.433 . S
C961 N964 1.384 . S
C962 H953 0.929 . S
C962 C954 1.378 . S
C962 C957 1.350 . S
C963 H950 0.929 . S
C963 C955 1.433 . S
C963 N965 1.384 . S
N964 C960 1.427 . S
N964 C961 1.384 . S
N965 C957 1.427 . S
N965 C963 1.384 . S
H966 C972 0.930 . S
H967 C976 0.930 . S
H968 C981 0.929 . S
H969 C979 0.929 . S
H970 C974 0.929 . S
H971 C980 0.929 . S
C972 H966 0.930 . S
C972 C973 1.367 . S
C972 C980 1.378 . S
C973 C972 1.367 . S
C973 C981 1.433 . S
C974 H970 0.929 . S
C974 C976 1.378 . S
C974 C978 1.350 . S
C975 C978 1.463 . S
C975 C980 1.350 . S
C975 N983 1.427 . S
C976 H967 0.930 . S
C976 C974 1.378 . S
C976 C977 1.367 . S
C977 C976 1.367 . S
C977 C979 1.433 . S
C978 C974 1.350 . S
C978 C975 1.463 . S
C978 N982 1.427 . S
C979 H969 0.929 . S
C979 C977 1.433 . S
C979 N982 1.384 . S
C980 H971 0.929 . S
C980 C972 1.378 . S
C980 C975 1.350 . S
C981 H968 0.929 . S
C981 C973 1.433 . S
C981 N983 1.384 . S
N982 C978 1.427 . S
N982 C979 1.384 . S
N983 C975 1.427 . S
N983 C981 1.384 . S
H984 C990 0.930 . S
H985 C994 0.930 . S
H986 C999 0.929 . S
H987 C997 0.929 . S
H988 C992 0.929 . S
H989 C998 0.929 . S
C990 H984 0.930 . S
C990 C991 1.367 . S
C990 C998 1.378 . S
C991 C990 1.367 . S
C991 C999 1.433 . S
C992 H988 0.929 . S
C992 C994 1.378 . S
C992 C996 1.350 . S
C993 C996 1.463 . S
C993 C998 1.350 . S
C993 N1001 1.427 . S
C994 H985 0.930 . S
C994 C992 1.378 . S
C994 C995 1.367 . S
C995 C994 1.367 . S
C995 C997 1.433 . S
C996 C992 1.350 . S
C996 C993 1.463 . S
C996 N1000 1.427 . S
C997 H987 0.929 . S
C997 C995 1.433 . S
C997 N1000 1.384 . S
C998 H989 0.929 . S
C998 C990 1.378 . S
C998 C993 1.350 . S
C999 H986 0.929 . S
C999 C991 1.433 . S
C999 N1001 1.384 . S
N1000 C996 1.427 . S
N1000 C997 1.384 . S
N1001 C993 1.427 . S
N1001 C999 1.384 . S
H1002 C1008 0.930 . S
H1003 C1012 0.930 . S
H1004 C1017 0.929 . S
H1005 C1015 0.929 . S
H1006 C1010 0.929 . S
H1007 C1016 0.929 . S
C1008 H1002 0.930 . S
C1008 C1009 1.367 . S
C1008 C1016 1.378 . S
C1009 C1008 1.367 . S
C1009 C1017 1.433 . S
C1010 H1006 0.929 . S
C1010 C1012 1.378 . S
C1010 C1014 1.350 . S
C1011 C1014 1.463 . S
C1011 C1016 1.350 . S
C1011 N1019 1.427 . S
C1012 H1003 0.930 . S
C1012 C1010 1.378 . S
C1012 C1013 1.367 . S
C1013 C1012 1.367 . S
C1013 C1015 1.433 . S
C1014 C1010 1.350 . S
C1014 C1011 1.463 . S
C1014 N1018 1.427 . S
C1015 H1005 0.929 . S
C1015 C1013 1.433 . S
C1015 N1018 1.384 . S
C1016 H1007 0.929 . S
C1016 C1008 1.378 . S
C1016 C1011 1.350 . S
C1017 H1004 0.929 . S
C1017 C1009 1.433 . S
C1017 N1019 1.384 . S
N1018 C1014 1.427 . S
N1018 C1015 1.384 . S
N1019 C1011 1.427 . S
N1019 C1017 1.384 . S
H1020 C1026 0.930 . S
H1021 C1030 0.930 . S
H1022 C1035 0.929 . S
H1023 C1033 0.929 . S
H1024 C1028 0.929 . S
H1025 C1034 0.929 . S
C1026 H1020 0.930 . S
C1026 C1027 1.367 . S
C1026 C1034 1.378 . S
C1027 C1026 1.367 . S
C1027 C1035 1.433 . S
C1028 H1024 0.929 . S
C1028 C1030 1.378 . S
C1028 C1032 1.350 . S
C1029 C1032 1.463 . S
C1029 C1034 1.350 . S
C1029 N1037 1.427 . S
C1030 H1021 0.930 . S
C1030 C1028 1.378 . S
C1030 C1031 1.367 . S
C1031 C1030 1.367 . S
C1031 C1033 1.433 . S
C1032 C1028 1.350 . S
C1032 C1029 1.463 . S
C1032 N1036 1.427 . S
C1033 H1023 0.929 . S
C1033 C1031 1.433 . S
C1033 N1036 1.384 . S
C1034 H1025 0.929 . S
C1034 C1026 1.378 . S
C1034 C1029 1.350 . S
C1035 H1022 0.929 . S
C1035 C1027 1.433 . S
C1035 N1037 1.384 . S
N1036 C1032 1.427 . S
N1036 C1033 1.384 . S
N1037 C1029 1.427 . S
N1037 C1035 1.384 . S
H1038 C1044 0.930 . S
H1039 C1048 0.930 . S
H1040 C1053 0.929 . S
H1041 C1051 0.929 . S
H1042 C1046 0.929 . S
H1043 C1052 0.929 . S
C1044 H1038 0.930 . S
C1044 C1045 1.367 . S
C1044 C1052 1.378 . S
C1045 C1044 1.367 . S
C1045 C1053 1.433 . S
C1046 H1042 0.929 . S
C1046 C1048 1.378 . S
C1046 C1050 1.350 . S
C1047 C1050 1.463 . S
C1047 C1052 1.350 . S
C1047 N1055 1.427 . S
C1048 H1039 0.930 . S
C1048 C1046 1.378 . S
C1048 C1049 1.367 . S
C1049 C1048 1.367 . S
C1049 C1051 1.433 . S
C1050 C1046 1.350 . S
C1050 C1047 1.463 . S
C1050 N1054 1.427 . S
C1051 H1041 0.929 . S
C1051 C1049 1.433 . S
C1051 N1054 1.384 . S
C1052 H1043 0.929 . S
C1052 C1044 1.378 . S
C1052 C1047 1.350 . S
C1053 H1040 0.929 . S
C1053 C1045 1.433 . S
C1053 N1055 1.384 . S
N1054 C1050 1.427 . S
N1054 C1051 1.384 . S
N1055 C1047 1.427 . S
N1055 C1053 1.384 . S
C415 C4 1.311 . S
C419 C276 1.313 . S
C433 C38 1.308 . S
C437 C310 1.307 . S
C451 C72 1.315 . S
C455 C344 1.314 . S
C469 C378 1.310 . S
C473 C106 1.308 . S
C487 C140 1.308 . S
C491 C208 1.307 . S
C505 C242 1.310 . S
C509 C174 1.308 . S
C523 C340 1.961 . S
C527 C0 1.969 . S
C541 C374 1.959 . S
C545 C34 1.969 . S
C559 C68 1.968 . S
C563 C204 1.959 . S
C577 C238 1.969 . S
C581 C102 1.960 . S
C595 C272 1.959 . S
C599 C136 1.966 . S
C613 C170 1.964 . S
C617 C306 1.959 . S
C631 C246 1.942 . S
C635 C8 1.949 . S
C649 C280 1.944 . S
C653 C42 1.948 . S
C667 C314 1.942 . S
C671 C76 1.949 . S
C685 C110 1.942 . S
C689 C348 1.949 . S
C703 C144 1.940 . S
C707 C382 1.948 . S
C721 C178 1.949 . S
C725 C212 1.943 . S
C739 C13 2.438 1_565 S
C743 C115 2.436 1_545 S
C757 C47 2.432 . S
C761 C149 2.434 . S
C775 C81 2.443 1_455 S
C779 C183 2.441 1_655 S
C793 C319 2.446 1_655 S
C797 C217 2.444 1_455 S
C811 C251 2.437 1_545 S
C815 C353 2.435 1_565 S
C829 C387 2.436 . S
C833 C285 2.439 . S
C847 C267 1.780 . S
C851 C29 1.781 . S
C865 C301 1.778 . S
C869 C63 1.789 . S
C883 C97 1.790 . S
C887 C335 1.778 . S
C901 C369 1.788 . S
C905 C131 1.788 . S
C919 C403 1.790 . S
C923 C165 1.786 . S
C937 C199 1.791 . S
C941 C233 1.781 . S
C955 C17 1.827 . S
C959 C357 1.821 . S
C973 C51 1.826 . S
C977 C391 1.821 . S
C991 C85 1.821 . S
C995 C221 1.825 . S
C1009 C119 1.821 . S
C1013 C255 1.827 . S
C1027 C153 1.829 . S
C1031 C289 1.821 . S
C1045 C323 1.820 . S
C1049 C187 1.828 . S
