# Generated by pormake.
# Topology cdl, (4)-cn, num edge types: 1
# Building blocks:
#     Node 0, Type 0, BuildingBlock: ESEHIV_clean_sbu_0, # of connection points: 4
#     Node 1, Type 0, BuildingBlock: ESEHIV_clean_sbu_0, # of connection points: 4
#     Node 2, Type 0, BuildingBlock: ESEHIV_clean_sbu_0, # of connection points: 4
#     Node 3, Type 0, BuildingBlock: ESEHIV_clean_sbu_0, # of connection points: 4
#     Edge 4, Type (0, 0), BuildingBlock: ZUJKAS_clean_linker_0, # of connection points: 2
#     Edge 5, Type (0, 0), BuildingBlock: ZUJKAS_clean_linker_0, # of connection points: 2
#     Edge 6, Type (0, 0), BuildingBlock: ZUJKAS_clean_linker_0, # of connection points: 2
#     Edge 7, Type (0, 0), BuildingBlock: ZUJKAS_clean_linker_0, # of connection points: 2
#     Edge 8, Type (0, 0), BuildingBlock: ZUJKAS_clean_linker_0, # of connection points: 2
#     Edge 9, Type (0, 0), BuildingBlock: ZUJKAS_clean_linker_0, # of connection points: 2
#     Edge 10, Type (0, 0), BuildingBlock: ZUJKAS_clean_linker_0, # of connection points: 2
#     Edge 11, Type (0, 0), BuildingBlock: ZUJKAS_clean_linker_0, # of connection points: 2
# Relax obj value: 0.000
# Max RMSD: 0.147
# Mean RMSD: 0.094
data_MOF--net-cdl--node1-ESEHIV_clean_sbu_0--edge1-ZUJKAS_clean_linker_0
_symmetry_space_group_name_H-M    P1
_symmetry_Int_Tables_number       1
_symmetry_cell_setting            triclinic
loop_
_symmetry_equiv_pos_as_xyz
'x, y, z'
_cell_length_a     19.170121
_cell_length_b     21.660673
_cell_length_c     81.347588
_cell_angle_alpha  101.42913
_cell_angle_beta   101.06691
_cell_angle_gamma 88.037264
loop_
_atom_site_label
_atom_site_type_symbol
_atom_site_fract_x
_atom_site_fract_y
_atom_site_fract_z
_atom_type_partial_charge
Cu0 Cu 0.07772 0.10746 0.1286 0.0
N1 N 0.02249 0.03387 0.12248 0.0
N2 N 0.99204 0.93331 0.11997 0.0
C3 C 0.04381 0.97724 0.12598 0.0
C4 C 0.93607 0.96348 0.11234 0.0
C5 C 0.95507 0.02538 0.11385 0.0
O6 O 0.1274 0.11141 0.1521 0.0
C7 C 0.10532 0.09495 0.09634 0.0
O8 O 0.03605 0.08744 0.09331 0.0
H9 H 0.09605 0.96873 0.13299 0.0
H10 H 0.92229 0.06129 0.10873 0.0
N11 N 0.0206 0.179 0.12808 0.0
N12 N 0.98926 0.27895 0.12715 0.0
C13 C 0.04204 0.23591 0.12665 0.0
C14 C 0.95203 0.18606 0.12961 0.0
C15 C 0.93248 0.24739 0.12897 0.0
C16 C 0.08629 0.11112 0.16268 0.0
O17 O 1.01738 0.10849 0.15691 0.0
H18 H 0.0959 0.24552 0.12565 0.0
H19 H 0.91871 0.14956 0.13137 0.0
O20 O 0.13852 0.10532 0.11178 0.0
H21 H 0.88553 0.94206 0.10582 0.0
H22 H 0.88026 0.26687 0.12977 0.0
Cu23 Cu 0.14851 0.1633 0.65169 0.0
N24 N 0.16628 0.11651 0.66909 0.0
N25 N 0.17552 0.09242 0.69493 0.0
C26 C 0.15436 0.13566 0.6851 0.0
C27 C 0.20174 0.04419 0.68465 0.0
C28 C 0.19588 0.05914 0.66873 0.0
O29 O 0.06152 0.21168 0.6539 0.0
C30 C 0.28704 0.17864 0.64931 0.0
O31 O 0.27843 0.11731 0.6448 0.0
H32 H 0.13188 0.18105 0.68952 0.0
H33 H 0.2125 0.03037 0.6577 0.0
N34 N 0.13158 0.11049 0.63005 0.0
N35 N 0.1225 0.07872 0.60183 0.0
C36 C 0.14131 0.12604 0.61541 0.0
C37 C 0.10597 0.05119 0.6256 0.0
C38 C 0.10003 0.03157 0.60819 0.0
C39 C 1.00744 0.17758 0.65301 0.0
O40 O 1.01627 0.11644 0.65147 0.0
H41 H 0.16082 0.17159 0.61472 0.0
H42 H 0.09224 1.0242 0.63438 0.0
O43 O 0.23448 0.21209 0.65331 0.0
H44 H 0.22301 1.00091 0.6883 0.0
H45 H 0.08141 0.98592 0.60081 0.0
Cu46 Cu 0.0441 0.13642 0.8978 0.0
N47 N 0.98596 0.0645 0.89205 0.0
N48 N 0.95259 0.96427 0.88916 0.0
C49 C 1.00532 1.00722 0.89545 0.0
C50 C 0.898 0.99585 0.88148 0.0
C51 C 0.91869 0.05765 0.88331 0.0
O52 O 0.10703 0.13306 0.91956 0.0
C53 C 0.05121 0.14713 0.86509 0.0
O54 O 0.98376 0.15895 0.86541 0.0
H55 H 0.05759 0.99709 0.90214 0.0
H56 H 0.88707 0.09488 0.87852 0.0
N57 N 0.99067 0.21061 0.9009 0.0
N58 N 0.95929 0.3117 0.90207 0.0
C59 C 1.00818 0.26728 0.89834 0.0
C60 C 0.92861 0.2194 0.90643 0.0
C61 C 0.9092 0.28169 0.9072 0.0
C62 C 0.0752 0.12305 0.93119 0.0
O63 O 1.00567 0.1171 0.92763 0.0
H64 H 0.05633 0.27582 0.89402 0.0
H65 H 0.8995 0.18306 0.90967 0.0
O66 O 0.09152 0.13593 0.87857 0.0
H67 H 0.84657 0.97591 0.87511 0.0
H68 H 0.86142 0.30298 0.91101 0.0
Cu69 Cu 0.19304 0.14201 0.38771 0.0
N70 N 0.18644 0.09348 0.36564 0.0
N71 N 0.18807 0.06859 0.33766 0.0
C72 C 0.19899 0.11415 0.3519 0.0
C73 C 0.16801 1.01725 0.34271 0.0
C74 C 0.16714 0.0327 0.35994 0.0
O75 O 0.28092 0.19116 0.39245 0.0
C76 C 0.04895 0.1576 0.38425 0.0
O77 O 0.05478 0.09631 0.37961 0.0
H78 H 0.21412 0.16219 0.35231 0.0
H79 H 0.15229 1.00197 0.36768 0.0
N80 N 0.19934 0.09101 0.40408 0.0
N81 N 0.19434 0.06199 0.42874 0.0
C82 C 0.18006 0.10769 0.41944 0.0
C83 C 0.22621 0.03256 0.40361 0.0
C84 C 0.22341 1.01465 0.41881 0.0
C85 C 0.33686 0.15769 0.39207 0.0
O86 O 0.32996 0.09613 0.3887 0.0
H87 H 0.15776 0.15315 0.42387 0.0
H88 H 0.24748 1.00515 0.39308 0.0
O89 O 0.10559 0.19082 0.38856 0.0
H90 H 0.15485 0.97168 0.33456 0.0
H91 H 0.24129 0.97019 0.42226 0.0
H92 H 0.89818 0.37226 0.13694 0.0
H93 H 0.90388 0.48278 0.13528 0.0
H94 H 0.09678 0.44846 0.11509 0.0
H95 H 0.08965 0.33697 0.1158 0.0
H96 H 1.00355 0.57032 0.15107 0.0
H97 H 0.98034 0.54049 0.08086 0.0
H98 H 0.96331 0.47697 0.09095 0.0
H99 H 0.05312 0.49803 0.09079 0.0
C100 C 0.94127 0.38754 0.13185 0.0
C101 C 0.9931 0.34488 0.12637 0.0
C102 C 0.94474 0.45116 0.13106 0.0
C103 C 1.00011 0.47381 0.12481 0.0
C104 C 0.05263 0.43184 0.11959 0.0
H105 H 0.10862 0.85867 0.12102 0.0
H106 H 0.114 0.74672 0.12274 0.0
C107 C 0.04891 0.36801 0.12023 0.0
C108 C 1.00326 0.54162 0.12413 0.0
H109 H 1.00525 0.64372 0.09711 0.0
C110 C 1.00385 0.58629 0.13926 0.0
C111 C 1.00354 0.56247 0.1087 0.0
C112 C 0.99936 0.51706 0.09187 0.0
C113 C 1.00469 0.65112 0.13937 0.0
C114 C 1.00507 0.6717 0.12398 0.0
C115 C 1.00536 0.62739 0.10889 0.0
C116 C 1.00227 0.7393 0.12322 0.0
C117 C 1.00499 0.6975 0.15587 0.0
C118 C 0.93762 0.77167 0.12288 0.0
C119 C 0.93432 0.83534 0.12184 0.0
C120 C 0.99576 0.86781 0.12122 0.0
C121 C 0.06061 0.83514 0.12168 0.0
C122 C 0.06372 0.77124 0.12256 0.0
H123 H 1.01286 0.6741 0.16707 0.0
H124 H 0.04771 0.73308 0.15786 0.0
H125 H 0.95355 0.72292 0.15515 0.0
H126 H 0.88967 0.74753 0.12335 0.0
H127 H 0.88382 0.85935 0.1217 0.0
H128 H 0.39212 0.12131 0.63411 0.0
H129 H 0.51184 0.15899 0.63613 0.0
H130 H 0.46355 0.33495 0.66715 0.0
H131 H 0.3418 0.29688 0.66524 0.0
H132 H 0.56072 0.26878 0.62689 0.0
H133 H 0.64171 0.2654 0.69635 0.0
H134 H 0.56281 0.22474 0.68368 0.0
H135 H 0.56396 0.30909 0.68919 0.0
C136 C 0.4064 0.16823 0.64133 0.0
C137 C 0.35744 0.20587 0.64966 0.0
C138 C 0.47502 0.18982 0.6424 0.0
C139 C 0.49698 0.24952 0.6519 0.0
C140 C 0.44789 0.28841 0.65988 0.0
H141 H 0.96611 0.30081 0.66355 0.0
H142 H 0.84343 0.33902 0.66418 0.0
C143 C 0.37835 0.26679 0.65871 0.0
C144 C 0.57248 0.26797 0.65371 0.0
H145 H 0.7325 0.26784 0.68085 0.0
C146 C 0.59817 0.27076 0.63881 0.0
C147 C 0.62139 0.27042 0.66926 0.0
C148 C 0.59665 0.26712 0.68559 0.0
C149 C 0.67141 0.27079 0.6388 0.0
C150 C 0.72017 0.26773 0.65402 0.0
C151 C 0.69482 0.27053 0.66922 0.0
C152 C 0.79458 0.24767 0.65351 0.0
C153 C 0.69635 0.26917 0.62224 0.0
C154 C 0.80728 0.18405 0.64737 0.0
C155 C 0.87635 0.16228 0.64716 0.0
C156 C 0.93478 0.20365 0.65298 0.0
C157 C 0.92217 0.26788 0.65894 0.0
C158 C 0.85235 0.28969 0.65934 0.0
H159 H 0.65478 0.28644 0.6127 0.0
H160 H 0.74516 0.29816 0.62441 0.0
H161 H 0.70942 0.21991 0.61684 0.0
H162 H 0.76345 0.15089 0.64288 0.0
H163 H 0.88379 0.11262 0.64238 0.0
H164 H 0.9034 0.4102 0.92145 0.0
H165 H 0.90341 0.52094 0.91903 0.0
H166 H 1.01616 0.47293 0.8772 0.0
H167 H 1.01736 0.36216 0.87978 0.0
H168 H 0.07109 0.57677 0.89878 0.0
H169 H 0.77866 0.60215 0.88378 0.0
H170 H 0.80832 0.57616 0.90356 0.0
H171 H 0.82116 0.52659 0.88382 0.0
C172 C 0.92766 0.42314 0.91164 0.0
C173 C 0.95997 0.37722 0.90074 0.0
C174 C 0.92746 0.48652 0.91023 0.0
C175 C 0.95842 0.50532 0.89768 0.0
C176 C 0.99163 0.45968 0.88694 0.0
H177 H 0.88158 0.86787 0.86633 0.0
H178 H 0.8854 0.75636 0.86816 0.0
C179 C 0.99248 0.39634 0.88846 0.0
C180 C 0.95724 0.57262 0.89594 0.0
H181 H 0.84645 0.69699 0.89049 0.0
C182 C 0.02192 0.60295 0.89688 0.0
C183 C 0.89305 0.60672 0.89319 0.0
C184 C 0.82134 0.57609 0.89085 0.0
C185 C 0.0243 0.66648 0.89544 0.0
C186 C 0.96035 0.70133 0.89345 0.0
C187 C 0.8956 0.67068 0.89222 0.0
C188 C 0.95908 0.76929 0.89235 0.0
C189 C 0.09528 0.69505 0.89568 0.0
C190 C 0.99851 0.8141 0.90541 0.0
C191 C 0.99678 0.87788 0.90431 0.0
C192 C 0.95456 0.89846 0.89028 0.0
C193 C 0.91418 0.85369 0.87737 0.0
C194 C 0.91652 0.78985 0.87838 0.0
H195 H 0.1344 0.65833 0.89202 0.0
H196 H 0.09014 0.72879 0.88687 0.0
H197 H 0.11691 0.72072 0.9088 0.0
H198 H 0.03008 0.79992 0.91657 0.0
H199 H 0.02745 0.91128 0.91462 0.0
H200 H 0.37534 0.2766 0.38916 0.0
H201 H 0.49674 0.31384 0.39034 0.0
H202 H 0.58117 0.13671 0.40168 0.0
H203 H 0.46187 0.09988 0.40066 0.0
H204 H 0.66088 0.24336 0.42136 0.0
H205 H 0.60778 0.24313 0.35151 0.0
H206 H 0.55124 0.28929 0.36452 0.0
H207 H 0.54834 0.20496 0.36112 0.0
C208 C 0.42005 0.24619 0.39216 0.0
C209 C 0.40894 0.18508 0.39465 0.0
C210 C 0.48925 0.26731 0.39273 0.0
C211 C 0.54801 0.22773 0.39592 0.0
C212 C 0.53682 0.16808 0.39919 0.0
H213 H 0.92256 0.10179 0.36902 0.0
H214 H 0.80403 0.13846 0.37242 0.0
C215 C 0.46832 0.14697 0.39852 0.0
C216 C 0.62126 0.24493 0.39486 0.0
H217 H 0.72653 0.24708 0.36552 0.0
C218 C 0.67535 0.2461 0.40927 0.0
C219 C 0.6399 0.24809 0.37904 0.0
C220 C 0.58413 0.24609 0.36308 0.0
C221 C 0.74756 0.24555 0.40803 0.0
C222 C 0.76616 0.24448 0.39196 0.0
C223 C 0.71213 0.24816 0.37783 0.0
C224 C 0.83906 0.22739 0.3889 0.0
C225 C 0.8032 0.24079 0.4236 0.0
C226 C 0.89865 0.26586 0.39673 0.0
C227 C 0.96739 0.24481 0.39479 0.0
C228 C 0.97729 0.18488 0.38505 0.0
C229 C 0.91712 0.14794 0.37674 0.0
C230 C 0.84903 0.16898 0.3786 0.0
H231 H 0.7794 0.23588 0.4347 0.0
H232 H 0.83824 0.19975 0.42072 0.0
H233 H 0.83687 0.28381 0.42727 0.0
H234 H 0.89213 0.31147 0.4046 0.0
H235 H 1.01268 0.27436 0.40133 0.0
H236 H 0.02826 0.06371 0.95322 0.0
H237 H 0.08245 0.06115 0.98266 0.0
H238 H 0.26201 0.16711 0.97826 0.0
H239 H 0.20759 0.16961 0.9483 0.0
H240 H 0.23153 1.01783 0.99683 0.0
H241 H 0.16773 0.26976 0.01964 0.0
H242 H 0.11931 0.2267 0.99963 0.0
H243 H 0.21079 0.24676 1.0015 0.0
C244 C 0.07958 0.08615 0.95839 0.0
C245 C 0.11339 0.11734 0.94846 0.0
C246 C 0.11062 0.08437 0.97523 0.0
C247 C 0.17595 0.11417 0.98266 0.0
C248 C 0.21136 0.14396 0.97273 0.0
H249 H 0.22497 0.15895 0.09459 0.0
H250 H 0.27019 0.16416 0.06845 0.0
C251 C 0.18042 0.14517 0.95565 0.0
C252 C 0.20302 0.11591 1.00109 0.0
H253 H 0.18596 0.20395 0.03984 0.0
C254 C 0.22402 0.05908 1.00633 0.0
C255 C 0.19374 0.16982 0.01348 0.0
C256 C 0.17169 0.23198 1.00843 0.0
C257 C 0.22979 0.05338 0.02344 0.0
C258 C 0.21259 0.10544 0.03549 0.0
C259 C 0.19881 0.16395 0.03058 0.0
C260 C 0.19396 0.09702 0.05182 0.0
C261 C 0.24989 0.99051 0.02825 0.0
C262 C 0.13659 0.05755 0.05115 0.0
C263 C 0.11054 0.05515 0.06585 0.0
C264 C 0.14131 0.09195 0.08166 0.0
C265 C 0.20078 0.12962 0.08259 0.0
C266 C 0.22643 0.13275 0.06768 0.0
H267 H 0.28607 0.96453 0.02014 0.0
H268 H 0.27614 0.99604 0.04187 0.0
H269 H 0.20121 0.96148 0.02614 0.0
H270 H 0.10957 0.03065 0.03905 0.0
H271 H 0.06464 0.02568 0.06474 0.0
H272 H 0.27466 1.0064 0.45286 0.0
H273 H 0.25663 1.01005 0.48196 0.0
H274 H 0.07068 0.12527 0.47269 0.0
H275 H 0.08963 0.12288 0.44361 0.0
H276 H 0.1494 0.17002 0.503 0.0
H277 H 0.115 0.91379 0.49732 0.0
H278 H 0.19794 0.93172 0.49221 0.0
H279 H 0.11565 0.949 0.47904 0.0
C280 C 0.22952 0.03196 0.45696 0.0
C281 C 0.18326 0.06397 0.44589 0.0
C282 C 0.21907 0.03384 0.4736 0.0
C283 C 0.16131 0.06671 0.47945 0.0
C284 C 0.1154 0.09928 0.46846 0.0
H285 H 0.03368 1.0182 0.57367 0.0
H286 H 0.0392 1.01799 0.54384 0.0
C287 C 0.12635 0.09804 0.45187 0.0
C288 C 0.15017 0.06859 0.49716 0.0
H289 H 0.13616 0.97531 0.52568 0.0
C290 C 0.14592 0.12741 0.50791 0.0
C291 C 0.14423 1.01308 0.50353 0.0
C292 C 0.14265 0.94838 0.49236 0.0
C293 C 0.13787 0.13227 0.52494 0.0
C294 C 0.13618 0.07676 0.53159 0.0
C295 C 0.13849 1.01794 0.5207 0.0
C296 C 0.13199 0.0784 0.54977 0.0
C297 C 0.13003 0.19689 0.53548 0.0
C298 C 0.18263 0.11185 0.5631 0.0
C299 C 0.17906 0.11251 0.58016 0.0
C300 C 0.12565 0.07865 0.58425 0.0
C301 C 0.07571 0.04436 0.57091 0.0
C302 C 0.07873 0.04439 0.55386 0.0
H303 H 0.10934 0.23132 0.52727 0.0
H304 H 0.09368 0.19599 0.54454 0.0
H305 H 0.18289 0.21397 0.54292 0.0
H306 H 0.22561 0.1368 0.56033 0.0
H307 H 0.21903 0.13839 0.59015 0.0
H308 H 0.27127 0.14984 0.32838 0.0
H309 H 0.27613 0.1619 0.29931 0.0
H310 H 0.12179 1.01271 0.279 0.0
H311 H 0.11666 1.00037 0.30792 0.0
H312 H 0.2339 1.00375 0.26127 0.0
H313 H 0.11944 0.24501 0.26952 0.0
H314 H 0.19857 0.2343 0.28455 0.0
H315 H 0.11798 0.19444 0.2846 0.0
C316 C 0.23811 0.11981 0.31773 0.0
C317 C 0.19319 0.0744 0.32053 0.0
C318 C 0.24104 0.12671 0.30111 0.0
C319 C 0.19865 0.08874 0.28697 0.0
C320 C 0.15508 0.04246 0.28972 0.0
H321 H 1.00806 0.12335 0.18759 0.0
H322 H 0.04808 0.12108 0.21765 0.0
C323 C 0.15232 0.03537 0.30629 0.0
C324 C 0.19743 0.098 0.26929 0.0
H325 H 0.14481 0.20108 0.24254 0.0
C326 C 0.21532 0.04715 0.25719 0.0
C327 C 0.17286 0.15462 0.264 0.0
C328 C 0.15053 0.21016 0.27627 0.0
C329 C 0.20697 0.05063 0.23984 0.0
C330 C 0.18079 0.10672 0.2345 0.0
C331 C 0.16547 0.15834 0.2467 0.0
C332 C 0.15933 0.10996 0.21614 0.0
C333 C 0.2225 0.99323 0.2272 0.0
C334 C 0.20883 0.10511 0.20523 0.0
C335 C 0.18594 0.10638 0.18782 0.0
C336 C 0.11324 0.11241 0.18112 0.0
C337 C 0.06441 0.11831 0.19222 0.0
C338 C 0.08719 0.11723 0.20949 0.0
H339 H 0.23302 0.95092 0.23309 0.0
H340 H 0.1772 0.98287 0.21627 0.0
H341 H 0.27 1.00244 0.22211 0.0
H342 H 0.26494 0.10023 0.21017 0.0
H343 H 0.22485 0.10188 0.17961 0.0
H344 H 0.07867 0.15758 0.71177 0.0
H345 H 0.07039 0.16424 0.74171 0.0
H346 H 0.25282 0.04341 0.74829 0.0
H347 H 0.26209 0.03714 0.71837 0.0
H348 H 0.05573 0.05507 0.75732 0.0
H349 H 0.29676 0.20015 0.78865 0.0
H350 H 0.25461 0.19866 0.76671 0.0
H351 H 0.30679 0.13295 0.77227 0.0
C352 C 0.11761 0.13306 0.71962 0.0
C353 C 0.17114 0.09693 0.71266 0.0
C354 C 0.1126 0.13667 0.73671 0.0
C355 C 0.16143 0.10486 0.74725 0.0
C356 C 0.21514 0.06894 0.74042 0.0
H357 H 0.17455 0.09417 0.85582 0.0
H358 H 0.2072 0.08054 0.82747 0.0
C359 C 0.2199 0.06492 0.72327 0.0
C360 C 0.15387 0.10734 0.76518 0.0
H361 H 0.22849 0.16788 0.8067 0.0
C362 C 0.09365 0.07947 0.76812 0.0
C363 C 0.20393 0.13851 0.77924 0.0
C364 C 0.26911 0.1697 0.77669 0.0
C365 C 0.08143 0.08279 0.78473 0.0
C366 C 0.12982 0.11631 0.79879 0.0
C367 C 0.19136 0.14244 0.79591 0.0
C368 C 0.11425 0.1282 0.81635 0.0
C369 C 1.01657 0.05034 0.78706 0.0
C370 C 0.05277 0.1614 0.81963 0.0
C371 C 0.03403 0.16893 0.83564 0.0
C372 C 0.07678 0.14411 0.84886 0.0
C373 C 0.14047 0.11367 0.84588 0.0
C374 C 0.15907 0.10577 0.8297 0.0
H375 H 0.99796 1.01156 0.77605 0.0
H376 H 0.02745 0.03074 0.79892 0.0
H377 H 0.97277 0.08495 0.78799 0.0
H378 H 0.01838 0.18058 0.80967 0.0
H379 H 0.98517 0.19349 0.83755 0.0
loop_
_geom_bond_atom_site_label_1
_geom_bond_atom_site_label_2
_geom_bond_distance
_geom_bond_site_symmetry_2
_ccdc_geom_bond_type
Cu0 N1 2.003 . S
Cu0 O6 1.974 . S
Cu0 N11 1.985 . S
Cu0 O20 1.959 . S
N1 Cu0 2.003 . S
N1 C3 1.260 1_545 S
N1 C5 1.388 1_545 S
N2 C3 1.358 . S
N2 C4 1.400 . S
C3 N1 1.260 1_565 S
C3 N2 1.358 . S
C3 H9 0.930 . S
C4 N2 1.400 . S
C4 C5 1.351 . S
C4 H21 0.930 . S
C5 N1 1.388 1_565 S
C5 C4 1.351 . S
C5 H10 0.930 . S
O6 Cu0 1.974 . S
O6 C16 1.282 . S
C7 O8 1.261 . S
C7 O20 1.251 . S
O8 C7 1.261 . S
H9 C3 0.930 . S
H10 C5 0.930 . S
N11 Cu0 1.985 . S
N11 C13 1.335 . S
N11 C14 1.390 . S
N12 C13 1.345 . S
N12 C15 1.336 . S
C13 N11 1.335 . S
C13 N12 1.345 . S
C13 H18 0.930 . S
C14 N11 1.390 . S
C14 C15 1.346 . S
C14 H19 0.930 . S
C15 N12 1.336 . S
C15 C14 1.346 . S
C15 H22 0.929 . S
C16 O6 1.282 . S
C16 O17 1.216 . S
O17 C16 1.216 . S
H18 C13 0.930 . S
H19 C14 0.930 . S
O20 Cu0 1.959 . S
O20 C7 1.251 . S
H21 C4 0.930 . S
H22 C15 0.929 . S
Cu23 N24 1.999 . S
Cu23 O29 1.974 1_455 S
Cu23 N34 1.985 . S
Cu23 O43 1.959 . S
N24 Cu23 1.999 . S
N24 C26 1.263 . S
N24 C28 1.389 . S
N25 C26 1.358 . S
N25 C27 1.400 . S
C26 N24 1.263 . S
C26 N25 1.358 . S
C26 H32 0.930 1_455 S
C27 N25 1.400 . S
C27 C28 1.351 . S
C27 H44 0.930 . S
C28 N24 1.389 . S
C28 C27 1.351 . S
C28 H33 0.930 . S
O29 Cu23 1.974 1_655 S
O29 C39 1.282 . S
C30 O31 1.261 . S
C30 O43 1.251 . S
O31 C30 1.261 . S
H32 C26 0.930 1_655 S
H33 C28 0.930 . S
N34 Cu23 1.985 . S
N34 C36 1.335 . S
N34 C37 1.390 1_455 S
N35 C36 1.345 . S
N35 C38 1.336 1_455 S
C36 N34 1.335 . S
C36 N35 1.345 . S
C36 H41 0.930 . S
C37 N34 1.390 1_655 S
C37 C38 1.346 . S
C37 H42 0.930 . S
C38 N35 1.336 1_655 S
C38 C37 1.346 . S
C38 H45 0.929 . S
C39 O29 1.282 . S
C39 O40 1.216 . S
O40 C39 1.216 . S
H41 C36 0.930 . S
H42 C37 0.930 . S
O43 Cu23 1.959 . S
O43 C30 1.251 . S
H44 C27 0.930 . S
H45 C38 0.929 . S
Cu46 N47 1.999 . S
Cu46 O52 1.974 . S
Cu46 N57 1.985 . S
Cu46 O66 1.959 . S
N47 Cu46 1.999 . S
N47 C49 1.263 . S
N47 C51 1.389 . S
N48 C49 1.358 1_565 S
N48 C50 1.400 . S
C49 N47 1.263 . S
C49 N48 1.358 1_545 S
C49 H55 0.930 1_455 S
C50 N48 1.400 . S
C50 C51 1.351 1_565 S
C50 H67 0.930 . S
C51 N47 1.389 . S
C51 C50 1.351 1_545 S
C51 H56 0.930 . S
O52 Cu46 1.974 . S
O52 C62 1.282 1_455 S
C53 O54 1.261 . S
C53 O66 1.251 1_655 S
O54 C53 1.261 . S
H55 C49 0.930 1_655 S
H56 C51 0.930 . S
N57 Cu46 1.985 . S
N57 C59 1.335 . S
N57 C60 1.390 1_455 S
N58 C59 1.345 . S
N58 C61 1.336 1_455 S
C59 N57 1.335 . S
C59 N58 1.345 . S
C59 H64 0.930 . S
C60 N57 1.390 1_655 S
C60 C61 1.346 . S
C60 H65 0.930 . S
C61 N58 1.336 1_655 S
C61 C60 1.346 . S
C61 H68 0.929 . S
C62 O52 1.282 1_655 S
C62 O63 1.216 . S
O63 C62 1.216 . S
H64 C59 0.930 . S
H65 C60 0.930 . S
O66 Cu46 1.959 . S
O66 C53 1.251 1_455 S
H67 C50 0.930 . S
H68 C61 0.929 . S
Cu69 N70 1.999 . S
Cu69 O75 1.974 . S
Cu69 N80 1.985 . S
Cu69 O89 1.959 . S
N70 Cu69 1.999 . S
N70 C72 1.263 . S
N70 C74 1.389 . S
N71 C72 1.358 . S
N71 C73 1.400 . S
C72 N70 1.263 . S
C72 N71 1.358 . S
C72 H78 0.930 . S
C73 N71 1.400 . S
C73 C74 1.351 . S
C73 H90 0.930 . S
C74 N70 1.389 . S
C74 C73 1.351 . S
C74 H79 0.930 . S
O75 Cu69 1.974 . S
O75 C85 1.282 . S
C76 O77 1.261 1_645 S
C76 O89 1.251 1_655 S
O77 C76 1.261 1_465 S
H78 C72 0.930 . S
H79 C74 0.930 . S
N80 Cu69 1.985 . S
N80 C82 1.335 . S
N80 C83 1.390 . S
N81 C82 1.345 . S
N81 C84 1.336 . S
C82 N80 1.335 . S
C82 N81 1.345 . S
C82 H87 0.930 . S
C83 N80 1.390 . S
C83 C84 1.346 . S
C83 H88 0.930 . S
C84 N81 1.336 . S
C84 C83 1.346 . S
C84 H91 0.929 . S
C85 O75 1.282 . S
C85 O86 1.216 1_545 S
O86 C85 1.216 1_565 S
H87 C82 0.930 . S
H88 C83 0.930 . S
O89 Cu69 1.959 . S
O89 C76 1.251 1_455 S
H90 C73 0.930 . S
H91 C84 0.929 . S
H92 C100 0.929 . S
H93 C102 0.930 . S
H94 C104 0.930 . S
H95 C107 0.929 . S
H96 C110 0.930 . S
H97 C112 0.960 . S
H98 C112 0.960 . S
H99 C112 0.960 . S
C100 H92 0.929 . S
C100 C101 1.377 . S
C100 C102 1.384 . S
C101 C100 1.377 . S
C101 C107 1.390 . S
C102 H93 0.930 . S
C102 C100 1.384 . S
C102 C103 1.372 . S
C103 C102 1.372 . S
C103 C104 1.400 . S
C103 C108 1.490 . S
C104 H94 0.930 . S
C104 C103 1.400 . S
C104 C107 1.386 . S
H105 C121 0.930 . S
H106 C122 0.931 . S
C107 H95 0.929 . S
C107 C101 1.390 . S
C107 C104 1.386 . S
C108 C103 1.490 . S
C108 C110 1.395 . S
C108 C111 1.403 . S
H109 C115 0.930 . S
C110 H96 0.930 . S
C110 C108 1.395 . S
C110 C113 1.403 . S
C111 C108 1.403 . S
C111 C112 1.524 . S
C111 C115 1.400 . S
C112 H97 0.960 . S
C112 H98 0.960 . S
C112 H99 0.960 . S
C112 C111 1.524 . S
C113 C110 1.403 . S
C113 C114 1.392 . S
C113 C117 1.495 . S
C114 C113 1.392 . S
C114 C115 1.385 . S
C114 C116 1.478 . S
C115 H109 0.930 . S
C115 C111 1.400 . S
C115 C114 1.385 . S
C116 C114 1.478 . S
C116 C118 1.381 . S
C116 C122 1.383 . S
C117 C113 1.495 . S
C117 H123 0.959 . S
C117 H124 0.961 . S
C117 H125 0.960 . S
C118 C116 1.381 . S
C118 C119 1.394 . S
C118 H126 0.930 . S
C119 C118 1.394 . S
C119 C120 1.383 . S
C119 H127 0.929 . S
C120 C119 1.383 . S
C120 C121 1.377 . S
C121 H105 0.930 . S
C121 C120 1.377 . S
C121 C122 1.379 . S
C122 H106 0.931 . S
C122 C116 1.383 . S
C122 C121 1.379 . S
H123 C117 0.959 . S
H124 C117 0.961 . S
H125 C117 0.960 . S
H126 C118 0.930 . S
H127 C119 0.929 . S
H128 C136 0.929 . S
H129 C138 0.930 . S
H130 C140 0.930 . S
H131 C143 0.929 . S
H132 C146 0.930 . S
H133 C148 0.960 . S
H134 C148 0.960 . S
H135 C148 0.960 . S
C136 H128 0.929 . S
C136 C137 1.377 . S
C136 C138 1.384 . S
C137 C136 1.377 . S
C137 C143 1.390 . S
C138 H129 0.930 . S
C138 C136 1.384 . S
C138 C139 1.372 . S
C139 C138 1.372 . S
C139 C140 1.400 . S
C139 C144 1.490 . S
C140 H130 0.930 . S
C140 C139 1.400 . S
C140 C143 1.386 . S
H141 C157 0.930 . S
H142 C158 0.931 . S
C143 H131 0.929 . S
C143 C137 1.390 . S
C143 C140 1.386 . S
C144 C139 1.490 . S
C144 C146 1.395 . S
C144 C147 1.403 . S
H145 C151 0.930 . S
C146 H132 0.930 . S
C146 C144 1.395 . S
C146 C149 1.403 . S
C147 C144 1.403 . S
C147 C148 1.524 . S
C147 C151 1.400 . S
C148 H133 0.960 . S
C148 H134 0.960 . S
C148 H135 0.960 . S
C148 C147 1.524 . S
C149 C146 1.403 . S
C149 C150 1.392 . S
C149 C153 1.495 . S
C150 C149 1.392 . S
C150 C151 1.385 . S
C150 C152 1.478 . S
C151 H145 0.930 . S
C151 C147 1.400 . S
C151 C150 1.385 . S
C152 C150 1.478 . S
C152 C154 1.381 . S
C152 C158 1.383 . S
C153 C149 1.495 . S
C153 H159 0.959 . S
C153 H160 0.961 . S
C153 H161 0.960 . S
C154 C152 1.381 . S
C154 C155 1.394 . S
C154 H162 0.930 . S
C155 C154 1.394 . S
C155 C156 1.383 . S
C155 H163 0.929 . S
C156 C155 1.383 . S
C156 C157 1.377 . S
C157 H141 0.930 . S
C157 C156 1.377 . S
C157 C158 1.379 . S
C158 H142 0.931 . S
C158 C152 1.383 . S
C158 C157 1.379 . S
H159 C153 0.959 . S
H160 C153 0.961 . S
H161 C153 0.960 . S
H162 C154 0.930 . S
H163 C155 0.929 . S
H164 C172 0.929 . S
H165 C174 0.930 . S
H166 C176 0.930 . S
H167 C179 0.929 . S
H168 C182 0.930 . S
H169 C184 0.960 . S
H170 C184 0.960 . S
H171 C184 0.960 . S
C172 H164 0.929 . S
C172 C173 1.377 . S
C172 C174 1.384 . S
C173 C172 1.377 . S
C173 C179 1.390 . S
C174 H165 0.930 . S
C174 C172 1.384 . S
C174 C175 1.372 . S
C175 C174 1.372 . S
C175 C176 1.400 . S
C175 C180 1.490 . S
C176 H166 0.930 . S
C176 C175 1.400 . S
C176 C179 1.386 . S
H177 C193 0.930 . S
H178 C194 0.931 . S
C179 H167 0.929 . S
C179 C173 1.390 . S
C179 C176 1.386 . S
C180 C175 1.490 . S
C180 C182 1.395 . S
C180 C183 1.403 1_455 S
H181 C187 0.930 . S
C182 H168 0.930 . S
C182 C180 1.395 . S
C182 C185 1.403 . S
C183 C180 1.403 1_655 S
C183 C184 1.524 . S
C183 C187 1.400 . S
C184 H169 0.960 . S
C184 H170 0.960 . S
C184 H171 0.960 . S
C184 C183 1.524 . S
C185 C182 1.403 . S
C185 C186 1.392 . S
C185 C189 1.495 . S
C186 C185 1.392 . S
C186 C187 1.385 1_455 S
C186 C188 1.478 . S
C187 H181 0.930 . S
C187 C183 1.400 . S
C187 C186 1.385 1_655 S
C188 C186 1.478 . S
C188 C190 1.381 . S
C188 C194 1.383 . S
C189 C185 1.495 . S
C189 H195 0.959 . S
C189 H196 0.961 . S
C189 H197 0.960 . S
C190 C188 1.381 . S
C190 C191 1.394 . S
C190 H198 0.930 . S
C191 C190 1.394 . S
C191 C192 1.383 . S
C191 H199 0.929 . S
C192 C191 1.383 . S
C192 C193 1.377 . S
C193 H177 0.930 . S
C193 C192 1.377 . S
C193 C194 1.379 . S
C194 H178 0.931 . S
C194 C188 1.383 . S
C194 C193 1.379 . S
H195 C189 0.959 . S
H196 C189 0.961 . S
H197 C189 0.960 . S
H198 C190 0.930 . S
H199 C191 0.929 . S
H200 C208 0.929 . S
H201 C210 0.930 . S
H202 C212 0.930 . S
H203 C215 0.929 . S
H204 C218 0.930 . S
H205 C220 0.960 . S
H206 C220 0.960 . S
H207 C220 0.960 1_565 S
C208 H200 0.929 . S
C208 C209 1.377 . S
C208 C210 1.384 . S
C209 C208 1.377 . S
C209 C215 1.390 1_545 S
C210 H201 0.930 . S
C210 C208 1.384 . S
C210 C211 1.372 . S
C211 C210 1.372 . S
C211 C212 1.400 1_545 S
C211 C216 1.490 . S
C212 H202 0.930 . S
C212 C211 1.400 1_565 S
C212 C215 1.386 . S
H213 C229 0.930 . S
H214 C230 0.931 . S
C215 H203 0.929 . S
C215 C209 1.390 1_565 S
C215 C212 1.386 . S
C216 C211 1.490 . S
C216 C218 1.395 . S
C216 C219 1.403 . S
H217 C223 0.930 . S
C218 H204 0.930 . S
C218 C216 1.395 . S
C218 C221 1.403 . S
C219 C216 1.403 . S
C219 C220 1.524 . S
C219 C223 1.400 . S
C220 H205 0.960 . S
C220 H206 0.960 . S
C220 H207 0.960 1_545 S
C220 C219 1.524 . S
C221 C218 1.403 . S
C221 C222 1.392 . S
C221 C225 1.495 . S
C222 C221 1.392 . S
C222 C223 1.385 . S
C222 C224 1.478 . S
C223 H217 0.930 . S
C223 C219 1.400 . S
C223 C222 1.385 . S
C224 C222 1.478 . S
C224 C226 1.381 . S
C224 C230 1.383 1_545 S
C225 C221 1.495 . S
C225 H231 0.959 . S
C225 H232 0.961 . S
C225 H233 0.960 . S
C226 C224 1.381 . S
C226 C227 1.394 . S
C226 H234 0.930 . S
C227 C226 1.394 . S
C227 C228 1.383 . S
C227 H235 0.929 . S
C228 C227 1.383 . S
C228 C229 1.377 1_545 S
C229 H213 0.930 . S
C229 C228 1.377 1_565 S
C229 C230 1.379 . S
C230 H214 0.931 . S
C230 C224 1.383 1_565 S
C230 C229 1.379 . S
H231 C225 0.959 . S
H232 C225 0.961 . S
H233 C225 0.960 . S
H234 C226 0.930 . S
H235 C227 0.929 . S
H236 C244 0.929 . S
H237 C246 0.930 . S
H238 C248 0.930 . S
H239 C251 0.929 1_655 S
H240 C254 0.930 . S
H241 C256 0.960 1_554 S
H242 C256 0.960 . S
H243 C256 0.960 . S
C244 H236 0.929 . S
C244 C245 1.377 . S
C244 C246 1.384 . S
C245 C244 1.377 . S
C245 C251 1.390 . S
C246 H237 0.930 . S
C246 C244 1.384 . S
C246 C247 1.372 . S
C247 C246 1.372 . S
C247 C248 1.400 . S
C247 C252 1.490 . S
C248 H238 0.930 . S
C248 C247 1.400 . S
C248 C251 1.386 . S
H249 C265 0.930 . S
H250 C266 0.931 . S
C251 H239 0.929 1_455 S
C251 C245 1.390 . S
C251 C248 1.386 . S
C252 C247 1.490 . S
C252 C254 1.395 . S
C252 C255 1.403 . S
H253 C259 0.930 . S
C254 H240 0.930 . S
C254 C252 1.395 . S
C254 C257 1.403 1_556 S
C255 C252 1.403 . S
C255 C256 1.524 1_455 S
C255 C259 1.400 1_556 S
C256 H241 0.960 1_556 S
C256 H242 0.960 . S
C256 H243 0.960 . S
C256 C255 1.524 1_655 S
C257 C254 1.403 1_554 S
C257 C258 1.392 . S
C257 C261 1.495 . S
C258 C257 1.392 . S
C258 C259 1.385 . S
C258 C260 1.478 . S
C259 H253 0.930 . S
C259 C255 1.400 1_554 S
C259 C258 1.385 . S
C260 C258 1.478 . S
C260 C262 1.381 . S
C260 C266 1.383 . S
C261 C257 1.495 . S
C261 H267 0.959 . S
C261 H268 0.961 . S
C261 H269 0.960 . S
C262 C260 1.381 . S
C262 C263 1.394 . S
C262 H270 0.930 . S
C263 C262 1.394 . S
C263 C264 1.383 . S
C263 H271 0.929 . S
C264 C263 1.383 . S
C264 C265 1.377 . S
C265 H249 0.930 . S
C265 C264 1.377 . S
C265 C266 1.379 . S
C266 H250 0.931 . S
C266 C260 1.383 . S
C266 C265 1.379 . S
H267 C261 0.959 . S
H268 C261 0.961 . S
H269 C261 0.960 . S
H270 C262 0.930 . S
H271 C263 0.929 . S
H272 C280 0.929 . S
H273 C282 0.930 . S
H274 C284 0.930 1_655 S
H275 C287 0.929 . S
H276 C290 0.930 . S
H277 C292 0.960 1_565 S
H278 C292 0.960 1_565 S
H279 C292 0.960 1_655 S
C280 H272 0.929 . S
C280 C281 1.377 . S
C280 C282 1.384 . S
C281 C280 1.377 . S
C281 C287 1.390 . S
C282 H273 0.930 . S
C282 C280 1.384 . S
C282 C283 1.372 . S
C283 C282 1.372 . S
C283 C284 1.400 . S
C283 C288 1.490 . S
C284 H274 0.930 1_455 S
C284 C283 1.400 . S
C284 C287 1.386 . S
H285 C301 0.930 1_655 S
H286 C302 0.931 1_655 S
C287 H275 0.929 . S
C287 C281 1.390 . S
C287 C284 1.386 . S
C288 C283 1.490 . S
C288 C290 1.395 . S
C288 C291 1.403 . S
H289 C295 0.930 . S
C290 H276 0.930 . S
C290 C288 1.395 . S
C290 C293 1.403 . S
C291 C288 1.403 . S
C291 C292 1.524 . S
C291 C295 1.400 . S
C292 H277 0.960 1_545 S
C292 H278 0.960 1_545 S
C292 H279 0.960 1_455 S
C292 C291 1.524 . S
C293 C290 1.403 . S
C293 C294 1.392 . S
C293 C297 1.495 . S
C294 C293 1.392 . S
C294 C295 1.385 . S
C294 C296 1.478 . S
C295 H289 0.930 . S
C295 C291 1.400 . S
C295 C294 1.385 . S
C296 C294 1.478 . S
C296 C298 1.381 . S
C296 C302 1.383 . S
C297 C293 1.495 . S
C297 H303 0.959 . S
C297 H304 0.961 . S
C297 H305 0.960 . S
C298 C296 1.381 . S
C298 C299 1.394 . S
C298 H306 0.930 . S
C299 C298 1.394 . S
C299 C300 1.383 . S
C299 H307 0.929 . S
C300 C299 1.383 . S
C300 C301 1.377 . S
C301 H285 0.930 1_455 S
C301 C300 1.377 . S
C301 C302 1.379 . S
C302 H286 0.931 1_455 S
C302 C296 1.383 . S
C302 C301 1.379 . S
H303 C297 0.959 . S
H304 C297 0.961 . S
H305 C297 0.960 . S
H306 C298 0.930 . S
H307 C299 0.929 . S
H308 C316 0.929 . S
H309 C318 0.930 . S
H310 C320 0.930 . S
H311 C323 0.929 . S
H312 C326 0.930 1_565 S
H313 C328 0.960 . S
H314 C328 0.960 . S
H315 C328 0.960 . S
C316 H308 0.929 . S
C316 C317 1.377 . S
C316 C318 1.384 . S
C317 C316 1.377 . S
C317 C323 1.390 . S
C318 H309 0.930 . S
C318 C316 1.384 . S
C318 C319 1.372 . S
C319 C318 1.372 . S
C319 C320 1.400 . S
C319 C324 1.490 . S
C320 H310 0.930 . S
C320 C319 1.400 . S
C320 C323 1.386 . S
H321 C337 0.930 . S
H322 C338 0.931 . S
C323 H311 0.929 . S
C323 C317 1.390 . S
C323 C320 1.386 . S
C324 C319 1.490 . S
C324 C326 1.395 . S
C324 C327 1.403 . S
H325 C331 0.930 . S
C326 H312 0.930 1_545 S
C326 C324 1.395 . S
C326 C329 1.403 . S
C327 C324 1.403 . S
C327 C328 1.524 . S
C327 C331 1.400 . S
C328 H313 0.960 . S
C328 H314 0.960 . S
C328 H315 0.960 . S
C328 C327 1.524 . S
C329 C326 1.403 . S
C329 C330 1.392 . S
C329 C333 1.495 1_545 S
C330 C329 1.392 . S
C330 C331 1.385 . S
C330 C332 1.478 . S
C331 H325 0.930 . S
C331 C327 1.400 . S
C331 C330 1.385 . S
C332 C330 1.478 . S
C332 C334 1.381 . S
C332 C338 1.383 . S
C333 C329 1.495 1_565 S
C333 H339 0.959 . S
C333 H340 0.961 . S
C333 H341 0.960 . S
C334 C332 1.381 . S
C334 C335 1.394 . S
C334 H342 0.930 . S
C335 C334 1.394 . S
C335 C336 1.383 . S
C335 H343 0.929 . S
C336 C335 1.383 . S
C336 C337 1.377 . S
C337 H321 0.930 . S
C337 C336 1.377 . S
C337 C338 1.379 . S
C338 H322 0.931 . S
C338 C332 1.383 . S
C338 C337 1.379 . S
H339 C333 0.959 . S
H340 C333 0.961 . S
H341 C333 0.960 . S
H342 C334 0.930 . S
H343 C335 0.929 . S
H344 C352 0.929 . S
H345 C354 0.930 . S
H346 C356 0.930 . S
H347 C359 0.929 . S
H348 C362 0.930 . S
H349 C364 0.960 . S
H350 C364 0.960 . S
H351 C364 0.960 . S
C352 H344 0.929 . S
C352 C353 1.377 1_655 S
C352 C354 1.384 . S
C353 C352 1.377 1_455 S
C353 C359 1.390 . S
C354 H345 0.930 . S
C354 C352 1.384 . S
C354 C355 1.372 1_655 S
C355 C354 1.372 1_455 S
C355 C356 1.400 . S
C355 C360 1.490 . S
C356 H346 0.930 . S
C356 C355 1.400 . S
C356 C359 1.386 . S
H357 C373 0.930 . S
H358 C374 0.931 . S
C359 H347 0.929 . S
C359 C353 1.390 . S
C359 C356 1.386 . S
C360 C355 1.490 . S
C360 C362 1.395 1_455 S
C360 C363 1.403 . S
H361 C367 0.930 . S
C362 H348 0.930 . S
C362 C360 1.395 1_655 S
C362 C365 1.403 . S
C363 C360 1.403 . S
C363 C364 1.524 . S
C363 C367 1.400 . S
C364 H349 0.960 . S
C364 H350 0.960 . S
C364 H351 0.960 . S
C364 C363 1.524 . S
C365 C362 1.403 . S
C365 C366 1.392 . S
C365 C369 1.495 . S
C366 C365 1.392 . S
C366 C367 1.385 1_655 S
C366 C368 1.478 . S
C367 H361 0.930 . S
C367 C363 1.400 . S
C367 C366 1.385 1_455 S
C368 C366 1.478 . S
C368 C370 1.381 . S
C368 C374 1.383 1_655 S
C369 C365 1.495 . S
C369 H375 0.959 . S
C369 H376 0.961 . S
C369 H377 0.960 . S
C370 C368 1.381 . S
C370 C371 1.394 . S
C370 H378 0.930 . S
C371 C370 1.394 . S
C371 C372 1.383 . S
C371 H379 0.929 . S
C372 C371 1.383 . S
C372 C373 1.377 1_655 S
C373 H357 0.930 . S
C373 C372 1.377 1_455 S
C373 C374 1.379 . S
C374 H358 0.931 . S
C374 C368 1.383 1_455 S
C374 C373 1.379 . S
H375 C369 0.959 . S
H376 C369 0.961 . S
H377 C369 0.960 . S
H378 C370 0.930 . S
H379 C371 0.929 . S
C101 N12 1.457 . S
C120 N2 1.462 . S
C137 C30 1.480 . S
C156 C39 1.463 . S
C173 N58 1.453 . S
C192 N48 1.444 . S
C209 C85 1.475 . S
C228 C76 1.481 . S
C245 C62 1.552 1_455 S
C264 C7 1.550 . S
C281 N81 1.501 . S
C300 N35 1.508 . S
C317 N71 1.452 . S
C336 C16 1.487 . S
C353 N25 1.560 . S
C372 C53 1.581 . S
