# Generated by pormake.
# Topology vbv, (6)-cn, num edge types: 1
# Building blocks:
#     Node 0, Type 0, BuildingBlock: OJICUG_clean_sbu_0, # of connection points: 6
#     Node 1, Type 0, BuildingBlock: OJICUG_clean_sbu_0, # of connection points: 6
#     Node 2, Type 0, BuildingBlock: OJICUG_clean_sbu_0, # of connection points: 6
#     Node 3, Type 0, BuildingBlock: OJICUG_clean_sbu_0, # of connection points: 6
#     Node 4, Type 0, BuildingBlock: OJICUG_clean_sbu_0, # of connection points: 6
#     Node 5, Type 0, BuildingBlock: OJICUG_clean_sbu_0, # of connection points: 6
#     Node 6, Type 0, BuildingBlock: OJICUG_clean_sbu_0, # of connection points: 6
#     Node 7, Type 0, BuildingBlock: OJICUG_clean_sbu_0, # of connection points: 6
#     Node 8, Type 0, BuildingBlock: OJICUG_clean_sbu_0, # of connection points: 6
#     Node 9, Type 0, BuildingBlock: OJICUG_clean_sbu_0, # of connection points: 6
#     Node 10, Type 0, BuildingBlock: OJICUG_clean_sbu_0, # of connection points: 6
#     Node 11, Type 0, BuildingBlock: OJICUG_clean_sbu_0, # of connection points: 6
#     Node 12, Type 0, BuildingBlock: OJICUG_clean_sbu_0, # of connection points: 6
#     Node 13, Type 0, BuildingBlock: OJICUG_clean_sbu_0, # of connection points: 6
#     Node 14, Type 0, BuildingBlock: OJICUG_clean_sbu_0, # of connection points: 6
#     Node 15, Type 0, BuildingBlock: OJICUG_clean_sbu_0, # of connection points: 6
#     Edge 16, Type (0, 0), BuildingBlock: XIVTED_clean_linker_0, # of connection points: 2
#     Edge 17, Type (0, 0), BuildingBlock: XIVTED_clean_linker_0, # of connection points: 2
#     Edge 18, Type (0, 0), BuildingBlock: XIVTED_clean_linker_0, # of connection points: 2
#     Edge 19, Type (0, 0), BuildingBlock: XIVTED_clean_linker_0, # of connection points: 2
#     Edge 20, Type (0, 0), BuildingBlock: XIVTED_clean_linker_0, # of connection points: 2
#     Edge 21, Type (0, 0), BuildingBlock: XIVTED_clean_linker_0, # of connection points: 2
#     Edge 22, Type (0, 0), BuildingBlock: XIVTED_clean_linker_0, # of connection points: 2
#     Edge 23, Type (0, 0), BuildingBlock: XIVTED_clean_linker_0, # of connection points: 2
#     Edge 24, Type (0, 0), BuildingBlock: XIVTED_clean_linker_0, # of connection points: 2
#     Edge 25, Type (0, 0), BuildingBlock: XIVTED_clean_linker_0, # of connection points: 2
#     Edge 26, Type (0, 0), BuildingBlock: XIVTED_clean_linker_0, # of connection points: 2
#     Edge 27, Type (0, 0), BuildingBlock: XIVTED_clean_linker_0, # of connection points: 2
#     Edge 28, Type (0, 0), BuildingBlock: XIVTED_clean_linker_0, # of connection points: 2
#     Edge 29, Type (0, 0), BuildingBlock: XIVTED_clean_linker_0, # of connection points: 2
#     Edge 30, Type (0, 0), BuildingBlock: XIVTED_clean_linker_0, # of connection points: 2
#     Edge 31, Type (0, 0), BuildingBlock: XIVTED_clean_linker_0, # of connection points: 2
#     Edge 32, Type (0, 0), BuildingBlock: XIVTED_clean_linker_0, # of connection points: 2
#     Edge 33, Type (0, 0), BuildingBlock: XIVTED_clean_linker_0, # of connection points: 2
#     Edge 34, Type (0, 0), BuildingBlock: XIVTED_clean_linker_0, # of connection points: 2
#     Edge 35, Type (0, 0), BuildingBlock: XIVTED_clean_linker_0, # of connection points: 2
#     Edge 36, Type (0, 0), BuildingBlock: XIVTED_clean_linker_0, # of connection points: 2
#     Edge 37, Type (0, 0), BuildingBlock: XIVTED_clean_linker_0, # of connection points: 2
#     Edge 38, Type (0, 0), BuildingBlock: XIVTED_clean_linker_0, # of connection points: 2
#     Edge 39, Type (0, 0), BuildingBlock: XIVTED_clean_linker_0, # of connection points: 2
#     Edge 40, Type (0, 0), BuildingBlock: XIVTED_clean_linker_0, # of connection points: 2
#     Edge 41, Type (0, 0), BuildingBlock: XIVTED_clean_linker_0, # of connection points: 2
#     Edge 42, Type (0, 0), BuildingBlock: XIVTED_clean_linker_0, # of connection points: 2
#     Edge 43, Type (0, 0), BuildingBlock: XIVTED_clean_linker_0, # of connection points: 2
#     Edge 44, Type (0, 0), BuildingBlock: XIVTED_clean_linker_0, # of connection points: 2
#     Edge 45, Type (0, 0), BuildingBlock: XIVTED_clean_linker_0, # of connection points: 2
#     Edge 46, Type (0, 0), BuildingBlock: XIVTED_clean_linker_0, # of connection points: 2
#     Edge 47, Type (0, 0), BuildingBlock: XIVTED_clean_linker_0, # of connection points: 2
#     Edge 48, Type (0, 0), BuildingBlock: XIVTED_clean_linker_0, # of connection points: 2
#     Edge 49, Type (0, 0), BuildingBlock: XIVTED_clean_linker_0, # of connection points: 2
#     Edge 50, Type (0, 0), BuildingBlock: XIVTED_clean_linker_0, # of connection points: 2
#     Edge 51, Type (0, 0), BuildingBlock: XIVTED_clean_linker_0, # of connection points: 2
#     Edge 52, Type (0, 0), BuildingBlock: XIVTED_clean_linker_0, # of connection points: 2
#     Edge 53, Type (0, 0), BuildingBlock: XIVTED_clean_linker_0, # of connection points: 2
#     Edge 54, Type (0, 0), BuildingBlock: XIVTED_clean_linker_0, # of connection points: 2
#     Edge 55, Type (0, 0), BuildingBlock: XIVTED_clean_linker_0, # of connection points: 2
#     Edge 56, Type (0, 0), BuildingBlock: XIVTED_clean_linker_0, # of connection points: 2
#     Edge 57, Type (0, 0), BuildingBlock: XIVTED_clean_linker_0, # of connection points: 2
#     Edge 58, Type (0, 0), BuildingBlock: XIVTED_clean_linker_0, # of connection points: 2
#     Edge 59, Type (0, 0), BuildingBlock: XIVTED_clean_linker_0, # of connection points: 2
#     Edge 60, Type (0, 0), BuildingBlock: XIVTED_clean_linker_0, # of connection points: 2
#     Edge 61, Type (0, 0), BuildingBlock: XIVTED_clean_linker_0, # of connection points: 2
#     Edge 62, Type (0, 0), BuildingBlock: XIVTED_clean_linker_0, # of connection points: 2
#     Edge 63, Type (0, 0), BuildingBlock: XIVTED_clean_linker_0, # of connection points: 2
# Relax obj value: 0.217
# Max RMSD: 0.236
# Mean RMSD: 0.236
data_MOF--net-vbv--node1-OJICUG_clean_sbu_0--edge1-XIVTED_clean_linker_0
_symmetry_space_group_name_H-M    P1
_symmetry_Int_Tables_number       1
_symmetry_cell_setting            triclinic
loop_
_symmetry_equiv_pos_as_xyz
'x, y, z'
_cell_length_a     55.318346
_cell_length_b     28.639301
_cell_length_c     47.629494
_cell_angle_alpha  90.010258
_cell_angle_beta   89.983919
_cell_angle_gamma 89.92878
loop_
_atom_site_label
_atom_site_type_symbol
_atom_site_fract_x
_atom_site_fract_y
_atom_site_fract_z
_atom_type_partial_charge
Sc0 Sc 0.12138 0.39855 0.10342 0.0
Sc1 Sc 0.16049 0.3041 0.09298 0.0
Sc2 Sc 0.12326 0.3418 0.03787 0.0
O3 O 0.1351 0.34827 0.07795 0.0
C4 C 0.07508 0.3535 0.07427 0.0
C5 C 0.1272 0.31236 0.14584 0.0
C6 C 0.13032 0.23515 0.05334 0.0
C7 C 0.1773 0.40413 0.11693 0.0
C8 C 0.12154 0.45114 0.04391 0.0
C9 C 0.18017 0.32788 0.03233 0.0
O10 O 0.08515 0.37205 0.09567 0.0
O11 O 0.13948 0.28729 0.12916 0.0
O12 O 0.12006 0.26803 0.04022 0.0
O13 O 0.15734 0.42516 0.11226 0.0
O14 O 0.12451 0.41448 0.02958 0.0
O15 O 0.18313 0.31741 0.05797 0.0
O16 O 0.11907 0.45098 0.07045 0.0
O17 O 0.17962 0.36005 0.11418 0.0
O18 O 0.15958 0.33584 0.02131 0.0
O19 O 0.12176 0.35463 0.14052 0.0
O20 O 0.08623 0.34548 0.05137 0.0
O21 O 0.1458 0.24232 0.07263 0.0
Sc22 Sc 0.38219 0.6614 0.04059 0.0
Sc23 Sc 0.34588 0.69078 0.09675 0.0
Sc24 Sc 0.38623 0.599 0.10275 0.0
O25 O 0.37131 0.65014 0.07997 0.0
C26 C 0.38206 0.55385 0.0412 0.0
C27 C 0.32519 0.67846 0.03755 0.0
C28 C 0.33154 0.58878 0.11825 0.0
C29 C 0.37612 0.76343 0.05902 0.0
C30 C 0.43083 0.64522 0.07353 0.0
C31 C 0.38065 0.682 0.1471 0.0
O32 O 0.37456 0.59109 0.02977 0.0
O33 O 0.32183 0.67387 0.06371 0.0
O34 O 0.35086 0.56874 0.10982 0.0
O35 O 0.39029 0.73245 0.04948 0.0
O36 O 0.42111 0.63096 0.09621 0.0
O37 O 0.36939 0.70879 0.1304 0.0
O38 O 0.41953 0.64509 0.05023 0.0
O39 O 0.35783 0.75326 0.07419 0.0
O40 O 0.38425 0.63883 0.14182 0.0
O41 O 0.34616 0.68043 0.02654 0.0
O42 O 0.39028 0.55276 0.06628 0.0
O43 O 0.32976 0.63316 0.12003 0.0
Sc44 Sc 0.62041 0.59938 0.38578 0.0
Sc45 Sc 0.65939 0.69448 0.39393 0.0
Sc46 Sc 0.62348 0.6583 0.45057 0.0
O47 O 0.63448 0.65061 0.41024 0.0
C48 C 0.57452 0.64483 0.41591 0.0
C49 C 0.6251 0.68392 0.34208 0.0
C50 C 0.62958 0.76444 0.43321 0.0
C51 C 0.67624 0.5937 0.37117 0.0
C52 C 0.62197 0.54882 0.44589 0.0
C53 C 0.68038 0.6734 0.45436 0.0
O54 O 0.58421 0.62589 0.39435 0.0
O55 O 0.63772 0.7095 0.35806 0.0
O56 O 0.61996 0.73194 0.44728 0.0
O57 O 0.65637 0.57273 0.37636 0.0
O58 O 0.62517 0.58591 0.45973 0.0
O59 O 0.68275 0.68326 0.42855 0.0
O60 O 0.61892 0.54818 0.41944 0.0
O61 O 0.67845 0.63788 0.37328 0.0
O62 O 0.66008 0.66513 0.46598 0.0
O63 O 0.61984 0.64185 0.34806 0.0
O64 O 0.58617 0.65375 0.43833 0.0
O65 O 0.64462 0.75679 0.41352 0.0
Sc66 Sc 0.88606 0.39918 0.38598 0.0
Sc67 Sc 0.84584 0.3075 0.39138 0.0
Sc68 Sc 0.88214 0.33578 0.44771 0.0
O69 O 0.87118 0.34773 0.40845 0.0
C70 C 0.93057 0.35134 0.41446 0.0
C71 C 0.87993 0.31801 0.34071 0.0
C72 C 0.87604 0.234 0.42865 0.0
C73 C 0.83134 0.4102 0.37107 0.0
C74 C 0.88251 0.44315 0.44787 0.0
C75 C 0.82517 0.31867 0.45077 0.0
O76 O 0.92084 0.36589 0.39183 0.0
O77 O 0.86931 0.29035 0.35744 0.0
O78 O 0.89018 0.26475 0.43843 0.0
O79 O 0.85063 0.43008 0.37971 0.0
O80 O 0.87458 0.40601 0.459 0.0
O81 O 0.82179 0.3235 0.42463 0.0
O82 O 0.89078 0.44431 0.42282 0.0
O83 O 0.82971 0.36587 0.3687 0.0
O84 O 0.84615 0.31671 0.46178 0.0
O85 O 0.88336 0.36101 0.34645 0.0
O86 O 0.91942 0.35221 0.43787 0.0
O87 O 0.85785 0.24451 0.41338 0.0
Sc88 Sc 0.88382 0.59984 0.8837 0.0
Sc89 Sc 0.84267 0.68894 0.89456 0.0
Sc90 Sc 0.88309 0.66044 0.94729 0.0
O91 O 0.8699 0.64934 0.90863 0.0
C92 C 0.88431 0.5516 0.94472 0.0
C93 C 0.82858 0.58916 0.87048 0.0
C94 C 0.82572 0.6701 0.95472 0.0
C95 C 0.87563 0.68666 0.84222 0.0
C96 C 0.93035 0.64598 0.91057 0.0
C97 C 0.87229 0.76229 0.93182 0.0
O98 O 0.88843 0.5507 0.91835 0.0
O99 O 0.82657 0.63343 0.86992 0.0
O100 O 0.84719 0.67369 0.9643 0.0
O101 O 0.88048 0.64357 0.84641 0.0
O102 O 0.91998 0.65005 0.93429 0.0
O103 O 0.85337 0.75046 0.91842 0.0
O104 O 0.91951 0.63023 0.88891 0.0
O105 O 0.86416 0.7115 0.85991 0.0
O106 O 0.88827 0.73308 0.9391 0.0
O107 O 0.84827 0.5692 0.87755 0.0
O108 O 0.87959 0.5887 0.95821 0.0
O109 O 0.82107 0.66657 0.92873 0.0
Sc110 Sc 0.61887 0.39762 0.88761 0.0
Sc111 Sc 0.65854 0.30476 0.89181 0.0
Sc112 Sc 0.62366 0.33408 0.94919 0.0
O113 O 0.63387 0.34574 0.90962 0.0
C114 C 0.62422 0.44136 0.9494 0.0
C115 C 0.67339 0.40697 0.87129 0.0
C116 C 0.68051 0.31398 0.95051 0.0
C117 C 0.6234 0.31625 0.84215 0.0
C118 C 0.57469 0.35133 0.91744 0.0
C119 C 0.62835 0.23233 0.92972 0.0
O120 O 0.61533 0.44269 0.92463 0.0
O121 O 0.67468 0.36261 0.86878 0.0
O122 O 0.65973 0.31291 0.9621 0.0
O123 O 0.62034 0.35935 0.84799 0.0
O124 O 0.58631 0.35221 0.94054 0.0
O125 O 0.64639 0.24223 0.91408 0.0
O126 O 0.58405 0.36546 0.89452 0.0
O127 O 0.6343 0.2884 0.85854 0.0
O128 O 0.61466 0.26356 0.93992 0.0
O129 O 0.65436 0.4274 0.88032 0.0
O130 O 0.63221 0.40403 0.9603 0.0
O131 O 0.68337 0.31986 0.92437 0.0
Sc132 Sc 0.37979 0.33377 0.54104 0.0
Sc133 Sc 0.34413 0.30247 0.5974 0.0
Sc134 Sc 0.38342 0.39569 0.60338 0.0
O135 O 0.36898 0.34419 0.58054 0.0
C136 C 0.42834 0.35074 0.57404 0.0
C137 C 0.37498 0.23133 0.55912 0.0
C138 C 0.37884 0.31252 0.64769 0.0
C139 C 0.32294 0.31455 0.53834 0.0
C140 C 0.37878 0.44124 0.54201 0.0
C141 C 0.3286 0.40393 0.61879 0.0
O142 O 0.41703 0.35108 0.55072 0.0
O143 O 0.35675 0.2406 0.57463 0.0
O144 O 0.38184 0.35583 0.64241 0.0
O145 O 0.34385 0.31372 0.52708 0.0
O146 O 0.38713 0.44221 0.56703 0.0
O147 O 0.32742 0.3595 0.62076 0.0
O148 O 0.37141 0.40398 0.53053 0.0
O149 O 0.31974 0.31847 0.56456 0.0
O150 O 0.3477 0.42474 0.6104 0.0
O151 O 0.38868 0.26294 0.54952 0.0
O152 O 0.41856 0.36462 0.59678 0.0
O153 O 0.36794 0.28526 0.63097 0.0
Sc154 Sc 0.11793 0.59414 0.60173 0.0
Sc155 Sc 0.15782 0.68632 0.59599 0.0
Sc156 Sc 0.12193 0.6568 0.53968 0.0
O157 O 0.1327 0.64545 0.57906 0.0
C158 C 0.12268 0.54928 0.54014 0.0
C159 C 0.17258 0.58455 0.61742 0.0
C160 C 0.17891 0.67438 0.53704 0.0
C161 C 0.12305 0.67713 0.64614 0.0
C162 C 0.07336 0.6408 0.57251 0.0
C163 C 0.12756 0.75863 0.558 0.0
O164 O 0.11411 0.548 0.56508 0.0
O165 O 0.17392 0.62894 0.61955 0.0
O166 O 0.15798 0.6765 0.52589 0.0
O167 O 0.11984 0.63382 0.64092 0.0
O168 O 0.08462 0.63984 0.54918 0.0
O169 O 0.14587 0.74857 0.57317 0.0
O170 O 0.083 0.62635 0.5952 0.0
O171 O 0.13396 0.70422 0.62933 0.0
O172 O 0.11337 0.72758 0.54871 0.0
O173 O 0.15346 0.56413 0.60875 0.0
O174 O 0.13008 0.58669 0.52887 0.0
O175 O 0.18211 0.66936 0.56319 0.0
Sc176 Sc 0.62052 0.8975 0.10641 0.0
Sc177 Sc 0.65968 0.80375 0.10265 0.0
Sc178 Sc 0.62588 0.83471 0.04473 0.0
O179 O 0.6356 0.84554 0.08453 0.0
C180 C 0.57675 0.85234 0.07572 0.0
C181 C 0.62421 0.81637 0.15198 0.0
C182 C 0.62911 0.73261 0.06416 0.0
C183 C 0.67491 0.90591 0.12321 0.0
C184 C 0.6268 0.94158 0.04487 0.0
C185 C 0.68247 0.81201 0.04426 0.0
O186 O 0.58578 0.86561 0.09899 0.0
O187 O 0.63503 0.78819 0.13571 0.0
O188 O 0.61605 0.76448 0.05359 0.0
O189 O 0.656 0.92664 0.11412 0.0
O190 O 0.6353 0.9045 0.03416 0.0
O191 O 0.68506 0.81766 0.07045 0.0
O192 O 0.61737 0.94252 0.06937 0.0
O193 O 0.67609 0.86149 0.12563 0.0
O194 O 0.66185 0.8121 0.03232 0.0
O195 O 0.62151 0.85949 0.14607 0.0
O196 O 0.58866 0.85441 0.05285 0.0
O197 O 0.647 0.74162 0.08025 0.0
Sc198 Sc 0.88203 0.1606 0.04374 0.0
Sc199 Sc 0.84287 0.18921 0.0976 0.0
Sc200 Sc 0.88434 0.10052 0.10726 0.0
O201 O 0.86971 0.14965 0.08274 0.0
C202 C 0.88338 0.05221 0.04623 0.0
C203 C 0.82463 0.1715 0.038 0.0
C204 C 0.82952 0.08898 0.12178 0.0
C205 C 0.87203 0.26238 0.0596 0.0
C206 C 0.92981 0.14754 0.0791 0.0
C207 C 0.87649 0.18664 0.14921 0.0
O208 O 0.87764 0.08902 0.033 0.0
O209 O 0.82054 0.16696 0.06405 0.0
O210 O 0.8491 0.06919 0.1141 0.0
O211 O 0.88787 0.23299 0.05207 0.0
O212 O 0.91949 0.13263 0.10129 0.0
O213 O 0.86503 0.21173 0.13167 0.0
O214 O 0.91915 0.14865 0.05544 0.0
O215 O 0.85329 0.25071 0.07345 0.0
O216 O 0.88118 0.14355 0.14484 0.0
O217 O 0.84591 0.17522 0.02788 0.0
O218 O 0.88878 0.05177 0.07231 0.0
O219 O 0.8274 0.13327 0.12252 0.0
Sc220 Sc 0.11944 0.09416 0.38066 0.0
Sc221 Sc 0.15802 0.1883 0.38617 0.0
Sc222 Sc 0.12333 0.15565 0.44298 0.0
O223 O 0.13381 0.14584 0.40335 0.0
C224 C 0.07492 0.13901 0.41039 0.0
C225 C 0.12376 0.17644 0.33585 0.0
C226 C 0.12676 0.25825 0.42487 0.0
C227 C 0.17413 0.08686 0.36511 0.0
C228 C 0.12479 0.04869 0.44188 0.0
C229 C 0.17991 0.17734 0.44498 0.0
O230 O 0.08442 0.12581 0.38733 0.0
O231 O 0.13382 0.20456 0.35276 0.0
O232 O 0.11352 0.22608 0.4347 0.0
O233 O 0.15526 0.06555 0.37377 0.0
O234 O 0.13273 0.08574 0.45308 0.0
O235 O 0.18287 0.17338 0.41873 0.0
O236 O 0.11568 0.04808 0.41721 0.0
O237 O 0.17493 0.13134 0.36285 0.0
O238 O 0.15911 0.1774 0.45653 0.0
O239 O 0.12124 0.13312 0.34134 0.0
O240 O 0.0863 0.1363 0.4336 0.0
O241 O 0.14491 0.24973 0.40906 0.0
Sc242 Sc 0.3838 0.89581 0.38239 0.0
Sc243 Sc 0.34469 0.80238 0.38714 0.0
Sc244 Sc 0.37929 0.83313 0.44425 0.0
O245 O 0.36905 0.84407 0.40468 0.0
C246 C 0.42797 0.84967 0.41222 0.0
C247 C 0.37998 0.81333 0.33765 0.0
C248 C 0.37515 0.73114 0.4257 0.0
C249 C 0.32934 0.90404 0.36599 0.0
C250 C 0.37797 0.9403 0.44391 0.0
C251 C 0.32253 0.81291 0.44564 0.0
O252 O 0.41868 0.86379 0.38927 0.0
O253 O 0.36926 0.78561 0.35426 0.0
O254 O 0.38881 0.76276 0.43536 0.0
O255 O 0.34816 0.92499 0.37508 0.0
O256 O 0.37015 0.90293 0.45485 0.0
O257 O 0.3197 0.81806 0.41944 0.0
O258 O 0.38716 0.94153 0.41926 0.0
O259 O 0.32846 0.85962 0.3635 0.0
O260 O 0.34329 0.81171 0.45726 0.0
O261 O 0.38247 0.85675 0.343 0.0
O262 O 0.41647 0.85196 0.43537 0.0
O263 O 0.35699 0.74046 0.4101 0.0
Sc264 Sc 0.38491 0.09871 0.88332 0.0
Sc265 Sc 0.34661 0.19362 0.88677 0.0
Sc266 Sc 0.38009 0.16248 0.94471 0.0
O267 O 0.3703 0.1513 0.905 0.0
C268 C 0.37775 0.05569 0.94507 0.0
C269 C 0.33055 0.09202 0.86615 0.0
C270 C 0.32375 0.18774 0.94485 0.0
C271 C 0.38212 0.17997 0.83768 0.0
C272 C 0.42899 0.14293 0.91399 0.0
C273 C 0.37776 0.26403 0.92511 0.0
O274 O 0.38738 0.05402 0.92067 0.0
O275 O 0.32988 0.13645 0.86359 0.0
O276 O 0.34438 0.18755 0.9568 0.0
O277 O 0.3844 0.13671 0.84355 0.0
O278 O 0.41708 0.14077 0.93685 0.0
O279 O 0.35961 0.25535 0.90936 0.0
O280 O 0.41992 0.12959 0.89076 0.0
O281 O 0.37154 0.20848 0.85395 0.0
O282 O 0.3909 0.23189 0.93523 0.0
O283 O 0.34917 0.07064 0.8755 0.0
O284 O 0.36969 0.09331 0.95559 0.0
O285 O 0.32113 0.18006 0.91886 0.0
Sc286 Sc 0.1216 0.89686 0.87954 0.0
Sc287 Sc 0.16247 0.80647 0.8858 0.0
Sc288 Sc 0.12548 0.83368 0.94122 0.0
O289 O 0.13663 0.84613 0.90222 0.0
C290 C 0.12576 0.94109 0.94147 0.0
C291 C 0.17612 0.90782 0.86391 0.0
C292 C 0.18261 0.81819 0.94452 0.0
C293 C 0.12751 0.81304 0.83574 0.0
C294 C 0.07708 0.84998 0.90842 0.0
C295 C 0.13276 0.73321 0.92315 0.0
O296 O 0.11745 0.94257 0.91638 0.0
O297 O 0.17751 0.86355 0.8613 0.0
O298 O 0.16152 0.81361 0.95504 0.0
O299 O 0.124 0.85644 0.84062 0.0
O300 O 0.08832 0.85126 0.93173 0.0
O301 O 0.15179 0.74451 0.90965 0.0
O302 O 0.08677 0.86403 0.88568 0.0
O303 O 0.13884 0.78659 0.85264 0.0
O304 O 0.11722 0.76313 0.93077 0.0
O305 O 0.15697 0.92783 0.87285 0.0
O306 O 0.13325 0.90363 0.95271 0.0
O307 O 0.18607 0.82627 0.91868 0.0
Sc308 Sc 0.88069 0.836 0.54356 0.0
Sc309 Sc 0.84709 0.80392 0.60132 0.0
Sc310 Sc 0.88504 0.89895 0.60526 0.0
O311 O 0.87066 0.84654 0.58327 0.0
C312 C 0.92924 0.85423 0.57505 0.0
C313 C 0.87862 0.73394 0.56297 0.0
C314 C 0.88168 0.81822 0.65103 0.0
C315 C 0.82444 0.81061 0.5429 0.0
C316 C 0.87869 0.94268 0.54363 0.0
C317 C 0.83048 0.90561 0.62145 0.0
O318 O 0.91755 0.85758 0.55208 0.0
O319 O 0.86057 0.74234 0.57897 0.0
O320 O 0.88373 0.86147 0.64514 0.0
O321 O 0.84508 0.81148 0.53098 0.0
O322 O 0.88826 0.94372 0.56806 0.0
O323 O 0.82998 0.86118 0.62417 0.0
O324 O 0.87036 0.90544 0.53298 0.0
O325 O 0.82173 0.81688 0.56902 0.0
O326 O 0.84915 0.92714 0.61237 0.0
O327 O 0.89143 0.76624 0.55251 0.0
O328 O 0.92005 0.86726 0.59832 0.0
O329 O 0.87184 0.78935 0.63443 0.0
Sc330 Sc 0.62074 0.10061 0.60742 0.0
Sc331 Sc 0.66181 0.19059 0.60224 0.0
Sc332 Sc 0.62518 0.16475 0.54614 0.0
O333 O 0.63599 0.15159 0.5852 0.0
C334 C 0.6246 0.0574 0.54526 0.0
C335 C 0.67521 0.08868 0.62323 0.0
C336 C 0.68242 0.17944 0.54354 0.0
C337 C 0.62665 0.18311 0.65203 0.0
C338 C 0.57637 0.14829 0.57843 0.0
C339 C 0.63268 0.26497 0.56509 0.0
O340 O 0.61644 0.05585 0.57039 0.0
O341 O 0.67652 0.13283 0.62642 0.0
O342 O 0.66143 0.18399 0.53277 0.0
O343 O 0.6231 0.13993 0.64664 0.0
O344 O 0.58784 0.14822 0.55525 0.0
O345 O 0.65148 0.25318 0.57887 0.0
O346 O 0.58594 0.13381 0.60117 0.0
O347 O 0.63799 0.20999 0.63541 0.0
O348 O 0.61725 0.23543 0.55679 0.0
O349 O 0.65609 0.06902 0.61398 0.0
O350 O 0.63249 0.09468 0.53421 0.0
O351 O 0.68568 0.1714 0.56943 0.0
H352 H 0.09346 0.20578 0.0197 0.0
H353 H 0.15162 0.95582 0.98939 0.0
H354 H 0.1578 0.156 0.06149 0.0
H355 H 0.10024 0.02284 0.93426 0.0
H356 H 0.15046 0.02387 0.02008 0.0
H357 H 0.09131 0.13278 0.99365 0.0
C358 C 0.10697 0.1792 0.02374 0.0
C359 C 0.12608 0.18738 0.04257 0.0
C360 C 0.13945 0.02372 0.00128 0.0
C361 C 0.12375 0.10371 0.01247 0.0
C362 C 0.14008 0.98489 0.98368 0.0
C363 C 0.12598 0.9836 0.95913 0.0
C364 C 0.12447 0.06152 -0.0055 0.0
C365 C 0.11149 0.02242 0.95284 0.0
C366 C 0.10578 0.13763 0.00868 0.0
C367 C 0.14281 0.15132 0.04716 0.0
N368 N 0.11104 0.05976 0.97049 0.0
N369 N 0.1414 0.11117 0.03196 0.0
H370 H 0.34961 0.03954 0.99123 0.0
H371 H 0.41402 0.79816 0.02871 0.0
H372 H 0.40507 0.97604 0.94003 0.0
H373 H 0.34463 0.83775 0.06298 0.0
H374 H 0.4149 0.8707 0.00212 0.0
H375 H 0.35077 0.97183 0.02241 0.0
C376 C 0.36201 0.0113 0.98649 0.0
C377 C 0.37727 0.01343 0.96291 0.0
C378 C 0.39957 0.86369 0.01563 0.0
C379 C 0.37886 0.93623 -0.00118 0.0
C380 C 0.39909 0.82239 0.03103 0.0
C381 C 0.37902 0.8114 0.04789 0.0
C382 C 0.37995 0.89457 0.01717 0.0
C383 C 0.36041 0.84458 0.0502 0.0
C384 C 0.36264 0.97273 0.00433 0.0
C385 C 0.39289 0.97576 0.95782 0.0
N386 N 0.36123 0.88455 0.03478 0.0
N387 N 0.39337 0.93881 0.97572 0.0
H388 H 0.59927 0.9762 0.55381 0.0
H389 H 0.6559 0.84393 0.4222 0.0
H390 H 0.64845 0.04261 0.49582 0.0
H391 H 0.59359 0.79433 0.46795 0.0
H392 H 0.65318 0.91795 0.4478 0.0
H393 H 0.59767 0.90832 0.52272 0.0
C394 C 0.6098 0.97645 0.53463 0.0
C395 C 0.62403 0.01511 0.52746 0.0
C396 C 0.63992 0.89102 0.4519 0.0
C397 C 0.6222 0.93776 0.49171 0.0
C398 C 0.64135 0.84891 0.43713 0.0
C399 C 0.6252 0.81258 0.44324 0.0
C400 C 0.62233 0.8965 0.47299 0.0
C401 C 0.60672 0.82103 0.46288 0.0
C402 C 0.60873 0.93788 0.51676 0.0
C403 C 0.63717 0.01362 0.50219 0.0
N404 N 0.60602 0.86178 0.47733 0.0
N405 N 0.63603 0.9755 0.48531 0.0
H406 H 0.90587 0.02208 0.54998 0.0
H407 H 0.8449 0.15955 0.42307 0.0
H408 H 0.85164 0.95974 0.49668 0.0
H409 H 0.91308 0.19908 0.46033 0.0
H410 H 0.84614 0.08663 0.44989 0.0
H411 H 0.90699 0.08972 0.51866 0.0
C412 C 0.89409 0.02273 0.53182 0.0
C413 C 0.87865 0.98518 0.52596 0.0
C414 C 0.86095 0.11109 0.45186 0.0
C415 C 0.87992 0.06232 0.48996 0.0
C416 C 0.86034 0.15259 0.43641 0.0
C417 C 0.87876 0.18587 0.43965 0.0
C418 C 0.87996 0.10313 0.47085 0.0
C419 C 0.89829 0.17485 0.45736 0.0
C420 C 0.89489 0.06114 0.5138 0.0
C421 C 0.8639 0.98782 0.50196 0.0
N422 N 0.8982 0.1348 0.47255 0.0
N423 N 0.86482 0.0258 0.48491 0.0
H424 H 0.86186 0.96958 0.0599 0.0
H425 H 0.91155 0.8197 0.93456 0.0
H426 H 0.90458 0.03648 -0.00422 0.0
H427 H 0.83673 0.80901 0.95916 0.0
H428 H 0.91503 0.89162 0.96259 0.0
H429 H 0.85853 0.90004 0.02965 0.0
C430 C 0.87086 0.96918 0.03969 0.0
C431 C 0.88356 0.00839 0.0302 0.0
C432 C 0.89782 0.87369 0.96149 0.0
C433 C 0.88 0.92978 -0.00401 0.0
C434 C 0.8958 0.83306 0.94546 0.0
C435 C 0.87373 0.80916 0.94427 0.0
C436 C 0.87791 0.88917 0.97719 0.0
C437 C 0.85391 0.82713 0.95915 0.0
C438 C 0.86875 0.92995 0.02242 0.0
C439 C 0.89464 0.00671 0.00372 0.0
N440 N 0.85656 0.86575 0.97544 0.0
N441 N 0.8928 0.96781 0.98756 0.0
H442 H 0.65865 0.15682 0.92296 0.0
H443 H 0.59967 0.02108 0.05173 0.0
H444 H 0.59175 0.19869 0.96254 0.0
H445 H 0.6531 0.95836 -0.00265 0.0
H446 H 0.59801 0.08857 0.02032 0.0
H447 H 0.65751 0.08399 0.9498 0.0
C448 C 0.64349 0.1504 0.93682 0.0
C449 C 0.62545 0.1843 0.94072 0.0
C450 C 0.61005 0.05994 0.01524 0.0
C451 C 0.62436 0.10164 0.97193 0.0
C452 C 0.61115 0.02162 0.03331 0.0
C453 C 0.62654 0.98403 0.02718 0.0
C454 C 0.62464 0.06092 0.99107 0.0
C455 C 0.6409 0.98649 0.00287 0.0
C456 C 0.64294 0.10894 0.95228 0.0
C457 C 0.60626 0.17395 0.95906 0.0
N458 N 0.63968 0.02435 0.98577 0.0
N459 N 0.60641 0.1339 0.97425 0.0
H460 H 0.34961 0.95672 0.48967 0.0
H461 H 0.41291 0.19849 0.528 0.0
H462 H 0.40526 0.02015 0.43886 0.0
H463 H 0.34434 0.15591 0.56301 0.0
H464 H 0.41419 0.12658 0.50075 0.0
H465 H 0.35059 0.02412 0.52093 0.0
C466 C 0.36202 0.98492 0.48502 0.0
C467 C 0.3774 0.98279 0.46155 0.0
C468 C 0.39896 0.13281 0.51456 0.0
C469 C 0.37875 0.05983 0.49759 0.0
C470 C 0.39826 0.17372 0.53034 0.0
C471 C 0.37829 0.18368 0.54763 0.0
C472 C 0.37966 0.10129 0.51615 0.0
C473 C 0.36004 0.14988 0.54993 0.0
C474 C 0.36255 0.02335 0.50293 0.0
C475 C 0.39299 0.02046 0.45657 0.0
N476 N 0.36106 0.11033 0.53415 0.0
N477 N 0.39336 0.05737 0.47455 0.0
H478 H 0.15831 0.83363 0.56338 0.0
H479 H 0.0979 0.96887 0.43501 0.0
H480 H 0.09086 0.79196 0.52518 0.0
H481 H 0.15184 0.03143 0.48862 0.0
H482 H 0.09684 0.90106 0.46632 0.0
H483 H 0.15712 0.90578 0.53589 0.0
C484 C 0.14304 0.83995 0.54967 0.0
C485 C 0.12482 0.80633 0.5464 0.0
C486 C 0.10887 0.92974 0.47122 0.0
C487 C 0.12367 0.88818 0.51444 0.0
C488 C 0.10963 0.96821 0.45322 0.0
C489 C 0.12494 0.00588 0.45922 0.0
C490 C 0.12373 0.92874 0.49517 0.0
C491 C 0.13965 0.00327 0.48325 0.0
C492 C 0.14246 0.88101 0.53383 0.0
C493 C 0.10549 0.81652 0.52821 0.0
N494 N 0.13874 0.96533 0.50028 0.0
N495 N 0.1056 0.85618 0.51265 0.0
H496 H 0.59797 0.52203 0.94231 0.0
H497 H 0.65846 0.6557 0.071 0.0
H498 H 0.6504 0.45718 -0.00294 0.0
H499 H 0.59216 0.70061 0.03131 0.0
H500 H 0.65641 0.58284 0.04424 0.0
H501 H 0.59709 0.58984 0.9736 0.0
C502 C 0.60938 0.52214 0.96079 0.0
C503 C 0.62426 0.48387 0.96706 0.0
C504 C 0.64217 0.60848 0.04171 0.0
C505 C 0.62327 0.56112 0.00299 0.0
C506 C 0.64323 0.64995 0.05714 0.0
C507 C 0.62563 0.68469 0.05319 0.0
C508 C 0.62351 0.60198 0.02205 0.0
C509 C 0.60635 0.67519 0.03482 0.0
C510 C 0.60872 0.56065 0.97877 0.0
C511 C 0.63857 0.48583 0.99144 0.0
N512 N 0.606 0.6351 0.01966 0.0
N513 N 0.63779 0.52385 0.00843 0.0
H514 H 0.83527 0.31254 0.03673 0.0
H515 H 0.91072 0.53313 0.99129 0.0
H516 H 0.91205 0.31673 0.05226 0.0
H517 H 0.85795 0.47267 0.93558 0.0
H518 H 0.90789 0.46371 0.02146 0.0
H519 H 0.83902 0.38321 0.00786 0.0
C520 C 0.85278 0.32912 0.03469 0.0
C521 C 0.87338 0.30924 0.04703 0.0
C522 C 0.89711 0.46561 0.00252 0.0
C523 C 0.87772 0.3893 0.01412 0.0
C524 C 0.89875 0.50489 0.98534 0.0
C525 C 0.88475 0.50797 0.96088 0.0
C526 C 0.88072 0.43014 -0.00438 0.0
C527 C 0.86927 0.47101 0.9541 0.0
C528 C 0.85493 0.36886 0.01793 0.0
C529 C 0.89576 0.3313 0.04318 0.0
N530 N 0.86739 0.43371 0.97165 0.0
N531 N 0.89735 0.37045 0.02714 0.0
H532 H 0.15067 0.53324 0.49411 0.0
H533 H 0.08896 0.28948 0.45685 0.0
H534 H 0.09592 0.46874 0.54573 0.0
H535 H 0.15654 0.33485 0.4205 0.0
H536 H 0.08738 0.36122 0.48426 0.0
H537 H 0.14985 0.46575 0.46298 0.0
C538 C 0.13848 0.50479 0.49896 0.0
C539 C 0.12329 0.50667 0.5226 0.0
C540 C 0.10244 0.35564 0.47012 0.0
C541 C 0.12214 0.42942 0.48672 0.0
C542 C 0.10332 0.31482 0.45424 0.0
C543 C 0.12312 0.30571 0.43652 0.0
C544 C 0.12138 0.3879 0.46818 0.0
C545 C 0.14098 0.34021 0.43391 0.0
C546 C 0.13805 0.46628 0.48112 0.0
C547 C 0.10801 0.46864 0.52785 0.0
N548 N 0.13979 0.37964 0.44978 0.0
N549 N 0.10772 0.43161 0.50993 0.0
H550 H 0.40484 0.522 0.54951 0.0
H551 H 0.34535 0.65485 0.41961 0.0
H552 H 0.35246 0.4576 0.49462 0.0
H553 H 0.41163 0.69933 0.4594 0.0
H554 H 0.34684 0.58281 0.44717 0.0
H555 H 0.40583 0.58986 0.51819 0.0
C556 C 0.39344 0.52226 0.53102 0.0
C557 C 0.37859 0.48407 0.52467 0.0
C558 C 0.36119 0.60818 0.44957 0.0
C559 C 0.37972 0.56124 0.48872 0.0
C560 C 0.36044 0.64918 0.43369 0.0
C561 C 0.37822 0.68355 0.43737 0.0
C562 C 0.3797 0.60179 0.46943 0.0
C563 C 0.39733 0.67417 0.45604 0.0
C564 C 0.39417 0.56076 0.51302 0.0
C565 C 0.36429 0.48616 0.50028 0.0
N566 N 0.39737 0.63454 0.47163 0.0
N567 N 0.36515 0.52412 0.48327 0.0
H568 H 0.34884 0.34144 0.9183 0.0
H569 H 0.40808 0.47287 0.04876 0.0
H570 H 0.41436 0.29475 0.95899 0.0
H571 H 0.35614 0.53797 0.9935 0.0
H572 H 0.40917 0.40509 0.01734 0.0
H573 H 0.35071 0.41358 0.94569 0.0
C574 C 0.36386 0.34666 0.93253 0.0
C575 C 0.38128 0.31163 0.93653 0.0
C576 C 0.3976 0.43434 0.01211 0.0
C577 C 0.38319 0.39353 0.96842 0.0
C578 C 0.39682 0.47279 0.03016 0.0
C579 C 0.38205 0.51114 0.02375 0.0
C580 C 0.38329 0.43409 0.9877 0.0
C581 C 0.36792 0.50929 -0.00077 0.0
C582 C 0.36482 0.38772 0.94833 0.0
C583 C 0.40032 0.32044 0.95539 0.0
N584 N 0.36883 0.4714 0.98217 0.0
N585 N 0.40057 0.36017 0.9709 0.0
H586 H 0.149 0.52907 0.05262 0.0
H587 H 0.09263 0.67928 0.92972 0.0
H588 H 0.09386 0.47162 -0.00114 0.0
H589 H 0.16886 0.68456 0.94841 0.0
H590 H 0.08891 0.61041 0.96016 0.0
H591 H 0.15226 0.59665 0.02079 0.0
C592 C 0.13724 0.53134 0.03448 0.0
C593 C 0.12104 0.49528 0.02828 0.0
C594 C 0.10648 0.62635 0.95723 0.0
C595 C 0.1247 0.57139 0.99211 0.0
C596 C 0.10864 0.66522 0.93977 0.0
C597 C 0.13114 0.68688 0.93626 0.0
C598 C 0.12681 0.61025 0.97196 0.0
C599 C 0.1513 0.66811 0.95015 0.0
C600 C 0.13932 0.56934 0.01621 0.0
C601 C 0.10649 0.49905 0.00428 0.0
N602 N 0.1486 0.63121 0.9678 0.0
N603 N 0.10855 0.53661 0.98709 0.0
H604 H 0.8507 0.65566 0.57122 0.0
H605 H 0.90843 0.524 0.43989 0.0
H606 H 0.91489 0.70365 0.52838 0.0
H607 H 0.85775 0.45864 0.49654 0.0
H608 H 0.90994 0.59177 0.47124 0.0
H609 H 0.85282 0.58295 0.54441 0.0
C610 C 0.86549 0.65063 0.55663 0.0
C611 C 0.88244 0.68618 0.55185 0.0
C612 C 0.89856 0.56245 0.47681 0.0
C613 C 0.88462 0.60357 0.52063 0.0
C614 C 0.89754 0.52398 0.4588 0.0
C615 C 0.88295 0.4856 0.46557 0.0
C616 C 0.88467 0.56272 0.50156 0.0
C617 C 0.86934 0.48735 0.4905 0.0
C618 C 0.8666 0.60922 0.54117 0.0
C619 C 0.90121 0.67757 0.53258 0.0
N620 N 0.87046 0.52531 0.50749 0.0
N621 N 0.90158 0.63748 0.5174 0.0
H622 H 0.6482 0.46948 0.43627 0.0
H623 H 0.59288 0.32029 0.55951 0.0
H624 H 0.59597 0.53051 0.49262 0.0
H625 H 0.66895 0.31318 0.5401 0.0
H626 H 0.5895 0.39023 0.52986 0.0
H627 H 0.65148 0.40172 0.46798 0.0
C628 C 0.63711 0.46804 0.45501 0.0
C629 C 0.62172 0.50512 0.46195 0.0
C630 C 0.60696 0.37364 0.53249 0.0
C631 C 0.62534 0.42874 0.49789 0.0
C632 C 0.60893 0.33417 0.54948 0.0
C633 C 0.63129 0.31172 0.55254 0.0
C634 C 0.62731 0.38948 0.51774 0.0
C635 C 0.65151 0.33024 0.53869 0.0
C636 C 0.6392 0.42991 0.47317 0.0
C637 C 0.60799 0.50232 0.48665 0.0
N638 N 0.64897 0.36772 0.52145 0.0
N639 N 0.60998 0.46457 0.50371 0.0
H640 H 0.11569 0.12694 0.28739 0.0
H641 H 0.11063 0.35756 0.19291 0.0
H642 H 0.11635 0.26719 0.32068 0.0
H643 H 0.12733 0.2202 0.16078 0.0
H644 H 0.10321 0.32315 0.2391 0.0
H645 H 0.11029 0.15919 0.2402 0.0
C646 C 0.11432 0.16443 0.28484 0.0
C647 C 0.11692 0.19446 0.30791 0.0
C648 C 0.10827 0.30055 0.22184 0.0
C649 C 0.1108 0.23147 0.25414 0.0
C650 C 0.11247 0.32014 0.19546 0.0
C651 C 0.12005 0.29185 0.17307 0.0
C652 C 0.11154 0.25234 0.22577 0.0
C653 C 0.12196 0.2435 0.17757 0.0
C654 C 0.11133 0.18281 0.25792 0.0
C655 C 0.11489 0.24277 0.30341 0.0
N656 N 0.11793 0.22533 0.20346 0.0
N657 N 0.11217 0.25979 0.27702 0.0
H658 H 0.38636 0.77381 0.16069 0.0
H659 H 0.38828 0.72227 0.32403 0.0
H660 H 0.392 0.63516 0.19568 0.0
H661 H 0.38957 0.86124 0.28896 0.0
H662 H 0.3954 0.69015 0.27742 0.0
H663 H 0.39321 0.80659 0.20717 0.0
C664 C 0.38925 0.75021 0.17815 0.0
C665 C 0.38812 0.70162 0.17441 0.0
C666 C 0.39444 0.72769 0.2799 0.0
C667 C 0.39587 0.73906 0.22779 0.0
C668 C 0.39029 0.7461 0.30652 0.0
C669 C 0.38784 0.7945 0.31028 0.0
C670 C 0.39586 0.75783 0.25676 0.0
C671 C 0.39109 0.8237 0.28696 0.0
C672 C 0.39325 0.76901 0.20469 0.0
C673 C 0.39248 0.6728 0.19767 0.0
N674 N 0.39454 0.80484 0.26108 0.0
N675 N 0.39579 0.69199 0.22348 0.0
H676 H 0.61391 0.86643 0.19969 0.0
H677 H 0.60937 0.63712 0.29521 0.0
H678 H 0.617 0.72569 0.16731 0.0
H679 H 0.6234 0.77577 0.32689 0.0
H680 H 0.60198 0.67052 0.2487 0.0
H681 H 0.60711 0.83475 0.24677 0.0
C682 C 0.61278 0.82894 0.20239 0.0
C683 C 0.61652 0.79862 0.17967 0.0
C684 C 0.6064 0.69362 0.26595 0.0
C685 C 0.6088 0.76228 0.2333 0.0
C686 C 0.61057 0.6746 0.29249 0.0
C687 C 0.6175 0.7036 0.31481 0.0
C688 C 0.60905 0.74192 0.26181 0.0
C689 C 0.6186 0.75198 0.31014 0.0
C690 C 0.60898 0.81089 0.22926 0.0
C691 C 0.61472 0.75033 0.18435 0.0
N692 N 0.61466 0.76957 0.2841 0.0
N693 N 0.61123 0.73365 0.21068 0.0
H694 H 0.87668 0.27928 0.16332 0.0
H695 H 0.88804 0.22745 0.32599 0.0
H696 H 0.89171 0.14232 0.19709 0.0
H697 H 0.88664 0.36702 0.29183 0.0
H698 H 0.89313 0.19636 0.27875 0.0
H699 H 0.88373 0.31286 0.20964 0.0
C700 C 0.88163 0.25626 0.18043 0.0
C701 C 0.8832 0.20776 0.17641 0.0
C702 C 0.89203 0.23383 0.28155 0.0
C703 C 0.89124 0.24608 0.22952 0.0
C704 C 0.88905 0.25161 0.30852 0.0
C705 C 0.88652 0.29985 0.31276 0.0
C706 C 0.89212 0.26444 0.25855 0.0
C707 C 0.88835 0.32957 0.28946 0.0
C708 C 0.88577 0.27553 0.20685 0.0
C709 C 0.89006 0.17981 0.19925 0.0
N710 N 0.89064 0.31131 0.26324 0.0
N711 N 0.89351 0.19933 0.22492 0.0
H712 H 0.89305 0.72913 0.66596 0.0
H713 H 0.87436 0.77932 0.82811 0.0
H714 H 0.88541 0.868 0.70007 0.0
H715 H 0.89272 0.64358 0.79472 0.0
H716 H 0.88228 0.81362 0.7822 0.0
H717 H 0.89744 0.6985 0.7134 0.0
C718 C 0.89259 0.75327 0.68347 0.0
C719 C 0.88846 0.80108 0.67914 0.0
C720 C 0.88483 0.77642 0.78497 0.0
C721 C 0.89317 0.76616 0.73356 0.0
C722 C 0.88019 0.7567 0.81117 0.0
C723 C 0.88247 0.7083 0.81518 0.0
C724 C 0.89157 0.74751 0.7625 0.0
C725 C 0.89047 0.68096 0.79256 0.0
C726 C 0.89514 0.73576 0.71057 0.0
C727 C 0.88841 0.83086 0.70251 0.0
N728 N 0.89444 0.70088 0.7671 0.0
N729 N 0.89029 0.81278 0.72881 0.0
H730 H 0.6132 0.36573 0.79419 0.0
H731 H 0.61236 0.13554 0.69927 0.0
H732 H 0.61694 0.22533 0.82697 0.0
H733 H 0.62324 0.27491 0.66704 0.0
H734 H 0.60446 0.16876 0.74569 0.0
H735 H 0.60717 0.3335 0.7471 0.0
C736 C 0.61237 0.32819 0.79156 0.0
C737 C 0.61608 0.29816 0.81441 0.0
C738 C 0.60833 0.19204 0.72835 0.0
C739 C 0.60926 0.26117 0.76077 0.0
C740 C 0.61281 0.17311 0.70185 0.0
C741 C 0.61897 0.20242 0.67938 0.0
C742 C 0.60994 0.24057 0.73232 0.0
C743 C 0.61906 0.2509 0.6839 0.0
C744 C 0.60901 0.30982 0.76469 0.0
C745 C 0.61467 0.24978 0.80984 0.0
N746 N 0.61487 0.26841 0.70991 0.0
N747 N 0.61163 0.2328 0.7835 0.0
H748 H 0.3931 0.36021 0.69494 0.0
H749 H 0.39166 0.13 0.78967 0.0
H750 H 0.38278 0.22076 0.66258 0.0
H751 H 0.39008 0.27046 0.8226 0.0
H752 H 0.39789 0.16199 0.74256 0.0
H753 H 0.40128 0.32697 0.74129 0.0
C754 C 0.39283 0.32263 0.69748 0.0
C755 C 0.38673 0.2933 0.67499 0.0
C756 C 0.39649 0.18573 0.76019 0.0
C757 C 0.39607 0.2551 0.72785 0.0
C758 C 0.39303 0.16748 0.78707 0.0
C759 C 0.38982 0.19764 0.80997 0.0
C760 C 0.39682 0.2344 0.75629 0.0
C761 C 0.39192 0.24593 0.80543 0.0
C762 C 0.39748 0.30367 0.72394 0.0
C763 C 0.38689 0.2448 0.67945 0.0
N764 N 0.39501 0.26282 0.77908 0.0
N765 N 0.39121 0.22726 0.70542 0.0
H766 H 0.12204 0.72082 0.82295 0.0
H767 H 0.11528 0.76848 0.65932 0.0
H768 H 0.11514 0.85861 0.78704 0.0
H769 H 0.11461 0.63032 0.69552 0.0
H770 H 0.10973 0.80172 0.70594 0.0
H771 H 0.11406 0.68692 0.777 0.0
C772 C 0.11867 0.744 0.80541 0.0
C773 C 0.11974 0.79269 0.80872 0.0
C774 C 0.11048 0.76411 0.70372 0.0
C775 C 0.11064 0.75395 0.75595 0.0
C776 C 0.11371 0.74507 0.67709 0.0
C777 C 0.11588 0.69655 0.67362 0.0
C778 C 0.10971 0.7345 0.72715 0.0
C779 C 0.11325 0.66791 0.69729 0.0
C780 C 0.11401 0.72456 0.77918 0.0
C781 C 0.11474 0.82092 0.78538 0.0
N782 N 0.1107 0.68738 0.72316 0.0
N783 N 0.11077 0.80111 0.75986 0.0
H784 H 0.18204 0.49968 0.12311 0.0
H785 H 0.32672 0.49283 0.11841 0.0
H786 H 0.2237 0.37207 0.12423 0.0
H787 H 0.28564 0.61954 0.13044 0.0
H788 H 0.28926 0.44789 0.12231 0.0
H789 H 0.21966 0.54413 0.12764 0.0
C790 C 0.19899 0.4809 0.12466 0.0
C791 C 0.19952 0.43187 0.12319 0.0
C792 C 0.28848 0.48551 0.12438 0.0
C793 C 0.24286 0.48281 0.12801 0.0
C794 C 0.30993 0.51125 0.12221 0.0
C795 C 0.30951 0.56023 0.12403 0.0
C796 C 0.26629 0.50878 0.12813 0.0
C797 C 0.28702 0.58193 0.1289 0.0
C798 C 0.22052 0.50637 0.12718 0.0
C799 C 0.22221 0.40972 0.12522 0.0
N800 N 0.26639 0.55618 0.13051 0.0
N801 N 0.24287 0.43527 0.12726 0.0
H802 H 0.6814 0.49797 0.36593 0.0
H803 H 0.82604 0.50617 0.37184 0.0
H804 H 0.72253 0.62597 0.36372 0.0
H805 H 0.78562 0.37924 0.35848 0.0
H806 H 0.78838 0.55074 0.36785 0.0
H807 H 0.71925 0.45382 0.36202 0.0
C808 C 0.69828 0.51689 0.36426 0.0
C809 C 0.69858 0.56595 0.36522 0.0
C810 C 0.78779 0.51316 0.36551 0.0
C811 C 0.74219 0.51538 0.36117 0.0
C812 C 0.80936 0.48763 0.36775 0.0
C813 C 0.80919 0.4387 0.36554 0.0
C814 C 0.76574 0.4897 0.36132 0.0
C815 C 0.78682 0.41683 0.36032 0.0
C816 C 0.71994 0.4916 0.3621 0.0
C817 C 0.7212 0.58829 0.36309 0.0
N818 N 0.76608 0.44234 0.35866 0.0
N819 N 0.74198 0.56293 0.36144 0.0
H820 H 0.82343 0.49307 0.86958 0.0
H821 H 0.67888 0.50281 0.86999 0.0
H822 H 0.78269 0.62068 0.85956 0.0
H823 H 0.7192 0.37459 0.86049 0.0
H824 H 0.71673 0.5466 0.8659 0.0
H825 H 0.78564 0.44879 0.86591 0.0
C826 C 0.80666 0.51181 0.86626 0.0
C827 C 0.80642 0.56084 0.86493 0.0
C828 C 0.71725 0.50888 0.86442 0.0
C829 C 0.7629 0.51025 0.86115 0.0
C830 C 0.69559 0.48382 0.86672 0.0
C831 C 0.69568 0.43479 0.8656 0.0
C832 C 0.73932 0.48487 0.86133 0.0
C833 C 0.71807 0.41229 0.86142 0.0
C834 C 0.78504 0.48648 0.86422 0.0
C835 C 0.78396 0.58301 0.86073 0.0
N836 N 0.73891 0.4374 0.85973 0.0
N837 N 0.7632 0.55769 0.85928 0.0
H838 H 0.17827 0.48862 0.61819 0.0
H839 H 0.32278 0.49972 0.62056 0.0
H840 H 0.21824 0.61676 0.62896 0.0
H841 H 0.28271 0.37114 0.62854 0.0
H842 H 0.28474 0.54325 0.62407 0.0
H843 H 0.21619 0.44484 0.6224 0.0
C844 C 0.19491 0.5076 0.62176 0.0
C845 C 0.19488 0.55662 0.62319 0.0
C846 C 0.28432 0.50551 0.62535 0.0
C847 C 0.23859 0.50654 0.62761 0.0
C848 C 0.30609 0.48059 0.62339 0.0
C849 C 0.30613 0.43153 0.62424 0.0
C850 C 0.26228 0.48134 0.62784 0.0
C851 C 0.28375 0.40886 0.62784 0.0
C852 C 0.21661 0.48253 0.62413 0.0
C853 C 0.21719 0.57908 0.62776 0.0
N854 N 0.26282 0.43383 0.62922 0.0
N855 N 0.23805 0.55399 0.62952 0.0
H856 H 0.82468 0.99286 0.12243 0.0
H857 H 0.68026 0.00161 0.12547 0.0
H858 H 0.78384 0.11994 0.13431 0.0
H859 H 0.72086 0.87338 0.13312 0.0
H860 H 0.71807 0.0455 0.12927 0.0
H861 H 0.78709 0.94817 0.12695 0.0
C862 C 0.80794 0.01139 0.12634 0.0
C863 C 0.80759 0.0604 0.12791 0.0
C864 C 0.71867 0.00775 0.13042 0.0
C865 C 0.76432 0.00934 0.13267 0.0
C866 C 0.69704 0.98263 0.12829 0.0
C867 C 0.69722 0.93358 0.12895 0.0
C868 C 0.7408 0.9838 0.13287 0.0
C869 C 0.71967 0.9111 0.13257 0.0
C870 C 0.78643 0.98582 0.12887 0.0
C871 C 0.78517 0.0823 0.1329 0.0
N872 N 0.74049 0.93628 0.13409 0.0
N873 N 0.76453 0.05675 0.13481 0.0
H874 H 0.2196 0.12102 0.35453 0.0
H875 H 0.2841 0.8704 0.35377 0.0
H876 H 0.18082 0.99119 0.36382 0.0
H877 H 0.32275 -0.00022 0.3657 0.0
H878 H 0.24644 0.91435 0.34981 0.0
H879 H 0.25737 0.07726 0.351 0.0
C880 C 0.21889 0.08326 0.35544 0.0
C881 C 0.19678 0.05991 0.35954 0.0
C882 C 0.26317 0.93318 0.35307 0.0
C883 C 0.24037 0.00942 0.3556 0.0
C884 C 0.28481 0.90812 0.35518 0.0
C885 C 0.30684 0.93126 0.36015 0.0
C886 C 0.26336 0.98198 0.35572 0.0
C887 C 0.30632 0.98028 0.36191 0.0
C888 C 0.24059 0.05831 0.35358 0.0
C889 C 0.1973 0.01085 0.36071 0.0
N890 N 0.28497 0.00391 0.35977 0.0
N891 N 0.2187 0.98733 0.35883 0.0
H892 H 0.22143 0.87563 0.85064 0.0
H893 H 0.2851 0.12645 0.85561 0.0
H894 H 0.18219 0.00373 0.86546 0.0
H895 H 0.32406 0.99645 0.86383 0.0
H896 H 0.24742 0.08269 0.85129 0.0
H897 H 0.25884 0.92021 0.84744 0.0
C898 C 0.22053 0.91323 0.85285 0.0
C899 C 0.19841 0.93579 0.85842 0.0
C900 C 0.26422 0.06373 0.85381 0.0
C901 C 0.24164 0.98723 0.85485 0.0
C902 C 0.28586 0.08867 0.85611 0.0
C903 C 0.30799 0.06524 0.86015 0.0
C904 C 0.26454 0.0148 0.85528 0.0
C905 C 0.30756 0.01616 0.8608 0.0
C906 C 0.24204 0.93864 0.85117 0.0
C907 C 0.1987 0.98468 0.86117 0.0
N908 N 0.28623 0.99267 0.85846 0.0
N909 N 0.21994 0.00869 0.85944 0.0
H910 H 0.785 0.87063 0.6308 0.0
H911 H 0.72032 0.12064 0.63728 0.0
H912 H 0.82354 0.00112 0.62395 0.0
H913 H 0.68164 0.99282 0.62037 0.0
H914 H 0.75785 0.07629 0.64026 0.0
H915 H 0.74708 0.91392 0.6347 0.0
C916 C 0.78562 0.90842 0.63051 0.0
C917 C 0.8077 0.93213 0.62702 0.0
C918 C 0.74115 0.05785 0.63611 0.0
C919 C 0.76397 0.98205 0.63141 0.0
C920 C 0.71956 0.08313 0.63455 0.0
C921 C 0.69755 0.06061 0.62849 0.0
C922 C 0.74096 0.0094 0.63181 0.0
C923 C 0.69805 0.01183 0.62507 0.0
C924 C 0.76384 0.93309 0.63256 0.0
C925 C 0.80708 0.9812 0.62658 0.0
N926 N 0.71937 0.98794 0.62672 0.0
N927 N 0.78562 0.00444 0.62871 0.0
H928 H 0.32308 0.24 0.99294 0.0
H929 H 0.18213 0.29577 0.97848 0.0
H930 H 0.27649 0.18013 0.92969 0.0
H931 H 0.22668 0.3461 0.04639 0.0
H932 H 0.21817 0.26328 0.95607 0.0
H933 H 0.28869 0.28427 0.01104 0.0
C934 C 0.30553 0.23542 0.98324 0.0
C935 C 0.30262 0.20643 0.95978 0.0
C936 C 0.22011 0.28215 0.97564 0.0
C937 C 0.26351 0.2579 0.97973 0.0
C938 C 0.19961 0.30135 0.98815 0.0
C939 C 0.20153 0.32284 0.01444 0.0
C940 C 0.24244 0.28468 0.98966 0.0
C941 C 0.22452 0.32899 0.02626 0.0
C942 C 0.286 0.26124 0.99328 0.0
C943 C 0.27955 0.2023 0.94776 0.0
N944 N 0.2441 0.30925 0.01399 0.0
N945 N 0.2609 0.22799 0.95779 0.0
H946 H 0.27808 0.65951 0.04938 0.0
H947 H 0.22987 0.83689 0.93325 0.0
H948 H 0.32397 0.7266 0.98811 0.0
H949 H 0.18353 0.7658 0.99242 0.0
H950 H 0.26478 0.79857 0.95417 0.0
H951 H 0.24298 0.69607 0.02774 0.0
C952 C 0.2807 0.6813 0.03103 0.0
C953 C 0.30394 0.69055 0.02066 0.0
C954 C 0.247 0.79161 0.96272 0.0
C955 C 0.26401 0.73317 -0.00373 0.0
C956 C 0.2271 0.8138 0.95098 0.0
C957 C 0.20379 0.80416 0.961 0.0
C958 C 0.24352 0.75956 0.98459 0.0
C959 C 0.2012 0.77427 0.98409 0.0
C960 C 0.26069 0.70244 0.01884 0.0
C961 C 0.30635 0.71861 -0.00325 0.0
N962 N 0.22088 0.75259 -0.00504 0.0
N963 N 0.28659 0.73949 0.98553 0.0
H964 H 0.68298 0.70376 0.50856 0.0
H965 H 0.82374 0.76094 0.49382 0.0
H966 H 0.7269 0.65852 0.43872 0.0
H967 H 0.77718 0.81854 0.55796 0.0
H968 H 0.78922 0.71822 0.47483 0.0
H969 H 0.71906 0.73613 0.5308 0.0
C970 C 0.70034 0.69938 0.49836 0.0
C971 C 0.70203 0.67925 0.47165 0.0
C972 C 0.78658 0.74045 0.49297 0.0
C973 C 0.743 0.71722 0.49631 0.0
C974 C 0.80618 0.76537 0.50353 0.0
C975 C 0.8033 0.79316 0.52753 0.0
C976 C 0.76408 0.74348 0.50655 0.0
C977 C 0.78021 0.79721 0.53952 0.0
C978 C 0.72085 0.71848 0.51079 0.0
C979 C 0.72489 0.67458 0.45918 0.0
N980 N 0.76151 0.77235 0.529 0.0
N981 N 0.74448 0.69413 0.47144 0.0
H982 H 0.77806 0.33788 0.4391 0.0
H983 H 0.72966 0.16121 0.55546 0.0
H984 H 0.82401 0.27003 0.50005 0.0
H985 H 0.68363 0.23095 0.49533 0.0
H986 H 0.76464 0.1993 0.53461 0.0
H987 H 0.74297 0.30138 0.46073 0.0
C988 C 0.78069 0.31592 0.45738 0.0
C989 C 0.80395 0.30647 0.46766 0.0
C990 C 0.74692 0.20599 0.52584 0.0
C991 C 0.76404 0.2639 0.49205 0.0
C992 C 0.72697 0.18395 0.53755 0.0
C993 C 0.70372 0.19328 0.52722 0.0
C994 C 0.74353 0.23761 0.50372 0.0
C995 C 0.70125 0.22273 0.5039 0.0
C996 C 0.76069 0.2948 0.46955 0.0
C997 C 0.80638 0.27819 0.49148 0.0
N998 N 0.72095 0.24429 0.49309 0.0
N999 N 0.78663 0.25734 0.5027 0.0
H1000 H 0.82594 0.71821 0.00425 0.0
H1001 H 0.6837 0.76218 -0.00462 0.0
H1002 H 0.77856 0.64749 0.9461 0.0
H1003 H 0.72972 0.82376 0.05858 0.0
H1004 H 0.71874 0.72144 0.97617 0.0
H1005 H 0.79071 0.75429 0.02621 0.0
C1006 C 0.80809 0.7092 -0.00336 0.0
C1007 C 0.80512 0.68041 0.9731 0.0
C1008 C 0.72118 0.7441 0.99415 0.0
C1009 C 0.76498 0.72253 -0.00258 0.0
C1010 C 0.70126 0.76793 0.00482 0.0
C1011 C 0.70383 0.79612 0.02867 0.0
C1012 C 0.74374 0.74875 0.00739 0.0
C1013 C 0.72695 0.80199 0.04027 0.0
C1014 C 0.78801 0.73033 0.0089 0.0
C1015 C 0.78162 0.67011 0.96397 0.0
N1016 N 0.74602 0.7782 0.02962 0.0
N1017 N 0.76243 0.69174 0.9759 0.0
H1018 H 0.6818 0.26356 -0.00083 0.0
H1019 H 0.82418 0.22096 0.98898 0.0
H1020 H 0.72773 0.32846 0.93709 0.0
H1021 H 0.77746 0.1503 0.04789 0.0
H1022 H 0.78879 0.2581 0.96812 0.0
H1023 H 0.71708 0.22364 0.0184 0.0
C1024 C 0.69938 0.27024 0.99001 0.0
C1025 C 0.70186 0.29901 0.9664 0.0
C1026 C 0.78626 0.23398 0.98538 0.0
C1027 C 0.74205 0.25259 0.98768 0.0
C1028 C 0.80643 0.21224 -0.00299 0.0
C1029 C 0.80371 0.18301 0.02038 0.0
C1030 C 0.76338 0.22634 -0.00269 0.0
C1031 C 0.78032 0.17317 0.03009 0.0
C1032 C 0.71945 0.2469 0.0007 0.0
C1033 C 0.72502 0.30615 0.95517 0.0
N1034 N 0.76104 0.19531 0.01873 0.0
N1035 N 0.74423 0.28273 0.96578 0.0
H1036 H 0.27584 0.33227 0.55085 0.0
H1037 H 0.22701 0.16092 0.43188 0.0
H1038 H 0.32158 0.26719 0.48858 0.0
H1039 H 0.18137 0.22508 0.49461 0.0
H1040 H 0.26206 0.19809 0.45313 0.0
H1041 H 0.24075 0.29574 0.52929 0.0
C1042 C 0.27842 0.3109 0.53231 0.0
C1043 C 0.30164 0.30228 0.5216 0.0
C1044 C 0.24443 0.20375 0.46241 0.0
C1045 C 0.26169 0.2597 0.49726 0.0
C1046 C 0.22444 0.18225 0.45045 0.0
C1047 C 0.20127 0.19035 0.46141 0.0
C1048 C 0.24117 0.23365 0.4854 0.0
C1049 C 0.19894 0.21789 0.48556 0.0
C1050 C 0.25842 0.28976 0.52017 0.0
C1051 C 0.30399 0.27474 0.49746 0.0
N1052 N 0.21868 0.23906 0.4966 0.0
N1053 N 0.28422 0.2539 0.48625 0.0
H1054 H 0.2755 0.82982 0.43237 0.0
H1055 H 0.22594 0.65538 0.54927 0.0
H1056 H 0.32073 0.76375 0.49474 0.0
H1057 H 0.18048 0.72309 0.48777 0.0
H1058 H 0.26118 0.69201 0.52809 0.0
H1059 H 0.2403 0.79214 0.45298 0.0
C1060 C 0.27794 0.80797 0.45072 0.0
C1061 C 0.30105 0.7995 0.46176 0.0
C1062 C 0.24354 0.69854 0.51906 0.0
C1063 C 0.26099 0.75561 0.48501 0.0
C1064 C 0.22344 0.67734 0.53097 0.0
C1065 C 0.20027 0.6867 0.5204 0.0
C1066 C 0.24038 0.72939 0.49651 0.0
C1067 C 0.19803 0.71499 0.49656 0.0
C1068 C 0.25788 0.78617 0.46231 0.0
C1069 C 0.30322 0.77124 0.48563 0.0
N1070 N 0.21788 0.73586 0.48558 0.0
N1071 N 0.28341 0.74982 0.49631 0.0
H1072 H 0.04345 0.33339 0.0322 0.0
H1073 H 0.95314 0.18135 0.12614 0.0
H1074 H 0.05182 0.32315 0.12207 0.0
H1075 H 0.95985 0.17132 0.03601 0.0
H1076 H 0.98725 0.23627 0.12661 0.0
H1077 H 0.00886 0.28126 0.03481 0.0
C1078 C 0.03771 0.3209 0.05261 0.0
C1079 C 0.05069 0.33253 0.07692 0.0
C1080 C 0.98135 0.22156 0.10683 0.0
C1081 C 0.01124 0.27151 0.08001 0.0
C1082 C 0.96208 0.18976 0.10655 0.0
C1083 C 0.95349 0.1717 0.08097 0.0
C1084 C 0.99191 0.23555 0.08134 0.0
C1085 C 0.96564 0.18445 0.05623 0.0
C1086 C 0.01808 0.29063 0.05406 0.0
C1087 C 0.04228 0.31532 0.1028 0.0
N1088 N 0.98398 0.21579 0.05704 0.0
N1089 N 0.02321 0.2852 0.10365 0.0
H1090 H 0.45684 0.67185 0.12009 0.0
H1091 H 0.55042 0.82402 0.03012 0.0
H1092 H 0.45838 0.67595 0.02947 0.0
H1093 H 0.55002 0.82155 0.12077 0.0
H1094 H 0.51611 0.77083 0.02989 0.0
H1095 H 0.49158 0.72465 0.12111 0.0
C1096 C 0.46473 0.68304 0.1004 0.0
C1097 C 0.45456 0.66935 0.07464 0.0
C1098 C 0.52337 0.78215 0.04986 0.0
C1099 C 0.49403 0.73075 0.07572 0.0
C1100 C 0.5429 0.81292 0.05002 0.0
C1101 C 0.55322 0.82744 0.07551 0.0
C1102 C 0.51402 0.76542 0.07536 0.0
C1103 C 0.54263 0.81158 0.1006 0.0
C1104 C 0.48442 0.71364 0.10102 0.0
C1105 C 0.46549 0.68552 0.04984 0.0
N1106 N 0.52374 0.78118 0.09989 0.0
N1107 N 0.48446 0.71551 0.05102 0.0
H1108 H 0.45488 0.82246 0.36631 0.0
H1109 H 0.54332 0.66292 0.45885 0.0
H1110 H 0.45333 0.81444 0.45683 0.0
H1111 H 0.55028 0.67551 0.36895 0.0
H1112 H 0.50794 0.71349 0.45735 0.0
H1113 H 0.48883 0.7674 0.36597 0.0
C1114 C 0.4619 0.80987 0.38614 0.0
C1115 C 0.45116 0.82338 0.41166 0.0
C1116 C 0.51698 0.70489 0.43785 0.0
C1117 C 0.48965 0.75934 0.41131 0.0
C1118 C 0.53709 0.67557 0.43867 0.0
C1119 C 0.54987 0.66498 0.414 0.0
C1120 C 0.50954 0.72428 0.41218 0.0
C1121 C 0.5409 0.68245 0.38846 0.0
C1122 C 0.48113 0.77801 0.38589 0.0
C1123 C 0.46093 0.80529 0.43663 0.0
N1124 N 0.52144 0.71172 0.38824 0.0
N1125 N 0.47946 0.77414 0.43578 0.0
H1126 H 0.04847 0.1684 0.36465 0.0
H1127 H 0.95899 0.32386 0.45851 0.0
H1128 H 0.04863 0.17061 0.45531 0.0
H1129 H 0.95523 0.31938 0.368 0.0
H1130 H 0.99307 0.27008 0.45709 0.0
H1131 H 0.01435 0.22296 0.36492 0.0
C1132 C 0.04109 0.17958 0.38462 0.0
C1133 C 0.05154 0.1647 0.41001 0.0
C1134 C 0.98495 0.28106 0.43748 0.0
C1135 C 0.01279 0.22814 0.4104 0.0
C1136 C 0.96555 0.31219 0.43826 0.0
C1137 C 0.9541 0.32631 0.41334 0.0
C1138 C 0.99307 0.26353 0.4116 0.0
C1139 C 0.96352 0.30975 0.38776 0.0
C1140 C 0.02175 0.21116 0.38473 0.0
C1141 C 0.04128 0.18096 0.43519 0.0
N1142 N 0.98232 0.27898 0.38756 0.0
N1143 N 0.02265 0.2119 0.43472 0.0
H1144 H 0.95318 0.67762 0.86272 0.0
H1145 H 0.04938 0.82241 0.95291 0.0
H1146 H 0.9622 0.66641 0.95249 0.0
H1147 H 0.05161 0.81864 0.8623 0.0
H1148 H 0.01527 0.76909 0.95215 0.0
H1149 H 0.98851 0.72945 0.86097 0.0
C1150 C 0.96289 0.68506 0.88194 0.0
C1151 C 0.95459 0.66772 0.90782 0.0
C1152 C 0.02308 0.78002 0.93236 0.0
C1153 C 0.9945 0.728 0.90604 0.0
C1154 C 0.04249 0.81095 0.93277 0.0
C1155 C 0.05352 0.82513 0.90763 0.0
C1156 C 0.01443 0.76286 0.90664 0.0
C1157 C 0.04364 0.8089 0.88222 0.0
C1158 C 0.98288 0.71511 0.88096 0.0
C1159 C 0.96776 0.67913 0.93208 0.0
N1160 N 0.02473 0.7784 0.88237 0.0
N1161 N 0.98682 0.70879 0.9306 0.0
H1162 H 0.54726 0.32284 0.9622 0.0
H1163 H 0.45664 0.16967 0.86874 0.0
H1164 H 0.54881 0.32129 0.87156 0.0
H1165 H 0.45433 0.17605 0.95929 0.0
H1166 H 0.49109 0.22313 0.86918 0.0
H1167 H 0.51278 0.26996 0.96124 0.0
C1168 C 0.54013 0.31203 0.94204 0.0
C1169 C 0.55106 0.32671 0.91691 0.0
C1170 C 0.48315 0.21253 0.88895 0.0
C1171 C 0.51168 0.26502 0.91571 0.0
C1172 C 0.46361 0.18155 0.88875 0.0
C1173 C 0.45248 0.16813 0.91403 0.0
C1174 C 0.49168 0.23032 0.9146 0.0
C1175 C 0.46224 0.18525 0.93926 0.0
C1176 C 0.52051 0.28145 0.94153 0.0
C1177 C 0.54096 0.31121 0.89148 0.0
N1178 N 0.48114 0.21555 0.93887 0.0
N1179 N 0.52198 0.28096 0.89153 0.0
H1180 H 0.55041 0.17844 0.62442 0.0
H1181 H 0.45631 0.32205 0.52982 0.0
H1182 H 0.54842 0.17477 0.53381 0.0
H1183 H 0.4543 0.32287 0.62046 0.0
H1184 H 0.49124 0.27038 0.53151 0.0
H1185 H 0.51519 0.23049 0.62403 0.0
C1186 C 0.54233 0.18775 0.60447 0.0
C1187 C 0.5525 0.17211 0.5791 0.0
C1188 C 0.48331 0.28207 0.55107 0.0
C1189 C 0.51253 0.23262 0.57852 0.0
C1190 C 0.46342 0.312 0.55014 0.0
C1191 C 0.45222 0.32697 0.57504 0.0
C1192 C 0.49219 0.26663 0.5771 0.0
C1193 C 0.46236 0.3125 0.6007 0.0
C1194 C 0.52237 0.21792 0.60427 0.0
C1195 C 0.54135 0.18594 0.55392 0.0
N1196 N 0.48165 0.28289 0.60107 0.0
N1197 N 0.52215 0.21552 0.55429 0.0
H1198 H 0.04738 0.66803 0.61908 0.0
H1199 H 0.95555 0.82536 0.52948 0.0
H1200 H 0.04631 0.67364 0.52849 0.0
H1201 H 0.95536 0.82123 0.6201 0.0
H1202 H 0.98937 0.77081 0.52915 0.0
H1203 H 0.01312 0.72219 0.62022 0.0
C1204 C 0.0397 0.67984 0.59941 0.0
C1205 C 0.04986 0.66608 0.57363 0.0
C1206 C 0.98209 0.78205 0.54914 0.0
C1207 C 0.01091 0.72908 0.57486 0.0
C1208 C 0.96284 0.81361 0.54937 0.0
C1209 C 0.9525 0.82814 0.57487 0.0
C1210 C 0.99116 0.76451 0.57459 0.0
C1211 C 0.96278 0.81133 0.59992 0.0
C1212 C 0.02027 0.71122 0.6001 0.0
C1213 C 0.03919 0.68315 0.54888 0.0
N1214 N 0.98142 0.78021 0.59915 0.0
N1215 N 0.02047 0.71386 0.55013 0.0
loop_
_geom_bond_atom_site_label_1
_geom_bond_atom_site_label_2
_geom_bond_distance
_geom_bond_site_symmetry_2
_ccdc_geom_bond_type
Sc0 O3 2.025 . S
Sc0 O10 2.105 . S
Sc0 O13 2.105 . S
Sc0 O16 2.105 . S
Sc0 O19 2.105 . S
Sc1 O3 2.025 . S
Sc1 O11 2.105 . S
Sc1 O15 2.105 . S
Sc1 O17 2.105 . S
Sc1 O21 2.105 . S
Sc2 O3 2.025 . S
Sc2 O12 2.105 . S
Sc2 O14 2.105 . S
Sc2 O18 2.105 . S
Sc2 O20 2.105 . S
O3 Sc0 2.025 . S
O3 Sc1 2.025 . S
O3 Sc2 2.025 . S
C4 O10 1.268 . S
C4 O20 1.268 . S
C5 O11 1.268 . S
C5 O19 1.268 . S
C6 O12 1.268 . S
C6 O21 1.268 . S
C7 O13 1.268 . S
C7 O17 1.268 . S
C8 O14 1.268 . S
C8 O16 1.268 . S
C9 O15 1.268 . S
C9 O18 1.268 . S
O10 Sc0 2.105 . S
O10 C4 1.268 . S
O11 Sc1 2.105 . S
O11 C5 1.268 . S
O12 Sc2 2.105 . S
O12 C6 1.268 . S
O13 Sc0 2.105 . S
O13 C7 1.268 . S
O14 Sc2 2.105 . S
O14 C8 1.268 . S
O15 Sc1 2.105 . S
O15 C9 1.268 . S
O16 Sc0 2.105 . S
O16 C8 1.268 . S
O17 Sc1 2.105 . S
O17 C7 1.268 . S
O18 Sc2 2.105 . S
O18 C9 1.268 . S
O19 Sc0 2.105 . S
O19 C5 1.268 . S
O20 Sc2 2.105 . S
O20 C4 1.268 . S
O21 Sc1 2.105 . S
O21 C6 1.268 . S
Sc22 O25 2.025 . S
Sc22 O32 2.105 . S
Sc22 O35 2.105 . S
Sc22 O38 2.105 . S
Sc22 O41 2.105 . S
Sc23 O25 2.025 . S
Sc23 O33 2.105 . S
Sc23 O37 2.105 . S
Sc23 O39 2.105 . S
Sc23 O43 2.105 . S
Sc24 O25 2.025 . S
Sc24 O34 2.105 . S
Sc24 O36 2.105 . S
Sc24 O40 2.105 . S
Sc24 O42 2.105 . S
O25 Sc22 2.025 . S
O25 Sc23 2.025 . S
O25 Sc24 2.025 . S
C26 O32 1.268 . S
C26 O42 1.268 . S
C27 O33 1.268 . S
C27 O41 1.268 . S
C28 O34 1.268 . S
C28 O43 1.268 . S
C29 O35 1.268 . S
C29 O39 1.268 . S
C30 O36 1.268 . S
C30 O38 1.268 . S
C31 O37 1.268 . S
C31 O40 1.268 . S
O32 Sc22 2.105 . S
O32 C26 1.268 . S
O33 Sc23 2.105 . S
O33 C27 1.268 . S
O34 Sc24 2.105 . S
O34 C28 1.268 . S
O35 Sc22 2.105 . S
O35 C29 1.268 . S
O36 Sc24 2.105 . S
O36 C30 1.268 . S
O37 Sc23 2.105 . S
O37 C31 1.268 . S
O38 Sc22 2.105 . S
O38 C30 1.268 . S
O39 Sc23 2.105 . S
O39 C29 1.268 . S
O40 Sc24 2.105 . S
O40 C31 1.268 . S
O41 Sc22 2.105 . S
O41 C27 1.268 . S
O42 Sc24 2.105 . S
O42 C26 1.268 . S
O43 Sc23 2.105 . S
O43 C28 1.268 . S
Sc44 O47 2.025 . S
Sc44 O54 2.105 . S
Sc44 O57 2.105 . S
Sc44 O60 2.105 . S
Sc44 O63 2.105 . S
Sc45 O47 2.025 . S
Sc45 O55 2.105 . S
Sc45 O59 2.105 . S
Sc45 O61 2.105 . S
Sc45 O65 2.105 . S
Sc46 O47 2.025 . S
Sc46 O56 2.105 . S
Sc46 O58 2.105 . S
Sc46 O62 2.105 . S
Sc46 O64 2.105 . S
O47 Sc44 2.025 . S
O47 Sc45 2.025 . S
O47 Sc46 2.025 . S
C48 O54 1.268 . S
C48 O64 1.268 . S
C49 O55 1.268 . S
C49 O63 1.268 . S
C50 O56 1.268 . S
C50 O65 1.268 . S
C51 O57 1.268 . S
C51 O61 1.268 . S
C52 O58 1.268 . S
C52 O60 1.268 . S
C53 O59 1.268 . S
C53 O62 1.268 . S
O54 Sc44 2.105 . S
O54 C48 1.268 . S
O55 Sc45 2.105 . S
O55 C49 1.268 . S
O56 Sc46 2.105 . S
O56 C50 1.268 . S
O57 Sc44 2.105 . S
O57 C51 1.268 . S
O58 Sc46 2.105 . S
O58 C52 1.268 . S
O59 Sc45 2.105 . S
O59 C53 1.268 . S
O60 Sc44 2.105 . S
O60 C52 1.268 . S
O61 Sc45 2.105 . S
O61 C51 1.268 . S
O62 Sc46 2.105 . S
O62 C53 1.268 . S
O63 Sc44 2.105 . S
O63 C49 1.268 . S
O64 Sc46 2.105 . S
O64 C48 1.268 . S
O65 Sc45 2.105 . S
O65 C50 1.268 . S
Sc66 O69 2.025 . S
Sc66 O76 2.105 . S
Sc66 O79 2.105 . S
Sc66 O82 2.105 . S
Sc66 O85 2.105 . S
Sc67 O69 2.025 . S
Sc67 O77 2.105 . S
Sc67 O81 2.105 . S
Sc67 O83 2.105 . S
Sc67 O87 2.105 . S
Sc68 O69 2.025 . S
Sc68 O78 2.105 . S
Sc68 O80 2.105 . S
Sc68 O84 2.105 . S
Sc68 O86 2.105 . S
O69 Sc66 2.025 . S
O69 Sc67 2.025 . S
O69 Sc68 2.025 . S
C70 O76 1.268 . S
C70 O86 1.268 . S
C71 O77 1.268 . S
C71 O85 1.268 . S
C72 O78 1.268 . S
C72 O87 1.268 . S
C73 O79 1.268 . S
C73 O83 1.268 . S
C74 O80 1.268 . S
C74 O82 1.268 . S
C75 O81 1.268 . S
C75 O84 1.268 . S
O76 Sc66 2.105 . S
O76 C70 1.268 . S
O77 Sc67 2.105 . S
O77 C71 1.268 . S
O78 Sc68 2.105 . S
O78 C72 1.268 . S
O79 Sc66 2.105 . S
O79 C73 1.268 . S
O80 Sc68 2.105 . S
O80 C74 1.268 . S
O81 Sc67 2.105 . S
O81 C75 1.268 . S
O82 Sc66 2.105 . S
O82 C74 1.268 . S
O83 Sc67 2.105 . S
O83 C73 1.268 . S
O84 Sc68 2.105 . S
O84 C75 1.268 . S
O85 Sc66 2.105 . S
O85 C71 1.268 . S
O86 Sc68 2.105 . S
O86 C70 1.268 . S
O87 Sc67 2.105 . S
O87 C72 1.268 . S
Sc88 O91 2.025 . S
Sc88 O98 2.105 . S
Sc88 O101 2.105 . S
Sc88 O104 2.105 . S
Sc88 O107 2.105 . S
Sc89 O91 2.025 . S
Sc89 O99 2.105 . S
Sc89 O103 2.105 . S
Sc89 O105 2.105 . S
Sc89 O109 2.105 . S
Sc90 O91 2.025 . S
Sc90 O100 2.105 . S
Sc90 O102 2.105 . S
Sc90 O106 2.105 . S
Sc90 O108 2.105 . S
O91 Sc88 2.025 . S
O91 Sc89 2.025 . S
O91 Sc90 2.025 . S
C92 O98 1.268 . S
C92 O108 1.268 . S
C93 O99 1.268 . S
C93 O107 1.268 . S
C94 O100 1.268 . S
C94 O109 1.268 . S
C95 O101 1.268 . S
C95 O105 1.268 . S
C96 O102 1.268 . S
C96 O104 1.268 . S
C97 O103 1.268 . S
C97 O106 1.268 . S
O98 Sc88 2.105 . S
O98 C92 1.268 . S
O99 Sc89 2.105 . S
O99 C93 1.268 . S
O100 Sc90 2.105 . S
O100 C94 1.268 . S
O101 Sc88 2.105 . S
O101 C95 1.268 . S
O102 Sc90 2.105 . S
O102 C96 1.268 . S
O103 Sc89 2.105 . S
O103 C97 1.268 . S
O104 Sc88 2.105 . S
O104 C96 1.268 . S
O105 Sc89 2.105 . S
O105 C95 1.268 . S
O106 Sc90 2.105 . S
O106 C97 1.268 . S
O107 Sc88 2.105 . S
O107 C93 1.268 . S
O108 Sc90 2.105 . S
O108 C92 1.268 . S
O109 Sc89 2.105 . S
O109 C94 1.268 . S
Sc110 O113 2.025 . S
Sc110 O120 2.105 . S
Sc110 O123 2.105 . S
Sc110 O126 2.105 . S
Sc110 O129 2.105 . S
Sc111 O113 2.025 . S
Sc111 O121 2.105 . S
Sc111 O125 2.105 . S
Sc111 O127 2.105 . S
Sc111 O131 2.105 . S
Sc112 O113 2.025 . S
Sc112 O122 2.105 . S
Sc112 O124 2.105 . S
Sc112 O128 2.105 . S
Sc112 O130 2.105 . S
O113 Sc110 2.025 . S
O113 Sc111 2.025 . S
O113 Sc112 2.025 . S
C114 O120 1.268 . S
C114 O130 1.268 . S
C115 O121 1.268 . S
C115 O129 1.268 . S
C116 O122 1.268 . S
C116 O131 1.268 . S
C117 O123 1.268 . S
C117 O127 1.268 . S
C118 O124 1.268 . S
C118 O126 1.268 . S
C119 O125 1.268 . S
C119 O128 1.268 . S
O120 Sc110 2.105 . S
O120 C114 1.268 . S
O121 Sc111 2.105 . S
O121 C115 1.268 . S
O122 Sc112 2.105 . S
O122 C116 1.268 . S
O123 Sc110 2.105 . S
O123 C117 1.268 . S
O124 Sc112 2.105 . S
O124 C118 1.268 . S
O125 Sc111 2.105 . S
O125 C119 1.268 . S
O126 Sc110 2.105 . S
O126 C118 1.268 . S
O127 Sc111 2.105 . S
O127 C117 1.268 . S
O128 Sc112 2.105 . S
O128 C119 1.268 . S
O129 Sc110 2.105 . S
O129 C115 1.268 . S
O130 Sc112 2.105 . S
O130 C114 1.268 . S
O131 Sc111 2.105 . S
O131 C116 1.268 . S
Sc132 O135 2.025 . S
Sc132 O142 2.105 . S
Sc132 O145 2.105 . S
Sc132 O148 2.105 . S
Sc132 O151 2.105 . S
Sc133 O135 2.025 . S
Sc133 O143 2.105 . S
Sc133 O147 2.105 . S
Sc133 O149 2.105 . S
Sc133 O153 2.105 . S
Sc134 O135 2.025 . S
Sc134 O144 2.105 . S
Sc134 O146 2.105 . S
Sc134 O150 2.105 . S
Sc134 O152 2.105 . S
O135 Sc132 2.025 . S
O135 Sc133 2.025 . S
O135 Sc134 2.025 . S
C136 O142 1.268 . S
C136 O152 1.268 . S
C137 O143 1.268 . S
C137 O151 1.268 . S
C138 O144 1.268 . S
C138 O153 1.268 . S
C139 O145 1.268 . S
C139 O149 1.268 . S
C140 O146 1.268 . S
C140 O148 1.268 . S
C141 O147 1.268 . S
C141 O150 1.268 . S
O142 Sc132 2.105 . S
O142 C136 1.268 . S
O143 Sc133 2.105 . S
O143 C137 1.268 . S
O144 Sc134 2.105 . S
O144 C138 1.268 . S
O145 Sc132 2.105 . S
O145 C139 1.268 . S
O146 Sc134 2.105 . S
O146 C140 1.268 . S
O147 Sc133 2.105 . S
O147 C141 1.268 . S
O148 Sc132 2.105 . S
O148 C140 1.268 . S
O149 Sc133 2.105 . S
O149 C139 1.268 . S
O150 Sc134 2.105 . S
O150 C141 1.268 . S
O151 Sc132 2.105 . S
O151 C137 1.268 . S
O152 Sc134 2.105 . S
O152 C136 1.268 . S
O153 Sc133 2.105 . S
O153 C138 1.268 . S
Sc154 O157 2.025 . S
Sc154 O164 2.105 . S
Sc154 O167 2.105 . S
Sc154 O170 2.105 . S
Sc154 O173 2.105 . S
Sc155 O157 2.025 . S
Sc155 O165 2.105 . S
Sc155 O169 2.105 . S
Sc155 O171 2.105 . S
Sc155 O175 2.105 . S
Sc156 O157 2.025 . S
Sc156 O166 2.105 . S
Sc156 O168 2.105 . S
Sc156 O172 2.105 . S
Sc156 O174 2.105 . S
O157 Sc154 2.025 . S
O157 Sc155 2.025 . S
O157 Sc156 2.025 . S
C158 O164 1.268 . S
C158 O174 1.268 . S
C159 O165 1.268 . S
C159 O173 1.268 . S
C160 O166 1.268 . S
C160 O175 1.268 . S
C161 O167 1.268 . S
C161 O171 1.268 . S
C162 O168 1.268 . S
C162 O170 1.268 . S
C163 O169 1.268 . S
C163 O172 1.268 . S
O164 Sc154 2.105 . S
O164 C158 1.268 . S
O165 Sc155 2.105 . S
O165 C159 1.268 . S
O166 Sc156 2.105 . S
O166 C160 1.268 . S
O167 Sc154 2.105 . S
O167 C161 1.268 . S
O168 Sc156 2.105 . S
O168 C162 1.268 . S
O169 Sc155 2.105 . S
O169 C163 1.268 . S
O170 Sc154 2.105 . S
O170 C162 1.268 . S
O171 Sc155 2.105 . S
O171 C161 1.268 . S
O172 Sc156 2.105 . S
O172 C163 1.268 . S
O173 Sc154 2.105 . S
O173 C159 1.268 . S
O174 Sc156 2.105 . S
O174 C158 1.268 . S
O175 Sc155 2.105 . S
O175 C160 1.268 . S
Sc176 O179 2.025 . S
Sc176 O186 2.105 . S
Sc176 O189 2.105 . S
Sc176 O192 2.105 . S
Sc176 O195 2.105 . S
Sc177 O179 2.025 . S
Sc177 O187 2.105 . S
Sc177 O191 2.105 . S
Sc177 O193 2.105 . S
Sc177 O197 2.105 . S
Sc178 O179 2.025 . S
Sc178 O188 2.105 . S
Sc178 O190 2.105 . S
Sc178 O194 2.105 . S
Sc178 O196 2.105 . S
O179 Sc176 2.025 . S
O179 Sc177 2.025 . S
O179 Sc178 2.025 . S
C180 O186 1.268 . S
C180 O196 1.268 . S
C181 O187 1.268 . S
C181 O195 1.268 . S
C182 O188 1.268 . S
C182 O197 1.268 . S
C183 O189 1.268 . S
C183 O193 1.268 . S
C184 O190 1.268 . S
C184 O192 1.268 . S
C185 O191 1.268 . S
C185 O194 1.268 . S
O186 Sc176 2.105 . S
O186 C180 1.268 . S
O187 Sc177 2.105 . S
O187 C181 1.268 . S
O188 Sc178 2.105 . S
O188 C182 1.268 . S
O189 Sc176 2.105 . S
O189 C183 1.268 . S
O190 Sc178 2.105 . S
O190 C184 1.268 . S
O191 Sc177 2.105 . S
O191 C185 1.268 . S
O192 Sc176 2.105 . S
O192 C184 1.268 . S
O193 Sc177 2.105 . S
O193 C183 1.268 . S
O194 Sc178 2.105 . S
O194 C185 1.268 . S
O195 Sc176 2.105 . S
O195 C181 1.268 . S
O196 Sc178 2.105 . S
O196 C180 1.268 . S
O197 Sc177 2.105 . S
O197 C182 1.268 . S
Sc198 O201 2.025 . S
Sc198 O208 2.105 . S
Sc198 O211 2.105 . S
Sc198 O214 2.105 . S
Sc198 O217 2.105 . S
Sc199 O201 2.025 . S
Sc199 O209 2.105 . S
Sc199 O213 2.105 . S
Sc199 O215 2.105 . S
Sc199 O219 2.105 . S
Sc200 O201 2.025 . S
Sc200 O210 2.105 . S
Sc200 O212 2.105 . S
Sc200 O216 2.105 . S
Sc200 O218 2.105 . S
O201 Sc198 2.025 . S
O201 Sc199 2.025 . S
O201 Sc200 2.025 . S
C202 O208 1.268 . S
C202 O218 1.268 . S
C203 O209 1.268 . S
C203 O217 1.268 . S
C204 O210 1.268 . S
C204 O219 1.268 . S
C205 O211 1.268 . S
C205 O215 1.268 . S
C206 O212 1.268 . S
C206 O214 1.268 . S
C207 O213 1.268 . S
C207 O216 1.268 . S
O208 Sc198 2.105 . S
O208 C202 1.268 . S
O209 Sc199 2.105 . S
O209 C203 1.268 . S
O210 Sc200 2.105 . S
O210 C204 1.268 . S
O211 Sc198 2.105 . S
O211 C205 1.268 . S
O212 Sc200 2.105 . S
O212 C206 1.268 . S
O213 Sc199 2.105 . S
O213 C207 1.268 . S
O214 Sc198 2.105 . S
O214 C206 1.268 . S
O215 Sc199 2.105 . S
O215 C205 1.268 . S
O216 Sc200 2.105 . S
O216 C207 1.268 . S
O217 Sc198 2.105 . S
O217 C203 1.268 . S
O218 Sc200 2.105 . S
O218 C202 1.268 . S
O219 Sc199 2.105 . S
O219 C204 1.268 . S
Sc220 O223 2.025 . S
Sc220 O230 2.105 . S
Sc220 O233 2.105 . S
Sc220 O236 2.105 . S
Sc220 O239 2.105 . S
Sc221 O223 2.025 . S
Sc221 O231 2.105 . S
Sc221 O235 2.105 . S
Sc221 O237 2.105 . S
Sc221 O241 2.105 . S
Sc222 O223 2.025 . S
Sc222 O232 2.105 . S
Sc222 O234 2.105 . S
Sc222 O238 2.105 . S
Sc222 O240 2.105 . S
O223 Sc220 2.025 . S
O223 Sc221 2.025 . S
O223 Sc222 2.025 . S
C224 O230 1.268 . S
C224 O240 1.268 . S
C225 O231 1.268 . S
C225 O239 1.268 . S
C226 O232 1.268 . S
C226 O241 1.268 . S
C227 O233 1.268 . S
C227 O237 1.268 . S
C228 O234 1.268 . S
C228 O236 1.268 . S
C229 O235 1.268 . S
C229 O238 1.268 . S
O230 Sc220 2.105 . S
O230 C224 1.268 . S
O231 Sc221 2.105 . S
O231 C225 1.268 . S
O232 Sc222 2.105 . S
O232 C226 1.268 . S
O233 Sc220 2.105 . S
O233 C227 1.268 . S
O234 Sc222 2.105 . S
O234 C228 1.268 . S
O235 Sc221 2.105 . S
O235 C229 1.268 . S
O236 Sc220 2.105 . S
O236 C228 1.268 . S
O237 Sc221 2.105 . S
O237 C227 1.268 . S
O238 Sc222 2.105 . S
O238 C229 1.268 . S
O239 Sc220 2.105 . S
O239 C225 1.268 . S
O240 Sc222 2.105 . S
O240 C224 1.268 . S
O241 Sc221 2.105 . S
O241 C226 1.268 . S
Sc242 O245 2.025 . S
Sc242 O252 2.105 . S
Sc242 O255 2.105 . S
Sc242 O258 2.105 . S
Sc242 O261 2.105 . S
Sc243 O245 2.025 . S
Sc243 O253 2.105 . S
Sc243 O257 2.105 . S
Sc243 O259 2.105 . S
Sc243 O263 2.105 . S
Sc244 O245 2.025 . S
Sc244 O254 2.105 . S
Sc244 O256 2.105 . S
Sc244 O260 2.105 . S
Sc244 O262 2.105 . S
O245 Sc242 2.025 . S
O245 Sc243 2.025 . S
O245 Sc244 2.025 . S
C246 O252 1.268 . S
C246 O262 1.268 . S
C247 O253 1.268 . S
C247 O261 1.268 . S
C248 O254 1.268 . S
C248 O263 1.268 . S
C249 O255 1.268 . S
C249 O259 1.268 . S
C250 O256 1.268 . S
C250 O258 1.268 . S
C251 O257 1.268 . S
C251 O260 1.268 . S
O252 Sc242 2.105 . S
O252 C246 1.268 . S
O253 Sc243 2.105 . S
O253 C247 1.268 . S
O254 Sc244 2.105 . S
O254 C248 1.268 . S
O255 Sc242 2.105 . S
O255 C249 1.268 . S
O256 Sc244 2.105 . S
O256 C250 1.268 . S
O257 Sc243 2.105 . S
O257 C251 1.268 . S
O258 Sc242 2.105 . S
O258 C250 1.268 . S
O259 Sc243 2.105 . S
O259 C249 1.268 . S
O260 Sc244 2.105 . S
O260 C251 1.268 . S
O261 Sc242 2.105 . S
O261 C247 1.268 . S
O262 Sc244 2.105 . S
O262 C246 1.268 . S
O263 Sc243 2.105 . S
O263 C248 1.268 . S
Sc264 O267 2.025 . S
Sc264 O274 2.105 . S
Sc264 O277 2.105 . S
Sc264 O280 2.105 . S
Sc264 O283 2.105 . S
Sc265 O267 2.025 . S
Sc265 O275 2.105 . S
Sc265 O279 2.105 . S
Sc265 O281 2.105 . S
Sc265 O285 2.105 . S
Sc266 O267 2.025 . S
Sc266 O276 2.105 . S
Sc266 O278 2.105 . S
Sc266 O282 2.105 . S
Sc266 O284 2.105 . S
O267 Sc264 2.025 . S
O267 Sc265 2.025 . S
O267 Sc266 2.025 . S
C268 O274 1.268 . S
C268 O284 1.268 . S
C269 O275 1.268 . S
C269 O283 1.268 . S
C270 O276 1.268 . S
C270 O285 1.268 . S
C271 O277 1.268 . S
C271 O281 1.268 . S
C272 O278 1.268 . S
C272 O280 1.268 . S
C273 O279 1.268 . S
C273 O282 1.268 . S
O274 Sc264 2.105 . S
O274 C268 1.268 . S
O275 Sc265 2.105 . S
O275 C269 1.268 . S
O276 Sc266 2.105 . S
O276 C270 1.268 . S
O277 Sc264 2.105 . S
O277 C271 1.268 . S
O278 Sc266 2.105 . S
O278 C272 1.268 . S
O279 Sc265 2.105 . S
O279 C273 1.268 . S
O280 Sc264 2.105 . S
O280 C272 1.268 . S
O281 Sc265 2.105 . S
O281 C271 1.268 . S
O282 Sc266 2.105 . S
O282 C273 1.268 . S
O283 Sc264 2.105 . S
O283 C269 1.268 . S
O284 Sc266 2.105 . S
O284 C268 1.268 . S
O285 Sc265 2.105 . S
O285 C270 1.268 . S
Sc286 O289 2.025 . S
Sc286 O296 2.105 . S
Sc286 O299 2.105 . S
Sc286 O302 2.105 . S
Sc286 O305 2.105 . S
Sc287 O289 2.025 . S
Sc287 O297 2.105 . S
Sc287 O301 2.105 . S
Sc287 O303 2.105 . S
Sc287 O307 2.105 . S
Sc288 O289 2.025 . S
Sc288 O298 2.105 . S
Sc288 O300 2.105 . S
Sc288 O304 2.105 . S
Sc288 O306 2.105 . S
O289 Sc286 2.025 . S
O289 Sc287 2.025 . S
O289 Sc288 2.025 . S
C290 O296 1.268 . S
C290 O306 1.268 . S
C291 O297 1.268 . S
C291 O305 1.268 . S
C292 O298 1.268 . S
C292 O307 1.268 . S
C293 O299 1.268 . S
C293 O303 1.268 . S
C294 O300 1.268 . S
C294 O302 1.268 . S
C295 O301 1.268 . S
C295 O304 1.268 . S
O296 Sc286 2.105 . S
O296 C290 1.268 . S
O297 Sc287 2.105 . S
O297 C291 1.268 . S
O298 Sc288 2.105 . S
O298 C292 1.268 . S
O299 Sc286 2.105 . S
O299 C293 1.268 . S
O300 Sc288 2.105 . S
O300 C294 1.268 . S
O301 Sc287 2.105 . S
O301 C295 1.268 . S
O302 Sc286 2.105 . S
O302 C294 1.268 . S
O303 Sc287 2.105 . S
O303 C293 1.268 . S
O304 Sc288 2.105 . S
O304 C295 1.268 . S
O305 Sc286 2.105 . S
O305 C291 1.268 . S
O306 Sc288 2.105 . S
O306 C290 1.268 . S
O307 Sc287 2.105 . S
O307 C292 1.268 . S
Sc308 O311 2.025 . S
Sc308 O318 2.105 . S
Sc308 O321 2.105 . S
Sc308 O324 2.105 . S
Sc308 O327 2.105 . S
Sc309 O311 2.025 . S
Sc309 O319 2.105 . S
Sc309 O323 2.105 . S
Sc309 O325 2.105 . S
Sc309 O329 2.105 . S
Sc310 O311 2.025 . S
Sc310 O320 2.105 . S
Sc310 O322 2.105 . S
Sc310 O326 2.105 . S
Sc310 O328 2.105 . S
O311 Sc308 2.025 . S
O311 Sc309 2.025 . S
O311 Sc310 2.025 . S
C312 O318 1.268 . S
C312 O328 1.268 . S
C313 O319 1.268 . S
C313 O327 1.268 . S
C314 O320 1.268 . S
C314 O329 1.268 . S
C315 O321 1.268 . S
C315 O325 1.268 . S
C316 O322 1.268 . S
C316 O324 1.268 . S
C317 O323 1.268 . S
C317 O326 1.268 . S
O318 Sc308 2.105 . S
O318 C312 1.268 . S
O319 Sc309 2.105 . S
O319 C313 1.268 . S
O320 Sc310 2.105 . S
O320 C314 1.268 . S
O321 Sc308 2.105 . S
O321 C315 1.268 . S
O322 Sc310 2.105 . S
O322 C316 1.268 . S
O323 Sc309 2.105 . S
O323 C317 1.268 . S
O324 Sc308 2.105 . S
O324 C316 1.268 . S
O325 Sc309 2.105 . S
O325 C315 1.268 . S
O326 Sc310 2.105 . S
O326 C317 1.268 . S
O327 Sc308 2.105 . S
O327 C313 1.268 . S
O328 Sc310 2.105 . S
O328 C312 1.268 . S
O329 Sc309 2.105 . S
O329 C314 1.268 . S
Sc330 O333 2.025 . S
Sc330 O340 2.105 . S
Sc330 O343 2.105 . S
Sc330 O346 2.105 . S
Sc330 O349 2.105 . S
Sc331 O333 2.025 . S
Sc331 O341 2.105 . S
Sc331 O345 2.105 . S
Sc331 O347 2.105 . S
Sc331 O351 2.105 . S
Sc332 O333 2.025 . S
Sc332 O342 2.105 . S
Sc332 O344 2.105 . S
Sc332 O348 2.105 . S
Sc332 O350 2.105 . S
O333 Sc330 2.025 . S
O333 Sc331 2.025 . S
O333 Sc332 2.025 . S
C334 O340 1.268 . S
C334 O350 1.268 . S
C335 O341 1.268 . S
C335 O349 1.268 . S
C336 O342 1.268 . S
C336 O351 1.268 . S
C337 O343 1.268 . S
C337 O347 1.268 . S
C338 O344 1.268 . S
C338 O346 1.268 . S
C339 O345 1.268 . S
C339 O348 1.268 . S
O340 Sc330 2.105 . S
O340 C334 1.268 . S
O341 Sc331 2.105 . S
O341 C335 1.268 . S
O342 Sc332 2.105 . S
O342 C336 1.268 . S
O343 Sc330 2.105 . S
O343 C337 1.268 . S
O344 Sc332 2.105 . S
O344 C338 1.268 . S
O345 Sc331 2.105 . S
O345 C339 1.268 . S
O346 Sc330 2.105 . S
O346 C338 1.268 . S
O347 Sc331 2.105 . S
O347 C337 1.268 . S
O348 Sc332 2.105 . S
O348 C339 1.268 . S
O349 Sc330 2.105 . S
O349 C335 1.268 . S
O350 Sc332 2.105 . S
O350 C334 1.268 . S
O351 Sc331 2.105 . S
O351 C336 1.268 . S
H352 C358 0.930 . S
H353 C362 0.931 1_554 S
H354 C367 0.929 . S
H355 C365 0.929 . S
H356 C360 0.929 . S
H357 C366 0.929 . S
C358 H352 0.930 . S
C358 C359 1.367 . S
C358 C366 1.378 . S
C359 C358 1.367 . S
C359 C367 1.433 . S
C360 H356 0.929 . S
C360 C362 1.380 1_554 S
C360 C364 1.350 1_565 S
C361 C364 1.463 . S
C361 C366 1.350 . S
C361 N369 1.427 . S
C362 H353 0.931 1_556 S
C362 C360 1.380 1_556 S
C362 C363 1.364 . S
C363 C362 1.364 . S
C363 C365 1.433 . S
C364 C360 1.350 1_545 S
C364 C361 1.463 . S
C364 N368 1.427 1_554 S
C365 H355 0.929 . S
C365 C363 1.433 . S
C365 N368 1.384 1_565 S
C366 H357 0.929 . S
C366 C358 1.378 . S
C366 C361 1.350 . S
C367 H354 0.929 . S
C367 C359 1.433 . S
C367 N369 1.384 . S
N368 C364 1.427 1_556 S
N368 C365 1.384 1_545 S
N369 C361 1.427 . S
N369 C367 1.384 . S
H370 C376 0.930 . S
H371 C380 0.930 . S
H372 C385 0.929 . S
H373 C383 0.929 . S
H374 C378 0.929 1_556 S
H375 C384 0.929 . S
C376 H370 0.930 . S
C376 C377 1.367 1_554 S
C376 C384 1.378 . S
C377 C376 1.367 1_556 S
C377 C385 1.433 . S
C378 H374 0.929 1_554 S
C378 C380 1.378 . S
C378 C382 1.350 . S
C379 C382 1.463 . S
C379 C384 1.350 1_565 S
C379 N387 1.427 1_554 S
C380 H371 0.930 . S
C380 C378 1.378 . S
C380 C381 1.367 . S
C381 C380 1.367 . S
C381 C383 1.433 . S
C382 C378 1.350 . S
C382 C379 1.463 . S
C382 N386 1.427 . S
C383 H373 0.929 . S
C383 C381 1.433 . S
C383 N386 1.384 . S
C384 H375 0.929 . S
C384 C376 1.378 . S
C384 C379 1.350 1_545 S
C385 H372 0.929 . S
C385 C377 1.433 . S
C385 N387 1.384 1_545 S
N386 C382 1.427 . S
N386 C383 1.384 . S
N387 C379 1.427 1_556 S
N387 C385 1.384 1_565 S
H388 C394 0.930 . S
H389 C398 0.930 . S
H390 C403 0.929 . S
H391 C401 0.929 . S
H392 C396 0.929 . S
H393 C402 0.929 . S
C394 H388 0.930 . S
C394 C395 1.367 . S
C394 C402 1.378 1_545 S
C395 C394 1.367 . S
C395 C403 1.433 . S
C396 H392 0.929 . S
C396 C398 1.378 . S
C396 C400 1.350 . S
C397 C400 1.463 . S
C397 C402 1.350 . S
C397 N405 1.427 1_565 S
C398 H389 0.930 . S
C398 C396 1.378 . S
C398 C399 1.367 . S
C399 C398 1.367 . S
C399 C401 1.433 . S
C400 C396 1.350 . S
C400 C397 1.463 . S
C400 N404 1.427 . S
C401 H391 0.929 . S
C401 C399 1.433 . S
C401 N404 1.384 . S
C402 H393 0.929 . S
C402 C394 1.378 1_565 S
C402 C397 1.350 . S
C403 H390 0.929 . S
C403 C395 1.433 . S
C403 N405 1.384 . S
N404 C400 1.427 . S
N404 C401 1.384 . S
N405 C397 1.427 1_545 S
N405 C403 1.384 . S
H406 C412 0.930 . S
H407 C416 0.930 . S
H408 C421 0.929 . S
H409 C419 0.929 . S
H410 C414 0.929 . S
H411 C420 0.929 . S
C412 H406 0.930 . S
C412 C413 1.367 . S
C412 C420 1.378 . S
C413 C412 1.367 . S
C413 C421 1.433 . S
C414 H410 0.929 . S
C414 C416 1.378 . S
C414 C418 1.350 . S
C415 C418 1.463 . S
C415 C420 1.350 1_545 S
C415 N423 1.427 . S
C416 H407 0.930 . S
C416 C414 1.378 . S
C416 C417 1.367 . S
C417 C416 1.367 . S
C417 C419 1.433 . S
C418 C414 1.350 . S
C418 C415 1.463 . S
C418 N422 1.427 . S
C419 H409 0.929 . S
C419 C417 1.433 . S
C419 N422 1.384 . S
C420 H411 0.929 . S
C420 C412 1.378 . S
C420 C415 1.350 1_565 S
C421 H408 0.929 . S
C421 C413 1.433 . S
C421 N423 1.384 1_565 S
N422 C418 1.427 . S
N422 C419 1.384 . S
N423 C415 1.427 . S
N423 C421 1.384 1_545 S
H424 C430 0.930 . S
H425 C434 0.930 . S
H426 C439 0.929 . S
H427 C437 0.929 . S
H428 C432 0.929 . S
H429 C438 0.929 . S
C430 H424 0.930 . S
C430 C431 1.367 . S
C430 C438 1.378 1_545 S
C431 C430 1.367 . S
C431 C439 1.433 1_554 S
C432 H428 0.929 . S
C432 C434 1.378 . S
C432 C436 1.350 . S
C433 C436 1.463 . S
C433 C438 1.350 1_556 S
C433 N441 1.427 1_565 S
C434 H425 0.930 . S
C434 C432 1.378 . S
C434 C435 1.367 . S
C435 C434 1.367 . S
C435 C437 1.433 . S
C436 C432 1.350 . S
C436 C433 1.463 . S
C436 N440 1.427 . S
C437 H427 0.929 . S
C437 C435 1.433 . S
C437 N440 1.384 . S
C438 H429 0.929 . S
C438 C430 1.378 1_565 S
C438 C433 1.350 1_554 S
C439 H426 0.929 . S
C439 C431 1.433 1_556 S
C439 N441 1.384 . S
N440 C436 1.427 . S
N440 C437 1.384 . S
N441 C433 1.427 1_545 S
N441 C439 1.384 . S
H442 C448 0.930 . S
H443 C452 0.930 . S
H444 C457 0.929 . S
H445 C455 0.929 . S
H446 C450 0.929 . S
H447 C456 0.929 . S
C448 H442 0.930 . S
C448 C449 1.367 . S
C448 C456 1.378 . S
C449 C448 1.367 . S
C449 C457 1.433 . S
C450 H446 0.929 . S
C450 C452 1.378 1_545 S
C450 C454 1.350 1_554 S
C451 C454 1.463 . S
C451 C456 1.350 . S
C451 N459 1.427 . S
C452 H443 0.930 . S
C452 C450 1.378 1_565 S
C452 C453 1.367 . S
C453 C452 1.367 . S
C453 C455 1.433 1_554 S
C454 C450 1.350 1_556 S
C454 C451 1.463 . S
C454 N458 1.427 1_545 S
C455 H445 0.929 . S
C455 C453 1.433 1_556 S
C455 N458 1.384 . S
C456 H447 0.929 . S
C456 C448 1.378 . S
C456 C451 1.350 . S
C457 H444 0.929 . S
C457 C449 1.433 . S
C457 N459 1.384 . S
N458 C454 1.427 1_565 S
N458 C455 1.384 . S
N459 C451 1.427 . S
N459 C457 1.384 . S
H460 C466 0.930 . S
H461 C470 0.930 . S
H462 C475 0.929 . S
H463 C473 0.929 . S
H464 C468 0.929 . S
H465 C474 0.929 . S
C466 H460 0.930 . S
C466 C467 1.367 . S
C466 C474 1.378 . S
C467 C466 1.367 . S
C467 C475 1.433 . S
C468 H464 0.929 . S
C468 C470 1.378 . S
C468 C472 1.350 . S
C469 C472 1.463 . S
C469 C474 1.350 1_545 S
C469 N477 1.427 . S
C470 H461 0.930 . S
C470 C468 1.378 . S
C470 C471 1.367 . S
C471 C470 1.367 . S
C471 C473 1.433 . S
C472 C468 1.350 . S
C472 C469 1.463 . S
C472 N476 1.427 . S
C473 H463 0.929 . S
C473 C471 1.433 . S
C473 N476 1.384 . S
C474 H465 0.929 . S
C474 C466 1.378 . S
C474 C469 1.350 1_565 S
C475 H462 0.929 . S
C475 C467 1.433 . S
C475 N477 1.384 1_565 S
N476 C472 1.427 . S
N476 C473 1.384 . S
N477 C469 1.427 . S
N477 C475 1.384 1_545 S
H478 C484 0.930 . S
H479 C488 0.930 . S
H480 C493 0.929 . S
H481 C491 0.929 . S
H482 C486 0.929 . S
H483 C492 0.929 . S
C484 H478 0.930 . S
C484 C485 1.367 . S
C484 C492 1.378 . S
C485 C484 1.367 . S
C485 C493 1.433 . S
C486 H482 0.929 . S
C486 C488 1.378 1_565 S
C486 C490 1.350 . S
C487 C490 1.463 . S
C487 C492 1.350 . S
C487 N495 1.427 . S
C488 H479 0.930 . S
C488 C486 1.378 1_545 S
C488 C489 1.367 . S
C489 C488 1.367 . S
C489 C491 1.433 . S
C490 C486 1.350 . S
C490 C487 1.463 . S
C490 N494 1.427 1_565 S
C491 H481 0.929 . S
C491 C489 1.433 . S
C491 N494 1.384 . S
C492 H483 0.929 . S
C492 C484 1.378 . S
C492 C487 1.350 . S
C493 H480 0.929 . S
C493 C485 1.433 . S
C493 N495 1.384 . S
N494 C490 1.427 1_545 S
N494 C491 1.384 . S
N495 C487 1.427 . S
N495 C493 1.384 . S
H496 C502 0.930 . S
H497 C506 0.930 . S
H498 C511 0.929 . S
H499 C509 0.929 . S
H500 C504 0.929 1_556 S
H501 C510 0.929 . S
C502 H496 0.930 . S
C502 C503 1.367 1_554 S
C502 C510 1.378 . S
C503 C502 1.367 1_556 S
C503 C511 1.433 . S
C504 H500 0.929 1_554 S
C504 C506 1.378 . S
C504 C508 1.350 . S
C505 C508 1.463 . S
C505 C510 1.350 . S
C505 N513 1.427 1_554 S
C506 H497 0.930 . S
C506 C504 1.378 . S
C506 C507 1.367 . S
C507 C506 1.367 . S
C507 C509 1.433 . S
C508 C504 1.350 . S
C508 C505 1.463 . S
C508 N512 1.427 . S
C509 H499 0.929 . S
C509 C507 1.433 . S
C509 N512 1.384 . S
C510 H501 0.929 . S
C510 C502 1.378 . S
C510 C505 1.350 . S
C511 H498 0.929 . S
C511 C503 1.433 . S
C511 N513 1.384 . S
N512 C508 1.427 . S
N512 C509 1.384 . S
N513 C505 1.427 1_556 S
N513 C511 1.384 . S
H514 C520 0.930 . S
H515 C524 0.930 . S
H516 C529 0.929 . S
H517 C527 0.929 . S
H518 C522 0.929 . S
H519 C528 0.929 1_556 S
C520 H514 0.930 . S
C520 C521 1.367 . S
C520 C528 1.378 . S
C521 C520 1.367 . S
C521 C529 1.433 . S
C522 H518 0.929 . S
C522 C524 1.378 . S
C522 C526 1.350 . S
C523 C526 1.463 . S
C523 C528 1.350 . S
C523 N531 1.427 . S
C524 H515 0.930 . S
C524 C522 1.378 . S
C524 C525 1.367 1_554 S
C525 C524 1.367 1_556 S
C525 C527 1.433 . S
C526 C522 1.350 . S
C526 C523 1.463 . S
C526 N530 1.427 1_554 S
C527 H517 0.929 . S
C527 C525 1.433 . S
C527 N530 1.384 . S
C528 H519 0.929 1_554 S
C528 C520 1.378 . S
C528 C523 1.350 . S
C529 H516 0.929 . S
C529 C521 1.433 . S
C529 N531 1.384 . S
N530 C526 1.427 1_556 S
N530 C527 1.384 . S
N531 C523 1.427 . S
N531 C529 1.384 . S
H532 C538 0.930 . S
H533 C542 0.930 . S
H534 C547 0.929 . S
H535 C545 0.929 . S
H536 C540 0.929 . S
H537 C546 0.929 . S
C538 H532 0.930 . S
C538 C539 1.367 . S
C538 C546 1.378 . S
C539 C538 1.367 . S
C539 C547 1.433 . S
C540 H536 0.929 . S
C540 C542 1.378 . S
C540 C544 1.350 . S
C541 C544 1.463 . S
C541 C546 1.350 . S
C541 N549 1.427 . S
C542 H533 0.930 . S
C542 C540 1.378 . S
C542 C543 1.367 . S
C543 C542 1.367 . S
C543 C545 1.433 . S
C544 C540 1.350 . S
C544 C541 1.463 . S
C544 N548 1.427 . S
C545 H535 0.929 . S
C545 C543 1.433 . S
C545 N548 1.384 . S
C546 H537 0.929 . S
C546 C538 1.378 . S
C546 C541 1.350 . S
C547 H534 0.929 . S
C547 C539 1.433 . S
C547 N549 1.384 . S
N548 C544 1.427 . S
N548 C545 1.384 . S
N549 C541 1.427 . S
N549 C547 1.384 . S
H550 C556 0.930 . S
H551 C560 0.930 . S
H552 C565 0.929 . S
H553 C563 0.929 . S
H554 C558 0.929 . S
H555 C564 0.929 . S
C556 H550 0.930 . S
C556 C557 1.367 . S
C556 C564 1.378 . S
C557 C556 1.367 . S
C557 C565 1.433 . S
C558 H554 0.929 . S
C558 C560 1.378 . S
C558 C562 1.350 . S
C559 C562 1.463 . S
C559 C564 1.350 . S
C559 N567 1.427 . S
C560 H551 0.930 . S
C560 C558 1.378 . S
C560 C561 1.367 . S
C561 C560 1.367 . S
C561 C563 1.433 . S
C562 C558 1.350 . S
C562 C559 1.463 . S
C562 N566 1.427 . S
C563 H553 0.929 . S
C563 C561 1.433 . S
C563 N566 1.384 . S
C564 H555 0.929 . S
C564 C556 1.378 . S
C564 C559 1.350 . S
C565 H552 0.929 . S
C565 C557 1.433 . S
C565 N567 1.384 . S
N566 C562 1.427 . S
N566 C563 1.384 . S
N567 C559 1.427 . S
N567 C565 1.384 . S
H568 C574 0.930 . S
H569 C578 0.930 . S
H570 C583 0.929 . S
H571 C581 0.929 . S
H572 C576 0.929 . S
H573 C582 0.929 . S
C574 H568 0.930 . S
C574 C575 1.367 . S
C574 C582 1.378 . S
C575 C574 1.367 . S
C575 C583 1.433 . S
C576 H572 0.929 . S
C576 C578 1.378 1_556 S
C576 C580 1.350 . S
C577 C580 1.463 . S
C577 C582 1.350 . S
C577 N585 1.427 . S
C578 H569 0.930 . S
C578 C576 1.378 1_554 S
C578 C579 1.367 . S
C579 C578 1.367 . S
C579 C581 1.433 . S
C580 C576 1.350 . S
C580 C577 1.463 . S
C580 N584 1.432 . S
C581 H571 0.929 . S
C581 C579 1.433 . S
C581 N584 1.375 1_554 S
C582 H573 0.929 . S
C582 C574 1.378 . S
C582 C577 1.350 . S
C583 H570 0.929 . S
C583 C575 1.433 . S
C583 N585 1.384 . S
N584 C580 1.432 . S
N584 C581 1.375 1_556 S
N585 C577 1.427 . S
N585 C583 1.384 . S
H586 C592 0.930 . S
H587 C596 0.930 . S
H588 C601 0.929 . S
H589 C599 0.929 . S
H590 C594 0.929 . S
H591 C600 0.929 . S
C592 H586 0.930 . S
C592 C593 1.367 . S
C592 C600 1.378 . S
C593 C592 1.367 . S
C593 C601 1.433 1_554 S
C594 H590 0.929 . S
C594 C596 1.378 . S
C594 C598 1.350 . S
C595 C598 1.463 . S
C595 C600 1.350 1_556 S
C595 N603 1.427 . S
C596 H587 0.930 . S
C596 C594 1.378 . S
C596 C597 1.367 . S
C597 C596 1.367 . S
C597 C599 1.433 . S
C598 C594 1.350 . S
C598 C595 1.463 . S
C598 N602 1.427 . S
C599 H589 0.929 . S
C599 C597 1.433 . S
C599 N602 1.384 . S
C600 H591 0.929 . S
C600 C592 1.378 . S
C600 C595 1.350 1_554 S
C601 H588 0.929 . S
C601 C593 1.433 1_556 S
C601 N603 1.384 . S
N602 C598 1.427 . S
N602 C599 1.384 . S
N603 C595 1.427 . S
N603 C601 1.384 . S
H604 C610 0.930 . S
H605 C614 0.930 . S
H606 C619 0.929 . S
H607 C617 0.929 . S
H608 C612 0.929 . S
H609 C618 0.929 . S
C610 H604 0.930 . S
C610 C611 1.367 . S
C610 C618 1.378 . S
C611 C610 1.367 . S
C611 C619 1.433 . S
C612 H608 0.929 . S
C612 C614 1.378 . S
C612 C616 1.350 . S
C613 C616 1.463 . S
C613 C618 1.350 . S
C613 N621 1.427 . S
C614 H605 0.930 . S
C614 C612 1.378 . S
C614 C615 1.367 . S
C615 C614 1.367 . S
C615 C617 1.433 . S
C616 C612 1.350 . S
C616 C613 1.463 . S
C616 N620 1.427 . S
C617 H607 0.929 . S
C617 C615 1.433 . S
C617 N620 1.384 . S
C618 H609 0.929 . S
C618 C610 1.378 . S
C618 C613 1.350 . S
C619 H606 0.929 . S
C619 C611 1.433 . S
C619 N621 1.384 . S
N620 C616 1.427 . S
N620 C617 1.384 . S
N621 C613 1.427 . S
N621 C619 1.384 . S
H622 C628 0.930 . S
H623 C632 0.930 . S
H624 C637 0.929 . S
H625 C635 0.929 . S
H626 C630 0.929 . S
H627 C636 0.929 . S
C628 H622 0.930 . S
C628 C629 1.367 . S
C628 C636 1.378 . S
C629 C628 1.367 . S
C629 C637 1.433 . S
C630 H626 0.929 . S
C630 C632 1.378 . S
C630 C634 1.350 . S
C631 C634 1.463 . S
C631 C636 1.350 . S
C631 N639 1.427 . S
C632 H623 0.930 . S
C632 C630 1.378 . S
C632 C633 1.367 . S
C633 C632 1.367 . S
C633 C635 1.433 . S
C634 C630 1.350 . S
C634 C631 1.463 . S
C634 N638 1.427 . S
C635 H625 0.929 . S
C635 C633 1.433 . S
C635 N638 1.384 . S
C636 H627 0.929 . S
C636 C628 1.378 . S
C636 C631 1.350 . S
C637 H624 0.929 . S
C637 C629 1.433 . S
C637 N639 1.384 . S
N638 C634 1.427 . S
N638 C635 1.384 . S
N639 C631 1.427 . S
N639 C637 1.384 . S
H640 C646 0.930 . S
H641 C650 0.930 . S
H642 C655 0.929 . S
H643 C653 0.929 . S
H644 C648 0.929 . S
H645 C654 0.929 . S
C646 H640 0.930 . S
C646 C647 1.367 . S
C646 C654 1.378 . S
C647 C646 1.367 . S
C647 C655 1.433 . S
C648 H644 0.929 . S
C648 C650 1.378 . S
C648 C652 1.350 . S
C649 C652 1.463 . S
C649 C654 1.350 . S
C649 N657 1.427 . S
C650 H641 0.930 . S
C650 C648 1.378 . S
C650 C651 1.367 . S
C651 C650 1.367 . S
C651 C653 1.433 . S
C652 C648 1.350 . S
C652 C649 1.463 . S
C652 N656 1.427 . S
C653 H643 0.929 . S
C653 C651 1.433 . S
C653 N656 1.384 . S
C654 H645 0.929 . S
C654 C646 1.378 . S
C654 C649 1.350 . S
C655 H642 0.929 . S
C655 C647 1.433 . S
C655 N657 1.384 . S
N656 C652 1.427 . S
N656 C653 1.384 . S
N657 C649 1.427 . S
N657 C655 1.384 . S
H658 C664 0.930 . S
H659 C668 0.930 . S
H660 C673 0.929 . S
H661 C671 0.929 . S
H662 C666 0.929 . S
H663 C672 0.929 . S
C664 H658 0.930 . S
C664 C665 1.367 . S
C664 C672 1.378 . S
C665 C664 1.367 . S
C665 C673 1.433 . S
C666 H662 0.929 . S
C666 C668 1.378 . S
C666 C670 1.350 . S
C667 C670 1.463 . S
C667 C672 1.350 . S
C667 N675 1.427 . S
C668 H659 0.930 . S
C668 C666 1.378 . S
C668 C669 1.367 . S
C669 C668 1.367 . S
C669 C671 1.433 . S
C670 C666 1.350 . S
C670 C667 1.463 . S
C670 N674 1.427 . S
C671 H661 0.929 . S
C671 C669 1.433 . S
C671 N674 1.384 . S
C672 H663 0.929 . S
C672 C664 1.378 . S
C672 C667 1.350 . S
C673 H660 0.929 . S
C673 C665 1.433 . S
C673 N675 1.384 . S
N674 C670 1.427 . S
N674 C671 1.384 . S
N675 C667 1.427 . S
N675 C673 1.384 . S
H676 C682 0.930 . S
H677 C686 0.930 . S
H678 C691 0.929 . S
H679 C689 0.929 . S
H680 C684 0.929 . S
H681 C690 0.929 . S
C682 H676 0.930 . S
C682 C683 1.367 . S
C682 C690 1.378 . S
C683 C682 1.367 . S
C683 C691 1.433 . S
C684 H680 0.929 . S
C684 C686 1.378 . S
C684 C688 1.350 . S
C685 C688 1.463 . S
C685 C690 1.350 . S
C685 N693 1.427 . S
C686 H677 0.930 . S
C686 C684 1.378 . S
C686 C687 1.367 . S
C687 C686 1.367 . S
C687 C689 1.433 . S
C688 C684 1.350 . S
C688 C685 1.463 . S
C688 N692 1.427 . S
C689 H679 0.929 . S
C689 C687 1.433 . S
C689 N692 1.384 . S
C690 H681 0.929 . S
C690 C682 1.378 . S
C690 C685 1.350 . S
C691 H678 0.929 . S
C691 C683 1.433 . S
C691 N693 1.384 . S
N692 C688 1.427 . S
N692 C689 1.384 . S
N693 C685 1.427 . S
N693 C691 1.384 . S
H694 C700 0.930 . S
H695 C704 0.930 . S
H696 C709 0.929 . S
H697 C707 0.929 . S
H698 C702 0.929 . S
H699 C708 0.929 . S
C700 H694 0.930 . S
C700 C701 1.367 . S
C700 C708 1.378 . S
C701 C700 1.367 . S
C701 C709 1.433 . S
C702 H698 0.929 . S
C702 C704 1.378 . S
C702 C706 1.350 . S
C703 C706 1.463 . S
C703 C708 1.350 . S
C703 N711 1.427 . S
C704 H695 0.930 . S
C704 C702 1.378 . S
C704 C705 1.367 . S
C705 C704 1.367 . S
C705 C707 1.433 . S
C706 C702 1.350 . S
C706 C703 1.463 . S
C706 N710 1.427 . S
C707 H697 0.929 . S
C707 C705 1.433 . S
C707 N710 1.384 . S
C708 H699 0.929 . S
C708 C700 1.378 . S
C708 C703 1.350 . S
C709 H696 0.929 . S
C709 C701 1.433 . S
C709 N711 1.384 . S
N710 C706 1.427 . S
N710 C707 1.384 . S
N711 C703 1.427 . S
N711 C709 1.384 . S
H712 C718 0.930 . S
H713 C722 0.930 . S
H714 C727 0.929 . S
H715 C725 0.929 . S
H716 C720 0.929 . S
H717 C726 0.929 . S
C718 H712 0.930 . S
C718 C719 1.367 . S
C718 C726 1.378 . S
C719 C718 1.367 . S
C719 C727 1.433 . S
C720 H716 0.929 . S
C720 C722 1.378 . S
C720 C724 1.350 . S
C721 C724 1.463 . S
C721 C726 1.350 . S
C721 N729 1.427 . S
C722 H713 0.930 . S
C722 C720 1.378 . S
C722 C723 1.367 . S
C723 C722 1.367 . S
C723 C725 1.433 . S
C724 C720 1.350 . S
C724 C721 1.463 . S
C724 N728 1.427 . S
C725 H715 0.929 . S
C725 C723 1.433 . S
C725 N728 1.384 . S
C726 H717 0.929 . S
C726 C718 1.378 . S
C726 C721 1.350 . S
C727 H714 0.929 . S
C727 C719 1.433 . S
C727 N729 1.384 . S
N728 C724 1.427 . S
N728 C725 1.384 . S
N729 C721 1.427 . S
N729 C727 1.384 . S
H730 C736 0.930 . S
H731 C740 0.930 . S
H732 C745 0.929 . S
H733 C743 0.929 . S
H734 C738 0.929 . S
H735 C744 0.929 . S
C736 H730 0.930 . S
C736 C737 1.367 . S
C736 C744 1.378 . S
C737 C736 1.367 . S
C737 C745 1.433 . S
C738 H734 0.929 . S
C738 C740 1.378 . S
C738 C742 1.350 . S
C739 C742 1.463 . S
C739 C744 1.350 . S
C739 N747 1.427 . S
C740 H731 0.930 . S
C740 C738 1.378 . S
C740 C741 1.367 . S
C741 C740 1.367 . S
C741 C743 1.433 . S
C742 C738 1.350 . S
C742 C739 1.463 . S
C742 N746 1.427 . S
C743 H733 0.929 . S
C743 C741 1.433 . S
C743 N746 1.384 . S
C744 H735 0.929 . S
C744 C736 1.378 . S
C744 C739 1.350 . S
C745 H732 0.929 . S
C745 C737 1.433 . S
C745 N747 1.384 . S
N746 C742 1.427 . S
N746 C743 1.384 . S
N747 C739 1.427 . S
N747 C745 1.384 . S
H748 C754 0.930 . S
H749 C758 0.930 . S
H750 C763 0.929 . S
H751 C761 0.929 . S
H752 C756 0.929 . S
H753 C762 0.929 . S
C754 H748 0.930 . S
C754 C755 1.367 . S
C754 C762 1.378 . S
C755 C754 1.367 . S
C755 C763 1.433 . S
C756 H752 0.929 . S
C756 C758 1.378 . S
C756 C760 1.350 . S
C757 C760 1.463 . S
C757 C762 1.350 . S
C757 N765 1.427 . S
C758 H749 0.930 . S
C758 C756 1.378 . S
C758 C759 1.367 . S
C759 C758 1.367 . S
C759 C761 1.433 . S
C760 C756 1.350 . S
C760 C757 1.463 . S
C760 N764 1.427 . S
C761 H751 0.929 . S
C761 C759 1.433 . S
C761 N764 1.384 . S
C762 H753 0.929 . S
C762 C754 1.378 . S
C762 C757 1.350 . S
C763 H750 0.929 . S
C763 C755 1.433 . S
C763 N765 1.384 . S
N764 C760 1.427 . S
N764 C761 1.384 . S
N765 C757 1.427 . S
N765 C763 1.384 . S
H766 C772 0.930 . S
H767 C776 0.930 . S
H768 C781 0.929 . S
H769 C779 0.929 . S
H770 C774 0.929 . S
H771 C780 0.929 . S
C772 H766 0.930 . S
C772 C773 1.367 . S
C772 C780 1.378 . S
C773 C772 1.367 . S
C773 C781 1.433 . S
C774 H770 0.929 . S
C774 C776 1.378 . S
C774 C778 1.350 . S
C775 C778 1.463 . S
C775 C780 1.350 . S
C775 N783 1.427 . S
C776 H767 0.930 . S
C776 C774 1.378 . S
C776 C777 1.367 . S
C777 C776 1.367 . S
C777 C779 1.433 . S
C778 C774 1.350 . S
C778 C775 1.463 . S
C778 N782 1.427 . S
C779 H769 0.929 . S
C779 C777 1.433 . S
C779 N782 1.384 . S
C780 H771 0.929 . S
C780 C772 1.378 . S
C780 C775 1.350 . S
C781 H768 0.929 . S
C781 C773 1.433 . S
C781 N783 1.384 . S
N782 C778 1.427 . S
N782 C779 1.384 . S
N783 C775 1.427 . S
N783 C781 1.384 . S
H784 C790 0.930 . S
H785 C794 0.930 . S
H786 C799 0.929 . S
H787 C797 0.929 . S
H788 C792 0.929 . S
H789 C798 0.929 . S
C790 H784 0.930 . S
C790 C791 1.367 . S
C790 C798 1.378 . S
C791 C790 1.367 . S
C791 C799 1.433 . S
C792 H788 0.929 . S
C792 C794 1.378 . S
C792 C796 1.350 . S
C793 C796 1.463 . S
C793 C798 1.350 . S
C793 N801 1.427 . S
C794 H785 0.930 . S
C794 C792 1.378 . S
C794 C795 1.367 . S
C795 C794 1.367 . S
C795 C797 1.433 . S
C796 C792 1.350 . S
C796 C793 1.463 . S
C796 N800 1.427 . S
C797 H787 0.929 . S
C797 C795 1.433 . S
C797 N800 1.384 . S
C798 H789 0.929 . S
C798 C790 1.378 . S
C798 C793 1.350 . S
C799 H786 0.929 . S
C799 C791 1.433 . S
C799 N801 1.384 . S
N800 C796 1.427 . S
N800 C797 1.384 . S
N801 C793 1.427 . S
N801 C799 1.384 . S
H802 C808 0.930 . S
H803 C812 0.930 . S
H804 C817 0.929 . S
H805 C815 0.929 . S
H806 C810 0.929 . S
H807 C816 0.929 . S
C808 H802 0.930 . S
C808 C809 1.367 . S
C808 C816 1.378 . S
C809 C808 1.367 . S
C809 C817 1.433 . S
C810 H806 0.929 . S
C810 C812 1.378 . S
C810 C814 1.350 . S
C811 C814 1.463 . S
C811 C816 1.350 . S
C811 N819 1.427 . S
C812 H803 0.930 . S
C812 C810 1.378 . S
C812 C813 1.367 . S
C813 C812 1.367 . S
C813 C815 1.433 . S
C814 C810 1.350 . S
C814 C811 1.463 . S
C814 N818 1.427 . S
C815 H805 0.929 . S
C815 C813 1.433 . S
C815 N818 1.384 . S
C816 H807 0.929 . S
C816 C808 1.378 . S
C816 C811 1.350 . S
C817 H804 0.929 . S
C817 C809 1.433 . S
C817 N819 1.384 . S
N818 C814 1.427 . S
N818 C815 1.384 . S
N819 C811 1.427 . S
N819 C817 1.384 . S
H820 C826 0.930 . S
H821 C830 0.930 . S
H822 C835 0.929 . S
H823 C833 0.929 . S
H824 C828 0.929 . S
H825 C834 0.929 . S
C826 H820 0.930 . S
C826 C827 1.367 . S
C826 C834 1.378 . S
C827 C826 1.367 . S
C827 C835 1.433 . S
C828 H824 0.929 . S
C828 C830 1.378 . S
C828 C832 1.350 . S
C829 C832 1.463 . S
C829 C834 1.350 . S
C829 N837 1.427 . S
C830 H821 0.930 . S
C830 C828 1.378 . S
C830 C831 1.367 . S
C831 C830 1.367 . S
C831 C833 1.433 . S
C832 C828 1.350 . S
C832 C829 1.463 . S
C832 N836 1.427 . S
C833 H823 0.929 . S
C833 C831 1.433 . S
C833 N836 1.384 . S
C834 H825 0.929 . S
C834 C826 1.378 . S
C834 C829 1.350 . S
C835 H822 0.929 . S
C835 C827 1.433 . S
C835 N837 1.384 . S
N836 C832 1.427 . S
N836 C833 1.384 . S
N837 C829 1.427 . S
N837 C835 1.384 . S
H838 C844 0.930 . S
H839 C848 0.930 . S
H840 C853 0.929 . S
H841 C851 0.929 . S
H842 C846 0.929 . S
H843 C852 0.929 . S
C844 H838 0.930 . S
C844 C845 1.367 . S
C844 C852 1.378 . S
C845 C844 1.367 . S
C845 C853 1.433 . S
C846 H842 0.929 . S
C846 C848 1.378 . S
C846 C850 1.350 . S
C847 C850 1.463 . S
C847 C852 1.350 . S
C847 N855 1.427 . S
C848 H839 0.930 . S
C848 C846 1.378 . S
C848 C849 1.367 . S
C849 C848 1.367 . S
C849 C851 1.433 . S
C850 C846 1.350 . S
C850 C847 1.463 . S
C850 N854 1.427 . S
C851 H841 0.929 . S
C851 C849 1.433 . S
C851 N854 1.384 . S
C852 H843 0.929 . S
C852 C844 1.378 . S
C852 C847 1.350 . S
C853 H840 0.929 . S
C853 C845 1.433 . S
C853 N855 1.384 . S
N854 C850 1.427 . S
N854 C851 1.384 . S
N855 C847 1.427 . S
N855 C853 1.384 . S
H856 C862 0.930 . S
H857 C866 0.930 . S
H858 C871 0.929 . S
H859 C869 0.929 . S
H860 C864 0.929 1_545 S
H861 C870 0.929 1_565 S
C862 H856 0.930 . S
C862 C863 1.367 . S
C862 C870 1.378 . S
C863 C862 1.367 . S
C863 C871 1.433 . S
C864 H860 0.929 1_565 S
C864 C866 1.378 . S
C864 C868 1.350 . S
C865 C868 1.463 1_545 S
C865 C870 1.350 . S
C865 N873 1.427 . S
C866 H857 0.930 . S
C866 C864 1.378 . S
C866 C867 1.367 . S
C867 C866 1.367 . S
C867 C869 1.433 . S
C868 C864 1.350 . S
C868 C865 1.463 1_565 S
C868 N872 1.427 . S
C869 H859 0.929 . S
C869 C867 1.433 . S
C869 N872 1.384 . S
C870 H861 0.929 1_545 S
C870 C862 1.378 . S
C870 C865 1.350 . S
C871 H858 0.929 . S
C871 C863 1.433 . S
C871 N873 1.384 . S
N872 C868 1.427 . S
N872 C869 1.384 . S
N873 C865 1.427 . S
N873 C871 1.384 . S
H874 C880 0.930 . S
H875 C884 0.930 . S
H876 C889 0.929 . S
H877 C887 0.929 . S
H878 C882 0.929 . S
H879 C888 0.929 . S
C880 H874 0.930 . S
C880 C881 1.367 . S
C880 C888 1.378 . S
C881 C880 1.367 . S
C881 C889 1.433 . S
C882 H878 0.929 . S
C882 C884 1.378 . S
C882 C886 1.350 . S
C883 C886 1.463 1_545 S
C883 C888 1.350 . S
C883 N891 1.427 . S
C884 H875 0.930 . S
C884 C882 1.378 . S
C884 C885 1.367 . S
C885 C884 1.367 . S
C885 C887 1.433 . S
C886 C882 1.350 . S
C886 C883 1.463 1_565 S
C886 N890 1.427 . S
C887 H877 0.929 . S
C887 C885 1.433 . S
C887 N890 1.384 . S
C888 H879 0.929 . S
C888 C880 1.378 . S
C888 C883 1.350 . S
C889 H876 0.929 . S
C889 C881 1.433 . S
C889 N891 1.384 . S
N890 C886 1.427 . S
N890 C887 1.384 . S
N891 C883 1.427 . S
N891 C889 1.384 . S
H892 C898 0.930 . S
H893 C902 0.930 . S
H894 C907 0.929 . S
H895 C905 0.929 . S
H896 C900 0.929 . S
H897 C906 0.929 . S
C898 H892 0.930 . S
C898 C899 1.367 . S
C898 C906 1.378 . S
C899 C898 1.367 . S
C899 C907 1.433 . S
C900 H896 0.929 . S
C900 C902 1.378 . S
C900 C904 1.350 . S
C901 C904 1.463 1_565 S
C901 C906 1.350 . S
C901 N909 1.427 . S
C902 H893 0.930 . S
C902 C900 1.378 . S
C902 C903 1.367 . S
C903 C902 1.367 . S
C903 C905 1.433 . S
C904 C900 1.350 . S
C904 C901 1.463 1_545 S
C904 N908 1.427 . S
C905 H895 0.929 . S
C905 C903 1.433 . S
C905 N908 1.384 . S
C906 H897 0.929 . S
C906 C898 1.378 . S
C906 C901 1.350 . S
C907 H894 0.929 . S
C907 C899 1.433 . S
C907 N909 1.384 . S
N908 C904 1.427 . S
N908 C905 1.384 . S
N909 C901 1.427 . S
N909 C907 1.384 . S
H910 C916 0.930 . S
H911 C920 0.930 . S
H912 C925 0.929 . S
H913 C923 0.929 . S
H914 C918 0.929 . S
H915 C924 0.929 . S
C916 H910 0.930 . S
C916 C917 1.367 . S
C916 C924 1.378 . S
C917 C916 1.367 . S
C917 C925 1.433 . S
C918 H914 0.929 . S
C918 C920 1.378 . S
C918 C922 1.350 . S
C919 C922 1.463 1_565 S
C919 C924 1.350 . S
C919 N927 1.427 . S
C920 H911 0.930 . S
C920 C918 1.378 . S
C920 C921 1.367 . S
C921 C920 1.367 . S
C921 C923 1.433 . S
C922 C918 1.350 . S
C922 C919 1.463 1_545 S
C922 N926 1.427 . S
C923 H913 0.929 . S
C923 C921 1.433 . S
C923 N926 1.384 . S
C924 H915 0.929 . S
C924 C916 1.378 . S
C924 C919 1.350 . S
C925 H912 0.929 . S
C925 C917 1.433 . S
C925 N927 1.384 . S
N926 C922 1.427 . S
N926 C923 1.384 . S
N927 C919 1.427 . S
N927 C925 1.384 . S
H928 C934 0.930 . S
H929 C938 0.930 . S
H930 C943 0.929 . S
H931 C941 0.929 . S
H932 C936 0.929 . S
H933 C942 0.929 . S
C934 H928 0.930 . S
C934 C935 1.367 1_554 S
C934 C942 1.378 . S
C935 C934 1.367 1_556 S
C935 C943 1.433 . S
C936 H932 0.929 . S
C936 C938 1.378 . S
C936 C940 1.350 1_556 S
C937 C940 1.463 1_556 S
C937 C942 1.350 1_556 S
C937 N945 1.427 . S
C938 H929 0.930 . S
C938 C936 1.378 . S
C938 C939 1.367 1_556 S
C939 C938 1.367 1_554 S
C939 C941 1.433 . S
C940 C936 1.350 1_554 S
C940 C937 1.463 1_554 S
C940 N944 1.427 . S
C941 H931 0.929 . S
C941 C939 1.433 . S
C941 N944 1.384 . S
C942 H933 0.929 . S
C942 C934 1.378 . S
C942 C937 1.350 1_554 S
C943 H930 0.929 . S
C943 C935 1.433 . S
C943 N945 1.384 . S
N944 C940 1.427 . S
N944 C941 1.384 . S
N945 C937 1.427 . S
N945 C943 1.384 . S
H946 C952 0.930 . S
H947 C956 0.930 . S
H948 C961 0.929 . S
H949 C959 0.929 . S
H950 C954 0.929 . S
H951 C960 0.929 . S
C952 H946 0.930 . S
C952 C953 1.367 . S
C952 C960 1.378 . S
C953 C952 1.367 . S
C953 C961 1.433 1_554 S
C954 H950 0.929 . S
C954 C956 1.378 . S
C954 C958 1.350 . S
C955 C958 1.463 1_554 S
C955 C960 1.350 . S
C955 N963 1.427 1_554 S
C956 H947 0.930 . S
C956 C954 1.378 . S
C956 C957 1.367 . S
C957 C956 1.367 . S
C957 C959 1.433 1_556 S
C958 C954 1.350 . S
C958 C955 1.463 1_556 S
C958 N962 1.427 1_556 S
C959 H949 0.929 . S
C959 C957 1.433 1_554 S
C959 N962 1.384 . S
C960 H951 0.929 . S
C960 C952 1.378 . S
C960 C955 1.350 . S
C961 H948 0.929 . S
C961 C953 1.433 1_556 S
C961 N963 1.384 . S
N962 C958 1.427 1_554 S
N962 C959 1.384 . S
N963 C955 1.427 1_556 S
N963 C961 1.384 . S
H964 C970 0.930 . S
H965 C974 0.930 . S
H966 C979 0.929 . S
H967 C977 0.929 . S
H968 C972 0.929 . S
H969 C978 0.929 . S
C970 H964 0.930 . S
C970 C971 1.367 . S
C970 C978 1.378 . S
C971 C970 1.367 . S
C971 C979 1.433 . S
C972 H968 0.929 . S
C972 C974 1.378 . S
C972 C976 1.350 . S
C973 C976 1.463 . S
C973 C978 1.350 . S
C973 N981 1.427 . S
C974 H965 0.930 . S
C974 C972 1.378 . S
C974 C975 1.367 . S
C975 C974 1.367 . S
C975 C977 1.433 . S
C976 C972 1.350 . S
C976 C973 1.463 . S
C976 N980 1.427 . S
C977 H967 0.929 . S
C977 C975 1.433 . S
C977 N980 1.384 . S
C978 H969 0.929 . S
C978 C970 1.378 . S
C978 C973 1.350 . S
C979 H966 0.929 . S
C979 C971 1.433 . S
C979 N981 1.384 . S
N980 C976 1.427 . S
N980 C977 1.384 . S
N981 C973 1.427 . S
N981 C979 1.384 . S
H982 C988 0.930 . S
H983 C992 0.930 . S
H984 C997 0.929 . S
H985 C995 0.929 . S
H986 C990 0.929 . S
H987 C996 0.929 . S
C988 H982 0.930 . S
C988 C989 1.367 . S
C988 C996 1.378 . S
C989 C988 1.367 . S
C989 C997 1.433 . S
C990 H986 0.929 . S
C990 C992 1.378 . S
C990 C994 1.350 . S
C991 C994 1.463 . S
C991 C996 1.350 . S
C991 N999 1.427 . S
C992 H983 0.930 . S
C992 C990 1.378 . S
C992 C993 1.367 . S
C993 C992 1.367 . S
C993 C995 1.433 . S
C994 C990 1.350 . S
C994 C991 1.463 . S
C994 N998 1.427 . S
C995 H985 0.929 . S
C995 C993 1.433 . S
C995 N998 1.384 . S
C996 H987 0.929 . S
C996 C988 1.378 . S
C996 C991 1.350 . S
C997 H984 0.929 . S
C997 C989 1.433 . S
C997 N999 1.384 . S
N998 C994 1.427 . S
N998 C995 1.384 . S
N999 C991 1.427 . S
N999 C997 1.384 . S
H1000 C1006 0.930 . S
H1001 C1010 0.930 . S
H1002 C1015 0.929 . S
H1003 C1013 0.929 . S
H1004 C1008 0.929 . S
H1005 C1014 0.929 . S
C1006 H1000 0.930 . S
C1006 C1007 1.367 . S
C1006 C1014 1.378 . S
C1007 C1006 1.367 . S
C1007 C1015 1.433 . S
C1008 H1004 0.929 . S
C1008 C1010 1.378 . S
C1008 C1012 1.350 . S
C1009 C1012 1.463 1_556 S
C1009 C1014 1.350 . S
C1009 N1017 1.427 . S
C1010 H1001 0.930 . S
C1010 C1008 1.378 . S
C1010 C1011 1.367 . S
C1011 C1010 1.367 . S
C1011 C1013 1.433 . S
C1012 C1008 1.350 . S
C1012 C1009 1.463 1_554 S
C1012 N1016 1.427 . S
C1013 H1003 0.929 . S
C1013 C1011 1.433 . S
C1013 N1016 1.384 . S
C1014 H1005 0.929 . S
C1014 C1006 1.378 . S
C1014 C1009 1.350 . S
C1015 H1002 0.929 . S
C1015 C1007 1.433 . S
C1015 N1017 1.384 . S
N1016 C1012 1.427 . S
N1016 C1013 1.384 . S
N1017 C1009 1.427 . S
N1017 C1015 1.384 . S
H1018 C1024 0.930 . S
H1019 C1028 0.930 . S
H1020 C1033 0.929 . S
H1021 C1031 0.929 . S
H1022 C1026 0.929 . S
H1023 C1032 0.929 . S
C1024 H1018 0.930 . S
C1024 C1025 1.367 1_554 S
C1024 C1032 1.378 . S
C1025 C1024 1.367 1_556 S
C1025 C1033 1.433 . S
C1026 H1022 0.929 . S
C1026 C1028 1.378 . S
C1026 C1030 1.350 1_556 S
C1027 C1030 1.463 1_556 S
C1027 C1032 1.350 1_556 S
C1027 N1035 1.427 . S
C1028 H1019 0.930 . S
C1028 C1026 1.378 . S
C1028 C1029 1.367 1_556 S
C1029 C1028 1.367 1_554 S
C1029 C1031 1.433 . S
C1030 C1026 1.350 1_554 S
C1030 C1027 1.463 1_554 S
C1030 N1034 1.427 . S
C1031 H1021 0.929 . S
C1031 C1029 1.433 . S
C1031 N1034 1.384 . S
C1032 H1023 0.929 . S
C1032 C1024 1.378 . S
C1032 C1027 1.350 1_554 S
C1033 H1020 0.929 . S
C1033 C1025 1.433 . S
C1033 N1035 1.384 . S
N1034 C1030 1.427 . S
N1034 C1031 1.384 . S
N1035 C1027 1.427 . S
N1035 C1033 1.384 . S
H1036 C1042 0.930 . S
H1037 C1046 0.930 . S
H1038 C1051 0.929 . S
H1039 C1049 0.929 . S
H1040 C1044 0.929 . S
H1041 C1050 0.929 . S
C1042 H1036 0.930 . S
C1042 C1043 1.367 . S
C1042 C1050 1.378 . S
C1043 C1042 1.367 . S
C1043 C1051 1.433 . S
C1044 H1040 0.929 . S
C1044 C1046 1.378 . S
C1044 C1048 1.350 . S
C1045 C1048 1.463 . S
C1045 C1050 1.350 . S
C1045 N1053 1.427 . S
C1046 H1037 0.930 . S
C1046 C1044 1.378 . S
C1046 C1047 1.367 . S
C1047 C1046 1.367 . S
C1047 C1049 1.433 . S
C1048 C1044 1.350 . S
C1048 C1045 1.463 . S
C1048 N1052 1.427 . S
C1049 H1039 0.929 . S
C1049 C1047 1.433 . S
C1049 N1052 1.384 . S
C1050 H1041 0.929 . S
C1050 C1042 1.378 . S
C1050 C1045 1.350 . S
C1051 H1038 0.929 . S
C1051 C1043 1.433 . S
C1051 N1053 1.384 . S
N1052 C1048 1.427 . S
N1052 C1049 1.384 . S
N1053 C1045 1.427 . S
N1053 C1051 1.384 . S
H1054 C1060 0.930 . S
H1055 C1064 0.930 . S
H1056 C1069 0.929 . S
H1057 C1067 0.929 . S
H1058 C1062 0.929 . S
H1059 C1068 0.929 . S
C1060 H1054 0.930 . S
C1060 C1061 1.367 . S
C1060 C1068 1.378 . S
C1061 C1060 1.367 . S
C1061 C1069 1.433 . S
C1062 H1058 0.929 . S
C1062 C1064 1.378 . S
C1062 C1066 1.350 . S
C1063 C1066 1.463 . S
C1063 C1068 1.350 . S
C1063 N1071 1.427 . S
C1064 H1055 0.930 . S
C1064 C1062 1.378 . S
C1064 C1065 1.367 . S
C1065 C1064 1.367 . S
C1065 C1067 1.433 . S
C1066 C1062 1.350 . S
C1066 C1063 1.463 . S
C1066 N1070 1.427 . S
C1067 H1057 0.929 . S
C1067 C1065 1.433 . S
C1067 N1070 1.384 . S
C1068 H1059 0.929 . S
C1068 C1060 1.378 . S
C1068 C1063 1.350 . S
C1069 H1056 0.929 . S
C1069 C1061 1.433 . S
C1069 N1071 1.384 . S
N1070 C1066 1.427 . S
N1070 C1067 1.384 . S
N1071 C1063 1.427 . S
N1071 C1069 1.384 . S
H1072 C1078 0.930 . S
H1073 C1082 0.930 . S
H1074 C1087 0.929 . S
H1075 C1085 0.929 . S
H1076 C1080 0.929 . S
H1077 C1086 0.929 . S
C1078 H1072 0.930 . S
C1078 C1079 1.367 . S
C1078 C1086 1.378 . S
C1079 C1078 1.367 . S
C1079 C1087 1.433 . S
C1080 H1076 0.929 . S
C1080 C1082 1.378 . S
C1080 C1084 1.350 . S
C1081 C1084 1.463 1_455 S
C1081 C1086 1.350 . S
C1081 N1089 1.427 . S
C1082 H1073 0.930 . S
C1082 C1080 1.378 . S
C1082 C1083 1.367 . S
C1083 C1082 1.367 . S
C1083 C1085 1.433 . S
C1084 C1080 1.350 . S
C1084 C1081 1.463 1_655 S
C1084 N1088 1.427 . S
C1085 H1075 0.929 . S
C1085 C1083 1.433 . S
C1085 N1088 1.384 . S
C1086 H1077 0.929 . S
C1086 C1078 1.378 . S
C1086 C1081 1.350 . S
C1087 H1074 0.929 . S
C1087 C1079 1.433 . S
C1087 N1089 1.384 . S
N1088 C1084 1.427 . S
N1088 C1085 1.384 . S
N1089 C1081 1.427 . S
N1089 C1087 1.384 . S
H1090 C1096 0.930 . S
H1091 C1100 0.930 . S
H1092 C1105 0.929 . S
H1093 C1103 0.929 . S
H1094 C1098 0.929 . S
H1095 C1104 0.929 . S
C1096 H1090 0.930 . S
C1096 C1097 1.367 . S
C1096 C1104 1.378 . S
C1097 C1096 1.367 . S
C1097 C1105 1.433 . S
C1098 H1094 0.929 . S
C1098 C1100 1.378 . S
C1098 C1102 1.350 . S
C1099 C1102 1.463 . S
C1099 C1104 1.350 . S
C1099 N1107 1.427 . S
C1100 H1091 0.930 . S
C1100 C1098 1.378 . S
C1100 C1101 1.367 . S
C1101 C1100 1.367 . S
C1101 C1103 1.433 . S
C1102 C1098 1.350 . S
C1102 C1099 1.463 . S
C1102 N1106 1.427 . S
C1103 H1093 0.929 . S
C1103 C1101 1.433 . S
C1103 N1106 1.384 . S
C1104 H1095 0.929 . S
C1104 C1096 1.378 . S
C1104 C1099 1.350 . S
C1105 H1092 0.929 . S
C1105 C1097 1.433 . S
C1105 N1107 1.384 . S
N1106 C1102 1.427 . S
N1106 C1103 1.384 . S
N1107 C1099 1.427 . S
N1107 C1105 1.384 . S
H1108 C1114 0.930 . S
H1109 C1118 0.930 . S
H1110 C1123 0.929 . S
H1111 C1121 0.929 . S
H1112 C1116 0.929 . S
H1113 C1122 0.929 . S
C1114 H1108 0.930 . S
C1114 C1115 1.367 . S
C1114 C1122 1.378 . S
C1115 C1114 1.367 . S
C1115 C1123 1.433 . S
C1116 H1112 0.929 . S
C1116 C1118 1.378 . S
C1116 C1120 1.350 . S
C1117 C1120 1.463 . S
C1117 C1122 1.350 . S
C1117 N1125 1.427 . S
C1118 H1109 0.930 . S
C1118 C1116 1.378 . S
C1118 C1119 1.367 . S
C1119 C1118 1.367 . S
C1119 C1121 1.433 . S
C1120 C1116 1.350 . S
C1120 C1117 1.463 . S
C1120 N1124 1.427 . S
C1121 H1111 0.929 . S
C1121 C1119 1.433 . S
C1121 N1124 1.384 . S
C1122 H1113 0.929 . S
C1122 C1114 1.378 . S
C1122 C1117 1.350 . S
C1123 H1110 0.929 . S
C1123 C1115 1.433 . S
C1123 N1125 1.384 . S
N1124 C1120 1.427 . S
N1124 C1121 1.384 . S
N1125 C1117 1.427 . S
N1125 C1123 1.384 . S
H1126 C1132 0.930 . S
H1127 C1136 0.930 . S
H1128 C1141 0.929 . S
H1129 C1139 0.929 . S
H1130 C1134 0.929 . S
H1131 C1140 0.929 . S
C1132 H1126 0.930 . S
C1132 C1133 1.367 . S
C1132 C1140 1.378 . S
C1133 C1132 1.367 . S
C1133 C1141 1.433 . S
C1134 H1130 0.929 . S
C1134 C1136 1.378 . S
C1134 C1138 1.350 . S
C1135 C1138 1.463 1_455 S
C1135 C1140 1.350 . S
C1135 N1143 1.427 . S
C1136 H1127 0.930 . S
C1136 C1134 1.378 . S
C1136 C1137 1.367 . S
C1137 C1136 1.367 . S
C1137 C1139 1.433 . S
C1138 C1134 1.350 . S
C1138 C1135 1.463 1_655 S
C1138 N1142 1.427 . S
C1139 H1129 0.929 . S
C1139 C1137 1.433 . S
C1139 N1142 1.384 . S
C1140 H1131 0.929 . S
C1140 C1132 1.378 . S
C1140 C1135 1.350 . S
C1141 H1128 0.929 . S
C1141 C1133 1.433 . S
C1141 N1143 1.384 . S
N1142 C1138 1.427 . S
N1142 C1139 1.384 . S
N1143 C1135 1.427 . S
N1143 C1141 1.384 . S
H1144 C1150 0.930 . S
H1145 C1154 0.930 . S
H1146 C1159 0.929 . S
H1147 C1157 0.929 . S
H1148 C1152 0.929 . S
H1149 C1158 0.929 . S
C1150 H1144 0.930 . S
C1150 C1151 1.367 . S
C1150 C1158 1.378 . S
C1151 C1150 1.367 . S
C1151 C1159 1.433 . S
C1152 H1148 0.929 . S
C1152 C1154 1.378 . S
C1152 C1156 1.350 . S
C1153 C1156 1.463 1_655 S
C1153 C1158 1.350 . S
C1153 N1161 1.427 . S
C1154 H1145 0.930 . S
C1154 C1152 1.378 . S
C1154 C1155 1.367 . S
C1155 C1154 1.367 . S
C1155 C1157 1.433 . S
C1156 C1152 1.350 . S
C1156 C1153 1.463 1_455 S
C1156 N1160 1.427 . S
C1157 H1147 0.929 . S
C1157 C1155 1.433 . S
C1157 N1160 1.384 . S
C1158 H1149 0.929 . S
C1158 C1150 1.378 . S
C1158 C1153 1.350 . S
C1159 H1146 0.929 . S
C1159 C1151 1.433 . S
C1159 N1161 1.384 . S
N1160 C1156 1.427 . S
N1160 C1157 1.384 . S
N1161 C1153 1.427 . S
N1161 C1159 1.384 . S
H1162 C1168 0.930 . S
H1163 C1172 0.930 . S
H1164 C1177 0.929 . S
H1165 C1175 0.929 . S
H1166 C1170 0.929 . S
H1167 C1176 0.929 . S
C1168 H1162 0.930 . S
C1168 C1169 1.367 . S
C1168 C1176 1.378 . S
C1169 C1168 1.367 . S
C1169 C1177 1.433 . S
C1170 H1166 0.929 . S
C1170 C1172 1.378 . S
C1170 C1174 1.350 . S
C1171 C1174 1.463 . S
C1171 C1176 1.350 . S
C1171 N1179 1.427 . S
C1172 H1163 0.930 . S
C1172 C1170 1.378 . S
C1172 C1173 1.367 . S
C1173 C1172 1.367 . S
C1173 C1175 1.433 . S
C1174 C1170 1.350 . S
C1174 C1171 1.463 . S
C1174 N1178 1.427 . S
C1175 H1165 0.929 . S
C1175 C1173 1.433 . S
C1175 N1178 1.384 . S
C1176 H1167 0.929 . S
C1176 C1168 1.378 . S
C1176 C1171 1.350 . S
C1177 H1164 0.929 . S
C1177 C1169 1.433 . S
C1177 N1179 1.384 . S
N1178 C1174 1.427 . S
N1178 C1175 1.384 . S
N1179 C1171 1.427 . S
N1179 C1177 1.384 . S
H1180 C1186 0.930 . S
H1181 C1190 0.930 . S
H1182 C1195 0.929 . S
H1183 C1193 0.929 . S
H1184 C1188 0.929 . S
H1185 C1194 0.929 . S
C1186 H1180 0.930 . S
C1186 C1187 1.367 . S
C1186 C1194 1.378 . S
C1187 C1186 1.367 . S
C1187 C1195 1.433 . S
C1188 H1184 0.929 . S
C1188 C1190 1.378 . S
C1188 C1192 1.350 . S
C1189 C1192 1.463 . S
C1189 C1194 1.350 . S
C1189 N1197 1.427 . S
C1190 H1181 0.930 . S
C1190 C1188 1.378 . S
C1190 C1191 1.367 . S
C1191 C1190 1.367 . S
C1191 C1193 1.433 . S
C1192 C1188 1.350 . S
C1192 C1189 1.463 . S
C1192 N1196 1.427 . S
C1193 H1183 0.929 . S
C1193 C1191 1.433 . S
C1193 N1196 1.384 . S
C1194 H1185 0.929 . S
C1194 C1186 1.378 . S
C1194 C1189 1.350 . S
C1195 H1182 0.929 . S
C1195 C1187 1.433 . S
C1195 N1197 1.384 . S
N1196 C1192 1.427 . S
N1196 C1193 1.384 . S
N1197 C1189 1.427 . S
N1197 C1195 1.384 . S
H1198 C1204 0.930 . S
H1199 C1208 0.930 . S
H1200 C1213 0.929 . S
H1201 C1211 0.929 . S
H1202 C1206 0.929 . S
H1203 C1212 0.929 . S
C1204 H1198 0.930 . S
C1204 C1205 1.367 . S
C1204 C1212 1.378 . S
C1205 C1204 1.367 . S
C1205 C1213 1.433 . S
C1206 H1202 0.929 . S
C1206 C1208 1.378 . S
C1206 C1210 1.350 . S
C1207 C1210 1.463 1_455 S
C1207 C1212 1.350 . S
C1207 N1215 1.427 . S
C1208 H1199 0.930 . S
C1208 C1206 1.378 . S
C1208 C1209 1.367 . S
C1209 C1208 1.367 . S
C1209 C1211 1.433 . S
C1210 C1206 1.350 . S
C1210 C1207 1.463 1_655 S
C1210 N1214 1.427 . S
C1211 H1201 0.929 . S
C1211 C1209 1.433 . S
C1211 N1214 1.384 . S
C1212 H1203 0.929 . S
C1212 C1204 1.378 . S
C1212 C1207 1.350 . S
C1213 H1200 0.929 . S
C1213 C1205 1.433 . S
C1213 N1215 1.384 . S
N1214 C1210 1.427 . S
N1214 C1211 1.384 . S
N1215 C1207 1.427 . S
N1215 C1213 1.384 . S
C359 C6 1.430 . S
C363 C290 1.540 . S
C377 C268 1.539 . S
C381 C29 1.427 . S
C395 C334 1.539 . S
C399 C50 1.442 . S
C413 C316 1.538 . S
C417 C72 1.425 . S
C431 C202 1.540 . S
C435 C97 1.444 . S
C449 C119 1.442 . S
C453 C184 1.539 . S
C467 C250 1.539 . S
C471 C137 1.424 . S
C485 C163 1.442 . S
C489 C228 1.539 . S
C503 C114 1.539 . S
C507 C182 1.424 . S
C521 C205 1.424 . S
C525 C92 1.538 . S
C539 C158 1.540 . S
C543 C226 1.443 . S
C557 C140 1.538 . S
C561 C248 1.432 . S
C575 C273 1.430 . S
C579 C26 1.538 . S
C593 C8 1.540 . S
C597 C295 1.444 . S
C611 C313 1.435 . S
C615 C74 1.538 . S
C629 C52 1.540 . S
C633 C339 1.436 . S
C647 C225 1.486 . S
C651 C5 1.479 . S
C665 C31 1.487 . S
C669 C247 1.492 . S
C683 C181 1.484 . S
C687 C49 1.479 . S
C701 C207 1.488 . S
C705 C71 1.492 . S
C719 C314 1.492 . S
C723 C95 1.489 . S
C737 C117 1.479 . S
C741 C337 1.484 . S
C755 C138 1.480 . S
C759 C271 1.481 . S
C773 C293 1.492 . S
C777 C161 1.484 . S
C791 C7 1.670 . S
C795 C28 1.672 . S
C809 C51 1.672 . S
C813 C73 1.670 . S
C827 C93 1.672 . S
C831 C115 1.670 . S
C845 C159 1.671 . S
C849 C141 1.671 . S
C863 C204 1.671 . S
C867 C183 1.670 . S
C881 C227 1.672 . S
C885 C249 1.670 . S
C899 C291 1.670 . S
C903 C269 1.671 . S
C917 C317 1.670 . S
C921 C335 1.672 . S
C935 C270 0.763 . S
C939 C9 0.763 . S
C953 C27 0.736 . S
C957 C292 0.736 . S
C971 C53 0.754 . S
C975 C315 0.754 . S
C989 C75 0.732 . S
C993 C336 0.732 . S
C1007 C94 0.732 . S
C1011 C185 0.732 . S
C1025 C116 0.755 . S
C1029 C203 0.755 . S
C1043 C139 0.732 . S
C1047 C229 0.732 . S
C1061 C251 0.732 . S
C1065 C160 0.732 . S
C1079 C4 1.482 . S
C1083 C206 1.487 . S
C1097 C30 1.486 . S
C1101 C180 1.482 . S
C1115 C246 1.484 . S
C1119 C48 1.484 . S
C1133 C224 1.487 . S
C1137 C70 1.482 . S
C1151 C96 1.486 . S
C1155 C294 1.482 . S
C1169 C118 1.482 . S
C1173 C272 1.487 . S
C1187 C338 1.487 . S
C1191 C136 1.481 . S
C1205 C162 1.487 . S
C1209 C312 1.481 . S
