# Generated by pormake.
# Topology fnd, (5)-cn, num edge types: 1
# Building blocks:
#     Node 0, Type 0, BuildingBlock: XOMCOT_clean_sbu_1, # of connection points: 5
#     Node 1, Type 0, BuildingBlock: XOMCOT_clean_sbu_1, # of connection points: 5
#     Node 2, Type 0, BuildingBlock: XOMCOT_clean_sbu_1, # of connection points: 5
#     Node 3, Type 0, BuildingBlock: XOMCOT_clean_sbu_1, # of connection points: 5
#     Node 4, Type 0, BuildingBlock: XOMCOT_clean_sbu_1, # of connection points: 5
#     Node 5, Type 0, BuildingBlock: XOMCOT_clean_sbu_1, # of connection points: 5
#     Node 6, Type 0, BuildingBlock: XOMCOT_clean_sbu_1, # of connection points: 5
#     Node 7, Type 0, BuildingBlock: XOMCOT_clean_sbu_1, # of connection points: 5
#     Node 8, Type 0, BuildingBlock: XOMCOT_clean_sbu_1, # of connection points: 5
#     Node 9, Type 0, BuildingBlock: XOMCOT_clean_sbu_1, # of connection points: 5
#     Node 10, Type 0, BuildingBlock: XOMCOT_clean_sbu_1, # of connection points: 5
#     Node 11, Type 0, BuildingBlock: XOMCOT_clean_sbu_1, # of connection points: 5
#     Node 12, Type 0, BuildingBlock: XOMCOT_clean_sbu_1, # of connection points: 5
#     Node 13, Type 0, BuildingBlock: XOMCOT_clean_sbu_1, # of connection points: 5
#     Node 14, Type 0, BuildingBlock: XOMCOT_clean_sbu_1, # of connection points: 5
#     Node 15, Type 0, BuildingBlock: XOMCOT_clean_sbu_1, # of connection points: 5
#     Node 16, Type 0, BuildingBlock: XOMCOT_clean_sbu_1, # of connection points: 5
#     Node 17, Type 0, BuildingBlock: XOMCOT_clean_sbu_1, # of connection points: 5
#     Edge 18, Type (0, 0), BuildingBlock: XUDNAN_clean_linker_2, # of connection points: 2
#     Edge 19, Type (0, 0), BuildingBlock: XUDNAN_clean_linker_2, # of connection points: 2
#     Edge 20, Type (0, 0), BuildingBlock: XUDNAN_clean_linker_2, # of connection points: 2
#     Edge 21, Type (0, 0), BuildingBlock: XUDNAN_clean_linker_2, # of connection points: 2
#     Edge 22, Type (0, 0), BuildingBlock: XUDNAN_clean_linker_2, # of connection points: 2
#     Edge 23, Type (0, 0), BuildingBlock: XUDNAN_clean_linker_2, # of connection points: 2
#     Edge 24, Type (0, 0), BuildingBlock: XUDNAN_clean_linker_2, # of connection points: 2
#     Edge 25, Type (0, 0), BuildingBlock: XUDNAN_clean_linker_2, # of connection points: 2
#     Edge 26, Type (0, 0), BuildingBlock: XUDNAN_clean_linker_2, # of connection points: 2
#     Edge 27, Type (0, 0), BuildingBlock: XUDNAN_clean_linker_2, # of connection points: 2
#     Edge 28, Type (0, 0), BuildingBlock: XUDNAN_clean_linker_2, # of connection points: 2
#     Edge 29, Type (0, 0), BuildingBlock: XUDNAN_clean_linker_2, # of connection points: 2
#     Edge 30, Type (0, 0), BuildingBlock: XUDNAN_clean_linker_2, # of connection points: 2
#     Edge 31, Type (0, 0), BuildingBlock: XUDNAN_clean_linker_2, # of connection points: 2
#     Edge 32, Type (0, 0), BuildingBlock: XUDNAN_clean_linker_2, # of connection points: 2
#     Edge 33, Type (0, 0), BuildingBlock: XUDNAN_clean_linker_2, # of connection points: 2
#     Edge 34, Type (0, 0), BuildingBlock: XUDNAN_clean_linker_2, # of connection points: 2
#     Edge 35, Type (0, 0), BuildingBlock: XUDNAN_clean_linker_2, # of connection points: 2
#     Edge 36, Type (0, 0), BuildingBlock: XUDNAN_clean_linker_2, # of connection points: 2
#     Edge 37, Type (0, 0), BuildingBlock: XUDNAN_clean_linker_2, # of connection points: 2
#     Edge 38, Type (0, 0), BuildingBlock: XUDNAN_clean_linker_2, # of connection points: 2
#     Edge 39, Type (0, 0), BuildingBlock: XUDNAN_clean_linker_2, # of connection points: 2
#     Edge 40, Type (0, 0), BuildingBlock: XUDNAN_clean_linker_2, # of connection points: 2
#     Edge 41, Type (0, 0), BuildingBlock: XUDNAN_clean_linker_2, # of connection points: 2
#     Edge 42, Type (0, 0), BuildingBlock: XUDNAN_clean_linker_2, # of connection points: 2
#     Edge 43, Type (0, 0), BuildingBlock: XUDNAN_clean_linker_2, # of connection points: 2
#     Edge 44, Type (0, 0), BuildingBlock: XUDNAN_clean_linker_2, # of connection points: 2
#     Edge 45, Type (0, 0), BuildingBlock: XUDNAN_clean_linker_2, # of connection points: 2
#     Edge 46, Type (0, 0), BuildingBlock: XUDNAN_clean_linker_2, # of connection points: 2
#     Edge 47, Type (0, 0), BuildingBlock: XUDNAN_clean_linker_2, # of connection points: 2
#     Edge 48, Type (0, 0), BuildingBlock: XUDNAN_clean_linker_2, # of connection points: 2
#     Edge 49, Type (0, 0), BuildingBlock: XUDNAN_clean_linker_2, # of connection points: 2
#     Edge 50, Type (0, 0), BuildingBlock: XUDNAN_clean_linker_2, # of connection points: 2
#     Edge 51, Type (0, 0), BuildingBlock: XUDNAN_clean_linker_2, # of connection points: 2
#     Edge 52, Type (0, 0), BuildingBlock: XUDNAN_clean_linker_2, # of connection points: 2
#     Edge 53, Type (0, 0), BuildingBlock: XUDNAN_clean_linker_2, # of connection points: 2
#     Edge 54, Type (0, 0), BuildingBlock: XUDNAN_clean_linker_2, # of connection points: 2
#     Edge 55, Type (0, 0), BuildingBlock: XUDNAN_clean_linker_2, # of connection points: 2
#     Edge 56, Type (0, 0), BuildingBlock: XUDNAN_clean_linker_2, # of connection points: 2
#     Edge 57, Type (0, 0), BuildingBlock: XUDNAN_clean_linker_2, # of connection points: 2
#     Edge 58, Type (0, 0), BuildingBlock: XUDNAN_clean_linker_2, # of connection points: 2
#     Edge 59, Type (0, 0), BuildingBlock: XUDNAN_clean_linker_2, # of connection points: 2
#     Edge 60, Type (0, 0), BuildingBlock: XUDNAN_clean_linker_2, # of connection points: 2
#     Edge 61, Type (0, 0), BuildingBlock: XUDNAN_clean_linker_2, # of connection points: 2
#     Edge 62, Type (0, 0), BuildingBlock: XUDNAN_clean_linker_2, # of connection points: 2
# Relax obj value: 0.033
# Max RMSD: 0.083
# Mean RMSD: 0.083
data_MOF--net-fnd--node1-XOMCOT_clean_sbu_1--edge1-XUDNAN_clean_linker_2
_symmetry_space_group_name_H-M    P1
_symmetry_Int_Tables_number       1
_symmetry_cell_setting            triclinic
loop_
_symmetry_equiv_pos_as_xyz
'x, y, z'
_cell_length_a     83.999378
_cell_length_b     83.997716
_cell_length_c     17.619892
_cell_angle_alpha  89.874402
_cell_angle_beta   90.028827
_cell_angle_gamma 119.94669
loop_
_atom_site_label
_atom_site_type_symbol
_atom_site_fract_x
_atom_site_fract_y
_atom_site_fract_z
_atom_type_partial_charge
C0 C 0.13425 0.26431 0.57511 0.0
C1 C 0.13324 0.26546 0.65243 0.0
N2 N 0.11811 0.25029 0.67716 0.0
N3 N 0.1198 0.24848 0.55066 0.0
C4 C 0.1101 0.2402 0.61431 0.0
H5 H 0.14537 0.27399 0.53957 0.0
Co6 Co 0.11784 0.24004 0.45133 0.0
C7 C 0.07728 0.2146 0.42394 0.0
O8 O 0.08023 0.2055 0.37053 0.0
N9 N 0.11682 0.23209 0.35018 0.0
C10 C 0.12503 0.22316 0.2456 0.0
C11 C 0.12651 0.22444 0.32311 0.0
C12 C 0.10963 0.23546 0.28719 0.0
N13 N 0.11443 0.23009 0.223 0.0
O14 O 0.11848 0.26214 0.41452 0.0
H15 H 0.13498 0.22081 0.35662 0.0
H16 H 0.10183 0.24254 0.28801 0.0
O17 O 0.09079 0.22771 0.45916 0.0
C18 C 0.13435 0.27393 0.38963 0.0
O19 O 0.14712 0.26925 0.38792 0.0
N20 N 0.11934 0.2196 0.48861 0.0
C21 C 0.12953 0.19325 0.52151 0.0
C22 C 0.11108 0.18803 0.50775 0.0
C23 C 0.1062 0.20145 0.49255 0.0
C24 C 0.13709 0.22494 0.50727 0.0
C25 C 0.14248 0.21204 0.52399 0.0
H26 H 0.092 0.19696 0.4822 0.0
H27 H 0.14739 0.23935 0.50451 0.0
H28 H 0.09815 0.22656 0.61518 0.0
H29 H 0.14323 0.27635 0.6882 0.0
H30 H 0.13172 0.21807 0.2083 0.0
H31 H 0.10056 0.17366 0.50705 0.0
H32 H 0.15687 0.21673 0.53417 0.0
C33 C 0.75808 0.87082 0.55718 0.0
C34 C 0.75749 0.86875 0.63446 0.0
N35 N 0.77368 0.87084 0.65754 0.0
N36 N 0.77458 0.87421 0.53108 0.0
C37 C 0.78385 0.87407 0.59385 0.0
H38 H 0.74749 0.87099 0.52305 0.0
Co39 Co 0.78222 0.88168 0.43134 0.0
C40 C 0.8088 0.86854 0.39163 0.0
O41 O 0.8158 0.88058 0.33623 0.0
N42 N 0.78912 0.88956 0.33008 0.0
C43 C 0.797 0.90727 0.22696 0.0
C44 C 0.79586 0.90696 0.30475 0.0
C45 C 0.78592 0.87948 0.26596 0.0
N46 N 0.79083 0.89 0.20271 0.0
O47 O 0.76039 0.85992 0.39462 0.0
H48 H 0.79918 0.91871 0.34005 0.0
H49 H 0.77975 0.86468 0.26558 0.0
O50 O 0.79607 0.86809 0.43344 0.0
C51 C 0.74831 0.86394 0.37277 0.0
O52 O 0.75266 0.8813 0.37478 0.0
N53 N 0.80229 0.90387 0.46851 0.0
C54 C 0.82759 0.9403 0.50937 0.0
C55 C 0.83354 0.92821 0.48444 0.0
C56 C 0.8207 0.91002 0.46521 0.0
C57 C 0.79626 0.91512 0.49579 0.0
C58 C 0.80857 0.9332 0.51714 0.0
H59 H 0.82583 0.90132 0.44591 0.0
H60 H 0.78166 0.91016 0.4985 0.0
H61 H 0.79814 0.87762 0.59355 0.0
H62 H 0.74634 0.86673 0.67146 0.0
H63 H 0.80182 0.91925 0.19084 0.0
H64 H 0.84799 0.93282 0.47707 0.0
H65 H 0.80309 0.94156 0.53841 0.0
C66 C 0.12774 0.87937 0.54425 0.0
C67 C 0.12936 0.87852 0.62148 0.0
N68 N 0.14114 0.89553 0.6467 0.0
N69 N 0.13834 0.89687 0.52064 0.0
C70 C 0.14651 0.90645 0.58449 0.0
H71 H 0.11864 0.8681 0.50795 0.0
Co72 Co 0.1371 0.90392 0.42129 0.0
C73 C 0.14884 0.9439 0.44193 0.0
O74 O 0.13345 0.94157 0.41295 0.0
N75 N 0.13549 0.91064 0.31844 0.0
C76 C 0.12517 0.91724 0.2128 0.0
C77 C 0.12354 0.91555 0.29013 0.0
C78 C 0.14445 0.90974 0.25572 0.0
N79 N 0.1383 0.91357 0.19117 0.0
O80 O 0.1597 0.90404 0.39828 0.0
H81 H 0.11353 0.91716 0.32251 0.0
H82 H 0.15469 0.90555 0.25623 0.0
O83 O 0.15147 0.93021 0.44912 0.0
C84 C 0.15609 0.88774 0.38241 0.0
O85 O 0.13873 0.87484 0.3789 0.0
N86 N 0.11393 0.90126 0.4455 0.0
C87 C 0.0773 0.89 0.48165 0.0
C88 C 0.09186 0.90469 0.52033 0.0
C89 C 0.11011 0.90982 0.50267 0.0
C90 C 0.09995 0.88653 0.40966 0.0
C91 C 0.08162 0.88087 0.42587 0.0
H92 H 0.12109 0.9203 0.53628 0.0
H93 H 0.1031 0.87905 0.36808 0.0
H94 H 0.15524 0.92123 0.58631 0.0
H95 H 0.12195 0.86645 0.6569 0.0
H96 H 0.117 0.92047 0.17497 0.0
H97 H 0.08916 0.91172 0.56561 0.0
H98 H 0.07091 0.8694 0.39483 0.0
C99 C 0.26465 0.13754 0.48418 0.0
C100 C 0.26439 0.13913 0.40658 0.0
N101 N 0.24962 0.12397 0.37973 0.0
N102 N 0.25027 0.12133 0.50611 0.0
C103 C 0.24126 0.11338 0.44103 0.0
H104 H 0.27469 0.14764 0.5222 0.0
Co105 Co 0.24537 0.11332 0.60645 0.0
C106 C 0.21901 0.0732 0.5999 0.0
O107 O 0.20965 0.0752 0.6552 0.0
N108 N 0.2411 0.10555 0.70873 0.0
C109 C 0.24376 0.09241 0.81422 0.0
C110 C 0.24565 0.09336 0.73687 0.0
C111 C 0.23647 0.11188 0.7708 0.0
N112 N 0.23794 0.10399 0.83531 0.0
O113 O 0.26894 0.11431 0.61184 0.0
H114 H 0.2508 0.08611 0.70335 0.0
H115 H 0.23319 0.12279 0.76976 0.0
O116 O 0.23329 0.08731 0.57311 0.0
C117 C 0.2807 0.12891 0.64583 0.0
O118 O 0.27518 0.14005 0.67141 0.0
N119 N 0.22356 0.11478 0.60151 0.0
C120 C 0.19713 0.12577 0.58124 0.0
C121 C 0.19398 0.10855 0.5556 0.0
C122 C 0.20754 0.10359 0.56403 0.0
C123 C 0.22681 0.13142 0.62734 0.0
C124 C 0.21392 0.13718 0.61793 0.0
H125 H 0.2053 0.09118 0.53683 0.0
H126 H 0.24 0.14075 0.65238 0.0
H127 H 0.22898 0.10003 0.43827 0.0
H128 H 0.27411 0.15065 0.37252 0.0
H129 H 0.24699 0.08432 0.85249 0.0
H130 H 0.18136 0.09904 0.52714 0.0
H131 H 0.21761 0.15086 0.63649 0.0
C132 C 0.88034 0.12245 0.48318 0.0
C133 C 0.87736 0.11917 0.40672 0.0
N134 N 0.89376 0.1264 0.37172 0.0
N135 N 0.89855 0.13164 0.49684 0.0
C136 C 0.90646 0.13399 0.42752 0.0
H137 H 0.86987 0.1177 0.52667 0.0
Co138 Co 0.90769 0.13574 0.59579 0.0
C139 C 0.94751 0.14847 0.57772 0.0
O140 O 0.94607 0.13646 0.62915 0.0
N141 N 0.91643 0.14 0.69753 0.0
C142 C 0.93189 0.15533 0.80041 0.0
C143 C 0.93077 0.15586 0.72277 0.0
C144 C 0.90871 0.1303 0.76191 0.0
N145 N 0.91791 0.13924 0.82558 0.0
O146 O 0.9068 0.15829 0.59958 0.0
H147 H 0.93952 0.16751 0.68725 0.0
H148 H 0.89596 0.11743 0.76272 0.0
O149 O 0.9333 0.14936 0.5579 0.0
C150 C 0.89179 0.1552 0.63066 0.0
O151 O 0.88051 0.13843 0.65484 0.0
N152 N 0.90617 0.11245 0.5925 0.0
C153 C 0.89516 0.07509 0.57859 0.0
C154 C 0.91096 0.08856 0.54143 0.0
C155 C 0.9159 0.10714 0.54704 0.0
C156 C 0.8905 0.09941 0.62694 0.0
C157 C 0.88485 0.08074 0.62148 0.0
H158 H 0.92693 0.11696 0.51167 0.0
H159 H 0.88167 0.10343 0.65538 0.0
H160 H 0.9211 0.14014 0.41843 0.0
H161 H 0.86413 0.11162 0.37905 0.0
H162 H 0.94204 0.16627 0.83531 0.0
H163 H 0.91887 0.08467 0.50517 0.0
H164 H 0.87228 0.07077 0.64939 0.0
C165 C 0.89613 0.76218 0.47868 0.0
C166 C 0.8952 0.75878 0.40208 0.0
N167 N 0.88442 0.76455 0.37011 0.0
N168 N 0.88572 0.76977 0.49563 0.0
C169 C 0.87885 0.77123 0.42781 0.0
H170 H 0.90397 0.75932 0.51964 0.0
Co171 Co 0.88309 0.77612 0.5952 0.0
C172 C 0.85561 0.78818 0.57422 0.0
O173 O 0.84534 0.77717 0.62882 0.0
N174 N 0.88087 0.78247 0.69577 0.0
C175 C 0.88089 0.79782 0.79857 0.0
C176 C 0.88243 0.79836 0.72064 0.0
C177 C 0.87872 0.77265 0.75982 0.0
N178 N 0.87857 0.7816 0.8236 0.0
O179 O 0.86006 0.75314 0.60481 0.0
H180 H 0.88479 0.80976 0.68449 0.0
H181 H 0.87783 0.75938 0.75963 0.0
O182 O 0.8707 0.78887 0.55661 0.0
C183 C 0.86338 0.74029 0.62176 0.0
O184 O 0.88059 0.74469 0.63209 0.0
N185 N 0.90626 0.79728 0.58726 0.0
C186 C 0.94333 0.82393 0.57072 0.0
C187 C 0.92955 0.82572 0.53282 0.0
C188 C 0.91103 0.8121 0.54125 0.0
C189 C 0.91938 0.79559 0.62597 0.0
C190 C 0.93795 0.80873 0.61862 0.0
H191 H 0.90071 0.81317 0.50864 0.0
H192 H 0.9154 0.78358 0.66098 0.0
H193 H 0.86973 0.77673 0.42076 0.0
H194 H 0.90206 0.75269 0.37187 0.0
H195 H 0.88148 0.80865 0.83367 0.0
H196 H 0.9331 0.83713 0.49459 0.0
H197 H 0.94804 0.80685 0.64953 0.0
C198 C 0.80806 0.58799 0.87132 0.0
C199 C 0.80868 0.59008 0.94909 0.0
N200 N 0.79135 0.58288 0.97544 0.0
N201 N 0.79045 0.57958 0.84801 0.0
C202 C 0.78063 0.5767 0.91264 0.0
H203 H 0.81972 0.59197 0.83429 0.0
Co204 Co 0.78231 0.57216 0.74779 0.0
C205 C 0.74248 0.55953 0.76277 0.0
O206 O 0.74343 0.57024 0.70638 0.0
N207 N 0.77413 0.56447 0.64734 0.0
C208 C 0.75742 0.54665 0.55177 0.0
C209 C 0.76038 0.54755 0.62868 0.0
C210 C 0.77967 0.57349 0.57996 0.0
N211 N 0.76958 0.56293 0.52115 0.0
O212 O 0.78161 0.59462 0.73161 0.0
H213 H 0.75275 0.53655 0.66879 0.0
H214 H 0.79052 0.58762 0.574 0.0
O215 O 0.75686 0.55911 0.78332 0.0
C216 C 0.79759 0.60713 0.71094 0.0
O217 O 0.81033 0.60252 0.70297 0.0
N218 N 0.78504 0.55152 0.76222 0.0
C219 C 0.79593 0.5253 0.78421 0.0
C220 C 0.78063 0.52393 0.82291 0.0
C221 C 0.77546 0.53731 0.81155 0.0
C222 C 0.79968 0.55289 0.72338 0.0
C223 C 0.8053 0.53994 0.73317 0.0
H224 H 0.7642 0.53653 0.84407 0.0
H225 H 0.80732 0.56442 0.68561 0.0
H226 H 0.76583 0.56965 0.9139 0.0
H227 H 0.82102 0.59629 0.98321 0.0
H228 H 0.74708 0.53496 0.52055 0.0
H229 H 0.77312 0.51302 0.86358 0.0
H230 H 0.81701 0.54149 0.70125 0.0
C231 C 0.44122 0.23085 0.87103 0.0
C232 C 0.43929 0.23009 0.94864 0.0
N233 N 0.44044 0.2156 0.97413 0.0
N234 N 0.4439 0.21708 0.84761 0.0
C235 C 0.44312 0.20783 0.91192 0.0
H236 H 0.44129 0.24119 0.83414 0.0
Co237 Co 0.44991 0.2146 0.74751 0.0
C238 C 0.46267 0.18766 0.76495 0.0
O239 O 0.4517 0.17768 0.70984 0.0
N240 N 0.45614 0.21251 0.64697 0.0
C241 C 0.47302 0.21589 0.5444 0.0
C242 C 0.47318 0.21732 0.62213 0.0
C243 C 0.44578 0.20799 0.58316 0.0
N244 N 0.45579 0.20997 0.52013 0.0
O245 O 0.42714 0.19147 0.73883 0.0
H246 H 0.48512 0.22205 0.65817 0.0
H247 H 0.4314 0.20403 0.58237 0.0
O248 O 0.46314 0.20253 0.78459 0.0
C249 C 0.41409 0.19483 0.72748 0.0
O250 O 0.41825 0.21211 0.72291 0.0
N251 N 0.47091 0.23803 0.75432 0.0
C252 C 0.49732 0.2752 0.76703 0.0
C253 C 0.49986 0.26169 0.80308 0.0
C254 C 0.4863 0.24308 0.79693 0.0
C255 C 0.46855 0.25094 0.71719 0.0
C256 C 0.48149 0.26959 0.72318 0.0
H257 H 0.48797 0.2329 0.82795 0.0
H258 H 0.45614 0.24672 0.68472 0.0
H259 H 0.44527 0.19616 0.9137 0.0
H260 H 0.43747 0.2396 0.98393 0.0
H261 H 0.48467 0.21912 0.50826 0.0
H262 H 0.51187 0.26553 0.83789 0.0
H263 H 0.47907 0.27957 0.69416 0.0
C264 C 0.78928 0.2099 0.83347 0.0
C265 C 0.78987 0.20684 0.90983 0.0
N266 N 0.80139 0.22295 0.94334 0.0
N267 N 0.8005 0.22787 0.81809 0.0
C268 C 0.80771 0.23553 0.88655 0.0
H269 H 0.78113 0.19966 0.79153 0.0
Co270 Co 0.80428 0.23764 0.71862 0.0
C271 C 0.81251 0.27522 0.77334 0.0
O272 O 0.79585 0.27193 0.75801 0.0
N273 N 0.80871 0.24719 0.6175 0.0
C274 C 0.81324 0.26396 0.51302 0.0
C275 C 0.81125 0.26337 0.59071 0.0
C276 C 0.8094 0.23829 0.55439 0.0
N277 N 0.81197 0.24809 0.48965 0.0
O278 O 0.82743 0.23785 0.71501 0.0
H279 H 0.81133 0.27409 0.62437 0.0
H280 H 0.80721 0.22448 0.5559 0.0
O281 O 0.81695 0.26297 0.75959 0.0
C282 C 0.8244 0.22178 0.69834 0.0
O283 O 0.80733 0.20889 0.68583 0.0
N284 N 0.77992 0.23493 0.71979 0.0
C285 C 0.74126 0.21896 0.72189 0.0
C286 C 0.75174 0.22682 0.78767 0.0
C287 C 0.77101 0.23484 0.78528 0.0
C288 C 0.76982 0.22819 0.65487 0.0
C289 C 0.75084 0.22089 0.6542 0.0
H290 H 0.77856 0.24002 0.83756 0.0
H291 H 0.77592 0.227 0.60321 0.0
H292 H 0.81757 0.24994 0.89461 0.0
H293 H 0.78227 0.19376 0.93877 0.0
H294 H 0.8154 0.27528 0.47686 0.0
H295 H 0.74516 0.22584 0.84162 0.0
H296 H 0.74367 0.21575 0.60095 0.0
C297 C 0.92781 0.46881 0.81329 0.0
C298 C 0.93026 0.46933 0.73615 0.0
N299 N 0.92249 0.45195 0.71074 0.0
N300 N 0.91845 0.45119 0.83672 0.0
C301 C 0.91546 0.44114 0.77278 0.0
H302 H 0.93177 0.48056 0.8496 0.0
Co303 Co 0.90982 0.44506 0.93588 0.0
C304 C 0.88132 0.40513 0.92824 0.0
O305 O 0.86997 0.40821 0.96818 0.0
N306 N 0.90122 0.43947 0.03911 0.0
C307 C 0.88538 0.43633 0.14544 0.0
C308 C 0.88562 0.4381 0.06818 0.0
C309 C 0.91005 0.43813 0.10148 0.0
N310 N 0.90075 0.43641 0.16641 0.0
O311 O 0.93194 0.44448 0.96242 0.0
H312 H 0.87485 0.43847 0.03617 0.0
H313 H 0.92342 0.43922 0.10043 0.0
O314 O 0.8972 0.41853 0.9108 0.0
C315 C 0.94445 0.46059 0.98164 0.0
O316 O 0.93994 0.47346 0.98616 0.0
N317 N 0.88984 0.44821 0.90789 0.0
C318 C 0.8646 0.45963 0.87067 0.0
C319 C 0.86279 0.44327 0.84077 0.0
C320 C 0.8758 0.43798 0.85883 0.0
C321 C 0.89231 0.46456 0.93408 0.0
C322 C 0.87976 0.47035 0.91742 0.0
H323 H 0.87475 0.42594 0.8321 0.0
H324 H 0.90405 0.47303 0.96959 0.0
H325 H 0.90734 0.42631 0.77077 0.0
H326 H 0.93672 0.48154 0.70094 0.0
H327 H 0.87485 0.43539 0.18366 0.0
H328 H 0.85169 0.43487 0.80225 0.0
H329 H 0.88186 0.48307 0.94192 0.0
C330 C 0.56182 0.47924 0.77634 0.0
C331 C 0.56335 0.48137 0.69914 0.0
N332 N 0.57762 0.47953 0.67635 0.0
N333 N 0.57507 0.47608 0.80269 0.0
C334 C 0.58461 0.47639 0.74015 0.0
H335 H 0.55095 0.47888 0.81029 0.0
Co336 Co 0.57524 0.46876 0.90251 0.0
C337 C 0.61481 0.48187 0.94349 0.0
O338 O 0.60958 0.46962 0.99812 0.0
N339 N 0.57421 0.461 1.00401 0.0
C340 C 0.56463 0.44337 0.10734 0.0
C341 C 0.56376 0.4436 0.02958 0.0
C342 C 0.58101 0.47116 0.06799 0.0
N343 N 0.57556 0.46069 0.13136 0.0
O344 O 0.5749 0.4905 0.93824 0.0
H345 H 0.55547 0.43178 0.99453 0.0
H346 H 0.58953 0.48598 0.06815 0.0
O347 O 0.60269 0.48249 0.90119 0.0
C348 C 0.55881 0.48645 0.9603 0.0
O349 O 0.54594 0.46904 0.95978 0.0
N350 N 0.57337 0.4466 0.86608 0.0
C351 C 0.56271 0.41015 0.82732 0.0
C352 C 0.58085 0.42265 0.84966 0.0
C353 C 0.58597 0.44084 0.86775 0.0
C354 C 0.556 0.435 0.84069 0.0
C355 C 0.55044 0.41687 0.8206 0.0
H356 H 0.59991 0.44986 0.88461 0.0
H357 H 0.54613 0.43969 0.8388 0.0
H358 H 0.59549 0.47304 0.74067 0.0
H359 H 0.55415 0.48324 0.66195 0.0
H360 H 0.55765 0.4314 0.14359 0.0
H361 H 0.59097 0.41836 0.85586 0.0
H362 H 0.53649 0.40818 0.80113 0.0
C363 C 0.53734 0.08221 0.78789 0.0
C364 C 0.53522 0.08147 0.71056 0.0
N365 N 0.53765 0.09775 0.68648 0.0
N366 N 0.5411 0.09889 0.813 0.0
C367 C 0.54112 0.1081 0.74967 0.0
H368 H 0.53721 0.07157 0.82288 0.0
Co369 Co 0.54871 0.1068 0.91227 0.0
C370 C 0.53957 0.13644 0.944 0.0
O371 O 0.55288 0.14379 0.99417 0.0
N372 N 0.55667 0.11411 1.01349 0.0
C373 C 0.57398 0.12145 0.11751 0.0
C374 C 0.57385 0.12007 0.03991 0.0
C375 C 0.54657 0.11187 0.07693 0.0
N376 N 0.55684 0.11632 0.14077 0.0
O377 O 0.52614 0.08596 0.95023 0.0
H378 H 0.58554 0.12257 1.00583 0.0
H379 H 0.53185 0.1064 0.07657 0.0
O380 O 0.5369 0.12219 0.90696 0.0
C381 C 0.52959 0.07363 0.97438 0.0
O382 O 0.54678 0.07739 0.97314 0.0
N383 N 0.57155 0.12541 0.87373 0.0
C384 C 0.60748 0.14651 0.81835 0.0
C385 C 0.59684 0.15472 0.8349 0.0
C386 C 0.57871 0.14384 0.86164 0.0
C387 C 0.58169 0.11732 0.85683 0.0
C388 C 0.59958 0.12753 0.82953 0.0
H389 H 0.57066 0.15035 0.87145 0.0
H390 H 0.57586 0.10272 0.8662 0.0
H391 H 0.54489 0.12245 0.74922 0.0
H392 H 0.53283 0.0701 0.67427 0.0
H393 H 0.58571 0.12553 0.15433 0.0
H394 H 0.60232 0.16929 0.82565 0.0
H395 H 0.60726 0.12059 0.81801 0.0
C396 C 0.47512 0.91882 0.22344 0.0
C397 C 0.47626 0.92157 0.30069 0.0
N398 N 0.45942 0.91689 0.32729 0.0
N399 N 0.45765 0.91241 0.20075 0.0
C400 C 0.44843 0.91154 0.26514 0.0
H401 H 0.48626 0.92099 0.18619 0.0
Co402 Co 0.44939 0.90563 0.10032 0.0
C403 C 0.4109 0.87574 0.14941 0.0
O404 O 0.41467 0.86243 0.14233 0.0
N405 N 0.44114 0.89925 0.99833 0.0
C406 C 0.42507 0.88395 0.89638 0.0
C407 C 0.42717 0.88307 0.97324 0.0
C408 C 0.44758 0.90966 0.93445 0.0
N409 N 0.43793 0.90062 0.87207 0.0
O410 O 0.44838 0.9281 0.08922 0.0
H411 H 0.41906 0.87111 1.00761 0.0
H412 H 0.45894 0.92362 0.93358 0.0
O413 O 0.42323 0.8924 0.13479 0.0
C414 C 0.46454 0.94146 0.07618 0.0
O415 O 0.47795 0.93777 0.06982 0.0
N416 N 0.45294 0.88481 0.10985 0.0
C417 C 0.46533 0.8593 0.12114 0.0
C418 C 0.45629 0.86214 0.18211 0.0
C419 C 0.45046 0.87512 0.17575 0.0
C420 C 0.46242 0.88268 0.05148 0.0
C421 C 0.46838 0.86987 0.05535 0.0
H422 H 0.44402 0.8774 0.22432 0.0
H423 H 0.46617 0.89148 1.00216 0.0
H424 H 0.43381 0.90646 0.26673 0.0
H425 H 0.4886 0.92657 0.33442 0.0
H426 H 0.41498 0.87312 0.86073 0.0
H427 H 0.4538 0.85449 0.23449 0.0
H428 H 0.476 0.86881 1.00793 0.0
C429 C 0.09958 0.55847 0.2176 0.0
C430 C 0.1004 0.56015 0.2956 0.0
N431 N 0.10994 0.55239 0.32284 0.0
N432 N 0.10847 0.54961 0.19567 0.0
C433 C 0.1145 0.54599 0.26108 0.0
H434 H 0.09345 0.56393 0.17911 0.0
Co435 Co 0.11307 0.54576 0.09525 0.0
C436 C 0.14267 0.53625 0.11359 0.0
O437 O 0.15316 0.54944 0.06611 0.0
N438 N 0.11734 0.54129 0.99315 0.0
C439 C 0.11926 0.52507 0.8969 0.0
C440 C 0.11638 0.52527 0.97334 0.0
C441 C 0.12007 0.5503 0.92592 0.0
N442 N 0.12149 0.54076 0.8672 0.0
O443 O 0.09022 0.52254 0.09418 0.0
H444 H 0.11341 0.51411 1.01202 0.0
H445 H 0.1209 0.56345 0.91887 0.0
O446 O 0.12673 0.53364 0.13084 0.0
C447 C 0.07799 0.52586 0.06798 0.0
O448 O 0.08325 0.54283 0.04732 0.0
N449 N 0.13385 0.56973 0.09585 0.0
C450 C 0.1542 0.60792 0.11857 0.0
C451 C 0.15848 0.59607 0.15888 0.0
C452 C 0.14796 0.57692 0.14736 0.0
C453 C 0.12993 0.5812 0.05564 0.0
C454 C 0.14025 0.60018 0.06386 0.0
H455 H 0.15012 0.56797 0.18476 0.0
H456 H 0.11746 0.57558 0.02268 0.0
H457 H 0.12243 0.53909 0.26353 0.0
H458 H 0.09506 0.56721 0.32917 0.0
H459 H 0.11925 0.51405 0.86506 0.0
H460 H 0.16879 0.60137 0.20316 0.0
H461 H 0.13628 0.60865 0.03169 0.0
C462 C 0.4649 0.54453 0.21898 0.0
C463 C 0.46674 0.54394 0.29615 0.0
N464 N 0.47772 0.5612 0.3209 0.0
N465 N 0.47457 0.56209 0.19489 0.0
C466 C 0.4824 0.572 0.25844 0.0
H467 H 0.45617 0.53299 0.18315 0.0
Co468 Co 0.47235 0.56846 0.09565 0.0
C469 C 0.48438 0.60849 0.10814 0.0
O470 O 0.46889 0.60561 0.078 0.0
N471 N 0.46971 0.5744 0.99265 0.0
C472 C 0.45823 0.57962 0.8871 0.0
C473 C 0.45673 0.5779 0.96443 0.0
C474 C 0.47913 0.57442 0.92982 0.0
N475 N 0.47229 0.57741 0.86532 0.0
O476 O 0.49465 0.56822 0.0695 0.0
H477 H 0.44637 0.57886 0.99701 0.0
H478 H 0.49033 0.57156 0.93025 0.0
O479 O 0.48712 0.59498 0.11963 0.0
C480 C 0.49102 0.55191 0.0538 0.0
O481 O 0.47366 0.53898 0.05087 0.0
N482 N 0.44956 0.56624 0.12397 0.0
C483 C 0.41371 0.5555 0.17194 0.0
C484 C 0.42902 0.57075 0.20451 0.0
C485 C 0.44684 0.57568 0.18076 0.0
C486 C 0.43491 0.55103 0.09374 0.0
C487 C 0.41693 0.54565 0.11567 0.0
H488 H 0.4584 0.58667 0.20994 0.0
H489 H 0.43726 0.54285 0.05276 0.0
H490 H 0.49025 0.58685 0.25993 0.0
H491 H 0.45994 0.53185 0.33191 0.0
H492 H 0.44946 0.58205 0.84945 0.0
H493 H 0.4273 0.57862 0.24906 0.0
H494 H 0.40571 0.5334 0.0908 0.0
C495 C 0.59146 0.80625 0.1385 0.0
C496 C 0.59066 0.80892 0.06206 0.0
N497 N 0.58249 0.79242 0.02789 0.0
N498 N 0.58374 0.78813 0.15295 0.0
C499 C 0.57849 0.77997 0.08409 0.0
H500 H 0.59649 0.81682 0.18152 0.0
Co501 Co 0.57932 0.77937 0.25243 0.0
C502 C 0.55293 0.73947 0.24208 0.0
O503 O 0.54317 0.74166 0.29507 0.0
N504 N 0.57556 0.77113 0.35462 0.0
C505 C 0.57688 0.7564 0.45759 0.0
C506 C 0.57862 0.75772 0.38012 0.0
C507 C 0.57253 0.77814 0.4187 0.0
N508 N 0.57315 0.76935 0.48243 0.0
O509 O 0.60307 0.78091 0.25517 0.0
H510 H 0.58248 0.74969 0.34468 0.0
H511 H 0.57089 0.79007 0.41921 0.0
O512 O 0.56762 0.75347 0.21723 0.0
C513 C 0.61522 0.79647 0.28101 0.0
O514 O 0.60992 0.80808 0.30248 0.0
N515 N 0.55707 0.78012 0.24898 0.0
C516 C 0.5309 0.79095 0.21823 0.0
C517 C 0.52924 0.77478 0.18707 0.0
C518 C 0.54272 0.76998 0.20095 0.0
C519 C 0.55873 0.79567 0.2809 0.0
C520 C 0.5458 0.80123 0.267 0.0
H521 H 0.54215 0.75888 0.16825 0.0
H522 H 0.57105 0.80477 0.31197 0.0
H523 H 0.57087 0.76524 0.07571 0.0
H524 H 0.59524 0.82197 0.03386 0.0
H525 H 0.57864 0.7468 0.49256 0.0
H526 H 0.5181 0.76627 0.149 0.0
H527 H 0.54827 0.81418 0.29028 0.0
C528 C 0.21241 0.78862 0.1676 0.0
C529 C 0.20967 0.78553 0.09095 0.0
N530 N 0.22618 0.79331 0.05664 0.0
N531 N 0.23058 0.79819 0.18203 0.0
C532 C 0.23869 0.801 0.11297 0.0
H533 H 0.20182 0.78343 0.21067 0.0
Co534 Co 0.23963 0.80218 0.28118 0.0
C535 C 0.27859 0.81218 0.26545 0.0
O536 O 0.27567 0.7997 0.31717 0.0
N537 N 0.24846 0.80649 0.38325 0.0
C538 C 0.26455 0.82207 0.48483 0.0
C539 C 0.26307 0.82234 0.4072 0.0
C540 C 0.24103 0.79705 0.44849 0.0
N541 N 0.2506 0.80613 0.51115 0.0
O542 O 0.24001 0.8254 0.28298 0.0
H543 H 0.27183 0.83376 0.37065 0.0
H544 H 0.22827 0.78424 0.45115 0.0
O545 O 0.26523 0.81432 0.24357 0.0
C546 C 0.22472 0.82231 0.31109 0.0
O547 O 0.21321 0.80553 0.33447 0.0
N548 N 0.23656 0.77822 0.2795 0.0
C549 C 0.21935 0.74019 0.25357 0.0
C550 C 0.23586 0.75234 0.21652 0.0
C551 C 0.24415 0.77141 0.22947 0.0
C552 C 0.22074 0.76645 0.31645 0.0
C553 C 0.21234 0.74754 0.30656 0.0
H554 H 0.25559 0.7806 0.19406 0.0
H555 H 0.21339 0.7718 0.34761 0.0
H556 H 0.25338 0.80751 0.1044 0.0
H557 H 0.19655 0.77768 0.06269 0.0
H558 H 0.27495 0.83299 0.51901 0.0
H559 H 0.24145 0.74734 0.1734 0.0
H560 H 0.19951 0.73881 0.33579 0.0
C561 C 0.22672 0.42492 0.15042 0.0
C562 C 0.22829 0.42519 0.07264 0.0
N563 N 0.22636 0.43913 0.04586 0.0
N564 N 0.22352 0.43845 0.17242 0.0
C565 C 0.22349 0.44697 0.10717 0.0
H566 H 0.22778 0.41538 0.18843 0.0
Co567 Co 0.21956 0.44279 0.27253 0.0
C568 C 0.20752 0.47047 0.26144 0.0
O569 O 0.21946 0.48015 0.31442 0.0
N570 N 0.215 0.44658 0.37452 0.0
C571 C 0.19794 0.44379 0.47613 0.0
C572 C 0.19797 0.4421 0.39872 0.0
C573 C 0.22515 0.4511 0.4391 0.0
N574 N 0.21504 0.44952 0.50114 0.0
O575 O 0.19679 0.41941 0.27352 0.0
H576 H 0.18606 0.43722 0.36243 0.0
H577 H 0.23934 0.45454 0.44215 0.0
O578 O 0.20641 0.45553 0.2378 0.0
C579 C 0.19966 0.40722 0.30351 0.0
O580 O 0.2162 0.41241 0.32962 0.0
N581 N 0.24303 0.46425 0.27203 0.0
C582 C 0.28065 0.4901 0.26792 0.0
C583 C 0.26804 0.49304 0.22665 0.0
C584 C 0.24922 0.47985 0.22906 0.0
C585 C 0.25535 0.46085 0.30842 0.0
C586 C 0.27406 0.47374 0.30906 0.0
H587 H 0.23988 0.48196 0.19414 0.0
H588 H 0.25062 0.44771 0.33578 0.0
H589 H 0.22109 0.45847 0.10416 0.0
H590 H 0.23088 0.41603 0.03839 0.0
H591 H 0.18621 0.44064 0.51166 0.0
H592 H 0.2727 0.5053 0.19243 0.0
H593 H 0.28341 0.47063 0.33933 0.0
H594 H 0.19151 0.15112 0.66193 0.0
H595 H 0.17233 0.11601 0.46244 0.0
H596 H 0.15108 0.12724 0.43435 0.0
H597 H 0.14872 0.14913 0.71265 0.0
H598 H 0.15967 0.17312 0.73735 0.0
H599 H 0.17196 0.16077 0.74796 0.0
H600 H 0.19818 0.1847 0.66287 0.0
H601 H 0.18602 0.19717 0.65229 0.0
H602 H 0.19285 0.1895 0.56942 0.0
H603 H 0.13241 0.14305 0.42421 0.0
H604 H 0.11999 0.16421 0.4268 0.0
H605 H 0.15329 0.19127 0.6246 0.0
C606 C 0.18296 0.14572 0.61207 0.0
C607 C 0.18366 0.13228 0.56553 0.0
C608 C 0.17188 0.12573 0.50124 0.0
C609 C 0.15977 0.13219 0.48408 0.0
C610 C 0.15963 0.14547 0.53077 0.0
C611 C 0.17107 0.15233 0.59294 0.0
C612 C 0.16927 0.16763 0.6304 0.0
C613 C 0.16197 0.16234 0.71193 0.0
C614 C 0.18767 0.18583 0.6286 0.0
C615 C 0.15517 0.16841 0.57901 0.0
C616 C 0.14955 0.15527 0.52272 0.0
C617 C 0.13668 0.15335 0.46818 0.0
C618 C 0.12961 0.16537 0.47039 0.0
C619 C 0.13559 0.17935 0.52604 0.0
C620 C 0.14845 0.18073 0.58138 0.0
H621 H 0.86103 0.04786 0.53496 0.0
H622 H 0.91479 0.05744 0.60152 0.0
H623 H 0.90354 0.02401 0.59228 0.0
H624 H 0.83409 1.00541 0.63294 0.0
H625 H 0.81718 0.99516 0.55876 0.0
H626 H 0.82951 0.01972 0.5707 0.0
H627 H 0.84035 0.02394 0.43069 0.0
H628 H 0.82794 0.99939 0.41818 0.0
H629 H 0.85215 0.01234 0.39699 0.0
H630 H 0.8855 0.98901 0.58235 0.0
H631 H 0.86342 0.95616 0.56227 0.0
H632 H 0.82231 0.97014 0.49133 0.0
C633 C 0.87042 0.04289 0.54764 0.0
C634 C 0.88875 0.05518 0.56959 0.0
C635 C 0.90071 0.04823 0.58455 0.0
C636 C 0.89441 0.02928 0.57973 0.0
C637 C 0.87618 0.01749 0.55869 0.0
C638 C 0.86445 0.0241 0.54181 0.0
C639 C 0.84566 0.00868 0.51859 0.0
C640 C 0.83073 1.00716 0.57354 0.0
C641 C 0.84127 0.01124 0.43622 0.0
C642 C 0.84852 0.9923 0.52602 0.0
C643 C 0.86614 0.99761 0.54973 0.0
C644 C 0.87174 0.98476 0.5627 0.0
C645 C 0.85906 0.96605 0.55052 0.0
C646 C 0.84095 0.96024 0.52461 0.0
C647 C 0.83581 0.97377 0.51227 0.0
H648 H 0.97116 0.8164 0.54657 0.0
H649 H 0.96051 0.86171 0.56648 0.0
H650 H 0.99371 0.88374 0.5487 0.0
H651 H 0.01432 0.83743 0.64573 0.0
H652 H 0.02446 0.82783 0.58403 0.0
H653 H 0.99997 0.81582 0.5989 0.0
H654 H 0.99475 0.81536 0.45377 0.0
H655 H 0.01921 0.82733 0.43843 0.0
H656 H 1.00556 0.83666 0.40134 0.0
H657 H 0.02861 0.90086 0.53115 0.0
H658 H 0.06145 0.91133 0.50706 0.0
H659 H 0.04873 0.85458 0.49754 0.0
C660 C 0.9758 0.83096 0.54782 0.0
C661 C 0.96322 0.83733 0.55854 0.0
C662 C 0.96987 0.8565 0.5581 0.0
C663 C 0.98871 0.86912 0.54844 0.0
C664 C 1.00075 0.86235 0.53864 0.0
C665 C 0.99449 0.84369 0.53768 0.0
C666 C 1.01009 0.83986 0.52434 0.0
C667 C 0.01234 0.82963 0.59231 0.0
C668 C 1.00723 0.82917 0.45005 0.0
C669 C 0.02616 0.85927 0.51814 0.0
C670 C 0.02056 0.87209 0.52701 0.0
C671 C 0.0331 0.89091 0.524 0.0
C672 C 0.05175 0.89674 0.51073 0.0
C673 C 0.0577 0.88381 0.49997 0.0
C674 C 0.04464 0.86484 0.50443 0.0
H675 H 0.80145 0.84379 0.51049 0.0
H676 H 0.83477 0.86636 0.30758 0.0
H677 H 0.84955 0.848 0.33163 0.0
H678 H 0.83649 0.84281 0.62424 0.0
H679 H 0.8212 0.82132 0.6704 0.0
H680 H 0.81261 0.83591 0.63716 0.0
H681 H 0.7879 0.80906 0.5575 0.0
H682 H 0.7964 0.79438 0.59056 0.0
H683 H 0.79484 0.79756 0.49018 0.0
H684 H 0.86176 0.82834 0.37799 0.0
H685 H 0.87009 0.8076 0.44343 0.0
H686 H 0.82888 0.7966 0.61584 0.0
C687 C 0.81177 0.84476 0.47095 0.0
C688 C 0.81691 0.85663 0.40714 0.0
C689 C 0.83055 0.8575 0.35702 0.0
C690 C 0.83907 0.84708 0.37005 0.0
C691 C 0.83385 0.83568 0.4334 0.0
C692 C 0.82048 0.83433 0.48301 0.0
C693 C 0.8177 0.82103 0.54714 0.0
C694 C 0.82228 0.83086 0.6243 0.0
C695 C 0.79804 0.80453 0.54626 0.0
C696 C 0.83168 0.8153 0.52578 0.0
C697 C 0.84082 0.82398 0.45993 0.0
C698 C 0.85464 0.82136 0.42943 0.0
C699 C 0.8593 0.80956 0.46718 0.0
C700 C 0.85013 0.80037 0.53469 0.0
C701 C 0.83606 0.80327 0.56402 0.0
H702 H 0.18353 0.04561 0.58909 0.0
H703 H 0.23936 0.05878 0.54011 0.0
H704 H 0.22782 0.02661 0.4982 0.0
H705 H 0.16665 1.00024 0.65894 0.0
H706 H 0.14441 0.99114 0.61502 0.0
H707 H 0.15718 0.01501 0.64134 0.0
H708 H 0.15521 0.02458 0.50323 0.0
H709 H 0.14224 1.00073 0.47669 0.0
H710 H 0.16303 0.01609 0.42631 0.0
H711 H 0.20961 0.99183 0.46965 0.0
H712 H 0.18647 0.95948 0.43968 0.0
H713 H 0.14286 0.97055 0.49882 0.0
C714 C 0.19334 0.04174 0.56931 0.0
C715 C 0.21235 0.0546 0.56829 0.0
C716 C 0.22473 0.04911 0.54107 0.0
C717 C 0.21829 0.03086 0.51769 0.0
C718 C 0.19942 0.01841 0.52063 0.0
C719 C 0.18713 0.02379 0.54437 0.0
C720 C 0.1675 0.00814 0.53958 0.0
C721 C 0.15841 1.00335 0.61841 0.0
C722 C 0.15634 0.01266 0.48307 0.0
C723 C 0.17057 0.99298 0.51008 0.0
C724 C 0.18906 0.999 0.50051 0.0
C725 C 0.19511 0.98708 0.47621 0.0
C726 C 0.1819 0.96872 0.45979 0.0
C727 C 0.1629 0.96258 0.4664 0.0
C728 C 0.15729 0.97491 0.49246 0.0
H729 H 0.9739 0.1407 0.53242 0.0
H730 H 0.96263 0.18547 0.55549 0.0
H731 H 0.99486 0.20767 0.51939 0.0
H732 H 0.01913 0.16301 0.60326 0.0
H733 H 0.02783 0.15316 0.53556 0.0
H734 H 1.00391 0.14091 0.56172 0.0
H735 H 0.99456 0.13907 0.42047 0.0
H736 H 0.01845 0.15112 0.39374 0.0
H737 H 1.00366 0.15986 0.365 0.0
H738 H 0.02956 0.22511 0.49416 0.0
H739 H 0.06211 0.23583 0.46092 0.0
H740 H 0.04943 0.17929 0.441 0.0
C741 C 0.9782 0.15517 0.52889 0.0
C742 C 0.96589 0.16145 0.54681 0.0
C743 C 0.97188 0.18043 0.54133 0.0
C744 C 0.99016 0.19311 0.52142 0.0
C745 C 1.00211 0.1865 0.5054 0.0
C746 C 0.9962 0.16791 0.50696 0.0
C747 C 1.01152 0.16424 0.48516 0.0
C748 C 0.01585 0.15477 0.55032 0.0
C749 C 1.00676 0.1529 0.41172 0.0
C750 C 0.02712 0.18368 0.47265 0.0
C751 C 0.02154 0.19638 0.48571 0.0
C752 C 0.03395 0.21525 0.4824 0.0
C753 C 0.05241 0.22123 0.46397 0.0
C754 C 0.05815 0.20838 0.44749 0.0
C755 C 0.0453 0.1894 0.45204 0.0
H756 H 0.87136 0.49475 0.84223 0.0
H757 H 0.82693 0.43833 0.86101 0.0
H758 H 0.80439 0.44871 0.8401 0.0
H759 H 0.84901 0.51512 0.94187 0.0
H760 H 0.85837 0.53528 0.88235 0.0
H761 H 0.87089 0.52325 0.8958 0.0
H762 H 0.87202 0.51961 0.75021 0.0
H763 H 0.85954 0.53167 0.73629 0.0
H764 H 0.85092 0.50907 0.69669 0.0
H765 H 0.78655 0.46579 0.82207 0.0
H766 H 0.77531 0.48771 0.80219 0.0
H767 H 0.83162 0.53276 0.79791 0.0
C768 C 0.8569 0.48452 0.84224 0.0
C769 C 0.85097 0.46568 0.85358 0.0
C770 C 0.83188 0.4528 0.85171 0.0
C771 C 0.81895 0.4586 0.84038 0.0
C772 C 0.82529 0.47732 0.83064 0.0
C773 C 0.84385 0.49005 0.83102 0.0
C774 C 0.84718 0.50938 0.81979 0.0
C775 C 0.85694 0.52146 0.88908 0.0
C776 C 0.85805 0.51793 0.74637 0.0
C777 C 0.82761 0.50558 0.81328 0.0
C778 C 0.81514 0.48703 0.81986 0.0
C779 C 0.79623 0.48034 0.81664 0.0
C780 C 0.78996 0.49291 0.8058 0.0
C781 C 0.80254 0.51198 0.79797 0.0
C782 C 0.8216 0.51827 0.8023 0.0
H783 H 0.49021 0.30209 0.81319 0.0
H784 H 0.53448 0.29321 0.74113 0.0
H785 H 0.55626 0.32678 0.74815 0.0
H786 H 0.50406 0.34382 0.71375 0.0
H787 H 0.49774 0.35421 0.78853 0.0
H788 H 0.48586 0.3296 0.77878 0.0
H789 H 0.49386 0.32629 0.91787 0.0
H790 H 0.50562 0.3509 0.92826 0.0
H791 H 0.5175 0.33847 0.94822 0.0
H792 H 0.57264 0.36182 0.75517 0.0
H793 H 0.58285 0.39464 0.77253 0.0
H794 H 0.52812 0.37998 0.85084 0.0
C795 C 0.50452 0.30724 0.79915 0.0
C796 C 0.5107 0.29512 0.77616 0.0
C797 C 0.52953 0.30229 0.75908 0.0
C798 C 0.54194 0.32132 0.7626 0.0
C799 C 0.53534 0.33294 0.78452 0.0
C800 C 0.51711 0.3261 0.80369 0.0
C801 C 0.51352 0.34139 0.82699 0.0
C802 C 0.49946 0.3423 0.77383 0.0
C803 C 0.50726 0.33913 0.91028 0.0
C804 C 0.53249 0.35797 0.81671 0.0
C805 C 0.54488 0.35286 0.79174 0.0
C806 C 0.56309 0.36591 0.77589 0.0
C807 C 0.5688 0.38461 0.78649 0.0
C808 C 0.55644 0.39022 0.81367 0.0
C809 C 0.53802 0.37649 0.8289 0.0
H810 H 0.71551 0.22169 0.81458 0.0
H811 H 0.71995 0.18832 0.6364 0.0
H812 H 0.68661 0.16879 0.63506 0.0
H813 H 0.67982 0.18309 0.91615 0.0
H814 H 0.66783 0.19485 0.94512 0.0
H815 H 0.69224 0.20767 0.92856 0.0
H816 H 0.68762 0.22828 0.83196 0.0
H817 H 0.66316 0.21543 0.84786 0.0
H818 H 0.67217 0.21783 0.7531 0.0
H819 H 0.65317 0.15208 0.65264 0.0
H820 H 0.62114 0.13737 0.69703 0.0
H821 H 0.63688 0.17934 0.86984 0.0
C822 C 0.70951 0.21034 0.77504 0.0
C823 C 0.72068 0.20716 0.72365 0.0
C824 C 0.712 0.19185 0.67394 0.0
C825 C 0.69293 0.18043 0.67312 0.0
C826 C 0.68242 0.1841 0.72323 0.0
C827 C 0.69029 0.19849 0.77406 0.0
C828 C 0.67561 0.19843 0.82503 0.0
C829 C 0.67908 0.19585 0.90867 0.0
C830 C 0.67458 0.21604 0.81379 0.0
C831 C 0.6584 0.18168 0.79497 0.0
C832 C 0.66277 0.17383 0.73565 0.0
C833 C 0.64954 0.15807 0.69911 0.0
C834 C 0.63138 0.14978 0.72487 0.0
C835 C 0.62648 0.15711 0.78709 0.0
C836 C 0.64017 0.17353 0.82165 0.0
H837 H 0.46917 0.15952 0.72555 0.0
H838 H 0.48372 0.20281 0.89149 0.0
H839 H 0.50423 0.19387 0.95505 0.0
H840 H 0.46923 0.12595 0.85541 0.0
H841 H 0.47913 0.11728 0.78781 0.0
H842 H 0.46526 0.12678 0.75528 0.0
H843 H 0.49196 0.14965 0.66929 0.0
H844 H 0.5059 0.14022 0.70155 0.0
H845 H 0.5142 0.16449 0.7106 0.0
H846 H 0.52336 0.18075 1.00015 0.0
H847 H 0.54035 0.16448 0.02415 0.0
H848 H 0.51397 0.12934 0.8296 0.0
C849 C 0.47661 0.16708 0.77545 0.0
C850 C 0.47479 0.18192 0.8034 0.0
C851 C 0.48488 0.19147 0.86866 0.0
C852 C 0.49656 0.18646 0.90535 0.0
C853 C 0.49808 0.17186 0.87625 0.0
C854 C 0.48843 0.16229 0.8128 0.0
C855 C 0.49286 0.1473 0.7929 0.0
C856 C 0.47559 0.12819 0.79818 0.0
C857 C 0.50176 0.15062 0.7139 0.0
C858 C 0.50654 0.14999 0.85507 0.0
C859 C 0.50926 0.16424 0.90242 0.0
C860 C 0.52133 0.16957 0.96351 0.0
C861 C 0.53096 0.1602 0.97656 0.0
C862 C 0.52857 0.14558 0.92885 0.0
C863 C 0.51607 0.14038 0.86737 0.0
H864 H 0.80638 0.30114 0.83852 0.0
H865 H 0.85026 0.29191 0.76331 0.0
H866 H 0.87306 0.32421 0.79467 0.0
H867 H 0.82462 0.34634 0.7678 0.0
H868 H 0.81716 0.3544 0.84743 0.0
H869 H 0.80458 0.33052 0.82131 0.0
H870 H 0.80855 0.3212 0.95733 0.0
H871 H 0.82101 0.34506 0.98409 0.0
H872 H 0.83127 0.33084 0.99718 0.0
H873 H 0.89092 0.35879 0.82732 0.0
H874 H 0.90202 0.3909 0.86841 0.0
H875 H 0.84613 0.37628 0.92603 0.0
C876 C 0.82079 0.30584 0.82907 0.0
C877 C 0.82651 0.29399 0.79817 0.0
C878 C 0.84554 0.3007 0.78723 0.0
C879 C 0.85858 0.31906 0.80456 0.0
C880 C 0.85241 0.33048 0.83373 0.0
C881 C 0.83394 0.32397 0.84687 0.0
C882 C 0.83071 0.33882 0.87899 0.0
C883 C 0.81855 0.34275 0.82568 0.0
C884 C 0.8224 0.33367 0.95916 0.0
C885 C 0.85019 0.35483 0.88104 0.0
C886 C 0.86257 0.34988 0.8544 0.0
C887 C 0.88131 0.36271 0.84899 0.0
C888 C 0.8875 0.38094 0.87218 0.0
C889 C 0.875 0.38613 0.90106 0.0
C890 C 0.85612 0.37279 0.90508 0.0
H891 H 0.63269 0.50628 0.82398 0.0
H892 H 0.64258 0.48385 0.0296 0.0
H893 H 0.67574 0.50146 1.00599 0.0
H894 H 0.66823 0.50591 0.71238 0.0
H895 H 0.67501 0.52738 0.6648 0.0
H896 H 0.65174 0.51341 0.69794 0.0
H897 H 0.6546 0.54085 0.77557 0.0
H898 H 0.67787 0.55493 0.7425 0.0
H899 H 0.67308 0.55218 0.84288 0.0
H900 H 0.70764 0.52012 0.95944 0.0
H901 H 0.73688 0.54005 0.89406 0.0
H902 H 0.70761 0.55172 0.71929 0.0
C903 C 0.64186 0.50521 0.86425 0.0
C904 C 0.63487 0.49355 0.92862 0.0
C905 C 0.64741 0.49254 0.97969 0.0
C906 C 0.66637 0.50253 0.96691 0.0
C907 C 0.67279 0.51367 0.90289 0.0
C908 C 0.66102 0.51522 0.85249 0.0
C909 C 0.67179 0.52818 0.78782 0.0
C910 C 0.66637 0.51812 0.7112 0.0
C911 C 0.66918 0.54504 0.78719 0.0
C912 C 0.69135 0.53346 0.80978 0.0
C913 C 0.69151 0.52485 0.87636 0.0
C914 C 0.70774 0.52707 0.90749 0.0
C915 C 0.72432 0.53843 0.86976 0.0
C916 C 0.72466 0.5476 0.80167 0.0
C917 C 0.70788 0.54505 0.77154 0.0
H918 H 0.48199 0.8523 0.24256 0.0
H919 H 0.46433 0.83611 1.00995 0.0
H920 H 0.47783 0.81595 1.01216 0.0
H921 H 0.52469 0.85398 0.22725 0.0
H922 H 0.52402 0.84466 0.32018 0.0
H923 H 0.51199 0.85702 0.30282 0.0
H924 H 0.48166 0.82909 0.34982 0.0
H925 H 0.49364 0.81666 0.36782 0.0
H926 H 0.47372 0.8069 0.30709 0.0
H927 H 0.49526 0.79953 0.03525 0.0
H928 H 0.5145 0.78698 0.0787 0.0
H929 H 0.51951 0.81188 0.30003 0.0
C930 C 0.48063 0.84424 0.1926 0.0
C931 C 0.47213 0.84592 0.12585 0.0
C932 C 0.47097 0.83532 0.06137 0.0
C933 C 0.47851 0.82371 0.06219 0.0
C934 C 0.48708 0.82266 0.12816 0.0
C935 C 0.48806 0.83249 0.19248 0.0
C936 C 0.49859 0.82924 0.25503 0.0
C937 C 0.51584 0.8473 0.27762 0.0
C938 C 0.48616 0.81991 0.32403 0.0
C939 C 0.50364 0.81633 0.21524 0.0
C940 C 0.49679 0.81271 0.1422 0.0
C941 C 0.50037 0.80195 0.09291 0.0
C942 C 0.51124 0.79469 0.11869 0.0
C943 C 0.51841 0.79801 0.19369 0.0
C944 C 0.51436 0.80896 0.24246 0.0
H945 H 0.22902 0.71315 0.22798 0.0
H946 H 0.18296 0.72302 0.22229 0.0
H947 H 0.16217 0.69071 0.1907 0.0
H948 H 0.21306 0.68069 0.06846 0.0
H949 H 0.22072 0.66598 0.10938 0.0
H950 H 0.23254 0.69014 0.13161 0.0
H951 H 0.22743 0.6823 0.27484 0.0
H952 H 0.21549 0.65812 0.25303 0.0
H953 H 0.20444 0.66764 0.30986 0.0
H954 H 0.14589 0.65781 0.16601 0.0
H955 H 0.13473 0.62541 0.13779 0.0
H956 H 0.19049 0.63499 0.1516 0.0
C957 C 0.21458 0.70846 0.21958 0.0
C958 C 0.2076 0.72064 0.22948 0.0
C959 C 0.18861 0.71396 0.21736 0.0
C960 C 0.17665 0.6956 0.19891 0.0
C961 C 0.18377 0.68389 0.19169 0.0
C962 C 0.20226 0.68994 0.20067 0.0
C963 C 0.20597 0.67409 0.18854 0.0
C964 C 0.21884 0.67796 0.12044 0.0
C965 C 0.2138 0.67032 0.26089 0.0
C966 C 0.18666 0.65833 0.17181 0.0
C967 C 0.17419 0.66449 0.17443 0.0
C968 C 0.15552 0.65284 0.16255 0.0
C969 C 0.14934 0.63442 0.146 0.0
C970 C 0.16173 0.62761 0.14032 0.0
C971 C 0.18068 0.63975 0.15484 0.0
H972 H 0.38154 0.54104 0.08867 0.0
H973 H 0.40241 0.55468 0.31892 0.0
H974 H 0.37077 0.54199 0.36661 0.0
H975 H 0.34332 0.55021 0.11157 0.0
H976 H 0.32801 0.5311 0.05274 0.0
H977 H 0.35242 0.54275 0.03562 0.0
H978 H 0.3521 0.51186 0.04808 0.0
H979 H 0.32772 0.50013 0.06509 0.0
H980 H 0.34278 0.49819 0.13268 0.0
H981 H 0.33678 0.52516 0.391 0.0
H982 H 0.30291 0.50593 0.38968 0.0
H983 H 0.30369 0.50338 0.1442 0.0
C984 C 0.37949 0.5415 0.1491 0.0
C985 C 0.39461 0.54904 0.19986 0.0
C986 C 0.39121 0.54937 0.27852 0.0
C987 C 0.37323 0.54208 0.30629 0.0
C988 C 0.35869 0.53457 0.25485 0.0
C989 C 0.36161 0.53431 0.17783 0.0
C990 C 0.3435 0.52465 0.13507 0.0
C991 C 0.34171 0.53798 0.08052 0.0
C992 C 0.34141 0.50771 0.09276 0.0
C993 C 0.32993 0.51915 0.20025 0.0
C994 C 0.33902 0.52509 0.26884 0.0
C995 C 0.32953 0.5207 0.33757 0.0
C996 C 0.31031 0.50978 0.33633 0.0
C997 C 0.30071 0.50343 0.26688 0.0
C998 C 0.31067 0.50844 0.19793 0.0
H999 H 0.17751 0.54414 0.15043 0.0
H1000 H 0.12143 0.49913 0.13476 0.0
H1001 H 0.13199 0.47708 0.16576 0.0
H1002 H 0.20012 0.52159 0.07308 0.0
H1003 H 0.21916 0.53163 0.13839 0.0
H1004 H 0.20725 0.54379 0.11417 0.0
H1005 H 0.20083 0.54601 0.25645 0.0
H1006 H 0.21293 0.53406 0.28118 0.0
H1007 H 0.18963 0.52536 0.31299 0.0
H1008 H 0.1494 0.45977 0.18892 0.0
H1009 H 0.17123 0.44915 0.22352 0.0
H1010 H 0.21527 0.50574 0.23648 0.0
C1011 C 0.16746 0.52964 0.15404 0.0
C1012 C 0.14867 0.52329 0.13984 0.0
C1013 C 0.13588 0.50426 0.14581 0.0
C1014 C 0.14177 0.49165 0.16283 0.0
C1015 C 0.16046 0.49832 0.17537 0.0
C1016 C 0.17304 0.51693 0.17304 0.0
C1017 C 0.1922 0.52067 0.1923 0.0
C1018 C 0.20546 0.52997 0.12549 0.0
C1019 C 0.19931 0.5322 0.26506 0.0
C1020 C 0.18852 0.50126 0.20482 0.0
C1021 C 0.1702 0.48851 0.1935 0.0
C1022 C 0.16373 0.46966 0.19883 0.0
C1023 C 0.17622 0.46374 0.2179 0.0
C1024 C 0.19487 0.47662 0.23295 0.0
C1025 C 0.20104 0.4956 0.22583 0.0
H1026 H 0.51762 0.71167 0.2294 0.0
H1027 H 0.57384 0.72484 0.19049 0.0
H1028 H 0.56276 0.69232 0.15526 0.0
H1029 H 0.50084 0.66741 0.30929 0.0
H1030 H 0.47877 0.65752 0.26323 0.0
H1031 H 0.49123 0.6817 0.28449 0.0
H1032 H 0.48977 0.68945 0.14307 0.0
H1033 H 0.4771 0.66529 0.12154 0.0
H1034 H 0.49805 0.68015 0.07109 0.0
H1035 H 0.5449 0.65718 0.13339 0.0
H1036 H 0.52208 0.62438 0.10916 0.0
H1037 H 0.47793 0.63563 0.15445 0.0
C1038 C 0.52761 0.70775 0.21298 0.0
C1039 C 0.54659 0.72071 0.21297 0.0
C1040 C 0.55922 0.71511 0.19043 0.0
C1041 C 0.55305 0.69666 0.17091 0.0
C1042 C 0.53419 0.68411 0.17299 0.0
C1043 C 0.52168 0.68958 0.19199 0.0
C1044 C 0.50214 0.67374 0.1878 0.0
C1045 C 0.4927 0.66987 0.26585 0.0
C1046 C 0.49112 0.67738 0.12726 0.0
C1047 C 0.50551 0.65837 0.16423 0.0
C1048 C 0.52406 0.66446 0.15691 0.0
C1049 C 0.53035 0.65238 0.13817 0.0
C1050 C 0.51733 0.63376 0.12502 0.0
C1051 C 0.49827 0.62752 0.1294 0.0
C1052 C 0.49241 0.64003 0.14988 0.0
H1053 H 0.38478 0.84441 0.21779 0.0
H1054 H 0.39321 0.89528 0.11797 0.0
H1055 H 0.36001 0.88461 0.13452 0.0
H1056 H 0.34166 0.81476 0.1348 0.0
H1057 H 0.33245 0.80028 0.21738 0.0
H1058 H 0.35683 0.8123 0.20007 0.0
H1059 H 0.36271 0.82747 0.33279 0.0
H1060 H 0.33836 0.81532 0.35093 0.0
H1061 H 0.35128 0.83999 0.3588 0.0
H1062 H 0.32485 0.86682 0.15565 0.0
H1063 H 0.29239 0.84542 0.19094 0.0
H1064 H 0.30809 0.807 0.27958 0.0
C1065 C 0.37972 0.85342 0.19991 0.0
C1066 C 0.39161 0.87068 0.16637 0.0
C1067 C 0.3844 0.88206 0.14423 0.0
C1068 C 0.36554 0.87604 0.153 0.0
C1069 C 0.35413 0.85871 0.18478 0.0
C1070 C 0.36109 0.84773 0.20891 0.0
C1071 C 0.34618 0.82976 0.24175 0.0
C1072 C 0.34417 0.81331 0.19573 0.0
C1073 C 0.34985 0.82804 0.32607 0.0
C1074 C 0.32961 0.83216 0.23182 0.0
C1075 C 0.33435 0.84886 0.19842 0.0
C1076 C 0.32109 0.85379 0.18235 0.0
C1077 C 0.30265 0.8415 0.20218 0.0
C1078 C 0.29766 0.82454 0.23829 0.0
C1079 C 0.3114 0.81988 0.25249 0.0
H1080 H 0.16851 0.30214 0.35788 0.0
H1081 H 0.1119 0.28942 0.37813 0.0
H1082 H 0.12173 0.32211 0.35033 0.0
H1083 H 0.18818 0.34465 0.45146 0.0
H1084 H 0.20839 0.35514 0.3923 0.0
H1085 H 0.19638 0.33071 0.40766 0.0
H1086 H 0.19286 0.32532 0.26225 0.0
H1087 H 0.20487 0.34977 0.24639 0.0
H1088 H 0.1823 0.3356 0.20671 0.0
H1089 H 0.13906 0.35757 0.32221 0.0
H1090 H 0.16159 0.39089 0.30545 0.0
H1091 H 0.20601 0.37872 0.30985 0.0
C1092 C 0.15803 0.30605 0.35567 0.0
C1093 C 0.13938 0.29312 0.36968 0.0
C1094 C 0.12627 0.29905 0.3672 0.0
C1095 C 0.13174 0.31759 0.35134 0.0
C1096 C 0.15038 0.33002 0.33843 0.0
C1097 C 0.16325 0.32435 0.34083 0.0
C1098 C 0.18252 0.34019 0.32935 0.0
C1099 C 0.19457 0.34282 0.39936 0.0
C1100 C 0.19114 0.33756 0.25686 0.0
C1101 C 0.17867 0.35584 0.32069 0.0
C1102 C 0.1601 0.34988 0.32504 0.0
C1103 C 0.15361 0.36228 0.31877 0.0
C1104 C 0.16646 0.38116 0.30899 0.0
C1105 C 0.18555 0.38741 0.3068 0.0
C1106 C 0.19153 0.37445 0.31191 0.0
H1107 H 0.64373 0.83128 0.29057 0.0
H1108 H 0.63154 0.77471 0.2843 0.0
H1109 H 0.66477 0.78534 0.30264 0.0
H1110 H 0.687 0.8509 0.18952 0.0
H1111 H 0.69709 0.87154 0.24589 0.0
H1112 H 0.67268 0.85912 0.22946 0.0
H1113 H 0.66689 0.85674 0.37471 0.0
H1114 H 0.69126 0.86909 0.39158 0.0
H1115 H 0.67718 0.84678 0.43392 0.0
H1116 H 0.70021 0.8033 0.33106 0.0
H1117 H 0.73288 0.82603 0.35952 0.0
H1118 H 0.72012 0.86997 0.34144 0.0
C1119 C 0.64797 0.82104 0.29261 0.0
C1120 C 0.63502 0.80214 0.28638 0.0
C1121 C 0.64125 0.78928 0.28871 0.0
C1122 C 0.66009 0.79522 0.29932 0.0
C1123 C 0.67248 0.81406 0.30641 0.0
C1124 C 0.66655 0.82671 0.30223 0.0
C1125 C 0.68219 0.84614 0.31199 0.0
C1126 C 0.6849 0.85759 0.23992 0.0
C1127 C 0.6792 0.85521 0.38222 0.0
C1128 C 0.69797 0.8426 0.32361 0.0
C1129 C 0.6923 0.82409 0.32043 0.0
C1130 C 0.70472 0.81782 0.3328 0.0
C1131 C 0.72326 0.83081 0.34897 0.0
C1132 C 0.72917 0.84983 0.35233 0.0
C1133 C 0.71624 0.8556 0.33876 0.0
H1134 H 0.19022 0.81593 0.33442 0.0
H1135 H 0.24592 0.86044 0.29856 0.0
H1136 H 0.235 0.88295 0.3127 0.0
H1137 H 0.16757 0.83562 0.23106 0.0
H1138 H 0.14829 0.82643 0.29524 0.0
H1139 H 0.16091 0.81453 0.2817 0.0
H1140 H 0.16665 0.81556 0.42674 0.0
H1141 H 0.15411 0.82752 0.44072 0.0
H1142 H 0.17734 0.83736 0.47507 0.0
H1143 H 0.21674 0.90054 0.33659 0.0
H1144 H 0.19372 0.91045 0.35989 0.0
H1145 H 0.15098 0.8533 0.37582 0.0
C1146 C 0.20025 0.83041 0.32949 0.0
C1147 C 0.21898 0.83641 0.31586 0.0
C1148 C 0.23149 0.85551 0.30898 0.0
C1149 C 0.22539 0.86837 0.31715 0.0
C1150 C 0.20674 0.86186 0.33144 0.0
C1151 C 0.19442 0.84323 0.33681 0.0
C1152 C 0.17511 0.83932 0.35167 0.0
C1153 C 0.16222 0.82833 0.286 0.0
C1154 C 0.16789 0.82936 0.42808 0.0
C1155 C 0.17828 0.85863 0.35444 0.0
C1156 C 0.19655 0.8716 0.34308 0.0
C1157 C 0.20242 0.89041 0.34503 0.0
C1158 C 0.18928 0.89593 0.35846 0.0
C1159 C 0.1705 0.88268 0.36921 0.0
C1160 C 0.16515 0.86386 0.36715 0.0
H1161 H 0.38439 0.19858 0.75167 0.0
H1162 H 0.3996 0.15852 0.68183 0.0
H1163 H 0.36668 0.13612 0.65546 0.0
H1164 H 0.34137 0.16663 0.84337 0.0
H1165 H 0.33038 0.17926 0.81263 0.0
H1166 H 0.35479 0.19112 0.82909 0.0
H1167 H 0.36035 0.20432 0.69231 0.0
H1168 H 0.336 0.1924 0.67521 0.0
H1169 H 0.35095 0.18881 0.61308 0.0
H1170 H 0.33114 0.11896 0.62819 0.0
H1171 H 0.29802 0.10892 0.61102 0.0
H1172 H 0.30799 0.16102 0.70228 0.0
C1173 C 0.38086 0.18503 0.73146 0.0
C1174 C 0.39457 0.1803 0.71859 0.0
C1175 C 0.38929 0.16239 0.69255 0.0
C1176 C 0.37064 0.14964 0.67714 0.0
C1177 C 0.35749 0.15499 0.68903 0.0
C1178 C 0.36251 0.17227 0.71659 0.0
C1179 C 0.34621 0.17514 0.72384 0.0
C1180 C 0.343 0.17821 0.80719 0.0
C1181 C 0.34852 0.19111 0.67308 0.0
C1182 C 0.33111 0.15691 0.69502 0.0
C1183 C 0.33767 0.14533 0.67497 0.0
C1184 C 0.32594 0.12793 0.6445 0.0
C1185 C 0.30715 0.12234 0.63474 0.0
C1186 C 0.30031 0.13411 0.65556 0.0
C1187 C 0.3126 0.15154 0.68618 0.0
H1188 H 0.82 0.1879 0.71576 0.0
H1189 H 0.86167 0.24417 0.66784 0.0
H1190 H 0.88451 0.23391 0.64686 0.0
H1191 H 0.84945 0.17476 0.81544 0.0
H1192 H 0.83755 0.15181 0.7773 0.0
H1193 H 0.82542 0.16419 0.79156 0.0
H1194 H 0.8156 0.15926 0.65008 0.0
H1195 H 0.82783 0.14702 0.63518 0.0
H1196 H 0.83296 0.16673 0.57726 0.0
H1197 H 0.90214 0.21582 0.6222 0.0
H1198 H 0.9125 0.19295 0.60598 0.0
H1199 H 0.8584 0.14958 0.67372 0.0
C1200 C 0.83397 0.19817 0.70144 0.0
C1201 C 0.83905 0.21683 0.69313 0.0
C1202 C 0.85751 0.22981 0.67491 0.0
C1203 C 0.87052 0.22405 0.66256 0.0
C1204 C 0.86484 0.20535 0.66964 0.0
C1205 C 0.84698 0.19273 0.68971 0.0
C1206 C 0.84388 0.17343 0.69321 0.0
C1207 C 0.83878 0.16559 0.77419 0.0
C1208 C 0.82921 0.16088 0.63549 0.0
C1209 C 0.8627 0.17693 0.671 0.0
C1210 C 0.87474 0.19535 0.6573 0.0
C1211 C 0.89279 0.20142 0.63357 0.0
C1212 C 0.89856 0.18834 0.62425 0.0
C1213 C 0.88633 0.16946 0.63894 0.0
C1214 C 0.86823 0.16389 0.66258 0.0
H1215 H 0.83081 0.63485 0.66627 0.0
H1216 H 0.77582 0.62349 0.72201 0.0
H1217 H 0.78569 0.65642 0.69912 0.0
H1218 H 0.85473 0.67762 0.75746 0.0
H1219 H 0.87266 0.68737 0.68696 0.0
H1220 H 0.86059 0.663 0.70395 0.0
H1221 H 0.85191 0.65715 0.56136 0.0
H1222 H 0.86393 0.68153 0.54392 0.0
H1223 H 0.84011 0.66776 0.51753 0.0
H1224 H 0.80319 0.69213 0.67162 0.0
H1225 H 0.82585 0.72518 0.64845 0.0
H1226 H 0.86834 0.71098 0.61384 0.0
C1227 C 0.82067 0.6391 0.67337 0.0
C1228 C 0.80249 0.6265 0.69588 0.0
C1229 C 0.78983 0.63287 0.70463 0.0
C1230 C 0.79533 0.65155 0.69164 0.0
C1231 C 0.81352 0.66363 0.66985 0.0
C1232 C 0.8259 0.65747 0.66095 0.0
C1233 C 0.84479 0.67285 0.63984 0.0
C1234 C 0.85902 0.67536 0.70068 0.0
C1235 C 0.85051 0.66963 0.56098 0.0
C1236 C 0.84135 0.68884 0.63884 0.0
C1237 C 0.82328 0.68347 0.65552 0.0
C1238 C 0.81733 0.69635 0.65839 0.0
C1239 C 0.83025 0.71508 0.64493 0.0
C1240 C 0.84889 0.72069 0.62969 0.0
C1241 C 0.85425 0.70725 0.62584 0.0
H1242 H 0.0499 0.53225 0.04269 0.0
H1243 H 0.0611 0.48765 0.07715 0.0
H1244 H 0.02783 0.46516 0.05895 0.0
H1245 H 1.00694 0.51203 0.14074 0.0
H1246 H 0.99723 0.52149 0.07578 0.0
H1247 H 0.02163 0.53335 0.09219 0.0
H1248 H 0.02733 0.53301 0.94767 0.0
H1249 H 1.00295 0.52108 0.93082 0.0
H1250 H 0.01661 0.51143 0.89761 0.0
H1251 H 0.99211 0.44762 0.0311 0.0
H1252 H 0.95934 0.4378 1.0044 0.0
H1253 H 0.97365 0.49499 0.99235 0.0
C1254 C 0.0455 0.51776 0.04657 0.0
C1255 C 0.05819 0.51174 0.06104 0.0
C1256 C 0.05164 0.49261 0.06622 0.0
C1257 C 0.03277 0.47976 0.05572 0.0
C1258 C 0.02066 0.4863 0.04068 0.0
C1259 C 0.02693 0.50495 0.0368 0.0
C1260 C 0.0116 0.5089 0.02048 0.0
C1261 C 1.00921 0.51956 0.08622 0.0
C1262 C 0.01482 0.51921 0.94465 0.0
C1263 C 0.99553 0.48959 0.01546 0.0
C1264 C 1.00081 0.47658 0.02671 0.0
C1265 C 0.98794 0.45779 0.02274 0.0
C1266 C 0.96936 0.4523 1.00738 0.0
C1267 C 0.96384 0.46559 0.99681 0.0
C1268 C 0.97725 0.4844 1.0009 0.0
H1269 H 0.4861 0.51748 0.0529 0.0
H1270 H 0.52849 0.57454 0.02787 0.0
H1271 H 0.55152 0.56464 1.00534 0.0
H1272 H 0.51366 0.50238 0.15191 0.0
H1273 H 0.50262 0.48027 0.10604 0.0
H1274 H 0.49012 0.49225 0.12106 0.0
H1275 H 0.4829 0.49031 0.97711 0.0
H1276 H 0.49533 0.47829 0.96169 0.0
H1277 H 0.50152 0.49909 0.90965 0.0
H1278 H 0.56965 0.5471 0.97971 0.0
H1279 H 0.58023 0.52462 0.95678 0.0
H1280 H 0.52516 0.48007 1.00412 0.0
C1281 C 0.50022 0.52801 0.0427 0.0
C1282 C 0.50544 0.54681 0.04168 0.0
C1283 C 0.52414 0.56004 0.02887 0.0
C1284 C 0.5373 0.55452 0.01602 0.0
C1285 C 0.53155 0.53574 0.01704 0.0
C1286 C 0.51338 0.52278 0.03064 0.0
C1287 C 0.5103 0.50347 0.02881 0.0
C1288 C 0.50379 0.49404 0.10658 0.0
C1289 C 0.49672 0.49213 0.96555 0.0
C1290 C 0.5295 0.50738 1.01102 0.0
C1291 C 0.54171 0.52601 1.00431 0.0
C1292 C 0.56015 0.53252 0.98551 0.0
C1293 C 0.56607 0.51967 0.9727 0.0
C1294 C 0.55359 0.50054 0.97886 0.0
C1295 C 0.53517 0.49454 0.99916 0.0
H1296 H 0.53505 0.04769 0.04114 0.0
H1297 H 0.49157 0.05658 0.95732 0.0
H1298 H 0.46885 0.02376 0.98372 0.0
H1299 H 0.51954 1.00517 0.95709 0.0
H1300 H 0.52667 0.99598 0.03402 0.0
H1301 H 0.53857 0.02032 0.01667 0.0
H1302 H 0.53231 0.02608 0.15519 0.0
H1303 H 0.52044 1.00171 0.17314 0.0
H1304 H 0.50906 0.01473 0.19051 0.0
H1305 H 0.45125 0.98818 1.01255 0.0
H1306 H 0.44168 0.95536 0.03678 0.0
H1307 H 0.49779 0.97162 0.09694 0.0
C1308 C 0.52072 0.04293 0.02922 0.0
C1309 C 0.51512 0.0548 0.99728 0.0
C1310 C 0.49619 0.04782 0.98242 0.0
C1311 C 0.48321 0.02917 0.99712 0.0
C1312 C 0.48939 0.01774 0.02699 0.0
C1313 C 0.50778 0.02456 0.04305 0.0
C1314 C 0.51151 0.00966 0.07012 0.0
C1315 C 0.52485 0.00767 0.01625 0.0
C1316 C 0.51875 0.01326 0.15211 0.0
C1317 C 0.49243 0.99318 0.06582 0.0
C1318 C 0.47967 0.99791 0.04174 0.0
C1319 C 0.4612 0.98447 0.03187 0.0
C1320 C 0.45585 0.96586 0.04593 0.0
C1321 C 0.46898 0.9609 0.06852 0.0
C1322 C 0.48738 0.97488 0.07944 0.0
H1323 H 0.1414 0.25475 0.79103 0.0
H1324 H 0.08402 0.2344 0.74008 0.0
H1325 H 0.07643 0.22783 0.87728 0.0
H1326 H 0.13375 0.22097 0.93384 0.0
H1327 H 0.15293 0.23689 0.99091 0.0
H1328 H 0.15338 0.24005 0.8897 0.0
H1329 H 0.15917 0.27309 0.9099 0.0
H1330 H 0.15857 0.26997 1.01121 0.0
H1331 H 0.14336 0.27656 0.96702 0.0
H1332 H 0.07592 0.22512 0.02382 0.0
H1333 H 0.08193 0.22288 0.16075 0.0
H1334 H 0.13937 0.24356 0.11022 0.0
C1335 C 0.12724 0.24895 0.80885 0.0
C1336 C 0.11329 0.24524 0.75548 0.0
C1337 C 0.09486 0.2373 0.78044 0.0
C1338 C 0.09049 0.23365 0.85811 0.0
C1339 C 0.1047 0.2378 0.9096 0.0
C1340 C 0.12266 0.24499 0.88545 0.0
C1341 C 0.13542 0.24764 0.95077 0.0
C1342 C 0.14439 0.23567 0.94069 0.0
C1343 C 0.14998 0.26803 0.96026 0.0
C1344 C 0.12192 0.24091 0.01595 0.0
C1345 C 0.10428 0.2355 0.99172 0.0
C1346 C 0.08966 0.2292 0.04304 0.0
C1347 C 0.09317 0.22807 0.12055 0.0
C1348 C 0.11104 0.23292 0.14542 0.0
C1349 C 0.12554 0.23958 0.09235 0.0
H1350 H 0.76997 0.89138 0.76509 0.0
H1351 H 0.79008 0.8537 0.72523 0.0
H1352 H 0.79664 0.85398 0.8633 0.0
H1353 H 0.80371 0.91868 0.90915 0.0
H1354 H 0.78749 0.92232 0.9624 0.0
H1355 H 0.785 0.91918 0.86114 0.0
H1356 H 0.75175 0.89223 0.88005 0.0
H1357 H 0.7542 0.89514 0.98136 0.0
H1358 H 0.74777 0.87315 0.93988 0.0
H1359 H 0.79839 0.85682 1.0093 0.0
H1360 H 0.79904 0.86501 0.14527 0.0
H1361 H 0.77929 0.90208 0.08459 0.0
C1362 C 0.7759 0.88332 0.78558 0.0
C1363 C 0.77946 0.87243 0.7353 0.0
C1364 C 0.78738 0.86217 0.76336 0.0
C1365 C 0.79101 0.86219 0.84148 0.0
C1366 C 0.78691 0.8728 0.89004 0.0
C1367 C 0.77986 0.88345 0.86261 0.0
C1368 C 0.77685 0.8939 0.92547 0.0
C1369 C 0.78899 0.91475 0.91384 0.0
C1370 C 0.75643 0.88826 0.93205 0.0
C1371 C 0.78307 0.88734 0.99313 0.0
C1372 C 0.78865 0.87502 0.97209 0.0
C1373 C 0.79426 0.86662 0.02604 0.0
C1374 C 0.79446 0.87121 0.103 0.0
C1375 C 0.78936 0.88426 0.12489 0.0
C1376 C 0.78351 0.89227 0.06909 0.0
H1377 H 0.11618 0.88543 0.75893 0.0
H1378 H 0.17435 0.91784 0.71088 0.0
H1379 H 0.1806 0.92533 0.84819 0.0
H1380 H 0.11538 0.91613 0.89956 0.0
H1381 H 0.09816 0.89776 0.9566 0.0
H1382 H 0.09879 0.89487 0.85564 0.0
H1383 H 0.10092 0.86548 0.8784 0.0
H1384 H 0.10046 0.86838 0.97946 0.0
H1385 H 0.11909 0.86671 0.93706 0.0
H1386 H 0.18004 0.92764 0.99422 0.0
H1387 H 0.17245 0.92804 0.13057 0.0
H1388 H 0.11454 0.89581 0.07776 0.0
C1389 C 0.13023 0.89408 0.77755 0.0
C1390 C 0.14485 0.90094 0.72504 0.0
C1391 C 0.16303 0.9125 0.75072 0.0
C1392 C 0.16666 0.9167 0.82842 0.0
C1393 C 0.15188 0.90945 0.87912 0.0
C1394 C 0.134 0.89866 0.85419 0.0
C1395 C 0.1204 0.89318 0.9188 0.0
C1396 C 0.10742 0.90096 0.90693 0.0
C1397 C 0.10958 0.87219 0.92901 0.0
C1398 C 0.13336 0.90245 0.98441 0.0
C1399 C 0.1515 0.91156 0.96101 0.0
C1400 C 0.16586 0.92068 1.01281 0.0
C1401 C 0.16149 0.92076 0.08997 0.0
C1402 C 0.14296 0.91209 0.11397 0.0
C1403 C 0.12882 0.90271 0.06045 0.0
H1404 H 0.26491 0.11815 0.93892 0.0
H1405 H 0.20721 0.09917 0.90482 0.0
H1406 H 0.20357 0.10253 0.04309 0.0
H1407 H 0.26124 0.09614 0.11206 0.0
H1408 H 0.28178 0.11467 0.15326 0.0
H1409 H 0.27989 0.11182 0.05185 0.0
H1410 H 0.28633 0.14519 0.03533 0.0
H1411 H 0.28851 0.14825 0.13672 0.0
H1412 H 0.27238 0.15246 0.08561 0.0
H1413 H 0.20606 0.10483 0.18784 0.0
H1414 H 0.21517 0.10993 0.3237 0.0
H1415 H 0.2717 0.12938 0.25972 0.0
C1416 C 0.25164 0.11509 0.9608 0.0
C1417 C 0.23632 0.10851 0.91222 0.0
C1418 C 0.21906 0.10444 0.94179 0.0
C1419 C 0.21691 0.1062 0.01998 0.0
C1420 C 0.23226 0.11235 0.067 0.0
C1421 C 0.24938 0.11711 0.03807 0.0
C1422 C 0.26371 0.12329 0.10007 0.0
C1423 C 0.27214 0.11073 0.10455 0.0
C1424 C 0.27861 0.1435 0.08876 0.0
C1425 C 0.25196 0.12094 0.16885 0.0
C1426 C 0.23382 0.11443 0.14897 0.0
C1427 C 0.22028 0.1102 0.2038 0.0
C1428 C 0.22551 0.11299 0.28063 0.0
C1429 C 0.24411 0.12018 0.30156 0.0
C1430 C 0.25743 0.12415 0.24483 0.0
H1431 H 0.93102 0.16053 0.95391 0.0
H1432 H 0.89372 0.10478 0.87806 0.0
H1433 H 0.88459 0.09536 1.01046 0.0
H1434 H 0.9459 0.14752 0.12631 0.0
H1435 H 0.94725 0.16633 0.18051 0.0
H1436 H 0.95123 0.16872 0.07956 0.0
H1437 H 0.92583 0.17739 0.06398 0.0
H1438 H 0.92175 0.17501 0.16475 0.0
H1439 H 0.90308 0.16206 0.09991 0.0
H1440 H 0.87808 0.09226 0.15044 0.0
H1441 H 0.87539 0.09562 0.28845 0.0
H1442 H 0.91806 0.15275 0.27541 0.0
C1443 C 0.92112 0.14626 0.96443 0.0
C1444 C 0.91307 0.1335 0.90405 0.0
C1445 C 0.89997 0.11501 0.92207 0.0
C1446 C 0.89475 0.10945 0.99756 0.0
C1447 C 0.90287 0.12243 0.05508 0.0
C1448 C 0.91589 0.14042 0.03955 0.0
C1449 C 0.92232 0.15172 0.11189 0.0
C1450 C 0.9429 0.159 0.12535 0.0
C1451 C 0.91798 0.16747 0.10999 0.0
C1452 C 0.91066 0.13731 0.17051 0.0
C1453 C 0.89954 0.12051 0.13632 0.0
C1454 C 0.88687 0.10529 0.17784 0.0
C1455 C 0.88539 0.10733 0.25606 0.0
C1456 C 0.89659 0.12439 0.29242 0.0
C1457 C 0.90958 0.1395 0.24912 0.0
H1458 H 0.88796 0.79192 0.27622 0.0
H1459 H 0.87134 0.73419 0.28443 0.0
H1460 H 0.86629 0.73187 0.14551 0.0
H1461 H 0.85687 0.78928 0.1219 0.0
H1462 H 0.87388 0.81055 0.07903 0.0
H1463 H 0.87423 0.80719 0.17995 0.0
H1464 H 0.90795 0.8144 0.17021 0.0
H1465 H 0.90767 0.81767 0.06931 0.0
H1466 H 0.91363 0.80128 0.10604 0.0
H1467 H 0.86439 0.73611 1.00542 0.0
H1468 H 0.8665 0.74656 0.87357 0.0
H1469 H 0.88639 0.80227 0.95375 0.0
C1470 C 0.88282 0.77875 0.24861 0.0
C1471 C 0.87972 0.76312 0.29078 0.0
C1472 C 0.8736 0.74621 0.25285 0.0
C1473 C 0.8707 0.7448 0.17414 0.0
C1474 C 0.8742 0.7605 0.13372 0.0
C1475 C 0.88018 0.77719 0.16947 0.0
C1476 C 0.88423 0.79221 0.11173 0.0
C1477 C 0.87154 0.80028 0.12389 0.0
C1478 C 0.90458 0.80728 0.11451 0.0
C1479 C 0.87971 0.78138 0.03818 0.0
C1480 C 0.87378 0.76309 0.05233 0.0
C1481 C 0.86904 0.75043 0.99364 0.0
C1482 C 0.87045 0.75658 0.91845 0.0
C1483 C 0.87676 0.77535 0.90181 0.0
C1484 C 0.88135 0.78782 0.9633 0.0
H1485 H 0.81167 0.58749 0.10468 0.0
H1486 H 0.75728 0.57433 0.02729 0.0
H1487 H 0.74661 0.56961 0.15929 0.0
H1488 H 0.79746 0.55512 0.25337 0.0
H1489 H 0.81539 0.56983 0.31829 0.0
H1490 H 0.8192 0.57302 0.21751 0.0
H1491 H 0.82753 0.60702 0.2308 0.0
H1492 H 0.82374 0.60393 0.33177 0.0
H1493 H 0.81153 0.61239 0.27591 0.0
H1494 H 0.74093 0.56393 0.29864 0.0
H1495 H 0.74114 0.55873 0.43681 0.0
H1496 H 0.79932 0.57734 0.42718 0.0
C1497 C 0.79759 0.58391 0.11492 0.0
C1498 C 0.78538 0.58117 0.054 0.0
C1499 C 0.76698 0.57625 0.07156 0.0
C1500 C 0.76075 0.57366 0.14691 0.0
C1501 C 0.77307 0.57625 0.20496 0.0
C1502 C 0.79115 0.58143 0.19009 0.0
C1503 C 0.80143 0.58291 0.26322 0.0
C1504 C 0.8088 0.56941 0.26305 0.0
C1505 C 0.81698 0.60274 0.27617 0.0
C1506 C 0.78619 0.57736 0.3213 0.0
C1507 C 0.76995 0.57361 0.2862 0.0
C1508 C 0.75363 0.56711 0.32683 0.0
C1509 C 0.75385 0.56418 0.40511 0.0
C1510 C 0.77026 0.5679 0.44242 0.0
C1511 C 0.78671 0.57483 0.40009 0.0
H1512 H 0.47104 0.2346 0.40649 0.0
H1513 H 0.4274 0.17958 0.45852 0.0
H1514 H 0.41901 0.17432 0.32175 0.0
H1515 H 0.4453 0.24387 0.26413 0.0
H1516 H 0.46525 0.25746 0.20595 0.0
H1517 H 0.46772 0.25642 0.30708 0.0
H1518 H 0.49132 0.24554 0.28555 0.0
H1519 H 0.48878 0.24637 0.18436 0.0
H1520 H 0.48493 0.22539 0.22883 0.0
H1521 H 0.41716 0.17476 0.17631 0.0
H1522 H 0.4189 0.18235 0.03885 0.0
H1523 H 0.46186 0.23796 0.08564 0.0
C1524 C 0.45967 0.2215 0.38876 0.0
C1525 C 0.44988 0.20741 0.44227 0.0
C1526 C 0.43495 0.1905 0.41788 0.0
C1527 C 0.43022 0.1874 0.3405 0.0
C1528 C 0.44034 0.20153 0.28873 0.0
C1529 C 0.4545 0.21839 0.31227 0.0
C1530 C 0.46275 0.23162 0.24626 0.0
C1531 C 0.46009 0.24833 0.25648 0.0
C1532 C 0.48315 0.23757 0.23565 0.0
C1533 C 0.45121 0.21955 0.18154 0.0
C1534 C 0.43853 0.20213 0.20673 0.0
C1535 C 0.42688 0.18842 0.15628 0.0
C1536 C 0.42801 0.19276 0.0785 0.0
C1537 C 0.4404 0.21071 0.05244 0.0
C1538 C 0.45216 0.22418 0.10466 0.0
H1539 H 0.80779 0.26341 0.35819 0.0
H1540 H 0.81712 0.22004 0.44194 0.0
H1541 H 0.81681 0.20997 0.31062 0.0
H1542 H 0.77742 0.23813 0.20869 0.0
H1543 H 0.78629 0.25714 0.14303 0.0
H1544 H 0.78772 0.26134 0.24364 0.0
H1545 H 0.82291 0.28279 0.23224 0.0
H1546 H 0.82159 0.27864 0.1315 0.0
H1547 H 0.83669 0.27427 0.18949 0.0
H1548 H 0.81383 0.20343 0.17036 0.0
H1549 H 0.80898 0.20135 0.03148 0.0
H1550 H 0.80324 0.24979 0.03645 0.0
C1551 C 0.81005 0.25195 0.34951 0.0
C1552 C 0.81241 0.24254 0.41183 0.0
C1553 C 0.81501 0.22742 0.39635 0.0
C1554 C 0.81499 0.22163 0.3215 0.0
C1555 C 0.81252 0.23116 0.26196 0.0
C1556 C 0.81021 0.24607 0.27501 0.0
C1557 C 0.80749 0.25371 0.20078 0.0
C1558 C 0.78861 0.2525 0.19896 0.0
C1559 C 0.8231 0.27353 0.18775 0.0
C1560 C 0.80843 0.24062 0.14394 0.0
C1561 C 0.81133 0.22771 0.18067 0.0
C1562 C 0.81177 0.21359 0.14106 0.0
C1563 C 0.80897 0.21249 0.06225 0.0
C1564 C 0.80593 0.22549 0.02318 0.0
C1565 C 0.80592 0.2399 0.06466 0.0
H1566 H 0.91235 0.46647 0.59717 0.0
H1567 H 0.92709 0.42505 0.64772 0.0
H1568 H 0.92462 0.4171 0.51053 0.0
H1569 H 0.87844 0.44017 0.45616 0.0
H1570 H 0.88375 0.45998 0.39859 0.0
H1571 H 0.88735 0.46243 0.4996 0.0
H1572 H 0.92139 0.48728 0.47742 0.0
H1573 H 0.91793 0.48479 0.3763 0.0
H1574 H 0.9358 0.48194 0.41959 0.0
H1575 H 0.92164 0.415 0.36432 0.0
H1576 H 0.91453 0.41612 0.2278 0.0
H1577 H 0.90001 0.45764 0.2786 0.0
C1578 C 0.91512 0.45578 0.57915 0.0
C1579 C 0.92012 0.44648 0.63234 0.0
C1580 C 0.92326 0.43229 0.60736 0.0
C1581 C 0.92199 0.42781 0.52974 0.0
C1582 C 0.91727 0.43747 0.47839 0.0
C1583 C 0.91359 0.45096 0.50261 0.0
C1584 C 0.90792 0.45879 0.43752 0.0
C1585 C 0.8882 0.45511 0.44864 0.0
C1586 C 0.92158 0.47942 0.42711 0.0
C1587 C 0.90905 0.44772 0.37244 0.0
C1588 C 0.91472 0.43566 0.39647 0.0
C1589 C 0.91707 0.42431 0.34522 0.0
C1590 C 0.91313 0.42508 0.26796 0.0
C1591 C 0.90663 0.43685 0.24342 0.0
C1592 C 0.9048 0.4484 0.29636 0.0
H1593 H 0.55357 0.45861 0.56918 0.0
H1594 H 0.6111 0.49722 0.60859 0.0
H1595 H 0.61736 0.49711 0.47041 0.0
H1596 H 0.56062 0.43185 0.4243 0.0
H1597 H 0.54056 0.42784 0.37154 0.0
H1598 H 0.54126 0.43088 0.47287 0.0
H1599 H 0.53421 0.45739 0.45492 0.0
H1600 H 0.53371 0.45459 0.35353 0.0
H1601 H 0.54896 0.47665 0.39525 0.0
H1602 H 0.61619 0.49432 0.32433 0.0
H1603 H 0.60861 0.48613 0.18837 0.0
H1604 H 0.5521 0.44824 0.24974 0.0
C1605 C 0.56751 0.4669 0.54857 0.0
C1606 C 0.58189 0.47801 0.59871 0.0
C1607 C 0.59999 0.48858 0.57053 0.0
C1608 C 0.60359 0.48866 0.49236 0.0
C1609 C 0.58893 0.47784 0.44392 0.0
C1610 C 0.57131 0.46688 0.47151 0.0
C1611 C 0.5579 0.45631 0.40878 0.0
C1612 C 0.5496 0.43549 0.42005 0.0
C1613 C 0.54281 0.46156 0.4028 0.0
C1614 C 0.57059 0.46315 0.34099 0.0
C1615 C 0.58842 0.4757 0.36185 0.0
C1616 C 0.60232 0.48434 0.30773 0.0
C1617 C 0.5979 0.47975 0.23078 0.0
C1618 C 0.57983 0.46648 0.2091 0.0
C1619 C 0.56607 0.45823 0.26507 0.0
H1620 H 0.55603 0.09175 0.57553 0.0
H1621 H 0.52235 0.11627 0.62124 0.0
H1622 H 0.52271 0.12333 0.48365 0.0
H1623 H 0.58466 0.12477 0.43298 0.0
H1624 H 0.58659 0.10782 0.37744 0.0
H1625 H 0.58341 0.10495 0.47863 0.0
H1626 H 0.55467 0.07288 0.4581 0.0
H1627 H 0.55766 0.07573 0.35685 0.0
H1628 H 0.53616 0.07084 0.39935 0.0
H1629 H 0.52544 0.12562 0.33716 0.0
H1630 H 0.53356 0.12658 0.2007 0.0
H1631 H 0.5668 0.10207 0.2563 0.0
C1632 C 0.54876 0.09864 0.55643 0.0
C1633 C 0.53901 0.10334 0.60836 0.0
C1634 C 0.5299 0.11262 0.58193 0.0
C1635 C 0.52997 0.11655 0.50405 0.0
C1636 C 0.53947 0.11137 0.45392 0.0
C1637 C 0.54897 0.10291 0.47964 0.0
C1638 C 0.5586 0.09916 0.41552 0.0
C1639 C 0.57955 0.10981 0.42683 0.0
C1640 C 0.55133 0.07842 0.40698 0.0
C1641 C 0.55293 0.10663 0.34916 0.0
C1642 C 0.54171 0.11344 0.37182 0.0
C1643 C 0.53436 0.12049 0.31917 0.0
C1644 C 0.53891 0.12088 0.24192 0.0
C1645 C 0.5509 0.11455 0.21851 0.0
C1646 C 0.55781 0.10723 0.27298 0.0
H1647 H 0.4779 0.91629 0.45455 0.0
H1648 H 0.42888 0.91688 0.38023 0.0
H1649 H 0.41937 0.91528 0.51362 0.0
H1650 H 0.45742 0.88474 0.60428 0.0
H1651 H 0.47684 0.89595 0.66729 0.0
H1652 H 0.4803 0.89816 0.56618 0.0
H1653 H 0.4973 0.93361 0.57847 0.0
H1654 H 0.49384 0.93151 0.67977 0.0
H1655 H 0.48606 0.94445 0.62482 0.0
H1656 H 0.41399 0.91131 0.65468 0.0
H1657 H 0.41328 0.9052 0.79272 0.0
H1658 H 0.46634 0.90878 0.77679 0.0
C1659 C 0.46533 0.91645 0.46587 0.0
C1660 C 0.45418 0.91672 0.40589 0.0
C1661 C 0.43762 0.91647 0.42436 0.0
C1662 C 0.43216 0.91572 0.50026 0.0
C1663 C 0.44343 0.91538 0.5576 0.0
C1664 C 0.45972 0.9158 0.54136 0.0
C1665 C 0.46898 0.91455 0.61341 0.0
C1666 C 0.47099 0.89732 0.61272 0.0
C1667 C 0.48765 0.93207 0.62477 0.0
C1668 C 0.45519 0.91302 0.67274 0.0
C1669 C 0.44058 0.9136 0.63924 0.0
C1670 C 0.42551 0.91119 0.68158 0.0
C1671 C 0.42522 0.90779 0.75975 0.0
C1672 C 0.43995 0.90703 0.79505 0.0
C1673 C 0.45523 0.90993 0.75119 0.0
H1674 H 0.09264 0.55376 0.45213 0.0
H1675 H 0.13989 0.55081 0.37084 0.0
H1676 H 0.14897 0.54971 0.50257 0.0
H1677 H 0.11552 0.58277 0.61743 0.0
H1678 H 0.09548 0.57114 0.67712 0.0
H1679 H 0.09289 0.57241 0.5761 0.0
H1680 H 0.073 0.53695 0.56988 0.0
H1681 H 0.07547 0.53558 0.67079 0.0
H1682 H 0.08202 0.52305 0.60724 0.0
H1683 H 0.15197 0.54683 0.64184 0.0
H1684 H 0.14855 0.54245 0.78111 0.0
H1685 H 0.10055 0.54884 0.77509 0.0
C1686 C 0.10503 0.55313 0.46198 0.0
C1687 C 0.11543 0.55222 0.40056 0.0
C1688 C 0.13143 0.55116 0.41635 0.0
C1689 C 0.13684 0.55071 0.49122 0.0
C1690 C 0.12622 0.55149 0.55017 0.0
C1691 C 0.11068 0.55273 0.53666 0.0
C1692 C 0.10139 0.55271 0.61066 0.0
C1693 C 0.10132 0.57084 0.62091 0.0
C1694 C 0.08181 0.53608 0.61487 0.0
C1695 C 0.11402 0.55102 0.66771 0.0
C1696 C 0.12828 0.55037 0.63133 0.0
C1697 C 0.14105 0.54762 0.67106 0.0
C1698 C 0.13905 0.54517 0.74987 0.0
C1699 C 0.12456 0.54569 0.78829 0.0
C1700 C 0.11204 0.54893 0.74688 0.0
H1701 H 0.44922 0.55925 0.75045 0.0
H1702 H 0.50672 0.59378 0.80601 0.0
H1703 H 0.51488 0.59431 0.66984 0.0
H1704 H 0.45595 0.53181 0.60985 0.0
H1705 H 0.43745 0.52963 0.55072 0.0
H1706 H 0.43663 0.53232 0.65175 0.0
H1707 H 0.43262 0.56065 0.62955 0.0
H1708 H 0.43361 0.55816 0.52847 0.0
H1709 H 0.44935 0.57961 0.57339 0.0
H1710 H 0.516 0.59237 0.52373 0.0
H1711 H 0.51038 0.58483 0.38619 0.0
H1712 H 0.45235 0.55005 0.43172 0.0
C1713 C 0.46353 0.56689 0.73377 0.0
C1714 C 0.47737 0.57662 0.78805 0.0
C1715 C 0.49598 0.58623 0.76485 0.0
C1716 C 0.50067 0.58667 0.68779 0.0
C1717 C 0.48658 0.57715 0.63527 0.0
C1718 C 0.46841 0.56716 0.65783 0.0
C1719 C 0.4558 0.55759 0.59154 0.0
C1720 C 0.44588 0.5366 0.60158 0.0
C1721 C 0.44204 0.56442 0.58009 0.0
C1722 C 0.46963 0.56385 0.52763 0.0
C1723 C 0.48731 0.57532 0.55336 0.0
C1724 C 0.50222 0.58324 0.50334 0.0
C1725 C 0.49895 0.57901 0.42552 0.0
C1726 C 0.481 0.56676 0.39911 0.0
C1727 C 0.46623 0.55926 0.45091 0.0
H1728 H 0.58717 0.76989 0.93139 0.0
H1729 H 0.56692 0.80813 0.94606 0.0
H1730 H 0.56063 0.80505 0.80814 0.0
H1731 H 0.61081 0.78702 0.7577 0.0
H1732 H 0.60579 0.76499 0.72094 0.0
H1733 H 0.60687 0.76865 0.82186 0.0
H1734 H 0.57396 0.74086 0.83669 0.0
H1735 H 0.57281 0.73707 0.73571 0.0
H1736 H 0.55544 0.74015 0.78226 0.0
H1737 H 0.55788 0.7989 0.66775 0.0
H1738 H 0.55946 0.79075 0.53497 0.0
H1739 H 0.58324 0.75782 0.61041 0.0
C1740 C 0.58105 0.77725 0.90547 0.0
C1741 C 0.57738 0.78914 0.94905 0.0
C1742 C 0.56981 0.79897 0.91331 0.0
C1743 C 0.56615 0.79726 0.8352 0.0
C1744 C 0.57027 0.78573 0.7933 0.0
C1745 C 0.57758 0.77591 0.82705 0.0
C1746 C 0.58191 0.76549 0.7681 0.0
C1747 C 0.60257 0.77193 0.76711 0.0
C1748 C 0.57034 0.74465 0.7815 0.0
C1749 C 0.57607 0.77115 0.69613 0.0
C1750 C 0.56922 0.78266 0.71199 0.0
C1751 C 0.56322 0.78987 0.65462 0.0
C1752 C 0.56432 0.78525 0.57899 0.0
C1753 C 0.57156 0.77365 0.56083 0.0
C1754 C 0.57741 0.76651 0.62103 0.0
H1755 H 0.26269 0.82796 0.63807 0.0
H1756 H 0.22822 0.77143 0.56482 0.0
H1757 H 0.2194 0.76203 0.6975 0.0
H1758 H 0.27891 0.81696 0.8126 0.0
H1759 H 0.27886 0.83527 0.86558 0.0
H1760 H 0.28292 0.83763 0.76467 0.0
H1761 H 0.25601 0.84404 0.74729 0.0
H1762 H 0.25186 0.84169 0.84801 0.0
H1763 H 0.23357 0.82772 0.78313 0.0
H1764 H 0.21274 0.75891 0.83689 0.0
H1765 H 0.2095 0.76223 0.97452 0.0
H1766 H 0.24952 0.82024 0.96006 0.0
C1767 C 0.25351 0.81354 0.64949 0.0
C1768 C 0.24609 0.80051 0.5898 0.0
C1769 C 0.2339 0.78183 0.60849 0.0
C1770 C 0.22889 0.77629 0.68408 0.0
C1771 C 0.23632 0.78951 0.741 0.0
C1772 C 0.24848 0.80773 0.72482 0.0
C1773 C 0.25422 0.81922 0.79673 0.0
C1774 C 0.27496 0.82777 0.81071 0.0
C1775 C 0.24857 0.83404 0.79357 0.0
C1776 C 0.24315 0.80465 0.85574 0.0
C1777 C 0.23291 0.7876 0.82212 0.0
C1778 C 0.22084 0.77213 0.86391 0.0
C1779 C 0.21904 0.77414 0.94187 0.0
C1780 C 0.22935 0.79143 0.97766 0.0
C1781 C 0.24175 0.80683 0.93413 0.0
H1782 H 0.20131 0.42303 0.60772 0.0
H1783 H 0.24087 0.48036 0.56955 0.0
H1784 H 0.24822 0.48434 0.70746 0.0
H1785 H 0.1842 0.4275 0.7852 0.0
H1786 H 0.18226 0.40687 0.82563 0.0
H1787 H 0.18042 0.40867 0.72453 0.0
H1788 H 0.20681 0.40162 0.70322 0.0
H1789 H 0.20861 0.39962 0.80427 0.0
H1790 H 0.22853 0.41545 0.75021 0.0
H1791 H 0.24894 0.48222 0.85177 0.0
H1792 H 0.24629 0.47335 0.98779 0.0
H1793 H 0.2083 0.4168 0.92841 0.0
C1794 C 0.21164 0.43634 0.62879 0.0
C1795 C 0.22056 0.45146 0.57912 0.0
C1796 C 0.23405 0.4687 0.60748 0.0
C1797 C 0.23818 0.47104 0.68542 0.0
C1798 C 0.22892 0.45588 0.73345 0.0
C1799 C 0.21621 0.43877 0.70585 0.0
C1800 C 0.20849 0.42457 0.76867 0.0
C1801 C 0.18761 0.41643 0.77644 0.0
C1802 C 0.21341 0.40942 0.75582 0.0
C1803 C 0.21861 0.43637 0.83631 0.0
C1804 C 0.23015 0.45445 0.81516 0.0
C1805 C 0.24016 0.46806 0.86872 0.0
C1806 C 0.23851 0.46297 0.94562 0.0
C1807 C 0.22724 0.44443 0.96774 0.0
C1808 C 0.2172 0.43102 0.91237 0.0
loop_
_geom_bond_atom_site_label_1
_geom_bond_atom_site_label_2
_geom_bond_distance
_geom_bond_site_symmetry_2
_ccdc_geom_bond_type
C0 C1 1.351 . S
C0 N3 1.368 . S
C0 H5 0.931 . S
C1 C0 1.351 . S
C1 N2 1.373 . S
C1 H29 0.930 . S
N2 C1 1.373 . S
N2 C4 1.340 . S
N3 C0 1.368 . S
N3 C4 1.321 . S
N3 Co6 2.135 . S
C4 N2 1.340 . S
C4 N3 1.321 . S
C4 H28 0.930 . S
H5 C0 0.931 . S
Co6 N3 2.135 . S
Co6 N9 2.121 . S
Co6 O14 2.055 . S
Co6 O17 2.039 . S
Co6 N20 2.140 . S
C7 O8 1.227 . S
C7 O17 1.265 . S
O8 C7 1.227 . S
N9 Co6 2.121 . S
N9 C11 1.375 . S
N9 C12 1.313 . S
C10 C11 1.338 . S
C10 N13 1.377 . S
C10 H30 0.930 . S
C11 N9 1.375 . S
C11 C10 1.338 . S
C11 H15 0.931 . S
C12 N9 1.313 . S
C12 N13 1.344 . S
C12 H16 0.930 . S
N13 C10 1.377 . S
N13 C12 1.344 . S
O14 Co6 2.055 . S
O14 C18 1.253 . S
H15 C11 0.931 . S
H16 C12 0.930 . S
O17 Co6 2.039 . S
O17 C7 1.265 . S
C18 O14 1.253 . S
C18 O19 1.227 . S
O19 C18 1.227 . S
N20 Co6 2.140 . S
N20 C23 1.346 . S
N20 C24 1.345 . S
C21 C22 1.387 . S
C21 C25 1.391 . S
C22 C21 1.387 . S
C22 C23 1.369 . S
C22 H31 0.929 . S
C23 N20 1.346 . S
C23 C22 1.369 . S
C23 H26 0.928 . S
C24 N20 1.345 . S
C24 C25 1.371 . S
C24 H27 0.931 . S
C25 C21 1.391 . S
C25 C24 1.371 . S
C25 H32 0.930 . S
H26 C23 0.928 . S
H27 C24 0.931 . S
H28 C4 0.930 . S
H29 C1 0.930 . S
H30 C10 0.930 . S
H31 C22 0.929 . S
H32 C25 0.930 . S
C33 C34 1.351 . S
C33 N36 1.368 . S
C33 H38 0.931 . S
C34 C33 1.351 . S
C34 N35 1.373 . S
C34 H62 0.930 . S
N35 C34 1.373 . S
N35 C37 1.340 . S
N36 C33 1.368 . S
N36 C37 1.321 . S
N36 Co39 2.135 . S
C37 N35 1.340 . S
C37 N36 1.321 . S
C37 H61 0.930 . S
H38 C33 0.931 . S
Co39 N36 2.135 . S
Co39 N42 2.121 . S
Co39 O47 2.055 . S
Co39 O50 2.039 . S
Co39 N53 2.140 . S
C40 O41 1.227 . S
C40 O50 1.265 . S
O41 C40 1.227 . S
N42 Co39 2.121 . S
N42 C44 1.375 . S
N42 C45 1.313 . S
C43 C44 1.338 . S
C43 N46 1.377 . S
C43 H63 0.930 . S
C44 N42 1.375 . S
C44 C43 1.338 . S
C44 H48 0.931 . S
C45 N42 1.313 . S
C45 N46 1.344 . S
C45 H49 0.930 . S
N46 C43 1.377 . S
N46 C45 1.344 . S
O47 Co39 2.055 . S
O47 C51 1.253 . S
H48 C44 0.931 . S
H49 C45 0.930 . S
O50 Co39 2.039 . S
O50 C40 1.265 . S
C51 O47 1.253 . S
C51 O52 1.227 . S
O52 C51 1.227 . S
N53 Co39 2.140 . S
N53 C56 1.346 . S
N53 C57 1.345 . S
C54 C55 1.387 . S
C54 C58 1.391 . S
C55 C54 1.387 . S
C55 C56 1.369 . S
C55 H64 0.929 . S
C56 N53 1.346 . S
C56 C55 1.369 . S
C56 H59 0.928 . S
C57 N53 1.345 . S
C57 C58 1.371 . S
C57 H60 0.931 . S
C58 C54 1.391 . S
C58 C57 1.371 . S
C58 H65 0.930 . S
H59 C56 0.928 . S
H60 C57 0.931 . S
H61 C37 0.930 . S
H62 C34 0.930 . S
H63 C43 0.930 . S
H64 C55 0.929 . S
H65 C58 0.930 . S
C66 C67 1.351 . S
C66 N69 1.368 . S
C66 H71 0.931 . S
C67 C66 1.351 . S
C67 N68 1.373 . S
C67 H95 0.930 . S
N68 C67 1.373 . S
N68 C70 1.340 . S
N69 C66 1.368 . S
N69 C70 1.321 . S
N69 Co72 2.135 . S
C70 N68 1.340 . S
C70 N69 1.321 . S
C70 H94 0.930 . S
H71 C66 0.931 . S
Co72 N69 2.135 . S
Co72 N75 2.121 . S
Co72 O80 2.055 . S
Co72 O83 2.039 . S
Co72 N86 2.140 . S
C73 O74 1.227 . S
C73 O83 1.265 . S
O74 C73 1.227 . S
N75 Co72 2.121 . S
N75 C77 1.375 . S
N75 C78 1.313 . S
C76 C77 1.338 . S
C76 N79 1.377 . S
C76 H96 0.930 . S
C77 N75 1.375 . S
C77 C76 1.338 . S
C77 H81 0.931 . S
C78 N75 1.313 . S
C78 N79 1.344 . S
C78 H82 0.930 . S
N79 C76 1.377 . S
N79 C78 1.344 . S
O80 Co72 2.055 . S
O80 C84 1.253 . S
H81 C77 0.931 . S
H82 C78 0.930 . S
O83 Co72 2.039 . S
O83 C73 1.265 . S
C84 O80 1.253 . S
C84 O85 1.227 . S
O85 C84 1.227 . S
N86 Co72 2.140 . S
N86 C89 1.346 . S
N86 C90 1.345 . S
C87 C88 1.387 . S
C87 C91 1.391 . S
C88 C87 1.387 . S
C88 C89 1.369 . S
C88 H97 0.929 . S
C89 N86 1.346 . S
C89 C88 1.369 . S
C89 H92 0.928 . S
C90 N86 1.345 . S
C90 C91 1.371 . S
C90 H93 0.931 . S
C91 C87 1.391 . S
C91 C90 1.371 . S
C91 H98 0.930 . S
H92 C89 0.928 . S
H93 C90 0.931 . S
H94 C70 0.930 . S
H95 C67 0.930 . S
H96 C76 0.930 . S
H97 C88 0.929 . S
H98 C91 0.930 . S
C99 C100 1.351 . S
C99 N102 1.368 . S
C99 H104 0.931 . S
C100 C99 1.351 . S
C100 N101 1.373 . S
C100 H128 0.930 . S
N101 C100 1.373 . S
N101 C103 1.340 . S
N102 C99 1.368 . S
N102 C103 1.321 . S
N102 Co105 2.135 . S
C103 N101 1.340 . S
C103 N102 1.321 . S
C103 H127 0.930 . S
H104 C99 0.931 . S
Co105 N102 2.135 . S
Co105 N108 2.121 . S
Co105 O113 2.055 . S
Co105 O116 2.039 . S
Co105 N119 2.140 . S
C106 O107 1.227 . S
C106 O116 1.265 . S
O107 C106 1.227 . S
N108 Co105 2.121 . S
N108 C110 1.375 . S
N108 C111 1.313 . S
C109 C110 1.338 . S
C109 N112 1.377 . S
C109 H129 0.930 . S
C110 N108 1.375 . S
C110 C109 1.338 . S
C110 H114 0.931 . S
C111 N108 1.313 . S
C111 N112 1.344 . S
C111 H115 0.930 . S
N112 C109 1.377 . S
N112 C111 1.344 . S
O113 Co105 2.055 . S
O113 C117 1.253 . S
H114 C110 0.931 . S
H115 C111 0.930 . S
O116 Co105 2.039 . S
O116 C106 1.265 . S
C117 O113 1.253 . S
C117 O118 1.227 . S
O118 C117 1.227 . S
N119 Co105 2.140 . S
N119 C122 1.346 . S
N119 C123 1.345 . S
C120 C121 1.387 . S
C120 C124 1.391 . S
C121 C120 1.387 . S
C121 C122 1.369 . S
C121 H130 0.929 . S
C122 N119 1.346 . S
C122 C121 1.369 . S
C122 H125 0.928 . S
C123 N119 1.345 . S
C123 C124 1.371 . S
C123 H126 0.931 . S
C124 C120 1.391 . S
C124 C123 1.371 . S
C124 H131 0.930 . S
H125 C122 0.928 . S
H126 C123 0.931 . S
H127 C103 0.930 . S
H128 C100 0.930 . S
H129 C109 0.930 . S
H130 C121 0.929 . S
H131 C124 0.930 . S
C132 C133 1.351 . S
C132 N135 1.368 . S
C132 H137 0.931 . S
C133 C132 1.351 . S
C133 N134 1.373 . S
C133 H161 0.930 . S
N134 C133 1.373 . S
N134 C136 1.340 . S
N135 C132 1.368 . S
N135 C136 1.321 . S
N135 Co138 2.135 . S
C136 N134 1.340 . S
C136 N135 1.321 . S
C136 H160 0.930 . S
H137 C132 0.931 . S
Co138 N135 2.135 . S
Co138 N141 2.121 . S
Co138 O146 2.055 . S
Co138 O149 2.039 . S
Co138 N152 2.140 . S
C139 O140 1.227 . S
C139 O149 1.265 . S
O140 C139 1.227 . S
N141 Co138 2.121 . S
N141 C143 1.375 . S
N141 C144 1.313 . S
C142 C143 1.338 . S
C142 N145 1.377 . S
C142 H162 0.930 . S
C143 N141 1.375 . S
C143 C142 1.338 . S
C143 H147 0.931 . S
C144 N141 1.313 . S
C144 N145 1.344 . S
C144 H148 0.930 . S
N145 C142 1.377 . S
N145 C144 1.344 . S
O146 Co138 2.055 . S
O146 C150 1.253 . S
H147 C143 0.931 . S
H148 C144 0.930 . S
O149 Co138 2.039 . S
O149 C139 1.265 . S
C150 O146 1.253 . S
C150 O151 1.227 . S
O151 C150 1.227 . S
N152 Co138 2.140 . S
N152 C155 1.346 . S
N152 C156 1.345 . S
C153 C154 1.387 . S
C153 C157 1.391 . S
C154 C153 1.387 . S
C154 C155 1.369 . S
C154 H163 0.929 . S
C155 N152 1.346 . S
C155 C154 1.369 . S
C155 H158 0.928 . S
C156 N152 1.345 . S
C156 C157 1.371 . S
C156 H159 0.931 . S
C157 C153 1.391 . S
C157 C156 1.371 . S
C157 H164 0.930 . S
H158 C155 0.928 . S
H159 C156 0.931 . S
H160 C136 0.930 . S
H161 C133 0.930 . S
H162 C142 0.930 . S
H163 C154 0.929 . S
H164 C157 0.930 . S
C165 C166 1.351 . S
C165 N168 1.368 . S
C165 H170 0.931 . S
C166 C165 1.351 . S
C166 N167 1.373 . S
C166 H194 0.930 . S
N167 C166 1.373 . S
N167 C169 1.340 . S
N168 C165 1.368 . S
N168 C169 1.321 . S
N168 Co171 2.135 . S
C169 N167 1.340 . S
C169 N168 1.321 . S
C169 H193 0.930 . S
H170 C165 0.931 . S
Co171 N168 2.135 . S
Co171 N174 2.121 . S
Co171 O179 2.055 . S
Co171 O182 2.039 . S
Co171 N185 2.140 . S
C172 O173 1.227 . S
C172 O182 1.265 . S
O173 C172 1.227 . S
N174 Co171 2.121 . S
N174 C176 1.375 . S
N174 C177 1.313 . S
C175 C176 1.338 . S
C175 N178 1.377 . S
C175 H195 0.930 . S
C176 N174 1.375 . S
C176 C175 1.338 . S
C176 H180 0.931 . S
C177 N174 1.313 . S
C177 N178 1.344 . S
C177 H181 0.930 . S
N178 C175 1.377 . S
N178 C177 1.344 . S
O179 Co171 2.055 . S
O179 C183 1.253 . S
H180 C176 0.931 . S
H181 C177 0.930 . S
O182 Co171 2.039 . S
O182 C172 1.265 . S
C183 O179 1.253 . S
C183 O184 1.227 . S
O184 C183 1.227 . S
N185 Co171 2.140 . S
N185 C188 1.346 . S
N185 C189 1.345 . S
C186 C187 1.387 . S
C186 C190 1.391 . S
C187 C186 1.387 . S
C187 C188 1.369 . S
C187 H196 0.929 . S
C188 N185 1.346 . S
C188 C187 1.369 . S
C188 H191 0.928 . S
C189 N185 1.345 . S
C189 C190 1.371 . S
C189 H192 0.931 . S
C190 C186 1.391 . S
C190 C189 1.371 . S
C190 H197 0.930 . S
H191 C188 0.928 . S
H192 C189 0.931 . S
H193 C169 0.930 . S
H194 C166 0.930 . S
H195 C175 0.930 . S
H196 C187 0.929 . S
H197 C190 0.930 . S
C198 C199 1.351 . S
C198 N201 1.368 . S
C198 H203 0.931 . S
C199 C198 1.351 . S
C199 N200 1.373 1_556 S
C199 H227 0.930 1_556 S
N200 C199 1.373 1_554 S
N200 C202 1.340 1_554 S
N201 C198 1.368 . S
N201 C202 1.321 . S
N201 Co204 2.135 . S
C202 N200 1.340 1_556 S
C202 N201 1.321 . S
C202 H226 0.930 . S
H203 C198 0.931 . S
Co204 N201 2.135 . S
Co204 N207 2.121 . S
Co204 O212 2.055 . S
Co204 O215 2.039 . S
Co204 N218 2.140 . S
C205 O206 1.227 . S
C205 O215 1.265 . S
O206 C205 1.227 . S
N207 Co204 2.121 . S
N207 C209 1.375 . S
N207 C210 1.313 . S
C208 C209 1.338 . S
C208 N211 1.377 . S
C208 H228 0.930 . S
C209 N207 1.375 . S
C209 C208 1.338 . S
C209 H213 0.931 . S
C210 N207 1.313 . S
C210 N211 1.344 . S
C210 H214 0.930 . S
N211 C208 1.377 . S
N211 C210 1.344 . S
O212 Co204 2.055 . S
O212 C216 1.253 . S
H213 C209 0.931 . S
H214 C210 0.930 . S
O215 Co204 2.039 . S
O215 C205 1.265 . S
C216 O212 1.253 . S
C216 O217 1.227 . S
O217 C216 1.227 . S
N218 Co204 2.140 . S
N218 C221 1.346 . S
N218 C222 1.345 . S
C219 C220 1.387 . S
C219 C223 1.391 . S
C220 C219 1.387 . S
C220 C221 1.369 . S
C220 H229 0.929 . S
C221 N218 1.346 . S
C221 C220 1.369 . S
C221 H224 0.928 . S
C222 N218 1.345 . S
C222 C223 1.371 . S
C222 H225 0.931 . S
C223 C219 1.391 . S
C223 C222 1.371 . S
C223 H230 0.930 . S
H224 C221 0.928 . S
H225 C222 0.931 . S
H226 C202 0.930 . S
H227 C199 0.930 1_554 S
H228 C208 0.930 . S
H229 C220 0.929 . S
H230 C223 0.930 . S
C231 C232 1.351 . S
C231 N234 1.368 . S
C231 H236 0.931 . S
C232 C231 1.351 . S
C232 N233 1.373 1_556 S
C232 H260 0.930 1_556 S
N233 C232 1.373 1_554 S
N233 C235 1.340 1_554 S
N234 C231 1.368 . S
N234 C235 1.321 . S
N234 Co237 2.135 . S
C235 N233 1.340 1_556 S
C235 N234 1.321 . S
C235 H259 0.930 . S
H236 C231 0.931 . S
Co237 N234 2.135 . S
Co237 N240 2.121 . S
Co237 O245 2.055 . S
Co237 O248 2.039 . S
Co237 N251 2.140 . S
C238 O239 1.227 . S
C238 O248 1.265 . S
O239 C238 1.227 . S
N240 Co237 2.121 . S
N240 C242 1.375 . S
N240 C243 1.313 . S
C241 C242 1.338 . S
C241 N244 1.377 . S
C241 H261 0.930 . S
C242 N240 1.375 . S
C242 C241 1.338 . S
C242 H246 0.931 . S
C243 N240 1.313 . S
C243 N244 1.344 . S
C243 H247 0.930 . S
N244 C241 1.377 . S
N244 C243 1.344 . S
O245 Co237 2.055 . S
O245 C249 1.253 . S
H246 C242 0.931 . S
H247 C243 0.930 . S
O248 Co237 2.039 . S
O248 C238 1.265 . S
C249 O245 1.253 . S
C249 O250 1.227 . S
O250 C249 1.227 . S
N251 Co237 2.140 . S
N251 C254 1.346 . S
N251 C255 1.345 . S
C252 C253 1.387 . S
C252 C256 1.391 . S
C253 C252 1.387 . S
C253 C254 1.369 . S
C253 H262 0.929 . S
C254 N251 1.346 . S
C254 C253 1.369 . S
C254 H257 0.928 . S
C255 N251 1.345 . S
C255 C256 1.371 . S
C255 H258 0.931 . S
C256 C252 1.391 . S
C256 C255 1.371 . S
C256 H263 0.930 . S
H257 C254 0.928 . S
H258 C255 0.931 . S
H259 C235 0.930 . S
H260 C232 0.930 1_554 S
H261 C241 0.930 . S
H262 C253 0.929 . S
H263 C256 0.930 . S
C264 C265 1.351 . S
C264 N267 1.368 . S
C264 H269 0.931 . S
C265 C264 1.351 . S
C265 N266 1.373 1_556 S
C265 H293 0.930 1_556 S
N266 C265 1.373 1_554 S
N266 C268 1.340 1_554 S
N267 C264 1.368 . S
N267 C268 1.321 . S
N267 Co270 2.135 . S
C268 N266 1.340 1_556 S
C268 N267 1.321 . S
C268 H292 0.930 . S
H269 C264 0.931 . S
Co270 N267 2.135 . S
Co270 N273 2.121 . S
Co270 O278 2.055 . S
Co270 O281 2.039 . S
Co270 N284 2.140 . S
C271 O272 1.227 . S
C271 O281 1.265 . S
O272 C271 1.227 . S
N273 Co270 2.121 . S
N273 C275 1.375 . S
N273 C276 1.313 . S
C274 C275 1.338 . S
C274 N277 1.377 . S
C274 H294 0.930 . S
C275 N273 1.375 . S
C275 C274 1.338 . S
C275 H279 0.931 . S
C276 N273 1.313 . S
C276 N277 1.344 . S
C276 H280 0.930 . S
N277 C274 1.377 . S
N277 C276 1.344 . S
O278 Co270 2.055 . S
O278 C282 1.253 . S
H279 C275 0.931 . S
H280 C276 0.930 . S
O281 Co270 2.039 . S
O281 C271 1.265 . S
C282 O278 1.253 . S
C282 O283 1.227 . S
O283 C282 1.227 . S
N284 Co270 2.140 . S
N284 C287 1.346 . S
N284 C288 1.345 . S
C285 C286 1.387 . S
C285 C289 1.391 . S
C286 C285 1.387 . S
C286 C287 1.369 . S
C286 H295 0.929 . S
C287 N284 1.346 . S
C287 C286 1.369 . S
C287 H290 0.928 . S
C288 N284 1.345 . S
C288 C289 1.371 . S
C288 H291 0.931 . S
C289 C285 1.391 . S
C289 C288 1.371 . S
C289 H296 0.930 . S
H290 C287 0.928 . S
H291 C288 0.931 . S
H292 C268 0.930 . S
H293 C265 0.930 1_554 S
H294 C274 0.930 . S
H295 C286 0.929 . S
H296 C289 0.930 . S
C297 C298 1.351 . S
C297 N300 1.368 . S
C297 H302 0.931 . S
C298 C297 1.351 . S
C298 N299 1.373 . S
C298 H326 0.930 . S
N299 C298 1.373 . S
N299 C301 1.340 . S
N300 C297 1.368 . S
N300 C301 1.321 . S
N300 Co303 2.135 . S
C301 N299 1.340 . S
C301 N300 1.321 . S
C301 H325 0.930 . S
H302 C297 0.931 . S
Co303 N300 2.135 . S
Co303 N306 2.121 1_556 S
Co303 O311 2.055 . S
Co303 O314 2.039 . S
Co303 N317 2.140 . S
C304 O305 1.227 . S
C304 O314 1.265 . S
O305 C304 1.227 . S
N306 Co303 2.121 1_554 S
N306 C308 1.375 . S
N306 C309 1.313 . S
C307 C308 1.338 . S
C307 N310 1.377 . S
C307 H327 0.930 . S
C308 N306 1.375 . S
C308 C307 1.338 . S
C308 H312 0.931 . S
C309 N306 1.313 . S
C309 N310 1.344 . S
C309 H313 0.930 . S
N310 C307 1.377 . S
N310 C309 1.344 . S
O311 Co303 2.055 . S
O311 C315 1.253 . S
H312 C308 0.931 . S
H313 C309 0.930 . S
O314 Co303 2.039 . S
O314 C304 1.265 . S
C315 O311 1.253 . S
C315 O316 1.227 . S
O316 C315 1.227 . S
N317 Co303 2.140 . S
N317 C320 1.346 . S
N317 C321 1.345 . S
C318 C319 1.387 . S
C318 C322 1.391 . S
C319 C318 1.387 . S
C319 C320 1.369 . S
C319 H328 0.929 . S
C320 N317 1.346 . S
C320 C319 1.369 . S
C320 H323 0.928 . S
C321 N317 1.345 . S
C321 C322 1.371 . S
C321 H324 0.931 . S
C322 C318 1.391 . S
C322 C321 1.371 . S
C322 H329 0.930 . S
H323 C320 0.928 . S
H324 C321 0.931 . S
H325 C301 0.930 . S
H326 C298 0.930 . S
H327 C307 0.930 . S
H328 C319 0.929 . S
H329 C322 0.930 . S
C330 C331 1.351 . S
C330 N333 1.368 . S
C330 H335 0.931 . S
C331 C330 1.351 . S
C331 N332 1.373 . S
C331 H359 0.930 . S
N332 C331 1.373 . S
N332 C334 1.340 . S
N333 C330 1.368 . S
N333 C334 1.321 . S
N333 Co336 2.135 . S
C334 N332 1.340 . S
C334 N333 1.321 . S
C334 H358 0.930 . S
H335 C330 0.931 . S
Co336 N333 2.135 . S
Co336 N339 2.121 1_556 S
Co336 O344 2.055 . S
Co336 O347 2.039 . S
Co336 N350 2.140 . S
C337 O338 1.227 . S
C337 O347 1.265 . S
O338 C337 1.227 . S
N339 Co336 2.121 1_554 S
N339 C341 1.375 . S
N339 C342 1.313 . S
C340 C341 1.338 . S
C340 N343 1.377 . S
C340 H360 0.930 . S
C341 N339 1.375 . S
C341 C340 1.338 . S
C341 H345 0.931 . S
C342 N339 1.313 . S
C342 N343 1.344 . S
C342 H346 0.930 . S
N343 C340 1.377 . S
N343 C342 1.344 . S
O344 Co336 2.055 . S
O344 C348 1.253 . S
H345 C341 0.931 . S
H346 C342 0.930 . S
O347 Co336 2.039 . S
O347 C337 1.265 . S
C348 O344 1.253 . S
C348 O349 1.227 . S
O349 C348 1.227 . S
N350 Co336 2.140 . S
N350 C353 1.346 . S
N350 C354 1.345 . S
C351 C352 1.387 . S
C351 C355 1.391 . S
C352 C351 1.387 . S
C352 C353 1.369 . S
C352 H361 0.929 . S
C353 N350 1.346 . S
C353 C352 1.369 . S
C353 H356 0.928 . S
C354 N350 1.345 . S
C354 C355 1.371 . S
C354 H357 0.931 . S
C355 C351 1.391 . S
C355 C354 1.371 . S
C355 H362 0.930 . S
H356 C353 0.928 . S
H357 C354 0.931 . S
H358 C334 0.930 . S
H359 C331 0.930 . S
H360 C340 0.930 . S
H361 C352 0.929 . S
H362 C355 0.930 . S
C363 C364 1.351 . S
C363 N366 1.368 . S
C363 H368 0.931 . S
C364 C363 1.351 . S
C364 N365 1.373 . S
C364 H392 0.930 . S
N365 C364 1.373 . S
N365 C367 1.340 . S
N366 C363 1.368 . S
N366 C367 1.321 . S
N366 Co369 2.135 . S
C367 N365 1.340 . S
C367 N366 1.321 . S
C367 H391 0.930 . S
H368 C363 0.931 . S
Co369 N366 2.135 . S
Co369 N372 2.121 1_556 S
Co369 O377 2.055 . S
Co369 O380 2.039 . S
Co369 N383 2.140 . S
C370 O371 1.227 . S
C370 O380 1.265 . S
O371 C370 1.227 . S
N372 Co369 2.121 1_554 S
N372 C374 1.375 . S
N372 C375 1.313 . S
C373 C374 1.338 . S
C373 N376 1.377 . S
C373 H393 0.930 . S
C374 N372 1.375 . S
C374 C373 1.338 . S
C374 H378 0.931 . S
C375 N372 1.313 . S
C375 N376 1.344 . S
C375 H379 0.930 . S
N376 C373 1.377 . S
N376 C375 1.344 . S
O377 Co369 2.055 . S
O377 C381 1.253 . S
H378 C374 0.931 . S
H379 C375 0.930 . S
O380 Co369 2.039 . S
O380 C370 1.265 . S
C381 O377 1.253 . S
C381 O382 1.227 . S
O382 C381 1.227 . S
N383 Co369 2.140 . S
N383 C386 1.346 . S
N383 C387 1.345 . S
C384 C385 1.387 . S
C384 C388 1.391 . S
C385 C384 1.387 . S
C385 C386 1.369 . S
C385 H394 0.929 . S
C386 N383 1.346 . S
C386 C385 1.369 . S
C386 H389 0.928 . S
C387 N383 1.345 . S
C387 C388 1.371 . S
C387 H390 0.931 . S
C388 C384 1.391 . S
C388 C387 1.371 . S
C388 H395 0.930 . S
H389 C386 0.928 . S
H390 C387 0.931 . S
H391 C367 0.930 . S
H392 C364 0.930 . S
H393 C373 0.930 . S
H394 C385 0.929 . S
H395 C388 0.930 . S
C396 C397 1.351 . S
C396 N399 1.368 . S
C396 H401 0.931 . S
C397 C396 1.351 . S
C397 N398 1.373 . S
C397 H425 0.930 . S
N398 C397 1.373 . S
N398 C400 1.340 . S
N399 C396 1.368 . S
N399 C400 1.321 . S
N399 Co402 2.135 . S
C400 N398 1.340 . S
C400 N399 1.321 . S
C400 H424 0.930 . S
H401 C396 0.931 . S
Co402 N399 2.135 . S
Co402 N405 2.121 1_554 S
Co402 O410 2.055 . S
Co402 O413 2.039 . S
Co402 N416 2.140 . S
C403 O404 1.227 . S
C403 O413 1.265 . S
O404 C403 1.227 . S
N405 Co402 2.121 1_556 S
N405 C407 1.375 . S
N405 C408 1.313 . S
C406 C407 1.338 . S
C406 N409 1.377 . S
C406 H426 0.930 . S
C407 N405 1.375 . S
C407 C406 1.338 . S
C407 H411 0.931 . S
C408 N405 1.313 . S
C408 N409 1.344 . S
C408 H412 0.930 . S
N409 C406 1.377 . S
N409 C408 1.344 . S
O410 Co402 2.055 . S
O410 C414 1.253 . S
H411 C407 0.931 . S
H412 C408 0.930 . S
O413 Co402 2.039 . S
O413 C403 1.265 . S
C414 O410 1.253 . S
C414 O415 1.227 . S
O415 C414 1.227 . S
N416 Co402 2.140 . S
N416 C419 1.346 . S
N416 C420 1.345 . S
C417 C418 1.387 . S
C417 C421 1.391 . S
C418 C417 1.387 . S
C418 C419 1.369 . S
C418 H427 0.929 . S
C419 N416 1.346 . S
C419 C418 1.369 . S
C419 H422 0.928 . S
C420 N416 1.345 . S
C420 C421 1.371 . S
C420 H423 0.931 . S
C421 C417 1.391 . S
C421 C420 1.371 . S
C421 H428 0.930 . S
H422 C419 0.928 . S
H423 C420 0.931 . S
H424 C400 0.930 . S
H425 C397 0.930 . S
H426 C406 0.930 . S
H427 C418 0.929 . S
H428 C421 0.930 . S
C429 C430 1.351 . S
C429 N432 1.368 . S
C429 H434 0.931 . S
C430 C429 1.351 . S
C430 N431 1.373 . S
C430 H458 0.930 . S
N431 C430 1.373 . S
N431 C433 1.340 . S
N432 C429 1.368 . S
N432 C433 1.321 . S
N432 Co435 2.135 . S
C433 N431 1.340 . S
C433 N432 1.321 . S
C433 H457 0.930 . S
H434 C429 0.931 . S
Co435 N432 2.135 . S
Co435 N438 2.121 1_554 S
Co435 O443 2.055 . S
Co435 O446 2.039 . S
Co435 N449 2.140 . S
C436 O437 1.227 . S
C436 O446 1.265 . S
O437 C436 1.227 . S
N438 Co435 2.121 1_556 S
N438 C440 1.375 . S
N438 C441 1.313 . S
C439 C440 1.338 . S
C439 N442 1.377 . S
C439 H459 0.930 . S
C440 N438 1.375 . S
C440 C439 1.338 . S
C440 H444 0.931 . S
C441 N438 1.313 . S
C441 N442 1.344 . S
C441 H445 0.930 . S
N442 C439 1.377 . S
N442 C441 1.344 . S
O443 Co435 2.055 . S
O443 C447 1.253 . S
H444 C440 0.931 . S
H445 C441 0.930 . S
O446 Co435 2.039 . S
O446 C436 1.265 . S
C447 O443 1.253 . S
C447 O448 1.227 . S
O448 C447 1.227 . S
N449 Co435 2.140 . S
N449 C452 1.346 . S
N449 C453 1.345 . S
C450 C451 1.387 . S
C450 C454 1.391 . S
C451 C450 1.387 . S
C451 C452 1.369 . S
C451 H460 0.929 . S
C452 N449 1.346 . S
C452 C451 1.369 . S
C452 H455 0.928 . S
C453 N449 1.345 . S
C453 C454 1.371 . S
C453 H456 0.931 . S
C454 C450 1.391 . S
C454 C453 1.371 . S
C454 H461 0.930 . S
H455 C452 0.928 . S
H456 C453 0.931 . S
H457 C433 0.930 . S
H458 C430 0.930 . S
H459 C439 0.930 . S
H460 C451 0.929 . S
H461 C454 0.930 . S
C462 C463 1.351 . S
C462 N465 1.368 . S
C462 H467 0.931 . S
C463 C462 1.351 . S
C463 N464 1.373 . S
C463 H491 0.930 . S
N464 C463 1.373 . S
N464 C466 1.340 . S
N465 C462 1.368 . S
N465 C466 1.321 . S
N465 Co468 2.135 . S
C466 N464 1.340 . S
C466 N465 1.321 . S
C466 H490 0.930 . S
H467 C462 0.931 . S
Co468 N465 2.135 . S
Co468 N471 2.121 1_554 S
Co468 O476 2.055 . S
Co468 O479 2.039 . S
Co468 N482 2.140 . S
C469 O470 1.227 . S
C469 O479 1.265 . S
O470 C469 1.227 . S
N471 Co468 2.121 1_556 S
N471 C473 1.375 . S
N471 C474 1.313 . S
C472 C473 1.338 . S
C472 N475 1.377 . S
C472 H492 0.930 . S
C473 N471 1.375 . S
C473 C472 1.338 . S
C473 H477 0.931 . S
C474 N471 1.313 . S
C474 N475 1.344 . S
C474 H478 0.930 . S
N475 C472 1.377 . S
N475 C474 1.344 . S
O476 Co468 2.055 . S
O476 C480 1.253 . S
H477 C473 0.931 . S
H478 C474 0.930 . S
O479 Co468 2.039 . S
O479 C469 1.265 . S
C480 O476 1.253 . S
C480 O481 1.227 . S
O481 C480 1.227 . S
N482 Co468 2.140 . S
N482 C485 1.346 . S
N482 C486 1.345 . S
C483 C484 1.387 . S
C483 C487 1.391 . S
C484 C483 1.387 . S
C484 C485 1.369 . S
C484 H493 0.929 . S
C485 N482 1.346 . S
C485 C484 1.369 . S
C485 H488 0.928 . S
C486 N482 1.345 . S
C486 C487 1.371 . S
C486 H489 0.931 . S
C487 C483 1.391 . S
C487 C486 1.371 . S
C487 H494 0.930 . S
H488 C485 0.928 . S
H489 C486 0.931 . S
H490 C466 0.930 . S
H491 C463 0.930 . S
H492 C472 0.930 . S
H493 C484 0.929 . S
H494 C487 0.930 . S
C495 C496 1.351 . S
C495 N498 1.368 . S
C495 H500 0.931 . S
C496 C495 1.351 . S
C496 N497 1.373 1_554 S
C496 H524 0.930 1_554 S
N497 C496 1.373 1_556 S
N497 C499 1.340 1_556 S
N498 C495 1.368 . S
N498 C499 1.321 . S
N498 Co501 2.135 . S
C499 N497 1.340 1_554 S
C499 N498 1.321 . S
C499 H523 0.930 . S
H500 C495 0.931 . S
Co501 N498 2.135 . S
Co501 N504 2.121 . S
Co501 O509 2.055 . S
Co501 O512 2.039 . S
Co501 N515 2.140 . S
C502 O503 1.227 . S
C502 O512 1.265 . S
O503 C502 1.227 . S
N504 Co501 2.121 . S
N504 C506 1.375 . S
N504 C507 1.313 . S
C505 C506 1.338 . S
C505 N508 1.377 . S
C505 H525 0.930 . S
C506 N504 1.375 . S
C506 C505 1.338 . S
C506 H510 0.931 . S
C507 N504 1.313 . S
C507 N508 1.344 . S
C507 H511 0.930 . S
N508 C505 1.377 . S
N508 C507 1.344 . S
O509 Co501 2.055 . S
O509 C513 1.253 . S
H510 C506 0.931 . S
H511 C507 0.930 . S
O512 Co501 2.039 . S
O512 C502 1.265 . S
C513 O509 1.253 . S
C513 O514 1.227 . S
O514 C513 1.227 . S
N515 Co501 2.140 . S
N515 C518 1.346 . S
N515 C519 1.345 . S
C516 C517 1.387 . S
C516 C520 1.391 . S
C517 C516 1.387 . S
C517 C518 1.369 . S
C517 H526 0.929 . S
C518 N515 1.346 . S
C518 C517 1.369 . S
C518 H521 0.928 . S
C519 N515 1.345 . S
C519 C520 1.371 . S
C519 H522 0.931 . S
C520 C516 1.391 . S
C520 C519 1.371 . S
C520 H527 0.930 . S
H521 C518 0.928 . S
H522 C519 0.931 . S
H523 C499 0.930 . S
H524 C496 0.930 1_556 S
H525 C505 0.930 . S
H526 C517 0.929 . S
H527 C520 0.930 . S
C528 C529 1.351 . S
C528 N531 1.368 . S
C528 H533 0.931 . S
C529 C528 1.351 . S
C529 N530 1.373 1_554 S
C529 H557 0.930 1_554 S
N530 C529 1.373 1_556 S
N530 C532 1.340 1_556 S
N531 C528 1.368 . S
N531 C532 1.321 . S
N531 Co534 2.135 . S
C532 N530 1.340 1_554 S
C532 N531 1.321 . S
C532 H556 0.930 . S
H533 C528 0.931 . S
Co534 N531 2.135 . S
Co534 N537 2.121 . S
Co534 O542 2.055 . S
Co534 O545 2.039 . S
Co534 N548 2.140 . S
C535 O536 1.227 . S
C535 O545 1.265 . S
O536 C535 1.227 . S
N537 Co534 2.121 . S
N537 C539 1.375 . S
N537 C540 1.313 . S
C538 C539 1.338 . S
C538 N541 1.377 . S
C538 H558 0.930 . S
C539 N537 1.375 . S
C539 C538 1.338 . S
C539 H543 0.931 . S
C540 N537 1.313 . S
C540 N541 1.344 . S
C540 H544 0.930 . S
N541 C538 1.377 . S
N541 C540 1.344 . S
O542 Co534 2.055 . S
O542 C546 1.253 . S
H543 C539 0.931 . S
H544 C540 0.930 . S
O545 Co534 2.039 . S
O545 C535 1.265 . S
C546 O542 1.253 . S
C546 O547 1.227 . S
O547 C546 1.227 . S
N548 Co534 2.140 . S
N548 C551 1.346 . S
N548 C552 1.345 . S
C549 C550 1.387 . S
C549 C553 1.391 . S
C550 C549 1.387 . S
C550 C551 1.369 . S
C550 H559 0.929 . S
C551 N548 1.346 . S
C551 C550 1.369 . S
C551 H554 0.928 . S
C552 N548 1.345 . S
C552 C553 1.371 . S
C552 H555 0.931 . S
C553 C549 1.391 . S
C553 C552 1.371 . S
C553 H560 0.930 . S
H554 C551 0.928 . S
H555 C552 0.931 . S
H556 C532 0.930 . S
H557 C529 0.930 1_556 S
H558 C538 0.930 . S
H559 C550 0.929 . S
H560 C553 0.930 . S
C561 C562 1.351 . S
C561 N564 1.368 . S
C561 H566 0.931 . S
C562 C561 1.351 . S
C562 N563 1.373 1_554 S
C562 H590 0.930 1_554 S
N563 C562 1.373 1_556 S
N563 C565 1.340 1_556 S
N564 C561 1.368 . S
N564 C565 1.321 . S
N564 Co567 2.135 . S
C565 N563 1.340 1_554 S
C565 N564 1.321 . S
C565 H589 0.930 . S
H566 C561 0.931 . S
Co567 N564 2.135 . S
Co567 N570 2.121 . S
Co567 O575 2.055 . S
Co567 O578 2.039 . S
Co567 N581 2.140 . S
C568 O569 1.227 . S
C568 O578 1.265 . S
O569 C568 1.227 . S
N570 Co567 2.121 . S
N570 C572 1.375 . S
N570 C573 1.313 . S
C571 C572 1.338 . S
C571 N574 1.377 . S
C571 H591 0.930 . S
C572 N570 1.375 . S
C572 C571 1.338 . S
C572 H576 0.931 . S
C573 N570 1.313 . S
C573 N574 1.344 . S
C573 H577 0.930 . S
N574 C571 1.377 . S
N574 C573 1.344 . S
O575 Co567 2.055 . S
O575 C579 1.253 . S
H576 C572 0.931 . S
H577 C573 0.930 . S
O578 Co567 2.039 . S
O578 C568 1.265 . S
C579 O575 1.253 . S
C579 O580 1.227 . S
O580 C579 1.227 . S
N581 Co567 2.140 . S
N581 C584 1.346 . S
N581 C585 1.345 . S
C582 C583 1.387 . S
C582 C586 1.391 . S
C583 C582 1.387 . S
C583 C584 1.369 . S
C583 H592 0.929 . S
C584 N581 1.346 . S
C584 C583 1.369 . S
C584 H587 0.928 . S
C585 N581 1.345 . S
C585 C586 1.371 . S
C585 H588 0.931 . S
C586 C582 1.391 . S
C586 C585 1.371 . S
C586 H593 0.930 . S
H587 C584 0.928 . S
H588 C585 0.931 . S
H589 C565 0.930 . S
H590 C562 0.930 1_556 S
H591 C571 0.930 . S
H592 C583 0.929 . S
H593 C586 0.930 . S
H594 C606 0.930 . S
H595 C608 0.930 . S
H596 C609 0.930 . S
H597 C613 0.959 . S
H598 C613 0.959 . S
H599 C613 0.961 . S
H600 C614 0.960 . S
H601 C614 0.961 . S
H602 C614 0.959 . S
H603 C617 0.929 . S
H604 C618 0.931 . S
H605 C620 0.930 . S
C606 H594 0.930 . S
C606 C607 1.399 . S
C606 C611 1.399 . S
C607 C606 1.399 . S
C607 C608 1.376 . S
C608 H595 0.930 . S
C608 C607 1.376 . S
C608 C609 1.388 . S
C609 H596 0.930 . S
C609 C608 1.388 . S
C609 C610 1.390 . S
C610 C609 1.390 . S
C610 C611 1.394 . S
C610 C616 1.465 . S
C611 C606 1.399 . S
C611 C610 1.394 . S
C611 C612 1.516 . S
C612 C611 1.516 . S
C612 C613 1.502 . S
C612 C614 1.561 . S
C612 C615 1.526 . S
C613 H597 0.959 . S
C613 H598 0.959 . S
C613 H599 0.961 . S
C613 C612 1.502 . S
C614 H600 0.960 . S
C614 H601 0.961 . S
C614 H602 0.959 . S
C614 C612 1.561 . S
C615 C612 1.526 . S
C615 C616 1.396 . S
C615 C620 1.390 . S
C616 C610 1.465 . S
C616 C615 1.396 . S
C616 C617 1.399 . S
C617 H603 0.929 . S
C617 C616 1.399 . S
C617 C618 1.385 . S
C618 H604 0.931 . S
C618 C617 1.385 . S
C618 C619 1.389 . S
C619 C618 1.389 . S
C619 C620 1.387 . S
C620 H605 0.930 . S
C620 C615 1.390 . S
C620 C619 1.387 . S
H621 C633 0.930 . S
H622 C635 0.930 . S
H623 C636 0.930 . S
H624 C640 0.959 . S
H625 C640 0.959 1_565 S
H626 C640 0.961 . S
H627 C641 0.960 . S
H628 C641 0.961 1_565 S
H629 C641 0.959 . S
H630 C644 0.929 . S
H631 C645 0.931 . S
H632 C647 0.930 . S
C633 H621 0.930 . S
C633 C634 1.399 . S
C633 C638 1.399 . S
C634 C633 1.399 . S
C634 C635 1.376 . S
C635 H622 0.930 . S
C635 C634 1.376 . S
C635 C636 1.388 . S
C636 H623 0.930 . S
C636 C635 1.388 . S
C636 C637 1.390 . S
C637 C636 1.390 . S
C637 C638 1.394 . S
C637 C643 1.465 1_545 S
C638 C633 1.399 . S
C638 C637 1.394 . S
C638 C639 1.516 . S
C639 C638 1.516 . S
C639 C640 1.502 . S
C639 C641 1.561 . S
C639 C642 1.526 1_545 S
C640 H624 0.959 . S
C640 H625 0.959 1_545 S
C640 H626 0.961 . S
C640 C639 1.502 . S
C641 H627 0.960 . S
C641 H628 0.961 1_545 S
C641 H629 0.959 . S
C641 C639 1.561 . S
C642 C639 1.526 1_565 S
C642 C643 1.396 . S
C642 C647 1.390 . S
C643 C637 1.465 1_565 S
C643 C642 1.396 . S
C643 C644 1.399 . S
C644 H630 0.929 . S
C644 C643 1.399 . S
C644 C645 1.385 . S
C645 H631 0.931 . S
C645 C644 1.385 . S
C645 C646 1.389 . S
C646 C645 1.389 . S
C646 C647 1.387 . S
C647 H632 0.930 . S
C647 C642 1.390 . S
C647 C646 1.387 . S
H648 C660 0.930 . S
H649 C662 0.930 . S
H650 C663 0.930 . S
H651 C667 0.964 . S
H652 C667 0.991 . S
H653 C667 0.944 1_655 S
H654 C668 0.960 . S
H655 C668 0.961 1_455 S
H656 C668 0.959 . S
H657 C671 0.929 . S
H658 C672 0.931 . S
H659 C674 0.930 . S
C660 H648 0.930 . S
C660 C661 1.399 . S
C660 C665 1.399 . S
C661 C660 1.399 . S
C661 C662 1.376 . S
C662 H649 0.930 . S
C662 C661 1.376 . S
C662 C663 1.388 . S
C663 H650 0.930 . S
C663 C662 1.388 . S
C663 C664 1.390 . S
C664 C663 1.390 . S
C664 C665 1.394 . S
C664 C670 1.465 1_655 S
C665 C660 1.399 . S
C665 C664 1.394 . S
C665 C666 1.516 . S
C666 C665 1.516 . S
C666 C667 1.483 1_655 S
C666 C668 1.561 . S
C666 C669 1.526 1_655 S
C667 H651 0.964 . S
C667 H652 0.991 . S
C667 H653 0.944 1_455 S
C667 C666 1.483 1_455 S
C668 H654 0.960 . S
C668 H655 0.961 1_655 S
C668 H656 0.959 . S
C668 C666 1.561 . S
C669 C666 1.526 1_455 S
C669 C670 1.396 . S
C669 C674 1.390 . S
C670 C664 1.465 1_455 S
C670 C669 1.396 . S
C670 C671 1.399 . S
C671 H657 0.929 . S
C671 C670 1.399 . S
C671 C672 1.385 . S
C672 H658 0.931 . S
C672 C671 1.385 . S
C672 C673 1.389 . S
C673 C672 1.389 . S
C673 C674 1.387 . S
C674 H659 0.930 . S
C674 C669 1.390 . S
C674 C673 1.387 . S
H675 C687 0.930 . S
H676 C689 0.930 . S
H677 C690 0.930 . S
H678 C694 0.959 . S
H679 C694 0.959 . S
H680 C694 0.961 . S
H681 C695 0.960 . S
H682 C695 0.961 . S
H683 C695 0.959 . S
H684 C698 0.929 . S
H685 C699 0.931 . S
H686 C701 0.930 . S
C687 H675 0.930 . S
C687 C688 1.399 . S
C687 C692 1.399 . S
C688 C687 1.399 . S
C688 C689 1.376 . S
C689 H676 0.930 . S
C689 C688 1.376 . S
C689 C690 1.388 . S
C690 H677 0.930 . S
C690 C689 1.388 . S
C690 C691 1.390 . S
C691 C690 1.390 . S
C691 C692 1.394 . S
C691 C697 1.465 . S
C692 C687 1.399 . S
C692 C691 1.394 . S
C692 C693 1.516 . S
C693 C692 1.516 . S
C693 C694 1.502 . S
C693 C695 1.561 . S
C693 C696 1.526 . S
C694 H678 0.959 . S
C694 H679 0.959 . S
C694 H680 0.961 . S
C694 C693 1.502 . S
C695 H681 0.960 . S
C695 H682 0.961 . S
C695 H683 0.959 . S
C695 C693 1.561 . S
C696 C693 1.526 . S
C696 C697 1.396 . S
C696 C701 1.390 . S
C697 C691 1.465 . S
C697 C696 1.396 . S
C697 C698 1.399 . S
C698 H684 0.929 . S
C698 C697 1.399 . S
C698 C699 1.385 . S
C699 H685 0.931 . S
C699 C698 1.385 . S
C699 C700 1.389 . S
C700 C699 1.389 . S
C700 C701 1.387 . S
C701 H686 0.930 . S
C701 C696 1.390 . S
C701 C700 1.387 . S
H702 C714 0.930 . S
H703 C716 0.930 . S
H704 C717 0.930 . S
H705 C721 0.959 . S
H706 C721 0.959 . S
H707 C721 0.961 1_545 S
H708 C722 0.960 1_545 S
H709 C722 0.961 . S
H710 C722 0.959 . S
H711 C725 0.929 . S
H712 C726 0.931 . S
H713 C728 0.930 . S
C714 H702 0.930 . S
C714 C715 1.399 . S
C714 C719 1.399 . S
C715 C714 1.399 . S
C715 C716 1.376 . S
C716 H703 0.930 . S
C716 C715 1.376 . S
C716 C717 1.388 . S
C717 H704 0.930 . S
C717 C716 1.388 . S
C717 C718 1.390 . S
C718 C717 1.390 . S
C718 C719 1.394 . S
C718 C724 1.465 1_545 S
C719 C714 1.399 . S
C719 C718 1.394 . S
C719 C720 1.516 1_545 S
C720 C719 1.516 1_565 S
C720 C721 1.502 . S
C720 C722 1.561 . S
C720 C723 1.526 . S
C721 H705 0.959 . S
C721 H706 0.959 . S
C721 H707 0.961 1_565 S
C721 C720 1.502 . S
C722 H708 0.960 1_565 S
C722 H709 0.961 . S
C722 H710 0.959 . S
C722 C720 1.561 . S
C723 C720 1.526 . S
C723 C724 1.396 . S
C723 C728 1.390 . S
C724 C718 1.465 1_565 S
C724 C723 1.396 . S
C724 C725 1.399 . S
C725 H711 0.929 . S
C725 C724 1.399 . S
C725 C726 1.385 . S
C726 H712 0.931 . S
C726 C725 1.385 . S
C726 C727 1.389 . S
C727 C726 1.389 . S
C727 C728 1.387 . S
C728 H713 0.930 . S
C728 C723 1.390 . S
C728 C727 1.387 . S
H729 C741 0.930 . S
H730 C743 0.930 . S
H731 C744 0.930 . S
H732 C748 0.959 . S
H733 C748 0.959 1_455 S
H734 C748 0.961 . S
H735 C749 0.960 . S
H736 C749 0.961 1_455 S
H737 C749 0.959 . S
H738 C752 0.929 . S
H739 C753 0.931 . S
H740 C755 0.930 . S
C741 H729 0.930 . S
C741 C742 1.399 . S
C741 C746 1.399 . S
C742 C741 1.399 . S
C742 C743 1.376 . S
C743 H730 0.930 . S
C743 C742 1.376 . S
C743 C744 1.388 . S
C744 H731 0.930 . S
C744 C743 1.388 . S
C744 C745 1.390 . S
C745 C744 1.390 . S
C745 C746 1.394 . S
C745 C751 1.465 1_655 S
C746 C741 1.399 . S
C746 C745 1.394 . S
C746 C747 1.516 . S
C747 C746 1.516 . S
C747 C748 1.502 . S
C747 C749 1.561 . S
C747 C750 1.526 1_655 S
C748 H732 0.959 . S
C748 H733 0.959 1_655 S
C748 H734 0.961 . S
C748 C747 1.502 . S
C749 H735 0.960 . S
C749 H736 0.961 1_655 S
C749 H737 0.959 . S
C749 C747 1.561 . S
C750 C747 1.526 1_455 S
C750 C751 1.396 . S
C750 C755 1.390 . S
C751 C745 1.465 1_455 S
C751 C750 1.396 . S
C751 C752 1.399 . S
C752 H738 0.929 . S
C752 C751 1.399 . S
C752 C753 1.385 . S
C753 H739 0.931 . S
C753 C752 1.385 . S
C753 C754 1.389 . S
C754 C753 1.389 . S
C754 C755 1.387 . S
C755 H740 0.930 . S
C755 C750 1.390 . S
C755 C754 1.387 . S
H756 C768 0.930 . S
H757 C770 0.930 . S
H758 C771 0.930 . S
H759 C775 0.959 . S
H760 C775 0.959 . S
H761 C775 0.961 . S
H762 C776 0.960 . S
H763 C776 0.961 . S
H764 C776 0.959 . S
H765 C779 0.929 . S
H766 C780 0.931 . S
H767 C782 0.930 . S
C768 H756 0.930 . S
C768 C769 1.399 . S
C768 C773 1.399 . S
C769 C768 1.399 . S
C769 C770 1.376 . S
C770 H757 0.930 . S
C770 C769 1.376 . S
C770 C771 1.388 . S
C771 H758 0.930 . S
C771 C770 1.388 . S
C771 C772 1.390 . S
C772 C771 1.390 . S
C772 C773 1.394 . S
C772 C778 1.465 . S
C773 C768 1.399 . S
C773 C772 1.394 . S
C773 C774 1.516 . S
C774 C773 1.516 . S
C774 C775 1.502 . S
C774 C776 1.561 . S
C774 C777 1.526 . S
C775 H759 0.959 . S
C775 H760 0.959 . S
C775 H761 0.961 . S
C775 C774 1.502 . S
C776 H762 0.960 . S
C776 H763 0.961 . S
C776 H764 0.959 . S
C776 C774 1.561 . S
C777 C774 1.526 . S
C777 C778 1.396 . S
C777 C782 1.390 . S
C778 C772 1.465 . S
C778 C777 1.396 . S
C778 C779 1.399 . S
C779 H765 0.929 . S
C779 C778 1.399 . S
C779 C780 1.385 . S
C780 H766 0.931 . S
C780 C779 1.385 . S
C780 C781 1.389 . S
C781 C780 1.389 . S
C781 C782 1.387 . S
C782 H767 0.930 . S
C782 C777 1.390 . S
C782 C781 1.387 . S
H783 C795 0.930 . S
H784 C797 0.930 . S
H785 C798 0.930 . S
H786 C802 0.959 . S
H787 C802 0.959 . S
H788 C802 0.961 . S
H789 C803 0.959 1_554 S
H790 C803 0.961 1_554 S
H791 C803 0.959 . S
H792 C806 0.929 . S
H793 C807 0.931 . S
H794 C809 0.930 . S
C795 H783 0.930 . S
C795 C796 1.399 . S
C795 C800 1.399 . S
C796 C795 1.399 . S
C796 C797 1.376 . S
C797 H784 0.930 . S
C797 C796 1.376 . S
C797 C798 1.388 . S
C798 H785 0.930 . S
C798 C797 1.388 . S
C798 C799 1.390 . S
C799 C798 1.390 . S
C799 C800 1.394 . S
C799 C805 1.465 . S
C800 C795 1.399 . S
C800 C799 1.394 . S
C800 C801 1.516 . S
C801 C800 1.516 . S
C801 C802 1.502 . S
C801 C803 1.561 . S
C801 C804 1.526 . S
C802 H786 0.959 . S
C802 H787 0.959 . S
C802 H788 0.961 . S
C802 C801 1.502 . S
C803 H789 0.959 1_556 S
C803 H790 0.961 1_556 S
C803 H791 0.959 . S
C803 C801 1.561 . S
C804 C801 1.526 . S
C804 C805 1.396 . S
C804 C809 1.390 . S
C805 C799 1.465 . S
C805 C804 1.396 . S
C805 C806 1.399 . S
C806 H792 0.929 . S
C806 C805 1.399 . S
C806 C807 1.385 . S
C807 H793 0.931 . S
C807 C806 1.385 . S
C807 C808 1.389 . S
C808 C807 1.389 . S
C808 C809 1.387 . S
C809 H794 0.930 . S
C809 C804 1.390 . S
C809 C808 1.387 . S
H810 C822 0.930 . S
H811 C824 0.930 . S
H812 C825 0.930 . S
H813 C829 0.959 . S
H814 C829 0.959 . S
H815 C829 0.961 . S
H816 C830 0.960 . S
H817 C830 0.961 . S
H818 C830 0.959 . S
H819 C833 0.929 . S
H820 C834 0.931 . S
H821 C836 0.930 . S
C822 H810 0.930 . S
C822 C823 1.399 . S
C822 C827 1.399 . S
C823 C822 1.399 . S
C823 C824 1.376 . S
C824 H811 0.930 . S
C824 C823 1.376 . S
C824 C825 1.388 . S
C825 H812 0.930 . S
C825 C824 1.388 . S
C825 C826 1.390 . S
C826 C825 1.390 . S
C826 C827 1.394 . S
C826 C832 1.465 . S
C827 C822 1.399 . S
C827 C826 1.394 . S
C827 C828 1.516 . S
C828 C827 1.516 . S
C828 C829 1.502 . S
C828 C830 1.561 . S
C828 C831 1.526 . S
C829 H813 0.959 . S
C829 H814 0.959 . S
C829 H815 0.961 . S
C829 C828 1.502 . S
C830 H816 0.960 . S
C830 H817 0.961 . S
C830 H818 0.959 . S
C830 C828 1.561 . S
C831 C828 1.526 . S
C831 C832 1.396 . S
C831 C836 1.390 . S
C832 C826 1.465 . S
C832 C831 1.396 . S
C832 C833 1.399 . S
C833 H819 0.929 . S
C833 C832 1.399 . S
C833 C834 1.385 . S
C834 H820 0.931 . S
C834 C833 1.385 . S
C834 C835 1.389 . S
C835 C834 1.389 . S
C835 C836 1.387 . S
C836 H821 0.930 . S
C836 C831 1.390 . S
C836 C835 1.387 . S
H837 C849 0.930 . S
H838 C851 0.930 . S
H839 C852 0.930 . S
H840 C856 0.959 . S
H841 C856 0.959 . S
H842 C856 0.961 . S
H843 C857 0.960 . S
H844 C857 0.961 . S
H845 C857 0.959 . S
H846 C860 0.929 . S
H847 C861 0.931 . S
H848 C863 0.930 . S
C849 H837 0.930 . S
C849 C850 1.399 . S
C849 C854 1.399 . S
C850 C849 1.399 . S
C850 C851 1.376 . S
C851 H838 0.930 . S
C851 C850 1.376 . S
C851 C852 1.388 . S
C852 H839 0.930 . S
C852 C851 1.388 . S
C852 C853 1.390 . S
C853 C852 1.390 . S
C853 C854 1.394 . S
C853 C859 1.465 . S
C854 C849 1.399 . S
C854 C853 1.394 . S
C854 C855 1.516 . S
C855 C854 1.516 . S
C855 C856 1.502 . S
C855 C857 1.561 . S
C855 C858 1.526 . S
C856 H840 0.959 . S
C856 H841 0.959 . S
C856 H842 0.961 . S
C856 C855 1.502 . S
C857 H843 0.960 . S
C857 H844 0.961 . S
C857 H845 0.959 . S
C857 C855 1.561 . S
C858 C855 1.526 . S
C858 C859 1.396 . S
C858 C863 1.390 . S
C859 C853 1.465 . S
C859 C858 1.396 . S
C859 C860 1.399 . S
C860 H846 0.929 . S
C860 C859 1.399 . S
C860 C861 1.385 . S
C861 H847 0.931 . S
C861 C860 1.385 . S
C861 C862 1.389 . S
C862 C861 1.389 . S
C862 C863 1.387 . S
C863 H848 0.930 . S
C863 C858 1.390 . S
C863 C862 1.387 . S
H864 C876 0.930 . S
H865 C878 0.930 . S
H866 C879 0.930 . S
H867 C883 0.959 . S
H868 C883 0.959 . S
H869 C883 0.961 . S
H870 C884 0.960 . S
H871 C884 0.961 . S
H872 C884 0.959 . S
H873 C887 0.929 . S
H874 C888 0.931 . S
H875 C890 0.930 . S
C876 H864 0.930 . S
C876 C877 1.399 . S
C876 C881 1.399 . S
C877 C876 1.399 . S
C877 C878 1.376 . S
C878 H865 0.930 . S
C878 C877 1.376 . S
C878 C879 1.388 . S
C879 H866 0.930 . S
C879 C878 1.388 . S
C879 C880 1.390 . S
C880 C879 1.390 . S
C880 C881 1.394 . S
C880 C886 1.465 . S
C881 C876 1.399 . S
C881 C880 1.394 . S
C881 C882 1.516 . S
C882 C881 1.516 . S
C882 C883 1.502 . S
C882 C884 1.561 . S
C882 C885 1.526 . S
C883 H867 0.959 . S
C883 H868 0.959 . S
C883 H869 0.961 . S
C883 C882 1.502 . S
C884 H870 0.960 . S
C884 H871 0.961 . S
C884 H872 0.959 . S
C884 C882 1.561 . S
C885 C882 1.526 . S
C885 C886 1.396 . S
C885 C890 1.390 . S
C886 C880 1.465 . S
C886 C885 1.396 . S
C886 C887 1.399 . S
C887 H873 0.929 . S
C887 C886 1.399 . S
C887 C888 1.385 . S
C888 H874 0.931 . S
C888 C887 1.385 . S
C888 C889 1.389 . S
C889 C888 1.389 . S
C889 C890 1.387 . S
C890 H875 0.930 . S
C890 C885 1.390 . S
C890 C889 1.387 . S
H891 C903 0.930 . S
H892 C905 0.930 . S
H893 C906 0.930 . S
H894 C910 0.959 . S
H895 C910 0.959 . S
H896 C910 0.961 . S
H897 C911 0.960 . S
H898 C911 0.961 . S
H899 C911 0.959 . S
H900 C914 0.929 . S
H901 C915 0.931 . S
H902 C917 0.930 . S
C903 H891 0.930 . S
C903 C904 1.399 . S
C903 C908 1.399 . S
C904 C903 1.399 . S
C904 C905 1.376 . S
C905 H892 0.930 . S
C905 C904 1.376 . S
C905 C906 1.388 . S
C906 H893 0.930 . S
C906 C905 1.388 . S
C906 C907 1.390 . S
C907 C906 1.390 . S
C907 C908 1.394 . S
C907 C913 1.465 . S
C908 C903 1.399 . S
C908 C907 1.394 . S
C908 C909 1.516 . S
C909 C908 1.516 . S
C909 C910 1.502 . S
C909 C911 1.561 . S
C909 C912 1.526 . S
C910 H894 0.959 . S
C910 H895 0.959 . S
C910 H896 0.961 . S
C910 C909 1.502 . S
C911 H897 0.960 . S
C911 H898 0.961 . S
C911 H899 0.959 . S
C911 C909 1.561 . S
C912 C909 1.526 . S
C912 C913 1.396 . S
C912 C917 1.390 . S
C913 C907 1.465 . S
C913 C912 1.396 . S
C913 C914 1.399 . S
C914 H900 0.929 . S
C914 C913 1.399 . S
C914 C915 1.385 . S
C915 H901 0.931 . S
C915 C914 1.385 . S
C915 C916 1.389 . S
C916 C915 1.389 . S
C916 C917 1.387 . S
C917 H902 0.930 . S
C917 C912 1.390 . S
C917 C916 1.387 . S
H918 C930 0.930 . S
H919 C932 0.930 . S
H920 C933 0.930 . S
H921 C937 0.959 . S
H922 C937 0.959 . S
H923 C937 0.961 . S
H924 C938 0.960 . S
H925 C938 0.961 . S
H926 C938 0.959 . S
H927 C941 0.929 . S
H928 C942 0.931 . S
H929 C944 0.930 . S
C930 H918 0.930 . S
C930 C931 1.399 . S
C930 C935 1.399 . S
C931 C930 1.399 . S
C931 C932 1.376 . S
C932 H919 0.930 . S
C932 C931 1.376 . S
C932 C933 1.388 . S
C933 H920 0.930 . S
C933 C932 1.388 . S
C933 C934 1.390 . S
C934 C933 1.390 . S
C934 C935 1.394 . S
C934 C940 1.465 . S
C935 C930 1.399 . S
C935 C934 1.394 . S
C935 C936 1.516 . S
C936 C935 1.516 . S
C936 C937 1.502 . S
C936 C938 1.561 . S
C936 C939 1.526 . S
C937 H921 0.959 . S
C937 H922 0.959 . S
C937 H923 0.961 . S
C937 C936 1.502 . S
C938 H924 0.960 . S
C938 H925 0.961 . S
C938 H926 0.959 . S
C938 C936 1.561 . S
C939 C936 1.526 . S
C939 C940 1.396 . S
C939 C944 1.390 . S
C940 C934 1.465 . S
C940 C939 1.396 . S
C940 C941 1.399 . S
C941 H927 0.929 . S
C941 C940 1.399 . S
C941 C942 1.385 . S
C942 H928 0.931 . S
C942 C941 1.385 . S
C942 C943 1.389 . S
C943 C942 1.389 . S
C943 C944 1.387 . S
C944 H929 0.930 . S
C944 C939 1.390 . S
C944 C943 1.387 . S
H945 C957 0.930 . S
H946 C959 0.930 . S
H947 C960 0.930 . S
H948 C964 0.959 . S
H949 C964 0.959 . S
H950 C964 0.961 . S
H951 C965 0.960 . S
H952 C965 0.961 . S
H953 C965 0.959 . S
H954 C968 0.929 . S
H955 C969 0.931 . S
H956 C971 0.930 . S
C957 H945 0.930 . S
C957 C958 1.399 . S
C957 C962 1.399 . S
C958 C957 1.399 . S
C958 C959 1.376 . S
C959 H946 0.930 . S
C959 C958 1.376 . S
C959 C960 1.388 . S
C960 H947 0.930 . S
C960 C959 1.388 . S
C960 C961 1.390 . S
C961 C960 1.390 . S
C961 C962 1.394 . S
C961 C967 1.465 . S
C962 C957 1.399 . S
C962 C961 1.394 . S
C962 C963 1.516 . S
C963 C962 1.516 . S
C963 C964 1.502 . S
C963 C965 1.561 . S
C963 C966 1.526 . S
C964 H948 0.959 . S
C964 H949 0.959 . S
C964 H950 0.961 . S
C964 C963 1.502 . S
C965 H951 0.960 . S
C965 H952 0.961 . S
C965 H953 0.959 . S
C965 C963 1.561 . S
C966 C963 1.526 . S
C966 C967 1.396 . S
C966 C971 1.390 . S
C967 C961 1.465 . S
C967 C966 1.396 . S
C967 C968 1.399 . S
C968 H954 0.929 . S
C968 C967 1.399 . S
C968 C969 1.385 . S
C969 H955 0.931 . S
C969 C968 1.385 . S
C969 C970 1.389 . S
C970 C969 1.389 . S
C970 C971 1.387 . S
C971 H956 0.930 . S
C971 C966 1.390 . S
C971 C970 1.387 . S
H972 C984 0.930 . S
H973 C986 0.930 . S
H974 C987 0.930 . S
H975 C991 0.959 . S
H976 C991 0.954 1_556 S
H977 C991 0.961 1_556 S
H978 C992 0.960 . S
H979 C992 0.961 . S
H980 C992 0.959 . S
H981 C995 0.929 . S
H982 C996 0.931 . S
H983 C998 0.930 . S
C984 H972 0.930 . S
C984 C985 1.399 . S
C984 C989 1.399 . S
C985 C984 1.399 . S
C985 C986 1.376 . S
C986 H973 0.930 . S
C986 C985 1.376 . S
C986 C987 1.388 . S
C987 H974 0.930 . S
C987 C986 1.388 . S
C987 C988 1.390 . S
C988 C987 1.390 . S
C988 C989 1.394 . S
C988 C994 1.465 . S
C989 C984 1.399 . S
C989 C988 1.394 . S
C989 C990 1.516 . S
C990 C989 1.516 . S
C990 C991 1.502 . S
C990 C992 1.561 . S
C990 C993 1.526 . S
C991 H975 0.959 . S
C991 H976 0.954 1_554 S
C991 H977 0.961 1_554 S
C991 C990 1.502 . S
C992 H978 0.960 . S
C992 H979 0.961 . S
C992 H980 0.959 . S
C992 C990 1.561 . S
C993 C990 1.526 . S
C993 C994 1.396 . S
C993 C998 1.390 . S
C994 C988 1.465 . S
C994 C993 1.396 . S
C994 C995 1.399 . S
C995 H981 0.929 . S
C995 C994 1.399 . S
C995 C996 1.385 . S
C996 H982 0.931 . S
C996 C995 1.385 . S
C996 C997 1.389 . S
C997 C996 1.389 . S
C997 C998 1.387 . S
C998 H983 0.930 . S
C998 C993 1.390 . S
C998 C997 1.387 . S
H999 C1011 0.930 . S
H1000 C1013 0.930 . S
H1001 C1014 0.930 . S
H1002 C1018 0.959 . S
H1003 C1018 0.959 . S
H1004 C1018 0.961 . S
H1005 C1019 0.960 . S
H1006 C1019 0.961 . S
H1007 C1019 0.959 . S
H1008 C1022 0.929 . S
H1009 C1023 0.931 . S
H1010 C1025 0.930 . S
C1011 H999 0.930 . S
C1011 C1012 1.399 . S
C1011 C1016 1.399 . S
C1012 C1011 1.399 . S
C1012 C1013 1.376 . S
C1013 H1000 0.930 . S
C1013 C1012 1.376 . S
C1013 C1014 1.388 . S
C1014 H1001 0.930 . S
C1014 C1013 1.388 . S
C1014 C1015 1.390 . S
C1015 C1014 1.390 . S
C1015 C1016 1.394 . S
C1015 C1021 1.465 . S
C1016 C1011 1.399 . S
C1016 C1015 1.394 . S
C1016 C1017 1.516 . S
C1017 C1016 1.516 . S
C1017 C1018 1.502 . S
C1017 C1019 1.561 . S
C1017 C1020 1.526 . S
C1018 H1002 0.959 . S
C1018 H1003 0.959 . S
C1018 H1004 0.961 . S
C1018 C1017 1.502 . S
C1019 H1005 0.960 . S
C1019 H1006 0.961 . S
C1019 H1007 0.959 . S
C1019 C1017 1.561 . S
C1020 C1017 1.526 . S
C1020 C1021 1.396 . S
C1020 C1025 1.390 . S
C1021 C1015 1.465 . S
C1021 C1020 1.396 . S
C1021 C1022 1.399 . S
C1022 H1008 0.929 . S
C1022 C1021 1.399 . S
C1022 C1023 1.385 . S
C1023 H1009 0.931 . S
C1023 C1022 1.385 . S
C1023 C1024 1.389 . S
C1024 C1023 1.389 . S
C1024 C1025 1.387 . S
C1025 H1010 0.930 . S
C1025 C1020 1.390 . S
C1025 C1024 1.387 . S
H1026 C1038 0.930 . S
H1027 C1040 0.930 . S
H1028 C1041 0.930 . S
H1029 C1045 0.959 . S
H1030 C1045 0.959 . S
H1031 C1045 0.961 . S
H1032 C1046 0.960 1_556 S
H1033 C1046 0.961 1_556 S
H1034 C1046 0.959 . S
H1035 C1049 0.929 . S
H1036 C1050 0.931 . S
H1037 C1052 0.930 . S
C1038 H1026 0.930 . S
C1038 C1039 1.399 . S
C1038 C1043 1.399 . S
C1039 C1038 1.399 . S
C1039 C1040 1.376 . S
C1040 H1027 0.930 . S
C1040 C1039 1.376 . S
C1040 C1041 1.388 . S
C1041 H1028 0.930 . S
C1041 C1040 1.388 . S
C1041 C1042 1.390 . S
C1042 C1041 1.390 . S
C1042 C1043 1.394 . S
C1042 C1048 1.465 . S
C1043 C1038 1.399 . S
C1043 C1042 1.394 . S
C1043 C1044 1.516 . S
C1044 C1043 1.516 . S
C1044 C1045 1.502 . S
C1044 C1046 1.561 . S
C1044 C1047 1.526 . S
C1045 H1029 0.959 . S
C1045 H1030 0.959 . S
C1045 H1031 0.961 . S
C1045 C1044 1.502 . S
C1046 H1032 0.960 1_554 S
C1046 H1033 0.961 1_554 S
C1046 H1034 0.959 . S
C1046 C1044 1.561 . S
C1047 C1044 1.526 . S
C1047 C1048 1.396 . S
C1047 C1052 1.390 . S
C1048 C1042 1.465 . S
C1048 C1047 1.396 . S
C1048 C1049 1.399 . S
C1049 H1035 0.929 . S
C1049 C1048 1.399 . S
C1049 C1050 1.385 . S
C1050 H1036 0.931 . S
C1050 C1049 1.385 . S
C1050 C1051 1.389 . S
C1051 C1050 1.389 . S
C1051 C1052 1.387 . S
C1052 H1037 0.930 . S
C1052 C1047 1.390 . S
C1052 C1051 1.387 . S
H1053 C1065 0.930 . S
H1054 C1067 0.930 . S
H1055 C1068 0.930 . S
H1056 C1072 0.959 . S
H1057 C1072 0.959 . S
H1058 C1072 0.961 . S
H1059 C1073 0.960 . S
H1060 C1073 0.961 . S
H1061 C1073 0.959 . S
H1062 C1076 0.929 . S
H1063 C1077 0.931 . S
H1064 C1079 0.930 . S
C1065 H1053 0.930 . S
C1065 C1066 1.399 . S
C1065 C1070 1.399 . S
C1066 C1065 1.399 . S
C1066 C1067 1.376 . S
C1067 H1054 0.930 . S
C1067 C1066 1.376 . S
C1067 C1068 1.388 . S
C1068 H1055 0.930 . S
C1068 C1067 1.388 . S
C1068 C1069 1.390 . S
C1069 C1068 1.390 . S
C1069 C1070 1.394 . S
C1069 C1075 1.465 . S
C1070 C1065 1.399 . S
C1070 C1069 1.394 . S
C1070 C1071 1.516 . S
C1071 C1070 1.516 . S
C1071 C1072 1.502 . S
C1071 C1073 1.561 . S
C1071 C1074 1.526 . S
C1072 H1056 0.959 . S
C1072 H1057 0.959 . S
C1072 H1058 0.961 . S
C1072 C1071 1.502 . S
C1073 H1059 0.960 . S
C1073 H1060 0.961 . S
C1073 H1061 0.959 . S
C1073 C1071 1.561 . S
C1074 C1071 1.526 . S
C1074 C1075 1.396 . S
C1074 C1079 1.390 . S
C1075 C1069 1.465 . S
C1075 C1074 1.396 . S
C1075 C1076 1.399 . S
C1076 H1062 0.929 . S
C1076 C1075 1.399 . S
C1076 C1077 1.385 . S
C1077 H1063 0.931 . S
C1077 C1076 1.385 . S
C1077 C1078 1.389 . S
C1078 C1077 1.389 . S
C1078 C1079 1.387 . S
C1079 H1064 0.930 . S
C1079 C1074 1.390 . S
C1079 C1078 1.387 . S
H1080 C1092 0.930 . S
H1081 C1094 0.930 . S
H1082 C1095 0.930 . S
H1083 C1099 0.959 . S
H1084 C1099 0.959 . S
H1085 C1099 0.961 . S
H1086 C1100 0.960 . S
H1087 C1100 0.961 . S
H1088 C1100 0.959 . S
H1089 C1103 0.929 . S
H1090 C1104 0.931 . S
H1091 C1106 0.930 . S
C1092 H1080 0.930 . S
C1092 C1093 1.399 . S
C1092 C1097 1.399 . S
C1093 C1092 1.399 . S
C1093 C1094 1.376 . S
C1094 H1081 0.930 . S
C1094 C1093 1.376 . S
C1094 C1095 1.388 . S
C1095 H1082 0.930 . S
C1095 C1094 1.388 . S
C1095 C1096 1.390 . S
C1096 C1095 1.390 . S
C1096 C1097 1.394 . S
C1096 C1102 1.465 . S
C1097 C1092 1.399 . S
C1097 C1096 1.394 . S
C1097 C1098 1.516 . S
C1098 C1097 1.516 . S
C1098 C1099 1.502 . S
C1098 C1100 1.561 . S
C1098 C1101 1.526 . S
C1099 H1083 0.959 . S
C1099 H1084 0.959 . S
C1099 H1085 0.961 . S
C1099 C1098 1.502 . S
C1100 H1086 0.960 . S
C1100 H1087 0.961 . S
C1100 H1088 0.959 . S
C1100 C1098 1.561 . S
C1101 C1098 1.526 . S
C1101 C1102 1.396 . S
C1101 C1106 1.390 . S
C1102 C1096 1.465 . S
C1102 C1101 1.396 . S
C1102 C1103 1.399 . S
C1103 H1089 0.929 . S
C1103 C1102 1.399 . S
C1103 C1104 1.385 . S
C1104 H1090 0.931 . S
C1104 C1103 1.385 . S
C1104 C1105 1.389 . S
C1105 C1104 1.389 . S
C1105 C1106 1.387 . S
C1106 H1091 0.930 . S
C1106 C1101 1.390 . S
C1106 C1105 1.387 . S
H1107 C1119 0.930 . S
H1108 C1121 0.930 . S
H1109 C1122 0.930 . S
H1110 C1126 0.959 . S
H1111 C1126 0.959 . S
H1112 C1126 0.961 . S
H1113 C1127 0.960 . S
H1114 C1127 0.961 . S
H1115 C1127 0.959 . S
H1116 C1130 0.929 . S
H1117 C1131 0.931 . S
H1118 C1133 0.930 . S
C1119 H1107 0.930 . S
C1119 C1120 1.399 . S
C1119 C1124 1.399 . S
C1120 C1119 1.399 . S
C1120 C1121 1.376 . S
C1121 H1108 0.930 . S
C1121 C1120 1.376 . S
C1121 C1122 1.388 . S
C1122 H1109 0.930 . S
C1122 C1121 1.388 . S
C1122 C1123 1.390 . S
C1123 C1122 1.390 . S
C1123 C1124 1.394 . S
C1123 C1129 1.465 . S
C1124 C1119 1.399 . S
C1124 C1123 1.394 . S
C1124 C1125 1.516 . S
C1125 C1124 1.516 . S
C1125 C1126 1.502 . S
C1125 C1127 1.561 . S
C1125 C1128 1.526 . S
C1126 H1110 0.959 . S
C1126 H1111 0.959 . S
C1126 H1112 0.961 . S
C1126 C1125 1.502 . S
C1127 H1113 0.960 . S
C1127 H1114 0.961 . S
C1127 H1115 0.959 . S
C1127 C1125 1.561 . S
C1128 C1125 1.526 . S
C1128 C1129 1.396 . S
C1128 C1133 1.390 . S
C1129 C1123 1.465 . S
C1129 C1128 1.396 . S
C1129 C1130 1.399 . S
C1130 H1116 0.929 . S
C1130 C1129 1.399 . S
C1130 C1131 1.385 . S
C1131 H1117 0.931 . S
C1131 C1130 1.385 . S
C1131 C1132 1.389 . S
C1132 C1131 1.389 . S
C1132 C1133 1.387 . S
C1133 H1118 0.930 . S
C1133 C1128 1.390 . S
C1133 C1132 1.387 . S
H1134 C1146 0.930 . S
H1135 C1148 0.930 . S
H1136 C1149 0.930 . S
H1137 C1153 0.959 . S
H1138 C1153 0.959 . S
H1139 C1153 0.961 . S
H1140 C1154 0.960 . S
H1141 C1154 0.961 . S
H1142 C1154 0.959 . S
H1143 C1157 0.929 . S
H1144 C1158 0.931 . S
H1145 C1160 0.930 . S
C1146 H1134 0.930 . S
C1146 C1147 1.399 . S
C1146 C1151 1.399 . S
C1147 C1146 1.399 . S
C1147 C1148 1.376 . S
C1148 H1135 0.930 . S
C1148 C1147 1.376 . S
C1148 C1149 1.388 . S
C1149 H1136 0.930 . S
C1149 C1148 1.388 . S
C1149 C1150 1.390 . S
C1150 C1149 1.390 . S
C1150 C1151 1.394 . S
C1150 C1156 1.465 . S
C1151 C1146 1.399 . S
C1151 C1150 1.394 . S
C1151 C1152 1.516 . S
C1152 C1151 1.516 . S
C1152 C1153 1.502 . S
C1152 C1154 1.561 . S
C1152 C1155 1.526 . S
C1153 H1137 0.959 . S
C1153 H1138 0.959 . S
C1153 H1139 0.961 . S
C1153 C1152 1.502 . S
C1154 H1140 0.960 . S
C1154 H1141 0.961 . S
C1154 H1142 0.959 . S
C1154 C1152 1.561 . S
C1155 C1152 1.526 . S
C1155 C1156 1.396 . S
C1155 C1160 1.390 . S
C1156 C1150 1.465 . S
C1156 C1155 1.396 . S
C1156 C1157 1.399 . S
C1157 H1143 0.929 . S
C1157 C1156 1.399 . S
C1157 C1158 1.385 . S
C1158 H1144 0.931 . S
C1158 C1157 1.385 . S
C1158 C1159 1.389 . S
C1159 C1158 1.389 . S
C1159 C1160 1.387 . S
C1160 H1145 0.930 . S
C1160 C1155 1.390 . S
C1160 C1159 1.387 . S
H1161 C1173 0.930 . S
H1162 C1175 0.930 . S
H1163 C1176 0.930 . S
H1164 C1180 0.959 . S
H1165 C1180 0.959 . S
H1166 C1180 0.961 . S
H1167 C1181 0.960 . S
H1168 C1181 0.961 . S
H1169 C1181 0.959 . S
H1170 C1184 0.929 . S
H1171 C1185 0.931 . S
H1172 C1187 0.930 . S
C1173 H1161 0.930 . S
C1173 C1174 1.399 . S
C1173 C1178 1.399 . S
C1174 C1173 1.399 . S
C1174 C1175 1.376 . S
C1175 H1162 0.930 . S
C1175 C1174 1.376 . S
C1175 C1176 1.388 . S
C1176 H1163 0.930 . S
C1176 C1175 1.388 . S
C1176 C1177 1.390 . S
C1177 C1176 1.390 . S
C1177 C1178 1.394 . S
C1177 C1183 1.465 . S
C1178 C1173 1.399 . S
C1178 C1177 1.394 . S
C1178 C1179 1.516 . S
C1179 C1178 1.516 . S
C1179 C1180 1.502 . S
C1179 C1181 1.561 . S
C1179 C1182 1.526 . S
C1180 H1164 0.959 . S
C1180 H1165 0.959 . S
C1180 H1166 0.961 . S
C1180 C1179 1.502 . S
C1181 H1167 0.960 . S
C1181 H1168 0.961 . S
C1181 H1169 0.959 . S
C1181 C1179 1.561 . S
C1182 C1179 1.526 . S
C1182 C1183 1.396 . S
C1182 C1187 1.390 . S
C1183 C1177 1.465 . S
C1183 C1182 1.396 . S
C1183 C1184 1.399 . S
C1184 H1170 0.929 . S
C1184 C1183 1.399 . S
C1184 C1185 1.385 . S
C1185 H1171 0.931 . S
C1185 C1184 1.385 . S
C1185 C1186 1.389 . S
C1186 C1185 1.389 . S
C1186 C1187 1.387 . S
C1187 H1172 0.930 . S
C1187 C1182 1.390 . S
C1187 C1186 1.387 . S
H1188 C1200 0.930 . S
H1189 C1202 0.930 . S
H1190 C1203 0.930 . S
H1191 C1207 0.959 . S
H1192 C1207 0.959 . S
H1193 C1207 0.961 . S
H1194 C1208 0.960 . S
H1195 C1208 0.961 . S
H1196 C1208 0.959 . S
H1197 C1211 0.929 . S
H1198 C1212 0.931 . S
H1199 C1214 0.930 . S
C1200 H1188 0.930 . S
C1200 C1201 1.399 . S
C1200 C1205 1.399 . S
C1201 C1200 1.399 . S
C1201 C1202 1.376 . S
C1202 H1189 0.930 . S
C1202 C1201 1.376 . S
C1202 C1203 1.388 . S
C1203 H1190 0.930 . S
C1203 C1202 1.388 . S
C1203 C1204 1.390 . S
C1204 C1203 1.390 . S
C1204 C1205 1.394 . S
C1204 C1210 1.465 . S
C1205 C1200 1.399 . S
C1205 C1204 1.394 . S
C1205 C1206 1.516 . S
C1206 C1205 1.516 . S
C1206 C1207 1.502 . S
C1206 C1208 1.561 . S
C1206 C1209 1.526 . S
C1207 H1191 0.959 . S
C1207 H1192 0.959 . S
C1207 H1193 0.961 . S
C1207 C1206 1.502 . S
C1208 H1194 0.960 . S
C1208 H1195 0.961 . S
C1208 H1196 0.959 . S
C1208 C1206 1.561 . S
C1209 C1206 1.526 . S
C1209 C1210 1.396 . S
C1209 C1214 1.390 . S
C1210 C1204 1.465 . S
C1210 C1209 1.396 . S
C1210 C1211 1.399 . S
C1211 H1197 0.929 . S
C1211 C1210 1.399 . S
C1211 C1212 1.385 . S
C1212 H1198 0.931 . S
C1212 C1211 1.385 . S
C1212 C1213 1.389 . S
C1213 C1212 1.389 . S
C1213 C1214 1.387 . S
C1214 H1199 0.930 . S
C1214 C1209 1.390 . S
C1214 C1213 1.387 . S
H1215 C1227 0.930 . S
H1216 C1229 0.930 . S
H1217 C1230 0.930 . S
H1218 C1234 0.959 . S
H1219 C1234 0.959 . S
H1220 C1234 0.961 . S
H1221 C1235 0.960 . S
H1222 C1235 0.961 . S
H1223 C1235 0.959 . S
H1224 C1238 0.929 . S
H1225 C1239 0.931 . S
H1226 C1241 0.930 . S
C1227 H1215 0.930 . S
C1227 C1228 1.399 . S
C1227 C1232 1.399 . S
C1228 C1227 1.399 . S
C1228 C1229 1.376 . S
C1229 H1216 0.930 . S
C1229 C1228 1.376 . S
C1229 C1230 1.388 . S
C1230 H1217 0.930 . S
C1230 C1229 1.388 . S
C1230 C1231 1.390 . S
C1231 C1230 1.390 . S
C1231 C1232 1.394 . S
C1231 C1237 1.465 . S
C1232 C1227 1.399 . S
C1232 C1231 1.394 . S
C1232 C1233 1.516 . S
C1233 C1232 1.516 . S
C1233 C1234 1.502 . S
C1233 C1235 1.561 . S
C1233 C1236 1.526 . S
C1234 H1218 0.959 . S
C1234 H1219 0.959 . S
C1234 H1220 0.961 . S
C1234 C1233 1.502 . S
C1235 H1221 0.960 . S
C1235 H1222 0.961 . S
C1235 H1223 0.959 . S
C1235 C1233 1.561 . S
C1236 C1233 1.526 . S
C1236 C1237 1.396 . S
C1236 C1241 1.390 . S
C1237 C1231 1.465 . S
C1237 C1236 1.396 . S
C1237 C1238 1.399 . S
C1238 H1224 0.929 . S
C1238 C1237 1.399 . S
C1238 C1239 1.385 . S
C1239 H1225 0.931 . S
C1239 C1238 1.385 . S
C1239 C1240 1.389 . S
C1240 C1239 1.389 . S
C1240 C1241 1.387 . S
C1241 H1226 0.930 . S
C1241 C1236 1.390 . S
C1241 C1240 1.387 . S
H1242 C1254 0.930 . S
H1243 C1256 0.930 . S
H1244 C1257 0.930 . S
H1245 C1261 0.959 . S
H1246 C1261 0.959 . S
H1247 C1261 0.961 . S
H1248 C1262 0.960 1_455 S
H1249 C1262 0.961 . S
H1250 C1262 0.959 . S
H1251 C1265 0.929 . S
H1252 C1266 0.931 . S
H1253 C1268 0.930 1_554 S
C1254 H1242 0.930 . S
C1254 C1255 1.399 . S
C1254 C1259 1.399 . S
C1255 C1254 1.399 . S
C1255 C1256 1.376 1_554 S
C1256 H1243 0.930 . S
C1256 C1255 1.376 1_556 S
C1256 C1257 1.388 . S
C1257 H1244 0.930 . S
C1257 C1256 1.388 . S
C1257 C1258 1.390 . S
C1258 C1257 1.390 . S
C1258 C1259 1.394 1_556 S
C1258 C1264 1.465 1_455 S
C1259 C1254 1.399 . S
C1259 C1258 1.394 1_554 S
C1259 C1260 1.516 1_455 S
C1260 C1259 1.516 1_655 S
C1260 C1261 1.502 . S
C1260 C1262 1.561 . S
C1260 C1263 1.526 . S
C1261 H1245 0.959 . S
C1261 H1246 0.959 . S
C1261 H1247 0.961 . S
C1261 C1260 1.502 . S
C1262 H1248 0.960 1_655 S
C1262 H1249 0.961 . S
C1262 H1250 0.959 . S
C1262 C1260 1.561 . S
C1263 C1260 1.526 . S
C1263 C1264 1.396 1_554 S
C1263 C1268 1.390 1_554 S
C1264 C1258 1.465 1_655 S
C1264 C1263 1.396 1_556 S
C1264 C1265 1.399 . S
C1265 H1251 0.929 . S
C1265 C1264 1.399 . S
C1265 C1266 1.385 . S
C1266 H1252 0.931 . S
C1266 C1265 1.385 . S
C1266 C1267 1.389 . S
C1267 C1266 1.389 . S
C1267 C1268 1.387 . S
C1268 H1253 0.930 1_556 S
C1268 C1263 1.390 1_556 S
C1268 C1267 1.387 . S
H1269 C1281 0.930 . S
H1270 C1283 0.930 . S
H1271 C1284 0.930 . S
H1272 C1288 0.959 . S
H1273 C1288 0.959 . S
H1274 C1288 0.961 . S
H1275 C1289 0.960 . S
H1276 C1289 0.961 . S
H1277 C1289 0.959 . S
H1278 C1292 0.931 . S
H1279 C1293 0.931 . S
H1280 C1295 0.930 . S
C1281 H1269 0.930 . S
C1281 C1282 1.399 . S
C1281 C1286 1.399 . S
C1282 C1281 1.399 . S
C1282 C1283 1.376 . S
C1283 H1270 0.930 . S
C1283 C1282 1.376 . S
C1283 C1284 1.388 . S
C1284 H1271 0.930 . S
C1284 C1283 1.388 . S
C1284 C1285 1.390 . S
C1285 C1284 1.390 . S
C1285 C1286 1.394 . S
C1285 C1291 1.465 1_554 S
C1286 C1281 1.399 . S
C1286 C1285 1.394 . S
C1286 C1287 1.516 . S
C1287 C1286 1.516 . S
C1287 C1288 1.502 1_554 S
C1287 C1289 1.561 . S
C1287 C1290 1.526 1_554 S
C1288 H1272 0.959 . S
C1288 H1273 0.959 . S
C1288 H1274 0.961 . S
C1288 C1287 1.502 1_556 S
C1289 H1275 0.960 . S
C1289 H1276 0.961 . S
C1289 H1277 0.959 . S
C1289 C1287 1.561 . S
C1290 C1287 1.526 1_556 S
C1290 C1291 1.396 . S
C1290 C1295 1.390 . S
C1291 C1285 1.465 1_556 S
C1291 C1290 1.396 . S
C1291 C1292 1.399 . S
C1292 H1278 0.931 . S
C1292 C1291 1.399 . S
C1292 C1293 1.385 . S
C1293 H1279 0.931 . S
C1293 C1292 1.385 . S
C1293 C1294 1.389 . S
C1294 C1293 1.389 . S
C1294 C1295 1.387 . S
C1295 H1280 0.930 . S
C1295 C1290 1.390 . S
C1295 C1294 1.387 . S
H1296 C1308 0.930 . S
H1297 C1310 0.930 . S
H1298 C1311 0.930 . S
H1299 C1315 0.959 . S
H1300 C1315 0.959 . S
H1301 C1315 0.980 . S
H1302 C1316 0.960 . S
H1303 C1316 0.961 . S
H1304 C1316 0.959 . S
H1305 C1319 0.929 . S
H1306 C1320 0.931 . S
H1307 C1322 0.930 . S
C1308 H1296 0.930 . S
C1308 C1309 1.399 . S
C1308 C1313 1.399 . S
C1309 C1308 1.399 . S
C1309 C1310 1.376 1_556 S
C1310 H1297 0.930 . S
C1310 C1309 1.376 1_554 S
C1310 C1311 1.388 . S
C1311 H1298 0.930 . S
C1311 C1310 1.388 . S
C1311 C1312 1.390 . S
C1312 C1311 1.390 . S
C1312 C1313 1.394 1_554 S
C1312 C1318 1.465 1_545 S
C1313 C1308 1.399 . S
C1313 C1312 1.394 1_556 S
C1313 C1314 1.516 1_545 S
C1314 C1313 1.516 1_565 S
C1314 C1315 1.502 . S
C1314 C1316 1.561 . S
C1314 C1317 1.526 . S
C1315 H1299 0.959 . S
C1315 H1300 0.959 . S
C1315 H1301 0.980 . S
C1315 C1314 1.502 . S
C1316 H1302 0.960 . S
C1316 H1303 0.961 . S
C1316 H1304 0.959 . S
C1316 C1314 1.561 . S
C1317 C1314 1.526 . S
C1317 C1318 1.396 1_556 S
C1317 C1322 1.390 . S
C1318 C1312 1.465 1_565 S
C1318 C1317 1.396 1_554 S
C1318 C1319 1.399 . S
C1319 H1305 0.929 . S
C1319 C1318 1.399 . S
C1319 C1320 1.385 . S
C1320 H1306 0.931 . S
C1320 C1319 1.385 . S
C1320 C1321 1.389 . S
C1321 C1320 1.389 . S
C1321 C1322 1.387 1_554 S
C1322 H1307 0.930 . S
C1322 C1317 1.390 . S
C1322 C1321 1.387 1_556 S
H1323 C1335 0.930 . S
H1324 C1337 0.930 . S
H1325 C1338 0.930 . S
H1326 C1342 0.959 . S
H1327 C1342 0.959 . S
H1328 C1342 0.961 . S
H1329 C1343 0.960 . S
H1330 C1343 0.961 . S
H1331 C1343 0.959 . S
H1332 C1346 0.929 . S
H1333 C1347 0.931 . S
H1334 C1349 0.930 . S
C1335 H1323 0.930 . S
C1335 C1336 1.399 . S
C1335 C1340 1.399 . S
C1336 C1335 1.399 . S
C1336 C1337 1.376 . S
C1337 H1324 0.930 . S
C1337 C1336 1.376 . S
C1337 C1338 1.388 . S
C1338 H1325 0.930 . S
C1338 C1337 1.388 . S
C1338 C1339 1.390 . S
C1339 C1338 1.390 . S
C1339 C1340 1.394 . S
C1339 C1345 1.465 . S
C1340 C1335 1.399 . S
C1340 C1339 1.394 . S
C1340 C1341 1.516 . S
C1341 C1340 1.516 . S
C1341 C1342 1.502 . S
C1341 C1343 1.561 . S
C1341 C1344 1.526 1_556 S
C1342 H1326 0.959 . S
C1342 H1327 0.959 . S
C1342 H1328 0.961 . S
C1342 C1341 1.502 . S
C1343 H1329 0.960 . S
C1343 H1330 0.961 . S
C1343 H1331 0.959 . S
C1343 C1341 1.561 . S
C1344 C1341 1.526 1_554 S
C1344 C1345 1.396 1_554 S
C1344 C1349 1.390 . S
C1345 C1339 1.465 . S
C1345 C1344 1.396 1_556 S
C1345 C1346 1.399 1_556 S
C1346 H1332 0.929 . S
C1346 C1345 1.399 1_554 S
C1346 C1347 1.385 . S
C1347 H1333 0.931 . S
C1347 C1346 1.385 . S
C1347 C1348 1.389 . S
C1348 C1347 1.389 . S
C1348 C1349 1.387 . S
C1349 H1334 0.930 . S
C1349 C1344 1.390 . S
C1349 C1348 1.387 . S
H1350 C1362 0.930 . S
H1351 C1364 0.930 . S
H1352 C1365 0.930 . S
H1353 C1369 0.959 . S
H1354 C1369 0.959 . S
H1355 C1369 0.961 . S
H1356 C1370 0.960 . S
H1357 C1370 0.961 . S
H1358 C1370 0.959 . S
H1359 C1373 0.929 . S
H1360 C1374 0.931 . S
H1361 C1376 0.930 . S
C1362 H1350 0.930 . S
C1362 C1363 1.399 . S
C1362 C1367 1.399 . S
C1363 C1362 1.399 . S
C1363 C1364 1.376 . S
C1364 H1351 0.930 . S
C1364 C1363 1.376 . S
C1364 C1365 1.388 . S
C1365 H1352 0.930 . S
C1365 C1364 1.388 . S
C1365 C1366 1.390 . S
C1366 C1365 1.390 . S
C1366 C1367 1.394 . S
C1366 C1372 1.465 . S
C1367 C1362 1.399 . S
C1367 C1366 1.394 . S
C1367 C1368 1.516 . S
C1368 C1367 1.516 . S
C1368 C1369 1.502 . S
C1368 C1370 1.561 . S
C1368 C1371 1.526 1_556 S
C1369 H1353 0.959 . S
C1369 H1354 0.959 . S
C1369 H1355 0.961 . S
C1369 C1368 1.502 . S
C1370 H1356 0.960 . S
C1370 H1357 0.961 . S
C1370 H1358 0.959 . S
C1370 C1368 1.561 . S
C1371 C1368 1.526 1_554 S
C1371 C1372 1.396 1_554 S
C1371 C1376 1.390 . S
C1372 C1366 1.465 . S
C1372 C1371 1.396 1_556 S
C1372 C1373 1.399 1_556 S
C1373 H1359 0.929 . S
C1373 C1372 1.399 1_554 S
C1373 C1374 1.385 . S
C1374 H1360 0.931 . S
C1374 C1373 1.385 . S
C1374 C1375 1.389 . S
C1375 C1374 1.389 . S
C1375 C1376 1.387 . S
C1376 H1361 0.930 . S
C1376 C1371 1.390 . S
C1376 C1375 1.387 . S
H1377 C1389 0.930 . S
H1378 C1391 0.930 . S
H1379 C1392 0.930 . S
H1380 C1396 0.959 . S
H1381 C1396 0.959 . S
H1382 C1396 0.961 . S
H1383 C1397 0.960 . S
H1384 C1397 0.961 . S
H1385 C1397 0.959 . S
H1386 C1400 0.929 . S
H1387 C1401 0.931 . S
H1388 C1403 0.930 . S
C1389 H1377 0.930 . S
C1389 C1390 1.399 . S
C1389 C1394 1.399 . S
C1390 C1389 1.399 . S
C1390 C1391 1.376 . S
C1391 H1378 0.930 . S
C1391 C1390 1.376 . S
C1391 C1392 1.388 . S
C1392 H1379 0.930 . S
C1392 C1391 1.388 . S
C1392 C1393 1.390 . S
C1393 C1392 1.390 . S
C1393 C1394 1.394 . S
C1393 C1399 1.465 . S
C1394 C1389 1.399 . S
C1394 C1393 1.394 . S
C1394 C1395 1.516 . S
C1395 C1394 1.516 . S
C1395 C1396 1.502 . S
C1395 C1397 1.561 . S
C1395 C1398 1.526 1_556 S
C1396 H1380 0.959 . S
C1396 H1381 0.959 . S
C1396 H1382 0.961 . S
C1396 C1395 1.502 . S
C1397 H1383 0.960 . S
C1397 H1384 0.961 . S
C1397 H1385 0.959 . S
C1397 C1395 1.561 . S
C1398 C1395 1.526 1_554 S
C1398 C1399 1.396 1_554 S
C1398 C1403 1.390 . S
C1399 C1393 1.465 . S
C1399 C1398 1.396 1_556 S
C1399 C1400 1.399 1_556 S
C1400 H1386 0.929 . S
C1400 C1399 1.399 1_554 S
C1400 C1401 1.385 . S
C1401 H1387 0.931 . S
C1401 C1400 1.385 . S
C1401 C1402 1.389 . S
C1402 C1401 1.389 . S
C1402 C1403 1.387 . S
C1403 H1388 0.930 . S
C1403 C1398 1.390 . S
C1403 C1402 1.387 . S
H1404 C1416 0.930 . S
H1405 C1418 0.930 . S
H1406 C1419 0.930 . S
H1407 C1423 0.959 . S
H1408 C1423 0.959 . S
H1409 C1423 0.961 . S
H1410 C1424 0.960 . S
H1411 C1424 0.961 . S
H1412 C1424 0.959 . S
H1413 C1427 0.929 . S
H1414 C1428 0.931 . S
H1415 C1430 0.930 . S
C1416 H1404 0.930 . S
C1416 C1417 1.399 . S
C1416 C1421 1.399 . S
C1417 C1416 1.399 . S
C1417 C1418 1.376 . S
C1418 H1405 0.930 . S
C1418 C1417 1.376 . S
C1418 C1419 1.388 . S
C1419 H1406 0.930 . S
C1419 C1418 1.388 . S
C1419 C1420 1.390 1_556 S
C1420 C1419 1.390 1_554 S
C1420 C1421 1.394 1_554 S
C1420 C1426 1.465 . S
C1421 C1416 1.399 . S
C1421 C1420 1.394 1_556 S
C1421 C1422 1.516 1_556 S
C1422 C1421 1.516 1_554 S
C1422 C1423 1.502 . S
C1422 C1424 1.561 . S
C1422 C1425 1.526 . S
C1423 H1407 0.959 . S
C1423 H1408 0.959 . S
C1423 H1409 0.961 . S
C1423 C1422 1.502 . S
C1424 H1410 0.960 . S
C1424 H1411 0.961 . S
C1424 H1412 0.959 . S
C1424 C1422 1.561 . S
C1425 C1422 1.526 . S
C1425 C1426 1.396 . S
C1425 C1430 1.390 . S
C1426 C1420 1.465 . S
C1426 C1425 1.396 . S
C1426 C1427 1.399 . S
C1427 H1413 0.929 . S
C1427 C1426 1.399 . S
C1427 C1428 1.385 . S
C1428 H1414 0.931 . S
C1428 C1427 1.385 . S
C1428 C1429 1.389 . S
C1429 C1428 1.389 . S
C1429 C1430 1.387 . S
C1430 H1415 0.930 . S
C1430 C1425 1.390 . S
C1430 C1429 1.387 . S
H1431 C1443 0.930 . S
H1432 C1445 0.930 . S
H1433 C1446 0.930 . S
H1434 C1450 0.959 . S
H1435 C1450 0.959 . S
H1436 C1450 0.961 . S
H1437 C1451 0.960 . S
H1438 C1451 0.961 . S
H1439 C1451 0.959 . S
H1440 C1454 0.929 . S
H1441 C1455 0.931 . S
H1442 C1457 0.930 . S
C1443 H1431 0.930 . S
C1443 C1444 1.399 . S
C1443 C1448 1.399 . S
C1444 C1443 1.399 . S
C1444 C1445 1.376 . S
C1445 H1432 0.930 . S
C1445 C1444 1.376 . S
C1445 C1446 1.388 . S
C1446 H1433 0.930 . S
C1446 C1445 1.388 . S
C1446 C1447 1.390 1_556 S
C1447 C1446 1.390 1_554 S
C1447 C1448 1.394 1_554 S
C1447 C1453 1.465 . S
C1448 C1443 1.399 . S
C1448 C1447 1.394 1_556 S
C1448 C1449 1.516 1_556 S
C1449 C1448 1.516 1_554 S
C1449 C1450 1.502 . S
C1449 C1451 1.561 . S
C1449 C1452 1.526 . S
C1450 H1434 0.959 . S
C1450 H1435 0.959 . S
C1450 H1436 0.961 . S
C1450 C1449 1.502 . S
C1451 H1437 0.960 . S
C1451 H1438 0.961 . S
C1451 H1439 0.959 . S
C1451 C1449 1.561 . S
C1452 C1449 1.526 . S
C1452 C1453 1.396 . S
C1452 C1457 1.390 . S
C1453 C1447 1.465 . S
C1453 C1452 1.396 . S
C1453 C1454 1.399 . S
C1454 H1440 0.929 . S
C1454 C1453 1.399 . S
C1454 C1455 1.385 . S
C1455 H1441 0.931 . S
C1455 C1454 1.385 . S
C1455 C1456 1.389 . S
C1456 C1455 1.389 . S
C1456 C1457 1.387 . S
C1457 H1442 0.930 . S
C1457 C1452 1.390 . S
C1457 C1456 1.387 . S
H1458 C1470 0.930 . S
H1459 C1472 0.930 . S
H1460 C1473 0.930 . S
H1461 C1477 0.959 . S
H1462 C1477 0.959 . S
H1463 C1477 0.961 . S
H1464 C1478 0.960 . S
H1465 C1478 0.961 . S
H1466 C1478 0.959 . S
H1467 C1481 0.929 . S
H1468 C1482 0.931 . S
H1469 C1484 0.930 . S
C1470 H1458 0.930 . S
C1470 C1471 1.399 . S
C1470 C1475 1.399 . S
C1471 C1470 1.399 . S
C1471 C1472 1.376 . S
C1472 H1459 0.930 . S
C1472 C1471 1.376 . S
C1472 C1473 1.388 . S
C1473 H1460 0.930 . S
C1473 C1472 1.388 . S
C1473 C1474 1.390 . S
C1474 C1473 1.390 . S
C1474 C1475 1.394 . S
C1474 C1480 1.465 . S
C1475 C1470 1.399 . S
C1475 C1474 1.394 . S
C1475 C1476 1.516 . S
C1476 C1475 1.516 . S
C1476 C1477 1.502 . S
C1476 C1478 1.561 . S
C1476 C1479 1.526 1_554 S
C1477 H1461 0.959 . S
C1477 H1462 0.959 . S
C1477 H1463 0.961 . S
C1477 C1476 1.502 . S
C1478 H1464 0.960 . S
C1478 H1465 0.961 . S
C1478 H1466 0.959 . S
C1478 C1476 1.561 . S
C1479 C1476 1.526 1_556 S
C1479 C1480 1.396 1_556 S
C1479 C1484 1.390 . S
C1480 C1474 1.465 . S
C1480 C1479 1.396 1_554 S
C1480 C1481 1.399 1_554 S
C1481 H1467 0.929 . S
C1481 C1480 1.399 1_556 S
C1481 C1482 1.385 . S
C1482 H1468 0.931 . S
C1482 C1481 1.385 . S
C1482 C1483 1.389 . S
C1483 C1482 1.389 . S
C1483 C1484 1.387 . S
C1484 H1469 0.930 . S
C1484 C1479 1.390 . S
C1484 C1483 1.387 . S
H1485 C1497 0.930 . S
H1486 C1499 0.930 . S
H1487 C1500 0.930 . S
H1488 C1504 0.959 . S
H1489 C1504 0.959 . S
H1490 C1504 0.961 . S
H1491 C1505 0.960 . S
H1492 C1505 0.961 . S
H1493 C1505 0.959 . S
H1494 C1508 0.929 . S
H1495 C1509 0.931 . S
H1496 C1511 0.930 . S
C1497 H1485 0.930 . S
C1497 C1498 1.399 . S
C1497 C1502 1.399 . S
C1498 C1497 1.399 . S
C1498 C1499 1.376 . S
C1499 H1486 0.930 . S
C1499 C1498 1.376 . S
C1499 C1500 1.388 . S
C1500 H1487 0.930 . S
C1500 C1499 1.388 . S
C1500 C1501 1.390 . S
C1501 C1500 1.390 . S
C1501 C1502 1.394 . S
C1501 C1507 1.465 . S
C1502 C1497 1.399 . S
C1502 C1501 1.394 . S
C1502 C1503 1.516 . S
C1503 C1502 1.516 . S
C1503 C1504 1.502 . S
C1503 C1505 1.561 . S
C1503 C1506 1.526 . S
C1504 H1488 0.959 . S
C1504 H1489 0.959 . S
C1504 H1490 0.961 . S
C1504 C1503 1.502 . S
C1505 H1491 0.960 . S
C1505 H1492 0.961 . S
C1505 H1493 0.959 . S
C1505 C1503 1.561 . S
C1506 C1503 1.526 . S
C1506 C1507 1.396 . S
C1506 C1511 1.390 . S
C1507 C1501 1.465 . S
C1507 C1506 1.396 . S
C1507 C1508 1.399 . S
C1508 H1494 0.929 . S
C1508 C1507 1.399 . S
C1508 C1509 1.385 . S
C1509 H1495 0.931 . S
C1509 C1508 1.385 . S
C1509 C1510 1.389 . S
C1510 C1509 1.389 . S
C1510 C1511 1.387 . S
C1511 H1496 0.930 . S
C1511 C1506 1.390 . S
C1511 C1510 1.387 . S
H1512 C1524 0.930 . S
H1513 C1526 0.930 . S
H1514 C1527 0.930 . S
H1515 C1531 0.959 . S
H1516 C1531 0.959 . S
H1517 C1531 0.961 . S
H1518 C1532 0.960 . S
H1519 C1532 0.961 . S
H1520 C1532 0.959 . S
H1521 C1535 0.929 . S
H1522 C1536 0.931 . S
H1523 C1538 0.930 . S
C1524 H1512 0.930 . S
C1524 C1525 1.399 . S
C1524 C1529 1.399 . S
C1525 C1524 1.399 . S
C1525 C1526 1.376 . S
C1526 H1513 0.930 . S
C1526 C1525 1.376 . S
C1526 C1527 1.388 . S
C1527 H1514 0.930 . S
C1527 C1526 1.388 . S
C1527 C1528 1.390 . S
C1528 C1527 1.390 . S
C1528 C1529 1.394 . S
C1528 C1534 1.465 . S
C1529 C1524 1.399 . S
C1529 C1528 1.394 . S
C1529 C1530 1.516 . S
C1530 C1529 1.516 . S
C1530 C1531 1.502 . S
C1530 C1532 1.561 . S
C1530 C1533 1.526 . S
C1531 H1515 0.959 . S
C1531 H1516 0.959 . S
C1531 H1517 0.961 . S
C1531 C1530 1.502 . S
C1532 H1518 0.960 . S
C1532 H1519 0.961 . S
C1532 H1520 0.959 . S
C1532 C1530 1.561 . S
C1533 C1530 1.526 . S
C1533 C1534 1.396 . S
C1533 C1538 1.390 . S
C1534 C1528 1.465 . S
C1534 C1533 1.396 . S
C1534 C1535 1.399 . S
C1535 H1521 0.929 . S
C1535 C1534 1.399 . S
C1535 C1536 1.385 . S
C1536 H1522 0.931 . S
C1536 C1535 1.385 . S
C1536 C1537 1.389 . S
C1537 C1536 1.389 . S
C1537 C1538 1.387 . S
C1538 H1523 0.930 . S
C1538 C1533 1.390 . S
C1538 C1537 1.387 . S
H1539 C1551 0.930 . S
H1540 C1553 0.930 . S
H1541 C1554 0.930 . S
H1542 C1558 0.959 . S
H1543 C1558 0.959 . S
H1544 C1558 0.961 . S
H1545 C1559 0.960 . S
H1546 C1559 0.961 . S
H1547 C1559 0.959 . S
H1548 C1562 0.929 . S
H1549 C1563 0.931 . S
H1550 C1565 0.930 . S
C1551 H1539 0.930 . S
C1551 C1552 1.399 . S
C1551 C1556 1.399 . S
C1552 C1551 1.399 . S
C1552 C1553 1.376 . S
C1553 H1540 0.930 . S
C1553 C1552 1.376 . S
C1553 C1554 1.388 . S
C1554 H1541 0.930 . S
C1554 C1553 1.388 . S
C1554 C1555 1.390 . S
C1555 C1554 1.390 . S
C1555 C1556 1.394 . S
C1555 C1561 1.465 . S
C1556 C1551 1.399 . S
C1556 C1555 1.394 . S
C1556 C1557 1.516 . S
C1557 C1556 1.516 . S
C1557 C1558 1.502 . S
C1557 C1559 1.561 . S
C1557 C1560 1.526 . S
C1558 H1542 0.959 . S
C1558 H1543 0.959 . S
C1558 H1544 0.961 . S
C1558 C1557 1.502 . S
C1559 H1545 0.960 . S
C1559 H1546 0.961 . S
C1559 H1547 0.959 . S
C1559 C1557 1.561 . S
C1560 C1557 1.526 . S
C1560 C1561 1.396 . S
C1560 C1565 1.390 . S
C1561 C1555 1.465 . S
C1561 C1560 1.396 . S
C1561 C1562 1.399 . S
C1562 H1548 0.929 . S
C1562 C1561 1.399 . S
C1562 C1563 1.385 . S
C1563 H1549 0.931 . S
C1563 C1562 1.385 . S
C1563 C1564 1.389 . S
C1564 C1563 1.389 . S
C1564 C1565 1.387 . S
C1565 H1550 0.930 . S
C1565 C1560 1.390 . S
C1565 C1564 1.387 . S
H1566 C1578 0.930 . S
H1567 C1580 0.930 . S
H1568 C1581 0.930 . S
H1569 C1585 0.959 . S
H1570 C1585 0.959 . S
H1571 C1585 0.961 . S
H1572 C1586 0.960 . S
H1573 C1586 0.961 . S
H1574 C1586 0.959 . S
H1575 C1589 0.929 . S
H1576 C1590 0.931 . S
H1577 C1592 0.930 . S
C1578 H1566 0.930 . S
C1578 C1579 1.399 . S
C1578 C1583 1.399 . S
C1579 C1578 1.399 . S
C1579 C1580 1.376 . S
C1580 H1567 0.930 . S
C1580 C1579 1.376 . S
C1580 C1581 1.388 . S
C1581 H1568 0.930 . S
C1581 C1580 1.388 . S
C1581 C1582 1.390 . S
C1582 C1581 1.390 . S
C1582 C1583 1.394 . S
C1582 C1588 1.465 . S
C1583 C1578 1.399 . S
C1583 C1582 1.394 . S
C1583 C1584 1.516 . S
C1584 C1583 1.516 . S
C1584 C1585 1.502 . S
C1584 C1586 1.561 . S
C1584 C1587 1.526 . S
C1585 H1569 0.959 . S
C1585 H1570 0.959 . S
C1585 H1571 0.961 . S
C1585 C1584 1.502 . S
C1586 H1572 0.960 . S
C1586 H1573 0.961 . S
C1586 H1574 0.959 . S
C1586 C1584 1.561 . S
C1587 C1584 1.526 . S
C1587 C1588 1.396 . S
C1587 C1592 1.390 . S
C1588 C1582 1.465 . S
C1588 C1587 1.396 . S
C1588 C1589 1.399 . S
C1589 H1575 0.929 . S
C1589 C1588 1.399 . S
C1589 C1590 1.385 . S
C1590 H1576 0.931 . S
C1590 C1589 1.385 . S
C1590 C1591 1.389 . S
C1591 C1590 1.389 . S
C1591 C1592 1.387 . S
C1592 H1577 0.930 . S
C1592 C1587 1.390 . S
C1592 C1591 1.387 . S
H1593 C1605 0.930 . S
H1594 C1607 0.930 . S
H1595 C1608 0.930 . S
H1596 C1612 0.959 . S
H1597 C1612 0.959 . S
H1598 C1612 0.961 . S
H1599 C1613 0.960 . S
H1600 C1613 0.961 . S
H1601 C1613 0.959 . S
H1602 C1616 0.929 . S
H1603 C1617 0.931 . S
H1604 C1619 0.930 . S
C1605 H1593 0.930 . S
C1605 C1606 1.399 . S
C1605 C1610 1.399 . S
C1606 C1605 1.399 . S
C1606 C1607 1.376 . S
C1607 H1594 0.930 . S
C1607 C1606 1.376 . S
C1607 C1608 1.388 . S
C1608 H1595 0.930 . S
C1608 C1607 1.388 . S
C1608 C1609 1.390 . S
C1609 C1608 1.390 . S
C1609 C1610 1.394 . S
C1609 C1615 1.465 . S
C1610 C1605 1.399 . S
C1610 C1609 1.394 . S
C1610 C1611 1.516 . S
C1611 C1610 1.516 . S
C1611 C1612 1.502 . S
C1611 C1613 1.561 . S
C1611 C1614 1.526 . S
C1612 H1596 0.959 . S
C1612 H1597 0.959 . S
C1612 H1598 0.961 . S
C1612 C1611 1.502 . S
C1613 H1599 0.960 . S
C1613 H1600 0.961 . S
C1613 H1601 0.959 . S
C1613 C1611 1.561 . S
C1614 C1611 1.526 . S
C1614 C1615 1.396 . S
C1614 C1619 1.390 . S
C1615 C1609 1.465 . S
C1615 C1614 1.396 . S
C1615 C1616 1.399 . S
C1616 H1602 0.929 . S
C1616 C1615 1.399 . S
C1616 C1617 1.385 . S
C1617 H1603 0.931 . S
C1617 C1616 1.385 . S
C1617 C1618 1.389 . S
C1618 C1617 1.389 . S
C1618 C1619 1.387 . S
C1619 H1604 0.930 . S
C1619 C1614 1.390 . S
C1619 C1618 1.387 . S
H1620 C1632 0.930 . S
H1621 C1634 0.930 . S
H1622 C1635 0.930 . S
H1623 C1639 0.959 . S
H1624 C1639 0.959 . S
H1625 C1639 0.961 . S
H1626 C1640 0.960 . S
H1627 C1640 0.961 . S
H1628 C1640 0.959 . S
H1629 C1643 0.929 . S
H1630 C1644 0.931 . S
H1631 C1646 0.930 . S
C1632 H1620 0.930 . S
C1632 C1633 1.399 . S
C1632 C1637 1.399 . S
C1633 C1632 1.399 . S
C1633 C1634 1.376 . S
C1634 H1621 0.930 . S
C1634 C1633 1.376 . S
C1634 C1635 1.388 . S
C1635 H1622 0.930 . S
C1635 C1634 1.388 . S
C1635 C1636 1.390 . S
C1636 C1635 1.390 . S
C1636 C1637 1.394 . S
C1636 C1642 1.465 . S
C1637 C1632 1.399 . S
C1637 C1636 1.394 . S
C1637 C1638 1.516 . S
C1638 C1637 1.516 . S
C1638 C1639 1.502 . S
C1638 C1640 1.561 . S
C1638 C1641 1.526 . S
C1639 H1623 0.959 . S
C1639 H1624 0.959 . S
C1639 H1625 0.961 . S
C1639 C1638 1.502 . S
C1640 H1626 0.960 . S
C1640 H1627 0.961 . S
C1640 H1628 0.959 . S
C1640 C1638 1.561 . S
C1641 C1638 1.526 . S
C1641 C1642 1.396 . S
C1641 C1646 1.390 . S
C1642 C1636 1.465 . S
C1642 C1641 1.396 . S
C1642 C1643 1.399 . S
C1643 H1629 0.929 . S
C1643 C1642 1.399 . S
C1643 C1644 1.385 . S
C1644 H1630 0.931 . S
C1644 C1643 1.385 . S
C1644 C1645 1.389 . S
C1645 C1644 1.389 . S
C1645 C1646 1.387 . S
C1646 H1631 0.930 . S
C1646 C1641 1.390 . S
C1646 C1645 1.387 . S
H1647 C1659 0.930 . S
H1648 C1661 0.930 . S
H1649 C1662 0.930 . S
H1650 C1666 0.959 . S
H1651 C1666 0.959 . S
H1652 C1666 0.961 . S
H1653 C1667 0.960 . S
H1654 C1667 0.961 . S
H1655 C1667 0.959 . S
H1656 C1670 0.929 . S
H1657 C1671 0.931 . S
H1658 C1673 0.930 . S
C1659 H1647 0.930 . S
C1659 C1660 1.399 . S
C1659 C1664 1.399 . S
C1660 C1659 1.399 . S
C1660 C1661 1.376 . S
C1661 H1648 0.930 . S
C1661 C1660 1.376 . S
C1661 C1662 1.388 . S
C1662 H1649 0.930 . S
C1662 C1661 1.388 . S
C1662 C1663 1.390 . S
C1663 C1662 1.390 . S
C1663 C1664 1.394 . S
C1663 C1669 1.465 . S
C1664 C1659 1.399 . S
C1664 C1663 1.394 . S
C1664 C1665 1.516 . S
C1665 C1664 1.516 . S
C1665 C1666 1.502 . S
C1665 C1667 1.561 . S
C1665 C1668 1.526 . S
C1666 H1650 0.959 . S
C1666 H1651 0.959 . S
C1666 H1652 0.961 . S
C1666 C1665 1.502 . S
C1667 H1653 0.960 . S
C1667 H1654 0.961 . S
C1667 H1655 0.959 . S
C1667 C1665 1.561 . S
C1668 C1665 1.526 . S
C1668 C1669 1.396 . S
C1668 C1673 1.390 . S
C1669 C1663 1.465 . S
C1669 C1668 1.396 . S
C1669 C1670 1.399 . S
C1670 H1656 0.929 . S
C1670 C1669 1.399 . S
C1670 C1671 1.385 . S
C1671 H1657 0.931 . S
C1671 C1670 1.385 . S
C1671 C1672 1.389 . S
C1672 C1671 1.389 . S
C1672 C1673 1.387 . S
C1673 H1658 0.930 . S
C1673 C1668 1.390 . S
C1673 C1672 1.387 . S
H1674 C1686 0.930 . S
H1675 C1688 0.930 . S
H1676 C1689 0.930 . S
H1677 C1693 0.959 . S
H1678 C1693 0.959 . S
H1679 C1693 0.961 . S
H1680 C1694 0.960 . S
H1681 C1694 0.961 . S
H1682 C1694 0.959 . S
H1683 C1697 0.929 . S
H1684 C1698 0.931 . S
H1685 C1700 0.930 . S
C1686 H1674 0.930 . S
C1686 C1687 1.399 . S
C1686 C1691 1.399 . S
C1687 C1686 1.399 . S
C1687 C1688 1.376 . S
C1688 H1675 0.930 . S
C1688 C1687 1.376 . S
C1688 C1689 1.388 . S
C1689 H1676 0.930 . S
C1689 C1688 1.388 . S
C1689 C1690 1.390 . S
C1690 C1689 1.390 . S
C1690 C1691 1.394 . S
C1690 C1696 1.465 . S
C1691 C1686 1.399 . S
C1691 C1690 1.394 . S
C1691 C1692 1.516 . S
C1692 C1691 1.516 . S
C1692 C1693 1.502 . S
C1692 C1694 1.561 . S
C1692 C1695 1.526 . S
C1693 H1677 0.959 . S
C1693 H1678 0.959 . S
C1693 H1679 0.961 . S
C1693 C1692 1.502 . S
C1694 H1680 0.960 . S
C1694 H1681 0.961 . S
C1694 H1682 0.959 . S
C1694 C1692 1.561 . S
C1695 C1692 1.526 . S
C1695 C1696 1.396 . S
C1695 C1700 1.390 . S
C1696 C1690 1.465 . S
C1696 C1695 1.396 . S
C1696 C1697 1.399 . S
C1697 H1683 0.929 . S
C1697 C1696 1.399 . S
C1697 C1698 1.385 . S
C1698 H1684 0.931 . S
C1698 C1697 1.385 . S
C1698 C1699 1.389 . S
C1699 C1698 1.389 . S
C1699 C1700 1.387 . S
C1700 H1685 0.930 . S
C1700 C1695 1.390 . S
C1700 C1699 1.387 . S
H1701 C1713 0.930 . S
H1702 C1715 0.930 . S
H1703 C1716 0.930 . S
H1704 C1720 0.959 . S
H1705 C1720 0.959 . S
H1706 C1720 0.961 . S
H1707 C1721 0.960 . S
H1708 C1721 0.961 . S
H1709 C1721 0.959 . S
H1710 C1724 0.929 . S
H1711 C1725 0.931 . S
H1712 C1727 0.930 . S
C1713 H1701 0.930 . S
C1713 C1714 1.399 . S
C1713 C1718 1.399 . S
C1714 C1713 1.399 . S
C1714 C1715 1.376 . S
C1715 H1702 0.930 . S
C1715 C1714 1.376 . S
C1715 C1716 1.388 . S
C1716 H1703 0.930 . S
C1716 C1715 1.388 . S
C1716 C1717 1.390 . S
C1717 C1716 1.390 . S
C1717 C1718 1.394 . S
C1717 C1723 1.465 . S
C1718 C1713 1.399 . S
C1718 C1717 1.394 . S
C1718 C1719 1.516 . S
C1719 C1718 1.516 . S
C1719 C1720 1.502 . S
C1719 C1721 1.561 . S
C1719 C1722 1.526 . S
C1720 H1704 0.959 . S
C1720 H1705 0.959 . S
C1720 H1706 0.961 . S
C1720 C1719 1.502 . S
C1721 H1707 0.960 . S
C1721 H1708 0.961 . S
C1721 H1709 0.959 . S
C1721 C1719 1.561 . S
C1722 C1719 1.526 . S
C1722 C1723 1.396 . S
C1722 C1727 1.390 . S
C1723 C1717 1.465 . S
C1723 C1722 1.396 . S
C1723 C1724 1.399 . S
C1724 H1710 0.929 . S
C1724 C1723 1.399 . S
C1724 C1725 1.385 . S
C1725 H1711 0.931 . S
C1725 C1724 1.385 . S
C1725 C1726 1.389 . S
C1726 C1725 1.389 . S
C1726 C1727 1.387 . S
C1727 H1712 0.930 . S
C1727 C1722 1.390 . S
C1727 C1726 1.387 . S
H1728 C1740 0.930 . S
H1729 C1742 0.930 . S
H1730 C1743 0.930 . S
H1731 C1747 0.959 . S
H1732 C1747 0.959 . S
H1733 C1747 0.961 . S
H1734 C1748 0.960 . S
H1735 C1748 0.961 . S
H1736 C1748 0.959 . S
H1737 C1751 0.929 . S
H1738 C1752 0.931 . S
H1739 C1754 0.930 . S
C1740 H1728 0.930 . S
C1740 C1741 1.399 . S
C1740 C1745 1.399 . S
C1741 C1740 1.399 . S
C1741 C1742 1.376 . S
C1742 H1729 0.930 . S
C1742 C1741 1.376 . S
C1742 C1743 1.388 . S
C1743 H1730 0.930 . S
C1743 C1742 1.388 . S
C1743 C1744 1.390 . S
C1744 C1743 1.390 . S
C1744 C1745 1.394 . S
C1744 C1750 1.465 . S
C1745 C1740 1.399 . S
C1745 C1744 1.394 . S
C1745 C1746 1.516 . S
C1746 C1745 1.516 . S
C1746 C1747 1.502 . S
C1746 C1748 1.561 . S
C1746 C1749 1.526 . S
C1747 H1731 0.959 . S
C1747 H1732 0.959 . S
C1747 H1733 0.961 . S
C1747 C1746 1.502 . S
C1748 H1734 0.960 . S
C1748 H1735 0.961 . S
C1748 H1736 0.959 . S
C1748 C1746 1.561 . S
C1749 C1746 1.526 . S
C1749 C1750 1.396 . S
C1749 C1754 1.390 . S
C1750 C1744 1.465 . S
C1750 C1749 1.396 . S
C1750 C1751 1.399 . S
C1751 H1737 0.929 . S
C1751 C1750 1.399 . S
C1751 C1752 1.385 . S
C1752 H1738 0.931 . S
C1752 C1751 1.385 . S
C1752 C1753 1.389 . S
C1753 C1752 1.389 . S
C1753 C1754 1.387 . S
C1754 H1739 0.930 . S
C1754 C1749 1.390 . S
C1754 C1753 1.387 . S
H1755 C1767 0.930 . S
H1756 C1769 0.930 . S
H1757 C1770 0.930 . S
H1758 C1774 0.959 . S
H1759 C1774 0.959 . S
H1760 C1774 0.961 . S
H1761 C1775 0.960 . S
H1762 C1775 0.961 . S
H1763 C1775 0.959 . S
H1764 C1778 0.929 . S
H1765 C1779 0.931 . S
H1766 C1781 0.930 . S
C1767 H1755 0.930 . S
C1767 C1768 1.399 . S
C1767 C1772 1.399 . S
C1768 C1767 1.399 . S
C1768 C1769 1.376 . S
C1769 H1756 0.930 . S
C1769 C1768 1.376 . S
C1769 C1770 1.388 . S
C1770 H1757 0.930 . S
C1770 C1769 1.388 . S
C1770 C1771 1.390 . S
C1771 C1770 1.390 . S
C1771 C1772 1.394 . S
C1771 C1777 1.465 . S
C1772 C1767 1.399 . S
C1772 C1771 1.394 . S
C1772 C1773 1.516 . S
C1773 C1772 1.516 . S
C1773 C1774 1.502 . S
C1773 C1775 1.561 . S
C1773 C1776 1.526 . S
C1774 H1758 0.959 . S
C1774 H1759 0.959 . S
C1774 H1760 0.961 . S
C1774 C1773 1.502 . S
C1775 H1761 0.960 . S
C1775 H1762 0.961 . S
C1775 H1763 0.959 . S
C1775 C1773 1.561 . S
C1776 C1773 1.526 . S
C1776 C1777 1.396 . S
C1776 C1781 1.390 . S
C1777 C1771 1.465 . S
C1777 C1776 1.396 . S
C1777 C1778 1.399 . S
C1778 H1764 0.929 . S
C1778 C1777 1.399 . S
C1778 C1779 1.385 . S
C1779 H1765 0.931 . S
C1779 C1778 1.385 . S
C1779 C1780 1.389 . S
C1780 C1779 1.389 . S
C1780 C1781 1.387 . S
C1781 H1766 0.930 . S
C1781 C1776 1.390 . S
C1781 C1780 1.387 . S
H1782 C1794 0.930 . S
H1783 C1796 0.930 . S
H1784 C1797 0.930 . S
H1785 C1801 0.959 . S
H1786 C1801 0.959 . S
H1787 C1801 0.961 . S
H1788 C1802 0.960 . S
H1789 C1802 0.961 . S
H1790 C1802 0.959 . S
H1791 C1805 0.929 . S
H1792 C1806 0.931 . S
H1793 C1808 0.930 . S
C1794 H1782 0.930 . S
C1794 C1795 1.399 . S
C1794 C1799 1.399 . S
C1795 C1794 1.399 . S
C1795 C1796 1.376 . S
C1796 H1783 0.930 . S
C1796 C1795 1.376 . S
C1796 C1797 1.388 . S
C1797 H1784 0.930 . S
C1797 C1796 1.388 . S
C1797 C1798 1.390 . S
C1798 C1797 1.390 . S
C1798 C1799 1.394 . S
C1798 C1804 1.465 . S
C1799 C1794 1.399 . S
C1799 C1798 1.394 . S
C1799 C1800 1.516 . S
C1800 C1799 1.516 . S
C1800 C1801 1.502 . S
C1800 C1802 1.561 . S
C1800 C1803 1.526 . S
C1801 H1785 0.959 . S
C1801 H1786 0.959 . S
C1801 H1787 0.961 . S
C1801 C1800 1.502 . S
C1802 H1788 0.960 . S
C1802 H1789 0.961 . S
C1802 H1790 0.959 . S
C1802 C1800 1.561 . S
C1803 C1800 1.526 . S
C1803 C1804 1.396 . S
C1803 C1808 1.390 . S
C1804 C1798 1.465 . S
C1804 C1803 1.396 . S
C1804 C1805 1.399 . S
C1805 H1791 0.929 . S
C1805 C1804 1.399 . S
C1805 C1806 1.385 . S
C1806 H1792 0.931 . S
C1806 C1805 1.385 . S
C1806 C1807 1.389 . S
C1807 C1806 1.389 . S
C1807 C1808 1.387 . S
C1808 H1793 0.930 . S
C1808 C1803 1.390 . S
C1808 C1807 1.387 . S
C607 C120 1.474 . S
C619 C21 1.489 . S
C634 C153 1.488 . S
C646 C54 1.477 . S
C661 C186 1.483 . S
C673 C87 1.483 . S
C688 C40 1.467 . S
C700 C172 1.450 . S
C715 C106 1.449 . S
C727 C73 1.468 . S
C742 C139 1.469 . S
C754 C7 1.449 . S
C769 C318 1.477 . S
C781 C219 1.488 . S
C796 C252 1.489 . S
C808 C351 1.477 . S
C823 C285 1.482 . S
C835 C384 1.481 . S
C850 C238 1.449 . S
C862 C370 1.467 . S
C877 C271 1.449 . S
C889 C304 1.468 . S
C904 C337 1.470 . S
C916 C205 1.448 . S
C931 C417 1.488 . S
C943 C516 1.477 . S
C958 C549 1.486 . S
C970 C450 1.477 . S
C985 C483 1.475 . S
C997 C582 1.489 . S
C1012 C436 1.463 . S
C1024 C568 1.454 . S
C1039 C502 1.469 . S
C1051 C469 1.451 . S
C1066 C403 1.468 . S
C1078 C535 1.451 . S
C1093 C18 1.547 . S
C1105 C579 1.533 . S
C1120 C513 1.532 . S
C1132 C51 1.549 . S
C1147 C546 1.533 . S
C1159 C84 1.547 . S
C1174 C249 1.549 . S
C1186 C117 1.532 . S
C1201 C282 1.545 . S
C1213 C150 1.535 . S
C1228 C216 1.549 . S
C1240 C183 1.532 . S
C1255 C447 1.532 . S
C1267 C315 1.549 . S
C1282 C480 1.545 . S
C1294 C348 1.539 . S
C1309 C381 1.534 . S
C1321 C414 1.549 . S
C1336 N2 1.425 . S
C1348 N13 1.371 . S
C1363 N35 1.376 . S
C1375 N46 1.413 . S
C1390 N68 1.405 . S
C1402 N79 1.384 . S
C1417 N112 1.386 . S
C1429 N101 1.419 . S
C1444 N145 1.421 . S
C1456 N134 1.382 . S
C1471 N167 1.368 . S
C1483 N178 1.427 . S
C1498 N200 1.424 . S
C1510 N211 1.371 . S
C1525 N244 1.378 . S
C1537 N233 1.411 . S
C1552 N277 1.426 . S
C1564 N266 1.368 . S
C1579 N299 1.404 . S
C1591 N310 1.385 . S
C1606 N332 1.379 . S
C1618 N343 1.408 . S
C1633 N365 1.425 . S
C1645 N376 1.371 . S
C1660 N398 1.424 . S
C1672 N409 1.371 . S
C1687 N431 1.416 . S
C1699 N442 1.390 . S
C1714 N475 1.373 . S
C1726 N464 1.426 . S
C1741 N497 1.389 . S
C1753 N508 1.415 . S
C1768 N541 1.413 . S
C1780 N530 1.393 . S
C1795 N574 1.388 . S
C1807 N563 1.417 . S
