# Generated by pormake.
# Topology uns, (4)-cn, num edge types: 1
# Building blocks:
#     Node 0, Type 0, BuildingBlock: MUDLON_clean_sbu_0, # of connection points: 4
#     Node 1, Type 0, BuildingBlock: MUDLON_clean_sbu_0, # of connection points: 4
#     Node 2, Type 0, BuildingBlock: MUDLON_clean_sbu_0, # of connection points: 4
#     Node 3, Type 0, BuildingBlock: MUDLON_clean_sbu_0, # of connection points: 4
#     Node 4, Type 0, BuildingBlock: MUDLON_clean_sbu_0, # of connection points: 4
#     Node 5, Type 0, BuildingBlock: MUDLON_clean_sbu_0, # of connection points: 4
#     Node 6, Type 0, BuildingBlock: MUDLON_clean_sbu_0, # of connection points: 4
#     Node 7, Type 0, BuildingBlock: MUDLON_clean_sbu_0, # of connection points: 4
#     Node 8, Type 0, BuildingBlock: MUDLON_clean_sbu_0, # of connection points: 4
#     Node 9, Type 0, BuildingBlock: MUDLON_clean_sbu_0, # of connection points: 4
#     Node 10, Type 0, BuildingBlock: MUDLON_clean_sbu_0, # of connection points: 4
#     Node 11, Type 0, BuildingBlock: MUDLON_clean_sbu_0, # of connection points: 4
#     Node 12, Type 0, BuildingBlock: MUDLON_clean_sbu_0, # of connection points: 4
#     Node 13, Type 0, BuildingBlock: MUDLON_clean_sbu_0, # of connection points: 4
#     Node 14, Type 0, BuildingBlock: MUDLON_clean_sbu_0, # of connection points: 4
#     Node 15, Type 0, BuildingBlock: MUDLON_clean_sbu_0, # of connection points: 4
#     Node 16, Type 0, BuildingBlock: MUDLON_clean_sbu_0, # of connection points: 4
#     Node 17, Type 0, BuildingBlock: MUDLON_clean_sbu_0, # of connection points: 4
#     Node 18, Type 0, BuildingBlock: MUDLON_clean_sbu_0, # of connection points: 4
#     Node 19, Type 0, BuildingBlock: MUDLON_clean_sbu_0, # of connection points: 4
#     Node 20, Type 0, BuildingBlock: MUDLON_clean_sbu_0, # of connection points: 4
#     Node 21, Type 0, BuildingBlock: MUDLON_clean_sbu_0, # of connection points: 4
#     Node 22, Type 0, BuildingBlock: MUDLON_clean_sbu_0, # of connection points: 4
#     Node 23, Type 0, BuildingBlock: MUDLON_clean_sbu_0, # of connection points: 4
#     Node 24, Type 0, BuildingBlock: MUDLON_clean_sbu_0, # of connection points: 4
#     Node 25, Type 0, BuildingBlock: MUDLON_clean_sbu_0, # of connection points: 4
#     Node 26, Type 0, BuildingBlock: MUDLON_clean_sbu_0, # of connection points: 4
#     Node 27, Type 0, BuildingBlock: MUDLON_clean_sbu_0, # of connection points: 4
#     Node 28, Type 0, BuildingBlock: MUDLON_clean_sbu_0, # of connection points: 4
#     Node 29, Type 0, BuildingBlock: MUDLON_clean_sbu_0, # of connection points: 4
#     Node 30, Type 0, BuildingBlock: MUDLON_clean_sbu_0, # of connection points: 4
#     Node 31, Type 0, BuildingBlock: MUDLON_clean_sbu_0, # of connection points: 4
#     Node 32, Type 0, BuildingBlock: MUDLON_clean_sbu_0, # of connection points: 4
#     Node 33, Type 0, BuildingBlock: MUDLON_clean_sbu_0, # of connection points: 4
#     Node 34, Type 0, BuildingBlock: MUDLON_clean_sbu_0, # of connection points: 4
#     Node 35, Type 0, BuildingBlock: MUDLON_clean_sbu_0, # of connection points: 4
#     Edge 36, Type (0, 0), BuildingBlock: EZIPEK_clean_linker_0, # of connection points: 2
#     Edge 37, Type (0, 0), BuildingBlock: EZIPEK_clean_linker_0, # of connection points: 2
#     Edge 38, Type (0, 0), BuildingBlock: EZIPEK_clean_linker_0, # of connection points: 2
#     Edge 39, Type (0, 0), BuildingBlock: EZIPEK_clean_linker_0, # of connection points: 2
#     Edge 40, Type (0, 0), BuildingBlock: EZIPEK_clean_linker_0, # of connection points: 2
#     Edge 41, Type (0, 0), BuildingBlock: EZIPEK_clean_linker_0, # of connection points: 2
#     Edge 42, Type (0, 0), BuildingBlock: EZIPEK_clean_linker_0, # of connection points: 2
#     Edge 43, Type (0, 0), BuildingBlock: EZIPEK_clean_linker_0, # of connection points: 2
#     Edge 44, Type (0, 0), BuildingBlock: EZIPEK_clean_linker_0, # of connection points: 2
#     Edge 45, Type (0, 0), BuildingBlock: EZIPEK_clean_linker_0, # of connection points: 2
#     Edge 46, Type (0, 0), BuildingBlock: EZIPEK_clean_linker_0, # of connection points: 2
#     Edge 47, Type (0, 0), BuildingBlock: EZIPEK_clean_linker_0, # of connection points: 2
#     Edge 48, Type (0, 0), BuildingBlock: EZIPEK_clean_linker_0, # of connection points: 2
#     Edge 49, Type (0, 0), BuildingBlock: EZIPEK_clean_linker_0, # of connection points: 2
#     Edge 50, Type (0, 0), BuildingBlock: EZIPEK_clean_linker_0, # of connection points: 2
#     Edge 51, Type (0, 0), BuildingBlock: EZIPEK_clean_linker_0, # of connection points: 2
#     Edge 52, Type (0, 0), BuildingBlock: EZIPEK_clean_linker_0, # of connection points: 2
#     Edge 53, Type (0, 0), BuildingBlock: EZIPEK_clean_linker_0, # of connection points: 2
#     Edge 54, Type (0, 0), BuildingBlock: EZIPEK_clean_linker_0, # of connection points: 2
#     Edge 55, Type (0, 0), BuildingBlock: EZIPEK_clean_linker_0, # of connection points: 2
#     Edge 56, Type (0, 0), BuildingBlock: EZIPEK_clean_linker_0, # of connection points: 2
#     Edge 57, Type (0, 0), BuildingBlock: EZIPEK_clean_linker_0, # of connection points: 2
#     Edge 58, Type (0, 0), BuildingBlock: EZIPEK_clean_linker_0, # of connection points: 2
#     Edge 59, Type (0, 0), BuildingBlock: EZIPEK_clean_linker_0, # of connection points: 2
#     Edge 60, Type (0, 0), BuildingBlock: EZIPEK_clean_linker_0, # of connection points: 2
#     Edge 61, Type (0, 0), BuildingBlock: EZIPEK_clean_linker_0, # of connection points: 2
#     Edge 62, Type (0, 0), BuildingBlock: EZIPEK_clean_linker_0, # of connection points: 2
#     Edge 63, Type (0, 0), BuildingBlock: EZIPEK_clean_linker_0, # of connection points: 2
#     Edge 64, Type (0, 0), BuildingBlock: EZIPEK_clean_linker_0, # of connection points: 2
#     Edge 65, Type (0, 0), BuildingBlock: EZIPEK_clean_linker_0, # of connection points: 2
#     Edge 66, Type (0, 0), BuildingBlock: EZIPEK_clean_linker_0, # of connection points: 2
#     Edge 67, Type (0, 0), BuildingBlock: EZIPEK_clean_linker_0, # of connection points: 2
#     Edge 68, Type (0, 0), BuildingBlock: EZIPEK_clean_linker_0, # of connection points: 2
#     Edge 69, Type (0, 0), BuildingBlock: EZIPEK_clean_linker_0, # of connection points: 2
#     Edge 70, Type (0, 0), BuildingBlock: EZIPEK_clean_linker_0, # of connection points: 2
#     Edge 71, Type (0, 0), BuildingBlock: EZIPEK_clean_linker_0, # of connection points: 2
#     Edge 72, Type (0, 0), BuildingBlock: EZIPEK_clean_linker_0, # of connection points: 2
#     Edge 73, Type (0, 0), BuildingBlock: EZIPEK_clean_linker_0, # of connection points: 2
#     Edge 74, Type (0, 0), BuildingBlock: EZIPEK_clean_linker_0, # of connection points: 2
#     Edge 75, Type (0, 0), BuildingBlock: EZIPEK_clean_linker_0, # of connection points: 2
#     Edge 76, Type (0, 0), BuildingBlock: EZIPEK_clean_linker_0, # of connection points: 2
#     Edge 77, Type (0, 0), BuildingBlock: EZIPEK_clean_linker_0, # of connection points: 2
#     Edge 78, Type (0, 0), BuildingBlock: EZIPEK_clean_linker_0, # of connection points: 2
#     Edge 79, Type (0, 0), BuildingBlock: EZIPEK_clean_linker_0, # of connection points: 2
#     Edge 80, Type (0, 0), BuildingBlock: EZIPEK_clean_linker_0, # of connection points: 2
#     Edge 81, Type (0, 0), BuildingBlock: EZIPEK_clean_linker_0, # of connection points: 2
#     Edge 82, Type (0, 0), BuildingBlock: EZIPEK_clean_linker_0, # of connection points: 2
#     Edge 83, Type (0, 0), BuildingBlock: EZIPEK_clean_linker_0, # of connection points: 2
#     Edge 84, Type (0, 0), BuildingBlock: EZIPEK_clean_linker_0, # of connection points: 2
#     Edge 85, Type (0, 0), BuildingBlock: EZIPEK_clean_linker_0, # of connection points: 2
#     Edge 86, Type (0, 0), BuildingBlock: EZIPEK_clean_linker_0, # of connection points: 2
#     Edge 87, Type (0, 0), BuildingBlock: EZIPEK_clean_linker_0, # of connection points: 2
#     Edge 88, Type (0, 0), BuildingBlock: EZIPEK_clean_linker_0, # of connection points: 2
#     Edge 89, Type (0, 0), BuildingBlock: EZIPEK_clean_linker_0, # of connection points: 2
#     Edge 90, Type (0, 0), BuildingBlock: EZIPEK_clean_linker_0, # of connection points: 2
#     Edge 91, Type (0, 0), BuildingBlock: EZIPEK_clean_linker_0, # of connection points: 2
#     Edge 92, Type (0, 0), BuildingBlock: EZIPEK_clean_linker_0, # of connection points: 2
#     Edge 93, Type (0, 0), BuildingBlock: EZIPEK_clean_linker_0, # of connection points: 2
#     Edge 94, Type (0, 0), BuildingBlock: EZIPEK_clean_linker_0, # of connection points: 2
#     Edge 95, Type (0, 0), BuildingBlock: EZIPEK_clean_linker_0, # of connection points: 2
#     Edge 96, Type (0, 0), BuildingBlock: EZIPEK_clean_linker_0, # of connection points: 2
#     Edge 97, Type (0, 0), BuildingBlock: EZIPEK_clean_linker_0, # of connection points: 2
#     Edge 98, Type (0, 0), BuildingBlock: EZIPEK_clean_linker_0, # of connection points: 2
#     Edge 99, Type (0, 0), BuildingBlock: EZIPEK_clean_linker_0, # of connection points: 2
#     Edge 100, Type (0, 0), BuildingBlock: EZIPEK_clean_linker_0, # of connection points: 2
#     Edge 101, Type (0, 0), BuildingBlock: EZIPEK_clean_linker_0, # of connection points: 2
#     Edge 102, Type (0, 0), BuildingBlock: EZIPEK_clean_linker_0, # of connection points: 2
#     Edge 103, Type (0, 0), BuildingBlock: EZIPEK_clean_linker_0, # of connection points: 2
#     Edge 104, Type (0, 0), BuildingBlock: EZIPEK_clean_linker_0, # of connection points: 2
#     Edge 105, Type (0, 0), BuildingBlock: EZIPEK_clean_linker_0, # of connection points: 2
#     Edge 106, Type (0, 0), BuildingBlock: EZIPEK_clean_linker_0, # of connection points: 2
#     Edge 107, Type (0, 0), BuildingBlock: EZIPEK_clean_linker_0, # of connection points: 2
# Relax obj value: 0.027
# Max RMSD: 0.174
# Mean RMSD: 0.174
data_MOF--net-uns--node1-MUDLON_clean_sbu_0--edge1-EZIPEK_clean_linker_0
_symmetry_space_group_name_H-M    P1
_symmetry_Int_Tables_number       1
_symmetry_cell_setting            triclinic
loop_
_symmetry_equiv_pos_as_xyz
'x, y, z'
_cell_length_a     42.972892
_cell_length_b     43.572551
_cell_length_c     42.598018
_cell_angle_alpha  89.563209
_cell_angle_beta   90.076949
_cell_angle_gamma 119.75125
loop_
_atom_site_label
_atom_site_type_symbol
_atom_site_fract_x
_atom_site_fract_y
_atom_site_fract_z
_atom_type_partial_charge
Mg0 Mg 0.28935 0.18921 0.07163 0.0
C1 C 0.33918 0.26199 0.08347 0.0
O2 O 0.3136 0.25162 0.10459 0.0
C3 C 0.25228 0.12055 0.03778 0.0
O4 O 0.22497 0.12221 0.04967 0.0
C5 C 0.3281 0.18101 0.12457 0.0
O6 O 0.35063 0.19098 0.10084 0.0
O7 O 0.29674 0.17645 0.11995 0.0
O8 O 0.3375 0.23969 0.0635 0.0
O9 O 0.24543 0.19945 0.06039 0.0
C10 C 0.22798 0.20878 0.07832 0.0
O11 O 0.2341 0.2116 0.10866 0.0
O12 O 0.28389 0.14607 0.04219 0.0
Mg13 Mg 0.83476 0.08656 0.08099 0.0
C14 C 0.81403 0.01799 0.05339 0.0
O15 O 0.80556 0.03445 0.03201 0.0
C16 C 0.85602 0.1432 0.12791 0.0
O17 O 0.85438 0.15855 0.10176 0.0
C18 C 0.88224 0.13755 0.02554 0.0
O19 O 0.85349 0.13683 0.01409 0.0
O20 O 0.88 0.11986 0.05013 0.0
O21 O 0.82865 0.0339 0.07876 0.0
O22 O 0.77976 0.07564 0.07178 0.0
C23 C 0.76351 0.08584 0.09035 0.0
O24 O 0.78166 0.10911 0.11201 0.0
O25 O 0.85065 0.11176 0.12668 0.0
Mg26 Mg 0.93984 0.73919 0.0716 0.0
C27 C 1.01197 0.77938 0.04218 0.0
O28 O 0.99608 0.75106 0.02462 0.0
C29 C 0.88693 0.71503 0.12492 0.0
O30 O 0.86568 0.71225 0.10158 0.0
C31 C 0.91148 0.76391 0.01571 0.0
O32 O 0.94344 0.77438 1.00389 0.0
O33 O 0.90287 0.74762 0.042 0.0
O34 O 0.99486 0.78232 0.06528 0.0
O35 O 0.94184 0.69085 0.06527 0.0
C36 C 0.96142 0.68895 0.08681 0.0
O37 O 0.97726 0.71523 0.10662 0.0
O38 O 0.92046 0.72953 0.11984 0.0
Mg39 Mg 0.20714 0.28301 0.45166 0.0
C40 C 0.2368 0.2407 0.47805 0.0
O41 O 0.251 0.26956 0.49498 0.0
C42 C 0.19852 0.32552 0.40262 0.0
O43 O 0.2131 0.3473 0.42621 0.0
C44 C 0.15978 0.29316 0.50207 0.0
O45 O 0.18364 0.327 0.50146 0.0
O46 O 0.16436 0.27172 0.4853 0.0
O47 O 0.21613 0.23793 0.45546 0.0
O48 O 0.26002 0.32966 0.45671 0.0
C49 C 0.28042 0.33105 0.43439 0.0
O50 O 0.26784 0.30537 0.41382 0.0
O51 O 0.19033 0.2933 0.4063 0.0
Mg52 Mg 0.75337 0.93226 0.44412 0.0
C53 C 0.79891 1.00131 0.47129 0.0
O54 O 0.77041 0.98619 0.48944 0.0
C55 C 0.71753 0.87461 0.39895 0.0
O56 O 0.69892 0.86122 0.42481 0.0
C57 C 0.78558 0.90038 0.48537 0.0
O58 O 0.81247 0.92161 0.46713 0.0
O59 O 0.75551 0.89923 0.48211 0.0
O60 O 0.80081 0.98426 0.44792 0.0
O61 O 0.71068 0.94543 0.44258 0.0
C62 C 0.67688 0.92554 0.44374 0.0
O63 O 0.66278 0.89196 0.4512 0.0
O64 O 0.74573 0.90484 0.39991 0.0
Mg65 Mg 0.10571 0.83219 0.45173 0.0
C66 C 0.08348 0.75998 0.43863 0.0
O67 O 0.06846 0.77051 0.41751 0.0
C68 C 0.13443 0.88754 0.50337 0.0
O69 O 0.10103 0.8699 0.51312 0.0
C70 C 0.15165 0.84075 0.39873 0.0
O71 O 0.16454 0.83136 0.4226 0.0
O72 O 0.12463 0.8449 0.40322 0.0
O73 O 0.10375 0.78193 0.4591 0.0
O74 O 0.05176 0.82119 0.46435 0.0
C75 C 1.0239 0.80989 0.44736 0.0
O76 O 0.02581 0.80558 0.41709 0.0
O77 O 0.14419 0.87631 0.47999 0.0
Mg78 Mg 0.75832 0.82637 0.95873 0.0
C79 C 0.80986 0.79742 0.95595 0.0
O80 O 0.78591 0.77564 0.93598 0.0
C81 C 0.72245 0.84641 0.90967 0.0
O82 O 0.70273 0.84146 0.93481 0.0
C83 C 0.78633 0.88176 1.00933 0.0
O84 O 0.81192 0.87361 1.00912 0.0
O85 O 0.75869 0.86423 0.99238 0.0
O86 O 0.80718 0.82336 0.96628 0.0
O87 O 0.71744 0.77059 0.96364 0.0
C88 C 0.69351 0.75454 0.94288 0.0
O89 O 0.68815 0.77266 0.92101 0.0
O90 O 0.75089 0.84433 0.91254 0.0
Mg91 Mg 0.21381 0.92385 0.95425 0.0
C92 C 0.28482 0.9523 0.92742 0.0
O93 O 0.26402 0.952 0.90474 0.0
C94 C 0.14582 0.88009 0.98555 0.0
O95 O 0.13879 0.89451 0.96135 0.0
C96 C 0.2042 0.87498 0.90321 0.0
O97 O 0.22376 0.86968 0.92391 0.0
O98 O 0.19358 0.89682 0.9096 0.0
O99 O 0.27079 0.94002 0.95421 0.0
O100 O 0.21374 0.97333 0.96123 0.0
C101 C 0.23233 0.99008 0.98495 0.0
O102 O 0.24837 0.97637 1.00143 0.0
O103 O 0.17816 0.88773 0.99029 0.0
Mg104 Mg 0.10276 0.2739 0.96531 0.0
C105 C 0.03055 0.22919 0.99096 0.0
O106 O 0.04714 0.2542 1.01182 0.0
C107 C 0.13053 0.28535 0.89783 0.0
O108 O 0.09739 0.27657 0.89104 0.0
C109 C 0.13251 0.24173 1.0089 0.0
O110 O 0.11194 0.21532 0.99047 0.0
O111 O 0.13295 0.27105 1.0056 0.0
O112 O 0.04812 0.22858 0.96709 0.0
O113 O 0.09427 0.31934 0.96083 0.0
C114 C 0.06805 0.31417 0.94326 0.0
O115 O 0.04808 0.28273 0.9311 0.0
O116 O 0.13859 0.28244 0.92593 0.0
Mg117 Mg 0.83204 0.74323 0.56049 0.0
C118 C 0.81759 0.80867 0.56172 0.0
O119 O 0.81925 0.80865 0.59251 0.0
C120 C 0.8372 0.72533 0.62917 0.0
O121 O 0.80249 0.71233 0.62757 0.0
C122 C 0.89703 0.77426 0.52039 0.0
O123 O 0.9003 0.80175 0.53571 0.0
O124 O 0.86937 0.74414 0.52515 0.0
O125 O 0.82244 0.78662 0.54604 0.0
O126 O 0.77923 0.69517 0.56084 0.0
C127 C 0.75578 0.6994 0.57535 0.0
O128 O 0.76489 0.73087 0.58614 0.0
O129 O 0.85679 0.74283 0.60592 0.0
Mg130 Mg 0.29072 0.09667 0.56848 0.0
C131 C 0.33551 0.07113 0.59537 0.0
O132 O 0.31786 0.07425 0.61911 0.0
C133 C 0.25835 0.12883 0.52857 0.0
O134 O 0.23071 0.10278 0.54287 0.0
C135 C 0.32925 0.15638 0.61131 0.0
O136 O 0.3448 0.16983 0.5842 0.0
O137 O 0.30186 0.12557 0.61215 0.0
O138 O 0.33171 0.08117 0.56814 0.0
O139 O 0.24193 0.04531 0.56637 0.0
C140 C 0.24003 0.02812 0.54171 0.0
O141 O 0.26552 0.04297 0.5205 0.0
O142 O 0.28923 0.13215 0.53267 0.0
Mg143 Mg 0.9385 0.20695 0.54985 0.0
C144 C 1.02044 0.2308 0.56234 0.0
O145 O 1.01479 0.23104 0.59258 0.0
C146 C 0.91385 0.18219 0.62098 0.0
O147 O 0.94245 0.17964 0.62713 0.0
C148 C 0.89883 0.13623 0.52288 0.0
O149 O 0.91277 0.1316 0.54873 0.0
O150 O 0.9056 0.16732 0.51549 0.0
O151 O 0.99451 0.22047 0.5431 0.0
O152 O 0.94174 0.25809 0.5473 0.0
C153 C 0.95787 0.2748 0.57195 0.0
O154 O 0.96839 0.25908 0.59231 0.0
O155 O 0.90865 0.19037 0.59364 0.0
Mg156 Mg 0.97495 0.53725 0.40939 0.0
C157 C 1.01394 0.61189 0.42332 0.0
O158 O 0.98387 0.59907 0.43928 0.0
C159 C 0.94024 0.47175 0.37364 0.0
O160 O 0.91538 0.46868 0.39337 0.0
C161 C 0.9923 0.5292 0.47862 0.0
O162 O 0.9798 0.55033 0.4856 0.0
O163 O 0.98978 0.51798 0.45079 0.0
O164 O 1.01897 0.5912 0.40583 0.0
O165 O 0.92631 0.54153 0.40809 0.0
C166 C 0.92422 0.55598 0.38265 0.0
O167 O 0.94985 0.56559 0.36167 0.0
O168 O 0.97018 0.50038 0.37309 0.0
Mg169 Mg 0.50057 0.41974 0.41234 0.0
C170 C 0.48055 0.35304 0.38137 0.0
O171 O 0.4641 0.36672 0.36545 0.0
C172 C 0.51233 0.47052 0.46169 0.0
O173 O 0.50121 0.48139 0.43761 0.0
C174 C 0.56994 0.46259 0.3818 0.0
O175 O 0.57601 0.4462 0.40499 0.0
O176 O 0.53808 0.45674 0.37762 0.0
O177 O 0.49975 0.36985 0.4048 0.0
O178 O 0.44413 0.40472 0.41147 0.0
C179 C 0.42804 0.42162 0.40436 0.0
O180 O 0.44596 0.45396 0.39307 0.0
O181 O 0.51737 0.44428 0.45825 0.0
Mg182 Mg 0.6153 0.07632 0.40092 0.0
C183 C 0.69036 0.1262 0.38096 0.0
O184 O 0.68198 0.09828 0.36377 0.0
C185 C 0.55532 0.03775 0.44694 0.0
O186 O 0.53942 0.0234 0.42036 0.0
C187 C 0.59162 0.10239 0.3431 0.0
O188 O 0.62604 0.11856 0.33673 0.0
O189 O 0.57965 0.08144 0.36663 0.0
O190 O 0.66729 0.12533 0.40028 0.0
O191 O 0.62989 0.03523 0.39716 0.0
C192 C 0.60882 1.00202 0.39679 0.0
O193 O 0.57443 0.98938 0.39205 0.0
O194 O 0.5877 0.06298 0.44636 0.0
Mg195 Mg 0.88826 0.6297 0.78542 0.0
C196 C 0.91155 0.58275 0.81348 0.0
O197 O 0.92269 0.60913 0.83324 0.0
C198 C 0.86702 0.66704 0.73965 0.0
O199 O 0.86845 0.68294 0.76615 0.0
C200 C 0.82194 0.5952 0.8243 0.0
O201 O 0.81703 0.5701 0.80466 0.0
O202 O 0.85073 0.62496 0.82243 0.0
O203 O 0.89513 0.58335 0.78877 0.0
O204 O 0.94219 0.67451 0.78674 0.0
C205 C 0.96004 0.67339 0.76336 0.0
O206 O 0.9446 0.64658 0.74403 0.0
O207 O 0.87146 0.64022 0.74035 0.0
Mg208 Mg 0.43193 0.27043 0.77932 0.0
C209 C 0.47109 0.33868 0.81287 0.0
O210 O 0.43993 0.32302 0.82732 0.0
C211 C 0.39549 0.22352 0.72847 0.0
O212 O 0.37667 0.20802 0.75383 0.0
C213 C 0.44055 0.22947 0.8362 0.0
O214 O 0.4349 0.2506 0.85413 0.0
O215 O 0.43876 0.23149 0.8065 0.0
O216 O 0.47636 0.32307 0.79005 0.0
O217 O 0.38211 0.27177 0.78167 0.0
C218 C 0.38458 0.29822 0.76653 0.0
O219 O 0.41647 0.32296 0.75723 0.0
O220 O 0.42505 0.25241 0.73118 0.0
Mg221 Mg 0.78617 0.16036 0.78349 0.0
C222 C 0.75538 0.08703 0.76997 0.0
O223 O 0.74416 0.10103 0.74845 0.0
C224 C 0.82394 0.23111 0.81163 0.0
O225 O 0.8125 0.23645 0.78464 0.0
C226 C 0.81129 0.17544 0.71305 0.0
O227 O 0.78013 0.17247 0.70608 0.0
O228 O 0.81932 0.17394 0.74149 0.0
O229 O 0.77605 0.10697 0.79136 0.0
O230 O 0.73282 0.15509 0.78184 0.0
C231 C 0.71353 0.13766 0.80525 0.0
O232 O 0.72715 0.12568 0.82645 0.0
O233 O 0.81655 0.19982 0.81901 0.0
Mg234 Mg 0.43166 0.15758 0.29122 0.0
C235 C 0.49972 0.1477 0.28218 0.0
O236 O 0.49877 0.15336 0.25196 0.0
C237 C 0.38854 0.16335 0.24055 0.0
O238 O 0.36609 0.14882 0.26411 0.0
C239 C 0.4643 0.2246 0.32669 0.0
O240 O 0.49213 0.22563 0.3129 0.0
O241 O 0.43354 0.19739 0.32323 0.0
O242 O 0.47791 0.15027 0.3007 0.0
O243 O 0.38816 0.10366 0.29659 0.0
C244 C 0.39049 0.08596 0.274 0.0
O245 O 0.41635 0.1022 0.25332 0.0
O246 O 0.4213 0.17174 0.24437 0.0
Mg247 Mg 0.88741 0.27037 0.29129 0.0
C248 C 0.95261 0.25628 0.29185 0.0
O249 O 0.93024 0.22254 0.29678 0.0
C250 C 0.8285 0.23959 0.34067 0.0
O251 O 0.8386 0.2732 0.34396 0.0
C252 C 0.86622 0.21923 0.2417 0.0
O253 O 0.86499 0.20184 0.26741 0.0
O254 O 0.87213 0.25077 0.24392 0.0
O255 O 0.94156 0.27846 0.29209 0.0
O256 O 0.89305 0.32215 0.30057 0.0
C257 C 0.91998 0.34284 0.31713 0.0
O258 O 0.94264 0.33258 0.32616 0.0
O259 O 0.84608 0.23079 0.32231 0.0
Mg260 Mg 0.77463 0.6092 0.297 0.0
C261 C 0.70496 0.56357 0.32683 0.0
O262 O 0.7209 0.59114 0.34529 0.0
C263 C 0.82066 0.65141 0.24442 0.0
O264 O 0.82381 0.67496 0.26513 0.0
C265 C 0.81672 0.58197 0.32936 0.0
O266 O 0.79991 0.55863 0.30726 0.0
O267 O 0.81074 0.60765 0.33226 0.0
O268 O 0.72168 0.56232 0.30263 0.0
O269 O 0.76299 0.65224 0.29876 0.0
C270 C 0.73973 0.64776 0.27808 0.0
O271 O 0.72579 0.6188 0.26125 0.0
O272 O 0.80129 0.6187 0.25135 0.0
Mg273 Mg 0.51062 0.07966 0.88848 0.0
C274 C 0.47644 0.12694 0.88703 0.0
O275 O 0.4491 0.09817 0.89839 0.0
C276 C 0.51765 0.03631 0.93763 0.0
O277 O 0.50266 0.01498 0.91381 0.0
C278 C 0.57422 0.11353 0.84428 0.0
O279 O 0.56834 0.14013 0.8479 0.0
O280 O 0.55257 0.08368 0.85662 0.0
O281 O 0.50619 0.12777 0.88273 0.0
O282 O 0.45637 0.0349 0.88181 0.0
C283 C 0.43671 0.02549 0.90635 0.0
O284 O 0.45049 0.04176 0.93285 0.0
O285 O 0.52629 0.06869 0.93428 0.0
Mg286 Mg 0.96413 0.43274 0.89741 0.0
C287 C 1.00481 0.39991 0.91656 0.0
O288 O 0.97785 0.38907 0.93629 0.0
C289 C 0.93771 0.47649 0.86754 0.0
O290 O 0.9155 0.46114 0.89112 0.0
C291 C 1.00494 0.47922 0.9491 0.0
O292 O 0.02937 0.48567 0.92761 0.0
O293 O 0.97222 0.45729 0.9432 0.0
O294 O 1.00793 0.42137 0.89471 0.0
O295 O 0.91646 0.38088 0.89205 0.0
C296 C 0.9184 0.36443 0.86823 0.0
O297 O 0.94684 0.38 0.85008 0.0
O298 O 0.96252 0.46911 0.86282 0.0
Mg299 Mg 0.61674 0.53558 0.90218 0.0
C300 C 0.69801 0.55332 0.90369 0.0
O301 O 0.69667 0.55266 0.93449 0.0
C302 C 0.56346 0.51555 0.95095 0.0
O303 O 0.54815 0.51795 0.92505 0.0
C304 C 0.5815 0.46952 0.86644 0.0
O305 O 0.60859 0.46859 0.87982 0.0
O306 O 0.5778 0.49643 0.87045 0.0
O307 O 0.67023 0.54628 0.88773 0.0
O308 O 0.62165 0.58727 0.90161 0.0
C309 C 0.64328 0.60641 0.92289 0.0
O310 O 0.65882 0.59314 0.94061 0.0
O311 O 0.59476 0.51913 0.94931 0.0
Mg312 Mg 0.62296 0.86654 0.73899 0.0
C313 C 0.67279 0.93915 0.75369 0.0
O314 O 0.64605 0.92833 0.77363 0.0
C315 C 0.58599 0.79864 0.70423 0.0
O316 O 0.55894 0.80131 0.71534 0.0
C317 C 0.66015 0.85908 0.79296 0.0
O318 O 0.68342 0.86989 0.76977 0.0
O319 O 0.62841 0.85298 0.78744 0.0
O320 O 0.67162 0.91748 0.73322 0.0
O321 O 0.57871 0.8759 0.72712 0.0
C322 C 0.56306 0.88787 0.74437 0.0
O323 O 0.57116 0.89381 0.77427 0.0
O324 O 0.61783 0.82334 0.70953 0.0
Mg325 Mg 0.17834 0.75346 0.73627 0.0
C326 C 0.14514 0.67407 0.73929 0.0
O327 O 0.12089 0.67731 0.75535 0.0
C328 C 0.19063 0.80312 0.78617 0.0
O329 O 0.18048 0.81481 0.76197 0.0
C330 C 0.23314 0.77944 0.6836 0.0
O331 O 0.22407 0.74588 0.68422 0.0
O332 O 0.21676 0.79016 0.70146 0.0
O333 O 0.17356 0.70171 0.73045 0.0
O334 O 0.1227 0.74139 0.73514 0.0
C335 C 0.10728 0.75894 0.72804 0.0
O336 O 0.12576 0.79112 0.7165 0.0
O337 O 0.19513 0.77662 0.78254 0.0
Mg338 Mg 0.28306 0.40708 0.75005 0.0
C339 C 0.35549 0.45559 0.7281 0.0
O340 O 0.34088 0.43241 0.7055 0.0
C341 C 0.23018 0.35951 0.79747 0.0
O342 O 0.22449 0.33821 0.77388 0.0
C343 C 0.22126 0.41009 0.7172 0.0
O344 O 0.20241 0.38639 0.73877 0.0
O345 O 0.25466 0.42101 0.7149 0.0
O346 O 0.33685 0.45266 0.75235 0.0
O347 O 0.2965 0.36608 0.74115 0.0
C348 C 0.28099 0.3352 0.72977 0.0
O349 O 0.2487 0.32144 0.71777 0.0
O350 O 0.25402 0.39197 0.79476 0.0
Mg351 Mg 0.54536 0.9314 0.10123 0.0
C352 C 0.57573 0.88748 0.12293 0.0
O353 O 0.58803 0.91321 0.14341 0.0
C354 C 0.51672 0.96078 0.05087 0.0
O355 O 0.49425 0.95696 0.07341 0.0
C356 C 0.4887 0.93152 0.14795 0.0
O357 O 0.5097 0.96595 0.14921 0.0
O358 O 0.49792 0.91312 0.13147 0.0
O359 O 0.55633 0.88762 0.10035 0.0
O360 O 0.59668 0.97549 0.11494 0.0
C361 C 0.60877 1.00579 0.10214 0.0
O362 O 0.58673 0.01365 0.08745 0.0
O363 O 0.53847 0.94932 0.05517 0.0
Mg364 Mg 0.08773 0.59945 0.11942 0.0
C365 C 0.13224 0.66844 0.14948 0.0
O366 O 0.10011 0.65785 0.161 0.0
C367 C 0.05568 0.54993 0.06795 0.0
O368 O 0.03173 0.53669 0.09054 0.0
C369 C 0.10937 0.55649 0.15785 0.0
O370 O 0.13838 0.57702 0.14151 0.0
O371 O 0.08192 0.56018 0.15463 0.0
O372 O 0.13651 0.64887 0.12993 0.0
O373 O 0.04595 0.61367 0.116 0.0
C374 C 1.01232 0.59566 0.12052 0.0
O375 O 0.99752 0.56287 0.13071 0.0
O376 O 0.08575 0.57729 0.07342 0.0
Mg377 Mg 0.43654 0.48055 0.11847 0.0
C378 C 0.41511 0.40998 0.09797 0.0
O379 O 0.40074 0.42275 0.07825 0.0
C380 C 0.48159 0.55182 0.14434 0.0
O381 O 0.46764 0.55761 0.11907 0.0
C382 C 0.49089 0.50272 0.06929 0.0
O383 O 0.50788 0.50302 0.09504 0.0
O384 O 0.45874 0.4967 0.07141 0.0
O385 O 0.43408 0.42966 0.12026 0.0
O386 O 0.38274 0.47288 0.12871 0.0
C387 C 0.35699 0.44258 0.13676 0.0
O388 O 0.36176 0.4151 0.13604 0.0
O389 O 0.47345 0.52021 0.15118 0.0
Mg390 Mg 0.08791 0.48419 0.6341 0.0
C391 C 0.15575 0.48401 0.65659 0.0
O392 O 0.16421 0.51557 0.66675 0.0
C393 C 0.08014 0.50194 0.56523 0.0
O394 O 0.08685 0.47664 0.55781 0.0
C395 C 0.11488 0.55044 0.66841 0.0
O396 O 0.13329 0.55973 0.64208 0.0
O397 O 0.09199 0.51803 0.67312 0.0
O398 O 0.12794 0.46718 0.63972 0.0
O399 O 0.03684 0.43515 0.63058 0.0
C400 C 0.03837 0.41351 0.61163 0.0
O401 O 0.06939 0.42164 0.59899 0.0
O402 O 0.0852 0.51333 0.59319 0.0
Mg403 Mg 0.53621 0.59437 0.62514 0.0
C404 C 0.61904 0.61667 0.63292 0.0
O405 O 0.61805 0.61829 0.66363 0.0
C406 C 0.49714 0.55796 0.68747 0.0
O407 O 0.52049 0.58733 0.70116 0.0
C408 C 0.52113 0.54306 0.57731 0.0
O409 O 0.53185 0.53252 0.60194 0.0
O410 O 0.51711 0.57005 0.57967 0.0
O411 O 0.59077 0.60633 0.61686 0.0
O412 O 0.53816 0.6451 0.63394 0.0
C413 C 0.55901 0.66382 0.65589 0.0
O414 O 0.57687 0.65167 0.67172 0.0
O415 O 0.49993 0.55389 0.6583 0.0
Mg416 Mg 0.43966 0.94692 0.62331 0.0
C417 C 0.36113 0.87966 0.6152 0.0
O418 O 0.36316 0.88469 0.58465 0.0
C419 C 0.46604 0.97796 0.55726 0.0
O420 O 0.445 0.99122 0.56203 0.0
C421 C 0.46494 0.92196 0.67978 0.0
O422 O 0.43026 0.90319 0.6848 0.0
O423 O 0.47667 0.94418 0.65716 0.0
O424 O 0.38771 0.89929 0.63255 0.0
O425 O 0.4285 0.99008 0.6305 0.0
C426 C 0.40106 0.98528 0.61511 0.0
O427 O 0.3835 0.95638 0.59859 0.0
O428 O 0.46672 0.9564 0.57731 0.0
Mg429 Mg 0.15796 0.40127 0.22954 0.0
C430 C 0.12564 0.44985 0.22566 0.0
O431 O 0.10312 0.42727 0.24635 0.0
C432 C 0.1981 0.39725 0.28754 0.0
O433 O 0.22495 0.40686 0.26793 0.0
C434 C 0.22776 0.42685 0.19499 0.0
O435 O 0.23315 0.45616 0.20834 0.0
O436 O 0.19766 0.39876 0.19886 0.0
O437 O 0.15189 0.44656 0.21613 0.0
O438 O 0.10445 0.35517 0.22868 0.0
C439 C 0.09792 0.32922 0.24674 0.0
O440 O 0.12461 0.32825 0.2608 0.0
O441 O 0.17044 0.39833 0.27866 0.0
Mg442 Mg 0.62491 0.75404 0.22926 0.0
C443 C 0.66814 0.72443 0.24842 0.0
O444 O 0.63986 0.71117 0.26685 0.0
C445 C 0.60987 0.78326 0.16802 0.0
O446 O 0.60274 0.75288 0.15583 0.0
C447 C 0.66188 0.80024 0.28234 0.0
O448 O 0.68715 0.80941 0.26108 0.0
O449 O 0.63 0.77653 0.27576 0.0
O450 O 0.67113 0.74637 0.2271 0.0
O451 O 0.57894 0.70121 0.22297 0.0
C452 C 0.5824 0.68366 0.20081 0.0
O453 O 0.61239 0.69807 0.1846 0.0
O454 O 0.6214 0.79064 0.19603 0.0
Mg455 Mg 0.28346 0.86391 0.23699 0.0
C456 C 0.35179 0.88456 0.20653 0.0
O457 O 0.33636 0.89851 0.18952 0.0
C458 C 0.23213 0.85783 0.28483 0.0
O459 O 0.22558 0.87245 0.26051 0.0
C460 C 0.24608 0.7967 0.2036 0.0
O461 O 0.26979 0.79364 0.22083 0.0
O462 O 0.24561 0.82567 0.20397 0.0
O463 O 0.33514 0.86595 0.2305 0.0
O464 O 0.29719 0.91893 0.23279 0.0
C465 C 0.31696 0.93547 0.256 0.0
O466 O 0.32527 0.9179 0.27636 0.0
O467 O 0.25646 0.84929 0.28258 0.0
C468 C 0.34301 0.19526 0.18196 0.0
C469 C 0.33982 0.17423 0.15552 0.0
C470 C 0.37273 0.14958 0.18348 0.0
C471 C 0.37477 0.16949 0.21041 0.0
N472 N 0.35974 0.20931 0.23667 0.0
N473 N 0.34424 0.12588 0.13338 0.0
C474 C 0.35911 0.19163 0.21005 0.0
C475 C 0.35274 0.14992 0.15693 0.0
N476 N 0.33207 0.21979 0.17981 0.0
N477 N 0.38993 0.1303 0.18317 0.0
H478 H 0.32856 0.12457 0.11415 0.0
H479 H 0.34945 0.10498 0.13428 0.0
H480 H 0.40358 0.12806 0.20245 0.0
H481 H 0.39307 0.11864 0.16308 0.0
H482 H 0.33775 0.23916 0.19651 0.0
H483 H 0.31882 0.22224 0.16029 0.0
H484 H 0.34482 0.22195 0.23961 0.0
H485 H 0.37432 0.2103 0.2566 0.0
C486 C 0.88943 0.19685 0.16173 0.0
C487 C 0.8604 0.16173 0.15824 0.0
C488 C 0.83251 0.16842 0.20602 0.0
C489 C 0.86282 0.20207 0.21101 0.0
N490 N 0.92253 0.24706 0.19594 0.0
N491 N 0.8079 0.11162 0.18116 0.0
C492 C 0.89185 0.21618 0.18935 0.0
C493 C 0.83309 0.1467 0.18163 0.0
N494 N 0.91508 0.21156 0.13881 0.0
N495 N 0.80244 0.15772 0.22398 0.0
H496 H 0.80682 0.0942 0.16418 0.0
H497 H 0.79004 0.09878 0.19955 0.0
H498 H 0.80076 0.17338 0.24157 0.0
H499 H 0.77799 0.13523 0.21926 0.0
H500 H 0.93386 0.23839 0.13755 0.0
H501 H 0.91689 0.1971 0.1202 0.0
H502 H 0.94611 0.25672 0.183 0.0
H503 H 0.92566 0.262 0.21588 0.0
C504 C 0.82155 0.64926 0.18479 0.0
C505 C 0.83923 0.66407 0.21356 0.0
C506 C 0.8875 0.71358 0.18438 0.0
C507 C 0.87143 0.69719 0.15558 0.0
N508 N 0.82988 0.64266 0.12975 0.0
N509 N 0.89494 0.70407 0.23919 0.0
C510 C 0.84047 0.66296 0.15613 0.0
C511 C 0.87411 0.69428 0.21286 0.0
N512 N 0.78631 0.62355 0.18428 0.0
N513 N 0.91431 0.74804 0.18496 0.0
H514 H 0.88696 0.68931 0.25998 0.0
H515 H 0.92165 0.72418 0.23911 0.0
H516 H 0.92365 0.76394 0.16493 0.0
H517 H 0.92443 0.76188 0.20579 0.0
H518 H 0.77177 0.61482 0.16349 0.0
H519 H 0.7705 0.61358 0.20433 0.0
H520 H 0.80919 0.61644 0.12992 0.0
H521 H 0.84454 0.65025 0.10889 0.0
C522 C 0.20638 0.33311 0.34351 0.0
C523 C 0.19397 0.33984 0.37215 0.0
C524 C 0.18596 0.38575 0.34563 0.0
C525 C 0.19614 0.37736 0.31672 0.0
N526 N 0.20341 0.33423 0.28697 0.0
N527 N 0.16193 0.36514 0.39777 0.0
C528 C 0.20263 0.34843 0.31526 0.0
C529 C 0.18068 0.36393 0.37237 0.0
N530 N 0.22341 0.31369 0.34309 0.0
N531 N 0.18255 0.4152 0.34797 0.0
H532 H 0.15594 0.34827 0.4171 0.0
H533 H 0.14887 0.37988 0.39807 0.0
H534 H 0.18691 0.43227 0.32909 0.0
H535 H 0.17875 0.42447 0.36928 0.0
H536 H 0.23643 0.31174 0.32321 0.0
H537 H 0.22784 0.30246 0.36301 0.0
H538 H 0.20473 0.31107 0.28497 0.0
H539 H 0.19815 0.34281 0.26576 0.0
C540 C 0.68424 0.85523 0.31431 0.0
C541 C 0.67137 0.81831 0.3131 0.0
C542 C 0.69219 0.81938 0.36683 0.0
C543 C 0.70314 0.85588 0.36883 0.0
N544 N 0.70101 0.90625 0.34703 0.0
N545 N 0.65491 0.76377 0.3407 0.0
C546 C 0.69691 0.8733 0.34325 0.0
C547 C 0.67256 0.79988 0.34021 0.0
N548 N 0.68425 0.8731 0.28779 0.0
N549 N 0.70217 0.8037 0.38957 0.0
H550 H 0.64052 0.74851 0.3216 0.0
H551 H 0.6519 0.74896 0.36093 0.0
H552 H 0.71787 0.81741 0.40878 0.0
H553 H 0.69816 0.77816 0.38772 0.0
H554 H 0.69756 0.90059 0.28617 0.0
H555 H 0.67242 0.86046 0.26681 0.0
H556 H 0.69302 0.91849 0.33031 0.0
H557 H 0.70887 0.92006 0.36807 0.0
C558 C 0.20769 0.87261 0.36705 0.0
C559 C 0.17043 0.84794 0.36798 0.0
C560 C 0.17342 0.8302 0.31389 0.0
C561 C 0.21133 0.85242 0.31424 0.0
N562 N 0.26522 0.89255 0.34205 0.0
N563 N 0.11736 0.80226 0.34305 0.0
C564 C 0.22866 0.87288 0.34114 0.0
C565 C 0.15303 0.82675 0.34144 0.0
N566 N 0.22267 0.89698 0.39046 0.0
N567 N 0.15695 0.81223 0.28715 0.0
H568 H 0.10123 0.80005 0.36212 0.0
H569 H 0.10388 0.7828 0.32634 0.0
H570 H 0.17104 0.81126 0.26762 0.0
H571 H 0.12937 0.79934 0.28367 0.0
H572 H 0.24881 0.91811 0.38982 0.0
H573 H 0.20778 0.8983 0.40922 0.0
H574 H 0.27962 0.90456 0.36228 0.0
H575 H 0.28157 0.89489 0.32316 0.0
C576 C 0.67444 0.87376 0.85014 0.0
C577 C 0.67152 0.8525 0.82408 0.0
C578 C 0.70453 0.82839 0.85274 0.0
C579 C 0.70872 0.8508 0.8786 0.0
N580 N 0.70515 0.9006 0.8986 0.0
N581 N 0.67583 0.80394 0.80269 0.0
C582 C 0.69542 0.87485 0.87646 0.0
C583 C 0.68462 0.82842 0.82593 0.0
N584 N 0.65652 0.89234 0.85011 0.0
N585 N 0.72017 0.80767 0.85325 0.0
H586 H 0.66016 0.80249 0.78341 0.0
H587 H 0.68076 0.78287 0.80368 0.0
H588 H 0.7338 0.80533 0.87235 0.0
H589 H 0.72209 0.79441 0.83381 0.0
H590 H 0.65416 0.90508 0.86978 0.0
H591 H 0.6413 0.89262 0.83118 0.0
H592 H 0.69973 0.92132 0.89675 0.0
H593 H 0.72225 0.90367 0.91721 0.0
C594 C 0.17886 0.81869 0.87258 0.0
C595 C 0.19639 0.85624 0.87272 0.0
C596 C 0.21508 0.85789 0.8182 0.0
C597 C 0.19506 0.82046 0.81703 0.0
N598 N 0.1524 0.76517 0.84171 0.0
N599 N 0.22297 0.91092 0.84292 0.0
C600 C 0.17555 0.80072 0.84389 0.0
C601 C 0.21184 0.87565 0.84468 0.0
N602 N 0.16506 0.80014 0.89988 0.0
N603 N 0.2385 0.87651 0.7945 0.0
H604 H 0.21967 0.92478 0.86114 0.0
H605 H 0.23143 0.92547 0.82209 0.0
H606 H 0.24285 0.86434 0.77531 0.0
H607 H 0.25652 0.90356 0.7956 0.0
H608 H 0.15641 0.77328 0.9023 0.0
H609 H 0.16365 0.81196 0.92064 0.0
H610 H 0.13437 0.75026 0.85939 0.0
H611 H 0.14878 0.75081 0.82129 0.0
C612 C 0.16477 0.34007 0.86508 0.0
C613 C 0.15954 0.30665 0.87503 0.0
C614 C 0.20937 0.31529 0.84138 0.0
C615 C 0.20932 0.34471 0.82685 0.0
N616 N 0.18448 0.38367 0.82334 0.0
N617 N 0.17622 0.26148 0.8721 0.0
C618 C 0.18658 0.35699 0.83843 0.0
C619 C 0.18189 0.29406 0.86323 0.0
N620 N 0.15023 0.3564 0.88198 0.0
N621 N 0.23653 0.30852 0.8351 0.0
H622 H 0.15663 0.24548 0.8884 0.0
H623 H 0.18918 0.24935 0.86163 0.0
H624 H 0.25799 0.32483 0.82045 0.0
H625 H 0.23986 0.28937 0.84699 0.0
H626 H 0.15569 0.38212 0.87736 0.0
H627 H 0.1361 0.34576 0.90282 0.0
H628 H 0.16522 0.39071 0.82876 0.0
H629 H 0.2001 0.39698 0.80384 0.0
C630 C 0.87419 0.73439 0.67802 0.0
C631 C 0.85119 0.71186 0.65445 0.0
C632 C 0.83896 0.65986 0.68606 0.0
C633 C 0.86302 0.68213 0.70938 0.0
N634 N 0.91201 0.74018 0.72233 0.0
N635 N 0.82311 0.65418 0.63109 0.0
C636 C 0.88323 0.71936 0.70384 0.0
C637 C 0.83723 0.67487 0.65692 0.0
N638 N 0.88655 0.7699 0.67629 0.0
N639 N 0.81615 0.62483 0.69212 0.0
H640 H 0.8237 0.66494 0.60897 0.0
H641 H 0.81504 0.62733 0.6309 0.0
H642 H 0.81485 0.61286 0.71371 0.0
H643 H 0.7958 0.60853 0.67675 0.0
H644 H 0.90007 0.7871 0.69464 0.0
H645 H 0.88122 0.78174 0.65723 0.0
H646 H 0.92947 0.76684 0.71756 0.0
H647 H 0.92094 0.73006 0.74026 0.0
C648 C 0.34677 0.20575 0.68853 0.0
C649 C 0.3801 0.2087 0.69736 0.0
C650 C 0.38115 0.17951 0.6487 0.0
C651 C 0.34677 0.17465 0.64081 0.0
N652 N 0.29524 0.18019 0.65381 0.0
N653 N 0.42702 0.19476 0.68845 0.0
C654 C 0.3291 0.18689 0.66095 0.0
C655 C 0.39699 0.19496 0.67797 0.0
N656 N 0.3326 0.22205 0.70605 0.0
N657 N 0.39851 0.16893 0.62834 0.0
H658 H 0.43948 0.20597 0.70966 0.0
H659 H 0.43833 0.1814 0.67742 0.0
H660 H 0.38666 0.15448 0.60817 0.0
H661 H 0.42531 0.17579 0.63052 0.0
H662 H 0.31079 0.22466 0.69917 0.0
H663 H 0.34435 0.23558 0.72663 0.0
H664 H 0.27896 0.18433 0.66924 0.0
H665 H 0.28235 0.16852 0.63287 0.0
C666 C 0.89916 0.2048 0.66968 0.0
C667 C 0.88818 0.17866 0.64601 0.0
C668 C 0.82606 0.15073 0.66546 0.0
C669 C 0.83673 0.17798 0.68809 0.0
N670 N 0.88152 0.23455 0.70774 0.0
N671 N 0.84101 0.12888 0.61888 0.0
C672 C 0.87284 0.20591 0.6892 0.0
C673 C 0.85152 0.15235 0.64313 0.0
N674 N 0.93471 0.22891 0.67332 0.0
N675 N 0.79207 0.12234 0.66619 0.0
H676 H 0.85908 0.12689 0.60388 0.0
H677 H 0.81438 0.11248 0.61256 0.0
H678 H 0.77242 0.11981 0.68194 0.0
H679 H 0.78379 0.09974 0.65279 0.0
H680 H 0.94487 0.24581 0.69241 0.0
H681 H 0.95468 0.23077 0.6583 0.0
H682 H 0.90634 0.25759 0.70729 0.0
H683 H 0.86273 0.23682 0.72154 0.0
C684 C 0.99914 0.50229 0.5286 0.0
C685 C 1.0149 0.52332 0.5015 0.0
C686 C 0.07332 0.52966 0.5156 0.0
C687 C 0.05812 0.51042 0.54372 0.0
N688 N 1.00736 0.4816 0.57912 0.0
N689 N 0.06796 0.5628 0.47195 0.0
C690 C 1.02131 0.49788 0.55094 0.0
C691 C 0.05228 0.53857 0.4957 0.0
N692 N 0.96269 0.48509 0.5322 0.0
N693 N 0.10782 0.53921 0.50777 0.0
H694 H 0.05362 0.57041 0.45712 0.0
H695 H 0.09556 0.57773 0.46859 0.0
H696 H 0.12462 0.53475 0.52251 0.0
H697 H 0.11911 0.54947 0.48589 0.0
H698 H 0.94893 0.46586 0.54931 0.0
H699 H 0.94568 0.488 0.51647 0.0
H700 H 0.98236 0.47619 0.58745 0.0
H701 H 1.0214 0.47512 0.59525 0.0
C702 C 0.49357 0.46983 0.51773 0.0
C703 C 0.51708 0.48832 0.49235 0.0
C704 C 0.54375 0.54321 0.52293 0.0
C705 C 0.51787 0.52541 0.5469 0.0
N706 N 0.46505 0.47346 0.56562 0.0
N707 N 0.56321 0.54294 0.46956 0.0
C708 C 0.49203 0.48912 0.54393 0.0
C709 C 0.54168 0.52517 0.49459 0.0
N710 N 0.47278 0.43383 0.51697 0.0
N711 N 0.57145 0.57672 0.5279 0.0
H712 H 0.56509 0.53025 0.44958 0.0
H713 H 0.57807 0.5704 0.46796 0.0
H714 H 0.57392 0.59098 0.54819 0.0
H715 H 0.59352 0.58957 0.51303 0.0
H716 H 0.45828 0.41856 0.5362 0.0
H717 H 0.4719 0.41863 0.49789 0.0
H718 H 0.44303 0.44824 0.56313 0.0
H719 H 0.46289 0.48695 0.58489 0.0
C720 C 0.51903 0.98571 0.48277 0.0
C721 C 0.53596 0.02282 0.47713 0.0
C722 C 0.51455 0.02995 0.52833 0.0
C723 C 0.49249 0.99267 0.53112 0.0
N724 N 0.47088 0.93479 0.50906 0.0
N725 N 0.54552 0.07995 0.4931 0.0
C726 C 0.4941 0.97038 0.50794 0.0
C727 C 0.53281 0.04496 0.49962 0.0
N728 N 0.52773 0.9652 0.46483 0.0
N729 N 0.519 0.05101 0.55349 0.0
H730 H 0.55828 0.09199 0.47208 0.0
H731 H 0.54037 0.09627 0.50734 0.0
H732 H 0.50757 0.0408 0.57539 0.0
H733 H 0.53727 0.07803 0.55366 0.0
H734 H 0.51887 0.93868 0.4698 0.0
H735 H 0.54701 0.97564 0.44716 0.0
H736 H 0.46817 0.91785 0.49081 0.0
H737 H 0.45219 0.92253 0.52705 0.0
C738 C 0.51387 0.02997 0.99732 0.0
C739 C 0.52255 0.02132 0.96767 0.0
C740 C 0.52512 0.97152 0.99225 0.0
C741 C 0.51962 0.982 0.02223 0.0
N742 N 0.52169 0.0293 0.05338 0.0
N743 N 0.54871 0.99134 0.94002 0.0
C744 C 0.51789 0.01367 0.02487 0.0
C745 C 0.53207 0.99444 0.96613 0.0
N746 N 0.50012 0.05219 0.99957 0.0
N747 N 0.52198 0.93904 0.98811 0.0
H748 H 0.55643 1.00911 0.92121 0.0
H749 H 0.55875 0.97395 0.93887 0.0
H750 H 0.51462 0.92032 1.00607 0.0
H751 H 0.52264 0.92924 0.96602 0.0
H752 H 0.48987 0.05583 0.02051 0.0
H753 H 0.4956 0.06437 0.98043 0.0
H754 H 0.52383 0.05407 0.05583 0.0
H755 H 0.52729 0.01994 0.07397 0.0
C756 C 1.01477 0.47791 1.00705 0.0
C757 C 1.01636 0.49743 0.9797 0.0
C758 C 0.04551 0.55259 1.00983 0.0
C759 C 0.04623 0.53321 0.03655 0.0
N760 N 0.03942 0.47911 0.05847 0.0
N761 N 0.03624 0.55356 0.95372 0.0
C762 C 0.03298 0.4963 0.03455 0.0
C763 C 0.03286 0.53488 0.98068 0.0
N764 N 0.99579 0.44179 1.00691 0.0
N765 N 0.05507 0.58743 0.01257 0.0
H766 H 0.02447 0.54157 0.93252 0.0
H767 H 0.05218 0.58091 0.9519 0.0
H768 H 0.06495 0.6017 0.03319 0.0
H769 H 0.05081 0.60174 0.99508 0.0
H770 H 0.99039 0.42633 0.0271 0.0
H771 H 0.98288 0.42715 0.98709 0.0
H772 H 0.03373 0.45297 0.0572 0.0
H773 H 0.05416 0.49215 0.07831 0.0
C774 C 0.53538 0.48237 1.0011 0.0
C775 C 0.54543 0.51234 0.98156 0.0
C776 C 0.5155 0.53365 0.01756 0.0
C777 C 0.50793 0.50515 0.0383 0.0
N778 N 0.5116 0.45287 0.051 0.0
N779 N 0.5487 0.56865 0.9723 0.0
C780 C 0.5183 0.47975 0.03044 0.0
C781 C 0.5362 0.53842 0.98997 0.0
N782 N 0.5403 0.45542 0.99076 0.0
N783 N 0.50302 0.55628 0.02429 0.0
H784 H 0.56416 0.57349 0.95209 0.0
H785 H 0.54661 0.59049 0.97889 0.0
H786 H 0.49006 0.55532 0.04525 0.0
H787 H 0.50345 0.57476 1.00842 0.0
H788 H 0.52978 0.43094 1.00193 0.0
H789 H 0.55271 0.45637 0.96948 0.0
H790 H 0.52283 0.4366 0.04896 0.0
H791 H 0.49568 0.44736 0.07099 0.0
C792 C 0.22112 0.02298 0.02697 0.0
C793 C 0.23377 0.0229 0.99626 0.0
C794 C 0.25517 0.08655 0.99126 0.0
C795 C 0.2463 0.08718 0.02326 0.0
N796 N 0.22663 0.0571 0.07326 0.0
N797 N 0.26605 0.05493 0.94992 0.0
C798 C 0.23067 0.05566 0.04155 0.0
C799 C 0.25147 0.05475 0.97845 0.0
N800 N 0.19917 0.99166 0.04194 0.0
N801 N 0.26615 0.11603 0.9729 0.0
H802 H 0.26317 0.03208 0.93954 0.0
H803 H 0.28295 0.07794 0.93747 0.0
H804 H 0.26933 0.13975 0.98155 0.0
H805 H 0.26936 0.11622 0.94866 0.0
H806 H 0.18601 0.98991 0.06296 0.0
H807 H 0.1912 0.96714 0.03179 0.0
H808 H 0.21908 0.03554 0.08827 0.0
H809 H 0.23422 0.0806 0.08516 0.0
C810 C 0.96867 0.21975 0.99966 0.0
C811 C 0.99115 0.20494 0.99429 0.0
C812 C 0.93894 0.14556 1.00088 0.0
C813 C 0.91827 0.16073 1.01145 0.0
N814 N 0.91502 0.21287 0.02465 0.0
N815 N 0.9983 0.15341 0.99263 0.0
C816 C 0.93339 0.19799 1.01154 0.0
C817 C 0.9764 0.16768 0.99526 0.0
N818 N 0.98078 0.25456 0.99275 0.0
N819 N 0.92256 0.11001 0.99567 0.0
H820 H 0.02583 0.16859 0.98879 0.0
H821 H 0.98966 0.12678 0.99674 0.0
H822 H 0.89506 0.09339 0.99886 0.0
H823 H 0.93535 0.09771 0.98522 0.0
H824 H 0.96443 0.26593 0.9932 0.0
H825 H 1.00613 0.2712 0.98335 0.0
H826 H 0.92653 0.23987 0.02879 0.0
H827 H 0.88926 0.19809 0.03394 0.0
C828 C 0.89697 0.80768 0.98965 0.0
C829 C 0.88598 0.77235 0.99916 0.0
C830 C 0.8245 0.75442 0.98302 0.0
C831 C 0.83633 0.78869 0.97012 0.0
N832 N 0.88559 0.84597 0.95578 0.0
N833 N 0.84083 0.7106 0.99797 0.0
C834 C 0.87312 0.81477 0.97184 0.0
C835 C 0.85019 0.74526 0.99378 0.0
N836 N 0.92938 0.83484 0.99899 0.0
N837 N 0.78871 0.73113 0.98683 0.0
H838 H 0.85905 0.70264 1.0049 0.0
H839 H 0.816 0.68971 0.99132 0.0
H840 H 0.76877 0.73721 0.9812 0.0
H841 H 0.77897 0.70723 0.99895 0.0
H842 H 0.93706 0.86135 0.99541 0.0
H843 H 0.94707 0.83123 0.0132 0.0
H844 H 0.91276 0.86441 0.95362 0.0
H845 H 0.86913 0.85187 0.942 0.0
C846 C 0.08085 0.23488 0.55571 0.0
C847 C 0.05769 0.24874 0.54973 0.0
C848 C 0.1018 0.29239 0.51309 0.0
C849 C 0.1258 0.27976 0.52017 0.0
N850 N 0.14137 0.24413 0.553 0.0
N851 N 0.0501 0.29651 0.52951 0.0
C852 C 0.11625 0.25249 0.54295 0.0
C853 C 0.06941 0.2793 0.53048 0.0
N854 N 0.06858 0.20417 0.57251 0.0
N855 N 0.10883 0.3154 0.48859 0.0
H856 H 0.02669 0.28829 0.5425 0.0
H857 H 0.05923 0.32093 0.51848 0.0
H858 H 0.13181 0.32522 0.47472 0.0
H859 H 0.09028 0.32222 0.48015 0.0
H860 H 0.08269 0.19055 0.57468 0.0
H861 H 0.043 0.19081 0.58243 0.0
H862 H 0.13722 0.22692 0.57165 0.0
H863 H 0.16766 0.257 0.54461 0.0
C864 C 0.77608 0.81754 0.52573 0.0
C865 C 0.80722 0.83246 0.54489 0.0
C866 C 0.81853 0.89186 0.53036 0.0
C867 C 0.79049 0.87682 0.50789 0.0
N868 N 0.74583 0.82504 0.48087 0.0
N869 N 0.86058 0.88416 0.56291 0.0
C870 C 0.76991 0.83956 0.50483 0.0
C871 C 0.82899 0.86977 0.54676 0.0
N872 N 0.75168 0.78237 0.52818 0.0
N873 N 0.83463 0.92722 0.53652 0.0
H874 H 0.86929 0.86894 0.57505 0.0
H875 H 0.87956 0.91096 0.56216 0.0
H876 H 0.82722 0.944 0.52532 0.0
H877 H 0.85277 0.93924 0.55475 0.0
H878 H 0.72666 0.77068 0.51739 0.0
H879 H 0.75491 0.76562 0.54368 0.0
H880 H 0.73331 0.7983 0.47528 0.0
H881 H 0.74063 0.83999 0.46473 0.0
C882 C 0.176 0.98355 0.52979 0.0
C883 C 0.21121 0.99096 0.53723 0.0
C884 C 0.19316 0.92851 0.52911 0.0
C885 C 0.15977 0.92243 0.51717 0.0
N886 N 0.1213 0.94571 0.50167 0.0
N887 N 0.25451 0.97123 0.54237 0.0
C888 C 0.15142 0.95021 0.5167 0.0
C889 C 0.2201 0.96359 0.53653 0.0
N890 N 0.16615 1.0085 0.53473 0.0
N891 N 0.19871 0.90058 0.53423 0.0
H892 H 0.27462 0.99613 0.54939 0.0
H893 H 0.26369 0.95351 0.53851 0.0
H894 H 0.17933 0.87452 0.52948 0.0
H895 H 0.22102 0.90273 0.54587 0.0
H896 H 0.13979 1.0033 0.53296 0.0
H897 H 0.18368 0.03356 0.54337 0.0
H898 H 0.11599 0.96624 0.49744 0.0
H899 H 0.10313 0.92233 0.49064 0.0
C900 C 0.77472 0.91802 0.04861 0.0
C901 C 0.79403 0.91634 0.02228 0.0
C902 C 0.83146 0.98092 0.02207 0.0
C903 C 0.80963 0.98291 0.04591 0.0
N904 N 0.75886 0.95413 0.08075 0.0
N905 N 0.83667 0.94633 0.98042 0.0
C906 C 0.78092 0.95163 0.05909 0.0
C907 C 0.82144 0.94783 1.00814 0.0
N908 N 0.75104 0.88755 0.06387 0.0
N909 N 0.86227 0.01072 0.01319 0.0
H910 H 0.82961 0.92274 0.96889 0.0
H911 H 0.85384 0.96864 0.96726 0.0
H912 H 0.87068 0.03525 0.02347 0.0
H913 H 0.88122 1.01049 0.99812 0.0
H914 H 0.73872 0.88702 0.08505 0.0
H915 H 0.7456 0.86261 0.05642 0.0
H916 H 0.73514 0.93258 0.08875 0.0
H917 H 0.76329 0.97826 0.08953 0.0
C918 C 0.10728 0.82057 1.01179 0.0
C919 C 0.11584 0.85616 1.00671 0.0
C920 C 0.05753 0.84275 0.02852 0.0
C921 C 0.04918 0.8073 0.03419 0.0
N922 N 0.07035 0.76564 0.04 0.0
N923 N 0.10408 0.90331 0.01917 0.0
C924 C 0.07552 0.79728 0.02869 0.0
C925 C 0.09255 0.86793 0.01811 0.0
N926 N 0.12802 0.80824 0.99885 0.0
N927 N 0.03156 0.85205 0.03085 0.0
H928 H 0.12984 0.92244 1.01222 0.0
H929 H 0.0896 0.91366 0.02999 0.0
H930 H 1.00528 0.83454 0.03763 0.0
H931 H 0.0353 0.87648 0.02336 0.0
H932 H 0.12057 0.78156 0.99867 0.0
H933 H 0.15131 0.82414 0.98608 0.0
H934 H 0.08999 0.75829 0.03922 0.0
H935 H 0.04781 0.74841 0.05317 0.0
C936 C 0.19507 0.25656 0.02434 0.0
C937 C 0.15761 0.23779 0.03047 0.0
C938 C 0.1663 0.20103 0.06976 0.0
C939 C 0.20379 0.22036 0.06408 0.0
N940 N 0.25469 0.27206 0.04217 0.0
N941 N 0.10842 0.19757 0.06331 0.0
C942 C 0.21842 0.24989 0.04329 0.0
C943 C 0.14353 0.21171 0.05461 0.0
N944 N 0.20824 0.27924 0.99924 0.0
N945 N 0.15225 0.17147 0.0884 0.0
H946 H 0.09123 0.20506 0.05277 0.0
H947 H 0.09719 0.18098 0.08271 0.0
H948 H 0.16807 0.16305 0.10006 0.0
H949 H 0.12489 0.15389 0.09062 0.0
H950 H 0.23457 0.29024 0.9913 0.0
H951 H 0.19229 0.28504 0.98469 0.0
H952 H 0.26678 0.29601 0.02995 0.0
H953 H 0.2726 0.26825 0.05596 0.0
C954 C 0.93608 0.80404 0.47353 0.0
C955 C 0.92609 0.77904 0.49848 0.0
C956 C 0.97559 0.76883 0.48442 0.0
C957 C 0.98862 0.79756 0.46281 0.0
N958 N 0.98301 0.84451 0.43812 0.0
N959 N 0.93863 0.7402 0.53008 0.0
C960 C 0.96915 0.81551 0.45745 0.0
C961 C 0.94619 0.76176 0.50438 0.0
N962 N 0.91348 0.81619 0.46478 0.0
N963 N 0.99091 0.74782 0.48541 0.0
H964 H 0.91755 0.73438 0.54546 0.0
H965 H 0.95502 0.7303 0.53764 0.0
H966 H 1.01221 0.75196 0.4709 0.0
H967 H 0.98034 0.72436 0.49832 0.0
H968 H 0.91748 0.83179 0.4449 0.0
H969 H 0.8888 0.80784 0.4757 0.0
H970 H 0.97228 0.86124 0.43613 0.0
H971 H 1.0069 0.85342 0.42568 0.0
C972 C 0.22962 0.19776 0.52028 0.0
C973 C 0.24032 0.21015 0.48912 0.0
C974 C 0.26167 0.16759 0.48259 0.0
C975 C 0.25433 0.15811 0.51481 0.0
N976 N 0.23961 0.17078 0.56604 0.0
N977 N 0.27063 0.21027 0.4415 0.0
C978 C 0.24063 0.17506 0.53414 0.0
C979 C 0.25739 0.19591 0.47039 0.0
N980 N 0.2078 0.20672 0.53637 0.0
N981 N 0.27173 0.14894 0.46353 0.0
H982 H 0.26762 0.23069 0.43179 0.0
H983 H 0.28674 0.20372 0.42814 0.0
H984 H 0.27554 0.12846 0.47184 0.0
H985 H 0.27379 0.15203 0.43923 0.0
H986 H 0.19629 0.19559 0.55801 0.0
H987 H 0.198 0.22227 0.5266 0.0
H988 H 0.23329 0.18539 0.58141 0.0
H989 H 0.2489 0.1556 0.5774 0.0
C990 C 0.86267 0.04684 0.4846 0.0
C991 C 0.82695 0.03831 0.47781 0.0
C992 C 0.83925 0.09614 0.49722 0.0
C993 C 0.87522 0.105 0.50347 0.0
N994 N 0.92362 0.09311 0.49469 0.0
N995 N 0.78465 0.0585 0.4687 0.0
C996 C 0.88771 0.0817 0.49438 0.0
C997 C 0.81641 0.06425 0.48117 0.0
N998 N 0.87226 0.02128 0.48366 0.0
N999 N 0.826 0.11671 0.50842 0.0
H1000 H 0.76764 0.03568 0.45625 0.0
H1001 H 0.77709 0.07781 0.46779 0.0
H1002 H 0.84134 0.13991 0.5209 0.0
H1003 H 0.7989 0.10916 0.50768 0.0
H1004 H 0.89667 0.02503 0.49205 0.0
H1005 H 0.85484 0.99541 0.47675 0.0
H1006 H 0.93465 0.07849 0.48557 0.0
H1007 H 0.9427 0.11877 0.50103 0.0
C1008 C 0.9327 0.41133 0.37751 0.0
C1009 C 0.93613 0.43956 0.35828 0.0
C1010 C 0.92969 0.40471 0.31118 0.0
C1011 C 0.92312 0.3755 0.33068 0.0
N1012 N 0.9105 0.34851 0.38222 0.0
N1013 N 0.93357 0.46221 0.30717 0.0
C1014 C 0.92237 0.37811 0.36381 0.0
C1015 C 0.93347 0.43606 0.32515 0.0
N1016 N 0.94075 0.41663 0.40879 0.0
N1017 N 0.93362 0.40298 0.27953 0.0
H1018 H 0.93692 0.48567 0.31666 0.0
H1019 H 0.92785 0.4597 0.28326 0.0
H1020 H 0.93065 0.38036 0.26855 0.0
H1021 H 0.94229 0.42462 0.26444 0.0
H1022 H 0.94246 0.39813 0.42322 0.0
H1023 H 0.94934 0.44087 0.41972 0.0
H1024 H 0.90569 0.34819 0.40622 0.0
H1025 H 0.90192 0.32343 0.37311 0.0
C1026 C 0.62309 0.4749 0.34872 0.0
C1027 C 0.60046 0.48696 0.36124 0.0
C1028 C 0.64171 0.5463 0.34068 0.0
C1029 C 0.66746 0.53577 0.33415 0.0
N1030 N 0.6836 0.48996 0.33457 0.0
N1031 N 0.59007 0.53563 0.37164 0.0
C1032 C 0.65828 0.4999 0.33838 0.0
C1033 C 0.60992 0.52298 0.35749 0.0
N1034 N 0.61073 0.43944 0.34639 0.0
N1035 N 0.64747 0.57851 0.3304 0.0
H1036 H 0.56691 0.51982 0.38459 0.0
H1037 H 0.59826 0.56247 0.37271 0.0
H1038 H 0.66997 0.59576 0.31722 0.0
H1039 H 0.62823 0.58635 0.33196 0.0
H1040 H 0.6247 0.42901 0.33481 0.0
H1041 H 0.58479 0.42047 0.35306 0.0
H1042 H 0.67939 0.46505 0.34095 0.0
H1043 H 0.70982 0.50733 0.32748 0.0
C1044 C 0.54309 0.09208 0.30423 0.0
C1045 C 0.56842 0.11405 0.32691 0.0
C1046 C 0.55059 0.15923 0.31852 0.0
C1047 C 0.52565 0.13754 0.29536 0.0
N1048 N 0.50154 0.08566 0.26271 0.0
N1049 N 0.59828 0.16913 0.3549 0.0
C1050 C 0.52303 0.10471 0.2871 0.0
C1051 C 0.57276 0.14785 0.33376 0.0
N1052 N 0.53754 0.05867 0.29975 0.0
N1053 N 0.5528 0.19073 0.32606 0.0
H1054 H 0.6127 0.16062 0.3686 0.0
H1055 H 0.60627 0.19561 0.35841 0.0
H1056 H 0.53987 0.20159 0.31325 0.0
H1057 H 0.56666 0.20597 0.34528 0.0
H1058 H 0.51668 0.03956 0.28646 0.0
H1059 H 0.55252 0.04906 0.31113 0.0
H1060 H 0.50151 0.0638 0.25303 0.0
H1061 H 0.48484 0.09267 0.25071 0.0
C1062 C 0.75027 0.54624 0.8865 0.0
C1063 C 0.73283 0.56661 0.88702 0.0
C1064 C 0.77574 0.60788 0.84819 0.0
C1065 C 0.7938 0.58802 0.8482 0.0
N1066 N 0.8037 0.54358 0.87276 0.0
N1067 N 0.73432 0.62146 0.875 0.0
C1068 C 0.78269 0.55879 0.86906 0.0
C1069 C 0.7473 0.59893 0.86992 0.0
N1070 N 0.73507 0.51419 0.90151 0.0
N1071 N 0.78425 0.63397 0.82628 0.0
H1072 H 0.71395 0.616 0.89114 0.0
H1073 H 0.74606 0.64696 0.86565 0.0
H1074 H 0.80466 0.64129 0.80977 0.0
H1075 H 0.76919 0.64645 0.82277 0.0
H1076 H 0.74415 0.4962 0.89896 0.0
H1077 H 0.71169 0.50443 0.91487 0.0
H1078 H 0.79894 0.52438 0.8897 0.0
H1079 H 0.82799 0.55266 0.86092 0.0
C1080 C 0.43143 0.16801 0.83999 0.0
C1081 C 0.44994 0.20363 0.85012 0.0
C1082 C 0.48626 0.18919 0.88561 0.0
C1083 C 0.46989 0.15462 0.87313 0.0
N1084 N 0.43485 0.11498 0.83181 0.0
N1085 N 0.50072 0.24996 0.87751 0.0
C1086 C 0.44476 0.14514 0.84838 0.0
C1087 C 0.47893 0.21481 0.87166 0.0
N1088 N 0.40033 0.1555 0.8233 0.0
N1089 N 0.50819 0.19741 0.91112 0.0
H1090 H 0.49743 0.26969 0.86674 0.0
H1091 H 0.52422 0.25977 0.89055 0.0
H1092 H 0.51469 0.17952 0.9214 0.0
H1093 H 0.51771 0.22096 0.9234 0.0
H1094 H 0.3841 0.12884 0.818 0.0
H1095 H 0.3887 0.17093 0.81778 0.0
H1096 H 0.4189 0.10827 0.81179 0.0
H1097 H 0.44629 0.09906 0.83579 0.0
C1098 C 0.85592 0.31936 0.85142 0.0
C1099 C 0.89066 0.32746 0.86128 0.0
C1100 C 0.88028 0.27012 0.84235 0.0
C1101 C 0.84536 0.26178 0.8325 0.0
N1102 N 0.79648 0.27394 0.83583 0.0
N1103 N 0.9313 0.3067 0.87536 0.0
C1104 C 0.83206 0.28499 0.83972 0.0
C1105 C 0.90124 0.30145 0.85979 0.0
N1106 N 0.84634 0.34495 0.85155 0.0
N1107 N 0.89457 0.24968 0.83326 0.0
H1108 H 0.94649 0.32902 0.88903 0.0
H1109 H 0.93881 0.28743 0.87751 0.0
H1110 H 0.88075 0.22697 0.81982 0.0
H1111 H 0.92135 0.25695 0.83676 0.0
H1112 H 0.82309 0.34188 0.84103 0.0
H1113 H 0.8628 0.3702 0.86043 0.0
H1114 H 0.78451 0.2883 0.84346 0.0
H1115 H 0.77821 0.24875 0.82782 0.0
C1116 C 0.48222 0.28866 0.32336 0.0
C1117 C 0.46834 0.25713 0.34156 0.0
C1118 C 0.46285 0.28859 0.38703 0.0
C1119 C 0.47942 0.32059 0.36937 0.0
N1120 N 0.51249 0.35258 0.32331 0.0
N1121 N 0.45069 0.22803 0.39202 0.0
C1122 C 0.49142 0.32104 0.33831 0.0
C1123 C 0.4601 0.25732 0.37382 0.0
N1124 N 0.48493 0.28746 0.29145 0.0
N1125 N 0.44847 0.2877 0.41584 0.0
H1126 H 0.44825 0.20471 0.38309 0.0
H1127 H 0.44807 0.22771 0.41633 0.0
H1128 H 0.45039 0.3101 0.42639 0.0
H1129 H 0.43248 0.26441 0.4283 0.0
H1130 H 0.49129 0.30899 0.27673 0.0
H1131 H 0.47713 0.26408 0.27928 0.0
H1132 H 0.52512 0.35466 0.3019 0.0
H1133 H 0.52042 0.37695 0.33374 0.0
C1134 C 0.72868 0.18807 0.36052 0.0
C1135 C 0.72614 0.15822 0.37643 0.0
C1136 C 0.7918 0.18502 0.37387 0.0
C1137 C 0.79355 0.21214 0.35401 0.0
N1138 N 0.76242 0.23567 0.32365 0.0
N1139 N 0.75485 0.12727 0.39791 0.0
C1140 C 0.76172 0.21292 0.34631 0.0
C1141 C 0.75766 0.15647 0.38308 0.0
N1142 N 0.69949 0.19262 0.35864 0.0
N1143 N 0.82277 0.18715 0.38469 0.0
H1144 H 0.7307 0.10717 0.40705 0.0
H1145 H 0.77602 0.12218 0.4 0.0
H1146 H 0.84812 0.20782 0.37861 0.0
H1147 H 0.82346 0.1702 0.40169 0.0
H1148 H 0.70074 0.21568 0.35011 0.0
H1149 H 0.67481 0.17497 0.36855 0.0
H1150 H 0.73939 0.23465 0.31461 0.0
H1151 H 0.7855 0.25315 0.31131 0.0
C1152 C 0.85859 0.53692 0.37525 0.0
C1153 C 0.89497 0.56416 0.37651 0.0
C1154 C 0.87942 0.60529 0.35062 0.0
C1155 C 0.84295 0.57815 0.34954 0.0
N1156 N 0.79647 0.52186 0.369 0.0
N1157 N 0.93764 0.62653 0.3747 0.0
C1158 C 0.83213 0.54516 0.36459 0.0
C1159 C 0.90453 0.59913 0.36729 0.0
N1160 N 0.84946 0.50282 0.38228 0.0
N1161 N 0.89078 0.63601 0.33401 0.0
H1162 H 0.95635 0.62293 0.38746 0.0
H1163 H 0.945 0.65298 0.37121 0.0
H1164 H 0.87372 0.64162 0.32089 0.0
H1165 H 0.91774 0.65478 0.33104 0.0
H1166 H 0.82412 0.48134 0.37806 0.0
H1167 H 0.86783 0.49555 0.39023 0.0
H1168 H 0.78692 0.49879 0.38236 0.0
H1169 H 0.77651 0.52747 0.36205 0.0
C1170 C 0.61281 0.10457 0.80478 0.0
C1171 C 0.60983 0.12061 0.83267 0.0
C1172 C 0.67537 0.15356 0.83746 0.0
C1173 C 0.67822 0.13473 0.81169 0.0
N1174 N 0.65005 0.09005 0.77215 0.0
N1175 N 0.63785 0.15547 0.87878 0.0
C1176 C 0.64704 0.10975 0.79552 0.0
C1177 C 0.64102 0.14399 0.84978 0.0
N1178 N 0.58307 0.08507 0.78685 0.0
N1179 N 0.70566 0.181 0.84996 0.0
H1180 H 0.61325 0.14828 0.8893 0.0
H1181 H 0.65946 0.1693 0.89382 0.0
H1182 H 0.73131 0.18859 0.8416 0.0
H1183 H 0.70523 0.19827 0.86649 0.0
H1184 H 0.58389 0.07559 0.76469 0.0
H1185 H 0.55768 0.08052 0.7932 0.0
H1186 H 0.62818 0.06856 0.76186 0.0
H1187 H 0.67473 0.09395 0.76426 0.0
C1188 C 0.89903 0.49185 0.83456 0.0
C1189 C 0.9333 0.50216 0.84743 0.0
C1190 C 0.95493 0.56239 0.82755 0.0
C1191 C 0.9192 0.55361 0.82042 0.0
N1192 N 0.85618 0.50998 0.8195 0.0
N1193 N 0.99355 0.54865 0.85881 0.0
C1194 C 0.89095 0.5182 0.82407 0.0
C1195 C 0.96142 0.53771 0.84423 0.0
N1196 N 0.87434 0.45676 0.83199 0.0
N1197 N 0.98274 0.59427 0.81801 0.0
H1198 H 0.99947 0.53181 0.87172 0.0
H1199 H 1.01335 0.57512 0.86029 0.0
H1200 H 0.97885 0.61249 0.80501 0.0
H1201 H 1.00954 0.60095 0.81999 0.0
H1202 H 0.85011 0.44749 0.82017 0.0
H1203 H 0.87976 0.43682 0.83879 0.0
H1204 H 0.83434 0.48557 0.82558 0.0
H1205 H 0.84891 0.52831 0.81189 0.0
C1206 C 0.5448 0.43545 0.81971 0.0
C1207 C 0.55243 0.43687 0.85226 0.0
C1208 C 0.51062 0.37336 0.8574 0.0
C1209 C 0.50046 0.37233 0.82553 0.0
N1210 N 0.50387 0.40335 0.77735 0.0
N1211 N 0.53689 0.40915 0.90344 0.0
C1212 C 0.51653 0.40364 0.80686 0.0
C1213 C 0.5337 0.40637 0.87149 0.0
N1214 N 0.56523 0.46411 0.80095 0.0
N1215 N 0.49939 0.34262 0.87394 0.0
H1216 H 0.55292 0.43305 0.9148 0.0
H1217 H 0.52089 0.38854 0.91877 0.0
H1218 H 0.48321 0.31778 0.86426 0.0
H1219 H 0.50908 0.34158 0.89612 0.0
H1220 H 0.56367 0.46351 0.77654 0.0
H1221 H 0.58571 0.48792 0.80968 0.0
H1222 H 0.51166 0.42611 0.76394 0.0
H1223 H 0.48342 0.38059 0.76711 0.0
C1224 C 0.55169 0.70023 0.69705 0.0
C1225 C 0.56175 0.69775 0.6659 0.0
C1226 C 0.58548 0.76166 0.6586 0.0
C1227 C 0.57907 0.76443 0.69088 0.0
N1228 N 0.56188 0.73734 0.74222 0.0
N1229 N 0.59059 0.72625 0.61727 0.0
C1230 C 0.56368 0.73396 0.71047 0.0
C1231 C 0.57909 0.72849 0.6466 0.0
N1232 N 0.52958 0.67015 0.71354 0.0
N1233 N 0.59673 0.79046 0.6393 0.0
H1234 H 0.58496 0.70229 0.60725 0.0
H1235 H 0.60725 0.74818 0.6035 0.0
H1236 H 0.60221 0.81516 0.64747 0.0
H1237 H 0.59822 0.78938 0.61498 0.0
H1238 H 0.51834 0.67014 0.73518 0.0
H1239 H 0.51928 0.64508 0.70392 0.0
H1240 H 0.55457 0.7165 0.75803 0.0
H1241 H 0.57107 0.76166 0.75317 0.0
C1242 C 0.29877 0.80646 0.67108 0.0
C1243 C 0.26546 0.80504 0.66546 0.0
C1244 C 0.29491 0.85347 0.62699 0.0
C1245 C 0.3273 0.85235 0.63042 0.0
N1246 N 0.35767 0.82257 0.65097 0.0
N1247 N 0.23037 0.82296 0.63416 0.0
C1248 C 0.32847 0.82725 0.65106 0.0
C1249 C 0.2631 0.82736 0.64229 0.0
N1250 N 0.30269 0.78941 0.69657 0.0
N1251 N 0.29478 0.88043 0.6105 0.0
H1252 H 0.20653 0.80414 0.64477 0.0
H1253 H 0.22653 0.83579 0.61507 0.0
H1254 H 0.31731 0.90024 0.5991 0.0
H1255 H 0.27312 0.88492 0.61039 0.0
H1256 H 0.32733 0.79261 0.70366 0.0
H1257 H 0.28215 0.77507 0.71267 0.0
H1258 H 0.35854 0.80223 0.66322 0.0
H1259 H 0.3796 0.83671 0.6361 0.0
C1260 C 0.20385 0.4304 0.6676 0.0
C1261 C 0.20552 0.42957 0.7009 0.0
C1262 C 0.17122 0.46062 0.70448 0.0
C1263 C 0.17264 0.46476 0.67133 0.0
N1264 N 0.19398 0.45739 0.62125 0.0
N1265 N 0.19883 0.45204 0.7506 0.0
C1266 C 0.18994 0.45063 0.6528 0.0
C1267 C 0.1915 0.44701 0.71921 0.0
N1268 N 0.21446 0.41098 0.6502 0.0
N1269 N 0.14912 0.46803 0.72195 0.0
H1270 H 0.21497 0.44398 0.76221 0.0
H1271 H 0.19229 0.46773 0.76435 0.0
H1272 H 0.13235 0.47642 0.71211 0.0
H1273 H 0.14438 0.46201 0.7458 0.0
H1274 H 0.21046 0.40743 0.62609 0.0
H1275 H 0.22488 0.3961 0.66028 0.0
H1276 H 0.20953 0.45103 0.60691 0.0
H1277 H 0.18395 0.47187 0.60976 0.0
C1278 C 0.41847 0.90773 0.21259 0.0
C1279 C 0.38636 0.88848 0.19519 0.0
C1280 C 0.4211 0.89403 0.14773 0.0
C1281 C 0.45347 0.91424 0.16472 0.0
N1282 N 0.48308 0.93231 0.21477 0.0
N1283 N 0.357 0.85344 0.14991 0.0
C1284 C 0.45217 0.91865 0.19766 0.0
C1285 C 0.38776 0.87843 0.16393 0.0
N1286 N 0.41686 0.91666 0.24296 0.0
N1287 N 0.4218 0.89145 0.1158 0.0
H1288 H 0.33233 0.84108 0.16156 0.0
H1289 H 0.35654 0.84227 0.12827 0.0
H1290 H 0.44531 0.90234 0.10267 0.0
H1291 H 0.39887 0.8809 0.10192 0.0
H1292 H 0.43914 0.93466 0.25564 0.0
H1293 H 0.39278 0.90711 0.25518 0.0
H1294 H 0.48376 0.93322 0.23919 0.0
H1295 H 0.50799 0.93989 0.20468 0.0
C1296 C 0.14216 0.51339 0.21708 0.0
C1297 C 0.11866 0.477 0.21113 0.0
C1298 C 0.08598 0.49245 0.17243 0.0
C1299 C 0.10919 0.52885 0.17875 0.0
N1300 N 0.15378 0.57374 0.21179 0.0
N1301 N 0.06455 0.43131 0.18725 0.0
C1302 C 0.13566 0.53922 0.20251 0.0
C1303 C 0.08922 0.46639 0.19031 0.0
N1304 N 0.17101 0.52327 0.23637 0.0
N1305 N 0.06244 0.48274 0.14793 0.0
H1306 H 0.06717 0.41113 0.19796 0.0
H1307 H 0.0402 0.42216 0.1757 0.0
H1308 H 0.05872 0.50075 0.13454 0.0
H1309 H 0.04823 0.4571 0.13935 0.0
H1310 H 0.19162 0.54928 0.2387 0.0
H1311 H 0.17545 0.50514 0.24889 0.0
H1312 H 0.17098 0.58267 0.23097 0.0
H1313 H 0.14903 0.59308 0.20205 0.0
C1314 C 0.5187 0.63998 0.18508 0.0
C1315 C 0.55384 0.64725 0.19289 0.0
C1316 C 0.5406 0.58964 0.17202 0.0
C1317 C 0.50526 0.58212 0.16473 0.0
N1318 N 0.45763 0.59519 0.17342 0.0
N1319 N 0.59411 0.62474 0.2028 0.0
C1320 C 0.49335 0.60575 0.17423 0.0
C1321 C 0.5634 0.62061 0.18929 0.0
N1322 N 0.50997 0.66615 0.18605 0.0
N1323 N 0.55332 0.56861 0.16089 0.0
H1324 H 0.61084 0.64666 0.21638 0.0
H1325 H 0.60087 0.60485 0.20341 0.0
H1326 H 0.53788 0.54593 0.14781 0.0
H1327 H 0.58015 0.57529 0.16242 0.0
H1328 H 0.48618 0.66328 0.1769 0.0
H1329 H 0.52751 0.69168 0.19365 0.0
H1330 H 0.44699 0.61002 0.18283 0.0
H1331 H 0.43823 0.5699 0.16648 0.0
C1332 C 0.14165 0.61478 0.73669 0.0
C1333 C 0.13445 0.64038 0.72306 0.0
C1334 C 0.10606 0.60184 0.67795 0.0
C1335 C 0.11751 0.57849 0.68949 0.0
N1336 N 0.14697 0.56232 0.72905 0.0
N1337 N 0.11177 0.65995 0.68002 0.0
C1338 C 0.13515 0.58458 0.71888 0.0
C1339 C 0.11698 0.63427 0.69357 0.0
N1340 N 0.15438 0.61928 0.76671 0.0
N1341 N 0.08389 0.59242 0.65245 0.0
H1342 H 0.11811 0.68361 0.6911 0.0
H1343 H 0.10335 0.65896 0.65694 0.0
H1344 H 0.07497 0.56855 0.64074 0.0
H1345 H 0.07156 0.60647 0.64467 0.0
H1346 H 0.15697 0.60009 0.77927 0.0
H1347 H 0.16003 0.64148 0.77997 0.0
H1348 H 0.1636 0.56733 0.74839 0.0
H1349 H 0.14153 0.53941 0.7171 0.0
C1350 C 0.40189 0.51907 0.71897 0.0
C1351 C 0.39354 0.48372 0.72487 0.0
C1352 C 0.45603 0.4999 0.71369 0.0
C1353 C 0.46284 0.53369 0.70346 0.0
N1354 N 0.44198 0.57512 0.69376 0.0
N1355 N 0.41196 0.43982 0.7287 0.0
C1356 C 0.43589 0.54344 0.70589 0.0
C1357 C 0.42056 0.47403 0.72273 0.0
N1358 N 0.37713 0.52919 0.72534 0.0
N1359 N 0.48367 0.49285 0.71507 0.0
H1360 H 0.38704 0.4209 0.73757 0.0
H1361 H 0.42887 0.42972 0.7239 0.0
H1362 H 0.5098 0.51133 0.70843 0.0
H1363 H 0.48153 0.46996 0.72496 0.0
H1364 H 0.38286 0.55538 0.72482 0.0
H1365 H 0.35147 0.51179 0.73373 0.0
H1366 H 0.42217 0.58208 0.6913 0.0
H1367 H 0.46635 0.59368 0.68379 0.0
C1368 C 0.50591 0.86942 0.71507 0.0
C1369 C 0.53679 0.8965 0.72995 0.0
C1370 C 0.51827 0.93973 0.71512 0.0
C1371 C 0.48965 0.91339 0.69734 0.0
N1372 N 0.46043 0.85466 0.67538 0.0
N1373 N 0.57566 0.95864 0.74007 0.0
C1374 C 0.4845 0.87857 0.69603 0.0
C1375 C 0.54383 0.93201 0.72903 0.0
N1376 N 0.49646 0.8348 0.71982 0.0
N1377 N 0.52049 0.9718 0.71948 0.0
H1378 H 0.59527 0.95426 0.75011 0.0
H1379 H 0.58399 0.98534 0.73686 0.0
H1380 H 0.50225 0.97835 0.70968 0.0
H1381 H 0.53843 0.99072 0.73496 0.0
H1382 H 0.47223 0.81373 0.71228 0.0
H1383 H 0.51119 0.82706 0.73404 0.0
H1384 H 0.45833 0.83021 0.67104 0.0
H1385 H 0.44502 0.86049 0.66015 0.0
C1386 C 0.27563 0.40999 0.19029 0.0
C1387 C 0.25769 0.42696 0.17723 0.0
C1388 C 0.3028 0.45126 0.13491 0.0
C1389 C 0.32327 0.43844 0.15071 0.0
N1390 N 0.33282 0.41319 0.19801 0.0
N1391 N 0.2553 0.46598 0.13805 0.0
C1392 C 0.31062 0.41974 0.1796 0.0
C1393 C 0.27171 0.44839 0.14985 0.0
N1394 N 0.25944 0.38446 0.21286 0.0
N1395 N 0.31202 0.46469 0.10514 0.0
H1396 H 0.23108 0.46244 0.14686 0.0
H1397 H 0.26659 0.48534 0.1206 0.0
H1398 H 0.33401 0.46645 0.09319 0.0
H1399 H 0.2961 0.47111 0.09122 0.0
H1400 H 0.27018 0.36907 0.22104 0.0
H1401 H 0.23348 0.37575 0.22073 0.0
H1402 H 0.32604 0.40277 0.22067 0.0
H1403 H 0.35957 0.42206 0.19237 0.0
C1404 C 0.61952 0.86572 0.1272 0.0
C1405 C 0.58338 0.85813 0.12779 0.0
C1406 C 0.56424 0.79807 0.14697 0.0
C1407 C 0.60079 0.8075 0.15074 0.0
N1408 N 0.66356 0.84983 0.14464 0.0
N1409 N 0.52118 0.81819 0.14 0.0
C1410 C 0.62856 0.84116 0.14068 0.0
C1411 C 0.55557 0.82436 0.13756 0.0
N1412 N 0.64501 0.89626 0.11317 0.0
N1413 N 0.53773 0.76415 0.15289 0.0
H1414 H 0.51354 0.83647 0.13303 0.0
H1415 H 0.50052 0.79593 0.15088 0.0
H1416 H 0.54266 0.74457 0.16155 0.0
H1417 H 0.51096 0.7546 0.14707 0.0
H1418 H 0.67132 0.90221 0.10933 0.0
H1419 H 0.63897 0.91445 0.10278 0.0
H1420 H 0.68516 0.8752 0.14132 0.0
H1421 H 0.67107 0.83176 0.15268 0.0
C1422 C 0.21272 0.76187 0.15587 0.0
C1423 C 0.2166 0.76463 0.18899 0.0
C1424 C 0.16969 0.7027 0.19498 0.0
C1425 C 0.16317 0.70086 0.16222 0.0
N1426 N 0.17511 0.72986 0.11166 0.0
N1427 N 0.19375 0.74019 0.2404 0.0
C1428 C 0.18387 0.73073 0.14261 0.0
C1429 C 0.19368 0.73572 0.20865 0.0
N1430 N 0.23719 0.78849 0.13711 0.0
N1431 N 0.15389 0.67258 0.21294 0.0
H1432 H 0.21019 0.76427 0.25135 0.0
H1433 H 0.17497 0.72109 0.25552 0.0
H1434 H 0.13685 0.64766 0.20366 0.0
H1435 H 0.16056 0.67176 0.23633 0.0
H1436 H 0.23819 0.78646 0.11284 0.0
H1437 H 0.25828 0.81178 0.14607 0.0
H1438 H 0.18656 0.75199 0.09697 0.0
H1439 H 0.15441 0.70749 0.10112 0.0
C1440 C 0.37859 0.32214 0.0586 0.0
C1441 C 0.36928 0.29889 0.0847 0.0
C1442 C 0.39783 0.34899 0.12043 0.0
C1443 C 0.40649 0.37257 0.09438 0.0
N1444 N 0.4186 0.38103 0.03866 0.0
N1445 N 0.38422 0.29037 0.13717 0.0
C1446 C 0.40147 0.3589 0.06341 0.0
C1447 C 0.38392 0.31252 0.11451 0.0
N1448 N 0.36396 0.3099 0.02976 0.0
N1449 N 0.39989 0.36015 0.15064 0.0
H1450 H 0.37556 0.26383 0.13257 0.0
H1451 H 0.39697 0.29923 0.15873 0.0
H1452 H 0.40875 0.38612 0.15704 0.0
H1453 H 0.3897 0.34263 0.16961 0.0
H1454 H 0.36677 0.32664 1.01104 0.0
H1455 H 0.34704 0.28325 0.025 0.0
H1456 H 0.41804 0.37197 0.01598 0.0
H1457 H 0.43663 0.4079 0.04161 0.0
C1458 C 0.67009 0.03572 0.12575 0.0
C1459 C 0.6482 0.02894 0.09895 0.0
C1460 C 0.70219 0.06304 0.06652 0.0
C1461 C 0.72379 0.06586 0.09266 0.0
N1462 N 0.7271 0.04548 0.14485 0.0
N1463 N 0.64424 0.02908 0.04209 0.0
C1464 C 0.70745 0.0497 0.12173 0.0
C1465 C 0.66436 0.04082 0.06878 0.0
N1466 N 0.65536 0.02927 0.15514 0.0
N1467 N 0.71761 0.08188 0.0397 0.0
H1468 H 0.61688 0.01097 0.04211 0.0
H1469 H 0.65545 0.03428 0.01966 0.0
H1470 H 0.74523 0.09828 0.03721 0.0
H1471 H 0.70276 0.08365 0.02112 0.0
H1472 H 0.67076 0.03685 0.17552 0.0
H1473 H 0.62812 0.01983 0.15906 0.0
H1474 H 0.71575 0.03119 0.16544 0.0
H1475 H 0.75377 0.05217 0.1417 0.0
C1476 C 0.95617 0.64097 0.12226 0.0
C1477 C 0.96483 0.65712 0.09206 0.0
C1478 C 0.99157 0.62093 0.07814 0.0
C1479 C 0.99005 0.61107 0.11015 0.0
N1480 N 0.97063 0.61109 0.16318 0.0
N1481 N 0.99144 0.66313 0.04091 0.0
C1482 C 0.97162 0.6203 0.13231 0.0
C1483 C 0.98206 0.64677 0.0696 0.0
N1484 N 0.93304 0.6454 0.14116 0.0
N1485 N 1.00176 0.60517 0.05597 0.0
H1486 H 0.98452 0.68181 0.03356 0.0
H1487 H 1.00802 0.65978 0.02515 0.0
H1488 H 1.00777 0.58536 0.06169 0.0
H1489 H 1.00047 0.60891 0.03192 0.0
H1490 H 0.92325 0.63201 0.16238 0.0
H1491 H 0.9208 0.65983 0.13399 0.0
H1492 H 0.96134 0.62065 0.18106 0.0
H1493 H 0.98109 0.59539 0.1712 0.0
C1494 C 0.32638 0.37778 0.39945 0.0
C1495 C 0.3171 0.36148 0.42961 0.0
C1496 C 0.37998 0.39605 0.44521 0.0
C1497 C 0.38978 0.40585 0.41336 0.0
N1498 N 0.37238 0.4055 0.35949 0.0
N1499 N 0.33569 0.35407 0.48135 0.0
C1500 C 0.363 0.39708 0.3903 0.0
C1501 C 0.34395 0.37078 0.4528 0.0
N1502 N 0.30007 0.37526 0.37984 0.0
N1503 N 0.4051 0.41146 0.46821 0.0
H1504 H 0.30969 0.33559 0.48808 0.0
H1505 H 0.35503 0.35677 0.49758 0.0
H1506 H 0.43139 0.43098 0.46328 0.0
H1507 H 0.39896 0.40785 0.49208 0.0
H1508 H 0.30516 0.38889 0.35857 0.0
H1509 H 0.27323 0.36262 0.38664 0.0
H1510 H 0.3539 0.3961 0.34121 0.0
H1511 H 0.39894 0.41997 0.35195 0.0
C1512 C 0.62278 0.95252 0.3912 0.0
C1513 C 0.62183 0.97878 0.40995 0.0
C1514 C 0.65325 0.96697 0.45244 0.0
C1515 C 0.65398 0.94048 0.43389 0.0
N1516 N 0.63414 0.9033 0.38808 0.0
N1517 N 0.62732 1.00444 0.46112 0.0
C1518 C 0.63676 0.93154 0.40413 0.0
C1519 C 0.63447 0.98406 0.4414 0.0
N1520 N 0.61205 0.94893 0.36057 0.0
N1521 N 0.67114 0.9763 0.48042 0.0
H1522 H 0.61308 0.01691 0.45416 0.0
H1523 H 0.63239 1.00627 0.48514 0.0
H1524 H 0.6831 0.96276 0.49037 0.0
H1525 H 0.67581 0.99861 0.49295 0.0
H1526 H 0.61589 0.93329 0.34443 0.0
H1527 H 0.60128 0.96353 0.35057 0.0
H1528 H 0.61886 0.89317 0.36788 0.0
H1529 H 0.64523 0.88817 0.39608 0.0
C1530 C 0.06146 0.69971 0.46327 0.0
C1531 C 0.07632 0.72307 0.4373 0.0
C1532 C 0.05673 0.67296 0.40175 0.0
C1533 C 0.04139 0.64953 0.42766 0.0
N1534 N 0.04225 0.64097 0.48356 0.0
N1535 N 0.10069 0.73215 0.38507 0.0
C1536 C 0.04821 0.6631 0.45864 0.0
C1537 C 0.07822 0.70966 0.40759 0.0
N1538 N 0.05759 0.7117 0.49172 0.0
N1539 N 0.04897 0.66092 0.37165 0.0
H1540 H 0.11798 0.75886 0.38964 0.0
H1541 H 0.10517 0.72358 0.36365 0.0
H1542 H 0.03272 0.6344 0.36603 0.0
H1543 H 0.05645 0.67779 0.35221 0.0
H1544 H 0.04296 0.69479 0.51014 0.0
H1545 H 0.06659 0.73821 0.49634 0.0
H1546 H 0.04937 0.64989 0.5065 0.0
H1547 H 0.03429 0.61434 0.48061 0.0
C1548 C 0.64652 0.65504 0.95644 0.0
C1549 C 0.65301 0.64375 0.92709 0.0
C1550 C 0.68912 0.70529 0.91006 0.0
C1551 C 0.67952 0.71636 0.93792 0.0
N1552 N 0.64509 0.70192 0.98569 0.0
N1553 N 0.67645 0.65787 0.87413 0.0
C1554 C 0.65708 0.69127 0.96062 0.0
C1555 C 0.67265 0.66877 0.90319 0.0
N1556 N 0.63096 0.63134 0.98056 0.0
N1557 N 0.71601 0.72953 0.89125 0.0
H1558 H 0.66714 0.63154 0.86844 0.0
H1559 H 0.68668 0.67489 0.85486 0.0
H1560 H 0.73049 0.75633 0.89648 0.0
H1561 H 0.72685 0.72271 0.87252 0.0
H1562 H 0.62935 0.6387 1.00344 0.0
H1563 H 0.62172 0.60438 0.97834 0.0
H1564 H 0.62548 0.68443 1.00122 0.0
H1565 H 0.65264 0.72833 0.98955 0.0
C1566 C 0.34417 0.95296 0.93123 0.0
C1567 C 0.32401 0.96914 0.92143 0.0
C1568 C 0.37557 0.0124 0.89085 0.0
C1569 C 0.39752 1.00083 0.90541 0.0
N1570 N 0.40329 0.96068 0.94097 0.0
N1571 N 0.32469 0.02051 0.89841 0.0
C1572 C 0.38194 0.9712 0.92609 0.0
C1573 C 0.3408 1.00053 0.9029 0.0
N1574 N 0.32733 0.91978 0.94411 0.0
N1575 N 0.38778 0.03483 0.86566 0.0
H1576 H 0.30067 0.01481 0.90925 0.0
H1577 H 0.33749 0.04517 0.88731 0.0
H1578 H 0.41231 0.04229 0.85503 0.0
H1579 H 0.37159 0.04205 0.85299 0.0
H1580 H 0.34045 0.9056 0.94893 0.0
H1581 H 0.29965 0.90497 0.94714 0.0
H1582 H 0.39422 0.94208 0.95914 0.0
H1583 H 0.43059 0.9719 0.93601 0.0
C1584 C 0.05255 0.34733 0.90354 0.0
C1585 C 0.05971 0.34269 0.93537 0.0
C1586 C 0.04432 0.38757 0.95081 0.0
C1587 C 0.03006 0.38623 0.9205 0.0
N1588 N 1.01928 0.36341 0.8677 0.0
N1589 N 0.05862 0.35636 0.99021 0.0
C1590 C 0.03436 0.36626 0.89657 0.0
C1591 C 0.05521 0.36271 0.95929 0.0
N1592 N 0.06355 0.33405 0.87979 0.0
N1593 N 0.04755 0.41284 0.97141 0.0
H1594 H 0.06523 0.33755 0.99783 0.0
H1595 H 0.05164 0.36752 1.00851 0.0
H1596 H 0.04097 0.43213 0.96517 0.0
H1597 H 0.06044 0.4171 0.99299 0.0
H1598 H 0.06271 0.34001 0.85618 0.0
H1599 H 0.07694 0.32007 0.88376 0.0
H1600 H 1.01709 0.34509 0.85101 0.0
H1601 H 1.0067 0.37755 0.861 0.0
C1602 C 0.69069 0.67604 0.57453 0.0
C1603 C 0.71911 0.67011 0.58245 0.0
C1604 C 0.67936 0.62338 0.61942 0.0
C1605 C 0.6537 0.63462 0.61579 0.0
N1606 N 0.63819 0.67655 0.59336 0.0
N1607 N 0.74066 0.63656 0.61111 0.0
C1608 C 0.66001 0.66202 0.594 0.0
C1609 C 0.71337 0.64293 0.60424 0.0
N1610 N 0.69331 0.6953 0.54825 0.0
N1611 N 0.67093 0.59368 0.63669 0.0
H1612 H 0.76433 0.64788 0.59818 0.0
H1613 H 0.74011 0.62078 0.62981 0.0
H1614 H 0.64632 0.57895 0.64808 0.0
H1615 H 0.68708 0.58213 0.6378 0.0
H1616 H 0.67223 0.69836 0.53978 0.0
H1617 H 0.71523 0.70445 0.53304 0.0
H1618 H 0.64375 0.69877 0.5799 0.0
H1619 H 0.61687 0.66914 0.60888 0.0
C1620 C 0.39113 0.06545 0.5954 0.0
C1621 C 0.35362 0.05009 0.60011 0.0
C1622 C 0.35119 0.99728 0.62319 0.0
C1623 C 0.38763 0.01066 0.61518 0.0
N1624 N 0.4427 0.05687 0.59267 0.0
N1625 N 0.29668 0.99894 0.61341 0.0
C1626 C 0.4079 0.04478 0.6013 0.0
C1627 C 0.33332 0.01538 0.61276 0.0
N1628 N 0.41083 0.1 0.58609 0.0
N1629 N 0.33385 0.96744 0.64139 0.0
H1630 H 0.28224 0.01077 0.60521 0.0
H1631 H 0.2804 0.9723 0.61903 0.0
H1632 H 0.34655 0.95398 0.65 0.0
H1633 H 0.30827 0.95817 0.65062 0.0
H1634 H 0.43872 0.11412 0.58594 0.0
H1635 H 0.39924 0.11533 0.58014 0.0
H1636 H 0.45741 0.07911 0.57857 0.0
H1637 H 0.45664 0.04381 0.59865 0.0
C1638 C 0.98529 0.35302 0.62268 0.0
C1639 C 1.00613 0.38071 0.60127 0.0
C1640 C 0.98456 0.33946 0.55733 0.0
C1641 C 0.96587 0.31127 0.57899 0.0
N1642 N 0.93639 0.29286 0.6292 0.0
N1643 N 1.01209 0.40255 0.54841 0.0
C1644 C 0.96199 0.31878 0.61067 0.0
C1645 C 1.00108 0.3746 0.56857 0.0
N1646 N 0.98944 0.3586 0.65427 0.0
N1647 N 0.98902 0.33315 0.52677 0.0
H1648 H 1.0223 0.42821 0.55667 0.0
H1649 H 1.00685 0.39979 0.5244 0.0
H1650 H 0.97699 0.30808 0.51699 0.0
H1651 H 1.00649 0.35299 0.51143 0.0
H1652 H 0.97808 0.33821 0.67083 0.0
H1653 H 1.00579 0.38341 0.66394 0.0
H1654 H 0.93047 0.29729 0.65185 0.0
H1655 H 0.91859 0.26781 0.62048 0.0
C1656 C 0.02485 0.71129 0.77888 0.0
C1657 C 0.99717 0.70185 0.75648 0.0
C1658 C 0.04192 0.73507 0.71555 0.0
C1659 C 0.06943 0.74436 0.73798 0.0
N1660 N 0.08664 0.7517 0.79241 0.0
N1661 N 0.97871 0.71332 0.70629 0.0
C1662 C 0.06068 0.73582 0.77015 0.0
C1663 C 1.00555 0.71658 0.72567 0.0
N1664 N 1.01753 0.69527 0.80775 0.0
N1665 N 0.05036 0.74223 0.68445 0.0
H1666 H 0.95187 0.70058 0.71324 0.0
H1667 H 0.98335 0.72624 0.68468 0.0
H1668 H 0.07671 0.75621 0.67628 0.0
H1669 H 0.03133 0.73235 0.66662 0.0
H1670 H 0.03743 0.69812 0.82339 0.0
H1671 H 0.9918 0.67685 0.81521 0.0
H1672 H 0.08126 0.74908 0.81643 0.0
H1673 H 0.11288 0.7707 0.7867 0.0
C1674 C 0.29408 0.29516 0.76185 0.0
C1675 C 0.29934 0.31437 0.73359 0.0
C1676 C 0.35261 0.3098 0.7228 0.0
C1677 C 0.35242 0.299 0.7545 0.0
N1678 N 0.32275 0.28281 0.80513 0.0
N1679 N 0.33338 0.34005 0.68643 0.0
C1680 C 0.32269 0.29123 0.77418 0.0
C1681 C 0.32835 0.32136 0.71364 0.0
N1682 N 0.26192 0.28115 0.77702 0.0
N1683 N 0.3751 0.30789 0.70123 0.0
H1684 H 0.31488 0.34719 0.67833 0.0
H1685 H 0.3566 0.34985 0.67289 0.0
H1686 H 0.39155 0.29726 0.7065 0.0
H1687 H 0.37417 0.31271 0.67735 0.0
H1688 H 0.25531 0.26403 0.7962 0.0
H1689 H 0.24067 0.28375 0.76821 0.0
H1690 H 0.30339 0.28068 0.82106 0.0
H1691 H 0.34368 0.28102 0.81565 0.0
C1692 C 0.71859 0.99912 0.73118 0.0
C1693 C 0.70365 0.97558 0.75707 0.0
C1694 C 0.73013 0.02537 0.79345 0.0
C1695 C 0.74434 0.04897 0.76754 0.0
N1696 N 0.76576 0.05672 0.71428 0.0
N1697 N 0.70981 0.96572 0.81185 0.0
C1698 C 0.74311 0.03524 0.73718 0.0
C1699 C 0.71437 0.98859 0.78795 0.0
N1700 N 0.70802 0.98809 0.70116 0.0
N1701 N 0.72935 0.03728 0.82283 0.0
H1702 H 0.70069 0.93904 0.80766 0.0
H1703 H 0.71935 0.97398 0.83451 0.0
H1704 H 0.73986 0.06385 0.82822 0.0
H1705 H 0.71559 0.02027 0.84148 0.0
H1706 H 0.71553 1.0056 0.68218 0.0
H1707 H 0.68975 0.96212 0.69531 0.0
H1708 H 0.76791 0.04742 0.69237 0.0
H1709 H 0.78542 0.08275 0.71887 0.0
C1710 C 0.3721 0.99349 0.2628 0.0
C1711 C 0.33443 0.97437 0.25887 0.0
C1712 C 0.33228 0.02913 0.26608 0.0
C1713 C 0.36941 0.04701 0.27317 0.0
N1714 N 0.42205 0.04367 0.28694 0.0
N1715 N 0.27747 0.97264 0.26176 0.0
C1716 C 0.38847 0.02834 0.27427 0.0
C1717 C 0.31405 0.99177 0.26183 0.0
N1718 N 0.39253 0.97898 0.25405 0.0
N1719 N 0.31476 0.04786 0.26243 0.0
H1720 H 0.26328 0.94535 0.25864 0.0
H1721 H 0.26128 0.98343 0.26714 0.0
H1722 H 0.32715 0.07504 0.26615 0.0
H1723 H 0.28874 0.03686 0.2538 0.0
H1724 H 0.42047 0.99301 0.254 0.0
H1725 H 0.38155 0.95447 0.24315 0.0
H1726 H 0.43572 0.02985 0.29097 0.0
H1727 H 0.43447 0.06897 0.29655 0.0
C1728 C 0.9999 0.2582 0.25534 0.0
C1729 C 0.99069 0.26941 0.28344 0.0
C1730 C 0.05204 0.3189 0.28768 0.0
C1731 C 0.06138 0.3076 0.25982 0.0
N1732 N 0.04719 0.26293 0.22087 0.0
N1733 N 1.00971 0.30404 0.33052 0.0
C1734 C 0.03623 0.27599 0.24489 0.0
C1735 C 1.01742 0.29779 0.30091 0.0
N1736 N 0.97378 0.23203 0.23765 0.0
N1737 N 0.0758 0.35052 0.30088 0.0
H1738 H 0.9847 0.28847 0.34105 0.0
H1739 H 0.02888 0.32213 0.34578 0.0
H1740 H 0.10166 0.36665 0.29227 0.0
H1741 H 0.06906 0.36215 0.31894 0.0
H1742 H 0.97815 0.22569 0.21519 0.0
H1743 H 0.94696 0.21796 0.24438 0.0
H1744 H 0.03122 0.23808 0.21113 0.0
H1745 H 0.07342 0.27587 0.21229 0.0
C1746 C 0.72757 0.68315 0.23861 0.0
C1747 C 0.72983 0.67514 0.27066 0.0
C1748 C 0.70654 0.71392 0.28557 0.0
C1749 C 0.69577 0.71408 0.25414 0.0
N1750 N 0.69504 0.69708 0.20009 0.0
N1751 N 0.71844 0.68131 0.32528 0.0
C1752 C 0.70651 0.69877 0.23027 0.0
C1753 C 0.7191 0.69055 0.29447 0.0
N1754 N 0.74608 0.6764 0.21623 0.0
N1755 N 0.70502 0.73644 0.30678 0.0
H1756 H 0.72619 0.66339 0.33302 0.0
H1757 H 0.70711 0.68915 0.34289 0.0
H1758 H 0.69792 0.75523 0.30007 0.0
H1759 H 0.71494 0.73937 0.32956 0.0
H1760 H 0.74773 0.68438 0.19288 0.0
H1761 H 0.76318 0.66662 0.22182 0.0
H1762 H 0.69859 0.68225 0.18283 0.0
H1763 H 0.67986 0.70836 0.19269 0.0
loop_
_geom_bond_atom_site_label_1
_geom_bond_atom_site_label_2
_geom_bond_distance
_geom_bond_site_symmetry_2
_ccdc_geom_bond_type
Mg0 O7 2.141 . S
Mg0 O8 2.048 . S
Mg0 O9 2.048 . S
Mg0 O12 2.141 . S
C1 O2 1.313 . S
C1 O8 1.195 . S
O2 C1 1.313 . S
C3 O4 1.245 . S
C3 O12 1.289 . S
O4 C3 1.245 . S
C5 O6 1.245 . S
C5 O7 1.289 . S
O6 C5 1.245 . S
O7 Mg0 2.141 . S
O7 C5 1.289 . S
O8 Mg0 2.048 . S
O8 C1 1.195 . S
O9 Mg0 2.048 . S
O9 C10 1.195 . S
C10 O9 1.195 . S
C10 O11 1.313 . S
O11 C10 1.313 . S
O12 Mg0 2.141 . S
O12 C3 1.289 . S
Mg13 O20 2.141 . S
Mg13 O21 2.048 . S
Mg13 O22 2.048 . S
Mg13 O25 2.141 . S
C14 O15 1.313 . S
C14 O21 1.195 . S
O15 C14 1.313 . S
C16 O17 1.245 . S
C16 O25 1.289 . S
O17 C16 1.245 . S
C18 O19 1.245 . S
C18 O20 1.289 . S
O19 C18 1.245 . S
O20 Mg13 2.141 . S
O20 C18 1.289 . S
O21 Mg13 2.048 . S
O21 C14 1.195 . S
O22 Mg13 2.048 . S
O22 C23 1.195 . S
C23 O22 1.195 . S
C23 O24 1.313 . S
O24 C23 1.313 . S
O25 Mg13 2.141 . S
O25 C16 1.289 . S
Mg26 O33 2.141 . S
Mg26 O34 2.048 . S
Mg26 O35 2.048 . S
Mg26 O38 2.141 . S
C27 O28 1.313 . S
C27 O34 1.195 . S
O28 C27 1.313 . S
C29 O30 1.245 . S
C29 O38 1.289 . S
O30 C29 1.245 . S
C31 O32 1.245 . S
C31 O33 1.289 . S
O32 C31 1.245 . S
O33 Mg26 2.141 . S
O33 C31 1.289 . S
O34 Mg26 2.048 . S
O34 C27 1.195 . S
O35 Mg26 2.048 . S
O35 C36 1.195 . S
C36 O35 1.195 . S
C36 O37 1.313 . S
O37 C36 1.313 . S
O38 Mg26 2.141 . S
O38 C29 1.289 . S
Mg39 O46 2.141 . S
Mg39 O47 2.048 . S
Mg39 O48 2.048 . S
Mg39 O51 2.141 . S
C40 O41 1.313 . S
C40 O47 1.195 . S
O41 C40 1.313 . S
C42 O43 1.245 . S
C42 O51 1.289 . S
O43 C42 1.245 . S
C44 O45 1.245 . S
C44 O46 1.289 . S
O45 C44 1.245 . S
O46 Mg39 2.141 . S
O46 C44 1.289 . S
O47 Mg39 2.048 . S
O47 C40 1.195 . S
O48 Mg39 2.048 . S
O48 C49 1.195 . S
C49 O48 1.195 . S
C49 O50 1.313 . S
O50 C49 1.313 . S
O51 Mg39 2.141 . S
O51 C42 1.289 . S
Mg52 O59 2.141 . S
Mg52 O60 2.048 . S
Mg52 O61 2.048 . S
Mg52 O64 2.141 . S
C53 O54 1.313 . S
C53 O60 1.195 . S
O54 C53 1.313 . S
C55 O56 1.245 . S
C55 O64 1.289 . S
O56 C55 1.245 . S
C57 O58 1.245 . S
C57 O59 1.289 . S
O58 C57 1.245 . S
O59 Mg52 2.141 . S
O59 C57 1.289 . S
O60 Mg52 2.048 . S
O60 C53 1.195 . S
O61 Mg52 2.048 . S
O61 C62 1.195 . S
C62 O61 1.195 . S
C62 O63 1.313 . S
O63 C62 1.313 . S
O64 Mg52 2.141 . S
O64 C55 1.289 . S
Mg65 O72 2.141 . S
Mg65 O73 2.048 . S
Mg65 O74 2.048 . S
Mg65 O77 2.141 . S
C66 O67 1.313 . S
C66 O73 1.195 . S
O67 C66 1.313 . S
C68 O69 1.245 . S
C68 O77 1.289 . S
O69 C68 1.245 . S
C70 O71 1.245 . S
C70 O72 1.289 . S
O71 C70 1.245 . S
O72 Mg65 2.141 . S
O72 C70 1.289 . S
O73 Mg65 2.048 . S
O73 C66 1.195 . S
O74 Mg65 2.048 . S
O74 C75 1.195 . S
C75 O74 1.195 . S
C75 O76 1.313 1_455 S
O76 C75 1.313 1_655 S
O77 Mg65 2.141 . S
O77 C68 1.289 . S
Mg78 O85 2.141 . S
Mg78 O86 2.048 . S
Mg78 O87 2.048 . S
Mg78 O90 2.141 . S
C79 O80 1.313 . S
C79 O86 1.195 . S
O80 C79 1.313 . S
C81 O82 1.245 . S
C81 O90 1.289 . S
O82 C81 1.245 . S
C83 O84 1.245 . S
C83 O85 1.289 . S
O84 C83 1.245 . S
O85 Mg78 2.141 . S
O85 C83 1.289 . S
O86 Mg78 2.048 . S
O86 C79 1.195 . S
O87 Mg78 2.048 . S
O87 C88 1.195 . S
C88 O87 1.195 . S
C88 O89 1.313 . S
O89 C88 1.313 . S
O90 Mg78 2.141 . S
O90 C81 1.289 . S
Mg91 O98 2.141 . S
Mg91 O99 2.048 . S
Mg91 O100 2.048 . S
Mg91 O103 2.141 . S
C92 O93 1.313 . S
C92 O99 1.195 . S
O93 C92 1.313 . S
C94 O95 1.245 . S
C94 O103 1.289 . S
O95 C94 1.245 . S
C96 O97 1.245 . S
C96 O98 1.289 . S
O97 C96 1.245 . S
O98 Mg91 2.141 . S
O98 C96 1.289 . S
O99 Mg91 2.048 . S
O99 C92 1.195 . S
O100 Mg91 2.048 . S
O100 C101 1.195 . S
C101 O100 1.195 . S
C101 O102 1.313 . S
O102 C101 1.313 . S
O103 Mg91 2.141 . S
O103 C94 1.289 . S
Mg104 O111 2.141 . S
Mg104 O112 2.048 . S
Mg104 O113 2.048 . S
Mg104 O116 2.141 . S
C105 O106 1.313 1_455 S
C105 O112 1.195 . S
O106 C105 1.313 1_655 S
C107 O108 1.245 . S
C107 O116 1.289 . S
O108 C107 1.245 . S
C109 O110 1.245 . S
C109 O111 1.289 . S
O110 C109 1.245 . S
O111 Mg104 2.141 . S
O111 C109 1.289 . S
O112 Mg104 2.048 . S
O112 C105 1.195 . S
O113 Mg104 2.048 . S
O113 C114 1.195 . S
C114 O113 1.195 . S
C114 O115 1.313 . S
O115 C114 1.313 . S
O116 Mg104 2.141 . S
O116 C107 1.289 . S
Mg117 O124 2.141 . S
Mg117 O125 2.048 . S
Mg117 O126 2.048 . S
Mg117 O129 2.141 . S
C118 O119 1.313 . S
C118 O125 1.195 . S
O119 C118 1.313 . S
C120 O121 1.245 . S
C120 O129 1.289 . S
O121 C120 1.245 . S
C122 O123 1.245 . S
C122 O124 1.289 . S
O123 C122 1.245 . S
O124 Mg117 2.141 . S
O124 C122 1.289 . S
O125 Mg117 2.048 . S
O125 C118 1.195 . S
O126 Mg117 2.048 . S
O126 C127 1.195 . S
C127 O126 1.195 . S
C127 O128 1.313 . S
O128 C127 1.313 . S
O129 Mg117 2.141 . S
O129 C120 1.289 . S
Mg130 O137 2.141 . S
Mg130 O138 2.048 . S
Mg130 O139 2.048 . S
Mg130 O142 2.141 . S
C131 O132 1.313 . S
C131 O138 1.195 . S
O132 C131 1.313 . S
C133 O134 1.245 . S
C133 O142 1.289 . S
O134 C133 1.245 . S
C135 O136 1.245 . S
C135 O137 1.289 . S
O136 C135 1.245 . S
O137 Mg130 2.141 . S
O137 C135 1.289 . S
O138 Mg130 2.048 . S
O138 C131 1.195 . S
O139 Mg130 2.048 . S
O139 C140 1.195 . S
C140 O139 1.195 . S
C140 O141 1.313 . S
O141 C140 1.313 . S
O142 Mg130 2.141 . S
O142 C133 1.289 . S
Mg143 O150 2.141 . S
Mg143 O151 2.048 . S
Mg143 O152 2.048 . S
Mg143 O155 2.141 . S
C144 O145 1.313 1_655 S
C144 O151 1.195 . S
O145 C144 1.313 1_455 S
C146 O147 1.245 . S
C146 O155 1.289 . S
O147 C146 1.245 . S
C148 O149 1.245 . S
C148 O150 1.289 . S
O149 C148 1.245 . S
O150 Mg143 2.141 . S
O150 C148 1.289 . S
O151 Mg143 2.048 . S
O151 C144 1.195 . S
O152 Mg143 2.048 . S
O152 C153 1.195 . S
C153 O152 1.195 . S
C153 O154 1.313 . S
O154 C153 1.313 . S
O155 Mg143 2.141 . S
O155 C146 1.289 . S
Mg156 O163 2.141 . S
Mg156 O164 2.048 . S
Mg156 O165 2.048 . S
Mg156 O168 2.141 . S
C157 O158 1.313 . S
C157 O164 1.195 . S
O158 C157 1.313 . S
C159 O160 1.245 . S
C159 O168 1.289 . S
O160 C159 1.245 . S
C161 O162 1.245 . S
C161 O163 1.289 . S
O162 C161 1.245 . S
O163 Mg156 2.141 . S
O163 C161 1.289 . S
O164 Mg156 2.048 . S
O164 C157 1.195 . S
O165 Mg156 2.048 . S
O165 C166 1.195 . S
C166 O165 1.195 . S
C166 O167 1.313 . S
O167 C166 1.313 . S
O168 Mg156 2.141 . S
O168 C159 1.289 . S
Mg169 O176 2.141 . S
Mg169 O177 2.048 . S
Mg169 O178 2.048 . S
Mg169 O181 2.141 . S
C170 O171 1.313 . S
C170 O177 1.195 . S
O171 C170 1.313 . S
C172 O173 1.245 . S
C172 O181 1.289 . S
O173 C172 1.245 . S
C174 O175 1.245 . S
C174 O176 1.289 . S
O175 C174 1.245 . S
O176 Mg169 2.141 . S
O176 C174 1.289 . S
O177 Mg169 2.048 . S
O177 C170 1.195 . S
O178 Mg169 2.048 . S
O178 C179 1.195 . S
C179 O178 1.195 . S
C179 O180 1.313 . S
O180 C179 1.313 . S
O181 Mg169 2.141 . S
O181 C172 1.289 . S
Mg182 O189 2.141 . S
Mg182 O190 2.048 . S
Mg182 O191 2.048 . S
Mg182 O194 2.141 . S
C183 O184 1.313 . S
C183 O190 1.195 . S
O184 C183 1.313 . S
C185 O186 1.245 . S
C185 O194 1.289 . S
O186 C185 1.245 . S
C187 O188 1.245 . S
C187 O189 1.289 . S
O188 C187 1.245 . S
O189 Mg182 2.141 . S
O189 C187 1.289 . S
O190 Mg182 2.048 . S
O190 C183 1.195 . S
O191 Mg182 2.048 . S
O191 C192 1.195 . S
C192 O191 1.195 . S
C192 O193 1.313 . S
O193 C192 1.313 . S
O194 Mg182 2.141 . S
O194 C185 1.289 . S
Mg195 O202 2.141 . S
Mg195 O203 2.048 . S
Mg195 O204 2.048 . S
Mg195 O207 2.141 . S
C196 O197 1.313 . S
C196 O203 1.195 . S
O197 C196 1.313 . S
C198 O199 1.245 . S
C198 O207 1.289 . S
O199 C198 1.245 . S
C200 O201 1.245 . S
C200 O202 1.289 . S
O201 C200 1.245 . S
O202 Mg195 2.141 . S
O202 C200 1.289 . S
O203 Mg195 2.048 . S
O203 C196 1.195 . S
O204 Mg195 2.048 . S
O204 C205 1.195 . S
C205 O204 1.195 . S
C205 O206 1.313 . S
O206 C205 1.313 . S
O207 Mg195 2.141 . S
O207 C198 1.289 . S
Mg208 O215 2.141 . S
Mg208 O216 2.048 . S
Mg208 O217 2.048 . S
Mg208 O220 2.141 . S
C209 O210 1.313 . S
C209 O216 1.195 . S
O210 C209 1.313 . S
C211 O212 1.245 . S
C211 O220 1.289 . S
O212 C211 1.245 . S
C213 O214 1.245 . S
C213 O215 1.289 . S
O214 C213 1.245 . S
O215 Mg208 2.141 . S
O215 C213 1.289 . S
O216 Mg208 2.048 . S
O216 C209 1.195 . S
O217 Mg208 2.048 . S
O217 C218 1.195 . S
C218 O217 1.195 . S
C218 O219 1.313 . S
O219 C218 1.313 . S
O220 Mg208 2.141 . S
O220 C211 1.289 . S
Mg221 O228 2.141 . S
Mg221 O229 2.048 . S
Mg221 O230 2.048 . S
Mg221 O233 2.141 . S
C222 O223 1.313 . S
C222 O229 1.195 . S
O223 C222 1.313 . S
C224 O225 1.245 . S
C224 O233 1.289 . S
O225 C224 1.245 . S
C226 O227 1.245 . S
C226 O228 1.289 . S
O227 C226 1.245 . S
O228 Mg221 2.141 . S
O228 C226 1.289 . S
O229 Mg221 2.048 . S
O229 C222 1.195 . S
O230 Mg221 2.048 . S
O230 C231 1.195 . S
C231 O230 1.195 . S
C231 O232 1.313 . S
O232 C231 1.313 . S
O233 Mg221 2.141 . S
O233 C224 1.289 . S
Mg234 O241 2.141 . S
Mg234 O242 2.048 . S
Mg234 O243 2.048 . S
Mg234 O246 2.141 . S
C235 O236 1.313 . S
C235 O242 1.195 . S
O236 C235 1.313 . S
C237 O238 1.245 . S
C237 O246 1.289 . S
O238 C237 1.245 . S
C239 O240 1.245 . S
C239 O241 1.289 . S
O240 C239 1.245 . S
O241 Mg234 2.141 . S
O241 C239 1.289 . S
O242 Mg234 2.048 . S
O242 C235 1.195 . S
O243 Mg234 2.048 . S
O243 C244 1.195 . S
C244 O243 1.195 . S
C244 O245 1.313 . S
O245 C244 1.313 . S
O246 Mg234 2.141 . S
O246 C237 1.289 . S
Mg247 O254 2.141 . S
Mg247 O255 2.048 . S
Mg247 O256 2.048 . S
Mg247 O259 2.141 . S
C248 O249 1.313 . S
C248 O255 1.195 . S
O249 C248 1.313 . S
C250 O251 1.245 . S
C250 O259 1.289 . S
O251 C250 1.245 . S
C252 O253 1.245 . S
C252 O254 1.289 . S
O253 C252 1.245 . S
O254 Mg247 2.141 . S
O254 C252 1.289 . S
O255 Mg247 2.048 . S
O255 C248 1.195 . S
O256 Mg247 2.048 . S
O256 C257 1.195 . S
C257 O256 1.195 . S
C257 O258 1.313 . S
O258 C257 1.313 . S
O259 Mg247 2.141 . S
O259 C250 1.289 . S
Mg260 O267 2.141 . S
Mg260 O268 2.048 . S
Mg260 O269 2.048 . S
Mg260 O272 2.141 . S
C261 O262 1.313 . S
C261 O268 1.195 . S
O262 C261 1.313 . S
C263 O264 1.245 . S
C263 O272 1.289 . S
O264 C263 1.245 . S
C265 O266 1.245 . S
C265 O267 1.289 . S
O266 C265 1.245 . S
O267 Mg260 2.141 . S
O267 C265 1.289 . S
O268 Mg260 2.048 . S
O268 C261 1.195 . S
O269 Mg260 2.048 . S
O269 C270 1.195 . S
C270 O269 1.195 . S
C270 O271 1.313 . S
O271 C270 1.313 . S
O272 Mg260 2.141 . S
O272 C263 1.289 . S
Mg273 O280 2.141 . S
Mg273 O281 2.048 . S
Mg273 O282 2.048 . S
Mg273 O285 2.141 . S
C274 O275 1.313 . S
C274 O281 1.195 . S
O275 C274 1.313 . S
C276 O277 1.245 . S
C276 O285 1.289 . S
O277 C276 1.245 . S
C278 O279 1.245 . S
C278 O280 1.289 . S
O279 C278 1.245 . S
O280 Mg273 2.141 . S
O280 C278 1.289 . S
O281 Mg273 2.048 . S
O281 C274 1.195 . S
O282 Mg273 2.048 . S
O282 C283 1.195 . S
C283 O282 1.195 . S
C283 O284 1.313 . S
O284 C283 1.313 . S
O285 Mg273 2.141 . S
O285 C276 1.289 . S
Mg286 O293 2.141 . S
Mg286 O294 2.048 . S
Mg286 O295 2.048 . S
Mg286 O298 2.141 . S
C287 O288 1.313 . S
C287 O294 1.195 . S
O288 C287 1.313 . S
C289 O290 1.245 . S
C289 O298 1.289 . S
O290 C289 1.245 . S
C291 O292 1.245 . S
C291 O293 1.289 . S
O292 C291 1.245 . S
O293 Mg286 2.141 . S
O293 C291 1.289 . S
O294 Mg286 2.048 . S
O294 C287 1.195 . S
O295 Mg286 2.048 . S
O295 C296 1.195 . S
C296 O295 1.195 . S
C296 O297 1.313 . S
O297 C296 1.313 . S
O298 Mg286 2.141 . S
O298 C289 1.289 . S
Mg299 O306 2.141 . S
Mg299 O307 2.048 . S
Mg299 O308 2.048 . S
Mg299 O311 2.141 . S
C300 O301 1.313 . S
C300 O307 1.195 . S
O301 C300 1.313 . S
C302 O303 1.245 . S
C302 O311 1.289 . S
O303 C302 1.245 . S
C304 O305 1.245 . S
C304 O306 1.289 . S
O305 C304 1.245 . S
O306 Mg299 2.141 . S
O306 C304 1.289 . S
O307 Mg299 2.048 . S
O307 C300 1.195 . S
O308 Mg299 2.048 . S
O308 C309 1.195 . S
C309 O308 1.195 . S
C309 O310 1.313 . S
O310 C309 1.313 . S
O311 Mg299 2.141 . S
O311 C302 1.289 . S
Mg312 O319 2.141 . S
Mg312 O320 2.048 . S
Mg312 O321 2.048 . S
Mg312 O324 2.141 . S
C313 O314 1.313 . S
C313 O320 1.195 . S
O314 C313 1.313 . S
C315 O316 1.245 . S
C315 O324 1.289 . S
O316 C315 1.245 . S
C317 O318 1.245 . S
C317 O319 1.289 . S
O318 C317 1.245 . S
O319 Mg312 2.141 . S
O319 C317 1.289 . S
O320 Mg312 2.048 . S
O320 C313 1.195 . S
O321 Mg312 2.048 . S
O321 C322 1.195 . S
C322 O321 1.195 . S
C322 O323 1.313 . S
O323 C322 1.313 . S
O324 Mg312 2.141 . S
O324 C315 1.289 . S
Mg325 O332 2.141 . S
Mg325 O333 2.048 . S
Mg325 O334 2.048 . S
Mg325 O337 2.141 . S
C326 O327 1.313 . S
C326 O333 1.195 . S
O327 C326 1.313 . S
C328 O329 1.245 . S
C328 O337 1.289 . S
O329 C328 1.245 . S
C330 O331 1.245 . S
C330 O332 1.289 . S
O331 C330 1.245 . S
O332 Mg325 2.141 . S
O332 C330 1.289 . S
O333 Mg325 2.048 . S
O333 C326 1.195 . S
O334 Mg325 2.048 . S
O334 C335 1.195 . S
C335 O334 1.195 . S
C335 O336 1.313 . S
O336 C335 1.313 . S
O337 Mg325 2.141 . S
O337 C328 1.289 . S
Mg338 O345 2.141 . S
Mg338 O346 2.048 . S
Mg338 O347 2.048 . S
Mg338 O350 2.141 . S
C339 O340 1.313 . S
C339 O346 1.195 . S
O340 C339 1.313 . S
C341 O342 1.245 . S
C341 O350 1.289 . S
O342 C341 1.245 . S
C343 O344 1.245 . S
C343 O345 1.289 . S
O344 C343 1.245 . S
O345 Mg338 2.141 . S
O345 C343 1.289 . S
O346 Mg338 2.048 . S
O346 C339 1.195 . S
O347 Mg338 2.048 . S
O347 C348 1.195 . S
C348 O347 1.195 . S
C348 O349 1.313 . S
O349 C348 1.313 . S
O350 Mg338 2.141 . S
O350 C341 1.289 . S
Mg351 O358 2.141 . S
Mg351 O359 2.048 . S
Mg351 O360 2.048 . S
Mg351 O363 2.141 . S
C352 O353 1.313 . S
C352 O359 1.195 . S
O353 C352 1.313 . S
C354 O355 1.245 . S
C354 O363 1.289 . S
O355 C354 1.245 . S
C356 O357 1.245 . S
C356 O358 1.289 . S
O357 C356 1.245 . S
O358 Mg351 2.141 . S
O358 C356 1.289 . S
O359 Mg351 2.048 . S
O359 C352 1.195 . S
O360 Mg351 2.048 . S
O360 C361 1.195 . S
C361 O360 1.195 . S
C361 O362 1.313 . S
O362 C361 1.313 . S
O363 Mg351 2.141 . S
O363 C354 1.289 . S
Mg364 O371 2.141 . S
Mg364 O372 2.048 . S
Mg364 O373 2.048 . S
Mg364 O376 2.141 . S
C365 O366 1.313 . S
C365 O372 1.195 . S
O366 C365 1.313 . S
C367 O368 1.245 . S
C367 O376 1.289 . S
O368 C367 1.245 . S
C369 O370 1.245 . S
C369 O371 1.289 . S
O370 C369 1.245 . S
O371 Mg364 2.141 . S
O371 C369 1.289 . S
O372 Mg364 2.048 . S
O372 C365 1.195 . S
O373 Mg364 2.048 . S
O373 C374 1.195 . S
C374 O373 1.195 . S
C374 O375 1.313 . S
O375 C374 1.313 . S
O376 Mg364 2.141 . S
O376 C367 1.289 . S
Mg377 O384 2.141 . S
Mg377 O385 2.048 . S
Mg377 O386 2.048 . S
Mg377 O389 2.141 . S
C378 O379 1.313 . S
C378 O385 1.195 . S
O379 C378 1.313 . S
C380 O381 1.245 . S
C380 O389 1.289 . S
O381 C380 1.245 . S
C382 O383 1.245 . S
C382 O384 1.289 . S
O383 C382 1.245 . S
O384 Mg377 2.141 . S
O384 C382 1.289 . S
O385 Mg377 2.048 . S
O385 C378 1.195 . S
O386 Mg377 2.048 . S
O386 C387 1.195 . S
C387 O386 1.195 . S
C387 O388 1.313 . S
O388 C387 1.313 . S
O389 Mg377 2.141 . S
O389 C380 1.289 . S
Mg390 O397 2.141 . S
Mg390 O398 2.048 . S
Mg390 O399 2.048 . S
Mg390 O402 2.141 . S
C391 O392 1.313 . S
C391 O398 1.195 . S
O392 C391 1.313 . S
C393 O394 1.245 . S
C393 O402 1.289 . S
O394 C393 1.245 . S
C395 O396 1.245 . S
C395 O397 1.289 . S
O396 C395 1.245 . S
O397 Mg390 2.141 . S
O397 C395 1.289 . S
O398 Mg390 2.048 . S
O398 C391 1.195 . S
O399 Mg390 2.048 . S
O399 C400 1.195 . S
C400 O399 1.195 . S
C400 O401 1.313 . S
O401 C400 1.313 . S
O402 Mg390 2.141 . S
O402 C393 1.289 . S
Mg403 O410 2.141 . S
Mg403 O411 2.048 . S
Mg403 O412 2.048 . S
Mg403 O415 2.141 . S
C404 O405 1.313 . S
C404 O411 1.195 . S
O405 C404 1.313 . S
C406 O407 1.245 . S
C406 O415 1.289 . S
O407 C406 1.245 . S
C408 O409 1.245 . S
C408 O410 1.289 . S
O409 C408 1.245 . S
O410 Mg403 2.141 . S
O410 C408 1.289 . S
O411 Mg403 2.048 . S
O411 C404 1.195 . S
O412 Mg403 2.048 . S
O412 C413 1.195 . S
C413 O412 1.195 . S
C413 O414 1.313 . S
O414 C413 1.313 . S
O415 Mg403 2.141 . S
O415 C406 1.289 . S
Mg416 O423 2.141 . S
Mg416 O424 2.048 . S
Mg416 O425 2.048 . S
Mg416 O428 2.141 . S
C417 O418 1.313 . S
C417 O424 1.195 . S
O418 C417 1.313 . S
C419 O420 1.245 . S
C419 O428 1.289 . S
O420 C419 1.245 . S
C421 O422 1.245 . S
C421 O423 1.289 . S
O422 C421 1.245 . S
O423 Mg416 2.141 . S
O423 C421 1.289 . S
O424 Mg416 2.048 . S
O424 C417 1.195 . S
O425 Mg416 2.048 . S
O425 C426 1.195 . S
C426 O425 1.195 . S
C426 O427 1.313 . S
O427 C426 1.313 . S
O428 Mg416 2.141 . S
O428 C419 1.289 . S
Mg429 O436 2.141 . S
Mg429 O437 2.048 . S
Mg429 O438 2.048 . S
Mg429 O441 2.141 . S
C430 O431 1.313 . S
C430 O437 1.195 . S
O431 C430 1.313 . S
C432 O433 1.245 . S
C432 O441 1.289 . S
O433 C432 1.245 . S
C434 O435 1.245 . S
C434 O436 1.289 . S
O435 C434 1.245 . S
O436 Mg429 2.141 . S
O436 C434 1.289 . S
O437 Mg429 2.048 . S
O437 C430 1.195 . S
O438 Mg429 2.048 . S
O438 C439 1.195 . S
C439 O438 1.195 . S
C439 O440 1.313 . S
O440 C439 1.313 . S
O441 Mg429 2.141 . S
O441 C432 1.289 . S
Mg442 O449 2.141 . S
Mg442 O450 2.048 . S
Mg442 O451 2.048 . S
Mg442 O454 2.141 . S
C443 O444 1.313 . S
C443 O450 1.195 . S
O444 C443 1.313 . S
C445 O446 1.245 . S
C445 O454 1.289 . S
O446 C445 1.245 . S
C447 O448 1.245 . S
C447 O449 1.289 . S
O448 C447 1.245 . S
O449 Mg442 2.141 . S
O449 C447 1.289 . S
O450 Mg442 2.048 . S
O450 C443 1.195 . S
O451 Mg442 2.048 . S
O451 C452 1.195 . S
C452 O451 1.195 . S
C452 O453 1.313 . S
O453 C452 1.313 . S
O454 Mg442 2.141 . S
O454 C445 1.289 . S
Mg455 O462 2.141 . S
Mg455 O463 2.048 . S
Mg455 O464 2.048 . S
Mg455 O467 2.141 . S
C456 O457 1.313 . S
C456 O463 1.195 . S
O457 C456 1.313 . S
C458 O459 1.245 . S
C458 O467 1.289 . S
O459 C458 1.245 . S
C460 O461 1.245 . S
C460 O462 1.289 . S
O461 C460 1.245 . S
O462 Mg455 2.141 . S
O462 C460 1.289 . S
O463 Mg455 2.048 . S
O463 C456 1.195 . S
O464 Mg455 2.048 . S
O464 C465 1.195 . S
C465 O464 1.195 . S
C465 O466 1.313 . S
O466 C465 1.313 . S
O467 Mg455 2.141 . S
O467 C458 1.289 . S
C468 C469 1.363 . S
C468 C474 1.379 . S
C468 N476 1.356 . S
C469 C468 1.363 . S
C469 C475 1.363 . S
C470 C471 1.363 . S
C470 C475 1.379 . S
C470 N477 1.356 . S
C471 C470 1.363 . S
C471 C474 1.363 . S
N472 C474 1.356 . S
N472 H484 0.984 . S
N472 H485 0.985 . S
N473 C475 1.356 . S
N473 H478 0.984 . S
N473 H479 0.985 . S
C474 C468 1.379 . S
C474 C471 1.363 . S
C474 N472 1.356 . S
C475 C469 1.363 . S
C475 C470 1.379 . S
C475 N473 1.356 . S
N476 C468 1.356 . S
N476 H482 0.984 . S
N476 H483 0.984 . S
N477 C470 1.356 . S
N477 H480 0.984 . S
N477 H481 0.985 . S
H478 N473 0.984 . S
H479 N473 0.985 . S
H480 N477 0.984 . S
H481 N477 0.985 . S
H482 N476 0.984 . S
H483 N476 0.984 . S
H484 N472 0.984 . S
H485 N472 0.985 . S
C486 C487 1.363 . S
C486 C492 1.379 . S
C486 N494 1.356 . S
C487 C486 1.363 . S
C487 C493 1.363 . S
C488 C489 1.363 . S
C488 C493 1.379 . S
C488 N495 1.356 . S
C489 C488 1.363 . S
C489 C492 1.363 . S
N490 C492 1.356 . S
N490 H502 0.984 . S
N490 H503 0.985 . S
N491 C493 1.356 . S
N491 H496 0.984 . S
N491 H497 0.985 . S
C492 C486 1.379 . S
C492 C489 1.363 . S
C492 N490 1.356 . S
C493 C487 1.363 . S
C493 C488 1.379 . S
C493 N491 1.356 . S
N494 C486 1.356 . S
N494 H500 0.984 . S
N494 H501 0.984 . S
N495 C488 1.356 . S
N495 H498 0.984 . S
N495 H499 0.985 . S
H496 N491 0.984 . S
H497 N491 0.985 . S
H498 N495 0.984 . S
H499 N495 0.985 . S
H500 N494 0.984 . S
H501 N494 0.984 . S
H502 N490 0.984 . S
H503 N490 0.985 . S
C504 C505 1.363 . S
C504 C510 1.379 . S
C504 N512 1.356 . S
C505 C504 1.363 . S
C505 C511 1.363 . S
C506 C507 1.363 . S
C506 C511 1.379 . S
C506 N513 1.356 . S
C507 C506 1.363 . S
C507 C510 1.363 . S
N508 C510 1.356 . S
N508 H520 0.984 . S
N508 H521 0.985 . S
N509 C511 1.356 . S
N509 H514 0.984 . S
N509 H515 0.985 . S
C510 C504 1.379 . S
C510 C507 1.363 . S
C510 N508 1.356 . S
C511 C505 1.363 . S
C511 C506 1.379 . S
C511 N509 1.356 . S
N512 C504 1.356 . S
N512 H518 0.984 . S
N512 H519 0.984 . S
N513 C506 1.356 . S
N513 H516 0.984 . S
N513 H517 0.985 . S
H514 N509 0.984 . S
H515 N509 0.985 . S
H516 N513 0.984 . S
H517 N513 0.985 . S
H518 N512 0.984 . S
H519 N512 0.984 . S
H520 N508 0.984 . S
H521 N508 0.985 . S
C522 C523 1.363 . S
C522 C528 1.379 . S
C522 N530 1.356 . S
C523 C522 1.363 . S
C523 C529 1.363 . S
C524 C525 1.363 . S
C524 C529 1.379 . S
C524 N531 1.356 . S
C525 C524 1.363 . S
C525 C528 1.363 . S
N526 C528 1.356 . S
N526 H538 0.984 . S
N526 H539 0.985 . S
N527 C529 1.356 . S
N527 H532 0.984 . S
N527 H533 0.985 . S
C528 C522 1.379 . S
C528 C525 1.363 . S
C528 N526 1.356 . S
C529 C523 1.363 . S
C529 C524 1.379 . S
C529 N527 1.356 . S
N530 C522 1.356 . S
N530 H536 0.984 . S
N530 H537 0.984 . S
N531 C524 1.356 . S
N531 H534 0.984 . S
N531 H535 0.985 . S
H532 N527 0.984 . S
H533 N527 0.985 . S
H534 N531 0.984 . S
H535 N531 0.985 . S
H536 N530 0.984 . S
H537 N530 0.984 . S
H538 N526 0.984 . S
H539 N526 0.985 . S
C540 C541 1.363 . S
C540 C546 1.379 . S
C540 N548 1.356 . S
C541 C540 1.363 . S
C541 C547 1.363 . S
C542 C543 1.363 . S
C542 C547 1.379 . S
C542 N549 1.356 . S
C543 C542 1.363 . S
C543 C546 1.363 . S
N544 C546 1.356 . S
N544 H556 0.984 . S
N544 H557 0.985 . S
N545 C547 1.356 . S
N545 H550 0.984 . S
N545 H551 0.985 . S
C546 C540 1.379 . S
C546 C543 1.363 . S
C546 N544 1.356 . S
C547 C541 1.363 . S
C547 C542 1.379 . S
C547 N545 1.356 . S
N548 C540 1.356 . S
N548 H554 0.984 . S
N548 H555 0.984 . S
N549 C542 1.356 . S
N549 H552 0.984 . S
N549 H553 0.985 . S
H550 N545 0.984 . S
H551 N545 0.985 . S
H552 N549 0.984 . S
H553 N549 0.985 . S
H554 N548 0.984 . S
H555 N548 0.984 . S
H556 N544 0.984 . S
H557 N544 0.985 . S
C558 C559 1.363 . S
C558 C564 1.379 . S
C558 N566 1.356 . S
C559 C558 1.363 . S
C559 C565 1.363 . S
C560 C561 1.363 . S
C560 C565 1.379 . S
C560 N567 1.356 . S
C561 C560 1.363 . S
C561 C564 1.363 . S
N562 C564 1.356 . S
N562 H574 0.984 . S
N562 H575 0.985 . S
N563 C565 1.356 . S
N563 H568 0.984 . S
N563 H569 0.985 . S
C564 C558 1.379 . S
C564 C561 1.363 . S
C564 N562 1.356 . S
C565 C559 1.363 . S
C565 C560 1.379 . S
C565 N563 1.356 . S
N566 C558 1.356 . S
N566 H572 0.984 . S
N566 H573 0.984 . S
N567 C560 1.356 . S
N567 H570 0.984 . S
N567 H571 0.985 . S
H568 N563 0.984 . S
H569 N563 0.985 . S
H570 N567 0.984 . S
H571 N567 0.985 . S
H572 N566 0.984 . S
H573 N566 0.984 . S
H574 N562 0.984 . S
H575 N562 0.985 . S
C576 C577 1.363 . S
C576 C582 1.379 . S
C576 N584 1.356 . S
C577 C576 1.363 . S
C577 C583 1.363 . S
C578 C579 1.363 . S
C578 C583 1.379 . S
C578 N585 1.356 . S
C579 C578 1.363 . S
C579 C582 1.363 . S
N580 C582 1.356 . S
N580 H592 0.984 . S
N580 H593 0.985 . S
N581 C583 1.356 . S
N581 H586 0.984 . S
N581 H587 0.985 . S
C582 C576 1.379 . S
C582 C579 1.363 . S
C582 N580 1.356 . S
C583 C577 1.363 . S
C583 C578 1.379 . S
C583 N581 1.356 . S
N584 C576 1.356 . S
N584 H590 0.984 . S
N584 H591 0.984 . S
N585 C578 1.356 . S
N585 H588 0.984 . S
N585 H589 0.985 . S
H586 N581 0.984 . S
H587 N581 0.985 . S
H588 N585 0.984 . S
H589 N585 0.985 . S
H590 N584 0.984 . S
H591 N584 0.984 . S
H592 N580 0.984 . S
H593 N580 0.985 . S
C594 C595 1.363 . S
C594 C600 1.379 . S
C594 N602 1.356 . S
C595 C594 1.363 . S
C595 C601 1.363 . S
C596 C597 1.363 . S
C596 C601 1.379 . S
C596 N603 1.356 . S
C597 C596 1.363 . S
C597 C600 1.363 . S
N598 C600 1.356 . S
N598 H610 0.984 . S
N598 H611 0.985 . S
N599 C601 1.356 . S
N599 H604 0.984 . S
N599 H605 0.985 . S
C600 C594 1.379 . S
C600 C597 1.363 . S
C600 N598 1.356 . S
C601 C595 1.363 . S
C601 C596 1.379 . S
C601 N599 1.356 . S
N602 C594 1.356 . S
N602 H608 0.984 . S
N602 H609 0.984 . S
N603 C596 1.356 . S
N603 H606 0.984 . S
N603 H607 0.985 . S
H604 N599 0.984 . S
H605 N599 0.985 . S
H606 N603 0.984 . S
H607 N603 0.985 . S
H608 N602 0.984 . S
H609 N602 0.984 . S
H610 N598 0.984 . S
H611 N598 0.985 . S
C612 C613 1.363 . S
C612 C618 1.379 . S
C612 N620 1.356 . S
C613 C612 1.363 . S
C613 C619 1.363 . S
C614 C615 1.363 . S
C614 C619 1.379 . S
C614 N621 1.356 . S
C615 C614 1.363 . S
C615 C618 1.363 . S
N616 C618 1.356 . S
N616 H628 0.984 . S
N616 H629 0.985 . S
N617 C619 1.356 . S
N617 H622 0.984 . S
N617 H623 0.985 . S
C618 C612 1.379 . S
C618 C615 1.363 . S
C618 N616 1.356 . S
C619 C613 1.363 . S
C619 C614 1.379 . S
C619 N617 1.356 . S
N620 C612 1.356 . S
N620 H626 0.984 . S
N620 H627 0.984 . S
N621 C614 1.356 . S
N621 H624 0.984 . S
N621 H625 0.985 . S
H622 N617 0.984 . S
H623 N617 0.985 . S
H624 N621 0.984 . S
H625 N621 0.985 . S
H626 N620 0.984 . S
H627 N620 0.984 . S
H628 N616 0.984 . S
H629 N616 0.985 . S
C630 C631 1.363 . S
C630 C636 1.379 . S
C630 N638 1.356 . S
C631 C630 1.363 . S
C631 C637 1.363 . S
C632 C633 1.363 . S
C632 C637 1.379 . S
C632 N639 1.356 . S
C633 C632 1.363 . S
C633 C636 1.363 . S
N634 C636 1.356 . S
N634 H646 0.984 . S
N634 H647 0.985 . S
N635 C637 1.356 . S
N635 H640 0.984 . S
N635 H641 0.985 . S
C636 C630 1.379 . S
C636 C633 1.363 . S
C636 N634 1.356 . S
C637 C631 1.363 . S
C637 C632 1.379 . S
C637 N635 1.356 . S
N638 C630 1.356 . S
N638 H644 0.984 . S
N638 H645 0.984 . S
N639 C632 1.356 . S
N639 H642 0.984 . S
N639 H643 0.985 . S
H640 N635 0.984 . S
H641 N635 0.985 . S
H642 N639 0.984 . S
H643 N639 0.985 . S
H644 N638 0.984 . S
H645 N638 0.984 . S
H646 N634 0.984 . S
H647 N634 0.985 . S
C648 C649 1.363 . S
C648 C654 1.379 . S
C648 N656 1.356 . S
C649 C648 1.363 . S
C649 C655 1.363 . S
C650 C651 1.363 . S
C650 C655 1.379 . S
C650 N657 1.356 . S
C651 C650 1.363 . S
C651 C654 1.363 . S
N652 C654 1.356 . S
N652 H664 0.984 . S
N652 H665 0.985 . S
N653 C655 1.356 . S
N653 H658 0.984 . S
N653 H659 0.985 . S
C654 C648 1.379 . S
C654 C651 1.363 . S
C654 N652 1.356 . S
C655 C649 1.363 . S
C655 C650 1.379 . S
C655 N653 1.356 . S
N656 C648 1.356 . S
N656 H662 0.984 . S
N656 H663 0.984 . S
N657 C650 1.356 . S
N657 H660 0.984 . S
N657 H661 0.985 . S
H658 N653 0.984 . S
H659 N653 0.985 . S
H660 N657 0.984 . S
H661 N657 0.985 . S
H662 N656 0.984 . S
H663 N656 0.984 . S
H664 N652 0.984 . S
H665 N652 0.985 . S
C666 C667 1.363 . S
C666 C672 1.379 . S
C666 N674 1.356 . S
C667 C666 1.363 . S
C667 C673 1.363 . S
C668 C669 1.363 . S
C668 C673 1.379 . S
C668 N675 1.356 . S
C669 C668 1.363 . S
C669 C672 1.363 . S
N670 C672 1.356 . S
N670 H682 0.984 . S
N670 H683 0.985 . S
N671 C673 1.356 . S
N671 H676 0.984 . S
N671 H677 0.985 . S
C672 C666 1.379 . S
C672 C669 1.363 . S
C672 N670 1.356 . S
C673 C667 1.363 . S
C673 C668 1.379 . S
C673 N671 1.356 . S
N674 C666 1.356 . S
N674 H680 0.984 . S
N674 H681 0.984 . S
N675 C668 1.356 . S
N675 H678 0.984 . S
N675 H679 0.985 . S
H676 N671 0.984 . S
H677 N671 0.985 . S
H678 N675 0.984 . S
H679 N675 0.985 . S
H680 N674 0.984 . S
H681 N674 0.984 . S
H682 N670 0.984 . S
H683 N670 0.985 . S
C684 C685 1.363 . S
C684 C690 1.379 . S
C684 N692 1.356 . S
C685 C684 1.363 . S
C685 C691 1.363 1_655 S
C686 C687 1.363 . S
C686 C691 1.379 . S
C686 N693 1.356 . S
C687 C686 1.363 . S
C687 C690 1.363 1_455 S
N688 C690 1.356 . S
N688 H700 0.984 . S
N688 H701 0.985 . S
N689 C691 1.356 . S
N689 H694 0.984 . S
N689 H695 0.985 . S
C690 C684 1.379 . S
C690 C687 1.363 1_655 S
C690 N688 1.356 . S
C691 C685 1.363 1_455 S
C691 C686 1.379 . S
C691 N689 1.356 . S
N692 C684 1.356 . S
N692 H698 0.984 . S
N692 H699 0.984 . S
N693 C686 1.356 . S
N693 H696 0.984 . S
N693 H697 0.985 . S
H694 N689 0.984 . S
H695 N689 0.985 . S
H696 N693 0.984 . S
H697 N693 0.985 . S
H698 N692 0.984 . S
H699 N692 0.984 . S
H700 N688 0.984 . S
H701 N688 0.985 . S
C702 C703 1.363 . S
C702 C708 1.379 . S
C702 N710 1.356 . S
C703 C702 1.363 . S
C703 C709 1.363 . S
C704 C705 1.363 . S
C704 C709 1.379 . S
C704 N711 1.356 . S
C705 C704 1.363 . S
C705 C708 1.363 . S
N706 C708 1.356 . S
N706 H718 0.984 . S
N706 H719 0.985 . S
N707 C709 1.356 . S
N707 H712 0.984 . S
N707 H713 0.985 . S
C708 C702 1.379 . S
C708 C705 1.363 . S
C708 N706 1.356 . S
C709 C703 1.363 . S
C709 C704 1.379 . S
C709 N707 1.356 . S
N710 C702 1.356 . S
N710 H716 0.984 . S
N710 H717 0.984 . S
N711 C704 1.356 . S
N711 H714 0.984 . S
N711 H715 0.985 . S
H712 N707 0.984 . S
H713 N707 0.985 . S
H714 N711 0.984 . S
H715 N711 0.985 . S
H716 N710 0.984 . S
H717 N710 0.984 . S
H718 N706 0.984 . S
H719 N706 0.985 . S
C720 C721 1.363 1_565 S
C720 C726 1.379 . S
C720 N728 1.356 . S
C721 C720 1.363 1_545 S
C721 C727 1.363 . S
C722 C723 1.363 1_545 S
C722 C727 1.379 . S
C722 N729 1.356 . S
C723 C722 1.363 1_565 S
C723 C726 1.363 . S
N724 C726 1.356 . S
N724 H736 0.984 . S
N724 H737 0.985 . S
N725 C727 1.356 . S
N725 H730 0.984 . S
N725 H731 0.985 . S
C726 C720 1.379 . S
C726 C723 1.363 . S
C726 N724 1.356 . S
C727 C721 1.363 . S
C727 C722 1.379 . S
C727 N725 1.356 . S
N728 C720 1.356 . S
N728 H734 0.984 . S
N728 H735 0.984 1_565 S
N729 C722 1.356 . S
N729 H732 0.984 1_545 S
N729 H733 0.985 . S
H730 N725 0.984 . S
H731 N725 0.985 . S
H732 N729 0.984 1_565 S
H733 N729 0.985 . S
H734 N728 0.984 . S
H735 N728 0.984 1_545 S
H736 N724 0.984 . S
H737 N724 0.985 . S
C738 C739 1.363 . S
C738 C744 1.379 1_556 S
C738 N746 1.356 . S
C739 C738 1.363 . S
C739 C745 1.363 1_545 S
C740 C741 1.363 . S
C740 C745 1.379 1_554 S
C740 N747 1.356 . S
C741 C740 1.363 . S
C741 C744 1.363 1_565 S
N742 C744 1.356 . S
N742 H754 0.984 . S
N742 H755 0.985 . S
N743 C745 1.356 . S
N743 H748 0.984 . S
N743 H749 0.985 . S
C744 C738 1.379 1_554 S
C744 C741 1.363 1_545 S
C744 N742 1.356 . S
C745 C739 1.363 1_565 S
C745 C740 1.379 1_556 S
C745 N743 1.356 . S
N746 C738 1.356 . S
N746 H752 0.984 . S
N746 H753 0.984 . S
N747 C740 1.356 . S
N747 H750 0.984 . S
N747 H751 0.985 . S
H748 N743 0.984 . S
H749 N743 0.985 . S
H750 N747 0.984 . S
H751 N747 0.985 . S
H752 N746 0.984 . S
H753 N746 0.984 . S
H754 N742 0.984 . S
H755 N742 0.985 . S
C756 C757 1.363 1_554 S
C756 C762 1.379 . S
C756 N764 1.356 1_554 S
C757 C756 1.363 1_556 S
C757 C763 1.363 1_655 S
C758 C759 1.363 1_556 S
C758 C763 1.379 . S
C758 N765 1.356 1_556 S
C759 C758 1.363 1_554 S
C759 C762 1.363 1_455 S
N760 C762 1.356 . S
N760 H772 0.984 . S
N760 H773 0.985 1_655 S
N761 C763 1.356 . S
N761 H766 0.984 1_455 S
N761 H767 0.985 . S
C762 C756 1.379 . S
C762 C759 1.363 1_655 S
C762 N760 1.356 . S
C763 C757 1.363 1_455 S
C763 C758 1.379 . S
C763 N761 1.356 . S
N764 C756 1.356 1_556 S
N764 H770 0.984 1_556 S
N764 H771 0.984 . S
N765 C758 1.356 1_554 S
N765 H768 0.984 . S
N765 H769 0.985 1_554 S
H766 N761 0.984 1_655 S
H767 N761 0.985 . S
H768 N765 0.984 . S
H769 N765 0.985 1_556 S
H770 N764 0.984 1_554 S
H771 N764 0.984 . S
H772 N760 0.984 . S
H773 N760 0.985 1_455 S
C774 C775 1.363 . S
C774 C780 1.379 1_556 S
C774 N782 1.356 . S
C775 C774 1.363 . S
C775 C781 1.363 . S
C776 C777 1.363 . S
C776 C781 1.379 1_554 S
C776 N783 1.356 . S
C777 C776 1.363 . S
C777 C780 1.363 . S
N778 C780 1.356 . S
N778 H790 0.984 . S
N778 H791 0.985 . S
N779 C781 1.356 . S
N779 H784 0.984 . S
N779 H785 0.985 . S
C780 C774 1.379 1_554 S
C780 C777 1.363 . S
C780 N778 1.356 . S
C781 C775 1.363 . S
C781 C776 1.379 1_556 S
C781 N779 1.356 . S
N782 C774 1.356 . S
N782 H788 0.984 1_556 S
N782 H789 0.984 . S
N783 C776 1.356 . S
N783 H786 0.984 . S
N783 H787 0.985 1_554 S
H784 N779 0.984 . S
H785 N779 0.985 . S
H786 N783 0.984 . S
H787 N783 0.985 1_556 S
H788 N782 0.984 1_554 S
H789 N782 0.984 . S
H790 N778 0.984 . S
H791 N778 0.985 . S
C792 C793 1.363 1_554 S
C792 C798 1.379 . S
C792 N800 1.356 1_545 S
C793 C792 1.363 1_556 S
C793 C799 1.363 . S
C794 C795 1.363 . S
C794 C799 1.379 1_554 S
C794 N801 1.356 . S
C795 C794 1.363 . S
C795 C798 1.363 . S
N796 C798 1.356 . S
N796 H808 0.984 . S
N796 H809 0.985 . S
N797 C799 1.356 . S
N797 H802 0.984 . S
N797 H803 0.985 . S
C798 C792 1.379 . S
C798 C795 1.363 . S
C798 N796 1.356 . S
C799 C793 1.363 . S
C799 C794 1.379 1_556 S
C799 N797 1.356 . S
N800 C792 1.356 1_565 S
N800 H806 0.984 . S
N800 H807 0.984 1_554 S
N801 C794 1.356 . S
N801 H804 0.984 . S
N801 H805 0.985 1_554 S
H802 N797 0.984 . S
H803 N797 0.985 . S
H804 N801 0.984 . S
H805 N801 0.985 1_556 S
H806 N800 0.984 . S
H807 N800 0.984 1_556 S
H808 N796 0.984 . S
H809 N796 0.985 . S
C810 C811 1.363 1_554 S
C810 C816 1.379 . S
C810 N818 1.356 1_655 S
C811 C810 1.363 1_556 S
C811 C817 1.363 . S
C812 C813 1.363 1_556 S
C812 C817 1.379 . S
C812 N819 1.356 . S
C813 C812 1.363 1_554 S
C813 C816 1.363 . S
N814 C816 1.356 . S
N814 H826 0.984 . S
N814 H827 0.985 . S
N815 C817 1.356 . S
N815 H820 0.984 . S
N815 H821 0.985 . S
C816 C810 1.379 . S
C816 C813 1.363 . S
C816 N814 1.356 . S
C817 C811 1.363 . S
C817 C812 1.379 . S
C817 N815 1.356 . S
N818 C810 1.356 1_455 S
N818 H824 0.984 . S
N818 H825 0.984 . S
N819 C812 1.356 . S
N819 H822 0.984 1_556 S
N819 H823 0.985 . S
H820 N815 0.984 . S
H821 N815 0.985 . S
H822 N819 0.984 1_554 S
H823 N819 0.985 . S
H824 N818 0.984 . S
H825 N818 0.984 . S
H826 N814 0.984 . S
H827 N814 0.985 . S
C828 C829 1.363 . S
C828 C834 1.379 . S
C828 N836 1.356 . S
C829 C828 1.363 . S
C829 C835 1.363 . S
C830 C831 1.363 . S
C830 C835 1.379 1_556 S
C830 N837 1.356 . S
C831 C830 1.363 . S
C831 C834 1.363 1_556 S
N832 C834 1.356 . S
N832 H844 0.984 . S
N832 H845 0.985 1_554 S
N833 C835 1.356 . S
N833 H838 0.984 . S
N833 H839 0.985 1_554 S
C834 C828 1.379 . S
C834 C831 1.363 1_554 S
C834 N832 1.356 . S
C835 C829 1.363 . S
C835 C830 1.379 1_554 S
C835 N833 1.356 . S
N836 C828 1.356 . S
N836 H842 0.984 . S
N836 H843 0.984 . S
N837 C830 1.356 . S
N837 H840 0.984 . S
N837 H841 0.985 . S
H838 N833 0.984 . S
H839 N833 0.985 1_556 S
H840 N837 0.984 . S
H841 N837 0.985 . S
H842 N836 0.984 . S
H843 N836 0.984 . S
H844 N832 0.984 . S
H845 N832 0.985 1_556 S
C846 C847 1.363 . S
C846 C852 1.379 . S
C846 N854 1.356 . S
C847 C846 1.363 . S
C847 C853 1.363 . S
C848 C849 1.363 . S
C848 C853 1.379 . S
C848 N855 1.356 . S
C849 C848 1.363 . S
C849 C852 1.363 . S
N850 C852 1.356 . S
N850 H862 0.984 . S
N850 H863 0.985 . S
N851 C853 1.356 . S
N851 H856 0.984 . S
N851 H857 0.985 . S
C852 C846 1.379 . S
C852 C849 1.363 . S
C852 N850 1.356 . S
C853 C847 1.363 . S
C853 C848 1.379 . S
C853 N851 1.356 . S
N854 C846 1.356 . S
N854 H860 0.984 . S
N854 H861 0.984 1_455 S
N855 C848 1.356 . S
N855 H858 0.984 . S
N855 H859 0.985 . S
H856 N851 0.984 . S
H857 N851 0.985 . S
H858 N855 0.984 . S
H859 N855 0.985 . S
H860 N854 0.984 . S
H861 N854 0.984 1_655 S
H862 N850 0.984 . S
H863 N850 0.985 . S
C864 C865 1.363 . S
C864 C870 1.379 . S
C864 N872 1.356 . S
C865 C864 1.363 . S
C865 C871 1.363 . S
C866 C867 1.363 . S
C866 C871 1.379 . S
C866 N873 1.356 . S
C867 C866 1.363 . S
C867 C870 1.363 . S
N868 C870 1.356 . S
N868 H880 0.984 . S
N868 H881 0.985 . S
N869 C871 1.356 . S
N869 H874 0.984 . S
N869 H875 0.985 . S
C870 C864 1.379 . S
C870 C867 1.363 . S
C870 N868 1.356 . S
C871 C865 1.363 . S
C871 C866 1.379 . S
C871 N869 1.356 . S
N872 C864 1.356 . S
N872 H878 0.984 . S
N872 H879 0.984 . S
N873 C866 1.356 . S
N873 H876 0.984 . S
N873 H877 0.985 . S
H874 N869 0.984 . S
H875 N869 0.985 . S
H876 N873 0.984 . S
H877 N873 0.985 . S
H878 N872 0.984 . S
H879 N872 0.984 . S
H880 N868 0.984 . S
H881 N868 0.985 . S
C882 C883 1.363 . S
C882 C888 1.379 . S
C882 N890 1.356 1_565 S
C883 C882 1.363 . S
C883 C889 1.363 . S
C884 C885 1.363 . S
C884 C889 1.379 . S
C884 N891 1.356 . S
C885 C884 1.363 . S
C885 C888 1.363 . S
N886 C888 1.356 . S
N886 H898 0.984 . S
N886 H899 0.985 . S
N887 C889 1.356 . S
N887 H892 0.984 . S
N887 H893 0.985 . S
C888 C882 1.379 . S
C888 C885 1.363 . S
C888 N886 1.356 . S
C889 C883 1.363 . S
C889 C884 1.379 . S
C889 N887 1.356 . S
N890 C882 1.356 1_545 S
N890 H896 0.984 . S
N890 H897 0.984 . S
N891 C884 1.356 . S
N891 H894 0.984 . S
N891 H895 0.985 . S
H892 N887 0.984 . S
H893 N887 0.985 . S
H894 N891 0.984 . S
H895 N891 0.985 . S
H896 N890 0.984 . S
H897 N890 0.984 . S
H898 N886 0.984 . S
H899 N886 0.985 . S
C900 C901 1.349 1_554 S
C900 C906 1.387 . S
C900 N908 1.358 . S
C901 C900 1.349 1_556 S
C901 C907 1.363 . S
C902 C903 1.363 1_556 S
C902 C907 1.379 . S
C902 N909 1.356 1_565 S
C903 C902 1.363 1_554 S
C903 C906 1.363 . S
N904 C906 1.356 . S
N904 H916 0.984 . S
N904 H917 0.985 . S
N905 C907 1.356 . S
N905 H910 0.984 . S
N905 H911 0.985 . S
C906 C900 1.387 . S
C906 C903 1.363 . S
C906 N904 1.356 . S
C907 C901 1.363 . S
C907 C902 1.379 . S
C907 N905 1.356 . S
N908 C900 1.358 . S
N908 H914 0.984 . S
N908 H915 0.984 1_554 S
N909 C902 1.356 1_545 S
N909 H912 0.984 . S
N909 H913 0.985 . S
H910 N905 0.984 . S
H911 N905 0.985 . S
H912 N909 0.984 . S
H913 N909 0.985 . S
H914 N908 0.984 . S
H915 N908 0.984 1_556 S
H916 N904 0.984 . S
H917 N904 0.985 . S
C918 C919 1.363 1_554 S
C918 C924 1.379 . S
C918 N926 1.356 . S
C919 C918 1.363 1_556 S
C919 C925 1.363 . S
C920 C921 1.363 1_556 S
C920 C925 1.379 . S
C920 N927 1.356 1_455 S
C921 C920 1.363 1_554 S
C921 C924 1.363 . S
N922 C924 1.356 . S
N922 H934 0.984 . S
N922 H935 0.985 . S
N923 C925 1.356 . S
N923 H928 0.984 . S
N923 H929 0.985 . S
C924 C918 1.379 . S
C924 C921 1.363 . S
C924 N922 1.356 . S
C925 C919 1.363 . S
C925 C920 1.379 . S
C925 N923 1.356 . S
N926 C918 1.356 . S
N926 H932 0.984 . S
N926 H933 0.984 1_554 S
N927 C920 1.356 1_655 S
N927 H930 0.984 . S
N927 H931 0.985 . S
H928 N923 0.984 . S
H929 N923 0.985 . S
H930 N927 0.984 . S
H931 N927 0.985 . S
H932 N926 0.984 . S
H933 N926 0.984 1_556 S
H934 N922 0.984 . S
H935 N922 0.985 . S
C936 C937 1.363 . S
C936 C942 1.379 . S
C936 N944 1.356 . S
C937 C936 1.363 . S
C937 C943 1.363 . S
C938 C939 1.363 . S
C938 C943 1.379 1_554 S
C938 N945 1.356 . S
C939 C938 1.363 . S
C939 C942 1.363 1_554 S
N940 C942 1.356 . S
N940 H952 0.984 . S
N940 H953 0.985 1_556 S
N941 C943 1.356 . S
N941 H946 0.984 . S
N941 H947 0.985 1_556 S
C942 C936 1.379 . S
C942 C939 1.363 1_556 S
C942 N940 1.356 . S
C943 C937 1.363 . S
C943 C938 1.379 1_556 S
C943 N941 1.356 . S
N944 C936 1.356 . S
N944 H950 0.984 . S
N944 H951 0.984 . S
N945 C938 1.356 . S
N945 H948 0.984 . S
N945 H949 0.985 . S
H946 N941 0.984 . S
H947 N941 0.985 1_554 S
H948 N945 0.984 . S
H949 N945 0.985 . S
H950 N944 0.984 . S
H951 N944 0.984 . S
H952 N940 0.984 . S
H953 N940 0.985 1_554 S
C954 C955 1.363 . S
C954 C960 1.379 . S
C954 N962 1.356 . S
C955 C954 1.363 . S
C955 C961 1.363 . S
C956 C957 1.363 . S
C956 C961 1.379 . S
C956 N963 1.356 . S
C957 C956 1.363 . S
C957 C960 1.363 . S
N958 C960 1.356 . S
N958 H970 0.984 . S
N958 H971 0.985 1_655 S
N959 C961 1.356 . S
N959 H964 0.984 . S
N959 H965 0.985 . S
C960 C954 1.379 . S
C960 C957 1.363 . S
C960 N958 1.356 . S
C961 C955 1.363 . S
C961 C956 1.379 . S
C961 N959 1.356 . S
N962 C954 1.356 . S
N962 H968 0.984 . S
N962 H969 0.984 . S
N963 C956 1.356 . S
N963 H966 0.984 . S
N963 H967 0.985 . S
H964 N959 0.984 . S
H965 N959 0.985 . S
H966 N963 0.984 . S
H967 N963 0.985 . S
H968 N962 0.984 . S
H969 N962 0.984 . S
H970 N958 0.984 . S
H971 N958 0.985 1_455 S
C972 C973 1.363 . S
C972 C978 1.379 . S
C972 N980 1.356 . S
C973 C972 1.363 . S
C973 C979 1.363 . S
C974 C975 1.363 . S
C974 C979 1.379 . S
C974 N981 1.356 . S
C975 C974 1.363 . S
C975 C978 1.363 . S
N976 C978 1.356 . S
N976 H988 0.984 . S
N976 H989 0.985 . S
N977 C979 1.356 . S
N977 H982 0.984 . S
N977 H983 0.985 . S
C978 C972 1.379 . S
C978 C975 1.363 . S
C978 N976 1.356 . S
C979 C973 1.363 . S
C979 C974 1.379 . S
C979 N977 1.356 . S
N980 C972 1.356 . S
N980 H986 0.984 . S
N980 H987 0.984 . S
N981 C974 1.356 . S
N981 H984 0.984 . S
N981 H985 0.985 . S
H982 N977 0.984 . S
H983 N977 0.985 . S
H984 N981 0.984 . S
H985 N981 0.985 . S
H986 N980 0.984 . S
H987 N980 0.984 . S
H988 N976 0.984 . S
H989 N976 0.985 . S
C990 C991 1.363 . S
C990 C996 1.379 . S
C990 N998 1.356 1_545 S
C991 C990 1.363 . S
C991 C997 1.363 . S
C992 C993 1.363 . S
C992 C997 1.379 . S
C992 N999 1.356 . S
C993 C992 1.363 . S
C993 C996 1.363 . S
N994 C996 1.356 . S
N994 H1006 0.984 . S
N994 H1007 0.985 . S
N995 C997 1.356 . S
N995 H1000 0.984 . S
N995 H1001 0.985 . S
C996 C990 1.379 . S
C996 C993 1.363 . S
C996 N994 1.356 . S
C997 C991 1.363 . S
C997 C992 1.379 . S
C997 N995 1.356 . S
N998 C990 1.356 1_565 S
N998 H1004 0.984 . S
N998 H1005 0.984 . S
N999 C992 1.356 . S
N999 H1002 0.984 . S
N999 H1003 0.985 . S
H1000 N995 0.984 . S
H1001 N995 0.985 . S
H1002 N999 0.984 . S
H1003 N999 0.985 . S
H1004 N998 0.984 . S
H1005 N998 0.984 . S
H1006 N994 0.984 . S
H1007 N994 0.985 . S
C1008 C1009 1.363 . S
C1008 C1014 1.379 . S
C1008 N1016 1.356 . S
C1009 C1008 1.363 . S
C1009 C1015 1.363 . S
C1010 C1011 1.363 . S
C1010 C1015 1.379 . S
C1010 N1017 1.356 . S
C1011 C1010 1.363 . S
C1011 C1014 1.363 . S
N1012 C1014 1.356 . S
N1012 H1024 0.984 . S
N1012 H1025 0.985 . S
N1013 C1015 1.356 . S
N1013 H1018 0.984 . S
N1013 H1019 0.985 . S
C1014 C1008 1.379 . S
C1014 C1011 1.363 . S
C1014 N1012 1.356 . S
C1015 C1009 1.363 . S
C1015 C1010 1.379 . S
C1015 N1013 1.356 . S
N1016 C1008 1.356 . S
N1016 H1022 0.984 . S
N1016 H1023 0.984 . S
N1017 C1010 1.356 . S
N1017 H1020 0.984 . S
N1017 H1021 0.985 . S
H1018 N1013 0.984 . S
H1019 N1013 0.985 . S
H1020 N1017 0.984 . S
H1021 N1017 0.985 . S
H1022 N1016 0.984 . S
H1023 N1016 0.984 . S
H1024 N1012 0.984 . S
H1025 N1012 0.985 . S
C1026 C1027 1.363 . S
C1026 C1032 1.379 . S
C1026 N1034 1.356 . S
C1027 C1026 1.363 . S
C1027 C1033 1.363 . S
C1028 C1029 1.363 . S
C1028 C1033 1.379 . S
C1028 N1035 1.356 . S
C1029 C1028 1.363 . S
C1029 C1032 1.363 . S
N1030 C1032 1.356 . S
N1030 H1042 0.984 . S
N1030 H1043 0.985 . S
N1031 C1033 1.356 . S
N1031 H1036 0.984 . S
N1031 H1037 0.985 . S
C1032 C1026 1.379 . S
C1032 C1029 1.363 . S
C1032 N1030 1.356 . S
C1033 C1027 1.363 . S
C1033 C1028 1.379 . S
C1033 N1031 1.356 . S
N1034 C1026 1.356 . S
N1034 H1040 0.984 . S
N1034 H1041 0.984 . S
N1035 C1028 1.356 . S
N1035 H1038 0.984 . S
N1035 H1039 0.985 . S
H1036 N1031 0.984 . S
H1037 N1031 0.985 . S
H1038 N1035 0.984 . S
H1039 N1035 0.985 . S
H1040 N1034 0.984 . S
H1041 N1034 0.984 . S
H1042 N1030 0.984 . S
H1043 N1030 0.985 . S
C1044 C1045 1.363 . S
C1044 C1050 1.379 . S
C1044 N1052 1.356 . S
C1045 C1044 1.363 . S
C1045 C1051 1.363 . S
C1046 C1047 1.363 . S
C1046 C1051 1.379 . S
C1046 N1053 1.356 . S
C1047 C1046 1.363 . S
C1047 C1050 1.363 . S
N1048 C1050 1.356 . S
N1048 H1060 0.984 . S
N1048 H1061 0.985 . S
N1049 C1051 1.356 . S
N1049 H1054 0.984 . S
N1049 H1055 0.985 . S
C1050 C1044 1.379 . S
C1050 C1047 1.363 . S
C1050 N1048 1.356 . S
C1051 C1045 1.363 . S
C1051 C1046 1.379 . S
C1051 N1049 1.356 . S
N1052 C1044 1.356 . S
N1052 H1058 0.984 . S
N1052 H1059 0.984 . S
N1053 C1046 1.356 . S
N1053 H1056 0.984 . S
N1053 H1057 0.985 . S
H1054 N1049 0.984 . S
H1055 N1049 0.985 . S
H1056 N1053 0.984 . S
H1057 N1053 0.985 . S
H1058 N1052 0.984 . S
H1059 N1052 0.984 . S
H1060 N1048 0.984 . S
H1061 N1048 0.985 . S
C1062 C1063 1.363 . S
C1062 C1068 1.379 . S
C1062 N1070 1.356 . S
C1063 C1062 1.363 . S
C1063 C1069 1.363 . S
C1064 C1065 1.363 . S
C1064 C1069 1.379 . S
C1064 N1071 1.356 . S
C1065 C1064 1.363 . S
C1065 C1068 1.363 . S
N1066 C1068 1.356 . S
N1066 H1078 0.984 . S
N1066 H1079 0.985 . S
N1067 C1069 1.356 . S
N1067 H1072 0.984 . S
N1067 H1073 0.985 . S
C1068 C1062 1.379 . S
C1068 C1065 1.363 . S
C1068 N1066 1.356 . S
C1069 C1063 1.363 . S
C1069 C1064 1.379 . S
C1069 N1067 1.356 . S
N1070 C1062 1.356 . S
N1070 H1076 0.984 . S
N1070 H1077 0.984 . S
N1071 C1064 1.356 . S
N1071 H1074 0.984 . S
N1071 H1075 0.985 . S
H1072 N1067 0.984 . S
H1073 N1067 0.985 . S
H1074 N1071 0.984 . S
H1075 N1071 0.985 . S
H1076 N1070 0.984 . S
H1077 N1070 0.984 . S
H1078 N1066 0.984 . S
H1079 N1066 0.985 . S
C1080 C1081 1.363 . S
C1080 C1086 1.379 . S
C1080 N1088 1.356 . S
C1081 C1080 1.363 . S
C1081 C1087 1.363 . S
C1082 C1083 1.363 . S
C1082 C1087 1.379 . S
C1082 N1089 1.356 . S
C1083 C1082 1.363 . S
C1083 C1086 1.363 . S
N1084 C1086 1.356 . S
N1084 H1096 0.984 . S
N1084 H1097 0.985 . S
N1085 C1087 1.356 . S
N1085 H1090 0.984 . S
N1085 H1091 0.985 . S
C1086 C1080 1.379 . S
C1086 C1083 1.363 . S
C1086 N1084 1.356 . S
C1087 C1081 1.363 . S
C1087 C1082 1.379 . S
C1087 N1085 1.356 . S
N1088 C1080 1.356 . S
N1088 H1094 0.984 . S
N1088 H1095 0.984 . S
N1089 C1082 1.356 . S
N1089 H1092 0.984 . S
N1089 H1093 0.985 . S
H1090 N1085 0.984 . S
H1091 N1085 0.985 . S
H1092 N1089 0.984 . S
H1093 N1089 0.985 . S
H1094 N1088 0.984 . S
H1095 N1088 0.984 . S
H1096 N1084 0.984 . S
H1097 N1084 0.985 . S
C1098 C1099 1.363 . S
C1098 C1104 1.379 . S
C1098 N1106 1.356 . S
C1099 C1098 1.363 . S
C1099 C1105 1.363 . S
C1100 C1101 1.363 . S
C1100 C1105 1.379 . S
C1100 N1107 1.356 . S
C1101 C1100 1.363 . S
C1101 C1104 1.363 . S
N1102 C1104 1.356 . S
N1102 H1114 0.984 . S
N1102 H1115 0.985 . S
N1103 C1105 1.356 . S
N1103 H1108 0.984 . S
N1103 H1109 0.985 . S
C1104 C1098 1.379 . S
C1104 C1101 1.363 . S
C1104 N1102 1.356 . S
C1105 C1099 1.363 . S
C1105 C1100 1.379 . S
C1105 N1103 1.356 . S
N1106 C1098 1.356 . S
N1106 H1112 0.984 . S
N1106 H1113 0.984 . S
N1107 C1100 1.356 . S
N1107 H1110 0.984 . S
N1107 H1111 0.985 . S
H1108 N1103 0.984 . S
H1109 N1103 0.985 . S
H1110 N1107 0.984 . S
H1111 N1107 0.985 . S
H1112 N1106 0.984 . S
H1113 N1106 0.984 . S
H1114 N1102 0.984 . S
H1115 N1102 0.985 . S
C1116 C1117 1.363 . S
C1116 C1122 1.379 . S
C1116 N1124 1.356 . S
C1117 C1116 1.363 . S
C1117 C1123 1.363 . S
C1118 C1119 1.363 . S
C1118 C1123 1.379 . S
C1118 N1125 1.356 . S
C1119 C1118 1.363 . S
C1119 C1122 1.363 . S
N1120 C1122 1.356 . S
N1120 H1132 0.984 . S
N1120 H1133 0.985 . S
N1121 C1123 1.356 . S
N1121 H1126 0.984 . S
N1121 H1127 0.985 . S
C1122 C1116 1.379 . S
C1122 C1119 1.363 . S
C1122 N1120 1.356 . S
C1123 C1117 1.363 . S
C1123 C1118 1.379 . S
C1123 N1121 1.356 . S
N1124 C1116 1.356 . S
N1124 H1130 0.984 . S
N1124 H1131 0.984 . S
N1125 C1118 1.356 . S
N1125 H1128 0.984 . S
N1125 H1129 0.985 . S
H1126 N1121 0.984 . S
H1127 N1121 0.985 . S
H1128 N1125 0.984 . S
H1129 N1125 0.985 . S
H1130 N1124 0.984 . S
H1131 N1124 0.984 . S
H1132 N1120 0.984 . S
H1133 N1120 0.985 . S
C1134 C1135 1.363 . S
C1134 C1140 1.379 . S
C1134 N1142 1.356 . S
C1135 C1134 1.363 . S
C1135 C1141 1.363 . S
C1136 C1137 1.363 . S
C1136 C1141 1.379 . S
C1136 N1143 1.356 . S
C1137 C1136 1.363 . S
C1137 C1140 1.363 . S
N1138 C1140 1.356 . S
N1138 H1150 0.984 . S
N1138 H1151 0.985 . S
N1139 C1141 1.356 . S
N1139 H1144 0.984 . S
N1139 H1145 0.985 . S
C1140 C1134 1.379 . S
C1140 C1137 1.363 . S
C1140 N1138 1.356 . S
C1141 C1135 1.363 . S
C1141 C1136 1.379 . S
C1141 N1139 1.356 . S
N1142 C1134 1.356 . S
N1142 H1148 0.984 . S
N1142 H1149 0.984 . S
N1143 C1136 1.356 . S
N1143 H1146 0.984 . S
N1143 H1147 0.985 . S
H1144 N1139 0.984 . S
H1145 N1139 0.985 . S
H1146 N1143 0.984 . S
H1147 N1143 0.985 . S
H1148 N1142 0.984 . S
H1149 N1142 0.984 . S
H1150 N1138 0.984 . S
H1151 N1138 0.985 . S
C1152 C1153 1.363 . S
C1152 C1158 1.379 . S
C1152 N1160 1.356 . S
C1153 C1152 1.363 . S
C1153 C1159 1.363 . S
C1154 C1155 1.363 . S
C1154 C1159 1.379 . S
C1154 N1161 1.356 . S
C1155 C1154 1.363 . S
C1155 C1158 1.363 . S
N1156 C1158 1.356 . S
N1156 H1168 0.984 . S
N1156 H1169 0.985 . S
N1157 C1159 1.356 . S
N1157 H1162 0.984 . S
N1157 H1163 0.985 . S
C1158 C1152 1.379 . S
C1158 C1155 1.363 . S
C1158 N1156 1.356 . S
C1159 C1153 1.363 . S
C1159 C1154 1.379 . S
C1159 N1157 1.356 . S
N1160 C1152 1.356 . S
N1160 H1166 0.984 . S
N1160 H1167 0.984 . S
N1161 C1154 1.356 . S
N1161 H1164 0.984 . S
N1161 H1165 0.985 . S
H1162 N1157 0.984 . S
H1163 N1157 0.985 . S
H1164 N1161 0.984 . S
H1165 N1161 0.985 . S
H1166 N1160 0.984 . S
H1167 N1160 0.984 . S
H1168 N1156 0.984 . S
H1169 N1156 0.985 . S
C1170 C1171 1.363 . S
C1170 C1176 1.379 . S
C1170 N1178 1.356 . S
C1171 C1170 1.363 . S
C1171 C1177 1.363 . S
C1172 C1173 1.363 . S
C1172 C1177 1.379 . S
C1172 N1179 1.356 . S
C1173 C1172 1.363 . S
C1173 C1176 1.363 . S
N1174 C1176 1.356 . S
N1174 H1186 0.984 . S
N1174 H1187 0.985 . S
N1175 C1177 1.356 . S
N1175 H1180 0.984 . S
N1175 H1181 0.985 . S
C1176 C1170 1.379 . S
C1176 C1173 1.363 . S
C1176 N1174 1.356 . S
C1177 C1171 1.363 . S
C1177 C1172 1.379 . S
C1177 N1175 1.356 . S
N1178 C1170 1.356 . S
N1178 H1184 0.984 . S
N1178 H1185 0.984 . S
N1179 C1172 1.356 . S
N1179 H1182 0.984 . S
N1179 H1183 0.985 . S
H1180 N1175 0.984 . S
H1181 N1175 0.985 . S
H1182 N1179 0.984 . S
H1183 N1179 0.985 . S
H1184 N1178 0.984 . S
H1185 N1178 0.984 . S
H1186 N1174 0.984 . S
H1187 N1174 0.985 . S
C1188 C1189 1.363 . S
C1188 C1194 1.379 . S
C1188 N1196 1.356 . S
C1189 C1188 1.363 . S
C1189 C1195 1.363 . S
C1190 C1191 1.363 . S
C1190 C1195 1.379 . S
C1190 N1197 1.356 . S
C1191 C1190 1.363 . S
C1191 C1194 1.363 . S
N1192 C1194 1.356 . S
N1192 H1204 0.984 . S
N1192 H1205 0.985 . S
N1193 C1195 1.356 . S
N1193 H1198 0.984 . S
N1193 H1199 0.985 . S
C1194 C1188 1.379 . S
C1194 C1191 1.363 . S
C1194 N1192 1.356 . S
C1195 C1189 1.363 . S
C1195 C1190 1.379 . S
C1195 N1193 1.356 . S
N1196 C1188 1.356 . S
N1196 H1202 0.984 . S
N1196 H1203 0.984 . S
N1197 C1190 1.356 . S
N1197 H1200 0.984 . S
N1197 H1201 0.985 . S
H1198 N1193 0.984 . S
H1199 N1193 0.985 . S
H1200 N1197 0.984 . S
H1201 N1197 0.985 . S
H1202 N1196 0.984 . S
H1203 N1196 0.984 . S
H1204 N1192 0.984 . S
H1205 N1192 0.985 . S
C1206 C1207 1.363 . S
C1206 C1212 1.379 . S
C1206 N1214 1.356 . S
C1207 C1206 1.363 . S
C1207 C1213 1.363 . S
C1208 C1209 1.363 . S
C1208 C1213 1.379 . S
C1208 N1215 1.356 . S
C1209 C1208 1.363 . S
C1209 C1212 1.363 . S
N1210 C1212 1.356 . S
N1210 H1222 0.984 . S
N1210 H1223 0.985 . S
N1211 C1213 1.356 . S
N1211 H1216 0.984 . S
N1211 H1217 0.985 . S
C1212 C1206 1.379 . S
C1212 C1209 1.363 . S
C1212 N1210 1.356 . S
C1213 C1207 1.363 . S
C1213 C1208 1.379 . S
C1213 N1211 1.356 . S
N1214 C1206 1.356 . S
N1214 H1220 0.984 . S
N1214 H1221 0.984 . S
N1215 C1208 1.356 . S
N1215 H1218 0.984 . S
N1215 H1219 0.985 . S
H1216 N1211 0.984 . S
H1217 N1211 0.985 . S
H1218 N1215 0.984 . S
H1219 N1215 0.985 . S
H1220 N1214 0.984 . S
H1221 N1214 0.984 . S
H1222 N1210 0.984 . S
H1223 N1210 0.985 . S
C1224 C1225 1.363 . S
C1224 C1230 1.379 . S
C1224 N1232 1.356 . S
C1225 C1224 1.363 . S
C1225 C1231 1.363 . S
C1226 C1227 1.363 . S
C1226 C1231 1.379 . S
C1226 N1233 1.356 . S
C1227 C1226 1.363 . S
C1227 C1230 1.363 . S
N1228 C1230 1.356 . S
N1228 H1240 0.984 . S
N1228 H1241 0.985 . S
N1229 C1231 1.356 . S
N1229 H1234 0.984 . S
N1229 H1235 0.985 . S
C1230 C1224 1.379 . S
C1230 C1227 1.363 . S
C1230 N1228 1.356 . S
C1231 C1225 1.363 . S
C1231 C1226 1.379 . S
C1231 N1229 1.356 . S
N1232 C1224 1.356 . S
N1232 H1238 0.984 . S
N1232 H1239 0.984 . S
N1233 C1226 1.356 . S
N1233 H1236 0.984 . S
N1233 H1237 0.985 . S
H1234 N1229 0.984 . S
H1235 N1229 0.985 . S
H1236 N1233 0.984 . S
H1237 N1233 0.985 . S
H1238 N1232 0.984 . S
H1239 N1232 0.984 . S
H1240 N1228 0.984 . S
H1241 N1228 0.985 . S
C1242 C1243 1.363 . S
C1242 C1248 1.379 . S
C1242 N1250 1.356 . S
C1243 C1242 1.363 . S
C1243 C1249 1.363 . S
C1244 C1245 1.363 . S
C1244 C1249 1.379 . S
C1244 N1251 1.356 . S
C1245 C1244 1.363 . S
C1245 C1248 1.363 . S
N1246 C1248 1.356 . S
N1246 H1258 0.984 . S
N1246 H1259 0.985 . S
N1247 C1249 1.356 . S
N1247 H1252 0.984 . S
N1247 H1253 0.985 . S
C1248 C1242 1.379 . S
C1248 C1245 1.363 . S
C1248 N1246 1.356 . S
C1249 C1243 1.363 . S
C1249 C1244 1.379 . S
C1249 N1247 1.356 . S
N1250 C1242 1.356 . S
N1250 H1256 0.984 . S
N1250 H1257 0.984 . S
N1251 C1244 1.356 . S
N1251 H1254 0.984 . S
N1251 H1255 0.985 . S
H1252 N1247 0.984 . S
H1253 N1247 0.985 . S
H1254 N1251 0.984 . S
H1255 N1251 0.985 . S
H1256 N1250 0.984 . S
H1257 N1250 0.984 . S
H1258 N1246 0.984 . S
H1259 N1246 0.985 . S
C1260 C1261 1.363 . S
C1260 C1266 1.379 . S
C1260 N1268 1.356 . S
C1261 C1260 1.363 . S
C1261 C1267 1.363 . S
C1262 C1263 1.363 . S
C1262 C1267 1.379 . S
C1262 N1269 1.356 . S
C1263 C1262 1.363 . S
C1263 C1266 1.363 . S
N1264 C1266 1.356 . S
N1264 H1276 0.984 . S
N1264 H1277 0.985 . S
N1265 C1267 1.356 . S
N1265 H1270 0.984 . S
N1265 H1271 0.985 . S
C1266 C1260 1.379 . S
C1266 C1263 1.363 . S
C1266 N1264 1.356 . S
C1267 C1261 1.363 . S
C1267 C1262 1.379 . S
C1267 N1265 1.356 . S
N1268 C1260 1.356 . S
N1268 H1274 0.984 . S
N1268 H1275 0.984 . S
N1269 C1262 1.356 . S
N1269 H1272 0.984 . S
N1269 H1273 0.985 . S
H1270 N1265 0.984 . S
H1271 N1265 0.985 . S
H1272 N1269 0.984 . S
H1273 N1269 0.985 . S
H1274 N1268 0.984 . S
H1275 N1268 0.984 . S
H1276 N1264 0.984 . S
H1277 N1264 0.985 . S
C1278 C1279 1.363 . S
C1278 C1284 1.379 . S
C1278 N1286 1.356 . S
C1279 C1278 1.363 . S
C1279 C1285 1.363 . S
C1280 C1281 1.363 . S
C1280 C1285 1.379 . S
C1280 N1287 1.356 . S
C1281 C1280 1.363 . S
C1281 C1284 1.363 . S
N1282 C1284 1.356 . S
N1282 H1294 0.984 . S
N1282 H1295 0.985 . S
N1283 C1285 1.356 . S
N1283 H1288 0.984 . S
N1283 H1289 0.985 . S
C1284 C1278 1.379 . S
C1284 C1281 1.363 . S
C1284 N1282 1.356 . S
C1285 C1279 1.363 . S
C1285 C1280 1.379 . S
C1285 N1283 1.356 . S
N1286 C1278 1.356 . S
N1286 H1292 0.984 . S
N1286 H1293 0.984 . S
N1287 C1280 1.356 . S
N1287 H1290 0.984 . S
N1287 H1291 0.985 . S
H1288 N1283 0.984 . S
H1289 N1283 0.985 . S
H1290 N1287 0.984 . S
H1291 N1287 0.985 . S
H1292 N1286 0.984 . S
H1293 N1286 0.984 . S
H1294 N1282 0.984 . S
H1295 N1282 0.985 . S
C1296 C1297 1.363 . S
C1296 C1302 1.379 . S
C1296 N1304 1.356 . S
C1297 C1296 1.363 . S
C1297 C1303 1.363 . S
C1298 C1299 1.363 . S
C1298 C1303 1.379 . S
C1298 N1305 1.356 . S
C1299 C1298 1.363 . S
C1299 C1302 1.363 . S
N1300 C1302 1.356 . S
N1300 H1312 0.984 . S
N1300 H1313 0.985 . S
N1301 C1303 1.356 . S
N1301 H1306 0.984 . S
N1301 H1307 0.985 . S
C1302 C1296 1.379 . S
C1302 C1299 1.363 . S
C1302 N1300 1.356 . S
C1303 C1297 1.363 . S
C1303 C1298 1.379 . S
C1303 N1301 1.356 . S
N1304 C1296 1.356 . S
N1304 H1310 0.984 . S
N1304 H1311 0.984 . S
N1305 C1298 1.356 . S
N1305 H1308 0.984 . S
N1305 H1309 0.985 . S
H1306 N1301 0.984 . S
H1307 N1301 0.985 . S
H1308 N1305 0.984 . S
H1309 N1305 0.985 . S
H1310 N1304 0.984 . S
H1311 N1304 0.984 . S
H1312 N1300 0.984 . S
H1313 N1300 0.985 . S
C1314 C1315 1.363 . S
C1314 C1320 1.379 . S
C1314 N1322 1.356 . S
C1315 C1314 1.363 . S
C1315 C1321 1.363 . S
C1316 C1317 1.363 . S
C1316 C1321 1.379 . S
C1316 N1323 1.356 . S
C1317 C1316 1.363 . S
C1317 C1320 1.363 . S
N1318 C1320 1.356 . S
N1318 H1330 0.984 . S
N1318 H1331 0.985 . S
N1319 C1321 1.356 . S
N1319 H1324 0.984 . S
N1319 H1325 0.985 . S
C1320 C1314 1.379 . S
C1320 C1317 1.363 . S
C1320 N1318 1.356 . S
C1321 C1315 1.363 . S
C1321 C1316 1.379 . S
C1321 N1319 1.356 . S
N1322 C1314 1.356 . S
N1322 H1328 0.984 . S
N1322 H1329 0.984 . S
N1323 C1316 1.356 . S
N1323 H1326 0.984 . S
N1323 H1327 0.985 . S
H1324 N1319 0.984 . S
H1325 N1319 0.985 . S
H1326 N1323 0.984 . S
H1327 N1323 0.985 . S
H1328 N1322 0.984 . S
H1329 N1322 0.984 . S
H1330 N1318 0.984 . S
H1331 N1318 0.985 . S
C1332 C1333 1.363 . S
C1332 C1338 1.379 . S
C1332 N1340 1.356 . S
C1333 C1332 1.363 . S
C1333 C1339 1.363 . S
C1334 C1335 1.363 . S
C1334 C1339 1.379 . S
C1334 N1341 1.356 . S
C1335 C1334 1.363 . S
C1335 C1338 1.363 . S
N1336 C1338 1.356 . S
N1336 H1348 0.984 . S
N1336 H1349 0.985 . S
N1337 C1339 1.356 . S
N1337 H1342 0.984 . S
N1337 H1343 0.985 . S
C1338 C1332 1.379 . S
C1338 C1335 1.363 . S
C1338 N1336 1.356 . S
C1339 C1333 1.363 . S
C1339 C1334 1.379 . S
C1339 N1337 1.356 . S
N1340 C1332 1.356 . S
N1340 H1346 0.984 . S
N1340 H1347 0.984 . S
N1341 C1334 1.356 . S
N1341 H1344 0.984 . S
N1341 H1345 0.985 . S
H1342 N1337 0.984 . S
H1343 N1337 0.985 . S
H1344 N1341 0.984 . S
H1345 N1341 0.985 . S
H1346 N1340 0.984 . S
H1347 N1340 0.984 . S
H1348 N1336 0.984 . S
H1349 N1336 0.985 . S
C1350 C1351 1.363 . S
C1350 C1356 1.379 . S
C1350 N1358 1.356 . S
C1351 C1350 1.363 . S
C1351 C1357 1.363 . S
C1352 C1353 1.363 . S
C1352 C1357 1.379 . S
C1352 N1359 1.356 . S
C1353 C1352 1.363 . S
C1353 C1356 1.363 . S
N1354 C1356 1.356 . S
N1354 H1366 0.984 . S
N1354 H1367 0.985 . S
N1355 C1357 1.356 . S
N1355 H1360 0.984 . S
N1355 H1361 0.985 . S
C1356 C1350 1.379 . S
C1356 C1353 1.363 . S
C1356 N1354 1.356 . S
C1357 C1351 1.363 . S
C1357 C1352 1.379 . S
C1357 N1355 1.356 . S
N1358 C1350 1.356 . S
N1358 H1364 0.984 . S
N1358 H1365 0.984 . S
N1359 C1352 1.356 . S
N1359 H1362 0.984 . S
N1359 H1363 0.985 . S
H1360 N1355 0.984 . S
H1361 N1355 0.985 . S
H1362 N1359 0.984 . S
H1363 N1359 0.985 . S
H1364 N1358 0.984 . S
H1365 N1358 0.984 . S
H1366 N1354 0.984 . S
H1367 N1354 0.985 . S
C1368 C1369 1.363 . S
C1368 C1374 1.379 . S
C1368 N1376 1.356 . S
C1369 C1368 1.363 . S
C1369 C1375 1.363 . S
C1370 C1371 1.363 . S
C1370 C1375 1.379 . S
C1370 N1377 1.356 . S
C1371 C1370 1.363 . S
C1371 C1374 1.363 . S
N1372 C1374 1.356 . S
N1372 H1384 0.984 . S
N1372 H1385 0.985 . S
N1373 C1375 1.356 . S
N1373 H1378 0.984 . S
N1373 H1379 0.985 . S
C1374 C1368 1.379 . S
C1374 C1371 1.363 . S
C1374 N1372 1.356 . S
C1375 C1369 1.363 . S
C1375 C1370 1.379 . S
C1375 N1373 1.356 . S
N1376 C1368 1.356 . S
N1376 H1382 0.984 . S
N1376 H1383 0.984 . S
N1377 C1370 1.356 . S
N1377 H1380 0.984 . S
N1377 H1381 0.985 . S
H1378 N1373 0.984 . S
H1379 N1373 0.985 . S
H1380 N1377 0.984 . S
H1381 N1377 0.985 . S
H1382 N1376 0.984 . S
H1383 N1376 0.984 . S
H1384 N1372 0.984 . S
H1385 N1372 0.985 . S
C1386 C1387 1.363 . S
C1386 C1392 1.379 . S
C1386 N1394 1.356 . S
C1387 C1386 1.363 . S
C1387 C1393 1.363 . S
C1388 C1389 1.363 . S
C1388 C1393 1.379 . S
C1388 N1395 1.356 . S
C1389 C1388 1.363 . S
C1389 C1392 1.363 . S
N1390 C1392 1.356 . S
N1390 H1402 0.984 . S
N1390 H1403 0.985 . S
N1391 C1393 1.356 . S
N1391 H1396 0.984 . S
N1391 H1397 0.985 . S
C1392 C1386 1.379 . S
C1392 C1389 1.363 . S
C1392 N1390 1.356 . S
C1393 C1387 1.363 . S
C1393 C1388 1.379 . S
C1393 N1391 1.356 . S
N1394 C1386 1.356 . S
N1394 H1400 0.984 . S
N1394 H1401 0.984 . S
N1395 C1388 1.356 . S
N1395 H1398 0.984 . S
N1395 H1399 0.985 . S
H1396 N1391 0.984 . S
H1397 N1391 0.985 . S
H1398 N1395 0.984 . S
H1399 N1395 0.985 . S
H1400 N1394 0.984 . S
H1401 N1394 0.984 . S
H1402 N1390 0.984 . S
H1403 N1390 0.985 . S
C1404 C1405 1.363 . S
C1404 C1410 1.379 . S
C1404 N1412 1.356 . S
C1405 C1404 1.363 . S
C1405 C1411 1.363 . S
C1406 C1407 1.363 . S
C1406 C1411 1.379 . S
C1406 N1413 1.356 . S
C1407 C1406 1.363 . S
C1407 C1410 1.363 . S
N1408 C1410 1.356 . S
N1408 H1420 0.984 . S
N1408 H1421 0.985 . S
N1409 C1411 1.356 . S
N1409 H1414 0.984 . S
N1409 H1415 0.985 . S
C1410 C1404 1.379 . S
C1410 C1407 1.363 . S
C1410 N1408 1.356 . S
C1411 C1405 1.363 . S
C1411 C1406 1.379 . S
C1411 N1409 1.356 . S
N1412 C1404 1.356 . S
N1412 H1418 0.984 . S
N1412 H1419 0.984 . S
N1413 C1406 1.356 . S
N1413 H1416 0.984 . S
N1413 H1417 0.985 . S
H1414 N1409 0.984 . S
H1415 N1409 0.985 . S
H1416 N1413 0.984 . S
H1417 N1413 0.985 . S
H1418 N1412 0.984 . S
H1419 N1412 0.984 . S
H1420 N1408 0.984 . S
H1421 N1408 0.985 . S
C1422 C1423 1.363 . S
C1422 C1428 1.379 . S
C1422 N1430 1.356 . S
C1423 C1422 1.363 . S
C1423 C1429 1.363 . S
C1424 C1425 1.363 . S
C1424 C1429 1.379 . S
C1424 N1431 1.356 . S
C1425 C1424 1.363 . S
C1425 C1428 1.363 . S
N1426 C1428 1.356 . S
N1426 H1438 0.984 . S
N1426 H1439 0.985 . S
N1427 C1429 1.356 . S
N1427 H1432 0.984 . S
N1427 H1433 0.985 . S
C1428 C1422 1.379 . S
C1428 C1425 1.363 . S
C1428 N1426 1.356 . S
C1429 C1423 1.363 . S
C1429 C1424 1.379 . S
C1429 N1427 1.356 . S
N1430 C1422 1.356 . S
N1430 H1436 0.984 . S
N1430 H1437 0.984 . S
N1431 C1424 1.356 . S
N1431 H1434 0.984 . S
N1431 H1435 0.985 . S
H1432 N1427 0.984 . S
H1433 N1427 0.985 . S
H1434 N1431 0.984 . S
H1435 N1431 0.985 . S
H1436 N1430 0.984 . S
H1437 N1430 0.984 . S
H1438 N1426 0.984 . S
H1439 N1426 0.985 . S
C1440 C1441 1.363 . S
C1440 C1446 1.379 . S
C1440 N1448 1.356 . S
C1441 C1440 1.363 . S
C1441 C1447 1.363 . S
C1442 C1443 1.363 . S
C1442 C1447 1.379 . S
C1442 N1449 1.356 . S
C1443 C1442 1.363 . S
C1443 C1446 1.363 . S
N1444 C1446 1.356 . S
N1444 H1456 0.984 . S
N1444 H1457 0.985 . S
N1445 C1447 1.356 . S
N1445 H1450 0.984 . S
N1445 H1451 0.985 . S
C1446 C1440 1.379 . S
C1446 C1443 1.363 . S
C1446 N1444 1.356 . S
C1447 C1441 1.363 . S
C1447 C1442 1.379 . S
C1447 N1445 1.356 . S
N1448 C1440 1.356 . S
N1448 H1454 0.984 . S
N1448 H1455 0.984 . S
N1449 C1442 1.356 . S
N1449 H1452 0.984 . S
N1449 H1453 0.985 . S
H1450 N1445 0.984 . S
H1451 N1445 0.985 . S
H1452 N1449 0.984 . S
H1453 N1449 0.985 . S
H1454 N1448 0.984 . S
H1455 N1448 0.984 . S
H1456 N1444 0.984 . S
H1457 N1444 0.985 . S
C1458 C1459 1.363 . S
C1458 C1464 1.379 . S
C1458 N1466 1.356 . S
C1459 C1458 1.363 . S
C1459 C1465 1.363 . S
C1460 C1461 1.363 . S
C1460 C1465 1.379 . S
C1460 N1467 1.356 . S
C1461 C1460 1.363 . S
C1461 C1464 1.363 . S
N1462 C1464 1.356 1_545 S
N1462 H1474 0.984 . S
N1462 H1475 0.985 . S
N1463 C1465 1.356 . S
N1463 H1468 0.984 . S
N1463 H1469 0.985 . S
C1464 C1458 1.379 . S
C1464 C1461 1.363 . S
C1464 N1462 1.356 1_565 S
C1465 C1459 1.363 . S
C1465 C1460 1.379 . S
C1465 N1463 1.356 . S
N1466 C1458 1.356 . S
N1466 H1472 0.984 . S
N1466 H1473 0.984 . S
N1467 C1460 1.356 . S
N1467 H1470 0.984 1_565 S
N1467 H1471 0.985 . S
H1468 N1463 0.984 . S
H1469 N1463 0.985 . S
H1470 N1467 0.984 1_545 S
H1471 N1467 0.985 . S
H1472 N1466 0.984 . S
H1473 N1466 0.984 . S
H1474 N1462 0.984 . S
H1475 N1462 0.985 . S
C1476 C1477 1.363 . S
C1476 C1482 1.379 . S
C1476 N1484 1.356 . S
C1477 C1476 1.363 . S
C1477 C1483 1.363 1_455 S
C1478 C1479 1.363 . S
C1478 C1483 1.379 1_455 S
C1478 N1485 1.356 . S
C1479 C1478 1.363 . S
C1479 C1482 1.363 . S
N1480 C1482 1.356 . S
N1480 H1492 0.984 . S
N1480 H1493 0.985 . S
N1481 C1483 1.356 . S
N1481 H1486 0.984 . S
N1481 H1487 0.985 . S
C1482 C1476 1.379 . S
C1482 C1479 1.363 . S
C1482 N1480 1.356 . S
C1483 C1477 1.363 1_655 S
C1483 C1478 1.379 1_655 S
C1483 N1481 1.356 . S
N1484 C1476 1.356 . S
N1484 H1490 0.984 . S
N1484 H1491 0.984 . S
N1485 C1478 1.356 . S
N1485 H1488 0.984 . S
N1485 H1489 0.985 1_455 S
H1486 N1481 0.984 . S
H1487 N1481 0.985 . S
H1488 N1485 0.984 . S
H1489 N1485 0.985 1_655 S
H1490 N1484 0.984 . S
H1491 N1484 0.984 . S
H1492 N1480 0.984 . S
H1493 N1480 0.985 . S
C1494 C1495 1.363 . S
C1494 C1500 1.379 . S
C1494 N1502 1.356 . S
C1495 C1494 1.363 . S
C1495 C1501 1.363 . S
C1496 C1497 1.363 . S
C1496 C1501 1.379 . S
C1496 N1503 1.356 . S
C1497 C1496 1.363 . S
C1497 C1500 1.363 . S
N1498 C1500 1.356 . S
N1498 H1510 0.984 . S
N1498 H1511 0.985 . S
N1499 C1501 1.356 . S
N1499 H1504 0.984 . S
N1499 H1505 0.985 . S
C1500 C1494 1.379 . S
C1500 C1497 1.363 . S
C1500 N1498 1.356 . S
C1501 C1495 1.363 . S
C1501 C1496 1.379 . S
C1501 N1499 1.356 . S
N1502 C1494 1.356 . S
N1502 H1508 0.984 . S
N1502 H1509 0.984 . S
N1503 C1496 1.356 . S
N1503 H1506 0.984 . S
N1503 H1507 0.985 . S
H1504 N1499 0.984 . S
H1505 N1499 0.985 . S
H1506 N1503 0.984 . S
H1507 N1503 0.985 . S
H1508 N1502 0.984 . S
H1509 N1502 0.984 . S
H1510 N1498 0.984 . S
H1511 N1498 0.985 . S
C1512 C1513 1.363 . S
C1512 C1518 1.379 . S
C1512 N1520 1.356 . S
C1513 C1512 1.363 . S
C1513 C1519 1.363 . S
C1514 C1515 1.363 . S
C1514 C1519 1.379 . S
C1514 N1521 1.356 1_545 S
C1515 C1514 1.363 . S
C1515 C1518 1.363 . S
N1516 C1518 1.356 . S
N1516 H1528 0.984 . S
N1516 H1529 0.985 1_545 S
N1517 C1519 1.356 . S
N1517 H1522 0.984 . S
N1517 H1523 0.985 . S
C1518 C1512 1.379 . S
C1518 C1515 1.363 . S
C1518 N1516 1.356 . S
C1519 C1513 1.363 . S
C1519 C1514 1.379 . S
C1519 N1517 1.356 . S
N1520 C1512 1.356 . S
N1520 H1526 0.984 . S
N1520 H1527 0.984 . S
N1521 C1514 1.356 1_565 S
N1521 H1524 0.984 . S
N1521 H1525 0.985 . S
H1522 N1517 0.984 . S
H1523 N1517 0.985 . S
H1524 N1521 0.984 . S
H1525 N1521 0.985 . S
H1526 N1520 0.984 . S
H1527 N1520 0.984 . S
H1528 N1516 0.984 . S
H1529 N1516 0.985 1_565 S
C1530 C1531 1.363 1_455 S
C1530 C1536 1.379 1_455 S
C1530 N1538 1.356 . S
C1531 C1530 1.363 1_655 S
C1531 C1537 1.363 . S
C1532 C1533 1.363 . S
C1532 C1537 1.379 . S
C1532 N1539 1.356 . S
C1533 C1532 1.363 . S
C1533 C1536 1.363 . S
N1534 C1536 1.356 . S
N1534 H1546 0.984 1_655 S
N1534 H1547 0.985 . S
N1535 C1537 1.356 . S
N1535 H1540 0.984 . S
N1535 H1541 0.985 . S
C1536 C1530 1.379 1_655 S
C1536 C1533 1.363 . S
C1536 N1534 1.356 . S
C1537 C1531 1.363 . S
C1537 C1532 1.379 . S
C1537 N1535 1.356 . S
N1538 C1530 1.356 . S
N1538 H1544 0.984 . S
N1538 H1545 0.984 . S
N1539 C1532 1.356 . S
N1539 H1542 0.984 . S
N1539 H1543 0.985 . S
H1540 N1535 0.984 . S
H1541 N1535 0.985 . S
H1542 N1539 0.984 . S
H1543 N1539 0.985 . S
H1544 N1538 0.984 . S
H1545 N1538 0.984 . S
H1546 N1534 0.984 1_455 S
H1547 N1534 0.985 . S
C1548 C1549 1.363 . S
C1548 C1554 1.379 . S
C1548 N1556 1.356 . S
C1549 C1548 1.363 . S
C1549 C1555 1.363 . S
C1550 C1551 1.363 . S
C1550 C1555 1.379 . S
C1550 N1557 1.356 . S
C1551 C1550 1.363 . S
C1551 C1554 1.363 . S
N1552 C1554 1.356 . S
N1552 H1564 0.984 . S
N1552 H1565 0.985 . S
N1553 C1555 1.356 . S
N1553 H1558 0.984 . S
N1553 H1559 0.985 . S
C1554 C1548 1.379 . S
C1554 C1551 1.363 . S
C1554 N1552 1.356 . S
C1555 C1549 1.363 . S
C1555 C1550 1.379 . S
C1555 N1553 1.356 . S
N1556 C1548 1.356 . S
N1556 H1562 0.984 . S
N1556 H1563 0.984 . S
N1557 C1550 1.356 . S
N1557 H1560 0.984 . S
N1557 H1561 0.985 . S
H1558 N1553 0.984 . S
H1559 N1553 0.985 . S
H1560 N1557 0.984 . S
H1561 N1557 0.985 . S
H1562 N1556 0.984 . S
H1563 N1556 0.984 . S
H1564 N1552 0.984 . S
H1565 N1552 0.985 . S
C1566 C1567 1.363 1_565 S
C1566 C1572 1.379 1_565 S
C1566 N1574 1.356 . S
C1567 C1566 1.363 1_545 S
C1567 C1573 1.363 . S
C1568 C1569 1.363 . S
C1568 C1573 1.379 . S
C1568 N1575 1.356 . S
C1569 C1568 1.363 . S
C1569 C1572 1.363 . S
N1570 C1572 1.356 . S
N1570 H1582 0.984 . S
N1570 H1583 0.985 . S
N1571 C1573 1.356 . S
N1571 H1576 0.984 . S
N1571 H1577 0.985 . S
C1572 C1566 1.379 1_545 S
C1572 C1569 1.363 . S
C1572 N1570 1.356 . S
C1573 C1567 1.363 . S
C1573 C1568 1.379 . S
C1573 N1571 1.356 . S
N1574 C1566 1.356 . S
N1574 H1580 0.984 . S
N1574 H1581 0.984 . S
N1575 C1568 1.356 . S
N1575 H1578 0.984 . S
N1575 H1579 0.985 . S
H1576 N1571 0.984 . S
H1577 N1571 0.985 . S
H1578 N1575 0.984 . S
H1579 N1575 0.985 . S
H1580 N1574 0.984 . S
H1581 N1574 0.984 . S
H1582 N1570 0.984 . S
H1583 N1570 0.985 . S
C1584 C1585 1.363 . S
C1584 C1590 1.379 . S
C1584 N1592 1.356 1_655 S
C1585 C1584 1.363 . S
C1585 C1591 1.363 . S
C1586 C1587 1.363 . S
C1586 C1591 1.379 . S
C1586 N1593 1.356 . S
C1587 C1586 1.363 . S
C1587 C1590 1.363 . S
N1588 C1590 1.356 . S
N1588 H1600 0.984 . S
N1588 H1601 0.985 . S
N1589 C1591 1.356 . S
N1589 H1594 0.984 . S
N1589 H1595 0.985 . S
C1590 C1584 1.379 . S
C1590 C1587 1.363 . S
C1590 N1588 1.356 . S
C1591 C1585 1.363 . S
C1591 C1586 1.379 . S
C1591 N1589 1.356 . S
N1592 C1584 1.356 1_455 S
N1592 H1598 0.984 . S
N1592 H1599 0.984 . S
N1593 C1586 1.356 . S
N1593 H1596 0.984 . S
N1593 H1597 0.985 . S
H1594 N1589 0.984 . S
H1595 N1589 0.985 . S
H1596 N1593 0.984 . S
H1597 N1593 0.985 . S
H1598 N1592 0.984 . S
H1599 N1592 0.984 . S
H1600 N1588 0.984 . S
H1601 N1588 0.985 . S
C1602 C1603 1.363 . S
C1602 C1608 1.379 . S
C1602 N1610 1.356 . S
C1603 C1602 1.363 . S
C1603 C1609 1.363 . S
C1604 C1605 1.363 . S
C1604 C1609 1.379 . S
C1604 N1611 1.356 . S
C1605 C1604 1.363 . S
C1605 C1608 1.363 . S
N1606 C1608 1.356 . S
N1606 H1618 0.984 . S
N1606 H1619 0.985 . S
N1607 C1609 1.356 . S
N1607 H1612 0.984 . S
N1607 H1613 0.985 . S
C1608 C1602 1.379 . S
C1608 C1605 1.363 . S
C1608 N1606 1.356 . S
C1609 C1603 1.363 . S
C1609 C1604 1.379 . S
C1609 N1607 1.356 . S
N1610 C1602 1.356 . S
N1610 H1616 0.984 . S
N1610 H1617 0.984 . S
N1611 C1604 1.356 . S
N1611 H1614 0.984 . S
N1611 H1615 0.985 . S
H1612 N1607 0.984 . S
H1613 N1607 0.985 . S
H1614 N1611 0.984 . S
H1615 N1611 0.985 . S
H1616 N1610 0.984 . S
H1617 N1610 0.984 . S
H1618 N1606 0.984 . S
H1619 N1606 0.985 . S
C1620 C1621 1.363 . S
C1620 C1626 1.379 . S
C1620 N1628 1.361 . S
C1621 C1620 1.363 . S
C1621 C1627 1.363 . S
C1622 C1623 1.363 . S
C1622 C1627 1.379 . S
C1622 N1629 1.356 . S
C1623 C1622 1.363 . S
C1623 C1626 1.363 . S
N1624 C1626 1.356 . S
N1624 H1636 0.984 . S
N1624 H1637 0.985 . S
N1625 C1627 1.356 1_545 S
N1625 H1630 0.984 . S
N1625 H1631 0.983 1_545 S
C1626 C1620 1.379 . S
C1626 C1623 1.363 . S
C1626 N1624 1.356 . S
C1627 C1621 1.363 . S
C1627 C1622 1.379 . S
C1627 N1625 1.356 1_565 S
N1628 C1620 1.361 . S
N1628 H1634 0.985 . S
N1628 H1635 0.979 1_565 S
N1629 C1622 1.356 . S
N1629 H1632 0.984 . S
N1629 H1633 0.985 . S
H1630 N1625 0.984 . S
H1631 N1625 0.983 1_565 S
H1632 N1629 0.984 . S
H1633 N1629 0.985 . S
H1634 N1628 0.985 . S
H1635 N1628 0.979 1_545 S
H1636 N1624 0.984 . S
H1637 N1624 0.985 . S
C1638 C1639 1.363 . S
C1638 C1644 1.379 . S
C1638 N1646 1.356 . S
C1639 C1638 1.363 . S
C1639 C1645 1.363 . S
C1640 C1641 1.363 1_655 S
C1640 C1645 1.379 1_655 S
C1640 N1647 1.356 . S
C1641 C1640 1.363 1_455 S
C1641 C1644 1.363 . S
N1642 C1644 1.356 . S
N1642 H1654 0.984 . S
N1642 H1655 0.985 . S
N1643 C1645 1.356 . S
N1643 H1648 0.984 . S
N1643 H1649 0.985 1_455 S
C1644 C1638 1.379 . S
C1644 C1641 1.363 . S
C1644 N1642 1.356 . S
C1645 C1639 1.363 . S
C1645 C1640 1.379 1_455 S
C1645 N1643 1.356 . S
N1646 C1638 1.356 . S
N1646 H1652 0.984 . S
N1646 H1653 0.984 . S
N1647 C1640 1.356 . S
N1647 H1650 0.984 . S
N1647 H1651 0.985 . S
H1648 N1643 0.984 . S
H1649 N1643 0.985 1_655 S
H1650 N1647 0.984 . S
H1651 N1647 0.985 . S
H1652 N1646 0.984 . S
H1653 N1646 0.984 . S
H1654 N1642 0.984 . S
H1655 N1642 0.985 . S
C1656 C1657 1.363 . S
C1656 C1662 1.379 1_655 S
C1656 N1664 1.356 . S
C1657 C1656 1.363 . S
C1657 C1663 1.363 . S
C1658 C1659 1.363 . S
C1658 C1663 1.379 1_455 S
C1658 N1665 1.356 . S
C1659 C1658 1.363 . S
C1659 C1662 1.363 . S
N1660 C1662 1.356 . S
N1660 H1672 0.984 . S
N1660 H1673 0.985 . S
N1661 C1663 1.356 . S
N1661 H1666 0.984 . S
N1661 H1667 0.985 . S
C1662 C1656 1.379 1_455 S
C1662 C1659 1.363 . S
C1662 N1660 1.356 . S
C1663 C1657 1.363 . S
C1663 C1658 1.379 1_655 S
C1663 N1661 1.356 . S
N1664 C1656 1.356 . S
N1664 H1670 0.984 . S
N1664 H1671 0.984 . S
N1665 C1658 1.356 . S
N1665 H1668 0.984 . S
N1665 H1669 0.985 . S
H1666 N1661 0.984 . S
H1667 N1661 0.985 . S
H1668 N1665 0.984 . S
H1669 N1665 0.985 . S
H1670 N1664 0.984 . S
H1671 N1664 0.984 . S
H1672 N1660 0.984 . S
H1673 N1660 0.985 . S
C1674 C1675 1.363 . S
C1674 C1680 1.379 . S
C1674 N1682 1.356 . S
C1675 C1674 1.363 . S
C1675 C1681 1.363 . S
C1676 C1677 1.363 . S
C1676 C1681 1.379 . S
C1676 N1683 1.356 . S
C1677 C1676 1.363 . S
C1677 C1680 1.363 . S
N1678 C1680 1.356 . S
N1678 H1690 0.984 . S
N1678 H1691 0.985 . S
N1679 C1681 1.356 . S
N1679 H1684 0.984 . S
N1679 H1685 0.985 . S
C1680 C1674 1.379 . S
C1680 C1677 1.363 . S
C1680 N1678 1.356 . S
C1681 C1675 1.363 . S
C1681 C1676 1.379 . S
C1681 N1679 1.356 . S
N1682 C1674 1.356 . S
N1682 H1688 0.984 . S
N1682 H1689 0.984 . S
N1683 C1676 1.356 . S
N1683 H1686 0.984 . S
N1683 H1687 0.985 . S
H1684 N1679 0.984 . S
H1685 N1679 0.985 . S
H1686 N1683 0.984 . S
H1687 N1683 0.985 . S
H1688 N1682 0.984 . S
H1689 N1682 0.984 . S
H1690 N1678 0.984 . S
H1691 N1678 0.985 . S
C1692 C1693 1.363 . S
C1692 C1698 1.379 1_565 S
C1692 N1700 1.356 . S
C1693 C1692 1.363 . S
C1693 C1699 1.363 . S
C1694 C1695 1.363 . S
C1694 C1699 1.379 1_545 S
C1694 N1701 1.356 . S
C1695 C1694 1.363 . S
C1695 C1698 1.363 . S
N1696 C1698 1.356 . S
N1696 H1708 0.984 . S
N1696 H1709 0.985 . S
N1697 C1699 1.356 . S
N1697 H1702 0.984 . S
N1697 H1703 0.985 . S
C1698 C1692 1.379 1_545 S
C1698 C1695 1.363 . S
C1698 N1696 1.356 . S
C1699 C1693 1.363 . S
C1699 C1694 1.379 1_565 S
C1699 N1697 1.356 . S
N1700 C1692 1.356 . S
N1700 H1706 0.984 . S
N1700 H1707 0.984 . S
N1701 C1694 1.356 . S
N1701 H1704 0.984 . S
N1701 H1705 0.985 . S
H1702 N1697 0.984 . S
H1703 N1697 0.985 . S
H1704 N1701 0.984 . S
H1705 N1701 0.985 . S
H1706 N1700 0.984 . S
H1707 N1700 0.984 . S
H1708 N1696 0.984 . S
H1709 N1696 0.985 . S
C1710 C1711 1.363 . S
C1710 C1716 1.379 1_565 S
C1710 N1718 1.356 . S
C1711 C1710 1.363 . S
C1711 C1717 1.363 . S
C1712 C1713 1.363 . S
C1712 C1717 1.379 1_545 S
C1712 N1719 1.356 . S
C1713 C1712 1.363 . S
C1713 C1716 1.363 . S
N1714 C1716 1.356 . S
N1714 H1726 0.984 . S
N1714 H1727 0.985 . S
N1715 C1717 1.356 . S
N1715 H1720 0.984 . S
N1715 H1721 0.985 . S
C1716 C1710 1.379 1_545 S
C1716 C1713 1.363 . S
C1716 N1714 1.356 . S
C1717 C1711 1.363 . S
C1717 C1712 1.379 1_565 S
C1717 N1715 1.356 . S
N1718 C1710 1.356 . S
N1718 H1724 0.984 . S
N1718 H1725 0.984 . S
N1719 C1712 1.356 . S
N1719 H1722 0.984 . S
N1719 H1723 0.985 . S
H1720 N1715 0.984 . S
H1721 N1715 0.985 . S
H1722 N1719 0.984 . S
H1723 N1719 0.985 . S
H1724 N1718 0.984 . S
H1725 N1718 0.984 . S
H1726 N1714 0.984 . S
H1727 N1714 0.985 . S
C1728 C1729 1.363 . S
C1728 C1734 1.379 1_655 S
C1728 N1736 1.356 . S
C1729 C1728 1.363 . S
C1729 C1735 1.363 . S
C1730 C1731 1.363 . S
C1730 C1735 1.379 1_455 S
C1730 N1737 1.356 . S
C1731 C1730 1.363 . S
C1731 C1734 1.363 . S
N1732 C1734 1.356 . S
N1732 H1744 0.984 . S
N1732 H1745 0.985 . S
N1733 C1735 1.356 . S
N1733 H1738 0.984 . S
N1733 H1739 0.985 . S
C1734 C1728 1.379 1_455 S
C1734 C1731 1.363 . S
C1734 N1732 1.356 . S
C1735 C1729 1.363 . S
C1735 C1730 1.379 1_655 S
C1735 N1733 1.356 . S
N1736 C1728 1.356 . S
N1736 H1742 0.984 . S
N1736 H1743 0.984 . S
N1737 C1730 1.356 . S
N1737 H1740 0.984 . S
N1737 H1741 0.985 . S
H1738 N1733 0.984 . S
H1739 N1733 0.985 . S
H1740 N1737 0.984 . S
H1741 N1737 0.985 . S
H1742 N1736 0.984 . S
H1743 N1736 0.984 . S
H1744 N1732 0.984 . S
H1745 N1732 0.985 . S
C1746 C1747 1.363 . S
C1746 C1752 1.379 . S
C1746 N1754 1.356 . S
C1747 C1746 1.363 . S
C1747 C1753 1.363 . S
C1748 C1749 1.363 . S
C1748 C1753 1.379 . S
C1748 N1755 1.356 . S
C1749 C1748 1.363 . S
C1749 C1752 1.363 . S
N1750 C1752 1.356 . S
N1750 H1762 0.984 . S
N1750 H1763 0.985 . S
N1751 C1753 1.356 . S
N1751 H1756 0.984 . S
N1751 H1757 0.985 . S
C1752 C1746 1.379 . S
C1752 C1749 1.363 . S
C1752 N1750 1.356 . S
C1753 C1747 1.363 . S
C1753 C1748 1.379 . S
C1753 N1751 1.356 . S
N1754 C1746 1.356 . S
N1754 H1760 0.984 . S
N1754 H1761 0.984 . S
N1755 C1748 1.356 . S
N1755 H1758 0.984 . S
N1755 H1759 0.985 . S
H1756 N1751 0.984 . S
H1757 N1751 0.985 . S
H1758 N1755 0.984 . S
H1759 N1755 0.985 . S
H1760 N1754 0.984 . S
H1761 N1754 0.984 . S
H1762 N1750 0.984 . S
H1763 N1750 0.985 . S
C469 C5 1.626 . S
C471 C237 1.626 . S
C487 C16 1.670 . S
C489 C252 1.670 . S
C505 C263 1.627 . S
C507 C29 1.670 . S
C523 C42 1.670 . S
C525 C432 1.626 . S
C541 C447 1.670 . S
C543 C55 1.670 . S
C559 C70 1.627 . S
C561 C458 1.627 . S
C577 C317 1.627 . S
C579 C81 1.627 . S
C595 C96 1.670 . S
C597 C328 1.670 . S
C613 C107 1.627 . S
C615 C341 1.670 . S
C631 C120 1.626 . S
C633 C198 1.670 . S
C649 C211 1.670 . S
C651 C135 1.670 . S
C667 C146 1.627 . S
C669 C226 1.627 . S
C685 C161 1.626 . S
C687 C393 1.626 . S
C703 C172 1.670 . S
C705 C408 1.670 . S
C721 C185 1.670 . S
C723 C419 1.627 . S
C739 C276 1.626 . S
C741 C354 1.670 . S
C757 C291 1.670 . S
C759 C367 1.670 . S
C775 C302 1.627 . S
C777 C382 1.627 . S
C793 C101 1.598 1_545 S
C795 C3 1.596 . S
C811 C105 1.587 1_655 S
C813 C18 1.525 . S
C829 C31 1.525 . S
C831 C79 1.587 . S
C847 C144 1.587 1_455 S
C849 C44 1.525 . S
C865 C118 1.587 . S
C867 C57 1.525 . S
C883 C140 1.598 1_565 S
C885 C68 1.596 . S
C901 C83 1.596 . S
C903 C14 1.598 1_565 S
C919 C94 1.525 . S
C921 C27 1.598 1_455 S
C937 C109 1.596 . S
C939 C10 1.587 . S
C955 C122 1.596 . S
C957 C75 1.587 1_655 S
C973 C40 1.598 . S
C975 C133 1.525 . S
C991 C53 1.598 1_545 S
C993 C148 1.596 . S
C1009 C159 1.596 . S
C1011 C257 1.598 . S
C1027 C174 1.525 . S
C1029 C261 1.587 . S
C1045 C187 1.525 . S
C1047 C235 1.587 . S
C1063 C300 1.587 . S
C1065 C200 1.525 . S
C1081 C213 1.525 . S
C1083 C274 1.587 . S
C1099 C296 1.598 . S
C1101 C224 1.596 . S
C1117 C239 1.596 . S
C1119 C170 1.598 . S
C1135 C183 1.598 . S
C1137 C250 1.525 . S
C1153 C166 1.587 . S
C1155 C265 1.596 . S
C1171 C278 1.596 . S
C1173 C231 1.587 . S
C1189 C289 1.525 . S
C1191 C196 1.598 . S
C1207 C304 1.596 . S
C1209 C209 1.598 . S
C1225 C413 1.598 . S
C1227 C315 1.596 . S
C1243 C330 1.525 . S
C1245 C417 1.587 . S
C1261 C343 1.525 . S
C1263 C391 1.587 . S
C1279 C456 1.587 . S
C1281 C356 1.525 . S
C1297 C430 1.587 . S
C1299 C369 1.525 . S
C1315 C452 1.598 . S
C1317 C380 1.596 . S
C1333 C326 1.598 . S
C1335 C395 1.596 . S
C1351 C339 1.598 . S
C1353 C406 1.525 . S
C1369 C322 1.587 . S
C1371 C421 1.596 . S
C1387 C434 1.596 . S
C1389 C387 1.587 . S
C1405 C352 1.598 . S
C1407 C445 1.525 . S
C1423 C460 1.596 . S
C1425 C365 1.598 . S
C1441 C1 1.764 . S
C1443 C378 1.764 . S
C1459 C361 1.684 . S
C1461 C23 1.684 1_565 S
C1477 C36 1.684 1_455 S
C1479 C374 1.684 . S
C1495 C49 1.684 . S
C1497 C179 1.684 . S
C1513 C192 1.684 . S
C1515 C62 1.684 1_545 S
C1531 C66 1.764 1_655 S
C1533 C157 1.764 . S
C1549 C309 1.764 . S
C1551 C88 1.764 . S
C1567 C92 1.684 1_545 S
C1569 C283 1.764 . S
C1585 C114 1.764 1_655 S
C1587 C287 1.684 . S
C1603 C127 1.764 . S
C1605 C404 1.684 . S
C1621 C131 1.684 1_565 S
C1623 C426 1.764 . S
C1639 C400 1.764 . S
C1641 C153 1.764 1_455 S
C1657 C205 1.684 . S
C1659 C335 1.684 . S
C1675 C348 1.684 . S
C1677 C218 1.684 . S
C1693 C313 1.764 . S
C1695 C222 1.764 . S
C1711 C465 1.764 . S
C1713 C244 1.764 . S
C1729 C248 1.684 . S
C1731 C439 1.764 . S
C1747 C270 1.764 . S
C1749 C443 1.684 . S
