# Generated by pormake.
# Topology uou, (4)-cn, num edge types: 1
# Building blocks:
#     Node 0, Type 0, BuildingBlock: NAHDIM_clean_sbu_0, # of connection points: 4
#     Node 1, Type 0, BuildingBlock: NAHDIM_clean_sbu_0, # of connection points: 4
#     Node 2, Type 0, BuildingBlock: NAHDIM_clean_sbu_0, # of connection points: 4
#     Node 3, Type 0, BuildingBlock: NAHDIM_clean_sbu_0, # of connection points: 4
#     Node 4, Type 0, BuildingBlock: NAHDIM_clean_sbu_0, # of connection points: 4
#     Node 5, Type 0, BuildingBlock: NAHDIM_clean_sbu_0, # of connection points: 4
#     Node 6, Type 0, BuildingBlock: NAHDIM_clean_sbu_0, # of connection points: 4
#     Node 7, Type 0, BuildingBlock: NAHDIM_clean_sbu_0, # of connection points: 4
#     Node 8, Type 0, BuildingBlock: NAHDIM_clean_sbu_0, # of connection points: 4
#     Node 9, Type 0, BuildingBlock: NAHDIM_clean_sbu_0, # of connection points: 4
#     Node 10, Type 0, BuildingBlock: NAHDIM_clean_sbu_0, # of connection points: 4
#     Node 11, Type 0, BuildingBlock: NAHDIM_clean_sbu_0, # of connection points: 4
#     Node 12, Type 0, BuildingBlock: NAHDIM_clean_sbu_0, # of connection points: 4
#     Node 13, Type 0, BuildingBlock: NAHDIM_clean_sbu_0, # of connection points: 4
#     Node 14, Type 0, BuildingBlock: NAHDIM_clean_sbu_0, # of connection points: 4
#     Node 15, Type 0, BuildingBlock: NAHDIM_clean_sbu_0, # of connection points: 4
#     Edge 16, Type (0, 0), BuildingBlock: ZUJKAS_clean_linker_0, # of connection points: 2
#     Edge 17, Type (0, 0), BuildingBlock: ZUJKAS_clean_linker_0, # of connection points: 2
#     Edge 18, Type (0, 0), BuildingBlock: ZUJKAS_clean_linker_0, # of connection points: 2
#     Edge 19, Type (0, 0), BuildingBlock: ZUJKAS_clean_linker_0, # of connection points: 2
#     Edge 20, Type (0, 0), BuildingBlock: ZUJKAS_clean_linker_0, # of connection points: 2
#     Edge 21, Type (0, 0), BuildingBlock: ZUJKAS_clean_linker_0, # of connection points: 2
#     Edge 22, Type (0, 0), BuildingBlock: ZUJKAS_clean_linker_0, # of connection points: 2
#     Edge 23, Type (0, 0), BuildingBlock: ZUJKAS_clean_linker_0, # of connection points: 2
#     Edge 24, Type (0, 0), BuildingBlock: ZUJKAS_clean_linker_0, # of connection points: 2
#     Edge 25, Type (0, 0), BuildingBlock: ZUJKAS_clean_linker_0, # of connection points: 2
#     Edge 26, Type (0, 0), BuildingBlock: ZUJKAS_clean_linker_0, # of connection points: 2
#     Edge 27, Type (0, 0), BuildingBlock: ZUJKAS_clean_linker_0, # of connection points: 2
#     Edge 28, Type (0, 0), BuildingBlock: ZUJKAS_clean_linker_0, # of connection points: 2
#     Edge 29, Type (0, 0), BuildingBlock: ZUJKAS_clean_linker_0, # of connection points: 2
#     Edge 30, Type (0, 0), BuildingBlock: ZUJKAS_clean_linker_0, # of connection points: 2
#     Edge 31, Type (0, 0), BuildingBlock: ZUJKAS_clean_linker_0, # of connection points: 2
#     Edge 32, Type (0, 0), BuildingBlock: ZUJKAS_clean_linker_0, # of connection points: 2
#     Edge 33, Type (0, 0), BuildingBlock: ZUJKAS_clean_linker_0, # of connection points: 2
#     Edge 34, Type (0, 0), BuildingBlock: ZUJKAS_clean_linker_0, # of connection points: 2
#     Edge 35, Type (0, 0), BuildingBlock: ZUJKAS_clean_linker_0, # of connection points: 2
#     Edge 36, Type (0, 0), BuildingBlock: ZUJKAS_clean_linker_0, # of connection points: 2
#     Edge 37, Type (0, 0), BuildingBlock: ZUJKAS_clean_linker_0, # of connection points: 2
#     Edge 38, Type (0, 0), BuildingBlock: ZUJKAS_clean_linker_0, # of connection points: 2
#     Edge 39, Type (0, 0), BuildingBlock: ZUJKAS_clean_linker_0, # of connection points: 2
#     Edge 40, Type (0, 0), BuildingBlock: ZUJKAS_clean_linker_0, # of connection points: 2
#     Edge 41, Type (0, 0), BuildingBlock: ZUJKAS_clean_linker_0, # of connection points: 2
#     Edge 42, Type (0, 0), BuildingBlock: ZUJKAS_clean_linker_0, # of connection points: 2
#     Edge 43, Type (0, 0), BuildingBlock: ZUJKAS_clean_linker_0, # of connection points: 2
#     Edge 44, Type (0, 0), BuildingBlock: ZUJKAS_clean_linker_0, # of connection points: 2
#     Edge 45, Type (0, 0), BuildingBlock: ZUJKAS_clean_linker_0, # of connection points: 2
#     Edge 46, Type (0, 0), BuildingBlock: ZUJKAS_clean_linker_0, # of connection points: 2
#     Edge 47, Type (0, 0), BuildingBlock: ZUJKAS_clean_linker_0, # of connection points: 2
# Relax obj value: 0.110
# Max RMSD: 0.150
# Mean RMSD: 0.150
data_MOF--net-uou--node1-NAHDIM_clean_sbu_0--edge1-ZUJKAS_clean_linker_0
_symmetry_space_group_name_H-M    P1
_symmetry_Int_Tables_number       1
_symmetry_cell_setting            triclinic
loop_
_symmetry_equiv_pos_as_xyz
'x, y, z'
_cell_length_a     51.55837
_cell_length_b     51.073851
_cell_length_c     65.817845
_cell_angle_alpha  89.994935
_cell_angle_beta   90.024664
_cell_angle_gamma 89.994226
loop_
_atom_site_label
_atom_site_type_symbol
_atom_site_fract_x
_atom_site_fract_y
_atom_site_fract_z
_atom_type_partial_charge
C0 C 0.12058 0.04816 0.10698 0.0
O1 O 0.10796 0.04469 0.08985 0.0
O2 O 0.05622 0.0549 0.14861 0.0
Zn3 Zn 0.07057 0.06519 0.12158 0.0
O4 O 0.05377 0.04391 0.0997 0.0
C5 C 0.06452 0.1194 0.13156 0.0
O6 O 0.07228 0.11098 0.14942 0.0
O7 O 0.10871 0.05771 0.12218 0.0
C8 C 0.03164 0.05 0.09268 0.0
O9 O 0.0193 0.07024 0.10032 0.0
C10 C 0.05631 0.03132 0.15473 0.0
O11 O 0.06511 0.01285 0.14268 0.0
O12 O 0.06316 0.10332 0.11688 0.0
C13 C 0.36869 0.93002 0.14088 0.0
O14 O 0.37941 0.9315 0.15895 0.0
O15 O 0.43402 0.93637 0.15328 0.0
Zn16 Zn 0.42111 0.91894 0.12794 0.0
O17 O 0.43694 0.93576 0.10342 0.0
C18 C 0.45366 0.87502 0.13494 0.0
O19 O 0.46878 0.89377 0.14174 0.0
O20 O 0.38259 0.92376 0.1257 0.0
C21 C 0.46019 0.9439 0.10257 0.0
O22 O 0.47529 0.94147 0.11854 0.0
C23 C 0.43669 0.96097 0.15533 0.0
O24 O 0.43098 0.97656 0.1401 0.0
O25 O 0.43121 0.88088 0.12835 0.0
C26 C 0.62147 0.93709 0.35821 0.0
O27 O 0.61065 0.93315 0.3404 0.0
O28 O 0.55539 0.94439 0.34711 0.0
Zn29 Zn 0.56932 0.92947 0.373 0.0
O30 O 0.55351 0.94816 0.39658 0.0
C31 C 0.56254 0.8762 0.3594 0.0
O32 O 0.57372 0.88516 0.34287 0.0
O33 O 0.60772 0.93533 0.37416 0.0
C34 C 0.5302 0.94418 0.40196 0.0
O35 O 0.51592 0.92755 0.39162 0.0
C36 C 0.55021 0.9685 0.34462 0.0
O37 O 0.5537 0.98494 0.35972 0.0
O38 O 0.55958 0.89142 0.37449 0.0
C39 C 0.87949 0.04186 0.3707 0.0
O40 O 0.89914 0.02556 0.3694 0.0
O41 O 0.93975 0.05866 0.35156 0.0
Zn42 Zn 0.92204 0.07437 0.37587 0.0
O43 O 0.93539 0.05805 0.40147 0.0
C44 C 0.93166 0.12534 0.35945 0.0
O45 O 0.92674 0.11295 0.34238 0.0
O46 O 0.88408 0.06601 0.37371 0.0
C47 C 0.95697 0.06458 0.40926 0.0
O48 O 0.97113 0.08258 0.4003 0.0
C49 C 0.95614 0.04008 0.35177 0.0
O50 O 0.96315 0.02964 0.36916 0.0
O51 O 0.92955 0.11303 0.37615 0.0
C52 C 0.86775 0.9608 0.86746 0.0
O53 O 0.88722 0.97734 0.86632 0.0
O54 O 0.92801 0.94593 0.8485 0.0
Zn55 Zn 0.91056 0.9284 0.87207 0.0
O56 O 0.9243 0.9431 0.89819 0.0
C57 C 0.92046 0.87784 0.85405 0.0
O58 O 0.91569 0.8905 0.83707 0.0
O59 O 0.87259 0.93666 0.87024 0.0
C60 C 0.94293 0.93232 0.90767 0.0
O61 O 0.95375 0.91119 0.90008 0.0
C62 C 0.95192 0.94292 0.84459 0.0
O63 O 0.96616 0.92828 0.85664 0.0
O64 O 0.91807 0.88977 0.87089 0.0
C65 C 0.60567 0.05456 0.85566 0.0
O66 O 0.59429 0.05913 0.83816 0.0
O67 O 0.53699 0.04399 0.84835 0.0
Zn68 Zn 0.55382 0.06067 0.87252 0.0
O69 O 0.54044 0.04458 0.89809 0.0
C70 C 0.54763 0.11364 0.8575 0.0
O71 O 0.55816 0.10404 0.84093 0.0
O72 O 0.59232 0.05498 0.87187 0.0
C73 C 0.54656 0.05576 0.91465 0.0
O74 O 0.56088 0.07703 0.91406 0.0
C75 C 0.54271 0.02132 0.84178 0.0
O76 O 0.56032 0.00737 0.85132 0.0
O77 O 0.54461 0.09888 0.87285 0.0
C78 C 0.37674 0.06643 0.64253 0.0
O79 O 0.39031 0.06622 0.65943 0.0
O80 O 0.44496 0.06155 0.64581 0.0
Zn81 Zn 0.42579 0.08036 0.62363 0.0
O82 O 0.43696 0.06692 0.59641 0.0
C83 C 0.45727 0.12536 0.62745 0.0
O84 O 0.47495 0.10688 0.62846 0.0
O85 O 0.38768 0.07301 0.626 0.0
C86 C 0.45846 0.05547 0.59327 0.0
O87 O 0.47489 0.05253 0.60836 0.0
C88 C 0.44287 0.03709 0.64897 0.0
O89 O 0.42768 0.02303 0.63723 0.0
O90 O 0.43361 0.11886 0.62538 0.0
C91 C 0.12485 0.9511 0.62077 0.0
O92 O 0.10529 0.96735 0.61854 0.0
O93 O 0.06714 0.93424 0.64578 0.0
Zn94 Zn 0.08221 0.91852 0.62045 0.0
O95 O 0.06755 0.93574 0.59548 0.0
C96 C 0.05383 0.87192 0.62849 0.0
O97 O 0.03866 0.88927 0.6372 0.0
O98 O 0.12024 0.92667 0.62158 0.0
C99 C 0.04582 0.9299 0.58759 0.0
O100 O 0.03152 0.91156 0.59594 0.0
C101 C 0.04988 0.95194 0.64674 0.0
O102 O 0.03992 0.9615 0.62994 0.0
O103 O 0.07469 0.87965 0.62009 0.0
C104 C 0.61702 0.53318 0.10836 0.0
O105 O 0.59867 0.5194 0.09957 0.0
O106 O 0.55519 0.54767 0.14135 0.0
Zn107 Zn 0.57315 0.56416 0.11749 0.0
O108 O 0.55754 0.5519 0.09126 0.0
C109 C 0.54377 0.60977 0.11937 0.0
O110 O 0.52597 0.59148 0.11779 0.0
O111 O 0.61099 0.55429 0.11747 0.0
C112 C 0.5367 0.53879 0.08988 0.0
O113 O 0.52353 0.53317 0.1064 0.0
C114 C 0.56006 0.52528 0.14885 0.0
O115 O 0.57816 0.5106 0.14066 0.0
O116 O 0.56751 0.60303 0.11956 0.0
C117 C 0.8822 0.44928 0.10605 0.0
O118 O 0.89939 0.4666 0.10005 0.0
O119 O 0.93718 0.43656 0.14613 0.0
Zn120 Zn 0.92839 0.42335 0.11829 0.0
O121 O 0.94738 0.44389 0.09697 0.0
C122 C 0.96231 0.38035 0.12142 0.0
O123 O 0.97742 0.39953 0.12747 0.0
O124 O 0.88999 0.42807 0.11413 0.0
C125 C 0.96855 0.45615 0.09956 0.0
O126 O 0.9802 0.45526 0.1173 0.0
C127 C 0.93591 0.46052 0.15121 0.0
O128 O 0.92894 0.47808 0.13769 0.0
O129 O 0.93906 0.38553 0.1164 0.0
C130 C 0.11558 0.45835 0.3703 0.0
O131 O 0.09651 0.47541 0.37068 0.0
O132 O 0.05617 0.44264 0.34498 0.0
Zn133 Zn 0.07211 0.426 0.36966 0.0
O134 O 0.05658 0.4415 0.39478 0.0
C135 C 0.05895 0.37534 0.35311 0.0
O136 O 0.06005 0.38808 0.33579 0.0
O137 O 0.11014 0.43408 0.36974 0.0
C138 C 0.03601 0.43228 0.40262 0.0
O139 O 0.02459 0.41211 0.39406 0.0
C140 C 0.04036 0.46173 0.34536 0.0
O141 O 0.03348 0.47191 0.36287 0.0
O142 O 0.06466 0.38727 0.36946 0.0
C143 C 0.38086 0.54343 0.37163 0.0
O144 O 0.39916 0.52555 0.37237 0.0
O145 O 0.43908 0.55807 0.34272 0.0
Zn146 Zn 0.42569 0.57372 0.36864 0.0
O147 O 0.44214 0.55584 0.39248 0.0
C148 C 0.43615 0.62599 0.35363 0.0
O149 O 0.42998 0.61564 0.336 0.0
O150 O 0.38733 0.56735 0.37 0.0
C151 C 0.46201 0.56498 0.4014 0.0
O152 O 0.47246 0.58686 0.39484 0.0
C153 C 0.45133 0.5365 0.34181 0.0
O154 O 0.45612 0.52347 0.3586 0.0
O155 O 0.43464 0.61203 0.36956 0.0
C156 C 0.36497 0.44543 0.88129 0.0
O157 O 0.3839 0.46173 0.88556 0.0
O158 O 0.42111 0.43532 0.84815 0.0
Zn159 Zn 0.40887 0.41586 0.87287 0.0
O160 O 0.42602 0.42944 0.89799 0.0
C161 C 0.43744 0.3717 0.85899 0.0
O162 O 0.4501 0.39045 0.84962 0.0
O163 O 0.37059 0.42238 0.87547 0.0
C164 C 0.45015 0.43381 0.89974 0.0
O165 O 0.46561 0.42919 0.88428 0.0
C166 C 0.42999 0.45851 0.84734 0.0
O167 O 0.43181 0.47248 0.86403 0.0
O168 O 0.41794 0.37759 0.86992 0.0
C169 C 0.10642 0.54878 0.87715 0.0
O170 O 0.08649 0.53275 0.87765 0.0
O171 O 0.04847 0.56234 0.85305 0.0
Zn172 Zn 0.0643 0.58179 0.87638 0.0
O173 O 0.04992 0.5691 0.90278 0.0
C174 C 0.05171 0.63033 0.85625 0.0
O175 O 0.05348 0.61571 0.83989 0.0
O176 O 0.10223 0.57329 0.87648 0.0
C177 C 0.05515 0.58191 0.9188 0.0
O178 O 0.06887 0.60351 0.91737 0.0
C179 C 0.02876 0.54746 0.8538 0.0
O180 O 0.01658 0.5441 0.87113 0.0
O181 O 0.05668 0.62026 0.87348 0.0
C182 C 0.87827 0.53951 0.61828 0.0
O183 O 0.89496 0.52005 0.61856 0.0
O184 O 0.93384 0.5463 0.6494 0.0
Zn185 Zn 0.92521 0.56483 0.62349 0.0
O186 O 0.94121 0.5464 0.59981 0.0
C187 C 0.96153 0.60674 0.62039 0.0
O188 O 0.97672 0.58718 0.61528 0.0
O189 O 0.8867 0.56277 0.62009 0.0
C190 C 0.938 0.55637 0.58232 0.0
O191 O 0.92513 0.57847 0.58065 0.0
C192 C 0.95568 0.53589 0.65316 0.0
O193 O 0.97427 0.53718 0.63955 0.0
O194 O 0.93792 0.6021 0.62468 0.0
C195 C 0.6088 0.47193 0.62291 0.0
O196 O 0.59034 0.48966 0.62244 0.0
O197 O 0.55139 0.46047 0.6515 0.0
Zn198 Zn 0.56446 0.44143 0.62696 0.0
O199 O 0.5481 0.45576 0.6018 0.0
C200 C 0.5327 0.39617 0.62797 0.0
O201 O 0.51495 0.41429 0.62525 0.0
O202 O 0.60259 0.44799 0.62491 0.0
C203 C 0.55293 0.44459 0.585 0.0
O204 O 0.56777 0.42367 0.58484 0.0
C205 C 0.52941 0.47162 0.65241 0.0
O206 O 0.51381 0.47081 0.63663 0.0
O207 O 0.55634 0.40301 0.62931 0.0
H208 H 0.33591 0.95176 0.16881 0.0
H209 H 0.29313 0.97086 0.16254 0.0
H210 H 0.29794 0.94812 0.09956 0.0
H211 H 0.34063 0.92886 0.10565 0.0
H212 H 0.28418 0.01197 0.13356 0.0
H213 H 0.22492 0.92338 0.1176 0.0
H214 H 0.25562 0.92192 0.13079 0.0
H215 H 0.25482 0.92576 0.10368 0.0
C216 C 0.3277 0.95042 0.1537 0.0
C217 C 0.34169 0.93883 0.13772 0.0
C218 C 0.30331 0.96141 0.15014 0.0
C219 C 0.29239 0.96072 0.13063 0.0
C220 C 0.30592 0.9485 0.11479 0.0
H221 H 0.15063 0.02359 0.07852 0.0
H222 H 0.19342 0.00389 0.08356 0.0
C223 C 0.33035 0.9376 0.11829 0.0
C224 C 0.26765 0.97432 0.12655 0.0
H225 H 0.20514 0.96448 0.1114 0.0
C226 C 0.26683 0.00162 0.1288 0.0
C227 C 0.24524 0.96071 0.12017 0.0
C228 C 0.24499 0.9313 0.11804 0.0
C229 C 0.24415 0.01578 0.12464 0.0
C230 C 0.22162 0.00215 0.11846 0.0
C231 C 0.2225 0.97485 0.11609 0.0
C232 C 0.19666 0.01571 0.11502 0.0
C233 C 0.24462 0.04522 0.12656 0.0
C234 C 0.18445 0.02898 0.13102 0.0
C235 C 0.16009 0.04032 0.12819 0.0
C236 C 0.14739 0.03838 0.10933 0.0
C237 C 0.15991 0.02548 0.09321 0.0
C238 C 0.18431 0.01415 0.09607 0.0
H239 H 0.2647 0.05304 0.12572 0.0
H240 H 0.2328 0.05459 0.11447 0.0
H241 H 0.23639 0.0509 0.1415 0.0
H242 H 0.19344 0.02996 0.14588 0.0
H243 H 0.15094 0.05 0.14096 0.0
H244 H 0.64711 0.954 0.39206 0.0
H245 H 0.69067 0.97253 0.39396 0.0
H246 H 0.70106 0.95906 0.32977 0.0
H247 H 0.65717 0.94106 0.3276 0.0
H248 H 0.73758 0.9517 0.38571 0.0
H249 H 0.71878 0.03615 0.33481 0.0
H250 H 0.6931 0.01584 0.34475 0.0
H251 H 0.71185 0.00509 0.32326 0.0
C252 C 0.65866 0.95488 0.37833 0.0
C253 C 0.64861 0.94623 0.35963 0.0
C254 C 0.68355 0.96552 0.37945 0.0
C255 C 0.69887 0.96768 0.36193 0.0
C256 C 0.68927 0.95822 0.34337 0.0
H257 H 0.86438 0.99282 0.3597 0.0
H258 H 0.82038 0.97556 0.35772 0.0
C259 C 0.66428 0.94774 0.3422 0.0
C260 C 0.725 0.97959 0.36323 0.0
H261 H 0.76274 0.0288 0.3443 0.0
C262 C 0.74306 0.96861 0.37671 0.0
C263 C 0.73192 0.00196 0.35175 0.0
C264 C 0.71283 0.01564 0.33798 0.0
C265 C 0.76806 0.97907 0.37875 0.0
C266 C 0.77536 0.0007 0.3666 0.0
C267 C 0.75715 0.01204 0.35343 0.0
C268 C 0.80194 0.01161 0.36719 0.0
C269 C 0.78626 0.96708 0.39413 0.0
C270 C 0.8061 0.03792 0.37243 0.0
C271 C 0.8313 0.04799 0.37335 0.0
C272 C 0.85269 0.03186 0.36904 0.0
C273 C 0.84835 0.00569 0.36336 0.0
C274 C 0.82321 0.99572 0.36232 0.0
H275 H 0.77552 0.95623 0.4061 0.0
H276 H 0.79926 0.95297 0.38634 0.0
H277 H 0.79844 0.98226 0.40152 0.0
H278 H 0.78987 0.05055 0.3761 0.0
H279 H 0.83403 0.06826 0.37771 0.0
H280 H 0.8226 0.93354 0.87348 0.0
H281 H 0.77821 0.95022 0.87062 0.0
H282 H 0.80781 0.02612 0.85364 0.0
H283 H 0.8521 0.00987 0.85692 0.0
H284 H 0.77063 0.02964 0.88239 0.0
H285 H 0.73727 0.96584 0.81939 0.0
H286 H 0.7498 0.94802 0.84075 0.0
H287 H 0.77101 0.96887 0.8263 0.0
C288 C 0.81963 0.95374 0.86905 0.0
C289 C 0.84085 0.97038 0.8654 0.0
C290 C 0.79427 0.96319 0.86729 0.0
C291 C 0.78974 0.9893 0.8616 0.0
C292 C 0.81089 0.00589 0.85797 0.0
H293 H 0.64068 0.0535 0.82441 0.0
H294 H 0.68595 0.03912 0.82576 0.0
C295 C 0.83619 0.99655 0.85986 0.0
C296 C 0.76301 -0.00028 0.86011 0.0
H297 H 0.70489 0.99102 0.83621 0.0
C298 C 0.75628 0.02128 0.87223 0.0
C299 C 0.74447 0.98902 0.84661 0.0
C300 C 0.75102 0.96683 0.83237 0.0
C301 C 0.73135 0.0322 0.87147 0.0
C302 C 0.7125 0.02083 0.85859 0.0
C303 C 0.71935 -0.00044 0.8462 0.0
C304 C 0.68544 0.03046 0.85794 0.0
C305 C 0.72559 0.05602 0.88426 0.0
C306 C 0.67017 0.03026 0.87557 0.0
C307 C 0.64443 0.03864 0.87489 0.0
C308 C 0.63334 0.04705 0.85648 0.0
C309 C 0.64866 0.0472 0.83882 0.0
C310 C 0.6745 0.03895 0.83955 0.0
H311 H 0.7436 0.06675 0.88833 0.0
H312 H 0.71232 0.06968 0.87624 0.0
H313 H 0.71612 0.04976 0.8986 0.0
H314 H 0.67804 0.02321 0.88982 0.0
H315 H 0.6331 0.03805 0.88874 0.0
H316 H 0.16915 0.92405 0.63046 0.0
H317 H 0.21246 0.94229 0.63658 0.0
H318 H 0.18373 0.01962 0.6229 0.0
H319 H 0.14052 0.00176 0.61709 0.0
H320 H 0.24465 0.97004 0.611 0.0
H321 H 0.21835 0.03017 0.67791 0.0
H322 H 0.19745 0.00484 0.668 0.0
H323 H 0.19814 0.03668 0.65629 0.0
C324 C 0.17209 0.94493 0.62875 0.0
C325 C 0.15138 0.96149 0.62344 0.0
C326 C 0.19679 0.95531 0.63229 0.0
C327 C 0.20111 0.98236 0.63064 0.0
C328 C 0.18063 -0.00122 0.6248 0.0
H329 H 0.34291 0.06635 0.61062 0.0
H330 H 0.3005 0.04524 0.60888 0.0
C331 C 0.15598 0.98849 0.62134 0.0
C332 C 0.22714 0.99353 0.63444 0.0
H333 H 0.25901 0.04006 0.66206 0.0
C334 C 0.24788 0.98516 0.62229 0.0
C335 C 0.23136 0.01294 0.64942 0.0
C336 C 0.2102 0.02151 0.6638 0.0
C337 C 0.27255 0.99645 0.62418 0.0
C338 C 0.27637 0.01698 0.63831 0.0
C339 C 0.2559 0.0246 0.65103 0.0
C340 C 0.30137 0.03104 0.63985 0.0
C341 C 0.29431 0.98624 0.61105 0.0
C342 C 0.31534 0.03111 0.65815 0.0
C343 C 0.33951 0.04344 0.65928 0.0
C344 C 0.35003 0.05593 0.64212 0.0
C345 C 0.33547 0.0567 0.62406 0.0
C346 C 0.31131 0.04447 0.62298 0.0
H347 H 0.29031 0.96605 0.6056 0.0
H348 H 0.29642 -0.00095 0.59753 0.0
H349 H 0.31301 0.98622 0.61943 0.0
H350 H 0.30784 0.02105 0.6714 0.0
H351 H 0.35022 0.04252 0.67342 0.0
H352 H 0.84125 0.41978 0.1195 0.0
H353 H 0.7952 0.43159 0.11882 0.0
H354 H 0.81412 0.50456 0.08936 0.0
H355 H 0.85997 0.49288 0.08973 0.0
H356 H 0.7727 0.47558 0.1371 0.0
H357 H 0.7557 0.47517 0.05389 0.0
H358 H 0.78366 0.45989 0.06541 0.0
H359 H 0.78298 0.49473 0.06148 0.0
C360 C 0.83557 0.43819 0.11266 0.0
C361 C 0.85425 0.45537 0.10463 0.0
C362 C 0.80929 0.44492 0.11233 0.0
C363 C 0.8013 0.46879 0.10382 0.0
C364 C 0.81986 0.48582 0.09564 0.0
H365 H 0.66012 0.55652 0.12472 0.0
H366 H 0.70477 0.54014 0.12401 0.0
C367 C 0.84608 0.47915 0.09596 0.0
C368 C 0.77372 0.4766 0.1044 0.0
H369 H 0.72315 0.49539 0.07431 0.0
C370 C 0.76176 0.47972 0.12339 0.0
C371 C 0.75952 0.48175 0.08646 0.0
C372 C 0.77101 0.47749 0.06564 0.0
C373 C 0.73607 0.4885 0.12494 0.0
C374 C 0.72222 0.49468 0.10703 0.0
C375 C 0.73397 0.49093 0.08802 0.0
C376 C 0.69532 0.50466 0.10761 0.0
C377 C 0.72389 0.49085 0.14571 0.0
C378 C 0.67543 0.49042 0.09822 0.0
C379 C 0.65003 0.49978 0.09846 0.0
C380 C 0.64406 0.52364 0.10804 0.0
C381 C 0.66409 0.53801 0.11731 0.0
C382 C 0.68955 0.52862 0.11703 0.0
H383 H 0.73456 0.47917 0.15724 0.0
H384 H 0.7243 0.51166 0.15056 0.0
H385 H 0.70336 0.4843 0.14543 0.0
H386 H 0.67955 0.47195 0.0908 0.0
H387 H 0.63507 0.48823 0.09116 0.0
H388 H 0.33791 0.57505 0.37054 0.0
H389 H 0.29235 0.56143 0.37152 0.0
H390 H 0.31606 0.48058 0.37505 0.0
H391 H 0.36147 0.49392 0.37436 0.0
H392 H 0.26659 0.52849 0.34415 0.0
H393 H 0.26479 0.48727 0.42213 0.0
H394 H 0.29051 0.50833 0.41324 0.0
H395 H 0.29019 0.47422 0.40647 0.0
C396 C 0.33341 0.55439 0.37166 0.0
C397 C 0.3533 0.53557 0.37246 0.0
C398 C 0.30741 0.54665 0.37221 0.0
C399 C 0.3009 0.52004 0.37368 0.0
C400 C 0.3207 0.50125 0.37437 0.0
H401 H 0.15976 0.42855 0.37092 0.0
H402 H 0.20471 0.44408 0.37145 0.0
C403 C 0.34665 0.50893 0.37384 0.0
C404 C 0.27343 0.51174 0.37369 0.0
H405 H 0.2284 0.47776 0.40106 0.0
C406 C 0.25814 0.51759 0.35665 0.0
C407 C 0.26257 0.49747 0.39002 0.0
C408 C 0.27777 0.49164 0.40909 0.0
C409 C 0.23237 0.50897 0.35528 0.0
C410 C 0.22162 0.49446 0.37151 0.0
C411 C 0.23683 0.48878 0.38862 0.0
C412 C 0.19449 0.48516 0.37108 0.0
C413 C 0.21706 0.5149 0.33628 0.0
C414 C 0.17398 0.50317 0.37094 0.0
C415 C 0.14835 0.4944 0.37064 0.0
C416 C 0.14278 0.46744 0.37058 0.0
C417 C 0.16341 0.44943 0.37089 0.0
C418 C 0.18907 0.45825 0.37122 0.0
H419 H 0.22984 0.5207 0.32346 0.0
H420 H 0.20536 0.49768 0.33158 0.0
H421 H 0.20355 0.53134 0.33936 0.0
H422 H 0.1778 0.52402 0.37118 0.0
H423 H 0.13292 0.50879 0.37051 0.0
H424 H 0.15213 0.57575 0.88078 0.0
H425 H 0.19603 0.55746 0.88176 0.0
H426 H 0.16467 0.47967 0.8748 0.0
H427 H 0.12084 0.49764 0.87427 0.0
H428 H 0.20116 0.48231 0.90478 0.0
H429 H 0.23764 0.52909 0.83425 0.0
H430 H 0.2249 0.55194 0.8524 0.0
H431 H 0.20365 0.52837 0.84077 0.0
C432 C 0.15462 0.55477 0.87937 0.0
C433 C 0.13305 0.53815 0.87738 0.0
C434 C 0.17969 0.54437 0.87982 0.0
C435 C 0.18358 0.51725 0.87803 0.0
C436 C 0.16207 0.50066 0.87613 0.0
H437 H 0.32063 0.41732 0.87375 0.0
H438 H 0.27594 0.43382 0.87357 0.0
C439 C 0.13704 0.51099 0.87581 0.0
C440 C 0.21 0.506 0.8786 0.0
H441 H 0.26883 0.50742 0.85489 0.0
C442 C 0.21592 0.48766 0.89381 0.0
C443 C 0.22914 0.51296 0.86418 0.0
C444 C 0.2235 0.53147 0.84686 0.0
C445 C 0.24071 0.4765 0.89526 0.0
C446 C 0.25989 0.4838 0.88105 0.0
C447 C 0.25397 0.50198 0.86577 0.0
C448 C 0.28652 0.47333 0.88206 0.0
C449 C 0.24644 0.45745 0.91219 0.0
C450 C 0.30707 0.49015 0.88683 0.0
C451 C 0.33248 0.48085 0.88698 0.0
C452 C 0.33782 0.45457 0.88216 0.0
C453 C 0.31712 0.43765 0.87756 0.0
C454 C 0.29162 0.44699 0.87751 0.0
H455 H 0.23089 0.45724 0.92386 0.0
H456 H 0.24823 0.43743 0.90578 0.0
H457 H 0.26514 0.46239 0.91965 0.0
H458 H 0.30343 0.51056 0.89033 0.0
H459 H 0.34795 0.49442 0.89058 0.0
H460 H 0.65169 0.44035 0.62221 0.0
H461 H 0.69714 0.45395 0.61996 0.0
H462 H 0.67341 0.53485 0.61747 0.0
H463 H 0.62799 0.52154 0.61983 0.0
H464 H 0.72122 0.48525 0.58849 0.0
H465 H 0.72645 0.53156 0.6649 0.0
H466 H 0.70102 0.50899 0.65788 0.0
H467 H 0.70017 0.5422 0.64895 0.0
C468 C 0.65613 0.46104 0.62122 0.0
C469 C 0.63626 0.47988 0.62131 0.0
C470 C 0.68207 0.46874 0.6199 0.0
C471 C 0.68852 0.49538 0.6188 0.0
C472 C 0.66876 0.51421 0.61863 0.0
H473 H 0.83823 0.57481 0.61787 0.0
H474 H 0.79171 0.56519 0.61628 0.0
C475 C 0.64284 0.50655 0.6199 0.0
C476 C 0.71597 0.50345 0.6177 0.0
H477 H 0.76339 0.53549 0.64394 0.0
C478 C 0.73049 0.49624 0.60059 0.0
C479 C 0.72783 0.51792 0.63348 0.0
C480 C 0.7132 0.5255 0.65244 0.0
C481 C 0.7567 0.50318 0.5988 0.0
C482 C 0.76871 0.51723 0.61475 0.0
C483 C 0.75406 0.52478 0.63173 0.0
C484 C 0.79676 0.52318 0.61463 0.0
C485 C 0.77122 0.49563 0.57978 0.0
C486 C 0.81488 0.50273 0.61436 0.0
C487 C 0.84136 0.50813 0.61524 0.0
C488 C 0.85022 0.5341 0.61659 0.0
C489 C 0.83201 0.5546 0.6168 0.0
C490 C 0.80547 0.54916 0.6159 0.0
H491 H 0.7578 0.4921 0.56685 0.0
H492 H 0.78531 0.51106 0.57535 0.0
H493 H 0.78212 0.47725 0.58261 0.0
H494 H 0.80853 0.48252 0.61385 0.0
H495 H 0.85486 0.49188 0.61514 0.0
H496 H 0.94122 0.05356 0.31351 0.0
H497 H 0.96062 0.03997 0.2815 0.0
H498 H 0.01545 0.99168 0.31386 0.0
H499 H 0.99611 0.00533 0.34624 0.0
H500 H 0.03806 0.0258 0.2858 0.0
H501 H 0.95781 0.97083 0.25004 0.0
H502 H 0.94711 0.00178 0.25983 0.0
H503 H 0.95915 0.9772 0.27704 0.0
C504 C 0.95723 0.03983 0.31389 0.0
C505 C 0.96718 0.03057 0.33243 0.0
C506 C 0.96812 0.03187 0.29554 0.0
C507 C 0.98913 0.01444 0.29532 0.0
C508 C -0.00098 0.0049 0.31375 0.0
H509 H 0.04984 0.98294 0.17217 0.0
H510 H 0.03646 0.97343 0.20722 0.0
C511 C 0.98799 0.01276 0.3322 0.0
C512 C 0.00209 0.00858 0.27583 0.0
H513 H 0.98883 0.99082 0.22695 0.0
C514 C 0.02756 0.01752 0.27304 0.0
C515 C 0.9885 0.99743 0.25929 0.0
C516 C 0.96172 0.986 0.26174 0.0
C517 C 0.03897 0.01767 0.25372 0.0
C518 C 0.02439 0.00891 0.23686 0.0
C519 C -0.00019 0.99786 0.23991 0.0
C520 C 0.03296 0.01413 0.21586 0.0
C521 C 0.06609 0.02831 0.25134 0.0
C522 C 0.03486 0.0401 0.20915 0.0
C523 C 0.04221 0.04558 0.18925 0.0
C524 C 0.04783 0.02516 0.17563 0.0
C525 C 0.04571 -0.00091 0.18233 0.0
C526 C 0.03813 0.99361 0.2023 0.0
H527 H 0.07722 0.02679 0.26575 0.0
H528 H 0.07677 0.01775 0.23919 0.0
H529 H 0.06501 0.04931 0.24709 0.0
H530 H 0.03043 0.05617 0.21932 0.0
H531 H 0.04361 0.06588 0.18459 0.0
H532 H 0.45335 0.01097 0.16347 0.0
H533 H 0.47208 0.02717 0.19546 0.0
H534 H 0.46107 0.95113 0.22257 0.0
H535 H 0.44254 0.93483 0.19098 0.0
H536 H 0.44497 -0.00121 0.24684 0.0
H537 H 0.5459 -0.00054 0.21625 0.0
H538 H 0.52004 0.01498 0.20226 0.0
H539 H 0.5209 0.98001 0.20437 0.0
C540 C 0.45476 0.99781 0.17632 0.0
C541 C 0.44666 0.97158 0.17468 0.0
C542 C 0.46545 0.00709 0.19452 0.0
C543 C 0.46794 0.99027 0.21125 0.0
C544 C 0.45921 0.96438 0.20978 0.0
H545 H 0.54667 0.94053 0.30959 0.0
H546 H 0.52774 0.95428 0.27742 0.0
C547 C 0.44875 0.95508 0.19168 0.0
C548 C 0.48084 -0.0014 0.23017 0.0
H549 H 0.54096 0.00019 0.2517 0.0
C550 C 0.46593 2e-05 0.24795 0.0
C551 C 0.50815 7e-05 0.23139 0.0
C552 C 0.52487 -0.00145 0.21262 0.0
C553 C 0.47775 0.00074 0.26713 0.0
C554 C 0.5051 6e-05 0.2684 0.0
C555 C 0.51998 0.00079 0.25057 0.0
C556 C 0.51824 0.99337 0.28763 0.0
C557 C 0.46102 -9e-05 0.28592 0.0
C558 C 0.51939 0.01101 0.30393 0.0
C559 C 0.53025 0.00318 0.32248 0.0
C560 C 0.53993 0.97759 0.3249 0.0
C561 C 0.53923 0.9603 0.3083 0.0
C562 C 0.52855 0.96816 0.28986 0.0
H563 H 0.43999 -0.00066 0.28223 0.0
H564 H 0.46592 0.98239 0.29516 0.0
H565 H 0.46485 0.01747 0.29538 0.0
H566 H 0.5116 0.0306 0.3024 0.0
H567 H 0.5306 0.01696 0.33498 0.0
H568 H 0.00712 0.98194 0.6553 0.0
H569 H 0.98969 0.99245 0.68902 0.0
H570 H 0.05352 0.95144 0.717 0.0
H571 H 0.07105 0.94103 0.68364 0.0
H572 H 0.97494 0.954 0.71674 0.0
H573 H 0.04934 0.01853 0.75072 0.0
H574 H 0.04687 0.01308 0.72366 0.0
H575 H 0.06315 0.98964 0.73961 0.0
C576 C 0.01766 0.97558 0.66866 0.0
C577 C 0.04038 0.96053 0.66683 0.0
C578 C 0.00771 0.98164 0.68787 0.0
C579 C 0.02056 0.97308 0.70546 0.0
C580 C 0.04363 0.95876 0.70363 0.0
H581 H -0.00038 0.93324 0.8281 0.0
H582 H 0.01494 0.94591 0.79435 0.0
C583 C 0.05348 0.95259 0.68452 0.0
C584 C 0.00855 0.97614 0.72571 0.0
H585 H 0.022 0.99495 0.77433 0.0
C586 C 0.98486 0.96349 0.72927 0.0
C587 C 0.02166 0.98846 0.74197 0.0
C588 C 0.04655 0.00342 0.73877 0.0
C589 C 0.97476 0.96126 0.74896 0.0
C590 C 0.98854 0.97248 0.7654 0.0
C591 C 0.01156 0.9863 0.76168 0.0
C592 C 0.98047 0.96797 0.78665 0.0
C593 C 0.9503 0.94552 0.75215 0.0
C594 C 0.9564 0.97694 0.79369 0.0
C595 C 0.94751 0.96957 0.81289 0.0
C596 C 0.96267 0.95331 0.82542 0.0
C597 C 0.98743 0.94567 0.81878 0.0
C598 C 0.99624 0.95294 0.79953 0.0
H599 H 0.94489 0.93406 0.73844 0.0
H600 H 0.9526 0.9318 0.76512 0.0
H601 H 0.93404 0.95899 0.75572 0.0
H602 H 0.94417 0.98896 0.78409 0.0
H603 H 0.92845 0.97605 0.81767 0.0
H604 H 0.47896 0.05979 0.67345 0.0
H605 H 0.49777 0.04213 0.70446 0.0
H606 H 0.45575 0.96996 0.69576 0.0
H607 H 0.43645 0.9877 0.66458 0.0
H608 H 0.44884 0.99068 0.73366 0.0
H609 H 0.55335 0.98805 0.71621 0.0
H610 H 0.5399 0.01921 0.7094 0.0
H611 H 0.52888 0.99005 0.6966 0.0
C612 C 0.47396 0.04 0.67792 0.0
C613 C 0.45613 0.02518 0.6666 0.0
C614 C 0.48497 0.02982 0.69556 0.0
C615 C 0.47854 0.00455 0.70222 0.0
C616 C 0.46119 0.9894 0.69073 0.0
H617 H 0.55601 0.97796 0.81947 0.0
H618 H 0.53899 0.96526 0.78607 0.0
C619 C 0.45019 -0.00043 0.67296 0.0
C620 C 0.48777 0.99563 0.72234 0.0
H621 H 0.54209 0.9955 0.75187 0.0
C622 C 0.46929 0.99097 0.73756 0.0
C623 C 0.51443 0.99539 0.72738 0.0
C624 C 0.53526 0.99816 0.71144 0.0
C625 C 0.47665 0.98877 0.758 0.0
C626 C 0.50307 0.99175 0.76328 0.0
C627 C 0.52176 0.99367 0.74786 0.0
C628 C 0.51124 0.99698 0.78444 0.0
C629 C 0.45593 0.98449 0.77382 0.0
C630 C 0.50126 0.01896 0.79454 0.0
C631 C 0.51095 0.02628 0.81346 0.0
C632 C 0.53098 0.01187 0.82265 0.0
C633 C 0.54052 0.98941 0.81279 0.0
C634 C 0.53083 0.98212 0.79374 0.0
H635 H 0.43945 0.97311 0.76748 0.0
H636 H 0.4637 0.97402 0.78731 0.0
H637 H 0.44826 0.00375 0.77882 0.0
H638 H 0.48664 0.03112 0.78742 0.0
H639 H 0.50317 0.0437 0.82061 0.0
H640 H 0.5201 0.54995 0.16792 0.0
H641 H 0.50051 0.53873 0.20044 0.0
H642 H 0.54929 0.47035 0.20467 0.0
H643 H 0.5694 0.48161 0.17204 0.0
H644 H 0.47475 0.49226 0.21457 0.0
H645 H 0.56666 0.51376 0.25615 0.0
H646 H 0.56178 0.52377 0.23013 0.0
H647 H 0.56771 0.48999 0.236 0.0
C648 C 0.52659 0.5324 0.17564 0.0
C649 C 0.54655 0.51685 0.16753 0.0
C650 C 0.51527 0.52596 0.19418 0.0
C651 C 0.52369 0.50391 0.20501 0.0
C652 C 0.5428 0.48764 0.19661 0.0
H653 H 0.48177 0.49356 0.33435 0.0
H654 H 0.49809 0.47853 0.30135 0.0
C655 C 0.55418 0.49407 0.17797 0.0
C656 C 0.51341 0.49943 0.22566 0.0
H657 H 0.52911 0.50815 0.27555 0.0
C658 C 0.48669 0.49518 0.22796 0.0
C659 C 0.52912 0.50307 0.24306 0.0
C660 C 0.5579 0.50804 0.24137 0.0
C661 C 0.475 0.49599 0.24717 0.0
C662 C 0.49041 0.50164 0.26438 0.0
C663 C 0.51738 0.50393 0.26226 0.0
C664 C 0.47871 0.50882 0.2841 0.0
C665 C 0.44612 0.49173 0.24878 0.0
C666 C 0.46263 0.53091 0.28527 0.0
C667 C 0.45345 0.53962 0.304 0.0
C668 C 0.46029 0.52647 0.32197 0.0
C669 C 0.47614 0.50409 0.32077 0.0
C670 C 0.48542 0.49543 0.30196 0.0
H671 H 0.43892 0.4791 0.23624 0.0
H672 H 0.44085 0.4826 0.26352 0.0
H673 H 0.43608 0.51089 0.24761 0.0
H674 H 0.45777 0.54192 0.27173 0.0
H675 H 0.44132 0.55693 0.30439 0.0
H676 H 0.05405 0.44801 0.30686 0.0
H677 H 0.03326 0.46106 0.27523 0.0
H678 H 0.98018 0.5103 0.30847 0.0
H679 H 0.00088 0.49715 0.34044 0.0
H680 H 0.95585 0.47589 0.28225 0.0
H681 H 0.03398 0.52835 0.24187 0.0
H682 H 0.04531 0.49773 0.25184 0.0
H683 H 0.03459 0.52296 0.26901 0.0
C684 C 0.03819 0.4619 0.30749 0.0
C685 C 0.02904 0.47147 0.32617 0.0
C686 C 0.0265 0.46955 0.28935 0.0
C687 C 0.0055 0.48701 0.28949 0.0
C688 C -0.00342 0.49704 0.30806 0.0
H689 H 0.94232 0.51022 0.16621 0.0
H690 H 0.9553 0.52259 0.2008 0.0
C691 C 0.00839 0.48948 0.32628 0.0
C692 C 0.99134 0.49212 0.27038 0.0
H693 H 0.00179 0.50678 0.22051 0.0
C694 C 0.96563 0.48332 0.26885 0.0
C695 C 0.00395 0.50222 0.25299 0.0
C696 C 0.0309 0.51362 0.25405 0.0
C697 C 0.95307 0.48212 0.24999 0.0
C698 C 0.96672 0.4896 0.23231 0.0
C699 C 0.9915 0.50069 0.23408 0.0
C700 C 0.95717 0.48275 0.21184 0.0
C701 C 0.92572 0.4717 0.24902 0.0
C702 C 0.95425 0.45629 0.20665 0.0
C703 C 0.94709 0.44917 0.18701 0.0
C704 C 0.94274 0.4684 0.17213 0.0
C705 C 0.94545 0.49497 0.17738 0.0
C706 C 0.95282 0.50208 0.19709 0.0
H707 H 0.91529 0.47503 0.26356 0.0
H708 H 0.91461 0.481 0.23649 0.0
H709 H 0.92633 0.45027 0.24626 0.0
H710 H 0.95809 0.44107 0.21771 0.0
H711 H 0.9452 0.42855 0.18347 0.0
H712 H 0.47963 0.47961 0.66502 0.0
H713 H 0.4654 0.4907 0.69931 0.0
H714 H 0.5451 0.50071 0.71784 0.0
H715 H 0.55946 0.48856 0.68376 0.0
H716 H 0.52226 0.46702 0.74099 0.0
H717 H 0.45759 0.55274 0.73566 0.0
H718 H 0.44774 0.52813 0.71786 0.0
H719 H 0.47907 0.54345 0.71521 0.0
C720 C 0.49408 0.48482 0.67627 0.0
C721 C 0.52064 0.48289 0.67184 0.0
C722 C 0.48591 0.49144 0.69584 0.0
C723 C 0.50416 0.49684 0.71114 0.0
C724 C 0.53067 0.49668 0.70628 0.0
H725 H 0.45585 0.50463 0.84015 0.0
H726 H 0.47523 0.51894 0.80789 0.0
C727 C 0.53885 0.48963 0.68684 0.0
C728 C 0.49588 0.49804 0.73267 0.0
H729 H 0.44951 0.52308 0.76424 0.0
C730 C 0.50684 0.47982 0.74617 0.0
C731 C 0.47586 0.51481 0.73957 0.0
C732 C 0.46462 0.53606 0.72632 0.0
C733 C 0.49714 0.47668 0.76584 0.0
C734 C 0.47569 0.49182 0.77208 0.0
C735 C 0.46579 0.51129 0.75922 0.0
C736 C 0.46176 0.48533 0.79094 0.0
C737 C 0.5091 0.45628 0.77954 0.0
C738 C 0.44741 0.46209 0.79178 0.0
C739 C 0.43649 0.45384 0.81001 0.0
C740 C 0.43968 0.46876 0.82779 0.0
C741 C 0.45315 0.49268 0.82672 0.0
C742 C 0.46415 0.50093 0.80836 0.0
H743 H 0.52892 0.45079 0.77448 0.0
H744 H 0.5101 0.46343 0.79546 0.0
H745 H 0.49687 0.43839 0.77933 0.0
H746 H 0.44531 0.44991 0.77839 0.0
H747 H 0.42605 0.43544 0.81024 0.0
H748 H 0.05313 0.54572 0.81719 0.0
H749 H 0.03564 0.53018 0.785 0.0
H750 H 0.96538 0.50591 0.81511 0.0
H751 H 0.98273 0.52164 0.84764 0.0
H752 H 0.01356 0.47964 0.77163 0.0
H753 H 0.9437 0.56311 0.77275 0.0
H754 H 0.97148 0.56209 0.78941 0.0
H755 H 0.94416 0.54121 0.79416 0.0
C756 C 0.03406 0.53683 0.81708 0.0
C757 C 0.01912 0.53529 0.83491 0.0
C758 C 0.02419 0.52778 0.79868 0.0
C759 C -0.0008 0.51712 0.79772 0.0
C760 C 0.98468 0.51426 0.81561 0.0
H761 H 0.91986 0.52023 0.68104 0.0
H762 H 0.92769 0.50757 0.71631 0.0
C763 C 0.9946 0.52325 0.83413 0.0
C764 C 0.98773 0.51188 0.77758 0.0
H765 H 0.94796 0.53992 0.74247 0.0
C766 C -0.00119 0.49242 0.7653 0.0
C767 C 0.96846 0.52854 0.76949 0.0
C768 C 0.95624 0.55003 0.78201 0.0
C769 C 0.99188 0.48993 0.74476 0.0
C770 C 0.97394 0.50783 0.73629 0.0
C771 C 0.96174 0.52622 0.74895 0.0
C772 C 0.9695 0.51005 0.71412 0.0
C773 C 0.00423 0.46853 0.7323 0.0
C774 C 0.99044 0.51503 0.70101 0.0
C775 C 0.98603 0.52201 0.68078 0.0
C776 C 0.96058 0.5247 0.67346 0.0
C777 C 0.93969 0.51856 0.68633 0.0
C778 C 0.94413 0.51122 0.70646 0.0
H779 H 0.00896 0.45128 0.7419 0.0
H780 H 0.9914 0.46213 0.71969 0.0
H781 H 0.02268 0.47587 0.72574 0.0
H782 H 0.01015 0.51499 0.70667 0.0
H783 H 0.00249 0.52674 0.67124 0.0
H784 H 0.06347 0.15826 0.16009 0.0
H785 H 0.04552 0.20232 0.15648 0.0
H786 H 0.02636 0.18617 0.09395 0.0
H787 H 0.04453 0.14213 0.09731 0.0
H788 H 0.04934 0.23542 0.10004 0.0
H789 H 0.96747 0.21855 0.15317 0.0
H790 H -0.00124 0.21117 0.16372 0.0
H791 H 0.98664 0.19216 0.14278 0.0
C792 C 0.05556 0.16409 0.14553 0.0
C793 C 0.05529 0.14663 0.12902 0.0
C794 C 0.04516 0.18921 0.14354 0.0
C795 C 0.03418 0.19727 0.12507 0.0
C796 C 0.03458 0.18021 0.10838 0.0
H797 H 0.93613 0.33558 0.11097 0.0
H798 H 0.95316 0.29079 0.11022 0.0
C799 C 0.04499 0.15507 0.11034 0.0
C800 C 0.02228 0.22352 0.12317 0.0
H801 H 0.97466 0.26255 0.14267 0.0
C802 C 0.03293 0.24134 0.10926 0.0
C803 C 0.00059 0.23098 0.13499 0.0
C804 C 0.98749 0.21215 0.14937 0.0
C805 C 0.02294 0.26678 0.10731 0.0
C806 C 0.00201 0.27461 0.1198 0.0
C807 C 0.99086 0.25653 0.13325 0.0
C808 C 0.9919 0.30172 0.11961 0.0
C809 C 0.0348 0.28501 0.09185 0.0
C810 C 0.00799 0.32258 0.12533 0.0
C811 C -0.00164 0.3481 0.12579 0.0
C812 C 0.97237 0.35324 0.12065 0.0
C813 C 0.95624 0.33228 0.11497 0.0
C814 C 0.96592 0.3067 0.11454 0.0
H815 H 0.04542 0.27408 0.07987 0.0
H816 H 0.01973 0.29735 0.08452 0.0
H817 H 0.04883 0.29814 0.09958 0.0
H818 H 0.02795 0.31907 0.1297 0.0
H819 H 0.01128 0.36377 0.13032 0.0
H820 H 0.50225 0.85739 0.14408 0.0
H821 H 0.5188 0.81273 0.14119 0.0
H822 H 0.44346 0.78623 0.12147 0.0
H823 H 0.42684 0.83099 0.12388 0.0
H824 H 0.5037 0.76756 0.16028 0.0
H825 H 0.49059 0.75857 0.07692 0.0
H826 H 0.48841 0.78954 0.09001 0.0
H827 H 0.46138 0.76726 0.09011 0.0
C828 C 0.48917 0.84208 0.13911 0.0
C829 C 0.46326 0.84777 0.13405 0.0
C830 C 0.49868 0.81657 0.13748 0.0
C831 C 0.4825 0.79629 0.13075 0.0
C832 C 0.45645 0.80174 0.12621 0.0
H833 H 0.49505 0.62986 0.11598 0.0
H834 H 0.48169 0.67553 0.11902 0.0
C835 C 0.44694 0.82729 0.12772 0.0
C836 C 0.49285 0.76937 0.1287 0.0
H837 H 0.50111 0.71946 0.09482 0.0
C838 C 0.50333 0.7571 0.14594 0.0
C839 C 0.49248 0.75586 0.10993 0.0
C840 C 0.48285 0.76855 0.09064 0.0
C841 C 0.51276 0.73134 0.14504 0.0
C842 C 0.51184 0.7177 0.12639 0.0
C843 C 0.5017 0.73005 0.1091 0.0
C844 C 0.52037 0.69018 0.12465 0.0
C845 C 0.52298 0.71862 0.16412 0.0
C846 C 0.54663 0.68341 0.12663 0.0
C847 C 0.55441 0.65727 0.12481 0.0
C848 C 0.53599 0.63755 0.12103 0.0
C849 C 0.50973 0.64453 0.11896 0.0
C850 C 0.50203 0.67061 0.12067 0.0
H851 H 0.51831 0.7302 0.17793 0.0
H852 H 0.51482 0.69862 0.16587 0.0
H853 H 0.54438 0.71678 0.16304 0.0
H854 H 0.56109 0.69836 0.12946 0.0
H855 H 0.57477 0.65251 0.12645 0.0
H856 H 0.45726 0.65026 0.38674 0.0
H857 H 0.47833 0.69312 0.388 0.0
H858 H 0.46163 0.70489 0.32447 0.0
H859 H 0.4405 0.66198 0.32298 0.0
H860 H 0.52211 0.70878 0.36208 0.0
H861 H 0.43525 0.77272 0.35432 0.0
H862 H 0.43315 0.73906 0.36262 0.0
H863 H 0.43821 0.74643 0.33627 0.0
C864 C 0.4578 0.66205 0.37306 0.0
C865 C 0.44716 0.65271 0.35475 0.0
C866 C 0.46992 0.68648 0.37382 0.0
C867 C 0.47138 0.70214 0.35637 0.0
C868 C 0.46044 0.69315 0.33815 0.0
H869 H 0.56811 0.83737 0.33109 0.0
H870 H 0.54691 0.79444 0.33075 0.0
C871 C 0.44843 0.66862 0.33733 0.0
C872 C 0.48522 0.72747 0.3571 0.0
H873 H 0.47624 0.79355 0.35388 0.0
C874 C 0.51213 0.72734 0.3603 0.0
C875 C 0.47203 0.75155 0.35489 0.0
C876 C 0.44303 0.75266 0.35197 0.0
C877 C 0.5263 0.75078 0.36113 0.0
C878 C 0.51316 0.77483 0.35865 0.0
C879 C 0.48621 0.77498 0.35567 0.0
C880 C 0.52701 0.80014 0.35933 0.0
C881 C 0.55514 0.74977 0.36488 0.0
C882 C 0.52282 0.81742 0.37554 0.0
C883 C 0.53499 0.84184 0.37586 0.0
C884 C 0.55132 0.84954 0.35981 0.0
C885 C 0.55568 0.83202 0.34368 0.0
C886 C 0.54364 0.80749 0.34347 0.0
H887 H 0.56162 0.73003 0.36986 0.0
H888 H 0.56553 0.75482 0.35064 0.0
H889 H 0.56079 0.76432 0.37661 0.0
H890 H 0.50997 0.81205 0.38788 0.0
H891 H 0.53112 0.85491 0.38846 0.0
H892 H 0.04298 0.34499 0.32125 0.0
H893 H 0.0213 0.30244 0.32284 0.0
H894 H 0.02886 0.30233 0.38808 0.0
H895 H 0.0503 0.34499 0.38671 0.0
H896 H 0.03804 0.25412 0.33943 0.0
H897 H 0.95045 0.29232 0.37868 0.0
H898 H 0.97384 0.31348 0.36656 0.0
H899 H 0.98067 0.29958 0.39106 0.0
C900 C 0.0402 0.33586 0.33594 0.0
C901 C 0.0482 0.34849 0.35387 0.0
C902 C 0.02779 0.31156 0.33681 0.0
C903 C 0.02306 0.29953 0.3556 0.0
C904 C 0.03186 0.31158 0.37346 0.0
H905 H 0.94738 0.1552 0.39174 0.0
H906 H 0.96926 0.19769 0.39064 0.0
C907 C 0.04428 0.33587 0.37262 0.0
C908 C 0.00868 0.27446 0.35648 0.0
H909 H 0.95307 0.24636 0.37432 0.0
C910 C 0.01943 0.2524 0.347 0.0
C911 C 0.98441 0.27236 0.36638 0.0
C912 C 0.97148 0.29572 0.37611 0.0
C913 C 0.00672 0.22811 0.34741 0.0
C914 C 0.98241 0.22602 0.35726 0.0
C915 C 0.97169 0.24807 0.36679 0.0
C916 C 0.96789 0.20103 0.35789 0.0
C917 C 0.01966 0.20477 0.33767 0.0
C918 C 0.95922 0.18925 0.33988 0.0
C919 C 0.9467 0.16501 0.34044 0.0
C920 C 0.94251 0.15216 0.35905 0.0
C921 C 0.95035 0.16453 0.37714 0.0
C922 C 0.96288 0.18879 0.37656 0.0
H923 H 0.04074 0.20809 0.3353 0.0
H924 H 0.01709 0.18693 0.34711 0.0
H925 H 0.01067 0.20108 0.32262 0.0
H926 H 0.96242 0.19868 0.32535 0.0
H927 H 0.94077 0.15612 0.32623 0.0
H928 H 0.03601 0.65664 0.82219 0.0
H929 H 0.01497 0.69952 0.82049 0.0
H930 H 0.02172 0.70732 0.88551 0.0
H931 H 0.04304 0.6647 0.88737 0.0
H932 H 0.96866 0.71308 0.83943 0.0
H933 H 0.04869 0.77767 0.86506 0.0
H934 H 0.05404 0.74442 0.85673 0.0
H935 H 0.04241 0.75086 0.882 0.0
C936 C 0.03338 0.66764 0.8361 0.0
C937 C 0.04124 0.65725 0.85492 0.0
C938 C 0.0213 0.69211 0.83509 0.0
C939 C 0.01703 0.70669 0.85284 0.0
C940 C 0.02527 0.69661 0.87159 0.0
H941 H 0.93655 0.84812 0.88621 0.0
H942 H 0.95887 0.80593 0.8851 0.0
C943 C 0.03736 0.67217 0.87262 0.0
C944 C 0.00256 0.73171 0.85195 0.0
H945 H 0.00638 0.79651 0.86424 0.0
C946 C 0.97695 0.73139 0.84467 0.0
C947 C 0.01346 0.75552 0.85883 0.0
C948 C 0.04124 0.75728 0.86592 0.0
C949 C 0.96168 0.75414 0.84463 0.0
C950 C 0.97246 0.77784 0.85182 0.0
C951 C -0.00184 0.77824 0.85885 0.0
C952 C 0.95738 0.80248 0.85237 0.0
C953 C 0.93394 0.75253 0.83743 0.0
C954 C 0.94898 0.81437 0.83431 0.0
C955 C 0.93617 0.8385 0.83488 0.0
C956 C 0.93165 0.85116 0.85352 0.0
C957 C 0.93963 0.83887 0.8716 0.0
C958 C 0.95247 0.81481 0.87101 0.0
H959 H 0.92693 0.73198 0.83672 0.0
H960 H 0.92093 0.76388 0.84759 0.0
H961 H 0.93252 0.76104 0.82196 0.0
H962 H 0.95294 0.80534 0.81975 0.0
H963 H 0.93041 0.84749 0.82068 0.0
H964 H 0.47421 0.35235 0.83335 0.0
H965 H 0.49195 0.30806 0.83243 0.0
H966 H 0.44095 0.28538 0.8813 0.0
H967 H 0.42259 0.32956 0.88199 0.0
H968 H 0.51769 0.28278 0.86228 0.0
H969 H 0.42965 0.22659 0.84119 0.0
H970 H 0.43134 0.26179 0.83917 0.0
H971 H 0.42531 0.24655 0.86336 0.0
C972 C 0.46653 0.33788 0.84377 0.0
C973 C 0.44693 0.34444 0.85771 0.0
C974 C 0.47673 0.31258 0.84323 0.0
C975 C 0.46757 0.29333 0.85662 0.0
C976 C 0.44789 0.29975 0.8705 0.0
H977 H 0.51824 0.13675 0.88701 0.0
H978 H 0.49965 0.18081 0.88675 0.0
C979 C 0.4375 0.32504 0.87094 0.0
C980 C 0.47959 0.26698 0.85668 0.0
H981 H 0.46629 0.20176 0.85196 0.0
C982 C 0.50647 0.26508 0.85989 0.0
C983 C 0.46491 0.24391 0.85353 0.0
C984 C 0.43625 0.24475 0.84892 0.0
C985 C 0.519 0.24071 0.86034 0.0
C986 C 0.50425 0.21773 0.85747 0.0
C987 C 0.47743 0.21953 0.85424 0.0
C988 C 0.51635 0.19155 0.85781 0.0
C989 C 0.54782 0.23955 0.86418 0.0
C990 C 0.53191 0.18317 0.8416 0.0
C991 C 0.54245 0.15795 0.84161 0.0
C992 C 0.53766 0.14079 0.85789 0.0
C993 C 0.52237 0.14949 0.87426 0.0
C994 C 0.51168 0.17461 0.87414 0.0
H995 H 0.55577 0.25878 0.86903 0.0
H996 H 0.55226 0.22476 0.87605 0.0
H997 H 0.55787 0.23347 0.85004 0.0
H998 H 0.53554 0.196 0.82881 0.0
H999 H 0.55414 0.15184 0.82879 0.0
H1000 H 0.42593 0.16862 0.62523 0.0
H1001 H 0.43922 0.21465 0.62597 0.0
H1002 H 0.51909 0.19116 0.63273 0.0
H1003 H 0.50611 0.14519 0.6318 0.0
H1004 H 0.46674 0.24206 0.65663 0.0
H1005 H 0.52062 0.24078 0.58357 0.0
H1006 H 0.49821 0.21524 0.59074 0.0
H1007 H 0.53032 0.21596 0.60135 0.0
C1008 C 0.44633 0.17324 0.62684 0.0
C1009 C 0.46498 0.15324 0.62833 0.0
C1010 C 0.45387 0.19953 0.62728 0.0
C1011 C 0.48015 0.20624 0.62909 0.0
C1012 C 0.49875 0.18636 0.63093 0.0
H1013 H 0.56445 0.3535 0.63222 0.0
H1014 H 0.55165 0.30735 0.63353 0.0
C1015 C 0.49126 0.16009 0.63049 0.0
C1016 C 0.48814 0.23407 0.62925 0.0
H1017 H 0.52434 0.27918 0.60356 0.0
C1018 C 0.47925 0.25024 0.64501 0.0
C1019 C 0.50452 0.24459 0.61407 0.0
C1020 C 0.51383 0.22835 0.59636 0.0
C1021 C 0.48661 0.27665 0.64615 0.0
C1022 C 0.50294 0.28718 0.63095 0.0
C1023 C 0.51189 0.27099 0.61523 0.0
C1024 C 0.51055 0.31512 0.63079 0.0
C1025 C 0.47725 0.29294 0.66381 0.0
C1026 C 0.49167 0.33469 0.62864 0.0
C1027 C 0.49889 0.36102 0.62787 0.0
C1028 C 0.52516 0.36826 0.62914 0.0
C1029 C 0.54405 0.34858 0.63126 0.0
C1030 C 0.53679 0.32222 0.632 0.0
H1031 H 0.47077 0.28053 0.67671 0.0
H1032 H 0.49272 0.30634 0.66926 0.0
H1033 H 0.46051 0.30501 0.65885 0.0
H1034 H 0.47136 0.32958 0.62727 0.0
H1035 H 0.48386 0.37567 0.62614 0.0
H1036 H 0.08065 0.8302 0.61265 0.0
H1037 H 0.06618 0.78449 0.61063 0.0
H1038 H 0.99467 0.80523 0.64048 0.0
H1039 H 0.0088 0.85073 0.64257 0.0
H1040 H 0.04956 0.75042 0.64424 0.0
H1041 H 0.97238 0.76782 0.58685 0.0
H1042 H -0.00138 0.7906 0.59113 0.0
H1043 H 0.97172 0.78936 0.60844 0.0
C1044 C 0.06186 0.82501 0.6188 0.0
C1045 C 0.04583 0.84412 0.62768 0.0
C1046 C 0.05365 0.79893 0.61764 0.0
C1047 C 0.02924 0.79166 0.62516 0.0
C1048 C 0.01341 0.81058 0.63431 0.0
H1049 H 0.93649 0.65128 0.63269 0.0
H1050 H 0.95397 0.69579 0.63402 0.0
C1051 C 0.0216 0.83656 0.63556 0.0
C1052 C 0.02019 0.76427 0.62364 0.0
H1053 H 0.97298 0.72608 0.60262 0.0
C1054 C 0.03296 0.74497 0.63503 0.0
C1055 C -0.00154 0.7574 0.61168 0.0
C1056 C 0.98457 0.7773 0.59868 0.0
C1057 C 0.02409 0.71898 0.63521 0.0
C1058 C 0.00223 0.71212 0.62332 0.0
C1059 C 0.98968 0.73142 0.61176 0.0
C1060 C 0.99193 0.68506 0.62274 0.0
C1061 C 0.0377 0.69931 0.6486 0.0
C1062 C 0.00739 0.66435 0.61573 0.0
C1063 C -0.00249 0.63891 0.61503 0.0
C1064 C 0.97188 0.63374 0.62113 0.0
C1065 C 0.95632 0.65459 0.62791 0.0
C1066 C 0.96627 0.68003 0.62868 0.0
H1067 H 0.04937 0.70902 0.66063 0.0
H1068 H 0.02357 0.68592 0.65594 0.0
H1069 H 0.05107 0.68737 0.63919 0.0
H1070 H 0.02704 0.66791 0.61062 0.0
H1071 H 0.00995 0.62333 0.60958 0.0
H1072 H 0.92367 0.97472 0.92798 0.0
H1073 H 0.93864 0.99275 0.96032 0.0
H1074 H -0.00274 0.93272 0.96405 0.0
H1075 H 0.98259 0.9146 0.9316 0.0
H1076 H 0.94204 0.96641 -0.00121 0.0
H1077 H 0.03764 0.00225 0.97124 0.0
H1078 H 0.01149 0.9938 0.9542 0.0
H1079 H 0.03055 0.9685 0.96587 0.0
C1080 C 0.9398 0.96538 0.93562 0.0
C1081 C 0.95203 0.94329 0.92718 0.0
C1082 C 0.94827 0.97567 0.95411 0.0
C1083 C 0.96919 0.9642 0.9644 0.0
C1084 C 0.98132 0.94205 0.95614 0.0
H1085 H 0.0515 0.00634 0.0745 0.0
H1086 H 0.03512 0.98393 0.04432 0.0
C1087 C 0.97285 0.9317 0.93765 0.0
C1088 C 0.97813 0.97535 0.98387 0.0
H1089 H 0.02941 0.00593 0.00641 0.0
C1090 C 0.96113 0.97508 0.00051 0.0
C1091 C 0.00305 0.98654 0.98597 0.0
C1092 C 0.02173 0.98805 0.96836 0.0
C1093 C 0.96851 0.98555 0.01935 0.0
C1094 C 0.99334 0.997 0.02139 0.0
C1095 C 0.01039 0.99708 0.00477 0.0
C1096 C 0.00199 0.00947 0.0405 0.0
C1097 C 0.94984 0.98389 0.03695 0.0
C1098 C 0.98871 0.0312 0.04836 0.0
C1099 C -0.00205 0.04401 0.06566 0.0
C1100 C 0.02079 0.03544 0.07525 0.0
C1101 C 0.03385 0.01345 0.06747 0.0
C1102 C 0.02454 0.00062 0.05023 0.0
H1103 H 0.93506 0.96836 0.03455 0.0
H1104 H 0.96024 0.97989 0.0514 0.0
H1105 H 0.93952 0.00284 0.03851 0.0
H1106 H 0.97156 0.03868 0.04082 0.0
H1107 H 0.98753 0.06098 0.07121 0.0
H1108 H 0.52026 0.01011 0.92134 0.0
H1109 H 0.50633 0.9921 0.954 0.0
H1110 H 0.53961 0.05846 0.98498 0.0
H1111 H 0.55358 0.07673 0.95242 0.0
H1112 H 0.53911 0.98009 0.98862 0.0
H1113 H 0.463 0.05424 0.00537 0.0
H1114 H 0.4759 0.04923 0.98016 0.0
H1115 H 0.4944 0.06695 -0.00128 0.0
C1116 C 0.52455 0.02094 0.93508 0.0
C1117 C 0.53795 0.04489 0.93431 0.0
C1118 C 0.51662 0.01059 0.9537 0.0
C1119 C 0.52177 0.02411 0.97178 0.0
C1120 C 0.5352 0.04795 0.97111 0.0
H1121 H 0.50907 0.96242 0.09493 0.0
H1122 H 0.52494 0.98226 0.06341 0.0
C1123 C 0.54324 0.05828 0.95251 0.0
C1124 C 0.51333 0.01305 0.9914 0.0
H1125 H 0.4719 0.0231 0.03102 0.0
C1126 C 0.52446 0.98946 -0.00205 0.0
C1127 C 0.49408 0.02532 0.00333 0.0
C1128 C 0.48093 0.05024 -0.00345 0.0
C1129 C 0.51684 0.97777 0.01628 0.0
C1130 C 0.49783 0.99023 0.02835 0.0
C1131 C 0.48665 0.01378 0.02175 0.0
C1132 C 0.48842 0.97852 0.04747 0.0
C1133 C 0.52873 0.95194 0.02237 0.0
C1134 C 0.46255 0.97036 0.04897 0.0
C1135 C 0.45341 0.95913 0.06689 0.0
C1136 C 0.46999 0.95599 0.0837 0.0
C1137 C 0.49586 0.96447 0.08222 0.0
C1138 C 0.505 0.97569 0.06423 0.0
H1139 H 0.53902 0.94242 0.00951 0.0
H1140 H 0.54296 0.95527 0.03476 0.0
H1141 H 0.51364 0.93833 0.02814 0.0
H1142 H 0.44948 0.97249 0.03617 0.0
H1143 H 0.43336 0.95288 0.06754 0.0
H1144 H 0.42889 0.05903 0.55893 0.0
H1145 H 0.43805 0.04027 0.52555 0.0
H1146 H 0.51039 0.0093 0.54803 0.0
H1147 H 0.50134 0.02778 0.58158 0.0
H1148 H 0.4809 0.04968 0.49998 0.0
H1149 H 0.47382 0.94523 0.52264 0.0
H1150 H 0.46148 0.97155 0.53821 0.0
H1151 H 0.49559 0.96429 0.53799 0.0
C1152 C 0.44676 0.0482 0.55681 0.0
C1153 C 0.46436 0.04478 0.57294 0.0
C1154 C 0.45193 0.03752 0.53773 0.0
C1155 C 0.47467 0.02311 0.53447 0.0
C1156 C 0.49248 0.01997 0.5504 0.0
H1157 H 0.55417 0.9811 0.42527 0.0
H1158 H 0.53821 0.00108 0.45651 0.0
C1159 C 0.48736 0.03067 0.56951 0.0
C1160 C 0.48 0.01176 0.51427 0.0
H1161 H 0.49119 0.95398 0.48981 0.0
C1162 C 0.48298 0.02876 0.49769 0.0
C1163 C 0.48225 0.98444 0.51134 0.0
C1164 C 0.47789 0.96525 0.52843 0.0
C1165 C 0.48907 0.01916 0.47831 0.0
C1166 C 0.49254 0.99193 0.4756 0.0
C1167 C 0.48868 0.97487 0.49202 0.0
C1168 C 0.50137 0.98082 0.45608 0.0
C1169 C 0.49176 0.03822 0.46092 0.0
C1170 C 0.48602 0.96255 0.44565 0.0
C1171 C 0.49512 0.95098 0.42778 0.0
C1172 C 0.51983 0.95732 0.42022 0.0
C1173 C 0.53503 0.97581 0.43066 0.0
C1174 C 0.52589 0.98739 0.44845 0.0
H1175 H 0.48156 0.05694 0.4641 0.0
H1176 H 0.5126 0.04269 0.45856 0.0
H1177 H 0.48396 0.02978 0.44662 0.0
H1178 H 0.46709 0.95714 0.45142 0.0
H1179 H 0.48298 0.93676 0.42011 0.0
H1180 H 0.00026 0.92294 0.56694 0.0
H1181 H 0.98559 0.94622 0.53652 0.0
H1182 H 0.05589 0.99195 0.53662 0.0
H1183 H 0.07085 0.96871 0.56686 0.0
H1184 H 0.9781 0.00104 0.53173 0.0
H1185 H 0.05235 0.96222 0.47849 0.0
H1186 H 0.04573 0.94727 0.5028 0.0
H1187 H 0.06516 0.97642 0.50136 0.0
C1188 C 0.01265 0.93787 0.56045 0.0
C1189 C 0.03678 0.94388 0.56925 0.0
C1190 C 0.00422 0.95115 0.5431 0.0
C1191 C 0.01984 0.9705 0.53421 0.0
C1192 C 0.04379 0.97672 0.54305 0.0
H1193 H 0.00253 0.07281 0.42967 0.0
H1194 H 0.01752 0.05077 0.46057 0.0
C1195 C 0.05223 0.96349 0.56039 0.0
C1196 C 0.01084 0.98462 0.51593 0.0
H1197 H 0.02544 0.99637 0.46619 0.0
C1198 C 0.98835 -3e-05 0.51736 0.0
C1199 C 0.02439 0.98319 0.49729 0.0
C1200 C 0.04813 0.96622 0.49475 0.0
C1201 C 0.9792 0.01427 0.50065 0.0
C1202 C 0.99269 0.01278 0.48199 0.0
C1203 C 0.01523 0.9975 0.48057 0.0
C1204 C 0.9834 0.02643 0.46358 0.0
C1205 C 0.95543 0.03121 0.50318 0.0
C1206 C 0.9594 0.01979 0.455 0.0
C1207 C 0.95079 0.0323 0.43741 0.0
C1208 C 0.96611 0.05159 0.428 0.0
C1209 C 0.99024 0.0581 0.43658 0.0
C1210 C -0.00115 0.04553 0.4542 0.0
H1211 H 0.95148 0.03556 0.51943 0.0
H1212 H 0.95761 0.04999 0.49485 0.0
H1213 H 0.93834 0.02078 0.49691 0.0
H1214 H 0.94744 0.00472 0.4618 0.0
H1215 H 0.93217 0.02671 0.43113 0.0
H1216 H 0.49137 0.51363 0.08058 0.0
H1217 H 0.47799 0.49668 0.04735 0.0
H1218 H 0.5491 0.52503 0.02085 0.0
H1219 H 0.56268 0.54206 0.05387 0.0
H1220 H 0.47469 0.52778 0.00856 0.0
H1221 H 0.54422 0.44433 0.0066 0.0
H1222 H 0.5347 0.4601 0.03002 0.0
H1223 H 0.55704 0.476 0.01317 0.0
C1224 C 0.50415 0.51628 0.06768 0.0
C1225 C 0.5281 0.52911 0.06985 0.0
C1226 C 0.49647 0.50661 0.04876 0.0
C1227 C 0.51273 0.50943 0.03183 0.0
C1228 C 0.53648 0.52246 0.03386 0.0
H1229 H 0.49911 0.4522 0.90746 0.0
H1230 H 0.51494 0.47193 0.93907 0.0
C1231 C 0.54411 0.53225 0.05272 0.0
C1232 C 0.50477 0.4989 0.01195 0.0
H1233 H 0.51815 0.4508 0.97758 0.0
C1234 C 0.48413 0.51095 0.00174 0.0
C1235 C 0.51742 0.47716 0.00313 0.0
C1236 C 0.5395 0.46344 0.01377 0.0
C1237 C 0.47573 0.50178 0.98278 0.0
C1238 C 0.48792 0.47957 0.97416 0.0
C1239 C 0.50886 0.46779 0.98427 0.0
C1240 C 0.47852 0.46764 0.95508 0.0
C1241 C 0.45413 0.51616 0.97205 0.0
C1242 C 0.45304 0.45826 0.95383 0.0
C1243 C 0.44394 0.44715 0.93586 0.0
C1244 C 0.46029 0.44489 0.91886 0.0
C1245 C 0.48605 0.45372 0.92029 0.0
C1246 C 0.4951 0.465 0.9383 0.0
H1247 H 0.45252 0.53673 0.97741 0.0
H1248 H 0.45712 0.51627 0.95535 0.0
H1249 H 0.43543 0.50626 0.97531 0.0
H1250 H 0.44016 0.45946 0.9668 0.0
H1251 H 0.42406 0.44031 0.93533 0.0
H1252 H 0.01536 0.48153 0.09818 0.0
H1253 H 0.03282 0.50762 0.07003 0.0
H1254 H 0.96368 0.49239 0.03509 0.0
H1255 H 0.94609 0.46645 0.06296 0.0
H1256 H 0.04107 0.48946 0.02907 0.0
H1257 H 0.97262 0.57314 0.03262 0.0
H1258 H 0.97754 0.55091 0.05364 0.0
H1259 H 0.95708 0.54166 0.03271 0.0
C1260 C 0.00384 0.48385 0.08453 0.0
C1261 C 0.97935 0.47194 0.08279 0.0
C1262 C 0.01383 0.49875 0.06852 0.0
C1263 C -0.00069 0.5022 0.05069 0.0
C1264 C 0.97493 0.49033 0.04891 0.0
H1265 H 0.03287 0.5347 0.92726 0.0
H1266 H 0.02148 0.51714 0.9606 0.0
C1267 C 0.96501 0.47535 0.0648 0.0
C1268 C 0.00998 0.51706 0.03339 0.0
H1269 H -0.00313 0.56834 0.00178 0.0
C1270 C 0.03169 0.50693 0.02325 0.0
C1271 C -0.00222 0.53996 0.02601 0.0
C1272 C 0.9751 0.55224 0.0369 0.0
C1273 C 0.04072 0.5184 0.00525 0.0
C1274 C 0.02756 0.54036 -0.00276 0.0
C1275 C 0.0067 0.55131 0.00793 0.0
C1276 C 0.03431 0.55132 0.9772 0.0
C1277 C 0.06397 0.50668 0.99471 0.0
C1278 C 0.04472 0.57657 0.97559 0.0
C1279 C 0.0513 0.58669 0.95655 0.0
C1280 C 0.04725 0.57177 0.93886 0.0
C1281 C 0.03626 0.54667 0.94058 0.0
C1282 C 0.02988 0.53654 0.9596 0.0
H1283 H 0.0755 0.49411 0.00512 0.0
H1284 H 0.05726 0.4944 0.98182 0.0
H1285 H 0.07673 0.52227 0.98851 0.0
H1286 H 0.04806 0.58828 0.98906 0.0
H1287 H 0.05965 0.60612 0.9557 0.0
H1288 H 0.93878 0.57462 0.54334 0.0
H1289 H 0.95466 0.55196 0.51311 0.0
H1290 H 0.97495 0.48493 0.5497 0.0
H1291 H 0.95967 0.50767 0.5801 0.0
H1292 H 0.01332 0.49836 0.52349 0.0
H1293 H 0.91929 0.49266 0.48285 0.0
H1294 H 0.92793 0.52543 0.48998 0.0
H1295 H 0.92165 0.50139 0.50935 0.0
C1296 C 0.94657 0.55504 0.54496 0.0
C1297 C 0.94788 0.54288 0.56408 0.0
C1298 C 0.95546 0.54205 0.52765 0.0
C1299 C 0.96548 0.51659 0.52914 0.0
C1300 C 0.96711 0.50453 0.54824 0.0
H1301 H 0.99577 0.41444 0.42586 0.0
H1302 H 0.97879 0.43387 0.45715 0.0
C1303 C 0.95839 0.51755 0.56558 0.0
C1304 C 0.97502 0.50281 0.51086 0.0
H1305 H 0.9571 0.48222 0.46358 0.0
C1306 C 0.001 0.49467 0.51043 0.0
C1307 C 0.95877 0.49766 0.494 0.0
C1308 C 0.93029 0.5045 0.49409 0.0
C1309 C 0.01138 0.48207 0.49336 0.0
C1310 C 0.99547 0.47808 0.47613 0.0
C1311 C 0.96931 0.4856 0.47675 0.0
C1312 C 0.00569 0.46639 0.45722 0.0
C1313 C 0.03921 0.47292 0.49404 0.0
C1314 C 0.02612 0.47852 0.44678 0.0
C1315 C 0.03594 0.46742 0.42902 0.0
C1316 C 0.02528 0.44415 0.42125 0.0
C1317 C 0.00443 0.43233 0.4315 0.0
C1318 C 0.99471 0.44339 0.44935 0.0
H1319 H 0.04614 0.47047 0.50991 0.0
H1320 H 0.04164 0.45404 0.48589 0.0
H1321 H 0.05173 0.48776 0.48659 0.0
H1322 H 0.03442 0.49664 0.45233 0.0
H1323 H 0.05184 0.47715 0.42136 0.0
H1324 H 0.55792 0.42459 0.54667 0.0
H1325 H 0.54276 0.44408 0.51487 0.0
H1326 H 0.51101 0.50944 0.54809 0.0
H1327 H 0.52562 0.48991 0.57997 0.0
H1328 H 0.47755 0.49026 0.51932 0.0
H1329 H 0.57526 0.50696 0.48637 0.0
H1330 H 0.56919 0.47365 0.49366 0.0
H1331 H 0.57039 0.49878 0.51277 0.0
C1332 C 0.54769 0.4431 0.54721 0.0
C1333 C 0.54308 0.45579 0.56582 0.0
C1334 C 0.5392 0.45427 0.52902 0.0
C1335 C 0.52621 0.47841 0.52914 0.0
C1336 C 0.52115 0.49086 0.5477 0.0
H1337 H 0.49846 0.58312 0.42808 0.0
H1338 H 0.51397 0.56161 0.459 0.0
C1339 C 0.52951 0.47967 0.56589 0.0
C1340 C 0.51755 0.49063 0.50995 0.0
H1341 H 0.53926 0.51492 0.46475 0.0
C1342 C 0.49101 0.49569 0.50738 0.0
C1343 C 0.53526 0.498 0.49457 0.0
C1344 C 0.56415 0.49432 0.49699 0.0
C1345 C 0.48162 0.50777 0.48973 0.0
C1346 C 0.49923 0.5144 0.47408 0.0
C1347 C 0.52581 0.50955 0.47672 0.0
C1348 C 0.49048 0.52687 0.455 0.0
C1349 C 0.45303 0.51385 0.48824 0.0
C1350 C 0.47259 0.51418 0.44234 0.0
C1351 C 0.46354 0.52647 0.42479 0.0
C1352 C 0.47253 0.55154 0.41946 0.0
C1353 C 0.49113 0.56384 0.43181 0.0
C1354 C 0.50001 0.55159 0.44946 0.0
H1355 H 0.44364 0.51414 0.50344 0.0
H1356 H 0.44972 0.53307 0.48079 0.0
H1357 H 0.44336 0.49851 0.47902 0.0
H1358 H 0.46551 0.49481 0.44609 0.0
H1359 H 0.44944 0.51636 0.41544 0.0
loop_
_geom_bond_atom_site_label_1
_geom_bond_atom_site_label_2
_geom_bond_distance
_geom_bond_site_symmetry_2
_ccdc_geom_bond_type
C0 O1 1.160 . S
C0 O7 1.185 . S
O1 C0 1.160 . S
O2 Zn3 1.899 . S
O2 C10 1.284 . S
Zn3 O2 1.899 . S
Zn3 O4 2.032 . S
Zn3 O7 2.086 . S
Zn3 O12 1.977 . S
O4 Zn3 2.032 . S
O4 C8 1.278 . S
C5 O6 1.203 . S
C5 O12 1.267 . S
O6 C5 1.203 . S
O7 C0 1.185 . S
O7 Zn3 2.086 . S
C8 O4 1.278 . S
C8 O9 1.211 . S
O9 C8 1.211 . S
C10 O2 1.284 . S
C10 O11 1.273 . S
O11 C10 1.273 . S
O12 Zn3 1.977 . S
O12 C5 1.267 . S
C13 O14 1.160 . S
C13 O20 1.185 . S
O14 C13 1.160 . S
O15 Zn16 1.899 . S
O15 C23 1.284 . S
Zn16 O15 1.899 . S
Zn16 O17 2.032 . S
Zn16 O20 2.086 . S
Zn16 O25 1.977 . S
O17 Zn16 2.032 . S
O17 C21 1.278 . S
C18 O19 1.203 . S
C18 O25 1.267 . S
O19 C18 1.203 . S
O20 C13 1.185 . S
O20 Zn16 2.086 . S
C21 O17 1.278 . S
C21 O22 1.211 . S
O22 C21 1.211 . S
C23 O15 1.284 . S
C23 O24 1.273 . S
O24 C23 1.273 . S
O25 Zn16 1.977 . S
O25 C18 1.267 . S
C26 O27 1.160 . S
C26 O33 1.185 . S
O27 C26 1.160 . S
O28 Zn29 1.899 . S
O28 C36 1.284 . S
Zn29 O28 1.899 . S
Zn29 O30 2.032 . S
Zn29 O33 2.086 . S
Zn29 O38 1.977 . S
O30 Zn29 2.032 . S
O30 C34 1.278 . S
C31 O32 1.203 . S
C31 O38 1.267 . S
O32 C31 1.203 . S
O33 C26 1.185 . S
O33 Zn29 2.086 . S
C34 O30 1.278 . S
C34 O35 1.211 . S
O35 C34 1.211 . S
C36 O28 1.284 . S
C36 O37 1.273 . S
O37 C36 1.273 . S
O38 Zn29 1.977 . S
O38 C31 1.267 . S
C39 O40 1.160 . S
C39 O46 1.185 . S
O40 C39 1.160 . S
O41 Zn42 1.899 . S
O41 C49 1.284 . S
Zn42 O41 1.899 . S
Zn42 O43 2.032 . S
Zn42 O46 2.086 . S
Zn42 O51 1.977 . S
O43 Zn42 2.032 . S
O43 C47 1.278 . S
C44 O45 1.203 . S
C44 O51 1.267 . S
O45 C44 1.203 . S
O46 C39 1.185 . S
O46 Zn42 2.086 . S
C47 O43 1.278 . S
C47 O48 1.211 . S
O48 C47 1.211 . S
C49 O41 1.284 . S
C49 O50 1.273 . S
O50 C49 1.273 . S
O51 Zn42 1.977 . S
O51 C44 1.267 . S
C52 O53 1.160 . S
C52 O59 1.185 . S
O53 C52 1.160 . S
O54 Zn55 1.899 . S
O54 C62 1.284 . S
Zn55 O54 1.899 . S
Zn55 O56 2.032 . S
Zn55 O59 2.086 . S
Zn55 O64 1.977 . S
O56 Zn55 2.032 . S
O56 C60 1.278 . S
C57 O58 1.203 . S
C57 O64 1.267 . S
O58 C57 1.203 . S
O59 C52 1.185 . S
O59 Zn55 2.086 . S
C60 O56 1.278 . S
C60 O61 1.211 . S
O61 C60 1.211 . S
C62 O54 1.284 . S
C62 O63 1.273 . S
O63 C62 1.273 . S
O64 Zn55 1.977 . S
O64 C57 1.267 . S
C65 O66 1.160 . S
C65 O72 1.185 . S
O66 C65 1.160 . S
O67 Zn68 1.899 . S
O67 C75 1.284 . S
Zn68 O67 1.899 . S
Zn68 O69 2.032 . S
Zn68 O72 2.086 . S
Zn68 O77 1.977 . S
O69 Zn68 2.032 . S
O69 C73 1.278 . S
C70 O71 1.203 . S
C70 O77 1.267 . S
O71 C70 1.203 . S
O72 C65 1.185 . S
O72 Zn68 2.086 . S
C73 O69 1.278 . S
C73 O74 1.211 . S
O74 C73 1.211 . S
C75 O67 1.284 . S
C75 O76 1.273 . S
O76 C75 1.273 . S
O77 Zn68 1.977 . S
O77 C70 1.267 . S
C78 O79 1.160 . S
C78 O85 1.185 . S
O79 C78 1.160 . S
O80 Zn81 1.899 . S
O80 C88 1.284 . S
Zn81 O80 1.899 . S
Zn81 O82 2.032 . S
Zn81 O85 2.086 . S
Zn81 O90 1.977 . S
O82 Zn81 2.032 . S
O82 C86 1.278 . S
C83 O84 1.203 . S
C83 O90 1.267 . S
O84 C83 1.203 . S
O85 C78 1.185 . S
O85 Zn81 2.086 . S
C86 O82 1.278 . S
C86 O87 1.211 . S
O87 C86 1.211 . S
C88 O80 1.284 . S
C88 O89 1.273 . S
O89 C88 1.273 . S
O90 Zn81 1.977 . S
O90 C83 1.267 . S
C91 O92 1.160 . S
C91 O98 1.185 . S
O92 C91 1.160 . S
O93 Zn94 1.899 . S
O93 C101 1.284 . S
Zn94 O93 1.899 . S
Zn94 O95 2.032 . S
Zn94 O98 2.086 . S
Zn94 O103 1.977 . S
O95 Zn94 2.032 . S
O95 C99 1.278 . S
C96 O97 1.203 . S
C96 O103 1.267 . S
O97 C96 1.203 . S
O98 C91 1.185 . S
O98 Zn94 2.086 . S
C99 O95 1.278 . S
C99 O100 1.211 . S
O100 C99 1.211 . S
C101 O93 1.284 . S
C101 O102 1.273 . S
O102 C101 1.273 . S
O103 Zn94 1.977 . S
O103 C96 1.267 . S
C104 O105 1.160 . S
C104 O111 1.185 . S
O105 C104 1.160 . S
O106 Zn107 1.899 . S
O106 C114 1.284 . S
Zn107 O106 1.899 . S
Zn107 O108 2.032 . S
Zn107 O111 2.086 . S
Zn107 O116 1.977 . S
O108 Zn107 2.032 . S
O108 C112 1.278 . S
C109 O110 1.203 . S
C109 O116 1.267 . S
O110 C109 1.203 . S
O111 C104 1.185 . S
O111 Zn107 2.086 . S
C112 O108 1.278 . S
C112 O113 1.211 . S
O113 C112 1.211 . S
C114 O106 1.284 . S
C114 O115 1.273 . S
O115 C114 1.273 . S
O116 Zn107 1.977 . S
O116 C109 1.267 . S
C117 O118 1.160 . S
C117 O124 1.185 . S
O118 C117 1.160 . S
O119 Zn120 1.899 . S
O119 C127 1.284 . S
Zn120 O119 1.899 . S
Zn120 O121 2.032 . S
Zn120 O124 2.086 . S
Zn120 O129 1.977 . S
O121 Zn120 2.032 . S
O121 C125 1.278 . S
C122 O123 1.203 . S
C122 O129 1.267 . S
O123 C122 1.203 . S
O124 C117 1.185 . S
O124 Zn120 2.086 . S
C125 O121 1.278 . S
C125 O126 1.211 . S
O126 C125 1.211 . S
C127 O119 1.284 . S
C127 O128 1.273 . S
O128 C127 1.273 . S
O129 Zn120 1.977 . S
O129 C122 1.267 . S
C130 O131 1.160 . S
C130 O137 1.185 . S
O131 C130 1.160 . S
O132 Zn133 1.899 . S
O132 C140 1.284 . S
Zn133 O132 1.899 . S
Zn133 O134 2.032 . S
Zn133 O137 2.086 . S
Zn133 O142 1.977 . S
O134 Zn133 2.032 . S
O134 C138 1.278 . S
C135 O136 1.203 . S
C135 O142 1.267 . S
O136 C135 1.203 . S
O137 C130 1.185 . S
O137 Zn133 2.086 . S
C138 O134 1.278 . S
C138 O139 1.211 . S
O139 C138 1.211 . S
C140 O132 1.284 . S
C140 O141 1.273 . S
O141 C140 1.273 . S
O142 Zn133 1.977 . S
O142 C135 1.267 . S
C143 O144 1.160 . S
C143 O150 1.185 . S
O144 C143 1.160 . S
O145 Zn146 1.899 . S
O145 C153 1.284 . S
Zn146 O145 1.899 . S
Zn146 O147 2.032 . S
Zn146 O150 2.086 . S
Zn146 O155 1.977 . S
O147 Zn146 2.032 . S
O147 C151 1.278 . S
C148 O149 1.203 . S
C148 O155 1.267 . S
O149 C148 1.203 . S
O150 C143 1.185 . S
O150 Zn146 2.086 . S
C151 O147 1.278 . S
C151 O152 1.211 . S
O152 C151 1.211 . S
C153 O145 1.284 . S
C153 O154 1.273 . S
O154 C153 1.273 . S
O155 Zn146 1.977 . S
O155 C148 1.267 . S
C156 O157 1.160 . S
C156 O163 1.185 . S
O157 C156 1.160 . S
O158 Zn159 1.899 . S
O158 C166 1.284 . S
Zn159 O158 1.899 . S
Zn159 O160 2.032 . S
Zn159 O163 2.086 . S
Zn159 O168 1.977 . S
O160 Zn159 2.032 . S
O160 C164 1.278 . S
C161 O162 1.203 . S
C161 O168 1.267 . S
O162 C161 1.203 . S
O163 C156 1.185 . S
O163 Zn159 2.086 . S
C164 O160 1.278 . S
C164 O165 1.211 . S
O165 C164 1.211 . S
C166 O158 1.284 . S
C166 O167 1.273 . S
O167 C166 1.273 . S
O168 Zn159 1.977 . S
O168 C161 1.267 . S
C169 O170 1.160 . S
C169 O176 1.185 . S
O170 C169 1.160 . S
O171 Zn172 1.899 . S
O171 C179 1.284 . S
Zn172 O171 1.899 . S
Zn172 O173 2.032 . S
Zn172 O176 2.086 . S
Zn172 O181 1.977 . S
O173 Zn172 2.032 . S
O173 C177 1.278 . S
C174 O175 1.203 . S
C174 O181 1.267 . S
O175 C174 1.203 . S
O176 C169 1.185 . S
O176 Zn172 2.086 . S
C177 O173 1.278 . S
C177 O178 1.211 . S
O178 C177 1.211 . S
C179 O171 1.284 . S
C179 O180 1.273 . S
O180 C179 1.273 . S
O181 Zn172 1.977 . S
O181 C174 1.267 . S
C182 O183 1.160 . S
C182 O189 1.185 . S
O183 C182 1.160 . S
O184 Zn185 1.899 . S
O184 C192 1.284 . S
Zn185 O184 1.899 . S
Zn185 O186 2.032 . S
Zn185 O189 2.086 . S
Zn185 O194 1.977 . S
O186 Zn185 2.032 . S
O186 C190 1.278 . S
C187 O188 1.203 . S
C187 O194 1.267 . S
O188 C187 1.203 . S
O189 C182 1.185 . S
O189 Zn185 2.086 . S
C190 O186 1.278 . S
C190 O191 1.211 . S
O191 C190 1.211 . S
C192 O184 1.284 . S
C192 O193 1.273 . S
O193 C192 1.273 . S
O194 Zn185 1.977 . S
O194 C187 1.267 . S
C195 O196 1.160 . S
C195 O202 1.185 . S
O196 C195 1.160 . S
O197 Zn198 1.899 . S
O197 C205 1.284 . S
Zn198 O197 1.899 . S
Zn198 O199 2.032 . S
Zn198 O202 2.086 . S
Zn198 O207 1.977 . S
O199 Zn198 2.032 . S
O199 C203 1.278 . S
C200 O201 1.203 . S
C200 O207 1.267 . S
O201 C200 1.203 . S
O202 C195 1.185 . S
O202 Zn198 2.086 . S
C203 O199 1.278 . S
C203 O204 1.211 . S
O204 C203 1.211 . S
C205 O197 1.284 . S
C205 O206 1.273 . S
O206 C205 1.273 . S
O207 Zn198 1.977 . S
O207 C200 1.267 . S
H208 C216 0.929 . S
H209 C218 0.930 1_545 S
H210 C220 0.930 . S
H211 C223 0.929 . S
H212 C226 0.930 . S
H213 C228 0.960 . S
H214 C228 0.960 . S
H215 C228 0.960 . S
C216 H208 0.929 . S
C216 C217 1.377 . S
C216 C218 1.384 . S
C217 C216 1.377 . S
C217 C223 1.390 . S
C218 H209 0.930 1_565 S
C218 C216 1.384 . S
C218 C219 1.372 . S
C219 C218 1.372 . S
C219 C220 1.400 . S
C219 C224 1.490 . S
C220 H210 0.930 . S
C220 C219 1.400 . S
C220 C223 1.386 . S
H221 C237 0.930 . S
H222 C238 0.931 . S
C223 H211 0.929 . S
C223 C217 1.390 . S
C223 C220 1.386 . S
C224 C219 1.490 . S
C224 C226 1.395 1_565 S
C224 C227 1.403 . S
H225 C231 0.930 . S
C226 H212 0.930 . S
C226 C224 1.395 1_545 S
C226 C229 1.403 . S
C227 C224 1.403 . S
C227 C228 1.524 . S
C227 C231 1.400 . S
C228 H213 0.960 . S
C228 H214 0.960 . S
C228 H215 0.960 . S
C228 C227 1.524 . S
C229 C226 1.403 . S
C229 C230 1.392 . S
C229 C233 1.495 . S
C230 C229 1.392 . S
C230 C231 1.385 1_545 S
C230 C232 1.478 . S
C231 H225 0.930 . S
C231 C227 1.400 . S
C231 C230 1.385 1_565 S
C232 C230 1.478 . S
C232 C234 1.381 . S
C232 C238 1.383 . S
C233 C229 1.495 . S
C233 H239 0.959 . S
C233 H240 0.961 . S
C233 H241 0.960 . S
C234 C232 1.381 . S
C234 C235 1.394 . S
C234 H242 0.930 . S
C235 C234 1.394 . S
C235 C236 1.383 . S
C235 H243 0.929 . S
C236 C235 1.383 . S
C236 C237 1.377 . S
C237 H221 0.930 . S
C237 C236 1.377 . S
C237 C238 1.379 . S
C238 H222 0.931 . S
C238 C232 1.383 . S
C238 C237 1.379 . S
H239 C233 0.959 . S
H240 C233 0.961 . S
H241 C233 0.960 . S
H242 C234 0.930 . S
H243 C235 0.929 . S
H244 C252 0.929 . S
H245 C254 0.930 . S
H246 C256 0.930 . S
H247 C259 0.929 . S
H248 C262 0.930 . S
H249 C264 0.960 . S
H250 C264 0.960 . S
H251 C264 0.960 . S
C252 H244 0.929 . S
C252 C253 1.377 . S
C252 C254 1.384 . S
C253 C252 1.377 . S
C253 C259 1.390 . S
C254 H245 0.930 . S
C254 C252 1.384 . S
C254 C255 1.372 . S
C255 C254 1.372 . S
C255 C256 1.400 . S
C255 C260 1.490 . S
C256 H246 0.930 . S
C256 C255 1.400 . S
C256 C259 1.386 . S
H257 C273 0.930 . S
H258 C274 0.931 . S
C259 H247 0.929 . S
C259 C253 1.390 . S
C259 C256 1.386 . S
C260 C255 1.490 . S
C260 C262 1.395 . S
C260 C263 1.403 1_565 S
H261 C267 0.930 . S
C262 H248 0.930 . S
C262 C260 1.395 . S
C262 C265 1.403 . S
C263 C260 1.403 1_545 S
C263 C264 1.524 . S
C263 C267 1.400 . S
C264 H249 0.960 . S
C264 H250 0.960 . S
C264 H251 0.960 . S
C264 C263 1.524 . S
C265 C262 1.403 . S
C265 C266 1.392 1_565 S
C265 C269 1.495 . S
C266 C265 1.392 1_545 S
C266 C267 1.385 . S
C266 C268 1.478 . S
C267 H261 0.930 . S
C267 C263 1.400 . S
C267 C266 1.385 . S
C268 C266 1.478 . S
C268 C270 1.381 . S
C268 C274 1.383 . S
C269 C265 1.495 . S
C269 H275 0.959 . S
C269 H276 0.961 . S
C269 H277 0.960 . S
C270 C268 1.381 . S
C270 C271 1.394 . S
C270 H278 0.930 . S
C271 C270 1.394 . S
C271 C272 1.383 . S
C271 H279 0.929 . S
C272 C271 1.383 . S
C272 C273 1.377 . S
C273 H257 0.930 . S
C273 C272 1.377 . S
C273 C274 1.379 . S
C274 H258 0.931 . S
C274 C268 1.383 . S
C274 C273 1.379 . S
H275 C269 0.959 . S
H276 C269 0.961 . S
H277 C269 0.960 . S
H278 C270 0.930 . S
H279 C271 0.929 . S
H280 C288 0.929 . S
H281 C290 0.930 . S
H282 C292 0.930 . S
H283 C295 0.929 . S
H284 C298 0.930 . S
H285 C300 0.960 . S
H286 C300 0.960 . S
H287 C300 0.960 . S
C288 H280 0.929 . S
C288 C289 1.377 . S
C288 C290 1.384 . S
C289 C288 1.377 . S
C289 C295 1.390 . S
C290 H281 0.930 . S
C290 C288 1.384 . S
C290 C291 1.372 . S
C291 C290 1.372 . S
C291 C292 1.400 . S
C291 C296 1.490 . S
C292 H282 0.930 . S
C292 C291 1.400 . S
C292 C295 1.386 . S
H293 C309 0.930 . S
H294 C310 0.931 . S
C295 H283 0.929 . S
C295 C289 1.390 . S
C295 C292 1.386 . S
C296 C291 1.490 . S
C296 C298 1.395 1_565 S
C296 C299 1.403 . S
H297 C303 0.930 . S
C298 H284 0.930 . S
C298 C296 1.395 1_545 S
C298 C301 1.403 . S
C299 C296 1.403 . S
C299 C300 1.524 . S
C299 C303 1.400 . S
C300 H285 0.960 . S
C300 H286 0.960 . S
C300 H287 0.960 . S
C300 C299 1.524 . S
C301 C298 1.403 . S
C301 C302 1.392 . S
C301 C305 1.495 . S
C302 C301 1.392 . S
C302 C303 1.385 1_545 S
C302 C304 1.478 . S
C303 H297 0.930 . S
C303 C299 1.400 . S
C303 C302 1.385 1_565 S
C304 C302 1.478 . S
C304 C306 1.381 . S
C304 C310 1.383 . S
C305 C301 1.495 . S
C305 H311 0.959 . S
C305 H312 0.961 . S
C305 H313 0.960 . S
C306 C304 1.381 . S
C306 C307 1.394 . S
C306 H314 0.930 . S
C307 C306 1.394 . S
C307 C308 1.383 . S
C307 H315 0.929 . S
C308 C307 1.383 . S
C308 C309 1.377 . S
C309 H293 0.930 . S
C309 C308 1.377 . S
C309 C310 1.379 . S
C310 H294 0.931 . S
C310 C304 1.383 . S
C310 C309 1.379 . S
H311 C305 0.959 . S
H312 C305 0.961 . S
H313 C305 0.960 . S
H314 C306 0.930 . S
H315 C307 0.929 . S
H316 C324 0.929 . S
H317 C326 0.930 . S
H318 C328 0.930 1_545 S
H319 C331 0.929 . S
H320 C334 0.930 . S
H321 C336 0.960 . S
H322 C336 0.960 . S
H323 C336 0.960 . S
C324 H316 0.929 . S
C324 C325 1.377 . S
C324 C326 1.384 . S
C325 C324 1.377 . S
C325 C331 1.390 . S
C326 H317 0.930 . S
C326 C324 1.384 . S
C326 C327 1.372 . S
C327 C326 1.372 . S
C327 C328 1.400 . S
C327 C332 1.490 . S
C328 H318 0.930 1_565 S
C328 C327 1.400 . S
C328 C331 1.386 . S
H329 C345 0.930 . S
H330 C346 0.931 . S
C331 H319 0.929 . S
C331 C325 1.390 . S
C331 C328 1.386 . S
C332 C327 1.490 . S
C332 C334 1.395 . S
C332 C335 1.403 1_565 S
H333 C339 0.930 . S
C334 H320 0.930 . S
C334 C332 1.395 . S
C334 C337 1.403 . S
C335 C332 1.403 1_545 S
C335 C336 1.524 . S
C335 C339 1.400 . S
C336 H321 0.960 . S
C336 H322 0.960 . S
C336 H323 0.960 . S
C336 C335 1.524 . S
C337 C334 1.403 . S
C337 C338 1.392 1_565 S
C337 C341 1.495 . S
C338 C337 1.392 1_545 S
C338 C339 1.385 . S
C338 C340 1.478 . S
C339 H333 0.930 . S
C339 C335 1.400 . S
C339 C338 1.385 . S
C340 C338 1.478 . S
C340 C342 1.381 . S
C340 C346 1.383 . S
C341 C337 1.495 . S
C341 H347 0.959 . S
C341 H348 0.961 . S
C341 H349 0.960 . S
C342 C340 1.381 . S
C342 C343 1.394 . S
C342 H350 0.930 1_545 S
C343 C342 1.394 . S
C343 C344 1.383 . S
C343 H351 0.929 . S
C344 C343 1.383 . S
C344 C345 1.377 . S
C345 H329 0.930 . S
C345 C344 1.377 . S
C345 C346 1.379 . S
C346 H330 0.931 . S
C346 C340 1.383 . S
C346 C345 1.379 . S
H347 C341 0.959 . S
H348 C341 0.961 . S
H349 C341 0.960 . S
H350 C342 0.930 1_565 S
H351 C343 0.929 . S
H352 C360 0.929 . S
H353 C362 0.930 . S
H354 C364 0.930 . S
H355 C367 0.929 . S
H356 C370 0.930 . S
H357 C372 0.960 . S
H358 C372 0.960 . S
H359 C372 0.960 . S
C360 H352 0.929 . S
C360 C361 1.377 . S
C360 C362 1.384 . S
C361 C360 1.377 . S
C361 C367 1.390 . S
C362 H353 0.930 . S
C362 C360 1.384 . S
C362 C363 1.372 . S
C363 C362 1.372 . S
C363 C364 1.400 . S
C363 C368 1.490 . S
C364 H354 0.930 . S
C364 C363 1.400 . S
C364 C367 1.386 . S
H365 C381 0.930 . S
H366 C382 0.931 . S
C367 H355 0.929 . S
C367 C361 1.390 . S
C367 C364 1.386 . S
C368 C363 1.490 . S
C368 C370 1.395 . S
C368 C371 1.403 . S
H369 C375 0.930 . S
C370 H356 0.930 . S
C370 C368 1.395 . S
C370 C373 1.403 . S
C371 C368 1.403 . S
C371 C372 1.524 . S
C371 C375 1.400 . S
C372 H357 0.960 . S
C372 H358 0.960 . S
C372 H359 0.960 . S
C372 C371 1.524 . S
C373 C370 1.403 . S
C373 C374 1.392 . S
C373 C377 1.495 . S
C374 C373 1.392 . S
C374 C375 1.385 . S
C374 C376 1.478 . S
C375 H369 0.930 . S
C375 C371 1.400 . S
C375 C374 1.385 . S
C376 C374 1.478 . S
C376 C378 1.381 . S
C376 C382 1.383 . S
C377 C373 1.495 . S
C377 H383 0.959 . S
C377 H384 0.961 . S
C377 H385 0.960 . S
C378 C376 1.381 . S
C378 C379 1.394 . S
C378 H386 0.930 . S
C379 C378 1.394 . S
C379 C380 1.383 . S
C379 H387 0.929 . S
C380 C379 1.383 . S
C380 C381 1.377 . S
C381 H365 0.930 . S
C381 C380 1.377 . S
C381 C382 1.379 . S
C382 H366 0.931 . S
C382 C376 1.383 . S
C382 C381 1.379 . S
H383 C377 0.959 . S
H384 C377 0.961 . S
H385 C377 0.960 . S
H386 C378 0.930 . S
H387 C379 0.929 . S
H388 C396 0.929 . S
H389 C398 0.930 . S
H390 C400 0.930 . S
H391 C403 0.929 . S
H392 C406 0.930 . S
H393 C408 0.960 . S
H394 C408 0.960 . S
H395 C408 0.960 . S
C396 H388 0.929 . S
C396 C397 1.377 . S
C396 C398 1.384 . S
C397 C396 1.377 . S
C397 C403 1.390 . S
C398 H389 0.930 . S
C398 C396 1.384 . S
C398 C399 1.372 . S
C399 C398 1.372 . S
C399 C400 1.400 . S
C399 C404 1.490 . S
C400 H390 0.930 . S
C400 C399 1.400 . S
C400 C403 1.386 . S
H401 C417 0.930 . S
H402 C418 0.931 . S
C403 H391 0.929 . S
C403 C397 1.390 . S
C403 C400 1.386 . S
C404 C399 1.490 . S
C404 C406 1.395 . S
C404 C407 1.403 . S
H405 C411 0.930 . S
C406 H392 0.930 . S
C406 C404 1.395 . S
C406 C409 1.403 . S
C407 C404 1.403 . S
C407 C408 1.524 . S
C407 C411 1.400 . S
C408 H393 0.960 . S
C408 H394 0.960 . S
C408 H395 0.960 . S
C408 C407 1.524 . S
C409 C406 1.403 . S
C409 C410 1.392 . S
C409 C413 1.495 . S
C410 C409 1.392 . S
C410 C411 1.385 . S
C410 C412 1.478 . S
C411 H405 0.930 . S
C411 C407 1.400 . S
C411 C410 1.385 . S
C412 C410 1.478 . S
C412 C414 1.381 . S
C412 C418 1.383 . S
C413 C409 1.495 . S
C413 H419 0.959 . S
C413 H420 0.961 . S
C413 H421 0.960 . S
C414 C412 1.381 . S
C414 C415 1.394 . S
C414 H422 0.930 . S
C415 C414 1.394 . S
C415 C416 1.383 . S
C415 H423 0.929 . S
C416 C415 1.383 . S
C416 C417 1.377 . S
C417 H401 0.930 . S
C417 C416 1.377 . S
C417 C418 1.379 . S
C418 H402 0.931 . S
C418 C412 1.383 . S
C418 C417 1.379 . S
H419 C413 0.959 . S
H420 C413 0.961 . S
H421 C413 0.960 . S
H422 C414 0.930 . S
H423 C415 0.929 . S
H424 C432 0.929 . S
H425 C434 0.930 . S
H426 C436 0.930 . S
H427 C439 0.929 . S
H428 C442 0.930 . S
H429 C444 0.960 . S
H430 C444 0.960 . S
H431 C444 0.960 . S
C432 H424 0.929 . S
C432 C433 1.377 . S
C432 C434 1.384 . S
C433 C432 1.377 . S
C433 C439 1.390 . S
C434 H425 0.930 . S
C434 C432 1.384 . S
C434 C435 1.372 . S
C435 C434 1.372 . S
C435 C436 1.400 . S
C435 C440 1.490 . S
C436 H426 0.930 . S
C436 C435 1.400 . S
C436 C439 1.386 . S
H437 C453 0.930 . S
H438 C454 0.931 . S
C439 H427 0.929 . S
C439 C433 1.390 . S
C439 C436 1.386 . S
C440 C435 1.490 . S
C440 C442 1.395 . S
C440 C443 1.403 . S
H441 C447 0.930 . S
C442 H428 0.930 . S
C442 C440 1.395 . S
C442 C445 1.403 . S
C443 C440 1.403 . S
C443 C444 1.524 . S
C443 C447 1.400 . S
C444 H429 0.960 . S
C444 H430 0.960 . S
C444 H431 0.960 . S
C444 C443 1.524 . S
C445 C442 1.403 . S
C445 C446 1.392 . S
C445 C449 1.495 . S
C446 C445 1.392 . S
C446 C447 1.385 . S
C446 C448 1.478 . S
C447 H441 0.930 . S
C447 C443 1.400 . S
C447 C446 1.385 . S
C448 C446 1.478 . S
C448 C450 1.381 . S
C448 C454 1.383 . S
C449 C445 1.495 . S
C449 H455 0.959 . S
C449 H456 0.961 . S
C449 H457 0.960 . S
C450 C448 1.381 . S
C450 C451 1.394 . S
C450 H458 0.930 . S
C451 C450 1.394 . S
C451 C452 1.383 . S
C451 H459 0.929 . S
C452 C451 1.383 . S
C452 C453 1.377 . S
C453 H437 0.930 . S
C453 C452 1.377 . S
C453 C454 1.379 . S
C454 H438 0.931 . S
C454 C448 1.383 . S
C454 C453 1.379 . S
H455 C449 0.959 . S
H456 C449 0.961 . S
H457 C449 0.960 . S
H458 C450 0.930 . S
H459 C451 0.929 . S
H460 C468 0.929 . S
H461 C470 0.930 . S
H462 C472 0.930 . S
H463 C475 0.929 . S
H464 C478 0.930 . S
H465 C480 0.960 . S
H466 C480 0.960 . S
H467 C480 0.960 . S
C468 H460 0.929 . S
C468 C469 1.377 . S
C468 C470 1.384 . S
C469 C468 1.377 . S
C469 C475 1.390 . S
C470 H461 0.930 . S
C470 C468 1.384 . S
C470 C471 1.372 . S
C471 C470 1.372 . S
C471 C472 1.400 . S
C471 C476 1.490 . S
C472 H462 0.930 . S
C472 C471 1.400 . S
C472 C475 1.386 . S
H473 C489 0.930 . S
H474 C490 0.931 . S
C475 H463 0.929 . S
C475 C469 1.390 . S
C475 C472 1.386 . S
C476 C471 1.490 . S
C476 C478 1.395 . S
C476 C479 1.403 . S
H477 C483 0.930 . S
C478 H464 0.930 . S
C478 C476 1.395 . S
C478 C481 1.403 . S
C479 C476 1.403 . S
C479 C480 1.524 . S
C479 C483 1.400 . S
C480 H465 0.960 . S
C480 H466 0.960 . S
C480 H467 0.960 . S
C480 C479 1.524 . S
C481 C478 1.403 . S
C481 C482 1.392 . S
C481 C485 1.495 . S
C482 C481 1.392 . S
C482 C483 1.385 . S
C482 C484 1.478 . S
C483 H477 0.930 . S
C483 C479 1.400 . S
C483 C482 1.385 . S
C484 C482 1.478 . S
C484 C486 1.381 . S
C484 C490 1.383 . S
C485 C481 1.495 . S
C485 H491 0.959 . S
C485 H492 0.961 . S
C485 H493 0.960 . S
C486 C484 1.381 . S
C486 C487 1.394 . S
C486 H494 0.930 . S
C487 C486 1.394 . S
C487 C488 1.383 . S
C487 H495 0.929 . S
C488 C487 1.383 . S
C488 C489 1.377 . S
C489 H473 0.930 . S
C489 C488 1.377 . S
C489 C490 1.379 . S
C490 H474 0.931 . S
C490 C484 1.383 . S
C490 C489 1.379 . S
H491 C485 0.959 . S
H492 C485 0.961 . S
H493 C485 0.960 . S
H494 C486 0.930 . S
H495 C487 0.929 . S
H496 C504 0.929 . S
H497 C506 0.930 1_455 S
H498 C508 0.930 . S
H499 C511 0.929 . S
H500 C514 0.930 . S
H501 C516 0.960 . S
H502 C516 0.960 . S
H503 C516 0.960 . S
C504 H496 0.929 . S
C504 C505 1.377 . S
C504 C506 1.384 . S
C505 C504 1.377 . S
C505 C511 1.390 . S
C506 H497 0.930 1_655 S
C506 C504 1.384 . S
C506 C507 1.372 . S
C507 C506 1.372 . S
C507 C508 1.400 . S
C507 C512 1.490 . S
C508 H498 0.930 . S
C508 C507 1.400 . S
C508 C511 1.386 . S
H509 C525 0.930 . S
H510 C526 0.915 1_655 S
C511 H499 0.929 . S
C511 C505 1.390 . S
C511 C508 1.386 . S
C512 C507 1.490 . S
C512 C514 1.395 1_655 S
C512 C515 1.403 . S
H513 C519 0.930 . S
C514 H500 0.930 . S
C514 C512 1.395 1_455 S
C514 C517 1.403 . S
C515 C512 1.403 . S
C515 C516 1.524 . S
C515 C519 1.400 . S
C516 H501 0.960 . S
C516 H502 0.960 . S
C516 H503 0.960 . S
C516 C515 1.524 . S
C517 C514 1.403 . S
C517 C518 1.392 . S
C517 C521 1.495 . S
C518 C517 1.392 . S
C518 C519 1.385 1_455 S
C518 C520 1.478 . S
C519 H513 0.930 . S
C519 C515 1.400 . S
C519 C518 1.385 1_655 S
C520 C518 1.478 . S
C520 C522 1.381 . S
C520 C526 1.383 . S
C521 C517 1.495 . S
C521 H527 0.959 . S
C521 H528 0.961 . S
C521 H529 0.960 . S
C522 C520 1.381 . S
C522 C523 1.394 . S
C522 H530 0.930 . S
C523 C522 1.394 . S
C523 C524 1.383 . S
C523 H531 0.929 . S
C524 C523 1.383 . S
C524 C525 1.377 . S
C525 H509 0.930 . S
C525 C524 1.377 . S
C525 C526 1.379 . S
C526 H510 0.915 1_455 S
C526 C520 1.383 . S
C526 C525 1.379 . S
H527 C521 0.959 . S
H528 C521 0.961 . S
H529 C521 0.960 . S
H530 C522 0.930 . S
H531 C523 0.929 . S
H532 C540 0.929 . S
H533 C542 0.930 . S
H534 C544 0.930 . S
H535 C547 0.929 . S
H536 C550 0.930 . S
H537 C552 0.960 . S
H538 C552 0.960 . S
H539 C552 0.960 . S
C540 H532 0.929 . S
C540 C541 1.377 . S
C540 C542 1.384 . S
C541 C540 1.377 . S
C541 C547 1.390 . S
C542 H533 0.930 . S
C542 C540 1.384 . S
C542 C543 1.372 . S
C543 C542 1.372 . S
C543 C544 1.400 . S
C543 C548 1.490 . S
C544 H534 0.930 . S
C544 C543 1.400 . S
C544 C547 1.386 . S
H545 C561 0.930 . S
H546 C562 0.931 . S
C547 H535 0.929 . S
C547 C541 1.390 . S
C547 C544 1.386 . S
C548 C543 1.490 . S
C548 C550 1.395 . S
C548 C551 1.403 . S
H549 C555 0.930 . S
C550 H536 0.930 . S
C550 C548 1.395 . S
C550 C553 1.403 . S
C551 C548 1.403 . S
C551 C552 1.524 . S
C551 C555 1.400 . S
C552 H537 0.960 . S
C552 H538 0.960 . S
C552 H539 0.960 . S
C552 C551 1.524 . S
C553 C550 1.403 . S
C553 C554 1.392 . S
C553 C557 1.495 . S
C554 C553 1.392 . S
C554 C555 1.385 . S
C554 C556 1.478 . S
C555 H549 0.930 . S
C555 C551 1.400 . S
C555 C554 1.385 . S
C556 C554 1.478 . S
C556 C558 1.381 . S
C556 C562 1.383 . S
C557 C553 1.495 . S
C557 H563 0.959 . S
C557 H564 0.961 . S
C557 H565 0.955 1_565 S
C558 C556 1.381 . S
C558 C559 1.394 . S
C558 H566 0.930 . S
C559 C558 1.394 . S
C559 C560 1.383 . S
C559 H567 0.929 . S
C560 C559 1.383 . S
C560 C561 1.377 . S
C561 H545 0.930 . S
C561 C560 1.377 . S
C561 C562 1.379 . S
C562 H546 0.931 . S
C562 C556 1.383 . S
C562 C561 1.379 . S
H563 C557 0.959 . S
H564 C557 0.961 . S
H565 C557 0.955 1_545 S
H566 C558 0.930 . S
H567 C559 0.929 . S
H568 C576 0.929 1_655 S
H569 C578 0.930 . S
H570 C580 0.930 . S
H571 C583 0.929 . S
H572 C586 0.930 . S
H573 C588 0.960 1_545 S
H574 C588 0.960 1_545 S
H575 C588 0.960 . S
C576 H568 0.929 1_455 S
C576 C577 1.377 . S
C576 C578 1.384 1_455 S
C577 C576 1.377 . S
C577 C583 1.390 . S
C578 H569 0.930 . S
C578 C576 1.384 1_655 S
C578 C579 1.372 1_655 S
C579 C578 1.372 1_455 S
C579 C580 1.400 . S
C579 C584 1.490 . S
C580 H570 0.930 . S
C580 C579 1.400 . S
C580 C583 1.386 . S
H581 C597 0.930 1_455 S
H582 C598 0.897 1_455 S
C583 H571 0.929 . S
C583 C577 1.390 . S
C583 C580 1.386 . S
C584 C579 1.490 . S
C584 C586 1.395 1_455 S
C584 C587 1.403 . S
H585 C591 0.930 . S
C586 H572 0.930 . S
C586 C584 1.395 1_655 S
C586 C589 1.403 . S
C587 C584 1.403 . S
C587 C588 1.524 . S
C587 C591 1.400 . S
C588 H573 0.960 1_565 S
C588 H574 0.960 1_565 S
C588 H575 0.960 . S
C588 C587 1.524 . S
C589 C586 1.403 . S
C589 C590 1.392 . S
C589 C593 1.495 . S
C590 C589 1.392 . S
C590 C591 1.385 1_655 S
C590 C592 1.478 . S
C591 H585 0.930 . S
C591 C587 1.400 . S
C591 C590 1.385 1_455 S
C592 C590 1.478 . S
C592 C594 1.381 . S
C592 C598 1.407 . S
C593 C589 1.495 . S
C593 H599 0.959 . S
C593 H600 0.961 . S
C593 H601 0.960 . S
C594 C592 1.381 . S
C594 C595 1.394 . S
C594 H602 0.930 . S
C595 C594 1.394 . S
C595 C596 1.383 . S
C595 H603 0.929 . S
C596 C595 1.383 . S
C596 C597 1.377 . S
C597 H581 0.930 1_655 S
C597 C596 1.377 . S
C597 C598 1.390 . S
C598 H582 0.897 1_655 S
C598 C592 1.407 . S
C598 C597 1.390 . S
H599 C593 0.959 . S
H600 C593 0.961 . S
H601 C593 0.960 . S
H602 C594 0.930 . S
H603 C595 0.929 . S
H604 C612 0.929 . S
H605 C614 0.930 . S
H606 C616 0.930 . S
H607 C619 0.929 . S
H608 C622 0.930 . S
H609 C624 0.960 1_565 S
H610 C624 0.960 . S
H611 C624 0.960 1_565 S
C612 H604 0.929 . S
C612 C613 1.377 . S
C612 C614 1.384 . S
C613 C612 1.377 . S
C613 C619 1.390 . S
C614 H605 0.930 . S
C614 C612 1.384 . S
C614 C615 1.372 . S
C615 C614 1.372 . S
C615 C616 1.400 . S
C615 C620 1.490 . S
C616 H606 0.930 . S
C616 C615 1.400 . S
C616 C619 1.386 . S
H617 C633 0.930 . S
H618 C634 0.931 . S
C619 H607 0.929 . S
C619 C613 1.390 . S
C619 C616 1.386 . S
C620 C615 1.490 . S
C620 C622 1.395 . S
C620 C623 1.403 . S
H621 C627 0.930 . S
C622 H608 0.930 . S
C622 C620 1.395 . S
C622 C625 1.403 . S
C623 C620 1.403 . S
C623 C624 1.524 . S
C623 C627 1.400 . S
C624 H609 0.960 1_545 S
C624 H610 0.960 . S
C624 H611 0.960 1_545 S
C624 C623 1.524 . S
C625 C622 1.403 . S
C625 C626 1.392 . S
C625 C629 1.495 . S
C626 C625 1.392 . S
C626 C627 1.385 . S
C626 C628 1.478 . S
C627 H621 0.930 . S
C627 C623 1.400 . S
C627 C626 1.385 . S
C628 C626 1.478 . S
C628 C630 1.381 . S
C628 C634 1.383 . S
C629 C625 1.495 . S
C629 H635 0.959 . S
C629 H636 0.961 . S
C629 H637 0.960 . S
C630 C628 1.381 . S
C630 C631 1.394 . S
C630 H638 0.930 . S
C631 C630 1.394 . S
C631 C632 1.383 . S
C631 H639 0.929 . S
C632 C631 1.383 . S
C632 C633 1.377 . S
C633 H617 0.930 . S
C633 C632 1.377 . S
C633 C634 1.379 . S
C634 H618 0.931 . S
C634 C628 1.383 . S
C634 C633 1.379 . S
H635 C629 0.959 . S
H636 C629 0.961 . S
H637 C629 0.960 . S
H638 C630 0.930 . S
H639 C631 0.929 . S
H640 C648 0.929 . S
H641 C650 0.930 . S
H642 C652 0.930 . S
H643 C655 0.929 . S
H644 C658 0.930 . S
H645 C660 0.960 . S
H646 C660 0.960 . S
H647 C660 0.960 . S
C648 H640 0.929 . S
C648 C649 1.377 . S
C648 C650 1.384 . S
C649 C648 1.377 . S
C649 C655 1.390 . S
C650 H641 0.930 . S
C650 C648 1.384 . S
C650 C651 1.372 . S
C651 C650 1.372 . S
C651 C652 1.400 . S
C651 C656 1.490 . S
C652 H642 0.930 . S
C652 C651 1.400 . S
C652 C655 1.386 . S
H653 C669 0.930 . S
H654 C670 0.931 . S
C655 H643 0.929 . S
C655 C649 1.390 . S
C655 C652 1.386 . S
C656 C651 1.490 . S
C656 C658 1.395 . S
C656 C659 1.403 . S
H657 C663 0.930 . S
C658 H644 0.930 . S
C658 C656 1.395 . S
C658 C661 1.403 . S
C659 C656 1.403 . S
C659 C660 1.524 . S
C659 C663 1.400 . S
C660 H645 0.960 . S
C660 H646 0.960 . S
C660 H647 0.960 . S
C660 C659 1.524 . S
C661 C658 1.403 . S
C661 C662 1.392 . S
C661 C665 1.495 . S
C662 C661 1.392 . S
C662 C663 1.385 . S
C662 C664 1.478 . S
C663 H657 0.930 . S
C663 C659 1.400 . S
C663 C662 1.385 . S
C664 C662 1.478 . S
C664 C666 1.381 . S
C664 C670 1.383 . S
C665 C661 1.495 . S
C665 H671 0.959 . S
C665 H672 0.961 . S
C665 H673 0.960 . S
C666 C664 1.381 . S
C666 C667 1.394 . S
C666 H674 0.930 . S
C667 C666 1.394 . S
C667 C668 1.383 . S
C667 H675 0.929 . S
C668 C667 1.383 . S
C668 C669 1.377 . S
C669 H653 0.930 . S
C669 C668 1.377 . S
C669 C670 1.379 . S
C670 H654 0.931 . S
C670 C664 1.383 . S
C670 C669 1.379 . S
H671 C665 0.959 . S
H672 C665 0.961 . S
H673 C665 0.960 . S
H674 C666 0.930 . S
H675 C667 0.929 . S
H676 C684 0.929 . S
H677 C686 0.930 . S
H678 C688 0.930 . S
H679 C691 0.929 . S
H680 C694 0.930 . S
H681 C696 0.960 . S
H682 C696 0.960 . S
H683 C696 0.960 . S
C684 H676 0.929 . S
C684 C685 1.377 . S
C684 C686 1.384 . S
C685 C684 1.377 . S
C685 C691 1.390 . S
C686 H677 0.930 . S
C686 C684 1.384 . S
C686 C687 1.372 . S
C687 C686 1.372 . S
C687 C688 1.400 . S
C687 C692 1.490 . S
C688 H678 0.930 . S
C688 C687 1.400 . S
C688 C691 1.386 . S
H689 C705 0.930 . S
H690 C706 0.931 . S
C691 H679 0.929 . S
C691 C685 1.390 . S
C691 C688 1.386 . S
C692 C687 1.490 . S
C692 C694 1.395 1_455 S
C692 C695 1.403 . S
H693 C699 0.930 . S
C694 H680 0.930 . S
C694 C692 1.395 1_655 S
C694 C697 1.403 . S
C695 C692 1.403 . S
C695 C696 1.524 . S
C695 C699 1.400 . S
C696 H681 0.960 . S
C696 H682 0.960 . S
C696 H683 0.960 . S
C696 C695 1.524 . S
C697 C694 1.403 . S
C697 C698 1.392 . S
C697 C701 1.495 . S
C698 C697 1.392 . S
C698 C699 1.385 1_655 S
C698 C700 1.478 . S
C699 H693 0.930 . S
C699 C695 1.400 . S
C699 C698 1.385 1_455 S
C700 C698 1.478 . S
C700 C702 1.381 . S
C700 C706 1.383 . S
C701 C697 1.495 . S
C701 H707 0.959 . S
C701 H708 0.961 . S
C701 H709 0.960 . S
C702 C700 1.381 . S
C702 C703 1.394 . S
C702 H710 0.930 . S
C703 C702 1.394 . S
C703 C704 1.383 . S
C703 H711 0.929 . S
C704 C703 1.383 . S
C704 C705 1.377 . S
C705 H689 0.930 . S
C705 C704 1.377 . S
C705 C706 1.379 . S
C706 H690 0.931 . S
C706 C700 1.383 . S
C706 C705 1.379 . S
H707 C701 0.959 . S
H708 C701 0.961 . S
H709 C701 0.960 . S
H710 C702 0.930 . S
H711 C703 0.929 . S
H712 C720 0.929 . S
H713 C722 0.930 . S
H714 C724 0.930 . S
H715 C727 0.929 . S
H716 C730 0.930 . S
H717 C732 0.960 . S
H718 C732 0.960 . S
H719 C732 0.960 . S
C720 H712 0.929 . S
C720 C721 1.377 . S
C720 C722 1.384 . S
C721 C720 1.377 . S
C721 C727 1.390 . S
C722 H713 0.930 . S
C722 C720 1.384 . S
C722 C723 1.372 . S
C723 C722 1.372 . S
C723 C724 1.400 . S
C723 C728 1.490 . S
C724 H714 0.930 . S
C724 C723 1.400 . S
C724 C727 1.386 . S
H725 C741 0.930 . S
H726 C742 0.931 . S
C727 H715 0.929 . S
C727 C721 1.390 . S
C727 C724 1.386 . S
C728 C723 1.490 . S
C728 C730 1.395 . S
C728 C731 1.403 . S
H729 C735 0.930 . S
C730 H716 0.930 . S
C730 C728 1.395 . S
C730 C733 1.403 . S
C731 C728 1.403 . S
C731 C732 1.524 . S
C731 C735 1.400 . S
C732 H717 0.960 . S
C732 H718 0.960 . S
C732 H719 0.960 . S
C732 C731 1.524 . S
C733 C730 1.403 . S
C733 C734 1.392 . S
C733 C737 1.495 . S
C734 C733 1.392 . S
C734 C735 1.385 . S
C734 C736 1.478 . S
C735 H729 0.930 . S
C735 C731 1.400 . S
C735 C734 1.385 . S
C736 C734 1.478 . S
C736 C738 1.381 . S
C736 C742 1.383 . S
C737 C733 1.495 . S
C737 H743 0.959 . S
C737 H744 0.961 . S
C737 H745 0.960 . S
C738 C736 1.381 . S
C738 C739 1.394 . S
C738 H746 0.930 . S
C739 C738 1.394 . S
C739 C740 1.383 . S
C739 H747 0.929 . S
C740 C739 1.383 . S
C740 C741 1.377 . S
C741 H725 0.930 . S
C741 C740 1.377 . S
C741 C742 1.379 . S
C742 H726 0.931 . S
C742 C736 1.383 . S
C742 C741 1.379 . S
H743 C737 0.959 . S
H744 C737 0.961 . S
H745 C737 0.960 . S
H746 C738 0.930 . S
H747 C739 0.929 . S
H748 C756 0.929 . S
H749 C758 0.930 . S
H750 C760 0.928 . S
H751 C763 0.929 1_655 S
H752 C766 0.930 . S
H753 C768 0.960 . S
H754 C768 0.962 1_455 S
H755 C768 0.960 . S
C756 H748 0.929 . S
C756 C757 1.377 . S
C756 C758 1.384 . S
C757 C756 1.377 . S
C757 C763 1.390 . S
C758 H749 0.930 . S
C758 C756 1.384 . S
C758 C759 1.372 . S
C759 C758 1.372 . S
C759 C760 1.401 1_455 S
C759 C764 1.490 . S
C760 H750 0.928 . S
C760 C759 1.401 1_655 S
C760 C763 1.386 1_655 S
H761 C777 0.930 . S
H762 C778 0.931 . S
C763 H751 0.929 1_455 S
C763 C757 1.390 . S
C763 C760 1.386 1_455 S
C764 C759 1.490 . S
C764 C766 1.395 . S
C764 C767 1.403 1_455 S
H765 C771 0.930 . S
C766 H752 0.930 . S
C766 C764 1.395 . S
C766 C769 1.403 . S
C767 C764 1.403 1_655 S
C767 C768 1.524 . S
C767 C771 1.400 . S
C768 H753 0.960 . S
C768 H754 0.962 1_655 S
C768 H755 0.960 . S
C768 C767 1.524 . S
C769 C766 1.403 . S
C769 C770 1.392 1_455 S
C769 C773 1.495 . S
C770 C769 1.392 1_655 S
C770 C771 1.385 . S
C770 C772 1.478 . S
C771 H765 0.930 . S
C771 C767 1.400 . S
C771 C770 1.385 . S
C772 C770 1.478 . S
C772 C774 1.381 1_655 S
C772 C778 1.383 . S
C773 C769 1.495 . S
C773 H779 0.959 . S
C773 H780 0.961 . S
C773 H781 0.960 . S
C774 C772 1.381 1_455 S
C774 C775 1.394 1_455 S
C774 H782 0.930 . S
C775 C774 1.394 1_655 S
C775 C776 1.383 . S
C775 H783 0.929 1_655 S
C776 C775 1.383 . S
C776 C777 1.377 . S
C777 H761 0.930 . S
C777 C776 1.377 . S
C777 C778 1.379 . S
C778 H762 0.931 . S
C778 C772 1.383 . S
C778 C777 1.379 . S
H779 C773 0.959 . S
H780 C773 0.961 . S
H781 C773 0.960 . S
H782 C774 0.930 . S
H783 C775 0.929 1_455 S
H784 C792 0.929 . S
H785 C794 0.930 . S
H786 C796 0.930 1_655 S
H787 C799 0.929 . S
H788 C802 0.930 . S
H789 C804 0.960 . S
H790 C804 0.960 . S
H791 C804 0.960 . S
C792 H784 0.929 . S
C792 C793 1.377 . S
C792 C794 1.384 . S
C793 C792 1.377 . S
C793 C799 1.390 . S
C794 H785 0.930 . S
C794 C792 1.384 . S
C794 C795 1.372 . S
C795 C794 1.372 . S
C795 C796 1.400 . S
C795 C800 1.490 . S
C796 H786 0.930 1_455 S
C796 C795 1.400 . S
C796 C799 1.386 . S
H797 C813 0.930 . S
H798 C814 0.931 . S
C799 H787 0.929 . S
C799 C793 1.390 . S
C799 C796 1.386 . S
C800 C795 1.490 . S
C800 C802 1.395 . S
C800 C803 1.403 1_455 S
H801 C807 0.930 . S
C802 H788 0.930 . S
C802 C800 1.395 . S
C802 C805 1.403 . S
C803 C800 1.403 1_655 S
C803 C804 1.524 . S
C803 C807 1.400 . S
C804 H789 0.960 . S
C804 H790 0.960 . S
C804 H791 0.960 . S
C804 C803 1.524 . S
C805 C802 1.403 . S
C805 C806 1.392 1_455 S
C805 C809 1.495 . S
C806 C805 1.392 1_655 S
C806 C807 1.385 . S
C806 C808 1.478 . S
C807 H801 0.930 . S
C807 C803 1.400 . S
C807 C806 1.385 . S
C808 C806 1.478 . S
C808 C810 1.381 . S
C808 C814 1.383 . S
C809 C805 1.495 . S
C809 H815 0.959 . S
C809 H816 0.961 . S
C809 H817 0.960 . S
C810 C808 1.381 . S
C810 C811 1.394 . S
C810 H818 0.930 1_655 S
C811 C810 1.394 . S
C811 C812 1.383 . S
C811 H819 0.929 . S
C812 C811 1.383 . S
C812 C813 1.377 . S
C813 H797 0.930 . S
C813 C812 1.377 . S
C813 C814 1.379 . S
C814 H798 0.931 . S
C814 C808 1.383 . S
C814 C813 1.379 . S
H815 C809 0.959 . S
H816 C809 0.961 . S
H817 C809 0.960 . S
H818 C810 0.930 1_455 S
H819 C811 0.929 . S
H820 C828 0.929 . S
H821 C830 0.930 . S
H822 C832 0.930 . S
H823 C835 0.929 . S
H824 C838 0.930 . S
H825 C840 0.960 . S
H826 C840 0.960 . S
H827 C840 0.960 . S
C828 H820 0.929 . S
C828 C829 1.377 . S
C828 C830 1.384 . S
C829 C828 1.377 . S
C829 C835 1.390 . S
C830 H821 0.930 . S
C830 C828 1.384 . S
C830 C831 1.372 . S
C831 C830 1.372 . S
C831 C832 1.400 . S
C831 C836 1.490 . S
C832 H822 0.930 . S
C832 C831 1.400 . S
C832 C835 1.386 . S
H833 C849 0.930 . S
H834 C850 0.931 . S
C835 H823 0.929 . S
C835 C829 1.390 . S
C835 C832 1.386 . S
C836 C831 1.490 . S
C836 C838 1.395 . S
C836 C839 1.403 . S
H837 C843 0.930 . S
C838 H824 0.930 . S
C838 C836 1.395 . S
C838 C841 1.403 . S
C839 C836 1.403 . S
C839 C840 1.524 . S
C839 C843 1.400 . S
C840 H825 0.960 . S
C840 H826 0.960 . S
C840 H827 0.960 . S
C840 C839 1.524 . S
C841 C838 1.403 . S
C841 C842 1.392 . S
C841 C845 1.495 . S
C842 C841 1.392 . S
C842 C843 1.385 . S
C842 C844 1.478 . S
C843 H837 0.930 . S
C843 C839 1.400 . S
C843 C842 1.385 . S
C844 C842 1.478 . S
C844 C846 1.381 . S
C844 C850 1.383 . S
C845 C841 1.495 . S
C845 H851 0.959 . S
C845 H852 0.961 . S
C845 H853 0.960 . S
C846 C844 1.381 . S
C846 C847 1.394 . S
C846 H854 0.930 . S
C847 C846 1.394 . S
C847 C848 1.383 . S
C847 H855 0.929 . S
C848 C847 1.383 . S
C848 C849 1.377 . S
C849 H833 0.930 . S
C849 C848 1.377 . S
C849 C850 1.379 . S
C850 H834 0.931 . S
C850 C844 1.383 . S
C850 C849 1.379 . S
H851 C845 0.959 . S
H852 C845 0.961 . S
H853 C845 0.960 . S
H854 C846 0.930 . S
H855 C847 0.929 . S
H856 C864 0.929 . S
H857 C866 0.930 . S
H858 C868 0.930 . S
H859 C871 0.929 . S
H860 C874 0.930 . S
H861 C876 0.960 . S
H862 C876 0.960 . S
H863 C876 0.960 . S
C864 H856 0.929 . S
C864 C865 1.377 . S
C864 C866 1.384 . S
C865 C864 1.377 . S
C865 C871 1.390 . S
C866 H857 0.930 . S
C866 C864 1.384 . S
C866 C867 1.372 . S
C867 C866 1.372 . S
C867 C868 1.400 . S
C867 C872 1.490 . S
C868 H858 0.930 . S
C868 C867 1.400 . S
C868 C871 1.386 . S
H869 C885 0.930 . S
H870 C886 0.931 . S
C871 H859 0.929 . S
C871 C865 1.390 . S
C871 C868 1.386 . S
C872 C867 1.490 . S
C872 C874 1.395 . S
C872 C875 1.403 . S
H873 C879 0.930 . S
C874 H860 0.930 . S
C874 C872 1.395 . S
C874 C877 1.403 . S
C875 C872 1.403 . S
C875 C876 1.524 . S
C875 C879 1.400 . S
C876 H861 0.960 . S
C876 H862 0.960 . S
C876 H863 0.960 . S
C876 C875 1.524 . S
C877 C874 1.403 . S
C877 C878 1.392 . S
C877 C881 1.495 . S
C878 C877 1.392 . S
C878 C879 1.385 . S
C878 C880 1.478 . S
C879 H873 0.930 . S
C879 C875 1.400 . S
C879 C878 1.385 . S
C880 C878 1.478 . S
C880 C882 1.381 . S
C880 C886 1.383 . S
C881 C877 1.495 . S
C881 H887 0.959 . S
C881 H888 0.961 . S
C881 H889 0.960 . S
C882 C880 1.381 . S
C882 C883 1.394 . S
C882 H890 0.930 . S
C883 C882 1.394 . S
C883 C884 1.383 . S
C883 H891 0.929 . S
C884 C883 1.383 . S
C884 C885 1.377 . S
C885 H869 0.930 . S
C885 C884 1.377 . S
C885 C886 1.379 . S
C886 H870 0.931 . S
C886 C880 1.383 . S
C886 C885 1.379 . S
H887 C881 0.959 . S
H888 C881 0.961 . S
H889 C881 0.960 . S
H890 C882 0.930 . S
H891 C883 0.929 . S
H892 C900 0.929 . S
H893 C902 0.930 . S
H894 C904 0.930 . S
H895 C907 0.929 . S
H896 C910 0.930 . S
H897 C912 0.960 . S
H898 C912 0.960 . S
H899 C912 0.960 . S
C900 H892 0.929 . S
C900 C901 1.377 . S
C900 C902 1.384 . S
C901 C900 1.377 . S
C901 C907 1.390 . S
C902 H893 0.930 . S
C902 C900 1.384 . S
C902 C903 1.372 . S
C903 C902 1.372 . S
C903 C904 1.400 . S
C903 C908 1.490 . S
C904 H894 0.930 . S
C904 C903 1.400 . S
C904 C907 1.386 . S
H905 C921 0.930 . S
H906 C922 0.931 . S
C907 H895 0.929 . S
C907 C901 1.390 . S
C907 C904 1.386 . S
C908 C903 1.490 . S
C908 C910 1.395 . S
C908 C911 1.403 1_455 S
H909 C915 0.930 . S
C910 H896 0.930 . S
C910 C908 1.395 . S
C910 C913 1.403 . S
C911 C908 1.403 1_655 S
C911 C912 1.524 . S
C911 C915 1.400 . S
C912 H897 0.960 . S
C912 H898 0.960 . S
C912 H899 0.960 . S
C912 C911 1.524 . S
C913 C910 1.403 . S
C913 C914 1.392 1_455 S
C913 C917 1.495 . S
C914 C913 1.392 1_655 S
C914 C915 1.385 . S
C914 C916 1.478 . S
C915 H909 0.930 . S
C915 C911 1.400 . S
C915 C914 1.385 . S
C916 C914 1.478 . S
C916 C918 1.381 . S
C916 C922 1.383 . S
C917 C913 1.495 . S
C917 H923 0.959 . S
C917 H924 0.961 . S
C917 H925 0.960 . S
C918 C916 1.381 . S
C918 C919 1.394 . S
C918 H926 0.930 . S
C919 C918 1.394 . S
C919 C920 1.383 . S
C919 H927 0.929 . S
C920 C919 1.383 . S
C920 C921 1.377 . S
C921 H905 0.930 . S
C921 C920 1.377 . S
C921 C922 1.379 . S
C922 H906 0.931 . S
C922 C916 1.383 . S
C922 C921 1.379 . S
H923 C917 0.959 . S
H924 C917 0.961 . S
H925 C917 0.960 . S
H926 C918 0.930 . S
H927 C919 0.929 . S
H928 C936 0.929 . S
H929 C938 0.930 . S
H930 C940 0.930 . S
H931 C943 0.929 . S
H932 C946 0.930 . S
H933 C948 0.960 . S
H934 C948 0.960 . S
H935 C948 0.960 . S
C936 H928 0.929 . S
C936 C937 1.377 . S
C936 C938 1.384 . S
C937 C936 1.377 . S
C937 C943 1.390 . S
C938 H929 0.930 . S
C938 C936 1.384 . S
C938 C939 1.372 . S
C939 C938 1.372 . S
C939 C940 1.400 . S
C939 C944 1.490 . S
C940 H930 0.930 . S
C940 C939 1.400 . S
C940 C943 1.386 . S
H941 C957 0.930 . S
H942 C958 0.931 . S
C943 H931 0.929 . S
C943 C937 1.390 . S
C943 C940 1.386 . S
C944 C939 1.490 . S
C944 C946 1.395 1_455 S
C944 C947 1.403 . S
H945 C951 0.930 . S
C946 H932 0.930 . S
C946 C944 1.395 1_655 S
C946 C949 1.403 . S
C947 C944 1.403 . S
C947 C948 1.524 . S
C947 C951 1.400 . S
C948 H933 0.960 . S
C948 H934 0.960 . S
C948 H935 0.960 . S
C948 C947 1.524 . S
C949 C946 1.403 . S
C949 C950 1.392 . S
C949 C953 1.495 . S
C950 C949 1.392 . S
C950 C951 1.385 1_655 S
C950 C952 1.478 . S
C951 H945 0.930 . S
C951 C947 1.400 . S
C951 C950 1.385 1_455 S
C952 C950 1.478 . S
C952 C954 1.381 . S
C952 C958 1.383 . S
C953 C949 1.495 . S
C953 H959 0.959 . S
C953 H960 0.961 . S
C953 H961 0.960 . S
C954 C952 1.381 . S
C954 C955 1.394 . S
C954 H962 0.930 . S
C955 C954 1.394 . S
C955 C956 1.383 . S
C955 H963 0.929 . S
C956 C955 1.383 . S
C956 C957 1.377 . S
C957 H941 0.930 . S
C957 C956 1.377 . S
C957 C958 1.379 . S
C958 H942 0.931 . S
C958 C952 1.383 . S
C958 C957 1.379 . S
H959 C953 0.959 . S
H960 C953 0.961 . S
H961 C953 0.960 . S
H962 C954 0.930 . S
H963 C955 0.929 . S
H964 C972 0.929 . S
H965 C974 0.930 . S
H966 C976 0.930 . S
H967 C979 0.929 . S
H968 C982 0.930 . S
H969 C984 0.960 . S
H970 C984 0.960 . S
H971 C984 0.960 . S
C972 H964 0.929 . S
C972 C973 1.377 . S
C972 C974 1.384 . S
C973 C972 1.377 . S
C973 C979 1.390 . S
C974 H965 0.930 . S
C974 C972 1.384 . S
C974 C975 1.372 . S
C975 C974 1.372 . S
C975 C976 1.400 . S
C975 C980 1.490 . S
C976 H966 0.930 . S
C976 C975 1.400 . S
C976 C979 1.386 . S
H977 C993 0.930 . S
H978 C994 0.931 . S
C979 H967 0.929 . S
C979 C973 1.390 . S
C979 C976 1.386 . S
C980 C975 1.490 . S
C980 C982 1.395 . S
C980 C983 1.403 . S
H981 C987 0.930 . S
C982 H968 0.930 . S
C982 C980 1.395 . S
C982 C985 1.403 . S
C983 C980 1.403 . S
C983 C984 1.524 . S
C983 C987 1.400 . S
C984 H969 0.960 . S
C984 H970 0.960 . S
C984 H971 0.960 . S
C984 C983 1.524 . S
C985 C982 1.403 . S
C985 C986 1.392 . S
C985 C989 1.495 . S
C986 C985 1.392 . S
C986 C987 1.385 . S
C986 C988 1.478 . S
C987 H981 0.930 . S
C987 C983 1.400 . S
C987 C986 1.385 . S
C988 C986 1.478 . S
C988 C990 1.381 . S
C988 C994 1.383 . S
C989 C985 1.495 . S
C989 H995 0.959 . S
C989 H996 0.961 . S
C989 H997 0.960 . S
C990 C988 1.381 . S
C990 C991 1.394 . S
C990 H998 0.930 . S
C991 C990 1.394 . S
C991 C992 1.383 . S
C991 H999 0.929 . S
C992 C991 1.383 . S
C992 C993 1.377 . S
C993 H977 0.930 . S
C993 C992 1.377 . S
C993 C994 1.379 . S
C994 H978 0.931 . S
C994 C988 1.383 . S
C994 C993 1.379 . S
H995 C989 0.959 . S
H996 C989 0.961 . S
H997 C989 0.960 . S
H998 C990 0.930 . S
H999 C991 0.929 . S
H1000 C1008 0.929 . S
H1001 C1010 0.930 . S
H1002 C1012 0.930 . S
H1003 C1015 0.929 . S
H1004 C1018 0.930 . S
H1005 C1020 0.960 . S
H1006 C1020 0.960 . S
H1007 C1020 0.960 . S
C1008 H1000 0.929 . S
C1008 C1009 1.377 . S
C1008 C1010 1.384 . S
C1009 C1008 1.377 . S
C1009 C1015 1.390 . S
C1010 H1001 0.930 . S
C1010 C1008 1.384 . S
C1010 C1011 1.372 . S
C1011 C1010 1.372 . S
C1011 C1012 1.400 . S
C1011 C1016 1.490 . S
C1012 H1002 0.930 . S
C1012 C1011 1.400 . S
C1012 C1015 1.386 . S
H1013 C1029 0.930 . S
H1014 C1030 0.931 . S
C1015 H1003 0.929 . S
C1015 C1009 1.390 . S
C1015 C1012 1.386 . S
C1016 C1011 1.490 . S
C1016 C1018 1.395 . S
C1016 C1019 1.403 . S
H1017 C1023 0.930 . S
C1018 H1004 0.930 . S
C1018 C1016 1.395 . S
C1018 C1021 1.403 . S
C1019 C1016 1.403 . S
C1019 C1020 1.524 . S
C1019 C1023 1.400 . S
C1020 H1005 0.960 . S
C1020 H1006 0.960 . S
C1020 H1007 0.960 . S
C1020 C1019 1.524 . S
C1021 C1018 1.403 . S
C1021 C1022 1.392 . S
C1021 C1025 1.495 . S
C1022 C1021 1.392 . S
C1022 C1023 1.385 . S
C1022 C1024 1.478 . S
C1023 H1017 0.930 . S
C1023 C1019 1.400 . S
C1023 C1022 1.385 . S
C1024 C1022 1.478 . S
C1024 C1026 1.381 . S
C1024 C1030 1.383 . S
C1025 C1021 1.495 . S
C1025 H1031 0.959 . S
C1025 H1032 0.961 . S
C1025 H1033 0.960 . S
C1026 C1024 1.381 . S
C1026 C1027 1.394 . S
C1026 H1034 0.930 . S
C1027 C1026 1.394 . S
C1027 C1028 1.383 . S
C1027 H1035 0.929 . S
C1028 C1027 1.383 . S
C1028 C1029 1.377 . S
C1029 H1013 0.930 . S
C1029 C1028 1.377 . S
C1029 C1030 1.379 . S
C1030 H1014 0.931 . S
C1030 C1024 1.383 . S
C1030 C1029 1.379 . S
H1031 C1025 0.959 . S
H1032 C1025 0.961 . S
H1033 C1025 0.960 . S
H1034 C1026 0.930 . S
H1035 C1027 0.929 . S
H1036 C1044 0.929 . S
H1037 C1046 0.930 . S
H1038 C1048 0.930 1_655 S
H1039 C1051 0.929 . S
H1040 C1054 0.930 . S
H1041 C1056 0.960 . S
H1042 C1056 0.960 . S
H1043 C1056 0.960 . S
C1044 H1036 0.929 . S
C1044 C1045 1.377 . S
C1044 C1046 1.384 . S
C1045 C1044 1.377 . S
C1045 C1051 1.390 . S
C1046 H1037 0.930 . S
C1046 C1044 1.384 . S
C1046 C1047 1.372 . S
C1047 C1046 1.372 . S
C1047 C1048 1.400 . S
C1047 C1052 1.490 . S
C1048 H1038 0.930 1_455 S
C1048 C1047 1.400 . S
C1048 C1051 1.386 . S
H1049 C1065 0.930 . S
H1050 C1066 0.931 . S
C1051 H1039 0.929 . S
C1051 C1045 1.390 . S
C1051 C1048 1.386 . S
C1052 C1047 1.490 . S
C1052 C1054 1.395 . S
C1052 C1055 1.403 1_455 S
H1053 C1059 0.930 . S
C1054 H1040 0.930 . S
C1054 C1052 1.395 . S
C1054 C1057 1.403 . S
C1055 C1052 1.403 1_655 S
C1055 C1056 1.524 . S
C1055 C1059 1.400 . S
C1056 H1041 0.960 . S
C1056 H1042 0.960 . S
C1056 H1043 0.960 . S
C1056 C1055 1.524 . S
C1057 C1054 1.403 . S
C1057 C1058 1.392 1_455 S
C1057 C1061 1.495 . S
C1058 C1057 1.392 1_655 S
C1058 C1059 1.385 . S
C1058 C1060 1.478 . S
C1059 H1053 0.930 . S
C1059 C1055 1.400 . S
C1059 C1058 1.385 . S
C1060 C1058 1.478 . S
C1060 C1062 1.381 . S
C1060 C1066 1.383 . S
C1061 C1057 1.495 . S
C1061 H1067 0.959 . S
C1061 H1068 0.961 . S
C1061 H1069 0.960 . S
C1062 C1060 1.381 . S
C1062 C1063 1.394 . S
C1062 H1070 0.930 1_655 S
C1063 C1062 1.394 . S
C1063 C1064 1.383 . S
C1063 H1071 0.929 . S
C1064 C1063 1.383 . S
C1064 C1065 1.377 . S
C1065 H1049 0.930 . S
C1065 C1064 1.377 . S
C1065 C1066 1.379 . S
C1066 H1050 0.931 . S
C1066 C1060 1.383 . S
C1066 C1065 1.379 . S
H1067 C1061 0.959 . S
H1068 C1061 0.961 . S
H1069 C1061 0.960 . S
H1070 C1062 0.930 1_455 S
H1071 C1063 0.929 . S
H1072 C1080 0.953 . S
H1073 C1082 0.930 1_545 S
H1074 C1084 0.930 1_455 S
H1075 C1087 0.929 . S
H1076 C1090 0.930 . S
H1077 C1092 0.951 1_545 S
H1078 C1092 0.935 1_545 S
H1079 C1092 0.996 . S
C1080 H1072 0.953 . S
C1080 C1081 1.377 . S
C1080 C1082 1.384 . S
C1081 C1080 1.377 . S
C1081 C1087 1.390 . S
C1082 H1073 0.930 1_565 S
C1082 C1080 1.384 . S
C1082 C1083 1.372 . S
C1083 C1082 1.372 . S
C1083 C1084 1.400 . S
C1083 C1088 1.490 . S
C1084 H1074 0.930 1_655 S
C1084 C1083 1.400 . S
C1084 C1087 1.386 . S
H1085 C1101 0.930 1_565 S
H1086 C1102 0.931 1_565 S
C1087 H1075 0.929 . S
C1087 C1081 1.390 . S
C1087 C1084 1.386 . S
C1088 C1083 1.490 . S
C1088 C1090 1.395 . S
C1088 C1091 1.409 1_655 S
H1089 C1095 0.930 . S
C1090 H1076 0.930 . S
C1090 C1088 1.395 . S
C1090 C1093 1.403 1_566 S
C1091 C1088 1.409 1_455 S
C1091 C1092 1.524 . S
C1091 C1095 1.393 1_566 S
C1092 H1077 0.951 1_565 S
C1092 H1078 0.935 1_565 S
C1092 H1079 0.996 . S
C1092 C1091 1.524 . S
C1093 C1090 1.403 1_544 S
C1093 C1094 1.392 1_655 S
C1093 C1097 1.495 . S
C1094 C1093 1.392 1_455 S
C1094 C1095 1.385 . S
C1094 C1096 1.478 . S
C1095 H1089 0.930 . S
C1095 C1091 1.393 1_544 S
C1095 C1094 1.385 . S
C1096 C1094 1.478 . S
C1096 C1098 1.381 . S
C1096 C1102 1.383 . S
C1097 C1093 1.495 . S
C1097 H1103 0.953 1_545 S
C1097 H1104 0.961 1_545 S
C1097 H1105 0.960 . S
C1098 C1096 1.381 . S
C1098 C1099 1.394 . S
C1098 H1106 0.930 1_455 S
C1099 C1098 1.394 . S
C1099 C1100 1.383 . S
C1099 H1107 0.929 . S
C1100 C1099 1.383 . S
C1100 C1101 1.377 . S
C1101 H1085 0.930 1_545 S
C1101 C1100 1.377 . S
C1101 C1102 1.379 . S
C1102 H1086 0.931 1_545 S
C1102 C1096 1.383 . S
C1102 C1101 1.379 . S
H1103 C1097 0.953 1_565 S
H1104 C1097 0.961 1_565 S
H1105 C1097 0.960 . S
H1106 C1098 0.930 1_655 S
H1107 C1099 0.929 . S
H1108 C1116 0.929 1_565 S
H1109 C1118 0.946 . S
H1110 C1120 0.930 . S
H1111 C1123 0.929 . S
H1112 C1126 0.930 . S
H1113 C1128 0.960 . S
H1114 C1128 0.960 . S
H1115 C1128 0.960 . S
C1116 H1108 0.929 1_545 S
C1116 C1117 1.377 . S
C1116 C1118 1.378 1_545 S
C1117 C1116 1.377 . S
C1117 C1123 1.390 . S
C1118 H1109 0.946 . S
C1118 C1116 1.378 1_565 S
C1118 C1119 1.361 1_565 S
C1119 C1118 1.361 1_545 S
C1119 C1120 1.400 . S
C1119 C1124 1.490 . S
C1120 H1110 0.930 . S
C1120 C1119 1.400 . S
C1120 C1123 1.386 . S
H1121 C1137 0.918 1_545 S
H1122 C1138 0.931 1_545 S
C1123 H1111 0.929 . S
C1123 C1117 1.390 . S
C1123 C1120 1.386 . S
C1124 C1119 1.490 . S
C1124 C1126 1.395 1_545 S
C1124 C1127 1.403 . S
H1125 C1131 0.930 . S
C1126 H1112 0.930 . S
C1126 C1124 1.395 1_565 S
C1126 C1129 1.403 1_556 S
C1127 C1124 1.403 . S
C1127 C1128 1.524 . S
C1127 C1131 1.400 1_556 S
C1128 H1113 0.960 . S
C1128 H1114 0.960 . S
C1128 H1115 0.960 . S
C1128 C1127 1.524 . S
C1129 C1126 1.403 1_554 S
C1129 C1130 1.392 . S
C1129 C1133 1.495 . S
C1130 C1129 1.392 . S
C1130 C1131 1.385 1_565 S
C1130 C1132 1.478 . S
C1131 H1125 0.930 . S
C1131 C1127 1.400 1_554 S
C1131 C1130 1.385 1_545 S
C1132 C1130 1.478 . S
C1132 C1134 1.381 . S
C1132 C1138 1.383 . S
C1133 C1129 1.495 . S
C1133 H1139 0.959 . S
C1133 H1140 0.961 . S
C1133 H1141 0.960 . S
C1134 C1132 1.381 . S
C1134 C1135 1.394 . S
C1134 H1142 0.930 . S
C1135 C1134 1.394 . S
C1135 C1136 1.383 . S
C1135 H1143 0.929 . S
C1136 C1135 1.383 . S
C1136 C1137 1.377 . S
C1137 H1121 0.918 1_565 S
C1137 C1136 1.377 . S
C1137 C1138 1.379 . S
C1138 H1122 0.931 1_565 S
C1138 C1132 1.383 . S
C1138 C1137 1.379 . S
H1139 C1133 0.959 . S
H1140 C1133 0.961 . S
H1141 C1133 0.960 . S
H1142 C1134 0.930 . S
H1143 C1135 0.929 . S
H1144 C1152 0.929 . S
H1145 C1154 0.930 . S
H1146 C1156 0.930 . S
H1147 C1159 0.929 . S
H1148 C1162 0.930 . S
H1149 C1164 0.960 . S
H1150 C1164 0.960 . S
H1151 C1164 0.960 . S
C1152 H1144 0.929 . S
C1152 C1153 1.377 . S
C1152 C1154 1.384 . S
C1153 C1152 1.377 . S
C1153 C1159 1.390 . S
C1154 H1145 0.930 . S
C1154 C1152 1.384 . S
C1154 C1155 1.372 . S
C1155 C1154 1.372 . S
C1155 C1156 1.400 . S
C1155 C1160 1.490 . S
C1156 H1146 0.930 . S
C1156 C1155 1.400 . S
C1156 C1159 1.386 . S
H1157 C1173 0.930 . S
H1158 C1174 0.931 . S
C1159 H1147 0.929 . S
C1159 C1153 1.390 . S
C1159 C1156 1.386 . S
C1160 C1155 1.490 . S
C1160 C1162 1.395 . S
C1160 C1163 1.403 1_545 S
H1161 C1167 0.930 . S
C1162 H1148 0.930 . S
C1162 C1160 1.395 . S
C1162 C1165 1.403 . S
C1163 C1160 1.403 1_565 S
C1163 C1164 1.524 . S
C1163 C1167 1.400 . S
C1164 H1149 0.960 . S
C1164 H1150 0.960 . S
C1164 H1151 0.960 . S
C1164 C1163 1.524 . S
C1165 C1162 1.403 . S
C1165 C1166 1.392 1_545 S
C1165 C1169 1.495 . S
C1166 C1165 1.392 1_565 S
C1166 C1167 1.385 . S
C1166 C1168 1.478 . S
C1167 H1161 0.930 . S
C1167 C1163 1.400 . S
C1167 C1166 1.385 . S
C1168 C1166 1.478 . S
C1168 C1170 1.381 . S
C1168 C1174 1.383 . S
C1169 C1165 1.495 . S
C1169 H1175 0.959 . S
C1169 H1176 0.961 . S
C1169 H1177 0.960 . S
C1170 C1168 1.381 . S
C1170 C1171 1.394 . S
C1170 H1178 0.930 . S
C1171 C1170 1.394 . S
C1171 C1172 1.383 . S
C1171 H1179 0.929 . S
C1172 C1171 1.383 . S
C1172 C1173 1.377 . S
C1173 H1157 0.930 . S
C1173 C1172 1.377 . S
C1173 C1174 1.379 . S
C1174 H1158 0.931 . S
C1174 C1168 1.383 . S
C1174 C1173 1.379 . S
H1175 C1169 0.959 . S
H1176 C1169 0.961 . S
H1177 C1169 0.960 . S
H1178 C1170 0.930 . S
H1179 C1171 0.929 . S
H1180 C1188 0.929 1_655 S
H1181 C1190 0.930 . S
H1182 C1192 0.930 . S
H1183 C1195 0.929 . S
H1184 C1198 0.930 . S
H1185 C1200 0.960 . S
H1186 C1200 0.960 . S
H1187 C1200 0.960 . S
C1188 H1180 0.929 1_455 S
C1188 C1189 1.377 . S
C1188 C1190 1.384 1_455 S
C1189 C1188 1.377 . S
C1189 C1195 1.390 . S
C1190 H1181 0.930 . S
C1190 C1188 1.384 1_655 S
C1190 C1191 1.372 1_655 S
C1191 C1190 1.372 1_455 S
C1191 C1192 1.400 . S
C1191 C1196 1.490 . S
C1192 H1182 0.930 . S
C1192 C1191 1.400 . S
C1192 C1195 1.386 . S
H1193 C1209 0.930 1_455 S
H1194 C1210 0.931 1_455 S
C1195 H1183 0.929 . S
C1195 C1189 1.390 . S
C1195 C1192 1.386 . S
C1196 C1191 1.490 . S
C1196 C1198 1.395 1_465 S
C1196 C1199 1.403 . S
H1197 C1203 0.930 . S
C1198 H1184 0.930 . S
C1198 C1196 1.395 1_645 S
C1198 C1201 1.403 . S
C1199 C1196 1.403 . S
C1199 C1200 1.524 . S
C1199 C1203 1.400 . S
C1200 H1185 0.960 . S
C1200 H1186 0.960 . S
C1200 H1187 0.960 . S
C1200 C1199 1.524 . S
C1201 C1198 1.403 . S
C1201 C1202 1.392 . S
C1201 C1205 1.495 . S
C1202 C1201 1.392 . S
C1202 C1203 1.385 1_645 S
C1202 C1204 1.478 . S
C1203 H1197 0.930 . S
C1203 C1199 1.400 . S
C1203 C1202 1.385 1_465 S
C1204 C1202 1.478 . S
C1204 C1206 1.381 . S
C1204 C1210 1.383 . S
C1205 C1201 1.495 . S
C1205 H1211 0.959 . S
C1205 H1212 0.961 . S
C1205 H1213 0.960 . S
C1206 C1204 1.381 . S
C1206 C1207 1.394 . S
C1206 H1214 0.930 . S
C1207 C1206 1.394 . S
C1207 C1208 1.383 . S
C1207 H1215 0.929 . S
C1208 C1207 1.383 . S
C1208 C1209 1.377 . S
C1209 H1193 0.930 1_655 S
C1209 C1208 1.377 . S
C1209 C1210 1.379 . S
C1210 H1194 0.931 1_655 S
C1210 C1204 1.383 . S
C1210 C1209 1.379 . S
H1211 C1205 0.959 . S
H1212 C1205 0.961 . S
H1213 C1205 0.960 . S
H1214 C1206 0.930 . S
H1215 C1207 0.929 . S
H1216 C1224 0.929 . S
H1217 C1226 0.930 . S
H1218 C1228 0.930 . S
H1219 C1231 0.929 . S
H1220 C1234 0.930 . S
H1221 C1236 0.960 1_556 S
H1222 C1236 0.960 . S
H1223 C1236 0.960 . S
C1224 H1216 0.929 . S
C1224 C1225 1.377 . S
C1224 C1226 1.384 . S
C1225 C1224 1.377 . S
C1225 C1231 1.390 . S
C1226 H1217 0.930 . S
C1226 C1224 1.384 . S
C1226 C1227 1.372 . S
C1227 C1226 1.372 . S
C1227 C1228 1.400 . S
C1227 C1232 1.490 . S
C1228 H1218 0.930 . S
C1228 C1227 1.400 . S
C1228 C1231 1.386 . S
H1229 C1245 0.930 . S
H1230 C1246 0.931 . S
C1231 H1219 0.929 . S
C1231 C1225 1.390 . S
C1231 C1228 1.386 . S
C1232 C1227 1.490 . S
C1232 C1234 1.395 . S
C1232 C1235 1.403 . S
H1233 C1239 0.930 . S
C1234 H1220 0.930 . S
C1234 C1232 1.395 . S
C1234 C1237 1.403 1_554 S
C1235 C1232 1.403 . S
C1235 C1236 1.524 . S
C1235 C1239 1.400 1_554 S
C1236 H1221 0.960 1_554 S
C1236 H1222 0.960 . S
C1236 H1223 0.960 . S
C1236 C1235 1.524 . S
C1237 C1234 1.403 1_556 S
C1237 C1238 1.392 . S
C1237 C1241 1.495 . S
C1238 C1237 1.392 . S
C1238 C1239 1.385 . S
C1238 C1240 1.478 . S
C1239 H1233 0.930 . S
C1239 C1235 1.400 1_556 S
C1239 C1238 1.385 . S
C1240 C1238 1.478 . S
C1240 C1242 1.381 . S
C1240 C1246 1.383 . S
C1241 C1237 1.495 . S
C1241 H1247 0.959 1_556 S
C1241 H1248 0.961 . S
C1241 H1249 0.960 . S
C1242 C1240 1.381 . S
C1242 C1243 1.394 . S
C1242 H1250 0.930 . S
C1243 C1242 1.394 . S
C1243 C1244 1.383 . S
C1243 H1251 0.929 . S
C1244 C1243 1.383 . S
C1244 C1245 1.377 . S
C1245 H1229 0.930 . S
C1245 C1244 1.377 . S
C1245 C1246 1.379 . S
C1246 H1230 0.931 . S
C1246 C1240 1.383 . S
C1246 C1245 1.379 . S
H1247 C1241 0.959 1_554 S
H1248 C1241 0.961 . S
H1249 C1241 0.960 . S
H1250 C1242 0.930 . S
H1251 C1243 0.929 . S
H1252 C1260 0.929 . S
H1253 C1262 0.930 . S
H1254 C1264 0.930 . S
H1255 C1267 0.929 . S
H1256 C1270 0.930 . S
H1257 C1272 0.960 1_556 S
H1258 C1272 0.960 . S
H1259 C1272 0.960 . S
C1260 H1252 0.929 . S
C1260 C1261 1.377 . S
C1260 C1262 1.384 . S
C1261 C1260 1.377 . S
C1261 C1267 1.390 . S
C1262 H1253 0.930 . S
C1262 C1260 1.384 . S
C1262 C1263 1.372 . S
C1263 C1262 1.372 . S
C1263 C1264 1.400 . S
C1263 C1268 1.490 . S
C1264 H1254 0.930 . S
C1264 C1263 1.400 . S
C1264 C1267 1.386 . S
H1265 C1281 0.930 . S
H1266 C1282 0.931 . S
C1267 H1255 0.929 . S
C1267 C1261 1.390 . S
C1267 C1264 1.386 . S
C1268 C1263 1.490 . S
C1268 C1270 1.395 1_655 S
C1268 C1271 1.403 . S
H1269 C1275 0.930 . S
C1270 H1256 0.930 . S
C1270 C1268 1.395 1_455 S
C1270 C1273 1.403 1_554 S
C1271 C1268 1.403 . S
C1271 C1272 1.524 . S
C1271 C1275 1.400 1_554 S
C1272 H1257 0.960 1_554 S
C1272 H1258 0.960 . S
C1272 H1259 0.960 . S
C1272 C1271 1.524 . S
C1273 C1270 1.403 1_556 S
C1273 C1274 1.392 . S
C1273 C1277 1.495 . S
C1274 C1273 1.392 . S
C1274 C1275 1.385 1_455 S
C1274 C1276 1.478 . S
C1275 H1269 0.930 . S
C1275 C1271 1.400 1_556 S
C1275 C1274 1.385 1_655 S
C1276 C1274 1.478 . S
C1276 C1278 1.381 . S
C1276 C1282 1.383 . S
C1277 C1273 1.495 . S
C1277 H1283 0.959 1_556 S
C1277 H1284 0.961 . S
C1277 H1285 0.960 . S
C1278 C1276 1.381 . S
C1278 C1279 1.394 . S
C1278 H1286 0.930 . S
C1279 C1278 1.394 . S
C1279 C1280 1.383 . S
C1279 H1287 0.929 . S
C1280 C1279 1.383 . S
C1280 C1281 1.377 . S
C1281 H1265 0.930 . S
C1281 C1280 1.377 . S
C1281 C1282 1.379 . S
C1282 H1266 0.931 . S
C1282 C1276 1.383 . S
C1282 C1281 1.379 . S
H1283 C1277 0.959 1_554 S
H1284 C1277 0.961 . S
H1285 C1277 0.960 . S
H1286 C1278 0.930 . S
H1287 C1279 0.929 . S
H1288 C1296 0.929 . S
H1289 C1298 0.930 1_455 S
H1290 C1300 0.930 . S
H1291 C1303 0.929 . S
H1292 C1306 0.930 . S
H1293 C1308 0.960 . S
H1294 C1308 0.960 . S
H1295 C1308 0.960 . S
C1296 H1288 0.929 . S
C1296 C1297 1.377 . S
C1296 C1298 1.384 . S
C1297 C1296 1.377 . S
C1297 C1303 1.390 . S
C1298 H1289 0.930 1_655 S
C1298 C1296 1.384 . S
C1298 C1299 1.372 . S
C1299 C1298 1.372 . S
C1299 C1300 1.400 . S
C1299 C1304 1.490 . S
C1300 H1290 0.930 . S
C1300 C1299 1.400 . S
C1300 C1303 1.386 . S
H1301 C1317 0.930 . S
H1302 C1318 0.931 1_655 S
C1303 H1291 0.929 . S
C1303 C1297 1.390 . S
C1303 C1300 1.386 . S
C1304 C1299 1.490 . S
C1304 C1306 1.395 1_655 S
C1304 C1307 1.403 . S
H1305 C1311 0.930 . S
C1306 H1292 0.930 . S
C1306 C1304 1.395 1_455 S
C1306 C1309 1.403 . S
C1307 C1304 1.403 . S
C1307 C1308 1.524 . S
C1307 C1311 1.400 . S
C1308 H1293 0.960 . S
C1308 H1294 0.960 . S
C1308 H1295 0.960 . S
C1308 C1307 1.524 . S
C1309 C1306 1.403 . S
C1309 C1310 1.392 . S
C1309 C1313 1.495 . S
C1310 C1309 1.392 . S
C1310 C1311 1.385 1_455 S
C1310 C1312 1.478 . S
C1311 H1305 0.930 . S
C1311 C1307 1.400 . S
C1311 C1310 1.385 1_655 S
C1312 C1310 1.478 . S
C1312 C1314 1.381 . S
C1312 C1318 1.383 . S
C1313 C1309 1.495 . S
C1313 H1319 0.959 . S
C1313 H1320 0.961 . S
C1313 H1321 0.960 . S
C1314 C1312 1.381 . S
C1314 C1315 1.394 . S
C1314 H1322 0.930 . S
C1315 C1314 1.394 . S
C1315 C1316 1.383 . S
C1315 H1323 0.929 . S
C1316 C1315 1.383 . S
C1316 C1317 1.377 . S
C1317 H1301 0.930 . S
C1317 C1316 1.377 . S
C1317 C1318 1.379 . S
C1318 H1302 0.931 1_455 S
C1318 C1312 1.383 . S
C1318 C1317 1.379 . S
H1319 C1313 0.959 . S
H1320 C1313 0.961 . S
H1321 C1313 0.960 . S
H1322 C1314 0.930 . S
H1323 C1315 0.929 . S
H1324 C1332 0.929 . S
H1325 C1334 0.930 . S
H1326 C1336 0.930 . S
H1327 C1339 0.929 . S
H1328 C1342 0.930 . S
H1329 C1344 0.960 . S
H1330 C1344 0.960 . S
H1331 C1344 0.960 . S
C1332 H1324 0.929 . S
C1332 C1333 1.377 . S
C1332 C1334 1.384 . S
C1333 C1332 1.377 . S
C1333 C1339 1.390 . S
C1334 H1325 0.930 . S
C1334 C1332 1.384 . S
C1334 C1335 1.372 . S
C1335 C1334 1.372 . S
C1335 C1336 1.400 . S
C1335 C1340 1.490 . S
C1336 H1326 0.930 . S
C1336 C1335 1.400 . S
C1336 C1339 1.386 . S
H1337 C1353 0.930 . S
H1338 C1354 0.931 . S
C1339 H1327 0.929 . S
C1339 C1333 1.390 . S
C1339 C1336 1.386 . S
C1340 C1335 1.490 . S
C1340 C1342 1.395 . S
C1340 C1343 1.403 . S
H1341 C1347 0.930 . S
C1342 H1328 0.930 . S
C1342 C1340 1.395 . S
C1342 C1345 1.403 . S
C1343 C1340 1.403 . S
C1343 C1344 1.524 . S
C1343 C1347 1.400 . S
C1344 H1329 0.960 . S
C1344 H1330 0.960 . S
C1344 H1331 0.960 . S
C1344 C1343 1.524 . S
C1345 C1342 1.403 . S
C1345 C1346 1.392 . S
C1345 C1349 1.495 . S
C1346 C1345 1.392 . S
C1346 C1347 1.385 . S
C1346 C1348 1.478 . S
C1347 H1341 0.930 . S
C1347 C1343 1.400 . S
C1347 C1346 1.385 . S
C1348 C1346 1.478 . S
C1348 C1350 1.381 . S
C1348 C1354 1.383 . S
C1349 C1345 1.495 . S
C1349 H1355 0.959 . S
C1349 H1356 0.961 . S
C1349 H1357 0.960 . S
C1350 C1348 1.381 . S
C1350 C1351 1.394 . S
C1350 H1358 0.930 . S
C1351 C1350 1.394 . S
C1351 C1352 1.383 . S
C1351 H1359 0.929 . S
C1352 C1351 1.383 . S
C1352 C1353 1.377 . S
C1353 H1337 0.930 . S
C1353 C1352 1.377 . S
C1353 C1354 1.379 . S
C1354 H1338 0.931 . S
C1354 C1348 1.383 . S
C1354 C1353 1.379 . S
H1355 C1349 0.959 . S
H1356 C1349 0.961 . S
H1357 C1349 0.960 . S
H1358 C1350 0.930 . S
H1359 C1351 0.929 . S
C217 C13 1.442 . S
C236 C0 1.458 . S
C253 C26 1.447 . S
C272 C39 1.442 . S
C289 C52 1.450 . S
C308 C65 1.460 . S
C325 C91 1.442 . S
C344 C78 1.441 . S
C361 C117 1.449 . S
C380 C104 1.427 . S
C397 C143 1.449 . S
C416 C130 1.428 . S
C433 C169 1.450 . S
C452 C156 1.463 . S
C469 C195 1.442 . S
C488 C182 1.445 . S
C505 C49 1.089 . S
C524 C10 1.095 . S
C541 C23 1.090 . S
C560 C36 1.088 . S
C577 C101 1.090 . S
C596 C62 1.084 . S
C613 C88 1.089 . S
C632 C75 1.081 . S
C649 C114 1.089 . S
C668 C153 1.094 . S
C685 C140 1.091 . S
C704 C127 1.089 . S
C721 C205 1.090 . S
C740 C166 1.082 . S
C757 C179 1.090 . S
C776 C192 1.091 . S
C793 C5 1.442 . S
C812 C122 1.425 . S
C829 C18 1.444 . S
C848 C109 1.433 . S
C865 C148 1.452 . S
C884 C31 1.471 . S
C901 C135 1.441 . S
C920 C44 1.418 . S
C937 C174 1.445 . S
C956 C57 1.468 . S
C973 C161 1.444 . S
C992 C70 1.470 . S
C1009 C83 1.451 . S
C1028 C200 1.416 . S
C1045 C96 1.449 . S
C1064 C187 1.414 . S
C1081 C60 0.899 . S
C1100 C8 0.898 . S
C1117 C73 0.893 . S
C1136 C21 0.859 . S
C1153 C86 0.896 . S
C1172 C34 0.933 . S
C1189 C99 0.882 . S
C1208 C47 0.847 . S
C1225 C112 0.899 . S
C1244 C164 0.897 . S
C1261 C125 0.898 . S
C1280 C177 0.893 . S
C1297 C190 0.880 . S
C1316 C138 0.865 . S
C1333 C203 0.884 . S
C1352 C151 0.909 . S
