# Generated by pormake.
# Topology sma, (6)-cn, num edge types: 1
# Building blocks:
#     Node 0, Type 0, BuildingBlock: BETFAJ_clean_sbu_0, # of connection points: 6
#     Node 1, Type 0, BuildingBlock: BETFAJ_clean_sbu_0, # of connection points: 6
#     Node 2, Type 0, BuildingBlock: BETFAJ_clean_sbu_0, # of connection points: 6
#     Edge 3, Type (0, 0), BuildingBlock: ZUJKAS_clean_linker_0, # of connection points: 2
#     Edge 4, Type (0, 0), BuildingBlock: ZUJKAS_clean_linker_0, # of connection points: 2
#     Edge 5, Type (0, 0), BuildingBlock: ZUJKAS_clean_linker_0, # of connection points: 2
#     Edge 6, Type (0, 0), BuildingBlock: ZUJKAS_clean_linker_0, # of connection points: 2
#     Edge 7, Type (0, 0), BuildingBlock: ZUJKAS_clean_linker_0, # of connection points: 2
#     Edge 8, Type (0, 0), BuildingBlock: ZUJKAS_clean_linker_0, # of connection points: 2
#     Edge 9, Type (0, 0), BuildingBlock: ZUJKAS_clean_linker_0, # of connection points: 2
#     Edge 10, Type (0, 0), BuildingBlock: ZUJKAS_clean_linker_0, # of connection points: 2
#     Edge 11, Type (0, 0), BuildingBlock: ZUJKAS_clean_linker_0, # of connection points: 2
# Relax obj value: 0.123
# Max RMSD: 0.246
# Mean RMSD: 0.203
data_MOF--net-sma--node1-BETFAJ_clean_sbu_0--edge1-ZUJKAS_clean_linker_0
_symmetry_space_group_name_H-M    P1
_symmetry_Int_Tables_number       1
_symmetry_cell_setting            triclinic
loop_
_symmetry_equiv_pos_as_xyz
'x, y, z'
_cell_length_a     49.4565
_cell_length_b     56.805669
_cell_length_c     17.70516
_cell_angle_alpha  93.129237
_cell_angle_beta   89.62525
_cell_angle_gamma 136.46273
loop_
_atom_site_label
_atom_site_type_symbol
_atom_site_fract_x
_atom_site_fract_y
_atom_site_fract_z
_atom_type_partial_charge
Sm0 Sm 0.12101 0.62416 0.19656 0.0
Sm1 Sm 0.07196 0.63863 0.20631 0.0
C2 C 0.16766 0.61891 0.15258 0.0
C3 C 0.19386 0.61598 0.12762 0.0
C4 C 0.20537 0.62113 0.05245 0.0
C5 C 0.23107 0.61947 0.02916 0.0
C6 C 0.246 0.61267 0.0805 0.0
C7 C 0.23414 0.60719 0.15566 0.0
C8 C 0.20838 0.60884 0.17895 0.0
C9 C 0.10664 0.63083 0.34088 0.0
C10 C 0.16684 0.70433 0.21277 0.0
C11 C 1.02547 0.6464 0.23041 0.0
C12 C 0.99551 0.64297 0.19605 0.0
C13 C 0.96941 0.6384 0.24346 0.0
C14 C 0.94298 0.63823 0.21485 0.0
C15 C 0.94189 0.64256 0.13777 0.0
C16 C 0.96761 0.6464 0.08979 0.0
C17 C 0.99419 0.64661 0.11867 0.0
C18 C 0.08223 0.62632 0.06129 0.0
C19 C 1.0287 0.55951 0.22096 0.0
O20 O 0.15479 0.6268 0.10693 0.0
O21 O 0.15528 0.61343 0.22146 0.0
O22 O 0.11375 0.64838 0.28812 0.0
O23 O 0.11114 0.61153 0.32108 0.0
O24 O 0.16769 0.68279 0.18508 0.0
O25 O 0.13389 0.69287 0.23712 0.0
O26 O 1.0153 0.61848 0.24378 0.0
O27 O 1.06116 0.67031 0.20724 0.0
O28 O 0.07496 0.61042 0.1177 0.0
O29 O 0.08356 0.6494 0.08086 0.0
O30 O 1.02853 0.58232 0.2403 0.0
O31 O 1.05951 0.56875 0.19043 0.0
H32 H 0.19465 0.6266 0.01146 0.0
H33 H 0.23903 0.62329 0.97059 0.0
H34 H 0.24536 0.60229 0.197 0.0
H35 H 0.2002 0.60489 0.2374 0.0
H36 H 0.97017 0.63584 0.30342 0.0
H37 H 0.92423 0.63576 0.25392 0.0
H38 H 0.9673 0.64934 0.02999 0.0
H39 H 1.01409 0.65017 0.08092 0.0
Sm40 Sm 0.62796 0.12239 0.3692 0.0
Sm41 Sm 0.58708 0.14493 0.36813 0.0
C42 C 0.66714 0.10864 0.40511 0.0
C43 C 0.65997 0.07994 0.4284 0.0
C44 C 0.6308 0.05669 0.47892 0.0
C45 C 0.62587 1.03066 0.50263 0.0
C46 C 0.64983 1.0272 0.47594 0.0
C47 C 0.67843 0.05016 0.42415 0.0
C48 C 0.68344 0.07623 0.40078 0.0
C49 C 0.60001 0.11724 0.23077 0.0
C50 C 0.5334 0.06258 0.35278 0.0
C51 C 0.54598 0.15833 0.3573 0.0
C52 C 0.5487 0.18447 0.39096 0.0
C53 C 0.58108 0.21954 0.3804 0.0
C54 C 0.5829 0.24365 0.41352 0.0
C55 C 0.55251 0.23329 0.45822 0.0
C56 C 0.52048 0.19821 0.46942 0.0
C57 C 0.51854 0.17414 0.43591 0.0
C58 C 0.60708 0.14221 0.50961 0.0
C59 C 0.68179 0.20545 0.35976 0.0
O60 O 0.66015 0.12171 0.45408 0.0
O61 O 0.65644 0.10637 0.33538 0.0
O62 O 0.61705 0.14171 0.2801 0.0
O63 O 0.6005 0.09586 0.25069 0.0
O64 O 0.56407 0.07039 0.38063 0.0
O65 O 0.53642 0.08663 0.33362 0.0
O66 O 0.57206 0.16799 0.30866 0.0
O67 O 0.53798 0.13701 0.40374 0.0
O68 O 0.59291 0.12095 0.45391 0.0
O69 O 0.61351 0.16752 0.48969 0.0
O70 O 0.64918 0.19721 0.35261 0.0
O71 O 0.68123 0.18215 0.37089 0.0
H72 H 0.61204 0.05881 0.50054 0.0
H73 H 0.60321 1.01316 0.54171 0.0
H74 H 0.6977 0.04857 0.40303 0.0
H75 H 0.70611 0.09387 0.36179 0.0
H76 H 0.60498 0.22839 0.34645 0.0
H77 H 0.60782 0.27036 0.40298 0.0
H78 H 0.49692 0.18927 0.50467 0.0
H79 H 0.49343 0.14733 0.44548 0.0
Sm80 Sm 0.62422 0.67183 0.87292 0.0
Sm81 Sm 0.57414 0.59407 0.87219 0.0
C82 C 0.66981 0.73624 0.84158 0.0
C83 C 0.66398 0.75636 0.81259 0.0
C84 C 0.6392 0.74436 0.74843 0.0
C85 C 0.63465 0.76406 0.72114 0.0
C86 C 0.65451 0.7961 0.75765 0.0
C87 C 0.67875 0.80773 0.82259 0.0
C88 C 0.68348 0.78811 0.84958 0.0
C89 C 0.58418 0.64096 -0.00023 0.0
C90 C 0.53036 0.61757 0.85333 0.0
C91 C 0.52733 0.52741 0.87147 0.0
C92 C 0.53063 0.50452 0.84367 0.0
C93 C 0.56052 0.50869 0.87191 0.0
C94 C 0.56422 0.48783 0.84228 0.0
C95 C 0.53832 0.46244 0.78341 0.0
C96 C 0.50844 0.45835 0.75543 0.0
C97 C 0.50457 0.47904 0.78542 0.0
C98 C 0.61504 0.62691 0.74594 0.0
C99 C 0.66517 0.64757 0.92779 0.0
O100 O 0.66197 0.71322 0.79409 0.0
O101 O 0.65814 0.72576 0.9097 0.0
O102 O 0.60139 0.63569 0.96299 0.0
O103 O 0.59166 0.66632 -0.02434 0.0
O104 O 0.56384 0.64702 0.83053 0.0
O105 O 0.52805 0.5948 0.87972 0.0
O106 O 0.54985 0.54871 0.93046 0.0
O107 O 0.52482 0.54131 0.81931 0.0
O108 O 0.59587 0.63011 0.78217 0.0
O109 O 0.61165 0.60437 0.77418 0.0
O110 O 0.62967 0.61628 0.93285 0.0
O111 O 0.671 0.67216 0.89956 0.0
H112 H 0.62337 0.71977 0.71916 0.0
H113 H 0.61531 0.75407 0.67169 0.0
H114 H 0.69479 0.83238 0.85173 0.0
H115 H 0.70265 0.79787 0.89922 0.0
H116 H 0.58128 0.52823 0.91655 0.0
H117 H 0.58726 0.49147 0.86599 0.0
H118 H 0.48836 0.43953 0.70929 0.0
H119 H 0.48148 0.47545 0.76221 0.0
H120 H 0.30691 0.65497 -0.01385 0.0
H121 H 0.35226 0.65287 0.94354 0.0
H122 H 0.29573 0.56739 0.0783 0.0
H123 H 0.2493 0.56853 0.11934 0.0
H124 H 0.40498 0.65993 0.03038 0.0
H125 H 0.29607 0.53259 0.87003 0.0
H126 H 0.28494 0.55562 0.90003 0.0
H127 H 0.28506 0.53294 0.96669 0.0
C128 C 0.30368 0.63537 0.00596 0.0
C129 C 0.27413 0.61171 0.05571 0.0
C130 C 0.32986 0.63438 -0.01807 0.0
C131 C 0.32704 0.60964 0.00672 0.0
C132 C 0.298 0.58628 0.05722 0.0
H133 H 0.46306 0.56782 0.92736 0.0
H134 H 0.41359 0.56576 0.96249 0.0
C135 C 0.27176 0.58724 0.08134 0.0
C136 C 0.35516 0.60896 -0.01913 0.0
H137 H 0.36124 0.55948 0.88283 0.0
C138 C 0.39545 0.63803 -0.00216 0.0
C139 C 0.34265 0.58026 0.93888 0.0
C140 C 0.29987 0.54865 0.91716 0.0
C141 C 0.42354 0.63909 -0.02524 0.0
C142 C 0.41111 0.6106 0.9317 0.0
C143 C 0.37078 0.5814 0.91528 0.0
C144 C 0.43952 0.61041 0.90461 0.0
C145 C 0.46618 0.67039 -0.0015 0.0
C146 C 0.4698 0.63544 0.85787 0.0
C147 C 0.49832 0.63679 0.83773 0.0
C148 C 0.49683 0.61284 0.86317 0.0
C149 C 0.46515 0.58664 0.9064 0.0
C150 C 0.43684 0.58547 0.92689 0.0
H151 H 0.46945 0.68541 0.04776 0.0
H152 H 0.48111 0.66321 0.01354 0.0
H153 H 0.48138 0.68726 0.95085 0.0
H154 H 0.47189 0.65441 0.83825 0.0
H155 H 0.52216 0.65722 0.80413 0.0
H156 H 0.75517 0.23279 0.33604 0.0
H157 H 0.81614 0.29266 0.31494 0.0
H158 H 0.7548 0.32001 0.3413 0.0
H159 H 0.6943 0.26084 0.36256 0.0
H160 H 0.82913 0.33358 0.19928 0.0
H161 H 0.85195 0.39066 0.48722 0.0
H162 H 0.81959 0.34526 0.46715 0.0
H163 H 0.80364 0.36429 0.44495 0.0
C164 C 0.7548 0.25164 0.33826 0.0
C165 C 0.71975 0.24189 0.35144 0.0
C166 C 0.78963 0.28583 0.32582 0.0
C167 C 0.79022 0.31099 0.32747 0.0
C168 C 0.75534 0.30128 0.34101 0.0
H169 H 0.95642 0.52861 0.26734 0.0
H170 H 0.89937 0.46824 0.29035 0.0
C171 C 0.72062 0.26726 0.35285 0.0
C172 C 0.82673 0.34723 0.31296 0.0
H173 H 0.89032 0.42951 0.39125 0.0
C174 C 0.8428 0.35456 0.24145 0.0
C175 C 0.84437 0.37466 0.36773 0.0
C176 C 0.82927 0.36842 0.44633 0.0
C177 C 0.87523 0.38856 0.22251 0.0
C178 C 0.89279 0.41606 0.27725 0.0
C179 C 0.87693 0.4086 0.34907 0.0
C180 C 0.92746 0.45273 0.26137 0.0
C181 C 0.88937 0.39464 0.14305 0.0
C182 C 0.96257 0.46443 0.23806 0.0
C183 C 0.99516 0.49892 0.22419 0.0
C184 C 0.99369 0.52273 0.23437 0.0
C185 C 0.95867 0.51106 0.25867 0.0
C186 C 0.92597 0.47649 0.27198 0.0
H187 H 0.8662 0.37236 0.10271 0.0
H188 H 0.89883 0.41776 0.12265 0.0
H189 H 0.91485 0.39856 0.14247 0.0
H190 H 0.96503 0.44699 0.23148 0.0
H191 H 1.02171 0.50695 0.20641 0.0
H192 H 0.65312 0.98694 0.39379 0.0
H193 H 0.65005 0.94529 0.44031 0.0
H194 H 0.63524 0.96557 0.66657 0.0
H195 H 0.63824 1.00719 0.62053 0.0
H196 H 0.69925 0.95631 0.5442 0.0
H197 H 0.54777 0.86185 0.64541 0.0
H198 H 0.56544 0.89495 0.58526 0.0
H199 H 0.57763 0.90469 0.68541 0.0
C200 C 0.64913 0.98251 0.45347 0.0
C201 C 0.64585 1.00044 0.50335 0.0
C202 C 0.64722 0.95856 0.47993 0.0
C203 C 0.64184 0.95185 0.5568 0.0
C204 C 0.63839 0.96958 0.6067 0.0
H205 H 0.6469 0.83384 0.83712 0.0
H206 H 0.64352 0.87109 0.78726 0.0
C207 C 0.64016 0.99346 0.58025 0.0
C208 C 0.64188 0.92765 0.58526 0.0
H209 H 0.5884 0.85544 0.68159 0.0
C210 C 0.67487 0.93412 0.57373 0.0
C211 C 0.61012 0.89871 0.62406 0.0
C212 C 0.57307 0.88938 0.63521 0.0
C213 C 0.67733 0.91292 0.60111 0.0
C214 C 0.64569 0.8841 0.64023 0.0
C215 C 0.61265 0.87756 0.65171 0.0
C216 C 0.64655 0.86062 0.66998 0.0
C217 C 0.71424 0.92204 0.58952 0.0
C218 C 0.64866 0.84185 0.62058 0.0
C219 C 0.65074 0.82063 0.6489 0.0
C220 C 0.65066 0.81763 0.72734 0.0
C221 C 0.64767 0.83593 0.77655 0.0
C222 C 0.64546 0.85707 0.74811 0.0
H223 H 0.73921 0.9491 0.5755 0.0
H224 H 0.72285 0.91796 0.64088 0.0
H225 H 0.70879 0.90533 0.54182 0.0
H226 H 0.6489 0.84374 0.55999 0.0
H227 H 0.65324 0.80712 0.60935 0.0
H228 H 0.74096 0.69402 0.87899 0.0
H229 H 0.79169 0.69662 0.90912 0.0
H230 H 0.71522 0.61795 0.06492 0.0
H231 H 0.66466 0.61477 0.03431 0.0
H232 H 0.83109 0.70829 0.04419 0.0
H233 H 0.73713 0.57578 0.9204 0.0
H234 H 0.72594 0.59924 0.9058 0.0
H235 H 0.71356 0.57849 -0.00784 0.0
C236 C 0.73531 0.67769 0.92043 0.0
C237 C 0.69862 0.65388 0.95345 0.0
C238 C 0.76419 0.67906 0.93736 0.0
C239 C 0.7568 0.65673 -0.01236 0.0
C240 C 0.72118 0.63465 0.02419 0.0
H241 H 0.86623 0.60436 0.17687 0.0
H242 H 0.82387 0.60982 0.13729 0.0
C243 C 0.69236 0.63304 0.0069 0.0
C244 C 0.78548 0.65551 0.00108 0.0
H245 H 0.79349 0.60049 -0.00421 0.0
C246 C 0.8231 0.68487 0.03279 0.0
C247 C 0.77505 0.62491 -0.01387 0.0
C248 C 0.73587 0.59291 0.94856 0.0
C249 C 0.84994 0.68406 0.05286 0.0
C250 C 0.83909 0.65319 0.03962 0.0
C251 C 0.80179 0.6241 0.00627 0.0
C252 C 0.86528 0.65004 0.06247 0.0
C253 C 0.88906 0.71588 0.0908 0.0
C254 C 0.90249 0.67034 0.03254 0.0
C255 C 0.92705 0.66749 0.05563 0.0
C256 C 0.91485 0.6441 0.10892 0.0
C257 C 0.87704 0.62312 0.13695 0.0
C258 C 0.85261 0.62605 0.11398 0.0
H259 H 0.88908 0.73454 0.11328 0.0
H260 H 0.89691 0.70938 0.13806 0.0
H261 H 0.91219 0.72855 0.04887 0.0
H262 H 0.91262 0.68849 -0.00859 0.0
H263 H 0.95597 0.68421 0.03303 0.0
H264 H 0.52041 1.00683 0.33782 0.0
H265 H 0.45793 0.94681 0.31014 0.0
H266 H 0.39731 0.97526 0.31245 0.0
H267 H 0.46001 1.03553 0.33638 0.0
H268 H 0.39512 0.90394 0.38556 0.0
H269 H 0.35104 0.91784 0.11924 0.0
H270 H 0.39933 0.95235 0.16428 0.0
H271 H 0.3585 0.94386 0.19699 0.0
C272 C 0.49378 1.00032 0.33221 0.0
C273 C 0.49522 1.026 0.33901 0.0
C274 C 0.458 0.96594 0.31626 0.0
C275 C 0.42273 0.95632 0.30749 0.0
C276 C 0.42406 0.98192 0.31625 0.0
H277 H 0.17663 0.7574 0.25548 0.0
H278 H 0.23849 0.8183 0.27839 0.0
C279 C 0.45996 1.01641 0.33074 0.0
C280 C 0.38465 0.91946 0.29164 0.0
H281 H 0.30215 0.86397 0.17312 0.0
C282 C 0.375 0.89528 0.33873 0.0
C283 C 0.35814 0.90787 0.23046 0.0
C284 C 0.36744 0.9318 0.17443 0.0
C285 C 0.33969 0.8602 0.32703 0.0
C286 C 0.31312 0.84879 0.26659 0.0
C287 C 0.3225 0.87281 0.21968 0.0
C288 C 0.27562 0.81193 0.25081 0.0
C289 C 0.33081 0.83558 0.38005 0.0
C290 C 0.27591 0.78818 0.22639 0.0
C291 C 0.24062 0.7534 0.21266 0.0
C292 C 0.20421 0.74156 0.22337 0.0
C293 C 0.20405 0.76554 0.24684 0.0
C294 C 0.2394 0.80039 0.25994 0.0
H295 H 0.34993 0.84907 0.43274 0.0
H296 H 0.29961 0.81671 0.3955 0.0
H297 H 0.33582 0.82124 0.35124 0.0
H298 H 0.30351 0.79658 0.21804 0.0
H299 H 0.24196 0.73575 0.19471 0.0
H300 H 0.47969 0.39406 0.73651 0.0
H301 H 0.48638 0.35823 0.68113 0.0
H302 H 0.61252 0.44425 0.70285 0.0
H303 H 0.60626 0.48068 0.75653 0.0
H304 H 0.52858 0.37074 0.5468 0.0
H305 H 0.58678 0.36567 0.80611 0.0
H306 H 0.5618 0.37797 0.80972 0.0
H307 H 0.61156 0.40753 0.78101 0.0
C308 C 0.50892 0.40555 0.72901 0.0
C309 C 0.54243 0.44037 0.75114 0.0
C310 C 0.51265 0.38493 0.69776 0.0
C311 C 0.54991 0.39849 0.68867 0.0
C312 C 0.58347 0.43314 0.71059 0.0
H313 H 0.61638 0.29885 0.52012 0.0
H314 H 0.61771 0.34047 0.57281 0.0
C315 C 0.57979 0.45389 0.7415 0.0
C316 C 0.55342 0.37643 0.65437 0.0
H317 H 0.58107 0.33786 0.69346 0.0
C318 C 0.5401 0.36356 0.57876 0.0
C319 C 0.5688 0.3674 0.69606 0.0
C320 C 0.58286 0.38009 0.77791 0.0
C321 C 0.54166 0.34182 0.5436 0.0
C322 C 0.55595 0.33192 0.58588 0.0
C323 C 0.57 0.34535 0.66116 0.0
C324 C 0.5553 0.30677 0.55369 0.0
C325 C 0.52845 0.33008 0.46113 0.0
C326 C 0.51974 0.27383 0.5264 0.0
C327 C 0.51895 0.25018 0.49531 0.0
C328 C 0.55365 0.25869 0.49184 0.0
C329 C 0.58919 0.29156 0.5206 0.0
C330 C 0.58997 0.31531 0.55134 0.0
H331 H 0.5304 0.348 0.43157 0.0
H332 H 0.54633 0.32776 0.43134 0.0
H333 H 0.49728 0.30461 0.45679 0.0
H334 H 0.49246 0.26633 0.52918 0.0
H335 H 0.49109 0.22533 0.47314 0.0
H336 H 1.00519 0.57409 0.02231 0.0
H337 H 0.97583 0.55436 0.8925 0.0
H338 H 0.09141 0.61921 0.80505 0.0
H339 H 0.12081 0.63979 0.93444 0.0
H340 H 1.02882 0.62587 0.78421 0.0
H341 H 0.98505 0.50736 0.68469 0.0
H342 H 0.98158 0.51631 0.78198 0.0
H343 H 1.02827 0.53669 0.74741 0.0
C344 C 1.02398 0.58312 -0.02502 0.0
C345 C 0.06504 0.60835 -0.01306 0.0
C346 C 1.00725 0.57188 0.90147 0.0
C347 C 1.03161 0.58546 0.84017 0.0
C348 C 0.07236 0.60844 0.85242 0.0
H349 H 0.13096 0.63408 0.47972 0.0
H350 H 0.0959 0.61859 0.59623 0.0
C351 C 0.08912 0.62015 0.92574 0.0
C352 C 1.01677 0.58118 0.76393 0.0
H353 H 1.01065 0.54832 0.59136 0.0
C354 C 1.02288 0.608 0.74141 0.0
C355 C 1.0083 0.5574 0.70938 0.0
C356 C 1.00005 0.52756 0.7319 0.0
C357 C 1.02781 0.61521 0.66528 0.0
C358 C 1.02596 0.59467 0.61202 0.0
C359 C 1.01266 0.56429 0.63315 0.0
C360 C 1.04896 0.60913 0.54414 0.0
C361 C 1.04064 0.64737 0.64419 0.0
C362 C 1.03515 0.61081 0.47818 0.0
C363 C 1.05612 0.62099 0.41247 0.0
C364 C 0.09 0.62831 0.41209 0.0
C365 C 0.1047 0.62827 0.47907 0.0
C366 C 0.08462 0.61927 0.54506 0.0
H367 H 1.03445 0.65726 0.68895 0.0
H368 H 0.07275 0.66745 0.63595 0.0
H369 H 1.02549 0.64253 0.59024 0.0
H370 H 1.00766 0.60305 0.47678 0.0
H371 H 1.04454 0.62099 0.36116 0.0
H372 H 0.61091 0.16231 0.14929 0.0
H373 H 0.5766 0.14897 0.03 0.0
H374 H 0.49511 1.04073 0.05835 0.0
H375 H 0.53145 0.05429 0.17511 0.0
H376 H 0.53436 0.05556 0.94527 0.0
H377 H 0.48654 0.11593 0.90901 0.0
H378 H 0.53382 0.14792 0.95724 0.0
H379 H 0.49357 0.10903 0.00215 0.0
C380 C 0.5851 0.13573 0.13066 0.0
C381 C 0.57465 0.10931 0.16867 0.0
C382 C 0.56482 0.12802 0.06334 0.0
C383 C 0.53323 0.09374 0.03475 0.0
C384 C 0.51954 0.06732 0.07897 0.0
H385 H 0.54832 0.07612 0.54551 0.0
H386 H 0.51669 0.05587 0.66574 0.0
C387 C 0.54065 0.07507 0.14485 0.0
C388 C 0.52408 0.08663 0.95227 0.0
H389 H 0.52626 0.12309 0.80279 0.0
C390 C 0.53105 0.06925 0.91375 0.0
C391 C 0.51908 0.10386 0.91072 0.0
C392 C 0.5074 0.11985 0.94737 0.0
C393 C 0.53946 0.07325 0.83728 0.0
C394 C 0.53964 0.09437 0.79813 0.0
C395 C 0.5273 0.10781 0.83388 0.0
C396 C 0.55736 0.10637 0.72414 0.0
C397 C 0.55196 0.05769 0.80172 0.0
C398 C 0.59045 0.14159 0.71703 0.0
C399 C 0.60817 0.15339 0.6478 0.0
C400 C 0.59336 0.13005 0.58534 0.0
C401 C 0.56088 0.09472 0.59323 0.0
C402 C 0.54259 0.08304 0.66175 0.0
H403 H 0.5572 0.04755 0.8443 0.0
H404 H 0.52845 1.03606 0.76074 0.0
H405 H 0.57926 0.07686 0.77079 0.0
H406 H 0.60242 0.15994 0.76501 0.0
H407 H 0.63285 0.18071 0.64263 0.0
H408 H 0.61855 0.6701 0.67639 0.0
H409 H 0.61214 0.67003 0.54045 0.0
H410 H 0.62478 0.60278 0.50267 0.0
H411 H 0.63201 0.60317 0.63962 0.0
H412 H 0.65264 0.67708 0.40155 0.0
H413 H 0.50499 0.5467 0.45058 0.0
H414 H 0.53749 0.57879 0.52725 0.0
H415 H 0.54769 0.55726 0.48041 0.0
C416 C 0.62188 0.65664 0.63922 0.0
C417 C 0.62485 0.63602 0.66788 0.0
C418 C 0.61809 0.65655 0.56173 0.0
C419 C 0.61702 0.63569 0.51287 0.0
C420 C 0.6251 0.61861 0.54061 0.0
H421 H 0.56664 0.58776 0.0535 0.0
H422 H 0.55625 0.57476 0.18555 0.0
C423 C 0.62926 0.61893 0.61843 0.0
C424 C 0.60053 0.62732 0.43612 0.0
H425 H 0.5152 0.56596 0.32861 0.0
C426 C 0.62274 0.65282 0.38513 0.0
C427 C 0.56127 0.59567 0.41661 0.0
C428 C 0.5362 0.56797 0.4715 0.0
C429 C 0.60674 0.64739 0.31366 0.0
C430 C 0.56721 0.61592 0.29435 0.0
C431 C 0.54508 0.59022 0.34508 0.0
C432 C 0.551 0.60854 0.2177 0.0
C433 C 0.63251 0.67511 0.25886 0.0
C434 C 0.54674 0.62864 0.1918 0.0
C435 C 0.55322 0.6365 0.11639 0.0
C436 C 0.56352 0.6239 0.06795 0.0
C437 C 0.55991 0.59852 0.09092 0.0
C438 C 0.55343 0.59069 0.16605 0.0
H439 H 0.66389 0.69548 0.27911 0.0
H440 H 0.63036 0.66412 0.20254 0.0
H441 H 0.62259 0.68722 0.25155 0.0
H442 H 0.54433 0.64217 0.23159 0.0
H443 H 0.55471 0.65537 0.09872 0.0
loop_
_geom_bond_atom_site_label_1
_geom_bond_atom_site_label_2
_geom_bond_distance
_geom_bond_site_symmetry_2
_ccdc_geom_bond_type
Sm0 C2 2.846 . S
Sm0 O20 2.543 . S
Sm0 O21 2.450 . S
Sm0 O22 2.681 . S
Sm0 O23 2.464 . S
Sm0 O24 2.396 . S
Sm0 O28 2.386 . S
Sm0 O31 2.408 1_455 S
Sm1 C11 2.846 1_455 S
Sm1 O22 2.386 . S
Sm1 O25 2.408 . S
Sm1 O26 2.543 1_455 S
Sm1 O27 2.450 1_455 S
Sm1 O28 2.681 . S
Sm1 O29 2.464 . S
Sm1 O30 2.396 1_455 S
C2 Sm0 2.846 . S
C2 C3 1.506 . S
C2 O20 1.261 . S
C2 O21 1.242 . S
C3 C2 1.506 . S
C3 C4 1.358 . S
C3 C8 1.382 . S
C4 C3 1.358 . S
C4 C5 1.385 . S
C4 H32 0.930 . S
C5 C4 1.385 . S
C5 C6 1.395 . S
C5 H33 0.929 . S
C6 C5 1.395 . S
C6 C7 1.335 . S
C7 C6 1.335 . S
C7 C8 1.398 . S
C7 H34 0.930 . S
C8 C3 1.382 . S
C8 C7 1.398 . S
C8 H35 0.929 . S
C9 O22 1.271 . S
C9 O23 1.251 . S
C10 O24 1.252 . S
C10 O25 1.272 . S
C11 Sm1 2.846 1_655 S
C11 C12 1.506 . S
C11 O26 1.261 . S
C11 O27 1.242 . S
C12 C11 1.506 . S
C12 C13 1.358 . S
C12 C17 1.382 . S
C13 C12 1.358 . S
C13 C14 1.385 . S
C13 H36 0.930 . S
C14 C13 1.385 . S
C14 C15 1.395 . S
C14 H37 0.929 . S
C15 C14 1.395 . S
C15 C16 1.335 . S
C16 C15 1.335 . S
C16 C17 1.398 . S
C16 H38 0.930 . S
C17 C12 1.382 . S
C17 C16 1.398 . S
C17 H39 0.929 . S
C18 O28 1.271 . S
C18 O29 1.251 . S
C19 O30 1.252 . S
C19 O31 1.272 . S
O20 Sm0 2.543 . S
O20 C2 1.261 . S
O21 Sm0 2.450 . S
O21 C2 1.242 . S
O22 Sm0 2.681 . S
O22 Sm1 2.386 . S
O22 C9 1.271 . S
O23 Sm0 2.464 . S
O23 C9 1.251 . S
O24 Sm0 2.396 . S
O24 C10 1.252 . S
O25 Sm1 2.408 . S
O25 C10 1.272 . S
O26 Sm1 2.543 1_655 S
O26 C11 1.261 . S
O27 Sm1 2.450 1_655 S
O27 C11 1.242 . S
O28 Sm0 2.386 . S
O28 Sm1 2.681 . S
O28 C18 1.271 . S
O29 Sm1 2.464 . S
O29 C18 1.251 . S
O30 Sm1 2.396 1_655 S
O30 C19 1.252 . S
O31 Sm0 2.408 1_655 S
O31 C19 1.272 . S
H32 C4 0.930 . S
H33 C5 0.929 . S
H34 C7 0.930 . S
H35 C8 0.929 . S
H36 C13 0.930 . S
H37 C14 0.929 . S
H38 C16 0.930 . S
H39 C17 0.929 . S
Sm40 C42 2.846 . S
Sm40 O60 2.543 . S
Sm40 O61 2.450 . S
Sm40 O62 2.681 . S
Sm40 O63 2.464 . S
Sm40 O64 2.396 . S
Sm40 O68 2.386 . S
Sm40 O71 2.408 . S
Sm41 C51 2.846 . S
Sm41 O62 2.386 . S
Sm41 O65 2.408 . S
Sm41 O66 2.543 . S
Sm41 O67 2.450 . S
Sm41 O68 2.681 . S
Sm41 O69 2.464 . S
Sm41 O70 2.396 . S
C42 Sm40 2.846 . S
C42 C43 1.506 1_545 S
C42 O60 1.261 . S
C42 O61 1.242 . S
C43 C42 1.506 1_565 S
C43 C44 1.358 . S
C43 C48 1.382 . S
C44 C43 1.358 . S
C44 C45 1.385 . S
C44 H72 0.930 . S
C45 C44 1.385 . S
C45 C46 1.395 . S
C45 H73 0.929 . S
C46 C45 1.395 . S
C46 C47 1.335 . S
C47 C46 1.335 . S
C47 C48 1.398 . S
C47 H74 0.930 . S
C48 C43 1.382 . S
C48 C47 1.398 . S
C48 H75 0.929 . S
C49 O62 1.271 . S
C49 O63 1.251 . S
C50 O64 1.252 . S
C50 O65 1.272 . S
C51 Sm41 2.846 . S
C51 C52 1.506 . S
C51 O66 1.261 . S
C51 O67 1.242 . S
C52 C51 1.506 . S
C52 C53 1.358 . S
C52 C57 1.382 . S
C53 C52 1.358 . S
C53 C54 1.385 . S
C53 H76 0.930 . S
C54 C53 1.385 . S
C54 C55 1.395 . S
C54 H77 0.929 . S
C55 C54 1.395 . S
C55 C56 1.335 . S
C56 C55 1.335 . S
C56 C57 1.398 . S
C56 H78 0.930 . S
C57 C52 1.382 . S
C57 C56 1.398 . S
C57 H79 0.929 . S
C58 O68 1.271 . S
C58 O69 1.251 . S
C59 O70 1.252 . S
C59 O71 1.272 . S
O60 Sm40 2.543 . S
O60 C42 1.261 . S
O61 Sm40 2.450 . S
O61 C42 1.242 . S
O62 Sm40 2.681 . S
O62 Sm41 2.386 . S
O62 C49 1.271 . S
O63 Sm40 2.464 . S
O63 C49 1.251 . S
O64 Sm40 2.396 . S
O64 C50 1.252 . S
O65 Sm41 2.408 . S
O65 C50 1.272 . S
O66 Sm41 2.543 . S
O66 C51 1.261 . S
O67 Sm41 2.450 . S
O67 C51 1.242 . S
O68 Sm40 2.386 . S
O68 Sm41 2.681 . S
O68 C58 1.271 . S
O69 Sm41 2.464 . S
O69 C58 1.251 . S
O70 Sm41 2.396 . S
O70 C59 1.252 . S
O71 Sm40 2.408 . S
O71 C59 1.272 . S
H72 C44 0.930 . S
H73 C45 0.929 . S
H74 C47 0.930 . S
H75 C48 0.929 . S
H76 C53 0.930 . S
H77 C54 0.929 . S
H78 C56 0.930 . S
H79 C57 0.929 . S
Sm80 C82 2.846 . S
Sm80 O100 2.543 . S
Sm80 O101 2.450 . S
Sm80 O102 2.681 . S
Sm80 O103 2.464 1_556 S
Sm80 O104 2.396 . S
Sm80 O108 2.386 . S
Sm80 O111 2.408 . S
Sm81 C91 2.846 . S
Sm81 O102 2.386 . S
Sm81 O105 2.408 . S
Sm81 O106 2.543 . S
Sm81 O107 2.450 . S
Sm81 O108 2.681 . S
Sm81 O109 2.464 . S
Sm81 O110 2.396 . S
C82 Sm80 2.846 . S
C82 C83 1.506 . S
C82 O100 1.261 . S
C82 O101 1.242 . S
C83 C82 1.506 . S
C83 C84 1.358 . S
C83 C88 1.382 . S
C84 C83 1.358 . S
C84 C85 1.385 . S
C84 H112 0.930 . S
C85 C84 1.385 . S
C85 C86 1.395 . S
C85 H113 0.929 . S
C86 C85 1.395 . S
C86 C87 1.335 . S
C87 C86 1.335 . S
C87 C88 1.398 . S
C87 H114 0.930 . S
C88 C83 1.382 . S
C88 C87 1.398 . S
C88 H115 0.929 . S
C89 O102 1.271 1_554 S
C89 O103 1.251 . S
C90 O104 1.252 . S
C90 O105 1.272 . S
C91 Sm81 2.846 . S
C91 C92 1.506 . S
C91 O106 1.261 . S
C91 O107 1.242 . S
C92 C91 1.506 . S
C92 C93 1.358 . S
C92 C97 1.382 . S
C93 C92 1.358 . S
C93 C94 1.385 . S
C93 H116 0.930 . S
C94 C93 1.385 . S
C94 C95 1.395 . S
C94 H117 0.929 . S
C95 C94 1.395 . S
C95 C96 1.335 . S
C96 C95 1.335 . S
C96 C97 1.398 . S
C96 H118 0.930 . S
C97 C92 1.382 . S
C97 C96 1.398 . S
C97 H119 0.929 . S
C98 O108 1.271 . S
C98 O109 1.251 . S
C99 O110 1.252 . S
C99 O111 1.272 . S
O100 Sm80 2.543 . S
O100 C82 1.261 . S
O101 Sm80 2.450 . S
O101 C82 1.242 . S
O102 Sm80 2.681 . S
O102 Sm81 2.386 . S
O102 C89 1.271 1_556 S
O103 Sm80 2.464 1_554 S
O103 C89 1.251 . S
O104 Sm80 2.396 . S
O104 C90 1.252 . S
O105 Sm81 2.408 . S
O105 C90 1.272 . S
O106 Sm81 2.543 . S
O106 C91 1.261 . S
O107 Sm81 2.450 . S
O107 C91 1.242 . S
O108 Sm80 2.386 . S
O108 Sm81 2.681 . S
O108 C98 1.271 . S
O109 Sm81 2.464 . S
O109 C98 1.251 . S
O110 Sm81 2.396 . S
O110 C99 1.252 . S
O111 Sm80 2.408 . S
O111 C99 1.272 . S
H112 C84 0.930 . S
H113 C85 0.929 . S
H114 C87 0.930 . S
H115 C88 0.929 . S
H116 C93 0.930 . S
H117 C94 0.929 . S
H118 C96 0.930 . S
H119 C97 0.929 . S
H120 C128 0.929 . S
H121 C130 0.930 1_556 S
H122 C132 0.930 . S
H123 C135 0.929 . S
H124 C138 0.930 . S
H125 C140 0.960 . S
H126 C140 0.960 . S
H127 C140 0.960 1_554 S
C128 H120 0.929 . S
C128 C129 1.377 . S
C128 C130 1.384 . S
C129 C128 1.377 . S
C129 C135 1.390 . S
C130 H121 0.930 1_554 S
C130 C128 1.384 . S
C130 C131 1.372 . S
C131 C130 1.372 . S
C131 C132 1.400 . S
C131 C136 1.490 . S
C132 H122 0.930 . S
C132 C131 1.400 . S
C132 C135 1.386 . S
H133 C149 0.930 . S
H134 C150 0.931 1_554 S
C135 H123 0.929 . S
C135 C129 1.390 . S
C135 C132 1.386 . S
C136 C131 1.490 . S
C136 C138 1.395 . S
C136 C139 1.403 1_554 S
H137 C143 0.930 . S
C138 H124 0.930 . S
C138 C136 1.395 . S
C138 C141 1.400 1_554 S
C139 C136 1.403 1_556 S
C139 C140 1.524 . S
C139 C143 1.400 . S
C140 H125 0.960 . S
C140 H126 0.960 . S
C140 H127 0.960 1_556 S
C140 C139 1.524 . S
C141 C138 1.400 1_556 S
C141 C142 1.396 . S
C141 C145 1.495 1_556 S
C142 C141 1.396 . S
C142 C143 1.385 . S
C142 C144 1.478 . S
C143 H137 0.930 . S
C143 C139 1.400 . S
C143 C142 1.385 . S
C144 C142 1.478 . S
C144 C146 1.381 . S
C144 C150 1.383 . S
C145 C141 1.495 1_554 S
C145 H151 0.959 . S
C145 H152 0.961 . S
C145 H153 0.960 1_554 S
C146 C144 1.381 . S
C146 C147 1.394 . S
C146 H154 0.930 . S
C147 C146 1.394 . S
C147 C148 1.383 . S
C147 H155 0.929 . S
C148 C147 1.383 . S
C148 C149 1.377 . S
C149 H133 0.930 . S
C149 C148 1.377 . S
C149 C150 1.379 . S
C150 H134 0.931 1_556 S
C150 C144 1.383 . S
C150 C149 1.379 . S
H151 C145 0.959 . S
H152 C145 0.961 . S
H153 C145 0.960 1_556 S
H154 C146 0.930 . S
H155 C147 0.929 . S
H156 C164 0.929 . S
H157 C166 0.930 . S
H158 C168 0.930 . S
H159 C171 0.929 . S
H160 C174 0.930 . S
H161 C176 0.960 . S
H162 C176 0.960 . S
H163 C176 0.960 . S
C164 H156 0.929 . S
C164 C165 1.377 . S
C164 C166 1.384 . S
C165 C164 1.377 . S
C165 C171 1.390 . S
C166 H157 0.930 . S
C166 C164 1.384 . S
C166 C167 1.372 . S
C167 C166 1.372 . S
C167 C168 1.400 . S
C167 C172 1.490 . S
C168 H158 0.930 . S
C168 C167 1.400 . S
C168 C171 1.386 . S
H169 C185 0.930 . S
H170 C186 0.931 . S
C171 H159 0.929 . S
C171 C165 1.390 . S
C171 C168 1.386 . S
C172 C167 1.490 . S
C172 C174 1.395 . S
C172 C175 1.403 . S
H173 C179 0.930 . S
C174 H160 0.930 . S
C174 C172 1.395 . S
C174 C177 1.403 . S
C175 C172 1.403 . S
C175 C176 1.524 . S
C175 C179 1.400 . S
C176 H161 0.960 . S
C176 H162 0.960 . S
C176 H163 0.960 . S
C176 C175 1.524 . S
C177 C174 1.403 . S
C177 C178 1.392 . S
C177 C181 1.495 . S
C178 C177 1.392 . S
C178 C179 1.385 . S
C178 C180 1.478 . S
C179 H173 0.930 . S
C179 C175 1.400 . S
C179 C178 1.385 . S
C180 C178 1.478 . S
C180 C182 1.381 . S
C180 C186 1.383 . S
C181 C177 1.495 . S
C181 H187 0.959 . S
C181 H188 0.961 . S
C181 H189 0.960 . S
C182 C180 1.381 . S
C182 C183 1.394 . S
C182 H190 0.930 . S
C183 C182 1.394 . S
C183 C184 1.383 . S
C183 H191 0.929 . S
C184 C183 1.383 . S
C184 C185 1.377 . S
C185 H169 0.930 . S
C185 C184 1.377 . S
C185 C186 1.379 . S
C186 H170 0.931 . S
C186 C180 1.383 . S
C186 C185 1.379 . S
H187 C181 0.959 . S
H188 C181 0.961 . S
H189 C181 0.960 . S
H190 C182 0.930 . S
H191 C183 0.929 . S
H192 C200 0.929 . S
H193 C202 0.930 . S
H194 C204 0.930 . S
H195 C207 0.929 . S
H196 C210 0.930 . S
H197 C212 0.960 . S
H198 C212 0.960 . S
H199 C212 0.960 . S
C200 H192 0.929 . S
C200 C201 1.377 . S
C200 C202 1.384 . S
C201 C200 1.377 . S
C201 C207 1.390 . S
C202 H193 0.930 . S
C202 C200 1.384 . S
C202 C203 1.372 . S
C203 C202 1.372 . S
C203 C204 1.400 . S
C203 C208 1.490 . S
C204 H194 0.930 . S
C204 C203 1.400 . S
C204 C207 1.386 . S
H205 C221 0.930 . S
H206 C222 0.931 . S
C207 H195 0.929 . S
C207 C201 1.390 . S
C207 C204 1.386 . S
C208 C203 1.490 . S
C208 C210 1.395 . S
C208 C211 1.403 . S
H209 C215 0.930 . S
C210 H196 0.930 . S
C210 C208 1.395 . S
C210 C213 1.403 . S
C211 C208 1.403 . S
C211 C212 1.524 . S
C211 C215 1.400 . S
C212 H197 0.960 . S
C212 H198 0.960 . S
C212 H199 0.960 . S
C212 C211 1.524 . S
C213 C210 1.403 . S
C213 C214 1.392 . S
C213 C217 1.495 . S
C214 C213 1.392 . S
C214 C215 1.385 . S
C214 C216 1.478 . S
C215 H209 0.930 . S
C215 C211 1.400 . S
C215 C214 1.385 . S
C216 C214 1.478 . S
C216 C218 1.381 . S
C216 C222 1.383 . S
C217 C213 1.495 . S
C217 H223 0.959 . S
C217 H224 0.961 . S
C217 H225 0.960 . S
C218 C216 1.381 . S
C218 C219 1.394 . S
C218 H226 0.930 . S
C219 C218 1.394 . S
C219 C220 1.383 . S
C219 H227 0.929 . S
C220 C219 1.383 . S
C220 C221 1.377 . S
C221 H205 0.930 . S
C221 C220 1.377 . S
C221 C222 1.379 . S
C222 H206 0.931 . S
C222 C216 1.383 . S
C222 C221 1.379 . S
H223 C217 0.959 . S
H224 C217 0.961 . S
H225 C217 0.960 . S
H226 C218 0.930 . S
H227 C219 0.929 . S
H228 C236 0.929 . S
H229 C238 0.930 . S
H230 C240 0.930 1_554 S
H231 C243 0.929 . S
H232 C246 0.930 . S
H233 C248 0.960 . S
H234 C248 0.960 . S
H235 C248 0.960 1_554 S
C236 H228 0.929 . S
C236 C237 1.377 . S
C236 C238 1.384 . S
C237 C236 1.377 . S
C237 C243 1.390 . S
C238 H229 0.930 . S
C238 C236 1.384 . S
C238 C239 1.372 . S
C239 C238 1.372 . S
C239 C240 1.400 . S
C239 C244 1.490 . S
C240 H230 0.930 1_556 S
C240 C239 1.400 . S
C240 C243 1.386 . S
H241 C257 0.930 . S
H242 C258 0.931 . S
C243 H231 0.929 . S
C243 C237 1.390 . S
C243 C240 1.386 . S
C244 C239 1.490 . S
C244 C246 1.395 1_556 S
C244 C247 1.403 1_556 S
H245 C251 0.930 . S
C246 H232 0.930 . S
C246 C244 1.395 1_554 S
C246 C249 1.403 . S
C247 C244 1.403 1_554 S
C247 C248 1.524 1_554 S
C247 C251 1.400 . S
C248 H233 0.960 . S
C248 H234 0.960 . S
C248 H235 0.960 1_556 S
C248 C247 1.524 1_556 S
C249 C246 1.403 . S
C249 C250 1.392 . S
C249 C253 1.495 . S
C250 C249 1.392 . S
C250 C251 1.385 . S
C250 C252 1.478 . S
C251 H245 0.930 . S
C251 C247 1.400 . S
C251 C250 1.385 . S
C252 C250 1.478 . S
C252 C254 1.381 . S
C252 C258 1.383 . S
C253 C249 1.495 . S
C253 H259 0.959 . S
C253 H260 0.961 . S
C253 H261 0.960 . S
C254 C252 1.381 . S
C254 C255 1.394 . S
C254 H262 0.930 . S
C255 C254 1.394 . S
C255 C256 1.383 . S
C255 H263 0.929 . S
C256 C255 1.383 . S
C256 C257 1.377 . S
C257 H241 0.930 . S
C257 C256 1.377 . S
C257 C258 1.379 . S
C258 H242 0.931 . S
C258 C252 1.383 . S
C258 C257 1.379 . S
H259 C253 0.959 . S
H260 C253 0.961 . S
H261 C253 0.960 . S
H262 C254 0.930 . S
H263 C255 0.929 . S
H264 C272 0.929 . S
H265 C274 0.930 . S
H266 C276 0.930 . S
H267 C279 0.929 . S
H268 C282 0.930 . S
H269 C284 0.960 . S
H270 C284 0.960 . S
H271 C284 0.960 . S
C272 H264 0.929 . S
C272 C273 1.377 . S
C272 C274 1.384 . S
C273 C272 1.377 . S
C273 C279 1.390 . S
C274 H265 0.930 . S
C274 C272 1.384 . S
C274 C275 1.372 . S
C275 C274 1.372 . S
C275 C276 1.400 . S
C275 C280 1.490 . S
C276 H266 0.930 . S
C276 C275 1.400 . S
C276 C279 1.386 . S
H277 C293 0.930 . S
H278 C294 0.931 . S
C279 H267 0.929 . S
C279 C273 1.390 . S
C279 C276 1.386 . S
C280 C275 1.490 . S
C280 C282 1.395 . S
C280 C283 1.403 . S
H281 C287 0.930 . S
C282 H268 0.930 . S
C282 C280 1.395 . S
C282 C285 1.403 . S
C283 C280 1.403 . S
C283 C284 1.524 . S
C283 C287 1.400 . S
C284 H269 0.960 . S
C284 H270 0.960 . S
C284 H271 0.960 . S
C284 C283 1.524 . S
C285 C282 1.403 . S
C285 C286 1.392 . S
C285 C289 1.495 . S
C286 C285 1.392 . S
C286 C287 1.385 . S
C286 C288 1.478 . S
C287 H281 0.930 . S
C287 C283 1.400 . S
C287 C286 1.385 . S
C288 C286 1.478 . S
C288 C290 1.381 . S
C288 C294 1.383 . S
C289 C285 1.495 . S
C289 H295 0.959 . S
C289 H296 0.961 . S
C289 H297 0.960 . S
C290 C288 1.381 . S
C290 C291 1.394 . S
C290 H298 0.930 . S
C291 C290 1.394 . S
C291 C292 1.383 . S
C291 H299 0.929 . S
C292 C291 1.383 . S
C292 C293 1.377 . S
C293 H277 0.930 . S
C293 C292 1.377 . S
C293 C294 1.379 . S
C294 H278 0.931 . S
C294 C288 1.383 . S
C294 C293 1.379 . S
H295 C289 0.959 . S
H296 C289 0.961 . S
H297 C289 0.960 . S
H298 C290 0.930 . S
H299 C291 0.929 . S
H300 C308 0.929 . S
H301 C310 0.930 . S
H302 C312 0.930 . S
H303 C315 0.929 . S
H304 C318 0.930 . S
H305 C320 0.960 . S
H306 C320 0.960 . S
H307 C320 0.960 . S
C308 H300 0.929 . S
C308 C309 1.377 . S
C308 C310 1.384 . S
C309 C308 1.377 . S
C309 C315 1.390 . S
C310 H301 0.930 . S
C310 C308 1.384 . S
C310 C311 1.372 . S
C311 C310 1.372 . S
C311 C312 1.400 . S
C311 C316 1.490 . S
C312 H302 0.930 . S
C312 C311 1.400 . S
C312 C315 1.386 . S
H313 C329 0.930 . S
H314 C330 0.931 . S
C315 H303 0.929 . S
C315 C309 1.390 . S
C315 C312 1.386 . S
C316 C311 1.490 . S
C316 C318 1.395 . S
C316 C319 1.403 . S
H317 C323 0.930 . S
C318 H304 0.930 . S
C318 C316 1.395 . S
C318 C321 1.403 . S
C319 C316 1.403 . S
C319 C320 1.524 . S
C319 C323 1.400 . S
C320 H305 0.960 . S
C320 H306 0.960 . S
C320 H307 0.960 . S
C320 C319 1.524 . S
C321 C318 1.403 . S
C321 C322 1.392 . S
C321 C325 1.495 . S
C322 C321 1.392 . S
C322 C323 1.385 . S
C322 C324 1.478 . S
C323 H317 0.930 . S
C323 C319 1.400 . S
C323 C322 1.385 . S
C324 C322 1.478 . S
C324 C326 1.381 . S
C324 C330 1.383 . S
C325 C321 1.495 . S
C325 H331 0.959 . S
C325 H332 0.961 . S
C325 H333 0.960 . S
C326 C324 1.381 . S
C326 C327 1.394 . S
C326 H334 0.930 . S
C327 C326 1.394 . S
C327 C328 1.383 . S
C327 H335 0.929 . S
C328 C327 1.383 . S
C328 C329 1.377 . S
C329 H313 0.930 . S
C329 C328 1.377 . S
C329 C330 1.379 . S
C330 H314 0.931 . S
C330 C324 1.383 . S
C330 C329 1.379 . S
H331 C325 0.959 . S
H332 C325 0.961 . S
H333 C325 0.960 . S
H334 C326 0.930 . S
H335 C327 0.929 . S
H336 C344 0.940 1_554 S
H337 C346 0.930 . S
H338 C348 0.930 . S
H339 C351 0.929 . S
H340 C354 0.930 . S
H341 C356 0.965 1_655 S
H342 C356 0.960 1_655 S
H343 C356 0.960 . S
C344 H336 0.940 1_556 S
C344 C345 1.367 1_656 S
C344 C346 1.385 . S
C345 C344 1.367 1_454 S
C345 C351 1.390 1_554 S
C346 H337 0.930 . S
C346 C344 1.385 . S
C346 C347 1.372 1_655 S
C347 C346 1.372 1_455 S
C347 C348 1.400 . S
C347 C352 1.490 . S
C348 H338 0.930 . S
C348 C347 1.400 . S
C348 C351 1.386 . S
H349 C365 0.930 . S
H350 C366 0.931 . S
C351 H339 0.929 . S
C351 C345 1.390 1_556 S
C351 C348 1.386 . S
C352 C347 1.490 . S
C352 C354 1.395 . S
C352 C355 1.403 . S
H353 C359 0.930 . S
C354 H340 0.930 . S
C354 C352 1.395 . S
C354 C357 1.403 . S
C355 C352 1.403 . S
C355 C356 1.524 . S
C355 C359 1.400 . S
C356 H341 0.965 1_455 S
C356 H342 0.960 1_455 S
C356 H343 0.960 . S
C356 C355 1.524 . S
C357 C354 1.403 . S
C357 C358 1.392 . S
C357 C361 1.495 . S
C358 C357 1.392 . S
C358 C359 1.385 . S
C358 C360 1.478 . S
C359 H353 0.930 . S
C359 C355 1.400 . S
C359 C358 1.385 . S
C360 C358 1.478 . S
C360 C362 1.381 1_455 S
C360 C366 1.383 . S
C361 C357 1.495 . S
C361 H367 0.959 . S
C361 H368 0.961 . S
C361 H369 0.960 . S
C362 C360 1.381 1_655 S
C362 C363 1.394 . S
C362 H370 0.930 . S
C363 C362 1.394 . S
C363 C364 1.383 1_655 S
C363 H371 0.929 . S
C364 C363 1.383 1_455 S
C364 C365 1.377 . S
C365 H349 0.930 . S
C365 C364 1.377 . S
C365 C366 1.379 . S
C366 H350 0.931 . S
C366 C360 1.383 . S
C366 C365 1.379 . S
H367 C361 0.959 . S
H368 C361 0.961 . S
H369 C361 0.960 . S
H370 C362 0.930 . S
H371 C363 0.929 . S
H372 C380 0.929 . S
H373 C382 0.930 . S
H374 C384 0.930 . S
H375 C387 0.929 . S
H376 C390 0.930 . S
H377 C392 0.960 . S
H378 C392 0.960 . S
H379 C392 0.960 . S
C380 H372 0.929 . S
C380 C381 1.377 . S
C380 C382 1.384 . S
C381 C380 1.377 . S
C381 C387 1.390 . S
C382 H373 0.930 . S
C382 C380 1.384 . S
C382 C383 1.372 . S
C383 C382 1.372 . S
C383 C384 1.400 . S
C383 C388 1.490 . S
C384 H374 0.930 . S
C384 C383 1.400 . S
C384 C387 1.386 . S
H385 C401 0.930 . S
H386 C402 0.931 . S
C387 H375 0.929 . S
C387 C381 1.390 . S
C387 C384 1.386 . S
C388 C383 1.490 . S
C388 C390 1.395 . S
C388 C391 1.403 . S
H389 C395 0.930 . S
C390 H376 0.930 . S
C390 C388 1.395 . S
C390 C393 1.403 1_554 S
C391 C388 1.403 . S
C391 C392 1.524 . S
C391 C395 1.400 1_554 S
C392 H377 0.960 . S
C392 H378 0.960 . S
C392 H379 0.960 . S
C392 C391 1.524 . S
C393 C390 1.403 1_556 S
C393 C394 1.392 . S
C393 C397 1.495 . S
C394 C393 1.392 . S
C394 C395 1.385 . S
C394 C396 1.478 . S
C395 H389 0.930 . S
C395 C391 1.400 1_556 S
C395 C394 1.385 . S
C396 C394 1.478 . S
C396 C398 1.381 . S
C396 C402 1.383 . S
C397 C393 1.495 . S
C397 H403 0.959 . S
C397 H404 0.961 . S
C397 H405 0.960 . S
C398 C396 1.381 . S
C398 C399 1.394 . S
C398 H406 0.930 . S
C399 C398 1.394 . S
C399 C400 1.383 . S
C399 H407 0.929 . S
C400 C399 1.383 . S
C400 C401 1.377 . S
C401 H385 0.930 . S
C401 C400 1.377 . S
C401 C402 1.379 . S
C402 H386 0.931 . S
C402 C396 1.383 . S
C402 C401 1.379 . S
H403 C397 0.959 . S
H404 C397 0.961 . S
H405 C397 0.960 . S
H406 C398 0.930 . S
H407 C399 0.929 . S
H408 C416 0.929 . S
H409 C418 0.930 . S
H410 C420 0.930 . S
H411 C423 0.929 . S
H412 C426 0.930 . S
H413 C428 0.960 . S
H414 C428 0.960 . S
H415 C428 0.960 . S
C416 H408 0.929 . S
C416 C417 1.377 . S
C416 C418 1.384 . S
C417 C416 1.377 . S
C417 C423 1.390 . S
C418 H409 0.930 . S
C418 C416 1.384 . S
C418 C419 1.372 . S
C419 C418 1.372 . S
C419 C420 1.400 . S
C419 C424 1.490 . S
C420 H410 0.930 . S
C420 C419 1.400 . S
C420 C423 1.386 . S
H421 C437 0.930 . S
H422 C438 0.931 . S
C423 H411 0.929 . S
C423 C417 1.390 . S
C423 C420 1.386 . S
C424 C419 1.490 . S
C424 C426 1.395 . S
C424 C427 1.403 . S
H425 C431 0.930 . S
C426 H412 0.930 . S
C426 C424 1.395 . S
C426 C429 1.403 . S
C427 C424 1.403 . S
C427 C428 1.524 . S
C427 C431 1.400 . S
C428 H413 0.960 . S
C428 H414 0.960 . S
C428 H415 0.960 . S
C428 C427 1.524 . S
C429 C426 1.403 . S
C429 C430 1.392 . S
C429 C433 1.495 . S
C430 C429 1.392 . S
C430 C431 1.385 . S
C430 C432 1.478 . S
C431 H425 0.930 . S
C431 C427 1.400 . S
C431 C430 1.385 . S
C432 C430 1.478 . S
C432 C434 1.381 . S
C432 C438 1.383 . S
C433 C429 1.495 . S
C433 H439 0.959 . S
C433 H440 0.961 . S
C433 H441 0.960 . S
C434 C432 1.381 . S
C434 C435 1.394 . S
C434 H442 0.930 . S
C435 C434 1.394 . S
C435 C436 1.383 . S
C435 H443 0.929 . S
C436 C435 1.383 . S
C436 C437 1.377 . S
C437 H421 0.930 . S
C437 C436 1.377 . S
C437 C438 1.379 . S
C438 H422 0.931 . S
C438 C432 1.383 . S
C438 C437 1.379 . S
H439 C433 0.959 . S
H440 C433 0.961 . S
H441 C433 0.960 . S
H442 C434 0.930 . S
H443 C435 0.929 . S
C129 C6 2.211 . S
C148 C90 2.164 . S
C165 C59 3.086 . S
C184 C19 3.057 . S
C201 C46 1.590 . S
C220 C86 1.585 . S
C237 C99 2.523 . S
C256 C15 2.404 . S
C273 C50 2.729 1_565 S
C292 C10 2.707 . S
C309 C95 1.493 . S
C328 C55 1.503 . S
C345 C18 0.409 . S
C364 C9 0.492 . S
C381 C49 0.371 . S
C400 C58 0.426 . S
C417 C98 0.372 . S
C436 C89 0.282 . S
