# Generated by pormake.
# Topology uoh, (4)-cn, num edge types: 1
# Building blocks:
#     Node 0, Type 0, BuildingBlock: NAHDIM_clean_sbu_0, # of connection points: 4
#     Node 1, Type 0, BuildingBlock: NAHDIM_clean_sbu_0, # of connection points: 4
#     Node 2, Type 0, BuildingBlock: NAHDIM_clean_sbu_0, # of connection points: 4
#     Node 3, Type 0, BuildingBlock: NAHDIM_clean_sbu_0, # of connection points: 4
#     Node 4, Type 0, BuildingBlock: NAHDIM_clean_sbu_0, # of connection points: 4
#     Node 5, Type 0, BuildingBlock: NAHDIM_clean_sbu_0, # of connection points: 4
#     Node 6, Type 0, BuildingBlock: NAHDIM_clean_sbu_0, # of connection points: 4
#     Node 7, Type 0, BuildingBlock: NAHDIM_clean_sbu_0, # of connection points: 4
#     Node 8, Type 0, BuildingBlock: NAHDIM_clean_sbu_0, # of connection points: 4
#     Node 9, Type 0, BuildingBlock: NAHDIM_clean_sbu_0, # of connection points: 4
#     Node 10, Type 0, BuildingBlock: NAHDIM_clean_sbu_0, # of connection points: 4
#     Node 11, Type 0, BuildingBlock: NAHDIM_clean_sbu_0, # of connection points: 4
#     Node 12, Type 0, BuildingBlock: NAHDIM_clean_sbu_0, # of connection points: 4
#     Node 13, Type 0, BuildingBlock: NAHDIM_clean_sbu_0, # of connection points: 4
#     Node 14, Type 0, BuildingBlock: NAHDIM_clean_sbu_0, # of connection points: 4
#     Node 15, Type 0, BuildingBlock: NAHDIM_clean_sbu_0, # of connection points: 4
#     Node 16, Type 0, BuildingBlock: NAHDIM_clean_sbu_0, # of connection points: 4
#     Node 17, Type 0, BuildingBlock: NAHDIM_clean_sbu_0, # of connection points: 4
#     Node 18, Type 0, BuildingBlock: NAHDIM_clean_sbu_0, # of connection points: 4
#     Node 19, Type 0, BuildingBlock: NAHDIM_clean_sbu_0, # of connection points: 4
#     Node 20, Type 0, BuildingBlock: NAHDIM_clean_sbu_0, # of connection points: 4
#     Node 21, Type 0, BuildingBlock: NAHDIM_clean_sbu_0, # of connection points: 4
#     Node 22, Type 0, BuildingBlock: NAHDIM_clean_sbu_0, # of connection points: 4
#     Node 23, Type 0, BuildingBlock: NAHDIM_clean_sbu_0, # of connection points: 4
#     Node 24, Type 0, BuildingBlock: NAHDIM_clean_sbu_0, # of connection points: 4
#     Node 25, Type 0, BuildingBlock: NAHDIM_clean_sbu_0, # of connection points: 4
#     Node 26, Type 0, BuildingBlock: NAHDIM_clean_sbu_0, # of connection points: 4
#     Node 27, Type 0, BuildingBlock: NAHDIM_clean_sbu_0, # of connection points: 4
#     Node 28, Type 0, BuildingBlock: NAHDIM_clean_sbu_0, # of connection points: 4
#     Node 29, Type 0, BuildingBlock: NAHDIM_clean_sbu_0, # of connection points: 4
#     Node 30, Type 0, BuildingBlock: NAHDIM_clean_sbu_0, # of connection points: 4
#     Node 31, Type 0, BuildingBlock: NAHDIM_clean_sbu_0, # of connection points: 4
#     Node 32, Type 0, BuildingBlock: NAHDIM_clean_sbu_0, # of connection points: 4
#     Node 33, Type 0, BuildingBlock: NAHDIM_clean_sbu_0, # of connection points: 4
#     Node 34, Type 0, BuildingBlock: NAHDIM_clean_sbu_0, # of connection points: 4
#     Node 35, Type 0, BuildingBlock: NAHDIM_clean_sbu_0, # of connection points: 4
#     Edge 36, Type (0, 0), BuildingBlock: CIFDUS_clean_linker_0, # of connection points: 2
#     Edge 37, Type (0, 0), BuildingBlock: CIFDUS_clean_linker_0, # of connection points: 2
#     Edge 38, Type (0, 0), BuildingBlock: CIFDUS_clean_linker_0, # of connection points: 2
#     Edge 39, Type (0, 0), BuildingBlock: CIFDUS_clean_linker_0, # of connection points: 2
#     Edge 40, Type (0, 0), BuildingBlock: CIFDUS_clean_linker_0, # of connection points: 2
#     Edge 41, Type (0, 0), BuildingBlock: CIFDUS_clean_linker_0, # of connection points: 2
#     Edge 42, Type (0, 0), BuildingBlock: CIFDUS_clean_linker_0, # of connection points: 2
#     Edge 43, Type (0, 0), BuildingBlock: CIFDUS_clean_linker_0, # of connection points: 2
#     Edge 44, Type (0, 0), BuildingBlock: CIFDUS_clean_linker_0, # of connection points: 2
#     Edge 45, Type (0, 0), BuildingBlock: CIFDUS_clean_linker_0, # of connection points: 2
#     Edge 46, Type (0, 0), BuildingBlock: CIFDUS_clean_linker_0, # of connection points: 2
#     Edge 47, Type (0, 0), BuildingBlock: CIFDUS_clean_linker_0, # of connection points: 2
#     Edge 48, Type (0, 0), BuildingBlock: CIFDUS_clean_linker_0, # of connection points: 2
#     Edge 49, Type (0, 0), BuildingBlock: CIFDUS_clean_linker_0, # of connection points: 2
#     Edge 50, Type (0, 0), BuildingBlock: CIFDUS_clean_linker_0, # of connection points: 2
#     Edge 51, Type (0, 0), BuildingBlock: CIFDUS_clean_linker_0, # of connection points: 2
#     Edge 52, Type (0, 0), BuildingBlock: CIFDUS_clean_linker_0, # of connection points: 2
#     Edge 53, Type (0, 0), BuildingBlock: CIFDUS_clean_linker_0, # of connection points: 2
#     Edge 54, Type (0, 0), BuildingBlock: CIFDUS_clean_linker_0, # of connection points: 2
#     Edge 55, Type (0, 0), BuildingBlock: CIFDUS_clean_linker_0, # of connection points: 2
#     Edge 56, Type (0, 0), BuildingBlock: CIFDUS_clean_linker_0, # of connection points: 2
#     Edge 57, Type (0, 0), BuildingBlock: CIFDUS_clean_linker_0, # of connection points: 2
#     Edge 58, Type (0, 0), BuildingBlock: CIFDUS_clean_linker_0, # of connection points: 2
#     Edge 59, Type (0, 0), BuildingBlock: CIFDUS_clean_linker_0, # of connection points: 2
#     Edge 60, Type (0, 0), BuildingBlock: CIFDUS_clean_linker_0, # of connection points: 2
#     Edge 61, Type (0, 0), BuildingBlock: CIFDUS_clean_linker_0, # of connection points: 2
#     Edge 62, Type (0, 0), BuildingBlock: CIFDUS_clean_linker_0, # of connection points: 2
#     Edge 63, Type (0, 0), BuildingBlock: CIFDUS_clean_linker_0, # of connection points: 2
#     Edge 64, Type (0, 0), BuildingBlock: CIFDUS_clean_linker_0, # of connection points: 2
#     Edge 65, Type (0, 0), BuildingBlock: CIFDUS_clean_linker_0, # of connection points: 2
#     Edge 66, Type (0, 0), BuildingBlock: CIFDUS_clean_linker_0, # of connection points: 2
#     Edge 67, Type (0, 0), BuildingBlock: CIFDUS_clean_linker_0, # of connection points: 2
#     Edge 68, Type (0, 0), BuildingBlock: CIFDUS_clean_linker_0, # of connection points: 2
#     Edge 69, Type (0, 0), BuildingBlock: CIFDUS_clean_linker_0, # of connection points: 2
#     Edge 70, Type (0, 0), BuildingBlock: CIFDUS_clean_linker_0, # of connection points: 2
#     Edge 71, Type (0, 0), BuildingBlock: CIFDUS_clean_linker_0, # of connection points: 2
#     Edge 72, Type (0, 0), BuildingBlock: CIFDUS_clean_linker_0, # of connection points: 2
#     Edge 73, Type (0, 0), BuildingBlock: CIFDUS_clean_linker_0, # of connection points: 2
#     Edge 74, Type (0, 0), BuildingBlock: CIFDUS_clean_linker_0, # of connection points: 2
#     Edge 75, Type (0, 0), BuildingBlock: CIFDUS_clean_linker_0, # of connection points: 2
#     Edge 76, Type (0, 0), BuildingBlock: CIFDUS_clean_linker_0, # of connection points: 2
#     Edge 77, Type (0, 0), BuildingBlock: CIFDUS_clean_linker_0, # of connection points: 2
#     Edge 78, Type (0, 0), BuildingBlock: CIFDUS_clean_linker_0, # of connection points: 2
#     Edge 79, Type (0, 0), BuildingBlock: CIFDUS_clean_linker_0, # of connection points: 2
#     Edge 80, Type (0, 0), BuildingBlock: CIFDUS_clean_linker_0, # of connection points: 2
#     Edge 81, Type (0, 0), BuildingBlock: CIFDUS_clean_linker_0, # of connection points: 2
#     Edge 82, Type (0, 0), BuildingBlock: CIFDUS_clean_linker_0, # of connection points: 2
#     Edge 83, Type (0, 0), BuildingBlock: CIFDUS_clean_linker_0, # of connection points: 2
#     Edge 84, Type (0, 0), BuildingBlock: CIFDUS_clean_linker_0, # of connection points: 2
#     Edge 85, Type (0, 0), BuildingBlock: CIFDUS_clean_linker_0, # of connection points: 2
#     Edge 86, Type (0, 0), BuildingBlock: CIFDUS_clean_linker_0, # of connection points: 2
#     Edge 87, Type (0, 0), BuildingBlock: CIFDUS_clean_linker_0, # of connection points: 2
#     Edge 88, Type (0, 0), BuildingBlock: CIFDUS_clean_linker_0, # of connection points: 2
#     Edge 89, Type (0, 0), BuildingBlock: CIFDUS_clean_linker_0, # of connection points: 2
#     Edge 90, Type (0, 0), BuildingBlock: CIFDUS_clean_linker_0, # of connection points: 2
#     Edge 91, Type (0, 0), BuildingBlock: CIFDUS_clean_linker_0, # of connection points: 2
#     Edge 92, Type (0, 0), BuildingBlock: CIFDUS_clean_linker_0, # of connection points: 2
#     Edge 93, Type (0, 0), BuildingBlock: CIFDUS_clean_linker_0, # of connection points: 2
#     Edge 94, Type (0, 0), BuildingBlock: CIFDUS_clean_linker_0, # of connection points: 2
#     Edge 95, Type (0, 0), BuildingBlock: CIFDUS_clean_linker_0, # of connection points: 2
#     Edge 96, Type (0, 0), BuildingBlock: CIFDUS_clean_linker_0, # of connection points: 2
#     Edge 97, Type (0, 0), BuildingBlock: CIFDUS_clean_linker_0, # of connection points: 2
#     Edge 98, Type (0, 0), BuildingBlock: CIFDUS_clean_linker_0, # of connection points: 2
#     Edge 99, Type (0, 0), BuildingBlock: CIFDUS_clean_linker_0, # of connection points: 2
#     Edge 100, Type (0, 0), BuildingBlock: CIFDUS_clean_linker_0, # of connection points: 2
#     Edge 101, Type (0, 0), BuildingBlock: CIFDUS_clean_linker_0, # of connection points: 2
#     Edge 102, Type (0, 0), BuildingBlock: CIFDUS_clean_linker_0, # of connection points: 2
#     Edge 103, Type (0, 0), BuildingBlock: CIFDUS_clean_linker_0, # of connection points: 2
#     Edge 104, Type (0, 0), BuildingBlock: CIFDUS_clean_linker_0, # of connection points: 2
#     Edge 105, Type (0, 0), BuildingBlock: CIFDUS_clean_linker_0, # of connection points: 2
#     Edge 106, Type (0, 0), BuildingBlock: CIFDUS_clean_linker_0, # of connection points: 2
#     Edge 107, Type (0, 0), BuildingBlock: CIFDUS_clean_linker_0, # of connection points: 2
# Relax obj value: 0.226
# Max RMSD: 0.253
# Mean RMSD: 0.253
data_MOF--net-uoh--node1-NAHDIM_clean_sbu_0--edge1-CIFDUS_clean_linker_0
_symmetry_space_group_name_H-M    P1
_symmetry_Int_Tables_number       1
_symmetry_cell_setting            triclinic
loop_
_symmetry_equiv_pos_as_xyz
'x, y, z'
_cell_length_a     79.234167
_cell_length_b     79.19927
_cell_length_c     22.620061
_cell_angle_alpha  89.991096
_cell_angle_beta   89.968186
_cell_angle_gamma 120.04979
loop_
_atom_site_label
_atom_site_type_symbol
_atom_site_fract_x
_atom_site_fract_y
_atom_site_fract_z
_atom_type_partial_charge
C0 C 0.25083 0.18962 0.17947 0.0
O1 O 0.25384 0.19211 0.1222 0.0
O2 O 0.25011 0.15461 0.07669 0.0
Zn3 Zn 0.25285 0.15386 0.16469 0.0
O4 O 0.23264 0.12916 0.20367 0.0
C5 C 0.28843 0.15192 0.154 0.0
O6 O 0.28082 0.14292 0.10389 0.0
O7 O 0.25022 0.17496 0.20423 0.0
C8 C 0.23472 0.11442 0.21121 0.0
O9 O 0.24869 0.11355 0.18256 0.0
C10 C 0.23409 0.14627 0.04862 0.0
O11 O 0.2177 0.13592 0.07775 0.0
O12 O 0.27918 0.15787 0.18547 0.0
C13 C 0.82845 0.04849 0.15615 0.0
O14 O 0.84645 0.05738 0.13619 0.0
O15 O 0.84758 0.08816 0.05616 0.0
Zn16 Zn 0.83775 0.08638 0.1394 0.0
O17 O 0.85932 0.09609 0.19897 0.0
C18 C 0.82894 0.11636 0.10888 0.0
O19 O 0.83739 0.11606 0.05927 0.0
O20 O 0.81972 0.05822 0.16061 0.0
C21 C 0.87101 0.11414 0.20727 0.0
O22 O 0.87035 0.12689 0.17159 0.0
C23 C 0.8649 0.09276 0.04223 0.0
O24 O 0.87766 0.09609 0.08416 0.0
O25 O 0.82604 0.10384 0.14874 0.0
C26 C 0.94512 0.7793 0.20662 0.0
O27 O 0.93682 0.78981 0.19679 0.0
O28 O 0.91149 0.76102 0.07499 0.0
Zn29 Zn 0.90936 0.75248 0.15914 0.0
O30 O 0.89716 0.7639 0.21142 0.0
C31 C 0.87652 0.71537 0.13296 0.0
O32 O 0.87451 0.72566 0.09089 0.0
O33 O 0.93608 0.76139 0.19207 0.0
C34 C 0.88019 0.76168 0.20691 0.0
O35 O 0.86943 0.75263 0.16065 0.0
C36 C 0.91157 0.77639 0.0586 0.0
O37 O 0.91034 0.78781 0.0984 0.0
O38 O 0.89156 0.72345 0.16577 0.0
C39 C 0.19842 0.24358 0.31187 0.0
O40 O 0.19546 0.24093 0.36912 0.0
O41 O 0.15576 0.23575 0.39049 0.0
Zn42 Zn 0.16497 0.24955 0.31236 0.0
O43 O 0.14444 0.23783 0.24923 0.0
C44 C 0.16469 0.28269 0.36257 0.0
O45 O 0.15066 0.26907 0.39473 0.0
O46 O 0.18758 0.24771 0.28119 0.0
C47 C 0.13152 0.24252 0.2398 0.0
O48 O 0.1303 0.25496 0.27539 0.0
C49 C 0.13815 0.22304 0.40142 0.0
O50 O 0.12525 0.21723 0.35861 0.0
O51 O 0.17307 0.2778 0.32381 0.0
C52 C 0.77466 0.94431 0.31265 0.0
O53 O 0.78697 0.93784 0.31757 0.0
O54 O 0.76479 0.90946 0.43468 0.0
Zn55 Zn 0.75221 0.907 0.35552 0.0
O56 O 0.76368 0.898 0.29177 0.0
C57 C 0.71826 0.87301 0.39745 0.0
O58 O 0.73161 0.87202 0.42925 0.0
O59 O 0.75715 0.93339 0.32942 0.0
C60 C 0.76032 0.88072 0.28357 0.0
O61 O 0.74902 0.8669 0.32075 0.0
C62 C 0.7783 0.90565 0.44499 0.0
O63 O 0.78571 0.90061 0.40107 0.0
O64 O 0.72346 0.88731 0.36223 0.0
C65 C 0.04696 0.84413 0.36896 0.0
O66 O 0.05398 0.86174 0.39109 0.0
O67 O 0.08555 0.85935 0.47968 0.0
Zn68 Zn 0.08537 0.85489 0.39227 0.0
O69 O 0.09541 0.87901 0.34187 0.0
C70 C 0.11579 0.84546 0.40984 0.0
O71 O 0.11612 0.85208 0.46331 0.0
O72 O 0.05802 0.83686 0.36581 0.0
C73 C 0.11352 0.88897 0.33027 0.0
O74 O 0.12572 0.88584 0.36116 0.0
C75 C 0.08969 0.87512 0.5059 0.0
O76 O 0.09405 0.89076 0.47458 0.0
O77 O 0.1029 0.84398 0.37342 0.0
C78 C 0.75738 0.81176 0.78809 0.0
O79 O 0.74308 0.81285 0.76244 0.0
O80 O 0.77236 0.85436 0.93433 0.0
Zn81 Zn 0.76227 0.84528 0.85217 0.0
O82 O 0.77458 0.86608 0.78973 0.0
C83 C 0.72658 0.84315 0.88694 0.0
O84 O 0.73844 0.85713 0.92278 0.0
O85 O 0.76711 0.82379 0.82882 0.0
C86 C 0.77062 0.87968 0.78364 0.0
O87 O 0.75956 0.88161 0.82317 0.0
C88 C 0.78423 0.87175 0.95013 0.0
O89 O 0.79226 0.88548 0.9098 0.0
O90 O 0.73343 0.8354 0.85241 0.0
C91 C 0.18411 0.96045 0.87434 0.0
O92 O 0.16718 0.95399 0.90062 0.0
O93 O 0.16526 0.91882 0.97667 0.0
Zn94 Zn 0.17025 0.92123 0.88874 0.0
O95 O 0.14694 0.91656 0.84047 0.0
C96 C 0.16971 0.88467 0.88225 0.0
O97 O 0.1579 0.88057 0.92758 0.0
O98 O 0.1905 0.94873 0.86712 0.0
C99 C 0.13229 0.90005 0.8285 0.0
O100 O 0.13039 0.88442 0.85488 0.0
C101 C 0.15074 0.91871 0.00102 0.0
O102 O 0.13784 0.92003 0.96788 0.0
O103 O 0.17776 0.90172 0.86012 0.0
C104 C 0.05979 0.22059 0.77303 0.0
O105 O 0.06616 0.20825 0.7796 0.0
O106 O 0.09682 0.23386 0.88883 0.0
Zn107 Zn 0.09811 0.24407 0.80677 0.0
O108 O 0.10657 0.23162 0.7445 0.0
C109 C 0.13263 0.27849 0.8398 0.0
O110 O 0.13455 0.26542 0.87016 0.0
O111 O 0.07135 0.23853 0.78378 0.0
C112 C 0.12304 0.23261 0.74033 0.0
O113 O 0.1361 0.24142 0.78197 0.0
C114 C 0.10001 0.22039 0.90531 0.0
O115 O 0.10378 0.21063 0.86559 0.0
O116 O 0.11747 0.27296 0.80819 0.0
C117 C 0.81298 0.75702 0.68057 0.0
O118 O 0.80268 0.7411 0.64935 0.0
O119 O 0.85875 0.76263 0.57997 0.0
Zn120 Zn 0.84816 0.7534 0.66114 0.0
O121 O 0.86994 0.7644 0.71957 0.0
C122 C 0.84054 0.71421 0.64209 0.0
O123 O 0.85516 0.72301 0.60489 0.0
O124 O 0.83114 0.76381 0.68752 0.0
C125 C 0.88386 0.76086 0.72272 0.0
O126 O 0.88541 0.7497 0.6827 0.0
C127 C 0.84819 0.76126 0.53597 0.0
O128 O 0.82927 0.75333 0.54303 0.0
O129 O 0.83436 0.72417 0.66886 0.0
C130 C 0.21204 0.05829 0.69889 0.0
O131 O 0.19997 0.06434 0.68328 0.0
O132 O 0.22655 0.09008 0.56493 0.0
Zn133 Zn 0.23604 0.09433 0.64887 0.0
O134 O 0.22264 0.10477 0.70061 0.0
C135 C 0.27346 0.12231 0.69743 0.0
O136 O 0.26371 0.11681 0.74741 0.0
O137 O 0.22999 0.0688 0.68591 0.0
C138 C 0.2289 0.12276 0.70979 0.0
O139 O 0.24341 0.13581 0.67765 0.0
C140 C 0.21238 0.09181 0.54619 0.0
O141 O 0.20253 0.0963 0.58353 0.0
O142 O 0.26489 0.11395 0.64967 0.0
C143 C 0.95014 0.16449 0.65581 0.0
O144 O 0.93983 0.14597 0.6413 0.0
O145 O 0.90977 0.14789 0.55623 0.0
Zn146 Zn 0.91317 0.15822 0.63915 0.0
O147 O 0.90221 0.13676 0.69933 0.0
C148 C 0.88818 0.17366 0.60747 0.0
O149 O 0.89018 0.16832 0.55417 0.0
O150 O 0.94173 0.17457 0.65719 0.0
C151 C 0.88396 0.12637 0.70773 0.0
O152 O 0.87201 0.12842 0.67213 0.0
C153 C 0.90428 0.13037 0.54208 0.0
O154 O 0.90071 0.11745 0.58376 0.0
O155 O 0.89796 0.17224 0.64981 0.0
C156 C 0.87256 0.49631 0.48053 0.0
O157 O 0.86153 0.47755 0.47007 0.0
O158 O 0.89082 0.4761 0.36292 0.0
Zn159 Zn 0.89944 0.48574 0.44582 0.0
O160 O 0.88799 0.46453 0.50755 0.0
C161 C 0.93729 0.49194 0.41911 0.0
O162 O 0.92701 0.47786 0.3814 0.0
O163 O 0.89069 0.50444 0.46951 0.0
C164 C 0.89564 0.4545 0.52371 0.0
O165 O 0.9107 0.45615 0.49446 0.0
C166 C 0.87928 0.45841 0.34926 0.0
O167 O 0.87136 0.44533 0.39145 0.0
O168 O 0.92866 0.4985 0.45108 0.0
C169 C 0.48396 0.38065 0.48568 0.0
O170 O 0.50277 0.38803 0.47722 0.0
O171 O 0.50432 0.41851 0.36002 0.0
Zn172 Zn 0.49593 0.41792 0.44442 0.0
O173 O 0.51821 0.42751 0.5019 0.0
C174 C 0.48063 0.43974 0.50196 0.0
O175 O 0.47997 0.42919 0.54769 0.0
O176 O 0.47621 0.39072 0.47092 0.0
C177 C 0.53034 0.44547 0.50987 0.0
O178 O 0.52976 0.45842 0.47493 0.0
C179 C 0.52116 0.42188 0.34471 0.0
O180 O 0.5339 0.42425 0.38572 0.0
O181 O 0.48587 0.43659 0.45202 0.0
C182 C 0.62651 0.08496 0.51283 0.0
O183 O 0.62445 0.08652 0.4558 0.0
O184 O 0.5869 0.08429 0.43662 0.0
Zn185 Zn 0.58563 0.07417 0.51889 0.0
O186 O 0.57585 0.08633 0.57752 0.0
C187 C 0.54892 0.04158 0.49992 0.0
O188 O 0.5465 0.05575 0.47933 0.0
O189 O 0.61179 0.07909 0.5465 0.0
C190 C 0.58688 0.09931 0.61431 0.0
O191 O 0.60583 0.10658 0.61091 0.0
C192 C 0.58335 0.09784 0.42407 0.0
O193 O 0.57966 0.10671 0.46696 0.0
O194 O 0.5656 0.04567 0.5194 0.0
C195 C 0.84325 0.56612 0.64944 0.0
O196 O 0.85037 0.58491 0.64131 0.0
O197 O 0.79657 0.55722 0.7721 0.0
Zn198 Zn 0.80841 0.56579 0.69188 0.0
O199 O 0.78794 0.55365 0.62928 0.0
C200 C 0.81507 0.60487 0.70832 0.0
O201 O 0.8005 0.5961 0.7457 0.0
O202 O 0.8267 0.55606 0.67389 0.0
C203 C 0.77585 0.55919 0.61679 0.0
O204 O 0.77538 0.57268 0.64932 0.0
C205 C 0.80698 0.55991 0.81765 0.0
O206 O 0.826 0.56832 0.81187 0.0
O207 O 0.82144 0.59497 0.68224 0.0
C208 C 0.44227 0.28118 0.66662 0.0
O209 O 0.45264 0.27355 0.68581 0.0
O210 O 0.42566 0.24275 0.77248 0.0
Zn211 Zn 0.41557 0.24304 0.6909 0.0
O212 O 0.42743 0.23386 0.62949 0.0
C213 C 0.37643 0.21977 0.73686 0.0
O214 O 0.3848 0.22867 0.78642 0.0
O215 O 0.42379 0.2706 0.6667 0.0
C216 C 0.42133 0.21605 0.61783 0.0
O217 O 0.40727 0.20248 0.65003 0.0
C218 C 0.43926 0.23913 0.78352 0.0
O219 O 0.44798 0.23571 0.73958 0.0
O220 O 0.38647 0.2245 0.68958 0.0
C221 C 0.73676 0.15171 0.60788 0.0
O222 O 0.75203 0.16236 0.57436 0.0
O223 O 0.75745 0.18596 0.77489 0.0
Zn224 Zn 0.76119 0.18013 0.69113 0.0
O225 O 0.76555 0.20155 0.6352 0.0
C226 C 0.79734 0.18126 0.72502 0.0
O227 O 0.79437 0.18681 0.77683 0.0
O228 O 0.73743 0.15605 0.66226 0.0
C229 C 0.78237 0.21643 0.62892 0.0
O230 O 0.79635 0.21893 0.66536 0.0
C231 C 0.75702 0.20114 0.79071 0.0
O232 O 0.7586 0.21383 0.75057 0.0
O233 O 0.78488 0.17706 0.68406 0.0
C234 C 0.46598 0.17499 0.16553 0.0
O235 O 0.47518 0.19363 0.17907 0.0
O236 O 0.44045 0.18995 0.2721 0.0
Zn237 Zn 0.43477 0.18107 0.18758 0.0
O238 O 0.44449 0.20297 0.12876 0.0
C239 C 0.39466 0.16802 0.21073 0.0
O240 O 0.40244 0.17943 0.25679 0.0
O241 O 0.44747 0.16551 0.1674 0.0
C242 C 0.43629 0.21312 0.12236 0.0
O243 O 0.42291 0.2111 0.16059 0.0
C244 C 0.45142 0.2073 0.28999 0.0
O245 O 0.46114 0.22121 0.25123 0.0
O246 O 0.40566 0.16542 0.17553 0.0
C247 C 0.8316 0.2769 0.14614 0.0
O248 O 0.81294 0.27101 0.15108 0.0
O249 O 0.80864 0.24223 0.27579 0.0
Zn250 Zn 0.81637 0.23968 0.19327 0.0
O251 O 0.79425 0.23081 0.13565 0.0
C252 C 0.81904 0.20584 0.22845 0.0
O253 O 0.81 0.20662 0.27619 0.0
O254 O 0.83775 0.26574 0.16418 0.0
C255 C 0.7812 0.21303 0.12966 0.0
O256 O 0.78067 0.20007 0.16699 0.0
C257 C 0.79204 0.23976 0.29002 0.0
O258 O 0.77888 0.2357 0.24884 0.0
O259 O 0.82422 0.2191 0.18941 0.0
C260 C 0.70832 0.54904 0.14091 0.0
O261 O 0.71677 0.53985 0.16339 0.0
O262 O 0.74271 0.57376 0.26315 0.0
Zn263 Zn 0.74445 0.57862 0.17568 0.0
O264 O 0.75677 0.56554 0.13153 0.0
C265 C 0.77694 0.61623 0.19232 0.0
O266 O 0.77865 0.60706 0.23828 0.0
O267 O 0.71749 0.56758 0.14175 0.0
C268 C 0.77379 0.56805 0.13857 0.0
O269 O 0.78448 0.57859 0.18312 0.0
C270 C 0.74362 0.55981 0.28761 0.0
O271 O 0.74549 0.5472 0.25462 0.0
O272 O 0.76198 0.60734 0.15943 0.0
C273 C 0.51018 0.11061 0.04535 0.0
O274 O 0.52933 0.12068 0.04402 0.0
O275 O 0.53246 0.09107 0.93989 0.0
Zn276 Zn 0.519 0.08151 0.01795 0.0
O277 O 0.53839 0.09033 0.08412 0.0
C278 C 0.50862 0.04216 0.98808 0.0
O279 O 0.5236 0.05124 0.95226 0.0
O280 O 0.5016 0.09252 0.03346 0.0
C281 C 0.55134 0.08545 0.08883 0.0
O282 O 0.55297 0.07479 0.04718 0.0
C283 C 0.52223 0.08819 0.89376 0.0
O284 O 0.50317 0.07953 0.89887 0.0
O285 O 0.50356 0.05214 0.01972 0.0
C286 C 0.8847 0.37956 0.98067 0.0
O287 O 0.87604 0.38817 0.95563 0.0
O288 O 0.90918 0.41863 0.87777 0.0
Zn289 Zn 0.91368 0.41748 0.96497 0.0
O290 O 0.89947 0.42694 0.01699 0.0
C291 C 0.95116 0.45066 0.95293 0.0
O292 O 0.9414 0.45419 0.9126 0.0
O293 O 0.90302 0.38944 0.9889 0.0
C294 C 0.90179 0.44399 0.01964 0.0
O295 O 0.91338 0.45727 0.98152 0.0
C296 C 0.89628 0.4214 0.85382 0.0
O297 O 0.88395 0.42358 0.88733 0.0
O298 O 0.94249 0.4347 0.98164 0.0
C299 C 0.60532 0.5012 0.97767 0.0
O300 O 0.59818 0.48233 0.97133 0.0
O301 O 0.568 0.47825 0.85799 0.0
Zn302 Zn 0.56766 0.48829 0.93924 0.0
O303 O 0.55729 0.46727 0.0015 0.0
C304 C 0.54579 0.50513 0.88972 0.0
O305 O 0.55533 0.50598 0.84125 0.0
O306 O 0.59469 0.50841 0.96397 0.0
C307 C 0.53911 0.45634 0.0102 0.0
O308 O 0.52679 0.45754 0.97399 0.0
C309 C 0.56279 0.46075 0.8444 0.0
O310 O 0.5576 0.44762 0.88642 0.0
O311 O 0.54956 0.49914 0.9373 0.0
C312 C 0.58326 0.86618 0.87231 0.0
O313 O 0.58597 0.86194 0.81827 0.0
O314 O 0.5742 0.81602 0.83927 0.0
Zn315 Zn 0.58579 0.83213 0.91234 0.0
O316 O 0.57248 0.81644 0.98419 0.0
C317 C 0.61943 0.82832 0.89818 0.0
O318 O 0.60641 0.81148 0.87563 0.0
O319 O 0.58297 0.85576 0.91532 0.0
C320 C 0.56527 0.79811 0.98823 0.0
O321 O 0.56608 0.78831 0.94252 0.0
C322 C 0.56027 0.81426 0.80711 0.0
O323 O 0.55128 0.82391 0.82017 0.0
O324 O 0.61401 0.83998 0.9169 0.0
C325 C 0.15942 0.71628 0.77702 0.0
O326 O 0.17782 0.72426 0.76142 0.0
O327 O 0.17866 0.75817 0.67293 0.0
Zn328 Zn 0.17051 0.75488 0.75844 0.0
O329 O 0.19268 0.76218 0.81518 0.0
C330 C 0.16683 0.78915 0.755 0.0
O331 O 0.17903 0.79343 0.71065 0.0
O332 O 0.15143 0.72676 0.77637 0.0
C333 C 0.20568 0.77969 0.82579 0.0
O334 O 0.20668 0.79372 0.79235 0.0
C335 C 0.19526 0.7615 0.65504 0.0
O336 O 0.20818 0.76272 0.69374 0.0
O337 O 0.15986 0.77256 0.77974 0.0
C338 C 0.27268 0.42901 0.87644 0.0
O339 O 0.26499 0.42096 0.82533 0.0
O340 O 0.2324 0.44401 0.8466 0.0
Zn341 Zn 0.23518 0.42642 0.90462 0.0
O342 O 0.22612 0.42852 0.98491 0.0
C343 C 0.20191 0.39393 0.85267 0.0
O344 O 0.19733 0.40743 0.84171 0.0
O345 O 0.26274 0.43247 0.91345 0.0
C346 C 0.22222 0.44123 0.00422 0.0
O347 O 0.22374 0.4551 0.96893 0.0
C348 C 0.24541 0.45548 0.81057 0.0
O349 O 0.26306 0.45799 0.81394 0.0
O350 O 0.21797 0.39871 0.87835 0.0
C351 C 0.50712 0.89755 0.95352 0.0
O352 O 0.51269 0.91269 0.98844 0.0
O353 O 0.46299 0.88302 0.06309 0.0
Zn354 Zn 0.46807 0.89008 0.97709 0.0
O355 O 0.44508 0.87428 0.92477 0.0
C356 C 0.47203 0.92821 -0.0011 0.0
O357 O 0.45989 0.91938 0.04284 0.0
O358 O 0.48908 0.88582 0.94537 0.0
C359 C 0.43251 0.87924 0.91296 0.0
O360 O 0.43289 0.89372 0.94242 0.0
C361 C 0.44695 0.8694 0.08325 0.0
O362 O 0.43284 0.85854 0.04632 0.0
O363 O 0.47714 0.91854 0.96606 0.0
C364 C 0.12333 0.61165 0.92072 0.0
O365 O 0.13373 0.6032 0.93042 0.0
O366 O 0.10586 0.57443 0.0387 0.0
Zn367 Zn 0.0958 0.5746 0.95763 0.0
O368 O 0.10518 0.56309 0.89596 0.0
C369 C 0.05854 0.54219 0.98624 0.0
O370 O 0.06953 0.53798 0.01948 0.0
O371 O 0.10516 0.60214 0.93162 0.0
C372 C 0.10397 0.54648 0.89549 0.0
O373 O 0.09718 0.53511 0.94208 0.0
C374 C 0.11958 0.57116 0.05143 0.0
O375 O 0.129 0.56805 0.00897 0.0
O376 O 0.06649 0.55808 0.95715 0.0
C377 C 0.38756 0.48729 0.8974 0.0
O378 O 0.40038 0.49577 0.85481 0.0
O379 O 0.41629 0.5256 0.052 0.0
Zn380 Zn 0.41784 0.51683 0.97016 0.0
O381 O 0.42366 0.53743 0.90942 0.0
C382 C 0.44902 0.5118 0.92259 0.0
O383 O 0.4441 0.51654 0.87247 0.0
O384 O 0.39221 0.49349 0.95006 0.0
C385 C 0.44042 0.55251 0.90492 0.0
O386 O 0.45374 0.55564 0.9448 0.0
C387 C 0.41794 0.54186 0.0664 0.0
O388 O 0.42053 0.55463 0.02519 0.0
O389 O 0.4394 0.51038 0.96917 0.0
C390 C 0.07272 0.46516 0.47646 0.0
O391 O 0.06279 0.46566 0.52228 0.0
O392 O 0.08859 0.51673 0.52687 0.0
Zn393 Zn 0.07861 0.50364 0.44852 0.0
O394 O 0.09456 0.52194 0.38412 0.0
C395 C 0.04392 0.50682 0.45869 0.0
O396 O 0.055 0.52173 0.49287 0.0
O397 O 0.08041 0.47951 0.441 0.0
C398 C 0.09821 0.53948 0.38362 0.0
O399 O 0.09204 0.54586 0.42749 0.0
C400 C 0.09809 0.51277 0.56416 0.0
O401 O 0.10212 0.49889 0.553 0.0
O402 O 0.05085 0.49686 0.43637 0.0
C403 C 0.51467 0.61226 0.49201 0.0
O404 O 0.51222 0.60604 0.54691 0.0
O405 O 0.47026 0.57685 0.55295 0.0
Zn406 Zn 0.47974 0.57531 0.47202 0.0
O407 O 0.45964 0.56966 0.4097 0.0
C408 C 0.47848 0.53946 0.50504 0.0
O409 O 0.46721 0.53961 0.54742 0.0
O410 O 0.50302 0.60118 0.45243 0.0
C411 C 0.44491 0.55273 0.40349 0.0
O412 O 0.44194 0.53907 0.44193 0.0
C413 C 0.45394 0.57538 0.56526 0.0
O414 O 0.44161 0.57272 0.52261 0.0
O415 O 0.48613 0.55364 0.46878 0.0
C416 C 0.37775 0.88078 0.42801 0.0
O417 O 0.38429 0.8693 0.4457 0.0
O418 O 0.40953 0.89799 0.55683 0.0
Zn419 Zn 0.41416 0.90574 0.47152 0.0
O420 O 0.42394 0.89106 0.4227 0.0
C421 C 0.44828 0.94068 0.50227 0.0
O422 O 0.44857 0.92867 0.54178 0.0
O423 O 0.38839 0.89907 0.43559 0.0
C424 C 0.44151 0.89524 0.41512 0.0
O425 O 0.45536 0.90926 0.44654 0.0
C426 C 0.40779 0.88264 0.58029 0.0
O427 O 0.40922 0.86978 0.54722 0.0
O428 O 0.43403 0.9344 0.46642 0.0
C429 C 0.1327 0.41439 0.39953 0.0
O430 O 0.13672 0.40863 0.34967 0.0
O431 O 0.18088 0.42835 0.35506 0.0
Zn432 Zn 0.16938 0.41878 0.43501 0.0
O433 O 0.18791 0.4355 0.49798 0.0
C434 C 0.17655 0.38735 0.42107 0.0
O435 O 0.19239 0.40135 0.39616 0.0
O436 O 0.14449 0.41913 0.44259 0.0
C437 C 0.20628 0.44545 0.491 0.0
O438 O 0.2139 0.44526 0.43957 0.0
C439 C 0.18231 0.44279 0.32635 0.0
O440 O 0.17588 0.45369 0.34975 0.0
O441 O 0.1642 0.39136 0.44301 0.0
C442 C 0.57203 0.72739 0.47422 0.0
O443 O 0.57859 0.74027 0.5172 0.0
O444 O 0.55869 0.75857 0.33382 0.0
Zn445 Zn 0.57179 0.75863 0.4097 0.0
O446 O 0.56069 0.76532 0.47931 0.0
C447 C 0.60452 0.79505 0.37657 0.0
O448 O 0.59056 0.79712 0.3527 0.0
O449 O 0.56872 0.73227 0.42395 0.0
C450 C 0.55354 0.77653 0.47982 0.0
O451 O 0.55204 0.78424 0.43006 0.0
C452 C 0.5556 0.74628 0.29313 0.0
O453 O 0.55938 0.73217 0.30318 0.0
O454 O 0.60012 0.77927 0.40356 0.0
C455 C 0.27322 0.84591 0.28792 0.0
O456 O 0.26596 0.82816 0.26679 0.0
O457 O 0.23511 0.82892 0.17867 0.0
Zn458 Zn 0.23497 0.8341 0.2655 0.0
O459 O 0.22637 0.81033 0.31634 0.0
C460 C 0.2025 0.84037 0.24778 0.0
O461 O 0.2021 0.83311 0.19527 0.0
O462 O 0.26222 0.85327 0.29112 0.0
C463 C 0.20845 0.79792 0.32394 0.0
O464 O 0.19539 0.79908 0.29117 0.0
C465 C 0.2341 0.81376 0.15615 0.0
O466 O 0.2326 0.79979 0.19095 0.0
O467 O 0.21609 0.84336 0.28354 0.0
H468 H 0.25282 0.15379 0.77714 0.0
H469 H 0.19511 0.10331 0.77248 0.0
H470 H 0.19061 0.10767 0.87724 0.0
H471 H 0.20498 0.12294 0.97274 0.0
H472 H 0.26384 0.17167 0.97792 0.0
H473 H 0.26599 0.17091 0.87054 0.0
C474 C 0.23903 0.14412 0.79858 0.0
C475 C 0.2243 0.12828 0.76727 0.0
C476 C 0.23693 0.14615 0.85932 0.0
C477 C 0.20663 0.11564 0.79585 0.0
C478 C 0.20413 0.11803 0.8558 0.0
C479 C 0.21815 0.13359 0.95027 0.0
C480 C 0.2343 0.14717 0.98332 0.0
C481 C 0.21947 0.13277 0.8885 0.0
C482 C 0.25128 0.16088 0.95356 0.0
C483 C 0.25252 0.1605 0.89211 0.0
H484 H 0.90529 0.1224 0.795 0.0
H485 H 0.84619 0.10517 0.74547 0.0
H486 H 0.8348 0.09143 0.84378 0.0
H487 H 0.84215 0.0877 0.94651 0.0
H488 H 0.90142 0.10602 0.99704 0.0
H489 H 0.91217 0.11584 0.8953 0.0
C490 C 0.88986 0.11538 0.80532 0.0
C491 C 0.87665 0.11506 0.76314 0.0
C492 C 0.88347 0.1079 0.86229 0.0
C493 C 0.8567 0.10575 0.77719 0.0
C494 C 0.85018 0.09796 0.83351 0.0
C495 C 0.8574 0.09364 0.93523 0.0
C496 C 0.871 0.09638 0.97954 0.0
C497 C 0.86352 0.09951 0.87689 0.0
C498 C 0.89066 0.1039 0.96394 0.0
C499 C 0.89683 0.10955 0.90577 0.0
H500 H 0.91966 0.75954 0.96707 0.0
H501 H 0.90081 0.80081 0.00748 0.0
H502 H 0.89334 0.80191 0.90332 0.0
H503 H 0.88776 0.78753 0.80439 0.0
H504 H 0.90575 0.74556 0.76448 0.0
H505 H 0.9184 0.7487 0.86477 0.0
C506 C 0.91418 0.76899 0.95295 0.0
C507 C 0.91039 0.77975 0.995 0.0
C508 C 0.90969 0.76935 0.89324 0.0
C509 C 0.90367 0.79224 0.97601 0.0
C510 C 0.89933 0.79282 0.91651 0.0
C511 C 0.89477 0.77933 0.81732 0.0
C512 C 0.89546 0.76603 0.77757 0.0
C513 C 0.90161 0.78089 0.87525 0.0
C514 C 0.90491 0.75579 0.79443 0.0
C515 C 0.91202 0.75747 0.85189 0.0
H516 H 0.16105 0.23156 0.49886 0.0
H517 H 0.10084 0.20371 0.44379 0.0
H518 H 0.09058 0.20174 0.54647 0.0
H519 H 0.09907 0.21227 0.6494 0.0
H520 H 0.15934 0.24095 0.70412 0.0
H521 H 0.16915 0.23793 0.60417 0.0
C522 C 0.14565 0.22474 0.50937 0.0
C523 C 0.13177 0.21815 0.4636 0.0
C524 C 0.13986 0.22397 0.5684 0.0
C525 C 0.11186 0.20907 0.47806 0.0
C526 C 0.10597 0.20802 0.5368 0.0
C527 C 0.11433 0.21758 0.63975 0.0
C528 C 0.12849 0.22719 0.68386 0.0
C529 C 0.1199 0.21611 0.58198 0.0
C530 C 0.14815 0.23366 0.67089 0.0
C531 C 0.15379 0.23203 0.61363 0.0
H532 H 0.76798 0.91773 0.54379 0.0
H533 H 0.79918 0.88905 0.48534 0.0
H534 H 0.80188 0.88068 0.58745 0.0
H535 H 0.79155 0.87776 0.69105 0.0
H536 H 0.75956 0.90572 0.74873 0.0
H537 H 0.76131 0.91837 0.64926 0.0
C538 C 0.77563 0.90989 0.55342 0.0
C539 C 0.78305 0.90372 0.50692 0.0
C540 C 0.77688 0.90488 0.61206 0.0
C541 C 0.79319 0.89385 0.52024 0.0
C542 C 0.79468 0.88898 0.57863 0.0
C543 C 0.78524 0.8869 0.68217 0.0
C544 C 0.77512 0.89047 0.72707 0.0
C545 C 0.78598 0.89384 0.62459 0.0
C546 C 0.76727 0.90256 0.71492 0.0
C547 C 0.76818 0.90975 0.65794 0.0
H548 H 0.10657 0.86674 0.77176 0.0
H549 H 0.1322 0.92932 0.76476 0.0
H550 H 0.11906 0.9269 0.66562 0.0
H551 H 0.10444 0.90747 0.57591 0.0
H552 H 0.08012 0.84503 0.58223 0.0
H553 H 0.08847 0.84698 0.68652 0.0
C554 C 0.10892 0.87982 0.74917 0.0
C555 C 0.12062 0.89819 0.7753 0.0
C556 C 0.10181 0.8784 0.6915 0.0
C557 C 0.12342 0.91499 0.74541 0.0
C558 C 0.11599 0.91364 0.68853 0.0
C559 C 0.10067 0.89426 0.60033 0.0
C560 C 0.09199 0.8762 0.57095 0.0
C561 C 0.10584 0.89549 0.66026 0.0
C562 C 0.08706 0.85919 0.60346 0.0
C563 C 0.09183 0.86026 0.66321 0.0
H564 H 0.78447 0.90602 0.20022 0.0
H565 H 0.75089 0.84463 0.24204 0.0
H566 H 0.75758 0.83655 0.14391 0.0
H567 H 0.76956 0.84678 0.04299 0.0
H568 H 0.80222 0.90812 2e-05 0.0
H569 H 0.79954 0.91633 0.10233 0.0
C570 C 0.77881 0.89086 0.18821 0.0
C571 C 0.76691 0.87593 0.2281 0.0
C572 C 0.78246 0.8863 0.13142 0.0
C573 C 0.75994 0.8564 0.21207 0.0
C574 C 0.76372 0.85176 0.15587 0.0
C575 C 0.77636 0.86196 0.0561 0.0
C576 C 0.78581 0.8768 0.01364 0.0
C577 C 0.77443 0.86657 0.11465 0.0
C578 C 0.79474 0.89639 0.03164 0.0
C579 C 0.79313 0.90111 0.09011 0.0
H580 H 0.14764 0.90047 0.27289 0.0
H581 H 0.09312 0.90004 0.25788 0.0
H582 H 0.10059 0.91072 0.15505 0.0
H583 H 0.12089 0.91659 0.06668 0.0
H584 H 0.17462 0.91539 0.08133 0.0
H585 H 0.16911 0.90888 0.18697 0.0
C586 C 0.13756 0.90312 0.24763 0.0
C587 C 0.11979 0.89934 0.27299 0.0
C588 C 0.14164 0.90862 0.18806 0.0
C589 C 0.10688 0.90277 0.23937 0.0
C590 C 0.11108 0.90876 0.18044 0.0
C591 C 0.13149 0.91508 0.09304 0.0
C592 C 0.14803 0.91625 0.06587 0.0
C593 C 0.12813 0.91111 0.1538 0.0
C594 C 0.16167 0.91439 0.10088 0.0
C595 C 0.15855 0.91069 0.1614 0.0
H596 H 0.09094 0.2365 0.99679 0.0
H597 H 0.11556 0.19996 0.95701 0.0
H598 H 0.12547 0.20171 0.06015 0.0
H599 H 0.13077 0.21702 0.15788 0.0
H600 H 0.10703 0.25444 0.19626 0.0
H601 H 0.09296 0.24873 0.09736 0.0
C602 C 0.09823 0.22868 0.01077 0.0
C603 C 0.1028 0.21839 0.96904 0.0
C604 C 0.1042 0.23004 0.06974 0.0
C605 C 0.11198 0.20809 0.98811 0.0
C606 C 0.11774 0.20917 0.04704 0.0
C607 C 0.12228 0.22371 0.14496 0.0
C608 C 0.12025 0.23641 0.18411 0.0
C609 C 0.1145 0.22064 0.08769 0.0
C610 C 0.10898 0.24474 0.1669 0.0
C611 C 0.10097 0.24154 0.11024 0.0
H612 H 0.89879 0.7806 0.30667 0.0
H613 H 0.84178 0.75038 0.22616 0.0
H614 H 0.82674 0.7497 0.3212 0.0
H615 H 0.82966 0.75339 0.42951 0.0
H616 H 0.88684 0.78193 0.5094 0.0
H617 H 0.90191 0.78754 0.41216 0.0
C618 C 0.88308 0.77414 0.30957 0.0
C619 C 0.8714 0.76522 0.25968 0.0
C620 C 0.87454 0.77322 0.3645 0.0
C621 C 0.85111 0.75722 0.26401 0.0
C622 C 0.84249 0.75669 0.31846 0.0
C623 C 0.84542 0.7611 0.42555 0.0
C624 C 0.85709 0.76692 0.47666 0.0
C625 C 0.85402 0.76395 0.36943 0.0
C626 C 0.8775 0.77702 0.47081 0.0
C627 C 0.88615 0.78027 0.41521 0.0
H628 H 0.22581 0.07772 0.46007 0.0
H629 H 0.1919 0.10598 0.4876 0.0
H630 H 0.19254 0.11209 0.38159 0.0
H631 H 0.20758 0.11445 0.28491 0.0
H632 H 0.24261 0.08732 0.25842 0.0
H633 H 0.23614 0.07521 0.35976 0.0
C634 C 0.21826 0.08492 0.44275 0.0
C635 C 0.20924 0.09183 0.48177 0.0
C636 C 0.21896 0.08866 0.38194 0.0
C637 C 0.19916 0.10072 0.4586 0.0
C638 C 0.19957 0.10429 0.39797 0.0
C639 C 0.21343 0.10549 0.30077 0.0
C640 C 0.22602 0.10227 0.26458 0.0
C641 C 0.21016 0.09908 0.35969 0.0
C642 C 0.23311 0.09028 0.2855 0.0
C643 C 0.22954 0.08346 0.34369 0.0
H644 H 0.9112 0.15375 0.44667 0.0
H645 H 0.88819 0.09351 0.49661 0.0
H646 H 0.87798 0.08336 0.39471 0.0
H647 H 0.87261 0.09135 0.29438 0.0
H648 H 0.89465 0.15153 0.24545 0.0
H649 H 0.90853 0.16195 0.34401 0.0
C650 C 0.90413 0.13841 0.43524 0.0
C651 C 0.90021 0.12439 0.4794 0.0
C652 C 0.89808 0.13266 0.37682 0.0
C653 C 0.89125 0.10459 0.46361 0.0
C654 C 0.88538 0.09877 0.40536 0.0
C655 C 0.8807 0.10678 0.30489 0.0
C656 C 0.88235 0.12062 0.26279 0.0
C657 C 0.88828 0.11264 0.36199 0.0
C658 C 0.89303 0.14055 0.27709 0.0
C659 C 0.90091 0.14653 0.33355 0.0
H660 H 0.87751 0.42005 0.10515 0.0
H661 H 0.91043 0.48063 0.05353 0.0
H662 H 0.90421 0.49033 0.14984 0.0
H663 H 0.89328 0.48184 0.25258 0.0
H664 H 0.8613 0.4213 0.30508 0.0
H665 H 0.86316 0.41138 0.20425 0.0
C666 C 0.88307 0.43537 0.11454 0.0
C667 C 0.89472 0.44961 0.07252 0.0
C668 C 0.87979 0.44088 0.1704 0.0
C669 C 0.90155 0.46936 0.08516 0.0
C670 C 0.89809 0.47494 0.14039 0.0
C671 C 0.88646 0.46646 0.24185 0.0
C672 C 0.87746 0.45235 0.28661 0.0
C673 C 0.88785 0.46086 0.18402 0.0
C674 C 0.86847 0.43248 0.27168 0.0
C675 C 0.86958 0.42679 0.21403 0.0
H676 H 0.56088 0.45265 0.09687 0.0
H677 H 0.50152 0.43495 0.04927 0.0
H678 H 0.49047 0.42099 0.14748 0.0
H679 H 0.49811 0.41699 0.24975 0.0
H680 H 0.55755 0.43531 0.29811 0.0
H681 H 0.56805 0.44567 0.19652 0.0
C682 C 0.54548 0.4455 0.10762 0.0
C683 C 0.5321 0.44511 0.06594 0.0
C684 C 0.53925 0.43776 0.16452 0.0
C685 C 0.51218 0.4356 0.08055 0.0
C686 C 0.50584 0.42767 0.13683 0.0
C687 C 0.51334 0.42304 0.238 0.0
C688 C 0.52705 0.42562 0.28175 0.0
C689 C 0.51932 0.42918 0.17966 0.0
C690 C 0.54668 0.43327 0.26549 0.0
C691 C 0.55272 0.43926 0.20739 0.0
H692 H 0.591 0.08294 0.32618 0.0
H693 H 0.56864 0.12017 0.38179 0.0
H694 H 0.55862 0.12133 0.28056 0.0
H695 H 0.55284 0.1087 0.17924 0.0
H696 H 0.57452 0.07086 0.1241 0.0
H697 H 0.5884 0.07323 0.22216 0.0
C698 C 0.58416 0.09153 0.31607 0.0
C699 C 0.58028 0.10119 0.36168 0.0
C700 C 0.57819 0.0919 0.25797 0.0
C701 C 0.57167 0.11247 0.34765 0.0
C702 C 0.56586 0.11308 0.28978 0.0
C703 C 0.56081 0.10115 0.18839 0.0
C704 C 0.56236 0.08936 0.1447 0.0
C705 C 0.56851 0.10236 0.24504 0.0
C706 C 0.57298 0.07992 0.15704 0.0
C707 C 0.58086 0.08121 0.21319 0.0
H708 H 0.8251 0.57053 0.92472 0.0
H709 H 0.76822 0.53959 0.84335 0.0
H710 H 0.75279 0.5365 0.93896 0.0
H711 H 0.75551 0.54634 0.04215 0.0
H712 H 0.81225 0.57891 0.12336 0.0
H713 H 0.82762 0.5771 0.03174 0.0
C714 C 0.80932 0.56284 0.92807 0.0
C715 C 0.79784 0.55561 0.87681 0.0
C716 C 0.80051 0.56145 0.98313 0.0
C717 C 0.77741 0.54555 0.88197 0.0
C718 C 0.76856 0.54376 0.93665 0.0
C719 C 0.77123 0.55277 0.04026 0.0
C720 C 0.78273 0.56307 0.08915 0.0
C721 C 0.77998 0.55223 0.98705 0.0
C722 C 0.80304 0.57102 0.08622 0.0
C723 C 0.81186 0.57011 0.03366 0.0
H724 H 0.42443 0.24592 0.8833 0.0
H725 H 0.46447 0.22755 0.82314 0.0
H726 H 0.46911 0.22034 0.92476 0.0
H727 H 0.45909 0.21591 0.02871 0.0
H728 H 0.41821 0.23325 0.08836 0.0
H729 H 0.41695 0.24456 0.98899 0.0
C730 C 0.43434 0.24053 0.8924 0.0
C731 C 0.44386 0.237 0.84552 0.0
C732 C 0.43678 0.2362 0.95084 0.0
C733 C 0.45682 0.23024 0.85827 0.0
C734 C 0.45948 0.22609 0.9164 0.0
C735 C 0.45015 0.22247 0.02032 0.0
C736 C 0.43855 0.22347 0.06582 0.0
C737 C 0.44913 0.22853 0.96279 0.0
C738 C 0.42718 0.23216 0.05414 0.0
C739 C 0.42637 0.23855 0.9972 0.0
H740 H 0.74816 0.17612 0.8827 0.0
H741 H 0.76713 0.23624 0.8414 0.0
H742 H 0.7735 0.24476 0.94594 0.0
H743 H 0.77807 0.23594 0.04617 0.0
H744 H 0.75976 0.17591 0.08692 0.0
H745 H 0.74831 0.16649 0.98567 0.0
C746 C 0.75342 0.19104 0.89668 0.0
C747 C 0.75755 0.2056 0.85429 0.0
C748 C 0.75724 0.19587 0.95669 0.0
C749 C 0.76399 0.22479 0.87311 0.0
C750 C 0.76771 0.22969 0.93286 0.0
C751 C 0.77123 0.22073 0.03324 0.0
C752 C 0.77014 0.20672 0.07369 0.0
C753 C 0.76504 0.21547 0.97466 0.0
C754 C 0.76094 0.18703 0.05656 0.0
C755 C 0.7545 0.18164 -0.00149 0.0
H756 H 0.44832 0.24084 0.53909 0.0
H757 H 0.4092 0.17964 0.57339 0.0
H758 H 0.41672 0.17146 0.47654 0.0
H759 H 0.43173 0.18189 0.37885 0.0
H760 H 0.46992 0.24316 0.34308 0.0
H761 H 0.46553 0.25107 0.44425 0.0
C762 C 0.4416 0.22567 0.52578 0.0
C763 C 0.42801 0.21089 0.56322 0.0
C764 C 0.44571 0.2211 0.46963 0.0
C765 C 0.4196 0.19132 0.54536 0.0
C766 C 0.42385 0.18663 0.48988 0.0
C767 C 0.4393 0.19698 0.39327 0.0
C768 C 0.45096 0.21194 0.35314 0.0
C769 C 0.43646 0.20144 0.4511 0.0
C770 C 0.46077 0.23137 0.37286 0.0
C771 C 0.45822 0.23591 0.43068 0.0
H772 H 0.75713 0.2143 0.544 0.0
H773 H 0.81838 0.24346 0.58791 0.0
H774 H 0.82673 0.25553 0.48681 0.0
H775 H 0.81681 0.25336 0.38317 0.0
H776 H 0.75564 0.22353 0.33858 0.0
H777 H 0.7471 0.21633 0.44292 0.0
C778 C 0.7723 0.22363 0.53182 0.0
C779 C 0.78712 0.22761 0.57311 0.0
C780 C 0.77703 0.23017 0.47329 0.0
C781 C 0.80668 0.23999 0.55688 0.0
C782 C 0.81149 0.2468 0.49893 0.0
C783 C 0.8016 0.24555 0.39639 0.0
C784 C 0.78688 0.23863 0.35319 0.0
C785 C 0.79681 0.24126 0.45627 0.0
C786 C 0.76725 0.22887 0.37096 0.0
C787 C 0.76235 0.22468 0.4306 0.0
H788 H 0.75812 0.57622 0.55957 0.0
H789 H 0.77091 0.52942 0.54481 0.0
H790 H 0.75982 0.52398 0.44236 0.0
H791 H 0.75056 0.53528 0.35384 0.0
H792 H 0.73935 0.58318 0.36765 0.0
H793 H 0.74562 0.58528 0.47362 0.0
C794 C 0.75811 0.56456 0.53437 0.0
C795 C 0.76557 0.55342 0.55951 0.0
C796 C 0.75224 0.56187 0.47499 0.0
C797 C 0.76542 0.53835 0.52625 0.0
C798 C 0.75915 0.53526 0.46758 0.0
C799 C 0.74921 0.546 0.38014 0.0
C800 C 0.74479 0.55923 0.35269 0.0
C801 C 0.7532 0.5474 0.44092 0.0
C802 C 0.74296 0.57295 0.38753 0.0
C803 C 0.74655 0.57418 0.44819 0.0
H804 H 0.54871 0.08768 0.6325 0.0
H805 H 0.60545 0.11937 0.71433 0.0
H806 H 0.59037 0.12032 0.80743 0.0
H807 H 0.56094 0.10874 0.86831 0.0
H808 H 0.50423 0.07665 0.78659 0.0
H809 H 0.51948 0.0794 0.69065 0.0
C810 C 0.55782 0.09506 0.67043 0.0
C811 C 0.57815 0.10316 0.66671 0.0
C812 C 0.54905 0.0953 0.72404 0.0
C813 C 0.58975 0.1129 0.71604 0.0
C814 C 0.58113 0.11336 0.76944 0.0
C815 C 0.55191 0.10255 0.82939 0.0
C816 C 0.53148 0.09224 0.83477 0.0
C817 C 0.56077 0.10405 0.77441 0.0
C818 C 0.51999 0.08454 0.7838 0.0
C819 C 0.5287 0.08606 0.72889 0.0
H820 H 0.9137 0.43802 0.58223 0.0
H821 H 0.86567 0.44897 0.59627 0.0
H822 H 0.86057 0.4381 0.69901 0.0
H823 H 0.87202 0.42892 0.78772 0.0
H824 H 0.92072 0.41898 0.77374 0.0
H825 H 0.92319 0.42597 0.66826 0.0
C826 C 0.90189 0.43772 0.60736 0.0
C827 C 0.89026 0.44453 0.58174 0.0
C828 C 0.8993 0.43187 0.66681 0.0
C829 C 0.87496 0.44395 0.615 0.0
C830 C 0.87207 0.43782 0.6739 0.0
C831 C 0.88304 0.42809 0.76151 0.0
C832 C 0.89631 0.42369 0.78887 0.0
C833 C 0.88454 0.43232 0.70077 0.0
C834 C 0.91041 0.4225 0.75405 0.0
C835 C 0.91185 0.4265 0.69361 0.0
H836 H 0.5317 0.42227 0.59619 0.0
H837 H 0.55504 0.48268 0.54764 0.0
H838 H 0.5693 0.49282 0.64589 0.0
H839 H 0.57149 0.48438 0.74862 0.0
H840 H 0.54694 0.42393 0.79851 0.0
H841 H 0.537 0.414 0.69631 0.0
C842 C 0.54018 0.43768 0.60667 0.0
C843 C 0.54204 0.45168 0.56483 0.0
C844 C 0.54796 0.4434 0.66367 0.0
C845 C 0.55323 0.47158 0.57909 0.0
C846 C 0.56133 0.4774 0.63539 0.0
C847 C 0.56421 0.46903 0.7371 0.0
C848 C 0.55969 0.4549 0.78141 0.0
C849 C 0.55821 0.46341 0.67856 0.0
C850 C 0.55046 0.43511 0.76545 0.0
C851 C 0.54471 0.42941 0.70702 0.0
H852 H 0.54604 0.81973 0.70369 0.0
H853 H 0.56474 0.78301 0.78823 0.0
H854 H 0.56184 0.7664 0.6949 0.0
H855 H 0.5575 0.76469 0.58837 0.0
H856 H 0.54109 0.80273 0.50064 0.0
H857 H 0.5393 0.81626 0.59622 0.0
C858 C 0.54911 0.80785 0.70171 0.0
C859 C 0.5557 0.80265 0.75249 0.0
C860 C 0.548 0.79873 0.64734 0.0
C861 C 0.55979 0.78735 0.74948 0.0
C862 C 0.55816 0.77786 0.69618 0.0
C863 C 0.5533 0.77578 0.58997 0.0
C864 C 0.54967 0.78285 0.53733 0.0
C865 C 0.55284 0.78382 0.64461 0.0
C866 C 0.54409 0.79712 0.54049 0.0
C867 C 0.54313 0.8049 0.59512 0.0
H868 H 0.2318 0.79439 0.40529 0.0
H869 H 0.17139 0.77408 0.36433 0.0
H870 H 0.1618 0.7594 0.46226 0.0
H871 H 0.17093 0.75588 0.56317 0.0
H872 H 0.23138 0.77677 0.60491 0.0
H873 H 0.24054 0.78759 0.50288 0.0
C874 C 0.21649 0.78646 0.41733 0.0
C875 C 0.20238 0.78562 0.37777 0.0
C876 C 0.2111 0.77839 0.47417 0.0
C877 C 0.18259 0.7751 0.39397 0.0
C878 C 0.17709 0.76678 0.45016 0.0
C879 C 0.1861 0.76262 0.54984 0.0
C880 C 0.20049 0.7658 0.59185 0.0
C881 C 0.19128 0.76894 0.49125 0.0
C882 C 0.22002 0.77428 0.57361 0.0
C883 C 0.22529 0.78051 0.51526 0.0
H884 H 0.19563 0.45321 0.59653 0.0
H885 H 0.24512 0.45769 0.50248 0.0
H886 H 0.26362 0.46554 0.59463 0.0
H887 H 0.26326 0.46487 0.7033 0.0
H888 H 0.21283 0.45832 0.79691 0.0
H889 H 0.19736 0.45802 0.70347 0.0
C890 C 0.2106 0.45625 0.59601 0.0
C891 C 0.21883 0.45437 0.54315 0.0
C892 C 0.22093 0.46027 0.64919 0.0
C893 C 0.23836 0.4588 0.54281 0.0
C894 C 0.24892 0.46321 0.59554 0.0
C895 C 0.24915 0.464 0.70332 0.0
C896 C 0.23901 0.46121 0.75677 0.0
C897 C 0.24002 0.46308 0.64931 0.0
C898 C 0.22078 0.46018 0.75617 0.0
C899 C 0.21188 0.4599 0.70278 0.0
H900 H 0.47358 0.88742 0.17055 0.0
H901 H 0.41221 0.84804 0.14086 0.0
H902 H 0.40549 0.85019 0.24506 0.0
H903 H 0.41644 0.8669 0.34034 0.0
H904 H 0.4777 0.90713 0.36913 0.0
H905 H 0.48508 0.9006 0.26988 0.0
C906 C 0.45876 0.87907 0.18702 0.0
C907 C 0.44337 0.86791 0.14773 0.0
C908 C 0.45496 0.88058 0.24678 0.0
C909 C 0.42431 0.8569 0.16999 0.0
C910 C 0.42044 0.85817 0.22958 0.0
C911 C 0.43146 0.87397 0.3254 0.0
C912 C 0.44644 0.88781 0.3617 0.0
C913 C 0.43556 0.87052 0.26779 0.0
C914 C 0.46585 0.89657 0.34196 0.0
C915 C 0.47008 0.89294 0.28501 0.0
H916 H 0.11117 0.58558 0.14809 0.0
H917 H 0.13378 0.54848 0.09394 0.0
H918 H 0.13148 0.53706 0.19564 0.0
H919 H 0.11843 0.5341 0.29609 0.0
H920 H 0.09573 0.5712 0.34978 0.0
H921 H 0.10298 0.58639 0.2522 0.0
C922 C 0.11593 0.57526 0.15884 0.0
C923 C 0.12228 0.56758 0.11365 0.0
C924 C 0.11438 0.56864 0.21709 0.0
C925 C 0.12875 0.55452 0.12806 0.0
C926 C 0.12731 0.54789 0.18608 0.0
C927 C 0.11538 0.54575 0.28669 0.0
C928 C 0.10619 0.55125 0.32954 0.0
C929 C 0.11943 0.55429 0.23039 0.0
C930 C 0.10266 0.5666 0.31734 0.0
C931 C 0.10671 0.57522 0.26146 0.0
H932 H 0.40602 0.51734 0.16009 0.0
H933 H 0.43418 0.57839 0.11425 0.0
H934 H 0.44275 0.58724 0.21789 0.0
H935 H 0.44624 0.57756 0.31827 0.0
H936 H 0.41855 0.51642 0.36321 0.0
H937 H 0.4055 0.50769 0.26327 0.0
C938 C 0.41379 0.53258 0.17292 0.0
C939 C 0.41981 0.54719 0.12953 0.0
C940 C 0.41886 0.53754 0.2323 0.0
C941 C 0.4295 0.56687 0.14682 0.0
C942 C 0.43449 0.57194 0.20602 0.0
C943 C 0.43707 0.56233 0.30651 0.0
C944 C 0.43372 0.54766 0.34774 0.0
C945 C 0.42987 0.55739 0.24869 0.0
C946 C 0.42153 0.52801 0.33218 0.0
C947 C 0.41413 0.52299 0.27491 0.0
H948 H 0.11071 0.56384 0.78855 0.0
H949 H 0.10349 0.51206 0.87528 0.0
H950 H 0.10342 0.49782 0.77912 0.0
H951 H 0.10171 0.49877 0.67017 0.0
H952 H 0.10587 0.54958 0.58572 0.0
H953 H 0.11093 0.56559 0.68144 0.0
C954 C 0.10939 0.54953 0.78672 0.0
C955 C 0.10692 0.53894 0.839 0.0
C956 C 0.10863 0.54121 0.73157 0.0
C957 C 0.10529 0.52046 0.83562 0.0
C958 C 0.10518 0.5123 0.78066 0.0
C959 C 0.10405 0.51346 0.67286 0.0
C960 C 0.10334 0.52299 0.62129 0.0
C961 C 0.10627 0.52232 0.7283 0.0
C962 C 0.1062 0.54194 0.62506 0.0
C963 C 0.1091 0.55109 0.67967 0.0
H964 H 0.41636 0.55056 0.81653 0.0
H965 H 0.47709 0.57847 0.86601 0.0
H966 H 0.48663 0.59016 0.76497 0.0
H967 H 0.47777 0.58823 0.66039 0.0
H968 H 0.41711 0.55977 0.61025 0.0
H969 H 0.40748 0.55268 0.71401 0.0
C970 C 0.43168 0.55953 0.8055 0.0
C971 C 0.44599 0.56332 0.84843 0.0
C972 C 0.43707 0.56588 0.74709 0.0
C973 C 0.46577 0.57521 0.83372 0.0
C974 C 0.47125 0.5818 0.77582 0.0
C975 C 0.46244 0.58072 0.67227 0.0
C976 C 0.44816 0.57418 0.62778 0.0
C977 C 0.45704 0.57653 0.73177 0.0
C978 C 0.42838 0.56482 0.64373 0.0
C979 C 0.42286 0.56069 0.703 0.0
H980 H 0.41446 0.89554 0.85388 0.0
H981 H 0.42715 0.8486 0.84408 0.0
H982 H 0.41781 0.84362 0.73999 0.0
H983 H 0.41154 0.85634 0.64853 0.0
H984 H 0.40079 0.90461 0.65824 0.0
H985 H 0.40376 0.90521 0.76541 0.0
C986 C 0.4147 0.88388 0.82947 0.0
C987 C 0.42186 0.87273 0.85636 0.0
C988 C 0.41002 0.88157 0.76915 0.0
C989 C 0.42194 0.85758 0.82414 0.0
C990 C 0.41672 0.85479 0.76449 0.0
C991 C 0.4095 0.86675 0.67418 0.0
C992 C 0.40637 0.88066 0.64533 0.0
C993 C 0.41164 0.86732 0.7359 0.0
C994 C 0.40357 0.89394 0.67926 0.0
C995 C 0.40524 0.89431 0.74063 0.0
H996 H 0.19707 0.42307 0.27022 0.0
H997 H 0.18538 0.47032 0.24611 0.0
H998 H 0.19721 0.47448 0.14398 0.0
H999 H 0.20994 0.46378 0.06071 0.0
H1000 H 0.22075 0.41597 0.08781 0.0
H1001 H 0.2101 0.41298 0.18974 0.0
C1002 C 0.19712 0.43435 0.24288 0.0
C1003 C 0.19027 0.44631 0.26568 0.0
C1004 C 0.20371 0.43651 0.1846 0.0
C1005 C 0.19056 0.4609 0.22956 0.0
C1006 C 0.19728 0.46325 0.17117 0.0
C1007 C 0.21001 0.45276 0.08902 0.0
C1008 C 0.21606 0.44008 0.06644 0.0
C1009 C 0.20374 0.451 0.14805 0.0
C1010 C 0.21608 0.42588 0.10375 0.0
C1011 C 0.21002 0.42414 0.1622 0.0
H1012 H 0.55749 0.76181 0.02099 0.0
H1013 H 0.55779 0.8132 0.08625 0.0
H1014 H 0.55177 0.80006 0.18627 0.0
H1015 H 0.55086 0.77624 0.25646 0.0
H1016 H 0.55216 0.72552 0.19271 0.0
H1017 H 0.55269 0.73595 0.09081 0.0
C1018 C 0.55589 0.76997 0.05692 0.0
C1019 C 0.55843 0.78859 0.04636 0.0
C1020 C 0.55284 0.76252 0.1147 0.0
C1021 C 0.5562 0.79894 0.09333 0.0
C1022 C 0.55275 0.79145 0.15059 0.0
C1023 C 0.55091 0.76726 0.22033 0.0
C1024 C 0.55183 0.75032 0.23223 0.0
C1025 C 0.55175 0.77359 0.16204 0.0
C1026 C 0.55166 0.73875 0.18483 0.0
C1027 C 0.55205 0.74475 0.1265 0.0
H1028 H 0.22726 0.78167 0.09286 0.0
H1029 H 0.23934 0.84095 0.07328 0.0
H1030 H 0.2347 0.83645 0.96683 0.0
H1031 H 0.22349 0.81469 0.88138 0.0
H1032 H 0.20955 0.75486 0.90109 0.0
H1033 H 0.21912 0.76074 0.00501 0.0
C1034 C 0.22911 0.79367 0.06523 0.0
C1035 C 0.23334 0.8115 0.09116 0.0
C1036 C 0.2261 0.79091 0.00398 0.0
C1037 C 0.23583 0.82697 0.05462 0.0
C1038 C 0.23322 0.82444 0.99365 0.0
C1039 C 0.22297 0.80304 0.90797 0.0
C1040 C 0.21562 0.78433 0.8837 0.0
C1041 C 0.22783 0.80632 0.96809 0.0
C1042 C 0.21502 0.76939 0.91887 0.0
C1043 C 0.22038 0.7727 0.9784 0.0
H1044 H 0.21716 0.2258 0.35825 0.0
H1045 H 0.21003 0.25055 0.19661 0.0
H1046 H 0.22792 0.23794 0.14206 0.0
H1047 H 0.24197 0.21652 0.13815 0.0
H1048 H 0.24774 0.19059 0.29922 0.0
H1049 H 0.23424 0.20721 0.35599 0.0
C1050 C 0.21982 0.22874 0.31131 0.0
C1051 C 0.21203 0.23883 0.28145 0.0
C1052 C 0.22972 0.22107 0.27988 0.0
C1053 C 0.21567 0.24259 0.22059 0.0
C1054 C 0.22588 0.23536 0.18927 0.0
C1055 C 0.24058 0.21477 0.18577 0.0
C1056 C 0.24557 0.20211 0.21422 0.0
C1057 C 0.2324 0.22404 0.21811 0.0
C1058 C 0.24377 0.20006 0.27606 0.0
C1059 C 0.23603 0.20955 0.30864 0.0
H1060 H 0.80728 0.96542 0.24871 0.0
H1061 H 0.7564 0.96608 0.3136 0.0
H1062 H 0.76804 0.99821 0.26844 0.0
H1063 H 0.79348 0.02662 0.21309 0.0
H1064 H 0.84382 0.02476 0.14807 0.0
H1065 H 0.83144 0.9925 0.19041 0.0
C1066 C 0.79871 0.97257 0.2532 0.0
C1067 C 0.78113 0.9635 0.285 0.0
C1068 C 0.80537 0.99082 0.22689 0.0
C1069 C 0.77006 0.97283 0.2895 0.0
C1070 C 0.7767 0.99119 0.2637 0.0
C1071 C 0.80163 0.01907 0.20779 0.0
C1072 C 0.81962 0.02819 0.17777 0.0
C1073 C 0.79444 0.00039 0.23256 0.0
C1074 C 0.82999 0.01818 0.1712 0.0
C1075 C 0.82295 -0.00029 0.1955 0.0
H1076 H 0.96355 0.81416 0.26164 0.0
H1077 H 0.96961 0.76438 0.21844 0.0
H1078 H 0.00158 0.77982 0.26664 0.0
H1079 H 0.02805 0.8079 0.31907 0.0
H1080 H 0.02118 0.85723 0.36266 0.0
H1081 H 0.98915 0.84139 0.31645 0.0
C1082 C 0.97184 0.80666 0.26259 0.0
C1083 C 0.9643 0.78823 0.23611 0.0
C1084 C 0.99003 0.81551 0.29057 0.0
C1085 C 0.97514 0.77861 0.23842 0.0
C1086 C 0.9934 0.78743 0.26594 0.0
C1087 C 0.0195 0.81513 0.31871 0.0
C1088 C 0.02705 0.83377 0.34407 0.0
C1089 C 0.00102 0.80593 0.29194 0.0
C1090 C 0.01576 0.84291 0.34342 0.0
C1091 C 0.99743 0.83389 0.31688 0.0
H1092 H 0.77804 0.75437 0.65449 0.0
H1093 H 0.82743 0.78224 0.77235 0.0
H1094 H 0.81373 0.80037 0.81868 0.0
H1095 H 0.78891 0.80971 0.82266 0.0
H1096 H 0.73997 0.78351 0.70294 0.0
H1097 H 0.75221 0.7632 0.66086 0.0
C1098 C 0.78568 0.76431 0.69058 0.0
C1099 C 0.80378 0.76706 0.7096 0.0
C1100 C 0.77786 0.77502 0.71665 0.0
C1101 C 0.81358 0.78001 0.75635 0.0
C1102 C 0.80574 0.79037 0.78307 0.0
C1103 C 0.78078 0.79945 0.7877 0.0
C1104 C 0.76361 0.79819 0.76583 0.0
C1105 C 0.78807 0.78819 0.76305 0.0
C1106 C 0.75329 0.78481 0.72048 0.0
C1107 C 0.7603 0.77322 0.69631 0.0
H1108 H 0.23072 0.03797 0.72497 0.0
H1109 H 0.17706 0.03848 0.75386 0.0
H1110 H 0.1646 0.00927 0.81422 0.0
H1111 H 0.16827 0.98317 0.85643 0.0
H1112 H 0.22068 0.98068 0.82462 0.0
H1113 H 0.2344 0.01124 0.76839 0.0
C1114 C 0.21632 0.03167 0.74457 0.0
C1115 C 0.20483 0.04037 0.73469 0.0
C1116 C 0.20905 0.0146 0.77892 0.0
C1117 C 0.18618 0.03203 0.76027 0.0
C1118 C 0.17904 0.01535 0.79507 0.0
C1119 C 0.1828 0.98936 0.83782 0.0
C1120 C 0.19347 0.97971 0.84493 0.0
C1121 C 0.19029 0.00649 0.80443 0.0
C1122 C 0.21218 0.98787 0.81987 0.0
C1123 C 0.21999 0.00529 0.78756 0.0
H1124 H 0.97564 0.20166 0.69276 0.0
H1125 H 0.97094 0.14577 0.65871 0.0
H1126 H 0.00428 0.1583 0.69188 0.0
H1127 H 0.03448 0.18463 0.73214 0.0
H1128 H 0.04009 0.24084 0.76597 0.0
H1129 H 0.00667 0.22865 0.73128 0.0
C1130 C 0.98196 0.19227 0.69238 0.0
C1131 C 0.97076 0.17279 0.67343 0.0
C1132 C 0.00126 0.19957 0.71167 0.0
C1133 C 0.97918 0.16082 0.67313 0.0
C1134 C -0.00174 0.16794 0.69218 0.0
C1135 C 0.02843 0.19426 0.73208 0.0
C1136 C 0.03971 0.21357 0.75192 0.0
C1137 C 0.00937 0.18722 0.7119 0.0
C1138 C 0.03168 0.22588 0.751 0.0
C1139 C 0.01258 0.21892 0.73118 0.0
H1140 H 0.82605 0.52782 0.62336 0.0
H1141 H 0.88082 0.5818 0.60942 0.0
H1142 H 0.89483 0.56499 0.55482 0.0
H1143 H 0.89111 0.53494 0.50963 0.0
H1144 H 0.83553 0.48161 0.52099 0.0
H1145 H 0.82216 0.49835 0.57748 0.0
C1146 C 0.84113 0.53592 0.60902 0.0
C1147 C 0.85245 0.55599 0.62085 0.0
C1148 C 0.84885 0.52634 0.57653 0.0
C1149 C 0.87185 0.5663 0.60104 0.0
C1150 C 0.87982 0.55672 0.56966 0.0
C1151 C 0.87605 0.52702 0.52423 0.0
C1152 C 0.86435 0.50705 0.51108 0.0
C1153 C 0.86838 0.53676 0.55672 0.0
C1154 C 0.84486 0.49699 0.53028 0.0
C1155 C 0.8372 0.50652 0.56287 0.0
H1156 H 0.42612 0.3 0.60781 0.0
H1157 H 0.48117 0.30658 0.66456 0.0
H1158 H 0.49862 0.33759 0.61312 0.0
H1159 H 0.49858 0.3623 0.5497 0.0
H1160 H 0.44416 0.35708 0.49345 0.0
H1161 H 0.42614 0.32605 0.54685 0.0
C1162 C 0.44192 0.30832 0.60933 0.0
C1163 C 0.45229 0.30087 0.63978 0.0
C1164 C 0.452 0.32628 0.5793 0.0
C1165 C 0.47277 0.31186 0.64132 0.0
C1166 C 0.48282 0.32962 0.61176 0.0
C1167 C 0.48277 0.35437 0.54878 0.0
C1168 C 0.47272 0.36185 0.51709 0.0
C1169 C 0.47261 0.33682 0.58003 0.0
C1170 C 0.45223 0.35155 0.51731 0.0
C1171 C 0.44194 0.33383 0.54789 0.0
H1172 H 0.66144 0.10191 0.45553 0.0
H1173 H 0.63573 0.0863 0.62963 0.0
H1174 H 0.66797 0.10406 0.67441 0.0
H1175 H 0.703 0.12692 0.66454 0.0
H1176 H 0.72875 0.14314 0.49069 0.0
H1177 H 0.69699 0.12208 0.44562 0.0
C1178 C 0.6629 0.10214 0.50324 0.0
C1179 C 0.64616 0.09301 0.53909 0.0
C1180 C 0.68149 0.11263 0.52887 0.0
C1181 C 0.64834 0.09333 0.60087 0.0
C1182 C 0.66679 0.10354 0.62663 0.0
C1183 C 0.70173 0.12567 0.61679 0.0
C1184 C 0.71818 0.13681 0.58109 0.0
C1185 C 0.68339 0.11372 0.5911 0.0
C1186 C 0.7163 0.13483 0.51929 0.0
C1187 C 0.69813 0.12283 0.4934 0.0
H1188 H 0.45133 0.13782 0.12593 0.0
H1189 H 0.50544 0.19108 0.15975 0.0
H1190 H 0.52379 0.17595 0.12415 0.0
H1191 H 0.52453 0.14772 0.08365 0.0
H1192 H 0.47055 0.09434 0.04997 0.0
H1193 H 0.45208 0.1095 0.08499 0.0
C1194 C 0.46713 0.1461 0.12569 0.0
C1195 C 0.47699 0.16554 0.14556 0.0
C1196 C 0.47762 0.13735 0.10495 0.0
C1197 C 0.49747 0.17609 0.14476 0.0
C1198 C 0.508 0.16747 0.12432 0.0
C1199 C 0.50873 0.1394 0.08371 0.0
C1200 C 0.49894 0.11994 0.0642 0.0
C1201 C 0.49822 0.14814 0.10423 0.0
C1202 C 0.47845 0.10936 0.06476 0.0
C1203 C 0.46787 0.118 0.08487 0.0
H1204 H 0.89679 0.35793 0.04365 0.0
H1205 H 0.84561 0.35606 0.96962 0.0
H1206 H 0.82498 0.32426 0.01395 0.0
H1207 H 0.82108 0.29761 0.07654 0.0
H1208 H 0.87162 0.29824 0.14997 0.0
H1209 H 0.89288 0.32989 0.10302 0.0
C1210 C 0.88115 0.35048 0.03685 0.0
C1211 C 0.87279 0.35948 0.00368 0.0
C1212 C 0.86922 0.33205 0.06268 0.0
C1213 C 0.85248 0.34958 0.99514 0.0
C1214 C 0.84061 0.33137 0.02059 0.0
C1215 C 0.83675 0.30466 0.08246 0.0
C1216 C 0.84476 0.29573 0.11721 0.0
C1217 C 0.84878 0.32262 0.05504 0.0
C1218 C 0.86511 0.30489 0.12356 0.0
C1219 C 0.87725 0.32297 0.09675 0.0
H1220 H 0.68625 0.56277 0.08956 0.0
H1221 H 0.68692 0.50972 0.12874 0.0
H1222 H 0.65557 0.49055 0.08039 0.0
H1223 H 0.62799 0.4886 0.02729 0.0
H1224 H 0.62622 0.54106 0.98885 0.0
H1225 H 0.65801 0.5607 0.03633 0.0
C1226 C 0.6795 0.54702 0.08758 0.0
C1227 C 0.68896 0.53773 0.11276 0.0
C1228 C 0.66132 0.53597 0.05966 0.0
C1229 C 0.68001 0.5173 0.10985 0.0
C1230 C 0.66206 0.50628 0.08208 0.0
C1231 C 0.63456 0.50434 0.02895 0.0
C1232 C 0.62478 0.51335 0.00438 0.0
C1233 C 0.65262 0.51545 0.05677 0.0
C1234 C 0.63347 0.53376 0.0074 0.0
C1235 C 0.65162 0.54499 0.03461 0.0
H1236 H 0.54404 0.90903 0.98897 0.0
H1237 H 0.50228 0.87791 0.85097 0.0
H1238 H 0.52463 0.86893 0.80571 0.0
H1239 H 0.55395 0.86613 0.8131 0.0
H1240 H 0.59377 0.89359 0.95784 0.0
H1241 H 0.57471 0.90832 0.99192 0.0
C1242 C 0.54001 0.90055 0.94851 0.0
C1243 C 0.52152 0.89393 0.92369 0.0
C1244 C 0.55266 0.89486 0.92387 0.0
C1245 C 0.51637 0.8829 0.87136 0.0
C1246 C 0.52916 0.87782 0.84532 0.0
C1247 C 0.55876 0.8759 0.85084 0.0
C1248 C 0.57524 0.87903 0.88271 0.0
C1249 C 0.54708 0.88322 0.87216 0.0
C1250 C 0.58116 0.89122 0.93254 0.0
C1251 C 0.57017 0.89944 0.95228 0.0
H1252 H 0.10631 0.63329 0.89224 0.0
H1253 H 0.1613 0.63422 0.88887 0.0
H1254 H 0.17686 0.66613 0.84194 0.0
H1255 H 0.17513 0.69377 0.80245 0.0
H1256 H 0.12076 0.69394 0.80708 0.0
H1257 H 0.10465 0.66148 0.85245 0.0
C1258 C 0.1217 0.64051 0.88136 0.0
C1259 C 0.1326 0.63135 0.89414 0.0
C1260 C 0.13066 0.65898 0.85429 0.0
C1261 C 0.15254 0.6409 0.8797 0.0
C1262 C 0.16147 0.65916 0.85267 0.0
C1263 C 0.15971 0.6867 0.81294 0.0
C1264 C 0.14915 0.69624 0.80118 0.0
C1265 C 0.15068 0.66829 0.83971 0.0
C1266 C 0.12922 0.68689 0.81557 0.0
C1267 C 0.12002 0.66836 0.84165 0.0
H1268 H 0.3022 0.43815 0.7982 0.0
H1269 H 0.28942 0.43553 0.98461 0.0
H1270 H 0.32404 0.4512 0.00774 0.0
H1271 H 0.35781 0.4688 0.97494 0.0
H1272 H 0.37122 0.47343 0.7886 0.0
H1273 H 0.33651 0.45354 0.76558 0.0
C1274 C 0.30702 0.44071 0.84386 0.0
C1275 C 0.29334 0.4359 0.88959 0.0
C1276 C 0.32704 0.45021 0.85685 0.0
C1277 C 0.29973 0.43933 0.9486 0.0
C1278 C 0.31951 0.44828 0.9619 0.0
C1279 C 0.35321 0.46527 0.92926 0.0
C1280 C 0.36707 0.47283 0.88355 0.0
C1281 C 0.33329 0.4543 0.91633 0.0
C1282 C 0.36083 0.46793 0.82467 0.0
C1283 C 0.34098 0.45661 0.81144 0.0
H1284 H 0.0798 0.45153 0.37601 0.0
H1285 H 0.07839 0.44541 0.56565 0.0
H1286 H 0.09497 0.42644 0.55783 0.0
H1287 H 0.1143 0.41633 0.49789 0.0
H1288 H 0.11551 0.42242 0.30812 0.0
H1289 H 0.09424 0.43641 0.31497 0.0
C1290 C 0.08276 0.44565 0.41545 0.0
C1291 C 0.07825 0.45006 0.47131 0.0
C1292 C 0.0924 0.43496 0.41059 0.0
C1293 C 0.0818 0.44218 0.52219 0.0
C1294 C 0.09141 0.43149 0.51775 0.0
C1295 C 0.10958 0.42038 0.45802 0.0
C1296 C 0.11672 0.41874 0.40272 0.0
C1297 C 0.09747 0.42851 0.46234 0.0
C1298 C 0.11026 0.42366 0.35122 0.0
C1299 C 0.09821 0.43177 0.35512 0.0
H1300 H 0.53674 0.64164 0.56872 0.0
H1301 H 0.52371 0.62931 0.38305 0.0
H1302 H 0.54231 0.66405 0.36057 0.0
H1303 H 0.55896 0.69787 0.39465 0.0
H1304 H 0.57118 0.71046 0.58048 0.0
H1305 H 0.55643 0.67566 0.60166 0.0
C1306 C 0.53823 0.64652 0.52322 0.0
C1307 C 0.5286 0.6329 0.47778 0.0
C1308 C 0.54866 0.66657 0.51064 0.0
C1309 C 0.53079 0.63948 0.41901 0.0
C1310 C 0.5414 0.65936 0.40607 0.0
C1311 C 0.55863 0.69305 0.43974 0.0
C1312 C 0.56589 0.70673 0.486 0.0
C1313 C 0.54986 0.67304 0.45172 0.0
C1314 C 0.56556 0.70023 0.54405 0.0
C1315 C 0.55707 0.68032 0.55625 0.0
H1316 H 0.35591 0.89801 0.40555 0.0
H1317 H 0.35678 0.84427 0.38367 0.0
H1318 H 0.32506 0.82929 0.33604 0.0
H1319 H 0.29681 0.83093 0.3031 0.0
H1320 H 0.29444 0.88375 0.32726 0.0
H1321 H 0.32709 0.89967 0.37122 0.0
C1322 C 0.34915 0.88306 0.3901 0.0
C1323 C 0.35866 0.87226 0.39832 0.0
C1324 C 0.33068 0.87437 0.36322 0.0
C1325 C 0.34972 0.85287 0.37832 0.0
C1326 C 0.33159 0.84428 0.3509 0.0
C1327 C 0.30343 0.84598 0.31757 0.0
C1328 C 0.29323 0.85615 0.31188 0.0
C1329 C 0.32191 0.85484 0.34351 0.0
C1330 C 0.30201 0.8756 0.33123 0.0
C1331 C 0.32065 0.88469 0.3564 0.0
H1332 H 0.31216 0.1411 0.09871 0.0
H1333 H 0.30743 0.16945 0.25589 0.0
H1334 H 0.33915 0.1754 0.28928 0.0
H1335 H 0.36882 0.17407 0.27196 0.0
H1336 H 0.37433 0.14653 0.1142 0.0
H1337 H 0.34155 0.13849 0.08348 0.0
C1338 C 0.31804 0.14853 0.14033 0.0
C1339 C 0.30748 0.15495 0.17443 0.0
C1340 C 0.33639 0.152 0.15933 0.0
C1341 C 0.31528 0.16445 0.22848 0.0
C1342 C 0.33342 0.16785 0.24775 0.0
C1343 C 0.36282 0.16613 0.2311 0.0
C1344 C 0.37406 0.16101 0.19532 0.0
C1345 C 0.34417 0.16188 0.21325 0.0
C1346 C 0.366 0.15068 0.14259 0.0
C1347 C 0.34729 0.14615 0.12485 0.0
H1348 H 0.82609 0.19433 0.12287 0.0
H1349 H 0.81511 0.17781 0.30675 0.0
H1350 H 0.81608 0.14802 0.2856 0.0
H1351 H 0.8204 0.12685 0.21483 0.0
H1352 H 0.83101 0.1435 0.03085 0.0
H1353 H 0.82952 0.17289 0.05208 0.0
C1354 C 0.82407 0.1843 0.15847 0.0
C1355 C 0.82072 0.18838 0.21641 0.0
C1356 C 0.82434 0.1671 0.14587 0.0
C1357 C 0.81781 0.17506 0.2618 0.0
C1358 C 0.81829 0.15799 0.24971 0.0
C1359 C 0.82215 0.13679 0.17926 0.0
C1360 C 0.82581 0.13294 0.12132 0.0
C1361 C 0.8215 0.15383 0.19185 0.0
C1362 C 0.82819 0.14607 0.07586 0.0
C1363 C 0.82743 0.16295 0.08796 0.0
H1364 H 0.81332 0.6345 0.23869 0.0
H1365 H 0.7778 0.64087 0.10584 0.0
H1366 H 0.80583 0.6717 0.07382 0.0
H1367 H 0.84033 0.69679 0.08392 0.0
H1368 H 0.87573 0.69009 0.2166 0.0
H1369 H 0.8478 0.6592 0.24769 0.0
C1370 C 0.81163 0.64268 0.20298 0.0
C1371 C 0.79344 0.63545 0.17497 0.0
C1372 C 0.82782 0.66019 0.18433 0.0
C1373 C 0.79161 0.64615 0.12833 0.0
C1374 C 0.80764 0.66373 0.10986 0.0
C1375 C 0.84201 0.6885 0.11928 0.0
C1376 C 0.86013 0.69576 0.14783 0.0
C1377 C 0.82583 0.67084 0.13741 0.0
C1378 C 0.86198 0.68485 0.19377 0.0
C1379 C 0.84599 0.66722 0.21179 0.0
H1380 H 0.19647 0.37329 0.36062 0.0
H1381 H 0.14757 0.35573 0.47847 0.0
H1382 H 0.14005 0.32187 0.47236 0.0
H1383 H 0.14667 0.29716 0.43086 0.0
H1384 H 0.19498 0.31465 0.31061 0.0
H1385 H 0.20342 0.34869 0.32048 0.0
C1386 C 0.18424 0.36209 0.38532 0.0
C1387 C 0.17259 0.36703 0.41989 0.0
C1388 C 0.17983 0.34264 0.38097 0.0
C1389 C 0.15674 0.35231 0.45138 0.0
C1390 C 0.15242 0.33294 0.4479 0.0
C1391 C 0.1591 0.30841 0.40699 0.0
C1392 C 0.17014 0.30335 0.36994 0.0
C1393 C 0.16376 0.32792 0.41238 0.0
C1394 C 0.18618 0.31813 0.33925 0.0
C1395 C 0.19103 0.3376 0.34489 0.0
H1396 H 0.63585 0.79795 0.43503 0.0
H1397 H 0.61913 0.82841 0.31113 0.0
H1398 H 0.65275 0.8553 0.3069 0.0
H1399 H 0.68695 0.87022 0.33846 0.0
H1400 H 0.70342 0.83983 0.46355 0.0
H1401 H 0.66987 0.81296 0.4673 0.0
C1402 C 0.63956 0.81043 0.40694 0.0
C1403 C 0.625 0.81113 0.37338 0.0
C1404 C 0.65889 0.82593 0.40506 0.0
C1405 C 0.63005 0.82749 0.33751 0.0
C1406 C 0.64928 0.8429 0.33504 0.0
C1407 C 0.68319 0.85774 0.36664 0.0
C1408 C 0.69771 0.85708 0.40062 0.0
C1409 C 0.66382 0.84229 0.36871 0.0
C1410 C 0.69256 0.84078 0.43693 0.0
C1411 C 0.67336 0.82536 0.43907 0.0
H1412 H 0.19305 0.84347 0.36101 0.0
H1413 H 0.17397 0.84052 0.18068 0.0
H1414 H 0.14489 0.84085 0.21515 0.0
H1415 H 0.12491 0.84186 0.29642 0.0
H1416 H 0.14397 0.84461 0.47676 0.0
H1417 H 0.17294 0.84416 0.44224 0.0
C1418 C 0.18264 0.8431 0.32917 0.0
C1419 C 0.18573 0.84211 0.26834 0.0
C1420 C 0.16583 0.84297 0.3493 0.0
C1421 C 0.17195 0.84135 0.22774 0.0
C1422 C 0.15529 0.84145 0.24741 0.0
C1423 C 0.13528 0.84213 0.32826 0.0
C1424 C 0.13223 0.84319 0.38912 0.0
C1425 C 0.15202 0.84212 0.3081 0.0
C1426 C 0.14594 0.84375 0.42968 0.0
C1427 C 0.16255 0.84358 0.40998 0.0
H1428 H 0.70927 0.86146 0.93845 0.0
H1429 H 0.69716 0.81185 0.82971 0.0
H1430 H 0.66283 0.80275 0.82428 0.0
H1431 H 0.6364 0.80913 0.84949 0.0
H1432 H 0.64886 0.85933 0.95591 0.0
H1433 H 0.68298 0.86796 0.96304 0.0
C1434 C 0.69912 0.8486 0.91378 0.0
C1435 C 0.70574 0.83732 0.88469 0.0
C1436 C 0.6795 0.8436 0.91025 0.0
C1437 C 0.69242 0.82079 0.85249 0.0
C1438 C 0.6728 0.81557 0.84935 0.0
C1439 C 0.64657 0.82194 0.87434 0.0
C1440 C 0.64009 0.83355 0.90217 0.0
C1441 C 0.6662 0.82691 0.8779 0.0
C1442 C 0.65348 0.85016 0.93394 0.0
C1443 C 0.67299 0.8551 0.93814 0.0
H1444 H 0.1857 0.82776 0.72775 0.0
H1445 H 0.14178 0.78524 0.84421 0.0
H1446 H 0.1392 0.81112 0.89474 0.0
H1447 H 0.14988 0.84584 0.90715 0.0
H1448 H 0.19397 0.88834 0.79102 0.0
H1449 H 0.19615 0.8624 0.73954 0.0
C1450 C 0.17541 0.82409 0.7638 0.0
C1451 C 0.16391 0.80455 0.78199 0.0
C1452 C 0.1742 0.83906 0.79321 0.0
C1453 C 0.15078 0.80014 0.82915 0.0
C1454 C 0.14935 0.81494 0.85827 0.0
C1455 C 0.16006 0.84947 0.87081 0.0
C1456 C 0.17181 0.86905 0.8532 0.0
C1457 C 0.16113 0.83447 0.84104 0.0
C1458 C 0.1848 0.87342 0.80568 0.0
C1459 C 0.18601 0.85859 0.77604 0.0
H1460 H 0.20444 0.36228 0.88517 0.0
H1461 H 0.16752 0.37906 0.79229 0.0
H1462 H 0.14307 0.34477 0.77786 0.0
H1463 H 0.13152 0.31 0.7957 0.0
H1464 H 0.16829 0.29359 0.89132 0.0
H1465 H 0.1934 0.32774 0.90044 0.0
C1466 C 0.19112 0.35847 0.86134 0.0
C1467 C 0.1878 0.37322 0.84005 0.0
C1468 C 0.17701 0.33876 0.85398 0.0
C1469 C 0.17043 0.36799 0.80936 0.0
C1470 C 0.15641 0.34838 0.80113 0.0
C1471 C 0.14507 0.3139 0.81827 0.0
C1472 C 0.14795 0.29926 0.84307 0.0
C1473 C 0.15944 0.33364 0.82394 0.0
C1474 C 0.1656 0.30456 0.87218 0.0
C1475 C 0.18001 0.3241 0.87737 0.0
H1476 H 0.8547 0.69073 0.60817 0.0
H1477 H 0.80918 0.69115 0.71207 0.0
H1478 H 0.79768 0.65759 0.74303 0.0
H1479 H 0.80071 0.62825 0.74143 0.0
H1480 H 0.84625 0.62785 0.63763 0.0
H1481 H 0.85767 0.66136 0.60633 0.0
C1482 C 0.84217 0.68345 0.63725 0.0
C1483 C 0.8328 0.69345 0.65763 0.0
C1484 C 0.83574 0.66421 0.65537 0.0
C1485 C 0.81666 0.68381 0.69563 0.0
C1486 C 0.8101 0.66462 0.71353 0.0
C1487 C 0.81321 0.63551 0.71224 0.0
C1488 C 0.82263 0.62554 0.69207 0.0
C1489 C 0.8196 0.65473 0.69398 0.0
C1490 C 0.83873 0.63517 0.65393 0.0
C1491 C 0.84525 0.65432 0.63584 0.0
H1492 H 0.29224 0.14848 0.78543 0.0
H1493 H 0.2991 0.13526 0.6049 0.0
H1494 H 0.33117 0.16469 0.60033 0.0
H1495 H 0.35733 0.19407 0.64767 0.0
H1496 H 0.3504 0.20725 0.82823 0.0
H1497 H 0.31821 0.17804 0.83236 0.0
C1498 C 0.3008 0.15193 0.7452 0.0
C1499 C 0.29332 0.13959 0.69573 0.0
C1500 C 0.31915 0.16897 0.74266 0.0
C1501 C 0.30453 0.14446 0.64372 0.0
C1502 C 0.32286 0.16132 0.64099 0.0
C1503 C 0.34873 0.19066 0.6878 0.0
C1504 C 0.3563 0.20289 0.73753 0.0
C1505 C 0.33029 0.17371 0.69013 0.0
C1506 C 0.34496 0.19813 0.78926 0.0
C1507 C 0.32656 0.18138 0.79176 0.0
H1508 H 0.87568 0.17873 0.71484 0.0
H1509 H 0.86451 0.17739 0.52755 0.0
H1510 H 0.83551 0.17973 0.54758 0.0
H1511 H 0.81235 0.18036 0.61806 0.0
H1512 H 0.82342 0.1819 0.80534 0.0
H1513 H 0.85339 0.18118 0.78542 0.0
C1514 C 0.86706 0.17921 0.67834 0.0
C1515 C 0.87225 0.17779 0.61976 0.0
C1516 C 0.85024 0.18034 0.69015 0.0
C1517 C 0.86086 0.17841 0.57307 0.0
C1518 C 0.8442 0.17966 0.58446 0.0
C1519 C 0.82129 0.18049 0.65457 0.0
C1520 C 0.81554 0.18095 0.71312 0.0
C1521 C 0.83856 0.18026 0.64281 0.0
C1522 C 0.82746 0.18145 0.75986 0.0
C1523 C 0.84461 0.18107 0.74851 0.0
H1524 H 0.02449 0.52474 0.49935 0.0
H1525 H 0.01808 0.47805 0.38577 0.0
H1526 H 0.98496 0.47009 0.36136 0.0
H1527 H 0.95763 0.47587 0.37354 0.0
H1528 H 0.96345 0.52197 0.48864 0.0
H1529 H 0.99709 0.53078 0.51068 0.0
C1530 C 0.01585 0.51283 0.46926 0.0
C1531 C 0.02376 0.50199 0.44459 0.0
C1532 C 0.99675 0.50826 0.45545 0.0
C1533 C 0.01236 0.48661 0.40559 0.0
C1534 C 0.99341 0.48205 0.39146 0.0
C1535 C 0.96628 0.48795 0.4031 0.0
C1536 C 0.95804 0.49825 0.42935 0.0
C1537 C 0.98545 0.49274 0.41624 0.0
C1538 C 0.96944 0.51379 0.46782 0.0
C1539 C 0.98866 0.51881 0.48057 0.0
H1540 H 0.46593 0.50802 0.57761 0.0
H1541 H 0.49614 0.53204 0.41294 0.0
H1542 H 0.4986 0.50291 0.39634 0.0
H1543 H 0.49223 0.47068 0.42838 0.0
H1544 H 0.46302 0.44701 0.59446 0.0
H1545 H 0.45996 0.4759 0.61039 0.0
C1546 C 0.4731 0.50692 0.53814 0.0
C1547 C 0.48083 0.52221 0.4966 0.0
C1548 C 0.47452 0.49014 0.52889 0.0
C1549 C 0.49012 0.52054 0.44578 0.0
C1550 C 0.49147 0.50384 0.4361 0.0
C1551 C 0.48502 0.47174 0.46782 0.0
C1552 C 0.47772 0.45664 0.50996 0.0
C1553 C 0.48366 0.48853 0.47722 0.0
C1554 C 0.46871 0.4584 0.56125 0.0
C1555 C 0.467 0.47493 0.57046 0.0
H1556 H 0.51296 0.0279 0.45215 0.0
H1557 H 0.54707 0.01026 0.5568 0.0
H1558 H 0.51874 0.97765 0.56771 0.0
H1559 H 0.48429 0.95435 0.54871 0.0
H1560 H 0.45034 0.97155 0.44169 0.0
H1561 H 0.47867 0.00426 0.43079 0.0
C1562 C 0.51423 0.01691 0.47724 0.0
C1563 C 0.5321 0.02153 0.5038 0.0
C1564 C 0.49791 0.99819 0.48319 0.0
C1565 C 0.53351 0.00709 0.53583 0.0
C1566 C 0.5173 0.98845 0.54227 0.0
C1567 C 0.48303 0.96528 0.52325 0.0
C1568 C 0.46519 0.96059 0.49644 0.0
C1569 C 0.49941 0.9839 0.51646 0.0
C1570 C 0.4639 0.97482 0.46288 0.0
C1571 C 0.48009 0.9935 0.4566 0.0
H1572 H 0.51584 0.01703 0.92662 0.0
H1573 H 0.47926 0.01908 0.06466 0.0
H1574 H 0.46442 0.98393 0.07948 0.0
H1575 H 0.46263 0.95278 0.05546 0.0
H1576 H 0.49935 0.95101 0.91729 0.0
H1577 H 0.5133 0.98588 0.90044 0.0
C1578 C 0.50456 0.0098 0.95979 0.0
C1579 C 0.49875 0.02071 0.99461 0.0
C1580 C 0.49615 0.98963 0.96827 0.0
C1581 C 0.48404 0.01105 0.03723 0.0
C1582 C 0.47557 0.99095 0.04586 0.0
C1583 C 0.47365 0.96001 0.02159 0.0
C1584 C 0.47998 0.94928 0.98793 0.0
C1585 C 0.48165 0.98012 0.01202 0.0
C1586 C 0.49421 0.95888 0.94397 0.0
C1587 C 0.50222 0.97885 0.93426 0.0
H1588 H 0.97098 0.48762 0.91083 0.0
H1589 H 0.97702 0.44755 0.02626 0.0
H1590 H 0.01055 0.47269 0.04878 0.0
H1591 H 0.03827 0.50582 0.03403 0.0
H1592 H 0.03193 0.54572 0.91853 0.0
H1593 H -0.00176 0.52084 0.89822 0.0
C1594 C 0.97961 0.48432 0.94083 0.0
C1595 C 0.97153 0.46567 0.9665 0.0
C1596 C -0.00122 0.49884 0.95382 0.0
C1597 C 0.9829 0.46175 0.00572 0.0
C1598 C 0.00206 0.47613 0.01868 0.0
C1599 C 0.0295 0.50915 0.00473 0.0
C1600 C 0.03766 0.52763 0.97776 0.0
C1601 C 0.01016 0.49471 0.99285 0.0
C1602 C 0.02605 0.53165 0.9399 0.0
C1603 C 0.00679 0.5174 0.92809 0.0
H1604 H 0.52002 0.49932 0.9775 0.0
H1605 H 0.53407 0.51873 0.79648 0.0
H1606 H 0.50522 0.52227 0.7905 0.0
H1607 H 0.47564 0.51916 0.83596 0.0
H1608 H 0.46162 0.49956 0.01684 0.0
H1609 H 0.4908 0.49667 0.02331 0.0
C1610 C 0.51689 0.50449 0.93684 0.0
C1611 C 0.52922 0.50877 0.88754 0.0
C1612 C 0.50019 0.50628 0.93347 0.0
C1613 C 0.52485 0.51534 0.83514 0.0
C1614 C 0.50832 0.51731 0.83159 0.0
C1615 C 0.47891 0.51418 0.87674 0.0
C1616 C 0.4664 0.5095 0.92574 0.0
C1617 C 0.49579 0.51265 0.88031 0.0
C1618 C 0.47096 0.50322 0.97839 0.0
C1619 C 0.48768 0.5016 0.9822 0.0
loop_
_geom_bond_atom_site_label_1
_geom_bond_atom_site_label_2
_geom_bond_distance
_geom_bond_site_symmetry_2
_ccdc_geom_bond_type
C0 O1 1.160 . S
C0 O7 1.185 . S
O1 C0 1.160 . S
O2 Zn3 1.899 . S
O2 C10 1.284 . S
Zn3 O2 1.899 . S
Zn3 O4 2.032 . S
Zn3 O7 2.086 . S
Zn3 O12 1.977 . S
O4 Zn3 2.032 . S
O4 C8 1.278 . S
C5 O6 1.203 . S
C5 O12 1.267 . S
O6 C5 1.203 . S
O7 C0 1.185 . S
O7 Zn3 2.086 . S
C8 O4 1.278 . S
C8 O9 1.211 . S
O9 C8 1.211 . S
C10 O2 1.284 . S
C10 O11 1.273 . S
O11 C10 1.273 . S
O12 Zn3 1.977 . S
O12 C5 1.267 . S
C13 O14 1.160 . S
C13 O20 1.185 . S
O14 C13 1.160 . S
O15 Zn16 1.899 . S
O15 C23 1.284 . S
Zn16 O15 1.899 . S
Zn16 O17 2.032 . S
Zn16 O20 2.086 . S
Zn16 O25 1.977 . S
O17 Zn16 2.032 . S
O17 C21 1.278 . S
C18 O19 1.203 . S
C18 O25 1.267 . S
O19 C18 1.203 . S
O20 C13 1.185 . S
O20 Zn16 2.086 . S
C21 O17 1.278 . S
C21 O22 1.211 . S
O22 C21 1.211 . S
C23 O15 1.284 . S
C23 O24 1.273 . S
O24 C23 1.273 . S
O25 Zn16 1.977 . S
O25 C18 1.267 . S
C26 O27 1.160 . S
C26 O33 1.185 . S
O27 C26 1.160 . S
O28 Zn29 1.899 . S
O28 C36 1.284 . S
Zn29 O28 1.899 . S
Zn29 O30 2.032 . S
Zn29 O33 2.086 . S
Zn29 O38 1.977 . S
O30 Zn29 2.032 . S
O30 C34 1.278 . S
C31 O32 1.203 . S
C31 O38 1.267 . S
O32 C31 1.203 . S
O33 C26 1.185 . S
O33 Zn29 2.086 . S
C34 O30 1.278 . S
C34 O35 1.211 . S
O35 C34 1.211 . S
C36 O28 1.284 . S
C36 O37 1.273 . S
O37 C36 1.273 . S
O38 Zn29 1.977 . S
O38 C31 1.267 . S
C39 O40 1.160 . S
C39 O46 1.185 . S
O40 C39 1.160 . S
O41 Zn42 1.899 . S
O41 C49 1.284 . S
Zn42 O41 1.899 . S
Zn42 O43 2.032 . S
Zn42 O46 2.086 . S
Zn42 O51 1.977 . S
O43 Zn42 2.032 . S
O43 C47 1.278 . S
C44 O45 1.203 . S
C44 O51 1.267 . S
O45 C44 1.203 . S
O46 C39 1.185 . S
O46 Zn42 2.086 . S
C47 O43 1.278 . S
C47 O48 1.211 . S
O48 C47 1.211 . S
C49 O41 1.284 . S
C49 O50 1.273 . S
O50 C49 1.273 . S
O51 Zn42 1.977 . S
O51 C44 1.267 . S
C52 O53 1.160 . S
C52 O59 1.185 . S
O53 C52 1.160 . S
O54 Zn55 1.899 . S
O54 C62 1.284 . S
Zn55 O54 1.899 . S
Zn55 O56 2.032 . S
Zn55 O59 2.086 . S
Zn55 O64 1.977 . S
O56 Zn55 2.032 . S
O56 C60 1.278 . S
C57 O58 1.203 . S
C57 O64 1.267 . S
O58 C57 1.203 . S
O59 C52 1.185 . S
O59 Zn55 2.086 . S
C60 O56 1.278 . S
C60 O61 1.211 . S
O61 C60 1.211 . S
C62 O54 1.284 . S
C62 O63 1.273 . S
O63 C62 1.273 . S
O64 Zn55 1.977 . S
O64 C57 1.267 . S
C65 O66 1.160 . S
C65 O72 1.185 . S
O66 C65 1.160 . S
O67 Zn68 1.899 . S
O67 C75 1.284 . S
Zn68 O67 1.899 . S
Zn68 O69 2.032 . S
Zn68 O72 2.086 . S
Zn68 O77 1.977 . S
O69 Zn68 2.032 . S
O69 C73 1.278 . S
C70 O71 1.203 . S
C70 O77 1.267 . S
O71 C70 1.203 . S
O72 C65 1.185 . S
O72 Zn68 2.086 . S
C73 O69 1.278 . S
C73 O74 1.211 . S
O74 C73 1.211 . S
C75 O67 1.284 . S
C75 O76 1.273 . S
O76 C75 1.273 . S
O77 Zn68 1.977 . S
O77 C70 1.267 . S
C78 O79 1.160 . S
C78 O85 1.185 . S
O79 C78 1.160 . S
O80 Zn81 1.899 . S
O80 C88 1.284 . S
Zn81 O80 1.899 . S
Zn81 O82 2.032 . S
Zn81 O85 2.086 . S
Zn81 O90 1.977 . S
O82 Zn81 2.032 . S
O82 C86 1.278 . S
C83 O84 1.203 . S
C83 O90 1.267 . S
O84 C83 1.203 . S
O85 C78 1.185 . S
O85 Zn81 2.086 . S
C86 O82 1.278 . S
C86 O87 1.211 . S
O87 C86 1.211 . S
C88 O80 1.284 . S
C88 O89 1.273 . S
O89 C88 1.273 . S
O90 Zn81 1.977 . S
O90 C83 1.267 . S
C91 O92 1.160 . S
C91 O98 1.185 . S
O92 C91 1.160 . S
O93 Zn94 1.899 . S
O93 C101 1.284 . S
Zn94 O93 1.899 . S
Zn94 O95 2.032 . S
Zn94 O98 2.086 . S
Zn94 O103 1.977 . S
O95 Zn94 2.032 . S
O95 C99 1.278 . S
C96 O97 1.203 . S
C96 O103 1.267 . S
O97 C96 1.203 . S
O98 C91 1.185 . S
O98 Zn94 2.086 . S
C99 O95 1.278 . S
C99 O100 1.211 . S
O100 C99 1.211 . S
C101 O93 1.284 . S
C101 O102 1.273 . S
O102 C101 1.273 . S
O103 Zn94 1.977 . S
O103 C96 1.267 . S
C104 O105 1.160 . S
C104 O111 1.185 . S
O105 C104 1.160 . S
O106 Zn107 1.899 . S
O106 C114 1.284 . S
Zn107 O106 1.899 . S
Zn107 O108 2.032 . S
Zn107 O111 2.086 . S
Zn107 O116 1.977 . S
O108 Zn107 2.032 . S
O108 C112 1.278 . S
C109 O110 1.203 . S
C109 O116 1.267 . S
O110 C109 1.203 . S
O111 C104 1.185 . S
O111 Zn107 2.086 . S
C112 O108 1.278 . S
C112 O113 1.211 . S
O113 C112 1.211 . S
C114 O106 1.284 . S
C114 O115 1.273 . S
O115 C114 1.273 . S
O116 Zn107 1.977 . S
O116 C109 1.267 . S
C117 O118 1.160 . S
C117 O124 1.185 . S
O118 C117 1.160 . S
O119 Zn120 1.899 . S
O119 C127 1.284 . S
Zn120 O119 1.899 . S
Zn120 O121 2.032 . S
Zn120 O124 2.086 . S
Zn120 O129 1.977 . S
O121 Zn120 2.032 . S
O121 C125 1.278 . S
C122 O123 1.203 . S
C122 O129 1.267 . S
O123 C122 1.203 . S
O124 C117 1.185 . S
O124 Zn120 2.086 . S
C125 O121 1.278 . S
C125 O126 1.211 . S
O126 C125 1.211 . S
C127 O119 1.284 . S
C127 O128 1.273 . S
O128 C127 1.273 . S
O129 Zn120 1.977 . S
O129 C122 1.267 . S
C130 O131 1.160 . S
C130 O137 1.185 . S
O131 C130 1.160 . S
O132 Zn133 1.899 . S
O132 C140 1.284 . S
Zn133 O132 1.899 . S
Zn133 O134 2.032 . S
Zn133 O137 2.086 . S
Zn133 O142 1.977 . S
O134 Zn133 2.032 . S
O134 C138 1.278 . S
C135 O136 1.203 . S
C135 O142 1.267 . S
O136 C135 1.203 . S
O137 C130 1.185 . S
O137 Zn133 2.086 . S
C138 O134 1.278 . S
C138 O139 1.211 . S
O139 C138 1.211 . S
C140 O132 1.284 . S
C140 O141 1.273 . S
O141 C140 1.273 . S
O142 Zn133 1.977 . S
O142 C135 1.267 . S
C143 O144 1.160 . S
C143 O150 1.185 . S
O144 C143 1.160 . S
O145 Zn146 1.899 . S
O145 C153 1.284 . S
Zn146 O145 1.899 . S
Zn146 O147 2.032 . S
Zn146 O150 2.086 . S
Zn146 O155 1.977 . S
O147 Zn146 2.032 . S
O147 C151 1.278 . S
C148 O149 1.203 . S
C148 O155 1.267 . S
O149 C148 1.203 . S
O150 C143 1.185 . S
O150 Zn146 2.086 . S
C151 O147 1.278 . S
C151 O152 1.211 . S
O152 C151 1.211 . S
C153 O145 1.284 . S
C153 O154 1.273 . S
O154 C153 1.273 . S
O155 Zn146 1.977 . S
O155 C148 1.267 . S
C156 O157 1.160 . S
C156 O163 1.185 . S
O157 C156 1.160 . S
O158 Zn159 1.899 . S
O158 C166 1.284 . S
Zn159 O158 1.899 . S
Zn159 O160 2.032 . S
Zn159 O163 2.086 . S
Zn159 O168 1.977 . S
O160 Zn159 2.032 . S
O160 C164 1.278 . S
C161 O162 1.203 . S
C161 O168 1.267 . S
O162 C161 1.203 . S
O163 C156 1.185 . S
O163 Zn159 2.086 . S
C164 O160 1.278 . S
C164 O165 1.211 . S
O165 C164 1.211 . S
C166 O158 1.284 . S
C166 O167 1.273 . S
O167 C166 1.273 . S
O168 Zn159 1.977 . S
O168 C161 1.267 . S
C169 O170 1.160 . S
C169 O176 1.185 . S
O170 C169 1.160 . S
O171 Zn172 1.899 . S
O171 C179 1.284 . S
Zn172 O171 1.899 . S
Zn172 O173 2.032 . S
Zn172 O176 2.086 . S
Zn172 O181 1.977 . S
O173 Zn172 2.032 . S
O173 C177 1.278 . S
C174 O175 1.203 . S
C174 O181 1.267 . S
O175 C174 1.203 . S
O176 C169 1.185 . S
O176 Zn172 2.086 . S
C177 O173 1.278 . S
C177 O178 1.211 . S
O178 C177 1.211 . S
C179 O171 1.284 . S
C179 O180 1.273 . S
O180 C179 1.273 . S
O181 Zn172 1.977 . S
O181 C174 1.267 . S
C182 O183 1.160 . S
C182 O189 1.185 . S
O183 C182 1.160 . S
O184 Zn185 1.899 . S
O184 C192 1.284 . S
Zn185 O184 1.899 . S
Zn185 O186 2.032 . S
Zn185 O189 2.086 . S
Zn185 O194 1.977 . S
O186 Zn185 2.032 . S
O186 C190 1.278 . S
C187 O188 1.203 . S
C187 O194 1.267 . S
O188 C187 1.203 . S
O189 C182 1.185 . S
O189 Zn185 2.086 . S
C190 O186 1.278 . S
C190 O191 1.211 . S
O191 C190 1.211 . S
C192 O184 1.284 . S
C192 O193 1.273 . S
O193 C192 1.273 . S
O194 Zn185 1.977 . S
O194 C187 1.267 . S
C195 O196 1.160 . S
C195 O202 1.185 . S
O196 C195 1.160 . S
O197 Zn198 1.899 . S
O197 C205 1.284 . S
Zn198 O197 1.899 . S
Zn198 O199 2.032 . S
Zn198 O202 2.086 . S
Zn198 O207 1.977 . S
O199 Zn198 2.032 . S
O199 C203 1.278 . S
C200 O201 1.203 . S
C200 O207 1.267 . S
O201 C200 1.203 . S
O202 C195 1.185 . S
O202 Zn198 2.086 . S
C203 O199 1.278 . S
C203 O204 1.211 . S
O204 C203 1.211 . S
C205 O197 1.284 . S
C205 O206 1.273 . S
O206 C205 1.273 . S
O207 Zn198 1.977 . S
O207 C200 1.267 . S
C208 O209 1.160 . S
C208 O215 1.185 . S
O209 C208 1.160 . S
O210 Zn211 1.899 . S
O210 C218 1.284 . S
Zn211 O210 1.899 . S
Zn211 O212 2.032 . S
Zn211 O215 2.086 . S
Zn211 O220 1.977 . S
O212 Zn211 2.032 . S
O212 C216 1.278 . S
C213 O214 1.203 . S
C213 O220 1.267 . S
O214 C213 1.203 . S
O215 C208 1.185 . S
O215 Zn211 2.086 . S
C216 O212 1.278 . S
C216 O217 1.211 . S
O217 C216 1.211 . S
C218 O210 1.284 . S
C218 O219 1.273 . S
O219 C218 1.273 . S
O220 Zn211 1.977 . S
O220 C213 1.267 . S
C221 O222 1.160 . S
C221 O228 1.185 . S
O222 C221 1.160 . S
O223 Zn224 1.899 . S
O223 C231 1.284 . S
Zn224 O223 1.899 . S
Zn224 O225 2.032 . S
Zn224 O228 2.086 . S
Zn224 O233 1.977 . S
O225 Zn224 2.032 . S
O225 C229 1.278 . S
C226 O227 1.203 . S
C226 O233 1.267 . S
O227 C226 1.203 . S
O228 C221 1.185 . S
O228 Zn224 2.086 . S
C229 O225 1.278 . S
C229 O230 1.211 . S
O230 C229 1.211 . S
C231 O223 1.284 . S
C231 O232 1.273 . S
O232 C231 1.273 . S
O233 Zn224 1.977 . S
O233 C226 1.267 . S
C234 O235 1.160 . S
C234 O241 1.185 . S
O235 C234 1.160 . S
O236 Zn237 1.899 . S
O236 C244 1.284 . S
Zn237 O236 1.899 . S
Zn237 O238 2.032 . S
Zn237 O241 2.086 . S
Zn237 O246 1.977 . S
O238 Zn237 2.032 . S
O238 C242 1.278 . S
C239 O240 1.203 . S
C239 O246 1.267 . S
O240 C239 1.203 . S
O241 C234 1.185 . S
O241 Zn237 2.086 . S
C242 O238 1.278 . S
C242 O243 1.211 . S
O243 C242 1.211 . S
C244 O236 1.284 . S
C244 O245 1.273 . S
O245 C244 1.273 . S
O246 Zn237 1.977 . S
O246 C239 1.267 . S
C247 O248 1.160 . S
C247 O254 1.185 . S
O248 C247 1.160 . S
O249 Zn250 1.899 . S
O249 C257 1.284 . S
Zn250 O249 1.899 . S
Zn250 O251 2.032 . S
Zn250 O254 2.086 . S
Zn250 O259 1.977 . S
O251 Zn250 2.032 . S
O251 C255 1.278 . S
C252 O253 1.203 . S
C252 O259 1.267 . S
O253 C252 1.203 . S
O254 C247 1.185 . S
O254 Zn250 2.086 . S
C255 O251 1.278 . S
C255 O256 1.211 . S
O256 C255 1.211 . S
C257 O249 1.284 . S
C257 O258 1.273 . S
O258 C257 1.273 . S
O259 Zn250 1.977 . S
O259 C252 1.267 . S
C260 O261 1.160 . S
C260 O267 1.185 . S
O261 C260 1.160 . S
O262 Zn263 1.899 . S
O262 C270 1.284 . S
Zn263 O262 1.899 . S
Zn263 O264 2.032 . S
Zn263 O267 2.086 . S
Zn263 O272 1.977 . S
O264 Zn263 2.032 . S
O264 C268 1.278 . S
C265 O266 1.203 . S
C265 O272 1.267 . S
O266 C265 1.203 . S
O267 C260 1.185 . S
O267 Zn263 2.086 . S
C268 O264 1.278 . S
C268 O269 1.211 . S
O269 C268 1.211 . S
C270 O262 1.284 . S
C270 O271 1.273 . S
O271 C270 1.273 . S
O272 Zn263 1.977 . S
O272 C265 1.267 . S
C273 O274 1.160 . S
C273 O280 1.185 . S
O274 C273 1.160 . S
O275 Zn276 1.899 1_556 S
O275 C283 1.284 . S
Zn276 O275 1.899 1_554 S
Zn276 O277 2.032 . S
Zn276 O280 2.086 . S
Zn276 O285 1.977 . S
O277 Zn276 2.032 . S
O277 C281 1.278 . S
C278 O279 1.203 1_554 S
C278 O285 1.267 . S
O279 C278 1.203 1_556 S
O280 C273 1.185 . S
O280 Zn276 2.086 . S
C281 O277 1.278 . S
C281 O282 1.211 . S
O282 C281 1.211 . S
C283 O275 1.284 . S
C283 O284 1.273 . S
O284 C283 1.273 . S
O285 Zn276 1.977 . S
O285 C278 1.267 . S
C286 O287 1.160 . S
C286 O293 1.185 . S
O287 C286 1.160 . S
O288 Zn289 1.899 1_556 S
O288 C296 1.284 . S
Zn289 O288 1.899 1_554 S
Zn289 O290 2.032 . S
Zn289 O293 2.086 . S
Zn289 O298 1.977 . S
O290 Zn289 2.032 . S
O290 C294 1.278 . S
C291 O292 1.203 1_554 S
C291 O298 1.267 . S
O292 C291 1.203 1_556 S
O293 C286 1.185 . S
O293 Zn289 2.086 . S
C294 O290 1.278 . S
C294 O295 1.211 . S
O295 C294 1.211 . S
C296 O288 1.284 . S
C296 O297 1.273 . S
O297 C296 1.273 . S
O298 Zn289 1.977 . S
O298 C291 1.267 . S
C299 O300 1.160 . S
C299 O306 1.185 . S
O300 C299 1.160 . S
O301 Zn302 1.899 1_556 S
O301 C309 1.284 . S
Zn302 O301 1.899 1_554 S
Zn302 O303 2.032 . S
Zn302 O306 2.086 . S
Zn302 O311 1.977 . S
O303 Zn302 2.032 . S
O303 C307 1.278 . S
C304 O305 1.203 1_554 S
C304 O311 1.267 . S
O305 C304 1.203 1_556 S
O306 C299 1.185 . S
O306 Zn302 2.086 . S
C307 O303 1.278 . S
C307 O308 1.211 . S
O308 C307 1.211 . S
C309 O301 1.284 . S
C309 O310 1.273 . S
O310 C309 1.273 . S
O311 Zn302 1.977 . S
O311 C304 1.267 . S
C312 O313 1.160 . S
C312 O319 1.185 . S
O313 C312 1.160 . S
O314 Zn315 1.899 . S
O314 C322 1.284 . S
Zn315 O314 1.899 . S
Zn315 O316 2.032 . S
Zn315 O319 2.086 . S
Zn315 O324 1.977 . S
O316 Zn315 2.032 . S
O316 C320 1.278 . S
C317 O318 1.203 . S
C317 O324 1.267 . S
O318 C317 1.203 . S
O319 C312 1.185 . S
O319 Zn315 2.086 . S
C320 O316 1.278 . S
C320 O321 1.211 . S
O321 C320 1.211 . S
C322 O314 1.284 . S
C322 O323 1.273 . S
O323 C322 1.273 . S
O324 Zn315 1.977 . S
O324 C317 1.267 . S
C325 O326 1.160 . S
C325 O332 1.185 . S
O326 C325 1.160 . S
O327 Zn328 1.899 . S
O327 C335 1.284 . S
Zn328 O327 1.899 . S
Zn328 O329 2.032 . S
Zn328 O332 2.086 . S
Zn328 O337 1.977 . S
O329 Zn328 2.032 . S
O329 C333 1.278 . S
C330 O331 1.203 . S
C330 O337 1.267 . S
O331 C330 1.203 . S
O332 C325 1.185 . S
O332 Zn328 2.086 . S
C333 O329 1.278 . S
C333 O334 1.211 . S
O334 C333 1.211 . S
C335 O327 1.284 . S
C335 O336 1.273 . S
O336 C335 1.273 . S
O337 Zn328 1.977 . S
O337 C330 1.267 . S
C338 O339 1.160 . S
C338 O345 1.185 . S
O339 C338 1.160 . S
O340 Zn341 1.899 . S
O340 C348 1.284 . S
Zn341 O340 1.899 . S
Zn341 O342 2.032 . S
Zn341 O345 2.086 . S
Zn341 O350 1.977 . S
O342 Zn341 2.032 . S
O342 C346 1.278 . S
C343 O344 1.203 . S
C343 O350 1.267 . S
O344 C343 1.203 . S
O345 C338 1.185 . S
O345 Zn341 2.086 . S
C346 O342 1.278 . S
C346 O347 1.211 . S
O347 C346 1.211 . S
C348 O340 1.284 . S
C348 O349 1.273 . S
O349 C348 1.273 . S
O350 Zn341 1.977 . S
O350 C343 1.267 . S
C351 O352 1.160 . S
C351 O358 1.185 . S
O352 C351 1.160 . S
O353 Zn354 1.899 1_554 S
O353 C361 1.284 . S
Zn354 O353 1.899 1_556 S
Zn354 O355 2.032 . S
Zn354 O358 2.086 . S
Zn354 O363 1.977 . S
O355 Zn354 2.032 . S
O355 C359 1.278 . S
C356 O357 1.203 1_556 S
C356 O363 1.267 . S
O357 C356 1.203 1_554 S
O358 C351 1.185 . S
O358 Zn354 2.086 . S
C359 O355 1.278 . S
C359 O360 1.211 . S
O360 C359 1.211 . S
C361 O353 1.284 . S
C361 O362 1.273 . S
O362 C361 1.273 . S
O363 Zn354 1.977 . S
O363 C356 1.267 . S
C364 O365 1.160 . S
C364 O371 1.185 . S
O365 C364 1.160 . S
O366 Zn367 1.899 1_554 S
O366 C374 1.284 . S
Zn367 O366 1.899 1_556 S
Zn367 O368 2.032 . S
Zn367 O371 2.086 . S
Zn367 O376 1.977 . S
O368 Zn367 2.032 . S
O368 C372 1.278 . S
C369 O370 1.203 1_556 S
C369 O376 1.267 . S
O370 C369 1.203 1_554 S
O371 C364 1.185 . S
O371 Zn367 2.086 . S
C372 O368 1.278 . S
C372 O373 1.211 . S
O373 C372 1.211 . S
C374 O366 1.284 . S
C374 O375 1.273 . S
O375 C374 1.273 . S
O376 Zn367 1.977 . S
O376 C369 1.267 . S
C377 O378 1.160 . S
C377 O384 1.185 . S
O378 C377 1.160 . S
O379 Zn380 1.899 1_554 S
O379 C387 1.284 . S
Zn380 O379 1.899 1_556 S
Zn380 O381 2.032 . S
Zn380 O384 2.086 . S
Zn380 O389 1.977 . S
O381 Zn380 2.032 . S
O381 C385 1.278 . S
C382 O383 1.203 1_556 S
C382 O389 1.267 . S
O383 C382 1.203 1_554 S
O384 C377 1.185 . S
O384 Zn380 2.086 . S
C385 O381 1.278 . S
C385 O386 1.211 . S
O386 C385 1.211 . S
C387 O379 1.284 . S
C387 O388 1.273 . S
O388 C387 1.273 . S
O389 Zn380 1.977 . S
O389 C382 1.267 . S
C390 O391 1.160 . S
C390 O397 1.185 . S
O391 C390 1.160 . S
O392 Zn393 1.899 . S
O392 C400 1.284 . S
Zn393 O392 1.899 . S
Zn393 O394 2.032 . S
Zn393 O397 2.086 . S
Zn393 O402 1.977 . S
O394 Zn393 2.032 . S
O394 C398 1.278 . S
C395 O396 1.203 . S
C395 O402 1.267 . S
O396 C395 1.203 . S
O397 C390 1.185 . S
O397 Zn393 2.086 . S
C398 O394 1.278 . S
C398 O399 1.211 . S
O399 C398 1.211 . S
C400 O392 1.284 . S
C400 O401 1.273 . S
O401 C400 1.273 . S
O402 Zn393 1.977 . S
O402 C395 1.267 . S
C403 O404 1.160 . S
C403 O410 1.185 . S
O404 C403 1.160 . S
O405 Zn406 1.899 . S
O405 C413 1.284 . S
Zn406 O405 1.899 . S
Zn406 O407 2.032 . S
Zn406 O410 2.086 . S
Zn406 O415 1.977 . S
O407 Zn406 2.032 . S
O407 C411 1.278 . S
C408 O409 1.203 . S
C408 O415 1.267 . S
O409 C408 1.203 . S
O410 C403 1.185 . S
O410 Zn406 2.086 . S
C411 O407 1.278 . S
C411 O412 1.211 . S
O412 C411 1.211 . S
C413 O405 1.284 . S
C413 O414 1.273 . S
O414 C413 1.273 . S
O415 Zn406 1.977 . S
O415 C408 1.267 . S
C416 O417 1.160 . S
C416 O423 1.185 . S
O417 C416 1.160 . S
O418 Zn419 1.899 . S
O418 C426 1.284 . S
Zn419 O418 1.899 . S
Zn419 O420 2.032 . S
Zn419 O423 2.086 . S
Zn419 O428 1.977 . S
O420 Zn419 2.032 . S
O420 C424 1.278 . S
C421 O422 1.203 . S
C421 O428 1.267 . S
O422 C421 1.203 . S
O423 C416 1.185 . S
O423 Zn419 2.086 . S
C424 O420 1.278 . S
C424 O425 1.211 . S
O425 C424 1.211 . S
C426 O418 1.284 . S
C426 O427 1.273 . S
O427 C426 1.273 . S
O428 Zn419 1.977 . S
O428 C421 1.267 . S
C429 O430 1.160 . S
C429 O436 1.185 . S
O430 C429 1.160 . S
O431 Zn432 1.899 . S
O431 C439 1.284 . S
Zn432 O431 1.899 . S
Zn432 O433 2.032 . S
Zn432 O436 2.086 . S
Zn432 O441 1.977 . S
O433 Zn432 2.032 . S
O433 C437 1.278 . S
C434 O435 1.203 . S
C434 O441 1.267 . S
O435 C434 1.203 . S
O436 C429 1.185 . S
O436 Zn432 2.086 . S
C437 O433 1.278 . S
C437 O438 1.211 . S
O438 C437 1.211 . S
C439 O431 1.284 . S
C439 O440 1.273 . S
O440 C439 1.273 . S
O441 Zn432 1.977 . S
O441 C434 1.267 . S
C442 O443 1.160 . S
C442 O449 1.185 . S
O443 C442 1.160 . S
O444 Zn445 1.899 . S
O444 C452 1.284 . S
Zn445 O444 1.899 . S
Zn445 O446 2.032 . S
Zn445 O449 2.086 . S
Zn445 O454 1.977 . S
O446 Zn445 2.032 . S
O446 C450 1.278 . S
C447 O448 1.203 . S
C447 O454 1.267 . S
O448 C447 1.203 . S
O449 C442 1.185 . S
O449 Zn445 2.086 . S
C450 O446 1.278 . S
C450 O451 1.211 . S
O451 C450 1.211 . S
C452 O444 1.284 . S
C452 O453 1.273 . S
O453 C452 1.273 . S
O454 Zn445 1.977 . S
O454 C447 1.267 . S
C455 O456 1.160 . S
C455 O462 1.185 . S
O456 C455 1.160 . S
O457 Zn458 1.899 . S
O457 C465 1.284 . S
Zn458 O457 1.899 . S
Zn458 O459 2.032 . S
Zn458 O462 2.086 . S
Zn458 O467 1.977 . S
O459 Zn458 2.032 . S
O459 C463 1.278 . S
C460 O461 1.203 . S
C460 O467 1.267 . S
O461 C460 1.203 . S
O462 C455 1.185 . S
O462 Zn458 2.086 . S
C463 O459 1.278 . S
C463 O464 1.211 . S
O464 C463 1.211 . S
C465 O457 1.284 . S
C465 O466 1.273 . S
O466 C465 1.273 . S
O467 Zn458 1.977 . S
O467 C460 1.267 . S
H468 C474 0.930 . S
H469 C477 0.930 . S
H470 C478 0.930 . S
H471 C479 0.930 . S
H472 C482 0.930 . S
H473 C483 0.930 . S
C474 H468 0.930 . S
C474 C475 1.355 . S
C474 C476 1.415 . S
C475 C474 1.355 . S
C475 C477 1.419 . S
C476 C474 1.415 . S
C476 C481 1.425 . S
C476 C483 1.409 . S
C477 H469 0.930 . S
C477 C475 1.419 . S
C477 C478 1.362 . S
C478 H470 0.930 . S
C478 C477 1.362 . S
C478 C481 1.409 . S
C479 H471 0.930 . S
C479 C480 1.355 . S
C479 C481 1.415 1_554 S
C480 C479 1.355 . S
C480 C482 1.419 . S
C481 C476 1.425 . S
C481 C478 1.409 . S
C481 C479 1.415 1_556 S
C482 H472 0.930 . S
C482 C480 1.419 . S
C482 C483 1.362 1_554 S
C483 H473 0.930 . S
C483 C476 1.409 . S
C483 C482 1.362 1_556 S
H484 C490 0.930 . S
H485 C493 0.930 . S
H486 C494 0.930 . S
H487 C495 0.930 . S
H488 C498 0.930 . S
H489 C499 0.930 . S
C490 H484 0.930 . S
C490 C491 1.355 . S
C490 C492 1.415 . S
C491 C490 1.355 . S
C491 C493 1.419 . S
C492 C490 1.415 . S
C492 C497 1.425 . S
C492 C499 1.409 . S
C493 H485 0.930 . S
C493 C491 1.419 . S
C493 C494 1.362 . S
C494 H486 0.930 . S
C494 C493 1.362 . S
C494 C497 1.409 . S
C495 H487 0.930 . S
C495 C496 1.355 . S
C495 C497 1.415 1_554 S
C496 C495 1.355 . S
C496 C498 1.419 . S
C497 C492 1.425 . S
C497 C494 1.409 . S
C497 C495 1.415 1_556 S
C498 H488 0.930 . S
C498 C496 1.419 . S
C498 C499 1.362 1_554 S
C499 H489 0.930 . S
C499 C492 1.409 . S
C499 C498 1.362 1_556 S
H500 C506 0.930 . S
H501 C509 0.930 . S
H502 C510 0.930 . S
H503 C511 0.930 . S
H504 C514 0.930 . S
H505 C515 0.930 . S
C506 H500 0.930 . S
C506 C507 1.355 . S
C506 C508 1.415 1_554 S
C507 C506 1.355 . S
C507 C509 1.419 . S
C508 C506 1.415 1_556 S
C508 C513 1.425 . S
C508 C515 1.409 . S
C509 H501 0.930 . S
C509 C507 1.419 . S
C509 C510 1.362 1_554 S
C510 H502 0.930 . S
C510 C509 1.362 1_556 S
C510 C513 1.409 . S
C511 H503 0.930 . S
C511 C512 1.355 . S
C511 C513 1.415 . S
C512 C511 1.355 . S
C512 C514 1.419 . S
C513 C508 1.425 . S
C513 C510 1.409 . S
C513 C511 1.415 . S
C514 H504 0.930 . S
C514 C512 1.419 . S
C514 C515 1.362 . S
C515 H505 0.930 . S
C515 C508 1.409 . S
C515 C514 1.362 . S
H516 C522 0.930 . S
H517 C525 0.930 . S
H518 C526 0.930 . S
H519 C527 0.930 . S
H520 C530 0.930 . S
H521 C531 0.930 . S
C522 H516 0.930 . S
C522 C523 1.355 . S
C522 C524 1.415 . S
C523 C522 1.355 . S
C523 C525 1.419 . S
C524 C522 1.415 . S
C524 C529 1.425 . S
C524 C531 1.409 . S
C525 H517 0.930 . S
C525 C523 1.419 . S
C525 C526 1.362 . S
C526 H518 0.930 . S
C526 C525 1.362 . S
C526 C529 1.409 . S
C527 H519 0.930 . S
C527 C528 1.355 . S
C527 C529 1.415 . S
C528 C527 1.355 . S
C528 C530 1.419 . S
C529 C524 1.425 . S
C529 C526 1.409 . S
C529 C527 1.415 . S
C530 H520 0.930 . S
C530 C528 1.419 . S
C530 C531 1.362 . S
C531 H521 0.930 . S
C531 C524 1.409 . S
C531 C530 1.362 . S
H532 C538 0.930 . S
H533 C541 0.930 . S
H534 C542 0.930 . S
H535 C543 0.930 . S
H536 C546 0.930 . S
H537 C547 0.930 . S
C538 H532 0.930 . S
C538 C539 1.355 . S
C538 C540 1.415 . S
C539 C538 1.355 . S
C539 C541 1.419 . S
C540 C538 1.415 . S
C540 C545 1.425 . S
C540 C547 1.409 . S
C541 H533 0.930 . S
C541 C539 1.419 . S
C541 C542 1.362 . S
C542 H534 0.930 . S
C542 C541 1.362 . S
C542 C545 1.409 . S
C543 H535 0.930 . S
C543 C544 1.355 . S
C543 C545 1.415 . S
C544 C543 1.355 . S
C544 C546 1.419 . S
C545 C540 1.425 . S
C545 C542 1.409 . S
C545 C543 1.415 . S
C546 H536 0.930 . S
C546 C544 1.419 . S
C546 C547 1.362 . S
C547 H537 0.930 . S
C547 C540 1.409 . S
C547 C546 1.362 . S
H548 C554 0.930 . S
H549 C557 0.930 . S
H550 C558 0.930 . S
H551 C559 0.930 . S
H552 C562 0.930 . S
H553 C563 0.930 . S
C554 H548 0.930 . S
C554 C555 1.355 . S
C554 C556 1.415 . S
C555 C554 1.355 . S
C555 C557 1.419 . S
C556 C554 1.415 . S
C556 C561 1.425 . S
C556 C563 1.409 . S
C557 H549 0.930 . S
C557 C555 1.419 . S
C557 C558 1.362 . S
C558 H550 0.930 . S
C558 C557 1.362 . S
C558 C561 1.409 . S
C559 H551 0.930 . S
C559 C560 1.355 . S
C559 C561 1.415 . S
C560 C559 1.355 . S
C560 C562 1.419 . S
C561 C556 1.425 . S
C561 C558 1.409 . S
C561 C559 1.415 . S
C562 H552 0.930 . S
C562 C560 1.419 . S
C562 C563 1.362 . S
C563 H553 0.930 . S
C563 C556 1.409 . S
C563 C562 1.362 . S
H564 C570 0.930 . S
H565 C573 0.930 . S
H566 C574 0.930 . S
H567 C575 0.930 . S
H568 C578 0.930 . S
H569 C579 0.930 . S
C570 H564 0.930 . S
C570 C571 1.355 . S
C570 C572 1.415 . S
C571 C570 1.355 . S
C571 C573 1.419 . S
C572 C570 1.415 . S
C572 C577 1.425 . S
C572 C579 1.409 . S
C573 H565 0.930 . S
C573 C571 1.419 . S
C573 C574 1.362 . S
C574 H566 0.930 . S
C574 C573 1.362 . S
C574 C577 1.409 . S
C575 H567 0.930 . S
C575 C576 1.355 . S
C575 C577 1.415 1_556 S
C576 C575 1.355 . S
C576 C578 1.419 . S
C577 C572 1.425 . S
C577 C574 1.409 . S
C577 C575 1.415 1_554 S
C578 H568 0.930 . S
C578 C576 1.419 . S
C578 C579 1.362 1_556 S
C579 H569 0.930 . S
C579 C572 1.409 . S
C579 C578 1.362 1_554 S
H580 C586 0.930 . S
H581 C589 0.930 . S
H582 C590 0.930 . S
H583 C591 0.930 . S
H584 C594 0.930 . S
H585 C595 0.930 . S
C586 H580 0.930 . S
C586 C587 1.355 . S
C586 C588 1.415 . S
C587 C586 1.355 . S
C587 C589 1.419 . S
C588 C586 1.415 . S
C588 C593 1.425 . S
C588 C595 1.409 . S
C589 H581 0.930 . S
C589 C587 1.419 . S
C589 C590 1.362 . S
C590 H582 0.930 . S
C590 C589 1.362 . S
C590 C593 1.409 . S
C591 H583 0.930 . S
C591 C592 1.355 . S
C591 C593 1.415 1_556 S
C592 C591 1.355 . S
C592 C594 1.419 . S
C593 C588 1.425 . S
C593 C590 1.409 . S
C593 C591 1.415 1_554 S
C594 H584 0.930 . S
C594 C592 1.419 . S
C594 C595 1.362 1_556 S
C595 H585 0.930 . S
C595 C588 1.409 . S
C595 C594 1.362 1_554 S
H596 C602 0.930 . S
H597 C605 0.930 . S
H598 C606 0.930 . S
H599 C607 0.930 . S
H600 C610 0.930 . S
H601 C611 0.930 . S
C602 H596 0.930 . S
C602 C603 1.355 . S
C602 C604 1.415 1_556 S
C603 C602 1.355 . S
C603 C605 1.419 . S
C604 C602 1.415 1_554 S
C604 C609 1.425 . S
C604 C611 1.409 . S
C605 H597 0.930 . S
C605 C603 1.419 . S
C605 C606 1.362 1_556 S
C606 H598 0.930 . S
C606 C605 1.362 1_554 S
C606 C609 1.409 . S
C607 H599 0.930 . S
C607 C608 1.355 . S
C607 C609 1.415 . S
C608 C607 1.355 . S
C608 C610 1.419 . S
C609 C604 1.425 . S
C609 C606 1.409 . S
C609 C607 1.415 . S
C610 H600 0.930 . S
C610 C608 1.419 . S
C610 C611 1.362 . S
C611 H601 0.930 . S
C611 C604 1.409 . S
C611 C610 1.362 . S
H612 C618 0.930 . S
H613 C621 0.930 . S
H614 C622 0.930 . S
H615 C623 0.930 . S
H616 C626 0.930 . S
H617 C627 0.930 . S
C618 H612 0.930 . S
C618 C619 1.355 . S
C618 C620 1.415 . S
C619 C618 1.355 . S
C619 C621 1.419 . S
C620 C618 1.415 . S
C620 C625 1.425 . S
C620 C627 1.409 . S
C621 H613 0.930 . S
C621 C619 1.419 . S
C621 C622 1.362 . S
C622 H614 0.930 . S
C622 C621 1.362 . S
C622 C625 1.409 . S
C623 H615 0.930 . S
C623 C624 1.355 . S
C623 C625 1.415 . S
C624 C623 1.355 . S
C624 C626 1.419 . S
C625 C620 1.425 . S
C625 C622 1.409 . S
C625 C623 1.415 . S
C626 H616 0.930 . S
C626 C624 1.419 . S
C626 C627 1.362 . S
C627 H617 0.930 . S
C627 C620 1.409 . S
C627 C626 1.362 . S
H628 C634 0.930 . S
H629 C637 0.930 . S
H630 C638 0.930 . S
H631 C639 0.930 . S
H632 C642 0.930 . S
H633 C643 0.930 . S
C634 H628 0.930 . S
C634 C635 1.355 . S
C634 C636 1.415 . S
C635 C634 1.355 . S
C635 C637 1.419 . S
C636 C634 1.415 . S
C636 C641 1.425 . S
C636 C643 1.409 . S
C637 H629 0.930 . S
C637 C635 1.419 . S
C637 C638 1.362 . S
C638 H630 0.930 . S
C638 C637 1.362 . S
C638 C641 1.409 . S
C639 H631 0.930 . S
C639 C640 1.355 . S
C639 C641 1.415 . S
C640 C639 1.355 . S
C640 C642 1.419 . S
C641 C636 1.425 . S
C641 C638 1.409 . S
C641 C639 1.415 . S
C642 H632 0.930 . S
C642 C640 1.419 . S
C642 C643 1.362 . S
C643 H633 0.930 . S
C643 C636 1.409 . S
C643 C642 1.362 . S
H644 C650 0.930 . S
H645 C653 0.930 . S
H646 C654 0.930 . S
H647 C655 0.930 . S
H648 C658 0.930 . S
H649 C659 0.930 . S
C650 H644 0.930 . S
C650 C651 1.355 . S
C650 C652 1.415 . S
C651 C650 1.355 . S
C651 C653 1.419 . S
C652 C650 1.415 . S
C652 C657 1.425 . S
C652 C659 1.409 . S
C653 H645 0.930 . S
C653 C651 1.419 . S
C653 C654 1.362 . S
C654 H646 0.930 . S
C654 C653 1.362 . S
C654 C657 1.409 . S
C655 H647 0.930 . S
C655 C656 1.355 . S
C655 C657 1.415 . S
C656 C655 1.355 . S
C656 C658 1.419 . S
C657 C652 1.425 . S
C657 C654 1.409 . S
C657 C655 1.415 . S
C658 H648 0.930 . S
C658 C656 1.419 . S
C658 C659 1.362 . S
C659 H649 0.930 . S
C659 C652 1.409 . S
C659 C658 1.362 . S
H660 C666 0.930 . S
H661 C669 0.930 . S
H662 C670 0.930 . S
H663 C671 0.930 . S
H664 C674 0.930 . S
H665 C675 0.930 . S
C666 H660 0.930 . S
C666 C667 1.355 . S
C666 C668 1.415 . S
C667 C666 1.355 . S
C667 C669 1.419 . S
C668 C666 1.415 . S
C668 C673 1.425 . S
C668 C675 1.409 . S
C669 H661 0.930 . S
C669 C667 1.419 . S
C669 C670 1.362 . S
C670 H662 0.930 . S
C670 C669 1.362 . S
C670 C673 1.409 . S
C671 H663 0.930 . S
C671 C672 1.355 . S
C671 C673 1.415 . S
C672 C671 1.355 . S
C672 C674 1.419 . S
C673 C668 1.425 . S
C673 C670 1.409 . S
C673 C671 1.415 . S
C674 H664 0.930 . S
C674 C672 1.419 . S
C674 C675 1.362 . S
C675 H665 0.930 . S
C675 C668 1.409 . S
C675 C674 1.362 . S
H676 C682 0.930 . S
H677 C685 0.930 . S
H678 C686 0.930 . S
H679 C687 0.930 . S
H680 C690 0.930 . S
H681 C691 0.930 . S
C682 H676 0.930 . S
C682 C683 1.355 . S
C682 C684 1.415 . S
C683 C682 1.355 . S
C683 C685 1.419 . S
C684 C682 1.415 . S
C684 C689 1.425 . S
C684 C691 1.409 . S
C685 H677 0.930 . S
C685 C683 1.419 . S
C685 C686 1.362 . S
C686 H678 0.930 . S
C686 C685 1.362 . S
C686 C689 1.409 . S
C687 H679 0.930 . S
C687 C688 1.355 . S
C687 C689 1.415 . S
C688 C687 1.355 . S
C688 C690 1.419 . S
C689 C684 1.425 . S
C689 C686 1.409 . S
C689 C687 1.415 . S
C690 H680 0.930 . S
C690 C688 1.419 . S
C690 C691 1.362 . S
C691 H681 0.930 . S
C691 C684 1.409 . S
C691 C690 1.362 . S
H692 C698 0.930 . S
H693 C701 0.930 . S
H694 C702 0.930 . S
H695 C703 0.930 . S
H696 C706 0.930 . S
H697 C707 0.930 . S
C698 H692 0.930 . S
C698 C699 1.355 . S
C698 C700 1.415 . S
C699 C698 1.355 . S
C699 C701 1.419 . S
C700 C698 1.415 . S
C700 C705 1.425 . S
C700 C707 1.409 . S
C701 H693 0.930 . S
C701 C699 1.419 . S
C701 C702 1.362 . S
C702 H694 0.930 . S
C702 C701 1.362 . S
C702 C705 1.409 . S
C703 H695 0.930 . S
C703 C704 1.355 . S
C703 C705 1.415 . S
C704 C703 1.355 . S
C704 C706 1.419 . S
C705 C700 1.425 . S
C705 C702 1.409 . S
C705 C703 1.415 . S
C706 H696 0.930 . S
C706 C704 1.419 . S
C706 C707 1.362 . S
C707 H697 0.930 . S
C707 C700 1.409 . S
C707 C706 1.362 . S
H708 C714 0.930 . S
H709 C717 0.930 . S
H710 C718 0.930 . S
H711 C719 0.930 . S
H712 C722 0.930 . S
H713 C723 0.930 . S
C714 H708 0.930 . S
C714 C715 1.355 . S
C714 C716 1.415 . S
C715 C714 1.355 . S
C715 C717 1.419 . S
C716 C714 1.415 . S
C716 C721 1.425 . S
C716 C723 1.409 . S
C717 H709 0.930 . S
C717 C715 1.419 . S
C717 C718 1.362 . S
C718 H710 0.930 . S
C718 C717 1.362 . S
C718 C721 1.409 . S
C719 H711 0.930 . S
C719 C720 1.355 . S
C719 C721 1.415 . S
C720 C719 1.355 . S
C720 C722 1.419 . S
C721 C716 1.425 . S
C721 C718 1.409 . S
C721 C719 1.415 . S
C722 H712 0.930 . S
C722 C720 1.419 . S
C722 C723 1.362 . S
C723 H713 0.930 . S
C723 C716 1.409 . S
C723 C722 1.362 . S
H724 C730 0.930 . S
H725 C733 0.930 . S
H726 C734 0.930 . S
H727 C735 0.930 . S
H728 C738 0.930 . S
H729 C739 0.930 . S
C730 H724 0.930 . S
C730 C731 1.355 . S
C730 C732 1.415 . S
C731 C730 1.355 . S
C731 C733 1.419 . S
C732 C730 1.415 . S
C732 C737 1.425 . S
C732 C739 1.409 . S
C733 H725 0.930 . S
C733 C731 1.419 . S
C733 C734 1.362 . S
C734 H726 0.930 . S
C734 C733 1.362 . S
C734 C737 1.409 . S
C735 H727 0.930 . S
C735 C736 1.355 . S
C735 C737 1.415 . S
C736 C735 1.355 . S
C736 C738 1.419 . S
C737 C732 1.425 . S
C737 C734 1.409 . S
C737 C735 1.415 . S
C738 H728 0.930 . S
C738 C736 1.419 . S
C738 C739 1.362 . S
C739 H729 0.930 . S
C739 C732 1.409 . S
C739 C738 1.362 . S
H740 C746 0.930 . S
H741 C749 0.930 . S
H742 C750 0.930 . S
H743 C751 0.930 . S
H744 C754 0.930 . S
H745 C755 0.930 . S
C746 H740 0.930 . S
C746 C747 1.355 . S
C746 C748 1.415 . S
C747 C746 1.355 . S
C747 C749 1.419 . S
C748 C746 1.415 . S
C748 C753 1.425 . S
C748 C755 1.409 . S
C749 H741 0.930 . S
C749 C747 1.419 . S
C749 C750 1.362 . S
C750 H742 0.930 . S
C750 C749 1.362 . S
C750 C753 1.409 . S
C751 H743 0.930 . S
C751 C752 1.355 . S
C751 C753 1.415 . S
C752 C751 1.355 . S
C752 C754 1.419 . S
C753 C748 1.425 . S
C753 C750 1.409 . S
C753 C751 1.415 . S
C754 H744 0.930 . S
C754 C752 1.419 . S
C754 C755 1.362 . S
C755 H745 0.930 . S
C755 C748 1.409 . S
C755 C754 1.362 . S
H756 C762 0.930 . S
H757 C765 0.930 . S
H758 C766 0.930 . S
H759 C767 0.930 . S
H760 C770 0.930 . S
H761 C771 0.930 . S
C762 H756 0.930 . S
C762 C763 1.355 . S
C762 C764 1.415 . S
C763 C762 1.355 . S
C763 C765 1.419 . S
C764 C762 1.415 . S
C764 C769 1.425 . S
C764 C771 1.409 . S
C765 H757 0.930 . S
C765 C763 1.419 . S
C765 C766 1.362 . S
C766 H758 0.930 . S
C766 C765 1.362 . S
C766 C769 1.409 . S
C767 H759 0.930 . S
C767 C768 1.355 . S
C767 C769 1.415 . S
C768 C767 1.355 . S
C768 C770 1.419 . S
C769 C764 1.425 . S
C769 C766 1.409 . S
C769 C767 1.415 . S
C770 H760 0.930 . S
C770 C768 1.419 . S
C770 C771 1.362 . S
C771 H761 0.930 . S
C771 C764 1.409 . S
C771 C770 1.362 . S
H772 C778 0.930 . S
H773 C781 0.930 . S
H774 C782 0.930 . S
H775 C783 0.930 . S
H776 C786 0.930 . S
H777 C787 0.930 . S
C778 H772 0.930 . S
C778 C779 1.355 . S
C778 C780 1.415 . S
C779 C778 1.355 . S
C779 C781 1.419 . S
C780 C778 1.415 . S
C780 C785 1.425 . S
C780 C787 1.409 . S
C781 H773 0.930 . S
C781 C779 1.419 . S
C781 C782 1.362 . S
C782 H774 0.930 . S
C782 C781 1.362 . S
C782 C785 1.409 . S
C783 H775 0.930 . S
C783 C784 1.355 . S
C783 C785 1.415 . S
C784 C783 1.355 . S
C784 C786 1.419 . S
C785 C780 1.425 . S
C785 C782 1.409 . S
C785 C783 1.415 . S
C786 H776 0.930 . S
C786 C784 1.419 . S
C786 C787 1.362 . S
C787 H777 0.930 . S
C787 C780 1.409 . S
C787 C786 1.362 . S
H788 C794 0.930 . S
H789 C797 0.930 . S
H790 C798 0.930 . S
H791 C799 0.930 . S
H792 C802 0.930 . S
H793 C803 0.930 . S
C794 H788 0.930 . S
C794 C795 1.355 . S
C794 C796 1.415 . S
C795 C794 1.355 . S
C795 C797 1.419 . S
C796 C794 1.415 . S
C796 C801 1.425 . S
C796 C803 1.409 . S
C797 H789 0.930 . S
C797 C795 1.419 . S
C797 C798 1.362 . S
C798 H790 0.930 . S
C798 C797 1.362 . S
C798 C801 1.409 . S
C799 H791 0.930 . S
C799 C800 1.355 . S
C799 C801 1.415 . S
C800 C799 1.355 . S
C800 C802 1.419 . S
C801 C796 1.425 . S
C801 C798 1.409 . S
C801 C799 1.415 . S
C802 H792 0.930 . S
C802 C800 1.419 . S
C802 C803 1.362 . S
C803 H793 0.930 . S
C803 C796 1.409 . S
C803 C802 1.362 . S
H804 C810 0.930 . S
H805 C813 0.930 . S
H806 C814 0.930 . S
H807 C815 0.930 . S
H808 C818 0.930 . S
H809 C819 0.930 . S
C810 H804 0.930 . S
C810 C811 1.355 . S
C810 C812 1.415 . S
C811 C810 1.355 . S
C811 C813 1.419 . S
C812 C810 1.415 . S
C812 C817 1.425 . S
C812 C819 1.409 . S
C813 H805 0.930 . S
C813 C811 1.419 . S
C813 C814 1.362 . S
C814 H806 0.930 . S
C814 C813 1.362 . S
C814 C817 1.409 . S
C815 H807 0.930 . S
C815 C816 1.355 . S
C815 C817 1.415 . S
C816 C815 1.355 . S
C816 C818 1.419 . S
C817 C812 1.425 . S
C817 C814 1.409 . S
C817 C815 1.415 . S
C818 H808 0.930 . S
C818 C816 1.419 . S
C818 C819 1.362 . S
C819 H809 0.930 . S
C819 C812 1.409 . S
C819 C818 1.362 . S
H820 C826 0.930 . S
H821 C829 0.930 . S
H822 C830 0.930 . S
H823 C831 0.930 . S
H824 C834 0.930 . S
H825 C835 0.930 . S
C826 H820 0.930 . S
C826 C827 1.355 . S
C826 C828 1.415 . S
C827 C826 1.355 . S
C827 C829 1.419 . S
C828 C826 1.415 . S
C828 C833 1.425 . S
C828 C835 1.409 . S
C829 H821 0.930 . S
C829 C827 1.419 . S
C829 C830 1.362 . S
C830 H822 0.930 . S
C830 C829 1.362 . S
C830 C833 1.409 . S
C831 H823 0.930 . S
C831 C832 1.355 . S
C831 C833 1.415 . S
C832 C831 1.355 . S
C832 C834 1.419 . S
C833 C828 1.425 . S
C833 C830 1.409 . S
C833 C831 1.415 . S
C834 H824 0.930 . S
C834 C832 1.419 . S
C834 C835 1.362 . S
C835 H825 0.930 . S
C835 C828 1.409 . S
C835 C834 1.362 . S
H836 C842 0.930 . S
H837 C845 0.930 . S
H838 C846 0.930 . S
H839 C847 0.930 . S
H840 C850 0.930 . S
H841 C851 0.930 . S
C842 H836 0.930 . S
C842 C843 1.355 . S
C842 C844 1.415 . S
C843 C842 1.355 . S
C843 C845 1.419 . S
C844 C842 1.415 . S
C844 C849 1.425 . S
C844 C851 1.409 . S
C845 H837 0.930 . S
C845 C843 1.419 . S
C845 C846 1.362 . S
C846 H838 0.930 . S
C846 C845 1.362 . S
C846 C849 1.409 . S
C847 H839 0.930 . S
C847 C848 1.355 . S
C847 C849 1.415 . S
C848 C847 1.355 . S
C848 C850 1.419 . S
C849 C844 1.425 . S
C849 C846 1.409 . S
C849 C847 1.415 . S
C850 H840 0.930 . S
C850 C848 1.419 . S
C850 C851 1.362 . S
C851 H841 0.930 . S
C851 C844 1.409 . S
C851 C850 1.362 . S
H852 C858 0.930 . S
H853 C861 0.930 . S
H854 C862 0.930 . S
H855 C863 0.930 . S
H856 C866 0.930 . S
H857 C867 0.930 . S
C858 H852 0.930 . S
C858 C859 1.355 . S
C858 C860 1.415 . S
C859 C858 1.355 . S
C859 C861 1.419 . S
C860 C858 1.415 . S
C860 C865 1.425 . S
C860 C867 1.409 . S
C861 H853 0.930 . S
C861 C859 1.419 . S
C861 C862 1.362 . S
C862 H854 0.930 . S
C862 C861 1.362 . S
C862 C865 1.409 . S
C863 H855 0.930 . S
C863 C864 1.355 . S
C863 C865 1.415 . S
C864 C863 1.355 . S
C864 C866 1.419 . S
C865 C860 1.425 . S
C865 C862 1.409 . S
C865 C863 1.415 . S
C866 H856 0.930 . S
C866 C864 1.419 . S
C866 C867 1.362 . S
C867 H857 0.930 . S
C867 C860 1.409 . S
C867 C866 1.362 . S
H868 C874 0.930 . S
H869 C877 0.930 . S
H870 C878 0.930 . S
H871 C879 0.930 . S
H872 C882 0.930 . S
H873 C883 0.930 . S
C874 H868 0.930 . S
C874 C875 1.355 . S
C874 C876 1.415 . S
C875 C874 1.355 . S
C875 C877 1.419 . S
C876 C874 1.415 . S
C876 C881 1.425 . S
C876 C883 1.409 . S
C877 H869 0.930 . S
C877 C875 1.419 . S
C877 C878 1.362 . S
C878 H870 0.930 . S
C878 C877 1.362 . S
C878 C881 1.409 . S
C879 H871 0.930 . S
C879 C880 1.355 . S
C879 C881 1.415 . S
C880 C879 1.355 . S
C880 C882 1.419 . S
C881 C876 1.425 . S
C881 C878 1.409 . S
C881 C879 1.415 . S
C882 H872 0.930 . S
C882 C880 1.419 . S
C882 C883 1.362 . S
C883 H873 0.930 . S
C883 C876 1.409 . S
C883 C882 1.362 . S
H884 C890 0.930 . S
H885 C893 0.930 . S
H886 C894 0.930 . S
H887 C895 0.930 . S
H888 C898 0.930 . S
H889 C899 0.930 . S
C890 H884 0.930 . S
C890 C891 1.355 . S
C890 C892 1.415 . S
C891 C890 1.355 . S
C891 C893 1.419 . S
C892 C890 1.415 . S
C892 C897 1.425 . S
C892 C899 1.409 . S
C893 H885 0.930 . S
C893 C891 1.419 . S
C893 C894 1.362 . S
C894 H886 0.930 . S
C894 C893 1.362 . S
C894 C897 1.409 . S
C895 H887 0.930 . S
C895 C896 1.355 . S
C895 C897 1.415 . S
C896 C895 1.355 . S
C896 C898 1.419 . S
C897 C892 1.425 . S
C897 C894 1.409 . S
C897 C895 1.415 . S
C898 H888 0.930 . S
C898 C896 1.419 . S
C898 C899 1.362 . S
C899 H889 0.930 . S
C899 C892 1.409 . S
C899 C898 1.362 . S
H900 C906 0.930 . S
H901 C909 0.930 . S
H902 C910 0.930 . S
H903 C911 0.930 . S
H904 C914 0.930 . S
H905 C915 0.930 . S
C906 H900 0.930 . S
C906 C907 1.355 . S
C906 C908 1.415 . S
C907 C906 1.355 . S
C907 C909 1.419 . S
C908 C906 1.415 . S
C908 C913 1.425 . S
C908 C915 1.409 . S
C909 H901 0.930 . S
C909 C907 1.419 . S
C909 C910 1.362 . S
C910 H902 0.930 . S
C910 C909 1.362 . S
C910 C913 1.409 . S
C911 H903 0.930 . S
C911 C912 1.355 . S
C911 C913 1.415 . S
C912 C911 1.355 . S
C912 C914 1.419 . S
C913 C908 1.425 . S
C913 C910 1.409 . S
C913 C911 1.415 . S
C914 H904 0.930 . S
C914 C912 1.419 . S
C914 C915 1.362 . S
C915 H905 0.930 . S
C915 C908 1.409 . S
C915 C914 1.362 . S
H916 C922 0.930 . S
H917 C925 0.930 . S
H918 C926 0.930 . S
H919 C927 0.930 . S
H920 C930 0.930 . S
H921 C931 0.930 . S
C922 H916 0.930 . S
C922 C923 1.355 . S
C922 C924 1.415 . S
C923 C922 1.355 . S
C923 C925 1.419 . S
C924 C922 1.415 . S
C924 C929 1.425 . S
C924 C931 1.409 . S
C925 H917 0.930 . S
C925 C923 1.419 . S
C925 C926 1.362 . S
C926 H918 0.930 . S
C926 C925 1.362 . S
C926 C929 1.409 . S
C927 H919 0.930 . S
C927 C928 1.355 . S
C927 C929 1.415 . S
C928 C927 1.355 . S
C928 C930 1.419 . S
C929 C924 1.425 . S
C929 C926 1.409 . S
C929 C927 1.415 . S
C930 H920 0.930 . S
C930 C928 1.419 . S
C930 C931 1.362 . S
C931 H921 0.930 . S
C931 C924 1.409 . S
C931 C930 1.362 . S
H932 C938 0.930 . S
H933 C941 0.930 . S
H934 C942 0.930 . S
H935 C943 0.930 . S
H936 C946 0.930 . S
H937 C947 0.930 . S
C938 H932 0.930 . S
C938 C939 1.355 . S
C938 C940 1.415 . S
C939 C938 1.355 . S
C939 C941 1.419 . S
C940 C938 1.415 . S
C940 C945 1.425 . S
C940 C947 1.409 . S
C941 H933 0.930 . S
C941 C939 1.419 . S
C941 C942 1.362 . S
C942 H934 0.930 . S
C942 C941 1.362 . S
C942 C945 1.409 . S
C943 H935 0.930 . S
C943 C944 1.355 . S
C943 C945 1.415 . S
C944 C943 1.355 . S
C944 C946 1.419 . S
C945 C940 1.425 . S
C945 C942 1.409 . S
C945 C943 1.415 . S
C946 H936 0.930 . S
C946 C944 1.419 . S
C946 C947 1.362 . S
C947 H937 0.930 . S
C947 C940 1.409 . S
C947 C946 1.362 . S
H948 C954 0.930 . S
H949 C957 0.930 . S
H950 C958 0.930 . S
H951 C959 0.930 . S
H952 C962 0.930 . S
H953 C963 0.930 . S
C954 H948 0.930 . S
C954 C955 1.355 . S
C954 C956 1.415 . S
C955 C954 1.355 . S
C955 C957 1.419 . S
C956 C954 1.415 . S
C956 C961 1.425 . S
C956 C963 1.409 . S
C957 H949 0.930 . S
C957 C955 1.419 . S
C957 C958 1.362 . S
C958 H950 0.930 . S
C958 C957 1.362 . S
C958 C961 1.409 . S
C959 H951 0.930 . S
C959 C960 1.355 . S
C959 C961 1.415 . S
C960 C959 1.355 . S
C960 C962 1.419 . S
C961 C956 1.425 . S
C961 C958 1.409 . S
C961 C959 1.415 . S
C962 H952 0.930 . S
C962 C960 1.419 . S
C962 C963 1.362 . S
C963 H953 0.930 . S
C963 C956 1.409 . S
C963 C962 1.362 . S
H964 C970 0.930 . S
H965 C973 0.930 . S
H966 C974 0.930 . S
H967 C975 0.930 . S
H968 C978 0.930 . S
H969 C979 0.930 . S
C970 H964 0.930 . S
C970 C971 1.355 . S
C970 C972 1.415 . S
C971 C970 1.355 . S
C971 C973 1.419 . S
C972 C970 1.415 . S
C972 C977 1.425 . S
C972 C979 1.409 . S
C973 H965 0.930 . S
C973 C971 1.419 . S
C973 C974 1.362 . S
C974 H966 0.930 . S
C974 C973 1.362 . S
C974 C977 1.409 . S
C975 H967 0.930 . S
C975 C976 1.355 . S
C975 C977 1.415 . S
C976 C975 1.355 . S
C976 C978 1.419 . S
C977 C972 1.425 . S
C977 C974 1.409 . S
C977 C975 1.415 . S
C978 H968 0.930 . S
C978 C976 1.419 . S
C978 C979 1.362 . S
C979 H969 0.930 . S
C979 C972 1.409 . S
C979 C978 1.362 . S
H980 C986 0.930 . S
H981 C989 0.930 . S
H982 C990 0.930 . S
H983 C991 0.930 . S
H984 C994 0.930 . S
H985 C995 0.930 . S
C986 H980 0.930 . S
C986 C987 1.355 . S
C986 C988 1.415 . S
C987 C986 1.355 . S
C987 C989 1.419 . S
C988 C986 1.415 . S
C988 C993 1.425 . S
C988 C995 1.409 . S
C989 H981 0.930 . S
C989 C987 1.419 . S
C989 C990 1.362 . S
C990 H982 0.930 . S
C990 C989 1.362 . S
C990 C993 1.409 . S
C991 H983 0.930 . S
C991 C992 1.355 . S
C991 C993 1.415 . S
C992 C991 1.355 . S
C992 C994 1.419 . S
C993 C988 1.425 . S
C993 C990 1.409 . S
C993 C991 1.415 . S
C994 H984 0.930 . S
C994 C992 1.419 . S
C994 C995 1.362 . S
C995 H985 0.930 . S
C995 C988 1.409 . S
C995 C994 1.362 . S
H996 C1002 0.930 . S
H997 C1005 0.930 . S
H998 C1006 0.930 . S
H999 C1007 0.930 . S
H1000 C1010 0.930 . S
H1001 C1011 0.930 . S
C1002 H996 0.930 . S
C1002 C1003 1.355 . S
C1002 C1004 1.415 . S
C1003 C1002 1.355 . S
C1003 C1005 1.419 . S
C1004 C1002 1.415 . S
C1004 C1009 1.425 . S
C1004 C1011 1.409 . S
C1005 H997 0.930 . S
C1005 C1003 1.419 . S
C1005 C1006 1.362 . S
C1006 H998 0.930 . S
C1006 C1005 1.362 . S
C1006 C1009 1.409 . S
C1007 H999 0.930 . S
C1007 C1008 1.355 . S
C1007 C1009 1.415 . S
C1008 C1007 1.355 . S
C1008 C1010 1.419 . S
C1009 C1004 1.425 . S
C1009 C1006 1.409 . S
C1009 C1007 1.415 . S
C1010 H1000 0.930 . S
C1010 C1008 1.419 . S
C1010 C1011 1.362 . S
C1011 H1001 0.930 . S
C1011 C1004 1.409 . S
C1011 C1010 1.362 . S
H1012 C1018 0.930 . S
H1013 C1021 0.930 . S
H1014 C1022 0.930 . S
H1015 C1023 0.930 . S
H1016 C1026 0.930 . S
H1017 C1027 0.930 . S
C1018 H1012 0.930 . S
C1018 C1019 1.355 . S
C1018 C1020 1.415 . S
C1019 C1018 1.355 . S
C1019 C1021 1.419 . S
C1020 C1018 1.415 . S
C1020 C1025 1.425 . S
C1020 C1027 1.409 . S
C1021 H1013 0.930 . S
C1021 C1019 1.419 . S
C1021 C1022 1.362 . S
C1022 H1014 0.930 . S
C1022 C1021 1.362 . S
C1022 C1025 1.409 . S
C1023 H1015 0.930 . S
C1023 C1024 1.355 . S
C1023 C1025 1.415 . S
C1024 C1023 1.355 . S
C1024 C1026 1.419 . S
C1025 C1020 1.425 . S
C1025 C1022 1.409 . S
C1025 C1023 1.415 . S
C1026 H1016 0.930 . S
C1026 C1024 1.419 . S
C1026 C1027 1.362 . S
C1027 H1017 0.930 . S
C1027 C1020 1.409 . S
C1027 C1026 1.362 . S
H1028 C1034 0.930 . S
H1029 C1037 0.930 . S
H1030 C1038 0.930 . S
H1031 C1039 0.930 . S
H1032 C1042 0.930 . S
H1033 C1043 0.930 . S
C1034 H1028 0.930 . S
C1034 C1035 1.355 . S
C1034 C1036 1.415 . S
C1035 C1034 1.355 . S
C1035 C1037 1.419 . S
C1036 C1034 1.415 . S
C1036 C1041 1.425 . S
C1036 C1043 1.409 . S
C1037 H1029 0.930 . S
C1037 C1035 1.419 . S
C1037 C1038 1.362 . S
C1038 H1030 0.930 . S
C1038 C1037 1.362 . S
C1038 C1041 1.409 . S
C1039 H1031 0.930 . S
C1039 C1040 1.355 . S
C1039 C1041 1.415 . S
C1040 C1039 1.355 . S
C1040 C1042 1.419 . S
C1041 C1036 1.425 . S
C1041 C1038 1.409 . S
C1041 C1039 1.415 . S
C1042 H1032 0.930 . S
C1042 C1040 1.419 . S
C1042 C1043 1.362 . S
C1043 H1033 0.930 . S
C1043 C1036 1.409 . S
C1043 C1042 1.362 . S
H1044 C1050 0.930 . S
H1045 C1053 0.930 . S
H1046 C1054 0.930 . S
H1047 C1055 0.930 . S
H1048 C1058 0.930 . S
H1049 C1059 0.930 . S
C1050 H1044 0.930 . S
C1050 C1051 1.355 . S
C1050 C1052 1.415 . S
C1051 C1050 1.355 . S
C1051 C1053 1.419 . S
C1052 C1050 1.415 . S
C1052 C1057 1.425 . S
C1052 C1059 1.409 . S
C1053 H1045 0.930 . S
C1053 C1051 1.419 . S
C1053 C1054 1.362 . S
C1054 H1046 0.930 . S
C1054 C1053 1.362 . S
C1054 C1057 1.409 . S
C1055 H1047 0.930 . S
C1055 C1056 1.355 . S
C1055 C1057 1.415 . S
C1056 C1055 1.355 . S
C1056 C1058 1.419 . S
C1057 C1052 1.425 . S
C1057 C1054 1.409 . S
C1057 C1055 1.415 . S
C1058 H1048 0.930 . S
C1058 C1056 1.419 . S
C1058 C1059 1.362 . S
C1059 H1049 0.930 . S
C1059 C1052 1.409 . S
C1059 C1058 1.362 . S
H1060 C1066 0.930 . S
H1061 C1069 0.930 . S
H1062 C1070 0.930 . S
H1063 C1071 0.930 . S
H1064 C1074 0.930 . S
H1065 C1075 0.930 . S
C1066 H1060 0.930 . S
C1066 C1067 1.355 . S
C1066 C1068 1.415 . S
C1067 C1066 1.355 . S
C1067 C1069 1.419 . S
C1068 C1066 1.415 . S
C1068 C1073 1.425 1_565 S
C1068 C1075 1.409 1_565 S
C1069 H1061 0.930 . S
C1069 C1067 1.419 . S
C1069 C1070 1.362 . S
C1070 H1062 0.930 . S
C1070 C1069 1.362 . S
C1070 C1073 1.409 1_565 S
C1071 H1063 0.930 . S
C1071 C1072 1.355 . S
C1071 C1073 1.415 . S
C1072 C1071 1.355 . S
C1072 C1074 1.419 . S
C1073 C1068 1.425 1_545 S
C1073 C1070 1.409 1_545 S
C1073 C1071 1.415 . S
C1074 H1064 0.930 . S
C1074 C1072 1.419 . S
C1074 C1075 1.362 . S
C1075 H1065 0.930 . S
C1075 C1068 1.409 1_545 S
C1075 C1074 1.362 . S
H1076 C1082 0.930 . S
H1077 C1085 0.930 . S
H1078 C1086 0.930 . S
H1079 C1087 0.930 . S
H1080 C1090 0.930 . S
H1081 C1091 0.930 . S
C1082 H1076 0.930 . S
C1082 C1083 1.355 . S
C1082 C1084 1.415 . S
C1083 C1082 1.355 . S
C1083 C1085 1.419 . S
C1084 C1082 1.415 . S
C1084 C1089 1.425 1_655 S
C1084 C1091 1.409 1_655 S
C1085 H1077 0.930 . S
C1085 C1083 1.419 . S
C1085 C1086 1.362 . S
C1086 H1078 0.930 . S
C1086 C1085 1.362 . S
C1086 C1089 1.409 1_655 S
C1087 H1079 0.930 . S
C1087 C1088 1.355 . S
C1087 C1089 1.415 . S
C1088 C1087 1.355 . S
C1088 C1090 1.419 . S
C1089 C1084 1.425 1_455 S
C1089 C1086 1.409 1_455 S
C1089 C1087 1.415 . S
C1090 H1080 0.930 . S
C1090 C1088 1.419 . S
C1090 C1091 1.362 . S
C1091 H1081 0.930 . S
C1091 C1084 1.409 1_455 S
C1091 C1090 1.362 . S
H1092 C1098 0.930 . S
H1093 C1101 0.930 . S
H1094 C1102 0.930 . S
H1095 C1103 0.930 . S
H1096 C1106 0.930 . S
H1097 C1107 0.930 . S
C1098 H1092 0.930 . S
C1098 C1099 1.355 . S
C1098 C1100 1.415 . S
C1099 C1098 1.355 . S
C1099 C1101 1.419 . S
C1100 C1098 1.415 . S
C1100 C1105 1.425 . S
C1100 C1107 1.409 . S
C1101 H1093 0.930 . S
C1101 C1099 1.419 . S
C1101 C1102 1.362 . S
C1102 H1094 0.930 . S
C1102 C1101 1.362 . S
C1102 C1105 1.409 . S
C1103 H1095 0.930 . S
C1103 C1104 1.355 . S
C1103 C1105 1.415 . S
C1104 C1103 1.355 . S
C1104 C1106 1.419 . S
C1105 C1100 1.425 . S
C1105 C1102 1.409 . S
C1105 C1103 1.415 . S
C1106 H1096 0.930 . S
C1106 C1104 1.419 . S
C1106 C1107 1.362 . S
C1107 H1097 0.930 . S
C1107 C1100 1.409 . S
C1107 C1106 1.362 . S
H1108 C1114 0.930 . S
H1109 C1117 0.930 . S
H1110 C1118 0.930 . S
H1111 C1119 0.930 . S
H1112 C1122 0.930 . S
H1113 C1123 0.930 . S
C1114 H1108 0.930 . S
C1114 C1115 1.355 . S
C1114 C1116 1.415 . S
C1115 C1114 1.355 . S
C1115 C1117 1.419 . S
C1116 C1114 1.415 . S
C1116 C1121 1.425 1_545 S
C1116 C1123 1.409 1_545 S
C1117 H1109 0.930 . S
C1117 C1115 1.419 . S
C1117 C1118 1.362 . S
C1118 H1110 0.930 . S
C1118 C1117 1.362 . S
C1118 C1121 1.409 1_545 S
C1119 H1111 0.930 . S
C1119 C1120 1.355 . S
C1119 C1121 1.415 . S
C1120 C1119 1.355 . S
C1120 C1122 1.419 . S
C1121 C1116 1.425 1_565 S
C1121 C1118 1.409 1_565 S
C1121 C1119 1.415 . S
C1122 H1112 0.930 . S
C1122 C1120 1.419 . S
C1122 C1123 1.362 . S
C1123 H1113 0.930 . S
C1123 C1116 1.409 1_565 S
C1123 C1122 1.362 . S
H1124 C1130 0.930 . S
H1125 C1133 0.930 . S
H1126 C1134 0.930 . S
H1127 C1135 0.930 . S
H1128 C1138 0.930 . S
H1129 C1139 0.930 . S
C1130 H1124 0.930 . S
C1130 C1131 1.355 . S
C1130 C1132 1.415 . S
C1131 C1130 1.355 . S
C1131 C1133 1.419 . S
C1132 C1130 1.415 . S
C1132 C1137 1.425 1_655 S
C1132 C1139 1.409 1_655 S
C1133 H1125 0.930 . S
C1133 C1131 1.419 . S
C1133 C1134 1.362 . S
C1134 H1126 0.930 . S
C1134 C1133 1.362 . S
C1134 C1137 1.409 1_655 S
C1135 H1127 0.930 . S
C1135 C1136 1.355 . S
C1135 C1137 1.415 . S
C1136 C1135 1.355 . S
C1136 C1138 1.419 . S
C1137 C1132 1.425 1_455 S
C1137 C1134 1.409 1_455 S
C1137 C1135 1.415 . S
C1138 H1128 0.930 . S
C1138 C1136 1.419 . S
C1138 C1139 1.362 . S
C1139 H1129 0.930 . S
C1139 C1132 1.409 1_455 S
C1139 C1138 1.362 . S
H1140 C1146 0.930 . S
H1141 C1149 0.930 . S
H1142 C1150 0.930 . S
H1143 C1151 0.930 . S
H1144 C1154 0.930 . S
H1145 C1155 0.930 . S
C1146 H1140 0.930 . S
C1146 C1147 1.355 . S
C1146 C1148 1.415 . S
C1147 C1146 1.355 . S
C1147 C1149 1.419 . S
C1148 C1146 1.415 . S
C1148 C1153 1.425 . S
C1148 C1155 1.409 . S
C1149 H1141 0.930 . S
C1149 C1147 1.419 . S
C1149 C1150 1.362 . S
C1150 H1142 0.930 . S
C1150 C1149 1.362 . S
C1150 C1153 1.409 . S
C1151 H1143 0.930 . S
C1151 C1152 1.355 . S
C1151 C1153 1.415 . S
C1152 C1151 1.355 . S
C1152 C1154 1.419 . S
C1153 C1148 1.425 . S
C1153 C1150 1.409 . S
C1153 C1151 1.415 . S
C1154 H1144 0.930 . S
C1154 C1152 1.419 . S
C1154 C1155 1.362 . S
C1155 H1145 0.930 . S
C1155 C1148 1.409 . S
C1155 C1154 1.362 . S
H1156 C1162 0.930 . S
H1157 C1165 0.930 . S
H1158 C1166 0.930 . S
H1159 C1167 0.930 . S
H1160 C1170 0.930 . S
H1161 C1171 0.930 . S
C1162 H1156 0.930 . S
C1162 C1163 1.355 . S
C1162 C1164 1.415 . S
C1163 C1162 1.355 . S
C1163 C1165 1.419 . S
C1164 C1162 1.415 . S
C1164 C1169 1.425 . S
C1164 C1171 1.409 . S
C1165 H1157 0.930 . S
C1165 C1163 1.419 . S
C1165 C1166 1.362 . S
C1166 H1158 0.930 . S
C1166 C1165 1.362 . S
C1166 C1169 1.409 . S
C1167 H1159 0.930 . S
C1167 C1168 1.355 . S
C1167 C1169 1.415 . S
C1168 C1167 1.355 . S
C1168 C1170 1.419 . S
C1169 C1164 1.425 . S
C1169 C1166 1.409 . S
C1169 C1167 1.415 . S
C1170 H1160 0.930 . S
C1170 C1168 1.419 . S
C1170 C1171 1.362 . S
C1171 H1161 0.930 . S
C1171 C1164 1.409 . S
C1171 C1170 1.362 . S
H1172 C1178 0.930 . S
H1173 C1181 0.930 . S
H1174 C1182 0.930 . S
H1175 C1183 0.930 . S
H1176 C1186 0.930 . S
H1177 C1187 0.930 . S
C1178 H1172 0.930 . S
C1178 C1179 1.355 . S
C1178 C1180 1.415 . S
C1179 C1178 1.355 . S
C1179 C1181 1.419 . S
C1180 C1178 1.415 . S
C1180 C1185 1.425 . S
C1180 C1187 1.409 . S
C1181 H1173 0.930 . S
C1181 C1179 1.419 . S
C1181 C1182 1.362 . S
C1182 H1174 0.930 . S
C1182 C1181 1.362 . S
C1182 C1185 1.409 . S
C1183 H1175 0.930 . S
C1183 C1184 1.355 . S
C1183 C1185 1.415 . S
C1184 C1183 1.355 . S
C1184 C1186 1.419 . S
C1185 C1180 1.425 . S
C1185 C1182 1.409 . S
C1185 C1183 1.415 . S
C1186 H1176 0.930 . S
C1186 C1184 1.419 . S
C1186 C1187 1.362 . S
C1187 H1177 0.930 . S
C1187 C1180 1.409 . S
C1187 C1186 1.362 . S
H1188 C1194 0.930 . S
H1189 C1197 0.930 . S
H1190 C1198 0.930 . S
H1191 C1199 0.930 . S
H1192 C1202 0.930 . S
H1193 C1203 0.930 . S
C1194 H1188 0.930 . S
C1194 C1195 1.355 . S
C1194 C1196 1.415 . S
C1195 C1194 1.355 . S
C1195 C1197 1.419 . S
C1196 C1194 1.415 . S
C1196 C1201 1.425 . S
C1196 C1203 1.409 . S
C1197 H1189 0.930 . S
C1197 C1195 1.419 . S
C1197 C1198 1.362 . S
C1198 H1190 0.930 . S
C1198 C1197 1.362 . S
C1198 C1201 1.409 . S
C1199 H1191 0.930 . S
C1199 C1200 1.355 . S
C1199 C1201 1.415 . S
C1200 C1199 1.355 . S
C1200 C1202 1.419 . S
C1201 C1196 1.425 . S
C1201 C1198 1.409 . S
C1201 C1199 1.415 . S
C1202 H1192 0.930 . S
C1202 C1200 1.419 . S
C1202 C1203 1.362 . S
C1203 H1193 0.930 . S
C1203 C1196 1.409 . S
C1203 C1202 1.362 . S
H1204 C1210 0.930 . S
H1205 C1213 0.930 1_556 S
H1206 C1214 0.930 1_556 S
H1207 C1215 0.930 . S
H1208 C1218 0.930 . S
H1209 C1219 0.930 . S
C1210 H1204 0.930 . S
C1210 C1211 1.355 . S
C1210 C1212 1.415 . S
C1211 C1210 1.355 . S
C1211 C1213 1.419 . S
C1212 C1210 1.415 . S
C1212 C1217 1.425 . S
C1212 C1219 1.409 . S
C1213 H1205 0.930 1_554 S
C1213 C1211 1.419 . S
C1213 C1214 1.362 . S
C1214 H1206 0.930 1_554 S
C1214 C1213 1.362 . S
C1214 C1217 1.409 . S
C1215 H1207 0.930 . S
C1215 C1216 1.355 . S
C1215 C1217 1.415 . S
C1216 C1215 1.355 . S
C1216 C1218 1.419 . S
C1217 C1212 1.425 . S
C1217 C1214 1.409 . S
C1217 C1215 1.415 . S
C1218 H1208 0.930 . S
C1218 C1216 1.419 . S
C1218 C1219 1.362 . S
C1219 H1209 0.930 . S
C1219 C1212 1.409 . S
C1219 C1218 1.362 . S
H1220 C1226 0.930 . S
H1221 C1229 0.930 . S
H1222 C1230 0.930 . S
H1223 C1231 0.930 . S
H1224 C1234 0.930 . S
H1225 C1235 0.930 . S
C1226 H1220 0.930 . S
C1226 C1227 1.355 . S
C1226 C1228 1.415 . S
C1227 C1226 1.355 . S
C1227 C1229 1.419 . S
C1228 C1226 1.415 . S
C1228 C1233 1.425 . S
C1228 C1235 1.409 . S
C1229 H1221 0.930 . S
C1229 C1227 1.419 . S
C1229 C1230 1.362 . S
C1230 H1222 0.930 . S
C1230 C1229 1.362 . S
C1230 C1233 1.409 . S
C1231 H1223 0.930 . S
C1231 C1232 1.355 . S
C1231 C1233 1.415 . S
C1232 C1231 1.355 . S
C1232 C1234 1.419 . S
C1233 C1228 1.425 . S
C1233 C1230 1.409 . S
C1233 C1231 1.415 . S
C1234 H1224 0.930 . S
C1234 C1232 1.419 . S
C1234 C1235 1.362 . S
C1235 H1225 0.930 . S
C1235 C1228 1.409 . S
C1235 C1234 1.362 . S
H1236 C1242 0.930 1_554 S
H1237 C1245 0.930 . S
H1238 C1246 0.930 . S
H1239 C1247 0.930 . S
H1240 C1250 0.930 . S
H1241 C1251 0.930 1_554 S
C1242 H1236 0.930 1_556 S
C1242 C1243 1.355 . S
C1242 C1244 1.415 . S
C1243 C1242 1.355 . S
C1243 C1245 1.419 . S
C1244 C1242 1.415 . S
C1244 C1249 1.425 . S
C1244 C1251 1.409 . S
C1245 H1237 0.930 . S
C1245 C1243 1.419 . S
C1245 C1246 1.362 . S
C1246 H1238 0.930 . S
C1246 C1245 1.362 . S
C1246 C1249 1.409 . S
C1247 H1239 0.930 . S
C1247 C1248 1.355 . S
C1247 C1249 1.415 . S
C1248 C1247 1.355 . S
C1248 C1250 1.419 . S
C1249 C1244 1.425 . S
C1249 C1246 1.409 . S
C1249 C1247 1.415 . S
C1250 H1240 0.930 . S
C1250 C1248 1.419 . S
C1250 C1251 1.362 . S
C1251 H1241 0.930 1_556 S
C1251 C1244 1.409 . S
C1251 C1250 1.362 . S
H1252 C1258 0.930 . S
H1253 C1261 0.930 . S
H1254 C1262 0.930 . S
H1255 C1263 0.930 . S
H1256 C1266 0.930 . S
H1257 C1267 0.930 . S
C1258 H1252 0.930 . S
C1258 C1259 1.355 . S
C1258 C1260 1.415 . S
C1259 C1258 1.355 . S
C1259 C1261 1.419 . S
C1260 C1258 1.415 . S
C1260 C1265 1.425 . S
C1260 C1267 1.409 . S
C1261 H1253 0.930 . S
C1261 C1259 1.419 . S
C1261 C1262 1.362 . S
C1262 H1254 0.930 . S
C1262 C1261 1.362 . S
C1262 C1265 1.409 . S
C1263 H1255 0.930 . S
C1263 C1264 1.355 . S
C1263 C1265 1.415 . S
C1264 C1263 1.355 . S
C1264 C1266 1.419 . S
C1265 C1260 1.425 . S
C1265 C1262 1.409 . S
C1265 C1263 1.415 . S
C1266 H1256 0.930 . S
C1266 C1264 1.419 . S
C1266 C1267 1.362 . S
C1267 H1257 0.930 . S
C1267 C1260 1.409 . S
C1267 C1266 1.362 . S
H1268 C1274 0.930 . S
H1269 C1277 0.930 . S
H1270 C1278 0.930 . S
H1271 C1279 0.930 . S
H1272 C1282 0.930 . S
H1273 C1283 0.930 . S
C1274 H1268 0.930 . S
C1274 C1275 1.355 . S
C1274 C1276 1.415 . S
C1275 C1274 1.355 . S
C1275 C1277 1.419 . S
C1276 C1274 1.415 . S
C1276 C1281 1.425 . S
C1276 C1283 1.409 . S
C1277 H1269 0.930 . S
C1277 C1275 1.419 . S
C1277 C1278 1.362 . S
C1278 H1270 0.930 . S
C1278 C1277 1.362 . S
C1278 C1281 1.409 . S
C1279 H1271 0.930 . S
C1279 C1280 1.355 . S
C1279 C1281 1.415 . S
C1280 C1279 1.355 . S
C1280 C1282 1.419 . S
C1281 C1276 1.425 . S
C1281 C1278 1.409 . S
C1281 C1279 1.415 . S
C1282 H1272 0.930 . S
C1282 C1280 1.419 . S
C1282 C1283 1.362 . S
C1283 H1273 0.930 . S
C1283 C1276 1.409 . S
C1283 C1282 1.362 . S
H1284 C1290 0.930 . S
H1285 C1293 0.930 . S
H1286 C1294 0.930 . S
H1287 C1295 0.930 . S
H1288 C1298 0.930 . S
H1289 C1299 0.930 . S
C1290 H1284 0.930 . S
C1290 C1291 1.355 . S
C1290 C1292 1.415 . S
C1291 C1290 1.355 . S
C1291 C1293 1.419 . S
C1292 C1290 1.415 . S
C1292 C1297 1.425 . S
C1292 C1299 1.409 . S
C1293 H1285 0.930 . S
C1293 C1291 1.419 . S
C1293 C1294 1.362 . S
C1294 H1286 0.930 . S
C1294 C1293 1.362 . S
C1294 C1297 1.409 . S
C1295 H1287 0.930 . S
C1295 C1296 1.355 . S
C1295 C1297 1.415 . S
C1296 C1295 1.355 . S
C1296 C1298 1.419 . S
C1297 C1292 1.425 . S
C1297 C1294 1.409 . S
C1297 C1295 1.415 . S
C1298 H1288 0.930 . S
C1298 C1296 1.419 . S
C1298 C1299 1.362 . S
C1299 H1289 0.930 . S
C1299 C1292 1.409 . S
C1299 C1298 1.362 . S
H1300 C1306 0.930 . S
H1301 C1309 0.930 . S
H1302 C1310 0.930 . S
H1303 C1311 0.930 . S
H1304 C1314 0.930 . S
H1305 C1315 0.930 . S
C1306 H1300 0.930 . S
C1306 C1307 1.355 . S
C1306 C1308 1.415 . S
C1307 C1306 1.355 . S
C1307 C1309 1.419 . S
C1308 C1306 1.415 . S
C1308 C1313 1.425 . S
C1308 C1315 1.409 . S
C1309 H1301 0.930 . S
C1309 C1307 1.419 . S
C1309 C1310 1.362 . S
C1310 H1302 0.930 . S
C1310 C1309 1.362 . S
C1310 C1313 1.409 . S
C1311 H1303 0.930 . S
C1311 C1312 1.355 . S
C1311 C1313 1.415 . S
C1312 C1311 1.355 . S
C1312 C1314 1.419 . S
C1313 C1308 1.425 . S
C1313 C1310 1.409 . S
C1313 C1311 1.415 . S
C1314 H1304 0.930 . S
C1314 C1312 1.419 . S
C1314 C1315 1.362 . S
C1315 H1305 0.930 . S
C1315 C1308 1.409 . S
C1315 C1314 1.362 . S
H1316 C1322 0.930 . S
H1317 C1325 0.930 . S
H1318 C1326 0.930 . S
H1319 C1327 0.930 . S
H1320 C1330 0.930 . S
H1321 C1331 0.930 . S
C1322 H1316 0.930 . S
C1322 C1323 1.355 . S
C1322 C1324 1.415 . S
C1323 C1322 1.355 . S
C1323 C1325 1.419 . S
C1324 C1322 1.415 . S
C1324 C1329 1.425 . S
C1324 C1331 1.409 . S
C1325 H1317 0.930 . S
C1325 C1323 1.419 . S
C1325 C1326 1.362 . S
C1326 H1318 0.930 . S
C1326 C1325 1.362 . S
C1326 C1329 1.409 . S
C1327 H1319 0.930 . S
C1327 C1328 1.355 . S
C1327 C1329 1.415 . S
C1328 C1327 1.355 . S
C1328 C1330 1.419 . S
C1329 C1324 1.425 . S
C1329 C1326 1.409 . S
C1329 C1327 1.415 . S
C1330 H1320 0.930 . S
C1330 C1328 1.419 . S
C1330 C1331 1.362 . S
C1331 H1321 0.930 . S
C1331 C1324 1.409 . S
C1331 C1330 1.362 . S
H1332 C1338 0.930 . S
H1333 C1341 0.930 . S
H1334 C1342 0.930 . S
H1335 C1343 0.930 . S
H1336 C1346 0.930 . S
H1337 C1347 0.930 . S
C1338 H1332 0.930 . S
C1338 C1339 1.355 . S
C1338 C1340 1.415 . S
C1339 C1338 1.355 . S
C1339 C1341 1.419 . S
C1340 C1338 1.415 . S
C1340 C1345 1.425 . S
C1340 C1347 1.409 . S
C1341 H1333 0.930 . S
C1341 C1339 1.419 . S
C1341 C1342 1.362 . S
C1342 H1334 0.930 . S
C1342 C1341 1.362 . S
C1342 C1345 1.409 . S
C1343 H1335 0.930 . S
C1343 C1344 1.355 . S
C1343 C1345 1.415 . S
C1344 C1343 1.355 . S
C1344 C1346 1.419 . S
C1345 C1340 1.425 . S
C1345 C1342 1.409 . S
C1345 C1343 1.415 . S
C1346 H1336 0.930 . S
C1346 C1344 1.419 . S
C1346 C1347 1.362 . S
C1347 H1337 0.930 . S
C1347 C1340 1.409 . S
C1347 C1346 1.362 . S
H1348 C1354 0.930 . S
H1349 C1357 0.930 . S
H1350 C1358 0.930 . S
H1351 C1359 0.930 . S
H1352 C1362 0.930 . S
H1353 C1363 0.930 . S
C1354 H1348 0.930 . S
C1354 C1355 1.355 . S
C1354 C1356 1.415 . S
C1355 C1354 1.355 . S
C1355 C1357 1.419 . S
C1356 C1354 1.415 . S
C1356 C1361 1.425 . S
C1356 C1363 1.409 . S
C1357 H1349 0.930 . S
C1357 C1355 1.419 . S
C1357 C1358 1.362 . S
C1358 H1350 0.930 . S
C1358 C1357 1.362 . S
C1358 C1361 1.409 . S
C1359 H1351 0.930 . S
C1359 C1360 1.355 . S
C1359 C1361 1.415 . S
C1360 C1359 1.355 . S
C1360 C1362 1.419 . S
C1361 C1356 1.425 . S
C1361 C1358 1.409 . S
C1361 C1359 1.415 . S
C1362 H1352 0.930 . S
C1362 C1360 1.419 . S
C1362 C1363 1.362 . S
C1363 H1353 0.930 . S
C1363 C1356 1.409 . S
C1363 C1362 1.362 . S
H1364 C1370 0.930 . S
H1365 C1373 0.930 . S
H1366 C1374 0.930 . S
H1367 C1375 0.930 . S
H1368 C1378 0.930 . S
H1369 C1379 0.930 . S
C1370 H1364 0.930 . S
C1370 C1371 1.355 . S
C1370 C1372 1.415 . S
C1371 C1370 1.355 . S
C1371 C1373 1.419 . S
C1372 C1370 1.415 . S
C1372 C1377 1.425 . S
C1372 C1379 1.409 . S
C1373 H1365 0.930 . S
C1373 C1371 1.419 . S
C1373 C1374 1.362 . S
C1374 H1366 0.930 . S
C1374 C1373 1.362 . S
C1374 C1377 1.409 . S
C1375 H1367 0.930 . S
C1375 C1376 1.355 . S
C1375 C1377 1.415 . S
C1376 C1375 1.355 . S
C1376 C1378 1.419 . S
C1377 C1372 1.425 . S
C1377 C1374 1.409 . S
C1377 C1375 1.415 . S
C1378 H1368 0.930 . S
C1378 C1376 1.419 . S
C1378 C1379 1.362 . S
C1379 H1369 0.930 . S
C1379 C1372 1.409 . S
C1379 C1378 1.362 . S
H1380 C1386 0.930 . S
H1381 C1389 0.930 . S
H1382 C1390 0.930 . S
H1383 C1391 0.930 . S
H1384 C1394 0.930 . S
H1385 C1395 0.930 . S
C1386 H1380 0.930 . S
C1386 C1387 1.355 . S
C1386 C1388 1.415 . S
C1387 C1386 1.355 . S
C1387 C1389 1.419 . S
C1388 C1386 1.415 . S
C1388 C1393 1.425 . S
C1388 C1395 1.409 . S
C1389 H1381 0.930 . S
C1389 C1387 1.419 . S
C1389 C1390 1.362 . S
C1390 H1382 0.930 . S
C1390 C1389 1.362 . S
C1390 C1393 1.409 . S
C1391 H1383 0.930 . S
C1391 C1392 1.355 . S
C1391 C1393 1.415 . S
C1392 C1391 1.355 . S
C1392 C1394 1.419 . S
C1393 C1388 1.425 . S
C1393 C1390 1.409 . S
C1393 C1391 1.415 . S
C1394 H1384 0.930 . S
C1394 C1392 1.419 . S
C1394 C1395 1.362 . S
C1395 H1385 0.930 . S
C1395 C1388 1.409 . S
C1395 C1394 1.362 . S
H1396 C1402 0.930 . S
H1397 C1405 0.930 . S
H1398 C1406 0.930 . S
H1399 C1407 0.930 . S
H1400 C1410 0.930 . S
H1401 C1411 0.930 . S
C1402 H1396 0.930 . S
C1402 C1403 1.355 . S
C1402 C1404 1.415 . S
C1403 C1402 1.355 . S
C1403 C1405 1.419 . S
C1404 C1402 1.415 . S
C1404 C1409 1.425 . S
C1404 C1411 1.409 . S
C1405 H1397 0.930 . S
C1405 C1403 1.419 . S
C1405 C1406 1.362 . S
C1406 H1398 0.930 . S
C1406 C1405 1.362 . S
C1406 C1409 1.409 . S
C1407 H1399 0.930 . S
C1407 C1408 1.355 . S
C1407 C1409 1.415 . S
C1408 C1407 1.355 . S
C1408 C1410 1.419 . S
C1409 C1404 1.425 . S
C1409 C1406 1.409 . S
C1409 C1407 1.415 . S
C1410 H1400 0.930 . S
C1410 C1408 1.419 . S
C1410 C1411 1.362 . S
C1411 H1401 0.930 . S
C1411 C1404 1.409 . S
C1411 C1410 1.362 . S
H1412 C1418 0.930 . S
H1413 C1421 0.930 . S
H1414 C1422 0.930 . S
H1415 C1423 0.930 . S
H1416 C1426 0.930 . S
H1417 C1427 0.930 . S
C1418 H1412 0.930 . S
C1418 C1419 1.355 . S
C1418 C1420 1.415 . S
C1419 C1418 1.355 . S
C1419 C1421 1.419 . S
C1420 C1418 1.415 . S
C1420 C1425 1.425 . S
C1420 C1427 1.409 . S
C1421 H1413 0.930 . S
C1421 C1419 1.419 . S
C1421 C1422 1.362 . S
C1422 H1414 0.930 . S
C1422 C1421 1.362 . S
C1422 C1425 1.409 . S
C1423 H1415 0.930 . S
C1423 C1424 1.355 . S
C1423 C1425 1.415 . S
C1424 C1423 1.355 . S
C1424 C1426 1.419 . S
C1425 C1420 1.425 . S
C1425 C1422 1.409 . S
C1425 C1423 1.415 . S
C1426 H1416 0.930 . S
C1426 C1424 1.419 . S
C1426 C1427 1.362 . S
C1427 H1417 0.930 . S
C1427 C1420 1.409 . S
C1427 C1426 1.362 . S
H1428 C1434 0.930 . S
H1429 C1437 0.930 . S
H1430 C1438 0.930 . S
H1431 C1439 0.930 . S
H1432 C1442 0.930 . S
H1433 C1443 0.930 . S
C1434 H1428 0.930 . S
C1434 C1435 1.355 . S
C1434 C1436 1.415 . S
C1435 C1434 1.355 . S
C1435 C1437 1.419 . S
C1436 C1434 1.415 . S
C1436 C1441 1.425 . S
C1436 C1443 1.409 . S
C1437 H1429 0.930 . S
C1437 C1435 1.419 . S
C1437 C1438 1.362 . S
C1438 H1430 0.930 . S
C1438 C1437 1.362 . S
C1438 C1441 1.409 . S
C1439 H1431 0.930 . S
C1439 C1440 1.355 . S
C1439 C1441 1.415 . S
C1440 C1439 1.355 . S
C1440 C1442 1.419 . S
C1441 C1436 1.425 . S
C1441 C1438 1.409 . S
C1441 C1439 1.415 . S
C1442 H1432 0.930 . S
C1442 C1440 1.419 . S
C1442 C1443 1.362 . S
C1443 H1433 0.930 . S
C1443 C1436 1.409 . S
C1443 C1442 1.362 . S
H1444 C1450 0.930 . S
H1445 C1453 0.930 . S
H1446 C1454 0.930 . S
H1447 C1455 0.930 . S
H1448 C1458 0.930 . S
H1449 C1459 0.930 . S
C1450 H1444 0.930 . S
C1450 C1451 1.355 . S
C1450 C1452 1.415 . S
C1451 C1450 1.355 . S
C1451 C1453 1.419 . S
C1452 C1450 1.415 . S
C1452 C1457 1.425 . S
C1452 C1459 1.409 . S
C1453 H1445 0.930 . S
C1453 C1451 1.419 . S
C1453 C1454 1.362 . S
C1454 H1446 0.930 . S
C1454 C1453 1.362 . S
C1454 C1457 1.409 . S
C1455 H1447 0.930 . S
C1455 C1456 1.355 . S
C1455 C1457 1.415 . S
C1456 C1455 1.355 . S
C1456 C1458 1.419 . S
C1457 C1452 1.425 . S
C1457 C1454 1.409 . S
C1457 C1455 1.415 . S
C1458 H1448 0.930 . S
C1458 C1456 1.419 . S
C1458 C1459 1.362 . S
C1459 H1449 0.930 . S
C1459 C1452 1.409 . S
C1459 C1458 1.362 . S
H1460 C1466 0.930 . S
H1461 C1469 0.930 . S
H1462 C1470 0.930 . S
H1463 C1471 0.930 . S
H1464 C1474 0.930 . S
H1465 C1475 0.930 . S
C1466 H1460 0.930 . S
C1466 C1467 1.355 . S
C1466 C1468 1.415 . S
C1467 C1466 1.355 . S
C1467 C1469 1.419 . S
C1468 C1466 1.415 . S
C1468 C1473 1.425 . S
C1468 C1475 1.409 . S
C1469 H1461 0.930 . S
C1469 C1467 1.419 . S
C1469 C1470 1.362 . S
C1470 H1462 0.930 . S
C1470 C1469 1.362 . S
C1470 C1473 1.409 . S
C1471 H1463 0.930 . S
C1471 C1472 1.355 . S
C1471 C1473 1.415 . S
C1472 C1471 1.355 . S
C1472 C1474 1.419 . S
C1473 C1468 1.425 . S
C1473 C1470 1.409 . S
C1473 C1471 1.415 . S
C1474 H1464 0.930 . S
C1474 C1472 1.419 . S
C1474 C1475 1.362 . S
C1475 H1465 0.930 . S
C1475 C1468 1.409 . S
C1475 C1474 1.362 . S
H1476 C1482 0.930 . S
H1477 C1485 0.930 . S
H1478 C1486 0.930 . S
H1479 C1487 0.930 . S
H1480 C1490 0.930 . S
H1481 C1491 0.930 . S
C1482 H1476 0.930 . S
C1482 C1483 1.355 . S
C1482 C1484 1.415 . S
C1483 C1482 1.355 . S
C1483 C1485 1.419 . S
C1484 C1482 1.415 . S
C1484 C1489 1.425 . S
C1484 C1491 1.409 . S
C1485 H1477 0.930 . S
C1485 C1483 1.419 . S
C1485 C1486 1.362 . S
C1486 H1478 0.930 . S
C1486 C1485 1.362 . S
C1486 C1489 1.409 . S
C1487 H1479 0.930 . S
C1487 C1488 1.355 . S
C1487 C1489 1.415 . S
C1488 C1487 1.355 . S
C1488 C1490 1.419 . S
C1489 C1484 1.425 . S
C1489 C1486 1.409 . S
C1489 C1487 1.415 . S
C1490 H1480 0.930 . S
C1490 C1488 1.419 . S
C1490 C1491 1.362 . S
C1491 H1481 0.930 . S
C1491 C1484 1.409 . S
C1491 C1490 1.362 . S
H1492 C1498 0.930 . S
H1493 C1501 0.930 . S
H1494 C1502 0.930 . S
H1495 C1503 0.930 . S
H1496 C1506 0.930 . S
H1497 C1507 0.930 . S
C1498 H1492 0.930 . S
C1498 C1499 1.355 . S
C1498 C1500 1.415 . S
C1499 C1498 1.355 . S
C1499 C1501 1.419 . S
C1500 C1498 1.415 . S
C1500 C1505 1.425 . S
C1500 C1507 1.409 . S
C1501 H1493 0.930 . S
C1501 C1499 1.419 . S
C1501 C1502 1.362 . S
C1502 H1494 0.930 . S
C1502 C1501 1.362 . S
C1502 C1505 1.409 . S
C1503 H1495 0.930 . S
C1503 C1504 1.355 . S
C1503 C1505 1.415 . S
C1504 C1503 1.355 . S
C1504 C1506 1.419 . S
C1505 C1500 1.425 . S
C1505 C1502 1.409 . S
C1505 C1503 1.415 . S
C1506 H1496 0.930 . S
C1506 C1504 1.419 . S
C1506 C1507 1.362 . S
C1507 H1497 0.930 . S
C1507 C1500 1.409 . S
C1507 C1506 1.362 . S
H1508 C1514 0.930 . S
H1509 C1517 0.930 . S
H1510 C1518 0.930 . S
H1511 C1519 0.930 . S
H1512 C1522 0.930 . S
H1513 C1523 0.930 . S
C1514 H1508 0.930 . S
C1514 C1515 1.355 . S
C1514 C1516 1.415 . S
C1515 C1514 1.355 . S
C1515 C1517 1.419 . S
C1516 C1514 1.415 . S
C1516 C1521 1.425 . S
C1516 C1523 1.409 . S
C1517 H1509 0.930 . S
C1517 C1515 1.419 . S
C1517 C1518 1.362 . S
C1518 H1510 0.930 . S
C1518 C1517 1.362 . S
C1518 C1521 1.409 . S
C1519 H1511 0.930 . S
C1519 C1520 1.355 . S
C1519 C1521 1.415 . S
C1520 C1519 1.355 . S
C1520 C1522 1.419 . S
C1521 C1516 1.425 . S
C1521 C1518 1.409 . S
C1521 C1519 1.415 . S
C1522 H1512 0.930 . S
C1522 C1520 1.419 . S
C1522 C1523 1.362 . S
C1523 H1513 0.930 . S
C1523 C1516 1.409 . S
C1523 C1522 1.362 . S
H1524 C1530 0.930 . S
H1525 C1533 0.930 . S
H1526 C1534 0.930 . S
H1527 C1535 0.930 . S
H1528 C1538 0.930 . S
H1529 C1539 0.930 . S
C1530 H1524 0.930 . S
C1530 C1531 1.355 . S
C1530 C1532 1.415 . S
C1531 C1530 1.355 . S
C1531 C1533 1.419 . S
C1532 C1530 1.415 . S
C1532 C1537 1.425 1_455 S
C1532 C1539 1.409 1_455 S
C1533 H1525 0.930 . S
C1533 C1531 1.419 . S
C1533 C1534 1.362 . S
C1534 H1526 0.930 . S
C1534 C1533 1.362 . S
C1534 C1537 1.409 1_455 S
C1535 H1527 0.930 . S
C1535 C1536 1.355 . S
C1535 C1537 1.415 . S
C1536 C1535 1.355 . S
C1536 C1538 1.419 . S
C1537 C1532 1.425 1_655 S
C1537 C1534 1.409 1_655 S
C1537 C1535 1.415 . S
C1538 H1528 0.930 . S
C1538 C1536 1.419 . S
C1538 C1539 1.362 . S
C1539 H1529 0.930 . S
C1539 C1532 1.409 1_655 S
C1539 C1538 1.362 . S
H1540 C1546 0.930 . S
H1541 C1549 0.930 . S
H1542 C1550 0.930 . S
H1543 C1551 0.930 . S
H1544 C1554 0.930 . S
H1545 C1555 0.930 . S
C1546 H1540 0.930 . S
C1546 C1547 1.355 . S
C1546 C1548 1.415 . S
C1547 C1546 1.355 . S
C1547 C1549 1.419 . S
C1548 C1546 1.415 . S
C1548 C1553 1.425 . S
C1548 C1555 1.409 . S
C1549 H1541 0.930 . S
C1549 C1547 1.419 . S
C1549 C1550 1.362 . S
C1550 H1542 0.930 . S
C1550 C1549 1.362 . S
C1550 C1553 1.409 . S
C1551 H1543 0.930 . S
C1551 C1552 1.355 . S
C1551 C1553 1.415 . S
C1552 C1551 1.355 . S
C1552 C1554 1.419 . S
C1553 C1548 1.425 . S
C1553 C1550 1.409 . S
C1553 C1551 1.415 . S
C1554 H1544 0.930 . S
C1554 C1552 1.419 . S
C1554 C1555 1.362 . S
C1555 H1545 0.930 . S
C1555 C1548 1.409 . S
C1555 C1554 1.362 . S
H1556 C1562 0.930 . S
H1557 C1565 0.930 . S
H1558 C1566 0.930 . S
H1559 C1567 0.930 . S
H1560 C1570 0.930 . S
H1561 C1571 0.930 . S
C1562 H1556 0.930 . S
C1562 C1563 1.355 . S
C1562 C1564 1.415 . S
C1563 C1562 1.355 . S
C1563 C1565 1.419 . S
C1564 C1562 1.415 . S
C1564 C1569 1.425 1_545 S
C1564 C1571 1.409 . S
C1565 H1557 0.930 . S
C1565 C1563 1.419 . S
C1565 C1566 1.362 1_545 S
C1566 H1558 0.930 . S
C1566 C1565 1.362 1_565 S
C1566 C1569 1.409 . S
C1567 H1559 0.930 . S
C1567 C1568 1.355 . S
C1567 C1569 1.415 . S
C1568 C1567 1.355 . S
C1568 C1570 1.419 . S
C1569 C1564 1.425 1_565 S
C1569 C1566 1.409 . S
C1569 C1567 1.415 . S
C1570 H1560 0.930 . S
C1570 C1568 1.419 . S
C1570 C1571 1.362 1_565 S
C1571 H1561 0.930 . S
C1571 C1564 1.409 . S
C1571 C1570 1.362 1_545 S
H1572 C1578 0.930 . S
H1573 C1581 0.930 . S
H1574 C1582 0.932 1_565 S
H1575 C1583 0.930 . S
H1576 C1586 0.930 . S
H1577 C1587 0.932 1_545 S
C1578 H1572 0.930 . S
C1578 C1579 1.355 1_556 S
C1578 C1580 1.415 . S
C1579 C1578 1.355 1_554 S
C1579 C1581 1.419 . S
C1580 C1578 1.415 . S
C1580 C1585 1.425 1_546 S
C1580 C1587 1.411 1_545 S
C1581 H1573 0.930 . S
C1581 C1579 1.419 . S
C1581 C1582 1.359 . S
C1582 H1574 0.932 1_545 S
C1582 C1581 1.359 . S
C1582 C1585 1.411 1_545 S
C1583 H1575 0.930 . S
C1583 C1584 1.355 1_554 S
C1583 C1585 1.415 . S
C1584 C1583 1.355 1_556 S
C1584 C1586 1.419 . S
C1585 C1580 1.425 1_564 S
C1585 C1582 1.411 1_565 S
C1585 C1583 1.415 . S
C1586 H1576 0.930 . S
C1586 C1584 1.419 . S
C1586 C1587 1.359 . S
C1587 H1577 0.932 1_565 S
C1587 C1580 1.411 1_565 S
C1587 C1586 1.359 . S
H1588 C1594 0.930 . S
H1589 C1597 0.930 . S
H1590 C1598 0.930 . S
H1591 C1599 0.930 . S
H1592 C1602 0.930 . S
H1593 C1603 0.930 . S
C1594 H1588 0.930 . S
C1594 C1595 1.355 . S
C1594 C1596 1.415 . S
C1595 C1594 1.355 . S
C1595 C1597 1.419 . S
C1596 C1594 1.415 . S
C1596 C1601 1.425 1_654 S
C1596 C1603 1.409 . S
C1597 H1589 0.930 . S
C1597 C1595 1.419 . S
C1597 C1598 1.362 1_654 S
C1598 H1590 0.930 . S
C1598 C1597 1.362 1_456 S
C1598 C1601 1.409 . S
C1599 H1591 0.930 . S
C1599 C1600 1.355 . S
C1599 C1601 1.415 . S
C1600 C1599 1.355 . S
C1600 C1602 1.419 . S
C1601 C1596 1.425 1_456 S
C1601 C1598 1.409 . S
C1601 C1599 1.415 . S
C1602 H1592 0.930 . S
C1602 C1600 1.419 . S
C1602 C1603 1.362 1_456 S
C1603 H1593 0.930 . S
C1603 C1596 1.409 . S
C1603 C1602 1.362 1_654 S
H1604 C1610 0.930 . S
H1605 C1613 0.930 . S
H1606 C1614 0.930 . S
H1607 C1615 0.930 . S
H1608 C1618 0.930 . S
H1609 C1619 0.930 . S
C1610 H1604 0.930 . S
C1610 C1611 1.355 . S
C1610 C1612 1.415 . S
C1611 C1610 1.355 . S
C1611 C1613 1.419 1_554 S
C1612 C1610 1.415 . S
C1612 C1617 1.425 1_554 S
C1612 C1619 1.409 . S
C1613 H1605 0.930 . S
C1613 C1611 1.419 1_556 S
C1613 C1614 1.362 . S
C1614 H1606 0.930 . S
C1614 C1613 1.362 . S
C1614 C1617 1.409 . S
C1615 H1607 0.930 . S
C1615 C1616 1.355 . S
C1615 C1617 1.415 . S
C1616 C1615 1.355 . S
C1616 C1618 1.419 1_556 S
C1617 C1612 1.425 1_556 S
C1617 C1614 1.409 . S
C1617 C1615 1.415 . S
C1618 H1608 0.930 . S
C1618 C1616 1.419 1_554 S
C1618 C1619 1.362 . S
C1619 H1609 0.930 . S
C1619 C1612 1.409 . S
C1619 C1618 1.362 . S
C475 C138 1.076 . S
C480 C10 1.166 . S
C491 C151 1.091 . S
C496 C23 1.200 . S
C507 C36 1.190 . S
C512 C125 1.147 . S
C523 C49 1.198 . S
C528 C112 1.119 . S
C539 C62 1.187 . S
C544 C86 1.154 . S
C555 C99 1.079 . S
C560 C75 1.164 . S
C571 C60 1.121 . S
C576 C88 1.198 . S
C587 C73 1.167 . S
C592 C101 1.143 . S
C603 C114 1.188 . S
C608 C47 1.067 . S
C619 C34 1.180 . S
C624 C127 1.161 . S
C635 C140 1.141 . S
C640 C8 1.156 . S
C651 C153 1.147 . S
C656 C21 1.175 . S
C667 C294 1.067 . S
C672 C166 1.179 . S
C683 C307 1.092 . S
C688 C179 1.200 . S
C699 C192 1.200 . S
C704 C281 1.107 . S
C715 C205 1.149 . S
C720 C268 1.176 1_556 S
C731 C218 1.191 . S
C736 C242 1.069 1_556 S
C747 C231 1.179 . S
C752 C255 1.067 1_556 S
C763 C216 1.083 . S
C768 C244 1.198 . S
C779 C229 1.115 . S
C784 C257 1.199 . S
C795 C203 1.161 . S
C800 C270 1.142 . S
C811 C190 1.078 . S
C816 C283 1.165 . S
C827 C164 1.154 . S
C832 C296 1.141 . S
C843 C177 1.078 . S
C848 C309 1.197 . S
C859 C322 1.152 . S
C864 C450 1.179 . S
C875 C463 1.179 . S
C880 C335 1.152 . S
C891 C437 1.165 . S
C896 C348 1.143 . S
C907 C361 1.182 . S
C912 C424 1.066 . S
C923 C374 1.189 . S
C928 C398 1.150 . S
C939 C387 1.198 . S
C944 C411 1.084 . S
C955 C372 1.180 . S
C960 C400 1.158 . S
C971 C385 1.162 . S
C976 C413 1.183 . S
C987 C359 1.179 . S
C992 C426 1.152 . S
C1003 C439 1.156 . S
C1008 C346 1.091 1_554 S
C1019 C320 1.070 1_554 S
C1024 C452 1.173 . S
C1035 C465 1.171 . S
C1040 C333 1.072 1_554 S
C1051 C39 1.350 . S
C1056 C0 1.339 . S
C1067 C52 1.354 . S
C1072 C13 1.331 . S
C1083 C26 1.335 . S
C1088 C65 1.301 . S
C1099 C117 1.350 . S
C1104 C78 1.339 . S
C1115 C130 1.313 . S
C1120 C91 1.353 . S
C1131 C143 1.320 . S
C1136 C104 1.355 . S
C1147 C195 1.350 . S
C1152 C156 1.309 . S
C1163 C208 1.302 . S
C1168 C169 1.341 . S
C1179 C182 1.352 . S
C1184 C221 1.336 . S
C1195 C234 1.302 . S
C1200 C273 1.341 . S
C1211 C286 1.313 . S
C1216 C247 1.309 . S
C1227 C260 1.310 . S
C1232 C299 1.351 . S
C1243 C351 1.349 . S
C1248 C312 1.341 . S
C1259 C364 1.315 . S
C1264 C325 1.354 . S
C1275 C338 1.337 . S
C1280 C377 1.301 . S
C1291 C390 1.312 . S
C1296 C429 1.309 . S
C1307 C403 1.347 . S
C1312 C442 1.343 . S
C1323 C416 1.301 . S
C1328 C455 1.336 . S
C1339 C5 1.335 . S
C1344 C239 1.335 . S
C1355 C252 1.303 . S
C1360 C18 1.303 . S
C1371 C265 1.369 . S
C1376 C31 1.369 . S
C1387 C434 1.401 . S
C1392 C44 1.401 . S
C1403 C447 1.318 . S
C1408 C57 1.318 . S
C1419 C460 1.308 . S
C1424 C70 1.308 . S
C1435 C83 1.339 . S
C1440 C317 1.339 . S
C1451 C330 1.396 . S
C1456 C96 1.396 . S
C1467 C343 1.304 . S
C1472 C109 1.304 . S
C1483 C122 1.346 . S
C1488 C200 1.346 . S
C1499 C135 1.319 . S
C1504 C213 1.319 . S
C1515 C148 1.319 . S
C1520 C226 1.319 . S
C1531 C395 1.375 . S
C1536 C161 1.375 . S
C1547 C408 1.328 . S
C1552 C174 1.328 . S
C1563 C187 1.401 . S
C1568 C421 1.401 . S
C1579 C278 1.399 . S
C1584 C356 1.399 . S
C1595 C291 1.389 . S
C1600 C369 1.389 . S
C1611 C304 1.337 . S
C1616 C382 1.337 . S
