# Generated by pormake.
# Topology wlg, (5)-cn, num edge types: 1
# Building blocks:
#     Node 0, Type 0, BuildingBlock: BEQFEK_clean_sbu_0, # of connection points: 5
#     Node 1, Type 0, BuildingBlock: BEQFEK_clean_sbu_0, # of connection points: 5
#     Node 2, Type 0, BuildingBlock: BEQFEK_clean_sbu_0, # of connection points: 5
#     Node 3, Type 0, BuildingBlock: BEQFEK_clean_sbu_0, # of connection points: 5
#     Node 4, Type 0, BuildingBlock: BEQFEK_clean_sbu_0, # of connection points: 5
#     Node 5, Type 0, BuildingBlock: BEQFEK_clean_sbu_0, # of connection points: 5
#     Node 6, Type 0, BuildingBlock: BEQFEK_clean_sbu_0, # of connection points: 5
#     Node 7, Type 0, BuildingBlock: BEQFEK_clean_sbu_0, # of connection points: 5
#     Node 8, Type 0, BuildingBlock: BEQFEK_clean_sbu_0, # of connection points: 5
#     Node 9, Type 0, BuildingBlock: BEQFEK_clean_sbu_0, # of connection points: 5
#     Node 10, Type 0, BuildingBlock: BEQFEK_clean_sbu_0, # of connection points: 5
#     Node 11, Type 0, BuildingBlock: BEQFEK_clean_sbu_0, # of connection points: 5
#     Node 12, Type 0, BuildingBlock: BEQFEK_clean_sbu_0, # of connection points: 5
#     Node 13, Type 0, BuildingBlock: BEQFEK_clean_sbu_0, # of connection points: 5
#     Node 14, Type 0, BuildingBlock: BEQFEK_clean_sbu_0, # of connection points: 5
#     Node 15, Type 0, BuildingBlock: BEQFEK_clean_sbu_0, # of connection points: 5
#     Node 16, Type 0, BuildingBlock: BEQFEK_clean_sbu_0, # of connection points: 5
#     Node 17, Type 0, BuildingBlock: BEQFEK_clean_sbu_0, # of connection points: 5
#     Node 18, Type 0, BuildingBlock: BEQFEK_clean_sbu_0, # of connection points: 5
#     Node 19, Type 0, BuildingBlock: BEQFEK_clean_sbu_0, # of connection points: 5
#     Node 20, Type 0, BuildingBlock: BEQFEK_clean_sbu_0, # of connection points: 5
#     Node 21, Type 0, BuildingBlock: BEQFEK_clean_sbu_0, # of connection points: 5
#     Node 22, Type 0, BuildingBlock: BEQFEK_clean_sbu_0, # of connection points: 5
#     Node 23, Type 0, BuildingBlock: BEQFEK_clean_sbu_0, # of connection points: 5
#     Node 24, Type 0, BuildingBlock: BEQFEK_clean_sbu_0, # of connection points: 5
#     Node 25, Type 0, BuildingBlock: BEQFEK_clean_sbu_0, # of connection points: 5
#     Node 26, Type 0, BuildingBlock: BEQFEK_clean_sbu_0, # of connection points: 5
#     Node 27, Type 0, BuildingBlock: BEQFEK_clean_sbu_0, # of connection points: 5
#     Node 28, Type 0, BuildingBlock: BEQFEK_clean_sbu_0, # of connection points: 5
#     Node 29, Type 0, BuildingBlock: BEQFEK_clean_sbu_0, # of connection points: 5
#     Node 30, Type 0, BuildingBlock: BEQFEK_clean_sbu_0, # of connection points: 5
#     Node 31, Type 0, BuildingBlock: BEQFEK_clean_sbu_0, # of connection points: 5
#     Node 32, Type 0, BuildingBlock: BEQFEK_clean_sbu_0, # of connection points: 5
#     Node 33, Type 0, BuildingBlock: BEQFEK_clean_sbu_0, # of connection points: 5
#     Node 34, Type 0, BuildingBlock: BEQFEK_clean_sbu_0, # of connection points: 5
#     Node 35, Type 0, BuildingBlock: BEQFEK_clean_sbu_0, # of connection points: 5
#     Edge 36, Type (0, 0), BuildingBlock: UVAHIK_clean_linker_0, # of connection points: 2
#     Edge 37, Type (0, 0), BuildingBlock: UVAHIK_clean_linker_0, # of connection points: 2
#     Edge 38, Type (0, 0), BuildingBlock: UVAHIK_clean_linker_0, # of connection points: 2
#     Edge 39, Type (0, 0), BuildingBlock: UVAHIK_clean_linker_0, # of connection points: 2
#     Edge 40, Type (0, 0), BuildingBlock: UVAHIK_clean_linker_0, # of connection points: 2
#     Edge 41, Type (0, 0), BuildingBlock: UVAHIK_clean_linker_0, # of connection points: 2
#     Edge 42, Type (0, 0), BuildingBlock: UVAHIK_clean_linker_0, # of connection points: 2
#     Edge 43, Type (0, 0), BuildingBlock: UVAHIK_clean_linker_0, # of connection points: 2
#     Edge 44, Type (0, 0), BuildingBlock: UVAHIK_clean_linker_0, # of connection points: 2
#     Edge 45, Type (0, 0), BuildingBlock: UVAHIK_clean_linker_0, # of connection points: 2
#     Edge 46, Type (0, 0), BuildingBlock: UVAHIK_clean_linker_0, # of connection points: 2
#     Edge 47, Type (0, 0), BuildingBlock: UVAHIK_clean_linker_0, # of connection points: 2
#     Edge 48, Type (0, 0), BuildingBlock: UVAHIK_clean_linker_0, # of connection points: 2
#     Edge 49, Type (0, 0), BuildingBlock: UVAHIK_clean_linker_0, # of connection points: 2
#     Edge 50, Type (0, 0), BuildingBlock: UVAHIK_clean_linker_0, # of connection points: 2
#     Edge 51, Type (0, 0), BuildingBlock: UVAHIK_clean_linker_0, # of connection points: 2
#     Edge 52, Type (0, 0), BuildingBlock: UVAHIK_clean_linker_0, # of connection points: 2
#     Edge 53, Type (0, 0), BuildingBlock: UVAHIK_clean_linker_0, # of connection points: 2
#     Edge 54, Type (0, 0), BuildingBlock: UVAHIK_clean_linker_0, # of connection points: 2
#     Edge 55, Type (0, 0), BuildingBlock: UVAHIK_clean_linker_0, # of connection points: 2
#     Edge 56, Type (0, 0), BuildingBlock: UVAHIK_clean_linker_0, # of connection points: 2
#     Edge 57, Type (0, 0), BuildingBlock: UVAHIK_clean_linker_0, # of connection points: 2
#     Edge 58, Type (0, 0), BuildingBlock: UVAHIK_clean_linker_0, # of connection points: 2
#     Edge 59, Type (0, 0), BuildingBlock: UVAHIK_clean_linker_0, # of connection points: 2
#     Edge 60, Type (0, 0), BuildingBlock: UVAHIK_clean_linker_0, # of connection points: 2
#     Edge 61, Type (0, 0), BuildingBlock: UVAHIK_clean_linker_0, # of connection points: 2
#     Edge 62, Type (0, 0), BuildingBlock: UVAHIK_clean_linker_0, # of connection points: 2
#     Edge 63, Type (0, 0), BuildingBlock: UVAHIK_clean_linker_0, # of connection points: 2
#     Edge 64, Type (0, 0), BuildingBlock: UVAHIK_clean_linker_0, # of connection points: 2
#     Edge 65, Type (0, 0), BuildingBlock: UVAHIK_clean_linker_0, # of connection points: 2
#     Edge 66, Type (0, 0), BuildingBlock: UVAHIK_clean_linker_0, # of connection points: 2
#     Edge 67, Type (0, 0), BuildingBlock: UVAHIK_clean_linker_0, # of connection points: 2
#     Edge 68, Type (0, 0), BuildingBlock: UVAHIK_clean_linker_0, # of connection points: 2
#     Edge 69, Type (0, 0), BuildingBlock: UVAHIK_clean_linker_0, # of connection points: 2
#     Edge 70, Type (0, 0), BuildingBlock: UVAHIK_clean_linker_0, # of connection points: 2
#     Edge 71, Type (0, 0), BuildingBlock: UVAHIK_clean_linker_0, # of connection points: 2
#     Edge 72, Type (0, 0), BuildingBlock: UVAHIK_clean_linker_0, # of connection points: 2
#     Edge 73, Type (0, 0), BuildingBlock: UVAHIK_clean_linker_0, # of connection points: 2
#     Edge 74, Type (0, 0), BuildingBlock: UVAHIK_clean_linker_0, # of connection points: 2
#     Edge 75, Type (0, 0), BuildingBlock: UVAHIK_clean_linker_0, # of connection points: 2
#     Edge 76, Type (0, 0), BuildingBlock: UVAHIK_clean_linker_0, # of connection points: 2
#     Edge 77, Type (0, 0), BuildingBlock: UVAHIK_clean_linker_0, # of connection points: 2
#     Edge 78, Type (0, 0), BuildingBlock: UVAHIK_clean_linker_0, # of connection points: 2
#     Edge 79, Type (0, 0), BuildingBlock: UVAHIK_clean_linker_0, # of connection points: 2
#     Edge 80, Type (0, 0), BuildingBlock: UVAHIK_clean_linker_0, # of connection points: 2
#     Edge 81, Type (0, 0), BuildingBlock: UVAHIK_clean_linker_0, # of connection points: 2
#     Edge 82, Type (0, 0), BuildingBlock: UVAHIK_clean_linker_0, # of connection points: 2
#     Edge 83, Type (0, 0), BuildingBlock: UVAHIK_clean_linker_0, # of connection points: 2
#     Edge 84, Type (0, 0), BuildingBlock: UVAHIK_clean_linker_0, # of connection points: 2
#     Edge 85, Type (0, 0), BuildingBlock: UVAHIK_clean_linker_0, # of connection points: 2
#     Edge 86, Type (0, 0), BuildingBlock: UVAHIK_clean_linker_0, # of connection points: 2
#     Edge 87, Type (0, 0), BuildingBlock: UVAHIK_clean_linker_0, # of connection points: 2
#     Edge 88, Type (0, 0), BuildingBlock: UVAHIK_clean_linker_0, # of connection points: 2
#     Edge 89, Type (0, 0), BuildingBlock: UVAHIK_clean_linker_0, # of connection points: 2
#     Edge 90, Type (0, 0), BuildingBlock: UVAHIK_clean_linker_0, # of connection points: 2
#     Edge 91, Type (0, 0), BuildingBlock: UVAHIK_clean_linker_0, # of connection points: 2
#     Edge 92, Type (0, 0), BuildingBlock: UVAHIK_clean_linker_0, # of connection points: 2
#     Edge 93, Type (0, 0), BuildingBlock: UVAHIK_clean_linker_0, # of connection points: 2
#     Edge 94, Type (0, 0), BuildingBlock: UVAHIK_clean_linker_0, # of connection points: 2
#     Edge 95, Type (0, 0), BuildingBlock: UVAHIK_clean_linker_0, # of connection points: 2
#     Edge 96, Type (0, 0), BuildingBlock: UVAHIK_clean_linker_0, # of connection points: 2
#     Edge 97, Type (0, 0), BuildingBlock: UVAHIK_clean_linker_0, # of connection points: 2
#     Edge 98, Type (0, 0), BuildingBlock: UVAHIK_clean_linker_0, # of connection points: 2
#     Edge 99, Type (0, 0), BuildingBlock: UVAHIK_clean_linker_0, # of connection points: 2
#     Edge 100, Type (0, 0), BuildingBlock: UVAHIK_clean_linker_0, # of connection points: 2
#     Edge 101, Type (0, 0), BuildingBlock: UVAHIK_clean_linker_0, # of connection points: 2
#     Edge 102, Type (0, 0), BuildingBlock: UVAHIK_clean_linker_0, # of connection points: 2
#     Edge 103, Type (0, 0), BuildingBlock: UVAHIK_clean_linker_0, # of connection points: 2
#     Edge 104, Type (0, 0), BuildingBlock: UVAHIK_clean_linker_0, # of connection points: 2
#     Edge 105, Type (0, 0), BuildingBlock: UVAHIK_clean_linker_0, # of connection points: 2
#     Edge 106, Type (0, 0), BuildingBlock: UVAHIK_clean_linker_0, # of connection points: 2
#     Edge 107, Type (0, 0), BuildingBlock: UVAHIK_clean_linker_0, # of connection points: 2
#     Edge 108, Type (0, 0), BuildingBlock: UVAHIK_clean_linker_0, # of connection points: 2
#     Edge 109, Type (0, 0), BuildingBlock: UVAHIK_clean_linker_0, # of connection points: 2
#     Edge 110, Type (0, 0), BuildingBlock: UVAHIK_clean_linker_0, # of connection points: 2
#     Edge 111, Type (0, 0), BuildingBlock: UVAHIK_clean_linker_0, # of connection points: 2
#     Edge 112, Type (0, 0), BuildingBlock: UVAHIK_clean_linker_0, # of connection points: 2
#     Edge 113, Type (0, 0), BuildingBlock: UVAHIK_clean_linker_0, # of connection points: 2
#     Edge 114, Type (0, 0), BuildingBlock: UVAHIK_clean_linker_0, # of connection points: 2
#     Edge 115, Type (0, 0), BuildingBlock: UVAHIK_clean_linker_0, # of connection points: 2
#     Edge 116, Type (0, 0), BuildingBlock: UVAHIK_clean_linker_0, # of connection points: 2
#     Edge 117, Type (0, 0), BuildingBlock: UVAHIK_clean_linker_0, # of connection points: 2
#     Edge 118, Type (0, 0), BuildingBlock: UVAHIK_clean_linker_0, # of connection points: 2
#     Edge 119, Type (0, 0), BuildingBlock: UVAHIK_clean_linker_0, # of connection points: 2
#     Edge 120, Type (0, 0), BuildingBlock: UVAHIK_clean_linker_0, # of connection points: 2
#     Edge 121, Type (0, 0), BuildingBlock: UVAHIK_clean_linker_0, # of connection points: 2
#     Edge 122, Type (0, 0), BuildingBlock: UVAHIK_clean_linker_0, # of connection points: 2
#     Edge 123, Type (0, 0), BuildingBlock: UVAHIK_clean_linker_0, # of connection points: 2
#     Edge 124, Type (0, 0), BuildingBlock: UVAHIK_clean_linker_0, # of connection points: 2
#     Edge 125, Type (0, 0), BuildingBlock: UVAHIK_clean_linker_0, # of connection points: 2
# Relax obj value: 0.277
# Max RMSD: 0.180
# Mean RMSD: 0.179
data_MOF--net-wlg--node1-BEQFEK_clean_sbu_0--edge1-UVAHIK_clean_linker_0
_symmetry_space_group_name_H-M    P1
_symmetry_Int_Tables_number       1
_symmetry_cell_setting            triclinic
loop_
_symmetry_equiv_pos_as_xyz
'x, y, z'
_cell_length_a     69.533267
_cell_length_b     69.50014
_cell_length_c     90.241494
_cell_angle_alpha  90.020226
_cell_angle_beta   89.977863
_cell_angle_gamma 120.03292
loop_
_atom_site_label
_atom_site_type_symbol
_atom_site_fract_x
_atom_site_fract_y
_atom_site_fract_z
_atom_type_partial_charge
Co0 Co 0.96641 0.17019 0.13713 0.0
Co1 Co 0.01036 0.16839 0.13317 0.0
C2 C 0.96623 0.13147 0.12256 0.0
O3 O 0.95625 0.14151 0.12708 0.0
O4 O 0.98714 0.13995 0.12418 0.0
C5 C 0.92253 0.16352 0.13288 0.0
O6 O 0.92024 0.14806 0.12349 0.0
C7 C 0.04418 0.156 0.12638 0.0
C8 C 0.0754 0.18703 0.13135 0.0
C9 C 0.06717 0.16545 0.12637 0.0
N10 N 0.0392 0.1716 0.1305 0.0
N11 N 0.05793 0.18996 0.13375 0.0
C12 C 0.02718 0.13187 0.12499 0.0
H13 H 0.01297 0.12763 0.13247 0.0
H14 H 0.02113 0.12834 0.11339 0.0
H15 H 0.03418 0.12114 0.12799 0.0
C16 C 0.99218 0.21164 0.12021 0.0
N17 N 0.99032 0.1934 0.12675 0.0
N18 N 0.00846 0.19237 0.12427 0.0
C19 C 0.02211 0.20963 0.11551 0.0
C20 C 0.01238 0.22255 0.11288 0.0
C21 C 0.97442 0.21782 0.12052 0.0
H22 H 0.95883 0.20387 0.11599 0.0
H23 H 0.97907 0.233 0.11393 0.0
H24 H 0.97118 0.22047 0.13217 0.0
O25 O 0.97473 0.16805 0.15753 0.0
O26 O 0.0063 0.1678 0.15507 0.0
H27 H 0.05727 0.22448 0.11783 0.0
H28 H 0.04839 0.2227 0.0991 0.0
C29 C 0.04412 0.21383 0.10983 0.0
H30 H 0.04395 0.19794 0.1083 0.0
H31 H 0.05876 0.20429 0.13804 0.0
O32 O 0.94116 0.17549 0.13917 0.0
C33 C 0.9911 0.16737 0.16317 0.0
Co34 Co 0.81655 0.79355 0.13954 0.0
Co35 Co 0.82258 0.84113 0.13792 0.0
C36 C 0.85784 0.8312 0.12731 0.0
O37 O 0.84605 0.81067 0.13041 0.0
O38 O 0.85085 0.84468 0.12983 0.0
C39 C 0.81794 0.75398 0.13269 0.0
O40 O 0.83246 0.76637 0.12256 0.0
C41 C 0.83366 0.88284 0.1236 0.0
C42 C 0.82101 0.89809 0.13945 0.0
C43 C 0.83288 0.9021 0.12635 0.0
N44 N 0.82315 0.86842 0.13467 0.0
N45 N 0.81536 0.87749 0.14402 0.0
C46 C 0.84338 0.8776 0.11047 0.0
H47 H 0.83392 0.85949 0.10812 0.0
H48 H 0.84317 0.88695 0.10056 0.0
H49 H 0.86079 0.88223 0.11293 0.0
C50 C 0.77689 0.78283 0.12184 0.0
N51 N 0.79545 0.79741 0.12903 0.0
N52 N 0.79752 0.81728 0.12851 0.0
C53 C 0.78007 0.81591 0.12106 0.0
C54 C 0.76654 0.79406 0.11654 0.0
C55 C 0.76871 0.75843 0.12094 0.0
H56 H 0.76758 0.75176 0.13228 0.0
H57 H 0.78087 0.75576 0.11463 0.0
H58 H 0.75219 0.7492 0.11555 0.0
O59 O 0.81787 0.80266 0.16035 0.0
O60 O 0.82172 0.8363 0.1597 0.0
H61 H 0.77617 0.84275 0.12897 0.0
H62 H 0.76107 0.83016 0.11203 0.0
C63 C 0.77665 0.83519 0.11824 0.0
H64 H 0.79087 0.84798 0.11177 0.0
H65 H 0.80686 0.86991 0.15376 0.0
O66 O 0.80849 0.76211 0.14045 0.0
C67 C 0.81989 0.81975 0.16696 0.0
Co68 Co 0.19508 0.01886 0.14932 0.0
Co69 Co 0.14744 0.97853 0.14367 0.0
C70 C 0.15986 0.02506 0.13504 0.0
O71 O 0.17952 0.03249 0.13981 0.0
O72 O 0.14547 0.00442 0.13579 0.0
C73 C 0.23566 0.05881 0.14331 0.0
O74 O 0.22479 0.05985 0.13171 0.0
C75 C 0.10514 0.94828 0.1291 0.0
C76 C 0.09377 0.9174 0.14194 0.0
C77 C 0.08764 0.92667 0.1306 0.0
N78 N 0.12074 0.95168 0.13919 0.0
N79 N 0.11391 0.9331 0.14676 0.0
C80 C 0.10748 0.96522 0.11793 0.0
H81 H 0.12513 0.97552 0.11456 0.0
H82 H 0.09711 0.95715 0.10801 0.0
H83 H 0.10206 0.97625 0.12303 0.0
C84 C 0.20756 0.991 0.1318 0.0
N85 N 0.19226 0.9948 0.13811 0.0
N86 N 0.17232 0.97774 0.13564 0.0
C87 C 0.17435 0.96243 0.12768 0.0
C88 C 0.19672 0.97038 0.12499 0.0
C89 C 0.23209 0.00644 0.13295 0.0
H90 H 0.23662 0.01154 0.14466 0.0
H91 H 0.23669 0.02161 0.12636 0.0
H92 H 0.24162 -0.00138 0.12886 0.0
O93 O 0.183 0.00954 0.16937 0.0
O94 O 0.14939 0.9805 0.1657 0.0
H95 H 0.14751 0.92978 0.13212 0.0
H96 H 0.16069 0.9325 0.11439 0.0
C97 C 0.15526 0.94087 0.12246 0.0
H98 H 0.14259 0.94388 0.1172 0.0
H99 H 0.12283 0.93129 0.15542 0.0
O100 O 0.22633 0.0421 0.15186 0.0
C101 C 0.16463 0.99406 0.17436 0.0
Co102 Co 0.164 0.96812 0.35965 0.0
Co103 Co 0.16289 0.01265 0.3622 0.0
C104 C 0.12679 0.96952 0.37504 0.0
O105 O 0.13647 0.95906 0.37078 0.0
O106 O 0.13511 0.99022 0.37245 0.0
C107 C 0.15775 0.92442 0.36489 0.0
O108 O 0.14262 0.92236 0.37448 0.0
C109 C 0.15283 0.04773 0.37034 0.0
C110 C 0.17886 0.07653 0.35807 0.0
C111 C 0.16025 0.06981 0.36687 0.0
N112 N 0.16662 0.04178 0.36405 0.0
N113 N 0.18225 0.05915 0.35684 0.0
C114 C 0.13126 0.03154 0.37745 0.0
H115 H 0.12104 0.01834 0.36933 0.0
H116 H 0.13459 0.02364 0.38704 0.0
H117 H 0.12163 0.03937 0.38123 0.0
C118 C 0.20713 0.99552 0.37442 0.0
N119 N 0.18822 0.99297 0.36856 0.0
N120 N 0.18788 0.01167 0.36991 0.0
C121 C 0.20664 0.02673 0.37682 0.0
C122 C 0.21945 0.01701 0.37981 0.0
C123 C 0.21349 0.97789 0.37424 0.0
H124 H 0.21184 0.97137 0.36281 0.0
H125 H 0.20187 0.9639 0.38142 0.0
H126 H 0.23077 0.98427 0.37813 0.0
O127 O 0.15976 0.97453 0.3391 0.0
O128 O 0.16004 0.00651 0.34054 0.0
H129 H 0.21881 0.06082 0.37152 0.0
H130 H 0.2241 0.05621 0.39033 0.0
C131 C 0.21176 0.04958 0.38119 0.0
H132 H 0.19639 0.04933 0.38477 0.0
H133 H 0.19455 0.05878 0.35043 0.0
O134 O 0.1692 0.94275 0.35813 0.0
C135 C 0.15864 0.9904 0.33298 0.0
Co136 Co 0.01641 0.19975 0.34936 0.0
Co137 Co 0.97281 0.15337 0.35142 0.0
C138 C 0.01696 0.16038 0.36197 0.0
O139 O 0.0267 0.18098 0.35884 0.0
O140 O -0.00374 0.14775 0.35953 0.0
C141 C 0.0589 0.23774 0.35621 0.0
O142 O 0.06025 0.2247 0.36618 0.0
C143 C 0.93848 0.10896 0.36145 0.0
C144 C 0.90992 0.10341 0.34763 0.0
C145 C 0.91675 0.09325 0.3579 0.0
N146 N 0.94417 0.12755 0.35366 0.0
N147 N 0.92689 0.12424 0.34563 0.0
C148 C 0.95463 0.10547 0.37034 0.0
H149 H 0.96548 0.1028 0.36261 0.0
H150 H 0.96518 0.12049 0.37707 0.0
H151 H 0.94628 0.09086 0.37773 0.0
C152 C 0.9887 0.21334 0.36618 0.0
N153 N 0.99178 0.1978 0.35948 0.0
N154 N 0.97362 0.1783 0.36075 0.0
C155 C 0.95843 0.18078 0.3685 0.0
C156 C 0.96743 0.20308 0.37213 0.0
C157 C 0.00542 0.23766 0.36599 0.0
H158 H 0.01231 0.24268 0.35465 0.0
H159 H 0.01932 0.24089 0.37353 0.0
H160 H -0.00195 0.24788 0.36948 0.0
O161 O 0.0091 0.19048 0.32855 0.0
O162 O 0.97752 0.15831 0.32971 0.0
H163 H 0.92483 0.15695 0.36317 0.0
H164 H 0.92874 0.16687 0.38203 0.0
C165 C 0.93611 0.16201 0.37288 0.0
H166 H 0.93761 0.14757 0.37647 0.0
H167 H 0.92706 0.13585 0.33821 0.0
O168 O 0.04134 0.23058 0.34851 0.0
C169 C 0.99314 0.17376 0.32223 0.0
Co170 Co 0.79202 0.81808 0.35309 0.0
Co171 Co 0.83907 0.82311 0.35598 0.0
C172 C 0.83018 0.86008 0.36402 0.0
O173 O 0.80963 0.84841 0.361 0.0
O174 O 0.84319 0.85232 0.36242 0.0
C175 C 0.75321 0.82063 0.3597 0.0
O176 O 0.76558 0.83403 0.37033 0.0
C177 C 0.87976 0.83466 0.37169 0.0
C178 C 0.89621 0.82185 0.35702 0.0
C179 C 0.89931 0.83413 0.36984 0.0
N180 N 0.86606 0.82366 0.3604 0.0
N181 N 0.87583 0.81576 0.35175 0.0
C182 C 0.87359 0.8447 0.38418 0.0
H183 H 0.85536 0.83516 0.38604 0.0
H184 H 0.88238 0.84494 0.39451 0.0
H185 H 0.87821 0.86199 0.38127 0.0
C186 C 0.78 0.77908 0.37199 0.0
N187 N 0.79508 0.79744 0.36483 0.0
N188 N 0.81473 0.79908 0.36582 0.0
C189 C 0.81271 0.78157 0.37354 0.0
C190 C 0.79066 0.7684 0.37776 0.0
C191 C 0.75562 0.77109 0.37212 0.0
H192 H 0.74967 0.76992 0.36057 0.0
H193 H 0.7527 0.7834 0.37804 0.0
H194 H 0.74595 0.75464 0.37755 0.0
O195 O 0.80138 0.8174 0.33256 0.0
O196 O 0.8347 0.82059 0.33414 0.0
H197 H 0.83894 0.77647 0.36594 0.0
H198 H 0.82594 0.76188 0.38296 0.0
C199 C 0.83148 0.77743 0.37659 0.0
H200 H 0.8445 0.79157 0.38299 0.0
H201 H 0.86894 0.80696 0.34198 0.0
O202 O 0.76093 0.81108 0.35166 0.0
C203 C 0.81841 0.81853 0.32645 0.0
Co204 Co 0.01898 0.82118 0.85465 0.0
Co205 Co 0.97536 0.82378 0.85549 0.0
C206 C 0.01918 0.86127 0.86632 0.0
O207 O 0.02922 0.85068 0.86337 0.0
O208 O -0.00152 0.85284 0.86379 0.0
C209 C 0.06154 0.82648 0.86193 0.0
O210 O 0.06254 0.84099 0.87168 0.0
C211 C 0.94163 0.83174 0.86852 0.0
C212 C 0.91407 0.8158 0.85248 0.0
C213 C 0.92072 0.82847 0.8653 0.0
N214 N 0.94725 0.8218 0.85799 0.0
N215 N 0.93059 0.81204 0.84851 0.0
C216 C 0.95581 0.8434 0.88166 0.0
H217 H 0.96626 0.83605 0.88459 0.0
H218 H 0.94538 0.84236 0.89128 0.0
H219 H 0.96688 0.86114 0.87889 0.0
C220 C 0.99107 0.78048 0.87189 0.0
N221 N -0.00566 0.79901 0.86496 0.0
N222 N 0.97577 0.7997 0.86509 0.0
C223 C 0.95995 0.78143 0.87201 0.0
C224 C 0.96915 0.76872 0.87656 0.0
C225 C 0.00823 0.77356 0.87294 0.0
H226 H 0.01402 0.77266 0.86164 0.0
H227 H 0.02277 0.78634 0.8792 0.0
H228 H 0.00168 0.75719 0.87845 0.0
O229 O 0.01137 0.82147 0.83368 0.0
O230 O 0.98039 0.82321 0.83385 0.0
H231 H 0.92865 0.77457 0.86315 0.0
H232 H 0.92659 0.7607 0.88055 0.0
C233 C 0.93649 0.77624 0.87414 0.0
H234 H 0.93643 0.79016 0.88009 0.0
H235 H 0.93078 0.80342 0.8391 0.0
O236 O 0.04399 0.81545 0.85433 0.0
C237 C -0.00417 0.82232 0.82684 0.0
Co238 Co 0.17082 0.20421 0.86047 0.0
Co239 Co 0.16309 0.15592 0.86023 0.0
C240 C 0.12869 0.16627 0.87187 0.0
O241 O 0.14101 0.18694 0.86936 0.0
O242 O 0.13517 0.15253 0.86879 0.0
C243 C 0.17048 0.24378 0.86907 0.0
O244 O 0.15592 0.23093 0.87903 0.0
C245 C 0.15067 0.11216 0.8719 0.0
C246 C 0.1648 0.09938 0.85528 0.0
C247 C 0.1519 0.09348 0.868 0.0
N248 N 0.16197 0.12812 0.86182 0.0
N249 N 0.17061 0.1205 0.852 0.0
C250 C 0.13986 0.11536 0.88528 0.0
H251 H 0.149 0.13303 0.88881 0.0
H252 H 0.13937 0.1046 0.89453 0.0
H253 H 0.12263 0.11099 0.88247 0.0
C254 C 0.21038 0.21231 0.87756 0.0
N255 N 0.1915 0.19875 0.87026 0.0
N256 N 0.18846 0.17848 0.87015 0.0
C257 C 0.20543 0.17849 0.87737 0.0
C258 C 0.21985 0.19993 0.88232 0.0
C259 C 0.21966 0.23684 0.87906 0.0
H260 H 0.21987 0.24402 0.86805 0.0
H261 H 0.20867 0.23991 0.88641 0.0
H262 H 0.23675 0.24531 0.88365 0.0
O263 O 0.16918 0.19675 0.83927 0.0
O264 O 0.16406 0.16262 0.83876 0.0
H265 H 0.20908 0.15176 0.86894 0.0
H266 H 0.22179 0.16177 0.8869 0.0
C267 C 0.20738 0.15824 0.8798 0.0
H268 H 0.19203 0.14517 0.88517 0.0
H269 H 0.17991 0.12949 0.84283 0.0
O270 O 0.17968 0.23589 0.86083 0.0
C271 C 0.16644 0.17982 0.83209 0.0
Co272 Co 0.79334 0.96824 0.84968 0.0
Co273 Co 0.83994 0.0106 0.85462 0.0
C274 C 0.82925 0.96551 0.8658 0.0
O275 O 0.80943 0.95668 0.86101 0.0
O276 O 0.84301 0.98613 0.8639 0.0
C277 C 0.75321 0.92723 0.85541 0.0
O278 O 0.76393 0.92633 0.86713 0.0
C279 C 0.88159 0.04318 0.86896 0.0
C280 C 0.89186 0.07293 0.85507 0.0
C281 C 0.89849 0.06498 0.86693 0.0
N282 N 0.86588 0.03842 0.85866 0.0
N283 N 0.87203 0.05633 0.85047 0.0
C284 C 0.87985 0.02733 0.8808 0.0
H285 H 0.86229 0.01692 0.88431 0.0
H286 H 0.89019 0.03636 0.89054 0.0
H287 H 0.88563 0.01623 0.87631 0.0
C288 C 0.77864 -0.00384 0.86494 0.0
N289 N 0.79467 0.99281 0.8594 0.0
N290 N 0.81417 0.01062 0.86168 0.0
C291 C 0.81112 0.02595 0.86877 0.0
C292 C 0.78852 0.01727 0.87105 0.0
C293 C 0.75433 0.97972 0.86378 0.0
H294 H 0.75022 0.97368 0.85219 0.0
H295 H 0.75031 0.96522 0.87095 0.0
H296 H 0.74403 0.98705 0.86714 0.0
O297 O 0.80612 0.9762 0.82966 0.0
O298 O 0.83859 0.00704 0.83272 0.0
H299 H 0.83702 0.05892 0.86391 0.0
H300 H 0.82341 0.05635 0.88144 0.0
C301 C 0.8295 0.04813 0.87374 0.0
H302 H 0.84254 0.04609 0.87935 0.0
H303 H 0.8629 0.05706 0.84153 0.0
O304 O 0.76245 0.94405 0.84694 0.0
C305 C 0.82403 0.99203 0.82439 0.0
Co306 Co 0.82423 0.0211 0.64009 0.0
Co307 Co 0.82859 0.97874 0.6359 0.0
C308 C 0.86257 0.02311 0.62376 0.0
O309 O 0.85171 0.03217 0.6284 0.0
O310 O 0.85577 0.00261 0.62608 0.0
C311 C 0.826 0.06276 0.63455 0.0
O312 O 0.8396 0.06494 0.62374 0.0
C313 C 0.83776 0.94539 0.62296 0.0
C314 C 0.81819 0.91655 0.63758 0.0
C315 C 0.83292 0.92378 0.62578 0.0
N316 N 0.82665 0.95073 0.63277 0.0
N317 N 0.81482 0.93335 0.64138 0.0
C318 C 0.85199 0.96052 0.61084 0.0
H319 H 0.8448 0.9706 0.60671 0.0
H320 H 0.85349 0.95092 0.60152 0.0
H321 H 0.86878 0.97199 0.61531 0.0
C322 C 0.78066 0.99175 0.6262 0.0
N323 N 0.80064 -0.00414 0.63108 0.0
N324 N 0.80261 0.97821 0.62887 0.0
C325 C 0.78397 0.96232 0.62234 0.0
C326 C 0.7694 0.97033 0.6205 0.0
C327 C 0.77217 0.00761 0.62796 0.0
H328 H 0.77562 0.01448 0.63936 0.0
H329 H 0.78111 0.02167 0.62014 0.0
H330 H 0.75405 -0.0005 0.62585 0.0
O331 O 0.82945 0.01424 0.66036 0.0
O332 O 0.83125 0.98347 0.65766 0.0
H333 H 0.77666 0.9293 0.62731 0.0
H334 H 0.76668 0.93208 0.60943 0.0
C335 C 0.78052 0.94022 0.61749 0.0
H336 H 0.79591 0.94233 0.61229 0.0
H337 H 0.80488 0.93317 0.65011 0.0
O338 O 0.81721 0.04515 0.6423 0.0
C339 C 0.83169 -0.00138 0.66582 0.0
Co340 Co 0.96858 0.78679 0.64132 0.0
Co341 Co 0.00979 0.83453 0.63764 0.0
C342 C 0.96448 0.82444 0.62843 0.0
O343 O 0.95616 0.80438 0.63268 0.0
O344 O 0.98522 0.83816 0.62957 0.0
C345 C 0.92701 0.74781 0.63479 0.0
O346 O 0.9256 0.76015 0.6243 0.0
C347 C 0.04125 0.88182 0.63224 0.0
C348 C 0.07364 0.88368 0.63541 0.0
C349 C 0.06405 0.89644 0.63195 0.0
N350 N 0.03765 0.8613 0.63513 0.0
N351 N 0.05708 0.86261 0.63727 0.0
C352 C 0.02318 0.88757 0.63212 0.0
H353 H 0.00952 0.87631 0.63962 0.0
H354 H 0.01653 0.88558 0.6207 0.0
H355 H 0.02936 0.90489 0.63585 0.0
C356 C -0.00426 0.77513 0.6224 0.0
N357 N 0.99271 0.79008 0.62997 0.0
N358 N 0.00976 0.81015 0.62776 0.0
C359 C 0.02388 0.80857 0.61824 0.0
C360 C 0.01561 0.78637 0.61475 0.0
C361 C 0.98011 0.75058 0.62294 0.0
H362 H 0.97454 0.74539 0.63451 0.0
H363 H 0.96524 0.74648 0.61614 0.0
H364 H 0.98797 0.74118 0.61867 0.0
O365 O 0.97757 0.79589 0.66185 0.0
O366 O 0.00628 0.82993 0.65951 0.0
H367 H 0.05868 0.83209 0.6177 0.0
H368 H 0.04616 0.82352 0.59979 0.0
C369 C 0.04357 0.82786 0.61118 0.0
H370 H 0.04121 0.84248 0.61062 0.0
H371 H 0.059 0.84924 0.64041 0.0
O372 O 0.94453 0.75561 0.64259 0.0
C373 C 0.99283 0.81371 0.66757 0.0
Co374 Co 0.19556 0.17587 0.64784 0.0
Co375 Co 0.1481 0.1693 0.64295 0.0
C376 C 0.15742 0.13211 0.63836 0.0
O377 O 0.17761 0.14456 0.64202 0.0
O378 O 0.14393 0.13946 0.63805 0.0
C379 C 0.23351 0.1718 0.64201 0.0
O380 O 0.22067 0.15806 0.63168 0.0
C381 C 0.10683 0.1572 0.62732 0.0
C382 C 0.09357 0.17519 0.64 0.0
C383 C 0.08884 0.16058 0.62829 0.0
N384 N 0.12139 0.16907 0.63803 0.0
N385 N 0.11344 0.17991 0.64553 0.0
C386 C 0.11068 0.14364 0.61611 0.0
H387 H 0.12874 0.15103 0.61396 0.0
H388 H 0.1019 0.14255 0.6056 0.0
H389 H 0.10427 0.12663 0.62052 0.0
C390 C 0.20735 0.21217 0.62643 0.0
N391 N 0.19233 0.19457 0.63425 0.0
N392 N 0.17251 0.1922 0.63232 0.0
C393 C 0.17431 0.20842 0.62324 0.0
C394 C 0.19648 0.22164 0.61922 0.0
C395 C 0.23162 0.21967 0.62603 0.0
H396 H 0.23382 0.20527 0.62355 0.0
H397 H 0.24053 0.23267 0.61752 0.0
H398 H 0.23897 0.22618 0.6371 0.0
O399 O 0.18659 0.17973 0.66775 0.0
O400 O 0.15254 0.17427 0.66474 0.0
H401 H 0.14774 0.21333 0.6303 0.0
H402 H 0.1611 0.22809 0.61359 0.0
C403 C 0.15554 0.21243 0.61981 0.0
H404 H 0.1428 0.1983 0.61324 0.0
H405 H 0.12141 0.19021 0.65457 0.0
O406 O 0.22653 0.18244 0.64962 0.0
C407 C 0.169 0.17841 0.67303 0.0
Co408 Co 0.63329 0.51035 0.4791 0.0
Co409 Co 0.67465 0.50458 0.47369 0.0
C410 C 0.62871 0.46702 0.46888 0.0
O411 O 0.62072 0.47904 0.47312 0.0
O412 O 0.6496 0.47479 0.46811 0.0
C413 C 0.59057 0.50493 0.47349 0.0
O414 O 0.58968 0.49102 0.46328 0.0
C415 C 0.70642 0.48964 0.46618 0.0
C416 C 0.73858 0.52067 0.46881 0.0
C417 C 0.72928 0.49847 0.46496 0.0
N418 N 0.7025 0.5061 0.46995 0.0
N419 N 0.72182 0.52448 0.47178 0.0
C420 C 0.6888 0.46559 0.46609 0.0
H421 H 0.67621 0.46243 0.47471 0.0
H422 H 0.68051 0.46131 0.45511 0.0
H423 H 0.69577 0.45464 0.46841 0.0
C424 C 0.65683 0.54688 0.45783 0.0
N425 N 0.65509 0.52961 0.46563 0.0
N426 N 0.67226 0.52706 0.46277 0.0
C427 C 0.68513 0.54234 0.45255 0.0
C428 C 0.67596 0.55562 0.4493 0.0
C429 C 0.64026 0.55461 0.45853 0.0
H430 H 0.62371 0.54073 0.45529 0.0
H431 H 0.64471 0.56888 0.45104 0.0
H432 H 0.63902 0.5593 0.4701 0.0
O433 O 0.64566 0.51427 0.49901 0.0
O434 O 0.67407 0.50873 0.49562 0.0
H435 H 0.72032 0.55627 0.45347 0.0
H436 H 0.70954 0.55188 0.43506 0.0
C437 C 0.70621 0.54476 0.44636 0.0
H438 H 0.70527 0.52839 0.44589 0.0
H439 H 0.72357 0.53954 0.47538 0.0
O440 O 0.60835 0.51606 0.48087 0.0
C441 C 0.66182 0.51269 0.50412 0.0
Co442 Co 0.48364 0.12296 0.47532 0.0
Co443 Co 0.48701 0.16952 0.47202 0.0
C444 C 0.52422 0.16213 0.46273 0.0
O445 O 0.51337 0.14187 0.46671 0.0
O446 O 0.51606 0.17487 0.4641 0.0
C447 C 0.48951 0.08568 0.46944 0.0
O448 O 0.50336 0.09861 0.45918 0.0
C449 C 0.50082 0.21634 0.46607 0.0
C450 C 0.47015 0.21727 0.47091 0.0
C451 C 0.492 0.23042 0.46637 0.0
N452 N 0.48468 0.19571 0.46965 0.0
N453 N 0.46651 0.1965 0.4728 0.0
C454 C 0.52482 0.22288 0.46496 0.0
H455 H 0.52857 0.21314 0.47299 0.0
H456 H 0.52829 0.21929 0.4536 0.0
H457 H 0.53595 0.24073 0.46748 0.0
C458 C 0.44412 0.10909 0.45675 0.0
N459 N 0.46194 0.12487 0.464 0.0
N460 N 0.46339 0.14433 0.46199 0.0
C461 C 0.4467 0.14151 0.45292 0.0
C462 C 0.43378 0.11904 0.44952 0.0
C463 C 0.43767 0.08507 0.45648 0.0
H464 H 0.4337 0.0783 0.46791 0.0
H465 H 0.45194 0.08355 0.45251 0.0
H466 H 0.42322 0.07516 0.44914 0.0
O467 O 0.48309 0.13167 0.49588 0.0
O468 O 0.48583 0.16469 0.49387 0.0
H469 H 0.43213 0.1619 0.45611 0.0
H470 H 0.43408 0.15594 0.43711 0.0
C471 C 0.44279 0.1598 0.4479 0.0
H472 H 0.45879 0.17554 0.44679 0.0
H473 H 0.45183 0.18301 0.47671 0.0
O474 O 0.47833 0.09235 0.47675 0.0
C475 C 0.4842 0.14878 0.50178 0.0
Co476 Co 0.86469 0.35615 0.47668 0.0
Co477 Co 0.81697 0.31524 0.47243 0.0
C478 C 0.82741 0.36148 0.46491 0.0
O479 O 0.8476 0.36933 0.46866 0.0
O480 O 0.81351 0.34073 0.46577 0.0
C481 C 0.90418 0.39716 0.4702 0.0
O482 O 0.89207 0.39866 0.45959 0.0
C483 C 0.77331 0.28437 0.45971 0.0
C484 C 0.76412 0.25351 0.47205 0.0
C485 C 0.75633 0.26259 0.46162 0.0
N486 N 0.79018 0.28805 0.46874 0.0
N487 N 0.78465 0.26949 0.476 0.0
C488 C 0.77402 0.3012 0.44907 0.0
H489 H 0.79122 0.31193 0.44496 0.0
H490 H 0.76276 0.29301 0.43953 0.0
H491 H 0.76871 0.31181 0.45489 0.0
C492 C 0.87623 0.32882 0.45764 0.0
N493 N 0.86133 0.33234 0.46484 0.0
N494 N 0.84128 0.3153 0.46272 0.0
C495 C 0.84275 0.30043 0.45391 0.0
C496 C 0.86496 0.30847 0.45044 0.0
C497 C 0.90083 0.34409 0.45852 0.0
H498 H 0.90564 0.3498 0.47011 0.0
H499 H 0.90548 0.35892 0.45153 0.0
H500 H 0.91012 0.33587 0.45473 0.0
O501 O 0.85469 0.34647 0.49704 0.0
O502 O 0.82111 0.31699 0.49436 0.0
H503 H 0.81661 0.26715 0.45766 0.0
H504 H 0.82772 0.27215 0.43906 0.0
C505 C 0.82319 0.27938 0.44847 0.0
H506 H 0.80991 0.28271 0.44484 0.0
H507 H 0.79474 0.26787 0.48388 0.0
O508 O 0.89596 0.37987 0.47826 0.0
C509 C 0.837 0.33068 0.50257 0.0
Co510 Co 0.82899 0.29681 0.68821 0.0
Co511 Co 0.8275 0.34092 0.69114 0.0
C512 C 0.79056 0.2969 0.70243 0.0
O513 O 0.80061 0.28669 0.69846 0.0
O514 O 0.79899 0.31769 0.70015 0.0
C515 C 0.82332 0.25332 0.69295 0.0
O516 O 0.80816 0.25099 0.70261 0.0
C517 C 0.82097 0.37468 0.70573 0.0
C518 C 0.83344 0.40129 0.68891 0.0
C519 C 0.82269 0.39504 0.70249 0.0
N520 N 0.8298 0.36904 0.69446 0.0
N521 N 0.83757 0.38519 0.68455 0.0
C522 C 0.81159 0.36085 0.71936 0.0
H523 H 0.82023 0.35138 0.72165 0.0
H524 H 0.81319 0.37143 0.72903 0.0
H525 H 0.79377 0.34875 0.71756 0.0
C526 C 0.871 0.32369 0.7046 0.0
N527 N 0.85237 0.32111 0.69823 0.0
N528 N 0.85203 0.33982 0.6993 0.0
C529 C 0.87064 0.35507 0.70621 0.0
C530 C 0.88329 0.34534 0.70983 0.0
C531 C 0.87628 0.30538 0.70611 0.0
H532 H 0.88172 0.30243 0.6952 0.0
H533 H 0.86113 0.28983 0.70947 0.0
H534 H 0.88951 0.30945 0.71443 0.0
O535 O 0.82642 0.30481 0.66761 0.0
O536 O 0.82661 0.33674 0.66937 0.0
H537 H 0.87394 0.38534 0.69775 0.0
H538 H 0.89441 0.38943 0.71152 0.0
C539 C 0.87677 0.37885 0.70825 0.0
H540 H 0.86594 0.37986 0.71687 0.0
H541 H 0.84479 0.38475 0.67451 0.0
O542 O 0.83462 0.27176 0.68629 0.0
C543 C 0.82588 0.32109 0.66162 0.0
Co544 Co 0.68802 0.53291 0.69141 0.0
Co545 Co 0.64547 0.48582 0.69169 0.0
C546 C 0.68963 0.49346 0.7027 0.0
O547 O 0.69906 0.51414 0.69992 0.0
O548 O 0.66903 0.48062 0.70007 0.0
C549 C 0.72996 0.57084 0.69915 0.0
O550 O 0.73129 0.55737 0.70877 0.0
C551 C 0.61227 0.44283 0.70357 0.0
C552 C 0.58585 0.43082 0.68665 0.0
C553 C 0.59214 0.42451 0.69951 0.0
N554 N 0.61777 0.4589 0.69344 0.0
N555 N 0.60174 0.45177 0.68347 0.0
C556 C 0.62582 0.44555 0.7171 0.0
H557 H 0.63526 0.4633 0.72043 0.0
H558 H 0.61505 0.43536 0.72637 0.0
H559 H 0.6379 0.44005 0.71457 0.0
C560 C 0.65876 0.54381 0.70878 0.0
N561 N 0.66274 0.52924 0.70157 0.0
N562 N 0.6447 0.50952 0.70169 0.0
C563 C 0.62856 0.51091 0.70903 0.0
C564 C 0.63695 0.5327 0.71379 0.0
C565 C 0.67515 0.56817 0.7098 0.0
H566 H 0.68219 0.57461 0.69867 0.0
H567 H 0.68903 0.57073 0.71715 0.0
H568 H 0.66748 0.5777 0.71413 0.0
O569 O 0.68124 0.52558 0.67033 0.0
O570 O 0.65102 0.49225 0.67009 0.0
H571 H 0.59713 0.48552 0.70091 0.0
H572 H 0.5958 0.49604 0.71903 0.0
C573 C 0.60578 0.4916 0.71169 0.0
H574 H 0.60713 0.47788 0.71688 0.0
H575 H 0.60208 0.46088 0.67418 0.0
O576 O 0.7124 0.56401 0.69151 0.0
C577 C 0.66624 0.50903 0.66327 0.0
Co578 Co 0.45489 0.14994 0.68857 0.0
Co579 Co 0.50199 0.15482 0.69021 0.0
C580 C 0.49353 0.19121 0.70028 0.0
O581 O 0.47301 0.1799 0.69707 0.0
O582 O 0.50645 0.18343 0.6982 0.0
C583 C 0.41663 0.15284 0.69646 0.0
O584 O 0.42964 0.16616 0.7069 0.0
C585 C 0.54277 0.16388 0.70491 0.0
C586 C 0.55894 0.15338 0.68826 0.0
C587 C 0.56221 0.16354 0.70199 0.0
N588 N 0.52897 0.15478 0.69336 0.0
N589 N 0.53856 0.14824 0.68351 0.0
C590 C 0.53691 0.17208 0.71855 0.0
H591 H 0.51869 0.16248 0.72042 0.0
H592 H 0.54574 0.17066 0.72836 0.0
H593 H 0.54176 0.18975 0.71703 0.0
C594 C 0.44336 0.10949 0.70595 0.0
N595 N 0.45822 0.12846 0.69925 0.0
N596 N 0.47792 0.13014 0.69967 0.0
C597 C 0.4762 0.11213 0.70653 0.0
C598 C 0.4542 0.09842 0.71075 0.0
C599 C 0.41928 0.10231 0.70767 0.0
H600 H 0.41762 0.11657 0.71151 0.0
H601 H 0.41092 0.08849 0.71573 0.0
H602 H 0.41096 0.09695 0.69674 0.0
O603 O 0.46344 0.15035 0.66765 0.0
O604 O 0.49695 0.15388 0.66851 0.0
H605 H 0.50334 0.11038 0.69678 0.0
H606 H 0.48883 0.08974 0.71089 0.0
C607 C 0.4948 0.10722 0.70762 0.0
H608 H 0.50703 0.11849 0.71592 0.0
H609 H 0.53155 0.14104 0.67333 0.0
O610 O 0.42377 0.14316 0.68801 0.0
C611 C 0.48048 0.15207 0.66116 0.0
Co612 Co 0.68524 0.15003 0.18505 0.0
Co613 Co 0.64098 0.15154 0.18508 0.0
C614 C 0.68466 0.1905 0.19492 0.0
O615 O 0.69494 0.17987 0.19293 0.0
O616 O 0.66398 0.18164 0.19215 0.0
C617 C 0.7284 0.15674 0.19241 0.0
O618 O 0.72975 0.17252 0.20111 0.0
C619 C 0.60615 0.15973 0.19632 0.0
C620 C 0.58017 0.14316 0.17926 0.0
C621 C 0.58565 0.15645 0.19178 0.0
N622 N 0.61249 0.14901 0.18685 0.0
N623 N 0.59665 0.13872 0.17688 0.0
C624 C 0.6209 0.1752 0.20812 0.0
H625 H 0.63359 0.17083 0.21144 0.0
H626 H 0.61119 0.1745 0.21803 0.0
H627 H 0.62929 0.19246 0.20381 0.0
C628 C 0.65792 0.11044 0.20359 0.0
N629 N 0.66076 0.12819 0.19582 0.0
N630 N 0.64208 0.12866 0.19581 0.0
C631 C 0.62662 0.11104 0.20347 0.0
C632 C 0.63615 0.09889 0.20866 0.0
C633 C 0.67597 0.10509 0.20627 0.0
H634 H 0.69143 0.12041 0.20952 0.0
H635 H 0.67139 0.09243 0.2151 0.0
H636 H 0.67935 0.09884 0.19583 0.0
O637 O 0.67785 0.14947 0.16385 0.0
O638 O 0.6458 0.14914 0.16368 0.0
H639 H 0.5963 0.10499 0.19335 0.0
H640 H 0.59227 0.08851 0.20967 0.0
C641 C 0.60278 0.10507 0.20458 0.0
H642 H 0.60161 0.11786 0.21126 0.0
H643 H 0.59769 0.12972 0.16796 0.0
O644 O 0.71054 0.14465 0.18532 0.0
C645 C 0.66174 0.14898 0.15686 0.0
Co646 Co 0.83272 0.53275 0.18823 0.0
Co647 Co 0.82961 0.48617 0.18808 0.0
C648 C 0.79347 0.49299 0.20099 0.0
O649 O 0.804 0.5136 0.1979 0.0
O650 O 0.80137 0.48043 0.19779 0.0
C651 C 0.82717 0.57 0.19524 0.0
O652 O 0.81146 0.55606 0.20419 0.0
C653 C 0.8199 0.44139 0.19685 0.0
C654 C 0.83947 0.43495 0.18034 0.0
C655 C 0.82424 0.4251 0.19171 0.0
N656 N 0.83201 0.45996 0.18886 0.0
N657 N 0.84396 0.4561 0.17918 0.0
C658 C 0.80204 0.43845 0.2074 0.0
H659 H 0.78723 0.43541 0.2009 0.0
H660 H 0.80777 0.4538 0.21404 0.0
H661 H 0.7971 0.42422 0.21497 0.0
C662 C 0.87421 0.54497 0.20423 0.0
N663 N 0.85548 0.52995 0.1974 0.0
N664 N 0.85448 0.51053 0.19733 0.0
C665 C 0.87269 0.51261 0.20413 0.0
C666 C 0.88584 0.53456 0.20868 0.0
C667 C 0.8803 0.56864 0.20679 0.0
H668 H 0.86558 0.56924 0.21091 0.0
H669 H 0.894 0.57695 0.21493 0.0
H670 H 0.88542 0.57777 0.19612 0.0
O671 O 0.83056 0.52507 0.1671 0.0
O672 O 0.82848 0.49222 0.16664 0.0
H673 H 0.87922 0.48874 0.19398 0.0
H674 H 0.89382 0.49951 0.21115 0.0
C675 C 0.87795 0.49425 0.20528 0.0
H676 H 0.86423 0.4799 0.21113 0.0
H677 H 0.85424 0.46753 0.17123 0.0
O678 O 0.83892 0.56369 0.18828 0.0
C679 C 0.82894 0.50857 0.15995 0.0
Co680 Co 0.45698 0.30019 0.1934 0.0
Co681 Co 0.50329 0.3434 0.19548 0.0
C682 C 0.49615 0.29863 0.20486 0.0
O683 O 0.47549 0.28901 0.20202 0.0
O684 O 0.50866 0.31939 0.20266 0.0
C685 C 0.41887 0.25833 0.2007 0.0
O686 O 0.4315 0.25787 0.21136 0.0
C687 C 0.54486 0.37515 0.20944 0.0
C688 C 0.55847 0.40332 0.19379 0.0
C689 C 0.56355 0.3956 0.20653 0.0
N690 N 0.52978 0.37087 0.19878 0.0
N691 N 0.53784 0.38791 0.18957 0.0
C692 C 0.54078 0.36008 0.22236 0.0
H693 H 0.52279 0.35077 0.22508 0.0
H694 H 0.55039 0.3697 0.23219 0.0
H695 H 0.54593 0.34784 0.21944 0.0
C696 C 0.4439 0.32776 0.21093 0.0
N697 N 0.4593 0.32445 0.20425 0.0
N698 N 0.47879 0.34268 0.2052 0.0
C699 C 0.47644 0.35826 0.21253 0.0
C700 C 0.45425 0.34933 0.2164 0.0
C701 C 0.41956 0.31118 0.21082 0.0
H702 H 0.41426 0.30503 0.19935 0.0
H703 H 0.41643 0.29674 0.21779 0.0
H704 H 0.4095 0.31836 0.21499 0.0
O705 O 0.46597 0.3086 0.1726 0.0
O706 O 0.49817 0.3402 0.17375 0.0
H707 H 0.50157 0.39027 0.20506 0.0
H708 H 0.48985 0.39063 0.22293 0.0
C709 C 0.49513 0.38122 0.21567 0.0
H710 H 0.50883 0.38021 0.22118 0.0
H711 H 0.52964 0.3886 0.18009 0.0
O712 O 0.42621 0.27536 0.19245 0.0
C713 C 0.48244 0.32485 0.16628 0.0
Co714 Co 0.4807 0.35061 0.9795 0.0
Co715 Co 0.4861 0.3085 0.97793 0.0
C716 C 0.52277 0.35396 0.96892 0.0
O717 O 0.51086 0.36268 0.97163 0.0
O718 O 0.51536 0.33327 0.97093 0.0
C719 C 0.48372 0.39214 0.97215 0.0
O720 O 0.49843 0.39364 0.9624 0.0
C721 C 0.49755 0.27639 0.96573 0.0
C722 C 0.48281 0.24968 0.98247 0.0
C723 C 0.49614 0.25652 0.96994 0.0
N724 N 0.4858 0.28113 0.97541 0.0
N725 N 0.4766 0.26482 0.98518 0.0
C726 C 0.51225 0.29213 0.95402 0.0
H727 H 0.5296 0.30113 0.95816 0.0
H728 H 0.50685 0.30423 0.95119 0.0
H729 H 0.51188 0.28305 0.94384 0.0
C730 C 0.44148 0.32196 0.96116 0.0
N731 N 0.46001 0.32591 0.96837 0.0
N732 N 0.46208 0.30812 0.96769 0.0
C733 C 0.44476 0.29213 0.96009 0.0
C734 C 0.43108 0.30037 0.95573 0.0
C735 C 0.4341 0.33871 0.95951 0.0
H736 H 0.44836 0.35481 0.95593 0.0
H737 H 0.42052 0.33335 0.95128 0.0
H738 H 0.42836 0.3413 0.97041 0.0
O739 O 0.48075 0.34247 0.00039 0.0
O740 O 0.48348 0.31202 -0.00044 0.0
H741 H 0.44066 0.26204 0.96941 0.0
H742 H 0.42428 0.25784 0.95298 0.0
C743 C 0.44048 0.26889 0.95835 0.0
H744 H 0.45401 0.26917 0.95166 0.0
H745 H 0.46719 0.26471 0.99422 0.0
O746 O 0.47342 0.37464 0.97993 0.0
C747 C 0.48183 0.3268 0.00687 0.0
Co748 Co 0.63783 0.12837 0.97017 0.0
Co749 Co 0.68291 0.17353 0.96826 0.0
C750 C 0.63934 0.1693 0.95874 0.0
O751 O 0.62873 0.14871 0.96188 0.0
O752 O 0.66028 0.18092 0.9607 0.0
C753 C 0.59345 0.09271 0.96469 0.0
O754 O 0.59213 0.10691 0.95575 0.0
C755 C 0.71789 0.21958 0.96217 0.0
C756 C 0.74842 0.21885 0.96785 0.0
C757 C 0.7409 0.23268 0.96268 0.0
N758 N 0.71219 0.19878 0.96624 0.0
N759 N 0.73051 0.19858 0.96986 0.0
C760 C 0.70142 0.2273 0.96032 0.0
H761 H 0.68793 0.21894 0.96858 0.0
H762 H 0.69417 0.22288 0.94904 0.0
H763 H 0.70904 0.24545 0.96201 0.0
C764 C 0.66221 0.11354 0.95111 0.0
N765 N 0.66119 0.12942 0.95899 0.0
N766 N 0.68002 0.14834 0.95761 0.0
C767 C 0.69349 0.14511 0.94842 0.0
C768 C 0.68271 0.12289 0.94416 0.0
C769 C 0.64343 0.09012 0.94984 0.0
H770 H 0.64 0.08209 0.96089 0.0
H771 H 0.62825 0.09025 0.94621 0.0
H772 H 0.64711 0.08031 0.94181 0.0
O773 O 0.64638 0.13622 0.99094 0.0
O774 O 0.67876 0.16749 0.98997 0.0
H775 H 0.72821 0.16405 0.95295 0.0
H776 H 0.72199 0.15874 0.93369 0.0
C777 C 0.71647 0.16272 0.94417 0.0
H778 H 0.7172 0.17892 0.9429 0.0
H779 H 0.73074 0.18474 0.97411 0.0
O780 O 0.61177 0.09817 0.97106 0.0
C781 C 0.66303 0.15204 0.99736 0.0
Co782 Co 0.86875 0.51134 0.97707 0.0
Co783 Co 0.8208 0.50224 0.97032 0.0
C784 C 0.83226 0.46687 0.96622 0.0
O785 O 0.85175 0.47991 0.97102 0.0
O786 O 0.81812 0.47328 0.96483 0.0
C787 C 0.90752 0.50888 0.97136 0.0
O788 O 0.89536 0.4958 0.96053 0.0
C789 C 0.77349 0.48446 0.96337 0.0
C790 C 0.77072 0.51474 0.96442 0.0
C791 C 0.75849 0.49207 0.96181 0.0
N792 N 0.7937 0.502 0.96616 0.0
N793 N 0.79181 0.51995 0.96706 0.0
C794 C 0.76828 0.46084 0.96468 0.0
H795 H 0.77927 0.45957 0.97303 0.0
H796 H 0.77113 0.4552 0.95382 0.0
H797 H 0.75085 0.4497 0.96817 0.0
C798 C 0.88067 0.54758 0.9558 0.0
N799 N 0.86543 0.52972 0.9633 0.0
N800 N 0.84537 0.52565 0.95974 0.0
C801 C 0.84733 0.54045 0.94929 0.0
C802 C 0.86975 0.55508 0.9467 0.0
C803 C 0.90521 0.55708 0.95736 0.0
H804 H 0.90997 0.56101 0.96918 0.0
H805 H 0.90955 0.54445 0.95383 0.0
H806 H 0.91478 0.57219 0.9505 0.0
O807 O 0.85908 0.51464 0.99671 0.0
O808 O 0.82446 0.50644 0.99232 0.0
H809 H 0.82468 0.55274 0.94814 0.0
H810 H 0.83223 0.54695 0.93048 0.0
C811 C 0.82824 0.54101 0.94206 0.0
H812 H 0.81333 0.52421 0.94197 0.0
H813 H 0.80478 0.53567 0.96994 0.0
O814 O 0.89981 0.51861 0.97924 0.0
C815 C 0.8405 0.5116 0.00126 0.0
Co816 Co 0.29888 0.84291 0.81018 0.0
Co817 Co 0.33787 0.83279 0.80846 0.0
C818 C 0.29104 0.79811 0.80134 0.0
O819 O 0.28414 0.81155 0.80409 0.0
O820 O 0.31155 0.80408 0.8024 0.0
C821 C 0.25925 0.84275 0.80187 0.0
O822 O 0.25787 0.82843 0.79182 0.0
C823 C 0.36674 0.81761 0.79598 0.0
C824 C 0.39597 0.83358 0.81072 0.0
C825 C 0.38704 0.81902 0.79887 0.0
N826 N 0.36375 0.83041 0.80579 0.0
N827 N 0.38136 0.84009 0.81449 0.0
C828 C 0.35079 0.80528 0.78372 0.0
H829 H 0.3386 0.78835 0.78762 0.0
H830 H 0.34157 0.81387 0.78054 0.0
H831 H 0.35965 0.80388 0.77391 0.0
C832 C 0.32801 0.87876 0.78965 0.0
N833 N 0.32324 0.86082 0.7979 0.0
N834 N 0.33986 0.85688 0.79721 0.0
C835 C 0.35586 0.87232 0.78846 0.0
C836 C 0.34883 0.88664 0.78335 0.0
C837 C 0.31355 0.88902 0.78887 0.0
H838 H 0.30818 0.89043 0.8002 0.0
H839 H 0.29844 0.87801 0.78235 0.0
H840 H 0.32225 0.90573 0.7837 0.0
O841 O 0.30839 0.84512 0.83087 0.0
O842 O 0.33569 0.83742 0.83009 0.0
H843 H 0.387 0.8762 0.79536 0.0
H844 H 0.38733 0.88633 0.77682 0.0
C845 C 0.37731 0.87315 0.785 0.0
H846 H 0.37381 0.8569 0.78047 0.0
H847 H 0.38316 0.85072 0.82322 0.0
O848 O 0.27626 0.85204 0.81016 0.0
C849 C 0.32301 0.8423 0.83736 0.0
Co850 Co 0.1476 0.4573 0.80623 0.0
Co851 Co 0.14943 0.50322 0.80376 0.0
C852 C 0.18704 0.49696 0.79331 0.0
O853 O 0.17658 0.47648 0.79681 0.0
O854 O 0.17857 0.50931 0.79541 0.0
C855 C 0.15443 0.42034 0.80094 0.0
O856 O 0.16958 0.43364 0.79144 0.0
C857 C 0.16179 0.54966 0.7981 0.0
C858 C 0.13038 0.54933 0.80252 0.0
C859 C 0.15222 0.56308 0.79817 0.0
N860 N 0.14609 0.52882 0.80161 0.0
N861 N 0.12747 0.52885 0.80452 0.0
C862 C 0.18599 0.55697 0.79712 0.0
H863 H 0.19 0.5472 0.80495 0.0
H864 H 0.18989 0.55407 0.78569 0.0
H865 H 0.19657 0.57479 0.79995 0.0
C866 C 0.10663 0.44256 0.78901 0.0
N867 N 0.12473 0.45855 0.79593 0.0
N868 N 0.1258 0.47787 0.79409 0.0
C869 C 0.10864 0.47476 0.78545 0.0
C870 C 0.0958 0.45231 0.78216 0.0
C871 C 0.09954 0.41839 0.78958 0.0
H872 H 0.10097 0.41369 0.8011 0.0
H873 H 0.11082 0.41535 0.78251 0.0
H874 H 0.08219 0.40779 0.78572 0.0
O875 O 0.14916 0.46656 0.8269 0.0
O876 O 0.14913 0.49837 0.82557 0.0
H877 H 0.09456 0.49592 0.78648 0.0
H878 H 0.09746 0.48807 0.76808 0.0
C879 C 0.10556 0.49295 0.77911 0.0
H880 H 0.12179 0.50845 0.77794 0.0
H881 H 0.11292 0.51501 0.80825 0.0
O882 O 0.14252 0.42681 0.80751 0.0
C883 C 0.14953 0.48311 0.83313 0.0
Co884 Co 0.52525 0.68641 0.80913 0.0
Co885 Co 0.47922 0.64245 0.80673 0.0
C886 C 0.48604 0.68636 0.79571 0.0
O887 O 0.50644 0.69642 0.79936 0.0
O888 O 0.47361 0.66558 0.798 0.0
C889 C 0.56324 0.72879 0.80197 0.0
O890 O 0.55063 0.72939 0.79135 0.0
C891 C 0.43503 0.60785 0.7966 0.0
C892 C 0.42974 0.57913 0.81015 0.0
C893 C 0.41952 0.58596 0.79994 0.0
N894 N 0.4536 0.61363 0.80442 0.0
N895 N 0.45043 0.59626 0.81232 0.0
C896 C 0.43129 0.62406 0.78799 0.0
H897 H 0.42977 0.63544 0.7959 0.0
H898 H 0.44579 0.63404 0.78069 0.0
H899 H 0.41602 0.61587 0.78118 0.0
C900 C 0.53966 0.65886 0.79279 0.0
N901 N 0.52384 0.66182 0.79918 0.0
N902 N 0.50449 0.6435 0.79783 0.0
C903 C 0.50733 0.62836 0.79031 0.0
C904 C 0.52973 0.63752 0.78695 0.0
C905 C 0.56391 0.67575 0.79318 0.0
H906 H 0.56859 0.68286 0.80449 0.0
H907 H 0.5672 0.68949 0.78546 0.0
H908 H 0.57432 0.66846 0.79002 0.0
O909 O 0.51568 0.67904 0.82987 0.0
O910 O 0.48364 0.64736 0.82849 0.0
H911 H 0.48379 0.59462 0.79556 0.0
H912 H 0.49396 0.5987 0.77677 0.0
C913 C 0.48883 0.60591 0.78586 0.0
H914 H 0.47431 0.60718 0.78214 0.0
H915 H 0.46205 0.59646 0.81973 0.0
O916 O 0.55587 0.71168 0.81016 0.0
C917 C 0.4989 0.663 0.83607 0.0
Co918 Co 0.50126 0.63445 0.02128 0.0
Co919 Co 0.49972 0.67856 0.02523 0.0
C920 C 0.46296 0.63473 0.0362 0.0
O921 O 0.47277 0.62462 0.03151 0.0
O922 O 0.4715 0.65564 0.03456 0.0
C923 C 0.49507 0.59107 0.02694 0.0
O924 O 0.48131 0.59016 0.03726 0.0
C925 C 0.48771 0.71266 0.03194 0.0
C926 C 0.51864 0.74372 0.0265 0.0
C927 C 0.49719 0.73566 0.03169 0.0
N928 N 0.50315 0.70752 0.02773 0.0
N929 N 0.52145 0.72615 0.02422 0.0
C930 C 0.46362 0.69576 0.03373 0.0
H931 H 0.46054 0.68983 0.04537 0.0
H932 H 0.45283 0.70279 0.03099 0.0
H933 H 0.45904 0.68144 0.02627 0.0
C934 C 0.54284 0.6602 0.03815 0.0
N935 N 0.52469 0.65842 0.03153 0.0
N936 N 0.52376 0.67663 0.03396 0.0
C937 C 0.54097 0.69026 0.04274 0.0
C938 C 0.55376 0.68041 0.04548 0.0
C939 C 0.5488 0.64228 0.03803 0.0
H940 H 0.55084 0.6384 0.0264 0.0
H941 H 0.53499 0.62698 0.04299 0.0
H942 H 0.56424 0.64711 0.04434 0.0
O943 O 0.49895 0.64256 0.00081 0.0
O944 O 0.4986 0.67407 0.00337 0.0
H945 H 0.55565 0.72539 0.04029 0.0
H946 H 0.55426 0.71672 0.05905 0.0
C947 C 0.54519 0.71231 0.04839 0.0
H948 H 0.5293 0.7121 0.05 0.0
H949 H 0.53566 0.72683 0.01985 0.0
O950 O 0.50605 0.60882 0.0195 0.0
C951 C 0.49811 0.65888 0.99523 0.0
Co952 Co 0.35636 0.87442 0.02292 0.0
Co953 Co 0.31555 0.8263 0.02635 0.0
C954 C 0.36175 0.83598 0.03235 0.0
O955 O 0.36952 0.85625 0.0288 0.0
O956 O 0.34093 0.82231 0.03229 0.0
C957 C 0.39852 0.91259 0.02913 0.0
O958 O 0.40065 0.89914 0.03833 0.0
C959 C 0.28457 0.77879 0.03226 0.0
C960 C 0.25206 0.77654 0.02878 0.0
C961 C 0.26177 0.76405 0.03266 0.0
N962 N 0.28801 0.79913 0.02892 0.0
N963 N 0.26851 0.79754 0.02656 0.0
C964 C 0.30277 0.77321 0.03268 0.0
H965 H 0.31584 0.78352 0.02454 0.0
H966 H 0.31025 0.77675 0.04392 0.0
H967 H 0.29658 0.75554 0.02989 0.0
C968 C 0.33054 0.88468 0.04398 0.0
N969 N 0.33331 0.87007 0.03584 0.0
N970 N 0.31625 0.84994 0.03781 0.0
C971 C 0.30232 0.85113 0.04774 0.0
C972 C 0.31076 0.87324 0.05175 0.0
C973 C 0.3468 0.9091 0.04436 0.0
H974 H 0.36338 0.9118 0.04752 0.0
H975 H 0.34186 0.91793 0.05241 0.0
H976 H 0.34823 0.91617 0.03312 0.0
O977 O 0.34556 0.86695 0.00257 0.0
O978 O 0.31739 0.83254 0.00461 0.0
H979 H 0.26744 0.82922 0.04519 0.0
H980 H 0.27629 0.83448 0.06406 0.0
C981 C 0.28093 0.8317 0.05287 0.0
H982 H 0.28231 0.81651 0.05318 0.0
H983 H 0.26645 0.81072 0.02311 0.0
O984 O 0.38036 0.9057 0.02217 0.0
C985 C 0.33002 0.84942 0.99674 0.0
Co986 Co 0.12624 0.48576 0.01933 0.0
Co987 Co 0.17373 0.49182 0.02184 0.0
C988 C 0.16425 0.5283 0.02992 0.0
O989 O 0.14377 0.51612 0.02689 0.0
O990 O 0.17774 0.52106 0.02847 0.0
C991 C 0.08742 0.48696 0.02779 0.0
O992 O 0.10005 0.49941 0.03869 0.0
C993 C 0.21517 0.50315 0.03659 0.0
C994 C 0.23041 0.48976 0.02132 0.0
C995 C 0.23435 0.50207 0.03422 0.0
N996 N 0.20089 0.49238 0.02552 0.0
N997 N 0.20995 0.48416 0.0165 0.0
C998 C 0.20982 0.51334 0.0494 0.0
H999 H 0.19163 0.50437 0.05142 0.0
H1000 H 0.21863 0.51294 0.05955 0.0
H1001 H 0.21506 0.53085 0.04674 0.0
C1002 C 0.11545 0.44734 0.03854 0.0
N1003 N 0.13008 0.46557 0.03105 0.0
N1004 N 0.14996 0.46776 0.032 0.0
C1005 C 0.14856 0.45076 0.04003 0.0
C1006 C 0.12668 0.43739 0.0445 0.0
C1007 C 0.09097 0.4388 0.03892 0.0
H1008 H 0.08482 0.43817 0.02748 0.0
H1009 H 0.08776 0.45046 0.04542 0.0
H1010 H 0.08168 0.42201 0.04393 0.0
O1011 O 0.13501 0.4854 -0.00136 0.0
O1012 O 0.16846 0.48882 6e-05 0.0
H1013 H 0.17518 0.44618 0.03256 0.0
H1014 H 0.16267 0.43207 0.0498 0.0
C1015 C 0.16775 0.44731 0.04317 0.0
H1016 H 0.18064 0.46182 0.04937 0.0
H1017 H 0.20246 0.47536 0.00683 0.0
O1018 O 0.09509 0.47851 0.01872 0.0
C1019 C 0.15208 0.48673 0.99246 0.0
Co1020 Co 0.3476 0.48283 0.52012 0.0
Co1021 Co 0.30456 0.48615 0.52216 0.0
C1022 C 0.34956 0.52347 0.5318 0.0
O1023 O 0.35924 0.5125 0.52897 0.0
O1024 O 0.32886 0.51522 0.52945 0.0
C1025 C 0.38832 0.48499 0.5283 0.0
O1026 O 0.38801 0.4972 0.53932 0.0
C1027 C 0.27448 0.49644 0.53764 0.0
C1028 C 0.24678 0.48601 0.52186 0.0
C1029 C 0.25505 0.49698 0.53522 0.0
N1030 N 0.27776 0.48617 0.52614 0.0
N1031 N 0.26096 0.4796 0.51683 0.0
C1032 C 0.28957 0.50498 0.5508 0.0
H1033 H 0.29774 0.49494 0.55259 0.0
H1034 H 0.28019 0.50453 0.56088 0.0
H1035 H 0.30275 0.52237 0.54877 0.0
C1036 C 0.31989 0.44239 0.53791 0.0
N1037 N 0.3232 0.46092 0.53095 0.0
N1038 N 0.30492 0.46211 0.53169 0.0
C1039 C 0.28927 0.44424 0.53903 0.0
C1040 C 0.29829 0.43121 0.54326 0.0
C1041 C 0.33665 0.43489 0.5384 0.0
H1042 H 0.343 0.43528 0.52706 0.0
H1043 H 0.3509 0.44659 0.54535 0.0
H1044 H 0.32953 0.41784 0.54295 0.0
O1045 O 0.33916 0.48375 0.49931 0.0
O1046 O 0.3076 0.48444 0.50042 0.0
H1047 H 0.25806 0.43926 0.53125 0.0
H1048 H 0.25609 0.42419 0.5481 0.0
C1049 C 0.26625 0.4399 0.54194 0.0
H1050 H 0.26715 0.4538 0.54852 0.0
H1051 H 0.25975 0.47177 0.50674 0.0
O1052 O 0.37215 0.47645 0.51927 0.0
C1053 C 0.32299 0.48411 0.49297 0.0
Co1054 Co 0.51083 0.86847 0.52442 0.0
Co1055 Co 0.50149 0.81966 0.52696 0.0
C1056 C 0.46669 0.8315 0.53438 0.0
O1057 O 0.47986 0.8519 0.53149 0.0
O1058 O 0.47283 0.81713 0.53303 0.0
C1059 C 0.51088 0.90842 0.53207 0.0
O1060 O 0.49702 0.89607 0.54251 0.0
C1061 C 0.48586 0.77525 0.53904 0.0
C1062 C 0.50399 0.76323 0.52531 0.0
C1063 C 0.48793 0.75671 0.53627 0.0
N1064 N 0.4997 0.79171 0.52997 0.0
N1065 N 0.51071 0.78453 0.52191 0.0
C1066 C 0.47175 0.77782 0.55051 0.0
H1067 H 0.48014 0.7952 0.55463 0.0
H1068 H 0.46841 0.76631 0.55993 0.0
H1069 H 0.45573 0.7741 0.54544 0.0
C1070 C 0.54753 0.87656 0.54461 0.0
N1071 N 0.52951 0.86293 0.53657 0.0
N1072 N 0.5256 0.84241 0.53781 0.0
C1073 C 0.54101 0.84231 0.5468 0.0
C1074 C 0.55541 0.86395 0.55142 0.0
C1075 C 0.55776 0.90131 0.54481 0.0
H1076 H 0.55808 0.90743 0.53342 0.0
H1077 H 0.5474 0.90578 0.55176 0.0
H1078 H 0.57493 0.90965 0.54926 0.0
O1079 O 0.51216 0.86017 0.50376 0.0
O1080 O 0.50549 0.82553 0.50528 0.0
H1081 H 0.54604 0.81523 0.54136 0.0
H1082 H 0.55358 0.82511 0.5602 0.0
C1083 C 0.54151 0.82179 0.55116 0.0
H1084 H 0.52477 0.8089 0.5549 0.0
H1085 H 0.52229 0.79395 0.51377 0.0
O1086 O 0.5197 0.90019 0.5238 0.0
C1087 C 0.50962 0.84257 0.49763 0.0
Co1088 Co 0.13053 0.63622 0.52008 0.0
Co1089 Co 0.17612 0.68083 0.52171 0.0
C1090 C 0.17001 0.63803 0.53439 0.0
O1091 O 0.14971 0.62754 0.53051 0.0
O1092 O 0.18233 0.6587 0.53162 0.0
C1093 C 0.09349 0.59289 0.52663 0.0
O1094 O 0.10691 0.59166 0.53633 0.0
C1095 C 0.22008 0.71714 0.5311 0.0
C1096 C 0.22384 0.74457 0.51673 0.0
C1097 C 0.23473 0.73915 0.52734 0.0
N1098 N 0.20132 0.71008 0.52322 0.0
N1099 N 0.20367 0.72658 0.5147 0.0
C1100 C 0.22482 0.70192 0.54012 0.0
H1101 H 0.22477 0.68921 0.53265 0.0
H1102 H 0.21144 0.69321 0.54844 0.0
H1103 H 0.24111 0.71063 0.54576 0.0
C1104 C 0.11539 0.66358 0.53556 0.0
N1105 N 0.13149 0.66095 0.52934 0.0
N1106 N 0.1505 0.67977 0.53016 0.0
C1107 C 0.14706 0.69508 0.53693 0.0
C1108 C 0.12465 0.68532 0.54052 0.0
C1109 C 0.09179 0.64528 0.53711 0.0
H1110 H 0.09144 0.63025 0.5416 0.0
H1111 H 0.08215 0.65 0.54457 0.0
H1112 H 0.08388 0.64104 0.526 0.0
O1113 O 0.13981 0.64271 0.49924 0.0
O1114 O 0.1716 0.67467 0.50014 0.0
H1115 H 0.16933 0.72688 0.52776 0.0
H1116 H 0.15885 0.72841 0.54556 0.0
C1117 C 0.1646 0.71895 0.53882 0.0
H1118 H 0.17953 0.71998 0.54403 0.0
H1119 H 0.19181 0.72529 0.50707 0.0
O1120 O 0.10004 0.61067 0.51927 0.0
C1121 C 0.15639 0.65863 0.49281 0.0
Co1122 Co 0.1474 0.68945 0.30736 0.0
Co1123 Co 0.15085 0.64644 0.30444 0.0
C1124 C 0.18904 0.69209 0.29702 0.0
O1125 O 0.17779 0.70159 0.29953 0.0
O1126 O 0.18058 0.67121 0.29872 0.0
C1127 C 0.15148 0.73203 0.30195 0.0
O1128 O 0.16635 0.73424 0.29209 0.0
C1129 C 0.16291 0.61671 0.28997 0.0
C1130 C 0.14718 0.58695 0.30425 0.0
C1131 C 0.16139 0.59624 0.29225 0.0
N1132 N 0.15065 0.61954 0.3003 0.0
N1133 N 0.14098 0.60155 0.30867 0.0
C1134 C 0.17519 0.6332 0.27795 0.0
H1135 H 0.16636 0.64228 0.27502 0.0
H1136 H 0.17686 0.62481 0.26797 0.0
H1137 H 0.192 0.64553 0.28195 0.0
C1138 C 0.10818 0.663 0.28826 0.0
N1139 N 0.12635 0.6659 0.29552 0.0
N1140 N 0.12779 0.64781 0.29424 0.0
C1141 C 0.11056 0.63276 0.28612 0.0
C1142 C 0.09754 0.64187 0.28208 0.0
C1143 C 0.10036 0.67952 0.28844 0.0
H1144 H 0.09978 0.68449 0.30004 0.0
H1145 H 0.11245 0.69465 0.28233 0.0
H1146 H 0.08367 0.67276 0.28338 0.0
O1147 O 0.14689 0.67944 0.32792 0.0
O1148 O 0.14741 0.64786 0.32612 0.0
H1149 H 0.10326 0.60024 0.29267 0.0
H1150 H 0.09278 0.60127 0.27449 0.0
C1151 C 0.10676 0.61014 0.28236 0.0
H1152 H 0.12202 0.61171 0.27731 0.0
H1153 H 0.13095 0.59967 0.31779 0.0
O1154 O 0.1408 0.71386 0.309 0.0
C1155 C 0.14672 0.66277 0.3339 0.0
Co1156 Co 0.29899 0.4633 0.30603 0.0
Co1157 Co 0.34332 0.50899 0.30463 0.0
C1158 C 0.29956 0.50334 0.29407 0.0
O1159 O 0.28924 0.48268 0.29701 0.0
O1160 O 0.3203 0.5154 0.29663 0.0
C1161 C 0.25562 0.42627 0.29987 0.0
O1162 O 0.25411 0.43993 0.29051 0.0
C1163 C 0.3774 0.551 0.29188 0.0
C1164 C 0.40505 0.56152 0.30774 0.0
C1165 C 0.39846 0.56836 0.29527 0.0
N1166 N 0.37168 0.53487 0.302 0.0
N1167 N 0.38839 0.54113 0.31135 0.0
C1168 C 0.36303 0.54945 0.27909 0.0
H1169 H 0.35258 0.53186 0.2756 0.0
H1170 H 0.37329 0.5596 0.26963 0.0
H1171 H 0.35191 0.55575 0.28255 0.0
C1172 C 0.32587 0.44934 0.28861 0.0
N1173 N 0.32325 0.46497 0.29558 0.0
N1174 N 0.34199 0.48407 0.295 0.0
C1175 C 0.35727 0.48117 0.28772 0.0
C1176 C 0.34755 0.45903 0.28343 0.0
C1177 C 0.30774 0.42571 0.28681 0.0
H1178 H 0.30446 0.41713 0.29767 0.0
H1179 H 0.29227 0.42528 0.28324 0.0
H1180 H 0.31217 0.41676 0.27855 0.0
O1181 O 0.30682 0.47194 0.32692 0.0
O1182 O 0.33895 0.50362 0.3263 0.0
H1183 H 0.38791 0.50592 0.2972 0.0
H1184 H 0.39139 0.49241 0.28124 0.0
C1185 C 0.38111 0.49886 0.28614 0.0
H1186 H 0.38221 0.51246 0.2791 0.0
H1187 H 0.38811 0.53182 0.3205 0.0
O1188 O 0.27366 0.43263 0.30687 0.0
C1189 C 0.32306 0.48803 0.33352 0.0
Co1190 Co 0.53339 0.84173 0.31046 0.0
Co1191 Co 0.48563 0.83559 0.30932 0.0
C1192 C 0.49459 0.80001 0.29865 0.0
O1193 O 0.51506 0.81189 0.3019 0.0
O1194 O 0.48101 0.80699 0.30091 0.0
C1195 C 0.57181 0.83921 0.30187 0.0
O1196 O 0.55872 0.82549 0.29162 0.0
C1197 C 0.43964 0.8229 0.3014 0.0
C1198 C 0.43536 0.84794 0.3138 0.0
C1199 C 0.42428 0.82944 0.30479 0.0
N1200 N 0.45898 0.83706 0.308 0.0
N1201 N 0.45635 0.85208 0.31528 0.0
C1202 C 0.43543 0.802 0.2938 0.0
H1203 H 0.44803 0.8061 0.28499 0.0
H1204 H 0.41857 0.79268 0.28894 0.0
H1205 H 0.43726 0.79115 0.30201 0.0
C1206 C 0.54368 0.88119 0.29258 0.0
N1207 N 0.52931 0.86279 0.30003 0.0
N1208 N 0.50926 0.86024 0.29924 0.0
C1209 C 0.51023 0.87693 0.29105 0.0
C1210 C 0.53207 0.89077 0.28661 0.0
C1211 C 0.56818 0.88988 0.29196 0.0
H1212 H 0.57432 0.88898 0.30313 0.0
H1213 H 0.57147 0.87925 0.2844 0.0
H1214 H 0.57741 0.90732 0.288 0.0
O1215 O 0.52594 0.84136 0.33144 0.0
O1216 O 0.49201 0.83665 0.33096 0.0
H1217 H 0.48592 0.88599 0.29643 0.0
H1218 H 0.49413 0.89012 0.27722 0.0
C1219 C 0.4905 0.879 0.28692 0.0
H1220 H 0.4762 0.8624 0.28426 0.0
H1221 H 0.4687 0.86473 0.32169 0.0
O1222 O 0.56455 0.84877 0.31032 0.0
C1223 C 0.50885 0.83908 0.33813 0.0
C1224 C 0.1007 0.16189 0.1309 0.0
C1225 C 0.08053 0.15464 0.12342 0.0
C1226 C 0.11233 0.15046 0.12934 0.0
C1227 C 0.11397 0.1049 0.10799 0.0
H1228 H 0.13939 0.09883 0.1447 0.0
C1229 C 0.13242 0.0341 0.12345 0.0
C1230 C 0.15342 0.0412 0.12973 0.0
C1231 C 0.1257 0.04952 0.12007 0.0
C1232 C 0.13255 0.10056 0.13433 0.0
H1233 H 0.0584 0.13159 0.10684 0.0
H1234 H 0.07749 0.11051 0.10506 0.0
H1235 H 0.12402 0.12335 0.14378 0.0
H1236 H 0.18429 0.07021 0.13664 0.0
H1237 H 0.17229 0.09682 0.13107 0.0
H1238 H 0.12151 0.08081 0.09896 0.0
C1239 C 0.08451 0.12504 0.11213 0.0
C1240 C 0.12388 0.11478 0.13373 0.0
C1241 C 0.07318 0.13682 0.11344 0.0
C1242 C 0.16793 0.06409 0.1319 0.0
C1243 C 0.16111 0.07938 0.12873 0.0
C1244 C 0.12228 0.09028 0.1087 0.0
C1245 C 0.10392 0.13132 0.12041 0.0
C1246 C 0.1144 0.11715 0.12057 0.0
C1247 C 0.1398 0.07218 0.12311 0.0
C1248 C 0.13161 0.08803 0.1219 0.0
H1249 H 0.10716 0.17596 0.13838 0.0
H1250 H 0.12767 0.15637 0.13545 0.0
H1251 H 0.10714 0.10651 0.09759 0.0
H1252 H 0.12093 0.01664 0.12153 0.0
H1253 H 0.10913 0.04362 0.11578 0.0
C1254 C 0.83678 0.93865 0.11939 0.0
C1255 C 0.84515 0.92399 0.11893 0.0
C1256 C 0.84978 0.96063 0.11462 0.0
C1257 C 0.90849 0.00274 0.11247 0.0
H1258 H 0.88628 0.03886 0.0951 0.0
C1259 C 0.96329 0.09734 0.11084 0.0
C1260 C 0.95293 0.10882 0.11633 0.0
C1261 C 0.95063 0.07503 0.10671 0.0
C1262 C 0.89273 0.02897 0.09994 0.0
H1263 H 0.87383 0.92105 0.11294 0.0
H1264 H 0.89597 0.95885 0.10409 0.0
H1265 H 0.86251 -0.00157 0.09578 0.0
H1266 H 0.92103 0.1062 0.12088 0.0
H1267 H 0.8991 0.06732 0.114 0.0
H1268 H 0.93826 0.03308 0.11726 0.0
C1269 C 0.87938 0.95341 0.10818 0.0
C1270 C 0.87912 0.00585 0.10033 0.0
C1271 C 0.86645 0.93151 0.11302 0.0
C1272 C 0.9296 0.09787 0.11676 0.0
C1273 C 0.91696 0.07556 0.11269 0.0
C1274 C 0.92203 0.02577 0.11211 0.0
C1275 C 0.87149 0.96841 0.10937 0.0
C1276 C 0.88669 0.99253 0.10692 0.0
C1277 C 0.92736 0.06371 0.10802 0.0
C1278 C 0.91413 0.03921 0.10619 0.0
H1279 H 0.82048 0.93337 0.12398 0.0
H1280 H 0.84329 0.97182 0.11586 0.0
H1281 H 0.91474 0.99305 0.11787 0.0
H1282 H 0.98119 0.10536 0.11014 0.0
H1283 H 0.95913 0.06647 0.10289 0.0
C1284 C 0.05403 0.89333 0.12064 0.0
C1285 C 0.06545 0.9162 0.12367 0.0
C1286 C 0.03185 0.88268 0.11609 0.0
C1287 C 0.98618 0.89261 0.10398 0.0
H1288 H 0.94947 0.83903 0.12658 0.0
C1289 C 0.89548 0.86259 0.12035 0.0
C1290 C 0.88057 0.83963 0.1215 0.0
C1291 C 0.91766 0.8705 0.11653 0.0
C1292 C 0.95942 0.85369 0.11991 0.0
H1293 H 0.0626 0.94587 0.12435 0.0
H1294 H 0.02408 0.92742 0.11652 0.0
H1295 H 0.98951 0.85541 0.12697 0.0
H1296 H 0.87695 0.80696 0.11854 0.0
H1297 H 0.91559 0.8208 0.11181 0.0
H1298 H 0.95589 0.89132 0.09752 0.0
C1299 C 0.03234 0.91774 0.11716 0.0
C1300 C 0.98244 0.86309 0.12011 0.0
C1301 C 0.05452 0.92838 0.12162 0.0
C1302 C 0.88804 0.82476 0.11794 0.0
C1303 C 0.9102 0.83267 0.11411 0.0
C1304 C 0.96309 0.88322 0.10382 0.0
C1305 C 0.02057 0.89467 0.11471 0.0
C1306 C -0.00386 0.88297 0.11246 0.0
C1307 C 0.92538 0.85561 0.11376 0.0
C1308 C 0.94951 0.86396 0.11209 0.0
H1309 H 0.0621 0.88357 0.12216 0.0
H1310 H 0.02333 0.86493 0.11411 0.0
H1311 H -0.00374 0.90775 0.09778 0.0
H1312 H 0.89029 0.8745 0.12302 0.0
H1313 H 0.929 0.88828 0.1165 0.0
C1314 C 0.14001 0.08351 0.38275 0.0
C1315 C 0.14815 0.08201 0.36881 0.0
C1316 C 0.12633 0.09284 0.38409 0.0
C1317 C 0.08678 0.10061 0.36211 0.0
H1318 H 0.0923 0.14279 0.39233 0.0
C1319 C 0.05302 0.16464 0.37087 0.0
C1320 C 0.0305 0.15072 0.36722 0.0
C1321 C 0.0667 0.15568 0.37368 0.0
C1322 C 0.09054 0.13095 0.38387 0.0
H1323 H 0.14969 0.09024 0.34554 0.0
H1324 H 0.12584 0.10657 0.34785 0.0
H1325 H 0.119 0.12951 0.39159 0.0
H1326 H 0.00446 0.11638 0.36459 0.0
H1327 H 0.02833 0.10079 0.36954 0.0
H1328 H 0.05865 0.10219 0.3542 0.0
C1329 C 0.12971 0.10024 0.3577 0.0
C1330 C 0.10573 0.12331 0.38349 0.0
C1331 C 0.14348 0.09109 0.35639 0.0
C1332 C 0.02169 0.12759 0.36732 0.0
C1333 C 0.03541 0.11865 0.37006 0.0
C1334 C 0.07152 0.10804 0.36258 0.0
C1335 C 0.12057 0.10073 0.37149 0.0
C1336 C 0.10416 0.10833 0.37245 0.0
C1337 C 0.05818 0.13264 0.37284 0.0
C1338 C 0.07336 0.12347 0.37335 0.0
H1339 H 0.14374 0.07691 0.39251 0.0
H1340 H 0.11955 0.09307 0.39486 0.0
H1341 H 0.085 0.08882 0.3536 0.0
H1342 H 0.06033 0.18254 0.37099 0.0
H1343 H 0.08421 0.16688 0.37573 0.0
C1344 C 0.89835 0.05426 0.34902 0.0
C1345 C 0.90539 0.06921 0.36093 0.0
C1346 C 0.88987 0.03164 0.35155 0.0
C1347 C 0.86484 0.98715 0.37915 0.0
H1348 H 0.88963 0.95958 0.3541 0.0
C1349 C 0.82517 0.89245 0.3702 0.0
C1350 C 0.83935 0.88366 0.36823 0.0
C1351 C 0.8339 0.91526 0.37214 0.0
C1352 C 0.88276 0.96706 0.36133 0.0
H1353 H 0.9076 0.07235 0.38482 0.0
H1354 H 0.89271 0.03252 0.38931 0.0
H1355 H 0.90273 -0.00092 0.35155 0.0
H1356 H 0.87385 0.89183 0.36774 0.0
H1357 H 0.88903 0.93163 0.37119 0.0
H1358 H 0.84462 0.95489 0.38878 0.0
C1359 C 0.89401 0.03837 0.37802 0.0
C1360 C 0.89006 0.98962 0.35973 0.0
C1361 C 0.90265 0.06109 0.37547 0.0
C1362 C 0.86244 0.89803 0.36913 0.0
C1363 C 0.87116 0.92085 0.37103 0.0
C1364 C 0.85738 0.96444 0.38067 0.0
C1365 C 0.88809 0.02354 0.36604 0.0
C1366 C 0.88096 -0.00017 0.36846 0.0
C1367 C 0.85698 0.92977 0.37212 0.0
C1368 C 0.86613 0.95414 0.37166 0.0
H1369 H 0.90019 0.06016 0.33771 0.0
H1370 H 0.88503 0.02051 0.34213 0.0
H1371 H 0.85757 0.99463 0.38601 0.0
H1372 H 0.8073 0.88183 0.36967 0.0
H1373 H 0.82256 0.92165 0.37286 0.0
C1374 C 0.9276 0.86855 0.38301 0.0
C1375 C 0.92076 0.84706 0.37769 0.0
C1376 C 0.94917 0.88205 0.38826 0.0
C1377 C 0.0017 0.8834 0.39841 0.0
H1378 H 0.02883 0.94144 0.37981 0.0
C1379 C 0.09377 0.93344 0.38257 0.0
C1380 C 0.10448 0.95677 0.38187 0.0
C1381 C 0.07154 0.92102 0.38682 0.0
C1382 C 0.02154 0.92557 0.38544 0.0
H1383 H 0.93098 0.82266 0.37413 0.0
H1384 H 0.96889 0.84644 0.38297 0.0
H1385 H 0.98893 0.91738 0.37869 0.0
H1386 H 0.10069 0.98533 0.38642 0.0
H1387 H 0.06195 0.96366 0.394 0.0
H1388 H 0.03462 0.89141 0.40463 0.0
C1389 C 0.9574 0.85266 0.38343 0.0
C1390 C -0.00143 0.9117 0.38478 0.0
C1391 C 0.93574 0.83909 0.37825 0.0
C1392 C 0.09289 0.96742 0.38657 0.0
C1393 C 0.07065 0.95498 0.3909 0.0
C1394 C 0.02475 0.89734 0.39911 0.0
C1395 C 0.96453 0.87453 0.38808 0.0
C1396 C 0.98844 0.89024 0.3909 0.0
C1397 C 0.0595 0.93161 0.39056 0.0
C1398 C 0.03498 0.91834 0.39225 0.0
H1399 H 0.91691 0.87564 0.38229 0.0
H1400 H 0.95412 0.89877 0.39186 0.0
H1401 H -0.00567 0.86706 0.40341 0.0
H1402 H 0.10218 0.92462 0.37911 0.0
H1403 H 0.06348 0.90307 0.38629 0.0
C1404 C 0.82104 0.92855 0.87563 0.0
C1405 C 0.83664 0.95091 0.87258 0.0
C1406 C 0.82803 0.91373 0.87984 0.0
C1407 C 0.87622 0.90872 0.892 0.0
H1408 H 0.85039 0.85713 0.86624 0.0
C1409 C 0.92165 0.86225 0.87561 0.0
C1410 C 0.90945 0.8396 0.87195 0.0
C1411 C 0.91081 0.87369 0.87983 0.0
C1412 C 0.85745 0.87107 0.87384 0.0
H1413 H 0.87174 0.97553 0.8726 0.0
H1414 H 0.88396 0.94954 0.87986 0.0
H1415 H 0.835 0.88164 0.86656 0.0
H1416 H 0.87646 0.81091 0.8703 0.0
H1417 H 0.85737 0.83075 0.87805 0.0
H1418 H 0.89906 0.89838 0.899 0.0
C1419 C 0.86631 0.94356 0.87906 0.0
C1420 C 0.84863 0.88519 0.87398 0.0
C1421 C 0.85931 0.95844 0.87484 0.0
C1422 C 0.88622 0.82838 0.87311 0.0
C1423 C 0.87534 0.83978 0.87747 0.0
C1424 C 0.88495 0.89445 0.89196 0.0
C1425 C 0.85076 0.9209 0.88111 0.0
C1426 C 0.85827 0.90448 0.88276 0.0
C1427 C 0.88749 0.86273 0.88047 0.0
C1428 C 0.87607 0.8758 0.88254 0.0
H1429 H 0.80341 0.92224 0.87422 0.0
H1430 H 0.81567 0.89644 0.88159 0.0
H1431 H 0.8838 0.92334 0.89901 0.0
H1432 H 0.9395 0.87157 0.87431 0.0
H1433 H 0.92072 0.89142 0.8817 0.0
C1434 C 0.02159 0.89635 0.87577 0.0
C1435 C 0.03216 0.88432 0.87195 0.0
C1436 C 0.03405 0.91874 0.87969 0.0
C1437 C 0.09125 0.96422 0.88902 0.0
H1438 H 0.07127 0.00084 0.86958 0.0
C1439 C 0.14814 0.05649 0.87326 0.0
C1440 C 0.13925 0.0707 0.87405 0.0
C1441 C 0.13505 0.03398 0.8768 0.0
C1442 C 0.0769 0.99089 0.87534 0.0
H1443 H 0.06419 0.88621 0.86989 0.0
H1444 H 0.08588 0.92537 0.87623 0.0
H1445 H 0.04805 0.96076 0.86892 0.0
H1446 H 0.10959 0.07232 0.87921 0.0
H1447 H 0.08713 0.03342 0.88581 0.0
H1448 H 0.12068 0.99466 0.89481 0.0
C1449 C 0.06794 0.91743 0.87651 0.0
C1450 C 0.06354 0.96785 0.87499 0.0
C1451 C 0.05547 0.89497 0.87274 0.0
C1452 C 0.11728 0.06212 0.87895 0.0
C1453 C 0.10423 0.03967 0.8825 0.0
C1454 C 0.10473 0.98736 0.88929 0.0
C1455 C 0.05739 0.92971 0.8797 0.0
C1456 C 0.07068 0.9542 0.88161 0.0
C1457 C 0.11276 0.02524 0.88105 0.0
C1458 C 0.09779 0.0009 0.88226 0.0
H1459 H 0.00371 0.88869 0.87536 0.0
H1460 H 0.02537 0.9276 0.88237 0.0
H1461 H 0.0971 0.95418 0.8944 0.0
H1462 H 0.16498 0.06264 0.86941 0.0
H1463 H 0.14201 0.02321 0.87542 0.0
C1464 C 0.09814 0.17282 0.88046 0.0
C1465 C 0.10585 0.15796 0.87748 0.0
C1466 C 0.07586 0.16486 0.88405 0.0
C1467 C 0.02336 0.1145 0.89507 0.0
H1468 H -0.00402 0.13941 0.87004 0.0
C1469 C 0.93235 0.0655 0.8768 0.0
C1470 C 0.92068 0.07673 0.87389 0.0
C1471 C 0.95449 0.07719 0.88133 0.0
C1472 C 0.00331 0.13256 0.87741 0.0
H1473 H 0.09635 0.1231 0.87668 0.0
H1474 H 0.05759 0.10929 0.8829 0.0
H1475 H 0.03617 0.1569 0.87085 0.0
H1476 H 0.92274 0.10887 0.87388 0.0
H1477 H 0.96145 0.12937 0.88205 0.0
H1478 H 0.99039 0.08971 0.90126 0.0
C1479 C 0.0688 0.12709 0.88258 0.0
C1480 C 0.02641 0.1426 0.87785 0.0
C1481 C 0.09104 0.13502 0.87893 0.0
C1482 C 0.93137 0.09981 0.87609 0.0
C1483 C 0.95353 0.11153 0.88071 0.0
C1484 C 0.00022 0.10451 0.89469 0.0
C1485 C 0.06085 0.1419 0.8848 0.0
C1486 C 0.03666 0.1333 0.88633 0.0
C1487 C 0.96552 0.10041 0.88301 0.0
C1488 C 0.98992 0.11303 0.88549 0.0
H1489 H 0.10911 0.1906 0.87956 0.0
H1490 H 0.07026 0.17668 0.88586 0.0
H1491 H 0.03084 0.10717 0.90188 0.0
H1492 H 0.92487 0.04786 0.87471 0.0
H1493 H 0.9633 0.06813 0.88267 0.0
C1494 C 0.95758 0.85468 0.6196 0.0
C1495 C 0.94947 0.83211 0.62276 0.0
C1496 C 0.94302 0.86216 0.61564 0.0
C1497 C 0.88525 0.84746 0.62138 0.0
H1498 H 0.90047 0.89656 0.5945 0.0
C1499 C 0.83153 0.88847 0.61853 0.0
C1500 C 0.84364 0.91172 0.61971 0.0
C1501 C 0.84227 0.87662 0.61498 0.0
C1502 C 0.89598 0.8828 0.60202 0.0
H1503 H 0.91979 0.79949 0.62338 0.0
H1504 H 0.89449 0.81256 0.61637 0.0
H1505 H 0.92378 0.87946 0.59545 0.0
H1506 H 0.87652 0.9408 0.61814 0.0
H1507 H 0.89515 0.92029 0.61188 0.0
H1508 H 0.85804 0.85129 0.62841 0.0
C1509 C 0.91207 0.82451 0.6172 0.0
C1510 C 0.90932 0.87304 0.60257 0.0
C1511 C 0.9266 0.81703 0.62119 0.0
C1512 C 0.86655 0.92298 0.61679 0.0
C1513 C 0.87728 0.91117 0.61326 0.0
C1514 C 0.87195 0.85721 0.62083 0.0
C1515 C 0.92005 0.84723 0.61472 0.0
C1516 C 0.9044 0.85563 0.61253 0.0
C1517 C 0.86537 0.88783 0.61269 0.0
C1518 C 0.87747 0.87536 0.61143 0.0
H1519 H 0.97507 0.86673 0.62067 0.0
H1520 H 0.94969 0.87981 0.61396 0.0
H1521 H 0.88116 0.83428 0.62932 0.0
H1522 H 0.81385 0.87939 0.62079 0.0
H1523 H 0.8326 0.85865 0.61448 0.0
C1524 C 0.09628 0.93406 0.63737 0.0
C1525 C 0.07613 0.92085 0.62993 0.0
C1526 C 0.10699 0.9572 0.63643 0.0
C1527 C 0.10718 0.00404 0.61594 0.0
H1528 H 0.13302 0.03556 0.65261 0.0
C1529 C 0.12837 0.0946 0.62901 0.0
C1530 C 0.14951 0.10844 0.63514 0.0
C1531 C 0.12068 0.07198 0.62678 0.0
C1532 C 0.12603 0.02698 0.64226 0.0
H1533 H 0.05276 0.92148 0.6143 0.0
H1534 H 0.07047 0.96172 0.61346 0.0
H1535 H 0.11757 0.99556 0.65161 0.0
H1536 H 0.17935 0.10944 0.64341 0.0
H1537 H 0.16569 0.06997 0.63978 0.0
H1538 H 0.11492 0.0357 0.60691 0.0
C1539 C 0.07814 0.95434 0.62002 0.0
C1540 C 0.1173 0.00405 0.64163 0.0
C1541 C 0.06766 0.9312 0.62077 0.0
C1542 C 0.16296 0.09928 0.63869 0.0
C1543 C 0.15516 0.07668 0.63666 0.0
C1544 C 0.11562 0.02699 0.61667 0.0
C1545 C 0.09771 0.96766 0.6281 0.0
C1546 C 0.10776 0.99225 0.62846 0.0
C1547 C 0.13389 0.0628 0.63084 0.0
C1548 C 0.12513 0.03861 0.62984 0.0
H1549 H 0.1035 0.92657 0.64427 0.0
H1550 H 0.12241 0.96686 0.64242 0.0
H1551 H 0.10028 0.9956 0.60555 0.0
H1552 H 0.11765 0.10115 0.62611 0.0
H1553 H 0.10415 0.06153 0.62234 0.0
C1554 C 0.89098 0.05926 0.61263 0.0
C1555 C 0.88443 0.03729 0.61668 0.0
C1556 C 0.91276 0.07385 0.60817 0.0
C1557 C 0.9667 0.07814 0.59808 0.0
H1558 H 0.9911 0.13229 0.62128 0.0
C1559 C 0.05707 0.12585 0.6179 0.0
C1560 C 0.06735 0.14882 0.62045 0.0
C1561 C 0.03528 0.11409 0.61268 0.0
C1562 C 0.98463 0.11759 0.61438 0.0
H1563 H 0.8952 0.01296 0.61816 0.0
H1564 H 0.93331 0.03852 0.61063 0.0
H1565 H 0.95128 0.10779 0.62034 0.0
H1566 H 0.06337 0.17772 0.61892 0.0
H1567 H 0.02536 0.15726 0.60947 0.0
H1568 H 0.00029 0.08768 0.59261 0.0
C1569 C 0.92156 0.04442 0.61075 0.0
C1570 C 0.96169 0.10347 0.61386 0.0
C1571 C 0.89971 0.02978 0.61515 0.0
C1572 C 0.05579 0.15999 0.61704 0.0
C1573 C 0.03402 0.14826 0.6117 0.0
C1574 C 0.98971 0.09236 0.59855 0.0
C1575 C 0.92851 0.06682 0.60773 0.0
C1576 C 0.95249 0.08328 0.60606 0.0
C1577 C 0.02327 0.12504 0.60991 0.0
C1578 C -0.00103 0.11192 0.60709 0.0
H1579 H 0.87952 0.06549 0.61344 0.0
H1580 H 0.91752 0.0909 0.60564 0.0
H1581 H 0.96006 0.06283 0.59181 0.0
H1582 H 0.06526 0.11664 0.62086 0.0
H1583 H 0.02743 0.09619 0.61173 0.0
C1584 C 0.73315 0.46831 0.4523 0.0
C1585 C 0.74185 0.48695 0.46167 0.0
C1586 C 0.74435 0.45649 0.45036 0.0
C1587 C 0.78715 0.44814 0.46904 0.0
H1588 H 0.7818 0.41393 0.43374 0.0
C1589 C 0.83366 0.40007 0.46323 0.0
C1590 C 0.81978 0.37716 0.46073 0.0
C1591 C 0.82573 0.41475 0.46114 0.0
C1592 C 0.78339 0.42345 0.44363 0.0
H1593 H 0.77033 0.50929 0.475 0.0
H1594 H 0.79042 0.48948 0.471 0.0
H1595 H 0.76587 0.43834 0.43399 0.0
H1596 H 0.78719 0.35199 0.45308 0.0
H1597 H 0.77343 0.37785 0.44926 0.0
H1598 H 0.80498 0.4335 0.47855 0.0
C1599 C 0.77431 0.48312 0.46584 0.0
C1600 C 0.77419 0.43733 0.44384 0.0
C1601 C 0.76289 0.49464 0.46801 0.0
C1602 C 0.79821 0.36947 0.45524 0.0
C1603 C 0.79038 0.38427 0.45296 0.0
C1604 C 0.79665 0.43462 0.46872 0.0
C1605 C 0.76486 0.46346 0.45739 0.0
C1606 C 0.77577 0.44971 0.45662 0.0
C1607 C 0.80389 0.40692 0.4563 0.0
C1608 C 0.7947 0.42202 0.45608 0.0
H1609 H 0.71756 0.46264 0.44658 0.0
H1610 H 0.73652 0.44151 0.44373 0.0
H1611 H 0.78825 0.45687 0.47922 0.0
H1612 H 0.8504 0.40663 0.4674 0.0
H1613 H 0.83651 0.4322 0.46367 0.0
C1614 C 0.62071 0.42986 0.45908 0.0
C1615 C 0.61324 0.44324 0.46574 0.0
C1616 C 0.6062 0.40705 0.4572 0.0
C1617 C 0.55841 0.36143 0.4746 0.0
H1618 H 0.54988 0.32914 0.43789 0.0
C1619 C 0.49698 0.26783 0.47206 0.0
C1620 C 0.50349 0.25476 0.46398 0.0
C1621 C 0.50875 0.29094 0.47074 0.0
C1622 C 0.55227 0.33784 0.44828 0.0
H1623 H 0.58451 0.44325 0.47523 0.0
H1624 H 0.5595 0.40348 0.4722 0.0
H1625 H 0.57443 0.36947 0.43838 0.0
H1626 H 0.52582 0.25554 0.44691 0.0
H1627 H 0.54735 0.29583 0.44537 0.0
H1628 H 0.53729 0.33011 0.48478 0.0
C1629 C 0.57652 0.41068 0.46841 0.0
C1630 C 0.56625 0.36092 0.44851 0.0
C1631 C 0.59086 0.43345 0.47009 0.0
C1632 C 0.52109 0.2652 0.45384 0.0
C1633 C 0.53314 0.28835 0.45272 0.0
C1634 C 0.54479 0.3384 0.47445 0.0
C1635 C 0.58413 0.39724 0.46215 0.0
C1636 C 0.56935 0.37288 0.46167 0.0
C1637 C 0.52743 0.30157 0.4614 0.0
C1638 C 0.54146 0.32625 0.46129 0.0
H1639 H 0.6378 0.43691 0.45554 0.0
H1640 H 0.61244 0.39695 0.45239 0.0
H1641 H 0.56081 0.37029 0.48494 0.0
H1642 H 0.48316 0.26024 0.47972 0.0
H1643 H 0.50335 0.30048 0.47724 0.0
C1644 C 0.72199 0.22869 0.453 0.0
C1645 C 0.7334 0.25164 0.45581 0.0
C1646 C 0.69942 0.21765 0.44941 0.0
C1647 C 0.65253 0.22635 0.43889 0.0
H1648 H 0.61778 0.17331 0.46244 0.0
C1649 C 0.56142 0.19414 0.45555 0.0
C1650 C 0.54716 0.17113 0.45715 0.0
C1651 C 0.58374 0.20263 0.45184 0.0
C1652 C 0.62716 0.18781 0.45552 0.0
H1653 H 0.73001 0.28096 0.45721 0.0
H1654 H 0.69085 0.26185 0.45089 0.0
H1655 H 0.65793 0.19049 0.46199 0.0
H1656 H 0.54487 0.13891 0.45512 0.0
H1657 H 0.58367 0.15371 0.44849 0.0
H1658 H 0.62162 0.22402 0.43286 0.0
C1659 C 0.69941 0.25244 0.45101 0.0
C1660 C 0.65023 0.19767 0.45525 0.0
C1661 C 0.72196 0.26345 0.45458 0.0
C1662 C 0.55545 0.15675 0.45419 0.0
C1663 C 0.57771 0.16522 0.45042 0.0
C1664 C 0.62939 0.21647 0.43915 0.0
C1665 C 0.68777 0.22934 0.44871 0.0
C1666 C 0.66322 0.21732 0.4472 0.0
C1667 C 0.59225 0.18827 0.44959 0.0
C1668 C 0.61649 0.19735 0.44773 0.0
H1669 H 0.73042 0.21919 0.45393 0.0
H1670 H 0.69095 0.19987 0.44756 0.0
H1671 H 0.66208 0.24133 0.43242 0.0
H1672 H 0.55562 0.20568 0.45774 0.0
H1673 H 0.59454 0.22049 0.45144 0.0
C1674 C 0.82008 0.42883 0.70819 0.0
C1675 C 0.81119 0.40576 0.70952 0.0
C1676 C 0.80741 0.43859 0.71206 0.0
C1677 C 0.74918 0.42321 0.71225 0.0
H1678 H 0.77047 0.48176 0.72908 0.0
C1679 C 0.69323 0.46172 0.71267 0.0
C1680 C 0.70326 0.48403 0.70819 0.0
C1681 C 0.70619 0.4523 0.7165 0.0
C1682 C 0.7643 0.46541 0.72431 0.0
H1683 H 0.78202 0.37498 0.71629 0.0
H1684 H 0.76043 0.39203 0.72348 0.0
H1685 H 0.79427 0.46515 0.72957 0.0
H1686 H 0.73489 0.51423 0.70482 0.0
H1687 H 0.75743 0.49765 0.71099 0.0
H1688 H 0.71976 0.42368 0.70632 0.0
C1689 C 0.77718 0.40258 0.71942 0.0
C1690 C 0.77791 0.4559 0.72463 0.0
C1691 C 0.7898 0.39284 0.71553 0.0
C1692 C 0.72658 0.49697 0.70821 0.0
C1693 C 0.73955 0.48749 0.71187 0.0
C1694 C 0.73569 0.43273 0.71183 0.0
C1695 C 0.78553 0.42541 0.71722 0.0
C1696 C 0.77057 0.4348 0.71843 0.0
C1697 C 0.7295 0.4649 0.71574 0.0
C1698 C 0.74317 0.45408 0.71766 0.0
H1699 H 0.83646 0.43918 0.70349 0.0
H1700 H 0.81425 0.45621 0.71011 0.0
H1701 H 0.74319 0.40712 0.70709 0.0
H1702 H 0.67537 0.45132 0.71291 0.0
H1703 H 0.69788 0.43498 0.71973 0.0
C1704 C 0.55831 0.38755 0.70405 0.0
C1705 C 0.5814 0.40154 0.70537 0.0
C1706 C 0.54844 0.3649 0.70739 0.0
C1707 C 0.56308 0.32132 0.70683 0.0
H1708 H 0.50542 0.2848 0.72504 0.0
C1709 C 0.52522 0.22705 0.70965 0.0
C1710 C 0.5028 0.2144 0.70547 0.0
C1711 C 0.53458 0.24961 0.71295 0.0
C1712 C 0.52151 0.29478 0.71988 0.0
H1713 H 0.61217 0.40251 0.71122 0.0
H1714 H 0.59498 0.36354 0.71755 0.0
H1715 H 0.52211 0.32527 0.72488 0.0
H1716 H 0.47235 0.21535 0.70218 0.0
H1717 H 0.48884 0.25479 0.70748 0.0
H1718 H 0.56232 0.29113 0.70129 0.0
C1719 C 0.58447 0.37003 0.71395 0.0
C1720 C 0.53105 0.31793 0.71981 0.0
C1721 C 0.5943 0.39257 0.71057 0.0
C1722 C 0.48971 0.2246 0.70533 0.0
C1723 C 0.49913 0.24723 0.70848 0.0
C1724 C 0.55355 0.29829 0.70683 0.0
C1725 C 0.56155 0.35582 0.71198 0.0
C1726 C 0.55187 0.33141 0.71317 0.0
C1727 C 0.52182 0.26013 0.71196 0.0
C1728 C 0.53256 0.28469 0.71322 0.0
H1729 H 0.54798 0.39396 0.69994 0.0
H1730 H 0.53076 0.35433 0.70562 0.0
H1731 H 0.57892 0.33119 0.70133 0.0
H1732 H 0.53576 0.21973 0.70998 0.0
H1733 H 0.55201 0.25895 0.7159 0.0
C1734 C 0.5987 0.16733 0.70889 0.0
C1735 C 0.58384 0.17543 0.70972 0.0
C1736 C 0.62067 0.18042 0.71362 0.0
C1737 C 0.66198 0.23896 0.71506 0.0
H1738 H 0.6995 0.21834 0.73229 0.0
C1739 C 0.75643 0.29457 0.71368 0.0
C1740 C 0.76805 0.28398 0.70893 0.0
C1741 C 0.73437 0.28209 0.71835 0.0
C1742 C 0.68924 0.22435 0.72745 0.0
H1743 H 0.58043 0.20358 0.71648 0.0
H1744 H 0.61835 0.22596 0.7251 0.0
H1745 H 0.65914 0.19411 0.7325 0.0
H1746 H 0.76586 0.25191 0.70605 0.0
H1747 H 0.72732 0.23024 0.71363 0.0
H1748 H 0.69178 0.26857 0.7092 0.0
C1749 C 0.61301 0.20947 0.72082 0.0
C1750 C 0.66615 0.21049 0.72762 0.0
C1751 C 0.59109 0.19642 0.71608 0.0
C1752 C 0.75742 0.26066 0.7096 0.0
C1753 C 0.73531 0.24818 0.7141 0.0
C1754 C 0.68498 0.2527 0.71478 0.0
C1755 C 0.62823 0.20194 0.71914 0.0
C1756 C 0.65234 0.2175 0.72112 0.0
C1757 C 0.72333 0.25872 0.71818 0.0
C1758 C 0.69894 0.24538 0.72064 0.0
H1759 H 0.59359 0.15127 0.70395 0.0
H1760 H 0.63206 0.17423 0.71204 0.0
H1761 H 0.65183 0.24472 0.70972 0.0
H1762 H 0.76411 0.31247 0.71339 0.0
H1763 H 0.72577 0.29077 0.72169 0.0
C1764 C 0.52916 0.29469 0.21103 0.0
C1765 C 0.50605 0.285 0.20939 0.0
C1766 C 0.53875 0.28138 0.21305 0.0
C1767 C 0.52645 0.22344 0.2202 0.0
H1768 H 0.5754 0.23997 0.19294 0.0
C1769 C 0.57088 0.17194 0.21096 0.0
C1770 C 0.57524 0.16961 0.19608 0.0
C1771 C 0.56283 0.18614 0.21482 0.0
C1772 C 0.56174 0.23513 0.20061 0.0
H1773 H 0.47476 0.25378 0.20967 0.0
H1774 H 0.49151 0.23062 0.21283 0.0
H1775 H 0.56111 0.26508 0.19682 0.0
H1776 H 0.57362 0.17927 0.17349 0.0
H1777 H 0.55936 0.20375 0.18014 0.0
H1778 H 0.52662 0.19294 0.22341 0.0
C1779 C 0.50224 0.2485 0.21273 0.0
C1780 C 0.55375 0.24967 0.20301 0.0
C1781 C 0.49265 0.26181 0.21079 0.0
C1782 C 0.57052 0.18088 0.18507 0.0
C1783 C 0.56259 0.19507 0.18889 0.0
C1784 C 0.53452 0.20885 0.2178 0.0
C1785 C 0.52545 0.2581 0.21338 0.0
C1786 C 0.5357 0.24383 0.21258 0.0
C1787 C 0.55908 0.19821 0.20382 0.0
C1788 C 0.55187 0.21435 0.20768 0.0
H1789 H 0.53999 0.31248 0.2101 0.0
H1790 H 0.55667 0.2893 0.21379 0.0
H1791 H 0.51266 0.21857 0.22775 0.0
H1792 H 0.57375 0.16287 0.21961 0.0
H1793 H 0.56009 0.18811 0.2264 0.0
C1794 C 0.80716 0.39234 0.20891 0.0
C1795 C 0.81105 0.40098 0.19447 0.0
C1796 C 0.79293 0.3696 0.21133 0.0
C1797 C 0.74668 0.32069 0.19337 0.0
H1798 H 0.76052 0.28641 0.22079 0.0
C1799 C 0.72055 0.22435 0.20174 0.0
C1800 C 0.6975 0.21415 0.19941 0.0
C1801 C 0.73325 0.24723 0.20406 0.0
C1802 C 0.75641 0.29579 0.21312 0.0
H1803 H 0.80428 0.39274 0.1712 0.0
H1804 H 0.7798 0.35308 0.17534 0.0
H1805 H 0.78591 0.3264 0.21842 0.0
H1806 H 0.66954 0.21984 0.19869 0.0
H1807 H 0.69172 0.25977 0.20295 0.0
H1808 H 0.71775 0.29014 0.18756 0.0
C1809 C 0.78719 0.36383 0.18485 0.0
C1810 C 0.77086 0.3187 0.21185 0.0
C1811 C 0.80139 0.38647 0.18245 0.0
C1812 C 0.68727 0.22717 0.20032 0.0
C1813 C 0.69999 0.25008 0.20269 0.0
C1814 C 0.73227 0.29786 0.19463 0.0
C1815 C 0.78244 0.3552 0.19932 0.0
C1816 C 0.76637 0.33128 0.2017 0.0
C1817 C 0.72321 0.26045 0.20416 0.0
C1818 C 0.73717 0.28506 0.20431 0.0
H1819 H 0.81492 0.40319 0.21832 0.0
H1820 H 0.78968 0.36341 0.2226 0.0
H1821 H 0.74257 0.33002 0.18565 0.0
H1822 H 0.72899 0.21484 0.20119 0.0
H1823 H 0.7511 0.25468 0.20501 0.0
C1824 C 0.76015 0.49578 0.208 0.0
C1825 C 0.77104 0.48334 0.2076 0.0
C1826 C 0.73813 0.48607 0.21273 0.0
C1827 C 0.68824 0.43121 0.21429 0.0
H1828 H 0.66268 0.46335 0.23327 0.0
C1829 C 0.59429 0.39199 0.21828 0.0
C1830 C 0.586 0.40553 0.21316 0.0
C1831 C 0.61663 0.40121 0.22206 0.0
C1832 C 0.6696 0.45417 0.22799 0.0
H1833 H 0.76783 0.45146 0.21295 0.0
H1834 H 0.72946 0.43454 0.22133 0.0
H1835 H 0.70307 0.48006 0.23197 0.0
H1836 H 0.59452 0.43947 0.20849 0.0
H1837 H 0.63375 0.45557 0.21474 0.0
H1838 H 0.655 0.40571 0.2098 0.0
C1839 C 0.73781 0.45167 0.21764 0.0
C1840 C 0.6927 0.46372 0.22723 0.0
C1841 C 0.75982 0.46136 0.21283 0.0
C1842 C 0.6004 0.42863 0.21249 0.0
C1843 C 0.62283 0.43786 0.21618 0.0
C1844 C 0.66524 0.42168 0.21507 0.0
C1845 C 0.72653 0.46373 0.21725 0.0
C1846 C 0.70225 0.45255 0.22006 0.0
C1847 C 0.63131 0.42413 0.22054 0.0
C1848 C 0.65564 0.43323 0.22164 0.0
H1849 H 0.76829 0.51279 0.20409 0.0
H1850 H 0.7299 0.49578 0.21212 0.0
H1851 H 0.69498 0.4223 0.20844 0.0
H1852 H 0.58405 0.37411 0.21847 0.0
H1853 H 0.62263 0.39022 0.2255 0.0
C1854 C 0.5136 0.24438 0.95041 0.0
C1855 C 0.51093 0.2481 0.96537 0.0
C1856 C 0.52887 0.23777 0.94634 0.0
C1857 C 0.57904 0.23831 0.96022 0.0
H1858 H 0.56251 0.18868 0.93358 0.0
C1859 C 0.63715 0.2032 0.95186 0.0
C1860 C 0.62665 0.18006 0.95385 0.0
C1861 C 0.62459 0.2135 0.94931 0.0
C1862 C 0.56741 0.20266 0.94097 0.0
H1863 H 0.52144 0.2472 0.98783 0.0
H1864 H 0.54779 0.23545 0.98081 0.0
H1865 H 0.53697 0.20277 0.9375 0.0
H1866 H 0.59475 0.14947 0.95361 0.0
H1867 H 0.57298 0.1674 0.94947 0.0
H1868 H 0.60885 0.23755 0.96437 0.0
C1869 C 0.53852 0.23805 0.97217 0.0
C1870 C 0.55287 0.21082 0.94312 0.0
C1871 C 0.52324 0.24451 0.97621 0.0
C1872 C 0.60344 0.16735 0.95226 0.0
C1873 C 0.59091 0.17763 0.94974 0.0
C1874 C 0.59354 0.23018 0.95808 0.0
C1875 C 0.54172 0.23489 0.95719 0.0
C1876 C 0.55825 0.22826 0.95315 0.0
C1877 C 0.60127 0.20088 0.94869 0.0
C1878 C 0.58761 0.21183 0.94878 0.0
H1879 H 0.50384 0.24647 0.94189 0.0
H1880 H 0.53089 0.23528 0.93472 0.0
H1881 H 0.58379 0.25204 0.96782 0.0
H1882 H 0.65497 0.21349 0.95285 0.0
H1883 H 0.6331 0.23143 0.94831 0.0
C1884 C 0.77374 0.26975 0.96851 0.0
C1885 C 0.75474 0.25683 0.95991 0.0
C1886 C 0.78546 0.29287 0.96708 0.0
C1887 C 0.79005 0.33998 0.94411 0.0
H1888 H 0.80922 0.37147 0.98152 0.0
C1889 C 0.80589 0.42924 0.95561 0.0
C1890 C 0.82587 0.44356 0.96297 0.0
C1891 C 0.79947 0.40688 0.95345 0.0
C1892 C 0.80413 0.36289 0.97098 0.0
H1893 H 0.73484 0.25766 0.9417 0.0
H1894 H 0.75412 0.29791 0.93991 0.0
H1895 H 0.79453 0.33159 0.98094 0.0
H1896 H 0.85504 0.44575 0.97346 0.0
H1897 H 0.8435 0.40671 0.96996 0.0
H1898 H 0.79868 0.37152 0.93443 0.0
C1899 C 0.76017 0.29041 0.94777 0.0
C1900 C 0.79586 0.34003 0.97059 0.0
C1901 C 0.74876 0.26729 0.94901 0.0
C1902 C 0.83951 0.43519 0.96778 0.0
C1903 C 0.83294 0.41285 0.96582 0.0
C1904 C 0.79796 0.36286 0.94457 0.0
C1905 C 0.7783 0.30356 0.9571 0.0
C1906 C 0.7886 0.3282 0.95717 0.0
C1907 C 0.81276 0.39846 0.9588 0.0
C1908 C 0.80499 0.37444 0.95803 0.0
H1909 H 0.77908 0.2621 0.97676 0.0
H1910 H 0.79981 0.30236 0.97409 0.0
H1911 H 0.78499 0.33156 0.93353 0.0
H1912 H 0.79508 0.43521 0.95172 0.0
H1913 H 0.78376 0.396 0.94808 0.0
C1914 C 0.72406 0.45913 0.95153 0.0
C1915 C 0.73413 0.47917 0.95952 0.0
C1916 C 0.70093 0.44633 0.95054 0.0
C1917 C 0.65054 0.43916 0.96976 0.0
H1918 H 0.61975 0.40052 0.9365 0.0
C1919 C 0.55578 0.3918 0.96557 0.0
C1920 C 0.54618 0.3686 0.96445 0.0
C1921 C 0.57842 0.40573 0.96304 0.0
C1922 C 0.62823 0.41125 0.94583 0.0
H1923 H 0.72791 0.50266 0.97138 0.0
H1924 H 0.6878 0.48108 0.96898 0.0
H1925 H 0.66008 0.42501 0.93543 0.0
H1926 H 0.55262 0.34196 0.95892 0.0
H1927 H 0.59232 0.36653 0.95425 0.0
H1928 H 0.61863 0.42572 0.97998 0.0
C1929 C 0.69761 0.47449 0.96421 0.0
C1930 C 0.6513 0.42519 0.94529 0.0
C1931 C 0.72067 0.48703 0.96545 0.0
C1932 C 0.55953 0.35973 0.95996 0.0
C1933 C 0.58219 0.37375 0.95722 0.0
C1934 C 0.62754 0.42556 0.97017 0.0
C1935 C 0.68738 0.45364 0.95714 0.0
C1936 C 0.66277 0.43928 0.95729 0.0
C1937 C 0.59188 0.39681 0.95912 0.0
C1938 C 0.6162 0.41146 0.95826 0.0
H1939 H 0.73396 0.45315 0.94614 0.0
H1940 H 0.69374 0.43044 0.94495 0.0
H1941 H 0.65874 0.44924 0.97939 0.0
H1942 H 0.54601 0.39924 0.96895 0.0
H1943 H 0.58554 0.4235 0.96445 0.0
C1944 C 0.38281 0.78382 0.78802 0.0
C1945 C 0.39657 0.80598 0.79249 0.0
C1946 C 0.39194 0.77074 0.78386 0.0
C1947 C 0.44488 0.77203 0.77496 0.0
H1948 H 0.41533 0.714 0.79364 0.0
C1949 C 0.48857 0.72286 0.79011 0.0
C1950 C 0.47625 0.69949 0.78987 0.0
C1951 C 0.47852 0.73533 0.78656 0.0
C1952 C 0.42358 0.72993 0.78805 0.0
H1953 H 0.43073 0.83189 0.79582 0.0
H1954 H 0.44669 0.80889 0.78896 0.0
H1955 H 0.39821 0.73698 0.79445 0.0
H1956 H 0.44421 0.67105 0.78446 0.0
H1957 H 0.4267 0.69279 0.77823 0.0
H1958 H 0.47072 0.76514 0.7691 0.0
C1959 C 0.42885 0.80177 0.78828 0.0
C1960 C 0.41374 0.74315 0.78851 0.0
C1961 C 0.4197 0.81491 0.79234 0.0
C1962 C 0.45406 0.68895 0.78507 0.0
C1963 C 0.44401 0.70143 0.78149 0.0
C1964 C 0.45477 0.75877 0.77452 0.0
C1965 C 0.41502 0.77937 0.78433 0.0
C1966 C 0.42445 0.76452 0.78222 0.0
C1967 C 0.45594 0.72472 0.78265 0.0
C1968 C 0.44441 0.73774 0.78132 0.0
H1969 H 0.36493 0.77605 0.78847 0.0
H1970 H 0.38082 0.75359 0.78077 0.0
H1971 H 0.45341 0.7883 0.76983 0.0
H1972 H 0.50575 0.73157 0.79368 0.0
H1973 H 0.48814 0.75323 0.78768 0.0
C1974 C 0.25205 0.76632 0.80126 0.0
C1975 C 0.2746 0.77475 0.79782 0.0
C1976 C 0.23668 0.74383 0.79926 0.0
C1977 C 0.22491 0.6933 0.77973 0.0
H1978 H 0.19385 0.6628 0.81556 0.0
C1979 C 0.1807 0.59801 0.78551 0.0
C1980 C 0.16296 0.58731 0.79552 0.0
C1981 C 0.19213 0.62112 0.78419 0.0
C1982 C 0.20189 0.67101 0.80533 0.0
H1983 H 0.29846 0.76642 0.78886 0.0
H1984 H 0.27138 0.72706 0.78509 0.0
H1985 H 0.21785 0.70292 0.81581 0.0
H1986 H 0.14164 0.59221 0.81072 0.0
H1987 H 0.16077 0.6324 0.80785 0.0
H1988 H 0.20873 0.66155 0.7691 0.0
C1989 C 0.26577 0.73794 0.78946 0.0
C1990 C 0.21578 0.69401 0.80553 0.0
C1991 C 0.28126 0.7604 0.79171 0.0
C1992 C 0.15562 0.60003 0.80318 0.0
C1993 C 0.16676 0.62312 0.80164 0.0
C1994 C 0.21066 0.67028 0.77942 0.0
C1995 C 0.24346 0.72942 0.79352 0.0
C1996 C 0.22764 0.70529 0.79281 0.0
C1997 C 0.18563 0.63405 0.79249 0.0
C1998 C 0.19923 0.65877 0.7923 0.0
H1999 H 0.24635 0.77692 0.80598 0.0
H2000 H 0.21952 0.7376 0.8024 0.0
H2001 H 0.2338 0.70174 0.76975 0.0
H2002 H 0.18605 0.5886 0.77885 0.0
H2003 H 0.20653 0.6288 0.77701 0.0
C2004 C 0.22425 0.53006 0.7876 0.0
C2005 C 0.21035 0.50687 0.78823 0.0
C2006 C 0.24709 0.53935 0.78543 0.0
C2007 C 0.29339 0.55132 0.79509 0.0
H2008 H 0.32202 0.52761 0.77006 0.0
C2009 C 0.38024 0.5667 0.80827 0.0
C2010 C 0.39558 0.57432 0.79658 0.0
C2011 C 0.3577 0.55823 0.80544 0.0
C2012 C 0.31424 0.53449 0.77702 0.0
H2013 H 0.20933 0.47528 0.7858 0.0
H2014 H 0.2491 0.4915 0.78215 0.0
H2015 H 0.28238 0.51468 0.7668 0.0
H2016 H 0.39952 0.57749 0.77276 0.0
H2017 H 0.35986 0.56261 0.76774 0.0
H2018 H 0.32502 0.57085 0.80547 0.0
C2019 C 0.24238 0.50251 0.78332 0.0
C2020 C 0.2916 0.52704 0.77521 0.0
C2021 C 0.21956 0.49322 0.78552 0.0
C2022 C 0.38793 0.57206 0.78194 0.0
C2023 C 0.36531 0.56345 0.77908 0.0
C2024 C 0.3159 0.55861 0.79697 0.0
C2025 C 0.25648 0.52565 0.7838 0.0
C2026 C 0.2809 0.53519 0.78436 0.0
C2027 C 0.35008 0.55703 0.79086 0.0
C2028 C 0.32647 0.55 0.78814 0.0
H2029 H 0.21772 0.54108 0.78952 0.0
H2030 H 0.25754 0.55727 0.78561 0.0
H2031 H 0.2856 0.55771 0.80245 0.0
H2032 H 0.38578 0.56816 0.81965 0.0
H2033 H 0.34626 0.55298 0.8147 0.0
C2034 C 0.37015 0.80692 0.04171 0.0
C2035 C 0.37748 0.82806 0.03555 0.0
C2036 C 0.38493 0.79896 0.04352 0.0
C2037 C 0.43303 0.8025 0.02611 0.0
H2038 H 0.44184 0.77787 0.0623 0.0
C2039 C 0.49328 0.76894 0.0269 0.0
C2040 C 0.48653 0.74912 0.03472 0.0
C2041 C 0.48209 0.78077 0.02874 0.0
C2042 C 0.43939 0.78444 0.05205 0.0
H2043 H 0.40624 0.85766 0.02688 0.0
H2044 H 0.43173 0.84348 0.02974 0.0
H2045 H 0.41725 0.79357 0.06236 0.0
H2046 H 0.46453 0.72769 0.05198 0.0
H2047 H 0.4439 0.74719 0.05438 0.0
H2048 H 0.45399 0.79252 0.01548 0.0
C2049 C 0.41462 0.8332 0.03323 0.0
C2050 C 0.4254 0.7935 0.05214 0.0
C2051 C 0.4 0.84129 0.03165 0.0
C2052 C 0.46938 0.74224 0.0452 0.0
C2053 C 0.45787 0.75379 0.04683 0.0
C2054 C 0.44664 0.79309 0.02592 0.0
C2055 C 0.40714 0.81187 0.03897 0.0
C2056 C 0.42215 0.8026 0.03916 0.0
C2057 C 0.46372 0.77293 0.03835 0.0
C2058 C 0.45002 0.78391 0.03888 0.0
H2059 H 0.35295 0.7964 0.0449 0.0
H2060 H 0.37881 0.7824 0.04792 0.0
H2061 H 0.43052 0.80918 0.01591 0.0
H2062 H 0.50681 0.775 0.019 0.0
H2063 H 0.48763 0.79586 0.0224 0.0
C2064 C 0.19466 0.56559 0.03863 0.0
C2065 C 0.17258 0.55178 0.034 0.0
C2066 C 0.2029 0.58829 0.041 0.0
C2067 C 0.19694 0.63272 0.02635 0.0
H2068 H 0.2264 0.66639 0.06166 0.0
C2069 C 0.22914 0.72625 0.0284 0.0
C2070 C 0.24968 0.73975 0.03532 0.0
C2071 C 0.21816 0.70321 0.03006 0.0
C2072 C 0.21849 0.65731 0.05163 0.0
H2073 H 0.14161 0.55088 0.02878 0.0
H2074 H 0.15626 0.5905 0.03253 0.0
H2075 H 0.21088 0.62608 0.0614 0.0
H2076 H 0.27348 0.73976 0.05087 0.0
H2077 H 0.25543 0.6996 0.0528 0.0
H2078 H 0.20536 0.66358 0.01617 0.0
C2079 C 0.16705 0.58368 0.03442 0.0
C2080 C 0.20952 0.63425 0.05156 0.0
C2081 C 0.15872 0.561 0.03231 0.0
C2082 C 0.25832 0.72979 0.0447 0.0
C2083 C 0.24761 0.70669 0.04611 0.0
C2084 C 0.20627 0.65573 0.02629 0.0
C2085 C 0.18928 0.59754 0.03853 0.0
C2086 C 0.19862 0.62182 0.03892 0.0
C2087 C 0.2276 0.69305 0.03856 0.0
C2088 C 0.21713 0.66839 0.03894 0.0
H2089 H 0.20574 0.55903 0.04005 0.0
H2090 H 0.22015 0.59878 0.04409 0.0
H2091 H 0.18886 0.62344 0.0164 0.0
H2092 H 0.22173 0.73344 0.02138 0.0
H2093 H 0.20239 0.69338 0.0245 0.0
C2094 C 0.42948 0.59824 0.04248 0.0
C2095 C 0.44052 0.62159 0.04275 0.0
C2096 C 0.40733 0.58574 0.04692 0.0
C2097 C 0.35781 0.5911 0.04813 0.0
H2098 H 0.3307 0.53181 0.06488 0.0
C2099 C 0.26369 0.53569 0.04758 0.0
C2100 C 0.25613 0.51431 0.04178 0.0
C2101 C 0.28555 0.5486 0.05246 0.0
C2102 C 0.33805 0.54836 0.06023 0.0
H2103 H 0.43743 0.65005 0.04904 0.0
H2104 H 0.39881 0.62823 0.05689 0.0
H2105 H 0.37113 0.5555 0.06512 0.0
H2106 H 0.26539 0.48947 0.03703 0.0
H2107 H 0.3038 0.51227 0.04515 0.0
H2108 H 0.32503 0.58381 0.04264 0.0
C2109 C 0.40718 0.61961 0.05294 0.0
C2110 C 0.36117 0.56192 0.06036 0.0
C2111 C 0.42933 0.63212 0.04845 0.0
C2112 C 0.27071 0.50583 0.04151 0.0
C2113 C 0.29266 0.51884 0.0463 0.0
C2114 C 0.33478 0.5776 0.048 0.0
C2115 C 0.39574 0.59631 0.05179 0.0
C2116 C 0.37132 0.58322 0.05395 0.0
C2117 C 0.3005 0.54064 0.05139 0.0
C2118 C 0.32465 0.55587 0.0537 0.0
H2119 H 0.43761 0.58954 0.03823 0.0
H2120 H 0.39898 0.56784 0.04574 0.0
H2121 H 0.36504 0.60724 0.04287 0.0
H2122 H 0.25333 0.54317 0.04752 0.0
H2123 H 0.29103 0.56527 0.05645 0.0
C2124 C 0.20187 0.6359 0.54587 0.0
C2125 C 0.17953 0.62537 0.54138 0.0
C2126 C 0.21122 0.62334 0.55087 0.0
C2127 C 0.19744 0.56582 0.56167 0.0
H2128 H 0.25303 0.58228 0.54186 0.0
C2129 C 0.22443 0.50376 0.54287 0.0
C2130 C 0.24716 0.5106 0.54283 0.0
C2131 C 0.2172 0.51823 0.54763 0.0
C2132 C 0.23776 0.57763 0.54778 0.0
H2133 H 0.14916 0.59343 0.53952 0.0
H2134 H 0.16548 0.57171 0.54782 0.0
H2135 H 0.23872 0.60769 0.54153 0.0
H2136 H 0.28008 0.53809 0.54788 0.0
H2137 H 0.26744 0.56283 0.55661 0.0
H2138 H 0.19601 0.53511 0.56714 0.0
C2139 C 0.1758 0.58964 0.54772 0.0
C2140 C 0.22955 0.59227 0.54762 0.0
C2141 C 0.16646 0.60215 0.5428 0.0
C2142 C 0.26241 0.53185 0.54824 0.0
C2143 C 0.25519 0.54627 0.55302 0.0
C2144 C 0.20561 0.55109 0.56175 0.0
C2145 C 0.19843 0.6 0.55144 0.0
C2146 C 0.20896 0.58627 0.55415 0.0
C2147 C 0.23262 0.5399 0.5523 0.0
C2148 C 0.22555 0.55661 0.55444 0.0
H2149 H 0.21232 0.65375 0.54514 0.0
H2150 H 0.22863 0.63187 0.55389 0.0
H2151 H 0.18171 0.56087 0.56705 0.0
H2152 H 0.21234 0.48755 0.53864 0.0
H2153 H 0.1997 0.51291 0.54678 0.0
C2154 C 0.38592 0.5566 0.53901 0.0
C2155 C 0.36282 0.54671 0.53705 0.0
C2156 C 0.39873 0.57916 0.54249 0.0
C2157 C 0.39719 0.6308 0.53792 0.0
H2158 H 0.45027 0.65634 0.56226 0.0
C2159 C 0.45093 0.72489 0.54382 0.0
C2160 C 0.47378 0.73358 0.54146 0.0
C2161 C 0.43703 0.70228 0.54654 0.0
C2162 C 0.4355 0.64941 0.55542 0.0
H2163 H 0.33501 0.55263 0.53789 0.0
H2164 H 0.35723 0.5917 0.54435 0.0
H2165 H 0.42616 0.61594 0.56121 0.0
H2166 H 0.50004 0.72547 0.54044 0.0
H2167 H 0.47564 0.68577 0.54493 0.0
H2168 H 0.40664 0.66404 0.53182 0.0
C2169 C 0.3655 0.58213 0.54289 0.0
C2170 C 0.42171 0.62631 0.55481 0.0
C2171 C 0.35272 0.55965 0.53932 0.0
C2172 C 0.48252 0.71925 0.54233 0.0
C2173 C 0.46857 0.69656 0.545 0.0
C2174 C 0.41088 0.65379 0.53856 0.0
C2175 C 0.38872 0.59229 0.54414 0.0
C2176 C 0.40253 0.61676 0.54591 0.0
C2177 C 0.44558 0.68776 0.54674 0.0
C2178 C 0.4303 0.66337 0.54719 0.0
H2179 H 0.39425 0.54712 0.53738 0.0
H2180 H 0.41659 0.5865 0.54324 0.0
H2181 H 0.38284 0.62404 0.53069 0.0
H2182 H 0.44342 0.73517 0.54272 0.0
H2183 H 0.4194 0.69602 0.54794 0.0
C2184 C 0.2741 0.7641 0.5201 0.0
C2185 C 0.2584 0.75295 0.5313 0.0
C2186 C 0.29671 0.77579 0.52343 0.0
C2187 C 0.3363 0.77628 0.55017 0.0
H2188 H 0.37742 0.82995 0.52909 0.0
C2189 C 0.42737 0.80162 0.53905 0.0
C2190 C 0.44346 0.82431 0.5385 0.0
C2191 C 0.40503 0.79493 0.54137 0.0
C2192 C 0.36621 0.81519 0.53529 0.0
H2193 H 0.2537 0.74691 0.55492 0.0
H2194 H 0.29346 0.76712 0.56077 0.0
H2195 H 0.33766 0.81588 0.52718 0.0
H2196 H 0.44883 0.85775 0.54083 0.0
H2197 H 0.40988 0.84603 0.545 0.0
H2198 H 0.36488 0.77541 0.55809 0.0
C2199 C 0.28827 0.76636 0.54937 0.0
C2200 C 0.34341 0.807 0.53406 0.0
C2201 C 0.26559 0.75473 0.54603 0.0
C2202 C 0.43684 0.84013 0.54103 0.0
C2203 C 0.41451 0.83343 0.54337 0.0
C2204 C 0.35913 0.78447 0.5514 0.0
C2205 C 0.30408 0.77669 0.53805 0.0
C2206 C 0.3282 0.78714 0.54115 0.0
C2207 C 0.39829 0.81078 0.54323 0.0
C2208 C 0.37431 0.8037 0.54367 0.0
H2209 H 0.26895 0.76309 0.50866 0.0
H2210 H 0.30846 0.78336 0.51442 0.0
H2211 H 0.32499 0.76087 0.55572 0.0
H2212 H 0.43186 0.789 0.53709 0.0
H2213 H 0.39293 0.77735 0.54101 0.0
C2214 C 0.2637 0.50064 0.28638 0.0
C2215 C 0.28682 0.51362 0.28841 0.0
C2216 C 0.25121 0.51055 0.28255 0.0
C2217 C 0.25351 0.56415 0.2863 0.0
H2218 H 0.19914 0.53509 0.26327 0.0
C2219 C 0.19773 0.60227 0.28251 0.0
C2220 C 0.17529 0.58768 0.28594 0.0
C2221 C 0.2118 0.59408 0.27892 0.0
C2222 C 0.2143 0.54339 0.26971 0.0
H2223 H 0.315 0.54711 0.28721 0.0
H2224 H 0.29331 0.56432 0.28014 0.0
H2225 H 0.22373 0.51939 0.26381 0.0
H2226 H 0.14987 0.55304 0.28789 0.0
H2227 H 0.17461 0.53865 0.28186 0.0
H2228 H 0.24393 0.58779 0.29251 0.0
C2229 C 0.28479 0.5465 0.28184 0.0
C2230 C 0.22836 0.53441 0.27004 0.0
C2231 C 0.29727 0.53661 0.28578 0.0
C2232 C 0.16705 0.56467 0.28517 0.0
C2233 C 0.18118 0.55644 0.28163 0.0
C2234 C 0.23956 0.57315 0.2859 0.0
C2235 C 0.26154 0.53367 0.28056 0.0
C2236 C 0.24792 0.54447 0.27858 0.0
C2237 C 0.20385 0.57111 0.27891 0.0
C2238 C 0.21962 0.56268 0.27782 0.0
H2239 H 0.25506 0.48287 0.28827 0.0
H2240 H 0.23333 0.50017 0.28184 0.0
H2241 H 0.26816 0.57211 0.29324 0.0
H2242 H 0.20495 0.62005 0.28349 0.0
H2243 H 0.22916 0.60578 0.27679 0.0
C2244 C 0.50147 0.76949 0.29067 0.0
C2245 C 0.48647 0.77722 0.29295 0.0
C2246 C 0.49381 0.74738 0.28682 0.0
C2247 C 0.44504 0.69557 0.27336 0.0
H2248 H 0.4687 0.66711 0.29852 0.0
C2249 C 0.39798 0.60211 0.2862 0.0
C2250 C 0.40996 0.59124 0.28934 0.0
C2251 C 0.40908 0.62478 0.28297 0.0
C2252 C 0.46223 0.67478 0.29112 0.0
H2253 H 0.45172 0.76798 0.2921 0.0
H2254 H 0.43832 0.72928 0.28552 0.0
H2255 H 0.4848 0.70714 0.2995 0.0
H2256 H 0.44284 0.59531 0.29101 0.0
H2257 H 0.46235 0.63494 0.28502 0.0
H2258 H 0.42209 0.66303 0.26523 0.0
C2259 C 0.45604 0.74042 0.28665 0.0
C2260 C 0.47145 0.69778 0.29172 0.0
C2261 C 0.46371 0.76258 0.29053 0.0
C2262 C 0.43323 0.6033 0.28859 0.0
C2263 C 0.44436 0.62599 0.28524 0.0
C2264 C 0.43588 0.67251 0.27268 0.0
C2265 C 0.47098 0.73247 0.28512 0.0
C2266 C 0.46267 0.70839 0.28309 0.0
C2267 C 0.43242 0.63713 0.28282 0.0
C2268 C 0.44404 0.66179 0.28182 0.0
H2269 H 0.51916 0.78033 0.29227 0.0
H2270 H 0.50575 0.74182 0.28549 0.0
H2271 H 0.43813 0.70334 0.26643 0.0
H2272 H 0.38009 0.59353 0.28721 0.0
H2273 H 0.39932 0.63284 0.28148 0.0
C2274 C 0.22264 0.7288 0.29104 0.0
C2275 C 0.21296 0.7058 0.29347 0.0
C2276 C 0.24568 0.7422 0.28975 0.0
C2277 C 0.2957 0.74373 0.30311 0.0
H2278 H 0.32688 0.79337 0.27613 0.0
C2279 C 0.38537 0.81213 0.31379 0.0
C2280 C 0.40019 0.8173 0.30193 0.0
C2281 C 0.36254 0.79912 0.31149 0.0
C2282 C 0.31835 0.77949 0.28367 0.0
H2283 H 0.21988 0.67873 0.29563 0.0
H2284 H 0.25997 0.70211 0.29332 0.0
H2285 H 0.28671 0.76844 0.27335 0.0
H2286 H 0.40301 0.81449 0.27824 0.0
H2287 H 0.36282 0.79159 0.27414 0.0
H2288 H 0.32711 0.75479 0.31355 0.0
C2289 C 0.24973 0.70976 0.29256 0.0
C2290 C 0.29543 0.76533 0.28213 0.0
C2291 C 0.22673 0.69636 0.29378 0.0
C2292 C 0.39182 0.81027 0.28758 0.0
C2293 C 0.36891 0.79738 0.28524 0.0
C2294 C 0.31848 0.75796 0.30474 0.0
C2295 C 0.25946 0.73288 0.29094 0.0
C2296 C 0.28389 0.74734 0.29188 0.0
C2297 C 0.35411 0.7913 0.29723 0.0
C2298 C 0.33001 0.77606 0.29512 0.0
H2299 H 0.21251 0.7366 0.29068 0.0
H2300 H 0.25275 0.76 0.28857 0.0
H2301 H 0.28721 0.73017 0.31091 0.0
H2302 H 0.39148 0.81755 0.32494 0.0
H2303 H 0.35146 0.79496 0.32089 0.0
C2304 C 0.01329 0.18425 0.29805 0.0
C2305 C -0.0067 0.17205 0.30591 0.0
C2306 C 0.01375 0.18253 0.28267 0.0
C2307 C 0.98061 0.14759 0.25076 0.0
H2308 H 0.02026 0.20027 0.22819 0.0
C2309 C 0.97274 0.15783 0.18795 0.0
C2310 C 0.99223 0.16601 0.17945 0.0
C2311 C 0.97362 0.15714 0.20337 0.0
C2312 C 0.00931 0.18539 0.23438 0.0
H2313 H 0.95808 0.1486 0.30382 0.0
H2314 H 0.95863 0.14631 0.27688 0.0
H2315 H 0.01979 0.20227 0.25512 0.0
H2316 H 0.0279 0.1797 0.1804 0.0
H2317 H 0.02948 0.17905 0.20754 0.0
H2318 H 0.96948 0.13111 0.2298 0.0
C2319 C 0.97413 0.1567 0.28261 0.0
C2320 C 0.00905 0.18646 0.24983 0.0
C2321 C 0.97375 0.15813 0.29806 0.0
C2322 C 0.01262 0.17328 0.18668 0.0
C2323 C 0.01355 0.17299 0.20216 0.0
C2324 C 0.98062 0.14664 0.23529 0.0
C2325 C -0.00583 0.16888 0.27471 0.0
C2326 C -0.00535 0.16758 0.25824 0.0
C2327 C -0.00596 0.16496 0.21062 0.0
C2328 C -0.00507 0.16555 0.22699 0.0
H2329 H 0.02871 0.19491 0.30381 0.0
H2330 H 0.02958 0.19178 0.27706 0.0
H2331 H 0.96964 0.1326 0.25683 0.0
H2332 H 0.95676 0.15198 0.18269 0.0
H2333 H 0.95839 0.15103 0.20966 0.0
C2334 C 0.83915 0.82364 0.30259 0.0
C2335 C 0.81927 0.81805 0.31006 0.0
C2336 C 0.83989 0.82408 0.28708 0.0
C2337 C 0.80411 0.80171 0.25427 0.0
H2338 H 0.852 0.85151 0.23349 0.0
C2339 C 0.81583 0.80094 0.19131 0.0
C2340 C 0.82027 0.82015 0.18337 0.0
C2341 C 0.81628 0.80106 0.20675 0.0
C2342 C 0.83848 0.83757 0.23916 0.0
H2343 H 0.78455 0.80826 0.30709 0.0
H2344 H 0.7859 0.80891 0.28018 0.0
H2345 H 0.85188 0.85069 0.26063 0.0
H2346 H 0.82884 0.85464 0.18551 0.0
H2347 H 0.82961 0.8548 0.21263 0.0
H2348 H 0.79057 0.78865 0.2329 0.0
C2349 C 0.80086 0.8129 0.28627 0.0
C2350 C 0.83854 0.83698 0.25466 0.0
C2351 C 0.80015 0.81264 0.30171 0.0
C2352 C 0.82529 0.83956 0.19128 0.0
C2353 C 0.82588 0.8397 0.20679 0.0
C2354 C 0.80414 0.80222 0.23882 0.0
C2355 C 0.82074 0.81869 0.27878 0.0
C2356 C 0.82127 0.81908 0.26236 0.0
C2357 C 0.82126 0.8204 0.21467 0.0
C2358 C 0.82129 0.82016 0.2311 0.0
H2359 H 0.85418 0.82795 0.30869 0.0
H2360 H 0.8554 0.82843 0.28157 0.0
H2361 H 0.79067 0.78762 0.2599 0.0
H2362 H 0.81195 0.7857 0.1856 0.0
H2363 H 0.81291 0.78601 0.21251 0.0
C2364 C 0.14522 0.97234 0.19717 0.0
C2365 C 0.16088 0.99245 0.19053 0.0
C2366 C 0.14227 0.97102 0.21256 0.0
C2367 C 0.14862 0.00401 0.24552 0.0
H2368 H 0.15758 0.96076 0.26687 0.0
C2369 C 0.16296 0.00968 0.30872 0.0
C2370 C 0.15575 0.98995 0.31675 0.0
C2371 C 0.16131 0.00916 0.29327 0.0
C2372 C 0.15453 0.97265 0.26114 0.0
H2373 H 0.18522 0.02704 0.19468 0.0
H2374 H 0.17966 0.02477 0.22144 0.0
H2375 H 0.15783 0.9608 0.23989 0.0
H2376 H 0.14019 0.95411 0.31502 0.0
H2377 H 0.13637 0.95305 0.28823 0.0
H2378 H 0.14494 0.01574 0.26663 0.0
C2379 C 0.16986 0.01005 0.21478 0.0
C2380 C 0.15478 0.97268 0.24567 0.0
C2381 C 0.17314 0.01127 0.19949 0.0
C2382 C 0.14618 0.96963 0.3091 0.0
C2383 C 0.14413 0.96906 0.29371 0.0
C2384 C 0.14796 0.00375 0.26099 0.0
C2385 C 0.15455 0.9899 0.22146 0.0
C2386 C 0.15217 0.98857 0.23775 0.0
C2387 C 0.15202 0.98883 0.28554 0.0
C2388 C 0.15127 0.98829 0.26903 0.0
H2389 H 0.13556 0.95758 0.19053 0.0
H2390 H 0.13035 0.9553 0.2175 0.0
H2391 H 0.14641 0.01634 0.2396 0.0
H2392 H 0.1705 0.02559 0.31434 0.0
H2393 H 0.16791 0.02478 0.28739 0.0
C2394 C 0.982 0.79658 0.69273 0.0
C2395 C -0.00546 0.81551 0.68392 0.0
C2396 C 0.983 0.79811 0.70815 0.0
C2397 C -0.00462 0.83698 0.73883 0.0
H2398 H 3e-05 0.79216 0.76161 0.0
C2399 C 0.98068 0.82572 0.8023 0.0
C2400 C -0.00402 0.82233 0.81043 0.0
C2401 C 0.9811 0.82577 0.7868 0.0
C2402 C -0.00116 0.80486 0.7554 0.0
H2403 H 0.01801 0.85095 0.68441 0.0
H2404 H 0.01966 0.85362 0.71147 0.0
H2405 H 0.00046 0.79094 0.73462 0.0
H2406 H 0.02377 0.81644 0.80862 0.0
H2407 H 0.02438 0.81647 0.78169 0.0
H2408 H -0.00624 0.85088 0.75969 0.0
C2409 C 0.00902 0.83761 0.70636 0.0
C2410 C -0.00108 0.80407 0.73996 0.0
C2411 C 0.00818 0.83605 0.69089 0.0
C2412 C 0.0117 0.81905 0.80273 0.0
C2413 C 0.01201 0.81896 0.78729 0.0
C2414 C -0.00488 0.83768 0.75431 0.0
C2415 C -0.00356 0.81864 0.71512 0.0
C2416 C -0.00287 0.82007 0.73151 0.0
C2417 C -0.0033 0.82226 0.77915 0.0
C2418 C -0.00314 0.82162 0.76274 0.0
H2419 H 0.97131 0.78049 0.68774 0.0
H2420 H 0.97293 0.78325 0.71462 0.0
H2421 H -0.0062 0.84942 0.73258 0.0
H2422 H 0.96839 0.82834 0.80789 0.0
H2423 H 0.96898 0.82818 0.78079 0.0
C2424 C 0.16917 0.19947 0.80826 0.0
C2425 C 0.16566 0.18018 0.81569 0.0
C2426 C 0.16827 0.19993 0.79283 0.0
C2427 C 0.14692 0.164 0.75987 0.0
H2428 H 0.19302 0.21554 0.73934 0.0
C2429 C 0.14719 0.17463 0.69615 0.0
C2430 C 0.16761 0.18088 0.68922 0.0
C2431 C 0.1459 0.17553 0.71159 0.0
C2432 C 0.18003 0.20105 0.74492 0.0
H2433 H 0.15829 0.14618 0.81267 0.0
H2434 H 0.15687 0.14708 0.78565 0.0
H2435 H 0.19286 0.21449 0.76634 0.0
H2436 H 0.20278 0.19363 0.69306 0.0
H2437 H 0.20049 0.19523 0.71985 0.0
H2438 H 0.13442 0.15036 0.73837 0.0
C2439 C 0.16012 0.16176 0.79184 0.0
C2440 C 0.17984 0.20051 0.76038 0.0
C2441 C 0.1611 0.16131 0.8073 0.0
C2442 C 0.18677 0.18863 0.69802 0.0
C2443 C 0.1855 0.18969 0.71339 0.0
C2444 C 0.14705 0.16458 0.74438 0.0
C2445 C 0.16378 0.18111 0.78444 0.0
C2446 C 0.16342 0.18189 0.76802 0.0
C2447 C 0.16504 0.18293 0.72036 0.0
C2448 C 0.16378 0.18301 0.73676 0.0
H2449 H 0.17263 0.2143 0.81435 0.0
H2450 H 0.17091 0.215 0.78746 0.0
H2451 H 0.13392 0.14953 0.76547 0.0
H2452 H 0.13213 0.16857 0.68968 0.0
H2453 H 0.12994 0.1704 0.71668 0.0
C2454 C 0.81742 0.97289 0.80003 0.0
C2455 C 0.82785 0.99266 0.80827 0.0
C2456 C 0.82019 0.97327 0.78471 0.0
C2457 C 0.85409 0.00936 0.75334 0.0
H2458 H 0.8026 0.96794 0.73047 0.0
C2459 C 0.84164 0.01725 0.69058 0.0
C2460 C 0.83438 -0.00208 0.68201 0.0
C2461 C 0.84312 0.01645 0.70597 0.0
C2462 C 0.81718 0.97942 0.73674 0.0
H2463 H 0.84962 0.02833 0.80704 0.0
H2464 H 0.85367 0.02921 0.78014 0.0
H2465 H 0.80055 0.96719 0.75737 0.0
H2466 H 0.82336 0.96271 0.68281 0.0
H2467 H 0.82541 0.96125 0.70983 0.0
H2468 H 0.8702 0.02221 0.73244 0.0
C2469 C 0.84385 0.01327 0.78552 0.0
C2470 C 0.81609 0.97897 0.75217 0.0
C2471 C 0.84143 0.01283 0.80093 0.0
C2472 C 0.82902 0.97786 0.68912 0.0
C2473 C 0.83012 0.977 0.70455 0.0
C2474 C 0.85502 0.01005 0.73786 0.0
C2475 C 0.83306 0.99349 0.77719 0.0
C2476 C 0.83453 0.9939 0.76071 0.0
C2477 C 0.83701 -0.00375 0.7131 0.0
C2478 C 0.83656 0.99506 0.72945 0.0
H2479 H 0.80714 0.95704 0.80543 0.0
H2480 H 0.81214 0.95762 0.77878 0.0
H2481 H 0.86874 0.02088 0.75951 0.0
H2482 H 0.84602 0.03298 0.6854 0.0
H2483 H 0.84834 0.03148 0.71235 0.0
C2484 C 0.65454 0.52246 0.52933 0.0
C2485 C 0.66553 0.51446 0.52033 0.0
C2486 C 0.6565 0.52269 0.54471 0.0
C2487 C 0.66776 0.49506 0.57516 0.0
H2488 H 0.67419 0.54518 0.59808 0.0
C2489 C 0.65172 0.49102 0.63846 0.0
C2490 C 0.6669 0.50947 0.64686 0.0
C2491 C 0.6527 0.49167 0.62296 0.0
C2492 C 0.67255 0.53111 0.59184 0.0
H2493 H 0.68757 0.5008 0.52045 0.0
H2494 H 0.69096 0.50118 0.54748 0.0
H2495 H 0.67516 0.54714 0.57111 0.0
H2496 H 0.69511 0.54302 0.64549 0.0
H2497 H 0.69675 0.54407 0.6186 0.0
H2498 H 0.66512 0.47903 0.59596 0.0
C2499 C 0.68074 0.50716 0.54253 0.0
C2500 C 0.67294 0.53218 0.5764 0.0
C2501 C 0.67893 0.5071 0.52708 0.0
C2502 C 0.68308 0.52852 0.63941 0.0
C2503 C 0.68399 0.52918 0.62397 0.0
C2504 C 0.66724 0.49394 0.59064 0.0
C2505 C 0.6694 0.51482 0.55149 0.0
C2506 C 0.6704 0.51412 0.56789 0.0
C2507 C 0.66879 0.51082 0.61557 0.0
C2508 C 0.66954 0.51193 0.59914 0.0
H2509 H 0.64411 0.52828 0.52451 0.0
H2510 H 0.64739 0.52848 0.55131 0.0
H2511 H 0.66556 0.48082 0.56888 0.0
H2512 H 0.63907 0.47608 0.64385 0.0
H2513 H 0.64063 0.47733 0.61677 0.0
C2514 C 0.46205 0.14758 0.63658 0.0
C2515 C 0.48112 0.15225 0.64476 0.0
C2516 C 0.46252 0.14791 0.62112 0.0
C2517 C 0.49996 0.17031 0.58915 0.0
H2518 H 0.45137 0.12183 0.56792 0.0
C2519 C 0.48857 0.16989 0.52536 0.0
C2520 C 0.48367 0.15001 0.51814 0.0
C2521 C 0.48841 0.17087 0.54085 0.0
C2522 C 0.46507 0.13545 0.57369 0.0
H2523 H 0.51573 0.16109 0.64305 0.0
H2524 H 0.51651 0.16168 0.61597 0.0
H2525 H 0.45119 0.12205 0.59494 0.0
H2526 H 0.47461 0.11555 0.52156 0.0
H2527 H 0.47421 0.11729 0.54845 0.0
H2528 H 0.51391 0.18359 0.56783 0.0
C2529 C 0.50124 0.15786 0.6216 0.0
C2530 C 0.46488 0.13567 0.58915 0.0
C2531 C 0.50073 0.15737 0.63709 0.0
C2532 C 0.47846 0.13114 0.52673 0.0
C2533 C 0.47811 0.13207 0.54215 0.0
C2534 C 0.50006 0.1702 0.57365 0.0
C2535 C 0.4821 0.15305 0.61347 0.0
C2536 C 0.48237 0.15304 0.59705 0.0
C2537 C 0.48309 0.15193 0.54938 0.0
C2538 C 0.48267 0.15267 0.56578 0.0
H2539 H 0.44666 0.14361 0.64211 0.0
H2540 H 0.44759 0.14435 0.61515 0.0
H2541 H 0.51356 0.184 0.59496 0.0
H2542 H 0.49269 0.18473 0.51906 0.0
H2543 H 0.49217 0.18635 0.54615 0.0
C2544 C 0.83249 0.34222 0.63792 0.0
C2545 C 0.82475 0.32187 0.64531 0.0
C2546 C 0.83266 0.34299 0.62244 0.0
C2547 C 0.80713 0.3109 0.58911 0.0
H2548 H 0.86394 0.34917 0.57036 0.0
C2549 C 0.81975 0.30892 0.5258 0.0
C2550 C 0.83469 0.32902 0.51886 0.0
C2551 C 0.81789 0.3077 0.54127 0.0
C2552 C 0.84782 0.33868 0.57535 0.0
H2553 H 0.81031 0.28628 0.64234 0.0
H2554 H 0.81011 0.28764 0.61528 0.0
H2555 H 0.86107 0.34838 0.59725 0.0
H2556 H 0.85883 0.36377 0.52259 0.0
H2557 H 0.85494 0.36194 0.5493 0.0
H2558 H 0.79361 0.30163 0.56728 0.0
C2559 C 0.81626 0.30296 0.62149 0.0
C2560 C 0.84626 0.33819 0.59077 0.0
C2561 C 0.81651 0.30223 0.63694 0.0
C2562 C 0.84742 0.34793 0.52762 0.0
C2563 C 0.84527 0.34683 0.543 0.0
C2564 C 0.80857 0.31169 0.57364 0.0
C2565 C 0.82464 0.32337 0.61412 0.0
C2566 C 0.82594 0.32427 0.59777 0.0
C2567 C 0.83066 0.32667 0.55007 0.0
C2568 C 0.82897 0.32558 0.56655 0.0
H2569 H 0.83897 0.35761 0.64408 0.0
H2570 H 0.83912 0.35891 0.61695 0.0
H2571 H 0.79125 0.30008 0.59432 0.0
H2572 H 0.80977 0.29406 0.51931 0.0
H2573 H 0.8067 0.2918 0.54629 0.0
C2574 C 0.64242 0.14234 0.13236 0.0
C2575 C 0.662 0.14897 0.14048 0.0
C2576 C 0.64287 0.14265 0.11688 0.0
C2577 C 0.67885 0.1698 0.0853 0.0
H2578 H 0.63782 0.1171 0.06334 0.0
C2579 C 0.68373 0.16462 0.02147 0.0
C2580 C 0.66364 0.15244 0.01373 0.0
C2581 C 0.68401 0.16432 0.03698 0.0
C2582 C 0.64917 0.13212 0.06925 0.0
H2583 H 0.69744 0.16137 0.13873 0.0
H2584 H 0.69821 0.16229 0.11168 0.0
H2585 H 0.63689 0.11652 0.09032 0.0
H2586 H 0.62802 0.13103 0.01616 0.0
H2587 H 0.62836 0.13125 0.04302 0.0
H2588 H 0.69071 0.18573 0.06433 0.0
C2589 C 0.68255 0.15672 0.11733 0.0
C2590 C 0.64867 0.13169 0.08471 0.0
C2591 C 0.68205 0.15604 0.1328 0.0
C2592 C 0.64383 0.14035 0.02179 0.0
C2593 C 0.64406 0.14035 0.03724 0.0
C2594 C 0.67912 0.17038 0.06981 0.0
C2595 C 0.66297 0.14997 0.10924 0.0
C2596 C 0.6635 0.15051 0.09286 0.0
C2597 C 0.66416 0.15212 0.04507 0.0
C2598 C 0.66425 0.15153 0.06157 0.0
H2599 H 0.62673 0.1368 0.13797 0.0
H2600 H 0.62757 0.13746 0.11085 0.0
H2601 H 0.69036 0.18459 0.09137 0.0
H2602 H 0.69927 0.17402 0.01554 0.0
H2603 H 0.69985 0.17336 0.04259 0.0
C2604 C 0.82881 0.527 0.13617 0.0
C2605 C 0.82771 0.50866 0.14357 0.0
C2606 C 0.8282 0.52754 0.12073 0.0
C2607 C 0.81251 0.49241 0.08728 0.0
H2608 H 0.8558 0.54705 0.06804 0.0
C2609 C 0.81612 0.50457 0.02353 0.0
C2610 C 0.83744 0.51324 0.01734 0.0
C2611 C 0.81344 0.50468 0.0389 0.0
C2612 C 0.8436 0.53169 0.07326 0.0
H2613 H 0.8247 0.4763 0.14048 0.0
H2614 H 0.82378 0.47734 0.11344 0.0
H2615 H 0.85386 0.54516 0.09501 0.0
H2616 H 0.87267 0.52944 0.02241 0.0
H2617 H 0.86796 0.52971 0.04907 0.0
H2618 H 0.80267 0.47882 0.06545 0.0
C2619 C 0.82494 0.49121 0.11966 0.0
C2620 C 0.84236 0.53066 0.08869 0.0
C2621 C 0.82561 0.49069 0.13514 0.0
C2622 C 0.856 0.52257 0.0268 0.0
C2623 C 0.85333 0.52286 0.04209 0.0
C2624 C 0.81367 0.49349 0.0718 0.0
C2625 C 0.82643 0.50974 0.1123 0.0
C2626 C 0.82697 0.51095 0.09588 0.0
C2627 C 0.83203 0.51371 0.04832 0.0
C2628 C 0.82944 0.51306 0.06465 0.0
H2629 H 0.8303 0.5411 0.14228 0.0
H2630 H 0.82909 0.54192 0.11539 0.0
H2631 H 0.80034 0.47707 0.09251 0.0
H2632 H 0.8015 0.49723 0.01654 0.0
H2633 H 0.79684 0.49767 0.04342 0.0
C2634 C 0.48834 0.34597 0.03127 0.0
C2635 C 0.48199 0.32638 0.02324 0.0
C2636 C 0.48903 0.34595 0.04672 0.0
C2637 C 0.48947 0.31249 0.07884 0.0
H2638 H 0.47448 0.3513 0.10068 0.0
C2639 C 0.47132 0.30574 0.14176 0.0
C2640 C 0.48335 0.32548 0.14993 0.0
C2641 C 0.47206 0.3061 0.12631 0.0
C2642 C 0.47886 0.34052 0.09469 0.0
H2643 H 0.4711 0.29131 0.02507 0.0
H2644 H 0.4713 0.29096 0.05209 0.0
H2645 H 0.47295 0.35073 0.0737 0.0
H2646 H 0.50549 0.3611 0.14833 0.0
H2647 H 0.50621 0.36176 0.12116 0.0
H2648 H 0.49441 0.30168 0.10004 0.0
C2649 C 0.47646 0.30656 0.04647 0.0
C2650 C 0.4781 0.34023 0.07922 0.0
C2651 C 0.47617 0.30669 0.03098 0.0
C2652 C 0.49609 0.34563 0.14232 0.0
C2653 C 0.49645 0.34603 0.12682 0.0
C2654 C 0.48981 0.3125 0.09432 0.0
C2655 C 0.48297 0.32623 0.05456 0.0
C2656 C 0.48349 0.32628 0.07107 0.0
C2657 C 0.48449 0.32625 0.11872 0.0
C2658 C 0.48458 0.32657 0.10235 0.0
H2659 H 0.4932 0.36149 0.02562 0.0
H2660 H 0.49465 0.36153 0.05247 0.0
H2661 H 0.49415 0.30184 0.073 0.0
H2662 H 0.46145 0.28994 0.14731 0.0
H2663 H 0.4626 0.29066 0.12027 0.0
C2664 C 0.33847 0.83843 0.86165 0.0
C2665 C 0.32446 0.84391 0.85373 0.0
C2666 C 0.3388 0.83895 0.87716 0.0
C2667 C 0.32498 0.86295 0.90909 0.0
H2668 H 0.32492 0.81504 0.93115 0.0
C2669 C 0.34041 0.86773 0.97191 0.0
C2670 C 0.32748 0.84855 0.98043 0.0
C2671 C 0.33923 0.86689 0.95648 0.0
C2672 C 0.32473 0.82843 0.92513 0.0
H2673 H 0.30002 0.85451 0.85593 0.0
H2674 H 0.3006 0.85533 0.88282 0.0
H2675 H 0.32507 0.81435 0.90408 0.0
H2676 H 0.30285 0.81345 0.97937 0.0
H2677 H 0.30071 0.81204 0.95231 0.0
H2678 H 0.32438 0.87692 0.93008 0.0
C2679 C 0.31145 0.8508 0.87709 0.0
C2680 C 0.32512 0.82818 0.90965 0.0
C2681 C 0.31106 0.85022 0.86164 0.0
C2682 C 0.31303 0.82853 0.97314 0.0
C2683 C 0.31192 0.82768 0.95765 0.0
C2684 C 0.32466 0.86323 0.92454 0.0
C2685 C 0.32523 0.84508 0.88502 0.0
C2686 C 0.32525 0.84545 0.90146 0.0
C2687 C 0.32512 0.84684 0.94917 0.0
C2688 C 0.32459 0.84601 0.93274 0.0
H2689 H 0.349 0.8335 0.8559 0.0
H2690 H 0.34978 0.8347 0.88298 0.0
H2691 H 0.32525 0.87659 0.9031 0.0
H2692 H 0.35173 0.88344 0.97713 0.0
H2693 H 0.3498 0.88188 0.95027 0.0
C2694 C 0.14373 0.49723 0.85735 0.0
C2695 C 0.15103 0.48468 0.84945 0.0
C2696 C 0.14473 0.49802 0.87284 0.0
C2697 C 0.15096 0.46825 0.90528 0.0
H2698 H 0.16155 0.52125 0.92642 0.0
C2699 C 0.16738 0.48124 0.96863 0.0
C2700 C 0.15307 0.48677 0.97611 0.0
C2701 C 0.16806 0.48136 0.95313 0.0
C2702 C 0.15858 0.50636 0.92061 0.0
H2703 H 0.16588 0.4638 0.85149 0.0
H2704 H 0.16857 0.46596 0.8783 0.0
H2705 H 0.16132 0.52112 0.89938 0.0
H2706 H 0.1286 0.49717 0.97324 0.0
H2707 H 0.13023 0.49784 0.94624 0.0
H2708 H 0.14884 0.45382 0.92664 0.0
C2709 C 0.16121 0.4745 0.87271 0.0
C2710 C 0.15826 0.50618 0.90513 0.0
C2711 C 0.15981 0.47337 0.85729 0.0
C2712 C 0.1397 0.49268 0.9678 0.0
C2713 C 0.14072 0.49323 0.95237 0.0
C2714 C 0.1517 0.4686 0.92075 0.0
C2715 C 0.15346 0.48661 0.88073 0.0
C2716 C 0.15427 0.48706 0.89724 0.0
C2717 C 0.15482 0.48749 0.9449 0.0
C2718 C 0.15531 0.48758 0.92853 0.0
H2719 H 0.1368 0.50604 0.85158 0.0
H2720 H 0.13827 0.50725 0.87861 0.0
H2721 H 0.14737 0.45304 0.89967 0.0
H2722 H 0.17785 0.4766 0.97474 0.0
H2723 H 0.17909 0.47691 0.94756 0.0
C2724 C 0.50283 0.68029 0.97183 0.0
C2725 C 0.49639 0.65998 0.97897 0.0
C2726 C 0.50192 0.68123 0.95638 0.0
C2727 C 0.47479 0.64812 0.92349 0.0
H2728 H 0.52882 0.68913 0.90274 0.0
C2729 C 0.48387 0.64306 0.86016 0.0
C2730 C 0.49713 0.6629 0.85239 0.0
C2731 C 0.48288 0.64311 0.87565 0.0
C2732 C 0.51342 0.67786 0.9083 0.0
H2733 H 0.48329 0.62466 0.97557 0.0
H2734 H 0.48129 0.62631 0.94865 0.0
H2735 H 0.52817 0.68906 0.92971 0.0
H2736 H 0.51908 0.69846 0.85467 0.0
H2737 H 0.51665 0.69873 0.8815 0.0
H2738 H 0.4598 0.63716 0.90218 0.0
C2739 C 0.4872 0.64147 0.955 0.0
C2740 C 0.51313 0.6778 0.92377 0.0
C2741 C 0.4885 0.64058 0.97039 0.0
C2742 C 0.50895 0.68283 0.86036 0.0
C2743 C 0.50765 0.68295 0.87579 0.0
C2744 C 0.47494 0.64842 0.908 0.0
C2745 C 0.49412 0.66182 0.94785 0.0
C2746 C 0.4939 0.66279 0.93149 0.0
C2747 C 0.49483 0.66307 0.88367 0.0
C2748 C 0.49433 0.66316 0.90018 0.0
H2749 H 0.509 0.69551 0.97816 0.0
H2750 H 0.50727 0.69711 0.95109 0.0
H2751 H 0.4597 0.63649 0.92923 0.0
H2752 H 0.47465 0.62742 0.85431 0.0
H2753 H 0.4731 0.6274 0.88131 0.0
C2754 C 0.34226 0.49184 0.46849 0.0
C2755 C 0.32257 0.48475 0.47661 0.0
C2756 C 0.34214 0.49284 0.45305 0.0
C2757 C 0.30721 0.46831 0.42091 0.0
H2758 H 0.34914 0.52231 0.40045 0.0
C2759 C 0.30316 0.47641 0.35775 0.0
C2760 C 0.32315 0.48855 0.34989 0.0
C2761 C 0.30301 0.47657 0.3732 0.0
C2762 C 0.33755 0.50697 0.40595 0.0
H2763 H 0.28728 0.47295 0.4749 0.0
H2764 H 0.28701 0.47416 0.44776 0.0
H2765 H 0.34902 0.52118 0.42748 0.0
H2766 H 0.35871 0.51029 0.35204 0.0
H2767 H 0.35865 0.50986 0.37907 0.0
H2768 H 0.29623 0.45368 0.39956 0.0
C2769 C 0.30252 0.47912 0.45345 0.0
C2770 C 0.33741 0.50641 0.42143 0.0
C2771 C 0.3027 0.47851 0.46894 0.0
C2772 C 0.34303 0.50088 0.35781 0.0
C2773 C 0.34294 0.50072 0.37332 0.0
C2774 C 0.30759 0.46871 0.40544 0.0
C2775 C 0.32227 0.48641 0.4454 0.0
C2776 C 0.3222 0.4871 0.42903 0.0
C2777 C 0.32291 0.48853 0.38122 0.0
C2778 C 0.3227 0.48809 0.39773 0.0
H2779 H 0.35786 0.49686 0.47407 0.0
H2780 H 0.35753 0.49836 0.44706 0.0
H2781 H 0.29552 0.45313 0.42655 0.0
H2782 H 0.28751 0.46695 0.35195 0.0
H2783 H 0.28719 0.46742 0.37884 0.0
C2784 C 0.50432 0.82171 0.47383 0.0
C2785 C 0.51069 0.84181 0.48127 0.0
C2786 C 0.50426 0.82097 0.45834 0.0
C2787 C 0.52803 0.85636 0.42539 0.0
H2788 H 0.47737 0.80912 0.40485 0.0
C2789 C 0.52794 0.84348 0.36242 0.0
C2790 C 0.50872 0.83911 0.35455 0.0
C2791 C 0.52803 0.84344 0.37788 0.0
C2792 C 0.49156 0.82247 0.41044 0.0
H2793 H 0.52235 0.87695 0.47822 0.0
H2794 H 0.52228 0.87562 0.4513 0.0
H2795 H 0.4782 0.80967 0.43195 0.0
H2796 H 0.47444 0.83118 0.3568 0.0
H2797 H 0.47466 0.83116 0.3839 0.0
H2798 H 0.54131 0.86933 0.40395 0.0
C2799 C 0.51742 0.86046 0.45743 0.0
C2800 C 0.49215 0.82265 0.42593 0.0
C2801 C 0.51735 0.86118 0.47287 0.0
C2802 C 0.48953 0.83462 0.36252 0.0
C2803 C 0.4896 0.83447 0.37803 0.0
C2804 C 0.52751 0.85611 0.40993 0.0
C2805 C 0.51074 0.84034 0.44999 0.0
C2806 C 0.51036 0.83966 0.43356 0.0
C2807 C 0.5089 0.83896 0.38585 0.0
C2808 C 0.50926 0.83919 0.40229 0.0
H2809 H 0.49908 0.80648 0.47996 0.0
H2810 H 0.49925 0.80527 0.45289 0.0
H2811 H 0.54237 0.86959 0.43095 0.0
H2812 H 0.54301 0.84695 0.35667 0.0
H2813 H 0.54306 0.84668 0.38359 0.0
C2814 C 0.1412 0.64144 0.35745 0.0
C2815 C 0.14698 0.66152 0.35023 0.0
C2816 C 0.14225 0.64067 0.3729 0.0
C2817 C 0.14642 0.67326 0.40682 0.0
H2818 H 0.16474 0.63455 0.42519 0.0
C2819 C 0.16965 0.67879 0.46868 0.0
C2820 C 0.15745 0.65873 0.47648 0.0
C2821 C 0.16914 0.67897 0.4532 0.0
C2822 C 0.15958 0.64539 0.42016 0.0
H2823 H 0.1587 0.6966 0.35352 0.0
H2824 H 0.16135 0.69549 0.38025 0.0
H2825 H 0.16191 0.63508 0.39824 0.0
H2826 H 0.13594 0.62307 0.47422 0.0
H2827 H 0.13556 0.62342 0.44715 0.0
H2828 H 0.1448 0.68399 0.42881 0.0
C2829 C 0.15526 0.68011 0.37413 0.0
C2830 C 0.15776 0.6456 0.40475 0.0
C2831 C 0.15385 0.68079 0.35875 0.0
C2832 C 0.14541 0.6388 0.4685 0.0
C2833 C 0.14526 0.63895 0.45304 0.0
C2834 C 0.14863 0.67332 0.42219 0.0
C2835 C 0.14945 0.66005 0.38144 0.0
C2836 C 0.15112 0.65952 0.39787 0.0
C2837 C 0.15681 0.65907 0.44528 0.0
C2838 C 0.15518 0.65937 0.42898 0.0
H2839 H 0.13576 0.62629 0.35117 0.0
H2840 H 0.13726 0.62484 0.37813 0.0
H2841 H 0.14077 0.68383 0.402 0.0
H2842 H 0.17903 0.6944 0.47453 0.0
H2843 H 0.17827 0.69468 0.44741 0.0
C2844 C 0.11727 0.39789 0.04601 0.0
C2845 C 0.11684 0.41604 0.05239 0.0
C2846 C 0.10619 0.37709 0.05283 0.0
C2847 C 0.06144 0.34502 0.08008 0.0
H2848 H 0.08448 0.30451 0.07818 0.0
C2849 C 0.0257 0.26309 0.11344 0.0
C2850 C 0.02244 0.24435 0.10549 0.0
C2851 C 0.03662 0.28409 0.10687 0.0
C2852 C 0.07781 0.31563 0.07868 0.0
H2853 H 0.10529 0.4273 0.07089 0.0
H2854 H 0.08657 0.39113 0.08322 0.0
H2855 H 0.10597 0.34161 0.06756 0.0
H2856 H 0.02672 0.23238 0.0843 0.0
H2857 H 0.04652 0.26929 0.07288 0.0
H2858 H 0.03352 0.31907 0.09157 0.0
C2859 C 0.09487 0.39265 0.07277 0.0
C2860 C 0.09006 0.33686 0.07258 0.0
C2861 C 0.10573 0.41338 0.06584 0.0
C2862 C 0.02962 0.24674 0.09074 0.0
C2863 C 0.04083 0.26776 0.08422 0.0
C2864 C 0.04934 0.3239 0.08636 0.0
C2865 C 0.09467 0.37416 0.06624 0.0
C2866 C 0.08198 0.35179 0.07313 0.0
C2867 C 0.04462 0.28664 0.09229 0.0
C2868 C 0.05737 0.30899 0.08564 0.0
H2869 H 0.12558 0.39967 0.03552 0.0
H2870 H 0.10611 0.36319 0.04734 0.0
H2871 H 0.05447 0.35589 0.08046 0.0
H2872 H 0.02026 0.26155 0.12485 0.0
H2873 H 0.03942 0.29841 0.11332 0.0
C2874 C 0.59427 0.6937 0.04564 0.0
C2875 C 0.57524 0.69021 0.05326 0.0
C2876 C 0.61499 0.70451 0.05257 0.0
C2877 C 0.64213 0.72231 0.08945 0.0
H2878 H 0.69258 0.76418 0.06595 0.0
C2879 C 0.72692 0.78434 0.11519 0.0
C2880 C 0.74522 0.78437 0.10864 0.0
C2881 C 0.70616 0.77331 0.10831 0.0
C2882 C 0.67863 0.75246 0.07261 0.0
H2883 H 0.56242 0.69399 0.07424 0.0
H2884 H 0.59869 0.71378 0.08624 0.0
H2885 H 0.65613 0.74314 0.05437 0.0
H2886 H 0.75673 0.77365 0.08982 0.0
H2887 H 0.72041 0.75462 0.07755 0.0
H2888 H 0.66471 0.73213 0.10775 0.0
C2889 C 0.59776 0.70801 0.07498 0.0
C2890 C 0.65778 0.74029 0.06598 0.0
C2891 C 0.57702 0.69696 0.06807 0.0
C2892 C 0.74273 0.77383 0.09497 0.0
C2893 C 0.72206 0.76304 0.08798 0.0
C2894 C 0.66294 0.73469 0.0961 0.0
C2895 C 0.61706 0.71219 0.06724 0.0
C2896 C 0.63927 0.72499 0.0743 0.0
C2897 C 0.70352 0.76241 0.0947 0.0
C2898 C 0.68138 0.74981 0.08773 0.0
H2899 H 0.59317 0.68846 0.03421 0.0
H2900 H 0.6294 0.70697 0.04639 0.0
H2901 H 0.62835 0.71044 0.09614 0.0
H2902 H 0.72858 0.79231 0.12581 0.0
H2903 H 0.69214 0.77319 0.11364 0.0
C2904 C 0.22008 0.96896 0.10467 0.0
C2905 C 0.20695 0.95917 0.11723 0.0
C2906 C 0.23086 0.95902 0.09775 0.0
C2907 C 0.23224 0.90619 0.09574 0.0
H2908 H 0.29064 0.94497 0.0791 0.0
C2909 C 0.29197 0.87638 0.07458 0.0
C2910 C 0.29935 0.88296 0.06 0.0
C2911 C 0.28059 0.88531 0.08204 0.0
C2912 C 0.27432 0.93399 0.08369 0.0
H2913 H 0.19447 0.93155 0.13251 0.0
H2914 H 0.21394 0.91443 0.12079 0.0
H2915 H 0.27071 0.96109 0.09125 0.0
H2916 H 0.30108 0.90408 0.04181 0.0
H2917 H 0.28186 0.92027 0.05503 0.0
H2918 H 0.23639 0.87911 0.08844 0.0
C2919 C 0.21552 0.92942 0.11596 0.0
C2920 C 0.26279 0.94317 0.09055 0.0
C2921 C 0.20446 0.93921 0.12273 0.0
C2922 C 0.29564 0.89889 0.05309 0.0
C2923 C 0.28465 0.90809 0.06062 0.0
C2924 C 0.24398 0.89702 0.08909 0.0
C2925 C 0.22902 0.93931 0.10345 0.0
C2926 C 0.24147 0.9294 0.0965 0.0
C2927 C 0.27691 0.90127 0.07511 0.0
C2928 C 0.26499 0.91087 0.08288 0.0
H2929 H 0.22204 0.98434 0.10026 0.0
H2930 H 0.24063 0.96684 0.08794 0.0
H2931 H 0.21576 0.89506 0.1 0.0
H2932 H 0.29514 0.86451 0.08023 0.0
H2933 H 0.27495 0.88001 0.09328 0.0
C2934 C 0.25922 0.04671 0.38082 0.0
C2935 C 0.24147 0.0274 0.38688 0.0
C2936 C 0.28022 0.05637 0.38735 0.0
C2937 C 0.30812 0.06172 0.42243 0.0
H2938 H 0.35988 0.07583 0.39851 0.0
C2939 C 0.39338 0.09136 0.44919 0.0
C2940 C 0.41219 0.1078 0.4418 0.0
C2941 C 0.37269 0.08106 0.44223 0.0
C2942 C 0.34568 0.07232 0.40532 0.0
H2943 H 0.23127 0.00311 0.40449 0.0
H2944 H 0.26805 0.02025 0.41615 0.0
H2945 H 0.32335 0.05933 0.38687 0.0
H2946 H 0.42454 0.12582 0.42122 0.0
H2947 H 0.38821 0.10875 0.40923 0.0
H2948 H 0.33027 0.07523 0.44081 0.0
C2949 C 0.26576 0.02781 0.40631 0.0
C2950 C 0.32477 0.06279 0.39865 0.0
C2951 C 0.24485 0.01798 0.39965 0.0
C2952 C 0.41012 0.11353 0.42724 0.0
C2953 C 0.38936 0.10347 0.42032 0.0
C2954 C 0.32904 0.07154 0.42907 0.0
C2955 C 0.28365 0.04702 0.40017 0.0
C2956 C 0.30582 0.05732 0.40717 0.0
C2957 C 0.37034 0.0872 0.42777 0.0
C2958 C 0.34809 0.07686 0.42062 0.0
H2959 H 0.25687 0.05417 0.37095 0.0
H2960 H 0.29373 0.07127 0.38249 0.0
H2961 H 0.29376 0.05789 0.42919 0.0
H2962 H 0.39466 0.08663 0.46042 0.0
H2963 H 0.35856 0.06825 0.44819 0.0
C2964 C 0.869 0.27546 0.44505 0.0
C2965 C 0.87458 0.29736 0.44174 0.0
C2966 C 0.87859 0.26513 0.43713 0.0
C2967 C 0.92742 0.27774 0.41432 0.0
H2968 H 0.89225 0.21581 0.40285 0.0
C2969 C 0.96713 0.22789 0.39203 0.0
C2970 C 0.95653 0.21363 0.38004 0.0
C2971 C 0.95692 0.23808 0.39939 0.0
C2972 C 0.90226 0.23316 0.40588 0.0
H2973 H 0.8941 0.32561 0.42749 0.0
H2974 H 0.91091 0.30758 0.41355 0.0
H2975 H 0.87449 0.23379 0.41557 0.0
H2976 H 0.92719 0.19885 0.36618 0.0
H2977 H 0.90925 0.21667 0.37901 0.0
H2978 H 0.95513 0.27721 0.40443 0.0
C2979 C 0.89937 0.29845 0.42238 0.0
C2980 C 0.89214 0.24339 0.4133 0.0
C2981 C 0.88974 0.30875 0.43031 0.0
C2982 C 0.93554 0.20961 0.37553 0.0
C2983 C 0.9253 0.21979 0.38288 0.0
C2984 C 0.93755 0.2675 0.40691 0.0
C2985 C 0.89397 0.27656 0.42576 0.0
C2986 C 0.90462 0.26578 0.41763 0.0
C2987 C 0.9359 0.23417 0.39488 0.0
C2988 C 0.92509 0.24509 0.40265 0.0
H2989 H 0.85753 0.26647 0.45396 0.0
H2990 H 0.87433 0.24837 0.44014 0.0
H2991 H 0.93754 0.29495 0.41764 0.0
H2992 H 0.98324 0.23101 0.39578 0.0
H2993 H 0.96536 0.24881 0.40873 0.0
C2994 C 0.7691 0.74378 0.39871 0.0
C2995 C 0.78019 0.74668 0.38522 0.0
C2996 C 0.75785 0.72285 0.40534 0.0
C2997 C 0.75215 0.66668 0.40444 0.0
H2998 H 0.69679 0.64999 0.42476 0.0
C2999 C 0.69251 0.57769 0.42614 0.0
C3000 C 0.6864 0.57679 0.44105 0.0
C3001 C 0.70348 0.59809 0.41873 0.0
C3002 C 0.71226 0.65449 0.41914 0.0
H3003 H 0.78845 0.73046 0.36796 0.0
H3004 H 0.76828 0.69359 0.37927 0.0
H3005 H 0.7173 0.68635 0.41301 0.0
H3006 H 0.68636 0.59609 0.45987 0.0
H3007 H 0.705 0.6317 0.44682 0.0
H3008 H 0.74668 0.63446 0.4104 0.0
C3009 C 0.76866 0.70747 0.385 0.0
C3010 C 0.72411 0.67536 0.4125 0.0
C3011 C 0.78014 0.7285 0.37848 0.0
C3012 C 0.69082 0.59642 0.44833 0.0
C3013 C 0.70146 0.61673 0.44088 0.0
C3014 C 0.74011 0.64567 0.41092 0.0
C3015 C 0.75721 0.70433 0.39846 0.0
C3016 C 0.74435 0.68185 0.4052 0.0
C3017 C 0.7081 0.61778 0.42607 0.0
C3018 C 0.72019 0.63949 0.41846 0.0
H3019 H 0.76903 0.75771 0.40405 0.0
H3020 H 0.74966 0.7212 0.41585 0.0
H3021 H 0.76779 0.67118 0.3991 0.0
H3022 H 0.68879 0.56266 0.42022 0.0
H3023 H 0.70821 0.59847 0.40725 0.0
C3024 C 0.94062 0.72854 0.87605 0.0
C3025 C 0.95777 0.74669 0.88356 0.0
C3026 C 0.93029 0.70745 0.8825 0.0
C3027 C 0.91807 0.67912 0.91805 0.0
H3028 H 0.91401 0.62922 0.8961 0.0
C3029 C 0.89287 0.59622 0.94664 0.0
C3030 C 0.87965 0.57649 0.9388 0.0
C3031 C 0.9019 0.61671 0.93952 0.0
C3032 C 0.91465 0.64287 0.90231 0.0
H3033 H 0.97763 0.75752 0.90351 0.0
H3034 H 0.95921 0.72058 0.91501 0.0
H3035 H 0.93016 0.66568 0.88433 0.0
H3036 H 0.86587 0.56243 0.91736 0.0
H3037 H 0.88076 0.59836 0.90493 0.0
H3038 H 0.90218 0.65648 0.93591 0.0
C3039 C 0.95382 0.72263 0.90416 0.0
C3040 C 0.92398 0.66373 0.89557 0.0
C3041 C 0.96436 0.74364 0.89761 0.0
C3042 C 0.87571 0.5775 0.92367 0.0
C3043 C 0.88451 0.59806 0.91654 0.0
C3044 C 0.90846 0.65823 0.92471 0.0
C3045 C 0.93679 0.70434 0.89662 0.0
C3046 C 0.926 0.68206 0.90346 0.0
C3047 C 0.89763 0.61793 0.92441 0.0
C3048 C 0.9069 0.6399 0.917 0.0
H3049 H 0.93544 0.73067 0.86515 0.0
H3050 H 0.91712 0.6936 0.87652 0.0
H3051 H 0.91918 0.69298 0.92427 0.0
H3052 H 0.89609 0.59578 0.95835 0.0
H3053 H 0.91232 0.63158 0.94587 0.0
C3054 C 0.24427 0.21938 0.90385 0.0
C3055 C 0.24089 0.20804 0.89041 0.0
C3056 C 0.26458 0.22808 0.91121 0.0
C3057 C 0.31614 0.22494 0.91334 0.0
H3058 H 0.3401 0.28363 0.93064 0.0
C3059 C 0.40652 0.27717 0.93502 0.0
C3060 C 0.40915 0.28825 0.94851 0.0
C3061 C 0.38579 0.26632 0.92804 0.0
C3062 C 0.33353 0.26714 0.92599 0.0
H3063 H 0.25565 0.19659 0.87406 0.0
H3064 H 0.29142 0.21204 0.8868 0.0
H3065 H 0.30418 0.26652 0.9183 0.0
H3066 H 0.3924 0.29626 0.96558 0.0
H3067 H 0.3562 0.27748 0.95338 0.0
H3068 H 0.34579 0.22582 0.92093 0.0
C3069 C 0.27832 0.21394 0.89182 0.0
C3070 C 0.31292 0.2573 0.91895 0.0
C3071 C 0.25793 0.20516 0.88451 0.0
C3072 C 0.39077 0.28807 0.95505 0.0
C3073 C 0.37012 0.27736 0.94807 0.0
C3074 C 0.33685 0.23486 0.92034 0.0
C3075 C 0.28194 0.2257 0.90518 0.0
C3076 C 0.30392 0.23605 0.91262 0.0
C3077 C 0.36745 0.26653 0.93444 0.0
C3078 C 0.34568 0.256 0.9268 0.0
H3079 H 0.2312 0.22159 0.90863 0.0
H3080 H 0.26668 0.23668 0.92161 0.0
H3081 H 0.30956 0.20845 0.90871 0.0
H3082 H 0.42056 0.27724 0.92976 0.0
H3083 H 0.38423 0.25826 0.91748 0.0
C3084 C 0.6925 0.09315 0.94189 0.0
C3085 C 0.69183 0.11124 0.93557 0.0
C3086 C 0.70183 0.08248 0.93409 0.0
C3087 C 0.74309 0.09241 0.90604 0.0
H3088 H 0.71327 0.02818 0.903 0.0
C3089 C 0.78027 0.0482 0.87243 0.0
C3090 C 0.77739 0.02816 0.8781 0.0
C3091 C 0.76921 0.05821 0.87887 0.0
C3092 C 0.72198 0.04612 0.90392 0.0
H3093 H 0.69925 0.13179 0.91601 0.0
H3094 H 0.71636 0.11357 0.90248 0.0
H3095 H 0.69471 0.04569 0.91529 0.0
H3096 H 0.76128 0.00293 0.89494 0.0
H3097 H 0.74249 0.02072 0.90661 0.0
H3098 H 0.77068 0.09298 0.89518 0.0
C3099 C 0.70979 0.10777 0.91349 0.0
C3100 C 0.71127 0.05611 0.91088 0.0
C3101 C 0.70015 0.11822 0.92122 0.0
C3102 C 0.76355 0.01835 0.89037 0.0
C3103 C 0.7527 0.02847 0.89695 0.0
C3104 C 0.75395 0.08243 0.89926 0.0
C3105 C 0.71081 0.08989 0.9199 0.0
C3106 C 0.72176 0.07933 0.91203 0.0
C3107 C 0.75528 0.04847 0.89122 0.0
C3108 C 0.74356 0.05914 0.89816 0.0
H3109 H 0.68617 0.08753 0.95296 0.0
H3110 H 0.70255 0.06881 0.9393 0.0
H3111 H 0.75162 0.11036 0.90696 0.0
H3112 H 0.79079 0.05589 0.86287 0.0
H3113 H 0.77133 0.0734 0.87402 0.0
C3114 C 0.59203 0.86697 0.55662 0.0
C3115 C 0.57561 0.87214 0.56051 0.0
C3116 C 0.61195 0.87616 0.56451 0.0
C3117 C 0.64788 0.92458 0.58752 0.0
H3118 H 0.67836 0.89183 0.59564 0.0
C3119 C 0.74037 0.9682 0.60328 0.0
C3120 C 0.74669 0.95843 0.61441 0.0
C3121 C 0.71882 0.95702 0.59759 0.0
C3122 C 0.66996 0.90114 0.59358 0.0
H3123 H 0.56649 0.89011 0.57589 0.0
H3124 H 0.60131 0.90614 0.58984 0.0
H3125 H 0.64124 0.87263 0.58478 0.0
H3126 H 0.73573 0.92957 0.62848 0.0
H3127 H 0.69794 0.9099 0.61854 0.0
H3128 H 0.67649 0.95304 0.59639 0.0
C3129 C 0.59899 0.89528 0.58056 0.0
C3130 C 0.6488 0.8902 0.58723 0.0
C3131 C 0.57908 0.88609 0.57265 0.0
C3132 C 0.73122 0.93729 0.61976 0.0
C3133 C 0.70965 0.92607 0.61407 0.0
C3134 C 0.66901 0.9355 0.59385 0.0
C3135 C 0.61577 0.89068 0.57643 0.0
C3136 C 0.63762 0.90185 0.58401 0.0
C3137 C 0.70322 0.93584 0.60294 0.0
C3138 C 0.68038 0.92397 0.59681 0.0
H3139 H 0.58975 0.85642 0.54717 0.0
H3140 H 0.62466 0.87251 0.56093 0.0
H3141 H 0.63981 0.93409 0.58503 0.0
H3142 H 0.75216 0.98442 0.5989 0.0
H3143 H 0.71448 0.96482 0.58884 0.0
C3144 C 0.04826 0.78227 0.60894 0.0
C3145 C 0.02645 0.77693 0.60567 0.0
C3146 C 0.05855 0.77297 0.60074 0.0
C3147 C 0.04596 0.72572 0.57593 0.0
H3148 H 0.10948 0.75956 0.56881 0.0
C3149 C 0.0942 0.69439 0.54028 0.0
C3150 C 0.11298 0.69595 0.54724 0.0
C3151 C 0.08316 0.70453 0.54658 0.0
C3152 C 0.09174 0.74994 0.57077 0.0
H3153 H -0.00165 0.75834 0.59115 0.0
H3154 H 0.01653 0.7424 0.57642 0.0
H3155 H 0.09103 0.77745 0.58073 0.0
H3156 H 0.1347 0.70866 0.5663 0.0
H3157 H 0.11581 0.72707 0.57712 0.0
H3158 H 0.04681 0.69832 0.56568 0.0
C3159 C 0.02553 0.75331 0.58556 0.0
C3160 C 0.08116 0.76011 0.57764 0.0
C3161 C 0.01514 0.76246 0.59391 0.0
C3162 C 0.12051 0.70765 0.56061 0.0
C3163 C 0.10971 0.71809 0.56678 0.0
C3164 C 0.05652 0.71565 0.56885 0.0
C3165 C 0.04733 0.75835 0.58895 0.0
C3166 C 0.05821 0.74801 0.58056 0.0
C3167 C 0.09096 0.71661 0.55981 0.0
C3168 C 0.07954 0.72759 0.56644 0.0
H3169 H 0.05716 0.79324 0.61809 0.0
H3170 H 0.07515 0.77687 0.60389 0.0
H3171 H 0.02834 0.7158 0.57817 0.0
H3172 H 0.08819 0.6855 0.52991 0.0
H3173 H 0.06878 0.70325 0.541 0.0
C3174 C 0.19874 0.24378 0.59679 0.0
C3175 C 0.20666 0.2427 0.61088 0.0
C3176 C 0.20832 0.26389 0.58904 0.0
C3177 C 0.25962 0.31785 0.58645 0.0
H3178 H 0.22228 0.33799 0.56825 0.0
C3179 C 0.29587 0.40682 0.5642 0.0
C3180 C 0.28713 0.40963 0.55093 0.0
C3181 C 0.2857 0.38621 0.57129 0.0
C3182 C 0.23295 0.33247 0.57309 0.0
H3183 H 0.23043 0.26154 0.62807 0.0
H3184 H 0.24746 0.29663 0.61447 0.0
H3185 H 0.2052 0.30203 0.58075 0.0
H3186 H 0.26128 0.3935 0.53447 0.0
H3187 H 0.24355 0.35723 0.54671 0.0
H3188 H 0.28737 0.34807 0.57872 0.0
C3189 C 0.234 0.28197 0.60934 0.0
C3190 C 0.22315 0.3119 0.58026 0.0
C3191 C 0.2243 0.26194 0.61711 0.0
C3192 C 0.26808 0.39164 0.54482 0.0
C3193 C 0.25796 0.37097 0.55185 0.0
C3194 C 0.26942 0.33832 0.5792 0.0
C3195 C 0.2261 0.28315 0.59524 0.0
C3196 C 0.2364 0.3045 0.58711 0.0
C3197 C 0.2667 0.368 0.56515 0.0
C3198 C 0.2562 0.34597 0.57255 0.0
H3199 H 0.18522 0.22906 0.59176 0.0
H3200 H 0.20204 0.26432 0.57814 0.0
H3201 H 0.27023 0.31238 0.59146 0.0
H3202 H 0.31054 0.42059 0.56908 0.0
H3203 H 0.29264 0.38461 0.58165 0.0
C3204 C 0.05728 0.44506 0.7786 0.0
C3205 C 0.07443 0.44125 0.7742 0.0
C3206 C 0.03676 0.43423 0.77145 0.0
C3207 C 0.00964 0.40711 0.73677 0.0
H3208 H 0.95615 0.3793 0.76074 0.0
C3209 C 0.92263 0.35373 0.71102 0.0
C3210 C 0.90522 0.35583 0.71713 0.0
C3211 C 0.94338 0.36365 0.71792 0.0
C3212 C 0.9709 0.38722 0.75387 0.0
H3213 H 0.08406 0.4237 0.7588 0.0
H3214 H 0.04801 0.4047 0.74613 0.0
H3215 H 0.99238 0.39786 0.77277 0.0
H3216 H 0.89559 0.36973 0.7352 0.0
H3217 H 0.93204 0.38776 0.74703 0.0
H3218 H 0.98823 0.39693 0.71787 0.0
C3219 C 0.05044 0.41602 0.75513 0.0
C3220 C 0.99163 0.39777 0.76077 0.0
C3221 C 0.07094 0.42672 0.7624 0.0
C3222 C 0.90886 0.36803 0.73023 0.0
C3223 C 0.92964 0.37811 0.73708 0.0
C3224 C 0.98888 0.39672 0.72986 0.0
C3225 C 0.03311 0.41955 0.75968 0.0
C3226 C 0.01119 0.40789 0.75229 0.0
C3227 C 0.94715 0.376 0.73102 0.0
C3228 C 0.96925 0.38672 0.73833 0.0
H3229 H 0.05963 0.45614 0.78774 0.0
H3230 H 0.02376 0.43743 0.77507 0.0
H3231 H 0.02448 0.41499 0.72999 0.0
H3232 H 0.92023 0.34452 0.70084 0.0
H3233 H 0.95639 0.36145 0.71305 0.0
C3234 C 0.60526 0.53981 0.71603 0.0
C3235 C 0.62515 0.54229 0.7217 0.0
C3236 C 0.59456 0.54964 0.72322 0.0
C3237 C 0.59082 0.57281 0.75919 0.0
H3238 H 0.56701 0.6027 0.73558 0.0
C3239 C 0.53645 0.60564 0.7843 0.0
C3240 C 0.54059 0.62656 0.7795 0.0
C3241 C 0.54665 0.59518 0.77728 0.0
C3242 C 0.57371 0.59455 0.74233 0.0
H3243 H 0.64944 0.55662 0.73929 0.0
H3244 H 0.63091 0.57408 0.75184 0.0
H3245 H 0.58514 0.5847 0.72334 0.0
H3246 H 0.55839 0.65301 0.76364 0.0
H3247 H 0.57657 0.63489 0.75142 0.0
H3248 H 0.57976 0.58301 0.77819 0.0
C3249 C 0.62341 0.56437 0.74195 0.0
C3250 C 0.58385 0.58402 0.73531 0.0
C3251 C 0.6341 0.55455 0.73473 0.0
C3252 C 0.55508 0.6369 0.76756 0.0
C3253 C 0.56528 0.62644 0.76051 0.0
C3254 C 0.58063 0.58331 0.7662 0.0
C3255 C 0.60358 0.56213 0.73622 0.0
C3256 C 0.59254 0.57306 0.74367 0.0
C3257 C 0.56118 0.60546 0.76531 0.0
C3258 C 0.57199 0.59432 0.75785 0.0
H3259 H 0.59818 0.53053 0.70591 0.0
H3260 H 0.57918 0.54741 0.71863 0.0
H3261 H 0.59718 0.56434 0.76593 0.0
H3262 H 0.52542 0.59743 0.79356 0.0
H3263 H 0.54296 0.57892 0.78113 0.0
C3264 C 0.35188 0.90976 0.76144 0.0
C3265 C 0.3613 0.9069 0.77438 0.0
C3266 C 0.36282 0.9297 0.75357 0.0
C3267 C 0.41729 0.98141 0.7492 0.0
H3268 H 0.38083 0.00532 0.73505 0.0
C3269 C 0.45338 0.07261 0.73033 0.0
C3270 C 0.44421 0.07611 0.71748 0.0
C3271 C 0.44387 0.05146 0.73666 0.0
C3272 C 0.39121 -0.00125 0.73879 0.0
H3273 H 0.38946 0.92212 0.78923 0.0
H3274 H 0.40859 0.95719 0.77562 0.0
H3275 H 0.3633 0.96906 0.74697 0.0
H3276 H 0.41839 0.06043 0.70091 0.0
H3277 H 0.40154 0.02347 0.71206 0.0
H3278 H 0.44525 0.01145 0.74123 0.0
C3279 C 0.39298 0.94398 0.77135 0.0
C3280 C 0.38117 0.97793 0.74558 0.0
C3281 C 0.38205 0.92398 0.77917 0.0
C3282 C 0.42551 0.05817 0.71098 0.0
C3283 C 0.41592 0.03706 0.71734 0.0
C3284 C 0.42735 0.00232 0.74246 0.0
C3285 C 0.38333 0.94719 0.75857 0.0
C3286 C 0.39408 0.96902 0.7509 0.0
C3287 C 0.42496 0.0335 0.73027 0.0
C3288 C 0.41439 0.0112 0.73722 0.0
H3289 H 0.3359 0.89667 0.75755 0.0
H3290 H 0.35513 0.93147 0.74363 0.0
H3291 H 0.42769 0.9749 0.753 0.0
H3292 H 0.46775 0.08629 0.73556 0.0
H3293 H 0.45105 0.04924 0.74672 0.0
C3294 C 0.61281 0.07501 0.22955 0.0
C3295 C 0.62516 0.07752 0.21667 0.0
C3296 C 0.60218 0.05465 0.23698 0.0
C3297 C 0.60403 0.00318 0.24205 0.0
H3298 H 0.54319 0.97867 0.25545 0.0
C3299 C 0.55442 0.91454 0.26547 0.0
C3300 C 0.54115 0.91147 0.27793 0.0
C3301 C 0.56397 0.93456 0.25768 0.0
C3302 C 0.56026 0.9854 0.25193 0.0
H3303 H 0.63607 0.06095 0.20134 0.0
H3304 H 0.61773 0.02539 0.21442 0.0
H3305 H 0.56162 0.01447 0.24273 0.0
H3306 H 0.52713 0.92651 0.29204 0.0
H3307 H 0.54404 0.96174 0.27856 0.0
H3308 H 0.60287 0.97436 0.25138 0.0
C3309 C 0.61636 0.03915 0.21884 0.0
C3310 C 0.57079 0.00588 0.24464 0.0
C3311 C 0.62685 0.05945 0.21137 0.0
C3312 C 0.5372 0.92852 0.28236 0.0
C3313 C 0.54683 0.94862 0.27462 0.0
C3314 C 0.59356 0.98278 0.2494 0.0
C3315 C 0.60389 0.03653 0.23171 0.0
C3316 C 0.59276 0.01494 0.23959 0.0
C3317 C 0.5605 0.95194 0.26226 0.0
C3318 C 0.57153 0.97361 0.25439 0.0
H3319 H 0.61149 0.08883 0.23389 0.0
H3320 H 0.59289 0.05317 0.24697 0.0
H3321 H 0.62108 0.00992 0.23848 0.0
H3322 H 0.55745 0.90145 0.26179 0.0
H3323 H 0.57405 0.93641 0.24804 0.0
C3324 C 0.92568 0.56411 0.20976 0.0
C3325 C 0.9078 0.54496 0.21589 0.0
C3326 C 0.94636 0.57443 0.21674 0.0
C3327 C 0.98056 0.56443 0.24318 0.0
H3328 H 0.01232 0.62857 0.24744 0.0
C3329 C 0.05866 0.61057 0.27965 0.0
C3330 C 0.07604 0.63075 0.27429 0.0
C3331 C 0.03821 0.60002 0.27238 0.0
C3332 C 0.00381 0.61068 0.24617 0.0
H3333 H 0.89721 0.52155 0.23407 0.0
H3334 H 0.93353 0.53947 0.2463 0.0
H3335 H 0.97644 0.61012 0.23493 0.0
H3336 H 0.08604 0.65584 0.25725 0.0
H3337 H 0.05033 0.63729 0.24431 0.0
H3338 H 0.00796 0.56496 0.25432 0.0
C3339 C 0.93163 0.5464 0.23602 0.0
C3340 C 0.98325 0.60012 0.23903 0.0
C3341 C 0.9109 0.53615 0.22906 0.0
C3342 C 0.07274 0.6403 0.26158 0.0
C3343 C 0.05231 0.62973 0.25425 0.0
C3344 C 0.00118 0.575 0.25026 0.0
C3345 C 0.94953 0.56571 0.22997 0.0
C3346 C 0.9714 0.57689 0.23748 0.0
C3347 C 0.0348 0.60946 0.25957 0.0
C3348 C 0.01302 0.59824 0.25187 0.0
H3349 H 0.92365 0.57106 0.19953 0.0
H3350 H 0.95992 0.58912 0.21172 0.0
H3351 H 0.97192 0.54652 0.24197 0.0
H3352 H 0.06083 0.60309 0.28958 0.0
H3353 H 0.02497 0.58464 0.27692 0.0
C3354 C 0.4463 0.38051 0.21716 0.0
C3355 C 0.44363 0.36083 0.22336 0.0
C3356 C 0.43595 0.39125 0.22358 0.0
C3357 C 0.41199 0.39649 0.25859 0.0
H3358 H 0.38194 0.41859 0.23356 0.0
C3359 C 0.35685 0.42877 0.28279 0.0
C3360 C 0.35835 0.44779 0.2763 0.0
C3361 C 0.36723 0.41818 0.27621 0.0
C3362 C 0.3905 0.41276 0.24069 0.0
H3363 H 0.42827 0.33679 0.241 0.0
H3364 H 0.41 0.35551 0.25229 0.0
H3365 H 0.40031 0.40009 0.22234 0.0
H3366 H 0.37154 0.47069 0.25786 0.0
H3367 H 0.39021 0.4525 0.24642 0.0
H3368 H 0.40236 0.40926 0.27694 0.0
C3369 C 0.42022 0.36277 0.24255 0.0
C3370 C 0.40098 0.40215 0.23426 0.0
C3371 C 0.43052 0.352 0.23608 0.0
C3372 C 0.37031 0.45607 0.26308 0.0
C3373 C 0.38078 0.44555 0.2565 0.0
C3374 C 0.40159 0.40718 0.26502 0.0
C3375 C 0.4228 0.38249 0.23635 0.0
C3376 C 0.41179 0.39386 0.24315 0.0
C3377 C 0.3794 0.4265 0.26301 0.0
C3378 C 0.39066 0.41537 0.25614 0.0
H3379 H 0.45623 0.38747 0.20727 0.0
H3380 H 0.43839 0.40652 0.21864 0.0
H3381 H 0.42048 0.39056 0.2657 0.0
H3382 H 0.34779 0.42218 0.29304 0.0
H3383 H 0.36558 0.40338 0.2814 0.0
C3384 C 0.9053 0.18069 0.14841 0.0
C3385 C 0.90294 0.16473 0.13788 0.0
C3386 C 0.88661 0.18007 0.15462 0.0
C3387 C 0.82785 0.14084 0.16232 0.0
H3388 H 0.82443 0.194 0.16974 0.0
C3389 C 0.74701 0.13897 0.1791 0.0
C3390 C 0.74839 0.15526 0.18898 0.0
C3391 C 0.76623 0.13947 0.17408 0.0
C3392 C 0.82529 0.17904 0.16796 0.0
H3393 H 0.87913 0.13626 0.12509 0.0
H3394 H 0.8465 0.13535 0.13583 0.0
H3395 H 0.85713 0.19706 0.15751 0.0
H3396 H 0.77094 0.18404 0.20203 0.0
H3397 H 0.80453 0.18471 0.19339 0.0
H3398 H 0.79599 0.1228 0.17271 0.0
C3399 C 0.86282 0.14809 0.13946 0.0
C3400 C 0.84397 0.18079 0.1609 0.0
C3401 C 0.88152 0.14874 0.13322 0.0
C3402 C 0.76932 0.17133 0.19436 0.0
C3403 C 0.78857 0.17183 0.18932 0.0
C3404 C 0.80919 0.13909 0.1694 0.0
C3405 C 0.86518 0.16346 0.15044 0.0
C3406 C 0.84537 0.16169 0.15791 0.0
C3407 C 0.78724 0.15623 0.17885 0.0
C3408 C 0.80765 0.15815 0.17221 0.0
H3409 H 0.92158 0.19327 0.15222 0.0
H3410 H 0.88895 0.19208 0.1631 0.0
H3411 H 0.82865 0.12586 0.16043 0.0
H3412 H 0.73113 0.12631 0.17478 0.0
H3413 H 0.76464 0.12729 0.16594 0.0
C3414 C 0.84409 0.60505 0.18045 0.0
C3415 C 0.82839 0.5911 0.19099 0.0
C3416 C 0.84292 0.62292 0.17445 0.0
C3417 C 0.81881 0.65909 0.1794 0.0
H3418 H 0.82327 0.66358 0.13653 0.0
C3419 C 0.79989 0.71923 0.14779 0.0
C3420 C 0.81555 0.73241 0.13699 0.0
C3421 C 0.80003 0.70079 0.15374 0.0
C3422 C 0.82215 0.66266 0.14851 0.0
H3423 H 0.80007 0.58581 0.2042 0.0
H3424 H 0.79809 0.6171 0.1937 0.0
H3425 H 0.828 0.63525 0.1492 0.0
H3426 H 0.84274 0.73581 0.12331 0.0
H3427 H 0.84311 0.70372 0.13379 0.0
H3428 H 0.81315 0.68661 0.17874 0.0
C3429 C 0.81125 0.61416 0.19008 0.0
C3430 C 0.82493 0.64649 0.15577 0.0
C3431 C 0.81238 0.59622 0.19608 0.0
C3432 C 0.83047 0.72599 0.13162 0.0
C3433 C 0.83065 0.70757 0.13761 0.0
C3434 C 0.81609 0.67531 0.17214 0.0
C3435 C 0.82611 0.62725 0.17889 0.0
C3436 C 0.82338 0.64461 0.17129 0.0
C3437 C 0.81585 0.69516 0.14903 0.0
C3438 C 0.81778 0.67729 0.15662 0.0
H3439 H 0.85678 0.60169 0.17639 0.0
H3440 H 0.85489 0.63305 0.16607 0.0
H3441 H 0.81771 0.65814 0.19138 0.0
H3442 H 0.78801 0.72361 0.15204 0.0
H3443 H 0.78808 0.69124 0.16228 0.0
C3444 C 0.38544 0.23837 0.18454 0.0
C3445 C 0.39807 0.23801 0.19657 0.0
C3446 C 0.36777 0.21867 0.17907 0.0
C3447 C 0.32933 0.15986 0.18772 0.0
H3448 H 0.32793 0.15276 0.145 0.0
C3449 C 0.26864 0.07691 0.16004 0.0
C3450 C 0.25699 0.07823 0.14772 0.0
C3451 C 0.28704 0.09597 0.16559 0.0
C3452 C 0.32799 0.15456 0.15693 0.0
H3453 H 0.40128 0.21682 0.21286 0.0
H3454 H 0.37031 0.18235 0.2033 0.0
H3455 H 0.35641 0.18723 0.15626 0.0
H3456 H 0.25618 0.10034 0.13109 0.0
H3457 H 0.28816 0.13365 0.14087 0.0
H3458 H 0.30078 0.12731 0.18839 0.0
C3459 C 0.37414 0.19792 0.1981 0.0
C3460 C 0.34425 0.1743 0.16337 0.0
C3461 C 0.39188 0.21766 0.20356 0.0
C3462 C 0.26481 0.09878 0.1406 0.0
C3463 C 0.28318 0.11787 0.14618 0.0
C3464 C 0.31301 0.14014 0.18127 0.0
C3465 C 0.36231 0.1982 0.18556 0.0
C3466 C 0.34501 0.1772 0.17882 0.0
C3467 C 0.29415 0.11674 0.15896 0.0
C3468 C 0.31212 0.13731 0.1658 0.0
H3469 H 0.38964 0.25381 0.17898 0.0
H3470 H 0.35863 0.21942 0.16959 0.0
H3471 H 0.32942 0.16172 0.19964 0.0
H3472 H 0.26316 0.06126 0.16569 0.0
H3473 H 0.29545 0.0945 0.17525 0.0
C3474 C 0.17447 0.90685 0.34927 0.0
C3475 C 0.15912 0.90477 0.3602 0.0
C3476 C 0.17387 0.88803 0.34333 0.0
C3477 C 0.13506 0.82858 0.33737 0.0
H3478 H 0.18838 0.827 0.32699 0.0
C3479 C 0.13446 0.74921 0.31767 0.0
C3480 C 0.14973 0.75148 0.30663 0.0
C3481 C 0.13485 0.76792 0.32365 0.0
C3482 C 0.17334 0.82732 0.32964 0.0
H3483 H 0.13187 0.88135 0.37402 0.0
H3484 H 0.13106 0.84845 0.36377 0.0
H3485 H 0.19155 0.85942 0.33971 0.0
H3486 H 0.17657 0.77508 0.29262 0.0
H3487 H 0.17707 0.80777 0.30296 0.0
H3488 H 0.11686 0.79644 0.32732 0.0
C3489 C 0.14325 0.86466 0.3596 0.0
C3490 C 0.17516 0.84585 0.33698 0.0
C3491 C 0.14386 0.88351 0.36556 0.0
C3492 C 0.16466 0.77277 0.30117 0.0
C3493 C 0.16508 0.79151 0.30717 0.0
C3494 C 0.13324 0.81003 0.33005 0.0
C3495 C 0.15794 0.8667 0.3482 0.0
C3496 C 0.15605 0.84669 0.34091 0.0
C3497 C 0.15052 0.7893 0.31871 0.0
C3498 C 0.15237 0.80923 0.32609 0.0
H3499 H 0.18649 0.923 0.34491 0.0
H3500 H 0.18532 0.89017 0.3345 0.0
H3501 H 0.12003 0.8289 0.34001 0.0
H3502 H 0.12269 0.73302 0.3221 0.0
H3503 H 0.12349 0.76568 0.33257 0.0
C3504 C 0.21472 0.39964 0.29835 0.0
C3505 C 0.23569 0.40511 0.30398 0.0
C3506 C 0.19554 0.3812 0.3038 0.0
C3507 C 0.17509 0.34645 0.33716 0.0
H3508 H 0.12546 0.3073 0.31211 0.0
C3509 C 0.09962 0.26496 0.35808 0.0
C3510 C 0.07867 0.25912 0.35224 0.0
C3511 C 0.11872 0.28358 0.35271 0.0
C3512 C 0.13907 0.31828 0.31927 0.0
H3513 H 0.2531 0.39481 0.31913 0.0
H3514 H 0.21966 0.36253 0.32847 0.0
H3515 H 0.15913 0.33713 0.3009 0.0
H3516 H 0.06114 0.26898 0.33689 0.0
H3517 H 0.09441 0.3016 0.32772 0.0
H3518 H 0.15502 0.32762 0.35554 0.0
C3519 C 0.21802 0.37276 0.32009 0.0
C3520 C 0.15837 0.33531 0.31284 0.0
C3521 C 0.23718 0.39117 0.31464 0.0
C3522 C 0.07707 0.2729 0.34151 0.0
C3523 C 0.09614 0.29151 0.33617 0.0
C3524 C 0.15578 0.32944 0.34359 0.0
C3525 C 0.19698 0.36788 0.31497 0.0
C3526 C 0.17659 0.34955 0.32172 0.0
C3527 C 0.11721 0.29673 0.34145 0.0
C3528 C 0.13756 0.31517 0.33472 0.0
H3529 H 0.21301 0.41005 0.29014 0.0
H3530 H 0.17954 0.37791 0.29969 0.0
H3531 H 0.18872 0.35742 0.34431 0.0
H3532 H 0.10141 0.25467 0.36635 0.0
H3533 H 0.13473 0.28711 0.35695 0.0
C3534 C 0.72612 0.8342 0.36178 0.0
C3535 C 0.73226 0.81965 0.35537 0.0
C3536 C 0.70827 0.83574 0.35607 0.0
C3537 C 0.67726 0.8264 0.32132 0.0
H3538 H 0.63653 0.83509 0.34593 0.0
C3539 C 0.59867 0.82542 0.29907 0.0
C3540 C 0.59302 0.84031 0.30556 0.0
C3541 C 0.61664 0.82381 0.30448 0.0
C3542 C 0.64798 0.83297 0.33891 0.0
H3543 H 0.72363 0.79422 0.33859 0.0
H3544 H 0.69228 0.79665 0.32881 0.0
H3545 H 0.66446 0.82867 0.35755 0.0
H3546 H 0.60276 0.86636 0.32202 0.0
H3547 H 0.63422 0.86371 0.33128 0.0
H3548 H 0.66069 0.83064 0.30268 0.0
C3549 C 0.70159 0.80727 0.33801 0.0
C3550 C 0.66391 0.82922 0.34557 0.0
C3551 C 0.71945 0.80577 0.34369 0.0
C3552 C 0.60653 0.85453 0.31689 0.0
C3553 C 0.62445 0.85292 0.32228 0.0
C3554 C 0.66129 0.83012 0.31466 0.0
C3555 C 0.69618 0.82269 0.34388 0.0
C3556 C 0.67875 0.82593 0.33685 0.0
C3557 C 0.62928 0.83707 0.31644 0.0
C3558 C 0.64654 0.83352 0.32339 0.0
H3559 H 0.73567 0.84514 0.37079 0.0
H3560 H 0.70458 0.84786 0.3608 0.0
H3561 H 0.68873 0.82432 0.3143 0.0
H3562 H 0.5886 0.81424 0.29032 0.0
H3563 H 0.61995 0.81141 0.29977 0.0
C3564 C 0.21877 0.82985 0.79944 0.0
C3565 C 0.23957 0.84457 0.80568 0.0
C3566 C 0.1995 0.8287 0.80507 0.0
C3567 C 0.17827 0.85742 0.82871 0.0
H3568 H 0.13065 0.79755 0.83703 0.0
C3569 C 0.10253 0.8414 0.86369 0.0
C3570 C 0.08177 0.82585 0.8578 0.0
C3571 C 0.12202 0.84314 0.85798 0.0
C3572 C 0.14371 0.81436 0.83467 0.0
H3573 H 0.25668 0.8708 0.82191 0.0
H3574 H 0.22308 0.86876 0.83169 0.0
H3575 H 0.16395 0.80311 0.82428 0.0
H3576 H 0.06507 0.79899 0.84193 0.0
H3577 H 0.09897 0.80213 0.83193 0.0
H3578 H 0.158 0.86868 0.83906 0.0
C3579 C 0.22163 0.85808 0.8225 0.0
C3580 C 0.16274 0.81755 0.82731 0.0
C3581 C 0.24087 0.85918 0.81692 0.0
C3582 C 0.08081 0.81122 0.84668 0.0
C3583 C 0.10026 0.81296 0.84098 0.0
C3584 C 0.15921 0.85424 0.83604 0.0
C3585 C 0.2007 0.84233 0.81695 0.0
C3586 C 0.1802 0.8391 0.82423 0.0
C3587 C 0.1211 0.82932 0.84629 0.0
C3588 C 0.14172 0.83267 0.8391 0.0
H3589 H 0.2172 0.81846 0.79072 0.0
H3590 H 0.1836 0.8167 0.80039 0.0
H3591 H 0.1914 0.87422 0.82638 0.0
H3592 H 0.10383 0.85284 0.87231 0.0
H3593 H 0.13783 0.85563 0.86249 0.0
C3594 C 0.18796 0.27883 0.85427 0.0
C3595 C 0.1726 0.26538 0.86514 0.0
C3596 C 0.18706 0.29686 0.84829 0.0
C3597 C 0.14607 0.31376 0.84103 0.0
H3598 H 0.19712 0.36983 0.82945 0.0
C3599 C 0.13883 0.38678 0.81717 0.0
C3600 C 0.15408 0.40005 0.8062 0.0
C3601 C 0.14074 0.36982 0.82402 0.0
C3602 C 0.18272 0.35411 0.83243 0.0
H3603 H 0.14542 0.26136 0.87911 0.0
H3604 H 0.14399 0.29302 0.86871 0.0
H3605 H 0.20258 0.3431 0.84371 0.0
H3606 H 0.18243 0.40504 0.79315 0.0
H3607 H 0.18549 0.3751 0.80495 0.0
H3608 H 0.12621 0.3246 0.82965 0.0
C3609 C 0.15644 0.28931 0.86465 0.0
C3610 C 0.18585 0.3389 0.84068 0.0
C3611 C 0.1574 0.27131 0.87068 0.0
C3612 C 0.17049 0.39518 0.80162 0.0
C3613 C 0.17239 0.37818 0.80847 0.0
C3614 C 0.14294 0.32893 0.83276 0.0
C3615 C 0.17076 0.30178 0.85304 0.0
C3616 C 0.16755 0.31857 0.84506 0.0
C3617 C 0.15788 0.36572 0.82001 0.0
C3618 C 0.16123 0.34926 0.82836 0.0
H3619 H 0.19999 0.27478 0.84984 0.0
H3620 H 0.1983 0.30614 0.83934 0.0
H3621 H 0.13167 0.29801 0.84398 0.0
H3622 H 0.12595 0.39005 0.82093 0.0
H3623 H 0.12937 0.3606 0.83291 0.0
C3624 C 0.72372 0.8874 0.85841 0.0
C3625 C 0.73187 0.90778 0.85099 0.0
C3626 C 0.70495 0.86839 0.85313 0.0
C3627 C 0.67318 0.84524 0.81869 0.0
H3628 H 0.62956 0.80076 0.84505 0.0
C3629 C 0.59117 0.76915 0.79858 0.0
C3630 C 0.58439 0.7489 0.80589 0.0
C3631 C 0.60964 0.78869 0.8036 0.0
C3632 C 0.64175 0.81294 0.83756 0.0
H3633 H 0.72606 0.92448 0.83268 0.0
H3634 H 0.69309 0.89139 0.82364 0.0
H3635 H 0.6598 0.83501 0.85534 0.0
H3636 H 0.59238 0.73306 0.8237 0.0
H3637 H 0.62464 0.76709 0.83233 0.0
H3638 H 0.65502 0.82313 0.80091 0.0
C3639 C 0.70151 0.88999 0.83332 0.0
C3640 C 0.65904 0.83256 0.84345 0.0
C3641 C 0.72031 0.90897 0.83857 0.0
C3642 C 0.59704 0.74842 0.81789 0.0
C3643 C 0.61543 0.76793 0.82291 0.0
C3644 C 0.65583 0.82564 0.8128 0.0
C3645 C 0.69389 0.86939 0.84037 0.0
C3646 C 0.67502 0.84889 0.8341 0.0
C3647 C 0.62164 0.78833 0.81602 0.0
C3648 C 0.64003 0.80923 0.82218 0.0
H3649 H 0.73228 0.88593 0.86799 0.0
H3650 H 0.6996 0.85274 0.85874 0.0
H3651 H 0.68543 0.85734 0.8112 0.0
H3652 H 0.58178 0.77007 0.78931 0.0
H3653 H 0.61402 0.80421 0.7981 0.0
C3654 C 0.83668 0.10285 0.6329 0.0
C3655 C 0.8232 0.08165 0.63904 0.0
C3656 C 0.83593 0.12121 0.63849 0.0
C3657 C 0.82126 0.14009 0.67255 0.0
H3658 H 0.82646 0.18777 0.64749 0.0
C3659 C 0.81079 0.21273 0.69413 0.0
C3660 C 0.82523 0.23395 0.68834 0.0
C3661 C 0.81089 0.19406 0.68848 0.0
C3662 C 0.82525 0.17469 0.65464 0.0
H3663 H 0.79746 0.06285 0.65526 0.0
H3664 H 0.79591 0.09482 0.66481 0.0
H3665 H 0.82459 0.15498 0.63621 0.0
H3666 H 0.85184 0.25237 0.67257 0.0
H3667 H 0.85211 0.21983 0.66283 0.0
H3668 H 0.82186 0.1598 0.69098 0.0
C3669 C 0.80744 0.09735 0.65594 0.0
C3670 C 0.82414 0.15591 0.64817 0.0
C3671 C 0.80823 0.07902 0.65039 0.0
C3672 C 0.84038 0.23623 0.67721 0.0
C3673 C 0.84044 0.21758 0.67154 0.0
C3674 C 0.82231 0.15885 0.67901 0.0
C3675 C 0.82163 0.11871 0.65028 0.0
C3676 C 0.82217 0.13842 0.65706 0.0
C3677 C 0.82541 0.19627 0.67692 0.0
C3678 C 0.8244 0.17637 0.67012 0.0
H3679 H 0.84841 0.10543 0.62416 0.0
H3680 H 0.84718 0.13748 0.63395 0.0
H3681 H 0.82015 0.12708 0.67972 0.0
H3682 H 0.79892 0.21041 0.70271 0.0
H3683 H 0.79905 0.17782 0.69279 0.0
C3684 C 0.88608 0.7213 0.6339 0.0
C3685 C 0.90713 0.72701 0.63949 0.0
C3686 C 0.86693 0.70386 0.64021 0.0
C3687 C 0.8477 0.67386 0.67555 0.0
H3688 H 0.79537 0.63382 0.65292 0.0
C3689 C 0.77097 0.59703 0.70043 0.0
C3690 C 0.75001 0.59183 0.69494 0.0
C3691 C 0.79027 0.61461 0.69437 0.0
C3692 C 0.80977 0.64509 0.6594 0.0
H3693 H 0.92473 0.71791 0.65531 0.0
H3694 H 0.89134 0.68724 0.6661 0.0
H3695 H 0.82898 0.66066 0.63998 0.0
H3696 H 0.73276 0.60207 0.67961 0.0
H3697 H 0.76641 0.63286 0.66918 0.0
H3698 H 0.82848 0.65819 0.69496 0.0
C3699 C 0.8896 0.69661 0.65713 0.0
C3700 C 0.82903 0.6604 0.65198 0.0
C3701 C 0.90872 0.71407 0.65086 0.0
C3702 C 0.74867 0.60548 0.68397 0.0
C3703 C 0.76794 0.62302 0.67792 0.0
C3704 C 0.82845 0.65851 0.68296 0.0
C3705 C 0.86849 0.69175 0.65217 0.0
C3706 C 0.84821 0.67496 0.65997 0.0
C3707 C 0.78893 0.62731 0.68272 0.0
C3708 C 0.80927 0.64402 0.67496 0.0
H3709 H 0.88429 0.73096 0.62516 0.0
H3710 H 0.8509 0.70058 0.63618 0.0
H3711 H 0.86208 0.68515 0.68203 0.0
H3712 H 0.77256 0.58685 0.70889 0.0
H3713 H 0.80623 0.61752 0.69828 0.0
C3714 C 0.38932 0.16583 0.70031 0.0
C3715 C 0.39542 0.15188 0.69295 0.0
C3716 C 0.37107 0.16739 0.69546 0.0
C3717 C 0.32069 0.14018 0.67205 0.0
H3718 H 0.33083 0.2001 0.66777 0.0
C3719 C 0.26038 0.15802 0.63945 0.0
C3720 C 0.25423 0.17228 0.64633 0.0
C3721 C 0.27816 0.15616 0.64492 0.0
C3722 C 0.32768 0.18327 0.66902 0.0
H3723 H 0.38641 0.12761 0.6753 0.0
H3724 H 0.35469 0.13042 0.66684 0.0
H3725 H 0.35943 0.19428 0.67895 0.0
H3726 H 0.26262 0.19663 0.66384 0.0
H3727 H 0.29356 0.1933 0.67338 0.0
H3728 H 0.28898 0.12918 0.66207 0.0
C3729 C 0.36394 0.14013 0.67636 0.0
C3730 C 0.344 0.17991 0.67548 0.0
C3731 C 0.38219 0.13859 0.68118 0.0
C3732 C 0.26691 0.18546 0.65831 0.0
C3733 C 0.28469 0.1836 0.66376 0.0
C3734 C 0.30437 0.14354 0.66559 0.0
C3735 C 0.35853 0.15496 0.68321 0.0
C3736 C 0.34071 0.15834 0.67703 0.0
C3737 C 0.29018 0.16856 0.65733 0.0
C3738 C 0.30772 0.16512 0.66396 0.0
H3739 H 0.3991 0.1762 0.70946 0.0
H3740 H 0.36704 0.17866 0.70113 0.0
H3741 H 0.31758 0.12335 0.67325 0.0
H3742 H 0.25103 0.14773 0.63016 0.0
H3743 H 0.28229 0.14474 0.63956 0.0
C3744 C 0.42849 0.49774 0.53256 0.0
C3745 C 0.40857 0.48395 0.525 0.0
C3746 C 0.44835 0.49922 0.52789 0.0
C3747 C 0.47185 0.47215 0.50469 0.0
H3748 H 0.52129 0.53218 0.49999 0.0
C3749 C 0.54968 0.49028 0.47149 0.0
C3750 C 0.57021 0.50502 0.47804 0.0
C3751 C 0.53003 0.48816 0.47719 0.0
C3752 C 0.50772 0.51531 0.50137 0.0
H3753 H 0.39357 0.45985 0.50724 0.0
H3754 H 0.42817 0.46249 0.49911 0.0
H3755 H 0.4869 0.52622 0.51132 0.0
H3756 H 0.58636 0.52988 0.49524 0.0
H3757 H 0.55211 0.52607 0.50521 0.0
H3758 H 0.49263 0.46124 0.49469 0.0
C3759 C 0.42848 0.47215 0.50863 0.0
C3760 C 0.48806 0.51189 0.50791 0.0
C3761 C 0.40867 0.47072 0.51325 0.0
C3762 C 0.5708 0.51834 0.48995 0.0
C3763 C 0.55116 0.51621 0.49564 0.0
C3764 C 0.49152 0.47557 0.49816 0.0
C3765 C 0.44861 0.48685 0.51565 0.0
C3766 C 0.46989 0.49028 0.50957 0.0
C3767 C 0.53054 0.50075 0.48953 0.0
C3768 C 0.50962 0.4972 0.49635 0.0
H3769 H 0.42894 0.50806 0.54169 0.0
H3770 H 0.46358 0.51042 0.53366 0.0
H3771 H 0.45819 0.45529 0.50597 0.0
H3772 H 0.54867 0.47985 0.46226 0.0
H3773 H 0.51441 0.47641 0.47206 0.0
C3774 C 0.50539 0.06038 0.46842 0.0
C3775 C 0.48986 0.06559 0.47436 0.0
C3776 C 0.50808 0.04349 0.47466 0.0
C3777 C 0.49999 0.01415 0.51001 0.0
H3778 H 0.5097 0.97306 0.48655 0.0
C3779 C 0.49846 0.93644 0.5342 0.0
C3780 C 0.51282 0.9299 0.52797 0.0
C3781 C 0.49746 0.95454 0.52838 0.0
C3782 C 0.50737 0.98465 0.49326 0.0
H3783 H 0.46403 0.05625 0.49092 0.0
H3784 H 0.46854 0.02661 0.50166 0.0
H3785 H 0.50284 0.0002 0.47416 0.0
H3786 H 0.53868 0.93827 0.51157 0.0
H3787 H 0.53716 0.97005 0.50162 0.0
H3788 H 0.50443 -0.00146 0.52912 0.0
C3789 C 0.47898 0.03592 0.4924 0.0
C3790 C 0.50335 0.00013 0.48615 0.0
C3791 C 0.47627 0.05279 0.48616 0.0
C3792 C 0.52723 0.94273 0.5165 0.0
C3793 C 0.52626 0.96084 0.51072 0.0
C3794 C 0.50403 -0.00131 0.51712 0.0
C3795 C 0.49528 0.03147 0.48695 0.0
C3796 C 0.49949 0.01496 0.49445 0.0
C3797 C 0.51086 0.96649 0.51628 0.0
C3798 C 0.50769 0.98372 0.50882 0.0
H3799 H 0.51613 0.06994 0.45934 0.0
H3800 H 0.52083 0.04048 0.47025 0.0
H3801 H 0.4975 0.02566 0.5167 0.0
H3802 H 0.48715 0.92691 0.54304 0.0
H3803 H 0.48536 0.95843 0.53288 0.0
C3804 C 0.9385 0.41489 0.48576 0.0
C3805 C 0.92567 0.41661 0.47436 0.0
C3806 C 0.95718 0.43382 0.49118 0.0
C3807 C 0.97923 0.49363 0.49496 0.0
H3808 H 0.03404 0.49525 0.50562 0.0
C3809 C 0.05863 0.57415 0.51168 0.0
C3810 C 0.07228 0.57292 0.52267 0.0
C3811 C 0.0401 0.55491 0.50647 0.0
C3812 C 0.01871 0.49493 0.50291 0.0
H3813 H 0.92305 0.43937 0.45915 0.0
H3814 H 0.9558 0.47244 0.46858 0.0
H3815 H 0.00408 0.46198 0.49405 0.0
H3816 H 0.07654 0.55065 0.53739 0.0
H3817 H 0.0439 0.51702 0.52844 0.0
H3818 H -0.00625 0.5265 0.50386 0.0
C3819 C 0.95117 0.45646 0.47346 0.0
C3820 C 0.00162 0.47593 0.49622 0.0
C3821 C 0.93253 0.4375 0.46799 0.0
C3822 C 0.06642 0.55214 0.52885 0.0
C3823 C 0.04784 0.53286 0.52364 0.0
C3824 C -0.00373 0.51259 0.50169 0.0
C3825 C 0.96337 0.45486 0.48533 0.0
C3826 C 0.98175 0.47514 0.49212 0.0
C3827 C 0.03476 0.53401 0.51218 0.0
C3828 C 0.01623 0.51349 0.50569 0.0
H3829 H 0.9337 0.399 0.49086 0.0
H3830 H 0.9662 0.43208 0.50037 0.0
H3831 H 0.96392 0.49332 0.49219 0.0
H3832 H 0.06265 0.58991 0.5067 0.0
H3833 H 0.03047 0.55636 0.49756 0.0
C3834 C 0.46669 0.41037 0.98676 0.0
C3835 C 0.48164 0.41176 0.97576 0.0
C3836 C 0.46695 0.4295 0.99178 0.0
C3837 C 0.48716 0.48858 0.98321 0.0
H3838 H 0.48642 0.49429 0.02596 0.0
C3839 C 0.50946 0.57161 0.011 0.0
C3840 C 0.49542 0.57079 0.0225 0.0
C3841 C 0.50791 0.55211 0.00552 0.0
C3842 C 0.48643 0.49286 0.014 0.0
H3843 H 0.50774 0.43412 0.9608 0.0
H3844 H 0.50826 0.46752 0.96962 0.0
H3845 H 0.48187 0.46011 0.01516 0.0
H3846 H 0.46935 0.54891 0.03765 0.0
H3847 H 0.46659 0.51486 0.02803 0.0
H3848 H 0.4918 0.52138 0.98207 0.0
C3849 C 0.49629 0.45164 0.97433 0.0
C3850 C 0.48375 0.47326 0.00781 0.0
C3851 C 0.49602 0.43249 0.9693 0.0
C3852 C 0.48043 0.55012 0.02881 0.0
C3853 C 0.47887 0.5306 0.02331 0.0
C3854 C 0.48982 0.50819 0.98941 0.0
C3855 C 0.48215 0.4504 0.98589 0.0
C3856 C 0.48414 0.47093 0.99235 0.0
C3857 C 0.4923 0.53136 0.01141 0.0
C3858 C 0.48957 0.51056 0.00487 0.0
H3859 H 0.45524 0.39461 0.99187 0.0
H3860 H 0.45555 0.42797 0.00049 0.0
H3861 H 0.48728 0.48718 0.97126 0.0
H3862 H 0.5213 0.58729 0.00597 0.0
H3863 H 0.51879 0.55326 0.99655 0.0
C3864 C 0.57454 0.05795 0.97977 0.0
C3865 C 0.57314 0.07234 0.96944 0.0
C3866 C 0.55534 0.04067 0.98609 0.0
C3867 C 0.49456 0.00682 0.98211 0.0
H3868 H 0.49603 0.00078 0.02478 0.0
C3869 C 0.41584 0.94793 0.01461 0.0
C3870 C 0.41808 0.93391 0.02481 0.0
C3871 C 0.4346 0.96617 0.0086 0.0
C3872 C 0.49541 0.00216 0.01286 0.0
H3873 H 0.55046 0.07912 0.95703 0.0
H3874 H 0.51691 0.04889 0.96809 0.0
H3875 H 0.52915 0.02859 0.01185 0.0
H3876 H 0.44171 0.92878 0.0374 0.0
H3877 H 0.47445 0.96049 0.02684 0.0
H3878 H 0.46089 0.98027 0.98309 0.0
C3879 C 0.53287 0.051 0.97128 0.0
C3880 C 0.51438 0.01802 0.00545 0.0
C3881 C 0.5521 0.06833 0.96496 0.0
C3882 C 0.43943 0.93925 0.02956 0.0
C3883 C 0.4582 0.95747 0.02352 0.0
C3884 C 0.47559 0.99092 0.98952 0.0
C3885 C 0.53435 0.03738 0.9822 0.0
C3886 C 0.51418 0.02044 0.98999 0.0
C3887 C 0.45598 0.97074 0.01267 0.0
C3888 C 0.47584 0.98837 0.00497 0.0
H3889 H 0.5905 0.06047 0.98337 0.0
H3890 H 0.55695 0.03013 0.99424 0.0
H3891 H 0.49398 0.00816 0.97018 0.0
H3892 H 0.3996 0.94439 0.01084 0.0
H3893 H 0.43236 0.97638 0.00051 0.0
C3894 C 0.05985 0.49949 0.03213 0.0
C3895 C 0.0661 0.48585 0.0245 0.0
C3896 C 0.04165 0.50117 0.02735 0.0
C3897 C 0.99198 0.47521 0.00322 0.0
H3898 H 0.00331 0.5356 -0.00073 0.0
C3899 C 0.93448 0.49519 0.96917 0.0
C3900 C 0.92806 0.50927 0.97599 0.0
C3901 C 0.95183 0.49296 0.97503 0.0
C3902 C -0.00017 0.51864 0.00042 0.0
H3903 H 0.0573 0.46211 0.00654 0.0
H3904 H 0.0257 0.46515 0.99818 0.0
H3905 H 0.03098 0.52889 0.01103 0.0
H3906 H 0.93562 0.53304 0.99379 0.0
H3907 H 0.96583 0.52908 0.00401 0.0
H3908 H 0.96089 0.46498 0.99252 0.0
C3909 C 0.03479 0.47453 0.00785 0.0
C3910 C 0.01561 0.51478 0.00722 0.0
C3911 C 0.05299 0.47287 0.0126 0.0
C3912 C 0.94012 0.52199 0.9883 0.0
C3913 C 0.95748 0.51978 0.99414 0.0
C3914 C 0.97621 0.47907 0.99642 0.0
C3915 C 0.02934 0.48917 0.01491 0.0
C3916 C 0.01189 0.49303 0.00862 0.0
C3917 C 0.96313 0.50481 0.98779 0.0
C3918 C 0.98004 0.50083 0.99487 0.0
H3919 H 0.06956 0.5096 0.04139 0.0
H3920 H 0.03756 0.5123 0.03316 0.0
H3921 H 0.98856 0.45826 0.00429 0.0
H3922 H 0.92558 0.48524 0.95963 0.0
H3923 H 0.95613 0.48162 0.96974 0.0
loop_
_geom_bond_atom_site_label_1
_geom_bond_atom_site_label_2
_geom_bond_distance
_geom_bond_site_symmetry_2
_ccdc_geom_bond_type
Co0 O3 1.970 . S
Co0 N17 2.010 . S
Co0 O25 1.967 . S
Co0 O32 1.920 . S
Co1 O4 1.966 1_455 S
Co1 N10 2.022 . S
Co1 N18 1.993 . S
Co1 O26 1.941 . S
C2 O3 1.258 . S
C2 O4 1.263 . S
O3 Co0 1.970 . S
O3 C2 1.258 . S
O4 Co1 1.966 1_655 S
O4 C2 1.263 . S
C5 O6 1.235 . S
C5 O32 1.289 . S
O6 C5 1.235 . S
C7 C9 1.400 . S
C7 N10 1.351 . S
C7 C12 1.501 . S
C8 C9 1.387 . S
C8 N11 1.341 . S
C9 C7 1.400 . S
C9 C8 1.387 . S
N10 Co1 2.022 . S
N10 C7 1.351 . S
N10 N11 1.365 . S
N11 C8 1.341 . S
N11 N10 1.365 . S
N11 H31 0.862 . S
C12 C7 1.501 . S
C12 H13 0.961 . S
C12 H14 0.961 . S
C12 H15 0.960 . S
H13 C12 0.961 . S
H14 C12 0.961 . S
H15 C12 0.960 . S
C16 N17 1.352 1_455 S
C16 C20 1.401 . S
C16 C21 1.499 1_455 S
N17 Co0 2.010 . S
N17 C16 1.352 1_655 S
N17 N18 1.348 1_655 S
N18 Co1 1.993 . S
N18 N17 1.348 1_455 S
N18 C19 1.346 . S
C19 N18 1.346 . S
C19 C20 1.396 . S
C19 C29 1.510 . S
C20 C16 1.401 . S
C20 C19 1.396 . S
C21 C16 1.499 1_655 S
C21 H22 0.959 . S
C21 H23 0.960 . S
C21 H24 0.961 . S
H22 C21 0.959 . S
H23 C21 0.960 . S
H24 C21 0.961 . S
O25 Co0 1.967 . S
O25 C33 1.213 1_655 S
O26 Co1 1.941 . S
O26 C33 1.313 . S
H27 C29 0.959 . S
H28 C29 0.961 . S
C29 C19 1.510 . S
C29 H27 0.959 . S
C29 H28 0.961 . S
C29 H30 0.960 . S
H30 C29 0.960 . S
H31 N11 0.862 . S
O32 Co0 1.920 . S
O32 C5 1.289 . S
C33 O25 1.213 1_455 S
C33 O26 1.313 . S
Co34 O37 1.970 . S
Co34 N51 1.989 . S
Co34 O59 1.967 . S
Co34 O66 1.920 . S
Co35 O38 1.966 . S
Co35 N44 2.022 . S
Co35 N52 1.993 . S
Co35 O60 1.941 . S
C36 O37 1.258 . S
C36 O38 1.263 . S
O37 Co34 1.970 . S
O37 C36 1.258 . S
O38 Co35 1.966 . S
O38 C36 1.263 . S
C39 O40 1.235 . S
C39 O66 1.289 . S
O40 C39 1.235 . S
C41 C43 1.400 . S
C41 N44 1.351 . S
C41 C46 1.501 . S
C42 C43 1.387 . S
C42 N45 1.341 . S
C43 C41 1.400 . S
C43 C42 1.387 . S
N44 Co35 2.022 . S
N44 C41 1.351 . S
N44 N45 1.365 . S
N45 C42 1.341 . S
N45 N44 1.365 . S
N45 H65 0.862 . S
C46 C41 1.501 . S
C46 H47 0.961 . S
C46 H48 0.961 . S
C46 H49 0.960 . S
H47 C46 0.961 . S
H48 C46 0.961 . S
H49 C46 0.960 . S
C50 N51 1.342 . S
C50 C54 1.401 . S
C50 C55 1.499 . S
N51 Co34 1.989 . S
N51 C50 1.342 . S
N51 N52 1.388 . S
N52 Co35 1.993 . S
N52 N51 1.388 . S
N52 C53 1.346 . S
C53 N52 1.346 . S
C53 C54 1.396 . S
C53 C63 1.510 . S
C54 C50 1.401 . S
C54 C53 1.396 . S
C55 C50 1.499 . S
C55 H56 0.959 . S
C55 H57 0.960 . S
C55 H58 0.961 . S
H56 C55 0.959 . S
H57 C55 0.960 . S
H58 C55 0.961 . S
O59 Co34 1.967 . S
O59 C67 1.258 . S
O60 Co35 1.941 . S
O60 C67 1.266 . S
H61 C63 0.959 . S
H62 C63 0.961 . S
C63 C53 1.510 . S
C63 H61 0.959 . S
C63 H62 0.961 . S
C63 H64 0.960 . S
H64 C63 0.960 . S
H65 N45 0.862 . S
O66 Co34 1.920 . S
O66 C39 1.289 . S
C67 O59 1.258 . S
C67 O60 1.266 . S
Co68 O71 1.970 . S
Co68 N85 2.022 . S
Co68 O93 1.967 . S
Co68 O100 1.920 . S
Co69 O72 1.966 1_565 S
Co69 N78 2.022 . S
Co69 N86 1.993 . S
Co69 O94 1.941 . S
C70 O71 1.258 . S
C70 O72 1.263 . S
O71 Co68 1.970 . S
O71 C70 1.258 . S
O72 Co69 1.966 1_545 S
O72 C70 1.263 . S
C73 O74 1.235 . S
C73 O100 1.289 . S
O74 C73 1.235 . S
C75 C77 1.400 . S
C75 N78 1.351 . S
C75 C80 1.501 . S
C76 C77 1.387 . S
C76 N79 1.341 . S
C77 C75 1.400 . S
C77 C76 1.387 . S
N78 Co69 2.022 . S
N78 C75 1.351 . S
N78 N79 1.365 . S
N79 C76 1.341 . S
N79 N78 1.365 . S
N79 H99 0.862 . S
C80 C75 1.501 . S
C80 H81 0.961 . S
C80 H82 0.961 . S
C80 H83 0.960 . S
H81 C80 0.961 . S
H82 C80 0.961 . S
H83 C80 0.960 . S
C84 N85 1.318 1_565 S
C84 C88 1.401 . S
C84 C89 1.499 1_565 S
N85 Co68 2.022 . S
N85 C84 1.318 1_545 S
N85 N86 1.374 1_545 S
N86 Co69 1.993 . S
N86 N85 1.374 1_565 S
N86 C87 1.346 . S
C87 N86 1.346 . S
C87 C88 1.396 . S
C87 C97 1.510 . S
C88 C84 1.401 . S
C88 C87 1.396 . S
C89 C84 1.499 1_545 S
C89 H90 0.959 . S
C89 H91 0.960 . S
C89 H92 0.961 . S
H90 C89 0.959 . S
H91 C89 0.960 . S
H92 C89 0.961 . S
O93 Co68 1.967 . S
O93 C101 1.233 1_545 S
O94 Co69 1.941 . S
O94 C101 1.289 . S
H95 C97 0.959 . S
H96 C97 0.961 . S
C97 C87 1.510 . S
C97 H95 0.959 . S
C97 H96 0.961 . S
C97 H98 0.960 . S
H98 C97 0.960 . S
H99 N79 0.862 . S
O100 Co68 1.920 . S
O100 C73 1.289 . S
C101 O93 1.233 1_565 S
C101 O94 1.289 . S
Co102 O105 1.970 . S
Co102 N119 2.010 . S
Co102 O127 1.967 . S
Co102 O134 1.920 . S
Co103 O106 1.966 1_545 S
Co103 N112 2.022 . S
Co103 N120 1.993 . S
Co103 O128 1.941 . S
C104 O105 1.258 . S
C104 O106 1.263 . S
O105 Co102 1.970 . S
O105 C104 1.258 . S
O106 Co103 1.966 1_565 S
O106 C104 1.263 . S
C107 O108 1.235 . S
C107 O134 1.289 . S
O108 C107 1.235 . S
C109 C111 1.400 . S
C109 N112 1.351 . S
C109 C114 1.501 . S
C110 C111 1.387 . S
C110 N113 1.341 . S
C111 C109 1.400 . S
C111 C110 1.387 . S
N112 Co103 2.022 . S
N112 C109 1.351 . S
N112 N113 1.365 . S
N113 C110 1.341 . S
N113 N112 1.365 . S
N113 H133 0.862 . S
C114 C109 1.501 . S
C114 H115 0.961 . S
C114 H116 0.961 . S
C114 H117 0.960 . S
H115 C114 0.961 . S
H116 C114 0.961 . S
H117 C114 0.960 . S
C118 N119 1.352 1_545 S
C118 C122 1.401 . S
C118 C123 1.499 1_545 S
N119 Co102 2.010 . S
N119 C118 1.352 1_565 S
N119 N120 1.348 1_565 S
N120 Co103 1.993 . S
N120 N119 1.348 1_545 S
N120 C121 1.346 . S
C121 N120 1.346 . S
C121 C122 1.396 . S
C121 C131 1.510 . S
C122 C118 1.401 . S
C122 C121 1.396 . S
C123 C118 1.499 1_565 S
C123 H124 0.959 . S
C123 H125 0.960 . S
C123 H126 0.961 . S
H124 C123 0.959 . S
H125 C123 0.960 . S
H126 C123 0.961 . S
O127 Co102 1.967 . S
O127 C135 1.212 1_565 S
O128 Co103 1.941 . S
O128 C135 1.313 . S
H129 C131 0.959 . S
H130 C131 0.961 . S
C131 C121 1.510 . S
C131 H129 0.959 . S
C131 H130 0.961 . S
C131 H132 0.960 . S
H132 C131 0.960 . S
H133 N113 0.862 . S
O134 Co102 1.920 . S
O134 C107 1.289 . S
C135 O127 1.212 1_545 S
C135 O128 1.313 . S
Co136 O139 1.970 . S
Co136 N153 2.022 . S
Co136 O161 1.967 . S
Co136 O168 1.920 . S
Co137 O140 1.966 1_655 S
Co137 N146 2.022 . S
Co137 N154 1.993 . S
Co137 O162 1.941 . S
C138 O139 1.258 . S
C138 O140 1.263 . S
O139 Co136 1.970 . S
O139 C138 1.258 . S
O140 Co137 1.966 1_455 S
O140 C138 1.263 . S
C141 O142 1.235 . S
C141 O168 1.289 . S
O142 C141 1.235 . S
C143 C145 1.400 . S
C143 N146 1.351 . S
C143 C148 1.501 . S
C144 C145 1.387 . S
C144 N147 1.341 . S
C145 C143 1.400 . S
C145 C144 1.387 . S
N146 Co137 2.022 . S
N146 C143 1.351 . S
N146 N147 1.365 . S
N147 C144 1.341 . S
N147 N146 1.365 . S
N147 H167 0.862 . S
C148 C143 1.501 . S
C148 H149 0.961 . S
C148 H150 0.961 . S
C148 H151 0.960 . S
H149 C148 0.961 . S
H150 C148 0.961 . S
H151 C148 0.960 . S
C152 N153 1.318 1_655 S
C152 C156 1.401 . S
C152 C157 1.499 1_655 S
N153 Co136 2.022 . S
N153 C152 1.318 1_455 S
N153 N154 1.374 1_455 S
N154 Co137 1.993 . S
N154 N153 1.374 1_655 S
N154 C155 1.346 . S
C155 N154 1.346 . S
C155 C156 1.396 . S
C155 C165 1.510 . S
C156 C152 1.401 . S
C156 C155 1.396 . S
C157 C152 1.499 1_455 S
C157 H158 0.959 . S
C157 H159 0.960 . S
C157 H160 0.961 . S
H158 C157 0.959 . S
H159 C157 0.960 . S
H160 C157 0.961 . S
O161 Co136 1.967 . S
O161 C169 1.233 1_455 S
O162 Co137 1.941 . S
O162 C169 1.289 . S
H163 C165 0.959 . S
H164 C165 0.961 . S
C165 C155 1.510 . S
C165 H163 0.959 . S
C165 H164 0.961 . S
C165 H166 0.960 . S
H166 C165 0.960 . S
H167 N147 0.862 . S
O168 Co136 1.920 . S
O168 C141 1.289 . S
C169 O161 1.233 1_655 S
C169 O162 1.289 . S
Co170 O173 1.970 . S
Co170 N187 1.989 . S
Co170 O195 1.967 . S
Co170 O202 1.920 . S
Co171 O174 1.966 . S
Co171 N180 2.022 . S
Co171 N188 1.993 . S
Co171 O196 1.941 . S
C172 O173 1.258 . S
C172 O174 1.263 . S
O173 Co170 1.970 . S
O173 C172 1.258 . S
O174 Co171 1.966 . S
O174 C172 1.263 . S
C175 O176 1.235 . S
C175 O202 1.289 . S
O176 C175 1.235 . S
C177 C179 1.400 . S
C177 N180 1.351 . S
C177 C182 1.501 . S
C178 C179 1.387 . S
C178 N181 1.341 . S
C179 C177 1.400 . S
C179 C178 1.387 . S
N180 Co171 2.022 . S
N180 C177 1.351 . S
N180 N181 1.365 . S
N181 C178 1.341 . S
N181 N180 1.365 . S
N181 H201 0.862 . S
C182 C177 1.501 . S
C182 H183 0.961 . S
C182 H184 0.961 . S
C182 H185 0.960 . S
H183 C182 0.961 . S
H184 C182 0.961 . S
H185 C182 0.960 . S
C186 N187 1.342 . S
C186 C190 1.401 . S
C186 C191 1.499 . S
N187 Co170 1.989 . S
N187 C186 1.342 . S
N187 N188 1.388 . S
N188 Co171 1.993 . S
N188 N187 1.388 . S
N188 C189 1.346 . S
C189 N188 1.346 . S
C189 C190 1.396 . S
C189 C199 1.510 . S
C190 C186 1.401 . S
C190 C189 1.396 . S
C191 C186 1.499 . S
C191 H192 0.959 . S
C191 H193 0.960 . S
C191 H194 0.961 . S
H192 C191 0.959 . S
H193 C191 0.960 . S
H194 C191 0.961 . S
O195 Co170 1.967 . S
O195 C203 1.258 . S
O196 Co171 1.941 . S
O196 C203 1.266 . S
H197 C199 0.959 . S
H198 C199 0.961 . S
C199 C189 1.510 . S
C199 H197 0.959 . S
C199 H198 0.961 . S
C199 H200 0.960 . S
H200 C199 0.960 . S
H201 N181 0.862 . S
O202 Co170 1.920 . S
O202 C175 1.289 . S
C203 O195 1.258 . S
C203 O196 1.266 . S
Co204 O207 1.970 . S
Co204 N221 2.010 . S
Co204 O229 1.967 . S
Co204 O236 1.920 . S
Co205 O208 1.966 1_655 S
Co205 N214 2.022 . S
Co205 N222 1.993 . S
Co205 O230 1.941 . S
C206 O207 1.258 . S
C206 O208 1.263 . S
O207 Co204 1.970 . S
O207 C206 1.258 . S
O208 Co205 1.966 1_455 S
O208 C206 1.263 . S
C209 O210 1.235 . S
C209 O236 1.289 . S
O210 C209 1.235 . S
C211 C213 1.400 . S
C211 N214 1.351 . S
C211 C216 1.501 . S
C212 C213 1.387 . S
C212 N215 1.341 . S
C213 C211 1.400 . S
C213 C212 1.387 . S
N214 Co205 2.022 . S
N214 C211 1.351 . S
N214 N215 1.365 . S
N215 C212 1.341 . S
N215 N214 1.365 . S
N215 H235 0.862 . S
C216 C211 1.501 . S
C216 H217 0.961 . S
C216 H218 0.961 . S
C216 H219 0.960 . S
H217 C216 0.961 . S
H218 C216 0.961 . S
H219 C216 0.960 . S
C220 N221 1.352 1_655 S
C220 C224 1.401 . S
C220 C225 1.499 1_655 S
N221 Co204 2.010 . S
N221 C220 1.352 1_455 S
N221 N222 1.348 1_455 S
N222 Co205 1.993 . S
N222 N221 1.348 1_655 S
N222 C223 1.346 . S
C223 N222 1.346 . S
C223 C224 1.396 . S
C223 C233 1.510 . S
C224 C220 1.401 . S
C224 C223 1.396 . S
C225 C220 1.499 1_455 S
C225 H226 0.959 . S
C225 H227 0.960 . S
C225 H228 0.961 . S
H226 C225 0.959 . S
H227 C225 0.960 . S
H228 C225 0.961 . S
O229 Co204 1.967 . S
O229 C237 1.213 1_455 S
O230 Co205 1.941 . S
O230 C237 1.313 . S
H231 C233 0.959 . S
H232 C233 0.961 . S
C233 C223 1.510 . S
C233 H231 0.959 . S
C233 H232 0.961 . S
C233 H234 0.960 . S
H234 C233 0.960 . S
H235 N215 0.862 . S
O236 Co204 1.920 . S
O236 C209 1.289 . S
C237 O229 1.213 1_655 S
C237 O230 1.313 . S
Co238 O241 1.970 . S
Co238 N255 1.989 . S
Co238 O263 1.967 . S
Co238 O270 1.920 . S
Co239 O242 1.966 . S
Co239 N248 2.022 . S
Co239 N256 1.993 . S
Co239 O264 1.941 . S
C240 O241 1.258 . S
C240 O242 1.263 . S
O241 Co238 1.970 . S
O241 C240 1.258 . S
O242 Co239 1.966 . S
O242 C240 1.263 . S
C243 O244 1.235 . S
C243 O270 1.289 . S
O244 C243 1.235 . S
C245 C247 1.400 . S
C245 N248 1.351 . S
C245 C250 1.501 . S
C246 C247 1.387 . S
C246 N249 1.341 . S
C247 C245 1.400 . S
C247 C246 1.387 . S
N248 Co239 2.022 . S
N248 C245 1.351 . S
N248 N249 1.365 . S
N249 C246 1.341 . S
N249 N248 1.365 . S
N249 H269 0.862 . S
C250 C245 1.501 . S
C250 H251 0.961 . S
C250 H252 0.961 . S
C250 H253 0.960 . S
H251 C250 0.961 . S
H252 C250 0.961 . S
H253 C250 0.960 . S
C254 N255 1.342 . S
C254 C258 1.401 . S
C254 C259 1.499 . S
N255 Co238 1.989 . S
N255 C254 1.342 . S
N255 N256 1.388 . S
N256 Co239 1.993 . S
N256 N255 1.388 . S
N256 C257 1.346 . S
C257 N256 1.346 . S
C257 C258 1.396 . S
C257 C267 1.510 . S
C258 C254 1.401 . S
C258 C257 1.396 . S
C259 C254 1.499 . S
C259 H260 0.959 . S
C259 H261 0.960 . S
C259 H262 0.961 . S
H260 C259 0.959 . S
H261 C259 0.960 . S
H262 C259 0.961 . S
O263 Co238 1.967 . S
O263 C271 1.258 . S
O264 Co239 1.941 . S
O264 C271 1.266 . S
H265 C267 0.959 . S
H266 C267 0.961 . S
C267 C257 1.510 . S
C267 H265 0.959 . S
C267 H266 0.961 . S
C267 H268 0.960 . S
H268 C267 0.960 . S
H269 N249 0.862 . S
O270 Co238 1.920 . S
O270 C243 1.289 . S
C271 O263 1.258 . S
C271 O264 1.266 . S
Co272 O275 1.970 . S
Co272 N289 2.022 . S
Co272 O297 1.967 . S
Co272 O304 1.920 . S
Co273 O276 1.966 1_545 S
Co273 N282 2.022 . S
Co273 N290 1.993 . S
Co273 O298 1.941 . S
C274 O275 1.258 . S
C274 O276 1.263 . S
O275 Co272 1.970 . S
O275 C274 1.258 . S
O276 Co273 1.966 1_565 S
O276 C274 1.263 . S
C277 O278 1.235 . S
C277 O304 1.289 . S
O278 C277 1.235 . S
C279 C281 1.400 . S
C279 N282 1.351 . S
C279 C284 1.501 . S
C280 C281 1.387 . S
C280 N283 1.341 . S
C281 C279 1.400 . S
C281 C280 1.387 . S
N282 Co273 2.022 . S
N282 C279 1.351 . S
N282 N283 1.365 . S
N283 C280 1.341 . S
N283 N282 1.365 . S
N283 H303 0.862 . S
C284 C279 1.501 . S
C284 H285 0.961 . S
C284 H286 0.961 . S
C284 H287 0.960 . S
H285 C284 0.961 . S
H286 C284 0.961 . S
H287 C284 0.960 . S
C288 N289 1.318 1_545 S
C288 C292 1.401 . S
C288 C293 1.499 1_545 S
N289 Co272 2.022 . S
N289 C288 1.318 1_565 S
N289 N290 1.374 1_565 S
N290 Co273 1.993 . S
N290 N289 1.374 1_545 S
N290 C291 1.346 . S
C291 N290 1.346 . S
C291 C292 1.396 . S
C291 C301 1.510 . S
C292 C288 1.401 . S
C292 C291 1.396 . S
C293 C288 1.499 1_565 S
C293 H294 0.959 . S
C293 H295 0.960 . S
C293 H296 0.961 . S
H294 C293 0.959 . S
H295 C293 0.960 . S
H296 C293 0.961 . S
O297 Co272 1.967 . S
O297 C305 1.233 1_565 S
O298 Co273 1.941 . S
O298 C305 1.289 . S
H299 C301 0.959 . S
H300 C301 0.961 . S
C301 C291 1.510 . S
C301 H299 0.959 . S
C301 H300 0.961 . S
C301 H302 0.960 . S
H302 C301 0.960 . S
H303 N283 0.862 . S
O304 Co272 1.920 . S
O304 C277 1.289 . S
C305 O297 1.233 1_545 S
C305 O298 1.289 . S
Co306 O309 1.970 . S
Co306 N323 2.010 . S
Co306 O331 1.967 . S
Co306 O338 1.920 . S
Co307 O310 1.966 1_565 S
Co307 N316 2.022 . S
Co307 N324 1.993 . S
Co307 O332 1.941 . S
C308 O309 1.258 . S
C308 O310 1.263 . S
O309 Co306 1.970 . S
O309 C308 1.258 . S
O310 Co307 1.966 1_545 S
O310 C308 1.263 . S
C311 O312 1.235 . S
C311 O338 1.289 . S
O312 C311 1.235 . S
C313 C315 1.400 . S
C313 N316 1.351 . S
C313 C318 1.501 . S
C314 C315 1.387 . S
C314 N317 1.341 . S
C315 C313 1.400 . S
C315 C314 1.387 . S
N316 Co307 2.022 . S
N316 C313 1.351 . S
N316 N317 1.365 . S
N317 C314 1.341 . S
N317 N316 1.365 . S
N317 H337 0.862 . S
C318 C313 1.501 . S
C318 H319 0.961 . S
C318 H320 0.961 . S
C318 H321 0.960 . S
H319 C318 0.961 . S
H320 C318 0.961 . S
H321 C318 0.960 . S
C322 N323 1.352 1_565 S
C322 C326 1.401 . S
C322 C327 1.499 1_565 S
N323 Co306 2.010 . S
N323 C322 1.352 1_545 S
N323 N324 1.348 1_545 S
N324 Co307 1.993 . S
N324 N323 1.348 1_565 S
N324 C325 1.346 . S
C325 N324 1.346 . S
C325 C326 1.396 . S
C325 C335 1.510 . S
C326 C322 1.401 . S
C326 C325 1.396 . S
C327 C322 1.499 1_545 S
C327 H328 0.959 . S
C327 H329 0.960 . S
C327 H330 0.961 . S
H328 C327 0.959 . S
H329 C327 0.960 . S
H330 C327 0.961 . S
O331 Co306 1.967 . S
O331 C339 1.212 1_545 S
O332 Co307 1.941 . S
O332 C339 1.313 . S
H333 C335 0.959 . S
H334 C335 0.961 . S
C335 C325 1.510 . S
C335 H333 0.959 . S
C335 H334 0.961 . S
C335 H336 0.960 . S
H336 C335 0.960 . S
H337 N317 0.862 . S
O338 Co306 1.920 . S
O338 C311 1.289 . S
C339 O331 1.212 1_565 S
C339 O332 1.313 . S
Co340 O343 1.970 . S
Co340 N357 2.022 . S
Co340 O365 1.967 . S
Co340 O372 1.920 . S
Co341 O344 1.966 1_455 S
Co341 N350 2.022 . S
Co341 N358 1.993 . S
Co341 O366 1.941 . S
C342 O343 1.258 . S
C342 O344 1.263 . S
O343 Co340 1.970 . S
O343 C342 1.258 . S
O344 Co341 1.966 1_655 S
O344 C342 1.263 . S
C345 O346 1.235 . S
C345 O372 1.289 . S
O346 C345 1.235 . S
C347 C349 1.400 . S
C347 N350 1.351 . S
C347 C352 1.501 . S
C348 C349 1.387 . S
C348 N351 1.341 . S
C349 C347 1.400 . S
C349 C348 1.387 . S
N350 Co341 2.022 . S
N350 C347 1.351 . S
N350 N351 1.365 . S
N351 C348 1.341 . S
N351 N350 1.365 . S
N351 H371 0.862 . S
C352 C347 1.501 . S
C352 H353 0.961 . S
C352 H354 0.961 . S
C352 H355 0.960 . S
H353 C352 0.961 . S
H354 C352 0.961 . S
H355 C352 0.960 . S
C356 N357 1.318 1_455 S
C356 C360 1.401 . S
C356 C361 1.499 1_455 S
N357 Co340 2.022 . S
N357 C356 1.318 1_655 S
N357 N358 1.374 1_655 S
N358 Co341 1.993 . S
N358 N357 1.374 1_455 S
N358 C359 1.346 . S
C359 N358 1.346 . S
C359 C360 1.396 . S
C359 C369 1.510 . S
C360 C356 1.401 . S
C360 C359 1.396 . S
C361 C356 1.499 1_655 S
C361 H362 0.959 . S
C361 H363 0.960 . S
C361 H364 0.961 . S
H362 C361 0.959 . S
H363 C361 0.960 . S
H364 C361 0.961 . S
O365 Co340 1.967 . S
O365 C373 1.233 1_655 S
O366 Co341 1.941 . S
O366 C373 1.289 . S
H367 C369 0.959 . S
H368 C369 0.961 . S
C369 C359 1.510 . S
C369 H367 0.959 . S
C369 H368 0.961 . S
C369 H370 0.960 . S
H370 C369 0.960 . S
H371 N351 0.862 . S
O372 Co340 1.920 . S
O372 C345 1.289 . S
C373 O365 1.233 1_455 S
C373 O366 1.289 . S
Co374 O377 1.970 . S
Co374 N391 1.989 . S
Co374 O399 1.967 . S
Co374 O406 1.920 . S
Co375 O378 1.966 . S
Co375 N384 2.022 . S
Co375 N392 1.993 . S
Co375 O400 1.941 . S
C376 O377 1.258 . S
C376 O378 1.263 . S
O377 Co374 1.970 . S
O377 C376 1.258 . S
O378 Co375 1.966 . S
O378 C376 1.263 . S
C379 O380 1.235 . S
C379 O406 1.289 . S
O380 C379 1.235 . S
C381 C383 1.400 . S
C381 N384 1.351 . S
C381 C386 1.501 . S
C382 C383 1.387 . S
C382 N385 1.341 . S
C383 C381 1.400 . S
C383 C382 1.387 . S
N384 Co375 2.022 . S
N384 C381 1.351 . S
N384 N385 1.365 . S
N385 C382 1.341 . S
N385 N384 1.365 . S
N385 H405 0.862 . S
C386 C381 1.501 . S
C386 H387 0.961 . S
C386 H388 0.961 . S
C386 H389 0.960 . S
H387 C386 0.961 . S
H388 C386 0.961 . S
H389 C386 0.960 . S
C390 N391 1.342 . S
C390 C394 1.401 . S
C390 C395 1.499 . S
N391 Co374 1.989 . S
N391 C390 1.342 . S
N391 N392 1.388 . S
N392 Co375 1.993 . S
N392 N391 1.388 . S
N392 C393 1.346 . S
C393 N392 1.346 . S
C393 C394 1.396 . S
C393 C403 1.510 . S
C394 C390 1.401 . S
C394 C393 1.396 . S
C395 C390 1.499 . S
C395 H396 0.959 . S
C395 H397 0.960 . S
C395 H398 0.961 . S
H396 C395 0.959 . S
H397 C395 0.960 . S
H398 C395 0.961 . S
O399 Co374 1.967 . S
O399 C407 1.258 . S
O400 Co375 1.941 . S
O400 C407 1.266 . S
H401 C403 0.959 . S
H402 C403 0.961 . S
C403 C393 1.510 . S
C403 H401 0.959 . S
C403 H402 0.961 . S
C403 H404 0.960 . S
H404 C403 0.960 . S
H405 N385 0.862 . S
O406 Co374 1.920 . S
O406 C379 1.289 . S
C407 O399 1.258 . S
C407 O400 1.266 . S
Co408 O411 1.970 . S
Co408 N425 1.989 . S
Co408 O433 1.967 . S
Co408 O440 1.920 . S
Co409 O412 1.966 . S
Co409 N418 2.022 . S
Co409 N426 1.993 . S
Co409 O434 1.941 . S
C410 O411 1.258 . S
C410 O412 1.263 . S
O411 Co408 1.970 . S
O411 C410 1.258 . S
O412 Co409 1.966 . S
O412 C410 1.263 . S
C413 O414 1.235 . S
C413 O440 1.289 . S
O414 C413 1.235 . S
C415 C417 1.400 . S
C415 N418 1.351 . S
C415 C420 1.501 . S
C416 C417 1.387 . S
C416 N419 1.341 . S
C417 C415 1.400 . S
C417 C416 1.387 . S
N418 Co409 2.022 . S
N418 C415 1.351 . S
N418 N419 1.365 . S
N419 C416 1.341 . S
N419 N418 1.365 . S
N419 H439 0.862 . S
C420 C415 1.501 . S
C420 H421 0.961 . S
C420 H422 0.961 . S
C420 H423 0.960 . S
H421 C420 0.961 . S
H422 C420 0.961 . S
H423 C420 0.960 . S
C424 N425 1.342 . S
C424 C428 1.401 . S
C424 C429 1.499 . S
N425 Co408 1.989 . S
N425 C424 1.342 . S
N425 N426 1.388 . S
N426 Co409 1.993 . S
N426 N425 1.388 . S
N426 C427 1.346 . S
C427 N426 1.346 . S
C427 C428 1.396 . S
C427 C437 1.510 . S
C428 C424 1.401 . S
C428 C427 1.396 . S
C429 C424 1.499 . S
C429 H430 0.959 . S
C429 H431 0.960 . S
C429 H432 0.961 . S
H430 C429 0.959 . S
H431 C429 0.960 . S
H432 C429 0.961 . S
O433 Co408 1.967 . S
O433 C441 1.258 . S
O434 Co409 1.941 . S
O434 C441 1.266 . S
H435 C437 0.959 . S
H436 C437 0.961 . S
C437 C427 1.510 . S
C437 H435 0.959 . S
C437 H436 0.961 . S
C437 H438 0.960 . S
H438 C437 0.960 . S
H439 N419 0.862 . S
O440 Co408 1.920 . S
O440 C413 1.289 . S
C441 O433 1.258 . S
C441 O434 1.266 . S
Co442 O445 1.970 . S
Co442 N459 1.989 . S
Co442 O467 1.967 . S
Co442 O474 1.920 . S
Co443 O446 1.966 . S
Co443 N452 2.022 . S
Co443 N460 1.993 . S
Co443 O468 1.941 . S
C444 O445 1.258 . S
C444 O446 1.263 . S
O445 Co442 1.970 . S
O445 C444 1.258 . S
O446 Co443 1.966 . S
O446 C444 1.263 . S
C447 O448 1.235 . S
C447 O474 1.289 . S
O448 C447 1.235 . S
C449 C451 1.400 . S
C449 N452 1.351 . S
C449 C454 1.501 . S
C450 C451 1.387 . S
C450 N453 1.341 . S
C451 C449 1.400 . S
C451 C450 1.387 . S
N452 Co443 2.022 . S
N452 C449 1.351 . S
N452 N453 1.365 . S
N453 C450 1.341 . S
N453 N452 1.365 . S
N453 H473 0.862 . S
C454 C449 1.501 . S
C454 H455 0.961 . S
C454 H456 0.961 . S
C454 H457 0.960 . S
H455 C454 0.961 . S
H456 C454 0.961 . S
H457 C454 0.960 . S
C458 N459 1.342 . S
C458 C462 1.401 . S
C458 C463 1.499 . S
N459 Co442 1.989 . S
N459 C458 1.342 . S
N459 N460 1.388 . S
N460 Co443 1.993 . S
N460 N459 1.388 . S
N460 C461 1.346 . S
C461 N460 1.346 . S
C461 C462 1.396 . S
C461 C471 1.510 . S
C462 C458 1.401 . S
C462 C461 1.396 . S
C463 C458 1.499 . S
C463 H464 0.959 . S
C463 H465 0.960 . S
C463 H466 0.961 . S
H464 C463 0.959 . S
H465 C463 0.960 . S
H466 C463 0.961 . S
O467 Co442 1.967 . S
O467 C475 1.258 . S
O468 Co443 1.941 . S
O468 C475 1.266 . S
H469 C471 0.959 . S
H470 C471 0.961 . S
C471 C461 1.510 . S
C471 H469 0.959 . S
C471 H470 0.961 . S
C471 H472 0.960 . S
H472 C471 0.960 . S
H473 N453 0.862 . S
O474 Co442 1.920 . S
O474 C447 1.289 . S
C475 O467 1.258 . S
C475 O468 1.266 . S
Co476 O479 1.970 . S
Co476 N493 1.989 . S
Co476 O501 1.967 . S
Co476 O508 1.920 . S
Co477 O480 1.966 . S
Co477 N486 2.022 . S
Co477 N494 1.993 . S
Co477 O502 1.941 . S
C478 O479 1.258 . S
C478 O480 1.263 . S
O479 Co476 1.970 . S
O479 C478 1.258 . S
O480 Co477 1.966 . S
O480 C478 1.263 . S
C481 O482 1.235 . S
C481 O508 1.289 . S
O482 C481 1.235 . S
C483 C485 1.400 . S
C483 N486 1.351 . S
C483 C488 1.501 . S
C484 C485 1.387 . S
C484 N487 1.341 . S
C485 C483 1.400 . S
C485 C484 1.387 . S
N486 Co477 2.022 . S
N486 C483 1.351 . S
N486 N487 1.365 . S
N487 C484 1.341 . S
N487 N486 1.365 . S
N487 H507 0.862 . S
C488 C483 1.501 . S
C488 H489 0.961 . S
C488 H490 0.961 . S
C488 H491 0.960 . S
H489 C488 0.961 . S
H490 C488 0.961 . S
H491 C488 0.960 . S
C492 N493 1.342 . S
C492 C496 1.401 . S
C492 C497 1.499 . S
N493 Co476 1.989 . S
N493 C492 1.342 . S
N493 N494 1.388 . S
N494 Co477 1.993 . S
N494 N493 1.388 . S
N494 C495 1.346 . S
C495 N494 1.346 . S
C495 C496 1.396 . S
C495 C505 1.510 . S
C496 C492 1.401 . S
C496 C495 1.396 . S
C497 C492 1.499 . S
C497 H498 0.959 . S
C497 H499 0.960 . S
C497 H500 0.961 . S
H498 C497 0.959 . S
H499 C497 0.960 . S
H500 C497 0.961 . S
O501 Co476 1.967 . S
O501 C509 1.258 . S
O502 Co477 1.941 . S
O502 C509 1.266 . S
H503 C505 0.959 . S
H504 C505 0.961 . S
C505 C495 1.510 . S
C505 H503 0.959 . S
C505 H504 0.961 . S
C505 H506 0.960 . S
H506 C505 0.960 . S
H507 N487 0.862 . S
O508 Co476 1.920 . S
O508 C481 1.289 . S
C509 O501 1.258 . S
C509 O502 1.266 . S
Co510 O513 1.970 . S
Co510 N527 1.989 . S
Co510 O535 1.967 . S
Co510 O542 1.920 . S
Co511 O514 1.966 . S
Co511 N520 2.022 . S
Co511 N528 1.993 . S
Co511 O536 1.941 . S
C512 O513 1.258 . S
C512 O514 1.263 . S
O513 Co510 1.970 . S
O513 C512 1.258 . S
O514 Co511 1.966 . S
O514 C512 1.263 . S
C515 O516 1.235 . S
C515 O542 1.289 . S
O516 C515 1.235 . S
C517 C519 1.400 . S
C517 N520 1.351 . S
C517 C522 1.501 . S
C518 C519 1.387 . S
C518 N521 1.341 . S
C519 C517 1.400 . S
C519 C518 1.387 . S
N520 Co511 2.022 . S
N520 C517 1.351 . S
N520 N521 1.365 . S
N521 C518 1.341 . S
N521 N520 1.365 . S
N521 H541 0.862 . S
C522 C517 1.501 . S
C522 H523 0.961 . S
C522 H524 0.961 . S
C522 H525 0.960 . S
H523 C522 0.961 . S
H524 C522 0.961 . S
H525 C522 0.960 . S
C526 N527 1.342 . S
C526 C530 1.401 . S
C526 C531 1.499 . S
N527 Co510 1.989 . S
N527 C526 1.342 . S
N527 N528 1.388 . S
N528 Co511 1.993 . S
N528 N527 1.388 . S
N528 C529 1.346 . S
C529 N528 1.346 . S
C529 C530 1.396 . S
C529 C539 1.510 . S
C530 C526 1.401 . S
C530 C529 1.396 . S
C531 C526 1.499 . S
C531 H532 0.959 . S
C531 H533 0.960 . S
C531 H534 0.961 . S
H532 C531 0.959 . S
H533 C531 0.960 . S
H534 C531 0.961 . S
O535 Co510 1.967 . S
O535 C543 1.258 . S
O536 Co511 1.941 . S
O536 C543 1.266 . S
H537 C539 0.959 . S
H538 C539 0.961 . S
C539 C529 1.510 . S
C539 H537 0.959 . S
C539 H538 0.961 . S
C539 H540 0.960 . S
H540 C539 0.960 . S
H541 N521 0.862 . S
O542 Co510 1.920 . S
O542 C515 1.289 . S
C543 O535 1.258 . S
C543 O536 1.266 . S
Co544 O547 1.970 . S
Co544 N561 1.989 . S
Co544 O569 1.967 . S
Co544 O576 1.920 . S
Co545 O548 1.966 . S
Co545 N554 2.022 . S
Co545 N562 1.993 . S
Co545 O570 1.941 . S
C546 O547 1.258 . S
C546 O548 1.263 . S
O547 Co544 1.970 . S
O547 C546 1.258 . S
O548 Co545 1.966 . S
O548 C546 1.263 . S
C549 O550 1.235 . S
C549 O576 1.289 . S
O550 C549 1.235 . S
C551 C553 1.400 . S
C551 N554 1.351 . S
C551 C556 1.501 . S
C552 C553 1.387 . S
C552 N555 1.341 . S
C553 C551 1.400 . S
C553 C552 1.387 . S
N554 Co545 2.022 . S
N554 C551 1.351 . S
N554 N555 1.365 . S
N555 C552 1.341 . S
N555 N554 1.365 . S
N555 H575 0.862 . S
C556 C551 1.501 . S
C556 H557 0.961 . S
C556 H558 0.961 . S
C556 H559 0.960 . S
H557 C556 0.961 . S
H558 C556 0.961 . S
H559 C556 0.960 . S
C560 N561 1.342 . S
C560 C564 1.401 . S
C560 C565 1.499 . S
N561 Co544 1.989 . S
N561 C560 1.342 . S
N561 N562 1.388 . S
N562 Co545 1.993 . S
N562 N561 1.388 . S
N562 C563 1.346 . S
C563 N562 1.346 . S
C563 C564 1.396 . S
C563 C573 1.510 . S
C564 C560 1.401 . S
C564 C563 1.396 . S
C565 C560 1.499 . S
C565 H566 0.959 . S
C565 H567 0.960 . S
C565 H568 0.961 . S
H566 C565 0.959 . S
H567 C565 0.960 . S
H568 C565 0.961 . S
O569 Co544 1.967 . S
O569 C577 1.258 . S
O570 Co545 1.941 . S
O570 C577 1.266 . S
H571 C573 0.959 . S
H572 C573 0.961 . S
C573 C563 1.510 . S
C573 H571 0.959 . S
C573 H572 0.961 . S
C573 H574 0.960 . S
H574 C573 0.960 . S
H575 N555 0.862 . S
O576 Co544 1.920 . S
O576 C549 1.289 . S
C577 O569 1.258 . S
C577 O570 1.266 . S
Co578 O581 1.970 . S
Co578 N595 1.989 . S
Co578 O603 1.967 . S
Co578 O610 1.920 . S
Co579 O582 1.966 . S
Co579 N588 2.022 . S
Co579 N596 1.993 . S
Co579 O604 1.941 . S
C580 O581 1.258 . S
C580 O582 1.263 . S
O581 Co578 1.970 . S
O581 C580 1.258 . S
O582 Co579 1.966 . S
O582 C580 1.263 . S
C583 O584 1.235 . S
C583 O610 1.289 . S
O584 C583 1.235 . S
C585 C587 1.400 . S
C585 N588 1.351 . S
C585 C590 1.501 . S
C586 C587 1.387 . S
C586 N589 1.341 . S
C587 C585 1.400 . S
C587 C586 1.387 . S
N588 Co579 2.022 . S
N588 C585 1.351 . S
N588 N589 1.365 . S
N589 C586 1.341 . S
N589 N588 1.365 . S
N589 H609 0.862 . S
C590 C585 1.501 . S
C590 H591 0.961 . S
C590 H592 0.961 . S
C590 H593 0.960 . S
H591 C590 0.961 . S
H592 C590 0.961 . S
H593 C590 0.960 . S
C594 N595 1.342 . S
C594 C598 1.401 . S
C594 C599 1.499 . S
N595 Co578 1.989 . S
N595 C594 1.342 . S
N595 N596 1.388 . S
N596 Co579 1.993 . S
N596 N595 1.388 . S
N596 C597 1.346 . S
C597 N596 1.346 . S
C597 C598 1.396 . S
C597 C607 1.510 . S
C598 C594 1.401 . S
C598 C597 1.396 . S
C599 C594 1.499 . S
C599 H600 0.959 . S
C599 H601 0.960 . S
C599 H602 0.961 . S
H600 C599 0.959 . S
H601 C599 0.960 . S
H602 C599 0.961 . S
O603 Co578 1.967 . S
O603 C611 1.258 . S
O604 Co579 1.941 . S
O604 C611 1.266 . S
H605 C607 0.959 . S
H606 C607 0.961 . S
C607 C597 1.510 . S
C607 H605 0.959 . S
C607 H606 0.961 . S
C607 H608 0.960 . S
H608 C607 0.960 . S
H609 N589 0.862 . S
O610 Co578 1.920 . S
O610 C583 1.289 . S
C611 O603 1.258 . S
C611 O604 1.266 . S
Co612 O615 1.970 . S
Co612 N629 1.989 . S
Co612 O637 1.967 . S
Co612 O644 1.920 . S
Co613 O616 1.966 . S
Co613 N622 2.022 . S
Co613 N630 1.993 . S
Co613 O638 1.941 . S
C614 O615 1.258 . S
C614 O616 1.263 . S
O615 Co612 1.970 . S
O615 C614 1.258 . S
O616 Co613 1.966 . S
O616 C614 1.263 . S
C617 O618 1.235 . S
C617 O644 1.289 . S
O618 C617 1.235 . S
C619 C621 1.400 . S
C619 N622 1.351 . S
C619 C624 1.501 . S
C620 C621 1.387 . S
C620 N623 1.341 . S
C621 C619 1.400 . S
C621 C620 1.387 . S
N622 Co613 2.022 . S
N622 C619 1.351 . S
N622 N623 1.365 . S
N623 C620 1.341 . S
N623 N622 1.365 . S
N623 H643 0.862 . S
C624 C619 1.501 . S
C624 H625 0.961 . S
C624 H626 0.961 . S
C624 H627 0.960 . S
H625 C624 0.961 . S
H626 C624 0.961 . S
H627 C624 0.960 . S
C628 N629 1.342 . S
C628 C632 1.401 . S
C628 C633 1.499 . S
N629 Co612 1.989 . S
N629 C628 1.342 . S
N629 N630 1.388 . S
N630 Co613 1.993 . S
N630 N629 1.388 . S
N630 C631 1.346 . S
C631 N630 1.346 . S
C631 C632 1.396 . S
C631 C641 1.510 . S
C632 C628 1.401 . S
C632 C631 1.396 . S
C633 C628 1.499 . S
C633 H634 0.959 . S
C633 H635 0.960 . S
C633 H636 0.961 . S
H634 C633 0.959 . S
H635 C633 0.960 . S
H636 C633 0.961 . S
O637 Co612 1.967 . S
O637 C645 1.258 . S
O638 Co613 1.941 . S
O638 C645 1.266 . S
H639 C641 0.959 . S
H640 C641 0.961 . S
C641 C631 1.510 . S
C641 H639 0.959 . S
C641 H640 0.961 . S
C641 H642 0.960 . S
H642 C641 0.960 . S
H643 N623 0.862 . S
O644 Co612 1.920 . S
O644 C617 1.289 . S
C645 O637 1.258 . S
C645 O638 1.266 . S
Co646 O649 1.970 . S
Co646 N663 1.989 . S
Co646 O671 1.967 . S
Co646 O678 1.920 . S
Co647 O650 1.966 . S
Co647 N656 2.022 . S
Co647 N664 1.993 . S
Co647 O672 1.941 . S
C648 O649 1.258 . S
C648 O650 1.263 . S
O649 Co646 1.970 . S
O649 C648 1.258 . S
O650 Co647 1.966 . S
O650 C648 1.263 . S
C651 O652 1.235 . S
C651 O678 1.289 . S
O652 C651 1.235 . S
C653 C655 1.400 . S
C653 N656 1.351 . S
C653 C658 1.501 . S
C654 C655 1.387 . S
C654 N657 1.341 . S
C655 C653 1.400 . S
C655 C654 1.387 . S
N656 Co647 2.022 . S
N656 C653 1.351 . S
N656 N657 1.365 . S
N657 C654 1.341 . S
N657 N656 1.365 . S
N657 H677 0.862 . S
C658 C653 1.501 . S
C658 H659 0.961 . S
C658 H660 0.961 . S
C658 H661 0.960 . S
H659 C658 0.961 . S
H660 C658 0.961 . S
H661 C658 0.960 . S
C662 N663 1.342 . S
C662 C666 1.401 . S
C662 C667 1.499 . S
N663 Co646 1.989 . S
N663 C662 1.342 . S
N663 N664 1.388 . S
N664 Co647 1.993 . S
N664 N663 1.388 . S
N664 C665 1.346 . S
C665 N664 1.346 . S
C665 C666 1.396 . S
C665 C675 1.510 . S
C666 C662 1.401 . S
C666 C665 1.396 . S
C667 C662 1.499 . S
C667 H668 0.959 . S
C667 H669 0.960 . S
C667 H670 0.961 . S
H668 C667 0.959 . S
H669 C667 0.960 . S
H670 C667 0.961 . S
O671 Co646 1.967 . S
O671 C679 1.258 . S
O672 Co647 1.941 . S
O672 C679 1.266 . S
H673 C675 0.959 . S
H674 C675 0.961 . S
C675 C665 1.510 . S
C675 H673 0.959 . S
C675 H674 0.961 . S
C675 H676 0.960 . S
H676 C675 0.960 . S
H677 N657 0.862 . S
O678 Co646 1.920 . S
O678 C651 1.289 . S
C679 O671 1.258 . S
C679 O672 1.266 . S
Co680 O683 1.970 . S
Co680 N697 1.989 . S
Co680 O705 1.967 . S
Co680 O712 1.920 . S
Co681 O684 1.966 . S
Co681 N690 2.022 . S
Co681 N698 1.993 . S
Co681 O706 1.941 . S
C682 O683 1.258 . S
C682 O684 1.263 . S
O683 Co680 1.970 . S
O683 C682 1.258 . S
O684 Co681 1.966 . S
O684 C682 1.263 . S
C685 O686 1.235 . S
C685 O712 1.289 . S
O686 C685 1.235 . S
C687 C689 1.400 . S
C687 N690 1.351 . S
C687 C692 1.501 . S
C688 C689 1.387 . S
C688 N691 1.341 . S
C689 C687 1.400 . S
C689 C688 1.387 . S
N690 Co681 2.022 . S
N690 C687 1.351 . S
N690 N691 1.365 . S
N691 C688 1.341 . S
N691 N690 1.365 . S
N691 H711 0.862 . S
C692 C687 1.501 . S
C692 H693 0.961 . S
C692 H694 0.961 . S
C692 H695 0.960 . S
H693 C692 0.961 . S
H694 C692 0.961 . S
H695 C692 0.960 . S
C696 N697 1.342 . S
C696 C700 1.401 . S
C696 C701 1.499 . S
N697 Co680 1.989 . S
N697 C696 1.342 . S
N697 N698 1.388 . S
N698 Co681 1.993 . S
N698 N697 1.388 . S
N698 C699 1.346 . S
C699 N698 1.346 . S
C699 C700 1.396 . S
C699 C709 1.510 . S
C700 C696 1.401 . S
C700 C699 1.396 . S
C701 C696 1.499 . S
C701 H702 0.959 . S
C701 H703 0.960 . S
C701 H704 0.961 . S
H702 C701 0.959 . S
H703 C701 0.960 . S
H704 C701 0.961 . S
O705 Co680 1.967 . S
O705 C713 1.258 . S
O706 Co681 1.941 . S
O706 C713 1.266 . S
H707 C709 0.959 . S
H708 C709 0.961 . S
C709 C699 1.510 . S
C709 H707 0.959 . S
C709 H708 0.961 . S
C709 H710 0.960 . S
H710 C709 0.960 . S
H711 N691 0.862 . S
O712 Co680 1.920 . S
O712 C685 1.289 . S
C713 O705 1.258 . S
C713 O706 1.266 . S
Co714 O717 1.970 . S
Co714 N731 1.989 . S
Co714 O739 1.967 1_556 S
Co714 O746 1.920 . S
Co715 O718 1.966 . S
Co715 N724 2.022 . S
Co715 N732 1.993 . S
Co715 O740 1.941 1_556 S
C716 O717 1.258 . S
C716 O718 1.263 . S
O717 Co714 1.970 . S
O717 C716 1.258 . S
O718 Co715 1.966 . S
O718 C716 1.263 . S
C719 O720 1.235 . S
C719 O746 1.289 . S
O720 C719 1.235 . S
C721 C723 1.400 . S
C721 N724 1.351 . S
C721 C726 1.501 . S
C722 C723 1.387 . S
C722 N725 1.341 . S
C723 C721 1.400 . S
C723 C722 1.387 . S
N724 Co715 2.022 . S
N724 C721 1.351 . S
N724 N725 1.365 . S
N725 C722 1.341 . S
N725 N724 1.365 . S
N725 H745 0.862 . S
C726 C721 1.501 . S
C726 H727 0.961 . S
C726 H728 0.961 . S
C726 H729 0.960 . S
H727 C726 0.961 . S
H728 C726 0.961 . S
H729 C726 0.960 . S
C730 N731 1.342 . S
C730 C734 1.401 . S
C730 C735 1.499 . S
N731 Co714 1.989 . S
N731 C730 1.342 . S
N731 N732 1.388 . S
N732 Co715 1.993 . S
N732 N731 1.388 . S
N732 C733 1.346 . S
C733 N732 1.346 . S
C733 C734 1.396 . S
C733 C743 1.510 . S
C734 C730 1.401 . S
C734 C733 1.396 . S
C735 C730 1.499 . S
C735 H736 0.959 . S
C735 H737 0.960 . S
C735 H738 0.961 . S
H736 C735 0.959 . S
H737 C735 0.960 . S
H738 C735 0.961 . S
O739 Co714 1.967 1_554 S
O739 C747 1.258 . S
O740 Co715 1.941 1_554 S
O740 C747 1.266 . S
H741 C743 0.959 . S
H742 C743 0.961 . S
C743 C733 1.510 . S
C743 H741 0.959 . S
C743 H742 0.961 . S
C743 H744 0.960 . S
H744 C743 0.960 . S
H745 N725 0.862 . S
O746 Co714 1.920 . S
O746 C719 1.289 . S
C747 O739 1.258 . S
C747 O740 1.266 . S
Co748 O751 1.970 . S
Co748 N765 1.989 . S
Co748 O773 1.967 1_556 S
Co748 O780 1.920 . S
Co749 O752 1.966 . S
Co749 N758 2.022 . S
Co749 N766 1.993 . S
Co749 O774 1.941 1_556 S
C750 O751 1.258 . S
C750 O752 1.263 . S
O751 Co748 1.970 . S
O751 C750 1.258 . S
O752 Co749 1.966 . S
O752 C750 1.263 . S
C753 O754 1.235 . S
C753 O780 1.289 . S
O754 C753 1.235 . S
C755 C757 1.400 . S
C755 N758 1.351 . S
C755 C760 1.501 . S
C756 C757 1.387 . S
C756 N759 1.341 . S
C757 C755 1.400 . S
C757 C756 1.387 . S
N758 Co749 2.022 . S
N758 C755 1.351 . S
N758 N759 1.365 . S
N759 C756 1.341 . S
N759 N758 1.365 . S
N759 H779 0.862 . S
C760 C755 1.501 . S
C760 H761 0.961 . S
C760 H762 0.961 . S
C760 H763 0.960 . S
H761 C760 0.961 . S
H762 C760 0.961 . S
H763 C760 0.960 . S
C764 N765 1.342 . S
C764 C768 1.401 . S
C764 C769 1.499 . S
N765 Co748 1.989 . S
N765 C764 1.342 . S
N765 N766 1.388 . S
N766 Co749 1.993 . S
N766 N765 1.388 . S
N766 C767 1.346 . S
C767 N766 1.346 . S
C767 C768 1.396 . S
C767 C777 1.510 . S
C768 C764 1.401 . S
C768 C767 1.396 . S
C769 C764 1.499 . S
C769 H770 0.959 . S
C769 H771 0.960 . S
C769 H772 0.961 . S
H770 C769 0.959 . S
H771 C769 0.960 . S
H772 C769 0.961 . S
O773 Co748 1.967 1_554 S
O773 C781 1.258 . S
O774 Co749 1.941 1_554 S
O774 C781 1.266 . S
H775 C777 0.959 . S
H776 C777 0.961 . S
C777 C767 1.510 . S
C777 H775 0.959 . S
C777 H776 0.961 . S
C777 H778 0.960 . S
H778 C777 0.960 . S
H779 N759 0.862 . S
O780 Co748 1.920 . S
O780 C753 1.289 . S
C781 O773 1.258 . S
C781 O774 1.266 . S
Co782 O785 1.970 . S
Co782 N799 1.989 . S
Co782 O807 1.967 1_556 S
Co782 O814 1.920 . S
Co783 O786 1.966 . S
Co783 N792 2.022 . S
Co783 N800 1.993 . S
Co783 O808 1.941 1_556 S
C784 O785 1.258 . S
C784 O786 1.263 . S
O785 Co782 1.970 . S
O785 C784 1.258 . S
O786 Co783 1.966 . S
O786 C784 1.263 . S
C787 O788 1.235 . S
C787 O814 1.289 . S
O788 C787 1.235 . S
C789 C791 1.400 . S
C789 N792 1.351 . S
C789 C794 1.501 . S
C790 C791 1.387 . S
C790 N793 1.341 . S
C791 C789 1.400 . S
C791 C790 1.387 . S
N792 Co783 2.022 . S
N792 C789 1.351 . S
N792 N793 1.365 . S
N793 C790 1.341 . S
N793 N792 1.365 . S
N793 H813 0.862 . S
C794 C789 1.501 . S
C794 H795 0.961 . S
C794 H796 0.961 . S
C794 H797 0.960 . S
H795 C794 0.961 . S
H796 C794 0.961 . S
H797 C794 0.960 . S
C798 N799 1.342 . S
C798 C802 1.401 . S
C798 C803 1.499 . S
N799 Co782 1.989 . S
N799 C798 1.342 . S
N799 N800 1.388 . S
N800 Co783 1.993 . S
N800 N799 1.388 . S
N800 C801 1.346 . S
C801 N800 1.346 . S
C801 C802 1.396 . S
C801 C811 1.510 . S
C802 C798 1.401 . S
C802 C801 1.396 . S
C803 C798 1.499 . S
C803 H804 0.959 . S
C803 H805 0.960 . S
C803 H806 0.961 . S
H804 C803 0.959 . S
H805 C803 0.960 . S
H806 C803 0.961 . S
O807 Co782 1.967 1_554 S
O807 C815 1.258 . S
O808 Co783 1.941 1_554 S
O808 C815 1.266 . S
H809 C811 0.959 . S
H810 C811 0.961 . S
C811 C801 1.510 . S
C811 H809 0.959 . S
C811 H810 0.961 . S
C811 H812 0.960 . S
H812 C811 0.960 . S
H813 N793 0.862 . S
O814 Co782 1.920 . S
O814 C787 1.289 . S
C815 O807 1.258 . S
C815 O808 1.266 . S
Co816 O819 1.970 . S
Co816 N833 1.989 . S
Co816 O841 1.967 . S
Co816 O848 1.920 . S
Co817 O820 1.966 . S
Co817 N826 2.022 . S
Co817 N834 1.993 . S
Co817 O842 1.941 . S
C818 O819 1.258 . S
C818 O820 1.263 . S
O819 Co816 1.970 . S
O819 C818 1.258 . S
O820 Co817 1.966 . S
O820 C818 1.263 . S
C821 O822 1.235 . S
C821 O848 1.289 . S
O822 C821 1.235 . S
C823 C825 1.400 . S
C823 N826 1.351 . S
C823 C828 1.501 . S
C824 C825 1.387 . S
C824 N827 1.341 . S
C825 C823 1.400 . S
C825 C824 1.387 . S
N826 Co817 2.022 . S
N826 C823 1.351 . S
N826 N827 1.365 . S
N827 C824 1.341 . S
N827 N826 1.365 . S
N827 H847 0.862 . S
C828 C823 1.501 . S
C828 H829 0.961 . S
C828 H830 0.961 . S
C828 H831 0.960 . S
H829 C828 0.961 . S
H830 C828 0.961 . S
H831 C828 0.960 . S
C832 N833 1.342 . S
C832 C836 1.401 . S
C832 C837 1.499 . S
N833 Co816 1.989 . S
N833 C832 1.342 . S
N833 N834 1.388 . S
N834 Co817 1.993 . S
N834 N833 1.388 . S
N834 C835 1.346 . S
C835 N834 1.346 . S
C835 C836 1.396 . S
C835 C845 1.510 . S
C836 C832 1.401 . S
C836 C835 1.396 . S
C837 C832 1.499 . S
C837 H838 0.959 . S
C837 H839 0.960 . S
C837 H840 0.961 . S
H838 C837 0.959 . S
H839 C837 0.960 . S
H840 C837 0.961 . S
O841 Co816 1.967 . S
O841 C849 1.258 . S
O842 Co817 1.941 . S
O842 C849 1.266 . S
H843 C845 0.959 . S
H844 C845 0.961 . S
C845 C835 1.510 . S
C845 H843 0.959 . S
C845 H844 0.961 . S
C845 H846 0.960 . S
H846 C845 0.960 . S
H847 N827 0.862 . S
O848 Co816 1.920 . S
O848 C821 1.289 . S
C849 O841 1.258 . S
C849 O842 1.266 . S
Co850 O853 1.970 . S
Co850 N867 1.989 . S
Co850 O875 1.967 . S
Co850 O882 1.920 . S
Co851 O854 1.966 . S
Co851 N860 2.022 . S
Co851 N868 1.993 . S
Co851 O876 1.941 . S
C852 O853 1.258 . S
C852 O854 1.263 . S
O853 Co850 1.970 . S
O853 C852 1.258 . S
O854 Co851 1.966 . S
O854 C852 1.263 . S
C855 O856 1.235 . S
C855 O882 1.289 . S
O856 C855 1.235 . S
C857 C859 1.400 . S
C857 N860 1.351 . S
C857 C862 1.501 . S
C858 C859 1.387 . S
C858 N861 1.341 . S
C859 C857 1.400 . S
C859 C858 1.387 . S
N860 Co851 2.022 . S
N860 C857 1.351 . S
N860 N861 1.365 . S
N861 C858 1.341 . S
N861 N860 1.365 . S
N861 H881 0.862 . S
C862 C857 1.501 . S
C862 H863 0.961 . S
C862 H864 0.961 . S
C862 H865 0.960 . S
H863 C862 0.961 . S
H864 C862 0.961 . S
H865 C862 0.960 . S
C866 N867 1.342 . S
C866 C870 1.401 . S
C866 C871 1.499 . S
N867 Co850 1.989 . S
N867 C866 1.342 . S
N867 N868 1.388 . S
N868 Co851 1.993 . S
N868 N867 1.388 . S
N868 C869 1.346 . S
C869 N868 1.346 . S
C869 C870 1.396 . S
C869 C879 1.510 . S
C870 C866 1.401 . S
C870 C869 1.396 . S
C871 C866 1.499 . S
C871 H872 0.959 . S
C871 H873 0.960 . S
C871 H874 0.961 . S
H872 C871 0.959 . S
H873 C871 0.960 . S
H874 C871 0.961 . S
O875 Co850 1.967 . S
O875 C883 1.258 . S
O876 Co851 1.941 . S
O876 C883 1.266 . S
H877 C879 0.959 . S
H878 C879 0.961 . S
C879 C869 1.510 . S
C879 H877 0.959 . S
C879 H878 0.961 . S
C879 H880 0.960 . S
H880 C879 0.960 . S
H881 N861 0.862 . S
O882 Co850 1.920 . S
O882 C855 1.289 . S
C883 O875 1.258 . S
C883 O876 1.266 . S
Co884 O887 1.970 . S
Co884 N901 1.989 . S
Co884 O909 1.967 . S
Co884 O916 1.920 . S
Co885 O888 1.966 . S
Co885 N894 2.022 . S
Co885 N902 1.993 . S
Co885 O910 1.941 . S
C886 O887 1.258 . S
C886 O888 1.263 . S
O887 Co884 1.970 . S
O887 C886 1.258 . S
O888 Co885 1.966 . S
O888 C886 1.263 . S
C889 O890 1.235 . S
C889 O916 1.289 . S
O890 C889 1.235 . S
C891 C893 1.400 . S
C891 N894 1.351 . S
C891 C896 1.501 . S
C892 C893 1.387 . S
C892 N895 1.341 . S
C893 C891 1.400 . S
C893 C892 1.387 . S
N894 Co885 2.022 . S
N894 C891 1.351 . S
N894 N895 1.365 . S
N895 C892 1.341 . S
N895 N894 1.365 . S
N895 H915 0.862 . S
C896 C891 1.501 . S
C896 H897 0.961 . S
C896 H898 0.961 . S
C896 H899 0.960 . S
H897 C896 0.961 . S
H898 C896 0.961 . S
H899 C896 0.960 . S
C900 N901 1.342 . S
C900 C904 1.401 . S
C900 C905 1.499 . S
N901 Co884 1.989 . S
N901 C900 1.342 . S
N901 N902 1.388 . S
N902 Co885 1.993 . S
N902 N901 1.388 . S
N902 C903 1.346 . S
C903 N902 1.346 . S
C903 C904 1.396 . S
C903 C913 1.510 . S
C904 C900 1.401 . S
C904 C903 1.396 . S
C905 C900 1.499 . S
C905 H906 0.959 . S
C905 H907 0.960 . S
C905 H908 0.961 . S
H906 C905 0.959 . S
H907 C905 0.960 . S
H908 C905 0.961 . S
O909 Co884 1.967 . S
O909 C917 1.258 . S
O910 Co885 1.941 . S
O910 C917 1.266 . S
H911 C913 0.959 . S
H912 C913 0.961 . S
C913 C903 1.510 . S
C913 H911 0.959 . S
C913 H912 0.961 . S
C913 H914 0.960 . S
H914 C913 0.960 . S
H915 N895 0.862 . S
O916 Co884 1.920 . S
O916 C889 1.289 . S
C917 O909 1.258 . S
C917 O910 1.266 . S
Co918 O921 1.970 . S
Co918 N935 1.989 . S
Co918 O943 1.967 1_554 S
Co918 O950 1.920 . S
Co919 O922 1.966 . S
Co919 N928 2.022 . S
Co919 N936 1.993 . S
Co919 O944 1.941 1_554 S
C920 O921 1.258 . S
C920 O922 1.263 . S
O921 Co918 1.970 . S
O921 C920 1.258 . S
O922 Co919 1.966 . S
O922 C920 1.263 . S
C923 O924 1.235 . S
C923 O950 1.289 . S
O924 C923 1.235 . S
C925 C927 1.400 . S
C925 N928 1.351 . S
C925 C930 1.501 . S
C926 C927 1.387 . S
C926 N929 1.341 . S
C927 C925 1.400 . S
C927 C926 1.387 . S
N928 Co919 2.022 . S
N928 C925 1.351 . S
N928 N929 1.365 . S
N929 C926 1.341 . S
N929 N928 1.365 . S
N929 H949 0.862 . S
C930 C925 1.501 . S
C930 H931 0.961 . S
C930 H932 0.961 . S
C930 H933 0.960 . S
H931 C930 0.961 . S
H932 C930 0.961 . S
H933 C930 0.960 . S
C934 N935 1.342 . S
C934 C938 1.401 . S
C934 C939 1.499 . S
N935 Co918 1.989 . S
N935 C934 1.342 . S
N935 N936 1.388 . S
N936 Co919 1.993 . S
N936 N935 1.388 . S
N936 C937 1.346 . S
C937 N936 1.346 . S
C937 C938 1.396 . S
C937 C947 1.510 . S
C938 C934 1.401 . S
C938 C937 1.396 . S
C939 C934 1.499 . S
C939 H940 0.959 . S
C939 H941 0.960 . S
C939 H942 0.961 . S
H940 C939 0.959 . S
H941 C939 0.960 . S
H942 C939 0.961 . S
O943 Co918 1.967 1_556 S
O943 C951 1.258 . S
O944 Co919 1.941 1_556 S
O944 C951 1.266 . S
H945 C947 0.959 . S
H946 C947 0.961 . S
C947 C937 1.510 . S
C947 H945 0.959 . S
C947 H946 0.961 . S
C947 H948 0.960 . S
H948 C947 0.960 . S
H949 N929 0.862 . S
O950 Co918 1.920 . S
O950 C923 1.289 . S
C951 O943 1.258 . S
C951 O944 1.266 . S
Co952 O955 1.970 . S
Co952 N969 1.989 . S
Co952 O977 1.967 1_554 S
Co952 O984 1.920 . S
Co953 O956 1.966 . S
Co953 N962 2.022 . S
Co953 N970 1.993 . S
Co953 O978 1.941 1_554 S
C954 O955 1.258 . S
C954 O956 1.263 . S
O955 Co952 1.970 . S
O955 C954 1.258 . S
O956 Co953 1.966 . S
O956 C954 1.263 . S
C957 O958 1.235 . S
C957 O984 1.289 . S
O958 C957 1.235 . S
C959 C961 1.400 . S
C959 N962 1.351 . S
C959 C964 1.501 . S
C960 C961 1.387 . S
C960 N963 1.341 . S
C961 C959 1.400 . S
C961 C960 1.387 . S
N962 Co953 2.022 . S
N962 C959 1.351 . S
N962 N963 1.365 . S
N963 C960 1.341 . S
N963 N962 1.365 . S
N963 H983 0.862 . S
C964 C959 1.501 . S
C964 H965 0.961 . S
C964 H966 0.961 . S
C964 H967 0.960 . S
H965 C964 0.961 . S
H966 C964 0.961 . S
H967 C964 0.960 . S
C968 N969 1.342 . S
C968 C972 1.401 . S
C968 C973 1.499 . S
N969 Co952 1.989 . S
N969 C968 1.342 . S
N969 N970 1.388 . S
N970 Co953 1.993 . S
N970 N969 1.388 . S
N970 C971 1.346 . S
C971 N970 1.346 . S
C971 C972 1.396 . S
C971 C981 1.510 . S
C972 C968 1.401 . S
C972 C971 1.396 . S
C973 C968 1.499 . S
C973 H974 0.959 . S
C973 H975 0.960 . S
C973 H976 0.961 . S
H974 C973 0.959 . S
H975 C973 0.960 . S
H976 C973 0.961 . S
O977 Co952 1.967 1_556 S
O977 C985 1.258 . S
O978 Co953 1.941 1_556 S
O978 C985 1.266 . S
H979 C981 0.959 . S
H980 C981 0.961 . S
C981 C971 1.510 . S
C981 H979 0.959 . S
C981 H980 0.961 . S
C981 H982 0.960 . S
H982 C981 0.960 . S
H983 N963 0.862 . S
O984 Co952 1.920 . S
O984 C957 1.289 . S
C985 O977 1.258 . S
C985 O978 1.266 . S
Co986 O989 1.970 . S
Co986 N1003 1.989 . S
Co986 O1011 1.967 1_554 S
Co986 O1018 1.920 . S
Co987 O990 1.966 . S
Co987 N996 2.022 . S
Co987 N1004 1.993 . S
Co987 O1012 1.941 1_554 S
C988 O989 1.258 . S
C988 O990 1.263 . S
O989 Co986 1.970 . S
O989 C988 1.258 . S
O990 Co987 1.966 . S
O990 C988 1.263 . S
C991 O992 1.235 . S
C991 O1018 1.289 . S
O992 C991 1.235 . S
C993 C995 1.400 . S
C993 N996 1.351 . S
C993 C998 1.501 . S
C994 C995 1.387 . S
C994 N997 1.341 . S
C995 C993 1.400 . S
C995 C994 1.387 . S
N996 Co987 2.022 . S
N996 C993 1.351 . S
N996 N997 1.365 . S
N997 C994 1.341 . S
N997 N996 1.365 . S
N997 H1017 0.862 . S
C998 C993 1.501 . S
C998 H999 0.961 . S
C998 H1000 0.961 . S
C998 H1001 0.960 . S
H999 C998 0.961 . S
H1000 C998 0.961 . S
H1001 C998 0.960 . S
C1002 N1003 1.342 . S
C1002 C1006 1.401 . S
C1002 C1007 1.499 . S
N1003 Co986 1.989 . S
N1003 C1002 1.342 . S
N1003 N1004 1.388 . S
N1004 Co987 1.993 . S
N1004 N1003 1.388 . S
N1004 C1005 1.346 . S
C1005 N1004 1.346 . S
C1005 C1006 1.396 . S
C1005 C1015 1.510 . S
C1006 C1002 1.401 . S
C1006 C1005 1.396 . S
C1007 C1002 1.499 . S
C1007 H1008 0.959 . S
C1007 H1009 0.960 . S
C1007 H1010 0.961 . S
H1008 C1007 0.959 . S
H1009 C1007 0.960 . S
H1010 C1007 0.961 . S
O1011 Co986 1.967 1_556 S
O1011 C1019 1.258 . S
O1012 Co987 1.941 1_556 S
O1012 C1019 1.266 . S
H1013 C1015 0.959 . S
H1014 C1015 0.961 . S
C1015 C1005 1.510 . S
C1015 H1013 0.959 . S
C1015 H1014 0.961 . S
C1015 H1016 0.960 . S
H1016 C1015 0.960 . S
H1017 N997 0.862 . S
O1018 Co986 1.920 . S
O1018 C991 1.289 . S
C1019 O1011 1.258 . S
C1019 O1012 1.266 . S
Co1020 O1023 1.970 . S
Co1020 N1037 1.989 . S
Co1020 O1045 1.967 . S
Co1020 O1052 1.920 . S
Co1021 O1024 1.966 . S
Co1021 N1030 2.022 . S
Co1021 N1038 1.993 . S
Co1021 O1046 1.941 . S
C1022 O1023 1.258 . S
C1022 O1024 1.263 . S
O1023 Co1020 1.970 . S
O1023 C1022 1.258 . S
O1024 Co1021 1.966 . S
O1024 C1022 1.263 . S
C1025 O1026 1.235 . S
C1025 O1052 1.289 . S
O1026 C1025 1.235 . S
C1027 C1029 1.400 . S
C1027 N1030 1.351 . S
C1027 C1032 1.501 . S
C1028 C1029 1.387 . S
C1028 N1031 1.341 . S
C1029 C1027 1.400 . S
C1029 C1028 1.387 . S
N1030 Co1021 2.022 . S
N1030 C1027 1.351 . S
N1030 N1031 1.365 . S
N1031 C1028 1.341 . S
N1031 N1030 1.365 . S
N1031 H1051 0.862 . S
C1032 C1027 1.501 . S
C1032 H1033 0.961 . S
C1032 H1034 0.961 . S
C1032 H1035 0.960 . S
H1033 C1032 0.961 . S
H1034 C1032 0.961 . S
H1035 C1032 0.960 . S
C1036 N1037 1.342 . S
C1036 C1040 1.401 . S
C1036 C1041 1.499 . S
N1037 Co1020 1.989 . S
N1037 C1036 1.342 . S
N1037 N1038 1.388 . S
N1038 Co1021 1.993 . S
N1038 N1037 1.388 . S
N1038 C1039 1.346 . S
C1039 N1038 1.346 . S
C1039 C1040 1.396 . S
C1039 C1049 1.510 . S
C1040 C1036 1.401 . S
C1040 C1039 1.396 . S
C1041 C1036 1.499 . S
C1041 H1042 0.959 . S
C1041 H1043 0.960 . S
C1041 H1044 0.961 . S
H1042 C1041 0.959 . S
H1043 C1041 0.960 . S
H1044 C1041 0.961 . S
O1045 Co1020 1.967 . S
O1045 C1053 1.258 . S
O1046 Co1021 1.941 . S
O1046 C1053 1.266 . S
H1047 C1049 0.959 . S
H1048 C1049 0.961 . S
C1049 C1039 1.510 . S
C1049 H1047 0.959 . S
C1049 H1048 0.961 . S
C1049 H1050 0.960 . S
H1050 C1049 0.960 . S
H1051 N1031 0.862 . S
O1052 Co1020 1.920 . S
O1052 C1025 1.289 . S
C1053 O1045 1.258 . S
C1053 O1046 1.266 . S
Co1054 O1057 1.970 . S
Co1054 N1071 1.989 . S
Co1054 O1079 1.967 . S
Co1054 O1086 1.920 . S
Co1055 O1058 1.966 . S
Co1055 N1064 2.022 . S
Co1055 N1072 1.993 . S
Co1055 O1080 1.941 . S
C1056 O1057 1.258 . S
C1056 O1058 1.263 . S
O1057 Co1054 1.970 . S
O1057 C1056 1.258 . S
O1058 Co1055 1.966 . S
O1058 C1056 1.263 . S
C1059 O1060 1.235 . S
C1059 O1086 1.289 . S
O1060 C1059 1.235 . S
C1061 C1063 1.400 . S
C1061 N1064 1.351 . S
C1061 C1066 1.501 . S
C1062 C1063 1.387 . S
C1062 N1065 1.341 . S
C1063 C1061 1.400 . S
C1063 C1062 1.387 . S
N1064 Co1055 2.022 . S
N1064 C1061 1.351 . S
N1064 N1065 1.365 . S
N1065 C1062 1.341 . S
N1065 N1064 1.365 . S
N1065 H1085 0.862 . S
C1066 C1061 1.501 . S
C1066 H1067 0.961 . S
C1066 H1068 0.961 . S
C1066 H1069 0.960 . S
H1067 C1066 0.961 . S
H1068 C1066 0.961 . S
H1069 C1066 0.960 . S
C1070 N1071 1.342 . S
C1070 C1074 1.401 . S
C1070 C1075 1.499 . S
N1071 Co1054 1.989 . S
N1071 C1070 1.342 . S
N1071 N1072 1.388 . S
N1072 Co1055 1.993 . S
N1072 N1071 1.388 . S
N1072 C1073 1.346 . S
C1073 N1072 1.346 . S
C1073 C1074 1.396 . S
C1073 C1083 1.510 . S
C1074 C1070 1.401 . S
C1074 C1073 1.396 . S
C1075 C1070 1.499 . S
C1075 H1076 0.959 . S
C1075 H1077 0.960 . S
C1075 H1078 0.961 . S
H1076 C1075 0.959 . S
H1077 C1075 0.960 . S
H1078 C1075 0.961 . S
O1079 Co1054 1.967 . S
O1079 C1087 1.258 . S
O1080 Co1055 1.941 . S
O1080 C1087 1.266 . S
H1081 C1083 0.959 . S
H1082 C1083 0.961 . S
C1083 C1073 1.510 . S
C1083 H1081 0.959 . S
C1083 H1082 0.961 . S
C1083 H1084 0.960 . S
H1084 C1083 0.960 . S
H1085 N1065 0.862 . S
O1086 Co1054 1.920 . S
O1086 C1059 1.289 . S
C1087 O1079 1.258 . S
C1087 O1080 1.266 . S
Co1088 O1091 1.970 . S
Co1088 N1105 1.989 . S
Co1088 O1113 1.967 . S
Co1088 O1120 1.920 . S
Co1089 O1092 1.966 . S
Co1089 N1098 2.022 . S
Co1089 N1106 1.993 . S
Co1089 O1114 1.941 . S
C1090 O1091 1.258 . S
C1090 O1092 1.263 . S
O1091 Co1088 1.970 . S
O1091 C1090 1.258 . S
O1092 Co1089 1.966 . S
O1092 C1090 1.263 . S
C1093 O1094 1.235 . S
C1093 O1120 1.289 . S
O1094 C1093 1.235 . S
C1095 C1097 1.400 . S
C1095 N1098 1.351 . S
C1095 C1100 1.501 . S
C1096 C1097 1.387 . S
C1096 N1099 1.341 . S
C1097 C1095 1.400 . S
C1097 C1096 1.387 . S
N1098 Co1089 2.022 . S
N1098 C1095 1.351 . S
N1098 N1099 1.365 . S
N1099 C1096 1.341 . S
N1099 N1098 1.365 . S
N1099 H1119 0.862 . S
C1100 C1095 1.501 . S
C1100 H1101 0.961 . S
C1100 H1102 0.961 . S
C1100 H1103 0.960 . S
H1101 C1100 0.961 . S
H1102 C1100 0.961 . S
H1103 C1100 0.960 . S
C1104 N1105 1.342 . S
C1104 C1108 1.401 . S
C1104 C1109 1.499 . S
N1105 Co1088 1.989 . S
N1105 C1104 1.342 . S
N1105 N1106 1.388 . S
N1106 Co1089 1.993 . S
N1106 N1105 1.388 . S
N1106 C1107 1.346 . S
C1107 N1106 1.346 . S
C1107 C1108 1.396 . S
C1107 C1117 1.510 . S
C1108 C1104 1.401 . S
C1108 C1107 1.396 . S
C1109 C1104 1.499 . S
C1109 H1110 0.959 . S
C1109 H1111 0.960 . S
C1109 H1112 0.961 . S
H1110 C1109 0.959 . S
H1111 C1109 0.960 . S
H1112 C1109 0.961 . S
O1113 Co1088 1.967 . S
O1113 C1121 1.258 . S
O1114 Co1089 1.941 . S
O1114 C1121 1.266 . S
H1115 C1117 0.959 . S
H1116 C1117 0.961 . S
C1117 C1107 1.510 . S
C1117 H1115 0.959 . S
C1117 H1116 0.961 . S
C1117 H1118 0.960 . S
H1118 C1117 0.960 . S
H1119 N1099 0.862 . S
O1120 Co1088 1.920 . S
O1120 C1093 1.289 . S
C1121 O1113 1.258 . S
C1121 O1114 1.266 . S
Co1122 O1125 1.970 . S
Co1122 N1139 1.989 . S
Co1122 O1147 1.967 . S
Co1122 O1154 1.920 . S
Co1123 O1126 1.966 . S
Co1123 N1132 2.022 . S
Co1123 N1140 1.993 . S
Co1123 O1148 1.941 . S
C1124 O1125 1.258 . S
C1124 O1126 1.263 . S
O1125 Co1122 1.970 . S
O1125 C1124 1.258 . S
O1126 Co1123 1.966 . S
O1126 C1124 1.263 . S
C1127 O1128 1.235 . S
C1127 O1154 1.289 . S
O1128 C1127 1.235 . S
C1129 C1131 1.400 . S
C1129 N1132 1.351 . S
C1129 C1134 1.501 . S
C1130 C1131 1.387 . S
C1130 N1133 1.341 . S
C1131 C1129 1.400 . S
C1131 C1130 1.387 . S
N1132 Co1123 2.022 . S
N1132 C1129 1.351 . S
N1132 N1133 1.365 . S
N1133 C1130 1.341 . S
N1133 N1132 1.365 . S
N1133 H1153 0.862 . S
C1134 C1129 1.501 . S
C1134 H1135 0.961 . S
C1134 H1136 0.961 . S
C1134 H1137 0.960 . S
H1135 C1134 0.961 . S
H1136 C1134 0.961 . S
H1137 C1134 0.960 . S
C1138 N1139 1.342 . S
C1138 C1142 1.401 . S
C1138 C1143 1.499 . S
N1139 Co1122 1.989 . S
N1139 C1138 1.342 . S
N1139 N1140 1.388 . S
N1140 Co1123 1.993 . S
N1140 N1139 1.388 . S
N1140 C1141 1.346 . S
C1141 N1140 1.346 . S
C1141 C1142 1.396 . S
C1141 C1151 1.510 . S
C1142 C1138 1.401 . S
C1142 C1141 1.396 . S
C1143 C1138 1.499 . S
C1143 H1144 0.959 . S
C1143 H1145 0.960 . S
C1143 H1146 0.961 . S
H1144 C1143 0.959 . S
H1145 C1143 0.960 . S
H1146 C1143 0.961 . S
O1147 Co1122 1.967 . S
O1147 C1155 1.258 . S
O1148 Co1123 1.941 . S
O1148 C1155 1.266 . S
H1149 C1151 0.959 . S
H1150 C1151 0.961 . S
C1151 C1141 1.510 . S
C1151 H1149 0.959 . S
C1151 H1150 0.961 . S
C1151 H1152 0.960 . S
H1152 C1151 0.960 . S
H1153 N1133 0.862 . S
O1154 Co1122 1.920 . S
O1154 C1127 1.289 . S
C1155 O1147 1.258 . S
C1155 O1148 1.266 . S
Co1156 O1159 1.970 . S
Co1156 N1173 1.989 . S
Co1156 O1181 1.967 . S
Co1156 O1188 1.920 . S
Co1157 O1160 1.966 . S
Co1157 N1166 2.022 . S
Co1157 N1174 1.993 . S
Co1157 O1182 1.941 . S
C1158 O1159 1.258 . S
C1158 O1160 1.263 . S
O1159 Co1156 1.970 . S
O1159 C1158 1.258 . S
O1160 Co1157 1.966 . S
O1160 C1158 1.263 . S
C1161 O1162 1.235 . S
C1161 O1188 1.289 . S
O1162 C1161 1.235 . S
C1163 C1165 1.400 . S
C1163 N1166 1.351 . S
C1163 C1168 1.501 . S
C1164 C1165 1.387 . S
C1164 N1167 1.341 . S
C1165 C1163 1.400 . S
C1165 C1164 1.387 . S
N1166 Co1157 2.022 . S
N1166 C1163 1.351 . S
N1166 N1167 1.365 . S
N1167 C1164 1.341 . S
N1167 N1166 1.365 . S
N1167 H1187 0.862 . S
C1168 C1163 1.501 . S
C1168 H1169 0.961 . S
C1168 H1170 0.961 . S
C1168 H1171 0.960 . S
H1169 C1168 0.961 . S
H1170 C1168 0.961 . S
H1171 C1168 0.960 . S
C1172 N1173 1.342 . S
C1172 C1176 1.401 . S
C1172 C1177 1.499 . S
N1173 Co1156 1.989 . S
N1173 C1172 1.342 . S
N1173 N1174 1.388 . S
N1174 Co1157 1.993 . S
N1174 N1173 1.388 . S
N1174 C1175 1.346 . S
C1175 N1174 1.346 . S
C1175 C1176 1.396 . S
C1175 C1185 1.510 . S
C1176 C1172 1.401 . S
C1176 C1175 1.396 . S
C1177 C1172 1.499 . S
C1177 H1178 0.959 . S
C1177 H1179 0.960 . S
C1177 H1180 0.961 . S
H1178 C1177 0.959 . S
H1179 C1177 0.960 . S
H1180 C1177 0.961 . S
O1181 Co1156 1.967 . S
O1181 C1189 1.258 . S
O1182 Co1157 1.941 . S
O1182 C1189 1.266 . S
H1183 C1185 0.959 . S
H1184 C1185 0.961 . S
C1185 C1175 1.510 . S
C1185 H1183 0.959 . S
C1185 H1184 0.961 . S
C1185 H1186 0.960 . S
H1186 C1185 0.960 . S
H1187 N1167 0.862 . S
O1188 Co1156 1.920 . S
O1188 C1161 1.289 . S
C1189 O1181 1.258 . S
C1189 O1182 1.266 . S
Co1190 O1193 1.970 . S
Co1190 N1207 1.989 . S
Co1190 O1215 1.967 . S
Co1190 O1222 1.920 . S
Co1191 O1194 1.966 . S
Co1191 N1200 2.022 . S
Co1191 N1208 1.993 . S
Co1191 O1216 1.941 . S
C1192 O1193 1.258 . S
C1192 O1194 1.263 . S
O1193 Co1190 1.970 . S
O1193 C1192 1.258 . S
O1194 Co1191 1.966 . S
O1194 C1192 1.263 . S
C1195 O1196 1.235 . S
C1195 O1222 1.289 . S
O1196 C1195 1.235 . S
C1197 C1199 1.400 . S
C1197 N1200 1.351 . S
C1197 C1202 1.501 . S
C1198 C1199 1.387 . S
C1198 N1201 1.341 . S
C1199 C1197 1.400 . S
C1199 C1198 1.387 . S
N1200 Co1191 2.022 . S
N1200 C1197 1.351 . S
N1200 N1201 1.365 . S
N1201 C1198 1.341 . S
N1201 N1200 1.365 . S
N1201 H1221 0.862 . S
C1202 C1197 1.501 . S
C1202 H1203 0.961 . S
C1202 H1204 0.961 . S
C1202 H1205 0.960 . S
H1203 C1202 0.961 . S
H1204 C1202 0.961 . S
H1205 C1202 0.960 . S
C1206 N1207 1.342 . S
C1206 C1210 1.401 . S
C1206 C1211 1.499 . S
N1207 Co1190 1.989 . S
N1207 C1206 1.342 . S
N1207 N1208 1.388 . S
N1208 Co1191 1.993 . S
N1208 N1207 1.388 . S
N1208 C1209 1.346 . S
C1209 N1208 1.346 . S
C1209 C1210 1.396 . S
C1209 C1219 1.510 . S
C1210 C1206 1.401 . S
C1210 C1209 1.396 . S
C1211 C1206 1.499 . S
C1211 H1212 0.959 . S
C1211 H1213 0.960 . S
C1211 H1214 0.961 . S
H1212 C1211 0.959 . S
H1213 C1211 0.960 . S
H1214 C1211 0.961 . S
O1215 Co1190 1.967 . S
O1215 C1223 1.258 . S
O1216 Co1191 1.941 . S
O1216 C1223 1.266 . S
H1217 C1219 0.959 . S
H1218 C1219 0.961 . S
C1219 C1209 1.510 . S
C1219 H1217 0.959 . S
C1219 H1218 0.961 . S
C1219 H1220 0.960 . S
H1220 C1219 0.960 . S
H1221 N1201 0.862 . S
O1222 Co1190 1.920 . S
O1222 C1195 1.289 . S
C1223 O1215 1.258 . S
C1223 O1216 1.266 . S
C1224 C1225 1.349 . S
C1224 C1226 1.327 . S
C1224 H1249 0.950 . S
C1225 C1224 1.349 . S
C1225 C1241 1.349 . S
C1226 C1224 1.327 . S
C1226 C1245 1.429 . S
C1226 H1250 0.950 . S
C1227 C1244 1.574 . S
C1227 C1246 1.368 . S
C1227 H1251 0.949 . S
H1228 C1232 0.949 . S
C1229 C1230 1.349 . S
C1229 C1231 1.327 . S
C1229 H1252 0.950 . S
C1230 C1229 1.349 . S
C1230 C1242 1.349 . S
C1231 C1229 1.327 . S
C1231 C1247 1.429 . S
C1231 H1253 0.950 . S
C1232 H1228 0.949 . S
C1232 C1240 1.574 . S
C1232 C1248 1.368 . S
H1233 C1241 0.950 . S
H1234 C1239 0.950 . S
H1235 C1240 0.949 . S
H1236 C1242 0.950 . S
H1237 C1243 0.950 . S
H1238 C1244 0.949 . S
C1239 H1234 0.950 . S
C1239 C1241 1.327 . S
C1239 C1245 1.429 . S
C1240 C1232 1.574 . S
C1240 H1235 0.949 . S
C1240 C1246 1.368 . S
C1241 C1225 1.349 . S
C1241 H1233 0.950 . S
C1241 C1239 1.327 . S
C1242 C1230 1.349 . S
C1242 H1236 0.950 . S
C1242 C1243 1.327 . S
C1243 H1237 0.950 . S
C1243 C1242 1.327 . S
C1243 C1247 1.429 . S
C1244 C1227 1.574 . S
C1244 H1238 0.949 . S
C1244 C1248 1.368 . S
C1245 C1226 1.429 . S
C1245 C1239 1.429 . S
C1245 C1246 1.523 . S
C1246 C1227 1.368 . S
C1246 C1240 1.368 . S
C1246 C1245 1.523 . S
C1247 C1231 1.429 . S
C1247 C1243 1.429 . S
C1247 C1248 1.523 . S
C1248 C1232 1.368 . S
C1248 C1244 1.368 . S
C1248 C1247 1.523 . S
H1249 C1224 0.950 . S
H1250 C1226 0.950 . S
H1251 C1227 0.949 . S
H1252 C1229 0.950 . S
H1253 C1231 0.950 . S
C1254 C1255 1.349 . S
C1254 C1256 1.327 . S
C1254 H1279 0.950 . S
C1255 C1254 1.349 . S
C1255 C1271 1.349 . S
C1256 C1254 1.327 . S
C1256 C1275 1.429 . S
C1256 H1280 0.950 . S
C1257 C1274 1.574 . S
C1257 C1276 1.368 1_545 S
C1257 H1281 0.949 1_545 S
H1258 C1262 0.949 . S
C1259 C1260 1.349 . S
C1259 C1261 1.327 . S
C1259 H1282 0.950 . S
C1260 C1259 1.349 . S
C1260 C1272 1.349 . S
C1261 C1259 1.327 . S
C1261 C1277 1.429 . S
C1261 H1283 0.950 . S
C1262 H1258 0.949 . S
C1262 C1270 1.574 . S
C1262 C1278 1.368 . S
H1263 C1271 0.950 . S
H1264 C1269 0.950 . S
H1265 C1270 0.949 . S
H1266 C1272 0.950 . S
H1267 C1273 0.950 . S
H1268 C1274 0.949 . S
C1269 H1264 0.950 . S
C1269 C1271 1.327 . S
C1269 C1275 1.429 . S
C1270 C1262 1.574 . S
C1270 H1265 0.949 . S
C1270 C1276 1.368 1_545 S
C1271 C1255 1.349 . S
C1271 H1263 0.950 . S
C1271 C1269 1.327 . S
C1272 C1260 1.349 . S
C1272 H1266 0.950 . S
C1272 C1273 1.327 . S
C1273 H1267 0.950 . S
C1273 C1272 1.327 . S
C1273 C1277 1.429 . S
C1274 C1257 1.574 . S
C1274 H1268 0.949 . S
C1274 C1278 1.368 . S
C1275 C1256 1.429 . S
C1275 C1269 1.429 . S
C1275 C1276 1.523 . S
C1276 C1257 1.368 1_565 S
C1276 C1270 1.368 1_565 S
C1276 C1275 1.523 . S
C1277 C1261 1.429 . S
C1277 C1273 1.429 . S
C1277 C1278 1.523 . S
C1278 C1262 1.368 . S
C1278 C1274 1.368 . S
C1278 C1277 1.523 . S
H1279 C1254 0.950 . S
H1280 C1256 0.950 . S
H1281 C1257 0.949 1_565 S
H1282 C1259 0.950 . S
H1283 C1261 0.950 . S
C1284 C1285 1.349 . S
C1284 C1286 1.327 . S
C1284 H1309 0.950 . S
C1285 C1284 1.349 . S
C1285 C1301 1.349 . S
C1286 C1284 1.327 . S
C1286 C1305 1.429 . S
C1286 H1310 0.950 . S
C1287 C1304 1.574 . S
C1287 C1306 1.368 1_655 S
C1287 H1311 0.949 1_655 S
H1288 C1292 0.949 . S
C1289 C1290 1.349 . S
C1289 C1291 1.327 . S
C1289 H1312 0.950 . S
C1290 C1289 1.349 . S
C1290 C1302 1.349 . S
C1291 C1289 1.327 . S
C1291 C1307 1.429 . S
C1291 H1313 0.950 . S
C1292 H1288 0.949 . S
C1292 C1300 1.574 . S
C1292 C1308 1.368 . S
H1293 C1301 0.950 . S
H1294 C1299 0.950 . S
H1295 C1300 0.949 . S
H1296 C1302 0.950 . S
H1297 C1303 0.950 . S
H1298 C1304 0.949 . S
C1299 H1294 0.950 . S
C1299 C1301 1.327 . S
C1299 C1305 1.429 . S
C1300 C1292 1.574 . S
C1300 H1295 0.949 . S
C1300 C1306 1.368 1_655 S
C1301 C1285 1.349 . S
C1301 H1293 0.950 . S
C1301 C1299 1.327 . S
C1302 C1290 1.349 . S
C1302 H1296 0.950 . S
C1302 C1303 1.327 . S
C1303 H1297 0.950 . S
C1303 C1302 1.327 . S
C1303 C1307 1.429 . S
C1304 C1287 1.574 . S
C1304 H1298 0.949 . S
C1304 C1308 1.368 . S
C1305 C1286 1.429 . S
C1305 C1299 1.429 . S
C1305 C1306 1.523 . S
C1306 C1287 1.368 1_455 S
C1306 C1300 1.368 1_455 S
C1306 C1305 1.523 . S
C1307 C1291 1.429 . S
C1307 C1303 1.429 . S
C1307 C1308 1.523 . S
C1308 C1292 1.368 . S
C1308 C1304 1.368 . S
C1308 C1307 1.523 . S
H1309 C1284 0.950 . S
H1310 C1286 0.950 . S
H1311 C1287 0.949 1_455 S
H1312 C1289 0.950 . S
H1313 C1291 0.950 . S
C1314 C1315 1.349 . S
C1314 C1316 1.327 . S
C1314 H1339 0.950 . S
C1315 C1314 1.349 . S
C1315 C1331 1.349 . S
C1316 C1314 1.327 . S
C1316 C1335 1.429 . S
C1316 H1340 0.950 . S
C1317 C1334 1.574 . S
C1317 C1336 1.368 . S
C1317 H1341 0.949 . S
H1318 C1322 0.949 . S
C1319 C1320 1.349 . S
C1319 C1321 1.327 . S
C1319 H1342 0.950 . S
C1320 C1319 1.349 . S
C1320 C1332 1.349 . S
C1321 C1319 1.327 . S
C1321 C1337 1.429 . S
C1321 H1343 0.950 . S
C1322 H1318 0.949 . S
C1322 C1330 1.574 . S
C1322 C1338 1.368 . S
H1323 C1331 0.950 . S
H1324 C1329 0.950 . S
H1325 C1330 0.949 . S
H1326 C1332 0.950 . S
H1327 C1333 0.950 . S
H1328 C1334 0.949 . S
C1329 H1324 0.950 . S
C1329 C1331 1.327 . S
C1329 C1335 1.429 . S
C1330 C1322 1.574 . S
C1330 H1325 0.949 . S
C1330 C1336 1.368 . S
C1331 C1315 1.349 . S
C1331 H1323 0.950 . S
C1331 C1329 1.327 . S
C1332 C1320 1.349 . S
C1332 H1326 0.950 . S
C1332 C1333 1.327 . S
C1333 H1327 0.950 . S
C1333 C1332 1.327 . S
C1333 C1337 1.429 . S
C1334 C1317 1.574 . S
C1334 H1328 0.949 . S
C1334 C1338 1.368 . S
C1335 C1316 1.429 . S
C1335 C1329 1.429 . S
C1335 C1336 1.523 . S
C1336 C1317 1.368 . S
C1336 C1330 1.368 . S
C1336 C1335 1.523 . S
C1337 C1321 1.429 . S
C1337 C1333 1.429 . S
C1337 C1338 1.523 . S
C1338 C1322 1.368 . S
C1338 C1334 1.368 . S
C1338 C1337 1.523 . S
H1339 C1314 0.950 . S
H1340 C1316 0.950 . S
H1341 C1317 0.949 . S
H1342 C1319 0.950 . S
H1343 C1321 0.950 . S
C1344 C1345 1.349 . S
C1344 C1346 1.327 . S
C1344 H1369 0.950 . S
C1345 C1344 1.349 . S
C1345 C1361 1.349 . S
C1346 C1344 1.327 . S
C1346 C1365 1.429 . S
C1346 H1370 0.950 . S
C1347 C1364 1.574 . S
C1347 C1366 1.368 1_565 S
C1347 H1371 0.949 . S
H1348 C1352 0.949 . S
C1349 C1350 1.349 . S
C1349 C1351 1.327 . S
C1349 H1372 0.950 . S
C1350 C1349 1.349 . S
C1350 C1362 1.349 . S
C1351 C1349 1.327 . S
C1351 C1367 1.429 . S
C1351 H1373 0.950 . S
C1352 H1348 0.949 . S
C1352 C1360 1.629 . S
C1352 C1368 1.368 . S
H1353 C1361 0.950 . S
H1354 C1359 0.950 . S
H1355 C1360 0.929 1_545 S
H1356 C1362 0.950 . S
H1357 C1363 0.950 . S
H1358 C1364 0.949 . S
C1359 H1354 0.950 . S
C1359 C1361 1.327 . S
C1359 C1365 1.429 . S
C1360 C1352 1.629 . S
C1360 H1355 0.929 1_565 S
C1360 C1366 1.339 1_565 S
C1361 C1345 1.349 . S
C1361 H1353 0.950 . S
C1361 C1359 1.327 . S
C1362 C1350 1.349 . S
C1362 H1356 0.950 . S
C1362 C1363 1.327 . S
C1363 H1357 0.950 . S
C1363 C1362 1.327 . S
C1363 C1367 1.429 . S
C1364 C1347 1.574 . S
C1364 H1358 0.949 . S
C1364 C1368 1.368 . S
C1365 C1346 1.429 . S
C1365 C1359 1.429 . S
C1365 C1366 1.523 . S
C1366 C1347 1.368 1_545 S
C1366 C1360 1.339 1_545 S
C1366 C1365 1.523 . S
C1367 C1351 1.429 . S
C1367 C1363 1.429 . S
C1367 C1368 1.523 . S
C1368 C1352 1.368 . S
C1368 C1364 1.368 . S
C1368 C1367 1.523 . S
H1369 C1344 0.950 . S
H1370 C1346 0.950 . S
H1371 C1347 0.949 . S
H1372 C1349 0.950 . S
H1373 C1351 0.950 . S
C1374 C1375 1.349 . S
C1374 C1376 1.327 . S
C1374 H1399 0.950 . S
C1375 C1374 1.349 . S
C1375 C1391 1.349 . S
C1376 C1374 1.327 . S
C1376 C1395 1.429 . S
C1376 H1400 0.950 . S
C1377 C1394 1.574 . S
C1377 C1396 1.368 1_455 S
C1377 H1401 0.949 . S
H1378 C1382 0.949 . S
C1379 C1380 1.349 . S
C1379 C1381 1.327 . S
C1379 H1402 0.950 . S
C1380 C1379 1.349 . S
C1380 C1392 1.349 . S
C1381 C1379 1.327 . S
C1381 C1397 1.429 . S
C1381 H1403 0.950 . S
C1382 H1378 0.949 . S
C1382 C1390 1.574 . S
C1382 C1398 1.368 . S
H1383 C1391 0.950 . S
H1384 C1389 0.950 . S
H1385 C1390 0.949 1_655 S
H1386 C1392 0.950 . S
H1387 C1393 0.950 . S
H1388 C1394 0.949 . S
C1389 H1384 0.950 . S
C1389 C1391 1.327 . S
C1389 C1395 1.429 . S
C1390 C1382 1.574 . S
C1390 H1385 0.949 1_455 S
C1390 C1396 1.368 1_455 S
C1391 C1375 1.349 . S
C1391 H1383 0.950 . S
C1391 C1389 1.327 . S
C1392 C1380 1.349 . S
C1392 H1386 0.950 . S
C1392 C1393 1.327 . S
C1393 H1387 0.950 . S
C1393 C1392 1.327 . S
C1393 C1397 1.429 . S
C1394 C1377 1.574 . S
C1394 H1388 0.949 . S
C1394 C1398 1.368 . S
C1395 C1376 1.429 . S
C1395 C1389 1.429 . S
C1395 C1396 1.523 . S
C1396 C1377 1.368 1_655 S
C1396 C1390 1.368 1_655 S
C1396 C1395 1.523 . S
C1397 C1381 1.429 . S
C1397 C1393 1.429 . S
C1397 C1398 1.523 . S
C1398 C1382 1.368 . S
C1398 C1394 1.368 . S
C1398 C1397 1.523 . S
H1399 C1374 0.950 . S
H1400 C1376 0.950 . S
H1401 C1377 0.949 . S
H1402 C1379 0.950 . S
H1403 C1381 0.950 . S
C1404 C1405 1.349 . S
C1404 C1406 1.327 . S
C1404 H1429 0.950 . S
C1405 C1404 1.349 . S
C1405 C1421 1.349 . S
C1406 C1404 1.327 . S
C1406 C1425 1.429 . S
C1406 H1430 0.950 . S
C1407 C1424 1.574 . S
C1407 C1426 1.368 . S
C1407 H1431 0.949 . S
H1408 C1412 0.949 . S
C1409 C1410 1.349 . S
C1409 C1411 1.327 . S
C1409 H1432 0.950 . S
C1410 C1409 1.349 . S
C1410 C1422 1.349 . S
C1411 C1409 1.327 . S
C1411 C1427 1.429 . S
C1411 H1433 0.950 . S
C1412 H1408 0.949 . S
C1412 C1420 1.574 . S
C1412 C1428 1.368 . S
H1413 C1421 0.950 . S
H1414 C1419 0.950 . S
H1415 C1420 0.949 . S
H1416 C1422 0.950 . S
H1417 C1423 0.950 . S
H1418 C1424 0.949 . S
C1419 H1414 0.950 . S
C1419 C1421 1.327 . S
C1419 C1425 1.429 . S
C1420 C1412 1.574 . S
C1420 H1415 0.949 . S
C1420 C1426 1.368 . S
C1421 C1405 1.349 . S
C1421 H1413 0.950 . S
C1421 C1419 1.327 . S
C1422 C1410 1.349 . S
C1422 H1416 0.950 . S
C1422 C1423 1.327 . S
C1423 H1417 0.950 . S
C1423 C1422 1.327 . S
C1423 C1427 1.429 . S
C1424 C1407 1.574 . S
C1424 H1418 0.949 . S
C1424 C1428 1.368 . S
C1425 C1406 1.429 . S
C1425 C1419 1.429 . S
C1425 C1426 1.523 . S
C1426 C1407 1.368 . S
C1426 C1420 1.368 . S
C1426 C1425 1.523 . S
C1427 C1411 1.429 . S
C1427 C1423 1.429 . S
C1427 C1428 1.523 . S
C1428 C1412 1.368 . S
C1428 C1424 1.368 . S
C1428 C1427 1.523 . S
H1429 C1404 0.950 . S
H1430 C1406 0.950 . S
H1431 C1407 0.949 . S
H1432 C1409 0.950 . S
H1433 C1411 0.950 . S
C1434 C1435 1.349 . S
C1434 C1436 1.327 . S
C1434 H1459 0.950 . S
C1435 C1434 1.349 . S
C1435 C1451 1.349 . S
C1436 C1434 1.327 . S
C1436 C1455 1.429 . S
C1436 H1460 0.950 . S
C1437 C1454 1.574 . S
C1437 C1456 1.368 . S
C1437 H1461 0.949 . S
H1438 C1442 0.949 1_545 S
C1439 C1440 1.349 . S
C1439 C1441 1.327 . S
C1439 H1462 0.950 . S
C1440 C1439 1.349 . S
C1440 C1452 1.349 . S
C1441 C1439 1.327 . S
C1441 C1457 1.429 . S
C1441 H1463 0.950 . S
C1442 H1438 0.949 1_565 S
C1442 C1450 1.574 . S
C1442 C1458 1.368 1_565 S
H1443 C1451 0.950 . S
H1444 C1449 0.950 . S
H1445 C1450 0.949 . S
H1446 C1452 0.950 . S
H1447 C1453 0.950 . S
H1448 C1454 0.949 . S
C1449 H1444 0.950 . S
C1449 C1451 1.327 . S
C1449 C1455 1.429 . S
C1450 C1442 1.574 . S
C1450 H1445 0.949 . S
C1450 C1456 1.368 . S
C1451 C1435 1.349 . S
C1451 H1443 0.950 . S
C1451 C1449 1.327 . S
C1452 C1440 1.349 . S
C1452 H1446 0.950 . S
C1452 C1453 1.327 . S
C1453 H1447 0.950 . S
C1453 C1452 1.327 . S
C1453 C1457 1.429 . S
C1454 C1437 1.574 . S
C1454 H1448 0.949 . S
C1454 C1458 1.368 1_565 S
C1455 C1436 1.429 . S
C1455 C1449 1.429 . S
C1455 C1456 1.523 . S
C1456 C1437 1.368 . S
C1456 C1450 1.368 . S
C1456 C1455 1.523 . S
C1457 C1441 1.429 . S
C1457 C1453 1.429 . S
C1457 C1458 1.523 . S
C1458 C1442 1.368 1_545 S
C1458 C1454 1.368 1_545 S
C1458 C1457 1.523 . S
H1459 C1434 0.950 . S
H1460 C1436 0.950 . S
H1461 C1437 0.949 . S
H1462 C1439 0.950 . S
H1463 C1441 0.950 . S
C1464 C1465 1.349 . S
C1464 C1466 1.327 . S
C1464 H1489 0.950 . S
C1465 C1464 1.349 . S
C1465 C1481 1.349 . S
C1466 C1464 1.327 . S
C1466 C1485 1.429 . S
C1466 H1490 0.950 . S
C1467 C1484 1.628 . S
C1467 C1486 1.368 . S
C1467 H1491 0.949 . S
H1468 C1472 0.949 . S
C1469 C1470 1.349 . S
C1469 C1471 1.327 . S
C1469 H1492 0.950 . S
C1470 C1469 1.349 . S
C1470 C1482 1.349 . S
C1471 C1469 1.327 . S
C1471 C1487 1.429 . S
C1471 H1493 0.950 . S
C1472 H1468 0.949 . S
C1472 C1480 1.574 . S
C1472 C1488 1.368 1_455 S
H1473 C1481 0.950 . S
H1474 C1479 0.950 . S
H1475 C1480 0.949 . S
H1476 C1482 0.950 . S
H1477 C1483 0.950 . S
H1478 C1484 0.930 1_655 S
C1479 H1474 0.950 . S
C1479 C1481 1.327 . S
C1479 C1485 1.429 . S
C1480 C1472 1.574 . S
C1480 H1475 0.949 . S
C1480 C1486 1.368 . S
C1481 C1465 1.349 . S
C1481 H1473 0.950 . S
C1481 C1479 1.327 . S
C1482 C1470 1.349 . S
C1482 H1476 0.950 . S
C1482 C1483 1.327 . S
C1483 H1477 0.950 . S
C1483 C1482 1.327 . S
C1483 C1487 1.429 . S
C1484 C1467 1.628 . S
C1484 H1478 0.930 1_455 S
C1484 C1488 1.338 1_455 S
C1485 C1466 1.429 . S
C1485 C1479 1.429 . S
C1485 C1486 1.523 . S
C1486 C1467 1.368 . S
C1486 C1480 1.368 . S
C1486 C1485 1.523 . S
C1487 C1471 1.429 . S
C1487 C1483 1.429 . S
C1487 C1488 1.523 . S
C1488 C1472 1.368 1_655 S
C1488 C1484 1.338 1_655 S
C1488 C1487 1.523 . S
H1489 C1464 0.950 . S
H1490 C1466 0.950 . S
H1491 C1467 0.949 . S
H1492 C1469 0.950 . S
H1493 C1471 0.950 . S
C1494 C1495 1.349 . S
C1494 C1496 1.327 . S
C1494 H1519 0.950 . S
C1495 C1494 1.349 . S
C1495 C1511 1.349 . S
C1496 C1494 1.327 . S
C1496 C1515 1.429 . S
C1496 H1520 0.950 . S
C1497 C1514 1.574 . S
C1497 C1516 1.368 . S
C1497 H1521 0.949 . S
H1498 C1502 0.949 . S
C1499 C1500 1.349 . S
C1499 C1501 1.327 . S
C1499 H1522 0.950 . S
C1500 C1499 1.349 . S
C1500 C1512 1.349 . S
C1501 C1499 1.327 . S
C1501 C1517 1.429 . S
C1501 H1523 0.950 . S
C1502 H1498 0.949 . S
C1502 C1510 1.574 . S
C1502 C1518 1.368 . S
H1503 C1511 0.950 . S
H1504 C1509 0.950 . S
H1505 C1510 0.949 . S
H1506 C1512 0.950 . S
H1507 C1513 0.950 . S
H1508 C1514 0.949 . S
C1509 H1504 0.950 . S
C1509 C1511 1.327 . S
C1509 C1515 1.429 . S
C1510 C1502 1.574 . S
C1510 H1505 0.949 . S
C1510 C1516 1.368 . S
C1511 C1495 1.349 . S
C1511 H1503 0.950 . S
C1511 C1509 1.327 . S
C1512 C1500 1.349 . S
C1512 H1506 0.950 . S
C1512 C1513 1.327 . S
C1513 H1507 0.950 . S
C1513 C1512 1.327 . S
C1513 C1517 1.429 . S
C1514 C1497 1.574 . S
C1514 H1508 0.949 . S
C1514 C1518 1.368 . S
C1515 C1496 1.429 . S
C1515 C1509 1.429 . S
C1515 C1516 1.523 . S
C1516 C1497 1.368 . S
C1516 C1510 1.368 . S
C1516 C1515 1.523 . S
C1517 C1501 1.429 . S
C1517 C1513 1.429 . S
C1517 C1518 1.523 . S
C1518 C1502 1.368 . S
C1518 C1514 1.368 . S
C1518 C1517 1.523 . S
H1519 C1494 0.950 . S
H1520 C1496 0.950 . S
H1521 C1497 0.949 . S
H1522 C1499 0.950 . S
H1523 C1501 0.950 . S
C1524 C1525 1.349 . S
C1524 C1526 1.327 . S
C1524 H1549 0.950 . S
C1525 C1524 1.349 . S
C1525 C1541 1.349 . S
C1526 C1524 1.327 . S
C1526 C1545 1.429 . S
C1526 H1550 0.950 . S
C1527 C1544 1.574 . S
C1527 C1546 1.368 1_545 S
C1527 H1551 0.949 1_545 S
H1528 C1532 0.949 . S
C1529 C1530 1.349 . S
C1529 C1531 1.327 . S
C1529 H1552 0.950 . S
C1530 C1529 1.349 . S
C1530 C1542 1.349 . S
C1531 C1529 1.327 . S
C1531 C1547 1.429 . S
C1531 H1553 0.950 . S
C1532 H1528 0.949 . S
C1532 C1540 1.574 . S
C1532 C1548 1.368 . S
H1533 C1541 0.950 . S
H1534 C1539 0.950 . S
H1535 C1540 0.949 1_565 S
H1536 C1542 0.950 . S
H1537 C1543 0.950 . S
H1538 C1544 0.949 . S
C1539 H1534 0.950 . S
C1539 C1541 1.327 . S
C1539 C1545 1.429 . S
C1540 C1532 1.574 . S
C1540 H1535 0.949 1_545 S
C1540 C1546 1.368 1_545 S
C1541 C1525 1.349 . S
C1541 H1533 0.950 . S
C1541 C1539 1.327 . S
C1542 C1530 1.349 . S
C1542 H1536 0.950 . S
C1542 C1543 1.327 . S
C1543 H1537 0.950 . S
C1543 C1542 1.327 . S
C1543 C1547 1.429 . S
C1544 C1527 1.574 . S
C1544 H1538 0.949 . S
C1544 C1548 1.368 . S
C1545 C1526 1.429 . S
C1545 C1539 1.429 . S
C1545 C1546 1.523 . S
C1546 C1527 1.368 1_565 S
C1546 C1540 1.368 1_565 S
C1546 C1545 1.523 . S
C1547 C1531 1.429 . S
C1547 C1543 1.429 . S
C1547 C1548 1.523 . S
C1548 C1532 1.368 . S
C1548 C1544 1.368 . S
C1548 C1547 1.523 . S
H1549 C1524 0.950 . S
H1550 C1526 0.950 . S
H1551 C1527 0.949 1_565 S
H1552 C1529 0.950 . S
H1553 C1531 0.950 . S
C1554 C1555 1.349 . S
C1554 C1556 1.327 . S
C1554 H1579 0.950 . S
C1555 C1554 1.349 . S
C1555 C1571 1.349 . S
C1556 C1554 1.327 . S
C1556 C1575 1.429 . S
C1556 H1580 0.950 . S
C1557 C1574 1.574 . S
C1557 C1576 1.368 . S
C1557 H1581 0.949 . S
H1558 C1562 0.949 . S
C1559 C1560 1.349 . S
C1559 C1561 1.327 . S
C1559 H1582 0.950 . S
C1560 C1559 1.349 . S
C1560 C1572 1.349 . S
C1561 C1559 1.327 . S
C1561 C1577 1.429 . S
C1561 H1583 0.950 . S
C1562 H1558 0.949 . S
C1562 C1570 1.574 . S
C1562 C1578 1.368 1_655 S
H1563 C1571 0.950 . S
H1564 C1569 0.950 . S
H1565 C1570 0.949 . S
H1566 C1572 0.950 . S
H1567 C1573 0.950 . S
H1568 C1574 0.949 1_455 S
C1569 H1564 0.950 . S
C1569 C1571 1.327 . S
C1569 C1575 1.429 . S
C1570 C1562 1.574 . S
C1570 H1565 0.949 . S
C1570 C1576 1.368 . S
C1571 C1555 1.349 . S
C1571 H1563 0.950 . S
C1571 C1569 1.327 . S
C1572 C1560 1.349 . S
C1572 H1566 0.950 . S
C1572 C1573 1.327 . S
C1573 H1567 0.950 . S
C1573 C1572 1.327 . S
C1573 C1577 1.429 . S
C1574 C1557 1.574 . S
C1574 H1568 0.949 1_655 S
C1574 C1578 1.368 1_655 S
C1575 C1556 1.429 . S
C1575 C1569 1.429 . S
C1575 C1576 1.523 . S
C1576 C1557 1.368 . S
C1576 C1570 1.368 . S
C1576 C1575 1.523 . S
C1577 C1561 1.429 . S
C1577 C1573 1.429 . S
C1577 C1578 1.523 . S
C1578 C1562 1.368 1_455 S
C1578 C1574 1.368 1_455 S
C1578 C1577 1.523 . S
H1579 C1554 0.950 . S
H1580 C1556 0.950 . S
H1581 C1557 0.949 . S
H1582 C1559 0.950 . S
H1583 C1561 0.950 . S
C1584 C1585 1.349 . S
C1584 C1586 1.327 . S
C1584 H1609 0.950 . S
C1585 C1584 1.349 . S
C1585 C1601 1.349 . S
C1586 C1584 1.327 . S
C1586 C1605 1.429 . S
C1586 H1610 0.950 . S
C1587 C1604 1.574 . S
C1587 C1606 1.368 . S
C1587 H1611 0.949 . S
H1588 C1592 0.949 . S
C1589 C1590 1.349 . S
C1589 C1591 1.327 . S
C1589 H1612 0.950 . S
C1590 C1589 1.349 . S
C1590 C1602 1.349 . S
C1591 C1589 1.327 . S
C1591 C1607 1.429 . S
C1591 H1613 0.950 . S
C1592 H1588 0.949 . S
C1592 C1600 1.574 . S
C1592 C1608 1.368 . S
H1593 C1601 0.950 . S
H1594 C1599 0.950 . S
H1595 C1600 0.949 . S
H1596 C1602 0.950 . S
H1597 C1603 0.950 . S
H1598 C1604 0.949 . S
C1599 H1594 0.950 . S
C1599 C1601 1.327 . S
C1599 C1605 1.429 . S
C1600 C1592 1.574 . S
C1600 H1595 0.949 . S
C1600 C1606 1.368 . S
C1601 C1585 1.349 . S
C1601 H1593 0.950 . S
C1601 C1599 1.327 . S
C1602 C1590 1.349 . S
C1602 H1596 0.950 . S
C1602 C1603 1.327 . S
C1603 H1597 0.950 . S
C1603 C1602 1.327 . S
C1603 C1607 1.429 . S
C1604 C1587 1.574 . S
C1604 H1598 0.949 . S
C1604 C1608 1.368 . S
C1605 C1586 1.429 . S
C1605 C1599 1.429 . S
C1605 C1606 1.523 . S
C1606 C1587 1.368 . S
C1606 C1600 1.368 . S
C1606 C1605 1.523 . S
C1607 C1591 1.429 . S
C1607 C1603 1.429 . S
C1607 C1608 1.523 . S
C1608 C1592 1.368 . S
C1608 C1604 1.368 . S
C1608 C1607 1.523 . S
H1609 C1584 0.950 . S
H1610 C1586 0.950 . S
H1611 C1587 0.949 . S
H1612 C1589 0.950 . S
H1613 C1591 0.950 . S
C1614 C1615 1.349 . S
C1614 C1616 1.327 . S
C1614 H1639 0.950 . S
C1615 C1614 1.349 . S
C1615 C1631 1.349 . S
C1616 C1614 1.327 . S
C1616 C1635 1.429 . S
C1616 H1640 0.950 . S
C1617 C1634 1.574 . S
C1617 C1636 1.368 . S
C1617 H1641 0.949 . S
H1618 C1622 0.949 . S
C1619 C1620 1.349 . S
C1619 C1621 1.327 . S
C1619 H1642 0.950 . S
C1620 C1619 1.349 . S
C1620 C1632 1.349 . S
C1621 C1619 1.327 . S
C1621 C1637 1.429 . S
C1621 H1643 0.950 . S
C1622 H1618 0.949 . S
C1622 C1630 1.574 . S
C1622 C1638 1.368 . S
H1623 C1631 0.950 . S
H1624 C1629 0.950 . S
H1625 C1630 0.949 . S
H1626 C1632 0.950 . S
H1627 C1633 0.950 . S
H1628 C1634 0.949 . S
C1629 H1624 0.950 . S
C1629 C1631 1.327 . S
C1629 C1635 1.429 . S
C1630 C1622 1.574 . S
C1630 H1625 0.949 . S
C1630 C1636 1.368 . S
C1631 C1615 1.349 . S
C1631 H1623 0.950 . S
C1631 C1629 1.327 . S
C1632 C1620 1.349 . S
C1632 H1626 0.950 . S
C1632 C1633 1.327 . S
C1633 H1627 0.950 . S
C1633 C1632 1.327 . S
C1633 C1637 1.429 . S
C1634 C1617 1.574 . S
C1634 H1628 0.949 . S
C1634 C1638 1.368 . S
C1635 C1616 1.429 . S
C1635 C1629 1.429 . S
C1635 C1636 1.523 . S
C1636 C1617 1.368 . S
C1636 C1630 1.368 . S
C1636 C1635 1.523 . S
C1637 C1621 1.429 . S
C1637 C1633 1.429 . S
C1637 C1638 1.523 . S
C1638 C1622 1.368 . S
C1638 C1634 1.368 . S
C1638 C1637 1.523 . S
H1639 C1614 0.950 . S
H1640 C1616 0.950 . S
H1641 C1617 0.949 . S
H1642 C1619 0.950 . S
H1643 C1621 0.950 . S
C1644 C1645 1.349 . S
C1644 C1646 1.327 . S
C1644 H1669 0.950 . S
C1645 C1644 1.349 . S
C1645 C1661 1.349 . S
C1646 C1644 1.327 . S
C1646 C1665 1.429 . S
C1646 H1670 0.950 . S
C1647 C1664 1.574 . S
C1647 C1666 1.368 . S
C1647 H1671 0.949 . S
H1648 C1652 0.949 . S
C1649 C1650 1.349 . S
C1649 C1651 1.327 . S
C1649 H1672 0.950 . S
C1650 C1649 1.349 . S
C1650 C1662 1.349 . S
C1651 C1649 1.327 . S
C1651 C1667 1.429 . S
C1651 H1673 0.950 . S
C1652 H1648 0.949 . S
C1652 C1660 1.574 . S
C1652 C1668 1.368 . S
H1653 C1661 0.950 . S
H1654 C1659 0.950 . S
H1655 C1660 0.949 . S
H1656 C1662 0.950 . S
H1657 C1663 0.950 . S
H1658 C1664 0.949 . S
C1659 H1654 0.950 . S
C1659 C1661 1.327 . S
C1659 C1665 1.429 . S
C1660 C1652 1.574 . S
C1660 H1655 0.949 . S
C1660 C1666 1.368 . S
C1661 C1645 1.349 . S
C1661 H1653 0.950 . S
C1661 C1659 1.327 . S
C1662 C1650 1.349 . S
C1662 H1656 0.950 . S
C1662 C1663 1.327 . S
C1663 H1657 0.950 . S
C1663 C1662 1.327 . S
C1663 C1667 1.429 . S
C1664 C1647 1.574 . S
C1664 H1658 0.949 . S
C1664 C1668 1.368 . S
C1665 C1646 1.429 . S
C1665 C1659 1.429 . S
C1665 C1666 1.523 . S
C1666 C1647 1.368 . S
C1666 C1660 1.368 . S
C1666 C1665 1.523 . S
C1667 C1651 1.429 . S
C1667 C1663 1.429 . S
C1667 C1668 1.523 . S
C1668 C1652 1.368 . S
C1668 C1664 1.368 . S
C1668 C1667 1.523 . S
H1669 C1644 0.950 . S
H1670 C1646 0.950 . S
H1671 C1647 0.949 . S
H1672 C1649 0.950 . S
H1673 C1651 0.950 . S
C1674 C1675 1.349 . S
C1674 C1676 1.327 . S
C1674 H1699 0.950 . S
C1675 C1674 1.349 . S
C1675 C1691 1.349 . S
C1676 C1674 1.327 . S
C1676 C1695 1.429 . S
C1676 H1700 0.950 . S
C1677 C1694 1.574 . S
C1677 C1696 1.368 . S
C1677 H1701 0.949 . S
H1678 C1682 0.949 . S
C1679 C1680 1.349 . S
C1679 C1681 1.327 . S
C1679 H1702 0.950 . S
C1680 C1679 1.349 . S
C1680 C1692 1.349 . S
C1681 C1679 1.327 . S
C1681 C1697 1.429 . S
C1681 H1703 0.950 . S
C1682 H1678 0.949 . S
C1682 C1690 1.574 . S
C1682 C1698 1.368 . S
H1683 C1691 0.950 . S
H1684 C1689 0.950 . S
H1685 C1690 0.949 . S
H1686 C1692 0.950 . S
H1687 C1693 0.950 . S
H1688 C1694 0.949 . S
C1689 H1684 0.950 . S
C1689 C1691 1.327 . S
C1689 C1695 1.429 . S
C1690 C1682 1.574 . S
C1690 H1685 0.949 . S
C1690 C1696 1.368 . S
C1691 C1675 1.349 . S
C1691 H1683 0.950 . S
C1691 C1689 1.327 . S
C1692 C1680 1.349 . S
C1692 H1686 0.950 . S
C1692 C1693 1.327 . S
C1693 H1687 0.950 . S
C1693 C1692 1.327 . S
C1693 C1697 1.429 . S
C1694 C1677 1.574 . S
C1694 H1688 0.949 . S
C1694 C1698 1.368 . S
C1695 C1676 1.429 . S
C1695 C1689 1.429 . S
C1695 C1696 1.523 . S
C1696 C1677 1.368 . S
C1696 C1690 1.368 . S
C1696 C1695 1.523 . S
C1697 C1681 1.429 . S
C1697 C1693 1.429 . S
C1697 C1698 1.523 . S
C1698 C1682 1.368 . S
C1698 C1694 1.368 . S
C1698 C1697 1.523 . S
H1699 C1674 0.950 . S
H1700 C1676 0.950 . S
H1701 C1677 0.949 . S
H1702 C1679 0.950 . S
H1703 C1681 0.950 . S
C1704 C1705 1.349 . S
C1704 C1706 1.327 . S
C1704 H1729 0.950 . S
C1705 C1704 1.349 . S
C1705 C1721 1.349 . S
C1706 C1704 1.327 . S
C1706 C1725 1.429 . S
C1706 H1730 0.950 . S
C1707 C1724 1.574 . S
C1707 C1726 1.368 . S
C1707 H1731 0.949 . S
H1708 C1712 0.949 . S
C1709 C1710 1.349 . S
C1709 C1711 1.327 . S
C1709 H1732 0.950 . S
C1710 C1709 1.349 . S
C1710 C1722 1.349 . S
C1711 C1709 1.327 . S
C1711 C1727 1.429 . S
C1711 H1733 0.950 . S
C1712 H1708 0.949 . S
C1712 C1720 1.574 . S
C1712 C1728 1.368 . S
H1713 C1721 0.950 . S
H1714 C1719 0.950 . S
H1715 C1720 0.949 . S
H1716 C1722 0.950 . S
H1717 C1723 0.950 . S
H1718 C1724 0.949 . S
C1719 H1714 0.950 . S
C1719 C1721 1.327 . S
C1719 C1725 1.429 . S
C1720 C1712 1.574 . S
C1720 H1715 0.949 . S
C1720 C1726 1.368 . S
C1721 C1705 1.349 . S
C1721 H1713 0.950 . S
C1721 C1719 1.327 . S
C1722 C1710 1.349 . S
C1722 H1716 0.950 . S
C1722 C1723 1.327 . S
C1723 H1717 0.950 . S
C1723 C1722 1.327 . S
C1723 C1727 1.429 . S
C1724 C1707 1.574 . S
C1724 H1718 0.949 . S
C1724 C1728 1.368 . S
C1725 C1706 1.429 . S
C1725 C1719 1.429 . S
C1725 C1726 1.523 . S
C1726 C1707 1.368 . S
C1726 C1720 1.368 . S
C1726 C1725 1.523 . S
C1727 C1711 1.429 . S
C1727 C1723 1.429 . S
C1727 C1728 1.523 . S
C1728 C1712 1.368 . S
C1728 C1724 1.368 . S
C1728 C1727 1.523 . S
H1729 C1704 0.950 . S
H1730 C1706 0.950 . S
H1731 C1707 0.949 . S
H1732 C1709 0.950 . S
H1733 C1711 0.950 . S
C1734 C1735 1.349 . S
C1734 C1736 1.327 . S
C1734 H1759 0.950 . S
C1735 C1734 1.349 . S
C1735 C1751 1.349 . S
C1736 C1734 1.327 . S
C1736 C1755 1.429 . S
C1736 H1760 0.950 . S
C1737 C1754 1.574 . S
C1737 C1756 1.368 . S
C1737 H1761 0.949 . S
H1738 C1742 0.949 . S
C1739 C1740 1.349 . S
C1739 C1741 1.327 . S
C1739 H1762 0.950 . S
C1740 C1739 1.349 . S
C1740 C1752 1.349 . S
C1741 C1739 1.327 . S
C1741 C1757 1.429 . S
C1741 H1763 0.950 . S
C1742 H1738 0.949 . S
C1742 C1750 1.574 . S
C1742 C1758 1.368 . S
H1743 C1751 0.950 . S
H1744 C1749 0.950 . S
H1745 C1750 0.949 . S
H1746 C1752 0.950 . S
H1747 C1753 0.950 . S
H1748 C1754 0.949 . S
C1749 H1744 0.950 . S
C1749 C1751 1.327 . S
C1749 C1755 1.429 . S
C1750 C1742 1.574 . S
C1750 H1745 0.949 . S
C1750 C1756 1.368 . S
C1751 C1735 1.349 . S
C1751 H1743 0.950 . S
C1751 C1749 1.327 . S
C1752 C1740 1.349 . S
C1752 H1746 0.950 . S
C1752 C1753 1.327 . S
C1753 H1747 0.950 . S
C1753 C1752 1.327 . S
C1753 C1757 1.429 . S
C1754 C1737 1.574 . S
C1754 H1748 0.949 . S
C1754 C1758 1.368 . S
C1755 C1736 1.429 . S
C1755 C1749 1.429 . S
C1755 C1756 1.523 . S
C1756 C1737 1.368 . S
C1756 C1750 1.368 . S
C1756 C1755 1.523 . S
C1757 C1741 1.429 . S
C1757 C1753 1.429 . S
C1757 C1758 1.523 . S
C1758 C1742 1.368 . S
C1758 C1754 1.368 . S
C1758 C1757 1.523 . S
H1759 C1734 0.950 . S
H1760 C1736 0.950 . S
H1761 C1737 0.949 . S
H1762 C1739 0.950 . S
H1763 C1741 0.950 . S
C1764 C1765 1.349 . S
C1764 C1766 1.327 . S
C1764 H1789 0.950 . S
C1765 C1764 1.349 . S
C1765 C1781 1.349 . S
C1766 C1764 1.327 . S
C1766 C1785 1.429 . S
C1766 H1790 0.950 . S
C1767 C1784 1.574 . S
C1767 C1786 1.368 . S
C1767 H1791 0.949 . S
H1768 C1772 0.949 . S
C1769 C1770 1.349 . S
C1769 C1771 1.327 . S
C1769 H1792 0.950 . S
C1770 C1769 1.349 . S
C1770 C1782 1.349 . S
C1771 C1769 1.327 . S
C1771 C1787 1.429 . S
C1771 H1793 0.950 . S
C1772 H1768 0.949 . S
C1772 C1780 1.574 . S
C1772 C1788 1.368 . S
H1773 C1781 0.950 . S
H1774 C1779 0.950 . S
H1775 C1780 0.949 . S
H1776 C1782 0.950 . S
H1777 C1783 0.950 . S
H1778 C1784 0.949 . S
C1779 H1774 0.950 . S
C1779 C1781 1.327 . S
C1779 C1785 1.429 . S
C1780 C1772 1.574 . S
C1780 H1775 0.949 . S
C1780 C1786 1.368 . S
C1781 C1765 1.349 . S
C1781 H1773 0.950 . S
C1781 C1779 1.327 . S
C1782 C1770 1.349 . S
C1782 H1776 0.950 . S
C1782 C1783 1.327 . S
C1783 H1777 0.950 . S
C1783 C1782 1.327 . S
C1783 C1787 1.429 . S
C1784 C1767 1.574 . S
C1784 H1778 0.949 . S
C1784 C1788 1.368 . S
C1785 C1766 1.429 . S
C1785 C1779 1.429 . S
C1785 C1786 1.523 . S
C1786 C1767 1.368 . S
C1786 C1780 1.368 . S
C1786 C1785 1.523 . S
C1787 C1771 1.429 . S
C1787 C1783 1.429 . S
C1787 C1788 1.523 . S
C1788 C1772 1.368 . S
C1788 C1784 1.368 . S
C1788 C1787 1.523 . S
H1789 C1764 0.950 . S
H1790 C1766 0.950 . S
H1791 C1767 0.949 . S
H1792 C1769 0.950 . S
H1793 C1771 0.950 . S
C1794 C1795 1.349 . S
C1794 C1796 1.327 . S
C1794 H1819 0.950 . S
C1795 C1794 1.349 . S
C1795 C1811 1.349 . S
C1796 C1794 1.327 . S
C1796 C1815 1.429 . S
C1796 H1820 0.950 . S
C1797 C1814 1.574 . S
C1797 C1816 1.368 . S
C1797 H1821 0.949 . S
H1798 C1802 0.949 . S
C1799 C1800 1.349 . S
C1799 C1801 1.327 . S
C1799 H1822 0.950 . S
C1800 C1799 1.349 . S
C1800 C1812 1.349 . S
C1801 C1799 1.327 . S
C1801 C1817 1.429 . S
C1801 H1823 0.950 . S
C1802 H1798 0.949 . S
C1802 C1810 1.574 . S
C1802 C1818 1.368 . S
H1803 C1811 0.950 . S
H1804 C1809 0.950 . S
H1805 C1810 0.949 . S
H1806 C1812 0.950 . S
H1807 C1813 0.950 . S
H1808 C1814 0.949 . S
C1809 H1804 0.950 . S
C1809 C1811 1.327 . S
C1809 C1815 1.429 . S
C1810 C1802 1.574 . S
C1810 H1805 0.949 . S
C1810 C1816 1.368 . S
C1811 C1795 1.349 . S
C1811 H1803 0.950 . S
C1811 C1809 1.327 . S
C1812 C1800 1.349 . S
C1812 H1806 0.950 . S
C1812 C1813 1.327 . S
C1813 H1807 0.950 . S
C1813 C1812 1.327 . S
C1813 C1817 1.429 . S
C1814 C1797 1.574 . S
C1814 H1808 0.949 . S
C1814 C1818 1.368 . S
C1815 C1796 1.429 . S
C1815 C1809 1.429 . S
C1815 C1816 1.523 . S
C1816 C1797 1.368 . S
C1816 C1810 1.368 . S
C1816 C1815 1.523 . S
C1817 C1801 1.429 . S
C1817 C1813 1.429 . S
C1817 C1818 1.523 . S
C1818 C1802 1.368 . S
C1818 C1814 1.368 . S
C1818 C1817 1.523 . S
H1819 C1794 0.950 . S
H1820 C1796 0.950 . S
H1821 C1797 0.949 . S
H1822 C1799 0.950 . S
H1823 C1801 0.950 . S
C1824 C1825 1.349 . S
C1824 C1826 1.327 . S
C1824 H1849 0.950 . S
C1825 C1824 1.349 . S
C1825 C1841 1.349 . S
C1826 C1824 1.327 . S
C1826 C1845 1.429 . S
C1826 H1850 0.950 . S
C1827 C1844 1.574 . S
C1827 C1846 1.368 . S
C1827 H1851 0.949 . S
H1828 C1832 0.949 . S
C1829 C1830 1.349 . S
C1829 C1831 1.327 . S
C1829 H1852 0.950 . S
C1830 C1829 1.349 . S
C1830 C1842 1.349 . S
C1831 C1829 1.327 . S
C1831 C1847 1.429 . S
C1831 H1853 0.950 . S
C1832 H1828 0.949 . S
C1832 C1840 1.574 . S
C1832 C1848 1.368 . S
H1833 C1841 0.950 . S
H1834 C1839 0.950 . S
H1835 C1840 0.949 . S
H1836 C1842 0.950 . S
H1837 C1843 0.950 . S
H1838 C1844 0.949 . S
C1839 H1834 0.950 . S
C1839 C1841 1.327 . S
C1839 C1845 1.429 . S
C1840 C1832 1.574 . S
C1840 H1835 0.949 . S
C1840 C1846 1.368 . S
C1841 C1825 1.349 . S
C1841 H1833 0.950 . S
C1841 C1839 1.327 . S
C1842 C1830 1.349 . S
C1842 H1836 0.950 . S
C1842 C1843 1.327 . S
C1843 H1837 0.950 . S
C1843 C1842 1.327 . S
C1843 C1847 1.429 . S
C1844 C1827 1.574 . S
C1844 H1838 0.949 . S
C1844 C1848 1.368 . S
C1845 C1826 1.429 . S
C1845 C1839 1.429 . S
C1845 C1846 1.523 . S
C1846 C1827 1.368 . S
C1846 C1840 1.368 . S
C1846 C1845 1.523 . S
C1847 C1831 1.429 . S
C1847 C1843 1.429 . S
C1847 C1848 1.523 . S
C1848 C1832 1.368 . S
C1848 C1844 1.368 . S
C1848 C1847 1.523 . S
H1849 C1824 0.950 . S
H1850 C1826 0.950 . S
H1851 C1827 0.949 . S
H1852 C1829 0.950 . S
H1853 C1831 0.950 . S
C1854 C1855 1.349 . S
C1854 C1856 1.327 . S
C1854 H1879 0.950 . S
C1855 C1854 1.349 . S
C1855 C1871 1.349 . S
C1856 C1854 1.327 . S
C1856 C1875 1.429 . S
C1856 H1880 0.950 . S
C1857 C1874 1.574 . S
C1857 C1876 1.368 . S
C1857 H1881 0.949 . S
H1858 C1862 0.949 . S
C1859 C1860 1.349 . S
C1859 C1861 1.327 . S
C1859 H1882 0.950 . S
C1860 C1859 1.349 . S
C1860 C1872 1.349 . S
C1861 C1859 1.327 . S
C1861 C1877 1.429 . S
C1861 H1883 0.950 . S
C1862 H1858 0.949 . S
C1862 C1870 1.574 . S
C1862 C1878 1.368 . S
H1863 C1871 0.950 . S
H1864 C1869 0.950 . S
H1865 C1870 0.949 . S
H1866 C1872 0.950 . S
H1867 C1873 0.950 . S
H1868 C1874 0.949 . S
C1869 H1864 0.950 . S
C1869 C1871 1.327 . S
C1869 C1875 1.429 . S
C1870 C1862 1.574 . S
C1870 H1865 0.949 . S
C1870 C1876 1.368 . S
C1871 C1855 1.349 . S
C1871 H1863 0.950 . S
C1871 C1869 1.327 . S
C1872 C1860 1.349 . S
C1872 H1866 0.950 . S
C1872 C1873 1.327 . S
C1873 H1867 0.950 . S
C1873 C1872 1.327 . S
C1873 C1877 1.429 . S
C1874 C1857 1.574 . S
C1874 H1868 0.949 . S
C1874 C1878 1.368 . S
C1875 C1856 1.429 . S
C1875 C1869 1.429 . S
C1875 C1876 1.523 . S
C1876 C1857 1.368 . S
C1876 C1870 1.368 . S
C1876 C1875 1.523 . S
C1877 C1861 1.429 . S
C1877 C1873 1.429 . S
C1877 C1878 1.523 . S
C1878 C1862 1.368 . S
C1878 C1874 1.368 . S
C1878 C1877 1.523 . S
H1879 C1854 0.950 . S
H1880 C1856 0.950 . S
H1881 C1857 0.949 . S
H1882 C1859 0.950 . S
H1883 C1861 0.950 . S
C1884 C1885 1.349 . S
C1884 C1886 1.327 . S
C1884 H1909 0.950 . S
C1885 C1884 1.349 . S
C1885 C1901 1.349 . S
C1886 C1884 1.327 . S
C1886 C1905 1.429 . S
C1886 H1910 0.950 . S
C1887 C1904 1.574 . S
C1887 C1906 1.368 . S
C1887 H1911 0.949 . S
H1888 C1892 0.949 . S
C1889 C1890 1.349 . S
C1889 C1891 1.327 . S
C1889 H1912 0.950 . S
C1890 C1889 1.349 . S
C1890 C1902 1.349 . S
C1891 C1889 1.327 . S
C1891 C1907 1.429 . S
C1891 H1913 0.950 . S
C1892 H1888 0.949 . S
C1892 C1900 1.574 . S
C1892 C1908 1.368 . S
H1893 C1901 0.950 . S
H1894 C1899 0.950 . S
H1895 C1900 0.949 . S
H1896 C1902 0.950 . S
H1897 C1903 0.950 . S
H1898 C1904 0.949 . S
C1899 H1894 0.950 . S
C1899 C1901 1.327 . S
C1899 C1905 1.429 . S
C1900 C1892 1.574 . S
C1900 H1895 0.949 . S
C1900 C1906 1.368 . S
C1901 C1885 1.349 . S
C1901 H1893 0.950 . S
C1901 C1899 1.327 . S
C1902 C1890 1.349 . S
C1902 H1896 0.950 . S
C1902 C1903 1.327 . S
C1903 H1897 0.950 . S
C1903 C1902 1.327 . S
C1903 C1907 1.429 . S
C1904 C1887 1.574 . S
C1904 H1898 0.949 . S
C1904 C1908 1.368 . S
C1905 C1886 1.429 . S
C1905 C1899 1.429 . S
C1905 C1906 1.523 . S
C1906 C1887 1.368 . S
C1906 C1900 1.368 . S
C1906 C1905 1.523 . S
C1907 C1891 1.429 . S
C1907 C1903 1.429 . S
C1907 C1908 1.523 . S
C1908 C1892 1.368 . S
C1908 C1904 1.368 . S
C1908 C1907 1.523 . S
H1909 C1884 0.950 . S
H1910 C1886 0.950 . S
H1911 C1887 0.949 . S
H1912 C1889 0.950 . S
H1913 C1891 0.950 . S
C1914 C1915 1.349 . S
C1914 C1916 1.327 . S
C1914 H1939 0.950 . S
C1915 C1914 1.349 . S
C1915 C1931 1.349 . S
C1916 C1914 1.327 . S
C1916 C1935 1.429 . S
C1916 H1940 0.950 . S
C1917 C1934 1.574 . S
C1917 C1936 1.368 . S
C1917 H1941 0.949 . S
H1918 C1922 0.949 . S
C1919 C1920 1.349 . S
C1919 C1921 1.327 . S
C1919 H1942 0.950 . S
C1920 C1919 1.349 . S
C1920 C1932 1.349 . S
C1921 C1919 1.327 . S
C1921 C1937 1.429 . S
C1921 H1943 0.950 . S
C1922 H1918 0.949 . S
C1922 C1930 1.574 . S
C1922 C1938 1.368 . S
H1923 C1931 0.950 . S
H1924 C1929 0.950 . S
H1925 C1930 0.949 . S
H1926 C1932 0.950 . S
H1927 C1933 0.950 . S
H1928 C1934 0.949 . S
C1929 H1924 0.950 . S
C1929 C1931 1.327 . S
C1929 C1935 1.429 . S
C1930 C1922 1.574 . S
C1930 H1925 0.949 . S
C1930 C1936 1.368 . S
C1931 C1915 1.349 . S
C1931 H1923 0.950 . S
C1931 C1929 1.327 . S
C1932 C1920 1.349 . S
C1932 H1926 0.950 . S
C1932 C1933 1.327 . S
C1933 H1927 0.950 . S
C1933 C1932 1.327 . S
C1933 C1937 1.429 . S
C1934 C1917 1.574 . S
C1934 H1928 0.949 . S
C1934 C1938 1.368 . S
C1935 C1916 1.429 . S
C1935 C1929 1.429 . S
C1935 C1936 1.523 . S
C1936 C1917 1.368 . S
C1936 C1930 1.368 . S
C1936 C1935 1.523 . S
C1937 C1921 1.429 . S
C1937 C1933 1.429 . S
C1937 C1938 1.523 . S
C1938 C1922 1.368 . S
C1938 C1934 1.368 . S
C1938 C1937 1.523 . S
H1939 C1914 0.950 . S
H1940 C1916 0.950 . S
H1941 C1917 0.949 . S
H1942 C1919 0.950 . S
H1943 C1921 0.950 . S
C1944 C1945 1.349 . S
C1944 C1946 1.327 . S
C1944 H1969 0.950 . S
C1945 C1944 1.349 . S
C1945 C1961 1.349 . S
C1946 C1944 1.327 . S
C1946 C1965 1.429 . S
C1946 H1970 0.950 . S
C1947 C1964 1.574 . S
C1947 C1966 1.368 . S
C1947 H1971 0.949 . S
H1948 C1952 0.949 . S
C1949 C1950 1.349 . S
C1949 C1951 1.327 . S
C1949 H1972 0.950 . S
C1950 C1949 1.349 . S
C1950 C1962 1.349 . S
C1951 C1949 1.327 . S
C1951 C1967 1.429 . S
C1951 H1973 0.950 . S
C1952 H1948 0.949 . S
C1952 C1960 1.574 . S
C1952 C1968 1.368 . S
H1953 C1961 0.950 . S
H1954 C1959 0.950 . S
H1955 C1960 0.949 . S
H1956 C1962 0.950 . S
H1957 C1963 0.950 . S
H1958 C1964 0.949 . S
C1959 H1954 0.950 . S
C1959 C1961 1.327 . S
C1959 C1965 1.429 . S
C1960 C1952 1.574 . S
C1960 H1955 0.949 . S
C1960 C1966 1.368 . S
C1961 C1945 1.349 . S
C1961 H1953 0.950 . S
C1961 C1959 1.327 . S
C1962 C1950 1.349 . S
C1962 H1956 0.950 . S
C1962 C1963 1.327 . S
C1963 H1957 0.950 . S
C1963 C1962 1.327 . S
C1963 C1967 1.429 . S
C1964 C1947 1.574 . S
C1964 H1958 0.949 . S
C1964 C1968 1.368 . S
C1965 C1946 1.429 . S
C1965 C1959 1.429 . S
C1965 C1966 1.523 . S
C1966 C1947 1.368 . S
C1966 C1960 1.368 . S
C1966 C1965 1.523 . S
C1967 C1951 1.429 . S
C1967 C1963 1.429 . S
C1967 C1968 1.523 . S
C1968 C1952 1.368 . S
C1968 C1964 1.368 . S
C1968 C1967 1.523 . S
H1969 C1944 0.950 . S
H1970 C1946 0.950 . S
H1971 C1947 0.949 . S
H1972 C1949 0.950 . S
H1973 C1951 0.950 . S
C1974 C1975 1.349 . S
C1974 C1976 1.327 . S
C1974 H1999 0.950 . S
C1975 C1974 1.349 . S
C1975 C1991 1.349 . S
C1976 C1974 1.327 . S
C1976 C1995 1.429 . S
C1976 H2000 0.950 . S
C1977 C1994 1.574 . S
C1977 C1996 1.368 . S
C1977 H2001 0.949 . S
H1978 C1982 0.949 . S
C1979 C1980 1.349 . S
C1979 C1981 1.327 . S
C1979 H2002 0.950 . S
C1980 C1979 1.349 . S
C1980 C1992 1.349 . S
C1981 C1979 1.327 . S
C1981 C1997 1.429 . S
C1981 H2003 0.950 . S
C1982 H1978 0.949 . S
C1982 C1990 1.574 . S
C1982 C1998 1.368 . S
H1983 C1991 0.950 . S
H1984 C1989 0.950 . S
H1985 C1990 0.949 . S
H1986 C1992 0.950 . S
H1987 C1993 0.950 . S
H1988 C1994 0.949 . S
C1989 H1984 0.950 . S
C1989 C1991 1.327 . S
C1989 C1995 1.429 . S
C1990 C1982 1.574 . S
C1990 H1985 0.949 . S
C1990 C1996 1.368 . S
C1991 C1975 1.349 . S
C1991 H1983 0.950 . S
C1991 C1989 1.327 . S
C1992 C1980 1.349 . S
C1992 H1986 0.950 . S
C1992 C1993 1.327 . S
C1993 H1987 0.950 . S
C1993 C1992 1.327 . S
C1993 C1997 1.429 . S
C1994 C1977 1.574 . S
C1994 H1988 0.949 . S
C1994 C1998 1.368 . S
C1995 C1976 1.429 . S
C1995 C1989 1.429 . S
C1995 C1996 1.523 . S
C1996 C1977 1.368 . S
C1996 C1990 1.368 . S
C1996 C1995 1.523 . S
C1997 C1981 1.429 . S
C1997 C1993 1.429 . S
C1997 C1998 1.523 . S
C1998 C1982 1.368 . S
C1998 C1994 1.368 . S
C1998 C1997 1.523 . S
H1999 C1974 0.950 . S
H2000 C1976 0.950 . S
H2001 C1977 0.949 . S
H2002 C1979 0.950 . S
H2003 C1981 0.950 . S
C2004 C2005 1.349 . S
C2004 C2006 1.327 . S
C2004 H2029 0.950 . S
C2005 C2004 1.349 . S
C2005 C2021 1.349 . S
C2006 C2004 1.327 . S
C2006 C2025 1.429 . S
C2006 H2030 0.950 . S
C2007 C2024 1.574 . S
C2007 C2026 1.368 . S
C2007 H2031 0.949 . S
H2008 C2012 0.949 . S
C2009 C2010 1.349 . S
C2009 C2011 1.327 . S
C2009 H2032 0.950 . S
C2010 C2009 1.349 . S
C2010 C2022 1.349 . S
C2011 C2009 1.327 . S
C2011 C2027 1.429 . S
C2011 H2033 0.950 . S
C2012 H2008 0.949 . S
C2012 C2020 1.574 . S
C2012 C2028 1.368 . S
H2013 C2021 0.950 . S
H2014 C2019 0.950 . S
H2015 C2020 0.949 . S
H2016 C2022 0.950 . S
H2017 C2023 0.950 . S
H2018 C2024 0.949 . S
C2019 H2014 0.950 . S
C2019 C2021 1.327 . S
C2019 C2025 1.429 . S
C2020 C2012 1.574 . S
C2020 H2015 0.949 . S
C2020 C2026 1.368 . S
C2021 C2005 1.349 . S
C2021 H2013 0.950 . S
C2021 C2019 1.327 . S
C2022 C2010 1.349 . S
C2022 H2016 0.950 . S
C2022 C2023 1.327 . S
C2023 H2017 0.950 . S
C2023 C2022 1.327 . S
C2023 C2027 1.429 . S
C2024 C2007 1.574 . S
C2024 H2018 0.949 . S
C2024 C2028 1.368 . S
C2025 C2006 1.429 . S
C2025 C2019 1.429 . S
C2025 C2026 1.523 . S
C2026 C2007 1.368 . S
C2026 C2020 1.368 . S
C2026 C2025 1.523 . S
C2027 C2011 1.429 . S
C2027 C2023 1.429 . S
C2027 C2028 1.523 . S
C2028 C2012 1.368 . S
C2028 C2024 1.368 . S
C2028 C2027 1.523 . S
H2029 C2004 0.950 . S
H2030 C2006 0.950 . S
H2031 C2007 0.949 . S
H2032 C2009 0.950 . S
H2033 C2011 0.950 . S
C2034 C2035 1.349 . S
C2034 C2036 1.327 . S
C2034 H2059 0.950 . S
C2035 C2034 1.349 . S
C2035 C2051 1.349 . S
C2036 C2034 1.327 . S
C2036 C2055 1.429 . S
C2036 H2060 0.950 . S
C2037 C2054 1.574 . S
C2037 C2056 1.368 . S
C2037 H2061 0.949 . S
H2038 C2042 0.949 . S
C2039 C2040 1.349 . S
C2039 C2041 1.327 . S
C2039 H2062 0.950 . S
C2040 C2039 1.349 . S
C2040 C2052 1.349 . S
C2041 C2039 1.327 . S
C2041 C2057 1.429 . S
C2041 H2063 0.950 . S
C2042 H2038 0.949 . S
C2042 C2050 1.574 . S
C2042 C2058 1.368 . S
H2043 C2051 0.950 . S
H2044 C2049 0.950 . S
H2045 C2050 0.949 . S
H2046 C2052 0.950 . S
H2047 C2053 0.950 . S
H2048 C2054 0.949 . S
C2049 H2044 0.950 . S
C2049 C2051 1.327 . S
C2049 C2055 1.429 . S
C2050 C2042 1.574 . S
C2050 H2045 0.949 . S
C2050 C2056 1.368 . S
C2051 C2035 1.349 . S
C2051 H2043 0.950 . S
C2051 C2049 1.327 . S
C2052 C2040 1.349 . S
C2052 H2046 0.950 . S
C2052 C2053 1.327 . S
C2053 H2047 0.950 . S
C2053 C2052 1.327 . S
C2053 C2057 1.429 . S
C2054 C2037 1.574 . S
C2054 H2048 0.949 . S
C2054 C2058 1.368 . S
C2055 C2036 1.429 . S
C2055 C2049 1.429 . S
C2055 C2056 1.523 . S
C2056 C2037 1.368 . S
C2056 C2050 1.368 . S
C2056 C2055 1.523 . S
C2057 C2041 1.429 . S
C2057 C2053 1.429 . S
C2057 C2058 1.523 . S
C2058 C2042 1.368 . S
C2058 C2054 1.368 . S
C2058 C2057 1.523 . S
H2059 C2034 0.950 . S
H2060 C2036 0.950 . S
H2061 C2037 0.949 . S
H2062 C2039 0.950 . S
H2063 C2041 0.950 . S
C2064 C2065 1.349 . S
C2064 C2066 1.327 . S
C2064 H2089 0.950 . S
C2065 C2064 1.349 . S
C2065 C2081 1.349 . S
C2066 C2064 1.327 . S
C2066 C2085 1.429 . S
C2066 H2090 0.950 . S
C2067 C2084 1.574 . S
C2067 C2086 1.368 . S
C2067 H2091 0.949 . S
H2068 C2072 0.949 . S
C2069 C2070 1.349 . S
C2069 C2071 1.327 . S
C2069 H2092 0.950 . S
C2070 C2069 1.349 . S
C2070 C2082 1.349 . S
C2071 C2069 1.327 . S
C2071 C2087 1.429 . S
C2071 H2093 0.950 . S
C2072 H2068 0.949 . S
C2072 C2080 1.574 . S
C2072 C2088 1.368 . S
H2073 C2081 0.950 . S
H2074 C2079 0.950 . S
H2075 C2080 0.949 . S
H2076 C2082 0.950 . S
H2077 C2083 0.950 . S
H2078 C2084 0.949 . S
C2079 H2074 0.950 . S
C2079 C2081 1.327 . S
C2079 C2085 1.429 . S
C2080 C2072 1.574 . S
C2080 H2075 0.949 . S
C2080 C2086 1.368 . S
C2081 C2065 1.349 . S
C2081 H2073 0.950 . S
C2081 C2079 1.327 . S
C2082 C2070 1.349 . S
C2082 H2076 0.950 . S
C2082 C2083 1.327 . S
C2083 H2077 0.950 . S
C2083 C2082 1.327 . S
C2083 C2087 1.429 . S
C2084 C2067 1.574 . S
C2084 H2078 0.949 . S
C2084 C2088 1.368 . S
C2085 C2066 1.429 . S
C2085 C2079 1.429 . S
C2085 C2086 1.523 . S
C2086 C2067 1.368 . S
C2086 C2080 1.368 . S
C2086 C2085 1.523 . S
C2087 C2071 1.429 . S
C2087 C2083 1.429 . S
C2087 C2088 1.523 . S
C2088 C2072 1.368 . S
C2088 C2084 1.368 . S
C2088 C2087 1.523 . S
H2089 C2064 0.950 . S
H2090 C2066 0.950 . S
H2091 C2067 0.949 . S
H2092 C2069 0.950 . S
H2093 C2071 0.950 . S
C2094 C2095 1.349 . S
C2094 C2096 1.327 . S
C2094 H2119 0.950 . S
C2095 C2094 1.349 . S
C2095 C2111 1.349 . S
C2096 C2094 1.327 . S
C2096 C2115 1.429 . S
C2096 H2120 0.950 . S
C2097 C2114 1.574 . S
C2097 C2116 1.368 . S
C2097 H2121 0.949 . S
H2098 C2102 0.949 . S
C2099 C2100 1.349 . S
C2099 C2101 1.327 . S
C2099 H2122 0.950 . S
C2100 C2099 1.349 . S
C2100 C2112 1.349 . S
C2101 C2099 1.327 . S
C2101 C2117 1.429 . S
C2101 H2123 0.950 . S
C2102 H2098 0.949 . S
C2102 C2110 1.574 . S
C2102 C2118 1.368 . S
H2103 C2111 0.950 . S
H2104 C2109 0.950 . S
H2105 C2110 0.949 . S
H2106 C2112 0.950 . S
H2107 C2113 0.950 . S
H2108 C2114 0.949 . S
C2109 H2104 0.950 . S
C2109 C2111 1.327 . S
C2109 C2115 1.429 . S
C2110 C2102 1.574 . S
C2110 H2105 0.949 . S
C2110 C2116 1.368 . S
C2111 C2095 1.349 . S
C2111 H2103 0.950 . S
C2111 C2109 1.327 . S
C2112 C2100 1.349 . S
C2112 H2106 0.950 . S
C2112 C2113 1.327 . S
C2113 H2107 0.950 . S
C2113 C2112 1.327 . S
C2113 C2117 1.429 . S
C2114 C2097 1.574 . S
C2114 H2108 0.949 . S
C2114 C2118 1.368 . S
C2115 C2096 1.429 . S
C2115 C2109 1.429 . S
C2115 C2116 1.523 . S
C2116 C2097 1.368 . S
C2116 C2110 1.368 . S
C2116 C2115 1.523 . S
C2117 C2101 1.429 . S
C2117 C2113 1.429 . S
C2117 C2118 1.523 . S
C2118 C2102 1.368 . S
C2118 C2114 1.368 . S
C2118 C2117 1.523 . S
H2119 C2094 0.950 . S
H2120 C2096 0.950 . S
H2121 C2097 0.949 . S
H2122 C2099 0.950 . S
H2123 C2101 0.950 . S
C2124 C2125 1.349 . S
C2124 C2126 1.327 . S
C2124 H2149 0.950 . S
C2125 C2124 1.349 . S
C2125 C2141 1.349 . S
C2126 C2124 1.327 . S
C2126 C2145 1.429 . S
C2126 H2150 0.950 . S
C2127 C2144 1.574 . S
C2127 C2146 1.368 . S
C2127 H2151 0.949 . S
H2128 C2132 0.949 . S
C2129 C2130 1.349 . S
C2129 C2131 1.327 . S
C2129 H2152 0.950 . S
C2130 C2129 1.349 . S
C2130 C2142 1.349 . S
C2131 C2129 1.327 . S
C2131 C2147 1.429 . S
C2131 H2153 0.950 . S
C2132 H2128 0.949 . S
C2132 C2140 1.574 . S
C2132 C2148 1.368 . S
H2133 C2141 0.950 . S
H2134 C2139 0.950 . S
H2135 C2140 0.949 . S
H2136 C2142 0.950 . S
H2137 C2143 0.950 . S
H2138 C2144 0.949 . S
C2139 H2134 0.950 . S
C2139 C2141 1.327 . S
C2139 C2145 1.429 . S
C2140 C2132 1.574 . S
C2140 H2135 0.949 . S
C2140 C2146 1.368 . S
C2141 C2125 1.349 . S
C2141 H2133 0.950 . S
C2141 C2139 1.327 . S
C2142 C2130 1.349 . S
C2142 H2136 0.950 . S
C2142 C2143 1.327 . S
C2143 H2137 0.950 . S
C2143 C2142 1.327 . S
C2143 C2147 1.429 . S
C2144 C2127 1.574 . S
C2144 H2138 0.949 . S
C2144 C2148 1.368 . S
C2145 C2126 1.429 . S
C2145 C2139 1.429 . S
C2145 C2146 1.523 . S
C2146 C2127 1.368 . S
C2146 C2140 1.368 . S
C2146 C2145 1.523 . S
C2147 C2131 1.429 . S
C2147 C2143 1.429 . S
C2147 C2148 1.523 . S
C2148 C2132 1.368 . S
C2148 C2144 1.368 . S
C2148 C2147 1.523 . S
H2149 C2124 0.950 . S
H2150 C2126 0.950 . S
H2151 C2127 0.949 . S
H2152 C2129 0.950 . S
H2153 C2131 0.950 . S
C2154 C2155 1.349 . S
C2154 C2156 1.327 . S
C2154 H2179 0.950 . S
C2155 C2154 1.349 . S
C2155 C2171 1.349 . S
C2156 C2154 1.327 . S
C2156 C2175 1.429 . S
C2156 H2180 0.950 . S
C2157 C2174 1.574 . S
C2157 C2176 1.368 . S
C2157 H2181 0.949 . S
H2158 C2162 0.949 . S
C2159 C2160 1.349 . S
C2159 C2161 1.327 . S
C2159 H2182 0.950 . S
C2160 C2159 1.349 . S
C2160 C2172 1.349 . S
C2161 C2159 1.327 . S
C2161 C2177 1.429 . S
C2161 H2183 0.950 . S
C2162 H2158 0.949 . S
C2162 C2170 1.574 . S
C2162 C2178 1.368 . S
H2163 C2171 0.950 . S
H2164 C2169 0.950 . S
H2165 C2170 0.949 . S
H2166 C2172 0.950 . S
H2167 C2173 0.950 . S
H2168 C2174 0.949 . S
C2169 H2164 0.950 . S
C2169 C2171 1.327 . S
C2169 C2175 1.429 . S
C2170 C2162 1.574 . S
C2170 H2165 0.949 . S
C2170 C2176 1.368 . S
C2171 C2155 1.349 . S
C2171 H2163 0.950 . S
C2171 C2169 1.327 . S
C2172 C2160 1.349 . S
C2172 H2166 0.950 . S
C2172 C2173 1.327 . S
C2173 H2167 0.950 . S
C2173 C2172 1.327 . S
C2173 C2177 1.429 . S
C2174 C2157 1.574 . S
C2174 H2168 0.949 . S
C2174 C2178 1.368 . S
C2175 C2156 1.429 . S
C2175 C2169 1.429 . S
C2175 C2176 1.523 . S
C2176 C2157 1.368 . S
C2176 C2170 1.368 . S
C2176 C2175 1.523 . S
C2177 C2161 1.429 . S
C2177 C2173 1.429 . S
C2177 C2178 1.523 . S
C2178 C2162 1.368 . S
C2178 C2174 1.368 . S
C2178 C2177 1.523 . S
H2179 C2154 0.950 . S
H2180 C2156 0.950 . S
H2181 C2157 0.949 . S
H2182 C2159 0.950 . S
H2183 C2161 0.950 . S
C2184 C2185 1.349 . S
C2184 C2186 1.327 . S
C2184 H2209 0.950 . S
C2185 C2184 1.349 . S
C2185 C2201 1.349 . S
C2186 C2184 1.327 . S
C2186 C2205 1.429 . S
C2186 H2210 0.950 . S
C2187 C2204 1.574 . S
C2187 C2206 1.368 . S
C2187 H2211 0.949 . S
H2188 C2192 0.949 . S
C2189 C2190 1.349 . S
C2189 C2191 1.327 . S
C2189 H2212 0.950 . S
C2190 C2189 1.349 . S
C2190 C2202 1.349 . S
C2191 C2189 1.327 . S
C2191 C2207 1.429 . S
C2191 H2213 0.950 . S
C2192 H2188 0.949 . S
C2192 C2200 1.574 . S
C2192 C2208 1.368 . S
H2193 C2201 0.950 . S
H2194 C2199 0.950 . S
H2195 C2200 0.949 . S
H2196 C2202 0.950 . S
H2197 C2203 0.950 . S
H2198 C2204 0.949 . S
C2199 H2194 0.950 . S
C2199 C2201 1.327 . S
C2199 C2205 1.429 . S
C2200 C2192 1.574 . S
C2200 H2195 0.949 . S
C2200 C2206 1.368 . S
C2201 C2185 1.349 . S
C2201 H2193 0.950 . S
C2201 C2199 1.327 . S
C2202 C2190 1.349 . S
C2202 H2196 0.950 . S
C2202 C2203 1.327 . S
C2203 H2197 0.950 . S
C2203 C2202 1.327 . S
C2203 C2207 1.429 . S
C2204 C2187 1.574 . S
C2204 H2198 0.949 . S
C2204 C2208 1.368 . S
C2205 C2186 1.429 . S
C2205 C2199 1.429 . S
C2205 C2206 1.523 . S
C2206 C2187 1.368 . S
C2206 C2200 1.368 . S
C2206 C2205 1.523 . S
C2207 C2191 1.429 . S
C2207 C2203 1.429 . S
C2207 C2208 1.523 . S
C2208 C2192 1.368 . S
C2208 C2204 1.368 . S
C2208 C2207 1.523 . S
H2209 C2184 0.950 . S
H2210 C2186 0.950 . S
H2211 C2187 0.949 . S
H2212 C2189 0.950 . S
H2213 C2191 0.950 . S
C2214 C2215 1.349 . S
C2214 C2216 1.327 . S
C2214 H2239 0.950 . S
C2215 C2214 1.349 . S
C2215 C2231 1.349 . S
C2216 C2214 1.327 . S
C2216 C2235 1.429 . S
C2216 H2240 0.950 . S
C2217 C2234 1.574 . S
C2217 C2236 1.368 . S
C2217 H2241 0.949 . S
H2218 C2222 0.949 . S
C2219 C2220 1.349 . S
C2219 C2221 1.327 . S
C2219 H2242 0.950 . S
C2220 C2219 1.349 . S
C2220 C2232 1.349 . S
C2221 C2219 1.327 . S
C2221 C2237 1.429 . S
C2221 H2243 0.950 . S
C2222 H2218 0.949 . S
C2222 C2230 1.574 . S
C2222 C2238 1.368 . S
H2223 C2231 0.950 . S
H2224 C2229 0.950 . S
H2225 C2230 0.949 . S
H2226 C2232 0.950 . S
H2227 C2233 0.950 . S
H2228 C2234 0.949 . S
C2229 H2224 0.950 . S
C2229 C2231 1.327 . S
C2229 C2235 1.429 . S
C2230 C2222 1.574 . S
C2230 H2225 0.949 . S
C2230 C2236 1.368 . S
C2231 C2215 1.349 . S
C2231 H2223 0.950 . S
C2231 C2229 1.327 . S
C2232 C2220 1.349 . S
C2232 H2226 0.950 . S
C2232 C2233 1.327 . S
C2233 H2227 0.950 . S
C2233 C2232 1.327 . S
C2233 C2237 1.429 . S
C2234 C2217 1.574 . S
C2234 H2228 0.949 . S
C2234 C2238 1.368 . S
C2235 C2216 1.429 . S
C2235 C2229 1.429 . S
C2235 C2236 1.523 . S
C2236 C2217 1.368 . S
C2236 C2230 1.368 . S
C2236 C2235 1.523 . S
C2237 C2221 1.429 . S
C2237 C2233 1.429 . S
C2237 C2238 1.523 . S
C2238 C2222 1.368 . S
C2238 C2234 1.368 . S
C2238 C2237 1.523 . S
H2239 C2214 0.950 . S
H2240 C2216 0.950 . S
H2241 C2217 0.949 . S
H2242 C2219 0.950 . S
H2243 C2221 0.950 . S
C2244 C2245 1.349 . S
C2244 C2246 1.327 . S
C2244 H2269 0.950 . S
C2245 C2244 1.349 . S
C2245 C2261 1.349 . S
C2246 C2244 1.327 . S
C2246 C2265 1.429 . S
C2246 H2270 0.950 . S
C2247 C2264 1.574 . S
C2247 C2266 1.368 . S
C2247 H2271 0.949 . S
H2248 C2252 0.949 . S
C2249 C2250 1.349 . S
C2249 C2251 1.327 . S
C2249 H2272 0.950 . S
C2250 C2249 1.349 . S
C2250 C2262 1.349 . S
C2251 C2249 1.327 . S
C2251 C2267 1.429 . S
C2251 H2273 0.950 . S
C2252 H2248 0.949 . S
C2252 C2260 1.574 . S
C2252 C2268 1.368 . S
H2253 C2261 0.950 . S
H2254 C2259 0.950 . S
H2255 C2260 0.949 . S
H2256 C2262 0.950 . S
H2257 C2263 0.950 . S
H2258 C2264 0.949 . S
C2259 H2254 0.950 . S
C2259 C2261 1.327 . S
C2259 C2265 1.429 . S
C2260 C2252 1.574 . S
C2260 H2255 0.949 . S
C2260 C2266 1.368 . S
C2261 C2245 1.349 . S
C2261 H2253 0.950 . S
C2261 C2259 1.327 . S
C2262 C2250 1.349 . S
C2262 H2256 0.950 . S
C2262 C2263 1.327 . S
C2263 H2257 0.950 . S
C2263 C2262 1.327 . S
C2263 C2267 1.429 . S
C2264 C2247 1.574 . S
C2264 H2258 0.949 . S
C2264 C2268 1.368 . S
C2265 C2246 1.429 . S
C2265 C2259 1.429 . S
C2265 C2266 1.523 . S
C2266 C2247 1.368 . S
C2266 C2260 1.368 . S
C2266 C2265 1.523 . S
C2267 C2251 1.429 . S
C2267 C2263 1.429 . S
C2267 C2268 1.523 . S
C2268 C2252 1.368 . S
C2268 C2264 1.368 . S
C2268 C2267 1.523 . S
H2269 C2244 0.950 . S
H2270 C2246 0.950 . S
H2271 C2247 0.949 . S
H2272 C2249 0.950 . S
H2273 C2251 0.950 . S
C2274 C2275 1.349 . S
C2274 C2276 1.327 . S
C2274 H2299 0.950 . S
C2275 C2274 1.349 . S
C2275 C2291 1.349 . S
C2276 C2274 1.327 . S
C2276 C2295 1.429 . S
C2276 H2300 0.950 . S
C2277 C2294 1.574 . S
C2277 C2296 1.368 . S
C2277 H2301 0.949 . S
H2278 C2282 0.949 . S
C2279 C2280 1.349 . S
C2279 C2281 1.327 . S
C2279 H2302 0.950 . S
C2280 C2279 1.349 . S
C2280 C2292 1.349 . S
C2281 C2279 1.327 . S
C2281 C2297 1.429 . S
C2281 H2303 0.950 . S
C2282 H2278 0.949 . S
C2282 C2290 1.574 . S
C2282 C2298 1.368 . S
H2283 C2291 0.950 . S
H2284 C2289 0.950 . S
H2285 C2290 0.949 . S
H2286 C2292 0.950 . S
H2287 C2293 0.950 . S
H2288 C2294 0.949 . S
C2289 H2284 0.950 . S
C2289 C2291 1.327 . S
C2289 C2295 1.429 . S
C2290 C2282 1.574 . S
C2290 H2285 0.949 . S
C2290 C2296 1.368 . S
C2291 C2275 1.349 . S
C2291 H2283 0.950 . S
C2291 C2289 1.327 . S
C2292 C2280 1.349 . S
C2292 H2286 0.950 . S
C2292 C2293 1.327 . S
C2293 H2287 0.950 . S
C2293 C2292 1.327 . S
C2293 C2297 1.429 . S
C2294 C2277 1.574 . S
C2294 H2288 0.949 . S
C2294 C2298 1.368 . S
C2295 C2276 1.429 . S
C2295 C2289 1.429 . S
C2295 C2296 1.523 . S
C2296 C2277 1.368 . S
C2296 C2290 1.368 . S
C2296 C2295 1.523 . S
C2297 C2281 1.429 . S
C2297 C2293 1.429 . S
C2297 C2298 1.523 . S
C2298 C2282 1.368 . S
C2298 C2294 1.368 . S
C2298 C2297 1.523 . S
H2299 C2274 0.950 . S
H2300 C2276 0.950 . S
H2301 C2277 0.949 . S
H2302 C2279 0.950 . S
H2303 C2281 0.950 . S
C2304 C2305 1.349 1_455 S
C2304 C2306 1.327 . S
C2304 H2329 0.950 . S
C2305 C2304 1.349 1_655 S
C2305 C2321 1.349 . S
C2306 C2304 1.327 . S
C2306 C2325 1.409 1_455 S
C2306 H2330 0.950 . S
C2307 C2324 1.574 . S
C2307 C2326 1.379 . S
C2307 H2331 0.949 . S
H2308 C2312 0.949 . S
C2309 C2310 1.349 1_655 S
C2309 C2311 1.327 . S
C2309 H2332 0.950 . S
C2310 C2309 1.349 1_455 S
C2310 C2322 1.349 . S
C2311 C2309 1.327 . S
C2311 C2327 1.416 1_655 S
C2311 H2333 0.950 . S
C2312 H2308 0.949 . S
C2312 C2320 1.574 . S
C2312 C2328 1.371 . S
H2313 C2321 0.950 . S
H2314 C2319 0.950 . S
H2315 C2320 0.949 . S
H2316 C2322 0.950 . S
H2317 C2323 0.950 . S
H2318 C2324 0.949 . S
C2319 H2314 0.950 . S
C2319 C2321 1.327 . S
C2319 C2325 1.449 . S
C2320 C2312 1.574 . S
C2320 H2315 0.949 . S
C2320 C2326 1.358 1_455 S
C2321 C2305 1.349 . S
C2321 H2313 0.950 . S
C2321 C2319 1.327 . S
C2322 C2310 1.349 . S
C2322 H2316 0.950 . S
C2322 C2323 1.327 . S
C2323 H2317 0.950 . S
C2323 C2322 1.327 . S
C2323 C2327 1.442 . S
C2324 C2307 1.574 . S
C2324 H2318 0.949 . S
C2324 C2328 1.366 1_655 S
C2325 C2306 1.409 1_655 S
C2325 C2319 1.449 . S
C2325 C2326 1.523 . S
C2326 C2307 1.379 . S
C2326 C2320 1.358 1_655 S
C2326 C2325 1.523 . S
C2327 C2311 1.416 1_455 S
C2327 C2323 1.442 . S
C2327 C2328 1.523 . S
C2328 C2312 1.371 . S
C2328 C2324 1.366 1_455 S
C2328 C2327 1.523 . S
H2329 C2304 0.950 . S
H2330 C2306 0.950 . S
H2331 C2307 0.949 . S
H2332 C2309 0.950 . S
H2333 C2311 0.950 . S
C2334 C2335 1.349 . S
C2334 C2336 1.327 . S
C2334 H2359 0.950 . S
C2335 C2334 1.349 . S
C2335 C2351 1.349 . S
C2336 C2334 1.327 . S
C2336 C2355 1.429 . S
C2336 H2360 0.950 . S
C2337 C2354 1.574 . S
C2337 C2356 1.368 . S
C2337 H2361 0.949 . S
H2338 C2342 0.949 . S
C2339 C2340 1.349 . S
C2339 C2341 1.327 . S
C2339 H2362 0.950 . S
C2340 C2339 1.349 . S
C2340 C2352 1.349 . S
C2341 C2339 1.327 . S
C2341 C2357 1.429 . S
C2341 H2363 0.950 . S
C2342 H2338 0.949 . S
C2342 C2350 1.574 . S
C2342 C2358 1.368 . S
H2343 C2351 0.950 . S
H2344 C2349 0.950 . S
H2345 C2350 0.949 . S
H2346 C2352 0.950 . S
H2347 C2353 0.950 . S
H2348 C2354 0.949 . S
C2349 H2344 0.950 . S
C2349 C2351 1.327 . S
C2349 C2355 1.429 . S
C2350 C2342 1.574 . S
C2350 H2345 0.949 . S
C2350 C2356 1.368 . S
C2351 C2335 1.349 . S
C2351 H2343 0.950 . S
C2351 C2349 1.327 . S
C2352 C2340 1.349 . S
C2352 H2346 0.950 . S
C2352 C2353 1.327 . S
C2353 H2347 0.950 . S
C2353 C2352 1.327 . S
C2353 C2357 1.429 . S
C2354 C2337 1.574 . S
C2354 H2348 0.949 . S
C2354 C2358 1.368 . S
C2355 C2336 1.429 . S
C2355 C2349 1.429 . S
C2355 C2356 1.523 . S
C2356 C2337 1.368 . S
C2356 C2350 1.368 . S
C2356 C2355 1.523 . S
C2357 C2341 1.429 . S
C2357 C2353 1.429 . S
C2357 C2358 1.523 . S
C2358 C2342 1.368 . S
C2358 C2354 1.368 . S
C2358 C2357 1.523 . S
H2359 C2334 0.950 . S
H2360 C2336 0.950 . S
H2361 C2337 0.949 . S
H2362 C2339 0.950 . S
H2363 C2341 0.950 . S
C2364 C2365 1.349 . S
C2364 C2366 1.327 . S
C2364 H2389 0.950 . S
C2365 C2364 1.349 . S
C2365 C2381 1.349 1_565 S
C2366 C2364 1.327 . S
C2366 C2385 1.463 . S
C2366 H2390 0.950 . S
C2367 C2384 1.574 . S
C2367 C2386 1.351 1_545 S
C2367 H2391 0.949 . S
H2368 C2372 0.949 . S
C2369 C2370 1.349 . S
C2369 C2371 1.327 . S
C2369 H2392 0.950 . S
C2370 C2369 1.349 . S
C2370 C2382 1.349 1_545 S
C2371 C2369 1.327 . S
C2371 C2387 1.451 . S
C2371 H2393 0.950 . S
C2372 H2368 0.949 . S
C2372 C2380 1.574 . S
C2372 C2388 1.364 1_565 S
H2373 C2381 0.950 . S
H2374 C2379 0.950 . S
H2375 C2380 0.949 . S
H2376 C2382 0.950 . S
H2377 C2383 0.950 . S
H2378 C2384 0.949 . S
C2379 H2374 0.950 . S
C2379 C2381 1.327 . S
C2379 C2385 1.395 1_545 S
C2380 C2372 1.574 . S
C2380 H2375 0.949 . S
C2380 C2386 1.386 . S
C2381 C2365 1.349 1_545 S
C2381 H2373 0.950 . S
C2381 C2379 1.327 . S
C2382 C2370 1.349 1_565 S
C2382 H2376 0.950 . S
C2382 C2383 1.327 . S
C2383 H2377 0.950 . S
C2383 C2382 1.327 . S
C2383 C2387 1.407 1_565 S
C2384 C2367 1.574 . S
C2384 H2378 0.949 . S
C2384 C2388 1.373 . S
C2385 C2366 1.463 . S
C2385 C2379 1.395 1_565 S
C2385 C2386 1.523 . S
C2386 C2367 1.351 1_565 S
C2386 C2380 1.386 . S
C2386 C2385 1.523 . S
C2387 C2371 1.451 . S
C2387 C2383 1.407 1_545 S
C2387 C2388 1.523 . S
C2388 C2372 1.364 1_545 S
C2388 C2384 1.373 . S
C2388 C2387 1.523 . S
H2389 C2364 0.950 . S
H2390 C2366 0.950 . S
H2391 C2367 0.949 . S
H2392 C2369 0.950 . S
H2393 C2371 0.950 . S
C2394 C2395 1.349 . S
C2394 C2396 1.327 . S
C2394 H2419 0.950 . S
C2395 C2394 1.349 . S
C2395 C2411 1.326 1_455 S
C2396 C2394 1.327 . S
C2396 C2415 1.449 . S
C2396 H2420 0.950 . S
C2397 C2414 1.574 . S
C2397 C2416 1.358 1_655 S
C2397 H2421 0.949 . S
H2398 C2402 0.949 . S
C2399 C2400 1.349 . S
C2399 C2401 1.327 . S
C2399 H2422 0.950 . S
C2400 C2399 1.349 . S
C2400 C2412 1.319 1_655 S
C2401 C2399 1.327 . S
C2401 C2417 1.442 . S
C2401 H2423 0.950 . S
C2402 H2398 0.949 . S
C2402 C2410 1.574 . S
C2402 C2418 1.366 1_455 S
H2403 C2411 0.973 . S
H2404 C2409 0.950 . S
H2405 C2410 0.949 . S
H2406 C2412 0.981 . S
H2407 C2413 0.950 . S
H2408 C2414 0.949 . S
C2409 H2404 0.950 . S
C2409 C2411 1.329 . S
C2409 C2415 1.409 1_655 S
C2410 C2402 1.574 . S
C2410 H2405 0.949 . S
C2410 C2416 1.379 . S
C2411 C2395 1.326 1_655 S
C2411 H2403 0.973 . S
C2411 C2409 1.329 . S
C2412 C2400 1.319 1_455 S
C2412 H2406 0.981 . S
C2412 C2413 1.330 . S
C2413 H2407 0.950 . S
C2413 C2412 1.330 . S
C2413 C2417 1.416 1_455 S
C2414 C2397 1.574 . S
C2414 H2408 0.949 . S
C2414 C2418 1.371 . S
C2415 C2396 1.449 . S
C2415 C2409 1.409 1_455 S
C2415 C2416 1.523 . S
C2416 C2397 1.358 1_455 S
C2416 C2410 1.379 . S
C2416 C2415 1.523 . S
C2417 C2401 1.442 . S
C2417 C2413 1.416 1_655 S
C2417 C2418 1.523 . S
C2418 C2402 1.366 1_655 S
C2418 C2414 1.371 . S
C2418 C2417 1.523 . S
H2419 C2394 0.950 . S
H2420 C2396 0.950 . S
H2421 C2397 0.949 . S
H2422 C2399 0.950 . S
H2423 C2401 0.950 . S
C2424 C2425 1.349 . S
C2424 C2426 1.327 . S
C2424 H2449 0.950 . S
C2425 C2424 1.349 . S
C2425 C2441 1.349 . S
C2426 C2424 1.327 . S
C2426 C2445 1.429 . S
C2426 H2450 0.950 . S
C2427 C2444 1.574 . S
C2427 C2446 1.368 . S
C2427 H2451 0.949 . S
H2428 C2432 0.949 . S
C2429 C2430 1.349 . S
C2429 C2431 1.327 . S
C2429 H2452 0.950 . S
C2430 C2429 1.349 . S
C2430 C2442 1.349 . S
C2431 C2429 1.327 . S
C2431 C2447 1.429 . S
C2431 H2453 0.950 . S
C2432 H2428 0.949 . S
C2432 C2440 1.574 . S
C2432 C2448 1.368 . S
H2433 C2441 0.950 . S
H2434 C2439 0.950 . S
H2435 C2440 0.949 . S
H2436 C2442 0.950 . S
H2437 C2443 0.950 . S
H2438 C2444 0.949 . S
C2439 H2434 0.950 . S
C2439 C2441 1.327 . S
C2439 C2445 1.429 . S
C2440 C2432 1.574 . S
C2440 H2435 0.949 . S
C2440 C2446 1.368 . S
C2441 C2425 1.349 . S
C2441 H2433 0.950 . S
C2441 C2439 1.327 . S
C2442 C2430 1.349 . S
C2442 H2436 0.950 . S
C2442 C2443 1.327 . S
C2443 H2437 0.950 . S
C2443 C2442 1.327 . S
C2443 C2447 1.429 . S
C2444 C2427 1.574 . S
C2444 H2438 0.949 . S
C2444 C2448 1.368 . S
C2445 C2426 1.429 . S
C2445 C2439 1.429 . S
C2445 C2446 1.523 . S
C2446 C2427 1.368 . S
C2446 C2440 1.368 . S
C2446 C2445 1.523 . S
C2447 C2431 1.429 . S
C2447 C2443 1.429 . S
C2447 C2448 1.523 . S
C2448 C2432 1.368 . S
C2448 C2444 1.368 . S
C2448 C2447 1.523 . S
H2449 C2424 0.950 . S
H2450 C2426 0.950 . S
H2451 C2427 0.949 . S
H2452 C2429 0.950 . S
H2453 C2431 0.950 . S
C2454 C2455 1.349 1_565 S
C2454 C2456 1.327 . S
C2454 H2479 0.950 . S
C2455 C2454 1.349 1_545 S
C2455 C2471 1.349 . S
C2456 C2454 1.327 . S
C2456 C2475 1.415 1_565 S
C2456 H2480 0.950 . S
C2457 C2474 1.574 . S
C2457 C2476 1.376 . S
C2457 H2481 0.949 . S
H2458 C2462 0.949 . S
C2459 C2460 1.349 1_545 S
C2459 C2461 1.327 . S
C2459 H2482 0.950 . S
C2460 C2459 1.349 1_565 S
C2460 C2472 1.349 . S
C2461 C2459 1.327 . S
C2461 C2477 1.420 1_545 S
C2461 H2483 0.950 . S
C2462 H2458 0.949 . S
C2462 C2470 1.574 . S
C2462 C2478 1.370 . S
H2463 C2471 0.950 . S
H2464 C2469 0.950 . S
H2465 C2470 0.949 . S
H2466 C2472 0.950 . S
H2467 C2473 0.950 . S
H2468 C2474 0.949 . S
C2469 H2464 0.950 . S
C2469 C2471 1.327 . S
C2469 C2475 1.444 . S
C2470 C2462 1.574 . S
C2470 H2465 0.949 . S
C2470 C2476 1.361 1_565 S
C2471 C2455 1.349 . S
C2471 H2463 0.950 . S
C2471 C2469 1.327 . S
C2472 C2460 1.349 . S
C2472 H2466 0.950 . S
C2472 C2473 1.327 . S
C2473 H2467 0.950 . S
C2473 C2472 1.327 . S
C2473 C2477 1.438 . S
C2474 C2457 1.574 . S
C2474 H2468 0.949 . S
C2474 C2478 1.366 1_545 S
C2475 C2456 1.415 1_545 S
C2475 C2469 1.444 . S
C2475 C2476 1.523 . S
C2476 C2457 1.376 . S
C2476 C2470 1.361 1_545 S
C2476 C2475 1.523 . S
C2477 C2461 1.420 1_565 S
C2477 C2473 1.438 . S
C2477 C2478 1.523 . S
C2478 C2462 1.370 . S
C2478 C2474 1.366 1_565 S
C2478 C2477 1.523 . S
H2479 C2454 0.950 . S
H2480 C2456 0.950 . S
H2481 C2457 0.949 . S
H2482 C2459 0.950 . S
H2483 C2461 0.950 . S
C2484 C2485 1.349 . S
C2484 C2486 1.327 . S
C2484 H2509 0.950 . S
C2485 C2484 1.349 . S
C2485 C2501 1.349 . S
C2486 C2484 1.327 . S
C2486 C2505 1.429 . S
C2486 H2510 0.950 . S
C2487 C2504 1.574 . S
C2487 C2506 1.368 . S
C2487 H2511 0.949 . S
H2488 C2492 0.949 . S
C2489 C2490 1.349 . S
C2489 C2491 1.327 . S
C2489 H2512 0.950 . S
C2490 C2489 1.349 . S
C2490 C2502 1.349 . S
C2491 C2489 1.327 . S
C2491 C2507 1.429 . S
C2491 H2513 0.950 . S
C2492 H2488 0.949 . S
C2492 C2500 1.574 . S
C2492 C2508 1.368 . S
H2493 C2501 0.950 . S
H2494 C2499 0.950 . S
H2495 C2500 0.949 . S
H2496 C2502 0.950 . S
H2497 C2503 0.950 . S
H2498 C2504 0.949 . S
C2499 H2494 0.950 . S
C2499 C2501 1.327 . S
C2499 C2505 1.429 . S
C2500 C2492 1.574 . S
C2500 H2495 0.949 . S
C2500 C2506 1.368 . S
C2501 C2485 1.349 . S
C2501 H2493 0.950 . S
C2501 C2499 1.327 . S
C2502 C2490 1.349 . S
C2502 H2496 0.950 . S
C2502 C2503 1.327 . S
C2503 H2497 0.950 . S
C2503 C2502 1.327 . S
C2503 C2507 1.429 . S
C2504 C2487 1.574 . S
C2504 H2498 0.949 . S
C2504 C2508 1.368 . S
C2505 C2486 1.429 . S
C2505 C2499 1.429 . S
C2505 C2506 1.523 . S
C2506 C2487 1.368 . S
C2506 C2500 1.368 . S
C2506 C2505 1.523 . S
C2507 C2491 1.429 . S
C2507 C2503 1.429 . S
C2507 C2508 1.523 . S
C2508 C2492 1.368 . S
C2508 C2504 1.368 . S
C2508 C2507 1.523 . S
H2509 C2484 0.950 . S
H2510 C2486 0.950 . S
H2511 C2487 0.949 . S
H2512 C2489 0.950 . S
H2513 C2491 0.950 . S
C2514 C2515 1.349 . S
C2514 C2516 1.327 . S
C2514 H2539 0.950 . S
C2515 C2514 1.349 . S
C2515 C2531 1.349 . S
C2516 C2514 1.327 . S
C2516 C2535 1.429 . S
C2516 H2540 0.950 . S
C2517 C2534 1.574 . S
C2517 C2536 1.368 . S
C2517 H2541 0.949 . S
H2518 C2522 0.949 . S
C2519 C2520 1.349 . S
C2519 C2521 1.327 . S
C2519 H2542 0.950 . S
C2520 C2519 1.349 . S
C2520 C2532 1.349 . S
C2521 C2519 1.327 . S
C2521 C2537 1.429 . S
C2521 H2543 0.950 . S
C2522 H2518 0.949 . S
C2522 C2530 1.574 . S
C2522 C2538 1.368 . S
H2523 C2531 0.950 . S
H2524 C2529 0.950 . S
H2525 C2530 0.949 . S
H2526 C2532 0.950 . S
H2527 C2533 0.950 . S
H2528 C2534 0.949 . S
C2529 H2524 0.950 . S
C2529 C2531 1.327 . S
C2529 C2535 1.429 . S
C2530 C2522 1.574 . S
C2530 H2525 0.949 . S
C2530 C2536 1.368 . S
C2531 C2515 1.349 . S
C2531 H2523 0.950 . S
C2531 C2529 1.327 . S
C2532 C2520 1.349 . S
C2532 H2526 0.950 . S
C2532 C2533 1.327 . S
C2533 H2527 0.950 . S
C2533 C2532 1.327 . S
C2533 C2537 1.429 . S
C2534 C2517 1.574 . S
C2534 H2528 0.949 . S
C2534 C2538 1.368 . S
C2535 C2516 1.429 . S
C2535 C2529 1.429 . S
C2535 C2536 1.523 . S
C2536 C2517 1.368 . S
C2536 C2530 1.368 . S
C2536 C2535 1.523 . S
C2537 C2521 1.429 . S
C2537 C2533 1.429 . S
C2537 C2538 1.523 . S
C2538 C2522 1.368 . S
C2538 C2534 1.368 . S
C2538 C2537 1.523 . S
H2539 C2514 0.950 . S
H2540 C2516 0.950 . S
H2541 C2517 0.949 . S
H2542 C2519 0.950 . S
H2543 C2521 0.950 . S
C2544 C2545 1.349 . S
C2544 C2546 1.327 . S
C2544 H2569 0.950 . S
C2545 C2544 1.349 . S
C2545 C2561 1.349 . S
C2546 C2544 1.327 . S
C2546 C2565 1.429 . S
C2546 H2570 0.950 . S
C2547 C2564 1.574 . S
C2547 C2566 1.368 . S
C2547 H2571 0.949 . S
H2548 C2552 0.949 . S
C2549 C2550 1.349 . S
C2549 C2551 1.327 . S
C2549 H2572 0.950 . S
C2550 C2549 1.349 . S
C2550 C2562 1.349 . S
C2551 C2549 1.327 . S
C2551 C2567 1.429 . S
C2551 H2573 0.950 . S
C2552 H2548 0.949 . S
C2552 C2560 1.574 . S
C2552 C2568 1.368 . S
H2553 C2561 0.950 . S
H2554 C2559 0.950 . S
H2555 C2560 0.949 . S
H2556 C2562 0.950 . S
H2557 C2563 0.950 . S
H2558 C2564 0.949 . S
C2559 H2554 0.950 . S
C2559 C2561 1.327 . S
C2559 C2565 1.429 . S
C2560 C2552 1.574 . S
C2560 H2555 0.949 . S
C2560 C2566 1.368 . S
C2561 C2545 1.349 . S
C2561 H2553 0.950 . S
C2561 C2559 1.327 . S
C2562 C2550 1.349 . S
C2562 H2556 0.950 . S
C2562 C2563 1.327 . S
C2563 H2557 0.950 . S
C2563 C2562 1.327 . S
C2563 C2567 1.429 . S
C2564 C2547 1.574 . S
C2564 H2558 0.949 . S
C2564 C2568 1.368 . S
C2565 C2546 1.429 . S
C2565 C2559 1.429 . S
C2565 C2566 1.523 . S
C2566 C2547 1.368 . S
C2566 C2560 1.368 . S
C2566 C2565 1.523 . S
C2567 C2551 1.429 . S
C2567 C2563 1.429 . S
C2567 C2568 1.523 . S
C2568 C2552 1.368 . S
C2568 C2564 1.368 . S
C2568 C2567 1.523 . S
H2569 C2544 0.950 . S
H2570 C2546 0.950 . S
H2571 C2547 0.949 . S
H2572 C2549 0.950 . S
H2573 C2551 0.950 . S
C2574 C2575 1.349 . S
C2574 C2576 1.327 . S
C2574 H2599 0.950 . S
C2575 C2574 1.349 . S
C2575 C2591 1.349 . S
C2576 C2574 1.327 . S
C2576 C2595 1.429 . S
C2576 H2600 0.950 . S
C2577 C2594 1.574 . S
C2577 C2596 1.368 . S
C2577 H2601 0.949 . S
H2578 C2582 0.949 . S
C2579 C2580 1.349 . S
C2579 C2581 1.327 . S
C2579 H2602 0.950 . S
C2580 C2579 1.349 . S
C2580 C2592 1.349 . S
C2581 C2579 1.327 . S
C2581 C2597 1.429 . S
C2581 H2603 0.950 . S
C2582 H2578 0.949 . S
C2582 C2590 1.574 . S
C2582 C2598 1.368 . S
H2583 C2591 0.950 . S
H2584 C2589 0.950 . S
H2585 C2590 0.949 . S
H2586 C2592 0.950 . S
H2587 C2593 0.950 . S
H2588 C2594 0.949 . S
C2589 H2584 0.950 . S
C2589 C2591 1.327 . S
C2589 C2595 1.429 . S
C2590 C2582 1.574 . S
C2590 H2585 0.949 . S
C2590 C2596 1.368 . S
C2591 C2575 1.349 . S
C2591 H2583 0.950 . S
C2591 C2589 1.327 . S
C2592 C2580 1.349 . S
C2592 H2586 0.950 . S
C2592 C2593 1.327 . S
C2593 H2587 0.950 . S
C2593 C2592 1.327 . S
C2593 C2597 1.429 . S
C2594 C2577 1.574 . S
C2594 H2588 0.949 . S
C2594 C2598 1.368 . S
C2595 C2576 1.429 . S
C2595 C2589 1.429 . S
C2595 C2596 1.523 . S
C2596 C2577 1.368 . S
C2596 C2590 1.368 . S
C2596 C2595 1.523 . S
C2597 C2581 1.429 . S
C2597 C2593 1.429 . S
C2597 C2598 1.523 . S
C2598 C2582 1.368 . S
C2598 C2594 1.368 . S
C2598 C2597 1.523 . S
H2599 C2574 0.950 . S
H2600 C2576 0.950 . S
H2601 C2577 0.949 . S
H2602 C2579 0.950 . S
H2603 C2581 0.950 . S
C2604 C2605 1.349 . S
C2604 C2606 1.327 . S
C2604 H2629 0.950 . S
C2605 C2604 1.349 . S
C2605 C2621 1.349 . S
C2606 C2604 1.327 . S
C2606 C2625 1.429 . S
C2606 H2630 0.950 . S
C2607 C2624 1.574 . S
C2607 C2626 1.368 . S
C2607 H2631 0.949 . S
H2608 C2612 0.949 . S
C2609 C2610 1.349 . S
C2609 C2611 1.327 . S
C2609 H2632 0.950 . S
C2610 C2609 1.349 . S
C2610 C2622 1.349 . S
C2611 C2609 1.327 . S
C2611 C2627 1.429 . S
C2611 H2633 0.950 . S
C2612 H2608 0.949 . S
C2612 C2620 1.574 . S
C2612 C2628 1.368 . S
H2613 C2621 0.950 . S
H2614 C2619 0.950 . S
H2615 C2620 0.949 . S
H2616 C2622 0.950 . S
H2617 C2623 0.950 . S
H2618 C2624 0.949 . S
C2619 H2614 0.950 . S
C2619 C2621 1.327 . S
C2619 C2625 1.429 . S
C2620 C2612 1.574 . S
C2620 H2615 0.949 . S
C2620 C2626 1.368 . S
C2621 C2605 1.349 . S
C2621 H2613 0.950 . S
C2621 C2619 1.327 . S
C2622 C2610 1.349 . S
C2622 H2616 0.950 . S
C2622 C2623 1.327 . S
C2623 H2617 0.950 . S
C2623 C2622 1.327 . S
C2623 C2627 1.429 . S
C2624 C2607 1.574 . S
C2624 H2618 0.949 . S
C2624 C2628 1.368 . S
C2625 C2606 1.429 . S
C2625 C2619 1.429 . S
C2625 C2626 1.523 . S
C2626 C2607 1.368 . S
C2626 C2620 1.368 . S
C2626 C2625 1.523 . S
C2627 C2611 1.429 . S
C2627 C2623 1.429 . S
C2627 C2628 1.523 . S
C2628 C2612 1.368 . S
C2628 C2624 1.368 . S
C2628 C2627 1.523 . S
H2629 C2604 0.950 . S
H2630 C2606 0.950 . S
H2631 C2607 0.949 . S
H2632 C2609 0.950 . S
H2633 C2611 0.950 . S
C2634 C2635 1.349 . S
C2634 C2636 1.327 . S
C2634 H2659 0.950 . S
C2635 C2634 1.349 . S
C2635 C2651 1.349 . S
C2636 C2634 1.327 . S
C2636 C2655 1.429 . S
C2636 H2660 0.950 . S
C2637 C2654 1.574 . S
C2637 C2656 1.368 . S
C2637 H2661 0.949 . S
H2638 C2642 0.949 . S
C2639 C2640 1.349 . S
C2639 C2641 1.327 . S
C2639 H2662 0.950 . S
C2640 C2639 1.349 . S
C2640 C2652 1.349 . S
C2641 C2639 1.327 . S
C2641 C2657 1.429 . S
C2641 H2663 0.950 . S
C2642 H2638 0.949 . S
C2642 C2650 1.574 . S
C2642 C2658 1.368 . S
H2643 C2651 0.950 . S
H2644 C2649 0.950 . S
H2645 C2650 0.949 . S
H2646 C2652 0.950 . S
H2647 C2653 0.950 . S
H2648 C2654 0.949 . S
C2649 H2644 0.950 . S
C2649 C2651 1.327 . S
C2649 C2655 1.429 . S
C2650 C2642 1.574 . S
C2650 H2645 0.949 . S
C2650 C2656 1.368 . S
C2651 C2635 1.349 . S
C2651 H2643 0.950 . S
C2651 C2649 1.327 . S
C2652 C2640 1.349 . S
C2652 H2646 0.950 . S
C2652 C2653 1.327 . S
C2653 H2647 0.950 . S
C2653 C2652 1.327 . S
C2653 C2657 1.429 . S
C2654 C2637 1.574 . S
C2654 H2648 0.949 . S
C2654 C2658 1.368 . S
C2655 C2636 1.429 . S
C2655 C2649 1.429 . S
C2655 C2656 1.523 . S
C2656 C2637 1.368 . S
C2656 C2650 1.368 . S
C2656 C2655 1.523 . S
C2657 C2641 1.429 . S
C2657 C2653 1.429 . S
C2657 C2658 1.523 . S
C2658 C2642 1.368 . S
C2658 C2654 1.368 . S
C2658 C2657 1.523 . S
H2659 C2634 0.950 . S
H2660 C2636 0.950 . S
H2661 C2637 0.949 . S
H2662 C2639 0.950 . S
H2663 C2641 0.950 . S
C2664 C2665 1.349 . S
C2664 C2666 1.327 . S
C2664 H2689 0.950 . S
C2665 C2664 1.349 . S
C2665 C2681 1.349 . S
C2666 C2664 1.327 . S
C2666 C2685 1.429 . S
C2666 H2690 0.950 . S
C2667 C2684 1.574 . S
C2667 C2686 1.368 . S
C2667 H2691 0.949 . S
H2668 C2672 0.949 . S
C2669 C2670 1.349 . S
C2669 C2671 1.327 . S
C2669 H2692 0.950 . S
C2670 C2669 1.349 . S
C2670 C2682 1.349 . S
C2671 C2669 1.327 . S
C2671 C2687 1.429 . S
C2671 H2693 0.950 . S
C2672 H2668 0.949 . S
C2672 C2680 1.574 . S
C2672 C2688 1.368 . S
H2673 C2681 0.950 . S
H2674 C2679 0.950 . S
H2675 C2680 0.949 . S
H2676 C2682 0.950 . S
H2677 C2683 0.950 . S
H2678 C2684 0.949 . S
C2679 H2674 0.950 . S
C2679 C2681 1.327 . S
C2679 C2685 1.429 . S
C2680 C2672 1.574 . S
C2680 H2675 0.949 . S
C2680 C2686 1.368 . S
C2681 C2665 1.349 . S
C2681 H2673 0.950 . S
C2681 C2679 1.327 . S
C2682 C2670 1.349 . S
C2682 H2676 0.950 . S
C2682 C2683 1.327 . S
C2683 H2677 0.950 . S
C2683 C2682 1.327 . S
C2683 C2687 1.429 . S
C2684 C2667 1.574 . S
C2684 H2678 0.949 . S
C2684 C2688 1.368 . S
C2685 C2666 1.429 . S
C2685 C2679 1.429 . S
C2685 C2686 1.523 . S
C2686 C2667 1.368 . S
C2686 C2680 1.368 . S
C2686 C2685 1.523 . S
C2687 C2671 1.429 . S
C2687 C2683 1.429 . S
C2687 C2688 1.523 . S
C2688 C2672 1.368 . S
C2688 C2684 1.368 . S
C2688 C2687 1.523 . S
H2689 C2664 0.950 . S
H2690 C2666 0.950 . S
H2691 C2667 0.949 . S
H2692 C2669 0.950 . S
H2693 C2671 0.950 . S
C2694 C2695 1.349 . S
C2694 C2696 1.327 . S
C2694 H2719 0.950 . S
C2695 C2694 1.349 . S
C2695 C2711 1.349 . S
C2696 C2694 1.327 . S
C2696 C2715 1.429 . S
C2696 H2720 0.950 . S
C2697 C2714 1.574 . S
C2697 C2716 1.368 . S
C2697 H2721 0.949 . S
H2698 C2702 0.949 . S
C2699 C2700 1.349 . S
C2699 C2701 1.327 . S
C2699 H2722 0.950 . S
C2700 C2699 1.349 . S
C2700 C2712 1.349 . S
C2701 C2699 1.327 . S
C2701 C2717 1.429 . S
C2701 H2723 0.950 . S
C2702 H2698 0.949 . S
C2702 C2710 1.574 . S
C2702 C2718 1.368 . S
H2703 C2711 0.950 . S
H2704 C2709 0.950 . S
H2705 C2710 0.949 . S
H2706 C2712 0.950 . S
H2707 C2713 0.950 . S
H2708 C2714 0.949 . S
C2709 H2704 0.950 . S
C2709 C2711 1.327 . S
C2709 C2715 1.429 . S
C2710 C2702 1.574 . S
C2710 H2705 0.949 . S
C2710 C2716 1.368 . S
C2711 C2695 1.349 . S
C2711 H2703 0.950 . S
C2711 C2709 1.327 . S
C2712 C2700 1.349 . S
C2712 H2706 0.950 . S
C2712 C2713 1.327 . S
C2713 H2707 0.950 . S
C2713 C2712 1.327 . S
C2713 C2717 1.429 . S
C2714 C2697 1.574 . S
C2714 H2708 0.949 . S
C2714 C2718 1.368 . S
C2715 C2696 1.429 . S
C2715 C2709 1.429 . S
C2715 C2716 1.523 . S
C2716 C2697 1.368 . S
C2716 C2710 1.368 . S
C2716 C2715 1.523 . S
C2717 C2701 1.429 . S
C2717 C2713 1.429 . S
C2717 C2718 1.523 . S
C2718 C2702 1.368 . S
C2718 C2714 1.368 . S
C2718 C2717 1.523 . S
H2719 C2694 0.950 . S
H2720 C2696 0.950 . S
H2721 C2697 0.949 . S
H2722 C2699 0.950 . S
H2723 C2701 0.950 . S
C2724 C2725 1.349 . S
C2724 C2726 1.327 . S
C2724 H2749 0.950 . S
C2725 C2724 1.349 . S
C2725 C2741 1.349 . S
C2726 C2724 1.327 . S
C2726 C2745 1.429 . S
C2726 H2750 0.950 . S
C2727 C2744 1.574 . S
C2727 C2746 1.368 . S
C2727 H2751 0.949 . S
H2728 C2732 0.949 . S
C2729 C2730 1.349 . S
C2729 C2731 1.327 . S
C2729 H2752 0.950 . S
C2730 C2729 1.349 . S
C2730 C2742 1.349 . S
C2731 C2729 1.327 . S
C2731 C2747 1.429 . S
C2731 H2753 0.950 . S
C2732 H2728 0.949 . S
C2732 C2740 1.574 . S
C2732 C2748 1.368 . S
H2733 C2741 0.950 . S
H2734 C2739 0.950 . S
H2735 C2740 0.949 . S
H2736 C2742 0.950 . S
H2737 C2743 0.950 . S
H2738 C2744 0.949 . S
C2739 H2734 0.950 . S
C2739 C2741 1.327 . S
C2739 C2745 1.429 . S
C2740 C2732 1.574 . S
C2740 H2735 0.949 . S
C2740 C2746 1.368 . S
C2741 C2725 1.349 . S
C2741 H2733 0.950 . S
C2741 C2739 1.327 . S
C2742 C2730 1.349 . S
C2742 H2736 0.950 . S
C2742 C2743 1.327 . S
C2743 H2737 0.950 . S
C2743 C2742 1.327 . S
C2743 C2747 1.429 . S
C2744 C2727 1.574 . S
C2744 H2738 0.949 . S
C2744 C2748 1.368 . S
C2745 C2726 1.429 . S
C2745 C2739 1.429 . S
C2745 C2746 1.523 . S
C2746 C2727 1.368 . S
C2746 C2740 1.368 . S
C2746 C2745 1.523 . S
C2747 C2731 1.429 . S
C2747 C2743 1.429 . S
C2747 C2748 1.523 . S
C2748 C2732 1.368 . S
C2748 C2744 1.368 . S
C2748 C2747 1.523 . S
H2749 C2724 0.950 . S
H2750 C2726 0.950 . S
H2751 C2727 0.949 . S
H2752 C2729 0.950 . S
H2753 C2731 0.950 . S
C2754 C2755 1.349 . S
C2754 C2756 1.327 . S
C2754 H2779 0.950 . S
C2755 C2754 1.349 . S
C2755 C2771 1.349 . S
C2756 C2754 1.327 . S
C2756 C2775 1.429 . S
C2756 H2780 0.950 . S
C2757 C2774 1.574 . S
C2757 C2776 1.368 . S
C2757 H2781 0.949 . S
H2758 C2762 0.949 . S
C2759 C2760 1.349 . S
C2759 C2761 1.327 . S
C2759 H2782 0.950 . S
C2760 C2759 1.349 . S
C2760 C2772 1.349 . S
C2761 C2759 1.327 . S
C2761 C2777 1.429 . S
C2761 H2783 0.950 . S
C2762 H2758 0.949 . S
C2762 C2770 1.574 . S
C2762 C2778 1.368 . S
H2763 C2771 0.950 . S
H2764 C2769 0.950 . S
H2765 C2770 0.949 . S
H2766 C2772 0.950 . S
H2767 C2773 0.950 . S
H2768 C2774 0.949 . S
C2769 H2764 0.950 . S
C2769 C2771 1.327 . S
C2769 C2775 1.429 . S
C2770 C2762 1.574 . S
C2770 H2765 0.949 . S
C2770 C2776 1.368 . S
C2771 C2755 1.349 . S
C2771 H2763 0.950 . S
C2771 C2769 1.327 . S
C2772 C2760 1.349 . S
C2772 H2766 0.950 . S
C2772 C2773 1.327 . S
C2773 H2767 0.950 . S
C2773 C2772 1.327 . S
C2773 C2777 1.429 . S
C2774 C2757 1.574 . S
C2774 H2768 0.949 . S
C2774 C2778 1.368 . S
C2775 C2756 1.429 . S
C2775 C2769 1.429 . S
C2775 C2776 1.523 . S
C2776 C2757 1.368 . S
C2776 C2770 1.368 . S
C2776 C2775 1.523 . S
C2777 C2761 1.429 . S
C2777 C2773 1.429 . S
C2777 C2778 1.523 . S
C2778 C2762 1.368 . S
C2778 C2774 1.368 . S
C2778 C2777 1.523 . S
H2779 C2754 0.950 . S
H2780 C2756 0.950 . S
H2781 C2757 0.949 . S
H2782 C2759 0.950 . S
H2783 C2761 0.950 . S
C2784 C2785 1.349 . S
C2784 C2786 1.327 . S
C2784 H2809 0.950 . S
C2785 C2784 1.349 . S
C2785 C2801 1.349 . S
C2786 C2784 1.327 . S
C2786 C2805 1.429 . S
C2786 H2810 0.950 . S
C2787 C2804 1.574 . S
C2787 C2806 1.368 . S
C2787 H2811 0.949 . S
H2788 C2792 0.949 . S
C2789 C2790 1.349 . S
C2789 C2791 1.327 . S
C2789 H2812 0.950 . S
C2790 C2789 1.349 . S
C2790 C2802 1.349 . S
C2791 C2789 1.327 . S
C2791 C2807 1.429 . S
C2791 H2813 0.950 . S
C2792 H2788 0.949 . S
C2792 C2800 1.574 . S
C2792 C2808 1.368 . S
H2793 C2801 0.950 . S
H2794 C2799 0.950 . S
H2795 C2800 0.949 . S
H2796 C2802 0.950 . S
H2797 C2803 0.950 . S
H2798 C2804 0.949 . S
C2799 H2794 0.950 . S
C2799 C2801 1.327 . S
C2799 C2805 1.429 . S
C2800 C2792 1.574 . S
C2800 H2795 0.949 . S
C2800 C2806 1.368 . S
C2801 C2785 1.349 . S
C2801 H2793 0.950 . S
C2801 C2799 1.327 . S
C2802 C2790 1.349 . S
C2802 H2796 0.950 . S
C2802 C2803 1.327 . S
C2803 H2797 0.950 . S
C2803 C2802 1.327 . S
C2803 C2807 1.429 . S
C2804 C2787 1.574 . S
C2804 H2798 0.949 . S
C2804 C2808 1.368 . S
C2805 C2786 1.429 . S
C2805 C2799 1.429 . S
C2805 C2806 1.523 . S
C2806 C2787 1.368 . S
C2806 C2800 1.368 . S
C2806 C2805 1.523 . S
C2807 C2791 1.429 . S
C2807 C2803 1.429 . S
C2807 C2808 1.523 . S
C2808 C2792 1.368 . S
C2808 C2804 1.368 . S
C2808 C2807 1.523 . S
H2809 C2784 0.950 . S
H2810 C2786 0.950 . S
H2811 C2787 0.949 . S
H2812 C2789 0.950 . S
H2813 C2791 0.950 . S
C2814 C2815 1.349 . S
C2814 C2816 1.327 . S
C2814 H2839 0.950 . S
C2815 C2814 1.349 . S
C2815 C2831 1.349 . S
C2816 C2814 1.327 . S
C2816 C2835 1.429 . S
C2816 H2840 0.950 . S
C2817 C2834 1.574 . S
C2817 C2836 1.368 . S
C2817 H2841 0.949 . S
H2818 C2822 0.949 . S
C2819 C2820 1.349 . S
C2819 C2821 1.327 . S
C2819 H2842 0.950 . S
C2820 C2819 1.349 . S
C2820 C2832 1.349 . S
C2821 C2819 1.327 . S
C2821 C2837 1.429 . S
C2821 H2843 0.950 . S
C2822 H2818 0.949 . S
C2822 C2830 1.574 . S
C2822 C2838 1.368 . S
H2823 C2831 0.950 . S
H2824 C2829 0.950 . S
H2825 C2830 0.949 . S
H2826 C2832 0.950 . S
H2827 C2833 0.950 . S
H2828 C2834 0.949 . S
C2829 H2824 0.950 . S
C2829 C2831 1.327 . S
C2829 C2835 1.429 . S
C2830 C2822 1.574 . S
C2830 H2825 0.949 . S
C2830 C2836 1.368 . S
C2831 C2815 1.349 . S
C2831 H2823 0.950 . S
C2831 C2829 1.327 . S
C2832 C2820 1.349 . S
C2832 H2826 0.950 . S
C2832 C2833 1.327 . S
C2833 H2827 0.950 . S
C2833 C2832 1.327 . S
C2833 C2837 1.429 . S
C2834 C2817 1.574 . S
C2834 H2828 0.949 . S
C2834 C2838 1.368 . S
C2835 C2816 1.429 . S
C2835 C2829 1.429 . S
C2835 C2836 1.523 . S
C2836 C2817 1.368 . S
C2836 C2830 1.368 . S
C2836 C2835 1.523 . S
C2837 C2821 1.429 . S
C2837 C2833 1.429 . S
C2837 C2838 1.523 . S
C2838 C2822 1.368 . S
C2838 C2834 1.368 . S
C2838 C2837 1.523 . S
H2839 C2814 0.950 . S
H2840 C2816 0.950 . S
H2841 C2817 0.949 . S
H2842 C2819 0.950 . S
H2843 C2821 0.950 . S
C2844 C2845 1.349 . S
C2844 C2846 1.327 . S
C2844 H2869 0.950 . S
C2845 C2844 1.349 . S
C2845 C2861 1.349 . S
C2846 C2844 1.327 . S
C2846 C2865 1.429 . S
C2846 H2870 0.950 . S
C2847 C2864 1.574 . S
C2847 C2866 1.368 . S
C2847 H2871 0.949 . S
H2848 C2852 0.949 . S
C2849 C2850 1.349 . S
C2849 C2851 1.327 . S
C2849 H2872 0.950 . S
C2850 C2849 1.349 . S
C2850 C2862 1.349 . S
C2851 C2849 1.327 . S
C2851 C2867 1.429 . S
C2851 H2873 0.950 . S
C2852 H2848 0.949 . S
C2852 C2860 1.574 . S
C2852 C2868 1.368 . S
H2853 C2861 0.950 . S
H2854 C2859 0.950 . S
H2855 C2860 0.949 . S
H2856 C2862 0.950 . S
H2857 C2863 0.950 . S
H2858 C2864 0.949 . S
C2859 H2854 0.950 . S
C2859 C2861 1.327 . S
C2859 C2865 1.429 . S
C2860 C2852 1.574 . S
C2860 H2855 0.949 . S
C2860 C2866 1.368 . S
C2861 C2845 1.349 . S
C2861 H2853 0.950 . S
C2861 C2859 1.327 . S
C2862 C2850 1.349 . S
C2862 H2856 0.950 . S
C2862 C2863 1.327 . S
C2863 H2857 0.950 . S
C2863 C2862 1.327 . S
C2863 C2867 1.429 . S
C2864 C2847 1.574 . S
C2864 H2858 0.949 . S
C2864 C2868 1.368 . S
C2865 C2846 1.429 . S
C2865 C2859 1.429 . S
C2865 C2866 1.523 . S
C2866 C2847 1.368 . S
C2866 C2860 1.368 . S
C2866 C2865 1.523 . S
C2867 C2851 1.429 . S
C2867 C2863 1.429 . S
C2867 C2868 1.523 . S
C2868 C2852 1.368 . S
C2868 C2864 1.368 . S
C2868 C2867 1.523 . S
H2869 C2844 0.950 . S
H2870 C2846 0.950 . S
H2871 C2847 0.949 . S
H2872 C2849 0.950 . S
H2873 C2851 0.950 . S
C2874 C2875 1.349 . S
C2874 C2876 1.327 . S
C2874 H2899 0.950 . S
C2875 C2874 1.349 . S
C2875 C2891 1.349 . S
C2876 C2874 1.327 . S
C2876 C2895 1.429 . S
C2876 H2900 0.950 . S
C2877 C2894 1.574 . S
C2877 C2896 1.368 . S
C2877 H2901 0.949 . S
H2878 C2882 0.949 . S
C2879 C2880 1.349 . S
C2879 C2881 1.327 . S
C2879 H2902 0.950 . S
C2880 C2879 1.349 . S
C2880 C2892 1.349 . S
C2881 C2879 1.327 . S
C2881 C2897 1.429 . S
C2881 H2903 0.950 . S
C2882 H2878 0.949 . S
C2882 C2890 1.574 . S
C2882 C2898 1.368 . S
H2883 C2891 0.950 . S
H2884 C2889 0.950 . S
H2885 C2890 0.949 . S
H2886 C2892 0.950 . S
H2887 C2893 0.950 . S
H2888 C2894 0.949 . S
C2889 H2884 0.950 . S
C2889 C2891 1.327 . S
C2889 C2895 1.429 . S
C2890 C2882 1.574 . S
C2890 H2885 0.949 . S
C2890 C2896 1.368 . S
C2891 C2875 1.349 . S
C2891 H2883 0.950 . S
C2891 C2889 1.327 . S
C2892 C2880 1.349 . S
C2892 H2886 0.950 . S
C2892 C2893 1.327 . S
C2893 H2887 0.950 . S
C2893 C2892 1.327 . S
C2893 C2897 1.429 . S
C2894 C2877 1.574 . S
C2894 H2888 0.949 . S
C2894 C2898 1.368 . S
C2895 C2876 1.429 . S
C2895 C2889 1.429 . S
C2895 C2896 1.523 . S
C2896 C2877 1.368 . S
C2896 C2890 1.368 . S
C2896 C2895 1.523 . S
C2897 C2881 1.429 . S
C2897 C2893 1.429 . S
C2897 C2898 1.523 . S
C2898 C2882 1.368 . S
C2898 C2894 1.368 . S
C2898 C2897 1.523 . S
H2899 C2874 0.950 . S
H2900 C2876 0.950 . S
H2901 C2877 0.949 . S
H2902 C2879 0.950 . S
H2903 C2881 0.950 . S
C2904 C2905 1.349 . S
C2904 C2906 1.327 . S
C2904 H2929 0.950 . S
C2905 C2904 1.349 . S
C2905 C2921 1.349 . S
C2906 C2904 1.327 . S
C2906 C2925 1.429 . S
C2906 H2930 0.950 . S
C2907 C2924 1.574 . S
C2907 C2926 1.368 . S
C2907 H2931 0.949 . S
H2908 C2912 0.949 . S
C2909 C2910 1.349 . S
C2909 C2911 1.327 . S
C2909 H2932 0.950 . S
C2910 C2909 1.349 . S
C2910 C2922 1.349 . S
C2911 C2909 1.327 . S
C2911 C2927 1.429 . S
C2911 H2933 0.950 . S
C2912 H2908 0.949 . S
C2912 C2920 1.574 . S
C2912 C2928 1.368 . S
H2913 C2921 0.950 . S
H2914 C2919 0.950 . S
H2915 C2920 0.949 . S
H2916 C2922 0.950 . S
H2917 C2923 0.950 . S
H2918 C2924 0.949 . S
C2919 H2914 0.950 . S
C2919 C2921 1.327 . S
C2919 C2925 1.429 . S
C2920 C2912 1.574 . S
C2920 H2915 0.949 . S
C2920 C2926 1.368 . S
C2921 C2905 1.349 . S
C2921 H2913 0.950 . S
C2921 C2919 1.327 . S
C2922 C2910 1.349 . S
C2922 H2916 0.950 . S
C2922 C2923 1.327 . S
C2923 H2917 0.950 . S
C2923 C2922 1.327 . S
C2923 C2927 1.429 . S
C2924 C2907 1.574 . S
C2924 H2918 0.949 . S
C2924 C2928 1.368 . S
C2925 C2906 1.429 . S
C2925 C2919 1.429 . S
C2925 C2926 1.523 . S
C2926 C2907 1.368 . S
C2926 C2920 1.368 . S
C2926 C2925 1.523 . S
C2927 C2911 1.429 . S
C2927 C2923 1.429 . S
C2927 C2928 1.523 . S
C2928 C2912 1.368 . S
C2928 C2924 1.368 . S
C2928 C2927 1.523 . S
H2929 C2904 0.950 . S
H2930 C2906 0.950 . S
H2931 C2907 0.949 . S
H2932 C2909 0.950 . S
H2933 C2911 0.950 . S
C2934 C2935 1.349 . S
C2934 C2936 1.327 . S
C2934 H2959 0.950 . S
C2935 C2934 1.349 . S
C2935 C2951 1.349 . S
C2936 C2934 1.327 . S
C2936 C2955 1.429 . S
C2936 H2960 0.950 . S
C2937 C2954 1.574 . S
C2937 C2956 1.368 . S
C2937 H2961 0.949 . S
H2938 C2942 0.949 . S
C2939 C2940 1.349 . S
C2939 C2941 1.327 . S
C2939 H2962 0.950 . S
C2940 C2939 1.349 . S
C2940 C2952 1.349 . S
C2941 C2939 1.327 . S
C2941 C2957 1.429 . S
C2941 H2963 0.950 . S
C2942 H2938 0.949 . S
C2942 C2950 1.574 . S
C2942 C2958 1.368 . S
H2943 C2951 0.950 . S
H2944 C2949 0.950 . S
H2945 C2950 0.949 . S
H2946 C2952 0.950 . S
H2947 C2953 0.950 . S
H2948 C2954 0.949 . S
C2949 H2944 0.950 . S
C2949 C2951 1.327 . S
C2949 C2955 1.429 . S
C2950 C2942 1.574 . S
C2950 H2945 0.949 . S
C2950 C2956 1.368 . S
C2951 C2935 1.349 . S
C2951 H2943 0.950 . S
C2951 C2949 1.327 . S
C2952 C2940 1.349 . S
C2952 H2946 0.950 . S
C2952 C2953 1.327 . S
C2953 H2947 0.950 . S
C2953 C2952 1.327 . S
C2953 C2957 1.429 . S
C2954 C2937 1.574 . S
C2954 H2948 0.949 . S
C2954 C2958 1.368 . S
C2955 C2936 1.429 . S
C2955 C2949 1.429 . S
C2955 C2956 1.523 . S
C2956 C2937 1.368 . S
C2956 C2950 1.368 . S
C2956 C2955 1.523 . S
C2957 C2941 1.429 . S
C2957 C2953 1.429 . S
C2957 C2958 1.523 . S
C2958 C2942 1.368 . S
C2958 C2954 1.368 . S
C2958 C2957 1.523 . S
H2959 C2934 0.950 . S
H2960 C2936 0.950 . S
H2961 C2937 0.949 . S
H2962 C2939 0.950 . S
H2963 C2941 0.950 . S
C2964 C2965 1.349 . S
C2964 C2966 1.327 . S
C2964 H2989 0.950 . S
C2965 C2964 1.349 . S
C2965 C2981 1.349 . S
C2966 C2964 1.327 . S
C2966 C2985 1.429 . S
C2966 H2990 0.950 . S
C2967 C2984 1.574 . S
C2967 C2986 1.368 . S
C2967 H2991 0.949 . S
H2968 C2972 0.949 . S
C2969 C2970 1.349 . S
C2969 C2971 1.327 . S
C2969 H2992 0.950 . S
C2970 C2969 1.349 . S
C2970 C2982 1.349 . S
C2971 C2969 1.327 . S
C2971 C2987 1.429 . S
C2971 H2993 0.950 . S
C2972 H2968 0.949 . S
C2972 C2980 1.574 . S
C2972 C2988 1.368 . S
H2973 C2981 0.950 . S
H2974 C2979 0.950 . S
H2975 C2980 0.949 . S
H2976 C2982 0.950 . S
H2977 C2983 0.950 . S
H2978 C2984 0.949 . S
C2979 H2974 0.950 . S
C2979 C2981 1.327 . S
C2979 C2985 1.429 . S
C2980 C2972 1.574 . S
C2980 H2975 0.949 . S
C2980 C2986 1.368 . S
C2981 C2965 1.349 . S
C2981 H2973 0.950 . S
C2981 C2979 1.327 . S
C2982 C2970 1.349 . S
C2982 H2976 0.950 . S
C2982 C2983 1.327 . S
C2983 H2977 0.950 . S
C2983 C2982 1.327 . S
C2983 C2987 1.429 . S
C2984 C2967 1.574 . S
C2984 H2978 0.949 . S
C2984 C2988 1.368 . S
C2985 C2966 1.429 . S
C2985 C2979 1.429 . S
C2985 C2986 1.523 . S
C2986 C2967 1.368 . S
C2986 C2980 1.368 . S
C2986 C2985 1.523 . S
C2987 C2971 1.429 . S
C2987 C2983 1.429 . S
C2987 C2988 1.523 . S
C2988 C2972 1.368 . S
C2988 C2984 1.368 . S
C2988 C2987 1.523 . S
H2989 C2964 0.950 . S
H2990 C2966 0.950 . S
H2991 C2967 0.949 . S
H2992 C2969 0.950 . S
H2993 C2971 0.950 . S
C2994 C2995 1.349 . S
C2994 C2996 1.327 . S
C2994 H3019 0.950 . S
C2995 C2994 1.349 . S
C2995 C3011 1.349 . S
C2996 C2994 1.327 . S
C2996 C3015 1.429 . S
C2996 H3020 0.950 . S
C2997 C3014 1.574 . S
C2997 C3016 1.368 . S
C2997 H3021 0.949 . S
H2998 C3002 0.949 . S
C2999 C3000 1.349 . S
C2999 C3001 1.327 . S
C2999 H3022 0.950 . S
C3000 C2999 1.349 . S
C3000 C3012 1.349 . S
C3001 C2999 1.327 . S
C3001 C3017 1.429 . S
C3001 H3023 0.950 . S
C3002 H2998 0.949 . S
C3002 C3010 1.574 . S
C3002 C3018 1.368 . S
H3003 C3011 0.950 . S
H3004 C3009 0.950 . S
H3005 C3010 0.949 . S
H3006 C3012 0.950 . S
H3007 C3013 0.950 . S
H3008 C3014 0.949 . S
C3009 H3004 0.950 . S
C3009 C3011 1.327 . S
C3009 C3015 1.429 . S
C3010 C3002 1.574 . S
C3010 H3005 0.949 . S
C3010 C3016 1.368 . S
C3011 C2995 1.349 . S
C3011 H3003 0.950 . S
C3011 C3009 1.327 . S
C3012 C3000 1.349 . S
C3012 H3006 0.950 . S
C3012 C3013 1.327 . S
C3013 H3007 0.950 . S
C3013 C3012 1.327 . S
C3013 C3017 1.429 . S
C3014 C2997 1.574 . S
C3014 H3008 0.949 . S
C3014 C3018 1.368 . S
C3015 C2996 1.429 . S
C3015 C3009 1.429 . S
C3015 C3016 1.523 . S
C3016 C2997 1.368 . S
C3016 C3010 1.368 . S
C3016 C3015 1.523 . S
C3017 C3001 1.429 . S
C3017 C3013 1.429 . S
C3017 C3018 1.523 . S
C3018 C3002 1.368 . S
C3018 C3014 1.368 . S
C3018 C3017 1.523 . S
H3019 C2994 0.950 . S
H3020 C2996 0.950 . S
H3021 C2997 0.949 . S
H3022 C2999 0.950 . S
H3023 C3001 0.950 . S
C3024 C3025 1.349 . S
C3024 C3026 1.327 . S
C3024 H3049 0.950 . S
C3025 C3024 1.349 . S
C3025 C3041 1.349 . S
C3026 C3024 1.327 . S
C3026 C3045 1.429 . S
C3026 H3050 0.950 . S
C3027 C3044 1.574 . S
C3027 C3046 1.368 . S
C3027 H3051 0.949 . S
H3028 C3032 0.949 . S
C3029 C3030 1.349 . S
C3029 C3031 1.327 . S
C3029 H3052 0.950 . S
C3030 C3029 1.349 . S
C3030 C3042 1.349 . S
C3031 C3029 1.327 . S
C3031 C3047 1.429 . S
C3031 H3053 0.950 . S
C3032 H3028 0.949 . S
C3032 C3040 1.574 . S
C3032 C3048 1.368 . S
H3033 C3041 0.950 . S
H3034 C3039 0.950 . S
H3035 C3040 0.949 . S
H3036 C3042 0.950 . S
H3037 C3043 0.950 . S
H3038 C3044 0.949 . S
C3039 H3034 0.950 . S
C3039 C3041 1.327 . S
C3039 C3045 1.429 . S
C3040 C3032 1.574 . S
C3040 H3035 0.949 . S
C3040 C3046 1.368 . S
C3041 C3025 1.349 . S
C3041 H3033 0.950 . S
C3041 C3039 1.327 . S
C3042 C3030 1.349 . S
C3042 H3036 0.950 . S
C3042 C3043 1.327 . S
C3043 H3037 0.950 . S
C3043 C3042 1.327 . S
C3043 C3047 1.429 . S
C3044 C3027 1.574 . S
C3044 H3038 0.949 . S
C3044 C3048 1.368 . S
C3045 C3026 1.429 . S
C3045 C3039 1.429 . S
C3045 C3046 1.523 . S
C3046 C3027 1.368 . S
C3046 C3040 1.368 . S
C3046 C3045 1.523 . S
C3047 C3031 1.429 . S
C3047 C3043 1.429 . S
C3047 C3048 1.523 . S
C3048 C3032 1.368 . S
C3048 C3044 1.368 . S
C3048 C3047 1.523 . S
H3049 C3024 0.950 . S
H3050 C3026 0.950 . S
H3051 C3027 0.949 . S
H3052 C3029 0.950 . S
H3053 C3031 0.950 . S
C3054 C3055 1.349 . S
C3054 C3056 1.327 . S
C3054 H3079 0.950 . S
C3055 C3054 1.349 . S
C3055 C3071 1.349 . S
C3056 C3054 1.327 . S
C3056 C3075 1.429 . S
C3056 H3080 0.950 . S
C3057 C3074 1.574 . S
C3057 C3076 1.368 . S
C3057 H3081 0.949 . S
H3058 C3062 0.949 . S
C3059 C3060 1.349 . S
C3059 C3061 1.327 . S
C3059 H3082 0.950 . S
C3060 C3059 1.349 . S
C3060 C3072 1.349 . S
C3061 C3059 1.327 . S
C3061 C3077 1.429 . S
C3061 H3083 0.950 . S
C3062 H3058 0.949 . S
C3062 C3070 1.574 . S
C3062 C3078 1.368 . S
H3063 C3071 0.950 . S
H3064 C3069 0.950 . S
H3065 C3070 0.949 . S
H3066 C3072 0.950 . S
H3067 C3073 0.950 . S
H3068 C3074 0.949 . S
C3069 H3064 0.950 . S
C3069 C3071 1.327 . S
C3069 C3075 1.429 . S
C3070 C3062 1.574 . S
C3070 H3065 0.949 . S
C3070 C3076 1.368 . S
C3071 C3055 1.349 . S
C3071 H3063 0.950 . S
C3071 C3069 1.327 . S
C3072 C3060 1.349 . S
C3072 H3066 0.950 . S
C3072 C3073 1.327 . S
C3073 H3067 0.950 . S
C3073 C3072 1.327 . S
C3073 C3077 1.429 . S
C3074 C3057 1.574 . S
C3074 H3068 0.949 . S
C3074 C3078 1.368 . S
C3075 C3056 1.429 . S
C3075 C3069 1.429 . S
C3075 C3076 1.523 . S
C3076 C3057 1.368 . S
C3076 C3070 1.368 . S
C3076 C3075 1.523 . S
C3077 C3061 1.429 . S
C3077 C3073 1.429 . S
C3077 C3078 1.523 . S
C3078 C3062 1.368 . S
C3078 C3074 1.368 . S
C3078 C3077 1.523 . S
H3079 C3054 0.950 . S
H3080 C3056 0.950 . S
H3081 C3057 0.949 . S
H3082 C3059 0.950 . S
H3083 C3061 0.950 . S
C3084 C3085 1.349 . S
C3084 C3086 1.327 . S
C3084 H3109 0.950 . S
C3085 C3084 1.349 . S
C3085 C3101 1.349 . S
C3086 C3084 1.327 . S
C3086 C3105 1.429 . S
C3086 H3110 0.950 . S
C3087 C3104 1.574 . S
C3087 C3106 1.368 . S
C3087 H3111 0.949 . S
H3088 C3092 0.949 . S
C3089 C3090 1.349 . S
C3089 C3091 1.327 . S
C3089 H3112 0.950 . S
C3090 C3089 1.349 . S
C3090 C3102 1.349 . S
C3091 C3089 1.327 . S
C3091 C3107 1.429 . S
C3091 H3113 0.950 . S
C3092 H3088 0.949 . S
C3092 C3100 1.574 . S
C3092 C3108 1.368 . S
H3093 C3101 0.950 . S
H3094 C3099 0.950 . S
H3095 C3100 0.949 . S
H3096 C3102 0.950 . S
H3097 C3103 0.950 . S
H3098 C3104 0.949 . S
C3099 H3094 0.950 . S
C3099 C3101 1.327 . S
C3099 C3105 1.429 . S
C3100 C3092 1.574 . S
C3100 H3095 0.949 . S
C3100 C3106 1.368 . S
C3101 C3085 1.349 . S
C3101 H3093 0.950 . S
C3101 C3099 1.327 . S
C3102 C3090 1.349 . S
C3102 H3096 0.950 . S
C3102 C3103 1.327 . S
C3103 H3097 0.950 . S
C3103 C3102 1.327 . S
C3103 C3107 1.429 . S
C3104 C3087 1.574 . S
C3104 H3098 0.949 . S
C3104 C3108 1.368 . S
C3105 C3086 1.429 . S
C3105 C3099 1.429 . S
C3105 C3106 1.523 . S
C3106 C3087 1.368 . S
C3106 C3100 1.368 . S
C3106 C3105 1.523 . S
C3107 C3091 1.429 . S
C3107 C3103 1.429 . S
C3107 C3108 1.523 . S
C3108 C3092 1.368 . S
C3108 C3104 1.368 . S
C3108 C3107 1.523 . S
H3109 C3084 0.950 . S
H3110 C3086 0.950 . S
H3111 C3087 0.949 . S
H3112 C3089 0.950 . S
H3113 C3091 0.950 . S
C3114 C3115 1.349 . S
C3114 C3116 1.327 . S
C3114 H3139 0.950 . S
C3115 C3114 1.349 . S
C3115 C3131 1.349 . S
C3116 C3114 1.327 . S
C3116 C3135 1.429 . S
C3116 H3140 0.950 . S
C3117 C3134 1.574 . S
C3117 C3136 1.368 . S
C3117 H3141 0.949 . S
H3118 C3122 0.949 . S
C3119 C3120 1.349 . S
C3119 C3121 1.327 . S
C3119 H3142 0.950 . S
C3120 C3119 1.349 . S
C3120 C3132 1.349 . S
C3121 C3119 1.327 . S
C3121 C3137 1.429 . S
C3121 H3143 0.950 . S
C3122 H3118 0.949 . S
C3122 C3130 1.574 . S
C3122 C3138 1.368 . S
H3123 C3131 0.950 . S
H3124 C3129 0.950 . S
H3125 C3130 0.949 . S
H3126 C3132 0.950 . S
H3127 C3133 0.950 . S
H3128 C3134 0.949 . S
C3129 H3124 0.950 . S
C3129 C3131 1.327 . S
C3129 C3135 1.429 . S
C3130 C3122 1.574 . S
C3130 H3125 0.949 . S
C3130 C3136 1.368 . S
C3131 C3115 1.349 . S
C3131 H3123 0.950 . S
C3131 C3129 1.327 . S
C3132 C3120 1.349 . S
C3132 H3126 0.950 . S
C3132 C3133 1.327 . S
C3133 H3127 0.950 . S
C3133 C3132 1.327 . S
C3133 C3137 1.429 . S
C3134 C3117 1.574 . S
C3134 H3128 0.949 . S
C3134 C3138 1.368 . S
C3135 C3116 1.429 . S
C3135 C3129 1.429 . S
C3135 C3136 1.523 . S
C3136 C3117 1.368 . S
C3136 C3130 1.368 . S
C3136 C3135 1.523 . S
C3137 C3121 1.429 . S
C3137 C3133 1.429 . S
C3137 C3138 1.523 . S
C3138 C3122 1.368 . S
C3138 C3134 1.368 . S
C3138 C3137 1.523 . S
H3139 C3114 0.950 . S
H3140 C3116 0.950 . S
H3141 C3117 0.949 . S
H3142 C3119 0.950 . S
H3143 C3121 0.950 . S
C3144 C3145 1.349 . S
C3144 C3146 1.327 . S
C3144 H3169 0.950 . S
C3145 C3144 1.349 . S
C3145 C3161 1.349 . S
C3146 C3144 1.327 . S
C3146 C3165 1.429 . S
C3146 H3170 0.950 . S
C3147 C3164 1.574 . S
C3147 C3166 1.368 . S
C3147 H3171 0.949 . S
H3148 C3152 0.949 . S
C3149 C3150 1.349 . S
C3149 C3151 1.327 . S
C3149 H3172 0.950 . S
C3150 C3149 1.349 . S
C3150 C3162 1.349 . S
C3151 C3149 1.327 . S
C3151 C3167 1.429 . S
C3151 H3173 0.950 . S
C3152 H3148 0.949 . S
C3152 C3160 1.574 . S
C3152 C3168 1.368 . S
H3153 C3161 0.950 . S
H3154 C3159 0.950 . S
H3155 C3160 0.949 . S
H3156 C3162 0.950 . S
H3157 C3163 0.950 . S
H3158 C3164 0.949 . S
C3159 H3154 0.950 . S
C3159 C3161 1.327 . S
C3159 C3165 1.429 . S
C3160 C3152 1.574 . S
C3160 H3155 0.949 . S
C3160 C3166 1.368 . S
C3161 C3145 1.349 . S
C3161 H3153 0.950 . S
C3161 C3159 1.327 . S
C3162 C3150 1.349 . S
C3162 H3156 0.950 . S
C3162 C3163 1.327 . S
C3163 H3157 0.950 . S
C3163 C3162 1.327 . S
C3163 C3167 1.429 . S
C3164 C3147 1.574 . S
C3164 H3158 0.949 . S
C3164 C3168 1.368 . S
C3165 C3146 1.429 . S
C3165 C3159 1.429 . S
C3165 C3166 1.523 . S
C3166 C3147 1.368 . S
C3166 C3160 1.368 . S
C3166 C3165 1.523 . S
C3167 C3151 1.429 . S
C3167 C3163 1.429 . S
C3167 C3168 1.523 . S
C3168 C3152 1.368 . S
C3168 C3164 1.368 . S
C3168 C3167 1.523 . S
H3169 C3144 0.950 . S
H3170 C3146 0.950 . S
H3171 C3147 0.949 . S
H3172 C3149 0.950 . S
H3173 C3151 0.950 . S
C3174 C3175 1.349 . S
C3174 C3176 1.327 . S
C3174 H3199 0.950 . S
C3175 C3174 1.349 . S
C3175 C3191 1.349 . S
C3176 C3174 1.327 . S
C3176 C3195 1.429 . S
C3176 H3200 0.950 . S
C3177 C3194 1.574 . S
C3177 C3196 1.368 . S
C3177 H3201 0.949 . S
H3178 C3182 0.949 . S
C3179 C3180 1.349 . S
C3179 C3181 1.327 . S
C3179 H3202 0.950 . S
C3180 C3179 1.349 . S
C3180 C3192 1.349 . S
C3181 C3179 1.327 . S
C3181 C3197 1.429 . S
C3181 H3203 0.950 . S
C3182 H3178 0.949 . S
C3182 C3190 1.574 . S
C3182 C3198 1.368 . S
H3183 C3191 0.950 . S
H3184 C3189 0.950 . S
H3185 C3190 0.949 . S
H3186 C3192 0.950 . S
H3187 C3193 0.950 . S
H3188 C3194 0.949 . S
C3189 H3184 0.950 . S
C3189 C3191 1.327 . S
C3189 C3195 1.429 . S
C3190 C3182 1.574 . S
C3190 H3185 0.949 . S
C3190 C3196 1.368 . S
C3191 C3175 1.349 . S
C3191 H3183 0.950 . S
C3191 C3189 1.327 . S
C3192 C3180 1.349 . S
C3192 H3186 0.950 . S
C3192 C3193 1.327 . S
C3193 H3187 0.950 . S
C3193 C3192 1.327 . S
C3193 C3197 1.429 . S
C3194 C3177 1.574 . S
C3194 H3188 0.949 . S
C3194 C3198 1.368 . S
C3195 C3176 1.429 . S
C3195 C3189 1.429 . S
C3195 C3196 1.523 . S
C3196 C3177 1.368 . S
C3196 C3190 1.368 . S
C3196 C3195 1.523 . S
C3197 C3181 1.429 . S
C3197 C3193 1.429 . S
C3197 C3198 1.523 . S
C3198 C3182 1.368 . S
C3198 C3194 1.368 . S
C3198 C3197 1.523 . S
H3199 C3174 0.950 . S
H3200 C3176 0.950 . S
H3201 C3177 0.949 . S
H3202 C3179 0.950 . S
H3203 C3181 0.950 . S
C3204 C3205 1.349 . S
C3204 C3206 1.327 . S
C3204 H3229 0.950 . S
C3205 C3204 1.349 . S
C3205 C3221 1.349 . S
C3206 C3204 1.327 . S
C3206 C3225 1.429 . S
C3206 H3230 0.950 . S
C3207 C3224 1.574 1_455 S
C3207 C3226 1.368 . S
C3207 H3231 0.949 . S
H3208 C3212 0.949 . S
C3209 C3210 1.349 . S
C3209 C3211 1.327 . S
C3209 H3232 0.950 . S
C3210 C3209 1.349 . S
C3210 C3222 1.349 . S
C3211 C3209 1.327 . S
C3211 C3227 1.429 . S
C3211 H3233 0.950 . S
C3212 H3208 0.949 . S
C3212 C3220 1.574 1_655 S
C3212 C3228 1.368 . S
H3213 C3221 0.950 . S
H3214 C3219 0.950 . S
H3215 C3220 0.949 . S
H3216 C3222 0.950 . S
H3217 C3223 0.950 . S
H3218 C3224 0.949 . S
C3219 H3214 0.950 . S
C3219 C3221 1.327 . S
C3219 C3225 1.429 . S
C3220 C3212 1.574 1_455 S
C3220 H3215 0.949 . S
C3220 C3226 1.368 . S
C3221 C3205 1.349 . S
C3221 H3213 0.950 . S
C3221 C3219 1.327 . S
C3222 C3210 1.349 . S
C3222 H3216 0.950 . S
C3222 C3223 1.327 . S
C3223 H3217 0.950 . S
C3223 C3222 1.327 . S
C3223 C3227 1.429 . S
C3224 C3207 1.574 1_655 S
C3224 H3218 0.949 . S
C3224 C3228 1.368 . S
C3225 C3206 1.429 . S
C3225 C3219 1.429 . S
C3225 C3226 1.523 . S
C3226 C3207 1.368 . S
C3226 C3220 1.368 . S
C3226 C3225 1.523 . S
C3227 C3211 1.429 . S
C3227 C3223 1.429 . S
C3227 C3228 1.523 . S
C3228 C3212 1.368 . S
C3228 C3224 1.368 . S
C3228 C3227 1.523 . S
H3229 C3204 0.950 . S
H3230 C3206 0.950 . S
H3231 C3207 0.949 . S
H3232 C3209 0.950 . S
H3233 C3211 0.950 . S
C3234 C3235 1.349 . S
C3234 C3236 1.327 . S
C3234 H3259 0.950 . S
C3235 C3234 1.349 . S
C3235 C3251 1.349 . S
C3236 C3234 1.327 . S
C3236 C3255 1.429 . S
C3236 H3260 0.950 . S
C3237 C3254 1.574 . S
C3237 C3256 1.368 . S
C3237 H3261 0.949 . S
H3238 C3242 0.949 . S
C3239 C3240 1.349 . S
C3239 C3241 1.327 . S
C3239 H3262 0.950 . S
C3240 C3239 1.349 . S
C3240 C3252 1.349 . S
C3241 C3239 1.327 . S
C3241 C3257 1.429 . S
C3241 H3263 0.950 . S
C3242 H3238 0.949 . S
C3242 C3250 1.574 . S
C3242 C3258 1.368 . S
H3243 C3251 0.950 . S
H3244 C3249 0.950 . S
H3245 C3250 0.949 . S
H3246 C3252 0.950 . S
H3247 C3253 0.950 . S
H3248 C3254 0.949 . S
C3249 H3244 0.950 . S
C3249 C3251 1.327 . S
C3249 C3255 1.429 . S
C3250 C3242 1.574 . S
C3250 H3245 0.949 . S
C3250 C3256 1.368 . S
C3251 C3235 1.349 . S
C3251 H3243 0.950 . S
C3251 C3249 1.327 . S
C3252 C3240 1.349 . S
C3252 H3246 0.950 . S
C3252 C3253 1.327 . S
C3253 H3247 0.950 . S
C3253 C3252 1.327 . S
C3253 C3257 1.429 . S
C3254 C3237 1.574 . S
C3254 H3248 0.949 . S
C3254 C3258 1.368 . S
C3255 C3236 1.429 . S
C3255 C3249 1.429 . S
C3255 C3256 1.523 . S
C3256 C3237 1.368 . S
C3256 C3250 1.368 . S
C3256 C3255 1.523 . S
C3257 C3241 1.429 . S
C3257 C3253 1.429 . S
C3257 C3258 1.523 . S
C3258 C3242 1.368 . S
C3258 C3254 1.368 . S
C3258 C3257 1.523 . S
H3259 C3234 0.950 . S
H3260 C3236 0.950 . S
H3261 C3237 0.949 . S
H3262 C3239 0.950 . S
H3263 C3241 0.950 . S
C3264 C3265 1.349 . S
C3264 C3266 1.327 . S
C3264 H3289 0.950 . S
C3265 C3264 1.349 . S
C3265 C3281 1.349 . S
C3266 C3264 1.327 . S
C3266 C3285 1.429 . S
C3266 H3290 0.950 . S
C3267 C3284 1.574 1_565 S
C3267 C3286 1.368 . S
C3267 H3291 0.949 . S
H3268 C3272 0.949 . S
C3269 C3270 1.349 . S
C3269 C3271 1.327 . S
C3269 H3292 0.950 . S
C3270 C3269 1.349 . S
C3270 C3282 1.349 . S
C3271 C3269 1.327 . S
C3271 C3287 1.429 . S
C3271 H3293 0.950 . S
C3272 H3268 0.949 . S
C3272 C3280 1.574 1_545 S
C3272 C3288 1.368 . S
H3273 C3281 0.950 . S
H3274 C3279 0.950 . S
H3275 C3280 0.949 . S
H3276 C3282 0.950 . S
H3277 C3283 0.950 . S
H3278 C3284 0.949 . S
C3279 H3274 0.950 . S
C3279 C3281 1.327 . S
C3279 C3285 1.429 . S
C3280 C3272 1.574 1_565 S
C3280 H3275 0.949 . S
C3280 C3286 1.368 . S
C3281 C3265 1.349 . S
C3281 H3273 0.950 . S
C3281 C3279 1.327 . S
C3282 C3270 1.349 . S
C3282 H3276 0.950 . S
C3282 C3283 1.327 . S
C3283 H3277 0.950 . S
C3283 C3282 1.327 . S
C3283 C3287 1.429 . S
C3284 C3267 1.574 1_545 S
C3284 H3278 0.949 . S
C3284 C3288 1.368 . S
C3285 C3266 1.429 . S
C3285 C3279 1.429 . S
C3285 C3286 1.523 . S
C3286 C3267 1.368 . S
C3286 C3280 1.368 . S
C3286 C3285 1.523 . S
C3287 C3271 1.429 . S
C3287 C3283 1.429 . S
C3287 C3288 1.523 . S
C3288 C3272 1.368 . S
C3288 C3284 1.368 . S
C3288 C3287 1.523 . S
H3289 C3264 0.950 . S
H3290 C3266 0.950 . S
H3291 C3267 0.949 . S
H3292 C3269 0.950 . S
H3293 C3271 0.950 . S
C3294 C3295 1.349 . S
C3294 C3296 1.327 . S
C3294 H3319 0.950 . S
C3295 C3294 1.349 . S
C3295 C3311 1.349 . S
C3296 C3294 1.327 . S
C3296 C3315 1.429 . S
C3296 H3320 0.950 . S
C3297 C3314 1.574 1_545 S
C3297 C3316 1.368 . S
C3297 H3321 0.949 . S
H3298 C3302 0.949 . S
C3299 C3300 1.349 . S
C3299 C3301 1.327 . S
C3299 H3322 0.950 . S
C3300 C3299 1.349 . S
C3300 C3312 1.349 . S
C3301 C3299 1.327 . S
C3301 C3317 1.429 . S
C3301 H3323 0.950 . S
C3302 H3298 0.949 . S
C3302 C3310 1.574 1_565 S
C3302 C3318 1.368 . S
H3303 C3311 0.950 . S
H3304 C3309 0.950 . S
H3305 C3310 0.949 . S
H3306 C3312 0.950 . S
H3307 C3313 0.950 . S
H3308 C3314 0.949 . S
C3309 H3304 0.950 . S
C3309 C3311 1.327 . S
C3309 C3315 1.429 . S
C3310 C3302 1.574 1_545 S
C3310 H3305 0.949 . S
C3310 C3316 1.368 . S
C3311 C3295 1.349 . S
C3311 H3303 0.950 . S
C3311 C3309 1.327 . S
C3312 C3300 1.349 . S
C3312 H3306 0.950 . S
C3312 C3313 1.327 . S
C3313 H3307 0.950 . S
C3313 C3312 1.327 . S
C3313 C3317 1.429 . S
C3314 C3297 1.574 1_565 S
C3314 H3308 0.949 . S
C3314 C3318 1.368 . S
C3315 C3296 1.429 . S
C3315 C3309 1.429 . S
C3315 C3316 1.523 . S
C3316 C3297 1.368 . S
C3316 C3310 1.368 . S
C3316 C3315 1.523 . S
C3317 C3301 1.429 . S
C3317 C3313 1.429 . S
C3317 C3318 1.523 . S
C3318 C3302 1.368 . S
C3318 C3314 1.368 . S
C3318 C3317 1.523 . S
H3319 C3294 0.950 . S
H3320 C3296 0.950 . S
H3321 C3297 0.949 . S
H3322 C3299 0.950 . S
H3323 C3301 0.950 . S
C3324 C3325 1.349 . S
C3324 C3326 1.327 . S
C3324 H3349 0.950 . S
C3325 C3324 1.349 . S
C3325 C3341 1.349 . S
C3326 C3324 1.327 . S
C3326 C3345 1.429 . S
C3326 H3350 0.950 . S
C3327 C3344 1.574 1_655 S
C3327 C3346 1.368 . S
C3327 H3351 0.949 . S
H3328 C3332 0.949 . S
C3329 C3330 1.349 . S
C3329 C3331 1.327 . S
C3329 H3352 0.950 . S
C3330 C3329 1.349 . S
C3330 C3342 1.349 . S
C3331 C3329 1.327 . S
C3331 C3347 1.429 . S
C3331 H3353 0.950 . S
C3332 H3328 0.949 . S
C3332 C3340 1.574 1_455 S
C3332 C3348 1.368 . S
H3333 C3341 0.950 . S
H3334 C3339 0.950 . S
H3335 C3340 0.949 . S
H3336 C3342 0.950 . S
H3337 C3343 0.950 . S
H3338 C3344 0.949 . S
C3339 H3334 0.950 . S
C3339 C3341 1.327 . S
C3339 C3345 1.429 . S
C3340 C3332 1.574 1_655 S
C3340 H3335 0.949 . S
C3340 C3346 1.368 . S
C3341 C3325 1.349 . S
C3341 H3333 0.950 . S
C3341 C3339 1.327 . S
C3342 C3330 1.349 . S
C3342 H3336 0.950 . S
C3342 C3343 1.327 . S
C3343 H3337 0.950 . S
C3343 C3342 1.327 . S
C3343 C3347 1.429 . S
C3344 C3327 1.574 1_455 S
C3344 H3338 0.949 . S
C3344 C3348 1.368 . S
C3345 C3326 1.429 . S
C3345 C3339 1.429 . S
C3345 C3346 1.523 . S
C3346 C3327 1.368 . S
C3346 C3340 1.368 . S
C3346 C3345 1.523 . S
C3347 C3331 1.429 . S
C3347 C3343 1.429 . S
C3347 C3348 1.523 . S
C3348 C3332 1.368 . S
C3348 C3344 1.368 . S
C3348 C3347 1.523 . S
H3349 C3324 0.950 . S
H3350 C3326 0.950 . S
H3351 C3327 0.949 . S
H3352 C3329 0.950 . S
H3353 C3331 0.950 . S
C3354 C3355 1.349 . S
C3354 C3356 1.327 . S
C3354 H3379 0.950 . S
C3355 C3354 1.349 . S
C3355 C3371 1.349 . S
C3356 C3354 1.327 . S
C3356 C3375 1.429 . S
C3356 H3380 0.950 . S
C3357 C3374 1.574 . S
C3357 C3376 1.368 . S
C3357 H3381 0.949 . S
H3358 C3362 0.949 . S
C3359 C3360 1.349 . S
C3359 C3361 1.327 . S
C3359 H3382 0.950 . S
C3360 C3359 1.349 . S
C3360 C3372 1.349 . S
C3361 C3359 1.327 . S
C3361 C3377 1.429 . S
C3361 H3383 0.950 . S
C3362 H3358 0.949 . S
C3362 C3370 1.574 . S
C3362 C3378 1.368 . S
H3363 C3371 0.950 . S
H3364 C3369 0.950 . S
H3365 C3370 0.949 . S
H3366 C3372 0.950 . S
H3367 C3373 0.950 . S
H3368 C3374 0.949 . S
C3369 H3364 0.950 . S
C3369 C3371 1.327 . S
C3369 C3375 1.429 . S
C3370 C3362 1.574 . S
C3370 H3365 0.949 . S
C3370 C3376 1.368 . S
C3371 C3355 1.349 . S
C3371 H3363 0.950 . S
C3371 C3369 1.327 . S
C3372 C3360 1.349 . S
C3372 H3366 0.950 . S
C3372 C3373 1.327 . S
C3373 H3367 0.950 . S
C3373 C3372 1.327 . S
C3373 C3377 1.429 . S
C3374 C3357 1.574 . S
C3374 H3368 0.949 . S
C3374 C3378 1.368 . S
C3375 C3356 1.429 . S
C3375 C3369 1.429 . S
C3375 C3376 1.523 . S
C3376 C3357 1.368 . S
C3376 C3370 1.368 . S
C3376 C3375 1.523 . S
C3377 C3361 1.429 . S
C3377 C3373 1.429 . S
C3377 C3378 1.523 . S
C3378 C3362 1.368 . S
C3378 C3374 1.368 . S
C3378 C3377 1.523 . S
H3379 C3354 0.950 . S
H3380 C3356 0.950 . S
H3381 C3357 0.949 . S
H3382 C3359 0.950 . S
H3383 C3361 0.950 . S
C3384 C3385 1.349 . S
C3384 C3386 1.327 . S
C3384 H3409 0.950 . S
C3385 C3384 1.349 . S
C3385 C3401 1.349 . S
C3386 C3384 1.327 . S
C3386 C3405 1.429 . S
C3386 H3410 0.950 . S
C3387 C3404 1.574 . S
C3387 C3406 1.368 . S
C3387 H3411 0.949 . S
H3388 C3392 0.949 . S
C3389 C3390 1.349 . S
C3389 C3391 1.327 . S
C3389 H3412 0.950 . S
C3390 C3389 1.349 . S
C3390 C3402 1.349 . S
C3391 C3389 1.327 . S
C3391 C3407 1.429 . S
C3391 H3413 0.950 . S
C3392 H3388 0.949 . S
C3392 C3400 1.574 . S
C3392 C3408 1.368 . S
H3393 C3401 0.950 . S
H3394 C3399 0.950 . S
H3395 C3400 0.949 . S
H3396 C3402 0.950 . S
H3397 C3403 0.950 . S
H3398 C3404 0.949 . S
C3399 H3394 0.950 . S
C3399 C3401 1.327 . S
C3399 C3405 1.429 . S
C3400 C3392 1.574 . S
C3400 H3395 0.949 . S
C3400 C3406 1.368 . S
C3401 C3385 1.349 . S
C3401 H3393 0.950 . S
C3401 C3399 1.327 . S
C3402 C3390 1.349 . S
C3402 H3396 0.950 . S
C3402 C3403 1.327 . S
C3403 H3397 0.950 . S
C3403 C3402 1.327 . S
C3403 C3407 1.429 . S
C3404 C3387 1.574 . S
C3404 H3398 0.949 . S
C3404 C3408 1.368 . S
C3405 C3386 1.429 . S
C3405 C3399 1.429 . S
C3405 C3406 1.523 . S
C3406 C3387 1.368 . S
C3406 C3400 1.368 . S
C3406 C3405 1.523 . S
C3407 C3391 1.429 . S
C3407 C3403 1.429 . S
C3407 C3408 1.523 . S
C3408 C3392 1.368 . S
C3408 C3404 1.368 . S
C3408 C3407 1.523 . S
H3409 C3384 0.950 . S
H3410 C3386 0.950 . S
H3411 C3387 0.949 . S
H3412 C3389 0.950 . S
H3413 C3391 0.950 . S
C3414 C3415 1.349 . S
C3414 C3416 1.327 . S
C3414 H3439 0.950 . S
C3415 C3414 1.349 . S
C3415 C3431 1.349 . S
C3416 C3414 1.327 . S
C3416 C3435 1.429 . S
C3416 H3440 0.950 . S
C3417 C3434 1.574 . S
C3417 C3436 1.368 . S
C3417 H3441 0.949 . S
H3418 C3422 0.949 . S
C3419 C3420 1.349 . S
C3419 C3421 1.327 . S
C3419 H3442 0.950 . S
C3420 C3419 1.349 . S
C3420 C3432 1.349 . S
C3421 C3419 1.327 . S
C3421 C3437 1.429 . S
C3421 H3443 0.950 . S
C3422 H3418 0.949 . S
C3422 C3430 1.574 . S
C3422 C3438 1.368 . S
H3423 C3431 0.950 . S
H3424 C3429 0.950 . S
H3425 C3430 0.949 . S
H3426 C3432 0.950 . S
H3427 C3433 0.950 . S
H3428 C3434 0.949 . S
C3429 H3424 0.950 . S
C3429 C3431 1.327 . S
C3429 C3435 1.429 . S
C3430 C3422 1.574 . S
C3430 H3425 0.949 . S
C3430 C3436 1.368 . S
C3431 C3415 1.349 . S
C3431 H3423 0.950 . S
C3431 C3429 1.327 . S
C3432 C3420 1.349 . S
C3432 H3426 0.950 . S
C3432 C3433 1.327 . S
C3433 H3427 0.950 . S
C3433 C3432 1.327 . S
C3433 C3437 1.429 . S
C3434 C3417 1.574 . S
C3434 H3428 0.949 . S
C3434 C3438 1.368 . S
C3435 C3416 1.429 . S
C3435 C3429 1.429 . S
C3435 C3436 1.523 . S
C3436 C3417 1.368 . S
C3436 C3430 1.368 . S
C3436 C3435 1.523 . S
C3437 C3421 1.429 . S
C3437 C3433 1.429 . S
C3437 C3438 1.523 . S
C3438 C3422 1.368 . S
C3438 C3434 1.368 . S
C3438 C3437 1.523 . S
H3439 C3414 0.950 . S
H3440 C3416 0.950 . S
H3441 C3417 0.949 . S
H3442 C3419 0.950 . S
H3443 C3421 0.950 . S
C3444 C3445 1.349 . S
C3444 C3446 1.327 . S
C3444 H3469 0.950 . S
C3445 C3444 1.349 . S
C3445 C3461 1.349 . S
C3446 C3444 1.327 . S
C3446 C3465 1.429 . S
C3446 H3470 0.950 . S
C3447 C3464 1.574 . S
C3447 C3466 1.368 . S
C3447 H3471 0.949 . S
H3448 C3452 0.949 . S
C3449 C3450 1.349 . S
C3449 C3451 1.327 . S
C3449 H3472 0.950 . S
C3450 C3449 1.349 . S
C3450 C3462 1.349 . S
C3451 C3449 1.327 . S
C3451 C3467 1.429 . S
C3451 H3473 0.950 . S
C3452 H3448 0.949 . S
C3452 C3460 1.574 . S
C3452 C3468 1.368 . S
H3453 C3461 0.950 . S
H3454 C3459 0.950 . S
H3455 C3460 0.949 . S
H3456 C3462 0.950 . S
H3457 C3463 0.950 . S
H3458 C3464 0.949 . S
C3459 H3454 0.950 . S
C3459 C3461 1.327 . S
C3459 C3465 1.429 . S
C3460 C3452 1.574 . S
C3460 H3455 0.949 . S
C3460 C3466 1.368 . S
C3461 C3445 1.349 . S
C3461 H3453 0.950 . S
C3461 C3459 1.327 . S
C3462 C3450 1.349 . S
C3462 H3456 0.950 . S
C3462 C3463 1.327 . S
C3463 H3457 0.950 . S
C3463 C3462 1.327 . S
C3463 C3467 1.429 . S
C3464 C3447 1.574 . S
C3464 H3458 0.949 . S
C3464 C3468 1.368 . S
C3465 C3446 1.429 . S
C3465 C3459 1.429 . S
C3465 C3466 1.523 . S
C3466 C3447 1.368 . S
C3466 C3460 1.368 . S
C3466 C3465 1.523 . S
C3467 C3451 1.429 . S
C3467 C3463 1.429 . S
C3467 C3468 1.523 . S
C3468 C3452 1.368 . S
C3468 C3464 1.368 . S
C3468 C3467 1.523 . S
H3469 C3444 0.950 . S
H3470 C3446 0.950 . S
H3471 C3447 0.949 . S
H3472 C3449 0.950 . S
H3473 C3451 0.950 . S
C3474 C3475 1.349 . S
C3474 C3476 1.327 . S
C3474 H3499 0.950 . S
C3475 C3474 1.349 . S
C3475 C3491 1.349 . S
C3476 C3474 1.327 . S
C3476 C3495 1.429 . S
C3476 H3500 0.950 . S
C3477 C3494 1.574 . S
C3477 C3496 1.368 . S
C3477 H3501 0.949 . S
H3478 C3482 0.949 . S
C3479 C3480 1.349 . S
C3479 C3481 1.327 . S
C3479 H3502 0.950 . S
C3480 C3479 1.349 . S
C3480 C3492 1.349 . S
C3481 C3479 1.327 . S
C3481 C3497 1.429 . S
C3481 H3503 0.950 . S
C3482 H3478 0.949 . S
C3482 C3490 1.574 . S
C3482 C3498 1.368 . S
H3483 C3491 0.950 . S
H3484 C3489 0.950 . S
H3485 C3490 0.949 . S
H3486 C3492 0.950 . S
H3487 C3493 0.950 . S
H3488 C3494 0.949 . S
C3489 H3484 0.950 . S
C3489 C3491 1.327 . S
C3489 C3495 1.429 . S
C3490 C3482 1.574 . S
C3490 H3485 0.949 . S
C3490 C3496 1.368 . S
C3491 C3475 1.349 . S
C3491 H3483 0.950 . S
C3491 C3489 1.327 . S
C3492 C3480 1.349 . S
C3492 H3486 0.950 . S
C3492 C3493 1.327 . S
C3493 H3487 0.950 . S
C3493 C3492 1.327 . S
C3493 C3497 1.429 . S
C3494 C3477 1.574 . S
C3494 H3488 0.949 . S
C3494 C3498 1.368 . S
C3495 C3476 1.429 . S
C3495 C3489 1.429 . S
C3495 C3496 1.523 . S
C3496 C3477 1.368 . S
C3496 C3490 1.368 . S
C3496 C3495 1.523 . S
C3497 C3481 1.429 . S
C3497 C3493 1.429 . S
C3497 C3498 1.523 . S
C3498 C3482 1.368 . S
C3498 C3494 1.368 . S
C3498 C3497 1.523 . S
H3499 C3474 0.950 . S
H3500 C3476 0.950 . S
H3501 C3477 0.949 . S
H3502 C3479 0.950 . S
H3503 C3481 0.950 . S
C3504 C3505 1.349 . S
C3504 C3506 1.327 . S
C3504 H3529 0.950 . S
C3505 C3504 1.349 . S
C3505 C3521 1.349 . S
C3506 C3504 1.327 . S
C3506 C3525 1.429 . S
C3506 H3530 0.950 . S
C3507 C3524 1.574 . S
C3507 C3526 1.368 . S
C3507 H3531 0.949 . S
H3508 C3512 0.949 . S
C3509 C3510 1.349 . S
C3509 C3511 1.327 . S
C3509 H3532 0.950 . S
C3510 C3509 1.349 . S
C3510 C3522 1.349 . S
C3511 C3509 1.327 . S
C3511 C3527 1.429 . S
C3511 H3533 0.950 . S
C3512 H3508 0.949 . S
C3512 C3520 1.574 . S
C3512 C3528 1.368 . S
H3513 C3521 0.950 . S
H3514 C3519 0.950 . S
H3515 C3520 0.949 . S
H3516 C3522 0.950 . S
H3517 C3523 0.950 . S
H3518 C3524 0.949 . S
C3519 H3514 0.950 . S
C3519 C3521 1.327 . S
C3519 C3525 1.429 . S
C3520 C3512 1.574 . S
C3520 H3515 0.949 . S
C3520 C3526 1.368 . S
C3521 C3505 1.349 . S
C3521 H3513 0.950 . S
C3521 C3519 1.327 . S
C3522 C3510 1.349 . S
C3522 H3516 0.950 . S
C3522 C3523 1.327 . S
C3523 H3517 0.950 . S
C3523 C3522 1.327 . S
C3523 C3527 1.429 . S
C3524 C3507 1.574 . S
C3524 H3518 0.949 . S
C3524 C3528 1.368 . S
C3525 C3506 1.429 . S
C3525 C3519 1.429 . S
C3525 C3526 1.523 . S
C3526 C3507 1.368 . S
C3526 C3520 1.368 . S
C3526 C3525 1.523 . S
C3527 C3511 1.429 . S
C3527 C3523 1.429 . S
C3527 C3528 1.523 . S
C3528 C3512 1.368 . S
C3528 C3524 1.368 . S
C3528 C3527 1.523 . S
H3529 C3504 0.950 . S
H3530 C3506 0.950 . S
H3531 C3507 0.949 . S
H3532 C3509 0.950 . S
H3533 C3511 0.950 . S
C3534 C3535 1.349 . S
C3534 C3536 1.327 . S
C3534 H3559 0.950 . S
C3535 C3534 1.349 . S
C3535 C3551 1.349 . S
C3536 C3534 1.327 . S
C3536 C3555 1.429 . S
C3536 H3560 0.950 . S
C3537 C3554 1.574 . S
C3537 C3556 1.368 . S
C3537 H3561 0.949 . S
H3538 C3542 0.949 . S
C3539 C3540 1.349 . S
C3539 C3541 1.327 . S
C3539 H3562 0.950 . S
C3540 C3539 1.349 . S
C3540 C3552 1.349 . S
C3541 C3539 1.327 . S
C3541 C3557 1.429 . S
C3541 H3563 0.950 . S
C3542 H3538 0.949 . S
C3542 C3550 1.574 . S
C3542 C3558 1.368 . S
H3543 C3551 0.950 . S
H3544 C3549 0.950 . S
H3545 C3550 0.949 . S
H3546 C3552 0.950 . S
H3547 C3553 0.950 . S
H3548 C3554 0.949 . S
C3549 H3544 0.950 . S
C3549 C3551 1.327 . S
C3549 C3555 1.429 . S
C3550 C3542 1.574 . S
C3550 H3545 0.949 . S
C3550 C3556 1.368 . S
C3551 C3535 1.349 . S
C3551 H3543 0.950 . S
C3551 C3549 1.327 . S
C3552 C3540 1.349 . S
C3552 H3546 0.950 . S
C3552 C3553 1.327 . S
C3553 H3547 0.950 . S
C3553 C3552 1.327 . S
C3553 C3557 1.429 . S
C3554 C3537 1.574 . S
C3554 H3548 0.949 . S
C3554 C3558 1.368 . S
C3555 C3536 1.429 . S
C3555 C3549 1.429 . S
C3555 C3556 1.523 . S
C3556 C3537 1.368 . S
C3556 C3550 1.368 . S
C3556 C3555 1.523 . S
C3557 C3541 1.429 . S
C3557 C3553 1.429 . S
C3557 C3558 1.523 . S
C3558 C3542 1.368 . S
C3558 C3554 1.368 . S
C3558 C3557 1.523 . S
H3559 C3534 0.950 . S
H3560 C3536 0.950 . S
H3561 C3537 0.949 . S
H3562 C3539 0.950 . S
H3563 C3541 0.950 . S
C3564 C3565 1.349 . S
C3564 C3566 1.327 . S
C3564 H3589 0.950 . S
C3565 C3564 1.349 . S
C3565 C3581 1.349 . S
C3566 C3564 1.327 . S
C3566 C3585 1.429 . S
C3566 H3590 0.950 . S
C3567 C3584 1.574 . S
C3567 C3586 1.368 . S
C3567 H3591 0.949 . S
H3568 C3572 0.949 . S
C3569 C3570 1.349 . S
C3569 C3571 1.327 . S
C3569 H3592 0.950 . S
C3570 C3569 1.349 . S
C3570 C3582 1.349 . S
C3571 C3569 1.327 . S
C3571 C3587 1.429 . S
C3571 H3593 0.950 . S
C3572 H3568 0.949 . S
C3572 C3580 1.574 . S
C3572 C3588 1.368 . S
H3573 C3581 0.950 . S
H3574 C3579 0.950 . S
H3575 C3580 0.949 . S
H3576 C3582 0.950 . S
H3577 C3583 0.950 . S
H3578 C3584 0.949 . S
C3579 H3574 0.950 . S
C3579 C3581 1.327 . S
C3579 C3585 1.429 . S
C3580 C3572 1.574 . S
C3580 H3575 0.949 . S
C3580 C3586 1.368 . S
C3581 C3565 1.349 . S
C3581 H3573 0.950 . S
C3581 C3579 1.327 . S
C3582 C3570 1.349 . S
C3582 H3576 0.950 . S
C3582 C3583 1.327 . S
C3583 H3577 0.950 . S
C3583 C3582 1.327 . S
C3583 C3587 1.429 . S
C3584 C3567 1.574 . S
C3584 H3578 0.949 . S
C3584 C3588 1.368 . S
C3585 C3566 1.429 . S
C3585 C3579 1.429 . S
C3585 C3586 1.523 . S
C3586 C3567 1.368 . S
C3586 C3580 1.368 . S
C3586 C3585 1.523 . S
C3587 C3571 1.429 . S
C3587 C3583 1.429 . S
C3587 C3588 1.523 . S
C3588 C3572 1.368 . S
C3588 C3584 1.368 . S
C3588 C3587 1.523 . S
H3589 C3564 0.950 . S
H3590 C3566 0.950 . S
H3591 C3567 0.949 . S
H3592 C3569 0.950 . S
H3593 C3571 0.950 . S
C3594 C3595 1.349 . S
C3594 C3596 1.327 . S
C3594 H3619 0.950 . S
C3595 C3594 1.349 . S
C3595 C3611 1.349 . S
C3596 C3594 1.327 . S
C3596 C3615 1.429 . S
C3596 H3620 0.950 . S
C3597 C3614 1.574 . S
C3597 C3616 1.368 . S
C3597 H3621 0.949 . S
H3598 C3602 0.949 . S
C3599 C3600 1.349 . S
C3599 C3601 1.327 . S
C3599 H3622 0.950 . S
C3600 C3599 1.349 . S
C3600 C3612 1.349 . S
C3601 C3599 1.327 . S
C3601 C3617 1.429 . S
C3601 H3623 0.950 . S
C3602 H3598 0.949 . S
C3602 C3610 1.574 . S
C3602 C3618 1.368 . S
H3603 C3611 0.950 . S
H3604 C3609 0.950 . S
H3605 C3610 0.949 . S
H3606 C3612 0.950 . S
H3607 C3613 0.950 . S
H3608 C3614 0.949 . S
C3609 H3604 0.950 . S
C3609 C3611 1.327 . S
C3609 C3615 1.429 . S
C3610 C3602 1.574 . S
C3610 H3605 0.949 . S
C3610 C3616 1.368 . S
C3611 C3595 1.349 . S
C3611 H3603 0.950 . S
C3611 C3609 1.327 . S
C3612 C3600 1.349 . S
C3612 H3606 0.950 . S
C3612 C3613 1.327 . S
C3613 H3607 0.950 . S
C3613 C3612 1.327 . S
C3613 C3617 1.429 . S
C3614 C3597 1.574 . S
C3614 H3608 0.949 . S
C3614 C3618 1.368 . S
C3615 C3596 1.429 . S
C3615 C3609 1.429 . S
C3615 C3616 1.523 . S
C3616 C3597 1.368 . S
C3616 C3610 1.368 . S
C3616 C3615 1.523 . S
C3617 C3601 1.429 . S
C3617 C3613 1.429 . S
C3617 C3618 1.523 . S
C3618 C3602 1.368 . S
C3618 C3614 1.368 . S
C3618 C3617 1.523 . S
H3619 C3594 0.950 . S
H3620 C3596 0.950 . S
H3621 C3597 0.949 . S
H3622 C3599 0.950 . S
H3623 C3601 0.950 . S
C3624 C3625 1.349 . S
C3624 C3626 1.327 . S
C3624 H3649 0.950 . S
C3625 C3624 1.349 . S
C3625 C3641 1.349 . S
C3626 C3624 1.327 . S
C3626 C3645 1.429 . S
C3626 H3650 0.950 . S
C3627 C3644 1.574 . S
C3627 C3646 1.368 . S
C3627 H3651 0.949 . S
H3628 C3632 0.949 . S
C3629 C3630 1.349 . S
C3629 C3631 1.327 . S
C3629 H3652 0.950 . S
C3630 C3629 1.349 . S
C3630 C3642 1.349 . S
C3631 C3629 1.327 . S
C3631 C3647 1.429 . S
C3631 H3653 0.950 . S
C3632 H3628 0.949 . S
C3632 C3640 1.574 . S
C3632 C3648 1.368 . S
H3633 C3641 0.950 . S
H3634 C3639 0.950 . S
H3635 C3640 0.949 . S
H3636 C3642 0.950 . S
H3637 C3643 0.950 . S
H3638 C3644 0.949 . S
C3639 H3634 0.950 . S
C3639 C3641 1.327 . S
C3639 C3645 1.429 . S
C3640 C3632 1.574 . S
C3640 H3635 0.949 . S
C3640 C3646 1.368 . S
C3641 C3625 1.349 . S
C3641 H3633 0.950 . S
C3641 C3639 1.327 . S
C3642 C3630 1.349 . S
C3642 H3636 0.950 . S
C3642 C3643 1.327 . S
C3643 H3637 0.950 . S
C3643 C3642 1.327 . S
C3643 C3647 1.429 . S
C3644 C3627 1.574 . S
C3644 H3638 0.949 . S
C3644 C3648 1.368 . S
C3645 C3626 1.429 . S
C3645 C3639 1.429 . S
C3645 C3646 1.523 . S
C3646 C3627 1.368 . S
C3646 C3640 1.368 . S
C3646 C3645 1.523 . S
C3647 C3631 1.429 . S
C3647 C3643 1.429 . S
C3647 C3648 1.523 . S
C3648 C3632 1.368 . S
C3648 C3644 1.368 . S
C3648 C3647 1.523 . S
H3649 C3624 0.950 . S
H3650 C3626 0.950 . S
H3651 C3627 0.949 . S
H3652 C3629 0.950 . S
H3653 C3631 0.950 . S
C3654 C3655 1.349 . S
C3654 C3656 1.327 . S
C3654 H3679 0.950 . S
C3655 C3654 1.349 . S
C3655 C3671 1.349 . S
C3656 C3654 1.327 . S
C3656 C3675 1.429 . S
C3656 H3680 0.950 . S
C3657 C3674 1.574 . S
C3657 C3676 1.368 . S
C3657 H3681 0.949 . S
H3658 C3662 0.949 . S
C3659 C3660 1.349 . S
C3659 C3661 1.327 . S
C3659 H3682 0.950 . S
C3660 C3659 1.349 . S
C3660 C3672 1.349 . S
C3661 C3659 1.327 . S
C3661 C3677 1.429 . S
C3661 H3683 0.950 . S
C3662 H3658 0.949 . S
C3662 C3670 1.574 . S
C3662 C3678 1.368 . S
H3663 C3671 0.950 . S
H3664 C3669 0.950 . S
H3665 C3670 0.949 . S
H3666 C3672 0.950 . S
H3667 C3673 0.950 . S
H3668 C3674 0.949 . S
C3669 H3664 0.950 . S
C3669 C3671 1.327 . S
C3669 C3675 1.429 . S
C3670 C3662 1.574 . S
C3670 H3665 0.949 . S
C3670 C3676 1.368 . S
C3671 C3655 1.349 . S
C3671 H3663 0.950 . S
C3671 C3669 1.327 . S
C3672 C3660 1.349 . S
C3672 H3666 0.950 . S
C3672 C3673 1.327 . S
C3673 H3667 0.950 . S
C3673 C3672 1.327 . S
C3673 C3677 1.429 . S
C3674 C3657 1.574 . S
C3674 H3668 0.949 . S
C3674 C3678 1.368 . S
C3675 C3656 1.429 . S
C3675 C3669 1.429 . S
C3675 C3676 1.523 . S
C3676 C3657 1.368 . S
C3676 C3670 1.368 . S
C3676 C3675 1.523 . S
C3677 C3661 1.429 . S
C3677 C3673 1.429 . S
C3677 C3678 1.523 . S
C3678 C3662 1.368 . S
C3678 C3674 1.368 . S
C3678 C3677 1.523 . S
H3679 C3654 0.950 . S
H3680 C3656 0.950 . S
H3681 C3657 0.949 . S
H3682 C3659 0.950 . S
H3683 C3661 0.950 . S
C3684 C3685 1.349 . S
C3684 C3686 1.327 . S
C3684 H3709 0.950 . S
C3685 C3684 1.349 . S
C3685 C3701 1.349 . S
C3686 C3684 1.327 . S
C3686 C3705 1.429 . S
C3686 H3710 0.950 . S
C3687 C3704 1.574 . S
C3687 C3706 1.368 . S
C3687 H3711 0.949 . S
H3688 C3692 0.949 . S
C3689 C3690 1.349 . S
C3689 C3691 1.327 . S
C3689 H3712 0.950 . S
C3690 C3689 1.349 . S
C3690 C3702 1.349 . S
C3691 C3689 1.327 . S
C3691 C3707 1.429 . S
C3691 H3713 0.950 . S
C3692 H3688 0.949 . S
C3692 C3700 1.574 . S
C3692 C3708 1.368 . S
H3693 C3701 0.950 . S
H3694 C3699 0.950 . S
H3695 C3700 0.949 . S
H3696 C3702 0.950 . S
H3697 C3703 0.950 . S
H3698 C3704 0.949 . S
C3699 H3694 0.950 . S
C3699 C3701 1.327 . S
C3699 C3705 1.429 . S
C3700 C3692 1.574 . S
C3700 H3695 0.949 . S
C3700 C3706 1.368 . S
C3701 C3685 1.349 . S
C3701 H3693 0.950 . S
C3701 C3699 1.327 . S
C3702 C3690 1.349 . S
C3702 H3696 0.950 . S
C3702 C3703 1.327 . S
C3703 H3697 0.950 . S
C3703 C3702 1.327 . S
C3703 C3707 1.429 . S
C3704 C3687 1.574 . S
C3704 H3698 0.949 . S
C3704 C3708 1.368 . S
C3705 C3686 1.429 . S
C3705 C3699 1.429 . S
C3705 C3706 1.523 . S
C3706 C3687 1.368 . S
C3706 C3700 1.368 . S
C3706 C3705 1.523 . S
C3707 C3691 1.429 . S
C3707 C3703 1.429 . S
C3707 C3708 1.523 . S
C3708 C3692 1.368 . S
C3708 C3704 1.368 . S
C3708 C3707 1.523 . S
H3709 C3684 0.950 . S
H3710 C3686 0.950 . S
H3711 C3687 0.949 . S
H3712 C3689 0.950 . S
H3713 C3691 0.950 . S
C3714 C3715 1.349 . S
C3714 C3716 1.327 . S
C3714 H3739 0.950 . S
C3715 C3714 1.349 . S
C3715 C3731 1.349 . S
C3716 C3714 1.327 . S
C3716 C3735 1.429 . S
C3716 H3740 0.950 . S
C3717 C3734 1.574 . S
C3717 C3736 1.368 . S
C3717 H3741 0.949 . S
H3718 C3722 0.949 . S
C3719 C3720 1.349 . S
C3719 C3721 1.327 . S
C3719 H3742 0.950 . S
C3720 C3719 1.349 . S
C3720 C3732 1.349 . S
C3721 C3719 1.327 . S
C3721 C3737 1.429 . S
C3721 H3743 0.950 . S
C3722 H3718 0.949 . S
C3722 C3730 1.574 . S
C3722 C3738 1.368 . S
H3723 C3731 0.950 . S
H3724 C3729 0.950 . S
H3725 C3730 0.949 . S
H3726 C3732 0.950 . S
H3727 C3733 0.950 . S
H3728 C3734 0.949 . S
C3729 H3724 0.950 . S
C3729 C3731 1.327 . S
C3729 C3735 1.429 . S
C3730 C3722 1.574 . S
C3730 H3725 0.949 . S
C3730 C3736 1.368 . S
C3731 C3715 1.349 . S
C3731 H3723 0.950 . S
C3731 C3729 1.327 . S
C3732 C3720 1.349 . S
C3732 H3726 0.950 . S
C3732 C3733 1.327 . S
C3733 H3727 0.950 . S
C3733 C3732 1.327 . S
C3733 C3737 1.429 . S
C3734 C3717 1.574 . S
C3734 H3728 0.949 . S
C3734 C3738 1.368 . S
C3735 C3716 1.429 . S
C3735 C3729 1.429 . S
C3735 C3736 1.523 . S
C3736 C3717 1.368 . S
C3736 C3730 1.368 . S
C3736 C3735 1.523 . S
C3737 C3721 1.429 . S
C3737 C3733 1.429 . S
C3737 C3738 1.523 . S
C3738 C3722 1.368 . S
C3738 C3734 1.368 . S
C3738 C3737 1.523 . S
H3739 C3714 0.950 . S
H3740 C3716 0.950 . S
H3741 C3717 0.949 . S
H3742 C3719 0.950 . S
H3743 C3721 0.950 . S
C3744 C3745 1.349 . S
C3744 C3746 1.327 . S
C3744 H3769 0.950 . S
C3745 C3744 1.349 . S
C3745 C3761 1.349 . S
C3746 C3744 1.327 . S
C3746 C3765 1.429 . S
C3746 H3770 0.950 . S
C3747 C3764 1.574 . S
C3747 C3766 1.368 . S
C3747 H3771 0.949 . S
H3748 C3752 0.949 . S
C3749 C3750 1.349 . S
C3749 C3751 1.327 . S
C3749 H3772 0.950 . S
C3750 C3749 1.349 . S
C3750 C3762 1.349 . S
C3751 C3749 1.327 . S
C3751 C3767 1.429 . S
C3751 H3773 0.950 . S
C3752 H3748 0.949 . S
C3752 C3760 1.574 . S
C3752 C3768 1.368 . S
H3753 C3761 0.950 . S
H3754 C3759 0.950 . S
H3755 C3760 0.949 . S
H3756 C3762 0.950 . S
H3757 C3763 0.950 . S
H3758 C3764 0.949 . S
C3759 H3754 0.950 . S
C3759 C3761 1.327 . S
C3759 C3765 1.429 . S
C3760 C3752 1.574 . S
C3760 H3755 0.949 . S
C3760 C3766 1.368 . S
C3761 C3745 1.349 . S
C3761 H3753 0.950 . S
C3761 C3759 1.327 . S
C3762 C3750 1.349 . S
C3762 H3756 0.950 . S
C3762 C3763 1.327 . S
C3763 H3757 0.950 . S
C3763 C3762 1.327 . S
C3763 C3767 1.429 . S
C3764 C3747 1.574 . S
C3764 H3758 0.949 . S
C3764 C3768 1.368 . S
C3765 C3746 1.429 . S
C3765 C3759 1.429 . S
C3765 C3766 1.523 . S
C3766 C3747 1.368 . S
C3766 C3760 1.368 . S
C3766 C3765 1.523 . S
C3767 C3751 1.429 . S
C3767 C3763 1.429 . S
C3767 C3768 1.523 . S
C3768 C3752 1.368 . S
C3768 C3764 1.368 . S
C3768 C3767 1.523 . S
H3769 C3744 0.950 . S
H3770 C3746 0.950 . S
H3771 C3747 0.949 . S
H3772 C3749 0.950 . S
H3773 C3751 0.950 . S
C3774 C3775 1.349 . S
C3774 C3776 1.327 . S
C3774 H3799 0.950 . S
C3775 C3774 1.349 . S
C3775 C3791 1.349 . S
C3776 C3774 1.327 . S
C3776 C3795 1.429 . S
C3776 H3800 0.950 . S
C3777 C3794 1.574 1_545 S
C3777 C3796 1.368 . S
C3777 H3801 0.949 . S
H3778 C3782 0.949 . S
C3779 C3780 1.349 . S
C3779 C3781 1.327 . S
C3779 H3802 0.950 . S
C3780 C3779 1.349 . S
C3780 C3792 1.349 . S
C3781 C3779 1.327 . S
C3781 C3797 1.429 . S
C3781 H3803 0.950 . S
C3782 H3778 0.949 . S
C3782 C3790 1.574 1_565 S
C3782 C3798 1.368 . S
H3783 C3791 0.950 . S
H3784 C3789 0.950 . S
H3785 C3790 0.949 . S
H3786 C3792 0.950 . S
H3787 C3793 0.950 . S
H3788 C3794 0.949 . S
C3789 H3784 0.950 . S
C3789 C3791 1.327 . S
C3789 C3795 1.429 . S
C3790 C3782 1.574 1_545 S
C3790 H3785 0.949 . S
C3790 C3796 1.368 . S
C3791 C3775 1.349 . S
C3791 H3783 0.950 . S
C3791 C3789 1.327 . S
C3792 C3780 1.349 . S
C3792 H3786 0.950 . S
C3792 C3793 1.327 . S
C3793 H3787 0.950 . S
C3793 C3792 1.327 . S
C3793 C3797 1.429 . S
C3794 C3777 1.574 1_565 S
C3794 H3788 0.949 . S
C3794 C3798 1.368 . S
C3795 C3776 1.429 . S
C3795 C3789 1.429 . S
C3795 C3796 1.523 . S
C3796 C3777 1.368 . S
C3796 C3790 1.368 . S
C3796 C3795 1.523 . S
C3797 C3781 1.429 . S
C3797 C3793 1.429 . S
C3797 C3798 1.523 . S
C3798 C3782 1.368 . S
C3798 C3794 1.368 . S
C3798 C3797 1.523 . S
H3799 C3774 0.950 . S
H3800 C3776 0.950 . S
H3801 C3777 0.949 . S
H3802 C3779 0.950 . S
H3803 C3781 0.950 . S
C3804 C3805 1.349 . S
C3804 C3806 1.327 . S
C3804 H3829 0.950 . S
C3805 C3804 1.349 . S
C3805 C3821 1.349 . S
C3806 C3804 1.327 . S
C3806 C3825 1.429 . S
C3806 H3830 0.950 . S
C3807 C3824 1.574 1_655 S
C3807 C3826 1.368 . S
C3807 H3831 0.949 . S
H3808 C3812 0.949 . S
C3809 C3810 1.349 . S
C3809 C3811 1.327 . S
C3809 H3832 0.950 . S
C3810 C3809 1.349 . S
C3810 C3822 1.349 . S
C3811 C3809 1.327 . S
C3811 C3827 1.429 . S
C3811 H3833 0.950 . S
C3812 H3808 0.949 . S
C3812 C3820 1.574 1_455 S
C3812 C3828 1.368 . S
H3813 C3821 0.950 . S
H3814 C3819 0.950 . S
H3815 C3820 0.949 . S
H3816 C3822 0.950 . S
H3817 C3823 0.950 . S
H3818 C3824 0.949 . S
C3819 H3814 0.950 . S
C3819 C3821 1.327 . S
C3819 C3825 1.429 . S
C3820 C3812 1.574 1_655 S
C3820 H3815 0.949 . S
C3820 C3826 1.368 . S
C3821 C3805 1.349 . S
C3821 H3813 0.950 . S
C3821 C3819 1.327 . S
C3822 C3810 1.349 . S
C3822 H3816 0.950 . S
C3822 C3823 1.327 . S
C3823 H3817 0.950 . S
C3823 C3822 1.327 . S
C3823 C3827 1.429 . S
C3824 C3807 1.574 1_455 S
C3824 H3818 0.949 . S
C3824 C3828 1.368 . S
C3825 C3806 1.429 . S
C3825 C3819 1.429 . S
C3825 C3826 1.523 . S
C3826 C3807 1.368 . S
C3826 C3820 1.368 . S
C3826 C3825 1.523 . S
C3827 C3811 1.429 . S
C3827 C3823 1.429 . S
C3827 C3828 1.523 . S
C3828 C3812 1.368 . S
C3828 C3824 1.368 . S
C3828 C3827 1.523 . S
H3829 C3804 0.950 . S
H3830 C3806 0.950 . S
H3831 C3807 0.949 . S
H3832 C3809 0.950 . S
H3833 C3811 0.950 . S
C3834 C3835 1.349 . S
C3834 C3836 1.327 . S
C3834 H3859 0.986 . S
C3835 C3834 1.349 . S
C3835 C3851 1.349 . S
C3836 C3834 1.327 . S
C3836 C3855 1.429 . S
C3836 H3860 0.950 1_556 S
C3837 C3854 1.574 . S
C3837 C3856 1.368 . S
C3837 H3861 0.949 . S
H3838 C3842 0.949 . S
C3839 C3840 1.349 . S
C3839 C3841 1.327 . S
C3839 H3862 0.986 . S
C3840 C3839 1.349 . S
C3840 C3852 1.349 . S
C3841 C3839 1.327 . S
C3841 C3857 1.429 . S
C3841 H3863 0.950 1_554 S
C3842 H3838 0.949 . S
C3842 C3850 1.574 . S
C3842 C3858 1.368 . S
H3843 C3851 0.950 . S
H3844 C3849 0.950 . S
H3845 C3850 0.949 . S
H3846 C3852 0.950 . S
H3847 C3853 0.950 . S
H3848 C3854 0.949 . S
C3849 H3844 0.950 . S
C3849 C3851 1.327 . S
C3849 C3855 1.429 . S
C3850 C3842 1.574 . S
C3850 H3845 0.949 . S
C3850 C3856 1.368 1_554 S
C3851 C3835 1.349 . S
C3851 H3843 0.950 . S
C3851 C3849 1.327 . S
C3852 C3840 1.349 . S
C3852 H3846 0.950 . S
C3852 C3853 1.327 . S
C3853 H3847 0.950 . S
C3853 C3852 1.327 . S
C3853 C3857 1.429 . S
C3854 C3837 1.574 . S
C3854 H3848 0.949 . S
C3854 C3858 1.368 1_556 S
C3855 C3836 1.429 . S
C3855 C3849 1.429 . S
C3855 C3856 1.523 . S
C3856 C3837 1.368 . S
C3856 C3850 1.368 1_556 S
C3856 C3855 1.523 . S
C3857 C3841 1.429 . S
C3857 C3853 1.429 . S
C3857 C3858 1.523 . S
C3858 C3842 1.368 . S
C3858 C3854 1.368 1_554 S
C3858 C3857 1.523 . S
H3859 C3834 0.986 . S
H3860 C3836 0.950 1_554 S
H3861 C3837 0.949 . S
H3862 C3839 0.986 . S
H3863 C3841 0.950 1_556 S
C3864 C3865 1.349 . S
C3864 C3866 1.327 . S
C3864 H3889 0.950 . S
C3865 C3864 1.349 . S
C3865 C3881 1.349 . S
C3866 C3864 1.327 . S
C3866 C3885 1.429 . S
C3866 H3890 0.950 . S
C3867 C3884 1.574 . S
C3867 C3886 1.368 1_554 S
C3867 H3891 0.949 . S
H3868 C3872 0.949 . S
C3869 C3870 1.349 . S
C3869 C3871 1.327 . S
C3869 H3892 0.950 . S
C3870 C3869 1.349 . S
C3870 C3882 1.349 . S
C3871 C3869 1.327 . S
C3871 C3887 1.429 . S
C3871 H3893 0.950 . S
C3872 H3868 0.949 . S
C3872 C3880 1.574 . S
C3872 C3888 1.368 1_556 S
H3873 C3881 0.950 . S
H3874 C3879 0.950 . S
H3875 C3880 0.949 . S
H3876 C3882 0.950 . S
H3877 C3883 0.950 . S
H3878 C3884 0.949 . S
C3879 H3874 0.950 . S
C3879 C3881 1.327 . S
C3879 C3885 1.429 . S
C3880 C3872 1.574 . S
C3880 H3875 0.949 . S
C3880 C3886 1.368 1_565 S
C3881 C3865 1.349 . S
C3881 H3873 0.950 . S
C3881 C3879 1.327 . S
C3882 C3870 1.349 . S
C3882 H3876 0.950 . S
C3882 C3883 1.327 . S
C3883 H3877 0.950 . S
C3883 C3882 1.327 . S
C3883 C3887 1.429 . S
C3884 C3867 1.574 . S
C3884 H3878 0.949 . S
C3884 C3888 1.368 1_545 S
C3885 C3866 1.429 . S
C3885 C3879 1.429 . S
C3885 C3886 1.523 . S
C3886 C3867 1.368 1_556 S
C3886 C3880 1.368 1_545 S
C3886 C3885 1.523 . S
C3887 C3871 1.429 . S
C3887 C3883 1.429 . S
C3887 C3888 1.523 . S
C3888 C3872 1.368 1_554 S
C3888 C3884 1.368 1_565 S
C3888 C3887 1.523 . S
H3889 C3864 0.950 . S
H3890 C3866 0.950 . S
H3891 C3867 0.949 . S
H3892 C3869 0.950 . S
H3893 C3871 0.950 . S
C3894 C3895 1.349 . S
C3894 C3896 1.327 . S
C3894 H3919 0.950 . S
C3895 C3894 1.349 . S
C3895 C3911 1.349 . S
C3896 C3894 1.327 . S
C3896 C3915 1.429 . S
C3896 H3920 0.950 . S
C3897 C3914 1.574 1_554 S
C3897 C3916 1.368 1_655 S
C3897 H3921 0.949 . S
H3898 C3902 0.949 . S
C3899 C3900 1.349 . S
C3899 C3901 1.327 . S
C3899 H3922 0.950 . S
C3900 C3899 1.349 . S
C3900 C3912 1.349 . S
C3901 C3899 1.327 . S
C3901 C3917 1.429 . S
C3901 H3923 0.950 . S
C3902 H3898 0.949 . S
C3902 C3910 1.574 1_556 S
C3902 C3918 1.368 1_455 S
H3903 C3911 0.950 . S
H3904 C3909 0.950 . S
H3905 C3910 0.949 . S
H3906 C3912 0.950 . S
H3907 C3913 0.950 . S
H3908 C3914 0.949 . S
C3909 H3904 0.950 . S
C3909 C3911 1.327 . S
C3909 C3915 1.429 . S
C3910 C3902 1.574 1_554 S
C3910 H3905 0.949 . S
C3910 C3916 1.368 . S
C3911 C3895 1.349 . S
C3911 H3903 0.950 . S
C3911 C3909 1.327 . S
C3912 C3900 1.349 . S
C3912 H3906 0.950 . S
C3912 C3913 1.327 . S
C3913 H3907 0.950 . S
C3913 C3912 1.327 . S
C3913 C3917 1.429 . S
C3914 C3897 1.574 1_556 S
C3914 H3908 0.949 . S
C3914 C3918 1.368 . S
C3915 C3896 1.429 . S
C3915 C3909 1.429 . S
C3915 C3916 1.523 . S
C3916 C3897 1.368 1_455 S
C3916 C3910 1.368 . S
C3916 C3915 1.523 . S
C3917 C3901 1.429 . S
C3917 C3913 1.429 . S
C3917 C3918 1.523 . S
C3918 C3902 1.368 1_655 S
C3918 C3914 1.368 . S
C3918 C3917 1.523 . S
H3919 C3894 0.950 . S
H3920 C3896 0.950 . S
H3921 C3897 0.949 . S
H3922 C3899 0.950 . S
H3923 C3901 0.950 . S
C1225 C9 1.138 . S
C1230 C70 1.235 . S
C1255 C43 1.146 . S
C1260 C2 1.244 . S
C1285 C77 1.115 . S
C1290 C36 1.208 . S
C1315 C111 1.138 . S
C1320 C138 1.235 . S
C1345 C145 1.115 . S
C1350 C172 1.208 . S
C1375 C179 1.147 . S
C1380 C104 1.244 . S
C1405 C274 1.234 . S
C1410 C213 1.138 . S
C1435 C206 1.244 . S
C1440 C247 1.147 . S
C1465 C240 1.207 . S
C1470 C281 1.116 . S
C1495 C342 1.234 . S
C1500 C315 1.139 . S
C1525 C349 1.115 . S
C1530 C376 1.208 . S
C1555 C308 1.244 . S
C1560 C383 1.147 . S
C1585 C417 1.123 . S
C1590 C478 1.217 . S
C1615 C410 1.220 . S
C1620 C451 1.126 . S
C1645 C485 1.122 . S
C1650 C444 1.217 . S
C1675 C519 1.132 . S
C1680 C546 1.227 . S
C1705 C553 1.130 . S
C1710 C580 1.224 . S
C1735 C587 1.124 . S
C1740 C512 1.219 . S
C1765 C682 1.226 . S
C1770 C621 1.131 . S
C1795 C655 1.124 . S
C1800 C614 1.219 . S
C1825 C648 1.224 . S
C1830 C689 1.129 . S
C1855 C723 1.123 . S
C1860 C750 1.217 . S
C1885 C757 1.122 . S
C1890 C784 1.216 . S
C1915 C791 1.127 . S
C1920 C716 1.220 . S
C1945 C825 1.131 . S
C1950 C886 1.226 . S
C1975 C818 1.219 . S
C1980 C859 1.124 . S
C2005 C852 1.224 . S
C2010 C893 1.129 . S
C2035 C954 1.217 . S
C2040 C927 1.123 . S
C2065 C988 1.216 . S
C2070 C961 1.122 . S
C2095 C920 1.220 . S
C2100 C995 1.127 . S
C2125 C1090 1.217 . S
C2130 C1029 1.123 . S
C2155 C1022 1.220 . S
C2160 C1063 1.126 . S
C2185 C1097 1.122 . S
C2190 C1056 1.217 . S
C2215 C1158 1.227 . S
C2220 C1131 1.132 . S
C2245 C1192 1.224 . S
C2250 C1165 1.130 . S
C2275 C1124 1.219 . S
C2280 C1199 1.124 . S
C2305 C169 1.069 . S
C2310 C33 1.065 . S
C2335 C203 1.087 . S
C2340 C67 1.087 . S
C2365 C101 1.069 . S
C2370 C135 1.064 . S
C2395 C373 1.069 . S
C2400 C237 1.065 . S
C2425 C271 1.087 . S
C2430 C407 1.087 . S
C2455 C305 1.069 . S
C2460 C339 1.064 . S
C2485 C441 1.089 . S
C2490 C577 1.090 . S
C2515 C611 1.089 . S
C2520 C475 1.089 . S
C2545 C543 1.089 . S
C2550 C509 1.089 . S
C2575 C645 1.089 . S
C2580 C781 1.089 . S
C2605 C679 1.089 . S
C2610 C815 1.089 . S
C2635 C747 1.089 . S
C2640 C713 1.089 . S
C2665 C849 1.089 . S
C2670 C985 1.089 . S
C2695 C883 1.089 . S
C2700 C1019 1.089 . S
C2725 C951 1.089 . S
C2730 C917 1.089 . S
C2755 C1053 1.089 . S
C2760 C1189 1.090 . S
C2785 C1087 1.089 . S
C2790 C1223 1.089 . S
C2815 C1155 1.089 . S
C2820 C1121 1.089 . S
C2845 C1006 1.868 . S
C2850 C20 1.867 . S
C2875 C938 1.877 . S
C2880 C54 1.877 . S
C2905 C88 1.857 . S
C2910 C972 1.852 . S
C2935 C122 1.867 . S
C2940 C462 1.868 . S
C2965 C496 1.857 . S
C2970 C156 1.851 . S
C2995 C190 1.877 . S
C3000 C428 1.877 . S
C3025 C224 1.867 . S
C3030 C802 1.868 . S
C3055 C258 1.877 . S
C3060 C734 1.877 . S
C3085 C768 1.857 . S
C3090 C292 1.851 . S
C3115 C1074 1.868 . S
C3120 C326 1.867 . S
C3145 C360 1.857 . S
C3150 C1108 1.852 . S
C3175 C394 1.877 . S
C3180 C1040 1.877 . S
C3205 C870 1.888 . S
C3210 C530 1.888 . S
C3235 C564 1.897 . S
C3240 C904 1.897 . S
C3265 C836 1.888 . S
C3270 C598 1.888 . S
C3295 C632 1.888 . S
C3300 C1210 1.888 . S
C3325 C666 1.888 . S
C3330 C1142 1.888 . S
C3355 C700 1.897 . S
C3360 C1176 1.897 . S
C3385 C5 1.454 . S
C3390 C617 1.461 . S
C3415 C651 1.415 . S
C3420 C39 1.414 . S
C3445 C685 1.437 . S
C3450 C73 1.440 . S
C3475 C107 1.454 . S
C3480 C1127 1.461 . S
C3505 C1161 1.437 . S
C3510 C141 1.440 . S
C3535 C175 1.414 . S
C3540 C1195 1.415 . S
C3565 C821 1.455 . S
C3570 C209 1.461 . S
C3595 C243 1.414 . S
C3600 C855 1.415 . S
C3625 C277 1.437 . S
C3630 C889 1.440 . S
C3655 C311 1.454 . S
C3660 C515 1.461 . S
C3685 C345 1.437 . S
C3690 C549 1.441 . S
C3715 C583 1.415 . S
C3720 C379 1.414 . S
C3745 C1025 1.422 . S
C3750 C413 1.422 . S
C3775 C447 1.440 . S
C3780 C1059 1.440 . S
C3805 C481 1.427 . S
C3810 C1093 1.427 . S
C3835 C719 1.422 . S
C3840 C923 1.422 . S
C3865 C753 1.426 . S
C3870 C957 1.426 . S
C3895 C991 1.440 . S
C3900 C787 1.440 . S
