# Generated by pormake.
# Topology ukg, (4)-cn, num edge types: 1
# Building blocks:
#     Node 0, Type 0, BuildingBlock: QUQFOY_clean_sbu_1, # of connection points: 4
#     Node 1, Type 0, BuildingBlock: QUQFOY_clean_sbu_1, # of connection points: 4
#     Node 2, Type 0, BuildingBlock: QUQFOY_clean_sbu_1, # of connection points: 4
#     Node 3, Type 0, BuildingBlock: QUQFOY_clean_sbu_1, # of connection points: 4
#     Node 4, Type 0, BuildingBlock: QUQFOY_clean_sbu_1, # of connection points: 4
#     Node 5, Type 0, BuildingBlock: QUQFOY_clean_sbu_1, # of connection points: 4
#     Node 6, Type 0, BuildingBlock: QUQFOY_clean_sbu_1, # of connection points: 4
#     Node 7, Type 0, BuildingBlock: QUQFOY_clean_sbu_1, # of connection points: 4
#     Edge 8, Type (0, 0), BuildingBlock: CIFDUS_clean_linker_0, # of connection points: 2
#     Edge 9, Type (0, 0), BuildingBlock: CIFDUS_clean_linker_0, # of connection points: 2
#     Edge 10, Type (0, 0), BuildingBlock: CIFDUS_clean_linker_0, # of connection points: 2
#     Edge 11, Type (0, 0), BuildingBlock: CIFDUS_clean_linker_0, # of connection points: 2
#     Edge 12, Type (0, 0), BuildingBlock: CIFDUS_clean_linker_0, # of connection points: 2
#     Edge 13, Type (0, 0), BuildingBlock: CIFDUS_clean_linker_0, # of connection points: 2
#     Edge 14, Type (0, 0), BuildingBlock: CIFDUS_clean_linker_0, # of connection points: 2
#     Edge 15, Type (0, 0), BuildingBlock: CIFDUS_clean_linker_0, # of connection points: 2
#     Edge 16, Type (0, 0), BuildingBlock: CIFDUS_clean_linker_0, # of connection points: 2
#     Edge 17, Type (0, 0), BuildingBlock: CIFDUS_clean_linker_0, # of connection points: 2
#     Edge 18, Type (0, 0), BuildingBlock: CIFDUS_clean_linker_0, # of connection points: 2
#     Edge 19, Type (0, 0), BuildingBlock: CIFDUS_clean_linker_0, # of connection points: 2
#     Edge 20, Type (0, 0), BuildingBlock: CIFDUS_clean_linker_0, # of connection points: 2
#     Edge 21, Type (0, 0), BuildingBlock: CIFDUS_clean_linker_0, # of connection points: 2
#     Edge 22, Type (0, 0), BuildingBlock: CIFDUS_clean_linker_0, # of connection points: 2
#     Edge 23, Type (0, 0), BuildingBlock: CIFDUS_clean_linker_0, # of connection points: 2
# Relax obj value: 0.024
# Max RMSD: 0.117
# Mean RMSD: 0.117
data_MOF--net-ukg--node1-QUQFOY_clean_sbu_1--edge1-CIFDUS_clean_linker_0
_symmetry_space_group_name_H-M    P1
_symmetry_Int_Tables_number       1
_symmetry_cell_setting            triclinic
loop_
_symmetry_equiv_pos_as_xyz
'x, y, z'
_cell_length_a     28.379787
_cell_length_b     28.621942
_cell_length_c     32.249136
_cell_angle_alpha  89.761046
_cell_angle_beta   90.313296
_cell_angle_gamma 89.930547
loop_
_atom_site_label
_atom_site_type_symbol
_atom_site_fract_x
_atom_site_fract_y
_atom_site_fract_z
_atom_type_partial_charge
O0 O 0.95766 0.62571 0.20945 0.0
Cd1 Cd 0.98155 0.65804 0.1564 0.0
Cd2 Cd 0.05178 0.68359 0.21472 0.0
O3 O 0.01951 0.63347 0.25104 0.0
O4 O 0.94692 0.62616 0.11034 0.0
O5 O 0.02391 0.61984 0.11954 0.0
C6 C 0.98636 0.6075 0.09953 0.0
C7 C 0.13139 0.70212 0.22262 0.0
C8 C 0.97871 0.61729 0.24354 0.0
C9 C 0.98603 0.75803 0.17816 0.0
O10 O 0.01537 0.7442 0.20537 0.0
O11 O 0.96914 0.72958 0.15176 0.0
O12 O 0.102 0.70709 0.25247 0.0
O13 O 0.11654 0.68279 0.1889 0.0
O14 O 0.40325 0.45562 0.72492 0.0
Cd15 Cd 0.36515 0.47273 0.67244 0.0
Cd16 Cd 0.33315 0.53999 0.72782 0.0
O17 O 0.38259 0.5119 0.76803 0.0
O18 O 0.39786 0.43777 0.6274 0.0
O19 O 0.39694 0.51485 0.63074 0.0
C20 C 0.41179 0.47736 0.61278 0.0
C21 C 0.31695 0.6196 0.72406 0.0
C22 C 0.40652 0.47558 0.75994 0.0
C23 C 0.26325 0.4691 0.69488 0.0
O24 O 0.27307 0.50213 0.71951 0.0
O25 O 0.29467 0.45229 0.67115 0.0
O26 O 0.30786 0.59547 0.75683 0.0
O27 O 0.33887 0.59914 0.69416 0.0
O28 O 0.55948 0.86756 0.21682 0.0
Cd29 Cd 0.52695 0.83986 0.16518 0.0
Cd30 Cd 0.45702 0.84301 0.21568 0.0
O31 O 0.49471 0.89516 0.24526 0.0
O32 O 0.55781 0.86599 0.11451 0.0
O33 O 0.48483 0.88345 0.13304 0.0
C34 C 0.51993 0.89025 0.1083 0.0
C35 C 0.37574 0.83739 0.20914 0.0
C36 C 0.53939 0.89235 0.24414 0.0
C37 C 0.50346 0.75022 0.19892 0.0
O38 O 0.48204 0.77655 0.22418 0.0
O39 O 0.52138 0.76758 0.16625 0.0
O40 O 0.39608 0.83695 0.24496 0.0
O41 O 0.40116 0.84718 0.17714 0.0
O42 O 0.12199 0.0387 0.71701 0.0
Cd43 Cd 0.1618 0.01254 0.66944 0.0
Cd44 Cd 0.18471 0.94956 0.73216 0.0
O45 O 0.13431 0.98526 0.7656 0.0
O46 O 0.13122 0.03963 0.61873 0.0
O47 O 0.13103 0.96404 0.63331 0.0
C48 C 0.11678 0.9981 0.60989 0.0
C49 C 0.19472 0.86925 0.73763 0.0
C50 C 0.11431 0.02245 0.75303 0.0
C51 C 0.26203 0.01122 0.6975 0.0
O52 O 0.24814 0.9818 0.72426 0.0
O53 O 0.2336 0.02813 0.67064 0.0
O54 O 0.20195 0.89629 0.7688 0.0
O55 O 0.17842 0.88741 0.70373 0.0
O56 O 0.06 0.3667 0.83891 0.0
Cd57 Cd 0.03026 0.33844 0.89133 0.0
Cd58 Cd 0.96133 0.32092 0.83405 0.0
O59 O 0.99594 0.37165 0.79981 0.0
O60 O 0.06381 0.36898 0.93865 0.0
O61 O 0.98815 0.38021 0.92516 0.0
C62 C 0.02504 0.39048 0.94701 0.0
C63 C 0.88006 0.30911 0.82983 0.0
C64 C 0.03924 0.38052 0.80611 0.0
C65 C 0.02107 0.24062 0.86751 0.0
O66 O 0.99478 0.25769 0.83927 0.0
O67 O 0.03667 0.2665 0.89646 0.0
O68 O 0.90674 0.30396 0.79806 0.0
O69 O 0.89888 0.32461 0.86362 0.0
O70 O 0.62563 0.55009 0.33355 0.0
Cd71 Cd 0.66142 0.52791 0.38581 0.0
Cd72 Cd 0.68844 0.46102 0.3292 0.0
O73 O 0.64172 0.49358 0.28924 0.0
O74 O 0.62994 0.56223 0.43188 0.0
O75 O 0.62672 0.48547 0.42537 0.0
C76 C 0.61363 0.52274 0.44471 0.0
C77 C 0.70026 0.38054 0.33092 0.0
C78 C 0.6211 0.53167 0.29795 0.0
C79 C 0.76294 0.52647 0.36349 0.0
O80 O 0.75059 0.49512 0.338 0.0
O81 O 0.73302 0.54405 0.38824 0.0
O82 O 0.71039 0.40513 0.29868 0.0
O83 O 0.67961 0.4012 0.36141 0.0
O84 O 0.44367 0.14722 0.85046 0.0
Cd85 Cd 0.47598 0.16742 0.90487 0.0
Cd86 Cd 0.545 0.18371 0.84984 0.0
O87 O 0.50649 0.14082 0.81065 0.0
O88 O 0.44269 0.13419 0.95084 0.0
O89 O 0.51734 0.12102 0.93533 0.0
C90 C 0.48092 0.11078 0.95752 0.0
C91 C 0.62697 0.19084 0.84908 0.0
C92 C 0.46249 0.13568 0.81633 0.0
C93 C 0.49106 0.26563 0.88705 0.0
O94 O 0.51657 0.24867 0.85861 0.0
O95 O 0.47335 0.23893 0.91444 0.0
O96 O 0.60156 0.20177 0.81732 0.0
O97 O 0.60622 0.17122 0.88016 0.0
O98 O 0.90196 0.96384 0.32767 0.0
Cd99 Cd 0.86534 0.98693 0.37843 0.0
Cd100 Cd 0.83263 0.0493 0.31784 0.0
O101 O 0.88067 0.01587 0.28022 0.0
O102 O 0.90055 0.95875 0.42636 0.0
O103 O 0.89657 0.03486 0.41499 0.0
C104 C 0.91353 1.00038 0.43642 0.0
C105 C 0.81802 0.12909 0.31238 0.0
C106 C 0.90427 0.9801 0.29105 0.0
C107 C 0.76302 0.98215 0.35682 0.0
O108 O 0.77234 0.01327 0.32999 0.0
O109 O 0.79488 0.96682 0.38132 0.0
O110 O 0.80899 0.10115 0.28222 0.0
O111 O 0.83826 0.11226 0.34516 0.0
H112 H 0.95359 0.45149 0.96389 0.0
H113 H 0.09525 0.41469 1.00091 0.0
H114 H 0.09679 0.47963 0.04967 0.0
H115 H 0.05813 0.54728 0.08194 0.0
H116 H 0.91624 0.58373 0.0454 0.0
H117 H 0.91489 0.51914 0.9962 0.0
C118 C 0.98466 0.45743 0.98286 0.0
C119 C 0.02414 0.42799 0.97876 0.0
C120 C 0.98552 0.49523 1.01071 0.0
C121 C 0.06425 0.43658 1.00341 0.0
C122 C 0.06527 0.4739 0.03126 0.0
C123 C 0.02708 0.54139 0.06292 0.0
C124 C 0.98746 0.57058 0.06728 0.0
C125 C 0.02624 0.50365 0.03503 0.0
C126 C 0.94733 0.56198 0.04267 0.0
C127 C 0.94642 0.52488 1.01459 0.0
H128 H 0.46317 0.55217 0.58633 0.0
H129 H 0.43912 0.40582 0.5627 0.0
H130 H 0.50036 0.40633 0.50985 0.0
H131 H 0.56156 0.44805 0.47062 0.0
H132 H 0.58593 0.59429 0.49462 0.0
H133 H 0.52438 0.59387 0.54714 0.0
C134 C 0.47101 0.5205 0.56934 0.0
C135 C 0.44635 0.4791 0.57841 0.0
C136 C 0.50683 0.52083 0.5393 0.0
C137 C 0.45741 0.43825 0.55636 0.0
C138 C 0.4926 0.43843 0.52618 0.0
C139 C 0.55369 0.47973 0.48757 0.0
C140 C 0.57858 0.52106 0.47872 0.0
C141 C 0.51782 0.47941 0.51758 0.0
C142 C 0.56751 0.5619 0.5008 0.0
C143 C 0.53213 0.56178 0.53079 0.0
H144 H 0.45026 0.95422 0.09396 0.0
H145 H 0.5866 0.91034 0.04999 0.0
H146 H 0.58728 0.975 1.00034 0.0
H147 H 0.54984 0.04519 0.97005 0.0
H148 H 0.41341 0.08869 1.01416 0.0
H149 H 0.4124 0.02349 0.06309 0.0
C150 C 0.47997 0.9585 0.07328 0.0
C151 C 0.51825 0.92723 0.07575 0.0
C152 C 0.48039 0.99613 0.045 0.0
C153 C 0.55655 0.93368 0.0488 0.0
C154 C 0.55709 0.97084 1.02044 0.0
C155 C 0.52001 0.04057 0.99052 0.0
C156 C 0.48189 0.07209 0.98847 0.0
C157 C 0.51939 0.00257 1.01848 0.0
C158 C 0.44333 0.06517 1.01504 0.0
C159 C 0.44263 0.02774 0.04304 0.0
H160 H 0.96246 0.93414 0.47976 0.0
H161 H 0.94625 0.08347 0.46676 0.0
H162 H 0.00907 0.09577 0.51769 0.0
H163 H 0.06879 0.06424 0.56575 0.0
H164 H 0.08463 0.91494 0.57919 0.0
H165 H 0.02222 0.9026 0.52784 0.0
C166 C 0.97239 0.96942 0.48824 0.0
C167 C 0.94939 0.00783 0.4695 0.0
C168 C 0.00889 0.97626 0.5173 0.0
C169 C 0.9631 0.05325 0.48074 0.0
C170 C 0.99921 0.06033 0.50977 0.0
C171 C 0.05896 0.02895 0.5572 0.0
C172 C 0.08169 0.99056 0.5762 0.0
C173 C 0.02253 0.02211 0.52808 0.0
C174 C 0.06799 0.94513 0.56498 0.0
C175 C 0.03211 0.93805 0.53573 0.0
H176 H 0.18511 0.73767 0.16048 0.0
H177 H 0.1822 0.71582 0.29288 0.0
H178 H 0.25546 0.75959 0.30062 0.0
H179 H 0.3198 0.80415 0.27013 0.0
H180 H 0.32361 0.82722 0.13784 0.0
H181 H 0.24967 0.78416 0.12983 0.0
C182 C 0.20104 0.74188 0.19088 0.0
C183 C 0.17875 0.723 0.22602 0.0
C184 C 0.24258 0.76824 0.19524 0.0
C185 C 0.19901 0.72967 0.26537 0.0
C186 C 0.24066 0.755 0.26985 0.0
C187 C 0.30422 0.80043 0.23953 0.0
C188 C 0.3272 0.81909 0.20466 0.0
C189 C 0.26246 0.77479 0.23508 0.0
C190 C 0.30651 0.81356 0.16527 0.0
C191 C 0.26448 0.7885 0.16061 0.0
H192 H 0.27313 0.67039 0.78296 0.0
H193 H 0.31787 0.67629 0.65534 0.0
H194 H 0.27966 0.75251 0.64705 0.0
H195 H 0.23366 0.81768 0.67643 0.0
H196 H 0.19257 0.81236 0.8049 0.0
H197 H 0.22821 0.73497 0.81224 0.0
C198 C 0.27484 0.6884 0.75334 0.0
C199 C 0.29845 0.66773 0.71986 0.0
C200 C 0.25267 0.73189 0.74878 0.0
C201 C 0.30025 0.6916 0.68173 0.0
C202 C 0.27808 0.735 0.67686 0.0
C203 C 0.23178 0.79905 0.70574 0.0
C204 C 0.20998 0.82014 0.73995 0.0
C205 C 0.25389 0.75532 0.71011 0.0
C206 C 0.20881 0.79643 0.7781 0.0
C207 C 0.22947 0.75243 0.78238 0.0
H208 H 0.6781 0.23161 0.78817 0.0
H209 H 0.68706 0.18653 0.91584 0.0
H210 H 0.76489 0.2226 0.9222 0.0
H211 H 0.82986 0.26852 0.89165 0.0
H212 H 0.82127 0.31061 0.76329 0.0
H213 H 0.74324 0.27517 0.75731 0.0
C214 C 0.69721 0.22918 0.81732 0.0
C215 C 0.67673 0.20629 0.85146 0.0
C216 C 0.74159 0.25038 0.82086 0.0
C217 C 0.70209 0.20359 0.88897 0.0
C218 C 0.74642 0.22462 0.89274 0.0
C219 C 0.81045 0.27055 0.86263 0.0
C220 C 0.83079 0.29281 0.82813 0.0
C221 C 0.76624 0.24867 0.85905 0.0
C222 C 0.806 0.29409 0.79035 0.0
C223 C 0.76159 0.27355 0.78684 0.0
H224 H 0.73718 0.32797 0.26964 0.0
H225 H 0.70184 0.32383 0.39959 0.0
H226 H 0.73883 0.24684 0.40618 0.0
H227 H 0.78246 0.1811 0.37493 0.0
H228 H 0.81404 0.18465 0.24433 0.0
H229 H 0.77828 0.26212 0.23823 0.0
C230 C 0.73718 0.31012 0.29938 0.0
C231 C 0.71676 0.33161 0.33406 0.0
C232 C 0.75868 0.26618 0.30296 0.0
C233 C 0.717 0.30791 0.37232 0.0
C234 C 0.73853 0.26408 0.3762 0.0
C235 C 0.78211 0.19931 0.34536 0.0
C236 C 0.80147 0.17779 0.31024 0.0
C237 C 0.75998 0.24313 0.34182 0.0
C238 C 0.79973 0.20092 0.27181 0.0
C239 C 0.77904 0.24499 0.26827 0.0
H240 H 0.83826 0.48393 0.32986 0.0
H241 H 0.79469 0.61353 0.38578 0.0
H242 H 0.86543 0.65201 0.35908 0.0
H243 H 0.9303 0.65198 0.308 0.0
H244 H 0.96806 0.52373 0.24718 0.0
H245 H 0.90921 0.48121 0.28767 0.0
C246 C 0.84477 0.52037 0.33708 0.0
C247 C 0.81084 0.54613 0.35901 0.0
C248 C 0.88423 0.54253 0.32016 0.0
C249 C 0.82015 0.593 0.36879 0.0
C250 C 0.86036 0.61511 0.35314 0.0
C251 C 0.92655 0.61444 0.30488 0.0
C252 C 0.95333 0.59061 0.27516 0.0
C253 C 0.8913 0.59077 0.32704 0.0
C254 C 0.94793 0.54232 0.27033 0.0
C255 C 0.91413 0.51822 0.29323 0.0
H256 H 0.37627 0.44007 0.83274 0.0
H257 H 0.49962 0.45713 0.75694 0.0
H258 H 0.54202 0.39946 0.79901 0.0
H259 H 0.53777 0.33341 0.84652 0.0
H260 H 0.41112 0.30831 0.91641 0.0
H261 H 0.37668 0.38065 0.88886 0.0
C262 C 0.41301 0.43231 0.82667 0.0
C263 C 0.43515 0.45266 0.79214 0.0
C264 C 0.43619 0.39713 0.84958 0.0
C265 C 0.48228 0.44189 0.78362 0.0
C266 C 0.50631 0.40873 0.80746 0.0
C267 C 0.50308 0.34441 0.85663 0.0
C268 C 0.4766 0.31509 0.8827 0.0
C269 C 0.48273 0.38441 0.83895 0.0
C270 C 0.43213 0.33015 0.89618 0.0
C271 C 0.41223 0.37125 0.88002 0.0
H272 H 0.60415 0.85236 0.2937 0.0
H273 H 0.54092 0.985 0.2629 0.0
H274 H 0.60184 0.02555 0.30328 0.0
H275 H 0.6801 0.02289 0.33665 0.0
H276 H 0.74281 0.88992 0.36781 0.0
H277 H 0.67406 0.84947 0.33935 0.0
C278 C 0.60324 0.89009 0.29678 0.0
C279 C 0.56893 0.916 0.27509 0.0
C280 C 0.63815 0.91285 0.32003 0.0
C281 C 0.56729 0.96466 0.27939 0.0
C282 C 0.60217 0.98771 0.30227 0.0
C283 C 0.67792 0.98509 0.33842 0.0
C284 C 0.71661 0.95929 0.35368 0.0
C285 C 0.63878 0.96219 0.32127 0.0
C286 C 0.7134 0.91045 0.35628 0.0
C287 C 0.67439 0.88733 0.33949 0.0
H288 H 0.98007 0.17395 0.82113 0.0
H289 H 0.09912 0.19808 0.90194 0.0
H290 H 0.13514 0.1249 0.87877 0.0
H291 H 0.13914 0.06259 0.82565 0.0
H292 H 0.02342 0.04544 0.74006 0.0
H293 H 0.97931 0.10692 0.77515 0.0
C294 C 0.01351 0.1628 0.83434 0.0
C295 C 0.03736 0.19184 0.86256 0.0
C296 C 0.03471 0.12201 0.81961 0.0
C297 C 0.08017 0.17648 0.87998 0.0
C298 C 0.10094 0.13483 0.86646 0.0
C299 C 0.1036 0.07141 0.81581 0.0
C300 C 0.08412 0.04968 0.78068 0.0
C301 C 0.07952 0.10848 0.83487 0.0
C302 C 0.03865 0.06174 0.76728 0.0
C303 C 0.01367 0.09703 0.78713 0.0
H304 H 0.09886 0.341 0.75235 0.0
H305 H 0.04418 0.47375 0.79214 0.0
H306 H 0.10595 0.51446 0.75335 0.0
H307 H 0.18266 0.51087 0.71888 0.0
H308 H 0.23928 0.37788 0.68107 0.0
H309 H 0.16878 0.33845 0.70705 0.0
C310 C 0.09976 0.37889 0.75123 0.0
C311 C 0.06737 0.40467 0.77469 0.0
C312 C 0.13585 0.40176 0.72957 0.0
C313 C 0.0687 0.45356 0.77381 0.0
C314 C 0.10416 0.47668 0.75195 0.0
C315 C 0.17899 0.47336 0.71536 0.0
C316 C 0.21639 0.44715 0.6988 0.0
C317 C 0.13902 0.45099 0.73126 0.0
C318 C 0.21101 0.39875 0.69379 0.0
C319 C 0.17092 0.37618 0.70904 0.0
H320 H 0.53535 0.5704 0.30385 0.0
H321 H 0.65287 0.55506 0.2212 0.0
H322 H 0.6226 0.61893 0.17759 0.0
H323 H 0.57026 0.68823 0.17122 0.0
H324 H 0.45253 0.70123 0.2547 0.0
H325 H 0.4746 0.62876 0.28902 0.0
C326 C 0.55336 0.58011 0.27548 0.0
C327 C 0.59622 0.55866 0.26573 0.0
C328 C 0.53605 0.61693 0.25104 0.0
C329 C 0.61952 0.57114 0.22902 0.0
C330 C 0.60249 0.60796 0.20438 0.0
C331 C 0.54874 0.67444 0.1961 0.0
C332 C 0.51067 0.70082 0.21113 0.0
C333 C 0.5619 0.63256 0.21622 0.0
C334 C 0.48276 0.68223 0.24315 0.0
C335 C 0.4953 0.64073 0.26291 0.0
H336 H 0.45671 0.05147 0.77788 0.0
H337 H 0.39715 0.18987 0.77979 0.0
H338 H 0.33383 0.16546 0.73304 0.0
H339 H 0.28791 0.10156 0.70254 0.0
H340 H 0.34228 0.96116 0.70765 0.0
H341 H 0.41545 0.98917 0.73929 0.0
C342 C 0.43053 0.07634 0.76695 0.0
C343 C 0.4312 0.12222 0.78199 0.0
C344 C 0.3931 0.06149 0.74141 0.0
C345 C 0.39695 0.15429 0.7684 0.0
C346 C 0.36075 0.14034 0.74181 0.0
C347 C 0.31666 0.07754 0.70902 0.0
C348 C 0.31011 0.02957 0.70265 0.0
C349 C 0.35735 0.09358 0.72949 0.0
C350 C 0.34695 0.99838 0.71211 0.0
C351 C 0.38851 0.01431 0.73062 0.0
H352 H 0.03206 0.83002 0.21288 0.0
H353 H 0.90137 0.79496 0.15172 0.0
H354 H 0.86674 0.86886 0.17497 0.0
H355 H 0.86929 0.93481 0.22454 0.0
H356 H 0.99766 0.9628 0.29181 0.0
H357 H 0.03799 0.90072 0.25406 0.0
C358 C 0.99626 0.83896 0.20385 0.0
C359 C 0.96894 0.80671 0.18137 0.0
C360 C 0.97618 0.88016 0.21886 0.0
C361 C 0.92301 0.81912 0.16919 0.0
C362 C 0.90311 0.86117 0.18282 0.0
C363 C 0.90655 0.92827 0.2296 0.0
C364 C 0.93089 0.95325 0.26044 0.0
C365 C 0.92866 0.89079 0.20938 0.0
C366 C 0.97869 0.94408 0.26783 0.0
C367 C 1.00152 0.90842 0.24653 0.0
loop_
_geom_bond_atom_site_label_1
_geom_bond_atom_site_label_2
_geom_bond_distance
_geom_bond_site_symmetry_2
_ccdc_geom_bond_type
O0 Cd1 2.223 . S
O0 C8 1.315 . S
Cd1 O0 2.223 . S
Cd1 O4 2.297 . S
Cd1 O5 2.439 1_655 S
Cd1 O11 2.240 1_655 S
Cd2 O3 2.240 1_455 S
Cd2 O10 2.223 . S
Cd2 O12 2.297 . S
Cd2 O13 2.439 . S
O3 Cd2 2.240 1_655 S
O3 C8 1.279 . S
O4 Cd1 2.297 . S
O4 C6 1.247 . S
O5 Cd1 2.439 1_455 S
O5 C6 1.208 1_455 S
C6 O4 1.247 . S
C6 O5 1.208 1_655 S
C7 O12 1.247 . S
C7 O13 1.208 . S
C8 O0 1.315 . S
C8 O3 1.279 . S
C9 O10 1.315 1_655 S
C9 O11 1.279 1_655 S
O10 Cd2 2.223 . S
O10 C9 1.315 1_455 S
O11 Cd1 2.240 1_455 S
O11 C9 1.279 1_455 S
O12 Cd2 2.297 . S
O12 C7 1.247 . S
O13 Cd2 2.439 . S
O13 C7 1.208 . S
O14 Cd15 2.223 . S
O14 C22 1.315 . S
Cd15 O14 2.223 . S
Cd15 O18 2.297 . S
Cd15 O19 2.439 . S
Cd15 O25 2.240 . S
Cd16 O17 2.240 . S
Cd16 O24 2.223 . S
Cd16 O26 2.297 . S
Cd16 O27 2.439 . S
O17 Cd16 2.240 . S
O17 C22 1.279 . S
O18 Cd15 2.297 . S
O18 C20 1.247 . S
O19 Cd15 2.439 . S
O19 C20 1.208 . S
C20 O18 1.247 . S
C20 O19 1.208 . S
C21 O26 1.247 . S
C21 O27 1.208 . S
C22 O14 1.315 . S
C22 O17 1.279 . S
C23 O24 1.315 . S
C23 O25 1.279 . S
O24 Cd16 2.223 . S
O24 C23 1.315 . S
O25 Cd15 2.240 . S
O25 C23 1.279 . S
O26 Cd16 2.297 . S
O26 C21 1.247 . S
O27 Cd16 2.439 . S
O27 C21 1.208 . S
O28 Cd29 2.223 . S
O28 C36 1.315 . S
Cd29 O28 2.223 . S
Cd29 O32 2.297 . S
Cd29 O33 2.439 . S
Cd29 O39 2.240 . S
Cd30 O31 2.240 . S
Cd30 O38 2.223 . S
Cd30 O40 2.297 . S
Cd30 O41 2.439 . S
O31 Cd30 2.240 . S
O31 C36 1.279 . S
O32 Cd29 2.297 . S
O32 C34 1.247 . S
O33 Cd29 2.439 . S
O33 C34 1.208 . S
C34 O32 1.247 . S
C34 O33 1.208 . S
C35 O40 1.247 . S
C35 O41 1.208 . S
C36 O28 1.315 . S
C36 O31 1.279 . S
C37 O38 1.315 . S
C37 O39 1.279 . S
O38 Cd30 2.223 . S
O38 C37 1.315 . S
O39 Cd29 2.240 . S
O39 C37 1.279 . S
O40 Cd30 2.297 . S
O40 C35 1.247 . S
O41 Cd30 2.439 . S
O41 C35 1.208 . S
O42 Cd43 2.223 . S
O42 C50 1.315 . S
Cd43 O42 2.223 . S
Cd43 O46 2.297 . S
Cd43 O47 2.439 1_545 S
Cd43 O53 2.240 1_545 S
Cd44 O45 2.240 1_565 S
Cd44 O52 2.223 . S
Cd44 O54 2.297 . S
Cd44 O55 2.439 . S
O45 Cd44 2.240 1_545 S
O45 C50 1.279 . S
O46 Cd43 2.297 . S
O46 C48 1.247 . S
O47 Cd43 2.439 1_565 S
O47 C48 1.208 1_565 S
C48 O46 1.247 . S
C48 O47 1.208 1_545 S
C49 O54 1.247 . S
C49 O55 1.208 . S
C50 O42 1.315 . S
C50 O45 1.279 . S
C51 O52 1.315 1_545 S
C51 O53 1.279 1_545 S
O52 Cd44 2.223 . S
O52 C51 1.315 1_565 S
O53 Cd43 2.240 1_565 S
O53 C51 1.279 1_565 S
O54 Cd44 2.297 . S
O54 C49 1.247 . S
O55 Cd44 2.439 . S
O55 C49 1.208 . S
O56 Cd57 2.223 . S
O56 C64 1.315 . S
Cd57 O56 2.223 . S
Cd57 O60 2.297 . S
Cd57 O61 2.439 1_455 S
Cd57 O67 2.240 1_455 S
Cd58 O59 2.240 1_655 S
Cd58 O66 2.223 . S
Cd58 O68 2.297 . S
Cd58 O69 2.439 . S
O59 Cd58 2.240 1_455 S
O59 C64 1.279 . S
O60 Cd57 2.297 . S
O60 C62 1.247 . S
O61 Cd57 2.439 1_655 S
O61 C62 1.208 1_655 S
C62 O60 1.247 . S
C62 O61 1.208 1_455 S
C63 O68 1.247 . S
C63 O69 1.208 . S
C64 O56 1.315 . S
C64 O59 1.279 . S
C65 O66 1.315 1_455 S
C65 O67 1.279 1_455 S
O66 Cd58 2.223 . S
O66 C65 1.315 1_655 S
O67 Cd57 2.240 1_655 S
O67 C65 1.279 1_655 S
O68 Cd58 2.297 . S
O68 C63 1.247 . S
O69 Cd58 2.439 . S
O69 C63 1.208 . S
O70 Cd71 2.223 . S
O70 C78 1.315 . S
Cd71 O70 2.223 . S
Cd71 O74 2.297 . S
Cd71 O75 2.439 . S
Cd71 O81 2.240 . S
Cd72 O73 2.240 . S
Cd72 O80 2.223 . S
Cd72 O82 2.297 . S
Cd72 O83 2.439 . S
O73 Cd72 2.240 . S
O73 C78 1.279 . S
O74 Cd71 2.297 . S
O74 C76 1.247 . S
O75 Cd71 2.439 . S
O75 C76 1.208 . S
C76 O74 1.247 . S
C76 O75 1.208 . S
C77 O82 1.247 . S
C77 O83 1.208 . S
C78 O70 1.315 . S
C78 O73 1.279 . S
C79 O80 1.315 . S
C79 O81 1.279 . S
O80 Cd72 2.223 . S
O80 C79 1.315 . S
O81 Cd71 2.240 . S
O81 C79 1.279 . S
O82 Cd72 2.297 . S
O82 C77 1.247 . S
O83 Cd72 2.439 . S
O83 C77 1.208 . S
O84 Cd85 2.223 . S
O84 C92 1.315 . S
Cd85 O84 2.223 . S
Cd85 O88 2.297 . S
Cd85 O89 2.439 . S
Cd85 O95 2.240 . S
Cd86 O87 2.240 . S
Cd86 O94 2.223 . S
Cd86 O96 2.297 . S
Cd86 O97 2.439 . S
O87 Cd86 2.240 . S
O87 C92 1.279 . S
O88 Cd85 2.297 . S
O88 C90 1.247 . S
O89 Cd85 2.439 . S
O89 C90 1.208 . S
C90 O88 1.247 . S
C90 O89 1.208 . S
C91 O96 1.247 . S
C91 O97 1.208 . S
C92 O84 1.315 . S
C92 O87 1.279 . S
C93 O94 1.315 . S
C93 O95 1.279 . S
O94 Cd86 2.223 . S
O94 C93 1.315 . S
O95 Cd85 2.240 . S
O95 C93 1.279 . S
O96 Cd86 2.297 . S
O96 C91 1.247 . S
O97 Cd86 2.439 . S
O97 C91 1.208 . S
O98 Cd99 2.223 . S
O98 C106 1.315 . S
Cd99 O98 2.223 . S
Cd99 O102 2.297 . S
Cd99 O103 2.439 1_565 S
Cd99 O109 2.240 1_565 S
Cd100 O101 2.240 1_545 S
Cd100 O108 2.223 . S
Cd100 O110 2.297 . S
Cd100 O111 2.439 . S
O101 Cd100 2.240 1_565 S
O101 C106 1.279 . S
O102 Cd99 2.297 . S
O102 C104 1.247 . S
O103 Cd99 2.439 1_545 S
O103 C104 1.208 1_545 S
C104 O102 1.247 . S
C104 O103 1.208 1_565 S
C105 O110 1.247 . S
C105 O111 1.208 . S
C106 O98 1.315 . S
C106 O101 1.279 . S
C107 O108 1.315 1_565 S
C107 O109 1.279 1_565 S
O108 Cd100 2.223 . S
O108 C107 1.315 1_545 S
O109 Cd99 2.240 1_545 S
O109 C107 1.279 1_545 S
O110 Cd100 2.297 . S
O110 C105 1.247 . S
O111 Cd100 2.439 . S
O111 C105 1.208 . S
H112 C118 0.930 . S
H113 C121 0.930 . S
H114 C122 0.930 . S
H115 C123 0.930 . S
H116 C126 0.930 . S
H117 C127 0.930 . S
C118 H112 0.930 . S
C118 C119 1.363 . S
C118 C120 1.415 1_556 S
C119 C118 1.363 . S
C119 C121 1.408 1_655 S
C120 C118 1.415 1_554 S
C120 C125 1.425 1_654 S
C120 C127 1.409 . S
C121 H113 0.930 . S
C121 C119 1.408 1_455 S
C121 C122 1.362 . S
C122 H114 0.930 . S
C122 C121 1.362 . S
C122 C125 1.409 . S
C123 H115 0.930 . S
C123 C124 1.363 . S
C123 C125 1.415 1_554 S
C124 C123 1.363 . S
C124 C126 1.408 1_455 S
C125 C120 1.425 1_456 S
C125 C122 1.409 . S
C125 C123 1.415 1_556 S
C126 H116 0.930 . S
C126 C124 1.408 1_655 S
C126 C127 1.362 . S
C127 H117 0.930 . S
C127 C120 1.409 . S
C127 C126 1.362 . S
H128 C134 0.930 . S
H129 C137 0.930 . S
H130 C138 0.930 . S
H131 C139 0.930 . S
H132 C142 0.930 . S
H133 C143 0.930 . S
C134 H128 0.930 . S
C134 C135 1.355 . S
C134 C136 1.415 . S
C135 C134 1.355 . S
C135 C137 1.419 . S
C136 C134 1.415 . S
C136 C141 1.425 . S
C136 C143 1.409 . S
C137 H129 0.930 . S
C137 C135 1.419 . S
C137 C138 1.362 . S
C138 H130 0.930 . S
C138 C137 1.362 . S
C138 C141 1.409 . S
C139 H131 0.930 . S
C139 C140 1.355 . S
C139 C141 1.415 . S
C140 C139 1.355 . S
C140 C142 1.419 . S
C141 C136 1.425 . S
C141 C138 1.409 . S
C141 C139 1.415 . S
C142 H132 0.930 . S
C142 C140 1.419 . S
C142 C143 1.362 . S
C143 H133 0.930 . S
C143 C136 1.409 . S
C143 C142 1.362 . S
H144 C150 0.930 . S
H145 C153 0.930 . S
H146 C154 0.930 . S
H147 C155 0.930 . S
H148 C158 0.930 . S
H149 C159 0.930 . S
C150 H144 0.930 . S
C150 C151 1.355 . S
C150 C152 1.402 1_554 S
C151 C150 1.355 . S
C151 C153 1.419 . S
C152 C150 1.402 1_556 S
C152 C157 1.425 1_566 S
C152 C159 1.423 . S
C153 H145 0.930 . S
C153 C151 1.419 . S
C153 C154 1.362 1_565 S
C154 H146 0.930 . S
C154 C153 1.362 1_545 S
C154 C157 1.423 . S
C155 H147 0.930 . S
C155 C156 1.355 . S
C155 C157 1.402 1_556 S
C156 C155 1.355 . S
C156 C158 1.419 . S
C157 C152 1.425 1_544 S
C157 C154 1.423 . S
C157 C155 1.402 1_554 S
C158 H148 0.930 . S
C158 C156 1.419 . S
C158 C159 1.362 1_545 S
C159 H149 0.930 . S
C159 C152 1.423 . S
C159 C158 1.362 1_565 S
H160 C166 0.930 1_455 S
H161 C169 0.930 . S
H162 C170 0.930 . S
H163 C171 0.930 1_655 S
H164 C174 0.930 . S
H165 C175 0.930 . S
C166 H160 0.930 1_655 S
C166 C167 1.355 1_565 S
C166 C168 1.415 1_655 S
C167 C166 1.355 1_545 S
C167 C169 1.419 . S
C168 C166 1.415 1_455 S
C168 C173 1.425 1_465 S
C168 C175 1.409 . S
C169 H161 0.930 . S
C169 C167 1.419 . S
C169 C170 1.362 . S
C170 H162 0.930 . S
C170 C169 1.362 . S
C170 C173 1.409 . S
C171 H163 0.930 1_455 S
C171 C172 1.355 1_545 S
C171 C173 1.415 1_455 S
C172 C171 1.355 1_565 S
C172 C174 1.419 . S
C173 C168 1.425 1_645 S
C173 C170 1.409 . S
C173 C171 1.415 1_655 S
C174 H164 0.930 . S
C174 C172 1.419 . S
C174 C175 1.362 . S
C175 H165 0.930 . S
C175 C168 1.409 . S
C175 C174 1.362 . S
H176 C182 0.930 . S
H177 C185 0.930 . S
H178 C186 0.930 . S
H179 C187 0.930 . S
H180 C190 0.930 . S
H181 C191 0.930 . S
C182 H176 0.930 . S
C182 C183 1.355 . S
C182 C184 1.415 . S
C183 C182 1.355 . S
C183 C185 1.419 . S
C184 C182 1.415 . S
C184 C189 1.425 . S
C184 C191 1.409 . S
C185 H177 0.930 . S
C185 C183 1.419 . S
C185 C186 1.362 . S
C186 H178 0.930 . S
C186 C185 1.362 . S
C186 C189 1.409 . S
C187 H179 0.930 . S
C187 C188 1.355 . S
C187 C189 1.415 . S
C188 C187 1.355 . S
C188 C190 1.419 . S
C189 C184 1.425 . S
C189 C186 1.409 . S
C189 C187 1.415 . S
C190 H180 0.930 . S
C190 C188 1.419 . S
C190 C191 1.362 . S
C191 H181 0.930 . S
C191 C184 1.409 . S
C191 C190 1.362 . S
H192 C198 0.930 . S
H193 C201 0.930 . S
H194 C202 0.930 . S
H195 C203 0.930 . S
H196 C206 0.930 . S
H197 C207 0.930 . S
C198 H192 0.930 . S
C198 C199 1.355 . S
C198 C200 1.415 . S
C199 C198 1.355 . S
C199 C201 1.419 . S
C200 C198 1.415 . S
C200 C205 1.425 . S
C200 C207 1.409 . S
C201 H193 0.930 . S
C201 C199 1.419 . S
C201 C202 1.362 . S
C202 H194 0.930 . S
C202 C201 1.362 . S
C202 C205 1.409 . S
C203 H195 0.930 . S
C203 C204 1.355 . S
C203 C205 1.415 . S
C204 C203 1.355 . S
C204 C206 1.419 . S
C205 C200 1.425 . S
C205 C202 1.409 . S
C205 C203 1.415 . S
C206 H196 0.930 . S
C206 C204 1.419 . S
C206 C207 1.362 . S
C207 H197 0.930 . S
C207 C200 1.409 . S
C207 C206 1.362 . S
H208 C214 0.930 . S
H209 C217 0.930 . S
H210 C218 0.930 . S
H211 C219 0.930 . S
H212 C222 0.930 . S
H213 C223 0.930 . S
C214 H208 0.930 . S
C214 C215 1.355 . S
C214 C216 1.415 . S
C215 C214 1.355 . S
C215 C217 1.419 . S
C216 C214 1.415 . S
C216 C221 1.425 . S
C216 C223 1.409 . S
C217 H209 0.930 . S
C217 C215 1.419 . S
C217 C218 1.362 . S
C218 H210 0.930 . S
C218 C217 1.362 . S
C218 C221 1.409 . S
C219 H211 0.930 . S
C219 C220 1.355 . S
C219 C221 1.415 . S
C220 C219 1.355 . S
C220 C222 1.419 . S
C221 C216 1.425 . S
C221 C218 1.409 . S
C221 C219 1.415 . S
C222 H212 0.930 . S
C222 C220 1.419 . S
C222 C223 1.362 . S
C223 H213 0.930 . S
C223 C216 1.409 . S
C223 C222 1.362 . S
H224 C230 0.930 . S
H225 C233 0.930 . S
H226 C234 0.930 . S
H227 C235 0.930 . S
H228 C238 0.930 . S
H229 C239 0.930 . S
C230 H224 0.930 . S
C230 C231 1.355 . S
C230 C232 1.415 . S
C231 C230 1.355 . S
C231 C233 1.419 . S
C232 C230 1.415 . S
C232 C237 1.425 . S
C232 C239 1.409 . S
C233 H225 0.930 . S
C233 C231 1.419 . S
C233 C234 1.362 . S
C234 H226 0.930 . S
C234 C233 1.362 . S
C234 C237 1.409 . S
C235 H227 0.930 . S
C235 C236 1.355 . S
C235 C237 1.415 . S
C236 C235 1.355 . S
C236 C238 1.419 . S
C237 C232 1.425 . S
C237 C234 1.409 . S
C237 C235 1.415 . S
C238 H228 0.930 . S
C238 C236 1.419 . S
C238 C239 1.362 . S
C239 H229 0.930 . S
C239 C232 1.409 . S
C239 C238 1.362 . S
H240 C246 0.930 . S
H241 C249 0.930 . S
H242 C250 0.930 . S
H243 C251 0.930 . S
H244 C254 0.930 . S
H245 C255 0.930 . S
C246 H240 0.930 . S
C246 C247 1.355 . S
C246 C248 1.415 . S
C247 C246 1.355 . S
C247 C249 1.419 . S
C248 C246 1.415 . S
C248 C253 1.425 . S
C248 C255 1.409 . S
C249 H241 0.930 . S
C249 C247 1.419 . S
C249 C250 1.362 . S
C250 H242 0.930 . S
C250 C249 1.362 . S
C250 C253 1.409 . S
C251 H243 0.930 . S
C251 C252 1.355 . S
C251 C253 1.415 . S
C252 C251 1.355 . S
C252 C254 1.419 . S
C253 C248 1.425 . S
C253 C250 1.409 . S
C253 C251 1.415 . S
C254 H244 0.930 . S
C254 C252 1.419 . S
C254 C255 1.362 . S
C255 H245 0.930 . S
C255 C248 1.409 . S
C255 C254 1.362 . S
H256 C262 0.930 . S
H257 C265 0.930 . S
H258 C266 0.930 . S
H259 C267 0.930 . S
H260 C270 0.930 . S
H261 C271 0.930 . S
C262 H256 0.930 . S
C262 C263 1.355 . S
C262 C264 1.415 . S
C263 C262 1.355 . S
C263 C265 1.419 . S
C264 C262 1.415 . S
C264 C269 1.425 . S
C264 C271 1.409 . S
C265 H257 0.930 . S
C265 C263 1.419 . S
C265 C266 1.362 . S
C266 H258 0.930 . S
C266 C265 1.362 . S
C266 C269 1.409 . S
C267 H259 0.930 . S
C267 C268 1.355 . S
C267 C269 1.415 . S
C268 C267 1.355 . S
C268 C270 1.419 . S
C269 C264 1.425 . S
C269 C266 1.409 . S
C269 C267 1.415 . S
C270 H260 0.930 . S
C270 C268 1.419 . S
C270 C271 1.362 . S
C271 H261 0.930 . S
C271 C264 1.409 . S
C271 C270 1.362 . S
H272 C278 0.930 . S
H273 C281 0.930 . S
H274 C282 0.930 . S
H275 C283 0.930 . S
H276 C286 0.930 . S
H277 C287 0.930 . S
C278 H272 0.930 . S
C278 C279 1.355 . S
C278 C280 1.415 . S
C279 C278 1.355 . S
C279 C281 1.419 . S
C280 C278 1.415 . S
C280 C285 1.425 . S
C280 C287 1.409 . S
C281 H273 0.930 . S
C281 C279 1.419 . S
C281 C282 1.362 . S
C282 H274 0.930 . S
C282 C281 1.362 . S
C282 C285 1.409 . S
C283 H275 0.930 . S
C283 C284 1.355 . S
C283 C285 1.415 . S
C284 C283 1.355 . S
C284 C286 1.419 . S
C285 C280 1.425 . S
C285 C282 1.409 . S
C285 C283 1.415 . S
C286 H276 0.930 . S
C286 C284 1.419 . S
C286 C287 1.362 . S
C287 H277 0.930 . S
C287 C280 1.409 . S
C287 C286 1.362 . S
H288 C294 0.930 1_655 S
H289 C297 0.930 . S
H290 C298 0.930 . S
H291 C299 0.930 . S
H292 C302 0.930 . S
H293 C303 0.930 1_655 S
C294 H288 0.930 1_455 S
C294 C295 1.355 . S
C294 C296 1.415 . S
C295 C294 1.355 . S
C295 C297 1.419 . S
C296 C294 1.415 . S
C296 C301 1.425 . S
C296 C303 1.409 . S
C297 H289 0.930 . S
C297 C295 1.419 . S
C297 C298 1.362 . S
C298 H290 0.930 . S
C298 C297 1.362 . S
C298 C301 1.409 . S
C299 H291 0.930 . S
C299 C300 1.355 . S
C299 C301 1.415 . S
C300 C299 1.355 . S
C300 C302 1.419 . S
C301 C296 1.425 . S
C301 C298 1.409 . S
C301 C299 1.415 . S
C302 H292 0.930 . S
C302 C300 1.419 . S
C302 C303 1.362 . S
C303 H293 0.930 1_455 S
C303 C296 1.409 . S
C303 C302 1.362 . S
H304 C310 0.930 . S
H305 C313 0.930 . S
H306 C314 0.930 . S
H307 C315 0.930 . S
H308 C318 0.930 . S
H309 C319 0.930 . S
C310 H304 0.930 . S
C310 C311 1.355 . S
C310 C312 1.415 . S
C311 C310 1.355 . S
C311 C313 1.419 . S
C312 C310 1.415 . S
C312 C317 1.425 . S
C312 C319 1.409 . S
C313 H305 0.930 . S
C313 C311 1.419 . S
C313 C314 1.362 . S
C314 H306 0.930 . S
C314 C313 1.362 . S
C314 C317 1.409 . S
C315 H307 0.930 . S
C315 C316 1.355 . S
C315 C317 1.415 . S
C316 C315 1.355 . S
C316 C318 1.419 . S
C317 C312 1.425 . S
C317 C314 1.409 . S
C317 C315 1.415 . S
C318 H308 0.930 . S
C318 C316 1.419 . S
C318 C319 1.362 . S
C319 H309 0.930 . S
C319 C312 1.409 . S
C319 C318 1.362 . S
H320 C326 0.930 . S
H321 C329 0.930 . S
H322 C330 0.930 . S
H323 C331 0.930 . S
H324 C334 0.930 . S
H325 C335 0.930 . S
C326 H320 0.930 . S
C326 C327 1.355 . S
C326 C328 1.415 . S
C327 C326 1.355 . S
C327 C329 1.419 . S
C328 C326 1.415 . S
C328 C333 1.425 . S
C328 C335 1.409 . S
C329 H321 0.930 . S
C329 C327 1.419 . S
C329 C330 1.362 . S
C330 H322 0.930 . S
C330 C329 1.362 . S
C330 C333 1.409 . S
C331 H323 0.930 . S
C331 C332 1.355 . S
C331 C333 1.415 . S
C332 C331 1.355 . S
C332 C334 1.419 . S
C333 C328 1.425 . S
C333 C330 1.409 . S
C333 C331 1.415 . S
C334 H324 0.930 . S
C334 C332 1.419 . S
C334 C335 1.362 . S
C335 H325 0.930 . S
C335 C328 1.409 . S
C335 C334 1.362 . S
H336 C342 0.930 . S
H337 C345 0.930 . S
H338 C346 0.930 . S
H339 C347 0.930 . S
H340 C350 0.930 1_565 S
H341 C351 0.930 1_565 S
C342 H336 0.930 . S
C342 C343 1.355 . S
C342 C344 1.415 . S
C343 C342 1.355 . S
C343 C345 1.419 . S
C344 C342 1.415 . S
C344 C349 1.425 . S
C344 C351 1.409 . S
C345 H337 0.930 . S
C345 C343 1.419 . S
C345 C346 1.362 . S
C346 H338 0.930 . S
C346 C345 1.362 . S
C346 C349 1.409 . S
C347 H339 0.930 . S
C347 C348 1.355 . S
C347 C349 1.415 . S
C348 C347 1.355 . S
C348 C350 1.419 . S
C349 C344 1.425 . S
C349 C346 1.409 . S
C349 C347 1.415 . S
C350 H340 0.930 1_545 S
C350 C348 1.419 . S
C350 C351 1.362 . S
C351 H341 0.930 1_545 S
C351 C344 1.409 . S
C351 C350 1.362 . S
H352 C358 0.930 . S
H353 C361 0.930 . S
H354 C362 0.930 . S
H355 C363 0.930 . S
H356 C366 0.930 . S
H357 C367 0.930 . S
C358 H352 0.930 . S
C358 C359 1.355 . S
C358 C360 1.415 . S
C359 C358 1.355 . S
C359 C361 1.419 . S
C360 C358 1.415 . S
C360 C365 1.425 . S
C360 C367 1.409 . S
C361 H353 0.930 . S
C361 C359 1.419 . S
C361 C362 1.362 . S
C362 H354 0.930 . S
C362 C361 1.362 . S
C362 C365 1.409 . S
C363 H355 0.930 . S
C363 C364 1.355 . S
C363 C365 1.415 . S
C364 C363 1.355 . S
C364 C366 1.419 . S
C365 C360 1.425 . S
C365 C362 1.409 . S
C365 C363 1.415 . S
C366 H356 0.930 . S
C366 C364 1.419 . S
C366 C367 1.362 . S
C367 H357 0.930 . S
C367 C360 1.409 . S
C367 C366 1.362 . S
C119 C62 1.494 1_655 S
C124 C6 1.494 1_455 S
C135 C20 1.496 . S
C140 C76 1.496 . S
C151 C34 1.478 . S
C156 C90 1.478 . S
C167 C104 1.488 1_545 S
C172 C48 1.488 1_565 S
C183 C7 1.368 . S
C188 C35 1.368 . S
C199 C21 1.340 . S
C204 C49 1.336 . S
C215 C91 1.365 . S
C220 C63 1.371 . S
C231 C77 1.369 . S
C236 C105 1.333 . S
C247 C79 1.384 . S
C252 C8 1.307 . S
C263 C22 1.388 . S
C268 C93 1.368 . S
C279 C36 1.388 . S
C284 C107 1.369 . S
C295 C65 1.416 . S
C300 C50 1.331 . S
C311 C64 1.391 . S
C316 C23 1.381 . S
C327 C78 1.383 . S
C332 C37 1.364 . S
C343 C92 1.318 . S
C348 C51 1.374 . S
C359 C9 1.410 . S
C364 C106 1.309 . S
