# Generated by pormake.
# Topology xfw, (5)-cn, num edge types: 1
# Building blocks:
#     Node 0, Type 0, BuildingBlock: XOMCOT_clean_sbu_1, # of connection points: 5
#     Node 1, Type 0, BuildingBlock: XOMCOT_clean_sbu_1, # of connection points: 5
#     Node 2, Type 0, BuildingBlock: XOMCOT_clean_sbu_1, # of connection points: 5
#     Node 3, Type 0, BuildingBlock: XOMCOT_clean_sbu_1, # of connection points: 5
#     Node 4, Type 0, BuildingBlock: XOMCOT_clean_sbu_1, # of connection points: 5
#     Node 5, Type 0, BuildingBlock: XOMCOT_clean_sbu_1, # of connection points: 5
#     Node 6, Type 0, BuildingBlock: XOMCOT_clean_sbu_1, # of connection points: 5
#     Node 7, Type 0, BuildingBlock: XOMCOT_clean_sbu_1, # of connection points: 5
#     Edge 8, Type (0, 0), BuildingBlock: CIFDUS_clean_linker_0, # of connection points: 2
#     Edge 9, Type (0, 0), BuildingBlock: CIFDUS_clean_linker_0, # of connection points: 2
#     Edge 10, Type (0, 0), BuildingBlock: CIFDUS_clean_linker_0, # of connection points: 2
#     Edge 11, Type (0, 0), BuildingBlock: CIFDUS_clean_linker_0, # of connection points: 2
#     Edge 12, Type (0, 0), BuildingBlock: CIFDUS_clean_linker_0, # of connection points: 2
#     Edge 13, Type (0, 0), BuildingBlock: CIFDUS_clean_linker_0, # of connection points: 2
#     Edge 14, Type (0, 0), BuildingBlock: CIFDUS_clean_linker_0, # of connection points: 2
#     Edge 15, Type (0, 0), BuildingBlock: CIFDUS_clean_linker_0, # of connection points: 2
#     Edge 16, Type (0, 0), BuildingBlock: CIFDUS_clean_linker_0, # of connection points: 2
#     Edge 17, Type (0, 0), BuildingBlock: CIFDUS_clean_linker_0, # of connection points: 2
#     Edge 18, Type (0, 0), BuildingBlock: CIFDUS_clean_linker_0, # of connection points: 2
#     Edge 19, Type (0, 0), BuildingBlock: CIFDUS_clean_linker_0, # of connection points: 2
#     Edge 20, Type (0, 0), BuildingBlock: CIFDUS_clean_linker_0, # of connection points: 2
#     Edge 21, Type (0, 0), BuildingBlock: CIFDUS_clean_linker_0, # of connection points: 2
#     Edge 22, Type (0, 0), BuildingBlock: CIFDUS_clean_linker_0, # of connection points: 2
#     Edge 23, Type (0, 0), BuildingBlock: CIFDUS_clean_linker_0, # of connection points: 2
#     Edge 24, Type (0, 0), BuildingBlock: CIFDUS_clean_linker_0, # of connection points: 2
#     Edge 25, Type (0, 0), BuildingBlock: CIFDUS_clean_linker_0, # of connection points: 2
#     Edge 26, Type (0, 0), BuildingBlock: CIFDUS_clean_linker_0, # of connection points: 2
#     Edge 27, Type (0, 0), BuildingBlock: CIFDUS_clean_linker_0, # of connection points: 2
# Relax obj value: 0.601
# Max RMSD: 0.302
# Mean RMSD: 0.302
data_MOF--net-xfw--node1-XOMCOT_clean_sbu_1--edge1-CIFDUS_clean_linker_0
_symmetry_space_group_name_H-M    P1
_symmetry_Int_Tables_number       1
_symmetry_cell_setting            triclinic
loop_
_symmetry_equiv_pos_as_xyz
'x, y, z'
_cell_length_a     23.276542
_cell_length_b     23.434636
_cell_length_c     54.302766
_cell_angle_alpha  89.925772
_cell_angle_beta   89.942381
_cell_angle_gamma 89.88834
loop_
_atom_site_label
_atom_site_type_symbol
_atom_site_fract_x
_atom_site_fract_y
_atom_site_fract_z
_atom_type_partial_charge
C0 C 0.33414 0.07193 0.5755 0.0
C1 C 0.33549 0.03098 0.55751 0.0
N2 N 0.28204 0.00988 0.55487 0.0
N3 N 0.28024 0.07661 0.5843 0.0
C4 C 0.24935 0.03792 0.57154 0.0
H5 H 0.36992 0.0979 0.58138 0.0
Co6 Co 0.26106 0.13147 0.60719 0.0
C7 C 0.14129 0.10824 0.62376 0.0
O8 O 0.13281 0.16371 0.62404 0.0
N9 N 0.24484 0.18765 0.63072 0.0
C10 C 0.24346 0.26716 0.65312 0.0
C11 C 0.25114 0.24497 0.62985 0.0
C12 C 0.23365 0.17621 0.65461 0.0
N13 N 0.23217 0.2236 0.6685 0.0
O14 O 0.30786 0.09141 0.63084 0.0
H15 H 0.26341 0.26923 0.6138 0.0
H16 H 0.2293 0.13343 0.66192 0.0
O17 O 0.19074 0.08846 0.61731 0.0
C18 C 0.35598 0.11613 0.63448 0.0
O19 O 0.36343 0.16746 0.62523 0.0
N20 N 0.22167 0.17148 0.58233 0.0
C21 C 0.18438 0.22594 0.53964 0.0
C22 C 0.15078 0.18377 0.55072 0.0
C23 C 0.17098 0.15574 0.57159 0.0
C24 C 0.25542 0.21171 0.57134 0.0
C25 C 0.23752 0.23976 0.54995 0.0
H26 H 0.14708 0.11931 0.57783 0.0
H27 H 0.29768 0.22034 0.57869 0.0
H28 H 0.20349 0.03224 0.57359 0.0
H29 H 0.37278 0.0185 0.54687 0.0
H30 H 0.24729 0.31149 0.65844 0.0
H31 H 0.11062 0.17038 0.54248 0.0
H32 H 0.26524 0.27105 0.54133 0.0
C33 C 0.04396 0.65049 0.39811 0.0
C34 C 1.00522 0.64938 0.41712 0.0
N35 N 1.00184 0.70214 0.42676 0.0
N36 N 0.0646 0.70389 0.39536 0.0
C37 C 0.03846 0.73435 0.41331 0.0
H38 H 0.05737 0.61385 0.38754 0.0
Co39 Co 0.12313 0.72304 0.37317 0.0
C40 C 0.03358 0.81541 0.36225 0.0
O41 O 0.98877 0.78817 0.37101 0.0
N42 N 0.18164 0.74 0.35122 0.0
C43 C 0.26691 0.7525 0.33367 0.0
C44 C 0.23885 0.73825 0.35516 0.0
C45 C 0.17581 0.75453 0.32735 0.0
N46 N 0.22699 0.7623 0.31624 0.0
O47 O 0.08613 0.67648 0.34858 0.0
H48 H 0.25878 0.72669 0.37245 0.0
H49 H 0.1347 0.75879 0.31821 0.0
O50 O 0.0829 0.79171 0.36208 0.0
C51 C 0.10944 0.62843 0.34364 0.0
O52 O 0.16061 0.61758 0.35275 0.0
N53 N 0.16009 0.76614 0.39761 0.0
C54 C 0.20898 0.8277 0.436 0.0
C55 C 0.19759 0.85399 0.41335 0.0
C56 C 0.17316 0.82247 0.39435 0.0
C57 C 0.17381 0.73907 0.41907 0.0
C58 C 0.19736 0.76939 0.43875 0.0
H59 H 0.16492 0.84351 0.37699 0.0
H60 H 0.16489 0.69404 0.42116 0.0
H61 H 0.04766 0.77882 0.41693 0.0
H62 H 0.98183 0.61229 0.42345 0.0
H63 H 0.31293 0.75363 0.33084 0.0
H64 H 0.20642 0.8989 0.41051 0.0
H65 H 0.20657 0.74751 0.45588 0.0
C66 C 0.64949 0.96932 0.57251 0.0
C67 C 0.64468 0.0126 0.55563 0.0
N68 N 0.69506 0.04074 0.55478 0.0
N69 N 0.70245 0.97011 0.58245 0.0
C70 C 0.72908 0.01462 0.57157 0.0
H71 H 0.617 0.93784 0.57667 0.0
Co72 Co 0.7257 0.91383 0.60414 0.0
C73 C 0.83962 0.94498 0.62437 0.0
O74 O 0.85125 0.89014 0.62381 0.0
N75 N 0.74525 0.85549 0.62653 0.0
C76 C 0.76541 0.77482 0.64657 0.0
C77 C 0.75732 0.79934 0.62374 0.0
C78 C 0.74562 0.86355 0.65115 0.0
N79 N 0.75749 0.81546 0.66369 0.0
O80 O 0.67134 0.94411 0.62755 0.0
H81 H 0.7596 0.7768 0.60648 0.0
H82 H 0.73796 0.90444 0.65981 0.0
O83 O 0.7896 0.96246 0.6174 0.0
C84 C 0.62503 0.91521 0.62916 0.0
O85 O 0.62299 0.86537 0.61812 0.0
N86 N 0.77406 0.88394 0.57918 0.0
C87 C 0.82793 0.84521 0.53633 0.0
C88 C 0.8492 0.89245 0.549 0.0
C89 C 0.82128 0.91165 0.57006 0.0
C90 C 0.75175 0.83881 0.56657 0.0
C91 C 0.77879 0.81778 0.54539 0.0
H92 H 0.83659 0.95082 0.57789 0.0
H93 H 0.71176 0.81997 0.57263 0.0
H94 H 0.77341 0.02578 0.57489 0.0
H95 H 0.60751 0.02122 0.54426 0.0
H96 H 0.77488 0.73041 0.65032 0.0
H97 H 0.88658 0.91533 0.54239 0.0
H98 H 0.76024 0.78192 0.53569 0.0
C99 C 0.93301 0.3464 0.39987 0.0
C100 C 0.96379 0.36496 0.41983 0.0
N101 N 1.00378 0.32526 0.42517 0.0
N102 N 0.95335 0.29523 0.39265 0.0
C103 C 0.99725 0.28383 0.40813 0.0
H104 H 0.89568 0.36715 0.39209 0.0
Co105 Co 0.91561 0.2521 0.36916 0.0
C106 C 0.99231 0.15504 0.3568 0.0
O107 O 0.99464 0.17225 0.33378 0.0
N108 N 0.87594 0.20987 0.34547 0.0
C109 C 0.83152 0.13898 0.32618 0.0
C110 C 0.85781 0.15537 0.34765 0.0
C111 C 0.85952 0.22582 0.32267 0.0
N112 N 0.83273 0.1834 0.31042 0.0
O113 O 0.96356 0.28735 0.34467 0.0
H114 H 0.86423 0.12879 0.36371 0.0
H115 H 0.86701 0.26772 0.31512 0.0
O116 O 0.96821 0.18694 0.3729 0.0
C117 C 0.94534 0.33654 0.33813 0.0
O118 O 0.89227 0.35052 0.34386 0.0
N119 N 0.86834 0.22236 0.39402 0.0
C120 C 0.79874 0.18978 0.4333 0.0
C121 C 0.8574 0.17681 0.43321 0.0
C122 C 0.89141 0.19371 0.41356 0.0
C123 C 0.81123 0.23548 0.39363 0.0
C124 C 0.77525 0.21888 0.41306 0.0
H125 H 0.93676 0.185 0.41462 0.0
H126 H 0.79375 0.25958 0.37836 0.0
H127 H 0.0205 0.24379 0.40836 0.0
H128 H 0.95508 0.40294 0.43054 0.0
H129 H 0.81443 0.09704 0.32229 0.0
H130 H 0.87712 0.15369 0.44831 0.0
H131 H 0.73002 0.22974 0.41253 0.0
C132 C 0.67564 0.05327 0.07386 0.0
C133 C 0.67946 0.01312 0.05552 0.0
N134 N 0.73255 0.98998 0.05607 0.0
N135 N 0.72596 0.05556 0.08598 0.0
C136 C 0.75943 0.01584 0.07509 0.0
H137 H 0.63982 0.08176 0.0771 0.0
Co138 Co 0.74321 0.11253 0.10827 0.0
C139 C 0.85971 0.08739 0.12814 0.0
O140 O 0.86952 0.14258 0.1277 0.0
N141 N 0.75811 0.17118 0.13106 0.0
C142 C 0.77433 0.25296 0.15067 0.0
C143 C 0.7636 0.22827 0.12818 0.0
C144 C 0.76415 0.16271 0.15552 0.0
N145 N 0.77459 0.2115 0.1678 0.0
O146 O 0.69188 0.07691 0.13147 0.0
H147 H 0.76035 0.25132 0.11107 0.0
H148 H 0.76306 0.12095 0.16405 0.0
O149 O 0.81054 0.06847 0.12105 0.0
C150 C 0.64384 0.10318 0.13275 0.0
O151 O 0.6389 0.15231 0.12122 0.0
N152 N 0.78765 0.14812 0.08365 0.0
C153 C 0.8342 0.1979 0.0415 0.0
C154 C 0.86269 0.15309 0.05338 0.0
C155 C 0.83837 0.12822 0.0742 0.0
C156 C 0.75824 0.19004 0.07158 0.0
C157 C 0.7814 0.21668 0.05082 0.0
H158 H 0.85945 0.09115 0.0816 0.0
H159 H 0.71587 0.20219 0.07793 0.0
H160 H 0.80365 0.00823 0.08017 0.0
H161 H 0.64712 1.00512 0.04165 0.0
H162 H 0.78122 0.2979 0.15415 0.0
H163 H 0.90306 0.13666 0.04638 0.0
H164 H 0.75739 0.25016 0.04166 0.0
C165 C 0.06523 0.34031 0.90072 0.0
C166 C 0.02205 0.33731 0.91786 0.0
N167 N 1.00871 0.28189 0.92157 0.0
N168 N 0.07899 0.28725 0.89336 0.0
C169 C 0.04373 0.25257 0.90617 0.0
H170 H 0.08631 0.37875 0.89445 0.0
Co171 Co 0.13803 0.27184 0.87169 0.0
C172 C 0.11584 0.15567 0.851 0.0
O173 O 0.17143 0.14623 0.84969 0.0
N174 N 0.19831 0.25953 0.84954 0.0
C175 C 0.28265 0.26176 0.83021 0.0
C176 C 0.25562 0.26485 0.85276 0.0
C177 C 0.19172 0.25352 0.825 0.0
N178 N 0.24213 0.25456 0.81285 0.0
O179 O 0.0988 0.3172 0.84762 0.0
H180 H 0.27667 0.27325 0.87006 0.0
H181 H 0.15025 0.25118 0.81606 0.0
O182 O 0.09734 0.20327 0.85961 0.0
C183 C 0.11762 0.36727 0.84337 0.0
O184 O 0.16754 0.38197 0.85269 0.0
N185 N 0.17619 0.23122 0.89696 0.0
C186 C 0.22309 0.19021 0.94095 0.0
C187 C 0.18658 0.15615 0.92676 0.0
C188 C 0.16281 0.17766 0.90516 0.0
C189 C 0.21202 0.26488 0.91048 0.0
C190 C 0.23663 0.245 0.93239 0.0
H191 H 0.1308 0.1519 0.89639 0.0
H192 H 0.21977 0.30837 0.90467 0.0
H193 H 0.04539 0.20669 0.90478 0.0
H194 H 1.0033 0.37358 0.92718 0.0
H195 H 0.32827 0.26594 0.8268 0.0
H196 H 0.1748 0.1136 0.9327 0.0
H197 H 0.26383 0.27314 0.94303 0.0
C198 C 0.34938 0.95908 0.08284 0.0
C199 C 0.34733 1.00028 0.06484 0.0
N200 N 0.29315 0.02061 0.06354 0.0
N201 N 0.29687 0.95339 0.09292 0.0
C202 C 0.2637 0.9919 0.08109 0.0
H203 H 0.38594 0.93244 0.08725 0.0
Co204 Co 0.27755 0.89508 0.1143 0.0
C205 C 0.1601 0.92088 0.13371 0.0
O206 O 0.15014 0.86576 0.13445 0.0
N207 N 0.26032 0.83489 0.1361 0.0
C208 C 0.23843 0.75135 0.15326 0.0
C209 C 0.24996 0.7791 0.1315 0.0
C210 C 0.25615 0.83943 0.16086 0.0
N211 N 0.24245 0.78946 0.17164 0.0
O212 O 0.32694 0.92928 0.1385 0.0
H213 H 0.25003 0.75919 0.11363 0.0
H214 H 0.26109 0.87919 0.17075 0.0
O215 O 0.20942 0.93891 0.12635 0.0
C216 C 0.37492 0.90307 0.14033 0.0
O217 O 0.38003 0.85304 0.12962 0.0
N218 N 0.23559 0.86109 0.08864 0.0
C219 C 0.19498 0.81514 0.04459 0.0
C220 C 0.16206 0.85469 0.05786 0.0
C221 C 0.18356 0.87805 0.07952 0.0
C222 C 0.26863 0.82349 0.0757 0.0
C223 C 0.24885 0.79924 0.05383 0.0
H224 H 0.15925 0.91202 0.08775 0.0
H225 H 0.31127 0.81311 0.08226 0.0
H226 H 0.2182 0.99671 0.08449 0.0
H227 H 0.38214 0.01113 0.05249 0.0
H228 H 0.22817 0.70658 0.15542 0.0
H229 H 0.12041 0.86864 0.05128 0.0
H230 H 0.27632 0.76993 0.04386 0.0
C231 C 0.973 0.67933 0.90138 0.0
C232 C 0.01164 0.68295 0.92039 0.0
N233 N 0.03145 0.73697 0.92145 0.0
N234 N 0.96842 0.73069 0.89047 0.0
C235 C 1.00488 0.76483 0.90284 0.0
H236 H 0.94755 0.64243 0.8966 0.0
Co237 Co 0.91438 0.74677 0.86678 0.0
C238 C 0.94163 0.86231 0.84674 0.0
O239 O 0.8866 0.87189 0.84327 0.0
N240 N 0.85854 0.76019 0.84255 0.0
C241 C 0.77713 0.77084 0.82157 0.0
C242 C 0.80094 0.76612 0.84465 0.0
C243 C 0.86839 0.76096 0.81803 0.0
N244 N 0.81973 0.7672 0.80489 0.0
O245 O 0.95738 0.70055 0.84437 0.0
H246 H 0.77698 0.76606 0.86164 0.0
H247 H 0.91071 0.75738 0.80991 0.0
O248 O 0.95809 0.8146 0.85599 0.0
C249 C 0.93927 0.65007 0.84059 0.0
O250 O 0.88833 0.63594 0.84908 0.0
N251 N 0.87258 0.78799 0.89068 0.0
C252 C 0.81986 0.82844 0.93352 0.0
C253 C 0.85997 0.86185 0.92081 0.0
C254 C 0.88657 0.84056 0.89975 0.0
C255 C 0.8336 0.75488 0.90284 0.0
C256 C 0.80601 0.77456 0.92409 0.0
H257 H 0.92097 0.86542 0.89215 0.0
H258 H 0.82534 0.712 0.89639 0.0
H259 H 1.00995 0.80974 0.89889 0.0
H260 H 0.0213 0.64922 0.93337 0.0
H261 H 0.73186 0.77496 0.81737 0.0
H262 H 0.87222 0.9036 0.92751 0.0
H263 H 0.77614 0.74687 0.93362 0.0
H264 H 0.32706 0.99749 0.50968 0.0
H265 H 0.19372 0.93496 0.55776 0.0
H266 H 0.16056 0.87021 0.52537 0.0
H267 H 0.16848 0.83337 0.48285 0.0
H268 H 0.30105 0.89859 0.435 0.0
H269 H 0.33636 0.95983 0.46804 0.0
C270 C 0.29133 0.96909 0.51326 0.0
C271 C 0.26313 0.97073 0.53615 0.0
C272 C 0.27249 0.93251 0.49459 0.0
C273 C 0.21589 0.93469 0.54023 0.0
C274 C 0.19713 0.89755 0.52176 0.0
C275 C 0.20552 0.86053 0.47985 0.0
C276 C 0.2323 0.86158 0.45662 0.0
C277 C 0.22498 0.89631 0.49882 0.0
C278 C 0.27969 0.89744 0.45273 0.0
C279 C 0.29985 0.93236 0.47158 0.0
H280 H 0.86017 0.73778 0.524 0.0
H281 H 0.85985 0.91122 0.4974 0.0
H282 H 0.91342 0.88216 0.46077 0.0
H283 H 0.9623 0.80777 0.43682 0.0
H284 H 0.96544 0.63487 0.46427 0.0
H285 H 0.90823 0.66317 0.49976 0.0
C286 C 0.8713 0.76894 0.51 0.0
C287 C 0.85638 0.82643 0.51336 0.0
C288 C 0.90271 0.75209 0.48916 0.0
C289 C 0.87147 0.8667 0.49527 0.0
C290 C 0.90201 0.85015 0.47433 0.0
C291 C 0.95088 0.77639 0.45065 0.0
C292 C 0.96818 0.7193 0.44778 0.0
C293 C 0.91846 0.79306 0.47123 0.0
C294 C 0.95211 0.67897 0.46574 0.0
C295 C 0.9196 0.69515 0.48617 0.0
H296 H 0.64995 0.05517 0.50939 0.0
H297 H 0.78038 0.11871 0.55868 0.0
H298 H 0.81977 0.17738 0.52556 0.0
H299 H 0.82341 0.20189 0.48168 0.0
H300 H 0.69514 0.13544 0.4322 0.0
H301 H 0.64686 0.08836 0.46672 0.0
C302 C 0.68605 0.08283 0.51319 0.0
C303 C 0.71265 0.08179 0.53648 0.0
C304 C 0.70876 0.11592 0.49402 0.0
C305 C 0.75983 0.11772 0.54082 0.0
C306 C 0.78223 0.15145 0.52192 0.0
C307 C 0.78446 0.1776 0.47854 0.0
C308 C 0.76326 0.17125 0.45445 0.0
C309 C 0.75811 0.14943 0.49828 0.0
C310 C 0.71217 0.14087 0.45061 0.0
C311 C 0.68494 0.11355 0.47029 0.0
H312 H 0.09065 0.291 0.53284 0.0
H313 H 0.23406 0.21584 0.49458 0.0
H314 H 0.19223 0.24369 0.45487 0.0
H315 H 0.10952 0.28124 0.43122 0.0
H316 H 0.96727 0.35727 0.47017 0.0
H317 H 0.01407 0.33823 0.50943 0.0
C318 C 0.11308 0.28191 0.51576 0.0
C319 C 0.16496 0.25158 0.51636 0.0
C320 C 0.08879 0.29789 0.4932 0.0
C321 C 0.19412 0.23965 0.49433 0.0
C322 C 0.17003 0.25515 0.47171 0.0
C323 C 0.08939 0.29416 0.44835 0.0
C324 C 0.03511 0.32039 0.44785 0.0
C325 C 0.11661 0.28298 0.47092 0.0
C326 C 1.00935 0.33755 0.47007 0.0
C327 C 0.03586 0.32629 0.49255 0.0
H328 H 0.87629 0.8806 0.97085 0.0
H329 H 0.70824 0.82164 0.94931 0.0
H330 H 0.66705 0.86164 0.98704 0.0
H331 H 0.67803 0.91935 0.02454 0.0
H332 H 0.84588 0.98306 0.04417 0.0
H333 H 0.88785 0.93446 0.00903 0.0
C334 C 0.83056 0.87675 0.97433 0.0
C335 C 0.79519 0.84905 0.95711 0.0
C336 C 0.80715 0.90053 -0.00422 0.0
C337 C 0.73636 0.84283 0.96226 0.0
C338 C 0.71278 0.86591 0.98377 0.0
C339 C 0.72378 0.92261 0.02117 0.0
C340 C 0.75837 0.95536 0.03705 0.0
C341 C 0.74764 0.89578 0.00042 0.0
C342 C 0.81792 0.9579 0.03261 0.0
C343 C 0.84207 0.9305 0.01228 0.0
H344 H 0.87304 0.14222 0.00121 0.0
H345 H 0.85057 0.31061 0.03166 0.0
H346 H 0.89968 0.35229 -0.00394 0.0
H347 H 0.95469 0.33968 0.95834 0.0
H348 H 0.97522 0.17089 0.92727 0.0
H349 H 0.92119 0.13067 0.96127 0.0
C350 C 0.87885 0.18806 -5e-05 0.0
C351 C 0.85907 0.2234 0.01904 0.0
C352 C 0.90705 0.21155 0.97952 0.0
C353 C 0.86559 0.28274 0.0171 0.0
C354 C 0.89382 0.30645 -0.00315 0.0
C355 C 0.94719 0.2942 0.95859 0.0
C356 C 0.97083 0.25869 0.94021 0.0
C357 C 0.9156 0.2711 0.97817 0.0
C358 C 0.95938 0.19969 0.94124 0.0
C359 C 0.92805 0.17639 0.96071 0.0
H360 H 0.16171 0.13446 0.97582 0.0
H361 H 0.33134 0.19926 0.96042 0.0
H362 H 0.36695 0.15704 -0.00122 0.0
H363 H 0.35109 0.09556 0.0349 0.0
H364 H 0.18209 0.02581 0.04811 0.0
H365 H 0.14504 0.07685 0.01262 0.0
C366 C 0.20658 0.13915 0.98079 0.0
C367 C 0.24408 0.16905 0.96509 0.0
C368 C 0.22685 0.11398 0.00252 0.0
C369 C 0.30164 0.17634 0.97217 0.0
C370 C 0.32204 0.15198 -0.00597 0.0
C371 C 0.30617 0.09141 0.03005 0.0
C372 C 0.26985 0.05622 0.04423 0.0
C373 C 0.28524 0.11969 0.00907 0.0
C374 C 0.21132 0.05271 0.03789 0.0
C375 C 0.19001 0.08156 0.01736 0.0
H376 H 0.1033 0.68104 0.95219 0.0
H377 H 0.03644 0.84859 0.93506 0.0
H378 H 0.08563 0.88795 0.97056 0.0
H379 H 0.14124 0.87396 0.00823 0.0
H380 H 0.20181 0.70555 0.02747 0.0
H381 H 0.16136 0.66744 0.98937 0.0
C382 C 0.09923 0.72612 0.9562 0.0
C383 C 0.06553 0.76139 0.94093 0.0
C384 C 0.12621 0.74836 0.97716 0.0
C385 C 0.06224 0.82014 0.94618 0.0
C386 C 0.09001 0.84278 0.96669 0.0
C387 C 0.14527 0.82881 0.00419 0.0
C388 C 0.17374 0.79248 0.02082 0.0
C389 C 0.12096 0.80706 0.98259 0.0
C390 C 0.18017 0.73444 0.01494 0.0
C391 C 0.1568 0.71259 -0.00676 0.0
H392 H 0.60687 0.02483 0.64471 0.0
H393 H 0.52004 0.86471 0.63272 0.0
H394 H 0.42722 0.91158 0.63732 0.0
H395 H 0.37077 1.00054 0.63787 0.0
H396 H 0.45769 0.16071 0.6494 0.0
H397 H 0.54963 0.11131 0.65237 0.0
C398 C 0.56772 0.99992 0.64371 0.0
C399 C 0.57061 0.94155 0.63786 0.0
C400 C 0.5141 0.02731 0.64605 0.0
C401 C 0.51928 0.90991 0.63684 0.0
C402 C 0.46595 0.93671 0.63941 0.0
C403 C 0.40956 0.02442 0.6418 0.0
C404 C 0.40739 0.08431 0.64299 0.0
C405 C 0.46277 0.99581 0.643 0.0
C406 C 0.45818 0.11458 0.64807 0.0
C407 C 0.51096 0.0864 0.64967 0.0
H408 H 0.14246 0.51784 0.33735 0.0
H409 H 0.9968 0.63054 0.32896 0.0
H410 H 0.93429 0.54848 0.32218 0.0
H411 H 0.91876 0.44523 0.32509 0.0
H412 H 0.06324 0.33246 0.33633 0.0
H413 H 0.12853 0.41403 0.33502 0.0
C414 C 0.09725 0.52467 0.33354 0.0
C415 C 0.0743 0.58045 0.33404 0.0
C416 C 0.0612 0.47713 0.33038 0.0
C417 C 0.01566 0.58825 0.32885 0.0
C418 C 0.97978 0.54123 0.3251 0.0
C419 C 0.96466 0.43821 0.32674 0.0
C420 C 0.9859 0.38272 0.33116 0.0
C421 C 1.00171 0.48549 0.3268 0.0
C422 C 0.04558 0.37457 0.33299 0.0
C423 C 0.08293 0.42133 0.33244 0.0
H424 H 0.62796 0.99103 0.14534 0.0
H425 H 0.54018 0.15308 0.14107 0.0
H426 H 0.44811 0.10597 0.14715 0.0
H427 H 0.39139 0.01758 0.14683 0.0
H428 H 0.47883 0.85531 0.15037 0.0
H429 H 0.57143 0.90354 0.15197 0.0
C430 C 0.58887 0.01617 0.1464 0.0
C431 C 0.59105 0.07538 0.14229 0.0
C432 C 0.53556 0.98864 0.14951 0.0
C433 C 0.53983 0.10729 0.1438 0.0
C434 C 0.48694 0.08037 0.14723 0.0
C435 C 0.43055 0.99282 0.14871 0.0
C436 C 0.42808 0.9329 0.14808 0.0
C437 C 0.48403 0.02084 0.14908 0.0
C438 C 0.47943 0.90154 0.15051 0.0
C439 C 0.53258 0.92908 0.15131 0.0
H440 H 0.14353 0.47777 0.83311 0.0
H441 H 1.00274 0.35811 0.83344 0.0
H442 H 0.93453 0.43643 0.82842 0.0
H443 H 0.91434 0.53908 0.83107 0.0
H444 H 0.05502 0.6588 0.83253 0.0
H445 H 0.12363 0.5803 0.82927 0.0
C446 C 0.09801 0.46865 0.83155 0.0
C447 C 0.07826 0.41221 0.83415 0.0
C448 C 0.05887 0.51403 0.82927 0.0
C449 C 0.01919 0.40114 0.83171 0.0
C450 C 0.98004 0.44599 0.829 0.0
C451 C 0.95997 0.54815 0.83015 0.0
C452 C 0.97949 0.60469 0.83255 0.0
C453 C 0.99928 0.5027 0.82886 0.0
C454 C 0.03874 0.6157 0.83094 0.0
C455 C 0.07809 0.57075 0.82922 0.0
H456 H 0.02838 0.13904 0.6249 0.0
H457 H 0.13985 0.99179 0.6288 0.0
H458 H 0.05582 0.92946 0.63148 0.0
H459 H 0.95169 0.91661 0.63073 0.0
H460 H 0.83952 0.06278 0.62394 0.0
H461 H 0.92334 0.12606 0.62471 0.0
C462 C 0.03451 0.09333 0.62655 0.0
C463 C 0.09066 0.07016 0.6267 0.0
C464 C 0.98593 0.0577 0.62756 0.0
C465 C 0.09739 0.01079 0.62863 0.0
C466 C 0.04929 0.97517 0.63016 0.0
C467 C 0.94512 0.96236 0.62963 0.0
C468 C 0.88895 0.98482 0.62733 0.0
C469 C 0.99346 0.99814 0.62937 0.0
C470 C 0.88195 0.04426 0.62584 0.0
C471 C 0.92996 0.08039 0.62616 0.0
H472 H 0.98109 0.89609 0.38994 0.0
H473 H 0.08167 0.87397 0.32403 0.0
H474 H 0.0802 0.97741 0.31679 0.0
H475 H 0.04874 0.07446 0.32911 0.0
H476 H 0.95509 0.09543 0.39714 0.0
H477 H 0.95646 0.99302 0.40385 0.0
C478 C 1.00206 0.91399 0.37384 0.0
C479 C 0.03006 0.87748 0.35715 0.0
C480 C 1.00306 0.97359 0.37039 0.0
C481 C 0.05893 0.90126 0.33686 0.0
C482 C 0.05837 0.9604 0.33282 0.0
C483 C 0.02929 0.05674 0.34557 0.0
C484 C 1.00176 0.09333 0.36254 0.0
C485 C 0.03055 0.99711 0.34949 0.0
C486 C 0.97699 0.06912 0.38378 0.0
C487 C 0.97724 0.01011 0.38757 0.0
H488 H 0.04697 0.89249 0.13677 0.0
H489 H 0.16019 0.03815 0.13454 0.0
H490 H 0.07685 0.1021 0.13435 0.0
H491 H 0.9724 0.11628 0.13256 0.0
H492 H 0.85934 0.97043 0.13208 0.0
H493 H 0.94247 0.90673 0.13568 0.0
C494 C 0.0537 0.93825 0.1365 0.0
C495 C 0.11013 0.96041 0.13577 0.0
C496 C 1.00559 0.97464 0.13578 0.0
C497 C 0.11752 0.01986 0.1352 0.0
C498 C 0.0698 0.05642 0.13501 0.0
C499 C 0.96562 0.07057 0.13347 0.0
C500 C 0.90934 0.04825 0.13211 0.0
C501 C 0.01369 0.03424 0.13498 0.0
C502 C 0.90191 0.98884 0.13313 0.0
C503 C 0.94951 0.95241 0.13514 0.0
H504 H 0.91556 0.97515 0.84291 0.0
H505 H 0.05923 0.8588 0.84712 0.0
H506 H 0.12576 0.93953 0.84708 0.0
H507 H 0.14275 0.0429 0.84793 0.0
H508 H 0.99873 0.15919 0.84651 0.0
H509 H 0.9326 0.07851 0.84328 0.0
C510 C 0.96145 0.96727 0.84355 0.0
C511 C 0.98236 0.91082 0.8449 0.0
C512 C 0.99933 0.01391 0.84413 0.0
C513 C 0.04197 0.90169 0.84603 0.0
C514 C 0.08001 0.94787 0.84604 0.0
C515 C 0.09693 0.05078 0.84665 0.0
C516 C 0.07577 0.1072 0.84736 0.0
C517 C 0.05913 1.00415 0.84539 0.0
C518 C 0.01619 0.11633 0.84598 0.0
C519 C 0.97837 0.07017 0.84416 0.0
H520 H 0.29457 0.28514 0.70028 0.0
H521 H 0.15583 0.16446 0.69523 0.0
H522 H 0.14699 0.16267 0.74015 0.0
H523 H 0.1797 0.19472 0.78071 0.0
H524 H 0.32065 0.31294 0.78614 0.0
H525 H 0.32869 0.31593 0.7412 0.0
C526 C 0.2621 0.25911 0.70913 0.0
C527 C 0.22547 0.2254 0.69471 0.0
C528 C 0.25829 0.25737 0.73491 0.0
C529 C 0.18429 0.19069 0.70617 0.0
C530 C 0.17934 0.18964 0.73175 0.0
C531 C 0.212 0.22124 0.77199 0.0
C532 C 0.24937 0.2537 0.78659 0.0
C533 C 0.21629 0.2226 0.74628 0.0
C534 C 0.2918 0.28716 0.77521 0.0
C535 C 0.29606 0.28923 0.74956 0.0
H536 H 0.30046 0.83463 0.20953 0.0
H537 H 0.16136 0.72141 0.19121 0.0
H538 H 0.14307 0.70395 0.23494 0.0
H539 H 0.1674 0.72032 0.27829 0.0
H540 H 0.30915 0.82989 0.29691 0.0
H541 H 0.32605 0.84962 0.25313 0.0
C542 C 0.26601 0.80646 0.21523 0.0
C543 C 0.23216 0.77938 0.19734 0.0
C544 C 0.25643 0.79603 0.24036 0.0
C545 C 0.18816 0.74224 0.20476 0.0
C546 C 0.17759 0.73249 0.2297 0.0
C547 C 0.2016 0.7489 0.2727 0.0
C548 C 0.23675 0.77407 0.29063 0.0
C549 C 0.2115 0.75909 0.24763 0.0
C550 C 0.28179 0.81002 0.28329 0.0
C551 C 0.29128 0.82136 0.25834 0.0
H552 H 0.74248 0.82641 0.77862 0.0
H553 H 0.88534 0.71015 0.77199 0.0
H554 H 0.87727 0.71287 0.72711 0.0
H555 H 0.83053 0.75022 0.68967 0.0
H556 H 0.68919 0.86814 0.6966 0.0
H557 H 0.69515 0.8626 0.74144 0.0
C558 C 0.77142 0.8013 0.76733 0.0
C559 C 0.81442 0.76826 0.77853 0.0
C560 C 0.76676 0.80342 0.74162 0.0
C561 C 0.85233 0.73652 0.76372 0.0
C562 C 0.84753 0.73779 0.7381 0.0
C563 C 0.8008 0.7741 0.70108 0.0
C564 C 0.75964 0.80958 0.68998 0.0
C565 C 0.80506 0.77131 0.72684 0.0
C566 C 0.72166 0.84106 0.70484 0.0
C567 C 0.72493 0.83777 0.73043 0.0
H568 H 0.86869 0.25319 0.27393 0.0
H569 H 0.75167 0.11526 0.29 0.0
H570 H 0.72211 0.11277 0.24697 0.0
H571 H 0.73136 0.14815 0.20458 0.0
H572 H 0.84685 0.28709 0.18882 0.0
H573 H 0.87381 0.29212 0.23224 0.0
C574 C 0.836 0.22319 0.26824 0.0
C575 C 0.81281 0.18423 0.28529 0.0
C576 C 0.81875 0.22234 0.24353 0.0
C577 C 0.7711 0.14509 0.27727 0.0
C578 C 0.75386 0.14383 0.25267 0.0
C579 C 0.76246 0.17942 0.2107 0.0
C580 C 0.78737 0.21694 0.19356 0.0
C581 C 0.77788 0.18184 0.23561 0.0
C582 C 0.82678 0.25807 0.20173 0.0
C583 C 0.84248 0.26068 0.22649 0.0
loop_
_geom_bond_atom_site_label_1
_geom_bond_atom_site_label_2
_geom_bond_distance
_geom_bond_site_symmetry_2
_ccdc_geom_bond_type
C0 C1 1.351 . S
C0 N3 1.368 . S
C0 H5 0.931 . S
C1 C0 1.351 . S
C1 N2 1.373 1_545 S
C1 H29 0.930 . S
N2 C1 1.373 1_565 S
N2 C4 1.340 1_565 S
N3 C0 1.368 . S
N3 C4 1.321 . S
N3 Co6 2.135 . S
C4 N2 1.340 1_545 S
C4 N3 1.321 . S
C4 H28 0.934 . S
H5 C0 0.931 . S
Co6 N3 2.135 . S
Co6 N9 2.121 . S
Co6 O14 2.055 . S
Co6 O17 2.039 . S
Co6 N20 2.140 . S
C7 O8 1.227 . S
C7 O17 1.265 . S
O8 C7 1.227 . S
N9 Co6 2.121 . S
N9 C11 1.375 . S
N9 C12 1.313 . S
C10 C11 1.338 . S
C10 N13 1.377 . S
C10 H30 0.930 . S
C11 N9 1.375 . S
C11 C10 1.338 . S
C11 H15 0.931 . S
C12 N9 1.313 . S
C12 N13 1.344 . S
C12 H16 0.930 . S
N13 C10 1.377 . S
N13 C12 1.344 . S
O14 Co6 2.055 . S
O14 C18 1.253 . S
H15 C11 0.931 . S
H16 C12 0.930 . S
O17 Co6 2.039 . S
O17 C7 1.265 . S
C18 O14 1.253 . S
C18 O19 1.227 . S
O19 C18 1.227 . S
N20 Co6 2.140 . S
N20 C23 1.346 . S
N20 C24 1.345 . S
C21 C22 1.387 . S
C21 C25 1.391 . S
C22 C21 1.387 . S
C22 C23 1.369 . S
C22 H31 0.929 . S
C23 N20 1.346 . S
C23 C22 1.369 . S
C23 H26 0.928 . S
C24 N20 1.345 . S
C24 C25 1.371 . S
C24 H27 0.931 . S
C25 C21 1.391 . S
C25 C24 1.371 . S
C25 H32 0.930 . S
H26 C23 0.928 . S
H27 C24 0.931 . S
H28 C4 0.934 . S
H29 C1 0.930 . S
H30 C10 0.930 . S
H31 C22 0.929 . S
H32 C25 0.930 . S
C33 C34 1.351 . S
C33 N36 1.368 . S
C33 H38 0.931 . S
C34 C33 1.351 . S
C34 N35 1.373 1_455 S
C34 H62 0.930 . S
N35 C34 1.373 1_655 S
N35 C37 1.340 1_655 S
N36 C33 1.368 . S
N36 C37 1.321 . S
N36 Co39 2.135 . S
C37 N35 1.340 1_455 S
C37 N36 1.321 . S
C37 H61 0.934 . S
H38 C33 0.931 . S
Co39 N36 2.135 . S
Co39 N42 2.121 . S
Co39 O47 2.055 . S
Co39 O50 2.039 . S
Co39 N53 2.140 . S
C40 O41 1.227 . S
C40 O50 1.265 . S
O41 C40 1.227 . S
N42 Co39 2.121 . S
N42 C44 1.375 . S
N42 C45 1.313 . S
C43 C44 1.338 . S
C43 N46 1.377 . S
C43 H63 0.930 . S
C44 N42 1.375 . S
C44 C43 1.338 . S
C44 H48 0.931 . S
C45 N42 1.313 . S
C45 N46 1.344 . S
C45 H49 0.930 . S
N46 C43 1.377 . S
N46 C45 1.344 . S
O47 Co39 2.055 . S
O47 C51 1.253 . S
H48 C44 0.931 . S
H49 C45 0.930 . S
O50 Co39 2.039 . S
O50 C40 1.265 . S
C51 O47 1.253 . S
C51 O52 1.227 . S
O52 C51 1.227 . S
N53 Co39 2.140 . S
N53 C56 1.346 . S
N53 C57 1.345 . S
C54 C55 1.387 . S
C54 C58 1.391 . S
C55 C54 1.387 . S
C55 C56 1.369 . S
C55 H64 0.929 . S
C56 N53 1.346 . S
C56 C55 1.369 . S
C56 H59 0.928 . S
C57 N53 1.345 . S
C57 C58 1.371 . S
C57 H60 0.931 . S
C58 C54 1.391 . S
C58 C57 1.371 . S
C58 H65 0.930 . S
H59 C56 0.928 . S
H60 C57 0.931 . S
H61 C37 0.934 . S
H62 C34 0.930 . S
H63 C43 0.930 . S
H64 C55 0.929 . S
H65 C58 0.930 . S
C66 C67 1.351 . S
C66 N69 1.368 . S
C66 H71 0.931 . S
C67 C66 1.351 . S
C67 N68 1.373 1_565 S
C67 H95 0.930 . S
N68 C67 1.373 1_545 S
N68 C70 1.340 1_545 S
N69 C66 1.368 . S
N69 C70 1.321 . S
N69 Co72 2.135 . S
C70 N68 1.340 1_565 S
C70 N69 1.321 . S
C70 H94 0.934 . S
H71 C66 0.931 . S
Co72 N69 2.135 . S
Co72 N75 2.121 . S
Co72 O80 2.055 . S
Co72 O83 2.039 . S
Co72 N86 2.140 . S
C73 O74 1.227 . S
C73 O83 1.265 . S
O74 C73 1.227 . S
N75 Co72 2.121 . S
N75 C77 1.375 . S
N75 C78 1.313 . S
C76 C77 1.338 . S
C76 N79 1.377 . S
C76 H96 0.930 . S
C77 N75 1.375 . S
C77 C76 1.338 . S
C77 H81 0.931 . S
C78 N75 1.313 . S
C78 N79 1.344 . S
C78 H82 0.930 . S
N79 C76 1.377 . S
N79 C78 1.344 . S
O80 Co72 2.055 . S
O80 C84 1.253 . S
H81 C77 0.931 . S
H82 C78 0.930 . S
O83 Co72 2.039 . S
O83 C73 1.265 . S
C84 O80 1.253 . S
C84 O85 1.227 . S
O85 C84 1.227 . S
N86 Co72 2.140 . S
N86 C89 1.346 . S
N86 C90 1.345 . S
C87 C88 1.387 . S
C87 C91 1.391 . S
C88 C87 1.387 . S
C88 C89 1.369 . S
C88 H97 0.929 . S
C89 N86 1.346 . S
C89 C88 1.369 . S
C89 H92 0.928 . S
C90 N86 1.345 . S
C90 C91 1.371 . S
C90 H93 0.931 . S
C91 C87 1.391 . S
C91 C90 1.371 . S
C91 H98 0.930 . S
H92 C89 0.928 . S
H93 C90 0.931 . S
H94 C70 0.934 . S
H95 C67 0.930 . S
H96 C76 0.930 . S
H97 C88 0.929 . S
H98 C91 0.930 . S
C99 C100 1.351 . S
C99 N102 1.368 . S
C99 H104 0.931 . S
C100 C99 1.351 . S
C100 N101 1.373 1_655 S
C100 H128 0.930 . S
N101 C100 1.373 1_455 S
N101 C103 1.340 1_455 S
N102 C99 1.368 . S
N102 C103 1.321 . S
N102 Co105 2.135 . S
C103 N101 1.340 1_655 S
C103 N102 1.321 . S
C103 H127 0.934 . S
H104 C99 0.931 . S
Co105 N102 2.135 . S
Co105 N108 2.121 . S
Co105 O113 2.055 . S
Co105 O116 2.039 . S
Co105 N119 2.140 . S
C106 O107 1.227 . S
C106 O116 1.265 . S
O107 C106 1.227 . S
N108 Co105 2.121 . S
N108 C110 1.375 . S
N108 C111 1.313 . S
C109 C110 1.338 . S
C109 N112 1.377 . S
C109 H129 0.930 . S
C110 N108 1.375 . S
C110 C109 1.338 . S
C110 H114 0.931 . S
C111 N108 1.313 . S
C111 N112 1.344 . S
C111 H115 0.930 . S
N112 C109 1.377 . S
N112 C111 1.344 . S
O113 Co105 2.055 . S
O113 C117 1.253 . S
H114 C110 0.931 . S
H115 C111 0.930 . S
O116 Co105 2.039 . S
O116 C106 1.265 . S
C117 O113 1.253 . S
C117 O118 1.227 . S
O118 C117 1.227 . S
N119 Co105 2.140 . S
N119 C122 1.346 . S
N119 C123 1.345 . S
C120 C121 1.387 . S
C120 C124 1.391 . S
C121 C120 1.387 . S
C121 C122 1.369 . S
C121 H130 0.929 . S
C122 N119 1.346 . S
C122 C121 1.369 . S
C122 H125 0.928 . S
C123 N119 1.345 . S
C123 C124 1.371 . S
C123 H126 0.931 . S
C124 C120 1.391 . S
C124 C123 1.371 . S
C124 H131 0.930 . S
H125 C122 0.928 . S
H126 C123 0.931 . S
H127 C103 0.934 . S
H128 C100 0.930 . S
H129 C109 0.930 . S
H130 C121 0.929 . S
H131 C124 0.930 . S
C132 C133 1.351 . S
C132 N135 1.368 . S
C132 H137 0.931 . S
C133 C132 1.351 . S
C133 N134 1.373 1_545 S
C133 H161 0.930 . S
N134 C133 1.373 1_565 S
N134 C136 1.340 1_565 S
N135 C132 1.368 . S
N135 C136 1.321 . S
N135 Co138 2.135 . S
C136 N134 1.340 1_545 S
C136 N135 1.321 . S
C136 H160 0.934 . S
H137 C132 0.931 . S
Co138 N135 2.135 . S
Co138 N141 2.121 . S
Co138 O146 2.055 . S
Co138 O149 2.039 . S
Co138 N152 2.140 . S
C139 O140 1.227 . S
C139 O149 1.265 . S
O140 C139 1.227 . S
N141 Co138 2.121 . S
N141 C143 1.375 . S
N141 C144 1.313 . S
C142 C143 1.338 . S
C142 N145 1.377 . S
C142 H162 0.930 . S
C143 N141 1.375 . S
C143 C142 1.338 . S
C143 H147 0.931 . S
C144 N141 1.313 . S
C144 N145 1.344 . S
C144 H148 0.930 . S
N145 C142 1.377 . S
N145 C144 1.344 . S
O146 Co138 2.055 . S
O146 C150 1.253 . S
H147 C143 0.931 . S
H148 C144 0.930 . S
O149 Co138 2.039 . S
O149 C139 1.265 . S
C150 O146 1.253 . S
C150 O151 1.227 . S
O151 C150 1.227 . S
N152 Co138 2.140 . S
N152 C155 1.346 . S
N152 C156 1.345 . S
C153 C154 1.387 . S
C153 C157 1.391 . S
C154 C153 1.387 . S
C154 C155 1.369 . S
C154 H163 0.929 . S
C155 N152 1.346 . S
C155 C154 1.369 . S
C155 H158 0.928 . S
C156 N152 1.345 . S
C156 C157 1.371 . S
C156 H159 0.931 . S
C157 C153 1.391 . S
C157 C156 1.371 . S
C157 H164 0.930 . S
H158 C155 0.928 . S
H159 C156 0.931 . S
H160 C136 0.934 . S
H161 C133 0.930 . S
H162 C142 0.930 . S
H163 C154 0.929 . S
H164 C157 0.930 . S
C165 C166 1.351 . S
C165 N168 1.368 . S
C165 H170 0.931 . S
C166 C165 1.351 . S
C166 N167 1.373 1_455 S
C166 H194 0.930 . S
N167 C166 1.373 1_655 S
N167 C169 1.340 1_655 S
N168 C165 1.368 . S
N168 C169 1.321 . S
N168 Co171 2.135 . S
C169 N167 1.340 1_455 S
C169 N168 1.321 . S
C169 H193 0.934 . S
H170 C165 0.931 . S
Co171 N168 2.135 . S
Co171 N174 2.121 . S
Co171 O179 2.055 . S
Co171 O182 2.039 . S
Co171 N185 2.140 . S
C172 O173 1.227 . S
C172 O182 1.265 . S
O173 C172 1.227 . S
N174 Co171 2.121 . S
N174 C176 1.375 . S
N174 C177 1.313 . S
C175 C176 1.338 . S
C175 N178 1.377 . S
C175 H195 0.930 . S
C176 N174 1.375 . S
C176 C175 1.338 . S
C176 H180 0.931 . S
C177 N174 1.313 . S
C177 N178 1.344 . S
C177 H181 0.930 . S
N178 C175 1.377 . S
N178 C177 1.344 . S
O179 Co171 2.055 . S
O179 C183 1.253 . S
H180 C176 0.931 . S
H181 C177 0.930 . S
O182 Co171 2.039 . S
O182 C172 1.265 . S
C183 O179 1.253 . S
C183 O184 1.227 . S
O184 C183 1.227 . S
N185 Co171 2.140 . S
N185 C188 1.346 . S
N185 C189 1.345 . S
C186 C187 1.387 . S
C186 C190 1.391 . S
C187 C186 1.387 . S
C187 C188 1.369 . S
C187 H196 0.929 . S
C188 N185 1.346 . S
C188 C187 1.369 . S
C188 H191 0.928 . S
C189 N185 1.345 . S
C189 C190 1.371 . S
C189 H192 0.931 . S
C190 C186 1.391 . S
C190 C189 1.371 . S
C190 H197 0.930 . S
H191 C188 0.928 . S
H192 C189 0.931 . S
H193 C169 0.934 . S
H194 C166 0.930 . S
H195 C175 0.930 . S
H196 C187 0.929 . S
H197 C190 0.930 . S
C198 C199 1.351 . S
C198 N201 1.368 . S
C198 H203 0.931 . S
C199 C198 1.351 . S
C199 N200 1.373 1_565 S
C199 H227 0.930 . S
N200 C199 1.373 1_545 S
N200 C202 1.340 1_545 S
N201 C198 1.368 . S
N201 C202 1.321 . S
N201 Co204 2.135 . S
C202 N200 1.340 1_565 S
C202 N201 1.321 . S
C202 H226 0.934 . S
H203 C198 0.931 . S
Co204 N201 2.135 . S
Co204 N207 2.121 . S
Co204 O212 2.055 . S
Co204 O215 2.039 . S
Co204 N218 2.140 . S
C205 O206 1.227 . S
C205 O215 1.265 . S
O206 C205 1.227 . S
N207 Co204 2.121 . S
N207 C209 1.375 . S
N207 C210 1.313 . S
C208 C209 1.338 . S
C208 N211 1.377 . S
C208 H228 0.930 . S
C209 N207 1.375 . S
C209 C208 1.338 . S
C209 H213 0.931 . S
C210 N207 1.313 . S
C210 N211 1.344 . S
C210 H214 0.930 . S
N211 C208 1.377 . S
N211 C210 1.344 . S
O212 Co204 2.055 . S
O212 C216 1.253 . S
H213 C209 0.931 . S
H214 C210 0.930 . S
O215 Co204 2.039 . S
O215 C205 1.265 . S
C216 O212 1.253 . S
C216 O217 1.227 . S
O217 C216 1.227 . S
N218 Co204 2.140 . S
N218 C221 1.346 . S
N218 C222 1.345 . S
C219 C220 1.387 . S
C219 C223 1.391 . S
C220 C219 1.387 . S
C220 C221 1.369 . S
C220 H229 0.929 . S
C221 N218 1.346 . S
C221 C220 1.369 . S
C221 H224 0.928 . S
C222 N218 1.345 . S
C222 C223 1.371 . S
C222 H225 0.931 . S
C223 C219 1.391 . S
C223 C222 1.371 . S
C223 H230 0.930 . S
H224 C221 0.928 . S
H225 C222 0.931 . S
H226 C202 0.934 . S
H227 C199 0.930 . S
H228 C208 0.930 . S
H229 C220 0.929 . S
H230 C223 0.930 . S
C231 C232 1.351 . S
C231 N234 1.368 . S
C231 H236 0.931 . S
C232 C231 1.351 . S
C232 N233 1.373 1_655 S
C232 H260 0.930 . S
N233 C232 1.373 1_455 S
N233 C235 1.340 1_455 S
N234 C231 1.368 . S
N234 C235 1.321 . S
N234 Co237 2.135 . S
C235 N233 1.340 1_655 S
C235 N234 1.321 . S
C235 H259 0.934 . S
H236 C231 0.931 . S
Co237 N234 2.135 . S
Co237 N240 2.121 . S
Co237 O245 2.055 . S
Co237 O248 2.039 . S
Co237 N251 2.140 . S
C238 O239 1.227 . S
C238 O248 1.265 . S
O239 C238 1.227 . S
N240 Co237 2.121 . S
N240 C242 1.375 . S
N240 C243 1.313 . S
C241 C242 1.338 . S
C241 N244 1.377 . S
C241 H261 0.930 . S
C242 N240 1.375 . S
C242 C241 1.338 . S
C242 H246 0.931 . S
C243 N240 1.313 . S
C243 N244 1.344 . S
C243 H247 0.930 . S
N244 C241 1.377 . S
N244 C243 1.344 . S
O245 Co237 2.055 . S
O245 C249 1.253 . S
H246 C242 0.931 . S
H247 C243 0.930 . S
O248 Co237 2.039 . S
O248 C238 1.265 . S
C249 O245 1.253 . S
C249 O250 1.227 . S
O250 C249 1.227 . S
N251 Co237 2.140 . S
N251 C254 1.346 . S
N251 C255 1.345 . S
C252 C253 1.387 . S
C252 C256 1.391 . S
C253 C252 1.387 . S
C253 C254 1.369 . S
C253 H262 0.929 . S
C254 N251 1.346 . S
C254 C253 1.369 . S
C254 H257 0.928 . S
C255 N251 1.345 . S
C255 C256 1.371 . S
C255 H258 0.931 . S
C256 C252 1.391 . S
C256 C255 1.371 . S
C256 H263 0.930 . S
H257 C254 0.928 . S
H258 C255 0.931 . S
H259 C235 0.934 . S
H260 C232 0.930 . S
H261 C241 0.930 . S
H262 C253 0.929 . S
H263 C256 0.930 . S
H264 C270 0.930 1_545 S
H265 C273 0.930 . S
H266 C274 0.930 . S
H267 C275 0.930 . S
H268 C278 0.930 . S
H269 C279 0.930 . S
C270 H264 0.930 1_565 S
C270 C271 1.355 . S
C270 C272 1.415 . S
C271 C270 1.355 . S
C271 C273 1.419 . S
C272 C270 1.415 . S
C272 C277 1.425 . S
C272 C279 1.409 . S
C273 H265 0.930 . S
C273 C271 1.419 . S
C273 C274 1.362 . S
C274 H266 0.930 . S
C274 C273 1.362 . S
C274 C277 1.409 . S
C275 H267 0.930 . S
C275 C276 1.355 . S
C275 C277 1.415 . S
C276 C275 1.355 . S
C276 C278 1.419 . S
C277 C272 1.425 . S
C277 C274 1.409 . S
C277 C275 1.415 . S
C278 H268 0.930 . S
C278 C276 1.419 . S
C278 C279 1.362 . S
C279 H269 0.930 . S
C279 C272 1.409 . S
C279 C278 1.362 . S
H280 C286 0.930 . S
H281 C289 0.930 . S
H282 C290 0.930 . S
H283 C291 0.930 . S
H284 C294 0.930 1_455 S
H285 C295 0.930 . S
C286 H280 0.930 . S
C286 C287 1.355 . S
C286 C288 1.415 . S
C287 C286 1.355 . S
C287 C289 1.419 . S
C288 C286 1.415 . S
C288 C293 1.425 . S
C288 C295 1.409 . S
C289 H281 0.930 . S
C289 C287 1.419 . S
C289 C290 1.362 . S
C290 H282 0.930 . S
C290 C289 1.362 . S
C290 C293 1.409 . S
C291 H283 0.930 . S
C291 C292 1.355 . S
C291 C293 1.415 . S
C292 C291 1.355 . S
C292 C294 1.419 . S
C293 C288 1.425 . S
C293 C290 1.409 . S
C293 C291 1.415 . S
C294 H284 0.930 1_655 S
C294 C292 1.419 . S
C294 C295 1.362 . S
C295 H285 0.930 . S
C295 C288 1.409 . S
C295 C294 1.362 . S
H296 C302 0.930 . S
H297 C305 0.930 . S
H298 C306 0.930 . S
H299 C307 0.930 . S
H300 C310 0.930 . S
H301 C311 0.930 . S
C302 H296 0.930 . S
C302 C303 1.355 . S
C302 C304 1.415 . S
C303 C302 1.355 . S
C303 C305 1.419 . S
C304 C302 1.415 . S
C304 C309 1.425 . S
C304 C311 1.409 . S
C305 H297 0.930 . S
C305 C303 1.419 . S
C305 C306 1.362 . S
C306 H298 0.930 . S
C306 C305 1.362 . S
C306 C309 1.409 . S
C307 H299 0.930 . S
C307 C308 1.355 . S
C307 C309 1.415 . S
C308 C307 1.355 . S
C308 C310 1.419 . S
C309 C304 1.425 . S
C309 C306 1.409 . S
C309 C307 1.415 . S
C310 H300 0.930 . S
C310 C308 1.419 . S
C310 C311 1.362 . S
C311 H301 0.930 . S
C311 C304 1.409 . S
C311 C310 1.362 . S
H312 C318 0.930 . S
H313 C321 0.930 . S
H314 C322 0.930 . S
H315 C323 0.930 . S
H316 C326 0.930 1_655 S
H317 C327 0.930 . S
C318 H312 0.930 . S
C318 C319 1.355 . S
C318 C320 1.415 . S
C319 C318 1.355 . S
C319 C321 1.419 . S
C320 C318 1.415 . S
C320 C325 1.425 . S
C320 C327 1.409 . S
C321 H313 0.930 . S
C321 C319 1.419 . S
C321 C322 1.362 . S
C322 H314 0.930 . S
C322 C321 1.362 . S
C322 C325 1.409 . S
C323 H315 0.930 . S
C323 C324 1.355 . S
C323 C325 1.415 . S
C324 C323 1.355 . S
C324 C326 1.419 . S
C325 C320 1.425 . S
C325 C322 1.409 . S
C325 C323 1.415 . S
C326 H316 0.930 1_455 S
C326 C324 1.419 . S
C326 C327 1.362 . S
C327 H317 0.930 . S
C327 C320 1.409 . S
C327 C326 1.362 . S
H328 C334 0.930 . S
H329 C337 0.930 . S
H330 C338 0.930 . S
H331 C339 0.930 1_556 S
H332 C342 0.930 . S
H333 C343 0.930 . S
C334 H328 0.930 . S
C334 C335 1.355 . S
C334 C336 1.415 . S
C335 C334 1.355 . S
C335 C337 1.419 . S
C336 C334 1.415 . S
C336 C341 1.425 . S
C336 C343 1.409 1_556 S
C337 H329 0.930 . S
C337 C335 1.419 . S
C337 C338 1.362 . S
C338 H330 0.930 . S
C338 C337 1.362 . S
C338 C341 1.409 . S
C339 H331 0.930 1_554 S
C339 C340 1.355 . S
C339 C341 1.415 1_554 S
C340 C339 1.355 . S
C340 C342 1.419 . S
C341 C336 1.425 . S
C341 C338 1.409 . S
C341 C339 1.415 1_556 S
C342 H332 0.930 . S
C342 C340 1.419 . S
C342 C343 1.362 . S
C343 H333 0.930 . S
C343 C336 1.409 1_554 S
C343 C342 1.362 . S
H344 C350 0.930 . S
H345 C353 0.930 . S
H346 C354 0.930 . S
H347 C355 0.931 1_454 S
H348 C358 0.930 . S
H349 C359 0.930 . S
C350 H344 0.930 . S
C350 C351 1.355 . S
C350 C352 1.415 . S
C351 C350 1.355 . S
C351 C353 1.419 . S
C352 C350 1.415 . S
C352 C357 1.425 . S
C352 C359 1.409 1_554 S
C353 H345 0.930 . S
C353 C351 1.419 . S
C353 C354 1.362 . S
C354 H346 0.930 . S
C354 C353 1.362 . S
C354 C357 1.409 . S
C355 H347 0.931 1_656 S
C355 C356 1.351 . S
C355 C357 1.417 1_556 S
C356 C355 1.351 . S
C356 C358 1.419 . S
C357 C352 1.425 . S
C357 C354 1.409 . S
C357 C355 1.417 1_554 S
C358 H348 0.930 . S
C358 C356 1.419 . S
C358 C359 1.362 . S
C359 H349 0.930 . S
C359 C352 1.409 1_556 S
C359 C358 1.362 . S
H360 C366 0.930 . S
H361 C369 0.930 . S
H362 C370 0.930 . S
H363 C371 0.934 . S
H364 C374 0.930 . S
H365 C375 0.930 . S
C366 H360 0.930 . S
C366 C367 1.355 . S
C366 C368 1.415 . S
C367 C366 1.355 . S
C367 C369 1.419 . S
C368 C366 1.415 . S
C368 C373 1.425 . S
C368 C375 1.409 1_556 S
C369 H361 0.930 . S
C369 C367 1.419 . S
C369 C370 1.362 . S
C370 H362 0.930 . S
C370 C369 1.362 . S
C370 C373 1.409 . S
C371 H363 0.934 . S
C371 C372 1.355 . S
C371 C373 1.415 1_554 S
C372 C371 1.355 . S
C372 C374 1.419 . S
C373 C368 1.425 . S
C373 C370 1.409 . S
C373 C371 1.415 1_556 S
C374 H364 0.930 . S
C374 C372 1.419 . S
C374 C375 1.362 . S
C375 H365 0.930 . S
C375 C368 1.409 1_554 S
C375 C374 1.362 . S
H376 C382 0.945 1_554 S
H377 C385 0.930 . S
H378 C386 0.930 . S
H379 C387 0.930 . S
H380 C390 0.930 . S
H381 C391 0.930 . S
C382 H376 0.945 1_556 S
C382 C383 1.352 . S
C382 C384 1.417 1_556 S
C383 C382 1.352 . S
C383 C385 1.419 . S
C384 C382 1.417 1_554 S
C384 C389 1.425 . S
C384 C391 1.409 . S
C385 H377 0.930 . S
C385 C383 1.419 . S
C385 C386 1.362 . S
C386 H378 0.930 . S
C386 C385 1.362 . S
C386 C389 1.409 1_556 S
C387 H379 0.930 . S
C387 C388 1.355 . S
C387 C389 1.415 . S
C388 C387 1.355 . S
C388 C390 1.419 . S
C389 C384 1.425 . S
C389 C386 1.409 1_554 S
C389 C387 1.415 . S
C390 H380 0.930 . S
C390 C388 1.419 . S
C390 C391 1.362 . S
C391 H381 0.930 . S
C391 C384 1.409 . S
C391 C390 1.362 . S
H392 C398 0.930 1_545 S
H393 C401 0.930 . S
H394 C402 0.930 . S
H395 C403 0.930 1_565 S
H396 C406 0.930 . S
H397 C407 0.930 . S
C398 H392 0.930 1_565 S
C398 C399 1.355 . S
C398 C400 1.415 1_565 S
C399 C398 1.355 . S
C399 C401 1.419 . S
C400 C398 1.415 1_545 S
C400 C405 1.425 1_545 S
C400 C407 1.409 . S
C401 H393 0.930 . S
C401 C399 1.419 . S
C401 C402 1.362 . S
C402 H394 0.930 . S
C402 C401 1.362 . S
C402 C405 1.409 . S
C403 H395 0.930 1_545 S
C403 C404 1.355 . S
C403 C405 1.415 1_545 S
C404 C403 1.355 . S
C404 C406 1.419 . S
C405 C400 1.425 1_565 S
C405 C402 1.409 . S
C405 C403 1.415 1_565 S
C406 H396 0.930 . S
C406 C404 1.419 . S
C406 C407 1.362 . S
C407 H397 0.930 . S
C407 C400 1.409 . S
C407 C406 1.362 . S
H408 C414 0.930 . S
H409 C417 0.930 . S
H410 C418 0.930 . S
H411 C419 0.930 . S
H412 C422 0.930 . S
H413 C423 0.930 . S
C414 H408 0.930 . S
C414 C415 1.355 . S
C414 C416 1.415 . S
C415 C414 1.355 . S
C415 C417 1.419 . S
C416 C414 1.415 . S
C416 C421 1.425 1_455 S
C416 C423 1.409 . S
C417 H409 0.930 . S
C417 C415 1.419 . S
C417 C418 1.362 1_455 S
C418 H410 0.930 . S
C418 C417 1.362 1_655 S
C418 C421 1.409 . S
C419 H411 0.930 . S
C419 C420 1.355 . S
C419 C421 1.415 . S
C420 C419 1.355 . S
C420 C422 1.419 . S
C421 C416 1.425 1_655 S
C421 C418 1.409 . S
C421 C419 1.415 . S
C422 H412 0.930 . S
C422 C420 1.419 . S
C422 C423 1.362 1_655 S
C423 H413 0.930 . S
C423 C416 1.409 . S
C423 C422 1.362 1_455 S
H424 C430 0.930 . S
H425 C433 0.930 . S
H426 C434 0.930 . S
H427 C435 0.930 . S
H428 C438 0.930 . S
H429 C439 0.930 . S
C430 H424 0.930 . S
C430 C431 1.355 . S
C430 C432 1.415 1_545 S
C431 C430 1.355 . S
C431 C433 1.419 . S
C432 C430 1.415 1_565 S
C432 C437 1.425 1_565 S
C432 C439 1.409 . S
C433 H425 0.930 . S
C433 C431 1.419 . S
C433 C434 1.362 . S
C434 H426 0.930 . S
C434 C433 1.362 . S
C434 C437 1.409 . S
C435 H427 0.930 . S
C435 C436 1.355 . S
C435 C437 1.415 1_565 S
C436 C435 1.355 . S
C436 C438 1.419 . S
C437 C432 1.425 1_545 S
C437 C434 1.409 . S
C437 C435 1.415 1_545 S
C438 H428 0.930 . S
C438 C436 1.419 . S
C438 C439 1.362 . S
C439 H429 0.930 . S
C439 C432 1.409 . S
C439 C438 1.362 . S
H440 C446 0.930 . S
H441 C449 0.930 . S
H442 C450 0.930 . S
H443 C451 0.930 . S
H444 C454 0.930 . S
H445 C455 0.930 . S
C446 H440 0.930 . S
C446 C447 1.355 . S
C446 C448 1.415 . S
C447 C446 1.355 . S
C447 C449 1.419 . S
C448 C446 1.415 . S
C448 C453 1.425 1_455 S
C448 C455 1.409 . S
C449 H441 0.930 . S
C449 C447 1.419 . S
C449 C450 1.362 1_455 S
C450 H442 0.930 . S
C450 C449 1.362 1_655 S
C450 C453 1.409 . S
C451 H443 0.930 . S
C451 C452 1.355 . S
C451 C453 1.415 . S
C452 C451 1.355 . S
C452 C454 1.419 . S
C453 C448 1.425 1_655 S
C453 C450 1.409 . S
C453 C451 1.415 . S
C454 H444 0.930 . S
C454 C452 1.419 . S
C454 C455 1.362 1_655 S
C455 H445 0.930 . S
C455 C448 1.409 . S
C455 C454 1.362 1_455 S
H456 C462 0.930 . S
H457 C465 0.930 . S
H458 C466 0.930 . S
H459 C467 0.930 . S
H460 C470 0.930 . S
H461 C471 0.930 . S
C462 H456 0.930 . S
C462 C463 1.355 . S
C462 C464 1.415 . S
C463 C462 1.355 . S
C463 C465 1.419 1_545 S
C464 C462 1.415 . S
C464 C469 1.425 1_445 S
C464 C471 1.409 1_455 S
C465 H457 0.930 . S
C465 C463 1.419 1_565 S
C465 C466 1.362 . S
C466 H458 0.930 . S
C466 C465 1.362 . S
C466 C469 1.409 1_455 S
C467 H459 0.930 . S
C467 C468 1.355 . S
C467 C469 1.415 . S
C468 C467 1.355 . S
C468 C470 1.419 1_565 S
C469 C464 1.425 1_665 S
C469 C466 1.409 1_655 S
C469 C467 1.415 . S
C470 H460 0.930 . S
C470 C468 1.419 1_545 S
C470 C471 1.362 . S
C471 H461 0.930 . S
C471 C464 1.409 1_655 S
C471 C470 1.362 . S
H472 C478 0.930 . S
H473 C481 0.930 . S
H474 C482 0.930 1_545 S
H475 C483 0.930 . S
H476 C486 0.930 . S
H477 C487 0.930 1_565 S
C478 H472 0.930 . S
C478 C479 1.355 1_655 S
C478 C480 1.415 . S
C479 C478 1.355 1_455 S
C479 C481 1.419 . S
C480 C478 1.415 . S
C480 C485 1.425 1_665 S
C480 C487 1.409 1_565 S
C481 H473 0.930 . S
C481 C479 1.419 . S
C481 C482 1.362 . S
C482 H474 0.930 1_565 S
C482 C481 1.362 . S
C482 C485 1.409 1_565 S
C483 H475 0.930 . S
C483 C484 1.355 1_455 S
C483 C485 1.415 . S
C484 C483 1.355 1_655 S
C484 C486 1.419 . S
C485 C480 1.425 1_445 S
C485 C482 1.409 1_545 S
C485 C483 1.415 . S
C486 H476 0.930 . S
C486 C484 1.419 . S
C486 C487 1.362 . S
C487 H477 0.930 1_545 S
C487 C480 1.409 1_545 S
C487 C486 1.362 . S
H488 C494 0.930 . S
H489 C497 0.930 . S
H490 C498 0.930 . S
H491 C499 0.930 . S
H492 C502 0.930 . S
H493 C503 0.930 . S
C494 H488 0.930 . S
C494 C495 1.355 . S
C494 C496 1.415 . S
C495 C494 1.355 . S
C495 C497 1.419 1_565 S
C496 C494 1.415 . S
C496 C501 1.425 1_465 S
C496 C503 1.409 1_455 S
C497 H489 0.930 . S
C497 C495 1.419 1_545 S
C497 C498 1.362 . S
C498 H490 0.930 . S
C498 C497 1.362 . S
C498 C501 1.409 1_455 S
C499 H491 0.930 . S
C499 C500 1.355 . S
C499 C501 1.415 . S
C500 C499 1.355 . S
C500 C502 1.419 1_545 S
C501 C496 1.425 1_645 S
C501 C498 1.409 1_655 S
C501 C499 1.415 . S
C502 H492 0.930 . S
C502 C500 1.419 1_565 S
C502 C503 1.362 . S
C503 H493 0.930 . S
C503 C496 1.409 1_655 S
C503 C502 1.362 . S
H504 C510 0.930 . S
H505 C513 0.930 . S
H506 C514 0.930 . S
H507 C515 0.930 . S
H508 C518 0.930 . S
H509 C519 0.930 . S
C510 H504 0.930 . S
C510 C511 1.355 . S
C510 C512 1.415 . S
C511 C510 1.355 . S
C511 C513 1.419 1_655 S
C512 C510 1.415 . S
C512 C517 1.425 1_665 S
C512 C519 1.409 1_565 S
C513 H505 0.930 . S
C513 C511 1.419 1_455 S
C513 C514 1.362 . S
C514 H506 0.930 . S
C514 C513 1.362 . S
C514 C517 1.409 1_565 S
C515 H507 0.930 . S
C515 C516 1.355 . S
C515 C517 1.415 . S
C516 C515 1.355 . S
C516 C518 1.419 1_455 S
C517 C512 1.425 1_445 S
C517 C514 1.409 1_545 S
C517 C515 1.415 . S
C518 H508 0.930 . S
C518 C516 1.419 1_655 S
C518 C519 1.362 . S
C519 H509 0.930 . S
C519 C512 1.409 1_545 S
C519 C518 1.362 . S
H520 C526 0.930 . S
H521 C529 0.930 . S
H522 C530 0.930 . S
H523 C531 0.930 . S
H524 C534 0.930 . S
H525 C535 0.930 . S
C526 H520 0.930 . S
C526 C527 1.355 . S
C526 C528 1.415 . S
C527 C526 1.355 . S
C527 C529 1.419 . S
C528 C526 1.415 . S
C528 C533 1.425 . S
C528 C535 1.409 . S
C529 H521 0.930 . S
C529 C527 1.419 . S
C529 C530 1.362 . S
C530 H522 0.930 . S
C530 C529 1.362 . S
C530 C533 1.409 . S
C531 H523 0.930 . S
C531 C532 1.355 . S
C531 C533 1.415 . S
C532 C531 1.355 . S
C532 C534 1.419 . S
C533 C528 1.425 . S
C533 C530 1.409 . S
C533 C531 1.415 . S
C534 H524 0.930 . S
C534 C532 1.419 . S
C534 C535 1.362 . S
C535 H525 0.930 . S
C535 C528 1.409 . S
C535 C534 1.362 . S
H536 C542 0.930 . S
H537 C545 0.930 . S
H538 C546 0.930 . S
H539 C547 0.930 . S
H540 C550 0.930 . S
H541 C551 0.930 . S
C542 H536 0.930 . S
C542 C543 1.355 . S
C542 C544 1.415 . S
C543 C542 1.355 . S
C543 C545 1.419 . S
C544 C542 1.415 . S
C544 C549 1.425 . S
C544 C551 1.409 . S
C545 H537 0.930 . S
C545 C543 1.419 . S
C545 C546 1.362 . S
C546 H538 0.930 . S
C546 C545 1.362 . S
C546 C549 1.409 . S
C547 H539 0.930 . S
C547 C548 1.355 . S
C547 C549 1.415 . S
C548 C547 1.355 . S
C548 C550 1.419 . S
C549 C544 1.425 . S
C549 C546 1.409 . S
C549 C547 1.415 . S
C550 H540 0.930 . S
C550 C548 1.419 . S
C550 C551 1.362 . S
C551 H541 0.930 . S
C551 C544 1.409 . S
C551 C550 1.362 . S
H552 C558 0.930 . S
H553 C561 0.930 . S
H554 C562 0.930 . S
H555 C563 0.930 . S
H556 C566 0.930 . S
H557 C567 0.930 . S
C558 H552 0.930 . S
C558 C559 1.355 . S
C558 C560 1.415 . S
C559 C558 1.355 . S
C559 C561 1.419 . S
C560 C558 1.415 . S
C560 C565 1.425 . S
C560 C567 1.409 . S
C561 H553 0.930 . S
C561 C559 1.419 . S
C561 C562 1.362 . S
C562 H554 0.930 . S
C562 C561 1.362 . S
C562 C565 1.409 . S
C563 H555 0.930 . S
C563 C564 1.355 . S
C563 C565 1.415 . S
C564 C563 1.355 . S
C564 C566 1.419 . S
C565 C560 1.425 . S
C565 C562 1.409 . S
C565 C563 1.415 . S
C566 H556 0.930 . S
C566 C564 1.419 . S
C566 C567 1.362 . S
C567 H557 0.930 . S
C567 C560 1.409 . S
C567 C566 1.362 . S
H568 C574 0.930 . S
H569 C577 0.930 . S
H570 C578 0.930 . S
H571 C579 0.930 . S
H572 C582 0.930 . S
H573 C583 0.930 . S
C574 H568 0.930 . S
C574 C575 1.355 . S
C574 C576 1.415 . S
C575 C574 1.355 . S
C575 C577 1.419 . S
C576 C574 1.415 . S
C576 C581 1.425 . S
C576 C583 1.409 . S
C577 H569 0.930 . S
C577 C575 1.419 . S
C577 C578 1.362 . S
C578 H570 0.930 . S
C578 C577 1.362 . S
C578 C581 1.409 . S
C579 H571 0.930 . S
C579 C580 1.355 . S
C579 C581 1.415 . S
C580 C579 1.355 . S
C580 C582 1.419 . S
C581 C576 1.425 . S
C581 C578 1.409 . S
C581 C579 1.415 . S
C582 H572 0.930 . S
C582 C580 1.419 . S
C582 C583 1.362 . S
C583 H573 0.930 . S
C583 C576 1.409 . S
C583 C582 1.362 . S
C271 N2 1.148 . S
C276 C54 1.044 . S
C287 C87 0.921 . S
C292 N35 1.070 . S
C303 N68 1.177 . S
C308 C120 1.089 . S
C319 C21 0.964 . S
C324 N101 1.096 . S
C335 C252 0.970 . S
C340 N134 1.101 . S
C351 C153 0.954 . S
C356 N167 1.091 . S
C367 C186 1.082 . S
C372 N200 1.172 . S
C383 N233 1.118 . S
C388 C219 0.996 . S
C399 C84 1.603 . S
C404 C18 1.581 . S
C415 C51 1.566 . S
C420 C117 1.545 . S
C431 C150 1.576 . S
C436 C216 1.601 . S
C447 C183 1.561 . S
C452 C249 1.545 . S
C463 C7 1.109 . S
C468 C73 1.031 . S
C479 C40 1.036 . S
C484 C106 1.013 . S
C495 C205 1.031 . S
C500 C139 1.110 . S
C511 C238 1.055 . S
C516 C172 1.112 . S
C527 N13 1.621 . S
C532 N178 1.704 . S
C543 N211 1.696 . S
C548 N46 1.623 . S
C559 N244 1.698 . S
C564 N79 1.641 . S
C575 N112 1.658 . S
C580 N145 1.654 . S
