# Generated by pormake.
# Topology vmh, (6)-cn, num edge types: 1
# Building blocks:
#     Node 0, Type 0, BuildingBlock: IZENUY_clean_sbu_0, # of connection points: 6
#     Node 1, Type 0, BuildingBlock: IZENUY_clean_sbu_0, # of connection points: 6
#     Node 2, Type 0, BuildingBlock: IZENUY_clean_sbu_0, # of connection points: 6
#     Node 3, Type 0, BuildingBlock: IZENUY_clean_sbu_0, # of connection points: 6
#     Node 4, Type 0, BuildingBlock: IZENUY_clean_sbu_0, # of connection points: 6
#     Node 5, Type 0, BuildingBlock: IZENUY_clean_sbu_0, # of connection points: 6
#     Node 6, Type 0, BuildingBlock: IZENUY_clean_sbu_0, # of connection points: 6
#     Node 7, Type 0, BuildingBlock: IZENUY_clean_sbu_0, # of connection points: 6
#     Edge 8, Type (0, 0), BuildingBlock: AJUNOK_clean_linker_0, # of connection points: 2
#     Edge 9, Type (0, 0), BuildingBlock: AJUNOK_clean_linker_0, # of connection points: 2
#     Edge 10, Type (0, 0), BuildingBlock: AJUNOK_clean_linker_0, # of connection points: 2
#     Edge 11, Type (0, 0), BuildingBlock: AJUNOK_clean_linker_0, # of connection points: 2
#     Edge 12, Type (0, 0), BuildingBlock: AJUNOK_clean_linker_0, # of connection points: 2
#     Edge 13, Type (0, 0), BuildingBlock: AJUNOK_clean_linker_0, # of connection points: 2
#     Edge 14, Type (0, 0), BuildingBlock: AJUNOK_clean_linker_0, # of connection points: 2
#     Edge 15, Type (0, 0), BuildingBlock: AJUNOK_clean_linker_0, # of connection points: 2
#     Edge 16, Type (0, 0), BuildingBlock: AJUNOK_clean_linker_0, # of connection points: 2
#     Edge 17, Type (0, 0), BuildingBlock: AJUNOK_clean_linker_0, # of connection points: 2
#     Edge 18, Type (0, 0), BuildingBlock: AJUNOK_clean_linker_0, # of connection points: 2
#     Edge 19, Type (0, 0), BuildingBlock: AJUNOK_clean_linker_0, # of connection points: 2
#     Edge 20, Type (0, 0), BuildingBlock: AJUNOK_clean_linker_0, # of connection points: 2
#     Edge 21, Type (0, 0), BuildingBlock: AJUNOK_clean_linker_0, # of connection points: 2
#     Edge 22, Type (0, 0), BuildingBlock: AJUNOK_clean_linker_0, # of connection points: 2
#     Edge 23, Type (0, 0), BuildingBlock: AJUNOK_clean_linker_0, # of connection points: 2
#     Edge 24, Type (0, 0), BuildingBlock: AJUNOK_clean_linker_0, # of connection points: 2
#     Edge 25, Type (0, 0), BuildingBlock: AJUNOK_clean_linker_0, # of connection points: 2
#     Edge 26, Type (0, 0), BuildingBlock: AJUNOK_clean_linker_0, # of connection points: 2
#     Edge 27, Type (0, 0), BuildingBlock: AJUNOK_clean_linker_0, # of connection points: 2
#     Edge 28, Type (0, 0), BuildingBlock: AJUNOK_clean_linker_0, # of connection points: 2
#     Edge 29, Type (0, 0), BuildingBlock: AJUNOK_clean_linker_0, # of connection points: 2
#     Edge 30, Type (0, 0), BuildingBlock: AJUNOK_clean_linker_0, # of connection points: 2
#     Edge 31, Type (0, 0), BuildingBlock: AJUNOK_clean_linker_0, # of connection points: 2
# Relax obj value: 0.246
# Max RMSD: 0.263
# Mean RMSD: 0.263
data_MOF--net-vmh--node1-IZENUY_clean_sbu_0--edge1-AJUNOK_clean_linker_0
_symmetry_space_group_name_H-M    P1
_symmetry_Int_Tables_number       1
_symmetry_cell_setting            triclinic
loop_
_symmetry_equiv_pos_as_xyz
'x, y, z'
_cell_length_a     20.899406
_cell_length_b     31.686422
_cell_length_c     21.542826
_cell_angle_alpha  89.809525
_cell_angle_beta   107.56221
_cell_angle_gamma 89.926715
loop_
_atom_site_label
_atom_site_type_symbol
_atom_site_fract_x
_atom_site_fract_y
_atom_site_fract_z
_atom_type_partial_charge
Fe0 Fe 0.27325 0.11951 0.11687 0.0
Fe1 Fe 0.2815 0.03829 0.041 0.0
O2 O 0.30558 0.09121 0.06199 0.0
Fe3 Fe 0.3631 0.11519 0.02713 0.0
O4 O 0.42345 0.12096 0.10571 0.0
O5 O 0.35535 0.14651 0.15731 0.0
O6 O 0.30073 0.07969 0.17958 0.0
C7 C 0.28604 0.04112 0.17394 0.0
C8 C 0.28084 0.18435 0.03385 0.0
O9 O 0.26838 1.0236 0.1189 0.0
C10 C 0.28557 0.07417 0.92137 0.0
O11 O 0.18723 0.09412 0.08686 0.0
O12 O 0.19621 0.05438 1.00663 0.0
O13 O 0.3342 0.16852 0.02933 0.0
O14 O 0.24345 0.16365 0.05961 0.0
C15 C 0.41317 0.03385 0.05438 0.0
O16 O 0.28855 0.0427 0.9586 0.0
O17 O 0.30579 0.10996 0.94497 0.0
C18 C 0.16108 0.06868 0.03964 0.0
O19 O 0.36681 1.01916 0.07392 0.0
O20 O 0.40467 0.06673 1.0201 0.0
C21 C 0.41477 0.13902 0.15444 0.0
Fe22 Fe 0.79551 0.12519 0.41787 0.0
Fe23 Fe 0.77033 0.04453 0.48984 0.0
O24 O 0.75755 0.09929 0.47106 0.0
Fe25 Fe 0.70343 0.12797 0.50558 0.0
O26 O 0.64402 0.13568 0.4265 0.0
O27 O 0.71679 0.15483 0.37517 0.0
O28 O 0.76651 0.08692 0.35383 0.0
C29 C 0.7691 0.04742 0.35656 0.0
C30 C 0.79351 0.19178 0.49896 0.0
O31 O 0.77746 1.02793 0.40982 0.0
C32 C 0.77415 0.08361 0.61114 0.0
O33 O 0.87772 0.09644 0.4514 0.0
O34 O 0.8593 0.0509 0.52223 0.0
O35 O 0.73814 0.17916 0.50217 0.0
O36 O 0.82915 0.16871 0.47476 0.0
C37 C 0.63918 0.05176 0.48041 0.0
O38 O 0.76742 0.05141 0.57436 0.0
O39 O 0.76011 0.12031 0.58729 0.0
C40 C 0.89868 0.06822 0.49597 0.0
O41 O 0.68095 0.03323 0.45855 0.0
O42 O 0.65546 0.08359 0.51538 0.0
C43 C 0.65624 0.14966 0.37639 0.0
Fe44 Fe 0.76507 1.01431 0.98281 0.0
Fe45 Fe 0.80129 0.93591 0.91673 0.0
O46 O 0.75657 0.95971 0.96506 0.0
Fe47 Fe 0.70005 0.92908 0.99246 0.0
O48 O 0.63213 0.96205 0.94854 0.0
O49 O 0.67876 1.02178 0.9856 0.0
O50 O 0.738 0.02866 0.89608 0.0
C51 C 0.77008 1.01648 0.85794 0.0
C52 C 0.76037 0.98344 0.10054 0.0
O53 O 0.80601 0.98359 0.87054 0.0
C54 C 0.79332 0.86951 1.00588 0.0
O55 O 0.85332 1.016 0.9862 0.0
O56 O 0.88246 0.94961 0.97684 0.0
O57 O 0.71437 0.95814 0.0703 0.0
O58 O 0.79333 1.0038 0.06989 0.0
C59 C 0.67193 0.90532 0.86253 0.0
O60 O 0.80349 0.88238 0.95358 0.0
O61 O 0.76575 0.8938 0.03604 0.0
C62 C 0.89815 0.98777 0.99469 0.0
O63 O 0.72186 0.92415 0.85325 0.0
O64 O 0.67436 0.89502 0.92 0.0
C65 C 0.62693 0.9992 0.96484 0.0
Fe66 Fe 0.27455 0.93234 0.62102 0.0
Fe67 Fe 0.35411 0.93105 0.52181 0.0
O68 O 0.30282 0.95806 0.56094 0.0
Fe69 Fe 0.2824 1.01184 0.54004 0.0
O70 O 0.2756 0.02861 0.61951 0.0
O71 O 0.30807 0.9727 0.68047 0.0
O72 O 0.35683 0.90452 0.65893 0.0
C73 C 0.41473 0.91055 0.65128 0.0
C74 C 0.16121 0.98378 0.54491 0.0
O75 O 0.41955 0.92451 0.59797 0.0
C76 C 0.27485 0.97396 0.41841 0.0
O77 O 0.23891 0.88736 0.56877 0.0
O78 O 0.32245 0.87908 0.52836 0.0
O79 O 0.1949 0.99992 0.51154 0.0
O80 O 0.18922 0.95892 0.59294 0.0
C81 C 0.41164 1.01005 0.54251 0.0
O82 O 0.29188 0.93745 0.44197 0.0
O83 O 0.28238 1.00567 0.45569 0.0
C84 C 0.27092 0.8652 0.53949 0.0
O85 O 0.39734 0.97724 0.50904 0.0
O86 O 0.37031 1.02711 0.56685 0.0
C87 C 0.29409 1.01122 0.67473 0.0
Fe88 Fe 0.75326 0.62334 0.13443 0.0
Fe89 Fe 0.79732 0.54455 0.07702 0.0
O90 O 0.80041 0.59987 0.08832 0.0
Fe91 Fe 0.85375 0.63169 0.05793 0.0
O92 O 0.87641 0.66719 0.12801 0.0
O93 O 0.83293 0.63779 0.19734 0.0
O94 O 0.75132 0.57684 0.18258 0.0
C95 C 0.79661 0.54971 0.2035 0.0
C96 C 0.75697 0.68902 0.04325 0.0
O97 O 0.82703 0.53472 0.16566 0.0
C98 C 0.79787 0.57272 0.95654 0.0
O99 O 0.67313 0.60607 0.07424 0.0
O100 O 0.70892 0.54025 0.07412 0.0
O101 O 0.78476 0.66483 1.01305 0.0
O102 O 0.74734 0.67589 0.09541 0.0
C103 C 0.93374 0.56361 0.09035 0.0
O104 O 0.76814 0.5512 0.98918 0.0
O105 O 0.84027 0.6008 0.98331 0.0
C106 C 0.66104 0.56682 0.06003 0.0
O107 O 0.88376 0.53921 0.07409 0.0
O108 O 0.92634 0.60161 0.1015 0.0
C109 C 0.88232 0.6562 0.18581 0.0
Fe110 Fe 0.2873 0.61658 0.41984 0.0
Fe111 Fe 0.26945 0.53764 0.49655 0.0
O112 O 0.25179 0.59166 0.47543 0.0
Fe113 Fe 0.19585 0.6203 0.50734 0.0
O114 O 0.15805 0.65135 0.43369 0.0
O115 O 0.20228 0.62556 0.36159 0.0
O116 O 0.29251 0.56922 0.37488 0.0
C117 C 0.26251 0.53434 0.36819 0.0
C118 C 0.27927 0.68428 0.50586 0.0
O119 O 0.23774 0.52071 0.41129 0.0
C120 C 0.27099 0.57035 0.61555 0.0
O121 O 0.37431 0.60636 0.47387 0.0
O122 O 0.35391 0.53971 0.49207 0.0
O123 O 0.25718 0.66065 0.54167 0.0
O124 O 0.28765 0.66977 0.45408 0.0
C125 C 0.13402 0.54479 0.49121 0.0
O126 O 0.30265 0.55025 0.5832 0.0
O127 O 0.2222 0.59409 0.58695 0.0
C128 C 0.39481 0.56916 0.4944 0.0
O129 O 0.18896 0.5255 0.50684 0.0
O130 O 0.13041 0.58278 0.47444 0.0
C131 C 0.15282 0.64227 0.37543 0.0
Fe132 Fe 0.27905 0.51316 1.00624 0.0
Fe133 Fe 0.2805 0.43384 0.92343 0.0
O134 O 0.25203 0.46109 0.98187 0.0
Fe135 Fe 0.19495 0.43646 1.01653 0.0
O136 O 0.15676 0.48476 0.03113 0.0
O137 O 0.19388 0.5339 0.97929 0.0
O138 O 0.28814 0.52976 0.92623 0.0
C139 C 0.26917 0.51279 0.87031 0.0
C140 C 0.27564 0.47221 0.12425 0.0
O141 O 0.25179 0.47482 0.86365 0.0
C142 C 0.27261 0.36686 1.00128 0.0
O143 O 0.3647 0.49627 0.03551 0.0
O144 O 0.36795 0.45816 0.95143 0.0
O145 O 0.25491 0.4376 0.09682 0.0
O146 O 0.27621 0.50534 0.09069 0.0
C147 C 0.13799 0.41787 0.88858 0.0
O148 O 0.31079 0.38852 0.97778 0.0
O149 O 0.22001 0.3828 1.00765 0.0
C150 C 0.39686 0.48277 0.99908 0.0
O151 O 0.19627 0.40836 0.88407 0.0
O152 O 0.13238 0.435 0.93917 0.0
C153 C 0.14914 0.51941 1.00151 0.0
Fe154 Fe 0.7493 0.43156 0.63133 0.0
Fe155 Fe 0.85614 0.43032 0.56048 0.0
O156 O 0.79656 0.45842 0.58801 0.0
Fe157 Fe 0.78743 0.51349 0.57602 0.0
O158 O 0.81134 0.52316 0.66322 0.0
O159 O 0.74218 0.47643 0.68192 0.0
O160 O 0.82766 0.41799 0.69545 0.0
C161 C 0.8791 0.40108 0.68608 0.0
C162 C 0.65431 0.48597 0.5551 0.0
O163 O 0.87853 0.39312 0.62871 0.0
C164 C 0.8 0.48889 0.4585 0.0
O165 O 0.74972 0.38034 0.58949 0.0
O166 O 0.79228 0.39599 0.51146 0.0
O167 O 0.69901 0.51403 0.56912 0.0
O168 O 0.66884 0.44719 0.57053 0.0
C169 C 0.92622 0.50151 0.59882 0.0
O170 O 0.84485 0.46267 0.48735 0.0
O171 O 0.76393 0.50717 0.4882 0.0
C172 C 0.76423 0.36972 0.53832 0.0
O173 O 0.9235 0.46267 0.60851 0.0
O174 O 0.87337 0.52304 0.57916 0.0
C175 C 0.78023 0.50786 0.69998 0.0
C176 C 0.31236 0.08616 0.81635 0.0
C177 C 0.27514 0.06508 0.85177 0.0
C178 C 0.31595 0.07009 0.75656 0.0
C179 C 0.28312 0.03236 0.73143 0.0
H180 H 0.34227 0.1135 0.8368 0.0
H181 H 0.34755 0.08576 0.73198 0.0
S182 S 0.17138 0.96918 0.80031 0.0
N183 N 0.19791 1.00795 0.85263 0.0
N184 N 0.20671 0.97716 0.74236 0.0
C185 C 0.24226 1.01289 0.76416 0.0
C186 C 0.23763 0.02948 0.82377 0.0
C187 C 0.71599 0.05996 0.75774 0.0
C188 C 0.77389 0.0423 0.80161 0.0
C189 C 0.71763 0.07646 0.69741 0.0
C190 C 0.77721 0.07599 0.67953 0.0
H191 H 0.66845 0.0585 0.76812 0.0
H192 H 0.67115 0.08723 0.66292 0.0
S193 S 0.94414 0.0392 0.78104 0.0
N194 N 0.89408 0.03005 0.82599 0.0
N195 N 0.89619 0.06034 0.71253 0.0
C196 C 0.83602 0.061 0.72457 0.0
C197 C 0.83461 0.04445 0.78577 0.0
C198 C 0.7212 0.99791 0.26225 0.0
C199 C 0.77249 1.02514 0.29702 0.0
C200 C 0.71912 0.98294 0.19994 0.0
C201 C 0.76823 0.99469 0.17009 0.0
H202 H 0.68081 0.98976 0.28189 0.0
H203 H 0.6771 0.96345 0.17394 0.0
S204 S 0.9172 0.0617 0.24549 0.0
N205 N 0.87598 0.06066 0.29986 0.0
N206 N 0.87314 0.03241 0.18428 0.0
C207 C 0.8216 1.02019 0.20646 0.0
C208 C 0.82335 0.03546 0.26935 0.0
C209 C 0.23973 0.03971 0.2668 0.0
C210 C 0.27603 1.01911 0.23066 0.0
C211 C 0.23368 1.02211 0.32421 0.0
C212 C 0.26495 0.98356 0.34878 0.0
H213 H 0.21714 0.0703 0.2514 0.0
H214 H 0.20758 0.04022 0.35174 0.0
S215 S 0.36047 0.91522 0.26846 0.0
N216 N 0.33823 0.95636 0.21922 0.0
N217 N 0.32922 0.92363 0.32927 0.0
C218 C 0.29783 0.96122 0.31083 0.0
C219 C 0.30298 0.97901 0.2513 0.0
C220 C 0.73675 0.51597 0.79508 0.0
C221 C 0.78336 0.528 0.76277 0.0
C222 C 0.74047 0.53177 0.85653 0.0
C223 C 0.79084 0.56036 0.88844 0.0
H224 H 0.69736 0.49357 0.77327 0.0
H225 H 0.7041 0.52075 0.87964 0.0
S226 S 0.92397 0.60325 0.82393 0.0
N227 N 0.88052 0.57114 0.76649 0.0
N228 N 0.88724 0.60149 0.88179 0.0
C229 C 0.83655 0.57391 0.85576 0.0
C230 C 0.83289 0.55753 0.79309 0.0
C231 C 0.24167 0.58107 0.71967 0.0
C232 C 0.28157 0.56063 0.68598 0.0
C233 C 0.24112 0.5677 0.7819 0.0
C234 C 0.28051 0.53343 0.81282 0.0
H235 H 0.20796 0.60642 0.69663 0.0
H236 H 0.20689 0.58265 0.80415 0.0
S237 S 0.39996 0.4723 0.751 0.0
N238 N 0.36649 0.50677 0.69254 0.0
N239 N 0.36489 0.48169 0.80875 0.0
C240 C 0.32364 0.51445 0.78189 0.0
C241 C 0.3245 0.52807 0.71881 0.0
C242 C 0.32838 0.51067 0.29677 0.0
C243 C 0.26835 0.508 0.31383 0.0
C244 C 0.33194 0.49634 0.23663 0.0
C245 C 0.27617 0.47784 0.19208 0.0
H246 H 0.37194 0.52643 0.32863 0.0
H247 H 0.37754 0.50158 0.22366 0.0
S248 S 0.10856 0.4612 0.21404 0.0
N249 N 0.15293 0.48396 0.28237 0.0
N250 N 0.16 0.45558 0.1695 0.0
C251 C 0.21722 0.4722 0.21009 0.0
C252 C 0.21329 0.48746 0.27121 0.0
C253 C 0.82004 0.49195 0.28849 0.0
C254 C 0.80615 0.53442 0.27066 0.0
C255 C 0.81742 0.47715 0.34942 0.0
C256 C 0.79988 0.50424 0.39365 0.0
H257 H 0.83061 0.46986 0.25457 0.0
H258 H 0.82791 0.44413 0.3615 0.0
S259 S 0.76883 0.6194 0.37357 0.0
N260 N 0.78189 0.60425 0.30524 0.0
N261 N 0.77534 0.57616 0.41787 0.0
C262 C 0.78861 0.54699 0.37719 0.0
C263 C 0.79239 0.56213 0.31626 0.0
C264 C 0.53117 1.02194 0.0821 0.0
C265 C 0.4668 1.00761 0.04807 0.0
C266 C 0.58206 1.02186 0.05272 0.0
C267 C 0.57014 1.00651 0.98909 0.0
H268 H 0.54011 0.03766 0.12859 0.0
H269 H 0.63084 0.03397 0.08001 0.0
S270 S 0.41108 0.96241 0.88231 0.0
N271 N 0.39461 0.97495 0.95025 0.0
N272 N 0.49097 0.9741 0.89477 0.0
C273 C 0.50727 0.98922 0.95658 0.0
C274 C 0.45579 0.98903 0.98679 0.0
C275 C 0.53101 1.01601 0.57286 0.0
C276 C 0.46887 0.03166 0.5348 0.0
C277 C 0.58567 1.01537 0.54869 0.0
C278 C 0.5801 0.03157 0.48649 0.0
H279 H 0.53623 1.00191 0.62002 0.0
H280 H 0.63393 1.00501 0.58062 0.0
S281 S 0.42777 0.07554 0.3678 0.0
N282 N 0.40371 0.06245 0.43162 0.0
N283 N 0.50843 0.06359 0.3874 0.0
C284 C 0.51839 0.0475 0.44817 0.0
C285 C 0.46263 0.04783 0.47256 0.0
C286 C 0.97923 0.53886 1.00399 0.0
C287 C 0.99114 0.55427 0.06758 0.0
C288 C 0.03138 0.535 0.97656 0.0
C289 C 0.09713 0.54566 1.01236 0.0
H290 H 0.92933 0.52944 0.97527 0.0
H291 H 1.02128 0.51988 0.92949 0.0
S292 S 0.15456 0.58675 0.18077 0.0
N293 N 0.07255 0.58135 0.16486 0.0
N294 N 0.17177 0.5724 0.11391 0.0
C295 C 0.10923 0.56283 0.07483 0.0
C296 C 0.05599 0.56715 0.1026 0.0
C297 C 1.01668 0.54543 0.48921 0.0
C298 C 0.08142 0.52933 0.51636 0.0
C299 C 0.96818 0.53925 0.51997 0.0
C300 C 0.9824 0.51579 0.57817 0.0
H301 H 1.00372 0.56365 0.44449 0.0
H302 H 0.91842 0.5516 0.4962 0.0
S303 S 0.14516 0.46859 0.67092 0.0
N304 N 0.15886 0.4905 0.60647 0.0
N305 N 0.06524 0.47747 0.66309 0.0
C306 C 0.04684 0.49947 0.60612 0.0
C307 C 0.09689 0.50623 0.57518 0.0
C308 C 0.04775 0.06162 0.06034 0.0
C309 C 0.09454 0.04706 0.0302 0.0
C310 C 0.98605 0.04066 0.05153 0.0
C311 C 0.96873 1.00366 1.01334 0.0
H312 H 0.05819 0.08983 0.08993 0.0
H313 H 0.95071 0.05416 0.07384 0.0
S314 S 0.0745 0.95017 0.92722 0.0
N315 N 0.11939 0.99111 0.96248 0.0
N316 N 1.00452 0.95263 0.94739 0.0
C317 C 1.01584 0.98778 0.98514 0.0
C318 C 0.07816 1.00924 0.99307 0.0
C319 C 1.00552 0.05218 0.46837 0.0
C320 C 0.96774 0.04897 0.51209 0.0
C321 C 0.06564 0.02931 0.47818 0.0
C322 C 0.09181 1.00208 0.53252 0.0
H323 H 0.98785 0.07175 0.42523 0.0
H324 H 0.09222 0.03354 0.44253 0.0
S325 S 1.01214 0.98188 0.6618 0.0
N326 N 0.96124 1.01582 0.61251 0.0
N327 N 0.07364 0.97325 0.63011 0.0
C328 C 0.05437 0.99836 0.57645 0.0
C329 C 0.99298 1.02171 0.56661 0.0
C330 C 0.51971 0.48455 1.00013 0.0
C331 C 0.46229 0.50533 1.00548 0.0
C332 C 0.58246 0.50544 1.01526 0.0
C333 C 0.59107 0.54828 0.03595 0.0
H334 H 0.51692 0.45151 0.98689 0.0
H335 H 0.62526 0.4872 1.01223 0.0
S336 S 0.45404 0.6188 0.04857 0.0
N337 N 0.41684 0.57299 0.02625 0.0
N338 N 0.53383 0.61131 0.05442 0.0
C339 C 0.53309 0.57001 0.03752 0.0
C340 C 0.46933 0.54882 1.02248 0.0
C341 C 0.54302 0.49822 0.57314 0.0
C342 C 0.58478 0.50315 0.53354 0.0
C343 C 0.48508 0.52321 0.56349 0.0
C344 C 0.46587 0.55431 0.51378 0.0
H345 H 0.55638 0.47596 0.61332 0.0
H346 H 0.45359 0.51727 0.59439 0.0
S347 S 0.5589 0.57984 0.39702 0.0
N348 N 0.60427 0.54237 0.44366 0.0
N349 N 0.49388 0.5879 0.42416 0.0
C350 C 0.50752 0.55978 0.47417 0.0
C351 C 0.567 0.53454 0.48432 0.0
C352 C 0.4736 0.15895 0.27148 0.0
C353 C 0.47675 0.15023 0.20856 0.0
C354 C 0.5324 0.16193 0.32477 0.0
C355 C 0.59706 0.15672 0.31755 0.0
H356 H 0.42542 0.16119 0.28042 0.0
H357 H 0.52686 0.16636 0.37273 0.0
S358 S 0.6339 0.13841 0.16196 0.0
N359 N 0.55125 0.14066 0.14135 0.0
N360 N 0.66041 0.14593 0.24138 0.0
C361 C 0.60112 0.15104 0.25433 0.0
C362 C 0.54144 0.14782 0.20003 0.0
C363 C 0.60267 0.91454 0.74485 0.0
C364 C 0.6073 0.89999 0.8078 0.0
C365 C 0.54103 0.91577 0.69491 0.0
C366 C 0.47984 0.90323 0.70498 0.0
H367 H 0.64685 0.92633 0.73417 0.0
H368 H 0.54156 0.92795 0.64809 0.0
S369 S 0.46467 0.85726 0.85859 0.0
N370 N 0.54524 0.86857 0.87563 0.0
N371 N 0.42967 0.87186 0.78213 0.0
C372 C 0.48398 0.8867 0.76684 0.0
C373 C 0.5473 0.88489 0.81787 0.0
C374 C 0.9617 0.64152 0.29882 0.0
C375 C 0.95114 0.65765 0.23555 0.0
C376 C 1.02678 0.63759 0.3431 0.0
C377 C 0.08504 0.64836 0.32614 0.0
H378 H 0.91948 0.63108 0.31413 0.0
H379 H 0.03146 0.62508 0.39102 0.0
S380 S 0.08637 0.69635 0.16962 0.0
N381 N 1.00606 0.68802 0.16049 0.0
N382 N 0.12735 0.6793 0.24348 0.0
C383 C 0.07553 0.66567 0.26403 0.0
C384 C 1.0091 0.67062 0.21905 0.0
C385 C 0.94966 0.41546 0.80069 0.0
C386 C 0.94443 0.39815 0.73954 0.0
C387 C 1.01206 0.4203 0.84804 0.0
C388 C 0.07312 0.40821 0.83709 0.0
H389 H 0.9054 0.42704 0.81149 0.0
H390 H 1.01198 0.43495 0.89336 0.0
S391 S 0.08728 0.35729 0.68714 0.0
N392 N 1.006 0.36578 0.67199 0.0
N393 N 0.1232 0.37523 0.7614 0.0
C394 C 0.06862 0.38909 0.77723 0.0
C395 C 1.00457 0.38396 0.7286 0.0
C396 C 0.24511 0.25656 0.05795 0.0
C397 C 0.27239 0.23034 1.02007 0.0
C398 C 0.24862 0.30067 0.05346 0.0
C399 C 0.27966 0.32047 1.01108 0.0
H400 H 0.22286 0.243 0.09281 0.0
H401 H 0.2265 0.31955 0.08355 0.0
S402 S 0.35486 0.26589 0.8981 0.0
N403 N 0.32886 0.22737 0.93627 0.0
N404 N 0.33536 0.31015 0.92846 0.0
C405 C 0.3064 0.29463 0.97238 0.0
C406 C 0.30247 0.24971 0.97653 0.0
C407 C 0.79442 0.25223 0.57043 0.0
C408 C 0.80601 0.23705 0.51341 0.0
C409 C 0.77882 0.29466 0.57695 0.0
C410 C 0.7743 0.32412 0.52674 0.0
H411 H 0.79335 0.23041 0.60898 0.0
H412 H 0.77008 0.30427 0.62192 0.0
S413 S 0.80292 0.3008 0.36816 0.0
N414 N 0.81344 0.25479 0.40626 0.0
N415 N 0.78605 0.33511 0.4187 0.0
C416 C 0.78856 0.30969 0.4703 0.0
C417 C 0.80419 0.26616 0.46369 0.0
C418 C 0.78999 0.79366 0.97006 0.0
C419 C 0.7903 0.8233 1.01878 0.0
C420 C 0.77607 0.75077 0.977 0.0
C421 C 0.76141 0.73549 0.0328 0.0
H422 H 0.79902 0.80373 0.92535 0.0
H423 H 0.77731 0.72932 0.93833 0.0
S424 S 0.75846 0.79981 0.17611 0.0
N425 N 0.77704 0.83383 0.12609 0.0
N426 N 0.74978 0.75392 0.13859 0.0
C427 C 0.76186 0.76484 0.08206 0.0
C428 C 0.77683 0.80836 0.07532 0.0
C429 C 0.26405 0.74813 0.56984 0.0
C430 C 0.27543 0.73091 0.51363 0.0
C431 C 0.25569 0.79188 0.57607 0.0
C432 C 0.25775 0.81989 0.52604 0.0
H433 H 0.26266 0.72776 0.60989 0.0
H434 H 0.25136 0.80398 0.62162 0.0
S435 S 0.27979 0.79166 0.3668 0.0
N436 N 0.28389 0.74616 0.40528 0.0
N437 N 0.26763 0.82763 0.41727 0.0
C438 C 0.26607 0.80306 0.46871 0.0
C439 C 0.27528 0.75887 0.46248 0.0
loop_
_geom_bond_atom_site_label_1
_geom_bond_atom_site_label_2
_geom_bond_distance
_geom_bond_site_symmetry_2
_ccdc_geom_bond_type
Fe0 O2 1.918 . S
Fe0 O5 1.997 . S
Fe0 O6 2.002 . S
Fe0 O11 1.976 . S
Fe0 O14 1.996 . S
Fe1 O2 1.918 . S
Fe1 O9 1.997 1_545 S
Fe1 O12 1.996 . S
Fe1 O16 1.976 1_554 S
Fe1 O19 2.002 1_545 S
O2 Fe0 1.918 . S
O2 Fe1 1.918 . S
O2 Fe3 1.918 . S
Fe3 O2 1.918 . S
Fe3 O4 2.002 . S
Fe3 O13 1.976 1_554 S
Fe3 O17 1.996 1_554 S
Fe3 O20 1.997 . S
O4 Fe3 2.002 . S
O4 C21 1.295 . S
O5 Fe0 1.997 . S
O5 C21 1.235 . S
O6 Fe0 2.002 . S
O6 C7 1.295 . S
C7 O6 1.295 . S
C7 O9 1.235 1_545 S
C8 O13 1.287 1_554 S
C8 O14 1.255 . S
O9 Fe1 1.997 1_565 S
O9 C7 1.235 1_565 S
C10 O16 1.287 . S
C10 O17 1.255 . S
O11 Fe0 1.976 . S
O11 C18 1.287 . S
O12 Fe1 1.996 . S
O12 C18 1.255 . S
O13 Fe3 1.976 1_556 S
O13 C8 1.287 1_556 S
O14 Fe0 1.996 . S
O14 C8 1.255 . S
C15 O19 1.295 1_545 S
C15 O20 1.235 . S
O16 Fe1 1.976 1_556 S
O16 C10 1.287 . S
O17 Fe3 1.996 1_556 S
O17 C10 1.255 . S
C18 O11 1.287 . S
C18 O12 1.255 . S
O19 Fe1 2.002 1_565 S
O19 C15 1.295 1_565 S
O20 Fe3 1.997 . S
O20 C15 1.235 . S
C21 O4 1.295 . S
C21 O5 1.235 . S
Fe22 O24 1.918 . S
Fe22 O27 1.997 . S
Fe22 O28 2.002 . S
Fe22 O33 1.976 . S
Fe22 O36 1.996 . S
Fe23 O24 1.918 . S
Fe23 O31 1.997 1_545 S
Fe23 O34 1.996 . S
Fe23 O38 1.976 . S
Fe23 O41 2.002 1_545 S
O24 Fe22 1.918 . S
O24 Fe23 1.918 . S
O24 Fe25 1.918 . S
Fe25 O24 1.918 . S
Fe25 O26 2.002 . S
Fe25 O35 1.976 . S
Fe25 O39 1.996 . S
Fe25 O42 1.997 . S
O26 Fe25 2.002 . S
O26 C43 1.295 . S
O27 Fe22 1.997 . S
O27 C43 1.235 . S
O28 Fe22 2.002 . S
O28 C29 1.295 . S
C29 O28 1.295 . S
C29 O31 1.235 1_545 S
C30 O35 1.287 . S
C30 O36 1.255 . S
O31 Fe23 1.997 1_565 S
O31 C29 1.235 1_565 S
C32 O38 1.287 . S
C32 O39 1.255 . S
O33 Fe22 1.976 . S
O33 C40 1.287 . S
O34 Fe23 1.996 . S
O34 C40 1.255 . S
O35 Fe25 1.976 . S
O35 C30 1.287 . S
O36 Fe22 1.996 . S
O36 C30 1.255 . S
C37 O41 1.295 1_545 S
C37 O42 1.235 . S
O38 Fe23 1.976 . S
O38 C32 1.287 . S
O39 Fe25 1.996 . S
O39 C32 1.255 . S
C40 O33 1.287 . S
C40 O34 1.255 . S
O41 Fe23 2.002 1_565 S
O41 C37 1.295 1_565 S
O42 Fe25 1.997 . S
O42 C37 1.235 . S
C43 O26 1.295 . S
C43 O27 1.235 . S
Fe44 O46 1.918 . S
Fe44 O49 1.997 1_565 S
Fe44 O50 2.002 1_565 S
Fe44 O55 1.976 . S
Fe44 O58 1.996 1_556 S
Fe45 O46 1.918 . S
Fe45 O53 1.997 . S
Fe45 O56 1.996 . S
Fe45 O60 1.976 . S
Fe45 O63 2.002 . S
O46 Fe44 1.918 . S
O46 Fe45 1.918 . S
O46 Fe47 1.918 . S
Fe47 O46 1.918 . S
Fe47 O48 2.002 . S
Fe47 O57 1.976 1_556 S
Fe47 O61 1.996 1_556 S
Fe47 O64 1.997 . S
O48 Fe47 2.002 . S
O48 C65 1.295 . S
O49 Fe44 1.997 1_545 S
O49 C65 1.235 1_545 S
O50 Fe44 2.002 1_545 S
O50 C51 1.295 1_545 S
C51 O50 1.295 1_565 S
C51 O53 1.235 . S
C52 O57 1.287 . S
C52 O58 1.255 . S
O53 Fe45 1.997 . S
O53 C51 1.235 . S
C54 O60 1.287 . S
C54 O61 1.255 1_556 S
O55 Fe44 1.976 . S
O55 C62 1.287 . S
O56 Fe45 1.996 . S
O56 C62 1.255 . S
O57 Fe47 1.976 1_554 S
O57 C52 1.287 . S
O58 Fe44 1.996 1_554 S
O58 C52 1.255 . S
C59 O63 1.295 . S
C59 O64 1.235 . S
O60 Fe45 1.976 . S
O60 C54 1.287 . S
O61 Fe47 1.996 1_554 S
O61 C54 1.255 1_554 S
C62 O55 1.287 . S
C62 O56 1.255 . S
O63 Fe45 2.002 . S
O63 C59 1.295 . S
O64 Fe47 1.997 . S
O64 C59 1.235 . S
C65 O48 1.295 . S
C65 O49 1.235 1_565 S
Fe66 O68 1.918 . S
Fe66 O71 1.997 . S
Fe66 O72 2.002 . S
Fe66 O77 1.976 . S
Fe66 O80 1.996 . S
Fe67 O68 1.918 . S
Fe67 O75 1.997 . S
Fe67 O78 1.996 . S
Fe67 O82 1.976 . S
Fe67 O85 2.002 . S
O68 Fe66 1.918 . S
O68 Fe67 1.918 . S
O68 Fe69 1.918 . S
Fe69 O68 1.918 . S
Fe69 O70 2.002 1_565 S
Fe69 O79 1.976 . S
Fe69 O83 1.996 . S
Fe69 O86 1.997 1_565 S
O70 Fe69 2.002 1_545 S
O70 C87 1.295 1_545 S
O71 Fe66 1.997 . S
O71 C87 1.235 . S
O72 Fe66 2.002 . S
O72 C73 1.295 . S
C73 O72 1.295 . S
C73 O75 1.235 . S
C74 O79 1.287 . S
C74 O80 1.255 . S
O75 Fe67 1.997 . S
O75 C73 1.235 . S
C76 O82 1.287 . S
C76 O83 1.255 . S
O77 Fe66 1.976 . S
O77 C84 1.287 . S
O78 Fe67 1.996 . S
O78 C84 1.255 . S
O79 Fe69 1.976 . S
O79 C74 1.287 . S
O80 Fe66 1.996 . S
O80 C74 1.255 . S
C81 O85 1.295 . S
C81 O86 1.235 1_565 S
O82 Fe67 1.976 . S
O82 C76 1.287 . S
O83 Fe69 1.996 . S
O83 C76 1.255 . S
C84 O77 1.287 . S
C84 O78 1.255 . S
O85 Fe67 2.002 . S
O85 C81 1.295 . S
O86 Fe69 1.997 1_545 S
O86 C81 1.235 1_545 S
C87 O70 1.295 1_565 S
C87 O71 1.235 . S
Fe88 O90 1.918 . S
Fe88 O93 1.997 . S
Fe88 O94 2.002 . S
Fe88 O99 1.976 . S
Fe88 O102 1.996 . S
Fe89 O90 1.918 . S
Fe89 O97 1.997 . S
Fe89 O100 1.996 . S
Fe89 O104 1.976 1_554 S
Fe89 O107 2.002 . S
O90 Fe88 1.918 . S
O90 Fe89 1.918 . S
O90 Fe91 1.918 . S
Fe91 O90 1.918 . S
Fe91 O92 2.002 . S
Fe91 O101 1.976 1_554 S
Fe91 O105 1.996 1_554 S
Fe91 O108 1.997 . S
O92 Fe91 2.002 . S
O92 C109 1.295 . S
O93 Fe88 1.997 . S
O93 C109 1.235 . S
O94 Fe88 2.002 . S
O94 C95 1.295 . S
C95 O94 1.295 . S
C95 O97 1.235 . S
C96 O101 1.287 1_554 S
C96 O102 1.255 . S
O97 Fe89 1.997 . S
O97 C95 1.235 . S
C98 O104 1.287 . S
C98 O105 1.255 . S
O99 Fe88 1.976 . S
O99 C106 1.287 . S
O100 Fe89 1.996 . S
O100 C106 1.255 . S
O101 Fe91 1.976 1_556 S
O101 C96 1.287 1_556 S
O102 Fe88 1.996 . S
O102 C96 1.255 . S
C103 O107 1.295 . S
C103 O108 1.235 . S
O104 Fe89 1.976 1_556 S
O104 C98 1.287 . S
O105 Fe91 1.996 1_556 S
O105 C98 1.255 . S
C106 O99 1.287 . S
C106 O100 1.255 . S
O107 Fe89 2.002 . S
O107 C103 1.295 . S
O108 Fe91 1.997 . S
O108 C103 1.235 . S
C109 O92 1.295 . S
C109 O93 1.235 . S
Fe110 O112 1.918 . S
Fe110 O115 1.997 . S
Fe110 O116 2.002 . S
Fe110 O121 1.976 . S
Fe110 O124 1.996 . S
Fe111 O112 1.918 . S
Fe111 O119 1.997 . S
Fe111 O122 1.996 . S
Fe111 O126 1.976 . S
Fe111 O129 2.002 . S
O112 Fe110 1.918 . S
O112 Fe111 1.918 . S
O112 Fe113 1.918 . S
Fe113 O112 1.918 . S
Fe113 O114 2.002 . S
Fe113 O123 1.976 . S
Fe113 O127 1.996 . S
Fe113 O130 1.997 . S
O114 Fe113 2.002 . S
O114 C131 1.295 . S
O115 Fe110 1.997 . S
O115 C131 1.235 . S
O116 Fe110 2.002 . S
O116 C117 1.295 . S
C117 O116 1.295 . S
C117 O119 1.235 . S
C118 O123 1.287 . S
C118 O124 1.255 . S
O119 Fe111 1.997 . S
O119 C117 1.235 . S
C120 O126 1.287 . S
C120 O127 1.255 . S
O121 Fe110 1.976 . S
O121 C128 1.287 . S
O122 Fe111 1.996 . S
O122 C128 1.255 . S
O123 Fe113 1.976 . S
O123 C118 1.287 . S
O124 Fe110 1.996 . S
O124 C118 1.255 . S
C125 O129 1.295 . S
C125 O130 1.235 . S
O126 Fe111 1.976 . S
O126 C120 1.287 . S
O127 Fe113 1.996 . S
O127 C120 1.255 . S
C128 O121 1.287 . S
C128 O122 1.255 . S
O129 Fe111 2.002 . S
O129 C125 1.295 . S
O130 Fe113 1.997 . S
O130 C125 1.235 . S
C131 O114 1.295 . S
C131 O115 1.235 . S
Fe132 O134 1.918 . S
Fe132 O137 1.997 . S
Fe132 O138 2.002 . S
Fe132 O143 1.976 . S
Fe132 O146 1.996 1_556 S
Fe133 O134 1.918 . S
Fe133 O141 1.997 . S
Fe133 O144 1.996 . S
Fe133 O148 1.976 . S
Fe133 O151 2.002 . S
O134 Fe132 1.918 . S
O134 Fe133 1.918 . S
O134 Fe135 1.918 . S
Fe135 O134 1.918 . S
Fe135 O136 2.002 . S
Fe135 O145 1.976 1_556 S
Fe135 O149 1.996 1_556 S
Fe135 O152 1.997 . S
O136 Fe135 2.002 . S
O136 C153 1.295 . S
O137 Fe132 1.997 . S
O137 C153 1.235 . S
O138 Fe132 2.002 . S
O138 C139 1.295 . S
C139 O138 1.295 . S
C139 O141 1.235 . S
C140 O145 1.287 . S
C140 O146 1.255 . S
O141 Fe133 1.997 . S
O141 C139 1.235 . S
C142 O148 1.287 . S
C142 O149 1.255 1_556 S
O143 Fe132 1.976 . S
O143 C150 1.287 . S
O144 Fe133 1.996 . S
O144 C150 1.255 . S
O145 Fe135 1.976 1_554 S
O145 C140 1.287 . S
O146 Fe132 1.996 1_554 S
O146 C140 1.255 . S
C147 O151 1.295 . S
C147 O152 1.235 . S
O148 Fe133 1.976 . S
O148 C142 1.287 . S
O149 Fe135 1.996 1_554 S
O149 C142 1.255 1_554 S
C150 O143 1.287 . S
C150 O144 1.255 . S
O151 Fe133 2.002 . S
O151 C147 1.295 . S
O152 Fe135 1.997 . S
O152 C147 1.235 . S
C153 O136 1.295 . S
C153 O137 1.235 . S
Fe154 O156 1.918 . S
Fe154 O159 1.997 . S
Fe154 O160 2.002 . S
Fe154 O165 1.976 . S
Fe154 O168 1.996 . S
Fe155 O156 1.918 . S
Fe155 O163 1.997 . S
Fe155 O166 1.996 . S
Fe155 O170 1.976 . S
Fe155 O173 2.002 . S
O156 Fe154 1.918 . S
O156 Fe155 1.918 . S
O156 Fe157 1.918 . S
Fe157 O156 1.918 . S
Fe157 O158 2.002 . S
Fe157 O167 1.976 . S
Fe157 O171 1.996 . S
Fe157 O174 1.997 . S
O158 Fe157 2.002 . S
O158 C175 1.295 . S
O159 Fe154 1.997 . S
O159 C175 1.235 . S
O160 Fe154 2.002 . S
O160 C161 1.295 . S
C161 O160 1.295 . S
C161 O163 1.235 . S
C162 O167 1.287 . S
C162 O168 1.255 . S
O163 Fe155 1.997 . S
O163 C161 1.235 . S
C164 O170 1.287 . S
C164 O171 1.255 . S
O165 Fe154 1.976 . S
O165 C172 1.287 . S
O166 Fe155 1.996 . S
O166 C172 1.255 . S
O167 Fe157 1.976 . S
O167 C162 1.287 . S
O168 Fe154 1.996 . S
O168 C162 1.255 . S
C169 O173 1.295 . S
C169 O174 1.235 . S
O170 Fe155 1.976 . S
O170 C164 1.287 . S
O171 Fe157 1.996 . S
O171 C164 1.255 . S
C172 O165 1.287 . S
C172 O166 1.255 . S
O173 Fe155 2.002 . S
O173 C169 1.295 . S
O174 Fe157 1.997 . S
O174 C169 1.235 . S
C175 O158 1.295 . S
C175 O159 1.235 . S
C176 C177 1.369 . S
C176 C178 1.419 . S
C176 H180 0.930 . S
C177 C176 1.369 . S
C177 C186 1.429 . S
C178 C176 1.419 . S
C178 C179 1.363 . S
C178 H181 0.929 . S
C179 C178 1.363 . S
C179 C185 1.428 1_545 S
H180 C176 0.930 . S
H181 C178 0.929 . S
S182 N183 1.613 . S
S182 N184 1.610 . S
N183 S182 1.613 . S
N183 C186 1.350 1_565 S
N184 S182 1.610 . S
N184 C185 1.351 . S
C185 C179 1.428 1_565 S
C185 N184 1.351 . S
C185 C186 1.434 1_565 S
C186 C177 1.429 . S
C186 N183 1.350 1_545 S
C186 C185 1.434 1_545 S
C187 C188 1.369 . S
C187 C189 1.419 . S
C187 H191 0.930 . S
C188 C187 1.369 . S
C188 C197 1.429 . S
C189 C187 1.419 . S
C189 C190 1.363 . S
C189 H192 0.929 . S
C190 C189 1.363 . S
C190 C196 1.428 . S
H191 C187 0.930 . S
H192 C189 0.929 . S
S193 N194 1.613 1_545 S
S193 N195 1.610 . S
N194 S193 1.613 1_565 S
N194 C197 1.350 1_565 S
N195 S193 1.610 . S
N195 C196 1.351 . S
C196 C190 1.428 . S
C196 N195 1.351 . S
C196 C197 1.434 . S
C197 C188 1.429 . S
C197 N194 1.350 1_545 S
C197 C196 1.434 . S
C198 C199 1.369 . S
C198 C200 1.419 . S
C198 H202 0.930 . S
C199 C198 1.369 . S
C199 C208 1.429 1_565 S
C200 C198 1.419 . S
C200 C201 1.363 . S
C200 H203 0.929 . S
C201 C200 1.363 . S
C201 C207 1.428 . S
H202 C198 0.930 . S
H203 C200 0.929 . S
S204 N205 1.613 . S
S204 N206 1.610 . S
N205 S204 1.613 . S
N205 C208 1.350 . S
N206 S204 1.610 . S
N206 C207 1.351 1_545 S
C207 C201 1.428 . S
C207 N206 1.351 1_565 S
C207 C208 1.434 1_565 S
C208 C199 1.429 1_545 S
C208 N205 1.350 . S
C208 C207 1.434 1_545 S
C209 C210 1.369 . S
C209 C211 1.419 . S
C209 H213 0.930 . S
C210 C209 1.369 . S
C210 C219 1.429 . S
C211 C209 1.419 . S
C211 C212 1.363 . S
C211 H214 0.929 . S
C212 C211 1.363 . S
C212 C218 1.428 . S
H213 C209 0.930 . S
H214 C211 0.929 . S
S215 N216 1.613 . S
S215 N217 1.610 . S
N216 S215 1.613 . S
N216 C219 1.350 . S
N217 S215 1.610 . S
N217 C218 1.351 . S
C218 C212 1.428 . S
C218 N217 1.351 . S
C218 C219 1.434 . S
C219 C210 1.429 . S
C219 N216 1.350 . S
C219 C218 1.434 . S
C220 C221 1.369 . S
C220 C222 1.419 . S
C220 H224 0.930 . S
C221 C220 1.369 . S
C221 C230 1.429 . S
C222 C220 1.419 . S
C222 C223 1.363 . S
C222 H225 0.929 . S
C223 C222 1.363 . S
C223 C229 1.428 . S
H224 C220 0.930 . S
H225 C222 0.929 . S
S226 N227 1.613 . S
S226 N228 1.610 . S
N227 S226 1.613 . S
N227 C230 1.350 . S
N228 S226 1.610 . S
N228 C229 1.351 . S
C229 C223 1.428 . S
C229 N228 1.351 . S
C229 C230 1.434 . S
C230 C221 1.429 . S
C230 N227 1.350 . S
C230 C229 1.434 . S
C231 C232 1.369 . S
C231 C233 1.419 . S
C231 H235 0.930 . S
C232 C231 1.369 . S
C232 C241 1.429 . S
C233 C231 1.419 . S
C233 C234 1.363 . S
C233 H236 0.929 . S
C234 C233 1.363 . S
C234 C240 1.428 . S
H235 C231 0.930 . S
H236 C233 0.929 . S
S237 N238 1.613 . S
S237 N239 1.610 . S
N238 S237 1.613 . S
N238 C241 1.350 . S
N239 S237 1.610 . S
N239 C240 1.351 . S
C240 C234 1.428 . S
C240 N239 1.351 . S
C240 C241 1.434 . S
C241 C232 1.429 . S
C241 N238 1.350 . S
C241 C240 1.434 . S
C242 C243 1.369 . S
C242 C244 1.419 . S
C242 H246 0.930 . S
C243 C242 1.369 . S
C243 C252 1.429 . S
C244 C242 1.419 . S
C244 C245 1.363 . S
C244 H247 0.929 . S
C245 C244 1.363 . S
C245 C251 1.428 . S
H246 C242 0.930 . S
H247 C244 0.929 . S
S248 N249 1.613 . S
S248 N250 1.610 . S
N249 S248 1.613 . S
N249 C252 1.350 . S
N250 S248 1.610 . S
N250 C251 1.351 . S
C251 C245 1.428 . S
C251 N250 1.351 . S
C251 C252 1.434 . S
C252 C243 1.429 . S
C252 N249 1.350 . S
C252 C251 1.434 . S
C253 C254 1.369 . S
C253 C255 1.419 . S
C253 H257 0.930 . S
C254 C253 1.369 . S
C254 C263 1.429 . S
C255 C253 1.419 . S
C255 C256 1.363 . S
C255 H258 0.929 . S
C256 C255 1.363 . S
C256 C262 1.428 . S
H257 C253 0.930 . S
H258 C255 0.929 . S
S259 N260 1.613 . S
S259 N261 1.610 . S
N260 S259 1.613 . S
N260 C263 1.350 . S
N261 S259 1.610 . S
N261 C262 1.351 . S
C262 C256 1.428 . S
C262 N261 1.351 . S
C262 C263 1.434 . S
C263 C254 1.429 . S
C263 N260 1.350 . S
C263 C262 1.434 . S
C264 C265 1.366 1_545 S
C264 C266 1.419 . S
C264 H268 0.930 . S
C265 C264 1.366 1_565 S
C265 C274 1.432 1_554 S
C266 C264 1.419 . S
C266 C267 1.360 1_544 S
C266 H269 0.929 . S
C267 C266 1.360 1_566 S
C267 C273 1.432 . S
H268 C264 0.930 . S
H269 C266 0.929 . S
S270 N271 1.613 . S
S270 N272 1.610 . S
N271 S270 1.613 . S
N271 C274 1.350 . S
N272 S270 1.610 . S
N272 C273 1.351 . S
C273 C267 1.432 . S
C273 N272 1.351 . S
C273 C274 1.434 . S
C274 C265 1.432 1_556 S
C274 N271 1.350 . S
C274 C273 1.434 . S
C275 C276 1.366 1_545 S
C275 C277 1.419 . S
C275 H279 0.930 . S
C276 C275 1.366 1_565 S
C276 C285 1.432 . S
C277 C275 1.419 . S
C277 C278 1.361 1_545 S
C277 H280 0.929 . S
C278 C277 1.361 1_565 S
C278 C284 1.430 . S
H279 C275 0.930 . S
H280 C277 0.929 . S
S281 N282 1.613 . S
S281 N283 1.610 . S
N282 S281 1.613 . S
N282 C285 1.350 . S
N283 S281 1.610 . S
N283 C284 1.351 . S
C284 C278 1.430 . S
C284 N283 1.351 . S
C284 C285 1.434 . S
C285 C276 1.432 . S
C285 N282 1.350 . S
C285 C284 1.434 . S
C286 C287 1.369 1_556 S
C286 C288 1.419 1_655 S
C286 H290 0.930 . S
C287 C286 1.369 1_554 S
C287 C296 1.430 . S
C288 C286 1.419 1_455 S
C288 C289 1.363 . S
C288 H291 0.928 . S
C289 C288 1.363 . S
C289 C295 1.428 1_556 S
H290 C286 0.930 . S
H291 C288 0.928 . S
S292 N293 1.613 . S
S292 N294 1.610 . S
N293 S292 1.613 . S
N293 C296 1.350 1_455 S
N294 S292 1.610 . S
N294 C295 1.351 . S
C295 C289 1.428 1_554 S
C295 N294 1.351 . S
C295 C296 1.432 1_455 S
C296 C287 1.430 . S
C296 N293 1.350 1_655 S
C296 C295 1.432 1_655 S
C297 C298 1.369 . S
C297 C299 1.419 1_455 S
C297 H301 0.930 1_455 S
C298 C297 1.369 . S
C298 C307 1.429 . S
C299 C297 1.419 1_655 S
C299 C300 1.363 . S
C299 H302 0.929 . S
C300 C299 1.363 . S
C300 C306 1.428 1_655 S
H301 C297 0.930 1_655 S
H302 C299 0.929 . S
S303 N304 1.613 . S
S303 N305 1.610 . S
N304 S303 1.613 . S
N304 C307 1.350 . S
N305 S303 1.610 . S
N305 C306 1.351 . S
C306 C300 1.428 1_455 S
C306 N305 1.351 . S
C306 C307 1.434 . S
C307 C298 1.429 . S
C307 N304 1.350 . S
C307 C306 1.434 . S
C308 C309 1.369 1_655 S
C308 C310 1.419 . S
C308 H312 0.930 . S
C309 C308 1.369 1_455 S
C309 C318 1.429 1_544 S
C310 C308 1.419 . S
C310 C311 1.363 1_544 S
C310 H313 0.929 . S
C311 C310 1.363 1_566 S
C311 C317 1.428 1_655 S
H312 C308 0.930 . S
H313 C310 0.929 . S
S314 N315 1.613 . S
S314 N316 1.610 . S
N315 S314 1.613 . S
N315 C318 1.350 . S
N316 S314 1.610 . S
N316 C317 1.351 . S
C317 C311 1.428 1_455 S
C317 N316 1.351 . S
C317 C318 1.434 . S
C318 C309 1.429 1_566 S
C318 N315 1.350 . S
C318 C317 1.434 . S
C319 C320 1.369 . S
C319 C321 1.419 1_645 S
C319 H323 0.930 . S
C320 C319 1.369 . S
C320 C329 1.429 . S
C321 C319 1.419 1_465 S
C321 C322 1.363 . S
C321 H324 0.929 . S
C322 C321 1.363 . S
C322 C328 1.428 . S
H323 C319 0.930 . S
H324 C321 0.929 . S
S325 N326 1.613 1_565 S
S325 N327 1.610 1_655 S
N326 S325 1.613 1_545 S
N326 C329 1.350 . S
N327 S325 1.610 1_455 S
N327 C328 1.351 . S
C328 C322 1.428 . S
C328 N327 1.351 . S
C328 C329 1.434 1_465 S
C329 C320 1.429 . S
C329 N326 1.350 . S
C329 C328 1.434 1_645 S
C330 C331 1.369 . S
C330 C332 1.419 . S
C330 H334 0.930 . S
C331 C330 1.369 . S
C331 C340 1.429 1_556 S
C332 C330 1.419 . S
C332 C333 1.363 1_556 S
C332 H335 0.929 . S
C333 C332 1.363 1_554 S
C333 C339 1.428 . S
H334 C330 0.930 . S
H335 C332 0.929 . S
S336 N337 1.613 . S
S336 N338 1.610 . S
N337 S336 1.613 . S
N337 C340 1.350 . S
N338 S336 1.610 . S
N338 C339 1.351 . S
C339 C333 1.428 . S
C339 N338 1.351 . S
C339 C340 1.434 . S
C340 C331 1.429 1_554 S
C340 N337 1.350 . S
C340 C339 1.434 . S
C341 C342 1.369 . S
C341 C343 1.419 . S
C341 H345 0.930 . S
C342 C341 1.369 . S
C342 C351 1.429 . S
C343 C341 1.419 . S
C343 C344 1.363 . S
C343 H346 0.929 . S
C344 C343 1.363 . S
C344 C350 1.428 . S
H345 C341 0.930 . S
H346 C343 0.929 . S
S347 N348 1.613 . S
S347 N349 1.610 . S
N348 S347 1.613 . S
N348 C351 1.350 . S
N349 S347 1.610 . S
N349 C350 1.351 . S
C350 C344 1.428 . S
C350 N349 1.351 . S
C350 C351 1.434 . S
C351 C342 1.429 . S
C351 N348 1.350 . S
C351 C350 1.434 . S
C352 C353 1.369 . S
C352 C354 1.419 . S
C352 H356 0.930 . S
C353 C352 1.369 . S
C353 C362 1.429 . S
C354 C352 1.419 . S
C354 C355 1.363 . S
C354 H357 0.929 . S
C355 C354 1.363 . S
C355 C361 1.428 . S
H356 C352 0.930 . S
H357 C354 0.929 . S
S358 N359 1.613 . S
S358 N360 1.610 . S
N359 S358 1.613 . S
N359 C362 1.350 . S
N360 S358 1.610 . S
N360 C361 1.351 . S
C361 C355 1.428 . S
C361 N360 1.351 . S
C361 C362 1.434 . S
C362 C353 1.429 . S
C362 N359 1.350 . S
C362 C361 1.434 . S
C363 C364 1.369 . S
C363 C365 1.419 . S
C363 H367 0.930 . S
C364 C363 1.369 . S
C364 C373 1.429 . S
C365 C363 1.419 . S
C365 C366 1.363 . S
C365 H368 0.929 . S
C366 C365 1.363 . S
C366 C372 1.428 . S
H367 C363 0.930 . S
H368 C365 0.929 . S
S369 N370 1.613 . S
S369 N371 1.610 . S
N370 S369 1.613 . S
N370 C373 1.350 . S
N371 S369 1.610 . S
N371 C372 1.351 . S
C372 C366 1.428 . S
C372 N371 1.351 . S
C372 C373 1.434 . S
C373 C364 1.429 . S
C373 N370 1.350 . S
C373 C372 1.434 . S
C374 C375 1.369 . S
C374 C376 1.419 . S
C374 H378 0.930 . S
C375 C374 1.369 . S
C375 C384 1.429 1_655 S
C376 C374 1.419 . S
C376 C377 1.363 1_655 S
C376 H379 0.929 . S
C377 C376 1.363 1_455 S
C377 C383 1.428 . S
H378 C374 0.930 . S
H379 C376 0.929 . S
S380 N381 1.613 . S
S380 N382 1.610 . S
N381 S380 1.613 . S
N381 C384 1.350 . S
N382 S380 1.610 . S
N382 C383 1.351 . S
C383 C377 1.428 . S
C383 N382 1.351 . S
C383 C384 1.434 . S
C384 C375 1.429 1_455 S
C384 N381 1.350 . S
C384 C383 1.434 . S
C385 C386 1.369 . S
C385 C387 1.419 . S
C385 H389 0.930 . S
C386 C385 1.369 . S
C386 C395 1.429 1_655 S
C387 C385 1.419 . S
C387 C388 1.363 1_655 S
C387 H390 0.929 . S
C388 C387 1.363 1_455 S
C388 C394 1.428 . S
H389 C385 0.930 . S
H390 C387 0.929 . S
S391 N392 1.613 . S
S391 N393 1.610 . S
N392 S391 1.613 . S
N392 C395 1.350 . S
N393 S391 1.610 . S
N393 C394 1.351 . S
C394 C388 1.428 . S
C394 N393 1.351 . S
C394 C395 1.434 . S
C395 C386 1.429 1_455 S
C395 N392 1.350 . S
C395 C394 1.434 . S
C396 C397 1.369 . S
C396 C398 1.419 . S
C396 H400 0.930 . S
C397 C396 1.369 . S
C397 C406 1.429 1_554 S
C398 C396 1.419 . S
C398 C399 1.363 1_554 S
C398 H401 0.929 . S
C399 C398 1.363 1_556 S
C399 C405 1.428 . S
H400 C396 0.930 . S
H401 C398 0.929 . S
S402 N403 1.613 . S
S402 N404 1.610 . S
N403 S402 1.613 . S
N403 C406 1.350 . S
N404 S402 1.610 . S
N404 C405 1.351 . S
C405 C399 1.428 . S
C405 N404 1.351 . S
C405 C406 1.434 . S
C406 C397 1.429 1_556 S
C406 N403 1.350 . S
C406 C405 1.434 . S
C407 C408 1.369 . S
C407 C409 1.419 . S
C407 H411 0.930 . S
C408 C407 1.369 . S
C408 C417 1.429 . S
C409 C407 1.419 . S
C409 C410 1.363 . S
C409 H412 0.929 . S
C410 C409 1.363 . S
C410 C416 1.428 . S
H411 C407 0.930 . S
H412 C409 0.929 . S
S413 N414 1.613 . S
S413 N415 1.610 . S
N414 S413 1.613 . S
N414 C417 1.350 . S
N415 S413 1.610 . S
N415 C416 1.351 . S
C416 C410 1.428 . S
C416 N415 1.351 . S
C416 C417 1.434 . S
C417 C408 1.429 . S
C417 N414 1.350 . S
C417 C416 1.434 . S
C418 C419 1.369 . S
C418 C420 1.419 . S
C418 H422 0.930 . S
C419 C418 1.369 . S
C419 C428 1.429 1_556 S
C420 C418 1.419 . S
C420 C421 1.363 1_556 S
C420 H423 0.929 . S
C421 C420 1.363 1_554 S
C421 C427 1.428 . S
H422 C418 0.930 . S
H423 C420 0.929 . S
S424 N425 1.613 . S
S424 N426 1.610 . S
N425 S424 1.613 . S
N425 C428 1.350 . S
N426 S424 1.610 . S
N426 C427 1.351 . S
C427 C421 1.428 . S
C427 N426 1.351 . S
C427 C428 1.434 . S
C428 C419 1.429 1_554 S
C428 N425 1.350 . S
C428 C427 1.434 . S
C429 C430 1.369 . S
C429 C431 1.419 . S
C429 H433 0.930 . S
C430 C429 1.369 . S
C430 C439 1.429 . S
C431 C429 1.419 . S
C431 C432 1.363 . S
C431 H434 0.929 . S
C432 C431 1.363 . S
C432 C438 1.428 . S
H433 C429 0.930 . S
H434 C431 0.929 . S
S435 N436 1.613 . S
S435 N437 1.610 . S
N436 S435 1.613 . S
N436 C439 1.350 . S
N437 S435 1.610 . S
N437 C438 1.351 . S
C438 C432 1.428 . S
C438 N437 1.351 . S
C438 C439 1.434 . S
C439 C430 1.429 . S
C439 N436 1.350 . S
C439 C438 1.434 . S
C177 C10 1.430 . S
C179 C87 1.447 1_545 S
C188 C51 1.447 1_545 S
C190 C32 1.434 . S
C199 C29 1.433 1_565 S
C201 C52 1.418 . S
C210 C7 1.438 1_565 S
C212 C76 1.419 . S
C221 C175 1.449 . S
C223 C98 1.429 . S
C232 C120 1.428 . S
C234 C139 1.448 . S
C243 C117 1.438 . S
C245 C140 1.420 . S
C254 C95 1.434 . S
C256 C164 1.417 . S
C265 C15 1.076 1_565 S
C267 C65 1.081 . S
C276 C81 1.074 . S
C278 C37 1.083 1_565 S
C287 C103 1.087 . S
C289 C153 1.070 . S
C298 C125 1.081 . S
C300 C169 1.075 . S
C309 C18 1.935 . S
C311 C62 1.955 . S
C320 C40 1.937 . S
C322 C74 1.954 . S
C331 C150 1.950 . S
C333 C106 1.941 . S
C342 C162 1.951 . S
C344 C128 1.940 . S
C353 C21 1.625 . S
C355 C43 1.627 . S
C364 C59 1.623 . S
C366 C73 1.622 . S
C375 C109 1.625 . S
C377 C131 1.626 . S
C386 C161 1.623 . S
C388 C147 1.622 . S
C397 C8 1.449 . S
C399 C142 1.451 . S
C408 C30 1.450 . S
C410 C172 1.450 . S
C419 C54 1.451 . S
C421 C96 1.449 . S
C430 C118 1.448 . S
C432 C84 1.451 . S
