# Generated by pormake.
# Topology svc, (7)-cn, num edge types: 1
# Building blocks:
#     Node 0, Type 0, BuildingBlock: HICVOG_clean_sbu_0, # of connection points: 7
#     Node 1, Type 0, BuildingBlock: HICVOG_clean_sbu_0, # of connection points: 7
#     Node 2, Type 0, BuildingBlock: HICVOG_clean_sbu_0, # of connection points: 7
#     Node 3, Type 0, BuildingBlock: HICVOG_clean_sbu_0, # of connection points: 7
#     Node 4, Type 0, BuildingBlock: HICVOG_clean_sbu_0, # of connection points: 7
#     Node 5, Type 0, BuildingBlock: HICVOG_clean_sbu_0, # of connection points: 7
#     Node 6, Type 0, BuildingBlock: HICVOG_clean_sbu_0, # of connection points: 7
#     Node 7, Type 0, BuildingBlock: HICVOG_clean_sbu_0, # of connection points: 7
#     Node 8, Type 0, BuildingBlock: HICVOG_clean_sbu_0, # of connection points: 7
#     Node 9, Type 0, BuildingBlock: HICVOG_clean_sbu_0, # of connection points: 7
#     Node 10, Type 0, BuildingBlock: HICVOG_clean_sbu_0, # of connection points: 7
#     Node 11, Type 0, BuildingBlock: HICVOG_clean_sbu_0, # of connection points: 7
#     Node 12, Type 0, BuildingBlock: HICVOG_clean_sbu_0, # of connection points: 7
#     Node 13, Type 0, BuildingBlock: HICVOG_clean_sbu_0, # of connection points: 7
#     Node 14, Type 0, BuildingBlock: HICVOG_clean_sbu_0, # of connection points: 7
#     Node 15, Type 0, BuildingBlock: HICVOG_clean_sbu_0, # of connection points: 7
#     Edge 16, Type (0, 0), BuildingBlock: KIFKEQ_clean_linker_1, # of connection points: 2
#     Edge 17, Type (0, 0), BuildingBlock: KIFKEQ_clean_linker_1, # of connection points: 2
#     Edge 18, Type (0, 0), BuildingBlock: KIFKEQ_clean_linker_1, # of connection points: 2
#     Edge 19, Type (0, 0), BuildingBlock: KIFKEQ_clean_linker_1, # of connection points: 2
#     Edge 20, Type (0, 0), BuildingBlock: KIFKEQ_clean_linker_1, # of connection points: 2
#     Edge 21, Type (0, 0), BuildingBlock: KIFKEQ_clean_linker_1, # of connection points: 2
#     Edge 22, Type (0, 0), BuildingBlock: KIFKEQ_clean_linker_1, # of connection points: 2
#     Edge 23, Type (0, 0), BuildingBlock: KIFKEQ_clean_linker_1, # of connection points: 2
#     Edge 24, Type (0, 0), BuildingBlock: KIFKEQ_clean_linker_1, # of connection points: 2
#     Edge 25, Type (0, 0), BuildingBlock: KIFKEQ_clean_linker_1, # of connection points: 2
#     Edge 26, Type (0, 0), BuildingBlock: KIFKEQ_clean_linker_1, # of connection points: 2
#     Edge 27, Type (0, 0), BuildingBlock: KIFKEQ_clean_linker_1, # of connection points: 2
#     Edge 28, Type (0, 0), BuildingBlock: KIFKEQ_clean_linker_1, # of connection points: 2
#     Edge 29, Type (0, 0), BuildingBlock: KIFKEQ_clean_linker_1, # of connection points: 2
#     Edge 30, Type (0, 0), BuildingBlock: KIFKEQ_clean_linker_1, # of connection points: 2
#     Edge 31, Type (0, 0), BuildingBlock: KIFKEQ_clean_linker_1, # of connection points: 2
#     Edge 32, Type (0, 0), BuildingBlock: KIFKEQ_clean_linker_1, # of connection points: 2
#     Edge 33, Type (0, 0), BuildingBlock: KIFKEQ_clean_linker_1, # of connection points: 2
#     Edge 34, Type (0, 0), BuildingBlock: KIFKEQ_clean_linker_1, # of connection points: 2
#     Edge 35, Type (0, 0), BuildingBlock: KIFKEQ_clean_linker_1, # of connection points: 2
#     Edge 36, Type (0, 0), BuildingBlock: KIFKEQ_clean_linker_1, # of connection points: 2
#     Edge 37, Type (0, 0), BuildingBlock: KIFKEQ_clean_linker_1, # of connection points: 2
#     Edge 38, Type (0, 0), BuildingBlock: KIFKEQ_clean_linker_1, # of connection points: 2
#     Edge 39, Type (0, 0), BuildingBlock: KIFKEQ_clean_linker_1, # of connection points: 2
#     Edge 40, Type (0, 0), BuildingBlock: KIFKEQ_clean_linker_1, # of connection points: 2
#     Edge 41, Type (0, 0), BuildingBlock: KIFKEQ_clean_linker_1, # of connection points: 2
#     Edge 42, Type (0, 0), BuildingBlock: KIFKEQ_clean_linker_1, # of connection points: 2
#     Edge 43, Type (0, 0), BuildingBlock: KIFKEQ_clean_linker_1, # of connection points: 2
#     Edge 44, Type (0, 0), BuildingBlock: KIFKEQ_clean_linker_1, # of connection points: 2
#     Edge 45, Type (0, 0), BuildingBlock: KIFKEQ_clean_linker_1, # of connection points: 2
#     Edge 46, Type (0, 0), BuildingBlock: KIFKEQ_clean_linker_1, # of connection points: 2
#     Edge 47, Type (0, 0), BuildingBlock: KIFKEQ_clean_linker_1, # of connection points: 2
#     Edge 48, Type (0, 0), BuildingBlock: KIFKEQ_clean_linker_1, # of connection points: 2
#     Edge 49, Type (0, 0), BuildingBlock: KIFKEQ_clean_linker_1, # of connection points: 2
#     Edge 50, Type (0, 0), BuildingBlock: KIFKEQ_clean_linker_1, # of connection points: 2
#     Edge 51, Type (0, 0), BuildingBlock: KIFKEQ_clean_linker_1, # of connection points: 2
#     Edge 52, Type (0, 0), BuildingBlock: KIFKEQ_clean_linker_1, # of connection points: 2
#     Edge 53, Type (0, 0), BuildingBlock: KIFKEQ_clean_linker_1, # of connection points: 2
#     Edge 54, Type (0, 0), BuildingBlock: KIFKEQ_clean_linker_1, # of connection points: 2
#     Edge 55, Type (0, 0), BuildingBlock: KIFKEQ_clean_linker_1, # of connection points: 2
#     Edge 56, Type (0, 0), BuildingBlock: KIFKEQ_clean_linker_1, # of connection points: 2
#     Edge 57, Type (0, 0), BuildingBlock: KIFKEQ_clean_linker_1, # of connection points: 2
#     Edge 58, Type (0, 0), BuildingBlock: KIFKEQ_clean_linker_1, # of connection points: 2
#     Edge 59, Type (0, 0), BuildingBlock: KIFKEQ_clean_linker_1, # of connection points: 2
#     Edge 60, Type (0, 0), BuildingBlock: KIFKEQ_clean_linker_1, # of connection points: 2
#     Edge 61, Type (0, 0), BuildingBlock: KIFKEQ_clean_linker_1, # of connection points: 2
#     Edge 62, Type (0, 0), BuildingBlock: KIFKEQ_clean_linker_1, # of connection points: 2
#     Edge 63, Type (0, 0), BuildingBlock: KIFKEQ_clean_linker_1, # of connection points: 2
#     Edge 64, Type (0, 0), BuildingBlock: KIFKEQ_clean_linker_1, # of connection points: 2
#     Edge 65, Type (0, 0), BuildingBlock: KIFKEQ_clean_linker_1, # of connection points: 2
#     Edge 66, Type (0, 0), BuildingBlock: KIFKEQ_clean_linker_1, # of connection points: 2
#     Edge 67, Type (0, 0), BuildingBlock: KIFKEQ_clean_linker_1, # of connection points: 2
#     Edge 68, Type (0, 0), BuildingBlock: KIFKEQ_clean_linker_1, # of connection points: 2
#     Edge 69, Type (0, 0), BuildingBlock: KIFKEQ_clean_linker_1, # of connection points: 2
#     Edge 70, Type (0, 0), BuildingBlock: KIFKEQ_clean_linker_1, # of connection points: 2
#     Edge 71, Type (0, 0), BuildingBlock: KIFKEQ_clean_linker_1, # of connection points: 2
# Relax obj value: 0.176
# Max RMSD: 0.250
# Mean RMSD: 0.214
data_MOF--net-svc--node1-HICVOG_clean_sbu_0--edge1-KIFKEQ_clean_linker_1
_symmetry_space_group_name_H-M    P1
_symmetry_Int_Tables_number       1
_symmetry_cell_setting            triclinic
loop_
_symmetry_equiv_pos_as_xyz
'x, y, z'
_cell_length_a     31.984576
_cell_length_b     28.939615
_cell_length_c     79.929238
_cell_angle_alpha  98.597386
_cell_angle_beta   94.451671
_cell_angle_gamma 90.148917
loop_
_atom_site_label
_atom_site_type_symbol
_atom_site_fract_x
_atom_site_fract_y
_atom_site_fract_z
_atom_type_partial_charge
Zn0 Zn 0.22274 0.42788 0.11594 0.0
C1 C 0.13582 0.36865 0.13896 0.0
N2 N 0.1565 0.32891 0.13451 0.0
C3 C 0.19207 0.34421 0.12912 0.0
N4 N 0.19275 0.39145 0.12993 0.0
N5 N 0.15762 0.40661 0.13649 0.0
C6 C 0.07479 0.50076 0.13482 0.0
O7 O 0.09976 0.50218 0.12259 0.0
O8 O 0.28348 0.41282 0.11676 0.0
Zn9 Zn 0.14915 0.46814 0.14918 0.0
N10 N 0.19788 0.41193 0.09291 0.0
C11 C 0.13803 0.3858 0.07432 0.0
C12 C 0.15748 0.39611 0.09066 0.0
C13 C 0.21972 0.418 0.07943 0.0
N14 N 0.15968 0.39195 0.06087 0.0
C15 C 0.20019 0.40771 0.06286 0.0
O16 O 0.17829 0.52315 0.14155 0.0
C17 C 0.20455 0.5325 0.13131 0.0
O18 O 0.22177 0.49988 0.12177 0.0
H19 H 0.14028 0.39198 0.10146 0.0
H20 H 0.25145 0.43177 0.08173 0.0
C21 C 0.15134 0.48657 0.18652 0.0
C22 C 0.17108 0.48458 0.20278 0.0
C23 C 0.22562 0.43976 0.19021 0.0
C24 C 0.20624 0.44198 0.17418 0.0
N25 N 0.16989 0.46568 0.17256 0.0
N26 N 0.20784 0.46134 0.20408 0.0
H27 H 0.12244 0.5054 0.18498 0.0
C28 C 0.30316 0.4203 0.13133 0.0
O29 O 0.2816 0.42959 0.14472 0.0
O30 O 0.08838 0.48408 0.148 0.0
H31 H 0.22022 0.42521 0.16305 0.0
H32 H 0.10586 0.3733 0.07234 0.0
H33 H 0.25475 0.42131 0.19164 0.0
Zn34 Zn 0.87478 0.99744 0.36752 0.0
C35 C 0.94264 0.90843 0.39008 0.0
N36 N 0.97483 0.92852 0.38389 0.0
C37 C 0.95734 0.96681 0.37885 0.0
N38 N 0.91627 0.96968 0.38164 0.0
N39 N 0.90727 0.9335 0.38905 0.0
C40 C 0.81097 0.86301 0.38808 0.0
O41 O 0.81033 0.89143 0.3767 0.0
O42 O 0.89225 0.06202 0.36596 0.0
Zn43 Zn 0.86235 0.93386 0.40377 0.0
N44 N 0.87173 0.96011 0.34524 0.0
C45 C 0.8693 0.88459 0.32867 0.0
C46 C 0.87105 0.91289 0.34442 0.0
C47 C 0.87106 0.98035 0.33091 0.0
N48 N 0.86876 0.90466 0.31436 0.0
C49 C 0.86984 0.95194 0.31492 0.0
O50 O 0.81173 0.9746 0.39939 0.0
C51 C 0.79524 0.997 0.38805 0.0
O52 O 0.81538 1.00446 0.37554 0.0
H53 H 0.87195 0.8974 0.35592 0.0
H54 H 0.87103 1.01805 0.33209 0.0
C55 C 0.86518 0.93921 0.44007 0.0
C56 C 0.88227 0.95259 0.45692 0.0
C57 C 0.93854 0.99079 0.44648 0.0
C58 C 0.9215 0.97733 0.42989 0.0
N59 N 0.88529 0.95174 0.427 0.0
N60 N 0.91861 0.97823 0.45953 0.0
H61 H 0.83588 0.91989 0.43723 0.0
C62 C 0.89255 0.08868 0.38008 0.0
O63 O 0.88753 0.06999 0.39381 0.0
O64 O 0.83664 0.87108 0.40113 0.0
H65 H 0.93691 0.98743 0.41939 0.0
H66 H 0.86859 0.84693 0.32782 0.0
H67 H 0.96733 1.0112 0.44899 0.0
Zn68 Zn 0.34739 0.61656 0.62365 0.0
C69 C 0.4535 0.57632 0.64653 0.0
N70 N 0.46808 0.61804 0.64402 0.0
C71 C 0.4332 0.63929 0.63885 0.0
N72 N 0.39863 0.61188 0.63805 0.0
N73 N 0.41135 0.57251 0.64327 0.0
C74 C 0.37971 0.45117 0.63111 0.0
O75 O 0.36657 0.48153 0.62127 0.0
O76 O 0.33278 0.68431 0.62359 0.0
Zn77 Zn 0.37615 0.53292 0.65395 0.0
N78 N 0.35993 0.58848 0.60081 0.0
C79 C 0.40373 0.53735 0.58397 0.0
C80 C 0.39219 0.55789 0.59974 0.0
C81 C 0.33887 0.59973 0.5865 0.0
N82 N 0.38295 0.54857 0.56977 0.0
C83 C 0.3508 0.57938 0.57038 0.0
O84 O 0.31251 0.53709 0.64893 0.0
C85 C 0.2846 0.55633 0.6401 0.0
O86 O 0.29479 0.58524 0.63047 0.0
H87 H 0.40915 0.54939 0.611 0.0
H88 H 0.31322 0.62391 0.5878 0.0
C89 C 0.38978 0.52351 0.69008 0.0
C90 C 0.39957 0.54222 0.70729 0.0
C91 C 0.40574 0.61782 0.69947 0.0
C92 C 0.39549 0.59937 0.68258 0.0
N93 N 0.38823 0.55265 0.67814 0.0
N94 N 0.40751 0.58897 0.71136 0.0
H95 H 0.38389 0.4865 0.68617 0.0
C96 C 0.32957 0.71127 0.63752 0.0
O97 O 0.33777 0.69494 0.65188 0.0
O98 O 0.38918 0.46566 0.64677 0.0
H99 H 0.39343 0.62223 0.67304 0.0
H100 H 0.42923 0.51285 0.58301 0.0
H101 H 0.41196 0.65486 0.70314 0.0
Zn102 Zn 0.64464 0.09574 0.86719 0.0
C103 C 0.70572 0.22114 0.88049 0.0
N104 N 0.67194 0.23524 0.87173 0.0
C105 C 0.64674 0.19735 0.86906 0.0
N106 N 0.66401 0.16104 0.87585 0.0
N107 N 0.7015 0.1761 0.88317 0.0
C108 C 0.8144 0.13407 0.8826 0.0
O109 O 0.78757 0.11888 0.86968 0.0
O110 O 0.57998 0.08489 0.86716 0.0
Zn111 Zn 0.73664 0.14446 0.89911 0.0
N112 N 0.66148 0.08636 0.84391 0.0
C113 C 0.71558 0.10575 0.82716 0.0
C114 C 0.69924 0.10693 0.8428 0.0
C115 C 0.63935 0.06365 0.82973 0.0
N116 N 0.69374 0.08345 0.81308 0.0
C117 C 0.65611 0.06225 0.81384 0.0
O118 O 0.72668 0.0742 0.89668 0.0
C119 C 0.70415 0.03931 0.88955 0.0
O120 O 0.67336 0.04426 0.87886 0.0
H121 H 0.71651 0.12458 0.85403 0.0
H122 H 0.60945 0.04717 0.83077 0.0
C123 C 0.74511 0.1649 0.93635 0.0
C124 C 0.73125 0.18422 0.95225 0.0
C125 C 0.67212 0.21504 0.93803 0.0
C126 C 0.68542 0.19514 0.92246 0.0
N127 N 0.7219 0.17108 0.92181 0.0
N128 N 0.69516 0.20906 0.95246 0.0
H129 H 0.77382 0.14533 0.93545 0.0
C130 C 0.56429 0.07142 0.87989 0.0
O131 O 0.58971 0.06592 0.89315 0.0
O132 O 0.80014 0.15048 0.89672 0.0
H133 H 0.66656 0.19904 0.91099 0.0
H134 H 0.74549 0.12229 0.82619 0.0
H135 H 0.64341 0.23468 0.93867 0.0
Zn136 Zn 0.13491 0.57519 0.37605 0.0
C137 C 0.19502 0.70055 0.38674 0.0
N138 N 0.15729 0.71547 0.38136 0.0
C139 C 0.13253 0.67725 0.37994 0.0
N140 N 0.1539 0.64013 0.38432 0.0
N141 N 0.19316 0.6547 0.38892 0.0
C142 C 0.30322 0.62893 0.38614 0.0
O143 O 0.27522 0.62412 0.37306 0.0
O144 O 0.0699 0.56842 0.37467 0.0
Zn145 Zn 0.22926 0.62228 0.40416 0.0
N146 N 0.15524 0.56293 0.35352 0.0
C147 C 0.21822 0.54839 0.33968 0.0
C148 C 0.19729 0.55578 0.35441 0.0
C149 C 0.1329 0.5631 0.33824 0.0
N150 N 0.1963 0.54867 0.32452 0.0
C151 C 0.15423 0.55575 0.32329 0.0
O152 O 0.22252 0.55015 0.40121 0.0
C153 C 0.19758 0.51565 0.39573 0.0
O154 O 0.16238 0.52194 0.38769 0.0
H155 H 0.21458 0.55644 0.36659 0.0
H156 H 0.09953 0.56948 0.33776 0.0
C157 C 0.23597 0.63474 0.4414 0.0
C158 C 0.22315 0.65324 0.45757 0.0
C159 C 0.17048 0.69627 0.4443 0.0
C160 C 0.18283 0.67753 0.42847 0.0
N161 N 0.21557 0.64757 0.4272 0.0
N162 N 0.19073 0.68369 0.45837 0.0
H163 H 0.26089 0.60965 0.43995 0.0
C164 C 0.05054 0.56662 0.38795 0.0
O165 O 0.07265 0.56978 0.40264 0.0
O166 O 0.29067 0.63278 0.40101 0.0
H167 H 0.16587 0.6868 0.41732 0.0
H168 H 0.25171 0.54284 0.34028 0.0
H169 H 0.14463 0.72029 0.44541 0.0
Zn170 Zn 0.74089 0.89534 0.61141 0.0
C171 C 0.64783 0.83561 0.63108 0.0
N172 N 0.6691 0.79595 0.62733 0.0
C173 C 0.70565 0.81155 0.62288 0.0
N174 N 0.70642 0.85868 0.62367 0.0
N175 N 0.67025 0.87373 0.62922 0.0
C176 C 0.58633 0.96221 0.62818 0.0
O177 O 0.6109 0.96652 0.61605 0.0
O178 O 0.80153 0.88664 0.61786 0.0
Zn179 Zn 0.66233 0.93339 0.64293 0.0
N180 N 0.72745 0.87437 0.58724 0.0
C181 C 0.68069 0.83139 0.56586 0.0
C182 C 0.69261 0.84686 0.58286 0.0
C183 C 0.7506 0.88785 0.57512 0.0
N184 N 0.70363 0.84471 0.55381 0.0
C185 C 0.73835 0.87273 0.55779 0.0
O186 O 0.69126 0.98993 0.63607 0.0
C187 C 0.71651 0.99933 0.62542 0.0
O188 O 0.73404 0.96685 0.61591 0.0
H189 H 0.67372 0.8373 0.59245 0.0
H190 H 0.77735 0.91093 0.57903 0.0
C191 C 0.65941 0.94349 0.67988 0.0
C192 C 0.67114 0.93028 0.69584 0.0
C193 C 0.72439 0.88265 0.68359 0.0
C194 C 0.71261 0.8955 0.66784 0.0
N195 N 0.68021 0.92523 0.66617 0.0
N196 N 0.70329 0.90002 0.69715 0.0
H197 H 0.63329 0.96655 0.67827 0.0
C198 C 0.81316 0.9075 0.63262 0.0
O199 O 0.78439 0.9256 0.64242 0.0
O200 O 0.60144 0.94717 0.64147 0.0
H201 H 0.72855 0.88079 0.65691 0.0
H202 H 0.65312 0.80936 0.56223 0.0
H203 H 0.74981 0.85861 0.68501 0.0
Zn204 Zn 0.3235 0.44172 0.90465 0.0
C205 C 0.37799 0.33551 0.87727 0.0
N206 N 0.35622 0.31064 0.8867 0.0
C207 C 0.33242 0.34317 0.89494 0.0
N208 N 0.33914 0.38569 0.8908 0.0
N209 N 0.36738 0.38125 0.87946 0.0
C210 C 0.44668 0.47735 0.88047 0.0
O211 O 0.42305 0.47957 0.89323 0.0
O212 O 0.26131 0.44878 0.90501 0.0
Zn213 Zn 0.37515 0.42761 0.86453 0.0
N214 N 0.34874 0.4395 0.92726 0.0
C215 C 0.41156 0.4352 0.94489 0.0
C216 C 0.39122 0.43708 0.92898 0.0
C217 C 0.32546 0.43903 0.94079 0.0
N218 N 0.38851 0.43507 0.95842 0.0
C219 C 0.34584 0.4366 0.95691 0.0
O220 O 0.33882 0.4858 0.86906 0.0
C221 C 0.33318 0.5132 0.88274 0.0
O222 O 0.3422 0.501 0.89721 0.0
H223 H 0.40908 0.43635 0.91803 0.0
H224 H 0.29169 0.44098 0.93897 0.0
C225 C 0.37382 0.41578 0.82803 0.0
C226 C 0.36117 0.39449 0.81135 0.0
C227 C 0.3221 0.33802 0.82261 0.0
C228 C 0.33381 0.35997 0.83902 0.0
N229 N 0.35983 0.398 0.84144 0.0
N230 N 0.33586 0.35579 0.80923 0.0
H231 H 0.39452 0.44604 0.83045 0.0
C232 C 0.24175 0.4549 0.89109 0.0
O233 O 0.26151 0.44894 0.87715 0.0
O234 O 0.43405 0.45327 0.86638 0.0
H235 H 0.322 0.34685 0.84973 0.0
H236 H 0.44539 0.43356 0.94647 0.0
H237 H 0.30173 0.30746 0.8205 0.0
Zn238 Zn 0.83711 0.1435 0.12049 0.0
C239 C 0.94435 0.10121 0.14116 0.0
N240 N 0.95931 0.14131 0.13728 0.0
C241 C 0.92421 0.16355 0.13294 0.0
N242 N 0.88926 0.13841 0.13414 0.0
N243 N 0.90193 0.09942 0.13962 0.0
C244 C 0.87249 0.97906 0.13165 0.0
O245 O 0.85503 1.00681 0.12163 0.0
O246 O 0.8217 0.2111 0.12178 0.0
Zn247 Zn 0.86807 0.06327 0.15209 0.0
N248 N 0.84847 0.11721 0.09731 0.0
C249 C 0.88729 0.06026 0.0805 0.0
C250 C 0.87533 0.08075 0.0962 0.0
C251 C 0.83316 0.13443 0.08308 0.0
N252 N 0.87225 0.07729 0.06639 0.0
C253 C 0.84547 0.1139 0.06705 0.0
O254 O 0.80433 0.06425 0.14662 0.0
C255 C 0.77623 0.08176 0.13733 0.0
O256 O 0.78596 0.11017 0.12743 0.0
H257 H 0.88806 0.06799 0.10747 0.0
H258 H 0.81271 0.16424 0.08435 0.0
C259 C 0.87434 0.06501 0.18906 0.0
C260 C 0.88107 0.08824 0.20592 0.0
C261 C 0.89777 0.15807 0.19541 0.0
C262 C 0.89061 0.13524 0.17887 0.0
N263 N 0.87929 0.08922 0.17594 0.0
N264 N 0.8927 0.13422 0.20846 0.0
H265 H 0.86418 1.02881 0.18635 0.0
C266 C 0.81263 0.23285 0.13604 0.0
O267 O 0.81558 0.211 0.14936 0.0
O268 O 0.88384 0.99612 0.14692 0.0
H269 H 0.8935 0.15449 0.16845 0.0
H270 H 0.9087 0.03127 0.07953 0.0
H271 H 0.90679 0.19465 0.19788 0.0
Zn272 Zn 0.87327 0.61209 0.87574 0.0
C273 C 0.83323 0.73308 0.89938 0.0
N274 N 0.87062 0.74883 0.89581 0.0
C275 C 0.89033 0.70924 0.89027 0.0
N276 N 0.86618 0.67103 0.89023 0.0
N277 N 0.83047 0.68572 0.89635 0.0
C278 C 0.72015 0.65041 0.89288 0.0
O279 O 0.74294 0.63993 0.8799 0.0
O280 O 0.9337 0.59706 0.87595 0.0
Zn281 Zn 0.79966 0.64739 0.90942 0.0
N282 N 0.85312 0.62078 0.85284 0.0
C283 C 0.804 0.65884 0.83584 0.0
C284 C 0.81917 0.64851 0.8516 0.0
C285 C 0.87278 0.60277 0.83879 0.0
N286 N 0.8234 0.641 0.82186 0.0
C287 C 0.8575 0.61306 0.8227 0.0
O288 O 0.80281 0.57603 0.90271 0.0
C289 C 0.81982 0.54433 0.8927 0.0
O290 O 0.84531 0.55485 0.88233 0.0
H291 H 0.80436 0.66311 0.86284 0.0
H292 H 0.90031 0.58172 0.84027 0.0
C293 C 0.7996 0.6561 0.94622 0.0
C294 C 0.8187 0.66516 0.96294 0.0
C295 C 0.88217 0.68521 0.95194 0.0
C296 C 0.86327 0.67589 0.93551 0.0
N297 N 0.82242 0.66171 0.93292 0.0
N298 N 0.85962 0.6795 0.96518 0.0
H299 H 0.76751 0.64357 0.94369 0.0
C300 C 0.95256 0.59005 0.88988 0.0
O301 O 0.93231 0.59573 0.90372 0.0
O302 O 0.73861 0.66049 0.90763 0.0
H303 H 0.88128 0.67941 0.92489 0.0
H304 H 0.77708 0.68104 0.8347 0.0
H305 H 0.91466 0.69648 0.95417 0.0
Zn306 Zn 0.21095 0.10359 0.61701 0.0
C307 C 0.16159 0.2099 0.64628 0.0
N308 N 0.18264 0.23503 0.63671 0.0
C309 C 0.20543 0.20257 0.62789 0.0
N310 N 0.19868 0.15973 0.63178 0.0
N311 N 0.17165 0.16404 0.6436 0.0
C312 C 0.09053 0.07277 0.64475 0.0
O313 O 0.10981 0.07325 0.63088 0.0
O314 O 0.27247 0.09455 0.61521 0.0
Zn315 Zn 0.16639 0.11761 0.65873 0.0
N316 N 0.18312 0.1081 0.59489 0.0
C317 C 0.11857 0.11843 0.57913 0.0
C318 C 0.1409 0.11336 0.59437 0.0
C319 C 0.20426 0.10827 0.58074 0.0
N320 N 0.13947 0.11856 0.56501 0.0
C321 C 0.18185 0.11363 0.56523 0.0
O322 O 0.20103 0.05919 0.65275 0.0
C323 C 0.20359 0.03184 0.6388 0.0
O324 O 0.19179 0.04449 0.62463 0.0
H325 H 0.12482 0.11433 0.60579 0.0
H326 H 0.23804 0.10556 0.58175 0.0
C327 C 0.17417 0.12931 0.69544 0.0
C328 C 0.19128 0.14921 0.71173 0.0
C329 C 0.23142 0.20194 0.69911 0.0
C330 C 0.21482 0.18176 0.68306 0.0
N331 N 0.18643 0.14603 0.6815 0.0
N332 N 0.21954 0.18509 0.71299 0.0
H333 H 0.1525 0.09992 0.69373 0.0
C334 C 0.29471 0.09005 0.62872 0.0
O335 O 0.2777 0.09748 0.6433 0.0
O336 O 0.10782 0.09291 0.65878 0.0
H337 H 0.225 0.19405 0.67189 0.0
H338 H 0.08493 0.12269 0.57854 0.0
H339 H 0.25407 0.23036 0.70052 0.0
Zn340 Zn 0.67512 0.43604 0.40215 0.0
C341 C 0.5699 0.46758 0.37736 0.0
N342 N 0.55519 0.42827 0.38199 0.0
C343 C 0.59026 0.40869 0.38793 0.0
N344 N 0.62474 0.43505 0.38718 0.0
N345 N 0.61203 0.47152 0.38013 0.0
C346 C 0.63311 0.59369 0.38338 0.0
O347 O 0.64551 0.57219 0.39622 0.0
O348 O 0.69788 0.37249 0.40038 0.0
Zn349 Zn 0.64699 0.50492 0.36715 0.0
N350 N 0.66087 0.45887 0.42511 0.0
C351 C 0.62019 0.51215 0.4425 0.0
C352 C 0.63245 0.49374 0.42658 0.0
C353 C 0.67776 0.44151 0.43906 0.0
N354 N 0.63699 0.4951 0.45639 0.0
C355 C 0.66568 0.46026 0.45532 0.0
O356 O 0.71025 0.50934 0.37416 0.0
C357 C 0.73638 0.49819 0.38572 0.0
O358 O 0.72487 0.47392 0.39664 0.0
H359 H 0.61931 0.50704 0.41541 0.0
H360 H 0.69971 0.4132 0.43734 0.0
C361 C 0.63918 0.50154 0.33081 0.0
C362 C 0.63434 0.47906 0.31386 0.0
C363 C 0.63021 0.40589 0.32381 0.0
C364 C 0.63499 0.42835 0.34053 0.0
N365 N 0.63947 0.47561 0.3437 0.0
N366 N 0.63015 0.43161 0.31093 0.0
H367 H 0.64364 0.53901 0.33382 0.0
C368 C 0.71416 0.3614 0.38637 0.0
O369 O 0.708 0.38826 0.37455 0.0
O370 O 0.62823 0.5701 0.36866 0.0
H371 H 0.6354 0.4083 0.35092 0.0
H372 H 0.5975 0.53986 0.44383 0.0
H373 H 0.62676 0.36827 0.32107 0.0
Zn374 Zn 0.38397 0.98093 0.15137 0.0
C375 C 0.31823 0.85669 0.14258 0.0
N376 N 0.35047 0.84396 0.15252 0.0
C377 C 0.37655 0.88106 0.15465 0.0
N378 N 0.36114 0.91579 0.14641 0.0
N379 N 0.32421 0.9003 0.13864 0.0
C380 C 0.21369 0.9372 0.13848 0.0
O381 O 0.24074 0.94852 0.15171 0.0
O382 O 0.44898 0.98718 0.15163 0.0
Zn383 Zn 0.29064 0.93002 0.12163 0.0
N384 N 0.36652 1.0052 0.17379 0.0
C385 C 0.31121 0.04522 0.18786 0.0
C386 C 0.3275 1.02372 0.17311 0.0
C387 C 0.38951 1.0056 0.18895 0.0
N388 N 0.33425 0.04665 0.20287 0.0
C389 C 0.3729 1.02726 0.20398 0.0
O390 O 0.29973 1.0003 0.12273 0.0
C391 C 0.32509 0.03444 0.12783 0.0
O392 O 0.35849 1.02922 0.13713 0.0
H393 H 0.30914 1.02208 0.16111 0.0
H394 H 0.42028 0.99011 0.18927 0.0
C395 C 0.28382 0.90796 0.08451 0.0
C396 C 0.29808 0.88782 0.06876 0.0
C397 C 0.35492 0.85455 0.08358 0.0
C398 C 0.34129 0.87533 0.09898 0.0
N399 N 0.30575 0.90102 0.09925 0.0
N400 N 0.33321 0.86135 0.06893 0.0
H401 H 0.25588 0.92888 0.08516 0.0
C402 C 0.46607 0.99635 0.13854 0.0
O403 O 0.44181 0.99926 0.12471 0.0
O404 O 0.22766 0.92414 0.12404 0.0
H405 H 0.35911 0.87093 0.11066 0.0
H406 H 0.28041 0.06057 0.18743 0.0
H407 H 0.3829 0.83361 0.08323 0.0
Zn408 Zn 0.89199 0.44568 0.65201 0.0
C409 C 0.83416 0.31989 0.63521 0.0
N410 N 0.86809 0.30508 0.64366 0.0
C411 C 0.89234 0.34363 0.64741 0.0
N412 N 0.8744 0.38103 0.64158 0.0
N413 N 0.83735 0.36601 0.63376 0.0
C414 C 0.72486 0.41955 0.6371 0.0
O415 O 0.75281 0.44343 0.6479 0.0
O416 O 0.95683 0.45772 0.65336 0.0
Zn417 Zn 0.79977 0.40045 0.61942 0.0
N418 N 0.87185 0.45045 0.67475 0.0
C419 C 0.815 0.42544 0.68894 0.0
C420 C 0.83367 0.42923 0.67411 0.0
C421 C 0.89208 0.46926 0.68996 0.0
N422 N 0.83513 0.44335 0.70401 0.0
C423 C 0.87311 0.46535 0.70512 0.0
O424 O 0.81144 0.47032 0.62247 0.0
C425 C 0.83416 0.50459 0.62998 0.0
O426 O 0.86439 0.49867 0.64081 0.0
H427 H 0.81801 0.41449 0.66211 0.0
H428 H 0.92255 0.48584 0.69029 0.0
C429 C 0.78411 0.38704 0.58228 0.0
C430 C 0.79401 0.36938 0.56559 0.0
C431 C 0.85273 0.33099 0.57706 0.0
C432 C 0.84333 0.34921 0.59339 0.0
N433 N 0.80895 0.37622 0.5958 0.0
N434 N 0.82806 0.34151 0.56364 0.0
H435 H 0.75719 0.40895 0.58457 0.0
C436 C 0.97351 0.47199 0.64099 0.0
O437 O 0.94905 0.47757 0.62748 0.0
O438 O 0.73727 0.39537 0.62375 0.0
H439 H 0.86361 0.34183 0.60407 0.0
H440 H 0.78479 0.40821 0.6885 0.0
H441 H 0.87976 0.30907 0.57502 0.0
Zn442 Zn 0.39441 0.07644 0.37829 0.0
C443 C 0.33677 0.2021 0.38858 0.0
N444 N 0.37266 0.21741 0.3835 0.0
C445 C 0.39641 0.17901 0.38169 0.0
N446 N 0.37627 0.14135 0.38552 0.0
N447 N 0.33883 0.15582 0.39017 0.0
C448 C 0.22588 0.12698 0.38445 0.0
O449 O 0.24942 0.12015 0.37157 0.0
O450 O 0.4592 0.07118 0.37837 0.0
Zn451 Zn 0.30552 0.12147 0.40387 0.0
N452 N 0.37032 0.06038 0.35507 0.0
C453 C 0.30642 0.03727 0.33867 0.0
C454 C 0.32826 0.0526 0.35422 0.0
C455 C 0.39165 0.05439 0.34076 0.0
N456 N 0.32752 0.03043 0.32448 0.0
C457 C 0.36957 0.0386 0.32494 0.0
O458 O 0.31145 0.04967 0.40053 0.0
C459 C 0.33582 1.0159 0.39605 0.0
O460 O 0.37005 1.02311 0.3895 0.0
H461 H 0.31193 0.05761 0.36568 0.0
H462 H 0.4252 0.0606 0.34173 0.0
C463 C 0.30259 0.13264 0.44061 0.0
C464 C 0.31816 0.14848 0.45753 0.0
C465 C 0.37465 0.1866 0.44725 0.0
C466 C 0.3593 0.17069 0.43064 0.0
N467 N 0.32354 0.14422 0.42756 0.0
N468 N 0.35391 0.1751 0.46022 0.0
H469 H 0.27489 0.1105 0.43774 0.0
C470 C 0.48332 0.06878 0.3917 0.0
O471 O 0.46658 0.07091 0.40629 0.0
O472 O 0.24344 0.13208 0.39946 0.0
H473 H 0.37623 0.17912 0.4203 0.0
H474 H 0.27298 0.03057 0.33787 0.0
H475 H 0.40306 0.20767 0.44984 0.0
Zn476 Zn 0.70915 0.6437 0.12301 0.0
C477 C 0.64743 0.73711 0.15383 0.0
N478 N 0.67425 0.76666 0.1485 0.0
C479 C 0.69869 0.73758 0.13906 0.0
N480 N 0.68768 0.69274 0.13863 0.0
N481 N 0.65636 0.69175 0.14845 0.0
C482 C 0.57874 0.58873 0.14394 0.0
O483 O 0.60696 0.5807 0.13281 0.0
O484 O 0.77057 0.65232 0.12147 0.0
Zn485 Zn 0.64709 0.63987 0.16096 0.0
N486 N 0.67944 0.64235 0.10091 0.0
C487 C 0.61434 0.64103 0.08433 0.0
C488 C 0.63688 0.64169 0.09999 0.0
C489 C 0.70058 0.64296 0.08679 0.0
N490 N 0.63531 0.64172 0.07023 0.0
C491 C 0.67801 0.64302 0.07092 0.0
O492 O 0.6811 0.58059 0.15481 0.0
C493 C 0.70062 0.56066 0.14246 0.0
O494 O 0.70822 0.58131 0.1301 0.0
H495 H 0.62068 0.64182 0.11137 0.0
H496 H 0.73448 0.64304 0.08801 0.0
C497 C 0.64855 0.6382 0.19715 0.0
C498 C 0.6628 0.65263 0.21432 0.0
C499 C 0.70297 0.71323 0.20588 0.0
C500 C 0.68981 0.69791 0.18897 0.0
N501 N 0.66241 0.66123 0.18491 0.0
N502 N 0.68941 0.69023 0.21806 0.0
H503 H 0.62706 0.60895 0.1934 0.0
C504 C 0.79311 0.65199 0.13525 0.0
O505 O 0.77463 0.65339 0.14943 0.0
O506 O 0.58764 0.61706 0.15751 0.0
H507 H 0.70197 0.71476 0.17916 0.0
H508 H 0.58042 0.64026 0.08337 0.0
H509 H 0.7245 0.74261 0.2093 0.0
Zn510 Zn 0.19118 0.9283 0.89989 0.0
C511 C 0.08492 0.97156 0.87765 0.0
N512 N 0.06975 0.93045 0.88052 0.0
C513 C 0.10446 0.90858 0.88552 0.0
N514 N 0.13947 0.935 0.88588 0.0
N515 N 0.1272 0.97437 0.88052 0.0
C516 C 0.1583 0.09595 0.89177 0.0
O517 O 0.17259 0.06653 0.90178 0.0
O518 O 0.20519 0.86007 0.89881 0.0
Zn519 Zn 0.16243 1.01323 0.86954 0.0
N520 N 0.17949 0.95407 0.92316 0.0
C521 C 0.13875 1.00872 0.94007 0.0
C522 C 0.15095 0.98891 0.92433 0.0
C523 C 0.1961 0.93767 0.93739 0.0
N524 N 0.15508 0.99252 0.95417 0.0
C525 C 0.18343 0.95739 0.95348 0.0
O526 O 0.22579 1.00909 0.87495 0.0
C527 C 0.25374 0.98971 0.8837 0.0
O528 O 0.24369 0.96035 0.8932 0.0
H529 H 0.1371 1.00092 0.91308 0.0
H530 H 0.21781 0.90902 0.93608 0.0
C531 C 0.15209 1.02121 0.83319 0.0
C532 C 0.14464 1.00189 0.81587 0.0
C533 C 0.13555 0.92697 0.82404 0.0
C534 C 0.1436 0.94603 0.84098 0.0
N535 N 0.15138 0.99266 0.8453 0.0
N536 N 0.13638 0.95513 0.81197 0.0
H537 H 0.15822 0.05813 0.83711 0.0
C538 C 0.20927 0.83466 0.88462 0.0
O539 O 0.20232 0.8529 0.87058 0.0
O540 O 0.14884 0.08057 0.87619 0.0
H541 H 0.14383 0.92367 0.85067 0.0
H542 H 0.11608 0.03649 0.94109 0.0
H543 H 0.12909 0.88995 0.82045 0.0
H544 H 0.07136 0.39567 0.11884 0.0
H545 H 0.10009 0.33396 0.16412 0.0
H546 H 0.99987 0.36341 0.11648 0.0
H547 H 0.02868 0.3028 0.16212 0.0
H548 H 0.90797 0.23751 0.15611 0.0
H549 H 0.94769 0.31108 0.15949 0.0
H550 H 0.98945 0.27314 0.10927 0.0
H551 H 0.9506 0.1994 0.10618 0.0
C552 C 0.06156 0.37768 0.12886 0.0
C553 C 0.09094 0.36756 0.14176 0.0
C554 C 0.02077 0.35889 0.12743 0.0
C555 C 1.00868 0.33036 0.13905 0.0
C556 C 0.03677 0.32507 0.15307 0.0
C557 C 0.07772 0.34296 0.15427 0.0
C558 C 0.92336 0.2464 0.14539 0.0
C559 C 0.92616 0.21303 0.13085 0.0
C560 C 0.94652 0.28829 0.1474 0.0
C561 C 0.97222 0.29756 0.13476 0.0
C562 C 0.9698 0.26722 0.11921 0.0
C563 C 0.94728 0.22501 0.11735 0.0
H564 H 0.99077 0.87833 0.41546 0.0
H565 H 0.90603 0.83083 0.37169 0.0
H566 H 0.02224 0.80127 0.41328 0.0
H567 H 0.93832 0.75367 0.3691 0.0
H568 H 0.07946 0.70413 0.35521 0.0
H569 H 1.01449 0.74613 0.36022 0.0
H570 H 0.02008 0.71145 0.41101 0.0
H571 H 0.08484 0.66873 0.40578 0.0
C572 C 0.97721 0.85047 0.406 0.0
C573 C 0.9458 0.86029 0.39385 0.0
C574 C 0.99539 0.80629 0.40465 0.0
C575 C 0.98315 0.77149 0.39086 0.0
C576 C 0.94847 0.7798 0.37982 0.0
C577 C 0.92964 0.8238 0.38143 0.0
C578 C 0.06533 0.70301 0.36704 0.0
C579 C 0.08676 0.68264 0.38 0.0
C580 C 0.02815 0.72724 0.36997 0.0
C581 C 1.01234 0.73254 0.3861 0.0
C582 C 0.03149 0.70799 0.39848 0.0
C583 C 0.06831 0.68305 0.39541 0.0
H584 H 0.45115 0.66732 0.60938 0.0
H585 H 0.42643 0.71792 0.66105 0.0
H586 H 0.4924 0.73779 0.60851 0.0
H587 H 0.46766 0.78864 0.66032 0.0
H588 H 0.5801 0.85517 0.61101 0.0
H589 H 0.50878 0.82492 0.61207 0.0
H590 H 0.54598 0.77985 0.66011 0.0
H591 H 0.6169 0.8094 0.65879 0.0
C592 C 0.45212 0.69506 0.62014 0.0
C593 C 0.43541 0.68745 0.63522 0.0
C594 C 0.47607 0.73541 0.61973 0.0
C595 C 0.48406 0.7684 0.63449 0.0
C596 C 0.46244 0.76365 0.64881 0.0
C597 C 0.43829 0.72344 0.64915 0.0
C598 C 0.57223 0.8409 0.62217 0.0
C599 C 0.60363 0.83487 0.63492 0.0
C600 C 0.53157 0.82323 0.62271 0.0
C601 C 0.52172 0.79967 0.6361 0.0
C602 C 0.55223 0.79825 0.6497 0.0
C603 C 0.59293 0.81517 0.649 0.0
H604 H 0.45268 0.37349 0.87125 0.0
H605 H 0.37912 0.24596 0.86172 0.0
H606 H 0.51432 0.33014 0.86215 0.0
H607 H 0.4413 0.20208 0.85353 0.0
H608 H 0.57725 0.16998 0.88242 0.0
H609 H 0.50617 0.19746 0.87698 0.0
H610 H 0.54792 0.26957 0.83765 0.0
H611 H 0.61854 0.23898 0.84232 0.0
C612 C 0.44906 0.33685 0.86628 0.0
C613 C 0.411 0.31342 0.86699 0.0
C614 C 0.4845 0.31174 0.86129 0.0
C615 C 0.48248 0.26272 0.85725 0.0
C616 C 0.44363 0.2398 0.85661 0.0
C617 C 0.40813 0.265 0.86129 0.0
C618 C 0.57047 0.18835 0.8717 0.0
C619 C 0.6029 0.20062 0.86232 0.0
C620 C 0.52998 0.20499 0.86879 0.0
C621 C 0.52169 0.23566 0.85689 0.0
C622 C 0.55352 0.2458 0.84682 0.0
C623 C 0.59374 0.22809 0.84944 0.0
H624 H 0.92406 0.73173 0.86249 0.0
H625 H 0.95594 0.69334 0.91186 0.0
H626 H 0.99494 0.76255 0.8621 0.0
H627 H 0.02726 0.72393 0.9116 0.0
H628 H 0.08378 0.87999 0.91449 0.0
H629 H 0.04301 0.80896 0.91475 0.0
H630 H 0.07267 0.75872 0.86346 0.0
H631 H 0.11333 0.83025 0.86334 0.0
C632 C 0.94705 0.72759 0.87283 0.0
C633 C 0.93492 0.70965 0.88707 0.0
C634 C 0.98775 0.74528 0.87267 0.0
C635 C 1.01678 0.74617 0.88692 0.0
C636 C 1.00564 0.72401 0.90048 0.0
C637 C 0.96498 0.70604 0.90056 0.0
C638 C 0.0839 0.85234 0.90373 0.0
C639 C 0.10189 0.8603 0.88897 0.0
C640 C 0.06023 0.81162 0.90378 0.0
C641 C 0.05378 0.77855 0.88895 0.0
C642 C 0.07658 0.78379 0.87499 0.0
C643 C 0.10045 0.82443 0.87501 0.0
H644 H 0.15936 0.2991 0.66214 0.0
H645 H 0.0867 0.17106 0.6514 0.0
H646 H 0.09598 0.34259 0.66891 0.0
H647 H 0.02384 0.21391 0.65907 0.0
H648 H 0.96453 0.37324 0.6366 0.0
H649 H 0.03497 0.34715 0.6443 0.0
H650 H 0.98572 0.27353 0.68178 0.0
H651 H 0.91559 0.3024 0.67477 0.0
C652 C 0.13024 0.27985 0.66209 0.0
C653 C 0.12803 0.2314 0.65639 0.0
C654 C 0.09403 0.30483 0.66593 0.0
C655 C 0.05509 0.28164 0.66444 0.0
C656 C 0.05362 0.23257 0.66056 0.0
C657 C 0.08979 0.20771 0.65641 0.0
C658 C 0.96933 0.35469 0.64737 0.0
C659 C 0.93501 0.3414 0.65553 0.0
C660 C 1.00951 0.33896 0.65161 0.0
C661 C 1.01568 0.30826 0.66364 0.0
C662 C 0.98179 0.29731 0.67254 0.0
C663 C 0.94182 0.31401 0.66857 0.0
H664 H 0.4377 0.20382 0.35602 0.0
H665 H 0.45609 0.17107 0.40686 0.0
H666 H 0.50501 0.24532 0.35979 0.0
H667 H 0.52347 0.21309 0.41084 0.0
H668 H 0.61725 0.33109 0.36892 0.0
H669 H 0.5842 0.25387 0.3672 0.0
H670 H 0.52377 0.30191 0.41295 0.0
H671 H 0.556 0.3789 0.41433 0.0
C672 C 0.4574 0.20313 0.36764 0.0
C673 C 0.44207 0.18371 0.38104 0.0
C674 C 0.49597 0.22708 0.36987 0.0
C675 C 0.51942 0.233 0.38571 0.0
C676 C 0.5061 0.20924 0.39852 0.0
C677 C 0.46775 0.18467 0.39617 0.0
C678 C 0.59896 0.32411 0.37916 0.0
C679 C 0.58934 0.36067 0.39184 0.0
C680 C 0.57962 0.28009 0.37805 0.0
C681 C 0.55093 0.2719 0.3898 0.0
C682 C 0.54592 0.3068 0.40376 0.0
C683 C 0.56458 0.35097 0.40465 0.0
H684 H 0.44754 0.89853 0.14008 0.0
H685 H 0.40232 0.84551 0.18304 0.0
H686 H 0.51632 0.86507 0.14599 0.0
H687 H 0.4704 0.80925 0.18826 0.0
H688 H 0.64169 0.81879 0.17483 0.0
H689 H 0.57736 0.86245 0.17979 0.0
H690 H 0.50393 0.74187 0.15611 0.0
H691 H 0.56835 0.69874 0.15034 0.0
C692 C 0.45311 0.88246 0.15142 0.0
C693 C 0.42017 0.87643 0.16153 0.0
C694 C 0.4921 0.86224 0.15455 0.0
C695 C 0.49829 0.83458 0.16754 0.0
C696 C 0.46628 0.83067 0.17825 0.0
C697 C 0.42761 0.85178 0.17535 0.0
C698 C 0.61179 0.80093 0.17127 0.0
C699 C 0.61005 0.75509 0.16231 0.0
C700 C 0.57511 0.82606 0.17406 0.0
C701 C 0.53603 0.80543 0.16828 0.0
C702 C 0.53393 0.7582 0.16082 0.0
C703 C 0.57075 0.73321 0.15777 0.0
H704 H 0.25163 0.0612 0.11213 0.0
H705 H 0.37011 0.11747 0.13628 0.0
H706 H 0.22774 0.13953 0.10975 0.0
H707 H 0.34677 0.19636 0.13331 0.0
H708 H 0.19067 0.28017 0.1006 0.0
H709 H 0.22918 0.20707 0.0975 0.0
H710 H 0.30224 0.255 0.14473 0.0
H711 H 0.26477 0.32876 0.14718 0.0
C712 C 0.27307 0.09022 0.11663 0.0
C713 C 0.31289 0.08251 0.12446 0.0
C714 C 0.25938 0.1356 0.11515 0.0
C715 C 0.28511 0.17514 0.1213 0.0
C716 C 0.32558 0.16728 0.12861 0.0
C717 C 0.3392 0.12176 0.1302 0.0
C718 C 0.2165 0.27591 0.10982 0.0
C719 C 0.22538 0.31076 0.12389 0.0
C720 C 0.23802 0.23341 0.10831 0.0
C721 C 0.2684 0.22392 0.12109 0.0
C722 C 0.27944 0.26049 0.13451 0.0
C723 C 0.25821 0.30328 0.13587 0.0
H724 H 1.01094 0.95979 0.35406 0.0
H725 H 0.96706 0.05511 0.39543 0.0
H726 H 0.07113 1.01108 0.35337 0.0
H727 H 0.02544 0.10825 0.39414 0.0
H728 H 0.16896 0.12784 0.4083 0.0
H729 H 0.09665 0.1005 0.40381 0.0
H730 H 0.10529 0.08213 0.34953 0.0
H731 H 0.17842 0.10839 0.35408 0.0
C732 C 1.01292 0.99314 0.36233 0.0
C733 C 0.98352 1.00432 0.37438 0.0
C734 C 0.04746 1.02264 0.36198 0.0
C735 C 0.05351 0.06379 0.37382 0.0
C736 C 0.02209 0.07669 0.38495 0.0
C737 C 0.98779 0.04691 0.38537 0.0
C738 C 0.15528 0.11892 0.39539 0.0
C739 C 0.17978 0.11962 0.38157 0.0
C740 C 0.11351 0.10349 0.39278 0.0
C741 C 0.09502 0.0886 0.37627 0.0
C742 C 0.11867 0.09254 0.36241 0.0
C743 C 0.16058 0.10785 0.36503 0.0
H744 H 0.33434 0.78324 0.66399 0.0
H745 H 0.28955 0.74808 0.61123 0.0
H746 H 0.30597 0.8615 0.66444 0.0
H747 H 0.25952 0.82533 0.61181 0.0
H748 H 0.21079 0.97936 0.6647 0.0
H749 H 0.24254 0.90264 0.66438 0.0
H750 H 0.27448 0.90473 0.6129 0.0
H751 H 0.24109 0.98005 0.61303 0.0
C752 C 0.31829 0.79222 0.6525 0.0
C753 C 0.31415 0.75948 0.63758 0.0
C754 C 0.30171 0.83701 0.65278 0.0
C755 C 0.28013 0.84995 0.63819 0.0
C756 C 0.27647 0.81714 0.62323 0.0
C757 C 0.29354 0.77263 0.6229 0.0
C758 C 0.22448 0.96321 0.65332 0.0
C759 C 0.22292 0.98543 0.63883 0.0
C760 C 0.24302 0.91937 0.65315 0.0
C761 C 0.26105 0.89711 0.63857 0.0
C762 C 0.2601 0.92003 0.62422 0.0
C763 C 0.24102 0.9634 0.6243 0.0
H764 H 0.50064 0.07461 0.8545 0.0
H765 H 0.52316 0.04535 0.90578 0.0
H766 H 0.42627 0.0547 0.85496 0.0
H767 H 0.44933 1.02695 0.90647 0.0
H768 H 0.32363 0.95068 0.89805 0.0
H769 H 0.39718 0.97025 0.89648 0.0
H770 H 0.36098 0.077 0.86599 0.0
H771 H 0.28737 0.05639 0.86715 0.0
C772 C 0.48979 0.0642 0.8659 0.0
C773 C 0.51828 0.06133 0.88004 0.0
C774 C 0.44693 0.05298 0.86623 0.0
C775 C 0.43127 0.03862 0.88072 0.0
C776 C 0.45987 0.03666 0.89491 0.0
C777 C 0.50249 0.04769 0.89456 0.0
C778 C 0.33123 0.97833 0.89099 0.0
C779 C 0.29914 1.00187 0.88277 0.0
C780 C 0.37368 0.98987 0.89016 0.0
C781 C 0.38564 1.02559 0.88117 0.0
C782 C 0.35347 0.04894 0.87287 0.0
C783 C 0.31099 0.03725 0.87364 0.0
H784 H 0.37435 0.93227 0.38505 0.0
H785 H 0.26519 0.98662 0.40937 0.0
H786 H 0.34878 0.85252 0.38509 0.0
H787 H 0.23926 0.90746 0.40909 0.0
H788 H 0.20542 0.76285 0.41588 0.0
H789 H 0.24461 0.83656 0.41996 0.0
H790 H 0.29729 0.7961 0.3719 0.0
H791 H 0.2588 0.72164 0.36824 0.0
C792 C 0.34506 0.9274 0.39055 0.0
C793 C 0.3221 0.96654 0.39726 0.0
C794 C 0.33012 0.88135 0.39046 0.0
C795 C 0.29171 0.87266 0.39712 0.0
C796 C 0.26927 0.91193 0.4041 0.0
C797 C 0.28414 0.95782 0.40417 0.0
C798 C 0.2271 0.76857 0.40662 0.0
C799 C 0.23006 0.7352 0.39204 0.0
C800 C 0.24889 0.81166 0.40872 0.0
C801 C 0.27391 0.82348 0.39614 0.0
C802 C 0.27887 0.78877 0.38202 0.0
C803 C 0.25708 0.74551 0.37997 0.0
H804 H 0.54971 1.01459 0.60558 0.0
H805 H 0.52439 0.9454 0.64812 0.0
H806 H 0.47929 0.04658 0.60528 0.0
H807 H 0.45363 0.97634 0.64754 0.0
H808 H 0.35173 0.08385 0.65535 0.0
H809 H 0.42185 0.05178 0.65441 0.0
H810 H 0.40561 1.02572 0.59961 0.0
H811 H 0.33573 0.05905 0.60053 0.0
C812 C 0.52889 1.00571 0.61471 0.0
C813 C 0.54262 0.97793 0.62699 0.0
C814 C 0.48853 1.02392 0.61451 0.0
C815 C 0.46109 1.01441 0.62651 0.0
C816 C 0.4744 0.98519 0.63838 0.0
C817 C 0.51481 0.96724 0.63866 0.0
C818 C 0.36323 0.07161 0.64309 0.0
C819 C 0.33824 0.07389 0.62802 0.0
C820 C 0.40326 0.05284 0.64256 0.0
C821 C 0.41906 0.0357 0.62694 0.0
C822 C 0.39441 0.03893 0.61183 0.0
C823 C 0.35438 0.05795 0.61236 0.0
H824 H 0.17748 0.13992 0.92416 0.0
H825 H 0.14937 0.16658 0.87276 0.0
H826 H 0.20607 0.21897 0.93215 0.0
H827 H 0.17891 0.24438 0.88046 0.0
H828 H 0.25173 0.36323 0.88775 0.0
H829 H 0.19112 0.3209 0.89429 0.0
H830 H 0.27286 0.2419 0.92479 0.0
H831 H 0.33249 0.28838 0.91957 0.0
C832 C 0.17633 0.16309 0.91468 0.0
C833 C 0.16269 0.14661 0.89768 0.0
C834 C 0.19276 0.20838 0.91926 0.0
C835 C 0.19612 0.23765 0.90688 0.0
C836 C 0.17706 0.22308 0.89043 0.0
C837 C 0.16035 0.17803 0.8859 0.0
C838 C 0.25604 0.3402 0.89716 0.0
C839 C 0.29642 0.33021 0.90362 0.0
C840 C 0.22145 0.31466 0.90051 0.0
C841 C 0.22712 0.27694 0.90963 0.0
C842 C 0.26701 0.27069 0.91773 0.0
C843 C 0.30143 0.29712 0.91469 0.0
H844 H 0.15105 0.93951 0.11304 0.0
H845 H 0.17363 0.95846 0.1676 0.0
H846 H 0.08019 0.96895 0.11589 0.0
H847 H 0.10244 0.98661 0.17049 0.0
H848 H 1.00715 0.10701 0.16597 0.0
H849 H 0.06838 0.05732 0.16641 0.0
H850 H 1.01007 0.96254 0.12405 0.0
H851 H 0.94943 1.01382 0.12337 0.0
C852 C 0.14058 0.94884 0.12565 0.0
C853 C 0.16834 0.94711 0.14008 0.0
C854 C 0.09972 0.96557 0.12731 0.0
C855 C 0.08543 0.98078 0.14345 0.0
C856 C 0.11244 0.97619 0.15786 0.0
C857 C 0.15331 0.95975 0.15619 0.0
C858 C 1.00674 0.07448 0.15725 0.0
C859 C 0.97298 0.06354 0.14499 0.0
C860 C 0.04197 0.04591 0.15742 0.0
C861 C 0.04461 1.00581 0.14517 0.0
C862 C 1.00947 0.99329 0.13358 0.0
C863 C 0.97414 1.02201 0.13344 0.0
H864 H 0.82802 0.80079 0.92642 0.0
H865 H 0.76416 0.74355 0.87839 0.0
H866 H 0.78931 0.87319 0.92623 0.0
H867 H 0.72699 0.81678 0.87749 0.0
H868 H 0.66018 0.95587 0.88007 0.0
H869 H 0.68114 0.87786 0.88542 0.0
H870 H 0.79625 0.93657 0.91223 0.0
H871 H 0.77457 1.01392 0.9075 0.0
C872 C 0.80434 0.8031 0.91613 0.0
C873 C 0.79856 0.76618 0.9026 0.0
C874 C 0.7828 0.84514 0.91576 0.0
C875 C 0.75579 0.85201 0.90155 0.0
C876 C 0.74728 0.81333 0.8887 0.0
C877 C 0.76832 0.77088 0.88926 0.0
C878 C 0.68977 0.9521 0.88726 0.0
C879 C 0.71558 0.99153 0.89333 0.0
C880 C 0.70196 0.90716 0.89028 0.0
C881 C 0.74048 0.90021 0.89937 0.0
C882 C 0.76589 0.93994 0.90557 0.0
C883 C 0.75357 0.9847 0.90269 0.0
H884 H 0.05144 0.048 0.67137 0.0
H885 H 0.04093 0.03635 0.61667 0.0
H886 H 0.98822 0.99984 0.67005 0.0
H887 H 0.97712 0.98977 0.61535 0.0
H888 H 0.88096 0.87953 0.61498 0.0
H889 H 0.95094 0.91501 0.61924 0.0
H890 H 0.91452 1.00465 0.66384 0.0
H891 H 0.84545 0.96805 0.65999 0.0
C892 C 0.03538 0.03552 0.65908 0.0
C893 C 0.05103 0.04601 0.64412 0.0
C894 C 0.9992 1.00791 0.65832 0.0
C895 C 0.97776 0.99059 0.64259 0.0
C896 C 0.99337 1.00152 0.62766 0.0
C897 C 0.02969 1.02872 0.62841 0.0
C898 C 0.88828 0.90603 0.62592 0.0
C899 C 0.85752 0.92146 0.637 0.0
C900 C 0.92821 0.9267 0.62827 0.0
C901 C 0.93803 0.9634 0.64167 0.0
C902 C 0.90815 0.9764 0.65343 0.0
C903 C 0.86839 0.95546 0.65117 0.0
H904 H 0.77127 0.34664 0.36265 0.0
H905 H 0.72977 0.29514 0.40675 0.0
H906 H 0.82831 0.29087 0.36152 0.0
H907 H 0.78583 0.23855 0.40531 0.0
H908 H 0.87173 0.13396 0.35313 0.0
H909 H 0.83522 0.20758 0.35468 0.0
H910 H 0.86124 0.2313 0.40919 0.0
H911 H 0.89653 0.15646 0.4077 0.0
C912 C 0.77406 0.32303 0.37198 0.0
C913 C 0.74599 0.32493 0.38474 0.0
C914 C 0.80687 0.29138 0.37139 0.0
C915 C 0.81196 0.26089 0.38347 0.0
C916 C 0.78353 0.26256 0.39611 0.0
C917 C 0.75098 0.2944 0.39678 0.0
C918 C 0.87096 0.15559 0.3654 0.0
C919 C 0.88555 0.13888 0.38037 0.0
C920 C 0.85005 0.19792 0.36628 0.0
C921 C 0.84409 0.22427 0.38213 0.0
C922 C 0.86414 0.21073 0.39686 0.0
C923 C 0.88462 0.16814 0.396 0.0
H924 H 0.7067 0.11522 0.12082 0.0
H925 H 0.74261 1.01839 0.15538 0.0
H926 H 0.63335 0.09396 0.12173 0.0
H927 H 0.66904 0.9962 0.15598 0.0
H928 H 0.52717 1.00006 0.16529 0.0
H929 H 0.6017 1.02028 0.16544 0.0
H930 H 0.58406 0.03299 0.11221 0.0
H931 H 0.51009 1.0141 0.11219 0.0
C932 C 0.69908 0.08918 0.12857 0.0
C933 C 0.731 0.06858 0.13798 0.0
C934 C 0.65676 0.07667 0.12902 0.0
C935 C 0.64476 0.04294 0.13884 0.0
C936 C 0.67668 1.0226 0.14839 0.0
C937 C 0.7191 0.0352 0.14796 0.0
C938 C 0.53928 1.00709 0.15362 0.0
C939 C 0.51225 1.00574 0.13877 0.0
C940 C 0.58219 1.01852 0.15367 0.0
C941 C 0.5993 1.02894 0.13887 0.0
C942 C 0.57226 1.02641 0.12398 0.0
C943 C 0.5296 1.01511 0.12394 0.0
H944 H 0.82401 0.2628 0.60483 0.0
H945 H 0.77089 0.2966 0.65289 0.0
H946 H 0.78866 0.18674 0.60022 0.0
H947 H 0.73729 0.21982 0.64897 0.0
H948 H 0.67415 0.07794 0.63808 0.0
H949 H 0.69149 0.15955 0.63716 0.0
H950 H 0.80001 0.11621 0.61008 0.0
H951 H 0.78146 0.03481 0.61038 0.0
C952 C 0.80294 0.25496 0.61402 0.0
C953 C 0.79917 0.28657 0.62897 0.0
C954 C 0.7836 0.21052 0.61166 0.0
C955 C 0.76071 0.19588 0.62439 0.0
C956 C 0.75419 0.2292 0.63872 0.0
C957 C 0.77312 0.27381 0.64094 0.0
C958 C 0.70158 0.08582 0.63182 0.0
C959 C 0.72642 0.04945 0.62436 0.0
C960 C 0.71171 0.13291 0.63134 0.0
C961 C 0.74736 0.14536 0.62357 0.0
C962 C 0.77181 0.10873 0.6159 0.0
C963 C 0.76137 0.06166 0.61619 0.0
H964 H 0.73951 0.97724 0.41052 0.0
H965 H 0.74838 0.04875 0.36721 0.0
H966 H 0.66566 0.99628 0.41103 0.0
H967 H 0.67432 0.06901 0.36799 0.0
H968 H 0.52909 0.05304 0.36351 0.0
H969 H 0.60422 0.03812 0.36264 0.0
H970 H 0.61782 0.05683 0.41743 0.0
H971 H 0.54298 0.07032 0.41823 0.0
C972 C 0.72592 0.9976 0.40121 0.0
C973 C 0.75035 1.01148 0.38885 0.0
C974 C 0.6833 1.00879 0.40154 0.0
C975 C 0.6635 0.03447 0.38959 0.0
C976 C 0.68802 0.04872 0.37729 0.0
C977 C 0.73076 0.03737 0.37692 0.0
C978 C 0.54816 0.05409 0.37537 0.0
C979 C 0.52964 0.06247 0.39093 0.0
C980 C 0.59146 0.04577 0.37488 0.0
C981 C 0.61754 0.04572 0.38996 0.0
C982 C 0.59898 0.0554 0.40551 0.0
C983 C 0.55583 0.0635 0.40598 0.0
H984 H 0.91091 0.91038 0.14719 0.0
H985 H 0.82721 0.93231 0.10412 0.0
H986 H 0.88666 0.82934 0.14392 0.0
H987 H 0.80083 0.85343 0.10162 0.0
H988 H 0.72569 0.73521 0.10721 0.0
H989 H 0.78915 0.77389 0.1003 0.0
H990 H 0.82335 0.81405 0.15408 0.0
H991 H 0.76184 0.77401 0.16053 0.0
C992 C 0.88808 0.89756 0.13679 0.0
C993 C 0.86932 0.9281 0.12646 0.0
C994 C 0.87406 0.85119 0.13491 0.0
C995 C 0.83993 0.83556 0.12318 0.0
C996 C 0.82651 0.86405 0.11106 0.0
C997 C 0.84136 0.90988 0.11262 0.0
C998 C 0.7478 0.75123 0.11738 0.0
C999 C 0.73905 0.75284 0.13434 0.0
C1000 C 0.78403 0.77338 0.1135 0.0
C1001 C 0.8112 0.79815 0.12658 0.0
C1002 C 0.80384 0.79534 0.14355 0.0
C1003 C 0.76806 0.7731 0.14734 0.0
H1004 H 0.07955 0.05732 0.89678 0.0
H1005 H 0.02199 0.96857 0.85299 0.0
H1006 H 0.01847 0.10818 0.8971 0.0
H1007 H 0.96046 1.01776 0.8535 0.0
H1008 H 0.85483 0.11567 0.85359 0.0
H1009 H 0.9261 0.0883 0.85048 0.0
H1010 H 0.94815 0.10181 0.90502 0.0
H1011 H 0.87703 0.13077 0.90809 0.0
C1012 C 0.05479 0.05009 0.88669 0.0
C1013 C 0.05616 1.00985 0.87451 0.0
C1014 C 0.01918 0.07853 0.88712 0.0
C1015 C 0.984 0.06712 0.87543 0.0
C1016 C 0.98685 1.02841 0.86259 0.0
C1017 C 0.02231 1.00011 0.86221 0.0
C1018 C 0.87512 0.11365 0.86495 0.0
C1019 C 0.85996 0.12507 0.88109 0.0
C1020 C 0.91606 0.09761 0.86316 0.0
C1021 C 0.94306 0.09194 0.87746 0.0
C1022 C 0.92865 0.10597 0.89367 0.0
C1023 C 0.88767 0.12249 0.89546 0.0
H1024 H 0.76541 0.53132 0.61141 0.0
H1025 H 0.87789 0.58759 0.64086 0.0
H1026 H 0.74428 0.60932 0.60735 0.0
H1027 H 0.85747 0.66633 0.63621 0.0
H1028 H 0.77271 0.79899 0.6444 0.0
H1029 H 0.8103 0.72581 0.64456 0.0
H1030 H 0.75251 0.67485 0.59447 0.0
H1031 H 0.71333 0.7472 0.59497 0.0
C1032 C 0.78613 0.56031 0.6168 0.0
C1033 C 0.82337 0.55279 0.62655 0.0
C1034 C 0.77414 0.60544 0.61431 0.0
C1035 C 0.79913 0.64486 0.62131 0.0
C1036 C 0.83699 0.63724 0.63074 0.0
C1037 C 0.84887 0.5919 0.63336 0.0
C1038 C 0.76967 0.77292 0.63312 0.0
C1039 C 0.74064 0.77908 0.61956 0.0
C1040 C 0.79098 0.73054 0.63323 0.0
C1041 C 0.78384 0.69334 0.61971 0.0
C1042 C 0.75798 0.70177 0.60539 0.0
C1043 C 0.73619 0.74379 0.60544 0.0
H1044 H 0.66975 0.63114 0.86349 0.0
H1045 H 0.66929 0.64003 0.91794 0.0
H1046 H 0.60029 0.59444 0.86003 0.0
H1047 H 0.60108 0.60168 0.9145 0.0
H1048 H 0.4676 0.55207 0.90452 0.0
H1049 H 0.52894 0.60294 0.90677 0.0
H1050 H 0.57393 0.51914 0.86251 0.0
H1051 H 0.51129 0.46953 0.85982 0.0
C1052 C 0.65453 0.6259 0.87472 0.0
C1053 C 0.67513 0.638 0.89096 0.0
C1054 C 0.61497 0.60439 0.87274 0.0
C1055 C 0.59544 0.59418 0.88695 0.0
C1056 C 0.61495 0.60921 0.90325 0.0
C1057 C 0.65422 0.63121 0.90524 0.0
C1058 C 0.49065 0.54447 0.89528 0.0
C1059 C 0.4849 0.50664 0.88206 0.0
C1060 C 0.52584 0.57365 0.89658 0.0
C1061 C 0.55646 0.56522 0.88484 0.0
C1062 C 0.5506 0.52729 0.87158 0.0
C1063 C 0.51499 0.49849 0.87013 0.0
H1064 H 0.67964 0.49461 0.16206 0.0
H1065 H 0.75958 0.51868 0.12293 0.0
H1066 H 0.70653 0.41503 0.16089 0.0
H1067 H 0.78691 0.44061 0.12211 0.0
H1068 H 0.79304 0.28355 0.11041 0.0
H1069 H 0.76474 0.36191 0.11258 0.0
H1070 H 0.76884 0.37056 0.16713 0.0
H1071 H 0.7961 0.29133 0.16491 0.0
C1072 C 0.70303 0.48307 0.15331 0.0
C1073 C 0.71702 0.51282 0.14246 0.0
C1074 C 0.71859 0.43761 0.15268 0.0
C1075 C 0.74858 0.42122 0.14126 0.0
C1076 C 0.7631 0.45152 0.13075 0.0
C1077 C 0.74746 0.49652 0.13128 0.0
C1078 C 0.78804 0.30216 0.12288 0.0
C1079 C 0.79693 0.28123 0.13748 0.0
C1080 C 0.77192 0.34723 0.12414 0.0
C1081 C 0.76464 0.3727 0.14005 0.0
C1082 C 0.77357 0.35175 0.15467 0.0
C1083 C 0.78951 0.30647 0.1534 0.0
H1084 H 0.7752 0.54878 0.3644 0.0
H1085 H 0.8015 0.47663 0.4075 0.0
H1086 H 0.84989 0.56767 0.3646 0.0
H1087 H 0.87573 0.49452 0.40748 0.0
H1088 H 0.99368 0.54978 0.35972 0.0
H1089 H 0.91797 0.53526 0.35897 0.0
H1090 H 0.92598 0.55607 0.41377 0.0
H1091 H 1.00115 0.56935 0.41447 0.0
C1092 C 0.79678 0.53696 0.37394 0.0
C1093 C 0.7819 0.51132 0.386 0.0
C1094 C 0.83982 0.54753 0.37398 0.0
C1095 C 0.8693 0.53288 0.38609 0.0
C1096 C 0.85425 0.50729 0.39812 0.0
C1097 C 0.8114 0.49676 0.39809 0.0
C1098 C 0.97922 0.55136 0.37159 0.0
C1099 C 1.00387 0.56028 0.38714 0.0
C1100 C 0.93564 0.54325 0.37118 0.0
C1101 C 0.91547 0.54389 0.38631 0.0
C1102 C 0.94016 0.5541 0.40182 0.0
C1103 C 0.98352 0.56205 0.40222 0.0
H1104 H 0.75581 0.50678 0.90775 0.0
H1105 H 0.86161 0.46689 0.87869 0.0
H1106 H 0.73812 0.42472 0.90737 0.0
H1107 H 0.84519 0.38477 0.87891 0.0
H1108 H 0.71721 0.27602 0.91138 0.0
H1109 H 0.75127 0.35292 0.91639 0.0
H1110 H 0.7991 0.32512 0.86682 0.0
H1111 H 0.76667 0.24777 0.86242 0.0
C1112 C 0.77569 0.48051 0.90145 0.0
C1113 C 0.80996 0.49383 0.89312 0.0
C1114 C 0.76578 0.43309 0.90137 0.0
C1115 C 0.79011 0.39725 0.89312 0.0
C1116 C 0.82506 0.4108 0.88516 0.0
C1117 C 0.83465 0.4582 0.88508 0.0
C1118 C 0.73723 0.28525 0.90205 0.0
C1119 C 0.74031 0.255 0.88672 0.0
C1120 C 0.75582 0.33014 0.90467 0.0
C1121 C 0.77737 0.34643 0.89187 0.0
C1122 C 0.78326 0.31444 0.87713 0.0
C1123 C 0.76499 0.2695 0.87462 0.0
H1124 H 0.83608 0.62354 0.10739 0.0
H1125 H 0.85059 0.65087 0.1622 0.0
H1126 H 0.90485 0.58793 0.10699 0.0
H1127 H 0.92004 0.61657 0.16178 0.0
H1128 H 1.01231 0.49676 0.156 0.0
H1129 H 0.94623 0.53847 0.15588 0.0
H1130 H 0.97905 0.59923 0.11234 0.0
H1131 H 0.04443 0.55639 0.11214 0.0
C1132 C 0.8544 0.62301 0.11934 0.0
C1133 C 0.83773 0.63949 0.13484 0.0
C1134 C 0.89388 0.60259 0.11911 0.0
C1135 C 0.91763 0.59863 0.13437 0.0
C1136 C 0.90204 0.61794 0.14982 0.0
C1137 C 0.86244 0.63805 0.15005 0.0
C1138 C 1.00525 0.51881 0.14635 0.0
C1139 C 0.03352 0.5233 0.13409 0.0
C1140 C 0.9676 0.5431 0.14638 0.0
C1141 C 0.95758 0.57266 0.13422 0.0
C1142 C 0.98564 0.57651 0.1218 0.0
C1143 C 0.02313 0.55195 0.1217 0.0
H1144 H 0.73717 0.85746 0.36843 0.0
H1145 H 0.80685 0.79343 0.40724 0.0
H1146 H 0.67799 0.80486 0.3693 0.0
H1147 H 0.74849 0.74005 0.40774 0.0
H1148 H 0.64436 0.65553 0.41268 0.0
H1149 H 0.67708 0.73255 0.41504 0.0
H1150 H 0.66502 0.72296 0.36037 0.0
H1151 H 0.63094 0.64731 0.35807 0.0
C1152 C 0.73997 0.83182 0.37702 0.0
C1153 C 0.77672 0.829 0.38763 0.0
C1154 C 0.70596 0.80208 0.37762 0.0
C1155 C 0.70832 0.76881 0.38875 0.0
C1156 C 0.74515 0.76623 0.39938 0.0
C1157 C 0.77893 0.79618 0.39888 0.0
C1158 C 0.64718 0.67078 0.40123 0.0
C1159 C 0.63692 0.64477 0.38517 0.0
C1160 C 0.66611 0.7147 0.40257 0.0
C1161 C 0.67526 0.73267 0.38786 0.0
C1162 C 0.65889 0.70982 0.37195 0.0
C1163 C 0.63949 0.6662 0.37062 0.0
H1164 H 0.65817 0.41587 0.61302 0.0
H1165 H 0.68947 0.44062 0.66709 0.0
H1166 H 0.5871 0.44325 0.61742 0.0
H1167 H 0.61813 0.46558 0.67167 0.0
H1168 H 0.51862 0.58071 0.67024 0.0
H1169 H 0.58058 0.53256 0.6689 0.0
H1170 H 0.51926 0.43945 0.62673 0.0
H1171 H 0.45801 0.48988 0.62768 0.0
C1172 C 0.64945 0.42575 0.62588 0.0
C1173 C 0.67961 0.42657 0.63968 0.0
C1174 C 0.60852 0.44138 0.62846 0.0
C1175 C 0.59658 0.45758 0.64494 0.0
C1176 C 0.62614 0.45482 0.65876 0.0
C1177 C 0.6671 0.44007 0.65615 0.0
C1178 C 0.51777 0.54885 0.66115 0.0
C1179 C 0.4829 0.53836 0.64941 0.0
C1180 C 0.55349 0.52105 0.66031 0.0
C1181 C 0.55554 0.48185 0.6476 0.0
C1182 C 0.51932 0.46954 0.63657 0.0
C1183 C 0.48354 0.49767 0.6374 0.0
H1184 H 0.33512 0.26396 0.41772 0.0
H1185 H 0.26703 0.22232 0.36925 0.0
H1186 H 0.29714 0.33746 0.42128 0.0
H1187 H 0.22962 0.29631 0.37238 0.0
H1188 H 0.1564 0.43123 0.38391 0.0
H1189 H 0.18228 0.352 0.38447 0.0
H1190 H 0.29818 0.40889 0.41094 0.0
H1191 H 0.27193 0.48762 0.41074 0.0
C1192 C 0.31062 0.26963 0.40813 0.0
C1193 C 0.30319 0.23623 0.39347 0.0
C1194 C 0.28942 0.31254 0.40995 0.0
C1195 C 0.26044 0.3241 0.397 0.0
C1196 C 0.25119 0.28927 0.38278 0.0
C1197 C 0.27238 0.24624 0.38102 0.0
C1198 C 0.18722 0.42693 0.39007 0.0
C1199 C 0.2118 0.46652 0.39732 0.0
C1200 C 0.20233 0.38113 0.39027 0.0
C1201 C 0.24264 0.37306 0.39774 0.0
C1202 C 0.26676 0.41279 0.4053 0.0
C1203 C 0.25168 0.45846 0.4051 0.0
H1204 H 0.35509 0.43764 0.16032 0.0
H1205 H 0.35313 0.42976 0.10582 0.0
H1206 H 0.42468 0.47381 0.16335 0.0
H1207 H 0.42192 0.46718 0.10889 0.0
H1208 H 0.55785 0.51408 0.11965 0.0
H1209 H 0.49544 0.46442 0.11692 0.0
H1210 H 0.44847 0.55091 0.16013 0.0
H1211 H 0.51156 0.59973 0.16319 0.0
C1212 C 0.36981 0.44287 0.14898 0.0
C1213 C 0.34841 0.4315 0.13286 0.0
C1214 C 0.40947 0.46403 0.15073 0.0
C1215 C 0.42835 0.47439 0.1364 0.0
C1216 C 0.4083 0.45965 0.12019 0.0
C1217 C 0.36878 0.43819 0.11843 0.0
C1218 C 0.53412 0.5226 0.12854 0.0
C1219 C 0.53954 0.56085 0.14163 0.0
C1220 C 0.49837 0.49409 0.12697 0.0
C1221 C 0.46716 0.50344 0.13839 0.0
C1222 C 0.47239 0.5421 0.15136 0.0
C1223 C 0.50829 0.57042 0.153 0.0
H1224 H 0.24314 0.79311 0.91089 0.0
H1225 H 0.20976 0.76656 0.85689 0.0
H1226 H 0.27198 0.71528 0.90972 0.0
H1227 H 0.23715 0.68759 0.85577 0.0
H1228 H 0.28711 0.56074 0.90654 0.0
H1229 H 0.2539 0.6359 0.90633 0.0
H1230 H 0.30049 0.64503 0.85755 0.0
H1231 H 0.33228 0.56814 0.85748 0.0
C1232 C 0.24141 0.77036 0.89879 0.0
C1233 C 0.22423 0.78609 0.88398 0.0
C1234 C 0.25779 0.72549 0.89811 0.0
C1235 C 0.25691 0.69482 0.88264 0.0
C1236 C 0.23904 0.71037 0.86786 0.0
C1237 C 0.22304 0.75556 0.86851 0.0
C1238 C 0.2904 0.57882 0.89578 0.0
C1239 C 0.31289 0.55887 0.88214 0.0
C1240 C 0.27143 0.62211 0.89568 0.0
C1241 C 0.27496 0.64714 0.88206 0.0
C1242 C 0.29678 0.62669 0.86821 0.0
C1243 C 0.31528 0.5828 0.86819 0.0
H1244 H 0.03567 0.4688 0.66703 0.0
H1245 H 1.0164 0.49919 0.61578 0.0
H1246 H 0.11018 0.48949 0.66744 0.0
H1247 H 0.09028 0.51831 0.61596 0.0
H1248 H 0.21508 0.59538 0.62555 0.0
H1249 H 0.14146 0.57534 0.62657 0.0
H1250 H 0.17665 0.46848 0.65715 0.0
H1251 H 0.25041 0.48962 0.65654 0.0
C1252 C 0.04725 0.47964 0.65583 0.0
C1253 C 0.01961 0.48261 0.64144 0.0
C1254 C 0.09019 0.49131 0.656 0.0
C1255 C 0.10678 0.50623 0.64178 0.0
C1256 C 0.07903 0.50824 0.62734 0.0
C1257 C 0.03635 0.49678 0.62719 0.0
C1258 C 0.20726 0.56764 0.63253 0.0
C1259 C 0.23913 0.54419 0.64091 0.0
C1260 C 0.16476 0.5558 0.63303 0.0
C1261 C 0.15247 0.51983 0.64184 0.0
C1262 C 0.18439 0.49668 0.65038 0.0
C1263 C 0.22696 0.50868 0.64994 0.0
H1264 H 0.31066 0.79916 0.1121 0.0
H1265 H 0.25512 0.83051 0.15971 0.0
H1266 H 0.27738 0.72193 0.10721 0.0
H1267 H 0.22343 0.75282 0.15549 0.0
H1268 H 0.16174 0.61067 0.14383 0.0
H1269 H 0.17868 0.69239 0.14321 0.0
H1270 H 0.28871 0.65069 0.11688 0.0
H1271 H 0.2705 0.56884 0.11689 0.0
C1272 C 0.28946 0.79057 0.12111 0.0
C1273 C 0.28442 0.82192 0.13602 0.0
C1274 C 0.27132 0.74542 0.1186 0.0
C1275 C 0.24819 0.7299 0.1311 0.0
C1276 C 0.2405 0.76282 0.14539 0.0
C1277 C 0.25835 0.80799 0.14778 0.0
C1278 C 0.18949 0.61885 0.13783 0.0
C1279 C 0.21484 0.58276 0.13051 0.0
C1280 C 0.19939 0.66607 0.13752 0.0
C1281 C 0.23534 0.67908 0.13006 0.0
C1282 C 0.26033 0.64276 0.1225 0.0
C1283 C 0.25011 0.59546 0.12263 0.0
H1284 H 0.20392 0.50274 0.86765 0.0
H1285 H 0.18374 0.44919 0.91405 0.0
H1286 H 0.13508 0.53782 0.86781 0.0
H1287 H 0.11366 0.4826 0.91387 0.0
H1288 H 1.00784 0.58778 0.91753 0.0
H1289 H 0.07821 0.55534 0.91794 0.0
H1290 H 0.06341 0.51784 0.86333 0.0
H1291 H 0.99421 0.55199 0.86291 0.0
C1292 C 0.18433 0.49773 0.87772 0.0
C1293 C 0.19889 0.47298 0.89077 0.0
C1294 C 0.14482 0.51779 0.87781 0.0
C1295 C 0.11871 0.5129 0.89081 0.0
C1296 C 0.13322 0.48766 0.90381 0.0
C1297 C 0.17313 0.46816 0.90385 0.0
C1298 C 0.01987 0.57283 0.90564 0.0
C1299 C 0.99567 0.57243 0.8902 0.0
C1300 C 0.06 0.55393 0.90587 0.0
C1301 C 0.07643 0.53381 0.89067 0.0
C1302 C 0.0521 0.53374 0.87525 0.0
C1303 C 1.01232 0.55317 0.875 0.0
H1304 H 0.38877 0.37926 0.64954 0.0
H1305 H 0.35759 0.40893 0.5987 0.0
H1306 H 0.35836 0.3019 0.64161 0.0
H1307 H 0.32804 0.33034 0.59049 0.0
H1308 H 0.28655 0.18182 0.63378 0.0
H1309 H 0.34615 0.22572 0.6272 0.0
H1310 H 0.26191 0.30644 0.59837 0.0
H1311 H 0.2032 0.25874 0.60367 0.0
C1312 C 0.37686 0.3686 0.63646 0.0
C1313 C 0.37412 0.40072 0.62493 0.0
C1314 C 0.35965 0.3238 0.6318 0.0
C1315 C 0.33963 0.31013 0.61546 0.0
C1316 C 0.34219 0.3402 0.60329 0.0
C1317 C 0.35919 0.38521 0.608 0.0
C1318 C 0.2814 0.20565 0.62469 0.0
C1319 C 0.24058 0.2158 0.61878 0.0
C1320 C 0.31544 0.23208 0.62133 0.0
C1321 C 0.30882 0.27063 0.61269 0.0
C1322 C 0.26847 0.27704 0.60504 0.0
C1323 C 0.23459 0.24984 0.60812 0.0
H1324 H 0.56568 0.55272 0.39619 0.0
H1325 H 0.50606 0.46404 0.35283 0.0
H1326 H 0.50658 0.60555 0.39632 0.0
H1327 H 0.44536 0.515 0.35347 0.0
H1328 H 0.33992 0.61479 0.35599 0.0
H1329 H 0.41083 0.58782 0.35124 0.0
H1330 H 0.43848 0.59558 0.40538 0.0
H1331 H 0.36824 0.62357 0.41011 0.0
C1332 C 0.54102 0.54608 0.38605 0.0
C1333 C 0.54129 0.5055 0.37402 0.0
C1334 C 0.50644 0.57559 0.38642 0.0
C1335 C 0.47081 0.5644 0.37504 0.0
C1336 C 0.47234 0.52525 0.3623 0.0
C1337 C 0.50714 0.49598 0.36188 0.0
C1338 C 0.36145 0.61172 0.3669 0.0
C1339 C 0.34818 0.62084 0.38344 0.0
C1340 C 0.40208 0.59598 0.36416 0.0
C1341 C 0.4304 0.58898 0.37788 0.0
C1342 C 0.41787 0.601 0.39447 0.0
C1343 C 0.37733 0.61684 0.39721 0.0
H1344 H 0.26767 0.39829 0.9591 0.0
H1345 H 0.37221 0.47081 0.98954 0.0
H1346 H 0.23268 0.39279 0.98474 0.0
H1347 H 0.33699 0.46581 0.01514 0.0
H1348 H 0.28451 0.39984 0.05784 0.0
H1349 H 0.31841 0.40846 0.03225 0.0
H1350 H 0.19875 0.4382 1.00745 0.0
H1351 H 0.16471 0.42908 0.03298 0.0
C1352 C 0.28284 0.41394 0.9712 0.0
C1353 C 0.32265 0.4354 0.97223 0.0
C1354 C 0.26279 0.41066 0.98594 0.0
C1355 C 0.28204 0.42878 1.00204 0.0
C1356 C 0.32155 0.45077 1.003 0.0
C1357 C 0.34165 0.45385 0.9883 0.0
C1358 C 0.26545 0.40895 0.04706 0.0
C1359 C 0.22185 0.41427 0.04757 0.0
C1360 C 0.28493 0.41381 0.03233 0.0
C1361 C 0.26134 0.42415 0.01777 0.0
C1362 C 0.21781 0.4296 0.01833 0.0
C1363 C 0.19832 0.42455 0.03301 0.0
H1364 H 0.85822 0.12991 0.23644 0.0
H1365 H 0.8914 0.99526 0.20997 0.0
H1366 H 0.85394 0.09631 0.26231 0.0
H1367 H 0.88718 0.96158 0.23608 0.0
H1368 H 0.83817 0.91146 0.28344 0.0
H1369 H 0.83866 0.94225 0.25666 0.0
H1370 H 0.90313 0.06681 0.28277 0.0
H1371 H 0.90292 0.03629 0.30943 0.0
C1372 C 0.86453 0.09303 0.2361 0.0
C1373 C 0.87521 0.06539 0.22106 0.0
C1374 C 0.86222 0.07383 0.251 0.0
C1375 C 0.87068 1.0264 0.25134 0.0
C1376 C 0.88017 0.99822 0.2362 0.0
C1377 C 0.88246 1.01751 0.22121 0.0
C1378 C 0.85244 0.94547 0.28349 0.0
C1379 C 0.86975 0.97166 0.29874 0.0
C1380 C 0.85284 0.96299 0.26811 0.0
C1381 C 0.87061 1.00713 0.26758 0.0
C1382 C 0.88832 0.03311 0.28278 0.0
C1383 C 0.88799 1.01561 0.29815 0.0
H1384 H 0.35154 0.5264 0.53926 0.0
H1385 H 0.30459 0.65717 0.56401 0.0
H1386 H 0.3219 0.54375 0.51204 0.0
H1387 H 0.27446 0.6738 0.53669 0.0
H1388 H 0.18775 0.66032 0.48767 0.0
H1389 H 0.21812 0.64307 0.51474 0.0
H1390 H 0.33244 0.60001 0.49193 0.0
H1391 H 0.30244 0.61783 0.46468 0.0
C1392 C 0.33485 0.55883 0.53899 0.0
C1393 C 0.33026 0.59004 0.55403 0.0
C1394 C 0.31802 0.56878 0.5233 0.0
C1395 C 0.29591 0.61012 0.5222 0.0
C1396 C 0.29093 0.64131 0.53718 0.0
C1397 C 0.30804 0.63153 0.55291 0.0
C1398 C 0.21947 0.64731 0.48831 0.0
C1399 C 0.24238 0.6403 0.47379 0.0
C1400 C 0.23688 0.63757 0.50392 0.0
C1401 C 0.27768 0.62036 0.5055 0.0
C1402 C 0.30067 0.6128 0.49104 0.0
C1403 C 0.28331 0.62282 0.47536 0.0
H1404 H 0.65697 1.02112 0.70899 0.0
H1405 H 0.64028 0.87931 0.71797 0.0
H1406 H 0.63866 0.04988 0.73772 0.0
H1407 H 0.61936 0.90755 0.74633 0.0
H1408 H 0.66559 0.97162 0.80134 0.0
H1409 H 0.65626 0.9377 0.7716 0.0
H1410 H 0.59503 0.06355 0.75999 0.0
H1411 H 0.60664 0.09795 0.78988 0.0
C1412 C 0.64773 0.99621 0.71692 0.0
C1413 C 0.65029 0.94807 0.71136 0.0
C1414 C 0.63706 1.01259 0.73343 0.0
C1415 C 0.6281 0.9811 0.74462 0.0
C1416 C 0.6272 0.93294 0.73836 0.0
C1417 C 0.63877 0.91666 0.72204 0.0
C1418 C 0.64849 0.99107 0.79251 0.0
C1419 C 0.63618 0.03694 0.79787 0.0
C1420 C 0.64316 0.97177 0.77536 0.0
C1421 C 0.62529 0.99798 0.76315 0.0
C1422 C 0.6097 0.04259 0.76888 0.0
C1423 C 0.61555 0.06206 0.78605 0.0
H1424 H 0.85349 0.64393 0.99289 0.0
H1425 H 0.7339 0.673 0.96781 0.0
H1426 H 0.81965 0.63719 0.01859 0.0
H1427 H 0.70005 0.66655 0.99369 0.0
H1428 H 0.64831 0.60848 0.03855 0.0
H1429 H 0.68114 0.612 0.01225 0.0
H1430 H 0.78728 0.68638 0.0408 0.0
H1431 H 0.75472 0.68275 0.06706 0.0
C1432 C 0.81992 0.64891 0.99283 0.0
C1433 C 0.79653 0.6588 0.97817 0.0
C1434 C 0.80053 0.64524 1.00764 0.0
C1435 C 0.75713 0.65161 1.0083 0.0
C1436 C 0.73348 0.66084 0.99358 0.0
C1437 C 0.75293 0.66443 0.97869 0.0
C1438 C 0.67871 0.62553 0.03924 0.0
C1439 C 0.69906 0.64458 0.05502 0.0
C1440 C 0.69745 0.62773 0.02412 0.0
C1441 C 0.73697 0.64926 0.02437 0.0
C1442 C 0.75722 0.66862 0.04014 0.0
C1443 C 0.73853 0.66636 0.05526 0.0
H1444 H 0.11685 0.11048 0.71886 0.0
H1445 H 0.24261 0.14795 0.74038 0.0
H1446 H 0.10192 0.08059 0.74473 0.0
H1447 H 0.22817 0.11705 0.766 0.0
H1448 H 0.18474 0.08727 0.81534 0.0
H1449 H 0.19162 0.1268 0.7909 0.0
H1450 H 0.11851 1.01682 0.75913 0.0
H1451 H 0.10953 0.97876 0.78359 0.0
C1452 C 0.1415 0.11185 0.72901 0.0
C1453 C 0.18115 0.13107 0.72742 0.0
C1454 C 0.13292 0.09477 0.7439 0.0
C1455 C 0.16385 0.09616 0.75752 0.0
C1456 C 0.20326 0.11604 0.75597 0.0
C1457 C 0.21168 0.13349 0.74117 0.0
C1458 C 0.16912 0.072 0.80329 0.0
C1459 C 0.14641 1.02959 0.8016 0.0
C1460 C 0.17365 0.09444 0.78914 0.0
C1461 C 0.15591 0.07494 0.77293 0.0
C1462 C 0.13222 0.03337 0.77138 0.0
C1463 C 0.12745 1.01118 0.78548 0.0
H1464 H 0.74696 0.44786 0.56118 0.0
H1465 H 0.78759 0.31689 0.5343 0.0
H1466 H 0.7146 0.46782 0.53459 0.0
H1467 H 0.7554 0.337 0.50785 0.0
H1468 H 0.74072 0.41539 0.46184 0.0
H1469 H 0.7682 0.39238 0.48854 0.0
H1470 H 0.65796 0.44627 0.51223 0.0
H1471 H 0.63008 0.46911 0.48554 0.0
C1472 C 0.7483 0.42282 0.54974 0.0
C1473 C 0.76991 0.38059 0.55 0.0
C1474 C 0.72986 0.43441 0.53443 0.0
C1475 C 0.73272 0.40419 0.51903 0.0
C1476 C 0.75327 0.36151 0.5194 0.0
C1477 C 0.77157 0.34991 0.53463 0.0
C1478 C 0.72176 0.42162 0.47256 0.0
C1479 C 0.68274 0.44378 0.47131 0.0
C1480 C 0.73772 0.40853 0.48797 0.0
C1481 C 0.71529 0.41742 0.50257 0.0
C1482 C 0.67632 0.43939 0.50132 0.0
C1483 C 0.66029 0.45233 0.48593 0.0
H1484 H 0.35577 0.96597 0.29961 0.0
H1485 H 0.42673 0.09488 0.31322 0.0
H1486 H 0.37398 0.96115 0.27044 0.0
H1487 H 0.44528 0.09012 0.28379 0.0
H1488 H 0.3822 0.10217 0.22858 0.0
H1489 H 0.39803 0.10154 0.25879 0.0
H1490 H 0.4256 0.95441 0.24877 0.0
H1491 H 0.40953 0.95527 0.2183 0.0
C1492 C 0.37638 0.99259 0.29643 0.0
C1493 C 0.3896 0.03093 0.30865 0.0
C1494 C 0.38712 0.98966 0.27971 0.0
C1495 C 0.4109 1.02539 0.27471 0.0
C1496 C 0.4267 0.06215 0.28722 0.0
C1497 C 0.41635 0.06475 0.30409 0.0
C1498 C 0.39314 0.07007 0.23278 0.0
C1499 C 0.39449 1.02876 0.22112 0.0
C1500 C 0.40242 0.06973 0.25012 0.0
C1501 C 0.41269 1.02782 0.25626 0.0
C1502 C 0.41745 0.98719 0.24445 0.0
C1503 C 0.40863 0.98771 0.22699 0.0
H1504 H 0.82839 0.87849 0.45866 0.0
H1505 H 0.89072 0.99835 0.48946 0.0
H1506 H 0.79512 0.86073 0.48328 0.0
H1507 H 0.85753 0.98 0.51414 0.0
H1508 H 0.82156 0.90131 0.55763 0.0
H1509 H 0.85678 0.92071 0.53353 0.0
H1510 H 0.74153 0.89427 0.50157 0.0
H1511 H 0.70621 0.87526 0.52547 0.0
C1512 C 0.83462 0.90159 0.47055 0.0
C1513 C 0.86175 0.94057 0.47187 0.0
C1514 C 0.81563 0.89115 0.48475 0.0
C1515 C 0.82343 0.91914 0.50067 0.0
C1516 C 0.85111 0.95752 0.5021 0.0
C1517 C 0.87001 0.96808 0.48789 0.0
C1518 C 0.80344 0.90033 0.54558 0.0
C1519 C 0.76079 0.88683 0.54363 0.0
C1520 C 0.82377 0.91129 0.53171 0.0
C1521 C 0.80203 0.90871 0.51559 0.0
C1522 C 0.75942 0.89578 0.51372 0.0
C1523 C 0.73914 0.88501 0.52751 0.0
H1524 H 0.35154 0.46436 0.70969 0.0
H1525 H 0.44869 0.55661 0.73685 0.0
H1526 H 0.34693 0.42594 0.73467 0.0
H1527 H 0.44436 0.51797 0.76169 0.0
H1528 H 0.37952 0.48591 0.80811 0.0
H1529 H 0.39341 0.51665 0.78245 0.0
H1530 H 0.38211 0.3776 0.75389 0.0
H1531 H 0.36812 0.34652 0.77966 0.0
C1532 C 0.3727 0.47565 0.7208 0.0
C1533 C 0.40046 0.51366 0.72126 0.0
C1534 C 0.36999 0.45368 0.73516 0.0
C1535 C 0.39496 0.46924 0.75026 0.0
C1536 C 0.42406 0.50574 0.7504 0.0
C1537 C 0.42667 0.52774 0.73612 0.0
C1538 C 0.381 0.46153 0.79652 0.0
C1539 C 0.37316 0.4135 0.79608 0.0
C1540 C 0.38885 0.47928 0.78172 0.0
C1541 C 0.38899 0.44957 0.76609 0.0
C1542 C 0.38179 0.4015 0.76567 0.0
C1543 C 0.37393 0.38371 0.78048 0.0
H1544 H 0.77118 0.1573 0.0586 0.0
H1545 H 0.88687 0.1067 0.03839 0.0
H1546 H 0.7468 0.17689 0.03087 0.0
H1547 H 0.8625 0.12634 1.01082 0.0
H1548 H 0.78104 0.11087 0.95995 0.0
H1549 H 0.81014 0.09784 0.98789 0.0
H1550 H 0.75926 0.22872 1.01026 0.0
H1551 H 0.73011 0.24188 0.98237 0.0
C1552 C 0.79181 0.15119 0.04841 0.0
C1553 C 0.83109 0.13042 0.05082 0.0
C1554 C 0.77775 0.16231 0.03245 0.0
C1555 C 0.80259 0.15287 0.01856 0.0
C1556 C 0.84223 0.13328 0.02113 0.0
C1557 C 0.85624 0.12221 0.037 0.0
C1558 C 0.77682 0.13746 0.97071 0.0
C1559 C 0.75334 0.17763 0.9688 0.0
C1560 C 0.79339 0.12986 0.9868 0.0
C1561 C 0.78684 0.16214 1.00136 0.0
C1562 C 0.7643 0.20277 0.99938 0.0
C1563 C 0.74778 0.21038 0.98334 0.0
H1564 H 0.11351 0.48376 0.30274 0.0
H1565 H 0.15355 0.62691 0.305 0.0
H1566 H 0.10498 0.47527 0.27173 0.0
H1567 H 0.14449 0.61904 0.27404 0.0
H1568 H 0.21168 0.54721 0.22684 0.0
H1569 H 0.19235 0.57313 0.25553 0.0
H1570 H 0.07474 0.49707 0.24381 0.0
H1571 H 0.09439 0.47141 0.21473 0.0
C1572 C 0.11823 0.5141 0.29661 0.0
C1573 C 0.13368 0.55612 0.30618 0.0
C1574 C 0.11352 0.50927 0.27884 0.0
C1575 C 0.12465 0.54631 0.2704 0.0
C1576 C 0.13613 0.58971 0.28015 0.0
C1577 C 0.14086 0.59444 0.29787 0.0
C1578 C 0.18113 0.53727 0.23024 0.0
C1579 C 0.15441 0.50765 0.2186 0.0
C1580 C 0.16989 0.55225 0.24667 0.0
C1581 C 0.1319 0.53727 0.252 0.0
C1582 C 0.10419 0.50922 0.24008 0.0
C1583 C 0.11523 0.49484 0.22344 0.0
H1584 H 0.25647 0.07372 0.5552 0.0
H1585 H 0.15359 0.15701 0.53869 0.0
H1586 H 0.28842 0.07745 0.52873 0.0
H1587 H 0.18565 0.16083 0.51237 0.0
H1588 H 0.2344 0.12801 0.46046 0.0
H1589 H 0.20204 0.11495 0.48599 0.0
H1590 H 0.3227 0.13333 0.51459 0.0
H1591 H 0.35533 0.14452 0.48904 0.0
C1592 C 0.24086 0.09335 0.54609 0.0
C1593 C 0.20257 0.11557 0.54927 0.0
C1594 C 0.25914 0.09529 0.53083 0.0
C1595 C 0.23961 0.11939 0.51837 0.0
C1596 C 0.20125 0.14126 0.52151 0.0
C1597 C 0.18298 0.13928 0.53671 0.0
C1598 C 0.25428 0.12824 0.47206 0.0
C1599 C 0.29767 0.13715 0.47258 0.0
C1600 C 0.23556 0.12136 0.4868 0.0
C1601 C 0.25971 0.12327 0.5024 0.0
C1602 C 0.30315 0.13106 0.5028 0.0
C1603 C 0.32182 0.13794 0.48812 0.0
H1604 H 0.66616 0.68721 0.24801 0.0
H1605 H 0.63553 0.56058 0.21297 0.0
H1606 H 0.6566 0.64575 0.27167 0.0
H1607 H 0.62377 0.51993 0.23668 0.0
H1608 H 0.66203 0.44825 0.28288 0.0
H1609 H 0.66433 0.48988 0.2587 0.0
H1610 H 0.60826 0.60976 0.28698 0.0
H1611 H 0.60674 0.56837 0.31131 0.0
C1612 C 0.65669 0.65073 0.24527 0.0
C1613 C 0.65161 0.6276 0.22843 0.0
C1614 C 0.65081 0.62699 0.25892 0.0
C1615 C 0.63951 0.57935 0.25616 0.0
C1616 C 0.63305 0.55646 0.23932 0.0
C1617 C 0.63917 0.58017 0.22563 0.0
C1618 C 0.65007 0.48347 0.28394 0.0
C1619 C 0.63485 0.50512 0.29917 0.0
C1620 C 0.65111 0.50729 0.27 0.0
C1621 C 0.63651 0.55332 0.27082 0.0
C1622 C 0.62052 0.5747 0.28596 0.0
C1623 C 0.61976 0.55095 0.29997 0.0
H1624 H 0.24881 0.96154 0.06073 0.0
H1625 H 0.3017 0.83151 0.03838 0.0
H1626 H 0.22056 0.97472 0.03272 0.0
H1627 H 0.27349 0.84501 1.0104 0.0
H1628 H 0.25907 0.91598 0.96184 0.0
H1629 H 0.28455 0.89713 0.98959 0.0
H1630 H 0.1684 0.945 1.00988 0.0
H1631 H 0.14292 0.96378 0.98235 0.0
C1632 C 0.25376 0.9352 0.04998 0.0
C1633 C 0.27736 0.89514 0.05198 0.0
C1634 C 0.23766 0.94293 0.03383 0.0
C1635 C 0.24483 0.91097 0.01926 0.0
C1636 C 0.26789 0.87069 0.02129 0.0
C1637 C 0.28388 0.8629 0.0374 0.0
C1638 C 0.23861 0.92171 0.9721 0.0
C1639 C 0.19884 0.94148 0.96974 0.0
C1640 C 0.25331 0.91102 0.98807 0.0
C1641 C 0.22866 0.91995 1.00204 0.0
C1642 C 0.18858 0.93853 0.99953 0.0
C1643 C 0.17392 0.94913 0.98366 0.0
H1644 H 0.91099 0.55137 0.71611 0.0
H1645 H 0.87427 0.42376 0.73317 0.0
H1646 H 0.92218 0.58914 0.74571 0.0
H1647 H 0.88407 0.46119 0.76242 0.0
H1648 H 0.90301 0.53195 0.81496 0.0
H1649 H 0.92377 0.49767 0.78718 0.0
H1650 H 0.8726 0.61591 0.76576 0.0
H1651 H 0.8537 0.6511 0.79352 0.0
C1652 C 0.90672 0.53096 0.72618 0.0
C1653 C 0.89148 0.48475 0.72235 0.0
C1654 C 0.91256 0.5527 0.74314 0.0
C1655 C 0.90334 0.52854 0.75653 0.0
C1656 C 0.89183 0.48103 0.7526 0.0
C1657 C 0.88593 0.45952 0.73575 0.0
C1658 C 0.89734 0.55144 0.80449 0.0
C1659 C 0.87624 0.5943 0.80658 0.0
C1660 C 0.90892 0.53146 0.78845 0.0
C1661 C 0.89951 0.55367 0.77409 0.0
C1662 C 0.88085 0.59783 0.77644 0.0
C1663 C 0.86943 0.6178 0.79242 0.0
loop_
_geom_bond_atom_site_label_1
_geom_bond_atom_site_label_2
_geom_bond_distance
_geom_bond_site_symmetry_2
_ccdc_geom_bond_type
Zn0 N4 2.020 . S
Zn0 O8 2.019 . S
Zn0 N10 2.119 . S
Zn0 O18 1.975 . S
C1 N2 1.334 . S
C1 N5 1.336 . S
N2 C1 1.334 . S
N2 C3 1.334 . S
C3 N2 1.334 . S
C3 N4 1.336 . S
N4 Zn0 2.020 . S
N4 C3 1.336 . S
N4 N5 1.354 . S
N5 C1 1.336 . S
N5 N4 1.354 . S
N5 Zn9 2.020 . S
C6 O7 1.244 . S
C6 O30 1.257 . S
O7 C6 1.244 . S
O8 Zn0 2.019 . S
O8 C28 1.257 . S
Zn9 N5 2.020 . S
Zn9 O16 1.975 . S
Zn9 N25 2.119 . S
Zn9 O30 2.019 . S
N10 Zn0 2.119 . S
N10 C12 1.334 . S
N10 C13 1.328 . S
C11 C12 1.391 . S
C11 N14 1.329 . S
C11 H32 0.930 . S
C12 N10 1.334 . S
C12 C11 1.391 . S
C12 H19 0.930 . S
C13 N10 1.328 . S
C13 C15 1.392 . S
C13 H20 0.930 . S
N14 C11 1.329 . S
N14 C15 1.331 . S
C15 C13 1.392 . S
C15 N14 1.331 . S
O16 Zn9 1.975 . S
O16 C17 1.252 . S
C17 O16 1.252 . S
C17 O18 1.252 . S
O18 Zn0 1.975 . S
O18 C17 1.252 . S
H19 C12 0.930 . S
H20 C13 0.930 . S
C21 C22 1.392 . S
C21 N25 1.328 . S
C21 H27 0.930 . S
C22 C21 1.392 . S
C22 N26 1.331 . S
C23 C24 1.391 . S
C23 N26 1.329 . S
C23 H33 0.930 . S
C24 C23 1.391 . S
C24 N25 1.334 . S
C24 H31 0.930 . S
N25 Zn9 2.119 . S
N25 C21 1.328 . S
N25 C24 1.334 . S
N26 C22 1.331 . S
N26 C23 1.329 . S
H27 C21 0.930 . S
C28 O8 1.257 . S
C28 O29 1.244 . S
O29 C28 1.244 . S
O30 C6 1.257 . S
O30 Zn9 2.019 . S
H31 C24 0.930 . S
H32 C11 0.930 . S
H33 C23 0.930 . S
Zn34 N38 2.020 . S
Zn34 O42 2.019 1_565 S
Zn34 N44 2.119 . S
Zn34 O52 1.975 . S
C35 N36 1.334 . S
C35 N39 1.336 . S
N36 C35 1.334 . S
N36 C37 1.334 . S
C37 N36 1.334 . S
C37 N38 1.336 . S
N38 Zn34 2.020 . S
N38 C37 1.336 . S
N38 N39 1.354 . S
N39 C35 1.336 . S
N39 N38 1.354 . S
N39 Zn43 2.020 . S
C40 O41 1.244 . S
C40 O64 1.257 . S
O41 C40 1.244 . S
O42 Zn34 2.019 1_545 S
O42 C62 1.257 . S
Zn43 N39 2.020 . S
Zn43 O50 1.975 . S
Zn43 N59 2.119 . S
Zn43 O64 2.019 . S
N44 Zn34 2.119 . S
N44 C46 1.334 . S
N44 C47 1.328 . S
C45 C46 1.391 . S
C45 N48 1.329 . S
C45 H66 0.930 . S
C46 N44 1.334 . S
C46 C45 1.391 . S
C46 H53 0.930 . S
C47 N44 1.328 . S
C47 C49 1.392 . S
C47 H54 0.930 1_565 S
N48 C45 1.329 . S
N48 C49 1.331 . S
C49 C47 1.392 . S
C49 N48 1.331 . S
O50 Zn43 1.975 . S
O50 C51 1.252 . S
C51 O50 1.252 . S
C51 O52 1.252 . S
O52 Zn34 1.975 . S
O52 C51 1.252 . S
H53 C46 0.930 . S
H54 C47 0.930 1_545 S
C55 C56 1.392 . S
C55 N59 1.328 . S
C55 H61 0.930 . S
C56 C55 1.392 . S
C56 N60 1.331 . S
C57 C58 1.391 . S
C57 N60 1.329 . S
C57 H67 0.930 1_565 S
C58 C57 1.391 . S
C58 N59 1.334 . S
C58 H65 0.930 . S
N59 Zn43 2.119 . S
N59 C55 1.328 . S
N59 C58 1.334 . S
N60 C56 1.331 . S
N60 C57 1.329 . S
H61 C55 0.930 . S
C62 O42 1.257 . S
C62 O63 1.244 . S
O63 C62 1.244 . S
O64 C40 1.257 . S
O64 Zn43 2.019 . S
H65 C58 0.930 . S
H66 C45 0.930 . S
H67 C57 0.930 1_545 S
Zn68 N72 2.020 . S
Zn68 O76 2.019 . S
Zn68 N78 2.119 . S
Zn68 O86 1.975 . S
C69 N70 1.334 . S
C69 N73 1.336 . S
N70 C69 1.334 . S
N70 C71 1.334 . S
C71 N70 1.334 . S
C71 N72 1.336 . S
N72 Zn68 2.020 . S
N72 C71 1.336 . S
N72 N73 1.354 . S
N73 C69 1.336 . S
N73 N72 1.354 . S
N73 Zn77 2.020 . S
C74 O75 1.244 . S
C74 O98 1.257 . S
O75 C74 1.244 . S
O76 Zn68 2.019 . S
O76 C96 1.257 . S
Zn77 N73 2.020 . S
Zn77 O84 1.975 . S
Zn77 N93 2.119 . S
Zn77 O98 2.019 . S
N78 Zn68 2.119 . S
N78 C80 1.334 . S
N78 C81 1.328 . S
C79 C80 1.391 . S
C79 N82 1.329 . S
C79 H100 0.930 . S
C80 N78 1.334 . S
C80 C79 1.391 . S
C80 H87 0.930 . S
C81 N78 1.328 . S
C81 C83 1.392 . S
C81 H88 0.930 . S
N82 C79 1.329 . S
N82 C83 1.331 . S
C83 C81 1.392 . S
C83 N82 1.331 . S
O84 Zn77 1.975 . S
O84 C85 1.252 . S
C85 O84 1.252 . S
C85 O86 1.252 . S
O86 Zn68 1.975 . S
O86 C85 1.252 . S
H87 C80 0.930 . S
H88 C81 0.930 . S
C89 C90 1.392 . S
C89 N93 1.328 . S
C89 H95 0.930 . S
C90 C89 1.392 . S
C90 N94 1.331 . S
C91 C92 1.391 . S
C91 N94 1.329 . S
C91 H101 0.930 . S
C92 C91 1.391 . S
C92 N93 1.334 . S
C92 H99 0.930 . S
N93 Zn77 2.119 . S
N93 C89 1.328 . S
N93 C92 1.334 . S
N94 C90 1.331 . S
N94 C91 1.329 . S
H95 C89 0.930 . S
C96 O76 1.257 . S
C96 O97 1.244 . S
O97 C96 1.244 . S
O98 C74 1.257 . S
O98 Zn77 2.019 . S
H99 C92 0.930 . S
H100 C79 0.930 . S
H101 C91 0.930 . S
Zn102 N106 2.020 . S
Zn102 O110 2.019 . S
Zn102 N112 2.119 . S
Zn102 O120 1.975 . S
C103 N104 1.334 . S
C103 N107 1.336 . S
N104 C103 1.334 . S
N104 C105 1.334 . S
C105 N104 1.334 . S
C105 N106 1.336 . S
N106 Zn102 2.020 . S
N106 C105 1.336 . S
N106 N107 1.354 . S
N107 C103 1.336 . S
N107 N106 1.354 . S
N107 Zn111 2.020 . S
C108 O109 1.244 . S
C108 O132 1.257 . S
O109 C108 1.244 . S
O110 Zn102 2.019 . S
O110 C130 1.257 . S
Zn111 N107 2.020 . S
Zn111 O118 1.975 . S
Zn111 N127 2.119 . S
Zn111 O132 2.019 . S
N112 Zn102 2.119 . S
N112 C114 1.334 . S
N112 C115 1.328 . S
C113 C114 1.391 . S
C113 N116 1.329 . S
C113 H134 0.930 . S
C114 N112 1.334 . S
C114 C113 1.391 . S
C114 H121 0.930 . S
C115 N112 1.328 . S
C115 C117 1.392 . S
C115 H122 0.930 . S
N116 C113 1.329 . S
N116 C117 1.331 . S
C117 C115 1.392 . S
C117 N116 1.331 . S
O118 Zn111 1.975 . S
O118 C119 1.252 . S
C119 O118 1.252 . S
C119 O120 1.252 . S
O120 Zn102 1.975 . S
O120 C119 1.252 . S
H121 C114 0.930 . S
H122 C115 0.930 . S
C123 C124 1.392 . S
C123 N127 1.328 . S
C123 H129 0.930 . S
C124 C123 1.392 . S
C124 N128 1.331 . S
C125 C126 1.391 . S
C125 N128 1.329 . S
C125 H135 0.930 . S
C126 C125 1.391 . S
C126 N127 1.334 . S
C126 H133 0.930 . S
N127 Zn111 2.119 . S
N127 C123 1.328 . S
N127 C126 1.334 . S
N128 C124 1.331 . S
N128 C125 1.329 . S
H129 C123 0.930 . S
C130 O110 1.257 . S
C130 O131 1.244 . S
O131 C130 1.244 . S
O132 C108 1.257 . S
O132 Zn111 2.019 . S
H133 C126 0.930 . S
H134 C113 0.930 . S
H135 C125 0.930 . S
Zn136 N140 2.020 . S
Zn136 O144 2.019 . S
Zn136 N146 2.119 . S
Zn136 O154 1.975 . S
C137 N138 1.334 . S
C137 N141 1.336 . S
N138 C137 1.334 . S
N138 C139 1.334 . S
C139 N138 1.334 . S
C139 N140 1.336 . S
N140 Zn136 2.020 . S
N140 C139 1.336 . S
N140 N141 1.354 . S
N141 C137 1.336 . S
N141 N140 1.354 . S
N141 Zn145 2.020 . S
C142 O143 1.244 . S
C142 O166 1.257 . S
O143 C142 1.244 . S
O144 Zn136 2.019 . S
O144 C164 1.257 . S
Zn145 N141 2.020 . S
Zn145 O152 1.975 . S
Zn145 N161 2.119 . S
Zn145 O166 2.019 . S
N146 Zn136 2.119 . S
N146 C148 1.334 . S
N146 C149 1.328 . S
C147 C148 1.391 . S
C147 N150 1.329 . S
C147 H168 0.930 . S
C148 N146 1.334 . S
C148 C147 1.391 . S
C148 H155 0.930 . S
C149 N146 1.328 . S
C149 C151 1.392 . S
C149 H156 0.930 . S
N150 C147 1.329 . S
N150 C151 1.331 . S
C151 C149 1.392 . S
C151 N150 1.331 . S
O152 Zn145 1.975 . S
O152 C153 1.252 . S
C153 O152 1.252 . S
C153 O154 1.252 . S
O154 Zn136 1.975 . S
O154 C153 1.252 . S
H155 C148 0.930 . S
H156 C149 0.930 . S
C157 C158 1.392 . S
C157 N161 1.328 . S
C157 H163 0.930 . S
C158 C157 1.392 . S
C158 N162 1.331 . S
C159 C160 1.391 . S
C159 N162 1.329 . S
C159 H169 0.930 . S
C160 C159 1.391 . S
C160 N161 1.334 . S
C160 H167 0.930 . S
N161 Zn145 2.119 . S
N161 C157 1.328 . S
N161 C160 1.334 . S
N162 C158 1.331 . S
N162 C159 1.329 . S
H163 C157 0.930 . S
C164 O144 1.257 . S
C164 O165 1.244 . S
O165 C164 1.244 . S
O166 C142 1.257 . S
O166 Zn145 2.019 . S
H167 C160 0.930 . S
H168 C147 0.930 . S
H169 C159 0.930 . S
Zn170 N174 2.020 . S
Zn170 O178 2.019 . S
Zn170 N180 2.119 . S
Zn170 O188 1.975 . S
C171 N172 1.334 . S
C171 N175 1.336 . S
N172 C171 1.334 . S
N172 C173 1.334 . S
C173 N172 1.334 . S
C173 N174 1.336 . S
N174 Zn170 2.020 . S
N174 C173 1.336 . S
N174 N175 1.354 . S
N175 C171 1.336 . S
N175 N174 1.354 . S
N175 Zn179 2.020 . S
C176 O177 1.244 . S
C176 O200 1.257 . S
O177 C176 1.244 . S
O178 Zn170 2.019 . S
O178 C198 1.257 . S
Zn179 N175 2.020 . S
Zn179 O186 1.975 . S
Zn179 N195 2.119 . S
Zn179 O200 2.019 . S
N180 Zn170 2.119 . S
N180 C182 1.334 . S
N180 C183 1.328 . S
C181 C182 1.391 . S
C181 N184 1.329 . S
C181 H202 0.930 . S
C182 N180 1.334 . S
C182 C181 1.391 . S
C182 H189 0.930 . S
C183 N180 1.328 . S
C183 C185 1.392 . S
C183 H190 0.930 . S
N184 C181 1.329 . S
N184 C185 1.331 . S
C185 C183 1.392 . S
C185 N184 1.331 . S
O186 Zn179 1.975 . S
O186 C187 1.252 . S
C187 O186 1.252 . S
C187 O188 1.252 . S
O188 Zn170 1.975 . S
O188 C187 1.252 . S
H189 C182 0.930 . S
H190 C183 0.930 . S
C191 C192 1.392 . S
C191 N195 1.328 . S
C191 H197 0.930 . S
C192 C191 1.392 . S
C192 N196 1.331 . S
C193 C194 1.391 . S
C193 N196 1.329 . S
C193 H203 0.930 . S
C194 C193 1.391 . S
C194 N195 1.334 . S
C194 H201 0.930 . S
N195 Zn179 2.119 . S
N195 C191 1.328 . S
N195 C194 1.334 . S
N196 C192 1.331 . S
N196 C193 1.329 . S
H197 C191 0.930 . S
C198 O178 1.257 . S
C198 O199 1.244 . S
O199 C198 1.244 . S
O200 C176 1.257 . S
O200 Zn179 2.019 . S
H201 C194 0.930 . S
H202 C181 0.930 . S
H203 C193 0.930 . S
Zn204 N208 2.020 . S
Zn204 O212 2.019 . S
Zn204 N214 2.119 . S
Zn204 O222 1.975 . S
C205 N206 1.334 . S
C205 N209 1.336 . S
N206 C205 1.334 . S
N206 C207 1.334 . S
C207 N206 1.334 . S
C207 N208 1.336 . S
N208 Zn204 2.020 . S
N208 C207 1.336 . S
N208 N209 1.354 . S
N209 C205 1.336 . S
N209 N208 1.354 . S
N209 Zn213 2.020 . S
C210 O211 1.244 . S
C210 O234 1.257 . S
O211 C210 1.244 . S
O212 Zn204 2.019 . S
O212 C232 1.257 . S
Zn213 N209 2.020 . S
Zn213 O220 1.975 . S
Zn213 N229 2.119 . S
Zn213 O234 2.019 . S
N214 Zn204 2.119 . S
N214 C216 1.334 . S
N214 C217 1.328 . S
C215 C216 1.391 . S
C215 N218 1.329 . S
C215 H236 0.930 . S
C216 N214 1.334 . S
C216 C215 1.391 . S
C216 H223 0.930 . S
C217 N214 1.328 . S
C217 C219 1.392 . S
C217 H224 0.930 . S
N218 C215 1.329 . S
N218 C219 1.331 . S
C219 C217 1.392 . S
C219 N218 1.331 . S
O220 Zn213 1.975 . S
O220 C221 1.252 . S
C221 O220 1.252 . S
C221 O222 1.252 . S
O222 Zn204 1.975 . S
O222 C221 1.252 . S
H223 C216 0.930 . S
H224 C217 0.930 . S
C225 C226 1.392 . S
C225 N229 1.328 . S
C225 H231 0.930 . S
C226 C225 1.392 . S
C226 N230 1.331 . S
C227 C228 1.391 . S
C227 N230 1.329 . S
C227 H237 0.930 . S
C228 C227 1.391 . S
C228 N229 1.334 . S
C228 H235 0.930 . S
N229 Zn213 2.119 . S
N229 C225 1.328 . S
N229 C228 1.334 . S
N230 C226 1.331 . S
N230 C227 1.329 . S
H231 C225 0.930 . S
C232 O212 1.257 . S
C232 O233 1.244 . S
O233 C232 1.244 . S
O234 C210 1.257 . S
O234 Zn213 2.019 . S
H235 C228 0.930 . S
H236 C215 0.930 . S
H237 C227 0.930 . S
Zn238 N242 2.020 . S
Zn238 O246 2.019 . S
Zn238 N248 2.119 . S
Zn238 O256 1.975 . S
C239 N240 1.334 . S
C239 N243 1.336 . S
N240 C239 1.334 . S
N240 C241 1.334 . S
C241 N240 1.334 . S
C241 N242 1.336 . S
N242 Zn238 2.020 . S
N242 C241 1.336 . S
N242 N243 1.354 . S
N243 C239 1.336 . S
N243 N242 1.354 . S
N243 Zn247 2.020 . S
C244 O245 1.244 . S
C244 O268 1.257 . S
O245 C244 1.244 . S
O246 Zn238 2.019 . S
O246 C266 1.257 . S
Zn247 N243 2.020 . S
Zn247 O254 1.975 . S
Zn247 N263 2.119 . S
Zn247 O268 2.019 1_545 S
N248 Zn238 2.119 . S
N248 C250 1.334 . S
N248 C251 1.328 . S
C249 C250 1.391 . S
C249 N252 1.329 . S
C249 H270 0.930 . S
C250 N248 1.334 . S
C250 C249 1.391 . S
C250 H257 0.930 . S
C251 N248 1.328 . S
C251 C253 1.392 . S
C251 H258 0.930 . S
N252 C249 1.329 . S
N252 C253 1.331 . S
C253 C251 1.392 . S
C253 N252 1.331 . S
O254 Zn247 1.975 . S
O254 C255 1.252 . S
C255 O254 1.252 . S
C255 O256 1.252 . S
O256 Zn238 1.975 . S
O256 C255 1.252 . S
H257 C250 0.930 . S
H258 C251 0.930 . S
C259 C260 1.392 . S
C259 N263 1.328 . S
C259 H265 0.930 . S
C260 C259 1.392 . S
C260 N264 1.331 . S
C261 C262 1.391 . S
C261 N264 1.329 . S
C261 H271 0.930 . S
C262 C261 1.391 . S
C262 N263 1.334 . S
C262 H269 0.930 . S
N263 Zn247 2.119 . S
N263 C259 1.328 . S
N263 C262 1.334 . S
N264 C260 1.331 . S
N264 C261 1.329 . S
H265 C259 0.930 . S
C266 O246 1.257 . S
C266 O267 1.244 . S
O267 C266 1.244 . S
O268 C244 1.257 . S
O268 Zn247 2.019 1_565 S
H269 C262 0.930 . S
H270 C249 0.930 . S
H271 C261 0.930 . S
Zn272 N276 2.020 . S
Zn272 O280 2.019 . S
Zn272 N282 2.119 . S
Zn272 O290 1.975 . S
C273 N274 1.334 . S
C273 N277 1.336 . S
N274 C273 1.334 . S
N274 C275 1.334 . S
C275 N274 1.334 . S
C275 N276 1.336 . S
N276 Zn272 2.020 . S
N276 C275 1.336 . S
N276 N277 1.354 . S
N277 C273 1.336 . S
N277 N276 1.354 . S
N277 Zn281 2.020 . S
C278 O279 1.244 . S
C278 O302 1.257 . S
O279 C278 1.244 . S
O280 Zn272 2.019 . S
O280 C300 1.257 . S
Zn281 N277 2.020 . S
Zn281 O288 1.975 . S
Zn281 N297 2.119 . S
Zn281 O302 2.019 . S
N282 Zn272 2.119 . S
N282 C284 1.334 . S
N282 C285 1.328 . S
C283 C284 1.391 . S
C283 N286 1.329 . S
C283 H304 0.930 . S
C284 N282 1.334 . S
C284 C283 1.391 . S
C284 H291 0.930 . S
C285 N282 1.328 . S
C285 C287 1.392 . S
C285 H292 0.930 . S
N286 C283 1.329 . S
N286 C287 1.331 . S
C287 C285 1.392 . S
C287 N286 1.331 . S
O288 Zn281 1.975 . S
O288 C289 1.252 . S
C289 O288 1.252 . S
C289 O290 1.252 . S
O290 Zn272 1.975 . S
O290 C289 1.252 . S
H291 C284 0.930 . S
H292 C285 0.930 . S
C293 C294 1.392 . S
C293 N297 1.328 . S
C293 H299 0.930 . S
C294 C293 1.392 . S
C294 N298 1.331 . S
C295 C296 1.391 . S
C295 N298 1.329 . S
C295 H305 0.930 . S
C296 C295 1.391 . S
C296 N297 1.334 . S
C296 H303 0.930 . S
N297 Zn281 2.119 . S
N297 C293 1.328 . S
N297 C296 1.334 . S
N298 C294 1.331 . S
N298 C295 1.329 . S
H299 C293 0.930 . S
C300 O280 1.257 . S
C300 O301 1.244 . S
O301 C300 1.244 . S
O302 C278 1.257 . S
O302 Zn281 2.019 . S
H303 C296 0.930 . S
H304 C283 0.930 . S
H305 C295 0.930 . S
Zn306 N310 2.020 . S
Zn306 O314 2.019 . S
Zn306 N316 2.119 . S
Zn306 O324 1.967 1_545 S
C307 N308 1.334 . S
C307 N311 1.336 . S
N308 C307 1.334 . S
N308 C309 1.334 . S
C309 N308 1.334 . S
C309 N310 1.336 . S
N310 Zn306 2.020 . S
N310 C309 1.336 . S
N310 N311 1.354 . S
N311 C307 1.336 . S
N311 N310 1.354 . S
N311 Zn315 2.020 . S
C312 O313 1.244 . S
C312 O336 1.257 . S
O313 C312 1.244 . S
O314 Zn306 2.019 . S
O314 C334 1.257 . S
Zn315 N311 2.020 . S
Zn315 O322 1.975 1_545 S
Zn315 N331 2.119 . S
Zn315 O336 2.019 . S
N316 Zn306 2.119 . S
N316 C318 1.334 . S
N316 C319 1.328 . S
C317 C318 1.391 . S
C317 N320 1.329 . S
C317 H338 0.930 . S
C318 N316 1.334 . S
C318 C317 1.391 . S
C318 H325 0.930 . S
C319 N316 1.328 . S
C319 C321 1.392 . S
C319 H326 0.930 . S
N320 C317 1.329 . S
N320 C321 1.331 . S
C321 C319 1.392 . S
C321 N320 1.331 . S
O322 Zn315 1.975 1_565 S
O322 C323 1.252 . S
C323 O322 1.252 . S
C323 O324 1.258 . S
O324 Zn306 1.967 1_565 S
O324 C323 1.258 . S
H325 C318 0.930 . S
H326 C319 0.930 . S
C327 C328 1.392 . S
C327 N331 1.328 . S
C327 H333 0.930 . S
C328 C327 1.392 . S
C328 N332 1.331 . S
C329 C330 1.391 . S
C329 N332 1.329 . S
C329 H339 0.930 . S
C330 C329 1.391 . S
C330 N331 1.334 . S
C330 H337 0.930 . S
N331 Zn315 2.119 . S
N331 C327 1.328 . S
N331 C330 1.334 . S
N332 C328 1.331 . S
N332 C329 1.329 . S
H333 C327 0.930 . S
C334 O314 1.257 . S
C334 O335 1.244 . S
O335 C334 1.244 . S
O336 C312 1.257 . S
O336 Zn315 2.019 . S
H337 C330 0.930 . S
H338 C317 0.930 . S
H339 C329 0.930 . S
Zn340 N344 2.020 . S
Zn340 O348 2.019 . S
Zn340 N350 2.119 . S
Zn340 O358 1.975 . S
C341 N342 1.334 . S
C341 N345 1.336 . S
N342 C341 1.334 . S
N342 C343 1.334 . S
C343 N342 1.334 . S
C343 N344 1.336 . S
N344 Zn340 2.020 . S
N344 C343 1.336 . S
N344 N345 1.354 . S
N345 C341 1.336 . S
N345 N344 1.354 . S
N345 Zn349 2.020 . S
C346 O347 1.244 . S
C346 O370 1.257 . S
O347 C346 1.244 . S
O348 Zn340 2.019 . S
O348 C368 1.257 . S
Zn349 N345 2.020 . S
Zn349 O356 1.975 . S
Zn349 N365 2.119 . S
Zn349 O370 2.019 . S
N350 Zn340 2.119 . S
N350 C352 1.334 . S
N350 C353 1.328 . S
C351 C352 1.391 . S
C351 N354 1.329 . S
C351 H372 0.930 . S
C352 N350 1.334 . S
C352 C351 1.391 . S
C352 H359 0.930 . S
C353 N350 1.328 . S
C353 C355 1.392 . S
C353 H360 0.930 . S
N354 C351 1.329 . S
N354 C355 1.331 . S
C355 C353 1.392 . S
C355 N354 1.331 . S
O356 Zn349 1.975 . S
O356 C357 1.252 . S
C357 O356 1.252 . S
C357 O358 1.252 . S
O358 Zn340 1.975 . S
O358 C357 1.252 . S
H359 C352 0.930 . S
H360 C353 0.930 . S
C361 C362 1.392 . S
C361 N365 1.328 . S
C361 H367 0.930 . S
C362 C361 1.392 . S
C362 N366 1.331 . S
C363 C364 1.391 . S
C363 N366 1.329 . S
C363 H373 0.930 . S
C364 C363 1.391 . S
C364 N365 1.334 . S
C364 H371 0.930 . S
N365 Zn349 2.119 . S
N365 C361 1.328 . S
N365 C364 1.334 . S
N366 C362 1.331 . S
N366 C363 1.329 . S
H367 C361 0.930 . S
C368 O348 1.257 . S
C368 O369 1.244 . S
O369 C368 1.244 . S
O370 C346 1.257 . S
O370 Zn349 2.019 . S
H371 C364 0.930 . S
H372 C351 0.930 . S
H373 C363 0.930 . S
Zn374 N378 2.020 . S
Zn374 O382 2.019 . S
Zn374 N384 2.119 . S
Zn374 O392 1.975 . S
C375 N376 1.334 . S
C375 N379 1.336 . S
N376 C375 1.334 . S
N376 C377 1.334 . S
C377 N376 1.334 . S
C377 N378 1.336 . S
N378 Zn374 2.020 . S
N378 C377 1.336 . S
N378 N379 1.354 . S
N379 C375 1.336 . S
N379 N378 1.354 . S
N379 Zn383 2.020 . S
C380 O381 1.244 . S
C380 O404 1.257 . S
O381 C380 1.244 . S
O382 Zn374 2.019 . S
O382 C402 1.257 . S
Zn383 N379 2.020 . S
Zn383 O390 1.975 . S
Zn383 N399 2.119 . S
Zn383 O404 2.019 . S
N384 Zn374 2.119 . S
N384 C386 1.334 . S
N384 C387 1.328 . S
C385 C386 1.391 . S
C385 N388 1.329 . S
C385 H406 0.930 . S
C386 N384 1.334 . S
C386 C385 1.391 . S
C386 H393 0.930 . S
C387 N384 1.328 . S
C387 C389 1.392 . S
C387 H394 0.930 . S
N388 C385 1.329 . S
N388 C389 1.331 . S
C389 C387 1.392 . S
C389 N388 1.331 . S
O390 Zn383 1.975 . S
O390 C391 1.252 1_565 S
C391 O390 1.252 1_545 S
C391 O392 1.252 1_545 S
O392 Zn374 1.975 . S
O392 C391 1.252 1_565 S
H393 C386 0.930 . S
H394 C387 0.930 . S
C395 C396 1.392 . S
C395 N399 1.328 . S
C395 H401 0.930 . S
C396 C395 1.392 . S
C396 N400 1.331 . S
C397 C398 1.391 . S
C397 N400 1.329 . S
C397 H407 0.930 . S
C398 C397 1.391 . S
C398 N399 1.334 . S
C398 H405 0.930 . S
N399 Zn383 2.119 . S
N399 C395 1.328 . S
N399 C398 1.334 . S
N400 C396 1.331 . S
N400 C397 1.329 . S
H401 C395 0.930 . S
C402 O382 1.257 . S
C402 O403 1.244 . S
O403 C402 1.244 . S
O404 C380 1.257 . S
O404 Zn383 2.019 . S
H405 C398 0.930 . S
H406 C385 0.930 . S
H407 C397 0.930 . S
Zn408 N412 2.020 . S
Zn408 O416 2.019 . S
Zn408 N418 2.119 . S
Zn408 O426 1.975 . S
C409 N410 1.334 . S
C409 N413 1.336 . S
N410 C409 1.334 . S
N410 C411 1.334 . S
C411 N410 1.334 . S
C411 N412 1.336 . S
N412 Zn408 2.020 . S
N412 C411 1.336 . S
N412 N413 1.354 . S
N413 C409 1.336 . S
N413 N412 1.354 . S
N413 Zn417 2.020 . S
C414 O415 1.244 . S
C414 O438 1.257 . S
O415 C414 1.244 . S
O416 Zn408 2.019 . S
O416 C436 1.257 . S
Zn417 N413 2.020 . S
Zn417 O424 1.975 . S
Zn417 N433 2.119 . S
Zn417 O438 2.019 . S
N418 Zn408 2.119 . S
N418 C420 1.334 . S
N418 C421 1.328 . S
C419 C420 1.391 . S
C419 N422 1.329 . S
C419 H440 0.930 . S
C420 N418 1.334 . S
C420 C419 1.391 . S
C420 H427 0.930 . S
C421 N418 1.328 . S
C421 C423 1.392 . S
C421 H428 0.930 . S
N422 C419 1.329 . S
N422 C423 1.331 . S
C423 C421 1.392 . S
C423 N422 1.331 . S
O424 Zn417 1.975 . S
O424 C425 1.252 . S
C425 O424 1.252 . S
C425 O426 1.252 . S
O426 Zn408 1.975 . S
O426 C425 1.252 . S
H427 C420 0.930 . S
H428 C421 0.930 . S
C429 C430 1.392 . S
C429 N433 1.328 . S
C429 H435 0.930 . S
C430 C429 1.392 . S
C430 N434 1.331 . S
C431 C432 1.391 . S
C431 N434 1.329 . S
C431 H441 0.930 . S
C432 C431 1.391 . S
C432 N433 1.334 . S
C432 H439 0.930 . S
N433 Zn417 2.119 . S
N433 C429 1.328 . S
N433 C432 1.334 . S
N434 C430 1.331 . S
N434 C431 1.329 . S
H435 C429 0.930 . S
C436 O416 1.257 . S
C436 O437 1.244 . S
O437 C436 1.244 . S
O438 C414 1.257 . S
O438 Zn417 2.019 . S
H439 C432 0.930 . S
H440 C419 0.930 . S
H441 C431 0.930 . S
Zn442 N446 2.020 . S
Zn442 O450 2.019 . S
Zn442 N452 2.119 . S
Zn442 O460 1.975 . S
C443 N444 1.334 . S
C443 N447 1.336 . S
N444 C443 1.334 . S
N444 C445 1.334 . S
C445 N444 1.334 . S
C445 N446 1.336 . S
N446 Zn442 2.020 . S
N446 C445 1.336 . S
N446 N447 1.354 . S
N447 C443 1.336 . S
N447 N446 1.354 . S
N447 Zn451 2.020 . S
C448 O449 1.244 . S
C448 O472 1.257 . S
O449 C448 1.244 . S
O450 Zn442 2.019 . S
O450 C470 1.257 . S
Zn451 N447 2.020 . S
Zn451 O458 1.975 . S
Zn451 N467 2.119 . S
Zn451 O472 2.019 . S
N452 Zn442 2.119 . S
N452 C454 1.334 . S
N452 C455 1.328 . S
C453 C454 1.391 . S
C453 N456 1.329 . S
C453 H474 0.930 . S
C454 N452 1.334 . S
C454 C453 1.391 . S
C454 H461 0.930 . S
C455 N452 1.328 . S
C455 C457 1.392 . S
C455 H462 0.930 . S
N456 C453 1.329 . S
N456 C457 1.331 . S
C457 C455 1.392 . S
C457 N456 1.331 . S
O458 Zn451 1.975 . S
O458 C459 1.252 . S
C459 O458 1.252 . S
C459 O460 1.252 . S
O460 Zn442 1.975 . S
O460 C459 1.252 . S
H461 C454 0.930 . S
H462 C455 0.930 . S
C463 C464 1.392 . S
C463 N467 1.328 . S
C463 H469 0.930 . S
C464 C463 1.392 . S
C464 N468 1.331 . S
C465 C466 1.391 . S
C465 N468 1.329 . S
C465 H475 0.930 . S
C466 C465 1.391 . S
C466 N467 1.334 . S
C466 H473 0.930 . S
N467 Zn451 2.119 . S
N467 C463 1.328 . S
N467 C466 1.334 . S
N468 C464 1.331 . S
N468 C465 1.329 . S
H469 C463 0.930 . S
C470 O450 1.257 . S
C470 O471 1.244 . S
O471 C470 1.244 . S
O472 C448 1.257 . S
O472 Zn451 2.019 . S
H473 C466 0.930 . S
H474 C453 0.930 . S
H475 C465 0.930 . S
Zn476 N480 2.020 . S
Zn476 O484 2.019 . S
Zn476 N486 2.119 . S
Zn476 O494 1.975 . S
C477 N478 1.334 . S
C477 N481 1.336 . S
N478 C477 1.334 . S
N478 C479 1.334 . S
C479 N478 1.334 . S
C479 N480 1.336 . S
N480 Zn476 2.020 . S
N480 C479 1.336 . S
N480 N481 1.354 . S
N481 C477 1.336 . S
N481 N480 1.354 . S
N481 Zn485 2.020 . S
C482 O483 1.244 . S
C482 O506 1.257 . S
O483 C482 1.244 . S
O484 Zn476 2.019 . S
O484 C504 1.257 . S
Zn485 N481 2.020 . S
Zn485 O492 1.975 . S
Zn485 N501 2.119 . S
Zn485 O506 2.019 . S
N486 Zn476 2.119 . S
N486 C488 1.334 . S
N486 C489 1.328 . S
C487 C488 1.391 . S
C487 N490 1.329 . S
C487 H508 0.930 . S
C488 N486 1.334 . S
C488 C487 1.391 . S
C488 H495 0.930 . S
C489 N486 1.328 . S
C489 C491 1.392 . S
C489 H496 0.930 . S
N490 C487 1.329 . S
N490 C491 1.331 . S
C491 C489 1.392 . S
C491 N490 1.331 . S
O492 Zn485 1.975 . S
O492 C493 1.252 . S
C493 O492 1.252 . S
C493 O494 1.252 . S
O494 Zn476 1.975 . S
O494 C493 1.252 . S
H495 C488 0.930 . S
H496 C489 0.930 . S
C497 C498 1.392 . S
C497 N501 1.328 . S
C497 H503 0.930 . S
C498 C497 1.392 . S
C498 N502 1.331 . S
C499 C500 1.391 . S
C499 N502 1.329 . S
C499 H509 0.930 . S
C500 C499 1.391 . S
C500 N501 1.334 . S
C500 H507 0.930 . S
N501 Zn485 2.119 . S
N501 C497 1.328 . S
N501 C500 1.334 . S
N502 C498 1.331 . S
N502 C499 1.329 . S
H503 C497 0.930 . S
C504 O484 1.257 . S
C504 O505 1.244 . S
O505 C504 1.244 . S
O506 C482 1.257 . S
O506 Zn485 2.019 . S
H507 C500 0.930 . S
H508 C487 0.930 . S
H509 C499 0.930 . S
Zn510 N514 2.020 . S
Zn510 O518 2.019 . S
Zn510 N520 2.119 . S
Zn510 O528 1.975 . S
C511 N512 1.334 . S
C511 N515 1.336 . S
N512 C511 1.334 . S
N512 C513 1.334 . S
C513 N512 1.334 . S
C513 N514 1.336 . S
N514 Zn510 2.020 . S
N514 C513 1.336 . S
N514 N515 1.354 . S
N515 C511 1.336 . S
N515 N514 1.354 . S
N515 Zn519 2.020 . S
C516 O517 1.244 . S
C516 O540 1.257 . S
O517 C516 1.244 . S
O518 Zn510 2.019 . S
O518 C538 1.257 . S
Zn519 N515 2.020 . S
Zn519 O526 1.975 . S
Zn519 N535 2.119 . S
Zn519 O540 2.019 1_565 S
N520 Zn510 2.119 . S
N520 C522 1.334 . S
N520 C523 1.328 . S
C521 C522 1.391 . S
C521 N524 1.329 . S
C521 H542 0.930 1_565 S
C522 N520 1.334 . S
C522 C521 1.391 . S
C522 H529 0.930 . S
C523 N520 1.328 . S
C523 C525 1.392 . S
C523 H530 0.930 . S
N524 C521 1.329 . S
N524 C525 1.331 . S
C525 C523 1.392 . S
C525 N524 1.331 . S
O526 Zn519 1.975 . S
O526 C527 1.252 . S
C527 O526 1.252 . S
C527 O528 1.252 . S
O528 Zn510 1.975 . S
O528 C527 1.252 . S
H529 C522 0.930 . S
H530 C523 0.930 . S
C531 C532 1.392 . S
C531 N535 1.328 . S
C531 H537 0.930 1_565 S
C532 C531 1.392 . S
C532 N536 1.331 . S
C533 C534 1.391 . S
C533 N536 1.329 . S
C533 H543 0.930 . S
C534 C533 1.391 . S
C534 N535 1.334 . S
C534 H541 0.930 . S
N535 Zn519 2.119 . S
N535 C531 1.328 . S
N535 C534 1.334 . S
N536 C532 1.331 . S
N536 C533 1.329 . S
H537 C531 0.930 1_545 S
C538 O518 1.257 . S
C538 O539 1.244 . S
O539 C538 1.244 . S
O540 C516 1.257 . S
O540 Zn519 2.019 1_545 S
H541 C534 0.930 . S
H542 C521 0.930 1_545 S
H543 C533 0.930 . S
H544 C552 0.950 . S
H545 C557 0.950 . S
H546 C554 0.950 . S
H547 C556 0.950 1_655 S
H548 C558 0.950 . S
H549 C560 0.950 . S
H550 C562 0.950 . S
H551 C563 0.950 . S
C552 H544 0.950 . S
C552 C553 1.386 . S
C552 C554 1.391 . S
C553 C552 1.386 . S
C553 C557 1.393 . S
C554 H546 0.950 . S
C554 C552 1.391 . S
C554 C555 1.400 . S
C555 C554 1.400 . S
C555 C556 1.398 . S
C555 C561 1.491 1_455 S
C556 H547 0.950 1_455 S
C556 C555 1.398 . S
C556 C557 1.391 . S
C557 H545 0.950 . S
C557 C553 1.393 . S
C557 C556 1.391 . S
C558 H548 0.950 . S
C558 C559 1.386 . S
C558 C560 1.391 . S
C559 C558 1.386 . S
C559 C563 1.393 . S
C560 H549 0.950 . S
C560 C558 1.391 . S
C560 C561 1.400 . S
C561 C555 1.491 1_655 S
C561 C560 1.400 . S
C561 C562 1.398 . S
C562 H550 0.950 . S
C562 C561 1.398 . S
C562 C563 1.391 . S
C563 H551 0.950 . S
C563 C559 1.393 . S
C563 C562 1.391 . S
H564 C572 0.950 . S
H565 C577 0.950 . S
H566 C574 0.950 . S
H567 C576 0.950 . S
H568 C578 0.950 . S
H569 C580 0.950 . S
H570 C582 0.950 . S
H571 C583 0.950 . S
C572 H564 0.950 . S
C572 C573 1.386 . S
C572 C574 1.391 . S
C573 C572 1.386 . S
C573 C577 1.393 . S
C574 H566 0.950 . S
C574 C572 1.391 . S
C574 C575 1.400 . S
C575 C574 1.400 . S
C575 C576 1.398 . S
C575 C581 1.491 1_655 S
C576 H567 0.950 . S
C576 C575 1.398 . S
C576 C577 1.391 . S
C577 H565 0.950 . S
C577 C573 1.393 . S
C577 C576 1.391 . S
C578 H568 0.950 . S
C578 C579 1.386 . S
C578 C580 1.391 . S
C579 C578 1.386 . S
C579 C583 1.393 . S
C580 H569 0.950 . S
C580 C578 1.391 . S
C580 C581 1.400 . S
C581 C575 1.491 1_455 S
C581 C580 1.400 . S
C581 C582 1.398 . S
C582 H570 0.950 . S
C582 C581 1.398 . S
C582 C583 1.391 . S
C583 H571 0.950 . S
C583 C579 1.393 . S
C583 C582 1.391 . S
H584 C592 0.950 . S
H585 C597 0.950 . S
H586 C594 0.950 . S
H587 C596 0.950 . S
H588 C598 0.950 . S
H589 C600 0.950 . S
H590 C602 0.950 . S
H591 C603 0.950 . S
C592 H584 0.950 . S
C592 C593 1.386 . S
C592 C594 1.391 . S
C593 C592 1.386 . S
C593 C597 1.393 . S
C594 H586 0.950 . S
C594 C592 1.391 . S
C594 C595 1.400 . S
C595 C594 1.400 . S
C595 C596 1.398 . S
C595 C601 1.491 . S
C596 H587 0.950 . S
C596 C595 1.398 . S
C596 C597 1.391 . S
C597 H585 0.950 . S
C597 C593 1.393 . S
C597 C596 1.391 . S
C598 H588 0.950 . S
C598 C599 1.386 . S
C598 C600 1.391 . S
C599 C598 1.386 . S
C599 C603 1.393 . S
C600 H589 0.950 . S
C600 C598 1.391 . S
C600 C601 1.400 . S
C601 C595 1.491 . S
C601 C600 1.400 . S
C601 C602 1.398 . S
C602 H590 0.950 . S
C602 C601 1.398 . S
C602 C603 1.391 . S
C603 H591 0.950 . S
C603 C599 1.393 . S
C603 C602 1.391 . S
H604 C612 0.950 . S
H605 C617 0.950 . S
H606 C614 0.950 . S
H607 C616 0.950 . S
H608 C618 0.950 . S
H609 C620 0.950 . S
H610 C622 0.950 . S
H611 C623 0.950 . S
C612 H604 0.950 . S
C612 C613 1.386 . S
C612 C614 1.391 . S
C613 C612 1.386 . S
C613 C617 1.393 . S
C614 H606 0.950 . S
C614 C612 1.391 . S
C614 C615 1.400 . S
C615 C614 1.400 . S
C615 C616 1.398 . S
C615 C621 1.491 . S
C616 H607 0.950 . S
C616 C615 1.398 . S
C616 C617 1.391 . S
C617 H605 0.950 . S
C617 C613 1.393 . S
C617 C616 1.391 . S
C618 H608 0.950 . S
C618 C619 1.386 . S
C618 C620 1.391 . S
C619 C618 1.386 . S
C619 C623 1.393 . S
C620 H609 0.950 . S
C620 C618 1.391 . S
C620 C621 1.400 . S
C621 C615 1.491 . S
C621 C620 1.400 . S
C621 C622 1.398 . S
C622 H610 0.950 . S
C622 C621 1.398 . S
C622 C623 1.391 . S
C623 H611 0.950 . S
C623 C619 1.393 . S
C623 C622 1.391 . S
H624 C632 0.950 . S
H625 C637 0.950 . S
H626 C634 0.948 1_455 S
H627 C636 0.950 . S
H628 C638 0.950 . S
H629 C640 0.950 . S
H630 C642 0.950 . S
H631 C643 0.950 . S
C632 H624 0.950 . S
C632 C633 1.386 . S
C632 C634 1.391 . S
C633 C632 1.386 . S
C633 C637 1.393 . S
C634 H626 0.948 1_655 S
C634 C632 1.391 . S
C634 C635 1.400 . S
C635 C634 1.400 . S
C635 C636 1.398 . S
C635 C641 1.491 1_655 S
C636 H627 0.950 . S
C636 C635 1.398 . S
C636 C637 1.391 . S
C637 H625 0.950 . S
C637 C633 1.393 . S
C637 C636 1.391 . S
C638 H628 0.950 . S
C638 C639 1.386 . S
C638 C640 1.391 1_455 S
C639 C638 1.386 . S
C639 C643 1.393 . S
C640 H629 0.950 . S
C640 C638 1.391 1_655 S
C640 C641 1.400 1_655 S
C641 C635 1.491 1_455 S
C641 C640 1.400 1_455 S
C641 C642 1.398 . S
C642 H630 0.950 . S
C642 C641 1.398 . S
C642 C643 1.391 . S
C643 H631 0.950 . S
C643 C639 1.393 . S
C643 C642 1.391 . S
H644 C652 0.950 . S
H645 C657 0.950 . S
H646 C654 0.950 . S
H647 C656 0.950 . S
H648 C658 0.950 . S
H649 C660 0.950 . S
H650 C662 0.950 . S
H651 C663 0.950 . S
C652 H644 0.950 . S
C652 C653 1.386 . S
C652 C654 1.391 . S
C653 C652 1.386 . S
C653 C657 1.393 . S
C654 H646 0.950 . S
C654 C652 1.391 . S
C654 C655 1.400 . S
C655 C654 1.400 . S
C655 C656 1.398 . S
C655 C661 1.491 . S
C656 H647 0.950 . S
C656 C655 1.398 . S
C656 C657 1.391 . S
C657 H645 0.950 . S
C657 C653 1.393 . S
C657 C656 1.391 . S
C658 H648 0.950 . S
C658 C659 1.386 . S
C658 C660 1.391 1_655 S
C659 C658 1.386 . S
C659 C663 1.393 . S
C660 H649 0.950 . S
C660 C658 1.391 1_455 S
C660 C661 1.400 . S
C661 C655 1.491 . S
C661 C660 1.400 . S
C661 C662 1.398 1_455 S
C662 H650 0.950 . S
C662 C661 1.398 1_655 S
C662 C663 1.391 . S
C663 H651 0.950 . S
C663 C659 1.393 . S
C663 C662 1.391 . S
H664 C672 0.950 . S
H665 C677 0.950 . S
H666 C674 0.950 . S
H667 C676 0.950 . S
H668 C678 0.950 . S
H669 C680 0.950 . S
H670 C682 0.950 . S
H671 C683 0.950 . S
C672 H664 0.950 . S
C672 C673 1.386 . S
C672 C674 1.391 . S
C673 C672 1.386 . S
C673 C677 1.393 . S
C674 H666 0.950 . S
C674 C672 1.391 . S
C674 C675 1.400 . S
C675 C674 1.400 . S
C675 C676 1.398 . S
C675 C681 1.491 . S
C676 H667 0.950 . S
C676 C675 1.398 . S
C676 C677 1.391 . S
C677 H665 0.950 . S
C677 C673 1.393 . S
C677 C676 1.391 . S
C678 H668 0.950 . S
C678 C679 1.386 . S
C678 C680 1.391 . S
C679 C678 1.386 . S
C679 C683 1.393 . S
C680 H669 0.950 . S
C680 C678 1.391 . S
C680 C681 1.400 . S
C681 C675 1.491 . S
C681 C680 1.400 . S
C681 C682 1.398 . S
C682 H670 0.950 . S
C682 C681 1.398 . S
C682 C683 1.391 . S
C683 H671 0.950 . S
C683 C679 1.393 . S
C683 C682 1.391 . S
H684 C692 0.950 . S
H685 C697 0.950 . S
H686 C694 0.950 . S
H687 C696 0.950 . S
H688 C698 0.950 . S
H689 C700 0.950 . S
H690 C702 0.950 . S
H691 C703 0.950 . S
C692 H684 0.950 . S
C692 C693 1.386 . S
C692 C694 1.391 . S
C693 C692 1.386 . S
C693 C697 1.393 . S
C694 H686 0.950 . S
C694 C692 1.391 . S
C694 C695 1.400 . S
C695 C694 1.400 . S
C695 C696 1.398 . S
C695 C701 1.491 . S
C696 H687 0.950 . S
C696 C695 1.398 . S
C696 C697 1.391 . S
C697 H685 0.950 . S
C697 C693 1.393 . S
C697 C696 1.391 . S
C698 H688 0.950 . S
C698 C699 1.386 . S
C698 C700 1.391 . S
C699 C698 1.386 . S
C699 C703 1.393 . S
C700 H689 0.950 . S
C700 C698 1.391 . S
C700 C701 1.400 . S
C701 C695 1.491 . S
C701 C700 1.400 . S
C701 C702 1.398 . S
C702 H690 0.950 . S
C702 C701 1.398 . S
C702 C703 1.391 . S
C703 H691 0.950 . S
C703 C699 1.393 . S
C703 C702 1.391 . S
H704 C712 0.950 . S
H705 C717 0.950 . S
H706 C714 0.950 . S
H707 C716 0.950 . S
H708 C718 0.950 . S
H709 C720 0.950 . S
H710 C722 0.950 . S
H711 C723 0.950 . S
C712 H704 0.950 . S
C712 C713 1.386 . S
C712 C714 1.391 . S
C713 C712 1.386 . S
C713 C717 1.393 . S
C714 H706 0.950 . S
C714 C712 1.391 . S
C714 C715 1.400 . S
C715 C714 1.400 . S
C715 C716 1.398 . S
C715 C721 1.491 . S
C716 H707 0.950 . S
C716 C715 1.398 . S
C716 C717 1.391 . S
C717 H705 0.950 . S
C717 C713 1.393 . S
C717 C716 1.391 . S
C718 H708 0.950 . S
C718 C719 1.386 . S
C718 C720 1.391 . S
C719 C718 1.386 . S
C719 C723 1.393 . S
C720 H709 0.950 . S
C720 C718 1.391 . S
C720 C721 1.400 . S
C721 C715 1.491 . S
C721 C720 1.400 . S
C721 C722 1.398 . S
C722 H710 0.950 . S
C722 C721 1.398 . S
C722 C723 1.391 . S
C723 H711 0.950 . S
C723 C719 1.393 . S
C723 C722 1.391 . S
H724 C732 0.950 . S
H725 C737 0.950 . S
H726 C734 0.950 . S
H727 C736 0.950 . S
H728 C738 0.950 . S
H729 C740 0.950 1_565 S
H730 C742 0.950 . S
H731 C743 0.950 . S
C732 H724 0.950 . S
C732 C733 1.386 1_545 S
C732 C734 1.391 1_655 S
C733 C732 1.386 1_565 S
C733 C737 1.393 . S
C734 H726 0.950 . S
C734 C732 1.391 1_455 S
C734 C735 1.400 . S
C735 C734 1.400 . S
C735 C736 1.398 1_545 S
C735 C741 1.491 . S
C736 H727 0.950 . S
C736 C735 1.398 1_565 S
C736 C737 1.391 1_455 S
C737 H725 0.950 . S
C737 C733 1.393 . S
C737 C736 1.391 1_655 S
C738 H728 0.950 . S
C738 C739 1.386 . S
C738 C740 1.391 . S
C739 C738 1.386 . S
C739 C743 1.393 . S
C740 H729 0.950 1_545 S
C740 C738 1.391 . S
C740 C741 1.400 . S
C741 C735 1.491 . S
C741 C740 1.400 . S
C741 C742 1.398 . S
C742 H730 0.950 . S
C742 C741 1.398 . S
C742 C743 1.391 . S
C743 H731 0.950 . S
C743 C739 1.393 . S
C743 C742 1.391 . S
H744 C752 0.950 . S
H745 C757 0.950 . S
H746 C754 0.950 . S
H747 C756 0.950 . S
H748 C758 0.950 . S
H749 C760 0.950 . S
H750 C762 0.950 . S
H751 C763 0.950 . S
C752 H744 0.950 . S
C752 C753 1.386 . S
C752 C754 1.391 . S
C753 C752 1.386 . S
C753 C757 1.393 . S
C754 H746 0.950 . S
C754 C752 1.391 . S
C754 C755 1.400 . S
C755 C754 1.400 . S
C755 C756 1.398 . S
C755 C761 1.491 . S
C756 H747 0.950 . S
C756 C755 1.398 . S
C756 C757 1.391 . S
C757 H745 0.950 . S
C757 C753 1.393 . S
C757 C756 1.391 . S
C758 H748 0.950 . S
C758 C759 1.386 . S
C758 C760 1.391 . S
C759 C758 1.386 . S
C759 C763 1.393 . S
C760 H749 0.950 . S
C760 C758 1.391 . S
C760 C761 1.400 . S
C761 C755 1.491 . S
C761 C760 1.400 . S
C761 C762 1.398 . S
C762 H750 0.950 . S
C762 C761 1.398 . S
C762 C763 1.391 . S
C763 H751 0.950 . S
C763 C759 1.393 . S
C763 C762 1.391 . S
H764 C772 0.950 . S
H765 C777 0.950 . S
H766 C774 0.950 . S
H767 C776 0.950 . S
H768 C778 0.950 . S
H769 C780 0.950 . S
H770 C782 0.950 . S
H771 C783 0.950 1_545 S
C772 H764 0.950 . S
C772 C773 1.386 . S
C772 C774 1.391 . S
C773 C772 1.386 . S
C773 C777 1.393 1_545 S
C774 H766 0.950 . S
C774 C772 1.391 . S
C774 C775 1.400 1_545 S
C775 C774 1.400 1_565 S
C775 C776 1.398 . S
C775 C781 1.491 . S
C776 H767 0.950 . S
C776 C775 1.398 . S
C776 C777 1.391 . S
C777 H765 0.950 . S
C777 C773 1.393 1_565 S
C777 C776 1.391 . S
C778 H768 0.950 . S
C778 C779 1.386 . S
C778 C780 1.391 . S
C779 C778 1.386 . S
C779 C783 1.393 . S
C780 H769 0.950 . S
C780 C778 1.391 . S
C780 C781 1.400 . S
C781 C775 1.491 . S
C781 C780 1.400 . S
C781 C782 1.398 1_565 S
C782 H770 0.950 . S
C782 C781 1.398 1_545 S
C782 C783 1.391 1_545 S
C783 H771 0.950 1_565 S
C783 C779 1.393 . S
C783 C782 1.391 1_565 S
H784 C792 0.950 . S
H785 C797 0.950 . S
H786 C794 0.950 . S
H787 C796 0.950 . S
H788 C798 0.950 . S
H789 C800 0.950 . S
H790 C802 0.950 . S
H791 C803 0.950 . S
C792 H784 0.950 . S
C792 C793 1.386 . S
C792 C794 1.391 . S
C793 C792 1.386 . S
C793 C797 1.393 . S
C794 H786 0.950 . S
C794 C792 1.391 . S
C794 C795 1.400 . S
C795 C794 1.400 . S
C795 C796 1.398 . S
C795 C801 1.491 . S
C796 H787 0.950 . S
C796 C795 1.398 . S
C796 C797 1.391 . S
C797 H785 0.950 . S
C797 C793 1.393 . S
C797 C796 1.391 . S
C798 H788 0.950 . S
C798 C799 1.386 . S
C798 C800 1.391 . S
C799 C798 1.386 . S
C799 C803 1.393 . S
C800 H789 0.950 . S
C800 C798 1.391 . S
C800 C801 1.400 . S
C801 C795 1.491 . S
C801 C800 1.400 . S
C801 C802 1.398 . S
C802 H790 0.950 . S
C802 C801 1.398 . S
C802 C803 1.391 . S
C803 H791 0.950 . S
C803 C799 1.393 . S
C803 C802 1.391 . S
H804 C812 0.950 . S
H805 C817 0.950 . S
H806 C814 0.950 1_545 S
H807 C816 0.950 . S
H808 C818 0.950 . S
H809 C820 0.950 1_565 S
H810 C822 0.950 . S
H811 C823 0.950 . S
C812 H804 0.950 . S
C812 C813 1.386 . S
C812 C814 1.391 . S
C813 C812 1.386 . S
C813 C817 1.393 . S
C814 H806 0.950 1_565 S
C814 C812 1.391 . S
C814 C815 1.400 . S
C815 C814 1.400 . S
C815 C816 1.398 . S
C815 C821 1.491 1_565 S
C816 H807 0.950 . S
C816 C815 1.398 . S
C816 C817 1.391 . S
C817 H805 0.950 . S
C817 C813 1.393 . S
C817 C816 1.391 . S
C818 H808 0.950 . S
C818 C819 1.386 . S
C818 C820 1.391 . S
C819 C818 1.386 . S
C819 C823 1.393 . S
C820 H809 0.950 1_545 S
C820 C818 1.391 . S
C820 C821 1.400 . S
C821 C815 1.491 1_545 S
C821 C820 1.400 . S
C821 C822 1.398 . S
C822 H810 0.950 . S
C822 C821 1.398 . S
C822 C823 1.391 . S
C823 H811 0.950 . S
C823 C819 1.393 . S
C823 C822 1.391 . S
H824 C832 0.950 . S
H825 C837 0.950 . S
H826 C834 0.950 . S
H827 C836 0.950 . S
H828 C838 0.950 . S
H829 C840 0.950 . S
H830 C842 0.950 . S
H831 C843 0.950 . S
C832 H824 0.950 . S
C832 C833 1.386 . S
C832 C834 1.391 . S
C833 C832 1.386 . S
C833 C837 1.393 . S
C834 H826 0.950 . S
C834 C832 1.391 . S
C834 C835 1.400 . S
C835 C834 1.400 . S
C835 C836 1.398 . S
C835 C841 1.491 . S
C836 H827 0.950 . S
C836 C835 1.398 . S
C836 C837 1.391 . S
C837 H825 0.950 . S
C837 C833 1.393 . S
C837 C836 1.391 . S
C838 H828 0.950 . S
C838 C839 1.386 . S
C838 C840 1.391 . S
C839 C838 1.386 . S
C839 C843 1.393 . S
C840 H829 0.950 . S
C840 C838 1.391 . S
C840 C841 1.400 . S
C841 C835 1.491 . S
C841 C840 1.400 . S
C841 C842 1.398 . S
C842 H830 0.950 . S
C842 C841 1.398 . S
C842 C843 1.391 . S
C843 H831 0.950 . S
C843 C839 1.393 . S
C843 C842 1.391 . S
H844 C852 0.950 . S
H845 C857 0.950 . S
H846 C854 0.950 . S
H847 C856 0.950 . S
H848 C858 0.950 . S
H849 C860 0.950 . S
H850 C862 0.950 . S
H851 C863 0.950 . S
C852 H844 0.950 . S
C852 C853 1.386 . S
C852 C854 1.391 . S
C853 C852 1.386 . S
C853 C857 1.393 . S
C854 H846 0.950 . S
C854 C852 1.391 . S
C854 C855 1.400 . S
C855 C854 1.400 . S
C855 C856 1.398 . S
C855 C861 1.491 . S
C856 H847 0.950 . S
C856 C855 1.398 . S
C856 C857 1.391 . S
C857 H845 0.950 . S
C857 C853 1.393 . S
C857 C856 1.391 . S
C858 H848 0.950 . S
C858 C859 1.386 . S
C858 C860 1.391 1_645 S
C859 C858 1.386 . S
C859 C863 1.393 . S
C860 H849 0.950 . S
C860 C858 1.391 1_465 S
C860 C861 1.400 . S
C861 C855 1.491 . S
C861 C860 1.400 . S
C861 C862 1.398 1_565 S
C862 H850 0.950 . S
C862 C861 1.398 1_545 S
C862 C863 1.391 1_455 S
C863 H851 0.950 . S
C863 C859 1.393 . S
C863 C862 1.391 1_655 S
H864 C872 0.950 . S
H865 C877 0.950 . S
H866 C874 0.950 . S
H867 C876 0.950 . S
H868 C878 0.950 . S
H869 C880 0.950 . S
H870 C882 0.950 . S
H871 C883 0.950 . S
C872 H864 0.950 . S
C872 C873 1.386 . S
C872 C874 1.391 . S
C873 C872 1.386 . S
C873 C877 1.393 . S
C874 H866 0.950 . S
C874 C872 1.391 . S
C874 C875 1.400 . S
C875 C874 1.400 . S
C875 C876 1.398 . S
C875 C881 1.491 . S
C876 H867 0.950 . S
C876 C875 1.398 . S
C876 C877 1.391 . S
C877 H865 0.950 . S
C877 C873 1.393 . S
C877 C876 1.391 . S
C878 H868 0.950 . S
C878 C879 1.386 . S
C878 C880 1.391 . S
C879 C878 1.386 . S
C879 C883 1.393 . S
C880 H869 0.950 . S
C880 C878 1.391 . S
C880 C881 1.400 . S
C881 C875 1.491 . S
C881 C880 1.400 . S
C881 C882 1.398 . S
C882 H870 0.950 . S
C882 C881 1.398 . S
C882 C883 1.391 . S
C883 H871 0.950 . S
C883 C879 1.393 . S
C883 C882 1.391 . S
H884 C892 0.950 . S
H885 C897 0.950 . S
H886 C894 0.950 . S
H887 C896 0.941 1_545 S
H888 C898 0.950 . S
H889 C900 0.950 . S
H890 C902 0.950 . S
H891 C903 0.950 . S
C892 H884 0.950 . S
C892 C893 1.392 . S
C892 C894 1.391 1_455 S
C893 C892 1.392 . S
C893 C897 1.389 1_565 S
C894 H886 0.950 . S
C894 C892 1.391 1_655 S
C894 C895 1.400 . S
C895 C894 1.400 . S
C895 C896 1.414 . S
C895 C901 1.491 . S
C896 H887 0.941 1_565 S
C896 C895 1.414 . S
C896 C897 1.384 1_665 S
C897 H885 0.950 . S
C897 C893 1.389 1_545 S
C897 C896 1.384 1_445 S
C898 H888 0.950 . S
C898 C899 1.386 . S
C898 C900 1.391 . S
C899 C898 1.386 . S
C899 C903 1.393 . S
C900 H889 0.950 . S
C900 C898 1.391 . S
C900 C901 1.400 . S
C901 C895 1.491 . S
C901 C900 1.400 . S
C901 C902 1.398 . S
C902 H890 0.950 . S
C902 C901 1.398 . S
C902 C903 1.391 . S
C903 H891 0.950 . S
C903 C899 1.393 . S
C903 C902 1.391 . S
H904 C912 0.950 . S
H905 C917 0.950 . S
H906 C914 0.950 . S
H907 C916 0.950 . S
H908 C918 0.950 . S
H909 C920 0.950 . S
H910 C922 0.950 . S
H911 C923 0.950 . S
C912 H904 0.950 . S
C912 C913 1.386 . S
C912 C914 1.391 . S
C913 C912 1.386 . S
C913 C917 1.393 . S
C914 H906 0.950 . S
C914 C912 1.391 . S
C914 C915 1.400 . S
C915 C914 1.400 . S
C915 C916 1.398 . S
C915 C921 1.491 . S
C916 H907 0.950 . S
C916 C915 1.398 . S
C916 C917 1.391 . S
C917 H905 0.950 . S
C917 C913 1.393 . S
C917 C916 1.391 . S
C918 H908 0.950 . S
C918 C919 1.386 . S
C918 C920 1.391 . S
C919 C918 1.386 . S
C919 C923 1.393 . S
C920 H909 0.950 . S
C920 C918 1.391 . S
C920 C921 1.400 . S
C921 C915 1.491 . S
C921 C920 1.400 . S
C921 C922 1.398 . S
C922 H910 0.950 . S
C922 C921 1.398 . S
C922 C923 1.391 . S
C923 H911 0.950 . S
C923 C919 1.393 . S
C923 C922 1.391 . S
H924 C932 0.950 . S
H925 C937 0.950 . S
H926 C934 0.950 . S
H927 C936 0.950 . S
H928 C938 0.950 . S
H929 C940 0.950 . S
H930 C942 0.950 . S
H931 C943 0.950 . S
C932 H924 0.950 . S
C932 C933 1.386 . S
C932 C934 1.391 . S
C933 C932 1.386 . S
C933 C937 1.393 . S
C934 H926 0.950 . S
C934 C932 1.391 . S
C934 C935 1.400 . S
C935 C934 1.400 . S
C935 C936 1.398 . S
C935 C941 1.491 . S
C936 H927 0.950 . S
C936 C935 1.398 . S
C936 C937 1.391 . S
C937 H925 0.950 . S
C937 C933 1.393 . S
C937 C936 1.391 . S
C938 H928 0.950 . S
C938 C939 1.386 1_545 S
C938 C940 1.391 . S
C939 C938 1.386 1_565 S
C939 C943 1.393 . S
C940 H929 0.950 . S
C940 C938 1.391 . S
C940 C941 1.400 . S
C941 C935 1.491 . S
C941 C940 1.400 . S
C941 C942 1.398 . S
C942 H930 0.950 . S
C942 C941 1.398 . S
C942 C943 1.391 1_545 S
C943 H931 0.950 . S
C943 C939 1.393 . S
C943 C942 1.391 1_565 S
H944 C952 0.950 . S
H945 C957 0.950 . S
H946 C954 0.950 . S
H947 C956 0.950 . S
H948 C958 0.950 . S
H949 C960 0.950 . S
H950 C962 0.950 . S
H951 C963 0.950 . S
C952 H944 0.950 . S
C952 C953 1.386 . S
C952 C954 1.391 . S
C953 C952 1.386 . S
C953 C957 1.393 . S
C954 H946 0.950 . S
C954 C952 1.391 . S
C954 C955 1.400 . S
C955 C954 1.400 . S
C955 C956 1.398 . S
C955 C961 1.491 . S
C956 H947 0.950 . S
C956 C955 1.398 . S
C956 C957 1.391 . S
C957 H945 0.950 . S
C957 C953 1.393 . S
C957 C956 1.391 . S
C958 H948 0.950 . S
C958 C959 1.386 . S
C958 C960 1.391 . S
C959 C958 1.386 . S
C959 C963 1.393 . S
C960 H949 0.950 . S
C960 C958 1.391 . S
C960 C961 1.400 . S
C961 C955 1.491 . S
C961 C960 1.400 . S
C961 C962 1.398 . S
C962 H950 0.950 . S
C962 C961 1.398 . S
C962 C963 1.391 . S
C963 H951 0.950 . S
C963 C959 1.393 . S
C963 C962 1.391 . S
H964 C972 0.950 . S
H965 C977 0.950 . S
H966 C974 0.950 . S
H967 C976 0.950 1_545 S
H968 C978 0.950 . S
H969 C980 0.950 . S
H970 C982 0.950 . S
H971 C983 0.950 1_565 S
C972 H964 0.950 . S
C972 C973 1.386 . S
C972 C974 1.391 . S
C973 C972 1.386 . S
C973 C977 1.393 . S
C974 H966 0.950 . S
C974 C972 1.391 . S
C974 C975 1.400 . S
C975 C974 1.400 . S
C975 C976 1.398 . S
C975 C981 1.497 . S
C976 H967 0.950 1_565 S
C976 C975 1.398 . S
C976 C977 1.391 . S
C977 H965 0.950 . S
C977 C973 1.393 . S
C977 C976 1.391 . S
C978 H968 0.950 . S
C978 C979 1.386 . S
C978 C980 1.391 . S
C979 C978 1.386 . S
C979 C983 1.393 . S
C980 H969 0.950 . S
C980 C978 1.391 . S
C980 C981 1.384 1_545 S
C981 C975 1.497 . S
C981 C980 1.384 1_565 S
C981 C982 1.408 . S
C982 H970 0.950 . S
C982 C981 1.408 . S
C982 C983 1.391 1_565 S
C983 H971 0.950 1_545 S
C983 C979 1.393 . S
C983 C982 1.391 1_545 S
H984 C992 0.950 . S
H985 C997 0.950 . S
H986 C994 0.950 . S
H987 C996 0.950 . S
H988 C998 0.950 . S
H989 C1000 0.950 . S
H990 C1002 0.950 . S
H991 C1003 0.950 . S
C992 H984 0.950 . S
C992 C993 1.386 . S
C992 C994 1.391 . S
C993 C992 1.386 . S
C993 C997 1.393 . S
C994 H986 0.950 . S
C994 C992 1.391 . S
C994 C995 1.400 . S
C995 C994 1.400 . S
C995 C996 1.398 . S
C995 C1001 1.491 . S
C996 H987 0.950 . S
C996 C995 1.398 . S
C996 C997 1.391 . S
C997 H985 0.950 . S
C997 C993 1.393 . S
C997 C996 1.391 . S
C998 H988 0.950 . S
C998 C999 1.386 . S
C998 C1000 1.391 . S
C999 C998 1.386 . S
C999 C1003 1.393 . S
C1000 H989 0.950 . S
C1000 C998 1.391 . S
C1000 C1001 1.400 . S
C1001 C995 1.491 . S
C1001 C1000 1.400 . S
C1001 C1002 1.398 . S
C1002 H990 0.950 . S
C1002 C1001 1.398 . S
C1002 C1003 1.391 . S
C1003 H991 0.950 . S
C1003 C999 1.393 . S
C1003 C1002 1.391 . S
H1004 C1012 0.950 . S
H1005 C1017 0.950 1_455 S
H1006 C1014 0.950 . S
H1007 C1016 0.950 . S
H1008 C1018 0.950 . S
H1009 C1020 0.950 . S
H1010 C1022 0.950 . S
H1011 C1023 0.950 . S
C1012 H1004 0.950 . S
C1012 C1013 1.386 1_545 S
C1012 C1014 1.391 1_455 S
C1013 C1012 1.386 1_565 S
C1013 C1017 1.393 1_455 S
C1014 H1006 0.950 . S
C1014 C1012 1.391 1_655 S
C1014 C1015 1.400 . S
C1015 C1014 1.400 . S
C1015 C1016 1.398 1_545 S
C1015 C1021 1.491 . S
C1016 H1007 0.950 . S
C1016 C1015 1.398 1_565 S
C1016 C1017 1.391 . S
C1017 H1005 0.950 1_655 S
C1017 C1013 1.393 1_655 S
C1017 C1016 1.391 . S
C1018 H1008 0.950 . S
C1018 C1019 1.386 . S
C1018 C1020 1.391 . S
C1019 C1018 1.386 . S
C1019 C1023 1.393 . S
C1020 H1009 0.950 . S
C1020 C1018 1.391 . S
C1020 C1021 1.400 . S
C1021 C1015 1.491 . S
C1021 C1020 1.400 . S
C1021 C1022 1.398 . S
C1022 H1010 0.950 . S
C1022 C1021 1.398 . S
C1022 C1023 1.391 . S
C1023 H1011 0.950 . S
C1023 C1019 1.393 . S
C1023 C1022 1.391 . S
H1024 C1032 0.950 . S
H1025 C1037 0.950 . S
H1026 C1034 0.950 . S
H1027 C1036 0.950 . S
H1028 C1038 0.950 . S
H1029 C1040 0.950 . S
H1030 C1042 0.950 . S
H1031 C1043 0.950 . S
C1032 H1024 0.950 . S
C1032 C1033 1.386 . S
C1032 C1034 1.391 . S
C1033 C1032 1.386 . S
C1033 C1037 1.393 . S
C1034 H1026 0.950 . S
C1034 C1032 1.391 . S
C1034 C1035 1.400 . S
C1035 C1034 1.400 . S
C1035 C1036 1.398 . S
C1035 C1041 1.491 . S
C1036 H1027 0.950 . S
C1036 C1035 1.398 . S
C1036 C1037 1.391 . S
C1037 H1025 0.950 . S
C1037 C1033 1.393 . S
C1037 C1036 1.391 . S
C1038 H1028 0.950 . S
C1038 C1039 1.386 . S
C1038 C1040 1.391 . S
C1039 C1038 1.386 . S
C1039 C1043 1.393 . S
C1040 H1029 0.950 . S
C1040 C1038 1.391 . S
C1040 C1041 1.400 . S
C1041 C1035 1.491 . S
C1041 C1040 1.400 . S
C1041 C1042 1.398 . S
C1042 H1030 0.950 . S
C1042 C1041 1.398 . S
C1042 C1043 1.391 . S
C1043 H1031 0.950 . S
C1043 C1039 1.393 . S
C1043 C1042 1.391 . S
H1044 C1052 0.950 . S
H1045 C1057 0.950 . S
H1046 C1054 0.950 . S
H1047 C1056 0.950 . S
H1048 C1058 0.950 . S
H1049 C1060 0.950 . S
H1050 C1062 0.950 . S
H1051 C1063 0.950 . S
C1052 H1044 0.950 . S
C1052 C1053 1.386 . S
C1052 C1054 1.391 . S
C1053 C1052 1.386 . S
C1053 C1057 1.393 . S
C1054 H1046 0.950 . S
C1054 C1052 1.391 . S
C1054 C1055 1.400 . S
C1055 C1054 1.400 . S
C1055 C1056 1.398 . S
C1055 C1061 1.491 . S
C1056 H1047 0.950 . S
C1056 C1055 1.398 . S
C1056 C1057 1.391 . S
C1057 H1045 0.950 . S
C1057 C1053 1.393 . S
C1057 C1056 1.391 . S
C1058 H1048 0.950 . S
C1058 C1059 1.386 . S
C1058 C1060 1.391 . S
C1059 C1058 1.386 . S
C1059 C1063 1.393 . S
C1060 H1049 0.950 . S
C1060 C1058 1.391 . S
C1060 C1061 1.400 . S
C1061 C1055 1.491 . S
C1061 C1060 1.400 . S
C1061 C1062 1.398 . S
C1062 H1050 0.950 . S
C1062 C1061 1.398 . S
C1062 C1063 1.391 . S
C1063 H1051 0.950 . S
C1063 C1059 1.393 . S
C1063 C1062 1.391 . S
H1064 C1072 0.950 . S
H1065 C1077 0.950 . S
H1066 C1074 0.950 . S
H1067 C1076 0.950 . S
H1068 C1078 0.950 . S
H1069 C1080 0.950 . S
H1070 C1082 0.950 . S
H1071 C1083 0.950 . S
C1072 H1064 0.950 . S
C1072 C1073 1.386 . S
C1072 C1074 1.391 . S
C1073 C1072 1.386 . S
C1073 C1077 1.393 . S
C1074 H1066 0.950 . S
C1074 C1072 1.391 . S
C1074 C1075 1.400 . S
C1075 C1074 1.400 . S
C1075 C1076 1.398 . S
C1075 C1081 1.491 . S
C1076 H1067 0.950 . S
C1076 C1075 1.398 . S
C1076 C1077 1.391 . S
C1077 H1065 0.950 . S
C1077 C1073 1.393 . S
C1077 C1076 1.391 . S
C1078 H1068 0.950 . S
C1078 C1079 1.386 . S
C1078 C1080 1.391 . S
C1079 C1078 1.386 . S
C1079 C1083 1.393 . S
C1080 H1069 0.950 . S
C1080 C1078 1.391 . S
C1080 C1081 1.400 . S
C1081 C1075 1.491 . S
C1081 C1080 1.400 . S
C1081 C1082 1.398 . S
C1082 H1070 0.950 . S
C1082 C1081 1.398 . S
C1082 C1083 1.391 . S
C1083 H1071 0.950 . S
C1083 C1079 1.393 . S
C1083 C1082 1.391 . S
H1084 C1092 0.950 . S
H1085 C1097 0.950 . S
H1086 C1094 0.950 . S
H1087 C1096 0.950 . S
H1088 C1098 0.964 . S
H1089 C1100 0.950 . S
H1090 C1102 0.950 . S
H1091 C1103 0.950 . S
C1092 H1084 0.950 . S
C1092 C1093 1.386 . S
C1092 C1094 1.391 . S
C1093 C1092 1.386 . S
C1093 C1097 1.393 . S
C1094 H1086 0.950 . S
C1094 C1092 1.391 . S
C1094 C1095 1.400 . S
C1095 C1094 1.400 . S
C1095 C1096 1.398 . S
C1095 C1101 1.491 . S
C1096 H1087 0.950 . S
C1096 C1095 1.398 . S
C1096 C1097 1.391 . S
C1097 H1085 0.950 . S
C1097 C1093 1.393 . S
C1097 C1096 1.391 . S
C1098 H1088 0.964 . S
C1098 C1099 1.386 . S
C1098 C1100 1.391 . S
C1099 C1098 1.386 . S
C1099 C1103 1.393 . S
C1100 H1089 0.950 . S
C1100 C1098 1.391 . S
C1100 C1101 1.400 . S
C1101 C1095 1.491 . S
C1101 C1100 1.400 . S
C1101 C1102 1.398 . S
C1102 H1090 0.950 . S
C1102 C1101 1.398 . S
C1102 C1103 1.391 . S
C1103 H1091 0.950 . S
C1103 C1099 1.393 . S
C1103 C1102 1.391 . S
H1104 C1112 0.950 . S
H1105 C1117 0.950 . S
H1106 C1114 0.950 . S
H1107 C1116 0.950 . S
H1108 C1118 0.950 . S
H1109 C1120 0.950 . S
H1110 C1122 0.950 . S
H1111 C1123 0.950 . S
C1112 H1104 0.950 . S
C1112 C1113 1.386 . S
C1112 C1114 1.391 . S
C1113 C1112 1.386 . S
C1113 C1117 1.393 . S
C1114 H1106 0.950 . S
C1114 C1112 1.391 . S
C1114 C1115 1.400 . S
C1115 C1114 1.400 . S
C1115 C1116 1.398 . S
C1115 C1121 1.491 . S
C1116 H1107 0.950 . S
C1116 C1115 1.398 . S
C1116 C1117 1.391 . S
C1117 H1105 0.950 . S
C1117 C1113 1.393 . S
C1117 C1116 1.391 . S
C1118 H1108 0.950 . S
C1118 C1119 1.386 . S
C1118 C1120 1.391 . S
C1119 C1118 1.386 . S
C1119 C1123 1.393 . S
C1120 H1109 0.950 . S
C1120 C1118 1.391 . S
C1120 C1121 1.400 . S
C1121 C1115 1.491 . S
C1121 C1120 1.400 . S
C1121 C1122 1.398 . S
C1122 H1110 0.950 . S
C1122 C1121 1.398 . S
C1122 C1123 1.391 . S
C1123 H1111 0.950 . S
C1123 C1119 1.393 . S
C1123 C1122 1.391 . S
H1124 C1132 0.950 . S
H1125 C1137 0.950 . S
H1126 C1134 0.950 . S
H1127 C1136 0.950 . S
H1128 C1138 0.950 . S
H1129 C1140 0.950 . S
H1130 C1142 0.950 . S
H1131 C1143 0.930 1_455 S
C1132 H1124 0.950 . S
C1132 C1133 1.386 . S
C1132 C1134 1.391 . S
C1133 C1132 1.386 . S
C1133 C1137 1.393 . S
C1134 H1126 0.950 . S
C1134 C1132 1.391 . S
C1134 C1135 1.400 . S
C1135 C1134 1.400 . S
C1135 C1136 1.398 . S
C1135 C1141 1.491 . S
C1136 H1127 0.950 . S
C1136 C1135 1.398 . S
C1136 C1137 1.391 . S
C1137 H1125 0.950 . S
C1137 C1133 1.393 . S
C1137 C1136 1.391 . S
C1138 H1128 0.950 . S
C1138 C1139 1.386 1_655 S
C1138 C1140 1.391 . S
C1139 C1138 1.386 1_455 S
C1139 C1143 1.391 1_455 S
C1140 H1129 0.950 . S
C1140 C1138 1.391 . S
C1140 C1141 1.400 . S
C1141 C1135 1.491 . S
C1141 C1140 1.400 . S
C1141 C1142 1.398 . S
C1142 H1130 0.950 . S
C1142 C1141 1.398 . S
C1142 C1143 1.412 . S
C1143 H1131 0.930 1_655 S
C1143 C1139 1.391 1_655 S
C1143 C1142 1.412 . S
H1144 C1152 0.950 . S
H1145 C1157 0.950 . S
H1146 C1154 0.950 . S
H1147 C1156 0.950 . S
H1148 C1158 0.950 . S
H1149 C1160 0.950 . S
H1150 C1162 0.950 . S
H1151 C1163 0.950 . S
C1152 H1144 0.950 . S
C1152 C1153 1.386 . S
C1152 C1154 1.391 . S
C1153 C1152 1.386 . S
C1153 C1157 1.393 . S
C1154 H1146 0.950 . S
C1154 C1152 1.391 . S
C1154 C1155 1.400 . S
C1155 C1154 1.400 . S
C1155 C1156 1.398 . S
C1155 C1161 1.491 . S
C1156 H1147 0.950 . S
C1156 C1155 1.398 . S
C1156 C1157 1.391 . S
C1157 H1145 0.950 . S
C1157 C1153 1.393 . S
C1157 C1156 1.391 . S
C1158 H1148 0.950 . S
C1158 C1159 1.386 . S
C1158 C1160 1.391 . S
C1159 C1158 1.386 . S
C1159 C1163 1.393 . S
C1160 H1149 0.950 . S
C1160 C1158 1.391 . S
C1160 C1161 1.400 . S
C1161 C1155 1.491 . S
C1161 C1160 1.400 . S
C1161 C1162 1.398 . S
C1162 H1150 0.950 . S
C1162 C1161 1.398 . S
C1162 C1163 1.391 . S
C1163 H1151 0.950 . S
C1163 C1159 1.393 . S
C1163 C1162 1.391 . S
H1164 C1172 0.950 . S
H1165 C1177 0.950 . S
H1166 C1174 0.950 . S
H1167 C1176 0.950 . S
H1168 C1178 0.950 . S
H1169 C1180 0.950 . S
H1170 C1182 0.950 . S
H1171 C1183 0.950 . S
C1172 H1164 0.950 . S
C1172 C1173 1.386 . S
C1172 C1174 1.391 . S
C1173 C1172 1.386 . S
C1173 C1177 1.393 . S
C1174 H1166 0.950 . S
C1174 C1172 1.391 . S
C1174 C1175 1.400 . S
C1175 C1174 1.400 . S
C1175 C1176 1.398 . S
C1175 C1181 1.491 . S
C1176 H1167 0.950 . S
C1176 C1175 1.398 . S
C1176 C1177 1.391 . S
C1177 H1165 0.950 . S
C1177 C1173 1.393 . S
C1177 C1176 1.391 . S
C1178 H1168 0.950 . S
C1178 C1179 1.386 . S
C1178 C1180 1.391 . S
C1179 C1178 1.386 . S
C1179 C1183 1.393 . S
C1180 H1169 0.950 . S
C1180 C1178 1.391 . S
C1180 C1181 1.400 . S
C1181 C1175 1.491 . S
C1181 C1180 1.400 . S
C1181 C1182 1.398 . S
C1182 H1170 0.950 . S
C1182 C1181 1.398 . S
C1182 C1183 1.391 . S
C1183 H1171 0.950 . S
C1183 C1179 1.393 . S
C1183 C1182 1.391 . S
H1184 C1192 0.950 . S
H1185 C1197 0.950 . S
H1186 C1194 0.950 . S
H1187 C1196 0.950 . S
H1188 C1198 0.950 . S
H1189 C1200 0.950 . S
H1190 C1202 0.950 . S
H1191 C1203 0.950 . S
C1192 H1184 0.950 . S
C1192 C1193 1.386 . S
C1192 C1194 1.391 . S
C1193 C1192 1.386 . S
C1193 C1197 1.393 . S
C1194 H1186 0.950 . S
C1194 C1192 1.391 . S
C1194 C1195 1.400 . S
C1195 C1194 1.400 . S
C1195 C1196 1.398 . S
C1195 C1201 1.491 . S
C1196 H1187 0.950 . S
C1196 C1195 1.398 . S
C1196 C1197 1.391 . S
C1197 H1185 0.950 . S
C1197 C1193 1.393 . S
C1197 C1196 1.391 . S
C1198 H1188 0.950 . S
C1198 C1199 1.386 . S
C1198 C1200 1.391 . S
C1199 C1198 1.386 . S
C1199 C1203 1.393 . S
C1200 H1189 0.950 . S
C1200 C1198 1.391 . S
C1200 C1201 1.400 . S
C1201 C1195 1.491 . S
C1201 C1200 1.400 . S
C1201 C1202 1.398 . S
C1202 H1190 0.950 . S
C1202 C1201 1.398 . S
C1202 C1203 1.391 . S
C1203 H1191 0.950 . S
C1203 C1199 1.393 . S
C1203 C1202 1.391 . S
H1204 C1212 0.950 . S
H1205 C1217 0.950 . S
H1206 C1214 0.950 . S
H1207 C1216 0.950 . S
H1208 C1218 0.950 . S
H1209 C1220 0.950 . S
H1210 C1222 0.950 . S
H1211 C1223 0.950 . S
C1212 H1204 0.950 . S
C1212 C1213 1.386 . S
C1212 C1214 1.391 . S
C1213 C1212 1.386 . S
C1213 C1217 1.393 . S
C1214 H1206 0.950 . S
C1214 C1212 1.391 . S
C1214 C1215 1.400 . S
C1215 C1214 1.400 . S
C1215 C1216 1.398 . S
C1215 C1221 1.491 . S
C1216 H1207 0.950 . S
C1216 C1215 1.398 . S
C1216 C1217 1.391 . S
C1217 H1205 0.950 . S
C1217 C1213 1.393 . S
C1217 C1216 1.391 . S
C1218 H1208 0.950 . S
C1218 C1219 1.386 . S
C1218 C1220 1.391 . S
C1219 C1218 1.386 . S
C1219 C1223 1.393 . S
C1220 H1209 0.950 . S
C1220 C1218 1.391 . S
C1220 C1221 1.400 . S
C1221 C1215 1.491 . S
C1221 C1220 1.400 . S
C1221 C1222 1.398 . S
C1222 H1210 0.950 . S
C1222 C1221 1.398 . S
C1222 C1223 1.391 . S
C1223 H1211 0.950 . S
C1223 C1219 1.393 . S
C1223 C1222 1.391 . S
H1224 C1232 0.950 . S
H1225 C1237 0.950 . S
H1226 C1234 0.950 . S
H1227 C1236 0.950 . S
H1228 C1238 0.950 . S
H1229 C1240 0.950 . S
H1230 C1242 0.950 . S
H1231 C1243 0.950 . S
C1232 H1224 0.950 . S
C1232 C1233 1.386 . S
C1232 C1234 1.391 . S
C1233 C1232 1.386 . S
C1233 C1237 1.393 . S
C1234 H1226 0.950 . S
C1234 C1232 1.391 . S
C1234 C1235 1.400 . S
C1235 C1234 1.400 . S
C1235 C1236 1.398 . S
C1235 C1241 1.491 . S
C1236 H1227 0.950 . S
C1236 C1235 1.398 . S
C1236 C1237 1.391 . S
C1237 H1225 0.950 . S
C1237 C1233 1.393 . S
C1237 C1236 1.391 . S
C1238 H1228 0.950 . S
C1238 C1239 1.386 . S
C1238 C1240 1.391 . S
C1239 C1238 1.386 . S
C1239 C1243 1.393 . S
C1240 H1229 0.950 . S
C1240 C1238 1.391 . S
C1240 C1241 1.400 . S
C1241 C1235 1.491 . S
C1241 C1240 1.400 . S
C1241 C1242 1.398 . S
C1242 H1230 0.950 . S
C1242 C1241 1.398 . S
C1242 C1243 1.391 . S
C1243 H1231 0.950 . S
C1243 C1239 1.393 . S
C1243 C1242 1.391 . S
H1244 C1252 0.950 . S
H1245 C1257 0.950 . S
H1246 C1254 0.950 . S
H1247 C1256 0.950 . S
H1248 C1258 0.950 . S
H1249 C1260 0.950 . S
H1250 C1262 0.950 . S
H1251 C1263 0.950 . S
C1252 H1244 0.950 . S
C1252 C1253 1.386 . S
C1252 C1254 1.391 . S
C1253 C1252 1.386 . S
C1253 C1257 1.393 . S
C1254 H1246 0.950 . S
C1254 C1252 1.391 . S
C1254 C1255 1.400 . S
C1255 C1254 1.400 . S
C1255 C1256 1.398 . S
C1255 C1261 1.491 . S
C1256 H1247 0.950 . S
C1256 C1255 1.398 . S
C1256 C1257 1.391 . S
C1257 H1245 0.950 . S
C1257 C1253 1.393 . S
C1257 C1256 1.391 . S
C1258 H1248 0.950 . S
C1258 C1259 1.386 . S
C1258 C1260 1.391 . S
C1259 C1258 1.386 . S
C1259 C1263 1.393 . S
C1260 H1249 0.950 . S
C1260 C1258 1.391 . S
C1260 C1261 1.400 . S
C1261 C1255 1.491 . S
C1261 C1260 1.400 . S
C1261 C1262 1.398 . S
C1262 H1250 0.950 . S
C1262 C1261 1.398 . S
C1262 C1263 1.391 . S
C1263 H1251 0.950 . S
C1263 C1259 1.393 . S
C1263 C1262 1.391 . S
H1264 C1272 0.950 . S
H1265 C1277 0.950 . S
H1266 C1274 0.950 . S
H1267 C1276 0.950 . S
H1268 C1278 0.950 . S
H1269 C1280 0.950 . S
H1270 C1282 0.950 . S
H1271 C1283 0.950 . S
C1272 H1264 0.950 . S
C1272 C1273 1.386 . S
C1272 C1274 1.391 . S
C1273 C1272 1.386 . S
C1273 C1277 1.393 . S
C1274 H1266 0.950 . S
C1274 C1272 1.391 . S
C1274 C1275 1.400 . S
C1275 C1274 1.400 . S
C1275 C1276 1.398 . S
C1275 C1281 1.491 . S
C1276 H1267 0.950 . S
C1276 C1275 1.398 . S
C1276 C1277 1.391 . S
C1277 H1265 0.950 . S
C1277 C1273 1.393 . S
C1277 C1276 1.391 . S
C1278 H1268 0.950 . S
C1278 C1279 1.386 . S
C1278 C1280 1.391 . S
C1279 C1278 1.386 . S
C1279 C1283 1.393 . S
C1280 H1269 0.950 . S
C1280 C1278 1.391 . S
C1280 C1281 1.400 . S
C1281 C1275 1.491 . S
C1281 C1280 1.400 . S
C1281 C1282 1.398 . S
C1282 H1270 0.950 . S
C1282 C1281 1.398 . S
C1282 C1283 1.391 . S
C1283 H1271 0.950 . S
C1283 C1279 1.393 . S
C1283 C1282 1.391 . S
H1284 C1292 0.950 . S
H1285 C1297 0.950 . S
H1286 C1294 0.950 . S
H1287 C1296 0.950 . S
H1288 C1298 0.950 . S
H1289 C1300 0.950 . S
H1290 C1302 0.950 . S
H1291 C1303 0.950 . S
C1292 H1284 0.950 . S
C1292 C1293 1.386 . S
C1292 C1294 1.391 . S
C1293 C1292 1.386 . S
C1293 C1297 1.393 . S
C1294 H1286 0.950 . S
C1294 C1292 1.391 . S
C1294 C1295 1.400 . S
C1295 C1294 1.400 . S
C1295 C1296 1.398 . S
C1295 C1301 1.491 . S
C1296 H1287 0.950 . S
C1296 C1295 1.398 . S
C1296 C1297 1.391 . S
C1297 H1285 0.950 . S
C1297 C1293 1.393 . S
C1297 C1296 1.391 . S
C1298 H1288 0.950 . S
C1298 C1299 1.386 1_455 S
C1298 C1300 1.391 . S
C1299 C1298 1.386 1_655 S
C1299 C1303 1.393 . S
C1300 H1289 0.950 . S
C1300 C1298 1.391 . S
C1300 C1301 1.400 . S
C1301 C1295 1.491 . S
C1301 C1300 1.400 . S
C1301 C1302 1.398 . S
C1302 H1290 0.950 . S
C1302 C1301 1.398 . S
C1302 C1303 1.391 1_455 S
C1303 H1291 0.950 . S
C1303 C1299 1.393 . S
C1303 C1302 1.391 1_655 S
H1304 C1312 0.950 . S
H1305 C1317 0.950 . S
H1306 C1314 0.950 . S
H1307 C1316 0.950 . S
H1308 C1318 0.950 . S
H1309 C1320 0.950 . S
H1310 C1322 0.950 . S
H1311 C1323 0.950 . S
C1312 H1304 0.950 . S
C1312 C1313 1.386 . S
C1312 C1314 1.391 . S
C1313 C1312 1.386 . S
C1313 C1317 1.393 . S
C1314 H1306 0.950 . S
C1314 C1312 1.391 . S
C1314 C1315 1.400 . S
C1315 C1314 1.400 . S
C1315 C1316 1.398 . S
C1315 C1321 1.491 . S
C1316 H1307 0.950 . S
C1316 C1315 1.398 . S
C1316 C1317 1.391 . S
C1317 H1305 0.950 . S
C1317 C1313 1.393 . S
C1317 C1316 1.391 . S
C1318 H1308 0.950 . S
C1318 C1319 1.386 . S
C1318 C1320 1.391 . S
C1319 C1318 1.386 . S
C1319 C1323 1.393 . S
C1320 H1309 0.950 . S
C1320 C1318 1.391 . S
C1320 C1321 1.400 . S
C1321 C1315 1.491 . S
C1321 C1320 1.400 . S
C1321 C1322 1.398 . S
C1322 H1310 0.950 . S
C1322 C1321 1.398 . S
C1322 C1323 1.391 . S
C1323 H1311 0.950 . S
C1323 C1319 1.393 . S
C1323 C1322 1.391 . S
H1324 C1332 0.950 . S
H1325 C1337 0.950 . S
H1326 C1334 0.950 . S
H1327 C1336 0.950 . S
H1328 C1338 0.950 . S
H1329 C1340 0.950 . S
H1330 C1342 0.950 . S
H1331 C1343 0.950 . S
C1332 H1324 0.950 . S
C1332 C1333 1.386 . S
C1332 C1334 1.391 . S
C1333 C1332 1.386 . S
C1333 C1337 1.393 . S
C1334 H1326 0.950 . S
C1334 C1332 1.391 . S
C1334 C1335 1.400 . S
C1335 C1334 1.400 . S
C1335 C1336 1.398 . S
C1335 C1341 1.491 . S
C1336 H1327 0.950 . S
C1336 C1335 1.398 . S
C1336 C1337 1.391 . S
C1337 H1325 0.950 . S
C1337 C1333 1.393 . S
C1337 C1336 1.391 . S
C1338 H1328 0.950 . S
C1338 C1339 1.386 . S
C1338 C1340 1.391 . S
C1339 C1338 1.386 . S
C1339 C1343 1.393 . S
C1340 H1329 0.950 . S
C1340 C1338 1.391 . S
C1340 C1341 1.400 . S
C1341 C1335 1.491 . S
C1341 C1340 1.400 . S
C1341 C1342 1.398 . S
C1342 H1330 0.950 . S
C1342 C1341 1.398 . S
C1342 C1343 1.391 . S
C1343 H1331 0.950 . S
C1343 C1339 1.393 . S
C1343 C1342 1.391 . S
H1344 C1352 0.950 . S
H1345 C1357 0.950 . S
H1346 C1354 0.950 . S
H1347 C1356 0.950 . S
H1348 C1358 0.950 . S
H1349 C1360 0.950 . S
H1350 C1362 0.950 1_556 S
H1351 C1363 0.950 . S
C1352 H1344 0.950 . S
C1352 C1353 1.386 . S
C1352 C1354 1.391 . S
C1353 C1352 1.386 . S
C1353 C1357 1.393 . S
C1354 H1346 0.950 . S
C1354 C1352 1.391 . S
C1354 C1355 1.400 . S
C1355 C1354 1.400 . S
C1355 C1356 1.398 . S
C1355 C1361 1.491 1_556 S
C1356 H1347 0.950 . S
C1356 C1355 1.398 . S
C1356 C1357 1.391 . S
C1357 H1345 0.950 . S
C1357 C1353 1.393 . S
C1357 C1356 1.391 . S
C1358 H1348 0.950 . S
C1358 C1359 1.386 . S
C1358 C1360 1.391 . S
C1359 C1358 1.386 . S
C1359 C1363 1.393 . S
C1360 H1349 0.950 . S
C1360 C1358 1.391 . S
C1360 C1361 1.400 . S
C1361 C1355 1.491 1_554 S
C1361 C1360 1.400 . S
C1361 C1362 1.398 . S
C1362 H1350 0.950 1_554 S
C1362 C1361 1.398 . S
C1362 C1363 1.391 . S
C1363 H1351 0.950 . S
C1363 C1359 1.393 . S
C1363 C1362 1.391 . S
H1364 C1372 0.950 . S
H1365 C1377 0.950 1_565 S
H1366 C1374 0.950 . S
H1367 C1376 0.950 . S
H1368 C1378 0.950 . S
H1369 C1380 0.950 . S
H1370 C1382 0.950 . S
H1371 C1383 0.950 . S
C1372 H1364 0.950 . S
C1372 C1373 1.386 . S
C1372 C1374 1.391 . S
C1373 C1372 1.386 . S
C1373 C1377 1.393 . S
C1374 H1366 0.950 . S
C1374 C1372 1.391 . S
C1374 C1375 1.400 . S
C1375 C1374 1.400 . S
C1375 C1376 1.398 1_545 S
C1375 C1381 1.491 . S
C1376 H1367 0.950 . S
C1376 C1375 1.398 1_565 S
C1376 C1377 1.391 1_565 S
C1377 H1365 0.950 1_545 S
C1377 C1373 1.393 . S
C1377 C1376 1.391 1_545 S
C1378 H1368 0.950 . S
C1378 C1379 1.386 . S
C1378 C1380 1.391 . S
C1379 C1378 1.386 . S
C1379 C1383 1.393 1_565 S
C1380 H1369 0.950 . S
C1380 C1378 1.391 . S
C1380 C1381 1.400 1_565 S
C1381 C1375 1.491 . S
C1381 C1380 1.400 1_545 S
C1381 C1382 1.398 . S
C1382 H1370 0.950 . S
C1382 C1381 1.398 . S
C1382 C1383 1.391 . S
C1383 H1371 0.950 . S
C1383 C1379 1.393 1_545 S
C1383 C1382 1.391 . S
H1384 C1392 0.950 . S
H1385 C1397 0.950 . S
H1386 C1394 0.950 . S
H1387 C1396 0.950 . S
H1388 C1398 0.950 . S
H1389 C1400 0.950 . S
H1390 C1402 0.950 . S
H1391 C1403 0.950 . S
C1392 H1384 0.950 . S
C1392 C1393 1.386 . S
C1392 C1394 1.391 . S
C1393 C1392 1.386 . S
C1393 C1397 1.393 . S
C1394 H1386 0.950 . S
C1394 C1392 1.391 . S
C1394 C1395 1.400 . S
C1395 C1394 1.400 . S
C1395 C1396 1.398 . S
C1395 C1401 1.491 . S
C1396 H1387 0.950 . S
C1396 C1395 1.398 . S
C1396 C1397 1.391 . S
C1397 H1385 0.950 . S
C1397 C1393 1.393 . S
C1397 C1396 1.391 . S
C1398 H1388 0.950 . S
C1398 C1399 1.386 . S
C1398 C1400 1.391 . S
C1399 C1398 1.386 . S
C1399 C1403 1.393 . S
C1400 H1389 0.950 . S
C1400 C1398 1.391 . S
C1400 C1401 1.400 . S
C1401 C1395 1.491 . S
C1401 C1400 1.400 . S
C1401 C1402 1.398 . S
C1402 H1390 0.950 . S
C1402 C1401 1.398 . S
C1402 C1403 1.391 . S
C1403 H1391 0.950 . S
C1403 C1399 1.393 . S
C1403 C1402 1.391 . S
H1404 C1412 0.950 1_545 S
H1405 C1417 0.950 . S
H1406 C1414 0.950 . S
H1407 C1416 0.950 . S
H1408 C1418 0.950 . S
H1409 C1420 0.950 . S
H1410 C1422 0.950 . S
H1411 C1423 0.950 . S
C1412 H1404 0.950 1_565 S
C1412 C1413 1.386 . S
C1412 C1414 1.391 1_565 S
C1413 C1412 1.386 . S
C1413 C1417 1.393 . S
C1414 H1406 0.950 . S
C1414 C1412 1.391 1_545 S
C1414 C1415 1.400 1_545 S
C1415 C1414 1.400 1_565 S
C1415 C1416 1.398 . S
C1415 C1421 1.491 . S
C1416 H1407 0.950 . S
C1416 C1415 1.398 . S
C1416 C1417 1.391 . S
C1417 H1405 0.950 . S
C1417 C1413 1.393 . S
C1417 C1416 1.391 . S
C1418 H1408 0.950 . S
C1418 C1419 1.386 1_565 S
C1418 C1420 1.391 . S
C1419 C1418 1.386 1_545 S
C1419 C1423 1.393 . S
C1420 H1409 0.950 . S
C1420 C1418 1.391 . S
C1420 C1421 1.400 . S
C1421 C1415 1.491 . S
C1421 C1420 1.400 . S
C1421 C1422 1.398 1_565 S
C1422 H1410 0.950 . S
C1422 C1421 1.398 1_545 S
C1422 C1423 1.391 . S
C1423 H1411 0.950 . S
C1423 C1419 1.393 . S
C1423 C1422 1.391 . S
H1424 C1432 0.950 . S
H1425 C1437 0.950 . S
H1426 C1434 0.950 1_554 S
H1427 C1436 0.950 . S
H1428 C1438 0.950 . S
H1429 C1440 0.950 . S
H1430 C1442 0.950 . S
H1431 C1443 0.950 . S
C1432 H1424 0.950 . S
C1432 C1433 1.386 . S
C1432 C1434 1.391 . S
C1433 C1432 1.386 . S
C1433 C1437 1.393 . S
C1434 H1426 0.950 1_556 S
C1434 C1432 1.391 . S
C1434 C1435 1.417 . S
C1435 C1434 1.417 . S
C1435 C1436 1.432 . S
C1435 C1441 1.443 1_556 S
C1436 H1427 0.950 . S
C1436 C1435 1.432 . S
C1436 C1437 1.391 . S
C1437 H1425 0.950 . S
C1437 C1433 1.393 . S
C1437 C1436 1.391 . S
C1438 H1428 0.950 . S
C1438 C1439 1.386 . S
C1438 C1440 1.391 . S
C1439 C1438 1.386 . S
C1439 C1443 1.393 . S
C1440 H1429 0.950 . S
C1440 C1438 1.391 . S
C1440 C1441 1.400 . S
C1441 C1435 1.443 1_554 S
C1441 C1440 1.400 . S
C1441 C1442 1.398 . S
C1442 H1430 0.950 . S
C1442 C1441 1.398 . S
C1442 C1443 1.391 . S
C1443 H1431 0.950 . S
C1443 C1439 1.393 . S
C1443 C1442 1.391 . S
H1444 C1452 0.950 . S
H1445 C1457 0.950 . S
H1446 C1454 0.950 . S
H1447 C1456 0.950 1_565 S
H1448 C1458 0.950 . S
H1449 C1460 0.950 . S
H1450 C1462 0.950 . S
H1451 C1463 0.950 . S
C1452 H1444 0.950 . S
C1452 C1453 1.386 . S
C1452 C1454 1.391 . S
C1453 C1452 1.386 . S
C1453 C1457 1.393 . S
C1454 H1446 0.950 . S
C1454 C1452 1.391 . S
C1454 C1455 1.400 . S
C1455 C1454 1.400 . S
C1455 C1456 1.398 . S
C1455 C1461 1.491 . S
C1456 H1447 0.950 1_545 S
C1456 C1455 1.398 . S
C1456 C1457 1.391 . S
C1457 H1445 0.950 . S
C1457 C1453 1.393 . S
C1457 C1456 1.391 . S
C1458 H1448 0.950 . S
C1458 C1459 1.386 . S
C1458 C1460 1.391 . S
C1459 C1458 1.386 . S
C1459 C1463 1.393 1_565 S
C1460 H1449 0.950 . S
C1460 C1458 1.391 . S
C1460 C1461 1.400 1_565 S
C1461 C1455 1.491 . S
C1461 C1460 1.400 1_545 S
C1461 C1462 1.398 . S
C1462 H1450 0.950 . S
C1462 C1461 1.398 . S
C1462 C1463 1.391 . S
C1463 H1451 0.950 . S
C1463 C1459 1.393 1_545 S
C1463 C1462 1.391 . S
H1464 C1472 0.950 . S
H1465 C1477 0.950 . S
H1466 C1474 0.950 . S
H1467 C1476 0.950 . S
H1468 C1478 0.950 . S
H1469 C1480 0.950 . S
H1470 C1482 0.950 . S
H1471 C1483 0.950 . S
C1472 H1464 0.950 . S
C1472 C1473 1.386 . S
C1472 C1474 1.391 . S
C1473 C1472 1.386 . S
C1473 C1477 1.393 . S
C1474 H1466 0.950 . S
C1474 C1472 1.391 . S
C1474 C1475 1.400 . S
C1475 C1474 1.400 . S
C1475 C1476 1.398 . S
C1475 C1481 1.491 . S
C1476 H1467 0.950 . S
C1476 C1475 1.398 . S
C1476 C1477 1.391 . S
C1477 H1465 0.950 . S
C1477 C1473 1.393 . S
C1477 C1476 1.391 . S
C1478 H1468 0.950 . S
C1478 C1479 1.386 . S
C1478 C1480 1.391 . S
C1479 C1478 1.386 . S
C1479 C1483 1.393 . S
C1480 H1469 0.950 . S
C1480 C1478 1.391 . S
C1480 C1481 1.400 . S
C1481 C1475 1.491 . S
C1481 C1480 1.400 . S
C1481 C1482 1.398 . S
C1482 H1470 0.950 . S
C1482 C1481 1.398 . S
C1482 C1483 1.391 . S
C1483 H1471 0.950 . S
C1483 C1479 1.393 . S
C1483 C1482 1.391 . S
H1484 C1492 0.950 . S
H1485 C1497 0.950 . S
H1486 C1494 0.950 . S
H1487 C1496 0.950 . S
H1488 C1498 0.950 . S
H1489 C1500 0.950 . S
H1490 C1502 0.950 . S
H1491 C1503 0.950 . S
C1492 H1484 0.950 . S
C1492 C1493 1.386 1_565 S
C1492 C1494 1.391 . S
C1493 C1492 1.386 1_545 S
C1493 C1497 1.393 . S
C1494 H1486 0.950 . S
C1494 C1492 1.391 . S
C1494 C1495 1.400 1_565 S
C1495 C1494 1.400 1_545 S
C1495 C1496 1.398 . S
C1495 C1501 1.491 . S
C1496 H1487 0.950 . S
C1496 C1495 1.398 . S
C1496 C1497 1.391 . S
C1497 H1485 0.950 . S
C1497 C1493 1.393 . S
C1497 C1496 1.391 . S
C1498 H1488 0.950 . S
C1498 C1499 1.386 1_545 S
C1498 C1500 1.391 . S
C1499 C1498 1.386 1_565 S
C1499 C1503 1.393 . S
C1500 H1489 0.950 . S
C1500 C1498 1.391 . S
C1500 C1501 1.400 . S
C1501 C1495 1.491 . S
C1501 C1500 1.400 . S
C1501 C1502 1.398 1_545 S
C1502 H1490 0.950 . S
C1502 C1501 1.398 1_565 S
C1502 C1503 1.391 . S
C1503 H1491 0.950 . S
C1503 C1499 1.393 . S
C1503 C1502 1.391 . S
H1504 C1512 0.950 . S
H1505 C1517 0.950 . S
H1506 C1514 0.950 . S
H1507 C1516 0.950 . S
H1508 C1518 0.950 . S
H1509 C1520 0.950 . S
H1510 C1522 0.950 . S
H1511 C1523 0.950 . S
C1512 H1504 0.950 . S
C1512 C1513 1.386 . S
C1512 C1514 1.391 . S
C1513 C1512 1.386 . S
C1513 C1517 1.393 . S
C1514 H1506 0.950 . S
C1514 C1512 1.391 . S
C1514 C1515 1.400 . S
C1515 C1514 1.400 . S
C1515 C1516 1.398 . S
C1515 C1521 1.491 . S
C1516 H1507 0.950 . S
C1516 C1515 1.398 . S
C1516 C1517 1.391 . S
C1517 H1505 0.950 . S
C1517 C1513 1.393 . S
C1517 C1516 1.391 . S
C1518 H1508 0.950 . S
C1518 C1519 1.386 . S
C1518 C1520 1.391 . S
C1519 C1518 1.386 . S
C1519 C1523 1.393 . S
C1520 H1509 0.950 . S
C1520 C1518 1.391 . S
C1520 C1521 1.400 . S
C1521 C1515 1.491 . S
C1521 C1520 1.400 . S
C1521 C1522 1.398 . S
C1522 H1510 0.950 . S
C1522 C1521 1.398 . S
C1522 C1523 1.391 . S
C1523 H1511 0.950 . S
C1523 C1519 1.393 . S
C1523 C1522 1.391 . S
H1524 C1532 0.950 . S
H1525 C1537 0.950 . S
H1526 C1534 0.950 . S
H1527 C1536 0.950 . S
H1528 C1538 0.950 . S
H1529 C1540 0.950 . S
H1530 C1542 0.950 . S
H1531 C1543 0.950 . S
C1532 H1524 0.950 . S
C1532 C1533 1.386 . S
C1532 C1534 1.391 . S
C1533 C1532 1.386 . S
C1533 C1537 1.393 . S
C1534 H1526 0.950 . S
C1534 C1532 1.391 . S
C1534 C1535 1.400 . S
C1535 C1534 1.400 . S
C1535 C1536 1.398 . S
C1535 C1541 1.491 . S
C1536 H1527 0.950 . S
C1536 C1535 1.398 . S
C1536 C1537 1.391 . S
C1537 H1525 0.950 . S
C1537 C1533 1.393 . S
C1537 C1536 1.391 . S
C1538 H1528 0.950 . S
C1538 C1539 1.386 . S
C1538 C1540 1.391 . S
C1539 C1538 1.386 . S
C1539 C1543 1.393 . S
C1540 H1529 0.950 . S
C1540 C1538 1.391 . S
C1540 C1541 1.400 . S
C1541 C1535 1.491 . S
C1541 C1540 1.400 . S
C1541 C1542 1.398 . S
C1542 H1530 0.950 . S
C1542 C1541 1.398 . S
C1542 C1543 1.391 . S
C1543 H1531 0.950 . S
C1543 C1539 1.393 . S
C1543 C1542 1.391 . S
H1544 C1552 0.950 . S
H1545 C1557 0.950 . S
H1546 C1554 0.950 . S
H1547 C1556 0.950 . S
H1548 C1558 0.950 . S
H1549 C1560 0.950 . S
H1550 C1562 0.950 . S
H1551 C1563 0.950 . S
C1552 H1544 0.950 . S
C1552 C1553 1.386 . S
C1552 C1554 1.391 . S
C1553 C1552 1.386 . S
C1553 C1557 1.393 . S
C1554 H1546 0.950 . S
C1554 C1552 1.391 . S
C1554 C1555 1.400 . S
C1555 C1554 1.400 . S
C1555 C1556 1.398 . S
C1555 C1561 1.491 1_554 S
C1556 H1547 0.950 . S
C1556 C1555 1.398 . S
C1556 C1557 1.391 . S
C1557 H1545 0.950 . S
C1557 C1553 1.393 . S
C1557 C1556 1.391 . S
C1558 H1548 0.950 . S
C1558 C1559 1.386 . S
C1558 C1560 1.391 . S
C1559 C1558 1.386 . S
C1559 C1563 1.393 . S
C1560 H1549 0.950 . S
C1560 C1558 1.391 . S
C1560 C1561 1.400 . S
C1561 C1555 1.491 1_556 S
C1561 C1560 1.400 . S
C1561 C1562 1.398 . S
C1562 H1550 0.950 . S
C1562 C1561 1.398 . S
C1562 C1563 1.391 . S
C1563 H1551 0.950 . S
C1563 C1559 1.393 . S
C1563 C1562 1.391 . S
H1564 C1572 0.950 . S
H1565 C1577 0.950 . S
H1566 C1574 0.950 . S
H1567 C1576 0.950 . S
H1568 C1578 0.950 . S
H1569 C1580 0.950 . S
H1570 C1582 0.950 . S
H1571 C1583 0.950 . S
C1572 H1564 0.950 . S
C1572 C1573 1.386 . S
C1572 C1574 1.391 . S
C1573 C1572 1.386 . S
C1573 C1577 1.393 . S
C1574 H1566 0.950 . S
C1574 C1572 1.391 . S
C1574 C1575 1.400 . S
C1575 C1574 1.400 . S
C1575 C1576 1.398 . S
C1575 C1581 1.491 . S
C1576 H1567 0.950 . S
C1576 C1575 1.398 . S
C1576 C1577 1.391 . S
C1577 H1565 0.950 . S
C1577 C1573 1.393 . S
C1577 C1576 1.391 . S
C1578 H1568 0.950 . S
C1578 C1579 1.386 . S
C1578 C1580 1.391 . S
C1579 C1578 1.386 . S
C1579 C1583 1.393 . S
C1580 H1569 0.950 . S
C1580 C1578 1.391 . S
C1580 C1581 1.400 . S
C1581 C1575 1.491 . S
C1581 C1580 1.400 . S
C1581 C1582 1.398 . S
C1582 H1570 0.950 . S
C1582 C1581 1.398 . S
C1582 C1583 1.391 . S
C1583 H1571 0.950 . S
C1583 C1579 1.393 . S
C1583 C1582 1.391 . S
H1584 C1592 0.950 1_565 S
H1585 C1597 0.950 . S
H1586 C1594 0.950 . S
H1587 C1596 0.950 . S
H1588 C1598 0.950 . S
H1589 C1600 0.950 . S
H1590 C1602 0.950 . S
H1591 C1603 0.950 . S
C1592 H1584 0.950 1_545 S
C1592 C1593 1.386 . S
C1592 C1594 1.391 . S
C1593 C1592 1.386 . S
C1593 C1597 1.393 . S
C1594 H1586 0.950 . S
C1594 C1592 1.391 . S
C1594 C1595 1.400 . S
C1595 C1594 1.400 . S
C1595 C1596 1.398 . S
C1595 C1601 1.491 . S
C1596 H1587 0.950 . S
C1596 C1595 1.398 . S
C1596 C1597 1.391 . S
C1597 H1585 0.950 . S
C1597 C1593 1.393 . S
C1597 C1596 1.391 . S
C1598 H1588 0.950 . S
C1598 C1599 1.386 . S
C1598 C1600 1.391 . S
C1599 C1598 1.386 . S
C1599 C1603 1.393 . S
C1600 H1589 0.950 . S
C1600 C1598 1.391 . S
C1600 C1601 1.400 . S
C1601 C1595 1.491 . S
C1601 C1600 1.400 . S
C1601 C1602 1.398 . S
C1602 H1590 0.950 . S
C1602 C1601 1.398 . S
C1602 C1603 1.391 . S
C1603 H1591 0.950 . S
C1603 C1599 1.393 . S
C1603 C1602 1.391 . S
H1604 C1612 0.950 . S
H1605 C1617 0.950 . S
H1606 C1614 0.950 . S
H1607 C1616 0.950 . S
H1608 C1618 0.950 . S
H1609 C1620 0.950 . S
H1610 C1622 0.950 . S
H1611 C1623 0.950 . S
C1612 H1604 0.950 . S
C1612 C1613 1.386 . S
C1612 C1614 1.391 . S
C1613 C1612 1.386 . S
C1613 C1617 1.393 . S
C1614 H1606 0.950 . S
C1614 C1612 1.391 . S
C1614 C1615 1.400 . S
C1615 C1614 1.400 . S
C1615 C1616 1.398 . S
C1615 C1621 1.491 . S
C1616 H1607 0.950 . S
C1616 C1615 1.398 . S
C1616 C1617 1.391 . S
C1617 H1605 0.950 . S
C1617 C1613 1.393 . S
C1617 C1616 1.391 . S
C1618 H1608 0.950 . S
C1618 C1619 1.386 . S
C1618 C1620 1.391 . S
C1619 C1618 1.386 . S
C1619 C1623 1.393 . S
C1620 H1609 0.950 . S
C1620 C1618 1.391 . S
C1620 C1621 1.400 . S
C1621 C1615 1.491 . S
C1621 C1620 1.400 . S
C1621 C1622 1.398 . S
C1622 H1610 0.950 . S
C1622 C1621 1.398 . S
C1622 C1623 1.391 . S
C1623 H1611 0.950 . S
C1623 C1619 1.393 . S
C1623 C1622 1.391 . S
H1624 C1632 0.950 . S
H1625 C1637 0.950 . S
H1626 C1634 0.950 . S
H1627 C1636 0.950 . S
H1628 C1638 0.950 . S
H1629 C1640 0.950 . S
H1630 C1642 0.950 . S
H1631 C1643 0.950 . S
C1632 H1624 0.950 . S
C1632 C1633 1.386 . S
C1632 C1634 1.391 . S
C1633 C1632 1.386 . S
C1633 C1637 1.393 . S
C1634 H1626 0.950 . S
C1634 C1632 1.391 . S
C1634 C1635 1.400 . S
C1635 C1634 1.400 . S
C1635 C1636 1.398 . S
C1635 C1641 1.491 1_554 S
C1636 H1627 0.950 . S
C1636 C1635 1.398 . S
C1636 C1637 1.391 . S
C1637 H1625 0.950 . S
C1637 C1633 1.393 . S
C1637 C1636 1.391 . S
C1638 H1628 0.950 . S
C1638 C1639 1.386 . S
C1638 C1640 1.391 . S
C1639 C1638 1.386 . S
C1639 C1643 1.393 . S
C1640 H1629 0.950 . S
C1640 C1638 1.391 . S
C1640 C1641 1.400 . S
C1641 C1635 1.491 1_556 S
C1641 C1640 1.400 . S
C1641 C1642 1.398 . S
C1642 H1630 0.950 . S
C1642 C1641 1.398 . S
C1642 C1643 1.391 . S
C1643 H1631 0.950 . S
C1643 C1639 1.393 . S
C1643 C1642 1.391 . S
H1644 C1652 0.950 . S
H1645 C1657 0.950 . S
H1646 C1654 0.950 . S
H1647 C1656 0.950 . S
H1648 C1658 0.950 . S
H1649 C1660 0.950 . S
H1650 C1662 0.950 . S
H1651 C1663 0.950 . S
C1652 H1644 0.950 . S
C1652 C1653 1.386 . S
C1652 C1654 1.391 . S
C1653 C1652 1.386 . S
C1653 C1657 1.393 . S
C1654 H1646 0.950 . S
C1654 C1652 1.391 . S
C1654 C1655 1.400 . S
C1655 C1654 1.400 . S
C1655 C1656 1.398 . S
C1655 C1661 1.491 . S
C1656 H1647 0.950 . S
C1656 C1655 1.398 . S
C1656 C1657 1.391 . S
C1657 H1645 0.950 . S
C1657 C1653 1.393 . S
C1657 C1656 1.391 . S
C1658 H1648 0.950 . S
C1658 C1659 1.386 . S
C1658 C1660 1.391 . S
C1659 C1658 1.386 . S
C1659 C1663 1.393 . S
C1660 H1649 0.950 . S
C1660 C1658 1.391 . S
C1660 C1661 1.400 . S
C1661 C1655 1.491 . S
C1661 C1660 1.400 . S
C1661 C1662 1.398 . S
C1662 H1650 0.950 . S
C1662 C1661 1.398 . S
C1662 C1663 1.391 . S
C1663 H1651 0.950 . S
C1663 C1659 1.393 . S
C1663 C1662 1.391 . S
C553 C1 1.549 . S
C559 C241 1.576 . S
C573 C35 1.496 . S
C579 C139 1.504 . S
C593 C71 1.444 . S
C599 C171 1.444 . S
C613 C205 1.575 . S
C619 C105 1.592 . S
C633 C275 1.500 . S
C639 C513 1.558 . S
C653 C307 1.575 . S
C659 C411 1.577 . S
C673 C445 1.471 . S
C679 C343 1.501 . S
C693 C377 1.619 . S
C699 C477 1.618 . S
C713 C391 2.497 . S
C719 C3 2.301 . S
C733 C37 1.834 . S
C739 C448 1.965 . S
C753 C96 1.371 . S
C759 C323 1.364 . S
C773 C130 1.835 . S
C779 C527 1.833 . S
C793 C459 2.004 1_565 S
C799 C137 1.847 . S
C813 C176 0.875 . S
C819 C334 0.872 . S
C833 C516 1.269 . S
C839 C207 1.297 . S
C853 C380 1.819 . S
C859 C239 1.703 . S
C873 C273 2.333 . S
C879 C119 2.534 1_565 S
C893 C312 1.113 1_565 S
C899 C198 1.095 . S
C913 C368 0.789 . S
C919 C62 0.789 . S
C933 C255 1.691 . S
C939 C402 1.696 . S
C953 C409 1.882 . S
C959 C187 2.030 1_545 S
C973 C51 1.388 . S
C979 C470 1.395 . S
C993 C244 1.252 . S
C999 C479 1.279 . S
C1013 C511 1.494 . S
C1019 C108 1.571 . S
C1033 C425 2.285 . S
C1039 C173 2.108 . S
C1053 C278 1.077 . S
C1059 C210 1.102 . S
C1073 C493 1.173 . S
C1079 C266 1.175 . S
C1093 C357 1.725 . S
C1099 C164 1.729 1_655 S
C1113 C289 1.920 . S
C1119 C103 1.810 . S
C1133 C504 0.681 . S
C1139 C6 0.667 . S
C1153 C40 0.568 . S
C1159 C346 0.617 . S
C1173 C414 1.623 . S
C1179 C69 1.513 . S
C1193 C443 2.231 . S
C1199 C153 2.413 . S
C1213 C28 1.118 . S
C1219 C482 1.132 . S
C1233 C538 1.417 . S
C1239 C221 1.411 . S
C1253 C436 1.847 1_455 S
C1259 C85 1.847 . S
C1273 C375 1.748 . S
C1279 C17 1.872 . S
C1293 C232 0.667 . S
C1299 C300 0.632 . S
C1313 C74 1.245 . S
C1319 C309 1.249 . S
C1333 C341 1.576 . S
C1339 C142 1.687 . S
C1353 C219 1.579 . S
C1359 C15 1.568 . S
C1373 C260 1.576 . S
C1379 C49 1.585 . S
C1393 C83 1.421 . S
C1399 C158 1.429 . S
C1413 C192 1.833 . S
C1419 C117 1.700 . S
C1433 C294 1.556 . S
C1439 C491 1.563 . S
C1453 C328 1.563 . S
C1459 C532 1.619 . S
C1473 C430 1.728 . S
C1479 C355 1.742 . S
C1493 C457 1.592 . S
C1499 C389 1.572 . S
C1513 C56 1.489 . S
C1519 C185 1.520 . S
C1533 C90 1.624 . S
C1539 C226 1.557 . S
C1553 C253 1.587 . S
C1559 C124 1.598 . S
C1573 C151 1.916 . S
C1579 C22 1.932 . S
C1593 C321 1.647 . S
C1599 C464 1.634 . S
C1613 C498 1.557 . S
C1619 C362 1.667 . S
C1633 C396 1.554 . S
C1639 C525 1.556 . S
C1653 C423 1.749 . S
C1659 C287 1.846 . S
