# Generated by pormake.
# Topology ict, (4)-cn, num edge types: 1
# Building blocks:
#     Node 0, Type 0, BuildingBlock: CEKHIL_clean_sbu_0, # of connection points: 4
#     Node 1, Type 0, BuildingBlock: CEKHIL_clean_sbu_0, # of connection points: 4
#     Node 2, Type 0, BuildingBlock: CEKHIL_clean_sbu_0, # of connection points: 4
#     Node 3, Type 0, BuildingBlock: CEKHIL_clean_sbu_0, # of connection points: 4
#     Node 4, Type 0, BuildingBlock: CEKHIL_clean_sbu_0, # of connection points: 4
#     Node 5, Type 0, BuildingBlock: CEKHIL_clean_sbu_0, # of connection points: 4
#     Node 6, Type 0, BuildingBlock: CEKHIL_clean_sbu_0, # of connection points: 4
#     Node 7, Type 0, BuildingBlock: CEKHIL_clean_sbu_0, # of connection points: 4
#     Node 8, Type 0, BuildingBlock: CEKHIL_clean_sbu_0, # of connection points: 4
#     Node 9, Type 0, BuildingBlock: CEKHIL_clean_sbu_0, # of connection points: 4
#     Node 10, Type 0, BuildingBlock: CEKHIL_clean_sbu_0, # of connection points: 4
#     Node 11, Type 0, BuildingBlock: CEKHIL_clean_sbu_0, # of connection points: 4
#     Node 12, Type 0, BuildingBlock: CEKHIL_clean_sbu_0, # of connection points: 4
#     Node 13, Type 0, BuildingBlock: CEKHIL_clean_sbu_0, # of connection points: 4
#     Node 14, Type 0, BuildingBlock: CEKHIL_clean_sbu_0, # of connection points: 4
#     Node 15, Type 0, BuildingBlock: CEKHIL_clean_sbu_0, # of connection points: 4
#     Node 16, Type 0, BuildingBlock: CEKHIL_clean_sbu_0, # of connection points: 4
#     Node 17, Type 0, BuildingBlock: CEKHIL_clean_sbu_0, # of connection points: 4
#     Node 18, Type 0, BuildingBlock: CEKHIL_clean_sbu_0, # of connection points: 4
#     Node 19, Type 0, BuildingBlock: CEKHIL_clean_sbu_0, # of connection points: 4
#     Node 20, Type 0, BuildingBlock: CEKHIL_clean_sbu_0, # of connection points: 4
#     Node 21, Type 0, BuildingBlock: CEKHIL_clean_sbu_0, # of connection points: 4
#     Node 22, Type 0, BuildingBlock: CEKHIL_clean_sbu_0, # of connection points: 4
#     Node 23, Type 0, BuildingBlock: CEKHIL_clean_sbu_0, # of connection points: 4
#     Node 24, Type 0, BuildingBlock: CEKHIL_clean_sbu_0, # of connection points: 4
#     Node 25, Type 0, BuildingBlock: CEKHIL_clean_sbu_0, # of connection points: 4
#     Node 26, Type 0, BuildingBlock: CEKHIL_clean_sbu_0, # of connection points: 4
#     Node 27, Type 0, BuildingBlock: CEKHIL_clean_sbu_0, # of connection points: 4
#     Node 28, Type 0, BuildingBlock: CEKHIL_clean_sbu_0, # of connection points: 4
#     Node 29, Type 0, BuildingBlock: CEKHIL_clean_sbu_0, # of connection points: 4
#     Node 30, Type 0, BuildingBlock: CEKHIL_clean_sbu_0, # of connection points: 4
#     Node 31, Type 0, BuildingBlock: CEKHIL_clean_sbu_0, # of connection points: 4
#     Node 32, Type 0, BuildingBlock: CEKHIL_clean_sbu_0, # of connection points: 4
#     Node 33, Type 0, BuildingBlock: CEKHIL_clean_sbu_0, # of connection points: 4
#     Node 34, Type 0, BuildingBlock: CEKHIL_clean_sbu_0, # of connection points: 4
#     Node 35, Type 0, BuildingBlock: CEKHIL_clean_sbu_0, # of connection points: 4
#     Edge 36, Type (0, 0), BuildingBlock: XIVTED_clean_linker_0, # of connection points: 2
#     Edge 37, Type (0, 0), BuildingBlock: XIVTED_clean_linker_0, # of connection points: 2
#     Edge 38, Type (0, 0), BuildingBlock: XIVTED_clean_linker_0, # of connection points: 2
#     Edge 39, Type (0, 0), BuildingBlock: XIVTED_clean_linker_0, # of connection points: 2
#     Edge 40, Type (0, 0), BuildingBlock: XIVTED_clean_linker_0, # of connection points: 2
#     Edge 41, Type (0, 0), BuildingBlock: XIVTED_clean_linker_0, # of connection points: 2
#     Edge 42, Type (0, 0), BuildingBlock: XIVTED_clean_linker_0, # of connection points: 2
#     Edge 43, Type (0, 0), BuildingBlock: XIVTED_clean_linker_0, # of connection points: 2
#     Edge 44, Type (0, 0), BuildingBlock: XIVTED_clean_linker_0, # of connection points: 2
#     Edge 45, Type (0, 0), BuildingBlock: XIVTED_clean_linker_0, # of connection points: 2
#     Edge 46, Type (0, 0), BuildingBlock: XIVTED_clean_linker_0, # of connection points: 2
#     Edge 47, Type (0, 0), BuildingBlock: XIVTED_clean_linker_0, # of connection points: 2
#     Edge 48, Type (0, 0), BuildingBlock: XIVTED_clean_linker_0, # of connection points: 2
#     Edge 49, Type (0, 0), BuildingBlock: XIVTED_clean_linker_0, # of connection points: 2
#     Edge 50, Type (0, 0), BuildingBlock: XIVTED_clean_linker_0, # of connection points: 2
#     Edge 51, Type (0, 0), BuildingBlock: XIVTED_clean_linker_0, # of connection points: 2
#     Edge 52, Type (0, 0), BuildingBlock: XIVTED_clean_linker_0, # of connection points: 2
#     Edge 53, Type (0, 0), BuildingBlock: XIVTED_clean_linker_0, # of connection points: 2
#     Edge 54, Type (0, 0), BuildingBlock: XIVTED_clean_linker_0, # of connection points: 2
#     Edge 55, Type (0, 0), BuildingBlock: XIVTED_clean_linker_0, # of connection points: 2
#     Edge 56, Type (0, 0), BuildingBlock: XIVTED_clean_linker_0, # of connection points: 2
#     Edge 57, Type (0, 0), BuildingBlock: XIVTED_clean_linker_0, # of connection points: 2
#     Edge 58, Type (0, 0), BuildingBlock: XIVTED_clean_linker_0, # of connection points: 2
#     Edge 59, Type (0, 0), BuildingBlock: XIVTED_clean_linker_0, # of connection points: 2
#     Edge 60, Type (0, 0), BuildingBlock: XIVTED_clean_linker_0, # of connection points: 2
#     Edge 61, Type (0, 0), BuildingBlock: XIVTED_clean_linker_0, # of connection points: 2
#     Edge 62, Type (0, 0), BuildingBlock: XIVTED_clean_linker_0, # of connection points: 2
#     Edge 63, Type (0, 0), BuildingBlock: XIVTED_clean_linker_0, # of connection points: 2
#     Edge 64, Type (0, 0), BuildingBlock: XIVTED_clean_linker_0, # of connection points: 2
#     Edge 65, Type (0, 0), BuildingBlock: XIVTED_clean_linker_0, # of connection points: 2
#     Edge 66, Type (0, 0), BuildingBlock: XIVTED_clean_linker_0, # of connection points: 2
#     Edge 67, Type (0, 0), BuildingBlock: XIVTED_clean_linker_0, # of connection points: 2
#     Edge 68, Type (0, 0), BuildingBlock: XIVTED_clean_linker_0, # of connection points: 2
#     Edge 69, Type (0, 0), BuildingBlock: XIVTED_clean_linker_0, # of connection points: 2
#     Edge 70, Type (0, 0), BuildingBlock: XIVTED_clean_linker_0, # of connection points: 2
#     Edge 71, Type (0, 0), BuildingBlock: XIVTED_clean_linker_0, # of connection points: 2
#     Edge 72, Type (0, 0), BuildingBlock: XIVTED_clean_linker_0, # of connection points: 2
#     Edge 73, Type (0, 0), BuildingBlock: XIVTED_clean_linker_0, # of connection points: 2
#     Edge 74, Type (0, 0), BuildingBlock: XIVTED_clean_linker_0, # of connection points: 2
#     Edge 75, Type (0, 0), BuildingBlock: XIVTED_clean_linker_0, # of connection points: 2
#     Edge 76, Type (0, 0), BuildingBlock: XIVTED_clean_linker_0, # of connection points: 2
#     Edge 77, Type (0, 0), BuildingBlock: XIVTED_clean_linker_0, # of connection points: 2
#     Edge 78, Type (0, 0), BuildingBlock: XIVTED_clean_linker_0, # of connection points: 2
#     Edge 79, Type (0, 0), BuildingBlock: XIVTED_clean_linker_0, # of connection points: 2
#     Edge 80, Type (0, 0), BuildingBlock: XIVTED_clean_linker_0, # of connection points: 2
#     Edge 81, Type (0, 0), BuildingBlock: XIVTED_clean_linker_0, # of connection points: 2
#     Edge 82, Type (0, 0), BuildingBlock: XIVTED_clean_linker_0, # of connection points: 2
#     Edge 83, Type (0, 0), BuildingBlock: XIVTED_clean_linker_0, # of connection points: 2
#     Edge 84, Type (0, 0), BuildingBlock: XIVTED_clean_linker_0, # of connection points: 2
#     Edge 85, Type (0, 0), BuildingBlock: XIVTED_clean_linker_0, # of connection points: 2
#     Edge 86, Type (0, 0), BuildingBlock: XIVTED_clean_linker_0, # of connection points: 2
#     Edge 87, Type (0, 0), BuildingBlock: XIVTED_clean_linker_0, # of connection points: 2
#     Edge 88, Type (0, 0), BuildingBlock: XIVTED_clean_linker_0, # of connection points: 2
#     Edge 89, Type (0, 0), BuildingBlock: XIVTED_clean_linker_0, # of connection points: 2
#     Edge 90, Type (0, 0), BuildingBlock: XIVTED_clean_linker_0, # of connection points: 2
#     Edge 91, Type (0, 0), BuildingBlock: XIVTED_clean_linker_0, # of connection points: 2
#     Edge 92, Type (0, 0), BuildingBlock: XIVTED_clean_linker_0, # of connection points: 2
#     Edge 93, Type (0, 0), BuildingBlock: XIVTED_clean_linker_0, # of connection points: 2
#     Edge 94, Type (0, 0), BuildingBlock: XIVTED_clean_linker_0, # of connection points: 2
#     Edge 95, Type (0, 0), BuildingBlock: XIVTED_clean_linker_0, # of connection points: 2
#     Edge 96, Type (0, 0), BuildingBlock: XIVTED_clean_linker_0, # of connection points: 2
#     Edge 97, Type (0, 0), BuildingBlock: XIVTED_clean_linker_0, # of connection points: 2
#     Edge 98, Type (0, 0), BuildingBlock: XIVTED_clean_linker_0, # of connection points: 2
#     Edge 99, Type (0, 0), BuildingBlock: XIVTED_clean_linker_0, # of connection points: 2
#     Edge 100, Type (0, 0), BuildingBlock: XIVTED_clean_linker_0, # of connection points: 2
#     Edge 101, Type (0, 0), BuildingBlock: XIVTED_clean_linker_0, # of connection points: 2
#     Edge 102, Type (0, 0), BuildingBlock: XIVTED_clean_linker_0, # of connection points: 2
#     Edge 103, Type (0, 0), BuildingBlock: XIVTED_clean_linker_0, # of connection points: 2
#     Edge 104, Type (0, 0), BuildingBlock: XIVTED_clean_linker_0, # of connection points: 2
#     Edge 105, Type (0, 0), BuildingBlock: XIVTED_clean_linker_0, # of connection points: 2
#     Edge 106, Type (0, 0), BuildingBlock: XIVTED_clean_linker_0, # of connection points: 2
#     Edge 107, Type (0, 0), BuildingBlock: XIVTED_clean_linker_0, # of connection points: 2
# Relax obj value: 0.096
# Max RMSD: 0.121
# Mean RMSD: 0.121
data_MOF--net-ict--node1-CEKHIL_clean_sbu_0--edge1-XIVTED_clean_linker_0
_symmetry_space_group_name_H-M    P1
_symmetry_Int_Tables_number       1
_symmetry_cell_setting            triclinic
loop_
_symmetry_equiv_pos_as_xyz
'x, y, z'
_cell_length_a     64.507482
_cell_length_b     64.505849
_cell_length_c     37.099444
_cell_angle_alpha  90.003794
_cell_angle_beta   90.003621
_cell_angle_gamma 120.00898
loop_
_atom_site_label
_atom_site_type_symbol
_atom_site_fract_x
_atom_site_fract_y
_atom_site_fract_z
_atom_type_partial_charge
Co0 Co 0.22861 0.22327 0.04364 0.0
O1 O 0.24167 0.22904 0.99595 0.0
O2 O 0.26344 0.23994 0.04573 0.0
C3 C 0.20214 0.23537 0.03027 0.0
O4 O 0.22105 0.22101 0.09784 0.0
Co5 Co 0.17503 0.18665 0.05631 0.0
O6 O 0.18108 0.20115 0.10481 0.0
C7 C 0.20885 0.16998 0.03719 0.0
C8 C 0.26269 0.23929 0.01063 0.0
C9 C 0.20214 0.21357 0.11758 0.0
O10 O 0.22683 0.191 0.0433 0.0
O11 O 0.18712 0.16542 0.03814 0.0
O12 O 0.22387 0.25106 0.03954 0.0
O13 O 0.19762 0.21359 0.02802 0.0
Co14 Co 0.77719 0.00433 0.03821 0.0
O15 O 0.7725 0.01261 0.99049 0.0
O16 O 0.75996 0.02193 0.04009 0.0
C17 C 0.76614 0.96628 0.023 0.0
O18 O 0.77817 0.99789 0.0923 0.0
Co19 Co 0.81398 0.9877 0.05227 0.0
O20 O 0.79786 0.97765 0.09953 0.0
C21 C 0.83061 0.03884 0.0378 0.0
C22 C 0.76153 0.02269 0.00505 0.0
C23 C 0.78513 0.98601 0.11201 0.0
O24 O 0.80909 0.03508 0.04064 0.0
O25 O 0.83569 0.02203 0.03897 0.0
O26 O 0.74991 0.9717 0.03177 0.0
O27 O 0.78783 0.98382 0.02243 0.0
Co28 Co 0.99379 0.76742 0.04289 0.0
O29 O 0.98912 0.75876 0.99252 0.0
O30 O 0.9761 0.73302 0.03789 0.0
C31 C 0.03286 0.79553 0.03802 0.0
O32 O 0.99566 0.76912 0.0981 0.0
Co33 Co 0.00879 0.81882 0.06952 0.0
O34 O 0.01496 0.80763 0.11587 0.0
C35 C 0.95961 0.78674 0.04235 0.0
C36 C 0.97778 0.73663 0.00327 0.0
C37 C 0.00584 0.7854 0.12249 0.0
O38 O 0.96307 0.76872 0.04277 0.0
O39 O 0.97617 0.80817 0.0493 0.0
O40 O 0.02676 0.77307 0.04032 0.0
O41 O 0.01548 0.79989 0.03624 0.0
Co42 Co 0.22359 0.23181 0.46348 0.0
O43 O 0.23342 0.2427 0.51211 0.0
O44 O 0.24188 0.26643 0.46467 0.0
C45 C 0.23312 0.20256 0.4644 0.0
O46 O 0.21733 0.22705 0.40904 0.0
Co47 Co 0.18196 0.17986 0.44933 0.0
O48 O 0.18999 0.18848 0.39797 0.0
C49 C 0.17232 0.21546 0.48299 0.0
C50 C 0.24343 0.2643 0.49931 0.0
C51 C 0.20469 0.20963 0.38721 0.0
O52 O 0.19286 0.23241 0.47226 0.0
O53 O 0.16588 0.19328 0.47991 0.0
O54 O 0.24977 0.22457 0.45844 0.0
O55 O 0.21243 0.19959 0.4726 0.0
Co56 Co 0.77201 0.99178 0.45788 0.0
O57 O 0.76176 0.99102 0.50686 0.0
O58 O 0.73751 0.97647 0.45982 0.0
C59 C 0.80216 0.03016 0.45864 0.0
O60 O 0.77595 0.99005 0.40329 0.0
Co61 Co 0.82312 0.00039 0.44176 0.0
O62 O 0.81392 0.99976 0.39068 0.0
C63 C 0.787 0.95572 0.47627 0.0
C64 C 0.74003 0.98006 0.49445 0.0
C65 C 0.79279 0.99402 0.38078 0.0
O66 O 0.77034 0.9599 0.46613 0.0
O67 O 0.80929 0.97096 0.47259 0.0
O68 O 0.78033 0.02554 0.45326 0.0
O69 O 0.80451 0.01199 0.4663 0.0
Co70 Co 0.00747 0.77616 0.46701 0.0
O71 O 0.01019 0.77046 0.51748 0.0
O72 O 0.02375 0.75814 0.47228 0.0
C73 C 0.96876 0.76679 0.46887 0.0
O74 O 0.00738 0.77743 0.41181 0.0
Co75 Co 0.99589 0.81503 0.44079 0.0
O76 O 0.98984 0.79829 0.39382 0.0
C77 C 0.04297 0.82898 0.47335 0.0
C78 C 0.02119 0.75929 0.50685 0.0
C79 C 0.99822 0.78453 0.38722 0.0
O80 O 0.03892 0.80737 0.47014 0.0
O81 O 0.02727 0.83496 0.46599 0.0
O82 O 0.97398 0.74979 0.46661 0.0
O83 O 0.98669 0.78811 0.47265 0.0
Co84 Co 0.77044 0.77615 0.95953 0.0
O85 O 0.75918 0.77121 0.00838 0.0
O86 O 0.73622 0.75385 0.96083 0.0
C87 C 0.80309 0.77296 0.97168 0.0
O88 O 0.77613 0.77641 0.90498 0.0
Co89 Co 0.82012 0.81966 0.93964 0.0
O90 O 0.81532 0.80135 0.89467 0.0
C91 C 0.77895 0.82683 0.95347 0.0
C92 C 0.73801 0.75688 0.99564 0.0
C93 C 0.79462 0.78536 0.8841 0.0
O94 O 0.76458 0.80408 0.95553 0.0
O95 O 0.8016 0.83637 0.94928 0.0
O96 O 0.78247 0.75375 0.96663 0.0
O97 O 0.80279 0.79277 0.9715 0.0
Co98 Co 0.22057 0.99131 0.96279 0.0
O99 O 0.22791 0.98761 0.0117 0.0
O100 O 0.24256 0.97899 0.96373 0.0
C101 C 0.22466 0.02792 0.9711 0.0
O102 O 0.21756 0.99401 0.90797 0.0
Co103 Co 0.17578 0.9963 0.94699 0.0
O104 O 0.19063 0.00598 0.89874 0.0
C105 C 0.17039 0.95081 0.97352 0.0
C106 C 0.24129 0.97969 0.99872 0.0
C107 C 0.2068 0.00178 0.88726 0.0
O108 O 0.19212 0.95758 0.96438 0.0
O109 O 0.16145 0.96459 0.972 0.0
O110 O 0.24354 0.02605 0.96518 0.0
O111 O 0.20493 0.00795 0.97434 0.0
Co112 Co 0.00822 0.23096 0.96469 0.0
O113 O 0.01416 0.24157 0.01388 0.0
O114 O 0.01948 0.26505 0.96717 0.0
C115 C 0.97267 0.19782 0.97625 0.0
O116 O 0.00293 0.22577 0.90994 0.0
Co117 Co 0.00313 0.18195 0.94344 0.0
O118 O 0.98887 0.18665 0.89922 0.0
C119 C 0.05104 0.2235 0.95839 0.0
C120 C 0.02056 0.26281 1.00192 0.0
C121 C 0.99326 0.20731 0.88897 0.0
O122 O 0.04226 0.23752 0.96074 0.0
O123 O 0.03829 0.20086 0.95356 0.0
O124 O 0.97369 0.2183 0.97166 0.0
O125 O 0.99297 0.1985 0.97588 0.0
Co126 Co 0.77613 0.76745 0.53937 0.0
O127 O 0.7662 0.75695 0.49063 0.0
O128 O 0.75566 0.73305 0.53819 0.0
C129 C 0.76968 0.7988 0.53768 0.0
O130 O 0.7822 0.77189 0.59381 0.0
Co131 Co 0.82031 0.81793 0.55362 0.0
O132 O 0.81184 0.80955 0.60493 0.0
C133 C 0.82655 0.7798 0.52123 0.0
C134 C 0.75469 0.73536 0.50347 0.0
C135 C 0.79588 0.78884 0.61563 0.0
O136 O 0.80537 0.76402 0.53155 0.0
O137 O 0.83463 0.80235 0.52384 0.0
O138 O 0.75183 0.77737 0.54364 0.0
O139 O 0.7897 0.79999 0.52999 0.0
Co140 Co 0.23005 0.00932 0.54153 0.0
O141 O 0.24041 0.00945 0.49288 0.0
O142 O 0.26439 0.02239 0.54036 0.0
C143 C 0.19806 0.97191 0.53969 0.0
O144 O 0.22552 0.01103 0.59605 0.0
Co145 Co 0.1801 0.00442 0.55524 0.0
O146 O 0.18792 0.00341 0.60656 0.0
C147 C 0.2188 0.04775 0.52148 0.0
C148 C 0.26198 0.01894 0.50567 0.0
C149 C 0.20841 0.0077 0.61763 0.0
O150 O 0.2343 0.04233 0.53319 0.0
O151 O 0.1962 0.03357 0.52393 0.0
O152 O 0.21922 0.97488 0.54594 0.0
O153 O 0.19751 0.99106 0.53195 0.0
Co154 Co 0.99257 0.22226 0.54321 0.0
O155 O 0.99248 0.23128 0.49373 0.0
O156 O 0.97825 0.24232 0.53962 0.0
C157 C 0.0306 0.22934 0.54338 0.0
O158 O 0.9904 0.21735 0.59805 0.0
Co159 Co 0.99956 0.17907 0.56186 0.0
O160 O 0.99898 0.18851 0.61244 0.0
C161 C 0.95564 0.17136 0.52573 0.0
C162 C 0.98209 0.24285 0.5051 0.0
C163 C 0.9938 0.20448 0.62134 0.0
O164 O 0.96027 0.19248 0.53512 0.0
O165 O 0.97042 0.16382 0.53044 0.0
O166 O 0.02658 0.24702 0.54789 0.0
O167 O 0.01206 0.20898 0.53613 0.0
Co168 Co 0.89673 0.55218 0.3697 0.0
O169 O 0.90786 0.55672 0.32055 0.0
O170 O 0.93135 0.57049 0.36844 0.0
C171 C 0.86775 0.56123 0.35784 0.0
O172 O 0.8923 0.55217 0.42447 0.0
Co173 Co 0.84503 0.51517 0.39238 0.0
O174 O 0.85315 0.53348 0.43806 0.0
C175 C 0.8792 0.49926 0.36997 0.0
C176 C 0.92939 0.56858 0.33354 0.0
C177 C 0.87503 0.5465 0.44692 0.0
O178 O 0.89692 0.52091 0.37137 0.0
O179 O 0.85742 0.49396 0.37492 0.0
O180 O 0.8895 0.57833 0.36422 0.0
O181 O 0.86456 0.53988 0.3582 0.0
Co182 Co 0.44193 0.34095 0.38348 0.0
O183 O 0.43769 0.3452 0.33303 0.0
O184 O 0.42504 0.35841 0.37824 0.0
C185 C 0.43113 0.30185 0.37943 0.0
O186 O 0.44189 0.33952 0.43865 0.0
Co187 Co 0.47844 0.32634 0.41082 0.0
O188 O 0.46082 0.32009 0.45695 0.0
C189 C 0.49544 0.37541 0.38319 0.0
C190 C 0.4268 0.35647 0.34365 0.0
C191 C 0.44782 0.32936 0.46327 0.0
O192 O 0.47389 0.37178 0.38291 0.0
O193 O 0.5004 0.35899 0.39076 0.0
O194 O 0.41471 0.30789 0.3815 0.0
O195 O 0.45284 0.3193 0.37733 0.0
Co196 Co 0.65755 0.10033 0.37757 0.0
O197 O 0.65405 0.09105 0.32751 0.0
O198 O 0.63979 0.06588 0.3735 0.0
C199 C 0.69682 0.12825 0.37425 0.0
O200 O 0.65812 0.10265 0.43271 0.0
Co201 Co 0.67212 0.15195 0.40202 0.0
O202 O 0.67776 0.14136 0.44936 0.0
C203 C 0.62399 0.12007 0.37119 0.0
C204 C 0.64232 0.06906 0.33883 0.0
C205 C 0.66815 0.11918 0.45677 0.0
O206 O 0.627 0.10185 0.37443 0.0
O207 O 0.64055 0.14153 0.37797 0.0
O208 O 0.69048 0.10577 0.37762 0.0
O209 O 0.67957 0.13269 0.37058 0.0
Co210 Co 0.88576 0.56688 0.79181 0.0
O211 O 0.89141 0.57642 0.8417 0.0
O212 O 0.90438 0.60142 0.79542 0.0
C213 C 0.8945 0.53718 0.79783 0.0
O214 O 0.88443 0.56393 0.73662 0.0
Co215 Co 0.84693 0.51583 0.76786 0.0
O216 O 0.86439 0.52495 0.72141 0.0
C217 C 0.83317 0.54992 0.79792 0.0
C218 C 0.9031 0.59834 0.83018 0.0
C219 C 0.87778 0.54692 0.71332 0.0
O220 O 0.85469 0.56751 0.79381 0.0
O221 O 0.82729 0.52811 0.79175 0.0
O222 O 0.91174 0.55914 0.79354 0.0
O223 O 0.87334 0.53437 0.80008 0.0
Co224 Co 0.43646 0.3281 0.80706 0.0
O225 O 0.42773 0.32383 0.8575 0.0
O226 O 0.40217 0.31011 0.81189 0.0
C227 C 0.46415 0.36735 0.81075 0.0
O228 O 0.43801 0.32942 0.75193 0.0
Co229 Co 0.48779 0.3434 0.78025 0.0
O230 O 0.47644 0.34954 0.73398 0.0
C231 C 0.45638 0.29443 0.80847 0.0
C232 C 0.40565 0.31214 0.84653 0.0
C233 C 0.45414 0.33987 0.72744 0.0
O234 O 0.4382 0.29763 0.80801 0.0
O235 O 0.47769 0.31108 0.80113 0.0
O236 O 0.44159 0.36088 0.80857 0.0
O237 O 0.46885 0.35021 0.81334 0.0
Co238 Co 0.67701 0.11164 0.8005 0.0
O239 O 0.68388 0.10831 0.85011 0.0
O240 O 0.69272 0.09288 0.80332 0.0
C241 C 0.63931 0.10372 0.81215 0.0
O242 O 0.67229 0.1103 0.74572 0.0
Co243 Co 0.66298 0.14866 0.77467 0.0
O244 O 0.65251 0.12933 0.72997 0.0
C245 C 0.71337 0.16424 0.79501 0.0
C246 C 0.69307 0.09578 0.83805 0.0
C247 C 0.66106 0.11586 0.72238 0.0
O248 O 0.70878 0.14239 0.79681 0.0
O249 O 0.69726 0.16992 0.78906 0.0
O250 O 0.64348 0.08615 0.80739 0.0
O251 O 0.65776 0.12485 0.81052 0.0
Co252 Co 0.43495 0.11167 0.30308 0.0
O253 O 0.42481 0.10208 0.352 0.0
O254 O 0.40076 0.08963 0.30458 0.0
C255 C 0.46768 0.10742 0.30616 0.0
O256 O 0.43915 0.11706 0.24842 0.0
Co257 Co 0.4842 0.15722 0.28785 0.0
O258 O 0.47612 0.14786 0.23675 0.0
C259 C 0.44472 0.16131 0.32005 0.0
C260 C 0.40328 0.08931 0.33936 0.0
C261 C 0.45576 0.13102 0.22634 0.0
O262 O 0.42963 0.13987 0.30978 0.0
O263 O 0.46741 0.17033 0.3175 0.0
O264 O 0.44677 0.08879 0.30006 0.0
O265 O 0.46758 0.12695 0.31274 0.0
Co266 Co 0.88899 0.31993 0.29666 0.0
O267 O 0.89784 0.31894 0.34586 0.0
O268 O 0.91103 0.30777 0.29886 0.0
C269 C 0.8932 0.35688 0.30042 0.0
O270 O 0.88451 0.31938 0.24177 0.0
Co271 Co 0.84376 0.3238 0.27986 0.0
O272 O 0.85395 0.32574 0.22908 0.0
C273 C 0.83931 0.28038 0.31311 0.0
C274 C 0.91085 0.31035 0.33365 0.0
C275 C 0.871 0.32241 0.21922 0.0
O276 O 0.86062 0.28638 0.30253 0.0
O277 O 0.83054 0.29424 0.31034 0.0
O278 O 0.91191 0.35468 0.29468 0.0
O279 O 0.87358 0.33716 0.30602 0.0
Co280 Co 0.67488 0.56316 0.29772 0.0
O281 O 0.68148 0.57452 0.3466 0.0
O282 O 0.68692 0.59735 0.29897 0.0
C283 C 0.63888 0.53078 0.31035 0.0
O284 O 0.66914 0.5576 0.24319 0.0
Co285 Co 0.66752 0.5132 0.27694 0.0
O286 O 0.65399 0.51836 0.23231 0.0
C287 C 0.71643 0.5538 0.29042 0.0
C288 C 0.6881 0.59563 0.33379 0.0
C289 C 0.65912 0.53925 0.22209 0.0
O290 O 0.70857 0.56857 0.29329 0.0
O291 O 0.70283 0.53122 0.28591 0.0
O292 O 0.64056 0.55151 0.30524 0.0
O293 O 0.65882 0.53076 0.30973 0.0
Co294 Co 0.44729 0.10471 0.88199 0.0
O295 O 0.44277 0.09422 0.83267 0.0
O296 O 0.42517 0.07052 0.8794 0.0
C297 C 0.44373 0.13728 0.87104 0.0
O298 O 0.44698 0.10954 0.9368 0.0
Co299 Co 0.49008 0.1544 0.90388 0.0
O300 O 0.47091 0.14879 0.9481 0.0
C301 C 0.4982 0.11392 0.88844 0.0
C302 C 0.42828 0.07287 0.84464 0.0
C303 C 0.45516 0.12782 0.95806 0.0
O304 O 0.47553 0.09921 0.88578 0.0
O305 O 0.50723 0.13646 0.89344 0.0
O306 O 0.42463 0.11646 0.87531 0.0
O307 O 0.46367 0.13726 0.87121 0.0
Co308 Co 0.89804 0.34726 0.87565 0.0
O309 O 0.90881 0.35363 0.82646 0.0
O310 O 0.93248 0.36065 0.87352 0.0
C311 C 0.86646 0.31055 0.864 0.0
O312 O 0.89297 0.34183 0.93047 0.0
Co313 Co 0.84743 0.33814 0.89675 0.0
O314 O 0.85346 0.32503 0.94109 0.0
C315 C 0.88617 0.38716 0.87855 0.0
C316 C 0.93025 0.36129 0.83871 0.0
C317 C 0.87455 0.3309 0.95135 0.0
O318 O 0.90194 0.38044 0.8789 0.0
O319 O 0.86372 0.37264 0.8826 0.0
O320 O 0.88757 0.31307 0.86889 0.0
O321 O 0.86565 0.33007 0.86434 0.0
Co322 Co 0.65633 0.56073 0.8776 0.0
O323 O 0.65554 0.57051 0.82897 0.0
O324 O 0.64326 0.58205 0.87665 0.0
C325 C 0.69367 0.56595 0.87424 0.0
O326 O 0.65519 0.55471 0.93206 0.0
Co327 Co 0.66113 0.51553 0.89065 0.0
O328 O 0.66182 0.52401 0.94208 0.0
C329 C 0.61731 0.51105 0.85913 0.0
C330 C 0.64612 0.5826 0.84184 0.0
C331 C 0.65795 0.54044 0.95338 0.0
O332 O 0.62316 0.53211 0.87061 0.0
O333 O 0.63139 0.50246 0.86061 0.0
O334 O 0.69091 0.58424 0.88075 0.0
O335 O 0.6743 0.54626 0.86732 0.0
Co336 Co 0.56794 0.89405 0.70135 0.0
O337 O 0.57881 0.89873 0.65213 0.0
O338 O 0.60256 0.91259 0.69975 0.0
C339 C 0.53883 0.90291 0.68995 0.0
O340 O 0.56368 0.89377 0.7561 0.0
Co341 Co 0.51642 0.85677 0.7242 0.0
O342 O 0.52459 0.87481 0.7701 0.0
C343 C 0.55087 0.84123 0.70176 0.0
C344 C 0.60039 0.91071 0.66486 0.0
C345 C 0.54649 0.88784 0.77879 0.0
O346 O 0.56844 0.86296 0.70277 0.0
O347 O 0.52906 0.83572 0.70692 0.0
O348 O 0.56053 0.92007 0.6964 0.0
O349 O 0.53571 0.88158 0.69001 0.0
Co350 Co 0.11367 0.67808 0.71068 0.0
O351 O 0.1091 0.68553 0.66233 0.0
O352 O 0.09286 0.69185 0.71055 0.0
C353 C 0.10794 0.64149 0.69603 0.0
O354 O 0.11377 0.6717 0.76502 0.0
Co355 Co 0.15465 0.66759 0.72876 0.0
O356 O 0.1364 0.65464 0.77388 0.0
C357 C 0.16563 0.71744 0.71541 0.0
C358 C 0.09555 0.69313 0.67567 0.0
C359 C 0.1216 0.66077 0.78523 0.0
O360 O 0.1432 0.71096 0.71497 0.0
O361 O 0.17335 0.70267 0.71826 0.0
O362 O 0.08959 0.64412 0.70267 0.0
O363 O 0.12841 0.66083 0.69701 0.0
Co364 Co 0.3266 0.43572 0.7077 0.0
O365 O 0.31954 0.42541 0.6582 0.0
O366 O 0.31222 0.40132 0.70485 0.0
C367 C 0.36365 0.46661 0.6955 0.0
O368 O 0.33183 0.4393 0.76234 0.0
Co369 Co 0.33877 0.48622 0.73388 0.0
O370 O 0.35059 0.47814 0.77791 0.0
C371 C 0.28846 0.44952 0.71626 0.0
C372 C 0.31139 0.40379 0.67017 0.0
C373 C 0.34287 0.45624 0.7855 0.0
O374 O 0.29415 0.43312 0.71252 0.0
O375 O 0.30383 0.47153 0.72248 0.0
O376 O 0.36043 0.44519 0.69992 0.0
O377 O 0.34466 0.46835 0.6976 0.0
Co378 Co 0.55389 0.90126 0.12383 0.0
O379 O 0.55943 0.91033 0.17401 0.0
O380 O 0.57211 0.93567 0.12813 0.0
C381 C 0.5631 0.87181 0.12789 0.0
O382 O 0.55279 0.89917 0.06868 0.0
Co383 Co 0.51542 0.85044 0.09819 0.0
O384 O 0.53267 0.86056 0.05159 0.0
C385 C 0.501 0.88397 0.12832 0.0
C386 C 0.57088 0.93236 0.16281 0.0
C387 C 0.54609 0.88268 0.04452 0.0
O388 O 0.52266 0.90156 0.12591 0.0
O389 O 0.4952 0.86228 0.1213 0.0
O390 O 0.58017 0.89395 0.12483 0.0
O391 O 0.5418 0.86858 0.13072 0.0
Co392 Co 0.10378 0.654 0.13093 0.0
O393 O 0.09259 0.65111 0.1798 0.0
O394 O 0.06916 0.63751 0.13179 0.0
C395 C 0.13293 0.69284 0.13565 0.0
O396 O 0.10867 0.65441 0.07617 0.0
Co397 Co 0.15593 0.66582 0.11474 0.0
O398 O 0.14733 0.66678 0.06388 0.0
C399 C 0.12092 0.61924 0.14614 0.0
C400 C 0.07106 0.64 0.16664 0.0
C401 C 0.12603 0.66016 0.05379 0.0
O402 O 0.10356 0.6226 0.13678 0.0
O403 O 0.14294 0.63542 0.14302 0.0
O404 O 0.11099 0.6876 0.12927 0.0
O405 O 0.13585 0.67479 0.14117 0.0
Co406 Co 0.3464 0.44476 0.13027 0.0
O407 O 0.34919 0.43875 0.18047 0.0
O408 O 0.36322 0.42716 0.13498 0.0
C409 C 0.30741 0.43459 0.13272 0.0
O410 O 0.34636 0.4466 0.07513 0.0
Co411 Co 0.33357 0.48302 0.10524 0.0
O412 O 0.32808 0.4669 0.05783 0.0
C413 C 0.3809 0.49767 0.13773 0.0
C414 C 0.36045 0.4279 0.16958 0.0
C415 C 0.33704 0.45369 0.0508 0.0
O416 O 0.37749 0.47634 0.13382 0.0
O417 O 0.36476 0.50316 0.13085 0.0
O418 O 0.31308 0.41795 0.1297 0.0
O419 O 0.32508 0.45604 0.13659 0.0
Co420 Co 0.10349 0.44519 0.63345 0.0
O421 O 0.09238 0.4418 0.68231 0.0
O422 O 0.06891 0.42468 0.63522 0.0
C423 C 0.13443 0.43946 0.64738 0.0
O424 O 0.10894 0.44396 0.57895 0.0
Co425 Co 0.15464 0.48554 0.61249 0.0
O426 O 0.14855 0.46585 0.56873 0.0
C427 C 0.11621 0.49709 0.62602 0.0
C428 C 0.07096 0.42816 0.66994 0.0
C429 C 0.12739 0.45094 0.55832 0.0
O430 O 0.10027 0.47471 0.628 0.0
O431 O 0.13861 0.50468 0.62221 0.0
O432 O 0.11323 0.4211 0.64212 0.0
O433 O 0.13575 0.46001 0.64572 0.0
Co434 Co 0.55661 0.65985 0.62598 0.0
O435 O 0.5604 0.65468 0.67617 0.0
O436 O 0.57757 0.64668 0.63079 0.0
C437 C 0.56157 0.69681 0.63419 0.0
O438 O 0.55784 0.6634 0.57094 0.0
Co439 Co 0.51653 0.66901 0.59789 0.0
O440 O 0.53679 0.68096 0.55423 0.0
C441 C 0.50512 0.61989 0.61894 0.0
C442 C 0.5744 0.64687 0.66539 0.0
C443 C 0.5515 0.6738 0.54726 0.0
O444 O 0.52747 0.62668 0.62305 0.0
O445 O 0.49752 0.6343 0.6112 0.0
O446 O 0.58021 0.69415 0.63147 0.0
O447 O 0.54116 0.67734 0.63368 0.0
Co448 Co 0.34402 0.90367 0.63286 0.0
O449 O 0.34898 0.91437 0.68207 0.0
O450 O 0.35716 0.93809 0.63475 0.0
C451 C 0.30709 0.87186 0.6431 0.0
O452 O 0.3406 0.89879 0.57792 0.0
Co453 Co 0.33599 0.85309 0.61394 0.0
O454 O 0.32954 0.8605 0.565 0.0
C455 C 0.38477 0.89284 0.63063 0.0
C456 C 0.35699 0.93582 0.66966 0.0
C457 C 0.3344 0.88141 0.55535 0.0
O458 O 0.37741 0.90808 0.6316 0.0
O459 O 0.37083 0.8703 0.62642 0.0
O460 O 0.3096 0.89288 0.63722 0.0
O461 O 0.3267 0.87125 0.64431 0.0
Co462 Co 0.1141 0.43219 0.21237 0.0
O463 O 0.10565 0.4231 0.16276 0.0
O464 O 0.09331 0.39788 0.20879 0.0
C465 C 0.108 0.46378 0.21093 0.0
O466 O 0.11825 0.43506 0.26738 0.0
Co467 Co 0.15781 0.4819 0.23141 0.0
O468 O 0.1476 0.47224 0.28185 0.0
C469 C 0.16485 0.4448 0.19688 0.0
C470 C 0.09334 0.4012 0.17417 0.0
C471 C 0.13113 0.45131 0.29072 0.0
O472 O 0.14345 0.4287 0.20586 0.0
O473 O 0.17282 0.46723 0.20111 0.0
O474 O 0.08992 0.4423 0.21548 0.0
O475 O 0.12821 0.46501 0.20476 0.0
Co476 Co 0.56671 0.68085 0.20289 0.0
O477 O 0.57557 0.68325 0.15272 0.0
O478 O 0.60095 0.69512 0.19855 0.0
C479 C 0.53568 0.64292 0.19947 0.0
O480 O 0.56468 0.68057 0.25802 0.0
Co481 Co 0.51699 0.67196 0.22804 0.0
O482 O 0.52615 0.66404 0.27488 0.0
C483 C 0.55239 0.71848 0.19585 0.0
C484 C 0.59754 0.69274 0.1639 0.0
C485 C 0.54808 0.67162 0.28211 0.0
O486 O 0.56919 0.71337 0.19975 0.0
O487 O 0.53036 0.70357 0.2027 0.0
O488 O 0.55737 0.64671 0.20293 0.0
O489 O 0.53381 0.66179 0.19604 0.0
Co490 Co 0.32066 0.88969 0.21036 0.0
O491 O 0.31535 0.89444 0.16071 0.0
O492 O 0.30745 0.9108 0.20728 0.0
C493 C 0.35763 0.89482 0.20122 0.0
O494 O 0.32477 0.88982 0.26545 0.0
Co495 Co 0.32913 0.84808 0.2332 0.0
O496 O 0.34116 0.867 0.27795 0.0
C497 C 0.28045 0.83793 0.21316 0.0
C498 C 0.30751 0.90819 0.17249 0.0
C499 C 0.33504 0.88217 0.28736 0.0
O500 O 0.28735 0.86045 0.21234 0.0
O501 O 0.29475 0.82988 0.21859 0.0
O502 O 0.35499 0.91341 0.20514 0.0
O503 O 0.3381 0.87448 0.20061 0.0
H504 H 0.40693 0.31353 0.92063 0.0
H505 H 0.26416 0.23772 0.93769 0.0
H506 H 0.35806 0.28639 0.83064 0.0
H507 H 0.31039 0.2644 0.03074 0.0
H508 H 0.29903 0.25513 0.89885 0.0
H509 H 0.37261 0.29556 0.96195 0.0
C510 C 0.38901 0.3038 0.90956 0.0
C511 C 0.38534 0.30148 0.8721 0.0
C512 C 0.3017 0.25724 0.92772 0.0
C513 C 0.34612 0.28091 0.91914 0.0
C514 C 0.28171 0.24726 0.95004 0.0
C515 C 0.28432 0.24964 0.98761 0.0
C516 C 0.32468 0.26982 0.94285 0.0
C517 C 0.30758 0.26216 1.00191 0.0
C518 C 0.36946 0.29355 0.93316 0.0
C519 C 0.36177 0.28868 0.85927 0.0
N520 N 0.32693 0.27186 0.97947 0.0
N521 N 0.34313 0.27892 0.8827 0.0
H522 H 0.71505 0.07027 0.82058 0.0
H523 H 0.73778 0.04652 0.02537 0.0
H524 H 0.69447 0.09738 0.91191 0.0
H525 H 0.76215 0.02488 0.93193 0.0
H526 H 0.72106 0.06478 0.98511 0.0
H527 H 0.7317 0.05288 0.86179 0.0
C528 C 0.71404 0.07257 0.84932 0.0
C529 C 0.70336 0.0853 0.8628 0.0
C530 C 0.73011 0.05604 0.97353 0.0
C531 C 0.72238 0.06537 0.91033 0.0
C532 C 0.73963 0.04563 0.99648 0.0
C533 C 0.75136 0.03415 0.98202 0.0
C534 C 0.73232 0.05486 0.93594 0.0
C535 C 0.75326 0.03352 0.94437 0.0
C536 C 0.72357 0.06265 0.8729 0.0
C537 C 0.70257 0.08772 0.90035 0.0
N538 N 0.74384 0.04366 0.92275 0.0
N539 N 0.71192 0.07782 0.92283 0.0
H540 H 0.97845 0.73894 0.92953 0.0
H541 H 0.90292 0.59658 0.90372 0.0
H542 H 0.95277 0.68857 0.01772 0.0
H543 H 0.92859 0.64643 0.81487 0.0
H544 H 0.92117 0.63016 0.94571 0.0
H545 H 0.96048 0.70548 0.88705 0.0
C546 C 0.96905 0.72084 0.93997 0.0
C547 C 0.96712 0.71654 0.97726 0.0
C548 C 0.92285 0.6338 0.91705 0.0
C549 C 0.94647 0.67814 0.92874 0.0
C550 C 0.91241 0.61461 0.89301 0.0
C551 C 0.91423 0.6187 0.85569 0.0
C552 C 0.93522 0.65733 0.90376 0.0
C553 C 0.92675 0.64246 0.84342 0.0
C554 C 0.95878 0.70174 0.91568 0.0
C555 C 0.95471 0.69272 0.98922 0.0
N556 N 0.93677 0.66088 0.8674 0.0
N557 N 0.94486 0.67444 0.96505 0.0
H558 H 0.29316 0.35642 0.68695 0.0
H559 H 0.26405 0.31189 0.48163 0.0
H560 H 0.30788 0.40403 0.59671 0.0
H561 H 0.24886 0.26453 0.57233 0.0
H562 H 0.2812 0.34604 0.52305 0.0
H563 H 0.27759 0.3226 0.64515 0.0
C564 C 0.29311 0.35976 0.65835 0.0
C565 C 0.30181 0.38308 0.64532 0.0
C566 C 0.27418 0.32818 0.53387 0.0
C567 C 0.28404 0.34445 0.59724 0.0
C568 C 0.26443 0.30869 0.51022 0.0
C569 C 0.25498 0.28532 0.52353 0.0
C570 C 0.27446 0.32427 0.57112 0.0
C571 C 0.25592 0.28222 0.56085 0.0
C572 C 0.28424 0.34044 0.63446 0.0
C573 C 0.30133 0.38635 0.60796 0.0
N574 N 0.26541 0.30144 0.5833 0.0
N575 N 0.29259 0.36726 0.58526 0.0
H576 H 0.64802 0.93724 0.68263 0.0
H577 H 0.69235 0.95544 0.47702 0.0
H578 H 0.60037 0.90919 0.59134 0.0
H579 H 0.74034 0.98407 0.56785 0.0
H580 H 0.65837 0.93915 0.51856 0.0
H581 H 0.68213 0.95514 0.64114 0.0
C582 C 0.64474 0.93485 0.65389 0.0
C583 C 0.62133 0.92168 0.64044 0.0
C584 C 0.67633 0.94906 0.52942 0.0
C585 C 0.66021 0.94211 0.59281 0.0
C586 C 0.69574 0.9584 0.50568 0.0
C587 C 0.71921 0.97111 0.51897 0.0
C588 C 0.68041 0.95241 0.56675 0.0
C589 C 0.72253 0.97438 0.5564 0.0
C590 C 0.6642 0.94508 0.6302 0.0
C591 C 0.61811 0.91917 0.60293 0.0
N592 N 0.70336 0.96504 0.57896 0.0
N593 N 0.6373 0.92927 0.58048 0.0
H594 H 0.01873 0.75884 0.5808 0.0
H595 H 0.09749 0.69531 0.60255 0.0
H596 H 0.04605 0.73631 0.49204 0.0
H597 H 0.06722 0.71253 0.69361 0.0
H598 H 0.07881 0.71082 0.56227 0.0
H599 H 0.03617 0.74246 0.62295 0.0
C600 C 0.02833 0.7504 0.57017 0.0
C601 C 0.03096 0.74895 0.53282 0.0
C602 C 0.07615 0.71123 0.59102 0.0
C603 C 0.05099 0.73028 0.58085 0.0
C604 C 0.08688 0.70238 0.61415 0.0
C605 C 0.08394 0.70262 0.65159 0.0
C606 C 0.06234 0.72054 0.60525 0.0
C607 C 0.06994 0.71199 0.66492 0.0
C608 C 0.03827 0.74106 0.59425 0.0
C609 C 0.04357 0.73784 0.52057 0.0
N610 N 0.05967 0.72064 0.64173 0.0
N611 N 0.05313 0.729 0.54449 0.0
H612 H 0.59579 0.68955 0.09014 0.0
H613 H 0.73832 0.75772 0.06894 0.0
H614 H 0.64529 0.71409 0.17947 0.0
H615 H 0.69014 0.73034 0.97816 0.0
H616 H 0.70411 0.74099 0.10948 0.0
H617 H 0.62965 0.70361 0.04849 0.0
C618 C 0.61377 0.69785 0.10101 0.0
C619 C 0.61773 0.70071 0.13836 0.0
C620 C 0.70093 0.73851 0.08073 0.0
C621 C 0.65652 0.71683 0.09086 0.0
C622 C 0.7205 0.74808 0.05749 0.0
C623 C 0.71709 0.74549 0.02005 0.0
C624 C 0.67764 0.72629 0.06657 0.0
C625 C 0.69357 0.73274 0.00685 0.0
C626 C 0.63308 0.70584 0.0772 0.0
C627 C 0.64138 0.71155 0.15091 0.0
N628 N 0.6747 0.7237 0.03011 0.0
N629 N 0.65985 0.71925 0.12723 0.0
H630 H 0.28862 0.93693 0.18843 0.0
H631 H 0.26635 0.95682 0.98145 0.0
H632 H 0.30709 0.90658 0.09885 0.0
H633 H 0.24354 0.98249 0.07199 0.0
H634 H 0.28381 0.94045 0.02364 0.0
H635 H 0.27417 0.9558 0.14579 0.0
C636 C 0.28968 0.93427 0.1598 0.0
C637 C 0.299 0.9201 0.14721 0.0
C638 C 0.27506 0.94976 0.03422 0.0
C639 C 0.28253 0.94166 0.09817 0.0
C640 C 0.26516 0.95916 0.01014 0.0
C641 C 0.2534 0.97096 0.0232 0.0
C642 C 0.27321 0.95225 0.07159 0.0
C643 C 0.25235 0.97344 0.06067 0.0
C644 C 0.28143 0.94504 0.13544 0.0
C645 C 0.29997 0.91731 0.10979 0.0
N646 N 0.26205 0.96413 0.08348 0.0
N647 N 0.29181 0.92795 0.08662 0.0
H648 H 0.09013 0.40347 0.10093 0.0
H649 H 0.02096 0.26133 0.07521 0.0
H650 H 0.06798 0.35313 0.189 0.0
H651 H 0.04008 0.31078 0.98637 0.0
H652 H 0.03697 0.29485 0.11709 0.0
H653 H 0.07088 0.37005 0.05864 0.0
C654 C 0.08112 0.38538 0.11141 0.0
C655 C 0.08073 0.38108 0.14859 0.0
C656 C 0.03761 0.29845 0.08848 0.0
C657 C 0.0587 0.34271 0.10022 0.0
C658 C 0.02847 0.27928 0.06446 0.0
C659 C 0.02926 0.28325 0.02715 0.0
C660 C 0.04779 0.32191 0.07523 0.0
C661 C 0.03912 0.30691 0.01491 0.0
C662 C 0.07013 0.3663 0.08721 0.0
C663 C 0.06876 0.35728 0.16059 0.0
N664 N 0.04812 0.32538 0.0389 0.0
N665 N 0.05832 0.339 0.13647 0.0
H666 H 0.70501 0.64277 0.31594 0.0
H667 H 0.73165 0.68773 0.52129 0.0
H668 H 0.69043 0.59594 0.40718 0.0
H669 H 0.75004 0.73541 0.43025 0.0
H670 H 0.71403 0.65363 0.47994 0.0
H671 H 0.71949 0.67683 0.35739 0.0
C672 C 0.70481 0.63965 0.34465 0.0
C673 C 0.69658 0.6165 0.3581 0.0
C674 C 0.72183 0.67155 0.469 0.0
C675 C 0.71305 0.6553 0.40566 0.0
C676 C 0.73183 0.69102 0.49264 0.0
C677 C 0.7424 0.71445 0.47921 0.0
C678 C 0.7224 0.67552 0.43164 0.0
C679 C 0.74214 0.71765 0.44179 0.0
C680 C 0.71307 0.65908 0.36831 0.0
C681 C 0.69669 0.61348 0.39557 0.0
N682 N 0.73239 0.69842 0.41932 0.0
N683 N 0.70481 0.63263 0.41799 0.0
H684 H 0.26137 0.01396 0.43254 0.0
H685 H 0.40403 0.08641 0.41273 0.0
H686 H 0.30977 0.04139 0.52306 0.0
H687 H 0.35555 0.06266 0.32216 0.0
H688 H 0.36984 0.06721 0.4535 0.0
H689 H 0.29563 0.02881 0.39195 0.0
C690 C 0.27923 0.02299 0.44394 0.0
C691 C 0.28271 0.02653 0.4813 0.0
C692 C 0.36665 0.06607 0.42472 0.0
C693 C 0.32211 0.04369 0.4348 0.0
C694 C 0.38618 0.07701 0.40137 0.0
C695 C 0.38265 0.07624 0.36393 0.0
C696 C 0.34333 0.05424 0.41062 0.0
C697 C 0.3591 0.06376 0.35082 0.0
C698 C 0.2988 0.0315 0.42069 0.0
C699 C 0.30625 0.03831 0.49446 0.0
N700 N 0.34034 0.05334 0.37414 0.0
N701 N 0.32506 0.04656 0.47122 0.0
H702 H 0.91339 0.31449 0.40689 0.0
H703 H 0.9866 0.24536 0.4317 0.0
H704 H 0.93753 0.28904 0.3177 0.0
H705 H 0.9591 0.2679 0.52021 0.0
H706 H 0.97128 0.26362 0.38956 0.0
H707 H 0.93254 0.30002 0.44856 0.0
C708 C 0.92285 0.30596 0.39601 0.0
C709 C 0.92377 0.30289 0.3587 0.0
C710 C 0.96868 0.26467 0.41819 0.0
C711 C 0.94573 0.28613 0.40648 0.0
C712 C 0.97745 0.25427 0.44231 0.0
C713 C 0.97405 0.25503 0.47957 0.0
C714 C 0.95639 0.27594 0.43138 0.0
C715 C 0.96208 0.26684 0.49173 0.0
C716 C 0.93377 0.29766 0.41989 0.0
C717 C 0.93634 0.29175 0.34625 0.0
N718 N 0.95362 0.27675 0.4677 0.0
N719 N 0.94674 0.28367 0.3701 0.0
H720 H 0.02358 0.61484 0.14776 0.0
H721 H 0.97683 0.59461 0.35226 0.0
H722 H 0.07031 0.6423 0.24014 0.0
H723 H 0.93005 0.56721 0.25994 0.0
H724 H 0.01133 0.61245 0.3116 0.0
H725 H 0.98903 0.59761 0.18835 0.0
C726 C 0.02657 0.61731 0.17656 0.0
C727 C 0.04987 0.63003 0.19056 0.0
C728 C 0.99352 0.60254 0.30023 0.0
C729 C 0.01043 0.6103 0.23722 0.0
C730 C 0.97382 0.59234 0.32345 0.0
C731 C 0.95053 0.5794 0.30949 0.0
C732 C 0.98991 0.59979 0.26275 0.0
C733 C 0.94769 0.57703 0.27191 0.0
C734 C 0.00684 0.60745 0.19974 0.0
C735 C 0.05268 0.63264 0.22813 0.0
N736 N 0.96712 0.58712 0.24988 0.0
N737 N 0.03322 0.62285 0.25012 0.0
H738 H 0.42843 0.3557 0.26993 0.0
H739 H 0.35776 0.42742 0.24318 0.0
H740 H 0.40282 0.38057 0.35796 0.0
H741 H 0.38464 0.404 0.15496 0.0
H742 H 0.37373 0.40993 0.28556 0.0
H743 H 0.41216 0.37284 0.22736 0.0
C744 C 0.41937 0.36476 0.28032 0.0
C745 C 0.41698 0.3667 0.31758 0.0
C746 C 0.37614 0.40859 0.25694 0.0
C747 C 0.39829 0.38638 0.26896 0.0
C748 C 0.36701 0.41857 0.2327 0.0
C749 C 0.36987 0.41717 0.19545 0.0
C750 C 0.38824 0.39709 0.24389 0.0
C751 C 0.38202 0.4055 0.18345 0.0
C752 C 0.41009 0.37455 0.25598 0.0
C753 C 0.40508 0.37865 0.32947 0.0
N754 N 0.39076 0.39591 0.20759 0.0
N755 N 0.39618 0.38802 0.30526 0.0
H756 H 0.59617 0.98026 0.14727 0.0
H757 H 0.61708 0.02115 0.3545 0.0
H758 H 0.57046 0.93077 0.23657 0.0
H759 H 0.64411 0.07051 0.26512 0.0
H760 H 0.59991 0.98779 0.31179 0.0
H761 H 0.61385 0.01355 0.19003 0.0
C762 C 0.59425 0.97639 0.17588 0.0
C763 C 0.58181 0.95269 0.18836 0.0
C764 C 0.60961 0.00592 0.3015 0.0
C765 C 0.60201 0.99074 0.23752 0.0
C766 C 0.61943 0.02497 0.32589 0.0
C767 C 0.63205 0.04866 0.31336 0.0
C768 C 0.61239 0.01055 0.26427 0.0
C769 C 0.63452 0.05254 0.27599 0.0
C770 C 0.60437 0.99542 0.2003 0.0
C771 C 0.5799 0.94875 0.22574 0.0
N772 N 0.62477 0.0337 0.25279 0.0
N773 N 0.58987 0.96757 0.24897 0.0
H774 H 0.37938 0.98381 0.65321 0.0
H775 H 0.39928 0.02519 0.86058 0.0
H776 H 0.35527 0.93474 0.74307 0.0
H777 H 0.42998 0.07406 0.77115 0.0
H778 H 0.38058 0.99186 0.81776 0.0
H779 H 0.39561 0.01734 0.69588 0.0
C780 C 0.37739 0.98009 0.68187 0.0
C781 C 0.36603 0.95646 0.69458 0.0
C782 C 0.39138 0.0099 0.80752 0.0
C783 C 0.38455 0.99465 0.74353 0.0
C784 C 0.40203 0.02891 0.83197 0.0
C785 C 0.41627 0.05242 0.81945 0.0
C786 C 0.39494 0.01445 0.77028 0.0
C787 C 0.41922 0.05621 0.78205 0.0
C788 C 0.3867 0.99922 0.70622 0.0
C789 C 0.36398 0.95267 0.73202 0.0
N790 N 0.40868 0.03745 0.75883 0.0
N791 N 0.37316 0.97153 0.75512 0.0
H792 H 0.07169 0.43022 0.74333 0.0
H793 H 0.92932 0.36124 0.76518 0.0
H794 H 0.02296 0.40184 0.65332 0.0
H795 H 0.97813 0.38199 0.85513 0.0
H796 H 0.96326 0.37667 0.72388 0.0
H797 H 0.03768 0.4134 0.78445 0.0
C798 C 0.0538 0.42041 0.73216 0.0
C799 C 0.05018 0.41747 0.69474 0.0
C800 C 0.96658 0.37781 0.75262 0.0
C801 C 0.01101 0.39815 0.74193 0.0
C802 C 0.9472 0.36903 0.77629 0.0
C803 C 0.95088 0.37035 0.81374 0.0
C804 C 0.98993 0.38814 0.7664 0.0
C805 C 0.97446 0.3806 0.82649 0.0
C806 C 0.03437 0.41077 0.75574 0.0
C807 C 0.02659 0.40453 0.68194 0.0
N808 N 0.99308 0.38917 0.80286 0.0
N809 N 0.00788 0.39542 0.7055 0.0
H810 H 0.62045 0.60492 0.85841 0.0
H811 H 0.60467 0.62967 0.65103 0.0
H812 H 0.65218 0.58788 0.7691 0.0
H813 H 0.57102 0.64548 0.73902 0.0
H814 H 0.62372 0.616 0.69449 0.0
H815 H 0.60394 0.62198 0.81578 0.0
C816 C 0.62413 0.60497 0.82992 0.0
C817 C 0.63764 0.59489 0.8173 0.0
C818 C 0.6122 0.6225 0.70435 0.0
C819 C 0.61871 0.61418 0.76841 0.0
C820 C 0.6013 0.63028 0.6795 0.0
C821 C 0.58618 0.63866 0.69139 0.0
C822 C 0.60796 0.62306 0.74142 0.0
C823 C 0.58251 0.6391 0.72865 0.0
C824 C 0.61463 0.61462 0.80558 0.0
C825 C 0.64179 0.59536 0.78007 0.0
N826 N 0.59328 0.63137 0.75233 0.0
N827 N 0.6323 0.60474 0.757 0.0
H828 H 0.2632 0.07311 0.98467 0.0
H829 H 0.1749 0.1237 0.02452 0.0
H830 H 0.18667 0.03475 0.96884 0.0
H831 H 0.25168 0.1702 0.02707 0.0
H832 H 0.18037 0.09105 0.00559 0.0
H833 H 0.26103 0.10926 0.99999 0.0
C834 C 0.24606 0.07239 0.98391 0.0
C835 C 0.22505 0.05086 0.97579 0.0
C836 C 0.19615 0.10833 0.01017 0.0
C837 C 0.22243 0.09169 0.99348 0.0
C838 C 0.19303 0.12713 0.02121 0.0
C839 C 0.21286 0.14992 0.02744 0.0
C840 C 0.21931 0.11199 0.00527 0.0
C841 C 0.23586 0.15294 0.02265 0.0
C842 C 0.24483 0.09292 0.9928 0.0
C843 C 0.20331 0.05081 0.97529 0.0
N844 N 0.23849 0.13414 0.01184 0.0
N845 N 0.2026 0.07078 0.98419 0.0
H846 H 0.92652 0.18978 0.98371 0.0
H847 H 0.87812 0.05415 0.0434 0.0
H848 H 0.96805 0.15413 0.98563 0.0
H849 H 0.82936 0.0797 0.01834 0.0
H850 H 0.91147 0.09304 0.02832 0.0
H851 H 0.89071 0.15158 1.00028 0.0
C852 C 0.92807 0.17395 0.98735 0.0
C853 C 0.9503 0.17514 0.98343 0.0
C854 C 0.89353 0.09028 0.02603 0.0
C855 C 0.90982 0.13184 1.00268 0.0
C856 C 0.87436 0.06798 0.03478 0.0
C857 C 0.85078 0.06346 0.03179 0.0
C858 C 0.88934 0.1085 0.01408 0.0
C859 C 0.84725 0.08237 0.02095 0.0
C860 C 0.9077 0.15225 0.99686 0.0
C861 C 0.95137 0.15416 0.98848 0.0
N862 N 0.86637 0.10412 0.01226 0.0
N863 N 0.93152 0.13353 0.99797 0.0
H864 H 0.81014 0.73436 0.98149 0.0
H865 H 0.94624 0.82061 0.03967 0.0
H866 H 0.84739 0.81158 0.9784 0.0
H867 H 0.91844 0.74499 0.02228 0.0
H868 H 0.9083 0.81594 0.02096 0.0
H869 H 0.84804 0.73623 0.99846 0.0
C870 C 0.82626 0.75163 0.98405 0.0
C871 C 0.82559 0.77285 0.97874 0.0
C872 C 0.91036 0.80028 0.0211 0.0
C873 C 0.86859 0.7751 0.99836 0.0
C874 C 0.93214 0.80291 0.03199 0.0
C875 C 0.93573 0.78317 0.0325 0.0
C876 C 0.89169 0.7777 0.01061 0.0
C877 C 0.91651 0.76072 0.02229 0.0
C878 C 0.84781 0.75268 0.99379 0.0
C879 C 0.84694 0.79474 0.98242 0.0
N880 N 0.89525 0.75856 0.01172 0.0
N881 N 0.86741 0.79526 0.99214 0.0
H882 H 0.13628 0.18778 0.5289 0.0
H883 H 0.07394 0.2682 0.52413 0.0
H884 H 0.16854 0.25614 0.47482 0.0
H885 H 0.04154 0.1957 0.56339 0.0
H886 H 0.11184 0.26815 0.51538 0.0
H887 H 0.10491 0.19458 0.55139 0.0
C888 C 0.13679 0.20432 0.52177 0.0
C889 C 0.15483 0.2212 0.49933 0.0
C890 C 0.09649 0.25244 0.52643 0.0
C891 C 0.11855 0.22911 0.52496 0.0
C892 C 0.07498 0.25252 0.53166 0.0
C893 C 0.0546 0.23182 0.54415 0.0
C894 C 0.09748 0.23159 0.5342 0.0
C895 C 0.05674 0.21192 0.55326 0.0
C896 C 0.11884 0.20823 0.53474 0.0
C897 C 0.15482 0.24255 0.49178 0.0
N898 N 0.07768 0.21227 0.54792 0.0
N899 N 0.1367 0.24578 0.50416 0.0
H900 H 0.73129 0.80417 0.51878 0.0
H901 H 0.81427 0.94673 0.52204 0.0
H902 H 0.80419 0.84323 0.55665 0.0
H903 H 0.74567 0.91171 0.46856 0.0
H904 H 0.80668 0.90834 0.54474 0.0
H905 H 0.73221 0.84254 0.50976 0.0
C906 C 0.74725 0.82076 0.52593 0.0
C907 C 0.7678 0.82065 0.53811 0.0
C908 C 0.79315 0.9089 0.52817 0.0
C909 C 0.76901 0.86421 0.5279 0.0
C910 C 0.79752 0.93089 0.51509 0.0
C911 C 0.78079 0.9324 0.49275 0.0
C912 C 0.77198 0.88796 0.51859 0.0
C913 C 0.75914 0.91129 0.48543 0.0
C914 C 0.74783 0.84259 0.52056 0.0
C915 C 0.78808 0.84252 0.54675 0.0
N916 N 0.75547 0.8898 0.4979 0.0
N917 N 0.78819 0.86334 0.54131 0.0
H918 H 0.08553 0.8285 0.48095 0.0
H919 H 0.15349 0.96321 0.55465 0.0
H920 H 0.05384 0.87294 0.49797 0.0
H921 H 0.192 0.92754 0.52268 0.0
H922 H 0.11598 0.92667 0.54353 0.0
H923 H 0.12391 0.86141 0.50351 0.0
C924 C 0.08658 0.84506 0.48946 0.0
C925 C 0.06644 0.84801 0.48713 0.0
C926 C 0.13254 0.92661 0.5391 0.0
C927 C 0.10997 0.88536 0.51333 0.0
C928 C 0.15402 0.94752 0.54561 0.0
C929 C 0.17584 0.94846 0.53916 0.0
C930 C 0.13273 0.90641 0.52543 0.0
C931 C 0.17546 0.92748 0.52792 0.0
C932 C 0.10845 0.86378 0.50234 0.0
C933 C 0.06883 0.86981 0.49872 0.0
N934 N 0.15416 0.90729 0.52084 0.0
N935 N 0.09008 0.88751 0.51121 0.0
H936 H 0.78328 0.95994 0.96094 0.0
H937 H 0.74296 0.82306 0.99779 0.0
H938 H 0.73699 0.92055 0.04943 0.0
H939 H 0.79396 0.86841 0.91766 0.0
H940 H 0.73357 0.855 0.01045 0.0
H941 H 0.77992 0.9232 0.93774 0.0
C942 C 0.77217 0.94335 0.97528 0.0
C943 C 0.76061 0.94318 0.00726 0.0
C944 C 0.74648 0.85771 0.98968 0.0
C945 C 0.75713 0.90093 0.98145 0.0
C946 C 0.75173 0.83949 0.98231 0.0
C947 C 0.76948 0.84333 0.95698 0.0
C948 C 0.75894 0.87963 0.97121 0.0
C949 C 0.78042 0.86489 0.93777 0.0
C950 C 0.77025 0.92234 0.96208 0.0
C951 C 0.7462 0.92127 0.02467 0.0
N952 N 0.7751 0.88222 0.94547 0.0
N953 N 0.74519 0.90093 0.01187 0.0
H954 H 0.1678 0.90792 0.95489 0.0
H955 H 0.051 0.83625 0.07677 0.0
H956 H 0.13772 0.93877 0.02628 0.0
H957 H 0.07082 0.80052 0.99743 0.0
H958 H 0.08876 0.8727 0.06739 0.0
H959 H 0.13796 0.86773 0.97713 0.0
C960 C 0.15518 0.90624 0.97551 0.0
C961 C 0.15487 0.92658 0.98832 0.0
C962 C 0.08518 0.85691 0.0522 0.0
C963 C 0.12125 0.88117 0.01403 0.0
C964 C 0.06359 0.83597 0.05781 0.0
C965 C 0.05778 0.81541 0.0378 0.0
C966 C 0.10093 0.85767 0.02542 0.0
C967 C 0.07479 0.81609 0.01349 0.0
C968 C 0.13819 0.88339 0.98812 0.0
C969 C 0.13828 0.92354 0.0151 0.0
N970 N 0.09551 0.83712 0.00735 0.0
N971 N 0.12217 0.90137 0.02685 0.0
H972 H 0.18179 0.2227 0.9652 0.0
H973 H 0.082 0.25833 0.00525 0.0
H974 H 0.18369 0.26193 0.06031 0.0
H975 H 0.07883 0.21033 0.92175 0.0
H976 H 0.12327 0.26796 0.01906 0.0
H977 H 0.14881 0.2268 0.94188 0.0
C978 C 0.17534 0.23248 0.98095 0.0
C979 C 0.18517 0.24181 0.01476 0.0
C980 C 0.11364 0.25568 0.9973 0.0
C981 C 0.14686 0.24602 0.9888 0.0
C982 C 0.09022 0.25032 0.98927 0.0
C983 C 0.07702 0.23333 0.96259 0.0
C984 C 0.1238 0.24414 0.97811 0.0
C985 C 0.08831 0.2233 0.94282 0.0
C986 C 0.15647 0.23479 0.9677 0.0
C987 C 0.17643 0.2545 0.03407 0.0
N988 N 0.11092 0.22873 0.95114 0.0
N989 N 0.15736 0.25589 0.02109 0.0
H990 H 0.95487 0.79501 0.43551 0.0
H991 H 0.82929 0.73923 0.5363 0.0
H992 H 0.92721 0.7303 0.49822 0.0
H993 H 0.86116 0.80336 0.47152 0.0
H994 H 0.86095 0.7311 0.51605 0.0
H995 H 0.91674 0.79343 0.44055 0.0
C996 C 0.94058 0.78021 0.44996 0.0
C997 C 0.94425 0.76286 0.46667 0.0
C998 C 0.86073 0.74673 0.50593 0.0
C999 C 0.90037 0.76131 0.47383 0.0
C1000 C 0.84267 0.75133 0.51739 0.0
C1001 C 0.84291 0.77223 0.50607 0.0
C1002 C 0.87884 0.76306 0.48281 0.0
C1003 C 0.86057 0.7873 0.48153 0.0
C1004 C 0.9187 0.77932 0.45299 0.0
C1005 C 0.92499 0.744 0.48492 0.0
N1006 N 0.87782 0.7825 0.47101 0.0
N1007 N 0.90391 0.74395 0.48869 0.0
H1008 H 0.27184 0.19928 0.48806 0.0
H1009 H 0.19726 0.05692 0.4664 0.0
H1010 H 0.20251 0.15868 0.43815 0.0
H1011 H 0.25799 0.09191 0.53773 0.0
H1012 H 0.20565 0.09571 0.44396 0.0
H1013 H 0.27319 0.16191 0.49535 0.0
C1014 C 0.25724 0.18262 0.47783 0.0
C1015 C 0.23693 0.1819 0.46276 0.0
C1016 C 0.21734 0.09506 0.46432 0.0
C1017 C 0.23832 0.13951 0.47089 0.0
C1018 C 0.21254 0.07286 0.47715 0.0
C1019 C 0.22667 0.07124 0.50447 0.0
C1020 C 0.23622 0.11601 0.47925 0.0
C1021 C 0.24656 0.09246 0.51685 0.0
C1022 C 0.25793 0.16135 0.48222 0.0
C1023 C 0.21836 0.15996 0.45026 0.0
N1024 N 0.25052 0.1141 0.5046 0.0
N1025 N 0.21947 0.13969 0.45475 0.0
H1026 H 0.91184 0.16933 0.53206 0.0
H1027 H 0.84585 0.04262 0.4325 0.0
H1028 H 0.94667 0.135 0.48027 0.0
H1029 H 0.80664 0.07234 0.48393 0.0
H1030 H 0.88279 0.08022 0.44153 0.0
H1031 H 0.87321 0.13777 0.50785 0.0
C1032 C 0.91141 0.15538 0.51528 0.0
C1033 C 0.93242 0.15452 0.50873 0.0
C1034 C 0.86618 0.0788 0.45058 0.0
C1035 C 0.88863 0.11871 0.48089 0.0
C1036 C 0.84504 0.05729 0.44528 0.0
C1037 C 0.82328 0.05438 0.45775 0.0
C1038 C 0.86575 0.09751 0.46937 0.0
C1039 C 0.82316 0.074 0.47389 0.0
C1040 C 0.88941 0.1374 0.50153 0.0
C1041 C 0.9309 0.13614 0.48669 0.0
N1042 N 0.84421 0.0947 0.4799 0.0
N1043 N 0.90946 0.119 0.47385 0.0
H1044 H 0.84617 0.45179 0.36812 0.0
H1045 H 0.93231 0.40213 0.31145 0.0
H1046 H 0.92145 0.50073 0.34981 0.0
H1047 H 0.85548 0.36416 0.29944 0.0
H1048 H 0.93078 0.43848 0.32783 0.0
H1049 H 0.85131 0.41909 0.34805 0.0
C1050 C 0.86391 0.45576 0.35999 0.0
C1051 C 0.88337 0.47925 0.36051 0.0
C1052 C 0.91437 0.4222 0.32114 0.0
C1053 C 0.88938 0.4413 0.33697 0.0
C1054 C 0.91524 0.40155 0.31164 0.0
C1055 C 0.89395 0.38005 0.30446 0.0
C1056 C 0.89207 0.42107 0.32358 0.0
C1057 C 0.87231 0.3802 0.3052 0.0
C1058 C 0.8668 0.43694 0.34826 0.0
C1059 C 0.90592 0.48293 0.34982 0.0
N1060 N 0.87194 0.40024 0.31489 0.0
N1061 N 0.90834 0.4641 0.33842 0.0
H1062 H 0.59337 0.52429 0.31957 0.0
H1063 H 0.54285 0.38945 0.38441 0.0
H1064 H 0.63278 0.48644 0.31897 0.0
H1065 H 0.49482 0.41599 0.35972 0.0
H1066 H 0.57628 0.42722 0.36553 0.0
H1067 H 0.55713 0.4868 0.3374 0.0
C1068 C 0.59436 0.50813 0.32288 0.0
C1069 C 0.61615 0.50852 0.31799 0.0
C1070 C 0.55847 0.42491 0.36409 0.0
C1071 C 0.57517 0.466 0.33862 0.0
C1072 C 0.53924 0.40323 0.37506 0.0
C1073 C 0.5158 0.39931 0.37349 0.0
C1074 C 0.55456 0.44316 0.3514 0.0
C1075 C 0.51256 0.41817 0.36132 0.0
C1076 C 0.57374 0.48682 0.33308 0.0
C1077 C 0.61648 0.48712 0.32262 0.0
N1078 N 0.53177 0.43935 0.35065 0.0
N1079 N 0.59642 0.46689 0.33283 0.0
H1080 H 0.47399 0.06848 0.31669 0.0
H1081 H 0.61418 0.15469 0.35042 0.0
H1082 H 0.51269 0.14506 0.30173 0.0
H1083 H 0.58073 0.07794 0.36179 0.0
H1084 H 0.57664 0.15007 0.32963 0.0
H1085 H 0.51227 0.06997 0.32935 0.0
C1086 C 0.49053 0.08549 0.31546 0.0
C1087 C 0.49018 0.10672 0.30848 0.0
C1088 C 0.57733 0.13412 0.33656 0.0
C1089 C 0.53368 0.10858 0.32313 0.0
C1090 C 0.59889 0.13677 0.34869 0.0
C1091 C 0.6007 0.11669 0.35829 0.0
C1092 C 0.55706 0.11121 0.33409 0.0
C1093 C 0.58015 0.09394 0.35487 0.0
C1094 C 0.5123 0.08635 0.32287 0.0
C1095 C 0.51203 0.12828 0.30737 0.0
N1096 N 0.55908 0.0918 0.34326 0.0
N1097 N 0.53276 0.12865 0.31482 0.0
H1098 H 0.78934 0.51667 0.82259 0.0
H1099 H 0.73775 0.60449 0.85614 0.0
H1100 H 0.83352 0.59295 0.8065 0.0
H1101 H 0.70253 0.52976 0.88502 0.0
H1102 H 0.774 0.60262 0.84059 0.0
H1103 H 0.75807 0.52271 0.84661 0.0
C1104 C 0.7925 0.5348 0.8239 0.0
C1105 C 0.81416 0.55431 0.81208 0.0
C1106 C 0.75841 0.58678 0.85088 0.0
C1107 C 0.77786 0.56145 0.84016 0.0
C1108 C 0.73784 0.58789 0.85997 0.0
C1109 C 0.71707 0.56716 0.87148 0.0
C1110 C 0.758 0.56482 0.85347 0.0
C1111 C 0.718 0.54608 0.87576 0.0
C1112 C 0.77455 0.53827 0.83797 0.0
C1113 C 0.81707 0.57737 0.81511 0.0
N1114 N 0.73796 0.54543 0.86652 0.0
N1115 N 0.79901 0.58032 0.82864 0.0
H1116 H 0.40494 0.14395 0.86071 0.0
H1117 H 0.49115 0.28267 0.81674 0.0
H1118 H 0.48203 0.18202 0.86863 0.0
H1119 H 0.41444 0.25205 0.8235 0.0
H1120 H 0.48676 0.24465 0.83414 0.0
H1121 H 0.40658 0.18214 0.84666 0.0
C1122 C 0.42212 0.1603 0.85983 0.0
C1123 C 0.44339 0.1598 0.86562 0.0
C1124 C 0.47078 0.24609 0.83195 0.0
C1125 C 0.44539 0.20316 0.84943 0.0
C1126 C 0.47327 0.26792 0.82181 0.0
C1127 C 0.45312 0.27071 0.81853 0.0
C1128 C 0.44794 0.22654 0.83888 0.0
C1129 C 0.43048 0.25074 0.82565 0.0
C1130 C 0.42305 0.18202 0.85176 0.0
C1131 C 0.46516 0.18144 0.86415 0.0
N1132 N 0.42846 0.22941 0.83543 0.0
N1133 N 0.46557 0.20209 0.85607 0.0
H1134 H 0.75237 0.16275 0.82366 0.0
H1135 H 0.82169 0.30318 0.85572 0.0
H1136 H 0.73057 0.21154 0.78227 0.0
H1137 H 0.8612 0.26541 0.85515 0.0
H1138 H 0.78599 0.26676 0.83799 0.0
H1139 H 0.79105 0.19751 0.8415 0.0
C1140 C 0.75577 0.18064 0.81791 0.0
C1141 C 0.738 0.18419 0.80188 0.0
C1142 C 0.80242 0.26631 0.84166 0.0
C1143 C 0.78172 0.22365 0.82263 0.0
C1144 C 0.82287 0.28714 0.85203 0.0
C1145 C 0.84458 0.28743 0.8566 0.0
C1146 C 0.80339 0.24534 0.83582 0.0
C1147 C 0.84481 0.26593 0.85172 0.0
C1148 C 0.77777 0.2004 0.82818 0.0
C1149 C 0.74341 0.20778 0.79507 0.0
N1150 N 0.82443 0.24562 0.84145 0.0
N1151 N 0.76458 0.22647 0.80577 0.0
H1152 H 0.405 0.16485 0.30176 0.0
H1153 H 0.45571 0.28502 0.4162 0.0
H1154 H 0.46539 0.19308 0.37408 0.0
H1155 H 0.39615 0.26244 0.34347 0.0
H1156 H 0.45342 0.24668 0.4091 0.0
H1157 H 0.39595 0.19569 0.32332 0.0
C1158 C 0.41603 0.17721 0.32261 0.0
C1159 C 0.43621 0.17675 0.33577 0.0
C1160 C 0.44056 0.24978 0.39488 0.0
C1161 C 0.426 0.21169 0.3605 0.0
C1162 C 0.44182 0.27176 0.39913 0.0
C1163 C 0.42618 0.27694 0.38029 0.0
C1164 C 0.42399 0.23293 0.37062 0.0
C1165 C 0.4085 0.25901 0.35853 0.0
C1166 C 0.41092 0.19481 0.3348 0.0
C1167 C 0.44993 0.1931 0.36272 0.0
N1168 N 0.40817 0.23786 0.35363 0.0
N1169 N 0.44468 0.20991 0.37393 0.0
H1170 H 0.8114 0.27162 0.37147 0.0
H1171 H 0.73653 0.12973 0.34381 0.0
H1172 H 0.83189 0.23581 0.29315 0.0
H1173 H 0.71373 0.17203 0.40378 0.0
H1174 H 0.77597 0.16601 0.33482 0.0
H1175 H 0.78074 0.23301 0.39423 0.0
C1176 C 0.80954 0.2555 0.35931 0.0
C1177 C 0.82388 0.25685 0.33005 0.0
C1178 C 0.76242 0.16714 0.35051 0.0
C1179 C 0.78827 0.21233 0.35544 0.0
C1180 C 0.74005 0.14647 0.35585 0.0
C1181 C 0.72187 0.14801 0.37434 0.0
C1182 C 0.7665 0.1892 0.36431 0.0
C1183 C 0.72713 0.17008 0.38908 0.0
C1184 C 0.79199 0.23342 0.37227 0.0
C1185 C 0.82103 0.23544 0.31566 0.0
N1186 N 0.74884 0.18973 0.38361 0.0
N1187 N 0.80316 0.21393 0.32806 0.0
H1188 H 0.86119 0.60021 0.36956 0.0
H1189 H 0.7416 0.5388 0.25115 0.0
H1190 H 0.82966 0.53097 0.3182 0.0
H1191 H 0.74983 0.58781 0.33638 0.0
H1192 H 0.78153 0.54565 0.26387 0.0
H1193 H 0.82675 0.60403 0.34851 0.0
C1194 C 0.84718 0.58596 0.3538 0.0
C1195 C 0.84814 0.56515 0.34586 0.0
C1196 C 0.7748 0.55519 0.2796 0.0
C1197 C 0.80956 0.56966 0.32119 0.0
C1198 C 0.75205 0.55136 0.27221 0.0
C1199 C 0.74232 0.56247 0.29312 0.0
C1200 C 0.78793 0.56997 0.30851 0.0
C1201 C 0.75676 0.57884 0.31978 0.0
C1202 C 0.82764 0.58814 0.34187 0.0
C1203 C 0.8296 0.54721 0.32534 0.0
N1204 N 0.77881 0.58181 0.32727 0.0
N1205 N 0.81125 0.54994 0.3137 0.0
H1206 H 0.59432 0.06257 0.81314 0.0
H1207 H 0.54081 0.1311 0.922 0.0
H1208 H 0.6312 0.13826 0.83688 0.0
H1209 H 0.495 0.0776 0.84492 0.0
H1210 H 0.57322 0.12397 0.90562 0.0
H1211 H 0.55678 0.05969 0.83582 0.0
C1212 C 0.59453 0.07848 0.82295 0.0
C1213 C 0.61591 0.10068 0.82314 0.0
C1214 C 0.55597 0.11351 0.89263 0.0
C1215 C 0.57377 0.09734 0.84974 0.0
C1216 C 0.53746 0.11751 0.90202 0.0
C1217 C 0.51537 0.10527 0.88426 0.0
C1218 C 0.55258 0.09725 0.86505 0.0
C1219 C 0.51189 0.08752 0.85903 0.0
C1220 C 0.57322 0.0768 0.83584 0.0
C1221 C 0.61525 0.12076 0.83612 0.0
N1222 N 0.53054 0.08429 0.84957 0.0
N1223 N 0.59467 0.11854 0.84913 0.0
H1224 H 0.86098 0.49064 0.79073 0.0
H1225 H 0.92766 0.42267 0.84609 0.0
H1226 H 0.93553 0.53622 0.81777 0.0
H1227 H 0.86066 0.40921 0.89262 0.0
H1228 H 0.93403 0.46153 0.82343 0.0
H1229 H 0.86332 0.45612 0.81106 0.0
C1230 C 0.87801 0.49339 0.80044 0.0
C1231 C 0.89799 0.51642 0.80314 0.0
C1232 C 0.91822 0.45008 0.83916 0.0
C1233 C 0.90066 0.47674 0.82667 0.0
C1234 C 0.91458 0.42803 0.85218 0.0
C1235 C 0.89335 0.41243 0.87072 0.0
C1236 C 0.90032 0.4561 0.84443 0.0
C1237 C 0.87702 0.42029 0.87782 0.0
C1238 C 0.87927 0.47365 0.81216 0.0
C1239 C 0.91968 0.51873 0.81547 0.0
N1240 N 0.88066 0.44128 0.86415 0.0
N1241 N 0.92044 0.49904 0.82729 0.0
H1242 H 0.60682 0.48241 0.80111 0.0
H1243 H 0.46626 0.4076 0.84031 0.0
H1244 H 0.57357 0.50407 0.8821 0.0
H1245 H 0.50698 0.38387 0.77817 0.0
H1246 H 0.50253 0.44746 0.84566 0.0
H1247 H 0.56751 0.45144 0.78114 0.0
C1248 C 0.59111 0.48074 0.81443 0.0
C1249 C 0.59337 0.49546 0.84365 0.0
C1250 C 0.50327 0.43357 0.8303 0.0
C1251 C 0.54813 0.45954 0.82156 0.0
C1252 C 0.48262 0.41095 0.82708 0.0
C1253 C 0.48376 0.39242 0.80904 0.0
C1254 C 0.52486 0.43751 0.81481 0.0
C1255 C 0.50532 0.39751 0.79262 0.0
C1256 C 0.56863 0.46304 0.80308 0.0
C1257 C 0.57247 0.49288 0.85959 0.0
N1258 N 0.52495 0.41945 0.79604 0.0
N1259 N 0.5506 0.47484 0.84881 0.0
H1260 H 0.52514 0.70571 0.62644 0.0
H1261 H 0.59383 0.84287 0.68599 0.0
H1262 H 0.60034 0.74085 0.65286 0.0
H1263 H 0.51776 0.79395 0.6959 0.0
H1264 H 0.59882 0.80903 0.66648 0.0
H1265 H 0.52462 0.74193 0.64143 0.0
C1266 C 0.54167 0.72116 0.63518 0.0
C1267 C 0.56275 0.72013 0.63882 0.0
C1268 C 0.58114 0.80591 0.67314 0.0
C1269 C 0.56219 0.76193 0.65671 0.0
C1270 C 0.57825 0.82513 0.68431 0.0
C1271 C 0.55531 0.82137 0.69249 0.0
C1272 C 0.5609 0.783 0.66972 0.0
C1273 C 0.5358 0.79797 0.6898 0.0
C1274 C 0.54133 0.74188 0.64395 0.0
C1275 C 0.58368 0.74092 0.64986 0.0
N1276 N 0.53906 0.77987 0.67849 0.0
N1277 N 0.58286 0.76105 0.65878 0.0
H1278 H 0.21072 0.73954 0.74179 0.0
H1279 H 0.2613 0.86577 0.64477 0.0
H1280 H 0.16268 0.75323 0.67856 0.0
H1281 H 0.30063 0.82877 0.66295 0.0
H1282 H 0.22453 0.82967 0.66577 0.0
H1283 H 0.24361 0.77865 0.72526 0.0
C1284 C 0.20703 0.75094 0.72471 0.0
C1285 C 0.18401 0.74294 0.71099 0.0
C1286 C 0.24129 0.82965 0.6649 0.0
C1287 C 0.22185 0.78783 0.69149 0.0
C1288 C 0.26218 0.85011 0.6529 0.0
C1289 C 0.28407 0.8503 0.65223 0.0
C1290 C 0.24266 0.8097 0.67687 0.0
C1291 C 0.28427 0.82958 0.66306 0.0
C1292 C 0.22586 0.77325 0.71514 0.0
C1293 C 0.18024 0.75873 0.68953 0.0
N1294 N 0.26401 0.81032 0.67516 0.0
N1295 N 0.19912 0.78045 0.67994 0.0
H1296 H 0.268 0.47427 0.74248 0.0
H1297 H 0.14039 0.39971 0.64783 0.0
H1298 H 0.25153 0.41147 0.67979 0.0
H1299 H 0.17692 0.47551 0.67048 0.0
H1300 H 0.17647 0.39872 0.66799 0.0
H1301 H 0.22904 0.46896 0.72758 0.0
C1302 C 0.25609 0.4592 0.72575 0.0
C1303 C 0.26326 0.44356 0.7118 0.0
C1304 C 0.17639 0.41547 0.66838 0.0
C1305 C 0.21841 0.43749 0.69429 0.0
C1306 C 0.15592 0.41606 0.65692 0.0
C1307 C 0.15567 0.43772 0.65748 0.0
C1308 C 0.19631 0.43659 0.68105 0.0
C1309 C 0.17622 0.45839 0.66948 0.0
C1310 C 0.23382 0.45622 0.71716 0.0
C1311 C 0.24675 0.42404 0.69089 0.0
N1312 N 0.19552 0.45725 0.68094 0.0
N1313 N 0.22507 0.42167 0.68234 0.0
H1314 H 0.36698 0.85888 0.2118 0.0
H1315 H 0.50166 0.92702 0.13836 0.0
H1316 H 0.4013 0.9332 0.18054 0.0
H1317 H 0.45595 0.85041 0.14799 0.0
H1318 H 0.46836 0.93208 0.16048 0.0
H1319 H 0.40322 0.85827 0.19751 0.0
C1320 C 0.38226 0.87521 0.20213 0.0
C1321 C 0.38099 0.89605 0.19697 0.0
C1322 C 0.46581 0.91424 0.15767 0.0
C1323 C 0.42284 0.89538 0.1797 0.0
C1324 C 0.48474 0.91132 0.14506 0.0
C1325 C 0.48162 0.88824 0.14103 0.0
C1326 C 0.44387 0.89394 0.16671 0.0
C1327 C 0.45932 0.86857 0.15025 0.0
C1328 C 0.40303 0.87483 0.19379 0.0
C1329 C 0.40157 0.91673 0.18476 0.0
N1330 N 0.44148 0.87191 0.16262 0.0
N1331 N 0.42169 0.91584 0.17608 0.0
H1332 H 0.151 0.61096 0.18656 0.0
H1333 H 0.06903 0.46836 0.19242 0.0
H1334 H 0.0797 0.57461 0.14162 0.0
H1335 H 0.14281 0.50891 0.22598 0.0
H1336 H 0.0694 0.50627 0.18131 0.0
H1337 H 0.1451 0.57318 0.2087 0.0
C1338 C 0.13401 0.59496 0.18127 0.0
C1339 C 0.11597 0.59599 0.16157 0.0
C1340 C 0.08536 0.50676 0.19157 0.0
C1341 C 0.10905 0.5521 0.18708 0.0
C1342 C 0.0851 0.48519 0.19815 0.0
C1343 C 0.106 0.48558 0.20984 0.0
C1344 C 0.1066 0.52866 0.19714 0.0
C1345 C 0.12639 0.50778 0.21659 0.0
C1346 C 0.13061 0.57328 0.1941 0.0
C1347 C 0.09416 0.57461 0.15642 0.0
N1348 N 0.12619 0.52832 0.20998 0.0
N1349 N 0.09138 0.55341 0.16874 0.0
H1350 H 0.53161 0.5996 0.18024 0.0
H1351 H 0.38925 0.53892 0.16969 0.0
H1352 H 0.49041 0.63185 0.21517 0.0
H1353 H 0.42531 0.50058 0.13829 0.0
H1354 H 0.42688 0.57173 0.19058 0.0
H1355 H 0.49389 0.56178 0.1694 0.0
C1356 C 0.5147 0.59858 0.18627 0.0
C1357 C 0.51408 0.61893 0.19823 0.0
C1358 C 0.42677 0.5562 0.17924 0.0
C1359 C 0.47121 0.57614 0.1858 0.0
C1360 C 0.40517 0.5374 0.16707 0.0
C1361 C 0.40411 0.51703 0.15168 0.0
C1362 C 0.44783 0.55503 0.17579 0.0
C1363 C 0.42536 0.51603 0.14978 0.0
C1364 C 0.49323 0.5771 0.17991 0.0
C1365 C 0.49177 0.61675 0.20549 0.0
N1366 N 0.44649 0.53493 0.16134 0.0
N1367 N 0.47136 0.5959 0.19895 0.0
H1368 H 0.14364 0.6359 0.66916 0.0
H1369 H 0.07818 0.49486 0.66391 0.0
H1370 H 0.06869 0.59535 0.69709 0.0
H1371 H 0.13871 0.54168 0.59761 0.0
H1372 H 0.07299 0.52925 0.67929 0.0
H1373 H 0.14193 0.59963 0.64819 0.0
C1374 C 0.12674 0.61928 0.67102 0.0
C1375 C 0.10625 0.61869 0.6849 0.0
C1376 C 0.08708 0.53175 0.66087 0.0
C1377 C 0.10416 0.57667 0.66055 0.0
C1378 C 0.08999 0.51218 0.65196 0.0
C1379 C 0.10918 0.51556 0.62997 0.0
C1380 C 0.10358 0.55462 0.64775 0.0
C1381 C 0.12399 0.53833 0.61527 0.0
C1382 C 0.12574 0.59851 0.65871 0.0
C1383 C 0.08488 0.59653 0.68649 0.0
N1384 N 0.12105 0.55695 0.62477 0.0
N1385 N 0.08438 0.57622 0.67462 0.0
H1386 H 0.40911 0.47179 0.6921 0.0
H1387 H 0.46004 0.59685 0.59205 0.0
H1388 H 0.37055 0.50968 0.67485 0.0
H1389 H 0.50793 0.58509 0.65906 0.0
H1390 H 0.42733 0.55784 0.60937 0.0
H1391 H 0.446 0.50757 0.67041 0.0
C1392 C 0.40841 0.48755 0.68395 0.0
C1393 C 0.38672 0.48774 0.6852 0.0
C1394 C 0.44502 0.56368 0.62013 0.0
C1395 C 0.42821 0.52794 0.65982 0.0
C1396 C 0.46376 0.58595 0.6102 0.0
C1397 C 0.48668 0.5945 0.62473 0.0
C1398 C 0.44902 0.54963 0.64489 0.0
C1399 C 0.49045 0.57924 0.6475 0.0
C1400 C 0.42936 0.50784 0.67162 0.0
C1401 C 0.38676 0.50858 0.67437 0.0
N1402 N 0.47166 0.55753 0.65735 0.0
N1403 N 0.40703 0.52764 0.66191 0.0
H1404 H 0.41874 0.92804 0.67472 0.0
H1405 H 0.50709 0.87771 0.63851 0.0
H1406 H 0.40918 0.8759 0.59398 0.0
H1407 H 0.5265 0.9366 0.71158 0.0
H1408 H 0.47273 0.88031 0.61909 0.0
H1409 H 0.45963 0.93531 0.68578 0.0
C1410 C 0.42544 0.91855 0.65885 0.0
C1411 C 0.41054 0.90107 0.63381 0.0
C1412 C 0.48442 0.89288 0.63923 0.0
C1413 C 0.45679 0.90916 0.64624 0.0
C1414 C 0.50407 0.89132 0.65044 0.0
C1415 C 0.51945 0.90678 0.67695 0.0
C1416 C 0.47956 0.90975 0.65512 0.0
C1417 C 0.51492 0.92432 0.69108 0.0
C1418 C 0.44866 0.92261 0.66525 0.0
C1419 C 0.41993 0.88921 0.61398 0.0
N1420 N 0.49505 0.92511 0.68039 0.0
N1421 N 0.44228 0.89334 0.62082 0.0
H1422 H 0.16821 0.40414 0.20877 0.0
H1423 H 0.29183 0.46189 0.1009 0.0
H1424 H 0.19933 0.46984 0.14776 0.0
H1425 H 0.26706 0.39786 0.16442 0.0
H1426 H 0.25362 0.45984 0.10943 0.0
H1427 H 0.19994 0.3968 0.18591 0.0
C1428 C 0.18146 0.41678 0.19019 0.0
C1429 C 0.18143 0.43784 0.18062 0.0
C1430 C 0.25624 0.44599 0.1213 0.0
C1431 C 0.21738 0.42955 0.15434 0.0
C1432 C 0.27812 0.44713 0.11625 0.0
C1433 C 0.28264 0.43013 0.13216 0.0
C1434 C 0.23877 0.42804 0.14333 0.0
C1435 C 0.26416 0.41129 0.15165 0.0
C1436 C 0.19954 0.41263 0.17725 0.0
C1437 C 0.19892 0.45361 0.15644 0.0
N1438 N 0.24309 0.41097 0.15734 0.0
N1439 N 0.21615 0.44921 0.1444 0.0
H1440 H 0.53421 0.82822 0.09923 0.0
H1441 H 0.5951 0.76186 0.19822 0.0
H1442 H 0.59999 0.86796 0.1588 0.0
H1443 H 0.52231 0.72878 0.15957 0.0
H1444 H 0.60187 0.80074 0.17525 0.0
H1445 H 0.53517 0.79169 0.11012 0.0
C1446 C 0.5491 0.82929 0.11425 0.0
C1447 C 0.56689 0.85108 0.12847 0.0
C1448 C 0.58452 0.78486 0.17172 0.0
C1449 C 0.56778 0.80894 0.14217 0.0
C1450 C 0.58065 0.76273 0.18476 0.0
C1451 C 0.558 0.74211 0.18127 0.0
C1452 C 0.56572 0.78608 0.15456 0.0
C1453 C 0.53994 0.7442 0.16349 0.0
C1454 C 0.54959 0.80835 0.12066 0.0
C1455 C 0.58592 0.85142 0.14741 0.0
N1456 N 0.54421 0.76567 0.15092 0.0
N1457 N 0.58568 0.8305 0.15433 0.0
H1458 H 0.17974 0.70626 0.13343 0.0
H1459 H 0.24628 0.84261 0.17409 0.0
H1460 H 0.13278 0.73515 0.14905 0.0
H1461 H 0.25719 0.79159 0.23434 0.0
H1462 H 0.2078 0.80918 0.1519 0.0
H1463 H 0.21338 0.74412 0.15278 0.0
C1464 C 0.17652 0.72071 0.14041 0.0
C1465 C 0.15333 0.7174 0.14021 0.0
C1466 C 0.21856 0.80561 0.17055 0.0
C1467 C 0.19199 0.7609 0.16257 0.0
C1468 C 0.24038 0.82457 0.18331 0.0
C1469 C 0.25519 0.8198 0.20554 0.0
C1470 C 0.212 0.78202 0.17992 0.0
C1471 C 0.2467 0.79611 0.21661 0.0
C1472 C 0.19575 0.74228 0.15157 0.0
C1473 C 0.1504 0.737 0.14905 0.0
N1474 N 0.22597 0.77814 0.20318 0.0
N1475 N 0.1696 0.75804 0.16037 0.0
H1476 H 0.16613 0.20376 0.165 0.0
H1477 H 0.2431 0.24255 0.34633 0.0
H1478 H 0.24272 0.23307 0.16103 0.0
H1479 H 0.16932 0.18642 0.33822 0.0
H1480 H 0.24423 0.24702 0.28003 0.0
H1481 H 0.16814 0.2061 0.23019 0.0
C1482 C 0.18348 0.21085 0.17773 0.0
C1483 C 0.20426 0.21785 0.15721 0.0
C1484 C 0.22786 0.23383 0.29301 0.0
C1485 C 0.20659 0.22058 0.2327 0.0
C1486 C 0.22715 0.23135 0.33071 0.0
C1487 C 0.20611 0.21399 0.34779 0.0
C1488 C 0.2072 0.21925 0.27264 0.0
C1489 C 0.18599 0.19987 0.32629 0.0
C1490 C 0.18457 0.21213 0.21514 0.0
C1491 C 0.22621 0.22727 0.17569 0.0
N1492 N 0.18702 0.20289 0.29005 0.0
N1493 N 0.22681 0.22822 0.2125 0.0
H1494 H 0.79176 0.95723 0.15868 0.0
H1495 H 0.76046 0.0012 0.3413 0.0
H1496 H 0.76778 0.00888 0.1558 0.0
H1497 H 0.81349 0.97945 0.33098 0.0
H1498 H 0.75443 0.99707 0.27528 0.0
H1499 H 0.78999 0.95713 0.22401 0.0
C1500 C 0.7859 0.96845 0.1717 0.0
C1501 C 0.78034 0.98345 0.15148 0.0
C1502 C 0.76728 0.99315 0.28772 0.0
C1503 C 0.7783 0.98333 0.22697 0.0
C1504 C 0.77065 0.99539 0.32525 0.0
C1505 C 0.78762 0.99081 0.34159 0.0
C1506 C 0.78052 0.98568 0.26681 0.0
C1507 C 0.80041 0.98342 0.31958 0.0
C1508 C 0.78495 0.96839 0.20914 0.0
C1509 C 0.77243 0.99719 0.17023 0.0
N1510 N 0.79652 0.981 0.28352 0.0
N1511 N 0.77185 0.99698 0.20705 0.0
H1512 H 0.03467 0.78366 0.35077 0.0
H1513 H 0.96805 0.7505 0.16012 0.0
H1514 H 0.96291 0.77112 0.33726 0.0
H1515 H 0.04204 0.80535 0.17144 0.0
H1516 H 0.96558 0.74493 0.22598 0.0
H1517 H 0.03686 0.77867 0.28528 0.0
C1518 C 0.01921 0.77929 0.33413 0.0
C1519 C 0.99863 0.77794 0.34922 0.0
C1520 C 0.98246 0.75778 0.21382 0.0
C1521 C 0.00087 0.77183 0.275 0.0
C1522 C 0.98392 0.76085 0.17638 0.0
C1523 C 0.00526 0.77846 0.16054 0.0
C1524 C 0.00264 0.77201 0.23524 0.0
C1525 C 0.02525 0.79166 0.18277 0.0
C1526 C 0.02052 0.77658 0.29691 0.0
C1527 C 0.97915 0.77248 0.32652 0.0
N1528 N 0.02347 0.7882 0.21904 0.0
N1529 N 0.98072 0.76961 0.29051 0.0
H1530 H 0.75384 0.76506 0.84143 0.0
H1531 H 0.83206 0.80917 0.66394 0.0
H1532 H 0.82991 0.79152 0.83783 0.0
H1533 H 0.75646 0.75825 0.65692 0.0
H1534 H 0.83022 0.80367 0.72878 0.0
H1535 H 0.75264 0.76194 0.77512 0.0
C1536 C 0.77016 0.76976 0.82687 0.0
C1537 C 0.79209 0.77897 0.84524 0.0
C1538 C 0.81398 0.7935 0.71322 0.0
C1539 C 0.79086 0.77574 0.76979 0.0
C1540 C 0.815 0.79677 0.67611 0.0
C1541 C 0.79435 0.78426 0.65496 0.0
C1542 C 0.79206 0.77789 0.72984 0.0
C1543 C 0.7728 0.76822 0.6723 0.0
C1544 C 0.76946 0.76804 0.78907 0.0
C1545 C 0.81266 0.78478 0.82493 0.0
N1546 N 0.77211 0.76569 0.70892 0.0
N1547 N 0.81157 0.78336 0.78848 0.0
H1548 H 0.18801 0.02323 0.66621 0.0
H1549 H 0.22918 0.98381 0.84334 0.0
H1550 H 0.23736 0.99663 0.65927 0.0
H1551 H 0.19699 0.02855 0.84147 0.0
H1552 H 0.23321 0.98747 0.77709 0.0
H1553 H 0.1913 0.0241 0.73129 0.0
C1554 C 0.19965 0.01761 0.67846 0.0
C1555 C 0.21232 0.00972 0.6572 0.0
C1556 C 0.22552 0.99664 0.79142 0.0
C1557 C 0.2161 0.0105 0.73256 0.0
C1558 C 0.22324 0.99459 0.82918 0.0
C1559 C 0.21234 0.00554 0.84805 0.0
C1560 C 0.2168 0.00968 0.77267 0.0
C1561 C 0.20506 0.01935 0.82826 0.0
C1562 C 0.20161 0.0182 0.71579 0.0
C1563 C 0.22732 0.00289 0.67471 0.0
N1564 N 0.20724 0.02082 0.7919 0.0
N1565 N 0.2286 0.00315 0.71152 0.0
H1566 H 0.00447 0.24543 0.6599 0.0
H1567 H 0.96108 0.1724 0.84508 0.0
H1568 H 0.976 0.1694 0.67158 0.0
H1569 H 0.01497 0.24728 0.84462 0.0
H1570 H 0.95826 0.17349 0.77989 0.0
H1571 H 0.0014 0.24846 0.72595 0.0
C1572 C 0.99734 0.2294 0.67625 0.0
C1573 C 0.99065 0.20714 0.66032 0.0
C1574 C 0.97058 0.18979 0.79396 0.0
C1575 C 0.98675 0.21042 0.73516 0.0
C1576 C 0.97217 0.18921 0.83129 0.0
C1577 C 0.98862 0.20968 0.85039 0.0
C1578 C 0.98557 0.21096 0.77515 0.0
C1579 C 0.00215 0.23105 0.83094 0.0
C1580 C 0.9957 0.23116 0.71381 0.0
C1581 C 0.98161 0.18695 0.68269 0.0
N1582 N 0.00058 0.23109 0.7942 0.0
N1583 N 0.9799 0.18908 0.71877 0.0
H1584 H 0.85088 0.55953 0.49362 0.0
H1585 H 0.89407 0.52565 0.66694 0.0
H1586 H 0.91089 0.54764 0.48784 0.0
H1587 H 0.87444 0.58037 0.67224 0.0
H1588 H 0.89826 0.53083 0.60131 0.0
H1589 H 0.85662 0.56498 0.55907 0.0
C1590 C 0.86547 0.5584 0.50611 0.0
C1591 C 0.88044 0.55313 0.48537 0.0
C1592 C 0.89347 0.542 0.61691 0.0
C1593 C 0.88665 0.55869 0.56011 0.0
C1594 C 0.89104 0.53904 0.65426 0.0
C1595 C 0.884 0.55268 0.67489 0.0
C1596 C 0.88798 0.55812 0.59998 0.0
C1597 C 0.88012 0.56968 0.65723 0.0
C1598 C 0.86877 0.56159 0.54336 0.0
C1599 C 0.89905 0.55182 0.50286 0.0
N1600 N 0.88165 0.57157 0.62062 0.0
N1601 N 0.90133 0.55406 0.53937 0.0
H1602 H 0.44937 0.36702 0.49945 0.0
H1603 H 0.41748 0.30245 0.69159 0.0
H1604 H 0.4326 0.29388 0.51334 0.0
H1605 H 0.47477 0.3751 0.67699 0.0
H1606 H 0.41023 0.29943 0.62614 0.0
H1607 H 0.44583 0.37011 0.56507 0.0
C1608 C 0.4443 0.35146 0.51621 0.0
C1609 C 0.44139 0.33021 0.50119 0.0
C1610 C 0.42404 0.31614 0.63751 0.0
C1611 C 0.43704 0.33352 0.57559 0.0
C1612 C 0.4281 0.31792 0.67472 0.0
C1613 C 0.44685 0.339 0.6895 0.0
C1614 C 0.43843 0.33578 0.61528 0.0
C1615 C 0.46027 0.35848 0.66649 0.0
C1616 C 0.44244 0.35328 0.55351 0.0
C1617 C 0.43512 0.31061 0.52404 0.0
N1618 N 0.45583 0.35642 0.63047 0.0
N1619 N 0.43317 0.31273 0.56016 0.0
H1620 H 0.69641 0.1141 0.68435 0.0
H1621 H 0.62989 0.08455 0.49407 0.0
H1622 H 0.62513 0.10333 0.67331 0.0
H1623 H 0.7038 0.13934 0.5066 0.0
H1624 H 0.62707 0.0784 0.55987 0.0
H1625 H 0.6981 0.11015 0.61862 0.0
C1626 C 0.6809 0.11026 0.66821 0.0
C1627 C 0.66064 0.10914 0.68416 0.0
C1628 C 0.64398 0.09143 0.54798 0.0
C1629 C 0.66237 0.10433 0.60946 0.0
C1630 C 0.64564 0.09484 0.51059 0.0
C1631 C 0.66708 0.11253 0.49509 0.0
C1632 C 0.66409 0.10534 0.56967 0.0
C1633 C 0.68692 0.12561 0.51764 0.0
C1634 C 0.68195 0.10818 0.63081 0.0
C1635 C 0.64113 0.10444 0.66196 0.0
N1636 N 0.68498 0.12174 0.55382 0.0
N1637 N 0.64246 0.10221 0.62569 0.0
H1638 H 0.47331 0.16692 0.17755 0.0
H1639 H 0.43712 0.08732 1.00123 0.0
H1640 H 0.42796 0.09031 0.18548 0.0
H1641 H 0.45742 0.16202 0.00312 0.0
H1642 H 0.43302 0.08622 0.06745 0.0
H1643 H 0.46826 0.16418 0.11262 0.0
C1644 C 0.46221 0.14944 0.16555 0.0
C1645 C 0.45116 0.1288 0.18699 0.0
C1646 C 0.43797 0.10268 0.05314 0.0
C1647 C 0.44535 0.12544 0.11196 0.0
C1648 C 0.44023 0.10331 0.01539 0.0
C1649 C 0.44804 0.12491 0.99662 0.0
C1650 C 0.4437 0.12382 0.07195 0.0
C1651 C 0.45184 0.14508 0.01638 0.0
C1652 C 0.4592 0.14789 0.12837 0.0
C1653 C 0.43676 0.10666 0.16987 0.0
N1654 N 0.44993 0.14409 0.05279 0.0
N1655 N 0.43451 0.10549 0.13318 0.0
H1656 H 0.91285 0.3378 0.18015 0.0
H1657 H 0.84075 0.29643 0.99389 0.0
H1658 H 0.83618 0.30389 0.16869 0.0
H1659 H 0.91418 0.35389 0.99638 0.0
H1660 H 0.84202 0.29184 0.05865 0.0
H1661 H 0.91639 0.33762 0.11373 0.0
C1662 C 0.89681 0.33008 0.16374 0.0
C1663 C 0.87419 0.32099 0.17989 0.0
C1664 C 0.85797 0.30537 0.04514 0.0
C1665 C 0.87808 0.32043 0.10459 0.0
C1666 C 0.85728 0.308 0.00804 0.0
C1667 C 0.87725 0.32589 0.98965 0.0
C1668 C 0.87874 0.32077 0.0645 0.0
C1669 C 0.89832 0.33997 0.00952 0.0
C1670 C 0.89886 0.3301 0.12598 0.0
C1671 C 0.85399 0.31131 0.15745 0.0
N1672 N 0.89845 0.33733 0.04608 0.0
N1673 N 0.85643 0.31125 0.12117 0.0
H1674 H 0.67969 0.58038 0.18018 0.0
H1675 H 0.64026 0.50357 1.00047 0.0
H1676 H 0.62942 0.50449 0.1755 0.0
H1677 H 0.66941 0.58003 0.99624 0.0
H1678 H 0.63753 0.50484 0.06552 0.0
H1679 H 0.67693 0.58229 0.11409 0.0
C1680 C 0.66778 0.56424 0.16544 0.0
C1681 C 0.65507 0.54216 0.18343 0.0
C1682 C 0.64439 0.52141 0.05058 0.0
C1683 C 0.65207 0.5442 0.10816 0.0
C1684 C 0.64609 0.52071 0.01331 0.0
C1685 C 0.65524 0.54176 0.99286 0.0
C1686 C 0.65227 0.5434 0.06807 0.0
C1687 C 0.66224 0.56339 0.01106 0.0
C1688 C 0.66627 0.56534 0.12776 0.0
C1689 C 0.63993 0.52184 0.1629 0.0
N1690 N 0.66091 0.56374 0.04781 0.0
N1691 N 0.63909 0.52333 0.12655 0.0
H1692 H 0.54436 0.91821 0.00687 0.0
H1693 H 0.58241 0.88808 0.81811 0.0
H1694 H 0.56126 0.86178 0.99549 0.0
H1695 H 0.52275 0.90036 0.82716 0.0
H1696 H 0.58707 0.89141 0.88404 0.0
H1697 H 0.54871 0.92456 0.94117 0.0
C1698 C 0.54956 0.9076 0.99064 0.0
C1699 C 0.55239 0.8894 0.00639 0.0
C1700 C 0.57329 0.89382 0.87137 0.0
C1701 C 0.55775 0.89682 0.93196 0.0
C1702 C 0.57071 0.89208 0.83389 0.0
C1703 C 0.55209 0.89384 0.81732 0.0
C1704 C 0.55757 0.89799 0.89218 0.0
C1705 C 0.53723 0.89875 0.839 0.0
C1706 C 0.55189 0.91113 0.9533 0.0
C1707 C 0.55884 0.87591 0.98422 0.0
N1708 N 0.54028 0.90067 0.87538 0.0
N1709 N 0.56134 0.87991 0.94808 0.0
H1710 H 0.14761 0.64688 0.00387 0.0
H1711 H 0.10278 0.68219 0.82919 0.0
H1712 H 0.09404 0.66789 0.01414 0.0
H1713 H 0.12664 0.63047 0.83054 0.0
H1714 H 0.09988 0.67973 0.89555 0.0
H1715 H 0.14197 0.64422 0.93897 0.0
C1716 C 0.1346 0.65094 0.9924 0.0
C1717 C 0.12134 0.65769 0.01446 0.0
C1718 C 0.10536 0.66869 0.88107 0.0
C1719 C 0.11485 0.65483 0.93959 0.0
C1720 C 0.10697 0.67003 0.84324 0.0
C1721 C 0.1154 0.65685 0.8242 0.0
C1722 C 0.11243 0.65426 0.89969 0.0
C1723 C 0.12055 0.64137 0.84391 0.0
C1724 C 0.13126 0.64927 0.95528 0.0
C1725 C 0.10456 0.66253 0.99802 0.0
N1726 N 0.11931 0.64079 0.88039 0.0
N1727 N 0.10199 0.66133 0.96137 0.0
H1728 H 0.37544 0.45769 0.01357 0.0
H1729 H 0.3085 0.41862 0.82389 0.0
H1730 H 0.30123 0.43747 1.00125 0.0
H1731 H 0.37891 0.48063 0.83408 0.0
H1732 H 0.30729 0.41328 0.88963 0.0
H1733 H 0.37818 0.45409 0.94779 0.0
C1734 C 0.35962 0.45192 0.9971 0.0
C1735 C 0.3381 0.44792 0.0126 0.0
C1736 C 0.32317 0.42772 0.87725 0.0
C1737 C 0.341 0.4434 0.93813 0.0
C1738 C 0.32396 0.43069 0.83984 0.0
C1739 C 0.3438 0.45016 0.82366 0.0
C1740 C 0.34261 0.44395 0.89836 0.0
C1741 C 0.36323 0.46548 0.84561 0.0
C1742 C 0.36123 0.45001 0.95974 0.0
C1743 C 0.31815 0.44078 0.99016 0.0
N1744 N 0.36216 0.46207 0.88191 0.0
N1745 N 0.32005 0.4387 0.95402 0.0
H1746 H 0.16095 0.45008 0.51527 0.0
H1747 H 0.08932 0.42346 0.3291 0.0
H1748 H 0.08784 0.4351 0.51347 0.0
H1749 H 0.16589 0.4667 0.34122 0.0
H1750 H 0.08568 0.41809 0.39531 0.0
H1751 H 0.15971 0.4453 0.45022 0.0
C1752 C 0.14448 0.4455 0.50123 0.0
C1753 C 0.1246 0.44344 0.51991 0.0
C1754 C 0.10322 0.42855 0.38324 0.0
C1755 C 0.12317 0.43809 0.4448 0.0
C1756 C 0.10532 0.43152 0.3456 0.0
C1757 C 0.12794 0.44569 0.32976 0.0
C1758 C 0.12395 0.43934 0.40476 0.0
C1759 C 0.14809 0.45585 0.35229 0.0
C1760 C 0.14382 0.44283 0.46398 0.0
C1761 C 0.10362 0.437 0.50014 0.0
N1762 N 0.14562 0.45243 0.38844 0.0
N1763 N 0.10353 0.43486 0.46346 0.0
H1764 H 0.5845 0.70785 0.32011 0.0
H1765 H 0.55207 0.63836 0.50788 0.0
H1766 H 0.52584 0.63553 0.33084 0.0
H1767 H 0.56596 0.71089 0.50004 0.0
H1768 H 0.55591 0.63753 0.44194 0.0
H1769 H 0.5909 0.7092 0.38578 0.0
C1770 C 0.57338 0.6921 0.33619 0.0
C1771 C 0.55456 0.67158 0.32027 0.0
C1772 C 0.55865 0.65376 0.4549 0.0
C1773 C 0.56207 0.67285 0.39463 0.0
C1774 C 0.55666 0.65432 0.49239 0.0
C1775 C 0.55868 0.67472 0.50924 0.0
C1776 C 0.56333 0.67395 0.43443 0.0
C1777 C 0.56423 0.69482 0.48794 0.0
C1778 C 0.57696 0.69293 0.37349 0.0
C1779 C 0.54045 0.65171 0.34224 0.0
N1780 N 0.56636 0.69395 0.45157 0.0
N1781 N 0.54451 0.65281 0.37834 0.0
H1782 H 0.36789 0.88228 0.33295 0.0
H1783 H 0.32414 0.91224 0.51667 0.0
H1784 H 0.31043 0.89825 0.32993 0.0
H1785 H 0.34793 0.86089 0.50429 0.0
H1786 H 0.32626 0.91748 0.45026 0.0
H1787 H 0.36952 0.88652 0.3981 0.0
C1788 C 0.35575 0.88696 0.34596 0.0
C1789 C 0.33865 0.88941 0.3259 0.0
C1790 C 0.331 0.90515 0.4624 0.0
C1791 C 0.34042 0.89419 0.40106 0.0
C1792 C 0.32987 0.9022 0.50011 0.0
C1793 C 0.33564 0.88592 0.51597 0.0
C1794 C 0.33868 0.89227 0.44095 0.0
C1795 C 0.34299 0.87339 0.49333 0.0
C1796 C 0.35669 0.88934 0.38323 0.0
C1797 C 0.32376 0.89602 0.34438 0.0
N1798 N 0.34442 0.87693 0.45724 0.0
N1799 N 0.32474 0.89787 0.38115 0.0
loop_
_geom_bond_atom_site_label_1
_geom_bond_atom_site_label_2
_geom_bond_distance
_geom_bond_site_symmetry_2
_ccdc_geom_bond_type
Co0 O1 2.216 1_554 S
Co0 O2 2.091 . S
Co0 O4 2.004 . S
Co0 O10 2.021 . S
Co0 O12 2.137 . S
Co0 O13 2.244 . S
O1 Co0 2.216 1_556 S
O1 C8 1.247 . S
O2 Co0 2.091 . S
O2 C8 1.261 1_554 S
C3 O12 1.247 . S
C3 O13 1.272 . S
O4 Co0 2.004 . S
O4 C9 1.259 . S
Co5 O6 2.061 . S
Co5 O11 2.052 . S
Co5 O13 2.135 . S
O6 Co5 2.061 . S
O6 C9 1.235 . S
C7 O10 1.238 . S
C7 O11 1.241 . S
C8 O1 1.247 . S
C8 O2 1.261 1_556 S
C9 O4 1.259 . S
C9 O6 1.235 . S
O10 Co0 2.021 . S
O10 C7 1.238 . S
O11 Co5 2.052 . S
O11 C7 1.241 . S
O12 Co0 2.137 . S
O12 C3 1.247 . S
O13 Co0 2.244 . S
O13 C3 1.272 . S
O13 Co5 2.135 . S
Co14 O15 2.216 1_554 S
Co14 O16 2.091 . S
Co14 O18 2.004 . S
Co14 O24 2.021 . S
Co14 O26 2.137 1_545 S
Co14 O27 2.244 1_545 S
O15 Co14 2.216 1_556 S
O15 C22 1.247 . S
O16 Co14 2.091 . S
O16 C22 1.261 1_554 S
C17 O26 1.247 . S
C17 O27 1.272 . S
O18 Co14 2.004 . S
O18 C23 1.259 . S
Co19 O20 2.061 . S
Co19 O25 2.052 . S
Co19 O27 2.135 1_545 S
O20 Co19 2.061 . S
O20 C23 1.235 . S
C21 O24 1.238 . S
C21 O25 1.241 . S
C22 O15 1.247 . S
C22 O16 1.261 1_556 S
C23 O18 1.259 . S
C23 O20 1.235 . S
O24 Co14 2.021 . S
O24 C21 1.238 . S
O25 Co19 2.052 . S
O25 C21 1.241 . S
O26 Co14 2.137 1_565 S
O26 C17 1.247 . S
O27 Co14 2.244 1_565 S
O27 C17 1.272 . S
O27 Co19 2.135 1_565 S
Co28 O29 2.216 1_554 S
Co28 O30 2.091 . S
Co28 O32 2.004 . S
Co28 O38 2.021 . S
Co28 O40 2.137 1_655 S
Co28 O41 2.244 1_655 S
O29 Co28 2.216 1_556 S
O29 C36 1.247 . S
O30 Co28 2.091 . S
O30 C36 1.261 1_554 S
C31 O40 1.247 . S
C31 O41 1.272 . S
O32 Co28 2.004 . S
O32 C37 1.259 . S
Co33 O34 2.061 . S
Co33 O39 2.052 . S
Co33 O41 2.135 1_655 S
O34 Co33 2.061 . S
O34 C37 1.235 . S
C35 O38 1.238 . S
C35 O39 1.241 . S
C36 O29 1.247 . S
C36 O30 1.261 1_556 S
C37 O32 1.259 . S
C37 O34 1.235 . S
O38 Co28 2.021 . S
O38 C35 1.238 . S
O39 Co33 2.052 . S
O39 C35 1.241 . S
O40 Co28 2.137 1_455 S
O40 C31 1.247 . S
O41 Co28 2.244 1_455 S
O41 C31 1.272 . S
O41 Co33 2.135 1_455 S
Co42 O43 2.216 . S
Co42 O44 2.091 . S
Co42 O46 2.004 . S
Co42 O52 2.021 . S
Co42 O54 2.137 . S
Co42 O55 2.244 . S
O43 Co42 2.216 . S
O43 C50 1.247 . S
O44 Co42 2.091 . S
O44 C50 1.261 . S
C45 O54 1.247 . S
C45 O55 1.272 . S
O46 Co42 2.004 . S
O46 C51 1.259 . S
Co47 O48 2.061 . S
Co47 O53 2.052 . S
Co47 O55 2.135 . S
O48 Co47 2.061 . S
O48 C51 1.235 . S
C49 O52 1.238 . S
C49 O53 1.241 . S
C50 O43 1.247 . S
C50 O44 1.261 . S
C51 O46 1.259 . S
C51 O48 1.235 . S
O52 Co42 2.021 . S
O52 C49 1.238 . S
O53 Co47 2.052 . S
O53 C49 1.241 . S
O54 Co42 2.137 . S
O54 C45 1.247 . S
O55 Co42 2.244 . S
O55 C45 1.272 . S
O55 Co47 2.135 . S
Co56 O57 2.216 . S
Co56 O58 2.091 . S
Co56 O60 2.004 . S
Co56 O66 2.021 . S
Co56 O68 2.137 1_565 S
Co56 O69 2.244 1_565 S
O57 Co56 2.216 . S
O57 C64 1.247 . S
O58 Co56 2.091 . S
O58 C64 1.261 . S
C59 O68 1.247 . S
C59 O69 1.272 . S
O60 Co56 2.004 . S
O60 C65 1.259 . S
Co61 O62 2.061 . S
Co61 O67 2.052 . S
Co61 O69 2.135 1_565 S
O62 Co61 2.061 . S
O62 C65 1.235 . S
C63 O66 1.238 . S
C63 O67 1.241 . S
C64 O57 1.247 . S
C64 O58 1.261 . S
C65 O60 1.259 . S
C65 O62 1.235 . S
O66 Co56 2.021 . S
O66 C63 1.238 . S
O67 Co61 2.052 . S
O67 C63 1.241 . S
O68 Co56 2.137 1_545 S
O68 C59 1.247 . S
O69 Co56 2.244 1_545 S
O69 C59 1.272 . S
O69 Co61 2.135 1_545 S
Co70 O71 2.216 . S
Co70 O72 2.091 . S
Co70 O74 2.004 . S
Co70 O80 2.021 . S
Co70 O82 2.137 1_455 S
Co70 O83 2.244 1_455 S
O71 Co70 2.216 . S
O71 C78 1.247 . S
O72 Co70 2.091 . S
O72 C78 1.261 . S
C73 O82 1.247 . S
C73 O83 1.272 . S
O74 Co70 2.004 . S
O74 C79 1.259 . S
Co75 O76 2.061 . S
Co75 O81 2.052 . S
Co75 O83 2.135 1_455 S
O76 Co75 2.061 . S
O76 C79 1.235 . S
C77 O80 1.238 . S
C77 O81 1.241 . S
C78 O71 1.247 . S
C78 O72 1.261 . S
C79 O74 1.259 . S
C79 O76 1.235 . S
O80 Co70 2.021 . S
O80 C77 1.238 . S
O81 Co75 2.052 . S
O81 C77 1.241 . S
O82 Co70 2.137 1_655 S
O82 C73 1.247 . S
O83 Co70 2.244 1_655 S
O83 C73 1.272 . S
O83 Co75 2.135 1_655 S
Co84 O85 2.216 1_556 S
Co84 O86 2.091 . S
Co84 O88 2.004 . S
Co84 O94 2.021 . S
Co84 O96 2.137 . S
Co84 O97 2.244 . S
O85 Co84 2.216 1_554 S
O85 C92 1.247 . S
O86 Co84 2.091 . S
O86 C92 1.261 1_556 S
C87 O96 1.247 . S
C87 O97 1.272 . S
O88 Co84 2.004 . S
O88 C93 1.259 . S
Co89 O90 2.061 . S
Co89 O95 2.052 . S
Co89 O97 2.135 . S
O90 Co89 2.061 . S
O90 C93 1.235 . S
C91 O94 1.238 . S
C91 O95 1.241 . S
C92 O85 1.247 . S
C92 O86 1.261 1_554 S
C93 O88 1.259 . S
C93 O90 1.235 . S
O94 Co84 2.021 . S
O94 C91 1.238 . S
O95 Co89 2.052 . S
O95 C91 1.241 . S
O96 Co84 2.137 . S
O96 C87 1.247 . S
O97 Co84 2.244 . S
O97 C87 1.272 . S
O97 Co89 2.135 . S
Co98 O99 2.216 1_556 S
Co98 O100 2.091 . S
Co98 O102 2.004 . S
Co98 O108 2.021 . S
Co98 O110 2.137 1_565 S
Co98 O111 2.244 1_565 S
O99 Co98 2.216 1_554 S
O99 C106 1.247 . S
O100 Co98 2.091 . S
O100 C106 1.261 1_556 S
C101 O110 1.247 . S
C101 O111 1.272 . S
O102 Co98 2.004 . S
O102 C107 1.259 . S
Co103 O104 2.061 . S
Co103 O109 2.052 . S
Co103 O111 2.135 1_565 S
O104 Co103 2.061 . S
O104 C107 1.235 . S
C105 O108 1.238 . S
C105 O109 1.241 . S
C106 O99 1.247 . S
C106 O100 1.261 1_554 S
C107 O102 1.259 . S
C107 O104 1.235 . S
O108 Co98 2.021 . S
O108 C105 1.238 . S
O109 Co103 2.052 . S
O109 C105 1.241 . S
O110 Co98 2.137 1_545 S
O110 C101 1.247 . S
O111 Co98 2.244 1_545 S
O111 C101 1.272 . S
O111 Co103 2.135 1_545 S
Co112 O113 2.216 1_556 S
Co112 O114 2.091 . S
Co112 O116 2.004 . S
Co112 O122 2.021 . S
Co112 O124 2.137 1_455 S
Co112 O125 2.244 1_455 S
O113 Co112 2.216 1_554 S
O113 C120 1.247 . S
O114 Co112 2.091 . S
O114 C120 1.261 1_556 S
C115 O124 1.247 . S
C115 O125 1.272 . S
O116 Co112 2.004 . S
O116 C121 1.259 . S
Co117 O118 2.061 . S
Co117 O123 2.052 . S
Co117 O125 2.135 1_455 S
O118 Co117 2.061 . S
O118 C121 1.235 . S
C119 O122 1.238 . S
C119 O123 1.241 . S
C120 O113 1.247 . S
C120 O114 1.261 1_554 S
C121 O116 1.259 . S
C121 O118 1.235 . S
O122 Co112 2.021 . S
O122 C119 1.238 . S
O123 Co117 2.052 . S
O123 C119 1.241 . S
O124 Co112 2.137 1_655 S
O124 C115 1.247 . S
O125 Co112 2.244 1_655 S
O125 C115 1.272 . S
O125 Co117 2.135 1_655 S
Co126 O127 2.216 . S
Co126 O128 2.091 . S
Co126 O130 2.004 . S
Co126 O136 2.021 . S
Co126 O138 2.137 . S
Co126 O139 2.244 . S
O127 Co126 2.216 . S
O127 C134 1.247 . S
O128 Co126 2.091 . S
O128 C134 1.261 . S
C129 O138 1.247 . S
C129 O139 1.272 . S
O130 Co126 2.004 . S
O130 C135 1.259 . S
Co131 O132 2.061 . S
Co131 O137 2.052 . S
Co131 O139 2.135 . S
O132 Co131 2.061 . S
O132 C135 1.235 . S
C133 O136 1.238 . S
C133 O137 1.241 . S
C134 O127 1.247 . S
C134 O128 1.261 . S
C135 O130 1.259 . S
C135 O132 1.235 . S
O136 Co126 2.021 . S
O136 C133 1.238 . S
O137 Co131 2.052 . S
O137 C133 1.241 . S
O138 Co126 2.137 . S
O138 C129 1.247 . S
O139 Co126 2.244 . S
O139 C129 1.272 . S
O139 Co131 2.135 . S
Co140 O141 2.216 . S
Co140 O142 2.091 . S
Co140 O144 2.004 . S
Co140 O150 2.021 . S
Co140 O152 2.137 1_545 S
Co140 O153 2.244 1_545 S
O141 Co140 2.216 . S
O141 C148 1.247 . S
O142 Co140 2.091 . S
O142 C148 1.261 . S
C143 O152 1.247 . S
C143 O153 1.272 . S
O144 Co140 2.004 . S
O144 C149 1.259 . S
Co145 O146 2.061 . S
Co145 O151 2.052 . S
Co145 O153 2.135 1_545 S
O146 Co145 2.061 . S
O146 C149 1.235 . S
C147 O150 1.238 . S
C147 O151 1.241 . S
C148 O141 1.247 . S
C148 O142 1.261 . S
C149 O144 1.259 . S
C149 O146 1.235 . S
O150 Co140 2.021 . S
O150 C147 1.238 . S
O151 Co145 2.052 . S
O151 C147 1.241 . S
O152 Co140 2.137 1_565 S
O152 C143 1.247 . S
O153 Co140 2.244 1_565 S
O153 C143 1.272 . S
O153 Co145 2.135 1_565 S
Co154 O155 2.216 . S
Co154 O156 2.091 . S
Co154 O158 2.004 . S
Co154 O164 2.021 . S
Co154 O166 2.137 1_655 S
Co154 O167 2.244 1_655 S
O155 Co154 2.216 . S
O155 C162 1.247 . S
O156 Co154 2.091 . S
O156 C162 1.261 . S
C157 O166 1.247 . S
C157 O167 1.272 . S
O158 Co154 2.004 . S
O158 C163 1.259 . S
Co159 O160 2.061 . S
Co159 O165 2.052 . S
Co159 O167 2.135 1_655 S
O160 Co159 2.061 . S
O160 C163 1.235 . S
C161 O164 1.238 . S
C161 O165 1.241 . S
C162 O155 1.247 . S
C162 O156 1.261 . S
C163 O158 1.259 . S
C163 O160 1.235 . S
O164 Co154 2.021 . S
O164 C161 1.238 . S
O165 Co159 2.052 . S
O165 C161 1.241 . S
O166 Co154 2.137 1_455 S
O166 C157 1.247 . S
O167 Co154 2.244 1_455 S
O167 C157 1.272 . S
O167 Co159 2.135 1_455 S
Co168 O169 2.216 . S
Co168 O170 2.091 . S
Co168 O172 2.004 . S
Co168 O178 2.021 . S
Co168 O180 2.137 . S
Co168 O181 2.244 . S
O169 Co168 2.216 . S
O169 C176 1.247 . S
O170 Co168 2.091 . S
O170 C176 1.261 . S
C171 O180 1.247 . S
C171 O181 1.272 . S
O172 Co168 2.004 . S
O172 C177 1.259 . S
Co173 O174 2.061 . S
Co173 O179 2.052 . S
Co173 O181 2.135 . S
O174 Co173 2.061 . S
O174 C177 1.235 . S
C175 O178 1.238 . S
C175 O179 1.241 . S
C176 O169 1.247 . S
C176 O170 1.261 . S
C177 O172 1.259 . S
C177 O174 1.235 . S
O178 Co168 2.021 . S
O178 C175 1.238 . S
O179 Co173 2.052 . S
O179 C175 1.241 . S
O180 Co168 2.137 . S
O180 C171 1.247 . S
O181 Co168 2.244 . S
O181 C171 1.272 . S
O181 Co173 2.135 . S
Co182 O183 2.216 . S
Co182 O184 2.091 . S
Co182 O186 2.004 . S
Co182 O192 2.021 . S
Co182 O194 2.137 . S
Co182 O195 2.244 . S
O183 Co182 2.216 . S
O183 C190 1.247 . S
O184 Co182 2.091 . S
O184 C190 1.261 . S
C185 O194 1.247 . S
C185 O195 1.272 . S
O186 Co182 2.004 . S
O186 C191 1.259 . S
Co187 O188 2.061 . S
Co187 O193 2.052 . S
Co187 O195 2.135 . S
O188 Co187 2.061 . S
O188 C191 1.235 . S
C189 O192 1.238 . S
C189 O193 1.241 . S
C190 O183 1.247 . S
C190 O184 1.261 . S
C191 O186 1.259 . S
C191 O188 1.235 . S
O192 Co182 2.021 . S
O192 C189 1.238 . S
O193 Co187 2.052 . S
O193 C189 1.241 . S
O194 Co182 2.137 . S
O194 C185 1.247 . S
O195 Co182 2.244 . S
O195 C185 1.272 . S
O195 Co187 2.135 . S
Co196 O197 2.216 . S
Co196 O198 2.091 . S
Co196 O200 2.004 . S
Co196 O206 2.021 . S
Co196 O208 2.137 . S
Co196 O209 2.244 . S
O197 Co196 2.216 . S
O197 C204 1.247 . S
O198 Co196 2.091 . S
O198 C204 1.261 . S
C199 O208 1.247 . S
C199 O209 1.272 . S
O200 Co196 2.004 . S
O200 C205 1.259 . S
Co201 O202 2.061 . S
Co201 O207 2.052 . S
Co201 O209 2.135 . S
O202 Co201 2.061 . S
O202 C205 1.235 . S
C203 O206 1.238 . S
C203 O207 1.241 . S
C204 O197 1.247 . S
C204 O198 1.261 . S
C205 O200 1.259 . S
C205 O202 1.235 . S
O206 Co196 2.021 . S
O206 C203 1.238 . S
O207 Co201 2.052 . S
O207 C203 1.241 . S
O208 Co196 2.137 . S
O208 C199 1.247 . S
O209 Co196 2.244 . S
O209 C199 1.272 . S
O209 Co201 2.135 . S
Co210 O211 2.216 . S
Co210 O212 2.091 . S
Co210 O214 2.004 . S
Co210 O220 2.021 . S
Co210 O222 2.137 . S
Co210 O223 2.244 . S
O211 Co210 2.216 . S
O211 C218 1.247 . S
O212 Co210 2.091 . S
O212 C218 1.261 . S
C213 O222 1.247 . S
C213 O223 1.272 . S
O214 Co210 2.004 . S
O214 C219 1.259 . S
Co215 O216 2.061 . S
Co215 O221 2.052 . S
Co215 O223 2.135 . S
O216 Co215 2.061 . S
O216 C219 1.235 . S
C217 O220 1.238 . S
C217 O221 1.241 . S
C218 O211 1.247 . S
C218 O212 1.261 . S
C219 O214 1.259 . S
C219 O216 1.235 . S
O220 Co210 2.021 . S
O220 C217 1.238 . S
O221 Co215 2.052 . S
O221 C217 1.241 . S
O222 Co210 2.137 . S
O222 C213 1.247 . S
O223 Co210 2.244 . S
O223 C213 1.272 . S
O223 Co215 2.135 . S
Co224 O225 2.216 . S
Co224 O226 2.091 . S
Co224 O228 2.004 . S
Co224 O234 2.021 . S
Co224 O236 2.137 . S
Co224 O237 2.244 . S
O225 Co224 2.216 . S
O225 C232 1.247 . S
O226 Co224 2.091 . S
O226 C232 1.261 . S
C227 O236 1.247 . S
C227 O237 1.272 . S
O228 Co224 2.004 . S
O228 C233 1.259 . S
Co229 O230 2.061 . S
Co229 O235 2.052 . S
Co229 O237 2.135 . S
O230 Co229 2.061 . S
O230 C233 1.235 . S
C231 O234 1.238 . S
C231 O235 1.241 . S
C232 O225 1.247 . S
C232 O226 1.261 . S
C233 O228 1.259 . S
C233 O230 1.235 . S
O234 Co224 2.021 . S
O234 C231 1.238 . S
O235 Co229 2.052 . S
O235 C231 1.241 . S
O236 Co224 2.137 . S
O236 C227 1.247 . S
O237 Co224 2.244 . S
O237 C227 1.272 . S
O237 Co229 2.135 . S
Co238 O239 2.216 . S
Co238 O240 2.091 . S
Co238 O242 2.004 . S
Co238 O248 2.021 . S
Co238 O250 2.137 . S
Co238 O251 2.244 . S
O239 Co238 2.216 . S
O239 C246 1.247 . S
O240 Co238 2.091 . S
O240 C246 1.261 . S
C241 O250 1.247 . S
C241 O251 1.272 . S
O242 Co238 2.004 . S
O242 C247 1.259 . S
Co243 O244 2.061 . S
Co243 O249 2.052 . S
Co243 O251 2.135 . S
O244 Co243 2.061 . S
O244 C247 1.235 . S
C245 O248 1.238 . S
C245 O249 1.241 . S
C246 O239 1.247 . S
C246 O240 1.261 . S
C247 O242 1.259 . S
C247 O244 1.235 . S
O248 Co238 2.021 . S
O248 C245 1.238 . S
O249 Co243 2.052 . S
O249 C245 1.241 . S
O250 Co238 2.137 . S
O250 C241 1.247 . S
O251 Co238 2.244 . S
O251 C241 1.272 . S
O251 Co243 2.135 . S
Co252 O253 2.216 . S
Co252 O254 2.091 . S
Co252 O256 2.004 . S
Co252 O262 2.021 . S
Co252 O264 2.137 . S
Co252 O265 2.244 . S
O253 Co252 2.216 . S
O253 C260 1.247 . S
O254 Co252 2.091 . S
O254 C260 1.261 . S
C255 O264 1.247 . S
C255 O265 1.272 . S
O256 Co252 2.004 . S
O256 C261 1.259 . S
Co257 O258 2.061 . S
Co257 O263 2.052 . S
Co257 O265 2.135 . S
O258 Co257 2.061 . S
O258 C261 1.235 . S
C259 O262 1.238 . S
C259 O263 1.241 . S
C260 O253 1.247 . S
C260 O254 1.261 . S
C261 O256 1.259 . S
C261 O258 1.235 . S
O262 Co252 2.021 . S
O262 C259 1.238 . S
O263 Co257 2.052 . S
O263 C259 1.241 . S
O264 Co252 2.137 . S
O264 C255 1.247 . S
O265 Co252 2.244 . S
O265 C255 1.272 . S
O265 Co257 2.135 . S
Co266 O267 2.216 . S
Co266 O268 2.091 . S
Co266 O270 2.004 . S
Co266 O276 2.021 . S
Co266 O278 2.137 . S
Co266 O279 2.244 . S
O267 Co266 2.216 . S
O267 C274 1.247 . S
O268 Co266 2.091 . S
O268 C274 1.261 . S
C269 O278 1.247 . S
C269 O279 1.272 . S
O270 Co266 2.004 . S
O270 C275 1.259 . S
Co271 O272 2.061 . S
Co271 O277 2.052 . S
Co271 O279 2.135 . S
O272 Co271 2.061 . S
O272 C275 1.235 . S
C273 O276 1.238 . S
C273 O277 1.241 . S
C274 O267 1.247 . S
C274 O268 1.261 . S
C275 O270 1.259 . S
C275 O272 1.235 . S
O276 Co266 2.021 . S
O276 C273 1.238 . S
O277 Co271 2.052 . S
O277 C273 1.241 . S
O278 Co266 2.137 . S
O278 C269 1.247 . S
O279 Co266 2.244 . S
O279 C269 1.272 . S
O279 Co271 2.135 . S
Co280 O281 2.216 . S
Co280 O282 2.091 . S
Co280 O284 2.004 . S
Co280 O290 2.021 . S
Co280 O292 2.137 . S
Co280 O293 2.244 . S
O281 Co280 2.216 . S
O281 C288 1.247 . S
O282 Co280 2.091 . S
O282 C288 1.261 . S
C283 O292 1.247 . S
C283 O293 1.272 . S
O284 Co280 2.004 . S
O284 C289 1.259 . S
Co285 O286 2.061 . S
Co285 O291 2.052 . S
Co285 O293 2.135 . S
O286 Co285 2.061 . S
O286 C289 1.235 . S
C287 O290 1.238 . S
C287 O291 1.241 . S
C288 O281 1.247 . S
C288 O282 1.261 . S
C289 O284 1.259 . S
C289 O286 1.235 . S
O290 Co280 2.021 . S
O290 C287 1.238 . S
O291 Co285 2.052 . S
O291 C287 1.241 . S
O292 Co280 2.137 . S
O292 C283 1.247 . S
O293 Co280 2.244 . S
O293 C283 1.272 . S
O293 Co285 2.135 . S
Co294 O295 2.216 . S
Co294 O296 2.091 . S
Co294 O298 2.004 . S
Co294 O304 2.021 . S
Co294 O306 2.137 . S
Co294 O307 2.244 . S
O295 Co294 2.216 . S
O295 C302 1.247 . S
O296 Co294 2.091 . S
O296 C302 1.261 . S
C297 O306 1.247 . S
C297 O307 1.272 . S
O298 Co294 2.004 . S
O298 C303 1.259 . S
Co299 O300 2.061 . S
Co299 O305 2.052 . S
Co299 O307 2.135 . S
O300 Co299 2.061 . S
O300 C303 1.235 . S
C301 O304 1.238 . S
C301 O305 1.241 . S
C302 O295 1.247 . S
C302 O296 1.261 . S
C303 O298 1.259 . S
C303 O300 1.235 . S
O304 Co294 2.021 . S
O304 C301 1.238 . S
O305 Co299 2.052 . S
O305 C301 1.241 . S
O306 Co294 2.137 . S
O306 C297 1.247 . S
O307 Co294 2.244 . S
O307 C297 1.272 . S
O307 Co299 2.135 . S
Co308 O309 2.216 . S
Co308 O310 2.091 . S
Co308 O312 2.004 . S
Co308 O318 2.021 . S
Co308 O320 2.137 . S
Co308 O321 2.244 . S
O309 Co308 2.216 . S
O309 C316 1.247 . S
O310 Co308 2.091 . S
O310 C316 1.261 . S
C311 O320 1.247 . S
C311 O321 1.272 . S
O312 Co308 2.004 . S
O312 C317 1.259 . S
Co313 O314 2.061 . S
Co313 O319 2.052 . S
Co313 O321 2.135 . S
O314 Co313 2.061 . S
O314 C317 1.235 . S
C315 O318 1.238 . S
C315 O319 1.241 . S
C316 O309 1.247 . S
C316 O310 1.261 . S
C317 O312 1.259 . S
C317 O314 1.235 . S
O318 Co308 2.021 . S
O318 C315 1.238 . S
O319 Co313 2.052 . S
O319 C315 1.241 . S
O320 Co308 2.137 . S
O320 C311 1.247 . S
O321 Co308 2.244 . S
O321 C311 1.272 . S
O321 Co313 2.135 . S
Co322 O323 2.216 . S
Co322 O324 2.091 . S
Co322 O326 2.004 . S
Co322 O332 2.021 . S
Co322 O334 2.137 . S
Co322 O335 2.244 . S
O323 Co322 2.216 . S
O323 C330 1.247 . S
O324 Co322 2.091 . S
O324 C330 1.261 . S
C325 O334 1.247 . S
C325 O335 1.272 . S
O326 Co322 2.004 . S
O326 C331 1.259 . S
Co327 O328 2.061 . S
Co327 O333 2.052 . S
Co327 O335 2.135 . S
O328 Co327 2.061 . S
O328 C331 1.235 . S
C329 O332 1.238 . S
C329 O333 1.241 . S
C330 O323 1.247 . S
C330 O324 1.261 . S
C331 O326 1.259 . S
C331 O328 1.235 . S
O332 Co322 2.021 . S
O332 C329 1.238 . S
O333 Co327 2.052 . S
O333 C329 1.241 . S
O334 Co322 2.137 . S
O334 C325 1.247 . S
O335 Co322 2.244 . S
O335 C325 1.272 . S
O335 Co327 2.135 . S
Co336 O337 2.216 . S
Co336 O338 2.091 . S
Co336 O340 2.004 . S
Co336 O346 2.021 . S
Co336 O348 2.137 . S
Co336 O349 2.244 . S
O337 Co336 2.216 . S
O337 C344 1.247 . S
O338 Co336 2.091 . S
O338 C344 1.261 . S
C339 O348 1.247 . S
C339 O349 1.272 . S
O340 Co336 2.004 . S
O340 C345 1.259 . S
Co341 O342 2.061 . S
Co341 O347 2.052 . S
Co341 O349 2.135 . S
O342 Co341 2.061 . S
O342 C345 1.235 . S
C343 O346 1.238 . S
C343 O347 1.241 . S
C344 O337 1.247 . S
C344 O338 1.261 . S
C345 O340 1.259 . S
C345 O342 1.235 . S
O346 Co336 2.021 . S
O346 C343 1.238 . S
O347 Co341 2.052 . S
O347 C343 1.241 . S
O348 Co336 2.137 . S
O348 C339 1.247 . S
O349 Co336 2.244 . S
O349 C339 1.272 . S
O349 Co341 2.135 . S
Co350 O351 2.216 . S
Co350 O352 2.091 . S
Co350 O354 2.004 . S
Co350 O360 2.021 . S
Co350 O362 2.137 . S
Co350 O363 2.244 . S
O351 Co350 2.216 . S
O351 C358 1.247 . S
O352 Co350 2.091 . S
O352 C358 1.261 . S
C353 O362 1.247 . S
C353 O363 1.272 . S
O354 Co350 2.004 . S
O354 C359 1.259 . S
Co355 O356 2.061 . S
Co355 O361 2.052 . S
Co355 O363 2.135 . S
O356 Co355 2.061 . S
O356 C359 1.235 . S
C357 O360 1.238 . S
C357 O361 1.241 . S
C358 O351 1.247 . S
C358 O352 1.261 . S
C359 O354 1.259 . S
C359 O356 1.235 . S
O360 Co350 2.021 . S
O360 C357 1.238 . S
O361 Co355 2.052 . S
O361 C357 1.241 . S
O362 Co350 2.137 . S
O362 C353 1.247 . S
O363 Co350 2.244 . S
O363 C353 1.272 . S
O363 Co355 2.135 . S
Co364 O365 2.216 . S
Co364 O366 2.091 . S
Co364 O368 2.004 . S
Co364 O374 2.021 . S
Co364 O376 2.137 . S
Co364 O377 2.244 . S
O365 Co364 2.216 . S
O365 C372 1.247 . S
O366 Co364 2.091 . S
O366 C372 1.261 . S
C367 O376 1.247 . S
C367 O377 1.272 . S
O368 Co364 2.004 . S
O368 C373 1.259 . S
Co369 O370 2.061 . S
Co369 O375 2.052 . S
Co369 O377 2.135 . S
O370 Co369 2.061 . S
O370 C373 1.235 . S
C371 O374 1.238 . S
C371 O375 1.241 . S
C372 O365 1.247 . S
C372 O366 1.261 . S
C373 O368 1.259 . S
C373 O370 1.235 . S
O374 Co364 2.021 . S
O374 C371 1.238 . S
O375 Co369 2.052 . S
O375 C371 1.241 . S
O376 Co364 2.137 . S
O376 C367 1.247 . S
O377 Co364 2.244 . S
O377 C367 1.272 . S
O377 Co369 2.135 . S
Co378 O379 2.216 . S
Co378 O380 2.091 . S
Co378 O382 2.004 . S
Co378 O388 2.021 . S
Co378 O390 2.137 . S
Co378 O391 2.244 . S
O379 Co378 2.216 . S
O379 C386 1.247 . S
O380 Co378 2.091 . S
O380 C386 1.261 . S
C381 O390 1.247 . S
C381 O391 1.272 . S
O382 Co378 2.004 . S
O382 C387 1.259 . S
Co383 O384 2.061 . S
Co383 O389 2.052 . S
Co383 O391 2.135 . S
O384 Co383 2.061 . S
O384 C387 1.235 . S
C385 O388 1.238 . S
C385 O389 1.241 . S
C386 O379 1.247 . S
C386 O380 1.261 . S
C387 O382 1.259 . S
C387 O384 1.235 . S
O388 Co378 2.021 . S
O388 C385 1.238 . S
O389 Co383 2.052 . S
O389 C385 1.241 . S
O390 Co378 2.137 . S
O390 C381 1.247 . S
O391 Co378 2.244 . S
O391 C381 1.272 . S
O391 Co383 2.135 . S
Co392 O393 2.216 . S
Co392 O394 2.091 . S
Co392 O396 2.004 . S
Co392 O402 2.021 . S
Co392 O404 2.137 . S
Co392 O405 2.244 . S
O393 Co392 2.216 . S
O393 C400 1.247 . S
O394 Co392 2.091 . S
O394 C400 1.261 . S
C395 O404 1.247 . S
C395 O405 1.272 . S
O396 Co392 2.004 . S
O396 C401 1.259 . S
Co397 O398 2.061 . S
Co397 O403 2.052 . S
Co397 O405 2.135 . S
O398 Co397 2.061 . S
O398 C401 1.235 . S
C399 O402 1.238 . S
C399 O403 1.241 . S
C400 O393 1.247 . S
C400 O394 1.261 . S
C401 O396 1.259 . S
C401 O398 1.235 . S
O402 Co392 2.021 . S
O402 C399 1.238 . S
O403 Co397 2.052 . S
O403 C399 1.241 . S
O404 Co392 2.137 . S
O404 C395 1.247 . S
O405 Co392 2.244 . S
O405 C395 1.272 . S
O405 Co397 2.135 . S
Co406 O407 2.216 . S
Co406 O408 2.091 . S
Co406 O410 2.004 . S
Co406 O416 2.021 . S
Co406 O418 2.137 . S
Co406 O419 2.244 . S
O407 Co406 2.216 . S
O407 C414 1.247 . S
O408 Co406 2.091 . S
O408 C414 1.261 . S
C409 O418 1.247 . S
C409 O419 1.272 . S
O410 Co406 2.004 . S
O410 C415 1.259 . S
Co411 O412 2.061 . S
Co411 O417 2.052 . S
Co411 O419 2.135 . S
O412 Co411 2.061 . S
O412 C415 1.235 . S
C413 O416 1.238 . S
C413 O417 1.241 . S
C414 O407 1.247 . S
C414 O408 1.261 . S
C415 O410 1.259 . S
C415 O412 1.235 . S
O416 Co406 2.021 . S
O416 C413 1.238 . S
O417 Co411 2.052 . S
O417 C413 1.241 . S
O418 Co406 2.137 . S
O418 C409 1.247 . S
O419 Co406 2.244 . S
O419 C409 1.272 . S
O419 Co411 2.135 . S
Co420 O421 2.216 . S
Co420 O422 2.091 . S
Co420 O424 2.004 . S
Co420 O430 2.021 . S
Co420 O432 2.137 . S
Co420 O433 2.244 . S
O421 Co420 2.216 . S
O421 C428 1.247 . S
O422 Co420 2.091 . S
O422 C428 1.261 . S
C423 O432 1.247 . S
C423 O433 1.272 . S
O424 Co420 2.004 . S
O424 C429 1.259 . S
Co425 O426 2.061 . S
Co425 O431 2.052 . S
Co425 O433 2.135 . S
O426 Co425 2.061 . S
O426 C429 1.235 . S
C427 O430 1.238 . S
C427 O431 1.241 . S
C428 O421 1.247 . S
C428 O422 1.261 . S
C429 O424 1.259 . S
C429 O426 1.235 . S
O430 Co420 2.021 . S
O430 C427 1.238 . S
O431 Co425 2.052 . S
O431 C427 1.241 . S
O432 Co420 2.137 . S
O432 C423 1.247 . S
O433 Co420 2.244 . S
O433 C423 1.272 . S
O433 Co425 2.135 . S
Co434 O435 2.216 . S
Co434 O436 2.091 . S
Co434 O438 2.004 . S
Co434 O444 2.021 . S
Co434 O446 2.137 . S
Co434 O447 2.244 . S
O435 Co434 2.216 . S
O435 C442 1.247 . S
O436 Co434 2.091 . S
O436 C442 1.261 . S
C437 O446 1.247 . S
C437 O447 1.272 . S
O438 Co434 2.004 . S
O438 C443 1.259 . S
Co439 O440 2.061 . S
Co439 O445 2.052 . S
Co439 O447 2.135 . S
O440 Co439 2.061 . S
O440 C443 1.235 . S
C441 O444 1.238 . S
C441 O445 1.241 . S
C442 O435 1.247 . S
C442 O436 1.261 . S
C443 O438 1.259 . S
C443 O440 1.235 . S
O444 Co434 2.021 . S
O444 C441 1.238 . S
O445 Co439 2.052 . S
O445 C441 1.241 . S
O446 Co434 2.137 . S
O446 C437 1.247 . S
O447 Co434 2.244 . S
O447 C437 1.272 . S
O447 Co439 2.135 . S
Co448 O449 2.216 . S
Co448 O450 2.091 . S
Co448 O452 2.004 . S
Co448 O458 2.021 . S
Co448 O460 2.137 . S
Co448 O461 2.244 . S
O449 Co448 2.216 . S
O449 C456 1.247 . S
O450 Co448 2.091 . S
O450 C456 1.261 . S
C451 O460 1.247 . S
C451 O461 1.272 . S
O452 Co448 2.004 . S
O452 C457 1.259 . S
Co453 O454 2.061 . S
Co453 O459 2.052 . S
Co453 O461 2.135 . S
O454 Co453 2.061 . S
O454 C457 1.235 . S
C455 O458 1.238 . S
C455 O459 1.241 . S
C456 O449 1.247 . S
C456 O450 1.261 . S
C457 O452 1.259 . S
C457 O454 1.235 . S
O458 Co448 2.021 . S
O458 C455 1.238 . S
O459 Co453 2.052 . S
O459 C455 1.241 . S
O460 Co448 2.137 . S
O460 C451 1.247 . S
O461 Co448 2.244 . S
O461 C451 1.272 . S
O461 Co453 2.135 . S
Co462 O463 2.216 . S
Co462 O464 2.091 . S
Co462 O466 2.004 . S
Co462 O472 2.021 . S
Co462 O474 2.137 . S
Co462 O475 2.244 . S
O463 Co462 2.216 . S
O463 C470 1.247 . S
O464 Co462 2.091 . S
O464 C470 1.261 . S
C465 O474 1.247 . S
C465 O475 1.272 . S
O466 Co462 2.004 . S
O466 C471 1.259 . S
Co467 O468 2.061 . S
Co467 O473 2.052 . S
Co467 O475 2.135 . S
O468 Co467 2.061 . S
O468 C471 1.235 . S
C469 O472 1.238 . S
C469 O473 1.241 . S
C470 O463 1.247 . S
C470 O464 1.261 . S
C471 O466 1.259 . S
C471 O468 1.235 . S
O472 Co462 2.021 . S
O472 C469 1.238 . S
O473 Co467 2.052 . S
O473 C469 1.241 . S
O474 Co462 2.137 . S
O474 C465 1.247 . S
O475 Co462 2.244 . S
O475 C465 1.272 . S
O475 Co467 2.135 . S
Co476 O477 2.216 . S
Co476 O478 2.091 . S
Co476 O480 2.004 . S
Co476 O486 2.021 . S
Co476 O488 2.137 . S
Co476 O489 2.244 . S
O477 Co476 2.216 . S
O477 C484 1.247 . S
O478 Co476 2.091 . S
O478 C484 1.261 . S
C479 O488 1.247 . S
C479 O489 1.272 . S
O480 Co476 2.004 . S
O480 C485 1.259 . S
Co481 O482 2.061 . S
Co481 O487 2.052 . S
Co481 O489 2.135 . S
O482 Co481 2.061 . S
O482 C485 1.235 . S
C483 O486 1.238 . S
C483 O487 1.241 . S
C484 O477 1.247 . S
C484 O478 1.261 . S
C485 O480 1.259 . S
C485 O482 1.235 . S
O486 Co476 2.021 . S
O486 C483 1.238 . S
O487 Co481 2.052 . S
O487 C483 1.241 . S
O488 Co476 2.137 . S
O488 C479 1.247 . S
O489 Co476 2.244 . S
O489 C479 1.272 . S
O489 Co481 2.135 . S
Co490 O491 2.216 . S
Co490 O492 2.091 . S
Co490 O494 2.004 . S
Co490 O500 2.021 . S
Co490 O502 2.137 . S
Co490 O503 2.244 . S
O491 Co490 2.216 . S
O491 C498 1.247 . S
O492 Co490 2.091 . S
O492 C498 1.261 . S
C493 O502 1.247 . S
C493 O503 1.272 . S
O494 Co490 2.004 . S
O494 C499 1.259 . S
Co495 O496 2.061 . S
Co495 O501 2.052 . S
Co495 O503 2.135 . S
O496 Co495 2.061 . S
O496 C499 1.235 . S
C497 O500 1.238 . S
C497 O501 1.241 . S
C498 O491 1.247 . S
C498 O492 1.261 . S
C499 O494 1.259 . S
C499 O496 1.235 . S
O500 Co490 2.021 . S
O500 C497 1.238 . S
O501 Co495 2.052 . S
O501 C497 1.241 . S
O502 Co490 2.137 . S
O502 C493 1.247 . S
O503 Co490 2.244 . S
O503 C493 1.272 . S
O503 Co495 2.135 . S
H504 C510 0.930 . S
H505 C514 0.930 . S
H506 C519 0.929 . S
H507 C517 0.929 . S
H508 C512 0.929 . S
H509 C518 0.929 . S
C510 H504 0.930 . S
C510 C511 1.367 . S
C510 C518 1.378 . S
C511 C510 1.367 . S
C511 C519 1.433 . S
C512 H508 0.929 . S
C512 C514 1.378 . S
C512 C516 1.350 . S
C513 C516 1.463 . S
C513 C518 1.350 . S
C513 N521 1.427 . S
C514 H505 0.930 . S
C514 C512 1.378 . S
C514 C515 1.367 . S
C515 C514 1.367 . S
C515 C517 1.433 . S
C516 C512 1.350 . S
C516 C513 1.463 . S
C516 N520 1.427 . S
C517 H507 0.929 . S
C517 C515 1.433 . S
C517 N520 1.384 . S
C518 H509 0.929 . S
C518 C510 1.378 . S
C518 C513 1.350 . S
C519 H506 0.929 . S
C519 C511 1.433 . S
C519 N521 1.384 . S
N520 C516 1.427 . S
N520 C517 1.384 . S
N521 C513 1.427 . S
N521 C519 1.384 . S
H522 C528 0.930 . S
H523 C532 0.930 . S
H524 C537 0.929 . S
H525 C535 0.929 . S
H526 C530 0.929 . S
H527 C536 0.929 . S
C528 H522 0.930 . S
C528 C529 1.367 . S
C528 C536 1.378 . S
C529 C528 1.367 . S
C529 C537 1.433 . S
C530 H526 0.929 . S
C530 C532 1.378 . S
C530 C534 1.350 . S
C531 C534 1.463 . S
C531 C536 1.350 . S
C531 N539 1.427 . S
C532 H523 0.930 . S
C532 C530 1.378 . S
C532 C533 1.367 . S
C533 C532 1.367 . S
C533 C535 1.433 . S
C534 C530 1.350 . S
C534 C531 1.463 . S
C534 N538 1.427 . S
C535 H525 0.929 . S
C535 C533 1.433 . S
C535 N538 1.384 . S
C536 H527 0.929 . S
C536 C528 1.378 . S
C536 C531 1.350 . S
C537 H524 0.929 . S
C537 C529 1.433 . S
C537 N539 1.384 . S
N538 C534 1.427 . S
N538 C535 1.384 . S
N539 C531 1.427 . S
N539 C537 1.384 . S
H540 C546 0.930 . S
H541 C550 0.930 . S
H542 C555 0.929 1_554 S
H543 C553 0.929 . S
H544 C548 0.929 . S
H545 C554 0.929 . S
C546 H540 0.930 . S
C546 C547 1.367 . S
C546 C554 1.378 . S
C547 C546 1.367 . S
C547 C555 1.433 . S
C548 H544 0.929 . S
C548 C550 1.378 . S
C548 C552 1.350 . S
C549 C552 1.463 . S
C549 C554 1.350 . S
C549 N557 1.427 . S
C550 H541 0.930 . S
C550 C548 1.378 . S
C550 C551 1.367 . S
C551 C550 1.367 . S
C551 C553 1.433 . S
C552 C548 1.350 . S
C552 C549 1.463 . S
C552 N556 1.427 . S
C553 H543 0.929 . S
C553 C551 1.433 . S
C553 N556 1.384 . S
C554 H545 0.929 . S
C554 C546 1.378 . S
C554 C549 1.350 . S
C555 H542 0.929 1_556 S
C555 C547 1.433 . S
C555 N557 1.384 . S
N556 C552 1.427 . S
N556 C553 1.384 . S
N557 C549 1.427 . S
N557 C555 1.384 . S
H558 C564 0.930 . S
H559 C568 0.930 . S
H560 C573 0.929 . S
H561 C571 0.929 . S
H562 C566 0.929 . S
H563 C572 0.929 . S
C564 H558 0.930 . S
C564 C565 1.367 . S
C564 C572 1.378 . S
C565 C564 1.367 . S
C565 C573 1.433 . S
C566 H562 0.929 . S
C566 C568 1.378 . S
C566 C570 1.350 . S
C567 C570 1.463 . S
C567 C572 1.350 . S
C567 N575 1.427 . S
C568 H559 0.930 . S
C568 C566 1.378 . S
C568 C569 1.367 . S
C569 C568 1.367 . S
C569 C571 1.433 . S
C570 C566 1.350 . S
C570 C567 1.463 . S
C570 N574 1.427 . S
C571 H561 0.929 . S
C571 C569 1.433 . S
C571 N574 1.384 . S
C572 H563 0.929 . S
C572 C564 1.378 . S
C572 C567 1.350 . S
C573 H560 0.929 . S
C573 C565 1.433 . S
C573 N575 1.384 . S
N574 C570 1.427 . S
N574 C571 1.384 . S
N575 C567 1.427 . S
N575 C573 1.384 . S
H576 C582 0.930 . S
H577 C586 0.930 . S
H578 C591 0.929 . S
H579 C589 0.929 . S
H580 C584 0.929 . S
H581 C590 0.929 . S
C582 H576 0.930 . S
C582 C583 1.367 . S
C582 C590 1.378 . S
C583 C582 1.367 . S
C583 C591 1.433 . S
C584 H580 0.929 . S
C584 C586 1.378 . S
C584 C588 1.350 . S
C585 C588 1.463 . S
C585 C590 1.350 . S
C585 N593 1.427 . S
C586 H577 0.930 . S
C586 C584 1.378 . S
C586 C587 1.367 . S
C587 C586 1.367 . S
C587 C589 1.433 . S
C588 C584 1.350 . S
C588 C585 1.463 . S
C588 N592 1.427 . S
C589 H579 0.929 . S
C589 C587 1.433 . S
C589 N592 1.384 . S
C590 H581 0.929 . S
C590 C582 1.378 . S
C590 C585 1.350 . S
C591 H578 0.929 . S
C591 C583 1.433 . S
C591 N593 1.384 . S
N592 C588 1.427 . S
N592 C589 1.384 . S
N593 C585 1.427 . S
N593 C591 1.384 . S
H594 C600 0.930 . S
H595 C604 0.930 . S
H596 C609 0.929 . S
H597 C607 0.929 . S
H598 C602 0.929 . S
H599 C608 0.929 . S
C600 H594 0.930 . S
C600 C601 1.367 . S
C600 C608 1.378 . S
C601 C600 1.367 . S
C601 C609 1.433 . S
C602 H598 0.929 . S
C602 C604 1.378 . S
C602 C606 1.350 . S
C603 C606 1.463 . S
C603 C608 1.350 . S
C603 N611 1.427 . S
C604 H595 0.930 . S
C604 C602 1.378 . S
C604 C605 1.367 . S
C605 C604 1.367 . S
C605 C607 1.433 . S
C606 C602 1.350 . S
C606 C603 1.463 . S
C606 N610 1.427 . S
C607 H597 0.929 . S
C607 C605 1.433 . S
C607 N610 1.384 . S
C608 H599 0.929 . S
C608 C600 1.378 . S
C608 C603 1.350 . S
C609 H596 0.929 . S
C609 C601 1.433 . S
C609 N611 1.384 . S
N610 C606 1.427 . S
N610 C607 1.384 . S
N611 C603 1.427 . S
N611 C609 1.384 . S
H612 C618 0.930 . S
H613 C622 0.930 . S
H614 C627 0.929 . S
H615 C625 0.929 1_556 S
H616 C620 0.929 . S
H617 C626 0.929 . S
C618 H612 0.930 . S
C618 C619 1.367 . S
C618 C626 1.378 . S
C619 C618 1.367 . S
C619 C627 1.433 . S
C620 H616 0.929 . S
C620 C622 1.378 . S
C620 C624 1.350 . S
C621 C624 1.463 . S
C621 C626 1.350 . S
C621 N629 1.427 . S
C622 H613 0.930 . S
C622 C620 1.378 . S
C622 C623 1.367 . S
C623 C622 1.367 . S
C623 C625 1.433 . S
C624 C620 1.350 . S
C624 C621 1.463 . S
C624 N628 1.427 . S
C625 H615 0.929 1_554 S
C625 C623 1.433 . S
C625 N628 1.384 . S
C626 H617 0.929 . S
C626 C618 1.378 . S
C626 C621 1.350 . S
C627 H614 0.929 . S
C627 C619 1.433 . S
C627 N629 1.384 . S
N628 C624 1.427 . S
N628 C625 1.384 . S
N629 C621 1.427 . S
N629 C627 1.384 . S
H630 C636 0.930 . S
H631 C640 0.930 . S
H632 C645 0.929 . S
H633 C643 0.929 . S
H634 C638 0.929 . S
H635 C644 0.929 . S
C636 H630 0.930 . S
C636 C637 1.367 . S
C636 C644 1.378 . S
C637 C636 1.367 . S
C637 C645 1.433 . S
C638 H634 0.929 . S
C638 C640 1.378 . S
C638 C642 1.350 . S
C639 C642 1.463 . S
C639 C644 1.350 . S
C639 N647 1.427 . S
C640 H631 0.930 . S
C640 C638 1.378 . S
C640 C641 1.367 . S
C641 C640 1.367 . S
C641 C643 1.433 . S
C642 C638 1.350 . S
C642 C639 1.463 . S
C642 N646 1.427 . S
C643 H633 0.929 . S
C643 C641 1.433 . S
C643 N646 1.384 . S
C644 H635 0.929 . S
C644 C636 1.378 . S
C644 C639 1.350 . S
C645 H632 0.929 . S
C645 C637 1.433 . S
C645 N647 1.384 . S
N646 C642 1.427 . S
N646 C643 1.384 . S
N647 C639 1.427 . S
N647 C645 1.384 . S
H648 C654 0.930 . S
H649 C658 0.930 . S
H650 C663 0.929 . S
H651 C661 0.929 . S
H652 C656 0.929 . S
H653 C662 0.929 . S
C654 H648 0.930 . S
C654 C655 1.367 . S
C654 C662 1.378 . S
C655 C654 1.367 . S
C655 C663 1.433 . S
C656 H652 0.929 . S
C656 C658 1.378 . S
C656 C660 1.350 . S
C657 C660 1.463 . S
C657 C662 1.350 . S
C657 N665 1.427 . S
C658 H649 0.930 . S
C658 C656 1.378 . S
C658 C659 1.367 . S
C659 C658 1.367 . S
C659 C661 1.433 . S
C660 C656 1.350 . S
C660 C657 1.463 . S
C660 N664 1.427 . S
C661 H651 0.929 . S
C661 C659 1.433 . S
C661 N664 1.384 . S
C662 H653 0.929 . S
C662 C654 1.378 . S
C662 C657 1.350 . S
C663 H650 0.929 . S
C663 C655 1.433 . S
C663 N665 1.384 . S
N664 C660 1.427 . S
N664 C661 1.384 . S
N665 C657 1.427 . S
N665 C663 1.384 . S
H666 C672 0.930 . S
H667 C676 0.930 . S
H668 C681 0.929 . S
H669 C679 0.929 . S
H670 C674 0.929 . S
H671 C680 0.929 . S
C672 H666 0.930 . S
C672 C673 1.367 . S
C672 C680 1.378 . S
C673 C672 1.367 . S
C673 C681 1.433 . S
C674 H670 0.929 . S
C674 C676 1.378 . S
C674 C678 1.350 . S
C675 C678 1.463 . S
C675 C680 1.350 . S
C675 N683 1.427 . S
C676 H667 0.930 . S
C676 C674 1.378 . S
C676 C677 1.367 . S
C677 C676 1.367 . S
C677 C679 1.433 . S
C678 C674 1.350 . S
C678 C675 1.463 . S
C678 N682 1.427 . S
C679 H669 0.929 . S
C679 C677 1.433 . S
C679 N682 1.384 . S
C680 H671 0.929 . S
C680 C672 1.378 . S
C680 C675 1.350 . S
C681 H668 0.929 . S
C681 C673 1.433 . S
C681 N683 1.384 . S
N682 C678 1.427 . S
N682 C679 1.384 . S
N683 C675 1.427 . S
N683 C681 1.384 . S
H684 C690 0.930 . S
H685 C694 0.930 . S
H686 C699 0.929 . S
H687 C697 0.929 . S
H688 C692 0.929 . S
H689 C698 0.929 . S
C690 H684 0.930 . S
C690 C691 1.367 . S
C690 C698 1.378 . S
C691 C690 1.367 . S
C691 C699 1.433 . S
C692 H688 0.929 . S
C692 C694 1.378 . S
C692 C696 1.350 . S
C693 C696 1.463 . S
C693 C698 1.350 . S
C693 N701 1.427 . S
C694 H685 0.930 . S
C694 C692 1.378 . S
C694 C695 1.367 . S
C695 C694 1.367 . S
C695 C697 1.433 . S
C696 C692 1.350 . S
C696 C693 1.463 . S
C696 N700 1.427 . S
C697 H687 0.929 . S
C697 C695 1.433 . S
C697 N700 1.384 . S
C698 H689 0.929 . S
C698 C690 1.378 . S
C698 C693 1.350 . S
C699 H686 0.929 . S
C699 C691 1.433 . S
C699 N701 1.384 . S
N700 C696 1.427 . S
N700 C697 1.384 . S
N701 C693 1.427 . S
N701 C699 1.384 . S
H702 C708 0.930 . S
H703 C712 0.930 . S
H704 C717 0.929 . S
H705 C715 0.929 . S
H706 C710 0.929 . S
H707 C716 0.929 . S
C708 H702 0.930 . S
C708 C709 1.367 . S
C708 C716 1.378 . S
C709 C708 1.367 . S
C709 C717 1.433 . S
C710 H706 0.929 . S
C710 C712 1.378 . S
C710 C714 1.350 . S
C711 C714 1.463 . S
C711 C716 1.350 . S
C711 N719 1.427 . S
C712 H703 0.930 . S
C712 C710 1.378 . S
C712 C713 1.367 . S
C713 C712 1.367 . S
C713 C715 1.433 . S
C714 C710 1.350 . S
C714 C711 1.463 . S
C714 N718 1.427 . S
C715 H705 0.929 . S
C715 C713 1.433 . S
C715 N718 1.384 . S
C716 H707 0.929 . S
C716 C708 1.378 . S
C716 C711 1.350 . S
C717 H704 0.929 . S
C717 C709 1.433 . S
C717 N719 1.384 . S
N718 C714 1.427 . S
N718 C715 1.384 . S
N719 C711 1.427 . S
N719 C717 1.384 . S
H720 C726 0.930 . S
H721 C730 0.930 . S
H722 C735 0.929 . S
H723 C733 0.929 . S
H724 C728 0.929 . S
H725 C734 0.929 . S
C726 H720 0.930 . S
C726 C727 1.367 . S
C726 C734 1.378 . S
C727 C726 1.367 . S
C727 C735 1.433 . S
C728 H724 0.929 . S
C728 C730 1.378 . S
C728 C732 1.350 . S
C729 C732 1.463 1_455 S
C729 C734 1.350 . S
C729 N737 1.427 . S
C730 H721 0.930 . S
C730 C728 1.378 . S
C730 C731 1.367 . S
C731 C730 1.367 . S
C731 C733 1.433 . S
C732 C728 1.350 . S
C732 C729 1.463 1_655 S
C732 N736 1.427 . S
C733 H723 0.929 . S
C733 C731 1.433 . S
C733 N736 1.384 . S
C734 H725 0.929 . S
C734 C726 1.378 . S
C734 C729 1.350 . S
C735 H722 0.929 . S
C735 C727 1.433 . S
C735 N737 1.384 . S
N736 C732 1.427 . S
N736 C733 1.384 . S
N737 C729 1.427 . S
N737 C735 1.384 . S
H738 C744 0.930 . S
H739 C748 0.930 . S
H740 C753 0.929 . S
H741 C751 0.929 . S
H742 C746 0.929 . S
H743 C752 0.929 . S
C744 H738 0.930 . S
C744 C745 1.367 . S
C744 C752 1.378 . S
C745 C744 1.367 . S
C745 C753 1.433 . S
C746 H742 0.929 . S
C746 C748 1.378 . S
C746 C750 1.350 . S
C747 C750 1.463 . S
C747 C752 1.350 . S
C747 N755 1.427 . S
C748 H739 0.930 . S
C748 C746 1.378 . S
C748 C749 1.367 . S
C749 C748 1.367 . S
C749 C751 1.433 . S
C750 C746 1.350 . S
C750 C747 1.463 . S
C750 N754 1.427 . S
C751 H741 0.929 . S
C751 C749 1.433 . S
C751 N754 1.384 . S
C752 H743 0.929 . S
C752 C744 1.378 . S
C752 C747 1.350 . S
C753 H740 0.929 . S
C753 C745 1.433 . S
C753 N755 1.384 . S
N754 C750 1.427 . S
N754 C751 1.384 . S
N755 C747 1.427 . S
N755 C753 1.384 . S
H756 C762 0.930 . S
H757 C766 0.930 . S
H758 C771 0.929 . S
H759 C769 0.929 . S
H760 C764 0.929 1_565 S
H761 C770 0.929 1_545 S
C762 H756 0.930 . S
C762 C763 1.367 . S
C762 C770 1.378 . S
C763 C762 1.367 . S
C763 C771 1.433 . S
C764 H760 0.929 1_545 S
C764 C766 1.378 . S
C764 C768 1.350 . S
C765 C768 1.463 1_565 S
C765 C770 1.350 . S
C765 N773 1.427 . S
C766 H757 0.930 . S
C766 C764 1.378 . S
C766 C767 1.367 . S
C767 C766 1.367 . S
C767 C769 1.433 . S
C768 C764 1.350 . S
C768 C765 1.463 1_545 S
C768 N772 1.427 . S
C769 H759 0.929 . S
C769 C767 1.433 . S
C769 N772 1.384 . S
C770 H761 0.929 1_565 S
C770 C762 1.378 . S
C770 C765 1.350 . S
C771 H758 0.929 . S
C771 C763 1.433 . S
C771 N773 1.384 . S
N772 C768 1.427 . S
N772 C769 1.384 . S
N773 C765 1.427 . S
N773 C771 1.384 . S
H774 C780 0.930 . S
H775 C784 0.930 . S
H776 C789 0.929 . S
H777 C787 0.929 . S
H778 C782 0.929 1_565 S
H779 C788 0.929 1_545 S
C780 H774 0.930 . S
C780 C781 1.367 . S
C780 C788 1.378 . S
C781 C780 1.367 . S
C781 C789 1.433 . S
C782 H778 0.929 1_545 S
C782 C784 1.378 . S
C782 C786 1.350 . S
C783 C786 1.463 1_565 S
C783 C788 1.350 . S
C783 N791 1.427 . S
C784 H775 0.930 . S
C784 C782 1.378 . S
C784 C785 1.367 . S
C785 C784 1.367 . S
C785 C787 1.433 . S
C786 C782 1.350 . S
C786 C783 1.463 1_545 S
C786 N790 1.427 . S
C787 H777 0.929 . S
C787 C785 1.433 . S
C787 N790 1.384 . S
C788 H779 0.929 1_565 S
C788 C780 1.378 . S
C788 C783 1.350 . S
C789 H776 0.929 . S
C789 C781 1.433 . S
C789 N791 1.384 . S
N790 C786 1.427 . S
N790 C787 1.384 . S
N791 C783 1.427 . S
N791 C789 1.384 . S
H792 C798 0.930 . S
H793 C802 0.930 . S
H794 C807 0.929 . S
H795 C805 0.929 . S
H796 C800 0.929 . S
H797 C806 0.929 . S
C798 H792 0.930 . S
C798 C799 1.367 . S
C798 C806 1.378 . S
C799 C798 1.367 . S
C799 C807 1.433 . S
C800 H796 0.929 . S
C800 C802 1.378 . S
C800 C804 1.350 . S
C801 C804 1.463 1_455 S
C801 C806 1.350 . S
C801 N809 1.427 . S
C802 H793 0.930 . S
C802 C800 1.378 . S
C802 C803 1.367 . S
C803 C802 1.367 . S
C803 C805 1.433 . S
C804 C800 1.350 . S
C804 C801 1.463 1_655 S
C804 N808 1.427 . S
C805 H795 0.929 . S
C805 C803 1.433 . S
C805 N808 1.384 . S
C806 H797 0.929 . S
C806 C798 1.378 . S
C806 C801 1.350 . S
C807 H794 0.929 . S
C807 C799 1.433 . S
C807 N809 1.384 . S
N808 C804 1.427 . S
N808 C805 1.384 . S
N809 C801 1.427 . S
N809 C807 1.384 . S
H810 C816 0.930 . S
H811 C820 0.930 . S
H812 C825 0.929 . S
H813 C823 0.929 . S
H814 C818 0.929 . S
H815 C824 0.929 . S
C816 H810 0.930 . S
C816 C817 1.367 . S
C816 C824 1.378 . S
C817 C816 1.367 . S
C817 C825 1.433 . S
C818 H814 0.929 . S
C818 C820 1.378 . S
C818 C822 1.350 . S
C819 C822 1.463 . S
C819 C824 1.350 . S
C819 N827 1.427 . S
C820 H811 0.930 . S
C820 C818 1.378 . S
C820 C821 1.367 . S
C821 C820 1.367 . S
C821 C823 1.433 . S
C822 C818 1.350 . S
C822 C819 1.463 . S
C822 N826 1.427 . S
C823 H813 0.929 . S
C823 C821 1.433 . S
C823 N826 1.384 . S
C824 H815 0.929 . S
C824 C816 1.378 . S
C824 C819 1.350 . S
C825 H812 0.929 . S
C825 C817 1.433 . S
C825 N827 1.384 . S
N826 C822 1.427 . S
N826 C823 1.384 . S
N827 C819 1.427 . S
N827 C825 1.384 . S
H828 C834 0.930 . S
H829 C838 0.930 . S
H830 C843 0.929 . S
H831 C841 0.929 . S
H832 C836 0.929 . S
H833 C842 0.929 . S
C834 H828 0.930 . S
C834 C835 1.367 . S
C834 C842 1.378 . S
C835 C834 1.367 . S
C835 C843 1.433 1_556 S
C836 H832 0.929 . S
C836 C838 1.378 . S
C836 C840 1.350 . S
C837 C840 1.473 . S
C837 C842 1.323 1_554 S
C837 N845 1.447 . S
C838 H829 0.930 . S
C838 C836 1.378 . S
C838 C839 1.367 . S
C839 C838 1.367 . S
C839 C841 1.433 1_554 S
C840 C836 1.350 . S
C840 C837 1.473 . S
C840 N844 1.427 1_554 S
C841 H831 0.929 . S
C841 C839 1.433 1_556 S
C841 N844 1.384 . S
C842 H833 0.929 . S
C842 C834 1.378 . S
C842 C837 1.323 1_556 S
C843 H830 0.929 . S
C843 C835 1.433 1_554 S
C843 N845 1.384 . S
N844 C840 1.427 1_556 S
N844 C841 1.384 . S
N845 C837 1.447 . S
N845 C843 1.384 . S
H846 C852 0.930 . S
H847 C856 0.930 . S
H848 C861 0.929 . S
H849 C859 0.929 . S
H850 C854 0.929 . S
H851 C860 0.929 . S
C852 H846 0.930 . S
C852 C853 1.367 . S
C852 C860 1.378 . S
C853 C852 1.367 . S
C853 C861 1.433 . S
C854 H850 0.929 . S
C854 C856 1.378 . S
C854 C858 1.350 . S
C855 C858 1.463 . S
C855 C860 1.350 1_554 S
C855 N863 1.427 . S
C856 H847 0.930 . S
C856 C854 1.378 . S
C856 C857 1.367 . S
C857 C856 1.367 . S
C857 C859 1.433 . S
C858 C854 1.350 . S
C858 C855 1.463 . S
C858 N862 1.427 . S
C859 H849 0.929 . S
C859 C857 1.433 . S
C859 N862 1.384 . S
C860 H851 0.929 . S
C860 C852 1.378 . S
C860 C855 1.350 1_556 S
C861 H848 0.929 . S
C861 C853 1.433 . S
C861 N863 1.384 1_556 S
N862 C858 1.427 . S
N862 C859 1.384 . S
N863 C855 1.427 . S
N863 C861 1.384 1_554 S
H864 C870 0.930 . S
H865 C874 0.930 . S
H866 C879 0.929 . S
H867 C877 0.929 . S
H868 C872 0.929 . S
H869 C878 0.929 1_554 S
C870 H864 0.930 . S
C870 C871 1.367 . S
C870 C878 1.378 . S
C871 C870 1.367 . S
C871 C879 1.433 . S
C872 H868 0.929 . S
C872 C874 1.378 . S
C872 C876 1.350 . S
C873 C876 1.463 . S
C873 C878 1.350 1_554 S
C873 N881 1.427 1_554 S
C874 H865 0.930 . S
C874 C872 1.378 . S
C874 C875 1.367 . S
C875 C874 1.367 . S
C875 C877 1.433 . S
C876 C872 1.350 . S
C876 C873 1.463 . S
C876 N880 1.427 . S
C877 H867 0.929 . S
C877 C875 1.433 . S
C877 N880 1.384 . S
C878 H869 0.929 1_556 S
C878 C870 1.378 . S
C878 C873 1.350 1_556 S
C879 H866 0.929 . S
C879 C871 1.433 . S
C879 N881 1.384 . S
N880 C876 1.427 . S
N880 C877 1.384 . S
N881 C873 1.427 1_556 S
N881 C879 1.384 . S
H882 C888 0.930 . S
H883 C892 0.930 . S
H884 C897 0.929 . S
H885 C895 0.929 . S
H886 C890 0.929 . S
H887 C896 0.929 . S
C888 H882 0.930 . S
C888 C889 1.367 . S
C888 C896 1.378 . S
C889 C888 1.367 . S
C889 C897 1.433 . S
C890 H886 0.929 . S
C890 C892 1.378 . S
C890 C894 1.350 . S
C891 C894 1.463 . S
C891 C896 1.350 . S
C891 N899 1.427 . S
C892 H883 0.930 . S
C892 C890 1.378 . S
C892 C893 1.367 . S
C893 C892 1.367 . S
C893 C895 1.433 . S
C894 C890 1.350 . S
C894 C891 1.463 . S
C894 N898 1.427 . S
C895 H885 0.929 . S
C895 C893 1.433 . S
C895 N898 1.384 . S
C896 H887 0.929 . S
C896 C888 1.378 . S
C896 C891 1.350 . S
C897 H884 0.929 . S
C897 C889 1.433 . S
C897 N899 1.384 . S
N898 C894 1.427 . S
N898 C895 1.384 . S
N899 C891 1.427 . S
N899 C897 1.384 . S
H900 C906 0.930 . S
H901 C910 0.930 . S
H902 C915 0.929 . S
H903 C913 0.929 . S
H904 C908 0.929 . S
H905 C914 0.929 . S
C906 H900 0.930 . S
C906 C907 1.367 . S
C906 C914 1.378 . S
C907 C906 1.367 . S
C907 C915 1.433 . S
C908 H904 0.929 . S
C908 C910 1.378 . S
C908 C912 1.350 . S
C909 C912 1.463 . S
C909 C914 1.350 . S
C909 N917 1.427 . S
C910 H901 0.930 . S
C910 C908 1.378 . S
C910 C911 1.367 . S
C911 C910 1.367 . S
C911 C913 1.433 . S
C912 C908 1.350 . S
C912 C909 1.463 . S
C912 N916 1.427 . S
C913 H903 0.929 . S
C913 C911 1.433 . S
C913 N916 1.384 . S
C914 H905 0.929 . S
C914 C906 1.378 . S
C914 C909 1.350 . S
C915 H902 0.929 . S
C915 C907 1.433 . S
C915 N917 1.384 . S
N916 C912 1.427 . S
N916 C913 1.384 . S
N917 C909 1.427 . S
N917 C915 1.384 . S
H918 C924 0.930 . S
H919 C928 0.930 . S
H920 C933 0.929 . S
H921 C931 0.929 . S
H922 C926 0.929 . S
H923 C932 0.929 . S
C924 H918 0.930 . S
C924 C925 1.367 . S
C924 C932 1.378 . S
C925 C924 1.367 . S
C925 C933 1.433 . S
C926 H922 0.929 . S
C926 C928 1.378 . S
C926 C930 1.350 . S
C927 C930 1.463 . S
C927 C932 1.350 . S
C927 N935 1.427 . S
C928 H919 0.930 . S
C928 C926 1.378 . S
C928 C929 1.367 . S
C929 C928 1.367 . S
C929 C931 1.433 . S
C930 C926 1.350 . S
C930 C927 1.463 . S
C930 N934 1.427 . S
C931 H921 0.929 . S
C931 C929 1.433 . S
C931 N934 1.384 . S
C932 H923 0.929 . S
C932 C924 1.378 . S
C932 C927 1.350 . S
C933 H920 0.929 . S
C933 C925 1.433 . S
C933 N935 1.384 . S
N934 C930 1.427 . S
N934 C931 1.384 . S
N935 C927 1.427 . S
N935 C933 1.384 . S
H936 C942 0.930 . S
H937 C946 0.930 . S
H938 C951 0.929 . S
H939 C949 0.929 . S
H940 C944 0.929 . S
H941 C950 0.929 . S
C942 H936 0.930 . S
C942 C943 1.367 1_556 S
C942 C950 1.378 . S
C943 C942 1.367 1_554 S
C943 C951 1.433 . S
C944 H940 0.929 . S
C944 C946 1.378 . S
C944 C948 1.350 1_554 S
C945 C948 1.463 . S
C945 C950 1.350 . S
C945 N953 1.427 1_556 S
C946 H937 0.930 . S
C946 C944 1.378 . S
C946 C947 1.367 1_554 S
C947 C946 1.367 1_556 S
C947 C949 1.433 . S
C948 C944 1.350 1_556 S
C948 C945 1.463 . S
C948 N952 1.427 . S
C949 H939 0.929 . S
C949 C947 1.433 . S
C949 N952 1.384 . S
C950 H941 0.929 . S
C950 C942 1.378 . S
C950 C945 1.350 . S
C951 H938 0.929 . S
C951 C943 1.433 . S
C951 N953 1.384 . S
N952 C948 1.427 . S
N952 C949 1.384 . S
N953 C945 1.427 1_554 S
N953 C951 1.384 . S
H954 C960 0.930 . S
H955 C964 0.930 . S
H956 C969 0.929 . S
H957 C967 0.930 . S
H958 C962 0.929 . S
H959 C968 0.929 . S
C960 H954 0.930 . S
C960 C961 1.367 . S
C960 C968 1.378 . S
C961 C960 1.367 . S
C961 C969 1.433 . S
C962 H958 0.929 . S
C962 C964 1.378 . S
C962 C966 1.350 1_554 S
C963 C966 1.463 . S
C963 C968 1.350 . S
C963 N971 1.427 . S
C964 H955 0.930 . S
C964 C962 1.378 . S
C964 C965 1.367 . S
C965 C964 1.367 . S
C965 C967 1.431 1_554 S
C966 C962 1.350 1_556 S
C966 C963 1.463 . S
C966 N970 1.427 . S
C967 H957 0.930 . S
C967 C965 1.431 1_556 S
C967 N970 1.385 . S
C968 H959 0.929 . S
C968 C960 1.378 . S
C968 C963 1.350 . S
C969 H956 0.929 . S
C969 C961 1.433 . S
C969 N971 1.384 . S
N970 C966 1.427 . S
N970 C967 1.385 . S
N971 C963 1.427 . S
N971 C969 1.384 . S
H972 C978 0.930 . S
H973 C982 0.930 . S
H974 C987 0.929 . S
H975 C985 0.929 . S
H976 C980 0.929 . S
H977 C986 0.929 . S
C978 H972 0.930 . S
C978 C979 1.367 1_556 S
C978 C986 1.378 . S
C979 C978 1.367 1_554 S
C979 C987 1.433 . S
C980 H976 0.929 . S
C980 C982 1.378 . S
C980 C984 1.350 1_554 S
C981 C984 1.463 . S
C981 C986 1.350 . S
C981 N989 1.427 1_556 S
C982 H973 0.930 . S
C982 C980 1.378 . S
C982 C983 1.367 1_554 S
C983 C982 1.367 1_556 S
C983 C985 1.433 . S
C984 C980 1.350 1_556 S
C984 C981 1.463 . S
C984 N988 1.427 . S
C985 H975 0.929 . S
C985 C983 1.433 . S
C985 N988 1.384 . S
C986 H977 0.929 . S
C986 C978 1.378 . S
C986 C981 1.350 . S
C987 H974 0.929 . S
C987 C979 1.433 . S
C987 N989 1.384 . S
N988 C984 1.427 . S
N988 C985 1.384 . S
N989 C981 1.427 1_554 S
N989 C987 1.384 . S
H990 C996 0.930 . S
H991 C1000 0.930 . S
H992 C1005 0.929 . S
H993 C1003 0.929 . S
H994 C998 0.929 . S
H995 C1004 0.929 . S
C996 H990 0.930 . S
C996 C997 1.367 . S
C996 C1004 1.378 . S
C997 C996 1.367 . S
C997 C1005 1.433 . S
C998 H994 0.929 . S
C998 C1000 1.378 . S
C998 C1002 1.350 . S
C999 C1002 1.463 . S
C999 C1004 1.350 . S
C999 N1007 1.427 . S
C1000 H991 0.930 . S
C1000 C998 1.378 . S
C1000 C1001 1.367 . S
C1001 C1000 1.367 . S
C1001 C1003 1.433 . S
C1002 C998 1.350 . S
C1002 C999 1.463 . S
C1002 N1006 1.427 . S
C1003 H993 0.929 . S
C1003 C1001 1.433 . S
C1003 N1006 1.384 . S
C1004 H995 0.929 . S
C1004 C996 1.378 . S
C1004 C999 1.350 . S
C1005 H992 0.929 . S
C1005 C997 1.433 . S
C1005 N1007 1.384 . S
N1006 C1002 1.427 . S
N1006 C1003 1.384 . S
N1007 C999 1.427 . S
N1007 C1005 1.384 . S
H1008 C1014 0.930 . S
H1009 C1018 0.930 . S
H1010 C1023 0.929 . S
H1011 C1021 0.929 . S
H1012 C1016 0.929 . S
H1013 C1022 0.929 . S
C1014 H1008 0.930 . S
C1014 C1015 1.367 . S
C1014 C1022 1.378 . S
C1015 C1014 1.367 . S
C1015 C1023 1.433 . S
C1016 H1012 0.929 . S
C1016 C1018 1.378 . S
C1016 C1020 1.350 . S
C1017 C1020 1.463 . S
C1017 C1022 1.350 . S
C1017 N1025 1.427 . S
C1018 H1009 0.930 . S
C1018 C1016 1.378 . S
C1018 C1019 1.367 . S
C1019 C1018 1.367 . S
C1019 C1021 1.433 . S
C1020 C1016 1.350 . S
C1020 C1017 1.463 . S
C1020 N1024 1.427 . S
C1021 H1011 0.929 . S
C1021 C1019 1.433 . S
C1021 N1024 1.384 . S
C1022 H1013 0.929 . S
C1022 C1014 1.378 . S
C1022 C1017 1.350 . S
C1023 H1010 0.929 . S
C1023 C1015 1.433 . S
C1023 N1025 1.384 . S
N1024 C1020 1.427 . S
N1024 C1021 1.384 . S
N1025 C1017 1.427 . S
N1025 C1023 1.384 . S
H1026 C1032 0.930 . S
H1027 C1036 0.930 . S
H1028 C1041 0.929 . S
H1029 C1039 0.929 . S
H1030 C1034 0.929 . S
H1031 C1040 0.929 . S
C1032 H1026 0.930 . S
C1032 C1033 1.367 . S
C1032 C1040 1.378 . S
C1033 C1032 1.367 . S
C1033 C1041 1.433 . S
C1034 H1030 0.929 . S
C1034 C1036 1.378 . S
C1034 C1038 1.350 . S
C1035 C1038 1.463 . S
C1035 C1040 1.350 . S
C1035 N1043 1.427 . S
C1036 H1027 0.930 . S
C1036 C1034 1.378 . S
C1036 C1037 1.367 . S
C1037 C1036 1.367 . S
C1037 C1039 1.433 . S
C1038 C1034 1.350 . S
C1038 C1035 1.463 . S
C1038 N1042 1.427 . S
C1039 H1029 0.929 . S
C1039 C1037 1.433 . S
C1039 N1042 1.384 . S
C1040 H1031 0.929 . S
C1040 C1032 1.378 . S
C1040 C1035 1.350 . S
C1041 H1028 0.929 . S
C1041 C1033 1.433 . S
C1041 N1043 1.384 . S
N1042 C1038 1.427 . S
N1042 C1039 1.384 . S
N1043 C1035 1.427 . S
N1043 C1041 1.384 . S
H1044 C1050 0.930 . S
H1045 C1054 0.930 . S
H1046 C1059 0.929 . S
H1047 C1057 0.929 . S
H1048 C1052 0.929 . S
H1049 C1058 0.929 . S
C1050 H1044 0.930 . S
C1050 C1051 1.367 . S
C1050 C1058 1.378 . S
C1051 C1050 1.367 . S
C1051 C1059 1.433 . S
C1052 H1048 0.929 . S
C1052 C1054 1.378 . S
C1052 C1056 1.350 . S
C1053 C1056 1.463 . S
C1053 C1058 1.350 . S
C1053 N1061 1.427 . S
C1054 H1045 0.930 . S
C1054 C1052 1.378 . S
C1054 C1055 1.367 . S
C1055 C1054 1.367 . S
C1055 C1057 1.433 . S
C1056 C1052 1.350 . S
C1056 C1053 1.463 . S
C1056 N1060 1.427 . S
C1057 H1047 0.929 . S
C1057 C1055 1.433 . S
C1057 N1060 1.384 . S
C1058 H1049 0.929 . S
C1058 C1050 1.378 . S
C1058 C1053 1.350 . S
C1059 H1046 0.929 . S
C1059 C1051 1.433 . S
C1059 N1061 1.384 . S
N1060 C1056 1.427 . S
N1060 C1057 1.384 . S
N1061 C1053 1.427 . S
N1061 C1059 1.384 . S
H1062 C1068 0.930 . S
H1063 C1072 0.930 . S
H1064 C1077 0.929 . S
H1065 C1075 0.929 . S
H1066 C1070 0.929 . S
H1067 C1076 0.929 . S
C1068 H1062 0.930 . S
C1068 C1069 1.367 . S
C1068 C1076 1.378 . S
C1069 C1068 1.367 . S
C1069 C1077 1.433 . S
C1070 H1066 0.929 . S
C1070 C1072 1.378 . S
C1070 C1074 1.350 . S
C1071 C1074 1.463 . S
C1071 C1076 1.350 . S
C1071 N1079 1.427 . S
C1072 H1063 0.930 . S
C1072 C1070 1.378 . S
C1072 C1073 1.367 . S
C1073 C1072 1.367 . S
C1073 C1075 1.433 . S
C1074 C1070 1.350 . S
C1074 C1071 1.463 . S
C1074 N1078 1.427 . S
C1075 H1065 0.929 . S
C1075 C1073 1.433 . S
C1075 N1078 1.384 . S
C1076 H1067 0.929 . S
C1076 C1068 1.378 . S
C1076 C1071 1.350 . S
C1077 H1064 0.929 . S
C1077 C1069 1.433 . S
C1077 N1079 1.384 . S
N1078 C1074 1.427 . S
N1078 C1075 1.384 . S
N1079 C1071 1.427 . S
N1079 C1077 1.384 . S
H1080 C1086 0.930 . S
H1081 C1090 0.930 . S
H1082 C1095 0.929 . S
H1083 C1093 0.929 . S
H1084 C1088 0.929 . S
H1085 C1094 0.929 . S
C1086 H1080 0.930 . S
C1086 C1087 1.367 . S
C1086 C1094 1.378 . S
C1087 C1086 1.367 . S
C1087 C1095 1.433 . S
C1088 H1084 0.929 . S
C1088 C1090 1.378 . S
C1088 C1092 1.350 . S
C1089 C1092 1.463 . S
C1089 C1094 1.350 . S
C1089 N1097 1.427 . S
C1090 H1081 0.930 . S
C1090 C1088 1.378 . S
C1090 C1091 1.367 . S
C1091 C1090 1.367 . S
C1091 C1093 1.433 . S
C1092 C1088 1.350 . S
C1092 C1089 1.463 . S
C1092 N1096 1.427 . S
C1093 H1083 0.929 . S
C1093 C1091 1.433 . S
C1093 N1096 1.384 . S
C1094 H1085 0.929 . S
C1094 C1086 1.378 . S
C1094 C1089 1.350 . S
C1095 H1082 0.929 . S
C1095 C1087 1.433 . S
C1095 N1097 1.384 . S
N1096 C1092 1.427 . S
N1096 C1093 1.384 . S
N1097 C1089 1.427 . S
N1097 C1095 1.384 . S
H1098 C1104 0.930 . S
H1099 C1108 0.930 . S
H1100 C1113 0.929 . S
H1101 C1111 0.929 . S
H1102 C1106 0.929 . S
H1103 C1112 0.929 . S
C1104 H1098 0.930 . S
C1104 C1105 1.367 . S
C1104 C1112 1.378 . S
C1105 C1104 1.367 . S
C1105 C1113 1.433 . S
C1106 H1102 0.929 . S
C1106 C1108 1.378 . S
C1106 C1110 1.350 . S
C1107 C1110 1.463 . S
C1107 C1112 1.350 . S
C1107 N1115 1.427 . S
C1108 H1099 0.930 . S
C1108 C1106 1.378 . S
C1108 C1109 1.367 . S
C1109 C1108 1.367 . S
C1109 C1111 1.433 . S
C1110 C1106 1.350 . S
C1110 C1107 1.463 . S
C1110 N1114 1.427 . S
C1111 H1101 0.929 . S
C1111 C1109 1.433 . S
C1111 N1114 1.384 . S
C1112 H1103 0.929 . S
C1112 C1104 1.378 . S
C1112 C1107 1.350 . S
C1113 H1100 0.929 . S
C1113 C1105 1.433 . S
C1113 N1115 1.384 . S
N1114 C1110 1.427 . S
N1114 C1111 1.384 . S
N1115 C1107 1.427 . S
N1115 C1113 1.384 . S
H1116 C1122 0.930 . S
H1117 C1126 0.930 . S
H1118 C1131 0.929 . S
H1119 C1129 0.929 . S
H1120 C1124 0.929 . S
H1121 C1130 0.929 . S
C1122 H1116 0.930 . S
C1122 C1123 1.367 . S
C1122 C1130 1.378 . S
C1123 C1122 1.367 . S
C1123 C1131 1.433 . S
C1124 H1120 0.929 . S
C1124 C1126 1.378 . S
C1124 C1128 1.350 . S
C1125 C1128 1.463 . S
C1125 C1130 1.350 . S
C1125 N1133 1.427 . S
C1126 H1117 0.930 . S
C1126 C1124 1.378 . S
C1126 C1127 1.367 . S
C1127 C1126 1.367 . S
C1127 C1129 1.433 . S
C1128 C1124 1.350 . S
C1128 C1125 1.463 . S
C1128 N1132 1.427 . S
C1129 H1119 0.929 . S
C1129 C1127 1.433 . S
C1129 N1132 1.384 . S
C1130 H1121 0.929 . S
C1130 C1122 1.378 . S
C1130 C1125 1.350 . S
C1131 H1118 0.929 . S
C1131 C1123 1.433 . S
C1131 N1133 1.384 . S
N1132 C1128 1.427 . S
N1132 C1129 1.384 . S
N1133 C1125 1.427 . S
N1133 C1131 1.384 . S
H1134 C1140 0.930 . S
H1135 C1144 0.930 . S
H1136 C1149 0.929 . S
H1137 C1147 0.929 . S
H1138 C1142 0.929 . S
H1139 C1148 0.929 . S
C1140 H1134 0.930 . S
C1140 C1141 1.367 . S
C1140 C1148 1.378 . S
C1141 C1140 1.367 . S
C1141 C1149 1.433 . S
C1142 H1138 0.929 . S
C1142 C1144 1.378 . S
C1142 C1146 1.350 . S
C1143 C1146 1.463 . S
C1143 C1148 1.350 . S
C1143 N1151 1.427 . S
C1144 H1135 0.930 . S
C1144 C1142 1.378 . S
C1144 C1145 1.367 . S
C1145 C1144 1.367 . S
C1145 C1147 1.433 . S
C1146 C1142 1.350 . S
C1146 C1143 1.463 . S
C1146 N1150 1.427 . S
C1147 H1137 0.929 . S
C1147 C1145 1.433 . S
C1147 N1150 1.384 . S
C1148 H1139 0.929 . S
C1148 C1140 1.378 . S
C1148 C1143 1.350 . S
C1149 H1136 0.929 . S
C1149 C1141 1.433 . S
C1149 N1151 1.384 . S
N1150 C1146 1.427 . S
N1150 C1147 1.384 . S
N1151 C1143 1.427 . S
N1151 C1149 1.384 . S
H1152 C1158 0.930 . S
H1153 C1162 0.930 . S
H1154 C1167 0.929 . S
H1155 C1165 0.929 . S
H1156 C1160 0.929 . S
H1157 C1166 0.929 . S
C1158 H1152 0.930 . S
C1158 C1159 1.367 . S
C1158 C1166 1.378 . S
C1159 C1158 1.367 . S
C1159 C1167 1.433 . S
C1160 H1156 0.929 . S
C1160 C1162 1.378 . S
C1160 C1164 1.350 . S
C1161 C1164 1.463 . S
C1161 C1166 1.350 . S
C1161 N1169 1.427 . S
C1162 H1153 0.930 . S
C1162 C1160 1.378 . S
C1162 C1163 1.367 . S
C1163 C1162 1.367 . S
C1163 C1165 1.433 . S
C1164 C1160 1.350 . S
C1164 C1161 1.463 . S
C1164 N1168 1.427 . S
C1165 H1155 0.929 . S
C1165 C1163 1.433 . S
C1165 N1168 1.384 . S
C1166 H1157 0.929 . S
C1166 C1158 1.378 . S
C1166 C1161 1.350 . S
C1167 H1154 0.929 . S
C1167 C1159 1.433 . S
C1167 N1169 1.384 . S
N1168 C1164 1.427 . S
N1168 C1165 1.384 . S
N1169 C1161 1.427 . S
N1169 C1167 1.384 . S
H1170 C1176 0.930 . S
H1171 C1180 0.930 . S
H1172 C1185 0.929 . S
H1173 C1183 0.929 . S
H1174 C1178 0.929 . S
H1175 C1184 0.929 . S
C1176 H1170 0.930 . S
C1176 C1177 1.367 . S
C1176 C1184 1.378 . S
C1177 C1176 1.367 . S
C1177 C1185 1.433 . S
C1178 H1174 0.929 . S
C1178 C1180 1.378 . S
C1178 C1182 1.350 . S
C1179 C1182 1.463 . S
C1179 C1184 1.350 . S
C1179 N1187 1.427 . S
C1180 H1171 0.930 . S
C1180 C1178 1.378 . S
C1180 C1181 1.367 . S
C1181 C1180 1.367 . S
C1181 C1183 1.433 . S
C1182 C1178 1.350 . S
C1182 C1179 1.463 . S
C1182 N1186 1.427 . S
C1183 H1173 0.929 . S
C1183 C1181 1.433 . S
C1183 N1186 1.384 . S
C1184 H1175 0.929 . S
C1184 C1176 1.378 . S
C1184 C1179 1.350 . S
C1185 H1172 0.929 . S
C1185 C1177 1.433 . S
C1185 N1187 1.384 . S
N1186 C1182 1.427 . S
N1186 C1183 1.384 . S
N1187 C1179 1.427 . S
N1187 C1185 1.384 . S
H1188 C1194 0.930 . S
H1189 C1198 0.930 . S
H1190 C1203 0.929 . S
H1191 C1201 0.929 . S
H1192 C1196 0.929 . S
H1193 C1202 0.929 . S
C1194 H1188 0.930 . S
C1194 C1195 1.367 . S
C1194 C1202 1.378 . S
C1195 C1194 1.367 . S
C1195 C1203 1.433 . S
C1196 H1192 0.929 . S
C1196 C1198 1.378 . S
C1196 C1200 1.350 . S
C1197 C1200 1.463 . S
C1197 C1202 1.350 . S
C1197 N1205 1.427 . S
C1198 H1189 0.930 . S
C1198 C1196 1.378 . S
C1198 C1199 1.367 . S
C1199 C1198 1.367 . S
C1199 C1201 1.433 . S
C1200 C1196 1.350 . S
C1200 C1197 1.463 . S
C1200 N1204 1.427 . S
C1201 H1191 0.929 . S
C1201 C1199 1.433 . S
C1201 N1204 1.384 . S
C1202 H1193 0.929 . S
C1202 C1194 1.378 . S
C1202 C1197 1.350 . S
C1203 H1190 0.929 . S
C1203 C1195 1.433 . S
C1203 N1205 1.384 . S
N1204 C1200 1.427 . S
N1204 C1201 1.384 . S
N1205 C1197 1.427 . S
N1205 C1203 1.384 . S
H1206 C1212 0.930 . S
H1207 C1216 0.930 . S
H1208 C1221 0.929 . S
H1209 C1219 0.929 . S
H1210 C1214 0.929 . S
H1211 C1220 0.929 . S
C1212 H1206 0.930 . S
C1212 C1213 1.367 . S
C1212 C1220 1.378 . S
C1213 C1212 1.367 . S
C1213 C1221 1.433 . S
C1214 H1210 0.929 . S
C1214 C1216 1.378 . S
C1214 C1218 1.350 . S
C1215 C1218 1.463 . S
C1215 C1220 1.350 . S
C1215 N1223 1.427 . S
C1216 H1207 0.930 . S
C1216 C1214 1.378 . S
C1216 C1217 1.367 . S
C1217 C1216 1.367 . S
C1217 C1219 1.433 . S
C1218 C1214 1.350 . S
C1218 C1215 1.463 . S
C1218 N1222 1.427 . S
C1219 H1209 0.929 . S
C1219 C1217 1.433 . S
C1219 N1222 1.384 . S
C1220 H1211 0.929 . S
C1220 C1212 1.378 . S
C1220 C1215 1.350 . S
C1221 H1208 0.929 . S
C1221 C1213 1.433 . S
C1221 N1223 1.384 . S
N1222 C1218 1.427 . S
N1222 C1219 1.384 . S
N1223 C1215 1.427 . S
N1223 C1221 1.384 . S
H1224 C1230 0.930 . S
H1225 C1234 0.930 . S
H1226 C1239 0.929 . S
H1227 C1237 0.929 . S
H1228 C1232 0.929 . S
H1229 C1238 0.929 . S
C1230 H1224 0.930 . S
C1230 C1231 1.367 . S
C1230 C1238 1.378 . S
C1231 C1230 1.367 . S
C1231 C1239 1.433 . S
C1232 H1228 0.929 . S
C1232 C1234 1.378 . S
C1232 C1236 1.350 . S
C1233 C1236 1.463 . S
C1233 C1238 1.350 . S
C1233 N1241 1.427 . S
C1234 H1225 0.930 . S
C1234 C1232 1.378 . S
C1234 C1235 1.367 . S
C1235 C1234 1.367 . S
C1235 C1237 1.433 . S
C1236 C1232 1.350 . S
C1236 C1233 1.463 . S
C1236 N1240 1.427 . S
C1237 H1227 0.929 . S
C1237 C1235 1.433 . S
C1237 N1240 1.384 . S
C1238 H1229 0.929 . S
C1238 C1230 1.378 . S
C1238 C1233 1.350 . S
C1239 H1226 0.929 . S
C1239 C1231 1.433 . S
C1239 N1241 1.384 . S
N1240 C1236 1.427 . S
N1240 C1237 1.384 . S
N1241 C1233 1.427 . S
N1241 C1239 1.384 . S
H1242 C1248 0.930 . S
H1243 C1252 0.930 . S
H1244 C1257 0.929 . S
H1245 C1255 0.929 . S
H1246 C1250 0.929 . S
H1247 C1256 0.929 . S
C1248 H1242 0.930 . S
C1248 C1249 1.367 . S
C1248 C1256 1.378 . S
C1249 C1248 1.367 . S
C1249 C1257 1.433 . S
C1250 H1246 0.929 . S
C1250 C1252 1.378 . S
C1250 C1254 1.350 . S
C1251 C1254 1.463 . S
C1251 C1256 1.350 . S
C1251 N1259 1.427 . S
C1252 H1243 0.930 . S
C1252 C1250 1.378 . S
C1252 C1253 1.367 . S
C1253 C1252 1.367 . S
C1253 C1255 1.433 . S
C1254 C1250 1.350 . S
C1254 C1251 1.463 . S
C1254 N1258 1.427 . S
C1255 H1245 0.929 . S
C1255 C1253 1.433 . S
C1255 N1258 1.384 . S
C1256 H1247 0.929 . S
C1256 C1248 1.378 . S
C1256 C1251 1.350 . S
C1257 H1244 0.929 . S
C1257 C1249 1.433 . S
C1257 N1259 1.384 . S
N1258 C1254 1.427 . S
N1258 C1255 1.384 . S
N1259 C1251 1.427 . S
N1259 C1257 1.384 . S
H1260 C1266 0.930 . S
H1261 C1270 0.930 . S
H1262 C1275 0.929 . S
H1263 C1273 0.929 . S
H1264 C1268 0.929 . S
H1265 C1274 0.929 . S
C1266 H1260 0.930 . S
C1266 C1267 1.367 . S
C1266 C1274 1.378 . S
C1267 C1266 1.367 . S
C1267 C1275 1.433 . S
C1268 H1264 0.929 . S
C1268 C1270 1.378 . S
C1268 C1272 1.350 . S
C1269 C1272 1.463 . S
C1269 C1274 1.350 . S
C1269 N1277 1.427 . S
C1270 H1261 0.930 . S
C1270 C1268 1.378 . S
C1270 C1271 1.367 . S
C1271 C1270 1.367 . S
C1271 C1273 1.433 . S
C1272 C1268 1.350 . S
C1272 C1269 1.463 . S
C1272 N1276 1.427 . S
C1273 H1263 0.929 . S
C1273 C1271 1.433 . S
C1273 N1276 1.384 . S
C1274 H1265 0.929 . S
C1274 C1266 1.378 . S
C1274 C1269 1.350 . S
C1275 H1262 0.929 . S
C1275 C1267 1.433 . S
C1275 N1277 1.384 . S
N1276 C1272 1.427 . S
N1276 C1273 1.384 . S
N1277 C1269 1.427 . S
N1277 C1275 1.384 . S
H1278 C1284 0.930 . S
H1279 C1288 0.930 . S
H1280 C1293 0.929 . S
H1281 C1291 0.929 . S
H1282 C1286 0.929 . S
H1283 C1292 0.929 . S
C1284 H1278 0.930 . S
C1284 C1285 1.367 . S
C1284 C1292 1.378 . S
C1285 C1284 1.367 . S
C1285 C1293 1.433 . S
C1286 H1282 0.929 . S
C1286 C1288 1.378 . S
C1286 C1290 1.350 . S
C1287 C1290 1.463 . S
C1287 C1292 1.350 . S
C1287 N1295 1.427 . S
C1288 H1279 0.930 . S
C1288 C1286 1.378 . S
C1288 C1289 1.367 . S
C1289 C1288 1.367 . S
C1289 C1291 1.433 . S
C1290 C1286 1.350 . S
C1290 C1287 1.463 . S
C1290 N1294 1.427 . S
C1291 H1281 0.929 . S
C1291 C1289 1.433 . S
C1291 N1294 1.384 . S
C1292 H1283 0.929 . S
C1292 C1284 1.378 . S
C1292 C1287 1.350 . S
C1293 H1280 0.929 . S
C1293 C1285 1.433 . S
C1293 N1295 1.384 . S
N1294 C1290 1.427 . S
N1294 C1291 1.384 . S
N1295 C1287 1.427 . S
N1295 C1293 1.384 . S
H1296 C1302 0.930 . S
H1297 C1306 0.930 . S
H1298 C1311 0.929 . S
H1299 C1309 0.929 . S
H1300 C1304 0.929 . S
H1301 C1310 0.929 . S
C1302 H1296 0.930 . S
C1302 C1303 1.367 . S
C1302 C1310 1.378 . S
C1303 C1302 1.367 . S
C1303 C1311 1.433 . S
C1304 H1300 0.929 . S
C1304 C1306 1.378 . S
C1304 C1308 1.350 . S
C1305 C1308 1.463 . S
C1305 C1310 1.350 . S
C1305 N1313 1.427 . S
C1306 H1297 0.930 . S
C1306 C1304 1.378 . S
C1306 C1307 1.367 . S
C1307 C1306 1.367 . S
C1307 C1309 1.433 . S
C1308 C1304 1.350 . S
C1308 C1305 1.463 . S
C1308 N1312 1.427 . S
C1309 H1299 0.929 . S
C1309 C1307 1.433 . S
C1309 N1312 1.384 . S
C1310 H1301 0.929 . S
C1310 C1302 1.378 . S
C1310 C1305 1.350 . S
C1311 H1298 0.929 . S
C1311 C1303 1.433 . S
C1311 N1313 1.384 . S
N1312 C1308 1.427 . S
N1312 C1309 1.384 . S
N1313 C1305 1.427 . S
N1313 C1311 1.384 . S
H1314 C1320 0.930 . S
H1315 C1324 0.930 . S
H1316 C1329 0.929 . S
H1317 C1327 0.929 . S
H1318 C1322 0.929 . S
H1319 C1328 0.929 . S
C1320 H1314 0.930 . S
C1320 C1321 1.367 . S
C1320 C1328 1.378 . S
C1321 C1320 1.367 . S
C1321 C1329 1.433 . S
C1322 H1318 0.929 . S
C1322 C1324 1.378 . S
C1322 C1326 1.350 . S
C1323 C1326 1.463 . S
C1323 C1328 1.350 . S
C1323 N1331 1.427 . S
C1324 H1315 0.930 . S
C1324 C1322 1.378 . S
C1324 C1325 1.367 . S
C1325 C1324 1.367 . S
C1325 C1327 1.433 . S
C1326 C1322 1.350 . S
C1326 C1323 1.463 . S
C1326 N1330 1.427 . S
C1327 H1317 0.929 . S
C1327 C1325 1.433 . S
C1327 N1330 1.384 . S
C1328 H1319 0.929 . S
C1328 C1320 1.378 . S
C1328 C1323 1.350 . S
C1329 H1316 0.929 . S
C1329 C1321 1.433 . S
C1329 N1331 1.384 . S
N1330 C1326 1.427 . S
N1330 C1327 1.384 . S
N1331 C1323 1.427 . S
N1331 C1329 1.384 . S
H1332 C1338 0.930 . S
H1333 C1342 0.930 . S
H1334 C1347 0.929 . S
H1335 C1345 0.929 . S
H1336 C1340 0.929 . S
H1337 C1346 0.929 . S
C1338 H1332 0.930 . S
C1338 C1339 1.367 . S
C1338 C1346 1.378 . S
C1339 C1338 1.367 . S
C1339 C1347 1.433 . S
C1340 H1336 0.929 . S
C1340 C1342 1.378 . S
C1340 C1344 1.350 . S
C1341 C1344 1.463 . S
C1341 C1346 1.350 . S
C1341 N1349 1.427 . S
C1342 H1333 0.930 . S
C1342 C1340 1.378 . S
C1342 C1343 1.367 . S
C1343 C1342 1.367 . S
C1343 C1345 1.433 . S
C1344 C1340 1.350 . S
C1344 C1341 1.463 . S
C1344 N1348 1.427 . S
C1345 H1335 0.929 . S
C1345 C1343 1.433 . S
C1345 N1348 1.384 . S
C1346 H1337 0.929 . S
C1346 C1338 1.378 . S
C1346 C1341 1.350 . S
C1347 H1334 0.929 . S
C1347 C1339 1.433 . S
C1347 N1349 1.384 . S
N1348 C1344 1.427 . S
N1348 C1345 1.384 . S
N1349 C1341 1.427 . S
N1349 C1347 1.384 . S
H1350 C1356 0.930 . S
H1351 C1360 0.930 . S
H1352 C1365 0.929 . S
H1353 C1363 0.929 . S
H1354 C1358 0.929 . S
H1355 C1364 0.929 . S
C1356 H1350 0.930 . S
C1356 C1357 1.367 . S
C1356 C1364 1.378 . S
C1357 C1356 1.367 . S
C1357 C1365 1.433 . S
C1358 H1354 0.929 . S
C1358 C1360 1.378 . S
C1358 C1362 1.350 . S
C1359 C1362 1.463 . S
C1359 C1364 1.350 . S
C1359 N1367 1.427 . S
C1360 H1351 0.930 . S
C1360 C1358 1.378 . S
C1360 C1361 1.367 . S
C1361 C1360 1.367 . S
C1361 C1363 1.433 . S
C1362 C1358 1.350 . S
C1362 C1359 1.463 . S
C1362 N1366 1.427 . S
C1363 H1353 0.929 . S
C1363 C1361 1.433 . S
C1363 N1366 1.384 . S
C1364 H1355 0.929 . S
C1364 C1356 1.378 . S
C1364 C1359 1.350 . S
C1365 H1352 0.929 . S
C1365 C1357 1.433 . S
C1365 N1367 1.384 . S
N1366 C1362 1.427 . S
N1366 C1363 1.384 . S
N1367 C1359 1.427 . S
N1367 C1365 1.384 . S
H1368 C1374 0.930 . S
H1369 C1378 0.930 . S
H1370 C1383 0.929 . S
H1371 C1381 0.929 . S
H1372 C1376 0.929 . S
H1373 C1382 0.929 . S
C1374 H1368 0.930 . S
C1374 C1375 1.367 . S
C1374 C1382 1.378 . S
C1375 C1374 1.367 . S
C1375 C1383 1.433 . S
C1376 H1372 0.929 . S
C1376 C1378 1.378 . S
C1376 C1380 1.350 . S
C1377 C1380 1.463 . S
C1377 C1382 1.350 . S
C1377 N1385 1.427 . S
C1378 H1369 0.930 . S
C1378 C1376 1.378 . S
C1378 C1379 1.367 . S
C1379 C1378 1.367 . S
C1379 C1381 1.433 . S
C1380 C1376 1.350 . S
C1380 C1377 1.463 . S
C1380 N1384 1.427 . S
C1381 H1371 0.929 . S
C1381 C1379 1.433 . S
C1381 N1384 1.384 . S
C1382 H1373 0.929 . S
C1382 C1374 1.378 . S
C1382 C1377 1.350 . S
C1383 H1370 0.929 . S
C1383 C1375 1.433 . S
C1383 N1385 1.384 . S
N1384 C1380 1.427 . S
N1384 C1381 1.384 . S
N1385 C1377 1.427 . S
N1385 C1383 1.384 . S
H1386 C1392 0.930 . S
H1387 C1396 0.930 . S
H1388 C1401 0.929 . S
H1389 C1399 0.929 . S
H1390 C1394 0.929 . S
H1391 C1400 0.929 . S
C1392 H1386 0.930 . S
C1392 C1393 1.367 . S
C1392 C1400 1.378 . S
C1393 C1392 1.367 . S
C1393 C1401 1.433 . S
C1394 H1390 0.929 . S
C1394 C1396 1.378 . S
C1394 C1398 1.350 . S
C1395 C1398 1.463 . S
C1395 C1400 1.350 . S
C1395 N1403 1.427 . S
C1396 H1387 0.930 . S
C1396 C1394 1.378 . S
C1396 C1397 1.367 . S
C1397 C1396 1.367 . S
C1397 C1399 1.433 . S
C1398 C1394 1.350 . S
C1398 C1395 1.463 . S
C1398 N1402 1.427 . S
C1399 H1389 0.929 . S
C1399 C1397 1.433 . S
C1399 N1402 1.384 . S
C1400 H1391 0.929 . S
C1400 C1392 1.378 . S
C1400 C1395 1.350 . S
C1401 H1388 0.929 . S
C1401 C1393 1.433 . S
C1401 N1403 1.384 . S
N1402 C1398 1.427 . S
N1402 C1399 1.384 . S
N1403 C1395 1.427 . S
N1403 C1401 1.384 . S
H1404 C1410 0.930 . S
H1405 C1414 0.930 . S
H1406 C1419 0.929 . S
H1407 C1417 0.929 . S
H1408 C1412 0.929 . S
H1409 C1418 0.929 . S
C1410 H1404 0.930 . S
C1410 C1411 1.367 . S
C1410 C1418 1.378 . S
C1411 C1410 1.367 . S
C1411 C1419 1.433 . S
C1412 H1408 0.929 . S
C1412 C1414 1.378 . S
C1412 C1416 1.350 . S
C1413 C1416 1.463 . S
C1413 C1418 1.350 . S
C1413 N1421 1.427 . S
C1414 H1405 0.930 . S
C1414 C1412 1.378 . S
C1414 C1415 1.367 . S
C1415 C1414 1.367 . S
C1415 C1417 1.433 . S
C1416 C1412 1.350 . S
C1416 C1413 1.463 . S
C1416 N1420 1.427 . S
C1417 H1407 0.929 . S
C1417 C1415 1.433 . S
C1417 N1420 1.384 . S
C1418 H1409 0.929 . S
C1418 C1410 1.378 . S
C1418 C1413 1.350 . S
C1419 H1406 0.929 . S
C1419 C1411 1.433 . S
C1419 N1421 1.384 . S
N1420 C1416 1.427 . S
N1420 C1417 1.384 . S
N1421 C1413 1.427 . S
N1421 C1419 1.384 . S
H1422 C1428 0.930 . S
H1423 C1432 0.930 . S
H1424 C1437 0.929 . S
H1425 C1435 0.929 . S
H1426 C1430 0.929 . S
H1427 C1436 0.929 . S
C1428 H1422 0.930 . S
C1428 C1429 1.367 . S
C1428 C1436 1.378 . S
C1429 C1428 1.367 . S
C1429 C1437 1.433 . S
C1430 H1426 0.929 . S
C1430 C1432 1.378 . S
C1430 C1434 1.350 . S
C1431 C1434 1.463 . S
C1431 C1436 1.350 . S
C1431 N1439 1.427 . S
C1432 H1423 0.930 . S
C1432 C1430 1.378 . S
C1432 C1433 1.367 . S
C1433 C1432 1.367 . S
C1433 C1435 1.433 . S
C1434 C1430 1.350 . S
C1434 C1431 1.463 . S
C1434 N1438 1.427 . S
C1435 H1425 0.929 . S
C1435 C1433 1.433 . S
C1435 N1438 1.384 . S
C1436 H1427 0.929 . S
C1436 C1428 1.378 . S
C1436 C1431 1.350 . S
C1437 H1424 0.929 . S
C1437 C1429 1.433 . S
C1437 N1439 1.384 . S
N1438 C1434 1.427 . S
N1438 C1435 1.384 . S
N1439 C1431 1.427 . S
N1439 C1437 1.384 . S
H1440 C1446 0.930 . S
H1441 C1450 0.930 . S
H1442 C1455 0.929 . S
H1443 C1453 0.929 . S
H1444 C1448 0.929 . S
H1445 C1454 0.929 . S
C1446 H1440 0.930 . S
C1446 C1447 1.367 . S
C1446 C1454 1.378 . S
C1447 C1446 1.367 . S
C1447 C1455 1.433 . S
C1448 H1444 0.929 . S
C1448 C1450 1.378 . S
C1448 C1452 1.350 . S
C1449 C1452 1.463 . S
C1449 C1454 1.350 . S
C1449 N1457 1.427 . S
C1450 H1441 0.930 . S
C1450 C1448 1.378 . S
C1450 C1451 1.367 . S
C1451 C1450 1.367 . S
C1451 C1453 1.433 . S
C1452 C1448 1.350 . S
C1452 C1449 1.463 . S
C1452 N1456 1.427 . S
C1453 H1443 0.929 . S
C1453 C1451 1.433 . S
C1453 N1456 1.384 . S
C1454 H1445 0.929 . S
C1454 C1446 1.378 . S
C1454 C1449 1.350 . S
C1455 H1442 0.929 . S
C1455 C1447 1.433 . S
C1455 N1457 1.384 . S
N1456 C1452 1.427 . S
N1456 C1453 1.384 . S
N1457 C1449 1.427 . S
N1457 C1455 1.384 . S
H1458 C1464 0.930 . S
H1459 C1468 0.930 . S
H1460 C1473 0.929 . S
H1461 C1471 0.929 . S
H1462 C1466 0.929 . S
H1463 C1472 0.929 . S
C1464 H1458 0.930 . S
C1464 C1465 1.367 . S
C1464 C1472 1.378 . S
C1465 C1464 1.367 . S
C1465 C1473 1.433 . S
C1466 H1462 0.929 . S
C1466 C1468 1.378 . S
C1466 C1470 1.350 . S
C1467 C1470 1.463 . S
C1467 C1472 1.350 . S
C1467 N1475 1.427 . S
C1468 H1459 0.930 . S
C1468 C1466 1.378 . S
C1468 C1469 1.367 . S
C1469 C1468 1.367 . S
C1469 C1471 1.433 . S
C1470 C1466 1.350 . S
C1470 C1467 1.463 . S
C1470 N1474 1.427 . S
C1471 H1461 0.929 . S
C1471 C1469 1.433 . S
C1471 N1474 1.384 . S
C1472 H1463 0.929 . S
C1472 C1464 1.378 . S
C1472 C1467 1.350 . S
C1473 H1460 0.929 . S
C1473 C1465 1.433 . S
C1473 N1475 1.384 . S
N1474 C1470 1.427 . S
N1474 C1471 1.384 . S
N1475 C1467 1.427 . S
N1475 C1473 1.384 . S
H1476 C1482 0.930 . S
H1477 C1486 0.930 . S
H1478 C1491 0.929 . S
H1479 C1489 0.929 . S
H1480 C1484 0.929 . S
H1481 C1490 0.929 . S
C1482 H1476 0.930 . S
C1482 C1483 1.367 . S
C1482 C1490 1.378 . S
C1483 C1482 1.367 . S
C1483 C1491 1.433 . S
C1484 H1480 0.929 . S
C1484 C1486 1.378 . S
C1484 C1488 1.350 . S
C1485 C1488 1.463 . S
C1485 C1490 1.350 . S
C1485 N1493 1.427 . S
C1486 H1477 0.930 . S
C1486 C1484 1.378 . S
C1486 C1487 1.367 . S
C1487 C1486 1.367 . S
C1487 C1489 1.433 . S
C1488 C1484 1.350 . S
C1488 C1485 1.463 . S
C1488 N1492 1.427 . S
C1489 H1479 0.929 . S
C1489 C1487 1.433 . S
C1489 N1492 1.384 . S
C1490 H1481 0.929 . S
C1490 C1482 1.378 . S
C1490 C1485 1.350 . S
C1491 H1478 0.929 . S
C1491 C1483 1.433 . S
C1491 N1493 1.384 . S
N1492 C1488 1.427 . S
N1492 C1489 1.384 . S
N1493 C1485 1.427 . S
N1493 C1491 1.384 . S
H1494 C1500 0.930 . S
H1495 C1504 0.930 . S
H1496 C1509 0.929 . S
H1497 C1507 0.929 . S
H1498 C1502 0.929 . S
H1499 C1508 0.929 . S
C1500 H1494 0.930 . S
C1500 C1501 1.367 1_565 S
C1500 C1508 1.378 . S
C1501 C1500 1.367 1_545 S
C1501 C1509 1.433 . S
C1502 H1498 0.929 . S
C1502 C1504 1.378 . S
C1502 C1506 1.350 1_545 S
C1503 C1506 1.463 1_545 S
C1503 C1508 1.350 1_545 S
C1503 N1511 1.427 . S
C1504 H1495 0.930 . S
C1504 C1502 1.378 . S
C1504 C1505 1.367 1_545 S
C1505 C1504 1.367 1_565 S
C1505 C1507 1.433 . S
C1506 C1502 1.350 1_565 S
C1506 C1503 1.463 1_565 S
C1506 N1510 1.427 . S
C1507 H1497 0.929 . S
C1507 C1505 1.433 . S
C1507 N1510 1.384 . S
C1508 H1499 0.929 . S
C1508 C1500 1.378 . S
C1508 C1503 1.350 1_565 S
C1509 H1496 0.929 . S
C1509 C1501 1.433 . S
C1509 N1511 1.384 . S
N1510 C1506 1.427 . S
N1510 C1507 1.384 . S
N1511 C1503 1.427 . S
N1511 C1509 1.384 . S
H1512 C1518 0.930 . S
H1513 C1522 0.930 . S
H1514 C1527 0.929 . S
H1515 C1525 0.929 . S
H1516 C1520 0.929 . S
H1517 C1526 0.929 . S
C1518 H1512 0.930 . S
C1518 C1519 1.367 . S
C1518 C1526 1.378 . S
C1519 C1518 1.367 . S
C1519 C1527 1.433 1_455 S
C1520 H1516 0.929 . S
C1520 C1522 1.378 . S
C1520 C1524 1.350 . S
C1521 C1524 1.463 1_455 S
C1521 C1526 1.350 . S
C1521 N1529 1.427 1_455 S
C1522 H1513 0.930 . S
C1522 C1520 1.378 . S
C1522 C1523 1.367 . S
C1523 C1522 1.367 . S
C1523 C1525 1.433 1_655 S
C1524 C1520 1.350 . S
C1524 C1521 1.463 1_655 S
C1524 N1528 1.427 1_655 S
C1525 H1515 0.929 . S
C1525 C1523 1.433 1_455 S
C1525 N1528 1.384 . S
C1526 H1517 0.929 . S
C1526 C1518 1.378 . S
C1526 C1521 1.350 . S
C1527 H1514 0.929 . S
C1527 C1519 1.433 1_655 S
C1527 N1529 1.384 . S
N1528 C1524 1.427 1_455 S
N1528 C1525 1.384 . S
N1529 C1521 1.427 1_655 S
N1529 C1527 1.384 . S
H1530 C1536 0.930 . S
H1531 C1540 0.930 . S
H1532 C1545 0.929 . S
H1533 C1543 0.929 . S
H1534 C1538 0.929 . S
H1535 C1544 0.929 . S
C1536 H1530 0.930 . S
C1536 C1537 1.367 . S
C1536 C1544 1.378 . S
C1537 C1536 1.367 . S
C1537 C1545 1.433 . S
C1538 H1534 0.929 . S
C1538 C1540 1.378 . S
C1538 C1542 1.350 . S
C1539 C1542 1.463 . S
C1539 C1544 1.350 . S
C1539 N1547 1.427 . S
C1540 H1531 0.930 . S
C1540 C1538 1.378 . S
C1540 C1541 1.367 . S
C1541 C1540 1.367 . S
C1541 C1543 1.433 . S
C1542 C1538 1.350 . S
C1542 C1539 1.463 . S
C1542 N1546 1.427 . S
C1543 H1533 0.929 . S
C1543 C1541 1.433 . S
C1543 N1546 1.384 . S
C1544 H1535 0.929 . S
C1544 C1536 1.378 . S
C1544 C1539 1.350 . S
C1545 H1532 0.929 . S
C1545 C1537 1.433 . S
C1545 N1547 1.384 . S
N1546 C1542 1.427 . S
N1546 C1543 1.384 . S
N1547 C1539 1.427 . S
N1547 C1545 1.384 . S
H1548 C1554 0.930 . S
H1549 C1558 0.930 . S
H1550 C1563 0.929 . S
H1551 C1561 0.929 . S
H1552 C1556 0.929 . S
H1553 C1562 0.929 . S
C1554 H1548 0.930 . S
C1554 C1555 1.367 . S
C1554 C1562 1.378 . S
C1555 C1554 1.367 . S
C1555 C1563 1.433 1_545 S
C1556 H1552 0.929 . S
C1556 C1558 1.378 . S
C1556 C1560 1.350 . S
C1557 C1560 1.463 1_545 S
C1557 C1562 1.350 . S
C1557 N1565 1.427 1_545 S
C1558 H1549 0.930 . S
C1558 C1556 1.378 . S
C1558 C1559 1.367 . S
C1559 C1558 1.367 . S
C1559 C1561 1.433 1_565 S
C1560 C1556 1.350 . S
C1560 C1557 1.463 1_565 S
C1560 N1564 1.427 1_565 S
C1561 H1551 0.929 . S
C1561 C1559 1.433 1_545 S
C1561 N1564 1.384 . S
C1562 H1553 0.929 . S
C1562 C1554 1.378 . S
C1562 C1557 1.350 . S
C1563 H1550 0.929 . S
C1563 C1555 1.433 1_565 S
C1563 N1565 1.384 . S
N1564 C1560 1.427 1_545 S
N1564 C1561 1.384 . S
N1565 C1557 1.427 1_565 S
N1565 C1563 1.384 . S
H1566 C1572 0.930 . S
H1567 C1576 0.930 . S
H1568 C1581 0.929 . S
H1569 C1579 0.929 . S
H1570 C1574 0.936 1_655 S
H1571 C1580 0.936 1_455 S
C1572 H1566 0.930 . S
C1572 C1573 1.367 . S
C1572 C1580 1.382 . S
C1573 C1572 1.367 . S
C1573 C1581 1.433 . S
C1574 H1570 0.936 1_455 S
C1574 C1576 1.382 . S
C1574 C1578 1.340 . S
C1575 C1578 1.463 1_655 S
C1575 C1580 1.340 . S
C1575 N1583 1.427 . S
C1576 H1567 0.930 . S
C1576 C1574 1.382 . S
C1576 C1577 1.367 . S
C1577 C1576 1.367 . S
C1577 C1579 1.433 . S
C1578 C1574 1.340 . S
C1578 C1575 1.463 1_455 S
C1578 N1582 1.427 . S
C1579 H1569 0.929 . S
C1579 C1577 1.433 . S
C1579 N1582 1.384 . S
C1580 H1571 0.936 1_655 S
C1580 C1572 1.382 . S
C1580 C1575 1.340 . S
C1581 H1568 0.929 . S
C1581 C1573 1.433 . S
C1581 N1583 1.384 . S
N1582 C1578 1.427 . S
N1582 C1579 1.384 . S
N1583 C1575 1.427 . S
N1583 C1581 1.384 . S
H1584 C1590 0.930 . S
H1585 C1594 0.930 . S
H1586 C1599 0.929 . S
H1587 C1597 0.929 . S
H1588 C1592 0.929 . S
H1589 C1598 0.929 . S
C1590 H1584 0.930 . S
C1590 C1591 1.367 . S
C1590 C1598 1.378 . S
C1591 C1590 1.367 . S
C1591 C1599 1.433 . S
C1592 H1588 0.929 . S
C1592 C1594 1.378 . S
C1592 C1596 1.350 . S
C1593 C1596 1.463 . S
C1593 C1598 1.350 . S
C1593 N1601 1.427 . S
C1594 H1585 0.930 . S
C1594 C1592 1.378 . S
C1594 C1595 1.367 . S
C1595 C1594 1.367 . S
C1595 C1597 1.433 . S
C1596 C1592 1.350 . S
C1596 C1593 1.463 . S
C1596 N1600 1.427 . S
C1597 H1587 0.929 . S
C1597 C1595 1.433 . S
C1597 N1600 1.384 . S
C1598 H1589 0.929 . S
C1598 C1590 1.378 . S
C1598 C1593 1.350 . S
C1599 H1586 0.929 . S
C1599 C1591 1.433 . S
C1599 N1601 1.384 . S
N1600 C1596 1.427 . S
N1600 C1597 1.384 . S
N1601 C1593 1.427 . S
N1601 C1599 1.384 . S
H1602 C1608 0.930 . S
H1603 C1612 0.930 . S
H1604 C1617 0.929 . S
H1605 C1615 0.929 . S
H1606 C1610 0.929 . S
H1607 C1616 0.929 . S
C1608 H1602 0.930 . S
C1608 C1609 1.367 . S
C1608 C1616 1.378 . S
C1609 C1608 1.367 . S
C1609 C1617 1.433 . S
C1610 H1606 0.929 . S
C1610 C1612 1.378 . S
C1610 C1614 1.350 . S
C1611 C1614 1.463 . S
C1611 C1616 1.350 . S
C1611 N1619 1.427 . S
C1612 H1603 0.930 . S
C1612 C1610 1.378 . S
C1612 C1613 1.367 . S
C1613 C1612 1.367 . S
C1613 C1615 1.433 . S
C1614 C1610 1.350 . S
C1614 C1611 1.463 . S
C1614 N1618 1.427 . S
C1615 H1605 0.929 . S
C1615 C1613 1.433 . S
C1615 N1618 1.384 . S
C1616 H1607 0.929 . S
C1616 C1608 1.378 . S
C1616 C1611 1.350 . S
C1617 H1604 0.929 . S
C1617 C1609 1.433 . S
C1617 N1619 1.384 . S
N1618 C1614 1.427 . S
N1618 C1615 1.384 . S
N1619 C1611 1.427 . S
N1619 C1617 1.384 . S
H1620 C1626 0.930 . S
H1621 C1630 0.930 . S
H1622 C1635 0.929 . S
H1623 C1633 0.929 . S
H1624 C1628 0.929 . S
H1625 C1634 0.929 . S
C1626 H1620 0.930 . S
C1626 C1627 1.367 . S
C1626 C1634 1.378 . S
C1627 C1626 1.367 . S
C1627 C1635 1.433 . S
C1628 H1624 0.929 . S
C1628 C1630 1.378 . S
C1628 C1632 1.350 . S
C1629 C1632 1.463 . S
C1629 C1634 1.350 . S
C1629 N1637 1.427 . S
C1630 H1621 0.930 . S
C1630 C1628 1.378 . S
C1630 C1631 1.367 . S
C1631 C1630 1.367 . S
C1631 C1633 1.433 . S
C1632 C1628 1.350 . S
C1632 C1629 1.463 . S
C1632 N1636 1.427 . S
C1633 H1623 0.929 . S
C1633 C1631 1.433 . S
C1633 N1636 1.384 . S
C1634 H1625 0.929 . S
C1634 C1626 1.378 . S
C1634 C1629 1.350 . S
C1635 H1622 0.929 . S
C1635 C1627 1.433 . S
C1635 N1637 1.384 . S
N1636 C1632 1.427 . S
N1636 C1633 1.384 . S
N1637 C1629 1.427 . S
N1637 C1635 1.384 . S
H1638 C1644 0.930 . S
H1639 C1648 0.930 1_556 S
H1640 C1653 0.929 . S
H1641 C1651 0.929 1_556 S
H1642 C1646 0.929 . S
H1643 C1652 0.929 . S
C1644 H1638 0.930 . S
C1644 C1645 1.367 . S
C1644 C1652 1.378 . S
C1645 C1644 1.367 . S
C1645 C1653 1.433 . S
C1646 H1642 0.929 . S
C1646 C1648 1.378 . S
C1646 C1650 1.350 . S
C1647 C1650 1.463 . S
C1647 C1652 1.350 . S
C1647 N1655 1.427 . S
C1648 H1639 0.930 1_554 S
C1648 C1646 1.378 . S
C1648 C1649 1.367 1_554 S
C1649 C1648 1.367 1_556 S
C1649 C1651 1.433 1_556 S
C1650 C1646 1.350 . S
C1650 C1647 1.463 . S
C1650 N1654 1.427 . S
C1651 H1641 0.929 1_554 S
C1651 C1649 1.433 1_554 S
C1651 N1654 1.384 . S
C1652 H1643 0.929 . S
C1652 C1644 1.378 . S
C1652 C1647 1.350 . S
C1653 H1640 0.929 . S
C1653 C1645 1.433 . S
C1653 N1655 1.384 . S
N1654 C1650 1.427 . S
N1654 C1651 1.384 . S
N1655 C1647 1.427 . S
N1655 C1653 1.384 . S
H1656 C1662 0.930 . S
H1657 C1666 0.930 1_556 S
H1658 C1671 0.929 . S
H1659 C1669 0.929 . S
H1660 C1664 0.929 . S
H1661 C1670 0.929 . S
C1662 H1656 0.930 . S
C1662 C1663 1.367 . S
C1662 C1670 1.378 . S
C1663 C1662 1.367 . S
C1663 C1671 1.433 . S
C1664 H1660 0.929 . S
C1664 C1666 1.378 . S
C1664 C1668 1.350 . S
C1665 C1668 1.463 . S
C1665 C1670 1.350 . S
C1665 N1673 1.427 . S
C1666 H1657 0.930 1_554 S
C1666 C1664 1.378 . S
C1666 C1667 1.367 1_554 S
C1667 C1666 1.367 1_556 S
C1667 C1669 1.433 1_556 S
C1668 C1664 1.350 . S
C1668 C1665 1.463 . S
C1668 N1672 1.427 . S
C1669 H1659 0.929 . S
C1669 C1667 1.433 1_554 S
C1669 N1672 1.384 . S
C1670 H1661 0.929 . S
C1670 C1662 1.378 . S
C1670 C1665 1.350 . S
C1671 H1658 0.929 . S
C1671 C1663 1.433 . S
C1671 N1673 1.384 . S
N1672 C1668 1.427 . S
N1672 C1669 1.384 . S
N1673 C1665 1.427 . S
N1673 C1671 1.384 . S
H1674 C1680 0.930 . S
H1675 C1684 0.930 . S
H1676 C1689 0.929 . S
H1677 C1687 0.929 1_556 S
H1678 C1682 0.929 . S
H1679 C1688 0.929 . S
C1680 H1674 0.930 . S
C1680 C1681 1.367 . S
C1680 C1688 1.378 . S
C1681 C1680 1.367 . S
C1681 C1689 1.433 . S
C1682 H1678 0.929 . S
C1682 C1684 1.378 . S
C1682 C1686 1.350 . S
C1683 C1686 1.463 . S
C1683 C1688 1.350 . S
C1683 N1691 1.427 . S
C1684 H1675 0.930 . S
C1684 C1682 1.378 . S
C1684 C1685 1.367 1_554 S
C1685 C1684 1.367 1_556 S
C1685 C1687 1.433 1_556 S
C1686 C1682 1.350 . S
C1686 C1683 1.463 . S
C1686 N1690 1.427 . S
C1687 H1677 0.929 1_554 S
C1687 C1685 1.433 1_554 S
C1687 N1690 1.384 . S
C1688 H1679 0.929 . S
C1688 C1680 1.378 . S
C1688 C1683 1.350 . S
C1689 H1676 0.929 . S
C1689 C1681 1.433 . S
C1689 N1691 1.384 . S
N1690 C1686 1.427 . S
N1690 C1687 1.384 . S
N1691 C1683 1.427 . S
N1691 C1689 1.384 . S
H1692 C1698 0.930 . S
H1693 C1702 0.930 . S
H1694 C1707 0.929 1_554 S
H1695 C1705 0.929 . S
H1696 C1700 0.929 . S
H1697 C1706 0.929 . S
C1698 H1692 0.930 . S
C1698 C1699 1.367 1_556 S
C1698 C1706 1.378 . S
C1699 C1698 1.367 1_554 S
C1699 C1707 1.433 1_554 S
C1700 H1696 0.929 . S
C1700 C1702 1.378 . S
C1700 C1704 1.350 . S
C1701 C1704 1.463 . S
C1701 C1706 1.350 . S
C1701 N1709 1.427 . S
C1702 H1693 0.930 . S
C1702 C1700 1.378 . S
C1702 C1703 1.367 . S
C1703 C1702 1.367 . S
C1703 C1705 1.433 . S
C1704 C1700 1.350 . S
C1704 C1701 1.463 . S
C1704 N1708 1.427 . S
C1705 H1695 0.929 . S
C1705 C1703 1.433 . S
C1705 N1708 1.384 . S
C1706 H1697 0.929 . S
C1706 C1698 1.378 . S
C1706 C1701 1.350 . S
C1707 H1694 0.929 1_556 S
C1707 C1699 1.433 1_556 S
C1707 N1709 1.384 . S
N1708 C1704 1.427 . S
N1708 C1705 1.384 . S
N1709 C1701 1.427 . S
N1709 C1707 1.384 . S
H1710 C1716 0.930 . S
H1711 C1720 0.930 . S
H1712 C1725 0.929 1_554 S
H1713 C1723 0.929 . S
H1714 C1718 0.929 . S
H1715 C1724 0.929 . S
C1716 H1710 0.930 . S
C1716 C1717 1.367 1_556 S
C1716 C1724 1.378 . S
C1717 C1716 1.367 1_554 S
C1717 C1725 1.433 1_554 S
C1718 H1714 0.929 . S
C1718 C1720 1.378 . S
C1718 C1722 1.350 . S
C1719 C1722 1.463 . S
C1719 C1724 1.350 . S
C1719 N1727 1.427 . S
C1720 H1711 0.930 . S
C1720 C1718 1.378 . S
C1720 C1721 1.367 . S
C1721 C1720 1.367 . S
C1721 C1723 1.433 . S
C1722 C1718 1.350 . S
C1722 C1719 1.463 . S
C1722 N1726 1.427 . S
C1723 H1713 0.929 . S
C1723 C1721 1.433 . S
C1723 N1726 1.384 . S
C1724 H1715 0.929 . S
C1724 C1716 1.378 . S
C1724 C1719 1.350 . S
C1725 H1712 0.929 1_556 S
C1725 C1717 1.433 1_556 S
C1725 N1727 1.384 . S
N1726 C1722 1.427 . S
N1726 C1723 1.384 . S
N1727 C1719 1.427 . S
N1727 C1725 1.384 . S
H1728 C1734 0.930 . S
H1729 C1738 0.930 . S
H1730 C1743 0.929 1_554 S
H1731 C1741 0.929 . S
H1732 C1736 0.929 . S
H1733 C1742 0.929 . S
C1734 H1728 0.930 . S
C1734 C1735 1.367 1_556 S
C1734 C1742 1.378 . S
C1735 C1734 1.367 1_554 S
C1735 C1743 1.433 1_554 S
C1736 H1732 0.929 . S
C1736 C1738 1.378 . S
C1736 C1740 1.350 . S
C1737 C1740 1.463 . S
C1737 C1742 1.350 . S
C1737 N1745 1.427 . S
C1738 H1729 0.930 . S
C1738 C1736 1.378 . S
C1738 C1739 1.367 . S
C1739 C1738 1.367 . S
C1739 C1741 1.433 . S
C1740 C1736 1.350 . S
C1740 C1737 1.463 . S
C1740 N1744 1.427 . S
C1741 H1731 0.929 . S
C1741 C1739 1.433 . S
C1741 N1744 1.384 . S
C1742 H1733 0.929 . S
C1742 C1734 1.378 . S
C1742 C1737 1.350 . S
C1743 H1730 0.929 1_556 S
C1743 C1735 1.433 1_556 S
C1743 N1745 1.384 . S
N1744 C1740 1.427 . S
N1744 C1741 1.384 . S
N1745 C1737 1.427 . S
N1745 C1743 1.384 . S
H1746 C1752 0.930 . S
H1747 C1756 0.930 . S
H1748 C1761 0.929 . S
H1749 C1759 0.929 . S
H1750 C1754 0.929 . S
H1751 C1760 0.929 . S
C1752 H1746 0.930 . S
C1752 C1753 1.367 . S
C1752 C1760 1.378 . S
C1753 C1752 1.367 . S
C1753 C1761 1.433 . S
C1754 H1750 0.929 . S
C1754 C1756 1.378 . S
C1754 C1758 1.350 . S
C1755 C1758 1.463 . S
C1755 C1760 1.350 . S
C1755 N1763 1.427 . S
C1756 H1747 0.930 . S
C1756 C1754 1.378 . S
C1756 C1757 1.367 . S
C1757 C1756 1.367 . S
C1757 C1759 1.433 . S
C1758 C1754 1.350 . S
C1758 C1755 1.463 . S
C1758 N1762 1.427 . S
C1759 H1749 0.929 . S
C1759 C1757 1.433 . S
C1759 N1762 1.384 . S
C1760 H1751 0.929 . S
C1760 C1752 1.378 . S
C1760 C1755 1.350 . S
C1761 H1748 0.929 . S
C1761 C1753 1.433 . S
C1761 N1763 1.384 . S
N1762 C1758 1.427 . S
N1762 C1759 1.384 . S
N1763 C1755 1.427 . S
N1763 C1761 1.384 . S
H1764 C1770 0.930 . S
H1765 C1774 0.930 . S
H1766 C1779 0.929 . S
H1767 C1777 0.929 . S
H1768 C1772 0.929 . S
H1769 C1778 0.929 . S
C1770 H1764 0.930 . S
C1770 C1771 1.367 . S
C1770 C1778 1.378 . S
C1771 C1770 1.367 . S
C1771 C1779 1.433 . S
C1772 H1768 0.929 . S
C1772 C1774 1.378 . S
C1772 C1776 1.350 . S
C1773 C1776 1.463 . S
C1773 C1778 1.350 . S
C1773 N1781 1.427 . S
C1774 H1765 0.930 . S
C1774 C1772 1.378 . S
C1774 C1775 1.367 . S
C1775 C1774 1.367 . S
C1775 C1777 1.433 . S
C1776 C1772 1.350 . S
C1776 C1773 1.463 . S
C1776 N1780 1.427 . S
C1777 H1767 0.929 . S
C1777 C1775 1.433 . S
C1777 N1780 1.384 . S
C1778 H1769 0.929 . S
C1778 C1770 1.378 . S
C1778 C1773 1.350 . S
C1779 H1766 0.929 . S
C1779 C1771 1.433 . S
C1779 N1781 1.384 . S
N1780 C1776 1.427 . S
N1780 C1777 1.384 . S
N1781 C1773 1.427 . S
N1781 C1779 1.384 . S
H1782 C1788 0.930 . S
H1783 C1792 0.930 . S
H1784 C1797 0.929 . S
H1785 C1795 0.929 . S
H1786 C1790 0.929 . S
H1787 C1796 0.929 . S
C1788 H1782 0.930 . S
C1788 C1789 1.367 . S
C1788 C1796 1.378 . S
C1789 C1788 1.367 . S
C1789 C1797 1.433 . S
C1790 H1786 0.929 . S
C1790 C1792 1.378 . S
C1790 C1794 1.350 . S
C1791 C1794 1.463 . S
C1791 C1796 1.350 . S
C1791 N1799 1.427 . S
C1792 H1783 0.930 . S
C1792 C1790 1.378 . S
C1792 C1793 1.367 . S
C1793 C1792 1.367 . S
C1793 C1795 1.433 . S
C1794 C1790 1.350 . S
C1794 C1791 1.463 . S
C1794 N1798 1.427 . S
C1795 H1785 0.929 . S
C1795 C1793 1.433 . S
C1795 N1798 1.384 . S
C1796 H1787 0.929 . S
C1796 C1788 1.378 . S
C1796 C1791 1.350 . S
C1797 H1784 0.929 . S
C1797 C1789 1.433 . S
C1797 N1799 1.384 . S
N1798 C1794 1.427 . S
N1798 C1795 1.384 . S
N1799 C1791 1.427 . S
N1799 C1797 1.384 . S
C511 C232 1.131 . S
C515 C8 1.135 . S
C529 C246 1.133 . S
C533 C22 1.129 . S
C547 C36 1.134 . S
C551 C218 1.133 . S
C565 C372 1.129 . S
C569 C50 1.132 . S
C583 C344 1.131 . S
C587 C64 1.130 . S
C601 C78 1.133 . S
C605 C358 1.135 . S
C619 C484 1.135 . S
C623 C92 1.132 . S
C637 C498 1.133 . S
C641 C106 1.129 . S
C655 C470 1.134 . S
C659 C120 1.130 . S
C673 C288 1.131 . S
C677 C134 1.129 . S
C691 C148 1.133 . S
C695 C260 1.134 . S
C709 C274 1.131 . S
C713 C162 1.135 . S
C727 C400 1.129 . S
C731 C176 1.134 . S
C745 C190 1.134 . S
C749 C414 1.133 . S
C763 C386 1.129 . S
C767 C204 1.132 . S
C781 C456 1.129 . S
C785 C302 1.132 . S
C799 C428 1.131 . S
C803 C316 1.134 . S
C817 C330 1.130 . S
C821 C442 1.134 . S
C835 C101 1.563 . S
C839 C7 1.544 . S
C853 C115 1.564 . S
C857 C21 1.542 . S
C871 C87 1.563 . S
C875 C35 1.542 . S
C889 C49 1.542 . S
C893 C157 1.564 . S
C907 C129 1.562 . S
C911 C63 1.544 . S
C925 C77 1.550 . S
C929 C143 1.561 . S
C943 C17 1.562 . S
C947 C91 1.546 . S
C961 C105 1.550 . S
C965 C31 1.561 . S
C979 C3 1.562 . S
C983 C119 1.546 . S
C997 C73 1.561 . S
C1001 C133 1.550 . S
C1015 C45 1.562 . S
C1019 C147 1.545 . S
C1033 C161 1.550 . S
C1037 C59 1.561 . S
C1051 C175 1.544 . S
C1055 C269 1.562 . S
C1069 C283 1.563 . S
C1073 C189 1.542 . S
C1087 C255 1.564 . S
C1091 C203 1.542 . S
C1105 C217 1.543 . S
C1109 C325 1.563 . S
C1123 C297 1.563 . S
C1127 C231 1.544 . S
C1141 C245 1.549 . S
C1145 C311 1.561 . S
C1159 C259 1.548 . S
C1163 C185 1.561 . S
C1177 C273 1.545 . S
C1181 C199 1.562 . S
C1195 C171 1.564 . S
C1199 C287 1.542 . S
C1213 C241 1.564 . S
C1217 C301 1.542 . S
C1231 C213 1.561 . S
C1235 C315 1.550 . S
C1249 C329 1.543 . S
C1253 C227 1.563 . S
C1267 C437 1.561 . S
C1271 C343 1.548 . S
C1285 C357 1.544 . S
C1289 C451 1.563 . S
C1303 C371 1.543 . S
C1307 C423 1.563 . S
C1321 C493 1.562 . S
C1325 C385 1.547 . S
C1339 C399 1.545 . S
C1343 C465 1.562 . S
C1357 C479 1.563 . S
C1361 C413 1.542 . S
C1375 C353 1.562 . S
C1379 C427 1.546 . S
C1393 C367 1.564 . S
C1397 C441 1.542 . S
C1411 C455 1.546 . S
C1415 C339 1.562 . S
C1429 C469 1.549 . S
C1433 C409 1.561 . S
C1447 C381 1.560 . S
C1451 C483 1.550 . S
C1465 C395 1.561 . S
C1469 C497 1.548 . S
C1483 C9 1.561 . S
C1487 C51 1.567 . S
C1501 C23 1.559 . S
C1505 C65 1.564 . S
C1519 C79 1.564 . S
C1523 C37 1.565 . S
C1537 C93 1.567 . S
C1541 C135 1.560 . S
C1555 C149 1.561 . S
C1559 C107 1.567 . S
C1573 C163 1.566 . S
C1577 C121 1.559 . S
C1591 C177 1.562 . S
C1595 C219 1.560 . S
C1609 C191 1.565 . S
C1613 C233 1.564 . S
C1627 C247 1.563 . S
C1631 C205 1.566 . S
C1645 C261 1.559 . S
C1649 C303 1.566 . S
C1663 C275 1.565 . S
C1667 C317 1.559 . S
C1681 C289 1.566 . S
C1685 C331 1.562 . S
C1699 C387 1.565 . S
C1703 C345 1.565 . S
C1717 C401 1.562 . S
C1721 C359 1.566 . S
C1735 C415 1.564 . S
C1739 C373 1.565 . S
C1753 C429 1.559 . S
C1757 C471 1.566 . S
C1771 C485 1.562 . S
C1775 C443 1.566 . S
C1789 C499 1.559 . S
C1793 C457 1.563 . S
