# Generated by pormake.
# Topology sow, (4)-cn, num edge types: 1
# Building blocks:
#     Node 0, Type 0, BuildingBlock: NAWXER_clean_sbu_0, # of connection points: 4
#     Node 1, Type 0, BuildingBlock: NAWXER_clean_sbu_0, # of connection points: 4
#     Node 2, Type 0, BuildingBlock: NAWXER_clean_sbu_0, # of connection points: 4
#     Node 3, Type 0, BuildingBlock: NAWXER_clean_sbu_0, # of connection points: 4
#     Node 4, Type 0, BuildingBlock: NAWXER_clean_sbu_0, # of connection points: 4
#     Node 5, Type 0, BuildingBlock: NAWXER_clean_sbu_0, # of connection points: 4
#     Node 6, Type 0, BuildingBlock: NAWXER_clean_sbu_0, # of connection points: 4
#     Node 7, Type 0, BuildingBlock: NAWXER_clean_sbu_0, # of connection points: 4
#     Edge 8, Type (0, 0), BuildingBlock: TEMPAE_clean_linker_10, # of connection points: 2
#     Edge 9, Type (0, 0), BuildingBlock: TEMPAE_clean_linker_10, # of connection points: 2
#     Edge 10, Type (0, 0), BuildingBlock: TEMPAE_clean_linker_10, # of connection points: 2
#     Edge 11, Type (0, 0), BuildingBlock: TEMPAE_clean_linker_10, # of connection points: 2
#     Edge 12, Type (0, 0), BuildingBlock: TEMPAE_clean_linker_10, # of connection points: 2
#     Edge 13, Type (0, 0), BuildingBlock: TEMPAE_clean_linker_10, # of connection points: 2
#     Edge 14, Type (0, 0), BuildingBlock: TEMPAE_clean_linker_10, # of connection points: 2
#     Edge 15, Type (0, 0), BuildingBlock: TEMPAE_clean_linker_10, # of connection points: 2
#     Edge 16, Type (0, 0), BuildingBlock: TEMPAE_clean_linker_10, # of connection points: 2
#     Edge 17, Type (0, 0), BuildingBlock: TEMPAE_clean_linker_10, # of connection points: 2
#     Edge 18, Type (0, 0), BuildingBlock: TEMPAE_clean_linker_10, # of connection points: 2
#     Edge 19, Type (0, 0), BuildingBlock: TEMPAE_clean_linker_10, # of connection points: 2
#     Edge 20, Type (0, 0), BuildingBlock: TEMPAE_clean_linker_10, # of connection points: 2
#     Edge 21, Type (0, 0), BuildingBlock: TEMPAE_clean_linker_10, # of connection points: 2
#     Edge 22, Type (0, 0), BuildingBlock: TEMPAE_clean_linker_10, # of connection points: 2
#     Edge 23, Type (0, 0), BuildingBlock: TEMPAE_clean_linker_10, # of connection points: 2
# Relax obj value: 0.113
# Max RMSD: 0.238
# Mean RMSD: 0.237
data_MOF--net-sow--node1-NAWXER_clean_sbu_0--edge1-TEMPAE_clean_linker_10
_symmetry_space_group_name_H-M    P1
_symmetry_Int_Tables_number       1
_symmetry_cell_setting            triclinic
loop_
_symmetry_equiv_pos_as_xyz
'x, y, z'
_cell_length_a     44.239291
_cell_length_b     19.564047
_cell_length_c     23.07404
_cell_angle_alpha  90.011535
_cell_angle_beta   89.918388
_cell_angle_gamma 89.982833
loop_
_atom_site_label
_atom_site_type_symbol
_atom_site_fract_x
_atom_site_fract_y
_atom_site_fract_z
_atom_type_partial_charge
C0 C 0.18011 0.19801 0.16663 0.0
C1 C 0.09842 0.11085 0.04905 0.0
O2 O 0.17075 0.13735 0.15967 0.0
Zn3 Zn 0.14153 0.15524 0.10144 0.0
O4 O 0.16887 0.2464 0.13566 0.0
Zn5 Zn 0.13347 0.25297 0.06979 0.0
O6 O 0.10545 0.31581 0.10416 0.0
O7 O 0.10814 0.21579 0.14826 0.0
O8 O 0.10174 0.17525 0.04099 0.0
O9 O 0.11736 0.07827 0.07958 0.0
O10 O 0.16765 0.18028 0.02483 0.0
O11 O 0.15267 0.28367 1.00035 0.0
C12 C 0.09636 0.27557 0.14371 0.0
C13 C 0.169 0.23179 0.99044 0.0
C14 C 0.31853 0.2952 0.66553 0.0
C15 C 0.40199 0.37554 0.54719 0.0
O16 O 0.32803 0.3557 0.65769 0.0
Zn17 Zn 0.35765 0.33591 0.59976 0.0
O18 O 0.32986 0.24602 0.6356 0.0
Zn19 Zn 0.36532 0.23614 0.57078 0.0
O20 O 0.39259 0.17365 0.60751 0.0
O21 O 0.39029 0.27557 0.64877 0.0
O22 O 0.39801 0.31092 0.54211 0.0
O23 O 0.38257 0.41132 0.57409 0.0
O24 O 0.33165 0.30893 0.52418 0.0
O25 O 0.3462 0.20478 0.50115 0.0
C26 C 0.40166 0.21519 0.64614 0.0
C27 C 0.3301 0.25685 0.49053 0.0
C28 C 0.67925 0.30895 0.84024 0.0
C29 C 0.59513 0.38292 0.9601 0.0
O30 O 0.66903 0.36868 0.84893 0.0
Zn31 Zn 0.63966 0.34593 0.90656 0.0
O32 O 0.66843 0.25853 0.86936 0.0
Zn33 Zn 0.63289 0.24554 0.93391 0.0
O34 O 0.60647 0.18225 0.89632 0.0
O35 O 0.60742 0.2851 0.85663 0.0
O36 O 0.59942 0.31825 0.9639 0.0
O37 O 0.61433 0.41978 0.93376 0.0
O38 O 0.66606 0.31825 0.98163 0.0
O39 O 0.65214 0.21319 0.00294 0.0
C40 C 0.59679 0.22397 0.85842 0.0
C41 C 0.66792 0.26545 0.0144 0.0
C42 C 0.81678 0.20453 0.33999 0.0
C43 C 0.89986 0.12378 0.45831 0.0
O44 O 0.8259 0.14393 0.34883 0.0
Zn45 Zn 0.85563 0.16425 0.40609 0.0
O46 O 0.82846 0.25411 0.36885 0.0
Zn47 Zn 0.86423 0.26421 0.43298 0.0
O48 O 0.89175 0.32472 0.39453 0.0
O49 O 0.88872 0.22181 0.35536 0.0
O50 O 0.89654 0.18873 0.46223 0.0
O51 O 0.87987 0.08831 0.43284 0.0
O52 O 0.82978 0.19475 0.48121 0.0
O53 O 0.84561 0.29845 0.5023 0.0
C54 C 0.90052 0.28184 0.35665 0.0
C55 C 0.82883 0.2478 0.51387 0.0
C56 C 0.9011 0.88257 0.95152 0.0
C57 C 0.82103 0.78639 0.83332 0.0
O58 O 0.89882 0.8177 0.95844 0.0
Zn59 Zn 0.86911 0.73684 0.92931 0.0
O60 O 0.88127 0.91385 0.92192 0.0
Zn61 Zn 0.85874 0.83434 0.89825 0.0
O62 O 0.83346 0.80556 0.97462 0.0
O63 O 0.85061 0.70383 0.99894 0.0
O64 O 0.82883 0.84828 0.84005 0.0
O65 O 0.83358 0.73968 0.8642 0.0
O66 O 0.89847 0.67795 0.89376 0.0
O67 O 0.8932 0.77813 0.85075 0.0
C68 C 0.83323 0.75396 0.00896 0.0
C69 C 0.90632 0.71971 0.85432 0.0
C70 C 0.60348 0.58532 0.44927 0.0
C71 C 0.68484 0.67899 0.33378 0.0
O72 O 0.60661 0.64943 0.45942 0.0
Zn73 Zn 0.6375 0.72942 0.4313 0.0
O74 O 0.62258 0.55465 0.41751 0.0
Zn75 Zn 0.64634 0.63292 0.39782 0.0
O76 O 0.67189 0.65695 0.47541 0.0
O77 O 0.65629 0.75956 0.50103 0.0
O78 O 0.676 0.61777 0.33962 0.0
O79 O 0.67308 0.72603 0.36558 0.0
O80 O 0.60918 0.79202 0.39772 0.0
O81 O 0.61272 0.69327 0.35194 0.0
C82 C 0.67279 0.70788 0.51051 0.0
C83 C 0.60055 0.75255 0.35729 0.0
C84 C 0.39687 0.61027 0.05252 0.0
C85 C 0.31833 0.72771 0.16038 0.0
O86 O 0.39654 0.67435 0.0407 0.0
Zn87 Zn 0.36946 0.76215 0.06531 0.0
O88 O 0.37633 0.58508 0.08449 0.0
Zn89 Zn 0.35562 0.66928 0.10093 0.0
O90 O 0.33275 0.69556 0.02162 0.0
O91 O 0.35234 0.79374 0.99402 0.0
O92 O 0.32329 0.66414 0.15563 0.0
O93 O 0.33382 0.77031 0.13015 0.0
O94 O 0.40034 0.81838 0.09797 0.0
O95 O 0.39116 0.72373 0.14723 0.0
C96 C 0.334 0.74512 0.98532 0.0
C97 C 0.40632 0.77918 0.14034 0.0
C98 C 0.10194 0.91221 0.54937 0.0
C99 C 0.18391 0.82277 0.66507 0.0
O100 O 0.1062 0.84861 0.53795 0.0
Zn101 Zn 0.13814 0.77017 0.56653 0.0
O102 O 0.12036 0.94356 0.58199 0.0
Zn103 Zn 0.14508 0.86719 0.60077 0.0
O104 O 0.1709 0.84722 0.52276 0.0
O105 O 0.15962 0.74105 0.49908 0.0
O106 O 0.1745 0.88359 0.65948 0.0
O107 O 0.17269 0.77544 0.6331 0.0
O108 O 0.11033 0.70513 0.59879 0.0
O109 O 0.11212 0.80364 0.64537 0.0
C110 C 0.17424 0.79544 0.48921 0.0
C111 C 0.10088 0.74355 0.63935 0.0
C112 C 0.2777 0.22258 0.70921 0.0
C113 C 0.29584 0.2813 0.71124 0.0
C114 C 0.25633 0.20915 0.75296 0.0
C115 C 0.25368 0.2546 0.80051 0.0
C116 C 0.27235 0.3133 0.80316 0.0
C117 C 0.29289 0.32636 0.75817 0.0
C118 C 0.23629 0.147 0.74788 0.0
C119 C 0.2707 0.36234 0.85367 0.0
C120 C 0.18219 0.26995 0.89055 0.0
C121 C 0.18964 0.23194 0.94001 0.0
C122 C 0.20224 0.27475 0.84358 0.0
C123 C 0.23083 0.24246 0.84686 0.0
C124 C 0.23823 0.20281 0.89627 0.0
C125 C 0.21732 0.19722 0.942 0.0
C126 C 0.19312 0.31597 0.79109 0.0
C127 C 0.26874 0.16895 0.902 0.0
H128 H 0.27987 0.1877 0.67292 0.0
H129 H 0.30712 0.3714 0.76033 0.0
H130 H 0.23934 0.11338 0.78612 0.0
H131 H 0.21222 0.16297 0.74723 0.0
H132 H 0.24109 0.11688 0.70809 0.0
H133 H 0.28793 0.40351 0.8507 0.0
H134 H 0.24801 0.38633 0.85551 0.0
H135 H 0.27404 0.3343 0.89497 0.0
H136 H 0.16064 0.29626 0.88867 0.0
H137 H 0.22317 0.16812 0.98036 0.0
H138 H 0.19687 0.28588 0.75095 0.0
H139 H 0.20734 0.36252 0.78804 0.0
H140 H 0.16903 0.33191 0.79282 0.0
H141 H 0.27339 0.13624 0.86376 0.0
H142 H 0.27042 0.13712 0.94173 0.0
H143 H 0.28665 0.20864 0.90347 0.0
C144 C 0.20473 0.16842 0.26026 0.0
C145 C 0.2026 0.21239 0.21244 0.0
C146 C 0.22551 0.18064 0.30484 0.0
C147 C 0.24528 0.23734 0.30092 0.0
C148 C 0.24339 0.28185 0.25257 0.0
C149 C 0.22173 0.26937 0.20921 0.0
C150 C 0.22629 0.13269 0.35617 0.0
C151 C 0.26463 0.34174 0.24613 0.0
C152 C 0.28249 0.29423 0.44142 0.0
C153 C 0.30946 0.25663 0.4402 0.0
C154 C 0.26162 0.28984 0.39569 0.0
C155 C 0.26834 0.24839 0.34695 0.0
C156 C 0.29623 0.21297 0.3444 0.0
C157 C 0.31623 0.21669 0.39144 0.0
C158 C 0.23181 0.32697 0.40075 0.0
C159 C 0.30461 0.16962 0.29264 0.0
H160 H 0.18975 0.12471 0.26333 0.0
H161 H 0.2202 0.3033 0.17219 0.0
H162 H 0.2485 0.10651 0.3582 0.0
H163 H 0.22356 0.16202 0.39702 0.0
H164 H 0.20829 0.09317 0.35407 0.0
H165 H 0.26019 0.3716 0.20609 0.0
H166 H 0.26254 0.37631 0.28402 0.0
H167 H 0.28834 0.32321 0.245 0.0
H168 H 0.27715 0.32491 0.47921 0.0
H169 H 0.33724 0.18817 0.39009 0.0
H170 H 0.21313 0.28921 0.40306 0.0
H171 H 0.22784 0.359 0.36186 0.0
H172 H 0.23075 0.36008 0.43983 0.0
H173 H 0.28958 0.12432 0.2905 0.0
H174 H 0.3284 0.15157 0.29459 0.0
H175 H 0.30139 0.19898 0.25197 0.0
C176 C 0.79197 0.17335 0.24681 0.0
C177 C 0.79418 0.21792 0.2942 0.0
C178 C 0.77149 0.18581 0.20173 0.0
C179 C 0.75207 0.24325 0.20485 0.0
C180 C 0.75396 0.28817 0.2529 0.0
C181 C 0.77535 0.2755 0.29666 0.0
C182 C 0.77073 0.13756 0.15061 0.0
C183 C 0.73308 0.34885 0.25851 0.0
C184 C 0.7157 0.3011 0.06375 0.0
C185 C 0.68846 0.2646 0.06482 0.0
C186 C 0.73646 0.29583 0.10963 0.0
C187 C 0.72931 0.25471 0.15833 0.0
C188 C 0.70116 0.22042 0.16068 0.0
C189 C 0.6813 0.22491 0.1135 0.0
C190 C 0.76656 0.33175 0.1048 0.0
C191 C 0.6923 0.17764 0.21246 0.0
H192 H 0.80677 0.12924 0.24436 0.0
H193 H 0.77698 0.30995 0.33333 0.0
H194 H 0.74838 0.11206 0.14823 0.0
H195 H 0.77386 0.16653 0.10969 0.0
H196 H 0.7885 0.09755 0.15328 0.0
H197 H 0.73727 0.37852 0.29876 0.0
H198 H 0.73588 0.38338 0.22077 0.0
H199 H 0.70923 0.33128 0.25859 0.0
H200 H 0.72133 0.33154 0.02599 0.0
H201 H 0.66007 0.19725 0.11468 0.0
H202 H 0.78499 0.29327 0.10332 0.0
H203 H 0.77052 0.36423 0.14343 0.0
H204 H 0.76808 0.36421 0.06541 0.0
H205 H 0.70712 0.13201 0.21515 0.0
H206 H 0.66845 0.16013 0.21013 0.0
H207 H 0.69542 0.20723 0.25305 0.0
C208 C 0.70471 0.34342 0.7482 0.0
C209 C 0.70224 0.29739 0.79456 0.0
C210 C 0.72542 0.33231 0.70306 0.0
C211 C 0.74475 0.27465 0.705 0.0
C212 C 0.74274 0.22853 0.75221 0.0
C213 C 0.72118 0.23994 0.79605 0.0
C214 C 0.72636 0.38196 0.65294 0.0
C215 C 0.76353 0.16758 0.75665 0.0
C216 C 0.78039 0.21611 0.56312 0.0
C217 C 0.8081 0.2508 0.56415 0.0
C218 C 0.75963 0.22276 0.60898 0.0
C219 C 0.76721 0.26338 0.65772 0.0
C220 C 0.7957 0.29625 0.65988 0.0
C221 C 0.81559 0.29045 0.61266 0.0
C222 C 0.72918 0.18843 0.60429 0.0
C223 C 0.805 0.33844 0.71168 0.0
H224 H 0.68991 0.38756 0.74649 0.0
H225 H 0.71943 0.20439 0.83194 0.0
H226 H 0.7489 0.40657 0.6505 0.0
H227 H 0.72279 0.35426 0.61154 0.0
H228 H 0.70894 0.42265 0.65682 0.0
H229 H 0.75962 0.1376 0.79686 0.0
H230 H 0.76028 0.13343 0.71881 0.0
H231 H 0.78743 0.18481 0.75592 0.0
H232 H 0.77448 0.18579 0.52547 0.0
H233 H 0.83713 0.31681 0.6138 0.0
H234 H 0.71108 0.22772 0.60438 0.0
H235 H 0.72524 0.15486 0.64227 0.0
H236 H 0.72706 0.15731 0.56422 0.0
H237 H 0.79036 0.38429 0.71513 0.0
H238 H 0.8289 0.35554 0.70884 0.0
H239 H 0.80201 0.3085 0.75213 0.0
C240 C 0.82066 0.71428 0.10884 0.0
C241 C 0.8127 0.75205 0.05955 0.0
C242 C 0.80085 0.70861 0.15612 0.0
C243 C 0.772 0.73979 0.15333 0.0
C244 C 0.76408 0.77923 0.10411 0.0
C245 C 0.78474 0.78568 0.05808 0.0
C246 C 0.81047 0.66756 0.20836 0.0
C247 C 0.73328 0.81184 0.09884 0.0
C248 C 0.7107 0.65162 0.24069 0.0
C249 C 0.70723 0.69569 0.28819 0.0
C250 C 0.73119 0.66634 0.19605 0.0
C251 C 0.74927 0.72587 0.19952 0.0
C252 C 0.74605 0.7705 0.24755 0.0
C253 C 0.72475 0.75531 0.29104 0.0
C254 C 0.73344 0.61805 0.14509 0.0
C255 C 0.76545 0.83356 0.2534 0.0
H256 H 0.84244 0.68889 0.11037 0.0
H257 H 0.77851 0.8147 0.0199 0.0
H258 H 0.80641 0.69711 0.24869 0.0
H259 H 0.79678 0.62018 0.21118 0.0
H260 H 0.83473 0.65304 0.20647 0.0
H261 H 0.7313 0.84424 0.05949 0.0
H262 H 0.71573 0.77138 0.0969 0.0
H263 H 0.72835 0.84368 0.13748 0.0
H264 H 0.69697 0.60584 0.23786 0.0
H265 H 0.72218 0.7894 0.32776 0.0
H266 H 0.75638 0.59528 0.14321 0.0
H267 H 0.72989 0.64643 0.10402 0.0
H268 H 0.71665 0.57593 0.14753 0.0
H269 H 0.78967 0.81876 0.25438 0.0
H270 H 0.76017 0.86304 0.29331 0.0
H271 H 0.76227 0.86738 0.21533 0.0
C272 C 0.68547 0.74573 0.61061 0.0
C273 C 0.6932 0.70789 0.56117 0.0
C274 C 0.70547 0.75151 0.65743 0.0
C275 C 0.73429 0.72029 0.65407 0.0
C276 C 0.74189 0.68026 0.60493 0.0
C277 C 0.72104 0.67379 0.55929 0.0
C278 C 0.69615 0.79316 0.70961 0.0
C279 C 0.77262 0.64738 0.59917 0.0
C280 C 0.79537 0.81126 0.73965 0.0
C281 C 0.7989 0.76833 0.7878 0.0
C282 C 0.7751 0.79494 0.69511 0.0
C283 C 0.75727 0.73506 0.69947 0.0
C284 C 0.76063 0.69149 0.7481 0.0
C285 C 0.78175 0.70821 0.7914 0.0
C286 C 0.77271 0.84205 0.64344 0.0
C287 C 0.74149 0.62814 0.75495 0.0
H288 H 0.66378 0.7715 0.61245 0.0
H289 H 0.7271 0.64474 0.52097 0.0
H290 H 0.70058 0.76426 0.75009 0.0
H291 H 0.70973 0.84076 0.71147 0.0
H292 H 0.67184 0.80738 0.70838 0.0
H293 H 0.77421 0.61387 0.56041 0.0
H294 H 0.79016 0.68773 0.59573 0.0
H295 H 0.77789 0.61663 0.63824 0.0
H296 H 0.80887 0.85734 0.73627 0.0
H297 H 0.7844 0.67498 0.82864 0.0
H298 H 0.74979 0.86497 0.64173 0.0
H299 H 0.77603 0.81275 0.60273 0.0
H300 H 0.78958 0.88407 0.64487 0.0
H301 H 0.71724 0.64259 0.75663 0.0
H302 H 0.74715 0.59914 0.79488 0.0
H303 H 0.74449 0.594 0.717 0.0
C304 C 0.28527 0.71481 0.93704 0.0
C305 C 0.31348 0.74732 0.93489 0.0
C306 C 0.26441 0.72224 0.89164 0.0
C307 C 0.27231 0.7617 0.84243 0.0
C308 C 0.30136 0.79173 0.83886 0.0
C309 C 0.32145 0.78494 0.88549 0.0
C310 C 0.23343 0.69062 0.89759 0.0
C311 C 0.31091 0.8328 0.78654 0.0
C312 C 0.22417 0.7469 0.70638 0.0
C313 C 0.20669 0.80657 0.70987 0.0
C314 C 0.2458 0.73161 0.74903 0.0
C315 C 0.24945 0.77628 0.79684 0.0
C316 C 0.23152 0.83604 0.8009 0.0
C317 C 0.21063 0.85081 0.75706 0.0
C318 C 0.265 0.66824 0.74262 0.0
C319 C 0.23431 0.88437 0.85171 0.0
H320 H 0.279 0.68596 0.97532 0.0
H321 H 0.34338 0.80955 0.88346 0.0
H322 H 0.21613 0.73163 0.90001 0.0
H323 H 0.22813 0.65902 0.85902 0.0
H324 H 0.23145 0.65818 0.93693 0.0
H325 H 0.33525 0.84672 0.7879 0.0
H326 H 0.30652 0.80354 0.74622 0.0
H327 H 0.29742 0.88052 0.7842 0.0
H328 H 0.22126 0.7127 0.66984 0.0
H329 H 0.19696 0.89667 0.7603 0.0
H330 H 0.26178 0.63426 0.78059 0.0
H331 H 0.28926 0.68259 0.74137 0.0
H332 H 0.25953 0.63909 0.70267 0.0
H333 H 0.2307 0.8562 0.89288 0.0
H334 H 0.21781 0.92711 0.8495 0.0
H335 H 0.25742 0.90626 0.85314 0.0
C336 C 0.30357 0.80119 0.24399 0.0
C337 C 0.29578 0.75183 0.20269 0.0
C338 C 0.28388 0.81675 0.29004 0.0
C339 C 0.25539 0.78381 0.29338 0.0
C340 C 0.24672 0.73739 0.24928 0.0
C341 C 0.26732 0.72081 0.20517 0.0
C342 C 0.29442 0.86469 0.33712 0.0
C343 C 0.21619 0.70289 0.25002 0.0
C344 C 0.2179 0.74494 0.43745 0.0
C345 C 0.19624 0.79682 0.44133 0.0
C346 C 0.23827 0.74242 0.39093 0.0
C347 C 0.23606 0.79143 0.34593 0.0
C348 C 0.21433 0.84454 0.35001 0.0
C349 C 0.19495 0.8473 0.39842 0.0
C350 C 0.26177 0.68639 0.38947 0.0
C351 C 0.21062 0.89641 0.30214 0.0
H352 H 0.32579 0.82452 0.24222 0.0
H353 H 0.26133 0.68284 0.17291 0.0
H354 H 0.27694 0.90373 0.34662 0.0
H355 H 0.2982 0.83526 0.37759 0.0
H356 H 0.3158 0.89108 0.32536 0.0
H357 H 0.21129 0.67624 0.20856 0.0
H358 H 0.21542 0.66473 0.28554 0.0
H359 H 0.19806 0.74088 0.25837 0.0
H360 H 0.21894 0.7063 0.47109 0.0
H361 H 0.17797 0.8871 0.40151 0.0
H362 H 0.28448 0.7083 0.38098 0.0
H363 H 0.25668 0.65026 0.35375 0.0
H364 H 0.26259 0.65712 0.4307 0.0
H365 H 0.23261 0.92058 0.29157 0.0
H366 H 0.19417 0.93714 0.31371 0.0
H367 H 0.20261 0.87028 0.26232 0.0
C368 C 0.06334 0.25575 0.22965 0.0
C369 C 0.06966 0.29304 0.17924 0.0
C370 C 0.03568 0.26343 0.25863 0.0
C371 C 0.01365 0.30864 0.23604 0.0
C372 C 0.02045 0.34883 0.18674 0.0
C373 C 0.04853 0.34096 0.15914 0.0
C374 C 0.02953 0.22083 0.31194 0.0
C375 C 0.9974 0.39697 0.16104 0.0
C376 C 0.93372 0.25441 0.27235 0.0
C377 C 0.92698 0.29683 0.3196 0.0
C378 C 0.96129 0.26029 0.24275 0.0
C379 C 0.98277 0.30921 0.26139 0.0
C380 C 0.9755 0.35447 0.30718 0.0
C381 C 0.94755 0.34805 0.33553 0.0
C382 C 0.96804 0.21173 0.19345 0.0
C383 C 0.99794 0.40677 0.32862 0.0
H384 H 0.07968 0.21895 0.24553 0.0
H385 H 0.05321 0.36956 0.11991 0.0
H386 H 0.02137 0.25384 0.34778 0.0
H387 H 0.01147 0.18307 0.30258 0.0
H388 H 0.04992 0.19275 0.32686 0.0
H389 H 0.00725 0.42971 0.12651 0.0
H390 H 0.97857 0.36692 0.14212 0.0
H391 H 0.9876 0.43031 0.19511 0.0
H392 H 0.91784 0.21498 0.25965 0.0
H393 H 0.94257 0.38072 0.37228 0.0
H394 H 0.98627 0.17594 0.20645 0.0
H395 H 0.97622 0.24037 0.15501 0.0
H396 H 0.94793 0.18125 0.18072 0.0
H397 H 0.01702 0.38028 0.35025 0.0
H398 H 0.98763 0.44303 0.36001 0.0
H399 H 0.0075 0.43627 0.29188 0.0
C400 C 0.43408 0.23713 0.73231 0.0
C401 C 0.42811 0.19858 0.68244 0.0
C402 C 0.46171 0.23103 0.76144 0.0
C403 C 0.48408 0.18608 0.73954 0.0
C404 C 0.47758 0.14431 0.69106 0.0
C405 C 0.44951 0.15069 0.66328 0.0
C406 C 0.46757 0.27542 0.81382 0.0
C407 C 0.50095 0.09628 0.66618 0.0
C408 C 0.56335 0.24622 0.77364 0.0
C409 C 0.57058 0.20599 0.8219 0.0
C410 C 0.53591 0.23742 0.74432 0.0
C411 C 0.51502 0.1879 0.76438 0.0
C412 C 0.52284 0.14474 0.8112 0.0
C413 C 0.55069 0.15397 0.8392 0.0
C414 C 0.52863 0.28348 0.69369 0.0
C415 C 0.50106 0.09181 0.83409 0.0
H416 H 0.41751 0.2739 0.74746 0.0
H417 H 0.44511 0.12113 0.62446 0.0
H418 H 0.47639 0.24406 0.85011 0.0
H419 H 0.48503 0.31417 0.80322 0.0
H420 H 0.44688 0.30247 0.82872 0.0
H421 H 0.49116 0.0613 0.63325 0.0
H422 H 0.51921 0.12647 0.64536 0.0
H423 H 0.51148 0.06526 0.70095 0.0
H424 H 0.57875 0.28618 0.75987 0.0
H425 H 0.55607 0.12296 0.87672 0.0
H426 H 0.51004 0.31884 0.70575 0.0
H427 H 0.52074 0.25271 0.65629 0.0
H428 H 0.54842 0.3144 0.67983 0.0
H429 H 0.48178 0.11785 0.85559 0.0
H430 H 0.51188 0.05703 0.86596 0.0
H431 H 0.49169 0.06078 0.79812 0.0
C432 C 0.06735 0.76079 0.72501 0.0
C433 C 0.07466 0.72322 0.67519 0.0
C434 C 0.04003 0.74991 0.75437 0.0
C435 C 0.01938 0.70072 0.73298 0.0
C436 C 0.02731 0.66006 0.68456 0.0
C437 C 0.055 0.67154 0.65636 0.0
C438 C 0.03259 0.79368 0.80645 0.0
C439 C 0.00581 0.60743 0.66037 0.0
C440 C 0.95468 0.65771 0.83464 0.0
C441 C 0.93288 0.70559 0.81731 0.0
C442 C 0.98258 0.65306 0.80584 0.0
C443 C 0.98856 0.69677 0.75832 0.0
C444 C 0.96582 0.74183 0.73824 0.0
C445 C 0.93831 0.74595 0.7682 0.0
C446 C 0.00633 0.60465 0.82864 0.0
C447 C 0.97114 0.78857 0.68709 0.0
H448 H 0.08256 0.80043 0.74004 0.0
H449 H 0.06047 0.64248 0.61774 0.0
H450 H 0.01373 0.82885 0.79566 0.0
H451 H 0.02501 0.76128 0.84315 0.0
H452 H 0.0522 0.82478 0.82087 0.0
H453 H 0.01672 0.57457 0.6271 0.0
H454 H 0.99685 0.57441 0.69548 0.0
H455 H 0.98623 0.63369 0.64021 0.0
H456 H 0.95066 0.62654 0.87272 0.0
H457 H 0.92143 0.78265 0.75433 0.0
H458 H 0.02465 0.63443 0.84959 0.0
H459 H 0.01669 0.57512 0.79268 0.0
H460 H 0.99695 0.56829 0.86096 0.0
H461 H 0.98827 0.82766 0.69866 0.0
H462 H 0.95018 0.81527 0.67332 0.0
H463 H 0.98015 0.7592 0.64972 0.0
C464 C 0.45631 0.835 0.15699 0.0
C465 C 0.43312 0.79202 0.17686 0.0
C466 C 0.4842 0.83792 0.18573 0.0
C467 C 0.48877 0.79764 0.23587 0.0
C468 C 0.46476 0.75766 0.25826 0.0
C469 C 0.43727 0.75501 0.22824 0.0
C470 C 0.50935 0.8807 0.16035 0.0
C471 C 0.46862 0.71482 0.31223 0.0
C472 C 0.56624 0.72913 0.27392 0.0
C473 C 0.5743 0.77083 0.32085 0.0
C474 C 0.53901 0.73934 0.24421 0.0
C475 C 0.51927 0.79227 0.26217 0.0
C476 C 0.52792 0.83665 0.30764 0.0
C477 C 0.55544 0.82557 0.33634 0.0
C478 C 0.53075 0.69144 0.19532 0.0
C479 C 0.5074 0.89351 0.32799 0.0
H480 H 0.45331 0.8635 0.11713 0.0
H481 H 0.41935 0.72207 0.244 0.0
H482 H 0.52011 0.9124 0.19441 0.0
H483 H 0.52707 0.8466 0.14233 0.0
H484 H 0.50121 0.91479 0.12517 0.0
H485 H 0.44694 0.69213 0.32713 0.0
H486 H 0.4848 0.6727 0.30346 0.0
H487 H 0.47816 0.74612 0.34788 0.0
H488 H 0.58078 0.68699 0.26145 0.0
H489 H 0.56148 0.85796 0.37264 0.0
H490 H 0.52413 0.72093 0.15628 0.0
H491 H 0.51102 0.65987 0.20819 0.0
H492 H 0.54965 0.65665 0.18354 0.0
H493 H 0.49969 0.92477 0.29073 0.0
H494 H 0.51866 0.92755 0.35988 0.0
H495 H 0.48697 0.87127 0.34858 0.0
C496 C 0.04793 0.07071 0.07853 0.0
C497 C 0.06947 0.07868 0.03461 0.0
C498 C 0.01969 0.04138 0.0669 0.0
C499 C 0.01311 0.01871 0.01004 0.0
C500 C 0.03492 0.02696 0.96539 0.0
C501 C 0.06289 0.0576 0.97818 0.0
C502 C 0.99697 0.03452 0.11548 0.0
C503 C 0.0288 0.00278 0.90438 0.0
C504 C 0.95349 0.88095 0.99177 0.0
C505 C 0.92861 0.91865 0.97171 0.0
C506 C 0.98104 0.91297 0.00458 0.0
C507 C 0.98376 0.98458 0.99777 0.0
C508 C 0.9585 0.0233 0.97927 0.0
C509 C 0.93125 0.98982 0.96618 0.0
C510 C 0.00747 0.86988 0.02411 0.0
C511 C 0.96045 0.0999 0.97226 0.0
H512 H 0.05317 0.08806 0.12204 0.0
H513 H 0.07969 0.06437 0.94442 0.0
H514 H 0.97583 0.0619 0.10408 0.0
H515 H 0.99105 0.97995 0.12188 0.0
H516 H 0.00558 0.05536 0.1571 0.0
H517 H 0.04791 0.0139 0.87454 0.0
H518 H 0.02465 0.94684 0.90437 0.0
H519 H 0.00812 0.0277 0.88732 0.0
H520 H 0.95178 0.82589 0.99583 0.0
H521 H 0.91216 0.01933 0.95066 0.0
H522 H 0.01583 0.88819 0.06668 0.0
H523 H 0.02637 0.8749 0.99273 0.0
H524 H 0.00151 0.81491 0.02806 0.0
H525 H 0.96788 0.1238 0.01346 0.0
H526 H 0.9385 0.12284 0.95932 0.0
H527 H 0.97761 0.11274 0.93888 0.0
C528 C 0.5609 0.50743 0.42648 0.0
C529 C 0.57534 0.55039 0.46636 0.0
C530 C 0.53231 0.47987 0.43834 0.0
C531 C 0.51834 0.49354 0.49234 0.0
C532 C 0.5333 0.53519 0.5336 0.0
C533 C 0.5614 0.56445 0.51955 0.0
C534 C 0.51675 0.43739 0.39256 0.0
C535 C 0.51963 0.54885 0.59244 0.0
C536 C 0.43318 0.47203 0.50809 0.0
C537 C 0.43125 0.40549 0.53007 0.0
C538 C 0.46141 0.50107 0.49459 0.0
C539 C 0.48822 0.46351 0.50566 0.0
C540 C 0.48627 0.39658 0.52862 0.0
C541 C 0.45779 0.36806 0.53972 0.0
C542 C 0.46256 0.57161 0.46814 0.0
C543 C 0.51425 0.35567 0.54287 0.0
H544 H 0.57143 0.49771 0.38481 0.0
H545 H 0.57256 0.59797 0.55021 0.0
H546 H 0.51252 0.38507 0.40918 0.0
H547 H 0.49445 0.46017 0.38195 0.0
H548 H 0.53027 0.43349 0.35208 0.0
H549 H 0.53481 0.57956 0.62055 0.0
H550 H 0.49792 0.57662 0.58756 0.0
H551 H 0.51459 0.49978 0.61457 0.0
H552 H 0.41262 0.50095 0.50086 0.0
H553 H 0.45632 0.31707 0.55798 0.0
H554 H 0.47503 0.56996 0.42639 0.0
H555 H 0.47498 0.60693 0.49719 0.0
H556 H 0.43965 0.59292 0.4602 0.0
H557 H 0.52928 0.352 0.5045 0.0
H558 H 0.50877 0.30311 0.55773 0.0
H559 H 0.52716 0.382 0.57753 0.0
C560 C 0.43553 0.52226 0.07615 0.0
C561 C 0.42349 0.56895 0.03631 0.0
C562 C 0.46339 0.49011 0.06575 0.0
C563 C 0.47902 0.50322 0.01333 0.0
C564 C 0.46623 0.54802 0.97179 0.0
C565 C 0.43889 0.58147 0.98432 0.0
C566 C 0.47664 0.44424 0.11181 0.0
C567 C 0.48169 0.56149 0.91454 0.0
C568 C 0.56414 0.47738 0.00296 0.0
C569 C 0.56588 0.41217 0.97821 0.0
C570 C 0.53598 0.50675 0.01645 0.0
C571 C 0.50903 0.47113 0.00244 0.0
C572 C 0.51079 0.40527 0.97722 0.0
C573 C 0.53921 0.37616 0.9663 0.0
C574 C 0.53505 0.57601 0.04532 0.0
C575 C 0.48271 0.36657 0.95971 0.0
H576 H 0.42391 0.51354 0.11689 0.0
H577 H 0.4296 0.61777 0.95362 0.0
H578 H 0.48108 0.39264 0.09378 0.0
H579 H 0.49865 0.46522 0.12648 0.0
H580 H 0.46153 0.43899 0.15004 0.0
H581 H 0.46765 0.5934 0.88522 0.0
H582 H 0.50348 0.58807 0.922 0.0
H583 H 0.48686 0.51246 0.89244 0.0
H584 H 0.58481 0.50516 0.01202 0.0
H585 H 0.54058 0.32622 0.94603 0.0
H586 H 0.52103 0.57369 0.0852 0.0
H587 H 0.52439 0.6138 0.01592 0.0
H588 H 0.55795 0.59472 0.05705 0.0
H589 H 0.46669 0.36297 0.99658 0.0
H590 H 0.48794 0.31408 0.94429 0.0
H591 H 0.47104 0.39457 0.9244 0.0
C592 C 0.05865 0.92979 0.48098 0.0
C593 C 0.07327 0.94559 0.53307 0.0
C594 C 0.03033 0.95856 0.46777 0.0
C595 C 0.01589 0.00165 0.50877 0.0
C596 C 0.03048 0.01678 0.56178 0.0
C597 C 0.0592 0.98957 0.57278 0.0
C598 C 0.01593 0.94314 0.40998 0.0
C599 C 0.01554 0.06092 0.6073 0.0
C600 C 0.9558 0.12857 0.46228 0.0
C601 C 0.92907 0.09282 0.47436 0.0
C602 C 0.98416 0.09882 0.47201 0.0
C603 C 0.98584 0.03238 0.49605 0.0
C604 C 0.95887 0.99649 0.50948 0.0
C605 C 0.93072 0.02668 0.4973 0.0
C606 C 0.01228 0.13799 0.45535 0.0
C607 C 0.95978 0.9266 0.53718 0.0
H608 H 0.06949 0.89549 0.45044 0.0
H609 H 0.07021 0.00073 0.61366 0.0
H610 H 0.99402 0.9167 0.41658 0.0
H611 H 0.01111 0.99153 0.38665 0.0
H612 H 0.03054 0.91057 0.38216 0.0
H613 H 0.02934 0.06519 0.64732 0.0
H614 H 0.01165 0.11303 0.58992 0.0
H615 H 0.99313 0.03939 0.61893 0.0
H616 H 0.95452 0.17917 0.4432 0.0
H617 H 0.91001 0.99902 0.50634 0.0
H618 H 0.02451 0.11003 0.42065 0.0
H619 H 0.02781 0.14221 0.49285 0.0
H620 H 0.00703 0.1903 0.4396 0.0
H621 H 0.97171 0.89008 0.50837 0.0
H622 H 0.93681 0.90635 0.5464 0.0
H623 H 0.97263 0.9289 0.57842 0.0
loop_
_geom_bond_atom_site_label_1
_geom_bond_atom_site_label_2
_geom_bond_distance
_geom_bond_site_symmetry_2
_ccdc_geom_bond_type
C0 O2 1.247 . S
C0 O4 1.258 . S
C1 O8 1.247 . S
C1 O9 1.258 . S
O2 C0 1.247 . S
O2 Zn3 2.028 . S
Zn3 O2 2.028 . S
Zn3 O7 2.035 . S
Zn3 O9 2.035 . S
Zn3 O10 2.028 . S
O4 C0 1.258 . S
O4 Zn5 2.035 . S
Zn5 O4 2.035 . S
Zn5 O6 2.028 . S
Zn5 O8 2.028 . S
Zn5 O11 2.035 . S
O6 Zn5 2.028 . S
O6 C12 1.247 . S
O7 Zn3 2.035 . S
O7 C12 1.258 . S
O8 C1 1.247 . S
O8 Zn5 2.028 . S
O9 C1 1.258 . S
O9 Zn3 2.035 . S
O10 Zn3 2.028 . S
O10 C13 1.247 . S
O11 Zn5 2.035 . S
O11 C13 1.258 . S
C12 O6 1.247 . S
C12 O7 1.258 . S
C13 O10 1.247 . S
C13 O11 1.258 . S
C14 O16 1.247 . S
C14 O18 1.258 . S
C15 O22 1.247 . S
C15 O23 1.258 . S
O16 C14 1.247 . S
O16 Zn17 2.028 . S
Zn17 O16 2.028 . S
Zn17 O21 2.035 . S
Zn17 O23 2.035 . S
Zn17 O24 2.028 . S
O18 C14 1.258 . S
O18 Zn19 2.035 . S
Zn19 O18 2.035 . S
Zn19 O20 2.028 . S
Zn19 O22 2.028 . S
Zn19 O25 2.035 . S
O20 Zn19 2.028 . S
O20 C26 1.247 . S
O21 Zn17 2.035 . S
O21 C26 1.258 . S
O22 C15 1.247 . S
O22 Zn19 2.028 . S
O23 C15 1.258 . S
O23 Zn17 2.035 . S
O24 Zn17 2.028 . S
O24 C27 1.247 . S
O25 Zn19 2.035 . S
O25 C27 1.258 . S
C26 O20 1.247 . S
C26 O21 1.258 . S
C27 O24 1.247 . S
C27 O25 1.258 . S
C28 O30 1.247 . S
C28 O32 1.258 . S
C29 O36 1.247 . S
C29 O37 1.258 . S
O30 C28 1.247 . S
O30 Zn31 2.028 . S
Zn31 O30 2.028 . S
Zn31 O35 2.035 . S
Zn31 O37 2.035 . S
Zn31 O38 2.028 . S
O32 C28 1.258 . S
O32 Zn33 2.035 . S
Zn33 O32 2.035 . S
Zn33 O34 2.028 . S
Zn33 O36 2.028 . S
Zn33 O39 2.035 . S
O34 Zn33 2.028 . S
O34 C40 1.247 . S
O35 Zn31 2.035 . S
O35 C40 1.258 . S
O36 C29 1.247 . S
O36 Zn33 2.028 . S
O37 C29 1.258 . S
O37 Zn31 2.035 . S
O38 Zn31 2.028 . S
O38 C41 1.247 . S
O39 Zn33 2.035 . S
O39 C41 1.258 . S
C40 O34 1.247 . S
C40 O35 1.258 . S
C41 O38 1.247 . S
C41 O39 1.258 . S
C42 O44 1.247 . S
C42 O46 1.258 . S
C43 O50 1.247 . S
C43 O51 1.258 . S
O44 C42 1.247 . S
O44 Zn45 2.028 . S
Zn45 O44 2.028 . S
Zn45 O49 2.035 . S
Zn45 O51 2.035 . S
Zn45 O52 2.028 . S
O46 C42 1.258 . S
O46 Zn47 2.035 . S
Zn47 O46 2.035 . S
Zn47 O48 2.028 . S
Zn47 O50 2.028 . S
Zn47 O53 2.035 . S
O48 Zn47 2.028 . S
O48 C54 1.247 . S
O49 Zn45 2.035 . S
O49 C54 1.258 . S
O50 C43 1.247 . S
O50 Zn47 2.028 . S
O51 C43 1.258 . S
O51 Zn45 2.035 . S
O52 Zn45 2.028 . S
O52 C55 1.247 . S
O53 Zn47 2.035 . S
O53 C55 1.258 . S
C54 O48 1.247 . S
C54 O49 1.258 . S
C55 O52 1.247 . S
C55 O53 1.258 . S
C56 O58 1.247 . S
C56 O60 1.258 . S
C57 O64 1.247 . S
C57 O65 1.258 . S
O58 C56 1.247 . S
O58 Zn59 2.028 . S
Zn59 O58 2.028 . S
Zn59 O63 2.035 . S
Zn59 O65 2.035 . S
Zn59 O66 2.028 . S
O60 C56 1.258 . S
O60 Zn61 2.035 . S
Zn61 O60 2.035 . S
Zn61 O62 2.028 . S
Zn61 O64 2.028 . S
Zn61 O67 2.035 . S
O62 Zn61 2.028 . S
O62 C68 1.247 . S
O63 Zn59 2.035 . S
O63 C68 1.258 . S
O64 C57 1.247 . S
O64 Zn61 2.028 . S
O65 C57 1.258 . S
O65 Zn59 2.035 . S
O66 Zn59 2.028 . S
O66 C69 1.247 . S
O67 Zn61 2.035 . S
O67 C69 1.258 . S
C68 O62 1.247 . S
C68 O63 1.258 . S
C69 O66 1.247 . S
C69 O67 1.258 . S
C70 O72 1.247 . S
C70 O74 1.258 . S
C71 O78 1.247 . S
C71 O79 1.258 . S
O72 C70 1.247 . S
O72 Zn73 2.028 . S
Zn73 O72 2.028 . S
Zn73 O77 2.035 . S
Zn73 O79 2.035 . S
Zn73 O80 2.028 . S
O74 C70 1.258 . S
O74 Zn75 2.035 . S
Zn75 O74 2.035 . S
Zn75 O76 2.028 . S
Zn75 O78 2.028 . S
Zn75 O81 2.035 . S
O76 Zn75 2.028 . S
O76 C82 1.247 . S
O77 Zn73 2.035 . S
O77 C82 1.258 . S
O78 C71 1.247 . S
O78 Zn75 2.028 . S
O79 C71 1.258 . S
O79 Zn73 2.035 . S
O80 Zn73 2.028 . S
O80 C83 1.247 . S
O81 Zn75 2.035 . S
O81 C83 1.258 . S
C82 O76 1.247 . S
C82 O77 1.258 . S
C83 O80 1.247 . S
C83 O81 1.258 . S
C84 O86 1.247 . S
C84 O88 1.258 . S
C85 O92 1.247 . S
C85 O93 1.258 . S
O86 C84 1.247 . S
O86 Zn87 2.028 . S
Zn87 O86 2.028 . S
Zn87 O91 2.035 . S
Zn87 O93 2.035 . S
Zn87 O94 2.028 . S
O88 C84 1.258 . S
O88 Zn89 2.035 . S
Zn89 O88 2.035 . S
Zn89 O90 2.028 . S
Zn89 O92 2.028 . S
Zn89 O95 2.035 . S
O90 Zn89 2.028 . S
O90 C96 1.247 . S
O91 Zn87 2.035 . S
O91 C96 1.258 . S
O92 C85 1.247 . S
O92 Zn89 2.028 . S
O93 C85 1.258 . S
O93 Zn87 2.035 . S
O94 Zn87 2.028 . S
O94 C97 1.247 . S
O95 Zn89 2.035 . S
O95 C97 1.258 . S
C96 O90 1.247 . S
C96 O91 1.258 . S
C97 O94 1.247 . S
C97 O95 1.258 . S
C98 O100 1.247 . S
C98 O102 1.258 . S
C99 O106 1.247 . S
C99 O107 1.258 . S
O100 C98 1.247 . S
O100 Zn101 2.028 . S
Zn101 O100 2.028 . S
Zn101 O105 2.035 . S
Zn101 O107 2.035 . S
Zn101 O108 2.028 . S
O102 C98 1.258 . S
O102 Zn103 2.035 . S
Zn103 O102 2.035 . S
Zn103 O104 2.028 . S
Zn103 O106 2.028 . S
Zn103 O109 2.035 . S
O104 Zn103 2.028 . S
O104 C110 1.247 . S
O105 Zn101 2.035 . S
O105 C110 1.258 . S
O106 C99 1.247 . S
O106 Zn103 2.028 . S
O107 C99 1.258 . S
O107 Zn101 2.035 . S
O108 Zn101 2.028 . S
O108 C111 1.247 . S
O109 Zn103 2.035 . S
O109 C111 1.258 . S
C110 O104 1.247 . S
C110 O105 1.258 . S
C111 O108 1.247 . S
C111 O109 1.258 . S
C112 C113 1.391 . S
C112 C114 1.394 . S
C112 H128 0.931 . S
C113 C112 1.391 . S
C113 C117 1.376 . S
C114 C112 1.394 . S
C114 C115 1.369 . S
C114 C118 1.531 . S
C115 C114 1.369 . S
C115 C116 1.410 . S
C115 C123 1.503 . S
C116 C115 1.410 . S
C116 C117 1.392 . S
C116 C119 1.511 . S
C117 C113 1.376 . S
C117 C116 1.392 . S
C117 H129 0.929 . S
C118 C114 1.531 . S
C118 H130 0.960 . S
C118 H131 0.962 . S
C118 H132 0.960 . S
C119 C116 1.511 . S
C119 H133 0.961 . S
C119 H134 0.961 . S
C119 H135 0.961 . S
C120 C121 1.370 . S
C120 C122 1.363 . S
C120 H136 0.931 . S
C121 C120 1.370 . S
C121 C125 1.408 . S
C122 C120 1.363 . S
C122 C123 1.370 . S
C122 C126 1.524 . S
C123 C115 1.503 . S
C123 C122 1.370 . S
C123 C124 1.403 . S
C124 C123 1.403 . S
C124 C125 1.404 . S
C124 C127 1.539 . S
C125 C121 1.408 . S
C125 C124 1.404 . S
C125 H137 0.930 1_556 S
C126 C122 1.524 . S
C126 H138 0.956 . S
C126 H139 0.961 . S
C126 H140 0.961 . S
C127 C124 1.539 . S
C127 H141 0.958 . S
C127 H142 0.961 . S
C127 H143 0.960 . S
H128 C112 0.931 . S
H129 C117 0.929 . S
H130 C118 0.960 . S
H131 C118 0.962 . S
H132 C118 0.960 . S
H133 C119 0.961 . S
H134 C119 0.961 . S
H135 C119 0.961 . S
H136 C120 0.931 . S
H137 C125 0.930 1_554 S
H138 C126 0.956 . S
H139 C126 0.961 . S
H140 C126 0.961 . S
H141 C127 0.958 . S
H142 C127 0.961 . S
H143 C127 0.960 . S
C144 C145 1.391 . S
C144 C146 1.394 . S
C144 H160 0.931 . S
C145 C144 1.391 . S
C145 C149 1.376 . S
C146 C144 1.394 . S
C146 C147 1.369 . S
C146 C150 1.531 . S
C147 C146 1.369 . S
C147 C148 1.410 . S
C147 C155 1.503 . S
C148 C147 1.410 . S
C148 C149 1.392 . S
C148 C151 1.511 . S
C149 C145 1.376 . S
C149 C148 1.392 . S
C149 H161 0.929 . S
C150 C146 1.531 . S
C150 H162 0.960 . S
C150 H163 0.962 . S
C150 H164 0.960 . S
C151 C148 1.511 . S
C151 H165 0.961 . S
C151 H166 0.961 . S
C151 H167 0.961 . S
C152 C153 1.370 . S
C152 C154 1.363 . S
C152 H168 0.931 . S
C153 C152 1.370 . S
C153 C157 1.408 . S
C154 C152 1.363 . S
C154 C155 1.370 . S
C154 C158 1.524 . S
C155 C147 1.503 . S
C155 C154 1.370 . S
C155 C156 1.403 . S
C156 C155 1.403 . S
C156 C157 1.404 . S
C156 C159 1.539 . S
C157 C153 1.408 . S
C157 C156 1.404 . S
C157 H169 0.930 . S
C158 C154 1.524 . S
C158 H170 0.956 . S
C158 H171 0.961 . S
C158 H172 0.961 . S
C159 C156 1.539 . S
C159 H173 0.958 . S
C159 H174 0.961 . S
C159 H175 0.960 . S
H160 C144 0.931 . S
H161 C149 0.929 . S
H162 C150 0.960 . S
H163 C150 0.962 . S
H164 C150 0.960 . S
H165 C151 0.961 . S
H166 C151 0.961 . S
H167 C151 0.961 . S
H168 C152 0.931 . S
H169 C157 0.930 . S
H170 C158 0.956 . S
H171 C158 0.961 . S
H172 C158 0.961 . S
H173 C159 0.958 . S
H174 C159 0.961 . S
H175 C159 0.960 . S
C176 C177 1.391 . S
C176 C178 1.394 . S
C176 H192 0.931 . S
C177 C176 1.391 . S
C177 C181 1.376 . S
C178 C176 1.394 . S
C178 C179 1.369 . S
C178 C182 1.531 . S
C179 C178 1.369 . S
C179 C180 1.410 . S
C179 C187 1.503 . S
C180 C179 1.410 . S
C180 C181 1.392 . S
C180 C183 1.511 . S
C181 C177 1.376 . S
C181 C180 1.392 . S
C181 H193 0.929 . S
C182 C178 1.531 . S
C182 H194 0.960 . S
C182 H195 0.962 . S
C182 H196 0.960 . S
C183 C180 1.511 . S
C183 H197 0.961 . S
C183 H198 0.961 . S
C183 H199 0.961 . S
C184 C185 1.370 . S
C184 C186 1.363 . S
C184 H200 0.931 . S
C185 C184 1.370 . S
C185 C189 1.408 . S
C186 C184 1.363 . S
C186 C187 1.370 . S
C186 C190 1.524 . S
C187 C179 1.503 . S
C187 C186 1.370 . S
C187 C188 1.403 . S
C188 C187 1.403 . S
C188 C189 1.404 . S
C188 C191 1.539 . S
C189 C185 1.408 . S
C189 C188 1.404 . S
C189 H201 0.930 . S
C190 C186 1.524 . S
C190 H202 0.956 . S
C190 H203 0.961 . S
C190 H204 0.961 . S
C191 C188 1.539 . S
C191 H205 0.958 . S
C191 H206 0.961 . S
C191 H207 0.960 . S
H192 C176 0.931 . S
H193 C181 0.929 . S
H194 C182 0.960 . S
H195 C182 0.962 . S
H196 C182 0.960 . S
H197 C183 0.961 . S
H198 C183 0.961 . S
H199 C183 0.961 . S
H200 C184 0.931 . S
H201 C189 0.930 . S
H202 C190 0.956 . S
H203 C190 0.961 . S
H204 C190 0.961 . S
H205 C191 0.958 . S
H206 C191 0.961 . S
H207 C191 0.960 . S
C208 C209 1.391 . S
C208 C210 1.394 . S
C208 H224 0.931 . S
C209 C208 1.391 . S
C209 C213 1.376 . S
C210 C208 1.394 . S
C210 C211 1.369 . S
C210 C214 1.531 . S
C211 C210 1.369 . S
C211 C212 1.410 . S
C211 C219 1.503 . S
C212 C211 1.410 . S
C212 C213 1.392 . S
C212 C215 1.511 . S
C213 C209 1.376 . S
C213 C212 1.392 . S
C213 H225 0.929 . S
C214 C210 1.531 . S
C214 H226 0.960 . S
C214 H227 0.962 . S
C214 H228 0.960 . S
C215 C212 1.511 . S
C215 H229 0.961 . S
C215 H230 0.961 . S
C215 H231 0.961 . S
C216 C217 1.370 . S
C216 C218 1.363 . S
C216 H232 0.931 . S
C217 C216 1.370 . S
C217 C221 1.408 . S
C218 C216 1.363 . S
C218 C219 1.370 . S
C218 C222 1.524 . S
C219 C211 1.503 . S
C219 C218 1.370 . S
C219 C220 1.403 . S
C220 C219 1.403 . S
C220 C221 1.404 . S
C220 C223 1.539 . S
C221 C217 1.408 . S
C221 C220 1.404 . S
C221 H233 0.930 . S
C222 C218 1.524 . S
C222 H234 0.956 . S
C222 H235 0.961 . S
C222 H236 0.961 . S
C223 C220 1.539 . S
C223 H237 0.958 . S
C223 H238 0.961 . S
C223 H239 0.960 . S
H224 C208 0.931 . S
H225 C213 0.929 . S
H226 C214 0.960 . S
H227 C214 0.962 . S
H228 C214 0.960 . S
H229 C215 0.961 . S
H230 C215 0.961 . S
H231 C215 0.961 . S
H232 C216 0.931 . S
H233 C221 0.930 . S
H234 C222 0.956 . S
H235 C222 0.961 . S
H236 C222 0.961 . S
H237 C223 0.958 . S
H238 C223 0.961 . S
H239 C223 0.960 . S
C240 C241 1.391 . S
C240 C242 1.394 . S
C240 H256 0.931 . S
C241 C240 1.391 . S
C241 C245 1.376 . S
C242 C240 1.394 . S
C242 C243 1.369 . S
C242 C246 1.531 . S
C243 C242 1.369 . S
C243 C244 1.410 . S
C243 C251 1.503 . S
C244 C243 1.410 . S
C244 C245 1.392 . S
C244 C247 1.511 . S
C245 C241 1.376 . S
C245 C244 1.392 . S
C245 H257 0.929 1_554 S
C246 C242 1.531 . S
C246 H258 0.960 . S
C246 H259 0.962 . S
C246 H260 0.960 . S
C247 C244 1.511 . S
C247 H261 0.961 . S
C247 H262 0.961 . S
C247 H263 0.961 . S
C248 C249 1.370 . S
C248 C250 1.363 . S
C248 H264 0.931 . S
C249 C248 1.370 . S
C249 C253 1.408 . S
C250 C248 1.363 . S
C250 C251 1.370 . S
C250 C254 1.524 . S
C251 C243 1.503 . S
C251 C250 1.370 . S
C251 C252 1.403 . S
C252 C251 1.403 . S
C252 C253 1.404 . S
C252 C255 1.539 . S
C253 C249 1.408 . S
C253 C252 1.404 . S
C253 H265 0.930 . S
C254 C250 1.524 . S
C254 H266 0.956 . S
C254 H267 0.961 . S
C254 H268 0.961 . S
C255 C252 1.539 . S
C255 H269 0.958 . S
C255 H270 0.961 . S
C255 H271 0.960 . S
H256 C240 0.931 . S
H257 C245 0.929 1_556 S
H258 C246 0.960 . S
H259 C246 0.962 . S
H260 C246 0.960 . S
H261 C247 0.961 . S
H262 C247 0.961 . S
H263 C247 0.961 . S
H264 C248 0.931 . S
H265 C253 0.930 . S
H266 C254 0.956 . S
H267 C254 0.961 . S
H268 C254 0.961 . S
H269 C255 0.958 . S
H270 C255 0.961 . S
H271 C255 0.960 . S
C272 C273 1.391 . S
C272 C274 1.394 . S
C272 H288 0.931 . S
C273 C272 1.391 . S
C273 C277 1.376 . S
C274 C272 1.394 . S
C274 C275 1.369 . S
C274 C278 1.531 . S
C275 C274 1.369 . S
C275 C276 1.410 . S
C275 C283 1.503 . S
C276 C275 1.410 . S
C276 C277 1.392 . S
C276 C279 1.511 . S
C277 C273 1.376 . S
C277 C276 1.392 . S
C277 H289 0.929 . S
C278 C274 1.531 . S
C278 H290 0.960 . S
C278 H291 0.962 . S
C278 H292 0.960 . S
C279 C276 1.511 . S
C279 H293 0.961 . S
C279 H294 0.961 . S
C279 H295 0.961 . S
C280 C281 1.370 . S
C280 C282 1.363 . S
C280 H296 0.931 . S
C281 C280 1.370 . S
C281 C285 1.408 . S
C282 C280 1.363 . S
C282 C283 1.370 . S
C282 C286 1.524 . S
C283 C275 1.503 . S
C283 C282 1.370 . S
C283 C284 1.403 . S
C284 C283 1.403 . S
C284 C285 1.404 . S
C284 C287 1.539 . S
C285 C281 1.408 . S
C285 C284 1.404 . S
C285 H297 0.930 . S
C286 C282 1.524 . S
C286 H298 0.956 . S
C286 H299 0.961 . S
C286 H300 0.961 . S
C287 C284 1.539 . S
C287 H301 0.958 . S
C287 H302 0.961 . S
C287 H303 0.960 . S
H288 C272 0.931 . S
H289 C277 0.929 . S
H290 C278 0.960 . S
H291 C278 0.962 . S
H292 C278 0.960 . S
H293 C279 0.961 . S
H294 C279 0.961 . S
H295 C279 0.961 . S
H296 C280 0.931 . S
H297 C285 0.930 . S
H298 C286 0.956 . S
H299 C286 0.961 . S
H300 C286 0.961 . S
H301 C287 0.958 . S
H302 C287 0.961 . S
H303 C287 0.960 . S
C304 C305 1.391 . S
C304 C306 1.394 . S
C304 H320 0.931 1_556 S
C305 C304 1.391 . S
C305 C309 1.376 . S
C306 C304 1.394 . S
C306 C307 1.369 . S
C306 C310 1.531 . S
C307 C306 1.369 . S
C307 C308 1.410 . S
C307 C315 1.503 . S
C308 C307 1.410 . S
C308 C309 1.392 . S
C308 C311 1.511 . S
C309 C305 1.376 . S
C309 C308 1.392 . S
C309 H321 0.929 . S
C310 C306 1.531 . S
C310 H322 0.960 . S
C310 H323 0.962 . S
C310 H324 0.960 . S
C311 C308 1.511 . S
C311 H325 0.961 . S
C311 H326 0.961 . S
C311 H327 0.961 . S
C312 C313 1.370 . S
C312 C314 1.363 . S
C312 H328 0.931 . S
C313 C312 1.370 . S
C313 C317 1.408 . S
C314 C312 1.363 . S
C314 C315 1.370 . S
C314 C318 1.524 . S
C315 C307 1.503 . S
C315 C314 1.370 . S
C315 C316 1.403 . S
C316 C315 1.403 . S
C316 C317 1.404 . S
C316 C319 1.539 . S
C317 C313 1.408 . S
C317 C316 1.404 . S
C317 H329 0.930 . S
C318 C314 1.524 . S
C318 H330 0.956 . S
C318 H331 0.961 . S
C318 H332 0.961 . S
C319 C316 1.539 . S
C319 H333 0.958 . S
C319 H334 0.961 . S
C319 H335 0.960 . S
H320 C304 0.931 1_554 S
H321 C309 0.929 . S
H322 C310 0.960 . S
H323 C310 0.962 . S
H324 C310 0.960 . S
H325 C311 0.961 . S
H326 C311 0.961 . S
H327 C311 0.961 . S
H328 C312 0.931 . S
H329 C317 0.930 . S
H330 C318 0.956 . S
H331 C318 0.961 . S
H332 C318 0.961 . S
H333 C319 0.958 . S
H334 C319 0.961 . S
H335 C319 0.960 . S
C336 C337 1.391 . S
C336 C338 1.394 . S
C336 H352 0.931 . S
C337 C336 1.391 . S
C337 C341 1.376 . S
C338 C336 1.394 . S
C338 C339 1.369 . S
C338 C342 1.531 . S
C339 C338 1.369 . S
C339 C340 1.410 . S
C339 C347 1.503 . S
C340 C339 1.410 . S
C340 C341 1.392 . S
C340 C343 1.511 . S
C341 C337 1.376 . S
C341 C340 1.392 . S
C341 H353 0.929 . S
C342 C338 1.531 . S
C342 H354 0.960 . S
C342 H355 0.962 . S
C342 H356 0.960 . S
C343 C340 1.511 . S
C343 H357 0.961 . S
C343 H358 0.961 . S
C343 H359 0.961 . S
C344 C345 1.370 . S
C344 C346 1.363 . S
C344 H360 0.931 . S
C345 C344 1.370 . S
C345 C349 1.408 . S
C346 C344 1.363 . S
C346 C347 1.370 . S
C346 C350 1.524 . S
C347 C339 1.503 . S
C347 C346 1.370 . S
C347 C348 1.403 . S
C348 C347 1.403 . S
C348 C349 1.404 . S
C348 C351 1.539 . S
C349 C345 1.408 . S
C349 C348 1.404 . S
C349 H361 0.930 . S
C350 C346 1.524 . S
C350 H362 0.956 . S
C350 H363 0.961 . S
C350 H364 0.961 . S
C351 C348 1.539 . S
C351 H365 0.958 . S
C351 H366 0.961 . S
C351 H367 0.960 . S
H352 C336 0.931 . S
H353 C341 0.929 . S
H354 C342 0.960 . S
H355 C342 0.962 . S
H356 C342 0.960 . S
H357 C343 0.961 . S
H358 C343 0.961 . S
H359 C343 0.961 . S
H360 C344 0.931 . S
H361 C349 0.930 . S
H362 C350 0.956 . S
H363 C350 0.961 . S
H364 C350 0.961 . S
H365 C351 0.958 . S
H366 C351 0.961 . S
H367 C351 0.960 . S
C368 C369 1.391 . S
C368 C370 1.394 . S
C368 H384 0.931 . S
C369 C368 1.391 . S
C369 C373 1.376 . S
C370 C368 1.394 . S
C370 C371 1.369 . S
C370 C374 1.531 . S
C371 C370 1.369 . S
C371 C372 1.410 . S
C371 C379 1.503 1_455 S
C372 C371 1.410 . S
C372 C373 1.392 . S
C372 C375 1.511 1_455 S
C373 C369 1.376 . S
C373 C372 1.392 . S
C373 H385 0.929 . S
C374 C370 1.531 . S
C374 H386 0.960 . S
C374 H387 0.962 . S
C374 H388 0.960 . S
C375 C372 1.511 1_655 S
C375 H389 0.962 . S
C375 H390 0.961 . S
C375 H391 0.961 . S
C376 C377 1.370 . S
C376 C378 1.363 . S
C376 H392 0.931 . S
C377 C376 1.370 . S
C377 C381 1.408 . S
C378 C376 1.363 . S
C378 C379 1.370 . S
C378 C382 1.524 . S
C379 C371 1.503 1_655 S
C379 C378 1.370 . S
C379 C380 1.403 . S
C380 C379 1.403 . S
C380 C381 1.404 . S
C380 C383 1.539 . S
C381 C377 1.408 . S
C381 C380 1.404 . S
C381 H393 0.930 . S
C382 C378 1.524 . S
C382 H394 0.956 1_655 S
C382 H395 0.960 . S
C382 H396 0.961 . S
C383 C380 1.539 . S
C383 H397 0.958 . S
C383 H398 0.961 . S
C383 H399 0.960 . S
H384 C368 0.931 . S
H385 C373 0.929 . S
H386 C374 0.960 . S
H387 C374 0.962 . S
H388 C374 0.960 . S
H389 C375 0.962 . S
H390 C375 0.961 . S
H391 C375 0.961 . S
H392 C376 0.931 . S
H393 C381 0.930 . S
H394 C382 0.956 1_455 S
H395 C382 0.960 . S
H396 C382 0.961 . S
H397 C383 0.958 . S
H398 C383 0.961 . S
H399 C383 0.960 . S
C400 C401 1.391 . S
C400 C402 1.394 . S
C400 H416 0.931 . S
C401 C400 1.391 . S
C401 C405 1.376 . S
C402 C400 1.394 . S
C402 C403 1.369 . S
C402 C406 1.531 . S
C403 C402 1.369 . S
C403 C404 1.410 . S
C403 C411 1.503 . S
C404 C403 1.410 . S
C404 C405 1.392 . S
C404 C407 1.511 . S
C405 C401 1.376 . S
C405 C404 1.392 . S
C405 H417 0.929 . S
C406 C402 1.531 . S
C406 H418 0.960 . S
C406 H419 0.962 . S
C406 H420 0.960 . S
C407 C404 1.511 . S
C407 H421 0.961 . S
C407 H422 0.961 . S
C407 H423 0.961 . S
C408 C409 1.370 . S
C408 C410 1.363 . S
C408 H424 0.931 . S
C409 C408 1.370 . S
C409 C413 1.408 . S
C410 C408 1.363 . S
C410 C411 1.370 . S
C410 C414 1.524 . S
C411 C403 1.503 . S
C411 C410 1.370 . S
C411 C412 1.403 . S
C412 C411 1.403 . S
C412 C413 1.404 . S
C412 C415 1.539 . S
C413 C409 1.408 . S
C413 C412 1.404 . S
C413 H425 0.930 . S
C414 C410 1.524 . S
C414 H426 0.956 . S
C414 H427 0.961 . S
C414 H428 0.961 . S
C415 C412 1.539 . S
C415 H429 0.958 . S
C415 H430 0.961 . S
C415 H431 0.960 . S
H416 C400 0.931 . S
H417 C405 0.929 . S
H418 C406 0.960 . S
H419 C406 0.962 . S
H420 C406 0.960 . S
H421 C407 0.961 . S
H422 C407 0.961 . S
H423 C407 0.961 . S
H424 C408 0.931 . S
H425 C413 0.930 . S
H426 C414 0.956 . S
H427 C414 0.961 . S
H428 C414 0.961 . S
H429 C415 0.958 . S
H430 C415 0.961 . S
H431 C415 0.960 . S
C432 C433 1.391 . S
C432 C434 1.394 . S
C432 H448 0.931 . S
C433 C432 1.391 . S
C433 C437 1.376 . S
C434 C432 1.394 . S
C434 C435 1.369 . S
C434 C438 1.531 . S
C435 C434 1.369 . S
C435 C436 1.410 . S
C435 C443 1.503 1_455 S
C436 C435 1.410 . S
C436 C437 1.392 . S
C436 C439 1.511 . S
C437 C433 1.376 . S
C437 C436 1.392 . S
C437 H449 0.929 . S
C438 C434 1.531 . S
C438 H450 0.960 1_455 S
C438 H451 0.962 . S
C438 H452 0.960 . S
C439 C436 1.511 . S
C439 H453 0.961 . S
C439 H454 0.961 1_455 S
C439 H455 0.961 1_455 S
C440 C441 1.370 . S
C440 C442 1.363 . S
C440 H456 0.931 . S
C441 C440 1.370 . S
C441 C445 1.408 . S
C442 C440 1.363 . S
C442 C443 1.370 . S
C442 C446 1.524 1_655 S
C443 C435 1.503 1_655 S
C443 C442 1.370 . S
C443 C444 1.403 . S
C444 C443 1.403 . S
C444 C445 1.404 . S
C444 C447 1.539 . S
C445 C441 1.408 . S
C445 C444 1.404 . S
C445 H457 0.930 . S
C446 C442 1.524 1_455 S
C446 H458 0.956 . S
C446 H459 0.961 . S
C446 H460 0.967 . S
C447 C444 1.539 . S
C447 H461 0.958 . S
C447 H462 0.961 . S
C447 H463 0.960 . S
H448 C432 0.931 . S
H449 C437 0.929 . S
H450 C438 0.960 1_655 S
H451 C438 0.962 . S
H452 C438 0.960 . S
H453 C439 0.961 . S
H454 C439 0.961 1_655 S
H455 C439 0.961 1_655 S
H456 C440 0.931 . S
H457 C445 0.930 . S
H458 C446 0.956 . S
H459 C446 0.961 . S
H460 C446 0.967 . S
H461 C447 0.958 . S
H462 C447 0.961 . S
H463 C447 0.960 . S
C464 C465 1.391 . S
C464 C466 1.394 . S
C464 H480 0.931 . S
C465 C464 1.391 . S
C465 C469 1.376 . S
C466 C464 1.394 . S
C466 C467 1.369 . S
C466 C470 1.531 . S
C467 C466 1.369 . S
C467 C468 1.410 . S
C467 C475 1.503 . S
C468 C467 1.410 . S
C468 C469 1.392 . S
C468 C471 1.511 . S
C469 C465 1.376 . S
C469 C468 1.392 . S
C469 H481 0.929 . S
C470 C466 1.531 . S
C470 H482 0.960 . S
C470 H483 0.962 . S
C470 H484 0.960 . S
C471 C468 1.511 . S
C471 H485 0.961 . S
C471 H486 0.961 . S
C471 H487 0.961 . S
C472 C473 1.370 . S
C472 C474 1.363 . S
C472 H488 0.931 . S
C473 C472 1.370 . S
C473 C477 1.408 . S
C474 C472 1.363 . S
C474 C475 1.370 . S
C474 C478 1.524 . S
C475 C467 1.503 . S
C475 C474 1.370 . S
C475 C476 1.403 . S
C476 C475 1.403 . S
C476 C477 1.404 . S
C476 C479 1.539 . S
C477 C473 1.408 . S
C477 C476 1.404 . S
C477 H489 0.930 . S
C478 C474 1.524 . S
C478 H490 0.956 . S
C478 H491 0.961 . S
C478 H492 0.961 . S
C479 C476 1.539 . S
C479 H493 0.958 . S
C479 H494 0.961 . S
C479 H495 0.960 . S
H480 C464 0.931 . S
H481 C469 0.929 . S
H482 C470 0.960 . S
H483 C470 0.962 . S
H484 C470 0.960 . S
H485 C471 0.961 . S
H486 C471 0.961 . S
H487 C471 0.961 . S
H488 C472 0.931 . S
H489 C477 0.930 . S
H490 C478 0.956 . S
H491 C478 0.961 . S
H492 C478 0.961 . S
H493 C479 0.958 . S
H494 C479 0.961 . S
H495 C479 0.960 . S
C496 C497 1.391 . S
C496 C498 1.394 . S
C496 H512 0.931 . S
C497 C496 1.391 . S
C497 C501 1.376 1_554 S
C498 C496 1.394 . S
C498 C499 1.369 1_554 S
C498 C502 1.531 1_455 S
C499 C498 1.369 1_556 S
C499 C500 1.410 . S
C499 C507 1.503 1_445 S
C500 C499 1.410 . S
C500 C501 1.392 . S
C500 C503 1.519 . S
C501 C497 1.376 1_556 S
C501 C500 1.392 . S
C501 H513 0.929 . S
C502 C498 1.531 1_655 S
C502 H514 0.960 . S
C502 H515 0.962 . S
C502 H516 0.960 . S
C503 C500 1.519 . S
C503 H517 0.959 1_545 S
C503 H518 0.950 1_545 S
C503 H519 0.966 . S
C504 C505 1.370 1_554 S
C504 C506 1.363 . S
C504 H520 0.931 . S
C505 C504 1.370 1_556 S
C505 C509 1.408 . S
C506 C504 1.363 . S
C506 C507 1.370 1_554 S
C506 C510 1.524 1_655 S
C507 C499 1.503 1_665 S
C507 C506 1.370 1_556 S
C507 C508 1.403 . S
C508 C507 1.403 . S
C508 C509 1.404 . S
C508 C511 1.539 1_565 S
C509 C505 1.408 . S
C509 C508 1.404 . S
C509 H521 0.930 . S
C510 C506 1.524 1_455 S
C510 H522 0.956 . S
C510 H523 0.961 . S
C510 H524 0.961 . S
C511 C508 1.539 1_545 S
C511 H525 0.958 . S
C511 H526 0.961 . S
C511 H527 0.960 . S
H512 C496 0.931 . S
H513 C501 0.929 . S
H514 C502 0.960 . S
H515 C502 0.962 . S
H516 C502 0.960 . S
H517 C503 0.959 1_565 S
H518 C503 0.950 1_565 S
H519 C503 0.966 . S
H520 C504 0.931 . S
H521 C509 0.930 . S
H522 C510 0.956 . S
H523 C510 0.961 . S
H524 C510 0.961 . S
H525 C511 0.958 . S
H526 C511 0.961 . S
H527 C511 0.960 . S
C528 C529 1.391 . S
C528 C530 1.394 . S
C528 H544 0.931 . S
C529 C528 1.391 . S
C529 C533 1.376 . S
C530 C528 1.394 . S
C530 C531 1.369 . S
C530 C534 1.531 . S
C531 C530 1.369 . S
C531 C532 1.410 . S
C531 C539 1.503 . S
C532 C531 1.410 . S
C532 C533 1.392 . S
C532 C535 1.511 . S
C533 C529 1.376 . S
C533 C532 1.392 . S
C533 H545 0.929 . S
C534 C530 1.531 . S
C534 H546 0.960 . S
C534 H547 0.962 . S
C534 H548 0.960 . S
C535 C532 1.511 . S
C535 H549 0.961 . S
C535 H550 0.961 . S
C535 H551 0.961 . S
C536 C537 1.370 . S
C536 C538 1.363 . S
C536 H552 0.931 . S
C537 C536 1.370 . S
C537 C541 1.408 . S
C538 C536 1.363 . S
C538 C539 1.370 . S
C538 C542 1.524 . S
C539 C531 1.503 . S
C539 C538 1.370 . S
C539 C540 1.403 . S
C540 C539 1.403 . S
C540 C541 1.404 . S
C540 C543 1.539 . S
C541 C537 1.408 . S
C541 C540 1.404 . S
C541 H553 0.930 . S
C542 C538 1.524 . S
C542 H554 0.956 . S
C542 H555 0.961 . S
C542 H556 0.961 . S
C543 C540 1.539 . S
C543 H557 0.958 . S
C543 H558 0.961 . S
C543 H559 0.960 . S
H544 C528 0.931 . S
H545 C533 0.929 . S
H546 C534 0.960 . S
H547 C534 0.962 . S
H548 C534 0.960 . S
H549 C535 0.961 . S
H550 C535 0.961 . S
H551 C535 0.961 . S
H552 C536 0.931 . S
H553 C541 0.930 . S
H554 C542 0.956 . S
H555 C542 0.961 . S
H556 C542 0.961 . S
H557 C543 0.958 . S
H558 C543 0.961 . S
H559 C543 0.960 . S
C560 C561 1.391 . S
C560 C562 1.394 . S
C560 H576 0.931 . S
C561 C560 1.391 . S
C561 C565 1.376 1_554 S
C562 C560 1.394 . S
C562 C563 1.369 . S
C562 C566 1.531 . S
C563 C562 1.369 . S
C563 C564 1.410 1_554 S
C563 C571 1.503 1_554 S
C564 C563 1.410 1_556 S
C564 C565 1.392 . S
C564 C567 1.511 . S
C565 C561 1.376 1_556 S
C565 C564 1.392 . S
C565 H577 0.929 . S
C566 C562 1.531 . S
C566 H578 0.960 . S
C566 H579 0.962 . S
C566 H580 0.960 . S
C567 C564 1.511 . S
C567 H581 0.961 . S
C567 H582 0.961 . S
C567 H583 0.961 . S
C568 C569 1.370 . S
C568 C570 1.363 . S
C568 H584 0.931 . S
C569 C568 1.370 . S
C569 C573 1.406 1_556 S
C570 C568 1.363 . S
C570 C571 1.371 . S
C570 C574 1.524 . S
C571 C563 1.503 1_556 S
C571 C570 1.371 . S
C571 C572 1.402 1_556 S
C572 C571 1.402 1_554 S
C572 C573 1.405 . S
C572 C575 1.539 . S
C573 C569 1.406 1_554 S
C573 C572 1.405 . S
C573 H585 0.931 . S
C574 C570 1.524 . S
C574 H586 0.956 1_556 S
C574 H587 0.961 . S
C574 H588 0.961 . S
C575 C572 1.539 . S
C575 H589 0.958 . S
C575 H590 0.961 1_554 S
C575 H591 0.960 1_554 S
H576 C560 0.931 . S
H577 C565 0.929 . S
H578 C566 0.960 . S
H579 C566 0.962 . S
H580 C566 0.960 . S
H581 C567 0.961 . S
H582 C567 0.961 . S
H583 C567 0.961 . S
H584 C568 0.931 . S
H585 C573 0.931 . S
H586 C574 0.956 1_554 S
H587 C574 0.961 . S
H588 C574 0.961 . S
H589 C575 0.958 . S
H590 C575 0.961 1_556 S
H591 C575 0.960 1_556 S
C592 C593 1.391 . S
C592 C594 1.394 . S
C592 H608 0.931 . S
C593 C592 1.391 . S
C593 C597 1.376 . S
C594 C592 1.394 . S
C594 C595 1.369 . S
C594 C598 1.531 . S
C595 C594 1.369 . S
C595 C596 1.410 . S
C595 C603 1.503 1_465 S
C596 C595 1.410 . S
C596 C597 1.392 . S
C596 C599 1.511 . S
C597 C593 1.376 . S
C597 C596 1.392 . S
C597 H609 0.929 . S
C598 C594 1.531 . S
C598 H610 0.960 1_455 S
C598 H611 0.962 . S
C598 H612 0.960 . S
C599 C596 1.511 . S
C599 H613 0.961 . S
C599 H614 0.961 1_465 S
C599 H615 0.961 1_455 S
C600 C601 1.370 . S
C600 C602 1.363 . S
C600 H616 0.931 . S
C601 C600 1.370 . S
C601 C605 1.408 . S
C602 C600 1.363 . S
C602 C603 1.370 . S
C602 C606 1.524 1_655 S
C603 C595 1.503 1_645 S
C603 C602 1.370 . S
C603 C604 1.403 . S
C604 C603 1.403 . S
C604 C605 1.404 . S
C604 C607 1.539 1_545 S
C605 C601 1.408 . S
C605 C604 1.404 . S
C605 H617 0.930 . S
C606 C602 1.524 1_455 S
C606 H618 0.956 . S
C606 H619 0.961 . S
C606 H620 0.961 . S
C607 C604 1.539 1_565 S
C607 H621 0.958 . S
C607 H622 0.961 . S
C607 H623 0.960 . S
H608 C592 0.931 . S
H609 C597 0.929 . S
H610 C598 0.960 1_655 S
H611 C598 0.962 . S
H612 C598 0.960 . S
H613 C599 0.961 . S
H614 C599 0.961 1_645 S
H615 C599 0.961 1_655 S
H616 C600 0.931 . S
H617 C605 0.930 . S
H618 C606 0.956 . S
H619 C606 0.961 . S
H620 C606 0.961 . S
H621 C607 0.958 . S
H622 C607 0.961 . S
H623 C607 0.960 . S
C113 C14 1.962 . S
C121 C13 2.030 1_556 S
C145 C0 1.969 . S
C153 C27 2.024 . S
C177 C42 1.980 . S
C185 C41 2.022 1_554 S
C209 C28 1.994 . S
C217 C55 2.021 . S
C241 C68 2.023 1_554 S
C249 C71 1.986 . S
C273 C82 2.017 . S
C281 C57 1.990 . S
C305 C96 2.023 1_556 S
C313 C99 1.977 . S
C337 C85 1.999 . S
C345 C110 2.022 . S
C369 C12 0.622 . S
C377 C54 0.637 . S
C401 C26 0.662 . S
C409 C40 0.619 . S
C433 C111 0.597 . S
C441 C69 0.647 . S
C465 C97 0.604 . S
C473 C83 0.640 . S
C497 C1 1.850 . S
C505 C56 1.819 . S
C529 C70 1.807 . S
C537 C15 1.836 . S
C561 C84 1.805 . S
C569 C29 1.836 . S
C593 C98 1.841 . S
C601 C43 1.824 . S
