# Generated by pormake.
# Topology uku, (4)-cn, num edge types: 1
# Building blocks:
#     Node 0, Type 0, BuildingBlock: QUQFOY_clean_sbu_3, # of connection points: 4
#     Node 1, Type 0, BuildingBlock: QUQFOY_clean_sbu_3, # of connection points: 4
#     Node 2, Type 0, BuildingBlock: QUQFOY_clean_sbu_3, # of connection points: 4
#     Node 3, Type 0, BuildingBlock: QUQFOY_clean_sbu_3, # of connection points: 4
#     Node 4, Type 0, BuildingBlock: QUQFOY_clean_sbu_3, # of connection points: 4
#     Node 5, Type 0, BuildingBlock: QUQFOY_clean_sbu_3, # of connection points: 4
#     Node 6, Type 0, BuildingBlock: QUQFOY_clean_sbu_3, # of connection points: 4
#     Node 7, Type 0, BuildingBlock: QUQFOY_clean_sbu_3, # of connection points: 4
#     Node 8, Type 0, BuildingBlock: QUQFOY_clean_sbu_3, # of connection points: 4
#     Node 9, Type 0, BuildingBlock: QUQFOY_clean_sbu_3, # of connection points: 4
#     Node 10, Type 0, BuildingBlock: QUQFOY_clean_sbu_3, # of connection points: 4
#     Node 11, Type 0, BuildingBlock: QUQFOY_clean_sbu_3, # of connection points: 4
#     Edge 12, Type (0, 0), BuildingBlock: EYOCIG_clean_linker_4, # of connection points: 2
#     Edge 13, Type (0, 0), BuildingBlock: EYOCIG_clean_linker_4, # of connection points: 2
#     Edge 14, Type (0, 0), BuildingBlock: EYOCIG_clean_linker_4, # of connection points: 2
#     Edge 15, Type (0, 0), BuildingBlock: EYOCIG_clean_linker_4, # of connection points: 2
#     Edge 16, Type (0, 0), BuildingBlock: EYOCIG_clean_linker_4, # of connection points: 2
#     Edge 17, Type (0, 0), BuildingBlock: EYOCIG_clean_linker_4, # of connection points: 2
#     Edge 18, Type (0, 0), BuildingBlock: EYOCIG_clean_linker_4, # of connection points: 2
#     Edge 19, Type (0, 0), BuildingBlock: EYOCIG_clean_linker_4, # of connection points: 2
#     Edge 20, Type (0, 0), BuildingBlock: EYOCIG_clean_linker_4, # of connection points: 2
#     Edge 21, Type (0, 0), BuildingBlock: EYOCIG_clean_linker_4, # of connection points: 2
#     Edge 22, Type (0, 0), BuildingBlock: EYOCIG_clean_linker_4, # of connection points: 2
#     Edge 23, Type (0, 0), BuildingBlock: EYOCIG_clean_linker_4, # of connection points: 2
#     Edge 24, Type (0, 0), BuildingBlock: EYOCIG_clean_linker_4, # of connection points: 2
#     Edge 25, Type (0, 0), BuildingBlock: EYOCIG_clean_linker_4, # of connection points: 2
#     Edge 26, Type (0, 0), BuildingBlock: EYOCIG_clean_linker_4, # of connection points: 2
#     Edge 27, Type (0, 0), BuildingBlock: EYOCIG_clean_linker_4, # of connection points: 2
#     Edge 28, Type (0, 0), BuildingBlock: EYOCIG_clean_linker_4, # of connection points: 2
#     Edge 29, Type (0, 0), BuildingBlock: EYOCIG_clean_linker_4, # of connection points: 2
#     Edge 30, Type (0, 0), BuildingBlock: EYOCIG_clean_linker_4, # of connection points: 2
#     Edge 31, Type (0, 0), BuildingBlock: EYOCIG_clean_linker_4, # of connection points: 2
#     Edge 32, Type (0, 0), BuildingBlock: EYOCIG_clean_linker_4, # of connection points: 2
#     Edge 33, Type (0, 0), BuildingBlock: EYOCIG_clean_linker_4, # of connection points: 2
#     Edge 34, Type (0, 0), BuildingBlock: EYOCIG_clean_linker_4, # of connection points: 2
#     Edge 35, Type (0, 0), BuildingBlock: EYOCIG_clean_linker_4, # of connection points: 2
# Relax obj value: 0.368
# Max RMSD: 0.260
# Mean RMSD: 0.260
data_MOF--net-uku--node1-QUQFOY_clean_sbu_3--edge1-EYOCIG_clean_linker_4
_symmetry_space_group_name_H-M    P1
_symmetry_Int_Tables_number       1
_symmetry_cell_setting            triclinic
loop_
_symmetry_equiv_pos_as_xyz
'x, y, z'
_cell_length_a     35.476188
_cell_length_b     35.438736
_cell_length_c     35.441479
_cell_angle_alpha  89.907498
_cell_angle_beta   89.988448
_cell_angle_gamma 90.008863
loop_
_atom_site_label
_atom_site_type_symbol
_atom_site_fract_x
_atom_site_fract_y
_atom_site_fract_z
_atom_type_partial_charge
C0 C 0.03443 0.18093 0.68236 0.0
O1 O 0.02862 0.15434 0.70562 0.0
Cd2 Cd 0.0277 0.08873 0.68774 0.0
O3 O 0.03736 0.17446 0.64729 0.0
Cd4 Cd 0.03096 0.11972 0.60467 0.0
C5 C 0.11123 0.0835 0.63768 0.0
O6 O -0.01428 0.07687 0.63663 0.0
O7 O 0.01846 0.05367 0.59058 0.0
O8 O -0.01487 0.15702 0.57067 0.0
C9 C -0.00677 0.04897 0.61542 0.0
O10 O 0.09123 0.07513 0.66627 0.0
C11 C 0.00307 0.15692 0.53979 0.0
O12 O 0.09794 0.10254 0.61023 0.0
O13 O 0.03444 0.13966 0.53872 0.0
C14 C 0.88689 0.74101 0.68195 0.0
O15 O 0.89274 0.76767 0.70503 0.0
Cd16 Cd 0.8935 0.83332 0.68704 0.0
O17 O 0.88363 0.74738 0.64686 0.0
Cd18 Cd 0.88913 0.80188 0.60364 0.0
C19 C 0.80942 0.83842 0.63776 0.0
O20 O 0.9345 0.84469 0.63507 0.0
O21 O 0.90171 0.86795 0.58905 0.0
O22 O 0.9345 0.76489 0.56885 0.0
C23 C 0.92687 0.87267 0.61394 0.0
O24 O 0.82975 0.84681 0.66608 0.0
C25 C 0.91573 0.76439 0.53847 0.0
O26 O 0.82234 0.81931 0.61024 0.0
O27 O 0.88414 0.78127 0.538 0.0
C28 C 0.03694 0.74166 0.24016 0.0
O29 O 0.03119 0.7681 0.21672 0.0
Cd30 Cd 0.02969 0.83379 0.23421 0.0
O31 O 0.03935 0.74827 0.27524 0.0
Cd32 Cd 0.03172 0.80289 0.3178 0.0
C33 C 0.11237 0.83925 0.28583 0.0
O34 O -0.01294 0.84537 0.28474 0.0
O35 O 0.01843 0.86889 0.33155 0.0
O36 O -0.01475 0.76486 0.35011 0.0
C37 C -0.00605 0.87342 0.30596 0.0
O38 O 0.09277 0.84735 0.2569 0.0
C39 C 0.00214 0.765 0.38157 0.0
O40 O 0.09876 0.82037 0.31325 0.0
O41 O 0.03322 0.78269 0.3838 0.0
C42 C 0.88403 0.18158 0.2402 0.0
O43 O 0.88982 0.1553 0.21667 0.0
Cd44 Cd 0.89136 0.08953 0.23398 0.0
O45 O 0.88159 0.17472 0.27525 0.0
Cd46 Cd 0.88913 0.11968 0.31747 0.0
C47 C 0.80853 0.08369 0.28525 0.0
O48 O 0.93408 0.0775 0.28442 0.0
O49 O 0.90235 0.05355 0.33087 0.0
O50 O 0.93502 0.15773 0.35055 0.0
C51 C 0.9271 0.04929 0.30549 0.0
O52 O 0.82819 0.0757 0.25634 0.0
C53 C 0.91787 0.1569 0.38188 0.0
O54 O 0.82212 0.10239 0.31272 0.0
O55 O 0.88699 0.13881 0.38363 0.0
C56 C 0.68146 0.03479 0.18064 0.0
O57 O 0.70442 0.0287 0.15392 0.0
Cd58 Cd 0.68593 0.02759 0.08845 0.0
O59 O 0.64639 0.03791 0.17443 0.0
Cd60 Cd 0.60301 0.03149 0.12033 0.0
C61 C 0.63627 0.1115 0.08336 0.0
O62 O 0.63436 -0.01405 0.07757 0.0
O63 O 0.58803 0.01845 0.05455 0.0
O64 O 0.5696 -0.01413 0.15843 0.0
C65 C 0.61289 -0.00672 0.0498 0.0
O66 O 0.66465 0.09129 0.0749 0.0
C67 C 0.53879 0.00389 0.1588 0.0
O68 O 0.60889 0.09842 0.10261 0.0
O69 O 0.53746 0.03523 0.14136 0.0
C70 C 0.23939 0.88792 0.18085 0.0
O71 O 0.21652 0.89389 0.15403 0.0
Cd72 Cd 0.23531 0.89405 0.08861 0.0
O73 O 0.27446 0.88451 0.17471 0.0
Cd74 Cd 0.31801 0.89008 0.12056 0.0
C75 C 0.28444 0.80978 0.08491 0.0
O76 O 0.2871 0.9353 0.07696 0.0
O77 O 0.33318 0.90211 0.05451 0.0
O78 O 0.35168 0.93597 0.15793 0.0
C79 C 0.30855 0.92744 0.04932 0.0
O80 O 0.2562 0.83004 0.07606 0.0
C81 C 0.38231 0.91766 0.1588 0.0
O82 O 0.31185 0.82296 0.10399 0.0
O83 O 0.38345 0.88607 0.14193 0.0
C84 C 0.68184 0.88796 0.74259 0.0
O85 O 0.70455 0.89399 0.76954 0.0
Cd86 Cd 0.68555 0.89404 0.83484 0.0
O87 O 0.64673 0.88458 0.74849 0.0
Cd88 Cd 0.60259 0.8903 0.80207 0.0
C89 C 0.63613 0.80975 0.83752 0.0
O90 O 0.63357 0.93506 0.84574 0.0
O91 O 0.5871 0.90223 0.86804 0.0
O92 O 0.56965 0.93636 0.76406 0.0
C93 C 0.61204 0.92724 0.87334 0.0
O94 O 0.66431 0.82995 0.84661 0.0
C95 C 0.53882 0.91839 0.76321 0.0
O96 O 0.60875 0.82307 0.81844 0.0
O97 O 0.53725 0.88691 0.78038 0.0
C98 C 0.23922 0.03455 0.74202 0.0
O99 O 0.21651 0.0288 0.76904 0.0
Cd100 Cd 0.23568 0.02846 0.8343 0.0
O101 O 0.27437 0.03765 0.74783 0.0
Cd102 Cd 0.31836 0.03188 0.80158 0.0
C103 C 0.28536 0.11248 0.83719 0.0
O104 O 0.28728 -0.01317 0.8452 0.0
O105 O 0.33378 0.01946 0.86755 0.0
O106 O 0.35179 -0.01384 0.76369 0.0
C107 C 0.30891 -0.00564 0.87276 0.0
O108 O 0.25707 0.09241 0.84635 0.0
C109 C 0.38248 0.0044 0.76291 0.0
O110 O 0.31258 0.09905 0.81802 0.0
O111 O 0.38374 0.03583 0.78006 0.0
C112 C 0.17952 0.68217 0.03608 0.0
O113 O 0.15282 0.7052 0.03018 0.0
Cd114 Cd 0.08749 0.68656 0.02976 0.0
O115 O 0.17328 0.64703 0.03903 0.0
Cd116 Cd 0.11898 0.60379 0.03239 0.0
C117 C 0.08414 0.63614 0.11339 0.0
O118 O 0.07555 0.63561 -0.01238 0.0
O119 O 0.05284 0.58936 0.02056 0.0
O120 O 0.15674 0.57087 -0.01385 0.0
C121 C 0.04784 0.6142 -0.00466 0.0
O122 O 0.07528 0.66472 0.09355 0.0
C123 C 0.15663 0.53965 0.00358 0.0
O124 O 0.10296 0.6088 0.09971 0.0
O125 O 0.13914 0.53791 0.03482 0.0
C126 C 0.18033 0.23988 0.88499 0.0
O127 O 0.15384 0.21658 0.89083 0.0
Cd128 Cd 0.08835 0.2346 0.89231 0.0
O129 O 0.17383 0.27499 0.88246 0.0
Cd130 Cd 0.11913 0.31758 0.88986 0.0
C131 C 0.08295 0.28561 0.80922 0.0
O132 O 0.07668 0.28504 0.93516 0.0
O133 O 0.05317 0.33147 0.90307 0.0
O134 O 0.15725 0.35071 0.93565 0.0
C135 C 0.04873 0.30637 0.92814 0.0
O136 O 0.07467 0.25679 0.82896 0.0
C137 C 0.15662 0.38197 0.91831 0.0
O138 O 0.10189 0.31294 0.82278 0.0
O139 O 0.13868 0.38365 0.88734 0.0
C140 C 0.74163 0.68176 0.88511 0.0
O141 O 0.7684 0.70465 0.89117 0.0
Cd142 Cd 0.83373 0.68594 0.89271 0.0
O143 O 0.74767 0.64658 0.88231 0.0
Cd144 Cd 0.80155 0.6029 0.8893 0.0
C145 C 0.83861 0.63569 0.80917 0.0
O146 O 0.84419 0.63452 0.93475 0.0
O147 O 0.86729 0.5879 0.90281 0.0
O148 O 0.76305 0.56949 0.93469 0.0
C149 C 0.87198 0.613 0.92774 0.0
O150 O 0.84715 0.66418 0.82919 0.0
C151 C 0.7629 0.53863 0.91673 0.0
O152 O 0.81931 0.60841 0.8224 0.0
O153 O 0.78064 0.53729 0.88562 0.0
C154 C 0.74147 0.2391 0.03506 0.0
O155 O 0.76842 0.21619 0.02992 0.0
Cd156 Cd 0.8337 0.23507 0.02997 0.0
O157 O 0.7474 0.27431 0.03769 0.0
Cd158 Cd 0.8013 0.3181 0.0317 0.0
C159 C 0.83612 0.2862 0.11312 0.0
O160 O 0.84511 0.28609 -0.01231 0.0
O161 O 0.8674 0.33309 0.01965 0.0
O162 O 0.76371 0.35087 -0.0149 0.0
C163 C 0.87272 0.30769 -0.00486 0.0
O164 O 0.84526 0.25756 0.0936 0.0
C165 C 0.76299 0.3819 0.00275 0.0
O166 O 0.81715 0.31332 0.09911 0.0
O167 O 0.78007 0.38366 0.0342 0.0
C168 C 0.95078 0.1815 0.44353 0.0
C169 C 0.93596 0.17035 0.41521 0.0
C170 C -0.02958 0.18141 0.47788 0.0
C171 C -0.01459 0.17019 0.50612 0.0
C172 C -0.03194 0.73976 0.44243 0.0
C173 C -0.01646 0.75126 0.41456 0.0
C174 C 0.94782 0.73967 0.47643 0.0
C175 C 0.93275 0.75109 0.50452 0.0
C176 C 0.44362 0.9505 0.18425 0.0
C177 C 0.41581 0.93519 0.17253 0.0
C178 C 0.47751 -0.0291 0.18426 0.0
C179 C 0.50536 -0.0138 0.17255 0.0
C180 C 0.47779 0.95151 0.73734 0.0
C181 C 0.50556 0.93621 0.74921 0.0
C182 C 0.44382 -0.02823 0.73727 0.0
C183 C 0.41593 -0.01311 0.74905 0.0
C184 C 0.18133 0.44366 0.9511 0.0
C185 C 0.17012 0.41534 0.93631 0.0
C186 C 0.18134 0.47808 -0.02942 0.0
C187 C 0.17012 0.50635 -0.01454 0.0
C188 C 0.73727 0.47706 0.94922 0.0
C189 C 0.74901 0.50513 0.93429 0.0
C190 C 0.73732 0.44295 -0.03066 0.0
C191 C 0.74906 0.4151 -0.01533 0.0
C192 C 0.17927 0.06012 0.65075 0.0
C193 C 0.15008 0.07266 0.63884 0.0
C194 C 0.20693 0.04805 0.67659 0.0
C195 C 0.22437 0.0421 0.70513 0.0
C196 C 0.71404 0.87429 0.67719 0.0
C197 C 0.69669 0.88029 0.70576 0.0
C198 C 0.74156 0.86206 0.65131 0.0
C199 C 0.77063 0.8494 0.63927 0.0
C200 C 0.2077 0.87469 0.24668 0.0
C201 C 0.22481 0.88049 0.21789 0.0
C202 C 0.18034 0.86272 0.27291 0.0
C203 C 0.15122 0.85016 0.28501 0.0
C204 C 0.71304 0.04845 0.24634 0.0
C205 C 0.69593 0.04246 0.21763 0.0
C206 C 0.74049 0.06041 0.27242 0.0
C207 C 0.76968 0.07286 0.2844 0.0
C208 C 0.64981 0.17957 0.06002 0.0
C209 C 0.6377 0.1504 0.07254 0.0
C210 C 0.67584 0.20714 0.0481 0.0
C211 C 0.70447 0.22448 0.04232 0.0
C212 C 0.24501 0.71393 0.05015 0.0
C213 C 0.21645 0.69663 0.04395 0.0
C214 C 0.27088 0.74154 0.06223 0.0
C215 C 0.28293 0.77079 0.07452 0.0
C216 C 0.67616 0.71367 0.87109 0.0
C217 C 0.70475 0.69639 0.87725 0.0
C218 C 0.65009 0.74127 0.85935 0.0
C219 C 0.63781 0.7706 0.84742 0.0
C220 C 0.27199 0.18098 0.8591 0.0
C221 C 0.284 0.15159 0.84713 0.0
C222 C 0.24605 0.20863 0.87091 0.0
C223 C 0.21741 0.22578 0.87712 0.0
C224 C 0.0508 0.67565 0.20938 0.0
C225 C 0.04469 0.70446 0.22628 0.0
C226 C 0.06245 0.64945 0.18192 0.0
C227 C 0.07429 0.63731 0.15253 0.0
C228 C 0.04795 0.24683 0.71353 0.0
C229 C 0.042 0.21807 0.69649 0.0
C230 C 0.05988 0.27287 0.74103 0.0
C231 C 0.07227 0.28478 0.77029 0.0
C232 C 0.86181 0.649 0.74105 0.0
C233 C 0.84934 0.63694 0.77025 0.0
C234 C 0.8737 0.67512 0.71352 0.0
C235 C 0.87949 0.70389 0.69634 0.0
C236 C 0.86979 0.24759 0.20943 0.0
C237 C 0.87608 0.21882 0.22642 0.0
C238 C 0.8579 0.27357 0.18178 0.0
C239 C 0.84594 0.28541 0.15228 0.0
C240 C -0.03431 -0.02001 0.6234 0.0
C241 C -0.02297 0.01213 0.62138 0.0
C242 C 0.95369 0.9418 0.62297 0.0
C243 C 0.94257 0.90964 0.62033 0.0
C244 C 0.95468 -0.01949 0.29634 0.0
C245 C 0.94332 0.01259 0.29883 0.0
C246 C -0.03322 0.94235 0.29647 0.0
C247 C -0.02198 0.91023 0.29917 0.0
C248 C 0.62039 0.95365 0.9427 0.0
C249 C 0.61798 0.94264 0.9105 0.0
C250 C 0.6207 -0.03435 -0.01912 0.0
C251 C 0.61872 -0.02293 0.01297 0.0
C252 C 0.30101 0.95479 -0.01989 0.0
C253 C 0.30301 0.94341 0.01227 0.0
C254 C 0.30109 -0.03296 0.94196 0.0
C255 C 0.30322 -0.02156 0.90982 0.0
C256 C 0.94079 0.62158 0.95546 0.0
C257 C 0.90878 0.61916 0.9439 0.0
C258 C -0.02116 0.62187 -0.03219 0.0
C259 C 0.01092 0.61988 -0.02076 0.0
C260 C -0.01989 0.29836 0.95646 0.0
C261 C 0.0121 0.30035 0.94477 0.0
C262 C 0.94201 0.29883 -0.03131 0.0
C263 C 0.90985 0.30148 -0.02024 0.0
loop_
_geom_bond_atom_site_label_1
_geom_bond_atom_site_label_2
_geom_bond_distance
_geom_bond_site_symmetry_2
_ccdc_geom_bond_type
C0 O1 1.306 . S
C0 O3 1.160 . S
O1 C0 1.306 . S
O1 Cd2 2.228 . S
Cd2 O1 2.228 . S
Cd2 O6 2.273 . S
Cd2 O10 2.277 . S
O3 C0 1.160 . S
O3 Cd4 2.203 . S
Cd4 O3 2.203 . S
Cd4 O6 2.411 . S
Cd4 O7 2.333 . S
Cd4 O8 2.352 . S
Cd4 O12 2.277 . S
Cd4 O13 2.356 . S
C5 O10 1.209 . S
C5 O12 1.226 . S
O6 Cd2 2.273 . S
O6 Cd4 2.411 . S
O6 C9 1.320 . S
O7 Cd4 2.333 . S
O7 C9 1.214 . S
O8 Cd4 2.352 . S
O8 C11 1.258 . S
C9 O6 1.320 . S
C9 O7 1.214 . S
O10 Cd2 2.277 . S
O10 C5 1.209 . S
C11 O8 1.258 . S
C11 O13 1.282 . S
O12 Cd4 2.277 . S
O12 C5 1.226 . S
O13 Cd4 2.356 . S
O13 C11 1.282 . S
C14 O15 1.306 . S
C14 O17 1.160 . S
O15 C14 1.306 . S
O15 Cd16 2.228 . S
Cd16 O15 2.228 . S
Cd16 O20 2.273 . S
Cd16 O24 2.277 . S
O17 C14 1.160 . S
O17 Cd18 2.203 . S
Cd18 O17 2.203 . S
Cd18 O20 2.411 . S
Cd18 O21 2.333 . S
Cd18 O22 2.352 . S
Cd18 O26 2.277 . S
Cd18 O27 2.356 . S
C19 O24 1.209 . S
C19 O26 1.226 . S
O20 Cd16 2.273 . S
O20 Cd18 2.411 . S
O20 C23 1.320 . S
O21 Cd18 2.333 . S
O21 C23 1.214 . S
O22 Cd18 2.352 . S
O22 C25 1.258 . S
C23 O20 1.320 . S
C23 O21 1.214 . S
O24 Cd16 2.277 . S
O24 C19 1.209 . S
C25 O22 1.258 . S
C25 O27 1.282 . S
O26 Cd18 2.277 . S
O26 C19 1.226 . S
O27 Cd18 2.356 . S
O27 C25 1.282 . S
C28 O29 1.306 . S
C28 O31 1.160 . S
O29 C28 1.306 . S
O29 Cd30 2.228 . S
Cd30 O29 2.228 . S
Cd30 O34 2.273 . S
Cd30 O38 2.277 . S
O31 C28 1.160 . S
O31 Cd32 2.203 . S
Cd32 O31 2.203 . S
Cd32 O34 2.411 . S
Cd32 O35 2.333 . S
Cd32 O36 2.352 . S
Cd32 O40 2.277 . S
Cd32 O41 2.356 . S
C33 O38 1.209 . S
C33 O40 1.226 . S
O34 Cd30 2.273 . S
O34 Cd32 2.411 . S
O34 C37 1.320 . S
O35 Cd32 2.333 . S
O35 C37 1.214 . S
O36 Cd32 2.352 . S
O36 C39 1.258 . S
C37 O34 1.320 . S
C37 O35 1.214 . S
O38 Cd30 2.277 . S
O38 C33 1.209 . S
C39 O36 1.258 . S
C39 O41 1.282 . S
O40 Cd32 2.277 . S
O40 C33 1.226 . S
O41 Cd32 2.356 . S
O41 C39 1.282 . S
C42 O43 1.306 . S
C42 O45 1.160 . S
O43 C42 1.306 . S
O43 Cd44 2.228 . S
Cd44 O43 2.228 . S
Cd44 O48 2.273 . S
Cd44 O52 2.277 . S
O45 C42 1.160 . S
O45 Cd46 2.203 . S
Cd46 O45 2.203 . S
Cd46 O48 2.411 . S
Cd46 O49 2.333 . S
Cd46 O50 2.352 . S
Cd46 O54 2.277 . S
Cd46 O55 2.356 . S
C47 O52 1.209 . S
C47 O54 1.226 . S
O48 Cd44 2.273 . S
O48 Cd46 2.411 . S
O48 C51 1.320 . S
O49 Cd46 2.333 . S
O49 C51 1.214 . S
O50 Cd46 2.352 . S
O50 C53 1.258 . S
C51 O48 1.320 . S
C51 O49 1.214 . S
O52 Cd44 2.277 . S
O52 C47 1.209 . S
C53 O50 1.258 . S
C53 O55 1.282 . S
O54 Cd46 2.277 . S
O54 C47 1.226 . S
O55 Cd46 2.356 . S
O55 C53 1.282 . S
C56 O57 1.306 . S
C56 O59 1.160 . S
O57 C56 1.306 . S
O57 Cd58 2.228 . S
Cd58 O57 2.228 . S
Cd58 O62 2.273 . S
Cd58 O66 2.277 . S
O59 C56 1.160 . S
O59 Cd60 2.203 . S
Cd60 O59 2.203 . S
Cd60 O62 2.411 . S
Cd60 O63 2.333 . S
Cd60 O64 2.352 . S
Cd60 O68 2.277 . S
Cd60 O69 2.356 . S
C61 O66 1.209 . S
C61 O68 1.226 . S
O62 Cd58 2.273 . S
O62 Cd60 2.411 . S
O62 C65 1.320 . S
O63 Cd60 2.333 . S
O63 C65 1.214 . S
O64 Cd60 2.352 . S
O64 C67 1.258 . S
C65 O62 1.320 . S
C65 O63 1.214 . S
O66 Cd58 2.277 . S
O66 C61 1.209 . S
C67 O64 1.258 . S
C67 O69 1.282 . S
O68 Cd60 2.277 . S
O68 C61 1.226 . S
O69 Cd60 2.356 . S
O69 C67 1.282 . S
C70 O71 1.306 . S
C70 O73 1.160 . S
O71 C70 1.306 . S
O71 Cd72 2.228 . S
Cd72 O71 2.228 . S
Cd72 O76 2.273 . S
Cd72 O80 2.277 . S
O73 C70 1.160 . S
O73 Cd74 2.203 . S
Cd74 O73 2.203 . S
Cd74 O76 2.411 . S
Cd74 O77 2.333 . S
Cd74 O78 2.352 . S
Cd74 O82 2.277 . S
Cd74 O83 2.356 . S
C75 O80 1.209 . S
C75 O82 1.226 . S
O76 Cd72 2.273 . S
O76 Cd74 2.411 . S
O76 C79 1.320 . S
O77 Cd74 2.333 . S
O77 C79 1.214 . S
O78 Cd74 2.352 . S
O78 C81 1.258 . S
C79 O76 1.320 . S
C79 O77 1.214 . S
O80 Cd72 2.277 . S
O80 C75 1.209 . S
C81 O78 1.258 . S
C81 O83 1.282 . S
O82 Cd74 2.277 . S
O82 C75 1.226 . S
O83 Cd74 2.356 . S
O83 C81 1.282 . S
C84 O85 1.306 . S
C84 O87 1.160 . S
O85 C84 1.306 . S
O85 Cd86 2.228 . S
Cd86 O85 2.228 . S
Cd86 O90 2.273 . S
Cd86 O94 2.277 . S
O87 C84 1.160 . S
O87 Cd88 2.203 . S
Cd88 O87 2.203 . S
Cd88 O90 2.411 . S
Cd88 O91 2.333 . S
Cd88 O92 2.352 . S
Cd88 O96 2.277 . S
Cd88 O97 2.356 . S
C89 O94 1.209 . S
C89 O96 1.226 . S
O90 Cd86 2.273 . S
O90 Cd88 2.411 . S
O90 C93 1.320 . S
O91 Cd88 2.333 . S
O91 C93 1.214 . S
O92 Cd88 2.352 . S
O92 C95 1.258 . S
C93 O90 1.320 . S
C93 O91 1.214 . S
O94 Cd86 2.277 . S
O94 C89 1.209 . S
C95 O92 1.258 . S
C95 O97 1.282 . S
O96 Cd88 2.277 . S
O96 C89 1.226 . S
O97 Cd88 2.356 . S
O97 C95 1.282 . S
C98 O99 1.306 . S
C98 O101 1.160 . S
O99 C98 1.306 . S
O99 Cd100 2.228 . S
Cd100 O99 2.228 . S
Cd100 O104 2.273 . S
Cd100 O108 2.277 . S
O101 C98 1.160 . S
O101 Cd102 2.203 . S
Cd102 O101 2.203 . S
Cd102 O104 2.411 . S
Cd102 O105 2.333 . S
Cd102 O106 2.352 . S
Cd102 O110 2.277 . S
Cd102 O111 2.356 . S
C103 O108 1.209 . S
C103 O110 1.226 . S
O104 Cd100 2.273 . S
O104 Cd102 2.411 . S
O104 C107 1.320 . S
O105 Cd102 2.333 . S
O105 C107 1.214 . S
O106 Cd102 2.352 . S
O106 C109 1.258 . S
C107 O104 1.320 . S
C107 O105 1.214 . S
O108 Cd100 2.277 . S
O108 C103 1.209 . S
C109 O106 1.258 . S
C109 O111 1.282 . S
O110 Cd102 2.277 . S
O110 C103 1.226 . S
O111 Cd102 2.356 . S
O111 C109 1.282 . S
C112 O113 1.306 . S
C112 O115 1.160 . S
O113 C112 1.306 . S
O113 Cd114 2.228 . S
Cd114 O113 2.228 . S
Cd114 O118 2.273 . S
Cd114 O122 2.277 . S
O115 C112 1.160 . S
O115 Cd116 2.203 . S
Cd116 O115 2.203 . S
Cd116 O118 2.411 . S
Cd116 O119 2.333 . S
Cd116 O120 2.352 . S
Cd116 O124 2.277 . S
Cd116 O125 2.356 . S
C117 O122 1.209 . S
C117 O124 1.226 . S
O118 Cd114 2.273 . S
O118 Cd116 2.411 . S
O118 C121 1.320 . S
O119 Cd116 2.333 . S
O119 C121 1.214 . S
O120 Cd116 2.352 . S
O120 C123 1.258 . S
C121 O118 1.320 . S
C121 O119 1.214 . S
O122 Cd114 2.277 . S
O122 C117 1.209 . S
C123 O120 1.258 . S
C123 O125 1.282 . S
O124 Cd116 2.277 . S
O124 C117 1.226 . S
O125 Cd116 2.356 . S
O125 C123 1.282 . S
C126 O127 1.306 . S
C126 O129 1.160 . S
O127 C126 1.306 . S
O127 Cd128 2.228 . S
Cd128 O127 2.228 . S
Cd128 O132 2.273 . S
Cd128 O136 2.277 . S
O129 C126 1.160 . S
O129 Cd130 2.203 . S
Cd130 O129 2.203 . S
Cd130 O132 2.411 . S
Cd130 O133 2.333 . S
Cd130 O134 2.352 . S
Cd130 O138 2.277 . S
Cd130 O139 2.356 . S
C131 O136 1.209 . S
C131 O138 1.226 . S
O132 Cd128 2.273 . S
O132 Cd130 2.411 . S
O132 C135 1.320 . S
O133 Cd130 2.333 . S
O133 C135 1.214 . S
O134 Cd130 2.352 . S
O134 C137 1.258 . S
C135 O132 1.320 . S
C135 O133 1.214 . S
O136 Cd128 2.277 . S
O136 C131 1.209 . S
C137 O134 1.258 . S
C137 O139 1.282 . S
O138 Cd130 2.277 . S
O138 C131 1.226 . S
O139 Cd130 2.356 . S
O139 C137 1.282 . S
C140 O141 1.306 . S
C140 O143 1.160 . S
O141 C140 1.306 . S
O141 Cd142 2.228 . S
Cd142 O141 2.228 . S
Cd142 O146 2.273 . S
Cd142 O150 2.277 . S
O143 C140 1.160 . S
O143 Cd144 2.203 . S
Cd144 O143 2.203 . S
Cd144 O146 2.411 . S
Cd144 O147 2.333 . S
Cd144 O148 2.352 . S
Cd144 O152 2.277 . S
Cd144 O153 2.356 . S
C145 O150 1.209 . S
C145 O152 1.226 . S
O146 Cd142 2.273 . S
O146 Cd144 2.411 . S
O146 C149 1.320 . S
O147 Cd144 2.333 . S
O147 C149 1.214 . S
O148 Cd144 2.352 . S
O148 C151 1.258 . S
C149 O146 1.320 . S
C149 O147 1.214 . S
O150 Cd142 2.277 . S
O150 C145 1.209 . S
C151 O148 1.258 . S
C151 O153 1.282 . S
O152 Cd144 2.277 . S
O152 C145 1.226 . S
O153 Cd144 2.356 . S
O153 C151 1.282 . S
C154 O155 1.306 . S
C154 O157 1.160 . S
O155 C154 1.306 . S
O155 Cd156 2.228 . S
Cd156 O155 2.228 . S
Cd156 O160 2.273 . S
Cd156 O164 2.277 . S
O157 C154 1.160 . S
O157 Cd158 2.203 . S
Cd158 O157 2.203 . S
Cd158 O160 2.411 . S
Cd158 O161 2.333 . S
Cd158 O162 2.352 . S
Cd158 O166 2.277 . S
Cd158 O167 2.356 . S
C159 O164 1.209 . S
C159 O166 1.226 . S
O160 Cd156 2.273 . S
O160 Cd158 2.411 . S
O160 C163 1.320 . S
O161 Cd158 2.333 . S
O161 C163 1.214 . S
O162 Cd158 2.352 . S
O162 C165 1.258 . S
C163 O160 1.320 . S
C163 O161 1.214 . S
O164 Cd156 2.277 . S
O164 C159 1.209 . S
C165 O162 1.258 . S
C165 O167 1.282 . S
O166 Cd158 2.277 . S
O166 C159 1.226 . S
O167 Cd158 2.356 . S
O167 C165 1.282 . S
C168 C169 1.170 . S
C168 C170 1.380 1_655 S
C169 C168 1.170 . S
C170 C168 1.380 1_455 S
C170 C171 1.170 . S
C171 C170 1.170 . S
C172 C173 1.170 . S
C172 C174 1.380 1_455 S
C173 C172 1.170 . S
C174 C172 1.380 1_655 S
C174 C175 1.170 . S
C175 C174 1.170 . S
C176 C177 1.170 . S
C176 C178 1.380 1_565 S
C177 C176 1.170 . S
C178 C176 1.380 1_545 S
C178 C179 1.170 . S
C179 C178 1.170 . S
C180 C181 1.170 . S
C180 C182 1.380 1_565 S
C181 C180 1.170 . S
C182 C180 1.380 1_545 S
C182 C183 1.170 . S
C183 C182 1.170 . S
C184 C185 1.170 . S
C184 C186 1.380 1_556 S
C185 C184 1.170 . S
C186 C184 1.380 1_554 S
C186 C187 1.170 . S
C187 C186 1.170 . S
C188 C189 1.170 . S
C188 C190 1.380 1_556 S
C189 C188 1.170 . S
C190 C188 1.380 1_554 S
C190 C191 1.170 . S
C191 C190 1.170 . S
C192 C193 1.170 . S
C192 C194 1.380 . S
C193 C192 1.170 . S
C194 C192 1.380 . S
C194 C195 1.170 . S
C195 C194 1.170 . S
C196 C197 1.170 . S
C196 C198 1.380 . S
C197 C196 1.170 . S
C198 C196 1.380 . S
C198 C199 1.170 . S
C199 C198 1.170 . S
C200 C201 1.170 . S
C200 C202 1.380 . S
C201 C200 1.170 . S
C202 C200 1.380 . S
C202 C203 1.170 . S
C203 C202 1.170 . S
C204 C205 1.170 . S
C204 C206 1.380 . S
C205 C204 1.170 . S
C206 C204 1.380 . S
C206 C207 1.170 . S
C207 C206 1.170 . S
C208 C209 1.170 . S
C208 C210 1.380 . S
C209 C208 1.170 . S
C210 C208 1.380 . S
C210 C211 1.170 . S
C211 C210 1.170 . S
C212 C213 1.170 . S
C212 C214 1.380 . S
C213 C212 1.170 . S
C214 C212 1.380 . S
C214 C215 1.170 . S
C215 C214 1.170 . S
C216 C217 1.170 . S
C216 C218 1.380 . S
C217 C216 1.170 . S
C218 C216 1.380 . S
C218 C219 1.170 . S
C219 C218 1.170 . S
C220 C221 1.170 . S
C220 C222 1.380 . S
C221 C220 1.170 . S
C222 C220 1.380 . S
C222 C223 1.170 . S
C223 C222 1.170 . S
C224 C225 1.170 . S
C224 C226 1.380 . S
C225 C224 1.170 . S
C226 C224 1.380 . S
C226 C227 1.170 . S
C227 C226 1.170 . S
C228 C229 1.170 . S
C228 C230 1.380 . S
C229 C228 1.170 . S
C230 C228 1.380 . S
C230 C231 1.170 . S
C231 C230 1.170 . S
C232 C233 1.170 . S
C232 C234 1.380 . S
C233 C232 1.170 . S
C234 C232 1.380 . S
C234 C235 1.170 . S
C235 C234 1.170 . S
C236 C237 1.170 . S
C236 C238 1.380 . S
C237 C236 1.170 . S
C238 C236 1.380 . S
C238 C239 1.170 . S
C239 C238 1.170 . S
C240 C241 1.170 . S
C240 C242 1.380 1_445 S
C241 C240 1.170 . S
C242 C240 1.380 1_665 S
C242 C243 1.170 . S
C243 C242 1.170 . S
C244 C245 1.170 . S
C244 C246 1.380 1_645 S
C245 C244 1.170 . S
C246 C244 1.380 1_465 S
C246 C247 1.170 . S
C247 C246 1.170 . S
C248 C249 1.170 . S
C248 C250 1.380 1_566 S
C249 C248 1.170 . S
C250 C248 1.380 1_544 S
C250 C251 1.170 . S
C251 C250 1.170 . S
C252 C253 1.170 . S
C252 C254 1.380 1_564 S
C253 C252 1.170 . S
C254 C252 1.380 1_546 S
C254 C255 1.170 . S
C255 C254 1.170 . S
C256 C257 1.170 . S
C256 C258 1.380 1_656 S
C257 C256 1.170 . S
C258 C256 1.380 1_454 S
C258 C259 1.170 . S
C259 C258 1.170 . S
C260 C261 1.170 . S
C260 C262 1.380 1_456 S
C261 C260 1.170 . S
C262 C260 1.380 1_654 S
C262 C263 1.170 . S
C263 C262 1.170 . S
C169 C53 1.121 . S
C171 C11 1.118 . S
C173 C39 1.132 . S
C175 C25 1.138 . S
C177 C81 1.160 . S
C179 C67 1.157 . S
C181 C95 1.155 . S
C183 C109 1.159 . S
C185 C137 1.117 . S
C187 C123 1.118 . S
C189 C151 1.158 . S
C191 C165 1.154 . S
C193 C5 1.123 . S
C195 C98 1.062 . S
C197 C84 1.039 . S
C199 C19 1.118 . S
C201 C70 1.094 . S
C203 C33 1.136 . S
C205 C56 1.099 . S
C207 C47 1.139 . S
C209 C61 1.128 . S
C211 C154 1.075 . S
C213 C112 1.035 . S
C215 C75 1.125 . S
C217 C140 1.030 . S
C219 C89 1.123 . S
C221 C103 1.143 . S
C223 C126 1.088 . S
C225 C28 1.059 . S
C227 C117 1.135 . S
C229 C0 1.099 . S
C231 C131 1.139 . S
C233 C145 1.142 . S
C235 C14 1.101 . S
C237 C42 1.084 . S
C239 C159 1.142 . S
C241 C9 1.294 . S
C243 C23 1.288 . S
C245 C51 1.304 . S
C247 C37 1.302 . S
C249 C93 1.286 . S
C251 C65 1.291 . S
C253 C79 1.283 . S
C255 C107 1.286 . S
C257 C149 1.284 . S
C259 C121 1.282 . S
C261 C135 1.298 . S
C263 C163 1.292 . S
