# Generated by pormake.
# Topology uoo, (4)-cn, num edge types: 1
# Building blocks:
#     Node 0, Type 0, BuildingBlock: CEKHIL_clean_sbu_0, # of connection points: 4
#     Node 1, Type 0, BuildingBlock: CEKHIL_clean_sbu_0, # of connection points: 4
#     Node 2, Type 0, BuildingBlock: CEKHIL_clean_sbu_0, # of connection points: 4
#     Node 3, Type 0, BuildingBlock: CEKHIL_clean_sbu_0, # of connection points: 4
#     Node 4, Type 0, BuildingBlock: CEKHIL_clean_sbu_0, # of connection points: 4
#     Node 5, Type 0, BuildingBlock: CEKHIL_clean_sbu_0, # of connection points: 4
#     Edge 6, Type (0, 0), BuildingBlock: EZIPEK_clean_linker_0, # of connection points: 2
#     Edge 7, Type (0, 0), BuildingBlock: EZIPEK_clean_linker_0, # of connection points: 2
#     Edge 8, Type (0, 0), BuildingBlock: EZIPEK_clean_linker_0, # of connection points: 2
#     Edge 9, Type (0, 0), BuildingBlock: EZIPEK_clean_linker_0, # of connection points: 2
#     Edge 10, Type (0, 0), BuildingBlock: EZIPEK_clean_linker_0, # of connection points: 2
#     Edge 11, Type (0, 0), BuildingBlock: EZIPEK_clean_linker_0, # of connection points: 2
#     Edge 12, Type (0, 0), BuildingBlock: EZIPEK_clean_linker_0, # of connection points: 2
#     Edge 13, Type (0, 0), BuildingBlock: EZIPEK_clean_linker_0, # of connection points: 2
#     Edge 14, Type (0, 0), BuildingBlock: EZIPEK_clean_linker_0, # of connection points: 2
#     Edge 15, Type (0, 0), BuildingBlock: EZIPEK_clean_linker_0, # of connection points: 2
#     Edge 16, Type (0, 0), BuildingBlock: EZIPEK_clean_linker_0, # of connection points: 2
#     Edge 17, Type (0, 0), BuildingBlock: EZIPEK_clean_linker_0, # of connection points: 2
# Relax obj value: 0.255
# Max RMSD: 0.173
# Mean RMSD: 0.173
data_MOF--net-uoo--node1-CEKHIL_clean_sbu_0--edge1-EZIPEK_clean_linker_0
_symmetry_space_group_name_H-M    P1
_symmetry_Int_Tables_number       1
_symmetry_cell_setting            triclinic
loop_
_symmetry_equiv_pos_as_xyz
'x, y, z'
_cell_length_a     17.873854
_cell_length_b     17.873244
_cell_length_c     27.633156
_cell_angle_alpha  89.957643
_cell_angle_beta   90.036475
_cell_angle_gamma 120.06725
loop_
_atom_site_label
_atom_site_type_symbol
_atom_site_fract_x
_atom_site_fract_y
_atom_site_fract_z
_atom_type_partial_charge
Co0 Co 0.15809 0.32203 0.994 0.0
O1 O 0.05605 0.32379 0.97231 0.0
O2 O 0.17611 0.43585 1.00036 0.0
C3 C 0.17222 0.24907 0.93196 0.0
O4 O 0.27663 0.35214 0.0179 0.0
Co5 Co 0.16631 0.15983 0.02242 0.0
O6 O 0.29238 0.23731 0.03168 0.0
C7 C 0.07987 0.2229 0.0876 0.0
C8 C 0.09876 0.40576 0.98337 0.0
C9 C 0.32275 0.31851 0.02944 0.0
O10 O 0.10659 0.29049 0.06087 0.0
O11 O 0.09361 0.16095 0.07745 0.0
O12 O 0.19792 0.33086 0.92789 0.0
O13 O 0.13082 0.21169 0.97138 0.0
Co14 Co 0.8191 0.18426 0.33218 0.0
O15 O 0.70643 0.08931 0.31544 0.0
O16 O 0.73226 0.2102 0.35274 0.0
C17 C 0.88332 0.19281 0.26084 0.0
O18 O 0.92039 0.2986 0.35237 0.0
Co19 Co 0.9874 0.17718 0.33748 0.0
O20 O 0.04799 0.30439 0.34726 0.0
C21 C 0.85397 0.08949 0.41206 0.0
C22 C 0.67689 0.13609 0.33441 0.0
C23 C 0.00311 0.34051 0.35418 0.0
O24 O 0.81432 0.12837 0.39669 0.0
O25 O 0.92036 0.09498 0.39114 0.0
O26 O 0.83464 0.22712 0.26607 0.0
O27 O 0.88666 0.14898 0.29726 0.0
Co28 Co 0.65886 0.80756 0.6525 0.0
O29 O 0.64865 0.69624 0.64036 0.0
O30 O 0.54525 0.71769 0.66998 0.0
C31 C 0.72399 0.86984 0.58132 0.0
O32 O 0.63743 0.90493 0.66748 0.0
Co33 Co 0.82858 0.98128 0.6613 0.0
O34 O 0.7551 0.03595 0.65953 0.0
C35 C 0.77483 0.85534 0.74093 0.0
C36 C 0.56982 0.66415 0.65623 0.0
C37 C 0.67427 0.98722 0.66611 0.0
O38 O 0.70159 0.80881 0.71989 0.0
O39 O 0.83721 0.92373 0.72219 0.0
O40 O 0.64055 0.81984 0.5844 0.0
O41 O 0.76537 0.8777 0.62118 0.0
Co42 Co 0.85056 0.66534 0.99026 0.0
O43 O 0.96628 0.69706 0.96899 0.0
O44 O 0.8687 0.56967 0.99889 0.0
C45 C 0.81312 0.71716 0.92428 0.0
O46 O 0.72627 0.6012 0.01249 0.0
Co47 Co 0.78678 0.78866 0.01472 0.0
O48 O 0.6686 0.68635 0.0198 0.0
C49 C 0.9025 0.77295 0.08308 0.0
C50 C 0.94423 0.61772 0.9799 0.0
C51 C 0.66185 0.61209 0.02044 0.0
O52 O 0.89258 0.70736 0.05844 0.0
O53 O 0.87317 0.82128 0.06862 0.0
O54 O 0.81193 0.64406 0.92372 0.0
O55 O 0.84574 0.76145 0.96368 0.0
Co56 Co 0.17449 0.87659 0.33359 0.0
O57 O 0.25221 0.99849 0.32084 0.0
O58 O 0.28955 0.90422 0.34753 0.0
C59 C 0.09558 0.84762 0.26463 0.0
O60 O 0.12378 0.75033 0.34948 0.0
Co61 Co 0.97776 0.78538 0.34731 0.0
O62 O 0.9807 0.67574 0.33993 0.0
C63 C 0.0934 0.89718 0.42472 0.0
C64 C 0.31259 0.98205 0.33406 0.0
C65 C 0.05275 0.67878 0.3463 0.0
O66 O 0.15844 0.90269 0.40191 0.0
O67 O 0.01606 0.8582 0.40811 0.0
O68 O 0.17076 0.85266 0.26473 0.0
O69 O 0.07266 0.86491 0.30564 0.0
Co70 Co 0.31149 0.15612 0.66721 0.0
O71 O 0.27451 0.24092 0.66027 0.0
O72 O 0.40888 0.26918 0.67365 0.0
C73 C 0.23775 0.0726 0.60335 0.0
O74 O 0.3828 0.09804 0.67288 0.0
Co75 Co 0.20174 0.96595 0.6909 0.0
O76 O 0.30867 0.95765 0.69128 0.0
C77 C 0.23489 0.09133 0.76752 0.0
C78 C 0.35612 0.2976 0.66635 0.0
C79 C 0.3791 0.02626 0.68183 0.0
O80 O 0.29038 0.15053 0.73931 0.0
O81 O 0.18591 0.01419 0.75282 0.0
O82 O 0.31091 0.14383 0.5974 0.0
O83 O 0.20774 0.05562 0.64717 0.0
C84 C 0.29393 0.1912 0.8392 0.0
C85 C 0.22431 0.11666 0.81783 0.0
C86 C 0.12365 0.12258 0.87575 0.0
C87 C 0.19143 0.202 0.89411 0.0
N88 N 0.34219 0.31392 0.89274 0.0
N89 N 0.08624 0.98889 0.83541 0.0
C90 C 0.27709 0.23663 0.87592 0.0
C91 C 0.14293 0.07509 0.84182 0.0
N92 N 0.37683 0.21366 0.82722 0.0
N93 N 0.03959 0.09494 0.88789 0.0
H94 H 0.1026 0.94769 0.81781 0.0
H95 H 0.02877 0.95509 0.85483 0.0
H96 H 0.02111 0.12882 0.91101 0.0
H97 H 0.98742 0.04334 0.87062 0.0
H98 H 0.43152 0.26267 0.84412 0.0
H99 H 0.39077 0.17578 0.80435 0.0
H100 H 0.40182 0.34917 0.87564 0.0
H101 H 0.33625 0.34513 0.923 0.0
C102 C -0.00097 0.28303 0.20056 0.0
C103 C 0.9307 0.20117 0.21534 0.0
C104 C 0.95128 0.13634 0.14207 0.0
C105 C 0.02849 0.21532 0.13166 0.0
N106 N 0.13516 0.35893 0.15826 0.0
N107 N 0.84573 0.04697 0.2023 0.0
C108 C 0.05479 0.2876 0.16272 0.0
C109 C 0.90866 0.12673 0.18701 0.0
N110 N 0.01097 0.35681 0.22224 0.0
N111 N 0.91501 0.07266 0.10786 0.0
H112 H 0.80788 0.03748 0.2329 0.0
H113 H 0.83467 0.98971 0.18606 0.0
H114 H 0.93963 0.07935 0.07296 0.0
H115 H 0.85476 0.01723 0.112 0.0
H116 H 0.05257 0.4181 0.20819 0.0
H117 H 0.97406 0.35697 0.25133 0.0
H118 H 0.15996 0.40973 0.18303 0.0
H119 H 0.18089 0.3632 0.13337 0.0
C120 C 0.74267 0.95315 0.45269 0.0
C121 C 0.82103 0.0334 0.4555 0.0
C122 C 0.84981 0.99441 0.53584 0.0
C123 C 0.76622 0.91903 0.53566 0.0
N124 N 0.65713 0.80853 0.48498 0.0
N125 N 0.94454 0.13612 0.50153 0.0
C126 C 0.71877 0.89331 0.49159 0.0
C127 C 0.87343 0.05544 0.49753 0.0
N128 N 0.69071 0.93395 0.41289 0.0
N129 N 0.91013 0.00382 0.56938 0.0
H130 H 0.96368 0.18266 0.47431 0.0
H131 H 0.97956 0.1598 0.53348 0.0
H132 H 0.90203 0.95424 0.59236 0.0
H133 H 0.97386 0.05449 0.56897 0.0
H134 H 0.62765 0.88208 0.41151 0.0
H135 H 0.70809 0.97312 0.38224 0.0
H136 H 0.6249 0.7835 0.45242 0.0
H137 H 0.64731 0.76035 0.50973 0.0
C138 C 0.80412 0.83733 0.87674 0.0
C139 C 0.79117 0.75141 0.87935 0.0
C140 C 0.77905 0.74179 0.79059 0.0
C141 C 0.78782 0.82457 0.78826 0.0
N142 N 0.79453 0.94667 0.82894 0.0
N143 N 0.72596 0.61264 0.83748 0.0
C144 C 0.79727 0.8716 0.83124 0.0
C145 C 0.76698 0.70082 0.83599 0.0
N146 N 0.82024 0.88602 0.91747 0.0
N147 N 0.78297 0.70189 0.74925 0.0
H148 H 0.70352 0.57705 0.86906 0.0
H149 H 0.70123 0.57407 0.80674 0.0
H150 H 0.7928 0.73022 0.71507 0.0
H151 H 0.78583 0.64503 0.74963 0.0
H152 H 0.84781 0.953 0.91696 0.0
H153 H 0.80157 0.8593 0.95165 0.0
H154 H 0.79043 0.97913 0.85918 0.0
H155 H 0.79022 0.97392 0.79643 0.0
C156 C 0.98132 0.85531 0.21191 0.0
C157 C 0.04145 0.82593 0.21963 0.0
C158 C 0.02175 0.78002 0.13516 0.0
C159 C 0.95047 0.7933 0.13015 0.0
N160 N 0.84839 0.82279 0.17162 0.0
N161 N 0.09124 0.7304 0.19018 0.0
C162 C 0.92567 0.82465 0.17086 0.0
C163 C 0.0534 0.77912 0.18183 0.0
N164 N 0.97979 0.91594 0.24127 0.0
N165 N 0.06334 0.77352 0.09557 0.0
H166 H 0.1047 0.71788 0.22488 0.0
H167 H 0.09655 0.69229 0.16331 0.0
H168 H 0.0485 0.78405 0.06067 0.0
H169 H 0.12028 0.77113 0.09861 0.0
H170 H 0.94081 0.9427 0.23401 0.0
H171 H 0.02493 0.94837 0.26842 0.0
H172 H 0.82591 0.83918 0.20237 0.0
H173 H 0.80239 0.79482 0.14427 0.0
C174 C 0.16675 0.93484 0.55418 0.0
C175 C 0.18572 0.02142 0.56106 0.0
C176 C 0.12693 0.02054 0.48058 0.0
C177 C 0.10998 0.93489 0.47373 0.0
N178 N 0.09092 0.80248 0.50741 0.0
N179 N 0.16243 0.13787 0.5369 0.0
C180 C 0.12215 0.88937 0.51187 0.0
C181 C 0.15901 0.06159 0.52607 0.0
N182 N 0.19601 0.89777 0.58651 0.0
N183 N 0.11538 0.06354 0.44302 0.0
H184 H 0.18383 0.16855 0.57029 0.0
H185 H 0.13657 0.16651 0.51485 0.0
H186 H 0.08855 0.0339 0.40999 0.0
H187 H 0.1361 0.12933 0.44364 0.0
H188 H 0.19389 0.83919 0.58072 0.0
H189 H 0.22859 0.92913 0.61773 0.0
H190 H 0.08994 0.76348 0.5357 0.0
H191 H 0.05825 0.76775 0.47657 0.0
C192 C 0.44175 0.44626 0.07174 0.0
C193 C 0.41586 0.37946 0.03681 0.0
C194 C 0.54815 0.46668 0.99146 0.0
C195 C 0.57619 0.53318 0.0267 0.0
N196 N 0.5589 0.57811 0.10622 0.0
N197 N 0.45783 0.31492 0.97354 0.0
C198 C 0.52576 0.52067 0.06877 0.0
C199 C 0.47398 0.38559 1.00039 0.0
N200 N 0.38518 0.43874 0.1072 0.0
N201 N 0.58847 0.48314 0.94764 0.0
H202 H 0.4039 0.25406 0.97888 0.0
H203 H 0.50249 0.31499 0.94927 0.0
H204 H 0.63833 0.54434 0.93841 0.0
H205 H 0.56556 0.43984 0.91876 0.0
H206 H 0.39535 0.48918 0.13015 0.0
H207 H 0.32617 0.38198 0.11239 0.0
H208 H 0.52837 0.56814 0.13961 0.0
H209 H 0.62056 0.63259 0.10535 0.0
C210 C 0.00573 0.46194 0.39851 0.0
C211 C 0.04388 0.43507 0.36272 0.0
C212 C 0.10993 0.57877 0.32534 0.0
C213 C 0.05542 0.5978 0.35432 0.0
N214 N 0.96179 0.56411 0.42375 0.0
N215 N 0.14448 0.47147 0.29655 0.0
C216 C 0.00685 0.54152 0.39278 0.0
C217 C 0.10147 0.49528 0.32826 0.0
N218 N 0.9696 0.41082 0.43831 0.0
N219 N 0.16965 0.63997 0.29492 0.0
H220 H 0.14721 0.41499 0.29993 0.0
H221 H 0.17646 0.50657 0.26582 0.0
H222 H 0.17507 0.69972 0.28853 0.0
H223 H 0.21874 0.63454 0.27808 0.0
H224 H 0.94584 0.42812 0.46801 0.0
H225 H 0.97101 0.35361 0.44342 0.0
H226 H 0.9165 0.52179 0.44853 0.0
H227 H 0.96801 0.6253 0.42407 0.0
C228 C 0.50663 0.02925 0.72107 0.0
C229 C 0.46044 0.02454 0.67836 0.0
C230 C 0.57699 0.03124 0.62848 0.0
C231 C 0.61644 0.02304 0.67099 0.0
N232 N 0.62233 0.01473 0.75763 0.0
N233 N 0.44843 0.0193 0.59126 0.0
C234 C 0.58285 0.02344 0.71736 0.0
C235 C 0.49528 0.0262 0.63191 0.0
N236 N 0.47834 0.04084 0.76489 0.0
N237 N 0.61769 0.04272 0.58492 0.0
H238 H 0.38857 0.01609 0.59236 0.0
H239 H 0.46565 0.01111 0.55654 0.0
H240 H 0.67754 0.04619 0.58175 0.0
H241 H 0.59649 0.05606 0.55271 0.0
H242 H 0.51362 0.05362 0.79681 0.0
H243 H 0.42172 0.0436 0.7689 0.0
H244 H 0.59586 0.00367 0.79221 0.0
H245 H 0.6811 0.01556 0.75593 0.0
C246 C 0.4125 0.43314 0.61819 0.0
C247 C 0.39148 0.39166 0.66394 0.0
C248 C 0.48818 0.52852 0.70443 0.0
C249 C 0.50909 0.5703 0.6587 0.0
N250 N 0.48015 0.56806 0.5733 0.0
N251 N 0.39272 0.3998 0.75073 0.0
C252 C 0.46773 0.5243 0.61589 0.0
C253 C 0.42397 0.4397 0.70717 0.0
N254 N 0.38294 0.3847 0.57695 0.0
N255 N 0.53244 0.57287 0.74482 0.0
H256 H 0.34484 0.33482 0.75334 0.0
H257 H 0.40793 0.43214 0.78374 0.0
H258 H 0.57998 0.63806 0.74415 0.0
H259 H 0.52697 0.54399 0.77835 0.0
H260 H 0.40464 0.40909 0.54238 0.0
H261 H 0.33905 0.31841 0.57748 0.0
H262 H 0.44497 0.53985 0.54193 0.0
H263 H 0.52169 0.63459 0.57009 0.0
C264 C 0.06826 0.59872 1.00056 0.0
C265 C -0.00127 0.57927 0.9695 0.0
C266 C 0.00792 0.45587 0.9384 0.0
C267 C 0.06231 0.4639 0.97807 0.0
N268 N 0.12492 0.53451 0.05477 0.0
N269 N 0.89963 0.48772 0.90794 0.0
C270 C 0.08783 0.53336 0.01131 0.0
C271 C 0.96757 0.50714 0.93804 0.0
N272 N 0.11589 0.67937 0.01953 0.0
N273 N -0.00188 0.40346 0.90008 0.0
H274 H 0.87308 0.52783 0.90435 0.0
H275 H 0.86772 0.43021 0.88839 0.0
H276 H 0.03178 0.37012 0.89687 0.0
H277 H 0.96449 0.4012 0.86879 0.0
H278 H 0.17113 0.69766 0.04035 0.0
H279 H 0.10686 0.72993 0.00823 0.0
H280 H 0.13884 0.582 0.08079 0.0
H281 H 0.13038 0.4826 0.06761 0.0
C282 C 0.53879 0.09248 0.3784 0.0
C283 C 0.58406 0.10809 0.33398 0.0
C284 C 0.45052 0.06307 0.28851 0.0
C285 C 0.40535 0.0461 0.33291 0.0
N286 N 0.40677 0.0649 0.41895 0.0
N287 N 0.58909 0.12975 0.24756 0.0
C288 C 0.45008 0.0682 0.37753 0.0
C289 C 0.54179 0.1002 0.28919 0.0
N290 N 0.57912 0.09583 0.42111 0.0
N291 N 0.4056 0.03923 0.24592 0.0
H292 H 0.65612 0.15722 0.24671 0.0
H293 H 0.56309 0.13378 0.2146 0.0
H294 H 0.33919 0.01569 0.24409 0.0
H295 H 0.43319 0.03908 0.21277 0.0
H296 H 0.54708 0.07617 0.45416 0.0
H297 H 0.64376 0.11195 0.42319 0.0
H298 H 0.43666 0.0868 0.45241 0.0
H299 H 0.34163 0.04769 0.41866 0.0
loop_
_geom_bond_atom_site_label_1
_geom_bond_atom_site_label_2
_geom_bond_distance
_geom_bond_site_symmetry_2
_ccdc_geom_bond_type
Co0 O1 2.216 . S
Co0 O2 2.091 . S
Co0 O4 2.004 1_556 S
Co0 O10 2.021 1_556 S
Co0 O12 2.137 . S
Co0 O13 2.244 . S
O1 Co0 2.216 . S
O1 C8 1.247 . S
O2 Co0 2.091 . S
O2 C8 1.261 . S
C3 O12 1.247 . S
C3 O13 1.272 . S
O4 Co0 2.004 1_554 S
O4 C9 1.259 . S
Co5 O6 2.061 . S
Co5 O11 2.052 . S
Co5 O13 2.135 1_554 S
O6 Co5 2.061 . S
O6 C9 1.235 . S
C7 O10 1.238 . S
C7 O11 1.241 . S
C8 O1 1.247 . S
C8 O2 1.261 . S
C9 O4 1.259 . S
C9 O6 1.235 . S
O10 Co0 2.021 1_554 S
O10 C7 1.238 . S
O11 Co5 2.052 . S
O11 C7 1.241 . S
O12 Co0 2.137 . S
O12 C3 1.247 . S
O13 Co0 2.244 . S
O13 C3 1.272 . S
O13 Co5 2.135 1_556 S
Co14 O15 2.216 . S
Co14 O16 2.091 . S
Co14 O18 2.004 . S
Co14 O24 2.021 . S
Co14 O26 2.137 . S
Co14 O27 2.244 . S
O15 Co14 2.216 . S
O15 C22 1.247 . S
O16 Co14 2.091 . S
O16 C22 1.261 . S
C17 O26 1.247 . S
C17 O27 1.272 . S
O18 Co14 2.004 . S
O18 C23 1.259 . S
Co19 O20 2.061 . S
Co19 O25 2.052 1_455 S
Co19 O27 2.135 1_455 S
O20 Co19 2.061 . S
O20 C23 1.235 1_455 S
C21 O24 1.238 . S
C21 O25 1.241 . S
C22 O15 1.247 . S
C22 O16 1.261 . S
C23 O18 1.259 . S
C23 O20 1.235 1_655 S
O24 Co14 2.021 . S
O24 C21 1.238 . S
O25 Co19 2.052 1_655 S
O25 C21 1.241 . S
O26 Co14 2.137 . S
O26 C17 1.247 . S
O27 Co14 2.244 . S
O27 C17 1.272 . S
O27 Co19 2.135 1_655 S
Co28 O29 2.216 . S
Co28 O30 2.091 . S
Co28 O32 2.004 . S
Co28 O38 2.021 . S
Co28 O40 2.137 . S
Co28 O41 2.244 . S
O29 Co28 2.216 . S
O29 C36 1.247 . S
O30 Co28 2.091 . S
O30 C36 1.261 . S
C31 O40 1.247 . S
C31 O41 1.272 . S
O32 Co28 2.004 . S
O32 C37 1.259 . S
Co33 O34 2.061 . S
Co33 O39 2.052 1_545 S
Co33 O41 2.135 1_545 S
O34 Co33 2.061 . S
O34 C37 1.235 1_545 S
C35 O38 1.238 . S
C35 O39 1.241 . S
C36 O29 1.247 . S
C36 O30 1.261 . S
C37 O32 1.259 . S
C37 O34 1.235 1_565 S
O38 Co28 2.021 . S
O38 C35 1.238 . S
O39 Co33 2.052 1_565 S
O39 C35 1.241 . S
O40 Co28 2.137 . S
O40 C31 1.247 . S
O41 Co28 2.244 . S
O41 C31 1.272 . S
O41 Co33 2.135 1_565 S
Co42 O43 2.216 . S
Co42 O44 2.091 . S
Co42 O46 2.004 1_556 S
Co42 O52 2.021 1_556 S
Co42 O54 2.137 . S
Co42 O55 2.244 . S
O43 Co42 2.216 . S
O43 C50 1.247 . S
O44 Co42 2.091 . S
O44 C50 1.261 . S
C45 O54 1.247 . S
C45 O55 1.272 . S
O46 Co42 2.004 1_554 S
O46 C51 1.259 . S
Co47 O48 2.061 . S
Co47 O53 2.052 . S
Co47 O55 2.135 1_554 S
O48 Co47 2.061 . S
O48 C51 1.235 . S
C49 O52 1.238 . S
C49 O53 1.241 . S
C50 O43 1.247 . S
C50 O44 1.261 . S
C51 O46 1.259 . S
C51 O48 1.235 . S
O52 Co42 2.021 1_554 S
O52 C49 1.238 . S
O53 Co47 2.052 . S
O53 C49 1.241 . S
O54 Co42 2.137 . S
O54 C45 1.247 . S
O55 Co42 2.244 . S
O55 C45 1.272 . S
O55 Co47 2.135 1_556 S
Co56 O57 2.216 . S
Co56 O58 2.091 . S
Co56 O60 2.004 . S
Co56 O66 2.021 . S
Co56 O68 2.137 . S
Co56 O69 2.244 . S
O57 Co56 2.216 . S
O57 C64 1.247 . S
O58 Co56 2.091 . S
O58 C64 1.261 . S
C59 O68 1.247 . S
C59 O69 1.272 . S
O60 Co56 2.004 . S
O60 C65 1.259 . S
Co61 O62 2.061 . S
Co61 O67 2.052 1_655 S
Co61 O69 2.135 1_655 S
O62 Co61 2.061 . S
O62 C65 1.235 1_655 S
C63 O66 1.238 . S
C63 O67 1.241 . S
C64 O57 1.247 . S
C64 O58 1.261 . S
C65 O60 1.259 . S
C65 O62 1.235 1_455 S
O66 Co56 2.021 . S
O66 C63 1.238 . S
O67 Co61 2.052 1_455 S
O67 C63 1.241 . S
O68 Co56 2.137 . S
O68 C59 1.247 . S
O69 Co56 2.244 . S
O69 C59 1.272 . S
O69 Co61 2.135 1_455 S
Co70 O71 2.216 . S
Co70 O72 2.091 . S
Co70 O74 2.004 . S
Co70 O80 2.021 . S
Co70 O82 2.137 . S
Co70 O83 2.244 . S
O71 Co70 2.216 . S
O71 C78 1.247 . S
O72 Co70 2.091 . S
O72 C78 1.261 . S
C73 O82 1.247 . S
C73 O83 1.272 . S
O74 Co70 2.004 . S
O74 C79 1.259 . S
Co75 O76 2.061 . S
Co75 O81 2.052 1_565 S
Co75 O83 2.135 1_565 S
O76 Co75 2.061 . S
O76 C79 1.235 1_565 S
C77 O80 1.238 . S
C77 O81 1.241 . S
C78 O71 1.247 . S
C78 O72 1.261 . S
C79 O74 1.259 . S
C79 O76 1.235 1_545 S
O80 Co70 2.021 . S
O80 C77 1.238 . S
O81 Co75 2.052 1_545 S
O81 C77 1.241 . S
O82 Co70 2.137 . S
O82 C73 1.247 . S
O83 Co70 2.244 . S
O83 C73 1.272 . S
O83 Co75 2.135 1_545 S
C84 C85 1.363 . S
C84 C90 1.379 . S
C84 N92 1.356 . S
C85 C84 1.363 . S
C85 C91 1.363 . S
C86 C87 1.363 . S
C86 C91 1.379 . S
C86 N93 1.356 . S
C87 C86 1.363 . S
C87 C90 1.363 . S
N88 C90 1.356 . S
N88 H100 0.984 . S
N88 H101 0.985 . S
N89 C91 1.356 . S
N89 H94 0.984 . S
N89 H95 0.985 1_545 S
C90 C84 1.379 . S
C90 C87 1.363 . S
C90 N88 1.356 . S
C91 C85 1.363 . S
C91 C86 1.379 . S
C91 N89 1.356 . S
N92 C84 1.356 . S
N92 H98 0.984 . S
N92 H99 0.984 . S
N93 C86 1.356 . S
N93 H96 0.984 . S
N93 H97 0.985 1_455 S
H94 N89 0.984 . S
H95 N89 0.985 1_565 S
H96 N93 0.984 . S
H97 N93 0.985 1_655 S
H98 N92 0.984 . S
H99 N92 0.984 . S
H100 N88 0.984 . S
H101 N88 0.985 . S
C102 C103 1.363 . S
C102 C108 1.379 1_655 S
C102 N110 1.356 . S
C103 C102 1.363 . S
C103 C109 1.363 . S
C104 C105 1.363 . S
C104 C109 1.379 1_455 S
C104 N111 1.356 . S
C105 C104 1.363 . S
C105 C108 1.363 . S
N106 C108 1.356 . S
N106 H118 0.984 . S
N106 H119 0.985 . S
N107 C109 1.356 . S
N107 H112 0.984 . S
N107 H113 0.985 1_545 S
C108 C102 1.379 1_455 S
C108 C105 1.363 . S
C108 N106 1.356 . S
C109 C103 1.363 . S
C109 C104 1.379 1_655 S
C109 N107 1.356 . S
N110 C102 1.356 . S
N110 H116 0.984 . S
N110 H117 0.984 . S
N111 C104 1.356 . S
N111 H114 0.984 . S
N111 H115 0.985 . S
H112 N107 0.984 . S
H113 N107 0.985 1_565 S
H114 N111 0.984 . S
H115 N111 0.985 . S
H116 N110 0.984 . S
H117 N110 0.984 . S
H118 N106 0.984 . S
H119 N106 0.985 . S
C120 C121 1.363 1_565 S
C120 C126 1.379 . S
C120 N128 1.356 . S
C121 C120 1.363 1_545 S
C121 C127 1.363 . S
C122 C123 1.363 1_545 S
C122 C127 1.379 . S
C122 N129 1.356 . S
C123 C122 1.363 1_565 S
C123 C126 1.363 . S
N124 C126 1.356 . S
N124 H136 0.984 . S
N124 H137 0.985 . S
N125 C127 1.356 . S
N125 H130 0.984 . S
N125 H131 0.985 1_655 S
C126 C120 1.379 . S
C126 C123 1.363 . S
C126 N124 1.356 . S
C127 C121 1.363 . S
C127 C122 1.379 . S
C127 N125 1.356 . S
N128 C120 1.356 . S
N128 H134 0.984 . S
N128 H135 0.984 1_565 S
N129 C122 1.356 . S
N129 H132 0.981 1_545 S
N129 H133 0.985 . S
H130 N125 0.984 . S
H131 N125 0.985 1_455 S
H132 N129 0.981 1_565 S
H133 N129 0.985 . S
H134 N128 0.984 . S
H135 N128 0.984 1_545 S
H136 N124 0.984 . S
H137 N124 0.985 . S
C138 C139 1.363 . S
C138 C144 1.379 . S
C138 N146 1.356 . S
C139 C138 1.363 . S
C139 C145 1.363 . S
C140 C141 1.363 . S
C140 C145 1.379 . S
C140 N147 1.356 . S
C141 C140 1.363 . S
C141 C144 1.363 . S
N142 C144 1.356 . S
N142 H154 0.984 1_565 S
N142 H155 0.985 . S
N143 C145 1.356 . S
N143 H148 0.984 . S
N143 H149 0.985 . S
C144 C138 1.379 . S
C144 C141 1.363 . S
C144 N142 1.356 . S
C145 C139 1.363 . S
C145 C140 1.379 . S
C145 N143 1.356 . S
N146 C138 1.356 . S
N146 H152 0.984 . S
N146 H153 0.984 . S
N147 C140 1.356 . S
N147 H150 0.984 . S
N147 H151 0.985 . S
H148 N143 0.984 . S
H149 N143 0.985 . S
H150 N147 0.984 . S
H151 N147 0.985 . S
H152 N146 0.984 . S
H153 N146 0.984 . S
H154 N142 0.984 1_545 S
H155 N142 0.985 . S
C156 C157 1.363 . S
C156 C162 1.379 1_455 S
C156 N164 1.356 . S
C157 C156 1.363 . S
C157 C163 1.363 . S
C158 C159 1.363 . S
C158 C163 1.379 1_655 S
C158 N165 1.356 . S
C159 C158 1.363 . S
C159 C162 1.363 . S
N160 C162 1.356 . S
N160 H172 0.984 . S
N160 H173 0.985 . S
N161 C163 1.356 . S
N161 H166 0.984 . S
N161 H167 0.985 . S
C162 C156 1.379 1_655 S
C162 C159 1.363 . S
C162 N160 1.356 . S
C163 C157 1.363 . S
C163 C158 1.379 1_455 S
C163 N161 1.356 . S
N164 C156 1.356 . S
N164 H170 0.984 1_565 S
N164 H171 0.984 . S
N165 C158 1.356 . S
N165 H168 0.984 . S
N165 H169 0.985 . S
H166 N161 0.984 . S
H167 N161 0.985 . S
H168 N165 0.984 . S
H169 N165 0.985 . S
H170 N164 0.984 1_545 S
H171 N164 0.984 . S
H172 N160 0.984 . S
H173 N160 0.985 . S
C174 C175 1.363 1_565 S
C174 C180 1.379 . S
C174 N182 1.356 . S
C175 C174 1.363 1_545 S
C175 C181 1.363 . S
C176 C177 1.363 1_545 S
C176 C181 1.379 . S
C176 N183 1.356 . S
C177 C176 1.363 1_565 S
C177 C180 1.363 . S
N178 C180 1.356 . S
N178 H190 0.984 . S
N178 H191 0.985 . S
N179 C181 1.356 . S
N179 H184 0.984 . S
N179 H185 0.985 . S
C180 C174 1.379 . S
C180 C177 1.363 . S
C180 N178 1.356 . S
C181 C175 1.363 . S
C181 C176 1.379 . S
C181 N179 1.356 . S
N182 C174 1.356 . S
N182 H188 0.984 . S
N182 H189 0.984 . S
N183 C176 1.356 . S
N183 H186 0.984 . S
N183 H187 0.985 . S
H184 N179 0.984 . S
H185 N179 0.985 . S
H186 N183 0.984 . S
H187 N183 0.985 . S
H188 N182 0.984 . S
H189 N182 0.984 . S
H190 N178 0.984 . S
H191 N178 0.985 . S
C192 C193 1.363 . S
C192 C198 1.379 . S
C192 N200 1.356 . S
C193 C192 1.363 . S
C193 C199 1.363 1_554 S
C194 C195 1.363 1_556 S
C194 C199 1.379 . S
C194 N201 1.356 . S
C195 C194 1.363 1_554 S
C195 C198 1.363 . S
N196 C198 1.356 . S
N196 H208 0.984 . S
N196 H209 0.985 . S
N197 C199 1.356 . S
N197 H202 0.984 . S
N197 H203 0.985 . S
C198 C192 1.379 . S
C198 C195 1.363 . S
C198 N196 1.356 . S
C199 C193 1.363 1_556 S
C199 C194 1.379 . S
C199 N197 1.356 . S
N200 C192 1.356 . S
N200 H206 0.984 . S
N200 H207 0.984 . S
N201 C194 1.356 . S
N201 H204 0.984 . S
N201 H205 0.985 . S
H202 N197 0.984 . S
H203 N197 0.985 . S
H204 N201 0.984 . S
H205 N201 0.985 . S
H206 N200 0.984 . S
H207 N200 0.984 . S
H208 N196 0.984 . S
H209 N196 0.985 . S
C210 C211 1.363 . S
C210 C216 1.379 . S
C210 N218 1.356 . S
C211 C210 1.363 . S
C211 C217 1.363 1_655 S
C212 C213 1.363 . S
C212 C217 1.379 . S
C212 N219 1.356 . S
C213 C212 1.363 . S
C213 C216 1.363 1_455 S
N214 C216 1.356 . S
N214 H226 0.984 . S
N214 H227 0.985 . S
N215 C217 1.356 . S
N215 H220 0.984 . S
N215 H221 0.985 . S
C216 C210 1.379 . S
C216 C213 1.363 1_655 S
C216 N214 1.356 . S
C217 C211 1.363 1_455 S
C217 C212 1.379 . S
C217 N215 1.356 . S
N218 C210 1.356 . S
N218 H224 0.984 . S
N218 H225 0.984 . S
N219 C212 1.356 . S
N219 H222 0.984 . S
N219 H223 0.985 . S
H220 N215 0.984 . S
H221 N215 0.985 . S
H222 N219 0.984 . S
H223 N219 0.985 . S
H224 N218 0.984 . S
H225 N218 0.984 . S
H226 N214 0.984 . S
H227 N214 0.985 . S
C228 C229 1.363 . S
C228 C234 1.379 . S
C228 N236 1.356 . S
C229 C228 1.363 . S
C229 C235 1.363 1_545 S
C230 C231 1.363 . S
C230 C235 1.379 . S
C230 N237 1.356 . S
C231 C230 1.363 . S
C231 C234 1.363 1_565 S
N232 C234 1.356 . S
N232 H244 0.984 . S
N232 H245 0.985 . S
N233 C235 1.356 . S
N233 H238 0.984 . S
N233 H239 0.985 . S
C234 C228 1.379 . S
C234 C231 1.363 1_545 S
C234 N232 1.356 . S
C235 C229 1.363 1_565 S
C235 C230 1.379 . S
C235 N233 1.356 . S
N236 C228 1.356 . S
N236 H242 0.984 . S
N236 H243 0.984 . S
N237 C230 1.356 . S
N237 H240 0.984 . S
N237 H241 0.985 . S
H238 N233 0.984 . S
H239 N233 0.985 . S
H240 N237 0.984 . S
H241 N237 0.985 . S
H242 N236 0.984 . S
H243 N236 0.984 . S
H244 N232 0.984 . S
H245 N232 0.985 . S
C246 C247 1.363 . S
C246 C252 1.379 . S
C246 N254 1.356 . S
C247 C246 1.363 . S
C247 C253 1.363 . S
C248 C249 1.363 . S
C248 C253 1.379 . S
C248 N255 1.356 . S
C249 C248 1.363 . S
C249 C252 1.363 . S
N250 C252 1.356 . S
N250 H262 0.984 . S
N250 H263 0.985 . S
N251 C253 1.356 . S
N251 H256 0.984 . S
N251 H257 0.985 . S
C252 C246 1.379 . S
C252 C249 1.363 . S
C252 N250 1.356 . S
C253 C247 1.363 . S
C253 C248 1.379 . S
C253 N251 1.356 . S
N254 C246 1.356 . S
N254 H260 0.984 . S
N254 H261 0.984 . S
N255 C248 1.356 . S
N255 H258 0.984 . S
N255 H259 0.985 . S
H256 N251 0.984 . S
H257 N251 0.985 . S
H258 N255 0.984 . S
H259 N255 0.985 . S
H260 N254 0.984 . S
H261 N254 0.984 . S
H262 N250 0.984 . S
H263 N250 0.985 . S
C264 C265 1.363 1_454 S
C264 C270 1.379 . S
C264 N272 1.356 . S
C265 C264 1.363 1_656 S
C265 C271 1.363 . S
C266 C267 1.363 1_655 S
C266 C271 1.379 . S
C266 N273 1.356 . S
C267 C266 1.363 1_455 S
C267 C270 1.363 1_556 S
N268 C270 1.356 . S
N268 H280 0.984 . S
N268 H281 0.985 . S
N269 C271 1.356 . S
N269 H274 0.984 . S
N269 H275 0.985 . S
C270 C264 1.379 . S
C270 C267 1.363 1_554 S
C270 N268 1.356 . S
C271 C265 1.363 . S
C271 C266 1.379 . S
C271 N269 1.356 . S
N272 C264 1.356 . S
N272 H278 0.984 . S
N272 H279 0.984 . S
N273 C266 1.356 . S
N273 H276 0.984 . S
N273 H277 0.985 . S
H274 N269 0.984 . S
H275 N269 0.985 . S
H276 N273 0.984 . S
H277 N273 0.985 . S
H278 N272 0.984 . S
H279 N272 0.984 . S
H280 N268 0.984 . S
H281 N268 0.985 . S
C282 C283 1.363 1_565 S
C282 C288 1.379 . S
C282 N290 1.356 . S
C283 C282 1.363 1_545 S
C283 C289 1.363 . S
C284 C285 1.363 1_545 S
C284 C289 1.379 . S
C284 N291 1.356 . S
C285 C284 1.363 1_565 S
C285 C288 1.363 . S
N286 C288 1.356 . S
N286 H298 0.984 . S
N286 H299 0.985 . S
N287 C289 1.356 . S
N287 H292 0.984 . S
N287 H293 0.985 . S
C288 C282 1.379 . S
C288 C285 1.363 . S
C288 N286 1.356 . S
C289 C283 1.363 . S
C289 C284 1.379 . S
C289 N287 1.356 . S
N290 C282 1.356 . S
N290 H296 0.984 . S
N290 H297 0.984 . S
N291 C284 1.356 . S
N291 H294 0.984 . S
N291 H295 0.985 . S
H292 N287 0.984 . S
H293 N287 0.985 . S
H294 N291 0.984 . S
H295 N291 0.985 . S
H296 N290 0.984 . S
H297 N290 0.984 . S
H298 N286 0.984 . S
H299 N286 0.985 . S
C85 C77 1.371 . S
C87 C3 1.353 . S
C103 C17 1.353 . S
C105 C7 1.371 . S
C121 C21 1.371 . S
C123 C31 1.353 . S
C139 C45 1.353 . S
C141 C35 1.371 . S
C157 C59 1.353 . S
C159 C49 1.371 . S
C175 C73 1.353 . S
C177 C63 1.371 . S
C193 C9 1.586 . S
C195 C51 1.586 . S
C211 C23 1.586 . S
C213 C65 1.586 . S
C229 C79 1.586 . S
C231 C37 1.586 . S
C247 C78 1.483 . S
C249 C36 1.483 . S
C265 C50 1.483 . S
C267 C8 1.483 . S
C283 C22 1.483 . S
C285 C64 1.483 . S
