# Generated by pormake.
# Topology mdf, (4)-cn, num edge types: 1
# Building blocks:
#     Node 0, Type 0, BuildingBlock: CEKHIL_clean_sbu_0, # of connection points: 4
#     Node 1, Type 0, BuildingBlock: CEKHIL_clean_sbu_0, # of connection points: 4
#     Node 2, Type 0, BuildingBlock: CEKHIL_clean_sbu_0, # of connection points: 4
#     Node 3, Type 0, BuildingBlock: CEKHIL_clean_sbu_0, # of connection points: 4
#     Node 4, Type 0, BuildingBlock: CEKHIL_clean_sbu_0, # of connection points: 4
#     Node 5, Type 0, BuildingBlock: CEKHIL_clean_sbu_0, # of connection points: 4
#     Node 6, Type 0, BuildingBlock: CEKHIL_clean_sbu_0, # of connection points: 4
#     Node 7, Type 0, BuildingBlock: CEKHIL_clean_sbu_0, # of connection points: 4
#     Edge 8, Type (0, 0), BuildingBlock: XIVTED_clean_linker_0, # of connection points: 2
#     Edge 9, Type (0, 0), BuildingBlock: XIVTED_clean_linker_0, # of connection points: 2
#     Edge 10, Type (0, 0), BuildingBlock: XIVTED_clean_linker_0, # of connection points: 2
#     Edge 11, Type (0, 0), BuildingBlock: XIVTED_clean_linker_0, # of connection points: 2
#     Edge 12, Type (0, 0), BuildingBlock: XIVTED_clean_linker_0, # of connection points: 2
#     Edge 13, Type (0, 0), BuildingBlock: XIVTED_clean_linker_0, # of connection points: 2
#     Edge 14, Type (0, 0), BuildingBlock: XIVTED_clean_linker_0, # of connection points: 2
#     Edge 15, Type (0, 0), BuildingBlock: XIVTED_clean_linker_0, # of connection points: 2
#     Edge 16, Type (0, 0), BuildingBlock: XIVTED_clean_linker_0, # of connection points: 2
#     Edge 17, Type (0, 0), BuildingBlock: XIVTED_clean_linker_0, # of connection points: 2
#     Edge 18, Type (0, 0), BuildingBlock: XIVTED_clean_linker_0, # of connection points: 2
#     Edge 19, Type (0, 0), BuildingBlock: XIVTED_clean_linker_0, # of connection points: 2
#     Edge 20, Type (0, 0), BuildingBlock: XIVTED_clean_linker_0, # of connection points: 2
#     Edge 21, Type (0, 0), BuildingBlock: XIVTED_clean_linker_0, # of connection points: 2
#     Edge 22, Type (0, 0), BuildingBlock: XIVTED_clean_linker_0, # of connection points: 2
#     Edge 23, Type (0, 0), BuildingBlock: XIVTED_clean_linker_0, # of connection points: 2
# Relax obj value: 0.019
# Max RMSD: 0.044
# Mean RMSD: 0.044
data_MOF--net-mdf--node1-CEKHIL_clean_sbu_0--edge1-XIVTED_clean_linker_0
_symmetry_space_group_name_H-M    P1
_symmetry_Int_Tables_number       1
_symmetry_cell_setting            triclinic
loop_
_symmetry_equiv_pos_as_xyz
'x, y, z'
_cell_length_a     38.243289
_cell_length_b     38.230926
_cell_length_c     11.39504
_cell_angle_alpha  89.962028
_cell_angle_beta   90.005668
_cell_angle_gamma 91.432632
loop_
_atom_site_label
_atom_site_type_symbol
_atom_site_fract_x
_atom_site_fract_y
_atom_site_fract_z
_atom_type_partial_charge
Co0 Co 0.25175 0.53497 0.38324 0.0
O1 O 0.21747 0.57079 0.39362 0.0
O2 O 0.23586 0.53994 0.5446 0.0
C3 C 0.28959 0.56576 0.27053 0.0
O4 O 0.28804 0.49666 0.40375 0.0
Co5 Co 0.26924 0.50355 0.13788 0.0
O6 O 0.30795 0.48177 0.22491 0.0
C7 C 0.20226 0.48565 0.25313 0.0
C8 C 0.21582 0.5644 0.50515 0.0
C9 C 0.30919 0.47996 0.33662 0.0
O10 O 0.21353 0.49918 0.34984 0.0
O11 O 0.21915 0.48785 0.1563 0.0
O12 O 0.28959 0.5704 0.38357 0.0
O13 O 0.26507 0.54547 0.23018 0.0
Co14 Co 0.46647 0.74924 0.61631 0.0
O15 O 0.43086 0.78376 0.60784 0.0
O16 O 0.46097 0.76541 0.45527 0.0
C17 C 0.43582 0.71146 0.72971 0.0
O18 O 0.50452 0.71274 0.59421 0.0
Co19 Co 0.49852 0.73144 0.86061 0.0
O20 O 0.5195 0.69249 0.77265 0.0
C21 C 0.51689 0.79821 0.74437 0.0
C22 C 0.43681 0.78556 0.49611 0.0
C23 C 0.52113 0.69136 0.66091 0.0
O24 O 0.5026 0.78721 0.64855 0.0
O25 O 0.51506 0.78126 0.84121 0.0
O26 O 0.43084 0.71161 0.61683 0.0
O27 O 0.45638 0.73583 0.76962 0.0
Co28 Co 0.25176 0.96836 0.87051 0.0
O29 O 0.28529 0.93179 0.87847 0.0
O30 O 0.26836 0.96278 0.03095 0.0
C31 C 0.21261 0.93861 0.75997 0.0
O32 O 0.21633 0.00737 0.89314 0.0
Co33 Co 0.23447 1.00048 0.62613 0.0
O34 O 0.19682 0.02343 0.7148 0.0
C35 C 0.302 0.01691 0.73927 0.0
C36 C 0.28766 0.93794 0.98995 0.0
C37 C 0.19564 0.02487 0.82658 0.0
O38 O 0.29061 0.00339 0.83587 0.0
O39 O 0.28489 0.01524 0.64278 0.0
O40 O 0.21322 0.93382 0.87292 0.0
O41 O 0.23744 0.95826 0.71801 0.0
Co42 Co 0.03414 0.75133 0.12622 0.0
O43 O 0.07052 0.71764 0.11612 0.0
O44 O 0.03895 0.73496 0.96539 0.0
C45 C 0.06442 0.79026 0.23605 0.0
O46 O 0.99524 0.78696 0.1055 0.0
Co47 Co 0.00295 0.76862 0.37183 0.0
O48 O 0.97987 0.80649 0.28439 0.0
C49 C 0.98583 0.7012 0.25894 0.0
C50 C 0.06386 0.71549 0.00488 0.0
C51 C 0.97807 0.80772 0.17268 0.0
O52 O 0.99909 0.71257 0.16191 0.0
O53 O 0.98787 0.71828 0.3554 0.0
O54 O 0.06882 0.78976 0.12293 0.0
O55 O 0.04482 0.76545 0.27846 0.0
Co56 Co 0.75109 0.03407 0.87675 0.0
O57 O 0.71627 0.06944 0.88379 0.0
O58 O 0.73436 0.03938 0.03701 0.0
C59 C 0.78902 0.0651 0.76519 0.0
O60 O 0.78779 0.99633 0.9009 0.0
Co61 Co 0.77047 0.00213 0.63397 0.0
O62 O 0.80942 0.98188 0.72398 0.0
C63 C 0.70326 0.9831 0.74635 0.0
C64 C 0.71423 0.06347 0.9955 0.0
C65 C 0.80987 0.98014 0.83576 0.0
O66 O 0.71353 0.99768 0.84258 0.0
O67 O 0.7208 0.98488 0.65074 0.0
O68 O 0.78841 0.06999 0.87807 0.0
O69 O 0.76503 0.04431 0.72401 0.0
Co70 Co 0.96842 0.25065 0.12496 0.0
O71 O 0.93276 0.28518 0.1178 0.0
O72 O 0.9633 0.26774 0.96496 0.0
C73 C 0.93748 0.21222 0.23495 0.0
O74 O 0.00654 0.21433 0.10095 0.0
Co75 Co 1.00002 0.23101 0.36814 0.0
O76 O 0.02101 0.19256 0.27776 0.0
C77 C 0.01828 0.29881 0.25838 0.0
C78 C 0.93896 0.28756 0.00631 0.0
C79 C 0.0229 0.19232 0.16601 0.0
O80 O 0.00437 0.28847 0.16111 0.0
O81 O 0.0163 0.28106 0.35358 0.0
O82 O 0.93281 0.21301 0.12196 0.0
O83 O 0.958 0.23627 0.27705 0.0
Co84 Co 0.75111 0.46694 0.37933 0.0
O85 O 0.78494 0.4307 0.3887 0.0
O86 O 0.76773 0.462 0.54008 0.0
C87 C 0.71225 0.43652 0.26959 0.0
O88 O 0.71534 0.50572 0.40015 0.0
Co89 Co 0.73375 0.49803 0.13344 0.0
O90 O 0.69564 0.52064 0.22091 0.0
C91 C 0.80103 0.51549 0.24667 0.0
C92 C 0.78728 0.43725 0.49993 0.0
C93 C 0.69441 0.5226 0.33259 0.0
O94 O 0.7897 0.50216 0.34363 0.0
O95 O 0.784 0.51339 0.15009 0.0
O96 O 0.71281 0.43209 0.3827 0.0
O97 O 0.73696 0.45623 0.2272 0.0
Co98 Co 0.53558 0.25203 0.62124 0.0
O99 O 0.57195 0.21835 0.61228 0.0
O100 O 0.54053 0.23531 0.46072 0.0
C101 C 0.56585 0.29109 0.73067 0.0
O102 O 0.49664 0.28759 0.59985 0.0
Co103 Co 0.50437 0.26949 0.86668 0.0
O104 O 0.4817 0.3075 0.77869 0.0
C105 C 0.48718 0.20203 0.75419 0.0
C106 C 0.56536 0.21588 0.50109 0.0
C107 C 0.4797 0.30856 0.66699 0.0
O108 O 0.50054 0.21332 0.65724 0.0
O109 O 0.48914 0.21917 0.85055 0.0
O110 O 0.57026 0.29049 0.61756 0.0
O111 O 0.54622 0.26633 0.77326 0.0
H112 H 0.44393 0.70617 0.9662 0.0
H113 H 0.29487 0.55777 0.03412 0.0
H114 H 0.38912 0.65863 0.67349 0.0
H115 H 0.34261 0.61225 0.32716 0.0
H116 H 0.33444 0.5892 0.90128 0.0
H117 H 0.41234 0.66675 0.09931 0.0
C118 C 0.42539 0.68724 0.92983 0.0
C119 C 0.41883 0.68583 0.80877 0.0
C120 C 0.33644 0.59416 0.99462 0.0
C121 C 0.38253 0.64075 0.96074 0.0
C122 C 0.31388 0.57621 0.07063 0.0
C123 C 0.31531 0.58271 0.1917 0.0
C124 C 0.36056 0.61886 0.03997 0.0
C125 C 0.34055 0.60666 0.23425 0.0
C126 C 0.40735 0.66476 0.00597 0.0
C127 C 0.39475 0.66069 0.76637 0.0
N128 N 0.36208 0.6241 0.15821 0.0
N129 N 0.37725 0.63924 0.84252 0.0
H130 H 0.39002 0.8338 0.56734 0.0
H131 H 0.33408 0.88936 0.91838 0.0
H132 H 0.43687 0.79187 0.25474 0.0
H133 H 0.29489 0.93858 0.23091 0.0
H134 H 0.37159 0.85349 0.03968 0.0
H135 H 0.35502 0.87204 0.4458 0.0
C136 C 0.39303 0.83265 0.47291 0.0
C137 C 0.41645 0.80946 0.4212 0.0
C138 C 0.35492 0.87218 0.08196 0.0
C139 C 0.37611 0.85338 0.28094 0.0
C140 C 0.33338 0.89271 0.01273 0.0
C141 C 0.31117 0.91705 0.06452 0.0
C142 C 0.35425 0.87573 0.20447 0.0
C143 C 0.31157 0.9202 0.18718 0.0
C144 C 0.373 0.8546 0.40352 0.0
C145 C 0.4192 0.80931 0.29841 0.0
N146 N 0.33265 0.89968 0.25298 0.0
N147 N 0.39917 0.83083 0.23246 0.0
H148 H 0.05694 0.79709 0.4724 0.0
H149 H 0.20599 0.94611 0.52341 0.0
H150 H 0.10983 0.84357 0.17385 0.0
H151 H 0.15914 0.89339 0.82168 0.0
H152 H 0.16535 0.91452 0.39432 0.0
H153 H 0.08847 0.83784 0.6011 0.0
C154 C 0.07504 0.81607 0.43383 0.0
C155 C 0.08114 0.81676 0.31248 0.0
C156 C 0.16377 0.91003 0.48803 0.0
C157 C 0.11738 0.86335 0.45932 0.0
C158 C 0.18694 0.92805 0.56183 0.0
C159 C 0.18613 0.92199 0.68322 0.0
C160 C 0.13968 0.88571 0.536 0.0
C161 C 0.16079 0.89858 0.72841 0.0
C162 C 0.09303 0.83932 0.50742 0.0
C163 C 0.1046 0.84203 0.2671 0.0
N164 N 0.1387 0.88103 0.65455 0.0
N165 N 0.12213 0.86419 0.3408 0.0
H166 H 0.06176 0.70862 0.76414 0.0
H167 H 0.21018 0.56326 0.74638 0.0
H168 H 0.1127 0.6688 0.07278 0.0
H169 H 0.16774 0.61186 0.43741 0.0
H170 H 0.17185 0.59886 0.86806 0.0
H171 H 0.09759 0.67046 0.64273 0.0
C172 C 0.08034 0.69179 0.80637 0.0
C173 C 0.08426 0.69201 0.92876 0.0
C174 C 0.1709 0.60166 0.77356 0.0
C175 C 0.12536 0.64824 0.79067 0.0
C176 C 0.19273 0.58127 0.70415 0.0
C177 C 0.19227 0.58462 0.58156 0.0
C178 C 0.14831 0.62543 0.71995 0.0
C179 C 0.16912 0.60846 0.5316 0.0
C180 C 0.10085 0.67004 0.73711 0.0
C181 C 0.10883 0.66963 0.97873 0.0
N182 N 0.14815 0.62789 0.60078 0.0
N183 N 0.12839 0.64873 0.90968 0.0
H184 H 0.79479 0.05794 0.5285 0.0
H185 H 0.94507 0.20555 0.47113 0.0
H186 H 0.84171 0.11156 0.82468 0.0
H187 H 0.89022 0.16026 0.17462 0.0
H188 H 0.91269 0.16592 0.60129 0.0
H189 H 0.8347 0.08983 0.39782 0.0
C190 C 0.81368 0.07628 0.56614 0.0
C191 C 0.81481 0.0824 0.68747 0.0
C192 C 0.90785 0.16447 0.50776 0.0
C193 C 0.86046 0.11902 0.53832 0.0
C194 C 0.92635 0.18706 0.43328 0.0
C195 C 0.92003 0.18634 0.31204 0.0
C196 C 0.8828 0.14103 0.46069 0.0
C197 C 0.89569 0.16176 0.26772 0.0
C198 C 0.83643 0.09449 0.49139 0.0
C199 C 0.83989 0.10626 0.73154 0.0
N200 N 0.87774 0.14017 0.34229 0.0
N201 N 0.86163 0.12391 0.65675 0.0
H202 H 0.89199 0.33561 0.07827 0.0
H203 H 0.83429 0.38919 0.42928 0.0
H204 H 0.93894 0.29407 0.76526 0.0
H205 H 0.79484 0.43868 0.74093 0.0
H206 H 0.87257 0.3543 0.5509 0.0
H207 H 0.85641 0.37343 0.95688 0.0
C208 C 0.89492 0.33448 0.98382 0.0
C209 C 0.9185 0.31149 0.93189 0.0
C210 C 0.85568 0.37284 0.59296 0.0
C211 C 0.8775 0.35487 0.7919 0.0
C212 C 0.8337 0.39281 0.52352 0.0
C213 C 0.81118 0.41693 0.57494 0.0
C214 C 0.85517 0.37672 0.71536 0.0
C215 C 0.81174 0.42045 0.69751 0.0
C216 C 0.87456 0.35618 0.91454 0.0
C217 C 0.92116 0.31136 0.80909 0.0
N218 N 0.83327 0.40045 0.76357 0.0
N219 N 0.90079 0.33258 0.7433 0.0
H220 H 0.65808 0.39226 0.33253 0.0
H221 H 0.6104 0.34502 0.6676 0.0
H222 H 0.70643 0.44268 0.03252 0.0
H223 H 0.55964 0.29706 0.96765 0.0
H224 H 0.64192 0.38516 0.79974 0.0
H225 H 0.61771 0.36106 0.20035 0.0
C226 C 0.65999 0.39695 0.23896 0.0
C227 C 0.68581 0.41972 0.19313 0.0
C228 C 0.62366 0.36603 0.83657 0.0
C229 C 0.64 0.38417 0.04165 0.0
C230 C 0.6057 0.34316 0.76116 0.0
C231 C 0.58275 0.3175 0.80702 0.0
C232 C 0.61866 0.36303 0.95845 0.0
C233 C 0.57739 0.31628 0.92875 0.0
C234 C 0.63698 0.37918 0.16353 0.0
C235 C 0.68707 0.42507 0.07139 0.0
N236 N 0.59545 0.33853 0.00038 0.0
N237 N 0.66468 0.40719 0.99974 0.0
H238 H 0.66546 0.10969 0.92345 0.0
H239 H 0.61399 0.16945 0.57199 0.0
H240 H 0.70865 0.0643 0.23676 0.0
H241 H 0.56327 0.2076 0.26048 0.0
H242 H 0.64868 0.13095 0.45069 0.0
H243 H 0.62787 0.14545 0.04481 0.0
C244 C 0.667 0.10714 0.01797 0.0
C245 C 0.69039 0.08395 0.06999 0.0
C246 C 0.62992 0.1476 0.4086 0.0
C247 C 0.64729 0.12517 0.20993 0.0
C248 C 0.61007 0.16971 0.47785 0.0
C249 C 0.58566 0.19192 0.42636 0.0
C250 C 0.62562 0.14767 0.28635 0.0
C251 C 0.58175 0.19095 0.30395 0.0
C252 C 0.64544 0.12761 0.08724 0.0
C253 C 0.69104 0.08177 0.19287 0.0
N254 N 0.60162 0.16929 0.23808 0.0
N255 N 0.66994 0.10224 0.25864 0.0
H256 H 0.32142 0.4652 0.57041 0.0
H257 H 0.46748 0.32324 0.43301 0.0
H258 H 0.35734 0.44074 0.22127 0.0
H259 H 0.43746 0.35389 0.78287 0.0
H260 H 0.42712 0.36607 0.3533 0.0
H261 H 0.36384 0.42447 0.65018 0.0
C262 C 0.33821 0.45143 0.51049 0.0
C263 C 0.33555 0.45647 0.38878 0.0
C264 C 0.42947 0.36341 0.44756 0.0
C265 C 0.38417 0.4096 0.47954 0.0
C266 C 0.45252 0.33891 0.4931 0.0
C267 C 0.45598 0.33473 0.61495 0.0
C268 C 0.40958 0.38384 0.52429 0.0
C269 C 0.43582 0.35598 0.68832 0.0
C270 C 0.36245 0.42813 0.55608 0.0
C271 C 0.35818 0.43778 0.31568 0.0
N272 N 0.41353 0.37942 0.64196 0.0
N273 N 0.38134 0.41519 0.36205 0.0
H274 H 0.6625 0.96368 0.93494 0.0
H275 H 0.53939 0.83591 0.55247 0.0
H276 H 0.6692 0.95389 0.55787 0.0
H277 H 0.54298 0.83525 0.93145 0.0
H278 H 0.57985 0.88637 0.55184 0.0
H279 H 0.61162 0.92378 0.93358 0.0
C280 C 0.65314 0.95343 0.85178 0.0
C281 C 0.67052 0.96174 0.74656 0.0
C282 C 0.57151 0.87533 0.6351 0.0
C283 C 0.61236 0.91609 0.74453 0.0
C284 C 0.54836 0.84656 0.63555 0.0
C285 C 0.53822 0.83095 0.74213 0.0
C286 C 0.58449 0.8886 0.74192 0.0
C287 C 0.55053 0.84605 0.84709 0.0
C288 C 0.62411 0.93061 0.85111 0.0
C289 C 0.65699 0.94783 0.64138 0.0
N290 N 0.57324 0.87386 0.84428 0.0
N291 N 0.62889 0.92549 0.64318 0.0
H292 H 0.04111 0.18476 0.93269 0.0
H293 H 0.17757 0.03267 0.05994 0.0
H294 H 0.05844 0.14025 0.27567 0.0
H295 H 0.15382 0.07117 0.71326 0.0
H296 H 0.13424 0.07221 0.14116 0.0
H297 H 0.08231 0.14326 0.85027 0.0
C298 C 0.05336 0.16623 0.99063 0.0
C299 C 0.04628 0.16628 0.11154 0.0
C300 C 0.13853 0.07192 0.04725 0.0
C301 C 0.09371 0.11872 0.0178 0.0
C302 C 0.16335 0.04937 0.00088 0.0
C303 C 0.16952 0.04845 0.87948 0.0
C304 C 0.11984 0.0939 0.97187 0.0
C305 C 0.15007 0.07075 0.8074 0.0
C306 C 0.07696 0.14255 0.94356 0.0
C307 C 0.0631 0.14152 0.18207 0.0
N308 N 0.12629 0.09251 0.85459 0.0
N309 N 0.08602 0.11895 0.13436 0.0
H310 H 0.96141 0.66383 0.44812 0.0
H311 H 0.83852 0.53985 0.05772 0.0
H312 H 0.96358 0.66251 0.06908 0.0
H313 H 0.83935 0.53817 0.4368 0.0
H314 H 0.88945 0.57938 0.06034 0.0
H315 H 0.92212 0.61272 0.4457 0.0
C316 C 0.95383 0.65267 0.36426 0.0
C317 C 0.96534 0.66791 0.2585 0.0
C318 C 0.87871 0.57013 0.14297 0.0
C319 C 0.92018 0.60936 0.25533 0.0
C320 C 0.84954 0.54759 0.14163 0.0
C321 C 0.83422 0.53614 0.24732 0.0
C322 C 0.89255 0.58159 0.25074 0.0
C323 C 0.85004 0.5466 0.35318 0.0
C324 C 0.93143 0.62339 0.36305 0.0
C325 C 0.9551 0.6519 0.15274 0.0
N326 N 0.87809 0.5691 0.35219 0.0
N327 N 0.93273 0.62374 0.15384 0.0
H328 H 0.33975 0.04121 0.55085 0.0
H329 H 0.46237 0.16478 0.94316 0.0
H330 H 0.34038 0.03907 0.9299 0.0
H331 H 0.4653 0.16324 0.56419 0.0
H332 H 0.42308 0.11366 0.9402 0.0
H333 H 0.39085 0.0805 0.55427 0.0
C334 C 0.35076 0.04879 0.63491 0.0
C335 C 0.33533 0.0373 0.74036 0.0
C336 C 0.43256 0.12429 0.85769 0.0
C337 C 0.39385 0.08248 0.74472 0.0
C338 C 0.45496 0.15357 0.85923 0.0
C339 C 0.46668 0.16875 0.75362 0.0
C340 C 0.42152 0.1102 0.7498 0.0
C341 C 0.45664 0.15268 0.64774 0.0
C342 C 0.38004 0.07119 0.63672 0.0
C343 C 0.35116 0.04754 0.84646 0.0
N344 N 0.43427 0.12453 0.64852 0.0
N345 N 0.37929 0.06993 0.84593 0.0
H346 H 0.8177 0.96192 0.06902 0.0
H347 H 0.96995 0.82599 0.93971 0.0
H348 H 0.86231 0.94529 0.72595 0.0
H349 H 0.93211 0.84961 0.28716 0.0
H350 H 0.93037 0.86942 0.85935 0.0
H351 H 0.85951 0.92094 0.15113 0.0
C352 C 0.83632 0.94988 0.01101 0.0
C353 C 0.83619 0.95706 0.89014 0.0
C354 C 0.93081 0.86509 0.95324 0.0
C355 C 0.88408 0.90988 0.98349 0.0
C356 C 0.95338 0.8402 0.99912 0.0
C357 C 0.95448 0.83396 0.12048 0.0
C358 C 0.90899 0.88377 0.02905 0.0
C359 C 0.93237 0.85342 0.19304 0.0
C360 C 0.86018 0.9264 0.0579 0.0
C361 C 0.86109 0.94052 0.81951 0.0
N362 N 0.91056 0.87726 0.14629 0.0
N363 N 0.88381 0.91771 0.86703 0.0
H364 H 0.04453 0.33383 0.44963 0.0
H365 H 0.16401 0.46261 0.0645 0.0
H366 H 0.03959 0.33926 0.07126 0.0
H367 H 0.16534 0.46085 0.44354 0.0
H368 H 0.11361 0.42243 0.06641 0.0
H369 H 0.08381 0.38492 0.45007 0.0
C370 C 0.05151 0.34587 0.36654 0.0
C371 C 0.03917 0.33184 0.26001 0.0
C372 C 0.1247 0.43106 0.14923 0.0
C373 C 0.08428 0.39041 0.26015 0.0
C374 C 0.15357 0.45397 0.14829 0.0
C375 C 0.16932 0.46466 0.25407 0.0
C376 C 0.11162 0.41846 0.25666 0.0
C377 C 0.15425 0.45306 0.35985 0.0
C378 C 0.0739 0.37515 0.36699 0.0
C379 C 0.04871 0.34894 0.1554 0.0
N380 N 0.12649 0.43021 0.35841 0.0
N381 N 0.07105 0.37711 0.15805 0.0
H382 H 0.53759 0.68082 0.42742 0.0
H383 H 0.67782 0.53312 0.566 0.0
H384 H 0.55847 0.6415 0.77525 0.0
H385 H 0.65041 0.56608 0.21592 0.0
H386 H 0.63431 0.57288 0.64477 0.0
H387 H 0.57877 0.63881 0.34785 0.0
C388 C 0.55062 0.66334 0.48705 0.0
C389 C 0.54452 0.66499 0.6084 0.0
C390 C 0.63783 0.57131 0.55065 0.0
C391 C 0.59193 0.61686 0.51794 0.0
C392 C 0.66274 0.54863 0.50567 0.0
C393 C 0.66799 0.54613 0.38404 0.0
C394 C 0.61809 0.59183 0.47362 0.0
C395 C 0.64745 0.56694 0.31032 0.0
C396 C 0.5742 0.63935 0.4416 0.0
C397 C 0.56232 0.64151 0.68116 0.0
N398 N 0.6236 0.58887 0.35616 0.0
N399 N 0.5852 0.61863 0.63497 0.0
loop_
_geom_bond_atom_site_label_1
_geom_bond_atom_site_label_2
_geom_bond_distance
_geom_bond_site_symmetry_2
_ccdc_geom_bond_type
Co0 O1 2.216 . S
Co0 O2 2.091 . S
Co0 O4 2.004 . S
Co0 O10 2.021 . S
Co0 O12 2.137 . S
Co0 O13 2.244 . S
O1 Co0 2.216 . S
O1 C8 1.247 . S
O2 Co0 2.091 . S
O2 C8 1.261 . S
C3 O12 1.247 . S
C3 O13 1.272 . S
O4 Co0 2.004 . S
O4 C9 1.259 . S
Co5 O6 2.061 . S
Co5 O11 2.052 . S
Co5 O13 2.135 . S
O6 Co5 2.061 . S
O6 C9 1.235 . S
C7 O10 1.238 . S
C7 O11 1.241 . S
C8 O1 1.247 . S
C8 O2 1.261 . S
C9 O4 1.259 . S
C9 O6 1.235 . S
O10 Co0 2.021 . S
O10 C7 1.238 . S
O11 Co5 2.052 . S
O11 C7 1.241 . S
O12 Co0 2.137 . S
O12 C3 1.247 . S
O13 Co0 2.244 . S
O13 C3 1.272 . S
O13 Co5 2.135 . S
Co14 O15 2.216 . S
Co14 O16 2.091 . S
Co14 O18 2.004 . S
Co14 O24 2.021 . S
Co14 O26 2.137 . S
Co14 O27 2.244 . S
O15 Co14 2.216 . S
O15 C22 1.247 . S
O16 Co14 2.091 . S
O16 C22 1.261 . S
C17 O26 1.247 . S
C17 O27 1.272 . S
O18 Co14 2.004 . S
O18 C23 1.259 . S
Co19 O20 2.061 . S
Co19 O25 2.052 . S
Co19 O27 2.135 . S
O20 Co19 2.061 . S
O20 C23 1.235 . S
C21 O24 1.238 . S
C21 O25 1.241 . S
C22 O15 1.247 . S
C22 O16 1.261 . S
C23 O18 1.259 . S
C23 O20 1.235 . S
O24 Co14 2.021 . S
O24 C21 1.238 . S
O25 Co19 2.052 . S
O25 C21 1.241 . S
O26 Co14 2.137 . S
O26 C17 1.247 . S
O27 Co14 2.244 . S
O27 C17 1.272 . S
O27 Co19 2.135 . S
Co28 O29 2.216 . S
Co28 O30 2.091 1_556 S
Co28 O32 2.011 . S
Co28 O38 2.021 1_565 S
Co28 O40 2.137 . S
Co28 O41 2.244 . S
O29 Co28 2.216 . S
O29 C36 1.247 1_556 S
O30 Co28 2.091 1_554 S
O30 C36 1.261 . S
C31 O40 1.247 . S
C31 O41 1.272 . S
O32 Co28 2.011 . S
O32 C37 1.252 1_565 S
Co33 O34 2.061 . S
Co33 O39 2.052 . S
Co33 O41 2.135 1_545 S
O34 Co33 2.061 . S
O34 C37 1.235 . S
C35 O38 1.238 . S
C35 O39 1.241 . S
C36 O29 1.247 1_554 S
C36 O30 1.261 . S
C37 O32 1.252 1_545 S
C37 O34 1.235 . S
O38 Co28 2.021 1_545 S
O38 C35 1.238 . S
O39 Co33 2.052 . S
O39 C35 1.241 . S
O40 Co28 2.137 . S
O40 C31 1.247 . S
O41 Co28 2.244 . S
O41 C31 1.272 . S
O41 Co33 2.135 1_565 S
Co42 O43 2.216 . S
Co42 O44 2.091 1_554 S
Co42 O46 2.011 . S
Co42 O52 2.021 1_455 S
Co42 O54 2.137 . S
Co42 O55 2.244 . S
O43 Co42 2.216 . S
O43 C50 1.247 1_554 S
O44 Co42 2.091 1_556 S
O44 C50 1.261 . S
C45 O54 1.247 . S
C45 O55 1.272 . S
O46 Co42 2.011 . S
O46 C51 1.252 1_455 S
Co47 O48 2.061 . S
Co47 O53 2.052 . S
Co47 O55 2.135 1_655 S
O48 Co47 2.061 . S
O48 C51 1.235 . S
C49 O52 1.238 . S
C49 O53 1.241 . S
C50 O43 1.247 1_556 S
C50 O44 1.261 . S
C51 O46 1.252 1_655 S
C51 O48 1.235 . S
O52 Co42 2.021 1_655 S
O52 C49 1.238 . S
O53 Co47 2.052 . S
O53 C49 1.241 . S
O54 Co42 2.137 . S
O54 C45 1.247 . S
O55 Co42 2.244 . S
O55 C45 1.272 . S
O55 Co47 2.135 1_455 S
Co56 O57 2.216 . S
Co56 O58 2.091 1_556 S
Co56 O60 2.011 . S
Co56 O66 2.021 1_545 S
Co56 O68 2.137 . S
Co56 O69 2.244 . S
O57 Co56 2.216 . S
O57 C64 1.247 1_556 S
O58 Co56 2.091 1_554 S
O58 C64 1.261 . S
C59 O68 1.247 . S
C59 O69 1.272 . S
O60 Co56 2.011 . S
O60 C65 1.252 1_545 S
Co61 O62 2.061 . S
Co61 O67 2.052 . S
Co61 O69 2.135 1_565 S
O62 Co61 2.061 . S
O62 C65 1.235 . S
C63 O66 1.238 . S
C63 O67 1.241 . S
C64 O57 1.247 1_554 S
C64 O58 1.261 . S
C65 O60 1.252 1_565 S
C65 O62 1.235 . S
O66 Co56 2.021 1_565 S
O66 C63 1.238 . S
O67 Co61 2.052 . S
O67 C63 1.241 . S
O68 Co56 2.137 . S
O68 C59 1.247 . S
O69 Co56 2.244 . S
O69 C59 1.272 . S
O69 Co61 2.135 1_545 S
Co70 O71 2.216 . S
Co70 O72 2.091 1_554 S
Co70 O74 2.011 . S
Co70 O80 2.021 1_655 S
Co70 O82 2.137 . S
Co70 O83 2.244 . S
O71 Co70 2.216 . S
O71 C78 1.247 1_554 S
O72 Co70 2.091 1_556 S
O72 C78 1.261 . S
C73 O82 1.247 . S
C73 O83 1.272 . S
O74 Co70 2.011 . S
O74 C79 1.252 1_655 S
Co75 O76 2.061 . S
Co75 O81 2.052 . S
Co75 O83 2.135 1_455 S
O76 Co75 2.061 . S
O76 C79 1.235 . S
C77 O80 1.238 . S
C77 O81 1.241 . S
C78 O71 1.247 1_556 S
C78 O72 1.261 . S
C79 O74 1.252 1_455 S
C79 O76 1.235 . S
O80 Co70 2.021 1_455 S
O80 C77 1.238 . S
O81 Co75 2.052 . S
O81 C77 1.241 . S
O82 Co70 2.137 . S
O82 C73 1.247 . S
O83 Co70 2.244 . S
O83 C73 1.272 . S
O83 Co75 2.135 1_655 S
Co84 O85 2.216 . S
Co84 O86 2.091 . S
Co84 O88 2.004 . S
Co84 O94 2.021 . S
Co84 O96 2.137 . S
Co84 O97 2.244 . S
O85 Co84 2.216 . S
O85 C92 1.247 . S
O86 Co84 2.091 . S
O86 C92 1.261 . S
C87 O96 1.247 . S
C87 O97 1.272 . S
O88 Co84 2.004 . S
O88 C93 1.259 . S
Co89 O90 2.061 . S
Co89 O95 2.052 . S
Co89 O97 2.135 . S
O90 Co89 2.061 . S
O90 C93 1.235 . S
C91 O94 1.238 . S
C91 O95 1.241 . S
C92 O85 1.247 . S
C92 O86 1.261 . S
C93 O88 1.259 . S
C93 O90 1.235 . S
O94 Co84 2.021 . S
O94 C91 1.238 . S
O95 Co89 2.052 . S
O95 C91 1.241 . S
O96 Co84 2.137 . S
O96 C87 1.247 . S
O97 Co84 2.244 . S
O97 C87 1.272 . S
O97 Co89 2.135 . S
Co98 O99 2.216 . S
Co98 O100 2.091 . S
Co98 O102 2.004 . S
Co98 O108 2.021 . S
Co98 O110 2.137 . S
Co98 O111 2.244 . S
O99 Co98 2.216 . S
O99 C106 1.247 . S
O100 Co98 2.091 . S
O100 C106 1.261 . S
C101 O110 1.247 . S
C101 O111 1.272 . S
O102 Co98 2.004 . S
O102 C107 1.259 . S
Co103 O104 2.061 . S
Co103 O109 2.052 . S
Co103 O111 2.135 . S
O104 Co103 2.061 . S
O104 C107 1.235 . S
C105 O108 1.238 . S
C105 O109 1.241 . S
C106 O99 1.247 . S
C106 O100 1.261 . S
C107 O102 1.259 . S
C107 O104 1.235 . S
O108 Co98 2.021 . S
O108 C105 1.238 . S
O109 Co103 2.052 . S
O109 C105 1.241 . S
O110 Co98 2.137 . S
O110 C101 1.247 . S
O111 Co98 2.244 . S
O111 C101 1.272 . S
O111 Co103 2.135 . S
H112 C118 0.930 . S
H113 C122 0.930 . S
H114 C127 0.929 . S
H115 C125 0.929 . S
H116 C120 0.929 . S
H117 C126 0.929 . S
C118 H112 0.930 . S
C118 C119 1.367 . S
C118 C126 1.378 1_556 S
C119 C118 1.367 . S
C119 C127 1.433 . S
C120 H116 0.929 . S
C120 C122 1.378 1_556 S
C120 C124 1.350 1_556 S
C121 C124 1.463 1_556 S
C121 C126 1.350 1_556 S
C121 N129 1.427 . S
C122 H113 0.930 . S
C122 C120 1.378 1_554 S
C122 C123 1.367 . S
C123 C122 1.367 . S
C123 C125 1.433 . S
C124 C120 1.350 1_554 S
C124 C121 1.463 1_554 S
C124 N128 1.427 . S
C125 H115 0.929 . S
C125 C123 1.433 . S
C125 N128 1.384 . S
C126 H117 0.929 . S
C126 C118 1.378 1_554 S
C126 C121 1.350 1_554 S
C127 H114 0.929 . S
C127 C119 1.433 . S
C127 N129 1.384 . S
N128 C124 1.427 . S
N128 C125 1.384 . S
N129 C121 1.427 . S
N129 C127 1.384 . S
H130 C136 0.930 . S
H131 C140 0.930 1_556 S
H132 C145 0.929 . S
H133 C143 0.929 . S
H134 C138 0.929 . S
H135 C144 0.929 . S
C136 H130 0.930 . S
C136 C137 1.367 . S
C136 C144 1.378 . S
C137 C136 1.367 . S
C137 C145 1.433 . S
C138 H134 0.929 . S
C138 C140 1.378 . S
C138 C142 1.350 . S
C139 C142 1.463 . S
C139 C144 1.350 . S
C139 N147 1.427 . S
C140 H131 0.930 1_554 S
C140 C138 1.378 . S
C140 C141 1.367 . S
C141 C140 1.367 . S
C141 C143 1.433 . S
C142 C138 1.350 . S
C142 C139 1.463 . S
C142 N146 1.427 . S
C143 H133 0.929 . S
C143 C141 1.433 . S
C143 N146 1.384 . S
C144 H135 0.929 . S
C144 C136 1.378 . S
C144 C139 1.350 . S
C145 H132 0.929 . S
C145 C137 1.433 . S
C145 N147 1.384 . S
N146 C142 1.427 . S
N146 C143 1.384 . S
N147 C139 1.427 . S
N147 C145 1.384 . S
H148 C154 0.930 . S
H149 C158 0.930 . S
H150 C163 0.929 . S
H151 C161 0.929 . S
H152 C156 0.929 . S
H153 C162 0.929 . S
C154 H148 0.930 . S
C154 C155 1.367 . S
C154 C162 1.378 . S
C155 C154 1.367 . S
C155 C163 1.433 . S
C156 H152 0.929 . S
C156 C158 1.378 . S
C156 C160 1.350 . S
C157 C160 1.463 . S
C157 C162 1.350 . S
C157 N165 1.427 . S
C158 H149 0.930 . S
C158 C156 1.378 . S
C158 C159 1.367 . S
C159 C158 1.367 . S
C159 C161 1.433 . S
C160 C156 1.350 . S
C160 C157 1.463 . S
C160 N164 1.427 . S
C161 H151 0.929 . S
C161 C159 1.433 . S
C161 N164 1.384 . S
C162 H153 0.929 . S
C162 C154 1.378 . S
C162 C157 1.350 . S
C163 H150 0.929 . S
C163 C155 1.433 . S
C163 N165 1.384 . S
N164 C160 1.427 . S
N164 C161 1.384 . S
N165 C157 1.427 . S
N165 C163 1.384 . S
H166 C172 0.930 . S
H167 C176 0.930 . S
H168 C181 0.929 1_554 S
H169 C179 0.929 . S
H170 C174 0.929 . S
H171 C180 0.929 . S
C172 H166 0.930 . S
C172 C173 1.367 . S
C172 C180 1.378 . S
C173 C172 1.367 . S
C173 C181 1.433 . S
C174 H170 0.929 . S
C174 C176 1.378 . S
C174 C178 1.350 . S
C175 C178 1.463 . S
C175 C180 1.350 . S
C175 N183 1.427 . S
C176 H167 0.930 . S
C176 C174 1.378 . S
C176 C177 1.367 . S
C177 C176 1.367 . S
C177 C179 1.433 . S
C178 C174 1.350 . S
C178 C175 1.463 . S
C178 N182 1.427 . S
C179 H169 0.929 . S
C179 C177 1.433 . S
C179 N182 1.384 . S
C180 H171 0.929 . S
C180 C172 1.378 . S
C180 C175 1.350 . S
C181 H168 0.929 1_556 S
C181 C173 1.433 . S
C181 N183 1.384 . S
N182 C178 1.427 . S
N182 C179 1.384 . S
N183 C175 1.427 . S
N183 C181 1.384 . S
H184 C190 0.930 . S
H185 C194 0.930 . S
H186 C199 0.929 . S
H187 C197 0.929 . S
H188 C192 0.929 . S
H189 C198 0.929 . S
C190 H184 0.930 . S
C190 C191 1.367 . S
C190 C198 1.378 . S
C191 C190 1.367 . S
C191 C199 1.433 . S
C192 H188 0.929 . S
C192 C194 1.378 . S
C192 C196 1.350 . S
C193 C196 1.463 . S
C193 C198 1.350 . S
C193 N201 1.427 . S
C194 H185 0.930 . S
C194 C192 1.378 . S
C194 C195 1.367 . S
C195 C194 1.367 . S
C195 C197 1.433 . S
C196 C192 1.350 . S
C196 C193 1.463 . S
C196 N200 1.427 . S
C197 H187 0.929 . S
C197 C195 1.433 . S
C197 N200 1.384 . S
C198 H189 0.929 . S
C198 C190 1.378 . S
C198 C193 1.350 . S
C199 H186 0.929 . S
C199 C191 1.433 . S
C199 N201 1.384 . S
N200 C196 1.427 . S
N200 C197 1.384 . S
N201 C193 1.427 . S
N201 C199 1.384 . S
H202 C208 0.930 1_554 S
H203 C212 0.930 . S
H204 C217 0.929 . S
H205 C215 0.929 . S
H206 C210 0.929 . S
H207 C216 0.929 . S
C208 H202 0.930 1_556 S
C208 C209 1.367 . S
C208 C216 1.378 . S
C209 C208 1.367 . S
C209 C217 1.433 . S
C210 H206 0.929 . S
C210 C212 1.378 . S
C210 C214 1.350 . S
C211 C214 1.463 . S
C211 C216 1.350 . S
C211 N219 1.427 . S
C212 H203 0.930 . S
C212 C210 1.378 . S
C212 C213 1.367 . S
C213 C212 1.367 . S
C213 C215 1.433 . S
C214 C210 1.350 . S
C214 C211 1.463 . S
C214 N218 1.427 . S
C215 H205 0.929 . S
C215 C213 1.433 . S
C215 N218 1.384 . S
C216 H207 0.929 . S
C216 C208 1.378 . S
C216 C211 1.350 . S
C217 H204 0.929 . S
C217 C209 1.433 . S
C217 N219 1.384 . S
N218 C214 1.427 . S
N218 C215 1.384 . S
N219 C211 1.427 . S
N219 C217 1.384 . S
H220 C226 0.930 . S
H221 C230 0.930 . S
H222 C235 0.929 . S
H223 C233 0.929 . S
H224 C228 0.929 . S
H225 C234 0.929 . S
C226 H220 0.930 . S
C226 C227 1.367 . S
C226 C234 1.378 . S
C227 C226 1.367 . S
C227 C235 1.433 . S
C228 H224 0.929 . S
C228 C230 1.378 . S
C228 C232 1.350 . S
C229 C232 1.463 1_554 S
C229 C234 1.350 . S
C229 N237 1.427 1_554 S
C230 H221 0.930 . S
C230 C228 1.378 . S
C230 C231 1.367 . S
C231 C230 1.367 . S
C231 C233 1.433 . S
C232 C228 1.350 . S
C232 C229 1.463 1_556 S
C232 N236 1.427 1_556 S
C233 H223 0.929 . S
C233 C231 1.433 . S
C233 N236 1.384 1_556 S
C234 H225 0.929 . S
C234 C226 1.378 . S
C234 C229 1.350 . S
C235 H222 0.929 . S
C235 C227 1.433 . S
C235 N237 1.384 1_554 S
N236 C232 1.427 1_554 S
N236 C233 1.384 1_554 S
N237 C229 1.427 1_556 S
N237 C235 1.384 1_556 S
H238 C244 0.930 1_556 S
H239 C248 0.930 . S
H240 C253 0.929 . S
H241 C251 0.929 . S
H242 C246 0.929 . S
H243 C252 0.929 . S
C244 H238 0.930 1_554 S
C244 C245 1.367 . S
C244 C252 1.378 . S
C245 C244 1.367 . S
C245 C253 1.433 . S
C246 H242 0.929 . S
C246 C248 1.378 . S
C246 C250 1.350 . S
C247 C250 1.463 . S
C247 C252 1.350 . S
C247 N255 1.427 . S
C248 H239 0.930 . S
C248 C246 1.378 . S
C248 C249 1.367 . S
C249 C248 1.367 . S
C249 C251 1.433 . S
C250 C246 1.350 . S
C250 C247 1.463 . S
C250 N254 1.427 . S
C251 H241 0.929 . S
C251 C249 1.433 . S
C251 N254 1.384 . S
C252 H243 0.929 . S
C252 C244 1.378 . S
C252 C247 1.350 . S
C253 H240 0.929 . S
C253 C245 1.433 . S
C253 N255 1.384 . S
N254 C250 1.427 . S
N254 C251 1.384 . S
N255 C247 1.427 . S
N255 C253 1.384 . S
H256 C262 0.930 . S
H257 C266 0.930 . S
H258 C271 0.929 . S
H259 C269 0.929 . S
H260 C264 0.929 . S
H261 C270 0.929 . S
C262 H256 0.930 . S
C262 C263 1.367 . S
C262 C270 1.378 . S
C263 C262 1.367 . S
C263 C271 1.433 . S
C264 H260 0.929 . S
C264 C266 1.378 . S
C264 C268 1.350 . S
C265 C268 1.463 . S
C265 C270 1.350 . S
C265 N273 1.427 . S
C266 H257 0.930 . S
C266 C264 1.378 . S
C266 C267 1.367 . S
C267 C266 1.367 . S
C267 C269 1.433 . S
C268 C264 1.350 . S
C268 C265 1.463 . S
C268 N272 1.427 . S
C269 H259 0.929 . S
C269 C267 1.433 . S
C269 N272 1.384 . S
C270 H261 0.929 . S
C270 C262 1.378 . S
C270 C265 1.350 . S
C271 H258 0.929 . S
C271 C263 1.433 . S
C271 N273 1.384 . S
N272 C268 1.427 . S
N272 C269 1.384 . S
N273 C265 1.427 . S
N273 C271 1.384 . S
H274 C280 0.930 . S
H275 C284 0.930 . S
H276 C289 0.929 . S
H277 C287 0.929 . S
H278 C282 0.929 . S
H279 C288 0.929 . S
C280 H274 0.930 . S
C280 C281 1.367 . S
C280 C288 1.378 . S
C281 C280 1.367 . S
C281 C289 1.433 . S
C282 H278 0.929 . S
C282 C284 1.378 . S
C282 C286 1.350 . S
C283 C286 1.463 . S
C283 C288 1.350 . S
C283 N291 1.427 . S
C284 H275 0.930 . S
C284 C282 1.378 . S
C284 C285 1.367 . S
C285 C284 1.367 . S
C285 C287 1.433 . S
C286 C282 1.350 . S
C286 C283 1.463 . S
C286 N290 1.427 . S
C287 H277 0.929 . S
C287 C285 1.433 . S
C287 N290 1.384 . S
C288 H279 0.929 . S
C288 C280 1.378 . S
C288 C283 1.350 . S
C289 H276 0.929 . S
C289 C281 1.433 . S
C289 N291 1.384 . S
N290 C286 1.427 . S
N290 C287 1.384 . S
N291 C283 1.427 . S
N291 C289 1.384 . S
H292 C298 0.930 . S
H293 C302 0.930 . S
H294 C307 0.929 . S
H295 C305 0.929 . S
H296 C300 0.929 1_554 S
H297 C306 0.929 1_556 S
C298 H292 0.930 . S
C298 C299 1.367 . S
C298 C306 1.378 . S
C299 C298 1.367 . S
C299 C307 1.433 . S
C300 H296 0.929 1_556 S
C300 C302 1.378 . S
C300 C304 1.350 . S
C301 C304 1.463 1_554 S
C301 C306 1.350 . S
C301 N309 1.427 . S
C302 H293 0.930 . S
C302 C300 1.378 . S
C302 C303 1.367 . S
C303 C302 1.367 . S
C303 C305 1.433 . S
C304 C300 1.350 . S
C304 C301 1.463 1_556 S
C304 N308 1.427 . S
C305 H295 0.929 . S
C305 C303 1.433 . S
C305 N308 1.384 . S
C306 H297 0.929 1_554 S
C306 C298 1.378 . S
C306 C301 1.350 . S
C307 H294 0.929 . S
C307 C299 1.433 . S
C307 N309 1.384 . S
N308 C304 1.427 . S
N308 C305 1.384 . S
N309 C301 1.427 . S
N309 C307 1.384 . S
H310 C316 0.930 . S
H311 C320 0.930 . S
H312 C325 0.929 . S
H313 C323 0.929 . S
H314 C318 0.929 . S
H315 C324 0.929 . S
C316 H310 0.930 . S
C316 C317 1.367 . S
C316 C324 1.378 . S
C317 C316 1.367 . S
C317 C325 1.433 . S
C318 H314 0.929 . S
C318 C320 1.378 . S
C318 C322 1.350 . S
C319 C322 1.463 . S
C319 C324 1.350 . S
C319 N327 1.427 . S
C320 H311 0.930 . S
C320 C318 1.378 . S
C320 C321 1.367 . S
C321 C320 1.367 . S
C321 C323 1.433 . S
C322 C318 1.350 . S
C322 C319 1.463 . S
C322 N326 1.427 . S
C323 H313 0.929 . S
C323 C321 1.433 . S
C323 N326 1.384 . S
C324 H315 0.929 . S
C324 C316 1.378 . S
C324 C319 1.350 . S
C325 H312 0.929 . S
C325 C317 1.433 . S
C325 N327 1.384 . S
N326 C322 1.427 . S
N326 C323 1.384 . S
N327 C319 1.427 . S
N327 C325 1.384 . S
H328 C334 0.930 . S
H329 C338 0.930 . S
H330 C343 0.929 . S
H331 C341 0.929 . S
H332 C336 0.929 . S
H333 C342 0.929 . S
C334 H328 0.930 . S
C334 C335 1.367 . S
C334 C342 1.378 . S
C335 C334 1.367 . S
C335 C343 1.433 . S
C336 H332 0.929 . S
C336 C338 1.378 . S
C336 C340 1.350 . S
C337 C340 1.463 . S
C337 C342 1.350 . S
C337 N345 1.427 . S
C338 H329 0.930 . S
C338 C336 1.378 . S
C338 C339 1.367 . S
C339 C338 1.367 . S
C339 C341 1.433 . S
C340 C336 1.350 . S
C340 C337 1.463 . S
C340 N344 1.427 . S
C341 H331 0.929 . S
C341 C339 1.433 . S
C341 N344 1.384 . S
C342 H333 0.929 . S
C342 C334 1.378 . S
C342 C337 1.350 . S
C343 H330 0.929 . S
C343 C335 1.433 . S
C343 N345 1.384 . S
N344 C340 1.427 . S
N344 C341 1.384 . S
N345 C337 1.427 . S
N345 C343 1.384 . S
H346 C352 0.930 . S
H347 C356 0.930 . S
H348 C361 0.929 . S
H349 C359 0.929 . S
H350 C354 0.929 . S
H351 C360 0.929 . S
C352 H346 0.930 . S
C352 C353 1.367 . S
C352 C360 1.378 1_556 S
C353 C352 1.367 . S
C353 C361 1.433 . S
C354 H350 0.929 . S
C354 C356 1.378 1_556 S
C354 C358 1.350 1_556 S
C355 C358 1.463 1_556 S
C355 C360 1.350 1_556 S
C355 N363 1.427 . S
C356 H347 0.930 . S
C356 C354 1.378 1_554 S
C356 C357 1.367 . S
C357 C356 1.367 . S
C357 C359 1.433 . S
C358 C354 1.350 1_554 S
C358 C355 1.463 1_554 S
C358 N362 1.427 . S
C359 H349 0.929 . S
C359 C357 1.433 . S
C359 N362 1.384 . S
C360 H351 0.929 . S
C360 C352 1.378 1_554 S
C360 C355 1.350 1_554 S
C361 H348 0.929 . S
C361 C353 1.433 . S
C361 N363 1.384 . S
N362 C358 1.427 . S
N362 C359 1.384 . S
N363 C355 1.427 . S
N363 C361 1.384 . S
H364 C370 0.930 . S
H365 C374 0.930 . S
H366 C379 0.929 . S
H367 C377 0.929 . S
H368 C372 0.929 . S
H369 C378 0.929 . S
C370 H364 0.930 . S
C370 C371 1.367 . S
C370 C378 1.378 . S
C371 C370 1.367 . S
C371 C379 1.433 . S
C372 H368 0.929 . S
C372 C374 1.378 . S
C372 C376 1.350 . S
C373 C376 1.463 . S
C373 C378 1.350 . S
C373 N381 1.427 . S
C374 H365 0.930 . S
C374 C372 1.378 . S
C374 C375 1.367 . S
C375 C374 1.367 . S
C375 C377 1.433 . S
C376 C372 1.350 . S
C376 C373 1.463 . S
C376 N380 1.427 . S
C377 H367 0.929 . S
C377 C375 1.433 . S
C377 N380 1.384 . S
C378 H369 0.929 . S
C378 C370 1.378 . S
C378 C373 1.350 . S
C379 H366 0.929 . S
C379 C371 1.433 . S
C379 N381 1.384 . S
N380 C376 1.427 . S
N380 C377 1.384 . S
N381 C373 1.427 . S
N381 C379 1.384 . S
H382 C388 0.930 . S
H383 C392 0.930 . S
H384 C397 0.929 . S
H385 C395 0.929 . S
H386 C390 0.929 . S
H387 C396 0.929 . S
C388 H382 0.930 . S
C388 C389 1.367 . S
C388 C396 1.378 . S
C389 C388 1.367 . S
C389 C397 1.433 . S
C390 H386 0.929 . S
C390 C392 1.378 . S
C390 C394 1.350 . S
C391 C394 1.463 . S
C391 C396 1.350 . S
C391 N399 1.427 . S
C392 H383 0.930 . S
C392 C390 1.378 . S
C392 C393 1.367 . S
C393 C392 1.367 . S
C393 C395 1.433 . S
C394 C390 1.350 . S
C394 C391 1.463 . S
C394 N398 1.427 . S
C395 H385 0.929 . S
C395 C393 1.433 . S
C395 N398 1.384 . S
C396 H387 0.929 . S
C396 C388 1.378 . S
C396 C391 1.350 . S
C397 H384 0.929 . S
C397 C389 1.433 . S
C397 N399 1.384 . S
N398 C394 1.427 . S
N398 C395 1.384 . S
N399 C391 1.427 . S
N399 C397 1.384 . S
C119 C17 1.436 . S
C123 C3 1.435 . S
C137 C22 1.436 . S
C141 C36 1.436 . S
C155 C45 1.436 . S
C159 C31 1.435 . S
C173 C50 1.435 . S
C177 C8 1.435 . S
C191 C59 1.436 . S
C195 C73 1.435 . S
C209 C78 1.436 . S
C213 C92 1.436 . S
C227 C87 1.433 . S
C231 C101 1.432 . S
C245 C64 1.436 . S
C249 C106 1.436 . S
C263 C9 1.438 . S
C267 C107 1.439 . S
C281 C63 1.445 . S
C285 C21 1.436 . S
C299 C79 1.433 . S
C303 C37 1.435 . S
C317 C49 1.434 . S
C321 C91 1.441 . S
C335 C35 1.435 . S
C339 C105 1.439 . S
C353 C65 1.434 . S
C357 C51 1.435 . S
C371 C77 1.434 . S
C375 C7 1.442 . S
C389 C23 1.436 . S
C393 C93 1.438 . S
