# Generated by pormake.
# Topology unn, (4)-cn, num edge types: 1
# Building blocks:
#     Node 0, Type 0, BuildingBlock: CEKHIL_clean_sbu_0, # of connection points: 4
#     Node 1, Type 0, BuildingBlock: CEKHIL_clean_sbu_0, # of connection points: 4
#     Node 2, Type 0, BuildingBlock: CEKHIL_clean_sbu_0, # of connection points: 4
#     Node 3, Type 0, BuildingBlock: CEKHIL_clean_sbu_0, # of connection points: 4
#     Node 4, Type 0, BuildingBlock: CEKHIL_clean_sbu_0, # of connection points: 4
#     Node 5, Type 0, BuildingBlock: CEKHIL_clean_sbu_0, # of connection points: 4
#     Node 6, Type 0, BuildingBlock: CEKHIL_clean_sbu_0, # of connection points: 4
#     Node 7, Type 0, BuildingBlock: CEKHIL_clean_sbu_0, # of connection points: 4
#     Node 8, Type 0, BuildingBlock: CEKHIL_clean_sbu_0, # of connection points: 4
#     Node 9, Type 0, BuildingBlock: CEKHIL_clean_sbu_0, # of connection points: 4
#     Node 10, Type 0, BuildingBlock: CEKHIL_clean_sbu_0, # of connection points: 4
#     Node 11, Type 0, BuildingBlock: CEKHIL_clean_sbu_0, # of connection points: 4
#     Node 12, Type 0, BuildingBlock: CEKHIL_clean_sbu_0, # of connection points: 4
#     Node 13, Type 0, BuildingBlock: CEKHIL_clean_sbu_0, # of connection points: 4
#     Node 14, Type 0, BuildingBlock: CEKHIL_clean_sbu_0, # of connection points: 4
#     Node 15, Type 0, BuildingBlock: CEKHIL_clean_sbu_0, # of connection points: 4
#     Node 16, Type 0, BuildingBlock: CEKHIL_clean_sbu_0, # of connection points: 4
#     Node 17, Type 0, BuildingBlock: CEKHIL_clean_sbu_0, # of connection points: 4
#     Edge 18, Type (0, 0), BuildingBlock: AJUNOK_clean_linker_0, # of connection points: 2
#     Edge 19, Type (0, 0), BuildingBlock: AJUNOK_clean_linker_0, # of connection points: 2
#     Edge 20, Type (0, 0), BuildingBlock: AJUNOK_clean_linker_0, # of connection points: 2
#     Edge 21, Type (0, 0), BuildingBlock: AJUNOK_clean_linker_0, # of connection points: 2
#     Edge 22, Type (0, 0), BuildingBlock: AJUNOK_clean_linker_0, # of connection points: 2
#     Edge 23, Type (0, 0), BuildingBlock: AJUNOK_clean_linker_0, # of connection points: 2
#     Edge 24, Type (0, 0), BuildingBlock: AJUNOK_clean_linker_0, # of connection points: 2
#     Edge 25, Type (0, 0), BuildingBlock: AJUNOK_clean_linker_0, # of connection points: 2
#     Edge 26, Type (0, 0), BuildingBlock: AJUNOK_clean_linker_0, # of connection points: 2
#     Edge 27, Type (0, 0), BuildingBlock: AJUNOK_clean_linker_0, # of connection points: 2
#     Edge 28, Type (0, 0), BuildingBlock: AJUNOK_clean_linker_0, # of connection points: 2
#     Edge 29, Type (0, 0), BuildingBlock: AJUNOK_clean_linker_0, # of connection points: 2
#     Edge 30, Type (0, 0), BuildingBlock: AJUNOK_clean_linker_0, # of connection points: 2
#     Edge 31, Type (0, 0), BuildingBlock: AJUNOK_clean_linker_0, # of connection points: 2
#     Edge 32, Type (0, 0), BuildingBlock: AJUNOK_clean_linker_0, # of connection points: 2
#     Edge 33, Type (0, 0), BuildingBlock: AJUNOK_clean_linker_0, # of connection points: 2
#     Edge 34, Type (0, 0), BuildingBlock: AJUNOK_clean_linker_0, # of connection points: 2
#     Edge 35, Type (0, 0), BuildingBlock: AJUNOK_clean_linker_0, # of connection points: 2
#     Edge 36, Type (0, 0), BuildingBlock: AJUNOK_clean_linker_0, # of connection points: 2
#     Edge 37, Type (0, 0), BuildingBlock: AJUNOK_clean_linker_0, # of connection points: 2
#     Edge 38, Type (0, 0), BuildingBlock: AJUNOK_clean_linker_0, # of connection points: 2
#     Edge 39, Type (0, 0), BuildingBlock: AJUNOK_clean_linker_0, # of connection points: 2
#     Edge 40, Type (0, 0), BuildingBlock: AJUNOK_clean_linker_0, # of connection points: 2
#     Edge 41, Type (0, 0), BuildingBlock: AJUNOK_clean_linker_0, # of connection points: 2
#     Edge 42, Type (0, 0), BuildingBlock: AJUNOK_clean_linker_0, # of connection points: 2
#     Edge 43, Type (0, 0), BuildingBlock: AJUNOK_clean_linker_0, # of connection points: 2
#     Edge 44, Type (0, 0), BuildingBlock: AJUNOK_clean_linker_0, # of connection points: 2
#     Edge 45, Type (0, 0), BuildingBlock: AJUNOK_clean_linker_0, # of connection points: 2
#     Edge 46, Type (0, 0), BuildingBlock: AJUNOK_clean_linker_0, # of connection points: 2
#     Edge 47, Type (0, 0), BuildingBlock: AJUNOK_clean_linker_0, # of connection points: 2
#     Edge 48, Type (0, 0), BuildingBlock: AJUNOK_clean_linker_0, # of connection points: 2
#     Edge 49, Type (0, 0), BuildingBlock: AJUNOK_clean_linker_0, # of connection points: 2
#     Edge 50, Type (0, 0), BuildingBlock: AJUNOK_clean_linker_0, # of connection points: 2
#     Edge 51, Type (0, 0), BuildingBlock: AJUNOK_clean_linker_0, # of connection points: 2
#     Edge 52, Type (0, 0), BuildingBlock: AJUNOK_clean_linker_0, # of connection points: 2
#     Edge 53, Type (0, 0), BuildingBlock: AJUNOK_clean_linker_0, # of connection points: 2
# Relax obj value: 0.127
# Max RMSD: 0.231
# Mean RMSD: 0.221
data_MOF--net-unn--node1-CEKHIL_clean_sbu_0--edge1-AJUNOK_clean_linker_0
_symmetry_space_group_name_H-M    P1
_symmetry_Int_Tables_number       1
_symmetry_cell_setting            triclinic
loop_
_symmetry_equiv_pos_as_xyz
'x, y, z'
_cell_length_a     33.957496
_cell_length_b     33.773958
_cell_length_c     27.764539
_cell_angle_alpha  90.621167
_cell_angle_beta   89.786806
_cell_angle_gamma 120.31248
loop_
_atom_site_label
_atom_site_type_symbol
_atom_site_fract_x
_atom_site_fract_y
_atom_site_fract_z
_atom_type_partial_charge
Co0 Co 0.07798 0.78653 0.23896 0.0
O1 O 1.01445 0.74593 0.22311 0.0
O2 O 0.05545 0.81363 0.19078 0.0
C3 C 0.07278 0.77925 0.31883 0.0
O4 O 0.14637 0.83426 0.25244 0.0
Co5 Co 0.11957 0.72952 0.27606 0.0
O6 O 0.17348 0.79188 0.28663 0.0
C7 C 0.08419 0.7172 0.17994 0.0
C8 C 1.01642 0.77502 0.19227 0.0
C9 C 0.17859 0.83043 0.27368 0.0
O10 O 0.09524 0.75912 0.18509 0.0
O11 O 0.08812 0.69497 0.21477 0.0
O12 O 0.06262 0.80723 0.29792 0.0
O13 O 0.07754 0.75162 0.28992 0.0
Co14 Co 0.3075 0.37215 0.22484 0.0
O15 O 0.29242 0.41627 0.25092 0.0
O16 O 0.24156 0.34386 0.23875 0.0
C17 C 0.35009 0.41662 0.16437 0.0
O18 O 0.31514 0.31888 0.19474 0.0
Co19 Co 0.41099 0.40239 0.22943 0.0
O20 O 0.39128 0.34742 0.18842 0.0
C21 C 0.35476 0.36886 0.31682 0.0
C22 C 0.25012 0.38461 0.25244 0.0
C23 C 0.35033 0.31634 0.1794 0.0
O24 O 0.31881 0.35745 0.29174 0.0
O25 O 0.39513 0.39082 0.29939 0.0
O26 O 0.30606 0.39278 0.16048 0.0
O27 O 0.36644 0.41705 0.20639 0.0
Co28 Co 0.71309 0.9207 0.22929 0.0
O29 O 0.66595 0.8597 0.24715 0.0
O30 O 0.73937 0.88382 0.25114 0.0
C31 C 0.68325 0.92675 0.15978 0.0
O32 O 0.76943 0.98365 0.21035 0.0
Co33 Co 0.6811 0.99218 0.23211 0.0
O34 O 0.73911 0.02892 0.19671 0.0
C35 C 0.69993 0.96215 0.32239 0.0
C36 C 0.69749 0.85087 0.25861 0.0
C37 C 0.77222 0.02124 0.1946 0.0
O38 O 0.71703 0.94225 0.29777 0.0
O39 O 0.67915 0.98079 0.30326 0.0
O40 O 0.70457 0.90387 0.16143 0.0
O41 O 0.67316 0.93677 0.20145 0.0
Co42 Co 0.10708 0.36116 0.71609 0.0
O43 O 0.16475 0.40591 0.74488 0.0
O44 O 0.14257 0.33282 0.73717 0.0
C45 C 0.11296 0.40299 0.65165 0.0
O46 O 0.04799 0.30721 0.68445 0.0
Co47 Co 0.03428 0.39149 0.70984 0.0
O48 O 1.00408 0.33775 0.66623 0.0
C49 C 0.04574 0.35455 0.80071 0.0
C50 C 0.17417 0.37383 0.75102 0.0
C51 C 1.01244 0.30503 0.66364 0.0
O52 O 0.07596 0.3478 0.78051 0.0
O53 O 1.02683 0.37419 0.77955 0.0
O54 O 0.13346 0.37941 0.6528 0.0
O55 O 0.09484 0.40536 0.69182 0.0
Co56 Co 0.75173 0.77752 0.74585 0.0
O57 O 0.78165 0.74239 0.73439 0.0
O58 O 0.80138 0.8069 0.69773 0.0
C59 C 0.7496 0.774 0.82661 0.0
O60 O 0.72483 0.82113 0.75382 0.0
Co61 Co 0.65416 0.71865 0.78656 0.0
O62 O 0.66012 0.77972 0.79678 0.0
C63 C 0.67448 0.70148 0.68983 0.0
C64 C 0.80698 0.77153 0.70231 0.0
C65 C 0.69036 0.81762 0.77862 0.0
O66 O 0.70894 0.74223 0.69187 0.0
O67 O 0.64838 0.68261 0.72596 0.0
O68 O 0.78642 0.80441 0.80496 0.0
O69 O 0.71885 0.74317 0.7985 0.0
Co70 Co 0.29076 0.9637 0.74887 0.0
O71 O 0.32809 0.02744 0.73264 0.0
O72 O 0.26211 0.98206 0.69827 0.0
C73 C 0.29796 0.97402 0.82917 0.0
O74 O 0.24595 0.89463 0.76218 0.0
Co75 Co 0.34931 0.92733 0.79405 0.0
O76 O 0.28795 0.87239 0.8051 0.0
C77 C 0.36305 0.9577 0.69555 0.0
C78 C 0.29878 0.02275 0.70057 0.0
C79 C 0.24981 0.86447 0.78761 0.0
O80 O 0.32154 0.94789 0.69716 0.0
O81 O 0.38453 0.95716 0.73303 0.0
O82 O 0.26746 0.97893 0.80617 0.0
O83 O 0.32624 0.96926 0.80185 0.0
Co84 Co 0.74612 0.10101 0.56132 0.0
O85 O 0.68121 0.06638 0.55143 0.0
O86 O 0.72663 0.12564 0.50754 0.0
C87 C 0.74238 0.10664 0.64137 0.0
O88 O 0.81668 0.14345 0.56775 0.0
Co89 Co 0.7808 0.04539 0.6146 0.0
O90 O 0.83782 0.10569 0.61862 0.0
C91 C 0.74738 1.01953 0.51734 0.0
C92 C 0.68514 0.09213 0.51587 0.0
C93 C 0.84704 0.14138 0.5947 0.0
O94 O 0.75232 0.05948 0.51409 0.0
O95 O 0.75306 1.00373 0.55666 0.0
O96 O 0.73958 0.13555 0.61329 0.0
O97 O 0.74162 0.07199 0.61985 0.0
Co98 Co 0.97572 0.67002 0.56863 0.0
O99 O 1.00889 0.64004 0.54924 0.0
O100 O 0.94507 0.62561 0.51481 0.0
C101 C 0.98081 0.6609 0.64772 0.0
O102 O 0.93388 0.69753 0.58459 0.0
Co103 Co 0.03484 0.76096 0.62236 0.0
O104 O 0.97671 0.76042 0.631 0.0
C105 C 0.04951 0.75558 0.52071 0.0
C106 C 0.97937 0.61824 0.51588 0.0
C107 C 0.939 0.73214 0.61085 0.0
O108 O 1.01117 0.71818 0.52019 0.0
O109 O 0.06851 0.77814 0.5592 0.0
O110 O 0.94818 0.62884 0.62213 0.0
O111 O 1.01204 0.69517 0.6238 0.0
Co112 Co 0.40831 0.29216 0.57155 0.0
O113 O 0.4379 0.35661 0.55713 0.0
O114 O 0.46044 0.31115 0.52683 0.0
C115 C 0.40282 0.29877 0.65138 0.0
O116 O 0.38092 0.22243 0.58344 0.0
Co117 Co 0.30927 0.25712 0.60249 0.0
O118 O 0.30968 0.1989 0.61148 0.0
C119 C 0.33902 0.29205 0.50735 0.0
C120 C 0.46509 0.35206 0.52828 0.0
C121 C 0.34183 0.19112 0.60083 0.0
O122 O 0.36783 0.27903 0.51465 0.0
O123 O 0.31187 0.28978 0.54063 0.0
O124 O 0.44032 0.30422 0.63257 0.0
O125 O 0.37325 0.29663 0.62049 0.0
Co126 Co 0.74088 0.65891 0.07099 0.0
O127 O 0.67602 0.62694 0.05799 0.0
O128 O 0.72407 0.61695 0.01422 0.0
C129 C 0.73719 0.64886 0.15122 0.0
O130 O 0.8118 0.68977 0.07956 0.0
Co131 Co 0.77166 0.74906 0.12837 0.0
O132 O 0.83055 0.75036 0.12956 0.0
C133 C 0.74921 0.74608 0.0279 0.0
C134 C 0.68212 0.6079 0.02049 0.0
C135 C 0.84123 0.72457 0.10586 0.0
O136 O 0.74803 0.7077 0.02581 0.0
O137 O 0.75523 0.7687 0.06702 0.0
O138 O 0.73337 0.61666 0.12219 0.0
O139 O 0.73565 0.68224 0.1304 0.0
Co140 Co 0.4166 0.11276 0.07793 0.0
O141 O 0.44593 0.07663 0.07083 0.0
O142 O 0.46501 0.13755 0.02784 0.0
C143 C 0.41839 0.11639 0.15832 0.0
O144 O 0.39016 0.15716 0.08194 0.0
Co145 Co 0.32098 0.058 0.12363 0.0
O146 O 0.32799 0.11963 0.12942 0.0
C147 C 0.33352 0.03582 0.02611 0.0
C148 C 0.47093 0.10293 0.0368 0.0
C149 C 0.35709 0.15581 0.1077 0.0
O150 O 0.372 0.07326 0.02693 0.0
O151 O 0.30731 0.02053 0.0627 0.0
O152 O 0.45381 0.14477 0.13347 0.0
O153 O 0.38608 0.08288 0.13388 0.0
Co154 Co 0.90316 0.27318 0.05679 0.0
O155 O 0.9648 0.33562 0.05771 0.0
O156 O 0.90598 0.32965 0.02864 0.0
C157 C 0.92351 0.29915 0.13635 0.0
O158 O 0.8919 0.21124 0.08371 0.0
Co159 Co 0.98994 0.27668 0.0947 0.0
O160 O 0.95007 0.21753 0.12725 0.0
C161 C 0.97544 0.27899 -0.01021 0.0
C162 C 0.94794 0.35613 0.03508 0.0
C163 C 0.90892 0.19426 0.11303 0.0
O164 O 0.93306 0.26509 -0.0021 0.0
O165 O 1.00442 0.28814 0.02373 0.0
O166 O 0.88304 0.28459 0.12045 0.0
O167 O 0.95207 0.30501 0.10264 0.0
Co168 Co 0.41175 0.43891 0.8922 0.0
O169 O 0.34643 0.40281 0.88582 0.0
O170 O 0.38824 0.46049 0.83885 0.0
C171 C 0.41182 0.44754 0.97197 0.0
O172 O 0.48274 0.48277 0.89608 0.0
Co173 Co 0.44984 0.38575 0.9443 0.0
O174 O 0.50673 0.44591 0.94526 0.0
C175 C 0.41633 0.35838 0.84731 0.0
C176 C 0.34759 0.42656 0.84956 0.0
C177 C 0.51424 0.48115 0.9216 0.0
O178 O 0.41647 0.39624 0.84514 0.0
O179 O 0.42622 0.34467 0.88566 0.0
O180 O 0.40689 0.47485 0.94343 0.0
O181 O 0.41046 0.41218 0.95131 0.0
Co182 Co 0.64519 0.03536 0.90166 0.0
O183 O 0.63368 0.08086 0.93123 0.0
O184 O 0.58119 1.0084 0.92367 0.0
C185 C 0.6815 0.07761 0.83699 0.0
O186 O 0.64918 0.98076 0.86927 0.0
Co187 Co 0.74826 0.06453 0.89379 0.0
O188 O 0.72393 1.00982 0.8516 0.0
C189 C 0.69912 0.02586 0.98449 0.0
C190 C 0.59172 0.0497 0.93758 0.0
C191 C 0.68242 0.97796 0.84853 0.0
O192 O 0.66251 0.02116 0.96568 0.0
O193 O 0.73754 0.04438 0.96267 0.0
O194 O 0.63735 0.05435 0.83866 0.0
O195 O 0.70208 0.07918 0.87668 0.0
Co196 Co 0.03506 0.59835 0.90131 0.0
O197 O 0.9902 0.53916 0.92478 0.0
O198 O 0.06374 0.56491 0.92902 0.0
C199 C 1.00202 0.5952 0.83073 0.0
O200 O 0.08902 0.66102 0.87718 0.0
Co201 Co 0.99754 0.66538 0.89152 0.0
O202 O 0.05475 0.70069 0.85463 0.0
C203 C 1.0207 0.64746 0.98695 0.0
C204 C 1.02231 0.53256 0.93957 0.0
C205 C 0.08951 0.69563 0.85586 0.0
O206 O 0.03783 0.62529 0.96679 0.0
O207 O 0.99946 0.66344 0.96354 0.0
O208 O 1.0264 0.57566 0.8351 0.0
O209 O 0.9922 0.6082 0.87058 0.0
Co210 Co 0.44124 0.03409 0.40413 0.0
O211 O 0.50247 0.0778 0.42517 0.0
O212 O 0.47939 1.00552 0.40865 0.0
C213 C 0.43574 0.07889 0.34906 0.0
O214 O 0.37816 0.9819 0.37836 0.0
Co215 Co 0.37098 0.06296 0.43144 0.0
O216 O 0.32948 1.00778 0.39286 0.0
C217 C 0.40621 0.03035 0.50638 0.0
C218 C 0.51247 0.04579 0.42254 0.0
C219 C 0.33828 0.97851 0.37398 0.0
O220 O 0.42218 1.01613 0.4729 0.0
O221 O 0.38832 0.05507 0.49832 0.0
O222 O 0.45642 0.05637 0.33913 0.0
O223 O 0.42532 0.07925 0.39392 0.0
Co224 Co 0.06595 0.43981 0.38218 0.0
O225 O 0.09349 0.40264 0.37069 0.0
O226 O 0.11374 0.46577 0.33138 0.0
C227 C 0.0722 0.43996 0.46235 0.0
O228 O 0.04185 0.48555 0.39084 0.0
Co229 Co 0.97327 0.38717 0.4304 0.0
O230 O 0.97795 0.44759 0.43587 0.0
C231 C 0.97996 0.36706 0.3307 0.0
C232 C 0.11899 0.4304 0.33799 0.0
C233 C 1.00803 0.4838 0.41518 0.0
O234 O 1.01955 0.40304 0.33171 0.0
O235 O 0.95496 0.35149 0.36808 0.0
O236 O 0.10521 0.46985 0.43604 0.0
O237 O 0.03785 0.40738 0.43897 0.0
Co238 Co 0.6423 0.62623 0.41557 0.0
O239 O 0.67582 0.69133 0.4058 0.0
O240 O 0.6118 0.64539 0.36816 0.0
C241 C 0.64728 0.62977 0.49624 0.0
O242 O 0.60004 0.55536 0.42228 0.0
Co243 Co 0.70209 0.58985 0.45257 0.0
O244 O 0.64321 0.53224 0.46108 0.0
C245 C 0.71389 0.62019 0.35451 0.0
C246 C 0.64665 0.68696 0.37371 0.0
C247 C 0.60496 0.52409 0.44412 0.0
O248 O 0.67624 0.6195 0.36014 0.0
O249 O 0.73399 0.61244 0.38876 0.0
O250 O 0.61542 0.63301 0.47416 0.0
O251 O 0.67878 0.63084 0.46864 0.0
C252 C 0.05063 0.71798 0.10097 0.0
C253 C 0.06545 0.69557 0.13241 0.0
C254 C 0.03364 0.70054 0.05526 0.0
C255 C 0.03142 0.66024 0.03831 0.0
H256 H 0.05256 0.7499 0.11129 0.0
H257 H 1.02409 0.72011 0.03233 0.0
S258 S 0.06153 0.58556 0.10738 0.0
N259 N 0.07325 0.62865 0.14461 0.0
N260 N 0.04208 0.59604 0.05755 0.0
C261 C 0.04437 0.63622 0.06976 0.0
C262 C 0.06118 0.65382 0.11702 0.0
C263 C 0.42146 0.42936 0.0564 0.0
C264 C 0.40564 0.44991 0.02408 0.0
C265 C 0.40847 0.42423 0.10494 0.0
C266 C 0.3778 0.43765 0.12159 0.0
H267 H 0.44233 0.41551 0.04373 0.0
H268 H 0.41978 0.40666 0.12825 0.0
S269 S 0.33302 0.50016 0.05367 0.0
N270 N 0.36374 0.4905 0.01419 0.0
N271 N 0.33735 0.47795 0.10463 0.0
C272 C 0.36523 0.46188 0.0908 0.0
C273 C 0.37954 0.46858 0.04203 0.0
C274 C 0.71363 0.95371 0.07762 0.0
C275 C 0.6842 0.95073 0.11507 0.0
C276 C 0.71928 0.97951 0.03651 0.0
C277 C 0.69516 1.00281 0.03063 0.0
H278 H 0.73341 0.93677 0.08032 0.0
H279 H 0.74217 0.98045 0.00866 0.0
S280 S 0.61294 1.0053 0.11714 0.0
N281 N 0.63039 0.97319 0.14348 0.0
N282 N 0.64 0.02076 0.06505 0.0
C283 C 0.665 0.99964 0.06726 0.0
C284 C 0.65981 0.97389 0.10977 0.0
C285 C 0.76527 0.99493 0.43999 0.0
C286 C 0.73249 0.99159 0.47315 0.0
C287 C 0.75365 0.98257 0.39148 0.0
C288 C 0.70922 0.9678 0.37458 0.0
H289 H 0.80064 1.01011 0.45085 0.0
H290 H 0.78031 0.98758 0.36646 0.0
S291 S 0.60986 0.94674 0.44865 0.0
N292 N 0.65288 0.96737 0.48719 0.0
N293 N 0.63134 0.94521 0.39567 0.0
C294 C 0.67563 0.96157 0.40799 0.0
C295 C 0.68724 0.97325 0.45744 0.0
C296 C 0.06492 0.80507 0.45023 0.0
C297 C 0.07058 0.77176 0.47361 0.0
C298 C 0.0683 0.80889 0.40002 0.0
C299 C 0.07699 0.77918 0.37174 0.0
H300 H 0.05416 0.82565 0.47034 0.0
H301 H 0.06137 0.83353 0.38319 0.0
S302 S 0.10154 0.69119 0.41752 0.0
N303 N 0.09045 0.71231 0.46627 0.0
N304 N 0.09714 0.71955 0.37177 0.0
C305 C 0.08655 0.74842 0.3953 0.0
C306 C 0.08317 0.74466 0.44637 0.0
C307 C 0.37964 0.32593 0.43092 0.0
C308 C 0.34049 0.31198 0.4595 0.0
C309 C 0.38423 0.34563 0.38599 0.0
C310 C 0.34952 0.35166 0.36667 0.0
H311 H 0.40757 0.32182 0.44319 0.0
H312 H 0.41502 0.35505 0.36573 0.0
S313 S 0.24038 0.32252 0.4268 0.0
N314 N 0.26673 0.30714 0.46581 0.0
N315 N 0.27476 0.34331 0.37993 0.0
C316 C 0.31012 0.33836 0.39471 0.0
C317 C 0.30577 0.31882 0.44139 0.0
C318 C 0.98597 0.32624 0.86454 0.0
C319 C 0.02918 0.33513 0.8492 0.0
C320 C 0.96806 0.30579 0.90891 0.0
C321 C 0.99273 0.29375 0.94026 0.0
H322 H 0.96545 0.33483 0.84199 0.0
H323 H 0.93507 0.30084 0.91923 0.0
S324 S 0.10731 0.30898 0.91709 0.0
N325 N 0.09608 0.3295 0.86865 0.0
N326 N 0.06247 0.29148 0.95249 0.0
C327 C 0.03586 0.30199 0.92531 0.0
C328 C 0.05402 0.32254 0.87975 0.0
C329 C 0.78294 0.79793 0.95845 0.0
C330 C 0.74414 0.76341 0.98152 0.0
C331 C 0.78344 0.80297 0.90829 0.0
C332 C 0.7453 0.77329 0.87974 0.0
H333 H 0.8142 0.81852 0.97859 0.0
H334 H 0.81494 0.82837 0.89161 0.0
S335 S 0.63305 0.68248 0.92487 0.0
N336 N 0.6651 0.703 0.97363 0.0
N337 N 0.66575 0.7124 0.87952 0.0
C338 C 0.70509 0.74134 0.90317 0.0
C339 C 0.70462 0.73641 0.9541 0.0
C340 C 0.279 0.99993 0.95754 0.0
C341 C 0.32019 1.01061 0.97993 0.0
C342 C 0.27096 0.98554 0.90915 0.0
C343 C 0.30368 0.98101 0.88192 0.0
H344 H 0.25424 1.00553 0.97646 0.0
H345 H 0.23976 0.97992 0.89242 0.0
S346 S 0.41377 0.99794 0.92717 0.0
N347 N 0.39166 1.01084 0.9736 0.0
N348 N 0.37635 0.98319 0.88304 0.0
C349 C 0.34333 0.98808 0.90531 0.0
C350 C 0.35166 1.00315 0.95426 0.0
C351 C 0.36894 0.94619 0.60841 0.0
C352 C 0.38618 0.97484 0.64925 0.0
C353 C 0.37792 0.96453 0.56196 0.0
C354 C 0.40304 1.01218 0.55505 0.0
H355 H 0.34604 0.90966 0.61257 0.0
H356 H 0.36266 0.94147 0.53144 0.0
S357 S 0.45965 0.1014 0.64966 0.0
N358 N 0.43313 0.05273 0.6796 0.0
N359 N 0.4486 0.08735 0.59207 0.0
C360 C 0.42244 0.04102 0.59527 0.0
C361 C 0.41438 0.02225 0.64252 0.0
C362 C 0.06585 0.42135 0.59696 0.0
C363 C 0.10538 0.41877 0.60535 0.0
C364 C 0.05446 0.42772 0.55024 0.0
C365 C 0.0832 0.43325 0.51134 0.0
H366 H 0.04279 0.41682 0.62613 0.0
H367 H 1.02326 0.42841 0.5445 0.0
S368 S 0.1929 0.43424 0.51529 0.0
N369 N 0.17469 0.42561 0.57148 0.0
N370 N 0.15388 0.43848 0.48428 0.0
C371 C 0.12388 0.43313 0.51977 0.0
C372 C 0.13497 0.4259 0.56676 0.0
C373 C 0.69739 0.66717 0.56731 0.0
C374 C 0.65345 0.639 0.54851 0.0
C375 C 0.70355 0.68588 0.61379 0.0
C376 C 0.66605 0.67649 0.64344 0.0
H377 H 0.72717 0.67731 0.54499 0.0
H378 H 0.73807 0.70901 0.62606 0.0
S379 S 0.54415 0.59917 0.61315 0.0
N380 N 0.5719 0.59872 0.56434 0.0
N381 N 0.58363 0.6332 0.65234 0.0
C382 C 0.62205 0.64548 0.6264 0.0
C383 C 0.61573 0.62694 0.57871 0.0
C384 C 0.4367 0.31973 0.78301 0.0
C385 C 0.40584 0.33174 0.80207 0.0
C386 C 0.43352 0.30597 0.73462 0.0
C387 C 0.39926 0.30358 0.70398 0.0
H388 H 0.46532 0.32425 0.80441 0.0
H389 H 0.45963 0.29961 0.72052 0.0
S390 S 0.30537 0.32339 0.73985 0.0
N391 N 0.33659 0.33453 0.78904 0.0
N392 N 0.33028 0.30816 0.69841 0.0
C393 C 0.36579 0.31134 0.72407 0.0
C394 C 0.36926 0.32568 0.77309 0.0
C395 C 0.75393 0.09366 0.7274 0.0
C396 C 0.7322 0.10614 0.69284 0.0
C397 C 0.74095 0.08933 0.77603 0.0
C398 C 0.70444 0.09514 0.79062 0.0
H399 H 0.78045 0.08651 0.71667 0.0
H400 H 0.75791 0.079 0.80149 0.0
S401 S 0.64011 0.13281 0.71473 0.0
N402 N 0.67602 0.12906 0.67736 0.0
N403 N 0.65028 0.11858 0.76797 0.0
C404 C 0.68449 0.11023 0.75681 0.0
C405 C 0.69855 0.11607 0.70795 0.0
C406 C 0.95797 0.61489 0.77402 0.0
C407 C 0.99735 0.61278 0.7842 0.0
C408 C 0.95342 0.63235 0.73013 0.0
C409 C 0.98895 0.65006 0.69628 0.0
H410 H 0.93011 0.6019 0.79959 0.0
H411 H 0.92175 0.63151 0.72234 0.0
S412 S 0.10036 0.65573 0.70746 0.0
N413 N 0.07311 0.6313 0.75769 0.0
N414 N 0.06526 0.66606 0.67626 0.0
C415 C 0.02915 0.64981 0.70684 0.0
C416 C 0.03318 0.63063 0.75063 0.0
C417 C 0.72627 0.59571 0.27398 0.0
C418 C 0.73319 0.63121 0.30573 0.0
C419 C 0.72988 0.60255 0.22399 0.0
C420 C 0.7398 0.64491 0.20412 0.0
H421 H 0.71492 0.56167 0.2876 0.0
H422 H 0.72234 0.57359 0.20075 0.0
S423 S 0.7673 0.75038 0.273 0.0
N424 N 0.7551 0.7113 0.31467 0.0
N425 N 0.76182 0.72422 0.2208 0.0
C426 C 0.74982 0.68145 0.23584 0.0
C427 C 0.74645 0.67453 0.28664 0.0
C428 C 0.46259 0.14061 0.23447 0.0
C429 C 0.4199 0.11766 0.2113 0.0
C430 C 0.46671 0.13325 0.2831 0.0
C431 C 0.42829 0.10354 0.31032 0.0
H432 H 0.49358 0.16101 0.2141 0.0
H433 H 0.50064 0.14713 0.29815 0.0
S434 S 0.30785 0.04697 0.26993 0.0
N435 N 0.33776 0.072 0.2212 0.0
N436 N 0.34554 0.05971 0.31346 0.0
C437 C 0.38499 0.08599 0.28937 0.0
C438 C 0.38077 0.09259 0.23943 0.0
C439 C 0.91851 0.32613 0.26867 0.0
C440 C 0.96392 0.34397 0.28352 0.0
C441 C 0.90526 0.31048 0.22112 0.0
C442 C 0.93698 0.31202 0.18719 0.0
H443 H 0.89365 0.32615 0.29321 0.0
H444 H 0.87029 0.29835 0.21056 0.0
S445 S 0.05853 0.34965 0.21066 0.0
N446 N 0.03935 0.35775 0.26233 0.0
N447 N 1.01469 0.32874 0.17336 0.0
C448 C 0.98183 0.32743 0.20257 0.0
C449 C 0.99523 0.34329 0.25068 0.0
C450 C 0.25943 0.94323 0.33705 0.0
C451 C 0.29991 0.94135 0.34421 0.0
C452 C 0.22186 0.90952 0.31064 0.0
C453 C 0.22229 0.87159 0.29029 0.0
H454 H 0.25599 0.97081 0.35276 0.0
H455 H 0.1913 0.91195 0.30856 0.0
S456 S 0.32015 0.85102 0.29389 0.0
N457 N 0.33845 0.89917 0.32496 0.0
N458 N 0.26784 0.8354 0.27624 0.0
C459 C 0.26297 0.8699 0.29535 0.0
C460 C 0.30157 0.90465 0.32196 0.0
C461 C 0.1741 0.36262 0.29089 0.0
C462 C 0.21477 0.39592 0.26934 0.0
C463 C 0.14321 0.3743 0.31151 0.0
C464 C 0.15096 0.41965 0.31087 0.0
H465 H 0.1668 0.32758 0.2935 0.0
H466 H 0.11307 0.34733 0.32882 0.0
S467 S 0.25028 0.51901 0.2547 0.0
N468 N 0.25978 0.47607 0.24595 0.0
N469 N 0.20133 0.4973 0.28386 0.0
C470 C 0.1904 0.45283 0.28743 0.0
C471 C 0.22232 0.44116 0.26702 0.0
C472 C 0.71278 0.80783 0.32193 0.0
C473 C 0.68522 0.80744 0.28424 0.0
C474 C 0.699 0.76909 0.35085 0.0
C475 C 0.65735 0.72756 0.34303 0.0
H476 H 0.74472 0.83879 0.33016 0.0
H477 H 0.72181 0.77188 0.37954 0.0
S478 S 0.57323 0.70817 0.24759 0.0
N479 N 0.61415 0.76196 0.2402 0.0
N480 N 0.5892 0.68873 0.29347 0.0
C481 C 0.62972 0.72648 0.30491 0.0
C482 C 0.64341 0.7664 0.27588 0.0
C483 C 0.80805 0.07216 0.12451 0.0
C484 C 0.81365 0.05815 0.17041 0.0
C485 C 0.83986 0.11508 0.10551 0.0
C486 C 0.87899 0.14645 0.13158 0.0
H487 H 0.77708 0.05091 0.10428 0.0
H488 H 0.83269 0.12439 0.07078 0.0
S489 S 0.91029 0.12655 0.25351 0.0
N490 N 0.86182 0.07896 0.24122 0.0
N491 N 0.92217 0.15944 0.20574 0.0
C492 C 0.88622 0.13206 0.17674 0.0
C493 C 0.85349 0.0881 0.1961 0.0
C494 C 0.92394 0.7825 0.1209 0.0
C495 C 0.88961 0.73592 0.11397 0.0
C496 C 0.96614 0.79539 0.14324 0.0
C497 C 0.97579 0.76225 0.16044 0.0
H498 H 0.91699 0.80944 0.11153 0.0
H499 H 0.99001 0.83144 0.14979 0.0
S500 S 0.90107 0.63584 0.14499 0.0
N501 N 0.87098 0.65696 0.12152 0.0
N502 N 0.94962 0.68052 0.16319 0.0
C503 C 0.94329 0.71563 0.15036 0.0
C504 C 0.90053 0.70263 0.12717 0.0
C505 C 0.3126 0.23068 0.16355 0.0
C506 C 0.34617 0.27557 0.15208 0.0
C507 C 0.31543 0.19264 0.14655 0.0
C508 C 0.35211 0.19733 0.1173 0.0
H509 H 0.28543 0.2249 0.18819 0.0
H510 H 0.28926 0.15914 0.15855 0.0
S511 S 0.44463 0.30753 0.06982 0.0
N512 N 0.41405 0.32233 0.10384 0.0
N513 N 0.4195 0.25114 0.07309 0.0
C514 C 0.38396 0.2419 0.10264 0.0
C515 C 0.38095 0.28072 0.11969 0.0
C516 C 0.90286 0.22693 0.59318 0.0
C517 C 0.89382 0.1825 0.60327 0.0
C518 C 0.94293 0.26592 0.60995 0.0
C519 C 0.97605 0.26271 0.63812 0.0
H520 H 0.87776 0.23182 0.57438 0.0
H521 H 0.94681 0.2991 0.60243 0.0
S522 S 0.97303 0.1545 0.66745 0.0
N523 N 0.92517 0.13778 0.63747 0.0
N524 N 0.99926 0.21103 0.66981 0.0
C525 C 0.96928 0.21866 0.64513 0.0
C526 C 0.92858 0.17874 0.62768 0.0
C527 C 0.86087 0.70581 0.64544 0.0
C528 C 0.90023 0.73996 0.62254 0.0
C529 C 0.8306 0.71645 0.6696 0.0
C530 C 0.83793 0.76166 0.67178 0.0
H531 H 0.855 0.67123 0.64754 0.0
H532 H 0.80174 0.68896 0.68805 0.0
S533 S 0.93355 0.86276 0.61323 0.0
N534 N 0.94319 0.82045 0.60073 0.0
N535 N 0.88595 0.8399 0.64498 0.0
C536 C 0.87558 0.79549 0.6464 0.0
C537 C 0.90673 0.78479 0.62227 0.0
C538 C 0.35396 0.10193 0.67058 0.0
C539 C 0.30971 0.06263 0.66851 0.0
C540 C 0.36579 0.14197 0.6445 0.0
C541 C 0.33366 0.14507 0.61564 0.0
H542 H 0.37962 0.10257 0.69409 0.0
H543 H 0.39937 0.17175 0.64979 0.0
S544 S 0.21439 0.05129 0.59363 0.0
N545 N 0.23488 0.02866 0.63144 0.0
N546 N 0.25635 0.1041 0.58364 0.0
C547 C 0.28991 0.10541 0.61131 0.0
C548 C 0.27811 0.06427 0.63735 0.0
C549 C 0.21275 0.79161 0.83675 0.0
C550 C 0.20896 0.81875 0.8003 0.0
C551 C 0.17499 0.75015 0.85253 0.0
C552 C 0.13146 0.73372 0.8327 0.0
H553 H 0.24505 0.80315 0.85472 0.0
H554 H 0.17955 0.7322 0.88212 0.0
S555 S 0.10348 0.78719 0.73164 0.0
N556 N 0.1583 0.82276 0.7417 0.0
N557 N 0.08768 0.74547 0.77085 0.0
C558 C 0.12763 0.75903 0.79436 0.0
C559 C 0.16607 0.80125 0.77839 0.0
C560 C 0.25802 0.4288 0.76664 0.0
C561 C 0.21887 0.38503 0.77318 0.0
C562 C 0.2999 0.44196 0.79001 0.0
C563 C 0.30412 0.41239 0.82214 0.0
H564 H 0.25624 0.45332 0.74326 0.0
H565 H 0.32873 0.4759 0.78379 0.0
S566 S 0.21159 0.29384 0.85189 0.0
N567 N 0.18755 0.31204 0.81326 0.0
N568 N 0.26452 0.3365 0.85865 0.0
C569 C 0.26496 0.36838 0.82882 0.0
C570 C 0.22293 0.35474 0.80398 0.0
C571 C 0.65339 0.85443 0.82689 0.0
C572 C 0.6848 0.8584 0.79048 0.0
C573 C 0.64924 0.89205 0.84274 0.0
C574 C 0.67608 0.93568 0.82286 0.0
H575 H 0.63285 0.82219 0.84516 0.0
H576 H 0.62699 0.88746 0.87285 0.0
S577 S 0.75845 0.96425 0.7219 0.0
N578 N 0.73969 0.90945 0.73194 0.0
N579 N 0.73166 0.97968 0.76084 0.0
C580 C 0.70534 0.93958 0.78425 0.0
C581 C 0.70985 0.90133 0.76841 0.0
C582 C 0.5405 0.39906 0.48489 0.0
C583 C 0.49761 0.39218 0.49824 0.0
C584 C 0.57369 0.44065 0.46395 0.0
C585 C 0.56541 0.47709 0.45476 0.0
H586 H 0.54948 0.37333 0.49312 0.0
H587 H 0.60705 0.44504 0.45687 0.0
S588 S 0.45572 0.47323 0.47593 0.0
N589 N 0.44668 0.42329 0.4954 0.0
N590 N 0.50881 0.50071 0.45618 0.0
C591 C 0.52139 0.46905 0.46444 0.0
C592 C 0.48771 0.42693 0.48619 0.0
C593 C 0.60316 0.03773 0.49432 0.0
C594 C 0.64329 0.0806 0.48697 0.0
C595 C 0.56191 0.02515 0.4705 0.0
C596 C 0.55829 0.05545 0.43924 0.0
H597 H 0.60316 1.01353 0.51958 0.0
H598 H 0.53204 0.99245 0.47874 0.0
S599 S 0.6525 0.17128 0.40586 0.0
N600 N 0.67657 0.15248 0.44388 0.0
N601 N 0.59864 0.13 0.40088 0.0
C602 C 0.5981 0.09816 0.43078 0.0
C603 C 0.64059 0.11047 0.45413 0.0
C604 C 0.0392 0.56105 0.45396 0.0
C605 C 1.00468 0.52537 0.42651 0.0
C606 C 0.03065 0.59148 0.48101 0.0
C607 C 0.98738 0.58827 0.48145 0.0
H608 H 0.07194 0.56316 0.4579 0.0
H609 H 0.05807 0.61679 0.50337 0.0
S610 S 0.8867 0.50376 0.41114 0.0
N611 N 0.92627 0.49046 0.39859 0.0
N612 N 0.91088 0.54857 0.44802 0.0
C613 C 0.95354 0.55482 0.45134 0.0
C614 C 0.96205 0.52328 0.42432 0.0
C615 C 0.56298 0.556 0.96372 0.0
C616 C 0.56016 0.5222 0.93163 0.0
C617 C 0.60294 0.584 -0.0093 0.0
C618 C 0.64254 0.58023 0.98666 0.0
H619 H 0.5328 0.55821 0.97123 0.0
H620 H 0.60206 0.6079 0.01639 0.0
S621 S 0.65437 0.49964 0.90449 0.0
N622 N 0.6015 0.4881 0.89555 0.0
N623 N 0.6769 0.5419 0.94459 0.0
C624 C 0.64124 0.54872 0.95227 0.0
C625 C 0.60013 0.51954 0.92534 0.0
C626 C 0.52523 0.03318 -0.00789 0.0
C627 C 0.55894 0.06233 0.95957 0.0
C628 C 0.4977 0.04713 0.01673 0.0
C629 C 0.50162 0.09048 0.00922 0.0
H630 H 0.52098 0.99987 -0.00018 0.0
H631 H 0.47279 0.02327 0.04189 0.0
S632 S 0.5831 0.17871 0.92533 0.0
N633 N 0.59403 0.13642 0.9201 0.0
N634 N 0.54135 0.16159 0.96496 0.0
C635 C 0.53442 0.11942 0.97573 0.0
C636 C 0.56318 0.10562 0.95137 0.0
C637 C 0.03113 0.46511 0.96654 0.0
C638 C 1.00986 0.4917 0.97048 0.0
C639 C 1.01288 0.42223 -0.00992 0.0
C640 C 0.97278 0.4046 0.01814 0.0
H641 H 0.0604 0.47621 0.94321 0.0
H642 H 0.02868 0.40163 0.98404 0.0
S643 S 0.90869 0.46398 0.04614 0.0
N644 N 0.94986 0.49932 0.00989 0.0
N645 N 0.91571 0.41939 0.05238 0.0
C646 C 0.95316 0.43218 0.02449 0.0
C647 C 0.97169 0.47551 0.00122 0.0
loop_
_geom_bond_atom_site_label_1
_geom_bond_atom_site_label_2
_geom_bond_distance
_geom_bond_site_symmetry_2
_ccdc_geom_bond_type
Co0 O1 2.216 1_455 S
Co0 O2 2.091 1_455 S
Co0 O4 2.004 . S
Co0 O10 2.021 . S
Co0 O12 2.137 1_455 S
Co0 O13 2.244 . S
O1 Co0 2.216 1_655 S
O1 C8 1.247 . S
O2 Co0 2.091 1_655 S
O2 C8 1.261 . S
C3 O12 1.247 . S
C3 O13 1.272 1_655 S
O4 Co0 2.004 . S
O4 C9 1.259 . S
Co5 O6 2.061 . S
Co5 O11 2.052 . S
Co5 O13 2.135 . S
O6 Co5 2.061 . S
O6 C9 1.235 . S
C7 O10 1.238 . S
C7 O11 1.241 . S
C8 O1 1.247 . S
C8 O2 1.261 . S
C9 O4 1.259 . S
C9 O6 1.235 . S
O10 Co0 2.021 . S
O10 C7 1.238 . S
O11 Co5 2.052 . S
O11 C7 1.241 . S
O12 Co0 2.137 1_655 S
O12 C3 1.247 . S
O13 Co0 2.244 . S
O13 C3 1.272 1_455 S
O13 Co5 2.135 . S
Co14 O15 2.216 . S
Co14 O16 2.091 . S
Co14 O18 2.004 . S
Co14 O24 2.021 . S
Co14 O26 2.137 . S
Co14 O27 2.244 . S
O15 Co14 2.216 . S
O15 C22 1.247 . S
O16 Co14 2.091 . S
O16 C22 1.261 . S
C17 O26 1.247 . S
C17 O27 1.272 . S
O18 Co14 2.004 . S
O18 C23 1.259 . S
Co19 O20 2.061 . S
Co19 O25 2.052 . S
Co19 O27 2.135 . S
O20 Co19 2.061 . S
O20 C23 1.235 . S
C21 O24 1.238 . S
C21 O25 1.241 . S
C22 O15 1.247 . S
C22 O16 1.261 . S
C23 O18 1.259 . S
C23 O20 1.235 . S
O24 Co14 2.021 . S
O24 C21 1.238 . S
O25 Co19 2.052 . S
O25 C21 1.241 . S
O26 Co14 2.137 . S
O26 C17 1.247 . S
O27 Co14 2.244 . S
O27 C17 1.272 . S
O27 Co19 2.135 . S
Co28 O29 2.234 . S
Co28 O30 2.114 . S
Co28 O32 1.993 1_565 S
Co28 O38 2.009 1_565 S
Co28 O40 2.145 . S
Co28 O41 2.230 1_565 S
O29 Co28 2.234 . S
O29 C36 1.247 . S
O30 Co28 2.114 . S
O30 C36 1.261 . S
C31 O40 1.247 . S
C31 O41 1.272 1_565 S
O32 Co28 1.993 1_545 S
O32 C37 1.259 . S
Co33 O34 2.061 . S
Co33 O39 2.052 . S
Co33 O41 2.135 . S
O34 Co33 2.061 . S
O34 C37 1.235 . S
C35 O38 1.238 . S
C35 O39 1.241 . S
C36 O29 1.247 . S
C36 O30 1.261 . S
C37 O32 1.259 . S
C37 O34 1.235 . S
O38 Co28 2.009 1_545 S
O38 C35 1.238 . S
O39 Co33 2.052 . S
O39 C35 1.241 . S
O40 Co28 2.145 . S
O40 C31 1.247 . S
O41 Co28 2.230 1_545 S
O41 C31 1.272 1_545 S
O41 Co33 2.135 . S
Co42 O43 2.216 . S
Co42 O44 2.091 . S
Co42 O46 2.004 1_455 S
Co42 O52 2.021 1_455 S
Co42 O54 2.137 . S
Co42 O55 2.244 . S
O43 Co42 2.216 . S
O43 C50 1.247 . S
O44 Co42 2.091 . S
O44 C50 1.261 . S
C45 O54 1.247 . S
C45 O55 1.272 . S
O46 Co42 2.004 1_655 S
O46 C51 1.259 . S
Co47 O48 2.061 . S
Co47 O53 2.052 . S
Co47 O55 2.135 1_655 S
O48 Co47 2.061 . S
O48 C51 1.235 . S
C49 O52 1.238 . S
C49 O53 1.241 . S
C50 O43 1.247 . S
C50 O44 1.261 . S
C51 O46 1.259 . S
C51 O48 1.235 . S
O52 Co42 2.021 1_655 S
O52 C49 1.238 . S
O53 Co47 2.052 . S
O53 C49 1.241 . S
O54 Co42 2.137 . S
O54 C45 1.247 . S
O55 Co42 2.244 . S
O55 C45 1.272 . S
O55 Co47 2.135 1_455 S
Co56 O57 2.216 . S
Co56 O58 2.091 . S
Co56 O60 2.004 . S
Co56 O66 2.021 . S
Co56 O68 2.137 . S
Co56 O69 2.244 . S
O57 Co56 2.216 . S
O57 C64 1.247 . S
O58 Co56 2.091 . S
O58 C64 1.261 . S
C59 O68 1.247 . S
C59 O69 1.272 . S
O60 Co56 2.004 . S
O60 C65 1.259 . S
Co61 O62 2.061 . S
Co61 O67 2.052 . S
Co61 O69 2.135 . S
O62 Co61 2.061 . S
O62 C65 1.235 . S
C63 O66 1.238 . S
C63 O67 1.241 . S
C64 O57 1.247 . S
C64 O58 1.261 . S
C65 O60 1.259 . S
C65 O62 1.235 . S
O66 Co56 2.021 . S
O66 C63 1.238 . S
O67 Co61 2.052 . S
O67 C63 1.241 . S
O68 Co56 2.137 . S
O68 C59 1.247 . S
O69 Co56 2.244 . S
O69 C59 1.272 . S
O69 Co61 2.135 . S
Co70 O71 2.216 . S
Co70 O72 2.091 . S
Co70 O74 2.004 1_545 S
Co70 O80 2.021 1_545 S
Co70 O82 2.137 . S
Co70 O83 2.244 . S
O71 Co70 2.216 . S
O71 C78 1.247 . S
O72 Co70 2.091 . S
O72 C78 1.261 . S
C73 O82 1.247 . S
C73 O83 1.272 . S
O74 Co70 2.004 1_565 S
O74 C79 1.259 . S
Co75 O76 2.061 . S
Co75 O81 2.052 . S
Co75 O83 2.135 1_565 S
O76 Co75 2.061 . S
O76 C79 1.235 . S
C77 O80 1.238 . S
C77 O81 1.241 . S
C78 O71 1.247 . S
C78 O72 1.261 . S
C79 O74 1.259 . S
C79 O76 1.235 . S
O80 Co70 2.021 1_565 S
O80 C77 1.238 . S
O81 Co75 2.052 . S
O81 C77 1.241 . S
O82 Co70 2.137 . S
O82 C73 1.247 . S
O83 Co70 2.244 . S
O83 C73 1.272 . S
O83 Co75 2.135 1_545 S
Co84 O85 2.216 . S
Co84 O86 2.091 . S
Co84 O88 2.004 . S
Co84 O94 2.021 . S
Co84 O96 2.137 . S
Co84 O97 2.244 . S
O85 Co84 2.216 . S
O85 C92 1.247 . S
O86 Co84 2.091 . S
O86 C92 1.261 . S
C87 O96 1.247 . S
C87 O97 1.272 . S
O88 Co84 2.004 . S
O88 C93 1.259 . S
Co89 O90 2.061 . S
Co89 O95 2.052 . S
Co89 O97 2.135 . S
O90 Co89 2.061 . S
O90 C93 1.235 . S
C91 O94 1.238 . S
C91 O95 1.241 . S
C92 O85 1.247 . S
C92 O86 1.261 . S
C93 O88 1.259 . S
C93 O90 1.235 . S
O94 Co84 2.021 . S
O94 C91 1.238 . S
O95 Co89 2.052 . S
O95 C91 1.241 . S
O96 Co84 2.137 . S
O96 C87 1.247 . S
O97 Co84 2.244 . S
O97 C87 1.272 . S
O97 Co89 2.135 . S
Co98 O99 2.216 . S
Co98 O100 2.091 . S
Co98 O102 2.004 . S
Co98 O108 2.021 . S
Co98 O110 2.137 . S
Co98 O111 2.244 . S
O99 Co98 2.216 . S
O99 C106 1.247 . S
O100 Co98 2.091 . S
O100 C106 1.261 . S
C101 O110 1.247 . S
C101 O111 1.272 . S
O102 Co98 2.004 . S
O102 C107 1.259 . S
Co103 O104 2.061 . S
Co103 O109 2.052 . S
Co103 O111 2.135 . S
O104 Co103 2.061 . S
O104 C107 1.235 . S
C105 O108 1.238 . S
C105 O109 1.241 . S
C106 O99 1.247 . S
C106 O100 1.261 . S
C107 O102 1.259 . S
C107 O104 1.235 . S
O108 Co98 2.021 . S
O108 C105 1.238 . S
O109 Co103 2.052 . S
O109 C105 1.241 . S
O110 Co98 2.137 . S
O110 C101 1.247 . S
O111 Co98 2.244 . S
O111 C101 1.272 . S
O111 Co103 2.135 . S
Co112 O113 2.216 . S
Co112 O114 2.091 . S
Co112 O116 2.004 . S
Co112 O122 2.021 . S
Co112 O124 2.137 . S
Co112 O125 2.244 . S
O113 Co112 2.216 . S
O113 C120 1.247 . S
O114 Co112 2.091 . S
O114 C120 1.261 . S
C115 O124 1.247 . S
C115 O125 1.272 . S
O116 Co112 2.004 . S
O116 C121 1.259 . S
Co117 O118 2.061 . S
Co117 O123 2.052 . S
Co117 O125 2.135 . S
O118 Co117 2.061 . S
O118 C121 1.235 . S
C119 O122 1.238 . S
C119 O123 1.241 . S
C120 O113 1.247 . S
C120 O114 1.261 . S
C121 O116 1.259 . S
C121 O118 1.235 . S
O122 Co112 2.021 . S
O122 C119 1.238 . S
O123 Co117 2.052 . S
O123 C119 1.241 . S
O124 Co112 2.137 . S
O124 C115 1.247 . S
O125 Co112 2.244 . S
O125 C115 1.272 . S
O125 Co117 2.135 . S
Co126 O127 2.216 . S
Co126 O128 2.091 . S
Co126 O130 2.004 . S
Co126 O136 2.021 . S
Co126 O138 2.137 . S
Co126 O139 2.244 . S
O127 Co126 2.216 . S
O127 C134 1.247 . S
O128 Co126 2.091 . S
O128 C134 1.261 . S
C129 O138 1.247 . S
C129 O139 1.272 . S
O130 Co126 2.004 . S
O130 C135 1.259 . S
Co131 O132 2.061 . S
Co131 O137 2.052 . S
Co131 O139 2.135 . S
O132 Co131 2.061 . S
O132 C135 1.235 . S
C133 O136 1.238 . S
C133 O137 1.241 . S
C134 O127 1.247 . S
C134 O128 1.261 . S
C135 O130 1.259 . S
C135 O132 1.235 . S
O136 Co126 2.021 . S
O136 C133 1.238 . S
O137 Co131 2.052 . S
O137 C133 1.241 . S
O138 Co126 2.137 . S
O138 C129 1.247 . S
O139 Co126 2.244 . S
O139 C129 1.272 . S
O139 Co131 2.135 . S
Co140 O141 2.216 . S
Co140 O142 2.091 . S
Co140 O144 2.004 . S
Co140 O150 2.021 . S
Co140 O152 2.137 . S
Co140 O153 2.244 . S
O141 Co140 2.216 . S
O141 C148 1.247 . S
O142 Co140 2.091 . S
O142 C148 1.261 . S
C143 O152 1.247 . S
C143 O153 1.272 . S
O144 Co140 2.004 . S
O144 C149 1.259 . S
Co145 O146 2.061 . S
Co145 O151 2.052 . S
Co145 O153 2.135 . S
O146 Co145 2.061 . S
O146 C149 1.235 . S
C147 O150 1.238 . S
C147 O151 1.241 . S
C148 O141 1.247 . S
C148 O142 1.261 . S
C149 O144 1.259 . S
C149 O146 1.235 . S
O150 Co140 2.021 . S
O150 C147 1.238 . S
O151 Co145 2.052 . S
O151 C147 1.241 . S
O152 Co140 2.137 . S
O152 C143 1.247 . S
O153 Co140 2.244 . S
O153 C143 1.272 . S
O153 Co145 2.135 . S
Co154 O155 2.216 . S
Co154 O156 2.091 . S
Co154 O158 2.004 . S
Co154 O164 2.021 . S
Co154 O166 2.137 . S
Co154 O167 2.244 . S
O155 Co154 2.216 . S
O155 C162 1.247 . S
O156 Co154 2.091 . S
O156 C162 1.261 . S
C157 O166 1.247 . S
C157 O167 1.272 . S
O158 Co154 2.004 . S
O158 C163 1.259 . S
Co159 O160 2.061 . S
Co159 O165 2.052 . S
Co159 O167 2.135 . S
O160 Co159 2.061 . S
O160 C163 1.235 . S
C161 O164 1.238 . S
C161 O165 1.241 . S
C162 O155 1.247 . S
C162 O156 1.261 . S
C163 O158 1.259 . S
C163 O160 1.235 . S
O164 Co154 2.021 . S
O164 C161 1.238 . S
O165 Co159 2.052 . S
O165 C161 1.241 . S
O166 Co154 2.137 . S
O166 C157 1.247 . S
O167 Co154 2.244 . S
O167 C157 1.272 . S
O167 Co159 2.135 . S
Co168 O169 2.216 . S
Co168 O170 2.091 . S
Co168 O172 2.004 . S
Co168 O178 2.021 . S
Co168 O180 2.137 . S
Co168 O181 2.244 . S
O169 Co168 2.216 . S
O169 C176 1.247 . S
O170 Co168 2.091 . S
O170 C176 1.261 . S
C171 O180 1.247 . S
C171 O181 1.272 . S
O172 Co168 2.004 . S
O172 C177 1.259 . S
Co173 O174 2.061 . S
Co173 O179 2.052 . S
Co173 O181 2.135 . S
O174 Co173 2.061 . S
O174 C177 1.235 . S
C175 O178 1.238 . S
C175 O179 1.241 . S
C176 O169 1.247 . S
C176 O170 1.261 . S
C177 O172 1.259 . S
C177 O174 1.235 . S
O178 Co168 2.021 . S
O178 C175 1.238 . S
O179 Co173 2.052 . S
O179 C175 1.241 . S
O180 Co168 2.137 . S
O180 C171 1.247 . S
O181 Co168 2.244 . S
O181 C171 1.272 . S
O181 Co173 2.135 . S
Co182 O183 2.216 . S
Co182 O184 2.091 . S
Co182 O186 2.004 . S
Co182 O192 2.021 . S
Co182 O194 2.137 . S
Co182 O195 2.244 . S
O183 Co182 2.216 . S
O183 C190 1.247 . S
O184 Co182 2.091 . S
O184 C190 1.261 . S
C185 O194 1.247 . S
C185 O195 1.272 . S
O186 Co182 2.004 . S
O186 C191 1.259 . S
Co187 O188 2.061 . S
Co187 O193 2.052 . S
Co187 O195 2.135 . S
O188 Co187 2.061 . S
O188 C191 1.235 . S
C189 O192 1.238 . S
C189 O193 1.241 . S
C190 O183 1.247 . S
C190 O184 1.261 . S
C191 O186 1.259 . S
C191 O188 1.235 . S
O192 Co182 2.021 . S
O192 C189 1.238 . S
O193 Co187 2.052 . S
O193 C189 1.241 . S
O194 Co182 2.137 . S
O194 C185 1.247 . S
O195 Co182 2.244 . S
O195 C185 1.272 . S
O195 Co187 2.135 . S
Co196 O197 2.216 . S
Co196 O198 2.091 . S
Co196 O200 2.004 . S
Co196 O206 2.021 . S
Co196 O208 2.137 . S
Co196 O209 2.244 . S
O197 Co196 2.216 . S
O197 C204 1.247 . S
O198 Co196 2.091 . S
O198 C204 1.261 . S
C199 O208 1.247 . S
C199 O209 1.272 . S
O200 Co196 2.004 . S
O200 C205 1.259 . S
Co201 O202 2.061 . S
Co201 O207 2.052 . S
Co201 O209 2.135 . S
O202 Co201 2.061 . S
O202 C205 1.235 . S
C203 O206 1.238 . S
C203 O207 1.241 . S
C204 O197 1.247 . S
C204 O198 1.261 . S
C205 O200 1.259 . S
C205 O202 1.235 . S
O206 Co196 2.021 . S
O206 C203 1.238 . S
O207 Co201 2.052 . S
O207 C203 1.241 . S
O208 Co196 2.137 . S
O208 C199 1.247 . S
O209 Co196 2.244 . S
O209 C199 1.272 . S
O209 Co201 2.135 . S
Co210 O211 2.216 . S
Co210 O212 2.091 . S
Co210 O214 2.004 . S
Co210 O220 2.021 . S
Co210 O222 2.137 . S
Co210 O223 2.244 . S
O211 Co210 2.216 . S
O211 C218 1.247 . S
O212 Co210 2.091 . S
O212 C218 1.261 . S
C213 O222 1.247 . S
C213 O223 1.272 . S
O214 Co210 2.004 . S
O214 C219 1.259 . S
Co215 O216 2.061 . S
Co215 O221 2.052 . S
Co215 O223 2.135 . S
O216 Co215 2.061 . S
O216 C219 1.235 . S
C217 O220 1.238 . S
C217 O221 1.241 . S
C218 O211 1.247 . S
C218 O212 1.261 . S
C219 O214 1.259 . S
C219 O216 1.235 . S
O220 Co210 2.021 . S
O220 C217 1.238 . S
O221 Co215 2.052 . S
O221 C217 1.241 . S
O222 Co210 2.137 . S
O222 C213 1.247 . S
O223 Co210 2.244 . S
O223 C213 1.272 . S
O223 Co215 2.135 . S
Co224 O225 2.216 . S
Co224 O226 2.091 . S
Co224 O228 2.004 . S
Co224 O234 2.021 . S
Co224 O236 2.137 . S
Co224 O237 2.244 . S
O225 Co224 2.216 . S
O225 C232 1.247 . S
O226 Co224 2.091 . S
O226 C232 1.261 . S
C227 O236 1.247 . S
C227 O237 1.272 . S
O228 Co224 2.004 . S
O228 C233 1.259 . S
Co229 O230 2.061 1_655 S
Co229 O235 2.052 1_655 S
Co229 O237 2.135 1_655 S
O230 Co229 2.061 1_455 S
O230 C233 1.235 . S
C231 O234 1.238 . S
C231 O235 1.241 . S
C232 O225 1.247 . S
C232 O226 1.261 . S
C233 O228 1.259 . S
C233 O230 1.235 . S
O234 Co224 2.021 . S
O234 C231 1.238 . S
O235 Co229 2.052 1_455 S
O235 C231 1.241 . S
O236 Co224 2.137 . S
O236 C227 1.247 . S
O237 Co224 2.244 . S
O237 C227 1.272 . S
O237 Co229 2.135 1_455 S
Co238 O239 2.216 . S
Co238 O240 2.091 . S
Co238 O242 2.004 . S
Co238 O248 2.021 . S
Co238 O250 2.137 . S
Co238 O251 2.244 . S
O239 Co238 2.216 . S
O239 C246 1.247 . S
O240 Co238 2.091 . S
O240 C246 1.261 . S
C241 O250 1.247 . S
C241 O251 1.272 . S
O242 Co238 2.004 . S
O242 C247 1.259 . S
Co243 O244 2.061 . S
Co243 O249 2.052 . S
Co243 O251 2.135 . S
O244 Co243 2.061 . S
O244 C247 1.235 . S
C245 O248 1.238 . S
C245 O249 1.241 . S
C246 O239 1.247 . S
C246 O240 1.261 . S
C247 O242 1.259 . S
C247 O244 1.235 . S
O248 Co238 2.021 . S
O248 C245 1.238 . S
O249 Co243 2.052 . S
O249 C245 1.241 . S
O250 Co238 2.137 . S
O250 C241 1.247 . S
O251 Co238 2.244 . S
O251 C241 1.272 . S
O251 Co243 2.135 . S
C252 C253 1.369 . S
C252 C254 1.419 . S
C252 H256 0.930 . S
C253 C252 1.369 . S
C253 C262 1.429 . S
C254 C252 1.419 . S
C254 C255 1.363 . S
C254 H257 0.929 . S
C255 C254 1.363 . S
C255 C261 1.428 . S
H256 C252 0.930 . S
H257 C254 0.929 . S
S258 N259 1.613 . S
S258 N260 1.610 . S
N259 S258 1.613 . S
N259 C262 1.350 . S
N260 S258 1.610 . S
N260 C261 1.351 . S
C261 C255 1.428 . S
C261 N260 1.351 . S
C261 C262 1.434 . S
C262 C253 1.429 . S
C262 N259 1.350 . S
C262 C261 1.434 . S
C263 C264 1.369 . S
C263 C265 1.419 . S
C263 H267 0.930 . S
C264 C263 1.369 . S
C264 C273 1.429 . S
C265 C263 1.419 . S
C265 C266 1.363 . S
C265 H268 0.929 . S
C266 C265 1.363 . S
C266 C272 1.428 . S
H267 C263 0.930 . S
H268 C265 0.929 . S
S269 N270 1.613 . S
S269 N271 1.610 . S
N270 S269 1.613 . S
N270 C273 1.350 . S
N271 S269 1.610 . S
N271 C272 1.351 . S
C272 C266 1.428 . S
C272 N271 1.351 . S
C272 C273 1.434 . S
C273 C264 1.429 . S
C273 N270 1.350 . S
C273 C272 1.434 . S
C274 C275 1.369 . S
C274 C276 1.419 . S
C274 H278 0.930 . S
C275 C274 1.369 . S
C275 C284 1.429 . S
C276 C274 1.419 . S
C276 C277 1.363 . S
C276 H279 0.929 . S
C277 C276 1.363 . S
C277 C283 1.428 . S
H278 C274 0.930 . S
H279 C276 0.929 . S
S280 N281 1.613 . S
S280 N282 1.610 . S
N281 S280 1.613 . S
N281 C284 1.350 1_545 S
N282 S280 1.610 . S
N282 C283 1.351 1_545 S
C283 C277 1.428 . S
C283 N282 1.351 1_565 S
C283 C284 1.434 . S
C284 C275 1.429 . S
C284 N281 1.350 1_565 S
C284 C283 1.434 . S
C285 C286 1.369 . S
C285 C287 1.419 . S
C285 H289 0.930 . S
C286 C285 1.369 . S
C286 C295 1.429 . S
C287 C285 1.419 . S
C287 C288 1.363 . S
C287 H290 0.929 . S
C288 C287 1.363 . S
C288 C294 1.428 . S
H289 C285 0.930 . S
H290 C287 0.929 . S
S291 N292 1.613 . S
S291 N293 1.610 . S
N292 S291 1.613 . S
N292 C295 1.350 1_565 S
N293 S291 1.610 . S
N293 C294 1.351 1_565 S
C294 C288 1.428 . S
C294 N293 1.351 1_545 S
C294 C295 1.434 . S
C295 C286 1.429 . S
C295 N292 1.350 1_545 S
C295 C294 1.434 . S
C296 C297 1.369 . S
C296 C298 1.419 1_655 S
C296 H300 0.930 1_655 S
C297 C296 1.369 . S
C297 C306 1.429 . S
C298 C296 1.419 1_455 S
C298 C299 1.363 1_455 S
C298 H301 0.929 . S
C299 C298 1.363 1_655 S
C299 C305 1.428 . S
H300 C296 0.930 1_455 S
H301 C298 0.929 . S
S302 N303 1.613 . S
S302 N304 1.610 . S
N303 S302 1.613 . S
N303 C306 1.350 . S
N304 S302 1.610 . S
N304 C305 1.351 . S
C305 C299 1.428 . S
C305 N304 1.351 . S
C305 C306 1.434 . S
C306 C297 1.429 . S
C306 N303 1.350 . S
C306 C305 1.434 . S
C307 C308 1.369 . S
C307 C309 1.419 . S
C307 H311 0.930 . S
C308 C307 1.369 . S
C308 C317 1.429 . S
C309 C307 1.419 . S
C309 C310 1.363 . S
C309 H312 0.929 . S
C310 C309 1.363 . S
C310 C316 1.428 . S
H311 C307 0.930 . S
H312 C309 0.929 . S
S313 N314 1.613 . S
S313 N315 1.610 . S
N314 S313 1.613 . S
N314 C317 1.350 . S
N315 S313 1.610 . S
N315 C316 1.351 . S
C316 C310 1.428 . S
C316 N315 1.351 . S
C316 C317 1.434 . S
C317 C308 1.429 . S
C317 N314 1.350 . S
C317 C316 1.434 . S
C318 C319 1.369 . S
C318 C320 1.419 . S
C318 H322 0.930 . S
C319 C318 1.369 . S
C319 C328 1.429 . S
C320 C318 1.419 . S
C320 C321 1.363 . S
C320 H323 0.929 . S
C321 C320 1.363 . S
C321 C327 1.428 . S
H322 C318 0.930 . S
H323 C320 0.929 . S
S324 N325 1.613 . S
S324 N326 1.620 1_455 S
N325 S324 1.613 . S
N325 C328 1.350 1_455 S
N326 S324 1.620 1_655 S
N326 C327 1.368 . S
C327 C321 1.428 . S
C327 N326 1.368 . S
C327 C328 1.434 . S
C328 C319 1.429 . S
C328 N325 1.350 1_655 S
C328 C327 1.434 . S
C329 C330 1.369 . S
C329 C331 1.419 . S
C329 H333 0.930 . S
C330 C329 1.369 . S
C330 C339 1.429 . S
C331 C329 1.419 . S
C331 C332 1.363 . S
C331 H334 0.929 . S
C332 C331 1.363 . S
C332 C338 1.428 . S
H333 C329 0.930 . S
H334 C331 0.929 . S
S335 N336 1.613 . S
S335 N337 1.610 . S
N336 S335 1.613 . S
N336 C339 1.350 . S
N337 S335 1.610 . S
N337 C338 1.351 . S
C338 C332 1.428 . S
C338 N337 1.351 . S
C338 C339 1.434 . S
C339 C330 1.429 . S
C339 N336 1.350 . S
C339 C338 1.434 . S
C340 C341 1.369 . S
C340 C342 1.419 . S
C340 H344 0.930 . S
C341 C340 1.369 . S
C341 C350 1.429 . S
C342 C340 1.419 . S
C342 C343 1.363 . S
C342 H345 0.929 . S
C343 C342 1.363 . S
C343 C349 1.428 . S
H344 C340 0.930 . S
H345 C342 0.929 . S
S346 N347 1.613 . S
S346 N348 1.610 . S
N347 S346 1.613 . S
N347 C350 1.350 1_565 S
N348 S346 1.610 . S
N348 C349 1.351 1_565 S
C349 C343 1.428 . S
C349 N348 1.351 1_545 S
C349 C350 1.434 . S
C350 C341 1.429 . S
C350 N347 1.350 1_545 S
C350 C349 1.434 . S
C351 C352 1.369 . S
C351 C353 1.419 . S
C351 H355 0.930 . S
C352 C351 1.369 . S
C352 C361 1.429 . S
C353 C351 1.419 . S
C353 C354 1.363 . S
C353 H356 0.929 . S
C354 C353 1.363 . S
C354 C360 1.428 . S
H355 C351 0.930 . S
H356 C353 0.929 . S
S357 N358 1.613 . S
S357 N359 1.610 . S
N358 S357 1.613 . S
N358 C361 1.350 1_545 S
N359 S357 1.610 . S
N359 C360 1.351 1_545 S
C360 C354 1.428 . S
C360 N359 1.351 1_565 S
C360 C361 1.434 . S
C361 C352 1.429 . S
C361 N358 1.350 1_565 S
C361 C360 1.434 . S
C362 C363 1.369 . S
C362 C364 1.419 . S
C362 H366 0.930 . S
C363 C362 1.369 . S
C363 C372 1.429 . S
C364 C362 1.419 . S
C364 C365 1.363 . S
C364 H367 0.929 . S
C365 C364 1.363 . S
C365 C371 1.428 . S
H366 C362 0.930 . S
H367 C364 0.929 . S
S368 N369 1.613 . S
S368 N370 1.610 1_655 S
N369 S368 1.613 . S
N369 C372 1.350 1_655 S
N370 S368 1.610 1_455 S
N370 C371 1.351 . S
C371 C365 1.428 . S
C371 N370 1.351 . S
C371 C372 1.434 . S
C372 C363 1.429 . S
C372 N369 1.350 1_455 S
C372 C371 1.434 . S
C373 C374 1.369 . S
C373 C375 1.419 . S
C373 H377 0.930 . S
C374 C373 1.369 . S
C374 C383 1.429 . S
C375 C373 1.419 . S
C375 C376 1.363 . S
C375 H378 0.929 . S
C376 C375 1.363 . S
C376 C382 1.428 . S
H377 C373 0.930 . S
H378 C375 0.929 . S
S379 N380 1.613 . S
S379 N381 1.610 . S
N380 S379 1.613 . S
N380 C383 1.350 . S
N381 S379 1.610 . S
N381 C382 1.351 . S
C382 C376 1.428 . S
C382 N381 1.351 . S
C382 C383 1.434 . S
C383 C374 1.429 . S
C383 N380 1.350 . S
C383 C382 1.434 . S
C384 C385 1.369 . S
C384 C386 1.419 . S
C384 H388 0.930 . S
C385 C384 1.369 . S
C385 C394 1.429 . S
C386 C384 1.419 . S
C386 C387 1.363 . S
C386 H389 0.929 . S
C387 C386 1.363 . S
C387 C393 1.428 . S
H388 C384 0.930 . S
H389 C386 0.929 . S
S390 N391 1.613 . S
S390 N392 1.610 . S
N391 S390 1.613 . S
N391 C394 1.350 . S
N392 S390 1.610 . S
N392 C393 1.351 . S
C393 C387 1.428 . S
C393 N392 1.351 . S
C393 C394 1.434 . S
C394 C385 1.429 . S
C394 N391 1.350 . S
C394 C393 1.434 . S
C395 C396 1.369 . S
C395 C397 1.419 . S
C395 H399 0.930 . S
C396 C395 1.369 . S
C396 C405 1.429 1_545 S
C397 C395 1.419 . S
C397 C398 1.363 1_545 S
C397 H400 0.929 . S
C398 C397 1.363 1_565 S
C398 C404 1.428 . S
H399 C395 0.930 . S
H400 C397 0.929 . S
S401 N402 1.613 . S
S401 N403 1.610 . S
N402 S401 1.613 . S
N402 C405 1.350 . S
N403 S401 1.610 . S
N403 C404 1.351 . S
C404 C398 1.428 . S
C404 N403 1.351 . S
C404 C405 1.434 . S
C405 C396 1.429 1_565 S
C405 N402 1.350 . S
C405 C404 1.434 . S
C406 C407 1.369 . S
C406 C408 1.419 1_455 S
C406 H410 0.930 1_455 S
C407 C406 1.369 . S
C407 C416 1.429 . S
C408 C406 1.419 1_655 S
C408 C409 1.363 . S
C408 H411 0.929 . S
C409 C408 1.363 . S
C409 C415 1.428 1_655 S
H410 C406 0.930 1_655 S
H411 C408 0.929 . S
S412 N413 1.613 . S
S412 N414 1.610 . S
N413 S412 1.613 . S
N413 C416 1.350 . S
N414 S412 1.610 . S
N414 C415 1.351 . S
C415 C409 1.428 1_455 S
C415 N414 1.351 . S
C415 C416 1.434 . S
C416 C407 1.429 . S
C416 N413 1.350 . S
C416 C415 1.434 . S
C417 C418 1.369 . S
C417 C419 1.419 . S
C417 H421 0.930 . S
C418 C417 1.369 . S
C418 C427 1.429 . S
C419 C417 1.419 . S
C419 C420 1.363 . S
C419 H422 0.929 . S
C420 C419 1.363 . S
C420 C426 1.428 . S
H421 C417 0.930 . S
H422 C419 0.929 . S
S423 N424 1.613 . S
S423 N425 1.610 . S
N424 S423 1.613 . S
N424 C427 1.350 . S
N425 S423 1.610 . S
N425 C426 1.351 . S
C426 C420 1.428 . S
C426 N425 1.351 . S
C426 C427 1.434 . S
C427 C418 1.429 . S
C427 N424 1.350 . S
C427 C426 1.434 . S
C428 C429 1.369 . S
C428 C430 1.419 1_545 S
C428 H432 0.930 . S
C429 C428 1.369 . S
C429 C438 1.429 . S
C430 C428 1.419 1_565 S
C430 C431 1.363 . S
C430 H433 0.929 . S
C431 C430 1.363 . S
C431 C437 1.428 . S
H432 C428 0.930 . S
H433 C430 0.929 . S
S434 N435 1.613 . S
S434 N436 1.610 1_545 S
N435 S434 1.613 . S
N435 C438 1.350 . S
N436 S434 1.610 1_565 S
N436 C437 1.351 . S
C437 C431 1.428 . S
C437 N436 1.351 . S
C437 C438 1.434 1_565 S
C438 C429 1.429 . S
C438 N435 1.350 . S
C438 C437 1.434 1_545 S
C439 C440 1.369 1_655 S
C439 C441 1.419 . S
C439 H443 0.930 . S
C440 C439 1.369 1_455 S
C440 C449 1.429 . S
C441 C439 1.419 . S
C441 C442 1.363 . S
C441 H444 0.929 . S
C442 C441 1.363 . S
C442 C448 1.428 1_655 S
H443 C439 0.930 . S
H444 C441 0.929 . S
S445 N446 1.613 . S
S445 N447 1.610 . S
N446 S445 1.613 . S
N446 C449 1.350 . S
N447 S445 1.610 . S
N447 C448 1.351 . S
C448 C442 1.428 1_455 S
C448 N447 1.351 . S
C448 C449 1.434 . S
C449 C440 1.429 . S
C449 N446 1.350 . S
C449 C448 1.434 . S
C450 C451 1.369 . S
C450 C452 1.419 . S
C450 H454 0.930 . S
C451 C450 1.369 . S
C451 C460 1.429 . S
C452 C450 1.419 . S
C452 C453 1.363 . S
C452 H455 0.929 . S
C453 C452 1.363 . S
C453 C459 1.428 . S
H454 C450 0.930 . S
H455 C452 0.929 . S
S456 N457 1.613 . S
S456 N458 1.610 . S
N457 S456 1.613 . S
N457 C460 1.350 . S
N458 S456 1.610 . S
N458 C459 1.351 . S
C459 C453 1.428 . S
C459 N458 1.351 . S
C459 C460 1.434 . S
C460 C451 1.429 . S
C460 N457 1.350 . S
C460 C459 1.434 . S
C461 C462 1.369 . S
C461 C463 1.419 . S
C461 H465 0.930 . S
C462 C461 1.369 . S
C462 C471 1.429 . S
C463 C461 1.419 . S
C463 C464 1.363 . S
C463 H466 0.929 . S
C464 C463 1.363 . S
C464 C470 1.428 . S
H465 C461 0.930 . S
H466 C463 0.929 . S
S467 N468 1.613 . S
S467 N469 1.610 . S
N468 S467 1.613 . S
N468 C471 1.350 . S
N469 S467 1.610 . S
N469 C470 1.351 . S
C470 C464 1.428 . S
C470 N469 1.351 . S
C470 C471 1.434 . S
C471 C462 1.429 . S
C471 N468 1.350 . S
C471 C470 1.434 . S
C472 C473 1.369 . S
C472 C474 1.419 . S
C472 H476 0.930 . S
C473 C472 1.369 . S
C473 C482 1.429 . S
C474 C472 1.419 . S
C474 C475 1.363 . S
C474 H477 0.929 . S
C475 C474 1.363 . S
C475 C481 1.428 . S
H476 C472 0.930 . S
H477 C474 0.929 . S
S478 N479 1.613 . S
S478 N480 1.610 . S
N479 S478 1.613 . S
N479 C482 1.350 . S
N480 S478 1.610 . S
N480 C481 1.351 . S
C481 C475 1.428 . S
C481 N480 1.351 . S
C481 C482 1.434 . S
C482 C473 1.429 . S
C482 N479 1.350 . S
C482 C481 1.434 . S
C483 C484 1.369 . S
C483 C485 1.419 . S
C483 H487 0.930 . S
C484 C483 1.369 . S
C484 C493 1.429 . S
C485 C483 1.419 . S
C485 C486 1.363 . S
C485 H488 0.929 . S
C486 C485 1.363 . S
C486 C492 1.428 . S
H487 C483 0.930 . S
H488 C485 0.929 . S
S489 N490 1.613 . S
S489 N491 1.610 . S
N490 S489 1.613 . S
N490 C493 1.350 . S
N491 S489 1.610 . S
N491 C492 1.351 . S
C492 C486 1.428 . S
C492 N491 1.351 . S
C492 C493 1.434 . S
C493 C484 1.429 . S
C493 N490 1.350 . S
C493 C492 1.434 . S
C494 C495 1.369 . S
C494 C496 1.419 . S
C494 H498 0.930 . S
C495 C494 1.369 . S
C495 C504 1.429 . S
C496 C494 1.419 . S
C496 C497 1.363 . S
C496 H499 0.929 . S
C497 C496 1.363 . S
C497 C503 1.428 . S
H498 C494 0.930 . S
H499 C496 0.929 . S
S500 N501 1.613 . S
S500 N502 1.610 . S
N501 S500 1.613 . S
N501 C504 1.350 . S
N502 S500 1.610 . S
N502 C503 1.351 . S
C503 C497 1.428 . S
C503 N502 1.351 . S
C503 C504 1.434 . S
C504 C495 1.429 . S
C504 N501 1.350 . S
C504 C503 1.434 . S
C505 C506 1.369 . S
C505 C507 1.419 . S
C505 H509 0.930 . S
C506 C505 1.369 . S
C506 C515 1.429 . S
C507 C505 1.419 . S
C507 C508 1.363 . S
C507 H510 0.929 . S
C508 C507 1.363 . S
C508 C514 1.428 . S
H509 C505 0.930 . S
H510 C507 0.929 . S
S511 N512 1.613 . S
S511 N513 1.610 . S
N512 S511 1.613 . S
N512 C515 1.350 . S
N513 S511 1.610 . S
N513 C514 1.351 . S
C514 C508 1.428 . S
C514 N513 1.351 . S
C514 C515 1.434 . S
C515 C506 1.429 . S
C515 N512 1.350 . S
C515 C514 1.434 . S
C516 C517 1.369 . S
C516 C518 1.419 . S
C516 H520 0.930 . S
C517 C516 1.369 . S
C517 C526 1.429 . S
C518 C516 1.419 . S
C518 C519 1.363 . S
C518 H521 0.929 . S
C519 C518 1.363 . S
C519 C525 1.428 . S
H520 C516 0.930 . S
H521 C518 0.929 . S
S522 N523 1.613 . S
S522 N524 1.610 . S
N523 S522 1.613 . S
N523 C526 1.350 . S
N524 S522 1.610 . S
N524 C525 1.351 . S
C525 C519 1.428 . S
C525 N524 1.351 . S
C525 C526 1.434 . S
C526 C517 1.429 . S
C526 N523 1.350 . S
C526 C525 1.434 . S
C527 C528 1.369 . S
C527 C529 1.419 . S
C527 H531 0.930 . S
C528 C527 1.369 . S
C528 C537 1.429 . S
C529 C527 1.419 . S
C529 C530 1.363 . S
C529 H532 0.929 . S
C530 C529 1.363 . S
C530 C536 1.428 . S
H531 C527 0.930 . S
H532 C529 0.929 . S
S533 N534 1.613 . S
S533 N535 1.610 . S
N534 S533 1.613 . S
N534 C537 1.350 . S
N535 S533 1.610 . S
N535 C536 1.351 . S
C536 C530 1.428 . S
C536 N535 1.351 . S
C536 C537 1.434 . S
C537 C528 1.429 . S
C537 N534 1.350 . S
C537 C536 1.434 . S
C538 C539 1.369 . S
C538 C540 1.419 . S
C538 H542 0.930 . S
C539 C538 1.369 . S
C539 C548 1.429 . S
C540 C538 1.419 . S
C540 C541 1.363 . S
C540 H543 0.929 . S
C541 C540 1.363 . S
C541 C547 1.428 . S
H542 C538 0.930 . S
H543 C540 0.929 . S
S544 N545 1.613 . S
S544 N546 1.610 . S
N545 S544 1.613 . S
N545 C548 1.350 . S
N546 S544 1.610 . S
N546 C547 1.351 . S
C547 C541 1.428 . S
C547 N546 1.351 . S
C547 C548 1.434 . S
C548 C539 1.429 . S
C548 N545 1.350 . S
C548 C547 1.434 . S
C549 C550 1.369 . S
C549 C551 1.419 . S
C549 H553 0.930 . S
C550 C549 1.369 . S
C550 C559 1.429 . S
C551 C549 1.419 . S
C551 C552 1.363 . S
C551 H554 0.929 . S
C552 C551 1.363 . S
C552 C558 1.428 . S
H553 C549 0.930 . S
H554 C551 0.929 . S
S555 N556 1.613 . S
S555 N557 1.610 . S
N556 S555 1.613 . S
N556 C559 1.350 . S
N557 S555 1.610 . S
N557 C558 1.351 . S
C558 C552 1.428 . S
C558 N557 1.351 . S
C558 C559 1.434 . S
C559 C550 1.429 . S
C559 N556 1.350 . S
C559 C558 1.434 . S
C560 C561 1.369 . S
C560 C562 1.419 . S
C560 H564 0.930 . S
C561 C560 1.369 . S
C561 C570 1.429 . S
C562 C560 1.419 . S
C562 C563 1.363 . S
C562 H565 0.929 . S
C563 C562 1.363 . S
C563 C569 1.428 . S
H564 C560 0.930 . S
H565 C562 0.929 . S
S566 N567 1.613 . S
S566 N568 1.610 . S
N567 S566 1.613 . S
N567 C570 1.350 . S
N568 S566 1.610 . S
N568 C569 1.351 . S
C569 C563 1.428 . S
C569 N568 1.351 . S
C569 C570 1.434 . S
C570 C561 1.429 . S
C570 N567 1.350 . S
C570 C569 1.434 . S
C571 C572 1.369 . S
C571 C573 1.419 . S
C571 H575 0.930 . S
C572 C571 1.369 . S
C572 C581 1.429 . S
C573 C571 1.419 . S
C573 C574 1.363 . S
C573 H576 0.929 . S
C574 C573 1.363 . S
C574 C580 1.428 . S
H575 C571 0.930 . S
H576 C573 0.929 . S
S577 N578 1.613 . S
S577 N579 1.610 . S
N578 S577 1.613 . S
N578 C581 1.350 . S
N579 S577 1.610 . S
N579 C580 1.351 . S
C580 C574 1.428 . S
C580 N579 1.351 . S
C580 C581 1.434 . S
C581 C572 1.429 . S
C581 N578 1.350 . S
C581 C580 1.434 . S
C582 C583 1.369 . S
C582 C584 1.419 . S
C582 H586 0.930 . S
C583 C582 1.369 . S
C583 C592 1.429 . S
C584 C582 1.419 . S
C584 C585 1.363 . S
C584 H587 0.929 . S
C585 C584 1.363 . S
C585 C591 1.428 . S
H586 C582 0.930 . S
H587 C584 0.929 . S
S588 N589 1.613 . S
S588 N590 1.610 . S
N589 S588 1.613 . S
N589 C592 1.350 . S
N590 S588 1.610 . S
N590 C591 1.351 . S
C591 C585 1.428 . S
C591 N590 1.351 . S
C591 C592 1.434 . S
C592 C583 1.429 . S
C592 N589 1.350 . S
C592 C591 1.434 . S
C593 C594 1.369 . S
C593 C595 1.419 1_545 S
C593 H597 0.930 . S
C594 C593 1.369 . S
C594 C603 1.429 . S
C595 C593 1.419 1_565 S
C595 C596 1.363 . S
C595 H598 0.929 . S
C596 C595 1.363 . S
C596 C602 1.428 . S
H597 C593 0.930 . S
H598 C595 0.929 . S
S599 N600 1.613 . S
S599 N601 1.610 1_545 S
N600 S599 1.613 . S
N600 C603 1.350 . S
N601 S599 1.610 1_565 S
N601 C602 1.351 . S
C602 C596 1.428 . S
C602 N601 1.351 . S
C602 C603 1.434 1_565 S
C603 C594 1.429 . S
C603 N600 1.350 . S
C603 C602 1.434 1_545 S
C604 C605 1.369 . S
C604 C606 1.419 . S
C604 H608 0.930 . S
C605 C604 1.369 . S
C605 C614 1.429 . S
C606 C604 1.419 . S
C606 C607 1.363 1_455 S
C606 H609 0.929 . S
C607 C606 1.363 1_655 S
C607 C613 1.428 . S
H608 C604 0.930 . S
H609 C606 0.929 . S
S610 N611 1.613 . S
S610 N612 1.610 . S
N611 S610 1.613 . S
N611 C614 1.350 1_655 S
N612 S610 1.610 . S
N612 C613 1.351 . S
C613 C607 1.428 . S
C613 N612 1.351 . S
C613 C614 1.434 1_655 S
C614 C605 1.429 . S
C614 N611 1.350 1_455 S
C614 C613 1.434 1_455 S
C615 C616 1.369 1_554 S
C615 C617 1.419 . S
C615 H619 0.930 . S
C616 C615 1.369 1_556 S
C616 C625 1.429 . S
C617 C615 1.419 . S
C617 C618 1.363 . S
C617 H620 0.929 . S
C618 C617 1.363 . S
C618 C624 1.428 1_554 S
H619 C615 0.930 . S
H620 C617 0.929 . S
S621 N622 1.613 . S
S621 N623 1.610 . S
N622 S621 1.613 . S
N622 C625 1.350 . S
N623 S621 1.610 . S
N623 C624 1.351 . S
C624 C618 1.428 1_556 S
C624 N623 1.351 . S
C624 C625 1.434 . S
C625 C616 1.429 . S
C625 N622 1.350 . S
C625 C624 1.434 . S
C626 C627 1.369 1_554 S
C626 C628 1.419 1_565 S
C626 H630 0.930 . S
C627 C626 1.369 1_556 S
C627 C636 1.429 1_565 S
C628 C626 1.419 1_545 S
C628 C629 1.363 . S
C628 H631 0.929 1_545 S
C629 C628 1.363 . S
C629 C635 1.428 1_554 S
H630 C626 0.930 . S
H631 C628 0.929 1_565 S
S632 N633 1.613 . S
S632 N634 1.610 . S
N633 S632 1.613 . S
N633 C636 1.350 . S
N634 S632 1.610 . S
N634 C635 1.351 . S
C635 C629 1.428 1_556 S
C635 N634 1.351 . S
C635 C636 1.434 . S
C636 C627 1.429 1_545 S
C636 N633 1.350 . S
C636 C635 1.434 . S
C637 C638 1.369 . S
C637 C639 1.419 1_455 S
C637 H641 0.930 . S
C638 C637 1.369 . S
C638 C647 1.429 1_556 S
C639 C637 1.419 1_655 S
C639 C640 1.363 1_556 S
C639 H642 0.929 . S
C640 C639 1.363 1_554 S
C640 C646 1.428 . S
H641 C637 0.930 . S
H642 C639 0.929 . S
S643 N644 1.613 . S
S643 N645 1.610 1_455 S
N644 S643 1.613 . S
N644 C647 1.350 . S
N645 S643 1.610 1_655 S
N645 C646 1.351 . S
C646 C640 1.428 . S
C646 N645 1.351 . S
C646 C647 1.434 1_655 S
C647 C638 1.429 1_554 S
C647 N644 1.350 . S
C647 C646 1.434 1_455 S
C253 C7 1.251 . S
C255 C203 1.257 1_554 S
C264 C171 1.221 1_554 S
C266 C17 1.223 . S
C275 C31 1.244 . S
C277 C189 1.238 1_554 S
C286 C91 1.249 . S
C288 C35 1.252 . S
C297 C105 1.240 . S
C299 C3 1.246 . S
C308 C119 1.248 . S
C310 C21 1.254 . S
C319 C49 1.256 . S
C321 C161 1.251 1_556 S
C330 C133 1.244 1_556 S
C332 C59 1.251 . S
C341 C147 1.241 1_556 S
C343 C73 1.247 . S
C352 C77 1.256 . S
C354 C217 1.254 . S
C363 C45 1.221 . S
C365 C227 1.224 . S
C374 C241 1.241 . S
C376 C63 1.234 . S
C385 C175 1.235 . S
C387 C115 1.242 . S
C396 C87 1.228 . S
C398 C185 1.227 . S
C407 C199 1.225 . S
C409 C101 1.226 . S
C418 C245 1.232 . S
C420 C129 1.238 . S
C429 C143 1.222 . S
C431 C213 1.224 . S
C440 C231 1.233 . S
C442 C157 1.239 . S
C451 C219 1.676 . S
C453 C9 1.682 . S
C462 C22 1.787 . S
C464 C232 1.795 . S
C473 C36 1.856 . S
C475 C246 1.861 . S
C484 C37 1.688 . S
C486 C163 1.696 . S
C495 C135 1.692 . S
C497 C8 1.853 . S
C506 C23 1.617 . S
C508 C149 1.629 . S
C517 C93 1.644 . S
C519 C51 1.644 . S
C528 C107 1.641 . S
C530 C64 1.794 . S
C539 C78 1.885 . S
C541 C121 1.702 . S
C550 C79 1.693 . S
C552 C205 1.694 . S
C561 C50 1.816 . S
C563 C176 1.809 . S
C572 C65 1.647 . S
C574 C191 1.643 . S
C583 C120 1.856 . S
C585 C247 1.699 . S
C594 C92 1.858 . S
C596 C218 1.851 . S
C605 C233 1.617 . S
C607 C106 1.782 . S
C616 C177 1.639 . S
C618 C134 1.807 . S
C627 C190 1.786 . S
C629 C148 1.798 . S
C638 C204 1.879 . S
C640 C162 1.878 . S
