# Generated by pormake.
# Topology ncb, (9)-cn, num edge types: 1
# Building blocks:
#     Node 0, Type 0, BuildingBlock: BELTOD_clean_sbu_0, # of connection points: 9
#     Node 1, Type 0, BuildingBlock: BELTOD_clean_sbu_0, # of connection points: 9
#     Node 2, Type 0, BuildingBlock: BELTOD_clean_sbu_0, # of connection points: 9
#     Node 3, Type 0, BuildingBlock: BELTOD_clean_sbu_0, # of connection points: 9
#     Node 4, Type 0, BuildingBlock: BELTOD_clean_sbu_0, # of connection points: 9
#     Node 5, Type 0, BuildingBlock: BELTOD_clean_sbu_0, # of connection points: 9
#     Node 6, Type 0, BuildingBlock: BELTOD_clean_sbu_0, # of connection points: 9
#     Node 7, Type 0, BuildingBlock: BELTOD_clean_sbu_0, # of connection points: 9
#     Edge 8, Type (0, 0), BuildingBlock: XIVTED_clean_linker_0, # of connection points: 2
#     Edge 9, Type (0, 0), BuildingBlock: XIVTED_clean_linker_0, # of connection points: 2
#     Edge 10, Type (0, 0), BuildingBlock: XIVTED_clean_linker_0, # of connection points: 2
#     Edge 11, Type (0, 0), BuildingBlock: XIVTED_clean_linker_0, # of connection points: 2
#     Edge 12, Type (0, 0), BuildingBlock: XIVTED_clean_linker_0, # of connection points: 2
#     Edge 13, Type (0, 0), BuildingBlock: XIVTED_clean_linker_0, # of connection points: 2
#     Edge 14, Type (0, 0), BuildingBlock: XIVTED_clean_linker_0, # of connection points: 2
#     Edge 15, Type (0, 0), BuildingBlock: XIVTED_clean_linker_0, # of connection points: 2
#     Edge 16, Type (0, 0), BuildingBlock: XIVTED_clean_linker_0, # of connection points: 2
#     Edge 17, Type (0, 0), BuildingBlock: XIVTED_clean_linker_0, # of connection points: 2
#     Edge 18, Type (0, 0), BuildingBlock: XIVTED_clean_linker_0, # of connection points: 2
#     Edge 19, Type (0, 0), BuildingBlock: XIVTED_clean_linker_0, # of connection points: 2
#     Edge 20, Type (0, 0), BuildingBlock: XIVTED_clean_linker_0, # of connection points: 2
#     Edge 21, Type (0, 0), BuildingBlock: XIVTED_clean_linker_0, # of connection points: 2
#     Edge 22, Type (0, 0), BuildingBlock: XIVTED_clean_linker_0, # of connection points: 2
#     Edge 23, Type (0, 0), BuildingBlock: XIVTED_clean_linker_0, # of connection points: 2
#     Edge 24, Type (0, 0), BuildingBlock: XIVTED_clean_linker_0, # of connection points: 2
#     Edge 25, Type (0, 0), BuildingBlock: XIVTED_clean_linker_0, # of connection points: 2
#     Edge 26, Type (0, 0), BuildingBlock: XIVTED_clean_linker_0, # of connection points: 2
#     Edge 27, Type (0, 0), BuildingBlock: XIVTED_clean_linker_0, # of connection points: 2
#     Edge 28, Type (0, 0), BuildingBlock: XIVTED_clean_linker_0, # of connection points: 2
#     Edge 29, Type (0, 0), BuildingBlock: XIVTED_clean_linker_0, # of connection points: 2
#     Edge 30, Type (0, 0), BuildingBlock: XIVTED_clean_linker_0, # of connection points: 2
#     Edge 31, Type (0, 0), BuildingBlock: XIVTED_clean_linker_0, # of connection points: 2
#     Edge 32, Type (0, 0), BuildingBlock: XIVTED_clean_linker_0, # of connection points: 2
#     Edge 33, Type (0, 0), BuildingBlock: XIVTED_clean_linker_0, # of connection points: 2
#     Edge 34, Type (0, 0), BuildingBlock: XIVTED_clean_linker_0, # of connection points: 2
#     Edge 35, Type (0, 0), BuildingBlock: XIVTED_clean_linker_0, # of connection points: 2
#     Edge 36, Type (0, 0), BuildingBlock: XIVTED_clean_linker_0, # of connection points: 2
#     Edge 37, Type (0, 0), BuildingBlock: XIVTED_clean_linker_0, # of connection points: 2
#     Edge 38, Type (0, 0), BuildingBlock: XIVTED_clean_linker_0, # of connection points: 2
#     Edge 39, Type (0, 0), BuildingBlock: XIVTED_clean_linker_0, # of connection points: 2
#     Edge 40, Type (0, 0), BuildingBlock: XIVTED_clean_linker_0, # of connection points: 2
#     Edge 41, Type (0, 0), BuildingBlock: XIVTED_clean_linker_0, # of connection points: 2
#     Edge 42, Type (0, 0), BuildingBlock: XIVTED_clean_linker_0, # of connection points: 2
#     Edge 43, Type (0, 0), BuildingBlock: XIVTED_clean_linker_0, # of connection points: 2
# Relax obj value: 0.218
# Max RMSD: 0.275
# Mean RMSD: 0.271
data_MOF--net-ncb--node1-BELTOD_clean_sbu_0--edge1-XIVTED_clean_linker_0
_symmetry_space_group_name_H-M    P1
_symmetry_Int_Tables_number       1
_symmetry_cell_setting            triclinic
loop_
_symmetry_equiv_pos_as_xyz
'x, y, z'
_cell_length_a     30.36224
_cell_length_b     30.58765
_cell_length_c     30.38427
_cell_angle_alpha  90.116141
_cell_angle_beta   89.282849
_cell_angle_gamma 89.927752
loop_
_atom_site_label
_atom_site_type_symbol
_atom_site_fract_x
_atom_site_fract_y
_atom_site_fract_z
_atom_type_partial_charge
Mn0 Mn 0.26801 0.27012 0.26031 0.0
Mn1 Mn 0.21933 0.21038 0.18022 0.0
O2 O 0.19191 0.2565 0.13845 0.0
O3 O 0.22064 0.24809 0.07096 0.0
Mn4 Mn 0.23514 0.19072 0.08152 0.0
C5 C 0.25597 0.17076 0.26491 0.0
O6 O 0.26085 0.20795 0.28558 0.0
O7 O 0.24458 0.16793 0.22471 0.0
P8 P 0.3149 0.33445 0.34201 0.0
C9 C 0.16244 0.15006 0.12214 0.0
C10 C 0.28509 0.15741 0.11605 0.0
O11 O 0.20135 0.28249 0.26628 0.0
O12 O 0.17332 0.2288 0.22564 0.0
O13 O 0.27595 0.29682 0.32288 0.0
C14 C 0.27361 0.29263 0.18749 0.0
O15 O 0.17284 0.16676 0.15924 0.0
O16 O 0.18444 0.15653 0.08665 0.0
C17 C 0.16825 0.25944 0.25327 0.0
O18 O 0.28668 0.15969 0.07338 0.0
O19 O 0.26089 0.18818 0.13332 0.0
C20 C 0.19663 0.26896 0.09847 0.0
O21 O 0.26461 0.25371 0.20092 0.0
O22 O 0.27759 0.3206 0.21982 0.0
Mn23 Mn 0.24538 0.82142 0.83396 0.0
Mn24 Mn 0.17747 0.87663 0.90463 0.0
O25 O 0.13489 0.91265 0.86486 0.0
O26 O 0.07063 0.91523 0.90113 0.0
Mn27 Mn 0.09105 0.88479 0.94913 0.0
C28 C 0.25922 0.82763 0.93389 0.0
O29 O 0.27648 0.82351 0.89434 0.0
O30 O 0.22068 0.84264 0.94114 0.0
P31 P 0.32406 0.76213 0.77017 0.0
C32 C 0.15477 0.92945 0.99015 0.0
C33 C 0.09571 0.817 0.95086 0.0
O34 O 0.25444 0.88693 0.82123 0.0
O35 O 0.22629 0.91707 0.88194 0.0
O36 O 0.30618 0.80885 0.79991 0.0
C37 C 0.16944 0.82707 0.81818 0.0
O38 O 0.17614 0.92195 0.9547 0.0
O39 O 0.11585 0.91548 0.99557 0.0
C40 C 0.24719 0.92065 0.84592 0.0
O41 O 0.06041 0.83725 0.96418 0.0
O42 O 0.12725 0.84045 0.93292 0.0
C43 C 0.09444 0.92418 0.86778 0.0
O44 O 0.18688 0.83128 0.8564 0.0
O45 O 0.19906 0.81913 0.7875 0.0
Mn46 Mn 0.80453 0.82642 0.257 0.0
Mn47 Mn 0.84981 0.88884 0.17617 0.0
O48 O 0.88595 0.8445 0.13673 0.0
O49 O 0.86215 0.84815 0.06749 0.0
Mn50 Mn 0.83803 0.90294 0.07603 0.0
C51 C 0.80745 0.92727 0.25932 0.0
O52 O 0.80703 0.89013 0.28106 0.0
O53 O 0.81731 0.92993 0.21828 0.0
P54 P 0.75296 0.76846 0.34237 0.0
C55 C 0.89978 0.95617 0.11793 0.0
C56 C 0.77867 0.92583 0.10718 0.0
O57 O 0.87188 0.81805 0.26087 0.0
O58 O 0.89466 0.87693 0.22426 0.0
O59 O 0.79757 0.79807 0.31969 0.0
C60 C 0.80306 0.80207 0.18442 0.0
O61 O 0.89073 0.93823 0.15505 0.0
O62 O 0.88132 0.94547 0.08194 0.0
C63 C 0.90321 0.84371 0.24769 0.0
O64 O 0.78209 0.92332 0.06469 0.0
O65 O 0.80904 0.90376 0.12687 0.0
C66 C 0.88653 0.83111 0.09662 0.0
O67 O 0.8084 0.84178 0.1973 0.0
O68 O 0.79947 0.77467 0.21719 0.0
Mn69 Mn 0.81349 0.25325 0.83091 0.0
Mn70 Mn 0.88192 0.20146 0.8959 0.0
O71 O 0.84085 0.17699 0.94627 0.0
O72 O 0.87648 0.1178 0.97201 0.0
Mn73 Mn 0.92371 0.11842 0.9324 0.0
C74 C 0.91447 0.26577 0.83267 0.0
O75 O 0.87524 0.28424 0.83156 0.0
O76 O 0.92026 0.2277 0.84853 0.0
P77 P 0.751 0.33233 0.77082 0.0
C78 C 0.96413 0.19333 0.95524 0.0
C79 C 0.92042 0.10683 0.86294 0.0
O80 O 0.79574 0.26506 0.89544 0.0
O81 O 0.8637 0.26285 0.91365 0.0
O82 O 0.78068 0.31246 0.81596 0.0
C83 C 0.79755 0.17832 0.84169 0.0
O84 O 0.9301 0.21261 0.94109 0.0
O85 O 0.97057 0.15262 0.9503 0.0
C86 C 0.82464 0.27 0.92518 0.0
O87 O 0.93384 0.07685 0.88971 0.0
O88 O 0.90571 0.14174 0.88196 0.0
C89 C 0.84524 0.14574 0.97412 0.0
O90 O 0.83534 0.19692 0.84738 0.0
O91 O 0.76779 0.20632 0.82863 0.0
Mn92 Mn 0.77213 0.77201 0.76035 0.0
Mn93 Mn 0.73884 0.70046 0.68439 0.0
O94 O 0.69829 0.73353 0.64125 0.0
O95 O 0.72768 0.73163 0.57391 0.0
Mn96 Mn 0.75602 0.68012 0.58629 0.0
C97 C 0.77319 0.67286 0.77054 0.0
O98 O 0.76717 0.71079 0.78954 0.0
O99 O 0.77622 0.66935 0.72911 0.0
P100 P 0.82039 0.8317 0.84293 0.0
C101 C 0.69757 0.62544 0.63267 0.0
C102 C 0.81305 0.65992 0.61896 0.0
O103 O 0.70466 0.77712 0.76084 0.0
O104 O 0.68946 0.71244 0.73078 0.0
O105 O 0.77498 0.80391 0.82096 0.0
C106 C 0.77451 0.7929 0.68629 0.0
O107 O 0.70558 0.64537 0.66863 0.0
O108 O 0.71442 0.63586 0.59539 0.0
C109 C 0.6764 0.7476 0.74965 0.0
O110 O 0.81294 0.66192 0.57622 0.0
O111 O 0.78364 0.68568 0.63692 0.0
C112 C 0.69721 0.74349 0.60044 0.0
O113 O 0.7722 0.75371 0.70121 0.0
O114 O 0.77639 0.82183 0.71786 0.0
Mn115 Mn 0.74242 0.32575 0.33565 0.0
Mn116 Mn 0.69177 0.38653 0.41087 0.0
O117 O 0.66466 0.43808 0.37477 0.0
O118 O 0.60475 0.4605 0.41309 0.0
Mn119 Mn 0.60854 0.41994 0.45853 0.0
C120 C 0.75826 0.32254 0.43534 0.0
O121 O 0.77584 0.32395 0.39555 0.0
O122 O 0.71987 0.33732 0.44372 0.0
P123 P 0.81997 0.26306 0.2719 0.0
C124 C 0.68591 0.43945 0.4991 0.0
C125 C 0.59992 0.35003 0.45211 0.0
O126 O 0.7537 0.39108 0.32145 0.0
O127 O 0.75248 0.4065 0.39049 0.0
O128 O 0.80039 0.31068 0.29866 0.0
C129 C 0.66627 0.33673 0.32338 0.0
O130 O 0.70435 0.42715 0.46326 0.0
O131 O 0.64445 0.43662 0.5051 0.0
C132 C 0.75798 0.41988 0.3518 0.0
O133 O 0.5691 0.37491 0.46815 0.0
O134 O 0.63286 0.37142 0.43622 0.0
C135 C 0.63209 0.46426 0.38104 0.0
O136 O 0.6861 0.3414 0.36067 0.0
O137 O 0.69385 0.32509 0.292 0.0
Mn138 Mn 0.30805 0.32857 0.76441 0.0
Mn139 Mn 0.36708 0.3982 0.70307 0.0
O140 O 0.41686 0.35886 0.67371 0.0
O141 O 0.42499 0.38119 0.6038 0.0
Mn142 Mn 0.38625 0.42832 0.60908 0.0
C143 C 0.3101 0.42871 0.77567 0.0
O144 O 0.31131 0.39006 0.79461 0.0
O145 O 0.32201 0.43447 0.73574 0.0
P146 P 0.25338 0.26638 0.84731 0.0
C147 C 0.42117 0.47966 0.6737 0.0
C148 C 0.31647 0.43239 0.61456 0.0
O149 O 0.37354 0.31459 0.77086 0.0
O150 O 0.39605 0.38211 0.76163 0.0
O151 O 0.29753 0.29601 0.82449 0.0
C152 C 0.31159 0.31072 0.68935 0.0
O153 O 0.41001 0.45073 0.70209 0.0
O154 O 0.41182 0.47686 0.63312 0.0
C155 C 0.40462 0.343 0.7719 0.0
O156 O 0.33646 0.43799 0.57701 0.0
O157 O 0.34141 0.41814 0.64562 0.0
C158 C 0.43622 0.35695 0.63591 0.0
O159 O 0.32061 0.34852 0.70691 0.0
O160 O 0.30145 0.28155 0.71917 0.0
Mn161 Mn 0.31022 0.75024 0.32768 0.0
Mn162 Mn 0.37263 0.68157 0.38594 0.0
O163 O 0.32652 0.65019 0.42782 0.0
O164 O 0.33327 0.57781 0.4183 0.0
Mn165 Mn 0.39044 0.58247 0.39739 0.0
C166 C 0.41182 0.7552 0.33322 0.0
O167 O 0.37394 0.77617 0.33082 0.0
O168 O 0.41482 0.71577 0.34703 0.0
P169 P 0.25021 0.83119 0.27076 0.0
C170 C 0.44052 0.6401 0.44833 0.0
C171 C 0.41128 0.59873 0.33138 0.0
O172 O 0.29589 0.75948 0.39299 0.0
O173 O 0.35957 0.73825 0.41964 0.0
O174 O 0.28035 0.81145 0.31577 0.0
C175 C 0.28902 0.67692 0.33246 0.0
O176 O 0.4206 0.67237 0.43114 0.0
O177 O 0.43251 0.60018 0.43878 0.0
C178 C 0.3223 0.75575 0.42547 0.0
O179 O 0.41169 0.55874 0.34533 0.0
O180 O 0.39008 0.62475 0.35761 0.0
C181 C 0.31348 0.6108 0.43481 0.0
O182 O 0.32783 0.69231 0.33849 0.0
O183 O 0.26044 0.70762 0.32359 0.0
H184 H 0.32667 0.24289 0.13477 0.0
H185 H 0.26245 0.34726 0.90093 0.0
H186 H 0.25096 0.36164 0.12998 0.0
H187 H 0.26951 0.20923 0.92748 0.0
H188 H 0.27824 0.36212 0.97917 0.0
H189 H 0.33112 0.24208 0.05415 0.0
C190 C 0.31112 0.2691 0.11677 0.0
C191 C 0.28601 0.3008 0.13958 0.0
C192 C 0.2769 0.32862 0.96768 0.0
C193 C 0.29209 0.30078 0.04592 0.0
C194 C 0.26762 0.31999 0.92295 0.0
C195 C 0.26444 0.27679 0.90674 0.0
C196 C 0.28449 0.29386 0.99691 0.0
C197 C 0.27172 0.24305 0.93738 0.0
C198 C 0.3141 0.26878 0.07051 0.0
C199 C 0.26949 0.33564 0.11415 0.0
N200 N 0.28149 0.2523 0.98039 0.0
N201 N 0.27193 0.33418 0.06879 0.0
H202 H 0.30961 0.88272 0.98308 0.0
H203 H 0.25535 0.7537 0.2099 0.0
H204 H 0.25359 0.75378 0.98478 0.0
H205 H 0.28806 0.89038 0.20043 0.0
H206 H 0.26766 0.74715 0.12948 0.0
H207 H 0.31654 0.87972 0.06338 0.0
C208 C 0.30109 0.85267 0.99994 0.0
C209 C 0.28271 0.81776 0.97611 0.0
C210 C 0.27304 0.77837 0.14536 0.0
C211 C 0.28828 0.81481 0.06999 0.0
C212 C 0.26649 0.78201 0.19159 0.0
C213 C 0.27158 0.82239 0.21348 0.0
C214 C 0.28495 0.81539 0.12015 0.0
C215 C 0.28464 0.8581 0.18681 0.0
C216 C 0.30408 0.85132 0.04627 0.0
C217 C 0.26968 0.78084 1.00101 0.0
N218 N 0.29065 0.85374 0.14232 0.0
N219 N 0.27236 0.78046 0.04613 0.0
H220 H 0.79386 0.88627 0.92176 0.0
H221 H 0.836 0.73527 0.12828 0.0
H222 H 0.82282 0.75018 0.89865 0.0
H223 H 0.7466 0.84424 0.13065 0.0
H224 H 0.83157 0.73412 0.04672 0.0
H225 H 0.78078 0.87018 0.99894 0.0
C226 C 0.7988 0.85307 0.93265 0.0
C227 C 0.81223 0.82017 0.90289 0.0
C228 C 0.81284 0.75828 0.06512 0.0
C229 C 0.79614 0.80108 0.99382 0.0
C230 C 0.81511 0.7587 0.11189 0.0
C231 C 0.79388 0.79191 0.13652 0.0
C232 C 0.79029 0.79203 1.04287 0.0
C233 C 0.76629 0.82026 0.11305 0.0
C234 C 0.79069 0.84375 0.97736 0.0
C235 C 0.81504 0.77731 0.92029 0.0
N236 N 0.76644 0.82069 0.06808 0.0
N237 N 0.80813 0.76918 0.96439 0.0
H238 H 0.74471 0.26881 0.97534 0.0
H239 H 0.86565 0.2192 0.19752 0.0
H240 H 0.8852 0.28262 0.98894 0.0
H241 H 0.75904 0.31157 0.20956 0.0
H242 H 0.86159 0.224 0.11778 0.0
H243 H 0.73763 0.26927 0.05712 0.0
C244 C 0.77392 0.27247 0.99506 0.0
C245 C 0.81572 0.27549 0.97434 0.0
C246 C 0.83899 0.24332 0.13771 0.0
C247 C 0.80786 0.27476 0.06815 0.0
C248 C 0.84157 0.24103 0.18368 0.0
C249 C 0.81398 0.26644 0.21115 0.0
C250 C 0.80746 0.27014 0.11781 0.0
C251 C 0.78186 0.29219 0.19004 0.0
C252 C 0.76984 0.27263 1.04184 0.0
C253 C 0.85223 0.27966 1.00248 0.0
N254 N 0.7795 0.29349 0.14474 0.0
N255 N 0.84752 0.27842 0.04712 0.0
H256 H 0.8916 0.19441 0.27058 0.0
H257 H 0.11627 0.33601 0.26288 0.0
H258 H 0.88761 0.33472 0.28122 0.0
H259 H 0.1096 0.19597 0.2751 0.0
H260 H 0.03482 0.33912 0.27139 0.0
H261 H 0.97151 0.19673 0.273 0.0
C262 C 0.9071 0.22587 0.27486 0.0
C263 C 0.88146 0.26428 0.27775 0.0
C264 C 0.05133 0.30779 0.27295 0.0
C265 C 0.97597 0.26743 0.27813 0.0
C266 C 0.09815 0.30607 0.26868 0.0
C267 C 0.12074 0.26566 0.2689 0.0
C268 C 1.02645 0.26882 0.27712 0.0
C269 C 0.0944 0.22802 0.27505 0.0
C270 C 0.95349 0.22721 0.27557 0.0
C271 C 0.90527 0.30399 0.28014 0.0
N272 N 0.04952 0.23054 0.27853 0.0
N273 N 0.95071 0.30456 0.28022 0.0
H274 H 0.20199 0.97491 0.79009 0.0
H275 H 0.32686 0.20035 0.8539 0.0
H276 H 0.31227 0.97588 0.87736 0.0
H277 H 0.18941 0.19503 0.82148 0.0
H278 H 0.32995 0.11962 0.84914 0.0
H279 H 0.20511 0.05541 0.78663 0.0
C280 C 0.22812 0.99177 0.80711 0.0
C281 C 0.25795 0.96755 0.8327 0.0
C282 C 0.29923 0.13618 0.84247 0.0
C283 C 0.26117 0.06155 0.8298 0.0
C284 C 0.29749 0.18259 0.84489 0.0
C285 C 0.25798 0.20575 0.83754 0.0
C286 C 0.26138 0.1118 0.83155 0.0
C287 C 0.221 0.17986 0.82677 0.0
C288 C 0.22944 1.03812 0.8057 0.0
C289 C 0.28953 0.99236 0.85581 0.0
N290 N 0.22371 0.13504 0.82386 0.0
N291 N 0.29046 1.03736 0.85361 0.0
H292 H 0.18156 0.79701 0.33684 0.0
H293 H 0.97243 0.88898 0.21215 0.0
H294 H 0.18318 0.84171 0.20265 0.0
H295 H 0.9491 0.78166 0.3015 0.0
H296 H 0.05073 0.87895 0.21974 0.0
H297 H 0.09961 0.79535 0.3348 0.0
C298 C 0.16503 0.8053 0.30662 0.0
C299 C 0.19013 0.81838 0.26944 0.0
C300 C 1.02884 0.85738 0.23786 0.0
C301 C 0.0957 0.81859 0.26754 0.0
C302 C 0.98329 0.86315 0.23381 0.0
C303 C 0.95244 0.83619 0.25612 0.0
C304 C 0.04576 0.8246 0.26508 0.0
C305 C 0.97072 0.80349 0.28346 0.0
C306 C 0.11806 0.80461 0.30557 0.0
C307 C 0.16612 0.83016 0.23183 0.0
N308 N 1.01591 0.79879 0.28734 0.0
N309 N 0.12108 0.83052 0.23214 0.0
H310 H 0.87439 0.90686 0.87069 0.0
H311 H 0.75001 0.12296 0.78458 0.0
H312 H 0.75197 0.89207 0.80248 0.0
H313 H 0.83258 0.11728 0.89719 0.0
H314 H 0.75239 1.04168 0.78082 0.0
H315 H 0.86491 0.98635 0.86917 0.0
C316 C 0.84565 0.9203 0.85483 0.0
C317 C 0.81413 0.89208 0.83663 0.0
C318 C 0.76994 0.05846 0.80663 0.0
C319 C 0.80256 0.98491 0.83492 0.0
C320 C 0.7684 0.10512 0.80902 0.0
C321 C 0.79216 0.12836 0.84136 0.0
C322 C 0.79578 1.03445 0.8366 0.0
C323 C 0.81507 0.10233 0.8714 0.0
C324 C 0.84001 0.96599 0.85427 0.0
C325 C 0.77731 0.91216 0.81692 0.0
N326 N 0.81678 0.05783 0.86819 0.0
N327 N 0.77259 0.95705 0.81648 0.0
H328 H 0.89264 0.77502 0.88147 0.0
H329 H 0.11197 0.86424 0.7554 0.0
H330 H 0.88356 0.86393 0.77233 0.0
H331 H 0.11194 0.78021 0.86828 0.0
H332 H 1.03023 0.86035 0.7548 0.0
H333 H 0.97195 0.77262 0.87158 0.0
C334 C 0.90655 0.79345 0.8546 0.0
C335 C 0.87954 0.81943 0.82758 0.0
C336 C 0.04802 0.84275 0.77983 0.0
C337 C 0.97406 0.81749 0.81636 0.0
C338 C 0.095 0.84484 0.78006 0.0
C339 C 0.11948 0.82346 0.81294 0.0
C340 C 1.02473 0.81903 0.81268 0.0
C341 C 0.09482 0.79879 0.84359 0.0
C342 C 0.95288 0.79232 0.84918 0.0
C343 C 0.90204 0.84283 0.79388 0.0
N344 N 0.04966 0.79754 0.84295 0.0
N345 N 0.94739 0.84158 0.78951 0.0
H346 H 0.74086 0.98142 0.23622 0.0
H347 H 0.84238 0.20038 0.34495 0.0
H348 H 0.85195 0.97676 0.3225 0.0
H349 H 0.75737 0.19897 0.2327 0.0
H350 H 0.83539 0.12006 0.34991 0.0
H351 H 0.736 0.06053 0.24736 0.0
C352 C 0.76319 0.99669 0.25915 0.0
C353 C 0.79599 0.97131 0.27947 0.0
C354 C 0.81767 0.13738 0.32462 0.0
C355 C 0.79157 0.06415 0.29141 0.0
C356 C 0.82113 0.18359 0.32212 0.0
C357 C 0.80106 0.20722 0.28787 0.0
C358 C 0.79281 0.11411 0.29341 0.0
C359 C 0.77407 0.18286 0.2594 0.0
C360 C 0.76081 1.04235 0.26496 0.0
C361 C 0.82508 0.99412 0.30726 0.0
N362 N 0.77113 0.13822 0.26257 0.0
N363 N 0.82233 1.03888 0.31219 0.0
H364 H 0.96818 0.25976 0.75943 0.0
H365 H 0.18094 0.29976 0.90671 0.0
H366 H 0.96316 0.31485 0.88959 0.0
H367 H 0.19326 0.26937 0.76855 0.0
H368 H 0.10245 0.31038 0.89809 0.0
H369 H 0.04885 0.26831 0.75858 0.0
C370 C 0.98363 0.27597 0.78694 0.0
C371 C 0.95771 0.28864 0.82375 0.0
C372 C 0.12209 0.30192 0.86934 0.0
C373 C 0.05188 0.2957 0.82436 0.0
C374 C 0.16783 0.29625 0.87405 0.0
C375 C 0.1953 0.28435 0.8381 0.0
C376 C 0.10204 0.29455 0.82852 0.0
C377 C 0.17419 0.27928 0.7972 0.0
C378 C 1.03013 0.27997 0.78681 0.0
C379 C 0.98083 0.30655 0.85954 0.0
N380 N 0.12917 0.28374 0.7937 0.0
N381 N 1.02599 0.30899 0.85912 0.0
H382 H 0.18084 0.9013 0.28775 0.0
H383 H 0.19912 0.12576 0.31962 0.0
H384 H 0.32256 0.89714 0.2782 0.0
H385 H 0.32317 0.11285 0.25103 0.0
H386 H 0.19686 0.04603 0.32887 0.0
H387 H 0.18397 0.98002 0.29589 0.0
C388 C 0.2129 0.91648 0.2872 0.0
C389 C 0.25156 0.89146 0.28083 0.0
C390 C 0.22502 0.06041 0.31229 0.0
C391 C 0.25537 0.98422 0.29168 0.0
C392 C 0.22688 0.10639 0.30817 0.0
C393 C 0.26219 0.12675 0.28594 0.0
C394 C 0.25844 1.03385 0.29342 0.0
C395 C 0.29603 0.09908 0.26982 0.0
C396 C 0.21463 0.96221 0.29256 0.0
C397 C 0.29175 0.91461 0.28222 0.0
N398 N 0.29326 0.05452 0.27368 0.0
N399 N 0.29256 0.95933 0.28653 0.0
H400 H 0.82468 0.75161 0.40477 0.0
H401 H 0.72519 0.84924 0.63365 0.0
H402 H 0.6971 0.81256 0.41574 0.0
H403 H 0.83315 0.7582 0.62652 0.0
H404 H 0.72404 0.85115 0.55222 0.0
H405 H 0.83582 0.76558 0.48355 0.0
C406 C 0.79906 0.76837 0.42333 0.0
C407 C 0.75985 0.78077 0.40228 0.0
C408 C 0.74855 0.83135 0.56842 0.0
C409 C 0.77315 0.79845 0.49379 0.0
C410 C 0.74934 0.83043 0.61513 0.0
C411 C 0.77843 0.8024 0.63739 0.0
C412 C 0.77764 0.80469 0.54339 0.0
C413 C 0.80908 0.7791 0.61109 0.0
C414 C 0.8056 0.77654 0.46856 0.0
C415 C 0.72822 0.80265 0.42888 0.0
N416 N 0.8077 0.78049 0.56603 0.0
N417 N 0.73568 0.81089 0.47263 0.0
H418 H 0.79546 0.38865 0.70275 0.0
H419 H 0.74969 0.2489 0.48547 0.0
H420 H 0.75262 0.25454 0.70914 0.0
H421 H 0.81252 0.37467 0.48408 0.0
H422 H 0.75743 0.24627 0.56583 0.0
H423 H 0.8077 0.3809 0.62399 0.0
C424 C 0.78904 0.35713 0.68812 0.0
C425 C 0.77208 0.32236 0.7137 0.0
C426 C 0.77098 0.27385 0.54799 0.0
C427 C 0.7862 0.31337 0.62088 0.0
C428 C 0.7675 0.27492 0.50164 0.0
C429 C 0.78218 0.31124 0.47689 0.0
C430 C 0.78844 0.3099 0.57077 0.0
C431 C 0.80231 0.34514 0.5009 0.0
C432 C 0.79614 0.35282 0.64242 0.0
C433 C 0.76544 0.28246 0.69133 0.0
N434 N 0.8042 0.34393 0.546 0.0
N435 N 0.77169 0.2793 0.64648 0.0
H436 H 0.28133 0.26022 0.39827 0.0
H437 H 0.35825 0.34954 0.6295 0.0
H438 H 0.33766 0.38716 0.42186 0.0
H439 H 0.25772 0.25548 0.63295 0.0
H440 H 0.35898 0.35221 0.5509 0.0
H441 H 0.27602 0.24842 0.4786 0.0
C442 C 0.29241 0.28587 0.42004 0.0
C443 C 0.30996 0.32511 0.40241 0.0
C444 C 0.33625 0.33062 0.56789 0.0
C445 C 0.30442 0.31109 0.49532 0.0
C446 C 0.33704 0.32912 0.61344 0.0
C447 C 0.30984 0.30357 0.63925 0.0
C448 C 0.30612 0.30542 0.5451 0.0
C449 C 0.28047 0.27653 0.61536 0.0
C450 C 0.28914 0.27894 0.46615 0.0
C451 C 0.32415 0.35639 0.43296 0.0
N452 N 0.27914 0.27831 0.56962 0.0
N453 N 0.32122 0.3486 0.47719 0.0
H454 H 0.35784 0.81903 0.47891 0.0
H455 H 0.29793 0.6966 0.70072 0.0
H456 H 0.26366 0.71419 0.48117 0.0
H457 H 0.32774 0.83409 0.70364 0.0
H458 H 0.29006 0.70036 0.62114 0.0
H459 H 0.35196 0.82429 0.55978 0.0
C460 C 0.33477 0.79804 0.49622 0.0
C461 C 0.31004 0.76713 0.47251 0.0
C462 C 0.29733 0.73004 0.63913 0.0
C463 C 0.30526 0.77108 0.5664 0.0
C464 C 0.30117 0.72816 0.6853 0.0
C465 C 0.31107 0.76571 0.71041 0.0
C466 C 0.30548 0.76935 0.61653 0.0
C467 C 0.31843 0.80458 0.68643 0.0
C468 C 0.33179 0.80076 0.54263 0.0
C469 C 0.2823 0.7395 0.4975 0.0
N470 N 0.31593 0.8053 0.64124 0.0
N471 N 0.28122 0.74164 0.54267 0.0
H472 H 0.39092 0.70783 0.72294 0.0
H473 H 0.62566 0.81463 0.79132 0.0
H474 H 0.39663 0.81723 0.81181 0.0
H475 H 0.61039 0.69231 0.72251 0.0
H476 H 0.54421 0.82016 0.79732 0.0
H477 H 0.47159 0.70594 0.71986 0.0
C478 C 0.40903 0.73176 0.74174 0.0
C479 C 0.38598 0.76275 0.76762 0.0
C480 C 0.55879 0.79204 0.78105 0.0
C481 C 0.48074 0.76087 0.76424 0.0
C482 C 0.60566 0.7888 0.77764 0.0
C483 C 0.62627 0.75275 0.75655 0.0
C484 C 0.53148 0.75932 0.76281 0.0
C485 C 0.5973 0.72078 0.73939 0.0
C486 C 0.45557 0.73057 0.7401 0.0
C487 C 0.41229 0.79265 0.7913 0.0
N488 N 0.5524 0.72495 0.74272 0.0
N489 N 0.45777 0.79103 0.78899 0.0
H490 H 0.78617 0.70317 0.27317 0.0
H491 H 0.76014 0.48248 0.41584 0.0
H492 H 0.73265 0.69634 0.40475 0.0
H493 H 0.7643 0.47327 0.27422 0.0
H494 H 0.76087 0.5613 0.4107 0.0
H495 H 0.78836 0.62191 0.27099 0.0
C496 C 0.77576 0.68493 0.30193 0.0
C497 C 0.7608 0.70762 0.33988 0.0
C498 C 0.76181 0.54248 0.38048 0.0
C499 C 0.76256 0.61361 0.33737 0.0
C500 C 0.76151 0.49667 0.38326 0.0
C501 C 0.7621 0.4696 0.34543 0.0
C502 C 0.76344 0.56345 0.33941 0.0
C503 C 0.76395 0.49185 0.30455 0.0
C504 C 0.77661 0.6383 0.30048 0.0
C505 C 0.74616 0.68135 0.37529 0.0
N506 N 0.76472 0.53712 0.30266 0.0
N507 N 0.74785 0.63664 0.37326 0.0
H508 H 0.6814 0.29782 0.70893 0.0
H509 H 0.46268 0.38365 0.82703 0.0
H510 H 0.68382 0.34694 0.84175 0.0
H511 H 0.45754 0.28007 0.73126 0.0
H512 H 0.54314 0.37501 0.83013 0.0
H513 H 0.601 0.29474 0.71316 0.0
C514 C 0.66557 0.30686 0.73958 0.0
C515 C 0.69063 0.32144 0.77559 0.0
C516 C 0.5245 0.35356 0.80897 0.0
C517 C 0.59639 0.32019 0.77967 0.0
C518 C 0.47829 0.35828 0.80738 0.0
C519 C 0.45252 0.33169 0.77986 0.0
C520 C 0.54623 0.32304 0.78155 0.0
C521 C 0.47542 0.30043 0.75407 0.0
C522 C 0.61905 0.30546 0.74174 0.0
C523 C 0.66654 0.33449 0.81343 0.0
N524 N 0.52063 0.29744 0.75508 0.0
N525 N 0.62127 0.33412 0.81426 0.0
H526 H 0.22335 0.621 0.36717 0.0
H527 H 0.34307 0.40079 0.27548 0.0
H528 H 0.33774 0.62045 0.2824 0.0
H529 H 0.25097 0.39854 0.38424 0.0
H530 H 0.33189 0.48003 0.26899 0.0
H531 H 0.22144 0.53995 0.36243 0.0
C532 C 0.2481 0.60408 0.34763 0.0
C533 C 0.2819 0.62803 0.32654 0.0
C534 C 0.31373 0.46234 0.29413 0.0
C535 C 0.28098 0.53451 0.3226 0.0
C536 C 0.32001 0.41672 0.29776 0.0
C537 C 0.29876 0.39235 0.33108 0.0
C538 C 0.28508 0.48465 0.32342 0.0
C539 C 0.26874 0.41554 0.35839 0.0
C540 C 0.24743 0.5576 0.3455 0.0
C541 C 0.31231 0.60364 0.301 0.0
N542 N 0.2631 0.46001 0.35422 0.0
N543 N 0.31158 0.55886 0.3003 0.0
H544 H 0.38686 0.39406 0.36229 0.0
H545 H 0.61217 0.28133 0.27309 0.0
H546 H 0.38073 0.26805 0.29945 0.0
H547 H 0.60283 0.38749 0.36463 0.0
H548 H 0.53039 0.27675 0.27353 0.0
H549 H 0.46631 0.39332 0.35498 0.0
C550 C 0.40204 0.36598 0.34662 0.0
C551 C 0.37582 0.3313 0.33129 0.0
C552 C 0.54636 0.3012 0.29358 0.0
C553 C 0.47018 0.33008 0.32264 0.0
C554 C 0.59336 0.30416 0.29311 0.0
C555 C 0.61577 0.33522 0.31934 0.0
C556 C 0.52083 0.33006 0.31992 0.0
C557 C 0.58851 0.36303 0.3445 0.0
C558 C 0.44815 0.3656 0.34248 0.0
C559 C 0.39889 0.29594 0.3115 0.0
N560 N 0.54354 0.36001 0.34407 0.0
N561 N 0.44446 0.2963 0.30762 0.0
H562 H 0.36406 0.47619 0.82997 0.0
H563 H 0.24438 0.70344 0.76596 0.0
H564 H 0.23878 0.48229 0.76599 0.0
H565 H 0.373 0.69567 0.82343 0.0
H566 H 0.23577 0.62401 0.7771 0.0
H567 H 0.3621 0.55613 0.8393 0.0
C568 C 0.3349 0.49389 0.82007 0.0
C569 C 0.30061 0.47144 0.79888 0.0
C570 C 0.26575 0.63972 0.78773 0.0
C571 C 0.29924 0.56476 0.80708 0.0
C572 C 0.27051 0.68544 0.78175 0.0
C573 C 0.31011 0.70684 0.79224 0.0
C574 C 0.30048 0.6147 0.80535 0.0
C575 C 0.34236 0.68112 0.8132 0.0
C576 C 0.33424 0.54 0.82448 0.0
C577 C 0.26518 0.49741 0.78416 0.0
N578 N 0.33715 0.63688 0.81835 0.0
N579 N 0.26558 0.54213 0.78815 0.0
H580 H 0.68607 0.71347 0.29688 0.0
H581 H 0.45926 0.82415 0.37108 0.0
H582 H 0.68752 0.84483 0.34815 0.0
H583 H 0.46927 0.72439 0.27152 0.0
H584 H 0.54015 0.83452 0.36583 0.0
H585 H 0.60669 0.71804 0.28957 0.0
C586 C 0.67016 0.74363 0.30661 0.0
C587 C 0.69472 0.77823 0.32484 0.0
C588 C 0.52448 0.81126 0.3442 0.0
C589 C 0.60081 0.78344 0.31679 0.0
C590 C 0.47791 0.80583 0.34666 0.0
C591 C 0.45637 0.77429 0.3206 0.0
C592 C 0.55037 0.78415 0.31634 0.0
C593 C 0.48357 0.74997 0.29145 0.0
C594 C 0.62407 0.74613 0.30238 0.0
C595 C 0.67056 0.81657 0.33532 0.0
N596 N 0.5284 0.75492 0.29063 0.0
N597 N 0.62524 0.81778 0.33221 0.0
H598 H 0.82057 0.39254 0.80436 0.0
H599 H 0.69796 0.62677 0.78589 0.0
H600 H 0.69023 0.40846 0.75251 0.0
H601 H 0.83864 0.61548 0.79505 0.0
H602 H 0.69203 0.54672 0.78824 0.0
H603 H 0.82578 0.47254 0.81303 0.0
C604 C 0.79274 0.41262 0.79534 0.0
C605 C 0.75444 0.39283 0.77871 0.0
C606 C 0.72419 0.56161 0.7912 0.0
C607 C 0.76021 0.48572 0.78872 0.0
C608 C 0.72754 0.6077 0.79107 0.0
C609 C 0.76876 0.6289 0.79257 0.0
C610 C 0.76237 0.53544 0.7929 0.0
C611 C 0.80597 0.60134 0.79595 0.0
C612 C 0.79582 0.45855 0.8002 0.0
C613 C 0.72005 0.42138 0.76659 0.0
N614 N 0.80193 0.55657 0.79599 0.0
N615 N 0.72361 0.46581 0.77215 0.0
H616 H 0.34344 0.09298 0.09441 0.0
H617 H 0.12175 0.97113 0.06473 0.0
H618 H 0.22835 0.11486 0.17509 0.0
H619 H 0.24319 0.93695 0.99753 0.0
H620 H 0.1647 1.01157 0.11931 0.0
H621 H 0.31574 1.02028 0.07743 0.0
C622 C 0.31346 0.08205 0.11068 0.0
C623 C 0.28666 0.11209 0.13368 0.0
C624 C 0.18196 0.99447 0.09303 0.0
C625 C 0.25405 1.02946 0.11351 0.0
C626 C 0.15733 0.97179 0.06169 0.0
C627 C 0.17873 0.95195 1.02572 0.0
C628 C 0.22817 0.99711 0.08823 0.0
C629 C 0.22506 0.95304 1.02386 0.0
C630 C 0.29712 1.04064 0.10018 0.0
C631 C 0.2492 0.09503 0.15507 0.0
N632 N 0.24807 0.97569 0.05421 0.0
N633 N 0.23277 0.05573 0.14285 0.0
H634 H 0.88977 0.78577 1.01894 0.0
H635 H 0.13691 0.78704 1.02427 0.0
H636 H 0.96075 0.80323 0.13987 0.0
H637 H 0.06196 0.73998 0.91578 0.0
H638 H 0.07828 0.76433 0.07471 0.0
H639 H 0.95125 0.74495 0.98871 0.0
C640 C 0.91776 0.77991 1.0398 0.0
C641 C 0.91987 0.79832 0.08207 0.0
C642 C 0.07499 0.75735 1.03995 0.0
C643 C 0.99245 0.7533 0.04624 0.0
C644 C 0.10915 0.76937 1.01094 0.0
C645 C 0.1006 0.77158 0.96565 0.0
C646 C 1.03456 0.74381 1.02236 0.0
C647 C 0.06707 0.74404 0.95069 0.0
C648 C 0.95327 0.75654 1.02233 0.0
C649 C 0.95768 0.78997 0.10699 0.0
N650 N 1.03318 0.73412 0.97856 0.0
N651 N 0.99302 0.76926 0.08821 0.0
H652 H 0.81656 0.98563 0.16194 0.0
H653 H 0.76026 0.11828 0.96599 0.0
H654 H 0.69982 0.96224 0.08667 0.0
H655 H 0.857 0.15495 0.06152 0.0
H656 H 0.71927 0.07916 1.02356 0.0
H657 H 0.81053 0.0625 0.1472 0.0
C658 C 0.78767 0.99664 0.14494 0.0
C659 C 0.75937 0.9668 0.12456 0.0
C660 C 0.74847 0.09722 1.03255 0.0
C661 C 0.75501 0.05523 0.10322 0.0
C662 C 0.77166 0.11979 0.99961 0.0
C663 C 0.81223 0.13902 1.00917 0.0
C664 C 0.76682 0.09315 0.07475 0.0
C665 C 0.82601 0.13983 0.05297 0.0
C666 C 0.78494 1.0411 0.13517 0.0
C667 C 0.72324 0.98405 0.10191 0.0
N668 N 0.80397 0.11624 0.08395 0.0
N669 N 0.72336 1.02682 0.08971 0.0
H670 H 0.12113 0.30038 0.13773 0.0
H671 H 0.04981 0.20045 0.93167 0.0
H672 H 0.19851 0.3111 1.01847 0.0
H673 H 0.95132 0.25125 1.02147 0.0
H674 H 0.10262 0.25295 0.96053 0.0
H675 H 0.05469 0.30536 0.09453 0.0
C676 C 0.12442 0.30611 0.10265 0.0
C677 C 0.16518 0.30103 0.08093 0.0
C678 C 0.06923 0.25331 0.97349 0.0
C679 C 0.08995 0.30609 1.03181 0.0
C680 C 0.03969 0.2225 0.95788 0.0
C681 C 0.99709 0.22099 0.97546 0.0
C682 C 0.05614 0.28205 1.0075 0.0
C683 C 0.98448 0.25122 1.00797 0.0
C684 C 0.08624 0.30872 0.07785 0.0
C685 C 0.1675 0.31148 1.03608 0.0
N686 N 1.01424 0.2801 1.02375 0.0
N687 N 0.13014 0.31136 1.01233 0.0
H688 H 0.94076 0.99169 1.0455 0.0
H689 H 0.10904 0.12771 0.19111 0.0
H690 H 0.93849 0.99589 0.18775 0.0
H691 H 0.12543 0.11 0.05059 0.0
H692 H 0.04239 0.08444 0.18895 0.0
H693 H 1.00378 1.0413 1.04532 0.0
C694 C 0.95322 1.00332 0.07664 0.0
C695 C 0.93471 0.98929 0.11673 0.0
C696 C 0.06053 0.08993 0.15855 0.0
C697 C 1.00657 0.04555 0.11666 0.0
C698 C 0.09873 0.11462 0.15973 0.0
C699 C 0.12292 0.12247 0.12092 0.0
C700 C 0.04631 0.07286 0.11832 0.0
C701 C 0.10779 0.10468 0.08129 0.0
C702 C 0.98928 1.03141 0.07648 0.0
C703 C 0.95204 1.00543 0.15607 0.0
N704 N 0.07029 0.0806 0.08099 0.0
N705 N 0.98716 1.03256 0.15501 0.0
H706 H 0.12803 0.99547 0.82407 0.0
H707 H 0.88441 0.05493 0.79979 0.0
H708 H 1.01361 0.91279 0.83365 0.0
H709 H 0.98818 0.14751 0.82094 0.0
H710 H 0.93685 1.00601 0.76393 0.0
H711 H 0.08446 0.04894 0.78267 0.0
C712 C 0.0944 0.98767 0.81565 0.0
C713 C 0.07408 0.95006 0.83261 0.0
C714 C 0.94812 1.03785 0.77464 0.0
C715 C 1.02438 1.01045 0.78545 0.0
C716 C 0.9178 0.06629 0.79442 0.0
C717 C 0.93293 0.10353 0.81638 0.0
C718 C 0.99336 0.04711 0.77788 0.0
C719 C 0.97593 0.11748 0.80664 0.0
C720 C 0.06954 1.01814 0.79207 0.0
C721 C 1.03035 0.94158 0.82137 0.0
N722 N 1.00567 0.08802 0.79061 0.0
N723 N 1.00688 0.97171 0.79899 0.0
H724 H 0.66373 0.46875 0.58263 0.0
H725 H 0.87681 0.60363 0.58945 0.0
H726 H 0.77506 0.44972 0.49471 0.0
H727 H 0.77347 0.60959 0.68692 0.0
H728 H 0.85476 0.52905 0.57281 0.0
H729 H 0.71289 0.50379 0.63525 0.0
C730 C 0.69842 0.47172 0.57445 0.0
C731 C 0.71486 0.45764 0.5335 0.0
C732 C 0.83767 0.54638 0.59905 0.0
C733 C 0.77133 0.49786 0.59339 0.0
C734 C 0.85082 0.58901 0.60926 0.0
C735 C 0.82377 0.61549 0.63631 0.0
C736 C 0.7983 0.53018 0.61758 0.0
C737 C 0.79288 0.5933 0.66278 0.0
C738 C 0.72663 0.49141 0.60464 0.0
C739 C 0.76046 0.46123 0.52528 0.0
N740 N 0.77926 0.55273 0.65127 0.0
N741 N 0.78682 0.48174 0.55446 0.0
H742 H 0.54651 0.28155 0.43144 0.0
H743 H 0.52176 0.34914 0.66133 0.0
H744 H 0.65616 0.31663 0.51204 0.0
H745 H 0.42118 0.28514 0.58633 0.0
H746 H 0.57788 0.30751 0.62059 0.0
H747 H 0.51171 0.24641 0.49444 0.0
C748 C 0.56463 0.2795 0.46189 0.0
C749 C 0.60246 0.30485 0.46769 0.0
C750 C 0.54349 0.30111 0.61408 0.0
C751 C 0.56173 0.26788 0.54049 0.0
C752 C 0.5115 0.3249 0.63752 0.0
C753 C 0.46718 0.32129 0.62602 0.0
C754 C 0.53073 0.27487 0.5782 0.0
C755 C 0.4553 0.28948 0.59523 0.0
C756 C 0.54424 0.26024 0.49843 0.0
C757 C 0.62538 0.29953 0.5071 0.0
N758 N 0.48694 0.26828 0.57155 0.0
N759 N 0.60338 0.28421 0.54313 0.0
H760 H 0.23684 0.41674 0.57749 0.0
H761 H 0.30747 0.64692 0.51701 0.0
H762 H 0.30327 0.50465 0.66475 0.0
H763 H 0.24745 0.55083 0.43346 0.0
H764 H 0.27389 0.61109 0.58115 0.0
H765 H 0.20309 0.47894 0.54125 0.0
C766 C 0.24216 0.44914 0.59092 0.0
C767 C 0.275 0.45591 0.62213 0.0
C768 C 0.26626 0.59908 0.54857 0.0
C769 C 0.23932 0.5272 0.57902 0.0
C770 C 0.28517 0.61983 0.51183 0.0
C771 C 0.28041 0.60164 0.46969 0.0
C772 C 0.24282 0.55981 0.54285 0.0
C773 C 0.25198 0.56598 0.46507 0.0
C774 C 0.22369 0.48495 0.56947 0.0
C775 C 0.27963 0.49832 0.6391 0.0
N776 N 0.23497 0.54581 0.50112 0.0
N777 N 0.26435 0.53283 0.61554 0.0
H778 H 0.44692 0.64442 0.53796 0.0
H779 H 0.67778 0.76638 0.51604 0.0
H780 H 0.51768 0.66791 0.41655 0.0
H781 H 0.61645 0.73797 0.64152 0.0
H782 H 0.61054 0.74503 0.47962 0.0
H783 H 0.50417 0.685 0.57775 0.0
C784 C 0.47526 0.65697 0.52006 0.0
C785 C 0.47872 0.65185 0.47436 0.0
C786 C 0.61142 0.74416 0.51523 0.0
C787 C 0.54199 0.70038 0.51847 0.0
C788 C 0.64966 0.75737 0.53609 0.0
C789 C 0.65353 0.75247 0.58168 0.0
C790 C 0.57706 0.72555 0.54025 0.0
C791 C 0.61554 0.741 0.60605 0.0
C792 C 0.50725 0.68091 0.54244 0.0
C793 C 0.51474 0.6702 0.45203 0.0
N794 N 0.57926 0.72639 0.58492 0.0
N795 N 0.54487 0.69379 0.47426 0.0
H796 H 0.62919 0.62188 0.57727 0.0
H797 H 0.48626 0.47192 0.73375 0.0
H798 H 0.68153 0.56511 0.69556 0.0
H799 H 0.43153 0.5602 0.63814 0.0
H800 H 0.5572 0.50836 0.72541 0.0
H801 H 0.55638 0.59474 0.59785 0.0
C802 C 0.62556 0.602 0.60659 0.0
C803 C 0.66093 0.59526 0.63475 0.0
C804 C 0.52935 0.5205 0.70714 0.0
C805 C 0.57819 0.56626 0.65957 0.0
C806 C 0.48871 0.50023 0.71247 0.0
C807 C 0.45391 0.51226 0.68524 0.0
C808 C 0.53439 0.55247 0.6744 0.0
C809 C 0.45836 0.54928 0.65858 0.0
C810 C 0.58391 0.58771 0.61905 0.0
C811 C 0.65466 0.57056 0.67308 0.0
N812 N 0.49852 0.56742 0.65274 0.0
N813 N 0.61375 0.55713 0.68468 0.0
H814 H 0.43505 0.56505 0.25181 0.0
H815 H 0.64221 0.55169 0.39071 0.0
H816 H 0.47469 0.65876 0.34914 0.0
H817 H 0.5983 0.4539 0.29921 0.0
H818 H 0.60184 0.60732 0.3498 0.0
H819 H 0.51201 0.54503 0.23999 0.0
C820 C 0.46018 0.58363 0.26859 0.0
C821 C 0.44835 0.6122 0.30294 0.0
C822 C 0.60215 0.57402 0.3376 0.0
C823 C 0.53608 0.58825 0.29118 0.0
C824 C 0.62531 0.54235 0.36093 0.0
C825 C 0.62273 0.49834 0.34854 0.0
C826 C 0.5749 0.56108 0.3028 0.0
C827 C 0.60062 0.48761 0.30987 0.0
C828 C 0.50424 0.57155 0.26247 0.0
C829 C 0.48217 0.63576 0.3231 0.0
N830 N 0.57644 0.51859 0.28902 0.0
N831 N 0.5245 0.62187 0.31848 0.0
loop_
_geom_bond_atom_site_label_1
_geom_bond_atom_site_label_2
_geom_bond_distance
_geom_bond_site_symmetry_2
_ccdc_geom_bond_type
Mn0 O6 2.111 . S
Mn0 O11 2.150 . S
Mn0 O13 2.130 . S
Mn0 O21 2.281 . S
Mn0 O22 2.374 . S
Mn1 O2 2.126 . S
Mn1 O7 2.116 . S
Mn1 O12 2.129 . S
Mn1 O15 2.147 . S
Mn1 O19 2.267 . S
Mn1 O21 2.247 . S
O2 Mn1 2.126 . S
O2 C20 1.255 . S
O3 Mn4 2.113 . S
O3 C20 1.238 . S
Mn4 O3 2.113 . S
Mn4 O16 2.101 . S
Mn4 O18 2.372 . S
Mn4 O19 2.265 . S
C5 O6 1.258 . S
C5 O7 1.263 . S
O6 Mn0 2.111 . S
O6 C5 1.258 . S
O7 Mn1 2.116 . S
O7 C5 1.263 . S
P8 O13 1.496 . S
C9 O15 1.252 . S
C9 O16 1.259 . S
C10 O18 1.252 . S
C10 O19 1.273 . S
O11 Mn0 2.150 . S
O11 C17 1.271 . S
O12 Mn1 2.129 . S
O12 C17 1.250 . S
O13 Mn0 2.130 . S
O13 P8 1.496 . S
C14 O21 1.283 . S
C14 O22 1.263 . S
O15 Mn1 2.147 . S
O15 C9 1.252 . S
O16 Mn4 2.101 . S
O16 C9 1.259 . S
C17 O11 1.271 . S
C17 O12 1.250 . S
O18 Mn4 2.372 . S
O18 C10 1.252 . S
O19 Mn1 2.267 . S
O19 Mn4 2.265 . S
O19 C10 1.273 . S
C20 O2 1.255 . S
C20 O3 1.238 . S
O21 Mn0 2.281 . S
O21 Mn1 2.247 . S
O21 C14 1.283 . S
O22 Mn0 2.374 . S
O22 C14 1.263 . S
Mn23 O29 2.111 . S
Mn23 O34 2.150 . S
Mn23 O36 2.130 . S
Mn23 O44 2.281 . S
Mn23 O45 2.374 . S
Mn24 O25 2.126 . S
Mn24 O30 2.116 . S
Mn24 O35 2.129 . S
Mn24 O38 2.147 . S
Mn24 O42 2.267 . S
Mn24 O44 2.247 . S
O25 Mn24 2.126 . S
O25 C43 1.255 . S
O26 Mn27 2.113 . S
O26 C43 1.238 . S
Mn27 O26 2.113 . S
Mn27 O39 2.101 . S
Mn27 O41 2.372 . S
Mn27 O42 2.265 . S
C28 O29 1.258 . S
C28 O30 1.263 . S
O29 Mn23 2.111 . S
O29 C28 1.258 . S
O30 Mn24 2.116 . S
O30 C28 1.263 . S
P31 O36 1.496 . S
C32 O38 1.252 . S
C32 O39 1.259 . S
C33 O41 1.252 . S
C33 O42 1.273 . S
O34 Mn23 2.150 . S
O34 C40 1.271 . S
O35 Mn24 2.129 . S
O35 C40 1.250 . S
O36 Mn23 2.130 . S
O36 P31 1.496 . S
C37 O44 1.283 . S
C37 O45 1.263 . S
O38 Mn24 2.147 . S
O38 C32 1.252 . S
O39 Mn27 2.101 . S
O39 C32 1.259 . S
C40 O34 1.271 . S
C40 O35 1.250 . S
O41 Mn27 2.372 . S
O41 C33 1.252 . S
O42 Mn24 2.267 . S
O42 Mn27 2.265 . S
O42 C33 1.273 . S
C43 O25 1.255 . S
C43 O26 1.238 . S
O44 Mn23 2.281 . S
O44 Mn24 2.247 . S
O44 C37 1.283 . S
O45 Mn23 2.374 . S
O45 C37 1.263 . S
Mn46 O52 2.111 . S
Mn46 O57 2.150 . S
Mn46 O59 2.130 . S
Mn46 O67 2.281 . S
Mn46 O68 2.374 . S
Mn47 O48 2.126 . S
Mn47 O53 2.116 . S
Mn47 O58 2.129 . S
Mn47 O61 2.147 . S
Mn47 O65 2.267 . S
Mn47 O67 2.247 . S
O48 Mn47 2.126 . S
O48 C66 1.255 . S
O49 Mn50 2.113 . S
O49 C66 1.238 . S
Mn50 O49 2.113 . S
Mn50 O62 2.101 . S
Mn50 O64 2.372 . S
Mn50 O65 2.265 . S
C51 O52 1.258 . S
C51 O53 1.263 . S
O52 Mn46 2.111 . S
O52 C51 1.258 . S
O53 Mn47 2.116 . S
O53 C51 1.263 . S
P54 O59 1.496 . S
C55 O61 1.252 . S
C55 O62 1.259 . S
C56 O64 1.252 . S
C56 O65 1.273 . S
O57 Mn46 2.150 . S
O57 C63 1.271 . S
O58 Mn47 2.129 . S
O58 C63 1.250 . S
O59 Mn46 2.130 . S
O59 P54 1.496 . S
C60 O67 1.283 . S
C60 O68 1.263 . S
O61 Mn47 2.147 . S
O61 C55 1.252 . S
O62 Mn50 2.101 . S
O62 C55 1.259 . S
C63 O57 1.271 . S
C63 O58 1.250 . S
O64 Mn50 2.372 . S
O64 C56 1.252 . S
O65 Mn47 2.267 . S
O65 Mn50 2.265 . S
O65 C56 1.273 . S
C66 O48 1.255 . S
C66 O49 1.238 . S
O67 Mn46 2.281 . S
O67 Mn47 2.247 . S
O67 C60 1.283 . S
O68 Mn46 2.374 . S
O68 C60 1.263 . S
Mn69 O75 2.111 . S
Mn69 O80 2.150 . S
Mn69 O82 2.130 . S
Mn69 O90 2.281 . S
Mn69 O91 2.374 . S
Mn70 O71 2.126 . S
Mn70 O76 2.116 . S
Mn70 O81 2.129 . S
Mn70 O84 2.147 . S
Mn70 O88 2.267 . S
Mn70 O90 2.247 . S
O71 Mn70 2.126 . S
O71 C89 1.255 . S
O72 Mn73 2.113 . S
O72 C89 1.238 . S
Mn73 O72 2.113 . S
Mn73 O85 2.101 . S
Mn73 O87 2.372 . S
Mn73 O88 2.265 . S
C74 O75 1.258 . S
C74 O76 1.263 . S
O75 Mn69 2.111 . S
O75 C74 1.258 . S
O76 Mn70 2.116 . S
O76 C74 1.263 . S
P77 O82 1.496 . S
C78 O84 1.252 . S
C78 O85 1.259 . S
C79 O87 1.252 . S
C79 O88 1.273 . S
O80 Mn69 2.150 . S
O80 C86 1.271 . S
O81 Mn70 2.129 . S
O81 C86 1.250 . S
O82 Mn69 2.130 . S
O82 P77 1.496 . S
C83 O90 1.283 . S
C83 O91 1.263 . S
O84 Mn70 2.147 . S
O84 C78 1.252 . S
O85 Mn73 2.101 . S
O85 C78 1.259 . S
C86 O80 1.271 . S
C86 O81 1.250 . S
O87 Mn73 2.372 . S
O87 C79 1.252 . S
O88 Mn70 2.267 . S
O88 Mn73 2.265 . S
O88 C79 1.273 . S
C89 O71 1.255 . S
C89 O72 1.238 . S
O90 Mn69 2.281 . S
O90 Mn70 2.247 . S
O90 C83 1.283 . S
O91 Mn69 2.374 . S
O91 C83 1.263 . S
Mn92 O98 2.111 . S
Mn92 O103 2.150 . S
Mn92 O105 2.130 . S
Mn92 O113 2.281 . S
Mn92 O114 2.374 . S
Mn93 O94 2.126 . S
Mn93 O99 2.116 . S
Mn93 O104 2.129 . S
Mn93 O107 2.147 . S
Mn93 O111 2.267 . S
Mn93 O113 2.247 . S
O94 Mn93 2.126 . S
O94 C112 1.255 . S
O95 Mn96 2.113 . S
O95 C112 1.238 . S
Mn96 O95 2.113 . S
Mn96 O108 2.101 . S
Mn96 O110 2.372 . S
Mn96 O111 2.265 . S
C97 O98 1.258 . S
C97 O99 1.263 . S
O98 Mn92 2.111 . S
O98 C97 1.258 . S
O99 Mn93 2.116 . S
O99 C97 1.263 . S
P100 O105 1.496 . S
C101 O107 1.252 . S
C101 O108 1.259 . S
C102 O110 1.252 . S
C102 O111 1.273 . S
O103 Mn92 2.150 . S
O103 C109 1.271 . S
O104 Mn93 2.129 . S
O104 C109 1.250 . S
O105 Mn92 2.130 . S
O105 P100 1.496 . S
C106 O113 1.283 . S
C106 O114 1.263 . S
O107 Mn93 2.147 . S
O107 C101 1.252 . S
O108 Mn96 2.101 . S
O108 C101 1.259 . S
C109 O103 1.271 . S
C109 O104 1.250 . S
O110 Mn96 2.372 . S
O110 C102 1.252 . S
O111 Mn93 2.267 . S
O111 Mn96 2.265 . S
O111 C102 1.273 . S
C112 O94 1.255 . S
C112 O95 1.238 . S
O113 Mn92 2.281 . S
O113 Mn93 2.247 . S
O113 C106 1.283 . S
O114 Mn92 2.374 . S
O114 C106 1.263 . S
Mn115 O121 2.111 . S
Mn115 O126 2.150 . S
Mn115 O128 2.130 . S
Mn115 O136 2.281 . S
Mn115 O137 2.374 . S
Mn116 O117 2.126 . S
Mn116 O122 2.116 . S
Mn116 O127 2.129 . S
Mn116 O130 2.147 . S
Mn116 O134 2.267 . S
Mn116 O136 2.247 . S
O117 Mn116 2.126 . S
O117 C135 1.255 . S
O118 Mn119 2.113 . S
O118 C135 1.238 . S
Mn119 O118 2.113 . S
Mn119 O131 2.101 . S
Mn119 O133 2.372 . S
Mn119 O134 2.265 . S
C120 O121 1.258 . S
C120 O122 1.263 . S
O121 Mn115 2.111 . S
O121 C120 1.258 . S
O122 Mn116 2.116 . S
O122 C120 1.263 . S
P123 O128 1.496 . S
C124 O130 1.252 . S
C124 O131 1.259 . S
C125 O133 1.252 . S
C125 O134 1.273 . S
O126 Mn115 2.150 . S
O126 C132 1.271 . S
O127 Mn116 2.129 . S
O127 C132 1.250 . S
O128 Mn115 2.130 . S
O128 P123 1.496 . S
C129 O136 1.283 . S
C129 O137 1.263 . S
O130 Mn116 2.147 . S
O130 C124 1.252 . S
O131 Mn119 2.101 . S
O131 C124 1.259 . S
C132 O126 1.271 . S
C132 O127 1.250 . S
O133 Mn119 2.372 . S
O133 C125 1.252 . S
O134 Mn116 2.267 . S
O134 Mn119 2.265 . S
O134 C125 1.273 . S
C135 O117 1.255 . S
C135 O118 1.238 . S
O136 Mn115 2.281 . S
O136 Mn116 2.247 . S
O136 C129 1.283 . S
O137 Mn115 2.374 . S
O137 C129 1.263 . S
Mn138 O144 2.111 . S
Mn138 O149 2.150 . S
Mn138 O151 2.130 . S
Mn138 O159 2.281 . S
Mn138 O160 2.374 . S
Mn139 O140 2.126 . S
Mn139 O145 2.116 . S
Mn139 O150 2.129 . S
Mn139 O153 2.147 . S
Mn139 O157 2.267 . S
Mn139 O159 2.247 . S
O140 Mn139 2.126 . S
O140 C158 1.255 . S
O141 Mn142 2.113 . S
O141 C158 1.238 . S
Mn142 O141 2.113 . S
Mn142 O154 2.101 . S
Mn142 O156 2.372 . S
Mn142 O157 2.265 . S
C143 O144 1.258 . S
C143 O145 1.263 . S
O144 Mn138 2.111 . S
O144 C143 1.258 . S
O145 Mn139 2.116 . S
O145 C143 1.263 . S
P146 O151 1.496 . S
C147 O153 1.252 . S
C147 O154 1.259 . S
C148 O156 1.252 . S
C148 O157 1.273 . S
O149 Mn138 2.150 . S
O149 C155 1.271 . S
O150 Mn139 2.129 . S
O150 C155 1.250 . S
O151 Mn138 2.130 . S
O151 P146 1.496 . S
C152 O159 1.283 . S
C152 O160 1.263 . S
O153 Mn139 2.147 . S
O153 C147 1.252 . S
O154 Mn142 2.101 . S
O154 C147 1.259 . S
C155 O149 1.271 . S
C155 O150 1.250 . S
O156 Mn142 2.372 . S
O156 C148 1.252 . S
O157 Mn139 2.267 . S
O157 Mn142 2.265 . S
O157 C148 1.273 . S
C158 O140 1.255 . S
C158 O141 1.238 . S
O159 Mn138 2.281 . S
O159 Mn139 2.247 . S
O159 C152 1.283 . S
O160 Mn138 2.374 . S
O160 C152 1.263 . S
Mn161 O167 2.111 . S
Mn161 O172 2.150 . S
Mn161 O174 2.130 . S
Mn161 O182 2.281 . S
Mn161 O183 2.374 . S
Mn162 O163 2.126 . S
Mn162 O168 2.116 . S
Mn162 O173 2.129 . S
Mn162 O176 2.147 . S
Mn162 O180 2.267 . S
Mn162 O182 2.247 . S
O163 Mn162 2.126 . S
O163 C181 1.255 . S
O164 Mn165 2.113 . S
O164 C181 1.238 . S
Mn165 O164 2.113 . S
Mn165 O177 2.101 . S
Mn165 O179 2.372 . S
Mn165 O180 2.265 . S
C166 O167 1.258 . S
C166 O168 1.263 . S
O167 Mn161 2.111 . S
O167 C166 1.258 . S
O168 Mn162 2.116 . S
O168 C166 1.263 . S
P169 O174 1.496 . S
C170 O176 1.252 . S
C170 O177 1.259 . S
C171 O179 1.252 . S
C171 O180 1.273 . S
O172 Mn161 2.150 . S
O172 C178 1.271 . S
O173 Mn162 2.129 . S
O173 C178 1.250 . S
O174 Mn161 2.130 . S
O174 P169 1.496 . S
C175 O182 1.283 . S
C175 O183 1.263 . S
O176 Mn162 2.147 . S
O176 C170 1.252 . S
O177 Mn165 2.101 . S
O177 C170 1.259 . S
C178 O172 1.271 . S
C178 O173 1.250 . S
O179 Mn165 2.372 . S
O179 C171 1.252 . S
O180 Mn162 2.267 . S
O180 Mn165 2.265 . S
O180 C171 1.273 . S
C181 O163 1.255 . S
C181 O164 1.238 . S
O182 Mn161 2.281 . S
O182 Mn162 2.247 . S
O182 C175 1.283 . S
O183 Mn161 2.374 . S
O183 C175 1.263 . S
H184 C190 0.930 . S
H185 C194 0.930 . S
H186 C199 0.929 . S
H187 C197 0.929 . S
H188 C192 0.929 . S
H189 C198 0.929 . S
C190 H184 0.930 . S
C190 C191 1.367 . S
C190 C198 1.378 1_554 S
C191 C190 1.367 . S
C191 C199 1.433 . S
C192 H188 0.929 . S
C192 C194 1.378 . S
C192 C196 1.350 . S
C193 C196 1.463 . S
C193 C198 1.350 . S
C193 N201 1.427 . S
C194 H185 0.930 . S
C194 C192 1.378 . S
C194 C195 1.367 . S
C195 C194 1.367 . S
C195 C197 1.433 . S
C196 C192 1.350 . S
C196 C193 1.463 . S
C196 N200 1.427 . S
C197 H187 0.929 . S
C197 C195 1.433 . S
C197 N200 1.384 . S
C198 H189 0.929 . S
C198 C190 1.378 1_556 S
C198 C193 1.350 . S
C199 H186 0.929 . S
C199 C191 1.433 . S
C199 N201 1.384 1_554 S
N200 C196 1.427 . S
N200 C197 1.384 . S
N201 C193 1.427 . S
N201 C199 1.384 1_556 S
H202 C208 0.930 . S
H203 C212 0.930 . S
H204 C217 0.929 . S
H205 C215 0.929 . S
H206 C210 0.929 . S
H207 C216 0.929 . S
C208 H202 0.930 . S
C208 C209 1.367 . S
C208 C216 1.378 1_556 S
C209 C208 1.367 . S
C209 C217 1.433 . S
C210 H206 0.929 . S
C210 C212 1.378 . S
C210 C214 1.350 . S
C211 C214 1.463 . S
C211 C216 1.350 . S
C211 N219 1.427 . S
C212 H203 0.930 . S
C212 C210 1.378 . S
C212 C213 1.367 . S
C213 C212 1.367 . S
C213 C215 1.433 . S
C214 C210 1.350 . S
C214 C211 1.463 . S
C214 N218 1.427 . S
C215 H205 0.929 . S
C215 C213 1.433 . S
C215 N218 1.384 . S
C216 H207 0.929 . S
C216 C208 1.378 1_554 S
C216 C211 1.350 . S
C217 H204 0.929 . S
C217 C209 1.433 . S
C217 N219 1.384 1_556 S
N218 C214 1.427 . S
N218 C215 1.384 . S
N219 C211 1.427 . S
N219 C217 1.384 1_554 S
H220 C226 0.930 . S
H221 C230 0.930 . S
H222 C235 0.929 . S
H223 C233 0.929 . S
H224 C228 0.929 . S
H225 C234 0.929 . S
C226 H220 0.930 . S
C226 C227 1.367 . S
C226 C234 1.378 . S
C227 C226 1.367 . S
C227 C235 1.433 . S
C228 H224 0.929 . S
C228 C230 1.378 1_556 S
C228 C232 1.350 . S
C229 C232 1.463 . S
C229 C234 1.350 . S
C229 N237 1.427 . S
C230 H221 0.930 . S
C230 C228 1.378 1_554 S
C230 C231 1.367 . S
C231 C230 1.367 . S
C231 C233 1.433 . S
C232 C228 1.350 . S
C232 C229 1.463 . S
C232 N236 1.427 . S
C233 H223 0.929 . S
C233 C231 1.433 . S
C233 N236 1.384 1_554 S
C234 H225 0.929 . S
C234 C226 1.378 . S
C234 C229 1.350 . S
C235 H222 0.929 . S
C235 C227 1.433 . S
C235 N237 1.384 . S
N236 C232 1.427 . S
N236 C233 1.384 1_556 S
N237 C229 1.427 . S
N237 C235 1.384 . S
H238 C244 0.930 . S
H239 C248 0.930 . S
H240 C253 0.929 . S
H241 C251 0.929 . S
H242 C246 0.929 . S
H243 C252 0.929 . S
C244 H238 0.930 . S
C244 C245 1.367 . S
C244 C252 1.378 1_556 S
C245 C244 1.367 . S
C245 C253 1.433 . S
C246 H242 0.929 . S
C246 C248 1.378 . S
C246 C250 1.350 . S
C247 C250 1.463 . S
C247 C252 1.350 . S
C247 N255 1.427 . S
C248 H239 0.930 . S
C248 C246 1.378 . S
C248 C249 1.367 . S
C249 C248 1.367 . S
C249 C251 1.433 . S
C250 C246 1.350 . S
C250 C247 1.463 . S
C250 N254 1.427 . S
C251 H241 0.929 . S
C251 C249 1.433 . S
C251 N254 1.384 . S
C252 H243 0.929 . S
C252 C244 1.378 1_554 S
C252 C247 1.350 . S
C253 H240 0.929 . S
C253 C245 1.433 . S
C253 N255 1.384 1_556 S
N254 C250 1.427 . S
N254 C251 1.384 . S
N255 C247 1.427 . S
N255 C253 1.384 1_554 S
H256 C262 0.930 . S
H257 C266 0.930 . S
H258 C271 0.929 . S
H259 C269 0.929 . S
H260 C264 0.929 . S
H261 C270 0.929 . S
C262 H256 0.930 . S
C262 C263 1.367 . S
C262 C270 1.378 . S
C263 C262 1.367 . S
C263 C271 1.433 . S
C264 H260 0.929 . S
C264 C266 1.378 1_655 S
C264 C268 1.350 . S
C265 C268 1.463 . S
C265 C270 1.350 . S
C265 N273 1.427 . S
C266 H257 0.930 . S
C266 C264 1.378 1_455 S
C266 C267 1.367 . S
C267 C266 1.367 . S
C267 C269 1.433 . S
C268 C264 1.350 . S
C268 C265 1.463 . S
C268 N272 1.427 . S
C269 H259 0.929 . S
C269 C267 1.433 . S
C269 N272 1.384 1_455 S
C270 H261 0.929 . S
C270 C262 1.378 . S
C270 C265 1.350 . S
C271 H258 0.929 . S
C271 C263 1.433 . S
C271 N273 1.384 . S
N272 C268 1.427 . S
N272 C269 1.384 1_655 S
N273 C265 1.427 . S
N273 C271 1.384 . S
H274 C280 0.930 . S
H275 C284 0.930 . S
H276 C289 0.929 . S
H277 C287 0.929 . S
H278 C282 0.929 . S
H279 C288 0.929 . S
C280 H274 0.930 . S
C280 C281 1.367 . S
C280 C288 1.378 1_565 S
C281 C280 1.367 . S
C281 C289 1.433 . S
C282 H278 0.929 . S
C282 C284 1.378 . S
C282 C286 1.350 . S
C283 C286 1.463 . S
C283 C288 1.350 . S
C283 N291 1.427 . S
C284 H275 0.930 . S
C284 C282 1.378 . S
C284 C285 1.367 . S
C285 C284 1.367 . S
C285 C287 1.433 . S
C286 C282 1.350 . S
C286 C283 1.463 . S
C286 N290 1.427 . S
C287 H277 0.929 . S
C287 C285 1.433 . S
C287 N290 1.384 . S
C288 H279 0.929 . S
C288 C280 1.378 1_545 S
C288 C283 1.350 . S
C289 H276 0.929 . S
C289 C281 1.433 . S
C289 N291 1.384 1_565 S
N290 C286 1.427 . S
N290 C287 1.384 . S
N291 C283 1.427 . S
N291 C289 1.384 1_545 S
H292 C298 0.930 . S
H293 C302 0.930 . S
H294 C307 0.929 . S
H295 C305 0.929 . S
H296 C300 0.929 . S
H297 C306 0.929 . S
C298 H292 0.930 . S
C298 C299 1.367 . S
C298 C306 1.378 . S
C299 C298 1.367 . S
C299 C307 1.433 . S
C300 H296 0.929 . S
C300 C302 1.378 1_455 S
C300 C304 1.350 . S
C301 C304 1.463 . S
C301 C306 1.350 . S
C301 N309 1.427 . S
C302 H293 0.930 . S
C302 C300 1.378 1_655 S
C302 C303 1.367 . S
C303 C302 1.367 . S
C303 C305 1.433 . S
C304 C300 1.350 . S
C304 C301 1.463 . S
C304 N308 1.427 . S
C305 H295 0.929 . S
C305 C303 1.433 . S
C305 N308 1.384 1_655 S
C306 H297 0.929 . S
C306 C298 1.378 . S
C306 C301 1.350 . S
C307 H294 0.929 . S
C307 C299 1.433 . S
C307 N309 1.384 . S
N308 C304 1.427 . S
N308 C305 1.384 1_455 S
N309 C301 1.427 . S
N309 C307 1.384 . S
H310 C316 0.930 . S
H311 C320 0.930 . S
H312 C325 0.929 . S
H313 C323 0.929 . S
H314 C318 0.929 . S
H315 C324 0.929 . S
C316 H310 0.930 . S
C316 C317 1.367 . S
C316 C324 1.378 . S
C317 C316 1.367 . S
C317 C325 1.433 . S
C318 H314 0.929 . S
C318 C320 1.378 1_565 S
C318 C322 1.350 . S
C319 C322 1.463 . S
C319 C324 1.350 . S
C319 N327 1.427 . S
C320 H311 0.930 . S
C320 C318 1.378 1_545 S
C320 C321 1.367 . S
C321 C320 1.367 . S
C321 C323 1.433 . S
C322 C318 1.350 . S
C322 C319 1.463 . S
C322 N326 1.427 . S
C323 H313 0.929 . S
C323 C321 1.433 . S
C323 N326 1.384 1_545 S
C324 H315 0.929 . S
C324 C316 1.378 . S
C324 C319 1.350 . S
C325 H312 0.929 . S
C325 C317 1.433 . S
C325 N327 1.384 . S
N326 C322 1.427 . S
N326 C323 1.384 1_565 S
N327 C319 1.427 . S
N327 C325 1.384 . S
H328 C334 0.930 . S
H329 C338 0.930 . S
H330 C343 0.929 . S
H331 C341 0.929 . S
H332 C336 0.929 . S
H333 C342 0.929 . S
C334 H328 0.930 . S
C334 C335 1.367 . S
C334 C342 1.378 . S
C335 C334 1.367 . S
C335 C343 1.433 . S
C336 H332 0.929 . S
C336 C338 1.378 1_655 S
C336 C340 1.350 . S
C337 C340 1.463 . S
C337 C342 1.350 . S
C337 N345 1.427 . S
C338 H329 0.930 . S
C338 C336 1.378 1_455 S
C338 C339 1.367 . S
C339 C338 1.367 . S
C339 C341 1.433 . S
C340 C336 1.350 . S
C340 C337 1.463 . S
C340 N344 1.427 . S
C341 H331 0.929 . S
C341 C339 1.433 . S
C341 N344 1.384 1_455 S
C342 H333 0.929 . S
C342 C334 1.378 . S
C342 C337 1.350 . S
C343 H330 0.929 . S
C343 C335 1.433 . S
C343 N345 1.384 . S
N344 C340 1.427 . S
N344 C341 1.384 1_655 S
N345 C337 1.427 . S
N345 C343 1.384 . S
H346 C352 0.930 . S
H347 C356 0.930 . S
H348 C361 0.929 . S
H349 C359 0.929 . S
H350 C354 0.929 . S
H351 C360 0.929 . S
C352 H346 0.930 . S
C352 C353 1.367 . S
C352 C360 1.378 1_565 S
C353 C352 1.367 . S
C353 C361 1.433 . S
C354 H350 0.929 . S
C354 C356 1.378 . S
C354 C358 1.350 . S
C355 C358 1.463 . S
C355 C360 1.350 . S
C355 N363 1.427 . S
C356 H347 0.930 . S
C356 C354 1.378 . S
C356 C357 1.367 . S
C357 C356 1.367 . S
C357 C359 1.433 . S
C358 C354 1.350 . S
C358 C355 1.463 . S
C358 N362 1.427 . S
C359 H349 0.929 . S
C359 C357 1.433 . S
C359 N362 1.384 . S
C360 H351 0.929 . S
C360 C352 1.378 1_545 S
C360 C355 1.350 . S
C361 H348 0.929 . S
C361 C353 1.433 . S
C361 N363 1.384 1_565 S
N362 C358 1.427 . S
N362 C359 1.384 . S
N363 C355 1.427 . S
N363 C361 1.384 1_545 S
H364 C370 0.930 . S
H365 C374 0.930 . S
H366 C379 0.929 . S
H367 C377 0.929 . S
H368 C372 0.929 . S
H369 C378 0.929 . S
C370 H364 0.930 . S
C370 C371 1.367 . S
C370 C378 1.378 1_655 S
C371 C370 1.367 . S
C371 C379 1.433 . S
C372 H368 0.929 . S
C372 C374 1.378 . S
C372 C376 1.350 . S
C373 C376 1.463 . S
C373 C378 1.350 . S
C373 N381 1.427 . S
C374 H365 0.930 . S
C374 C372 1.378 . S
C374 C375 1.367 . S
C375 C374 1.367 . S
C375 C377 1.433 . S
C376 C372 1.350 . S
C376 C373 1.463 . S
C376 N380 1.427 . S
C377 H367 0.929 . S
C377 C375 1.433 . S
C377 N380 1.384 . S
C378 H369 0.929 . S
C378 C370 1.378 1_455 S
C378 C373 1.350 . S
C379 H366 0.929 . S
C379 C371 1.433 . S
C379 N381 1.384 1_655 S
N380 C376 1.427 . S
N380 C377 1.384 . S
N381 C373 1.427 . S
N381 C379 1.384 1_455 S
H382 C388 0.930 . S
H383 C392 0.930 . S
H384 C397 0.929 . S
H385 C395 0.929 . S
H386 C390 0.929 . S
H387 C396 0.929 . S
C388 H382 0.930 . S
C388 C389 1.367 . S
C388 C396 1.378 . S
C389 C388 1.367 . S
C389 C397 1.433 . S
C390 H386 0.929 . S
C390 C392 1.378 1_565 S
C390 C394 1.350 . S
C391 C394 1.463 . S
C391 C396 1.350 . S
C391 N399 1.427 . S
C392 H383 0.930 . S
C392 C390 1.378 1_545 S
C392 C393 1.367 . S
C393 C392 1.367 . S
C393 C395 1.433 . S
C394 C390 1.350 . S
C394 C391 1.463 . S
C394 N398 1.427 . S
C395 H385 0.929 . S
C395 C393 1.433 . S
C395 N398 1.384 1_545 S
C396 H387 0.929 . S
C396 C388 1.378 . S
C396 C391 1.350 . S
C397 H384 0.929 . S
C397 C389 1.433 . S
C397 N399 1.384 . S
N398 C394 1.427 . S
N398 C395 1.384 1_565 S
N399 C391 1.427 . S
N399 C397 1.384 . S
H400 C406 0.930 . S
H401 C410 0.930 . S
H402 C415 0.929 . S
H403 C413 0.929 . S
H404 C408 0.929 . S
H405 C414 0.929 . S
C406 H400 0.930 . S
C406 C407 1.367 . S
C406 C414 1.378 . S
C407 C406 1.367 . S
C407 C415 1.433 . S
C408 H404 0.929 . S
C408 C410 1.378 . S
C408 C412 1.350 . S
C409 C412 1.463 . S
C409 C414 1.350 . S
C409 N417 1.427 . S
C410 H401 0.930 . S
C410 C408 1.378 . S
C410 C411 1.367 . S
C411 C410 1.367 . S
C411 C413 1.433 . S
C412 C408 1.350 . S
C412 C409 1.463 . S
C412 N416 1.427 . S
C413 H403 0.929 . S
C413 C411 1.433 . S
C413 N416 1.384 . S
C414 H405 0.929 . S
C414 C406 1.378 . S
C414 C409 1.350 . S
C415 H402 0.929 . S
C415 C407 1.433 . S
C415 N417 1.384 . S
N416 C412 1.427 . S
N416 C413 1.384 . S
N417 C409 1.427 . S
N417 C415 1.384 . S
H418 C424 0.930 . S
H419 C428 0.930 . S
H420 C433 0.929 . S
H421 C431 0.929 . S
H422 C426 0.929 . S
H423 C432 0.929 . S
C424 H418 0.930 . S
C424 C425 1.367 . S
C424 C432 1.378 . S
C425 C424 1.367 . S
C425 C433 1.433 . S
C426 H422 0.929 . S
C426 C428 1.378 . S
C426 C430 1.350 . S
C427 C430 1.463 . S
C427 C432 1.350 . S
C427 N435 1.427 . S
C428 H419 0.930 . S
C428 C426 1.378 . S
C428 C429 1.367 . S
C429 C428 1.367 . S
C429 C431 1.433 . S
C430 C426 1.350 . S
C430 C427 1.463 . S
C430 N434 1.427 . S
C431 H421 0.929 . S
C431 C429 1.433 . S
C431 N434 1.384 . S
C432 H423 0.929 . S
C432 C424 1.378 . S
C432 C427 1.350 . S
C433 H420 0.929 . S
C433 C425 1.433 . S
C433 N435 1.384 . S
N434 C430 1.427 . S
N434 C431 1.384 . S
N435 C427 1.427 . S
N435 C433 1.384 . S
H436 C442 0.930 . S
H437 C446 0.930 . S
H438 C451 0.929 . S
H439 C449 0.929 . S
H440 C444 0.929 . S
H441 C450 0.929 . S
C442 H436 0.930 . S
C442 C443 1.367 . S
C442 C450 1.378 . S
C443 C442 1.367 . S
C443 C451 1.433 . S
C444 H440 0.929 . S
C444 C446 1.378 . S
C444 C448 1.350 . S
C445 C448 1.463 . S
C445 C450 1.350 . S
C445 N453 1.427 . S
C446 H437 0.930 . S
C446 C444 1.378 . S
C446 C447 1.367 . S
C447 C446 1.367 . S
C447 C449 1.433 . S
C448 C444 1.350 . S
C448 C445 1.463 . S
C448 N452 1.427 . S
C449 H439 0.929 . S
C449 C447 1.433 . S
C449 N452 1.384 . S
C450 H441 0.929 . S
C450 C442 1.378 . S
C450 C445 1.350 . S
C451 H438 0.929 . S
C451 C443 1.433 . S
C451 N453 1.384 . S
N452 C448 1.427 . S
N452 C449 1.384 . S
N453 C445 1.427 . S
N453 C451 1.384 . S
H454 C460 0.930 . S
H455 C464 0.930 . S
H456 C469 0.929 . S
H457 C467 0.929 . S
H458 C462 0.929 . S
H459 C468 0.929 . S
C460 H454 0.930 . S
C460 C461 1.367 . S
C460 C468 1.378 . S
C461 C460 1.367 . S
C461 C469 1.433 . S
C462 H458 0.929 . S
C462 C464 1.378 . S
C462 C466 1.350 . S
C463 C466 1.463 . S
C463 C468 1.350 . S
C463 N471 1.427 . S
C464 H455 0.930 . S
C464 C462 1.378 . S
C464 C465 1.367 . S
C465 C464 1.367 . S
C465 C467 1.433 . S
C466 C462 1.350 . S
C466 C463 1.463 . S
C466 N470 1.427 . S
C467 H457 0.929 . S
C467 C465 1.433 . S
C467 N470 1.384 . S
C468 H459 0.929 . S
C468 C460 1.378 . S
C468 C463 1.350 . S
C469 H456 0.929 . S
C469 C461 1.433 . S
C469 N471 1.384 . S
N470 C466 1.427 . S
N470 C467 1.384 . S
N471 C463 1.427 . S
N471 C469 1.384 . S
H472 C478 0.930 . S
H473 C482 0.930 . S
H474 C487 0.929 . S
H475 C485 0.929 . S
H476 C480 0.929 . S
H477 C486 0.929 . S
C478 H472 0.930 . S
C478 C479 1.367 . S
C478 C486 1.378 . S
C479 C478 1.367 . S
C479 C487 1.433 . S
C480 H476 0.929 . S
C480 C482 1.378 . S
C480 C484 1.350 . S
C481 C484 1.463 . S
C481 C486 1.350 . S
C481 N489 1.427 . S
C482 H473 0.930 . S
C482 C480 1.378 . S
C482 C483 1.367 . S
C483 C482 1.367 . S
C483 C485 1.433 . S
C484 C480 1.350 . S
C484 C481 1.463 . S
C484 N488 1.427 . S
C485 H475 0.929 . S
C485 C483 1.433 . S
C485 N488 1.384 . S
C486 H477 0.929 . S
C486 C478 1.378 . S
C486 C481 1.350 . S
C487 H474 0.929 . S
C487 C479 1.433 . S
C487 N489 1.384 . S
N488 C484 1.427 . S
N488 C485 1.384 . S
N489 C481 1.427 . S
N489 C487 1.384 . S
H490 C496 0.930 . S
H491 C500 0.930 . S
H492 C505 0.929 . S
H493 C503 0.929 . S
H494 C498 0.929 . S
H495 C504 0.929 . S
C496 H490 0.930 . S
C496 C497 1.367 . S
C496 C504 1.378 . S
C497 C496 1.367 . S
C497 C505 1.433 . S
C498 H494 0.929 . S
C498 C500 1.378 . S
C498 C502 1.350 . S
C499 C502 1.463 . S
C499 C504 1.350 . S
C499 N507 1.427 . S
C500 H491 0.930 . S
C500 C498 1.378 . S
C500 C501 1.367 . S
C501 C500 1.367 . S
C501 C503 1.433 . S
C502 C498 1.350 . S
C502 C499 1.463 . S
C502 N506 1.427 . S
C503 H493 0.929 . S
C503 C501 1.433 . S
C503 N506 1.384 . S
C504 H495 0.929 . S
C504 C496 1.378 . S
C504 C499 1.350 . S
C505 H492 0.929 . S
C505 C497 1.433 . S
C505 N507 1.384 . S
N506 C502 1.427 . S
N506 C503 1.384 . S
N507 C499 1.427 . S
N507 C505 1.384 . S
H508 C514 0.930 . S
H509 C518 0.930 . S
H510 C523 0.929 . S
H511 C521 0.929 . S
H512 C516 0.929 . S
H513 C522 0.929 . S
C514 H508 0.930 . S
C514 C515 1.367 . S
C514 C522 1.378 . S
C515 C514 1.367 . S
C515 C523 1.433 . S
C516 H512 0.929 . S
C516 C518 1.378 . S
C516 C520 1.350 . S
C517 C520 1.463 . S
C517 C522 1.350 . S
C517 N525 1.427 . S
C518 H509 0.930 . S
C518 C516 1.378 . S
C518 C519 1.367 . S
C519 C518 1.367 . S
C519 C521 1.433 . S
C520 C516 1.350 . S
C520 C517 1.463 . S
C520 N524 1.427 . S
C521 H511 0.929 . S
C521 C519 1.433 . S
C521 N524 1.384 . S
C522 H513 0.929 . S
C522 C514 1.378 . S
C522 C517 1.350 . S
C523 H510 0.929 . S
C523 C515 1.433 . S
C523 N525 1.384 . S
N524 C520 1.427 . S
N524 C521 1.384 . S
N525 C517 1.427 . S
N525 C523 1.384 . S
H526 C532 0.930 . S
H527 C536 0.930 . S
H528 C541 0.929 . S
H529 C539 0.929 . S
H530 C534 0.929 . S
H531 C540 0.929 . S
C532 H526 0.930 . S
C532 C533 1.367 . S
C532 C540 1.378 . S
C533 C532 1.367 . S
C533 C541 1.433 . S
C534 H530 0.929 . S
C534 C536 1.378 . S
C534 C538 1.350 . S
C535 C538 1.463 . S
C535 C540 1.350 . S
C535 N543 1.427 . S
C536 H527 0.930 . S
C536 C534 1.378 . S
C536 C537 1.367 . S
C537 C536 1.367 . S
C537 C539 1.433 . S
C538 C534 1.350 . S
C538 C535 1.463 . S
C538 N542 1.427 . S
C539 H529 0.929 . S
C539 C537 1.433 . S
C539 N542 1.384 . S
C540 H531 0.929 . S
C540 C532 1.378 . S
C540 C535 1.350 . S
C541 H528 0.929 . S
C541 C533 1.433 . S
C541 N543 1.384 . S
N542 C538 1.427 . S
N542 C539 1.384 . S
N543 C535 1.427 . S
N543 C541 1.384 . S
H544 C550 0.930 . S
H545 C554 0.930 . S
H546 C559 0.929 . S
H547 C557 0.929 . S
H548 C552 0.929 . S
H549 C558 0.929 . S
C550 H544 0.930 . S
C550 C551 1.367 . S
C550 C558 1.378 . S
C551 C550 1.367 . S
C551 C559 1.433 . S
C552 H548 0.929 . S
C552 C554 1.378 . S
C552 C556 1.350 . S
C553 C556 1.463 . S
C553 C558 1.350 . S
C553 N561 1.427 . S
C554 H545 0.930 . S
C554 C552 1.378 . S
C554 C555 1.367 . S
C555 C554 1.367 . S
C555 C557 1.433 . S
C556 C552 1.350 . S
C556 C553 1.463 . S
C556 N560 1.427 . S
C557 H547 0.929 . S
C557 C555 1.433 . S
C557 N560 1.384 . S
C558 H549 0.929 . S
C558 C550 1.378 . S
C558 C553 1.350 . S
C559 H546 0.929 . S
C559 C551 1.433 . S
C559 N561 1.384 . S
N560 C556 1.427 . S
N560 C557 1.384 . S
N561 C553 1.427 . S
N561 C559 1.384 . S
H562 C568 0.930 . S
H563 C572 0.930 . S
H564 C577 0.929 . S
H565 C575 0.929 . S
H566 C570 0.929 . S
H567 C576 0.929 . S
C568 H562 0.930 . S
C568 C569 1.367 . S
C568 C576 1.378 . S
C569 C568 1.367 . S
C569 C577 1.433 . S
C570 H566 0.929 . S
C570 C572 1.378 . S
C570 C574 1.350 . S
C571 C574 1.463 . S
C571 C576 1.350 . S
C571 N579 1.427 . S
C572 H563 0.930 . S
C572 C570 1.378 . S
C572 C573 1.367 . S
C573 C572 1.367 . S
C573 C575 1.433 . S
C574 C570 1.350 . S
C574 C571 1.463 . S
C574 N578 1.427 . S
C575 H565 0.929 . S
C575 C573 1.433 . S
C575 N578 1.384 . S
C576 H567 0.929 . S
C576 C568 1.378 . S
C576 C571 1.350 . S
C577 H564 0.929 . S
C577 C569 1.433 . S
C577 N579 1.384 . S
N578 C574 1.427 . S
N578 C575 1.384 . S
N579 C571 1.427 . S
N579 C577 1.384 . S
H580 C586 0.930 . S
H581 C590 0.930 . S
H582 C595 0.929 . S
H583 C593 0.929 . S
H584 C588 0.929 . S
H585 C594 0.929 . S
C586 H580 0.930 . S
C586 C587 1.367 . S
C586 C594 1.378 . S
C587 C586 1.367 . S
C587 C595 1.433 . S
C588 H584 0.929 . S
C588 C590 1.378 . S
C588 C592 1.350 . S
C589 C592 1.463 . S
C589 C594 1.350 . S
C589 N597 1.427 . S
C590 H581 0.930 . S
C590 C588 1.378 . S
C590 C591 1.367 . S
C591 C590 1.367 . S
C591 C593 1.433 . S
C592 C588 1.350 . S
C592 C589 1.463 . S
C592 N596 1.427 . S
C593 H583 0.929 . S
C593 C591 1.433 . S
C593 N596 1.384 . S
C594 H585 0.929 . S
C594 C586 1.378 . S
C594 C589 1.350 . S
C595 H582 0.929 . S
C595 C587 1.433 . S
C595 N597 1.384 . S
N596 C592 1.427 . S
N596 C593 1.384 . S
N597 C589 1.427 . S
N597 C595 1.384 . S
H598 C604 0.930 . S
H599 C608 0.930 . S
H600 C613 0.929 . S
H601 C611 0.929 . S
H602 C606 0.929 . S
H603 C612 0.929 . S
C604 H598 0.930 . S
C604 C605 1.367 . S
C604 C612 1.378 . S
C605 C604 1.367 . S
C605 C613 1.433 . S
C606 H602 0.929 . S
C606 C608 1.378 . S
C606 C610 1.350 . S
C607 C610 1.463 . S
C607 C612 1.350 . S
C607 N615 1.427 . S
C608 H599 0.930 . S
C608 C606 1.378 . S
C608 C609 1.367 . S
C609 C608 1.367 . S
C609 C611 1.433 . S
C610 C606 1.350 . S
C610 C607 1.463 . S
C610 N614 1.427 . S
C611 H601 0.929 . S
C611 C609 1.433 . S
C611 N614 1.384 . S
C612 H603 0.929 . S
C612 C604 1.378 . S
C612 C607 1.350 . S
C613 H600 0.929 . S
C613 C605 1.433 . S
C613 N615 1.384 . S
N614 C610 1.427 . S
N614 C611 1.384 . S
N615 C607 1.427 . S
N615 C613 1.384 . S
H616 C622 0.930 . S
H617 C626 0.930 . S
H618 C631 0.929 . S
H619 C629 0.929 . S
H620 C624 0.919 1_544 S
H621 C630 0.929 . S
C622 H616 0.930 . S
C622 C623 1.367 . S
C622 C630 1.378 . S
C623 C622 1.367 . S
C623 C631 1.433 . S
C624 H620 0.919 1_566 S
C624 C626 1.378 . S
C624 C628 1.354 1_556 S
C625 C628 1.451 1_545 S
C625 C630 1.350 . S
C625 N633 1.427 . S
C626 H617 0.930 . S
C626 C624 1.378 . S
C626 C627 1.367 . S
C627 C626 1.367 . S
C627 C629 1.433 . S
C628 C624 1.354 1_554 S
C628 C625 1.451 1_565 S
C628 N632 1.435 1_554 S
C629 H619 0.929 . S
C629 C627 1.433 . S
C629 N632 1.384 . S
C630 H621 0.929 . S
C630 C622 1.378 . S
C630 C625 1.350 . S
C631 H618 0.929 . S
C631 C623 1.433 . S
C631 N633 1.384 . S
N632 C628 1.435 1_556 S
N632 C629 1.384 . S
N633 C625 1.427 . S
N633 C631 1.384 . S
H634 C640 0.928 1_556 S
H635 C644 0.930 . S
H636 C649 0.929 . S
H637 C647 0.929 . S
H638 C642 0.927 . S
H639 C648 0.929 . S
C640 H634 0.928 1_554 S
C640 C641 1.372 . S
C640 C648 1.375 1_554 S
C641 C640 1.372 . S
C641 C649 1.433 . S
C642 H638 0.927 . S
C642 C644 1.379 1_554 S
C642 C646 1.351 1_554 S
C643 C646 1.465 1_655 S
C643 C648 1.353 . S
C643 N651 1.422 1_556 S
C644 H635 0.930 . S
C644 C642 1.379 1_556 S
C644 C645 1.367 . S
C645 C644 1.367 . S
C645 C647 1.433 . S
C646 C642 1.351 1_556 S
C646 C643 1.465 1_455 S
C646 N650 1.427 . S
C647 H637 0.929 . S
C647 C645 1.433 . S
C647 N650 1.384 . S
C648 H639 0.929 . S
C648 C640 1.375 1_556 S
C648 C643 1.353 . S
C649 H636 0.929 . S
C649 C641 1.433 . S
C649 N651 1.384 . S
N650 C646 1.427 . S
N650 C647 1.384 . S
N651 C643 1.422 1_554 S
N651 C649 1.384 . S
H652 C658 0.930 . S
H653 C662 0.930 . S
H654 C667 0.929 . S
H655 C665 0.929 . S
H656 C660 0.929 . S
H657 C666 0.929 1_545 S
C658 H652 0.930 . S
C658 C659 1.367 . S
C658 C666 1.378 . S
C659 C658 1.367 . S
C659 C667 1.433 . S
C660 H656 0.929 . S
C660 C662 1.378 1_565 S
C660 C664 1.349 1_565 S
C661 C664 1.459 1_564 S
C661 C666 1.350 . S
C661 N669 1.427 . S
C662 H653 0.930 . S
C662 C660 1.378 1_545 S
C662 C663 1.367 . S
C663 C662 1.367 . S
C663 C665 1.433 . S
C664 C660 1.349 1_545 S
C664 C661 1.459 1_546 S
C664 N668 1.432 . S
C665 H655 0.929 . S
C665 C663 1.433 . S
C665 N668 1.384 . S
C666 H657 0.929 1_565 S
C666 C658 1.378 . S
C666 C661 1.350 . S
C667 H654 0.929 . S
C667 C659 1.433 . S
C667 N669 1.384 . S
N668 C664 1.432 . S
N668 C665 1.384 . S
N669 C661 1.427 . S
N669 C667 1.384 . S
H670 C676 0.930 . S
H671 C680 0.930 . S
H672 C685 0.929 . S
H673 C683 0.929 . S
H674 C678 0.929 1_455 S
H675 C684 0.929 1_655 S
C676 H670 0.930 . S
C676 C677 1.367 . S
C676 C684 1.378 . S
C677 C676 1.367 . S
C677 C685 1.433 . S
C678 H674 0.929 1_655 S
C678 C680 1.378 . S
C678 C682 1.350 . S
C679 C682 1.463 1_454 S
C679 C684 1.350 . S
C679 N687 1.427 . S
C680 H671 0.930 . S
C680 C678 1.378 . S
C680 C681 1.367 . S
C681 C680 1.367 . S
C681 C683 1.433 . S
C682 C678 1.350 . S
C682 C679 1.463 1_656 S
C682 N686 1.427 1_556 S
C683 H673 0.929 . S
C683 C681 1.433 . S
C683 N686 1.384 1_556 S
C684 H675 0.929 1_455 S
C684 C676 1.378 . S
C684 C679 1.350 . S
C685 H672 0.929 . S
C685 C677 1.433 . S
C685 N687 1.384 . S
N686 C682 1.427 1_554 S
N686 C683 1.384 1_554 S
N687 C679 1.427 . S
N687 C685 1.384 . S
H688 C694 0.930 . S
H689 C698 0.930 . S
H690 C703 0.929 . S
H691 C701 0.929 . S
H692 C696 0.933 . S
H693 C702 0.929 . S
C694 H688 0.930 . S
C694 C695 1.367 . S
C694 C702 1.378 . S
C695 C694 1.367 . S
C695 C703 1.433 . S
C696 H692 0.933 . S
C696 C698 1.378 . S
C696 C700 1.350 . S
C697 C700 1.463 1_665 S
C697 C702 1.350 . S
C697 N705 1.427 . S
C698 H689 0.930 . S
C698 C696 1.378 . S
C698 C699 1.367 . S
C699 C698 1.367 . S
C699 C701 1.433 . S
C700 C696 1.350 . S
C700 C697 1.463 1_445 S
C700 N704 1.427 . S
C701 H691 0.929 . S
C701 C699 1.433 . S
C701 N704 1.384 . S
C702 H693 0.929 . S
C702 C694 1.378 . S
C702 C697 1.350 . S
C703 H690 0.929 . S
C703 C695 1.433 . S
C703 N705 1.384 . S
N704 C700 1.427 . S
N704 C701 1.384 . S
N705 C697 1.427 . S
N705 C703 1.384 . S
H706 C712 0.930 . S
H707 C716 0.930 . S
H708 C721 0.929 . S
H709 C719 0.929 . S
H710 C714 0.929 1_565 S
H711 C720 0.929 . S
C712 H706 0.930 . S
C712 C713 1.367 . S
C712 C720 1.378 1_565 S
C713 C712 1.367 . S
C713 C721 1.433 . S
C714 H710 0.929 1_545 S
C714 C716 1.378 . S
C714 C718 1.350 . S
C715 C718 1.463 1_465 S
C715 C720 1.350 1_565 S
C715 N723 1.427 1_455 S
C716 H707 0.930 . S
C716 C714 1.378 . S
C716 C717 1.367 . S
C717 C716 1.367 . S
C717 C719 1.433 . S
C718 C714 1.350 . S
C718 C715 1.463 1_645 S
C718 N722 1.427 . S
C719 H709 0.929 . S
C719 C717 1.433 . S
C719 N722 1.384 . S
C720 H711 0.929 . S
C720 C712 1.378 1_545 S
C720 C715 1.350 1_545 S
C721 H708 0.929 . S
C721 C713 1.433 . S
C721 N723 1.384 1_455 S
N722 C718 1.427 . S
N722 C719 1.384 . S
N723 C715 1.427 1_655 S
N723 C721 1.384 1_655 S
H724 C730 0.930 . S
H725 C734 0.930 . S
H726 C739 0.929 . S
H727 C737 0.929 . S
H728 C732 0.929 . S
H729 C738 0.929 . S
C730 H724 0.930 . S
C730 C731 1.367 . S
C730 C738 1.378 . S
C731 C730 1.367 . S
C731 C739 1.433 . S
C732 H728 0.929 . S
C732 C734 1.378 . S
C732 C736 1.350 . S
C733 C736 1.463 . S
C733 C738 1.350 . S
C733 N741 1.427 . S
C734 H725 0.930 . S
C734 C732 1.378 . S
C734 C735 1.367 . S
C735 C734 1.367 . S
C735 C737 1.433 . S
C736 C732 1.350 . S
C736 C733 1.463 . S
C736 N740 1.427 . S
C737 H727 0.929 . S
C737 C735 1.433 . S
C737 N740 1.384 . S
C738 H729 0.929 . S
C738 C730 1.378 . S
C738 C733 1.350 . S
C739 H726 0.929 . S
C739 C731 1.433 . S
C739 N741 1.384 . S
N740 C736 1.427 . S
N740 C737 1.384 . S
N741 C733 1.427 . S
N741 C739 1.384 . S
H742 C748 0.930 . S
H743 C752 0.930 . S
H744 C757 0.929 . S
H745 C755 0.929 . S
H746 C750 0.929 . S
H747 C756 0.929 . S
C748 H742 0.930 . S
C748 C749 1.367 . S
C748 C756 1.378 . S
C749 C748 1.367 . S
C749 C757 1.433 . S
C750 H746 0.929 . S
C750 C752 1.378 . S
C750 C754 1.350 . S
C751 C754 1.463 . S
C751 C756 1.350 . S
C751 N759 1.427 . S
C752 H743 0.930 . S
C752 C750 1.378 . S
C752 C753 1.367 . S
C753 C752 1.367 . S
C753 C755 1.433 . S
C754 C750 1.350 . S
C754 C751 1.463 . S
C754 N758 1.427 . S
C755 H745 0.929 . S
C755 C753 1.433 . S
C755 N758 1.384 . S
C756 H747 0.929 . S
C756 C748 1.378 . S
C756 C751 1.350 . S
C757 H744 0.929 . S
C757 C749 1.433 . S
C757 N759 1.384 . S
N758 C754 1.427 . S
N758 C755 1.384 . S
N759 C751 1.427 . S
N759 C757 1.384 . S
H760 C766 0.930 . S
H761 C770 0.930 . S
H762 C775 0.929 . S
H763 C773 0.929 . S
H764 C768 0.929 . S
H765 C774 0.929 . S
C766 H760 0.930 . S
C766 C767 1.367 . S
C766 C774 1.378 . S
C767 C766 1.367 . S
C767 C775 1.433 . S
C768 H764 0.929 . S
C768 C770 1.378 . S
C768 C772 1.350 . S
C769 C772 1.463 . S
C769 C774 1.350 . S
C769 N777 1.427 . S
C770 H761 0.930 . S
C770 C768 1.378 . S
C770 C771 1.367 . S
C771 C770 1.367 . S
C771 C773 1.433 . S
C772 C768 1.350 . S
C772 C769 1.463 . S
C772 N776 1.427 . S
C773 H763 0.929 . S
C773 C771 1.433 . S
C773 N776 1.384 . S
C774 H765 0.929 . S
C774 C766 1.378 . S
C774 C769 1.350 . S
C775 H762 0.929 . S
C775 C767 1.433 . S
C775 N777 1.384 . S
N776 C772 1.427 . S
N776 C773 1.384 . S
N777 C769 1.427 . S
N777 C775 1.384 . S
H778 C784 0.930 . S
H779 C788 0.930 . S
H780 C793 0.929 . S
H781 C791 0.929 . S
H782 C786 0.929 . S
H783 C792 0.929 . S
C784 H778 0.930 . S
C784 C785 1.367 . S
C784 C792 1.378 . S
C785 C784 1.367 . S
C785 C793 1.433 . S
C786 H782 0.929 . S
C786 C788 1.378 . S
C786 C790 1.350 . S
C787 C790 1.463 . S
C787 C792 1.350 . S
C787 N795 1.427 . S
C788 H779 0.930 . S
C788 C786 1.378 . S
C788 C789 1.367 . S
C789 C788 1.367 . S
C789 C791 1.433 . S
C790 C786 1.350 . S
C790 C787 1.463 . S
C790 N794 1.427 . S
C791 H781 0.929 . S
C791 C789 1.433 . S
C791 N794 1.384 . S
C792 H783 0.929 . S
C792 C784 1.378 . S
C792 C787 1.350 . S
C793 H780 0.929 . S
C793 C785 1.433 . S
C793 N795 1.384 . S
N794 C790 1.427 . S
N794 C791 1.384 . S
N795 C787 1.427 . S
N795 C793 1.384 . S
H796 C802 0.930 . S
H797 C806 0.930 . S
H798 C811 0.929 . S
H799 C809 0.929 . S
H800 C804 0.929 . S
H801 C810 0.929 . S
C802 H796 0.930 . S
C802 C803 1.367 . S
C802 C810 1.378 . S
C803 C802 1.367 . S
C803 C811 1.433 . S
C804 H800 0.929 . S
C804 C806 1.378 . S
C804 C808 1.350 . S
C805 C808 1.463 . S
C805 C810 1.350 . S
C805 N813 1.427 . S
C806 H797 0.930 . S
C806 C804 1.378 . S
C806 C807 1.367 . S
C807 C806 1.367 . S
C807 C809 1.433 . S
C808 C804 1.350 . S
C808 C805 1.463 . S
C808 N812 1.427 . S
C809 H799 0.929 . S
C809 C807 1.433 . S
C809 N812 1.384 . S
C810 H801 0.929 . S
C810 C802 1.378 . S
C810 C805 1.350 . S
C811 H798 0.929 . S
C811 C803 1.433 . S
C811 N813 1.384 . S
N812 C808 1.427 . S
N812 C809 1.384 . S
N813 C805 1.427 . S
N813 C811 1.384 . S
H814 C820 0.930 . S
H815 C824 0.930 . S
H816 C829 0.929 . S
H817 C827 0.929 . S
H818 C822 0.929 . S
H819 C828 0.929 . S
C820 H814 0.930 . S
C820 C821 1.367 . S
C820 C828 1.378 . S
C821 C820 1.367 . S
C821 C829 1.433 . S
C822 H818 0.929 . S
C822 C824 1.378 . S
C822 C826 1.350 . S
C823 C826 1.463 . S
C823 C828 1.350 . S
C823 N831 1.427 . S
C824 H815 0.930 . S
C824 C822 1.378 . S
C824 C825 1.367 . S
C825 C824 1.367 . S
C825 C827 1.433 . S
C826 C822 1.350 . S
C826 C823 1.463 . S
C826 N830 1.427 . S
C827 H817 0.929 . S
C827 C825 1.433 . S
C827 N830 1.384 . S
C828 H819 0.929 . S
C828 C820 1.378 . S
C828 C823 1.350 . S
C829 H816 0.929 . S
C829 C821 1.433 . S
C829 N831 1.384 . S
N830 C826 1.427 . S
N830 C827 1.384 . S
N831 C823 1.427 . S
N831 C829 1.384 . S
C191 C14 2.776 . S
C195 P146 2.626 . S
C209 C28 2.597 . S
C213 P169 2.633 . S
C227 P100 2.044 . S
C231 C60 2.182 . S
C245 C86 2.587 . S
C249 P123 2.629 . S
C263 P123 2.597 . S
C267 C17 2.680 . S
C281 C40 2.347 . S
C285 P146 2.407 . S
C299 P169 2.533 . S
C303 C63 2.500 . S
C317 P100 2.244 . S
C321 C83 2.271 . S
C335 P100 2.224 . S
C339 C37 2.211 . S
C353 C51 2.864 . S
C357 P123 2.891 . S
C371 C74 2.426 . S
C375 P146 2.453 . S
C389 P169 2.637 . S
C393 C5 2.777 . S
C407 P54 2.628 . S
C411 C106 2.779 . S
C425 P77 2.633 . S
C429 C120 2.602 . S
C443 P8 2.055 . S
C447 C152 2.185 . S
C461 C178 2.586 . S
C465 P31 2.629 . S
C479 P31 2.596 . S
C483 C109 2.681 . S
C497 P54 2.408 . S
C501 C132 2.346 . S
C515 P77 2.533 . S
C519 C155 2.500 . S
C533 C175 2.276 . S
C537 P8 2.250 . S
C551 P8 2.222 . S
C555 C129 2.206 . S
C569 C143 2.864 . S
C573 P31 2.888 . S
C587 P54 2.451 . S
C591 C166 2.424 . S
C605 P77 2.637 . S
C609 C97 2.777 . S
C623 C10 1.081 . S
C627 C32 0.361 . S
C641 C66 0.699 . S
C645 C33 0.843 . S
C659 C56 0.859 . S
C663 C89 0.679 . S
C677 C20 0.887 . S
C681 C78 0.328 . S
C695 C55 0.503 . S
C699 C9 0.644 . S
C713 C43 0.658 . S
C717 C79 0.831 . S
C731 C124 0.357 . S
C735 C102 1.076 . S
C749 C125 0.824 . S
C753 C158 0.699 . S
C767 C148 0.881 . S
C771 C181 0.635 . S
C785 C170 0.364 . S
C789 C112 0.884 . S
C803 C101 0.640 . S
C807 C147 0.521 . S
C821 C171 0.809 . S
C825 C135 0.689 . S
