# Generated by pormake.
# Topology wlq, (5)-cn, num edge types: 1
# Building blocks:
#     Node 0, Type 0, BuildingBlock: BEQFEK_clean_sbu_0, # of connection points: 5
#     Node 1, Type 0, BuildingBlock: BEQFEK_clean_sbu_0, # of connection points: 5
#     Node 2, Type 0, BuildingBlock: BEQFEK_clean_sbu_0, # of connection points: 5
#     Node 3, Type 0, BuildingBlock: BEQFEK_clean_sbu_0, # of connection points: 5
#     Node 4, Type 0, BuildingBlock: BEQFEK_clean_sbu_0, # of connection points: 5
#     Node 5, Type 0, BuildingBlock: BEQFEK_clean_sbu_0, # of connection points: 5
#     Node 6, Type 0, BuildingBlock: BEQFEK_clean_sbu_0, # of connection points: 5
#     Node 7, Type 0, BuildingBlock: BEQFEK_clean_sbu_0, # of connection points: 5
#     Node 8, Type 0, BuildingBlock: BEQFEK_clean_sbu_0, # of connection points: 5
#     Node 9, Type 0, BuildingBlock: BEQFEK_clean_sbu_0, # of connection points: 5
#     Node 10, Type 0, BuildingBlock: BEQFEK_clean_sbu_0, # of connection points: 5
#     Node 11, Type 0, BuildingBlock: BEQFEK_clean_sbu_0, # of connection points: 5
#     Node 12, Type 0, BuildingBlock: BEQFEK_clean_sbu_0, # of connection points: 5
#     Node 13, Type 0, BuildingBlock: BEQFEK_clean_sbu_0, # of connection points: 5
#     Node 14, Type 0, BuildingBlock: BEQFEK_clean_sbu_0, # of connection points: 5
#     Node 15, Type 0, BuildingBlock: BEQFEK_clean_sbu_0, # of connection points: 5
#     Node 16, Type 0, BuildingBlock: BEQFEK_clean_sbu_0, # of connection points: 5
#     Node 17, Type 0, BuildingBlock: BEQFEK_clean_sbu_0, # of connection points: 5
#     Node 18, Type 0, BuildingBlock: BEQFEK_clean_sbu_0, # of connection points: 5
#     Node 19, Type 0, BuildingBlock: BEQFEK_clean_sbu_0, # of connection points: 5
#     Node 20, Type 0, BuildingBlock: BEQFEK_clean_sbu_0, # of connection points: 5
#     Node 21, Type 0, BuildingBlock: BEQFEK_clean_sbu_0, # of connection points: 5
#     Node 22, Type 0, BuildingBlock: BEQFEK_clean_sbu_0, # of connection points: 5
#     Node 23, Type 0, BuildingBlock: BEQFEK_clean_sbu_0, # of connection points: 5
#     Node 24, Type 0, BuildingBlock: BEQFEK_clean_sbu_0, # of connection points: 5
#     Node 25, Type 0, BuildingBlock: BEQFEK_clean_sbu_0, # of connection points: 5
#     Node 26, Type 0, BuildingBlock: BEQFEK_clean_sbu_0, # of connection points: 5
#     Node 27, Type 0, BuildingBlock: BEQFEK_clean_sbu_0, # of connection points: 5
#     Node 28, Type 0, BuildingBlock: BEQFEK_clean_sbu_0, # of connection points: 5
#     Node 29, Type 0, BuildingBlock: BEQFEK_clean_sbu_0, # of connection points: 5
#     Node 30, Type 0, BuildingBlock: BEQFEK_clean_sbu_0, # of connection points: 5
#     Node 31, Type 0, BuildingBlock: BEQFEK_clean_sbu_0, # of connection points: 5
#     Node 32, Type 0, BuildingBlock: BEQFEK_clean_sbu_0, # of connection points: 5
#     Node 33, Type 0, BuildingBlock: BEQFEK_clean_sbu_0, # of connection points: 5
#     Node 34, Type 0, BuildingBlock: BEQFEK_clean_sbu_0, # of connection points: 5
#     Node 35, Type 0, BuildingBlock: BEQFEK_clean_sbu_0, # of connection points: 5
#     Edge 36, Type (0, 0), BuildingBlock: XIVTED_clean_linker_0, # of connection points: 2
#     Edge 37, Type (0, 0), BuildingBlock: XIVTED_clean_linker_0, # of connection points: 2
#     Edge 38, Type (0, 0), BuildingBlock: XIVTED_clean_linker_0, # of connection points: 2
#     Edge 39, Type (0, 0), BuildingBlock: XIVTED_clean_linker_0, # of connection points: 2
#     Edge 40, Type (0, 0), BuildingBlock: XIVTED_clean_linker_0, # of connection points: 2
#     Edge 41, Type (0, 0), BuildingBlock: XIVTED_clean_linker_0, # of connection points: 2
#     Edge 42, Type (0, 0), BuildingBlock: XIVTED_clean_linker_0, # of connection points: 2
#     Edge 43, Type (0, 0), BuildingBlock: XIVTED_clean_linker_0, # of connection points: 2
#     Edge 44, Type (0, 0), BuildingBlock: XIVTED_clean_linker_0, # of connection points: 2
#     Edge 45, Type (0, 0), BuildingBlock: XIVTED_clean_linker_0, # of connection points: 2
#     Edge 46, Type (0, 0), BuildingBlock: XIVTED_clean_linker_0, # of connection points: 2
#     Edge 47, Type (0, 0), BuildingBlock: XIVTED_clean_linker_0, # of connection points: 2
#     Edge 48, Type (0, 0), BuildingBlock: XIVTED_clean_linker_0, # of connection points: 2
#     Edge 49, Type (0, 0), BuildingBlock: XIVTED_clean_linker_0, # of connection points: 2
#     Edge 50, Type (0, 0), BuildingBlock: XIVTED_clean_linker_0, # of connection points: 2
#     Edge 51, Type (0, 0), BuildingBlock: XIVTED_clean_linker_0, # of connection points: 2
#     Edge 52, Type (0, 0), BuildingBlock: XIVTED_clean_linker_0, # of connection points: 2
#     Edge 53, Type (0, 0), BuildingBlock: XIVTED_clean_linker_0, # of connection points: 2
#     Edge 54, Type (0, 0), BuildingBlock: XIVTED_clean_linker_0, # of connection points: 2
#     Edge 55, Type (0, 0), BuildingBlock: XIVTED_clean_linker_0, # of connection points: 2
#     Edge 56, Type (0, 0), BuildingBlock: XIVTED_clean_linker_0, # of connection points: 2
#     Edge 57, Type (0, 0), BuildingBlock: XIVTED_clean_linker_0, # of connection points: 2
#     Edge 58, Type (0, 0), BuildingBlock: XIVTED_clean_linker_0, # of connection points: 2
#     Edge 59, Type (0, 0), BuildingBlock: XIVTED_clean_linker_0, # of connection points: 2
#     Edge 60, Type (0, 0), BuildingBlock: XIVTED_clean_linker_0, # of connection points: 2
#     Edge 61, Type (0, 0), BuildingBlock: XIVTED_clean_linker_0, # of connection points: 2
#     Edge 62, Type (0, 0), BuildingBlock: XIVTED_clean_linker_0, # of connection points: 2
#     Edge 63, Type (0, 0), BuildingBlock: XIVTED_clean_linker_0, # of connection points: 2
#     Edge 64, Type (0, 0), BuildingBlock: XIVTED_clean_linker_0, # of connection points: 2
#     Edge 65, Type (0, 0), BuildingBlock: XIVTED_clean_linker_0, # of connection points: 2
#     Edge 66, Type (0, 0), BuildingBlock: XIVTED_clean_linker_0, # of connection points: 2
#     Edge 67, Type (0, 0), BuildingBlock: XIVTED_clean_linker_0, # of connection points: 2
#     Edge 68, Type (0, 0), BuildingBlock: XIVTED_clean_linker_0, # of connection points: 2
#     Edge 69, Type (0, 0), BuildingBlock: XIVTED_clean_linker_0, # of connection points: 2
#     Edge 70, Type (0, 0), BuildingBlock: XIVTED_clean_linker_0, # of connection points: 2
#     Edge 71, Type (0, 0), BuildingBlock: XIVTED_clean_linker_0, # of connection points: 2
#     Edge 72, Type (0, 0), BuildingBlock: XIVTED_clean_linker_0, # of connection points: 2
#     Edge 73, Type (0, 0), BuildingBlock: XIVTED_clean_linker_0, # of connection points: 2
#     Edge 74, Type (0, 0), BuildingBlock: XIVTED_clean_linker_0, # of connection points: 2
#     Edge 75, Type (0, 0), BuildingBlock: XIVTED_clean_linker_0, # of connection points: 2
#     Edge 76, Type (0, 0), BuildingBlock: XIVTED_clean_linker_0, # of connection points: 2
#     Edge 77, Type (0, 0), BuildingBlock: XIVTED_clean_linker_0, # of connection points: 2
#     Edge 78, Type (0, 0), BuildingBlock: XIVTED_clean_linker_0, # of connection points: 2
#     Edge 79, Type (0, 0), BuildingBlock: XIVTED_clean_linker_0, # of connection points: 2
#     Edge 80, Type (0, 0), BuildingBlock: XIVTED_clean_linker_0, # of connection points: 2
#     Edge 81, Type (0, 0), BuildingBlock: XIVTED_clean_linker_0, # of connection points: 2
#     Edge 82, Type (0, 0), BuildingBlock: XIVTED_clean_linker_0, # of connection points: 2
#     Edge 83, Type (0, 0), BuildingBlock: XIVTED_clean_linker_0, # of connection points: 2
#     Edge 84, Type (0, 0), BuildingBlock: XIVTED_clean_linker_0, # of connection points: 2
#     Edge 85, Type (0, 0), BuildingBlock: XIVTED_clean_linker_0, # of connection points: 2
#     Edge 86, Type (0, 0), BuildingBlock: XIVTED_clean_linker_0, # of connection points: 2
#     Edge 87, Type (0, 0), BuildingBlock: XIVTED_clean_linker_0, # of connection points: 2
#     Edge 88, Type (0, 0), BuildingBlock: XIVTED_clean_linker_0, # of connection points: 2
#     Edge 89, Type (0, 0), BuildingBlock: XIVTED_clean_linker_0, # of connection points: 2
#     Edge 90, Type (0, 0), BuildingBlock: XIVTED_clean_linker_0, # of connection points: 2
#     Edge 91, Type (0, 0), BuildingBlock: XIVTED_clean_linker_0, # of connection points: 2
#     Edge 92, Type (0, 0), BuildingBlock: XIVTED_clean_linker_0, # of connection points: 2
#     Edge 93, Type (0, 0), BuildingBlock: XIVTED_clean_linker_0, # of connection points: 2
#     Edge 94, Type (0, 0), BuildingBlock: XIVTED_clean_linker_0, # of connection points: 2
#     Edge 95, Type (0, 0), BuildingBlock: XIVTED_clean_linker_0, # of connection points: 2
#     Edge 96, Type (0, 0), BuildingBlock: XIVTED_clean_linker_0, # of connection points: 2
#     Edge 97, Type (0, 0), BuildingBlock: XIVTED_clean_linker_0, # of connection points: 2
#     Edge 98, Type (0, 0), BuildingBlock: XIVTED_clean_linker_0, # of connection points: 2
#     Edge 99, Type (0, 0), BuildingBlock: XIVTED_clean_linker_0, # of connection points: 2
#     Edge 100, Type (0, 0), BuildingBlock: XIVTED_clean_linker_0, # of connection points: 2
#     Edge 101, Type (0, 0), BuildingBlock: XIVTED_clean_linker_0, # of connection points: 2
#     Edge 102, Type (0, 0), BuildingBlock: XIVTED_clean_linker_0, # of connection points: 2
#     Edge 103, Type (0, 0), BuildingBlock: XIVTED_clean_linker_0, # of connection points: 2
#     Edge 104, Type (0, 0), BuildingBlock: XIVTED_clean_linker_0, # of connection points: 2
#     Edge 105, Type (0, 0), BuildingBlock: XIVTED_clean_linker_0, # of connection points: 2
#     Edge 106, Type (0, 0), BuildingBlock: XIVTED_clean_linker_0, # of connection points: 2
#     Edge 107, Type (0, 0), BuildingBlock: XIVTED_clean_linker_0, # of connection points: 2
#     Edge 108, Type (0, 0), BuildingBlock: XIVTED_clean_linker_0, # of connection points: 2
#     Edge 109, Type (0, 0), BuildingBlock: XIVTED_clean_linker_0, # of connection points: 2
#     Edge 110, Type (0, 0), BuildingBlock: XIVTED_clean_linker_0, # of connection points: 2
#     Edge 111, Type (0, 0), BuildingBlock: XIVTED_clean_linker_0, # of connection points: 2
#     Edge 112, Type (0, 0), BuildingBlock: XIVTED_clean_linker_0, # of connection points: 2
#     Edge 113, Type (0, 0), BuildingBlock: XIVTED_clean_linker_0, # of connection points: 2
#     Edge 114, Type (0, 0), BuildingBlock: XIVTED_clean_linker_0, # of connection points: 2
#     Edge 115, Type (0, 0), BuildingBlock: XIVTED_clean_linker_0, # of connection points: 2
#     Edge 116, Type (0, 0), BuildingBlock: XIVTED_clean_linker_0, # of connection points: 2
#     Edge 117, Type (0, 0), BuildingBlock: XIVTED_clean_linker_0, # of connection points: 2
#     Edge 118, Type (0, 0), BuildingBlock: XIVTED_clean_linker_0, # of connection points: 2
#     Edge 119, Type (0, 0), BuildingBlock: XIVTED_clean_linker_0, # of connection points: 2
#     Edge 120, Type (0, 0), BuildingBlock: XIVTED_clean_linker_0, # of connection points: 2
#     Edge 121, Type (0, 0), BuildingBlock: XIVTED_clean_linker_0, # of connection points: 2
#     Edge 122, Type (0, 0), BuildingBlock: XIVTED_clean_linker_0, # of connection points: 2
#     Edge 123, Type (0, 0), BuildingBlock: XIVTED_clean_linker_0, # of connection points: 2
#     Edge 124, Type (0, 0), BuildingBlock: XIVTED_clean_linker_0, # of connection points: 2
#     Edge 125, Type (0, 0), BuildingBlock: XIVTED_clean_linker_0, # of connection points: 2
# Relax obj value: 0.130
# Max RMSD: 0.144
# Mean RMSD: 0.144
data_MOF--net-wlq--node1-BEQFEK_clean_sbu_0--edge1-XIVTED_clean_linker_0
_symmetry_space_group_name_H-M    P1
_symmetry_Int_Tables_number       1
_symmetry_cell_setting            triclinic
loop_
_symmetry_equiv_pos_as_xyz
'x, y, z'
_cell_length_a     74.995043
_cell_length_b     75.014606
_cell_length_c     38.210615
_cell_angle_alpha  89.996433
_cell_angle_beta   89.979968
_cell_angle_gamma 119.96488
loop_
_atom_site_label
_atom_site_type_symbol
_atom_site_fract_x
_atom_site_fract_y
_atom_site_fract_z
_atom_type_partial_charge
Co0 Co 0.21439 0.19244 0.96664 0.0
Co1 Co 0.22856 0.20146 0.04489 0.0
C2 C 0.257 0.22578 0.98757 0.0
O3 O 0.24293 0.2149 0.9658 0.0
O4 O 0.25402 0.22285 0.02047 0.0
C5 C 0.20739 0.20528 0.90142 0.0
O6 O 0.21425 0.22289 0.91787 0.0
C7 C 0.24018 0.22012 0.11673 0.0
C8 C 0.22777 0.19165 0.14818 0.0
C9 C 0.23788 0.21287 0.15094 0.0
N10 N 0.23164 0.2038 0.0949 0.0
N11 N 0.22437 0.18691 0.11403 0.0
C12 C 0.25141 0.24209 0.10498 0.0
H13 H 0.2545 0.24313 0.07647 0.0
H14 H 0.24204 0.24941 0.11062 0.0
H15 H 0.26608 0.25072 0.11964 0.0
C16 C 0.1814 0.19925 0.99277 0.0
N17 N 0.19861 0.19825 0.99772 0.0
N18 N 0.20461 0.20274 0.03051 0.0
C19 C 0.19136 0.20705 0.04739 0.0
C20 C 0.17637 0.20518 0.02381 0.0
C21 C 0.1691 0.19316 0.95963 0.0
H22 H 0.17061 0.18094 0.94602 0.0
H23 H 0.17484 0.20675 0.9422 0.0
H24 H 0.15258 0.18748 0.96511 0.0
O25 O 0.21341 0.16691 0.97925 0.0
O26 O 0.22484 0.17356 0.03386 0.0
H27 H 0.19341 0.2016 0.10178 0.0
H28 H 0.18127 0.21683 0.09307 0.0
C29 C 0.1936 0.21369 0.08478 0.0
H30 H 0.20862 0.2279 0.08815 0.0
H31 H 0.2169 0.17204 0.10375 0.0
O32 O 0.20515 0.18966 0.91805 0.0
C33 C 0.21852 0.16163 0.00736 0.0
Co34 Co 0.79547 0.01709 0.96438 0.0
Co35 Co 0.78762 0.02347 0.04295 0.0
C36 C 0.76321 0.02791 0.98637 0.0
O37 O 0.77388 0.02442 0.96458 0.0
O38 O 0.76612 0.02777 0.01926 0.0
C39 C 0.77987 -0.00095 0.89941 0.0
O40 O 0.76246 0.99298 0.91611 0.0
C41 C 0.77 0.01659 0.11547 0.0
C42 C 0.79877 0.03349 0.14588 0.0
C43 C 0.77762 0.02173 0.14944 0.0
N44 N 0.78604 0.02484 0.09302 0.0
N45 N 0.80312 0.03501 0.11152 0.0
C46 C 0.74789 0.00527 0.10448 0.0
H47 H 0.74649 0.00649 0.07581 0.0
H48 H 0.74077 0.9888 0.11155 0.0
H49 H 0.7393 0.01159 0.11852 0.0
C50 C 0.78762 0.97731 0.99109 0.0
N51 N 0.78927 0.99579 0.99605 0.0
N52 N 0.78569 -0.00214 0.02912 0.0
C53 C 0.78163 0.98047 0.04634 0.0
C54 C 0.78248 0.96684 0.02261 0.0
C55 C 0.79211 0.97037 0.95714 0.0
H56 H 0.80539 0.98346 0.94405 0.0
H57 H 0.7785 0.9647 0.93978 0.0
H58 H 0.79566 0.95781 0.96115 0.0
O59 O 0.82168 0.0413 0.97574 0.0
O60 O 0.81548 0.04709 0.03012 0.0
H61 H 0.78843 0.98955 0.1 0.0
H62 H 0.7747 0.96195 0.09338 0.0
C63 C 0.77636 0.97675 0.08437 0.0
H64 H 0.76159 0.97634 0.08884 0.0
H65 H 0.81785 0.0428 0.10068 0.0
O66 O 0.79674 0.00906 0.91586 0.0
C67 C 0.82724 0.05211 0.00341 0.0
Co68 Co 0.97535 0.77673 0.96311 0.0
Co69 Co 0.96839 0.76223 0.0414 0.0
C70 C 0.9651 0.73375 0.98543 0.0
O71 O 0.96847 0.74788 0.96365 0.0
O72 O 0.96487 0.73665 0.01831 0.0
C73 C 0.99521 0.78005 0.89986 0.0
O74 O 0.00157 0.76931 0.91772 0.0
C75 C 0.97335 0.75132 0.11514 0.0
C76 C 0.95711 0.7648 0.1432 0.0
C77 C 0.96782 0.75445 0.14842 0.0
N78 N 0.96629 0.75967 0.09147 0.0
N79 N 0.95653 0.76756 0.10858 0.0
C80 C 0.98394 0.73952 0.10597 0.0
H81 H 0.98297 0.73643 0.07746 0.0
H82 H 0.00037 0.74841 0.11354 0.0
H83 H 0.97687 0.72482 0.12076 0.0
C84 C 0.0148 0.80874 0.99086 0.0
N85 N -0.00377 0.79197 0.99536 0.0
N86 N 0.99402 0.78592 0.0282 0.0
C87 C 0.01146 0.79877 0.04568 0.0
C88 C 0.02524 0.81348 0.02239 0.0
C89 C 0.02196 0.82059 0.95733 0.0
H90 H 0.00884 0.82043 0.94367 0.0
H91 H 0.02842 0.81329 0.94016 0.0
H92 H 0.03404 0.83679 0.96214 0.0
O93 O 0.95083 0.77842 0.97315 0.0
O94 O 0.94469 0.76604 0.02725 0.0
H95 H 0.00326 0.79675 0.09974 0.0
H96 H 0.03067 0.80826 0.09215 0.0
C97 C 0.0152 0.79625 0.0833 0.0
H98 H 0.01394 0.78103 0.08681 0.0
H99 H 0.94963 0.77509 0.0966 0.0
O100 O 0.9841 0.78611 0.91493 0.0
C101 C 0.93973 0.77279 0.0005 0.0
Co102 Co 0.197 0.21926 0.57573 0.0
Co103 Co 0.20673 0.23357 0.49757 0.0
C104 C 0.23163 0.26125 0.55518 0.0
O105 O 0.22029 0.24727 0.57677 0.0
O106 O 0.22868 0.25856 0.52223 0.0
C107 C 0.20858 0.2115 0.64175 0.0
O108 O 0.22651 0.21832 0.62641 0.0
C109 C 0.22543 0.24394 0.42568 0.0
C110 C 0.1972 0.23373 0.39436 0.0
C111 C 0.21827 0.24213 0.39151 0.0
N112 N 0.20917 0.23674 0.4476 0.0
N113 N 0.19243 0.23082 0.42855 0.0
C114 C 0.24735 0.25361 0.43737 0.0
H115 H 0.24838 0.25428 0.46635 0.0
H116 H 0.25443 0.2447 0.42742 0.0
H117 H 0.25624 0.26937 0.42632 0.0
C118 C 0.20282 0.18568 0.54988 0.0
N119 N 0.20212 0.20302 0.54467 0.0
N120 N 0.20696 0.20905 0.51194 0.0
C121 C 0.21117 0.19565 0.49539 0.0
C122 C 0.20892 0.18059 0.51913 0.0
C123 C 0.19667 0.17352 0.58318 0.0
H124 H 0.18437 0.17504 0.59652 0.0
H125 H 0.21022 0.17936 0.60072 0.0
H126 H 0.19106 0.157 0.57795 0.0
O127 O 0.17216 0.21953 0.56291 0.0
O128 O 0.17927 0.23095 0.50836 0.0
H129 H 0.20736 0.19935 0.44087 0.0
H130 H 0.2202 0.18483 0.44971 0.0
C131 C 0.2184 0.19795 0.45833 0.0
H132 H 0.23351 0.2122 0.45609 0.0
H133 H 0.17762 0.2245 0.43889 0.0
O134 O 0.19341 0.20967 0.62421 0.0
C135 C 0.16729 0.22502 0.5348 0.0
Co136 Co 0.77541 0.97502 0.57463 0.0
Co137 Co 0.76074 0.96893 0.49636 0.0
C138 C 0.73213 0.96392 0.55358 0.0
O139 O 0.74642 0.96733 0.57497 0.0
O140 O 0.73504 0.96443 0.5206 0.0
C141 C 0.77807 0.99372 0.63863 0.0
O142 O 0.76737 0.00016 0.62083 0.0
C143 C 0.74994 0.9764 0.42445 0.0
C144 C 0.76075 0.95885 0.39318 0.0
C145 C 0.75196 0.9712 0.39028 0.0
N146 N 0.75743 0.96764 0.44639 0.0
N147 N 0.76369 0.95707 0.4274 0.0
C148 C 0.73983 0.98826 0.43615 0.0
H149 H 0.73877 0.98824 0.46511 0.0
H150 H 0.74868 0.00438 0.42686 0.0
H151 H 0.72421 0.98136 0.42453 0.0
C152 C 0.80736 0.01472 0.54776 0.0
N153 N 0.79027 0.99644 0.54301 0.0
N154 N 0.78444 0.99448 0.51006 0.0
C155 C 0.79789 0.01174 0.49271 0.0
C156 C 0.81268 0.02517 0.51622 0.0
C157 C 0.81924 0.02132 0.58132 0.0
H158 H 0.81891 0.00794 0.59427 0.0
H159 H 0.81201 0.02761 0.59906 0.0
H160 H 0.83549 0.03335 0.57681 0.0
O161 O 0.77766 0.95099 0.56271 0.0
O162 O 0.7652 0.94539 0.50862 0.0
H163 H 0.79538 0.00253 0.43908 0.0
H164 H 0.80959 0.03013 0.44553 0.0
C165 C 0.79635 0.01545 0.45467 0.0
H166 H 0.78212 0.01613 0.45028 0.0
H167 H 0.77029 0.94884 0.43779 0.0
O168 O 0.78462 0.98312 0.62316 0.0
C169 C 0.77221 0.94031 0.53488 0.0
Co170 Co 0.01775 0.79918 0.57335 0.0
Co171 Co 0.02428 0.79237 0.4944 0.0
C172 C 0.02771 0.76676 0.55044 0.0
O173 O 0.02456 0.77738 0.57272 0.0
O174 O 0.02767 0.77013 0.51772 0.0
C175 C 0.00136 0.78387 0.63936 0.0
O176 O -0.00435 0.76645 0.62295 0.0
C177 C 0.0147 0.77389 0.42315 0.0
C178 C 0.03493 0.80112 0.39109 0.0
C179 C 0.02026 0.78045 0.38868 0.0
N180 N 0.02542 0.79008 0.44458 0.0
N181 N 0.0376 0.80622 0.42517 0.0
C182 C 0.00032 0.75252 0.43583 0.0
H183 H 0.00417 0.75056 0.46304 0.0
H184 H 0.98432 0.74966 0.43572 0.0
H185 H 0.00104 0.74104 0.41845 0.0
C186 C 0.97849 0.79295 0.54661 0.0
N187 N -0.00348 0.79359 0.54164 0.0
N188 N -0.00079 0.79171 0.50807 0.0
C189 C 0.98304 0.79054 0.49038 0.0
C190 C 0.96937 0.79121 0.51429 0.0
C191 C 0.97 0.79316 0.58201 0.0
H192 H 0.97044 0.78135 0.5987 0.0
H193 H 0.95382 0.7897 0.5809 0.0
H194 H 0.97974 0.80841 0.59441 0.0
O195 O 0.04248 0.82534 0.56197 0.0
O196 O 0.0483 0.81969 0.50722 0.0
H197 H 0.97155 0.79721 0.44325 0.0
H198 H 0.97519 0.77532 0.44085 0.0
C199 C 0.9817 0.79112 0.45136 0.0
H200 H -0.00281 0.80093 0.43997 0.0
H201 H 0.04751 0.82086 0.43517 0.0
O202 O 0.01012 0.80063 0.62224 0.0
C203 C 0.0534 0.83109 0.53436 0.0
Co204 Co 0.7757 0.79712 0.07253 0.0
Co205 Co 0.76117 0.78939 0.99434 0.0
C206 C 0.7326 0.76484 0.05092 0.0
O207 O 0.74677 0.77557 0.07259 0.0
O208 O 0.73558 0.76771 0.01803 0.0
C209 C 0.77827 0.78093 0.13663 0.0
O210 O 0.76728 0.76375 0.11916 0.0
C211 C 0.75059 0.77161 0.92241 0.0
C212 C 0.76035 0.79991 0.8915 0.0
C213 C 0.75218 0.77887 0.88839 0.0
N214 N 0.7577 0.78775 0.9445 0.0
N215 N 0.76332 0.80454 0.92575 0.0
C216 C 0.74117 0.74968 0.93393 0.0
H217 H 0.74253 0.74873 0.96271 0.0
H218 H 0.74869 0.74203 0.92069 0.0
H219 H 0.72468 0.74127 0.92638 0.0
C220 C 0.80755 0.78929 0.0451 0.0
N221 N 0.79073 0.791 0.04047 0.0
N222 N 0.78496 0.78748 0.00745 0.0
C223 C 0.7982 0.7834 0.98994 0.0
C224 C 0.81274 0.78417 0.01344 0.0
C225 C 0.81907 0.79362 0.07892 0.0
H226 H 0.81922 0.80679 0.09238 0.0
H227 H 0.81125 0.77989 0.09607 0.0
H228 H 0.83518 0.79725 0.07463 0.0
O229 O 0.77766 0.8234 0.06169 0.0
O230 O 0.76529 0.81714 0.00756 0.0
H231 H 0.7948 0.78969 0.93645 0.0
H232 H 0.81007 0.77737 0.94233 0.0
C233 C 0.79651 0.77813 0.9519 0.0
H234 H 0.78268 0.76288 0.94779 0.0
H235 H 0.76953 0.81928 0.93633 0.0
O236 O 0.78499 0.79802 0.12092 0.0
C237 C 0.77216 0.8289 0.03422 0.0
Co238 Co 0.19591 0.97253 0.07745 0.0
Co239 Co 0.20507 0.96813 -0.00114 0.0
C240 C 0.23017 0.96482 0.05568 0.0
O241 O 0.21908 0.96755 0.0777 0.0
O242 O 0.22698 0.96465 0.02283 0.0
C243 C 0.20784 0.99169 0.1436 0.0
O244 O 0.22565 0.00294 0.12797 0.0
C245 C 0.22356 0.97632 0.92672 0.0
C246 C 0.19505 0.95962 0.89556 0.0
C247 C 0.21622 0.97147 0.89255 0.0
N248 N 0.20733 0.96778 0.94877 0.0
N249 N 0.19042 0.95776 0.92981 0.0
C250 C 0.24557 0.98768 0.93819 0.0
H251 H 0.2468 0.98604 0.96679 0.0
H252 H 0.25252 0.00424 0.93188 0.0
H253 H 0.25443 0.98177 0.92383 0.0
C254 C 0.20156 0.01202 0.05228 0.0
N255 N 0.20102 0.99407 0.04683 0.0
N256 N 0.20557 0.9929 0.01392 0.0
C257 C 0.20943 0.01042 0.99746 0.0
C258 C 0.20723 0.02316 0.02144 0.0
C259 C 0.19543 0.01786 0.08578 0.0
H260 H 0.18333 0.00396 0.0992 0.0
H261 H 0.20905 0.02568 0.10315 0.0
H262 H 0.18955 0.02859 0.08083 0.0
O263 O 0.17083 0.94763 0.06458 0.0
O264 O 0.17751 0.94346 0.00965 0.0
H265 H 0.20429 0.00315 0.94296 0.0
H266 H 0.21853 0.03048 0.95206 0.0
C267 C 0.21605 0.01522 0.9601 0.0
H268 H 0.23066 0.01515 0.95667 0.0
H269 H 0.1756 0.94979 0.94027 0.0
O270 O 0.19261 0.97834 0.12621 0.0
C271 C 0.16568 0.93744 0.03629 0.0
Co272 Co 0.01604 0.21655 0.07269 0.0
Co273 Co 0.02206 0.23077 0.99419 0.0
C274 C 0.026 0.25937 0.05077 0.0
O275 O 0.02287 0.24531 0.0725 0.0
O276 O 0.02587 0.25637 0.01786 0.0
C277 C -0.00221 0.21378 0.13764 0.0
O278 O 0.99132 0.22475 0.12079 0.0
C279 C 0.01474 0.24123 0.92186 0.0
C280 C 0.03303 0.23103 0.89128 0.0
C281 C 0.02044 0.23951 0.88791 0.0
N282 N 0.0235 0.23391 0.94416 0.0
N283 N 0.03449 0.22798 0.92557 0.0
C284 C 0.00246 0.25097 0.93307 0.0
H285 H 0.00119 0.2509 0.96201 0.0
H286 H 0.98682 0.24265 0.92158 0.0
H287 H 0.00997 0.26704 0.92325 0.0
C288 C 0.97632 0.18436 0.0462 0.0
N289 N 0.99473 0.20123 0.0411 0.0
N290 N -0.00338 0.20693 0.00807 0.0
C291 C 0.97916 0.19361 0.99104 0.0
C292 C 0.96568 0.17907 0.01487 0.0
C293 C 0.96953 0.17291 0.08016 0.0
H294 H 0.98274 0.17293 0.09321 0.0
H295 H 0.96367 0.18069 0.09755 0.0
H296 H 0.95713 0.15676 0.07614 0.0
O297 O 0.04046 0.2149 0.0612 0.0
O298 O 0.04592 0.22684 0.00681 0.0
H299 H 0.98806 0.19661 0.93717 0.0
H300 H 0.96052 0.18198 0.94416 0.0
C301 C 0.97514 0.19532 0.95321 0.0
H302 H 0.97417 0.20942 0.94937 0.0
H303 H 0.04284 0.22161 0.93629 0.0
O304 O 0.00815 0.20727 0.12128 0.0
C305 C 0.05117 0.22022 0.0334 0.0
Co306 Co 0.79552 0.77486 0.4621 0.0
Co307 Co 0.79006 0.76296 0.54179 0.0
C308 C 0.76484 0.73231 0.48741 0.0
O309 O 0.77429 0.746 0.46431 0.0
O310 O 0.76896 0.73622 0.51987 0.0
C311 C 0.7787 0.77589 0.39735 0.0
O312 O 0.76153 0.76451 0.41467 0.0
C313 C 0.7733 0.75279 0.61475 0.0
C314 C 0.80241 0.76587 0.64449 0.0
C315 C 0.78125 0.7558 0.64851 0.0
N316 N 0.78914 0.76091 0.59193 0.0
N317 N 0.80644 0.76858 0.61003 0.0
C318 C 0.7511 0.74127 0.60433 0.0
H319 H 0.74951 0.7386 0.57568 0.0
H320 H 0.7435 0.75015 0.61173 0.0
H321 H 0.74311 0.72636 0.61847 0.0
C322 C 0.78758 0.80705 0.48775 0.0
N323 N 0.78961 0.79048 0.49334 0.0
N324 N 0.78678 0.78557 0.52677 0.0
C325 C 0.78284 0.79908 0.54359 0.0
C326 C 0.78302 0.81297 0.51926 0.0
C327 C 0.79138 0.81781 0.45322 0.0
H328 H 0.80449 0.81785 0.43972 0.0
H329 H 0.77748 0.80946 0.43661 0.0
H330 H 0.79487 0.83394 0.45645 0.0
O331 O 0.82209 0.77723 0.47221 0.0
O332 O 0.81831 0.76867 0.5285 0.0
H333 H 0.79149 0.79904 0.59693 0.0
H334 H 0.77592 0.81102 0.59027 0.0
C335 C 0.77849 0.79833 0.58192 0.0
H336 H 0.76448 0.78356 0.58801 0.0
H337 H 0.82109 0.77587 0.59883 0.0
O338 O 0.79578 0.78319 0.41327 0.0
C339 C 0.82898 0.77409 0.50048 0.0
Co340 Co 0.21871 0.01972 0.46865 0.0
Co341 Co 0.23299 0.02551 0.5469 0.0
C342 C 0.26109 0.02847 0.48948 0.0
O343 O 0.24699 0.02514 0.46768 0.0
O344 O 0.25827 0.02903 0.52233 0.0
C345 C 0.21115 -0.00018 0.40309 0.0
O346 O 0.21812 0.98896 0.41889 0.0
C347 C 0.2439 0.01763 0.61851 0.0
C348 C 0.2335 0.03537 0.6502 0.0
C349 C 0.24213 0.02287 0.65278 0.0
N350 N 0.23643 0.02653 0.59682 0.0
N351 N 0.23041 0.0372 0.61607 0.0
C352 C 0.25375 0.00558 0.6065 0.0
H353 H 0.25549 0.00634 0.57763 0.0
H354 H 0.24425 0.98925 0.61437 0.0
H355 H 0.26902 0.01168 0.61916 0.0
C356 C 0.18534 0.98053 0.4957 0.0
N357 N 0.20276 -0.00142 0.50029 0.0
N358 N 0.20867 0.00037 0.53319 0.0
C359 C 0.19506 0.98317 0.55055 0.0
C360 C 0.18002 0.96999 0.52714 0.0
C361 C 0.1732 0.97408 0.46241 0.0
H362 H 0.17468 0.9877 0.44844 0.0
H363 H 0.17912 0.96622 0.44538 0.0
H364 H 0.15667 0.96322 0.4677 0.0
O365 O 0.21831 0.04462 0.48066 0.0
O366 O 0.22955 0.04981 0.5354 0.0
H367 H 0.19833 0.99209 0.60441 0.0
H368 H 0.18354 0.96456 0.59751 0.0
C369 C 0.19689 0.97913 0.58831 0.0
H370 H 0.21097 0.97808 0.59191 0.0
H371 H 0.22388 0.04555 0.60592 0.0
O372 O 0.20912 0.01317 0.42023 0.0
C373 C 0.2234 0.05526 0.50848 0.0
Co374 Co 0.97597 0.1931 0.46293 0.0
Co375 Co 0.96998 0.20278 0.54066 0.0
C376 C 0.9645 0.22535 0.48273 0.0
O377 O 0.96784 0.21413 0.46199 0.0
O378 O 0.96529 0.22361 0.51585 0.0
C379 C 0.99418 0.20874 0.39846 0.0
O380 O 0.00035 0.22598 0.41576 0.0
C381 C 0.97605 0.22072 0.61298 0.0
C382 C 0.95976 0.19195 0.64358 0.0
C383 C 0.97082 0.21313 0.64695 0.0
N384 N 0.96849 0.20463 0.59068 0.0
N385 N 0.95869 0.18755 0.60931 0.0
C386 C 0.98676 0.24279 0.60184 0.0
H387 H 0.98726 0.24406 0.57289 0.0
H388 H 0.00268 0.25096 0.61216 0.0
H389 H 0.9786 0.25043 0.61293 0.0
C390 C 0.0163 0.20264 0.48972 0.0
N391 N -0.00242 0.20046 0.4945 0.0
N392 N -0.00427 0.20508 0.52704 0.0
C393 C 0.01353 0.21052 0.54404 0.0
C394 C 0.02718 0.20934 0.52074 0.0
C395 C 0.02314 0.19725 0.45652 0.0
H396 H 0.00997 0.18381 0.44395 0.0
H397 H 0.02906 0.21051 0.43828 0.0
H398 H 0.03554 0.19359 0.46151 0.0
O399 O 0.95218 0.16683 0.47537 0.0
O400 O 0.94658 0.17468 0.5287 0.0
H401 H 0.00596 0.20573 0.59849 0.0
H402 H 0.03327 0.22146 0.58983 0.0
C403 C 0.01768 0.21773 0.58118 0.0
H404 H 0.01643 0.23176 0.58359 0.0
H405 H 0.95143 0.17278 0.59861 0.0
O406 O 0.98405 0.19172 0.41445 0.0
C407 C 0.94147 0.16212 0.50314 0.0
Co408 Co 0.88449 0.52789 0.29307 0.0
Co409 Co 0.89751 0.53625 0.37205 0.0
C410 C 0.92632 0.56175 0.31563 0.0
O411 O 0.91253 0.55111 0.29328 0.0
O412 O 0.92313 0.55807 0.34836 0.0
C413 C 0.87658 0.54047 0.22807 0.0
O414 O 0.88225 0.55776 0.2449 0.0
C415 C 0.90811 0.55407 0.44464 0.0
C416 C 0.89556 0.5252 0.47499 0.0
C417 C 0.90546 0.54636 0.47857 0.0
N418 N 0.89996 0.53805 0.42216 0.0
N419 N 0.8926 0.52092 0.44065 0.0
C420 C 0.91921 0.57619 0.43378 0.0
H421 H 0.9228 0.57767 0.40542 0.0
H422 H 0.90949 0.58316 0.43915 0.0
H423 H 0.93359 0.58483 0.4492 0.0
C424 C 0.85003 0.53253 0.3191 0.0
N425 N 0.86774 0.53247 0.32415 0.0
N426 N 0.87347 0.53699 0.35706 0.0
C427 C 0.85959 0.54037 0.37387 0.0
C428 C 0.84441 0.53784 0.3502 0.0
C429 C 0.83782 0.52601 0.28588 0.0
H430 H 0.84027 0.51444 0.272 0.0
H431 H 0.8428 0.53962 0.26872 0.0
H432 H 0.82114 0.51935 0.29132 0.0
O433 O 0.88487 0.50287 0.30492 0.0
O434 O 0.89392 0.50855 0.36086 0.0
H435 H 0.86068 0.53434 0.42827 0.0
H436 H 0.84906 0.54999 0.41921 0.0
C437 C 0.86135 0.54669 0.4114 0.0
H438 H 0.87643 0.56072 0.4155 0.0
H439 H 0.88536 0.50619 0.4298 0.0
O440 O 0.87549 0.52522 0.2443 0.0
C441 C 0.88902 0.49726 0.33364 0.0
Co442 Co 0.46118 0.35139 0.3 0.0
Co443 Co 0.45349 0.35772 0.37843 0.0
C444 C 0.42973 0.36325 0.32207 0.0
O445 O 0.44017 0.35955 0.30013 0.0
O446 O 0.43248 0.36272 0.35491 0.0
C447 C 0.44504 0.33325 0.23553 0.0
O448 O 0.42782 0.3274 0.25275 0.0
C449 C 0.43532 0.35023 0.45002 0.0
C450 C 0.46353 0.36795 0.48152 0.0
C451 C 0.44241 0.35548 0.4842 0.0
N452 N 0.45162 0.35911 0.42826 0.0
N453 N 0.46837 0.36979 0.44734 0.0
C454 C 0.41342 0.33825 0.43808 0.0
H455 H 0.41259 0.33685 0.40914 0.0
H456 H 0.40563 0.32268 0.44985 0.0
H457 H 0.40505 0.34615 0.44699 0.0
C458 C 0.45276 0.31133 0.32645 0.0
N459 N 0.45448 0.32984 0.33148 0.0
N460 N 0.45098 0.33191 0.36459 0.0
C461 C 0.44689 0.3145 0.38177 0.0
C462 C 0.44765 0.30085 0.35795 0.0
C463 C 0.45743 0.30449 0.29255 0.0
H464 H 0.47071 0.31763 0.27957 0.0
H465 H 0.44386 0.29877 0.27505 0.0
H466 H 0.46106 0.292 0.29659 0.0
O467 O 0.48772 0.3752 0.31148 0.0
O468 O 0.48155 0.3809 0.36594 0.0
H469 H 0.4538 0.32386 0.43531 0.0
H470 H 0.4407 0.29626 0.42902 0.0
C471 C 0.44187 0.31083 0.4199 0.0
H472 H 0.42689 0.30993 0.42459 0.0
H473 H 0.48321 0.37812 0.43705 0.0
O474 O 0.46209 0.34324 0.25149 0.0
C475 C 0.49337 0.38585 0.33934 0.0
Co476 Co 0.64256 0.11173 0.29836 0.0
Co477 Co 0.63462 0.0973 0.37672 0.0
C478 C 0.63261 0.06916 0.32019 0.0
O479 O 0.63601 0.08316 0.29822 0.0
O480 O 0.63207 0.07216 0.35294 0.0
C481 C 0.66037 0.11396 0.23316 0.0
O482 O 0.66605 0.10226 0.24973 0.0
C483 C 0.64266 0.08764 0.44855 0.0
C484 C 0.62085 0.09318 0.47902 0.0
C485 C 0.63589 0.08772 0.48248 0.0
N486 N 0.63224 0.09308 0.42635 0.0
N487 N 0.61913 0.09618 0.4448 0.0
C488 C 0.65785 0.08141 0.43708 0.0
H489 H 0.65521 0.07642 0.40933 0.0
H490 H 0.67368 0.09465 0.43937 0.0
H491 H 0.65669 0.06882 0.45395 0.0
C492 C 0.68115 0.14456 0.32763 0.0
N493 N 0.66308 0.12708 0.33144 0.0
N494 N 0.65978 0.12202 0.3648 0.0
C495 C 0.67558 0.13679 0.38349 0.0
C496 C 0.68964 0.15148 0.36049 0.0
C497 C 0.69031 0.15373 0.29279 0.0
H498 H 0.69032 0.14172 0.276 0.0
H499 H 0.70641 0.1665 0.29485 0.0
H500 H 0.68072 0.15927 0.27988 0.0
O501 O 0.61739 0.11268 0.30839 0.0
O502 O 0.61068 0.10037 0.36258 0.0
H503 H 0.68584 0.15434 0.43135 0.0
H504 H 0.68316 0.1292 0.43305 0.0
C505 C 0.67626 0.13815 0.42258 0.0
H506 H 0.66053 0.13183 0.43335 0.0
H507 H 0.60918 0.10067 0.43407 0.0
O508 O 0.65106 0.1215 0.24996 0.0
C509 C 0.60593 0.10693 0.33537 0.0
Co510 Co 0.86371 0.55382 0.90222 0.0
Co511 Co 0.87037 0.56722 0.82348 0.0
C512 C 0.89755 0.59525 0.87998 0.0
O513 O 0.88705 0.58162 0.90258 0.0
O514 O 0.89329 0.59208 0.84743 0.0
C515 C 0.87655 0.54837 0.96881 0.0
O516 O 0.89484 0.55802 0.95417 0.0
C517 C 0.88866 0.57578 0.75194 0.0
C518 C 0.86247 0.57289 0.72097 0.0
C519 C 0.88247 0.57671 0.71794 0.0
N520 N 0.87288 0.57139 0.7738 0.0
N521 N 0.85737 0.56984 0.75504 0.0
C522 C 0.90951 0.58025 0.76379 0.0
H523 H 0.91154 0.58391 0.79215 0.0
H524 H 0.91127 0.56663 0.75933 0.0
H525 H 0.92164 0.59325 0.74851 0.0
C526 C 0.86726 0.51927 0.87436 0.0
N527 N 0.86768 0.53724 0.86989 0.0
N528 N 0.86961 0.54198 0.83637 0.0
C529 C 0.86981 0.52658 0.81826 0.0
C530 C 0.86841 0.51176 0.84178 0.0
C531 C 0.86684 0.51023 0.90953 0.0
H532 H 0.8525 0.50679 0.92348 0.0
H533 H 0.88008 0.52164 0.92509 0.0
H534 H 0.8681 0.49617 0.908 0.0
O535 O 0.83852 0.55446 0.89137 0.0
O536 O 0.84363 0.56523 0.83631 0.0
H537 H 0.86075 0.53212 0.76787 0.0
H538 H 0.86161 0.50853 0.77092 0.0
C539 C 0.86919 0.52488 0.77922 0.0
H540 H 0.88512 0.53277 0.76892 0.0
H541 H 0.84316 0.56648 0.76546 0.0
O542 O 0.86071 0.54393 0.95064 0.0
C543 C 0.83267 0.55968 0.86397 0.0
Co544 Co 0.44001 0.30894 0.91037 0.0
Co545 Co 0.4279 0.30333 0.83088 0.0
C546 C 0.39738 0.29753 0.8857 0.0
O547 O 0.4111 0.3014 0.90857 0.0
O548 O 0.40124 0.29768 0.85313 0.0
C549 C 0.44128 0.32687 0.97485 0.0
O550 O 0.43039 0.33309 0.95713 0.0
C551 C 0.41737 0.31013 0.75833 0.0
C552 C 0.43095 0.29477 0.72795 0.0
C553 C 0.42048 0.3055 0.7244 0.0
N554 N 0.42582 0.30257 0.7808 0.0
N555 N 0.43379 0.29335 0.76232 0.0
C556 C 0.40555 0.32043 0.7692 0.0
H557 H 0.40177 0.31803 0.79747 0.0
H558 H 0.41482 0.3372 0.76423 0.0
H559 H 0.39123 0.31438 0.75351 0.0
C560 C 0.47242 0.34919 0.88533 0.0
N561 N 0.45568 0.33075 0.87956 0.0
N562 N 0.45066 0.329 0.84622 0.0
C563 C 0.46424 0.3465 0.82964 0.0
C564 C 0.47833 0.35992 0.85404 0.0
C565 C 0.48339 0.35574 0.91973 0.0
H566 H 0.48308 0.34243 0.93291 0.0
H567 H 0.47543 0.36159 0.93672 0.0
H568 H 0.49964 0.36808 0.91636 0.0
O569 O 0.44234 0.28477 0.89936 0.0
O570 O 0.43344 0.28057 0.84323 0.0
H571 H 0.46453 0.33845 0.77603 0.0
H572 H 0.47586 0.36585 0.78347 0.0
C573 C 0.46342 0.35039 0.79146 0.0
H574 H 0.44845 0.34924 0.78552 0.0
H575 H 0.44136 0.28619 0.77321 0.0
O576 O 0.44828 0.3167 0.95928 0.0
C577 C 0.43898 0.27499 0.87075 0.0
Co578 Co 0.68196 0.12985 0.90738 0.0
Co579 Co 0.69048 0.1242 0.82897 0.0
C580 C 0.69296 0.09806 0.88518 0.0
O581 O 0.68907 0.1082 0.90739 0.0
O582 O 0.69362 0.10188 0.85252 0.0
C583 C 0.66391 0.11386 0.97233 0.0
O584 O 0.65862 0.09659 0.95571 0.0
C585 C 0.68249 0.10681 0.75703 0.0
C586 C 0.70459 0.1341 0.72681 0.0
C587 C 0.68936 0.11371 0.72317 0.0
N588 N 0.69304 0.12255 0.77936 0.0
N589 N 0.70633 0.13872 0.76108 0.0
C590 C 0.66706 0.08546 0.76835 0.0
H591 H 0.6697 0.08295 0.79603 0.0
H592 H 0.65133 0.08318 0.76628 0.0
H593 H 0.66796 0.07396 0.75128 0.0
C594 C 0.64334 0.12389 0.8778 0.0
N595 N 0.66144 0.1245 0.87413 0.0
N596 N 0.66504 0.12324 0.84075 0.0
C597 C 0.64945 0.12259 0.8219 0.0
C598 C 0.63517 0.1229 0.84483 0.0
C599 C 0.63395 0.12365 0.91254 0.0
H600 H 0.63406 0.11168 0.9293 0.0
H601 H 0.61778 0.12011 0.9102 0.0
H602 H 0.64329 0.13876 0.92558 0.0
O603 O 0.70687 0.15633 0.89775 0.0
O604 O 0.71397 0.15136 0.84342 0.0
H605 H 0.64011 0.13137 0.77454 0.0
H606 H 0.6423 0.10868 0.77126 0.0
C607 C 0.64933 0.12427 0.78288 0.0
H608 H 0.66523 0.13367 0.77282 0.0
H609 H 0.7164 0.15307 0.77193 0.0
O610 O 0.67313 0.13075 0.95568 0.0
C611 C 0.71839 0.16245 0.87084 0.0
Co612 Co 0.44222 0.13162 0.40216 0.0
Co613 Co 0.4274 0.12383 0.32407 0.0
C614 C 0.39924 0.09873 0.38069 0.0
O615 O 0.41343 0.10955 0.40231 0.0
O616 O 0.40204 0.1018 0.3478 0.0
C617 C 0.44584 0.11549 0.46563 0.0
O618 O 0.43522 0.09833 0.44791 0.0
C619 C 0.41648 0.1069 0.25131 0.0
C620 C 0.42768 0.1359 0.22179 0.0
C621 C 0.41865 0.11483 0.21764 0.0
N622 N 0.42413 0.1227 0.27417 0.0
N623 N 0.43062 0.13992 0.25623 0.0
C624 C 0.40612 0.0847 0.26168 0.0
H625 H 0.40408 0.08301 0.29046 0.0
H626 H 0.41541 0.07775 0.25315 0.0
H627 H 0.39094 0.07615 0.24849 0.0
C628 C 0.47452 0.12471 0.37386 0.0
N629 N 0.45748 0.12608 0.36965 0.0
N630 N 0.45149 0.1224 0.33676 0.0
C631 C 0.46476 0.11851 0.31893 0.0
C632 C 0.4796 0.1196 0.34207 0.0
C633 C 0.48631 0.12925 0.40743 0.0
H634 H 0.48613 0.14216 0.42121 0.0
H635 H 0.47893 0.11544 0.42448 0.0
H636 H 0.50252 0.13334 0.4027 0.0
O637 O 0.44351 0.15767 0.39188 0.0
O638 O 0.43099 0.15126 0.33787 0.0
H639 H 0.46148 0.12476 0.2654 0.0
H640 H 0.47592 0.11156 0.27138 0.0
C641 C 0.46273 0.11297 0.28099 0.0
H642 H 0.44849 0.09802 0.2772 0.0
H643 H 0.43738 0.15453 0.26749 0.0
O644 O 0.45185 0.13258 0.45033 0.0
C645 C 0.4377 0.163 0.36457 0.0
Co646 Co 0.86473 0.30816 0.40934 0.0
Co647 Co 0.86859 0.3013 0.32932 0.0
C648 C 0.8951 0.2966 0.38294 0.0
O649 O 0.88601 0.30081 0.40673 0.0
O650 O 0.89025 0.29611 0.3508 0.0
C651 C 0.88058 0.3236 0.47601 0.0
O652 O 0.89793 0.3284 0.46008 0.0
C653 C 0.88598 0.31123 0.25744 0.0
C654 C 0.85876 0.28987 0.22633 0.0
C655 C 0.87918 0.30514 0.22331 0.0
N656 N 0.87018 0.30018 0.27941 0.0
N657 N 0.85403 0.28736 0.26058 0.0
C658 C 0.90735 0.32629 0.26921 0.0
H659 H 0.90945 0.32374 0.29715 0.0
H660 H 0.91018 0.34218 0.26635 0.0
H661 H 0.91878 0.32486 0.25276 0.0
C662 C 0.87223 0.3482 0.38404 0.0
N663 N 0.87044 0.32973 0.37813 0.0
N664 N 0.8711 0.32693 0.34423 0.0
C665 C 0.8724 0.34338 0.32736 0.0
C666 C 0.87331 0.35743 0.35209 0.0
C667 C 0.87368 0.35696 0.41985 0.0
H668 H 0.88533 0.35542 0.43526 0.0
H669 H 0.87837 0.37349 0.41913 0.0
H670 H 0.85862 0.34814 0.43331 0.0
O671 O 0.83792 0.28378 0.39914 0.0
O672 O 0.84066 0.27876 0.34255 0.0
H673 H 0.86299 0.35413 0.28251 0.0
H674 H 0.88544 0.35182 0.27616 0.0
C675 C 0.87007 0.34457 0.28866 0.0
H676 H 0.86034 0.329 0.27756 0.0
H677 H 0.83966 0.27703 0.27109 0.0
O678 O 0.86399 0.31576 0.45847 0.0
C679 C 0.83047 0.27369 0.37104 0.0
Co680 Co 0.68433 0.54847 0.40845 0.0
Co681 Co 0.68912 0.56228 0.3297 0.0
C682 C 0.69553 0.59168 0.3861 0.0
O683 O 0.6924 0.57762 0.40784 0.0
O684 O 0.6944 0.58837 0.3532 0.0
C685 C 0.66671 0.54685 0.47317 0.0
O686 O 0.66034 0.55762 0.45542 0.0
C687 C 0.68263 0.57364 0.25718 0.0
C688 C 0.69542 0.55764 0.22653 0.0
C689 C 0.68609 0.56948 0.22307 0.0
N690 N 0.68943 0.56441 0.27955 0.0
N691 N 0.69717 0.55505 0.26088 0.0
C692 C 0.67402 0.58696 0.26828 0.0
H693 H 0.67915 0.5929 0.29512 0.0
H694 H 0.65698 0.57786 0.26821 0.0
H695 H 0.67885 0.59998 0.24976 0.0
C696 C 0.64371 0.51689 0.38378 0.0
N697 N 0.66222 0.53353 0.37804 0.0
N698 N 0.66365 0.53922 0.34508 0.0
C699 C 0.64582 0.52622 0.32877 0.0
C700 C 0.63257 0.51178 0.35293 0.0
C701 C 0.6374 0.50531 0.41767 0.0
H702 H 0.65083 0.50546 0.43012 0.0
H703 H 0.63157 0.51289 0.43558 0.0
H704 H 0.62509 0.48912 0.41366 0.0
O705 O 0.70791 0.54562 0.39547 0.0
O706 O 0.7125 0.55745 0.34102 0.0
H707 H 0.65229 0.526 0.27435 0.0
H708 H 0.62538 0.51657 0.28388 0.0
C709 C 0.64139 0.52803 0.2912 0.0
H710 H 0.64377 0.54362 0.2865 0.0
H711 H 0.70342 0.54659 0.27164 0.0
O712 O 0.6769 0.5399 0.45749 0.0
C713 C 0.718 0.55061 0.36698 0.0
Co714 Co 0.46234 0.10994 0.79237 0.0
Co715 Co 0.45795 0.09845 0.87213 0.0
C716 C 0.43203 0.06765 0.81777 0.0
O717 O 0.4413 0.08114 0.79437 0.0
O718 O 0.43645 0.07183 0.85007 0.0
C719 C 0.44605 0.10966 0.72632 0.0
O720 O 0.42886 0.09731 0.74285 0.0
C721 C 0.4403 0.08997 0.94391 0.0
C722 C 0.46737 0.09516 0.97483 0.0
C723 C 0.44692 0.0899 0.97792 0.0
N724 N 0.45622 0.09521 0.92195 0.0
N725 N 0.47229 0.09817 0.94068 0.0
C726 C 0.41898 0.08389 0.93214 0.0
H727 H 0.41708 0.08002 0.90386 0.0
H728 H 0.41606 0.09682 0.93631 0.0
H729 H 0.40749 0.07058 0.9477 0.0
C730 C 0.45503 0.14249 0.81867 0.0
N731 N 0.45643 0.12554 0.82404 0.0
N732 N 0.45552 0.1217 0.85784 0.0
C733 C 0.45438 0.13682 0.87518 0.0
C734 C 0.45391 0.15041 0.85087 0.0
C735 C 0.45417 0.15042 0.78309 0.0
H736 H 0.4426 0.13758 0.767 0.0
H737 H 0.44973 0.16245 0.78414 0.0
H738 H 0.46938 0.15663 0.77014 0.0
O739 O 0.48921 0.1124 0.80257 0.0
O740 O 0.48589 0.10387 0.85888 0.0
H741 H 0.46341 0.15633 0.92087 0.0
H742 H 0.441 0.13142 0.92619 0.0
C743 C 0.45645 0.13981 0.91401 0.0
H744 H 0.46617 0.13386 0.92482 0.0
H745 H 0.4867 0.10238 0.93015 0.0
O746 O 0.46285 0.11837 0.7433 0.0
C747 C 0.49636 0.10933 0.83067 0.0
Co748 Co 0.88053 0.35143 0.79863 0.0
Co749 Co 0.89399 0.35942 0.87743 0.0
C750 C 0.9236 0.36371 0.82167 0.0
O751 O 0.90946 0.35911 0.79934 0.0
O752 O 0.92031 0.3645 0.85426 0.0
C753 C 0.87805 0.33136 0.7362 0.0
O754 O 0.8888 0.32536 0.75491 0.0
C755 C 0.90548 0.35392 0.95 0.0
C756 C 0.89219 0.36965 0.98009 0.0
C757 C 0.90251 0.35879 0.98387 0.0
N758 N 0.89701 0.36139 0.9274 0.0
N759 N 0.88929 0.37091 0.94568 0.0
C760 C 0.9172 0.34347 0.93929 0.0
H761 H 0.92156 0.34636 0.91129 0.0
H762 H 0.90763 0.32665 0.94326 0.0
H763 H 0.93119 0.34901 0.95574 0.0
C764 C 0.8489 0.31178 0.82699 0.0
N765 N 0.86547 0.33053 0.83128 0.0
N766 N 0.871 0.33326 0.86443 0.0
C767 C 0.85785 0.31611 0.88238 0.0
C768 C 0.84362 0.30189 0.85905 0.0
C769 C 0.83757 0.30397 0.79313 0.0
H770 H 0.83736 0.31668 0.77868 0.0
H771 H 0.84556 0.29785 0.77687 0.0
H772 H 0.82149 0.29149 0.79753 0.0
O773 O 0.87833 0.37584 0.80778 0.0
O774 O 0.88805 0.38175 0.86351 0.0
H775 H 0.85948 0.3262 0.93528 0.0
H776 H 0.84618 0.29851 0.93032 0.0
C777 C 0.85919 0.31324 0.92082 0.0
H778 H 0.87367 0.31327 0.92633 0.0
H779 H 0.88167 0.378 0.93466 0.0
O780 O 0.87151 0.34228 0.75049 0.0
C781 C 0.88206 0.38645 0.83552 0.0
Co782 Co 0.64153 0.5288 0.79882 0.0
Co783 Co 0.63523 0.53753 0.87687 0.0
C784 C 0.63065 0.56128 0.81961 0.0
O785 O 0.63397 0.55028 0.79829 0.0
O786 O 0.63105 0.55887 0.85261 0.0
C787 C 0.65987 0.54431 0.73402 0.0
O788 O 0.66586 0.56169 0.75077 0.0
C789 C 0.64179 0.55535 0.94908 0.0
C790 C 0.624 0.52675 0.9796 0.0
C791 C 0.63608 0.54786 0.98298 0.0
N792 N 0.63351 0.53926 0.92678 0.0
N793 N 0.62282 0.52228 0.94534 0.0
C794 C 0.65364 0.57739 0.93791 0.0
H795 H 0.6555 0.5786 0.90905 0.0
H796 H 0.66901 0.5852 0.95045 0.0
H797 H 0.64538 0.58543 0.94667 0.0
C798 C 0.68157 0.53744 0.82593 0.0
N799 N 0.66292 0.53544 0.83069 0.0
N800 N 0.66091 0.53954 0.86349 0.0
C801 C 0.67852 0.54438 0.88069 0.0
C802 C 0.69222 0.54343 0.85724 0.0
C803 C 0.68861 0.53269 0.79232 0.0
H804 H 0.67558 0.51929 0.77939 0.0
H805 H 0.69432 0.54616 0.77461 0.0
H806 H 0.70119 0.52924 0.79683 0.0
O807 O 0.61739 0.50255 0.81055 0.0
O808 O 0.61167 0.50961 0.86438 0.0
H809 H 0.66988 0.53914 0.93473 0.0
H810 H 0.69742 0.55292 0.92749 0.0
C811 C 0.68248 0.55081 0.91823 0.0
H812 H 0.68276 0.56562 0.92119 0.0
H813 H 0.61486 0.50753 0.93461 0.0
O814 O 0.64974 0.52742 0.75038 0.0
C815 C 0.60659 0.49744 0.83826 0.0
Co816 Co 0.54872 0.86148 0.62851 0.0
Co817 Co 0.56104 0.86547 0.70779 0.0
C818 C 0.5912 0.89186 0.65291 0.0
O819 O 0.57744 0.88267 0.6299 0.0
O820 O 0.58744 0.88718 0.68522 0.0
C821 C 0.54806 0.87843 0.56388 0.0
O822 O 0.55992 0.89542 0.5813 0.0
C823 C 0.57032 0.88311 0.7794 0.0
C824 C 0.56392 0.85571 0.8105 0.0
C825 C 0.5699 0.87636 0.8135 0.0
N826 N 0.56461 0.86708 0.75752 0.0
N827 N 0.56096 0.85082 0.77634 0.0
C828 C 0.57711 0.90457 0.76743 0.0
H829 H 0.58221 0.90664 0.73975 0.0
H830 H 0.56408 0.90755 0.76924 0.0
H831 H 0.58976 0.9159 0.78428 0.0
C832 C 0.51629 0.86839 0.65668 0.0
N833 N 0.53334 0.86703 0.66113 0.0
N834 N 0.53757 0.86785 0.69474 0.0
C835 C 0.52265 0.86892 0.7129 0.0
C836 C 0.50875 0.86939 0.68932 0.0
C837 C 0.50796 0.86938 0.62154 0.0
H838 H 0.5205 0.88148 0.60564 0.0
H839 H 0.49553 0.87323 0.62334 0.0
H840 H 0.50221 0.85445 0.60788 0.0
O841 O 0.5466 0.8347 0.63777 0.0
O842 O 0.55557 0.83758 0.69383 0.0
H843 H 0.50381 0.86037 0.75946 0.0
H844 H 0.5292 0.88221 0.76403 0.0
C845 C 0.52017 0.86684 0.75182 0.0
H846 H 0.52577 0.85668 0.76193 0.0
H847 H 0.5562 0.83627 0.76588 0.0
O848 O 0.53988 0.8613 0.57988 0.0
C849 C 0.54993 0.82736 0.66538 0.0
Co850 Co 0.12744 0.68449 0.63243 0.0
Co851 Co 0.12049 0.69095 0.71126 0.0
C852 C 0.09544 0.69512 0.65499 0.0
O853 O 0.10605 0.69189 0.63278 0.0
O854 O 0.09855 0.69476 0.68775 0.0
C855 C 0.1126 0.6688 0.56577 0.0
O856 O 0.09507 0.66372 0.58131 0.0
C857 C 0.10238 0.68132 0.78284 0.0
C858 C 0.12915 0.70351 0.814 0.0
C859 C 0.10888 0.68788 0.81694 0.0
N860 N 0.11823 0.69245 0.76098 0.0
N861 N 0.13409 0.70578 0.77984 0.0
C862 C 0.08123 0.66572 0.77095 0.0
H863 H 0.07924 0.66778 0.74273 0.0
H864 H 0.07875 0.65001 0.77479 0.0
H865 H 0.0695 0.66706 0.78666 0.0
C866 C 0.1201 0.64479 0.65883 0.0
N867 N 0.12122 0.66302 0.66402 0.0
N868 N 0.11951 0.66572 0.69765 0.0
C869 C 0.11812 0.64939 0.71516 0.0
C870 C 0.11834 0.63558 0.69106 0.0
C871 C 0.11982 0.63619 0.62332 0.0
H872 H 0.1084 0.6374 0.60671 0.0
H873 H 0.1155 0.61976 0.62427 0.0
H874 H 0.13519 0.64533 0.61095 0.0
O875 O 0.15386 0.70887 0.64411 0.0
O876 O 0.14794 0.71466 0.69868 0.0
H877 H 0.12798 0.66358 0.76574 0.0
H878 H 0.12638 0.63886 0.7616 0.0
C879 C 0.11908 0.64804 0.75412 0.0
H880 H 0.10326 0.64024 0.7649 0.0
H881 H 0.14843 0.71628 0.76945 0.0
O882 O 0.12908 0.67691 0.58363 0.0
C883 C 0.15954 0.71969 0.67182 0.0
Co884 Co 0.30712 0.44228 0.6342 0.0
Co885 Co 0.30021 0.42891 0.71312 0.0
C886 C 0.29789 0.40017 0.65741 0.0
O887 O 0.30097 0.41385 0.63497 0.0
O888 O 0.29741 0.40348 0.69004 0.0
C889 C 0.32441 0.44397 0.56865 0.0
O890 O 0.33035 0.43252 0.58533 0.0
C891 C 0.30942 0.42003 0.78462 0.0
C892 C 0.28915 0.42726 0.81617 0.0
C893 C 0.3038 0.42123 0.81895 0.0
N894 N 0.29877 0.42545 0.76289 0.0
N895 N 0.28655 0.42951 0.78199 0.0
C896 C 0.32379 0.41291 0.77241 0.0
H897 H 0.3198 0.40666 0.74547 0.0
H898 H 0.33977 0.42604 0.77199 0.0
H899 H 0.32322 0.401 0.79037 0.0
C900 C 0.34619 0.47539 0.66158 0.0
N901 N 0.32806 0.45809 0.66633 0.0
N902 N 0.32523 0.45342 0.69986 0.0
C903 C 0.34142 0.46825 0.71774 0.0
C904 C 0.35524 0.48257 0.69402 0.0
C905 C 0.35495 0.48401 0.62626 0.0
H906 H 0.35508 0.47181 0.61018 0.0
H907 H 0.37096 0.497 0.62756 0.0
H908 H 0.34502 0.48901 0.61303 0.0
O909 O 0.28205 0.4433 0.64496 0.0
O910 O 0.27613 0.432 0.6998 0.0
H911 H 0.32729 0.46431 0.76823 0.0
H912 H 0.35295 0.48619 0.76503 0.0
C913 C 0.34277 0.46999 0.75678 0.0
H914 H 0.3493 0.46067 0.76706 0.0
H915 H 0.2767 0.43426 0.77171 0.0
O916 O 0.31506 0.45149 0.5854 0.0
C917 C 0.27104 0.43816 0.67248 0.0
Co918 Co 0.53303 0.88776 0.23815 0.0
Co919 Co 0.53852 0.9013 0.15944 0.0
C920 C 0.5649 0.93026 0.21499 0.0
O921 O 0.55472 0.91642 0.23745 0.0
O922 O 0.56103 0.92689 0.18237 0.0
C923 C 0.54904 0.88611 0.30336 0.0
O924 O 0.56634 0.89824 0.28693 0.0
C925 C 0.55537 0.90983 0.08706 0.0
C926 C 0.52779 0.90425 0.05732 0.0
C927 C 0.54814 0.9093 0.05329 0.0
N928 N 0.53985 0.905 0.10974 0.0
N929 N 0.52351 0.90191 0.09173 0.0
C930 C 0.57685 0.9159 0.0979 0.0
H931 H 0.57961 0.92138 0.12539 0.0
H932 H 0.57916 0.90246 0.09614 0.0
H933 H 0.58816 0.92809 0.0803 0.0
C934 C 0.53915 0.85503 0.20963 0.0
N935 N 0.53828 0.87234 0.20536 0.0
N936 N 0.53949 0.8769 0.17184 0.0
C937 C 0.54035 0.8619 0.15352 0.0
C938 C 0.54026 0.84765 0.17694 0.0
C939 C 0.53973 0.84638 0.24469 0.0
H940 H 0.55188 0.85869 0.26084 0.0
H941 H 0.54326 0.83373 0.24283 0.0
H942 H 0.52476 0.84083 0.25813 0.0
O943 O 0.50658 0.8862 0.22855 0.0
O944 O 0.51145 0.89787 0.17399 0.0
H945 H 0.53161 0.84336 0.10672 0.0
H946 H 0.55442 0.86806 0.10303 0.0
C947 C 0.53879 0.85977 0.11454 0.0
H948 H 0.5295 0.86625 0.10392 0.0
H949 H 0.50927 0.89779 0.10288 0.0
O950 O 0.53219 0.87832 0.28657 0.0
C951 C 0.50042 0.89144 0.20153 0.0
Co952 Co 0.1099 0.64154 0.24279 0.0
Co953 Co 0.09713 0.63493 0.1636 0.0
C954 C 0.06736 0.63074 0.21883 0.0
O955 O 0.08121 0.6347 0.24147 0.0
O956 O 0.07085 0.6302 0.18627 0.0
C957 C 0.11261 0.66143 0.30548 0.0
O958 O 0.10248 0.6681 0.28662 0.0
C959 C 0.08602 0.64097 0.09095 0.0
C960 C 0.09966 0.6256 0.06078 0.0
C961 C 0.08908 0.63621 0.05706 0.0
N962 N 0.09463 0.63362 0.11353 0.0
N963 N 0.10261 0.62436 0.09518 0.0
C964 C 0.07412 0.65122 0.10169 0.0
H965 H 0.06949 0.64802 0.12954 0.0
H966 H 0.08373 0.66809 0.09831 0.0
H967 H 0.0603 0.64584 0.08488 0.0
C968 C 0.14249 0.68116 0.21606 0.0
N969 N 0.12564 0.66271 0.211 0.0
N970 N 0.12028 0.66064 0.17779 0.0
C971 C 0.13374 0.67796 0.16062 0.0
C972 C 0.14808 0.69159 0.1845 0.0
C973 C 0.15385 0.68807 0.25007 0.0
H974 H 0.15327 0.67482 0.26395 0.0
H975 H 0.14647 0.69467 0.26674 0.0
H976 H 0.17019 0.69999 0.24593 0.0
O977 O 0.11146 0.61688 0.23291 0.0
O978 O 0.10231 0.61199 0.17687 0.0
H979 H 0.13315 0.66931 0.10711 0.0
H980 H 0.14505 0.69682 0.11387 0.0
C981 C 0.13251 0.68154 0.12242 0.0
H982 H 0.11761 0.68065 0.11697 0.0
H983 H 0.11032 0.61737 0.10616 0.0
O984 O 0.11863 0.65005 0.29125 0.0
C985 C 0.1078 0.60666 0.20474 0.0
Co986 Co 0.35053 0.46774 0.244 0.0
Co987 Co 0.35702 0.4613 0.16479 0.0
C988 C 0.36276 0.43691 0.22007 0.0
O989 O 0.35858 0.4467 0.24261 0.0
O990 O 0.36278 0.44048 0.18741 0.0
C991 C 0.33206 0.45081 0.30805 0.0
O992 O 0.3263 0.4338 0.29027 0.0
C993 C 0.35179 0.44472 0.09171 0.0
C994 C 0.36633 0.47402 0.06234 0.0
C995 C 0.35657 0.4529 0.05807 0.0
N996 N 0.35836 0.4604 0.11471 0.0
N997 N 0.36709 0.47781 0.09682 0.0
C998 C 0.34234 0.42255 0.10182 0.0
H999 H 0.34386 0.42097 0.13034 0.0
H1000 H 0.32578 0.41422 0.09497 0.0
H1001 H 0.34981 0.4153 0.08704 0.0
C1002 C 0.30998 0.4584 0.21784 0.0
N1003 N 0.3289 0.46116 0.21252 0.0
N1004 N 0.33098 0.4577 0.1794 0.0
C1005 C 0.3132 0.45251 0.16256 0.0
C1006 C 0.29928 0.45259 0.18654 0.0
C1007 C 0.30272 0.46234 0.25194 0.0
H1008 H 0.31558 0.47562 0.26543 0.0
H1009 H 0.29716 0.44856 0.26888 0.0
H1010 H 0.28995 0.46559 0.248 0.0
O1011 O 0.3745 0.49441 0.2335 0.0
O1012 O 0.37934 0.4897 0.17769 0.0
H1013 H 0.32076 0.45962 0.10848 0.0
H1014 H 0.2936 0.44245 0.11656 0.0
C1015 C 0.3094 0.44666 0.12476 0.0
H1016 H 0.31156 0.4333 0.12025 0.0
H1017 H 0.37346 0.49238 0.10818 0.0
O1018 O 0.34219 0.46803 0.29266 0.0
C1019 C 0.38451 0.50087 0.20511 0.0
Co1020 Co 0.10719 0.46478 0.74415 0.0
Co1021 Co 0.09366 0.45655 0.66548 0.0
C1022 C 0.0647 0.43192 0.72248 0.0
O1023 O 0.07878 0.44226 0.74456 0.0
O1024 O 0.06779 0.4354 0.68968 0.0
C1025 C 0.11455 0.45188 0.80924 0.0
O1026 O 0.10802 0.43434 0.79274 0.0
C1027 C 0.08229 0.43844 0.5932 0.0
C1028 C 0.09563 0.4672 0.5624 0.0
C1029 C 0.08516 0.446 0.55914 0.0
N1030 N 0.09088 0.45456 0.61543 0.0
N1031 N 0.09869 0.47163 0.59668 0.0
C1032 C 0.07057 0.41639 0.60443 0.0
H1033 H 0.06677 0.41519 0.63269 0.0
H1034 H 0.07994 0.40896 0.59977 0.0
H1035 H 0.05627 0.40798 0.58875 0.0
C1036 C 0.14045 0.45825 0.71778 0.0
N1037 N 0.12323 0.45926 0.71288 0.0
N1038 N 0.1173 0.45487 0.68004 0.0
C1039 C 0.13059 0.45066 0.66309 0.0
C1040 C 0.14554 0.45246 0.68665 0.0
C1041 C 0.15268 0.46414 0.75098 0.0
H1042 H 0.15106 0.47621 0.76493 0.0
H1043 H 0.14701 0.45042 0.76809 0.0
H1044 H 0.16922 0.46995 0.7455 0.0
O1045 O 0.10769 0.49024 0.73227 0.0
O1046 O 0.09827 0.48469 0.6765 0.0
H1047 H 0.12902 0.45654 0.60876 0.0
H1048 H 0.14065 0.44086 0.61739 0.0
C1049 C 0.12846 0.44423 0.62559 0.0
H1050 H 0.11333 0.43021 0.62187 0.0
H1051 H 0.10636 0.48642 0.6073 0.0
O1052 O 0.11638 0.46738 0.79274 0.0
C1053 C 0.10364 0.49604 0.70368 0.0
Co1054 Co 0.529 0.64058 0.73859 0.0
Co1055 Co 0.5342 0.63339 0.65945 0.0
C1056 C 0.56148 0.63143 0.7151 0.0
O1057 O 0.55189 0.63548 0.73822 0.0
O1058 O 0.55651 0.63001 0.68284 0.0
C1059 C 0.5425 0.65902 0.80506 0.0
O1060 O 0.56073 0.66769 0.79019 0.0
C1061 C 0.55205 0.64235 0.58766 0.0
C1062 C 0.52503 0.62015 0.557 0.0
C1063 C 0.54539 0.63551 0.5537 0.0
N1064 N 0.53621 0.6316 0.60974 0.0
N1065 N 0.5202 0.61829 0.59117 0.0
C1066 C 0.5733 0.65787 0.59927 0.0
H1067 H 0.57552 0.65557 0.62727 0.0
H1068 H 0.57567 0.67358 0.59619 0.0
H1069 H 0.58494 0.65671 0.58295 0.0
C1070 C 0.53324 0.67911 0.71085 0.0
N1071 N 0.53324 0.66134 0.7063 0.0
N1072 N 0.53484 0.65843 0.67271 0.0
C1073 C 0.53527 0.67414 0.65466 0.0
C1074 C 0.53437 0.68779 0.67827 0.0
C1075 C 0.53299 0.6878 0.74603 0.0
H1076 H 0.54628 0.68961 0.76143 0.0
H1077 H 0.53425 0.70312 0.74445 0.0
H1078 H 0.5187 0.67695 0.76016 0.0
O1079 O 0.50335 0.61496 0.72852 0.0
O1080 O 0.50674 0.60992 0.67226 0.0
H1081 H 0.52721 0.68443 0.60758 0.0
H1082 H 0.54984 0.68208 0.60459 0.0
C1083 C 0.53411 0.67498 0.61565 0.0
H1084 H 0.52476 0.65928 0.60478 0.0
H1085 H 0.50583 0.60804 0.60178 0.0
O1086 O 0.52657 0.64764 0.78709 0.0
C1087 C 0.49646 0.60451 0.70063 0.0
Co1088 Co 0.34967 0.88201 0.74715 0.0
Co1089 Co 0.35583 0.89557 0.66824 0.0
C1090 C 0.36153 0.92512 0.72471 0.0
O1091 O 0.35755 0.91102 0.74685 0.0
O1092 O 0.36133 0.92178 0.69193 0.0
C1093 C 0.33163 0.88004 0.81183 0.0
O1094 O 0.32556 0.89121 0.79456 0.0
C1095 C 0.34882 0.90681 0.59645 0.0
C1096 C 0.36531 0.89485 0.56502 0.0
C1097 C 0.35378 0.90453 0.56227 0.0
N1098 N 0.35697 0.89864 0.61829 0.0
N1099 N 0.3669 0.89168 0.59921 0.0
C1100 C 0.33778 0.91774 0.60825 0.0
H1101 H 0.33777 0.91871 0.63721 0.0
H1102 H 0.32166 0.90952 0.59886 0.0
H1103 H 0.34533 0.93343 0.59678 0.0
C1104 C 0.3094 0.8504 0.72074 0.0
N1105 N 0.32801 0.86704 0.71565 0.0
N1106 N 0.33002 0.87263 0.68256 0.0
C1107 C 0.31253 0.85952 0.66547 0.0
C1108 C 0.29885 0.84515 0.68927 0.0
C1109 C 0.30241 0.839 0.75471 0.0
H1110 H 0.31547 0.83878 0.76786 0.0
H1111 H 0.29676 0.847 0.77202 0.0
H1112 H 0.28981 0.82294 0.75072 0.0
O1113 O 0.37378 0.87966 0.73571 0.0
O1114 O 0.37842 0.8897 0.68011 0.0
H1115 H 0.32126 0.86124 0.6117 0.0
H1116 H 0.29371 0.84842 0.61863 0.0
C1117 C 0.30879 0.86115 0.62747 0.0
H1118 H 0.30905 0.87583 0.62293 0.0
H1119 H 0.37458 0.88449 0.60952 0.0
O1120 O 0.34165 0.87302 0.79581 0.0
C1121 C 0.38375 0.88357 0.70719 0.0
Co1122 Co 0.1268 0.43961 0.13521 0.0
Co1123 Co 0.12006 0.42607 0.21383 0.0
C1124 C 0.09339 0.39789 0.15698 0.0
O1125 O 0.1038 0.41165 0.13451 0.0
O1126 O 0.09752 0.40104 0.18957 0.0
C1127 C 0.11406 0.44489 0.06849 0.0
O1128 O 0.09571 0.43505 0.08292 0.0
C1129 C 0.1014 0.41719 0.28504 0.0
C1130 C 0.12768 0.4208 0.31658 0.0
C1131 C 0.10752 0.41655 0.31921 0.0
N1132 N 0.11736 0.42184 0.26347 0.0
N1133 N 0.13293 0.4238 0.28256 0.0
C1134 C 0.08048 0.41228 0.27275 0.0
H1135 H 0.07848 0.40804 0.24463 0.0
H1136 H 0.07859 0.42591 0.27599 0.0
H1137 H 0.06841 0.39955 0.28856 0.0
C1138 C 0.12244 0.4737 0.16299 0.0
N1139 N 0.1223 0.45587 0.16745 0.0
N1140 N 0.12038 0.4511 0.20095 0.0
C1141 C 0.1199 0.46635 0.21907 0.0
C1142 C 0.12109 0.48109 0.19557 0.0
C1143 C 0.12285 0.48276 0.12784 0.0
H1144 H 0.1098 0.47125 0.11207 0.0
H1145 H 0.12129 0.49664 0.12939 0.0
H1146 H 0.13735 0.4865 0.1141 0.0
O1147 O 0.1522 0.4395 0.14642 0.0
O1148 O 0.14713 0.42867 0.20144 0.0
H1149 H 0.12794 0.4844 0.26641 0.0
H1150 H 0.10464 0.45998 0.2685 0.0
C1151 C 0.12055 0.46806 0.25812 0.0
H1152 H 0.1292 0.46103 0.26941 0.0
H1153 H 0.14728 0.42746 0.27241 0.0
O1154 O 0.12988 0.44953 0.08686 0.0
C1155 C 0.15816 0.43445 0.17388 0.0
Co1156 Co 0.55166 0.68714 0.13036 0.0
Co1157 Co 0.56396 0.69407 0.20955 0.0
C1158 C 0.59309 0.69576 0.15397 0.0
O1159 O 0.57955 0.69196 0.13084 0.0
O1160 O 0.58955 0.69714 0.18626 0.0
C1161 C 0.54689 0.66883 0.06388 0.0
O1162 O 0.5564 0.66014 0.07886 0.0
C1163 C 0.57279 0.68497 0.28129 0.0
C1164 C 0.56791 0.7071 0.3121 0.0
C1165 C 0.57296 0.69176 0.31528 0.0
N1166 N 0.56767 0.69573 0.25929 0.0
N1167 N 0.56492 0.709 0.27795 0.0
C1168 C 0.57857 0.66949 0.26958 0.0
H1169 H 0.58304 0.67179 0.24156 0.0
H1170 H 0.56525 0.65376 0.27271 0.0
H1171 H 0.5914 0.67067 0.28581 0.0
C1172 C 0.51726 0.64857 0.15786 0.0
N1173 N 0.53498 0.66636 0.16252 0.0
N1174 N 0.53947 0.6692 0.19613 0.0
C1175 C 0.5242 0.65342 0.21408 0.0
C1176 C 0.50971 0.6398 0.19039 0.0
C1177 C 0.50851 0.63986 0.1226 0.0
H1178 H 0.50503 0.65066 0.10836 0.0
H1179 H 0.52011 0.63815 0.10739 0.0
H1180 H 0.49453 0.62449 0.12404 0.0
O1181 O 0.55186 0.71288 0.14054 0.0
O1182 O 0.56034 0.71778 0.19678 0.0
H1183 H 0.52857 0.6681 0.26414 0.0
H1184 H 0.50593 0.64293 0.26122 0.0
C1185 C 0.52226 0.65244 0.2531 0.0
H1186 H 0.53095 0.64535 0.26393 0.0
H1187 H 0.56079 0.71925 0.26741 0.0
O1188 O 0.54227 0.6802 0.08178 0.0
C1189 C 0.55556 0.72332 0.16847 0.0
Co1190 Co 0.30989 0.86203 0.13737 0.0
Co1191 Co 0.30326 0.87017 0.21557 0.0
C1192 C 0.29955 0.89475 0.15862 0.0
O1193 O 0.30294 0.88393 0.13703 0.0
O1194 O 0.29944 0.89181 0.19153 0.0
C1195 C 0.32843 0.87754 0.07271 0.0
O1196 O 0.33481 0.89493 0.08963 0.0
C1197 C 0.30983 0.88805 0.28768 0.0
C1198 C 0.29258 0.85945 0.31843 0.0
C1199 C 0.30446 0.88059 0.32169 0.0
N1200 N 0.30161 0.87191 0.26548 0.0
N1201 N 0.29123 0.85493 0.28416 0.0
C1202 C 0.32135 0.91009 0.27639 0.0
H1203 H 0.32072 0.91137 0.24756 0.0
H1204 H 0.33767 0.9173 0.28449 0.0
H1205 H 0.3147 0.91871 0.28934 0.0
C1206 C 0.34951 0.86972 0.16488 0.0
N1207 N 0.33098 0.86805 0.16946 0.0
N1208 N 0.32882 0.87182 0.20237 0.0
C1209 C 0.34618 0.87607 0.21986 0.0
C1210 C 0.3599 0.87511 0.19647 0.0
C1211 C 0.35669 0.86529 0.13113 0.0
H1212 H 0.34368 0.85208 0.11778 0.0
H1213 H 0.36254 0.87896 0.11384 0.0
H1214 H 0.36919 0.86171 0.1355 0.0
O1215 O 0.2854 0.83597 0.14859 0.0
O1216 O 0.27955 0.84244 0.20274 0.0
H1217 H 0.33701 0.87008 0.2736 0.0
H1218 H 0.3646 0.88346 0.26707 0.0
C1219 C 0.34989 0.88185 0.25769 0.0
H1220 H 0.35047 0.89676 0.26132 0.0
H1221 H 0.2834 0.84016 0.27352 0.0
O1222 O 0.31808 0.86065 0.08899 0.0
C1223 C 0.27449 0.8306 0.17617 0.0
H1224 H 0.3609 0.28065 0.84872 0.0
H1225 H 0.29332 0.24964 0.02318 0.0
H1226 H 0.38623 0.30081 0.95218 0.0
H1227 H 0.2673 0.23642 0.91915 0.0
H1228 H 0.32745 0.27106 0.99736 0.0
H1229 H 0.32628 0.2669 0.8734 0.0
C1230 C 0.35922 0.28243 0.87645 0.0
C1231 C 0.37648 0.2916 0.89843 0.0
C1232 C 0.31421 0.26363 0.98023 0.0
C1233 C 0.33703 0.27579 0.92689 0.0
C1234 C 0.29473 0.25142 0.99501 0.0
C1235 C 0.27744 0.24095 0.97336 0.0
C1236 C 0.31641 0.26525 0.94358 0.0
C1237 C 0.2802 0.24393 0.93695 0.0
C1238 C 0.33947 0.27455 0.89058 0.0
C1239 C 0.37338 0.29356 0.93422 0.0
N1240 N 0.29931 0.25558 0.92323 0.0
N1241 N 0.35408 0.28553 0.94734 0.0
H1242 H 0.68848 0.08379 0.95209 0.0
H1243 H 0.75106 0.02533 0.91842 0.0
H1244 H 0.70958 0.07758 0.85003 0.0
H1245 H 0.74114 0.04294 0.02107 0.0
H1246 H 0.73004 0.03831 0.8931 0.0
H1247 H 0.70164 0.06281 0.97695 0.0
C1248 C 0.69569 0.07784 0.93472 0.0
C1249 C 0.6982 0.08276 0.89885 0.0
C1250 C 0.7323 0.03919 0.92117 0.0
C1251 C 0.7134 0.05867 0.92754 0.0
C1252 C 0.74431 0.03177 0.93579 0.0
C1253 C 0.74819 0.03334 0.97202 0.0
C1254 C 0.72399 0.04827 0.94281 0.0
C1255 C 0.73873 0.04156 0.99305 0.0
C1256 C 0.70324 0.06586 0.94908 0.0
C1257 C 0.70743 0.07432 0.87779 0.0
N1258 N 0.72721 0.04892 0.97806 0.0
N1259 N 0.7149 0.06284 0.89254 0.0
H1260 H 0.91839 0.63196 0.84409 0.0
H1261 H 0.95187 0.69704 0.02041 0.0
H1262 H 0.91274 0.60506 0.94632 0.0
H1263 H 0.96751 0.7243 0.91735 0.0
H1264 H 0.94022 0.66325 0.99382 0.0
H1265 H 0.93951 0.66612 0.86998 0.0
C1266 C 0.92188 0.63319 0.87179 0.0
C1267 C 0.91345 0.61564 0.89311 0.0
C1268 C 0.94644 0.6767 0.97712 0.0
C1269 C 0.9373 0.6546 0.92302 0.0
C1270 C 0.95308 0.69598 0.99233 0.0
C1271 C 0.96034 0.7135 0.97111 0.0
C1272 C 0.94695 0.67497 0.94047 0.0
C1273 C 0.9617 0.7112 0.9348 0.0
C1274 C 0.93387 0.65269 0.88663 0.0
C1275 C 0.91857 0.61817 0.9289 0.0
N1276 N 0.95483 0.69231 0.92065 0.0
N1277 N 0.92988 0.63726 0.94278 0.0
H1278 H 0.24421 0.27006 0.6231 0.0
H1279 H 0.30412 0.39105 0.59116 0.0
H1280 H 0.25431 0.29833 0.52108 0.0
H1281 H 0.28226 0.36315 0.6926 0.0
H1282 H 0.29294 0.35732 0.56638 0.0
H1283 H 0.265 0.30392 0.64917 0.0
C1284 C 0.25101 0.28337 0.60603 0.0
C1285 C 0.24715 0.28136 0.5698 0.0
C1286 C 0.29076 0.35855 0.59411 0.0
C1287 C 0.27101 0.32024 0.59979 0.0
C1288 C 0.29715 0.37785 0.60842 0.0
C1289 C 0.29379 0.37995 0.64403 0.0
C1290 C 0.28085 0.34108 0.61542 0.0
C1291 C 0.28498 0.36224 0.665 0.0
C1292 C 0.26287 0.30271 0.62106 0.0
C1293 C 0.25669 0.29915 0.54911 0.0
N1294 N 0.27856 0.34347 0.65026 0.0
N1295 N 0.26799 0.3179 0.56448 0.0
H1296 H 0.60171 0.9087 0.5878 0.0
H1297 H 0.72246 0.96438 0.62229 0.0
H1298 H 0.62813 0.91006 0.68889 0.0
H1299 H 0.69513 0.95006 0.51924 0.0
H1300 H 0.68842 0.95072 0.6479 0.0
H1301 H 0.63601 0.93002 0.56409 0.0
C1302 C 0.61472 0.91364 0.60523 0.0
C1303 C 0.61198 0.90725 0.64041 0.0
C1304 C 0.68986 0.95071 0.61969 0.0
C1305 C 0.65152 0.93178 0.61301 0.0
C1306 C 0.70932 0.95852 0.60491 0.0
C1307 C 0.71168 0.95808 0.56842 0.0
C1308 C 0.67254 0.94242 0.59795 0.0
C1309 C 0.69405 0.95056 0.54744 0.0
C1310 C 0.63435 0.92582 0.59151 0.0
C1311 C 0.6295 0.91447 0.66161 0.0
N1312 N 0.67518 0.94286 0.56255 0.0
N1313 N 0.64858 0.92619 0.64746 0.0
H1314 H 0.07362 0.71006 0.69075 0.0
H1315 H 0.04206 0.74444 0.51462 0.0
H1316 H 0.08303 0.69292 0.58736 0.0
H1317 H 0.0248 0.75386 0.61791 0.0
H1318 H 0.05439 0.72268 0.54056 0.0
H1319 H 0.05278 0.72345 0.66471 0.0
C1320 C 0.07108 0.70884 0.66274 0.0
C1321 C 0.08037 0.70064 0.64125 0.0
C1322 C 0.04766 0.72934 0.55744 0.0
C1323 C 0.05678 0.71606 0.61122 0.0
C1324 C 0.0406 0.74173 0.54258 0.0
C1325 C 0.03268 0.75127 0.56409 0.0
C1326 C 0.04687 0.72661 0.59401 0.0
C1327 C 0.03107 0.74712 0.60024 0.0
C1328 C 0.05923 0.71651 0.64782 0.0
C1329 C 0.07647 0.69938 0.60503 0.0
N1330 N 0.03833 0.73533 0.61405 0.0
N1331 N 0.06521 0.70722 0.59117 0.0
H1332 H 0.69602 0.74114 0.0158 0.0
H1333 H 0.62965 0.71286 0.19064 0.0
H1334 H 0.72265 0.75425 0.11938 0.0
H1335 H 0.60354 0.6895 0.0887 0.0
H1336 H 0.66405 0.72565 0.16574 0.0
H1337 H 0.66201 0.71978 0.0422 0.0
C1338 C 0.69477 0.73935 0.04397 0.0
C1339 C 0.71219 0.74979 0.06534 0.0
C1340 C 0.65074 0.71747 0.14896 0.0
C1341 C 0.6734 0.72556 0.09577 0.0
C1342 C 0.63111 0.71011 0.16324 0.0
C1343 C 0.6137 0.70043 0.14166 0.0
C1344 C 0.65291 0.71523 0.11287 0.0
C1345 C 0.61652 0.69722 0.10628 0.0
C1346 C 0.67537 0.72717 0.05908 0.0
C1347 C 0.70965 0.74679 0.10178 0.0
N1348 N 0.63573 0.70485 0.09292 0.0
N1349 N 0.69063 0.73519 0.11581 0.0
H1350 H 0.30293 0.90723 0.09071 0.0
H1351 H 0.24415 0.96962 0.12279 0.0
H1352 H 0.28476 0.91712 0.19289 0.0
H1353 H 0.25171 0.94926 0.02096 0.0
H1354 H 0.26533 0.95681 0.14822 0.0
H1355 H 0.29058 0.9287 0.06502 0.0
C1356 C 0.29651 0.91406 0.1079 0.0
C1357 C 0.29456 0.91004 0.14408 0.0
C1358 C 0.26255 0.95532 0.12028 0.0
C1359 C 0.28035 0.93474 0.11449 0.0
C1360 C 0.25045 0.96265 0.10562 0.0
C1361 C 0.2458 0.96017 0.06967 0.0
C1362 C 0.27011 0.94541 0.09893 0.0
C1363 C 0.25473 0.95134 0.0488 0.0
C1364 C 0.28945 0.92634 0.09308 0.0
C1365 C 0.28639 0.91963 0.1649 0.0
N1366 N 0.26627 0.94404 0.06383 0.0
N1367 N 0.27937 0.93138 0.14972 0.0
H1368 H 0.03919 0.29613 0.01589 0.0
H1369 H 0.07269 0.36106 0.1926 0.0
H1370 H 0.02388 0.26883 0.11894 0.0
H1371 H 0.07856 0.3881 0.09043 0.0
H1372 H 0.05176 0.32693 0.16651 0.0
H1373 H 0.05098 0.32992 0.04263 0.0
C1374 C 0.03807 0.29718 0.044 0.0
C1375 C 0.03086 0.27965 0.06516 0.0
C1376 C 0.05741 0.34038 0.14991 0.0
C1377 C 0.04441 0.31817 0.09596 0.0
C1378 C 0.0693 0.35986 0.16487 0.0
C1379 C 0.07771 0.37745 0.14364 0.0
C1380 C 0.05407 0.33852 0.11349 0.0
C1381 C 0.07273 0.37496 0.10779 0.0
C1382 C 0.04481 0.31646 0.0593 0.0
C1383 C 0.02965 0.28193 0.10151 0.0
N1384 N 0.06151 0.35588 0.0938 0.0
N1385 N 0.03658 0.30082 0.11574 0.0
H1386 H 0.70787 0.62802 0.35048 0.0
H1387 H 0.74614 0.69586 0.52454 0.0
H1388 H 0.69671 0.60225 0.45468 0.0
H1389 H 0.74961 0.72102 0.42143 0.0
H1390 H 0.72544 0.66119 0.50009 0.0
H1391 H 0.72091 0.66221 0.3763 0.0
C1392 C 0.70797 0.6295 0.37869 0.0
C1393 C 0.70147 0.61227 0.40036 0.0
C1394 C 0.73057 0.67435 0.48294 0.0
C1395 C 0.71644 0.65126 0.43012 0.0
C1396 C 0.74233 0.69413 0.49695 0.0
C1397 C 0.74991 0.71137 0.47498 0.0
C1398 C 0.72647 0.67187 0.44675 0.0
C1399 C 0.74441 0.7082 0.43936 0.0
C1400 C 0.71541 0.64901 0.39346 0.0
C1401 C 0.70183 0.61511 0.43683 0.0
N1402 N 0.73326 0.68888 0.42633 0.0
N1403 N 0.70939 0.63422 0.45052 0.0
H1404 H 0.29813 0.04357 0.52414 0.0
H1405 H 0.36225 0.07592 0.34621 0.0
H1406 H 0.27045 0.02491 0.42182 0.0
H1407 H 0.39002 0.08659 0.44873 0.0
H1408 H 0.32847 0.05433 0.37324 0.0
H1409 H 0.33205 0.05655 0.49722 0.0
C1410 C 0.29914 0.04192 0.49616 0.0
C1411 C 0.28143 0.03346 0.47521 0.0
C1412 C 0.34202 0.06123 0.38973 0.0
C1413 C 0.32014 0.04845 0.44415 0.0
C1414 C 0.3613 0.07353 0.37427 0.0
C1415 C 0.37897 0.08338 0.39521 0.0
C1416 C 0.34044 0.05888 0.42637 0.0
C1417 C 0.37681 0.07961 0.43149 0.0
C1418 C 0.3185 0.04937 0.48075 0.0
C1419 C 0.28368 0.03163 0.43903 0.0
N1420 N 0.35791 0.0679 0.44591 0.0
N1421 N 0.30266 0.03931 0.42464 0.0
H1422 H 0.91466 0.30501 0.44574 0.0
H1423 H 0.96273 0.23282 0.41329 0.0
H1424 H 0.9106 0.27537 0.34685 0.0
H1425 H 0.95312 0.25085 0.51583 0.0
H1426 H 0.95001 0.2538 0.38683 0.0
H1427 H 0.93531 0.29114 0.46901 0.0
C1428 C 0.91829 0.29575 0.42869 0.0
C1429 C 0.91054 0.29105 0.39437 0.0
C1430 C 0.95081 0.25329 0.41509 0.0
C1431 C 0.93424 0.27499 0.42123 0.0
C1432 C 0.95809 0.24131 0.43036 0.0
C1433 C 0.95873 0.2398 0.46702 0.0
C1434 C 0.94418 0.26398 0.4365 0.0
C1435 C 0.95273 0.25139 0.48754 0.0
C1436 C 0.93009 0.2878 0.44214 0.0
C1437 C 0.91612 0.27926 0.37348 0.0
N1438 N 0.94556 0.26289 0.47197 0.0
N1439 N 0.92746 0.2714 0.38741 0.0
H1440 H 0.93641 0.57537 0.2484 0.0
H1441 H 0.05709 0.63534 0.28529 0.0
H1442 H 0.96298 0.58332 0.35149 0.0
H1443 H 0.03064 0.61461 0.18263 0.0
H1444 H 0.02283 0.62293 0.30908 0.0
H1445 H 0.97074 0.59628 0.22402 0.0
C1446 C 0.94945 0.58171 0.26607 0.0
C1447 C 0.94679 0.57724 0.3021 0.0
C1448 C 0.0245 0.62124 0.28131 0.0
C1449 C 0.98624 0.60126 0.27403 0.0
C1450 C 0.04408 0.62832 0.26758 0.0
C1451 C 0.04676 0.62568 0.23187 0.0
C1452 C 0.00734 0.61144 0.25931 0.0
C1453 C 0.0293 0.6168 0.21031 0.0
C1454 C 0.96906 0.59363 0.252 0.0
C1455 C 0.96428 0.58619 0.32358 0.0
N1456 N 0.01028 0.60979 0.22446 0.0
N1457 N 0.98331 0.59761 0.30914 0.0
H1458 H 0.37821 0.41584 0.18341 0.0
H1459 H 0.40783 0.37794 0.35801 0.0
H1460 H 0.36038 0.42372 0.28725 0.0
H1461 H 0.41891 0.36316 0.2539 0.0
H1462 H 0.38784 0.39238 0.33241 0.0
H1463 H 0.39087 0.39409 0.20831 0.0
C1464 C 0.37676 0.41285 0.2113 0.0
C1465 C 0.36851 0.42189 0.23325 0.0
C1466 C 0.39449 0.38578 0.31523 0.0
C1467 C 0.38301 0.39719 0.26196 0.0
C1468 C 0.40586 0.3775 0.32988 0.0
C1469 C 0.41533 0.36961 0.30812 0.0
C1470 C 0.39269 0.38625 0.2786 0.0
C1471 C 0.41217 0.36935 0.27177 0.0
C1472 C 0.38399 0.40045 0.22554 0.0
C1473 C 0.36691 0.41737 0.26926 0.0
N1474 N 0.40134 0.37776 0.25817 0.0
N1475 N 0.37428 0.40554 0.28247 0.0
H1476 H 0.58568 0.96708 0.17918 0.0
H1477 H 0.61878 0.03243 0.35546 0.0
H1478 H 0.57901 0.94034 0.28185 0.0
H1479 H 0.63552 0.05956 0.25241 0.0
H1480 H 0.60668 -0.00148 0.32905 0.0
H1481 H 0.6067 0.00128 0.20513 0.0
C1482 C 0.58888 0.96835 0.20699 0.0
C1483 C 0.58027 0.95082 0.22837 0.0
C1484 C 0.61325 0.01197 0.31232 0.0
C1485 C 0.60404 0.98979 0.25831 0.0
C1486 C 0.62017 0.03132 0.32744 0.0
C1487 C 0.62787 0.04885 0.30616 0.0
C1488 C 0.61391 0.01018 0.2757 0.0
C1489 C 0.62941 0.04648 0.26992 0.0
C1490 C 0.60083 0.98787 0.22185 0.0
C1491 C 0.58501 0.9534 0.26432 0.0
N1492 N 0.62226 0.02752 0.25585 0.0
N1493 N 0.59631 0.97249 0.27817 0.0
H1494 H 0.36119 0.93591 0.7928 0.0
H1495 H 0.41591 0.056 0.75236 0.0
H1496 H 0.37552 0.96156 0.6885 0.0
H1497 H 0.41384 0.0313 0.85538 0.0
H1498 H 0.39518 0.02128 0.72997 0.0
H1499 H 0.37452 0.97031 0.8166 0.0
C1500 C 0.367 0.94876 0.77476 0.0
C1501 C 0.36751 0.94582 0.73847 0.0
C1502 C 0.39909 0.02342 0.75752 0.0
C1503 C 0.38279 0.98538 0.76593 0.0
C1504 C 0.41094 0.04328 0.77048 0.0
C1505 C 0.41694 0.04663 0.80584 0.0
C1506 C 0.39311 0.00663 0.77996 0.0
C1507 C 0.40971 0.02947 0.82794 0.0
C1508 C 0.37462 0.96842 0.78852 0.0
C1509 C 0.37498 0.96309 0.7166 0.0
N1510 N 0.39832 0.01015 0.81453 0.0
N1511 N 0.38249 0.98217 0.73072 0.0
H1512 H 0.93373 0.35959 0.75482 0.0
H1513 H 0.05462 0.41907 0.79009 0.0
H1514 H 0.96061 0.38037 0.8572 0.0
H1515 H 0.02772 0.41089 0.68723 0.0
H1516 H 0.02034 0.39889 0.81497 0.0
H1517 H 0.9679 0.37226 0.73048 0.0
C1518 C 0.94681 0.36669 0.77236 0.0
C1519 C 0.94425 0.3692 0.80817 0.0
C1520 C 0.02192 0.40135 0.78694 0.0
C1521 C 0.98361 0.38377 0.78008 0.0
C1522 C 0.04152 0.41285 0.77258 0.0
C1523 C 0.04409 0.417 0.73643 0.0
C1524 C 0.00466 0.3938 0.76512 0.0
C1525 C 0.0265 0.40824 0.7152 0.0
C1526 C 0.96635 0.37394 0.7583 0.0
C1527 C 0.96183 0.37825 0.82946 0.0
N1528 N 0.00749 0.3972 0.72993 0.0
N1529 N 0.98081 0.38538 0.81501 0.0
H1530 H 0.58018 0.61344 0.67871 0.0
H1531 H 0.61863 0.5859 0.85409 0.0
H1532 H 0.57844 0.6379 0.78017 0.0
H1533 H 0.63035 0.57069 0.75074 0.0
H1534 H 0.60624 0.60735 0.82719 0.0
H1535 H 0.60133 0.60015 0.7038 0.0
C1536 C 0.58452 0.61632 0.70604 0.0
C1537 C 0.57721 0.62647 0.72744 0.0
C1538 C 0.61175 0.59947 0.81046 0.0
C1539 C 0.6011 0.61112 0.75646 0.0
C1540 C 0.61881 0.58722 0.82584 0.0
C1541 C 0.62525 0.57621 0.80472 0.0
C1542 C 0.611 0.60057 0.77373 0.0
C1543 C 0.62526 0.57863 0.76818 0.0
C1544 C 0.59652 0.60868 0.72043 0.0
C1545 C 0.58339 0.62983 0.76274 0.0
N1546 N 0.61802 0.59033 0.75389 0.0
N1547 N 0.5947 0.62193 0.77621 0.0
H1548 H 0.24563 0.22966 0.37256 0.0
H1549 H 0.23236 0.24522 0.16955 0.0
H1550 H 0.21411 0.26029 0.33303 0.0
H1551 H 0.25315 0.20499 0.20967 0.0
H1552 H 0.2341 0.25844 0.22871 0.0
H1553 H 0.25699 0.22835 0.31312 0.0
C1554 C 0.2418 0.23686 0.35163 0.0
C1555 C 0.22914 0.24535 0.35778 0.0
C1556 C 0.23873 0.24705 0.22445 0.0
C1557 C 0.2414 0.24318 0.28945 0.0
C1558 C 0.238 0.23969 0.19053 0.0
C1559 C 0.24276 0.22408 0.18463 0.0
C1560 C 0.24419 0.23868 0.25262 0.0
C1561 C 0.24928 0.21699 0.21316 0.0
C1562 C 0.24802 0.23582 0.31754 0.0
C1563 C 0.2239 0.25365 0.32932 0.0
N1564 N 0.24963 0.2242 0.24592 0.0
N1565 N 0.22988 0.25219 0.29636 0.0
H1566 H 0.76313 0.0108 0.37178 0.0
H1567 H 0.7472 0.98294 0.16834 0.0
H1568 H 0.73469 0.94896 0.33133 0.0
H1569 H 0.78495 0.04433 0.20873 0.0
H1570 H 0.73508 0.97074 0.22769 0.0
H1571 H 0.76365 0.0235 0.31267 0.0
C1572 C 0.75624 -0.0002 0.35073 0.0
C1573 C 0.74856 0.97874 0.35656 0.0
C1574 C 0.74566 0.98697 0.22348 0.0
C1575 C 0.74984 0.99325 0.28854 0.0
C1576 C 0.75236 0.994 0.18945 0.0
C1577 C 0.76693 0.01474 0.18351 0.0
C1578 C 0.75367 0.00075 0.25176 0.0
C1579 C 0.7737 0.02821 0.21222 0.0
C1580 C 0.75685 0.0071 0.31682 0.0
C1581 C 0.7407 0.96531 0.32791 0.0
N1582 N 0.76716 0.02097 0.2451 0.0
N1583 N 0.74169 0.97279 0.29512 0.0
H1584 H 0.94358 0.74076 0.20607 0.0
H1585 H 0.98046 0.74974 0.37402 0.0
H1586 H 0.00526 0.76041 0.17088 0.0
H1587 H 0.04002 0.787 0.32627 0.0
H1588 H 0.96597 0.73631 0.31669 0.0
H1589 H 0.95446 0.74117 0.26609 0.0
C1590 C 0.9593 0.7445 0.21098 0.0
C1591 C 0.97345 0.75028 0.18336 0.0
C1592 C 0.9822 0.74743 0.31856 0.0
C1593 C 0.98626 0.75086 0.25244 0.0
C1594 C 0.99063 0.75479 0.35165 0.0
C1595 C 0.01156 0.76954 0.35515 0.0
C1596 C 0.9947 0.75519 0.28861 0.0
C1597 C 0.02376 0.77581 0.32481 0.0
C1598 C 0.96555 0.74463 0.24541 0.0
C1599 C 0.9937 0.75531 0.19117 0.0
N1600 N 0.01514 0.76876 0.29287 0.0
N1601 N -0.00043 0.75581 0.22503 0.0
H1602 H 0.78946 0.74067 0.70702 0.0
H1603 H 0.73269 0.78163 0.83052 0.0
H1604 H 0.75023 0.76304 0.66848 0.0
H1605 H 0.76683 0.75346 0.86876 0.0
H1606 H 0.73448 0.77017 0.77131 0.0
H1607 H 0.77707 0.74033 0.76633 0.0
C1608 C 0.77784 0.74503 0.71099 0.0
C1609 C 0.7707 0.75168 0.68275 0.0
C1610 C 0.74113 0.76601 0.79275 0.0
C1611 C 0.75681 0.75187 0.7507 0.0
C1612 C 0.74004 0.7725 0.82654 0.0
C1613 C 0.7493 0.76816 0.85463 0.0
C1614 C 0.752 0.75552 0.78687 0.0
C1615 C 0.75893 0.75658 0.84808 0.0
C1616 C 0.77079 0.74487 0.74485 0.0
C1617 C 0.75579 0.75733 0.6893 0.0
N1618 N 0.76028 0.75091 0.81481 0.0
N1619 N 0.74956 0.75759 0.72267 0.0
H1620 H 0.24674 0.01038 0.87445 0.0
H1621 H 0.23157 0.98334 0.67074 0.0
H1622 H 0.20944 0.94915 0.83313 0.0
H1623 H 0.25922 0.04498 0.71192 0.0
H1624 H 0.23124 0.97051 0.72965 0.0
H1625 H 0.25913 0.0229 0.81531 0.0
C1626 C 0.24174 -0.00058 0.85318 0.0
C1627 C 0.22718 0.97865 0.85876 0.0
C1628 C 0.23783 0.98691 0.7257 0.0
C1629 C 0.24077 0.99298 0.7908 0.0
C1630 C 0.23832 0.99429 0.6919 0.0
C1631 C 0.24569 0.01531 0.68634 0.0
C1632 C 0.24463 0.00063 0.75414 0.0
C1633 C 0.25342 0.02865 0.71514 0.0
C1634 C 0.2486 0.00664 0.81928 0.0
C1635 C 0.22065 0.9653 0.82989 0.0
N1636 N 0.25253 0.02109 0.74782 0.0
N1637 N 0.22734 0.97271 0.79715 0.0
H1638 H 0.94695 0.20646 0.70433 0.0
H1639 H 0.04365 0.25846 0.83061 0.0
H1640 H 0.00938 0.24296 0.66767 0.0
H1641 H 0.9809 0.22703 0.86716 0.0
H1642 H 0.03131 0.25774 0.77108 0.0
H1643 H 0.95868 0.21849 0.76391 0.0
C1644 C 0.96307 0.21747 0.70874 0.0
C1645 C 0.97717 0.22393 0.68097 0.0
C1646 C 0.02023 0.25144 0.7922 0.0
C1647 C 0.99087 0.23732 0.74926 0.0
C1648 C 0.02728 0.25191 0.82619 0.0
C1649 C 0.0133 0.24306 0.85392 0.0
C1650 C -0.00103 0.2416 0.78571 0.0
C1651 C 0.99225 0.23454 0.84679 0.0
C1652 C 0.96978 0.22429 0.74277 0.0
C1653 C -0.0021 0.238 0.68811 0.0
N1654 N 0.98571 0.23375 0.8133 0.0
N1655 N 0.00417 0.24398 0.72163 0.0
H1656 H 0.92027 0.53792 0.53723 0.0
H1657 H 0.88093 0.59662 0.6596 0.0
H1658 H 0.89912 0.57805 0.49813 0.0
H1659 H 0.90681 0.56049 0.69859 0.0
H1660 H 0.89249 0.59447 0.60075 0.0
H1661 H 0.92065 0.55039 0.59645 0.0
C1662 C 0.91618 0.54974 0.54105 0.0
C1663 C 0.90979 0.55706 0.51269 0.0
C1664 C 0.89605 0.58738 0.62227 0.0
C1665 C 0.90966 0.57106 0.58055 0.0
C1666 C 0.88947 0.58862 0.65589 0.0
C1667 C 0.89301 0.57883 0.68413 0.0
C1668 C 0.90592 0.57591 0.61664 0.0
C1669 C 0.90408 0.56862 0.67784 0.0
C1670 C 0.91635 0.55684 0.57488 0.0
C1671 C 0.90454 0.57228 0.51906 0.0
N1672 N 0.90987 0.56717 0.64469 0.0
N1673 N 0.90429 0.57854 0.5524 0.0
H1674 H 0.41561 0.3155 0.50252 0.0
H1675 H 0.42561 0.34319 0.70578 0.0
H1676 H 0.44578 0.37744 0.54281 0.0
H1677 H 0.40661 0.28269 0.6651 0.0
H1678 H 0.42453 0.35488 0.64649 0.0
H1679 H 0.40367 0.30248 0.56155 0.0
C1680 C 0.419 0.32641 0.52352 0.0
C1681 C 0.4314 0.3476 0.51771 0.0
C1682 C 0.42015 0.33892 0.65064 0.0
C1683 C 0.41855 0.33278 0.58561 0.0
C1684 C 0.4205 0.33217 0.68461 0.0
C1685 C 0.41603 0.31189 0.6904 0.0
C1686 C 0.41537 0.3253 0.62233 0.0
C1687 C 0.41022 0.29848 0.66169 0.0
C1688 C 0.41247 0.31895 0.55738 0.0
C1689 C 0.43616 0.36098 0.54627 0.0
N1690 N 0.41022 0.30545 0.62888 0.0
N1691 N 0.42989 0.35335 0.57904 0.0
H1692 H 0.64926 0.0862 0.70463 0.0
H1693 H 0.67587 0.09971 0.5009 0.0
H1694 H 0.71102 0.11889 0.66328 0.0
H1695 H 0.61415 0.07125 0.54229 0.0
H1696 H 0.68885 0.10064 0.5598 0.0
H1697 H 0.63621 0.07448 0.64567 0.0
C1698 C 0.66017 0.09039 0.68341 0.0
C1699 C 0.68131 0.10343 0.68902 0.0
C1700 C 0.67242 0.09382 0.55593 0.0
C1701 C 0.66637 0.09062 0.62107 0.0
C1702 C 0.66495 0.09304 0.52211 0.0
C1703 C 0.64384 0.08522 0.51653 0.0
C1704 C 0.65871 0.0869 0.58441 0.0
C1705 C 0.63056 0.07747 0.54545 0.0
C1706 C 0.65266 0.08389 0.64955 0.0
C1707 C 0.69459 0.10891 0.6601 0.0
N1708 N 0.63821 0.07867 0.57813 0.0
N1709 N 0.6869 0.10264 0.62738 0.0
H1710 H 0.45011 0.07091 0.03613 0.0
H1711 H 0.40257 0.12188 0.15912 0.0
H1712 H 0.42021 0.1033 0.99723 0.0
H1713 H 0.42864 0.08579 0.19735 0.0
H1714 H 0.40384 0.11063 0.09955 0.0
H1715 H 0.43749 0.0715 0.09482 0.0
C1716 C 0.44051 0.07777 0.03984 0.0
C1717 C 0.43611 0.08696 0.01169 0.0
C1718 C 0.40882 0.10475 0.12103 0.0
C1719 C 0.42194 0.08811 0.079 0.0
C1720 C 0.40804 0.11113 0.15504 0.0
C1721 C 0.41526 0.10455 0.18328 0.0
C1722 C 0.41729 0.09202 0.1151 0.0
C1723 C 0.42239 0.09081 0.17658 0.0
C1724 C 0.43331 0.07812 0.07336 0.0
C1725 C 0.42366 0.09569 0.01794 0.0
N1726 N 0.42351 0.08523 0.14312 0.0
N1727 N 0.41726 0.09631 0.05102 0.0
H1728 H 0.89723 0.32093 0.00171 0.0
H1729 H 0.90526 0.34572 0.20622 0.0
H1730 H 0.91528 0.38085 0.0442 0.0
H1731 H 0.87584 0.28442 0.16309 0.0
H1732 H 0.91704 0.35972 0.14759 0.0
H1733 H 0.89752 0.30856 0.06071 0.0
C1734 C 0.90197 0.3317 0.02324 0.0
C1735 C 0.90644 0.35203 0.01797 0.0
C1736 C 0.90836 0.34319 0.15106 0.0
C1737 C 0.90613 0.33776 0.0858 0.0
C1738 C 0.90185 0.33517 0.18466 0.0
C1739 C 0.88968 0.31385 0.1896 0.0
C1740 C 0.9026 0.3298 0.12222 0.0
C1741 C 0.88516 0.30097 0.16037 0.0
C1742 C 0.90185 0.32454 0.05705 0.0
C1743 C 0.91171 0.36505 0.04717 0.0
N1744 N 0.89148 0.30913 0.12792 0.0
N1745 N 0.91125 0.35767 0.07984 0.0
H1746 H 0.61244 0.54337 0.03965 0.0
H1747 H 0.6508 0.57072 0.20707 0.0
H1748 H 0.67542 0.57489 0.00439 0.0
H1749 H 0.70642 0.57758 0.16109 0.0
H1750 H 0.63835 0.57206 0.14874 0.0
H1751 H 0.62424 0.55424 0.09935 0.0
C1752 C 0.62875 0.55326 0.04441 0.0
C1753 C 0.64294 0.55856 0.01698 0.0
C1754 C 0.65329 0.57332 0.1513 0.0
C1755 C 0.65678 0.57103 0.08551 0.0
C1756 C 0.66063 0.57301 0.18483 0.0
C1757 C 0.67971 0.57402 0.18905 0.0
C1758 C 0.66501 0.57437 0.12177 0.0
C1759 C 0.69152 0.57653 0.15901 0.0
C1760 C 0.63554 0.55958 0.07858 0.0
C1761 C 0.66393 0.57099 0.02456 0.0
N1762 N 0.68393 0.57643 0.12671 0.0
N1763 N 0.67022 0.57649 0.05821 0.0
H1764 H 0.55931 0.90554 0.83096 0.0
H1765 H 0.57481 0.8956 0.0351 0.0
H1766 H 0.58606 0.87096 0.87358 0.0
H1767 H 0.54274 0.92507 0.99278 0.0
H1768 H 0.58546 0.89267 0.97603 0.0
H1769 H 0.55953 0.91884 0.8893 0.0
C1770 C 0.56583 0.90122 0.85231 0.0
C1771 C 0.57286 0.88723 0.84725 0.0
C1772 C 0.57643 0.90015 0.97971 0.0
C1773 C 0.57251 0.9019 0.91452 0.0
C1774 C 0.57056 0.90208 0.0136 0.0
C1775 C 0.55799 0.91075 0.01898 0.0
C1776 C 0.56954 0.90679 0.95099 0.0
C1777 C 0.55238 0.91821 0.98977 0.0
C1778 C 0.56571 0.90864 0.88581 0.0
C1779 C 0.58044 0.88167 0.87634 0.0
N1780 N 0.55803 0.9159 0.95704 0.0
N1781 N 0.57992 0.88887 0.90873 0.0
H1782 H 0.09281 0.67341 0.03877 0.0
H1783 H 0.08394 0.64722 0.83482 0.0
H1784 H 0.07645 0.61372 0.99718 0.0
H1785 H 0.11131 0.70875 0.87651 0.0
H1786 H 0.07284 0.63349 0.89377 0.0
H1787 H 0.09134 0.68506 0.97969 0.0
C1788 C 0.08822 0.66252 0.01744 0.0
C1789 C 0.08459 0.64249 0.02297 0.0
C1790 C 0.08089 0.65 0.88992 0.0
C1791 C 0.0835 0.65592 0.95505 0.0
C1792 C 0.087 0.65786 0.85612 0.0
C1793 C 0.09845 0.67918 0.85069 0.0
C1794 C 0.08636 0.66357 0.91846 0.0
C1795 C 0.10257 0.6922 0.87962 0.0
C1796 C 0.08765 0.66928 0.98357 0.0
C1797 C 0.07943 0.62931 0.99401 0.0
N1798 N 0.09669 0.68421 0.91227 0.0
N1799 N 0.0792 0.63629 0.96129 0.0
H1800 H 0.34383 0.4312 0.83366 0.0
H1801 H 0.38059 0.46357 0.00013 0.0
H1802 H 0.2842 0.40831 0.88153 0.0
H1803 H 0.31987 0.41981 0.03706 0.0
H1804 H 0.36975 0.45162 0.94064 0.0
H1805 H 0.35865 0.43353 0.89121 0.0
C1806 C 0.33372 0.42619 0.85612 0.0
C1807 C 0.31267 0.41951 0.85261 0.0
C1808 C 0.35891 0.44396 0.96165 0.0
C1809 C 0.32987 0.42348 0.91924 0.0
C1810 C 0.36512 0.45093 0.99575 0.0
C1811 C 0.35121 0.44251 0.02365 0.0
C1812 C 0.33846 0.42856 0.95525 0.0
C1813 C 0.33127 0.42639 0.01653 0.0
C1814 C 0.34233 0.428 0.88929 0.0
C1815 C 0.30054 0.41375 0.88302 0.0
N1816 N 0.32539 0.42019 0.98294 0.0
N1817 N 0.30933 0.41605 0.91502 0.0
H1818 H 0.08992 0.41315 0.54083 0.0
H1819 H 0.08196 0.43163 0.33713 0.0
H1820 H 0.0716 0.45509 0.49958 0.0
H1821 H 0.10978 0.39777 0.37854 0.0
H1822 H 0.07007 0.43334 0.39587 0.0
H1823 H 0.08913 0.40049 0.48157 0.0
C1824 C 0.08502 0.41919 0.51953 0.0
C1825 C 0.08067 0.4351 0.52518 0.0
C1826 C 0.07841 0.42516 0.392 0.0
C1827 C 0.08039 0.42116 0.45711 0.0
C1828 C 0.08499 0.42395 0.35829 0.0
C1829 C 0.09679 0.41443 0.35283 0.0
C1830 C 0.08377 0.41689 0.42046 0.0
C1831 C 0.1008 0.40534 0.38165 0.0
C1832 C 0.08484 0.41215 0.48557 0.0
C1833 C 0.07512 0.44284 0.4963 0.0
N1834 N 0.09447 0.40696 0.41423 0.0
N1835 N 0.07531 0.43594 0.4635 0.0
H1836 H 0.54135 0.61367 0.4946 0.0
H1837 H 0.59081 0.71363 0.37432 0.0
H1838 H 0.57227 0.67567 0.53482 0.0
H1839 H 0.55994 0.65164 0.33411 0.0
H1840 H 0.58947 0.7001 0.43301 0.0
H1841 H 0.55327 0.62724 0.43583 0.0
C1842 C 0.55103 0.63014 0.49116 0.0
C1843 C 0.55591 0.64354 0.51974 0.0
C1844 C 0.58335 0.68945 0.41127 0.0
C1845 C 0.5693 0.65925 0.45236 0.0
C1846 C 0.58413 0.69718 0.37774 0.0
C1847 C 0.57558 0.68377 0.34918 0.0
C1848 C 0.57362 0.66809 0.41647 0.0
C1849 C 0.56709 0.6626 0.3551 0.0
C1850 C 0.55781 0.63788 0.45758 0.0
C1851 C 0.56846 0.66472 0.5138 0.0
N1852 N 0.56608 0.6554 0.38815 0.0
N1853 N 0.57448 0.67193 0.4807 0.0
H1854 H 0.34344 0.91038 0.34074 0.0
H1855 H 0.31466 0.89501 0.54367 0.0
H1856 H 0.28164 0.87414 0.38047 0.0
H1857 H 0.37652 0.92162 0.50372 0.0
H1858 H 0.30241 0.89529 0.48452 0.0
H1859 H 0.35554 0.92252 0.40006 0.0
C1860 C 0.33228 0.90559 0.36168 0.0
C1861 C 0.31144 0.89143 0.35559 0.0
C1862 C 0.31874 0.90154 0.4888 0.0
C1863 C 0.32532 0.90463 0.42383 0.0
C1864 C 0.32579 0.90168 0.52272 0.0
C1865 C 0.34669 0.90857 0.52867 0.0
C1866 C 0.33268 0.90821 0.46064 0.0
C1867 C 0.36028 0.9162 0.50017 0.0
C1868 C 0.33925 0.91229 0.39571 0.0
C1869 C 0.29783 0.88507 0.3841 0.0
N1870 N 0.35303 0.91565 0.46736 0.0
N1871 N 0.30502 0.89157 0.41701 0.0
H1872 H 0.20185 0.13098 0.95851 0.0
H1873 H 0.23165 0.05667 0.06094 0.0
H1874 H 0.23241 0.146 0.05889 0.0
H1875 H 0.19078 0.03727 0.97215 0.0
H1876 H 0.23507 0.09079 0.05725 0.0
H1877 H 0.20036 0.09781 0.96012 0.0
C1878 C 0.20826 0.12733 0.98094 0.0
C1879 C 0.21727 0.14134 0.00867 0.0
C1880 C 0.22544 0.07914 0.03843 0.0
C1881 C 0.21566 0.1033 0.01049 0.0
C1882 C 0.22352 0.05971 0.04049 0.0
C1883 C 0.21094 0.04426 0.01676 0.0
C1884 C 0.21472 0.08313 0.01237 0.0
C1885 C 0.20082 0.04891 0.99063 0.0
C1886 C 0.20738 0.10834 0.9818 0.0
C1887 C 0.22528 0.13567 0.037 0.0
N1888 N 0.20289 0.06796 0.98917 0.0
N1889 N 0.22432 0.11709 0.03714 0.0
H1890 H 0.93156 0.17153 0.05116 0.0
H1891 H 0.85803 0.06492 0.95482 0.0
H1892 H 0.95207 0.14761 0.96744 0.0
H1893 H 0.84277 0.08275 0.05287 0.0
H1894 H 0.89116 0.09675 0.95509 0.0
H1895 H 0.89735 0.14094 0.0476 0.0
C1896 C 0.92871 0.15987 0.03174 0.0
C1897 C 0.9445 0.16199 0.00949 0.0
C1898 C 0.88057 0.09369 0.97654 0.0
C1899 C 0.9056 0.127 0.00536 0.0
C1900 C 0.86163 0.07551 0.97645 0.0
C1901 C 0.84758 0.07112 0.00394 0.0
C1902 C 0.88549 0.10769 0.00417 0.0
C1903 C 0.85314 0.08545 0.03122 0.0
C1904 C 0.90926 0.14242 0.0298 0.0
C1905 C 0.94015 0.14659 0.98473 0.0
N1906 N 0.87165 0.10312 0.03059 0.0
N1907 N 0.92107 0.12965 0.98339 0.0
H1908 H 0.81997 0.75696 0.04826 0.0
H1909 H 0.92682 0.79071 0.95191 0.0
H1910 H 0.84431 0.80245 0.96626 0.0
H1911 H 0.9088 0.75708 0.04941 0.0
H1912 H 0.89487 0.79186 0.95223 0.0
H1913 H 0.85043 0.75312 0.04391 0.0
C1914 C 0.83168 0.76594 0.02902 0.0
C1915 C 0.82973 0.77998 0.00749 0.0
C1916 C 0.89792 0.78423 0.97353 0.0
C1917 C 0.86458 0.77584 0.00248 0.0
C1918 C 0.91616 0.78355 0.97341 0.0
C1919 C 0.92055 0.77382 0.00076 0.0
C1920 C 0.88387 0.77499 0.00105 0.0
C1921 C 0.90612 0.76482 0.02787 0.0
C1922 C 0.84906 0.76382 0.02664 0.0
C1923 C 0.84521 0.79127 0.98297 0.0
N1924 N 0.8884 0.7656 0.02729 0.0
N1925 N 0.86208 0.78902 0.9812 0.0
H1926 H 0.15205 0.23872 0.48225 0.0
H1927 H 0.04175 0.19466 0.57207 0.0
H1928 H 0.13684 0.20976 0.58403 0.0
H1929 H 0.06082 0.23441 0.48177 0.0
H1930 H 0.07668 0.20007 0.57705 0.0
H1931 H 0.11854 0.23691 0.48087 0.0
C1932 C 0.14171 0.23201 0.50428 0.0
C1933 C 0.14726 0.22433 0.53323 0.0
C1934 C 0.0733 0.20779 0.55634 0.0
C1935 C 0.10897 0.2222 0.53182 0.0
C1936 C 0.05344 0.20481 0.5537 0.0
C1937 C 0.04856 0.21416 0.52657 0.0
C1938 C 0.08823 0.22001 0.53137 0.0
C1939 C 0.06405 0.22684 0.50293 0.0
C1940 C 0.12263 0.23105 0.50355 0.0
C1941 C 0.13325 0.21587 0.56112 0.0
N1942 N 0.08319 0.22928 0.5057 0.0
N1943 N 0.11475 0.21494 0.55963 0.0
H1944 H 0.7562 0.82082 0.48431 0.0
H1945 H 0.79084 0.92739 0.58198 0.0
H1946 H 0.80216 0.84483 0.56557 0.0
H1947 H 0.75663 0.9099 0.48507 0.0
H1948 H 0.79226 0.89562 0.58035 0.0
H1949 H 0.75293 0.85161 0.48869 0.0
C1950 C 0.76545 0.83255 0.50332 0.0
C1951 C 0.77942 0.83038 0.5247 0.0
C1952 C 0.78447 0.89875 0.55943 0.0
C1953 C 0.77586 0.86556 0.52982 0.0
C1954 C 0.78363 0.91689 0.56031 0.0
C1955 C 0.77362 0.92136 0.53356 0.0
C1956 C 0.77509 0.88486 0.53176 0.0
C1957 C 0.76458 0.90715 0.50617 0.0
C1958 C 0.76364 0.85011 0.50574 0.0
C1959 C 0.79103 0.84588 0.54898 0.0
N1960 N 0.76548 0.8895 0.50604 0.0
N1961 N 0.78903 0.8629 0.55085 0.0
H1962 H 0.14908 0.95661 0.57578 0.0
H1963 H 0.08372 0.84669 0.48451 0.0
H1964 H 0.17149 0.93589 0.49006 0.0
H1965 H 0.06683 0.86155 0.58383 0.0
H1966 H 0.11545 0.87995 0.4852 0.0
H1967 H 0.11851 0.92215 0.5793 0.0
C1968 C 0.14769 0.94467 0.55817 0.0
C1969 C 0.16273 0.94893 0.5327 0.0
C1970 C 0.10483 0.8759 0.50691 0.0
C1971 C 0.12781 0.90989 0.53582 0.0
C1972 C 0.08665 0.85694 0.50644 0.0
C1973 C 0.07256 0.85131 0.53413 0.0
C1974 C 0.1089 0.88943 0.5351 0.0
C1975 C 0.07725 0.86523 0.56193 0.0
C1976 C 0.13023 0.9251 0.55997 0.0
C1977 C 0.16011 0.93315 0.50995 0.0
N1978 N 0.09498 0.88368 0.56164 0.0
N1979 N 0.14291 0.91436 0.51188 0.0
H1980 H 0.79023 0.85977 0.08265 0.0
H1981 H 0.7557 0.9325 0.98717 0.0
H1982 H 0.75649 0.84417 0.98529 0.0
H1983 H 0.80078 0.95358 0.06981 0.0
H1984 H 0.7523 0.89838 0.99098 0.0
H1985 H 0.7912 0.89278 0.08255 0.0
C1986 C 0.78303 0.86327 0.06121 0.0
C1987 C 0.77329 0.84916 0.03386 0.0
C1988 C 0.76282 0.91039 0.00849 0.0
C1989 C 0.77425 0.8869 0.03383 0.0
C1990 C 0.76469 0.92979 0.00642 0.0
C1991 C 0.7785 0.94572 0.02827 0.0
C1992 C 0.77486 0.90693 0.03266 0.0
C1993 C 0.78979 0.94156 0.05282 0.0
C1994 C 0.7836 0.88213 0.06122 0.0
C1995 C 0.76424 0.85458 0.00682 0.0
N1996 N 0.78779 0.92253 0.05428 0.0
N1997 N 0.7649 0.87301 0.00754 0.0
H1998 H 0.03936 0.8435 0.07249 0.0
H1999 H 0.15027 0.9083 0.98414 0.0
H2000 H 0.05923 0.82145 0.98505 0.0
H2001 H 0.13501 0.92297 0.08513 0.0
H2002 H 0.11658 0.87688 0.98287 0.0
H2003 H 0.07428 0.87309 0.07739 0.0
C2004 C 0.05121 0.84476 0.05475 0.0
C2005 C 0.04656 0.83013 0.0284 0.0
C2006 C 0.12069 0.88696 0.00536 0.0
C2007 C 0.0862 0.86399 0.0331 0.0
C2008 C 0.13987 0.90493 0.00602 0.0
C2009 C 0.14548 0.91831 0.03474 0.0
C2010 C 0.10697 0.88246 0.03345 0.0
C2011 C 0.13139 0.91312 0.06243 0.0
C2012 C 0.07106 0.86167 0.05733 0.0
C2013 C 0.06227 0.83257 0.00556 0.0
N2014 N 0.11277 0.89567 0.06101 0.0
N2015 N 0.08137 0.84928 0.00824 0.0
H2016 H 0.14626 0.18944 0.074 0.0
H2017 H 0.08084 0.23408 0.98223 0.0
H2018 H 0.16747 0.22984 0.98455 0.0
H2019 H 0.0649 0.20331 0.08244 0.0
H2020 H 0.11227 0.23187 0.98187 0.0
H2021 H 0.11613 0.19404 0.07771 0.0
C2022 C 0.14469 0.19953 0.05554 0.0
C2023 C 0.15927 0.20932 0.029 0.0
C2024 C 0.10191 0.22566 0.00398 0.0
C2025 C 0.12481 0.21427 0.0324 0.0
C2026 C 0.08392 0.22685 0.00413 0.0
C2027 C 0.07018 0.21886 0.03238 0.0
C2028 C 0.10613 0.21628 0.03215 0.0
C2029 C 0.07503 0.2097 0.0601 0.0
C2030 C 0.12747 0.20205 0.05745 0.0
C2031 C 0.15642 0.22192 0.00524 0.0
N2032 N 0.09256 0.2086 0.05922 0.0
N2033 N 0.13946 0.22394 0.00735 0.0
H2034 H 0.95698 0.81698 0.54074 0.0
H2035 H 0.84888 0.76778 0.44636 0.0
H2036 H 0.93756 0.76493 0.47199 0.0
H2037 H 0.85649 0.78684 0.55448 0.0
H2038 H 0.88394 0.77309 0.44652 0.0
H2039 H 0.92263 0.81311 0.53635 0.0
C2040 C 0.94547 0.8048 0.52459 0.0
C2041 C 0.94983 0.79089 0.50743 0.0
C2042 C 0.87786 0.77609 0.47011 0.0
C2043 C 0.91096 0.78684 0.50147 0.0
C2044 C 0.85797 0.77314 0.47007 0.0
C2045 C 0.84985 0.77685 0.50052 0.0
C2046 C 0.88982 0.78334 0.50049 0.0
C2047 C 0.86217 0.78369 0.53057 0.0
C2048 C 0.92598 0.80264 0.52211 0.0
C2049 C 0.93469 0.77585 0.48581 0.0
N2050 N 0.88168 0.78692 0.52972 0.0
N2051 N 0.91581 0.77415 0.48348 0.0
H2052 H 0.23407 0.17269 0.55895 0.0
H2053 H 0.20709 0.06887 0.45835 0.0
H2054 H 0.19348 0.14999 0.46991 0.0
H2055 H 0.23681 0.08511 0.55943 0.0
H2056 H 0.20511 0.10027 0.45886 0.0
H2057 H 0.23861 0.14263 0.55585 0.0
C2058 C 0.22626 0.16139 0.53855 0.0
C2059 C 0.21341 0.16371 0.51461 0.0
C2060 C 0.21206 0.09698 0.48093 0.0
C2061 C 0.21845 0.12936 0.5109 0.0
C2062 C 0.21323 0.07904 0.4807 0.0
C2063 C 0.22211 0.07429 0.50898 0.0
C2064 C 0.21992 0.11041 0.50954 0.0
C2065 C 0.22978 0.08811 0.53714 0.0
C2066 C 0.22881 0.14426 0.53683 0.0
C2067 C 0.20371 0.14881 0.48855 0.0
N2068 N 0.22852 0.10557 0.53669 0.0
N2069 N 0.20638 0.13218 0.48743 0.0
H2070 H 0.91146 0.14826 0.55356 0.0
H2071 H 0.84354 0.03692 0.46806 0.0
H2072 H 0.92771 0.1301 0.45682 0.0
H2073 H 0.82226 0.06007 0.55181 0.0
H2074 H 0.87484 0.07072 0.46367 0.0
H2075 H 0.87928 0.11537 0.55466 0.0
C2076 C 0.90831 0.13734 0.53263 0.0
C2077 C 0.92232 0.14197 0.50506 0.0
C2078 C 0.86323 0.06847 0.48276 0.0
C2079 C 0.88548 0.10432 0.50609 0.0
C2080 C 0.84534 0.04928 0.48502 0.0
C2081 C 0.83039 0.0459 0.51015 0.0
C2082 C 0.86617 0.08421 0.50611 0.0
C2083 C 0.83355 0.06217 0.53213 0.0
C2084 C 0.88988 0.11861 0.53317 0.0
C2085 C 0.91737 0.12723 0.47858 0.0
N2086 N 0.85116 0.0806 0.52978 0.0
N2087 N 0.89938 0.10905 0.47979 0.0
H2088 H 0.89526 0.47661 0.28074 0.0
H2089 H 0.84992 0.3714 0.38325 0.0
H2090 H 0.8791 0.47172 0.39014 0.0
H2091 H 0.89827 0.38835 0.30718 0.0
H2092 H 0.8543 0.40591 0.37866 0.0
H2093 H 0.89093 0.44198 0.28321 0.0
C2094 C 0.89083 0.46824 0.30527 0.0
C2095 C 0.88754 0.47696 0.33534 0.0
C2096 C 0.86391 0.40202 0.36297 0.0
C2097 C 0.88216 0.43745 0.33799 0.0
C2098 C 0.86146 0.38242 0.36557 0.0
C2099 C 0.87413 0.37729 0.3462 0.0
C2100 C 0.87872 0.41636 0.34007 0.0
C2101 C 0.8883 0.39181 0.32268 0.0
C2102 C 0.88842 0.44858 0.30662 0.0
C2103 C 0.8819 0.46556 0.36647 0.0
N2104 N 0.89026 0.41079 0.32026 0.0
N2105 N 0.87915 0.44624 0.36691 0.0
H2106 H 0.52403 0.39907 0.29035 0.0
H2107 H 0.59898 0.50336 0.39179 0.0
H2108 H 0.50938 0.41561 0.39019 0.0
H2109 H 0.61827 0.48133 0.30356 0.0
H2110 H 0.56466 0.47299 0.38784 0.0
H2111 H 0.55741 0.43061 0.29149 0.0
C2112 C 0.52782 0.40931 0.31256 0.0
C2113 C 0.51386 0.40464 0.34028 0.0
C2114 C 0.57633 0.47482 0.36918 0.0
C2115 C 0.55205 0.44087 0.34155 0.0
C2116 C 0.59586 0.49214 0.37139 0.0
C2117 C 0.61134 0.49472 0.34797 0.0
C2118 C 0.57228 0.46 0.34329 0.0
C2119 C 0.60661 0.47992 0.32186 0.0
C2120 C 0.5469 0.42732 0.31315 0.0
C2121 C 0.51966 0.41852 0.36832 0.0
N2122 N 0.58747 0.4631 0.32028 0.0
N2123 N 0.5383 0.43603 0.36819 0.0
H2124 H 0.57466 0.09083 0.38344 0.0
H2125 H 0.51073 0.13746 0.29392 0.0
H2126 H 0.59298 0.12453 0.28603 0.0
H2127 H 0.48717 0.09271 0.37715 0.0
H2128 H 0.54104 0.13311 0.28991 0.0
H2129 H 0.54278 0.09205 0.38196 0.0
C2130 C 0.57201 0.0985 0.36174 0.0
C2131 C 0.58657 0.10764 0.33487 0.0
C2132 C 0.52911 0.12406 0.30876 0.0
C2133 C 0.55004 0.10909 0.333 0.0
C2134 C 0.51181 0.12644 0.31084 0.0
C2135 C 0.49655 0.11539 0.33584 0.0
C2136 C 0.53116 0.11071 0.33215 0.0
C2137 C 0.49873 0.10158 0.35766 0.0
C2138 C 0.55374 0.09911 0.36082 0.0
C2139 C 0.5822 0.11728 0.30732 0.0
N2140 N 0.5158 0.09976 0.35552 0.0
N2141 N 0.56437 0.11785 0.30719 0.0
H2142 H 0.70689 0.52748 0.90641 0.0
H2143 H 0.81671 0.57421 0.81431 0.0
H2144 H 0.7259 0.56998 0.81991 0.0
H2145 H 0.80296 0.54368 0.9147 0.0
H2146 H 0.78322 0.57229 0.81542 0.0
H2147 H 0.74199 0.53311 0.91031 0.0
C2148 C 0.71859 0.53828 0.88871 0.0
C2149 C 0.71366 0.54834 0.86289 0.0
C2150 C 0.78759 0.56612 0.83729 0.0
C2151 C 0.75348 0.55444 0.86645 0.0
C2152 C 0.80668 0.56714 0.8366 0.0
C2153 C 0.81265 0.55904 0.86439 0.0
C2154 C 0.77428 0.55676 0.8658 0.0
C2155 C 0.79903 0.55012 0.89267 0.0
C2156 C 0.73854 0.54139 0.89074 0.0
C2157 C 0.72917 0.56186 0.84006 0.0
N2158 N 0.78043 0.54911 0.89254 0.0
N2159 N 0.74836 0.5644 0.84217 0.0
H2160 H 0.43399 0.2488 0.92426 0.0
H2161 H 0.47825 0.18793 0.82083 0.0
H2162 H 0.45002 0.25994 0.8148 0.0
H2163 H 0.42943 0.1569 0.89623 0.0
H2164 H 0.47492 0.21865 0.82647 0.0
H2165 H 0.43866 0.21868 0.92196 0.0
C2166 C 0.43856 0.24493 0.8998 0.0
C2167 C 0.44159 0.25679 0.86961 0.0
C2168 C 0.465 0.20511 0.84182 0.0
C2169 C 0.44732 0.22283 0.86714 0.0
C2170 C 0.46683 0.18761 0.83858 0.0
C2171 C 0.4537 0.16973 0.85741 0.0
C2172 C 0.45035 0.20491 0.86482 0.0
C2173 C 0.43974 0.17036 0.88109 0.0
C2174 C 0.44114 0.22777 0.89854 0.0
C2175 C 0.44741 0.2511 0.83857 0.0
N2176 N 0.43837 0.18771 0.88412 0.0
N2177 N 0.45028 0.2346 0.8382 0.0
H2178 H 0.73028 0.19292 0.92008 0.0
H2179 H 0.8376 0.26739 0.82608 0.0
H2180 H 0.75002 0.17822 0.82349 0.0
H2181 H 0.81161 0.28842 0.90553 0.0
H2182 H 0.80772 0.23281 0.8309 0.0
H2183 H 0.76193 0.2264 0.92061 0.0
C2184 C 0.74126 0.1967 0.89902 0.0
C2185 C 0.73743 0.18276 0.8716 0.0
C2186 C 0.80859 0.24491 0.84752 0.0
C2187 C 0.7737 0.22094 0.87228 0.0
C2188 C 0.82564 0.26458 0.84485 0.0
C2189 C 0.82695 0.28063 0.86546 0.0
C2190 C 0.79273 0.24127 0.87103 0.0
C2191 C 0.81119 0.27632 0.88948 0.0
C2192 C 0.7593 0.21581 0.89936 0.0
C2193 C 0.75224 0.1885 0.84504 0.0
N2194 N 0.79461 0.25701 0.89152 0.0
N2195 N 0.76971 0.20713 0.84609 0.0
H2196 H 0.42148 0.17771 0.31576 0.0
H2197 H 0.46652 0.28816 0.405 0.0
H2198 H 0.45537 0.19393 0.41299 0.0
H2199 H 0.42123 0.26627 0.32266 0.0
H2200 H 0.46313 0.25394 0.40839 0.0
H2201 H 0.42228 0.21066 0.31676 0.0
C2202 C 0.42913 0.1882 0.33727 0.0
C2203 C 0.43839 0.18304 0.3643 0.0
C2204 C 0.45375 0.25655 0.38986 0.0
C2205 C 0.43933 0.22077 0.36563 0.0
C2206 C 0.45556 0.27599 0.38818 0.0
C2207 C 0.44403 0.27986 0.36369 0.0
C2208 C 0.4405 0.24106 0.36655 0.0
C2209 C 0.4304 0.2638 0.34184 0.0
C2210 C 0.42948 0.20697 0.33793 0.0
C2211 C 0.44801 0.19724 0.3916 0.0
N2212 N 0.42912 0.24513 0.34358 0.0
N2213 N 0.4483 0.21548 0.39149 0.0
H2214 H 0.72072 0.15597 0.40375 0.0
H2215 H 0.80289 0.25941 0.31736 0.0
H2216 H 0.70275 0.1901 0.33566 0.0
H2217 H 0.81012 0.24789 0.42564 0.0
H2218 H 0.76749 0.23048 0.31894 0.0
H2219 H 0.755 0.18676 0.40957 0.0
C2220 C 0.72392 0.17002 0.39046 0.0
C2221 C 0.70915 0.17047 0.36858 0.0
C2222 C 0.77686 0.23437 0.34234 0.0
C2223 C 0.74809 0.20518 0.3743 0.0
C2224 C 0.79704 0.25071 0.34138 0.0
C2225 C 0.80936 0.25599 0.37142 0.0
C2226 C 0.76917 0.22294 0.37325 0.0
C2227 C 0.80102 0.24432 0.40198 0.0
C2228 C 0.74342 0.18747 0.39365 0.0
C2229 C 0.71397 0.189 0.35194 0.0
N2230 N 0.78145 0.22813 0.40205 0.0
N2231 N 0.73319 0.20553 0.35455 0.0
H2232 H 0.74631 0.56378 0.31378 0.0
H2233 H 0.81462 0.521 0.40081 0.0
H2234 H 0.73246 0.53348 0.41439 0.0
H2235 H 0.83363 0.56107 0.31093 0.0
H2236 H 0.78383 0.52442 0.40578 0.0
H2237 H 0.77761 0.56144 0.31098 0.0
C2238 C 0.74981 0.55659 0.33524 0.0
C2239 C 0.73673 0.54884 0.36437 0.0
C2240 C 0.79481 0.53257 0.3851 0.0
C2241 C 0.77256 0.54614 0.36136 0.0
C2242 C 0.81239 0.53072 0.38245 0.0
C2243 C 0.82658 0.54082 0.35551 0.0
C2244 C 0.79141 0.54446 0.3604 0.0
C2245 C 0.8229 0.55292 0.33191 0.0
C2246 C 0.76773 0.55533 0.3337 0.0
C2247 C 0.7421 0.53972 0.39144 0.0
N2248 N 0.80562 0.55434 0.3348 0.0
N2249 N 0.75958 0.53858 0.38925 0.0
H2250 H 0.52329 0.12133 0.88522 0.0
H2251 H 0.60436 0.09796 0.79963 0.0
H2252 H 0.51708 0.10429 0.77615 0.0
H2253 H 0.62276 0.1487 0.87104 0.0
H2254 H 0.57075 0.09595 0.79288 0.0
H2255 H 0.55827 0.12663 0.88468 0.0
C2256 C 0.52929 0.11865 0.86122 0.0
C2257 C 0.51736 0.1124 0.83067 0.0
C2258 C 0.58228 0.10761 0.80975 0.0
C2259 C 0.55709 0.11818 0.83003 0.0
C2260 C 0.6014 0.10882 0.81349 0.0
C2261 C 0.61607 0.12321 0.83654 0.0
C2262 C 0.57787 0.12066 0.82968 0.0
C2263 C 0.61157 0.13697 0.85386 0.0
C2264 C 0.54924 0.1218 0.86087 0.0
C2265 C 0.52588 0.10923 0.80018 0.0
N2266 N 0.59271 0.13511 0.85064 0.0
N2267 N 0.54521 0.11192 0.8007 0.0
H2268 H 0.87014 0.40219 0.88923 0.0
H2269 H 0.8946 0.50584 0.79989 0.0
H2270 H 0.88784 0.41183 0.78038 0.0
H2271 H 0.84161 0.47352 0.86688 0.0
H2272 H 0.89693 0.47433 0.79556 0.0
H2273 H 0.86488 0.43196 0.88683 0.0
C2274 C 0.87301 0.41064 0.86494 0.0
C2275 C 0.87937 0.4046 0.83494 0.0
C2276 C 0.88472 0.47418 0.81094 0.0
C2277 C 0.87367 0.43856 0.83218 0.0
C2278 C 0.88332 0.49204 0.81326 0.0
C2279 C 0.86819 0.49231 0.83442 0.0
C2280 C 0.87112 0.45678 0.83046 0.0
C2281 C 0.85389 0.47405 0.85117 0.0
C2282 C 0.86987 0.42745 0.86351 0.0
C2283 C 0.88279 0.41598 0.804 0.0
N2284 N 0.85596 0.45711 0.84948 0.0
N2285 N 0.88013 0.43261 0.80348 0.0
H2286 H 0.59327 0.46591 0.791 0.0
H2287 H 0.48702 0.39444 0.8903 0.0
H2288 H 0.57633 0.48277 0.88838 0.0
H2289 H 0.50982 0.37261 0.80682 0.0
H2290 H 0.51804 0.4283 0.88594 0.0
H2291 H 0.56133 0.43288 0.7928 0.0
C2292 C 0.58285 0.46268 0.8128 0.0
C2293 C 0.58752 0.47716 0.83964 0.0
C2294 C 0.51623 0.41617 0.86841 0.0
C2295 C 0.55084 0.43936 0.84165 0.0
C2296 C 0.49854 0.39691 0.87083 0.0
C2297 C 0.49595 0.38085 0.84881 0.0
C2298 C 0.53141 0.41938 0.8437 0.0
C2299 C 0.51119 0.38473 0.82394 0.0
C2300 C 0.56461 0.44379 0.81378 0.0
C2301 C 0.57342 0.47207 0.8672 0.0
N2302 N 0.52834 0.40363 0.82209 0.0
N2303 N 0.55568 0.45361 0.86743 0.0
H2304 H 0.55576 0.80776 0.61008 0.0
H2305 H 0.50763 0.69927 0.7036 0.0
H2306 H 0.53706 0.79936 0.71844 0.0
H2307 H 0.56017 0.71963 0.63561 0.0
H2308 H 0.51065 0.73325 0.69855 0.0
H2309 H 0.55047 0.77265 0.60929 0.0
C2310 C 0.55046 0.79848 0.6336 0.0
C2311 C 0.54691 0.8064 0.66444 0.0
C2312 C 0.5214 0.73017 0.68457 0.0
C2313 C 0.54038 0.76641 0.66333 0.0
C2314 C 0.51973 0.7109 0.68745 0.0
C2315 C 0.53408 0.70697 0.67083 0.0
C2316 C 0.53714 0.74537 0.66405 0.0
C2317 C 0.54897 0.72221 0.64912 0.0
C2318 C 0.54751 0.77857 0.63311 0.0
C2319 C 0.54011 0.79384 0.69425 0.0
N2320 N 0.55021 0.74088 0.64643 0.0
N2321 N 0.53688 0.77436 0.69287 0.0
H2322 H 0.26451 0.8374 0.72509 0.0
H2323 H 0.19054 0.73287 0.62332 0.0
H2324 H 0.28548 0.81407 0.64114 0.0
H2325 H 0.175 0.74976 0.72202 0.0
H2326 H 0.22406 0.76435 0.62515 0.0
H2327 H 0.23009 0.8073 0.71966 0.0
C2328 C 0.26173 0.82596 0.70529 0.0
C2329 C 0.2777 0.82812 0.68346 0.0
C2330 C 0.21329 0.76115 0.64638 0.0
C2331 C 0.23853 0.7937 0.67711 0.0
C2332 C 0.19414 0.74319 0.64537 0.0
C2333 C 0.17993 0.73862 0.67264 0.0
C2334 C 0.21822 0.77472 0.6747 0.0
C2335 C 0.18548 0.75258 0.70051 0.0
C2336 C 0.24215 0.8088 0.70224 0.0
C2337 C 0.27343 0.81301 0.65814 0.0
N2338 N 0.20417 0.77001 0.70078 0.0
N2339 N 0.25422 0.79635 0.65569 0.0
H2340 H 0.25737 0.4546 0.62222 0.0
H2341 H 0.15398 0.42732 0.72539 0.0
H2342 H 0.24107 0.42443 0.72294 0.0
H2343 H 0.17582 0.46822 0.63663 0.0
H2344 H 0.18396 0.42276 0.72073 0.0
H2345 H 0.22587 0.45665 0.62325 0.0
C2346 C 0.24717 0.44836 0.64454 0.0
C2347 C 0.25194 0.43938 0.67262 0.0
C2348 C 0.18218 0.43265 0.70211 0.0
C2349 C 0.2158 0.44161 0.67378 0.0
C2350 C 0.16509 0.43523 0.70475 0.0
C2351 C 0.16254 0.44817 0.68137 0.0
C2352 C 0.19685 0.44309 0.67583 0.0
C2353 C 0.1772 0.45795 0.65491 0.0
C2354 C 0.2292 0.44957 0.64508 0.0
C2355 C 0.2381 0.43157 0.70079 0.0
N2356 N 0.19383 0.45527 0.6529 0.0
N2357 N 0.22067 0.43286 0.70062 0.0
H2358 H 0.48431 0.90652 0.15335 0.0
H2359 H 0.37406 0.85801 0.24446 0.0
H2360 H 0.4703 0.87369 0.25155 0.0
H2361 H 0.39386 0.90231 0.16065 0.0
H2362 H 0.40907 0.86327 0.24807 0.0
H2363 H 0.45078 0.90435 0.15513 0.0
C2364 C 0.47419 0.89884 0.17529 0.0
C2365 C 0.48013 0.89023 0.20229 0.0
C2366 C 0.40581 0.87201 0.22917 0.0
C2367 C 0.44166 0.88769 0.20449 0.0
C2368 C 0.38592 0.86911 0.22732 0.0
C2369 C 0.38124 0.87979 0.20228 0.0
C2370 C 0.42092 0.88549 0.20552 0.0
C2371 C 0.39693 0.89372 0.18017 0.0
C2372 C 0.45507 0.89769 0.17638 0.0
C2373 C 0.46637 0.88055 0.23015 0.0
N2374 N 0.41604 0.89606 0.1821 0.0
N2375 N 0.44773 0.87945 0.23044 0.0
H2376 H 0.11964 0.59124 0.1504 0.0
H2377 H 0.09472 0.48668 0.23752 0.0
H2378 H 0.10127 0.58044 0.2589 0.0
H2379 H 0.14765 0.51943 0.17057 0.0
H2380 H 0.09221 0.51808 0.24228 0.0
H2381 H 0.12457 0.56126 0.1518 0.0
C2382 C 0.11653 0.58248 0.17439 0.0
C2383 C 0.11011 0.58828 0.2046 0.0
C2384 C 0.10443 0.51833 0.22679 0.0
C2385 C 0.11545 0.55408 0.20622 0.0
C2386 C 0.10594 0.50054 0.22423 0.0
C2387 C 0.12112 0.50044 0.20299 0.0
C2388 C 0.11798 0.53584 0.20744 0.0
C2389 C 0.13534 0.51877 0.18634 0.0
C2390 C 0.11949 0.56554 0.17525 0.0
C2391 C 0.10637 0.57649 0.23513 0.0
N2392 N 0.13318 0.53565 0.1883 0.0
N2393 N 0.10889 0.55977 0.2351 0.0
H2394 H 0.39926 0.52724 0.14957 0.0
H2395 H 0.50425 0.6083 0.23334 0.0
H2396 H 0.41076 0.5218 0.25861 0.0
H2397 H 0.47138 0.62742 0.16449 0.0
H2398 H 0.47285 0.57456 0.23945 0.0
H2399 H 0.42913 0.5622 0.14919 0.0
C2400 C 0.40813 0.53339 0.17333 0.0
C2401 C 0.40258 0.52173 0.20418 0.0
C2402 C 0.47258 0.58625 0.2232 0.0
C2403 C 0.43668 0.5613 0.20376 0.0
C2404 C 0.49037 0.60545 0.21984 0.0
C2405 C 0.49043 0.6204 0.19777 0.0
C2406 C 0.455 0.58202 0.20383 0.0
C2407 C 0.47209 0.61602 0.18087 0.0
C2408 C 0.42501 0.5533 0.17316 0.0
C2409 C 0.4145 0.5304 0.23436 0.0
N2410 N 0.45517 0.59706 0.18368 0.0
N2411 N 0.43119 0.54964 0.23333 0.0
H2412 H 0.0922 0.60425 0.73434 0.0
H2413 H 0.11418 0.52198 0.64758 0.0
H2414 H 0.14294 0.62214 0.66301 0.0
H2415 H 0.09741 0.51657 0.75673 0.0
H2416 H 0.1189 0.55681 0.64714 0.0
H2417 H 0.08881 0.56998 0.73913 0.0
C2418 C 0.10273 0.60102 0.72002 0.0
C2419 C 0.1176 0.61581 0.69771 0.0
C2420 C 0.11417 0.54792 0.67111 0.0
C2421 C 0.11341 0.57683 0.70221 0.0
C2422 C 0.11134 0.52807 0.67131 0.0
C2423 C 0.10549 0.51651 0.70226 0.0
C2424 C 0.1106 0.55595 0.70181 0.0
C2425 C 0.10209 0.52511 0.73241 0.0
C2426 C 0.10071 0.58151 0.7226 0.0
C2427 C 0.13087 0.61091 0.67967 0.0
N2428 N 0.10452 0.54431 0.73139 0.0
N2429 N 0.12824 0.59169 0.6818 0.0
H2430 H 0.38672 0.48659 0.73571 0.0
H2431 H 0.46911 0.58912 0.64674 0.0
H2432 H 0.3688 0.52112 0.66848 0.0
H2433 H 0.47666 0.5787 0.75544 0.0
H2434 H 0.43383 0.55997 0.64884 0.0
H2435 H 0.42142 0.51694 0.74001 0.0
C2436 C 0.39003 0.50063 0.72227 0.0
C2437 C 0.37513 0.50133 0.7011 0.0
C2438 C 0.44327 0.56411 0.67217 0.0
C2439 C 0.41452 0.53549 0.70506 0.0
C2440 C 0.46339 0.58057 0.67092 0.0
C2441 C 0.47571 0.58627 0.70098 0.0
C2442 C 0.43568 0.55302 0.70341 0.0
C2443 C 0.46754 0.57479 0.73177 0.0
C2444 C 0.40976 0.51781 0.72459 0.0
C2445 C 0.3801 0.51983 0.68423 0.0
N2446 N 0.44802 0.55852 0.73215 0.0
N2447 N 0.39952 0.53609 0.68597 0.0
H2448 H 0.50309 0.89425 0.73497 0.0
H2449 H 0.39888 0.87329 0.65048 0.0
H2450 H 0.4708 0.84498 0.66092 0.0
H2451 H 0.40983 0.88786 0.76044 0.0
H2452 H 0.42881 0.8683 0.64903 0.0
H2453 H 0.47184 0.89688 0.74164 0.0
C2454 C 0.48937 0.88389 0.72042 0.0
C2455 C 0.48956 0.86969 0.69681 0.0
C2456 C 0.42457 0.87255 0.67344 0.0
C2457 C 0.45432 0.87297 0.70355 0.0
C2458 C 0.40765 0.87552 0.67423 0.0
C2459 C 0.40191 0.88091 0.70564 0.0
C2460 C 0.43608 0.87553 0.70403 0.0
C2461 C 0.41371 0.88355 0.73576 0.0
C2462 C 0.47166 0.88545 0.72411 0.0
C2463 C 0.47143 0.85657 0.67858 0.0
N2464 N 0.43043 0.88104 0.73416 0.0
N2465 N 0.45462 0.85876 0.68182 0.0
H2466 H 0.26586 0.42539 0.22384 0.0
H2467 H 0.18779 0.45077 0.12306 0.0
H2468 H 0.28396 0.46809 0.13775 0.0
H2469 H 0.17479 0.42079 0.22391 0.0
H2470 H 0.2215 0.45329 0.12344 0.0
H2471 H 0.23074 0.41941 0.21932 0.0
C2472 C 0.26232 0.43336 0.20378 0.0
C2473 C 0.2777 0.44726 0.18115 0.0
C2474 C 0.21125 0.44612 0.14544 0.0
C2475 C 0.23772 0.44054 0.17578 0.0
C2476 C 0.19197 0.44464 0.14526 0.0
C2477 C 0.17844 0.43562 0.17361 0.0
C2478 C 0.21703 0.43842 0.17403 0.0
C2479 C 0.18474 0.42796 0.2016 0.0
C2480 C 0.24234 0.42997 0.20124 0.0
C2481 C 0.27241 0.45709 0.15543 0.0
N2482 N 0.20359 0.42954 0.2011 0.0
N2483 N 0.25283 0.45361 0.1535 0.0
H2484 H 0.54459 0.73939 0.22275 0.0
H2485 H 0.56603 0.84226 0.13296 0.0
H2486 H 0.56143 0.74902 0.11349 0.0
H2487 H 0.515 0.80953 0.20373 0.0
H2488 H 0.56924 0.81124 0.12809 0.0
H2489 H 0.53928 0.76907 0.22099 0.0
C2490 C 0.54733 0.74787 0.1985 0.0
C2491 C 0.55341 0.74179 0.16821 0.0
C2492 C 0.55726 0.8109 0.14441 0.0
C2493 C 0.54755 0.77565 0.16614 0.0
C2494 C 0.55536 0.82847 0.14705 0.0
C2495 C 0.54053 0.82848 0.16939 0.0
C2496 C 0.54446 0.79355 0.16475 0.0
C2497 C 0.52703 0.81027 0.18705 0.0
C2498 C 0.54414 0.76463 0.19745 0.0
C2499 C 0.55662 0.7532 0.13736 0.0
N2500 N 0.52957 0.79363 0.18493 0.0
N2501 N 0.55383 0.76977 0.13715 0.0
H2502 H 0.24395 0.81548 0.22577 0.0
H2503 H 0.17944 0.70473 0.1369 0.0
H2504 H 0.26142 0.79958 0.12799 0.0
H2505 H 0.1561 0.72596 0.22043 0.0
H2506 H 0.20995 0.73917 0.13331 0.0
H2507 H 0.21222 0.78216 0.22545 0.0
C2508 C 0.24115 0.80499 0.20428 0.0
C2509 C 0.25539 0.81035 0.17689 0.0
C2510 C 0.19805 0.73635 0.15218 0.0
C2511 C 0.21909 0.7722 0.17633 0.0
C2512 C 0.18062 0.71678 0.154 0.0
C2513 C 0.16534 0.71266 0.1789 0.0
C2514 C 0.20021 0.75172 0.17572 0.0
C2515 C 0.16768 0.7286 0.20101 0.0
C2516 C 0.22298 0.786 0.20401 0.0
C2517 C 0.25089 0.79613 0.14965 0.0
N2518 N 0.18487 0.7474 0.1991 0.0
N2519 N 0.23317 0.77768 0.15013 0.0
H2520 H 0.23074 0.20036 0.68401 0.0
H2521 H 0.19781 0.22898 0.86002 0.0
H2522 H 0.18183 0.21487 0.68546 0.0
H2523 H 0.21113 0.17929 0.8564 0.0
H2524 H 0.19603 0.2284 0.79581 0.0
H2525 H 0.2282 0.19673 0.74799 0.0
C2526 C 0.21944 0.20267 0.69781 0.0
C2527 C 0.20647 0.20789 0.67966 0.0
C2528 C 0.19914 0.21753 0.80925 0.0
C2529 C 0.20381 0.20422 0.75216 0.0
C2530 C 0.20022 0.2179 0.84569 0.0
C2531 C 0.2046 0.20416 0.86331 0.0
C2532 C 0.20306 0.20375 0.79058 0.0
C2533 C 0.20759 0.19005 0.8437 0.0
C2534 C 0.21794 0.20053 0.73411 0.0
C2535 C 0.19202 0.2107 0.69859 0.0
N2536 N 0.20708 0.19041 0.80823 0.0
N2537 N 0.19127 0.20913 0.73399 0.0
H2538 H 0.81128 0.00261 0.85798 0.0
H2539 H 0.75621 0.0046 0.68178 0.0
H2540 H 0.74878 0.99084 0.85395 0.0
H2541 H 0.80393 0.98837 0.68241 0.0
H2542 H 0.75691 0.00538 0.74562 0.0
H2543 H 0.81188 0.00204 0.79379 0.0
C2544 C 0.79766 -0.00024 0.84359 0.0
C2545 C 0.77995 -0.00324 0.86119 0.0
C2546 C 0.76726 0.00171 0.73174 0.0
C2547 C 0.78071 0.99654 0.78829 0.0
C2548 C 0.76701 0.00144 0.69534 0.0
C2549 C 0.77998 0.99633 0.67685 0.0
C2550 C 0.78077 -0.00289 0.74974 0.0
C2551 C 0.7936 0.99226 0.69576 0.0
C2552 C 0.79803 -0.00055 0.80709 0.0
C2553 C 0.76271 0.99312 0.84141 0.0
N2554 N 0.79367 0.99277 0.73131 0.0
N2555 N 0.7636 0.99332 0.80596 0.0
H2556 H 0.00452 0.81501 0.6812 0.0
H2557 H 0.00803 0.75979 0.85667 0.0
H2558 H 0.99512 0.75335 0.68462 0.0
H2559 H 0.98987 0.80611 0.85664 0.0
H2560 H 0.00985 0.76149 0.7929 0.0
H2561 H 0.00451 0.81557 0.74545 0.0
C2562 C 0.00235 0.80159 0.69546 0.0
C2563 C -0.00023 0.78409 0.67769 0.0
C2564 C 0.00556 0.77134 0.80691 0.0
C2565 C 0.00018 0.78482 0.75058 0.0
C2566 C 0.00467 0.77051 0.84327 0.0
C2567 C -0.00136 0.78273 0.86187 0.0
C2568 C 0.00062 0.78466 0.7891 0.0
C2569 C 0.99442 0.79631 0.84318 0.0
C2570 C 0.00236 0.80193 0.73198 0.0
C2571 C -0.00297 0.7671 0.6973 0.0
N2572 N -0.00453 0.79692 0.80768 0.0
N2573 N -0.00252 0.76796 0.73272 0.0
H2574 H 0.74692 0.75304 0.35295 0.0
H2575 H 0.80492 0.81208 0.17965 0.0
H2576 H 0.80971 0.80324 0.35487 0.0
H2577 H 0.7557 0.74882 0.18054 0.0
H2578 H 0.80523 0.81172 0.24381 0.0
H2579 H 0.74761 0.75442 0.2891 0.0
C2580 C 0.76077 0.76451 0.33994 0.0
C2581 C 0.77832 0.778 0.35914 0.0
C2582 C 0.79449 0.79791 0.22984 0.0
C2583 C 0.77922 0.77957 0.28629 0.0
C2584 C 0.79431 0.79809 0.19334 0.0
C2585 C 0.78025 0.78045 0.17486 0.0
C2586 C 0.78026 0.7801 0.24777 0.0
C2587 C 0.76684 0.76273 0.19378 0.0
C2588 C 0.76121 0.76516 0.30354 0.0
C2589 C 0.7959 0.79249 0.34096 0.0
N2590 N 0.76704 0.76307 0.22925 0.0
N2591 N 0.79591 0.79293 0.30543 0.0
H2592 H 0.21416 0.0296 0.35888 0.0
H2593 H 0.18148 0.96141 0.18747 0.0
H2594 H 0.20102 0.96664 0.36106 0.0
H2595 H 0.23001 0.02493 0.18592 0.0
H2596 H 0.18024 0.96304 0.25141 0.0
H2597 H 0.21162 0.02781 0.29493 0.0
C2598 C 0.21046 0.01531 0.34591 0.0
C2599 C 0.20786 -0.00177 0.36508 0.0
C2600 C 0.19102 0.97661 0.23693 0.0
C2601 C 0.20473 0.99612 0.29251 0.0
C2602 C 0.19168 0.97577 0.20059 0.0
C2603 C 0.20594 0.99307 0.18161 0.0
C2604 C 0.20435 0.99502 0.25413 0.0
C2605 C 0.21891 0.01125 0.19976 0.0
C2606 C 0.20915 0.01439 0.30956 0.0
C2607 C 0.20325 0.98015 0.34708 0.0
N2608 N 0.21775 0.0118 0.23518 0.0
N2609 N 0.20173 0.97952 0.31163 0.0
H2610 H 0.98763 0.23541 0.18271 0.0
H2611 H 0.9899 0.17766 0.35536 0.0
H2612 H 0.00303 0.18712 0.17952 0.0
H2613 H 0.00268 0.24053 0.35445 0.0
H2614 H 0.99004 0.17786 0.29112 0.0
H2615 H 0.9873 0.2339 0.24652 0.0
C2616 C 0.99071 0.22432 0.19543 0.0
C2617 C -0.00454 0.21143 0.17587 0.0
C2618 C 0.99296 0.19161 0.30512 0.0
C2619 C 0.99518 0.2097 0.24872 0.0
C2620 C 0.99289 0.19152 0.34165 0.0
C2621 C -0.00371 0.2091 0.36014 0.0
C2622 C -0.00397 0.20926 0.28722 0.0
C2623 C 9e-05 0.22667 0.34121 0.0
C2624 C 0.99069 0.2236 0.23181 0.0
C2625 C -0.00059 0.19741 0.19371 0.0
N2626 N -0.00035 0.22623 0.30574 0.0
N2627 N -0.00084 0.19688 0.22926 0.0
H2628 H 0.90138 0.54063 0.01049 0.0
H2629 H 0.86393 0.56213 0.18768 0.0
H2630 H 0.8474 0.54717 0.01265 0.0
H2631 H 0.88288 0.51652 0.18216 0.0
H2632 H 0.86166 0.56163 0.12347 0.0
H2633 H 0.89907 0.53633 0.07434 0.0
C2634 C 0.88901 0.54104 0.02444 0.0
C2635 C 0.87455 0.54422 0.00654 0.0
C2636 C 0.8661 0.55161 0.13652 0.0
C2637 C 0.87213 0.53983 0.07892 0.0
C2638 C 0.86748 0.55196 0.17294 0.0
C2639 C 0.87359 0.53936 0.19 0.0
C2640 C 0.87148 0.53905 0.11732 0.0
C2641 C 0.878 0.52639 0.16988 0.0
C2642 C 0.88766 0.53852 0.06065 0.0
C2643 C 0.85876 0.54461 0.02562 0.0
N2644 N 0.87718 0.5268 0.13446 0.0
N2645 N 0.85814 0.54278 0.061 0.0
H2646 H 0.47609 0.33677 0.19322 0.0
H2647 H 0.41881 0.33679 0.01841 0.0
H2648 H 0.41337 0.32447 0.19102 0.0
H2649 H 0.46783 0.32238 0.01816 0.0
H2650 H 0.41986 0.33771 0.08227 0.0
H2651 H 0.47604 0.33583 0.12908 0.0
C2652 C 0.46229 0.33372 0.17924 0.0
C2653 C 0.44471 0.33071 0.19734 0.0
C2654 C 0.43041 0.33439 0.06819 0.0
C2655 C 0.44471 0.33002 0.12445 0.0
C2656 C 0.42995 0.33404 0.03179 0.0
C2657 C 0.44321 0.32942 0.01306 0.0
C2658 C 0.4444 0.33037 0.08592 0.0
C2659 C 0.45727 0.32589 0.03171 0.0
C2660 C 0.46228 0.3332 0.14276 0.0
C2661 C 0.42722 0.32679 0.17807 0.0
N2662 N 0.45753 0.32646 0.06723 0.0
N2663 N 0.42773 0.32677 0.14261 0.0
H2664 H 0.65421 0.08211 0.01712 0.0
H2665 H 0.65571 0.14093 0.19088 0.0
H2666 H 0.66837 0.14542 0.01453 0.0
H2667 H 0.66907 0.09122 0.18829 0.0
H2668 H 0.65574 0.14128 0.12662 0.0
H2669 H 0.65377 0.08305 0.08084 0.0
C2670 C 0.657 0.09615 0.02995 0.0
C2671 C 0.66145 0.11376 0.01056 0.0
C2672 C 0.6588 0.13044 0.14027 0.0
C2673 C 0.66106 0.11493 0.08342 0.0
C2674 C 0.65881 0.13023 0.17681 0.0
C2675 C 0.66238 0.11601 0.19485 0.0
C2676 C 0.662 0.11607 0.12192 0.0
C2677 C 0.66631 0.10248 0.17545 0.0
C2678 C 0.65692 0.09672 0.06631 0.0
C2679 C 0.665 0.13155 0.02859 0.0
N2680 N 0.66581 0.10271 0.14002 0.0
N2681 N 0.66473 0.1317 0.06415 0.0
H2682 H 0.41538 0.08544 0.68115 0.0
H2683 H 0.47165 0.14697 0.50895 0.0
H2684 H 0.47682 0.13803 0.68436 0.0
H2685 H 0.42502 0.08267 0.50904 0.0
H2686 H 0.47229 0.14621 0.57309 0.0
H2687 H 0.41652 0.08689 0.61741 0.0
C2688 C 0.42905 0.09742 0.66845 0.0
C2689 C 0.44606 0.11162 0.68801 0.0
C2690 C 0.46208 0.13227 0.55894 0.0
C2691 C 0.44746 0.11327 0.61516 0.0
C2692 C 0.4617 0.13268 0.52245 0.0
C2693 C 0.44821 0.11487 0.50375 0.0
C2694 C 0.44862 0.11404 0.57664 0.0
C2695 C 0.43568 0.09674 0.52243 0.0
C2696 C 0.42974 0.09812 0.63208 0.0
C2697 C 0.46341 0.12675 0.67017 0.0
N2698 N 0.43602 0.09685 0.5579 0.0
N2699 N 0.46366 0.12723 0.63461 0.0
H2700 H 0.85237 0.33613 0.69116 0.0
H2701 H 0.91062 0.32971 0.52243 0.0
H2702 H 0.8996 0.31924 0.69475 0.0
H2703 H 0.84946 0.32152 0.51651 0.0
H2704 H 0.90878 0.33024 0.58611 0.0
H2705 H 0.85238 0.33411 0.62715 0.0
C2706 C 0.86259 0.33182 0.67849 0.0
C2707 C 0.87607 0.32792 0.69818 0.0
C2708 C 0.89576 0.32833 0.57086 0.0
C2709 C 0.87638 0.32595 0.62541 0.0
C2710 C 0.89687 0.3282 0.53453 0.0
C2711 C 0.88014 0.32554 0.51424 0.0
C2712 C 0.87793 0.32603 0.58697 0.0
C2713 C 0.86266 0.32353 0.53128 0.0
C2714 C 0.86258 0.33068 0.64207 0.0
C2715 C 0.88894 0.32234 0.68057 0.0
N2716 N 0.86201 0.32389 0.56679 0.0
N2717 N 0.88895 0.32174 0.64511 0.0
H2718 H 0.65648 0.56919 0.51636 0.0
H2719 H 0.65615 0.51287 0.69245 0.0
H2720 H 0.67168 0.52075 0.51703 0.0
H2721 H 0.66902 0.57574 0.68874 0.0
H2722 H 0.65736 0.51259 0.62827 0.0
H2723 H 0.65548 0.56837 0.58018 0.0
C2724 C 0.6594 0.55823 0.52993 0.0
C2725 C 0.66425 0.54506 0.51145 0.0
C2726 C 0.66005 0.52645 0.64165 0.0
C2727 C 0.66319 0.54411 0.58435 0.0
C2728 C 0.65937 0.52663 0.67814 0.0
C2729 C 0.66248 0.54435 0.69584 0.0
C2730 C 0.66345 0.54397 0.62293 0.0
C2731 C 0.66662 0.56178 0.67615 0.0
C2732 C 0.659 0.5579 0.56633 0.0
C2733 C 0.66799 0.53123 0.53038 0.0
N2734 N 0.66677 0.56108 0.6407 0.0
N2735 N 0.66734 0.53107 0.56593 0.0
H2736 H 0.58064 0.90777 0.3486 0.0
H2737 H 0.52092 0.84786 0.52027 0.0
H2738 H 0.51741 0.85852 0.34485 0.0
H2739 H 0.5716 0.91042 0.52049 0.0
H2740 H 0.52084 0.84867 0.45606 0.0
H2741 H 0.57958 0.9055 0.41225 0.0
C2742 C 0.56659 0.89633 0.36115 0.0
C2743 C 0.54904 0.88337 0.34148 0.0
C2744 C 0.53184 0.86222 0.47031 0.0
C2745 C 0.54773 0.8808 0.41424 0.0
C2746 C 0.5319 0.86179 0.50683 0.0
C2747 C 0.54631 0.8791 0.52563 0.0
C2748 C 0.54652 0.87995 0.45273 0.0
C2749 C 0.56019 0.89675 0.50704 0.0
C2750 C 0.56596 0.89517 0.39748 0.0
C2751 C 0.53124 0.86887 0.35914 0.0
N2752 N 0.56007 0.89665 0.47158 0.0
N2753 N 0.53102 0.86795 0.39466 0.0
H2754 H 0.14382 0.67057 0.52586 0.0
H2755 H 0.09237 0.67521 0.34662 0.0
H2756 H 0.08317 0.66357 0.51881 0.0
H2757 H 0.13736 0.65535 0.35073 0.0
H2758 H 0.09311 0.67733 0.41037 0.0
H2759 H 0.14531 0.6702 0.46171 0.0
C2760 C 0.13081 0.66886 0.51082 0.0
C2761 C 0.11333 0.66706 0.52755 0.0
C2762 C 0.10287 0.67259 0.39726 0.0
C2763 C 0.11513 0.66705 0.45474 0.0
C2764 C 0.10259 0.67154 0.36091 0.0
C2765 C 0.11472 0.66495 0.34347 0.0
C2766 C 0.11555 0.66727 0.41622 0.0
C2767 C 0.12765 0.66034 0.36329 0.0
C2768 C 0.13169 0.66866 0.47436 0.0
C2769 C 0.09689 0.66488 0.50696 0.0
N2770 N 0.12773 0.66156 0.39875 0.0
N2771 N 0.09826 0.6651 0.47159 0.0
H2772 H 0.33555 0.48147 0.35136 0.0
H2773 H 0.33376 0.42169 0.52381 0.0
H2774 H 0.32228 0.41844 0.35147 0.0
H2775 H 0.31993 0.47108 0.5265 0.0
H2776 H 0.3347 0.42343 0.4601 0.0
H2777 H 0.33388 0.48056 0.4155 0.0
C2778 C 0.33214 0.46742 0.36487 0.0
C2779 C 0.3291 0.45001 0.34619 0.0
C2780 C 0.33148 0.4339 0.47465 0.0
C2781 C 0.32756 0.44903 0.41905 0.0
C2782 C 0.33112 0.43304 0.511 0.0
C2783 C 0.32671 0.44624 0.53041 0.0
C2784 C 0.32769 0.44822 0.45758 0.0
C2785 C 0.3233 0.46058 0.51243 0.0
C2786 C 0.33119 0.46692 0.40135 0.0
C2787 C 0.32467 0.43218 0.36485 0.0
N2788 N 0.32391 0.46124 0.47688 0.0
N2789 N 0.32425 0.43222 0.40032 0.0
H2790 H 0.12614 0.42955 0.85014 0.0
H2791 H 0.08946 0.45269 0.02631 0.0
H2792 H 0.1092 0.47668 0.85459 0.0
H2793 H 0.14318 0.44568 0.02514 0.0
H2794 H 0.09194 0.45674 0.9624 0.0
H2795 H 0.12831 0.43025 0.91439 0.0
C2796 C 0.12302 0.4401 0.86466 0.0
C2797 C 0.11751 0.45308 0.8473 0.0
C2798 C 0.10325 0.4545 0.97633 0.0
C2799 C 0.11948 0.4536 0.91997 0.0
C2800 C 0.10181 0.45213 0.01257 0.0
C2801 C 0.11616 0.4489 0.03074 0.0
C2802 C 0.11874 0.45297 0.95834 0.0
C2803 C 0.13192 0.44829 0.01193 0.0
C2804 C 0.12433 0.44055 0.90109 0.0
C2805 C 0.11362 0.46652 0.86712 0.0
N2806 N 0.13261 0.44997 0.97653 0.0
N2807 N 0.11434 0.4662 0.90256 0.0
H2808 H 0.51454 0.63008 0.84895 0.0
H2809 H 0.54818 0.69787 0.01985 0.0
H2810 H 0.56643 0.69189 0.84688 0.0
H2811 H 0.53797 0.63594 0.02215 0.0
H2812 H 0.54534 0.69582 0.95579 0.0
H2813 H 0.5135 0.63217 0.91296 0.0
C2814 C 0.52549 0.64418 0.86198 0.0
C2815 C 0.54065 0.66085 0.8429 0.0
C2816 C 0.54354 0.68267 0.97051 0.0
C2817 C 0.53925 0.66335 0.91529 0.0
C2818 C 0.54502 0.68375 0.00686 0.0
C2819 C 0.54335 0.66704 0.02601 0.0
C2820 C 0.53978 0.66458 0.95358 0.0
C2821 C 0.53945 0.64915 0.00811 0.0
C2822 C 0.52493 0.64528 0.8983 0.0
C2823 C 0.55461 0.67871 0.86086 0.0
N2824 N 0.53766 0.64832 0.97271 0.0
N2825 N 0.55351 0.67957 0.89624 0.0
H2826 H 0.32219 0.9026 0.85603 0.0
H2827 H 0.32373 0.84594 0.03059 0.0
H2828 H 0.33631 0.8534 0.85468 0.0
H2829 H 0.33739 0.90908 0.02781 0.0
H2830 H 0.3238 0.84556 0.96638 0.0
H2831 H 0.32204 0.90176 0.91987 0.0
C2832 C 0.32502 0.89145 0.86916 0.0
C2833 C 0.32936 0.87809 0.85011 0.0
C2834 C 0.32692 0.8595 0.97996 0.0
C2835 C 0.32929 0.87715 0.923 0.0
C2836 C 0.3269 0.85975 0.01647 0.0
C2837 C 0.33055 0.87757 0.03444 0.0
C2838 C 0.33022 0.87707 0.96152 0.0
C2839 C 0.33459 0.89505 0.01499 0.0
C2840 C 0.32511 0.89112 0.90556 0.0
C2841 C 0.33301 0.86403 0.86848 0.0
N2842 N 0.3341 0.89429 0.97953 0.0
N2843 N 0.33288 0.86389 0.90403 0.0
loop_
_geom_bond_atom_site_label_1
_geom_bond_atom_site_label_2
_geom_bond_distance
_geom_bond_site_symmetry_2
_ccdc_geom_bond_type
Co0 O3 1.970 . S
Co0 N17 1.989 . S
Co0 O25 1.967 . S
Co0 O32 1.920 . S
Co1 O4 1.966 . S
Co1 N10 2.022 . S
Co1 N18 1.993 . S
Co1 O26 1.941 . S
C2 O3 1.258 . S
C2 O4 1.263 1_556 S
O3 Co0 1.970 . S
O3 C2 1.258 . S
O4 Co1 1.966 . S
O4 C2 1.263 1_554 S
C5 O6 1.235 . S
C5 O32 1.289 . S
O6 C5 1.235 . S
C7 C9 1.400 . S
C7 N10 1.351 . S
C7 C12 1.501 . S
C8 C9 1.387 . S
C8 N11 1.341 . S
C9 C7 1.400 . S
C9 C8 1.387 . S
N10 Co1 2.022 . S
N10 C7 1.351 . S
N10 N11 1.365 . S
N11 C8 1.341 . S
N11 N10 1.365 . S
N11 H31 0.862 . S
C12 C7 1.501 . S
C12 H13 0.961 . S
C12 H14 0.961 . S
C12 H15 0.960 . S
H13 C12 0.961 . S
H14 C12 0.961 . S
H15 C12 0.960 . S
C16 N17 1.342 . S
C16 C20 1.401 1_556 S
C16 C21 1.499 . S
N17 Co0 1.989 . S
N17 C16 1.342 . S
N17 N18 1.388 1_556 S
N18 Co1 1.993 . S
N18 N17 1.388 1_554 S
N18 C19 1.346 . S
C19 N18 1.346 . S
C19 C20 1.396 . S
C19 C29 1.510 . S
C20 C16 1.401 1_554 S
C20 C19 1.396 . S
C21 C16 1.499 . S
C21 H22 0.959 . S
C21 H23 0.960 . S
C21 H24 0.961 . S
H22 C21 0.959 . S
H23 C21 0.960 . S
H24 C21 0.961 . S
O25 Co0 1.967 . S
O25 C33 1.258 1_556 S
O26 Co1 1.941 . S
O26 C33 1.266 . S
H27 C29 0.959 . S
H28 C29 0.961 . S
C29 C19 1.510 . S
C29 H27 0.959 . S
C29 H28 0.961 . S
C29 H30 0.960 . S
H30 C29 0.960 . S
H31 N11 0.862 . S
O32 Co0 1.920 . S
O32 C5 1.289 . S
C33 O25 1.258 1_554 S
C33 O26 1.266 . S
Co34 O37 1.970 . S
Co34 N51 1.989 1_545 S
Co34 O59 1.967 . S
Co34 O66 1.920 . S
Co35 O38 1.966 . S
Co35 N44 2.022 . S
Co35 N52 1.993 1_545 S
Co35 O60 1.941 . S
C36 O37 1.258 . S
C36 O38 1.263 1_556 S
O37 Co34 1.970 . S
O37 C36 1.258 . S
O38 Co35 1.966 . S
O38 C36 1.263 1_554 S
C39 O40 1.235 1_545 S
C39 O66 1.289 . S
O40 C39 1.235 1_565 S
C41 C43 1.400 . S
C41 N44 1.351 . S
C41 C46 1.501 . S
C42 C43 1.387 . S
C42 N45 1.341 . S
C43 C41 1.400 . S
C43 C42 1.387 . S
N44 Co35 2.022 . S
N44 C41 1.351 . S
N44 N45 1.365 . S
N45 C42 1.341 . S
N45 N44 1.365 . S
N45 H65 0.862 . S
C46 C41 1.501 . S
C46 H47 0.961 . S
C46 H48 0.961 . S
C46 H49 0.960 . S
H47 C46 0.961 . S
H48 C46 0.961 . S
H49 C46 0.960 . S
C50 N51 1.342 . S
C50 C54 1.401 1_556 S
C50 C55 1.499 . S
N51 Co34 1.989 1_565 S
N51 C50 1.342 . S
N51 N52 1.388 1_556 S
N52 Co35 1.993 1_565 S
N52 N51 1.388 1_554 S
N52 C53 1.346 . S
C53 N52 1.346 . S
C53 C54 1.396 . S
C53 C63 1.510 . S
C54 C50 1.401 1_554 S
C54 C53 1.396 . S
C55 C50 1.499 . S
C55 H56 0.959 . S
C55 H57 0.960 . S
C55 H58 0.961 . S
H56 C55 0.959 . S
H57 C55 0.960 . S
H58 C55 0.961 . S
O59 Co34 1.967 . S
O59 C67 1.258 1_556 S
O60 Co35 1.941 . S
O60 C67 1.266 . S
H61 C63 0.959 . S
H62 C63 0.961 . S
C63 C53 1.510 . S
C63 H61 0.959 . S
C63 H62 0.961 . S
C63 H64 0.960 . S
H64 C63 0.960 . S
H65 N45 0.862 . S
O66 Co34 1.920 . S
O66 C39 1.289 . S
C67 O59 1.258 1_554 S
C67 O60 1.266 . S
Co68 O71 1.970 . S
Co68 N85 1.989 1_655 S
Co68 O93 1.967 . S
Co68 O100 1.920 . S
Co69 O72 1.966 . S
Co69 N78 2.022 . S
Co69 N86 1.993 1_655 S
Co69 O94 1.941 . S
C70 O71 1.258 . S
C70 O72 1.263 1_556 S
O71 Co68 1.970 . S
O71 C70 1.258 . S
O72 Co69 1.966 . S
O72 C70 1.263 1_554 S
C73 O74 1.235 1_655 S
C73 O100 1.289 . S
O74 C73 1.235 1_455 S
C75 C77 1.400 . S
C75 N78 1.351 . S
C75 C80 1.501 . S
C76 C77 1.387 . S
C76 N79 1.341 . S
C77 C75 1.400 . S
C77 C76 1.387 . S
N78 Co69 2.022 . S
N78 C75 1.351 . S
N78 N79 1.365 . S
N79 C76 1.341 . S
N79 N78 1.365 . S
N79 H99 0.862 . S
C80 C75 1.501 . S
C80 H81 0.961 . S
C80 H82 0.961 . S
C80 H83 0.960 . S
H81 C80 0.961 . S
H82 C80 0.961 . S
H83 C80 0.960 . S
C84 N85 1.342 . S
C84 C88 1.401 1_556 S
C84 C89 1.499 . S
N85 Co68 1.989 1_455 S
N85 C84 1.342 . S
N85 N86 1.388 1_556 S
N86 Co69 1.993 1_455 S
N86 N85 1.388 1_554 S
N86 C87 1.346 . S
C87 N86 1.346 . S
C87 C88 1.396 . S
C87 C97 1.510 . S
C88 C84 1.401 1_554 S
C88 C87 1.396 . S
C89 C84 1.499 . S
C89 H90 0.959 . S
C89 H91 0.960 . S
C89 H92 0.961 . S
H90 C89 0.959 . S
H91 C89 0.960 . S
H92 C89 0.961 . S
O93 Co68 1.967 . S
O93 C101 1.258 1_556 S
O94 Co69 1.941 . S
O94 C101 1.266 . S
H95 C97 0.959 . S
H96 C97 0.961 . S
C97 C87 1.510 . S
C97 H95 0.959 . S
C97 H96 0.961 . S
C97 H98 0.960 . S
H98 C97 0.960 . S
H99 N79 0.862 . S
O100 Co68 1.920 . S
O100 C73 1.289 . S
C101 O93 1.258 1_554 S
C101 O94 1.266 . S
Co102 O105 1.970 . S
Co102 N119 1.989 . S
Co102 O127 1.967 . S
Co102 O134 1.920 . S
Co103 O106 1.966 . S
Co103 N112 2.022 . S
Co103 N120 1.993 . S
Co103 O128 1.941 . S
C104 O105 1.258 . S
C104 O106 1.263 . S
O105 Co102 1.970 . S
O105 C104 1.258 . S
O106 Co103 1.966 . S
O106 C104 1.263 . S
C107 O108 1.235 . S
C107 O134 1.289 . S
O108 C107 1.235 . S
C109 C111 1.400 . S
C109 N112 1.351 . S
C109 C114 1.501 . S
C110 C111 1.387 . S
C110 N113 1.341 . S
C111 C109 1.400 . S
C111 C110 1.387 . S
N112 Co103 2.022 . S
N112 C109 1.351 . S
N112 N113 1.365 . S
N113 C110 1.341 . S
N113 N112 1.365 . S
N113 H133 0.862 . S
C114 C109 1.501 . S
C114 H115 0.961 . S
C114 H116 0.961 . S
C114 H117 0.960 . S
H115 C114 0.961 . S
H116 C114 0.961 . S
H117 C114 0.960 . S
C118 N119 1.342 . S
C118 C122 1.401 . S
C118 C123 1.499 . S
N119 Co102 1.989 . S
N119 C118 1.342 . S
N119 N120 1.388 . S
N120 Co103 1.993 . S
N120 N119 1.388 . S
N120 C121 1.346 . S
C121 N120 1.346 . S
C121 C122 1.396 . S
C121 C131 1.510 . S
C122 C118 1.401 . S
C122 C121 1.396 . S
C123 C118 1.499 . S
C123 H124 0.959 . S
C123 H125 0.960 . S
C123 H126 0.961 . S
H124 C123 0.959 . S
H125 C123 0.960 . S
H126 C123 0.961 . S
O127 Co102 1.967 . S
O127 C135 1.258 . S
O128 Co103 1.941 . S
O128 C135 1.266 . S
H129 C131 0.959 . S
H130 C131 0.961 . S
C131 C121 1.510 . S
C131 H129 0.959 . S
C131 H130 0.961 . S
C131 H132 0.960 . S
H132 C131 0.960 . S
H133 N113 0.862 . S
O134 Co102 1.920 . S
O134 C107 1.289 . S
C135 O127 1.258 . S
C135 O128 1.266 . S
Co136 O139 1.970 . S
Co136 N153 1.989 1_565 S
Co136 O161 1.967 . S
Co136 O168 1.920 . S
Co137 O140 1.966 . S
Co137 N146 2.022 . S
Co137 N154 1.993 1_565 S
Co137 O162 1.941 . S
C138 O139 1.258 . S
C138 O140 1.263 . S
O139 Co136 1.970 . S
O139 C138 1.258 . S
O140 Co137 1.966 . S
O140 C138 1.263 . S
C141 O142 1.235 1_565 S
C141 O168 1.289 . S
O142 C141 1.235 1_545 S
C143 C145 1.400 . S
C143 N146 1.351 . S
C143 C148 1.501 . S
C144 C145 1.387 . S
C144 N147 1.341 . S
C145 C143 1.400 . S
C145 C144 1.387 . S
N146 Co137 2.022 . S
N146 C143 1.351 . S
N146 N147 1.365 . S
N147 C144 1.341 . S
N147 N146 1.365 . S
N147 H167 0.862 . S
C148 C143 1.501 . S
C148 H149 0.961 . S
C148 H150 0.961 . S
C148 H151 0.960 . S
H149 C148 0.961 . S
H150 C148 0.961 . S
H151 C148 0.960 . S
C152 N153 1.342 . S
C152 C156 1.401 . S
C152 C157 1.499 . S
N153 Co136 1.989 1_545 S
N153 C152 1.342 . S
N153 N154 1.388 . S
N154 Co137 1.993 1_545 S
N154 N153 1.388 . S
N154 C155 1.346 . S
C155 N154 1.346 . S
C155 C156 1.396 . S
C155 C165 1.510 . S
C156 C152 1.401 . S
C156 C155 1.396 . S
C157 C152 1.499 . S
C157 H158 0.959 . S
C157 H159 0.960 . S
C157 H160 0.961 . S
H158 C157 0.959 . S
H159 C157 0.960 . S
H160 C157 0.961 . S
O161 Co136 1.967 . S
O161 C169 1.258 . S
O162 Co137 1.941 . S
O162 C169 1.266 . S
H163 C165 0.959 . S
H164 C165 0.961 . S
C165 C155 1.510 . S
C165 H163 0.959 . S
C165 H164 0.961 . S
C165 H166 0.960 . S
H166 C165 0.960 . S
H167 N147 0.862 . S
O168 Co136 1.920 . S
O168 C141 1.289 . S
C169 O161 1.258 . S
C169 O162 1.266 . S
Co170 O173 1.970 . S
Co170 N187 1.989 1_455 S
Co170 O195 1.967 . S
Co170 O202 1.920 . S
Co171 O174 1.966 . S
Co171 N180 2.022 . S
Co171 N188 1.993 1_455 S
Co171 O196 1.941 . S
C172 O173 1.258 . S
C172 O174 1.263 . S
O173 Co170 1.970 . S
O173 C172 1.258 . S
O174 Co171 1.966 . S
O174 C172 1.263 . S
C175 O176 1.235 1_455 S
C175 O202 1.289 . S
O176 C175 1.235 1_655 S
C177 C179 1.400 . S
C177 N180 1.351 . S
C177 C182 1.501 . S
C178 C179 1.387 . S
C178 N181 1.341 . S
C179 C177 1.400 . S
C179 C178 1.387 . S
N180 Co171 2.022 . S
N180 C177 1.351 . S
N180 N181 1.365 . S
N181 C178 1.341 . S
N181 N180 1.365 . S
N181 H201 0.862 . S
C182 C177 1.501 . S
C182 H183 0.961 . S
C182 H184 0.961 . S
C182 H185 0.960 . S
H183 C182 0.961 . S
H184 C182 0.961 . S
H185 C182 0.960 . S
C186 N187 1.342 . S
C186 C190 1.401 . S
C186 C191 1.499 . S
N187 Co170 1.989 1_655 S
N187 C186 1.342 . S
N187 N188 1.388 . S
N188 Co171 1.993 1_655 S
N188 N187 1.388 . S
N188 C189 1.346 . S
C189 N188 1.346 . S
C189 C190 1.396 . S
C189 C199 1.510 . S
C190 C186 1.401 . S
C190 C189 1.396 . S
C191 C186 1.499 . S
C191 H192 0.959 . S
C191 H193 0.960 . S
C191 H194 0.961 . S
H192 C191 0.959 . S
H193 C191 0.960 . S
H194 C191 0.961 . S
O195 Co170 1.967 . S
O195 C203 1.258 . S
O196 Co171 1.941 . S
O196 C203 1.266 . S
H197 C199 0.959 . S
H198 C199 0.961 . S
C199 C189 1.510 . S
C199 H197 0.959 . S
C199 H198 0.961 . S
C199 H200 0.960 . S
H200 C199 0.960 . S
H201 N181 0.862 . S
O202 Co170 1.920 . S
O202 C175 1.289 . S
C203 O195 1.258 . S
C203 O196 1.266 . S
Co204 O207 1.970 . S
Co204 N221 1.989 . S
Co204 O229 1.967 . S
Co204 O236 1.920 . S
Co205 O208 1.966 1_556 S
Co205 N214 2.022 . S
Co205 N222 1.993 1_556 S
Co205 O230 1.941 1_556 S
C206 O207 1.258 . S
C206 O208 1.263 . S
O207 Co204 1.970 . S
O207 C206 1.258 . S
O208 Co205 1.966 1_554 S
O208 C206 1.263 . S
C209 O210 1.235 . S
C209 O236 1.289 . S
O210 C209 1.235 . S
C211 C213 1.400 . S
C211 N214 1.351 . S
C211 C216 1.501 . S
C212 C213 1.387 . S
C212 N215 1.341 . S
C213 C211 1.400 . S
C213 C212 1.387 . S
N214 Co205 2.022 . S
N214 C211 1.351 . S
N214 N215 1.365 . S
N215 C212 1.341 . S
N215 N214 1.365 . S
N215 H235 0.862 . S
C216 C211 1.501 . S
C216 H217 0.961 . S
C216 H218 0.961 . S
C216 H219 0.960 . S
H217 C216 0.961 . S
H218 C216 0.961 . S
H219 C216 0.960 . S
C220 N221 1.342 . S
C220 C224 1.401 . S
C220 C225 1.499 . S
N221 Co204 1.989 . S
N221 C220 1.342 . S
N221 N222 1.388 . S
N222 Co205 1.993 1_554 S
N222 N221 1.388 . S
N222 C223 1.346 . S
C223 N222 1.346 . S
C223 C224 1.396 . S
C223 C233 1.510 1_554 S
C224 C220 1.401 . S
C224 C223 1.396 . S
C225 C220 1.499 . S
C225 H226 0.959 . S
C225 H227 0.960 . S
C225 H228 0.961 . S
H226 C225 0.959 . S
H227 C225 0.960 . S
H228 C225 0.961 . S
O229 Co204 1.967 . S
O229 C237 1.258 . S
O230 Co205 1.941 1_554 S
O230 C237 1.266 . S
H231 C233 0.959 . S
H232 C233 0.961 . S
C233 C223 1.510 1_556 S
C233 H231 0.959 . S
C233 H232 0.961 . S
C233 H234 0.960 . S
H234 C233 0.960 . S
H235 N215 0.862 . S
O236 Co204 1.920 . S
O236 C209 1.289 . S
C237 O229 1.258 . S
C237 O230 1.266 . S
Co238 O241 1.970 . S
Co238 N255 1.989 1_565 S
Co238 O263 1.967 . S
Co238 O270 1.920 . S
Co239 O242 1.966 1_556 S
Co239 N248 2.022 . S
Co239 N256 1.993 1_566 S
Co239 O264 1.941 1_556 S
C240 O241 1.258 . S
C240 O242 1.263 . S
O241 Co238 1.970 . S
O241 C240 1.258 . S
O242 Co239 1.966 1_554 S
O242 C240 1.263 . S
C243 O244 1.235 1_565 S
C243 O270 1.289 . S
O244 C243 1.235 1_545 S
C245 C247 1.400 . S
C245 N248 1.351 . S
C245 C250 1.501 . S
C246 C247 1.387 . S
C246 N249 1.341 . S
C247 C245 1.400 . S
C247 C246 1.387 . S
N248 Co239 2.022 . S
N248 C245 1.351 . S
N248 N249 1.365 . S
N249 C246 1.341 . S
N249 N248 1.365 . S
N249 H269 0.862 . S
C250 C245 1.501 . S
C250 H251 0.961 . S
C250 H252 0.961 . S
C250 H253 0.960 . S
H251 C250 0.961 . S
H252 C250 0.961 . S
H253 C250 0.960 . S
C254 N255 1.342 . S
C254 C258 1.401 . S
C254 C259 1.499 . S
N255 Co238 1.989 1_545 S
N255 C254 1.342 . S
N255 N256 1.388 . S
N256 Co239 1.993 1_544 S
N256 N255 1.388 . S
N256 C257 1.346 . S
C257 N256 1.346 . S
C257 C258 1.396 . S
C257 C267 1.510 1_554 S
C258 C254 1.401 . S
C258 C257 1.396 . S
C259 C254 1.499 . S
C259 H260 0.959 . S
C259 H261 0.960 . S
C259 H262 0.961 . S
H260 C259 0.959 . S
H261 C259 0.960 . S
H262 C259 0.961 . S
O263 Co238 1.967 . S
O263 C271 1.258 . S
O264 Co239 1.941 1_554 S
O264 C271 1.266 . S
H265 C267 0.959 . S
H266 C267 0.961 . S
C267 C257 1.510 1_556 S
C267 H265 0.959 . S
C267 H266 0.961 . S
C267 H268 0.960 . S
H268 C267 0.960 . S
H269 N249 0.862 . S
O270 Co238 1.920 . S
O270 C243 1.289 . S
C271 O263 1.258 . S
C271 O264 1.266 . S
Co272 O275 1.970 . S
Co272 N289 1.989 1_455 S
Co272 O297 1.967 . S
Co272 O304 1.920 . S
Co273 O276 1.966 1_556 S
Co273 N282 2.022 . S
Co273 N290 1.993 1_456 S
Co273 O298 1.941 1_556 S
C274 O275 1.258 . S
C274 O276 1.263 . S
O275 Co272 1.970 . S
O275 C274 1.258 . S
O276 Co273 1.966 1_554 S
O276 C274 1.263 . S
C277 O278 1.235 1_455 S
C277 O304 1.289 . S
O278 C277 1.235 1_655 S
C279 C281 1.400 . S
C279 N282 1.351 . S
C279 C284 1.501 . S
C280 C281 1.387 . S
C280 N283 1.341 . S
C281 C279 1.400 . S
C281 C280 1.387 . S
N282 Co273 2.022 . S
N282 C279 1.351 . S
N282 N283 1.365 . S
N283 C280 1.341 . S
N283 N282 1.365 . S
N283 H303 0.862 . S
C284 C279 1.501 . S
C284 H285 0.961 . S
C284 H286 0.961 . S
C284 H287 0.960 . S
H285 C284 0.961 . S
H286 C284 0.961 . S
H287 C284 0.960 . S
C288 N289 1.342 . S
C288 C292 1.401 . S
C288 C293 1.499 . S
N289 Co272 1.989 1_655 S
N289 C288 1.342 . S
N289 N290 1.388 . S
N290 Co273 1.993 1_654 S
N290 N289 1.388 . S
N290 C291 1.346 . S
C291 N290 1.346 . S
C291 C292 1.396 . S
C291 C301 1.510 1_554 S
C292 C288 1.401 . S
C292 C291 1.396 . S
C293 C288 1.499 . S
C293 H294 0.959 . S
C293 H295 0.960 . S
C293 H296 0.961 . S
H294 C293 0.959 . S
H295 C293 0.960 . S
H296 C293 0.961 . S
O297 Co272 1.967 . S
O297 C305 1.258 . S
O298 Co273 1.941 1_554 S
O298 C305 1.266 . S
H299 C301 0.959 . S
H300 C301 0.961 . S
C301 C291 1.510 1_556 S
C301 H299 0.959 . S
C301 H300 0.961 . S
C301 H302 0.960 . S
H302 C301 0.960 . S
H303 N283 0.862 . S
O304 Co272 1.920 . S
O304 C277 1.289 . S
C305 O297 1.258 . S
C305 O298 1.266 . S
Co306 O309 1.970 . S
Co306 N323 1.989 . S
Co306 O331 1.967 . S
Co306 O338 1.920 . S
Co307 O310 1.966 . S
Co307 N316 2.022 . S
Co307 N324 1.993 . S
Co307 O332 1.941 . S
C308 O309 1.258 . S
C308 O310 1.263 . S
O309 Co306 1.970 . S
O309 C308 1.258 . S
O310 Co307 1.966 . S
O310 C308 1.263 . S
C311 O312 1.235 . S
C311 O338 1.289 . S
O312 C311 1.235 . S
C313 C315 1.400 . S
C313 N316 1.351 . S
C313 C318 1.501 . S
C314 C315 1.387 . S
C314 N317 1.341 . S
C315 C313 1.400 . S
C315 C314 1.387 . S
N316 Co307 2.022 . S
N316 C313 1.351 . S
N316 N317 1.365 . S
N317 C314 1.341 . S
N317 N316 1.365 . S
N317 H337 0.862 . S
C318 C313 1.501 . S
C318 H319 0.961 . S
C318 H320 0.961 . S
C318 H321 0.960 . S
H319 C318 0.961 . S
H320 C318 0.961 . S
H321 C318 0.960 . S
C322 N323 1.342 . S
C322 C326 1.401 . S
C322 C327 1.499 . S
N323 Co306 1.989 . S
N323 C322 1.342 . S
N323 N324 1.388 . S
N324 Co307 1.993 . S
N324 N323 1.388 . S
N324 C325 1.346 . S
C325 N324 1.346 . S
C325 C326 1.396 . S
C325 C335 1.510 . S
C326 C322 1.401 . S
C326 C325 1.396 . S
C327 C322 1.499 . S
C327 H328 0.959 . S
C327 H329 0.960 . S
C327 H330 0.961 . S
H328 C327 0.959 . S
H329 C327 0.960 . S
H330 C327 0.961 . S
O331 Co306 1.967 . S
O331 C339 1.258 . S
O332 Co307 1.941 . S
O332 C339 1.266 . S
H333 C335 0.959 . S
H334 C335 0.961 . S
C335 C325 1.510 . S
C335 H333 0.959 . S
C335 H334 0.961 . S
C335 H336 0.960 . S
H336 C335 0.960 . S
H337 N317 0.862 . S
O338 Co306 1.920 . S
O338 C311 1.289 . S
C339 O331 1.258 . S
C339 O332 1.266 . S
Co340 O343 1.970 . S
Co340 N357 1.989 1_545 S
Co340 O365 1.967 . S
Co340 O372 1.920 . S
Co341 O344 1.966 . S
Co341 N350 2.022 . S
Co341 N358 1.993 1_545 S
Co341 O366 1.941 . S
C342 O343 1.258 . S
C342 O344 1.263 . S
O343 Co340 1.970 . S
O343 C342 1.258 . S
O344 Co341 1.966 . S
O344 C342 1.263 . S
C345 O346 1.235 1_545 S
C345 O372 1.289 . S
O346 C345 1.235 1_565 S
C347 C349 1.400 . S
C347 N350 1.351 . S
C347 C352 1.501 . S
C348 C349 1.387 . S
C348 N351 1.341 . S
C349 C347 1.400 . S
C349 C348 1.387 . S
N350 Co341 2.022 . S
N350 C347 1.351 . S
N350 N351 1.365 . S
N351 C348 1.341 . S
N351 N350 1.365 . S
N351 H371 0.862 . S
C352 C347 1.501 . S
C352 H353 0.961 . S
C352 H354 0.961 . S
C352 H355 0.960 . S
H353 C352 0.961 . S
H354 C352 0.961 . S
H355 C352 0.960 . S
C356 N357 1.342 . S
C356 C360 1.401 . S
C356 C361 1.499 . S
N357 Co340 1.989 1_565 S
N357 C356 1.342 . S
N357 N358 1.388 . S
N358 Co341 1.993 1_565 S
N358 N357 1.388 . S
N358 C359 1.346 . S
C359 N358 1.346 . S
C359 C360 1.396 . S
C359 C369 1.510 . S
C360 C356 1.401 . S
C360 C359 1.396 . S
C361 C356 1.499 . S
C361 H362 0.959 . S
C361 H363 0.960 . S
C361 H364 0.961 . S
H362 C361 0.959 . S
H363 C361 0.960 . S
H364 C361 0.961 . S
O365 Co340 1.967 . S
O365 C373 1.258 . S
O366 Co341 1.941 . S
O366 C373 1.266 . S
H367 C369 0.959 . S
H368 C369 0.961 . S
C369 C359 1.510 . S
C369 H367 0.959 . S
C369 H368 0.961 . S
C369 H370 0.960 . S
H370 C369 0.960 . S
H371 N351 0.862 . S
O372 Co340 1.920 . S
O372 C345 1.289 . S
C373 O365 1.258 . S
C373 O366 1.266 . S
Co374 O377 1.970 . S
Co374 N391 1.989 1_655 S
Co374 O399 1.967 . S
Co374 O406 1.920 . S
Co375 O378 1.966 . S
Co375 N384 2.022 . S
Co375 N392 1.993 1_655 S
Co375 O400 1.941 . S
C376 O377 1.258 . S
C376 O378 1.263 . S
O377 Co374 1.970 . S
O377 C376 1.258 . S
O378 Co375 1.966 . S
O378 C376 1.263 . S
C379 O380 1.235 1_655 S
C379 O406 1.289 . S
O380 C379 1.235 1_455 S
C381 C383 1.400 . S
C381 N384 1.351 . S
C381 C386 1.501 . S
C382 C383 1.387 . S
C382 N385 1.341 . S
C383 C381 1.400 . S
C383 C382 1.387 . S
N384 Co375 2.022 . S
N384 C381 1.351 . S
N384 N385 1.365 . S
N385 C382 1.341 . S
N385 N384 1.365 . S
N385 H405 0.862 . S
C386 C381 1.501 . S
C386 H387 0.961 . S
C386 H388 0.961 . S
C386 H389 0.960 . S
H387 C386 0.961 . S
H388 C386 0.961 . S
H389 C386 0.960 . S
C390 N391 1.342 . S
C390 C394 1.401 . S
C390 C395 1.499 . S
N391 Co374 1.989 1_455 S
N391 C390 1.342 . S
N391 N392 1.388 . S
N392 Co375 1.993 1_455 S
N392 N391 1.388 . S
N392 C393 1.346 . S
C393 N392 1.346 . S
C393 C394 1.396 . S
C393 C403 1.510 . S
C394 C390 1.401 . S
C394 C393 1.396 . S
C395 C390 1.499 . S
C395 H396 0.959 . S
C395 H397 0.960 . S
C395 H398 0.961 . S
H396 C395 0.959 . S
H397 C395 0.960 . S
H398 C395 0.961 . S
O399 Co374 1.967 . S
O399 C407 1.258 . S
O400 Co375 1.941 . S
O400 C407 1.266 . S
H401 C403 0.959 . S
H402 C403 0.961 . S
C403 C393 1.510 . S
C403 H401 0.959 . S
C403 H402 0.961 . S
C403 H404 0.960 . S
H404 C403 0.960 . S
H405 N385 0.862 . S
O406 Co374 1.920 . S
O406 C379 1.289 . S
C407 O399 1.258 . S
C407 O400 1.266 . S
Co408 O411 1.970 . S
Co408 N425 1.989 . S
Co408 O433 1.967 . S
Co408 O440 1.920 . S
Co409 O412 1.966 . S
Co409 N418 2.022 . S
Co409 N426 1.993 . S
Co409 O434 1.941 . S
C410 O411 1.258 . S
C410 O412 1.263 . S
O411 Co408 1.970 . S
O411 C410 1.258 . S
O412 Co409 1.966 . S
O412 C410 1.263 . S
C413 O414 1.235 . S
C413 O440 1.289 . S
O414 C413 1.235 . S
C415 C417 1.400 . S
C415 N418 1.351 . S
C415 C420 1.501 . S
C416 C417 1.387 . S
C416 N419 1.341 . S
C417 C415 1.400 . S
C417 C416 1.387 . S
N418 Co409 2.022 . S
N418 C415 1.351 . S
N418 N419 1.365 . S
N419 C416 1.341 . S
N419 N418 1.365 . S
N419 H439 0.862 . S
C420 C415 1.501 . S
C420 H421 0.961 . S
C420 H422 0.961 . S
C420 H423 0.960 . S
H421 C420 0.961 . S
H422 C420 0.961 . S
H423 C420 0.960 . S
C424 N425 1.342 . S
C424 C428 1.401 . S
C424 C429 1.499 . S
N425 Co408 1.989 . S
N425 C424 1.342 . S
N425 N426 1.388 . S
N426 Co409 1.993 . S
N426 N425 1.388 . S
N426 C427 1.346 . S
C427 N426 1.346 . S
C427 C428 1.396 . S
C427 C437 1.510 . S
C428 C424 1.401 . S
C428 C427 1.396 . S
C429 C424 1.499 . S
C429 H430 0.959 . S
C429 H431 0.960 . S
C429 H432 0.961 . S
H430 C429 0.959 . S
H431 C429 0.960 . S
H432 C429 0.961 . S
O433 Co408 1.967 . S
O433 C441 1.258 . S
O434 Co409 1.941 . S
O434 C441 1.266 . S
H435 C437 0.959 . S
H436 C437 0.961 . S
C437 C427 1.510 . S
C437 H435 0.959 . S
C437 H436 0.961 . S
C437 H438 0.960 . S
H438 C437 0.960 . S
H439 N419 0.862 . S
O440 Co408 1.920 . S
O440 C413 1.289 . S
C441 O433 1.258 . S
C441 O434 1.266 . S
Co442 O445 1.970 . S
Co442 N459 1.989 . S
Co442 O467 1.967 . S
Co442 O474 1.920 . S
Co443 O446 1.966 . S
Co443 N452 2.022 . S
Co443 N460 1.993 . S
Co443 O468 1.941 . S
C444 O445 1.258 . S
C444 O446 1.263 . S
O445 Co442 1.970 . S
O445 C444 1.258 . S
O446 Co443 1.966 . S
O446 C444 1.263 . S
C447 O448 1.235 . S
C447 O474 1.289 . S
O448 C447 1.235 . S
C449 C451 1.400 . S
C449 N452 1.351 . S
C449 C454 1.501 . S
C450 C451 1.387 . S
C450 N453 1.341 . S
C451 C449 1.400 . S
C451 C450 1.387 . S
N452 Co443 2.022 . S
N452 C449 1.351 . S
N452 N453 1.365 . S
N453 C450 1.341 . S
N453 N452 1.365 . S
N453 H473 0.862 . S
C454 C449 1.501 . S
C454 H455 0.961 . S
C454 H456 0.961 . S
C454 H457 0.960 . S
H455 C454 0.961 . S
H456 C454 0.961 . S
H457 C454 0.960 . S
C458 N459 1.342 . S
C458 C462 1.401 . S
C458 C463 1.499 . S
N459 Co442 1.989 . S
N459 C458 1.342 . S
N459 N460 1.388 . S
N460 Co443 1.993 . S
N460 N459 1.388 . S
N460 C461 1.346 . S
C461 N460 1.346 . S
C461 C462 1.396 . S
C461 C471 1.510 . S
C462 C458 1.401 . S
C462 C461 1.396 . S
C463 C458 1.499 . S
C463 H464 0.959 . S
C463 H465 0.960 . S
C463 H466 0.961 . S
H464 C463 0.959 . S
H465 C463 0.960 . S
H466 C463 0.961 . S
O467 Co442 1.967 . S
O467 C475 1.258 . S
O468 Co443 1.941 . S
O468 C475 1.266 . S
H469 C471 0.959 . S
H470 C471 0.961 . S
C471 C461 1.510 . S
C471 H469 0.959 . S
C471 H470 0.961 . S
C471 H472 0.960 . S
H472 C471 0.960 . S
H473 N453 0.862 . S
O474 Co442 1.920 . S
O474 C447 1.289 . S
C475 O467 1.258 . S
C475 O468 1.266 . S
Co476 O479 1.970 . S
Co476 N493 1.989 . S
Co476 O501 1.967 . S
Co476 O508 1.920 . S
Co477 O480 1.966 . S
Co477 N486 2.022 . S
Co477 N494 1.993 . S
Co477 O502 1.941 . S
C478 O479 1.258 . S
C478 O480 1.263 . S
O479 Co476 1.970 . S
O479 C478 1.258 . S
O480 Co477 1.966 . S
O480 C478 1.263 . S
C481 O482 1.235 . S
C481 O508 1.289 . S
O482 C481 1.235 . S
C483 C485 1.400 . S
C483 N486 1.351 . S
C483 C488 1.501 . S
C484 C485 1.387 . S
C484 N487 1.341 . S
C485 C483 1.400 . S
C485 C484 1.387 . S
N486 Co477 2.022 . S
N486 C483 1.351 . S
N486 N487 1.365 . S
N487 C484 1.341 . S
N487 N486 1.365 . S
N487 H507 0.862 . S
C488 C483 1.501 . S
C488 H489 0.961 . S
C488 H490 0.961 . S
C488 H491 0.960 . S
H489 C488 0.961 . S
H490 C488 0.961 . S
H491 C488 0.960 . S
C492 N493 1.342 . S
C492 C496 1.401 . S
C492 C497 1.499 . S
N493 Co476 1.989 . S
N493 C492 1.342 . S
N493 N494 1.388 . S
N494 Co477 1.993 . S
N494 N493 1.388 . S
N494 C495 1.346 . S
C495 N494 1.346 . S
C495 C496 1.396 . S
C495 C505 1.510 . S
C496 C492 1.401 . S
C496 C495 1.396 . S
C497 C492 1.499 . S
C497 H498 0.959 . S
C497 H499 0.960 . S
C497 H500 0.961 . S
H498 C497 0.959 . S
H499 C497 0.960 . S
H500 C497 0.961 . S
O501 Co476 1.967 . S
O501 C509 1.258 . S
O502 Co477 1.941 . S
O502 C509 1.266 . S
H503 C505 0.959 . S
H504 C505 0.961 . S
C505 C495 1.510 . S
C505 H503 0.959 . S
C505 H504 0.961 . S
C505 H506 0.960 . S
H506 C505 0.960 . S
H507 N487 0.862 . S
O508 Co476 1.920 . S
O508 C481 1.289 . S
C509 O501 1.258 . S
C509 O502 1.266 . S
Co510 O513 1.970 . S
Co510 N527 1.989 . S
Co510 O535 1.967 . S
Co510 O542 1.920 . S
Co511 O514 1.966 . S
Co511 N520 2.022 . S
Co511 N528 1.993 . S
Co511 O536 1.941 . S
C512 O513 1.258 . S
C512 O514 1.263 . S
O513 Co510 1.970 . S
O513 C512 1.258 . S
O514 Co511 1.966 . S
O514 C512 1.263 . S
C515 O516 1.235 . S
C515 O542 1.289 . S
O516 C515 1.235 . S
C517 C519 1.400 . S
C517 N520 1.351 . S
C517 C522 1.501 . S
C518 C519 1.387 . S
C518 N521 1.341 . S
C519 C517 1.400 . S
C519 C518 1.387 . S
N520 Co511 2.022 . S
N520 C517 1.351 . S
N520 N521 1.365 . S
N521 C518 1.341 . S
N521 N520 1.365 . S
N521 H541 0.862 . S
C522 C517 1.501 . S
C522 H523 0.961 . S
C522 H524 0.961 . S
C522 H525 0.960 . S
H523 C522 0.961 . S
H524 C522 0.961 . S
H525 C522 0.960 . S
C526 N527 1.342 . S
C526 C530 1.401 . S
C526 C531 1.499 . S
N527 Co510 1.989 . S
N527 C526 1.342 . S
N527 N528 1.388 . S
N528 Co511 1.993 . S
N528 N527 1.388 . S
N528 C529 1.346 . S
C529 N528 1.346 . S
C529 C530 1.396 . S
C529 C539 1.510 . S
C530 C526 1.401 . S
C530 C529 1.396 . S
C531 C526 1.499 . S
C531 H532 0.959 . S
C531 H533 0.960 . S
C531 H534 0.961 . S
H532 C531 0.959 . S
H533 C531 0.960 . S
H534 C531 0.961 . S
O535 Co510 1.967 . S
O535 C543 1.258 . S
O536 Co511 1.941 . S
O536 C543 1.266 . S
H537 C539 0.959 . S
H538 C539 0.961 . S
C539 C529 1.510 . S
C539 H537 0.959 . S
C539 H538 0.961 . S
C539 H540 0.960 . S
H540 C539 0.960 . S
H541 N521 0.862 . S
O542 Co510 1.920 . S
O542 C515 1.289 . S
C543 O535 1.258 . S
C543 O536 1.266 . S
Co544 O547 1.970 . S
Co544 N561 1.989 . S
Co544 O569 1.967 . S
Co544 O576 1.920 . S
Co545 O548 1.966 . S
Co545 N554 2.022 . S
Co545 N562 1.993 . S
Co545 O570 1.941 . S
C546 O547 1.258 . S
C546 O548 1.263 . S
O547 Co544 1.970 . S
O547 C546 1.258 . S
O548 Co545 1.966 . S
O548 C546 1.263 . S
C549 O550 1.235 . S
C549 O576 1.289 . S
O550 C549 1.235 . S
C551 C553 1.400 . S
C551 N554 1.351 . S
C551 C556 1.501 . S
C552 C553 1.387 . S
C552 N555 1.341 . S
C553 C551 1.400 . S
C553 C552 1.387 . S
N554 Co545 2.022 . S
N554 C551 1.351 . S
N554 N555 1.365 . S
N555 C552 1.341 . S
N555 N554 1.365 . S
N555 H575 0.862 . S
C556 C551 1.501 . S
C556 H557 0.961 . S
C556 H558 0.961 . S
C556 H559 0.960 . S
H557 C556 0.961 . S
H558 C556 0.961 . S
H559 C556 0.960 . S
C560 N561 1.342 . S
C560 C564 1.401 . S
C560 C565 1.499 . S
N561 Co544 1.989 . S
N561 C560 1.342 . S
N561 N562 1.388 . S
N562 Co545 1.993 . S
N562 N561 1.388 . S
N562 C563 1.346 . S
C563 N562 1.346 . S
C563 C564 1.396 . S
C563 C573 1.510 . S
C564 C560 1.401 . S
C564 C563 1.396 . S
C565 C560 1.499 . S
C565 H566 0.959 . S
C565 H567 0.960 . S
C565 H568 0.961 . S
H566 C565 0.959 . S
H567 C565 0.960 . S
H568 C565 0.961 . S
O569 Co544 1.967 . S
O569 C577 1.258 . S
O570 Co545 1.941 . S
O570 C577 1.266 . S
H571 C573 0.959 . S
H572 C573 0.961 . S
C573 C563 1.510 . S
C573 H571 0.959 . S
C573 H572 0.961 . S
C573 H574 0.960 . S
H574 C573 0.960 . S
H575 N555 0.862 . S
O576 Co544 1.920 . S
O576 C549 1.289 . S
C577 O569 1.258 . S
C577 O570 1.266 . S
Co578 O581 1.970 . S
Co578 N595 1.989 . S
Co578 O603 1.967 . S
Co578 O610 1.920 . S
Co579 O582 1.966 . S
Co579 N588 2.022 . S
Co579 N596 1.993 . S
Co579 O604 1.941 . S
C580 O581 1.258 . S
C580 O582 1.263 . S
O581 Co578 1.970 . S
O581 C580 1.258 . S
O582 Co579 1.966 . S
O582 C580 1.263 . S
C583 O584 1.235 . S
C583 O610 1.289 . S
O584 C583 1.235 . S
C585 C587 1.400 . S
C585 N588 1.351 . S
C585 C590 1.501 . S
C586 C587 1.387 . S
C586 N589 1.341 . S
C587 C585 1.400 . S
C587 C586 1.387 . S
N588 Co579 2.022 . S
N588 C585 1.351 . S
N588 N589 1.365 . S
N589 C586 1.341 . S
N589 N588 1.365 . S
N589 H609 0.862 . S
C590 C585 1.501 . S
C590 H591 0.961 . S
C590 H592 0.961 . S
C590 H593 0.960 . S
H591 C590 0.961 . S
H592 C590 0.961 . S
H593 C590 0.960 . S
C594 N595 1.342 . S
C594 C598 1.401 . S
C594 C599 1.499 . S
N595 Co578 1.989 . S
N595 C594 1.342 . S
N595 N596 1.388 . S
N596 Co579 1.993 . S
N596 N595 1.388 . S
N596 C597 1.346 . S
C597 N596 1.346 . S
C597 C598 1.396 . S
C597 C607 1.510 . S
C598 C594 1.401 . S
C598 C597 1.396 . S
C599 C594 1.499 . S
C599 H600 0.959 . S
C599 H601 0.960 . S
C599 H602 0.961 . S
H600 C599 0.959 . S
H601 C599 0.960 . S
H602 C599 0.961 . S
O603 Co578 1.967 . S
O603 C611 1.258 . S
O604 Co579 1.941 . S
O604 C611 1.266 . S
H605 C607 0.959 . S
H606 C607 0.961 . S
C607 C597 1.510 . S
C607 H605 0.959 . S
C607 H606 0.961 . S
C607 H608 0.960 . S
H608 C607 0.960 . S
H609 N589 0.862 . S
O610 Co578 1.920 . S
O610 C583 1.289 . S
C611 O603 1.258 . S
C611 O604 1.266 . S
Co612 O615 1.970 . S
Co612 N629 1.989 . S
Co612 O637 1.967 . S
Co612 O644 1.920 . S
Co613 O616 1.966 . S
Co613 N622 2.022 . S
Co613 N630 1.993 . S
Co613 O638 1.941 . S
C614 O615 1.258 . S
C614 O616 1.263 . S
O615 Co612 1.970 . S
O615 C614 1.258 . S
O616 Co613 1.966 . S
O616 C614 1.263 . S
C617 O618 1.235 . S
C617 O644 1.289 . S
O618 C617 1.235 . S
C619 C621 1.400 . S
C619 N622 1.351 . S
C619 C624 1.501 . S
C620 C621 1.387 . S
C620 N623 1.341 . S
C621 C619 1.400 . S
C621 C620 1.387 . S
N622 Co613 2.022 . S
N622 C619 1.351 . S
N622 N623 1.365 . S
N623 C620 1.341 . S
N623 N622 1.365 . S
N623 H643 0.862 . S
C624 C619 1.501 . S
C624 H625 0.961 . S
C624 H626 0.961 . S
C624 H627 0.960 . S
H625 C624 0.961 . S
H626 C624 0.961 . S
H627 C624 0.960 . S
C628 N629 1.342 . S
C628 C632 1.401 . S
C628 C633 1.499 . S
N629 Co612 1.989 . S
N629 C628 1.342 . S
N629 N630 1.388 . S
N630 Co613 1.993 . S
N630 N629 1.388 . S
N630 C631 1.346 . S
C631 N630 1.346 . S
C631 C632 1.396 . S
C631 C641 1.510 . S
C632 C628 1.401 . S
C632 C631 1.396 . S
C633 C628 1.499 . S
C633 H634 0.959 . S
C633 H635 0.960 . S
C633 H636 0.961 . S
H634 C633 0.959 . S
H635 C633 0.960 . S
H636 C633 0.961 . S
O637 Co612 1.967 . S
O637 C645 1.258 . S
O638 Co613 1.941 . S
O638 C645 1.266 . S
H639 C641 0.959 . S
H640 C641 0.961 . S
C641 C631 1.510 . S
C641 H639 0.959 . S
C641 H640 0.961 . S
C641 H642 0.960 . S
H642 C641 0.960 . S
H643 N623 0.862 . S
O644 Co612 1.920 . S
O644 C617 1.289 . S
C645 O637 1.258 . S
C645 O638 1.266 . S
Co646 O649 1.970 . S
Co646 N663 1.989 . S
Co646 O671 1.967 . S
Co646 O678 1.920 . S
Co647 O650 1.966 . S
Co647 N656 2.022 . S
Co647 N664 1.993 . S
Co647 O672 1.941 . S
C648 O649 1.258 . S
C648 O650 1.263 . S
O649 Co646 1.970 . S
O649 C648 1.258 . S
O650 Co647 1.966 . S
O650 C648 1.263 . S
C651 O652 1.235 . S
C651 O678 1.289 . S
O652 C651 1.235 . S
C653 C655 1.400 . S
C653 N656 1.351 . S
C653 C658 1.501 . S
C654 C655 1.387 . S
C654 N657 1.341 . S
C655 C653 1.400 . S
C655 C654 1.387 . S
N656 Co647 2.022 . S
N656 C653 1.351 . S
N656 N657 1.365 . S
N657 C654 1.341 . S
N657 N656 1.365 . S
N657 H677 0.862 . S
C658 C653 1.501 . S
C658 H659 0.961 . S
C658 H660 0.961 . S
C658 H661 0.960 . S
H659 C658 0.961 . S
H660 C658 0.961 . S
H661 C658 0.960 . S
C662 N663 1.342 . S
C662 C666 1.401 . S
C662 C667 1.499 . S
N663 Co646 1.989 . S
N663 C662 1.342 . S
N663 N664 1.388 . S
N664 Co647 1.993 . S
N664 N663 1.388 . S
N664 C665 1.346 . S
C665 N664 1.346 . S
C665 C666 1.396 . S
C665 C675 1.510 . S
C666 C662 1.401 . S
C666 C665 1.396 . S
C667 C662 1.499 . S
C667 H668 0.959 . S
C667 H669 0.960 . S
C667 H670 0.961 . S
H668 C667 0.959 . S
H669 C667 0.960 . S
H670 C667 0.961 . S
O671 Co646 1.967 . S
O671 C679 1.258 . S
O672 Co647 1.941 . S
O672 C679 1.266 . S
H673 C675 0.959 . S
H674 C675 0.961 . S
C675 C665 1.510 . S
C675 H673 0.959 . S
C675 H674 0.961 . S
C675 H676 0.960 . S
H676 C675 0.960 . S
H677 N657 0.862 . S
O678 Co646 1.920 . S
O678 C651 1.289 . S
C679 O671 1.258 . S
C679 O672 1.266 . S
Co680 O683 1.970 . S
Co680 N697 1.989 . S
Co680 O705 1.967 . S
Co680 O712 1.920 . S
Co681 O684 1.966 . S
Co681 N690 2.022 . S
Co681 N698 1.993 . S
Co681 O706 1.941 . S
C682 O683 1.258 . S
C682 O684 1.263 . S
O683 Co680 1.970 . S
O683 C682 1.258 . S
O684 Co681 1.966 . S
O684 C682 1.263 . S
C685 O686 1.235 . S
C685 O712 1.289 . S
O686 C685 1.235 . S
C687 C689 1.400 . S
C687 N690 1.351 . S
C687 C692 1.501 . S
C688 C689 1.387 . S
C688 N691 1.341 . S
C689 C687 1.400 . S
C689 C688 1.387 . S
N690 Co681 2.022 . S
N690 C687 1.351 . S
N690 N691 1.365 . S
N691 C688 1.341 . S
N691 N690 1.365 . S
N691 H711 0.862 . S
C692 C687 1.501 . S
C692 H693 0.961 . S
C692 H694 0.961 . S
C692 H695 0.960 . S
H693 C692 0.961 . S
H694 C692 0.961 . S
H695 C692 0.960 . S
C696 N697 1.342 . S
C696 C700 1.401 . S
C696 C701 1.499 . S
N697 Co680 1.989 . S
N697 C696 1.342 . S
N697 N698 1.388 . S
N698 Co681 1.993 . S
N698 N697 1.388 . S
N698 C699 1.346 . S
C699 N698 1.346 . S
C699 C700 1.396 . S
C699 C709 1.510 . S
C700 C696 1.401 . S
C700 C699 1.396 . S
C701 C696 1.499 . S
C701 H702 0.959 . S
C701 H703 0.960 . S
C701 H704 0.961 . S
H702 C701 0.959 . S
H703 C701 0.960 . S
H704 C701 0.961 . S
O705 Co680 1.967 . S
O705 C713 1.258 . S
O706 Co681 1.941 . S
O706 C713 1.266 . S
H707 C709 0.959 . S
H708 C709 0.961 . S
C709 C699 1.510 . S
C709 H707 0.959 . S
C709 H708 0.961 . S
C709 H710 0.960 . S
H710 C709 0.960 . S
H711 N691 0.862 . S
O712 Co680 1.920 . S
O712 C685 1.289 . S
C713 O705 1.258 . S
C713 O706 1.266 . S
Co714 O717 1.970 . S
Co714 N731 1.989 . S
Co714 O739 1.967 . S
Co714 O746 1.920 . S
Co715 O718 1.966 . S
Co715 N724 2.022 . S
Co715 N732 1.993 . S
Co715 O740 1.941 . S
C716 O717 1.258 . S
C716 O718 1.263 . S
O717 Co714 1.970 . S
O717 C716 1.258 . S
O718 Co715 1.966 . S
O718 C716 1.263 . S
C719 O720 1.235 . S
C719 O746 1.289 . S
O720 C719 1.235 . S
C721 C723 1.400 . S
C721 N724 1.351 . S
C721 C726 1.501 . S
C722 C723 1.387 . S
C722 N725 1.341 . S
C723 C721 1.400 . S
C723 C722 1.387 . S
N724 Co715 2.022 . S
N724 C721 1.351 . S
N724 N725 1.365 . S
N725 C722 1.341 . S
N725 N724 1.365 . S
N725 H745 0.862 . S
C726 C721 1.501 . S
C726 H727 0.961 . S
C726 H728 0.961 . S
C726 H729 0.960 . S
H727 C726 0.961 . S
H728 C726 0.961 . S
H729 C726 0.960 . S
C730 N731 1.342 . S
C730 C734 1.401 . S
C730 C735 1.499 . S
N731 Co714 1.989 . S
N731 C730 1.342 . S
N731 N732 1.388 . S
N732 Co715 1.993 . S
N732 N731 1.388 . S
N732 C733 1.346 . S
C733 N732 1.346 . S
C733 C734 1.396 . S
C733 C743 1.510 . S
C734 C730 1.401 . S
C734 C733 1.396 . S
C735 C730 1.499 . S
C735 H736 0.959 . S
C735 H737 0.960 . S
C735 H738 0.961 . S
H736 C735 0.959 . S
H737 C735 0.960 . S
H738 C735 0.961 . S
O739 Co714 1.967 . S
O739 C747 1.258 . S
O740 Co715 1.941 . S
O740 C747 1.266 . S
H741 C743 0.959 . S
H742 C743 0.961 . S
C743 C733 1.510 . S
C743 H741 0.959 . S
C743 H742 0.961 . S
C743 H744 0.960 . S
H744 C743 0.960 . S
H745 N725 0.862 . S
O746 Co714 1.920 . S
O746 C719 1.289 . S
C747 O739 1.258 . S
C747 O740 1.266 . S
Co748 O751 1.970 . S
Co748 N765 1.989 . S
Co748 O773 1.967 . S
Co748 O780 1.920 . S
Co749 O752 1.966 . S
Co749 N758 2.022 . S
Co749 N766 1.993 . S
Co749 O774 1.941 . S
C750 O751 1.258 . S
C750 O752 1.263 . S
O751 Co748 1.970 . S
O751 C750 1.258 . S
O752 Co749 1.966 . S
O752 C750 1.263 . S
C753 O754 1.235 . S
C753 O780 1.289 . S
O754 C753 1.235 . S
C755 C757 1.400 . S
C755 N758 1.351 . S
C755 C760 1.501 . S
C756 C757 1.387 . S
C756 N759 1.341 . S
C757 C755 1.400 . S
C757 C756 1.387 . S
N758 Co749 2.022 . S
N758 C755 1.351 . S
N758 N759 1.365 . S
N759 C756 1.341 . S
N759 N758 1.365 . S
N759 H779 0.862 . S
C760 C755 1.501 . S
C760 H761 0.961 . S
C760 H762 0.961 . S
C760 H763 0.960 . S
H761 C760 0.961 . S
H762 C760 0.961 . S
H763 C760 0.960 . S
C764 N765 1.342 . S
C764 C768 1.401 . S
C764 C769 1.499 . S
N765 Co748 1.989 . S
N765 C764 1.342 . S
N765 N766 1.388 . S
N766 Co749 1.993 . S
N766 N765 1.388 . S
N766 C767 1.346 . S
C767 N766 1.346 . S
C767 C768 1.396 . S
C767 C777 1.510 . S
C768 C764 1.401 . S
C768 C767 1.396 . S
C769 C764 1.499 . S
C769 H770 0.959 . S
C769 H771 0.960 . S
C769 H772 0.961 . S
H770 C769 0.959 . S
H771 C769 0.960 . S
H772 C769 0.961 . S
O773 Co748 1.967 . S
O773 C781 1.258 . S
O774 Co749 1.941 . S
O774 C781 1.266 . S
H775 C777 0.959 . S
H776 C777 0.961 . S
C777 C767 1.510 . S
C777 H775 0.959 . S
C777 H776 0.961 . S
C777 H778 0.960 . S
H778 C777 0.960 . S
H779 N759 0.862 . S
O780 Co748 1.920 . S
O780 C753 1.289 . S
C781 O773 1.258 . S
C781 O774 1.266 . S
Co782 O785 1.970 . S
Co782 N799 1.989 . S
Co782 O807 1.967 . S
Co782 O814 1.920 . S
Co783 O786 1.966 . S
Co783 N792 2.022 . S
Co783 N800 1.993 . S
Co783 O808 1.941 . S
C784 O785 1.258 . S
C784 O786 1.263 . S
O785 Co782 1.970 . S
O785 C784 1.258 . S
O786 Co783 1.966 . S
O786 C784 1.263 . S
C787 O788 1.235 . S
C787 O814 1.289 . S
O788 C787 1.235 . S
C789 C791 1.400 . S
C789 N792 1.351 . S
C789 C794 1.501 . S
C790 C791 1.387 . S
C790 N793 1.341 . S
C791 C789 1.400 . S
C791 C790 1.387 . S
N792 Co783 2.022 . S
N792 C789 1.351 . S
N792 N793 1.365 . S
N793 C790 1.341 . S
N793 N792 1.365 . S
N793 H813 0.862 . S
C794 C789 1.501 . S
C794 H795 0.961 . S
C794 H796 0.961 . S
C794 H797 0.960 . S
H795 C794 0.961 . S
H796 C794 0.961 . S
H797 C794 0.960 . S
C798 N799 1.342 . S
C798 C802 1.401 . S
C798 C803 1.499 . S
N799 Co782 1.989 . S
N799 C798 1.342 . S
N799 N800 1.388 . S
N800 Co783 1.993 . S
N800 N799 1.388 . S
N800 C801 1.346 . S
C801 N800 1.346 . S
C801 C802 1.396 . S
C801 C811 1.510 . S
C802 C798 1.401 . S
C802 C801 1.396 . S
C803 C798 1.499 . S
C803 H804 0.959 . S
C803 H805 0.960 . S
C803 H806 0.961 . S
H804 C803 0.959 . S
H805 C803 0.960 . S
H806 C803 0.961 . S
O807 Co782 1.967 . S
O807 C815 1.258 . S
O808 Co783 1.941 . S
O808 C815 1.266 . S
H809 C811 0.959 . S
H810 C811 0.961 . S
C811 C801 1.510 . S
C811 H809 0.959 . S
C811 H810 0.961 . S
C811 H812 0.960 . S
H812 C811 0.960 . S
H813 N793 0.862 . S
O814 Co782 1.920 . S
O814 C787 1.289 . S
C815 O807 1.258 . S
C815 O808 1.266 . S
Co816 O819 1.970 . S
Co816 N833 1.989 . S
Co816 O841 1.967 . S
Co816 O848 1.920 . S
Co817 O820 1.966 . S
Co817 N826 2.022 . S
Co817 N834 1.993 . S
Co817 O842 1.941 . S
C818 O819 1.258 . S
C818 O820 1.263 . S
O819 Co816 1.970 . S
O819 C818 1.258 . S
O820 Co817 1.966 . S
O820 C818 1.263 . S
C821 O822 1.235 . S
C821 O848 1.289 . S
O822 C821 1.235 . S
C823 C825 1.400 . S
C823 N826 1.351 . S
C823 C828 1.501 . S
C824 C825 1.387 . S
C824 N827 1.341 . S
C825 C823 1.400 . S
C825 C824 1.387 . S
N826 Co817 2.022 . S
N826 C823 1.351 . S
N826 N827 1.365 . S
N827 C824 1.341 . S
N827 N826 1.365 . S
N827 H847 0.862 . S
C828 C823 1.501 . S
C828 H829 0.961 . S
C828 H830 0.961 . S
C828 H831 0.960 . S
H829 C828 0.961 . S
H830 C828 0.961 . S
H831 C828 0.960 . S
C832 N833 1.342 . S
C832 C836 1.401 . S
C832 C837 1.499 . S
N833 Co816 1.989 . S
N833 C832 1.342 . S
N833 N834 1.388 . S
N834 Co817 1.993 . S
N834 N833 1.388 . S
N834 C835 1.346 . S
C835 N834 1.346 . S
C835 C836 1.396 . S
C835 C845 1.510 . S
C836 C832 1.401 . S
C836 C835 1.396 . S
C837 C832 1.499 . S
C837 H838 0.959 . S
C837 H839 0.960 . S
C837 H840 0.961 . S
H838 C837 0.959 . S
H839 C837 0.960 . S
H840 C837 0.961 . S
O841 Co816 1.967 . S
O841 C849 1.258 . S
O842 Co817 1.941 . S
O842 C849 1.266 . S
H843 C845 0.959 . S
H844 C845 0.961 . S
C845 C835 1.510 . S
C845 H843 0.959 . S
C845 H844 0.961 . S
C845 H846 0.960 . S
H846 C845 0.960 . S
H847 N827 0.862 . S
O848 Co816 1.920 . S
O848 C821 1.289 . S
C849 O841 1.258 . S
C849 O842 1.266 . S
Co850 O853 1.970 . S
Co850 N867 1.989 . S
Co850 O875 1.967 . S
Co850 O882 1.920 . S
Co851 O854 1.966 . S
Co851 N860 2.022 . S
Co851 N868 1.993 . S
Co851 O876 1.941 . S
C852 O853 1.258 . S
C852 O854 1.263 . S
O853 Co850 1.970 . S
O853 C852 1.258 . S
O854 Co851 1.966 . S
O854 C852 1.263 . S
C855 O856 1.235 . S
C855 O882 1.289 . S
O856 C855 1.235 . S
C857 C859 1.400 . S
C857 N860 1.351 . S
C857 C862 1.501 . S
C858 C859 1.387 . S
C858 N861 1.341 . S
C859 C857 1.400 . S
C859 C858 1.387 . S
N860 Co851 2.022 . S
N860 C857 1.351 . S
N860 N861 1.365 . S
N861 C858 1.341 . S
N861 N860 1.365 . S
N861 H881 0.862 . S
C862 C857 1.501 . S
C862 H863 0.961 . S
C862 H864 0.961 . S
C862 H865 0.960 . S
H863 C862 0.961 . S
H864 C862 0.961 . S
H865 C862 0.960 . S
C866 N867 1.342 . S
C866 C870 1.401 . S
C866 C871 1.499 . S
N867 Co850 1.989 . S
N867 C866 1.342 . S
N867 N868 1.388 . S
N868 Co851 1.993 . S
N868 N867 1.388 . S
N868 C869 1.346 . S
C869 N868 1.346 . S
C869 C870 1.396 . S
C869 C879 1.510 . S
C870 C866 1.401 . S
C870 C869 1.396 . S
C871 C866 1.499 . S
C871 H872 0.959 . S
C871 H873 0.960 . S
C871 H874 0.961 . S
H872 C871 0.959 . S
H873 C871 0.960 . S
H874 C871 0.961 . S
O875 Co850 1.967 . S
O875 C883 1.258 . S
O876 Co851 1.941 . S
O876 C883 1.266 . S
H877 C879 0.959 . S
H878 C879 0.961 . S
C879 C869 1.510 . S
C879 H877 0.959 . S
C879 H878 0.961 . S
C879 H880 0.960 . S
H880 C879 0.960 . S
H881 N861 0.862 . S
O882 Co850 1.920 . S
O882 C855 1.289 . S
C883 O875 1.258 . S
C883 O876 1.266 . S
Co884 O887 1.970 . S
Co884 N901 1.989 . S
Co884 O909 1.967 . S
Co884 O916 1.920 . S
Co885 O888 1.966 . S
Co885 N894 2.022 . S
Co885 N902 1.993 . S
Co885 O910 1.941 . S
C886 O887 1.258 . S
C886 O888 1.263 . S
O887 Co884 1.970 . S
O887 C886 1.258 . S
O888 Co885 1.966 . S
O888 C886 1.263 . S
C889 O890 1.235 . S
C889 O916 1.289 . S
O890 C889 1.235 . S
C891 C893 1.400 . S
C891 N894 1.351 . S
C891 C896 1.501 . S
C892 C893 1.387 . S
C892 N895 1.341 . S
C893 C891 1.400 . S
C893 C892 1.387 . S
N894 Co885 2.022 . S
N894 C891 1.351 . S
N894 N895 1.365 . S
N895 C892 1.341 . S
N895 N894 1.365 . S
N895 H915 0.862 . S
C896 C891 1.501 . S
C896 H897 0.961 . S
C896 H898 0.961 . S
C896 H899 0.960 . S
H897 C896 0.961 . S
H898 C896 0.961 . S
H899 C896 0.960 . S
C900 N901 1.342 . S
C900 C904 1.401 . S
C900 C905 1.499 . S
N901 Co884 1.989 . S
N901 C900 1.342 . S
N901 N902 1.388 . S
N902 Co885 1.993 . S
N902 N901 1.388 . S
N902 C903 1.346 . S
C903 N902 1.346 . S
C903 C904 1.396 . S
C903 C913 1.510 . S
C904 C900 1.401 . S
C904 C903 1.396 . S
C905 C900 1.499 . S
C905 H906 0.959 . S
C905 H907 0.960 . S
C905 H908 0.961 . S
H906 C905 0.959 . S
H907 C905 0.960 . S
H908 C905 0.961 . S
O909 Co884 1.967 . S
O909 C917 1.258 . S
O910 Co885 1.941 . S
O910 C917 1.266 . S
H911 C913 0.959 . S
H912 C913 0.961 . S
C913 C903 1.510 . S
C913 H911 0.959 . S
C913 H912 0.961 . S
C913 H914 0.960 . S
H914 C913 0.960 . S
H915 N895 0.862 . S
O916 Co884 1.920 . S
O916 C889 1.289 . S
C917 O909 1.258 . S
C917 O910 1.266 . S
Co918 O921 1.970 . S
Co918 N935 1.989 . S
Co918 O943 1.967 . S
Co918 O950 1.920 . S
Co919 O922 1.966 . S
Co919 N928 2.022 . S
Co919 N936 1.993 . S
Co919 O944 1.941 . S
C920 O921 1.258 . S
C920 O922 1.263 . S
O921 Co918 1.970 . S
O921 C920 1.258 . S
O922 Co919 1.966 . S
O922 C920 1.263 . S
C923 O924 1.235 . S
C923 O950 1.289 . S
O924 C923 1.235 . S
C925 C927 1.400 . S
C925 N928 1.351 . S
C925 C930 1.501 . S
C926 C927 1.387 . S
C926 N929 1.341 . S
C927 C925 1.400 . S
C927 C926 1.387 . S
N928 Co919 2.022 . S
N928 C925 1.351 . S
N928 N929 1.365 . S
N929 C926 1.341 . S
N929 N928 1.365 . S
N929 H949 0.862 . S
C930 C925 1.501 . S
C930 H931 0.961 . S
C930 H932 0.961 . S
C930 H933 0.960 . S
H931 C930 0.961 . S
H932 C930 0.961 . S
H933 C930 0.960 . S
C934 N935 1.342 . S
C934 C938 1.401 . S
C934 C939 1.499 . S
N935 Co918 1.989 . S
N935 C934 1.342 . S
N935 N936 1.388 . S
N936 Co919 1.993 . S
N936 N935 1.388 . S
N936 C937 1.346 . S
C937 N936 1.346 . S
C937 C938 1.396 . S
C937 C947 1.510 . S
C938 C934 1.401 . S
C938 C937 1.396 . S
C939 C934 1.499 . S
C939 H940 0.959 . S
C939 H941 0.960 . S
C939 H942 0.961 . S
H940 C939 0.959 . S
H941 C939 0.960 . S
H942 C939 0.961 . S
O943 Co918 1.967 . S
O943 C951 1.258 . S
O944 Co919 1.941 . S
O944 C951 1.266 . S
H945 C947 0.959 . S
H946 C947 0.961 . S
C947 C937 1.510 . S
C947 H945 0.959 . S
C947 H946 0.961 . S
C947 H948 0.960 . S
H948 C947 0.960 . S
H949 N929 0.862 . S
O950 Co918 1.920 . S
O950 C923 1.289 . S
C951 O943 1.258 . S
C951 O944 1.266 . S
Co952 O955 1.970 . S
Co952 N969 1.989 . S
Co952 O977 1.967 . S
Co952 O984 1.920 . S
Co953 O956 1.966 . S
Co953 N962 2.022 . S
Co953 N970 1.993 . S
Co953 O978 1.941 . S
C954 O955 1.258 . S
C954 O956 1.263 . S
O955 Co952 1.970 . S
O955 C954 1.258 . S
O956 Co953 1.966 . S
O956 C954 1.263 . S
C957 O958 1.235 . S
C957 O984 1.289 . S
O958 C957 1.235 . S
C959 C961 1.400 . S
C959 N962 1.351 . S
C959 C964 1.501 . S
C960 C961 1.387 . S
C960 N963 1.341 . S
C961 C959 1.400 . S
C961 C960 1.387 . S
N962 Co953 2.022 . S
N962 C959 1.351 . S
N962 N963 1.365 . S
N963 C960 1.341 . S
N963 N962 1.365 . S
N963 H983 0.862 . S
C964 C959 1.501 . S
C964 H965 0.961 . S
C964 H966 0.961 . S
C964 H967 0.960 . S
H965 C964 0.961 . S
H966 C964 0.961 . S
H967 C964 0.960 . S
C968 N969 1.342 . S
C968 C972 1.401 . S
C968 C973 1.499 . S
N969 Co952 1.989 . S
N969 C968 1.342 . S
N969 N970 1.388 . S
N970 Co953 1.993 . S
N970 N969 1.388 . S
N970 C971 1.346 . S
C971 N970 1.346 . S
C971 C972 1.396 . S
C971 C981 1.510 . S
C972 C968 1.401 . S
C972 C971 1.396 . S
C973 C968 1.499 . S
C973 H974 0.959 . S
C973 H975 0.960 . S
C973 H976 0.961 . S
H974 C973 0.959 . S
H975 C973 0.960 . S
H976 C973 0.961 . S
O977 Co952 1.967 . S
O977 C985 1.258 . S
O978 Co953 1.941 . S
O978 C985 1.266 . S
H979 C981 0.959 . S
H980 C981 0.961 . S
C981 C971 1.510 . S
C981 H979 0.959 . S
C981 H980 0.961 . S
C981 H982 0.960 . S
H982 C981 0.960 . S
H983 N963 0.862 . S
O984 Co952 1.920 . S
O984 C957 1.289 . S
C985 O977 1.258 . S
C985 O978 1.266 . S
Co986 O989 1.970 . S
Co986 N1003 1.989 . S
Co986 O1011 1.967 . S
Co986 O1018 1.920 . S
Co987 O990 1.966 . S
Co987 N996 2.022 . S
Co987 N1004 1.993 . S
Co987 O1012 1.941 . S
C988 O989 1.258 . S
C988 O990 1.263 . S
O989 Co986 1.970 . S
O989 C988 1.258 . S
O990 Co987 1.966 . S
O990 C988 1.263 . S
C991 O992 1.235 . S
C991 O1018 1.289 . S
O992 C991 1.235 . S
C993 C995 1.400 . S
C993 N996 1.351 . S
C993 C998 1.501 . S
C994 C995 1.387 . S
C994 N997 1.341 . S
C995 C993 1.400 . S
C995 C994 1.387 . S
N996 Co987 2.022 . S
N996 C993 1.351 . S
N996 N997 1.365 . S
N997 C994 1.341 . S
N997 N996 1.365 . S
N997 H1017 0.862 . S
C998 C993 1.501 . S
C998 H999 0.961 . S
C998 H1000 0.961 . S
C998 H1001 0.960 . S
H999 C998 0.961 . S
H1000 C998 0.961 . S
H1001 C998 0.960 . S
C1002 N1003 1.342 . S
C1002 C1006 1.401 . S
C1002 C1007 1.499 . S
N1003 Co986 1.989 . S
N1003 C1002 1.342 . S
N1003 N1004 1.388 . S
N1004 Co987 1.993 . S
N1004 N1003 1.388 . S
N1004 C1005 1.346 . S
C1005 N1004 1.346 . S
C1005 C1006 1.396 . S
C1005 C1015 1.510 . S
C1006 C1002 1.401 . S
C1006 C1005 1.396 . S
C1007 C1002 1.499 . S
C1007 H1008 0.959 . S
C1007 H1009 0.960 . S
C1007 H1010 0.961 . S
H1008 C1007 0.959 . S
H1009 C1007 0.960 . S
H1010 C1007 0.961 . S
O1011 Co986 1.967 . S
O1011 C1019 1.258 . S
O1012 Co987 1.941 . S
O1012 C1019 1.266 . S
H1013 C1015 0.959 . S
H1014 C1015 0.961 . S
C1015 C1005 1.510 . S
C1015 H1013 0.959 . S
C1015 H1014 0.961 . S
C1015 H1016 0.960 . S
H1016 C1015 0.960 . S
H1017 N997 0.862 . S
O1018 Co986 1.920 . S
O1018 C991 1.289 . S
C1019 O1011 1.258 . S
C1019 O1012 1.266 . S
Co1020 O1023 1.970 . S
Co1020 N1037 1.989 . S
Co1020 O1045 1.967 . S
Co1020 O1052 1.920 . S
Co1021 O1024 1.966 . S
Co1021 N1030 2.022 . S
Co1021 N1038 1.993 . S
Co1021 O1046 1.941 . S
C1022 O1023 1.258 . S
C1022 O1024 1.263 . S
O1023 Co1020 1.970 . S
O1023 C1022 1.258 . S
O1024 Co1021 1.966 . S
O1024 C1022 1.263 . S
C1025 O1026 1.235 . S
C1025 O1052 1.289 . S
O1026 C1025 1.235 . S
C1027 C1029 1.400 . S
C1027 N1030 1.351 . S
C1027 C1032 1.501 . S
C1028 C1029 1.387 . S
C1028 N1031 1.341 . S
C1029 C1027 1.400 . S
C1029 C1028 1.387 . S
N1030 Co1021 2.022 . S
N1030 C1027 1.351 . S
N1030 N1031 1.365 . S
N1031 C1028 1.341 . S
N1031 N1030 1.365 . S
N1031 H1051 0.862 . S
C1032 C1027 1.501 . S
C1032 H1033 0.961 . S
C1032 H1034 0.961 . S
C1032 H1035 0.960 . S
H1033 C1032 0.961 . S
H1034 C1032 0.961 . S
H1035 C1032 0.960 . S
C1036 N1037 1.342 . S
C1036 C1040 1.401 . S
C1036 C1041 1.499 . S
N1037 Co1020 1.989 . S
N1037 C1036 1.342 . S
N1037 N1038 1.388 . S
N1038 Co1021 1.993 . S
N1038 N1037 1.388 . S
N1038 C1039 1.346 . S
C1039 N1038 1.346 . S
C1039 C1040 1.396 . S
C1039 C1049 1.510 . S
C1040 C1036 1.401 . S
C1040 C1039 1.396 . S
C1041 C1036 1.499 . S
C1041 H1042 0.959 . S
C1041 H1043 0.960 . S
C1041 H1044 0.961 . S
H1042 C1041 0.959 . S
H1043 C1041 0.960 . S
H1044 C1041 0.961 . S
O1045 Co1020 1.967 . S
O1045 C1053 1.258 . S
O1046 Co1021 1.941 . S
O1046 C1053 1.266 . S
H1047 C1049 0.959 . S
H1048 C1049 0.961 . S
C1049 C1039 1.510 . S
C1049 H1047 0.959 . S
C1049 H1048 0.961 . S
C1049 H1050 0.960 . S
H1050 C1049 0.960 . S
H1051 N1031 0.862 . S
O1052 Co1020 1.920 . S
O1052 C1025 1.289 . S
C1053 O1045 1.258 . S
C1053 O1046 1.266 . S
Co1054 O1057 1.970 . S
Co1054 N1071 1.989 . S
Co1054 O1079 1.967 . S
Co1054 O1086 1.920 . S
Co1055 O1058 1.966 . S
Co1055 N1064 2.022 . S
Co1055 N1072 1.993 . S
Co1055 O1080 1.941 . S
C1056 O1057 1.258 . S
C1056 O1058 1.263 . S
O1057 Co1054 1.970 . S
O1057 C1056 1.258 . S
O1058 Co1055 1.966 . S
O1058 C1056 1.263 . S
C1059 O1060 1.235 . S
C1059 O1086 1.289 . S
O1060 C1059 1.235 . S
C1061 C1063 1.400 . S
C1061 N1064 1.351 . S
C1061 C1066 1.501 . S
C1062 C1063 1.387 . S
C1062 N1065 1.341 . S
C1063 C1061 1.400 . S
C1063 C1062 1.387 . S
N1064 Co1055 2.022 . S
N1064 C1061 1.351 . S
N1064 N1065 1.365 . S
N1065 C1062 1.341 . S
N1065 N1064 1.365 . S
N1065 H1085 0.862 . S
C1066 C1061 1.501 . S
C1066 H1067 0.961 . S
C1066 H1068 0.961 . S
C1066 H1069 0.960 . S
H1067 C1066 0.961 . S
H1068 C1066 0.961 . S
H1069 C1066 0.960 . S
C1070 N1071 1.342 . S
C1070 C1074 1.401 . S
C1070 C1075 1.499 . S
N1071 Co1054 1.989 . S
N1071 C1070 1.342 . S
N1071 N1072 1.388 . S
N1072 Co1055 1.993 . S
N1072 N1071 1.388 . S
N1072 C1073 1.346 . S
C1073 N1072 1.346 . S
C1073 C1074 1.396 . S
C1073 C1083 1.510 . S
C1074 C1070 1.401 . S
C1074 C1073 1.396 . S
C1075 C1070 1.499 . S
C1075 H1076 0.959 . S
C1075 H1077 0.960 . S
C1075 H1078 0.961 . S
H1076 C1075 0.959 . S
H1077 C1075 0.960 . S
H1078 C1075 0.961 . S
O1079 Co1054 1.967 . S
O1079 C1087 1.258 . S
O1080 Co1055 1.941 . S
O1080 C1087 1.266 . S
H1081 C1083 0.959 . S
H1082 C1083 0.961 . S
C1083 C1073 1.510 . S
C1083 H1081 0.959 . S
C1083 H1082 0.961 . S
C1083 H1084 0.960 . S
H1084 C1083 0.960 . S
H1085 N1065 0.862 . S
O1086 Co1054 1.920 . S
O1086 C1059 1.289 . S
C1087 O1079 1.258 . S
C1087 O1080 1.266 . S
Co1088 O1091 1.970 . S
Co1088 N1105 1.989 . S
Co1088 O1113 1.967 . S
Co1088 O1120 1.920 . S
Co1089 O1092 1.966 . S
Co1089 N1098 2.022 . S
Co1089 N1106 1.993 . S
Co1089 O1114 1.941 . S
C1090 O1091 1.258 . S
C1090 O1092 1.263 . S
O1091 Co1088 1.970 . S
O1091 C1090 1.258 . S
O1092 Co1089 1.966 . S
O1092 C1090 1.263 . S
C1093 O1094 1.235 . S
C1093 O1120 1.289 . S
O1094 C1093 1.235 . S
C1095 C1097 1.400 . S
C1095 N1098 1.351 . S
C1095 C1100 1.501 . S
C1096 C1097 1.387 . S
C1096 N1099 1.341 . S
C1097 C1095 1.400 . S
C1097 C1096 1.387 . S
N1098 Co1089 2.022 . S
N1098 C1095 1.351 . S
N1098 N1099 1.365 . S
N1099 C1096 1.341 . S
N1099 N1098 1.365 . S
N1099 H1119 0.862 . S
C1100 C1095 1.501 . S
C1100 H1101 0.961 . S
C1100 H1102 0.961 . S
C1100 H1103 0.960 . S
H1101 C1100 0.961 . S
H1102 C1100 0.961 . S
H1103 C1100 0.960 . S
C1104 N1105 1.342 . S
C1104 C1108 1.401 . S
C1104 C1109 1.499 . S
N1105 Co1088 1.989 . S
N1105 C1104 1.342 . S
N1105 N1106 1.388 . S
N1106 Co1089 1.993 . S
N1106 N1105 1.388 . S
N1106 C1107 1.346 . S
C1107 N1106 1.346 . S
C1107 C1108 1.396 . S
C1107 C1117 1.510 . S
C1108 C1104 1.401 . S
C1108 C1107 1.396 . S
C1109 C1104 1.499 . S
C1109 H1110 0.959 . S
C1109 H1111 0.960 . S
C1109 H1112 0.961 . S
H1110 C1109 0.959 . S
H1111 C1109 0.960 . S
H1112 C1109 0.961 . S
O1113 Co1088 1.967 . S
O1113 C1121 1.258 . S
O1114 Co1089 1.941 . S
O1114 C1121 1.266 . S
H1115 C1117 0.959 . S
H1116 C1117 0.961 . S
C1117 C1107 1.510 . S
C1117 H1115 0.959 . S
C1117 H1116 0.961 . S
C1117 H1118 0.960 . S
H1118 C1117 0.960 . S
H1119 N1099 0.862 . S
O1120 Co1088 1.920 . S
O1120 C1093 1.289 . S
C1121 O1113 1.258 . S
C1121 O1114 1.266 . S
Co1122 O1125 1.970 . S
Co1122 N1139 1.989 . S
Co1122 O1147 1.967 . S
Co1122 O1154 1.920 . S
Co1123 O1126 1.966 . S
Co1123 N1132 2.022 . S
Co1123 N1140 1.993 . S
Co1123 O1148 1.941 . S
C1124 O1125 1.258 . S
C1124 O1126 1.263 . S
O1125 Co1122 1.970 . S
O1125 C1124 1.258 . S
O1126 Co1123 1.966 . S
O1126 C1124 1.263 . S
C1127 O1128 1.235 . S
C1127 O1154 1.289 . S
O1128 C1127 1.235 . S
C1129 C1131 1.400 . S
C1129 N1132 1.351 . S
C1129 C1134 1.501 . S
C1130 C1131 1.387 . S
C1130 N1133 1.341 . S
C1131 C1129 1.400 . S
C1131 C1130 1.387 . S
N1132 Co1123 2.022 . S
N1132 C1129 1.351 . S
N1132 N1133 1.365 . S
N1133 C1130 1.341 . S
N1133 N1132 1.365 . S
N1133 H1153 0.862 . S
C1134 C1129 1.501 . S
C1134 H1135 0.961 . S
C1134 H1136 0.961 . S
C1134 H1137 0.960 . S
H1135 C1134 0.961 . S
H1136 C1134 0.961 . S
H1137 C1134 0.960 . S
C1138 N1139 1.342 . S
C1138 C1142 1.401 . S
C1138 C1143 1.499 . S
N1139 Co1122 1.989 . S
N1139 C1138 1.342 . S
N1139 N1140 1.388 . S
N1140 Co1123 1.993 . S
N1140 N1139 1.388 . S
N1140 C1141 1.346 . S
C1141 N1140 1.346 . S
C1141 C1142 1.396 . S
C1141 C1151 1.510 . S
C1142 C1138 1.401 . S
C1142 C1141 1.396 . S
C1143 C1138 1.499 . S
C1143 H1144 0.959 . S
C1143 H1145 0.960 . S
C1143 H1146 0.961 . S
H1144 C1143 0.959 . S
H1145 C1143 0.960 . S
H1146 C1143 0.961 . S
O1147 Co1122 1.967 . S
O1147 C1155 1.258 . S
O1148 Co1123 1.941 . S
O1148 C1155 1.266 . S
H1149 C1151 0.959 . S
H1150 C1151 0.961 . S
C1151 C1141 1.510 . S
C1151 H1149 0.959 . S
C1151 H1150 0.961 . S
C1151 H1152 0.960 . S
H1152 C1151 0.960 . S
H1153 N1133 0.862 . S
O1154 Co1122 1.920 . S
O1154 C1127 1.289 . S
C1155 O1147 1.258 . S
C1155 O1148 1.266 . S
Co1156 O1159 1.970 . S
Co1156 N1173 1.989 . S
Co1156 O1181 1.967 . S
Co1156 O1188 1.920 . S
Co1157 O1160 1.966 . S
Co1157 N1166 2.022 . S
Co1157 N1174 1.993 . S
Co1157 O1182 1.941 . S
C1158 O1159 1.258 . S
C1158 O1160 1.263 . S
O1159 Co1156 1.970 . S
O1159 C1158 1.258 . S
O1160 Co1157 1.966 . S
O1160 C1158 1.263 . S
C1161 O1162 1.235 . S
C1161 O1188 1.289 . S
O1162 C1161 1.235 . S
C1163 C1165 1.400 . S
C1163 N1166 1.351 . S
C1163 C1168 1.501 . S
C1164 C1165 1.387 . S
C1164 N1167 1.341 . S
C1165 C1163 1.400 . S
C1165 C1164 1.387 . S
N1166 Co1157 2.022 . S
N1166 C1163 1.351 . S
N1166 N1167 1.365 . S
N1167 C1164 1.341 . S
N1167 N1166 1.365 . S
N1167 H1187 0.862 . S
C1168 C1163 1.501 . S
C1168 H1169 0.961 . S
C1168 H1170 0.961 . S
C1168 H1171 0.960 . S
H1169 C1168 0.961 . S
H1170 C1168 0.961 . S
H1171 C1168 0.960 . S
C1172 N1173 1.342 . S
C1172 C1176 1.401 . S
C1172 C1177 1.499 . S
N1173 Co1156 1.989 . S
N1173 C1172 1.342 . S
N1173 N1174 1.388 . S
N1174 Co1157 1.993 . S
N1174 N1173 1.388 . S
N1174 C1175 1.346 . S
C1175 N1174 1.346 . S
C1175 C1176 1.396 . S
C1175 C1185 1.510 . S
C1176 C1172 1.401 . S
C1176 C1175 1.396 . S
C1177 C1172 1.499 . S
C1177 H1178 0.959 . S
C1177 H1179 0.960 . S
C1177 H1180 0.961 . S
H1178 C1177 0.959 . S
H1179 C1177 0.960 . S
H1180 C1177 0.961 . S
O1181 Co1156 1.967 . S
O1181 C1189 1.258 . S
O1182 Co1157 1.941 . S
O1182 C1189 1.266 . S
H1183 C1185 0.959 . S
H1184 C1185 0.961 . S
C1185 C1175 1.510 . S
C1185 H1183 0.959 . S
C1185 H1184 0.961 . S
C1185 H1186 0.960 . S
H1186 C1185 0.960 . S
H1187 N1167 0.862 . S
O1188 Co1156 1.920 . S
O1188 C1161 1.289 . S
C1189 O1181 1.258 . S
C1189 O1182 1.266 . S
Co1190 O1193 1.970 . S
Co1190 N1207 1.989 . S
Co1190 O1215 1.967 . S
Co1190 O1222 1.920 . S
Co1191 O1194 1.966 . S
Co1191 N1200 2.022 . S
Co1191 N1208 1.993 . S
Co1191 O1216 1.941 . S
C1192 O1193 1.258 . S
C1192 O1194 1.263 . S
O1193 Co1190 1.970 . S
O1193 C1192 1.258 . S
O1194 Co1191 1.966 . S
O1194 C1192 1.263 . S
C1195 O1196 1.235 . S
C1195 O1222 1.289 . S
O1196 C1195 1.235 . S
C1197 C1199 1.400 . S
C1197 N1200 1.351 . S
C1197 C1202 1.501 . S
C1198 C1199 1.387 . S
C1198 N1201 1.341 . S
C1199 C1197 1.400 . S
C1199 C1198 1.387 . S
N1200 Co1191 2.022 . S
N1200 C1197 1.351 . S
N1200 N1201 1.365 . S
N1201 C1198 1.341 . S
N1201 N1200 1.365 . S
N1201 H1221 0.862 . S
C1202 C1197 1.501 . S
C1202 H1203 0.961 . S
C1202 H1204 0.961 . S
C1202 H1205 0.960 . S
H1203 C1202 0.961 . S
H1204 C1202 0.961 . S
H1205 C1202 0.960 . S
C1206 N1207 1.342 . S
C1206 C1210 1.401 . S
C1206 C1211 1.499 . S
N1207 Co1190 1.989 . S
N1207 C1206 1.342 . S
N1207 N1208 1.388 . S
N1208 Co1191 1.993 . S
N1208 N1207 1.388 . S
N1208 C1209 1.346 . S
C1209 N1208 1.346 . S
C1209 C1210 1.396 . S
C1209 C1219 1.510 . S
C1210 C1206 1.401 . S
C1210 C1209 1.396 . S
C1211 C1206 1.499 . S
C1211 H1212 0.959 . S
C1211 H1213 0.960 . S
C1211 H1214 0.961 . S
H1212 C1211 0.959 . S
H1213 C1211 0.960 . S
H1214 C1211 0.961 . S
O1215 Co1190 1.967 . S
O1215 C1223 1.258 . S
O1216 Co1191 1.941 . S
O1216 C1223 1.266 . S
H1217 C1219 0.959 . S
H1218 C1219 0.961 . S
C1219 C1209 1.510 . S
C1219 H1217 0.959 . S
C1219 H1218 0.961 . S
C1219 H1220 0.960 . S
H1220 C1219 0.960 . S
H1221 N1201 0.862 . S
O1222 Co1190 1.920 . S
O1222 C1195 1.289 . S
C1223 O1215 1.258 . S
C1223 O1216 1.266 . S
H1224 C1230 0.930 . S
H1225 C1234 0.930 . S
H1226 C1239 0.929 . S
H1227 C1237 0.929 . S
H1228 C1232 0.929 . S
H1229 C1238 0.929 . S
C1230 H1224 0.930 . S
C1230 C1231 1.367 . S
C1230 C1238 1.378 . S
C1231 C1230 1.367 . S
C1231 C1239 1.433 . S
C1232 H1228 0.929 . S
C1232 C1234 1.378 . S
C1232 C1236 1.350 . S
C1233 C1236 1.463 . S
C1233 C1238 1.350 . S
C1233 N1241 1.427 . S
C1234 H1225 0.930 . S
C1234 C1232 1.378 . S
C1234 C1235 1.367 . S
C1235 C1234 1.367 . S
C1235 C1237 1.433 . S
C1236 C1232 1.350 . S
C1236 C1233 1.463 . S
C1236 N1240 1.427 . S
C1237 H1227 0.929 . S
C1237 C1235 1.433 . S
C1237 N1240 1.384 . S
C1238 H1229 0.929 . S
C1238 C1230 1.378 . S
C1238 C1233 1.350 . S
C1239 H1226 0.929 . S
C1239 C1231 1.433 . S
C1239 N1241 1.384 . S
N1240 C1236 1.427 . S
N1240 C1237 1.384 . S
N1241 C1233 1.427 . S
N1241 C1239 1.384 . S
H1242 C1248 0.930 . S
H1243 C1252 0.930 . S
H1244 C1257 0.929 . S
H1245 C1255 0.929 . S
H1246 C1250 0.929 . S
H1247 C1256 0.929 . S
C1248 H1242 0.930 . S
C1248 C1249 1.367 . S
C1248 C1256 1.378 . S
C1249 C1248 1.367 . S
C1249 C1257 1.433 . S
C1250 H1246 0.929 . S
C1250 C1252 1.378 . S
C1250 C1254 1.350 . S
C1251 C1254 1.463 . S
C1251 C1256 1.350 . S
C1251 N1259 1.427 . S
C1252 H1243 0.930 . S
C1252 C1250 1.378 . S
C1252 C1253 1.367 . S
C1253 C1252 1.367 . S
C1253 C1255 1.433 1_556 S
C1254 C1250 1.350 . S
C1254 C1251 1.463 . S
C1254 N1258 1.427 . S
C1255 H1245 0.929 . S
C1255 C1253 1.433 1_554 S
C1255 N1258 1.384 1_554 S
C1256 H1247 0.929 . S
C1256 C1248 1.378 . S
C1256 C1251 1.350 . S
C1257 H1244 0.929 . S
C1257 C1249 1.433 . S
C1257 N1259 1.384 . S
N1258 C1254 1.427 . S
N1258 C1255 1.384 1_556 S
N1259 C1251 1.427 . S
N1259 C1257 1.384 . S
H1260 C1266 0.930 . S
H1261 C1270 0.930 . S
H1262 C1275 0.929 . S
H1263 C1273 0.929 . S
H1264 C1268 0.929 . S
H1265 C1274 0.929 . S
C1266 H1260 0.930 . S
C1266 C1267 1.367 . S
C1266 C1274 1.378 . S
C1267 C1266 1.367 . S
C1267 C1275 1.433 . S
C1268 H1264 0.929 . S
C1268 C1270 1.378 . S
C1268 C1272 1.350 . S
C1269 C1272 1.463 . S
C1269 C1274 1.350 . S
C1269 N1277 1.427 . S
C1270 H1261 0.930 . S
C1270 C1268 1.378 . S
C1270 C1271 1.367 . S
C1271 C1270 1.367 . S
C1271 C1273 1.433 . S
C1272 C1268 1.350 . S
C1272 C1269 1.463 . S
C1272 N1276 1.427 . S
C1273 H1263 0.929 . S
C1273 C1271 1.433 . S
C1273 N1276 1.384 . S
C1274 H1265 0.929 . S
C1274 C1266 1.378 . S
C1274 C1269 1.350 . S
C1275 H1262 0.929 . S
C1275 C1267 1.433 . S
C1275 N1277 1.384 . S
N1276 C1272 1.427 . S
N1276 C1273 1.384 . S
N1277 C1269 1.427 . S
N1277 C1275 1.384 . S
H1278 C1284 0.930 . S
H1279 C1288 0.930 . S
H1280 C1293 0.929 . S
H1281 C1291 0.929 . S
H1282 C1286 0.929 . S
H1283 C1292 0.929 . S
C1284 H1278 0.930 . S
C1284 C1285 1.367 . S
C1284 C1292 1.378 . S
C1285 C1284 1.367 . S
C1285 C1293 1.433 . S
C1286 H1282 0.929 . S
C1286 C1288 1.378 . S
C1286 C1290 1.350 . S
C1287 C1290 1.463 . S
C1287 C1292 1.350 . S
C1287 N1295 1.427 . S
C1288 H1279 0.930 . S
C1288 C1286 1.378 . S
C1288 C1289 1.367 . S
C1289 C1288 1.367 . S
C1289 C1291 1.433 . S
C1290 C1286 1.350 . S
C1290 C1287 1.463 . S
C1290 N1294 1.427 . S
C1291 H1281 0.929 . S
C1291 C1289 1.433 . S
C1291 N1294 1.384 . S
C1292 H1283 0.929 . S
C1292 C1284 1.378 . S
C1292 C1287 1.350 . S
C1293 H1280 0.929 . S
C1293 C1285 1.433 . S
C1293 N1295 1.384 . S
N1294 C1290 1.427 . S
N1294 C1291 1.384 . S
N1295 C1287 1.427 . S
N1295 C1293 1.384 . S
H1296 C1302 0.930 . S
H1297 C1306 0.930 . S
H1298 C1311 0.929 . S
H1299 C1309 0.929 . S
H1300 C1304 0.929 . S
H1301 C1310 0.929 . S
C1302 H1296 0.930 . S
C1302 C1303 1.367 . S
C1302 C1310 1.378 . S
C1303 C1302 1.367 . S
C1303 C1311 1.433 . S
C1304 H1300 0.929 . S
C1304 C1306 1.378 . S
C1304 C1308 1.350 . S
C1305 C1308 1.463 . S
C1305 C1310 1.350 . S
C1305 N1313 1.427 . S
C1306 H1297 0.930 . S
C1306 C1304 1.378 . S
C1306 C1307 1.367 . S
C1307 C1306 1.367 . S
C1307 C1309 1.433 . S
C1308 C1304 1.350 . S
C1308 C1305 1.463 . S
C1308 N1312 1.427 . S
C1309 H1299 0.929 . S
C1309 C1307 1.433 . S
C1309 N1312 1.384 . S
C1310 H1301 0.929 . S
C1310 C1302 1.378 . S
C1310 C1305 1.350 . S
C1311 H1298 0.929 . S
C1311 C1303 1.433 . S
C1311 N1313 1.384 . S
N1312 C1308 1.427 . S
N1312 C1309 1.384 . S
N1313 C1305 1.427 . S
N1313 C1311 1.384 . S
H1314 C1320 0.930 . S
H1315 C1324 0.930 . S
H1316 C1329 0.929 . S
H1317 C1327 0.929 . S
H1318 C1322 0.929 . S
H1319 C1328 0.929 . S
C1320 H1314 0.930 . S
C1320 C1321 1.367 . S
C1320 C1328 1.378 . S
C1321 C1320 1.367 . S
C1321 C1329 1.433 . S
C1322 H1318 0.929 . S
C1322 C1324 1.378 . S
C1322 C1326 1.350 . S
C1323 C1326 1.463 . S
C1323 C1328 1.350 . S
C1323 N1331 1.427 . S
C1324 H1315 0.930 . S
C1324 C1322 1.378 . S
C1324 C1325 1.367 . S
C1325 C1324 1.367 . S
C1325 C1327 1.433 . S
C1326 C1322 1.350 . S
C1326 C1323 1.463 . S
C1326 N1330 1.427 . S
C1327 H1317 0.929 . S
C1327 C1325 1.433 . S
C1327 N1330 1.384 . S
C1328 H1319 0.929 . S
C1328 C1320 1.378 . S
C1328 C1323 1.350 . S
C1329 H1316 0.929 . S
C1329 C1321 1.433 . S
C1329 N1331 1.384 . S
N1330 C1326 1.427 . S
N1330 C1327 1.384 . S
N1331 C1323 1.427 . S
N1331 C1329 1.384 . S
H1332 C1338 0.930 . S
H1333 C1342 0.930 . S
H1334 C1347 0.929 . S
H1335 C1345 0.929 . S
H1336 C1340 0.929 . S
H1337 C1346 0.929 . S
C1338 H1332 0.930 . S
C1338 C1339 1.367 . S
C1338 C1346 1.378 . S
C1339 C1338 1.367 . S
C1339 C1347 1.433 . S
C1340 H1336 0.929 . S
C1340 C1342 1.378 . S
C1340 C1344 1.350 . S
C1341 C1344 1.463 . S
C1341 C1346 1.350 . S
C1341 N1349 1.427 . S
C1342 H1333 0.930 . S
C1342 C1340 1.378 . S
C1342 C1343 1.367 . S
C1343 C1342 1.367 . S
C1343 C1345 1.433 . S
C1344 C1340 1.350 . S
C1344 C1341 1.463 . S
C1344 N1348 1.427 . S
C1345 H1335 0.929 . S
C1345 C1343 1.433 . S
C1345 N1348 1.384 . S
C1346 H1337 0.929 . S
C1346 C1338 1.378 . S
C1346 C1341 1.350 . S
C1347 H1334 0.929 . S
C1347 C1339 1.433 . S
C1347 N1349 1.384 . S
N1348 C1344 1.427 . S
N1348 C1345 1.384 . S
N1349 C1341 1.427 . S
N1349 C1347 1.384 . S
H1350 C1356 0.930 . S
H1351 C1360 0.930 . S
H1352 C1365 0.929 . S
H1353 C1363 0.929 . S
H1354 C1358 0.929 . S
H1355 C1364 0.929 . S
C1356 H1350 0.930 . S
C1356 C1357 1.367 . S
C1356 C1364 1.378 . S
C1357 C1356 1.367 . S
C1357 C1365 1.433 . S
C1358 H1354 0.929 . S
C1358 C1360 1.378 . S
C1358 C1362 1.350 . S
C1359 C1362 1.463 . S
C1359 C1364 1.350 . S
C1359 N1367 1.427 . S
C1360 H1351 0.930 . S
C1360 C1358 1.378 . S
C1360 C1361 1.367 . S
C1361 C1360 1.367 . S
C1361 C1363 1.433 . S
C1362 C1358 1.350 . S
C1362 C1359 1.463 . S
C1362 N1366 1.427 . S
C1363 H1353 0.929 . S
C1363 C1361 1.433 . S
C1363 N1366 1.384 . S
C1364 H1355 0.929 . S
C1364 C1356 1.378 . S
C1364 C1359 1.350 . S
C1365 H1352 0.929 . S
C1365 C1357 1.433 . S
C1365 N1367 1.384 . S
N1366 C1362 1.427 . S
N1366 C1363 1.384 . S
N1367 C1359 1.427 . S
N1367 C1365 1.384 . S
H1368 C1374 0.930 . S
H1369 C1378 0.930 . S
H1370 C1383 0.929 . S
H1371 C1381 0.929 . S
H1372 C1376 0.929 . S
H1373 C1382 0.929 . S
C1374 H1368 0.930 . S
C1374 C1375 1.367 . S
C1374 C1382 1.378 . S
C1375 C1374 1.367 . S
C1375 C1383 1.433 . S
C1376 H1372 0.929 . S
C1376 C1378 1.378 . S
C1376 C1380 1.350 . S
C1377 C1380 1.463 . S
C1377 C1382 1.350 . S
C1377 N1385 1.427 . S
C1378 H1369 0.930 . S
C1378 C1376 1.378 . S
C1378 C1379 1.367 . S
C1379 C1378 1.367 . S
C1379 C1381 1.433 . S
C1380 C1376 1.350 . S
C1380 C1377 1.463 . S
C1380 N1384 1.427 . S
C1381 H1371 0.929 . S
C1381 C1379 1.433 . S
C1381 N1384 1.384 . S
C1382 H1373 0.929 . S
C1382 C1374 1.378 . S
C1382 C1377 1.350 . S
C1383 H1370 0.929 . S
C1383 C1375 1.433 . S
C1383 N1385 1.384 . S
N1384 C1380 1.427 . S
N1384 C1381 1.384 . S
N1385 C1377 1.427 . S
N1385 C1383 1.384 . S
H1386 C1392 0.930 . S
H1387 C1396 0.930 . S
H1388 C1401 0.929 . S
H1389 C1399 0.929 . S
H1390 C1394 0.929 . S
H1391 C1400 0.929 . S
C1392 H1386 0.930 . S
C1392 C1393 1.367 . S
C1392 C1400 1.378 . S
C1393 C1392 1.367 . S
C1393 C1401 1.433 . S
C1394 H1390 0.929 . S
C1394 C1396 1.378 . S
C1394 C1398 1.350 . S
C1395 C1398 1.463 . S
C1395 C1400 1.350 . S
C1395 N1403 1.427 . S
C1396 H1387 0.930 . S
C1396 C1394 1.378 . S
C1396 C1397 1.367 . S
C1397 C1396 1.367 . S
C1397 C1399 1.433 . S
C1398 C1394 1.350 . S
C1398 C1395 1.463 . S
C1398 N1402 1.427 . S
C1399 H1389 0.929 . S
C1399 C1397 1.433 . S
C1399 N1402 1.384 . S
C1400 H1391 0.929 . S
C1400 C1392 1.378 . S
C1400 C1395 1.350 . S
C1401 H1388 0.929 . S
C1401 C1393 1.433 . S
C1401 N1403 1.384 . S
N1402 C1398 1.427 . S
N1402 C1399 1.384 . S
N1403 C1395 1.427 . S
N1403 C1401 1.384 . S
H1404 C1410 0.930 . S
H1405 C1414 0.930 . S
H1406 C1419 0.929 . S
H1407 C1417 0.929 . S
H1408 C1412 0.929 . S
H1409 C1418 0.929 . S
C1410 H1404 0.930 . S
C1410 C1411 1.367 . S
C1410 C1418 1.378 . S
C1411 C1410 1.367 . S
C1411 C1419 1.433 . S
C1412 H1408 0.929 . S
C1412 C1414 1.378 . S
C1412 C1416 1.350 . S
C1413 C1416 1.463 . S
C1413 C1418 1.350 . S
C1413 N1421 1.427 . S
C1414 H1405 0.930 . S
C1414 C1412 1.378 . S
C1414 C1415 1.367 . S
C1415 C1414 1.367 . S
C1415 C1417 1.433 . S
C1416 C1412 1.350 . S
C1416 C1413 1.463 . S
C1416 N1420 1.427 . S
C1417 H1407 0.929 . S
C1417 C1415 1.433 . S
C1417 N1420 1.384 . S
C1418 H1409 0.929 . S
C1418 C1410 1.378 . S
C1418 C1413 1.350 . S
C1419 H1406 0.929 . S
C1419 C1411 1.433 . S
C1419 N1421 1.384 . S
N1420 C1416 1.427 . S
N1420 C1417 1.384 . S
N1421 C1413 1.427 . S
N1421 C1419 1.384 . S
H1422 C1428 0.930 . S
H1423 C1432 0.930 . S
H1424 C1437 0.929 . S
H1425 C1435 0.929 . S
H1426 C1430 0.929 . S
H1427 C1436 0.929 . S
C1428 H1422 0.930 . S
C1428 C1429 1.367 . S
C1428 C1436 1.378 . S
C1429 C1428 1.367 . S
C1429 C1437 1.433 . S
C1430 H1426 0.929 . S
C1430 C1432 1.378 . S
C1430 C1434 1.350 . S
C1431 C1434 1.463 . S
C1431 C1436 1.350 . S
C1431 N1439 1.427 . S
C1432 H1423 0.930 . S
C1432 C1430 1.378 . S
C1432 C1433 1.367 . S
C1433 C1432 1.367 . S
C1433 C1435 1.433 . S
C1434 C1430 1.350 . S
C1434 C1431 1.463 . S
C1434 N1438 1.427 . S
C1435 H1425 0.929 . S
C1435 C1433 1.433 . S
C1435 N1438 1.384 . S
C1436 H1427 0.929 . S
C1436 C1428 1.378 . S
C1436 C1431 1.350 . S
C1437 H1424 0.929 . S
C1437 C1429 1.433 . S
C1437 N1439 1.384 . S
N1438 C1434 1.427 . S
N1438 C1435 1.384 . S
N1439 C1431 1.427 . S
N1439 C1437 1.384 . S
H1440 C1446 0.930 . S
H1441 C1450 0.930 . S
H1442 C1455 0.929 . S
H1443 C1453 0.929 . S
H1444 C1448 0.929 . S
H1445 C1454 0.929 . S
C1446 H1440 0.930 . S
C1446 C1447 1.367 . S
C1446 C1454 1.378 . S
C1447 C1446 1.367 . S
C1447 C1455 1.433 . S
C1448 H1444 0.929 . S
C1448 C1450 1.378 . S
C1448 C1452 1.350 . S
C1449 C1452 1.463 1_655 S
C1449 C1454 1.350 . S
C1449 N1457 1.427 . S
C1450 H1441 0.930 . S
C1450 C1448 1.378 . S
C1450 C1451 1.367 . S
C1451 C1450 1.367 . S
C1451 C1453 1.433 . S
C1452 C1448 1.350 . S
C1452 C1449 1.463 1_455 S
C1452 N1456 1.427 . S
C1453 H1443 0.929 . S
C1453 C1451 1.433 . S
C1453 N1456 1.384 . S
C1454 H1445 0.929 . S
C1454 C1446 1.378 . S
C1454 C1449 1.350 . S
C1455 H1442 0.929 . S
C1455 C1447 1.433 . S
C1455 N1457 1.384 . S
N1456 C1452 1.427 . S
N1456 C1453 1.384 . S
N1457 C1449 1.427 . S
N1457 C1455 1.384 . S
H1458 C1464 0.930 . S
H1459 C1468 0.930 . S
H1460 C1473 0.929 . S
H1461 C1471 0.929 . S
H1462 C1466 0.929 . S
H1463 C1472 0.929 . S
C1464 H1458 0.930 . S
C1464 C1465 1.367 . S
C1464 C1472 1.378 . S
C1465 C1464 1.367 . S
C1465 C1473 1.433 . S
C1466 H1462 0.929 . S
C1466 C1468 1.378 . S
C1466 C1470 1.350 . S
C1467 C1470 1.463 . S
C1467 C1472 1.350 . S
C1467 N1475 1.427 . S
C1468 H1459 0.930 . S
C1468 C1466 1.378 . S
C1468 C1469 1.367 . S
C1469 C1468 1.367 . S
C1469 C1471 1.433 . S
C1470 C1466 1.350 . S
C1470 C1467 1.463 . S
C1470 N1474 1.427 . S
C1471 H1461 0.929 . S
C1471 C1469 1.433 . S
C1471 N1474 1.384 . S
C1472 H1463 0.929 . S
C1472 C1464 1.378 . S
C1472 C1467 1.350 . S
C1473 H1460 0.929 . S
C1473 C1465 1.433 . S
C1473 N1475 1.384 . S
N1474 C1470 1.427 . S
N1474 C1471 1.384 . S
N1475 C1467 1.427 . S
N1475 C1473 1.384 . S
H1476 C1482 0.930 . S
H1477 C1486 0.930 . S
H1478 C1491 0.929 . S
H1479 C1489 0.929 . S
H1480 C1484 0.929 1_565 S
H1481 C1490 0.929 1_545 S
C1482 H1476 0.930 . S
C1482 C1483 1.367 . S
C1482 C1490 1.378 . S
C1483 C1482 1.367 . S
C1483 C1491 1.433 . S
C1484 H1480 0.929 1_545 S
C1484 C1486 1.378 . S
C1484 C1488 1.350 . S
C1485 C1488 1.463 1_565 S
C1485 C1490 1.350 . S
C1485 N1493 1.427 . S
C1486 H1477 0.930 . S
C1486 C1484 1.378 . S
C1486 C1487 1.367 . S
C1487 C1486 1.367 . S
C1487 C1489 1.433 . S
C1488 C1484 1.350 . S
C1488 C1485 1.463 1_545 S
C1488 N1492 1.427 . S
C1489 H1479 0.929 . S
C1489 C1487 1.433 . S
C1489 N1492 1.384 . S
C1490 H1481 0.929 1_565 S
C1490 C1482 1.378 . S
C1490 C1485 1.350 . S
C1491 H1478 0.929 . S
C1491 C1483 1.433 . S
C1491 N1493 1.384 . S
N1492 C1488 1.427 . S
N1492 C1489 1.384 . S
N1493 C1485 1.427 . S
N1493 C1491 1.384 . S
H1494 C1500 0.930 . S
H1495 C1504 0.930 . S
H1496 C1509 0.929 . S
H1497 C1507 0.929 . S
H1498 C1502 0.929 . S
H1499 C1508 0.929 . S
C1500 H1494 0.930 . S
C1500 C1501 1.367 . S
C1500 C1508 1.378 . S
C1501 C1500 1.367 . S
C1501 C1509 1.433 . S
C1502 H1498 0.929 . S
C1502 C1504 1.378 . S
C1502 C1506 1.350 . S
C1503 C1506 1.463 1_565 S
C1503 C1508 1.350 . S
C1503 N1511 1.427 . S
C1504 H1495 0.930 . S
C1504 C1502 1.378 . S
C1504 C1505 1.367 . S
C1505 C1504 1.367 . S
C1505 C1507 1.433 . S
C1506 C1502 1.350 . S
C1506 C1503 1.463 1_545 S
C1506 N1510 1.427 . S
C1507 H1497 0.929 . S
C1507 C1505 1.433 . S
C1507 N1510 1.384 . S
C1508 H1499 0.929 . S
C1508 C1500 1.378 . S
C1508 C1503 1.350 . S
C1509 H1496 0.929 . S
C1509 C1501 1.433 . S
C1509 N1511 1.384 . S
N1510 C1506 1.427 . S
N1510 C1507 1.384 . S
N1511 C1503 1.427 . S
N1511 C1509 1.384 . S
H1512 C1518 0.930 . S
H1513 C1522 0.930 . S
H1514 C1527 0.929 . S
H1515 C1525 0.929 . S
H1516 C1520 0.929 . S
H1517 C1526 0.929 . S
C1518 H1512 0.930 . S
C1518 C1519 1.367 . S
C1518 C1526 1.378 . S
C1519 C1518 1.367 . S
C1519 C1527 1.433 . S
C1520 H1516 0.929 . S
C1520 C1522 1.378 . S
C1520 C1524 1.350 . S
C1521 C1524 1.463 1_655 S
C1521 C1526 1.350 . S
C1521 N1529 1.427 . S
C1522 H1513 0.930 . S
C1522 C1520 1.378 . S
C1522 C1523 1.367 . S
C1523 C1522 1.367 . S
C1523 C1525 1.433 . S
C1524 C1520 1.350 . S
C1524 C1521 1.463 1_455 S
C1524 N1528 1.427 . S
C1525 H1515 0.929 . S
C1525 C1523 1.433 . S
C1525 N1528 1.384 . S
C1526 H1517 0.929 . S
C1526 C1518 1.378 . S
C1526 C1521 1.350 . S
C1527 H1514 0.929 . S
C1527 C1519 1.433 . S
C1527 N1529 1.384 . S
N1528 C1524 1.427 . S
N1528 C1525 1.384 . S
N1529 C1521 1.427 . S
N1529 C1527 1.384 . S
H1530 C1536 0.930 . S
H1531 C1540 0.930 . S
H1532 C1545 0.929 . S
H1533 C1543 0.929 . S
H1534 C1538 0.929 . S
H1535 C1544 0.929 . S
C1536 H1530 0.930 . S
C1536 C1537 1.367 . S
C1536 C1544 1.378 . S
C1537 C1536 1.367 . S
C1537 C1545 1.433 . S
C1538 H1534 0.929 . S
C1538 C1540 1.378 . S
C1538 C1542 1.350 . S
C1539 C1542 1.463 . S
C1539 C1544 1.350 . S
C1539 N1547 1.427 . S
C1540 H1531 0.930 . S
C1540 C1538 1.378 . S
C1540 C1541 1.367 . S
C1541 C1540 1.367 . S
C1541 C1543 1.433 . S
C1542 C1538 1.350 . S
C1542 C1539 1.463 . S
C1542 N1546 1.427 . S
C1543 H1533 0.929 . S
C1543 C1541 1.433 . S
C1543 N1546 1.384 . S
C1544 H1535 0.929 . S
C1544 C1536 1.378 . S
C1544 C1539 1.350 . S
C1545 H1532 0.929 . S
C1545 C1537 1.433 . S
C1545 N1547 1.384 . S
N1546 C1542 1.427 . S
N1546 C1543 1.384 . S
N1547 C1539 1.427 . S
N1547 C1545 1.384 . S
H1548 C1554 0.930 . S
H1549 C1558 0.930 . S
H1550 C1563 0.929 . S
H1551 C1561 0.929 . S
H1552 C1556 0.929 . S
H1553 C1562 0.929 . S
C1554 H1548 0.930 . S
C1554 C1555 1.367 . S
C1554 C1562 1.378 . S
C1555 C1554 1.367 . S
C1555 C1563 1.433 . S
C1556 H1552 0.929 . S
C1556 C1558 1.378 . S
C1556 C1560 1.350 . S
C1557 C1560 1.463 . S
C1557 C1562 1.350 . S
C1557 N1565 1.427 . S
C1558 H1549 0.930 . S
C1558 C1556 1.378 . S
C1558 C1559 1.367 . S
C1559 C1558 1.367 . S
C1559 C1561 1.433 . S
C1560 C1556 1.350 . S
C1560 C1557 1.463 . S
C1560 N1564 1.427 . S
C1561 H1551 0.929 . S
C1561 C1559 1.433 . S
C1561 N1564 1.384 . S
C1562 H1553 0.929 . S
C1562 C1554 1.378 . S
C1562 C1557 1.350 . S
C1563 H1550 0.929 . S
C1563 C1555 1.433 . S
C1563 N1565 1.384 . S
N1564 C1560 1.427 . S
N1564 C1561 1.384 . S
N1565 C1557 1.427 . S
N1565 C1563 1.384 . S
H1566 C1572 0.930 . S
H1567 C1576 0.930 . S
H1568 C1581 0.929 . S
H1569 C1579 0.929 . S
H1570 C1574 0.929 . S
H1571 C1580 0.929 . S
C1572 H1566 0.930 . S
C1572 C1573 1.367 1_545 S
C1572 C1580 1.378 . S
C1573 C1572 1.367 1_565 S
C1573 C1581 1.433 . S
C1574 H1570 0.929 . S
C1574 C1576 1.378 . S
C1574 C1578 1.348 . S
C1575 C1578 1.463 1_545 S
C1575 C1580 1.358 . S
C1575 N1583 1.419 1_545 S
C1576 H1567 0.930 . S
C1576 C1574 1.378 . S
C1576 C1577 1.367 1_565 S
C1577 C1576 1.367 1_545 S
C1577 C1579 1.433 . S
C1578 C1574 1.348 . S
C1578 C1575 1.463 1_565 S
C1578 N1582 1.430 1_565 S
C1579 H1569 0.929 . S
C1579 C1577 1.433 . S
C1579 N1582 1.384 . S
C1580 H1571 0.929 . S
C1580 C1572 1.378 . S
C1580 C1575 1.358 . S
C1581 H1568 0.929 . S
C1581 C1573 1.433 . S
C1581 N1583 1.384 . S
N1582 C1578 1.430 1_545 S
N1582 C1579 1.384 . S
N1583 C1575 1.419 1_565 S
N1583 C1581 1.384 . S
H1584 C1590 0.930 . S
H1585 C1594 0.930 . S
H1586 C1599 0.929 . S
H1587 C1597 0.929 . S
H1588 C1592 0.929 . S
H1589 C1598 0.929 . S
C1590 H1584 0.930 . S
C1590 C1591 1.367 1_455 S
C1590 C1598 1.378 . S
C1591 C1590 1.367 1_655 S
C1591 C1599 1.433 . S
C1592 H1588 0.929 . S
C1592 C1594 1.378 . S
C1592 C1596 1.333 1_655 S
C1593 C1596 1.463 1_655 S
C1593 C1598 1.353 1_655 S
C1593 N1601 1.424 . S
C1594 H1585 0.930 . S
C1594 C1592 1.378 . S
C1594 C1595 1.367 1_655 S
C1595 C1594 1.367 1_455 S
C1595 C1597 1.433 . S
C1596 C1592 1.333 1_455 S
C1596 C1593 1.463 1_455 S
C1596 N1600 1.446 . S
C1597 H1587 0.929 . S
C1597 C1595 1.433 . S
C1597 N1600 1.384 . S
C1598 H1589 0.929 . S
C1598 C1590 1.378 . S
C1598 C1593 1.353 1_455 S
C1599 H1586 0.929 . S
C1599 C1591 1.433 . S
C1599 N1601 1.384 . S
N1600 C1596 1.446 . S
N1600 C1597 1.384 . S
N1601 C1593 1.424 . S
N1601 C1599 1.384 . S
H1602 C1608 0.930 . S
H1603 C1612 0.930 . S
H1604 C1617 0.929 . S
H1605 C1615 0.929 . S
H1606 C1610 0.929 . S
H1607 C1616 0.929 . S
C1608 H1602 0.930 . S
C1608 C1609 1.367 . S
C1608 C1616 1.378 . S
C1609 C1608 1.367 . S
C1609 C1617 1.433 . S
C1610 H1606 0.929 . S
C1610 C1612 1.378 . S
C1610 C1614 1.350 . S
C1611 C1614 1.463 . S
C1611 C1616 1.350 . S
C1611 N1619 1.427 . S
C1612 H1603 0.930 . S
C1612 C1610 1.378 . S
C1612 C1613 1.367 . S
C1613 C1612 1.367 . S
C1613 C1615 1.433 . S
C1614 C1610 1.350 . S
C1614 C1611 1.463 . S
C1614 N1618 1.427 . S
C1615 H1605 0.929 . S
C1615 C1613 1.433 . S
C1615 N1618 1.384 . S
C1616 H1607 0.929 . S
C1616 C1608 1.378 . S
C1616 C1611 1.350 . S
C1617 H1604 0.929 . S
C1617 C1609 1.433 . S
C1617 N1619 1.384 . S
N1618 C1614 1.427 . S
N1618 C1615 1.384 . S
N1619 C1611 1.427 . S
N1619 C1617 1.384 . S
H1620 C1626 0.930 . S
H1621 C1630 0.930 . S
H1622 C1635 0.929 . S
H1623 C1633 0.929 . S
H1624 C1628 0.929 . S
H1625 C1634 0.929 . S
C1626 H1620 0.930 . S
C1626 C1627 1.367 1_545 S
C1626 C1634 1.378 . S
C1627 C1626 1.367 1_565 S
C1627 C1635 1.433 . S
C1628 H1624 0.929 . S
C1628 C1630 1.378 . S
C1628 C1632 1.347 . S
C1629 C1632 1.463 1_545 S
C1629 C1634 1.357 . S
C1629 N1637 1.420 1_545 S
C1630 H1621 0.930 . S
C1630 C1628 1.378 . S
C1630 C1631 1.367 1_565 S
C1631 C1630 1.367 1_545 S
C1631 C1633 1.433 . S
C1632 C1628 1.347 . S
C1632 C1629 1.463 1_565 S
C1632 N1636 1.430 1_565 S
C1633 H1623 0.929 . S
C1633 C1631 1.433 . S
C1633 N1636 1.384 . S
C1634 H1625 0.929 . S
C1634 C1626 1.378 . S
C1634 C1629 1.357 . S
C1635 H1622 0.929 . S
C1635 C1627 1.433 . S
C1635 N1637 1.384 . S
N1636 C1632 1.430 1_545 S
N1636 C1633 1.384 . S
N1637 C1629 1.420 1_565 S
N1637 C1635 1.384 . S
H1638 C1644 0.930 . S
H1639 C1648 0.930 . S
H1640 C1653 0.929 . S
H1641 C1651 0.929 . S
H1642 C1646 0.929 . S
H1643 C1652 0.929 . S
C1644 H1638 0.930 . S
C1644 C1645 1.367 . S
C1644 C1652 1.378 . S
C1645 C1644 1.367 . S
C1645 C1653 1.433 1_655 S
C1646 H1642 0.929 . S
C1646 C1648 1.378 . S
C1646 C1650 1.340 . S
C1647 C1650 1.463 1_655 S
C1647 C1652 1.347 . S
C1647 N1655 1.431 1_655 S
C1648 H1639 0.930 . S
C1648 C1646 1.378 . S
C1648 C1649 1.367 . S
C1649 C1648 1.367 . S
C1649 C1651 1.433 1_455 S
C1650 C1646 1.340 . S
C1650 C1647 1.463 1_455 S
C1650 N1654 1.440 1_455 S
C1651 H1641 0.929 . S
C1651 C1649 1.433 1_655 S
C1651 N1654 1.384 . S
C1652 H1643 0.929 . S
C1652 C1644 1.378 . S
C1652 C1647 1.347 . S
C1653 H1640 0.929 . S
C1653 C1645 1.433 1_455 S
C1653 N1655 1.384 . S
N1654 C1650 1.440 1_655 S
N1654 C1651 1.384 . S
N1655 C1647 1.431 1_455 S
N1655 C1653 1.384 . S
H1656 C1662 0.930 . S
H1657 C1666 0.930 . S
H1658 C1671 0.929 . S
H1659 C1669 0.929 . S
H1660 C1664 0.929 . S
H1661 C1670 0.929 . S
C1662 H1656 0.930 . S
C1662 C1663 1.367 . S
C1662 C1670 1.378 . S
C1663 C1662 1.367 . S
C1663 C1671 1.433 . S
C1664 H1660 0.929 . S
C1664 C1666 1.378 . S
C1664 C1668 1.350 . S
C1665 C1668 1.463 . S
C1665 C1670 1.350 . S
C1665 N1673 1.427 . S
C1666 H1657 0.930 . S
C1666 C1664 1.378 . S
C1666 C1667 1.367 . S
C1667 C1666 1.367 . S
C1667 C1669 1.433 . S
C1668 C1664 1.350 . S
C1668 C1665 1.463 . S
C1668 N1672 1.427 . S
C1669 H1659 0.929 . S
C1669 C1667 1.433 . S
C1669 N1672 1.384 . S
C1670 H1661 0.929 . S
C1670 C1662 1.378 . S
C1670 C1665 1.350 . S
C1671 H1658 0.929 . S
C1671 C1663 1.433 . S
C1671 N1673 1.384 . S
N1672 C1668 1.427 . S
N1672 C1669 1.384 . S
N1673 C1665 1.427 . S
N1673 C1671 1.384 . S
H1674 C1680 0.930 . S
H1675 C1684 0.930 . S
H1676 C1689 0.929 . S
H1677 C1687 0.929 . S
H1678 C1682 0.929 . S
H1679 C1688 0.929 . S
C1680 H1674 0.930 . S
C1680 C1681 1.367 . S
C1680 C1688 1.378 . S
C1681 C1680 1.367 . S
C1681 C1689 1.433 . S
C1682 H1678 0.929 . S
C1682 C1684 1.378 . S
C1682 C1686 1.350 . S
C1683 C1686 1.463 . S
C1683 C1688 1.350 . S
C1683 N1691 1.427 . S
C1684 H1675 0.930 . S
C1684 C1682 1.378 . S
C1684 C1685 1.367 . S
C1685 C1684 1.367 . S
C1685 C1687 1.433 . S
C1686 C1682 1.350 . S
C1686 C1683 1.463 . S
C1686 N1690 1.427 . S
C1687 H1677 0.929 . S
C1687 C1685 1.433 . S
C1687 N1690 1.384 . S
C1688 H1679 0.929 . S
C1688 C1680 1.378 . S
C1688 C1683 1.350 . S
C1689 H1676 0.929 . S
C1689 C1681 1.433 . S
C1689 N1691 1.384 . S
N1690 C1686 1.427 . S
N1690 C1687 1.384 . S
N1691 C1683 1.427 . S
N1691 C1689 1.384 . S
H1692 C1698 0.930 . S
H1693 C1702 0.930 . S
H1694 C1707 0.929 . S
H1695 C1705 0.929 . S
H1696 C1700 0.929 . S
H1697 C1706 0.929 . S
C1698 H1692 0.930 . S
C1698 C1699 1.367 . S
C1698 C1706 1.378 . S
C1699 C1698 1.367 . S
C1699 C1707 1.433 . S
C1700 H1696 0.929 . S
C1700 C1702 1.378 . S
C1700 C1704 1.350 . S
C1701 C1704 1.463 . S
C1701 C1706 1.350 . S
C1701 N1709 1.427 . S
C1702 H1693 0.930 . S
C1702 C1700 1.378 . S
C1702 C1703 1.367 . S
C1703 C1702 1.367 . S
C1703 C1705 1.433 . S
C1704 C1700 1.350 . S
C1704 C1701 1.463 . S
C1704 N1708 1.427 . S
C1705 H1695 0.929 . S
C1705 C1703 1.433 . S
C1705 N1708 1.384 . S
C1706 H1697 0.929 . S
C1706 C1698 1.378 . S
C1706 C1701 1.350 . S
C1707 H1694 0.929 . S
C1707 C1699 1.433 . S
C1707 N1709 1.384 . S
N1708 C1704 1.427 . S
N1708 C1705 1.384 . S
N1709 C1701 1.427 . S
N1709 C1707 1.384 . S
H1710 C1716 0.930 . S
H1711 C1720 0.930 . S
H1712 C1725 0.929 . S
H1713 C1723 0.929 . S
H1714 C1718 0.929 . S
H1715 C1724 0.929 . S
C1716 H1710 0.930 . S
C1716 C1717 1.367 . S
C1716 C1724 1.378 . S
C1717 C1716 1.367 . S
C1717 C1725 1.433 . S
C1718 H1714 0.929 . S
C1718 C1720 1.378 . S
C1718 C1722 1.350 . S
C1719 C1722 1.463 . S
C1719 C1724 1.350 . S
C1719 N1727 1.427 . S
C1720 H1711 0.930 . S
C1720 C1718 1.378 . S
C1720 C1721 1.367 . S
C1721 C1720 1.367 . S
C1721 C1723 1.433 . S
C1722 C1718 1.350 . S
C1722 C1719 1.463 . S
C1722 N1726 1.427 . S
C1723 H1713 0.929 . S
C1723 C1721 1.433 . S
C1723 N1726 1.384 . S
C1724 H1715 0.929 . S
C1724 C1716 1.378 . S
C1724 C1719 1.350 . S
C1725 H1712 0.929 . S
C1725 C1717 1.433 . S
C1725 N1727 1.384 . S
N1726 C1722 1.427 . S
N1726 C1723 1.384 . S
N1727 C1719 1.427 . S
N1727 C1725 1.384 . S
H1728 C1734 0.930 . S
H1729 C1738 0.930 . S
H1730 C1743 0.929 . S
H1731 C1741 0.929 . S
H1732 C1736 0.929 . S
H1733 C1742 0.929 . S
C1734 H1728 0.930 . S
C1734 C1735 1.367 . S
C1734 C1742 1.378 . S
C1735 C1734 1.367 . S
C1735 C1743 1.433 . S
C1736 H1732 0.929 . S
C1736 C1738 1.378 . S
C1736 C1740 1.350 . S
C1737 C1740 1.463 . S
C1737 C1742 1.350 . S
C1737 N1745 1.427 . S
C1738 H1729 0.930 . S
C1738 C1736 1.378 . S
C1738 C1739 1.367 . S
C1739 C1738 1.367 . S
C1739 C1741 1.433 . S
C1740 C1736 1.350 . S
C1740 C1737 1.463 . S
C1740 N1744 1.427 . S
C1741 H1731 0.929 . S
C1741 C1739 1.433 . S
C1741 N1744 1.384 . S
C1742 H1733 0.929 . S
C1742 C1734 1.378 . S
C1742 C1737 1.350 . S
C1743 H1730 0.929 . S
C1743 C1735 1.433 . S
C1743 N1745 1.384 . S
N1744 C1740 1.427 . S
N1744 C1741 1.384 . S
N1745 C1737 1.427 . S
N1745 C1743 1.384 . S
H1746 C1752 0.930 . S
H1747 C1756 0.930 . S
H1748 C1761 0.929 . S
H1749 C1759 0.929 . S
H1750 C1754 0.929 . S
H1751 C1760 0.929 . S
C1752 H1746 0.930 . S
C1752 C1753 1.367 . S
C1752 C1760 1.378 . S
C1753 C1752 1.367 . S
C1753 C1761 1.433 . S
C1754 H1750 0.929 . S
C1754 C1756 1.378 . S
C1754 C1758 1.350 . S
C1755 C1758 1.463 . S
C1755 C1760 1.350 . S
C1755 N1763 1.427 . S
C1756 H1747 0.930 . S
C1756 C1754 1.378 . S
C1756 C1757 1.367 . S
C1757 C1756 1.367 . S
C1757 C1759 1.433 . S
C1758 C1754 1.350 . S
C1758 C1755 1.463 . S
C1758 N1762 1.427 . S
C1759 H1749 0.929 . S
C1759 C1757 1.433 . S
C1759 N1762 1.384 . S
C1760 H1751 0.929 . S
C1760 C1752 1.378 . S
C1760 C1755 1.350 . S
C1761 H1748 0.929 . S
C1761 C1753 1.433 . S
C1761 N1763 1.384 . S
N1762 C1758 1.427 . S
N1762 C1759 1.384 . S
N1763 C1755 1.427 . S
N1763 C1761 1.384 . S
H1764 C1770 0.930 . S
H1765 C1774 0.930 . S
H1766 C1779 0.929 . S
H1767 C1777 0.929 . S
H1768 C1772 0.929 . S
H1769 C1778 0.929 . S
C1770 H1764 0.930 . S
C1770 C1771 1.367 . S
C1770 C1778 1.378 . S
C1771 C1770 1.367 . S
C1771 C1779 1.433 . S
C1772 H1768 0.929 . S
C1772 C1774 1.378 1_556 S
C1772 C1776 1.350 . S
C1773 C1776 1.463 . S
C1773 C1778 1.350 . S
C1773 N1781 1.427 . S
C1774 H1765 0.930 . S
C1774 C1772 1.378 1_554 S
C1774 C1775 1.367 . S
C1775 C1774 1.367 . S
C1775 C1777 1.433 . S
C1776 C1772 1.350 . S
C1776 C1773 1.463 . S
C1776 N1780 1.427 . S
C1777 H1767 0.929 . S
C1777 C1775 1.433 . S
C1777 N1780 1.384 1_554 S
C1778 H1769 0.929 . S
C1778 C1770 1.378 . S
C1778 C1773 1.350 . S
C1779 H1766 0.929 . S
C1779 C1771 1.433 . S
C1779 N1781 1.384 . S
N1780 C1776 1.427 . S
N1780 C1777 1.384 1_556 S
N1781 C1773 1.427 . S
N1781 C1779 1.384 . S
H1782 C1788 0.930 . S
H1783 C1792 0.930 . S
H1784 C1797 0.929 . S
H1785 C1795 0.929 . S
H1786 C1790 0.929 . S
H1787 C1796 0.929 . S
C1788 H1782 0.930 . S
C1788 C1789 1.367 . S
C1788 C1796 1.378 1_554 S
C1789 C1788 1.367 . S
C1789 C1797 1.433 . S
C1790 H1786 0.929 . S
C1790 C1792 1.378 . S
C1790 C1794 1.350 . S
C1791 C1794 1.463 . S
C1791 C1796 1.350 . S
C1791 N1799 1.427 . S
C1792 H1783 0.930 . S
C1792 C1790 1.378 . S
C1792 C1793 1.367 . S
C1793 C1792 1.367 . S
C1793 C1795 1.433 . S
C1794 C1790 1.350 . S
C1794 C1791 1.463 . S
C1794 N1798 1.427 . S
C1795 H1785 0.929 . S
C1795 C1793 1.433 . S
C1795 N1798 1.384 . S
C1796 H1787 0.929 . S
C1796 C1788 1.378 1_556 S
C1796 C1791 1.350 . S
C1797 H1784 0.929 . S
C1797 C1789 1.433 . S
C1797 N1799 1.384 1_554 S
N1798 C1794 1.427 . S
N1798 C1795 1.384 . S
N1799 C1791 1.427 . S
N1799 C1797 1.384 1_556 S
H1800 C1806 0.930 . S
H1801 C1810 0.930 . S
H1802 C1815 0.929 . S
H1803 C1813 0.929 . S
H1804 C1808 0.929 . S
H1805 C1814 0.929 . S
C1806 H1800 0.930 . S
C1806 C1807 1.367 . S
C1806 C1814 1.378 . S
C1807 C1806 1.367 . S
C1807 C1815 1.433 . S
C1808 H1804 0.929 . S
C1808 C1810 1.378 1_556 S
C1808 C1812 1.350 . S
C1809 C1812 1.463 . S
C1809 C1814 1.350 . S
C1809 N1817 1.427 . S
C1810 H1801 0.930 . S
C1810 C1808 1.378 1_554 S
C1810 C1811 1.367 . S
C1811 C1810 1.367 . S
C1811 C1813 1.433 . S
C1812 C1808 1.350 . S
C1812 C1809 1.463 . S
C1812 N1816 1.427 . S
C1813 H1803 0.929 . S
C1813 C1811 1.433 . S
C1813 N1816 1.384 1_554 S
C1814 H1805 0.929 . S
C1814 C1806 1.378 . S
C1814 C1809 1.350 . S
C1815 H1802 0.929 . S
C1815 C1807 1.433 . S
C1815 N1817 1.384 . S
N1816 C1812 1.427 . S
N1816 C1813 1.384 1_556 S
N1817 C1809 1.427 . S
N1817 C1815 1.384 . S
H1818 C1824 0.930 . S
H1819 C1828 0.930 . S
H1820 C1833 0.929 . S
H1821 C1831 0.929 . S
H1822 C1826 0.929 . S
H1823 C1832 0.929 . S
C1824 H1818 0.930 . S
C1824 C1825 1.367 . S
C1824 C1832 1.378 . S
C1825 C1824 1.367 . S
C1825 C1833 1.433 . S
C1826 H1822 0.929 . S
C1826 C1828 1.378 . S
C1826 C1830 1.350 . S
C1827 C1830 1.463 . S
C1827 C1832 1.350 . S
C1827 N1835 1.427 . S
C1828 H1819 0.930 . S
C1828 C1826 1.378 . S
C1828 C1829 1.367 . S
C1829 C1828 1.367 . S
C1829 C1831 1.433 . S
C1830 C1826 1.350 . S
C1830 C1827 1.463 . S
C1830 N1834 1.427 . S
C1831 H1821 0.929 . S
C1831 C1829 1.433 . S
C1831 N1834 1.384 . S
C1832 H1823 0.929 . S
C1832 C1824 1.378 . S
C1832 C1827 1.350 . S
C1833 H1820 0.929 . S
C1833 C1825 1.433 . S
C1833 N1835 1.384 . S
N1834 C1830 1.427 . S
N1834 C1831 1.384 . S
N1835 C1827 1.427 . S
N1835 C1833 1.384 . S
H1836 C1842 0.930 . S
H1837 C1846 0.930 . S
H1838 C1851 0.929 . S
H1839 C1849 0.929 . S
H1840 C1844 0.929 . S
H1841 C1850 0.929 . S
C1842 H1836 0.930 . S
C1842 C1843 1.367 . S
C1842 C1850 1.378 . S
C1843 C1842 1.367 . S
C1843 C1851 1.433 . S
C1844 H1840 0.929 . S
C1844 C1846 1.378 . S
C1844 C1848 1.350 . S
C1845 C1848 1.463 . S
C1845 C1850 1.350 . S
C1845 N1853 1.427 . S
C1846 H1837 0.930 . S
C1846 C1844 1.378 . S
C1846 C1847 1.367 . S
C1847 C1846 1.367 . S
C1847 C1849 1.433 . S
C1848 C1844 1.350 . S
C1848 C1845 1.463 . S
C1848 N1852 1.427 . S
C1849 H1839 0.929 . S
C1849 C1847 1.433 . S
C1849 N1852 1.384 . S
C1850 H1841 0.929 . S
C1850 C1842 1.378 . S
C1850 C1845 1.350 . S
C1851 H1838 0.929 . S
C1851 C1843 1.433 . S
C1851 N1853 1.384 . S
N1852 C1848 1.427 . S
N1852 C1849 1.384 . S
N1853 C1845 1.427 . S
N1853 C1851 1.384 . S
H1854 C1860 0.930 . S
H1855 C1864 0.930 . S
H1856 C1869 0.929 . S
H1857 C1867 0.929 . S
H1858 C1862 0.929 . S
H1859 C1868 0.929 . S
C1860 H1854 0.930 . S
C1860 C1861 1.367 . S
C1860 C1868 1.378 . S
C1861 C1860 1.367 . S
C1861 C1869 1.433 . S
C1862 H1858 0.929 . S
C1862 C1864 1.378 . S
C1862 C1866 1.350 . S
C1863 C1866 1.463 . S
C1863 C1868 1.350 . S
C1863 N1871 1.427 . S
C1864 H1855 0.930 . S
C1864 C1862 1.378 . S
C1864 C1865 1.367 . S
C1865 C1864 1.367 . S
C1865 C1867 1.433 . S
C1866 C1862 1.350 . S
C1866 C1863 1.463 . S
C1866 N1870 1.427 . S
C1867 H1857 0.929 . S
C1867 C1865 1.433 . S
C1867 N1870 1.384 . S
C1868 H1859 0.929 . S
C1868 C1860 1.378 . S
C1868 C1863 1.350 . S
C1869 H1856 0.929 . S
C1869 C1861 1.433 . S
C1869 N1871 1.384 . S
N1870 C1866 1.427 . S
N1870 C1867 1.384 . S
N1871 C1863 1.427 . S
N1871 C1869 1.384 . S
H1872 C1878 0.930 . S
H1873 C1882 0.930 . S
H1874 C1887 0.929 . S
H1875 C1885 0.929 . S
H1876 C1880 0.929 . S
H1877 C1886 0.929 . S
C1878 H1872 0.930 . S
C1878 C1879 1.367 1_556 S
C1878 C1886 1.378 . S
C1879 C1878 1.367 1_554 S
C1879 C1887 1.433 . S
C1880 H1876 0.929 . S
C1880 C1882 1.378 . S
C1880 C1884 1.350 . S
C1881 C1884 1.463 . S
C1881 C1886 1.350 1_554 S
C1881 N1889 1.427 . S
C1882 H1873 0.930 . S
C1882 C1880 1.378 . S
C1882 C1883 1.367 . S
C1883 C1882 1.367 . S
C1883 C1885 1.433 1_554 S
C1884 C1880 1.350 . S
C1884 C1881 1.463 . S
C1884 N1888 1.427 1_554 S
C1885 H1875 0.929 . S
C1885 C1883 1.433 1_556 S
C1885 N1888 1.384 . S
C1886 H1877 0.929 . S
C1886 C1878 1.378 . S
C1886 C1881 1.350 1_556 S
C1887 H1874 0.929 . S
C1887 C1879 1.433 . S
C1887 N1889 1.384 . S
N1888 C1884 1.427 1_556 S
N1888 C1885 1.384 . S
N1889 C1881 1.427 . S
N1889 C1887 1.384 . S
H1890 C1896 0.930 . S
H1891 C1900 0.930 . S
H1892 C1905 0.929 . S
H1893 C1903 0.929 . S
H1894 C1898 0.929 . S
H1895 C1904 0.929 . S
C1896 H1890 0.930 . S
C1896 C1897 1.367 . S
C1896 C1904 1.378 . S
C1897 C1896 1.367 . S
C1897 C1905 1.433 1_554 S
C1898 H1894 0.929 . S
C1898 C1900 1.378 . S
C1898 C1902 1.350 1_556 S
C1899 C1902 1.463 . S
C1899 C1904 1.350 . S
C1899 N1907 1.427 1_554 S
C1900 H1891 0.930 . S
C1900 C1898 1.378 . S
C1900 C1901 1.367 1_556 S
C1901 C1900 1.367 1_554 S
C1901 C1903 1.433 . S
C1902 C1898 1.350 1_554 S
C1902 C1899 1.463 . S
C1902 N1906 1.427 . S
C1903 H1893 0.929 . S
C1903 C1901 1.433 . S
C1903 N1906 1.384 . S
C1904 H1895 0.929 . S
C1904 C1896 1.378 . S
C1904 C1899 1.350 . S
C1905 H1892 0.929 . S
C1905 C1897 1.433 1_556 S
C1905 N1907 1.384 . S
N1906 C1902 1.427 . S
N1906 C1903 1.384 . S
N1907 C1899 1.427 1_556 S
N1907 C1905 1.384 . S
H1908 C1914 0.930 . S
H1909 C1918 0.930 . S
H1910 C1923 0.929 . S
H1911 C1921 0.929 . S
H1912 C1916 0.929 . S
H1913 C1922 0.929 . S
C1914 H1908 0.930 . S
C1914 C1915 1.367 . S
C1914 C1922 1.378 . S
C1915 C1914 1.367 . S
C1915 C1923 1.433 . S
C1916 H1912 0.929 . S
C1916 C1918 1.378 . S
C1916 C1920 1.350 . S
C1917 C1920 1.463 . S
C1917 C1922 1.350 . S
C1917 N1925 1.427 . S
C1918 H1909 0.930 . S
C1918 C1916 1.378 . S
C1918 C1919 1.367 . S
C1919 C1918 1.367 . S
C1919 C1921 1.433 1_554 S
C1920 C1916 1.350 . S
C1920 C1917 1.463 . S
C1920 N1924 1.427 . S
C1921 H1911 0.929 . S
C1921 C1919 1.433 1_556 S
C1921 N1924 1.384 1_556 S
C1922 H1913 0.929 . S
C1922 C1914 1.378 . S
C1922 C1917 1.350 . S
C1923 H1910 0.929 . S
C1923 C1915 1.433 . S
C1923 N1925 1.384 . S
N1924 C1920 1.427 . S
N1924 C1921 1.384 1_554 S
N1925 C1917 1.427 . S
N1925 C1923 1.384 . S
H1926 C1932 0.930 . S
H1927 C1936 0.930 . S
H1928 C1941 0.929 . S
H1929 C1939 0.929 . S
H1930 C1934 0.929 . S
H1931 C1940 0.929 . S
C1932 H1926 0.930 . S
C1932 C1933 1.367 . S
C1932 C1940 1.378 . S
C1933 C1932 1.367 . S
C1933 C1941 1.433 . S
C1934 H1930 0.929 . S
C1934 C1936 1.378 . S
C1934 C1938 1.350 . S
C1935 C1938 1.463 . S
C1935 C1940 1.350 . S
C1935 N1943 1.427 . S
C1936 H1927 0.930 . S
C1936 C1934 1.378 . S
C1936 C1937 1.367 . S
C1937 C1936 1.367 . S
C1937 C1939 1.433 . S
C1938 C1934 1.350 . S
C1938 C1935 1.463 . S
C1938 N1942 1.427 . S
C1939 H1929 0.929 . S
C1939 C1937 1.433 . S
C1939 N1942 1.384 . S
C1940 H1931 0.929 . S
C1940 C1932 1.378 . S
C1940 C1935 1.350 . S
C1941 H1928 0.929 . S
C1941 C1933 1.433 . S
C1941 N1943 1.384 . S
N1942 C1938 1.427 . S
N1942 C1939 1.384 . S
N1943 C1935 1.427 . S
N1943 C1941 1.384 . S
H1944 C1950 0.930 . S
H1945 C1954 0.930 . S
H1946 C1959 0.929 . S
H1947 C1957 0.929 . S
H1948 C1952 0.929 . S
H1949 C1958 0.929 . S
C1950 H1944 0.930 . S
C1950 C1951 1.367 . S
C1950 C1958 1.378 . S
C1951 C1950 1.367 . S
C1951 C1959 1.433 . S
C1952 H1948 0.929 . S
C1952 C1954 1.378 . S
C1952 C1956 1.350 . S
C1953 C1956 1.463 . S
C1953 C1958 1.350 . S
C1953 N1961 1.427 . S
C1954 H1945 0.930 . S
C1954 C1952 1.378 . S
C1954 C1955 1.367 . S
C1955 C1954 1.367 . S
C1955 C1957 1.433 . S
C1956 C1952 1.350 . S
C1956 C1953 1.463 . S
C1956 N1960 1.427 . S
C1957 H1947 0.929 . S
C1957 C1955 1.433 . S
C1957 N1960 1.384 . S
C1958 H1949 0.929 . S
C1958 C1950 1.378 . S
C1958 C1953 1.350 . S
C1959 H1946 0.929 . S
C1959 C1951 1.433 . S
C1959 N1961 1.384 . S
N1960 C1956 1.427 . S
N1960 C1957 1.384 . S
N1961 C1953 1.427 . S
N1961 C1959 1.384 . S
H1962 C1968 0.930 . S
H1963 C1972 0.930 . S
H1964 C1977 0.929 . S
H1965 C1975 0.929 . S
H1966 C1970 0.929 . S
H1967 C1976 0.929 . S
C1968 H1962 0.930 . S
C1968 C1969 1.367 . S
C1968 C1976 1.378 . S
C1969 C1968 1.367 . S
C1969 C1977 1.433 . S
C1970 H1966 0.929 . S
C1970 C1972 1.378 . S
C1970 C1974 1.350 . S
C1971 C1974 1.463 . S
C1971 C1976 1.350 . S
C1971 N1979 1.427 . S
C1972 H1963 0.930 . S
C1972 C1970 1.378 . S
C1972 C1973 1.367 . S
C1973 C1972 1.367 . S
C1973 C1975 1.433 . S
C1974 C1970 1.350 . S
C1974 C1971 1.463 . S
C1974 N1978 1.427 . S
C1975 H1965 0.929 . S
C1975 C1973 1.433 . S
C1975 N1978 1.384 . S
C1976 H1967 0.929 . S
C1976 C1968 1.378 . S
C1976 C1971 1.350 . S
C1977 H1964 0.929 . S
C1977 C1969 1.433 . S
C1977 N1979 1.384 . S
N1978 C1974 1.427 . S
N1978 C1975 1.384 . S
N1979 C1971 1.427 . S
N1979 C1977 1.384 . S
H1980 C1986 0.930 . S
H1981 C1990 0.930 . S
H1982 C1995 0.929 . S
H1983 C1993 0.929 . S
H1984 C1988 0.929 . S
H1985 C1994 0.929 . S
C1986 H1980 0.930 . S
C1986 C1987 1.367 . S
C1986 C1994 1.378 . S
C1987 C1986 1.367 . S
C1987 C1995 1.433 . S
C1988 H1984 0.929 . S
C1988 C1990 1.378 . S
C1988 C1992 1.350 . S
C1989 C1992 1.463 . S
C1989 C1994 1.350 . S
C1989 N1997 1.427 . S
C1990 H1981 0.930 . S
C1990 C1988 1.378 . S
C1990 C1991 1.367 . S
C1991 C1990 1.367 . S
C1991 C1993 1.433 . S
C1992 C1988 1.350 . S
C1992 C1989 1.463 . S
C1992 N1996 1.427 . S
C1993 H1983 0.929 . S
C1993 C1991 1.433 . S
C1993 N1996 1.384 . S
C1994 H1985 0.929 . S
C1994 C1986 1.378 . S
C1994 C1989 1.350 . S
C1995 H1982 0.929 . S
C1995 C1987 1.433 . S
C1995 N1997 1.384 . S
N1996 C1992 1.427 . S
N1996 C1993 1.384 . S
N1997 C1989 1.427 . S
N1997 C1995 1.384 . S
H1998 C2004 0.930 . S
H1999 C2008 0.930 1_556 S
H2000 C2013 0.929 . S
H2001 C2011 0.929 . S
H2002 C2006 0.932 1_556 S
H2003 C2012 0.929 . S
C2004 H1998 0.930 . S
C2004 C2005 1.367 . S
C2004 C2012 1.378 . S
C2005 C2004 1.367 . S
C2005 C2013 1.433 1_554 S
C2006 H2002 0.932 1_554 S
C2006 C2008 1.377 . S
C2006 C2010 1.347 . S
C2007 C2010 1.463 . S
C2007 C2012 1.350 . S
C2007 N2015 1.427 1_554 S
C2008 H1999 0.930 1_554 S
C2008 C2006 1.377 . S
C2008 C2009 1.367 . S
C2009 C2008 1.367 . S
C2009 C2011 1.433 . S
C2010 C2006 1.347 . S
C2010 C2007 1.463 . S
C2010 N2014 1.427 . S
C2011 H2001 0.929 . S
C2011 C2009 1.433 . S
C2011 N2014 1.384 . S
C2012 H2003 0.929 . S
C2012 C2004 1.378 . S
C2012 C2007 1.350 . S
C2013 H2000 0.929 . S
C2013 C2005 1.433 1_556 S
C2013 N2015 1.384 . S
N2014 C2010 1.427 . S
N2014 C2011 1.384 . S
N2015 C2007 1.427 1_556 S
N2015 C2013 1.384 . S
H2016 C2022 0.930 . S
H2017 C2026 0.930 . S
H2018 C2031 0.929 . S
H2019 C2029 0.929 . S
H2020 C2024 0.929 . S
H2021 C2030 0.929 . S
C2022 H2016 0.930 . S
C2022 C2023 1.367 . S
C2022 C2030 1.378 . S
C2023 C2022 1.367 . S
C2023 C2031 1.433 . S
C2024 H2020 0.929 . S
C2024 C2026 1.378 . S
C2024 C2028 1.350 . S
C2025 C2028 1.463 . S
C2025 C2030 1.350 . S
C2025 N2033 1.427 . S
C2026 H2017 0.930 . S
C2026 C2024 1.378 . S
C2026 C2027 1.367 . S
C2027 C2026 1.367 . S
C2027 C2029 1.433 . S
C2028 C2024 1.350 . S
C2028 C2025 1.463 . S
C2028 N2032 1.427 . S
C2029 H2019 0.929 . S
C2029 C2027 1.433 . S
C2029 N2032 1.384 . S
C2030 H2021 0.929 . S
C2030 C2022 1.378 . S
C2030 C2025 1.350 . S
C2031 H2018 0.929 . S
C2031 C2023 1.433 . S
C2031 N2033 1.384 . S
N2032 C2028 1.427 . S
N2032 C2029 1.384 . S
N2033 C2025 1.427 . S
N2033 C2031 1.384 . S
H2034 C2040 0.930 . S
H2035 C2044 0.930 . S
H2036 C2049 0.929 . S
H2037 C2047 0.929 . S
H2038 C2042 0.929 . S
H2039 C2048 0.929 . S
C2040 H2034 0.930 . S
C2040 C2041 1.367 . S
C2040 C2048 1.378 . S
C2041 C2040 1.367 . S
C2041 C2049 1.433 . S
C2042 H2038 0.929 . S
C2042 C2044 1.378 . S
C2042 C2046 1.350 . S
C2043 C2046 1.463 . S
C2043 C2048 1.350 . S
C2043 N2051 1.427 . S
C2044 H2035 0.930 . S
C2044 C2042 1.378 . S
C2044 C2045 1.367 . S
C2045 C2044 1.367 . S
C2045 C2047 1.433 . S
C2046 C2042 1.350 . S
C2046 C2043 1.463 . S
C2046 N2050 1.427 . S
C2047 H2037 0.929 . S
C2047 C2045 1.433 . S
C2047 N2050 1.384 . S
C2048 H2039 0.929 . S
C2048 C2040 1.378 . S
C2048 C2043 1.350 . S
C2049 H2036 0.929 . S
C2049 C2041 1.433 . S
C2049 N2051 1.384 . S
N2050 C2046 1.427 . S
N2050 C2047 1.384 . S
N2051 C2043 1.427 . S
N2051 C2049 1.384 . S
H2052 C2058 0.930 . S
H2053 C2062 0.930 . S
H2054 C2067 0.929 . S
H2055 C2065 0.929 . S
H2056 C2060 0.929 . S
H2057 C2066 0.929 . S
C2058 H2052 0.930 . S
C2058 C2059 1.367 . S
C2058 C2066 1.378 . S
C2059 C2058 1.367 . S
C2059 C2067 1.433 . S
C2060 H2056 0.929 . S
C2060 C2062 1.378 . S
C2060 C2064 1.350 . S
C2061 C2064 1.463 . S
C2061 C2066 1.350 . S
C2061 N2069 1.427 . S
C2062 H2053 0.930 . S
C2062 C2060 1.378 . S
C2062 C2063 1.367 . S
C2063 C2062 1.367 . S
C2063 C2065 1.433 . S
C2064 C2060 1.350 . S
C2064 C2061 1.463 . S
C2064 N2068 1.427 . S
C2065 H2055 0.929 . S
C2065 C2063 1.433 . S
C2065 N2068 1.384 . S
C2066 H2057 0.929 . S
C2066 C2058 1.378 . S
C2066 C2061 1.350 . S
C2067 H2054 0.929 . S
C2067 C2059 1.433 . S
C2067 N2069 1.384 . S
N2068 C2064 1.427 . S
N2068 C2065 1.384 . S
N2069 C2061 1.427 . S
N2069 C2067 1.384 . S
H2070 C2076 0.930 . S
H2071 C2080 0.930 . S
H2072 C2085 0.929 . S
H2073 C2083 0.929 . S
H2074 C2078 0.929 . S
H2075 C2084 0.929 . S
C2076 H2070 0.930 . S
C2076 C2077 1.367 . S
C2076 C2084 1.378 . S
C2077 C2076 1.367 . S
C2077 C2085 1.433 . S
C2078 H2074 0.929 . S
C2078 C2080 1.378 . S
C2078 C2082 1.350 . S
C2079 C2082 1.463 . S
C2079 C2084 1.350 . S
C2079 N2087 1.427 . S
C2080 H2071 0.930 . S
C2080 C2078 1.378 . S
C2080 C2081 1.367 . S
C2081 C2080 1.367 . S
C2081 C2083 1.433 . S
C2082 C2078 1.350 . S
C2082 C2079 1.463 . S
C2082 N2086 1.427 . S
C2083 H2073 0.929 . S
C2083 C2081 1.433 . S
C2083 N2086 1.384 . S
C2084 H2075 0.929 . S
C2084 C2076 1.378 . S
C2084 C2079 1.350 . S
C2085 H2072 0.929 . S
C2085 C2077 1.433 . S
C2085 N2087 1.384 . S
N2086 C2082 1.427 . S
N2086 C2083 1.384 . S
N2087 C2079 1.427 . S
N2087 C2085 1.384 . S
H2088 C2094 0.930 . S
H2089 C2098 0.930 . S
H2090 C2103 0.929 . S
H2091 C2101 0.929 . S
H2092 C2096 0.929 . S
H2093 C2102 0.929 . S
C2094 H2088 0.930 . S
C2094 C2095 1.367 . S
C2094 C2102 1.378 . S
C2095 C2094 1.367 . S
C2095 C2103 1.433 . S
C2096 H2092 0.929 . S
C2096 C2098 1.378 . S
C2096 C2100 1.350 . S
C2097 C2100 1.463 . S
C2097 C2102 1.350 . S
C2097 N2105 1.427 . S
C2098 H2089 0.930 . S
C2098 C2096 1.378 . S
C2098 C2099 1.367 . S
C2099 C2098 1.367 . S
C2099 C2101 1.433 . S
C2100 C2096 1.350 . S
C2100 C2097 1.463 . S
C2100 N2104 1.427 . S
C2101 H2091 0.929 . S
C2101 C2099 1.433 . S
C2101 N2104 1.384 . S
C2102 H2093 0.929 . S
C2102 C2094 1.378 . S
C2102 C2097 1.350 . S
C2103 H2090 0.929 . S
C2103 C2095 1.433 . S
C2103 N2105 1.384 . S
N2104 C2100 1.427 . S
N2104 C2101 1.384 . S
N2105 C2097 1.427 . S
N2105 C2103 1.384 . S
H2106 C2112 0.930 . S
H2107 C2116 0.930 . S
H2108 C2121 0.929 . S
H2109 C2119 0.929 . S
H2110 C2114 0.929 . S
H2111 C2120 0.929 . S
C2112 H2106 0.930 . S
C2112 C2113 1.367 . S
C2112 C2120 1.378 . S
C2113 C2112 1.367 . S
C2113 C2121 1.433 . S
C2114 H2110 0.929 . S
C2114 C2116 1.378 . S
C2114 C2118 1.350 . S
C2115 C2118 1.463 . S
C2115 C2120 1.350 . S
C2115 N2123 1.427 . S
C2116 H2107 0.930 . S
C2116 C2114 1.378 . S
C2116 C2117 1.367 . S
C2117 C2116 1.367 . S
C2117 C2119 1.433 . S
C2118 C2114 1.350 . S
C2118 C2115 1.463 . S
C2118 N2122 1.427 . S
C2119 H2109 0.929 . S
C2119 C2117 1.433 . S
C2119 N2122 1.384 . S
C2120 H2111 0.929 . S
C2120 C2112 1.378 . S
C2120 C2115 1.350 . S
C2121 H2108 0.929 . S
C2121 C2113 1.433 . S
C2121 N2123 1.384 . S
N2122 C2118 1.427 . S
N2122 C2119 1.384 . S
N2123 C2115 1.427 . S
N2123 C2121 1.384 . S
H2124 C2130 0.930 . S
H2125 C2134 0.930 . S
H2126 C2139 0.929 . S
H2127 C2137 0.929 . S
H2128 C2132 0.929 . S
H2129 C2138 0.929 . S
C2130 H2124 0.930 . S
C2130 C2131 1.367 . S
C2130 C2138 1.378 . S
C2131 C2130 1.367 . S
C2131 C2139 1.433 . S
C2132 H2128 0.929 . S
C2132 C2134 1.378 . S
C2132 C2136 1.350 . S
C2133 C2136 1.463 . S
C2133 C2138 1.350 . S
C2133 N2141 1.427 . S
C2134 H2125 0.930 . S
C2134 C2132 1.378 . S
C2134 C2135 1.367 . S
C2135 C2134 1.367 . S
C2135 C2137 1.433 . S
C2136 C2132 1.350 . S
C2136 C2133 1.463 . S
C2136 N2140 1.427 . S
C2137 H2127 0.929 . S
C2137 C2135 1.433 . S
C2137 N2140 1.384 . S
C2138 H2129 0.929 . S
C2138 C2130 1.378 . S
C2138 C2133 1.350 . S
C2139 H2126 0.929 . S
C2139 C2131 1.433 . S
C2139 N2141 1.384 . S
N2140 C2136 1.427 . S
N2140 C2137 1.384 . S
N2141 C2133 1.427 . S
N2141 C2139 1.384 . S
H2142 C2148 0.930 . S
H2143 C2152 0.930 . S
H2144 C2157 0.929 . S
H2145 C2155 0.929 . S
H2146 C2150 0.929 . S
H2147 C2156 0.929 . S
C2148 H2142 0.930 . S
C2148 C2149 1.367 . S
C2148 C2156 1.378 . S
C2149 C2148 1.367 . S
C2149 C2157 1.433 . S
C2150 H2146 0.929 . S
C2150 C2152 1.378 . S
C2150 C2154 1.350 . S
C2151 C2154 1.463 . S
C2151 C2156 1.350 . S
C2151 N2159 1.427 . S
C2152 H2143 0.930 . S
C2152 C2150 1.378 . S
C2152 C2153 1.367 . S
C2153 C2152 1.367 . S
C2153 C2155 1.433 . S
C2154 C2150 1.350 . S
C2154 C2151 1.463 . S
C2154 N2158 1.427 . S
C2155 H2145 0.929 . S
C2155 C2153 1.433 . S
C2155 N2158 1.384 . S
C2156 H2147 0.929 . S
C2156 C2148 1.378 . S
C2156 C2151 1.350 . S
C2157 H2144 0.929 . S
C2157 C2149 1.433 . S
C2157 N2159 1.384 . S
N2158 C2154 1.427 . S
N2158 C2155 1.384 . S
N2159 C2151 1.427 . S
N2159 C2157 1.384 . S
H2160 C2166 0.930 . S
H2161 C2170 0.930 . S
H2162 C2175 0.929 . S
H2163 C2173 0.929 . S
H2164 C2168 0.929 . S
H2165 C2174 0.929 . S
C2166 H2160 0.930 . S
C2166 C2167 1.367 . S
C2166 C2174 1.378 . S
C2167 C2166 1.367 . S
C2167 C2175 1.433 . S
C2168 H2164 0.929 . S
C2168 C2170 1.378 . S
C2168 C2172 1.350 . S
C2169 C2172 1.463 . S
C2169 C2174 1.350 . S
C2169 N2177 1.427 . S
C2170 H2161 0.930 . S
C2170 C2168 1.378 . S
C2170 C2171 1.367 . S
C2171 C2170 1.367 . S
C2171 C2173 1.433 . S
C2172 C2168 1.350 . S
C2172 C2169 1.463 . S
C2172 N2176 1.427 . S
C2173 H2163 0.929 . S
C2173 C2171 1.433 . S
C2173 N2176 1.384 . S
C2174 H2165 0.929 . S
C2174 C2166 1.378 . S
C2174 C2169 1.350 . S
C2175 H2162 0.929 . S
C2175 C2167 1.433 . S
C2175 N2177 1.384 . S
N2176 C2172 1.427 . S
N2176 C2173 1.384 . S
N2177 C2169 1.427 . S
N2177 C2175 1.384 . S
H2178 C2184 0.930 . S
H2179 C2188 0.930 . S
H2180 C2193 0.929 . S
H2181 C2191 0.929 . S
H2182 C2186 0.929 . S
H2183 C2192 0.929 . S
C2184 H2178 0.930 . S
C2184 C2185 1.367 . S
C2184 C2192 1.378 . S
C2185 C2184 1.367 . S
C2185 C2193 1.433 . S
C2186 H2182 0.929 . S
C2186 C2188 1.378 . S
C2186 C2190 1.350 . S
C2187 C2190 1.463 . S
C2187 C2192 1.350 . S
C2187 N2195 1.427 . S
C2188 H2179 0.930 . S
C2188 C2186 1.378 . S
C2188 C2189 1.367 . S
C2189 C2188 1.367 . S
C2189 C2191 1.433 . S
C2190 C2186 1.350 . S
C2190 C2187 1.463 . S
C2190 N2194 1.427 . S
C2191 H2181 0.929 . S
C2191 C2189 1.433 . S
C2191 N2194 1.384 . S
C2192 H2183 0.929 . S
C2192 C2184 1.378 . S
C2192 C2187 1.350 . S
C2193 H2180 0.929 . S
C2193 C2185 1.433 . S
C2193 N2195 1.384 . S
N2194 C2190 1.427 . S
N2194 C2191 1.384 . S
N2195 C2187 1.427 . S
N2195 C2193 1.384 . S
H2196 C2202 0.930 . S
H2197 C2206 0.930 . S
H2198 C2211 0.929 . S
H2199 C2209 0.929 . S
H2200 C2204 0.929 . S
H2201 C2210 0.929 . S
C2202 H2196 0.930 . S
C2202 C2203 1.367 . S
C2202 C2210 1.378 . S
C2203 C2202 1.367 . S
C2203 C2211 1.433 . S
C2204 H2200 0.929 . S
C2204 C2206 1.378 . S
C2204 C2208 1.350 . S
C2205 C2208 1.463 . S
C2205 C2210 1.350 . S
C2205 N2213 1.427 . S
C2206 H2197 0.930 . S
C2206 C2204 1.378 . S
C2206 C2207 1.367 . S
C2207 C2206 1.367 . S
C2207 C2209 1.433 . S
C2208 C2204 1.350 . S
C2208 C2205 1.463 . S
C2208 N2212 1.427 . S
C2209 H2199 0.929 . S
C2209 C2207 1.433 . S
C2209 N2212 1.384 . S
C2210 H2201 0.929 . S
C2210 C2202 1.378 . S
C2210 C2205 1.350 . S
C2211 H2198 0.929 . S
C2211 C2203 1.433 . S
C2211 N2213 1.384 . S
N2212 C2208 1.427 . S
N2212 C2209 1.384 . S
N2213 C2205 1.427 . S
N2213 C2211 1.384 . S
H2214 C2220 0.930 . S
H2215 C2224 0.930 . S
H2216 C2229 0.929 . S
H2217 C2227 0.929 . S
H2218 C2222 0.929 . S
H2219 C2228 0.929 . S
C2220 H2214 0.930 . S
C2220 C2221 1.367 . S
C2220 C2228 1.378 . S
C2221 C2220 1.367 . S
C2221 C2229 1.433 . S
C2222 H2218 0.929 . S
C2222 C2224 1.378 . S
C2222 C2226 1.350 . S
C2223 C2226 1.463 . S
C2223 C2228 1.350 . S
C2223 N2231 1.427 . S
C2224 H2215 0.930 . S
C2224 C2222 1.378 . S
C2224 C2225 1.367 . S
C2225 C2224 1.367 . S
C2225 C2227 1.433 . S
C2226 C2222 1.350 . S
C2226 C2223 1.463 . S
C2226 N2230 1.427 . S
C2227 H2217 0.929 . S
C2227 C2225 1.433 . S
C2227 N2230 1.384 . S
C2228 H2219 0.929 . S
C2228 C2220 1.378 . S
C2228 C2223 1.350 . S
C2229 H2216 0.929 . S
C2229 C2221 1.433 . S
C2229 N2231 1.384 . S
N2230 C2226 1.427 . S
N2230 C2227 1.384 . S
N2231 C2223 1.427 . S
N2231 C2229 1.384 . S
H2232 C2238 0.930 . S
H2233 C2242 0.930 . S
H2234 C2247 0.929 . S
H2235 C2245 0.929 . S
H2236 C2240 0.929 . S
H2237 C2246 0.929 . S
C2238 H2232 0.930 . S
C2238 C2239 1.367 . S
C2238 C2246 1.378 . S
C2239 C2238 1.367 . S
C2239 C2247 1.433 . S
C2240 H2236 0.929 . S
C2240 C2242 1.378 . S
C2240 C2244 1.350 . S
C2241 C2244 1.463 . S
C2241 C2246 1.350 . S
C2241 N2249 1.427 . S
C2242 H2233 0.930 . S
C2242 C2240 1.378 . S
C2242 C2243 1.367 . S
C2243 C2242 1.367 . S
C2243 C2245 1.433 . S
C2244 C2240 1.350 . S
C2244 C2241 1.463 . S
C2244 N2248 1.427 . S
C2245 H2235 0.929 . S
C2245 C2243 1.433 . S
C2245 N2248 1.384 . S
C2246 H2237 0.929 . S
C2246 C2238 1.378 . S
C2246 C2241 1.350 . S
C2247 H2234 0.929 . S
C2247 C2239 1.433 . S
C2247 N2249 1.384 . S
N2248 C2244 1.427 . S
N2248 C2245 1.384 . S
N2249 C2241 1.427 . S
N2249 C2247 1.384 . S
H2250 C2256 0.930 . S
H2251 C2260 0.930 . S
H2252 C2265 0.929 . S
H2253 C2263 0.929 . S
H2254 C2258 0.929 . S
H2255 C2264 0.929 . S
C2256 H2250 0.930 . S
C2256 C2257 1.367 . S
C2256 C2264 1.378 . S
C2257 C2256 1.367 . S
C2257 C2265 1.433 . S
C2258 H2254 0.929 . S
C2258 C2260 1.378 . S
C2258 C2262 1.350 . S
C2259 C2262 1.463 . S
C2259 C2264 1.350 . S
C2259 N2267 1.427 . S
C2260 H2251 0.930 . S
C2260 C2258 1.378 . S
C2260 C2261 1.367 . S
C2261 C2260 1.367 . S
C2261 C2263 1.433 . S
C2262 C2258 1.350 . S
C2262 C2259 1.463 . S
C2262 N2266 1.427 . S
C2263 H2253 0.929 . S
C2263 C2261 1.433 . S
C2263 N2266 1.384 . S
C2264 H2255 0.929 . S
C2264 C2256 1.378 . S
C2264 C2259 1.350 . S
C2265 H2252 0.929 . S
C2265 C2257 1.433 . S
C2265 N2267 1.384 . S
N2266 C2262 1.427 . S
N2266 C2263 1.384 . S
N2267 C2259 1.427 . S
N2267 C2265 1.384 . S
H2268 C2274 0.930 . S
H2269 C2278 0.930 . S
H2270 C2283 0.929 . S
H2271 C2281 0.929 . S
H2272 C2276 0.929 . S
H2273 C2282 0.929 . S
C2274 H2268 0.930 . S
C2274 C2275 1.367 . S
C2274 C2282 1.378 . S
C2275 C2274 1.367 . S
C2275 C2283 1.433 . S
C2276 H2272 0.929 . S
C2276 C2278 1.378 . S
C2276 C2280 1.350 . S
C2277 C2280 1.463 . S
C2277 C2282 1.350 . S
C2277 N2285 1.427 . S
C2278 H2269 0.930 . S
C2278 C2276 1.378 . S
C2278 C2279 1.367 . S
C2279 C2278 1.367 . S
C2279 C2281 1.433 . S
C2280 C2276 1.350 . S
C2280 C2277 1.463 . S
C2280 N2284 1.427 . S
C2281 H2271 0.929 . S
C2281 C2279 1.433 . S
C2281 N2284 1.384 . S
C2282 H2273 0.929 . S
C2282 C2274 1.378 . S
C2282 C2277 1.350 . S
C2283 H2270 0.929 . S
C2283 C2275 1.433 . S
C2283 N2285 1.384 . S
N2284 C2280 1.427 . S
N2284 C2281 1.384 . S
N2285 C2277 1.427 . S
N2285 C2283 1.384 . S
H2286 C2292 0.930 . S
H2287 C2296 0.930 . S
H2288 C2301 0.929 . S
H2289 C2299 0.929 . S
H2290 C2294 0.929 . S
H2291 C2300 0.929 . S
C2292 H2286 0.930 . S
C2292 C2293 1.367 . S
C2292 C2300 1.378 . S
C2293 C2292 1.367 . S
C2293 C2301 1.433 . S
C2294 H2290 0.929 . S
C2294 C2296 1.378 . S
C2294 C2298 1.350 . S
C2295 C2298 1.463 . S
C2295 C2300 1.350 . S
C2295 N2303 1.427 . S
C2296 H2287 0.930 . S
C2296 C2294 1.378 . S
C2296 C2297 1.367 . S
C2297 C2296 1.367 . S
C2297 C2299 1.433 . S
C2298 C2294 1.350 . S
C2298 C2295 1.463 . S
C2298 N2302 1.427 . S
C2299 H2289 0.929 . S
C2299 C2297 1.433 . S
C2299 N2302 1.384 . S
C2300 H2291 0.929 . S
C2300 C2292 1.378 . S
C2300 C2295 1.350 . S
C2301 H2288 0.929 . S
C2301 C2293 1.433 . S
C2301 N2303 1.384 . S
N2302 C2298 1.427 . S
N2302 C2299 1.384 . S
N2303 C2295 1.427 . S
N2303 C2301 1.384 . S
H2304 C2310 0.930 . S
H2305 C2314 0.930 . S
H2306 C2319 0.929 . S
H2307 C2317 0.929 . S
H2308 C2312 0.929 . S
H2309 C2318 0.929 . S
C2310 H2304 0.930 . S
C2310 C2311 1.367 . S
C2310 C2318 1.378 . S
C2311 C2310 1.367 . S
C2311 C2319 1.433 . S
C2312 H2308 0.929 . S
C2312 C2314 1.378 . S
C2312 C2316 1.350 . S
C2313 C2316 1.463 . S
C2313 C2318 1.350 . S
C2313 N2321 1.427 . S
C2314 H2305 0.930 . S
C2314 C2312 1.378 . S
C2314 C2315 1.367 . S
C2315 C2314 1.367 . S
C2315 C2317 1.433 . S
C2316 C2312 1.350 . S
C2316 C2313 1.463 . S
C2316 N2320 1.427 . S
C2317 H2307 0.929 . S
C2317 C2315 1.433 . S
C2317 N2320 1.384 . S
C2318 H2309 0.929 . S
C2318 C2310 1.378 . S
C2318 C2313 1.350 . S
C2319 H2306 0.929 . S
C2319 C2311 1.433 . S
C2319 N2321 1.384 . S
N2320 C2316 1.427 . S
N2320 C2317 1.384 . S
N2321 C2313 1.427 . S
N2321 C2319 1.384 . S
H2322 C2328 0.930 . S
H2323 C2332 0.930 . S
H2324 C2337 0.929 . S
H2325 C2335 0.929 . S
H2326 C2330 0.929 . S
H2327 C2336 0.929 . S
C2328 H2322 0.930 . S
C2328 C2329 1.367 . S
C2328 C2336 1.378 . S
C2329 C2328 1.367 . S
C2329 C2337 1.433 . S
C2330 H2326 0.929 . S
C2330 C2332 1.378 . S
C2330 C2334 1.350 . S
C2331 C2334 1.463 . S
C2331 C2336 1.350 . S
C2331 N2339 1.427 . S
C2332 H2323 0.930 . S
C2332 C2330 1.378 . S
C2332 C2333 1.367 . S
C2333 C2332 1.367 . S
C2333 C2335 1.433 . S
C2334 C2330 1.350 . S
C2334 C2331 1.463 . S
C2334 N2338 1.427 . S
C2335 H2325 0.929 . S
C2335 C2333 1.433 . S
C2335 N2338 1.384 . S
C2336 H2327 0.929 . S
C2336 C2328 1.378 . S
C2336 C2331 1.350 . S
C2337 H2324 0.929 . S
C2337 C2329 1.433 . S
C2337 N2339 1.384 . S
N2338 C2334 1.427 . S
N2338 C2335 1.384 . S
N2339 C2331 1.427 . S
N2339 C2337 1.384 . S
H2340 C2346 0.930 . S
H2341 C2350 0.930 . S
H2342 C2355 0.929 . S
H2343 C2353 0.929 . S
H2344 C2348 0.929 . S
H2345 C2354 0.929 . S
C2346 H2340 0.930 . S
C2346 C2347 1.367 . S
C2346 C2354 1.378 . S
C2347 C2346 1.367 . S
C2347 C2355 1.433 . S
C2348 H2344 0.929 . S
C2348 C2350 1.378 . S
C2348 C2352 1.350 . S
C2349 C2352 1.463 . S
C2349 C2354 1.350 . S
C2349 N2357 1.427 . S
C2350 H2341 0.930 . S
C2350 C2348 1.378 . S
C2350 C2351 1.367 . S
C2351 C2350 1.367 . S
C2351 C2353 1.433 . S
C2352 C2348 1.350 . S
C2352 C2349 1.463 . S
C2352 N2356 1.427 . S
C2353 H2343 0.929 . S
C2353 C2351 1.433 . S
C2353 N2356 1.384 . S
C2354 H2345 0.929 . S
C2354 C2346 1.378 . S
C2354 C2349 1.350 . S
C2355 H2342 0.929 . S
C2355 C2347 1.433 . S
C2355 N2357 1.384 . S
N2356 C2352 1.427 . S
N2356 C2353 1.384 . S
N2357 C2349 1.427 . S
N2357 C2355 1.384 . S
H2358 C2364 0.930 . S
H2359 C2368 0.930 . S
H2360 C2373 0.929 . S
H2361 C2371 0.929 . S
H2362 C2366 0.929 . S
H2363 C2372 0.929 . S
C2364 H2358 0.930 . S
C2364 C2365 1.367 . S
C2364 C2372 1.378 . S
C2365 C2364 1.367 . S
C2365 C2373 1.433 . S
C2366 H2362 0.929 . S
C2366 C2368 1.378 . S
C2366 C2370 1.350 . S
C2367 C2370 1.463 . S
C2367 C2372 1.350 . S
C2367 N2375 1.427 . S
C2368 H2359 0.930 . S
C2368 C2366 1.378 . S
C2368 C2369 1.367 . S
C2369 C2368 1.367 . S
C2369 C2371 1.433 . S
C2370 C2366 1.350 . S
C2370 C2367 1.463 . S
C2370 N2374 1.427 . S
C2371 H2361 0.929 . S
C2371 C2369 1.433 . S
C2371 N2374 1.384 . S
C2372 H2363 0.929 . S
C2372 C2364 1.378 . S
C2372 C2367 1.350 . S
C2373 H2360 0.929 . S
C2373 C2365 1.433 . S
C2373 N2375 1.384 . S
N2374 C2370 1.427 . S
N2374 C2371 1.384 . S
N2375 C2367 1.427 . S
N2375 C2373 1.384 . S
H2376 C2382 0.930 . S
H2377 C2386 0.930 . S
H2378 C2391 0.929 . S
H2379 C2389 0.929 . S
H2380 C2384 0.929 . S
H2381 C2390 0.929 . S
C2382 H2376 0.930 . S
C2382 C2383 1.367 . S
C2382 C2390 1.378 . S
C2383 C2382 1.367 . S
C2383 C2391 1.433 . S
C2384 H2380 0.929 . S
C2384 C2386 1.378 . S
C2384 C2388 1.350 . S
C2385 C2388 1.463 . S
C2385 C2390 1.350 . S
C2385 N2393 1.427 . S
C2386 H2377 0.930 . S
C2386 C2384 1.378 . S
C2386 C2387 1.367 . S
C2387 C2386 1.367 . S
C2387 C2389 1.433 . S
C2388 C2384 1.350 . S
C2388 C2385 1.463 . S
C2388 N2392 1.427 . S
C2389 H2379 0.929 . S
C2389 C2387 1.433 . S
C2389 N2392 1.384 . S
C2390 H2381 0.929 . S
C2390 C2382 1.378 . S
C2390 C2385 1.350 . S
C2391 H2378 0.929 . S
C2391 C2383 1.433 . S
C2391 N2393 1.384 . S
N2392 C2388 1.427 . S
N2392 C2389 1.384 . S
N2393 C2385 1.427 . S
N2393 C2391 1.384 . S
H2394 C2400 0.930 . S
H2395 C2404 0.930 . S
H2396 C2409 0.929 . S
H2397 C2407 0.929 . S
H2398 C2402 0.929 . S
H2399 C2408 0.929 . S
C2400 H2394 0.930 . S
C2400 C2401 1.367 . S
C2400 C2408 1.378 . S
C2401 C2400 1.367 . S
C2401 C2409 1.433 . S
C2402 H2398 0.929 . S
C2402 C2404 1.378 . S
C2402 C2406 1.350 . S
C2403 C2406 1.463 . S
C2403 C2408 1.350 . S
C2403 N2411 1.427 . S
C2404 H2395 0.930 . S
C2404 C2402 1.378 . S
C2404 C2405 1.367 . S
C2405 C2404 1.367 . S
C2405 C2407 1.433 . S
C2406 C2402 1.350 . S
C2406 C2403 1.463 . S
C2406 N2410 1.427 . S
C2407 H2397 0.929 . S
C2407 C2405 1.433 . S
C2407 N2410 1.384 . S
C2408 H2399 0.929 . S
C2408 C2400 1.378 . S
C2408 C2403 1.350 . S
C2409 H2396 0.929 . S
C2409 C2401 1.433 . S
C2409 N2411 1.384 . S
N2410 C2406 1.427 . S
N2410 C2407 1.384 . S
N2411 C2403 1.427 . S
N2411 C2409 1.384 . S
H2412 C2418 0.930 . S
H2413 C2422 0.930 . S
H2414 C2427 0.929 . S
H2415 C2425 0.929 . S
H2416 C2420 0.929 . S
H2417 C2426 0.929 . S
C2418 H2412 0.930 . S
C2418 C2419 1.367 . S
C2418 C2426 1.378 . S
C2419 C2418 1.367 . S
C2419 C2427 1.433 . S
C2420 H2416 0.929 . S
C2420 C2422 1.378 . S
C2420 C2424 1.350 . S
C2421 C2424 1.463 . S
C2421 C2426 1.350 . S
C2421 N2429 1.427 . S
C2422 H2413 0.930 . S
C2422 C2420 1.378 . S
C2422 C2423 1.367 . S
C2423 C2422 1.367 . S
C2423 C2425 1.433 . S
C2424 C2420 1.350 . S
C2424 C2421 1.463 . S
C2424 N2428 1.427 . S
C2425 H2415 0.929 . S
C2425 C2423 1.433 . S
C2425 N2428 1.384 . S
C2426 H2417 0.929 . S
C2426 C2418 1.378 . S
C2426 C2421 1.350 . S
C2427 H2414 0.929 . S
C2427 C2419 1.433 . S
C2427 N2429 1.384 . S
N2428 C2424 1.427 . S
N2428 C2425 1.384 . S
N2429 C2421 1.427 . S
N2429 C2427 1.384 . S
H2430 C2436 0.930 . S
H2431 C2440 0.930 . S
H2432 C2445 0.929 . S
H2433 C2443 0.929 . S
H2434 C2438 0.929 . S
H2435 C2444 0.929 . S
C2436 H2430 0.930 . S
C2436 C2437 1.367 . S
C2436 C2444 1.378 . S
C2437 C2436 1.367 . S
C2437 C2445 1.433 . S
C2438 H2434 0.929 . S
C2438 C2440 1.378 . S
C2438 C2442 1.350 . S
C2439 C2442 1.463 . S
C2439 C2444 1.350 . S
C2439 N2447 1.427 . S
C2440 H2431 0.930 . S
C2440 C2438 1.378 . S
C2440 C2441 1.367 . S
C2441 C2440 1.367 . S
C2441 C2443 1.433 . S
C2442 C2438 1.350 . S
C2442 C2439 1.463 . S
C2442 N2446 1.427 . S
C2443 H2433 0.929 . S
C2443 C2441 1.433 . S
C2443 N2446 1.384 . S
C2444 H2435 0.929 . S
C2444 C2436 1.378 . S
C2444 C2439 1.350 . S
C2445 H2432 0.929 . S
C2445 C2437 1.433 . S
C2445 N2447 1.384 . S
N2446 C2442 1.427 . S
N2446 C2443 1.384 . S
N2447 C2439 1.427 . S
N2447 C2445 1.384 . S
H2448 C2454 0.930 . S
H2449 C2458 0.930 . S
H2450 C2463 0.929 . S
H2451 C2461 0.929 . S
H2452 C2456 0.929 . S
H2453 C2462 0.929 . S
C2454 H2448 0.930 . S
C2454 C2455 1.367 . S
C2454 C2462 1.378 . S
C2455 C2454 1.367 . S
C2455 C2463 1.433 . S
C2456 H2452 0.929 . S
C2456 C2458 1.378 . S
C2456 C2460 1.350 . S
C2457 C2460 1.463 . S
C2457 C2462 1.350 . S
C2457 N2465 1.427 . S
C2458 H2449 0.930 . S
C2458 C2456 1.378 . S
C2458 C2459 1.367 . S
C2459 C2458 1.367 . S
C2459 C2461 1.433 . S
C2460 C2456 1.350 . S
C2460 C2457 1.463 . S
C2460 N2464 1.427 . S
C2461 H2451 0.929 . S
C2461 C2459 1.433 . S
C2461 N2464 1.384 . S
C2462 H2453 0.929 . S
C2462 C2454 1.378 . S
C2462 C2457 1.350 . S
C2463 H2450 0.929 . S
C2463 C2455 1.433 . S
C2463 N2465 1.384 . S
N2464 C2460 1.427 . S
N2464 C2461 1.384 . S
N2465 C2457 1.427 . S
N2465 C2463 1.384 . S
H2466 C2472 0.930 . S
H2467 C2476 0.930 . S
H2468 C2481 0.929 . S
H2469 C2479 0.929 . S
H2470 C2474 0.929 . S
H2471 C2480 0.929 . S
C2472 H2466 0.930 . S
C2472 C2473 1.367 . S
C2472 C2480 1.378 . S
C2473 C2472 1.367 . S
C2473 C2481 1.433 . S
C2474 H2470 0.929 . S
C2474 C2476 1.378 . S
C2474 C2478 1.350 . S
C2475 C2478 1.463 . S
C2475 C2480 1.350 . S
C2475 N2483 1.427 . S
C2476 H2467 0.930 . S
C2476 C2474 1.378 . S
C2476 C2477 1.367 . S
C2477 C2476 1.367 . S
C2477 C2479 1.433 . S
C2478 C2474 1.350 . S
C2478 C2475 1.463 . S
C2478 N2482 1.427 . S
C2479 H2469 0.929 . S
C2479 C2477 1.433 . S
C2479 N2482 1.384 . S
C2480 H2471 0.929 . S
C2480 C2472 1.378 . S
C2480 C2475 1.350 . S
C2481 H2468 0.929 . S
C2481 C2473 1.433 . S
C2481 N2483 1.384 . S
N2482 C2478 1.427 . S
N2482 C2479 1.384 . S
N2483 C2475 1.427 . S
N2483 C2481 1.384 . S
H2484 C2490 0.930 . S
H2485 C2494 0.930 . S
H2486 C2499 0.929 . S
H2487 C2497 0.929 . S
H2488 C2492 0.929 . S
H2489 C2498 0.929 . S
C2490 H2484 0.930 . S
C2490 C2491 1.367 . S
C2490 C2498 1.378 . S
C2491 C2490 1.367 . S
C2491 C2499 1.433 . S
C2492 H2488 0.929 . S
C2492 C2494 1.378 . S
C2492 C2496 1.350 . S
C2493 C2496 1.463 . S
C2493 C2498 1.350 . S
C2493 N2501 1.427 . S
C2494 H2485 0.930 . S
C2494 C2492 1.378 . S
C2494 C2495 1.367 . S
C2495 C2494 1.367 . S
C2495 C2497 1.433 . S
C2496 C2492 1.350 . S
C2496 C2493 1.463 . S
C2496 N2500 1.427 . S
C2497 H2487 0.929 . S
C2497 C2495 1.433 . S
C2497 N2500 1.384 . S
C2498 H2489 0.929 . S
C2498 C2490 1.378 . S
C2498 C2493 1.350 . S
C2499 H2486 0.929 . S
C2499 C2491 1.433 . S
C2499 N2501 1.384 . S
N2500 C2496 1.427 . S
N2500 C2497 1.384 . S
N2501 C2493 1.427 . S
N2501 C2499 1.384 . S
H2502 C2508 0.930 . S
H2503 C2512 0.930 . S
H2504 C2517 0.929 . S
H2505 C2515 0.929 . S
H2506 C2510 0.929 . S
H2507 C2516 0.929 . S
C2508 H2502 0.930 . S
C2508 C2509 1.367 . S
C2508 C2516 1.378 . S
C2509 C2508 1.367 . S
C2509 C2517 1.433 . S
C2510 H2506 0.929 . S
C2510 C2512 1.378 . S
C2510 C2514 1.350 . S
C2511 C2514 1.463 . S
C2511 C2516 1.350 . S
C2511 N2519 1.427 . S
C2512 H2503 0.930 . S
C2512 C2510 1.378 . S
C2512 C2513 1.367 . S
C2513 C2512 1.367 . S
C2513 C2515 1.433 . S
C2514 C2510 1.350 . S
C2514 C2511 1.463 . S
C2514 N2518 1.427 . S
C2515 H2505 0.929 . S
C2515 C2513 1.433 . S
C2515 N2518 1.384 . S
C2516 H2507 0.929 . S
C2516 C2508 1.378 . S
C2516 C2511 1.350 . S
C2517 H2504 0.929 . S
C2517 C2509 1.433 . S
C2517 N2519 1.384 . S
N2518 C2514 1.427 . S
N2518 C2515 1.384 . S
N2519 C2511 1.427 . S
N2519 C2517 1.384 . S
H2520 C2526 0.930 . S
H2521 C2530 0.930 . S
H2522 C2535 0.929 . S
H2523 C2533 0.929 . S
H2524 C2528 0.929 . S
H2525 C2534 0.929 . S
C2526 H2520 0.930 . S
C2526 C2527 1.367 . S
C2526 C2534 1.378 . S
C2527 C2526 1.367 . S
C2527 C2535 1.433 . S
C2528 H2524 0.929 . S
C2528 C2530 1.378 . S
C2528 C2532 1.350 . S
C2529 C2532 1.463 . S
C2529 C2534 1.350 . S
C2529 N2537 1.427 . S
C2530 H2521 0.930 . S
C2530 C2528 1.378 . S
C2530 C2531 1.367 . S
C2531 C2530 1.367 . S
C2531 C2533 1.433 . S
C2532 C2528 1.350 . S
C2532 C2529 1.463 . S
C2532 N2536 1.427 . S
C2533 H2523 0.929 . S
C2533 C2531 1.433 . S
C2533 N2536 1.384 . S
C2534 H2525 0.929 . S
C2534 C2526 1.378 . S
C2534 C2529 1.350 . S
C2535 H2522 0.929 . S
C2535 C2527 1.433 . S
C2535 N2537 1.384 . S
N2536 C2532 1.427 . S
N2536 C2533 1.384 . S
N2537 C2529 1.427 . S
N2537 C2535 1.384 . S
H2538 C2544 0.930 . S
H2539 C2548 0.930 . S
H2540 C2553 0.929 . S
H2541 C2551 0.929 . S
H2542 C2546 0.929 . S
H2543 C2552 0.929 . S
C2544 H2538 0.930 . S
C2544 C2545 1.367 . S
C2544 C2552 1.378 . S
C2545 C2544 1.367 . S
C2545 C2553 1.433 1_545 S
C2546 H2542 0.929 . S
C2546 C2548 1.378 . S
C2546 C2550 1.349 . S
C2547 C2550 1.461 1_545 S
C2547 C2552 1.350 . S
C2547 N2555 1.427 1_545 S
C2548 H2539 0.930 . S
C2548 C2546 1.378 . S
C2548 C2549 1.367 . S
C2549 C2548 1.367 . S
C2549 C2551 1.433 1_565 S
C2550 C2546 1.349 . S
C2550 C2547 1.461 1_565 S
C2550 N2554 1.432 1_565 S
C2551 H2541 0.929 . S
C2551 C2549 1.433 1_545 S
C2551 N2554 1.384 . S
C2552 H2543 0.929 . S
C2552 C2544 1.378 . S
C2552 C2547 1.350 . S
C2553 H2540 0.929 . S
C2553 C2545 1.433 1_565 S
C2553 N2555 1.384 . S
N2554 C2550 1.432 1_545 S
N2554 C2551 1.384 . S
N2555 C2547 1.427 1_565 S
N2555 C2553 1.384 . S
H2556 C2562 0.901 1_655 S
H2557 C2566 0.933 1_455 S
H2558 C2571 0.929 . S
H2559 C2569 0.929 . S
H2560 C2564 0.929 . S
H2561 C2570 0.955 . S
C2562 H2556 0.901 1_455 S
C2562 C2563 1.384 . S
C2562 C2570 1.376 1_455 S
C2563 C2562 1.384 . S
C2563 C2571 1.433 . S
C2564 H2560 0.929 . S
C2564 C2566 1.378 1_455 S
C2564 C2568 1.341 1_455 S
C2565 C2568 1.463 1_455 S
C2565 C2570 1.302 1_455 S
C2565 N2573 1.458 . S
C2566 H2557 0.933 1_655 S
C2566 C2564 1.378 1_655 S
C2566 C2567 1.364 . S
C2567 C2566 1.364 . S
C2567 C2569 1.433 . S
C2568 C2564 1.341 1_655 S
C2568 C2565 1.463 1_655 S
C2568 N2572 1.437 . S
C2569 H2559 0.929 . S
C2569 C2567 1.433 . S
C2569 N2572 1.384 . S
C2570 H2561 0.955 . S
C2570 C2562 1.376 1_655 S
C2570 C2565 1.302 1_655 S
C2571 H2558 0.929 . S
C2571 C2563 1.433 . S
C2571 N2573 1.384 . S
N2572 C2568 1.437 . S
N2572 C2569 1.384 . S
N2573 C2565 1.458 . S
N2573 C2571 1.384 . S
H2574 C2580 0.930 . S
H2575 C2584 0.930 . S
H2576 C2589 0.929 . S
H2577 C2587 0.929 . S
H2578 C2582 0.929 . S
H2579 C2588 0.929 . S
C2580 H2574 0.930 . S
C2580 C2581 1.367 . S
C2580 C2588 1.378 . S
C2581 C2580 1.367 . S
C2581 C2589 1.433 . S
C2582 H2578 0.929 . S
C2582 C2584 1.378 . S
C2582 C2586 1.350 . S
C2583 C2586 1.463 . S
C2583 C2588 1.350 . S
C2583 N2591 1.427 . S
C2584 H2575 0.930 . S
C2584 C2582 1.378 . S
C2584 C2585 1.367 . S
C2585 C2584 1.367 . S
C2585 C2587 1.433 . S
C2586 C2582 1.350 . S
C2586 C2583 1.463 . S
C2586 N2590 1.427 . S
C2587 H2577 0.929 . S
C2587 C2585 1.433 . S
C2587 N2590 1.384 . S
C2588 H2579 0.929 . S
C2588 C2580 1.378 . S
C2588 C2583 1.350 . S
C2589 H2576 0.929 . S
C2589 C2581 1.433 . S
C2589 N2591 1.384 . S
N2590 C2586 1.427 . S
N2590 C2587 1.384 . S
N2591 C2583 1.427 . S
N2591 C2589 1.384 . S
H2592 C2598 0.930 . S
H2593 C2602 0.930 . S
H2594 C2607 0.929 . S
H2595 C2605 0.929 . S
H2596 C2600 0.929 . S
H2597 C2606 0.929 . S
C2598 H2592 0.930 . S
C2598 C2599 1.367 . S
C2598 C2606 1.378 . S
C2599 C2598 1.367 . S
C2599 C2607 1.433 1_545 S
C2600 H2596 0.929 . S
C2600 C2602 1.378 . S
C2600 C2604 1.350 . S
C2601 C2604 1.463 1_545 S
C2601 C2606 1.350 . S
C2601 N2609 1.427 1_545 S
C2602 H2593 0.930 . S
C2602 C2600 1.378 . S
C2602 C2603 1.367 . S
C2603 C2602 1.367 . S
C2603 C2605 1.433 1_565 S
C2604 C2600 1.350 . S
C2604 C2601 1.463 1_565 S
C2604 N2608 1.427 1_565 S
C2605 H2595 0.929 . S
C2605 C2603 1.433 1_545 S
C2605 N2608 1.384 . S
C2606 H2597 0.929 . S
C2606 C2598 1.378 . S
C2606 C2601 1.350 . S
C2607 H2594 0.929 . S
C2607 C2599 1.433 1_565 S
C2607 N2609 1.384 . S
N2608 C2604 1.427 1_545 S
N2608 C2605 1.384 . S
N2609 C2601 1.427 1_565 S
N2609 C2607 1.384 . S
H2610 C2616 0.930 . S
H2611 C2620 0.930 . S
H2612 C2625 0.929 . S
H2613 C2623 0.929 . S
H2614 C2618 0.929 . S
H2615 C2624 0.929 . S
C2616 H2610 0.930 . S
C2616 C2617 1.367 . S
C2616 C2624 1.378 . S
C2617 C2616 1.367 . S
C2617 C2625 1.433 1_455 S
C2618 H2614 0.929 . S
C2618 C2620 1.378 . S
C2618 C2622 1.361 . S
C2619 C2622 1.460 1_455 S
C2619 C2624 1.350 . S
C2619 N2627 1.427 1_455 S
C2620 H2611 0.930 . S
C2620 C2618 1.378 . S
C2620 C2621 1.367 . S
C2621 C2620 1.367 . S
C2621 C2623 1.433 1_655 S
C2622 C2618 1.361 . S
C2622 C2619 1.460 1_655 S
C2622 N2626 1.421 1_655 S
C2623 H2613 0.929 . S
C2623 C2621 1.433 1_455 S
C2623 N2626 1.384 . S
C2624 H2615 0.929 . S
C2624 C2616 1.378 . S
C2624 C2619 1.350 . S
C2625 H2612 0.929 . S
C2625 C2617 1.433 1_655 S
C2625 N2627 1.384 . S
N2626 C2622 1.421 1_455 S
N2626 C2623 1.384 . S
N2627 C2619 1.427 1_655 S
N2627 C2625 1.384 . S
H2628 C2634 0.930 . S
H2629 C2638 0.930 . S
H2630 C2643 0.929 . S
H2631 C2641 0.929 . S
H2632 C2636 0.929 . S
H2633 C2642 0.929 . S
C2634 H2628 0.930 . S
C2634 C2635 1.367 . S
C2634 C2642 1.378 . S
C2635 C2634 1.367 . S
C2635 C2643 1.433 . S
C2636 H2632 0.929 . S
C2636 C2638 1.378 . S
C2636 C2640 1.350 . S
C2637 C2640 1.463 . S
C2637 C2642 1.350 . S
C2637 N2645 1.427 . S
C2638 H2629 0.930 . S
C2638 C2636 1.378 . S
C2638 C2639 1.367 . S
C2639 C2638 1.367 . S
C2639 C2641 1.433 . S
C2640 C2636 1.350 . S
C2640 C2637 1.463 . S
C2640 N2644 1.427 . S
C2641 H2631 0.929 . S
C2641 C2639 1.433 . S
C2641 N2644 1.384 . S
C2642 H2633 0.929 . S
C2642 C2634 1.378 . S
C2642 C2637 1.350 . S
C2643 H2630 0.929 . S
C2643 C2635 1.433 . S
C2643 N2645 1.384 . S
N2644 C2640 1.427 . S
N2644 C2641 1.384 . S
N2645 C2637 1.427 . S
N2645 C2643 1.384 . S
H2646 C2652 0.930 . S
H2647 C2656 0.930 . S
H2648 C2661 0.929 . S
H2649 C2659 0.929 . S
H2650 C2654 0.929 . S
H2651 C2660 0.929 . S
C2652 H2646 0.930 . S
C2652 C2653 1.367 . S
C2652 C2660 1.378 . S
C2653 C2652 1.367 . S
C2653 C2661 1.433 . S
C2654 H2650 0.929 . S
C2654 C2656 1.378 . S
C2654 C2658 1.350 . S
C2655 C2658 1.463 . S
C2655 C2660 1.350 . S
C2655 N2663 1.427 . S
C2656 H2647 0.930 . S
C2656 C2654 1.378 . S
C2656 C2657 1.367 . S
C2657 C2656 1.367 . S
C2657 C2659 1.433 . S
C2658 C2654 1.350 . S
C2658 C2655 1.463 . S
C2658 N2662 1.427 . S
C2659 H2649 0.929 . S
C2659 C2657 1.433 . S
C2659 N2662 1.384 . S
C2660 H2651 0.929 . S
C2660 C2652 1.378 . S
C2660 C2655 1.350 . S
C2661 H2648 0.929 . S
C2661 C2653 1.433 . S
C2661 N2663 1.384 . S
N2662 C2658 1.427 . S
N2662 C2659 1.384 . S
N2663 C2655 1.427 . S
N2663 C2661 1.384 . S
H2664 C2670 0.930 . S
H2665 C2674 0.930 . S
H2666 C2679 0.929 . S
H2667 C2677 0.929 . S
H2668 C2672 0.929 . S
H2669 C2678 0.929 . S
C2670 H2664 0.930 . S
C2670 C2671 1.367 . S
C2670 C2678 1.378 . S
C2671 C2670 1.367 . S
C2671 C2679 1.433 . S
C2672 H2668 0.929 . S
C2672 C2674 1.378 . S
C2672 C2676 1.350 . S
C2673 C2676 1.463 . S
C2673 C2678 1.350 . S
C2673 N2681 1.427 . S
C2674 H2665 0.930 . S
C2674 C2672 1.378 . S
C2674 C2675 1.367 . S
C2675 C2674 1.367 . S
C2675 C2677 1.433 . S
C2676 C2672 1.350 . S
C2676 C2673 1.463 . S
C2676 N2680 1.427 . S
C2677 H2667 0.929 . S
C2677 C2675 1.433 . S
C2677 N2680 1.384 . S
C2678 H2669 0.929 . S
C2678 C2670 1.378 . S
C2678 C2673 1.350 . S
C2679 H2666 0.929 . S
C2679 C2671 1.433 . S
C2679 N2681 1.384 . S
N2680 C2676 1.427 . S
N2680 C2677 1.384 . S
N2681 C2673 1.427 . S
N2681 C2679 1.384 . S
H2682 C2688 0.930 . S
H2683 C2692 0.930 . S
H2684 C2697 0.929 . S
H2685 C2695 0.929 . S
H2686 C2690 0.929 . S
H2687 C2696 0.929 . S
C2688 H2682 0.930 . S
C2688 C2689 1.367 . S
C2688 C2696 1.378 . S
C2689 C2688 1.367 . S
C2689 C2697 1.433 . S
C2690 H2686 0.929 . S
C2690 C2692 1.378 . S
C2690 C2694 1.350 . S
C2691 C2694 1.463 . S
C2691 C2696 1.350 . S
C2691 N2699 1.427 . S
C2692 H2683 0.930 . S
C2692 C2690 1.378 . S
C2692 C2693 1.367 . S
C2693 C2692 1.367 . S
C2693 C2695 1.433 . S
C2694 C2690 1.350 . S
C2694 C2691 1.463 . S
C2694 N2698 1.427 . S
C2695 H2685 0.929 . S
C2695 C2693 1.433 . S
C2695 N2698 1.384 . S
C2696 H2687 0.929 . S
C2696 C2688 1.378 . S
C2696 C2691 1.350 . S
C2697 H2684 0.929 . S
C2697 C2689 1.433 . S
C2697 N2699 1.384 . S
N2698 C2694 1.427 . S
N2698 C2695 1.384 . S
N2699 C2691 1.427 . S
N2699 C2697 1.384 . S
H2700 C2706 0.930 . S
H2701 C2710 0.930 . S
H2702 C2715 0.929 . S
H2703 C2713 0.929 . S
H2704 C2708 0.929 . S
H2705 C2714 0.929 . S
C2706 H2700 0.930 . S
C2706 C2707 1.367 . S
C2706 C2714 1.378 . S
C2707 C2706 1.367 . S
C2707 C2715 1.433 . S
C2708 H2704 0.929 . S
C2708 C2710 1.378 . S
C2708 C2712 1.350 . S
C2709 C2712 1.463 . S
C2709 C2714 1.350 . S
C2709 N2717 1.427 . S
C2710 H2701 0.930 . S
C2710 C2708 1.378 . S
C2710 C2711 1.367 . S
C2711 C2710 1.367 . S
C2711 C2713 1.433 . S
C2712 C2708 1.350 . S
C2712 C2709 1.463 . S
C2712 N2716 1.427 . S
C2713 H2703 0.929 . S
C2713 C2711 1.433 . S
C2713 N2716 1.384 . S
C2714 H2705 0.929 . S
C2714 C2706 1.378 . S
C2714 C2709 1.350 . S
C2715 H2702 0.929 . S
C2715 C2707 1.433 . S
C2715 N2717 1.384 . S
N2716 C2712 1.427 . S
N2716 C2713 1.384 . S
N2717 C2709 1.427 . S
N2717 C2715 1.384 . S
H2718 C2724 0.930 . S
H2719 C2728 0.930 . S
H2720 C2733 0.929 . S
H2721 C2731 0.929 . S
H2722 C2726 0.929 . S
H2723 C2732 0.929 . S
C2724 H2718 0.930 . S
C2724 C2725 1.367 . S
C2724 C2732 1.378 . S
C2725 C2724 1.367 . S
C2725 C2733 1.433 . S
C2726 H2722 0.929 . S
C2726 C2728 1.378 . S
C2726 C2730 1.350 . S
C2727 C2730 1.463 . S
C2727 C2732 1.350 . S
C2727 N2735 1.427 . S
C2728 H2719 0.930 . S
C2728 C2726 1.378 . S
C2728 C2729 1.367 . S
C2729 C2728 1.367 . S
C2729 C2731 1.433 . S
C2730 C2726 1.350 . S
C2730 C2727 1.463 . S
C2730 N2734 1.427 . S
C2731 H2721 0.929 . S
C2731 C2729 1.433 . S
C2731 N2734 1.384 . S
C2732 H2723 0.929 . S
C2732 C2724 1.378 . S
C2732 C2727 1.350 . S
C2733 H2720 0.929 . S
C2733 C2725 1.433 . S
C2733 N2735 1.384 . S
N2734 C2730 1.427 . S
N2734 C2731 1.384 . S
N2735 C2727 1.427 . S
N2735 C2733 1.384 . S
H2736 C2742 0.930 . S
H2737 C2746 0.930 . S
H2738 C2751 0.929 . S
H2739 C2749 0.929 . S
H2740 C2744 0.929 . S
H2741 C2750 0.929 . S
C2742 H2736 0.930 . S
C2742 C2743 1.367 . S
C2742 C2750 1.378 . S
C2743 C2742 1.367 . S
C2743 C2751 1.433 . S
C2744 H2740 0.929 . S
C2744 C2746 1.378 . S
C2744 C2748 1.350 . S
C2745 C2748 1.463 . S
C2745 C2750 1.350 . S
C2745 N2753 1.427 . S
C2746 H2737 0.930 . S
C2746 C2744 1.378 . S
C2746 C2747 1.367 . S
C2747 C2746 1.367 . S
C2747 C2749 1.433 . S
C2748 C2744 1.350 . S
C2748 C2745 1.463 . S
C2748 N2752 1.427 . S
C2749 H2739 0.929 . S
C2749 C2747 1.433 . S
C2749 N2752 1.384 . S
C2750 H2741 0.929 . S
C2750 C2742 1.378 . S
C2750 C2745 1.350 . S
C2751 H2738 0.929 . S
C2751 C2743 1.433 . S
C2751 N2753 1.384 . S
N2752 C2748 1.427 . S
N2752 C2749 1.384 . S
N2753 C2745 1.427 . S
N2753 C2751 1.384 . S
H2754 C2760 0.930 . S
H2755 C2764 0.930 . S
H2756 C2769 0.929 . S
H2757 C2767 0.929 . S
H2758 C2762 0.929 . S
H2759 C2768 0.929 . S
C2760 H2754 0.930 . S
C2760 C2761 1.367 . S
C2760 C2768 1.378 . S
C2761 C2760 1.367 . S
C2761 C2769 1.433 . S
C2762 H2758 0.929 . S
C2762 C2764 1.378 . S
C2762 C2766 1.350 . S
C2763 C2766 1.463 . S
C2763 C2768 1.350 . S
C2763 N2771 1.427 . S
C2764 H2755 0.930 . S
C2764 C2762 1.378 . S
C2764 C2765 1.367 . S
C2765 C2764 1.367 . S
C2765 C2767 1.433 . S
C2766 C2762 1.350 . S
C2766 C2763 1.463 . S
C2766 N2770 1.427 . S
C2767 H2757 0.929 . S
C2767 C2765 1.433 . S
C2767 N2770 1.384 . S
C2768 H2759 0.929 . S
C2768 C2760 1.378 . S
C2768 C2763 1.350 . S
C2769 H2756 0.929 . S
C2769 C2761 1.433 . S
C2769 N2771 1.384 . S
N2770 C2766 1.427 . S
N2770 C2767 1.384 . S
N2771 C2763 1.427 . S
N2771 C2769 1.384 . S
H2772 C2778 0.930 . S
H2773 C2782 0.930 . S
H2774 C2787 0.929 . S
H2775 C2785 0.929 . S
H2776 C2780 0.929 . S
H2777 C2786 0.929 . S
C2778 H2772 0.930 . S
C2778 C2779 1.367 . S
C2778 C2786 1.378 . S
C2779 C2778 1.367 . S
C2779 C2787 1.433 . S
C2780 H2776 0.929 . S
C2780 C2782 1.378 . S
C2780 C2784 1.350 . S
C2781 C2784 1.463 . S
C2781 C2786 1.350 . S
C2781 N2789 1.427 . S
C2782 H2773 0.930 . S
C2782 C2780 1.378 . S
C2782 C2783 1.367 . S
C2783 C2782 1.367 . S
C2783 C2785 1.433 . S
C2784 C2780 1.350 . S
C2784 C2781 1.463 . S
C2784 N2788 1.427 . S
C2785 H2775 0.929 . S
C2785 C2783 1.433 . S
C2785 N2788 1.384 . S
C2786 H2777 0.929 . S
C2786 C2778 1.378 . S
C2786 C2781 1.350 . S
C2787 H2774 0.929 . S
C2787 C2779 1.433 . S
C2787 N2789 1.384 . S
N2788 C2784 1.427 . S
N2788 C2785 1.384 . S
N2789 C2781 1.427 . S
N2789 C2787 1.384 . S
H2790 C2796 0.930 . S
H2791 C2800 0.930 . S
H2792 C2805 0.929 . S
H2793 C2803 0.929 . S
H2794 C2798 0.929 . S
H2795 C2804 0.929 . S
C2796 H2790 0.930 . S
C2796 C2797 1.367 . S
C2796 C2804 1.378 . S
C2797 C2796 1.367 . S
C2797 C2805 1.433 . S
C2798 H2794 0.929 . S
C2798 C2800 1.378 1_556 S
C2798 C2802 1.350 . S
C2799 C2802 1.463 . S
C2799 C2804 1.350 . S
C2799 N2807 1.427 . S
C2800 H2791 0.930 . S
C2800 C2798 1.378 1_554 S
C2800 C2801 1.367 . S
C2801 C2800 1.367 . S
C2801 C2803 1.433 . S
C2802 C2798 1.350 . S
C2802 C2799 1.463 . S
C2802 N2806 1.427 . S
C2803 H2793 0.929 . S
C2803 C2801 1.433 . S
C2803 N2806 1.384 1_554 S
C2804 H2795 0.929 . S
C2804 C2796 1.378 . S
C2804 C2799 1.350 . S
C2805 H2792 0.929 . S
C2805 C2797 1.433 . S
C2805 N2807 1.384 . S
N2806 C2802 1.427 . S
N2806 C2803 1.384 1_556 S
N2807 C2799 1.427 . S
N2807 C2805 1.384 . S
H2808 C2814 0.930 . S
H2809 C2818 0.930 . S
H2810 C2823 0.929 . S
H2811 C2821 0.929 . S
H2812 C2816 0.929 . S
H2813 C2822 0.929 . S
C2814 H2808 0.930 . S
C2814 C2815 1.367 . S
C2814 C2822 1.378 . S
C2815 C2814 1.367 . S
C2815 C2823 1.433 . S
C2816 H2812 0.929 . S
C2816 C2818 1.378 1_556 S
C2816 C2820 1.350 . S
C2817 C2820 1.463 . S
C2817 C2822 1.350 . S
C2817 N2825 1.427 . S
C2818 H2809 0.930 . S
C2818 C2816 1.378 1_554 S
C2818 C2819 1.367 . S
C2819 C2818 1.367 . S
C2819 C2821 1.433 . S
C2820 C2816 1.350 . S
C2820 C2817 1.463 . S
C2820 N2824 1.427 . S
C2821 H2811 0.929 . S
C2821 C2819 1.433 . S
C2821 N2824 1.384 1_554 S
C2822 H2813 0.929 . S
C2822 C2814 1.378 . S
C2822 C2817 1.350 . S
C2823 H2810 0.929 . S
C2823 C2815 1.433 . S
C2823 N2825 1.384 . S
N2824 C2820 1.427 . S
N2824 C2821 1.384 1_556 S
N2825 C2817 1.427 . S
N2825 C2823 1.384 . S
H2826 C2832 0.930 . S
H2827 C2836 0.930 . S
H2828 C2841 0.929 . S
H2829 C2839 0.929 . S
H2830 C2834 0.929 . S
H2831 C2840 0.929 . S
C2832 H2826 0.930 . S
C2832 C2833 1.367 . S
C2832 C2840 1.378 . S
C2833 C2832 1.367 . S
C2833 C2841 1.433 . S
C2834 H2830 0.929 . S
C2834 C2836 1.378 1_556 S
C2834 C2838 1.350 . S
C2835 C2838 1.463 . S
C2835 C2840 1.350 . S
C2835 N2843 1.427 . S
C2836 H2827 0.930 . S
C2836 C2834 1.378 1_554 S
C2836 C2837 1.367 . S
C2837 C2836 1.367 . S
C2837 C2839 1.433 . S
C2838 C2834 1.350 . S
C2838 C2835 1.463 . S
C2838 N2842 1.427 . S
C2839 H2829 0.929 . S
C2839 C2837 1.433 . S
C2839 N2842 1.384 1_554 S
C2840 H2831 0.929 . S
C2840 C2832 1.378 . S
C2840 C2835 1.350 . S
C2841 H2828 0.929 . S
C2841 C2833 1.433 . S
C2841 N2843 1.384 . S
N2842 C2838 1.427 . S
N2842 C2839 1.384 1_556 S
N2843 C2835 1.427 . S
N2843 C2841 1.384 . S
C1231 C546 1.625 . S
C1235 C2 1.627 . S
C1249 C580 1.618 . S
C1253 C36 1.618 . S
C1267 C512 1.625 . S
C1271 C70 1.624 . S
C1285 C104 1.619 . S
C1289 C886 1.618 . S
C1303 C818 1.619 . S
C1307 C138 1.618 . S
C1321 C852 1.625 . S
C1325 C172 1.623 . S
C1339 C206 1.627 . S
C1343 C1158 1.625 . S
C1357 C1192 1.622 . S
C1361 C240 1.624 . S
C1375 C274 1.630 . S
C1379 C1124 1.630 . S
C1393 C682 1.626 . S
C1397 C308 1.624 . S
C1411 C342 1.629 . S
C1415 C614 1.630 . S
C1429 C648 1.625 . S
C1433 C376 1.623 . S
C1447 C410 1.618 . S
C1451 C954 1.618 . S
C1465 C988 1.630 . S
C1469 C444 1.629 . S
C1483 C920 1.629 . S
C1487 C478 1.630 . S
C1501 C1090 1.618 . S
C1505 C716 1.618 . S
C1519 C750 1.623 . S
C1523 C1022 1.622 . S
C1537 C1056 1.630 . S
C1541 C784 1.629 . S
C1555 C111 1.262 . S
C1559 C9 1.282 . S
C1573 C145 1.270 . S
C1577 C43 1.280 . S
C1591 C77 1.281 . S
C1595 C179 1.261 . S
C1609 C315 1.259 . S
C1613 C213 1.276 . S
C1627 C247 1.280 . S
C1631 C349 1.269 . S
C1645 C383 1.259 . S
C1649 C281 1.279 . S
C1663 C417 1.262 . S
C1667 C519 1.269 . S
C1681 C451 1.269 . S
C1685 C553 1.280 . S
C1699 C587 1.278 . S
C1703 C485 1.271 . S
C1717 C723 1.274 1_554 S
C1721 C621 1.259 . S
C1735 C757 1.276 1_554 S
C1739 C655 1.275 . S
C1753 C791 1.280 1_554 S
C1757 C689 1.259 . S
C1771 C825 1.280 . S
C1775 C927 1.269 . S
C1789 C961 1.268 . S
C1793 C859 1.280 . S
C1807 C893 1.259 . S
C1811 C995 1.280 . S
C1825 C1029 1.263 . S
C1829 C1131 1.282 . S
C1843 C1063 1.259 . S
C1847 C1165 1.277 . S
C1861 C1199 1.281 . S
C1865 C1097 1.266 . S
C1879 C33 1.533 . S
C1883 C258 1.537 . S
C1897 C292 1.537 . S
C1901 C67 1.533 . S
C1915 C224 1.537 . S
C1919 C101 1.530 . S
C1933 C135 1.527 . S
C1937 C394 1.538 . S
C1951 C326 1.536 . S
C1955 C169 1.532 . S
C1969 C360 1.538 . S
C1973 C203 1.527 . S
C1987 C237 1.530 . S
C1991 C54 1.536 . S
C2005 C88 1.538 . S
C2009 C271 1.528 . S
C2023 C20 1.538 . S
C2027 C305 1.530 . S
C2041 C190 1.538 . S
C2045 C339 1.532 . S
C2059 C122 1.536 . S
C2063 C373 1.532 . S
C2077 C407 1.527 . S
C2081 C156 1.538 . S
C2095 C441 1.532 . S
C2099 C666 1.538 . S
C2113 C475 1.533 . S
C2117 C700 1.537 . S
C2131 C509 1.527 . S
C2135 C632 1.538 . S
C2149 C802 1.538 . S
C2153 C543 1.527 . S
C2167 C577 1.532 . S
C2171 C734 1.538 . S
C2185 C611 1.530 . S
C2189 C768 1.537 . S
C2203 C645 1.528 . S
C2207 C462 1.538 . S
C2221 C496 1.537 . S
C2225 C679 1.528 . S
C2239 C713 1.529 . S
C2243 C428 1.538 . S
C2257 C747 1.528 . S
C2261 C598 1.537 . S
C2275 C781 1.529 . S
C2279 C530 1.537 . S
C2293 C815 1.533 . S
C2297 C564 1.537 . S
C2311 C849 1.532 . S
C2315 C1074 1.537 . S
C2329 C1108 1.537 . S
C2333 C883 1.533 . S
C2347 C917 1.532 . S
C2351 C1040 1.536 . S
C2365 C951 1.528 . S
C2369 C1210 1.539 . S
C2383 C985 1.528 . S
C2387 C1142 1.537 . S
C2401 C1019 1.529 . S
C2405 C1176 1.537 . S
C2419 C870 1.537 . S
C2423 C1053 1.529 . S
C2437 C904 1.537 . S
C2441 C1087 1.529 . S
C2455 C836 1.537 . S
C2459 C1121 1.528 . S
C2473 C1006 1.536 . S
C2477 C1155 1.533 . S
C2491 C1189 1.527 . S
C2495 C938 1.537 . S
C2509 C1223 1.528 . S
C2513 C972 1.538 . S
C2527 C107 1.178 . S
C2531 C5 1.175 . S
C2545 C39 1.183 . S
C2549 C141 1.175 . S
C2563 C175 1.183 . S
C2567 C73 1.174 . S
C2581 C311 1.173 . S
C2585 C209 1.182 . S
C2599 C345 1.178 . S
C2603 C243 1.182 . S
C2617 C277 1.176 . S
C2621 C379 1.183 . S
C2635 C515 1.177 1_554 S
C2639 C413 1.176 . S
C2653 C447 1.181 . S
C2657 C549 1.173 1_554 S
C2671 C583 1.174 1_554 S
C2675 C481 1.183 . S
C2689 C719 1.174 . S
C2693 C617 1.183 . S
C2707 C753 1.179 . S
C2711 C651 1.174 . S
C2725 C685 1.173 . S
C2729 C787 1.182 . S
C2743 C923 1.177 . S
C2747 C821 1.183 . S
C2761 C855 1.183 . S
C2765 C957 1.177 . S
C2779 C991 1.183 . S
C2783 C889 1.174 . S
C2797 C1025 1.175 . S
C2801 C1127 1.178 . S
C2815 C1059 1.179 . S
C2819 C1161 1.182 . S
C2833 C1093 1.176 . S
C2837 C1195 1.183 . S
