# Generated by pormake.
# Topology wio, (6)-cn, num edge types: 1
# Building blocks:
#     Node 0, Type 0, BuildingBlock: MIFKUJ_clean_sbu_0, # of connection points: 6
#     Node 1, Type 0, BuildingBlock: MIFKUJ_clean_sbu_0, # of connection points: 6
#     Node 2, Type 0, BuildingBlock: MIFKUJ_clean_sbu_0, # of connection points: 6
#     Node 3, Type 0, BuildingBlock: MIFKUJ_clean_sbu_0, # of connection points: 6
#     Node 4, Type 0, BuildingBlock: MIFKUJ_clean_sbu_0, # of connection points: 6
#     Node 5, Type 0, BuildingBlock: MIFKUJ_clean_sbu_0, # of connection points: 6
#     Node 6, Type 0, BuildingBlock: MIFKUJ_clean_sbu_0, # of connection points: 6
#     Node 7, Type 0, BuildingBlock: MIFKUJ_clean_sbu_0, # of connection points: 6
#     Node 8, Type 0, BuildingBlock: MIFKUJ_clean_sbu_0, # of connection points: 6
#     Node 9, Type 0, BuildingBlock: MIFKUJ_clean_sbu_0, # of connection points: 6
#     Node 10, Type 0, BuildingBlock: MIFKUJ_clean_sbu_0, # of connection points: 6
#     Node 11, Type 0, BuildingBlock: MIFKUJ_clean_sbu_0, # of connection points: 6
#     Node 12, Type 0, BuildingBlock: MIFKUJ_clean_sbu_0, # of connection points: 6
#     Node 13, Type 0, BuildingBlock: MIFKUJ_clean_sbu_0, # of connection points: 6
#     Node 14, Type 0, BuildingBlock: MIFKUJ_clean_sbu_0, # of connection points: 6
#     Node 15, Type 0, BuildingBlock: MIFKUJ_clean_sbu_0, # of connection points: 6
#     Node 16, Type 0, BuildingBlock: MIFKUJ_clean_sbu_0, # of connection points: 6
#     Node 17, Type 0, BuildingBlock: MIFKUJ_clean_sbu_0, # of connection points: 6
#     Node 18, Type 0, BuildingBlock: MIFKUJ_clean_sbu_0, # of connection points: 6
#     Node 19, Type 0, BuildingBlock: MIFKUJ_clean_sbu_0, # of connection points: 6
#     Node 20, Type 0, BuildingBlock: MIFKUJ_clean_sbu_0, # of connection points: 6
#     Node 21, Type 0, BuildingBlock: MIFKUJ_clean_sbu_0, # of connection points: 6
#     Node 22, Type 0, BuildingBlock: MIFKUJ_clean_sbu_0, # of connection points: 6
#     Node 23, Type 0, BuildingBlock: MIFKUJ_clean_sbu_0, # of connection points: 6
#     Node 24, Type 0, BuildingBlock: MIFKUJ_clean_sbu_0, # of connection points: 6
#     Node 25, Type 0, BuildingBlock: MIFKUJ_clean_sbu_0, # of connection points: 6
#     Node 26, Type 0, BuildingBlock: MIFKUJ_clean_sbu_0, # of connection points: 6
#     Node 27, Type 0, BuildingBlock: MIFKUJ_clean_sbu_0, # of connection points: 6
#     Node 28, Type 0, BuildingBlock: MIFKUJ_clean_sbu_0, # of connection points: 6
#     Node 29, Type 0, BuildingBlock: MIFKUJ_clean_sbu_0, # of connection points: 6
#     Node 30, Type 0, BuildingBlock: MIFKUJ_clean_sbu_0, # of connection points: 6
#     Node 31, Type 0, BuildingBlock: MIFKUJ_clean_sbu_0, # of connection points: 6
#     Edge 32, Type (0, 0), BuildingBlock: AJUNOK_clean_linker_0, # of connection points: 2
#     Edge 33, Type (0, 0), BuildingBlock: AJUNOK_clean_linker_0, # of connection points: 2
#     Edge 34, Type (0, 0), BuildingBlock: AJUNOK_clean_linker_0, # of connection points: 2
#     Edge 35, Type (0, 0), BuildingBlock: AJUNOK_clean_linker_0, # of connection points: 2
#     Edge 36, Type (0, 0), BuildingBlock: AJUNOK_clean_linker_0, # of connection points: 2
#     Edge 37, Type (0, 0), BuildingBlock: AJUNOK_clean_linker_0, # of connection points: 2
#     Edge 38, Type (0, 0), BuildingBlock: AJUNOK_clean_linker_0, # of connection points: 2
#     Edge 39, Type (0, 0), BuildingBlock: AJUNOK_clean_linker_0, # of connection points: 2
#     Edge 40, Type (0, 0), BuildingBlock: AJUNOK_clean_linker_0, # of connection points: 2
#     Edge 41, Type (0, 0), BuildingBlock: AJUNOK_clean_linker_0, # of connection points: 2
#     Edge 42, Type (0, 0), BuildingBlock: AJUNOK_clean_linker_0, # of connection points: 2
#     Edge 43, Type (0, 0), BuildingBlock: AJUNOK_clean_linker_0, # of connection points: 2
#     Edge 44, Type (0, 0), BuildingBlock: AJUNOK_clean_linker_0, # of connection points: 2
#     Edge 45, Type (0, 0), BuildingBlock: AJUNOK_clean_linker_0, # of connection points: 2
#     Edge 46, Type (0, 0), BuildingBlock: AJUNOK_clean_linker_0, # of connection points: 2
#     Edge 47, Type (0, 0), BuildingBlock: AJUNOK_clean_linker_0, # of connection points: 2
#     Edge 48, Type (0, 0), BuildingBlock: AJUNOK_clean_linker_0, # of connection points: 2
#     Edge 49, Type (0, 0), BuildingBlock: AJUNOK_clean_linker_0, # of connection points: 2
#     Edge 50, Type (0, 0), BuildingBlock: AJUNOK_clean_linker_0, # of connection points: 2
#     Edge 51, Type (0, 0), BuildingBlock: AJUNOK_clean_linker_0, # of connection points: 2
#     Edge 52, Type (0, 0), BuildingBlock: AJUNOK_clean_linker_0, # of connection points: 2
#     Edge 53, Type (0, 0), BuildingBlock: AJUNOK_clean_linker_0, # of connection points: 2
#     Edge 54, Type (0, 0), BuildingBlock: AJUNOK_clean_linker_0, # of connection points: 2
#     Edge 55, Type (0, 0), BuildingBlock: AJUNOK_clean_linker_0, # of connection points: 2
#     Edge 56, Type (0, 0), BuildingBlock: AJUNOK_clean_linker_0, # of connection points: 2
#     Edge 57, Type (0, 0), BuildingBlock: AJUNOK_clean_linker_0, # of connection points: 2
#     Edge 58, Type (0, 0), BuildingBlock: AJUNOK_clean_linker_0, # of connection points: 2
#     Edge 59, Type (0, 0), BuildingBlock: AJUNOK_clean_linker_0, # of connection points: 2
#     Edge 60, Type (0, 0), BuildingBlock: AJUNOK_clean_linker_0, # of connection points: 2
#     Edge 61, Type (0, 0), BuildingBlock: AJUNOK_clean_linker_0, # of connection points: 2
#     Edge 62, Type (0, 0), BuildingBlock: AJUNOK_clean_linker_0, # of connection points: 2
#     Edge 63, Type (0, 0), BuildingBlock: AJUNOK_clean_linker_0, # of connection points: 2
#     Edge 64, Type (0, 0), BuildingBlock: AJUNOK_clean_linker_0, # of connection points: 2
#     Edge 65, Type (0, 0), BuildingBlock: AJUNOK_clean_linker_0, # of connection points: 2
#     Edge 66, Type (0, 0), BuildingBlock: AJUNOK_clean_linker_0, # of connection points: 2
#     Edge 67, Type (0, 0), BuildingBlock: AJUNOK_clean_linker_0, # of connection points: 2
#     Edge 68, Type (0, 0), BuildingBlock: AJUNOK_clean_linker_0, # of connection points: 2
#     Edge 69, Type (0, 0), BuildingBlock: AJUNOK_clean_linker_0, # of connection points: 2
#     Edge 70, Type (0, 0), BuildingBlock: AJUNOK_clean_linker_0, # of connection points: 2
#     Edge 71, Type (0, 0), BuildingBlock: AJUNOK_clean_linker_0, # of connection points: 2
#     Edge 72, Type (0, 0), BuildingBlock: AJUNOK_clean_linker_0, # of connection points: 2
#     Edge 73, Type (0, 0), BuildingBlock: AJUNOK_clean_linker_0, # of connection points: 2
#     Edge 74, Type (0, 0), BuildingBlock: AJUNOK_clean_linker_0, # of connection points: 2
#     Edge 75, Type (0, 0), BuildingBlock: AJUNOK_clean_linker_0, # of connection points: 2
#     Edge 76, Type (0, 0), BuildingBlock: AJUNOK_clean_linker_0, # of connection points: 2
#     Edge 77, Type (0, 0), BuildingBlock: AJUNOK_clean_linker_0, # of connection points: 2
#     Edge 78, Type (0, 0), BuildingBlock: AJUNOK_clean_linker_0, # of connection points: 2
#     Edge 79, Type (0, 0), BuildingBlock: AJUNOK_clean_linker_0, # of connection points: 2
#     Edge 80, Type (0, 0), BuildingBlock: AJUNOK_clean_linker_0, # of connection points: 2
#     Edge 81, Type (0, 0), BuildingBlock: AJUNOK_clean_linker_0, # of connection points: 2
#     Edge 82, Type (0, 0), BuildingBlock: AJUNOK_clean_linker_0, # of connection points: 2
#     Edge 83, Type (0, 0), BuildingBlock: AJUNOK_clean_linker_0, # of connection points: 2
#     Edge 84, Type (0, 0), BuildingBlock: AJUNOK_clean_linker_0, # of connection points: 2
#     Edge 85, Type (0, 0), BuildingBlock: AJUNOK_clean_linker_0, # of connection points: 2
#     Edge 86, Type (0, 0), BuildingBlock: AJUNOK_clean_linker_0, # of connection points: 2
#     Edge 87, Type (0, 0), BuildingBlock: AJUNOK_clean_linker_0, # of connection points: 2
#     Edge 88, Type (0, 0), BuildingBlock: AJUNOK_clean_linker_0, # of connection points: 2
#     Edge 89, Type (0, 0), BuildingBlock: AJUNOK_clean_linker_0, # of connection points: 2
#     Edge 90, Type (0, 0), BuildingBlock: AJUNOK_clean_linker_0, # of connection points: 2
#     Edge 91, Type (0, 0), BuildingBlock: AJUNOK_clean_linker_0, # of connection points: 2
#     Edge 92, Type (0, 0), BuildingBlock: AJUNOK_clean_linker_0, # of connection points: 2
#     Edge 93, Type (0, 0), BuildingBlock: AJUNOK_clean_linker_0, # of connection points: 2
#     Edge 94, Type (0, 0), BuildingBlock: AJUNOK_clean_linker_0, # of connection points: 2
#     Edge 95, Type (0, 0), BuildingBlock: AJUNOK_clean_linker_0, # of connection points: 2
#     Edge 96, Type (0, 0), BuildingBlock: AJUNOK_clean_linker_0, # of connection points: 2
#     Edge 97, Type (0, 0), BuildingBlock: AJUNOK_clean_linker_0, # of connection points: 2
#     Edge 98, Type (0, 0), BuildingBlock: AJUNOK_clean_linker_0, # of connection points: 2
#     Edge 99, Type (0, 0), BuildingBlock: AJUNOK_clean_linker_0, # of connection points: 2
#     Edge 100, Type (0, 0), BuildingBlock: AJUNOK_clean_linker_0, # of connection points: 2
#     Edge 101, Type (0, 0), BuildingBlock: AJUNOK_clean_linker_0, # of connection points: 2
#     Edge 102, Type (0, 0), BuildingBlock: AJUNOK_clean_linker_0, # of connection points: 2
#     Edge 103, Type (0, 0), BuildingBlock: AJUNOK_clean_linker_0, # of connection points: 2
#     Edge 104, Type (0, 0), BuildingBlock: AJUNOK_clean_linker_0, # of connection points: 2
#     Edge 105, Type (0, 0), BuildingBlock: AJUNOK_clean_linker_0, # of connection points: 2
#     Edge 106, Type (0, 0), BuildingBlock: AJUNOK_clean_linker_0, # of connection points: 2
#     Edge 107, Type (0, 0), BuildingBlock: AJUNOK_clean_linker_0, # of connection points: 2
#     Edge 108, Type (0, 0), BuildingBlock: AJUNOK_clean_linker_0, # of connection points: 2
#     Edge 109, Type (0, 0), BuildingBlock: AJUNOK_clean_linker_0, # of connection points: 2
#     Edge 110, Type (0, 0), BuildingBlock: AJUNOK_clean_linker_0, # of connection points: 2
#     Edge 111, Type (0, 0), BuildingBlock: AJUNOK_clean_linker_0, # of connection points: 2
#     Edge 112, Type (0, 0), BuildingBlock: AJUNOK_clean_linker_0, # of connection points: 2
#     Edge 113, Type (0, 0), BuildingBlock: AJUNOK_clean_linker_0, # of connection points: 2
#     Edge 114, Type (0, 0), BuildingBlock: AJUNOK_clean_linker_0, # of connection points: 2
#     Edge 115, Type (0, 0), BuildingBlock: AJUNOK_clean_linker_0, # of connection points: 2
#     Edge 116, Type (0, 0), BuildingBlock: AJUNOK_clean_linker_0, # of connection points: 2
#     Edge 117, Type (0, 0), BuildingBlock: AJUNOK_clean_linker_0, # of connection points: 2
#     Edge 118, Type (0, 0), BuildingBlock: AJUNOK_clean_linker_0, # of connection points: 2
#     Edge 119, Type (0, 0), BuildingBlock: AJUNOK_clean_linker_0, # of connection points: 2
#     Edge 120, Type (0, 0), BuildingBlock: AJUNOK_clean_linker_0, # of connection points: 2
#     Edge 121, Type (0, 0), BuildingBlock: AJUNOK_clean_linker_0, # of connection points: 2
#     Edge 122, Type (0, 0), BuildingBlock: AJUNOK_clean_linker_0, # of connection points: 2
#     Edge 123, Type (0, 0), BuildingBlock: AJUNOK_clean_linker_0, # of connection points: 2
#     Edge 124, Type (0, 0), BuildingBlock: AJUNOK_clean_linker_0, # of connection points: 2
#     Edge 125, Type (0, 0), BuildingBlock: AJUNOK_clean_linker_0, # of connection points: 2
#     Edge 126, Type (0, 0), BuildingBlock: AJUNOK_clean_linker_0, # of connection points: 2
#     Edge 127, Type (0, 0), BuildingBlock: AJUNOK_clean_linker_0, # of connection points: 2
# Relax obj value: 0.179
# Max RMSD: 0.216
# Mean RMSD: 0.216
data_MOF--net-wio--node1-MIFKUJ_clean_sbu_0--edge1-AJUNOK_clean_linker_0
_symmetry_space_group_name_H-M    P1
_symmetry_Int_Tables_number       1
_symmetry_cell_setting            triclinic
loop_
_symmetry_equiv_pos_as_xyz
'x, y, z'
_cell_length_a     40.451175
_cell_length_b     40.479357
_cell_length_c     38.881273
_cell_angle_alpha  90.188734
_cell_angle_beta   89.996113
_cell_angle_gamma 89.859043
loop_
_atom_site_label
_atom_site_type_symbol
_atom_site_fract_x
_atom_site_fract_y
_atom_site_fract_z
_atom_type_partial_charge
Zn0 Zn 0.09433 0.0918 0.32268 0.0
Zn1 Zn 0.1567 0.11201 0.25599 0.0
C2 C 0.10828 0.0632 0.38811 0.0
O3 O 0.08751 0.08627 0.39814 0.0
C4 C 0.12027 0.13863 0.19754 0.0
O5 O 0.13143 0.16739 0.20802 0.0
O6 O 0.04658 0.09249 0.33836 0.0
O7 O 0.11228 0.13756 0.32643 0.0
O8 O 0.14923 0.15174 0.28682 0.0
C9 C 0.03288 0.11863 0.34982 0.0
O10 O 0.04855 0.14687 0.34718 0.0
O11 O 0.11688 0.06217 0.3567 0.0
C12 C 0.21143 0.09516 0.21156 0.0
O13 O 0.19194 0.07017 0.20435 0.0
O14 O 0.20214 0.116 0.23426 0.0
O15 O 0.15313 0.06626 0.27614 0.0
O16 O 0.09898 0.06915 0.27728 0.0
O17 O 0.12604 0.11312 0.21554 0.0
C18 C 0.13165 0.15849 0.31306 0.0
C19 C 0.12521 0.0519 0.27636 0.0
Zn20 Zn 0.14031 0.83332 0.56319 0.0
Zn21 Zn 0.12721 0.89752 0.52156 0.0
C22 C 0.15987 0.85658 0.63157 0.0
O23 O 0.14291 0.83123 0.64289 0.0
C24 C 0.09704 0.87135 0.45992 0.0
O25 O 0.07556 0.89506 0.46594 0.0
O26 O 0.14528 0.78782 0.58407 0.0
O27 O 0.09197 0.8398 0.55242 0.0
O28 O 0.09373 0.89353 0.55919 0.0
C29 C 0.12092 0.77321 0.59803 0.0
O30 O 0.09132 0.7864 0.59562 0.0
O31 O 0.15776 0.86427 0.59996 0.0
C32 C 0.13784 0.94837 0.47248 0.0
O33 O 0.15694 0.92516 0.45952 0.0
O34 O 0.12249 0.94263 0.50037 0.0
O35 O 0.17449 0.89267 0.53494 0.0
O36 O 0.17365 0.839 0.52537 0.0
O37 O 0.11924 0.86565 0.4823 0.0
C38 C 0.07864 0.86636 0.56274 0.0
C39 C 0.18917 0.86637 0.52559 0.0
Zn40 Zn 0.39483 0.87988 0.83392 0.0
Zn41 Zn 0.32954 0.86149 0.75511 0.0
C42 C 0.38685 0.92814 0.88166 0.0
O43 O 0.41444 0.93531 0.86554 0.0
C44 C 0.35173 0.83892 0.69135 0.0
O45 O 0.32934 0.81653 0.69854 0.0
O46 O 0.44129 0.86969 0.8466 0.0
O47 O 0.36944 0.84515 0.81114 0.0
O48 O 0.33603 0.8169 0.77916 0.0
C49 C 0.44993 0.84998 0.87023 0.0
O50 O 0.42784 0.83047 0.88423 0.0
O51 O 0.3718 0.90164 0.87391 0.0
C52 C 0.27716 0.88568 0.71209 0.0
O53 O 0.30153 0.90409 0.70081 0.0
O54 O 0.28248 0.86656 0.73748 0.0
O55 O 0.34429 0.90032 0.78498 0.0
O56 O 0.39554 0.91349 0.79748 0.0
O57 O 0.35815 0.86106 0.71348 0.0
C58 C 0.35753 0.81761 0.80289 0.0
C59 C 0.37046 0.91654 0.77805 0.0
Zn60 Zn 0.35396 0.14906 0.06084 0.0
Zn61 Zn 0.35885 0.08385 0.01614 0.0
C62 C 0.31152 0.13639 0.11565 0.0
O63 O 0.30251 0.1658 0.10498 0.0
C64 C 0.38755 0.10535 0.95001 0.0
O65 O 0.40757 0.08022 0.95509 0.0
O66 O 0.35712 0.1952 0.07989 0.0
O67 O 0.40065 0.13799 0.04805 0.0
O68 O 0.39506 0.08448 0.05253 0.0
C69 C 0.36983 0.19844 0.10965 0.0
O70 O 0.38161 0.17222 0.12534 0.0
O71 O 0.33508 0.12147 0.10026 0.0
C72 C 0.34043 0.03368 0.96921 0.0
O73 O 0.32155 0.05801 0.95848 0.0
O74 O 0.358 0.03791 0.99596 0.0
O75 O 0.31262 0.09416 0.03261 0.0
O76 O 0.31938 0.14755 0.02397 0.0
O77 O 0.36745 0.11335 0.97394 0.0
C78 C 0.41196 0.11038 0.05769 0.0
C79 C 0.30068 0.12243 0.02565 0.0
Zn80 Zn 0.09294 0.88235 0.17153 0.0
Zn81 Zn 0.15049 0.85934 0.25276 0.0
C82 C 0.10367 0.92794 0.12134 0.0
O83 O 0.07367 0.93452 0.13243 0.0
C84 C 0.13213 0.83827 0.31977 0.0
O85 O 0.15713 0.81824 0.31387 0.0
O86 O 0.04892 0.86891 0.15175 0.0
O87 O 0.11756 0.8462 0.19289 0.0
O88 O 0.14694 0.81564 0.2265 0.0
C89 C 0.04682 0.86274 0.11972 0.0
O90 O 0.07386 0.86142 0.10107 0.0
O91 O 0.11971 0.90443 0.13499 0.0
C92 C 0.20338 0.8875 0.28962 0.0
O93 O 0.17952 0.90749 0.29943 0.0
O94 O 0.19722 0.86512 0.26763 0.0
O95 O 0.13775 0.89928 0.22358 0.0
O96 O 0.08809 0.91556 0.20948 0.0
O97 O 0.12314 0.85794 0.29609 0.0
C98 C 0.13049 0.81856 0.19897 0.0
C99 C 0.11274 0.91751 0.22972 0.0
Zn100 Zn 0.36145 0.83697 0.41697 0.0
Zn101 Zn 0.37403 0.90644 0.49037 0.0
C102 C 0.31407 0.84572 0.369 0.0
O103 O 0.30568 0.81856 0.38514 0.0
C104 C 0.39205 0.8764 0.55487 0.0
O105 O 0.42015 0.89203 0.55043 0.0
O106 O 0.37441 0.79071 0.4053 0.0
O107 O 0.39348 0.8645 0.44004 0.0
O108 O 0.42071 0.90012 0.46967 0.0
C109 C 0.38859 0.7854 0.37671 0.0
O110 O 0.39931 0.81083 0.35902 0.0
O111 O 0.34123 0.85959 0.37644 0.0
C112 C 0.34598 0.96061 0.52964 0.0
O113 O 0.32432 0.93789 0.53801 0.0
O114 O 0.3681 0.95344 0.50748 0.0
O115 O 0.33668 0.89051 0.45859 0.0
O116 O 0.32588 0.83756 0.45144 0.0
O117 O 0.36996 0.8784 0.53188 0.0
C118 C 0.42076 0.87729 0.4473 0.0
C119 C 0.31985 0.86491 0.46646 0.0
Zn120 Zn 0.40449 0.09482 0.68407 0.0
Zn121 Zn 0.34309 0.11164 0.7403 0.0
C122 C 0.38144 0.05166 0.63546 0.0
O123 O 0.40756 0.03754 0.6491 0.0
C124 C 0.36175 0.13826 0.80645 0.0
O125 O 0.33966 0.16033 0.79721 0.0
O126 O 0.4493 0.09179 0.6612 0.0
O127 O 0.40208 0.14255 0.69649 0.0
O128 O 0.34889 0.14795 0.70528 0.0
C129 C 0.45054 0.1023 0.63038 0.0
O130 O 0.4235 0.11387 0.61605 0.0
O131 O 0.37204 0.07963 0.64702 0.0
C132 C 0.28375 0.09952 0.77944 0.0
O133 O 0.29902 0.07209 0.7881 0.0
O134 O 0.29697 0.11846 0.75746 0.0
O135 O 0.34625 0.06454 0.7233 0.0
O136 O 0.40069 0.06218 0.72224 0.0
O137 O 0.37061 0.11652 0.78444 0.0
C138 C 0.37578 0.15911 0.69331 0.0
C139 C 0.37287 0.0478 0.72464 0.0
Zn140 Zn 0.12994 0.14765 0.91881 0.0
Zn141 Zn 0.11649 0.07819 0.99133 0.0
C142 C 0.18015 0.14469 0.87125 0.0
O143 O 0.18301 0.17436 0.88471 0.0
C144 C 0.09669 0.11988 0.05197 0.0
O145 O 0.08044 0.13991 0.03149 0.0
O146 O 0.11312 0.19072 0.90085 0.0
O147 O 0.09652 0.11784 0.93679 0.0
O148 O 0.07214 0.08042 0.96694 0.0
C149 C 0.10658 0.19218 0.86894 0.0
O150 O 0.10587 0.16471 0.85087 0.0
O151 O 0.15737 0.1259 0.88213 0.0
C152 C 0.14676 0.02172 0.02078 0.0
O153 O 0.16747 0.04383 0.03292 0.0
O154 O 0.12605 0.03043 0.99799 0.0
O155 O 0.15449 0.10102 0.96606 0.0
O156 O 0.16038 0.15412 0.95791 0.0
O157 O 0.11225 0.09533 0.03949 0.0
C158 C 0.0709 0.1014 0.94296 0.0
C159 C 0.16732 0.12842 0.97518 0.0
Zn160 Zn 0.84179 0.86477 0.74376 0.0
Zn161 Zn 0.90003 0.88358 0.67557 0.0
C162 C 0.86177 0.8486 0.81254 0.0
O163 O 0.84079 0.82437 0.80725 0.0
C164 C 0.89126 0.92518 0.61625 0.0
O165 O 0.92362 0.92583 0.61819 0.0
O166 O 0.79531 0.86436 0.75946 0.0
O167 O 0.84579 0.90685 0.7169 0.0
O168 O 0.89952 0.91084 0.71872 0.0
C169 C 0.78418 0.88905 0.77607 0.0
O170 O 0.80334 0.91481 0.78089 0.0
O171 O 0.86832 0.86802 0.7878 0.0
C172 C 0.95343 0.86018 0.63497 0.0
O173 O 0.92939 0.84277 0.62127 0.0
O174 O 0.94697 0.87912 0.66021 0.0
O175 O 0.88279 0.83744 0.67685 0.0
O176 O 0.84925 0.82194 0.71874 0.0
O177 O 0.87491 0.9093 0.63872 0.0
C178 C 0.87133 0.9229 0.72537 0.0
C179 C 0.8657 0.81554 0.69175 0.0
Zn180 Zn 0.87205 0.08088 0.48865 0.0
Zn181 Zn 0.85145 0.14708 0.41403 0.0
C182 C 0.89286 0.11954 0.55189 0.0
O183 O 0.91825 0.13195 0.53537 0.0
C184 C 0.79748 0.13384 0.37286 0.0
O185 O 0.78749 0.15862 0.39216 0.0
O186 O 0.86746 0.03254 0.49938 0.0
O187 O 0.8319 0.09762 0.46245 0.0
O188 O 0.8221 0.15017 0.45489 0.0
C189 C 0.84573 0.02288 0.52077 0.0
O190 O 0.82292 0.04395 0.5309 0.0
O191 O 0.87257 0.10098 0.53612 0.0
C192 C 0.8735 0.19657 0.36678 0.0
O193 O 0.88476 0.17095 0.34951 0.0
O194 O 0.86041 0.19227 0.39611 0.0
O195 O 0.89139 0.1227 0.42823 0.0
O196 O 0.91557 0.08743 0.46257 0.0
O197 O 0.82661 0.12273 0.3769 0.0
C198 C 0.81712 0.12396 0.47188 0.0
C199 C 0.91705 0.10714 0.43722 0.0
Zn200 Zn 0.65255 0.11104 0.22628 0.0
Zn201 Zn 0.58471 0.09854 0.18469 0.0
C202 C 0.63417 0.14504 0.28939 0.0
O203 O 0.66153 0.16126 0.28278 0.0
C204 C 0.61099 0.07396 0.11712 0.0
O205 O 0.59719 0.09954 0.10216 0.0
O206 O 0.69843 0.10899 0.24676 0.0
O207 O 0.64087 0.0646 0.21375 0.0
O208 O 0.58886 0.07208 0.22846 0.0
C209 C 0.70097 0.09066 0.27316 0.0
O210 O 0.67534 0.07301 0.2826 0.0
O211 O 0.62368 0.12432 0.26722 0.0
C212 C 0.53011 0.11776 0.14296 0.0
O213 O 0.55107 0.14159 0.13618 0.0
O214 O 0.53797 0.09635 0.16549 0.0
O215 O 0.59662 0.14682 0.18664 0.0
O216 O 0.6511 0.14508 0.18846 0.0
O217 O 0.61084 0.07189 0.14975 0.0
C218 C 0.61495 0.05443 0.22869 0.0
C219 C 0.62446 0.15978 0.18031 0.0
Zn220 Zn 0.61395 0.90601 0.99281 0.0
Zn221 Zn 0.63092 0.84537 0.91268 0.0
C222 C 0.59095 0.88124 0.05722 0.0
O223 O 0.56605 0.90106 0.05044 0.0
C224 C 0.67601 0.85535 0.86279 0.0
O225 O 0.6813 0.82497 0.87325 0.0
O226 O 0.61839 0.95319 0.00904 0.0
O227 O 0.65519 0.89235 0.9643 0.0
O228 O 0.66527 0.84091 0.94851 0.0
C229 C 0.63963 0.95928 0.03224 0.0
O230 O 0.65935 0.93547 0.0425 0.0
O231 O 0.61398 0.87826 0.03523 0.0
C232 C 0.61202 0.79617 0.86255 0.0
O233 O 0.61295 0.82108 0.841 0.0
O234 O 0.61691 0.80128 0.89444 0.0
O235 O 0.59709 0.86958 0.93675 0.0
O236 O 0.56848 0.90104 0.96979 0.0
O237 O 0.65266 0.87201 0.87605 0.0
C238 C 0.67163 0.86552 0.9679 0.0
C239 C 0.5693 0.8808 0.94503 0.0
Zn240 Zn 0.83961 0.11869 0.75881 0.0
Zn241 Zn 0.89901 0.09796 0.82252 0.0
C242 C 0.87433 0.14106 0.69856 0.0
O243 O 0.86313 0.17029 0.70764 0.0
C244 C 0.89147 0.04763 0.87112 0.0
O245 O 0.91955 0.03971 0.85625 0.0
O246 O 0.79654 0.12284 0.73396 0.0
O247 O 0.84064 0.07365 0.78095 0.0
O248 O 0.89487 0.07143 0.77965 0.0
C249 C 0.7708 0.10511 0.73639 0.0
O250 O 0.76866 0.08281 0.76074 0.0
O251 O 0.87085 0.11683 0.71893 0.0
C252 C 0.9524 0.11563 0.86293 0.0
O253 O 0.92837 0.13246 0.8774 0.0
O254 O 0.94639 0.09798 0.83666 0.0
O255 O 0.88641 0.14568 0.82183 0.0
O256 O 0.84692 0.16043 0.78586 0.0
O257 O 0.87553 0.07274 0.86041 0.0
C258 C 0.86712 0.05744 0.77577 0.0
C259 C 0.86773 0.16763 0.80909 0.0
Zn260 Zn 0.61908 0.09911 0.4964 0.0
Zn261 Zn 0.64332 0.15121 0.57142 0.0
C262 C 0.59653 0.12355 0.43149 0.0
O263 O 0.57245 0.10297 0.43864 0.0
C264 C 0.66688 0.12318 0.63513 0.0
O265 O 0.63717 0.13039 0.64662 0.0
O266 O 0.61106 0.05428 0.4767 0.0
O267 O 0.66502 0.09821 0.51633 0.0
O268 O 0.66785 0.15152 0.52641 0.0
C269 C 0.63022 0.02967 0.47291 0.0
O270 O 0.66107 0.03169 0.48323 0.0
O271 O 0.61844 0.1288 0.45438 0.0
C272 C 0.61534 0.20707 0.60797 0.0
O273 O 0.58842 0.18905 0.60719 0.0
O274 O 0.64105 0.19691 0.59225 0.0
O275 O 0.59799 0.13165 0.57417 0.0
O276 O 0.58018 0.10483 0.52812 0.0
O277 O 0.67346 0.12753 0.60357 0.0
C278 C 0.68215 0.12423 0.51987 0.0
C279 C 0.57549 0.11617 0.55819 0.0
Zn280 Zn 0.65476 0.86748 0.25771 0.0
Zn281 Zn 0.58987 0.87715 0.33584 0.0
C282 C 0.62888 0.84487 0.1946 0.0
O283 O 0.65159 0.82218 0.19989 0.0
C284 C 0.58723 0.91942 0.38862 0.0
O285 O 0.55984 0.92291 0.37089 0.0
O286 O 0.70072 0.87141 0.23854 0.0
O287 O 0.64196 0.9071 0.28905 0.0
O288 O 0.5895 0.91491 0.30395 0.0
C289 C 0.70856 0.88864 0.21255 0.0
O290 O 0.68708 0.90972 0.19996 0.0
O291 O 0.62435 0.867 0.21732 0.0
C292 C 0.53703 0.84359 0.36899 0.0
O293 O 0.56125 0.82924 0.38584 0.0
O294 O 0.54384 0.86104 0.3429 0.0
O295 O 0.61952 0.84824 0.31185 0.0
O296 O 0.65437 0.82208 0.2805 0.0
O297 O 0.60728 0.89678 0.37957 0.0
C298 C 0.615 0.92366 0.28712 0.0
C299 C 0.63477 0.82197 0.30566 0.0
Zn300 Zn 0.86342 0.89978 0.01877 0.0
Zn301 Zn 0.85028 0.83265 0.06256 0.0
C302 C 0.89139 0.88062 0.95497 0.0
O303 O 0.91269 0.90335 0.96441 0.0
C304 C 0.80276 0.84505 0.1115 0.0
O305 O 0.79153 0.81917 0.09478 0.0
O306 O 0.8662 0.94583 -0.0006 0.0
O307 O 0.81684 0.8924 0.03618 0.0
O308 O 0.82104 0.84005 0.02146 0.0
C309 C 0.84791 0.95457 0.97439 0.0
O310 O 0.8235 0.93519 0.96494 0.0
O311 O 0.86922 0.87176 0.97616 0.0
C312 C 0.86465 0.78013 0.10517 0.0
O313 O 0.8835 0.80385 0.11709 0.0
O314 O 0.84682 0.78552 0.07885 0.0
O315 O 0.89906 0.84073 0.0601 0.0
O316 O 0.90309 0.89424 0.04988 0.0
O317 O 0.82959 0.85838 0.10174 0.0
C318 C 0.80383 0.86625 0.0242 0.0
C319 C 0.9157 0.86719 0.05996 0.0
Zn320 Zn 0.58152 0.59402 0.82194 0.0
Zn321 Zn 0.64507 0.61086 0.76236 0.0
C322 C 0.59347 0.54848 0.87676 0.0
O323 O 0.56196 0.54272 0.87164 0.0
C324 C 0.62349 0.63927 0.70048 0.0
O325 O 0.64685 0.66006 0.70946 0.0
O326 O 0.53404 0.59328 0.83743 0.0
O327 O 0.59452 0.64137 0.82312 0.0
O328 O 0.63923 0.65161 0.79209 0.0
C329 C 0.52839 0.6091 0.86505 0.0
O330 O 0.55281 0.62441 0.88041 0.0
O331 O 0.60848 0.56905 0.85771 0.0
C332 C 0.69925 0.59382 0.71717 0.0
O333 O 0.68061 0.56812 0.71019 0.0
O334 O 0.69055 0.61346 0.74116 0.0
O335 O 0.63814 0.56453 0.7808 0.0
O336 O 0.58439 0.56991 0.77735 0.0
O337 O 0.61577 0.61614 0.72098 0.0
C338 C 0.61695 0.66088 0.81307 0.0
C339 C 0.60992 0.55187 0.77506 0.0
Zn340 Zn 0.6376 0.33711 0.06428 0.0
Zn341 Zn 0.63023 0.40446 0.02313 0.0
C342 C 0.6801 0.34919 0.119 0.0
O343 O 0.69227 0.32234 0.10484 0.0
C344 C 0.59874 0.38413 0.95998 0.0
O345 O 0.57922 0.40903 0.96774 0.0
O346 O 0.63739 0.28993 0.07994 0.0
O347 O 0.59028 0.34757 0.05211 0.0
O348 O 0.59487 0.40113 0.05961 0.0
C349 C 0.61956 0.28403 0.10609 0.0
O350 O 0.60082 0.30782 0.1185 0.0
O351 O 0.65431 0.36242 0.10615 0.0
C352 C 0.64502 0.45722 0.97655 0.0
O353 O 0.66669 0.43538 0.96553 0.0
O354 O 0.62786 0.45036 0.00302 0.0
O355 O 0.67717 0.39581 0.03733 0.0
O356 O 0.67299 0.3421 0.02869 0.0
O357 O 0.62055 0.37534 0.98177 0.0
C358 C 0.57784 0.37492 0.06147 0.0
C359 C 0.69047 0.36813 0.03018 0.0
Zn360 Zn 0.89161 0.38862 0.3103 0.0
Zn361 Zn 0.82611 0.37551 0.26653 0.0
C362 C 0.87583 0.43204 0.36145 0.0
O363 O 0.90203 0.44421 0.3462 0.0
C364 C 0.85097 0.34531 0.20444 0.0
O365 O 0.82534 0.32588 0.2087 0.0
O366 O 0.937 0.38946 0.33112 0.0
O367 O 0.88585 0.34139 0.29623 0.0
O368 O 0.83214 0.3405 0.30332 0.0
C369 C 0.94154 0.36869 0.35511 0.0
O370 O 0.91809 0.34752 0.36262 0.0
O371 O 0.86311 0.40542 0.34995 0.0
C372 C 0.76749 0.39291 0.22703 0.0
O373 O 0.78118 0.42221 0.22746 0.0
O374 O 0.78064 0.36967 0.24427 0.0
O375 O 0.83381 0.42391 0.27713 0.0
O376 O 0.88843 0.42177 0.27296 0.0
O377 O 0.85759 0.36657 0.22751 0.0
C378 C 0.85996 0.32587 0.30438 0.0
C379 C 0.8613 0.43713 0.26902 0.0
Zn380 Zn 0.84808 0.64195 0.57121 0.0
Zn381 Zn 0.8735 0.58289 0.50737 0.0
C382 C 0.79164 0.6323 0.61034 0.0
O383 O 0.78547 0.66001 0.59402 0.0
C384 C 0.90141 0.60878 0.44681 0.0
O385 O 0.92412 0.58693 0.455 0.0
O386 O 0.85011 0.68758 0.59109 0.0
O387 O 0.89429 0.62679 0.57429 0.0
O388 O 0.9136 0.58923 0.53805 0.0
C389 C 0.8573 0.68847 0.62293 0.0
O390 O 0.86265 0.66055 0.63912 0.0
O391 O 0.81809 0.61661 0.60339 0.0
C392 C 0.85085 0.52904 0.46545 0.0
O393 O 0.82638 0.54997 0.46087 0.0
O394 O 0.87434 0.53718 0.4856 0.0
O395 O 0.82743 0.58889 0.52648 0.0
O396 O 0.82761 0.64284 0.5246 0.0
O397 O 0.87751 0.6137 0.46733 0.0
C398 C 0.91756 0.60863 0.56348 0.0
C399 C 0.81314 0.61576 0.5184 0.0
Zn400 Zn 0.58921 0.37806 0.66181 0.0
Zn401 Zn 0.6445 0.3662 0.74957 0.0
C402 C 0.59639 0.41726 0.60536 0.0
O403 O 0.56477 0.41892 0.61283 0.0
C404 C 0.62619 0.34928 0.81784 0.0
O405 O 0.64889 0.32677 0.81158 0.0
O406 O 0.54651 0.36011 0.64452 0.0
O407 O 0.61334 0.34651 0.69025 0.0
O408 O 0.64186 0.31969 0.72765 0.0
C409 C 0.5444 0.34768 0.61458 0.0
O410 O 0.57143 0.34295 0.59647 0.0
O411 O 0.61502 0.39882 0.62336 0.0
C412 C 0.70251 0.39217 0.78495 0.0
O413 O 0.68227 0.41461 0.79744 0.0
O414 O 0.69186 0.37154 0.76291 0.0
O415 O 0.63024 0.4024 0.71556 0.0
O416 O 0.58156 0.41501 0.69477 0.0
O417 O 0.61819 0.36897 0.79379 0.0
C418 C 0.62563 0.31953 0.69979 0.0
C419 C 0.60394 0.41979 0.71727 0.0
Zn420 Zn 0.85858 0.3426 0.91925 0.0
Zn421 Zn 0.87516 0.40235 -5e-05 0.0
C422 C 0.81015 0.35209 0.87221 0.0
O423 O 0.80627 0.32181 0.88361 0.0
C424 C 0.8947 0.3793 0.06768 0.0
O425 O 0.92118 0.39712 0.06178 0.0
O426 O 0.87401 0.30043 0.89803 0.0
O427 O 0.89396 0.36731 0.94218 0.0
O428 O 0.92083 0.39878 0.97737 0.0
C429 C 0.87933 0.29949 0.86585 0.0
O430 O 0.87844 0.32694 0.84795 0.0
O431 O 0.83383 0.36927 0.88403 0.0
C432 C 0.84184 0.46145 0.02449 0.0
O433 O 0.81792 0.44131 0.03336 0.0
O434 O 0.86748 0.44983 0.01001 0.0
O435 O 0.8389 0.38572 0.96832 0.0
O436 O 0.82557 0.33482 0.95632 0.0
O437 O 0.87272 0.37722 0.04444 0.0
C438 C 0.92077 0.38065 0.95075 0.0
C439 C 0.82223 0.36006 0.97551 0.0
Zn440 Zn 0.88556 0.61124 0.15969 0.0
Zn441 Zn 0.82941 0.62388 0.24469 0.0
C442 C 0.87416 0.57236 0.10436 0.0
O443 O 0.90418 0.5646 0.1144 0.0
C444 C 0.86169 0.64191 0.30846 0.0
O445 O 0.84398 0.66895 0.30509 0.0
O446 O 0.93119 0.62433 0.14491 0.0
O447 O 0.86118 0.64177 0.18861 0.0
O448 O 0.83058 0.67027 0.22254 0.0
C449 C 0.93752 0.63169 0.11387 0.0
O450 O 0.91296 0.63593 0.09219 0.0
O451 O 0.85837 0.59469 0.12035 0.0
C452 C 0.78242 0.5951 0.28915 0.0
O453 O 0.80716 0.57449 0.29365 0.0
O454 O 0.7849 0.61747 0.26646 0.0
O455 O 0.83956 0.58572 0.21072 0.0
O456 O 0.88902 0.57295 0.19094 0.0
O457 O 0.86142 0.62065 0.28433 0.0
C458 C 0.84867 0.66924 0.19602 0.0
C459 C 0.86565 0.56796 0.21217 0.0
Zn460 Zn 0.63565 0.65385 0.43243 0.0
Zn461 Zn 0.61399 0.5916 0.49202 0.0
C462 C 0.69065 0.63722 0.39342 0.0
O463 O 0.70134 0.66197 0.41225 0.0
C464 C 0.59187 0.61407 0.55793 0.0
O465 O 0.56661 0.59521 0.54996 0.0
O466 O 0.63733 0.70044 0.41627 0.0
O467 O 0.58808 0.64204 0.43059 0.0
O468 O 0.57262 0.60179 0.46533 0.0
C469 C 0.62441 0.7038 0.38673 0.0
O470 O 0.61185 0.67772 0.37147 0.0
O471 O 0.66086 0.6279 0.39662 0.0
C472 C 0.62995 0.53359 0.53011 0.0
O473 O 0.65112 0.55396 0.54449 0.0
O474 O 0.61105 0.54435 0.50655 0.0
O475 O 0.65868 0.596 0.46989 0.0
O476 O 0.66076 0.64959 0.47661 0.0
O477 O 0.61468 0.61794 0.53586 0.0
C478 C 0.5661 0.62291 0.44225 0.0
C479 C 0.6746 0.62153 0.47899 0.0
Zn480 Zn 0.33857 0.3699 0.23692 0.0
Zn481 Zn 0.40005 0.39072 0.17666 0.0
C482 C 0.36283 0.34573 0.30024 0.0
O483 O 0.34124 0.32256 0.29293 0.0
C484 C 0.38759 0.43695 0.1234 0.0
O485 O 0.41926 0.44251 0.12781 0.0
O486 O 0.29396 0.36608 0.25893 0.0
O487 O 0.34229 0.41605 0.21711 0.0
O488 O 0.39636 0.41611 0.22092 0.0
C489 C 0.28205 0.38843 0.27838 0.0
O490 O 0.29745 0.41682 0.28127 0.0
O491 O 0.36879 0.36766 0.27777 0.0
C492 C 0.45066 0.37451 0.13083 0.0
O493 O 0.42451 0.36137 0.11626 0.0
O494 O 0.44709 0.38955 0.1594 0.0
O495 O 0.38502 0.34432 0.17313 0.0
O496 O 0.34375 0.3294 0.20684 0.0
O497 O 0.37298 0.416 0.14217 0.0
C498 C 0.369 0.43143 0.22344 0.0
C499 C 0.36443 0.32301 0.18321 0.0
Zn500 Zn 0.35637 0.58048 0.98454 0.0
Zn501 Zn 0.36194 0.64958 0.92207 0.0
C502 C 0.38409 0.60543 0.04816 0.0
O503 O 0.40783 0.58432 0.04095 0.0
C504 C 0.32527 0.63781 0.86451 0.0
O505 O 0.32266 0.66959 0.8706 0.0
O506 O 0.34592 0.53489 0.00046 0.0
O507 O 0.32162 0.59983 0.95351 0.0
O508 O 0.3216 0.65399 0.95076 0.0
C509 C 0.33131 0.52939 0.02875 0.0
O510 O 0.31572 0.55385 0.04409 0.0
O511 O 0.36059 0.60902 0.0268 0.0
C512 C 0.39222 0.7012 0.88003 0.0
O513 O 0.40884 0.67733 0.86486 0.0
O514 O 0.37439 0.69474 0.90602 0.0
O515 O 0.39445 0.62991 0.95413 0.0
O516 O 0.39905 0.57669 0.95872 0.0
O517 O 0.34572 0.62108 0.88225 0.0
C518 C 0.30849 0.62742 0.96144 0.0
C519 C 0.40938 0.60355 0.94623 0.0
Zn520 Zn 0.15037 0.62731 0.75278 0.0
Zn521 Zn 0.09325 0.60622 0.67299 0.0
C522 C 0.12064 0.65478 0.81246 0.0
O523 O 0.14474 0.67601 0.80778 0.0
C524 C 0.09667 0.56295 0.61676 0.0
O525 O 0.06509 0.56169 0.62439 0.0
O526 O 0.19245 0.6226 0.77984 0.0
O527 O 0.14039 0.58375 0.72685 0.0
O528 O 0.08865 0.57445 0.71158 0.0
C529 C 0.21481 0.60048 0.7802 0.0
O530 O 0.21358 0.57563 0.75844 0.0
O531 O 0.11578 0.63281 0.78962 0.0
C532 C 0.04534 0.63191 0.62618 0.0
O533 O 0.07162 0.63642 0.6069 0.0
O534 O 0.04911 0.62224 0.657 0.0
O535 O 0.12128 0.63998 0.69257 0.0
O536 O 0.15438 0.6692 0.72298 0.0
O537 O 0.11571 0.58111 0.6346 0.0
C538 C 0.11338 0.5678 0.73066 0.0
C539 C 0.13661 0.66668 0.69637 0.0
Zn540 Zn 0.11217 0.40198 0.4821 0.0
Zn541 Zn 0.13327 0.33888 0.42393 0.0
C542 C 0.08863 0.37397 0.54689 0.0
O543 O 0.06172 0.39131 0.5411 0.0
C544 C 0.18835 0.35007 0.3837 0.0
O545 O 0.19613 0.32368 0.40157 0.0
O546 O 0.10987 0.44817 0.50124 0.0
O547 O 0.15827 0.3965 0.4627 0.0
O548 O 0.15627 0.34278 0.46899 0.0
C549 C 0.12905 0.4556 0.52599 0.0
O550 O 0.14989 0.43315 0.5372 0.0
O551 O 0.11103 0.37291 0.52402 0.0
C552 C 0.12606 0.28827 0.37635 0.0
O553 O 0.11625 0.31431 0.359 0.0
O554 O 0.13447 0.2919 0.40763 0.0
O555 O 0.08623 0.35149 0.42065 0.0
O556 O 0.07172 0.39476 0.45211 0.0
O557 O 0.1606 0.3639 0.38919 0.0
C558 C 0.17235 0.36958 0.47102 0.0
C559 C 0.06476 0.37225 0.43043 0.0
Zn560 Zn 0.33305 0.62372 0.25195 0.0
Zn561 Zn 0.3865 0.60446 0.33752 0.0
C562 C 0.35577 0.64544 0.18763 0.0
O563 O 0.33301 0.66776 0.19433 0.0
C564 C 0.38082 0.55919 0.38695 0.0
O565 O 0.40995 0.55509 0.37253 0.0
O566 O 0.28675 0.61956 0.2343 0.0
O567 O 0.34359 0.58281 0.28201 0.0
O568 O 0.39268 0.56945 0.30167 0.0
C569 C 0.28128 0.60038 0.209 0.0
O570 O 0.30573 0.58241 0.19684 0.0
O571 O 0.36222 0.62378 0.21025 0.0
C572 C 0.4337 0.62847 0.38604 0.0
O573 O 0.4079 0.62825 0.40653 0.0
O574 O 0.42999 0.62095 0.35452 0.0
O575 O 0.36224 0.63731 0.31165 0.0
O576 O 0.33741 0.66888 0.27599 0.0
O577 O 0.36222 0.5822 0.37595 0.0
C578 C 0.36953 0.56485 0.27994 0.0
C579 C 0.35336 0.66602 0.30375 0.0
Zn580 Zn 0.11961 0.58816 0.01103 0.0
Zn581 Zn 0.13571 0.65383 0.06689 0.0
C582 C 0.08973 0.6143 0.95011 0.0
O583 O 0.06753 0.59162 0.95697 0.0
C584 C 0.16285 0.62928 0.1316 0.0
O585 O 0.13898 0.64635 0.14617 0.0
O586 O 0.12155 0.54223 0.99079 0.0
O587 O 0.16487 0.59804 0.03025 0.0
O588 O 0.15922 0.65131 0.02193 0.0
C589 C 0.13947 0.53677 0.96446 0.0
O590 O 0.15717 0.56104 0.9518 0.0
O591 O 0.11355 0.6184 0.97093 0.0
C592 C 0.1128 0.70876 0.10601 0.0
O593 O 0.08888 0.68788 0.11241 0.0
O594 O 0.1356 0.70063 0.08509 0.0
O595 O 0.08991 0.63693 0.07006 0.0
O596 O 0.07876 0.5915 0.04055 0.0
O597 O 0.1647 0.62832 0.09905 0.0
C598 C 0.17715 0.62554 0.02102 0.0
C599 C 0.07031 0.61403 0.06157 0.0
Zn600 Zn 0.14134 0.36724 0.75048 0.0
Zn601 Zn 0.08705 0.39281 0.82074 0.0
C602 C 0.11646 0.34077 0.68869 0.0
O603 O 0.13687 0.31715 0.69801 0.0
C604 C 0.11246 0.41942 0.88336 0.0
O605 O 0.09364 0.39605 0.89608 0.0
O606 O 0.18697 0.36138 0.73063 0.0
O607 O 0.13918 0.41366 0.7695 0.0
O608 O 0.08524 0.41542 0.77516 0.0
C609 C 0.20905 0.38355 0.72815 0.0
O610 O 0.20339 0.413 0.74115 0.0
O611 O 0.1117 0.36497 0.70898 0.0
C612 C 0.02736 0.36874 0.85258 0.0
O613 O 0.03846 0.33988 0.84227 0.0
O614 O 0.04255 0.39479 0.84358 0.0
O615 O 0.10067 0.34551 0.82233 0.0
O616 O 0.13316 0.32772 0.78055 0.0
O617 O 0.11579 0.42118 0.85093 0.0
C618 C 0.11234 0.42998 0.76913 0.0
C619 C 0.11666 0.32249 0.80773 0.0
Zn620 Zn 0.36485 0.39346 0.51031 0.0
Zn621 Zn 0.34257 0.33382 0.57784 0.0
C622 C 0.38669 0.37803 0.44344 0.0
O623 O 0.40979 0.39864 0.45354 0.0
C624 C 0.32427 0.36163 0.64256 0.0
O625 O 0.3497 0.34408 0.65294 0.0
O626 O 0.36758 0.44117 0.49819 0.0
O627 O 0.3218 0.38626 0.53497 0.0
O628 O 0.31589 0.33266 0.5346 0.0
C629 C 0.34551 0.45422 0.47933 0.0
O630 O 0.31954 0.43675 0.47052 0.0
O631 O 0.36413 0.37009 0.46463 0.0
C632 C 0.36897 0.27191 0.60114 0.0
O633 O 0.39427 0.28101 0.5823 0.0
O634 O 0.34285 0.28944 0.60089 0.0
O635 O 0.38978 0.34627 0.57384 0.0
O636 O 0.40705 0.38132 0.53432 0.0
O637 O 0.31806 0.36321 0.61063 0.0
C638 C 0.30583 0.36097 0.52529 0.0
C639 C 0.41281 0.36195 0.55918 0.0
C640 C 0.25925 0.13108 0.19535 0.0
C641 C 0.2414 0.10164 0.19031 0.0
C642 C 0.28394 0.14083 0.17228 0.0
C643 C 0.29235 0.12124 0.1437 0.0
H644 H 0.25298 0.14773 0.21623 0.0
H645 H 0.29552 0.16471 0.17595 0.0
S646 S 0.25597 0.04046 0.12031 0.0
N647 N 0.23589 0.05171 0.15546 0.0
N648 N 0.28306 0.07001 0.11278 0.0
C649 C 0.27671 0.09062 0.13965 0.0
C650 C 0.25101 0.08084 0.16278 0.0
C651 C 0.13899 0.01069 0.39976 0.0
C652 C 0.11801 0.03606 0.41166 0.0
C653 C 0.14595 0.983 0.42003 0.0
C654 C 0.13213 0.97938 0.45304 0.0
H655 H 0.1496 0.01175 0.3742 0.0
H656 H 0.16169 0.96391 0.40924 0.0
S657 S 0.07708 0.03966 0.49715 0.0
N658 N 0.08463 0.05647 0.45936 0.0
N659 N 0.09765 0.00441 0.49738 0.0
C660 C 0.11192 0.00504 0.46573 0.0
C661 C 0.10489 0.03335 0.44509 0.0
C662 C 0.21778 0.86844 0.70739 0.0
C663 C 0.24563 0.88347 0.69249 0.0
C664 C 0.18923 0.86191 0.68803 0.0
C665 C 0.18733 0.87003 0.65289 0.0
H666 H 0.21839 0.86064 0.73401 0.0
H667 H 0.16901 0.84912 0.70043 0.0
S668 S 0.253 0.91119 0.60173 0.0
N669 N 0.26894 0.90768 0.64062 0.0
N670 N 0.21549 0.8955 0.60438 0.0
C671 C 0.21441 0.88664 0.63806 0.0
C672 C 0.24349 0.8933 0.6578 0.0
C673 C 0.36208 0.94755 0.93727 0.0
C674 C 0.37109 0.95372 0.90299 0.0
C675 C 0.35116 0.97346 0.95869 0.0
C676 C 0.34793 0.00584 0.94597 0.0
H677 H 0.36493 0.92302 0.94795 0.0
H678 H 0.34573 0.9683 0.98542 0.0
S679 S 0.36619 0.03366 0.85718 0.0
N680 N 0.37498 -0.00617 0.85694 0.0
N681 N 0.35317 0.04207 0.8965 0.0
C682 C 0.35534 0.01173 0.91124 0.0
C683 C 0.36728 0.98573 0.8899 0.0
C684 C 0.29101 0.86535 0.31339 0.0
C685 C 0.28879 0.86324 0.34929 0.0
C686 C 0.26366 0.87561 0.29395 0.0
C687 C 0.23378 0.88465 0.31006 0.0
H688 H 0.31314 0.85703 0.30022 0.0
H689 H 0.26534 0.87499 0.26614 0.0
S690 S 0.21711 0.88588 0.40386 0.0
N691 N 0.25565 0.87271 0.40045 0.0
N692 N 0.20454 0.8929 0.36413 0.0
C693 C 0.23227 0.88486 0.34614 0.0
C694 C 0.25978 0.87382 0.36576 0.0
C695 C 0.37989 0.00816 0.55041 0.0
C696 C 0.35 0.99045 0.55173 0.0
C697 C 0.38849 0.0305 0.57644 0.0
C698 C 0.36727 0.03663 0.60431 0.0
H699 H 0.39805 0.00295 0.53063 0.0
H700 H 0.41289 0.04149 0.5759 0.0
S701 S 0.28361 0.0019 0.61682 0.0
N702 N 0.29703 0.9844 0.58097 0.0
N703 N 0.31351 0.02675 0.6298 0.0
C704 C 0.33599 0.02183 0.60433 0.0
C705 C 0.32724 -0.0013 0.57795 0.0
C706 C 0.21112 0.09941 0.84125 0.0
C707 C 0.20403 0.13326 0.84504 0.0
C708 C 0.23625 0.08853 0.81903 0.0
C709 C 0.25472 0.11106 0.79939 0.0
H710 H 0.19808 0.08129 0.85651 0.0
H711 H 0.24169 0.06233 0.81779 0.0
S712 S 0.24352 0.20223 0.79787 0.0
N713 N 0.21591 0.18907 0.82584 0.0
N714 N 0.26266 0.16878 0.78381 0.0
C715 C 0.24669 0.14488 0.80178 0.0
C716 C 0.22149 0.15594 0.82472 0.0
C717 C 0.09549 0.95889 0.06742 0.0
C718 C 0.11727 0.947 0.09257 0.0
C719 C 0.10623 0.98072 0.04215 0.0
C720 C 0.13903 0.99229 0.04165 0.0
H721 H 0.06959 0.95214 0.06791 0.0
H722 H 0.08794 0.99029 0.0244 0.0
S723 S 0.20674 0.96521 0.09946 0.0
N724 N 0.17388 0.94517 0.11345 0.0
N725 N 0.19407 0.98749 0.06643 0.0
C726 C 0.16162 0.97896 0.0654 0.0
C727 C 0.15074 0.95598 0.09078 0.0
C728 C 0.73185 0.85888 0.78649 0.0
C729 C 0.75235 0.88592 0.79431 0.0
C730 C 0.70541 0.85057 0.80773 0.0
C731 C 0.6981 0.8694 0.83704 0.0
H732 H 0.73734 0.8428 0.7649 0.0
H733 H 0.69153 0.82831 0.80212 0.0
S734 S 0.74147 0.94454 0.86715 0.0
N735 N 0.76168 0.93318 0.83212 0.0
N736 N 0.71118 0.91761 0.87171 0.0
C737 C 0.71646 0.89801 0.84378 0.0
C738 C 0.74382 0.90634 0.82238 0.0
C739 C 0.83546 0.98741 0.57254 0.0
C740 C 0.85178 0.99227 0.54085 0.0
C741 C 0.8468 0.96383 0.59626 0.0
C742 C 0.87475 0.94436 0.58896 0.0
H743 H 0.81519 0.00336 0.58012 0.0
H744 H 0.83507 0.96247 0.62128 0.0
S745 S 0.92099 0.94145 0.50671 0.0
N746 N 0.89338 0.97107 0.50122 0.0
N747 N 0.91477 0.92723 0.54592 0.0
C748 C 0.88905 0.94658 0.55617 0.0
C749 C 0.87746 0.97032 0.532 0.0
C750 C 0.71717 0.10831 0.33152 0.0
C751 C 0.72688 0.09769 0.29864 0.0
C752 C 0.74042 0.11935 0.35545 0.0
C753 C 0.77437 0.11915 0.3478 0.0
H754 H 0.69124 0.10931 0.33836 0.0
H755 H 0.73165 0.12843 0.38008 0.0
S756 S 0.81274 0.08987 0.26656 0.0
N757 N 0.77258 0.08555 0.2601 0.0
N758 N 0.81684 0.10488 0.30592 0.0
C759 C 0.78464 0.10676 0.31566 0.0
C760 C 0.76072 0.09642 0.2908 0.0
C761 C 0.63618 0.02068 0.04046 0.0
C762 C 0.63523 0.98864 0.05418 0.0
C763 C 0.62945 0.04841 0.06127 0.0
C764 C 0.62116 0.04485 0.09629 0.0
H765 H 0.6419 0.02429 0.01352 0.0
H766 H 0.63022 0.07271 0.04974 0.0
S767 S 0.61143 0.96524 0.14267 0.0
N768 N 0.62364 0.95449 0.10375 0.0
N769 N 0.60991 0.00601 0.14261 0.0
C770 C 0.61978 0.01264 0.10994 0.0
C771 C 0.62707 0.98467 0.08891 0.0
C772 C 0.71192 0.09919 0.7171 0.0
C773 C 0.74477 0.10804 0.70984 0.0
C774 C 0.68685 0.10338 0.69249 0.0
C775 C 0.69395 0.1158 0.65954 0.0
H776 H 0.70535 0.08982 0.74225 0.0
H777 H 0.6617 0.09717 0.69945 0.0
S778 S 0.77677 0.13997 0.62677 0.0
N779 N 0.78341 0.12811 0.66673 0.0
N780 N 0.73671 0.13537 0.62047 0.0
C781 C 0.72702 0.12344 0.65154 0.0
C782 C 0.75232 0.11974 0.67671 0.0
C783 C 0.63948 0.97343 0.4471 0.0
C784 C 0.61796 -0.00013 0.45469 0.0
C785 C 0.62896 0.94648 0.42714 0.0
C786 C 0.59656 0.94501 0.41408 0.0
H787 H 0.66493 0.97395 0.45573 0.0
H788 H 0.64674 0.92733 0.42088 0.0
S789 S 0.5295 0.00628 0.42935 0.0
N790 N 0.56191 0.02157 0.4495 0.0
N791 N 0.54223 0.97106 0.41251 0.0
C792 C 0.57433 0.97045 0.42298 0.0
C793 C 0.58501 -0.00215 0.4431 0.0
C794 C 0.775 0.89083 0.14374 0.0
C795 C 0.78408 0.85741 0.14129 0.0
C796 C 0.75169 0.90133 0.16828 0.0
C797 C 0.73747 0.87883 0.19154 0.0
H798 H 0.78432 0.90848 0.12526 0.0
H799 H 0.74381 0.92693 0.1682 0.0
S800 S 0.75621 0.78909 0.19737 0.0
N801 N 0.77923 0.80238 0.16526 0.0
N802 N 0.73631 0.82194 0.21189 0.0
C803 C 0.74827 0.84573 0.19066 0.0
C804 C 0.77134 0.83506 0.16533 0.0
C805 C 0.8462 0.01832 0.90267 0.0
C806 C 0.87957 0.02755 0.9002 0.0
C807 C 0.83576 -0.00438 0.92772 0.0
C808 C 0.85819 0.98212 0.95166 0.0
H809 H 0.82841 0.0274 0.88412 0.0
H810 H 0.81012 0.98795 0.92773 0.0
S811 S 0.94793 0.00074 0.95727 0.0
N812 N 0.93467 0.02289 0.92448 0.0
N813 N 0.91508 0.9814 0.97217 0.0
C814 C 0.89131 -0.00731 0.95044 0.0
C815 C 0.90199 0.01506 0.9245 0.0
C816 C 0.74055 0.57964 0.67112 0.0
C817 C 0.72578 0.60346 0.6928 0.0
C818 C 0.76277 0.58886 0.64504 0.0
C819 C 0.77016 0.62228 0.63917 0.0
H820 H 0.73452 0.55374 0.67397 0.0
H821 H 0.77328 0.56988 0.62863 0.0
S822 S 0.73975 0.6941 0.68962 0.0
N823 N 0.7219 0.66186 0.70757 0.0
N824 N 0.76257 0.67904 0.65806 0.0
C825 C 0.75623 0.6462 0.66108 0.0
C826 C 0.73435 0.63683 0.68806 0.0
C827 C 0.63904 0.51202 0.89762 0.0
C828 C 0.61057 0.53074 0.90453 0.0
C829 C 0.65141 0.4897 0.92207 0.0
C830 C 0.63585 0.48564 0.9543 0.0
H831 H 0.65054 0.51306 0.87248 0.0
H832 H 0.67229 0.47437 0.91489 0.0
S833 S 0.56415 0.53424 0.98655 0.0
N834 N 0.56968 0.54734 0.94681 0.0
N835 N 0.59315 0.5062 0.99317 0.0
C836 C 0.60905 0.50658 0.96237 0.0
C837 C 0.5963 0.52887 0.93732 0.0
C838 C 0.69105 0.36043 0.18114 0.0
C839 C 0.69928 0.3653 0.14638 0.0
C840 C 0.71293 0.36994 0.20754 0.0
C841 C 0.74335 0.38496 0.19979 0.0
H842 H 0.66831 0.34792 0.18785 0.0
H843 H 0.7063 0.36507 0.23403 0.0
S844 S 0.77669 0.4016 0.11269 0.0
N845 N 0.74006 0.38496 0.10562 0.0
N846 N 0.78075 0.40347 0.15494 0.0
C847 C 0.75144 0.39037 0.16512 0.0
C848 C 0.72949 0.38032 0.13844 0.0
C849 C 0.83117 0.49478 0.41555 0.0
C850 C 0.85326 0.49898 0.44338 0.0
C851 C 0.83648 0.47029 0.39042 0.0
C852 C 0.86378 0.44898 0.39252 0.0
H853 H 0.81082 0.51183 0.41183 0.0
H854 H 0.82062 0.4697 0.36797 0.0
S855 S 0.92578 0.44568 0.46248 0.0
N856 N 0.90115 0.47659 0.47338 0.0
N857 N 0.91094 0.4309 0.426 0.0
C858 C 0.88438 0.45105 0.42145 0.0
C859 C 0.87912 0.47591 0.44699 0.0
C860 C 0.74564 0.35205 0.80269 0.0
C861 C 0.73394 0.38481 0.80275 0.0
C862 C 0.77135 0.34228 0.82426 0.0
C863 C 0.78693 0.36493 0.84629 0.0
H864 H 0.73363 0.33317 0.78736 0.0
H865 H 0.77835 0.31642 0.82444 0.0
S866 S 0.76908 0.45463 0.85267 0.0
N867 N 0.74207 0.44071 0.82426 0.0
N868 N 0.79133 0.4223 0.86448 0.0
C869 C 0.77733 0.3983 0.84486 0.0
C870 C 0.75055 0.40823 0.82319 0.0
C871 C 0.8312 0.53242 0.08641 0.0
C872 C 0.85854 0.55204 0.0779 0.0
C873 C 0.82351 0.50436 0.06676 0.0
C874 C 0.84293 0.49554 0.03807 0.0
H875 H 0.81776 0.53688 0.11008 0.0
H876 H 0.80422 0.48809 0.07591 0.0
S877 S 0.91137 0.54472 0.00066 0.0
N878 N 0.90098 0.56478 0.0361 0.0
N879 N 0.88601 0.51288 0.99821 0.0
C880 C 0.86742 0.51773 0.02693 0.0
C881 C 0.87544 0.54583 0.0472 0.0
C882 C 0.72437 0.60371 0.30938 0.0
C883 C 0.75815 0.59989 0.31686 0.0
C884 C 0.70197 0.61382 0.33499 0.0
C885 C 0.71305 0.62156 0.36834 0.0
H886 H 0.71542 0.59975 0.28343 0.0
H887 H 0.67624 0.61739 0.32815 0.0
S888 S 0.7989 0.61437 0.40098 0.0
N889 N 0.80125 0.60282 0.36029 0.0
N890 N 0.75958 0.62329 0.40784 0.0
C891 C 0.74659 0.61689 0.37627 0.0
C892 C 0.76908 0.60566 0.35062 0.0
C893 C 0.63771 0.46009 0.58977 0.0
C894 C 0.6099 0.44124 0.58087 0.0
C895 C 0.64524 0.48911 0.57182 0.0
C896 C 0.62532 0.49999 0.5443 0.0
H897 H 0.6522 0.45384 0.61227 0.0
H898 H 0.66578 0.50395 0.58079 0.0
S899 S 0.55363 0.45509 0.50717 0.0
N900 N 0.56524 0.43247 0.54029 0.0
N901 N 0.57955 0.48651 0.50598 0.0
C902 C 0.59936 0.47941 0.53323 0.0
C903 C 0.59159 0.45014 0.55172 0.0
C904 C 0.23291 0.33805 0.34166 0.0
C905 C 0.21059 0.36103 0.35584 0.0
C906 C 0.2549 0.34702 0.3157 0.0
C907 C 0.25599 0.37953 0.30323 0.0
H908 H 0.23346 0.31274 0.35065 0.0
H909 H 0.27191 0.32844 0.3061 0.0
S910 S 0.20229 0.44905 0.33091 0.0
N911 N 0.1901 0.41759 0.3547 0.0
N912 N 0.23244 0.43476 0.30629 0.0
C913 C 0.23369 0.40283 0.31685 0.0
C914 C 0.21068 0.39349 0.343 0.0
C915 C 0.33988 0.47148 0.10446 0.0
C916 C 0.3696 0.4551 0.0967 0.0
C917 C 0.3259 0.49381 0.08102 0.0
C918 C 0.34094 0.49988 0.04895 0.0
H919 H 0.32862 0.46871 0.12958 0.0
H920 H 0.30422 0.50767 0.08886 0.0
S921 S 0.41588 0.45766 0.01465 0.0
N922 N 0.41139 0.44283 0.05384 0.0
N923 N 0.3848 0.48359 0.00913 0.0
C924 C 0.36896 0.48093 0.03985 0.0
C925 C 0.38347 0.4589 0.06399 0.0
C926 C 0.27496 0.59429 0.79565 0.0
C927 C 0.24261 0.60414 0.80462 0.0
C928 C 0.30221 0.6032 0.81629 0.0
C929 C 0.29758 0.62186 0.84646 0.0
H930 H 0.27944 0.58142 0.77163 0.0
H931 H 0.32695 0.59715 0.80764 0.0
S932 S 0.21762 0.64789 0.88461 0.0
N933 N 0.20744 0.62936 0.84825 0.0
N934 N 0.25832 0.64586 0.88667 0.0
C935 C 0.26523 0.62934 0.85699 0.0
C936 C 0.23777 0.6205 0.83617 0.0
C937 C 0.1355 0.51882 0.59785 0.0
C938 C 0.10962 0.54067 0.59011 0.0
C939 C 0.14293 0.49231 0.57583 0.0
C940 C 0.12483 0.487 0.54529 0.0
H941 H 0.14856 0.52086 0.6221 0.0
H942 H 0.16187 0.47499 0.58378 0.0
S943 S 0.05922 0.542 0.51066 0.0
N944 N 0.06903 0.55848 0.54818 0.0
N945 N 0.08331 0.50926 0.5062 0.0
C946 C 0.10091 0.51068 0.53594 0.0
C947 C 0.09317 0.53735 0.55858 0.0
C948 C 0.19374 0.62597 0.18709 0.0
C949 C 0.19068 0.6164 0.15244 0.0
C950 C 0.22254 0.61914 0.20575 0.0
C951 C 0.24931 0.60226 0.19058 0.0
H952 H 0.17448 0.64029 0.19953 0.0
H953 H 0.22425 0.62828 0.23191 0.0
S954 S 0.25196 0.5679 0.10191 0.0
N955 N 0.21555 0.58617 0.10469 0.0
N956 N 0.26959 0.57323 0.13979 0.0
C957 C 0.24565 0.59046 0.1567 0.0
C958 C 0.21637 0.59758 0.13761 0.0
C959 C 0.13766 0.47551 0.89051 0.0
C960 C 0.12413 0.44696 0.90558 0.0
C961 C 0.14402 0.50392 0.91011 0.0
C962 C 0.13689 0.50503 0.94552 0.0
H963 H 0.14214 0.47652 0.86306 0.0
H964 H 0.15315 0.52564 0.89701 0.0
S965 S 0.10607 0.4355 0.99845 0.0
N966 N 0.10742 0.42049 0.95894 0.0
N967 N 0.11909 0.47402 0.99561 0.0
C968 C 0.12526 0.47611 0.96132 0.0
C969 C 0.119 0.44706 0.94141 0.0
C970 C 0.29081 0.3975 0.68187 0.0
C971 C 0.2966 0.36677 0.66628 0.0
C972 C 0.26282 0.40251 0.70267 0.0
C973 C 0.2397 0.37699 0.70823 0.0
H974 H 0.30769 0.41781 0.67758 0.0
H975 H 0.25901 0.42675 0.71388 0.0
S976 S 0.24477 0.2918 0.67248 0.0
N977 N 0.27793 0.31056 0.65749 0.0
N978 N 0.22539 0.31956 0.69632 0.0
C979 C 0.24581 0.34597 0.69288 0.0
C980 C 0.27425 0.341 0.67192 0.0
C981 C 0.3865 0.49167 0.45298 0.0
C982 C 0.3533 0.48476 0.46054 0.0
C983 C 0.39493 0.5168 0.43024 0.0
C984 C 0.37055 0.53633 0.41439 0.0
H985 H 0.40621 0.47641 0.4632 0.0
H986 H 0.42086 0.52019 0.42426 0.0
S987 S 0.28016 0.53142 0.42966 0.0
N988 N 0.29593 0.50142 0.45331 0.0
N989 N 0.31188 0.54944 0.41069 0.0
C990 C 0.3373 0.53128 0.42353 0.0
C991 C 0.32864 0.50522 0.44651 0.0
C992 C 0.13045 0.22682 0.37952 0.0
C993 C 0.12828 0.25557 0.35942 0.0
C994 C 0.13209 0.19552 0.36419 0.0
C995 C 0.13245 0.19186 0.32823 0.0
H996 H 0.13029 0.2284 0.40734 0.0
H997 H 0.13305 0.17396 0.38061 0.0
S998 S 0.12703 0.25904 0.26394 0.0
N999 N 0.12622 0.27824 0.30147 0.0
N1000 N 0.1301 0.21928 0.27283 0.0
C1001 C 0.13074 0.2203 0.30777 0.0
C1002 C 0.1284 0.25219 0.32334 0.0
C1003 C 0.02298 0.84179 0.57232 0.0
C1004 C 0.04714 0.86501 0.5816 0.0
C1005 C -0.00705 0.84002 0.59014 0.0
C1006 C 0.98628 0.86106 0.61824 0.0
H1007 H 0.02708 0.82522 0.55078 0.0
H1008 H 0.97478 0.82218 0.58159 0.0
S1009 S 0.04328 0.92403 0.65457 0.0
N1010 N 0.06357 0.90812 0.62161 0.0
N1011 N 0.00748 0.90459 0.65563 0.0
C1012 C 0.01084 0.88371 0.62839 0.0
C1013 C 0.04116 0.88578 0.60989 0.0
C1014 C 0.3439 0.7721 0.84227 0.0
C1015 C 0.36722 0.78796 0.82166 0.0
C1016 C 0.3529 0.74496 0.86223 0.0
C1017 C 0.3853 0.73206 0.86135 0.0
H1018 H 0.31866 0.78109 0.84342 0.0
H1019 H 0.33397 0.73358 0.87786 0.0
S1020 S 0.45572 0.76603 0.81191 0.0
N1021 N 0.42429 0.79052 0.80236 0.0
N1022 N 0.44098 0.73793 0.83857 0.0
C1023 C 0.40894 0.74786 0.84074 0.0
C1024 C 0.39994 0.77626 0.8212 0.0
C1025 C 0.46642 0.13458 0.07347 0.0
C1026 C 0.44265 0.1098 0.07844 0.0
C1027 C 0.49431 0.13687 0.0946 0.0
C1028 C 0.49958 0.11466 0.12191 0.0
H1029 H 0.4634 0.15254 0.0531 0.0
H1030 H 0.51186 0.15639 0.08936 0.0
S1031 S 0.44374 0.04609 0.14679 0.0
N1032 N 0.4256 0.06298 0.11308 0.0
N1033 N 0.47799 0.06738 0.15315 0.0
C1034 C 0.4759 0.08974 0.12726 0.0
C1035 C 0.44752 0.08725 0.10542 0.0
C1036 C 0.11453 0.76063 0.18669 0.0
C1037 C 0.12639 0.79104 0.17488 0.0
C1038 C 0.10933 0.73446 0.16378 0.0
C1039 C 0.11684 0.73762 0.12859 0.0
H1040 H 0.10874 0.75725 0.21366 0.0
H1041 H 0.10007 0.71133 0.17385 0.0
S1042 S 0.14909 0.81231 0.08536 0.0
N1043 N 0.14522 0.82331 0.12613 0.0
N1044 N 0.13694 0.7734 0.08312 0.0
C1045 C 0.12909 0.76784 0.11658 0.0
C1046 C 0.13345 0.7948 0.13977 0.0
C1047 C 0.48995 0.8808 0.38309 0.0
C1048 C 0.50531 0.84968 0.38665 0.0
C1049 C 0.4632 0.88996 0.40376 0.0
C1050 C 0.45025 0.86796 0.42788 0.0
H1051 H 0.4993 0.89881 0.36505 0.0
H1052 H 0.45234 0.91426 0.40059 0.0
S1053 S 0.47831 0.78233 0.4445 0.0
N1054 N 0.50408 0.79618 0.41489 0.0
N1055 N 0.45226 0.81294 0.45249 0.0
C1056 C 0.46398 0.83621 0.43057 0.0
C1057 C 0.49193 0.82716 0.41023 0.0
C1058 C 0.34498 0.23512 0.64622 0.0
C1059 C 0.37177 0.24342 0.62483 0.0
C1060 C 0.34691 0.20857 0.66912 0.0
C1061 C 0.37578 0.1893 0.67177 0.0
H1062 H 0.32211 0.24906 0.64517 0.0
H1063 H 0.32536 0.20287 0.68452 0.0
S1064 S 0.45391 0.20203 0.6231 0.0
N1065 N 0.4287 0.23099 0.6088 0.0
N1066 N 0.43257 0.18156 0.6522 0.0
C1067 C 0.40323 0.19803 0.65136 0.0
C1068 C 0.40115 0.22489 0.62778 0.0
C1069 C 0.02492 0.07777 0.9088 0.0
C1070 C 0.04124 0.10562 0.92196 0.0
C1071 C -0.00304 0.08134 0.88798 0.0
C1072 C 0.98407 0.1128 0.88075 0.0
H1073 H 0.03398 0.05315 0.91437 0.0
H1074 H 0.9847 0.05934 0.87853 0.0
S1075 S 0.01788 0.1933 0.90926 0.0
N1076 N 0.04321 0.16553 0.92588 0.0
N1077 N 0.98956 0.17218 0.88792 0.0
C1078 C 0.00016 0.1408 0.89375 0.0
C1079 C 0.02913 0.13721 0.91411 0.0
C1080 C 0.8635 0.78042 0.63939 0.0
C1081 C 0.86355 0.78267 0.67549 0.0
C1082 C 0.86124 0.74989 0.6227 0.0
C1083 C 0.85954 0.72033 0.64147 0.0
H1084 H 0.86475 0.80254 0.62383 0.0
H1085 H 0.86109 0.74951 0.59484 0.0
S1086 S 0.86047 0.71275 0.73669 0.0
N1087 N 0.86246 0.75292 0.72963 0.0
N1088 N 0.85891 0.69517 0.69834 0.0
C1089 C 0.86008 0.72217 0.67768 0.0
C1090 C 0.86184 0.75343 0.69469 0.0
C1091 C 0.9926 0.08543 0.38425 0.0
C1092 C 0.00255 0.1163 0.37116 0.0
C1093 C 0.96565 0.08273 0.40676 0.0
C1094 C 0.94734 0.11071 0.41653 0.0
H1095 H 0.00602 0.06313 0.37752 0.0
H1096 H 0.95863 0.05849 0.41593 0.0
S1097 S 0.96326 0.1973 0.39062 0.0
N1098 N 0.99201 0.17559 0.37051 0.0
N1099 N 0.94114 0.17025 0.41237 0.0
C1100 C 0.95687 0.14168 0.40374 0.0
C1101 C 0.98451 0.14455 0.38118 0.0
C1102 C 0.59733 0.24387 0.14865 0.0
C1103 C 0.6216 0.25197 0.12421 0.0
C1104 C 0.59887 0.21425 0.16703 0.0
C1105 C 0.62505 0.19179 0.16217 0.0
H1106 H 0.57673 0.26039 0.15351 0.0
H1107 H 0.57936 0.20892 0.18527 0.0
S1108 S 0.69498 0.20111 0.10133 0.0
N1109 N 0.67267 0.23493 0.09603 0.0
N1110 N 0.67573 0.17942 0.13111 0.0
C1111 C 0.64972 0.19964 0.13813 0.0
C1112 C 0.6479 0.22964 0.11895 0.0
C1113 C 0.49344 0.88883 0.88974 0.0
C1114 C 0.48163 0.85615 0.88772 0.0
C1115 C 0.52165 0.89661 0.9088 0.0
C1116 C 0.53956 0.87187 0.92565 0.0
H1117 H 0.48022 0.90883 0.87737 0.0
H1118 H 0.52966 0.92211 0.91016 0.0
S1119 S 0.51986 0.78253 0.92782 0.0
N1120 N 0.4901 0.79892 0.90423 0.0
N1121 N 0.54436 0.81342 0.93892 0.0
C1122 C 0.52869 0.83899 0.92327 0.0
C1123 C 0.49934 0.83116 0.9046 0.0
C1124 C 0.89486 0.24037 0.86386 0.0
C1125 C 0.87906 0.2673 0.84841 0.0
C1126 C 0.89127 0.20851 0.85057 0.0
C1127 C 0.8712 0.20213 0.82164 0.0
H1128 H 0.90969 0.24388 0.8868 0.0
H1129 H 0.90386 0.18869 0.86372 0.0
S1130 S 0.82443 0.26499 0.77186 0.0
N1131 N 0.843 0.2863 0.80253 0.0
N1132 N 0.83568 0.22614 0.77761 0.0
C1133 C 0.85558 0.22916 0.80561 0.0
C1134 C 0.85971 0.26181 0.81893 0.0
C1135 C 0.51192 0.10794 0.62942 0.0
C1136 C 0.48215 0.10364 0.61143 0.0
C1137 C 0.54188 0.11191 0.61188 0.0
C1138 C 0.54333 0.1111 0.57567 0.0
H1139 H 0.512 0.10917 0.65726 0.0
H1140 H 0.56412 0.11563 0.62691 0.0
S1141 S 0.47229 0.09861 0.51665 0.0
N1142 N 0.45584 0.09776 0.5555 0.0
N1143 N 0.51229 0.10449 0.52248 0.0
C1144 C 0.51379 0.10587 0.55738 0.0
C1145 C 0.48317 0.10239 0.57527 0.0
C1146 C 0.60968 0.76767 0.31775 0.0
C1147 C 0.631 0.79317 0.32756 0.0
C1148 C 0.60688 0.73926 0.33786 0.0
C1149 C 0.62547 0.73553 0.36827 0.0
H1150 H 0.59542 0.76955 0.29424 0.0
H1151 H 0.59043 0.71988 0.32915 0.0
S1152 S 0.68363 0.797 0.40519 0.0
N1153 N 0.66979 0.81436 0.36959 0.0
N1154 N 0.66499 0.76082 0.40767 0.0
C1155 C 0.64611 0.76164 0.37877 0.0
C1156 C 0.6488 0.79054 0.35825 0.0
C1157 C 0.95517 0.85052 0.10581 0.0
C1158 C 0.94946 0.86633 0.07419 0.0
C1159 C 0.98686 0.84903 0.12018 0.0
C1160 C 0.01413 0.86256 0.10297 0.0
H1161 H 0.93486 0.83992 0.12003 0.0
H1162 H 0.99004 0.83724 0.14495 0.0
S1163 S 0.01243 0.90636 0.01926 0.0
N1164 N 0.97351 0.89598 0.02617 0.0
N1165 N 0.03351 0.89224 0.05253 0.0
C1166 C 0.00889 0.878 0.07103 0.0
C1167 C 0.97642 0.88022 0.05683 0.0
C1168 C 0.62695 0.72154 0.8053 0.0
C1169 C 0.61638 0.69525 0.82612 0.0
C1170 C 0.62431 0.75439 0.81672 0.0
C1171 C 0.61143 0.76194 0.84949 0.0
H1172 H 0.63687 0.71675 0.77988 0.0
H1173 H 0.63312 0.7739 0.80009 0.0
S1174 S 0.58137 0.70206 0.91417 0.0
N1175 N 0.59355 0.6791 0.88139 0.0
N1176 N 0.58818 0.74058 0.90249 0.0
C1177 C 0.60097 0.7359 0.8705 0.0
C1178 C 0.60358 0.70263 0.85892 0.0
C1179 C 0.53892 0.39587 0.1063 0.0
C1180 C 0.54491 0.37533 0.07776 0.0
C1181 C 0.50859 0.39504 0.1237 0.0
C1182 C 0.48293 0.37404 0.1128 0.0
H1183 H 0.5581 0.41219 0.11575 0.0
H1184 H 0.5052 0.41118 0.1457 0.0
S1185 S 0.48593 0.31636 0.03827 0.0
N1186 N 0.52273 0.33392 0.03879 0.0
N1187 N 0.46549 0.33261 0.07098 0.0
C1188 C 0.48853 0.35368 0.0839 0.0
C1189 C 0.51957 0.35425 0.06651 0.0
C1190 C 0.84019 0.28074 0.34263 0.0
C1191 C 0.86323 0.29214 0.31846 0.0
C1192 C 0.84423 0.25003 0.35852 0.0
C1193 C 0.87106 0.22926 0.35032 0.0
H1194 H 0.81928 0.29596 0.34999 0.0
H1195 H 0.82586 0.24234 0.37711 0.0
S1196 S 0.93784 0.24705 0.28782 0.0
N1197 N 0.91379 0.28008 0.28665 0.0
N1198 N 0.92072 0.22184 0.31595 0.0
C1199 C 0.89396 0.23998 0.32567 0.0
C1200 C 0.89023 0.27157 0.30991 0.0
C1201 C 0.97916 0.613 0.55997 0.0
C1202 C 0.95018 0.61273 0.57989 0.0
C1203 C 0.00976 0.62102 0.5748 0.0
C1204 C 0.01242 0.62857 0.61012 0.0
H1205 H 0.9781 0.60772 0.53266 0.0
H1206 H 0.03154 0.62051 0.5586 0.0
S1207 S 0.94364 0.63132 0.67318 0.0
N1208 N 0.92597 0.62068 0.63655 0.0
N1209 N 0.98328 0.6358 0.66433 0.0
C1210 C 0.98354 0.62853 0.63016 0.0
C1211 C 0.9525 0.62052 0.61508 0.0
C1212 C 0.65071 0.27379 0.66594 0.0
C1213 C 0.62233 0.28987 0.67828 0.0
C1214 C 0.6482 0.24762 0.6424 0.0
C1215 C 0.61718 0.23626 0.63094 0.0
H1216 H 0.67501 0.28204 0.67386 0.0
H1217 H 0.67079 0.23595 0.63353 0.0
S1218 S 0.53535 0.26941 0.65761 0.0
N1219 N 0.5624 0.29246 0.67852 0.0
N1220 N 0.55738 0.24284 0.63479 0.0
C1221 C 0.58856 0.25194 0.64373 0.0
C1222 C 0.59122 0.27888 0.66728 0.0
C1223 C 0.96399 0.40524 0.91379 0.0
C1224 C 0.94972 0.37714 0.92852 0.0
C1225 C 0.98867 0.40219 0.88875 0.0
C1226 C 0.00014 0.37093 0.87793 0.0
H1227 H 0.95525 0.42967 0.92082 0.0
H1228 H -0.0013 0.42458 0.87774 0.0
S1229 S 0.97189 0.28983 0.91151 0.0
N1230 N 0.94914 0.31737 0.93221 0.0
N1231 N -0.00379 0.31125 0.8858 0.0
C1232 C 0.98642 0.3426 0.89334 0.0
C1233 C 0.96103 0.34583 0.91851 0.0
C1234 C 0.82923 0.73906 0.135 0.0
C1235 C 0.86091 0.74999 0.12561 0.0
C1236 C 0.82529 0.71346 0.15887 0.0
C1237 C 0.85295 0.69752 0.17305 0.0
H1238 H 0.80742 0.75108 0.12475 0.0
H1239 H 0.80056 0.70578 0.16586 0.0
S1240 S 0.94099 0.71607 0.15563 0.0
N1241 N 0.92025 0.74289 0.13197 0.0
N1242 N 0.91283 0.69366 0.17554 0.0
C1243 C 0.88467 0.70761 0.16312 0.0
C1244 C 0.88867 0.73419 0.13967 0.0
C1245 C 0.5047 0.62015 0.44887 0.0
C1246 C 0.53246 0.62527 0.42787 0.0
C1247 C 0.47263 0.62294 0.4355 0.0
C1248 C 0.46732 0.63042 0.40057 0.0
H1249 H 0.50777 0.61406 0.4758 0.0
H1250 H 0.45195 0.61814 0.45245 0.0
S1251 S 0.53192 0.64624 0.33499 0.0
N1252 N 0.55262 0.63823 0.37057 0.0
N1253 N 0.4925 0.64378 0.34556 0.0
C1254 C 0.4949 0.6361 0.3795 0.0
C1255 C 0.52744 0.6334 0.39312 0.0
C1256 C 0.367 0.23118 0.16424 0.0
C1257 C 0.36803 0.2304 0.12799 0.0
C1258 C 0.36442 0.26119 0.18227 0.0
C1259 C 0.36345 0.29133 0.16456 0.0
H1260 H 0.36794 0.20843 0.17882 0.0
H1261 H 0.36413 0.26088 0.21013 0.0
S1262 S 0.3647 0.30288 0.07 0.0
N1263 N 0.36717 0.26249 0.07524 0.0
N1264 N 0.36271 0.31876 0.1091 0.0
C1265 C 0.36415 0.29087 0.12844 0.0
C1266 C 0.36634 0.26043 0.11012 0.0
C1267 C 0.48486 0.63553 0.90043 0.0
C1268 C 0.49605 0.60775 0.88209 0.0
C1269 C 0.45615 0.6341 0.92029 0.0
C1270 C 0.43815 0.60458 0.92319 0.0
H1271 H 0.49866 0.65844 0.8998 0.0
H1272 H 0.44864 0.65604 0.93433 0.0
S1273 S 0.45663 0.52521 0.87924 0.0
N1274 N 0.4864 0.55031 0.86673 0.0
N1275 N 0.43274 0.54726 0.90505 0.0
C1276 C 0.44868 0.57677 0.9044 0.0
C1277 C 0.47757 0.57847 0.88352 0.0
C1278 C 0.09888 0.72622 0.63267 0.0
C1279 C 0.12624 0.74456 0.62112 0.0
C1280 C 0.10262 0.70086 0.65679 0.0
C1281 C 0.13372 0.6933 0.67079 0.0
H1282 H 0.07425 0.73165 0.62327 0.0
H1283 H 0.08086 0.68758 0.66518 0.0
S1284 S 0.21347 0.73252 0.6484 0.0
N1285 N 0.18589 0.75217 0.6247 0.0
N1286 N 0.19251 0.70497 0.67077 0.0
C1287 C 0.16133 0.71104 0.65938 0.0
C1288 C 0.15771 0.73647 0.63427 0.0
C1289 C 0.98451 0.39903 0.38843 0.0
C1290 C 0.97214 0.36908 0.37539 0.0
C1291 C 0.01366 0.39979 0.40797 0.0
C1292 C 0.03176 0.3707 0.41418 0.0
H1293 H 0.97151 0.42198 0.38355 0.0
H1294 H 0.02271 0.4234 0.41711 0.0
S1295 S 0.00881 0.28587 0.38628 0.0
N1296 N 0.97903 0.30965 0.37105 0.0
N1297 N 0.03434 0.31092 0.40675 0.0
C1298 C 0.01911 0.34051 0.40174 0.0
C1299 C 0.98914 0.33973 0.38257 0.0
C1300 C 0.38827 0.75044 0.32373 0.0
C1301 C 0.38457 0.75285 0.35968 0.0
C1302 C 0.37821 0.72214 0.30578 0.0
C1303 C 0.36487 0.69497 0.32322 0.0
H1304 H 0.39753 0.77112 0.30901 0.0
H1305 H 0.38061 0.72164 0.27803 0.0
S1306 S 0.35194 0.68738 0.41712 0.0
N1307 N 0.36801 0.72453 0.41215 0.0
N1308 N 0.34977 0.67117 0.37815 0.0
C1309 C 0.36261 0.69618 0.35917 0.0
C1310 C 0.37236 0.72515 0.37749 0.0
C1311 C 0.00917 0.6128 0.05393 0.0
C1312 C 0.03666 0.61529 0.0758 0.0
C1313 C 0.9772 0.61924 0.06625 0.0
C1314 C 0.97168 0.62795 0.10092 0.0
H1315 H 0.0125 0.60692 0.02694 0.0
H1316 H 0.95666 0.61697 0.04852 0.0
S1317 S 0.03575 0.63605 0.16872 0.0
N1318 N 0.05653 0.62573 0.13374 0.0
N1319 N -0.00344 0.63789 0.15699 0.0
C1320 C -0.00095 0.62985 0.12311 0.0
C1321 C 0.03151 0.62347 0.11051 0.0
C1322 C 0.10272 0.28462 0.85617 0.0
C1323 C 0.11422 0.28873 0.82224 0.0
C1324 C 0.09926 0.25323 0.87063 0.0
C1325 C 0.10678 0.22461 0.85167 0.0
H1326 H 0.09667 0.30587 0.87198 0.0
H1327 H 0.09091 0.2514 0.89704 0.0
S1328 S 0.13717 0.2214 0.76159 0.0
N1329 N 0.13267 0.26119 0.76984 0.0
N1330 N 0.12597 0.20212 0.79705 0.0
C1331 C 0.11774 0.22816 0.81751 0.0
C1332 C 0.12163 0.26022 0.80284 0.0
C1333 C 0.48357 0.34243 0.61913 0.0
C1334 C 0.51159 0.34645 0.59826 0.0
C1335 C 0.45181 0.34712 0.60598 0.0
C1336 C 0.44685 0.35659 0.57158 0.0
H1337 H 0.48624 0.33648 0.64615 0.0
H1338 H 0.43101 0.34422 0.62326 0.0
S1339 S 0.51195 0.36738 0.50539 0.0
N1340 N 0.53242 0.35797 0.5408 0.0
N1341 N 0.47244 0.36743 0.51614 0.0
C1342 C 0.47458 0.35953 0.55002 0.0
C1343 C 0.50702 0.35414 0.56331 0.0
C1344 C 0.15026 -0.00096 0.25548 0.0
C1345 C 0.12328 0.01584 0.27031 0.0
C1346 C 0.14741 0.96614 0.2447 0.0
C1347 C 0.11746 0.94893 0.24829 0.0
H1348 H 0.17325 0.01182 0.25045 0.0
H1349 H 0.16819 0.95486 0.23152 0.0
S1350 S 0.04197 0.97913 0.29229 0.0
N1351 N 0.06744 0.01096 0.29317 0.0
N1352 N 0.06206 0.94917 0.27221 0.0
C1353 C 0.09122 0.96446 0.26556 0.0
C1354 C 0.09414 -0.00209 0.27677 0.0
C1355 C 0.24315 0.83897 0.51402 0.0
C1356 C 0.22388 0.86785 0.51412 0.0
C1357 C 0.27509 0.83891 0.50041 0.0
C1358 C 0.2889 0.86767 0.48623 0.0
H1359 H 0.23329 0.81603 0.52392 0.0
H1360 H 0.2887 0.81582 0.50001 0.0
S1361 S 0.2492 0.95025 0.48182 0.0
N1362 N 0.22151 0.92655 0.5007 0.0
N1363 N 0.28138 0.92615 0.47425 0.0
C1364 C 0.27051 0.89713 0.48756 0.0
C1365 C 0.238 0.89727 0.50171 0.0
C1366 C 0.34027 0.96497 0.75414 0.0
C1367 C 0.36923 0.94586 0.75588 0.0
C1368 C 0.34128 -0.00248 0.74212 0.0
C1369 C 0.37128 0.01192 0.73149 0.0
H1370 H 0.31725 0.9557 0.76453 0.0
H1371 H 0.31876 0.01201 0.74311 0.0
S1372 S 0.45203 0.96881 0.72302 0.0
N1373 N 0.42716 0.94111 0.74019 0.0
N1374 N 0.42924 0.00225 0.7175 0.0
C1375 C 0.39958 0.99171 0.72964 0.0
C1376 C 0.39847 0.95863 0.74182 0.0
C1377 C 0.22761 0.1269 0.96633 0.0
C1378 C 0.20074 0.12736 0.98924 0.0
C1379 C 0.26005 0.12556 0.97854 0.0
C1380 C 0.26646 0.12474 0.01393 0.0
H1381 H 0.22345 0.1273 0.93879 0.0
H1382 H 0.2802 0.12471 0.96024 0.0
S1383 S 0.20461 0.12633 0.08427 0.0
N1384 N 0.18234 0.12744 0.04864 0.0
N1385 N 0.24367 0.12497 0.07178 0.0
C1386 C 0.23984 0.12534 0.03711 0.0
C1387 C 0.20676 0.12667 0.02466 0.0
C1388 C 0.89191 0.00119 0.77394 0.0
C1389 C 0.86614 0.0227 0.76446 0.0
C1390 C 0.89306 0.96869 0.76164 0.0
C1391 C 0.86846 0.95658 0.7395 0.0
H1392 H 0.91153 0.0096 0.79076 0.0
H1393 H 0.91347 0.953 0.76939 0.0
S1394 S 0.79655 0.00344 0.70577 0.0
N1395 N 0.81592 0.02995 0.73101 0.0
N1396 N 0.81792 0.9687 0.70798 0.0
C1397 C 0.84229 0.97768 0.73017 0.0
C1398 C 0.84116 0.01081 0.74266 0.0
C1399 C 0.7309 0.09595 0.49343 0.0
C1400 C 0.718 0.12298 0.51205 0.0
C1401 C 0.76388 0.09531 0.48263 0.0
C1402 C 0.78521 0.12172 0.48995 0.0
H1403 H 0.71511 0.07566 0.48579 0.0
H1404 H 0.77212 0.07485 0.46673 0.0
S1405 S 0.76568 0.19555 0.54281 0.0
N1406 N 0.73056 0.17484 0.54111 0.0
N1407 N 0.79261 0.17373 0.5202 0.0
C1408 C 0.77339 0.14789 0.51034 0.0
C1409 C 0.73978 0.14851 0.52154 0.0
C1410 C 0.63063 -0.00481 0.22756 0.0
C1411 C 0.61508 0.02165 0.24459 0.0
C1412 C 0.63044 0.96342 0.24154 0.0
C1413 C 0.61573 0.95741 0.2735 0.0
H1414 H 0.64266 -0.00099 0.20305 0.0
H1415 H 0.64133 0.94335 0.22705 0.0
S1416 S 0.5787 0.01999 0.33195 0.0
N1417 N 0.58856 0.04088 0.29699 0.0
N1418 N 0.58943 0.98129 0.32415 0.0
C1419 C 0.60185 0.98408 0.29181 0.0
C1420 C 0.60136 0.01627 0.27718 0.0
C1421 C 0.71067 0.87319 0.01713 0.0
C1422 C 0.70538 0.86721 0.98194 0.0
C1423 C 0.74284 0.87346 0.0308 0.0
C1424 C 0.77041 0.86743 0.00961 0.0
H1425 H 0.68985 0.87687 0.03423 0.0
H1426 H 0.74615 0.87762 0.05813 0.0
S1427 S 0.76988 0.85343 0.9155 0.0
N1428 N 0.73048 0.85731 0.92599 0.0
N1429 N 0.79069 0.85728 0.95183 0.0
C1430 C 0.76545 0.86205 0.97441 0.0
C1431 C 0.73293 0.86206 0.9605 0.0
C1432 C 0.63538 0.49686 0.76188 0.0
C1433 C 0.60702 0.51698 0.76369 0.0
C1434 C 0.63385 0.46471 0.74859 0.0
C1435 C 0.60389 0.45136 0.73661 0.0
H1436 H 0.65923 0.50627 0.76986 0.0
H1437 H 0.65667 0.45088 0.7462 0.0
S1438 S 0.52176 0.49249 0.73874 0.0
N1439 N 0.54745 0.52022 0.75463 0.0
N1440 N 0.54467 0.45979 0.72984 0.0
C1441 C 0.57501 0.47057 0.73985 0.0
C1442 C 0.57654 0.50335 0.75335 0.0
C1443 C 0.7725 0.39242 0.99177 0.0
C1444 C 0.79145 0.36347 0.99527 0.0
C1445 C 0.74024 0.39415 0.00448 0.0
C1446 C 0.72571 0.36684 0.02072 0.0
H1447 H 0.78195 0.41329 0.97746 0.0
H1448 H 0.72609 0.41648 3e-05 0.0
S1449 S 0.76714 0.28753 0.04155 0.0
N1450 N 0.79518 0.30857 0.0199 0.0
N1451 N 0.7341 0.31153 0.0435 0.0
C1452 C 0.74511 0.33848 0.02624 0.0
C1453 C 0.77811 0.33686 0.01354 0.0
C1454 C 0.87793 0.52817 0.25869 0.0
C1455 C 0.86345 0.53489 0.22677 0.0
C1456 C 0.87687 0.4963 0.27259 0.0
C1457 C 0.86184 0.47035 0.25441 0.0
H1458 H 0.89063 0.54754 0.27248 0.0
H1459 H 0.88802 0.49184 0.29745 0.0
S1460 S 0.8276 0.47407 0.16621 0.0
N1461 N 0.83771 0.51263 0.17535 0.0
N1462 N 0.83727 0.45225 0.20063 0.0
C1463 C 0.84919 0.47641 0.22149 0.0
C1464 C 0.8497 0.5089 0.20774 0.0
C1465 C 0.72985 0.64757 0.48836 0.0
C1466 C 0.70997 0.61912 0.48845 0.0
C1467 C 0.76326 0.64606 0.49746 0.0
C1468 C 0.77805 0.61613 0.50761 0.0
H1469 H 0.71963 0.67129 0.48103 0.0
H1470 H 0.77751 0.66866 0.49671 0.0
S1471 S 0.7366 0.53453 0.51289 0.0
N1472 N 0.70759 0.56 0.49917 0.0
N1473 N 0.77005 0.55734 0.51758 0.0
C1474 C 0.75848 0.58743 0.50779 0.0
C1475 C 0.72455 0.5889 0.49794 0.0
C1476 C 0.3982 0.51463 0.25711 0.0
C1477 C 0.36868 0.53263 0.26151 0.0
C1478 C 0.39807 0.48236 0.24398 0.0
C1479 C 0.36839 0.46661 0.23463 0.0
H1480 H 0.42167 0.52524 0.2647 0.0
H1481 H 0.42148 0.46945 0.24195 0.0
S1482 S 0.28437 0.50378 0.23851 0.0
N1483 N 0.30895 0.53276 0.25388 0.0
N1484 N 0.30877 0.4725 0.22837 0.0
C1485 C 0.33878 0.48485 0.23738 0.0
C1486 C 0.3389 0.51774 0.25095 0.0
C1487 C 0.26047 0.59808 0.98706 0.0
C1488 C 0.27628 0.62806 0.9793 0.0
C1489 C 0.22882 0.5976 0.00137 0.0
C1490 C 0.21163 0.62707 0.00848 0.0
H1491 H 0.27226 0.57464 0.98136 0.0
H1492 H 0.21747 0.57382 0.00605 0.0
S1493 S 0.24404 0.71222 0.99782 0.0
N1494 N 0.27383 0.68807 0.98318 0.0
N1495 N 0.2142 0.68717 0.01016 0.0
C1496 C 0.22783 0.65729 0.0026 0.0
C1497 C 0.26018 0.65778 0.98801 0.0
C1498 C 0.13973 0.47931 0.74369 0.0
C1499 C 0.11311 0.46589 0.76227 0.0
C1500 C 0.14048 0.51283 0.73507 0.0
C1501 C 0.11456 0.5341 0.7446 0.0
H1502 H 0.15967 0.46364 0.73471 0.0
H1503 H 0.16077 0.52182 0.71953 0.0
S1504 S 0.04141 0.51252 0.79718 0.0
N1505 N 0.0618 0.47734 0.79285 0.0
N1506 N 0.063 0.54039 0.7759 0.0
C1507 C 0.08846 0.52144 0.7643 0.0
C1508 C 0.08777 0.48731 0.77332 0.0
C1509 C 0.22457 0.33875 0.4828 0.0
C1510 C 0.20722 0.36893 0.48248 0.0
C1511 C 0.25675 0.33666 0.49577 0.0
C1512 C 0.27275 0.36457 0.5094 0.0
H1513 H 0.21313 0.31637 0.47323 0.0
H1514 H 0.26894 0.3128 0.49559 0.0
S1515 S 0.23836 0.44975 0.51385 0.0
N1516 N 0.20902 0.42773 0.49534 0.0
N1517 N 0.26879 0.42357 0.52153 0.0
C1518 C 0.25592 0.3951 0.50865 0.0
C1519 C 0.22336 0.39734 0.49473 0.0
C1520 C 0.10642 0.09856 0.11097 0.0
C1521 C 0.09779 0.12524 0.08965 0.0
C1522 C 0.11147 0.10289 0.1462 0.0
C1523 C 0.1086 0.13423 0.16168 0.0
H1524 H 0.11018 0.07409 0.10024 0.0
H1525 H 0.11933 0.08164 0.161 0.0
S1526 S 0.08244 0.21147 0.11819 0.0
N1527 N 0.08328 0.18353 0.08713 0.0
N1528 N 0.09339 0.19187 0.15363 0.0
C1529 C 0.09816 0.16085 0.14112 0.0
C1530 C 0.09256 0.15631 0.10506 0.0
C1531 C 0.12837 0.83719 0.4171 0.0
C1532 C 0.10106 0.85764 0.42459 0.0
C1533 C 0.13704 0.82946 0.38314 0.0
C1534 C 0.11885 0.84194 0.35517 0.0
H1535 H 0.14434 0.82841 0.43751 0.0
H1536 H 0.15928 0.81507 0.37886 0.0
S1537 S 0.04183 0.89168 0.36071 0.0
N1538 N 0.05325 0.88652 0.40111 0.0
N1539 N 0.0698 0.87216 0.33727 0.0
C1540 C 0.09004 0.86026 0.36226 0.0
C1541 C 0.08105 0.868 0.39694 0.0
C1542 C 0.39478 0.85783 0.65015 0.0
C1543 C 0.364 0.84285 0.65597 0.0
C1544 C 0.40465 0.8667 0.61693 0.0
C1545 C 0.38378 0.86146 0.58848 0.0
H1546 H 0.4109 0.8637 0.67156 0.0
H1547 H 0.4281 0.87921 0.61387 0.0
S1548 S 0.30105 0.82164 0.59022 0.0
N1549 N 0.31329 0.82176 0.63069 0.0
N1550 N 0.33153 0.83853 0.56828 0.0
C1551 C 0.3535 0.84508 0.59387 0.0
C1552 C 0.34367 0.83576 0.62765 0.0
C1553 C 0.39856 0.11559 0.85313 0.0
C1554 C 0.37109 0.13483 0.84347 0.0
C1555 C 0.40492 0.1081 0.88784 0.0
C1556 C 0.3839 0.11921 0.9145 0.0
H1557 H 0.4147 0.10523 0.83362 0.0
H1558 H 0.4257 0.09213 0.89358 0.0
S1559 S 0.31004 0.17289 0.90325 0.0
N1560 N 0.32392 0.16685 0.86382 0.0
N1561 N 0.3358 0.15281 0.92865 0.0
C1562 C 0.35742 0.1401 0.90532 0.0
C1563 C 0.35103 0.14784 0.86998 0.0
C1564 C 0.86734 0.83301 0.87465 0.0
C1565 C 0.87362 0.85574 0.84804 0.0
C1566 C 0.87434 0.84067 0.90911 0.0
C1567 C 0.88832 0.87119 0.9183 0.0
H1568 H 0.85598 0.8094 0.86901 0.0
H1569 H 0.86808 0.82285 0.92878 0.0
S1570 S 0.90911 0.93975 0.85896 0.0
N1571 N 0.89458 0.91035 0.83366 0.0
N1572 N 0.90806 0.92444 0.89821 0.0
C1573 C 0.89563 0.89381 0.89199 0.0
C1574 C 0.88823 0.88617 0.85692 0.0
C1575 C 0.89882 0.15715 0.64173 0.0
C1576 C 0.88141 0.1343 0.66194 0.0
C1577 C 0.90304 0.15202 0.60618 0.0
C1578 C 0.88905 0.12442 0.58955 0.0
H1579 H 0.90913 0.17915 0.65344 0.0
H1580 H 0.91669 0.17016 0.59153 0.0
S1581 S 0.84035 0.05782 0.63126 0.0
N1582 N 0.85005 0.08317 0.66293 0.0
N1583 N 0.85706 0.07392 0.59645 0.0
C1584 C 0.8715 0.10148 0.60968 0.0
C1585 C 0.86793 0.10631 0.64579 0.0
C1586 C 0.63095 0.15201 0.38675 0.0
C1587 C 0.60203 0.1346 0.39536 0.0
C1588 C 0.63987 0.15734 0.35234 0.0
C1589 C 0.62051 0.14513 0.32499 0.0
H1590 H 0.64774 0.16028 0.40668 0.0
H1591 H 0.66322 0.16944 0.34729 0.0
S1592 S 0.53915 0.10376 0.33342 0.0
N1593 N 0.55151 0.10953 0.37344 0.0
N1594 N 0.56866 0.1191 0.30891 0.0
C1595 C 0.59025 0.13002 0.33317 0.0
C1596 C 0.58094 0.12487 0.36827 0.0
C1597 C 0.62183 0.84505 0.09792 0.0
C1598 C 0.5955 0.86712 0.09201 0.0
C1599 C 0.63094 0.83604 0.13129 0.0
C1600 C 0.6143 0.84901 0.16006 0.0
H1601 H 0.63659 0.8358 0.0767 0.0
H1602 H 0.6525 0.82041 0.13449 0.0
S1603 S 0.54007 0.903 0.15859 0.0
N1604 N 0.55 0.89808 0.1177 0.0
N1605 N 0.56758 0.88148 0.18054 0.0
C1606 C 0.58633 0.86899 0.15453 0.0
C1607 C 0.57677 0.87791 0.12045 0.0
C1608 C 0.63543 0.6448 0.63811 0.0
C1609 C 0.61262 0.63774 0.66433 0.0
C1610 C 0.62782 0.63867 0.60356 0.0
C1611 C 0.597 0.62542 0.59388 0.0
H1612 H 0.66004 0.65347 0.64439 0.0
H1613 H 0.64688 0.64301 0.58454 0.0
S1614 S 0.52692 0.60772 0.65272 0.0
N1615 N 0.55696 0.62015 0.67841 0.0
N1616 N 0.54213 0.60923 0.61333 0.0
C1617 C 0.57318 0.62039 0.61979 0.0
C1618 C 0.58115 0.62631 0.65505 0.0
C1619 C 0.63076 0.33888 0.88105 0.0
C1620 C 0.61447 0.35481 0.8537 0.0
C1621 C 0.62403 0.34709 0.91539 0.0
C1622 C 0.60056 0.37149 0.92398 0.0
H1623 H 0.65008 0.32093 0.87602 0.0
H1624 H 0.63845 0.33514 0.93528 0.0
S1625 S 0.54724 0.41693 0.86211 0.0
N1626 N 0.5711 0.39352 0.83762 0.0
N1627 N 0.55817 0.40881 0.90212 0.0
C1628 C 0.5823 0.3859 0.89695 0.0
C1629 C 0.58934 0.37764 0.86186 0.0
C1630 C 0.85945 0.34631 0.10766 0.0
C1631 C 0.88784 0.36576 0.10244 0.0
C1632 C 0.84908 0.33766 0.14078 0.0
C1633 C 0.86649 0.34834 0.17008 0.0
H1634 H 0.8442 0.33885 0.0861 0.0
H1635 H 0.82609 0.32422 0.14338 0.0
S1636 S 0.94524 0.39515 0.17052 0.0
N1637 N 0.93548 0.39188 0.12941 0.0
N1638 N 0.91565 0.37591 0.19168 0.0
C1639 C 0.89621 0.36568 0.16521 0.0
C1640 C 0.90698 0.37428 0.1314 0.0
C1641 C 0.88063 0.65859 0.36746 0.0
C1642 C 0.8768 0.63377 0.34223 0.0
C1643 C 0.89018 0.65075 0.40121 0.0
C1644 C 0.8969 0.61796 0.41059 0.0
H1645 H 0.87505 0.68411 0.36146 0.0
H1646 H 0.89148 0.67028 0.42028 0.0
S1647 S 0.88906 0.54365 0.3556 0.0
N1648 N 0.87944 0.57476 0.33014 0.0
N1649 N 0.89848 0.56054 0.39294 0.0
C1650 C 0.89416 0.59311 0.38564 0.0
C1651 C 0.88392 0.60089 0.35157 0.0
C1652 C 0.3575 0.33367 0.36296 0.0
C1653 C 0.37366 0.35075 0.33634 0.0
C1654 C 0.36278 0.34187 0.39755 0.0
C1655 C 0.38471 0.36723 0.407 0.0
H1656 H 0.33937 0.31482 0.35713 0.0
H1657 H 0.3488 0.3288 0.41697 0.0
S1658 S 0.43571 0.41739 0.34732 0.0
N1659 N 0.4144 0.39261 0.32192 0.0
N1660 N 0.42453 0.40788 0.38689 0.0
C1661 C 0.40246 0.38328 0.38074 0.0
C1662 C 0.3969 0.37508 0.34545 0.0
C1663 C 0.34715 0.65064 0.12452 0.0
C1664 C 0.36739 0.64054 0.15194 0.0
C1665 C 0.35389 0.64072 0.09073 0.0
C1666 C 0.3813 0.6205 0.08295 0.0
H1667 H 0.32476 0.66466 0.12932 0.0
H1668 H 0.33651 0.64775 0.07084 0.0
S1669 S 0.44534 0.59264 0.14502 0.0
N1670 N 0.41822 0.61296 0.16881 0.0
N1671 N 0.43134 0.59458 0.10517 0.0
C1672 C 0.40328 0.61257 0.10984 0.0
C1673 C 0.39619 0.62248 0.14437 0.0
C1674 C 0.1229 0.66417 0.87582 0.0
C1675 C 0.10639 0.65045 0.84732 0.0
C1676 C 0.11565 0.65403 0.90933 0.0
C1677 C 0.09131 0.63004 0.91576 0.0
H1678 H 0.14324 0.68117 0.87223 0.0
H1679 H 0.13058 0.66378 0.93014 0.0
S1680 S 0.0357 0.59227 0.85072 0.0
N1681 N 0.06093 0.61574 0.82812 0.0
N1682 N 0.04687 0.59702 0.89126 0.0
C1683 C 0.07217 0.6188 0.88786 0.0
C1684 C 0.07982 0.6289 0.85359 0.0
C1685 C 0.07635 0.35016 0.64061 0.0
C1686 C 0.1089 0.34507 0.65199 0.0
C1687 C 0.06979 0.35788 0.60605 0.0
C1688 C 0.09561 0.36121 0.58193 0.0
H1689 H 0.05598 0.34873 0.65863 0.0
H1690 H 0.04439 0.36216 0.5984 0.0
S1691 S 0.18545 0.35218 0.60027 0.0
N1692 N 0.16715 0.34459 0.63733 0.0
N1693 N 0.15526 0.35941 0.57271 0.0
C1694 C 0.1283 0.35569 0.59323 0.0
C1695 C 0.13482 0.34761 0.62822 0.0
loop_
_geom_bond_atom_site_label_1
_geom_bond_atom_site_label_2
_geom_bond_distance
_geom_bond_site_symmetry_2
_ccdc_geom_bond_type
Zn0 O6 1.969 . S
Zn0 O7 1.965 . S
Zn0 O11 2.024 . S
Zn0 O16 1.969 . S
Zn1 O8 1.969 . S
Zn1 O14 1.969 . S
Zn1 O15 1.965 . S
Zn1 O17 2.024 . S
C2 O3 1.229 . S
C2 O11 1.058 . S
O3 C2 1.229 . S
C4 O5 1.229 . S
C4 O17 1.058 . S
O5 C4 1.229 . S
O6 Zn0 1.969 . S
O6 C9 1.267 . S
O7 Zn0 1.965 . S
O7 C18 1.260 . S
O8 Zn1 1.969 . S
O8 C18 1.258 . S
C9 O6 1.267 . S
C9 O10 1.228 . S
O10 C9 1.228 . S
O11 Zn0 2.024 . S
O11 C2 1.058 . S
C12 O13 1.228 . S
C12 O14 1.267 . S
O13 C12 1.228 . S
O14 Zn1 1.969 . S
O14 C12 1.267 . S
O15 Zn1 1.965 . S
O15 C19 1.260 . S
O16 Zn0 1.969 . S
O16 C19 1.258 . S
O17 Zn1 2.024 . S
O17 C4 1.058 . S
C18 O7 1.260 . S
C18 O8 1.258 . S
C19 O15 1.260 . S
C19 O16 1.258 . S
Zn20 O26 1.969 . S
Zn20 O27 1.965 . S
Zn20 O31 2.024 . S
Zn20 O36 1.969 . S
Zn21 O28 1.969 . S
Zn21 O34 1.969 . S
Zn21 O35 1.965 . S
Zn21 O37 2.024 . S
C22 O23 1.229 . S
C22 O31 1.058 . S
O23 C22 1.229 . S
C24 O25 1.229 . S
C24 O37 1.058 . S
O25 C24 1.229 . S
O26 Zn20 1.969 . S
O26 C29 1.267 . S
O27 Zn20 1.965 . S
O27 C38 1.260 . S
O28 Zn21 1.969 . S
O28 C38 1.258 . S
C29 O26 1.267 . S
C29 O30 1.228 . S
O30 C29 1.228 . S
O31 Zn20 2.024 . S
O31 C22 1.058 . S
C32 O33 1.228 . S
C32 O34 1.267 . S
O33 C32 1.228 . S
O34 Zn21 1.969 . S
O34 C32 1.267 . S
O35 Zn21 1.965 . S
O35 C39 1.260 . S
O36 Zn20 1.969 . S
O36 C39 1.258 . S
O37 Zn21 2.024 . S
O37 C24 1.058 . S
C38 O27 1.260 . S
C38 O28 1.258 . S
C39 O35 1.260 . S
C39 O36 1.258 . S
Zn40 O46 1.969 . S
Zn40 O47 1.965 . S
Zn40 O51 2.024 . S
Zn40 O56 1.969 . S
Zn41 O48 1.969 . S
Zn41 O54 1.969 . S
Zn41 O55 1.965 . S
Zn41 O57 2.024 . S
C42 O43 1.229 . S
C42 O51 1.058 . S
O43 C42 1.229 . S
C44 O45 1.229 . S
C44 O57 1.058 . S
O45 C44 1.229 . S
O46 Zn40 1.969 . S
O46 C49 1.267 . S
O47 Zn40 1.965 . S
O47 C58 1.260 . S
O48 Zn41 1.969 . S
O48 C58 1.258 . S
C49 O46 1.267 . S
C49 O50 1.228 . S
O50 C49 1.228 . S
O51 Zn40 2.024 . S
O51 C42 1.058 . S
C52 O53 1.228 . S
C52 O54 1.267 . S
O53 C52 1.228 . S
O54 Zn41 1.969 . S
O54 C52 1.267 . S
O55 Zn41 1.965 . S
O55 C59 1.260 . S
O56 Zn40 1.969 . S
O56 C59 1.258 . S
O57 Zn41 2.024 . S
O57 C44 1.058 . S
C58 O47 1.260 . S
C58 O48 1.258 . S
C59 O55 1.260 . S
C59 O56 1.258 . S
Zn60 O66 1.969 . S
Zn60 O67 1.965 . S
Zn60 O71 2.024 . S
Zn60 O76 1.969 . S
Zn61 O68 1.991 . S
Zn61 O74 1.969 . S
Zn61 O75 1.979 . S
Zn61 O77 2.002 1_554 S
C62 O63 1.229 . S
C62 O71 1.058 . S
O63 C62 1.229 . S
C64 O65 1.229 . S
C64 O77 1.058 . S
O65 C64 1.229 . S
O66 Zn60 1.969 . S
O66 C69 1.267 . S
O67 Zn60 1.965 . S
O67 C78 1.260 . S
O68 Zn61 1.991 . S
O68 C78 1.258 . S
C69 O66 1.267 . S
C69 O70 1.228 . S
O70 C69 1.228 . S
O71 Zn60 2.024 . S
O71 C62 1.058 . S
C72 O73 1.228 . S
C72 O74 1.266 1_556 S
O73 C72 1.228 . S
O74 Zn61 1.969 . S
O74 C72 1.266 1_554 S
O75 Zn61 1.979 . S
O75 C79 1.260 . S
O76 Zn60 1.969 . S
O76 C79 1.258 . S
O77 Zn61 2.002 1_556 S
O77 C64 1.058 . S
C78 O67 1.260 . S
C78 O68 1.258 . S
C79 O75 1.260 . S
C79 O76 1.258 . S
Zn80 O86 1.969 . S
Zn80 O87 1.965 . S
Zn80 O91 2.024 . S
Zn80 O96 1.969 . S
Zn81 O88 1.969 . S
Zn81 O94 1.969 . S
Zn81 O95 1.965 . S
Zn81 O97 2.024 . S
C82 O83 1.229 . S
C82 O91 1.058 . S
O83 C82 1.229 . S
C84 O85 1.229 . S
C84 O97 1.058 . S
O85 C84 1.229 . S
O86 Zn80 1.969 . S
O86 C89 1.267 . S
O87 Zn80 1.965 . S
O87 C98 1.260 . S
O88 Zn81 1.969 . S
O88 C98 1.258 . S
C89 O86 1.267 . S
C89 O90 1.228 . S
O90 C89 1.228 . S
O91 Zn80 2.024 . S
O91 C82 1.058 . S
C92 O93 1.228 . S
C92 O94 1.267 . S
O93 C92 1.228 . S
O94 Zn81 1.969 . S
O94 C92 1.267 . S
O95 Zn81 1.965 . S
O95 C99 1.260 . S
O96 Zn80 1.969 . S
O96 C99 1.258 . S
O97 Zn81 2.024 . S
O97 C84 1.058 . S
C98 O87 1.260 . S
C98 O88 1.258 . S
C99 O95 1.260 . S
C99 O96 1.258 . S
Zn100 O106 1.969 . S
Zn100 O107 1.965 . S
Zn100 O111 2.024 . S
Zn100 O116 1.969 . S
Zn101 O108 1.969 . S
Zn101 O114 1.969 . S
Zn101 O115 1.965 . S
Zn101 O117 2.024 . S
C102 O103 1.229 . S
C102 O111 1.058 . S
O103 C102 1.229 . S
C104 O105 1.229 . S
C104 O117 1.058 . S
O105 C104 1.229 . S
O106 Zn100 1.969 . S
O106 C109 1.267 . S
O107 Zn100 1.965 . S
O107 C118 1.260 . S
O108 Zn101 1.969 . S
O108 C118 1.258 . S
C109 O106 1.267 . S
C109 O110 1.228 . S
O110 C109 1.228 . S
O111 Zn100 2.024 . S
O111 C102 1.058 . S
C112 O113 1.228 . S
C112 O114 1.267 . S
O113 C112 1.228 . S
O114 Zn101 1.969 . S
O114 C112 1.267 . S
O115 Zn101 1.965 . S
O115 C119 1.260 . S
O116 Zn100 1.969 . S
O116 C119 1.258 . S
O117 Zn101 2.024 . S
O117 C104 1.058 . S
C118 O107 1.260 . S
C118 O108 1.258 . S
C119 O115 1.260 . S
C119 O116 1.258 . S
Zn120 O126 1.969 . S
Zn120 O127 1.965 . S
Zn120 O131 2.024 . S
Zn120 O136 1.969 . S
Zn121 O128 1.969 . S
Zn121 O134 1.969 . S
Zn121 O135 1.965 . S
Zn121 O137 2.024 . S
C122 O123 1.229 . S
C122 O131 1.058 . S
O123 C122 1.229 . S
C124 O125 1.229 . S
C124 O137 1.058 . S
O125 C124 1.229 . S
O126 Zn120 1.969 . S
O126 C129 1.267 . S
O127 Zn120 1.965 . S
O127 C138 1.260 . S
O128 Zn121 1.969 . S
O128 C138 1.258 . S
C129 O126 1.267 . S
C129 O130 1.228 . S
O130 C129 1.228 . S
O131 Zn120 2.024 . S
O131 C122 1.058 . S
C132 O133 1.228 . S
C132 O134 1.267 . S
O133 C132 1.228 . S
O134 Zn121 1.969 . S
O134 C132 1.267 . S
O135 Zn121 1.965 . S
O135 C139 1.260 . S
O136 Zn120 1.969 . S
O136 C139 1.258 . S
O137 Zn121 2.024 . S
O137 C124 1.058 . S
C138 O127 1.260 . S
C138 O128 1.258 . S
C139 O135 1.260 . S
C139 O136 1.258 . S
Zn140 O146 1.969 . S
Zn140 O147 1.965 . S
Zn140 O151 2.024 . S
Zn140 O156 1.969 . S
Zn141 O148 1.991 . S
Zn141 O154 1.969 . S
Zn141 O155 1.979 . S
Zn141 O157 2.002 1_556 S
C142 O143 1.229 . S
C142 O151 1.058 . S
O143 C142 1.229 . S
C144 O145 1.229 . S
C144 O157 1.058 . S
O145 C144 1.229 . S
O146 Zn140 1.969 . S
O146 C149 1.267 . S
O147 Zn140 1.965 . S
O147 C158 1.260 . S
O148 Zn141 1.991 . S
O148 C158 1.258 . S
C149 O146 1.267 . S
C149 O150 1.228 . S
O150 C149 1.228 . S
O151 Zn140 2.024 . S
O151 C142 1.058 . S
C152 O153 1.228 . S
C152 O154 1.266 1_554 S
O153 C152 1.228 . S
O154 Zn141 1.969 . S
O154 C152 1.266 1_556 S
O155 Zn141 1.979 . S
O155 C159 1.260 . S
O156 Zn140 1.969 . S
O156 C159 1.258 . S
O157 Zn141 2.002 1_554 S
O157 C144 1.058 . S
C158 O147 1.260 . S
C158 O148 1.258 . S
C159 O155 1.260 . S
C159 O156 1.258 . S
Zn160 O166 1.969 . S
Zn160 O167 1.965 . S
Zn160 O171 2.024 . S
Zn160 O176 1.969 . S
Zn161 O168 1.969 . S
Zn161 O174 1.969 . S
Zn161 O175 1.965 . S
Zn161 O177 2.024 . S
C162 O163 1.229 . S
C162 O171 1.058 . S
O163 C162 1.229 . S
C164 O165 1.229 . S
C164 O177 1.058 . S
O165 C164 1.229 . S
O166 Zn160 1.969 . S
O166 C169 1.267 . S
O167 Zn160 1.965 . S
O167 C178 1.260 . S
O168 Zn161 1.969 . S
O168 C178 1.258 . S
C169 O166 1.267 . S
C169 O170 1.228 . S
O170 C169 1.228 . S
O171 Zn160 2.024 . S
O171 C162 1.058 . S
C172 O173 1.228 . S
C172 O174 1.267 . S
O173 C172 1.228 . S
O174 Zn161 1.969 . S
O174 C172 1.267 . S
O175 Zn161 1.965 . S
O175 C179 1.260 . S
O176 Zn160 1.969 . S
O176 C179 1.258 . S
O177 Zn161 2.024 . S
O177 C164 1.058 . S
C178 O167 1.260 . S
C178 O168 1.258 . S
C179 O175 1.260 . S
C179 O176 1.258 . S
Zn180 O186 1.969 . S
Zn180 O187 1.965 . S
Zn180 O191 2.024 . S
Zn180 O196 1.969 . S
Zn181 O188 1.969 . S
Zn181 O194 1.969 . S
Zn181 O195 1.965 . S
Zn181 O197 2.024 . S
C182 O183 1.229 . S
C182 O191 1.058 . S
O183 C182 1.229 . S
C184 O185 1.229 . S
C184 O197 1.058 . S
O185 C184 1.229 . S
O186 Zn180 1.969 . S
O186 C189 1.267 . S
O187 Zn180 1.965 . S
O187 C198 1.260 . S
O188 Zn181 1.969 . S
O188 C198 1.258 . S
C189 O186 1.267 . S
C189 O190 1.228 . S
O190 C189 1.228 . S
O191 Zn180 2.024 . S
O191 C182 1.058 . S
C192 O193 1.228 . S
C192 O194 1.267 . S
O193 C192 1.228 . S
O194 Zn181 1.969 . S
O194 C192 1.267 . S
O195 Zn181 1.965 . S
O195 C199 1.260 . S
O196 Zn180 1.969 . S
O196 C199 1.258 . S
O197 Zn181 2.024 . S
O197 C184 1.058 . S
C198 O187 1.260 . S
C198 O188 1.258 . S
C199 O195 1.260 . S
C199 O196 1.258 . S
Zn200 O206 1.969 . S
Zn200 O207 1.965 . S
Zn200 O211 2.024 . S
Zn200 O216 1.969 . S
Zn201 O208 1.969 . S
Zn201 O214 1.969 . S
Zn201 O215 1.965 . S
Zn201 O217 2.024 . S
C202 O203 1.229 . S
C202 O211 1.058 . S
O203 C202 1.229 . S
C204 O205 1.229 . S
C204 O217 1.058 . S
O205 C204 1.229 . S
O206 Zn200 1.969 . S
O206 C209 1.267 . S
O207 Zn200 1.965 . S
O207 C218 1.260 . S
O208 Zn201 1.969 . S
O208 C218 1.258 . S
C209 O206 1.267 . S
C209 O210 1.228 . S
O210 C209 1.228 . S
O211 Zn200 2.024 . S
O211 C202 1.058 . S
C212 O213 1.228 . S
C212 O214 1.267 . S
O213 C212 1.228 . S
O214 Zn201 1.969 . S
O214 C212 1.267 . S
O215 Zn201 1.965 . S
O215 C219 1.260 . S
O216 Zn200 1.969 . S
O216 C219 1.258 . S
O217 Zn201 2.024 . S
O217 C204 1.058 . S
C218 O207 1.260 . S
C218 O208 1.258 . S
C219 O215 1.260 . S
C219 O216 1.258 . S
Zn220 O226 1.969 . S
Zn220 O227 1.979 . S
Zn220 O231 2.002 1_556 S
Zn220 O236 1.991 . S
Zn221 O228 1.969 . S
Zn221 O234 1.969 . S
Zn221 O235 1.965 . S
Zn221 O237 2.024 . S
C222 O223 1.229 . S
C222 O231 1.058 . S
O223 C222 1.229 . S
C224 O225 1.229 . S
C224 O237 1.058 . S
O225 C224 1.229 . S
O226 Zn220 1.969 . S
O226 C229 1.266 1_556 S
O227 Zn220 1.979 . S
O227 C238 1.260 . S
O228 Zn221 1.969 . S
O228 C238 1.258 . S
C229 O226 1.266 1_554 S
C229 O230 1.228 . S
O230 C229 1.228 . S
O231 Zn220 2.002 1_554 S
O231 C222 1.058 . S
C232 O233 1.228 . S
C232 O234 1.267 . S
O233 C232 1.228 . S
O234 Zn221 1.969 . S
O234 C232 1.267 . S
O235 Zn221 1.965 . S
O235 C239 1.260 . S
O236 Zn220 1.991 . S
O236 C239 1.258 . S
O237 Zn221 2.024 . S
O237 C224 1.058 . S
C238 O227 1.260 . S
C238 O228 1.258 . S
C239 O235 1.260 . S
C239 O236 1.258 . S
Zn240 O246 1.969 . S
Zn240 O247 1.965 . S
Zn240 O251 2.024 . S
Zn240 O256 1.969 . S
Zn241 O248 1.969 . S
Zn241 O254 1.969 . S
Zn241 O255 1.965 . S
Zn241 O257 2.024 . S
C242 O243 1.229 . S
C242 O251 1.058 . S
O243 C242 1.229 . S
C244 O245 1.229 . S
C244 O257 1.058 . S
O245 C244 1.229 . S
O246 Zn240 1.969 . S
O246 C249 1.267 . S
O247 Zn240 1.965 . S
O247 C258 1.260 . S
O248 Zn241 1.969 . S
O248 C258 1.258 . S
C249 O246 1.267 . S
C249 O250 1.228 . S
O250 C249 1.228 . S
O251 Zn240 2.024 . S
O251 C242 1.058 . S
C252 O253 1.228 . S
C252 O254 1.267 . S
O253 C252 1.228 . S
O254 Zn241 1.969 . S
O254 C252 1.267 . S
O255 Zn241 1.965 . S
O255 C259 1.260 . S
O256 Zn240 1.969 . S
O256 C259 1.258 . S
O257 Zn241 2.024 . S
O257 C244 1.058 . S
C258 O247 1.260 . S
C258 O248 1.258 . S
C259 O255 1.260 . S
C259 O256 1.258 . S
Zn260 O266 1.969 . S
Zn260 O267 1.965 . S
Zn260 O271 2.024 . S
Zn260 O276 1.969 . S
Zn261 O268 1.969 . S
Zn261 O274 1.969 . S
Zn261 O275 1.965 . S
Zn261 O277 2.024 . S
C262 O263 1.229 . S
C262 O271 1.058 . S
O263 C262 1.229 . S
C264 O265 1.229 . S
C264 O277 1.058 . S
O265 C264 1.229 . S
O266 Zn260 1.969 . S
O266 C269 1.267 . S
O267 Zn260 1.965 . S
O267 C278 1.260 . S
O268 Zn261 1.969 . S
O268 C278 1.258 . S
C269 O266 1.267 . S
C269 O270 1.228 . S
O270 C269 1.228 . S
O271 Zn260 2.024 . S
O271 C262 1.058 . S
C272 O273 1.228 . S
C272 O274 1.267 . S
O273 C272 1.228 . S
O274 Zn261 1.969 . S
O274 C272 1.267 . S
O275 Zn261 1.965 . S
O275 C279 1.260 . S
O276 Zn260 1.969 . S
O276 C279 1.258 . S
O277 Zn261 2.024 . S
O277 C264 1.058 . S
C278 O267 1.260 . S
C278 O268 1.258 . S
C279 O275 1.260 . S
C279 O276 1.258 . S
Zn280 O286 1.969 . S
Zn280 O287 1.965 . S
Zn280 O291 2.024 . S
Zn280 O296 1.969 . S
Zn281 O288 1.969 . S
Zn281 O294 1.969 . S
Zn281 O295 1.965 . S
Zn281 O297 2.024 . S
C282 O283 1.229 . S
C282 O291 1.058 . S
O283 C282 1.229 . S
C284 O285 1.229 . S
C284 O297 1.058 . S
O285 C284 1.229 . S
O286 Zn280 1.969 . S
O286 C289 1.267 . S
O287 Zn280 1.965 . S
O287 C298 1.260 . S
O288 Zn281 1.969 . S
O288 C298 1.258 . S
C289 O286 1.267 . S
C289 O290 1.228 . S
O290 C289 1.228 . S
O291 Zn280 2.024 . S
O291 C282 1.058 . S
C292 O293 1.228 . S
C292 O294 1.267 . S
O293 C292 1.228 . S
O294 Zn281 1.969 . S
O294 C292 1.267 . S
O295 Zn281 1.965 . S
O295 C299 1.260 . S
O296 Zn280 1.969 . S
O296 C299 1.258 . S
O297 Zn281 2.024 . S
O297 C284 1.058 . S
C298 O287 1.260 . S
C298 O288 1.258 . S
C299 O295 1.260 . S
C299 O296 1.258 . S
Zn300 O306 1.969 . S
Zn300 O307 1.979 . S
Zn300 O311 2.002 1_554 S
Zn300 O316 1.991 . S
Zn301 O308 1.969 . S
Zn301 O314 1.969 . S
Zn301 O315 1.965 . S
Zn301 O317 2.024 . S
C302 O303 1.229 . S
C302 O311 1.058 . S
O303 C302 1.229 . S
C304 O305 1.229 . S
C304 O317 1.058 . S
O305 C304 1.229 . S
O306 Zn300 1.969 . S
O306 C309 1.266 1_554 S
O307 Zn300 1.979 . S
O307 C318 1.260 . S
O308 Zn301 1.969 . S
O308 C318 1.258 . S
C309 O306 1.266 1_556 S
C309 O310 1.228 . S
O310 C309 1.228 . S
O311 Zn300 2.002 1_556 S
O311 C302 1.058 . S
C312 O313 1.228 . S
C312 O314 1.267 . S
O313 C312 1.228 . S
O314 Zn301 1.969 . S
O314 C312 1.267 . S
O315 Zn301 1.965 . S
O315 C319 1.260 . S
O316 Zn300 1.991 . S
O316 C319 1.258 . S
O317 Zn301 2.024 . S
O317 C304 1.058 . S
C318 O307 1.260 . S
C318 O308 1.258 . S
C319 O315 1.260 . S
C319 O316 1.258 . S
Zn320 O326 1.969 . S
Zn320 O327 1.965 . S
Zn320 O331 2.024 . S
Zn320 O336 1.969 . S
Zn321 O328 1.969 . S
Zn321 O334 1.969 . S
Zn321 O335 1.965 . S
Zn321 O337 2.024 . S
C322 O323 1.229 . S
C322 O331 1.058 . S
O323 C322 1.229 . S
C324 O325 1.229 . S
C324 O337 1.058 . S
O325 C324 1.229 . S
O326 Zn320 1.969 . S
O326 C329 1.267 . S
O327 Zn320 1.965 . S
O327 C338 1.260 . S
O328 Zn321 1.969 . S
O328 C338 1.258 . S
C329 O326 1.267 . S
C329 O330 1.228 . S
O330 C329 1.228 . S
O331 Zn320 2.024 . S
O331 C322 1.058 . S
C332 O333 1.228 . S
C332 O334 1.267 . S
O333 C332 1.228 . S
O334 Zn321 1.969 . S
O334 C332 1.267 . S
O335 Zn321 1.965 . S
O335 C339 1.260 . S
O336 Zn320 1.969 . S
O336 C339 1.258 . S
O337 Zn321 2.024 . S
O337 C324 1.058 . S
C338 O327 1.260 . S
C338 O328 1.258 . S
C339 O335 1.260 . S
C339 O336 1.258 . S
Zn340 O346 1.969 . S
Zn340 O347 1.965 . S
Zn340 O351 2.024 . S
Zn340 O356 1.969 . S
Zn341 O348 1.991 . S
Zn341 O354 1.969 . S
Zn341 O355 1.979 . S
Zn341 O357 2.002 1_554 S
C342 O343 1.229 . S
C342 O351 1.058 . S
O343 C342 1.229 . S
C344 O345 1.229 . S
C344 O357 1.058 . S
O345 C344 1.229 . S
O346 Zn340 1.969 . S
O346 C349 1.267 . S
O347 Zn340 1.965 . S
O347 C358 1.260 . S
O348 Zn341 1.991 . S
O348 C358 1.258 . S
C349 O346 1.267 . S
C349 O350 1.228 . S
O350 C349 1.228 . S
O351 Zn340 2.024 . S
O351 C342 1.058 . S
C352 O353 1.228 . S
C352 O354 1.266 1_556 S
O353 C352 1.228 . S
O354 Zn341 1.969 . S
O354 C352 1.266 1_554 S
O355 Zn341 1.979 . S
O355 C359 1.260 . S
O356 Zn340 1.969 . S
O356 C359 1.258 . S
O357 Zn341 2.002 1_556 S
O357 C344 1.058 . S
C358 O347 1.260 . S
C358 O348 1.258 . S
C359 O355 1.260 . S
C359 O356 1.258 . S
Zn360 O366 1.969 . S
Zn360 O367 1.965 . S
Zn360 O371 2.024 . S
Zn360 O376 1.969 . S
Zn361 O368 1.969 . S
Zn361 O374 1.969 . S
Zn361 O375 1.965 . S
Zn361 O377 2.024 . S
C362 O363 1.229 . S
C362 O371 1.058 . S
O363 C362 1.229 . S
C364 O365 1.229 . S
C364 O377 1.058 . S
O365 C364 1.229 . S
O366 Zn360 1.969 . S
O366 C369 1.267 . S
O367 Zn360 1.965 . S
O367 C378 1.260 . S
O368 Zn361 1.969 . S
O368 C378 1.258 . S
C369 O366 1.267 . S
C369 O370 1.228 . S
O370 C369 1.228 . S
O371 Zn360 2.024 . S
O371 C362 1.058 . S
C372 O373 1.228 . S
C372 O374 1.267 . S
O373 C372 1.228 . S
O374 Zn361 1.969 . S
O374 C372 1.267 . S
O375 Zn361 1.965 . S
O375 C379 1.260 . S
O376 Zn360 1.969 . S
O376 C379 1.258 . S
O377 Zn361 2.024 . S
O377 C364 1.058 . S
C378 O367 1.260 . S
C378 O368 1.258 . S
C379 O375 1.260 . S
C379 O376 1.258 . S
Zn380 O386 1.969 . S
Zn380 O387 1.965 . S
Zn380 O391 2.024 . S
Zn380 O396 1.969 . S
Zn381 O388 1.969 . S
Zn381 O394 1.969 . S
Zn381 O395 1.965 . S
Zn381 O397 2.024 . S
C382 O383 1.229 . S
C382 O391 1.058 . S
O383 C382 1.229 . S
C384 O385 1.229 . S
C384 O397 1.058 . S
O385 C384 1.229 . S
O386 Zn380 1.969 . S
O386 C389 1.267 . S
O387 Zn380 1.965 . S
O387 C398 1.260 . S
O388 Zn381 1.969 . S
O388 C398 1.258 . S
C389 O386 1.267 . S
C389 O390 1.228 . S
O390 C389 1.228 . S
O391 Zn380 2.024 . S
O391 C382 1.058 . S
C392 O393 1.228 . S
C392 O394 1.267 . S
O393 C392 1.228 . S
O394 Zn381 1.969 . S
O394 C392 1.267 . S
O395 Zn381 1.965 . S
O395 C399 1.260 . S
O396 Zn380 1.969 . S
O396 C399 1.258 . S
O397 Zn381 2.024 . S
O397 C384 1.058 . S
C398 O387 1.260 . S
C398 O388 1.258 . S
C399 O395 1.260 . S
C399 O396 1.258 . S
Zn400 O406 1.969 . S
Zn400 O407 1.965 . S
Zn400 O411 2.024 . S
Zn400 O416 1.969 . S
Zn401 O408 1.969 . S
Zn401 O414 1.969 . S
Zn401 O415 1.965 . S
Zn401 O417 2.024 . S
C402 O403 1.229 . S
C402 O411 1.058 . S
O403 C402 1.229 . S
C404 O405 1.229 . S
C404 O417 1.058 . S
O405 C404 1.229 . S
O406 Zn400 1.969 . S
O406 C409 1.267 . S
O407 Zn400 1.965 . S
O407 C418 1.260 . S
O408 Zn401 1.969 . S
O408 C418 1.258 . S
C409 O406 1.267 . S
C409 O410 1.228 . S
O410 C409 1.228 . S
O411 Zn400 2.024 . S
O411 C402 1.058 . S
C412 O413 1.228 . S
C412 O414 1.267 . S
O413 C412 1.228 . S
O414 Zn401 1.969 . S
O414 C412 1.267 . S
O415 Zn401 1.965 . S
O415 C419 1.260 . S
O416 Zn400 1.969 . S
O416 C419 1.258 . S
O417 Zn401 2.024 . S
O417 C404 1.058 . S
C418 O407 1.260 . S
C418 O408 1.258 . S
C419 O415 1.260 . S
C419 O416 1.258 . S
Zn420 O426 1.969 . S
Zn420 O427 1.965 . S
Zn420 O431 2.024 . S
Zn420 O436 1.969 . S
Zn421 O428 1.991 . S
Zn421 O434 1.969 . S
Zn421 O435 1.979 . S
Zn421 O437 2.002 1_556 S
C422 O423 1.229 . S
C422 O431 1.058 . S
O423 C422 1.229 . S
C424 O425 1.229 . S
C424 O437 1.058 . S
O425 C424 1.229 . S
O426 Zn420 1.969 . S
O426 C429 1.267 . S
O427 Zn420 1.965 . S
O427 C438 1.260 . S
O428 Zn421 1.991 . S
O428 C438 1.258 . S
C429 O426 1.267 . S
C429 O430 1.228 . S
O430 C429 1.228 . S
O431 Zn420 2.024 . S
O431 C422 1.058 . S
C432 O433 1.228 . S
C432 O434 1.266 1_554 S
O433 C432 1.228 . S
O434 Zn421 1.969 . S
O434 C432 1.266 1_556 S
O435 Zn421 1.979 . S
O435 C439 1.260 . S
O436 Zn420 1.969 . S
O436 C439 1.258 . S
O437 Zn421 2.002 1_554 S
O437 C424 1.058 . S
C438 O427 1.260 . S
C438 O428 1.258 . S
C439 O435 1.260 . S
C439 O436 1.258 . S
Zn440 O446 1.969 . S
Zn440 O447 1.965 . S
Zn440 O451 2.024 . S
Zn440 O456 1.969 . S
Zn441 O448 1.969 . S
Zn441 O454 1.969 . S
Zn441 O455 1.965 . S
Zn441 O457 2.024 . S
C442 O443 1.229 . S
C442 O451 1.058 . S
O443 C442 1.229 . S
C444 O445 1.229 . S
C444 O457 1.058 . S
O445 C444 1.229 . S
O446 Zn440 1.969 . S
O446 C449 1.267 . S
O447 Zn440 1.965 . S
O447 C458 1.260 . S
O448 Zn441 1.969 . S
O448 C458 1.258 . S
C449 O446 1.267 . S
C449 O450 1.228 . S
O450 C449 1.228 . S
O451 Zn440 2.024 . S
O451 C442 1.058 . S
C452 O453 1.228 . S
C452 O454 1.267 . S
O453 C452 1.228 . S
O454 Zn441 1.969 . S
O454 C452 1.267 . S
O455 Zn441 1.965 . S
O455 C459 1.260 . S
O456 Zn440 1.969 . S
O456 C459 1.258 . S
O457 Zn441 2.024 . S
O457 C444 1.058 . S
C458 O447 1.260 . S
C458 O448 1.258 . S
C459 O455 1.260 . S
C459 O456 1.258 . S
Zn460 O466 1.969 . S
Zn460 O467 1.965 . S
Zn460 O471 2.024 . S
Zn460 O476 1.969 . S
Zn461 O468 1.969 . S
Zn461 O474 1.969 . S
Zn461 O475 1.965 . S
Zn461 O477 2.024 . S
C462 O463 1.229 . S
C462 O471 1.058 . S
O463 C462 1.229 . S
C464 O465 1.229 . S
C464 O477 1.058 . S
O465 C464 1.229 . S
O466 Zn460 1.969 . S
O466 C469 1.267 . S
O467 Zn460 1.965 . S
O467 C478 1.260 . S
O468 Zn461 1.969 . S
O468 C478 1.258 . S
C469 O466 1.267 . S
C469 O470 1.228 . S
O470 C469 1.228 . S
O471 Zn460 2.024 . S
O471 C462 1.058 . S
C472 O473 1.228 . S
C472 O474 1.267 . S
O473 C472 1.228 . S
O474 Zn461 1.969 . S
O474 C472 1.267 . S
O475 Zn461 1.965 . S
O475 C479 1.260 . S
O476 Zn460 1.969 . S
O476 C479 1.258 . S
O477 Zn461 2.024 . S
O477 C464 1.058 . S
C478 O467 1.260 . S
C478 O468 1.258 . S
C479 O475 1.260 . S
C479 O476 1.258 . S
Zn480 O486 1.969 . S
Zn480 O487 1.965 . S
Zn480 O491 2.024 . S
Zn480 O496 1.969 . S
Zn481 O488 1.969 . S
Zn481 O494 1.969 . S
Zn481 O495 1.965 . S
Zn481 O497 2.024 . S
C482 O483 1.229 . S
C482 O491 1.058 . S
O483 C482 1.229 . S
C484 O485 1.229 . S
C484 O497 1.058 . S
O485 C484 1.229 . S
O486 Zn480 1.969 . S
O486 C489 1.267 . S
O487 Zn480 1.965 . S
O487 C498 1.260 . S
O488 Zn481 1.969 . S
O488 C498 1.258 . S
C489 O486 1.267 . S
C489 O490 1.228 . S
O490 C489 1.228 . S
O491 Zn480 2.024 . S
O491 C482 1.058 . S
C492 O493 1.228 . S
C492 O494 1.267 . S
O493 C492 1.228 . S
O494 Zn481 1.969 . S
O494 C492 1.267 . S
O495 Zn481 1.965 . S
O495 C499 1.260 . S
O496 Zn480 1.969 . S
O496 C499 1.258 . S
O497 Zn481 2.024 . S
O497 C484 1.058 . S
C498 O487 1.260 . S
C498 O488 1.258 . S
C499 O495 1.260 . S
C499 O496 1.258 . S
Zn500 O506 1.969 . S
Zn500 O507 1.979 . S
Zn500 O511 2.002 1_556 S
Zn500 O516 1.991 . S
Zn501 O508 1.969 . S
Zn501 O514 1.969 . S
Zn501 O515 1.965 . S
Zn501 O517 2.024 . S
C502 O503 1.229 . S
C502 O511 1.058 . S
O503 C502 1.229 . S
C504 O505 1.229 . S
C504 O517 1.058 . S
O505 C504 1.229 . S
O506 Zn500 1.969 . S
O506 C509 1.266 1_556 S
O507 Zn500 1.979 . S
O507 C518 1.260 . S
O508 Zn501 1.969 . S
O508 C518 1.258 . S
C509 O506 1.266 1_554 S
C509 O510 1.228 . S
O510 C509 1.228 . S
O511 Zn500 2.002 1_554 S
O511 C502 1.058 . S
C512 O513 1.228 . S
C512 O514 1.267 . S
O513 C512 1.228 . S
O514 Zn501 1.969 . S
O514 C512 1.267 . S
O515 Zn501 1.965 . S
O515 C519 1.260 . S
O516 Zn500 1.991 . S
O516 C519 1.258 . S
O517 Zn501 2.024 . S
O517 C504 1.058 . S
C518 O507 1.260 . S
C518 O508 1.258 . S
C519 O515 1.260 . S
C519 O516 1.258 . S
Zn520 O526 1.969 . S
Zn520 O527 1.965 . S
Zn520 O531 2.024 . S
Zn520 O536 1.969 . S
Zn521 O528 1.969 . S
Zn521 O534 1.969 . S
Zn521 O535 1.965 . S
Zn521 O537 2.024 . S
C522 O523 1.229 . S
C522 O531 1.058 . S
O523 C522 1.229 . S
C524 O525 1.229 . S
C524 O537 1.058 . S
O525 C524 1.229 . S
O526 Zn520 1.969 . S
O526 C529 1.267 . S
O527 Zn520 1.965 . S
O527 C538 1.260 . S
O528 Zn521 1.969 . S
O528 C538 1.258 . S
C529 O526 1.267 . S
C529 O530 1.228 . S
O530 C529 1.228 . S
O531 Zn520 2.024 . S
O531 C522 1.058 . S
C532 O533 1.228 . S
C532 O534 1.267 . S
O533 C532 1.228 . S
O534 Zn521 1.969 . S
O534 C532 1.267 . S
O535 Zn521 1.965 . S
O535 C539 1.260 . S
O536 Zn520 1.969 . S
O536 C539 1.258 . S
O537 Zn521 2.024 . S
O537 C524 1.058 . S
C538 O527 1.260 . S
C538 O528 1.258 . S
C539 O535 1.260 . S
C539 O536 1.258 . S
Zn540 O546 1.969 . S
Zn540 O547 1.965 . S
Zn540 O551 2.024 . S
Zn540 O556 1.969 . S
Zn541 O548 1.969 . S
Zn541 O554 1.969 . S
Zn541 O555 1.965 . S
Zn541 O557 2.024 . S
C542 O543 1.229 . S
C542 O551 1.058 . S
O543 C542 1.229 . S
C544 O545 1.229 . S
C544 O557 1.058 . S
O545 C544 1.229 . S
O546 Zn540 1.969 . S
O546 C549 1.267 . S
O547 Zn540 1.965 . S
O547 C558 1.260 . S
O548 Zn541 1.969 . S
O548 C558 1.258 . S
C549 O546 1.267 . S
C549 O550 1.228 . S
O550 C549 1.228 . S
O551 Zn540 2.024 . S
O551 C542 1.058 . S
C552 O553 1.228 . S
C552 O554 1.267 . S
O553 C552 1.228 . S
O554 Zn541 1.969 . S
O554 C552 1.267 . S
O555 Zn541 1.965 . S
O555 C559 1.260 . S
O556 Zn540 1.969 . S
O556 C559 1.258 . S
O557 Zn541 2.024 . S
O557 C544 1.058 . S
C558 O547 1.260 . S
C558 O548 1.258 . S
C559 O555 1.260 . S
C559 O556 1.258 . S
Zn560 O566 1.969 . S
Zn560 O567 1.965 . S
Zn560 O571 2.024 . S
Zn560 O576 1.969 . S
Zn561 O568 1.969 . S
Zn561 O574 1.969 . S
Zn561 O575 1.965 . S
Zn561 O577 2.024 . S
C562 O563 1.229 . S
C562 O571 1.058 . S
O563 C562 1.229 . S
C564 O565 1.229 . S
C564 O577 1.058 . S
O565 C564 1.229 . S
O566 Zn560 1.969 . S
O566 C569 1.267 . S
O567 Zn560 1.965 . S
O567 C578 1.260 . S
O568 Zn561 1.969 . S
O568 C578 1.258 . S
C569 O566 1.267 . S
C569 O570 1.228 . S
O570 C569 1.228 . S
O571 Zn560 2.024 . S
O571 C562 1.058 . S
C572 O573 1.228 . S
C572 O574 1.267 . S
O573 C572 1.228 . S
O574 Zn561 1.969 . S
O574 C572 1.267 . S
O575 Zn561 1.965 . S
O575 C579 1.260 . S
O576 Zn560 1.969 . S
O576 C579 1.258 . S
O577 Zn561 2.024 . S
O577 C564 1.058 . S
C578 O567 1.260 . S
C578 O568 1.258 . S
C579 O575 1.260 . S
C579 O576 1.258 . S
Zn580 O586 1.969 . S
Zn580 O587 1.979 . S
Zn580 O591 2.002 1_554 S
Zn580 O596 1.991 . S
Zn581 O588 1.969 . S
Zn581 O594 1.969 . S
Zn581 O595 1.965 . S
Zn581 O597 2.024 . S
C582 O583 1.229 . S
C582 O591 1.058 . S
O583 C582 1.229 . S
C584 O585 1.229 . S
C584 O597 1.058 . S
O585 C584 1.229 . S
O586 Zn580 1.969 . S
O586 C589 1.266 1_554 S
O587 Zn580 1.979 . S
O587 C598 1.260 . S
O588 Zn581 1.969 . S
O588 C598 1.258 . S
C589 O586 1.266 1_556 S
C589 O590 1.228 . S
O590 C589 1.228 . S
O591 Zn580 2.002 1_556 S
O591 C582 1.058 . S
C592 O593 1.228 . S
C592 O594 1.267 . S
O593 C592 1.228 . S
O594 Zn581 1.969 . S
O594 C592 1.267 . S
O595 Zn581 1.965 . S
O595 C599 1.260 . S
O596 Zn580 1.991 . S
O596 C599 1.258 . S
O597 Zn581 2.024 . S
O597 C584 1.058 . S
C598 O587 1.260 . S
C598 O588 1.258 . S
C599 O595 1.260 . S
C599 O596 1.258 . S
Zn600 O606 1.969 . S
Zn600 O607 1.965 . S
Zn600 O611 2.024 . S
Zn600 O616 1.969 . S
Zn601 O608 1.969 . S
Zn601 O614 1.969 . S
Zn601 O615 1.965 . S
Zn601 O617 2.024 . S
C602 O603 1.229 . S
C602 O611 1.058 . S
O603 C602 1.229 . S
C604 O605 1.229 . S
C604 O617 1.058 . S
O605 C604 1.229 . S
O606 Zn600 1.969 . S
O606 C609 1.267 . S
O607 Zn600 1.965 . S
O607 C618 1.260 . S
O608 Zn601 1.969 . S
O608 C618 1.258 . S
C609 O606 1.267 . S
C609 O610 1.228 . S
O610 C609 1.228 . S
O611 Zn600 2.024 . S
O611 C602 1.058 . S
C612 O613 1.228 . S
C612 O614 1.267 . S
O613 C612 1.228 . S
O614 Zn601 1.969 . S
O614 C612 1.267 . S
O615 Zn601 1.965 . S
O615 C619 1.260 . S
O616 Zn600 1.969 . S
O616 C619 1.258 . S
O617 Zn601 2.024 . S
O617 C604 1.058 . S
C618 O607 1.260 . S
C618 O608 1.258 . S
C619 O615 1.260 . S
C619 O616 1.258 . S
Zn620 O626 1.969 . S
Zn620 O627 1.965 . S
Zn620 O631 2.024 . S
Zn620 O636 1.969 . S
Zn621 O628 1.969 . S
Zn621 O634 1.969 . S
Zn621 O635 1.965 . S
Zn621 O637 2.024 . S
C622 O623 1.229 . S
C622 O631 1.058 . S
O623 C622 1.229 . S
C624 O625 1.229 . S
C624 O637 1.058 . S
O625 C624 1.229 . S
O626 Zn620 1.969 . S
O626 C629 1.267 . S
O627 Zn620 1.965 . S
O627 C638 1.260 . S
O628 Zn621 1.969 . S
O628 C638 1.258 . S
C629 O626 1.267 . S
C629 O630 1.228 . S
O630 C629 1.228 . S
O631 Zn620 2.024 . S
O631 C622 1.058 . S
C632 O633 1.228 . S
C632 O634 1.267 . S
O633 C632 1.228 . S
O634 Zn621 1.969 . S
O634 C632 1.267 . S
O635 Zn621 1.965 . S
O635 C639 1.260 . S
O636 Zn620 1.969 . S
O636 C639 1.258 . S
O637 Zn621 2.024 . S
O637 C624 1.058 . S
C638 O627 1.260 . S
C638 O628 1.258 . S
C639 O635 1.260 . S
C639 O636 1.258 . S
C640 C641 1.369 . S
C640 C642 1.419 . S
C640 H644 0.930 . S
C641 C640 1.369 . S
C641 C650 1.429 . S
C642 C640 1.419 . S
C642 C643 1.363 . S
C642 H645 0.929 . S
C643 C642 1.363 . S
C643 C649 1.428 . S
H644 C640 0.930 . S
H645 C642 0.929 . S
S646 N647 1.613 . S
S646 N648 1.610 . S
N647 S646 1.613 . S
N647 C650 1.350 . S
N648 S646 1.610 . S
N648 C649 1.351 . S
C649 C643 1.428 . S
C649 N648 1.351 . S
C649 C650 1.434 . S
C650 C641 1.429 . S
C650 N647 1.350 . S
C650 C649 1.434 . S
C651 C652 1.369 . S
C651 C653 1.419 1_545 S
C651 H655 0.930 . S
C652 C651 1.369 . S
C652 C661 1.429 . S
C653 C651 1.419 1_565 S
C653 C654 1.363 . S
C653 H656 0.929 . S
C654 C653 1.363 . S
C654 C660 1.428 1_565 S
H655 C651 0.930 . S
H656 C653 0.929 . S
S657 N658 1.613 . S
S657 N659 1.610 . S
N658 S657 1.613 . S
N658 C661 1.350 . S
N659 S657 1.610 . S
N659 C660 1.351 . S
C660 C654 1.428 1_545 S
C660 N659 1.351 . S
C660 C661 1.434 . S
C661 C652 1.429 . S
C661 N658 1.350 . S
C661 C660 1.434 . S
C662 C663 1.369 . S
C662 C664 1.419 . S
C662 H666 0.930 . S
C663 C662 1.369 . S
C663 C672 1.429 . S
C664 C662 1.419 . S
C664 C665 1.363 . S
C664 H667 0.929 . S
C665 C664 1.363 . S
C665 C671 1.428 . S
H666 C662 0.930 . S
H667 C664 0.929 . S
S668 N669 1.613 . S
S668 N670 1.610 . S
N669 S668 1.613 . S
N669 C672 1.350 . S
N670 S668 1.610 . S
N670 C671 1.351 . S
C671 C665 1.428 . S
C671 N670 1.351 . S
C671 C672 1.434 . S
C672 C663 1.429 . S
C672 N669 1.350 . S
C672 C671 1.434 . S
C673 C674 1.369 . S
C673 C675 1.419 . S
C673 H677 0.930 . S
C674 C673 1.369 . S
C674 C683 1.429 . S
C675 C673 1.419 . S
C675 C676 1.363 1_565 S
C675 H678 0.929 . S
C676 C675 1.363 1_545 S
C676 C682 1.428 . S
H677 C673 0.930 . S
H678 C675 0.929 . S
S679 N680 1.613 . S
S679 N681 1.610 . S
N680 S679 1.613 . S
N680 C683 1.350 1_545 S
N681 S679 1.610 . S
N681 C682 1.351 . S
C682 C676 1.428 . S
C682 N681 1.351 . S
C682 C683 1.434 1_545 S
C683 C674 1.429 . S
C683 N680 1.350 1_565 S
C683 C682 1.434 1_565 S
C684 C685 1.369 . S
C684 C686 1.419 . S
C684 H688 0.930 . S
C685 C684 1.369 . S
C685 C694 1.429 . S
C686 C684 1.419 . S
C686 C687 1.363 . S
C686 H689 0.929 . S
C687 C686 1.363 . S
C687 C693 1.428 . S
H688 C684 0.930 . S
H689 C686 0.929 . S
S690 N691 1.613 . S
S690 N692 1.610 . S
N691 S690 1.613 . S
N691 C694 1.350 . S
N692 S690 1.610 . S
N692 C693 1.351 . S
C693 C687 1.428 . S
C693 N692 1.351 . S
C693 C694 1.434 . S
C694 C685 1.429 . S
C694 N691 1.350 . S
C694 C693 1.434 . S
C695 C696 1.369 1_545 S
C695 C697 1.419 . S
C695 H699 0.930 . S
C696 C695 1.369 1_565 S
C696 C705 1.429 . S
C697 C695 1.419 . S
C697 C698 1.363 . S
C697 H700 0.929 . S
C698 C697 1.363 . S
C698 C704 1.428 . S
H699 C695 0.930 . S
H700 C697 0.929 . S
S701 N702 1.613 . S
S701 N703 1.610 1_565 S
N702 S701 1.613 . S
N702 C705 1.350 . S
N703 S701 1.610 1_545 S
N703 C704 1.351 . S
C704 C698 1.428 . S
C704 N703 1.351 . S
C704 C705 1.434 1_545 S
C705 C696 1.429 . S
C705 N702 1.350 . S
C705 C704 1.434 1_565 S
C706 C707 1.369 . S
C706 C708 1.419 . S
C706 H710 0.930 . S
C707 C706 1.369 . S
C707 C716 1.429 . S
C708 C706 1.419 . S
C708 C709 1.363 . S
C708 H711 0.929 . S
C709 C708 1.363 . S
C709 C715 1.428 . S
H710 C706 0.930 . S
H711 C708 0.929 . S
S712 N713 1.613 . S
S712 N714 1.610 . S
N713 S712 1.613 . S
N713 C716 1.350 . S
N714 S712 1.610 . S
N714 C715 1.351 . S
C715 C709 1.428 . S
C715 N714 1.351 . S
C715 C716 1.434 . S
C716 C707 1.429 . S
C716 N713 1.350 . S
C716 C715 1.434 . S
C717 C718 1.369 . S
C717 C719 1.431 . S
C717 H721 0.930 . S
C718 C717 1.369 . S
C718 C727 1.429 . S
C719 C717 1.431 . S
C719 C720 1.356 1_565 S
C719 H722 0.923 1_565 S
C720 C719 1.356 1_545 S
C720 C726 1.428 . S
H721 C717 0.930 . S
H722 C719 0.923 1_545 S
S723 N724 1.613 . S
S723 N725 1.610 1_565 S
N724 S723 1.613 . S
N724 C727 1.350 . S
N725 S723 1.610 1_545 S
N725 C726 1.351 . S
C726 C720 1.428 . S
C726 N725 1.351 . S
C726 C727 1.434 1_545 S
C727 C718 1.429 . S
C727 N724 1.350 . S
C727 C726 1.434 1_565 S
C728 C729 1.369 . S
C728 C730 1.419 . S
C728 H732 0.930 . S
C729 C728 1.369 . S
C729 C738 1.429 . S
C730 C728 1.419 . S
C730 C731 1.363 . S
C730 H733 0.929 . S
C731 C730 1.363 . S
C731 C737 1.428 . S
H732 C728 0.930 . S
H733 C730 0.929 . S
S734 N735 1.613 . S
S734 N736 1.610 . S
N735 S734 1.613 . S
N735 C738 1.350 . S
N736 S734 1.610 . S
N736 C737 1.351 . S
C737 C731 1.428 . S
C737 N736 1.351 . S
C737 C738 1.434 . S
C738 C729 1.429 . S
C738 N735 1.350 . S
C738 C737 1.434 . S
C739 C740 1.369 . S
C739 C741 1.419 1_545 S
C739 H743 0.930 . S
C740 C739 1.369 . S
C740 C749 1.429 1_545 S
C741 C739 1.419 1_565 S
C741 C742 1.363 . S
C741 H744 0.929 . S
C742 C741 1.363 . S
C742 C748 1.428 . S
H743 C739 0.930 . S
H744 C741 0.929 . S
S745 N746 1.613 . S
S745 N747 1.610 . S
N746 S745 1.613 . S
N746 C749 1.350 . S
N747 S745 1.610 . S
N747 C748 1.351 . S
C748 C742 1.428 . S
C748 N747 1.351 . S
C748 C749 1.434 . S
C749 C740 1.429 1_565 S
C749 N746 1.350 . S
C749 C748 1.434 . S
C750 C751 1.369 . S
C750 C752 1.419 . S
C750 H754 0.930 . S
C751 C750 1.369 . S
C751 C760 1.429 . S
C752 C750 1.419 . S
C752 C753 1.363 . S
C752 H755 0.929 . S
C753 C752 1.363 . S
C753 C759 1.428 . S
H754 C750 0.930 . S
H755 C752 0.929 . S
S756 N757 1.613 . S
S756 N758 1.610 . S
N757 S756 1.613 . S
N757 C760 1.350 . S
N758 S756 1.610 . S
N758 C759 1.351 . S
C759 C753 1.428 . S
C759 N758 1.351 . S
C759 C760 1.434 . S
C760 C751 1.429 . S
C760 N757 1.350 . S
C760 C759 1.434 . S
C761 C762 1.369 1_545 S
C761 C763 1.419 . S
C761 H765 0.930 . S
C762 C761 1.369 1_565 S
C762 C771 1.429 . S
C763 C761 1.419 . S
C763 C764 1.363 . S
C763 H766 0.929 . S
C764 C763 1.363 . S
C764 C770 1.428 . S
H765 C761 0.930 . S
H766 C763 0.929 . S
S767 N768 1.613 . S
S767 N769 1.610 . S
N768 S767 1.613 . S
N768 C771 1.350 . S
N769 S767 1.610 . S
N769 C770 1.351 1_565 S
C770 C764 1.428 . S
C770 N769 1.351 1_545 S
C770 C771 1.434 1_545 S
C771 C762 1.429 . S
C771 N768 1.350 . S
C771 C770 1.434 1_565 S
C772 C773 1.369 . S
C772 C774 1.419 . S
C772 H776 0.930 . S
C773 C772 1.369 . S
C773 C782 1.429 . S
C774 C772 1.419 . S
C774 C775 1.363 . S
C774 H777 0.929 . S
C775 C774 1.363 . S
C775 C781 1.428 . S
H776 C772 0.930 . S
H777 C774 0.929 . S
S778 N779 1.613 . S
S778 N780 1.610 . S
N779 S778 1.613 . S
N779 C782 1.350 . S
N780 S778 1.610 . S
N780 C781 1.351 . S
C781 C775 1.428 . S
C781 N780 1.351 . S
C781 C782 1.434 . S
C782 C773 1.429 . S
C782 N779 1.350 . S
C782 C781 1.434 . S
C783 C784 1.369 1_565 S
C783 C785 1.419 . S
C783 H787 0.930 . S
C784 C783 1.369 1_545 S
C784 C793 1.429 . S
C785 C783 1.419 . S
C785 C786 1.363 . S
C785 H788 0.929 . S
C786 C785 1.363 . S
C786 C792 1.428 . S
H787 C783 0.930 . S
H788 C785 0.929 . S
S789 N790 1.613 . S
S789 N791 1.610 1_545 S
N790 S789 1.613 . S
N790 C793 1.350 . S
N791 S789 1.610 1_565 S
N791 C792 1.351 . S
C792 C786 1.428 . S
C792 N791 1.351 . S
C792 C793 1.434 1_565 S
C793 C784 1.429 . S
C793 N790 1.350 . S
C793 C792 1.434 1_545 S
C794 C795 1.369 . S
C794 C796 1.419 . S
C794 H798 0.930 . S
C795 C794 1.369 . S
C795 C804 1.429 . S
C796 C794 1.419 . S
C796 C797 1.363 . S
C796 H799 0.929 . S
C797 C796 1.363 . S
C797 C803 1.428 . S
H798 C794 0.930 . S
H799 C796 0.929 . S
S800 N801 1.613 . S
S800 N802 1.610 . S
N801 S800 1.613 . S
N801 C804 1.350 . S
N802 S800 1.610 . S
N802 C803 1.351 . S
C803 C797 1.428 . S
C803 N802 1.351 . S
C803 C804 1.434 . S
C804 C795 1.429 . S
C804 N801 1.350 . S
C804 C803 1.434 . S
C805 C806 1.369 . S
C805 C807 1.419 . S
C805 H809 0.930 . S
C806 C805 1.369 . S
C806 C815 1.429 . S
C807 C805 1.419 . S
C807 C808 1.363 1_545 S
C807 H810 0.929 . S
C808 C807 1.363 1_565 S
C808 C814 1.428 . S
H809 C805 0.930 . S
H810 C807 0.929 . S
S811 N812 1.613 1_565 S
S811 N813 1.610 . S
N812 S811 1.613 1_545 S
N812 C815 1.350 . S
N813 S811 1.610 . S
N813 C814 1.351 . S
C814 C808 1.428 . S
C814 N813 1.351 . S
C814 C815 1.434 1_565 S
C815 C806 1.429 . S
C815 N812 1.350 . S
C815 C814 1.434 1_545 S
C816 C817 1.369 . S
C816 C818 1.419 . S
C816 H820 0.930 . S
C817 C816 1.369 . S
C817 C826 1.429 . S
C818 C816 1.419 . S
C818 C819 1.363 . S
C818 H821 0.929 . S
C819 C818 1.363 . S
C819 C825 1.428 . S
H820 C816 0.930 . S
H821 C818 0.929 . S
S822 N823 1.613 . S
S822 N824 1.610 . S
N823 S822 1.613 . S
N823 C826 1.350 . S
N824 S822 1.610 . S
N824 C825 1.351 . S
C825 C819 1.428 . S
C825 N824 1.351 . S
C825 C826 1.434 . S
C826 C817 1.429 . S
C826 N823 1.350 . S
C826 C825 1.434 . S
C827 C828 1.369 . S
C827 C829 1.419 . S
C827 H831 0.930 . S
C828 C827 1.369 . S
C828 C837 1.429 . S
C829 C827 1.419 . S
C829 C830 1.363 . S
C829 H832 0.929 . S
C830 C829 1.363 . S
C830 C836 1.428 . S
H831 C827 0.930 . S
H832 C829 0.929 . S
S833 N834 1.616 . S
S833 N835 1.610 1_556 S
N834 S833 1.616 . S
N834 C837 1.350 . S
N835 S833 1.610 1_554 S
N835 C836 1.351 1_554 S
C836 C830 1.428 . S
C836 N835 1.351 1_556 S
C836 C837 1.434 . S
C837 C828 1.429 . S
C837 N834 1.350 . S
C837 C836 1.434 . S
C838 C839 1.369 . S
C838 C840 1.419 . S
C838 H842 0.930 . S
C839 C838 1.369 . S
C839 C848 1.429 . S
C840 C838 1.419 . S
C840 C841 1.363 . S
C840 H843 0.929 . S
C841 C840 1.363 . S
C841 C847 1.428 . S
H842 C838 0.930 . S
H843 C840 0.929 . S
S844 N845 1.613 . S
S844 N846 1.610 . S
N845 S844 1.613 . S
N845 C848 1.350 . S
N846 S844 1.610 . S
N846 C847 1.351 . S
C847 C841 1.428 . S
C847 N846 1.351 . S
C847 C848 1.434 . S
C848 C839 1.429 . S
C848 N845 1.350 . S
C848 C847 1.434 . S
C849 C850 1.369 . S
C849 C851 1.419 . S
C849 H853 0.930 . S
C850 C849 1.369 . S
C850 C859 1.429 . S
C851 C849 1.419 . S
C851 C852 1.363 . S
C851 H854 0.929 . S
C852 C851 1.363 . S
C852 C858 1.428 . S
H853 C849 0.930 . S
H854 C851 0.929 . S
S855 N856 1.613 . S
S855 N857 1.610 . S
N856 S855 1.613 . S
N856 C859 1.350 . S
N857 S855 1.610 . S
N857 C858 1.351 . S
C858 C852 1.428 . S
C858 N857 1.351 . S
C858 C859 1.434 . S
C859 C850 1.429 . S
C859 N856 1.350 . S
C859 C858 1.434 . S
C860 C861 1.369 . S
C860 C862 1.419 . S
C860 H864 0.930 . S
C861 C860 1.369 . S
C861 C870 1.429 . S
C862 C860 1.419 . S
C862 C863 1.363 . S
C862 H865 0.929 . S
C863 C862 1.363 . S
C863 C869 1.428 . S
H864 C860 0.930 . S
H865 C862 0.929 . S
S866 N867 1.613 . S
S866 N868 1.610 . S
N867 S866 1.613 . S
N867 C870 1.350 . S
N868 S866 1.610 . S
N868 C869 1.351 . S
C869 C863 1.428 . S
C869 N868 1.351 . S
C869 C870 1.434 . S
C870 C861 1.429 . S
C870 N867 1.350 . S
C870 C869 1.434 . S
C871 C872 1.369 . S
C871 C873 1.419 . S
C871 H875 0.930 . S
C872 C871 1.369 . S
C872 C881 1.429 . S
C873 C871 1.419 . S
C873 C874 1.363 . S
C873 H876 0.929 . S
C874 C873 1.363 . S
C874 C880 1.428 . S
H875 C871 0.930 . S
H876 C873 0.929 . S
S877 N878 1.613 1_556 S
S877 N879 1.610 . S
N878 S877 1.613 1_554 S
N878 C881 1.350 . S
N879 S877 1.610 . S
N879 C880 1.351 1_556 S
C880 C874 1.428 . S
C880 N879 1.351 1_554 S
C880 C881 1.434 . S
C881 C872 1.429 . S
C881 N878 1.350 . S
C881 C880 1.434 . S
C882 C883 1.369 . S
C882 C884 1.419 . S
C882 H886 0.930 . S
C883 C882 1.369 . S
C883 C892 1.429 . S
C884 C882 1.419 . S
C884 C885 1.363 . S
C884 H887 0.929 . S
C885 C884 1.363 . S
C885 C891 1.428 . S
H886 C882 0.930 . S
H887 C884 0.929 . S
S888 N889 1.613 . S
S888 N890 1.610 . S
N889 S888 1.613 . S
N889 C892 1.350 . S
N890 S888 1.610 . S
N890 C891 1.351 . S
C891 C885 1.428 . S
C891 N890 1.351 . S
C891 C892 1.434 . S
C892 C883 1.429 . S
C892 N889 1.350 . S
C892 C891 1.434 . S
C893 C894 1.369 . S
C893 C895 1.419 . S
C893 H897 0.930 . S
C894 C893 1.369 . S
C894 C903 1.429 . S
C895 C893 1.419 . S
C895 C896 1.363 . S
C895 H898 0.929 . S
C896 C895 1.363 . S
C896 C902 1.428 . S
H897 C893 0.930 . S
H898 C895 0.929 . S
S899 N900 1.613 . S
S899 N901 1.610 . S
N900 S899 1.613 . S
N900 C903 1.350 . S
N901 S899 1.610 . S
N901 C902 1.351 . S
C902 C896 1.428 . S
C902 N901 1.351 . S
C902 C903 1.434 . S
C903 C894 1.429 . S
C903 N900 1.350 . S
C903 C902 1.434 . S
C904 C905 1.369 . S
C904 C906 1.419 . S
C904 H908 0.930 . S
C905 C904 1.369 . S
C905 C914 1.429 . S
C906 C904 1.419 . S
C906 C907 1.363 . S
C906 H909 0.929 . S
C907 C906 1.363 . S
C907 C913 1.428 . S
H908 C904 0.930 . S
H909 C906 0.929 . S
S910 N911 1.613 . S
S910 N912 1.610 . S
N911 S910 1.613 . S
N911 C914 1.350 . S
N912 S910 1.610 . S
N912 C913 1.351 . S
C913 C907 1.428 . S
C913 N912 1.351 . S
C913 C914 1.434 . S
C914 C905 1.429 . S
C914 N911 1.350 . S
C914 C913 1.434 . S
C915 C916 1.369 . S
C915 C917 1.419 . S
C915 H919 0.930 . S
C916 C915 1.369 . S
C916 C925 1.429 . S
C917 C915 1.419 . S
C917 C918 1.363 . S
C917 H920 0.929 . S
C918 C917 1.363 . S
C918 C924 1.428 . S
H919 C915 0.930 . S
H920 C917 0.929 . S
S921 N922 1.613 . S
S921 N923 1.610 . S
N922 S921 1.613 . S
N922 C925 1.350 . S
N923 S921 1.610 . S
N923 C924 1.351 . S
C924 C918 1.428 . S
C924 N923 1.351 . S
C924 C925 1.434 . S
C925 C916 1.429 . S
C925 N922 1.350 . S
C925 C924 1.434 . S
C926 C927 1.369 . S
C926 C928 1.419 . S
C926 H930 0.930 . S
C927 C926 1.369 . S
C927 C936 1.429 . S
C928 C926 1.419 . S
C928 C929 1.363 . S
C928 H931 0.929 . S
C929 C928 1.363 . S
C929 C935 1.428 . S
H930 C926 0.930 . S
H931 C928 0.929 . S
S932 N933 1.613 . S
S932 N934 1.610 . S
N933 S932 1.613 . S
N933 C936 1.350 . S
N934 S932 1.610 . S
N934 C935 1.351 . S
C935 C929 1.428 . S
C935 N934 1.351 . S
C935 C936 1.434 . S
C936 C927 1.429 . S
C936 N933 1.350 . S
C936 C935 1.434 . S
C937 C938 1.369 . S
C937 C939 1.419 . S
C937 H941 0.930 . S
C938 C937 1.369 . S
C938 C947 1.429 . S
C939 C937 1.419 . S
C939 C940 1.363 . S
C939 H942 0.929 . S
C940 C939 1.363 . S
C940 C946 1.428 . S
H941 C937 0.930 . S
H942 C939 0.929 . S
S943 N944 1.613 . S
S943 N945 1.610 . S
N944 S943 1.613 . S
N944 C947 1.350 . S
N945 S943 1.610 . S
N945 C946 1.351 . S
C946 C940 1.428 . S
C946 N945 1.351 . S
C946 C947 1.434 . S
C947 C938 1.429 . S
C947 N944 1.350 . S
C947 C946 1.434 . S
C948 C949 1.369 . S
C948 C950 1.419 . S
C948 H952 0.930 . S
C949 C948 1.369 . S
C949 C958 1.429 . S
C950 C948 1.419 . S
C950 C951 1.363 . S
C950 H953 0.929 . S
C951 C950 1.363 . S
C951 C957 1.428 . S
H952 C948 0.930 . S
H953 C950 0.929 . S
S954 N955 1.613 . S
S954 N956 1.610 . S
N955 S954 1.613 . S
N955 C958 1.350 . S
N956 S954 1.610 . S
N956 C957 1.351 . S
C957 C951 1.428 . S
C957 N956 1.351 . S
C957 C958 1.434 . S
C958 C949 1.429 . S
C958 N955 1.350 . S
C958 C957 1.434 . S
C959 C960 1.369 . S
C959 C961 1.419 . S
C959 H963 0.930 . S
C960 C959 1.369 . S
C960 C969 1.429 . S
C961 C959 1.419 . S
C961 C962 1.363 . S
C961 H964 0.929 . S
C962 C961 1.363 . S
C962 C968 1.428 . S
H963 C959 0.930 . S
H964 C961 0.929 . S
S965 N966 1.613 1_554 S
S965 N967 1.610 . S
N966 S965 1.613 1_556 S
N966 C969 1.350 . S
N967 S965 1.610 . S
N967 C968 1.351 1_554 S
C968 C962 1.428 . S
C968 N967 1.351 1_556 S
C968 C969 1.434 . S
C969 C960 1.429 . S
C969 N966 1.350 . S
C969 C968 1.434 . S
C970 C971 1.369 . S
C970 C972 1.419 . S
C970 H974 0.930 . S
C971 C970 1.369 . S
C971 C980 1.429 . S
C972 C970 1.419 . S
C972 C973 1.363 . S
C972 H975 0.929 . S
C973 C972 1.363 . S
C973 C979 1.428 . S
H974 C970 0.930 . S
H975 C972 0.929 . S
S976 N977 1.613 . S
S976 N978 1.610 . S
N977 S976 1.613 . S
N977 C980 1.350 . S
N978 S976 1.610 . S
N978 C979 1.351 . S
C979 C973 1.428 . S
C979 N978 1.351 . S
C979 C980 1.434 . S
C980 C971 1.429 . S
C980 N977 1.350 . S
C980 C979 1.434 . S
C981 C982 1.369 . S
C981 C983 1.419 . S
C981 H985 0.930 . S
C982 C981 1.369 . S
C982 C991 1.429 . S
C983 C981 1.419 . S
C983 C984 1.363 . S
C983 H986 0.929 . S
C984 C983 1.363 . S
C984 C990 1.428 . S
H985 C981 0.930 . S
H986 C983 0.929 . S
S987 N988 1.613 . S
S987 N989 1.610 . S
N988 S987 1.613 . S
N988 C991 1.350 . S
N989 S987 1.610 . S
N989 C990 1.351 . S
C990 C984 1.428 . S
C990 N989 1.351 . S
C990 C991 1.434 . S
C991 C982 1.429 . S
C991 N988 1.350 . S
C991 C990 1.434 . S
C992 C993 1.369 . S
C992 C994 1.419 . S
C992 H996 0.930 . S
C993 C992 1.369 . S
C993 C1002 1.429 . S
C994 C992 1.419 . S
C994 C995 1.363 . S
C994 H997 0.929 . S
C995 C994 1.363 . S
C995 C1001 1.428 . S
H996 C992 0.930 . S
H997 C994 0.929 . S
S998 N999 1.613 . S
S998 N1000 1.610 . S
N999 S998 1.613 . S
N999 C1002 1.350 . S
N1000 S998 1.610 . S
N1000 C1001 1.351 . S
C1001 C995 1.428 . S
C1001 N1000 1.351 . S
C1001 C1002 1.434 . S
C1002 C993 1.429 . S
C1002 N999 1.350 . S
C1002 C1001 1.434 . S
C1003 C1004 1.369 . S
C1003 C1005 1.419 . S
C1003 H1007 0.930 . S
C1004 C1003 1.369 . S
C1004 C1013 1.429 . S
C1005 C1003 1.419 . S
C1005 C1006 1.363 . S
C1005 H1008 0.929 1_455 S
C1006 C1005 1.363 . S
C1006 C1012 1.428 . S
H1007 C1003 0.930 . S
H1008 C1005 0.929 1_655 S
S1009 N1010 1.613 . S
S1009 N1011 1.610 . S
N1010 S1009 1.613 . S
N1010 C1013 1.350 . S
N1011 S1009 1.610 . S
N1011 C1012 1.351 . S
C1012 C1006 1.428 . S
C1012 N1011 1.351 . S
C1012 C1013 1.434 . S
C1013 C1004 1.429 . S
C1013 N1010 1.350 . S
C1013 C1012 1.434 . S
C1014 C1015 1.369 . S
C1014 C1016 1.419 . S
C1014 H1018 0.930 . S
C1015 C1014 1.369 . S
C1015 C1024 1.429 . S
C1016 C1014 1.419 . S
C1016 C1017 1.363 . S
C1016 H1019 0.929 . S
C1017 C1016 1.363 . S
C1017 C1023 1.428 . S
H1018 C1014 0.930 . S
H1019 C1016 0.929 . S
S1020 N1021 1.613 . S
S1020 N1022 1.610 . S
N1021 S1020 1.613 . S
N1021 C1024 1.350 . S
N1022 S1020 1.610 . S
N1022 C1023 1.351 . S
C1023 C1017 1.428 . S
C1023 N1022 1.351 . S
C1023 C1024 1.434 . S
C1024 C1015 1.429 . S
C1024 N1021 1.350 . S
C1024 C1023 1.434 . S
C1025 C1026 1.369 . S
C1025 C1027 1.419 . S
C1025 H1029 0.930 . S
C1026 C1025 1.369 . S
C1026 C1035 1.429 . S
C1027 C1025 1.419 . S
C1027 C1028 1.363 . S
C1027 H1030 0.929 . S
C1028 C1027 1.363 . S
C1028 C1034 1.428 . S
H1029 C1025 0.930 . S
H1030 C1027 0.929 . S
S1031 N1032 1.613 . S
S1031 N1033 1.610 . S
N1032 S1031 1.613 . S
N1032 C1035 1.350 . S
N1033 S1031 1.610 . S
N1033 C1034 1.351 . S
C1034 C1028 1.428 . S
C1034 N1033 1.351 . S
C1034 C1035 1.434 . S
C1035 C1026 1.429 . S
C1035 N1032 1.350 . S
C1035 C1034 1.434 . S
C1036 C1037 1.369 . S
C1036 C1038 1.419 . S
C1036 H1040 0.930 . S
C1037 C1036 1.369 . S
C1037 C1046 1.429 . S
C1038 C1036 1.419 . S
C1038 C1039 1.363 . S
C1038 H1041 0.929 . S
C1039 C1038 1.363 . S
C1039 C1045 1.428 . S
H1040 C1036 0.930 . S
H1041 C1038 0.929 . S
S1042 N1043 1.613 . S
S1042 N1044 1.610 . S
N1043 S1042 1.613 . S
N1043 C1046 1.350 . S
N1044 S1042 1.610 . S
N1044 C1045 1.351 . S
C1045 C1039 1.428 . S
C1045 N1044 1.351 . S
C1045 C1046 1.434 . S
C1046 C1037 1.429 . S
C1046 N1043 1.350 . S
C1046 C1045 1.434 . S
C1047 C1048 1.369 . S
C1047 C1049 1.419 . S
C1047 H1051 0.930 . S
C1048 C1047 1.369 . S
C1048 C1057 1.429 . S
C1049 C1047 1.419 . S
C1049 C1050 1.363 . S
C1049 H1052 0.929 . S
C1050 C1049 1.363 . S
C1050 C1056 1.428 . S
H1051 C1047 0.930 . S
H1052 C1049 0.929 . S
S1053 N1054 1.613 . S
S1053 N1055 1.610 . S
N1054 S1053 1.613 . S
N1054 C1057 1.350 . S
N1055 S1053 1.610 . S
N1055 C1056 1.351 . S
C1056 C1050 1.428 . S
C1056 N1055 1.351 . S
C1056 C1057 1.434 . S
C1057 C1048 1.429 . S
C1057 N1054 1.350 . S
C1057 C1056 1.434 . S
C1058 C1059 1.369 . S
C1058 C1060 1.419 . S
C1058 H1062 0.930 . S
C1059 C1058 1.369 . S
C1059 C1068 1.429 . S
C1060 C1058 1.419 . S
C1060 C1061 1.363 . S
C1060 H1063 0.929 . S
C1061 C1060 1.363 . S
C1061 C1067 1.428 . S
H1062 C1058 0.930 . S
H1063 C1060 0.929 . S
S1064 N1065 1.613 . S
S1064 N1066 1.610 . S
N1065 S1064 1.613 . S
N1065 C1068 1.350 . S
N1066 S1064 1.610 . S
N1066 C1067 1.351 . S
C1067 C1061 1.428 . S
C1067 N1066 1.351 . S
C1067 C1068 1.434 . S
C1068 C1059 1.429 . S
C1068 N1065 1.350 . S
C1068 C1067 1.434 . S
C1069 C1070 1.369 . S
C1069 C1071 1.419 . S
C1069 H1073 0.930 . S
C1070 C1069 1.369 . S
C1070 C1079 1.429 . S
C1071 C1069 1.419 . S
C1071 C1072 1.363 . S
C1071 H1074 0.929 . S
C1072 C1071 1.363 . S
C1072 C1078 1.428 . S
H1073 C1069 0.930 . S
H1074 C1071 0.929 . S
S1075 N1076 1.613 . S
S1075 N1077 1.610 1_455 S
N1076 S1075 1.613 . S
N1076 C1079 1.350 . S
N1077 S1075 1.610 1_655 S
N1077 C1078 1.351 1_655 S
C1078 C1072 1.428 . S
C1078 N1077 1.351 1_455 S
C1078 C1079 1.434 . S
C1079 C1070 1.429 . S
C1079 N1076 1.350 . S
C1079 C1078 1.434 . S
C1080 C1081 1.369 . S
C1080 C1082 1.419 . S
C1080 H1084 0.930 . S
C1081 C1080 1.369 . S
C1081 C1090 1.429 . S
C1082 C1080 1.419 . S
C1082 C1083 1.363 . S
C1082 H1085 0.929 . S
C1083 C1082 1.363 . S
C1083 C1089 1.428 . S
H1084 C1080 0.930 . S
H1085 C1082 0.929 . S
S1086 N1087 1.613 . S
S1086 N1088 1.610 . S
N1087 S1086 1.613 . S
N1087 C1090 1.350 . S
N1088 S1086 1.610 . S
N1088 C1089 1.351 . S
C1089 C1083 1.428 . S
C1089 N1088 1.351 . S
C1089 C1090 1.434 . S
C1090 C1081 1.429 . S
C1090 N1087 1.350 . S
C1090 C1089 1.434 . S
C1091 C1092 1.369 . S
C1091 C1093 1.419 . S
C1091 H1095 0.930 . S
C1092 C1091 1.369 . S
C1092 C1101 1.429 . S
C1093 C1091 1.419 . S
C1093 C1094 1.363 . S
C1093 H1096 0.929 . S
C1094 C1093 1.363 . S
C1094 C1100 1.428 . S
H1095 C1091 0.930 . S
H1096 C1093 0.929 . S
S1097 N1098 1.613 . S
S1097 N1099 1.610 . S
N1098 S1097 1.613 . S
N1098 C1101 1.350 . S
N1099 S1097 1.610 . S
N1099 C1100 1.351 . S
C1100 C1094 1.428 . S
C1100 N1099 1.351 . S
C1100 C1101 1.434 . S
C1101 C1092 1.429 . S
C1101 N1098 1.350 . S
C1101 C1100 1.434 . S
C1102 C1103 1.369 . S
C1102 C1104 1.419 . S
C1102 H1106 0.930 . S
C1103 C1102 1.369 . S
C1103 C1112 1.429 . S
C1104 C1102 1.419 . S
C1104 C1105 1.363 . S
C1104 H1107 0.929 . S
C1105 C1104 1.363 . S
C1105 C1111 1.428 . S
H1106 C1102 0.930 . S
H1107 C1104 0.929 . S
S1108 N1109 1.613 . S
S1108 N1110 1.610 . S
N1109 S1108 1.613 . S
N1109 C1112 1.350 . S
N1110 S1108 1.610 . S
N1110 C1111 1.351 . S
C1111 C1105 1.428 . S
C1111 N1110 1.351 . S
C1111 C1112 1.434 . S
C1112 C1103 1.429 . S
C1112 N1109 1.350 . S
C1112 C1111 1.434 . S
C1113 C1114 1.369 . S
C1113 C1115 1.419 . S
C1113 H1117 0.930 . S
C1114 C1113 1.369 . S
C1114 C1123 1.429 . S
C1115 C1113 1.419 . S
C1115 C1116 1.363 . S
C1115 H1118 0.929 . S
C1116 C1115 1.363 . S
C1116 C1122 1.428 . S
H1117 C1113 0.930 . S
H1118 C1115 0.929 . S
S1119 N1120 1.613 . S
S1119 N1121 1.610 . S
N1120 S1119 1.613 . S
N1120 C1123 1.350 . S
N1121 S1119 1.610 . S
N1121 C1122 1.351 . S
C1122 C1116 1.428 . S
C1122 N1121 1.351 . S
C1122 C1123 1.434 . S
C1123 C1114 1.429 . S
C1123 N1120 1.350 . S
C1123 C1122 1.434 . S
C1124 C1125 1.369 . S
C1124 C1126 1.419 . S
C1124 H1128 0.930 . S
C1125 C1124 1.369 . S
C1125 C1134 1.429 . S
C1126 C1124 1.419 . S
C1126 C1127 1.363 . S
C1126 H1129 0.929 . S
C1127 C1126 1.363 . S
C1127 C1133 1.428 . S
H1128 C1124 0.930 . S
H1129 C1126 0.929 . S
S1130 N1131 1.613 . S
S1130 N1132 1.610 . S
N1131 S1130 1.613 . S
N1131 C1134 1.350 . S
N1132 S1130 1.610 . S
N1132 C1133 1.351 . S
C1133 C1127 1.428 . S
C1133 N1132 1.351 . S
C1133 C1134 1.434 . S
C1134 C1125 1.429 . S
C1134 N1131 1.350 . S
C1134 C1133 1.434 . S
C1135 C1136 1.369 . S
C1135 C1137 1.419 . S
C1135 H1139 0.930 . S
C1136 C1135 1.369 . S
C1136 C1145 1.429 . S
C1137 C1135 1.419 . S
C1137 C1138 1.363 . S
C1137 H1140 0.929 . S
C1138 C1137 1.363 . S
C1138 C1144 1.428 . S
H1139 C1135 0.930 . S
H1140 C1137 0.929 . S
S1141 N1142 1.613 . S
S1141 N1143 1.610 . S
N1142 S1141 1.613 . S
N1142 C1145 1.350 . S
N1143 S1141 1.610 . S
N1143 C1144 1.351 . S
C1144 C1138 1.428 . S
C1144 N1143 1.351 . S
C1144 C1145 1.434 . S
C1145 C1136 1.429 . S
C1145 N1142 1.350 . S
C1145 C1144 1.434 . S
C1146 C1147 1.369 . S
C1146 C1148 1.419 . S
C1146 H1150 0.930 . S
C1147 C1146 1.369 . S
C1147 C1156 1.429 . S
C1148 C1146 1.419 . S
C1148 C1149 1.363 . S
C1148 H1151 0.929 . S
C1149 C1148 1.363 . S
C1149 C1155 1.428 . S
H1150 C1146 0.930 . S
H1151 C1148 0.929 . S
S1152 N1153 1.613 . S
S1152 N1154 1.610 . S
N1153 S1152 1.613 . S
N1153 C1156 1.350 . S
N1154 S1152 1.610 . S
N1154 C1155 1.351 . S
C1155 C1149 1.428 . S
C1155 N1154 1.351 . S
C1155 C1156 1.434 . S
C1156 C1147 1.429 . S
C1156 N1153 1.350 . S
C1156 C1155 1.434 . S
C1157 C1158 1.369 . S
C1157 C1159 1.419 . S
C1157 H1161 0.930 . S
C1158 C1157 1.369 . S
C1158 C1167 1.429 . S
C1159 C1157 1.419 . S
C1159 C1160 1.363 . S
C1159 H1162 0.929 . S
C1160 C1159 1.363 . S
C1160 C1166 1.428 . S
H1161 C1157 0.930 . S
H1162 C1159 0.929 . S
S1163 N1164 1.613 . S
S1163 N1165 1.610 1_655 S
N1164 S1163 1.613 . S
N1164 C1167 1.350 . S
N1165 S1163 1.610 1_455 S
N1165 C1166 1.351 1_455 S
C1166 C1160 1.428 . S
C1166 N1165 1.351 1_655 S
C1166 C1167 1.434 . S
C1167 C1158 1.429 . S
C1167 N1164 1.350 . S
C1167 C1166 1.434 . S
C1168 C1169 1.369 . S
C1168 C1170 1.419 . S
C1168 H1172 0.930 . S
C1169 C1168 1.369 . S
C1169 C1178 1.429 . S
C1170 C1168 1.419 . S
C1170 C1171 1.363 . S
C1170 H1173 0.929 . S
C1171 C1170 1.363 . S
C1171 C1177 1.428 . S
H1172 C1168 0.930 . S
H1173 C1170 0.929 . S
S1174 N1175 1.613 . S
S1174 N1176 1.610 . S
N1175 S1174 1.613 . S
N1175 C1178 1.350 . S
N1176 S1174 1.610 . S
N1176 C1177 1.351 . S
C1177 C1171 1.428 . S
C1177 N1176 1.351 . S
C1177 C1178 1.434 . S
C1178 C1169 1.429 . S
C1178 N1175 1.350 . S
C1178 C1177 1.434 . S
C1179 C1180 1.369 . S
C1179 C1181 1.419 . S
C1179 H1183 0.930 . S
C1180 C1179 1.369 . S
C1180 C1189 1.429 . S
C1181 C1179 1.419 . S
C1181 C1182 1.363 . S
C1181 H1184 0.929 . S
C1182 C1181 1.363 . S
C1182 C1188 1.428 . S
H1183 C1179 0.930 . S
H1184 C1181 0.929 . S
S1185 N1186 1.613 . S
S1185 N1187 1.610 . S
N1186 S1185 1.613 . S
N1186 C1189 1.350 . S
N1187 S1185 1.610 . S
N1187 C1188 1.351 . S
C1188 C1182 1.428 . S
C1188 N1187 1.351 . S
C1188 C1189 1.434 . S
C1189 C1180 1.429 . S
C1189 N1186 1.350 . S
C1189 C1188 1.434 . S
C1190 C1191 1.369 . S
C1190 C1192 1.419 . S
C1190 H1194 0.930 . S
C1191 C1190 1.369 . S
C1191 C1200 1.429 . S
C1192 C1190 1.419 . S
C1192 C1193 1.363 . S
C1192 H1195 0.929 . S
C1193 C1192 1.363 . S
C1193 C1199 1.428 . S
H1194 C1190 0.930 . S
H1195 C1192 0.929 . S
S1196 N1197 1.613 . S
S1196 N1198 1.610 . S
N1197 S1196 1.613 . S
N1197 C1200 1.350 . S
N1198 S1196 1.610 . S
N1198 C1199 1.351 . S
C1199 C1193 1.428 . S
C1199 N1198 1.351 . S
C1199 C1200 1.434 . S
C1200 C1191 1.429 . S
C1200 N1197 1.350 . S
C1200 C1199 1.434 . S
C1201 C1202 1.369 . S
C1201 C1203 1.419 . S
C1201 H1205 0.930 . S
C1202 C1201 1.369 . S
C1202 C1211 1.429 . S
C1203 C1201 1.419 . S
C1203 C1204 1.363 . S
C1203 H1206 0.929 1_655 S
C1204 C1203 1.363 . S
C1204 C1210 1.428 . S
H1205 C1201 0.930 . S
H1206 C1203 0.929 1_455 S
S1207 N1208 1.613 . S
S1207 N1209 1.610 . S
N1208 S1207 1.613 . S
N1208 C1211 1.350 . S
N1209 S1207 1.610 . S
N1209 C1210 1.351 . S
C1210 C1204 1.428 . S
C1210 N1209 1.351 . S
C1210 C1211 1.434 . S
C1211 C1202 1.429 . S
C1211 N1208 1.350 . S
C1211 C1210 1.434 . S
C1212 C1213 1.369 . S
C1212 C1214 1.419 . S
C1212 H1216 0.930 . S
C1213 C1212 1.369 . S
C1213 C1222 1.429 . S
C1214 C1212 1.419 . S
C1214 C1215 1.363 . S
C1214 H1217 0.929 . S
C1215 C1214 1.363 . S
C1215 C1221 1.428 . S
H1216 C1212 0.930 . S
H1217 C1214 0.929 . S
S1218 N1219 1.613 . S
S1218 N1220 1.610 . S
N1219 S1218 1.613 . S
N1219 C1222 1.350 . S
N1220 S1218 1.610 . S
N1220 C1221 1.351 . S
C1221 C1215 1.428 . S
C1221 N1220 1.351 . S
C1221 C1222 1.434 . S
C1222 C1213 1.429 . S
C1222 N1219 1.350 . S
C1222 C1221 1.434 . S
C1223 C1224 1.369 . S
C1223 C1225 1.419 . S
C1223 H1227 0.930 . S
C1224 C1223 1.369 . S
C1224 C1233 1.429 . S
C1225 C1223 1.419 . S
C1225 C1226 1.363 . S
C1225 H1228 0.929 . S
C1226 C1225 1.363 . S
C1226 C1232 1.428 . S
H1227 C1223 0.930 . S
H1228 C1225 0.929 . S
S1229 N1230 1.610 . S
S1229 N1231 1.612 1_655 S
N1230 S1229 1.610 . S
N1230 C1233 1.350 . S
N1231 S1229 1.612 1_455 S
N1231 C1232 1.351 1_455 S
C1232 C1226 1.428 . S
C1232 N1231 1.351 1_655 S
C1232 C1233 1.434 . S
C1233 C1224 1.429 . S
C1233 N1230 1.350 . S
C1233 C1232 1.434 . S
C1234 C1235 1.369 . S
C1234 C1236 1.419 . S
C1234 H1238 0.930 . S
C1235 C1234 1.369 . S
C1235 C1244 1.429 . S
C1236 C1234 1.419 . S
C1236 C1237 1.363 . S
C1236 H1239 0.929 . S
C1237 C1236 1.363 . S
C1237 C1243 1.428 . S
H1238 C1234 0.930 . S
H1239 C1236 0.929 . S
S1240 N1241 1.613 . S
S1240 N1242 1.610 . S
N1241 S1240 1.613 . S
N1241 C1244 1.350 . S
N1242 S1240 1.610 . S
N1242 C1243 1.351 . S
C1243 C1237 1.428 . S
C1243 N1242 1.351 . S
C1243 C1244 1.434 . S
C1244 C1235 1.429 . S
C1244 N1241 1.350 . S
C1244 C1243 1.434 . S
C1245 C1246 1.369 . S
C1245 C1247 1.419 . S
C1245 H1249 0.930 . S
C1246 C1245 1.369 . S
C1246 C1255 1.429 . S
C1247 C1245 1.419 . S
C1247 C1248 1.363 . S
C1247 H1250 0.929 . S
C1248 C1247 1.363 . S
C1248 C1254 1.428 . S
H1249 C1245 0.930 . S
H1250 C1247 0.929 . S
S1251 N1252 1.613 . S
S1251 N1253 1.610 . S
N1252 S1251 1.613 . S
N1252 C1255 1.350 . S
N1253 S1251 1.610 . S
N1253 C1254 1.351 . S
C1254 C1248 1.428 . S
C1254 N1253 1.351 . S
C1254 C1255 1.434 . S
C1255 C1246 1.429 . S
C1255 N1252 1.350 . S
C1255 C1254 1.434 . S
C1256 C1257 1.369 . S
C1256 C1258 1.419 . S
C1256 H1260 0.930 . S
C1257 C1256 1.369 . S
C1257 C1266 1.429 . S
C1258 C1256 1.419 . S
C1258 C1259 1.363 . S
C1258 H1261 0.929 . S
C1259 C1258 1.363 . S
C1259 C1265 1.428 . S
H1260 C1256 0.930 . S
H1261 C1258 0.929 . S
S1262 N1263 1.613 . S
S1262 N1264 1.610 . S
N1263 S1262 1.613 . S
N1263 C1266 1.350 . S
N1264 S1262 1.610 . S
N1264 C1265 1.351 . S
C1265 C1259 1.428 . S
C1265 N1264 1.351 . S
C1265 C1266 1.434 . S
C1266 C1257 1.429 . S
C1266 N1263 1.350 . S
C1266 C1265 1.434 . S
C1267 C1268 1.369 . S
C1267 C1269 1.419 . S
C1267 H1271 0.930 . S
C1268 C1267 1.369 . S
C1268 C1277 1.429 . S
C1269 C1267 1.419 . S
C1269 C1270 1.363 . S
C1269 H1272 0.929 . S
C1270 C1269 1.363 . S
C1270 C1276 1.428 . S
H1271 C1267 0.930 . S
H1272 C1269 0.929 . S
S1273 N1274 1.613 . S
S1273 N1275 1.610 . S
N1274 S1273 1.613 . S
N1274 C1277 1.350 . S
N1275 S1273 1.610 . S
N1275 C1276 1.351 . S
C1276 C1270 1.428 . S
C1276 N1275 1.351 . S
C1276 C1277 1.434 . S
C1277 C1268 1.429 . S
C1277 N1274 1.350 . S
C1277 C1276 1.434 . S
C1278 C1279 1.369 . S
C1278 C1280 1.419 . S
C1278 H1282 0.930 . S
C1279 C1278 1.369 . S
C1279 C1288 1.429 . S
C1280 C1278 1.419 . S
C1280 C1281 1.363 . S
C1280 H1283 0.929 . S
C1281 C1280 1.363 . S
C1281 C1287 1.428 . S
H1282 C1278 0.930 . S
H1283 C1280 0.929 . S
S1284 N1285 1.613 . S
S1284 N1286 1.610 . S
N1285 S1284 1.613 . S
N1285 C1288 1.350 . S
N1286 S1284 1.610 . S
N1286 C1287 1.351 . S
C1287 C1281 1.428 . S
C1287 N1286 1.351 . S
C1287 C1288 1.434 . S
C1288 C1279 1.429 . S
C1288 N1285 1.350 . S
C1288 C1287 1.434 . S
C1289 C1290 1.369 . S
C1289 C1291 1.419 . S
C1289 H1293 0.930 . S
C1290 C1289 1.369 . S
C1290 C1299 1.429 . S
C1291 C1289 1.419 . S
C1291 C1292 1.363 . S
C1291 H1294 0.929 . S
C1292 C1291 1.363 . S
C1292 C1298 1.428 . S
H1293 C1289 0.930 . S
H1294 C1291 0.929 . S
S1295 N1296 1.613 . S
S1295 N1297 1.610 . S
N1296 S1295 1.613 . S
N1296 C1299 1.350 . S
N1297 S1295 1.610 . S
N1297 C1298 1.351 . S
C1298 C1292 1.428 . S
C1298 N1297 1.351 . S
C1298 C1299 1.434 . S
C1299 C1290 1.429 . S
C1299 N1296 1.350 . S
C1299 C1298 1.434 . S
C1300 C1301 1.369 . S
C1300 C1302 1.419 . S
C1300 H1304 0.930 . S
C1301 C1300 1.369 . S
C1301 C1310 1.429 . S
C1302 C1300 1.419 . S
C1302 C1303 1.363 . S
C1302 H1305 0.929 . S
C1303 C1302 1.363 . S
C1303 C1309 1.428 . S
H1304 C1300 0.930 . S
H1305 C1302 0.929 . S
S1306 N1307 1.613 . S
S1306 N1308 1.610 . S
N1307 S1306 1.613 . S
N1307 C1310 1.350 . S
N1308 S1306 1.610 . S
N1308 C1309 1.351 . S
C1309 C1303 1.428 . S
C1309 N1308 1.351 . S
C1309 C1310 1.434 . S
C1310 C1301 1.429 . S
C1310 N1307 1.350 . S
C1310 C1309 1.434 . S
C1311 C1312 1.369 . S
C1311 C1313 1.419 . S
C1311 H1315 0.930 . S
C1312 C1311 1.369 . S
C1312 C1321 1.429 . S
C1313 C1311 1.419 . S
C1313 C1314 1.363 . S
C1313 H1316 0.929 1_455 S
C1314 C1313 1.363 . S
C1314 C1320 1.428 . S
H1315 C1311 0.930 . S
H1316 C1313 0.929 1_655 S
S1317 N1318 1.613 . S
S1317 N1319 1.610 . S
N1318 S1317 1.613 . S
N1318 C1321 1.350 . S
N1319 S1317 1.610 . S
N1319 C1320 1.351 . S
C1320 C1314 1.428 . S
C1320 N1319 1.351 . S
C1320 C1321 1.434 . S
C1321 C1312 1.429 . S
C1321 N1318 1.350 . S
C1321 C1320 1.434 . S
C1322 C1323 1.369 . S
C1322 C1324 1.419 . S
C1322 H1326 0.930 . S
C1323 C1322 1.369 . S
C1323 C1332 1.429 . S
C1324 C1322 1.419 . S
C1324 C1325 1.363 . S
C1324 H1327 0.929 . S
C1325 C1324 1.363 . S
C1325 C1331 1.428 . S
H1326 C1322 0.930 . S
H1327 C1324 0.929 . S
S1328 N1329 1.613 . S
S1328 N1330 1.610 . S
N1329 S1328 1.613 . S
N1329 C1332 1.350 . S
N1330 S1328 1.610 . S
N1330 C1331 1.351 . S
C1331 C1325 1.428 . S
C1331 N1330 1.351 . S
C1331 C1332 1.434 . S
C1332 C1323 1.429 . S
C1332 N1329 1.350 . S
C1332 C1331 1.434 . S
C1333 C1334 1.369 . S
C1333 C1335 1.419 . S
C1333 H1337 0.930 . S
C1334 C1333 1.369 . S
C1334 C1343 1.429 . S
C1335 C1333 1.419 . S
C1335 C1336 1.363 . S
C1335 H1338 0.929 . S
C1336 C1335 1.363 . S
C1336 C1342 1.428 . S
H1337 C1333 0.930 . S
H1338 C1335 0.929 . S
S1339 N1340 1.613 . S
S1339 N1341 1.610 . S
N1340 S1339 1.613 . S
N1340 C1343 1.350 . S
N1341 S1339 1.610 . S
N1341 C1342 1.351 . S
C1342 C1336 1.428 . S
C1342 N1341 1.351 . S
C1342 C1343 1.434 . S
C1343 C1334 1.429 . S
C1343 N1340 1.350 . S
C1343 C1342 1.434 . S
C1344 C1345 1.369 . S
C1344 C1346 1.419 1_545 S
C1344 H1348 0.930 . S
C1345 C1344 1.369 . S
C1345 C1354 1.429 . S
C1346 C1344 1.419 1_565 S
C1346 C1347 1.363 . S
C1346 H1349 0.929 . S
C1347 C1346 1.363 . S
C1347 C1353 1.428 . S
H1348 C1344 0.930 . S
H1349 C1346 0.929 . S
S1350 N1351 1.613 1_565 S
S1350 N1352 1.610 . S
N1351 S1350 1.613 1_545 S
N1351 C1354 1.350 . S
N1352 S1350 1.610 . S
N1352 C1353 1.351 . S
C1353 C1347 1.428 . S
C1353 N1352 1.351 . S
C1353 C1354 1.434 1_565 S
C1354 C1345 1.429 . S
C1354 N1351 1.350 . S
C1354 C1353 1.434 1_545 S
C1355 C1356 1.369 . S
C1355 C1357 1.419 . S
C1355 H1359 0.930 . S
C1356 C1355 1.369 . S
C1356 C1365 1.429 . S
C1357 C1355 1.419 . S
C1357 C1358 1.363 . S
C1357 H1360 0.929 . S
C1358 C1357 1.363 . S
C1358 C1364 1.428 . S
H1359 C1355 0.930 . S
H1360 C1357 0.929 . S
S1361 N1362 1.613 . S
S1361 N1363 1.610 . S
N1362 S1361 1.613 . S
N1362 C1365 1.350 . S
N1363 S1361 1.610 . S
N1363 C1364 1.351 . S
C1364 C1358 1.428 . S
C1364 N1363 1.351 . S
C1364 C1365 1.434 . S
C1365 C1356 1.429 . S
C1365 N1362 1.350 . S
C1365 C1364 1.434 . S
C1366 C1367 1.369 . S
C1366 C1368 1.419 1_565 S
C1366 H1370 0.930 . S
C1367 C1366 1.369 . S
C1367 C1376 1.429 . S
C1368 C1366 1.419 1_545 S
C1368 C1369 1.363 . S
C1368 H1371 0.929 . S
C1369 C1368 1.363 . S
C1369 C1375 1.428 . S
H1370 C1366 0.930 . S
H1371 C1368 0.929 . S
S1372 N1373 1.613 . S
S1372 N1374 1.610 1_565 S
N1373 S1372 1.613 . S
N1373 C1376 1.350 . S
N1374 S1372 1.610 1_545 S
N1374 C1375 1.351 . S
C1375 C1369 1.428 . S
C1375 N1374 1.351 . S
C1375 C1376 1.434 1_545 S
C1376 C1367 1.429 . S
C1376 N1373 1.350 . S
C1376 C1375 1.434 1_565 S
C1377 C1378 1.369 . S
C1377 C1379 1.419 . S
C1377 H1381 0.930 . S
C1378 C1377 1.369 . S
C1378 C1387 1.429 1_556 S
C1379 C1377 1.419 . S
C1379 C1380 1.363 1_556 S
C1379 H1382 0.929 . S
C1380 C1379 1.363 1_554 S
C1380 C1386 1.428 . S
H1381 C1377 0.930 . S
H1382 C1379 0.929 . S
S1383 N1384 1.613 . S
S1383 N1385 1.610 . S
N1384 S1383 1.613 . S
N1384 C1387 1.350 . S
N1385 S1383 1.610 . S
N1385 C1386 1.351 . S
C1386 C1380 1.428 . S
C1386 N1385 1.351 . S
C1386 C1387 1.434 . S
C1387 C1378 1.429 1_554 S
C1387 N1384 1.350 . S
C1387 C1386 1.434 . S
C1388 C1389 1.369 . S
C1388 C1390 1.419 1_545 S
C1388 H1392 0.930 . S
C1389 C1388 1.369 . S
C1389 C1398 1.429 . S
C1390 C1388 1.419 1_565 S
C1390 C1391 1.363 . S
C1390 H1393 0.929 . S
C1391 C1390 1.363 . S
C1391 C1397 1.428 . S
H1392 C1388 0.930 . S
H1393 C1390 0.929 . S
S1394 N1395 1.613 . S
S1394 N1396 1.610 1_545 S
N1395 S1394 1.613 . S
N1395 C1398 1.350 . S
N1396 S1394 1.610 1_565 S
N1396 C1397 1.351 . S
C1397 C1391 1.428 . S
C1397 N1396 1.351 . S
C1397 C1398 1.434 1_565 S
C1398 C1389 1.429 . S
C1398 N1395 1.350 . S
C1398 C1397 1.434 1_545 S
C1399 C1400 1.369 . S
C1399 C1401 1.419 . S
C1399 H1403 0.930 . S
C1400 C1399 1.369 . S
C1400 C1409 1.429 . S
C1401 C1399 1.419 . S
C1401 C1402 1.363 . S
C1401 H1404 0.929 . S
C1402 C1401 1.363 . S
C1402 C1408 1.428 . S
H1403 C1399 0.930 . S
H1404 C1401 0.929 . S
S1405 N1406 1.613 . S
S1405 N1407 1.610 . S
N1406 S1405 1.613 . S
N1406 C1409 1.350 . S
N1407 S1405 1.610 . S
N1407 C1408 1.351 . S
C1408 C1402 1.428 . S
C1408 N1407 1.351 . S
C1408 C1409 1.434 . S
C1409 C1400 1.429 . S
C1409 N1406 1.350 . S
C1409 C1408 1.434 . S
C1410 C1411 1.369 . S
C1410 C1412 1.419 1_545 S
C1410 H1414 0.930 . S
C1411 C1410 1.369 . S
C1411 C1420 1.429 . S
C1412 C1410 1.419 1_565 S
C1412 C1413 1.363 . S
C1412 H1415 0.929 . S
C1413 C1412 1.363 . S
C1413 C1419 1.428 . S
H1414 C1410 0.930 . S
H1415 C1412 0.929 . S
S1416 N1417 1.613 . S
S1416 N1418 1.610 1_545 S
N1417 S1416 1.613 . S
N1417 C1420 1.350 . S
N1418 S1416 1.610 1_565 S
N1418 C1419 1.351 . S
C1419 C1413 1.428 . S
C1419 N1418 1.351 . S
C1419 C1420 1.434 1_565 S
C1420 C1411 1.429 . S
C1420 N1417 1.350 . S
C1420 C1419 1.434 1_545 S
C1421 C1422 1.369 1_554 S
C1421 C1423 1.419 . S
C1421 H1425 0.930 . S
C1422 C1421 1.369 1_556 S
C1422 C1431 1.429 . S
C1423 C1421 1.419 . S
C1423 C1424 1.363 . S
C1423 H1426 0.929 . S
C1424 C1423 1.363 . S
C1424 C1430 1.428 1_554 S
H1425 C1421 0.930 . S
H1426 C1423 0.929 . S
S1427 N1428 1.613 . S
S1427 N1429 1.610 . S
N1428 S1427 1.613 . S
N1428 C1431 1.350 . S
N1429 S1427 1.610 . S
N1429 C1430 1.351 . S
C1430 C1424 1.428 1_556 S
C1430 N1429 1.351 . S
C1430 C1431 1.434 . S
C1431 C1422 1.429 . S
C1431 N1428 1.350 . S
C1431 C1430 1.434 . S
C1432 C1433 1.369 . S
C1432 C1434 1.419 . S
C1432 H1436 0.930 . S
C1433 C1432 1.369 . S
C1433 C1442 1.429 . S
C1434 C1432 1.419 . S
C1434 C1435 1.363 . S
C1434 H1437 0.929 . S
C1435 C1434 1.363 . S
C1435 C1441 1.428 . S
H1436 C1432 0.930 . S
H1437 C1434 0.929 . S
S1438 N1439 1.613 . S
S1438 N1440 1.610 . S
N1439 S1438 1.613 . S
N1439 C1442 1.350 . S
N1440 S1438 1.610 . S
N1440 C1441 1.351 . S
C1441 C1435 1.428 . S
C1441 N1440 1.351 . S
C1441 C1442 1.434 . S
C1442 C1433 1.429 . S
C1442 N1439 1.350 . S
C1442 C1441 1.434 . S
C1443 C1444 1.369 . S
C1443 C1445 1.419 . S
C1443 H1447 0.930 . S
C1444 C1443 1.369 . S
C1444 C1453 1.429 1_556 S
C1445 C1443 1.419 . S
C1445 C1446 1.363 1_556 S
C1445 H1448 0.929 . S
C1446 C1445 1.363 1_554 S
C1446 C1452 1.428 . S
H1447 C1443 0.930 . S
H1448 C1445 0.929 . S
S1449 N1450 1.613 . S
S1449 N1451 1.610 . S
N1450 S1449 1.613 . S
N1450 C1453 1.350 . S
N1451 S1449 1.610 . S
N1451 C1452 1.351 . S
C1452 C1446 1.428 . S
C1452 N1451 1.351 . S
C1452 C1453 1.434 . S
C1453 C1444 1.429 1_554 S
C1453 N1450 1.350 . S
C1453 C1452 1.434 . S
C1454 C1455 1.369 . S
C1454 C1456 1.419 . S
C1454 H1458 0.930 . S
C1455 C1454 1.369 . S
C1455 C1464 1.429 . S
C1456 C1454 1.419 . S
C1456 C1457 1.363 . S
C1456 H1459 0.929 . S
C1457 C1456 1.363 . S
C1457 C1463 1.428 . S
H1458 C1454 0.930 . S
H1459 C1456 0.929 . S
S1460 N1461 1.613 . S
S1460 N1462 1.610 . S
N1461 S1460 1.613 . S
N1461 C1464 1.350 . S
N1462 S1460 1.610 . S
N1462 C1463 1.351 . S
C1463 C1457 1.428 . S
C1463 N1462 1.351 . S
C1463 C1464 1.434 . S
C1464 C1455 1.429 . S
C1464 N1461 1.350 . S
C1464 C1463 1.434 . S
C1465 C1466 1.369 . S
C1465 C1467 1.419 . S
C1465 H1469 0.930 . S
C1466 C1465 1.369 . S
C1466 C1475 1.429 . S
C1467 C1465 1.419 . S
C1467 C1468 1.363 . S
C1467 H1470 0.929 . S
C1468 C1467 1.363 . S
C1468 C1474 1.428 . S
H1469 C1465 0.930 . S
H1470 C1467 0.929 . S
S1471 N1472 1.613 . S
S1471 N1473 1.610 . S
N1472 S1471 1.613 . S
N1472 C1475 1.350 . S
N1473 S1471 1.610 . S
N1473 C1474 1.351 . S
C1474 C1468 1.428 . S
C1474 N1473 1.351 . S
C1474 C1475 1.434 . S
C1475 C1466 1.429 . S
C1475 N1472 1.350 . S
C1475 C1474 1.434 . S
C1476 C1477 1.369 . S
C1476 C1478 1.419 . S
C1476 H1480 0.930 . S
C1477 C1476 1.369 . S
C1477 C1486 1.429 . S
C1478 C1476 1.419 . S
C1478 C1479 1.363 . S
C1478 H1481 0.929 . S
C1479 C1478 1.363 . S
C1479 C1485 1.428 . S
H1480 C1476 0.930 . S
H1481 C1478 0.929 . S
S1482 N1483 1.613 . S
S1482 N1484 1.610 . S
N1483 S1482 1.613 . S
N1483 C1486 1.350 . S
N1484 S1482 1.610 . S
N1484 C1485 1.351 . S
C1485 C1479 1.428 . S
C1485 N1484 1.351 . S
C1485 C1486 1.434 . S
C1486 C1477 1.429 . S
C1486 N1483 1.350 . S
C1486 C1485 1.434 . S
C1487 C1488 1.369 . S
C1487 C1489 1.419 1_556 S
C1487 H1491 0.930 . S
C1488 C1487 1.369 . S
C1488 C1497 1.429 . S
C1489 C1487 1.419 1_554 S
C1489 C1490 1.363 . S
C1489 H1492 0.929 . S
C1490 C1489 1.363 . S
C1490 C1496 1.428 . S
H1491 C1487 0.930 . S
H1492 C1489 0.929 . S
S1493 N1494 1.613 . S
S1493 N1495 1.610 1_556 S
N1494 S1493 1.613 . S
N1494 C1497 1.350 . S
N1495 S1493 1.610 1_554 S
N1495 C1496 1.351 . S
C1496 C1490 1.428 . S
C1496 N1495 1.351 . S
C1496 C1497 1.434 1_554 S
C1497 C1488 1.429 . S
C1497 N1494 1.350 . S
C1497 C1496 1.434 1_556 S
C1498 C1499 1.369 . S
C1498 C1500 1.419 . S
C1498 H1502 0.930 . S
C1499 C1498 1.369 . S
C1499 C1508 1.429 . S
C1500 C1498 1.419 . S
C1500 C1501 1.363 . S
C1500 H1503 0.929 . S
C1501 C1500 1.363 . S
C1501 C1507 1.428 . S
H1502 C1498 0.930 . S
H1503 C1500 0.929 . S
S1504 N1505 1.613 . S
S1504 N1506 1.610 . S
N1505 S1504 1.613 . S
N1505 C1508 1.350 . S
N1506 S1504 1.610 . S
N1506 C1507 1.351 . S
C1507 C1501 1.428 . S
C1507 N1506 1.351 . S
C1507 C1508 1.434 . S
C1508 C1499 1.429 . S
C1508 N1505 1.350 . S
C1508 C1507 1.434 . S
C1509 C1510 1.369 . S
C1509 C1511 1.419 . S
C1509 H1513 0.930 . S
C1510 C1509 1.369 . S
C1510 C1519 1.429 . S
C1511 C1509 1.419 . S
C1511 C1512 1.363 . S
C1511 H1514 0.929 . S
C1512 C1511 1.363 . S
C1512 C1518 1.428 . S
H1513 C1509 0.930 . S
H1514 C1511 0.929 . S
S1515 N1516 1.613 . S
S1515 N1517 1.610 . S
N1516 S1515 1.613 . S
N1516 C1519 1.350 . S
N1517 S1515 1.610 . S
N1517 C1518 1.351 . S
C1518 C1512 1.428 . S
C1518 N1517 1.351 . S
C1518 C1519 1.434 . S
C1519 C1510 1.429 . S
C1519 N1516 1.350 . S
C1519 C1518 1.434 . S
C1520 C1521 1.369 . S
C1520 C1522 1.419 . S
C1520 H1524 0.930 . S
C1521 C1520 1.369 . S
C1521 C1530 1.429 . S
C1522 C1520 1.419 . S
C1522 C1523 1.363 . S
C1522 H1525 0.929 . S
C1523 C1522 1.363 . S
C1523 C1529 1.428 . S
H1524 C1520 0.930 . S
H1525 C1522 0.929 . S
S1526 N1527 1.613 . S
S1526 N1528 1.610 . S
N1527 S1526 1.613 . S
N1527 C1530 1.350 . S
N1528 S1526 1.610 . S
N1528 C1529 1.351 . S
C1529 C1523 1.428 . S
C1529 N1528 1.351 . S
C1529 C1530 1.434 . S
C1530 C1521 1.429 . S
C1530 N1527 1.350 . S
C1530 C1529 1.434 . S
C1531 C1532 1.369 . S
C1531 C1533 1.419 . S
C1531 H1535 0.930 . S
C1532 C1531 1.369 . S
C1532 C1541 1.429 . S
C1533 C1531 1.419 . S
C1533 C1534 1.363 . S
C1533 H1536 0.929 . S
C1534 C1533 1.363 . S
C1534 C1540 1.428 . S
H1535 C1531 0.930 . S
H1536 C1533 0.929 . S
S1537 N1538 1.613 . S
S1537 N1539 1.610 . S
N1538 S1537 1.613 . S
N1538 C1541 1.350 . S
N1539 S1537 1.610 . S
N1539 C1540 1.351 . S
C1540 C1534 1.428 . S
C1540 N1539 1.351 . S
C1540 C1541 1.434 . S
C1541 C1532 1.429 . S
C1541 N1538 1.350 . S
C1541 C1540 1.434 . S
C1542 C1543 1.369 . S
C1542 C1544 1.419 . S
C1542 H1546 0.930 . S
C1543 C1542 1.369 . S
C1543 C1552 1.429 . S
C1544 C1542 1.419 . S
C1544 C1545 1.363 . S
C1544 H1547 0.929 . S
C1545 C1544 1.363 . S
C1545 C1551 1.428 . S
H1546 C1542 0.930 . S
H1547 C1544 0.929 . S
S1548 N1549 1.613 . S
S1548 N1550 1.610 . S
N1549 S1548 1.613 . S
N1549 C1552 1.350 . S
N1550 S1548 1.610 . S
N1550 C1551 1.351 . S
C1551 C1545 1.428 . S
C1551 N1550 1.351 . S
C1551 C1552 1.434 . S
C1552 C1543 1.429 . S
C1552 N1549 1.350 . S
C1552 C1551 1.434 . S
C1553 C1554 1.369 . S
C1553 C1555 1.419 . S
C1553 H1557 0.930 . S
C1554 C1553 1.369 . S
C1554 C1563 1.429 . S
C1555 C1553 1.419 . S
C1555 C1556 1.363 . S
C1555 H1558 0.929 . S
C1556 C1555 1.363 . S
C1556 C1562 1.428 . S
H1557 C1553 0.930 . S
H1558 C1555 0.929 . S
S1559 N1560 1.613 . S
S1559 N1561 1.610 . S
N1560 S1559 1.613 . S
N1560 C1563 1.350 . S
N1561 S1559 1.610 . S
N1561 C1562 1.351 . S
C1562 C1556 1.428 . S
C1562 N1561 1.351 . S
C1562 C1563 1.434 . S
C1563 C1554 1.429 . S
C1563 N1560 1.350 . S
C1563 C1562 1.434 . S
C1564 C1565 1.369 . S
C1564 C1566 1.419 . S
C1564 H1568 0.930 . S
C1565 C1564 1.369 . S
C1565 C1574 1.429 . S
C1566 C1564 1.419 . S
C1566 C1567 1.363 . S
C1566 H1569 0.929 . S
C1567 C1566 1.363 . S
C1567 C1573 1.428 . S
H1568 C1564 0.930 . S
H1569 C1566 0.929 . S
S1570 N1571 1.613 . S
S1570 N1572 1.610 . S
N1571 S1570 1.613 . S
N1571 C1574 1.350 . S
N1572 S1570 1.610 . S
N1572 C1573 1.351 . S
C1573 C1567 1.428 . S
C1573 N1572 1.351 . S
C1573 C1574 1.434 . S
C1574 C1565 1.429 . S
C1574 N1571 1.350 . S
C1574 C1573 1.434 . S
C1575 C1576 1.369 . S
C1575 C1577 1.419 . S
C1575 H1579 0.930 . S
C1576 C1575 1.369 . S
C1576 C1585 1.429 . S
C1577 C1575 1.419 . S
C1577 C1578 1.363 . S
C1577 H1580 0.929 . S
C1578 C1577 1.363 . S
C1578 C1584 1.428 . S
H1579 C1575 0.930 . S
H1580 C1577 0.929 . S
S1581 N1582 1.613 . S
S1581 N1583 1.610 . S
N1582 S1581 1.613 . S
N1582 C1585 1.350 . S
N1583 S1581 1.610 . S
N1583 C1584 1.351 . S
C1584 C1578 1.428 . S
C1584 N1583 1.351 . S
C1584 C1585 1.434 . S
C1585 C1576 1.429 . S
C1585 N1582 1.350 . S
C1585 C1584 1.434 . S
C1586 C1587 1.369 . S
C1586 C1588 1.419 . S
C1586 H1590 0.930 . S
C1587 C1586 1.369 . S
C1587 C1596 1.429 . S
C1588 C1586 1.419 . S
C1588 C1589 1.363 . S
C1588 H1591 0.929 . S
C1589 C1588 1.363 . S
C1589 C1595 1.428 . S
H1590 C1586 0.930 . S
H1591 C1588 0.929 . S
S1592 N1593 1.613 . S
S1592 N1594 1.610 . S
N1593 S1592 1.613 . S
N1593 C1596 1.350 . S
N1594 S1592 1.610 . S
N1594 C1595 1.351 . S
C1595 C1589 1.428 . S
C1595 N1594 1.351 . S
C1595 C1596 1.434 . S
C1596 C1587 1.429 . S
C1596 N1593 1.350 . S
C1596 C1595 1.434 . S
C1597 C1598 1.369 . S
C1597 C1599 1.419 . S
C1597 H1601 0.930 . S
C1598 C1597 1.369 . S
C1598 C1607 1.429 . S
C1599 C1597 1.419 . S
C1599 C1600 1.363 . S
C1599 H1602 0.929 . S
C1600 C1599 1.363 . S
C1600 C1606 1.428 . S
H1601 C1597 0.930 . S
H1602 C1599 0.929 . S
S1603 N1604 1.613 . S
S1603 N1605 1.610 . S
N1604 S1603 1.613 . S
N1604 C1607 1.350 . S
N1605 S1603 1.610 . S
N1605 C1606 1.351 . S
C1606 C1600 1.428 . S
C1606 N1605 1.351 . S
C1606 C1607 1.434 . S
C1607 C1598 1.429 . S
C1607 N1604 1.350 . S
C1607 C1606 1.434 . S
C1608 C1609 1.369 . S
C1608 C1610 1.419 . S
C1608 H1612 0.930 . S
C1609 C1608 1.369 . S
C1609 C1618 1.429 . S
C1610 C1608 1.419 . S
C1610 C1611 1.363 . S
C1610 H1613 0.929 . S
C1611 C1610 1.363 . S
C1611 C1617 1.428 . S
H1612 C1608 0.930 . S
H1613 C1610 0.929 . S
S1614 N1615 1.613 . S
S1614 N1616 1.610 . S
N1615 S1614 1.613 . S
N1615 C1618 1.350 . S
N1616 S1614 1.610 . S
N1616 C1617 1.351 . S
C1617 C1611 1.428 . S
C1617 N1616 1.351 . S
C1617 C1618 1.434 . S
C1618 C1609 1.429 . S
C1618 N1615 1.350 . S
C1618 C1617 1.434 . S
C1619 C1620 1.369 . S
C1619 C1621 1.419 . S
C1619 H1623 0.930 . S
C1620 C1619 1.369 . S
C1620 C1629 1.429 . S
C1621 C1619 1.419 . S
C1621 C1622 1.363 . S
C1621 H1624 0.929 . S
C1622 C1621 1.363 . S
C1622 C1628 1.428 . S
H1623 C1619 0.930 . S
H1624 C1621 0.929 . S
S1625 N1626 1.613 . S
S1625 N1627 1.610 . S
N1626 S1625 1.613 . S
N1626 C1629 1.350 . S
N1627 S1625 1.610 . S
N1627 C1628 1.351 . S
C1628 C1622 1.428 . S
C1628 N1627 1.351 . S
C1628 C1629 1.434 . S
C1629 C1620 1.429 . S
C1629 N1626 1.350 . S
C1629 C1628 1.434 . S
C1630 C1631 1.369 . S
C1630 C1632 1.419 . S
C1630 H1634 0.930 . S
C1631 C1630 1.369 . S
C1631 C1640 1.429 . S
C1632 C1630 1.419 . S
C1632 C1633 1.363 . S
C1632 H1635 0.929 . S
C1633 C1632 1.363 . S
C1633 C1639 1.428 . S
H1634 C1630 0.930 . S
H1635 C1632 0.929 . S
S1636 N1637 1.613 . S
S1636 N1638 1.610 . S
N1637 S1636 1.613 . S
N1637 C1640 1.350 . S
N1638 S1636 1.610 . S
N1638 C1639 1.351 . S
C1639 C1633 1.428 . S
C1639 N1638 1.351 . S
C1639 C1640 1.434 . S
C1640 C1631 1.429 . S
C1640 N1637 1.350 . S
C1640 C1639 1.434 . S
C1641 C1642 1.369 . S
C1641 C1643 1.419 . S
C1641 H1645 0.930 . S
C1642 C1641 1.369 . S
C1642 C1651 1.429 . S
C1643 C1641 1.419 . S
C1643 C1644 1.363 . S
C1643 H1646 0.929 . S
C1644 C1643 1.363 . S
C1644 C1650 1.428 . S
H1645 C1641 0.930 . S
H1646 C1643 0.929 . S
S1647 N1648 1.613 . S
S1647 N1649 1.610 . S
N1648 S1647 1.613 . S
N1648 C1651 1.350 . S
N1649 S1647 1.610 . S
N1649 C1650 1.351 . S
C1650 C1644 1.428 . S
C1650 N1649 1.351 . S
C1650 C1651 1.434 . S
C1651 C1642 1.429 . S
C1651 N1648 1.350 . S
C1651 C1650 1.434 . S
C1652 C1653 1.369 . S
C1652 C1654 1.419 . S
C1652 H1656 0.930 . S
C1653 C1652 1.369 . S
C1653 C1662 1.429 . S
C1654 C1652 1.419 . S
C1654 C1655 1.363 . S
C1654 H1657 0.929 . S
C1655 C1654 1.363 . S
C1655 C1661 1.428 . S
H1656 C1652 0.930 . S
H1657 C1654 0.929 . S
S1658 N1659 1.613 . S
S1658 N1660 1.610 . S
N1659 S1658 1.613 . S
N1659 C1662 1.350 . S
N1660 S1658 1.610 . S
N1660 C1661 1.351 . S
C1661 C1655 1.428 . S
C1661 N1660 1.351 . S
C1661 C1662 1.434 . S
C1662 C1653 1.429 . S
C1662 N1659 1.350 . S
C1662 C1661 1.434 . S
C1663 C1664 1.369 . S
C1663 C1665 1.419 . S
C1663 H1667 0.930 . S
C1664 C1663 1.369 . S
C1664 C1673 1.429 . S
C1665 C1663 1.419 . S
C1665 C1666 1.363 . S
C1665 H1668 0.929 . S
C1666 C1665 1.363 . S
C1666 C1672 1.428 . S
H1667 C1663 0.930 . S
H1668 C1665 0.929 . S
S1669 N1670 1.613 . S
S1669 N1671 1.610 . S
N1670 S1669 1.613 . S
N1670 C1673 1.350 . S
N1671 S1669 1.610 . S
N1671 C1672 1.351 . S
C1672 C1666 1.428 . S
C1672 N1671 1.351 . S
C1672 C1673 1.434 . S
C1673 C1664 1.429 . S
C1673 N1670 1.350 . S
C1673 C1672 1.434 . S
C1674 C1675 1.369 . S
C1674 C1676 1.419 . S
C1674 H1678 0.930 . S
C1675 C1674 1.369 . S
C1675 C1684 1.429 . S
C1676 C1674 1.419 . S
C1676 C1677 1.363 . S
C1676 H1679 0.929 . S
C1677 C1676 1.363 . S
C1677 C1683 1.428 . S
H1678 C1674 0.930 . S
H1679 C1676 0.929 . S
S1680 N1681 1.613 . S
S1680 N1682 1.610 . S
N1681 S1680 1.613 . S
N1681 C1684 1.350 . S
N1682 S1680 1.610 . S
N1682 C1683 1.351 . S
C1683 C1677 1.428 . S
C1683 N1682 1.351 . S
C1683 C1684 1.434 . S
C1684 C1675 1.429 . S
C1684 N1681 1.350 . S
C1684 C1683 1.434 . S
C1685 C1686 1.369 . S
C1685 C1687 1.419 . S
C1685 H1689 0.930 . S
C1686 C1685 1.369 . S
C1686 C1695 1.429 . S
C1687 C1685 1.419 . S
C1687 C1688 1.363 . S
C1687 H1690 0.929 . S
C1688 C1687 1.363 . S
C1688 C1694 1.428 . S
H1689 C1685 0.930 . S
H1690 C1687 0.929 . S
S1691 N1692 1.613 . S
S1691 N1693 1.610 . S
N1692 S1691 1.613 . S
N1692 C1695 1.350 . S
N1693 S1691 1.610 . S
N1693 C1694 1.351 . S
C1694 C1688 1.428 . S
C1694 N1693 1.351 . S
C1694 C1695 1.434 . S
C1695 C1686 1.429 . S
C1695 N1692 1.350 . S
C1695 C1694 1.434 . S
C641 C12 1.376 . S
C643 C62 1.376 . S
C652 C2 1.374 . S
C654 C32 1.379 . S
C663 C52 1.372 . S
C665 C22 1.373 . S
C674 C42 1.367 . S
C676 C72 1.372 . S
C685 C102 1.368 . S
C687 C92 1.372 . S
C696 C112 1.377 . S
C698 C122 1.376 . S
C707 C142 1.367 . S
C709 C132 1.373 . S
C718 C82 1.375 . S
C720 C152 1.375 . S
C729 C169 1.371 . S
C731 C224 1.371 . S
C740 C189 1.380 . S
C742 C164 1.374 . S
C751 C209 1.381 . S
C753 C184 1.377 . S
C762 C229 1.371 . S
C764 C204 1.369 . S
C773 C249 1.370 . S
C775 C264 1.369 . S
C784 C269 1.372 . S
C786 C284 1.368 . S
C795 C304 1.367 . S
C797 C289 1.373 . S
C806 C244 1.367 . S
C808 C309 1.373 . S
C817 C332 1.371 . S
C819 C382 1.369 . S
C828 C322 1.374 . S
C830 C352 1.379 . S
C839 C342 1.369 . S
C841 C372 1.372 . S
C850 C392 1.374 . S
C852 C362 1.370 . S
C861 C412 1.380 . S
C863 C422 1.377 . S
C872 C442 1.375 . S
C874 C432 1.380 . S
C883 C452 1.370 . S
C885 C462 1.370 . S
C894 C402 1.372 . S
C896 C472 1.378 . S
C905 C544 1.378 . S
C907 C489 1.380 . S
C916 C484 1.369 . S
C918 C509 1.376 . S
C927 C529 1.372 . S
C929 C504 1.368 . S
C938 C524 1.371 . S
C940 C549 1.378 . S
C949 C584 1.375 . S
C951 C569 1.374 . S
C960 C604 1.373 . S
C962 C589 1.379 . S
C971 C624 1.368 . S
C973 C609 1.372 . S
C982 C629 1.378 . S
C984 C564 1.377 . S
C993 C552 1.460 . S
C995 C18 1.488 . S
C1004 C38 1.490 . S
C1006 C172 1.467 1_455 S
C1015 C58 1.488 . S
C1017 C512 1.461 . S
C1026 C78 1.490 . S
C1028 C212 1.467 . S
C1037 C98 1.491 . S
C1039 C592 1.466 . S
C1048 C292 1.461 . S
C1050 C118 1.489 . S
C1059 C632 1.466 . S
C1061 C138 1.490 . S
C1070 C158 1.488 . S
C1072 C252 1.462 1_455 S
C1081 C179 1.487 . S
C1083 C389 1.461 . S
C1092 C9 1.462 1_655 S
C1094 C199 1.489 . S
C1103 C349 1.467 . S
C1105 C219 1.490 . S
C1114 C49 1.461 . S
C1116 C239 1.489 . S
C1125 C429 1.463 . S
C1127 C259 1.487 . S
C1136 C129 1.461 . S
C1138 C279 1.487 . S
C1147 C299 1.489 . S
C1149 C469 1.466 . S
C1158 C319 1.486 . S
C1160 C89 1.461 1_655 S
C1169 C338 1.490 . S
C1171 C232 1.464 . S
C1180 C358 1.487 . S
C1182 C492 1.461 . S
C1191 C378 1.487 . S
C1193 C192 1.461 . S
C1202 C398 1.491 . S
C1204 C532 1.465 1_655 S
C1213 C418 1.488 . S
C1215 C272 1.462 . S
C1224 C438 1.487 . S
C1226 C612 1.461 1_655 S
C1235 C312 1.464 . S
C1237 C458 1.490 . S
C1246 C478 1.490 . S
C1248 C572 1.465 . S
C1257 C69 1.466 . S
C1259 C499 1.490 . S
C1268 C329 1.467 . S
C1270 C519 1.489 . S
C1279 C29 1.466 . S
C1281 C539 1.489 . S
C1290 C369 1.463 1_455 S
C1292 C559 1.490 . S
C1301 C109 1.467 . S
C1303 C579 1.490 . S
C1312 C599 1.491 . S
C1314 C449 1.466 1_455 S
C1323 C619 1.487 . S
C1325 C149 1.461 . S
C1334 C409 1.462 . S
C1336 C639 1.487 . S
C1345 C19 0.998 . S
C1347 C99 1.006 . S
C1356 C39 1.007 . S
C1358 C119 0.998 . S
C1367 C59 1.004 . S
C1369 C139 1.003 . S
C1378 C159 1.008 . S
C1380 C79 0.999 . S
C1389 C258 1.005 . S
C1391 C178 0.998 . S
C1400 C278 0.998 . S
C1402 C198 1.007 . S
C1411 C218 1.007 . S
C1413 C298 0.998 . S
C1422 C238 0.997 . S
C1424 C318 1.006 . S
C1433 C339 1.004 . S
C1435 C419 1.003 . S
C1444 C439 1.007 . S
C1446 C359 1.000 . S
C1455 C459 0.998 . S
C1457 C379 1.004 . S
C1466 C479 1.006 . S
C1468 C399 0.998 . S
C1477 C578 0.999 . S
C1479 C498 1.002 . S
C1488 C518 1.005 . S
C1490 C598 1.003 . S
C1499 C618 1.001 . S
C1501 C538 1.006 . S
C1510 C558 1.003 . S
C1512 C638 0.999 . S
C1521 C144 1.647 . S
C1523 C4 1.644 . S
C1532 C24 1.646 . S
C1534 C84 1.646 . S
C1543 C44 1.637 . S
C1545 C104 1.640 . S
C1554 C124 1.641 . S
C1556 C64 1.643 . S
C1565 C162 1.641 . S
C1567 C302 1.639 . S
C1576 C242 1.637 . S
C1578 C182 1.637 . S
C1587 C262 1.637 . S
C1589 C202 1.641 . S
C1598 C222 1.637 . S
C1600 C282 1.640 . S
C1609 C324 1.646 . S
C1611 C464 1.643 . S
C1620 C404 1.642 . S
C1622 C344 1.640 . S
C1631 C424 1.645 . S
C1633 C364 1.646 . S
C1642 C444 1.637 . S
C1644 C384 1.637 . S
C1653 C482 1.645 . S
C1655 C622 1.642 . S
C1664 C562 1.647 . S
C1666 C502 1.644 . S
C1675 C522 1.646 . S
C1677 C582 1.643 . S
C1686 C602 1.636 . S
C1688 C542 1.638 . S
