# Generated by pormake.
# Topology fob, (5)-cn, num edge types: 1
# Building blocks:
#     Node 0, Type 0, BuildingBlock: BEQFEK_clean_sbu_0, # of connection points: 5
#     Node 1, Type 0, BuildingBlock: BEQFEK_clean_sbu_0, # of connection points: 5
#     Node 2, Type 0, BuildingBlock: BEQFEK_clean_sbu_0, # of connection points: 5
#     Node 3, Type 0, BuildingBlock: BEQFEK_clean_sbu_0, # of connection points: 5
#     Node 4, Type 0, BuildingBlock: BEQFEK_clean_sbu_0, # of connection points: 5
#     Node 5, Type 0, BuildingBlock: BEQFEK_clean_sbu_0, # of connection points: 5
#     Node 6, Type 0, BuildingBlock: BEQFEK_clean_sbu_0, # of connection points: 5
#     Node 7, Type 0, BuildingBlock: BEQFEK_clean_sbu_0, # of connection points: 5
#     Node 8, Type 0, BuildingBlock: BEQFEK_clean_sbu_0, # of connection points: 5
#     Node 9, Type 0, BuildingBlock: BEQFEK_clean_sbu_0, # of connection points: 5
#     Node 10, Type 0, BuildingBlock: BEQFEK_clean_sbu_0, # of connection points: 5
#     Node 11, Type 0, BuildingBlock: BEQFEK_clean_sbu_0, # of connection points: 5
#     Node 12, Type 0, BuildingBlock: BEQFEK_clean_sbu_0, # of connection points: 5
#     Node 13, Type 0, BuildingBlock: BEQFEK_clean_sbu_0, # of connection points: 5
#     Node 14, Type 0, BuildingBlock: BEQFEK_clean_sbu_0, # of connection points: 5
#     Node 15, Type 0, BuildingBlock: BEQFEK_clean_sbu_0, # of connection points: 5
#     Edge 16, Type (0, 0), BuildingBlock: KIFKEQ_clean_linker_1, # of connection points: 2
#     Edge 17, Type (0, 0), BuildingBlock: KIFKEQ_clean_linker_1, # of connection points: 2
#     Edge 18, Type (0, 0), BuildingBlock: KIFKEQ_clean_linker_1, # of connection points: 2
#     Edge 19, Type (0, 0), BuildingBlock: KIFKEQ_clean_linker_1, # of connection points: 2
#     Edge 20, Type (0, 0), BuildingBlock: KIFKEQ_clean_linker_1, # of connection points: 2
#     Edge 21, Type (0, 0), BuildingBlock: KIFKEQ_clean_linker_1, # of connection points: 2
#     Edge 22, Type (0, 0), BuildingBlock: KIFKEQ_clean_linker_1, # of connection points: 2
#     Edge 23, Type (0, 0), BuildingBlock: KIFKEQ_clean_linker_1, # of connection points: 2
#     Edge 24, Type (0, 0), BuildingBlock: KIFKEQ_clean_linker_1, # of connection points: 2
#     Edge 25, Type (0, 0), BuildingBlock: KIFKEQ_clean_linker_1, # of connection points: 2
#     Edge 26, Type (0, 0), BuildingBlock: KIFKEQ_clean_linker_1, # of connection points: 2
#     Edge 27, Type (0, 0), BuildingBlock: KIFKEQ_clean_linker_1, # of connection points: 2
#     Edge 28, Type (0, 0), BuildingBlock: KIFKEQ_clean_linker_1, # of connection points: 2
#     Edge 29, Type (0, 0), BuildingBlock: KIFKEQ_clean_linker_1, # of connection points: 2
#     Edge 30, Type (0, 0), BuildingBlock: KIFKEQ_clean_linker_1, # of connection points: 2
#     Edge 31, Type (0, 0), BuildingBlock: KIFKEQ_clean_linker_1, # of connection points: 2
#     Edge 32, Type (0, 0), BuildingBlock: KIFKEQ_clean_linker_1, # of connection points: 2
#     Edge 33, Type (0, 0), BuildingBlock: KIFKEQ_clean_linker_1, # of connection points: 2
#     Edge 34, Type (0, 0), BuildingBlock: KIFKEQ_clean_linker_1, # of connection points: 2
#     Edge 35, Type (0, 0), BuildingBlock: KIFKEQ_clean_linker_1, # of connection points: 2
#     Edge 36, Type (0, 0), BuildingBlock: KIFKEQ_clean_linker_1, # of connection points: 2
#     Edge 37, Type (0, 0), BuildingBlock: KIFKEQ_clean_linker_1, # of connection points: 2
#     Edge 38, Type (0, 0), BuildingBlock: KIFKEQ_clean_linker_1, # of connection points: 2
#     Edge 39, Type (0, 0), BuildingBlock: KIFKEQ_clean_linker_1, # of connection points: 2
#     Edge 40, Type (0, 0), BuildingBlock: KIFKEQ_clean_linker_1, # of connection points: 2
#     Edge 41, Type (0, 0), BuildingBlock: KIFKEQ_clean_linker_1, # of connection points: 2
#     Edge 42, Type (0, 0), BuildingBlock: KIFKEQ_clean_linker_1, # of connection points: 2
#     Edge 43, Type (0, 0), BuildingBlock: KIFKEQ_clean_linker_1, # of connection points: 2
#     Edge 44, Type (0, 0), BuildingBlock: KIFKEQ_clean_linker_1, # of connection points: 2
#     Edge 45, Type (0, 0), BuildingBlock: KIFKEQ_clean_linker_1, # of connection points: 2
#     Edge 46, Type (0, 0), BuildingBlock: KIFKEQ_clean_linker_1, # of connection points: 2
#     Edge 47, Type (0, 0), BuildingBlock: KIFKEQ_clean_linker_1, # of connection points: 2
#     Edge 48, Type (0, 0), BuildingBlock: KIFKEQ_clean_linker_1, # of connection points: 2
#     Edge 49, Type (0, 0), BuildingBlock: KIFKEQ_clean_linker_1, # of connection points: 2
#     Edge 50, Type (0, 0), BuildingBlock: KIFKEQ_clean_linker_1, # of connection points: 2
#     Edge 51, Type (0, 0), BuildingBlock: KIFKEQ_clean_linker_1, # of connection points: 2
#     Edge 52, Type (0, 0), BuildingBlock: KIFKEQ_clean_linker_1, # of connection points: 2
#     Edge 53, Type (0, 0), BuildingBlock: KIFKEQ_clean_linker_1, # of connection points: 2
#     Edge 54, Type (0, 0), BuildingBlock: KIFKEQ_clean_linker_1, # of connection points: 2
#     Edge 55, Type (0, 0), BuildingBlock: KIFKEQ_clean_linker_1, # of connection points: 2
# Relax obj value: 0.090
# Max RMSD: 0.162
# Mean RMSD: 0.162
data_MOF--net-fob--node1-BEQFEK_clean_sbu_0--edge1-KIFKEQ_clean_linker_1
_symmetry_space_group_name_H-M    P1
_symmetry_Int_Tables_number       1
_symmetry_cell_setting            triclinic
loop_
_symmetry_equiv_pos_as_xyz
'x, y, z'
_cell_length_a     20.276491
_cell_length_b     75.393153
_cell_length_c     55.953183
_cell_angle_alpha  90.026457
_cell_angle_beta   89.918994
_cell_angle_gamma 89.809977
loop_
_atom_site_label
_atom_site_type_symbol
_atom_site_fract_x
_atom_site_fract_y
_atom_site_fract_z
_atom_type_partial_charge
Co0 Co 0.11477 0.09935 0.46634 0.0
Co1 Co 0.11396 0.14129 0.46051 0.0
C2 C 0.22299 0.11851 0.44077 0.0
O3 O 0.19698 0.10424 0.44859 0.0
O4 O 0.19718 0.13373 0.44466 0.0
C5 C 0.08125 0.06285 0.4613 0.0
O6 O 0.06806 0.06799 0.43939 0.0
C7 C 0.1494 0.17939 0.46541 0.0
C8 C 0.04997 0.1915 0.46468 0.0
C9 C 0.11611 0.19551 0.46745 0.0
N10 N 0.10462 0.16652 0.46187 0.0
N11 N 0.0455 0.17392 0.46108 0.0
C12 C 0.22144 0.17596 0.46896 0.0
H13 H 0.2302 0.16183 0.47359 0.0
H14 H 0.24131 0.18466 0.48322 0.0
H15 H 0.24804 0.17892 0.45209 0.0
C16 C 0.10817 0.10962 0.51684 0.0
N17 N 0.10816 0.11391 0.49354 0.0
N18 N 0.10681 0.1313 0.49137 0.0
C19 C 0.10515 0.13861 0.51334 0.0
C20 C 0.10626 0.1251 0.53009 0.0
C21 C 0.11126 0.091 0.52608 0.0
H22 H 0.06874 0.08342 0.51901 0.0
H23 H 0.15705 0.08452 0.51951 0.0
H24 H 0.11001 0.09056 0.54589 0.0
O25 O 0.04295 0.10402 0.4438 0.0
O26 O 0.04214 0.13327 0.43973 0.0
H27 H 0.06778 0.16497 0.50881 0.0
H28 H 0.1052 0.16111 0.53759 0.0
C29 C 0.10855 0.15811 0.51823 0.0
H30 H 0.15594 0.16332 0.51139 0.0
H31 H 0.00175 0.16686 0.45888 0.0
O32 O 0.10642 0.07392 0.4758 0.0
C33 C 0.01999 0.11804 0.43438 0.0
Co34 Co 0.13818 0.10667 0.77121 0.0
Co35 Co 0.11444 0.14816 0.77368 0.0
C36 C 0.00897 0.12178 0.78666 0.0
O37 O 0.04551 0.10831 0.78236 0.0
O38 O 0.0293 0.1376 0.78338 0.0
C39 C 0.13472 0.06781 0.76398 0.0
O40 O 0.07192 0.06809 0.76979 0.0
C41 C 0.0618 0.18435 0.76339 0.0
C42 C 0.14839 0.20048 0.77336 0.0
C43 C 0.085 0.20168 0.76436 0.0
N44 N 0.10995 0.17343 0.77114 0.0
N45 N 0.16131 0.18321 0.77714 0.0
C46 C -0.00587 0.17838 0.75645 0.0
H47 H 0.98302 0.16525 0.76428 0.0
H48 H 0.99105 0.17721 0.73674 0.0
H49 H 0.95664 0.1882 0.76238 0.0
C50 C 0.16395 0.11583 0.72119 0.0
N51 N 0.15217 0.12071 0.7439 0.0
N52 N 0.14486 0.13804 0.74484 0.0
C53 C 0.15303 0.14474 0.72271 0.0
C54 C 0.16503 0.13087 0.70708 0.0
C55 C 0.16784 0.09698 0.71285 0.0
H56 H 0.21097 0.09044 0.72129 0.0
H57 H 0.1228 0.0898 0.71855 0.0
H58 H 0.17314 0.09608 0.69314 0.0
O59 O 0.19337 0.11438 0.79798 0.0
O60 O 0.17521 0.14336 0.80019 0.0
H61 H 0.16936 0.17247 0.72846 0.0
H62 H 0.15826 0.16644 0.69748 0.0
C63 C 0.14194 0.16373 0.71606 0.0
H64 H 0.08869 0.16683 0.71752 0.0
H65 H 0.20558 0.17805 0.78366 0.0
O66 O 0.16735 0.08215 0.76395 0.0
C67 C 0.20217 0.12929 0.80803 0.0
Co68 Co 0.87612 0.90787 0.51369 0.0
Co69 Co 0.85312 0.86643 0.51677 0.0
C70 C 0.77249 0.89129 0.54587 0.0
O71 O 0.80338 0.90471 0.53752 0.0
O72 O 0.78503 0.87552 0.5388 0.0
C73 C 0.9061 0.94513 0.52026 0.0
O74 O 0.90807 0.94123 0.54313 0.0
C75 C 0.80625 0.82877 0.5141 0.0
C76 C 0.89837 0.81619 0.50126 0.0
C77 C 0.83333 0.81257 0.50695 0.0
N78 N 0.85319 0.8413 0.51219 0.0
N79 N 0.90809 0.8336 0.50474 0.0
C80 C 0.73814 0.83234 0.52325 0.0
H81 H 0.73824 0.84389 0.53548 0.0
H82 H 0.70526 0.83547 0.50798 0.0
H83 H 0.71848 0.82058 0.5328 0.0
C84 C 0.8575 0.89996 0.46248 0.0
N85 N 0.85979 0.89489 0.48552 0.0
N86 N 0.84686 0.87785 0.48693 0.0
C87 C 0.83363 0.87162 0.46492 0.0
C88 C 0.8405 0.88537 0.44865 0.0
C89 C 0.87698 0.91802 0.45395 0.0
H90 H 0.92282 0.92215 0.46315 0.0
H91 H 0.83751 0.92765 0.45861 0.0
H92 H 0.88571 0.91831 0.4344 0.0
O93 O 0.95761 0.89981 0.52892 0.0
O94 O 0.93842 0.87102 0.53226 0.0
H95 H 0.85379 0.844 0.4601 0.0
H96 H 0.78636 0.85222 0.44214 0.0
C97 C 0.81082 0.85314 0.45982 0.0
H98 H 0.77538 0.84892 0.47375 0.0
H99 H 0.95212 0.84034 0.50161 0.0
O100 O 0.89021 0.93318 0.50532 0.0
C101 C 0.97469 0.88444 0.53593 0.0
Co102 Co 0.87181 0.90799 0.20643 0.0
Co103 Co 0.88763 0.86612 0.20309 0.0
C104 C -0.00076 0.8905 0.19155 0.0
O105 O 0.96455 0.90431 0.19601 0.0
O106 O 0.97636 0.87487 0.19436 0.0
C107 C 0.79309 0.93881 0.2117 0.0
O108 O 0.74809 0.92762 0.20423 0.0
C109 C 0.92903 0.82887 0.21255 0.0
C110 C 0.83522 0.81496 0.2055 0.0
C111 C 0.89938 0.81226 0.21312 0.0
N112 N 0.884 0.84081 0.20513 0.0
N113 N 0.82845 0.83233 0.20062 0.0
C114 C -0.00329 0.83363 0.22093 0.0
H115 H -0.00118 0.84786 0.22595 0.0
H116 H 0.01126 0.82526 0.23638 0.0
H117 H 0.03235 0.83125 0.2062 0.0
C118 C 0.83626 0.8985 0.25584 0.0
N119 N 0.85185 0.89387 0.23328 0.0
N120 N 0.85798 0.8765 0.23201 0.0
C121 C 0.84624 0.86956 0.25379 0.0
C122 C 0.83192 0.88325 0.26946 0.0
C123 C 0.83343 0.91722 0.26474 0.0
H124 H 0.87585 0.9248 0.25758 0.0
H125 H 0.83419 0.91785 0.28455 0.0
H126 H 0.78731 0.92354 0.25831 0.0
O127 O 0.81726 0.90157 0.17882 0.0
O128 O 0.83023 0.87241 0.17609 0.0
H129 H 0.82092 0.84243 0.24755 0.0
H130 H 0.83563 0.84763 0.2785 0.0
C131 C 0.85186 0.85029 0.2599 0.0
H132 H 0.90385 0.84598 0.25785 0.0
H133 H 0.7851 0.83852 0.19497 0.0
O134 O 0.85242 0.93343 0.21382 0.0
C135 C 0.80656 0.88692 0.1683 0.0
Co136 Co 0.11441 0.606 0.96875 0.0
Co137 Co 0.12967 0.64767 0.96723 0.0
C138 C 0.20348 0.62509 0.93327 0.0
O139 O 0.17755 0.6111 0.94209 0.0
O140 O 0.19127 0.64048 0.94177 0.0
C141 C 0.067 0.57058 0.9651 0.0
O142 O 0.03058 0.57769 0.94821 0.0
C143 C 0.17102 0.68558 0.96972 0.0
C144 C 0.08345 0.69681 0.98796 0.0
C145 C 0.14493 0.7012 0.97905 0.0
N146 N 0.1268 0.67255 0.97316 0.0
N147 N 0.07438 0.67945 0.98378 0.0
C148 C 0.2386 0.68267 0.95969 0.0
H149 H 0.25377 0.66861 0.96191 0.0
H150 H 0.27482 0.6915 0.96855 0.0
H151 H 0.23804 0.6858 0.94032 0.0
C152 C 0.14544 0.61269 0.01953 0.0
N153 N 0.13787 0.61825 -0.00316 0.0
N154 N 0.14829 0.63543 -0.00416 0.0
C155 C 0.16565 0.64126 0.01765 0.0
C156 C 0.16357 0.62712 0.0335 0.0
C157 C 0.12825 0.59439 0.02781 0.0
H158 H 0.08351 0.58971 0.01837 0.0
H159 H 0.16945 0.58523 0.02338 0.0
H160 H 0.11887 0.59394 0.04732 0.0
O161 O 0.02647 0.61342 0.95817 0.0
O162 O 0.04043 0.64243 0.9555 0.0
H163 H 0.14165 0.6684 0.02478 0.0
H164 H 0.21498 0.66063 0.03981 0.0
C165 C 0.18614 0.6599 0.023 0.0
H166 H 0.2168 0.66506 0.00817 0.0
H167 H 0.03297 0.67214 0.98877 0.0
O168 O 0.10997 0.58008 0.97551 0.0
C169 C 0.00487 0.62874 0.95289 0.0
Co170 Co 0.11745 0.59851 0.27494 0.0
Co171 Co 0.09616 0.64002 0.27987 0.0
C172 C 0.99142 0.61424 0.29392 0.0
O173 O 0.02734 0.60087 0.28857 0.0
O174 O 0.01089 0.63009 0.29031 0.0
C175 C 0.15936 0.56188 0.27967 0.0
O176 O 0.16624 0.56581 0.3024 0.0
C177 C 0.04873 0.6765 0.26952 0.0
C178 C 0.12987 0.69226 0.28495 0.0
C179 C 0.07102 0.6939 0.27251 0.0
N180 N 0.09296 0.66539 0.27948 0.0
N181 N 0.14085 0.67493 0.28888 0.0
C182 C 0.98936 0.67015 0.25623 0.0
H183 H -0.00624 0.65576 0.25228 0.0
H184 H 0.98329 0.67765 0.23931 0.0
H185 H 0.94483 0.67221 0.26745 0.0
C186 C 0.14718 0.60924 0.22556 0.0
N187 N 0.13025 0.61336 0.24816 0.0
N188 N 0.12318 0.63067 0.25004 0.0
C189 C 0.13615 0.6381 0.22863 0.0
C190 C 0.15148 0.62477 0.21254 0.0
C191 C 0.15491 0.59071 0.21638 0.0
H192 H 0.11083 0.58283 0.22132 0.0
H193 H 0.16129 0.59036 0.1967 0.0
H194 H 0.19859 0.58451 0.22494 0.0
O195 O 0.17886 0.60482 0.30074 0.0
O196 O 0.15962 0.63366 0.30494 0.0
H197 H 0.16393 0.66061 0.20705 0.0
H198 H 0.08401 0.66204 0.2208 0.0
C199 C 0.13554 0.65758 0.22352 0.0
H200 H 0.15716 0.66498 0.23869 0.0
H201 H 0.18191 0.66958 0.29751 0.0
O202 O 0.13688 0.57358 0.26544 0.0
C203 C 0.18843 0.61947 0.31144 0.0
Co204 Co 0.90308 0.41332 0.02487 0.0
Co205 Co 0.88419 0.37168 0.02602 0.0
C206 C 0.78367 0.39633 0.04686 0.0
O207 O 0.81725 0.41006 0.04148 0.0
O208 O 0.80282 0.38077 0.0411 0.0
C209 C 0.94694 0.44983 0.03037 0.0
O210 O 0.96643 0.44492 0.05176 0.0
C211 C 0.83402 0.33554 0.01521 0.0
C212 C 0.92211 0.31946 0.02399 0.0
C213 C 0.85814 0.31826 0.01559 0.0
N214 N 0.88213 0.34645 0.02276 0.0
N215 N 0.93444 0.33671 0.02804 0.0
C216 C 0.76544 0.34143 0.00923 0.0
H217 H 0.75676 0.35527 0.01517 0.0
H218 H 0.75777 0.34079 0.98965 0.0
H219 H 0.72908 0.33244 0.01774 0.0
C220 C 0.91559 0.40557 0.97342 0.0
N221 N 0.90761 0.40015 -0.00385 0.0
N222 N 0.90065 0.3828 -0.00354 0.0
C223 C 0.90444 0.37665 0.97389 0.0
C224 C 0.91379 0.39087 0.95866 0.0
C225 C 0.91961 0.42458 0.96592 0.0
H226 H 0.87665 0.43195 0.97325 0.0
H227 H 0.92036 0.42603 0.9462 0.0
H228 H 0.9651 0.4305 0.97345 0.0
O229 O 0.97208 0.40569 0.04749 0.0
O230 O 0.95521 0.37663 0.04874 0.0
H231 H 0.91592 0.35546 0.94815 0.0
H232 H 0.84687 0.35342 0.96819 0.0
C233 C 0.89903 0.35758 0.96682 0.0
H234 H 0.92917 0.34924 0.97893 0.0
H235 H 0.97888 0.34187 0.0343 0.0
O236 O 0.91754 0.43872 0.01705 0.0
C237 C 0.98542 0.3904 0.05584 0.0
Co238 Co 0.80514 0.41237 0.71596 0.0
Co239 Co 0.82885 0.37092 0.71415 0.0
C240 C 0.89533 0.39524 0.67966 0.0
O241 O 0.86837 0.40904 0.68876 0.0
O242 O 0.8853 0.37978 0.68816 0.0
C243 C 0.82712 0.45075 0.72439 0.0
O244 O 0.89026 0.44825 0.72022 0.0
C245 C 0.8861 0.33427 0.71633 0.0
C246 C 0.79908 0.31987 0.73001 0.0
C247 C 0.86436 0.31756 0.72342 0.0
N248 N 0.83594 0.34587 0.71902 0.0
N249 N 0.78412 0.33709 0.72702 0.0
C250 C 0.95234 0.33907 0.7065 0.0
H251 H 0.94828 0.35071 0.69455 0.0
H252 H 0.98577 0.3426 0.72142 0.0
H253 H 0.97416 0.32774 0.69654 0.0
C254 C 0.84286 0.40611 0.76644 0.0
N255 N 0.83353 0.40043 0.74387 0.0
N256 N 0.84598 0.38331 0.74281 0.0
C257 C 0.8657 0.37765 0.76446 0.0
C258 C 0.86389 0.39186 0.7802 0.0
C259 C 0.82527 0.42433 0.77504 0.0
H260 H 0.7786 0.42876 0.76661 0.0
H261 H 0.86493 0.43367 0.76984 0.0
H262 H 0.81902 0.42475 0.79472 0.0
O263 O 0.71953 0.40329 0.70572 0.0
O264 O 0.737 0.37434 0.70379 0.0
H265 H 0.84479 0.35019 0.77012 0.0
H266 H 0.91459 0.35826 0.78699 0.0
C267 C 0.88813 0.35912 0.76969 0.0
H268 H 0.92187 0.35459 0.75538 0.0
H269 H 0.73854 0.34293 0.73075 0.0
O270 O 0.78769 0.43774 0.72297 0.0
C271 C 0.69945 0.38771 0.70125 0.0
Co272 Co 0.61526 0.10653 0.96091 0.0
Co273 Co 0.62756 0.14828 0.95812 0.0
C274 C 0.70046 0.12436 0.92435 0.0
O275 O 0.67647 0.11039 0.9338 0.0
O276 O 0.68712 0.13981 0.93241 0.0
C277 C 0.57327 0.07035 0.95728 0.0
O278 O 0.54499 0.07589 0.93753 0.0
C279 C 0.67964 0.18511 0.96192 0.0
C280 C 0.58688 0.19956 0.96946 0.0
C281 C 0.65426 0.20191 0.96703 0.0
N282 N 0.6294 0.17347 0.96184 0.0
N283 N 0.57418 0.18227 0.96612 0.0
C284 C 0.7496 0.18013 0.95653 0.0
H285 H 0.75145 0.16806 0.94525 0.0
H286 H 0.77579 0.17718 0.97346 0.0
H287 H 0.77531 0.19117 0.94732 0.0
C288 C 0.65131 0.11391 0.01072 0.0
N289 N 0.64179 0.11939 0.98813 0.0
N290 N 0.64573 0.1368 0.98732 0.0
C291 C 0.65713 0.14296 0.00952 0.0
C292 C 0.66137 0.12866 0.02497 0.0
C293 C 0.64197 0.09516 0.01883 0.0
H294 H 0.67681 0.08641 0.00903 0.0
H295 H 0.65006 0.09362 0.03831 0.0
H296 H 0.59108 0.09088 0.01448 0.0
O297 O 0.52668 0.11393 0.95063 0.0
O298 O 0.53747 0.14307 0.94782 0.0
H299 H 0.61217 0.16864 0.01128 0.0
H300 H 0.66882 0.16408 0.03549 0.0
C301 C 0.65951 0.16219 0.01613 0.0
H302 H 0.69955 0.1687 0.00598 0.0
H303 H 0.52775 0.17639 0.96721 0.0
O304 O 0.60862 0.08104 0.96923 0.0
C305 C 0.50308 0.12912 0.94567 0.0
Co306 Co 0.61897 0.09638 0.26692 0.0
Co307 Co 0.62221 0.13838 0.27139 0.0
C308 C 0.52507 0.11587 0.29851 0.0
O309 O 0.5467 0.10135 0.28972 0.0
O310 O 0.54867 0.13087 0.29241 0.0
C311 C 0.65241 0.05974 0.27152 0.0
O312 O 0.67321 0.06508 0.29254 0.0
C313 C 0.57879 0.17572 0.26474 0.0
C314 C 0.6731 0.18981 0.26997 0.0
C315 C 0.60714 0.19249 0.26471 0.0
N316 N 0.62626 0.1637 0.26945 0.0
N317 N 0.68234 0.17226 0.27266 0.0
C318 C 0.50747 0.17123 0.26158 0.0
H319 H 0.49672 0.15793 0.26902 0.0
H320 H 0.49514 0.1711 0.24229 0.0
H321 H 0.47597 0.18139 0.27039 0.0
C322 C 0.61183 0.10587 0.21604 0.0
N323 N 0.61248 0.11055 0.23923 0.0
N324 N 0.61664 0.12794 0.24087 0.0
C325 C 0.62053 0.13484 0.21874 0.0
C326 C 0.61707 0.1211 0.2024 0.0
C327 C 0.61284 0.08711 0.20733 0.0
H328 H 0.5712 0.07974 0.21546 0.0
H329 H 0.60939 0.08635 0.18757 0.0
H330 H 0.65936 0.08064 0.21316 0.0
O331 O 0.70132 0.10146 0.28404 0.0
O332 O 0.70385 0.1308 0.28707 0.0
H333 H 0.67228 0.15924 0.22422 0.0
H334 H 0.64124 0.15641 0.19416 0.0
C335 C 0.63085 0.15408 0.21336 0.0
H336 H 0.58572 0.16157 0.21815 0.0
H337 H 0.72723 0.16609 0.27655 0.0
O338 O 0.62351 0.0708 0.2579 0.0
C339 C 0.72892 0.11563 0.29112 0.0
Co340 Co 0.39462 0.91601 0.01993 0.0
Co341 Co 0.38102 0.87435 0.01674 0.0
C342 C 0.31053 0.89536 0.05431 0.0
O343 O 0.33489 0.90997 0.04689 0.0
O344 O 0.32253 0.88065 0.04383 0.0
C345 C 0.44852 0.95081 0.02495 0.0
O346 O 0.48763 0.94277 0.04022 0.0
C347 C 0.32671 0.83849 0.00768 0.0
C348 C 0.41896 0.82368 0.00061 0.0
C349 C 0.35108 0.82171 0.00167 0.0
N350 N 0.37807 0.84961 0.00987 0.0
N351 N 0.43294 0.84063 0.00575 0.0
C352 C 0.25647 0.8444 0.00987 0.0
H353 H 0.25292 0.85904 0.00813 0.0
H354 H 0.22565 0.83796 -0.004 0.0
H355 H 0.2374 0.84066 0.02776 0.0
C356 C 0.35309 0.91283 0.96978 0.0
N357 N 0.36594 0.90551 0.99119 0.0
N358 N 0.36105 0.88815 0.9895 0.0
C359 C 0.34507 0.88388 0.96685 0.0
C360 C 0.33918 0.89939 0.95375 0.0
C361 C 0.35633 0.9323 0.96469 0.0
H362 H 0.32547 0.93958 0.97784 0.0
H363 H 0.33886 0.93543 0.94638 0.0
H364 H 0.40798 0.93688 0.96673 0.0
O365 O 0.4835 0.90752 0.02816 0.0
O366 O 0.47187 0.87837 0.02726 0.0
H367 H 0.34166 0.86507 0.93752 0.0
H368 H 0.29773 0.8587 0.96413 0.0
C369 C 0.34268 0.86533 0.95733 0.0
H370 H 0.38634 0.85778 0.96359 0.0
H371 H 0.48006 0.84615 0.00613 0.0
O372 O 0.40195 0.94211 0.01531 0.0
C373 C 0.50688 0.89201 0.03095 0.0
Co374 Co 0.34445 0.91523 0.70597 0.0
Co375 Co 0.37047 0.87403 0.71053 0.0
C376 C 0.46823 0.8974 0.68696 0.0
O377 O 0.43199 0.91106 0.69055 0.0
O378 O 0.45173 0.88206 0.69454 0.0
C379 C 0.35866 0.95303 0.71699 0.0
O380 O 0.41862 0.94922 0.72428 0.0
C381 C 0.41932 0.83745 0.72114 0.0
C382 C 0.32437 0.82444 0.72938 0.0
C383 C 0.39165 0.82141 0.72823 0.0
N384 N 0.3703 0.84935 0.71834 0.0
N385 N 0.3138 0.84141 0.7231 0.0
C386 C 0.49093 0.84187 0.719 0.0
H387 H 0.49891 0.85617 0.72263 0.0
H388 H 0.52077 0.83377 0.73155 0.0
H389 H 0.50761 0.83902 0.70049 0.0
C390 C 0.32368 0.91104 0.75802 0.0
N391 N 0.33847 0.90445 0.73629 0.0
N392 N 0.35357 0.88755 0.73839 0.0
C393 C 0.35187 0.88303 0.76166 0.0
C394 C 0.33235 0.89774 0.77485 0.0
C395 C 0.29736 0.92933 0.76241 0.0
H396 H 0.26497 0.93346 0.74747 0.0
H397 H 0.33912 0.93873 0.76376 0.0
H398 H 0.26865 0.92992 0.7793 0.0
O399 O 0.27857 0.90539 0.68456 0.0
O400 O 0.29922 0.87655 0.68665 0.0
H401 H 0.33386 0.85574 0.76955 0.0
H402 H 0.38927 0.86642 0.79021 0.0
C403 C 0.37449 0.86548 0.77118 0.0
H404 H 0.41725 0.86064 0.76068 0.0
H405 H 0.26795 0.84772 0.72251 0.0
O406 O 0.32285 0.94081 0.70838 0.0
C407 C 0.2673 0.88958 0.67799 0.0
Co408 Co 0.60123 0.59694 0.47075 0.0
Co409 Co 0.6146 0.63863 0.46641 0.0
C410 C 0.69581 0.61436 0.43631 0.0
O411 O 0.66947 0.60056 0.44544 0.0
O412 O 0.68064 0.62993 0.44339 0.0
C413 C 0.56169 0.56102 0.46579 0.0
O414 O 0.53884 0.56707 0.44538 0.0
C415 C 0.66377 0.67578 0.46973 0.0
C416 C 0.56893 0.6902 0.47251 0.0
C417 C 0.63648 0.69259 0.47231 0.0
N418 N 0.6143 0.66393 0.4688 0.0
N419 N 0.55786 0.67271 0.4703 0.0
C420 C 0.73529 0.67118 0.46713 0.0
H421 H 0.74172 0.65698 0.46253 0.0
H422 H 0.76161 0.67391 0.48407 0.0
H423 H 0.75784 0.67961 0.45308 0.0
C424 C 0.62281 0.6059 0.5216 0.0
N425 N 0.61848 0.61058 0.49843 0.0
N426 N 0.62537 0.62788 0.4966 0.0
C427 C 0.63533 0.63475 0.51849 0.0
C428 C 0.63367 0.62108 0.53507 0.0
C429 C 0.61076 0.58749 0.53058 0.0
H430 H 0.56499 0.58222 0.52243 0.0
H431 H 0.65224 0.57879 0.52498 0.0
H432 H 0.60577 0.58709 0.55031 0.0
O433 O 0.51591 0.60377 0.45687 0.0
O434 O 0.52805 0.6328 0.45296 0.0
H435 H 0.60427 0.66191 0.51869 0.0
H436 H 0.66267 0.65647 0.54205 0.0
C437 C 0.64861 0.65395 0.52323 0.0
H438 H 0.68983 0.65832 0.51175 0.0
H439 H 0.51156 0.66671 0.47009 0.0
O440 O 0.5938 0.57143 0.47931 0.0
C441 C 0.49431 0.61879 0.45015 0.0
Co442 Co 0.63757 0.60759 0.77737 0.0
Co443 Co 0.61614 0.6491 0.78022 0.0
C444 C 0.50975 0.62375 0.79409 0.0
O445 O 0.54583 0.61021 0.78961 0.0
O446 O 0.53002 0.63952 0.79033 0.0
C447 C 0.64717 0.56878 0.781 0.0
O448 O 0.61277 0.57007 0.80084 0.0
C449 C 0.5676 0.68556 0.77069 0.0
C450 C 0.656 0.7011 0.7802 0.0
C451 C 0.59227 0.70281 0.77155 0.0
N452 N 0.61492 0.67438 0.77835 0.0
N453 N 0.66732 0.68379 0.78417 0.0
C454 C 0.50254 0.67944 0.76124 0.0
H455 H 0.50493 0.66518 0.75637 0.0
H456 H 0.48792 0.68739 0.74541 0.0
H457 H 0.46443 0.68109 0.77532 0.0
C458 C 0.66614 0.61691 0.72747 0.0
N459 N 0.65211 0.62172 0.75006 0.0
N460 N 0.64351 0.63901 0.75095 0.0
C461 C 0.65174 0.64572 0.72882 0.0
C462 C 0.66655 0.63194 0.71335 0.0
C463 C 0.67206 0.59809 0.71919 0.0
H464 H 0.71644 0.59204 0.72743 0.0
H465 H 0.62826 0.59049 0.72514 0.0
H466 H 0.67644 0.59713 0.69946 0.0
O467 O 0.69607 0.61443 0.80368 0.0
O468 O 0.67779 0.6434 0.80624 0.0
H469 H 0.66923 0.67337 0.73482 0.0
H470 H 0.65974 0.66742 0.70374 0.0
C471 C 0.64208 0.66477 0.72218 0.0
H472 H 0.58891 0.66811 0.72321 0.0
H473 H 0.71136 0.67833 0.79045 0.0
O474 O 0.66012 0.58269 0.76912 0.0
C475 C 0.70529 0.62931 0.8138 0.0
Co476 Co 0.33126 0.41042 0.52767 0.0
Co477 Co 0.30839 0.3689 0.53022 0.0
C478 C 0.20041 0.39489 0.54129 0.0
O479 O 0.23766 0.40821 0.53746 0.0
O480 O 0.22082 0.379 0.53824 0.0
C481 C 0.41414 0.44044 0.52324 0.0
O482 O 0.45781 0.42887 0.5309 0.0
C483 C 0.2625 0.33267 0.51777 0.0
C484 C 0.34405 0.31667 0.53275 0.0
C485 C 0.28565 0.31528 0.52003 0.0
N486 N 0.30583 0.3436 0.52844 0.0
N487 N 0.35396 0.3339 0.53754 0.0
C488 C 0.2034 0.33917 0.50437 0.0
H489 H 0.20814 0.35353 0.50036 0.0
H490 H 0.19729 0.33161 0.48749 0.0
H491 H 0.15875 0.33729 0.51555 0.0
C492 C 0.37061 0.40067 0.47858 0.0
N493 N 0.35054 0.39619 0.50071 0.0
N494 N 0.34291 0.37886 0.5018 0.0
C495 C 0.35896 0.37179 0.48043 0.0
C496 C 0.37682 0.38536 0.46513 0.0
C497 C 0.37758 0.41934 0.46985 0.0
H498 H 0.42449 0.4249 0.47668 0.0
H499 H 0.33625 0.42758 0.47669 0.0
H500 H 0.37823 0.42001 0.45005 0.0
O501 O 0.38376 0.40307 0.55555 0.0
O502 O 0.36552 0.37412 0.55757 0.0
H503 H 0.37852 0.34463 0.48938 0.0
H504 H 0.38547 0.34957 0.45793 0.0
C505 C 0.35725 0.35245 0.47451 0.0
H506 H 0.30545 0.34833 0.47172 0.0
H507 H 0.39458 0.33911 0.54659 0.0
O508 O 0.35447 0.43558 0.52074 0.0
C509 C 0.39156 0.38815 0.56578 0.0
Co510 Co 0.38083 0.40951 0.22093 0.0
Co511 Co 0.40276 0.36785 0.21803 0.0
C512 C 0.48505 0.39229 0.18933 0.0
O513 O 0.45401 0.40581 0.19745 0.0
O514 O 0.47222 0.37658 0.19645 0.0
C515 C 0.32961 0.44463 0.21619 0.0
O516 O 0.30306 0.43776 0.19691 0.0
C517 C 0.44879 0.32998 0.22108 0.0
C518 C 0.35531 0.31759 0.23254 0.0
C519 C 0.42077 0.31379 0.22759 0.0
N520 N 0.40192 0.34266 0.22258 0.0
N521 N 0.34624 0.33506 0.22924 0.0
C522 C 0.51781 0.33337 0.21284 0.0
H523 H 0.5192 0.34503 0.20083 0.0
H524 H 0.54931 0.33624 0.22856 0.0
H525 H 0.53806 0.32163 0.20334 0.0
C526 C 0.39519 0.40155 0.27229 0.0
N527 N 0.39518 0.39651 0.24922 0.0
N528 N 0.40762 0.37941 0.24792 0.0
C529 C 0.41849 0.37312 0.27006 0.0
C530 C 0.4103 0.38688 0.2863 0.0
C531 C 0.37495 0.41966 0.28059 0.0
H532 H 0.33213 0.42436 0.27 0.0
H533 H 0.41632 0.42901 0.27764 0.0
H534 H 0.36119 0.41975 0.29977 0.0
O535 O 0.29975 0.40162 0.20538 0.0
O536 O 0.31861 0.37281 0.20166 0.0
H537 H 0.39648 0.34561 0.27455 0.0
H538 H 0.46263 0.35346 0.29334 0.0
C539 C 0.43985 0.35451 0.27538 0.0
H540 H 0.47633 0.35011 0.26187 0.0
H541 H 0.30202 0.34191 0.23189 0.0
O542 O 0.36858 0.43516 0.22866 0.0
C543 C 0.28288 0.3864 0.19791 0.0
H544 H 0.05916 0.21938 0.49723 0.0
H545 H 0.22971 0.21175 0.45211 0.0
H546 H 0.09922 0.24852 0.50866 0.0
H547 H 0.26933 0.24121 0.46295 0.0
H548 H 0.35576 0.28577 0.50853 0.0
H549 H 0.31531 0.2572 0.49518 0.0
H550 H 0.11607 0.27776 0.49547 0.0
H551 H 0.1561 0.30594 0.51051 0.0
C552 C 0.10515 0.22402 0.48963 0.0
C553 C 0.14183 0.21318 0.47406 0.0
C554 C 0.12793 0.2408 0.49604 0.0
C555 C 0.18756 0.24732 0.48673 0.0
C556 C 0.22383 0.23653 0.47085 0.0
C557 C 0.20129 0.21961 0.46464 0.0
C558 C 0.30322 0.28424 0.50575 0.0
C559 C 0.25943 0.29837 0.51029 0.0
C560 C 0.28008 0.26785 0.49781 0.0
C561 C 0.21237 0.26511 0.49409 0.0
C562 C 0.16854 0.2793 0.49832 0.0
C563 C 0.19172 0.29568 0.50652 0.0
H564 H 0.92472 0.97556 0.54618 0.0
H565 H 0.94125 0.95415 0.47481 0.0
H566 H 0.96762 1.00388 0.53199 0.0
H567 H 0.98697 0.98197 0.46087 0.0
H568 H 0.00512 0.03908 0.4373 0.0
H569 H 0.96075 0.01126 0.4518 0.0
H570 H 0.06402 0.01841 0.51867 0.0
H571 H 0.10607 0.04681 0.50442 0.0
C572 C 0.93766 0.97689 0.52748 0.0
C573 C 0.92922 0.96262 0.51162 0.0
C574 C 0.9629 0.99308 0.51936 0.0
C575 C 0.98112 0.9953 0.49524 0.0
C576 C 0.97245 0.98097 0.47945 0.0
C577 C 0.94637 0.96492 0.48748 0.0
C578 C 0.0188 0.03469 0.45505 0.0
C579 C 0.05932 0.04517 0.46967 0.0
C580 C -0.00652 0.01863 0.46338 0.0
C581 C 0.00867 0.01246 0.48646 0.0
C582 C 0.05023 0.02283 0.50096 0.0
C583 C 0.07498 0.03904 0.4927 0.0
H584 H 0.08295 0.03424 0.76276 0.0
H585 H 0.26185 0.06352 0.74887 0.0
H586 H 0.13859 1.00686 0.75081 0.0
H587 H 0.31674 0.0363 0.73649 0.0
H588 H 0.41265 0.98098 0.74141 0.0
H589 H 0.35857 0.00869 0.75281 0.0
H590 H 0.18259 0.99248 0.71535 0.0
H591 H 0.23599 0.96471 0.70437 0.0
C592 C 0.13399 0.03486 0.7571 0.0
C593 C 0.16788 0.05107 0.75682 0.0
C594 C 0.16581 0.01918 0.75011 0.0
C595 C 0.23217 0.01939 0.74266 0.0
C596 C 0.26594 0.03562 0.74242 0.0
C597 C 0.23424 0.05126 0.74942 0.0
C598 C 0.36266 0.9834 0.73542 0.0
C599 C 0.32869 0.9706 0.72202 0.0
C600 C 0.33165 0.9993 0.74193 0.0
C601 C 0.26601 1.00275 0.73514 0.0
C602 C 0.2327 0.99011 0.72125 0.0
C603 C 0.26362 0.97424 0.71478 0.0
H604 H -0.006 0.31238 0.73634 0.0
H605 H 0.81608 0.2844 0.71734 0.0
H606 H 0.04921 0.28425 0.74394 0.0
H607 H 0.87017 0.25629 0.72614 0.0
H608 H 0.00452 0.20764 0.72574 0.0
H609 H 0.9545 0.23565 0.71355 0.0
H610 H 0.04419 0.26167 0.77414 0.0
H611 H 0.09449 0.23367 0.78613 0.0
C612 C 0.96709 0.30025 0.73319 0.0
C613 C 0.90098 0.30064 0.72576 0.0
C614 C -0.00163 0.2841 0.73803 0.0
C615 C 0.96403 0.26799 0.73579 0.0
C616 C 0.89839 0.2684 0.72779 0.0
C617 C 0.86725 0.28453 0.72289 0.0
C618 C 0.01238 0.21925 0.73672 0.0
C619 C 0.05212 0.21838 0.75722 0.0
C620 C 0.98417 0.23535 0.72963 0.0
C621 C -0.0047 0.25093 0.74286 0.0
C622 C 0.03542 0.25001 0.7633 0.0
C623 C 0.06379 0.23395 0.7703 0.0
H624 H 0.89352 0.78052 0.51029 0.0
H625 H 0.70445 0.80456 0.49513 0.0
H626 H 0.84852 0.75152 0.50114 0.0
H627 H 0.65801 0.77544 0.48781 0.0
H628 H 0.61166 0.7238 0.45011 0.0
H629 H 0.65906 0.75277 0.45903 0.0
H630 H 0.77824 0.72892 0.51454 0.0
H631 H 0.73227 0.69999 0.50487 0.0
C632 C 0.84187 0.77959 0.50552 0.0
C633 C 0.80238 0.79491 0.50397 0.0
C634 C 0.81589 0.7629 0.50044 0.0
C635 C 0.74947 0.76104 0.49376 0.0
C636 C 0.70959 0.77634 0.49262 0.0
C637 C 0.73588 0.79309 0.49743 0.0
C638 C 0.64879 0.72481 0.46395 0.0
C639 C 0.66966 0.70967 0.47639 0.0
C640 C 0.6754 0.74141 0.46929 0.0
C641 C 0.72243 0.74327 0.4876 0.0
C642 C 0.74324 0.728 0.5 0.0
C643 C 0.71727 0.71136 0.49439 0.0
H644 H 0.67339 0.95482 0.20575 0.0
H645 H 0.86749 0.96367 0.23512 0.0
H646 H 0.63798 0.98383 0.22013 0.0
H647 H 0.83212 0.99286 0.24927 0.0
H648 H 0.7227 0.03409 0.29483 0.0
H649 H 0.75698 1.00518 0.27974 0.0
H650 H 0.65614 0.01566 0.21327 0.0
H651 H 0.62115 0.04458 0.22844 0.0
C652 C 0.70871 0.96301 0.21513 0.0
C653 C 0.77331 0.95691 0.2193 0.0
C654 C 0.68842 0.97969 0.22327 0.0
C655 C 0.73211 0.99065 0.23591 0.0
C656 C 0.797 0.98464 0.23985 0.0
C657 C 0.81744 0.96797 0.23157 0.0
C658 C 0.70739 0.03021 0.27705 0.0
C659 C 0.66909 0.04167 0.26286 0.0
C660 C 0.72759 0.01368 0.26833 0.0
C661 C 0.70976 0.00816 0.24524 0.0
C662 C 0.67036 0.01946 0.2312 0.0
C663 C 0.65037 0.03605 0.23989 0.0
H664 H 0.8369 0.7885 0.24141 0.0
H665 H 0.02057 0.79741 0.20441 0.0
H666 H 0.87777 0.7601 0.25585 0.0
H667 H 0.06096 0.76857 0.21785 0.0
H668 H 0.13944 0.72423 0.26445 0.0
H669 H 0.09896 0.75271 0.25081 0.0
H670 H 0.90242 0.73107 0.24513 0.0
H671 H 0.94184 0.70307 0.26082 0.0
C672 C 0.88605 0.78428 0.23627 0.0
C673 C 0.92591 0.79522 0.22204 0.0
C674 C 0.90937 0.76791 0.24437 0.0
C675 C 0.97276 0.76187 0.23801 0.0
C676 C 0.01243 0.77286 0.22356 0.0
C677 C 0.9894 0.7894 0.21581 0.0
C678 C 0.08742 0.7255 0.2604 0.0
C679 C 0.04441 0.71103 0.26331 0.0
C680 C 0.06429 0.74187 0.25225 0.0
C681 C -0.00261 0.74429 0.24655 0.0
C682 C 0.95424 0.72984 0.24947 0.0
C683 C 0.97728 0.7135 0.258 0.0
H684 H 0.22976 0.8101 0.01839 0.0
H685 H 0.39534 0.79442 0.97437 0.0
H686 H 0.17769 0.78178 0.01078 0.0
H687 H 0.34587 0.76556 0.96841 0.0
H688 H 0.21671 0.7195 0.94573 0.0
H689 H 0.26217 0.74931 0.94966 0.0
H690 H 0.18803 0.75211 0.02211 0.0
H691 H 0.14058 0.72273 0.01765 0.0
C692 C 0.25471 0.80083 0.00675 0.0
C693 C 0.3163 0.80482 -0.00339 0.0
C694 C 0.2254 0.78433 0.0028 0.0
C695 C 0.25758 0.77125 0.98904 0.0
C696 C 0.31892 0.77532 0.97876 0.0
C697 C 0.3477 0.79188 0.98243 0.0
C698 C 0.21083 0.72648 0.96251 0.0
C699 C 0.17577 0.7188 0.98146 0.0
C700 C 0.23675 0.74358 0.96481 0.0
C701 C 0.22873 0.75322 0.98621 0.0
C702 C 0.19399 0.74533 0.00518 0.0
C703 C 0.1673 0.72841 0.00273 0.0
H704 H 0.93046 0.46218 0.98489 0.0
H705 H 0.00146 0.47781 0.05452 0.0
H706 H 0.96318 0.49065 0.96871 0.0
H707 H 0.03154 0.50678 0.03855 0.0
H708 H 0.1363 0.55077 -0.00231 0.0
H709 H 0.10817 0.52153 0.01329 0.0
H710 H 0.93437 0.52076 0.96862 0.0
H711 H 0.964 0.54948 0.95238 0.0
C712 C 0.95247 0.47176 -0.00316 0.0
C713 C 0.96345 0.46766 0.02101 0.0
C714 C 0.97093 0.4882 0.98756 0.0
C715 C 5e-05 0.50111 0.00228 0.0
C716 C 0.01033 0.49708 0.02656 0.0
C717 C -0.0075 0.48052 0.03579 0.0
C718 C 0.0925 0.54424 0.99104 0.0
C719 C 0.05262 0.55242 0.97369 0.0
C720 C 0.07595 0.52754 0.00016 0.0
C721 C 0.01882 0.51873 0.9923 0.0
C722 C 0.97934 0.52693 0.97483 0.0
C723 C -0.00377 0.5435 0.96555 0.0
H724 H 0.17039 0.5516 0.23296 0.0
H725 H 0.20203 0.53301 0.30507 0.0
H726 H 0.21512 0.52399 0.21738 0.0
H727 H 0.24433 0.50499 0.28949 0.0
H728 H 0.37649 0.46356 0.25443 0.0
H729 H 0.33616 0.49198 0.26949 0.0
H730 H 0.19137 0.49365 0.21288 0.0
H731 H 0.23331 0.46572 0.19738 0.0
C732 C 0.18623 0.54154 0.24552 0.0
C733 C 0.18269 0.54456 0.27028 0.0
C734 C 0.21165 0.52562 0.23657 0.0
C735 C 0.23354 0.51218 0.25213 0.0
C736 C 0.22913 0.51513 0.27693 0.0
C737 C 0.20425 0.53115 0.28589 0.0
C738 C 0.33652 0.47011 0.24507 0.0
C739 C 0.30833 0.46239 0.22464 0.0
C740 C 0.3129 0.48634 0.25384 0.0
C741 C 0.26019 0.49515 0.2425 0.0
C742 C 0.23264 0.48745 0.22191 0.0
C743 C 0.25658 0.47134 0.21305 0.0
H744 H 0.77786 0.20758 0.98615 0.0
H745 H 0.60597 0.23496 0.95915 0.0
H746 H 0.82798 0.23582 -0.00391 0.0
H747 H 0.65417 0.26319 0.97058 0.0
H748 H 0.78399 0.31235 0.97555 0.0
H749 H 0.73774 0.28428 0.96208 0.0
H750 H 0.81558 0.25846 0.02506 0.0
H751 H 0.86297 0.28651 0.0381 0.0
C752 C 0.75129 0.21959 0.98178 0.0
C753 C 0.68844 0.21897 0.9713 0.0
C754 C 0.77946 0.23584 0.98802 0.0
C755 C 0.74502 0.25184 0.9843 0.0
C756 C 0.68261 0.2512 0.97344 0.0
C757 C 0.65475 0.23498 0.96703 0.0
C758 C 0.78986 0.30076 0.98675 0.0
C759 C 0.82579 0.30166 0.00812 0.0
C760 C 0.76378 0.28462 0.97896 0.0
C761 C 0.77294 0.26905 0.99245 0.0
C762 C 0.80857 0.27007 0.01396 0.0
C763 C 0.83516 0.28616 0.02158 0.0
H764 H 0.62071 0.53574 0.79907 0.0
H765 H 0.73365 0.56251 0.74445 0.0
H766 H 0.66564 0.50731 0.78565 0.0
H767 H 0.77761 0.53417 0.73091 0.0
H768 H 0.89534 0.48188 0.73004 0.0
H769 H 0.8524 0.51035 0.74424 0.0
H770 H 0.65811 0.48754 0.75082 0.0
H771 H 0.7008 0.45917 0.73698 0.0
C772 C 0.6549 0.53558 0.78418 0.0
C773 C 0.67332 0.55141 0.7728 0.0
C774 C 0.68044 0.51928 0.77642 0.0
C775 C 0.72527 0.51849 0.75722 0.0
C776 C 0.74383 0.53434 0.74593 0.0
C777 C 0.71807 0.55058 0.75358 0.0
C778 C 0.84347 0.48296 0.73447 0.0
C779 C 0.80159 0.46824 0.73233 0.0
C780 C 0.81882 0.49928 0.74254 0.0
C781 C 0.75185 0.50119 0.74873 0.0
C782 C 0.71008 0.48646 0.74653 0.0
C783 C 0.73458 0.47021 0.7384 0.0
H784 H 0.60203 0.05744 0.0017 0.0
H785 H 0.509 0.0431 0.93505 0.0
H786 H 0.569 0.02928 0.01893 0.0
H787 H 0.47832 0.0145 0.95195 0.0
H788 H 0.37494 0.9723 -0.00421 0.0
H789 H 0.40533 1.00123 0.9798 0.0
H790 H 0.59008 0.99864 0.01816 0.0
H791 H 0.55845 0.97019 0.03486 0.0
C792 C 0.57531 0.04817 0.99059 0.0
C793 C 0.55807 0.05255 0.96699 0.0
C794 C 0.55652 0.03194 0.00046 0.0
C795 C 0.5207 0.01956 0.9869 0.0
C796 C 0.50467 0.02382 0.96311 0.0
C797 C 0.52286 0.04016 0.95332 0.0
C798 C 0.42168 0.97803 0.00102 0.0
C799 C 0.46416 0.96896 0.01666 0.0
C800 C 0.43948 0.99454 0.99165 0.0
C801 C 0.50046 1.00228 -0.00249 0.0
C802 C 0.54235 0.99327 0.01347 0.0
C803 C 0.52427 0.97688 0.02302 0.0
H804 H 0.36062 0.28197 0.22234 0.0
H805 H 0.54802 0.30519 0.24111 0.0
H806 H 0.40408 0.25267 0.23135 0.0
H807 H 0.593 0.2758 0.24847 0.0
H808 H 0.63033 0.22374 0.28707 0.0
H809 H 0.58651 0.25295 0.27709 0.0
H810 H 0.4763 0.22987 0.21879 0.0
H811 H 0.51891 0.20066 0.22933 0.0
C812 C 0.41162 0.2808 0.22789 0.0
C813 C 0.45108 0.29598 0.23052 0.0
C814 C 0.43674 0.26394 0.23289 0.0
C815 C 0.50219 0.26178 0.24063 0.0
C816 C 0.54212 0.27694 0.24281 0.0
C817 C 0.51672 0.29385 0.23802 0.0
C818 C 0.59621 0.22495 0.27227 0.0
C819 C 0.57691 0.2099 0.25931 0.0
C820 C 0.57158 0.2417 0.26636 0.0
C821 C 0.52793 0.24386 0.24704 0.0
C822 C 0.50877 0.22872 0.23406 0.0
C823 C 0.53287 0.21192 0.24017 0.0
H824 H 0.49683 0.80512 0.70628 0.0
H825 H 0.35767 0.79919 0.76413 0.0
H826 H 0.54447 0.77619 0.71582 0.0
H827 H 0.406 0.77057 0.77415 0.0
H828 H 0.46076 0.7127 0.7723 0.0
H829 H 0.41364 0.741 0.76046 0.0
H830 H 0.60877 0.76073 0.74464 0.0
H831 H 0.65538 0.73201 0.75493 0.0
C832 C 0.4774 0.7978 0.72135 0.0
C833 C 0.42409 0.80448 0.73464 0.0
C834 C 0.50449 0.78118 0.7268 0.0
C835 C 0.47899 0.77096 0.74573 0.0
C836 C 0.4261 0.77785 0.75915 0.0
C837 C 0.39871 0.79433 0.75354 0.0
C838 C 0.49352 0.72282 0.7656 0.0
C839 C 0.5618 0.71985 0.76405 0.0
C840 C 0.46657 0.73926 0.75926 0.0
C841 C 0.50735 0.75323 0.75159 0.0
C842 C 0.57565 0.75024 0.75008 0.0
C843 C 0.60246 0.73378 0.75622 0.0
H844 H 0.59435 0.5449 0.50807 0.0
H845 H 0.48863 0.53626 0.44208 0.0
H846 H 0.55834 0.51596 0.52252 0.0
H847 H 0.45346 0.50729 0.45643 0.0
H848 H 0.34154 0.4661 0.50057 0.0
H849 H 0.37901 0.49511 0.48686 0.0
H850 H 0.57333 0.48415 0.51486 0.0
H851 H 0.53574 0.4553 0.52886 0.0
C852 C 0.56401 0.53677 0.49655 0.0
C853 C 0.54431 0.54292 0.47393 0.0
C854 C 0.54348 0.52016 0.50482 0.0
C855 C 0.50263 0.50937 0.49069 0.0
C856 C 0.48397 0.5154 0.46791 0.0
C857 C 0.50462 0.53196 0.45962 0.0
C858 C 0.39211 0.46993 0.50395 0.0
C859 C 0.43561 0.45838 0.51582 0.0
C860 C 0.41375 0.4865 0.49592 0.0
C861 C 0.47927 0.49191 0.49967 0.0
C862 C 0.52242 0.48046 0.51187 0.0
C863 C 0.5009 0.46388 0.5198 0.0
H864 H 0.30605 0.14479 0.42564 0.0
H865 H 0.26143 0.08925 0.41582 0.0
H866 H 0.38155 0.14357 0.39175 0.0
H867 H 0.33357 0.08823 0.38135 0.0
H868 H 0.50399 0.08844 0.32913 0.0
H869 H 0.43952 0.0888 0.36574 0.0
H870 H 0.37484 0.14226 0.34992 0.0
H871 H 0.44254 0.14217 0.31394 0.0
C872 C 0.31293 0.13228 0.4164 0.0
C873 C 0.27761 0.11714 0.42337 0.0
C874 C 0.35549 0.13162 0.39676 0.0
C875 C 0.36277 0.11589 0.38343 0.0
C876 C 0.32987 0.10055 0.39121 0.0
C877 C 0.28829 0.10113 0.41106 0.0
C878 C 0.47528 0.10018 0.33332 0.0
C879 C 0.47808 0.11526 0.31863 0.0
C880 C 0.43831 0.10041 0.35437 0.0
C881 C 0.40225 0.11562 0.361 0.0
C882 C 0.40333 0.13048 0.34579 0.0
C883 C 0.44133 0.13036 0.32496 0.0
H884 H 0.8156 0.14164 0.30352 0.0
H885 H 0.76524 0.08692 0.31742 0.0
H886 H 0.88975 0.14137 0.33773 0.0
H887 H 0.83626 0.08691 0.35216 0.0
H888 H 0.00267 0.08933 0.40579 0.0
H889 H 0.94236 0.08808 0.36843 0.0
H890 H 0.87404 0.14187 0.37969 0.0
H891 H 0.93749 0.14339 0.41655 0.0
C892 C 0.82114 0.12949 0.31369 0.0
C893 C 0.78419 0.11437 0.30799 0.0
C894 C 0.86287 0.1294 0.33345 0.0
C895 C 0.86753 0.11428 0.34805 0.0
C896 C 0.83407 0.09878 0.3413 0.0
C897 C 0.79325 0.09878 0.32132 0.0
C898 C 0.97396 0.1008 0.40047 0.0
C899 C 0.97455 0.11645 0.41408 0.0
C900 C 0.93955 0.1001 0.37899 0.0
C901 C 0.90404 0.11495 0.3709 0.0
C902 C 0.90247 0.13037 0.38506 0.0
C903 C 0.93789 0.13116 0.40635 0.0
H904 H 0.28621 0.10432 0.82568 0.0
H905 H 0.19984 0.15549 0.84164 0.0
H906 H 0.34329 0.10471 0.86379 0.0
H907 H 0.255 0.15558 0.88027 0.0
H908 H 0.44753 0.15853 0.92567 0.0
H909 H 0.36411 0.1588 0.89482 0.0
H910 H 0.3296 0.10287 0.90621 0.0
H911 H 0.41561 0.1024 0.93652 0.0
C912 C 0.27917 0.11561 0.83741 0.0
C913 C 0.2392 0.12995 0.83059 0.0
C914 C 0.31105 0.11572 0.85943 0.0
C915 C 0.30299 0.13009 0.87521 0.0
C916 C 0.26253 0.14438 0.86844 0.0
C917 C 0.23123 0.14436 0.84627 0.0
C918 C 0.42109 0.14635 0.92207 0.0
C919 C 0.43962 0.13031 0.93299 0.0
C920 C 0.37287 0.14654 0.9044 0.0
C921 C 0.34166 0.13073 0.89759 0.0
C922 C 0.35449 0.11514 0.91056 0.0
C923 C 0.40332 0.1149 0.92808 0.0
H924 H 0.97188 0.0929 0.81277 0.0
H925 H 0.90795 0.14546 0.79221 0.0
H926 H 0.88993 0.09259 0.84447 0.0
H927 H 0.8242 0.14488 0.82341 0.0
H928 H 0.77365 0.15009 0.90269 0.0
H929 H 0.83613 0.14783 0.86576 0.0
H930 H 0.77859 0.09292 0.8587 0.0
H931 H 0.71757 0.09502 0.89617 0.0
C932 C 0.93865 0.10412 0.81441 0.0
C933 C 0.94726 0.11936 0.8003 0.0
C934 C 0.89159 0.10395 0.83266 0.0
C935 C 0.85177 0.11893 0.83691 0.0
C936 C 0.85565 0.13337 0.82109 0.0
C937 C 0.90314 0.13363 0.80303 0.0
C938 C 0.7744 0.13751 0.89332 0.0
C939 C 0.74089 0.12272 0.90245 0.0
C940 C 0.80957 0.13627 0.87195 0.0
C941 C 0.81164 0.12024 0.85906 0.0
C942 C 0.77829 0.10542 0.86823 0.0
C943 C 0.74343 0.10663 0.88974 0.0
H944 H 0.5008 0.9254 0.6582 0.0
H945 H 0.56161 0.87219 0.67703 0.0
H946 H 0.57577 0.9249 0.62422 0.0
H947 H 0.63789 0.87191 0.64342 0.0
H948 H 0.68791 0.86694 0.56482 0.0
H949 H 0.62152 0.86978 0.6008 0.0
H950 H 0.688 0.92379 0.60953 0.0
H951 H 0.75348 0.92111 0.57309 0.0
C952 C 0.53147 0.91378 0.65552 0.0
C953 C 0.52445 0.89873 0.67016 0.0
C954 C 0.57448 0.9135 0.63598 0.0
C955 C 0.61165 0.89821 0.63078 0.0
C956 C 0.60845 0.88371 0.64654 0.0
C957 C 0.56522 0.88394 0.66597 0.0
C958 C 0.68802 0.87949 0.57426 0.0
C959 C 0.72621 0.89377 0.56608 0.0
C960 C 0.65051 0.88105 0.59507 0.0
C961 C 0.65047 0.89691 0.60831 0.0
C962 C 0.6869 0.91141 0.59973 0.0
C963 C 0.72431 0.90987 0.57881 0.0
H964 H 0.25643 0.85993 0.65009 0.0
H965 H 0.1781 0.91289 0.65973 0.0
H966 H 0.19531 0.85722 0.61271 0.0
H967 H 0.11626 0.91001 0.62282 0.0
H968 H 0.00909 0.85562 0.56276 0.0
H969 H 0.0829 0.8555 0.59697 0.0
H970 H 0.14261 0.90905 0.58025 0.0
H971 H 0.06739 0.90942 0.54641 0.0
C972 C 0.22526 0.87085 0.64447 0.0
C973 C 0.22242 0.88669 0.65772 0.0
C974 C 0.19058 0.86932 0.62303 0.0
C975 C 0.15241 0.88357 0.6146 0.0
C976 C 0.14705 0.89902 0.6285 0.0
C977 C 0.18181 0.90059 0.64979 0.0
C978 C 0.0391 0.86724 0.56602 0.0
C979 C 0.03135 0.8827 0.55222 0.0
C980 C 0.08142 0.86714 0.58564 0.0
C981 C 0.11699 0.88243 0.59161 0.0
C982 C 0.1141 0.89726 0.57643 0.0
C983 C 0.07151 0.89741 0.55694 0.0
H984 H 0.80573 0.86108 0.13418 0.0
H985 H 0.72848 0.91322 0.15052 0.0
H986 H 0.75161 0.86198 0.09536 0.0
H987 H 0.67237 0.91384 0.11224 0.0
H988 H 0.55816 0.86175 0.05009 0.0
H989 H 0.64228 0.86021 0.08064 0.0
H990 H 0.68605 0.91573 0.06989 0.0
H991 H 0.59946 0.91748 0.03987 0.0
C992 C 0.77662 0.87265 0.12957 0.0
C993 C 0.77079 0.88702 0.14545 0.0
C994 C 0.74591 0.8732 0.1073 0.0
C995 C 0.70815 0.88804 0.10061 0.0
C996 C 0.7025 0.9024 0.11654 0.0
C997 C 0.73381 0.90194 0.13866 0.0
C998 C 0.58688 0.87354 0.05372 0.0
C999 C 0.57075 0.88989 0.04314 0.0
C1000 C 0.63546 0.87263 0.07124 0.0
C1001 C 0.66941 0.88799 0.07821 0.0
C1002 C 0.65901 0.90381 0.06545 0.0
C1003 C 0.60982 0.90478 0.04811 0.0
H1004 H 0.04712 0.92058 0.1707 0.0
H1005 H 0.09168 0.86503 0.18132 0.0
H1006 H 0.12976 0.92205 0.13945 0.0
H1007 H 0.17659 0.86669 0.15058 0.0
H1008 H 0.30069 0.92158 0.08794 0.0
H1009 H 0.23979 0.92083 0.12548 0.0
H1010 H 0.16923 0.86831 0.10821 0.0
H1011 H 0.23201 0.86881 0.0712 0.0
C1012 C 0.07616 0.90881 0.16698 0.0
C1013 C 0.06178 0.89259 0.17819 0.0
C1014 C 0.1238 0.90967 0.14899 0.0
C1015 C 0.15872 0.89437 0.14203 0.0
C1016 C 0.14905 0.87859 0.15497 0.0
C1017 C 0.10089 0.87768 0.1728 0.0
C1018 C 0.27204 0.90988 0.09215 0.0
C1019 C 0.27088 0.89529 0.07652 0.0
C1020 C 0.2372 0.90945 0.11371 0.0
C1021 C 0.19987 0.89447 0.12001 0.0
C1022 C 0.19868 0.8799 0.10428 0.0
C1023 C 0.23404 0.88027 0.08287 0.0
H1024 H 0.27917 0.65083 0.91279 0.0
H1025 H 0.21978 0.59618 0.90414 0.0
H1026 H 0.34187 0.64907 0.87586 0.0
H1027 H 0.28112 0.59459 0.86668 0.0
H1028 H 0.41126 0.64794 0.80162 0.0
H1029 H 0.32925 0.64716 0.83343 0.0
H1030 H 0.39211 0.59411 0.85205 0.0
H1031 H 0.47235 0.59465 0.81977 0.0
C1032 C 0.27932 0.63844 0.90297 0.0
C1033 C 0.24465 0.62363 0.91149 0.0
C1034 C 0.31463 0.63749 0.88159 0.0
C1035 C 0.31579 0.62175 0.86808 0.0
C1036 C 0.28154 0.60688 0.87669 0.0
C1037 C 0.24648 0.6078 0.8982 0.0
C1038 C 0.40624 0.63592 0.81206 0.0
C1039 C 0.44902 0.62147 0.80841 0.0
C1040 C 0.35976 0.63554 0.83048 0.0
C1041 C 0.35548 0.62078 0.84575 0.0
C1042 C 0.39408 0.60571 0.84068 0.0
C1043 C 0.44016 0.60602 0.82209 0.0
H1044 H 0.70823 0.65612 0.8465 0.0
H1045 H 0.78656 0.60379 0.832 0.0
H1046 H 0.76467 0.65639 0.88485 0.0
H1047 H 0.84497 0.60434 0.8699 0.0
H1048 H 0.91451 0.60275 0.94364 0.0
H1049 H 0.83087 0.60344 0.91247 0.0
H1050 H 0.8745 0.65866 0.89922 0.0
H1051 H 0.95585 0.65819 0.93084 0.0
C1052 C 0.73814 0.64476 0.85138 0.0
C1053 C 0.74339 0.62997 0.83617 0.0
C1054 C 0.77025 0.6449 0.87339 0.0
C1055 C 0.80882 0.63033 0.88052 0.0
C1056 C 0.81429 0.61559 0.86522 0.0
C1057 C 0.78162 0.61538 0.84334 0.0
C1058 C 0.90484 0.61517 0.93455 0.0
C1059 C 0.94293 0.63029 0.93928 0.0
C1060 C 0.85738 0.61551 0.91654 0.0
C1061 C 0.84756 0.63095 0.9029 0.0
C1062 C 0.88088 0.64654 0.90933 0.0
C1063 C 0.92783 0.64624 0.92747 0.0
H1064 H 0.19222 0.64531 0.34538 0.0
H1065 H 0.27427 0.59404 0.32714 0.0
H1066 H 0.25294 0.64504 0.38277 0.0
H1067 H 0.33731 0.59411 0.36413 0.0
H1068 H 0.44333 0.64783 0.42778 0.0
H1069 H 0.36327 0.64797 0.39577 0.0
H1070 H 0.32828 0.59201 0.40679 0.0
H1071 H 0.41086 0.59169 0.43837 0.0
C1072 C 0.22393 0.63408 0.34922 0.0
C1073 C 0.22891 0.61974 0.33325 0.0
C1074 C 0.25861 0.63392 0.37068 0.0
C1075 C 0.29971 0.61953 0.37649 0.0
C1076 C 0.30491 0.60523 0.36044 0.0
C1077 C 0.26953 0.60528 0.33909 0.0
C1078 C 0.41769 0.63561 0.42376 0.0
C1079 C 0.43445 0.61966 0.43529 0.0
C1080 C 0.37146 0.63571 0.40541 0.0
C1081 C 0.34039 0.61991 0.39841 0.0
C1082 C 0.35283 0.60429 0.41136 0.0
C1083 C 0.39961 0.60415 0.42962 0.0
H1084 H 0.71327 0.58521 0.40766 0.0
H1085 H 0.77525 0.6396 0.4168 0.0
H1086 H 0.77354 0.58372 0.3699 0.0
H1087 H 0.83662 0.63796 0.37958 0.0
H1088 H 0.95846 0.58467 0.31946 0.0
H1089 H 0.88328 0.58353 0.35331 0.0
H1090 H 0.81661 0.63671 0.33732 0.0
H1091 H 0.89347 0.63809 0.30392 0.0
C1092 C 0.74062 0.59675 0.40183 0.0
C1093 C 0.73929 0.61255 0.4152 0.0
C1094 C 0.77494 0.59591 0.38014 0.0
C1095 C 0.80882 0.61083 0.37147 0.0
C1096 C 0.80936 0.62639 0.38534 0.0
C1097 C 0.77485 0.62726 0.40687 0.0
C1098 C 0.92642 0.59594 0.32272 0.0
C1099 C 0.9328 0.6116 0.30925 0.0
C1100 C 0.88334 0.59529 0.34221 0.0
C1101 C 0.84535 0.61022 0.34844 0.0
C1102 C 0.84688 0.6252 0.33346 0.0
C1103 C 0.89035 0.62591 0.31413 0.0
H1104 H 0.57007 0.36774 0.17071 0.0
H1105 H 0.50322 0.42184 0.16168 0.0
H1106 H 0.63516 0.37015 0.13438 0.0
H1107 H 0.56725 0.42408 0.12489 0.0
H1108 H 0.75174 0.42488 0.0748 0.0
H1109 H 0.67843 0.42494 0.10929 0.0
H1110 H 0.61627 0.37171 0.09189 0.0
H1111 H 0.69095 0.37144 0.05781 0.0
C1112 C 0.56949 0.38019 0.16104 0.0
C1113 C 0.53125 0.39457 0.16909 0.0
C1114 C 0.6062 0.3815 0.14003 0.0
C1115 C 0.6053 0.39719 0.12645 0.0
C1116 C 0.56903 0.41181 0.13494 0.0
C1117 C 0.53247 0.41053 0.15607 0.0
C1118 C 0.72128 0.41334 0.07798 0.0
C1119 C 0.72789 0.39805 0.06375 0.0
C1120 C 0.6793 0.41337 0.09781 0.0
C1121 C 0.64277 0.39817 0.10368 0.0
C1122 C 0.64534 0.38344 0.08827 0.0
C1123 C 0.68759 0.38335 0.06858 0.0
H1124 H 0.06543 0.41592 0.07481 0.0
H1125 H 0.0061 0.36125 0.08363 0.0
H1126 H 0.13053 0.4139 0.11125 0.0
H1127 H 0.0689 0.35948 0.12043 0.0
H1128 H 0.25186 0.3584 0.16926 0.0
H1129 H 0.17891 0.35886 0.13495 0.0
H1130 H 0.11504 0.41183 0.15381 0.0
H1131 H 0.19005 0.41164 0.18775 0.0
C1132 C 0.06647 0.40347 0.08446 0.0
C1133 C 0.0307 0.38876 0.07631 0.0
C1134 C 0.10302 0.40237 0.10551 0.0
C1135 C 0.10403 0.3866 0.11892 0.0
C1136 C 0.06948 0.37178 0.11045 0.0
C1137 C 0.0335 0.37281 0.08931 0.0
C1138 C 0.22127 0.37002 0.16642 0.0
C1139 C 0.22746 0.3851 0.18101 0.0
C1140 C 0.17938 0.37028 0.14671 0.0
C1141 C 0.14227 0.38553 0.14138 0.0
C1142 C 0.14454 0.40008 0.15707 0.0
C1143 C 0.18691 0.39989 0.17667 0.0
H1144 H 0.65525 0.35842 0.67768 0.0
H1145 H 0.60092 0.41221 0.69624 0.0
H1146 H 0.56918 0.35788 0.64766 0.0
H1147 H 0.513 0.41142 0.66666 0.0
H1148 H 0.39837 0.36033 0.59692 0.0
H1149 H 0.45615 0.35921 0.63503 0.0
H1150 H 0.5253 0.41276 0.62381 0.0
H1151 H 0.46608 0.41409 0.58618 0.0
C1152 C 0.6234 0.36991 0.67596 0.0
C1153 C 0.63601 0.38554 0.68882 0.0
C1154 C 0.57381 0.36958 0.65876 0.0
C1155 C 0.53557 0.3848 0.65436 0.0
C1156 C 0.54316 0.39969 0.66919 0.0
C1157 C 0.59316 0.40009 0.68624 0.0
C1158 C 0.42586 0.37187 0.60262 0.0
C1159 C 0.42811 0.38727 0.58847 0.0
C1160 C 0.45873 0.37123 0.62448 0.0
C1161 C 0.4948 0.38592 0.63252 0.0
C1162 C 0.49661 0.40135 0.61842 0.0
C1163 C 0.46341 0.40204 0.59667 0.0
H1164 H 0.90726 0.42403 0.64987 0.0
H1165 H 0.97281 0.36986 0.65919 0.0
H1166 H 0.96652 0.42543 0.61183 0.0
H1167 H 0.03282 0.3714 0.62184 0.0
H1168 H 0.15974 0.42473 0.56489 0.0
H1169 H 0.07775 0.42598 0.59653 0.0
H1170 H 0.01697 0.37258 0.57945 0.0
H1171 H 0.10082 0.37107 0.54831 0.0
C1172 C 0.93476 0.41249 0.64395 0.0
C1173 C 0.93526 0.39683 0.6576 0.0
C1174 C 0.9685 0.41328 0.62212 0.0
C1175 C 0.0035 0.39843 0.61356 0.0
C1176 C 0.00477 0.38292 0.62748 0.0
C1177 C 0.97097 0.38211 0.64913 0.0
C1178 C 0.1276 0.41343 0.56736 0.0
C1179 C 0.13789 0.39763 0.55446 0.0
C1180 C 0.08045 0.41416 0.58557 0.0
C1181 C 0.04222 0.39918 0.59101 0.0
C1182 C 0.04727 0.38414 0.57622 0.0
C1183 C 0.09486 0.38333 0.5582 0.0
H1184 H 0.0574 0.1211 0.68248 0.0
H1185 H 0.25406 0.14178 0.67398 0.0
H1186 H 0.04297 0.12091 0.63908 0.0
H1187 H 0.24004 0.14164 0.63035 0.0
H1188 H 0.21131 0.11448 0.55604 0.0
H1189 H 0.22654 0.11729 0.59928 0.0
H1190 H 0.03608 0.14287 0.60503 0.0
H1191 H 0.02107 0.13991 0.56172 0.0
C1192 C 0.09727 0.12567 0.67115 0.0
C1193 C 0.15684 0.13136 0.68113 0.0
C1194 C 0.08899 0.12567 0.64647 0.0
C1195 C 0.14042 0.13127 0.63149 0.0
C1196 C 0.19992 0.13715 0.6416 0.0
C1197 C 0.20794 0.13728 0.66637 0.0
C1198 C 0.17294 0.12068 0.56668 0.0
C1199 C 0.11496 0.1269 0.55595 0.0
C1200 C 0.18181 0.12243 0.59125 0.0
C1201 C 0.1325 0.13033 0.60536 0.0
C1202 C 0.07457 0.13664 0.59449 0.0
C1203 C 0.06599 0.135 0.56987 0.0
H1204 H 0.77502 0.90796 0.41895 0.0
H1205 H 0.89411 0.86042 0.41952 0.0
H1206 H 0.77097 0.90693 0.37538 0.0
H1207 H 0.88589 0.85846 0.37625 0.0
H1208 H 0.92894 0.87242 0.29892 0.0
H1209 H 0.92863 0.87264 0.34245 0.0
H1210 H 0.72713 0.89182 0.34201 0.0
H1211 H 0.72953 0.89238 0.29825 0.0
C1212 C 0.79988 0.89723 0.40968 0.0
C1213 C 0.83519 0.88433 0.42244 0.0
C1214 C 0.79679 0.89646 0.38479 0.0
C1215 C 0.82821 0.88262 0.37227 0.0
C1216 C 0.86213 0.86948 0.38524 0.0
C1217 C 0.86611 0.87044 0.41005 0.0
C1218 C 0.88462 0.87653 0.30828 0.0
C1219 C 0.82913 0.88227 0.2956 0.0
C1220 C 0.88414 0.87658 0.33316 0.0
C1221 C 0.82769 0.88217 0.34578 0.0
C1222 C 0.7717 0.88768 0.33287 0.0
C1223 C 0.77267 0.88786 0.30793 0.0
H1224 H 0.22946 0.60433 0.06299 0.0
H1225 H 0.10906 0.65164 0.0631 0.0
H1226 H 0.22987 0.60442 0.10661 0.0
H1227 H 0.11447 0.65281 0.10634 0.0
H1228 H 0.06026 0.63696 0.18176 0.0
H1229 H 0.06743 0.63803 0.13839 0.0
H1230 H 0.26765 0.61803 0.14187 0.0
H1231 H 0.2581 0.61607 0.18544 0.0
C1232 C 0.2039 0.61487 0.07239 0.0
C1233 C 0.16902 0.62792 0.05976 0.0
C1234 C 0.20486 0.61509 0.09735 0.0
C1235 C 0.17182 0.62858 0.11007 0.0
C1236 C 0.13923 0.64201 0.09723 0.0
C1237 C 0.1371 0.64154 0.07238 0.0
C1238 C 0.10577 0.63292 0.17312 0.0
C1239 C 0.15868 0.62647 0.18659 0.0
C1240 C 0.11025 0.63364 0.14832 0.0
C1241 C 0.16835 0.62822 0.13655 0.0
C1242 C 0.22187 0.62206 0.15028 0.0
C1243 C 0.21681 0.62106 0.17514 0.0
H1244 H 0.80857 0.38136 0.93243 0.0
H1245 H 0.00831 0.40029 0.9267 0.0
H1246 H 0.79786 0.38188 0.88909 0.0
H1247 H -0.00036 0.39997 0.88304 0.0
H1248 H 0.93613 0.41482 0.80709 0.0
H1249 H 0.94921 0.41474 0.85048 0.0
H1250 H 0.83215 0.36695 0.85469 0.0
H1251 H 0.81501 0.36799 0.81176 0.0
C1252 C 0.85041 0.3854 0.92169 0.0
C1253 C 0.90922 0.39073 0.93253 0.0
C1254 C 0.84464 0.3856 0.89691 0.0
C1255 C 0.8981 0.39084 0.88252 0.0
C1256 C 0.95724 0.39609 0.89357 0.0
C1257 C 0.96255 0.39615 0.91845 0.0
C1258 C 0.91289 0.40443 0.81746 0.0
C1259 C 0.87463 0.39142 0.80622 0.0
C1260 C 0.921 0.40423 0.84223 0.0
C1261 C 0.89162 0.39085 0.85612 0.0
C1262 C 0.85448 0.37764 0.84465 0.0
C1263 C 0.84546 0.37805 0.82001 0.0
H1264 H 0.72687 0.13103 0.17854 0.0
H1265 H 0.52637 0.11364 0.1686 0.0
H1266 H 0.74047 0.13374 0.13514 0.0
H1267 H 0.53956 0.11626 0.12518 0.0
H1268 H 0.56636 0.14321 0.05259 0.0
H1269 H 0.55711 0.14169 0.09615 0.0
H1270 H 0.74164 0.11293 0.09926 0.0
H1271 H 0.75071 0.11459 0.05559 0.0
C1272 C 0.68594 0.12778 0.16692 0.0
C1273 C 0.62558 0.12224 0.1765 0.0
C1274 C 0.69369 0.12925 0.14225 0.0
C1275 C 0.64091 0.1253 0.12697 0.0
C1276 C 0.58065 0.1196 0.13667 0.0
C1277 C 0.57315 0.118 0.16133 0.0
C1278 C 0.60521 0.13681 0.06273 0.0
C1279 C 0.65938 0.12909 0.05112 0.0
C1280 C 0.5997 0.1358 0.0875 0.0
C1281 C 0.6485 0.12711 0.10091 0.0
C1282 C 0.70365 0.11979 0.08926 0.0
C1283 C 0.70885 0.1207 0.06443 0.0
H1284 H 0.3793 0.92416 0.80307 0.0
H1285 H 0.27264 0.87475 0.80545 0.0
H1286 H 0.37292 0.92642 0.84637 0.0
H1287 H 0.27075 0.87615 0.84898 0.0
H1288 H 0.23512 0.88938 0.92658 0.0
H1289 H 0.22673 0.89058 0.88296 0.0
H1290 H 0.42297 0.91289 0.87947 0.0
H1291 H 0.42916 0.91241 0.92294 0.0
C1292 C 0.35416 0.91383 0.81291 0.0
C1293 C 0.32653 0.89927 0.80102 0.0
C1294 C 0.35133 0.91497 0.83774 0.0
C1295 C 0.3219 0.90138 0.85121 0.0
C1296 C 0.29313 0.88696 0.83919 0.0
C1297 C 0.29503 0.886 0.8143 0.0
C1298 C 0.27576 0.89473 0.91629 0.0
C1299 C 0.33251 0.90092 0.92776 0.0
C1300 C 0.27135 0.8953 0.89141 0.0
C1301 C 0.32421 0.90182 0.87768 0.0
C1302 C 0.38076 0.90814 0.88944 0.0
C1303 C 0.38464 0.90779 0.91427 0.0
H1304 H 0.56504 0.64365 0.56353 0.0
H1305 H 0.71173 0.6021 0.56529 0.0
H1306 H 0.5768 0.64792 0.60639 0.0
H1307 H 0.7201 0.60527 0.60862 0.0
H1308 H 0.76735 0.62603 0.68245 0.0
H1309 H 0.76052 0.62403 0.63886 0.0
H1310 H 0.55093 0.63487 0.64285 0.0
H1311 H 0.55951 0.63783 0.6861 0.0
C1312 C 0.59957 0.63536 0.57324 0.0
C1313 C 0.638 0.62269 0.56124 0.0
C1314 C 0.60579 0.63763 0.59782 0.0
C1315 C 0.64948 0.62696 0.61103 0.0
C1316 C 0.68694 0.61397 0.59898 0.0
C1317 C 0.68152 0.61195 0.57426 0.0
C1318 C 0.72039 0.62828 0.67373 0.0
C1319 C 0.66409 0.63227 0.6872 0.0
C1320 C 0.7161 0.62692 0.6489 0.0
C1321 C 0.65507 0.6292 0.6373 0.0
C1322 C 0.59895 0.63337 0.65105 0.0
C1323 C 0.6036 0.63502 0.67578 0.0
H1324 H 0.46915 0.40942 0.31781 0.0
H1325 H 0.35278 0.36168 0.31389 0.0
H1326 H 0.46372 0.40842 0.36134 0.0
H1327 H 0.35225 0.35965 0.35719 0.0
H1328 H 0.28958 0.37348 0.43267 0.0
H1329 H 0.30105 0.37341 0.38939 0.0
H1330 H 0.49913 0.39407 0.39632 0.0
H1331 H 0.48521 0.39502 0.43977 0.0
C1332 C 0.44302 0.39862 0.32633 0.0
C1333 C 0.41107 0.3857 0.3126 0.0
C1334 C 0.44071 0.39787 0.35125 0.0
C1335 C 0.4073 0.38398 0.36285 0.0
C1336 C 0.37726 0.37074 0.34893 0.0
C1337 C 0.37844 0.37173 0.32409 0.0
C1338 C 0.33559 0.37786 0.4248 0.0
C1339 C 0.38666 0.38419 0.43922 0.0
C1340 C 0.34251 0.37774 0.40005 0.0
C1341 C 0.40122 0.38366 0.38928 0.0
C1342 C 0.4529 0.38968 0.40395 0.0
C1343 C 0.44537 0.39009 0.42876 0.0
loop_
_geom_bond_atom_site_label_1
_geom_bond_atom_site_label_2
_geom_bond_distance
_geom_bond_site_symmetry_2
_ccdc_geom_bond_type
Co0 O3 1.970 . S
Co0 N17 1.989 . S
Co0 O25 1.967 . S
Co0 O32 1.920 . S
Co1 O4 1.966 . S
Co1 N10 2.022 . S
Co1 N18 1.993 . S
Co1 O26 1.941 . S
C2 O3 1.258 . S
C2 O4 1.263 . S
O3 Co0 1.970 . S
O3 C2 1.258 . S
O4 Co1 1.966 . S
O4 C2 1.263 . S
C5 O6 1.235 . S
C5 O32 1.289 . S
O6 C5 1.235 . S
C7 C9 1.400 . S
C7 N10 1.351 . S
C7 C12 1.501 . S
C8 C9 1.387 . S
C8 N11 1.341 . S
C9 C7 1.400 . S
C9 C8 1.387 . S
N10 Co1 2.022 . S
N10 C7 1.351 . S
N10 N11 1.365 . S
N11 C8 1.341 . S
N11 N10 1.365 . S
N11 H31 0.862 . S
C12 C7 1.501 . S
C12 H13 0.961 . S
C12 H14 0.961 . S
C12 H15 0.960 . S
H13 C12 0.961 . S
H14 C12 0.961 . S
H15 C12 0.960 . S
C16 N17 1.342 . S
C16 C20 1.401 . S
C16 C21 1.499 . S
N17 Co0 1.989 . S
N17 C16 1.342 . S
N17 N18 1.388 . S
N18 Co1 1.993 . S
N18 N17 1.388 . S
N18 C19 1.346 . S
C19 N18 1.346 . S
C19 C20 1.396 . S
C19 C29 1.510 . S
C20 C16 1.401 . S
C20 C19 1.396 . S
C21 C16 1.499 . S
C21 H22 0.959 . S
C21 H23 0.960 . S
C21 H24 0.961 . S
H22 C21 0.959 . S
H23 C21 0.960 . S
H24 C21 0.961 . S
O25 Co0 1.967 . S
O25 C33 1.258 . S
O26 Co1 1.941 . S
O26 C33 1.266 . S
H27 C29 0.959 . S
H28 C29 0.961 . S
C29 C19 1.510 . S
C29 H27 0.959 . S
C29 H28 0.961 . S
C29 H30 0.960 . S
H30 C29 0.960 . S
H31 N11 0.862 . S
O32 Co0 1.920 . S
O32 C5 1.289 . S
C33 O25 1.258 . S
C33 O26 1.266 . S
Co34 O37 1.970 . S
Co34 N51 1.989 . S
Co34 O59 1.967 . S
Co34 O66 1.920 . S
Co35 O38 1.966 . S
Co35 N44 2.022 . S
Co35 N52 1.993 . S
Co35 O60 1.941 . S
C36 O37 1.258 . S
C36 O38 1.263 . S
O37 Co34 1.970 . S
O37 C36 1.258 . S
O38 Co35 1.966 . S
O38 C36 1.263 . S
C39 O40 1.235 . S
C39 O66 1.289 . S
O40 C39 1.235 . S
C41 C43 1.400 . S
C41 N44 1.351 . S
C41 C46 1.501 1_455 S
C42 C43 1.387 . S
C42 N45 1.341 . S
C43 C41 1.400 . S
C43 C42 1.387 . S
N44 Co35 2.022 . S
N44 C41 1.351 . S
N44 N45 1.365 . S
N45 C42 1.341 . S
N45 N44 1.365 . S
N45 H65 0.862 . S
C46 C41 1.501 1_655 S
C46 H47 0.961 . S
C46 H48 0.961 . S
C46 H49 0.960 . S
H47 C46 0.961 . S
H48 C46 0.961 . S
H49 C46 0.960 . S
C50 N51 1.342 . S
C50 C54 1.401 . S
C50 C55 1.499 . S
N51 Co34 1.989 . S
N51 C50 1.342 . S
N51 N52 1.388 . S
N52 Co35 1.993 . S
N52 N51 1.388 . S
N52 C53 1.346 . S
C53 N52 1.346 . S
C53 C54 1.396 . S
C53 C63 1.510 . S
C54 C50 1.401 . S
C54 C53 1.396 . S
C55 C50 1.499 . S
C55 H56 0.959 . S
C55 H57 0.960 . S
C55 H58 0.961 . S
H56 C55 0.959 . S
H57 C55 0.960 . S
H58 C55 0.961 . S
O59 Co34 1.967 . S
O59 C67 1.258 . S
O60 Co35 1.941 . S
O60 C67 1.266 . S
H61 C63 0.959 . S
H62 C63 0.961 . S
C63 C53 1.510 . S
C63 H61 0.959 . S
C63 H62 0.961 . S
C63 H64 0.960 . S
H64 C63 0.960 . S
H65 N45 0.862 . S
O66 Co34 1.920 . S
O66 C39 1.289 . S
C67 O59 1.258 . S
C67 O60 1.266 . S
Co68 O71 1.970 . S
Co68 N85 1.989 . S
Co68 O93 1.967 . S
Co68 O100 1.920 . S
Co69 O72 1.966 . S
Co69 N78 2.022 . S
Co69 N86 1.993 . S
Co69 O94 1.941 . S
C70 O71 1.258 . S
C70 O72 1.263 . S
O71 Co68 1.970 . S
O71 C70 1.258 . S
O72 Co69 1.966 . S
O72 C70 1.263 . S
C73 O74 1.235 . S
C73 O100 1.289 . S
O74 C73 1.235 . S
C75 C77 1.400 . S
C75 N78 1.351 . S
C75 C80 1.501 . S
C76 C77 1.387 . S
C76 N79 1.341 . S
C77 C75 1.400 . S
C77 C76 1.387 . S
N78 Co69 2.022 . S
N78 C75 1.351 . S
N78 N79 1.365 . S
N79 C76 1.341 . S
N79 N78 1.365 . S
N79 H99 0.862 . S
C80 C75 1.501 . S
C80 H81 0.961 . S
C80 H82 0.961 . S
C80 H83 0.960 . S
H81 C80 0.961 . S
H82 C80 0.961 . S
H83 C80 0.960 . S
C84 N85 1.342 . S
C84 C88 1.401 . S
C84 C89 1.499 . S
N85 Co68 1.989 . S
N85 C84 1.342 . S
N85 N86 1.388 . S
N86 Co69 1.993 . S
N86 N85 1.388 . S
N86 C87 1.346 . S
C87 N86 1.346 . S
C87 C88 1.396 . S
C87 C97 1.510 . S
C88 C84 1.401 . S
C88 C87 1.396 . S
C89 C84 1.499 . S
C89 H90 0.959 . S
C89 H91 0.960 . S
C89 H92 0.961 . S
H90 C89 0.959 . S
H91 C89 0.960 . S
H92 C89 0.961 . S
O93 Co68 1.967 . S
O93 C101 1.258 . S
O94 Co69 1.941 . S
O94 C101 1.266 . S
H95 C97 0.959 . S
H96 C97 0.961 . S
C97 C87 1.510 . S
C97 H95 0.959 . S
C97 H96 0.961 . S
C97 H98 0.960 . S
H98 C97 0.960 . S
H99 N79 0.862 . S
O100 Co68 1.920 . S
O100 C73 1.289 . S
C101 O93 1.258 . S
C101 O94 1.266 . S
Co102 O105 1.970 . S
Co102 N119 1.989 . S
Co102 O127 1.967 . S
Co102 O134 1.920 . S
Co103 O106 1.966 . S
Co103 N112 2.022 . S
Co103 N120 1.993 . S
Co103 O128 1.941 . S
C104 O105 1.258 . S
C104 O106 1.263 . S
O105 Co102 1.970 . S
O105 C104 1.258 . S
O106 Co103 1.966 . S
O106 C104 1.263 . S
C107 O108 1.235 . S
C107 O134 1.289 . S
O108 C107 1.235 . S
C109 C111 1.400 . S
C109 N112 1.351 . S
C109 C114 1.501 1_655 S
C110 C111 1.387 . S
C110 N113 1.341 . S
C111 C109 1.400 . S
C111 C110 1.387 . S
N112 Co103 2.022 . S
N112 C109 1.351 . S
N112 N113 1.365 . S
N113 C110 1.341 . S
N113 N112 1.365 . S
N113 H133 0.862 . S
C114 C109 1.501 1_455 S
C114 H115 0.961 . S
C114 H116 0.961 . S
C114 H117 0.960 . S
H115 C114 0.961 . S
H116 C114 0.961 . S
H117 C114 0.960 . S
C118 N119 1.342 . S
C118 C122 1.401 . S
C118 C123 1.499 . S
N119 Co102 1.989 . S
N119 C118 1.342 . S
N119 N120 1.388 . S
N120 Co103 1.993 . S
N120 N119 1.388 . S
N120 C121 1.346 . S
C121 N120 1.346 . S
C121 C122 1.396 . S
C121 C131 1.510 . S
C122 C118 1.401 . S
C122 C121 1.396 . S
C123 C118 1.499 . S
C123 H124 0.959 . S
C123 H125 0.960 . S
C123 H126 0.961 . S
H124 C123 0.959 . S
H125 C123 0.960 . S
H126 C123 0.961 . S
O127 Co102 1.967 . S
O127 C135 1.258 . S
O128 Co103 1.941 . S
O128 C135 1.266 . S
H129 C131 0.959 . S
H130 C131 0.961 . S
C131 C121 1.510 . S
C131 H129 0.959 . S
C131 H130 0.961 . S
C131 H132 0.960 . S
H132 C131 0.960 . S
H133 N113 0.862 . S
O134 Co102 1.920 . S
O134 C107 1.289 . S
C135 O127 1.258 . S
C135 O128 1.266 . S
Co136 O139 1.970 . S
Co136 N153 1.989 1_556 S
Co136 O161 1.967 . S
Co136 O168 1.920 . S
Co137 O140 1.966 . S
Co137 N146 2.022 . S
Co137 N154 1.993 1_556 S
Co137 O162 1.941 . S
C138 O139 1.258 . S
C138 O140 1.263 . S
O139 Co136 1.970 . S
O139 C138 1.258 . S
O140 Co137 1.966 . S
O140 C138 1.263 . S
C141 O142 1.235 . S
C141 O168 1.289 . S
O142 C141 1.235 . S
C143 C145 1.400 . S
C143 N146 1.351 . S
C143 C148 1.501 . S
C144 C145 1.387 . S
C144 N147 1.341 . S
C145 C143 1.400 . S
C145 C144 1.387 . S
N146 Co137 2.022 . S
N146 C143 1.351 . S
N146 N147 1.365 . S
N147 C144 1.341 . S
N147 N146 1.365 . S
N147 H167 0.862 . S
C148 C143 1.501 . S
C148 H149 0.961 . S
C148 H150 0.961 . S
C148 H151 0.960 . S
H149 C148 0.961 . S
H150 C148 0.961 . S
H151 C148 0.960 . S
C152 N153 1.342 . S
C152 C156 1.401 . S
C152 C157 1.499 . S
N153 Co136 1.989 1_554 S
N153 C152 1.342 . S
N153 N154 1.388 . S
N154 Co137 1.993 1_554 S
N154 N153 1.388 . S
N154 C155 1.346 . S
C155 N154 1.346 . S
C155 C156 1.396 . S
C155 C165 1.510 . S
C156 C152 1.401 . S
C156 C155 1.396 . S
C157 C152 1.499 . S
C157 H158 0.959 . S
C157 H159 0.960 . S
C157 H160 0.961 . S
H158 C157 0.959 . S
H159 C157 0.960 . S
H160 C157 0.961 . S
O161 Co136 1.967 . S
O161 C169 1.258 . S
O162 Co137 1.941 . S
O162 C169 1.266 . S
H163 C165 0.959 . S
H164 C165 0.961 . S
C165 C155 1.510 . S
C165 H163 0.959 . S
C165 H164 0.961 . S
C165 H166 0.960 . S
H166 C165 0.960 . S
H167 N147 0.862 . S
O168 Co136 1.920 . S
O168 C141 1.289 . S
C169 O161 1.258 . S
C169 O162 1.266 . S
Co170 O173 1.970 . S
Co170 N187 1.989 . S
Co170 O195 1.967 . S
Co170 O202 1.920 . S
Co171 O174 1.966 . S
Co171 N180 2.022 . S
Co171 N188 1.993 . S
Co171 O196 1.941 . S
C172 O173 1.258 . S
C172 O174 1.263 . S
O173 Co170 1.970 . S
O173 C172 1.258 . S
O174 Co171 1.966 . S
O174 C172 1.263 . S
C175 O176 1.235 . S
C175 O202 1.289 . S
O176 C175 1.235 . S
C177 C179 1.400 . S
C177 N180 1.351 . S
C177 C182 1.501 1_455 S
C178 C179 1.387 . S
C178 N181 1.341 . S
C179 C177 1.400 . S
C179 C178 1.387 . S
N180 Co171 2.022 . S
N180 C177 1.351 . S
N180 N181 1.365 . S
N181 C178 1.341 . S
N181 N180 1.365 . S
N181 H201 0.862 . S
C182 C177 1.501 1_655 S
C182 H183 0.961 . S
C182 H184 0.961 . S
C182 H185 0.960 . S
H183 C182 0.961 . S
H184 C182 0.961 . S
H185 C182 0.960 . S
C186 N187 1.342 . S
C186 C190 1.401 . S
C186 C191 1.499 . S
N187 Co170 1.989 . S
N187 C186 1.342 . S
N187 N188 1.388 . S
N188 Co171 1.993 . S
N188 N187 1.388 . S
N188 C189 1.346 . S
C189 N188 1.346 . S
C189 C190 1.396 . S
C189 C199 1.510 . S
C190 C186 1.401 . S
C190 C189 1.396 . S
C191 C186 1.499 . S
C191 H192 0.959 . S
C191 H193 0.960 . S
C191 H194 0.961 . S
H192 C191 0.959 . S
H193 C191 0.960 . S
H194 C191 0.961 . S
O195 Co170 1.967 . S
O195 C203 1.258 . S
O196 Co171 1.941 . S
O196 C203 1.266 . S
H197 C199 0.959 . S
H198 C199 0.961 . S
C199 C189 1.510 . S
C199 H197 0.959 . S
C199 H198 0.961 . S
C199 H200 0.960 . S
H200 C199 0.960 . S
H201 N181 0.862 . S
O202 Co170 1.920 . S
O202 C175 1.289 . S
C203 O195 1.258 . S
C203 O196 1.266 . S
Co204 O207 1.970 . S
Co204 N221 1.989 1_554 S
Co204 O229 1.967 . S
Co204 O236 1.920 . S
Co205 O208 1.966 . S
Co205 N214 2.022 . S
Co205 N222 1.993 1_554 S
Co205 O230 1.941 . S
C206 O207 1.258 . S
C206 O208 1.263 . S
O207 Co204 1.970 . S
O207 C206 1.258 . S
O208 Co205 1.966 . S
O208 C206 1.263 . S
C209 O210 1.235 . S
C209 O236 1.289 . S
O210 C209 1.235 . S
C211 C213 1.400 . S
C211 N214 1.351 . S
C211 C216 1.501 . S
C212 C213 1.387 . S
C212 N215 1.341 . S
C213 C211 1.400 . S
C213 C212 1.387 . S
N214 Co205 2.022 . S
N214 C211 1.351 . S
N214 N215 1.365 . S
N215 C212 1.341 . S
N215 N214 1.365 . S
N215 H235 0.862 . S
C216 C211 1.501 . S
C216 H217 0.961 . S
C216 H218 0.961 . S
C216 H219 0.960 . S
H217 C216 0.961 . S
H218 C216 0.961 . S
H219 C216 0.960 . S
C220 N221 1.342 . S
C220 C224 1.401 . S
C220 C225 1.499 . S
N221 Co204 1.989 1_556 S
N221 C220 1.342 . S
N221 N222 1.388 . S
N222 Co205 1.993 1_556 S
N222 N221 1.388 . S
N222 C223 1.346 . S
C223 N222 1.346 . S
C223 C224 1.396 . S
C223 C233 1.510 . S
C224 C220 1.401 . S
C224 C223 1.396 . S
C225 C220 1.499 . S
C225 H226 0.959 . S
C225 H227 0.960 . S
C225 H228 0.961 . S
H226 C225 0.959 . S
H227 C225 0.960 . S
H228 C225 0.961 . S
O229 Co204 1.967 . S
O229 C237 1.258 . S
O230 Co205 1.941 . S
O230 C237 1.266 . S
H231 C233 0.959 . S
H232 C233 0.961 . S
C233 C223 1.510 . S
C233 H231 0.959 . S
C233 H232 0.961 . S
C233 H234 0.960 . S
H234 C233 0.960 . S
H235 N215 0.862 . S
O236 Co204 1.920 . S
O236 C209 1.289 . S
C237 O229 1.258 . S
C237 O230 1.266 . S
Co238 O241 1.970 . S
Co238 N255 1.989 . S
Co238 O263 1.967 . S
Co238 O270 1.920 . S
Co239 O242 1.966 . S
Co239 N248 2.022 . S
Co239 N256 1.993 . S
Co239 O264 1.941 . S
C240 O241 1.258 . S
C240 O242 1.263 . S
O241 Co238 1.970 . S
O241 C240 1.258 . S
O242 Co239 1.966 . S
O242 C240 1.263 . S
C243 O244 1.235 . S
C243 O270 1.289 . S
O244 C243 1.235 . S
C245 C247 1.400 . S
C245 N248 1.351 . S
C245 C250 1.501 1_655 S
C246 C247 1.387 . S
C246 N249 1.341 . S
C247 C245 1.400 . S
C247 C246 1.387 . S
N248 Co239 2.022 . S
N248 C245 1.351 . S
N248 N249 1.365 . S
N249 C246 1.341 . S
N249 N248 1.365 . S
N249 H269 0.862 . S
C250 C245 1.501 1_455 S
C250 H251 0.961 . S
C250 H252 0.961 . S
C250 H253 0.960 . S
H251 C250 0.961 . S
H252 C250 0.961 . S
H253 C250 0.960 . S
C254 N255 1.342 . S
C254 C258 1.401 . S
C254 C259 1.499 . S
N255 Co238 1.989 . S
N255 C254 1.342 . S
N255 N256 1.388 . S
N256 Co239 1.993 . S
N256 N255 1.388 . S
N256 C257 1.346 . S
C257 N256 1.346 . S
C257 C258 1.396 . S
C257 C267 1.510 . S
C258 C254 1.401 . S
C258 C257 1.396 . S
C259 C254 1.499 . S
C259 H260 0.959 . S
C259 H261 0.960 . S
C259 H262 0.961 . S
H260 C259 0.959 . S
H261 C259 0.960 . S
H262 C259 0.961 . S
O263 Co238 1.967 . S
O263 C271 1.258 . S
O264 Co239 1.941 . S
O264 C271 1.266 . S
H265 C267 0.959 . S
H266 C267 0.961 . S
C267 C257 1.510 . S
C267 H265 0.959 . S
C267 H266 0.961 . S
C267 H268 0.960 . S
H268 C267 0.960 . S
H269 N249 0.862 . S
O270 Co238 1.920 . S
O270 C243 1.289 . S
C271 O263 1.258 . S
C271 O264 1.266 . S
Co272 O275 1.970 . S
Co272 N289 1.989 1_556 S
Co272 O297 1.967 . S
Co272 O304 1.920 . S
Co273 O276 1.966 . S
Co273 N282 2.022 . S
Co273 N290 1.993 1_556 S
Co273 O298 1.941 . S
C274 O275 1.258 . S
C274 O276 1.263 . S
O275 Co272 1.970 . S
O275 C274 1.258 . S
O276 Co273 1.966 . S
O276 C274 1.263 . S
C277 O278 1.235 . S
C277 O304 1.289 . S
O278 C277 1.235 . S
C279 C281 1.400 . S
C279 N282 1.351 . S
C279 C284 1.501 . S
C280 C281 1.387 . S
C280 N283 1.341 . S
C281 C279 1.400 . S
C281 C280 1.387 . S
N282 Co273 2.022 . S
N282 C279 1.351 . S
N282 N283 1.365 . S
N283 C280 1.341 . S
N283 N282 1.365 . S
N283 H303 0.862 . S
C284 C279 1.501 . S
C284 H285 0.961 . S
C284 H286 0.961 . S
C284 H287 0.960 . S
H285 C284 0.961 . S
H286 C284 0.961 . S
H287 C284 0.960 . S
C288 N289 1.342 . S
C288 C292 1.401 . S
C288 C293 1.499 . S
N289 Co272 1.989 1_554 S
N289 C288 1.342 . S
N289 N290 1.388 . S
N290 Co273 1.993 1_554 S
N290 N289 1.388 . S
N290 C291 1.346 . S
C291 N290 1.346 . S
C291 C292 1.396 . S
C291 C301 1.510 . S
C292 C288 1.401 . S
C292 C291 1.396 . S
C293 C288 1.499 . S
C293 H294 0.959 . S
C293 H295 0.960 . S
C293 H296 0.961 . S
H294 C293 0.959 . S
H295 C293 0.960 . S
H296 C293 0.961 . S
O297 Co272 1.967 . S
O297 C305 1.258 . S
O298 Co273 1.941 . S
O298 C305 1.266 . S
H299 C301 0.959 . S
H300 C301 0.961 . S
C301 C291 1.510 . S
C301 H299 0.959 . S
C301 H300 0.961 . S
C301 H302 0.960 . S
H302 C301 0.960 . S
H303 N283 0.862 . S
O304 Co272 1.920 . S
O304 C277 1.289 . S
C305 O297 1.258 . S
C305 O298 1.266 . S
Co306 O309 1.970 . S
Co306 N323 1.989 . S
Co306 O331 1.967 . S
Co306 O338 1.920 . S
Co307 O310 1.966 . S
Co307 N316 2.022 . S
Co307 N324 1.993 . S
Co307 O332 1.941 . S
C308 O309 1.258 . S
C308 O310 1.263 . S
O309 Co306 1.970 . S
O309 C308 1.258 . S
O310 Co307 1.966 . S
O310 C308 1.263 . S
C311 O312 1.235 . S
C311 O338 1.289 . S
O312 C311 1.235 . S
C313 C315 1.400 . S
C313 N316 1.351 . S
C313 C318 1.501 . S
C314 C315 1.387 . S
C314 N317 1.341 . S
C315 C313 1.400 . S
C315 C314 1.387 . S
N316 Co307 2.022 . S
N316 C313 1.351 . S
N316 N317 1.365 . S
N317 C314 1.341 . S
N317 N316 1.365 . S
N317 H337 0.862 . S
C318 C313 1.501 . S
C318 H319 0.961 . S
C318 H320 0.961 . S
C318 H321 0.960 . S
H319 C318 0.961 . S
H320 C318 0.961 . S
H321 C318 0.960 . S
C322 N323 1.342 . S
C322 C326 1.401 . S
C322 C327 1.499 . S
N323 Co306 1.989 . S
N323 C322 1.342 . S
N323 N324 1.388 . S
N324 Co307 1.993 . S
N324 N323 1.388 . S
N324 C325 1.346 . S
C325 N324 1.346 . S
C325 C326 1.396 . S
C325 C335 1.510 . S
C326 C322 1.401 . S
C326 C325 1.396 . S
C327 C322 1.499 . S
C327 H328 0.959 . S
C327 H329 0.960 . S
C327 H330 0.961 . S
H328 C327 0.959 . S
H329 C327 0.960 . S
H330 C327 0.961 . S
O331 Co306 1.967 . S
O331 C339 1.258 . S
O332 Co307 1.941 . S
O332 C339 1.266 . S
H333 C335 0.959 . S
H334 C335 0.961 . S
C335 C325 1.510 . S
C335 H333 0.959 . S
C335 H334 0.961 . S
C335 H336 0.960 . S
H336 C335 0.960 . S
H337 N317 0.862 . S
O338 Co306 1.920 . S
O338 C311 1.289 . S
C339 O331 1.258 . S
C339 O332 1.266 . S
Co340 O343 1.970 . S
Co340 N357 1.989 1_554 S
Co340 O365 1.967 . S
Co340 O372 1.920 . S
Co341 O344 1.966 . S
Co341 N350 2.022 . S
Co341 N358 1.993 1_554 S
Co341 O366 1.941 . S
C342 O343 1.258 . S
C342 O344 1.263 . S
O343 Co340 1.970 . S
O343 C342 1.258 . S
O344 Co341 1.966 . S
O344 C342 1.263 . S
C345 O346 1.235 . S
C345 O372 1.289 . S
O346 C345 1.235 . S
C347 C349 1.400 . S
C347 N350 1.351 . S
C347 C352 1.501 . S
C348 C349 1.387 . S
C348 N351 1.341 . S
C349 C347 1.400 . S
C349 C348 1.387 . S
N350 Co341 2.022 . S
N350 C347 1.351 . S
N350 N351 1.365 . S
N351 C348 1.341 . S
N351 N350 1.365 . S
N351 H371 0.862 . S
C352 C347 1.501 . S
C352 H353 0.961 . S
C352 H354 0.961 . S
C352 H355 0.960 . S
H353 C352 0.961 . S
H354 C352 0.961 . S
H355 C352 0.960 . S
C356 N357 1.342 . S
C356 C360 1.401 . S
C356 C361 1.499 . S
N357 Co340 1.989 1_556 S
N357 C356 1.342 . S
N357 N358 1.388 . S
N358 Co341 1.993 1_556 S
N358 N357 1.388 . S
N358 C359 1.346 . S
C359 N358 1.346 . S
C359 C360 1.396 . S
C359 C369 1.510 . S
C360 C356 1.401 . S
C360 C359 1.396 . S
C361 C356 1.499 . S
C361 H362 0.959 . S
C361 H363 0.960 . S
C361 H364 0.961 . S
H362 C361 0.959 . S
H363 C361 0.960 . S
H364 C361 0.961 . S
O365 Co340 1.967 . S
O365 C373 1.258 . S
O366 Co341 1.941 . S
O366 C373 1.266 . S
H367 C369 0.959 . S
H368 C369 0.961 . S
C369 C359 1.510 . S
C369 H367 0.959 . S
C369 H368 0.961 . S
C369 H370 0.960 . S
H370 C369 0.960 . S
H371 N351 0.862 . S
O372 Co340 1.920 . S
O372 C345 1.289 . S
C373 O365 1.258 . S
C373 O366 1.266 . S
Co374 O377 1.970 . S
Co374 N391 1.989 . S
Co374 O399 1.967 . S
Co374 O406 1.920 . S
Co375 O378 1.966 . S
Co375 N384 2.022 . S
Co375 N392 1.993 . S
Co375 O400 1.941 . S
C376 O377 1.258 . S
C376 O378 1.263 . S
O377 Co374 1.970 . S
O377 C376 1.258 . S
O378 Co375 1.966 . S
O378 C376 1.263 . S
C379 O380 1.235 . S
C379 O406 1.289 . S
O380 C379 1.235 . S
C381 C383 1.400 . S
C381 N384 1.351 . S
C381 C386 1.501 . S
C382 C383 1.387 . S
C382 N385 1.341 . S
C383 C381 1.400 . S
C383 C382 1.387 . S
N384 Co375 2.022 . S
N384 C381 1.351 . S
N384 N385 1.365 . S
N385 C382 1.341 . S
N385 N384 1.365 . S
N385 H405 0.862 . S
C386 C381 1.501 . S
C386 H387 0.961 . S
C386 H388 0.961 . S
C386 H389 0.960 . S
H387 C386 0.961 . S
H388 C386 0.961 . S
H389 C386 0.960 . S
C390 N391 1.342 . S
C390 C394 1.401 . S
C390 C395 1.499 . S
N391 Co374 1.989 . S
N391 C390 1.342 . S
N391 N392 1.388 . S
N392 Co375 1.993 . S
N392 N391 1.388 . S
N392 C393 1.346 . S
C393 N392 1.346 . S
C393 C394 1.396 . S
C393 C403 1.510 . S
C394 C390 1.401 . S
C394 C393 1.396 . S
C395 C390 1.499 . S
C395 H396 0.959 . S
C395 H397 0.960 . S
C395 H398 0.961 . S
H396 C395 0.959 . S
H397 C395 0.960 . S
H398 C395 0.961 . S
O399 Co374 1.967 . S
O399 C407 1.258 . S
O400 Co375 1.941 . S
O400 C407 1.266 . S
H401 C403 0.959 . S
H402 C403 0.961 . S
C403 C393 1.510 . S
C403 H401 0.959 . S
C403 H402 0.961 . S
C403 H404 0.960 . S
H404 C403 0.960 . S
H405 N385 0.862 . S
O406 Co374 1.920 . S
O406 C379 1.289 . S
C407 O399 1.258 . S
C407 O400 1.266 . S
Co408 O411 1.970 . S
Co408 N425 1.989 . S
Co408 O433 1.967 . S
Co408 O440 1.920 . S
Co409 O412 1.966 . S
Co409 N418 2.022 . S
Co409 N426 1.993 . S
Co409 O434 1.941 . S
C410 O411 1.258 . S
C410 O412 1.263 . S
O411 Co408 1.970 . S
O411 C410 1.258 . S
O412 Co409 1.966 . S
O412 C410 1.263 . S
C413 O414 1.235 . S
C413 O440 1.289 . S
O414 C413 1.235 . S
C415 C417 1.400 . S
C415 N418 1.351 . S
C415 C420 1.501 . S
C416 C417 1.387 . S
C416 N419 1.341 . S
C417 C415 1.400 . S
C417 C416 1.387 . S
N418 Co409 2.022 . S
N418 C415 1.351 . S
N418 N419 1.365 . S
N419 C416 1.341 . S
N419 N418 1.365 . S
N419 H439 0.862 . S
C420 C415 1.501 . S
C420 H421 0.961 . S
C420 H422 0.961 . S
C420 H423 0.960 . S
H421 C420 0.961 . S
H422 C420 0.961 . S
H423 C420 0.960 . S
C424 N425 1.342 . S
C424 C428 1.401 . S
C424 C429 1.499 . S
N425 Co408 1.989 . S
N425 C424 1.342 . S
N425 N426 1.388 . S
N426 Co409 1.993 . S
N426 N425 1.388 . S
N426 C427 1.346 . S
C427 N426 1.346 . S
C427 C428 1.396 . S
C427 C437 1.510 . S
C428 C424 1.401 . S
C428 C427 1.396 . S
C429 C424 1.499 . S
C429 H430 0.959 . S
C429 H431 0.960 . S
C429 H432 0.961 . S
H430 C429 0.959 . S
H431 C429 0.960 . S
H432 C429 0.961 . S
O433 Co408 1.967 . S
O433 C441 1.258 . S
O434 Co409 1.941 . S
O434 C441 1.266 . S
H435 C437 0.959 . S
H436 C437 0.961 . S
C437 C427 1.510 . S
C437 H435 0.959 . S
C437 H436 0.961 . S
C437 H438 0.960 . S
H438 C437 0.960 . S
H439 N419 0.862 . S
O440 Co408 1.920 . S
O440 C413 1.289 . S
C441 O433 1.258 . S
C441 O434 1.266 . S
Co442 O445 1.970 . S
Co442 N459 1.989 . S
Co442 O467 1.967 . S
Co442 O474 1.920 . S
Co443 O446 1.966 . S
Co443 N452 2.022 . S
Co443 N460 1.993 . S
Co443 O468 1.941 . S
C444 O445 1.258 . S
C444 O446 1.263 . S
O445 Co442 1.970 . S
O445 C444 1.258 . S
O446 Co443 1.966 . S
O446 C444 1.263 . S
C447 O448 1.235 . S
C447 O474 1.289 . S
O448 C447 1.235 . S
C449 C451 1.400 . S
C449 N452 1.351 . S
C449 C454 1.501 . S
C450 C451 1.387 . S
C450 N453 1.341 . S
C451 C449 1.400 . S
C451 C450 1.387 . S
N452 Co443 2.022 . S
N452 C449 1.351 . S
N452 N453 1.365 . S
N453 C450 1.341 . S
N453 N452 1.365 . S
N453 H473 0.862 . S
C454 C449 1.501 . S
C454 H455 0.961 . S
C454 H456 0.961 . S
C454 H457 0.960 . S
H455 C454 0.961 . S
H456 C454 0.961 . S
H457 C454 0.960 . S
C458 N459 1.342 . S
C458 C462 1.401 . S
C458 C463 1.499 . S
N459 Co442 1.989 . S
N459 C458 1.342 . S
N459 N460 1.388 . S
N460 Co443 1.993 . S
N460 N459 1.388 . S
N460 C461 1.346 . S
C461 N460 1.346 . S
C461 C462 1.396 . S
C461 C471 1.510 . S
C462 C458 1.401 . S
C462 C461 1.396 . S
C463 C458 1.499 . S
C463 H464 0.959 . S
C463 H465 0.960 . S
C463 H466 0.961 . S
H464 C463 0.959 . S
H465 C463 0.960 . S
H466 C463 0.961 . S
O467 Co442 1.967 . S
O467 C475 1.258 . S
O468 Co443 1.941 . S
O468 C475 1.266 . S
H469 C471 0.959 . S
H470 C471 0.961 . S
C471 C461 1.510 . S
C471 H469 0.959 . S
C471 H470 0.961 . S
C471 H472 0.960 . S
H472 C471 0.960 . S
H473 N453 0.862 . S
O474 Co442 1.920 . S
O474 C447 1.289 . S
C475 O467 1.258 . S
C475 O468 1.266 . S
Co476 O479 1.970 . S
Co476 N493 1.989 . S
Co476 O501 1.967 . S
Co476 O508 1.920 . S
Co477 O480 1.966 . S
Co477 N486 2.022 . S
Co477 N494 1.993 . S
Co477 O502 1.941 . S
C478 O479 1.258 . S
C478 O480 1.263 . S
O479 Co476 1.970 . S
O479 C478 1.258 . S
O480 Co477 1.966 . S
O480 C478 1.263 . S
C481 O482 1.235 . S
C481 O508 1.289 . S
O482 C481 1.235 . S
C483 C485 1.400 . S
C483 N486 1.351 . S
C483 C488 1.501 . S
C484 C485 1.387 . S
C484 N487 1.341 . S
C485 C483 1.400 . S
C485 C484 1.387 . S
N486 Co477 2.022 . S
N486 C483 1.351 . S
N486 N487 1.365 . S
N487 C484 1.341 . S
N487 N486 1.365 . S
N487 H507 0.862 . S
C488 C483 1.501 . S
C488 H489 0.961 . S
C488 H490 0.961 . S
C488 H491 0.960 . S
H489 C488 0.961 . S
H490 C488 0.961 . S
H491 C488 0.960 . S
C492 N493 1.342 . S
C492 C496 1.401 . S
C492 C497 1.499 . S
N493 Co476 1.989 . S
N493 C492 1.342 . S
N493 N494 1.388 . S
N494 Co477 1.993 . S
N494 N493 1.388 . S
N494 C495 1.346 . S
C495 N494 1.346 . S
C495 C496 1.396 . S
C495 C505 1.510 . S
C496 C492 1.401 . S
C496 C495 1.396 . S
C497 C492 1.499 . S
C497 H498 0.959 . S
C497 H499 0.960 . S
C497 H500 0.961 . S
H498 C497 0.959 . S
H499 C497 0.960 . S
H500 C497 0.961 . S
O501 Co476 1.967 . S
O501 C509 1.258 . S
O502 Co477 1.941 . S
O502 C509 1.266 . S
H503 C505 0.959 . S
H504 C505 0.961 . S
C505 C495 1.510 . S
C505 H503 0.959 . S
C505 H504 0.961 . S
C505 H506 0.960 . S
H506 C505 0.960 . S
H507 N487 0.862 . S
O508 Co476 1.920 . S
O508 C481 1.289 . S
C509 O501 1.258 . S
C509 O502 1.266 . S
Co510 O513 1.970 . S
Co510 N527 1.989 . S
Co510 O535 1.967 . S
Co510 O542 1.920 . S
Co511 O514 1.966 . S
Co511 N520 2.022 . S
Co511 N528 1.993 . S
Co511 O536 1.941 . S
C512 O513 1.258 . S
C512 O514 1.263 . S
O513 Co510 1.970 . S
O513 C512 1.258 . S
O514 Co511 1.966 . S
O514 C512 1.263 . S
C515 O516 1.235 . S
C515 O542 1.289 . S
O516 C515 1.235 . S
C517 C519 1.400 . S
C517 N520 1.351 . S
C517 C522 1.501 . S
C518 C519 1.387 . S
C518 N521 1.341 . S
C519 C517 1.400 . S
C519 C518 1.387 . S
N520 Co511 2.022 . S
N520 C517 1.351 . S
N520 N521 1.365 . S
N521 C518 1.341 . S
N521 N520 1.365 . S
N521 H541 0.862 . S
C522 C517 1.501 . S
C522 H523 0.961 . S
C522 H524 0.961 . S
C522 H525 0.960 . S
H523 C522 0.961 . S
H524 C522 0.961 . S
H525 C522 0.960 . S
C526 N527 1.342 . S
C526 C530 1.401 . S
C526 C531 1.499 . S
N527 Co510 1.989 . S
N527 C526 1.342 . S
N527 N528 1.388 . S
N528 Co511 1.993 . S
N528 N527 1.388 . S
N528 C529 1.346 . S
C529 N528 1.346 . S
C529 C530 1.396 . S
C529 C539 1.510 . S
C530 C526 1.401 . S
C530 C529 1.396 . S
C531 C526 1.499 . S
C531 H532 0.959 . S
C531 H533 0.960 . S
C531 H534 0.961 . S
H532 C531 0.959 . S
H533 C531 0.960 . S
H534 C531 0.961 . S
O535 Co510 1.967 . S
O535 C543 1.258 . S
O536 Co511 1.941 . S
O536 C543 1.266 . S
H537 C539 0.959 . S
H538 C539 0.961 . S
C539 C529 1.510 . S
C539 H537 0.959 . S
C539 H538 0.961 . S
C539 H540 0.960 . S
H540 C539 0.960 . S
H541 N521 0.862 . S
O542 Co510 1.920 . S
O542 C515 1.289 . S
C543 O535 1.258 . S
C543 O536 1.266 . S
H544 C552 0.950 . S
H545 C557 0.950 . S
H546 C554 0.950 . S
H547 C556 0.950 . S
H548 C558 0.950 . S
H549 C560 0.950 . S
H550 C562 0.950 . S
H551 C563 0.950 . S
C552 H544 0.950 . S
C552 C553 1.386 . S
C552 C554 1.391 . S
C553 C552 1.386 . S
C553 C557 1.393 . S
C554 H546 0.950 . S
C554 C552 1.391 . S
C554 C555 1.400 . S
C555 C554 1.400 . S
C555 C556 1.398 . S
C555 C561 1.491 . S
C556 H547 0.950 . S
C556 C555 1.398 . S
C556 C557 1.391 . S
C557 H545 0.950 . S
C557 C553 1.393 . S
C557 C556 1.391 . S
C558 H548 0.950 . S
C558 C559 1.386 . S
C558 C560 1.391 . S
C559 C558 1.386 . S
C559 C563 1.393 . S
C560 H549 0.950 . S
C560 C558 1.391 . S
C560 C561 1.400 . S
C561 C555 1.491 . S
C561 C560 1.400 . S
C561 C562 1.398 . S
C562 H550 0.950 . S
C562 C561 1.398 . S
C562 C563 1.391 . S
C563 H551 0.950 . S
C563 C559 1.393 . S
C563 C562 1.391 . S
H564 C572 0.950 . S
H565 C577 0.950 . S
H566 C574 0.950 . S
H567 C576 0.950 . S
H568 C578 0.950 . S
H569 C580 0.950 . S
H570 C582 0.950 . S
H571 C583 0.950 . S
C572 H564 0.950 . S
C572 C573 1.386 . S
C572 C574 1.391 . S
C573 C572 1.386 . S
C573 C577 1.393 . S
C574 H566 0.950 . S
C574 C572 1.391 . S
C574 C575 1.400 . S
C575 C574 1.400 . S
C575 C576 1.398 1_655 S
C575 C581 1.491 1_665 S
C576 H567 0.950 . S
C576 C575 1.398 1_455 S
C576 C577 1.391 1_455 S
C577 H565 0.950 . S
C577 C573 1.393 . S
C577 C576 1.391 1_655 S
C578 H568 0.950 . S
C578 C579 1.386 . S
C578 C580 1.391 . S
C579 C578 1.386 . S
C579 C583 1.393 . S
C580 H569 0.950 . S
C580 C578 1.391 . S
C580 C581 1.400 . S
C581 C575 1.491 1_445 S
C581 C580 1.400 . S
C581 C582 1.398 1_455 S
C582 H570 0.950 . S
C582 C581 1.398 1_655 S
C582 C583 1.391 1_655 S
C583 H571 0.950 . S
C583 C579 1.393 . S
C583 C582 1.391 1_455 S
H584 C592 0.950 . S
H585 C597 0.950 . S
H586 C594 0.950 . S
H587 C596 0.950 . S
H588 C598 0.950 . S
H589 C600 0.950 . S
H590 C602 0.950 . S
H591 C603 0.950 . S
C592 H584 0.950 . S
C592 C593 1.386 . S
C592 C594 1.391 . S
C593 C592 1.386 . S
C593 C597 1.393 . S
C594 H586 0.950 . S
C594 C592 1.391 . S
C594 C595 1.400 . S
C595 C594 1.400 . S
C595 C596 1.398 . S
C595 C601 1.491 1_545 S
C596 H587 0.950 . S
C596 C595 1.398 . S
C596 C597 1.391 . S
C597 H585 0.950 . S
C597 C593 1.393 . S
C597 C596 1.391 . S
C598 H588 0.950 . S
C598 C599 1.386 . S
C598 C600 1.391 . S
C599 C598 1.386 . S
C599 C603 1.393 . S
C600 H589 0.950 . S
C600 C598 1.391 . S
C600 C601 1.400 . S
C601 C595 1.491 1_565 S
C601 C600 1.400 . S
C601 C602 1.398 . S
C602 H590 0.950 . S
C602 C601 1.398 . S
C602 C603 1.391 . S
C603 H591 0.950 . S
C603 C599 1.393 . S
C603 C602 1.391 . S
H604 C612 0.950 . S
H605 C617 0.950 . S
H606 C614 0.950 . S
H607 C616 0.950 . S
H608 C618 0.950 . S
H609 C620 0.950 . S
H610 C622 0.950 . S
H611 C623 0.950 . S
C612 H604 0.950 . S
C612 C613 1.386 1_455 S
C612 C614 1.391 . S
C613 C612 1.386 1_655 S
C613 C617 1.393 . S
C614 H606 0.950 . S
C614 C612 1.391 . S
C614 C615 1.400 1_455 S
C615 C614 1.400 1_655 S
C615 C616 1.398 . S
C615 C621 1.491 1_655 S
C616 H607 0.950 . S
C616 C615 1.398 . S
C616 C617 1.391 . S
C617 H605 0.950 . S
C617 C613 1.393 . S
C617 C616 1.391 . S
C618 H608 0.950 . S
C618 C619 1.386 1_655 S
C618 C620 1.391 . S
C619 C618 1.386 1_455 S
C619 C623 1.393 . S
C620 H609 0.950 . S
C620 C618 1.391 . S
C620 C621 1.400 1_655 S
C621 C615 1.491 1_455 S
C621 C620 1.400 1_455 S
C621 C622 1.398 . S
C622 H610 0.950 . S
C622 C621 1.398 . S
C622 C623 1.391 . S
C623 H611 0.950 . S
C623 C619 1.393 . S
C623 C622 1.391 . S
H624 C632 0.950 . S
H625 C637 0.950 . S
H626 C634 0.950 . S
H627 C636 0.950 . S
H628 C638 0.950 . S
H629 C640 0.950 . S
H630 C642 0.950 . S
H631 C643 0.950 . S
C632 H624 0.950 . S
C632 C633 1.386 . S
C632 C634 1.391 . S
C633 C632 1.386 . S
C633 C637 1.393 . S
C634 H626 0.950 . S
C634 C632 1.391 . S
C634 C635 1.400 . S
C635 C634 1.400 . S
C635 C636 1.398 . S
C635 C641 1.491 . S
C636 H627 0.950 . S
C636 C635 1.398 . S
C636 C637 1.391 . S
C637 H625 0.950 . S
C637 C633 1.393 . S
C637 C636 1.391 . S
C638 H628 0.950 . S
C638 C639 1.386 . S
C638 C640 1.391 . S
C639 C638 1.386 . S
C639 C643 1.393 . S
C640 H629 0.950 . S
C640 C638 1.391 . S
C640 C641 1.400 . S
C641 C635 1.491 . S
C641 C640 1.400 . S
C641 C642 1.398 . S
C642 H630 0.950 . S
C642 C641 1.398 . S
C642 C643 1.391 . S
C643 H631 0.950 . S
C643 C639 1.393 . S
C643 C642 1.391 . S
H644 C652 0.950 . S
H645 C657 0.950 . S
H646 C654 0.950 1_545 S
H647 C656 0.950 . S
H648 C658 0.950 . S
H649 C660 0.950 1_565 S
H650 C662 0.950 . S
H651 C663 0.950 . S
C652 H644 0.950 . S
C652 C653 1.386 . S
C652 C654 1.391 . S
C653 C652 1.386 . S
C653 C657 1.393 . S
C654 H646 0.950 1_565 S
C654 C652 1.391 . S
C654 C655 1.400 . S
C655 C654 1.400 . S
C655 C656 1.398 . S
C655 C661 1.491 1_565 S
C656 H647 0.950 . S
C656 C655 1.398 . S
C656 C657 1.391 . S
C657 H645 0.950 . S
C657 C653 1.393 . S
C657 C656 1.391 . S
C658 H648 0.950 . S
C658 C659 1.386 . S
C658 C660 1.391 . S
C659 C658 1.386 . S
C659 C663 1.393 . S
C660 H649 0.950 1_545 S
C660 C658 1.391 . S
C660 C661 1.400 . S
C661 C655 1.491 1_545 S
C661 C660 1.400 . S
C661 C662 1.398 . S
C662 H650 0.950 . S
C662 C661 1.398 . S
C662 C663 1.391 . S
C663 H651 0.950 . S
C663 C659 1.393 . S
C663 C662 1.391 . S
H664 C672 0.950 . S
H665 C677 0.950 . S
H666 C674 0.950 . S
H667 C676 0.950 . S
H668 C678 0.950 . S
H669 C680 0.950 . S
H670 C682 0.950 . S
H671 C683 0.950 . S
C672 H664 0.950 . S
C672 C673 1.386 . S
C672 C674 1.391 . S
C673 C672 1.386 . S
C673 C677 1.393 1_655 S
C674 H666 0.950 . S
C674 C672 1.391 . S
C674 C675 1.400 . S
C675 C674 1.400 . S
C675 C676 1.398 1_655 S
C675 C681 1.491 1_655 S
C676 H667 0.950 . S
C676 C675 1.398 1_455 S
C676 C677 1.391 . S
C677 H665 0.950 . S
C677 C673 1.393 1_455 S
C677 C676 1.391 . S
C678 H668 0.950 . S
C678 C679 1.386 . S
C678 C680 1.391 . S
C679 C678 1.386 . S
C679 C683 1.393 1_455 S
C680 H669 0.950 . S
C680 C678 1.391 . S
C680 C681 1.400 . S
C681 C675 1.491 1_455 S
C681 C680 1.400 . S
C681 C682 1.398 1_455 S
C682 H670 0.950 . S
C682 C681 1.398 1_655 S
C682 C683 1.391 . S
C683 H671 0.950 . S
C683 C679 1.393 1_655 S
C683 C682 1.391 . S
H684 C692 0.950 . S
H685 C697 0.950 . S
H686 C694 0.950 . S
H687 C696 0.950 . S
H688 C698 0.950 . S
H689 C700 0.950 . S
H690 C702 0.950 . S
H691 C703 0.950 . S
C692 H684 0.950 . S
C692 C693 1.386 . S
C692 C694 1.391 . S
C693 C692 1.386 . S
C693 C697 1.393 1_554 S
C694 H686 0.950 . S
C694 C692 1.391 . S
C694 C695 1.400 . S
C695 C694 1.400 . S
C695 C696 1.398 1_554 S
C695 C701 1.491 1_554 S
C696 H687 0.950 . S
C696 C695 1.398 1_556 S
C696 C697 1.391 . S
C697 H685 0.950 . S
C697 C693 1.393 1_556 S
C697 C696 1.391 . S
C698 H688 0.950 . S
C698 C699 1.386 . S
C698 C700 1.391 . S
C699 C698 1.386 . S
C699 C703 1.393 1_556 S
C700 H689 0.950 . S
C700 C698 1.391 . S
C700 C701 1.400 . S
C701 C695 1.491 1_556 S
C701 C700 1.400 . S
C701 C702 1.398 1_556 S
C702 H690 0.950 . S
C702 C701 1.398 1_554 S
C702 C703 1.391 . S
C703 H691 0.950 . S
C703 C699 1.393 1_554 S
C703 C702 1.391 . S
H704 C712 0.950 . S
H705 C717 0.950 . S
H706 C714 0.950 1_455 S
H707 C716 0.950 . S
H708 C718 0.950 . S
H709 C720 0.950 1_655 S
H710 C722 0.950 . S
H711 C723 0.950 . S
C712 H704 0.950 . S
C712 C713 1.386 . S
C712 C714 1.391 . S
C713 C712 1.386 . S
C713 C717 1.393 1_554 S
C714 H706 0.950 1_655 S
C714 C712 1.391 . S
C714 C715 1.400 . S
C715 C714 1.400 . S
C715 C716 1.398 1_554 S
C715 C721 1.491 1_654 S
C716 H707 0.950 . S
C716 C715 1.398 1_556 S
C716 C717 1.391 . S
C717 H705 0.950 . S
C717 C713 1.393 1_556 S
C717 C716 1.391 . S
C718 H708 0.950 . S
C718 C719 1.386 . S
C718 C720 1.391 . S
C719 C718 1.386 . S
C719 C723 1.393 1_556 S
C720 H709 0.950 1_455 S
C720 C718 1.391 . S
C720 C721 1.400 . S
C721 C715 1.491 1_456 S
C721 C720 1.400 . S
C721 C722 1.398 1_556 S
C722 H710 0.950 . S
C722 C721 1.398 1_554 S
C722 C723 1.391 . S
C723 H711 0.950 . S
C723 C719 1.393 1_554 S
C723 C722 1.391 . S
H724 C732 0.950 . S
H725 C737 0.950 . S
H726 C734 0.950 . S
H727 C736 0.950 . S
H728 C738 0.950 . S
H729 C740 0.950 . S
H730 C742 0.950 . S
H731 C743 0.950 . S
C732 H724 0.950 . S
C732 C733 1.386 . S
C732 C734 1.391 . S
C733 C732 1.386 . S
C733 C737 1.393 . S
C734 H726 0.950 . S
C734 C732 1.391 . S
C734 C735 1.400 . S
C735 C734 1.400 . S
C735 C736 1.398 . S
C735 C741 1.491 . S
C736 H727 0.950 . S
C736 C735 1.398 . S
C736 C737 1.391 . S
C737 H725 0.950 . S
C737 C733 1.393 . S
C737 C736 1.391 . S
C738 H728 0.950 . S
C738 C739 1.386 . S
C738 C740 1.391 . S
C739 C738 1.386 . S
C739 C743 1.393 . S
C740 H729 0.950 . S
C740 C738 1.391 . S
C740 C741 1.400 . S
C741 C735 1.491 . S
C741 C740 1.400 . S
C741 C742 1.398 . S
C742 H730 0.950 . S
C742 C741 1.398 . S
C742 C743 1.391 . S
C743 H731 0.950 . S
C743 C739 1.393 . S
C743 C742 1.391 . S
H744 C752 0.950 . S
H745 C757 0.950 . S
H746 C754 0.950 . S
H747 C756 0.950 . S
H748 C758 0.950 . S
H749 C760 0.950 . S
H750 C762 0.950 . S
H751 C763 0.950 . S
C752 H744 0.950 . S
C752 C753 1.386 1_554 S
C752 C754 1.391 . S
C753 C752 1.386 1_556 S
C753 C757 1.393 . S
C754 H746 0.950 . S
C754 C752 1.391 . S
C754 C755 1.400 1_554 S
C755 C754 1.400 1_556 S
C755 C756 1.398 . S
C755 C761 1.491 1_556 S
C756 H747 0.950 . S
C756 C755 1.398 . S
C756 C757 1.391 . S
C757 H745 0.950 . S
C757 C753 1.393 . S
C757 C756 1.391 . S
C758 H748 0.950 . S
C758 C759 1.386 1_556 S
C758 C760 1.391 . S
C759 C758 1.386 1_554 S
C759 C763 1.393 . S
C760 H749 0.950 . S
C760 C758 1.391 . S
C760 C761 1.400 1_556 S
C761 C755 1.491 1_554 S
C761 C760 1.400 1_554 S
C761 C762 1.398 . S
C762 H750 0.950 . S
C762 C761 1.398 . S
C762 C763 1.391 . S
C763 H751 0.950 . S
C763 C759 1.393 . S
C763 C762 1.391 . S
H764 C772 0.950 . S
H765 C777 0.950 . S
H766 C774 0.950 . S
H767 C776 0.950 . S
H768 C778 0.950 . S
H769 C780 0.950 . S
H770 C782 0.950 . S
H771 C783 0.950 . S
C772 H764 0.950 . S
C772 C773 1.386 . S
C772 C774 1.391 . S
C773 C772 1.386 . S
C773 C777 1.393 . S
C774 H766 0.950 . S
C774 C772 1.391 . S
C774 C775 1.400 . S
C775 C774 1.400 . S
C775 C776 1.398 . S
C775 C781 1.491 . S
C776 H767 0.950 . S
C776 C775 1.398 . S
C776 C777 1.391 . S
C777 H765 0.950 . S
C777 C773 1.393 . S
C777 C776 1.391 . S
C778 H768 0.950 . S
C778 C779 1.386 . S
C778 C780 1.391 . S
C779 C778 1.386 . S
C779 C783 1.393 . S
C780 H769 0.950 . S
C780 C778 1.391 . S
C780 C781 1.400 . S
C781 C775 1.491 . S
C781 C780 1.400 . S
C781 C782 1.398 . S
C782 H770 0.950 . S
C782 C781 1.398 . S
C782 C783 1.391 . S
C783 H771 0.950 . S
C783 C779 1.393 . S
C783 C782 1.391 . S
H784 C792 0.950 . S
H785 C797 0.950 . S
H786 C794 0.950 . S
H787 C796 0.950 1_565 S
H788 C798 0.950 . S
H789 C800 0.950 . S
H790 C802 0.950 1_545 S
H791 C803 0.950 . S
C792 H784 0.950 . S
C792 C793 1.386 1_554 S
C792 C794 1.391 . S
C793 C792 1.386 1_556 S
C793 C797 1.393 . S
C794 H786 0.950 . S
C794 C792 1.391 . S
C794 C795 1.400 1_554 S
C795 C794 1.400 1_556 S
C795 C796 1.398 . S
C795 C801 1.491 1_546 S
C796 H787 0.950 1_545 S
C796 C795 1.398 . S
C796 C797 1.391 . S
C797 H785 0.950 . S
C797 C793 1.393 . S
C797 C796 1.391 . S
C798 H788 0.950 . S
C798 C799 1.386 1_556 S
C798 C800 1.391 . S
C799 C798 1.386 1_554 S
C799 C803 1.393 . S
C800 H789 0.950 . S
C800 C798 1.391 . S
C800 C801 1.400 1_556 S
C801 C795 1.491 1_564 S
C801 C800 1.400 1_554 S
C801 C802 1.398 . S
C802 H790 0.950 1_565 S
C802 C801 1.398 . S
C802 C803 1.391 . S
C803 H791 0.950 . S
C803 C799 1.393 . S
C803 C802 1.391 . S
H804 C812 0.950 . S
H805 C817 0.950 . S
H806 C814 0.950 . S
H807 C816 0.950 . S
H808 C818 0.950 . S
H809 C820 0.950 . S
H810 C822 0.950 . S
H811 C823 0.950 . S
C812 H804 0.950 . S
C812 C813 1.386 . S
C812 C814 1.391 . S
C813 C812 1.386 . S
C813 C817 1.393 . S
C814 H806 0.950 . S
C814 C812 1.391 . S
C814 C815 1.400 . S
C815 C814 1.400 . S
C815 C816 1.398 . S
C815 C821 1.491 . S
C816 H807 0.950 . S
C816 C815 1.398 . S
C816 C817 1.391 . S
C817 H805 0.950 . S
C817 C813 1.393 . S
C817 C816 1.391 . S
C818 H808 0.950 . S
C818 C819 1.386 . S
C818 C820 1.391 . S
C819 C818 1.386 . S
C819 C823 1.393 . S
C820 H809 0.950 . S
C820 C818 1.391 . S
C820 C821 1.400 . S
C821 C815 1.491 . S
C821 C820 1.400 . S
C821 C822 1.398 . S
C822 H810 0.950 . S
C822 C821 1.398 . S
C822 C823 1.391 . S
C823 H811 0.950 . S
C823 C819 1.393 . S
C823 C822 1.391 . S
H824 C832 0.950 . S
H825 C837 0.950 . S
H826 C834 0.950 . S
H827 C836 0.950 . S
H828 C838 0.950 . S
H829 C840 0.950 . S
H830 C842 0.950 . S
H831 C843 0.950 . S
C832 H824 0.950 . S
C832 C833 1.386 . S
C832 C834 1.391 . S
C833 C832 1.386 . S
C833 C837 1.393 . S
C834 H826 0.950 . S
C834 C832 1.391 . S
C834 C835 1.400 . S
C835 C834 1.400 . S
C835 C836 1.398 . S
C835 C841 1.491 . S
C836 H827 0.950 . S
C836 C835 1.398 . S
C836 C837 1.391 . S
C837 H825 0.950 . S
C837 C833 1.393 . S
C837 C836 1.391 . S
C838 H828 0.950 . S
C838 C839 1.386 . S
C838 C840 1.391 . S
C839 C838 1.386 . S
C839 C843 1.393 . S
C840 H829 0.950 . S
C840 C838 1.391 . S
C840 C841 1.400 . S
C841 C835 1.491 . S
C841 C840 1.400 . S
C841 C842 1.398 . S
C842 H830 0.950 . S
C842 C841 1.398 . S
C842 C843 1.391 . S
C843 H831 0.950 . S
C843 C839 1.393 . S
C843 C842 1.391 . S
H844 C852 0.950 . S
H845 C857 0.950 . S
H846 C854 0.950 . S
H847 C856 0.950 . S
H848 C858 0.950 . S
H849 C860 0.950 . S
H850 C862 0.950 . S
H851 C863 0.950 . S
C852 H844 0.950 . S
C852 C853 1.386 . S
C852 C854 1.391 . S
C853 C852 1.386 . S
C853 C857 1.393 . S
C854 H846 0.950 . S
C854 C852 1.391 . S
C854 C855 1.400 . S
C855 C854 1.400 . S
C855 C856 1.398 . S
C855 C861 1.491 . S
C856 H847 0.950 . S
C856 C855 1.398 . S
C856 C857 1.391 . S
C857 H845 0.950 . S
C857 C853 1.393 . S
C857 C856 1.391 . S
C858 H848 0.950 . S
C858 C859 1.386 . S
C858 C860 1.391 . S
C859 C858 1.386 . S
C859 C863 1.393 . S
C860 H849 0.950 . S
C860 C858 1.391 . S
C860 C861 1.400 . S
C861 C855 1.491 . S
C861 C860 1.400 . S
C861 C862 1.398 . S
C862 H850 0.950 . S
C862 C861 1.398 . S
C862 C863 1.391 . S
C863 H851 0.950 . S
C863 C859 1.393 . S
C863 C862 1.391 . S
H864 C872 0.950 . S
H865 C877 0.950 . S
H866 C874 0.950 . S
H867 C876 0.950 . S
H868 C878 0.950 . S
H869 C880 0.950 . S
H870 C882 0.950 . S
H871 C883 0.950 . S
C872 H864 0.950 . S
C872 C873 1.386 . S
C872 C874 1.391 . S
C873 C872 1.386 . S
C873 C877 1.393 . S
C874 H866 0.950 . S
C874 C872 1.391 . S
C874 C875 1.400 . S
C875 C874 1.400 . S
C875 C876 1.398 . S
C875 C881 1.491 . S
C876 H867 0.950 . S
C876 C875 1.398 . S
C876 C877 1.391 . S
C877 H865 0.950 . S
C877 C873 1.393 . S
C877 C876 1.391 . S
C878 H868 0.950 . S
C878 C879 1.386 . S
C878 C880 1.391 . S
C879 C878 1.386 . S
C879 C883 1.393 . S
C880 H869 0.950 . S
C880 C878 1.391 . S
C880 C881 1.400 . S
C881 C875 1.491 . S
C881 C880 1.400 . S
C881 C882 1.398 . S
C882 H870 0.950 . S
C882 C881 1.398 . S
C882 C883 1.391 . S
C883 H871 0.950 . S
C883 C879 1.393 . S
C883 C882 1.391 . S
H884 C892 0.950 . S
H885 C897 0.950 . S
H886 C894 0.950 . S
H887 C896 0.950 . S
H888 C898 0.950 . S
H889 C900 0.950 . S
H890 C902 0.950 . S
H891 C903 0.950 . S
C892 H884 0.950 . S
C892 C893 1.386 . S
C892 C894 1.391 . S
C893 C892 1.386 . S
C893 C897 1.393 . S
C894 H886 0.950 . S
C894 C892 1.391 . S
C894 C895 1.400 . S
C895 C894 1.400 . S
C895 C896 1.398 . S
C895 C901 1.491 . S
C896 H887 0.950 . S
C896 C895 1.398 . S
C896 C897 1.391 . S
C897 H885 0.950 . S
C897 C893 1.393 . S
C897 C896 1.391 . S
C898 H888 0.950 . S
C898 C899 1.386 1_455 S
C898 C900 1.391 1_455 S
C899 C898 1.386 1_655 S
C899 C903 1.393 . S
C900 H889 0.950 . S
C900 C898 1.391 1_655 S
C900 C901 1.400 . S
C901 C895 1.491 . S
C901 C900 1.400 . S
C901 C902 1.398 . S
C902 H890 0.950 . S
C902 C901 1.398 . S
C902 C903 1.391 . S
C903 H891 0.950 . S
C903 C899 1.393 . S
C903 C902 1.391 . S
H904 C912 0.950 . S
H905 C917 0.950 . S
H906 C914 0.950 . S
H907 C916 0.950 . S
H908 C918 0.950 . S
H909 C920 0.950 . S
H910 C922 0.950 . S
H911 C923 0.950 . S
C912 H904 0.950 . S
C912 C913 1.386 . S
C912 C914 1.391 . S
C913 C912 1.386 . S
C913 C917 1.393 . S
C914 H906 0.950 . S
C914 C912 1.391 . S
C914 C915 1.400 . S
C915 C914 1.400 . S
C915 C916 1.398 . S
C915 C921 1.491 . S
C916 H907 0.950 . S
C916 C915 1.398 . S
C916 C917 1.391 . S
C917 H905 0.950 . S
C917 C913 1.393 . S
C917 C916 1.391 . S
C918 H908 0.950 . S
C918 C919 1.386 . S
C918 C920 1.391 . S
C919 C918 1.386 . S
C919 C923 1.393 . S
C920 H909 0.950 . S
C920 C918 1.391 . S
C920 C921 1.400 . S
C921 C915 1.491 . S
C921 C920 1.400 . S
C921 C922 1.398 . S
C922 H910 0.950 . S
C922 C921 1.398 . S
C922 C923 1.391 . S
C923 H911 0.950 . S
C923 C919 1.393 . S
C923 C922 1.391 . S
H924 C932 0.950 . S
H925 C937 0.950 . S
H926 C934 0.950 . S
H927 C936 0.950 . S
H928 C938 0.950 . S
H929 C940 0.950 . S
H930 C942 0.950 . S
H931 C943 0.950 . S
C932 H924 0.950 . S
C932 C933 1.386 . S
C932 C934 1.391 . S
C933 C932 1.386 . S
C933 C937 1.393 . S
C934 H926 0.950 . S
C934 C932 1.391 . S
C934 C935 1.400 . S
C935 C934 1.400 . S
C935 C936 1.398 . S
C935 C941 1.491 . S
C936 H927 0.950 . S
C936 C935 1.398 . S
C936 C937 1.391 . S
C937 H925 0.950 . S
C937 C933 1.393 . S
C937 C936 1.391 . S
C938 H928 0.950 . S
C938 C939 1.386 . S
C938 C940 1.391 . S
C939 C938 1.386 . S
C939 C943 1.393 . S
C940 H929 0.950 . S
C940 C938 1.391 . S
C940 C941 1.400 . S
C941 C935 1.491 . S
C941 C940 1.400 . S
C941 C942 1.398 . S
C942 H930 0.950 . S
C942 C941 1.398 . S
C942 C943 1.391 . S
C943 H931 0.950 . S
C943 C939 1.393 . S
C943 C942 1.391 . S
H944 C952 0.950 . S
H945 C957 0.950 . S
H946 C954 0.950 . S
H947 C956 0.950 . S
H948 C958 0.950 . S
H949 C960 0.950 . S
H950 C962 0.950 . S
H951 C963 0.950 . S
C952 H944 0.950 . S
C952 C953 1.386 . S
C952 C954 1.391 . S
C953 C952 1.386 . S
C953 C957 1.393 . S
C954 H946 0.950 . S
C954 C952 1.391 . S
C954 C955 1.400 . S
C955 C954 1.400 . S
C955 C956 1.398 . S
C955 C961 1.491 . S
C956 H947 0.950 . S
C956 C955 1.398 . S
C956 C957 1.391 . S
C957 H945 0.950 . S
C957 C953 1.393 . S
C957 C956 1.391 . S
C958 H948 0.950 . S
C958 C959 1.386 . S
C958 C960 1.391 . S
C959 C958 1.386 . S
C959 C963 1.393 . S
C960 H949 0.950 . S
C960 C958 1.391 . S
C960 C961 1.400 . S
C961 C955 1.491 . S
C961 C960 1.400 . S
C961 C962 1.398 . S
C962 H950 0.950 . S
C962 C961 1.398 . S
C962 C963 1.391 . S
C963 H951 0.950 . S
C963 C959 1.393 . S
C963 C962 1.391 . S
H964 C972 0.950 . S
H965 C977 0.950 . S
H966 C974 0.950 . S
H967 C976 0.950 . S
H968 C978 0.950 . S
H969 C980 0.950 . S
H970 C982 0.950 . S
H971 C983 0.950 . S
C972 H964 0.950 . S
C972 C973 1.386 . S
C972 C974 1.391 . S
C973 C972 1.386 . S
C973 C977 1.393 . S
C974 H966 0.950 . S
C974 C972 1.391 . S
C974 C975 1.400 . S
C975 C974 1.400 . S
C975 C976 1.398 . S
C975 C981 1.491 . S
C976 H967 0.950 . S
C976 C975 1.398 . S
C976 C977 1.391 . S
C977 H965 0.950 . S
C977 C973 1.393 . S
C977 C976 1.391 . S
C978 H968 0.950 . S
C978 C979 1.386 1_655 S
C978 C980 1.391 1_655 S
C979 C978 1.386 1_455 S
C979 C983 1.393 . S
C980 H969 0.950 . S
C980 C978 1.391 1_455 S
C980 C981 1.400 . S
C981 C975 1.491 . S
C981 C980 1.400 . S
C981 C982 1.398 . S
C982 H970 0.950 . S
C982 C981 1.398 . S
C982 C983 1.391 . S
C983 H971 0.950 . S
C983 C979 1.393 . S
C983 C982 1.391 . S
H984 C992 0.950 . S
H985 C997 0.950 . S
H986 C994 0.950 . S
H987 C996 0.950 . S
H988 C998 0.950 . S
H989 C1000 0.950 . S
H990 C1002 0.950 . S
H991 C1003 0.950 . S
C992 H984 0.950 . S
C992 C993 1.386 . S
C992 C994 1.391 . S
C993 C992 1.386 . S
C993 C997 1.393 . S
C994 H986 0.950 . S
C994 C992 1.391 . S
C994 C995 1.400 . S
C995 C994 1.400 . S
C995 C996 1.398 . S
C995 C1001 1.491 . S
C996 H987 0.950 . S
C996 C995 1.398 . S
C996 C997 1.391 . S
C997 H985 0.950 . S
C997 C993 1.393 . S
C997 C996 1.391 . S
C998 H988 0.950 . S
C998 C999 1.386 . S
C998 C1000 1.391 . S
C999 C998 1.386 . S
C999 C1003 1.393 . S
C1000 H989 0.950 . S
C1000 C998 1.391 . S
C1000 C1001 1.400 . S
C1001 C995 1.491 . S
C1001 C1000 1.400 . S
C1001 C1002 1.398 . S
C1002 H990 0.950 . S
C1002 C1001 1.398 . S
C1002 C1003 1.391 . S
C1003 H991 0.950 . S
C1003 C999 1.393 . S
C1003 C1002 1.391 . S
H1004 C1012 0.950 . S
H1005 C1017 0.950 . S
H1006 C1014 0.950 . S
H1007 C1016 0.950 . S
H1008 C1018 0.950 . S
H1009 C1020 0.950 . S
H1010 C1022 0.950 . S
H1011 C1023 0.950 . S
C1012 H1004 0.950 . S
C1012 C1013 1.386 1_655 S
C1012 C1014 1.391 1_655 S
C1013 C1012 1.386 1_455 S
C1013 C1017 1.393 . S
C1014 H1006 0.950 . S
C1014 C1012 1.391 1_455 S
C1014 C1015 1.400 . S
C1015 C1014 1.400 . S
C1015 C1016 1.398 . S
C1015 C1021 1.491 . S
C1016 H1007 0.950 . S
C1016 C1015 1.398 . S
C1016 C1017 1.391 . S
C1017 H1005 0.950 . S
C1017 C1013 1.393 . S
C1017 C1016 1.391 . S
C1018 H1008 0.950 . S
C1018 C1019 1.386 . S
C1018 C1020 1.391 . S
C1019 C1018 1.386 . S
C1019 C1023 1.393 . S
C1020 H1009 0.950 . S
C1020 C1018 1.391 . S
C1020 C1021 1.400 . S
C1021 C1015 1.491 . S
C1021 C1020 1.400 . S
C1021 C1022 1.398 . S
C1022 H1010 0.950 . S
C1022 C1021 1.398 . S
C1022 C1023 1.391 . S
C1023 H1011 0.950 . S
C1023 C1019 1.393 . S
C1023 C1022 1.391 . S
H1024 C1032 0.950 . S
H1025 C1037 0.950 . S
H1026 C1034 0.950 . S
H1027 C1036 0.950 . S
H1028 C1038 0.950 . S
H1029 C1040 0.950 . S
H1030 C1042 0.950 . S
H1031 C1043 0.950 . S
C1032 H1024 0.950 . S
C1032 C1033 1.386 . S
C1032 C1034 1.391 . S
C1033 C1032 1.386 . S
C1033 C1037 1.393 . S
C1034 H1026 0.950 . S
C1034 C1032 1.391 . S
C1034 C1035 1.400 . S
C1035 C1034 1.400 . S
C1035 C1036 1.398 . S
C1035 C1041 1.491 . S
C1036 H1027 0.950 . S
C1036 C1035 1.398 . S
C1036 C1037 1.391 . S
C1037 H1025 0.950 . S
C1037 C1033 1.393 . S
C1037 C1036 1.391 . S
C1038 H1028 0.950 . S
C1038 C1039 1.386 . S
C1038 C1040 1.391 . S
C1039 C1038 1.386 . S
C1039 C1043 1.393 . S
C1040 H1029 0.950 . S
C1040 C1038 1.391 . S
C1040 C1041 1.400 . S
C1041 C1035 1.491 . S
C1041 C1040 1.400 . S
C1041 C1042 1.398 . S
C1042 H1030 0.950 . S
C1042 C1041 1.398 . S
C1042 C1043 1.391 . S
C1043 H1031 0.950 . S
C1043 C1039 1.393 . S
C1043 C1042 1.391 . S
H1044 C1052 0.950 . S
H1045 C1057 0.950 . S
H1046 C1054 0.950 . S
H1047 C1056 0.950 . S
H1048 C1058 0.950 . S
H1049 C1060 0.950 . S
H1050 C1062 0.950 . S
H1051 C1063 0.950 1_455 S
C1052 H1044 0.950 . S
C1052 C1053 1.386 . S
C1052 C1054 1.391 . S
C1053 C1052 1.386 . S
C1053 C1057 1.393 . S
C1054 H1046 0.950 . S
C1054 C1052 1.391 . S
C1054 C1055 1.400 . S
C1055 C1054 1.400 . S
C1055 C1056 1.398 . S
C1055 C1061 1.491 . S
C1056 H1047 0.950 . S
C1056 C1055 1.398 . S
C1056 C1057 1.391 . S
C1057 H1045 0.950 . S
C1057 C1053 1.393 . S
C1057 C1056 1.391 . S
C1058 H1048 0.950 . S
C1058 C1059 1.386 . S
C1058 C1060 1.391 . S
C1059 C1058 1.386 . S
C1059 C1063 1.393 . S
C1060 H1049 0.950 . S
C1060 C1058 1.391 . S
C1060 C1061 1.400 . S
C1061 C1055 1.491 . S
C1061 C1060 1.400 . S
C1061 C1062 1.398 . S
C1062 H1050 0.950 . S
C1062 C1061 1.398 . S
C1062 C1063 1.391 . S
C1063 H1051 0.950 1_655 S
C1063 C1059 1.393 . S
C1063 C1062 1.391 . S
H1064 C1072 0.950 . S
H1065 C1077 0.950 . S
H1066 C1074 0.950 . S
H1067 C1076 0.950 . S
H1068 C1078 0.950 . S
H1069 C1080 0.950 . S
H1070 C1082 0.950 . S
H1071 C1083 0.950 . S
C1072 H1064 0.950 . S
C1072 C1073 1.386 . S
C1072 C1074 1.391 . S
C1073 C1072 1.386 . S
C1073 C1077 1.393 . S
C1074 H1066 0.950 . S
C1074 C1072 1.391 . S
C1074 C1075 1.400 . S
C1075 C1074 1.400 . S
C1075 C1076 1.398 . S
C1075 C1081 1.491 . S
C1076 H1067 0.950 . S
C1076 C1075 1.398 . S
C1076 C1077 1.391 . S
C1077 H1065 0.950 . S
C1077 C1073 1.393 . S
C1077 C1076 1.391 . S
C1078 H1068 0.950 . S
C1078 C1079 1.386 . S
C1078 C1080 1.391 . S
C1079 C1078 1.386 . S
C1079 C1083 1.393 . S
C1080 H1069 0.950 . S
C1080 C1078 1.391 . S
C1080 C1081 1.400 . S
C1081 C1075 1.491 . S
C1081 C1080 1.400 . S
C1081 C1082 1.398 . S
C1082 H1070 0.950 . S
C1082 C1081 1.398 . S
C1082 C1083 1.391 . S
C1083 H1071 0.950 . S
C1083 C1079 1.393 . S
C1083 C1082 1.391 . S
H1084 C1092 0.950 . S
H1085 C1097 0.950 . S
H1086 C1094 0.950 . S
H1087 C1096 0.950 . S
H1088 C1098 0.950 . S
H1089 C1100 0.950 . S
H1090 C1102 0.950 . S
H1091 C1103 0.950 . S
C1092 H1084 0.950 . S
C1092 C1093 1.386 . S
C1092 C1094 1.391 . S
C1093 C1092 1.386 . S
C1093 C1097 1.393 . S
C1094 H1086 0.950 . S
C1094 C1092 1.391 . S
C1094 C1095 1.400 . S
C1095 C1094 1.400 . S
C1095 C1096 1.398 . S
C1095 C1101 1.491 . S
C1096 H1087 0.950 . S
C1096 C1095 1.398 . S
C1096 C1097 1.391 . S
C1097 H1085 0.950 . S
C1097 C1093 1.393 . S
C1097 C1096 1.391 . S
C1098 H1088 0.950 . S
C1098 C1099 1.386 1_455 S
C1098 C1100 1.391 1_455 S
C1099 C1098 1.386 1_655 S
C1099 C1103 1.393 . S
C1100 H1089 0.950 . S
C1100 C1098 1.391 1_655 S
C1100 C1101 1.400 . S
C1101 C1095 1.491 . S
C1101 C1100 1.400 . S
C1101 C1102 1.398 . S
C1102 H1090 0.950 . S
C1102 C1101 1.398 . S
C1102 C1103 1.391 . S
C1103 H1091 0.950 . S
C1103 C1099 1.393 . S
C1103 C1102 1.391 . S
H1104 C1112 0.950 . S
H1105 C1117 0.950 . S
H1106 C1114 0.950 . S
H1107 C1116 0.950 . S
H1108 C1118 0.950 . S
H1109 C1120 0.950 . S
H1110 C1122 0.950 . S
H1111 C1123 0.950 . S
C1112 H1104 0.950 . S
C1112 C1113 1.386 . S
C1112 C1114 1.391 . S
C1113 C1112 1.386 . S
C1113 C1117 1.393 . S
C1114 H1106 0.950 . S
C1114 C1112 1.391 . S
C1114 C1115 1.400 . S
C1115 C1114 1.400 . S
C1115 C1116 1.398 . S
C1115 C1121 1.491 . S
C1116 H1107 0.950 . S
C1116 C1115 1.398 . S
C1116 C1117 1.391 . S
C1117 H1105 0.950 . S
C1117 C1113 1.393 . S
C1117 C1116 1.391 . S
C1118 H1108 0.950 . S
C1118 C1119 1.386 . S
C1118 C1120 1.391 . S
C1119 C1118 1.386 . S
C1119 C1123 1.393 . S
C1120 H1109 0.950 . S
C1120 C1118 1.391 . S
C1120 C1121 1.400 . S
C1121 C1115 1.491 . S
C1121 C1120 1.400 . S
C1121 C1122 1.398 . S
C1122 H1110 0.950 . S
C1122 C1121 1.398 . S
C1122 C1123 1.391 . S
C1123 H1111 0.950 . S
C1123 C1119 1.393 . S
C1123 C1122 1.391 . S
H1124 C1132 0.950 . S
H1125 C1137 0.950 1_655 S
H1126 C1134 0.950 . S
H1127 C1136 0.950 . S
H1128 C1138 0.950 . S
H1129 C1140 0.950 . S
H1130 C1142 0.950 . S
H1131 C1143 0.950 . S
C1132 H1124 0.950 . S
C1132 C1133 1.386 . S
C1132 C1134 1.391 . S
C1133 C1132 1.386 . S
C1133 C1137 1.393 . S
C1134 H1126 0.950 . S
C1134 C1132 1.391 . S
C1134 C1135 1.400 . S
C1135 C1134 1.400 . S
C1135 C1136 1.398 . S
C1135 C1141 1.491 . S
C1136 H1127 0.950 . S
C1136 C1135 1.398 . S
C1136 C1137 1.391 . S
C1137 H1125 0.950 1_455 S
C1137 C1133 1.393 . S
C1137 C1136 1.391 . S
C1138 H1128 0.950 . S
C1138 C1139 1.386 . S
C1138 C1140 1.391 . S
C1139 C1138 1.386 . S
C1139 C1143 1.393 . S
C1140 H1129 0.950 . S
C1140 C1138 1.391 . S
C1140 C1141 1.400 . S
C1141 C1135 1.491 . S
C1141 C1140 1.400 . S
C1141 C1142 1.398 . S
C1142 H1130 0.950 . S
C1142 C1141 1.398 . S
C1142 C1143 1.391 . S
C1143 H1131 0.950 . S
C1143 C1139 1.393 . S
C1143 C1142 1.391 . S
H1144 C1152 0.950 . S
H1145 C1157 0.950 . S
H1146 C1154 0.950 . S
H1147 C1156 0.950 . S
H1148 C1158 0.950 . S
H1149 C1160 0.950 . S
H1150 C1162 0.950 . S
H1151 C1163 0.950 . S
C1152 H1144 0.950 . S
C1152 C1153 1.386 . S
C1152 C1154 1.391 . S
C1153 C1152 1.386 . S
C1153 C1157 1.393 . S
C1154 H1146 0.950 . S
C1154 C1152 1.391 . S
C1154 C1155 1.400 . S
C1155 C1154 1.400 . S
C1155 C1156 1.398 . S
C1155 C1161 1.491 . S
C1156 H1147 0.950 . S
C1156 C1155 1.398 . S
C1156 C1157 1.391 . S
C1157 H1145 0.950 . S
C1157 C1153 1.393 . S
C1157 C1156 1.391 . S
C1158 H1148 0.950 . S
C1158 C1159 1.386 . S
C1158 C1160 1.391 . S
C1159 C1158 1.386 . S
C1159 C1163 1.393 . S
C1160 H1149 0.950 . S
C1160 C1158 1.391 . S
C1160 C1161 1.400 . S
C1161 C1155 1.491 . S
C1161 C1160 1.400 . S
C1161 C1162 1.398 . S
C1162 H1150 0.950 . S
C1162 C1161 1.398 . S
C1162 C1163 1.391 . S
C1163 H1151 0.950 . S
C1163 C1159 1.393 . S
C1163 C1162 1.391 . S
H1164 C1172 0.950 . S
H1165 C1177 0.950 . S
H1166 C1174 0.950 . S
H1167 C1176 0.950 . S
H1168 C1178 0.950 . S
H1169 C1180 0.950 . S
H1170 C1182 0.950 . S
H1171 C1183 0.950 . S
C1172 H1164 0.950 . S
C1172 C1173 1.386 1_655 S
C1172 C1174 1.391 1_655 S
C1173 C1172 1.386 1_455 S
C1173 C1177 1.393 . S
C1174 H1166 0.950 . S
C1174 C1172 1.391 1_455 S
C1174 C1175 1.400 . S
C1175 C1174 1.400 . S
C1175 C1176 1.398 . S
C1175 C1181 1.491 . S
C1176 H1167 0.950 . S
C1176 C1175 1.398 . S
C1176 C1177 1.391 . S
C1177 H1165 0.950 . S
C1177 C1173 1.393 . S
C1177 C1176 1.391 . S
C1178 H1168 0.950 . S
C1178 C1179 1.386 . S
C1178 C1180 1.391 . S
C1179 C1178 1.386 . S
C1179 C1183 1.393 . S
C1180 H1169 0.950 . S
C1180 C1178 1.391 . S
C1180 C1181 1.400 . S
C1181 C1175 1.491 . S
C1181 C1180 1.400 . S
C1181 C1182 1.398 . S
C1182 H1170 0.950 . S
C1182 C1181 1.398 . S
C1182 C1183 1.391 . S
C1183 H1171 0.950 . S
C1183 C1179 1.393 . S
C1183 C1182 1.391 . S
H1184 C1192 0.950 . S
H1185 C1197 0.950 . S
H1186 C1194 0.950 . S
H1187 C1196 0.950 . S
H1188 C1198 0.950 . S
H1189 C1200 0.950 . S
H1190 C1202 0.950 . S
H1191 C1203 0.950 . S
C1192 H1184 0.950 . S
C1192 C1193 1.386 . S
C1192 C1194 1.391 . S
C1193 C1192 1.386 . S
C1193 C1197 1.393 . S
C1194 H1186 0.950 . S
C1194 C1192 1.391 . S
C1194 C1195 1.400 . S
C1195 C1194 1.400 . S
C1195 C1196 1.398 . S
C1195 C1201 1.491 . S
C1196 H1187 0.950 . S
C1196 C1195 1.398 . S
C1196 C1197 1.391 . S
C1197 H1185 0.950 . S
C1197 C1193 1.393 . S
C1197 C1196 1.391 . S
C1198 H1188 0.950 . S
C1198 C1199 1.386 . S
C1198 C1200 1.391 . S
C1199 C1198 1.386 . S
C1199 C1203 1.393 . S
C1200 H1189 0.950 . S
C1200 C1198 1.391 . S
C1200 C1201 1.400 . S
C1201 C1195 1.491 . S
C1201 C1200 1.400 . S
C1201 C1202 1.398 . S
C1202 H1190 0.950 . S
C1202 C1201 1.398 . S
C1202 C1203 1.391 . S
C1203 H1191 0.950 . S
C1203 C1199 1.393 . S
C1203 C1202 1.391 . S
H1204 C1212 0.950 . S
H1205 C1217 0.950 . S
H1206 C1214 0.950 . S
H1207 C1216 0.950 . S
H1208 C1218 0.950 . S
H1209 C1220 0.950 . S
H1210 C1222 0.950 . S
H1211 C1223 0.950 . S
C1212 H1204 0.950 . S
C1212 C1213 1.386 . S
C1212 C1214 1.391 . S
C1213 C1212 1.386 . S
C1213 C1217 1.393 . S
C1214 H1206 0.950 . S
C1214 C1212 1.391 . S
C1214 C1215 1.400 . S
C1215 C1214 1.400 . S
C1215 C1216 1.398 . S
C1215 C1221 1.491 . S
C1216 H1207 0.950 . S
C1216 C1215 1.398 . S
C1216 C1217 1.391 . S
C1217 H1205 0.950 . S
C1217 C1213 1.393 . S
C1217 C1216 1.391 . S
C1218 H1208 0.950 . S
C1218 C1219 1.386 . S
C1218 C1220 1.391 . S
C1219 C1218 1.386 . S
C1219 C1223 1.393 . S
C1220 H1209 0.950 . S
C1220 C1218 1.391 . S
C1220 C1221 1.400 . S
C1221 C1215 1.491 . S
C1221 C1220 1.400 . S
C1221 C1222 1.398 . S
C1222 H1210 0.950 . S
C1222 C1221 1.398 . S
C1222 C1223 1.391 . S
C1223 H1211 0.950 . S
C1223 C1219 1.393 . S
C1223 C1222 1.391 . S
H1224 C1232 0.950 . S
H1225 C1237 0.950 . S
H1226 C1234 0.950 . S
H1227 C1236 0.950 . S
H1228 C1238 0.950 . S
H1229 C1240 0.950 . S
H1230 C1242 0.950 . S
H1231 C1243 0.950 . S
C1232 H1224 0.950 . S
C1232 C1233 1.386 . S
C1232 C1234 1.391 . S
C1233 C1232 1.386 . S
C1233 C1237 1.393 . S
C1234 H1226 0.950 . S
C1234 C1232 1.391 . S
C1234 C1235 1.400 . S
C1235 C1234 1.400 . S
C1235 C1236 1.398 . S
C1235 C1241 1.491 . S
C1236 H1227 0.950 . S
C1236 C1235 1.398 . S
C1236 C1237 1.391 . S
C1237 H1225 0.950 . S
C1237 C1233 1.393 . S
C1237 C1236 1.391 . S
C1238 H1228 0.950 . S
C1238 C1239 1.386 . S
C1238 C1240 1.391 . S
C1239 C1238 1.386 . S
C1239 C1243 1.393 . S
C1240 H1229 0.950 . S
C1240 C1238 1.391 . S
C1240 C1241 1.400 . S
C1241 C1235 1.491 . S
C1241 C1240 1.400 . S
C1241 C1242 1.398 . S
C1242 H1230 0.950 . S
C1242 C1241 1.398 . S
C1242 C1243 1.391 . S
C1243 H1231 0.950 . S
C1243 C1239 1.393 . S
C1243 C1242 1.391 . S
H1244 C1252 0.950 . S
H1245 C1257 0.950 . S
H1246 C1254 0.950 . S
H1247 C1256 0.950 . S
H1248 C1258 0.950 . S
H1249 C1260 0.950 . S
H1250 C1262 0.950 . S
H1251 C1263 0.950 . S
C1252 H1244 0.950 . S
C1252 C1253 1.386 . S
C1252 C1254 1.391 . S
C1253 C1252 1.386 . S
C1253 C1257 1.393 . S
C1254 H1246 0.950 . S
C1254 C1252 1.391 . S
C1254 C1255 1.400 . S
C1255 C1254 1.400 . S
C1255 C1256 1.398 . S
C1255 C1261 1.491 . S
C1256 H1247 0.950 . S
C1256 C1255 1.398 . S
C1256 C1257 1.391 . S
C1257 H1245 0.950 . S
C1257 C1253 1.393 . S
C1257 C1256 1.391 . S
C1258 H1248 0.950 . S
C1258 C1259 1.386 . S
C1258 C1260 1.391 . S
C1259 C1258 1.386 . S
C1259 C1263 1.393 . S
C1260 H1249 0.950 . S
C1260 C1258 1.391 . S
C1260 C1261 1.400 . S
C1261 C1255 1.491 . S
C1261 C1260 1.400 . S
C1261 C1262 1.398 . S
C1262 H1250 0.950 . S
C1262 C1261 1.398 . S
C1262 C1263 1.391 . S
C1263 H1251 0.950 . S
C1263 C1259 1.393 . S
C1263 C1262 1.391 . S
H1264 C1272 0.950 . S
H1265 C1277 0.950 . S
H1266 C1274 0.950 . S
H1267 C1276 0.950 . S
H1268 C1278 0.950 . S
H1269 C1280 0.950 . S
H1270 C1282 0.950 . S
H1271 C1283 0.950 . S
C1272 H1264 0.950 . S
C1272 C1273 1.386 . S
C1272 C1274 1.391 . S
C1273 C1272 1.386 . S
C1273 C1277 1.393 . S
C1274 H1266 0.950 . S
C1274 C1272 1.391 . S
C1274 C1275 1.400 . S
C1275 C1274 1.400 . S
C1275 C1276 1.398 . S
C1275 C1281 1.491 . S
C1276 H1267 0.950 . S
C1276 C1275 1.398 . S
C1276 C1277 1.391 . S
C1277 H1265 0.950 . S
C1277 C1273 1.393 . S
C1277 C1276 1.391 . S
C1278 H1268 0.950 . S
C1278 C1279 1.386 . S
C1278 C1280 1.391 . S
C1279 C1278 1.386 . S
C1279 C1283 1.393 . S
C1280 H1269 0.950 . S
C1280 C1278 1.391 . S
C1280 C1281 1.400 . S
C1281 C1275 1.491 . S
C1281 C1280 1.400 . S
C1281 C1282 1.398 . S
C1282 H1270 0.950 . S
C1282 C1281 1.398 . S
C1282 C1283 1.391 . S
C1283 H1271 0.950 . S
C1283 C1279 1.393 . S
C1283 C1282 1.391 . S
H1284 C1292 0.950 . S
H1285 C1297 0.950 . S
H1286 C1294 0.950 . S
H1287 C1296 0.950 . S
H1288 C1298 0.950 . S
H1289 C1300 0.950 . S
H1290 C1302 0.950 . S
H1291 C1303 0.950 . S
C1292 H1284 0.950 . S
C1292 C1293 1.386 . S
C1292 C1294 1.391 . S
C1293 C1292 1.386 . S
C1293 C1297 1.393 . S
C1294 H1286 0.950 . S
C1294 C1292 1.391 . S
C1294 C1295 1.400 . S
C1295 C1294 1.400 . S
C1295 C1296 1.398 . S
C1295 C1301 1.491 . S
C1296 H1287 0.950 . S
C1296 C1295 1.398 . S
C1296 C1297 1.391 . S
C1297 H1285 0.950 . S
C1297 C1293 1.393 . S
C1297 C1296 1.391 . S
C1298 H1288 0.950 . S
C1298 C1299 1.386 . S
C1298 C1300 1.391 . S
C1299 C1298 1.386 . S
C1299 C1303 1.393 . S
C1300 H1289 0.950 . S
C1300 C1298 1.391 . S
C1300 C1301 1.400 . S
C1301 C1295 1.491 . S
C1301 C1300 1.400 . S
C1301 C1302 1.398 . S
C1302 H1290 0.950 . S
C1302 C1301 1.398 . S
C1302 C1303 1.391 . S
C1303 H1291 0.950 . S
C1303 C1299 1.393 . S
C1303 C1302 1.391 . S
H1304 C1312 0.950 . S
H1305 C1317 0.950 . S
H1306 C1314 0.950 . S
H1307 C1316 0.950 . S
H1308 C1318 0.950 . S
H1309 C1320 0.950 . S
H1310 C1322 0.950 . S
H1311 C1323 0.950 . S
C1312 H1304 0.950 . S
C1312 C1313 1.386 . S
C1312 C1314 1.391 . S
C1313 C1312 1.386 . S
C1313 C1317 1.393 . S
C1314 H1306 0.950 . S
C1314 C1312 1.391 . S
C1314 C1315 1.400 . S
C1315 C1314 1.400 . S
C1315 C1316 1.398 . S
C1315 C1321 1.491 . S
C1316 H1307 0.950 . S
C1316 C1315 1.398 . S
C1316 C1317 1.391 . S
C1317 H1305 0.950 . S
C1317 C1313 1.393 . S
C1317 C1316 1.391 . S
C1318 H1308 0.950 . S
C1318 C1319 1.386 . S
C1318 C1320 1.391 . S
C1319 C1318 1.386 . S
C1319 C1323 1.393 . S
C1320 H1309 0.950 . S
C1320 C1318 1.391 . S
C1320 C1321 1.400 . S
C1321 C1315 1.491 . S
C1321 C1320 1.400 . S
C1321 C1322 1.398 . S
C1322 H1310 0.950 . S
C1322 C1321 1.398 . S
C1322 C1323 1.391 . S
C1323 H1311 0.950 . S
C1323 C1319 1.393 . S
C1323 C1322 1.391 . S
H1324 C1332 0.950 . S
H1325 C1337 0.950 . S
H1326 C1334 0.950 . S
H1327 C1336 0.950 . S
H1328 C1338 0.950 . S
H1329 C1340 0.950 . S
H1330 C1342 0.950 . S
H1331 C1343 0.950 . S
C1332 H1324 0.950 . S
C1332 C1333 1.386 . S
C1332 C1334 1.391 . S
C1333 C1332 1.386 . S
C1333 C1337 1.393 . S
C1334 H1326 0.950 . S
C1334 C1332 1.391 . S
C1334 C1335 1.400 . S
C1335 C1334 1.400 . S
C1335 C1336 1.398 . S
C1335 C1341 1.491 . S
C1336 H1327 0.950 . S
C1336 C1335 1.398 . S
C1336 C1337 1.391 . S
C1337 H1325 0.950 . S
C1337 C1333 1.393 . S
C1337 C1336 1.391 . S
C1338 H1328 0.950 . S
C1338 C1339 1.386 . S
C1338 C1340 1.391 . S
C1339 C1338 1.386 . S
C1339 C1343 1.393 . S
C1340 H1329 0.950 . S
C1340 C1338 1.391 . S
C1340 C1341 1.400 . S
C1341 C1335 1.491 . S
C1341 C1340 1.400 . S
C1341 C1342 1.398 . S
C1342 H1330 0.950 . S
C1342 C1341 1.398 . S
C1342 C1343 1.391 . S
C1343 H1331 0.950 . S
C1343 C1339 1.393 . S
C1343 C1342 1.391 . S
C553 C9 1.462 . S
C559 C485 1.462 . S
C573 C73 1.836 . S
C579 C5 1.836 . S
C593 C39 1.822 . S
C599 C379 1.822 . S
C613 C247 1.438 . S
C619 C43 1.438 . S
C633 C77 1.469 . S
C639 C417 1.469 . S
C653 C107 1.830 . S
C659 C311 1.830 . S
C673 C111 1.438 . S
C679 C179 1.438 . S
C693 C349 1.472 . S
C699 C145 1.472 . S
C713 C209 1.823 . S
C719 C141 1.823 . S
C733 C175 1.835 . S
C739 C515 1.835 . S
C753 C281 1.463 . S
C759 C213 1.463 . S
C773 C447 1.823 . S
C779 C243 1.823 . S
C793 C277 1.829 . S
C799 C345 1.829 . S
C813 C519 1.463 . S
C819 C315 1.463 . S
C833 C383 1.472 . S
C839 C451 1.472 . S
C853 C413 1.835 . S
C859 C481 1.835 . S
C873 C2 1.342 . S
C879 C308 1.341 . S
C893 C339 1.301 . S
C899 C33 1.301 1_655 S
C913 C67 1.311 . S
C919 C305 1.311 . S
C933 C36 1.334 1_655 S
C939 C274 1.335 . S
C953 C376 1.342 . S
C959 C70 1.342 . S
C973 C407 1.305 . S
C979 C101 1.305 1_455 S
C993 C135 1.307 . S
C999 C373 1.307 . S
C1013 C104 1.341 1_455 S
C1019 C342 1.339 . S
C1033 C138 1.337 . S
C1039 C444 1.335 . S
C1053 C475 1.296 . S
C1059 C169 1.296 1_655 S
C1073 C203 1.303 . S
C1079 C441 1.303 . S
C1093 C410 1.338 . S
C1099 C172 1.341 1_655 S
C1113 C512 1.337 . S
C1119 C206 1.334 . S
C1133 C237 1.296 1_455 S
C1139 C543 1.296 . S
C1153 C271 1.304 . S
C1159 C509 1.304 . S
C1173 C240 1.341 1_455 S
C1179 C478 1.338 . S
C1193 C54 1.094 . S
C1199 C20 1.089 . S
C1213 C88 1.096 . S
C1219 C122 1.100 . S
C1233 C156 1.084 . S
C1239 C190 1.081 . S
C1253 C224 1.082 . S
C1259 C258 1.085 . S
C1273 C326 1.085 . S
C1279 C292 1.090 . S
C1293 C394 1.099 . S
C1299 C360 1.101 . S
C1313 C428 1.088 . S
C1319 C462 1.094 . S
C1333 C530 1.092 . S
C1339 C496 1.097 . S
