# Generated by pormake.
# Topology ecf, (8)-cn, num edge types: 1
# Building blocks:
#     Node 0, Type 0, BuildingBlock: TAGTUT_clean_sbu_3, # of connection points: 8
#     Node 1, Type 0, BuildingBlock: TAGTUT_clean_sbu_3, # of connection points: 8
#     Node 2, Type 0, BuildingBlock: TAGTUT_clean_sbu_3, # of connection points: 8
#     Node 3, Type 0, BuildingBlock: TAGTUT_clean_sbu_3, # of connection points: 8
#     Node 4, Type 0, BuildingBlock: TAGTUT_clean_sbu_3, # of connection points: 8
#     Node 5, Type 0, BuildingBlock: TAGTUT_clean_sbu_3, # of connection points: 8
#     Edge 6, Type (0, 0), BuildingBlock: CIFDUS_clean_linker_0, # of connection points: 2
#     Edge 7, Type (0, 0), BuildingBlock: CIFDUS_clean_linker_0, # of connection points: 2
#     Edge 8, Type (0, 0), BuildingBlock: CIFDUS_clean_linker_0, # of connection points: 2
#     Edge 9, Type (0, 0), BuildingBlock: CIFDUS_clean_linker_0, # of connection points: 2
#     Edge 10, Type (0, 0), BuildingBlock: CIFDUS_clean_linker_0, # of connection points: 2
#     Edge 11, Type (0, 0), BuildingBlock: CIFDUS_clean_linker_0, # of connection points: 2
#     Edge 12, Type (0, 0), BuildingBlock: CIFDUS_clean_linker_0, # of connection points: 2
#     Edge 13, Type (0, 0), BuildingBlock: CIFDUS_clean_linker_0, # of connection points: 2
#     Edge 14, Type (0, 0), BuildingBlock: CIFDUS_clean_linker_0, # of connection points: 2
#     Edge 15, Type (0, 0), BuildingBlock: CIFDUS_clean_linker_0, # of connection points: 2
#     Edge 16, Type (0, 0), BuildingBlock: CIFDUS_clean_linker_0, # of connection points: 2
#     Edge 17, Type (0, 0), BuildingBlock: CIFDUS_clean_linker_0, # of connection points: 2
#     Edge 18, Type (0, 0), BuildingBlock: CIFDUS_clean_linker_0, # of connection points: 2
#     Edge 19, Type (0, 0), BuildingBlock: CIFDUS_clean_linker_0, # of connection points: 2
#     Edge 20, Type (0, 0), BuildingBlock: CIFDUS_clean_linker_0, # of connection points: 2
#     Edge 21, Type (0, 0), BuildingBlock: CIFDUS_clean_linker_0, # of connection points: 2
#     Edge 22, Type (0, 0), BuildingBlock: CIFDUS_clean_linker_0, # of connection points: 2
#     Edge 23, Type (0, 0), BuildingBlock: CIFDUS_clean_linker_0, # of connection points: 2
#     Edge 24, Type (0, 0), BuildingBlock: CIFDUS_clean_linker_0, # of connection points: 2
#     Edge 25, Type (0, 0), BuildingBlock: CIFDUS_clean_linker_0, # of connection points: 2
#     Edge 26, Type (0, 0), BuildingBlock: CIFDUS_clean_linker_0, # of connection points: 2
#     Edge 27, Type (0, 0), BuildingBlock: CIFDUS_clean_linker_0, # of connection points: 2
#     Edge 28, Type (0, 0), BuildingBlock: CIFDUS_clean_linker_0, # of connection points: 2
#     Edge 29, Type (0, 0), BuildingBlock: CIFDUS_clean_linker_0, # of connection points: 2
# Relax obj value: 0.247
# Max RMSD: 0.185
# Mean RMSD: 0.185
data_MOF--net-ecf--node1-TAGTUT_clean_sbu_3--edge1-CIFDUS_clean_linker_0
_symmetry_space_group_name_H-M    P1
_symmetry_Int_Tables_number       1
_symmetry_cell_setting            triclinic
loop_
_symmetry_equiv_pos_as_xyz
'x, y, z'
_cell_length_a     30.569913
_cell_length_b     30.126366
_cell_length_c     23.74952
_cell_angle_alpha  89.673938
_cell_angle_beta   90.424681
_cell_angle_gamma 119.63181
loop_
_atom_site_label
_atom_site_type_symbol
_atom_site_fract_x
_atom_site_fract_y
_atom_site_fract_z
_atom_type_partial_charge
C0 C 0.12367 0.33365 0.1469 0.0
C1 C -0.01926 0.19414 0.20967 0.0
C2 C 0.05661 0.22118 0.37716 0.0
Mg3 Mg 0.24294 0.39828 0.19893 0.0
Mg4 Mg 0.29687 0.36394 0.30177 0.0
O5 O 0.23927 0.36315 0.27168 0.0
Mg6 Mg 0.17203 0.306 0.26097 0.0
O7 O 0.10162 0.25503 0.24636 0.0
Mg8 Mg 0.07079 0.2981 0.26815 0.0
Mg9 Mg 0.06991 0.18595 0.26111 0.0
C10 C 0.22244 0.27635 0.38316 0.0
O11 O 0.1969 0.25318 0.22537 0.0
O12 O 0.31329 0.46486 0.23856 0.0
O13 O 0.12939 0.17404 0.22844 0.0
O14 O 0.29098 0.36398 0.1623 0.0
O15 O 0.34364 0.44411 0.31477 0.0
O16 O 0.32428 0.34156 0.23431 0.0
O17 O 0.14635 0.36082 0.29449 0.0
O18 O 0.1969 0.42739 0.24066 0.0
C19 C 0.16081 0.406 0.2757 0.0
C20 C 0.34337 0.47704 0.28081 0.0
O21 O 0.18363 0.27328 0.35562 0.0
O22 O -0.0038 0.237 0.23391 0.0
O23 O 0.26751 0.30763 0.36797 0.0
O24 O 0.05797 0.26015 0.35353 0.0
O25 O 0.00414 0.16876 0.21284 0.0
O26 O 0.05963 0.18628 0.35016 0.0
O27 O 0.16292 0.33059 0.16508 0.0
O28 O 0.09034 0.33072 0.18125 0.0
C29 C 0.31796 0.34546 0.18204 0.0
C30 C 0.17554 0.20526 0.21635 0.0
C31 C 0.75446 0.19644 0.73604 0.0
C32 C 0.89639 0.37452 0.68913 0.0
C33 C 0.97677 0.28906 0.64554 0.0
Mg34 Mg 0.75791 0.10189 0.78697 0.0
Mg35 Mg 0.85526 0.12055 0.8605 0.0
O36 O 0.83221 0.12184 0.78747 0.0
Mg37 Mg 0.85959 0.19433 0.76365 0.0
O38 O 0.88005 0.26422 0.73937 0.0
Mg39 Mg 0.85275 0.24852 0.65954 0.0
Mg40 Mg 0.94583 0.32069 0.75118 0.0
C41 C 0.9579 0.18964 0.79614 0.0
O42 O 0.89921 0.23148 0.85727 0.0
O43 O 0.74405 0.02254 0.81325 0.0
O44 O 0.96528 0.30836 0.83589 0.0
O45 O 0.75488 0.12027 0.87733 0.0
O46 O 0.8101 0.03944 0.87013 0.0
O47 O 0.82875 0.15468 0.91995 0.0
O48 O 0.83228 0.16192 0.6696 0.0
O49 O 0.7628 0.08915 0.69287 0.0
C50 C 0.79334 0.11846 0.65506 0.0
C51 C 0.76779 0.00834 0.84711 0.0
O52 O 0.93638 0.20141 0.75691 0.0
O53 O 0.87166 0.33392 0.65921 0.0
O54 O 0.93435 0.16226 0.83913 0.0
O55 O 0.93066 0.26736 0.63039 0.0
O56 O 0.92702 0.37807 0.72832 0.0
O57 O -0.00722 0.31386 0.69109 0.0
O58 O 0.77994 0.18365 0.76877 0.0
O59 O 0.77499 0.22477 0.69313 0.0
C60 C 0.7829 0.14331 0.91918 0.0
C61 C 0.94225 0.27152 0.87082 0.0
C62 C 0.63705 0.7812 0.1552 0.0
C63 C 0.76085 0.77057 0.28451 0.0
C64 C 0.6992 0.83339 0.4084 0.0
Mg65 Mg 0.57163 0.84438 0.17962 0.0
Mg66 Mg 0.60366 0.94207 0.27137 0.0
O67 O 0.6043 0.88249 0.25007 0.0
Mg68 Mg 0.65628 0.86425 0.25739 0.0
O69 O 0.70367 0.83755 0.26321 0.0
Mg70 Mg 0.65255 0.76716 0.29 0.0
Mg71 Mg 0.76282 0.87401 0.3033 0.0
C72 C 0.67866 0.9518 0.36853 0.0
O73 O 0.71621 0.93471 0.21715 0.0
O74 O 0.50631 0.85682 0.20325 0.0
O75 O 0.78845 0.94 0.24874 0.0
O76 O 0.60964 0.92253 0.13316 0.0
O77 O 0.5238 0.90922 0.27746 0.0
O78 O 0.62862 0.98468 0.19722 0.0
O79 O 0.59479 0.79067 0.29396 0.0
O80 O 0.53419 0.77348 0.23158 0.0
C81 C 0.55038 0.7617 0.2755 0.0
C82 C 0.49272 0.87631 0.24258 0.0
O83 O 0.6799 0.91244 0.34772 0.0
O84 O 0.713 0.74492 0.28552 0.0
O85 O 0.65374 0.9704 0.34425 0.0
O86 O 0.67031 0.79307 0.38055 0.0
O87 O 0.78631 0.81914 0.29025 0.0
O88 O 0.73763 0.87159 0.3871 0.0
O89 O 0.63835 0.82457 0.16563 0.0
O90 O 0.63791 0.7532 0.1957 0.0
C91 C 0.6269 0.96954 0.14693 0.0
C92 C 0.76392 0.95531 0.21769 0.0
C93 C 0.77671 0.55231 0.74 0.0
C94 C 0.59785 0.51735 0.69709 0.0
C95 C 0.68316 0.68614 0.6591 0.0
Mg96 Mg 0.86992 0.64828 0.79059 0.0
Mg97 Mg 0.85639 0.73082 0.86548 0.0
O98 O 0.84859 0.70288 0.79392 0.0
Mg99 Mg 0.77656 0.65852 0.77258 0.0
O100 O 0.70722 0.60926 0.74915 0.0
Mg101 Mg 0.72178 0.5999 0.66815 0.0
Mg102 Mg 0.65148 0.61917 0.76215 0.0
C103 C 0.78169 0.76332 0.80929 0.0
O104 O 0.742 0.65819 0.86737 0.0
O105 O 0.94934 0.71399 0.81 0.0
O106 O 0.66557 0.64879 0.84737 0.0
O107 O 0.85541 0.62562 0.88161 0.0
O108 O 0.93756 0.76819 0.86459 0.0
O109 O 0.82513 0.66967 0.92444 0.0
O110 O 0.80655 0.66639 0.67787 0.0
O111 O 0.87865 0.66715 0.69829 0.0
C112 C 0.84943 0.67101 0.66226 0.0
C113 C 0.96628 0.75524 0.83869 0.0
O114 O 0.76785 0.72939 0.77043 0.0
O115 O 0.63775 0.53325 0.66695 0.0
O116 O 0.81222 0.76773 0.8492 0.0
O117 O 0.70308 0.66046 0.64137 0.0
O118 O 0.59466 0.54399 0.73712 0.0
O119 O 0.65955 0.67668 0.70522 0.0
O120 O 0.78917 0.58932 0.77445 0.0
O121 O 0.74677 0.54522 0.69897 0.0
C122 C 0.83378 0.63255 0.92337 0.0
C123 C 0.70232 0.66124 0.88173 0.0
C124 C 0.18835 0.86099 0.17261 0.0
C125 C 0.21424 0.00148 0.30361 0.0
C126 C 0.15177 0.87948 0.43006 0.0
Mg127 Mg 0.1178 0.73082 0.19521 0.0
Mg128 Mg 0.02749 0.67158 0.29129 0.0
O129 O 0.08839 0.7283 0.27039 0.0
Mg130 Mg 0.11022 0.80087 0.27841 0.0
O131 O 0.14038 0.87609 0.28424 0.0
Mg132 Mg 0.20976 0.8899 0.30694 0.0
Mg133 Mg 0.11051 0.90528 0.32631 0.0
C134 C 0.02694 0.73914 0.39068 0.0
O135 O 0.03939 0.79645 0.24738 0.0
O136 O 0.09604 0.64557 0.21164 0.0
O137 O 0.03815 0.86464 0.28488 0.0
O138 O 0.03865 0.70258 0.15506 0.0
O139 O 0.04534 0.61151 0.2864 0.0
O140 O -0.01857 0.66485 0.22392 0.0
O141 O 0.18287 0.80631 0.30794 0.0
O142 O 0.18969 0.75701 0.24297 0.0
C143 C 0.20733 0.78676 0.28545 0.0
C144 C 0.07211 0.60885 0.24686 0.0
O145 O 0.06665 0.77895 0.37055 0.0
O146 O 0.23587 0.9746 0.30309 0.0
O147 O 0.00672 0.69588 0.36595 0.0
O148 O 0.1887 0.88455 0.40015 0.0
O149 O 0.16676 0.98275 0.31012 0.0
O150 O 0.11553 0.88391 0.40965 0.0
O151 O 0.14478 0.821 0.18497 0.0
O152 O 0.2186 0.88863 0.21182 0.0
C153 C -0.00678 0.67914 0.17333 0.0
C154 C 0.01889 0.82388 0.25502 0.0
C155 C 0.40734 0.21974 0.73817 0.0
C156 C 0.45722 0.08807 0.72132 0.0
C157 C 0.2967 0.98128 0.68847 0.0
Mg158 Mg 0.31458 0.2215 0.7859 0.0
Mg159 Mg 0.2475 0.13856 0.8788 0.0
O160 O 0.26215 0.14681 0.80182 0.0
Mg161 Mg 0.30483 0.11557 0.7832 0.0
O162 O 0.35343 0.09378 0.76218 0.0
Mg163 Mg 0.36198 0.11075 0.6793 0.0
Mg164 Mg 0.35957 0.03793 0.7888 0.0
C165 C 0.20595 0.02339 0.83939 0.0
O166 O 0.31063 0.08988 0.88233 0.0
O167 O 0.2523 0.23899 0.80654 0.0
O168 O 0.32776 0.0256 0.87188 0.0
O169 O 0.34324 0.24338 0.87383 0.0
O170 O 0.212 0.1849 0.8784 0.0
O171 O 0.31416 0.17616 0.92974 0.0
O172 O 0.29206 0.12722 0.68355 0.0
O173 O 0.28923 0.1998 0.69507 0.0
C174 C 0.28527 0.16395 0.66306 0.0
C175 C 0.21906 0.2218 0.8455 0.0
O176 O 0.23449 0.03622 0.79554 0.0
O177 O 0.43425 0.10142 0.68501 0.0
O178 O 0.20794 0.05608 0.87543 0.0
O179 O 0.30994 0.02441 0.66477 0.0
O180 O 0.43647 0.06518 0.76732 0.0
O181 O 0.31296 0.97674 0.73614 0.0
O182 O 0.37232 0.19713 0.77442 0.0
O183 O 0.41244 0.19476 0.69812 0.0
C184 C 0.34456 0.22311 0.92022 0.0
C185 C 0.31094 0.04917 0.90152 0.0
H186 H 0.13228 0.44392 0.19087 0.0
H187 H 0.11877 0.42176 0.37061 0.0
H188 H 0.08316 0.47923 0.37691 0.0
H189 H 0.06809 0.54529 0.33173 0.0
H190 H 0.08957 0.57044 0.15243 0.0
H191 H 0.11004 0.50216 0.14533 0.0
C192 C 0.1208 0.45106 0.23143 0.0
C193 C 0.12873 0.42956 0.28038 0.0
C194 C 0.10256 0.48522 0.23467 0.0
C195 C 0.11297 0.43811 0.33248 0.0
C196 C 0.09316 0.4713 0.336 0.0
C197 C 0.07643 0.53511 0.29107 0.0
C198 C 0.07797 0.56323 0.24269 0.0
C199 C 0.08966 0.4966 0.28753 0.0
C200 C 0.0889 0.54985 0.19028 0.0
C201 C 0.10047 0.51077 0.18617 0.0
H202 H 0.52335 0.08614 0.79771 0.0
H203 H 0.5136 0.12985 0.62651 0.0
H204 H 0.60444 0.16691 0.61639 0.0
H205 H 0.68683 0.19006 0.65708 0.0
H206 H 0.69722 0.14858 0.82881 0.0
H207 H 0.60581 0.10747 0.83773 0.0
C208 C 0.54087 0.10317 0.75787 0.0
C209 C 0.5114 0.10511 0.71292 0.0
C210 C 0.59332 0.12525 0.7526 0.0
C211 C 0.53512 0.12775 0.66184 0.0
C212 C 0.58718 0.14917 0.65606 0.0
C213 C 0.66924 0.17222 0.69663 0.0
C214 C 0.69905 0.17242 0.7423 0.0
C215 C 0.61669 0.14884 0.70142 0.0
C216 C 0.67533 0.1486 0.79289 0.0
C217 C 0.62299 0.12521 0.79803 0.0
H218 H 0.43947 0.52762 0.32164 0.0
H219 H 0.31505 0.54767 0.26812 0.0
H220 H 0.36752 0.63985 0.27434 0.0
H221 H 0.45074 0.71346 0.27917 0.0
H222 H 0.57804 0.69618 0.32594 0.0
H223 H 0.52249 0.60447 0.34001 0.0
C224 C 0.42398 0.55241 0.31237 0.0
C225 C 0.37423 0.53149 0.29296 0.0
C226 C 0.45483 0.60566 0.3145 0.0
C227 C 0.35387 0.56341 0.2816 0.0
C228 C 0.38364 0.61597 0.28542 0.0
C229 C 0.46622 0.68969 0.2934 0.0
C230 C 0.51829 0.71083 0.29948 0.0
C231 C 0.43456 0.63735 0.29933 0.0
C232 C 0.53804 0.68042 0.31973 0.0
C233 C 0.5063 0.62793 0.32745 0.0
H234 H 0.90336 0.43998 0.77135 0.0
H235 H 0.85289 0.39581 0.60002 0.0
H236 H 0.81211 0.44797 0.60103 0.0
H237 H 0.78524 0.49994 0.65263 0.0
H238 H 0.83221 0.54176 0.8252 0.0
H239 H 0.87983 0.49615 0.82179 0.0
C240 C 0.88447 0.4427 0.73374 0.0
C241 C 0.88125 0.41408 0.68556 0.0
C242 C 0.85965 0.47137 0.73529 0.0
C243 C 0.85596 0.41747 0.63754 0.0
C244 C 0.83232 0.44696 0.63826 0.0
C245 C 0.80565 0.499 0.68976 0.0
C246 C 0.80474 0.52389 0.73942 0.0
C247 C 0.83275 0.47281 0.6874 0.0
C248 C 0.83223 0.52294 0.78657 0.0
C249 C 0.85948 0.4969 0.78456 0.0
H250 H 0.25992 0.74096 0.25985 0.0
H251 H 0.27446 0.87453 0.34308 0.0
H252 H 0.36628 0.91434 0.33963 0.0
H253 H 0.44189 0.91499 0.30055 0.0
H254 H 0.42243 0.7817 0.21102 0.0
H255 H 0.33298 0.73859 0.22828 0.0
C256 C 0.28306 0.77871 0.27771 0.0
C257 C 0.2606 0.80572 0.29925 0.0
C258 C 0.33501 0.80194 0.27315 0.0
C259 C 0.29091 0.85356 0.32449 0.0
C260 C 0.34341 0.87645 0.32223 0.0
C261 C 0.41787 0.87662 0.28484 0.0
C262 C 0.43852 0.85227 0.25315 0.0
C263 C 0.36579 0.85186 0.29422 0.0
C264 C 0.40732 0.8021 0.23389 0.0
C265 C 0.35617 0.777 0.24431 0.0
H266 H 0.46036 0.28173 0.65078 0.0
H267 H 0.42594 0.28494 0.82591 0.0
H268 H 0.47568 0.37789 0.82599 0.0
H269 H 0.53329 0.45774 0.77811 0.0
H270 H 0.57453 0.45459 0.60541 0.0
H271 H 0.51763 0.36218 0.60237 0.0
C272 C 0.46368 0.30273 0.68899 0.0
C273 C 0.43845 0.27627 0.73816 0.0
C274 C 0.4936 0.35626 0.68903 0.0
C275 C 0.44341 0.30425 0.78717 0.0
C276 C 0.47236 0.35747 0.78733 0.0
C277 C 0.52912 0.43709 0.73936 0.0
C278 C 0.55786 0.4632 0.69186 0.0
C279 C 0.49784 0.38384 0.7386 0.0
C280 C 0.5527 0.43551 0.64245 0.0
C281 C 0.52039 0.38263 0.64082 0.0
H282 H 0.24601 0.21242 0.28589 0.0
H283 H 0.1741 0.14808 0.1272 0.0
H284 H 0.20235 0.08501 0.13312 0.0
H285 H 0.21828 0.03237 0.19904 0.0
H286 H 0.26977 0.08598 0.36727 0.0
H287 H 0.28134 0.17001 0.34243 0.0
C288 C 0.23876 0.18594 0.25155 0.0
C289 C 0.20786 0.18365 0.20661 0.0
C290 C 0.25094 0.14739 0.25806 0.0
C291 C 0.19784 0.14967 0.16213 0.0
C292 C 0.21362 0.11359 0.16587 0.0
C293 C 0.23444 0.06358 0.22906 0.0
C294 C 0.24246 0.05393 0.28474 0.0
C295 C 0.23591 0.10939 0.21599 0.0
C296 C 0.26322 0.0934 0.32422 0.0
C297 C 0.26914 0.14098 0.31013 0.0
H298 H 0.01858 0.21431 0.88581 0.0
H299 H 0.01896 0.21582 0.70423 0.0
H300 H 0.1085 0.24144 0.70437 0.0
H301 H 0.1797 0.245 0.75649 0.0
H302 H 0.17489 0.2346 0.93783 0.0
H303 H 0.0944 0.23338 0.93797 0.0
C304 C 0.03847 0.22089 0.84627 0.0
C305 C 0.01245 0.21169 0.79504 0.0
C306 C 0.08901 0.23439 0.84693 0.0
C307 C 0.03853 0.2219 0.74404 0.0
C308 C 0.0895 0.23648 0.74421 0.0
C309 C 0.1618 0.24437 0.79602 0.0
C310 C 0.182 0.2388 0.84701 0.0
C311 C 0.11432 0.24033 0.79543 0.0
C312 C 0.15907 0.23808 0.89817 0.0
C313 C 0.11307 0.23693 0.89818 0.0
H314 H 0.95046 0.12843 0.12355 0.0
H315 H 0.90075 0.20731 0.23409 0.0
H316 H 0.81429 0.13777 0.22643 0.0
H317 H 0.76597 0.04438 0.22331 0.0
H318 H 0.82361 0.9616 0.13167 0.0
H319 H 0.89258 0.04139 0.09532 0.0
C320 C 0.9201 0.13099 0.14394 0.0
C321 C 0.93142 0.17009 0.18252 0.0
C322 C 0.87188 0.08898 0.14366 0.0
C323 C 0.89256 0.17578 0.20618 0.0
C324 C 0.84325 0.13579 0.20233 0.0
C325 C 0.79258 0.0443 0.19333 0.0
C326 C 0.79197 -0.00126 0.18136 0.0
C327 C 0.83405 0.09014 0.17681 0.0
C328 C 0.82525 -0.00264 0.14222 0.0
C329 C 0.8644 0.04276 0.12156 0.0
H330 H 0.73116 0.93685 0.76655 0.0
H331 H 0.76715 0.95975 0.94364 0.0
H332 H 0.76447 0.87742 0.94941 0.0
H333 H 0.77109 0.81052 0.89969 0.0
H334 H 0.74541 0.79317 0.72084 0.0
H335 H 0.72414 0.86132 0.71953 0.0
C336 C 0.73654 0.92276 0.80669 0.0
C337 C 0.75005 0.95398 0.85441 0.0
C338 C 0.73815 0.87723 0.80879 0.0
C339 C 0.75725 0.93605 0.90636 0.0
C340 C 0.75614 0.88938 0.90952 0.0
C341 C 0.76033 0.82136 0.86053 0.0
C342 C 0.76117 0.79818 0.80981 0.0
C343 C 0.74995 0.86152 0.86025 0.0
C344 C 0.74547 0.81109 0.75987 0.0
C345 C 0.73353 0.85013 0.75928 0.0
H346 H 0.80845 0.7836 0.18909 0.0
H347 H 0.77676 0.70448 0.3479 0.0
H348 H 0.85636 0.70371 0.34348 0.0
H349 H 0.9434 0.75095 0.31068 0.0
H350 H -0.01958 0.84728 0.16383 0.0
H351 H 0.89085 0.81734 0.14667 0.0
C352 C 0.8183 0.76406 0.22109 0.0
C353 C 0.78868 0.74532 0.26927 0.0
C354 C 0.86603 0.76933 0.22127 0.0
C355 C 0.8 0.71937 0.31074 0.0
C356 C 0.84578 0.71995 0.30867 0.0
C357 C 0.93125 0.76427 0.2744 0.0
C358 C 0.96692 0.80166 0.23906 0.0
C359 C 0.88066 0.74901 0.26694 0.0
C360 C 0.95248 0.8191 0.19172 0.0
C361 C 0.90168 0.80176 0.1819 0.0
H362 H 0.169 0.94228 0.76693 0.0
H363 H 0.16269 0.98279 0.9397 0.0
H364 H 0.09262 0.89821 0.95776 0.0
H365 H 0.02397 0.81893 0.92047 0.0
H366 H 0.02782 0.77693 0.74818 0.0
H367 H 0.10839 0.85515 0.73423 0.0
C368 C 0.15277 0.9322 0.80862 0.0
C369 C 0.16968 0.96934 0.85111 0.0
C370 C 0.11176 0.88333 0.81882 0.0
C371 C 0.14911 0.95548 0.90549 0.0
C372 C 0.10915 0.90699 0.91612 0.0
C373 C 0.04323 0.82636 0.88039 0.0
C374 C 0.01999 0.79312 0.83523 0.0
C375 C 0.08868 0.87157 0.87244 0.0
C376 C 0.04527 0.80233 0.78359 0.0
C377 C 0.09101 0.84725 0.77541 0.0
H378 H 0.36573 0.38378 0.08336 0.0
H379 H 0.32026 0.25838 0.19925 0.0
H380 H 0.3381 0.21034 0.12976 0.0
H381 H 0.34823 0.19827 0.02976 0.0
H382 H 0.40144 0.32703 0.91639 0.0
H383 H 0.4031 0.38113 0.99264 0.0
C384 C 0.36073 0.34636 0.0934 0.0
C385 C 0.33864 0.32273 0.14422 0.0
C386 C 0.37332 0.32012 0.05428 0.0
C387 C 0.33463 0.27561 0.15869 0.0
C388 C 0.34552 0.24854 0.11942 0.0
C389 C 0.36218 0.23863 1.02223 0.0
C390 C 0.37099 0.25779 0.96719 0.0
C391 C 0.36219 0.26939 0.06594 0.0
C392 C 0.39184 0.31073 0.9583 0.0
C393 C 0.39235 0.34173 1.00168 0.0
H394 H 0.95927 0.19969 0.60523 0.0
H395 H 0.07005 0.35973 0.60997 0.0
H396 H 0.11494 0.34808 0.53142 0.0
H397 H 0.10781 0.29735 0.44845 0.0
H398 H -0.00615 0.13857 0.44033 0.0
H399 H 0.9653 0.14384 0.53491 0.0
C400 C -0.00599 0.23158 0.5897 0.0
C401 C 0.01083 0.28075 0.61081 0.0
C402 C 0.01843 0.22468 0.54429 0.0
C403 C 0.05643 0.32185 0.59283 0.0
C404 C 0.08177 0.31517 0.54809 0.0
C405 C 0.07784 0.26358 0.46848 0.0
C406 C 0.05167 0.21811 0.43796 0.0
C407 C 0.06098 0.26754 0.52135 0.0
C408 C 0.01389 0.17395 0.46363 0.0
C409 C -0.00259 0.17717 0.51721 0.0
H410 H 0.7122 0.05889 0.15036 0.0
H411 H 0.57991 0.9679 0.04949 0.0
H412 H 0.61186 0.0334 0.97578 0.0
H413 H 0.68364 0.10519 0.93387 0.0
H414 H 0.82524 0.17981 1.02372 0.0
H415 H 0.78241 0.13675 0.11035 0.0
C416 C 0.69058 0.0538 0.11217 0.0
C417 C 0.64496 0.0086 0.10367 0.0
C418 C 0.7106 0.08974 0.06906 0.0
C419 C 0.61607 0.00206 0.05526 0.0
C420 C 0.63396 0.03964 1.01382 0.0
C421 C 0.70518 0.11288 0.97267 0.0
C422 C 0.75787 0.14268 0.97188 0.0
C423 C 0.6822 0.08224 1.01924 0.0
C424 C 0.78478 0.1552 1.02291 0.0
C425 C 0.76053 0.12972 0.07209 0.0
H426 H 0.61945 0.71778 0.62343 0.0
H427 H 0.77579 0.75857 0.63058 0.0
H428 H 0.79783 0.82963 0.56619 0.0
H429 H 0.76907 0.85985 0.48774 0.0
H430 H 0.61032 0.8006 0.46175 0.0
H431 H 0.59227 0.7601 0.55445 0.0
C432 C 0.65828 0.74332 0.61167 0.0
C433 C 0.69585 0.73299 0.62952 0.0
C434 C 0.66992 0.78108 0.57101 0.0
C435 C 0.74633 0.76565 0.61512 0.0
C436 C 0.75893 0.80636 0.57894 0.0
C437 C 0.7309 0.84006 0.50387 0.0
C438 C 0.69093 0.83151 0.46857 0.0
C439 C 0.72057 0.81176 0.55331 0.0
C440 C 0.64138 0.80631 0.4888 0.0
C441 C 0.63111 0.78276 0.54127 0.0
H442 H 0.81493 0.65459 0.02749 0.0
H443 H 0.84998 0.55149 0.93927 0.0
H444 H 0.90404 0.55457 1.01672 0.0
H445 H 0.96066 0.60813 0.09289 0.0
H446 H 0.92981 0.71566 0.17623 0.0
H447 H 0.85666 0.69214 0.11578 0.0
C448 C 0.83277 0.63117 0.02617 0.0
C449 C 0.83272 0.6068 0.97623 0.0
C450 C 0.86721 0.63702 0.06806 0.0
C451 C 0.85232 0.57324 0.97648 0.0
C452 C 0.88413 0.57585 1.02009 0.0
C453 C 0.93784 0.62636 0.09708 0.0
C454 C 0.95155 0.66595 0.13552 0.0
C455 C 0.89569 0.61176 0.06286 0.0
C456 C 0.9207 0.68736 0.1441 0.0
C457 C 0.87856 0.67307 0.11054 0.0
H458 H 0.20094 0.95285 0.66974 0.0
H459 H 0.31396 0.90987 0.64187 0.0
H460 H 0.26538 0.85597 0.56267 0.0
H461 H 0.20751 0.84702 0.48652 0.0
H462 H 0.10015 0.89888 0.51035 0.0
H463 H 0.12756 0.92077 0.60764 0.0
C464 C 0.21332 0.92953 0.64782 0.0
C465 C 0.26077 0.9356 0.65938 0.0
C466 C 0.18651 0.90096 0.60131 0.0
C467 C 0.27737 0.9056 0.63219 0.0
C468 C 0.24987 0.87527 0.58691 0.0
C469 C 0.18924 0.86178 0.51362 0.0
C470 C 0.15442 0.8745 0.49101 0.0
C471 C 0.20689 0.8766 0.56833 0.0
C472 C 0.12875 0.89089 0.52663 0.0
C473 C 0.14442 0.90351 0.58216 0.0
H474 H 0.65598 0.71796 0.90203 0.0
H475 H 0.74056 0.65783 0.98738 0.0
H476 H 0.72893 0.69089 0.07712 0.0
H477 H 0.6914 0.73327 0.13232 0.0
H478 H 0.61035 0.79758 0.04713 0.0
H479 H 0.62442 0.76708 0.95662 0.0
C480 C 0.67197 0.7119 0.94023 0.0
C481 C 0.69877 0.68431 0.93728 0.0
C482 C 0.66559 0.73187 0.99191 0.0
C483 C 0.71994 0.67845 0.98756 0.0
C484 C 0.71297 0.69732 0.03913 0.0
C485 C 0.67654 0.74082 0.0941 0.0
C486 C 0.64873 0.76738 0.09763 0.0
C487 C 0.68532 0.7235 0.04201 0.0
C488 C 0.63142 0.77739 0.0467 0.0
C489 C 0.63939 0.75959 0.99474 0.0
H490 H 0.92568 0.69577 0.40892 0.0
H491 H 0.06863 0.78279 0.49262 0.0
H492 H 0.02546 0.77466 0.58191 0.0
H493 H 0.94762 0.73506 0.63789 0.0
H494 H 0.8037 0.64543 0.55623 0.0
H495 H 0.84632 0.6626 0.46443 0.0
C496 C 0.94743 0.71377 0.44657 0.0
C497 C 0.00092 0.74104 0.44353 0.0
C498 C 0.92189 0.70778 0.49822 0.0
C499 C 0.02804 0.76355 0.49296 0.0
C500 C 0.00308 0.75798 0.54429 0.0
C501 C 0.92518 0.71965 0.59999 0.0
C502 C 0.87207 0.68844 0.60453 0.0
C503 C 0.95012 0.72924 0.54765 0.0
C504 C 0.84419 0.66962 0.55452 0.0
C505 C 0.86881 0.67914 0.50199 0.0
H506 H 0.25783 0.94621 0.92201 0.0
H507 H 0.30448 0.08995 1.00477 0.0
H508 H 0.26851 0.04393 0.09354 0.0
H509 H 0.22859 0.96303 0.14924 0.0
H510 H 0.17753 0.81901 0.06529 0.0
H511 H 0.20977 0.86482 0.97555 0.0
C512 C 0.26032 0.96782 0.95941 0.0
C513 C 0.2853 0.0223 0.95615 0.0
C514 C 0.23854 0.94074 1.01027 0.0
C515 C 0.28629 0.04866 1.00524 0.0
C516 C 0.26566 0.02207 0.05625 0.0
C517 C 0.22394 0.94128 0.11128 0.0
C518 C 0.20062 0.88688 0.11499 0.0
C519 C 0.24241 0.96816 0.05954 0.0
C520 C 0.19479 0.86022 0.0646 0.0
C521 C 0.21372 0.88673 1.01314 0.0
H522 H 0.20935 0.18126 0.62839 0.0
H523 H 0.32808 0.15951 0.56181 0.0
H524 H 0.31646 0.18903 0.46893 0.0
H525 H 0.27938 0.2312 0.40936 0.0
H526 H 0.15906 0.25025 0.47542 0.0
H527 H 0.1641 0.21175 0.5649 0.0
C528 C 0.23179 0.18137 0.59318 0.0
C529 C 0.26935 0.16709 0.60288 0.0
C530 C 0.22497 0.19891 0.53961 0.0
C531 C 0.29827 0.16872 0.55628 0.0
C532 C 0.292 0.18648 0.50306 0.0
C533 C 0.25326 0.22582 0.44278 0.0
C534 C 0.21822 0.2437 0.43451 0.0
C535 C 0.25645 0.2031 0.49453 0.0
C536 C 0.18544 0.23641 0.4792 0.0
C537 C 0.18888 0.21471 0.53092 0.0
H538 H 0.03046 0.26015 0.11363 0.0
H539 H 0.16721 0.38259 0.0446 0.0
H540 H 0.12312 0.37376 0.95432 0.0
H541 H 0.04328 0.33548 0.89718 0.0
H542 H 0.90702 0.21467 0.9696 0.0
H543 H 0.95289 0.21936 0.05598 0.0
C544 C 0.05128 0.28458 0.07867 0.0
C545 C 0.10299 0.3219 0.08683 0.0
C546 C 0.02504 0.28026 0.02747 0.0
C547 C 0.12829 0.35294 0.0403 0.0
C548 C 0.10254 0.3483 0.98867 0.0
C549 C 0.02317 0.31015 0.93182 0.0
C550 C 0.97042 0.27477 0.92575 0.0
C551 C 0.05048 0.31294 0.98213 0.0
C552 C 0.94659 0.24212 0.97167 0.0
C553 C 0.97323 0.24487 1.02154 0.0
H554 H 0.74101 0.01809 0.62403 0.0
H555 H 0.8216 0.16853 0.55059 0.0
H556 H 0.79566 0.13059 0.45602 0.0
H557 H 0.7448 0.05384 0.39384 0.0
H558 H 0.66459 0.90528 0.47036 0.0
H559 H 0.69602 0.94272 0.56321 0.0
C560 C 0.75343 0.04304 0.58754 0.0
C561 C 0.78324 0.09678 0.59551 0.0
C562 C 0.73847 0.02078 0.53326 0.0
C563 C 0.79895 0.12745 0.54673 0.0
C564 C 0.78376 0.10553 0.49238 0.0
C565 C 0.73503 0.02955 0.43078 0.0
C566 C 0.7037 0.97572 0.42424 0.0
C567 C 0.75285 0.05216 0.48498 0.0
C568 C 0.69072 0.94567 0.47317 0.0
C569 C 0.70795 0.96756 0.52664 0.0
loop_
_geom_bond_atom_site_label_1
_geom_bond_atom_site_label_2
_geom_bond_distance
_geom_bond_site_symmetry_2
_ccdc_geom_bond_type
C0 O27 1.312 . S
C0 O28 1.208 . S
C1 O22 1.331 . S
C1 O25 1.228 1_655 S
C2 O24 1.264 . S
C2 O26 1.273 . S
Mg3 O5 1.936 . S
Mg3 O12 2.081 . S
Mg3 O14 2.023 . S
Mg3 O18 2.031 . S
Mg3 O27 2.291 . S
Mg4 O5 1.963 . S
Mg4 O15 1.942 . S
Mg4 O16 1.955 . S
Mg4 O23 1.986 . S
O5 Mg3 1.936 . S
O5 Mg4 1.963 . S
O5 Mg6 1.915 . S
Mg6 O5 1.915 . S
Mg6 O7 1.915 . S
Mg6 O11 2.013 . S
Mg6 O17 2.114 . S
Mg6 O21 2.013 . S
Mg6 O27 2.114 . S
O7 Mg6 1.915 . S
O7 Mg8 1.936 . S
O7 Mg9 1.963 . S
Mg8 O7 1.936 . S
Mg8 O17 2.291 . S
Mg8 O22 2.081 1_455 S
Mg8 O24 2.023 . S
Mg8 O28 2.031 . S
Mg9 O7 1.963 . S
Mg9 O13 1.986 . S
Mg9 O25 1.958 . S
Mg9 O26 1.955 . S
C10 O21 1.191 . S
C10 O23 1.307 . S
O11 Mg6 2.013 . S
O11 C30 1.191 . S
O12 Mg3 2.081 . S
O12 C20 1.331 . S
O13 Mg9 1.986 . S
O13 C30 1.307 . S
O14 Mg3 2.023 . S
O14 C29 1.264 . S
O15 Mg4 1.942 . S
O15 C20 1.244 . S
O16 Mg4 1.955 . S
O16 C29 1.273 . S
O17 Mg6 2.114 . S
O17 Mg8 2.291 . S
O17 C19 1.312 . S
O18 Mg3 2.031 . S
O18 C19 1.208 . S
C19 O17 1.312 . S
C19 O18 1.208 . S
C20 O12 1.331 . S
C20 O15 1.244 . S
O21 Mg6 2.013 . S
O21 C10 1.191 . S
O22 C1 1.331 . S
O22 Mg8 2.081 1_655 S
O23 Mg4 1.986 . S
O23 C10 1.307 . S
O24 C2 1.264 . S
O24 Mg8 2.023 . S
O25 C1 1.228 1_455 S
O25 Mg9 1.958 . S
O26 C2 1.273 . S
O26 Mg9 1.955 . S
O27 C0 1.312 . S
O27 Mg3 2.291 . S
O27 Mg6 2.114 . S
O28 C0 1.208 . S
O28 Mg8 2.031 . S
C29 O14 1.264 . S
C29 O16 1.273 . S
C30 O11 1.191 . S
C30 O13 1.307 . S
C31 O58 1.312 . S
C31 O59 1.208 . S
C32 O53 1.331 . S
C32 O56 1.244 . S
C33 O55 1.264 . S
C33 O57 1.273 . S
Mg34 O36 1.936 . S
Mg34 O43 2.081 1_545 S
Mg34 O45 2.023 . S
Mg34 O49 2.031 . S
Mg34 O58 2.291 . S
Mg35 O36 1.963 . S
Mg35 O46 1.960 . S
Mg35 O47 1.955 . S
Mg35 O54 1.986 . S
O36 Mg34 1.936 . S
O36 Mg35 1.963 . S
O36 Mg37 1.915 . S
Mg37 O36 1.915 . S
Mg37 O38 1.915 . S
Mg37 O42 2.013 . S
Mg37 O48 2.114 . S
Mg37 O52 2.013 . S
Mg37 O58 2.114 . S
O38 Mg37 1.915 . S
O38 Mg39 1.936 . S
O38 Mg40 1.963 . S
Mg39 O38 1.936 . S
Mg39 O48 2.291 . S
Mg39 O53 2.081 . S
Mg39 O55 2.023 . S
Mg39 O59 2.031 . S
Mg40 O38 1.963 . S
Mg40 O44 1.986 . S
Mg40 O56 1.942 . S
Mg40 O57 1.955 . S
C41 O52 1.191 . S
C41 O54 1.307 . S
O42 Mg37 2.013 . S
O42 C61 1.191 . S
O43 Mg34 2.081 1_565 S
O43 C51 1.331 . S
O44 Mg40 1.986 . S
O44 C61 1.307 . S
O45 Mg34 2.023 . S
O45 C60 1.264 . S
O46 Mg35 1.960 . S
O46 C51 1.238 1_545 S
O47 Mg35 1.955 . S
O47 C60 1.273 . S
O48 Mg37 2.114 . S
O48 Mg39 2.291 . S
O48 C50 1.312 . S
O49 Mg34 2.031 . S
O49 C50 1.208 . S
C50 O48 1.312 . S
C50 O49 1.208 . S
C51 O43 1.331 . S
C51 O46 1.238 1_565 S
O52 Mg37 2.013 . S
O52 C41 1.191 . S
O53 C32 1.331 . S
O53 Mg39 2.081 . S
O54 Mg35 1.986 . S
O54 C41 1.307 . S
O55 C33 1.264 . S
O55 Mg39 2.023 . S
O56 C32 1.244 . S
O56 Mg40 1.942 . S
O57 C33 1.273 . S
O57 Mg40 1.955 . S
O58 C31 1.312 . S
O58 Mg34 2.291 . S
O58 Mg37 2.114 . S
O59 C31 1.208 . S
O59 Mg39 2.031 . S
C60 O45 1.264 . S
C60 O47 1.273 . S
C61 O42 1.191 . S
C61 O44 1.307 . S
C62 O89 1.312 . S
C62 O90 1.208 . S
C63 O84 1.331 . S
C63 O87 1.244 . S
C64 O86 1.264 . S
C64 O88 1.273 . S
Mg65 O67 1.936 . S
Mg65 O74 2.081 . S
Mg65 O76 2.023 . S
Mg65 O80 2.031 . S
Mg65 O89 2.291 . S
Mg66 O67 1.963 . S
Mg66 O77 1.942 . S
Mg66 O78 1.955 . S
Mg66 O85 1.986 . S
O67 Mg65 1.936 . S
O67 Mg66 1.963 . S
O67 Mg68 1.915 . S
Mg68 O67 1.915 . S
Mg68 O69 1.915 . S
Mg68 O73 2.013 . S
Mg68 O79 2.114 . S
Mg68 O83 2.013 . S
Mg68 O89 2.114 . S
O69 Mg68 1.915 . S
O69 Mg70 1.936 . S
O69 Mg71 1.963 . S
Mg70 O69 1.936 . S
Mg70 O79 2.291 . S
Mg70 O84 2.081 . S
Mg70 O86 2.023 . S
Mg70 O90 2.031 . S
Mg71 O69 1.963 . S
Mg71 O75 1.986 . S
Mg71 O87 1.942 . S
Mg71 O88 1.955 . S
C72 O83 1.191 . S
C72 O85 1.307 . S
O73 Mg68 2.013 . S
O73 C92 1.191 . S
O74 Mg65 2.081 . S
O74 C82 1.331 . S
O75 Mg71 1.986 . S
O75 C92 1.307 . S
O76 Mg65 2.023 . S
O76 C91 1.264 . S
O77 Mg66 1.942 . S
O77 C82 1.244 . S
O78 Mg66 1.955 . S
O78 C91 1.273 . S
O79 Mg68 2.114 . S
O79 Mg70 2.291 . S
O79 C81 1.312 . S
O80 Mg65 2.031 . S
O80 C81 1.208 . S
C81 O79 1.312 . S
C81 O80 1.208 . S
C82 O74 1.331 . S
C82 O77 1.244 . S
O83 Mg68 2.013 . S
O83 C72 1.191 . S
O84 C63 1.331 . S
O84 Mg70 2.081 . S
O85 Mg66 1.986 . S
O85 C72 1.307 . S
O86 C64 1.264 . S
O86 Mg70 2.023 . S
O87 C63 1.244 . S
O87 Mg71 1.942 . S
O88 C64 1.273 . S
O88 Mg71 1.955 . S
O89 C62 1.312 . S
O89 Mg65 2.291 . S
O89 Mg68 2.114 . S
O90 C62 1.208 . S
O90 Mg70 2.031 . S
C91 O76 1.264 . S
C91 O78 1.273 . S
C92 O73 1.191 . S
C92 O75 1.307 . S
C93 O120 1.312 . S
C93 O121 1.208 . S
C94 O115 1.331 . S
C94 O118 1.244 . S
C95 O117 1.264 . S
C95 O119 1.273 . S
Mg96 O98 1.936 . S
Mg96 O105 2.081 1_655 S
Mg96 O107 2.023 . S
Mg96 O111 2.031 . S
Mg96 O120 2.291 . S
Mg97 O98 1.963 . S
Mg97 O108 1.958 . S
Mg97 O109 1.955 . S
Mg97 O116 1.986 . S
O98 Mg96 1.936 . S
O98 Mg97 1.963 . S
O98 Mg99 1.915 . S
Mg99 O98 1.915 . S
Mg99 O100 1.915 . S
Mg99 O104 2.013 . S
Mg99 O110 2.114 . S
Mg99 O114 2.013 . S
Mg99 O120 2.114 . S
O100 Mg99 1.915 . S
O100 Mg101 1.936 . S
O100 Mg102 1.963 . S
Mg101 O100 1.936 . S
Mg101 O110 2.291 . S
Mg101 O115 2.081 . S
Mg101 O117 2.023 . S
Mg101 O121 2.031 . S
Mg102 O100 1.963 . S
Mg102 O106 1.986 . S
Mg102 O118 1.942 . S
Mg102 O119 1.955 . S
C103 O114 1.191 . S
C103 O116 1.307 . S
O104 Mg99 2.013 . S
O104 C123 1.191 . S
O105 Mg96 2.081 1_455 S
O105 C113 1.331 . S
O106 Mg102 1.986 . S
O106 C123 1.307 . S
O107 Mg96 2.023 . S
O107 C122 1.264 . S
O108 Mg97 1.958 . S
O108 C113 1.228 1_655 S
O109 Mg97 1.955 . S
O109 C122 1.273 . S
O110 Mg99 2.114 . S
O110 Mg101 2.291 . S
O110 C112 1.312 . S
O111 Mg96 2.031 . S
O111 C112 1.208 . S
C112 O110 1.312 . S
C112 O111 1.208 . S
C113 O105 1.331 . S
C113 O108 1.228 1_455 S
O114 Mg99 2.013 . S
O114 C103 1.191 . S
O115 C94 1.331 . S
O115 Mg101 2.081 . S
O116 Mg97 1.986 . S
O116 C103 1.307 . S
O117 C95 1.264 . S
O117 Mg101 2.023 . S
O118 C94 1.244 . S
O118 Mg102 1.942 . S
O119 C95 1.273 . S
O119 Mg102 1.955 . S
O120 C93 1.312 . S
O120 Mg96 2.291 . S
O120 Mg99 2.114 . S
O121 C93 1.208 . S
O121 Mg101 2.031 . S
C122 O107 1.264 . S
C122 O109 1.273 . S
C123 O104 1.191 . S
C123 O106 1.307 . S
C124 O151 1.312 . S
C124 O152 1.208 . S
C125 O146 1.331 . S
C125 O149 1.238 1_545 S
C126 O148 1.264 . S
C126 O150 1.273 . S
Mg127 O129 1.936 . S
Mg127 O136 2.081 . S
Mg127 O138 2.023 . S
Mg127 O142 2.031 . S
Mg127 O151 2.291 . S
Mg128 O129 1.963 . S
Mg128 O139 1.942 . S
Mg128 O140 1.955 . S
Mg128 O147 1.986 . S
O129 Mg127 1.936 . S
O129 Mg128 1.963 . S
O129 Mg130 1.915 . S
Mg130 O129 1.915 . S
Mg130 O131 1.915 . S
Mg130 O135 2.013 . S
Mg130 O141 2.114 . S
Mg130 O145 2.013 . S
Mg130 O151 2.114 . S
O131 Mg130 1.915 . S
O131 Mg132 1.936 . S
O131 Mg133 1.963 . S
Mg132 O131 1.936 . S
Mg132 O141 2.291 . S
Mg132 O146 2.081 1_565 S
Mg132 O148 2.023 . S
Mg132 O152 2.031 . S
Mg133 O131 1.963 . S
Mg133 O137 1.986 . S
Mg133 O149 1.960 . S
Mg133 O150 1.955 . S
C134 O145 1.191 . S
C134 O147 1.307 . S
O135 Mg130 2.013 . S
O135 C154 1.191 . S
O136 Mg127 2.081 . S
O136 C144 1.331 . S
O137 Mg133 1.986 . S
O137 C154 1.307 . S
O138 Mg127 2.023 . S
O138 C153 1.264 . S
O139 Mg128 1.942 . S
O139 C144 1.244 . S
O140 Mg128 1.955 . S
O140 C153 1.273 . S
O141 Mg130 2.114 . S
O141 Mg132 2.291 . S
O141 C143 1.312 . S
O142 Mg127 2.031 . S
O142 C143 1.208 . S
C143 O141 1.312 . S
C143 O142 1.208 . S
C144 O136 1.331 . S
C144 O139 1.244 . S
O145 Mg130 2.013 . S
O145 C134 1.191 . S
O146 C125 1.331 . S
O146 Mg132 2.081 1_545 S
O147 Mg128 1.986 . S
O147 C134 1.307 . S
O148 C126 1.264 . S
O148 Mg132 2.023 . S
O149 C125 1.238 1_565 S
O149 Mg133 1.960 . S
O150 C126 1.273 . S
O150 Mg133 1.955 . S
O151 C124 1.312 . S
O151 Mg127 2.291 . S
O151 Mg130 2.114 . S
O152 C124 1.208 . S
O152 Mg132 2.031 . S
C153 O138 1.264 . S
C153 O140 1.273 . S
C154 O135 1.191 . S
C154 O137 1.307 . S
C155 O182 1.312 . S
C155 O183 1.208 . S
C156 O177 1.331 . S
C156 O180 1.244 . S
C157 O179 1.264 . S
C157 O181 1.273 . S
Mg158 O160 1.936 . S
Mg158 O167 2.081 . S
Mg158 O169 2.023 . S
Mg158 O173 2.031 . S
Mg158 O182 2.291 . S
Mg159 O160 1.963 . S
Mg159 O170 1.942 . S
Mg159 O171 1.955 . S
Mg159 O178 1.986 . S
O160 Mg158 1.936 . S
O160 Mg159 1.963 . S
O160 Mg161 1.915 . S
Mg161 O160 1.915 . S
Mg161 O162 1.915 . S
Mg161 O166 2.013 . S
Mg161 O172 2.114 . S
Mg161 O176 2.013 . S
Mg161 O182 2.114 . S
O162 Mg161 1.915 . S
O162 Mg163 1.936 . S
O162 Mg164 1.963 . S
Mg163 O162 1.936 . S
Mg163 O172 2.291 . S
Mg163 O177 2.081 . S
Mg163 O179 2.023 . S
Mg163 O183 2.031 . S
Mg164 O162 1.963 . S
Mg164 O168 1.986 . S
Mg164 O180 1.942 . S
Mg164 O181 1.955 . S
C165 O176 1.191 . S
C165 O178 1.307 . S
O166 Mg161 2.013 . S
O166 C185 1.191 . S
O167 Mg158 2.081 . S
O167 C175 1.331 . S
O168 Mg164 1.986 . S
O168 C185 1.307 . S
O169 Mg158 2.023 . S
O169 C184 1.264 . S
O170 Mg159 1.942 . S
O170 C175 1.244 . S
O171 Mg159 1.955 . S
O171 C184 1.273 . S
O172 Mg161 2.114 . S
O172 Mg163 2.291 . S
O172 C174 1.312 . S
O173 Mg158 2.031 . S
O173 C174 1.208 . S
C174 O172 1.312 . S
C174 O173 1.208 . S
C175 O167 1.331 . S
C175 O170 1.244 . S
O176 Mg161 2.013 . S
O176 C165 1.191 . S
O177 C156 1.331 . S
O177 Mg163 2.081 . S
O178 Mg159 1.986 . S
O178 C165 1.307 . S
O179 C157 1.264 . S
O179 Mg163 2.023 . S
O180 C156 1.244 . S
O180 Mg164 1.942 . S
O181 C157 1.273 . S
O181 Mg164 1.955 . S
O182 C155 1.312 . S
O182 Mg158 2.291 . S
O182 Mg161 2.114 . S
O183 C155 1.208 . S
O183 Mg163 2.031 . S
C184 O169 1.264 . S
C184 O171 1.273 . S
C185 O166 1.191 . S
C185 O168 1.307 . S
H186 C192 0.930 . S
H187 C195 0.930 . S
H188 C196 0.930 . S
H189 C197 0.930 . S
H190 C200 0.930 . S
H191 C201 0.930 . S
C192 H186 0.930 . S
C192 C193 1.355 . S
C192 C194 1.415 . S
C193 C192 1.355 . S
C193 C195 1.419 . S
C194 C192 1.415 . S
C194 C199 1.425 . S
C194 C201 1.409 . S
C195 H187 0.930 . S
C195 C193 1.419 . S
C195 C196 1.362 . S
C196 H188 0.930 . S
C196 C195 1.362 . S
C196 C199 1.409 . S
C197 H189 0.930 . S
C197 C198 1.355 . S
C197 C199 1.415 . S
C198 C197 1.355 . S
C198 C200 1.419 . S
C199 C194 1.425 . S
C199 C196 1.409 . S
C199 C197 1.415 . S
C200 H190 0.930 . S
C200 C198 1.419 . S
C200 C201 1.362 . S
C201 H191 0.930 . S
C201 C194 1.409 . S
C201 C200 1.362 . S
H202 C208 0.930 . S
H203 C211 0.930 . S
H204 C212 0.930 . S
H205 C213 0.930 . S
H206 C216 0.930 . S
H207 C217 0.930 . S
C208 H202 0.930 . S
C208 C209 1.355 . S
C208 C210 1.415 . S
C209 C208 1.355 . S
C209 C211 1.419 . S
C210 C208 1.415 . S
C210 C215 1.425 . S
C210 C217 1.409 . S
C211 H203 0.930 . S
C211 C209 1.419 . S
C211 C212 1.362 . S
C212 H204 0.930 . S
C212 C211 1.362 . S
C212 C215 1.409 . S
C213 H205 0.930 . S
C213 C214 1.355 . S
C213 C215 1.415 . S
C214 C213 1.355 . S
C214 C216 1.419 . S
C215 C210 1.425 . S
C215 C212 1.409 . S
C215 C213 1.415 . S
C216 H206 0.930 . S
C216 C214 1.419 . S
C216 C217 1.362 . S
C217 H207 0.930 . S
C217 C210 1.409 . S
C217 C216 1.362 . S
H218 C224 0.930 . S
H219 C227 0.930 . S
H220 C228 0.930 . S
H221 C229 0.930 . S
H222 C232 0.930 . S
H223 C233 0.930 . S
C224 H218 0.930 . S
C224 C225 1.355 . S
C224 C226 1.415 . S
C225 C224 1.355 . S
C225 C227 1.419 . S
C226 C224 1.415 . S
C226 C231 1.425 . S
C226 C233 1.409 . S
C227 H219 0.930 . S
C227 C225 1.419 . S
C227 C228 1.362 . S
C228 H220 0.930 . S
C228 C227 1.362 . S
C228 C231 1.409 . S
C229 H221 0.930 . S
C229 C230 1.355 . S
C229 C231 1.415 . S
C230 C229 1.355 . S
C230 C232 1.419 . S
C231 C226 1.425 . S
C231 C228 1.409 . S
C231 C229 1.415 . S
C232 H222 0.930 . S
C232 C230 1.419 . S
C232 C233 1.362 . S
C233 H223 0.930 . S
C233 C226 1.409 . S
C233 C232 1.362 . S
H234 C240 0.930 . S
H235 C243 0.930 . S
H236 C244 0.930 . S
H237 C245 0.930 . S
H238 C248 0.930 . S
H239 C249 0.930 . S
C240 H234 0.930 . S
C240 C241 1.355 . S
C240 C242 1.415 . S
C241 C240 1.355 . S
C241 C243 1.419 . S
C242 C240 1.415 . S
C242 C247 1.425 . S
C242 C249 1.409 . S
C243 H235 0.930 . S
C243 C241 1.419 . S
C243 C244 1.362 . S
C244 H236 0.930 . S
C244 C243 1.362 . S
C244 C247 1.409 . S
C245 H237 0.930 . S
C245 C246 1.355 . S
C245 C247 1.415 . S
C246 C245 1.355 . S
C246 C248 1.419 . S
C247 C242 1.425 . S
C247 C244 1.409 . S
C247 C245 1.415 . S
C248 H238 0.930 . S
C248 C246 1.419 . S
C248 C249 1.362 . S
C249 H239 0.930 . S
C249 C242 1.409 . S
C249 C248 1.362 . S
H250 C256 0.930 . S
H251 C259 0.930 . S
H252 C260 0.930 . S
H253 C261 0.930 . S
H254 C264 0.930 . S
H255 C265 0.930 . S
C256 H250 0.930 . S
C256 C257 1.355 . S
C256 C258 1.415 . S
C257 C256 1.355 . S
C257 C259 1.419 . S
C258 C256 1.415 . S
C258 C263 1.425 . S
C258 C265 1.409 . S
C259 H251 0.930 . S
C259 C257 1.419 . S
C259 C260 1.362 . S
C260 H252 0.930 . S
C260 C259 1.362 . S
C260 C263 1.409 . S
C261 H253 0.930 . S
C261 C262 1.355 . S
C261 C263 1.415 . S
C262 C261 1.355 . S
C262 C264 1.419 . S
C263 C258 1.425 . S
C263 C260 1.409 . S
C263 C261 1.415 . S
C264 H254 0.930 . S
C264 C262 1.419 . S
C264 C265 1.362 . S
C265 H255 0.930 . S
C265 C258 1.409 . S
C265 C264 1.362 . S
H266 C272 0.930 . S
H267 C275 0.930 . S
H268 C276 0.930 . S
H269 C277 0.930 . S
H270 C280 0.930 . S
H271 C281 0.930 . S
C272 H266 0.930 . S
C272 C273 1.355 . S
C272 C274 1.415 . S
C273 C272 1.355 . S
C273 C275 1.419 . S
C274 C272 1.415 . S
C274 C279 1.425 . S
C274 C281 1.409 . S
C275 H267 0.930 . S
C275 C273 1.419 . S
C275 C276 1.362 . S
C276 H268 0.930 . S
C276 C275 1.362 . S
C276 C279 1.409 . S
C277 H269 0.930 . S
C277 C278 1.355 . S
C277 C279 1.415 . S
C278 C277 1.355 . S
C278 C280 1.419 . S
C279 C274 1.425 . S
C279 C276 1.409 . S
C279 C277 1.415 . S
C280 H270 0.930 . S
C280 C278 1.419 . S
C280 C281 1.362 . S
C281 H271 0.930 . S
C281 C274 1.409 . S
C281 C280 1.362 . S
H282 C288 0.930 . S
H283 C291 0.930 . S
H284 C292 0.930 . S
H285 C293 0.930 . S
H286 C296 0.930 . S
H287 C297 0.930 . S
C288 H282 0.930 . S
C288 C289 1.355 . S
C288 C290 1.415 . S
C289 C288 1.355 . S
C289 C291 1.419 . S
C290 C288 1.415 . S
C290 C295 1.425 . S
C290 C297 1.409 . S
C291 H283 0.930 . S
C291 C289 1.419 . S
C291 C292 1.362 . S
C292 H284 0.930 . S
C292 C291 1.362 . S
C292 C295 1.409 . S
C293 H285 0.930 . S
C293 C294 1.355 . S
C293 C295 1.415 . S
C294 C293 1.355 . S
C294 C296 1.419 . S
C295 C290 1.425 . S
C295 C292 1.409 . S
C295 C293 1.415 . S
C296 H286 0.930 . S
C296 C294 1.419 . S
C296 C297 1.362 . S
C297 H287 0.930 . S
C297 C290 1.409 . S
C297 C296 1.362 . S
H298 C304 0.930 . S
H299 C307 0.930 . S
H300 C308 0.930 . S
H301 C309 0.930 . S
H302 C312 0.930 . S
H303 C313 0.930 . S
C304 H298 0.930 . S
C304 C305 1.355 . S
C304 C306 1.415 1_655 S
C305 C304 1.355 . S
C305 C307 1.419 . S
C306 C304 1.415 1_455 S
C306 C311 1.425 . S
C306 C313 1.409 . S
C307 H299 0.930 . S
C307 C305 1.419 . S
C307 C308 1.362 1_655 S
C308 H300 0.930 . S
C308 C307 1.362 1_455 S
C308 C311 1.409 . S
C309 H301 0.930 . S
C309 C310 1.355 . S
C309 C311 1.415 . S
C310 C309 1.355 . S
C310 C312 1.419 . S
C311 C306 1.425 . S
C311 C308 1.409 . S
C311 C309 1.415 . S
C312 H302 0.930 . S
C312 C310 1.419 . S
C312 C313 1.362 . S
C313 H303 0.930 . S
C313 C306 1.409 . S
C313 C312 1.362 . S
H314 C320 0.930 . S
H315 C323 0.930 . S
H316 C324 0.930 . S
H317 C325 0.930 1_565 S
H318 C328 0.930 . S
H319 C329 0.930 . S
C320 H314 0.930 . S
C320 C321 1.355 . S
C320 C322 1.415 . S
C321 C320 1.355 . S
C321 C323 1.419 . S
C322 C320 1.415 . S
C322 C327 1.425 . S
C322 C329 1.409 . S
C323 H315 0.930 . S
C323 C321 1.419 . S
C323 C324 1.362 . S
C324 H316 0.930 . S
C324 C323 1.362 . S
C324 C327 1.409 . S
C325 H317 0.930 1_545 S
C325 C326 1.355 1_545 S
C325 C327 1.415 . S
C326 C325 1.355 1_565 S
C326 C328 1.419 . S
C327 C322 1.425 . S
C327 C324 1.409 . S
C327 C325 1.415 . S
C328 H318 0.930 . S
C328 C326 1.419 . S
C328 C329 1.362 1_565 S
C329 H319 0.930 . S
C329 C322 1.409 . S
C329 C328 1.362 1_545 S
H330 C336 0.930 . S
H331 C339 0.930 . S
H332 C340 0.930 . S
H333 C341 0.930 . S
H334 C344 0.930 . S
H335 C345 0.930 . S
C336 H330 0.930 . S
C336 C337 1.355 . S
C336 C338 1.415 . S
C337 C336 1.355 . S
C337 C339 1.419 . S
C338 C336 1.415 . S
C338 C343 1.425 . S
C338 C345 1.409 . S
C339 H331 0.930 . S
C339 C337 1.419 . S
C339 C340 1.362 . S
C340 H332 0.930 . S
C340 C339 1.362 . S
C340 C343 1.409 . S
C341 H333 0.930 . S
C341 C342 1.355 . S
C341 C343 1.415 . S
C342 C341 1.355 . S
C342 C344 1.419 . S
C343 C338 1.425 . S
C343 C340 1.409 . S
C343 C341 1.415 . S
C344 H334 0.930 . S
C344 C342 1.419 . S
C344 C345 1.362 . S
C345 H335 0.930 . S
C345 C338 1.409 . S
C345 C344 1.362 . S
H346 C352 0.930 . S
H347 C355 0.930 . S
H348 C356 0.930 . S
H349 C357 0.930 . S
H350 C360 0.930 . S
H351 C361 0.930 . S
C352 H346 0.930 . S
C352 C353 1.355 . S
C352 C354 1.415 . S
C353 C352 1.355 . S
C353 C355 1.419 . S
C354 C352 1.415 . S
C354 C359 1.425 . S
C354 C361 1.409 . S
C355 H347 0.930 . S
C355 C353 1.419 . S
C355 C356 1.362 . S
C356 H348 0.930 . S
C356 C355 1.362 . S
C356 C359 1.409 . S
C357 H349 0.930 . S
C357 C358 1.355 . S
C357 C359 1.415 1_455 S
C358 C357 1.355 . S
C358 C360 1.419 . S
C359 C354 1.425 . S
C359 C356 1.409 . S
C359 C357 1.415 1_655 S
C360 H350 0.930 . S
C360 C358 1.419 . S
C360 C361 1.362 1_455 S
C361 H351 0.930 . S
C361 C354 1.409 . S
C361 C360 1.362 1_655 S
H362 C368 0.935 1_545 S
H363 C371 0.930 . S
H364 C372 0.930 . S
H365 C373 0.930 . S
H366 C376 0.930 . S
H367 C377 0.930 . S
C368 H362 0.935 1_565 S
C368 C369 1.355 1_565 S
C368 C370 1.415 . S
C369 C368 1.355 1_545 S
C369 C371 1.419 . S
C370 C368 1.415 . S
C370 C375 1.425 . S
C370 C377 1.409 . S
C371 H363 0.930 . S
C371 C369 1.419 . S
C371 C372 1.362 1_545 S
C372 H364 0.930 . S
C372 C371 1.362 1_565 S
C372 C375 1.409 . S
C373 H365 0.930 . S
C373 C374 1.355 . S
C373 C375 1.415 . S
C374 C373 1.355 . S
C374 C376 1.419 . S
C375 C370 1.425 . S
C375 C372 1.409 . S
C375 C373 1.415 . S
C376 H366 0.930 . S
C376 C374 1.419 . S
C376 C377 1.362 . S
C377 H367 0.930 . S
C377 C370 1.409 . S
C377 C376 1.362 . S
H378 C384 0.930 . S
H379 C387 0.930 . S
H380 C388 0.930 . S
H381 C389 0.930 . S
H382 C392 0.930 . S
H383 C393 0.930 . S
C384 H378 0.930 . S
C384 C385 1.355 . S
C384 C386 1.415 1_554 S
C385 C384 1.355 . S
C385 C387 1.419 . S
C386 C384 1.415 1_556 S
C386 C391 1.425 1_556 S
C386 C393 1.409 . S
C387 H379 0.930 . S
C387 C385 1.419 . S
C387 C388 1.362 . S
C388 H380 0.930 . S
C388 C387 1.362 . S
C388 C391 1.409 . S
C389 H381 0.930 . S
C389 C390 1.355 . S
C389 C391 1.415 1_556 S
C390 C389 1.355 . S
C390 C392 1.419 . S
C391 C386 1.425 1_554 S
C391 C388 1.409 . S
C391 C389 1.415 1_554 S
C392 H382 0.930 . S
C392 C390 1.419 . S
C392 C393 1.362 . S
C393 H383 0.930 . S
C393 C386 1.409 . S
C393 C392 1.362 . S
H394 C400 0.930 . S
H395 C403 0.930 . S
H396 C404 0.930 . S
H397 C405 0.930 . S
H398 C408 0.930 . S
H399 C409 0.930 . S
C400 H394 0.930 . S
C400 C401 1.355 . S
C400 C402 1.415 . S
C401 C400 1.355 . S
C401 C403 1.419 . S
C402 C400 1.415 . S
C402 C407 1.425 . S
C402 C409 1.409 1_655 S
C403 H395 0.930 . S
C403 C401 1.419 . S
C403 C404 1.362 . S
C404 H396 0.930 . S
C404 C403 1.362 . S
C404 C407 1.409 . S
C405 H397 0.930 . S
C405 C406 1.355 . S
C405 C407 1.415 1_455 S
C406 C405 1.355 . S
C406 C408 1.419 . S
C407 C402 1.425 . S
C407 C404 1.409 . S
C407 C405 1.415 1_655 S
C408 H398 0.930 . S
C408 C406 1.419 . S
C408 C409 1.362 . S
C409 H399 0.930 . S
C409 C402 1.409 1_455 S
C409 C408 1.362 . S
H410 C416 0.930 . S
H411 C419 0.930 . S
H412 C420 0.930 . S
H413 C421 0.930 . S
H414 C424 0.930 . S
H415 C425 0.930 . S
C416 H410 0.930 . S
C416 C417 1.355 . S
C416 C418 1.415 . S
C417 C416 1.355 . S
C417 C419 1.419 . S
C418 C416 1.415 . S
C418 C423 1.425 1_554 S
C418 C425 1.409 1_565 S
C419 H411 0.930 . S
C419 C417 1.419 . S
C419 C420 1.362 1_554 S
C420 H412 0.930 . S
C420 C419 1.362 1_556 S
C420 C423 1.409 . S
C421 H413 0.930 . S
C421 C422 1.355 1_565 S
C421 C423 1.415 . S
C422 C421 1.355 1_545 S
C422 C424 1.419 . S
C423 C418 1.425 1_556 S
C423 C420 1.409 . S
C423 C421 1.415 . S
C424 H414 0.930 . S
C424 C422 1.419 . S
C424 C425 1.362 1_556 S
C425 H415 0.930 . S
C425 C418 1.409 1_545 S
C425 C424 1.362 1_554 S
H426 C432 0.930 . S
H427 C435 0.930 . S
H428 C436 0.930 . S
H429 C437 0.930 . S
H430 C440 0.930 . S
H431 C441 0.930 . S
C432 H426 0.930 . S
C432 C433 1.355 . S
C432 C434 1.415 . S
C433 C432 1.355 . S
C433 C435 1.419 . S
C434 C432 1.415 . S
C434 C439 1.425 . S
C434 C441 1.409 . S
C435 H427 0.930 . S
C435 C433 1.419 . S
C435 C436 1.362 . S
C436 H428 0.930 . S
C436 C435 1.362 . S
C436 C439 1.409 . S
C437 H429 0.930 . S
C437 C438 1.355 . S
C437 C439 1.415 . S
C438 C437 1.355 . S
C438 C440 1.419 . S
C439 C434 1.425 . S
C439 C436 1.409 . S
C439 C437 1.415 . S
C440 H430 0.930 . S
C440 C438 1.419 . S
C440 C441 1.362 . S
C441 H431 0.930 . S
C441 C434 1.409 . S
C441 C440 1.362 . S
H442 C448 0.930 . S
H443 C451 0.930 . S
H444 C452 0.930 . S
H445 C453 0.930 . S
H446 C456 0.930 . S
H447 C457 0.930 . S
C448 H442 0.930 . S
C448 C449 1.355 . S
C448 C450 1.415 1_656 S
C449 C448 1.355 . S
C449 C451 1.419 . S
C450 C448 1.415 1_454 S
C450 C455 1.425 . S
C450 C457 1.409 . S
C451 H443 0.930 . S
C451 C449 1.419 . S
C451 C452 1.362 1_655 S
C452 H444 0.930 . S
C452 C451 1.362 1_455 S
C452 C455 1.409 1_556 S
C453 H445 0.930 . S
C453 C454 1.355 . S
C453 C455 1.415 . S
C454 C453 1.355 . S
C454 C456 1.419 . S
C455 C450 1.425 . S
C455 C452 1.409 1_554 S
C455 C453 1.415 . S
C456 H446 0.930 . S
C456 C454 1.419 . S
C456 C457 1.362 . S
C457 H447 0.930 . S
C457 C450 1.409 . S
C457 C456 1.362 . S
H458 C464 0.930 . S
H459 C467 0.930 . S
H460 C468 0.930 . S
H461 C469 0.930 . S
H462 C472 0.930 . S
H463 C473 0.936 . S
C464 H458 0.930 . S
C464 C465 1.355 . S
C464 C466 1.415 . S
C465 C464 1.355 . S
C465 C467 1.419 . S
C466 C464 1.415 . S
C466 C471 1.425 . S
C466 C473 1.409 1_545 S
C467 H459 0.930 . S
C467 C465 1.419 . S
C467 C468 1.362 . S
C468 H460 0.930 . S
C468 C467 1.362 . S
C468 C471 1.409 . S
C469 H461 0.930 . S
C469 C470 1.355 . S
C469 C471 1.415 1_565 S
C470 C469 1.355 . S
C470 C472 1.419 . S
C471 C466 1.425 . S
C471 C468 1.409 . S
C471 C469 1.415 1_545 S
C472 H462 0.930 . S
C472 C470 1.419 . S
C472 C473 1.362 . S
C473 H463 0.936 . S
C473 C466 1.409 1_565 S
C473 C472 1.362 . S
H474 C480 0.930 . S
H475 C483 0.930 . S
H476 C484 0.930 . S
H477 C485 0.930 . S
H478 C488 0.930 . S
H479 C489 0.930 . S
C480 H474 0.930 . S
C480 C481 1.355 . S
C480 C482 1.415 . S
C481 C480 1.355 . S
C481 C483 1.419 . S
C482 C480 1.415 . S
C482 C487 1.425 1_556 S
C482 C489 1.409 . S
C483 H475 0.930 . S
C483 C481 1.419 . S
C483 C484 1.362 1_556 S
C484 H476 0.930 . S
C484 C483 1.362 1_554 S
C484 C487 1.409 . S
C485 H477 0.930 . S
C485 C486 1.355 . S
C485 C487 1.415 . S
C486 C485 1.355 . S
C486 C488 1.419 . S
C487 C482 1.425 1_554 S
C487 C484 1.409 . S
C487 C485 1.415 . S
C488 H478 0.930 . S
C488 C486 1.419 . S
C488 C489 1.362 1_554 S
C489 H479 0.930 . S
C489 C482 1.409 . S
C489 C488 1.362 1_556 S
H490 C496 0.930 . S
H491 C499 0.930 . S
H492 C500 0.930 . S
H493 C501 0.930 . S
H494 C504 0.930 . S
H495 C505 0.930 . S
C496 H490 0.930 . S
C496 C497 1.355 . S
C496 C498 1.415 . S
C497 C496 1.355 . S
C497 C499 1.419 . S
C498 C496 1.415 . S
C498 C503 1.429 . S
C498 C505 1.409 . S
C499 H491 0.930 . S
C499 C497 1.419 . S
C499 C500 1.362 1_455 S
C500 H492 0.930 . S
C500 C499 1.362 1_655 S
C500 C503 1.412 1_655 S
C501 H493 0.930 . S
C501 C502 1.355 . S
C501 C503 1.408 1_655 S
C502 C501 1.355 . S
C502 C504 1.419 1_655 S
C503 C498 1.429 . S
C503 C500 1.412 1_455 S
C503 C501 1.408 1_455 S
C504 H494 0.930 . S
C504 C502 1.419 1_455 S
C504 C505 1.362 . S
C505 H495 0.930 . S
C505 C498 1.409 . S
C505 C504 1.362 . S
H506 C512 0.930 . S
H507 C515 0.930 . S
H508 C516 0.930 1_565 S
H509 C517 0.930 . S
H510 C520 0.932 . S
H511 C521 0.930 . S
C512 H506 0.930 . S
C512 C513 1.355 . S
C512 C514 1.415 1_556 S
C513 C512 1.355 . S
C513 C515 1.419 . S
C514 C512 1.415 1_554 S
C514 C519 1.425 1_554 S
C514 C521 1.409 . S
C515 H507 0.930 . S
C515 C513 1.419 . S
C515 C516 1.362 . S
C516 H508 0.930 1_545 S
C516 C515 1.362 . S
C516 C519 1.409 . S
C517 H509 0.930 . S
C517 C518 1.355 . S
C517 C519 1.415 1_564 S
C518 C517 1.355 . S
C518 C520 1.419 1_565 S
C519 C514 1.425 1_556 S
C519 C516 1.409 . S
C519 C517 1.415 1_546 S
C520 H510 0.932 . S
C520 C518 1.419 1_545 S
C520 C521 1.362 . S
C521 H511 0.930 . S
C521 C514 1.409 . S
C521 C520 1.362 . S
H522 C528 0.930 . S
H523 C531 0.930 . S
H524 C532 0.930 . S
H525 C533 0.930 . S
H526 C536 0.930 . S
H527 C537 0.930 . S
C528 H522 0.930 . S
C528 C529 1.355 . S
C528 C530 1.415 . S
C529 C528 1.355 . S
C529 C531 1.419 . S
C530 C528 1.415 . S
C530 C535 1.425 . S
C530 C537 1.409 . S
C531 H523 0.930 . S
C531 C529 1.419 . S
C531 C532 1.362 . S
C532 H524 0.930 . S
C532 C531 1.362 . S
C532 C535 1.409 . S
C533 H525 0.930 . S
C533 C534 1.355 . S
C533 C535 1.415 . S
C534 C533 1.355 . S
C534 C536 1.419 . S
C535 C530 1.425 . S
C535 C532 1.409 . S
C535 C533 1.415 . S
C536 H526 0.930 . S
C536 C534 1.419 . S
C536 C537 1.362 . S
C537 H527 0.930 . S
C537 C530 1.409 . S
C537 C536 1.362 . S
H538 C544 0.930 . S
H539 C547 0.930 . S
H540 C548 0.930 . S
H541 C549 0.930 . S
H542 C552 0.930 . S
H543 C553 0.930 . S
C544 H538 0.930 . S
C544 C545 1.355 1_655 S
C544 C546 1.415 . S
C545 C544 1.355 1_455 S
C545 C547 1.419 . S
C546 C544 1.415 . S
C546 C551 1.425 1_554 S
C546 C553 1.409 . S
C547 H539 0.930 . S
C547 C545 1.419 . S
C547 C548 1.362 1_554 S
C548 H540 0.930 . S
C548 C547 1.362 1_556 S
C548 C551 1.409 1_455 S
C549 H541 0.930 . S
C549 C550 1.355 . S
C549 C551 1.415 . S
C550 C549 1.355 . S
C550 C552 1.419 . S
C551 C546 1.425 1_556 S
C551 C548 1.409 1_655 S
C551 C549 1.415 . S
C552 H542 0.930 . S
C552 C550 1.419 . S
C552 C553 1.362 1_556 S
C553 H543 0.930 . S
C553 C546 1.409 . S
C553 C552 1.362 1_554 S
H554 C560 0.930 1_565 S
H555 C563 0.930 . S
H556 C564 0.930 . S
H557 C565 0.930 . S
H558 C568 0.930 . S
H559 C569 0.930 . S
C560 H554 0.930 1_545 S
C560 C561 1.355 . S
C560 C562 1.415 1_545 S
C561 C560 1.355 . S
C561 C563 1.419 . S
C562 C560 1.415 1_565 S
C562 C567 1.425 . S
C562 C569 1.409 . S
C563 H555 0.930 . S
C563 C561 1.419 . S
C563 C564 1.362 . S
C564 H556 0.930 . S
C564 C563 1.362 . S
C564 C567 1.409 1_545 S
C565 H557 0.930 . S
C565 C566 1.355 . S
C565 C567 1.415 . S
C566 C565 1.355 . S
C566 C568 1.419 . S
C567 C562 1.425 . S
C567 C564 1.409 1_565 S
C567 C565 1.415 . S
C568 H558 0.930 . S
C568 C566 1.419 . S
C568 C569 1.362 . S
C569 H559 0.930 . S
C569 C562 1.409 . S
C569 C568 1.362 . S
C193 C19 1.235 . S
C198 C144 1.296 . S
C209 C156 1.345 . S
C214 C31 1.236 . S
C225 C20 1.345 . S
C230 C81 1.232 . S
C241 C32 1.298 . S
C246 C93 1.249 . S
C257 C143 1.168 . S
C262 C82 1.336 . S
C273 C155 1.193 . S
C278 C94 1.297 . S
C289 C30 1.134 . S
C294 C125 1.160 . S
C305 C41 1.115 . S
C310 C175 1.118 . S
C321 C1 1.178 . S
C326 C92 1.083 . S
C337 C51 1.113 . S
C342 C103 1.159 . S
C353 C63 1.159 . S
C358 C154 1.135 . S
C369 C165 1.105 . S
C374 C113 1.173 . S
C385 C29 1.031 . S
C390 C184 1.000 . S
C401 C33 1.028 . S
C406 C2 0.960 . S
C417 C91 1.030 . S
C422 C60 0.993 . S
C433 C95 1.034 . S
C438 C64 1.052 . S
C449 C122 1.011 . S
C454 C153 1.032 . S
C465 C157 1.028 . S
C470 C126 0.958 . S
C481 C123 2.279 . S
C486 C62 2.311 . S
C497 C134 2.251 . S
C502 C112 2.291 . S
C513 C185 2.224 . S
C518 C124 2.266 . S
C529 C174 2.307 . S
C534 C10 2.275 . S
C545 C0 2.316 . S
C550 C61 2.283 . S
C561 C50 2.301 . S
C566 C72 2.269 . S
