# Generated by pormake.
# Topology sog, (5)-cn, num edge types: 1
# Building blocks:
#     Node 0, Type 0, BuildingBlock: XOMCOT_clean_sbu_0, # of connection points: 5
#     Node 1, Type 0, BuildingBlock: XOMCOT_clean_sbu_0, # of connection points: 5
#     Node 2, Type 0, BuildingBlock: XOMCOT_clean_sbu_0, # of connection points: 5
#     Node 3, Type 0, BuildingBlock: XOMCOT_clean_sbu_0, # of connection points: 5
#     Node 4, Type 0, BuildingBlock: XOMCOT_clean_sbu_0, # of connection points: 5
#     Node 5, Type 0, BuildingBlock: XOMCOT_clean_sbu_0, # of connection points: 5
#     Node 6, Type 0, BuildingBlock: XOMCOT_clean_sbu_0, # of connection points: 5
#     Node 7, Type 0, BuildingBlock: XOMCOT_clean_sbu_0, # of connection points: 5
#     Node 8, Type 0, BuildingBlock: XOMCOT_clean_sbu_0, # of connection points: 5
#     Node 9, Type 0, BuildingBlock: XOMCOT_clean_sbu_0, # of connection points: 5
#     Node 10, Type 0, BuildingBlock: XOMCOT_clean_sbu_0, # of connection points: 5
#     Node 11, Type 0, BuildingBlock: XOMCOT_clean_sbu_0, # of connection points: 5
#     Node 12, Type 0, BuildingBlock: XOMCOT_clean_sbu_0, # of connection points: 5
#     Node 13, Type 0, BuildingBlock: XOMCOT_clean_sbu_0, # of connection points: 5
#     Node 14, Type 0, BuildingBlock: XOMCOT_clean_sbu_0, # of connection points: 5
#     Node 15, Type 0, BuildingBlock: XOMCOT_clean_sbu_0, # of connection points: 5
#     Node 16, Type 0, BuildingBlock: XOMCOT_clean_sbu_0, # of connection points: 5
#     Node 17, Type 0, BuildingBlock: XOMCOT_clean_sbu_0, # of connection points: 5
#     Node 18, Type 0, BuildingBlock: XOMCOT_clean_sbu_0, # of connection points: 5
#     Node 19, Type 0, BuildingBlock: XOMCOT_clean_sbu_0, # of connection points: 5
#     Node 20, Type 0, BuildingBlock: XOMCOT_clean_sbu_0, # of connection points: 5
#     Node 21, Type 0, BuildingBlock: XOMCOT_clean_sbu_0, # of connection points: 5
#     Node 22, Type 0, BuildingBlock: XOMCOT_clean_sbu_0, # of connection points: 5
#     Node 23, Type 0, BuildingBlock: XOMCOT_clean_sbu_0, # of connection points: 5
#     Node 24, Type 0, BuildingBlock: XOMCOT_clean_sbu_0, # of connection points: 5
#     Node 25, Type 0, BuildingBlock: XOMCOT_clean_sbu_0, # of connection points: 5
#     Node 26, Type 0, BuildingBlock: XOMCOT_clean_sbu_0, # of connection points: 5
#     Node 27, Type 0, BuildingBlock: XOMCOT_clean_sbu_0, # of connection points: 5
#     Node 28, Type 0, BuildingBlock: XOMCOT_clean_sbu_0, # of connection points: 5
#     Node 29, Type 0, BuildingBlock: XOMCOT_clean_sbu_0, # of connection points: 5
#     Node 30, Type 0, BuildingBlock: XOMCOT_clean_sbu_0, # of connection points: 5
#     Node 31, Type 0, BuildingBlock: XOMCOT_clean_sbu_0, # of connection points: 5
#     Edge 32, Type (0, 0), None
#     Edge 33, Type (0, 0), None
#     Edge 34, Type (0, 0), None
#     Edge 35, Type (0, 0), None
#     Edge 36, Type (0, 0), None
#     Edge 37, Type (0, 0), None
#     Edge 38, Type (0, 0), None
#     Edge 39, Type (0, 0), None
#     Edge 40, Type (0, 0), None
#     Edge 41, Type (0, 0), None
#     Edge 42, Type (0, 0), None
#     Edge 43, Type (0, 0), None
#     Edge 44, Type (0, 0), None
#     Edge 45, Type (0, 0), None
#     Edge 46, Type (0, 0), None
#     Edge 47, Type (0, 0), None
#     Edge 48, Type (0, 0), None
#     Edge 49, Type (0, 0), None
#     Edge 50, Type (0, 0), None
#     Edge 51, Type (0, 0), None
#     Edge 52, Type (0, 0), None
#     Edge 53, Type (0, 0), None
#     Edge 54, Type (0, 0), None
#     Edge 55, Type (0, 0), None
#     Edge 56, Type (0, 0), None
#     Edge 57, Type (0, 0), None
#     Edge 58, Type (0, 0), None
#     Edge 59, Type (0, 0), None
#     Edge 60, Type (0, 0), None
#     Edge 61, Type (0, 0), None
#     Edge 62, Type (0, 0), None
#     Edge 63, Type (0, 0), None
#     Edge 64, Type (0, 0), None
#     Edge 65, Type (0, 0), None
#     Edge 66, Type (0, 0), None
#     Edge 67, Type (0, 0), None
#     Edge 68, Type (0, 0), None
#     Edge 69, Type (0, 0), None
#     Edge 70, Type (0, 0), None
#     Edge 71, Type (0, 0), None
#     Edge 72, Type (0, 0), None
#     Edge 73, Type (0, 0), None
#     Edge 74, Type (0, 0), None
#     Edge 75, Type (0, 0), None
#     Edge 76, Type (0, 0), None
#     Edge 77, Type (0, 0), None
#     Edge 78, Type (0, 0), None
#     Edge 79, Type (0, 0), None
#     Edge 80, Type (0, 0), None
#     Edge 81, Type (0, 0), None
#     Edge 82, Type (0, 0), None
#     Edge 83, Type (0, 0), None
#     Edge 84, Type (0, 0), None
#     Edge 85, Type (0, 0), None
#     Edge 86, Type (0, 0), None
#     Edge 87, Type (0, 0), None
#     Edge 88, Type (0, 0), None
#     Edge 89, Type (0, 0), None
#     Edge 90, Type (0, 0), None
#     Edge 91, Type (0, 0), None
#     Edge 92, Type (0, 0), None
#     Edge 93, Type (0, 0), None
#     Edge 94, Type (0, 0), None
#     Edge 95, Type (0, 0), None
#     Edge 96, Type (0, 0), None
#     Edge 97, Type (0, 0), None
#     Edge 98, Type (0, 0), None
#     Edge 99, Type (0, 0), None
#     Edge 100, Type (0, 0), None
#     Edge 101, Type (0, 0), None
#     Edge 102, Type (0, 0), None
#     Edge 103, Type (0, 0), None
#     Edge 104, Type (0, 0), None
#     Edge 105, Type (0, 0), None
#     Edge 106, Type (0, 0), None
#     Edge 107, Type (0, 0), None
#     Edge 108, Type (0, 0), None
#     Edge 109, Type (0, 0), None
#     Edge 110, Type (0, 0), None
#     Edge 111, Type (0, 0), None
# Relax obj value: 0.188
# Max RMSD: 0.204
# Mean RMSD: 0.204
data_MOF--net-sog--node1-XOMCOT_clean_sbu_0--edge1-none
_symmetry_space_group_name_H-M    P1
_symmetry_Int_Tables_number       1
_symmetry_cell_setting            triclinic
loop_
_symmetry_equiv_pos_as_xyz
'x, y, z'
_cell_length_a     38.56789
_cell_length_b     8.8508145
_cell_length_c     60.653931
_cell_angle_alpha  90.000044
_cell_angle_beta   90.004768
_cell_angle_gamma 89.997252
loop_
_atom_site_label
_atom_site_type_symbol
_atom_site_fract_x
_atom_site_fract_y
_atom_site_fract_z
_atom_type_partial_charge
Co0 Co 0.44885 0.21134 0.03647 0.0
C1 C 0.44222 0.90092 0.04705 0.0
C2 C 0.40679 0.96226 0.02147 0.0
C3 C 0.41695 0.81446 0.01817 0.0
N4 N 0.42448 1.02021 0.03879 0.0
N5 N 0.43975 0.77799 0.0341 0.0
H6 H 0.46199 0.91259 0.05948 0.0
H7 H 0.39328 1.02991 0.00936 0.0
C8 C 0.37243 0.33692 0.03682 0.0
O9 O 0.35658 0.20685 0.03886 0.0
N10 N 0.47301 0.40303 0.0336 0.0
C11 C 0.49311 0.4678 0.0492 0.0
C12 C 0.48615 0.62047 0.04993 0.0
C13 C 0.45677 0.52056 0.02372 0.0
N14 N 0.46226 0.65167 0.03438 0.0
C15 C 0.48161 0.16667 0.07871 0.0
C16 C 0.42466 0.2336 0.10443 0.0
C17 C 0.45437 0.17566 0.1147 0.0
C18 C 0.48341 0.14515 0.10155 0.0
C19 C 0.42388 0.25268 0.0816 0.0
N20 N 0.45197 0.21803 0.06881 0.0
H21 H 0.50392 0.13701 0.06887 0.0
H22 H 0.39993 0.29036 0.07459 0.0
H23 H 0.5084 0.40786 0.06122 0.0
H24 H 0.43653 0.50591 0.01156 0.0
O25 O 0.49059 0.09437 0.03002 0.0
O26 O 0.45364 0.17469 0.00481 0.0
O27 O 0.40537 0.34265 0.03653 0.0
C28 C 0.48016 0.08963 0.0097 0.0
H29 H 0.4109 0.74575 0.00393 0.0
H30 H 0.49519 0.69789 0.06247 0.0
H31 H 0.40177 0.262 0.11391 0.0
H32 H 0.50692 0.09945 0.10867 0.0
Co33 Co 0.77605 0.10728 0.03651 0.0
C34 C 0.78271 0.41767 0.04709 0.0
C35 C 0.81811 0.35644 0.02149 0.0
C36 C 0.80797 0.50432 0.01822 0.0
N37 N 0.80044 0.29841 0.0388 0.0
N38 N 0.78518 0.5407 0.03416 0.0
H39 H 0.76294 0.40593 0.05952 0.0
H40 H 0.83158 0.28886 0.00935 0.0
C41 C 0.85242 0.98132 0.03676 0.0
O42 O 0.8683 0.1115 0.03845 0.0
N43 N 0.75186 0.91559 0.03366 0.0
C44 C 0.7318 0.85077 0.04927 0.0
C45 C 0.73878 0.69812 0.05 0.0
C46 C 0.7681 0.79808 0.02377 0.0
N47 N 0.76265 0.66697 0.03444 0.0
C48 C 0.74325 0.15173 0.07875 0.0
C49 C 0.80035 0.08664 0.10445 0.0
C50 C 0.77057 0.1437 0.11473 0.0
C51 C 0.74147 0.17336 0.10159 0.0
C52 C 0.80113 0.06745 0.08162 0.0
N53 N 0.77294 0.10095 0.06885 0.0
H54 H 0.7209 0.18082 0.06891 0.0
H55 H 0.82515 1.03081 0.07459 0.0
H56 H 0.7165 0.91064 0.06129 0.0
H57 H 0.78832 0.81278 0.0116 0.0
O58 O 0.73433 0.22435 0.03001 0.0
O59 O 0.77129 0.14364 0.00485 0.0
O60 O 0.81948 0.97567 0.03666 0.0
C61 C 0.74478 0.22884 0.0097 0.0
H62 H 0.81403 0.57313 0.00399 0.0
H63 H 0.72977 0.62069 0.06254 0.0
H64 H 0.82331 0.05906 0.11391 0.0
H65 H 0.7179 0.21847 0.10872 0.0
Co66 Co 0.44889 0.10719 0.21706 0.0
C67 C 0.44223 0.41758 0.20648 0.0
C68 C 0.40684 0.35637 0.23208 0.0
C69 C 0.41697 0.50424 0.23535 0.0
N70 N 0.42451 0.29833 0.21477 0.0
N71 N 0.43976 0.54061 0.21941 0.0
H72 H 0.46201 0.40583 0.19405 0.0
H73 H 0.39336 0.2888 0.24422 0.0
C74 C 0.37253 0.98122 0.21682 0.0
O75 O 0.35664 0.11141 0.21516 0.0
N76 N 0.47308 0.91549 0.21991 0.0
C77 C 0.49315 0.85066 0.2043 0.0
C78 C 0.48616 0.69801 0.20357 0.0
C79 C 0.45685 0.79798 0.2298 0.0
N80 N 0.46229 0.66688 0.21913 0.0
C81 C 0.48169 0.15159 0.17482 0.0
C82 C 0.42458 0.08672 0.14913 0.0
C83 C 0.45436 0.14372 0.13884 0.0
C84 C 0.48347 0.17326 0.15198 0.0
C85 C 0.4238 0.06748 0.17195 0.0
N86 N 0.452 0.10086 0.18473 0.0
H87 H 0.50405 0.18061 0.18466 0.0
H88 H 0.39978 1.03092 0.17899 0.0
H89 H 0.50845 0.91051 0.19228 0.0
H90 H 0.43662 0.8127 0.24197 0.0
O91 O 0.49062 0.22424 0.22355 0.0
O92 O 0.45367 0.14357 0.24873 0.0
O93 O 0.40546 0.97558 0.21691 0.0
C94 C 0.48017 0.22876 0.24386 0.0
H95 H 0.41092 0.57306 0.24958 0.0
H96 H 0.49517 0.62058 0.19103 0.0
H97 H 0.40161 0.05923 0.13966 0.0
H98 H 0.50704 0.21833 0.14485 0.0
Co99 Co 0.77609 0.21126 0.2171 0.0
C100 C 0.78272 0.90085 0.20652 0.0
C101 C 0.81816 0.96216 0.2321 0.0
C102 C 0.808 0.81435 0.2354 0.0
N103 N 0.80047 1.02012 0.21479 0.0
N104 N 0.7852 0.7779 0.21947 0.0
H105 H 0.76295 0.91253 0.19409 0.0
H106 H 0.83166 1.02979 0.24422 0.0
C107 C 0.8525 0.33688 0.21677 0.0
O108 O 0.86836 0.2068 0.21478 0.0
N109 N 0.75192 0.40296 0.21998 0.0
C110 C 0.73183 0.46774 0.20438 0.0
C111 C 0.73879 0.62041 0.20365 0.0
C112 C 0.76817 0.52049 0.22986 0.0
N113 N 0.76268 0.65159 0.2192 0.0
C114 C 0.74332 0.16663 0.17487 0.0
C115 C 0.80028 0.23345 0.14915 0.0
C116 C 0.77056 0.1756 0.13887 0.0
C117 C 0.74152 0.14514 0.15203 0.0
C118 C 0.80107 0.25249 0.17198 0.0
N119 N 0.77297 0.21793 0.18477 0.0
H120 H 0.72101 0.137 0.1847 0.0
H121 H 0.82502 0.29006 0.17899 0.0
H122 H 0.71653 0.40781 0.19236 0.0
H123 H 0.7884 0.50583 0.24202 0.0
O124 O 0.73435 0.09428 0.22357 0.0
O125 O 0.77131 0.17464 0.24876 0.0
O126 O 0.81956 0.3426 0.21704 0.0
C127 C 0.74479 0.08956 0.24388 0.0
H128 H 0.81406 0.74562 0.24964 0.0
H129 H 0.72976 0.69783 0.19111 0.0
H130 H 0.82317 0.26179 0.13967 0.0
H131 H 0.71801 0.09951 0.1449 0.0
Co132 Co 0.52611 0.85701 0.96713 0.0
C133 C 0.53273 0.16744 0.95655 0.0
C134 C 0.56817 0.10606 0.98212 0.0
C135 C 0.558 0.25384 0.98543 0.0
N136 N 0.55047 0.04814 0.96481 0.0
N137 N 0.5352 0.29034 0.9695 0.0
H138 H 0.51296 0.1558 0.94411 0.0
H139 H 0.58169 0.03839 0.99423 0.0
C140 C 0.60253 0.73157 0.96673 0.0
O141 O 0.61837 0.86158 0.96456 0.0
N142 N 0.50195 0.66532 0.97 0.0
C143 C 0.48184 0.60057 0.95441 0.0
C144 C 0.4888 0.4479 0.95368 0.0
C145 C 0.51819 0.54778 0.97989 0.0
N146 N 0.51269 0.41668 0.96923 0.0
C147 C 0.49336 0.90181 0.92489 0.0
C148 C 0.55025 0.83408 0.89916 0.0
C149 C 0.52059 0.89239 0.88889 0.0
C150 C 0.49157 0.92328 0.90205 0.0
C151 C 0.55104 0.81506 0.92199 0.0
N152 N 0.52299 0.8502 0.93479 0.0
H153 H 0.47107 0.93172 0.93472 0.0
H154 H 0.57495 0.77694 0.929 0.0
H155 H 0.46656 0.66055 0.94239 0.0
H156 H 0.53843 0.56241 0.99204 0.0
O157 O 0.48435 0.97397 0.97358 0.0
O158 O 0.52131 0.89373 0.99878 0.0
O159 O 0.5696 0.72581 0.96711 0.0
C160 C 0.49479 0.97878 0.99389 0.0
H161 H 0.56405 0.32252 0.99967 0.0
H162 H 0.47975 0.37049 0.94114 0.0
H163 H 0.57312 0.80533 0.88968 0.0
H164 H 0.46809 0.96922 0.89493 0.0
Co165 Co 0.1989 0.96101 0.96702 0.0
C166 C 0.19223 0.65062 0.95645 0.0
C167 C 0.15685 0.71179 0.98206 0.0
C168 C 0.16697 0.56387 0.98531 0.0
N169 N 0.17451 0.76987 0.96475 0.0
N170 N 0.18975 0.52754 0.96937 0.0
H171 H 0.212 0.66242 0.94402 0.0
H172 H 0.1434 0.77932 0.99422 0.0
C173 C 0.12257 0.08724 0.96687 0.0
O174 O 0.10665 0.95699 0.96544 0.0
N175 N 0.2231 0.15269 0.96986 0.0
C176 C 0.24315 0.21756 0.95424 0.0
C177 C 0.23616 0.3702 0.95352 0.0
C178 C 0.20687 0.27019 0.97976 0.0
N179 N 0.2123 0.4013 0.96909 0.0
C180 C 0.23174 0.91679 0.92479 0.0
C181 C 0.17453 0.98034 0.8991 0.0
C182 C 0.20438 0.92401 0.88881 0.0
C183 C 0.23353 0.89507 0.90195 0.0
C184 C 0.17375 0.99964 0.92193 0.0
N185 N 0.20201 0.9671 0.93469 0.0
H186 H 0.25413 0.88818 0.93463 0.0
H187 H 0.14967 0.03545 0.92898 0.0
H188 H 0.25846 0.15775 0.94222 0.0
H189 H 0.18665 0.25545 0.99193 0.0
O190 O 0.24061 0.8439 0.97353 0.0
O191 O 0.20366 0.9248 0.99869 0.0
O192 O 0.1555 0.09282 0.96682 0.0
C193 C 0.23016 0.83952 0.99384 0.0
H194 H 0.16092 0.495 0.99954 0.0
H195 H 0.24515 0.44764 0.94097 0.0
H196 H 0.15152 1.00723 0.88965 0.0
H197 H 0.25714 0.85043 0.89482 0.0
Co198 Co 0.52609 0.96109 0.78654 0.0
C199 C 0.53275 0.6507 0.79712 0.0
C200 C 0.56815 0.71188 0.77151 0.0
C201 C 0.55802 0.56398 0.76825 0.0
N202 N 0.55048 0.76995 0.78883 0.0
N203 N 0.53523 0.52764 0.78419 0.0
H204 H 0.51298 0.66249 0.80954 0.0
H205 H 0.58161 0.77943 0.75936 0.0
C206 C 0.60243 0.0872 0.78673 0.0
O207 O 0.61834 0.95698 0.78826 0.0
N208 N 0.50189 0.15279 0.7837 0.0
C209 C 0.48183 0.21765 0.79931 0.0
C210 C 0.48883 0.37028 0.80004 0.0
C211 C 0.51813 0.27029 0.7738 0.0
N212 N 0.51269 0.4014 0.78447 0.0
C213 C 0.49326 0.91682 0.82877 0.0
C214 C 0.55043 0.98096 0.85447 0.0
C215 C 0.52061 0.92432 0.86475 0.0
C216 C 0.49148 0.89511 0.85161 0.0
C217 C 0.55121 1.00022 0.83164 0.0
N218 N 0.52298 0.96731 0.81887 0.0
H219 H 0.47089 0.88802 0.81894 0.0
H220 H 0.57526 0.03636 0.8246 0.0
H221 H 0.46652 0.15782 0.81133 0.0
H222 H 0.53835 0.25556 0.76163 0.0
O223 O 0.48437 0.84402 0.78004 0.0
O224 O 0.52133 0.92479 0.75487 0.0
O225 O 0.5695 0.09281 0.78672 0.0
C226 C 0.49482 0.83956 0.75973 0.0
H227 H 0.56408 0.49513 0.75403 0.0
H228 H 0.47982 0.44773 0.81258 0.0
H229 H 0.57342 1.00811 0.86393 0.0
H230 H 0.46788 0.85028 0.85874 0.0
Co231 Co 0.19887 0.85699 0.78643 0.0
C232 C 0.19226 0.16742 0.79702 0.0
C233 C 0.15681 0.10604 0.77145 0.0
C234 C 0.16699 0.25379 0.76813 0.0
N235 N 0.17451 0.04813 0.78876 0.0
N236 N 0.18979 0.2903 0.78406 0.0
H237 H 0.21203 0.15579 0.80945 0.0
H238 H 0.14328 0.03835 0.75934 0.0
C239 C 0.12244 0.73164 0.78686 0.0
O240 O 0.10662 0.86162 0.78911 0.0
N241 N 0.22303 0.66529 0.78355 0.0
C242 C 0.24314 0.60055 0.79914 0.0
C243 C 0.23619 0.44787 0.79987 0.0
C244 C 0.20679 0.54775 0.77367 0.0
N245 N 0.2123 0.41665 0.78433 0.0
C246 C 0.23161 0.90188 0.82867 0.0
C247 C 0.17476 0.83351 0.85441 0.0
C248 C 0.2044 0.8921 0.86468 0.0
C249 C 0.23339 0.92328 0.85151 0.0
C250 C 0.17398 0.81455 0.83157 0.0
N251 N 0.202 0.85008 0.81877 0.0
H252 H 0.25388 0.93198 0.81884 0.0
H253 H 0.15009 0.77611 0.82457 0.0
H254 H 0.25842 0.66054 0.81117 0.0
H255 H 0.18654 0.56237 0.76151 0.0
O256 O 0.24064 0.97392 0.77998 0.0
O257 O 0.20368 0.89376 0.75478 0.0
O258 O 0.15537 0.72587 0.78644 0.0
C259 C 0.2302 0.97876 0.75967 0.0
H260 H 0.16093 0.32246 0.75389 0.0
H261 H 0.24524 0.37047 0.81241 0.0
H262 H 0.15192 0.80448 0.86389 0.0
H263 H 0.25686 0.96941 0.85863 0.0
Co264 Co 0.44889 0.71123 0.53649 0.0
C265 C 0.44225 0.40082 0.54706 0.0
C266 C 0.40682 0.46213 0.52148 0.0
C267 C 0.41698 0.3143 0.51819 0.0
N268 N 0.42451 0.5201 0.53879 0.0
N269 N 0.43978 0.27786 0.53412 0.0
H270 H 0.46203 0.41251 0.55949 0.0
H271 H 0.39332 0.52975 0.50936 0.0
C272 C 0.37249 0.83692 0.5368 0.0
O273 O 0.35663 0.70682 0.53873 0.0
N274 N 0.47306 0.90292 0.53362 0.0
C275 C 0.49315 0.9677 0.54922 0.0
C276 C 0.48618 0.12037 0.54995 0.0
C277 C 0.45682 1.02045 0.52373 0.0
N278 N 0.4623 0.15155 0.5344 0.0
C279 C 0.48167 0.66662 0.57872 0.0
C280 C 0.42469 0.73311 0.60444 0.0
C281 C 0.45442 0.67542 0.61472 0.0
C282 C 0.48347 0.64511 0.60156 0.0
C283 C 0.4239 0.75218 0.58161 0.0
N284 N 0.45201 0.71783 0.56882 0.0
H285 H 0.50399 0.6371 0.56888 0.0
H286 H 0.39993 0.78956 0.57459 0.0
H287 H 0.50845 0.90778 0.56124 0.0
H288 H 0.43658 1.00578 0.51157 0.0
O289 O 0.49063 0.59423 0.53001 0.0
O290 O 0.45366 0.67467 0.50482 0.0
O291 O 0.40542 0.84263 0.53657 0.0
C292 C 0.48018 0.58956 0.5097 0.0
H293 H 0.41092 0.24556 0.50395 0.0
H294 H 0.49521 0.19779 0.56249 0.0
H295 H 0.40178 0.7613 0.61391 0.0
H296 H 0.50699 0.59957 0.60869 0.0
Co297 Co 0.77609 0.60716 0.5365 0.0
C298 C 0.78274 0.91756 0.54708 0.0
C299 C 0.81815 0.8563 0.52148 0.0
C300 C 0.808 1.00415 0.51821 0.0
N301 N 0.80047 0.79829 0.5388 0.0
N302 N 0.78521 0.04056 0.53414 0.0
H303 H 0.76297 0.90584 0.5595 0.0
H304 H 0.83163 0.7887 0.50935 0.0
C305 C 0.85247 0.48132 0.53678 0.0
O306 O 0.86835 0.61147 0.53858 0.0
N307 N 0.75191 0.41547 0.53364 0.0
C308 C 0.73184 0.35067 0.54925 0.0
C309 C 0.73881 0.19801 0.54998 0.0
C310 C 0.76815 0.29795 0.52375 0.0
N311 N 0.76268 0.16685 0.53442 0.0
C312 C 0.7433 0.65169 0.57873 0.0
C313 C 0.80037 0.58606 0.60444 0.0
C314 C 0.77061 0.64341 0.61472 0.0
C315 C 0.74153 0.67331 0.60157 0.0
C316 C 0.80114 0.56688 0.58161 0.0
N317 N 0.77298 0.60072 0.56883 0.0
H318 H 0.72097 0.68094 0.5689 0.0
H319 H 0.82514 0.52991 0.57459 0.0
H320 H 0.71654 0.41056 0.56127 0.0
H321 H 0.78837 0.31264 0.51159 0.0
O322 O 0.73436 0.7242 0.53002 0.0
O323 O 0.77131 0.64361 0.50484 0.0
O324 O 0.81954 0.47564 0.53661 0.0
C325 C 0.7448 0.72877 0.5097 0.0
H326 H 0.81406 0.07294 0.50397 0.0
H327 H 0.7298 0.12059 0.56252 0.0
H328 H 0.82331 0.55824 0.61391 0.0
H329 H 0.71798 0.71862 0.6087 0.0
Co330 Co 0.44893 0.60724 0.71708 0.0
C331 C 0.44227 0.91764 0.7065 0.0
C332 C 0.40687 0.85641 0.73209 0.0
C333 C 0.417 1.00427 0.73536 0.0
N334 N 0.42454 0.79838 0.71478 0.0
N335 N 0.4398 0.04065 0.71943 0.0
H336 H 0.46205 0.9059 0.69407 0.0
H337 H 0.39338 0.78882 0.74423 0.0
C338 C 0.37255 0.48136 0.71681 0.0
O339 O 0.35667 0.61152 0.71506 0.0
N340 N 0.47311 0.41555 0.71993 0.0
C341 C 0.49318 0.35072 0.70432 0.0
C342 C 0.4862 0.19808 0.70359 0.0
C343 C 0.45687 0.29803 0.72982 0.0
N344 N 0.46233 0.16693 0.71915 0.0
C345 C 0.48172 0.65171 0.67484 0.0
C346 C 0.42465 0.58629 0.64914 0.0
C347 C 0.45442 0.64351 0.63885 0.0
C348 C 0.48351 0.67332 0.652 0.0
C349 C 0.42387 0.56713 0.67196 0.0
N350 N 0.45204 0.60083 0.68474 0.0
H351 H 0.50407 0.68091 0.68468 0.0
H352 H 0.39986 0.53031 0.67899 0.0
H353 H 0.50848 0.4106 0.6923 0.0
H354 H 0.43665 0.31273 0.74199 0.0
O355 O 0.49066 0.7243 0.72357 0.0
O356 O 0.4537 0.64366 0.74874 0.0
O357 O 0.40549 0.47569 0.71695 0.0
C358 C 0.4802 0.72886 0.74388 0.0
H359 H 0.41095 0.07307 0.7496 0.0
H360 H 0.49521 0.12065 0.69105 0.0
H361 H 0.4017 0.55856 0.63967 0.0
H362 H 0.50706 0.71853 0.64487 0.0
Co363 Co 0.77613 0.7113 0.71708 0.0
C364 C 0.78277 0.40089 0.70651 0.0
C365 C 0.81819 0.46218 0.73209 0.0
C366 C 0.80803 0.31436 0.73538 0.0
N367 N 0.8005 0.52016 0.71478 0.0
N368 N 0.78524 0.27793 0.71945 0.0
H369 H 0.76299 0.41259 0.69408 0.0
H370 H 0.83168 0.5298 0.74422 0.0
C371 C 0.85252 0.837 0.71678 0.0
O372 O 0.86839 0.7069 0.71487 0.0
N373 N 0.75195 0.903 0.71995 0.0
C374 C 0.73186 0.9678 0.70435 0.0
C375 C 0.73883 0.12046 0.70362 0.0
C376 C 0.76819 1.02052 0.72984 0.0
N377 N 0.76271 0.15163 0.71917 0.0
C378 C 0.74334 0.66676 0.67485 0.0
C379 C 0.80035 0.73294 0.64914 0.0
C380 C 0.77061 0.67535 0.63886 0.0
C381 C 0.74155 0.64519 0.65201 0.0
C382 C 0.80114 0.75207 0.67196 0.0
N383 N 0.77301 0.71788 0.68475 0.0
H384 H 0.72102 0.63733 0.68469 0.0
H385 H 0.82511 0.78933 0.67899 0.0
H386 H 0.71656 0.90789 0.69233 0.0
H387 H 0.78843 1.00585 0.742 0.0
O388 O 0.73439 0.59432 0.72355 0.0
O389 O 0.77134 0.67473 0.74875 0.0
O390 O 0.81959 0.84271 0.717 0.0
C391 C 0.74483 0.58962 0.74386 0.0
H392 H 0.81409 0.24561 0.74962 0.0
H393 H 0.7298 0.19789 0.69108 0.0
H394 H 0.82327 0.76101 0.63966 0.0
H395 H 0.71802 0.59973 0.64488 0.0
Co396 Co 0.5261 0.35707 0.46709 0.0
C397 C 0.53273 0.66748 0.45651 0.0
C398 C 0.56816 0.60617 0.48209 0.0
C399 C 0.55801 0.75399 0.48539 0.0
N400 N 0.55047 0.5482 0.46478 0.0
N401 N 0.53521 0.79044 0.46946 0.0
H402 H 0.51295 0.65579 0.44409 0.0
H403 H 0.58166 0.53854 0.49422 0.0
C404 C 0.6025 0.23139 0.46677 0.0
O405 O 0.61836 0.36149 0.46483 0.0
N406 N 0.50192 0.16538 0.46996 0.0
C407 C 0.48183 0.1006 0.45436 0.0
C408 C 0.4888 0.94793 0.45363 0.0
C409 C 0.51817 0.04785 0.47984 0.0
N410 N 0.51269 0.91675 0.46918 0.0
C411 C 0.49332 0.40169 0.42486 0.0
C412 C 0.5503 0.33515 0.39914 0.0
C413 C 0.52058 0.39289 0.38886 0.0
C414 C 0.49153 0.42322 0.40202 0.0
C415 C 0.55109 0.31607 0.42197 0.0
N416 N 0.52297 0.35046 0.43476 0.0
H417 H 0.471 0.43123 0.43469 0.0
H418 H 0.57505 0.27864 0.42899 0.0
H419 H 0.46654 0.16053 0.44234 0.0
H420 H 0.5384 0.06251 0.49201 0.0
O421 O 0.48436 0.47407 0.47356 0.0
O422 O 0.52132 0.39364 0.49875 0.0
O423 O 0.56956 0.22568 0.46702 0.0
C424 C 0.49481 0.47877 0.49387 0.0
H425 H 0.56407 0.82274 0.49962 0.0
H426 H 0.47977 0.87052 0.44109 0.0
H427 H 0.57321 0.30694 0.38966 0.0
H428 H 0.468 0.46878 0.39489 0.0
Co429 Co 0.1989 0.46111 0.46706 0.0
C430 C 0.19224 0.15072 0.45649 0.0
C431 C 0.15684 0.21195 0.48208 0.0
C432 C 0.16698 0.06409 0.48535 0.0
N433 N 0.17451 0.26998 0.46477 0.0
N434 N 0.18977 1.0277 0.46942 0.0
H435 H 0.21202 0.16245 0.44406 0.0
H436 H 0.14337 0.27954 0.49422 0.0
C437 C 0.12253 0.58704 0.46682 0.0
O438 O 0.10664 0.45687 0.46511 0.0
N439 N 0.22309 0.6528 0.46992 0.0
C440 C 0.24315 0.71762 0.45431 0.0
C441 C 0.23617 0.87027 0.45358 0.0
C442 C 0.20685 0.77032 0.47981 0.0
N443 N 0.2123 0.90142 0.46914 0.0
C444 C 0.2317 0.41667 0.42483 0.0
C445 C 0.1746 0.48183 0.39913 0.0
C446 C 0.20438 0.42472 0.38884 0.0
C447 C 0.23348 0.39503 0.40199 0.0
C448 C 0.17382 0.50103 0.42195 0.0
N449 N 0.20201 0.46748 0.43473 0.0
H450 H 0.25405 0.38756 0.43466 0.0
H451 H 0.14981 0.53772 0.42899 0.0
H452 H 0.25845 0.65775 0.44229 0.0
H453 H 0.18662 0.75562 0.49197 0.0
O454 O 0.24062 0.34406 0.47355 0.0
O455 O 0.20367 0.42471 0.49873 0.0
O456 O 0.15546 0.5927 0.46693 0.0
C457 C 0.23018 0.33952 0.49386 0.0
H458 H 0.16092 0.99528 0.49959 0.0
H459 H 0.24518 0.9477 0.44104 0.0
H460 H 0.15164 0.50944 0.38966 0.0
H461 H 0.25704 0.34988 0.39486 0.0
Co462 Co 0.52607 0.46111 0.28651 0.0
C463 C 0.53273 0.15071 0.29708 0.0
C464 C 0.56813 0.21194 0.27149 0.0
C465 C 0.55799 0.06408 0.26822 0.0
N466 N 0.55046 0.26997 0.2888 0.0
N467 N 0.5352 1.0277 0.28415 0.0
H468 H 0.51295 0.16245 0.30951 0.0
H469 H 0.58162 0.27953 0.25935 0.0
C470 C 0.60245 0.587 0.28677 0.0
O471 O 0.61833 0.45683 0.28851 0.0
N472 N 0.50189 0.6528 0.28365 0.0
C473 C 0.48182 0.71763 0.29926 0.0
C474 C 0.4888 0.87028 0.29998 0.0
C475 C 0.51813 0.77032 0.27376 0.0
N476 N 0.51267 0.90142 0.28443 0.0
C477 C 0.49327 0.41666 0.32874 0.0
C478 C 0.55035 0.482 0.35444 0.0
C479 C 0.52058 0.42481 0.36473 0.0
C480 C 0.49149 0.39504 0.35158 0.0
C481 C 0.55113 0.50117 0.33162 0.0
N482 N 0.52296 0.46752 0.31884 0.0
H483 H 0.47093 0.38749 0.3189 0.0
H484 H 0.57514 0.53795 0.32459 0.0
H485 H 0.46652 0.65775 0.31127 0.0
H486 H 0.53835 0.75562 0.26159 0.0
O487 O 0.48434 0.34406 0.28001 0.0
O488 O 0.5213 0.42468 0.25484 0.0
O489 O 0.56951 0.59266 0.28663 0.0
C490 C 0.4948 0.33948 0.25971 0.0
H491 H 0.56405 0.99528 0.25398 0.0
H492 H 0.47978 0.9477 0.31253 0.0
H493 H 0.5733 0.50969 0.36391 0.0
H494 H 0.46793 0.34985 0.35871 0.0
Co495 Co 0.19887 0.35702 0.28648 0.0
C496 C 0.19223 0.66744 0.29706 0.0
C497 C 0.1568 0.60613 0.27148 0.0
C498 C 0.16697 0.75393 0.26818 0.0
N499 N 0.17449 0.54816 0.28879 0.0
N500 N 0.18976 0.79038 0.28411 0.0
H501 H 0.21201 0.65575 0.30949 0.0
H502 H 0.1433 0.53849 0.25935 0.0
C503 C 0.12246 0.23141 0.28682 0.0
O504 O 0.1066 0.36149 0.28881 0.0
N505 N 0.22304 0.16532 0.28361 0.0
C506 C 0.24313 0.10054 0.29921 0.0
C507 C 0.23617 0.94787 0.29994 0.0
C508 C 0.20679 0.0478 0.27372 0.0
N509 N 0.21228 0.91669 0.28438 0.0
C510 C 0.23164 0.40165 0.32871 0.0
C511 C 0.17467 0.33497 0.35443 0.0
C512 C 0.20438 0.39279 0.36471 0.0
C513 C 0.23343 0.42319 0.35155 0.0
C514 C 0.17388 0.31588 0.3316 0.0
N515 N 0.20199 0.35037 0.31881 0.0
H516 H 0.25395 0.43124 0.31888 0.0
H517 H 0.14993 0.27834 0.32459 0.0
H518 H 0.25842 0.16047 0.31123 0.0
H519 H 0.18656 0.06246 0.26156 0.0
O520 O 0.24061 0.474 0.28001 0.0
O521 O 0.20365 0.39363 0.25482 0.0
O522 O 0.15539 0.22569 0.28654 0.0
C523 C 0.23017 0.47872 0.2597 0.0
H524 H 0.16091 0.82266 0.25394 0.0
H525 H 0.2452 0.87045 0.31247 0.0
H526 H 0.15177 0.30668 0.36391 0.0
H527 H 0.25695 0.4688 0.35868 0.0
Co528 Co 0.94889 0.21122 0.5365 0.0
C529 C 0.94225 0.90082 0.54708 0.0
C530 C 0.90683 0.96211 0.52149 0.0
C531 C 0.91698 0.81428 0.5182 0.0
N532 N 0.92451 1.02009 0.5388 0.0
N533 N 0.93978 0.77785 0.53413 0.0
H534 H 0.96203 0.91251 0.5595 0.0
H535 H 0.89333 1.02973 0.50936 0.0
C536 C 0.8725 0.33694 0.5368 0.0
O537 O 0.85663 0.20683 0.53869 0.0
N538 N 0.97306 0.40291 0.53363 0.0
C539 C -0.00685 0.4677 0.54923 0.0
C540 C 0.98618 0.62037 0.54996 0.0
C541 C 0.95682 0.52044 0.52375 0.0
N542 N 0.9623 0.65154 0.53441 0.0
C543 C 0.98168 0.16665 0.57873 0.0
C544 C 0.92467 0.23294 0.60445 0.0
C545 C 0.95441 0.17535 0.61473 0.0
C546 C 0.98347 0.14513 0.60157 0.0
C547 C 0.92389 0.25201 0.58162 0.0
N548 N 0.95201 0.21779 0.56883 0.0
H549 H 0.004 0.13719 0.5689 0.0
H550 H 0.89991 0.28928 0.5746 0.0
H551 H 0.00845 0.40779 0.56125 0.0
H552 H 0.93659 0.50577 0.51158 0.0
O553 O -0.00937 0.09422 0.53002 0.0
O554 O 0.95366 0.17468 0.50484 0.0
O555 O 0.90543 0.34265 0.53659 0.0
C556 C 0.98018 0.08956 0.50971 0.0
H557 H 0.91092 0.74553 0.50397 0.0
H558 H -0.00479 0.69779 0.5625 0.0
H559 H 0.90176 0.26103 0.61392 0.0
H560 H 0.007 0.09966 0.6087 0.0
Co561 Co 0.27609 0.10718 0.5365 0.0
C562 C 0.28274 0.41758 0.54708 0.0
C563 C 0.31815 0.35633 0.52149 0.0
C564 C 0.30801 0.50419 0.51821 0.0
N565 N 0.30047 0.29831 0.5388 0.0
N566 N 0.28521 0.54058 0.53415 0.0
H567 H 0.26297 0.40585 0.55951 0.0
H568 H 0.33163 0.28873 0.50935 0.0
C569 C 0.35246 0.9813 0.53677 0.0
O570 O 0.36835 0.11146 0.53853 0.0
N571 N 0.2519 0.91549 0.53365 0.0
C572 C 0.23183 0.85068 0.54926 0.0
C573 C 0.23881 0.69802 0.54998 0.0
C574 C 0.26814 0.79797 0.52376 0.0
N575 N 0.26268 0.66687 0.53442 0.0
C576 C 0.2433 0.15167 0.57874 0.0
C577 C 0.30038 0.08628 0.60444 0.0
C578 C 0.27061 0.14353 0.61472 0.0
C579 C 0.24152 0.17332 0.60158 0.0
C580 C 0.30115 0.06708 0.58162 0.0
N581 N 0.27298 0.10077 0.56884 0.0
H582 H 0.22095 0.18085 0.5689 0.0
H583 H 0.32516 1.03024 0.57459 0.0
H584 H 0.21654 0.91056 0.56128 0.0
H585 H 0.28837 0.81266 0.51159 0.0
O586 O 0.23436 0.22423 0.53002 0.0
O587 O 0.27131 0.1436 0.50484 0.0
O588 O 0.31953 0.97563 0.53663 0.0
C589 C 0.24481 0.2288 0.50971 0.0
H590 H 0.31406 0.57298 0.50398 0.0
H591 H 0.2298 0.6206 0.56253 0.0
H592 H 0.32332 0.05857 0.61391 0.0
H593 H 0.21796 0.21855 0.60871 0.0
Co594 Co 0.94893 0.10724 0.71709 0.0
C595 C 0.94227 0.41764 0.70651 0.0
C596 C 0.90687 0.3564 0.7321 0.0
C597 C 0.91701 0.50425 0.73538 0.0
N598 N 0.92454 0.29838 0.71479 0.0
N599 N 0.9398 0.54064 0.71945 0.0
H600 H 0.96205 0.40591 0.69408 0.0
H601 H 0.89338 0.2888 0.74424 0.0
C602 C 0.87255 0.98139 0.71681 0.0
O603 O 0.85666 0.11154 0.71502 0.0
N604 N 0.97311 0.91554 0.71995 0.0
C605 C -0.00682 0.85073 0.70434 0.0
C606 C 0.9862 0.69808 0.70361 0.0
C607 C 0.95687 0.79803 0.72983 0.0
N608 N 0.96233 0.66692 0.71917 0.0
C609 C 0.98172 0.15175 0.67485 0.0
C610 C 0.92466 0.08613 0.64915 0.0
C611 C 0.95441 0.14344 0.63886 0.0
C612 C 0.9835 0.17334 0.65201 0.0
C613 C 0.92388 0.06699 0.67197 0.0
N614 N 0.95204 0.10081 0.68476 0.0
H615 H 0.00405 0.181 0.68469 0.0
H616 H 0.89988 1.03006 0.679 0.0
H617 H 0.00847 0.91061 0.69232 0.0
H618 H 0.93664 0.81272 0.742 0.0
O619 O -0.00935 0.22429 0.72358 0.0
O620 O 0.9537 0.14367 0.74875 0.0
O621 O 0.90548 0.97571 0.71697 0.0
C622 C 0.98021 0.22884 0.74389 0.0
H623 H 0.91095 0.57304 0.74961 0.0
H624 H -0.00479 0.62065 0.69107 0.0
H625 H 0.90171 0.05832 0.63968 0.0
H626 H 0.00705 0.21861 0.64488 0.0
Co627 Co 0.27613 0.21134 0.71709 0.0
C628 C 0.28276 0.90092 0.70651 0.0
C629 C 0.31819 0.96222 0.73209 0.0
C630 C 0.30804 0.81441 0.73538 0.0
N631 N 0.30051 1.02019 0.71478 0.0
N632 N 0.28524 0.77796 0.71945 0.0
H633 H 0.26299 0.91261 0.69408 0.0
H634 H 0.3317 1.02985 0.74421 0.0
C635 C 0.35253 0.33698 0.71677 0.0
O636 O 0.36839 0.20689 0.71482 0.0
N637 N 0.25196 0.40303 0.71996 0.0
C638 C 0.23186 0.46783 0.70436 0.0
C639 C 0.23883 0.62049 0.70363 0.0
C640 C 0.2682 0.52056 0.72984 0.0
N641 N 0.26272 0.65166 0.71918 0.0
C642 C 0.24335 0.16677 0.67485 0.0
C643 C 0.30034 0.23319 0.64914 0.0
C644 C 0.27061 0.17548 0.63886 0.0
C645 C 0.24156 0.14521 0.65201 0.0
C646 C 0.30112 0.2523 0.67196 0.0
N647 N 0.27301 0.21797 0.68475 0.0
H648 H 0.22103 0.13726 0.68469 0.0
H649 H 0.32509 0.2897 0.67898 0.0
H650 H 0.21656 0.4079 0.69234 0.0
H651 H 0.28844 0.50589 0.742 0.0
O652 O 0.23439 0.09436 0.72355 0.0
O653 O 0.27135 0.17472 0.74875 0.0
O654 O 0.3196 0.3427 0.71702 0.0
C655 C 0.24483 0.08961 0.74386 0.0
H656 H 0.3141 0.74567 0.74962 0.0
H657 H 0.22979 0.69791 0.69109 0.0
H658 H 0.32325 0.26136 0.63966 0.0
H659 H 0.21803 0.09967 0.64489 0.0
Co660 Co 0.0261 0.85706 0.46711 0.0
C661 C 0.03273 0.16747 0.45653 0.0
C662 C 0.06816 0.10615 0.4821 0.0
C663 C 0.05801 0.25396 0.4854 0.0
N664 N 0.05047 0.04819 0.46479 0.0
N665 N 0.03521 0.29042 0.46947 0.0
H666 H 0.01296 0.15579 0.4441 0.0
H667 H 0.08167 0.03851 0.49423 0.0
C668 C 0.1025 0.73142 0.46677 0.0
O669 O 0.11836 0.8615 0.46478 0.0
N670 N 0.00193 0.66537 0.46998 0.0
C671 C 0.98184 0.60059 0.45437 0.0
C672 C -0.0112 0.44793 0.45365 0.0
C673 C 0.01817 0.54784 0.47986 0.0
N674 N 0.01269 0.41674 0.4692 0.0
C675 C -0.00668 0.90172 0.42487 0.0
C676 C 0.05029 0.83494 0.39915 0.0
C677 C 0.02058 0.89279 0.38887 0.0
C678 C -0.00847 0.92324 0.40203 0.0
C679 C 0.05108 0.81587 0.42198 0.0
N680 N 0.02298 0.85041 0.43477 0.0
H681 H 0.97101 0.93134 0.43471 0.0
H682 H 0.07503 0.77831 0.429 0.0
H683 H 0.96654 0.66053 0.44236 0.0
H684 H 0.03841 0.56249 0.49202 0.0
O685 O 0.98436 0.97406 0.47358 0.0
O686 O 0.02132 0.89365 0.49877 0.0
O687 O 0.06957 0.7257 0.46704 0.0
C688 C -0.00519 0.97877 0.49388 0.0
H689 H 0.06407 0.3227 0.49964 0.0
H690 H 0.97977 0.37051 0.44111 0.0
H691 H 0.07319 0.80661 0.38967 0.0
H692 H 0.96802 0.96888 0.3949 0.0
Co693 Co 0.6989 0.96113 0.46707 0.0
C694 C 0.69224 0.65073 0.45649 0.0
C695 C 0.65684 0.71198 0.48208 0.0
C696 C 0.66697 0.56412 0.48536 0.0
N697 N 0.67451 0.77 0.46477 0.0
N698 N 0.68977 0.52773 0.46942 0.0
H699 H 0.71202 0.66246 0.44406 0.0
H700 H 0.64335 0.77958 0.49422 0.0
C701 C 0.62252 0.08701 0.4668 0.0
O702 O 0.60664 0.95685 0.46506 0.0
N703 N 0.72308 0.15282 0.46992 0.0
C704 C 0.74315 0.21763 0.45432 0.0
C705 C 0.73617 0.37029 0.45359 0.0
C706 C 0.70684 0.27034 0.47981 0.0
N707 N 0.7123 0.40144 0.46915 0.0
C708 C 0.73169 0.91666 0.42483 0.0
C709 C 0.67462 0.98204 0.39913 0.0
C710 C 0.70438 0.92483 0.38885 0.0
C711 C 0.73348 0.89503 0.40199 0.0
C712 C 0.67384 1.00123 0.42195 0.0
N713 N 0.70201 0.96755 0.43473 0.0
H714 H 0.75404 0.88748 0.43467 0.0
H715 H 0.64983 0.03804 0.42898 0.0
H716 H 0.75845 0.15775 0.4423 0.0
H717 H 0.68661 0.25565 0.49198 0.0
O718 O 0.74062 0.84409 0.47355 0.0
O719 O 0.70367 0.9247 0.49873 0.0
O720 O 0.65546 0.09269 0.46694 0.0
C721 C 0.73017 0.8395 0.49386 0.0
H722 H 0.66092 0.49533 0.49959 0.0
H723 H 0.74519 0.44771 0.44105 0.0
H724 H 0.65167 1.00975 0.38966 0.0
H725 H 0.75703 0.84982 0.39487 0.0
Co726 Co 0.02607 0.9611 0.28652 0.0
C727 C 0.03273 0.6507 0.29709 0.0
C728 C 0.06813 0.71193 0.2715 0.0
C729 C 0.05799 0.56406 0.26823 0.0
N730 N 0.05046 0.76996 0.28881 0.0
N731 N 0.0352 0.52768 0.28416 0.0
H732 H 0.01295 0.66245 0.30952 0.0
H733 H 0.0816 0.77951 0.25936 0.0
C734 C 0.10244 0.08703 0.28676 0.0
O735 O 0.11833 0.95685 0.28846 0.0
N736 N 0.00188 0.1528 0.28366 0.0
C737 C 0.98181 0.21763 0.29927 0.0
C738 C -0.0112 0.37028 0.3 0.0
C739 C 0.01812 0.27031 0.27377 0.0
N740 N 0.01267 0.40142 0.28444 0.0
C741 C -0.00673 0.91669 0.32875 0.0
C742 C 0.05037 0.98177 0.35445 0.0
C743 C 0.02058 0.92471 0.36474 0.0
C744 C -0.00852 0.89506 0.35159 0.0
C745 C 0.05114 1.00096 0.33163 0.0
N746 N 0.02296 0.96747 0.31885 0.0
H747 H 0.97092 0.8876 0.31892 0.0
H748 H 0.07516 0.0376 0.32459 0.0
H749 H 0.96651 0.15777 0.31129 0.0
H750 H 0.03835 0.2556 0.2616 0.0
O751 O 0.98434 0.84405 0.28003 0.0
O752 O 0.0213 0.9247 0.25485 0.0
O753 O 0.0695 0.09269 0.28665 0.0
C754 C -0.00521 0.83951 0.25972 0.0
H755 H 0.06405 0.49525 0.254 0.0
H756 H 0.97978 0.44771 0.31254 0.0
H757 H 0.07332 1.00935 0.36392 0.0
H758 H 0.96792 0.84995 0.35872 0.0
Co759 Co 0.69887 0.85703 0.28648 0.0
C760 C 0.69223 0.16745 0.29706 0.0
C761 C 0.65681 0.10615 0.27148 0.0
C762 C 0.66696 0.25396 0.26819 0.0
N763 N 0.67449 0.04818 0.28879 0.0
N764 N 0.68976 0.2904 0.28412 0.0
H765 H 0.71201 0.15576 0.30949 0.0
H766 H 0.6433 0.03852 0.25936 0.0
C767 C 0.62247 0.73138 0.28681 0.0
O768 O 0.60661 0.86147 0.28876 0.0
N769 N 0.72304 0.66534 0.28361 0.0
C770 C 0.74313 0.60054 0.29921 0.0
C771 C 0.73617 0.44788 0.29994 0.0
C772 C 0.7068 0.54781 0.27373 0.0
N773 N 0.71228 0.41671 0.28439 0.0
C774 C 0.73165 0.90163 0.32872 0.0
C775 C 0.67466 0.83516 0.35443 0.0
C776 C 0.70439 0.89288 0.36471 0.0
C777 C 0.73344 0.92318 0.35156 0.0
C778 C 0.67388 0.81605 0.33161 0.0
N779 N 0.70199 0.85041 0.31882 0.0
H780 H 0.75397 0.93115 0.31888 0.0
H781 H 0.64991 0.77863 0.32459 0.0
H782 H 0.75843 0.66047 0.31123 0.0
H783 H 0.68656 0.56248 0.26157 0.0
O784 O 0.74061 0.97402 0.28001 0.0
O785 O 0.70365 0.89363 0.25482 0.0
O786 O 0.6554 0.72566 0.28655 0.0
C787 C 0.73016 0.97874 0.2597 0.0
H788 H 0.6609 0.32271 0.25395 0.0
H789 H 0.7452 0.37046 0.31248 0.0
H790 H 0.65176 0.80697 0.36391 0.0
H791 H 0.75696 0.96873 0.35868 0.0
Co792 Co 0.94885 0.71134 0.03649 0.0
C793 C 0.94222 0.40092 0.04707 0.0
C794 C 0.90679 0.46225 0.02149 0.0
C795 C 0.91695 0.31444 0.01819 0.0
N796 N 0.92448 0.5202 0.0388 0.0
N797 N 0.93975 0.27798 0.03412 0.0
H798 H 0.96199 0.41259 0.0595 0.0
H799 H 0.89328 0.52989 0.00937 0.0
C800 C 0.87244 0.83694 0.03682 0.0
O801 O 0.85659 0.70687 0.03882 0.0
N802 N 0.97302 0.90303 0.03362 0.0
C803 C -0.00689 0.9678 0.04922 0.0
C804 C 0.98615 0.12047 0.04994 0.0
C805 C 0.95678 1.02056 0.02373 0.0
N806 N 0.96226 0.15166 0.03439 0.0
C807 C 0.98162 0.66671 0.07872 0.0
C808 C 0.92465 0.7334 0.10444 0.0
C809 C 0.95437 0.67557 0.11472 0.0
C810 C 0.98341 0.64517 0.10156 0.0
C811 C 0.92386 0.7525 0.08161 0.0
N812 N 0.95197 0.71799 0.06882 0.0
H813 H 0.00393 0.63712 0.06889 0.0
H814 H 0.89991 0.79004 0.0746 0.0
H815 H 0.00841 0.90787 0.06123 0.0
H816 H 0.93654 1.0059 0.01157 0.0
O817 O -0.00941 0.59436 0.03003 0.0
O818 O 0.95364 0.67471 0.00483 0.0
O819 O 0.90538 0.84267 0.03655 0.0
C820 C 0.98015 0.58963 0.00972 0.0
H821 H 0.91089 0.24572 0.00395 0.0
H822 H -0.00481 0.19789 0.06248 0.0
H823 H 0.90175 0.76169 0.11392 0.0
H824 H 0.00693 0.59954 0.10868 0.0
Co825 Co 0.27605 0.6073 0.03652 0.0
C826 C 0.28271 0.91769 0.04709 0.0
C827 C 0.31811 0.85647 0.02149 0.0
C828 C 0.30797 1.00435 0.01823 0.0
N829 N 0.30044 0.79843 0.0388 0.0
N830 N 0.28518 0.04073 0.03416 0.0
H831 H 0.26293 0.90594 0.05952 0.0
H832 H 0.33158 0.7889 0.00935 0.0
C833 C 0.35241 0.48129 0.03675 0.0
O834 O 0.3683 0.61149 0.03839 0.0
N835 N 0.25186 0.41561 0.03367 0.0
C836 C 0.2318 0.35078 0.04928 0.0
C837 C 0.23878 0.19814 0.05001 0.0
C838 C 0.26809 0.2981 0.02377 0.0
N839 N 0.26265 0.16699 0.03444 0.0
C840 C 0.24324 0.65172 0.07875 0.0
C841 C 0.30036 0.58683 0.10445 0.0
C842 C 0.27057 0.64379 0.11473 0.0
C843 C 0.24146 0.67336 0.10159 0.0
C844 C 0.30113 0.56764 0.08162 0.0
N845 N 0.27294 0.601 0.06885 0.0
H846 H 0.22088 0.68075 0.06891 0.0
H847 H 0.32516 0.53112 0.07459 0.0
H848 H 0.2165 0.41065 0.0613 0.0
H849 H 0.28832 0.31281 0.0116 0.0
O850 O 0.23433 0.72439 0.03001 0.0
O851 O 0.27128 0.64363 0.00485 0.0
O852 O 0.31947 0.47565 0.03667 0.0
C853 C 0.24478 0.72887 0.0097 0.0
H854 H 0.31403 0.07318 0.004 0.0
H855 H 0.22978 0.12071 0.06255 0.0
H856 H 0.32333 0.55935 0.11391 0.0
H857 H 0.21789 0.71841 0.10872 0.0
Co858 Co 0.94889 0.60718 0.21707 0.0
C859 C 0.94223 0.91758 0.20649 0.0
C860 C 0.90683 0.85636 0.23209 0.0
C861 C 0.91697 1.00422 0.23536 0.0
N862 N 0.9245 0.79832 0.21478 0.0
N863 N 0.93976 0.0406 0.21943 0.0
H864 H 0.96201 0.90583 0.19407 0.0
H865 H 0.89335 0.78878 0.24423 0.0
C866 C 0.87252 0.48126 0.21682 0.0
O867 O 0.85663 0.61143 0.21512 0.0
N868 N 0.97308 0.41549 0.21992 0.0
C869 C -0.00686 0.35066 0.20432 0.0
C870 C 0.98616 0.19801 0.20359 0.0
C871 C 0.95684 0.29797 0.22981 0.0
N872 N 0.96229 0.16687 0.21915 0.0
C873 C 0.98169 0.65161 0.17484 0.0
C874 C 0.92459 0.58651 0.14914 0.0
C875 C 0.95437 0.64362 0.13885 0.0
C876 C 0.98347 0.67328 0.152 0.0
C877 C 0.92382 0.56729 0.17196 0.0
N878 N 0.952 0.60081 0.18474 0.0
H879 H 0.00404 0.68071 0.18467 0.0
H880 H 0.8998 0.5306 0.17899 0.0
H881 H 0.00844 0.41052 0.1923 0.0
H882 H 0.93661 0.31268 0.24198 0.0
O883 O -0.00938 0.72423 0.22356 0.0
O884 O 0.95366 0.64359 0.24874 0.0
O885 O 0.90546 0.4756 0.21694 0.0
C886 C 0.98017 0.72879 0.24387 0.0
H887 H 0.91091 0.07303 0.24959 0.0
H888 H -0.00483 0.12058 0.19104 0.0
H889 H 0.90163 0.55892 0.13967 0.0
H890 H 0.00703 0.71842 0.14487 0.0
Co891 Co 0.2761 0.71127 0.21711 0.0
C892 C 0.28272 0.40086 0.20652 0.0
C893 C 0.31816 0.46217 0.2321 0.0
C894 C 0.308 0.31438 0.2354 0.0
N895 N 0.30047 0.52013 0.21479 0.0
N896 N 0.2852 0.27792 0.21947 0.0
H897 H 0.26295 0.41253 0.1941 0.0
H898 H 0.33167 0.52982 0.24422 0.0
C899 C 0.3525 0.83685 0.21676 0.0
O900 O 0.36836 0.70678 0.21473 0.0
N901 N 0.25193 0.90297 0.21998 0.0
C902 C 0.23183 0.96775 0.20438 0.0
C903 C 0.23879 0.12042 0.20365 0.0
C904 C 0.26817 1.0205 0.22986 0.0
N905 N 0.26268 0.1516 0.2192 0.0
C906 C 0.24332 0.66661 0.17487 0.0
C907 C 0.30027 0.73364 0.14915 0.0
C908 C 0.27056 0.6757 0.13887 0.0
C909 C 0.24153 0.64514 0.15203 0.0
C910 C 0.30106 0.75267 0.17198 0.0
N911 N 0.27297 0.71798 0.18477 0.0
H912 H 0.22102 0.63692 0.18471 0.0
H913 H 0.325 0.79034 0.17899 0.0
H914 H 0.21653 0.90781 0.19236 0.0
H915 H 0.28841 1.00585 0.24202 0.0
O916 O 0.23435 0.5943 0.22357 0.0
O917 O 0.27131 0.67463 0.24877 0.0
O918 O 0.31957 0.84258 0.21705 0.0
C919 C 0.2448 0.58954 0.24388 0.0
H920 H 0.31406 0.24565 0.24964 0.0
H921 H 0.22975 0.19783 0.19111 0.0
H922 H 0.32315 0.76207 0.13967 0.0
H923 H 0.21802 0.59944 0.14491 0.0
Co924 Co 0.02611 0.35699 0.96715 0.0
C925 C 0.03273 0.66742 0.95656 0.0
C926 C 0.06817 0.60602 0.98213 0.0
C927 C 0.05799 0.75378 0.98545 0.0
N928 N 0.05047 0.54812 0.96482 0.0
N929 N 0.03519 0.7903 0.96952 0.0
H930 H 0.01295 0.6558 0.94413 0.0
H931 H 0.08169 0.53834 0.99424 0.0
C932 C 0.10254 0.23161 0.96672 0.0
O933 O 0.11837 0.36159 0.96449 0.0
N934 N 0.00195 0.1653 0.97002 0.0
C935 C 0.98184 0.10056 0.95443 0.0
C936 C -0.01121 0.94788 0.9537 0.0
C937 C 0.01819 0.04776 0.9799 0.0
N938 N 0.01268 0.91666 0.96925 0.0
C939 C -0.00663 0.40185 0.92491 0.0
C940 C 0.05023 0.33378 0.89917 0.0
C941 C 0.02058 0.39225 0.8889 0.0
C942 C -0.00842 0.4233 0.90206 0.0
C943 C 0.05102 0.31478 0.92201 0.0
N944 N 0.02298 0.35013 0.93481 0.0
H945 H 0.97109 0.43186 0.93474 0.0
H946 H 0.07492 0.27647 0.92901 0.0
H947 H 0.96656 0.16055 0.94241 0.0
H948 H 0.03844 0.06238 0.99206 0.0
O949 O 0.98435 0.47394 0.97359 0.0
O950 O 0.02131 0.39374 0.9988 0.0
O951 O 0.06961 0.22584 0.96714 0.0
C952 C -0.00521 0.47878 0.9939 0.0
H953 H 0.06404 0.82245 0.9997 0.0
H954 H 0.97975 0.87047 0.94117 0.0
H955 H 0.07309 0.30488 0.88969 0.0
H956 H 0.9681 0.46934 0.89494 0.0
Co957 Co 0.69891 0.46107 0.96703 0.0
C958 C 0.69224 0.15068 0.95646 0.0
C959 C 0.65684 0.21186 0.98206 0.0
C960 C 0.66697 0.06396 0.98532 0.0
N961 N 0.67451 0.26993 0.96475 0.0
N962 N 0.68976 1.02762 0.96938 0.0
H963 H 0.71201 0.16246 0.94403 0.0
H964 H 0.64338 0.27941 0.99421 0.0
C965 C 0.62256 0.5872 0.96685 0.0
O966 O 0.60665 0.45697 0.96534 0.0
N967 N 0.7231 0.65275 0.96988 0.0
C968 C 0.74316 0.7176 0.95427 0.0
C969 C 0.73617 0.87024 0.95354 0.0
C970 C 0.70686 0.77026 0.97977 0.0
N971 N 0.7123 0.90137 0.9691 0.0
C972 C 0.73174 0.41677 0.9248 0.0
C973 C 0.67457 0.48092 0.89911 0.0
C974 C 0.70439 0.4243 0.88882 0.0
C975 C 0.73352 0.39508 0.90196 0.0
C976 C 0.67379 0.50018 0.92193 0.0
N977 N 0.70202 0.46726 0.9347 0.0
H978 H 0.75411 0.38797 0.93464 0.0
H979 H 0.64973 0.5363 0.92897 0.0
H980 H 0.75847 0.65777 0.94225 0.0
H981 H 0.68664 0.75554 0.99194 0.0
O982 O 0.74062 0.34397 0.97354 0.0
O983 O 0.70366 0.42479 0.9987 0.0
O984 O 0.65549 0.59281 0.96685 0.0
C985 C 0.73016 0.33952 0.99385 0.0
H986 H 0.66091 0.99511 0.99954 0.0
H987 H 0.74517 0.94767 0.94099 0.0
H988 H 0.65158 0.50808 0.88965 0.0
H989 H 0.75711 0.35025 0.89483 0.0
Co990 Co 0.02608 0.46108 0.78656 0.0
C991 C 0.03275 0.15069 0.79713 0.0
C992 C 0.06814 0.21184 0.77153 0.0
C993 C 0.05803 0.06393 0.76828 0.0
N994 N 0.05047 0.26994 0.78884 0.0
N995 N 0.03523 1.02761 0.78421 0.0
H996 H 0.01297 0.16249 0.80956 0.0
H997 H 0.08159 0.27937 0.75937 0.0
C998 C 0.10241 0.58727 0.78672 0.0
O999 O 0.11833 0.45702 0.78815 0.0
N1000 N 0.00188 0.65277 0.78372 0.0
C1001 C 0.98182 0.71764 0.79933 0.0
C1002 C -0.01118 0.87027 0.80006 0.0
C1003 C 0.01812 0.77028 0.77382 0.0
N1004 N 0.01269 0.90138 0.78449 0.0
C1005 C -0.00676 0.41686 0.82879 0.0
C1006 C 0.05044 0.48065 0.85448 0.0
C1007 C 0.0206 0.42418 0.86477 0.0
C1008 C -0.00854 0.39514 0.85163 0.0
C1009 C 0.05121 0.49993 0.83165 0.0
N1010 N 0.02297 0.46724 0.81889 0.0
H1011 H 0.97086 0.38817 0.81895 0.0
H1012 H 0.07529 0.53586 0.82461 0.0
H1013 H 0.96651 0.65783 0.81135 0.0
H1014 H 0.03834 0.75554 0.76165 0.0
O1015 O 0.98437 0.34399 0.78005 0.0
O1016 O 0.02133 0.42481 0.75489 0.0
O1017 O 0.06948 0.59287 0.78676 0.0
C1018 C -0.00517 0.33954 0.75974 0.0
H1019 H 0.06408 0.99506 0.75405 0.0
H1020 H 0.97982 0.94771 0.8126 0.0
H1021 H 0.07344 0.50764 0.86394 0.0
H1022 H 0.96786 0.35042 0.85876 0.0
Co1023 Co 0.69888 0.35702 0.78644 0.0
C1024 C 0.69226 0.66745 0.79703 0.0
C1025 C 0.65682 0.60609 0.77146 0.0
C1026 C 0.66699 0.75386 0.76815 0.0
N1027 N 0.67452 0.54816 0.78877 0.0
N1028 N 0.68979 0.79035 0.78407 0.0
H1029 H 0.71204 0.6558 0.80946 0.0
H1030 H 0.6433 0.53842 0.75935 0.0
C1031 C 0.62246 0.23158 0.78684 0.0
O1032 O 0.60662 0.36159 0.789 0.0
N1033 N 0.72305 0.16532 0.78357 0.0
C1034 C 0.74315 0.10056 0.79916 0.0
C1035 C 0.73619 0.94789 0.79989 0.0
C1036 C 0.7068 0.04779 0.77369 0.0
N1037 N 0.7123 0.91669 0.78434 0.0
C1038 C 0.73163 0.40181 0.82868 0.0
C1039 C 0.67474 0.33408 0.85441 0.0
C1040 C 0.70441 0.39238 0.86468 0.0
C1041 C 0.73342 0.42326 0.85152 0.0
C1042 C 0.67396 0.31507 0.83158 0.0
N1043 N 0.70201 0.35021 0.81878 0.0
H1044 H 0.75392 0.43172 0.81885 0.0
H1045 H 0.65004 0.27697 0.82457 0.0
H1046 H 0.75844 0.16053 0.81118 0.0
H1047 H 0.68656 0.06243 0.76153 0.0
O1048 O 0.74064 0.47398 0.77999 0.0
O1049 O 0.70368 0.39374 0.75479 0.0
O1050 O 0.65539 0.22582 0.78647 0.0
C1051 C 0.73019 0.47879 0.75968 0.0
H1052 H 0.66094 0.82255 0.7539 0.0
H1053 H 0.74524 0.87048 0.81243 0.0
H1054 H 0.65188 0.30533 0.86389 0.0
H1055 H 0.75691 0.46919 0.85865 0.0
loop_
_geom_bond_atom_site_label_1
_geom_bond_atom_site_label_2
_geom_bond_distance
_geom_bond_site_symmetry_2
_ccdc_geom_bond_type
Co0 N4 2.148 1_545 S
Co0 N10 2.128 . S
Co0 N20 2.194 . S
Co0 O25 2.351 . S
Co0 O26 2.115 1_554 S
Co0 O27 2.096 . S
C1 N4 1.301 . S
C1 N5 1.328 . S
C1 H6 0.930 . S
C2 C3 1.333 . S
C2 N4 1.317 . S
C2 H7 0.930 1_565 S
C3 C2 1.333 . S
C3 N5 1.350 . S
C3 H29 0.931 . S
N4 Co0 2.148 1_565 S
N4 C1 1.301 . S
N4 C2 1.317 . S
N5 C1 1.328 . S
N5 C3 1.350 . S
H6 C1 0.930 . S
H7 C2 0.930 1_545 S
C8 O9 1.224 . S
C8 O27 1.247 . S
O9 C8 1.224 . S
N10 Co0 2.128 . S
N10 C11 1.355 . S
N10 C13 1.311 . S
C11 N10 1.355 . S
C11 C12 1.363 . S
C11 H23 0.929 . S
C12 C11 1.363 . S
C12 N14 1.375 . S
C12 H30 0.931 . S
C13 N10 1.311 . S
C13 N14 1.347 . S
C13 H24 0.929 . S
N14 C12 1.375 . S
N14 C13 1.347 . S
C15 C18 1.365 . S
C15 N20 1.328 . S
C15 H21 0.929 . S
C16 C17 1.362 . S
C16 C19 1.378 . S
C16 H31 0.929 . S
C17 C16 1.362 . S
C17 C18 1.366 . S
C18 C15 1.365 . S
C18 C17 1.366 . S
C18 H32 0.930 . S
C19 C16 1.378 . S
C19 N20 1.315 . S
C19 H22 0.930 . S
N20 Co0 2.194 . S
N20 C15 1.328 . S
N20 C19 1.315 . S
H21 C15 0.929 . S
H22 C19 0.930 . S
H23 C11 0.929 . S
H24 C13 0.929 . S
O25 Co0 2.351 . S
O25 C28 1.244 . S
O26 Co0 2.115 1_556 S
O26 C28 1.227 1_556 S
O27 Co0 2.096 . S
O27 C8 1.247 . S
C28 O25 1.244 . S
C28 O26 1.227 1_554 S
H29 C3 0.931 . S
H30 C12 0.931 . S
H31 C16 0.929 . S
H32 C18 0.930 . S
Co33 N37 2.148 . S
Co33 N43 2.128 1_545 S
Co33 N53 2.194 . S
Co33 O58 2.351 . S
Co33 O59 2.115 1_554 S
Co33 O60 2.096 1_545 S
C34 N37 1.301 . S
C34 N38 1.328 . S
C34 H39 0.930 . S
C35 C36 1.333 . S
C35 N37 1.317 . S
C35 H40 0.930 . S
C36 C35 1.333 . S
C36 N38 1.350 . S
C36 H62 0.931 . S
N37 Co33 2.148 . S
N37 C34 1.301 . S
N37 C35 1.317 . S
N38 C34 1.328 . S
N38 C36 1.350 . S
H39 C34 0.930 . S
H40 C35 0.930 . S
C41 O42 1.224 . S
C41 O60 1.247 . S
O42 C41 1.224 . S
N43 Co33 2.128 1_565 S
N43 C44 1.355 . S
N43 C46 1.311 . S
C44 N43 1.355 . S
C44 C45 1.363 . S
C44 H56 0.929 . S
C45 C44 1.363 . S
C45 N47 1.375 . S
C45 H63 0.931 . S
C46 N43 1.311 . S
C46 N47 1.347 . S
C46 H57 0.929 . S
N47 C45 1.375 . S
N47 C46 1.347 . S
C48 C51 1.365 . S
C48 N53 1.328 . S
C48 H54 0.929 . S
C49 C50 1.362 . S
C49 C52 1.378 . S
C49 H64 0.929 . S
C50 C49 1.362 . S
C50 C51 1.366 . S
C51 C48 1.365 . S
C51 C50 1.366 . S
C51 H65 0.930 . S
C52 C49 1.378 . S
C52 N53 1.315 . S
C52 H55 0.930 . S
N53 Co33 2.194 . S
N53 C48 1.328 . S
N53 C52 1.315 . S
H54 C48 0.929 . S
H55 C52 0.930 . S
H56 C44 0.929 . S
H57 C46 0.929 . S
O58 Co33 2.351 . S
O58 C61 1.244 . S
O59 Co33 2.115 1_556 S
O59 C61 1.227 1_556 S
O60 Co33 2.096 1_565 S
O60 C41 1.247 . S
C61 O58 1.244 . S
C61 O59 1.227 1_554 S
H62 C36 0.931 . S
H63 C45 0.931 . S
H64 C49 0.929 . S
H65 C51 0.930 . S
Co66 N70 2.148 . S
Co66 N76 2.128 1_545 S
Co66 N86 2.194 . S
Co66 O91 2.351 . S
Co66 O92 2.155 . S
Co66 O93 2.096 1_545 S
C67 N70 1.301 . S
C67 N71 1.328 . S
C67 H72 0.930 . S
C68 C69 1.333 . S
C68 N70 1.317 . S
C68 H73 0.930 . S
C69 C68 1.333 . S
C69 N71 1.350 . S
C69 H95 0.931 . S
N70 Co66 2.148 . S
N70 C67 1.301 . S
N70 C68 1.317 . S
N71 C67 1.328 . S
N71 C69 1.350 . S
H72 C67 0.930 . S
H73 C68 0.930 . S
C74 O75 1.224 . S
C74 O93 1.247 . S
O75 C74 1.224 . S
N76 Co66 2.128 1_565 S
N76 C77 1.355 . S
N76 C79 1.311 . S
C77 N76 1.355 . S
C77 C78 1.363 . S
C77 H89 0.929 . S
C78 C77 1.363 . S
C78 N80 1.375 . S
C78 H96 0.931 . S
C79 N76 1.311 . S
C79 N80 1.347 . S
C79 H90 0.929 . S
N80 C78 1.375 . S
N80 C79 1.347 . S
C81 C84 1.365 . S
C81 N86 1.328 . S
C81 H87 0.929 . S
C82 C83 1.362 . S
C82 C85 1.378 . S
C82 H97 0.929 . S
C83 C82 1.362 . S
C83 C84 1.366 . S
C84 C81 1.365 . S
C84 C83 1.366 . S
C84 H98 0.930 . S
C85 C82 1.378 . S
C85 N86 1.315 . S
C85 H88 0.930 . S
N86 Co66 2.194 . S
N86 C81 1.328 . S
N86 C85 1.315 . S
H87 C81 0.929 . S
H88 C85 0.930 . S
H89 C77 0.929 . S
H90 C79 0.929 . S
O91 Co66 2.351 . S
O91 C94 1.244 . S
O92 Co66 2.155 . S
O92 C94 1.240 . S
O93 Co66 2.096 1_565 S
O93 C74 1.247 . S
C94 O91 1.244 . S
C94 O92 1.240 . S
H95 C69 0.931 . S
H96 C78 0.931 . S
H97 C82 0.929 . S
H98 C84 0.930 . S
Co99 N103 2.148 1_545 S
Co99 N109 2.128 . S
Co99 N119 2.194 . S
Co99 O124 2.351 . S
Co99 O125 2.155 . S
Co99 O126 2.096 . S
C100 N103 1.301 . S
C100 N104 1.328 . S
C100 H105 0.930 . S
C101 C102 1.333 . S
C101 N103 1.317 . S
C101 H106 0.930 1_565 S
C102 C101 1.333 . S
C102 N104 1.350 . S
C102 H128 0.931 . S
N103 Co99 2.148 1_565 S
N103 C100 1.301 . S
N103 C101 1.317 . S
N104 C100 1.328 . S
N104 C102 1.350 . S
H105 C100 0.930 . S
H106 C101 0.930 1_545 S
C107 O108 1.224 . S
C107 O126 1.247 . S
O108 C107 1.224 . S
N109 Co99 2.128 . S
N109 C110 1.355 . S
N109 C112 1.311 . S
C110 N109 1.355 . S
C110 C111 1.363 . S
C110 H122 0.929 . S
C111 C110 1.363 . S
C111 N113 1.375 . S
C111 H129 0.931 . S
C112 N109 1.311 . S
C112 N113 1.347 . S
C112 H123 0.929 . S
N113 C111 1.375 . S
N113 C112 1.347 . S
C114 C117 1.365 . S
C114 N119 1.328 . S
C114 H120 0.929 . S
C115 C116 1.362 . S
C115 C118 1.378 . S
C115 H130 0.929 . S
C116 C115 1.362 . S
C116 C117 1.366 . S
C117 C114 1.365 . S
C117 C116 1.366 . S
C117 H131 0.930 . S
C118 C115 1.378 . S
C118 N119 1.315 . S
C118 H121 0.930 . S
N119 Co99 2.194 . S
N119 C114 1.328 . S
N119 C118 1.315 . S
H120 C114 0.929 . S
H121 C118 0.930 . S
H122 C110 0.929 . S
H123 C112 0.929 . S
O124 Co99 2.351 . S
O124 C127 1.244 . S
O125 Co99 2.155 . S
O125 C127 1.240 . S
O126 Co99 2.096 . S
O126 C107 1.247 . S
C127 O124 1.244 . S
C127 O125 1.240 . S
H128 C102 0.931 . S
H129 C111 0.931 . S
H130 C115 0.929 . S
H131 C117 0.930 . S
Co132 N136 2.148 1_565 S
Co132 N142 2.128 . S
Co132 N152 2.194 . S
Co132 O157 2.351 . S
Co132 O158 2.115 1_556 S
Co132 O159 2.096 . S
C133 N136 1.301 . S
C133 N137 1.328 . S
C133 H138 0.930 . S
C134 C135 1.333 . S
C134 N136 1.317 . S
C134 H139 0.930 1_545 S
C135 C134 1.333 . S
C135 N137 1.350 . S
C135 H161 0.931 . S
N136 Co132 2.148 1_545 S
N136 C133 1.301 . S
N136 C134 1.317 . S
N137 C133 1.328 . S
N137 C135 1.350 . S
H138 C133 0.930 . S
H139 C134 0.930 1_565 S
C140 O141 1.224 . S
C140 O159 1.247 . S
O141 C140 1.224 . S
N142 Co132 2.128 . S
N142 C143 1.355 . S
N142 C145 1.311 . S
C143 N142 1.355 . S
C143 C144 1.363 . S
C143 H155 0.929 . S
C144 C143 1.363 . S
C144 N146 1.375 . S
C144 H162 0.931 . S
C145 N142 1.311 . S
C145 N146 1.347 . S
C145 H156 0.929 . S
N146 C144 1.375 . S
N146 C145 1.347 . S
C147 C150 1.365 . S
C147 N152 1.328 . S
C147 H153 0.929 . S
C148 C149 1.362 . S
C148 C151 1.378 . S
C148 H163 0.929 . S
C149 C148 1.362 . S
C149 C150 1.366 . S
C150 C147 1.365 . S
C150 C149 1.366 . S
C150 H164 0.930 . S
C151 C148 1.378 . S
C151 N152 1.315 . S
C151 H154 0.930 . S
N152 Co132 2.194 . S
N152 C147 1.328 . S
N152 C151 1.315 . S
H153 C147 0.929 . S
H154 C151 0.930 . S
H155 C143 0.929 . S
H156 C145 0.929 . S
O157 Co132 2.351 . S
O157 C160 1.244 . S
O158 Co132 2.115 1_554 S
O158 C160 1.227 1_554 S
O159 Co132 2.096 . S
O159 C140 1.247 . S
C160 O157 1.244 . S
C160 O158 1.227 1_556 S
H161 C135 0.931 . S
H162 C144 0.931 . S
H163 C148 0.929 . S
H164 C150 0.930 . S
Co165 N169 2.148 . S
Co165 N175 2.128 1_565 S
Co165 N185 2.194 . S
Co165 O190 2.351 . S
Co165 O191 2.115 1_556 S
Co165 O192 2.096 1_565 S
C166 N169 1.301 . S
C166 N170 1.328 . S
C166 H171 0.930 . S
C167 C168 1.333 . S
C167 N169 1.317 . S
C167 H172 0.930 . S
C168 C167 1.333 . S
C168 N170 1.350 . S
C168 H194 0.931 . S
N169 Co165 2.148 . S
N169 C166 1.301 . S
N169 C167 1.317 . S
N170 C166 1.328 . S
N170 C168 1.350 . S
H171 C166 0.930 . S
H172 C167 0.930 . S
C173 O174 1.224 . S
C173 O192 1.247 . S
O174 C173 1.224 . S
N175 Co165 2.128 1_545 S
N175 C176 1.355 . S
N175 C178 1.311 . S
C176 N175 1.355 . S
C176 C177 1.363 . S
C176 H188 0.929 . S
C177 C176 1.363 . S
C177 N179 1.375 . S
C177 H195 0.931 . S
C178 N175 1.311 . S
C178 N179 1.347 . S
C178 H189 0.929 . S
N179 C177 1.375 . S
N179 C178 1.347 . S
C180 C183 1.365 . S
C180 N185 1.328 . S
C180 H186 0.929 . S
C181 C182 1.362 . S
C181 C184 1.378 . S
C181 H196 0.929 . S
C182 C181 1.362 . S
C182 C183 1.366 . S
C183 C180 1.365 . S
C183 C182 1.366 . S
C183 H197 0.930 . S
C184 C181 1.378 . S
C184 N185 1.315 . S
C184 H187 0.930 . S
N185 Co165 2.194 . S
N185 C180 1.328 . S
N185 C184 1.315 . S
H186 C180 0.929 . S
H187 C184 0.930 . S
H188 C176 0.929 . S
H189 C178 0.929 . S
O190 Co165 2.351 . S
O190 C193 1.244 . S
O191 Co165 2.115 1_554 S
O191 C193 1.227 1_554 S
O192 Co165 2.096 1_545 S
O192 C173 1.247 . S
C193 O190 1.244 . S
C193 O191 1.227 1_556 S
H194 C168 0.931 . S
H195 C177 0.931 . S
H196 C181 0.929 . S
H197 C183 0.930 . S
Co198 N202 2.148 . S
Co198 N208 2.128 1_565 S
Co198 N218 2.194 . S
Co198 O223 2.351 . S
Co198 O224 2.155 . S
Co198 O225 2.096 1_565 S
C199 N202 1.301 . S
C199 N203 1.328 . S
C199 H204 0.930 . S
C200 C201 1.333 . S
C200 N202 1.317 . S
C200 H205 0.930 . S
C201 C200 1.333 . S
C201 N203 1.350 . S
C201 H227 0.931 . S
N202 Co198 2.148 . S
N202 C199 1.301 . S
N202 C200 1.317 . S
N203 C199 1.328 . S
N203 C201 1.350 . S
H204 C199 0.930 . S
H205 C200 0.930 . S
C206 O207 1.224 . S
C206 O225 1.247 . S
O207 C206 1.224 . S
N208 Co198 2.128 1_545 S
N208 C209 1.355 . S
N208 C211 1.311 . S
C209 N208 1.355 . S
C209 C210 1.363 . S
C209 H221 0.929 . S
C210 C209 1.363 . S
C210 N212 1.375 . S
C210 H228 0.931 . S
C211 N208 1.311 . S
C211 N212 1.347 . S
C211 H222 0.929 . S
N212 C210 1.375 . S
N212 C211 1.347 . S
C213 C216 1.365 . S
C213 N218 1.328 . S
C213 H219 0.929 . S
C214 C215 1.362 . S
C214 C217 1.378 . S
C214 H229 0.929 . S
C215 C214 1.362 . S
C215 C216 1.366 . S
C216 C213 1.365 . S
C216 C215 1.366 . S
C216 H230 0.930 . S
C217 C214 1.378 . S
C217 N218 1.315 . S
C217 H220 0.930 . S
N218 Co198 2.194 . S
N218 C213 1.328 . S
N218 C217 1.315 . S
H219 C213 0.929 . S
H220 C217 0.930 . S
H221 C209 0.929 . S
H222 C211 0.929 . S
O223 Co198 2.351 . S
O223 C226 1.244 . S
O224 Co198 2.155 . S
O224 C226 1.240 . S
O225 Co198 2.096 1_545 S
O225 C206 1.247 . S
C226 O223 1.244 . S
C226 O224 1.240 . S
H227 C201 0.931 . S
H228 C210 0.931 . S
H229 C214 0.929 . S
H230 C216 0.930 . S
Co231 N235 2.148 1_565 S
Co231 N241 2.128 . S
Co231 N251 2.194 . S
Co231 O256 2.351 . S
Co231 O257 2.155 . S
Co231 O258 2.096 . S
C232 N235 1.301 . S
C232 N236 1.328 . S
C232 H237 0.930 . S
C233 C234 1.333 . S
C233 N235 1.317 . S
C233 H238 0.930 1_545 S
C234 C233 1.333 . S
C234 N236 1.350 . S
C234 H260 0.931 . S
N235 Co231 2.148 1_545 S
N235 C232 1.301 . S
N235 C233 1.317 . S
N236 C232 1.328 . S
N236 C234 1.350 . S
H237 C232 0.930 . S
H238 C233 0.930 1_565 S
C239 O240 1.224 . S
C239 O258 1.247 . S
O240 C239 1.224 . S
N241 Co231 2.128 . S
N241 C242 1.355 . S
N241 C244 1.311 . S
C242 N241 1.355 . S
C242 C243 1.363 . S
C242 H254 0.929 . S
C243 C242 1.363 . S
C243 N245 1.375 . S
C243 H261 0.931 . S
C244 N241 1.311 . S
C244 N245 1.347 . S
C244 H255 0.929 . S
N245 C243 1.375 . S
N245 C244 1.347 . S
C246 C249 1.365 . S
C246 N251 1.328 . S
C246 H252 0.929 . S
C247 C248 1.362 . S
C247 C250 1.378 . S
C247 H262 0.929 . S
C248 C247 1.362 . S
C248 C249 1.366 . S
C249 C246 1.365 . S
C249 C248 1.366 . S
C249 H263 0.930 . S
C250 C247 1.378 . S
C250 N251 1.315 . S
C250 H253 0.930 . S
N251 Co231 2.194 . S
N251 C246 1.328 . S
N251 C250 1.315 . S
H252 C246 0.929 . S
H253 C250 0.930 . S
H254 C242 0.929 . S
H255 C244 0.929 . S
O256 Co231 2.351 . S
O256 C259 1.244 . S
O257 Co231 2.155 . S
O257 C259 1.240 . S
O258 Co231 2.096 . S
O258 C239 1.247 . S
C259 O256 1.244 . S
C259 O257 1.240 . S
H260 C234 0.931 . S
H261 C243 0.931 . S
H262 C247 0.929 . S
H263 C249 0.930 . S
Co264 N268 2.148 . S
Co264 N274 2.128 . S
Co264 N284 2.194 . S
Co264 O289 2.351 . S
Co264 O290 2.155 . S
Co264 O291 2.096 . S
C265 N268 1.301 . S
C265 N269 1.328 . S
C265 H270 0.930 . S
C266 C267 1.333 . S
C266 N268 1.317 . S
C266 H271 0.930 . S
C267 C266 1.333 . S
C267 N269 1.350 . S
C267 H293 0.931 . S
N268 Co264 2.148 . S
N268 C265 1.301 . S
N268 C266 1.317 . S
N269 C265 1.328 . S
N269 C267 1.350 . S
H270 C265 0.930 . S
H271 C266 0.930 . S
C272 O273 1.224 . S
C272 O291 1.247 . S
O273 C272 1.224 . S
N274 Co264 2.128 . S
N274 C275 1.355 . S
N274 C277 1.311 1_565 S
C275 N274 1.355 . S
C275 C276 1.363 1_565 S
C275 H287 0.929 . S
C276 C275 1.363 1_545 S
C276 N278 1.375 . S
C276 H294 0.931 . S
C277 N274 1.311 1_545 S
C277 N278 1.347 . S
C277 H288 0.929 . S
N278 C276 1.375 . S
N278 C277 1.347 . S
C279 C282 1.365 . S
C279 N284 1.328 . S
C279 H285 0.929 . S
C280 C281 1.362 . S
C280 C283 1.378 . S
C280 H295 0.929 . S
C281 C280 1.362 . S
C281 C282 1.366 . S
C282 C279 1.365 . S
C282 C281 1.366 . S
C282 H296 0.930 . S
C283 C280 1.378 . S
C283 N284 1.315 . S
C283 H286 0.930 . S
N284 Co264 2.194 . S
N284 C279 1.328 . S
N284 C283 1.315 . S
H285 C279 0.929 . S
H286 C283 0.930 . S
H287 C275 0.929 . S
H288 C277 0.929 . S
O289 Co264 2.351 . S
O289 C292 1.244 . S
O290 Co264 2.155 . S
O290 C292 1.240 . S
O291 Co264 2.096 . S
O291 C272 1.247 . S
C292 O289 1.244 . S
C292 O290 1.240 . S
H293 C267 0.931 . S
H294 C276 0.931 . S
H295 C280 0.929 . S
H296 C282 0.930 . S
Co297 N301 2.148 . S
Co297 N307 2.128 . S
Co297 N317 2.194 . S
Co297 O322 2.351 . S
Co297 O323 2.155 . S
Co297 O324 2.096 . S
C298 N301 1.301 . S
C298 N302 1.328 1_565 S
C298 H303 0.930 . S
C299 C300 1.333 . S
C299 N301 1.317 . S
C299 H304 0.930 . S
C300 C299 1.333 . S
C300 N302 1.350 1_565 S
C300 H326 0.933 . S
N301 Co297 2.148 . S
N301 C298 1.301 . S
N301 C299 1.317 . S
N302 C298 1.328 1_545 S
N302 C300 1.350 1_545 S
H303 C298 0.930 . S
H304 C299 0.930 . S
C305 O306 1.224 . S
C305 O324 1.247 . S
O306 C305 1.224 . S
N307 Co297 2.128 . S
N307 C308 1.355 . S
N307 C310 1.311 . S
C308 N307 1.355 . S
C308 C309 1.363 . S
C308 H320 0.929 . S
C309 C308 1.363 . S
C309 N311 1.375 . S
C309 H327 0.931 . S
C310 N307 1.311 . S
C310 N311 1.347 . S
C310 H321 0.929 . S
N311 C309 1.375 . S
N311 C310 1.347 . S
C312 C315 1.365 . S
C312 N317 1.328 . S
C312 H318 0.929 . S
C313 C314 1.362 . S
C313 C316 1.378 . S
C313 H328 0.929 . S
C314 C313 1.362 . S
C314 C315 1.366 . S
C315 C312 1.365 . S
C315 C314 1.366 . S
C315 H329 0.930 . S
C316 C313 1.378 . S
C316 N317 1.315 . S
C316 H319 0.930 . S
N317 Co297 2.194 . S
N317 C312 1.328 . S
N317 C316 1.315 . S
H318 C312 0.929 . S
H319 C316 0.930 . S
H320 C308 0.929 . S
H321 C310 0.929 . S
O322 Co297 2.351 . S
O322 C325 1.244 . S
O323 Co297 2.155 . S
O323 C325 1.240 . S
O324 Co297 2.096 . S
O324 C305 1.247 . S
C325 O322 1.244 . S
C325 O323 1.240 . S
H326 C300 0.933 . S
H327 C309 0.931 . S
H328 C313 0.929 . S
H329 C315 0.930 . S
Co330 N334 2.148 . S
Co330 N340 2.128 . S
Co330 N350 2.194 . S
Co330 O355 2.351 . S
Co330 O356 2.155 . S
Co330 O357 2.096 . S
C331 N334 1.301 . S
C331 N335 1.328 1_565 S
C331 H336 0.930 . S
C332 C333 1.333 . S
C332 N334 1.317 . S
C332 H337 0.930 . S
C333 C332 1.333 . S
C333 N335 1.350 1_565 S
C333 H359 0.933 . S
N334 Co330 2.148 . S
N334 C331 1.301 . S
N334 C332 1.317 . S
N335 C331 1.328 1_545 S
N335 C333 1.350 1_545 S
H336 C331 0.930 . S
H337 C332 0.930 . S
C338 O339 1.224 . S
C338 O357 1.247 . S
O339 C338 1.224 . S
N340 Co330 2.128 . S
N340 C341 1.355 . S
N340 C343 1.311 . S
C341 N340 1.355 . S
C341 C342 1.363 . S
C341 H353 0.929 . S
C342 C341 1.363 . S
C342 N344 1.375 . S
C342 H360 0.931 . S
C343 N340 1.311 . S
C343 N344 1.347 . S
C343 H354 0.929 . S
N344 C342 1.375 . S
N344 C343 1.347 . S
C345 C348 1.365 . S
C345 N350 1.328 . S
C345 H351 0.929 . S
C346 C347 1.362 . S
C346 C349 1.378 . S
C346 H361 0.929 . S
C347 C346 1.362 . S
C347 C348 1.366 . S
C348 C345 1.365 . S
C348 C347 1.366 . S
C348 H362 0.930 . S
C349 C346 1.378 . S
C349 N350 1.315 . S
C349 H352 0.930 . S
N350 Co330 2.194 . S
N350 C345 1.328 . S
N350 C349 1.315 . S
H351 C345 0.929 . S
H352 C349 0.930 . S
H353 C341 0.929 . S
H354 C343 0.929 . S
O355 Co330 2.351 . S
O355 C358 1.244 . S
O356 Co330 2.155 . S
O356 C358 1.240 . S
O357 Co330 2.096 . S
O357 C338 1.247 . S
C358 O355 1.244 . S
C358 O356 1.240 . S
H359 C333 0.933 . S
H360 C342 0.931 . S
H361 C346 0.929 . S
H362 C348 0.930 . S
Co363 N367 2.148 . S
Co363 N373 2.128 . S
Co363 N383 2.194 . S
Co363 O388 2.351 . S
Co363 O389 2.155 . S
Co363 O390 2.096 . S
C364 N367 1.301 . S
C364 N368 1.328 . S
C364 H369 0.930 . S
C365 C366 1.333 . S
C365 N367 1.317 . S
C365 H370 0.930 . S
C366 C365 1.333 . S
C366 N368 1.350 . S
C366 H392 0.931 . S
N367 Co363 2.148 . S
N367 C364 1.301 . S
N367 C365 1.317 . S
N368 C364 1.328 . S
N368 C366 1.350 . S
H369 C364 0.930 . S
H370 C365 0.930 . S
C371 O372 1.224 . S
C371 O390 1.247 . S
O372 C371 1.224 . S
N373 Co363 2.128 . S
N373 C374 1.355 . S
N373 C376 1.311 1_565 S
C374 N373 1.355 . S
C374 C375 1.363 1_565 S
C374 H386 0.929 . S
C375 C374 1.363 1_545 S
C375 N377 1.375 . S
C375 H393 0.931 . S
C376 N373 1.311 1_545 S
C376 N377 1.347 . S
C376 H387 0.929 . S
N377 C375 1.375 . S
N377 C376 1.347 . S
C378 C381 1.365 . S
C378 N383 1.328 . S
C378 H384 0.929 . S
C379 C380 1.362 . S
C379 C382 1.378 . S
C379 H394 0.929 . S
C380 C379 1.362 . S
C380 C381 1.366 . S
C381 C378 1.365 . S
C381 C380 1.366 . S
C381 H395 0.930 . S
C382 C379 1.378 . S
C382 N383 1.315 . S
C382 H385 0.930 . S
N383 Co363 2.194 . S
N383 C378 1.328 . S
N383 C382 1.315 . S
H384 C378 0.929 . S
H385 C382 0.930 . S
H386 C374 0.929 . S
H387 C376 0.929 . S
O388 Co363 2.351 . S
O388 C391 1.244 . S
O389 Co363 2.155 . S
O389 C391 1.240 . S
O390 Co363 2.096 . S
O390 C371 1.247 . S
C391 O388 1.244 . S
C391 O389 1.240 . S
H392 C366 0.931 . S
H393 C375 0.931 . S
H394 C379 0.929 . S
H395 C381 0.930 . S
Co396 N400 2.148 . S
Co396 N406 2.128 . S
Co396 N416 2.194 . S
Co396 O421 2.351 . S
Co396 O422 2.155 . S
Co396 O423 2.096 . S
C397 N400 1.301 . S
C397 N401 1.328 . S
C397 H402 0.930 . S
C398 C399 1.333 . S
C398 N400 1.317 . S
C398 H403 0.930 . S
C399 C398 1.333 . S
C399 N401 1.350 . S
C399 H425 0.931 . S
N400 Co396 2.148 . S
N400 C397 1.301 . S
N400 C398 1.317 . S
N401 C397 1.328 . S
N401 C399 1.350 . S
H402 C397 0.930 . S
H403 C398 0.930 . S
C404 O405 1.224 . S
C404 O423 1.247 . S
O405 C404 1.224 . S
N406 Co396 2.128 . S
N406 C407 1.355 . S
N406 C409 1.311 1_545 S
C407 N406 1.355 . S
C407 C408 1.363 1_545 S
C407 H419 0.929 . S
C408 C407 1.363 1_565 S
C408 N410 1.375 . S
C408 H426 0.931 . S
C409 N406 1.311 1_565 S
C409 N410 1.347 . S
C409 H420 0.929 . S
N410 C408 1.375 . S
N410 C409 1.347 . S
C411 C414 1.365 . S
C411 N416 1.328 . S
C411 H417 0.929 . S
C412 C413 1.362 . S
C412 C415 1.378 . S
C412 H427 0.929 . S
C413 C412 1.362 . S
C413 C414 1.366 . S
C414 C411 1.365 . S
C414 C413 1.366 . S
C414 H428 0.930 . S
C415 C412 1.378 . S
C415 N416 1.315 . S
C415 H418 0.930 . S
N416 Co396 2.194 . S
N416 C411 1.328 . S
N416 C415 1.315 . S
H417 C411 0.929 . S
H418 C415 0.930 . S
H419 C407 0.929 . S
H420 C409 0.929 . S
O421 Co396 2.351 . S
O421 C424 1.244 . S
O422 Co396 2.155 . S
O422 C424 1.240 . S
O423 Co396 2.096 . S
O423 C404 1.247 . S
C424 O421 1.244 . S
C424 O422 1.240 . S
H425 C399 0.931 . S
H426 C408 0.931 . S
H427 C412 0.929 . S
H428 C414 0.930 . S
Co429 N433 2.148 . S
Co429 N439 2.128 . S
Co429 N449 2.194 . S
Co429 O454 2.351 . S
Co429 O455 2.155 . S
Co429 O456 2.096 . S
C430 N433 1.301 . S
C430 N434 1.328 1_545 S
C430 H435 0.930 . S
C431 C432 1.333 . S
C431 N433 1.317 . S
C431 H436 0.930 . S
C432 C431 1.333 . S
C432 N434 1.350 1_545 S
C432 H458 0.933 . S
N433 Co429 2.148 . S
N433 C430 1.301 . S
N433 C431 1.317 . S
N434 C430 1.328 1_565 S
N434 C432 1.350 1_565 S
H435 C430 0.930 . S
H436 C431 0.930 . S
C437 O438 1.224 . S
C437 O456 1.247 . S
O438 C437 1.224 . S
N439 Co429 2.128 . S
N439 C440 1.355 . S
N439 C442 1.311 . S
C440 N439 1.355 . S
C440 C441 1.363 . S
C440 H452 0.929 . S
C441 C440 1.363 . S
C441 N443 1.375 . S
C441 H459 0.931 . S
C442 N439 1.311 . S
C442 N443 1.347 . S
C442 H453 0.929 . S
N443 C441 1.375 . S
N443 C442 1.347 . S
C444 C447 1.365 . S
C444 N449 1.328 . S
C444 H450 0.929 . S
C445 C446 1.362 . S
C445 C448 1.378 . S
C445 H460 0.929 . S
C446 C445 1.362 . S
C446 C447 1.366 . S
C447 C444 1.365 . S
C447 C446 1.366 . S
C447 H461 0.930 . S
C448 C445 1.378 . S
C448 N449 1.315 . S
C448 H451 0.930 . S
N449 Co429 2.194 . S
N449 C444 1.328 . S
N449 C448 1.315 . S
H450 C444 0.929 . S
H451 C448 0.930 . S
H452 C440 0.929 . S
H453 C442 0.929 . S
O454 Co429 2.351 . S
O454 C457 1.244 . S
O455 Co429 2.155 . S
O455 C457 1.240 . S
O456 Co429 2.096 . S
O456 C437 1.247 . S
C457 O454 1.244 . S
C457 O455 1.240 . S
H458 C432 0.933 . S
H459 C441 0.931 . S
H460 C445 0.929 . S
H461 C447 0.930 . S
Co462 N466 2.148 . S
Co462 N472 2.128 . S
Co462 N482 2.194 . S
Co462 O487 2.351 . S
Co462 O488 2.155 . S
Co462 O489 2.096 . S
C463 N466 1.301 . S
C463 N467 1.328 1_545 S
C463 H468 0.930 . S
C464 C465 1.333 . S
C464 N466 1.317 . S
C464 H469 0.930 . S
C465 C464 1.333 . S
C465 N467 1.350 1_545 S
C465 H491 0.933 . S
N466 Co462 2.148 . S
N466 C463 1.301 . S
N466 C464 1.317 . S
N467 C463 1.328 1_565 S
N467 C465 1.350 1_565 S
H468 C463 0.930 . S
H469 C464 0.930 . S
C470 O471 1.224 . S
C470 O489 1.247 . S
O471 C470 1.224 . S
N472 Co462 2.128 . S
N472 C473 1.355 . S
N472 C475 1.311 . S
C473 N472 1.355 . S
C473 C474 1.363 . S
C473 H485 0.929 . S
C474 C473 1.363 . S
C474 N476 1.375 . S
C474 H492 0.931 . S
C475 N472 1.311 . S
C475 N476 1.347 . S
C475 H486 0.929 . S
N476 C474 1.375 . S
N476 C475 1.347 . S
C477 C480 1.365 . S
C477 N482 1.328 . S
C477 H483 0.929 . S
C478 C479 1.362 . S
C478 C481 1.378 . S
C478 H493 0.929 . S
C479 C478 1.362 . S
C479 C480 1.366 . S
C480 C477 1.365 . S
C480 C479 1.366 . S
C480 H494 0.930 . S
C481 C478 1.378 . S
C481 N482 1.315 . S
C481 H484 0.930 . S
N482 Co462 2.194 . S
N482 C477 1.328 . S
N482 C481 1.315 . S
H483 C477 0.929 . S
H484 C481 0.930 . S
H485 C473 0.929 . S
H486 C475 0.929 . S
O487 Co462 2.351 . S
O487 C490 1.244 . S
O488 Co462 2.155 . S
O488 C490 1.240 . S
O489 Co462 2.096 . S
O489 C470 1.247 . S
C490 O487 1.244 . S
C490 O488 1.240 . S
H491 C465 0.933 . S
H492 C474 0.931 . S
H493 C478 0.929 . S
H494 C480 0.930 . S
Co495 N499 2.148 . S
Co495 N505 2.128 . S
Co495 N515 2.194 . S
Co495 O520 2.351 . S
Co495 O521 2.155 . S
Co495 O522 2.096 . S
C496 N499 1.301 . S
C496 N500 1.328 . S
C496 H501 0.930 . S
C497 C498 1.333 . S
C497 N499 1.317 . S
C497 H502 0.930 . S
C498 C497 1.333 . S
C498 N500 1.350 . S
C498 H524 0.931 . S
N499 Co495 2.148 . S
N499 C496 1.301 . S
N499 C497 1.317 . S
N500 C496 1.328 . S
N500 C498 1.350 . S
H501 C496 0.930 . S
H502 C497 0.930 . S
C503 O504 1.224 . S
C503 O522 1.247 . S
O504 C503 1.224 . S
N505 Co495 2.128 . S
N505 C506 1.355 . S
N505 C508 1.311 1_545 S
C506 N505 1.355 . S
C506 C507 1.363 1_545 S
C506 H518 0.929 . S
C507 C506 1.363 1_565 S
C507 N509 1.375 . S
C507 H525 0.931 . S
C508 N505 1.311 1_565 S
C508 N509 1.347 . S
C508 H519 0.929 . S
N509 C507 1.375 . S
N509 C508 1.347 . S
C510 C513 1.365 . S
C510 N515 1.328 . S
C510 H516 0.929 . S
C511 C512 1.362 . S
C511 C514 1.378 . S
C511 H526 0.929 . S
C512 C511 1.362 . S
C512 C513 1.366 . S
C513 C510 1.365 . S
C513 C512 1.366 . S
C513 H527 0.930 . S
C514 C511 1.378 . S
C514 N515 1.315 . S
C514 H517 0.930 . S
N515 Co495 2.194 . S
N515 C510 1.328 . S
N515 C514 1.315 . S
H516 C510 0.929 . S
H517 C514 0.930 . S
H518 C506 0.929 . S
H519 C508 0.929 . S
O520 Co495 2.351 . S
O520 C523 1.244 . S
O521 Co495 2.155 . S
O521 C523 1.240 . S
O522 Co495 2.096 . S
O522 C503 1.247 . S
C523 O520 1.244 . S
C523 O521 1.240 . S
H524 C498 0.931 . S
H525 C507 0.931 . S
H526 C511 0.929 . S
H527 C513 0.930 . S
Co528 N532 2.148 1_545 S
Co528 N538 2.128 . S
Co528 N548 2.194 . S
Co528 O553 2.351 1_655 S
Co528 O554 2.155 . S
Co528 O555 2.096 . S
C529 N532 1.301 . S
C529 N533 1.328 . S
C529 H534 0.930 . S
C530 C531 1.333 . S
C530 N532 1.317 . S
C530 H535 0.930 1_565 S
C531 C530 1.333 . S
C531 N533 1.350 . S
C531 H557 0.931 . S
N532 Co528 2.148 1_565 S
N532 C529 1.301 . S
N532 C530 1.317 . S
N533 C529 1.328 . S
N533 C531 1.350 . S
H534 C529 0.930 . S
H535 C530 0.930 1_545 S
C536 O537 1.224 . S
C536 O555 1.247 . S
O537 C536 1.224 . S
N538 Co528 2.128 . S
N538 C539 1.355 1_655 S
N538 C541 1.311 . S
C539 N538 1.355 1_455 S
C539 C540 1.363 . S
C539 H551 0.929 . S
C540 C539 1.363 . S
C540 N542 1.375 1_455 S
C540 H558 0.931 . S
C541 N538 1.311 . S
C541 N542 1.347 . S
C541 H552 0.929 . S
N542 C540 1.375 1_655 S
N542 C541 1.347 . S
C543 C546 1.360 1_655 S
C543 N548 1.346 . S
C543 H549 0.917 1_655 S
C544 C545 1.362 . S
C544 C547 1.378 . S
C544 H559 0.929 . S
C545 C544 1.362 . S
C545 C546 1.366 1_655 S
C546 C543 1.360 1_455 S
C546 C545 1.366 1_455 S
C546 H560 0.930 . S
C547 C544 1.378 . S
C547 N548 1.315 . S
C547 H550 0.930 . S
N548 Co528 2.194 . S
N548 C543 1.346 . S
N548 C547 1.315 . S
H549 C543 0.917 1_455 S
H550 C547 0.930 . S
H551 C539 0.929 . S
H552 C541 0.929 . S
O553 Co528 2.351 1_455 S
O553 C556 1.244 . S
O554 Co528 2.155 . S
O554 C556 1.240 1_655 S
O555 Co528 2.096 . S
O555 C536 1.247 . S
C556 O553 1.244 . S
C556 O554 1.240 1_455 S
H557 C531 0.931 . S
H558 C540 0.931 . S
H559 C544 0.929 . S
H560 C546 0.930 . S
Co561 N565 2.148 . S
Co561 N571 2.128 1_545 S
Co561 N581 2.194 . S
Co561 O586 2.351 . S
Co561 O587 2.155 . S
Co561 O588 2.096 1_545 S
C562 N565 1.301 . S
C562 N566 1.328 . S
C562 H567 0.930 . S
C563 C564 1.333 . S
C563 N565 1.317 . S
C563 H568 0.930 . S
C564 C563 1.333 . S
C564 N566 1.350 . S
C564 H590 0.931 . S
N565 Co561 2.148 . S
N565 C562 1.301 . S
N565 C563 1.317 . S
N566 C562 1.328 . S
N566 C564 1.350 . S
H567 C562 0.930 . S
H568 C563 0.930 . S
C569 O570 1.224 . S
C569 O588 1.247 . S
O570 C569 1.224 . S
N571 Co561 2.128 1_565 S
N571 C572 1.355 . S
N571 C574 1.311 . S
C572 N571 1.355 . S
C572 C573 1.363 . S
C572 H584 0.929 . S
C573 C572 1.363 . S
C573 N575 1.375 . S
C573 H591 0.931 . S
C574 N571 1.311 . S
C574 N575 1.347 . S
C574 H585 0.929 . S
N575 C573 1.375 . S
N575 C574 1.347 . S
C576 C579 1.365 . S
C576 N581 1.328 . S
C576 H582 0.929 . S
C577 C578 1.362 . S
C577 C580 1.378 . S
C577 H592 0.929 . S
C578 C577 1.362 . S
C578 C579 1.366 . S
C579 C576 1.365 . S
C579 C578 1.366 . S
C579 H593 0.930 . S
C580 C577 1.378 . S
C580 N581 1.315 . S
C580 H583 0.930 . S
N581 Co561 2.194 . S
N581 C576 1.328 . S
N581 C580 1.315 . S
H582 C576 0.929 . S
H583 C580 0.930 . S
H584 C572 0.929 . S
H585 C574 0.929 . S
O586 Co561 2.351 . S
O586 C589 1.244 . S
O587 Co561 2.155 . S
O587 C589 1.240 . S
O588 Co561 2.096 1_565 S
O588 C569 1.247 . S
C589 O586 1.244 . S
C589 O587 1.240 . S
H590 C564 0.931 . S
H591 C573 0.931 . S
H592 C577 0.929 . S
H593 C579 0.930 . S
Co594 N598 2.148 . S
Co594 N604 2.128 1_545 S
Co594 N614 2.194 . S
Co594 O619 2.351 1_655 S
Co594 O620 2.155 . S
Co594 O621 2.096 1_545 S
C595 N598 1.301 . S
C595 N599 1.328 . S
C595 H600 0.930 . S
C596 C597 1.333 . S
C596 N598 1.317 . S
C596 H601 0.930 . S
C597 C596 1.333 . S
C597 N599 1.350 . S
C597 H623 0.931 . S
N598 Co594 2.148 . S
N598 C595 1.301 . S
N598 C596 1.317 . S
N599 C595 1.328 . S
N599 C597 1.350 . S
H600 C595 0.930 . S
H601 C596 0.930 . S
C602 O603 1.224 . S
C602 O621 1.247 . S
O603 C602 1.224 . S
N604 Co594 2.128 1_565 S
N604 C605 1.355 1_655 S
N604 C607 1.311 . S
C605 N604 1.355 1_455 S
C605 C606 1.363 . S
C605 H617 0.929 . S
C606 C605 1.363 . S
C606 N608 1.375 1_455 S
C606 H624 0.931 . S
C607 N604 1.311 . S
C607 N608 1.347 . S
C607 H618 0.929 . S
N608 C606 1.375 1_655 S
N608 C607 1.347 . S
C609 C612 1.360 1_655 S
C609 N614 1.346 . S
C609 H615 0.917 1_655 S
C610 C611 1.362 . S
C610 C613 1.378 . S
C610 H625 0.929 . S
C611 C610 1.362 . S
C611 C612 1.366 1_655 S
C612 C609 1.360 1_455 S
C612 C611 1.366 1_455 S
C612 H626 0.930 . S
C613 C610 1.378 . S
C613 N614 1.315 . S
C613 H616 0.930 . S
N614 Co594 2.194 . S
N614 C609 1.346 . S
N614 C613 1.315 . S
H615 C609 0.917 1_455 S
H616 C613 0.930 . S
H617 C605 0.929 . S
H618 C607 0.929 . S
O619 Co594 2.351 1_455 S
O619 C622 1.244 . S
O620 Co594 2.155 . S
O620 C622 1.240 1_655 S
O621 Co594 2.096 1_565 S
O621 C602 1.247 . S
C622 O619 1.244 . S
C622 O620 1.240 1_455 S
H623 C597 0.931 . S
H624 C606 0.931 . S
H625 C610 0.929 . S
H626 C612 0.930 . S
Co627 N631 2.148 1_545 S
Co627 N637 2.128 . S
Co627 N647 2.194 . S
Co627 O652 2.351 . S
Co627 O653 2.155 . S
Co627 O654 2.096 . S
C628 N631 1.301 . S
C628 N632 1.328 . S
C628 H633 0.930 . S
C629 C630 1.333 . S
C629 N631 1.317 . S
C629 H634 0.930 1_565 S
C630 C629 1.333 . S
C630 N632 1.350 . S
C630 H656 0.931 . S
N631 Co627 2.148 1_565 S
N631 C628 1.301 . S
N631 C629 1.317 . S
N632 C628 1.328 . S
N632 C630 1.350 . S
H633 C628 0.930 . S
H634 C629 0.930 1_545 S
C635 O636 1.224 . S
C635 O654 1.247 . S
O636 C635 1.224 . S
N637 Co627 2.128 . S
N637 C638 1.355 . S
N637 C640 1.311 . S
C638 N637 1.355 . S
C638 C639 1.363 . S
C638 H650 0.929 . S
C639 C638 1.363 . S
C639 N641 1.375 . S
C639 H657 0.931 . S
C640 N637 1.311 . S
C640 N641 1.347 . S
C640 H651 0.929 . S
N641 C639 1.375 . S
N641 C640 1.347 . S
C642 C645 1.365 . S
C642 N647 1.328 . S
C642 H648 0.929 . S
C643 C644 1.362 . S
C643 C646 1.378 . S
C643 H658 0.929 . S
C644 C643 1.362 . S
C644 C645 1.366 . S
C645 C642 1.365 . S
C645 C644 1.366 . S
C645 H659 0.930 . S
C646 C643 1.378 . S
C646 N647 1.315 . S
C646 H649 0.930 . S
N647 Co627 2.194 . S
N647 C642 1.328 . S
N647 C646 1.315 . S
H648 C642 0.929 . S
H649 C646 0.930 . S
H650 C638 0.929 . S
H651 C640 0.929 . S
O652 Co627 2.351 . S
O652 C655 1.244 . S
O653 Co627 2.155 . S
O653 C655 1.240 . S
O654 Co627 2.096 . S
O654 C635 1.247 . S
C655 O652 1.244 . S
C655 O653 1.240 . S
H656 C630 0.931 . S
H657 C639 0.931 . S
H658 C643 0.929 . S
H659 C645 0.930 . S
Co660 N664 2.148 1_565 S
Co660 N670 2.128 . S
Co660 N680 2.194 . S
Co660 O685 2.351 1_455 S
Co660 O686 2.155 . S
Co660 O687 2.096 . S
C661 N664 1.301 . S
C661 N665 1.328 . S
C661 H666 0.930 . S
C662 C663 1.333 . S
C662 N664 1.317 . S
C662 H667 0.930 1_545 S
C663 C662 1.333 . S
C663 N665 1.350 . S
C663 H689 0.931 . S
N664 Co660 2.148 1_545 S
N664 C661 1.301 . S
N664 C662 1.317 . S
N665 C661 1.328 . S
N665 C663 1.350 . S
H666 C661 0.930 . S
H667 C662 0.930 1_565 S
C668 O669 1.224 . S
C668 O687 1.247 . S
O669 C668 1.224 . S
N670 Co660 2.128 . S
N670 C671 1.355 1_455 S
N670 C673 1.311 . S
C671 N670 1.355 1_655 S
C671 C672 1.363 . S
C671 H683 0.929 . S
C672 C671 1.363 . S
C672 N674 1.375 1_655 S
C672 H690 0.931 . S
C673 N670 1.311 . S
C673 N674 1.347 . S
C673 H684 0.929 . S
N674 C672 1.375 1_455 S
N674 C673 1.347 . S
C675 C678 1.360 1_455 S
C675 N680 1.346 . S
C675 H681 0.917 1_455 S
C676 C677 1.362 . S
C676 C679 1.378 . S
C676 H691 0.929 . S
C677 C676 1.362 . S
C677 C678 1.366 1_455 S
C678 C675 1.360 1_655 S
C678 C677 1.366 1_655 S
C678 H692 0.930 . S
C679 C676 1.378 . S
C679 N680 1.315 . S
C679 H682 0.930 . S
N680 Co660 2.194 . S
N680 C675 1.346 . S
N680 C679 1.315 . S
H681 C675 0.917 1_655 S
H682 C679 0.930 . S
H683 C671 0.929 . S
H684 C673 0.929 . S
O685 Co660 2.351 1_655 S
O685 C688 1.244 . S
O686 Co660 2.155 . S
O686 C688 1.240 1_455 S
O687 Co660 2.096 . S
O687 C668 1.247 . S
C688 O685 1.244 . S
C688 O686 1.240 1_655 S
H689 C663 0.931 . S
H690 C672 0.931 . S
H691 C676 0.929 . S
H692 C678 0.930 . S
Co693 N697 2.148 . S
Co693 N703 2.128 1_565 S
Co693 N713 2.194 . S
Co693 O718 2.351 . S
Co693 O719 2.155 . S
Co693 O720 2.096 1_565 S
C694 N697 1.301 . S
C694 N698 1.328 . S
C694 H699 0.930 . S
C695 C696 1.333 . S
C695 N697 1.317 . S
C695 H700 0.930 . S
C696 C695 1.333 . S
C696 N698 1.350 . S
C696 H722 0.931 . S
N697 Co693 2.148 . S
N697 C694 1.301 . S
N697 C695 1.317 . S
N698 C694 1.328 . S
N698 C696 1.350 . S
H699 C694 0.930 . S
H700 C695 0.930 . S
C701 O702 1.224 . S
C701 O720 1.247 . S
O702 C701 1.224 . S
N703 Co693 2.128 1_545 S
N703 C704 1.355 . S
N703 C706 1.311 . S
C704 N703 1.355 . S
C704 C705 1.363 . S
C704 H716 0.929 . S
C705 C704 1.363 . S
C705 N707 1.375 . S
C705 H723 0.931 . S
C706 N703 1.311 . S
C706 N707 1.347 . S
C706 H717 0.929 . S
N707 C705 1.375 . S
N707 C706 1.347 . S
C708 C711 1.365 . S
C708 N713 1.328 . S
C708 H714 0.929 . S
C709 C710 1.362 . S
C709 C712 1.378 . S
C709 H724 0.929 . S
C710 C709 1.362 . S
C710 C711 1.366 . S
C711 C708 1.365 . S
C711 C710 1.366 . S
C711 H725 0.930 . S
C712 C709 1.378 . S
C712 N713 1.315 . S
C712 H715 0.930 . S
N713 Co693 2.194 . S
N713 C708 1.328 . S
N713 C712 1.315 . S
H714 C708 0.929 . S
H715 C712 0.930 . S
H716 C704 0.929 . S
H717 C706 0.929 . S
O718 Co693 2.351 . S
O718 C721 1.244 . S
O719 Co693 2.155 . S
O719 C721 1.240 . S
O720 Co693 2.096 1_545 S
O720 C701 1.247 . S
C721 O718 1.244 . S
C721 O719 1.240 . S
H722 C696 0.931 . S
H723 C705 0.931 . S
H724 C709 0.929 . S
H725 C711 0.930 . S
Co726 N730 2.148 . S
Co726 N736 2.128 1_565 S
Co726 N746 2.194 . S
Co726 O751 2.351 1_455 S
Co726 O752 2.155 . S
Co726 O753 2.096 1_565 S
C727 N730 1.301 . S
C727 N731 1.328 . S
C727 H732 0.930 . S
C728 C729 1.333 . S
C728 N730 1.317 . S
C728 H733 0.930 . S
C729 C728 1.333 . S
C729 N731 1.350 . S
C729 H755 0.931 . S
N730 Co726 2.148 . S
N730 C727 1.301 . S
N730 C728 1.317 . S
N731 C727 1.328 . S
N731 C729 1.350 . S
H732 C727 0.930 . S
H733 C728 0.930 . S
C734 O735 1.224 . S
C734 O753 1.247 . S
O735 C734 1.224 . S
N736 Co726 2.128 1_545 S
N736 C737 1.355 1_455 S
N736 C739 1.311 . S
C737 N736 1.355 1_655 S
C737 C738 1.363 . S
C737 H749 0.929 . S
C738 C737 1.363 . S
C738 N740 1.375 1_655 S
C738 H756 0.931 . S
C739 N736 1.311 . S
C739 N740 1.347 . S
C739 H750 0.929 . S
N740 C738 1.375 1_455 S
N740 C739 1.347 . S
C741 C744 1.360 1_455 S
C741 N746 1.346 . S
C741 H747 0.917 1_455 S
C742 C743 1.362 . S
C742 C745 1.378 . S
C742 H757 0.929 . S
C743 C742 1.362 . S
C743 C744 1.366 1_455 S
C744 C741 1.360 1_655 S
C744 C743 1.366 1_655 S
C744 H758 0.930 . S
C745 C742 1.378 . S
C745 N746 1.315 . S
C745 H748 0.930 . S
N746 Co726 2.194 . S
N746 C741 1.346 . S
N746 C745 1.315 . S
H747 C741 0.917 1_655 S
H748 C745 0.930 . S
H749 C737 0.929 . S
H750 C739 0.929 . S
O751 Co726 2.351 1_655 S
O751 C754 1.244 . S
O752 Co726 2.155 . S
O752 C754 1.240 1_455 S
O753 Co726 2.096 1_545 S
O753 C734 1.247 . S
C754 O751 1.244 . S
C754 O752 1.240 1_655 S
H755 C729 0.931 . S
H756 C738 0.931 . S
H757 C742 0.929 . S
H758 C744 0.930 . S
Co759 N763 2.148 1_565 S
Co759 N769 2.128 . S
Co759 N779 2.194 . S
Co759 O784 2.351 . S
Co759 O785 2.155 . S
Co759 O786 2.096 . S
C760 N763 1.301 . S
C760 N764 1.328 . S
C760 H765 0.930 . S
C761 C762 1.333 . S
C761 N763 1.317 . S
C761 H766 0.930 1_545 S
C762 C761 1.333 . S
C762 N764 1.350 . S
C762 H788 0.931 . S
N763 Co759 2.148 1_545 S
N763 C760 1.301 . S
N763 C761 1.317 . S
N764 C760 1.328 . S
N764 C762 1.350 . S
H765 C760 0.930 . S
H766 C761 0.930 1_565 S
C767 O768 1.224 . S
C767 O786 1.247 . S
O768 C767 1.224 . S
N769 Co759 2.128 . S
N769 C770 1.355 . S
N769 C772 1.311 . S
C770 N769 1.355 . S
C770 C771 1.363 . S
C770 H782 0.929 . S
C771 C770 1.363 . S
C771 N773 1.375 . S
C771 H789 0.931 . S
C772 N769 1.311 . S
C772 N773 1.347 . S
C772 H783 0.929 . S
N773 C771 1.375 . S
N773 C772 1.347 . S
C774 C777 1.365 . S
C774 N779 1.328 . S
C774 H780 0.929 . S
C775 C776 1.362 . S
C775 C778 1.378 . S
C775 H790 0.929 . S
C776 C775 1.362 . S
C776 C777 1.366 . S
C777 C774 1.365 . S
C777 C776 1.366 . S
C777 H791 0.930 . S
C778 C775 1.378 . S
C778 N779 1.315 . S
C778 H781 0.930 . S
N779 Co759 2.194 . S
N779 C774 1.328 . S
N779 C778 1.315 . S
H780 C774 0.929 . S
H781 C778 0.930 . S
H782 C770 0.929 . S
H783 C772 0.929 . S
O784 Co759 2.351 . S
O784 C787 1.244 . S
O785 Co759 2.155 . S
O785 C787 1.240 . S
O786 Co759 2.096 . S
O786 C767 1.247 . S
C787 O784 1.244 . S
C787 O785 1.240 . S
H788 C762 0.931 . S
H789 C771 0.931 . S
H790 C775 0.929 . S
H791 C777 0.930 . S
Co792 N796 2.148 . S
Co792 N802 2.128 . S
Co792 N812 2.194 . S
Co792 O817 2.351 1_655 S
Co792 O818 2.115 1_554 S
Co792 O819 2.096 . S
C793 N796 1.301 . S
C793 N797 1.328 . S
C793 H798 0.930 . S
C794 C795 1.333 . S
C794 N796 1.317 . S
C794 H799 0.930 . S
C795 C794 1.333 . S
C795 N797 1.350 . S
C795 H821 0.931 . S
N796 Co792 2.148 . S
N796 C793 1.301 . S
N796 C794 1.317 . S
N797 C793 1.328 . S
N797 C795 1.350 . S
H798 C793 0.930 . S
H799 C794 0.930 . S
C800 O801 1.224 . S
C800 O819 1.247 . S
O801 C800 1.224 . S
N802 Co792 2.128 . S
N802 C803 1.355 1_655 S
N802 C805 1.311 1_565 S
C803 N802 1.355 1_455 S
C803 C804 1.363 1_565 S
C803 H815 0.929 . S
C804 C803 1.363 1_545 S
C804 N806 1.375 1_455 S
C804 H822 0.931 . S
C805 N802 1.311 1_545 S
C805 N806 1.347 . S
C805 H816 0.929 . S
N806 C804 1.375 1_655 S
N806 C805 1.347 . S
C807 C810 1.360 1_655 S
C807 N812 1.346 . S
C807 H813 0.917 1_655 S
C808 C809 1.362 . S
C808 C811 1.378 . S
C808 H823 0.929 . S
C809 C808 1.362 . S
C809 C810 1.366 1_655 S
C810 C807 1.360 1_455 S
C810 C809 1.366 1_455 S
C810 H824 0.930 . S
C811 C808 1.378 . S
C811 N812 1.315 . S
C811 H814 0.930 . S
N812 Co792 2.194 . S
N812 C807 1.346 . S
N812 C811 1.315 . S
H813 C807 0.917 1_455 S
H814 C811 0.930 . S
H815 C803 0.929 . S
H816 C805 0.929 . S
O817 Co792 2.351 1_455 S
O817 C820 1.244 . S
O818 Co792 2.115 1_556 S
O818 C820 1.227 1_656 S
O819 Co792 2.096 . S
O819 C800 1.247 . S
C820 O817 1.244 . S
C820 O818 1.227 1_454 S
H821 C795 0.931 . S
H822 C804 0.931 . S
H823 C808 0.929 . S
H824 C810 0.930 . S
Co825 N829 2.148 . S
Co825 N835 2.128 . S
Co825 N845 2.194 . S
Co825 O850 2.351 . S
Co825 O851 2.115 1_554 S
Co825 O852 2.096 . S
C826 N829 1.301 . S
C826 N830 1.328 1_565 S
C826 H831 0.930 . S
C827 C828 1.333 . S
C827 N829 1.317 . S
C827 H832 0.930 . S
C828 C827 1.333 . S
C828 N830 1.350 1_565 S
C828 H854 0.932 . S
N829 Co825 2.148 . S
N829 C826 1.301 . S
N829 C827 1.317 . S
N830 C826 1.328 1_545 S
N830 C828 1.350 1_545 S
H831 C826 0.930 . S
H832 C827 0.930 . S
C833 O834 1.224 . S
C833 O852 1.247 . S
O834 C833 1.224 . S
N835 Co825 2.128 . S
N835 C836 1.355 . S
N835 C838 1.311 . S
C836 N835 1.355 . S
C836 C837 1.363 . S
C836 H848 0.929 . S
C837 C836 1.363 . S
C837 N839 1.375 . S
C837 H855 0.931 . S
C838 N835 1.311 . S
C838 N839 1.347 . S
C838 H849 0.929 . S
N839 C837 1.375 . S
N839 C838 1.347 . S
C840 C843 1.365 . S
C840 N845 1.328 . S
C840 H846 0.929 . S
C841 C842 1.362 . S
C841 C844 1.378 . S
C841 H856 0.929 . S
C842 C841 1.362 . S
C842 C843 1.366 . S
C843 C840 1.365 . S
C843 C842 1.366 . S
C843 H857 0.930 . S
C844 C841 1.378 . S
C844 N845 1.315 . S
C844 H847 0.930 . S
N845 Co825 2.194 . S
N845 C840 1.328 . S
N845 C844 1.315 . S
H846 C840 0.929 . S
H847 C844 0.930 . S
H848 C836 0.929 . S
H849 C838 0.929 . S
O850 Co825 2.351 . S
O850 C853 1.244 . S
O851 Co825 2.115 1_556 S
O851 C853 1.227 1_556 S
O852 Co825 2.096 . S
O852 C833 1.247 . S
C853 O850 1.244 . S
C853 O851 1.227 1_554 S
H854 C828 0.932 . S
H855 C837 0.931 . S
H856 C841 0.929 . S
H857 C843 0.930 . S
Co858 N862 2.148 . S
Co858 N868 2.128 . S
Co858 N878 2.194 . S
Co858 O883 2.351 1_655 S
Co858 O884 2.155 . S
Co858 O885 2.096 . S
C859 N862 1.301 . S
C859 N863 1.328 1_565 S
C859 H864 0.930 . S
C860 C861 1.333 . S
C860 N862 1.317 . S
C860 H865 0.930 . S
C861 C860 1.333 . S
C861 N863 1.350 1_565 S
C861 H887 0.932 . S
N862 Co858 2.148 . S
N862 C859 1.301 . S
N862 C860 1.317 . S
N863 C859 1.328 1_545 S
N863 C861 1.350 1_545 S
H864 C859 0.930 . S
H865 C860 0.930 . S
C866 O867 1.224 . S
C866 O885 1.247 . S
O867 C866 1.224 . S
N868 Co858 2.128 . S
N868 C869 1.355 1_655 S
N868 C871 1.311 . S
C869 N868 1.355 1_455 S
C869 C870 1.363 . S
C869 H881 0.929 . S
C870 C869 1.363 . S
C870 N872 1.375 1_455 S
C870 H888 0.931 . S
C871 N868 1.311 . S
C871 N872 1.347 . S
C871 H882 0.929 . S
N872 C870 1.375 1_655 S
N872 C871 1.347 . S
C873 C876 1.360 1_655 S
C873 N878 1.346 . S
C873 H879 0.917 1_655 S
C874 C875 1.362 . S
C874 C877 1.378 . S
C874 H889 0.929 . S
C875 C874 1.362 . S
C875 C876 1.366 1_655 S
C876 C873 1.360 1_455 S
C876 C875 1.366 1_455 S
C876 H890 0.930 . S
C877 C874 1.378 . S
C877 N878 1.315 . S
C877 H880 0.930 . S
N878 Co858 2.194 . S
N878 C873 1.346 . S
N878 C877 1.315 . S
H879 C873 0.917 1_455 S
H880 C877 0.930 . S
H881 C869 0.929 . S
H882 C871 0.929 . S
O883 Co858 2.351 1_455 S
O883 C886 1.244 . S
O884 Co858 2.155 . S
O884 C886 1.240 1_655 S
O885 Co858 2.096 . S
O885 C866 1.247 . S
C886 O883 1.244 . S
C886 O884 1.240 1_455 S
H887 C861 0.932 . S
H888 C870 0.931 . S
H889 C874 0.929 . S
H890 C876 0.930 . S
Co891 N895 2.148 . S
Co891 N901 2.128 . S
Co891 N911 2.194 . S
Co891 O916 2.351 . S
Co891 O917 2.155 . S
Co891 O918 2.096 . S
C892 N895 1.301 . S
C892 N896 1.328 . S
C892 H897 0.930 . S
C893 C894 1.333 . S
C893 N895 1.317 . S
C893 H898 0.930 . S
C894 C893 1.333 . S
C894 N896 1.350 . S
C894 H920 0.931 . S
N895 Co891 2.148 . S
N895 C892 1.301 . S
N895 C893 1.317 . S
N896 C892 1.328 . S
N896 C894 1.350 . S
H897 C892 0.930 . S
H898 C893 0.930 . S
C899 O900 1.224 . S
C899 O918 1.247 . S
O900 C899 1.224 . S
N901 Co891 2.128 . S
N901 C902 1.355 . S
N901 C904 1.311 1_565 S
C902 N901 1.355 . S
C902 C903 1.363 1_565 S
C902 H914 0.929 . S
C903 C902 1.363 1_545 S
C903 N905 1.375 . S
C903 H921 0.931 . S
C904 N901 1.311 1_545 S
C904 N905 1.347 . S
C904 H915 0.929 . S
N905 C903 1.375 . S
N905 C904 1.347 . S
C906 C909 1.365 . S
C906 N911 1.328 . S
C906 H912 0.929 . S
C907 C908 1.362 . S
C907 C910 1.378 . S
C907 H922 0.929 . S
C908 C907 1.362 . S
C908 C909 1.366 . S
C909 C906 1.365 . S
C909 C908 1.366 . S
C909 H923 0.930 . S
C910 C907 1.378 . S
C910 N911 1.315 . S
C910 H913 0.930 . S
N911 Co891 2.194 . S
N911 C906 1.328 . S
N911 C910 1.315 . S
H912 C906 0.929 . S
H913 C910 0.930 . S
H914 C902 0.929 . S
H915 C904 0.929 . S
O916 Co891 2.351 . S
O916 C919 1.244 . S
O917 Co891 2.155 . S
O917 C919 1.240 . S
O918 Co891 2.096 . S
O918 C899 1.247 . S
C919 O916 1.244 . S
C919 O917 1.240 . S
H920 C894 0.931 . S
H921 C903 0.931 . S
H922 C907 0.929 . S
H923 C909 0.930 . S
Co924 N928 2.148 . S
Co924 N934 2.128 . S
Co924 N944 2.194 . S
Co924 O949 2.351 1_455 S
Co924 O950 2.115 1_556 S
Co924 O951 2.096 . S
C925 N928 1.301 . S
C925 N929 1.328 . S
C925 H930 0.930 . S
C926 C927 1.333 . S
C926 N928 1.317 . S
C926 H931 0.930 . S
C927 C926 1.333 . S
C927 N929 1.350 . S
C927 H953 0.931 . S
N928 Co924 2.148 . S
N928 C925 1.301 . S
N928 C926 1.317 . S
N929 C925 1.328 . S
N929 C927 1.350 . S
H930 C925 0.930 . S
H931 C926 0.930 . S
C932 O933 1.224 . S
C932 O951 1.247 . S
O933 C932 1.224 . S
N934 Co924 2.128 . S
N934 C935 1.355 1_455 S
N934 C937 1.311 1_545 S
C935 N934 1.355 1_655 S
C935 C936 1.363 1_545 S
C935 H947 0.929 . S
C936 C935 1.363 1_565 S
C936 N938 1.375 1_655 S
C936 H954 0.931 . S
C937 N934 1.311 1_565 S
C937 N938 1.347 . S
C937 H948 0.929 . S
N938 C936 1.375 1_455 S
N938 C937 1.347 . S
C939 C942 1.360 1_455 S
C939 N944 1.346 . S
C939 H945 0.917 1_455 S
C940 C941 1.362 . S
C940 C943 1.378 . S
C940 H955 0.929 . S
C941 C940 1.362 . S
C941 C942 1.366 1_455 S
C942 C939 1.360 1_655 S
C942 C941 1.366 1_655 S
C942 H956 0.930 . S
C943 C940 1.378 . S
C943 N944 1.315 . S
C943 H946 0.930 . S
N944 Co924 2.194 . S
N944 C939 1.346 . S
N944 C943 1.315 . S
H945 C939 0.917 1_655 S
H946 C943 0.930 . S
H947 C935 0.929 . S
H948 C937 0.929 . S
O949 Co924 2.351 1_655 S
O949 C952 1.244 . S
O950 Co924 2.115 1_554 S
O950 C952 1.227 1_454 S
O951 Co924 2.096 . S
O951 C932 1.247 . S
C952 O949 1.244 . S
C952 O950 1.227 1_656 S
H953 C927 0.931 . S
H954 C936 0.931 . S
H955 C940 0.929 . S
H956 C942 0.930 . S
Co957 N961 2.148 . S
Co957 N967 2.128 . S
Co957 N977 2.194 . S
Co957 O982 2.351 . S
Co957 O983 2.115 1_556 S
Co957 O984 2.096 . S
C958 N961 1.301 . S
C958 N962 1.328 1_545 S
C958 H963 0.930 . S
C959 C960 1.333 . S
C959 N961 1.317 . S
C959 H964 0.930 . S
C960 C959 1.333 . S
C960 N962 1.350 1_545 S
C960 H986 0.932 . S
N961 Co957 2.148 . S
N961 C958 1.301 . S
N961 C959 1.317 . S
N962 C958 1.328 1_565 S
N962 C960 1.350 1_565 S
H963 C958 0.930 . S
H964 C959 0.930 . S
C965 O966 1.224 . S
C965 O984 1.247 . S
O966 C965 1.224 . S
N967 Co957 2.128 . S
N967 C968 1.355 . S
N967 C970 1.311 . S
C968 N967 1.355 . S
C968 C969 1.363 . S
C968 H980 0.929 . S
C969 C968 1.363 . S
C969 N971 1.375 . S
C969 H987 0.931 . S
C970 N967 1.311 . S
C970 N971 1.347 . S
C970 H981 0.929 . S
N971 C969 1.375 . S
N971 C970 1.347 . S
C972 C975 1.365 . S
C972 N977 1.328 . S
C972 H978 0.929 . S
C973 C974 1.362 . S
C973 C976 1.378 . S
C973 H988 0.929 . S
C974 C973 1.362 . S
C974 C975 1.366 . S
C975 C972 1.365 . S
C975 C974 1.366 . S
C975 H989 0.930 . S
C976 C973 1.378 . S
C976 N977 1.315 . S
C976 H979 0.930 . S
N977 Co957 2.194 . S
N977 C972 1.328 . S
N977 C976 1.315 . S
H978 C972 0.929 . S
H979 C976 0.930 . S
H980 C968 0.929 . S
H981 C970 0.929 . S
O982 Co957 2.351 . S
O982 C985 1.244 . S
O983 Co957 2.115 1_554 S
O983 C985 1.227 1_554 S
O984 Co957 2.096 . S
O984 C965 1.247 . S
C985 O982 1.244 . S
C985 O983 1.227 1_556 S
H986 C960 0.932 . S
H987 C969 0.931 . S
H988 C973 0.929 . S
H989 C975 0.930 . S
Co990 N994 2.148 . S
Co990 N1000 2.128 . S
Co990 N1010 2.194 . S
Co990 O1015 2.351 1_455 S
Co990 O1016 2.155 . S
Co990 O1017 2.096 . S
C991 N994 1.301 . S
C991 N995 1.328 1_545 S
C991 H996 0.930 . S
C992 C993 1.333 . S
C992 N994 1.317 . S
C992 H997 0.930 . S
C993 C992 1.333 . S
C993 N995 1.350 1_545 S
C993 H1019 0.932 . S
N994 Co990 2.148 . S
N994 C991 1.301 . S
N994 C992 1.317 . S
N995 C991 1.328 1_565 S
N995 C993 1.350 1_565 S
H996 C991 0.930 . S
H997 C992 0.930 . S
C998 O999 1.224 . S
C998 O1017 1.247 . S
O999 C998 1.224 . S
N1000 Co990 2.128 . S
N1000 C1001 1.355 1_455 S
N1000 C1003 1.311 . S
C1001 N1000 1.355 1_655 S
C1001 C1002 1.363 . S
C1001 H1013 0.929 . S
C1002 C1001 1.363 . S
C1002 N1004 1.375 1_655 S
C1002 H1020 0.931 . S
C1003 N1000 1.311 . S
C1003 N1004 1.347 . S
C1003 H1014 0.929 . S
N1004 C1002 1.375 1_455 S
N1004 C1003 1.347 . S
C1005 C1008 1.360 1_455 S
C1005 N1010 1.346 . S
C1005 H1011 0.917 1_455 S
C1006 C1007 1.362 . S
C1006 C1009 1.378 . S
C1006 H1021 0.929 . S
C1007 C1006 1.362 . S
C1007 C1008 1.366 1_455 S
C1008 C1005 1.360 1_655 S
C1008 C1007 1.366 1_655 S
C1008 H1022 0.930 . S
C1009 C1006 1.378 . S
C1009 N1010 1.315 . S
C1009 H1012 0.930 . S
N1010 Co990 2.194 . S
N1010 C1005 1.346 . S
N1010 C1009 1.315 . S
H1011 C1005 0.917 1_655 S
H1012 C1009 0.930 . S
H1013 C1001 0.929 . S
H1014 C1003 0.929 . S
O1015 Co990 2.351 1_655 S
O1015 C1018 1.244 . S
O1016 Co990 2.155 . S
O1016 C1018 1.240 1_455 S
O1017 Co990 2.096 . S
O1017 C998 1.247 . S
C1018 O1015 1.244 . S
C1018 O1016 1.240 1_655 S
H1019 C993 0.932 . S
H1020 C1002 0.931 . S
H1021 C1006 0.929 . S
H1022 C1008 0.930 . S
Co1023 N1027 2.148 . S
Co1023 N1033 2.128 . S
Co1023 N1043 2.194 . S
Co1023 O1048 2.351 . S
Co1023 O1049 2.155 . S
Co1023 O1050 2.096 . S
C1024 N1027 1.301 . S
C1024 N1028 1.328 . S
C1024 H1029 0.930 . S
C1025 C1026 1.333 . S
C1025 N1027 1.317 . S
C1025 H1030 0.930 . S
C1026 C1025 1.333 . S
C1026 N1028 1.350 . S
C1026 H1052 0.931 . S
N1027 Co1023 2.148 . S
N1027 C1024 1.301 . S
N1027 C1025 1.317 . S
N1028 C1024 1.328 . S
N1028 C1026 1.350 . S
H1029 C1024 0.930 . S
H1030 C1025 0.930 . S
C1031 O1032 1.224 . S
C1031 O1050 1.247 . S
O1032 C1031 1.224 . S
N1033 Co1023 2.128 . S
N1033 C1034 1.355 . S
N1033 C1036 1.311 1_545 S
C1034 N1033 1.355 . S
C1034 C1035 1.363 1_545 S
C1034 H1046 0.929 . S
C1035 C1034 1.363 1_565 S
C1035 N1037 1.375 . S
C1035 H1053 0.931 . S
C1036 N1033 1.311 1_565 S
C1036 N1037 1.347 . S
C1036 H1047 0.929 . S
N1037 C1035 1.375 . S
N1037 C1036 1.347 . S
C1038 C1041 1.365 . S
C1038 N1043 1.328 . S
C1038 H1044 0.929 . S
C1039 C1040 1.362 . S
C1039 C1042 1.378 . S
C1039 H1054 0.929 . S
C1040 C1039 1.362 . S
C1040 C1041 1.366 . S
C1041 C1038 1.365 . S
C1041 C1040 1.366 . S
C1041 H1055 0.930 . S
C1042 C1039 1.378 . S
C1042 N1043 1.315 . S
C1042 H1045 0.930 . S
N1043 Co1023 2.194 . S
N1043 C1038 1.328 . S
N1043 C1042 1.315 . S
H1044 C1038 0.929 . S
H1045 C1042 0.930 . S
H1046 C1034 0.929 . S
H1047 C1036 0.929 . S
O1048 Co1023 2.351 . S
O1048 C1051 1.244 . S
O1049 Co1023 2.155 . S
O1049 C1051 1.240 . S
O1050 Co1023 2.096 . S
O1050 C1031 1.247 . S
C1051 O1048 1.244 . S
C1051 O1049 1.240 . S
H1052 C1026 0.931 . S
H1053 C1035 0.931 . S
H1054 C1039 0.929 . S
H1055 C1041 0.930 . S
C17 C83 1.684 . S
C50 C116 1.684 . S
C149 C215 1.684 . S
C248 C182 1.684 . S
C347 C281 1.684 . S
C380 C314 1.684 . S
C413 C479 1.684 . S
C512 C446 1.684 . S
C611 C545 1.684 . S
C578 C644 1.684 . S
C677 C743 1.684 . S
C776 C710 1.684 . S
C875 C809 1.684 . S
C842 C908 1.684 . S
C1007 C941 1.684 . S
C1040 C974 1.684 . S
C160 C28 2.094 1_566 S
C61 C985 2.094 1_554 S
C94 C490 2.095 . S
C127 C787 2.095 1_545 S
C193 C853 2.094 1_556 S
C358 C226 2.095 . S
C655 C259 2.095 1_545 S
C292 C424 2.094 . S
C721 C325 2.095 . S
C1051 C391 2.095 . S
C589 C457 2.095 . S
C919 C523 2.095 . S
C688 C556 2.094 1_665 S
C622 C1018 2.095 1_455 S
C754 C886 2.095 1_655 S
C952 C820 2.094 1_656 S
N5 N14 2.302 . S
N47 N38 2.302 . S
N80 N71 2.302 . S
N113 N104 2.302 . S
N137 N146 2.302 . S
N179 N170 2.302 . S
N203 N212 2.302 . S
N236 N245 2.302 . S
N269 N278 2.302 . S
N302 N311 2.302 . S
N335 N344 2.302 . S
N377 N368 2.302 . S
N401 N410 2.302 . S
N434 N443 2.302 . S
N467 N476 2.302 . S
N500 N509 2.302 . S
N542 N533 2.302 . S
N566 N575 2.302 . S
N599 N608 2.302 . S
N632 N641 2.302 . S
N665 N674 2.302 . S
N698 N707 2.302 . S
N740 N731 2.302 . S
N764 N773 2.302 . S
N806 N797 2.302 . S
N830 N839 2.302 . S
N863 N872 2.302 . S
N896 N905 2.302 . S
N938 N929 2.302 . S
N971 N962 2.302 . S
N1004 N995 2.302 . S
N1037 N1028 2.302 . S
C833 C8 1.753 . S
C41 C800 1.753 . S
C899 C74 1.753 . S
C107 C866 1.753 . S
C965 C140 1.753 . S
C173 C932 1.753 . S
C1031 C206 1.753 . S
C998 C239 1.753 . S
C272 C569 1.753 . S
C305 C536 1.753 . S
C635 C338 1.753 . S
C371 C602 1.753 . S
C701 C404 1.753 . S
C668 C437 1.753 . S
C470 C767 1.753 . S
C503 C734 1.753 . S
