# Generated by pormake.
# Topology uku, (4)-cn, num edge types: 1
# Building blocks:
#     Node 0, Type 0, BuildingBlock: CEKHIL_clean_sbu_0, # of connection points: 4
#     Node 1, Type 0, BuildingBlock: CEKHIL_clean_sbu_0, # of connection points: 4
#     Node 2, Type 0, BuildingBlock: CEKHIL_clean_sbu_0, # of connection points: 4
#     Node 3, Type 0, BuildingBlock: CEKHIL_clean_sbu_0, # of connection points: 4
#     Node 4, Type 0, BuildingBlock: CEKHIL_clean_sbu_0, # of connection points: 4
#     Node 5, Type 0, BuildingBlock: CEKHIL_clean_sbu_0, # of connection points: 4
#     Node 6, Type 0, BuildingBlock: CEKHIL_clean_sbu_0, # of connection points: 4
#     Node 7, Type 0, BuildingBlock: CEKHIL_clean_sbu_0, # of connection points: 4
#     Node 8, Type 0, BuildingBlock: CEKHIL_clean_sbu_0, # of connection points: 4
#     Node 9, Type 0, BuildingBlock: CEKHIL_clean_sbu_0, # of connection points: 4
#     Node 10, Type 0, BuildingBlock: CEKHIL_clean_sbu_0, # of connection points: 4
#     Node 11, Type 0, BuildingBlock: CEKHIL_clean_sbu_0, # of connection points: 4
#     Edge 12, Type (0, 0), BuildingBlock: TEMPAE_clean_linker_10, # of connection points: 2
#     Edge 13, Type (0, 0), BuildingBlock: TEMPAE_clean_linker_10, # of connection points: 2
#     Edge 14, Type (0, 0), BuildingBlock: TEMPAE_clean_linker_10, # of connection points: 2
#     Edge 15, Type (0, 0), BuildingBlock: TEMPAE_clean_linker_10, # of connection points: 2
#     Edge 16, Type (0, 0), BuildingBlock: TEMPAE_clean_linker_10, # of connection points: 2
#     Edge 17, Type (0, 0), BuildingBlock: TEMPAE_clean_linker_10, # of connection points: 2
#     Edge 18, Type (0, 0), BuildingBlock: TEMPAE_clean_linker_10, # of connection points: 2
#     Edge 19, Type (0, 0), BuildingBlock: TEMPAE_clean_linker_10, # of connection points: 2
#     Edge 20, Type (0, 0), BuildingBlock: TEMPAE_clean_linker_10, # of connection points: 2
#     Edge 21, Type (0, 0), BuildingBlock: TEMPAE_clean_linker_10, # of connection points: 2
#     Edge 22, Type (0, 0), BuildingBlock: TEMPAE_clean_linker_10, # of connection points: 2
#     Edge 23, Type (0, 0), BuildingBlock: TEMPAE_clean_linker_10, # of connection points: 2
#     Edge 24, Type (0, 0), BuildingBlock: TEMPAE_clean_linker_10, # of connection points: 2
#     Edge 25, Type (0, 0), BuildingBlock: TEMPAE_clean_linker_10, # of connection points: 2
#     Edge 26, Type (0, 0), BuildingBlock: TEMPAE_clean_linker_10, # of connection points: 2
#     Edge 27, Type (0, 0), BuildingBlock: TEMPAE_clean_linker_10, # of connection points: 2
#     Edge 28, Type (0, 0), BuildingBlock: TEMPAE_clean_linker_10, # of connection points: 2
#     Edge 29, Type (0, 0), BuildingBlock: TEMPAE_clean_linker_10, # of connection points: 2
#     Edge 30, Type (0, 0), BuildingBlock: TEMPAE_clean_linker_10, # of connection points: 2
#     Edge 31, Type (0, 0), BuildingBlock: TEMPAE_clean_linker_10, # of connection points: 2
#     Edge 32, Type (0, 0), BuildingBlock: TEMPAE_clean_linker_10, # of connection points: 2
#     Edge 33, Type (0, 0), BuildingBlock: TEMPAE_clean_linker_10, # of connection points: 2
#     Edge 34, Type (0, 0), BuildingBlock: TEMPAE_clean_linker_10, # of connection points: 2
#     Edge 35, Type (0, 0), BuildingBlock: TEMPAE_clean_linker_10, # of connection points: 2
# Relax obj value: 0.371
# Max RMSD: 0.262
# Mean RMSD: 0.262
data_MOF--net-uku--node1-CEKHIL_clean_sbu_0--edge1-TEMPAE_clean_linker_10
_symmetry_space_group_name_H-M    P1
_symmetry_Int_Tables_number       1
_symmetry_cell_setting            triclinic
loop_
_symmetry_equiv_pos_as_xyz
'x, y, z'
_cell_length_a     41.482912
_cell_length_b     41.483636
_cell_length_c     41.517959
_cell_angle_alpha  90.033647
_cell_angle_beta   90.067265
_cell_angle_gamma 90.129596
loop_
_atom_site_label
_atom_site_type_symbol
_atom_site_fract_x
_atom_site_fract_y
_atom_site_fract_z
_atom_type_partial_charge
Co0 Co 0.03504 0.16499 0.65828 0.0
O1 O 0.00339 0.18012 0.62815 0.0
O2 O 0.04968 0.15632 0.61551 0.0
C3 C 0.0374 0.20781 0.6909 0.0
O4 O 0.07385 0.14742 0.68185 0.0
Co5 Co 0.01751 0.15289 0.72991 0.0
O6 O 0.06483 0.14729 0.73518 0.0
C7 C 0.00089 0.1039 0.68148 0.0
C8 C 0.02294 0.16956 0.60608 0.0
C9 C 0.0833 0.14323 0.711 0.0
O10 O 0.01448 0.12117 0.65971 0.0
O11 O -0.00269 0.11326 0.71064 0.0
O12 O 0.05227 0.20816 0.66337 0.0
O13 O 0.01751 0.18411 0.69517 0.0
Co14 Co 0.93903 0.80641 0.65512 0.0
O15 O 0.96947 0.78926 0.62491 0.0
O16 O 0.92471 0.81586 0.61234 0.0
C17 C 0.93456 0.76367 0.68771 0.0
O18 O 0.90161 0.82659 0.67876 0.0
Co19 Co 0.95743 0.81729 0.72682 0.0
O20 O 0.9108 0.82703 0.73208 0.0
C21 C 0.97673 0.86534 0.6784 0.0
C22 C 0.95053 0.80095 0.60286 0.0
C23 C 0.89266 0.83217 0.70781 0.0
O24 O 0.9623 0.84888 0.65648 0.0
O25 O 0.97971 0.85573 0.70755 0.0
O26 O 0.91919 0.76433 0.66042 0.0
O27 O 0.95565 0.7863 0.6919 0.0
Co28 Co 0.03297 0.80313 0.31986 0.0
O29 O -0.00108 0.78926 0.34793 0.0
O30 O 0.04491 0.81217 0.36344 0.0
C31 C 0.03593 0.75948 0.28819 0.0
O32 O 0.07374 0.81954 0.29884 0.0
Co33 Co 0.02068 0.81424 0.24699 0.0
O34 O 0.0682 0.82031 0.24505 0.0
C35 C 0.00216 0.86453 0.29328 0.0
C36 C 0.0172 0.79975 0.37116 0.0
C37 C 0.08511 0.82409 0.27046 0.0
O38 O 0.01378 0.84742 0.31628 0.0
O39 O 0.00026 0.85462 0.26412 0.0
O40 O 0.04923 0.75937 0.31654 0.0
O41 O 0.01733 0.78375 0.28221 0.0
Co42 Co 0.95092 0.16546 0.32013 0.0
O43 O 0.98335 0.17943 0.35008 0.0
O44 O 0.93668 0.15632 0.36295 0.0
C45 C 0.94927 0.20907 0.28848 0.0
O46 O 0.91135 0.14913 0.29685 0.0
Co47 Co 0.96687 0.15459 0.24794 0.0
O48 O 0.91941 0.14925 0.24338 0.0
C49 C 0.98339 0.10435 0.295 0.0
C50 C 0.9638 0.16899 0.37224 0.0
C51 C 0.9013 0.14524 0.26786 0.0
O52 O 0.97038 0.12123 0.31741 0.0
O53 O 0.98681 0.1144 0.26605 0.0
O54 O 0.9347 0.20912 0.31617 0.0
O55 O 0.96836 0.18497 0.28341 0.0
Co56 Co 0.6567 0.03911 0.17063 0.0
O57 O 0.62623 0.00968 0.1891 0.0
O58 O 0.61394 0.0535 0.16086 0.0
C59 C 0.6896 0.04499 0.21297 0.0
O60 O 0.68096 0.07545 0.14905 0.0
Co61 Co 0.728 0.01889 0.16038 0.0
O62 O 0.73413 0.06522 0.14969 0.0
C63 C 0.67902 -0.00131 0.11322 0.0
C64 C 0.60428 0.0284 0.17693 0.0
C65 C 0.71032 0.0837 0.14374 0.0
O66 O 0.65749 0.01422 0.1291 0.0
O67 O 0.70813 -0.00454 0.12294 0.0
O68 O 0.66247 0.06054 0.21181 0.0
O69 O 0.69332 0.02286 0.19133 0.0
Co70 Co 0.32199 0.94272 0.1773 0.0
O71 O 0.34978 0.9762 0.1932 0.0
O72 O 0.36567 0.93205 0.16736 0.0
C73 C 0.29051 0.93627 0.22061 0.0
O74 O 0.30128 0.90289 0.15832 0.0
Co75 Co 0.2489 0.95503 0.16729 0.0
O76 O 0.24739 0.90789 0.15871 0.0
C77 C 0.29474 0.97676 0.1179 0.0
C78 C 0.37317 0.95907 0.18137 0.0
C79 C 0.27288 0.89156 0.15351 0.0
O80 O 0.31798 0.96469 0.13438 0.0
O81 O 0.26557 0.97763 0.12788 0.0
O82 O 0.31903 0.9234 0.21982 0.0
O83 O 0.28427 0.95653 0.19778 0.0
Co84 Co 0.65722 0.94418 0.81208 0.0
O85 O 0.62848 0.97814 0.7995 0.0
O86 O 0.6139 0.93086 0.82022 0.0
C87 C 0.6894 0.94346 0.76888 0.0
O88 O 0.67883 0.9032 0.82671 0.0
Co89 Co 0.72982 0.95709 0.82459 0.0
O90 O 0.73259 0.90931 0.82752 0.0
C91 C 0.68271 0.97319 0.87488 0.0
C92 C 0.60562 0.95888 0.80905 0.0
C93 C 0.70736 0.89191 0.83035 0.0
O94 O 0.66007 0.96159 0.85718 0.0
O95 O 0.71193 0.97598 0.86538 0.0
O96 O 0.66119 0.9298 0.76778 0.0
O97 O 0.69481 0.96131 0.79388 0.0
Co98 Co 0.32184 0.03834 0.81874 0.0
O99 O 0.35092 0.0055 0.80428 0.0
O100 O 0.36506 0.05148 0.82808 0.0
C101 C 0.29021 0.04122 0.77515 0.0
O102 O 0.2997 0.07816 0.83558 0.0
Co103 Co 0.24913 0.02415 0.82927 0.0
O104 O 0.24597 0.0717 0.83472 0.0
C105 C 0.29581 0.00527 0.87912 0.0
C106 C 0.37361 0.02439 0.81495 0.0
C107 C 0.27101 0.08903 0.83918 0.0
O108 O 0.31862 0.01817 0.86262 0.0
O109 O 0.26677 0.00278 0.86893 0.0
O110 O 0.31818 0.05538 0.77534 0.0
O111 O 0.28465 0.022 0.79904 0.0
Co112 Co 0.16552 0.66854 0.02754 0.0
O113 O 0.17653 0.64357 0.99023 0.0
O114 O 0.15505 0.62436 0.0354 0.0
C115 C 0.21074 0.69786 0.03143 0.0
O116 O 0.15184 0.68591 0.07086 0.0
Co117 Co 0.15743 0.74276 0.02321 0.0
O118 O 0.15341 0.74001 0.07087 0.0
C119 C 0.10393 0.70066 0.0033 0.0
C120 C 0.16596 0.619 0.00657 0.0
C121 C 0.14899 0.71317 0.08518 0.0
O122 O 0.12065 0.67585 0.01112 0.0
O123 O 0.11494 0.7295 0.00392 0.0
O124 O 0.21006 0.66839 0.042 0.0
O125 O 0.1859 0.70674 0.01481 0.0
Co126 Co 0.17363 0.3345 0.93455 0.0
O127 O 0.19029 0.368 0.96176 0.0
O128 O 0.16198 0.37539 0.91685 0.0
C129 C 0.21746 0.3033 0.93163 0.0
O130 O 0.15341 0.30693 0.89995 0.0
Co131 Co 0.16605 0.26418 0.959 0.0
O132 O 0.15442 0.25455 0.91348 0.0
C133 C 0.11667 0.31221 0.97552 0.0
C134 C 0.17707 0.38776 0.94135 0.0
C135 C 0.14813 0.27711 0.89362 0.0
O136 O 0.1319 0.33347 0.95896 0.0
O137 O 0.12749 0.28378 0.98061 0.0
O138 O 0.21534 0.32918 0.91414 0.0
O139 O 0.19561 0.30007 0.95362 0.0
Co140 Co 0.80698 0.66016 0.94638 0.0
O141 O 0.79279 0.63086 0.97924 0.0
O142 O 0.82048 0.61755 0.93537 0.0
C143 C 0.76139 0.68806 0.93958 0.0
O144 O 0.82474 0.68249 0.90701 0.0
Co145 Co 0.81107 0.73381 0.9588 0.0
O146 O 0.82093 0.73623 0.91197 0.0
C147 C 0.86357 0.69207 0.98131 0.0
C148 C 0.80647 0.60866 0.96189 0.0
C149 C 0.82797 0.7111 0.89575 0.0
O150 O 0.84914 0.66754 0.96902 0.0
O151 O 0.85131 0.72034 0.98204 0.0
O152 O 0.76458 0.65977 0.92651 0.0
O153 O 0.78346 0.69604 0.96015 0.0
Co154 Co 0.81749 0.32337 0.03614 0.0
O155 O 0.80138 0.35334 0.00486 0.0
O156 O 0.82566 0.36628 0.05089 0.0
C157 C 0.7751 0.29005 0.03859 0.0
O158 O 0.83621 0.30007 0.07451 0.0
Co159 Co 0.83038 0.25187 0.01845 0.0
O160 O 0.83716 0.24668 0.06559 0.0
C161 C 0.87853 0.30123 0.00155 0.0
C162 C 0.8119 0.37557 0.02436 0.0
C163 C 0.84128 0.27105 0.08388 0.0
O164 O 0.86095 0.3228 0.015 0.0
O165 O 0.86969 0.27181 -0.00171 0.0
O166 O 0.77466 0.31741 0.05385 0.0
O167 O 0.79871 0.28618 0.01862 0.0
C168 C -0.00338 0.19191 0.41696 0.0
C169 C 0.9721 0.17111 0.40655 0.0
C170 C 0.00485 0.19385 0.44962 0.0
C171 C 0.98853 0.17404 0.47205 0.0
C172 C 0.96365 0.15311 0.46165 0.0
C173 C 0.95552 0.15211 0.42897 0.0
C174 C 0.03115 0.21683 0.46009 0.0
C175 C 0.94611 0.13127 0.48492 0.0
C176 C 0.03105 0.1523 0.54946 0.0
C177 C 0.01484 0.17172 0.57174 0.0
C178 C 0.02286 0.15304 0.5168 0.0
C179 C -0.0017 0.17415 0.50626 0.0
C180 C 0.98238 0.19441 0.52853 0.0
C181 C -0.00934 0.19273 0.56119 0.0
C182 C 0.03996 0.13071 0.49371 0.0
C183 C 0.95643 0.21758 0.5179 0.0
H184 H 0.00924 0.20682 0.39961 0.0
H185 H 0.93662 0.13592 0.42088 0.0
H186 H 0.02209 0.23301 0.47934 0.0
H187 H 0.05166 0.2031 0.47031 0.0
H188 H 0.0402 0.23183 0.43986 0.0
H189 H 0.92703 0.11674 0.47293 0.0
H190 H 0.96349 0.1146 0.49651 0.0
H191 H 0.93486 0.14574 0.50435 0.0
H192 H 0.04967 0.13592 0.55766 0.0
H193 H 0.97829 0.20792 0.57844 0.0
H194 H 0.05144 0.14481 0.47412 0.0
H195 H 0.02226 0.11416 0.48231 0.0
H196 H 0.05879 0.11605 0.50581 0.0
H197 H 0.96569 0.23343 0.49846 0.0
H198 H 0.94768 0.23291 0.538 0.0
H199 H 0.93567 0.20398 0.50787 0.0
C200 C 0.02263 0.81688 0.4282 0.0
C201 C 0.00678 0.79823 0.40491 0.0
C202 C 0.01269 0.81631 0.46036 0.0
C203 C 0.98665 0.7962 0.46938 0.0
C204 C 0.9708 0.77698 0.44606 0.0
C205 C 0.98092 0.77844 0.41392 0.0
C206 C 0.0298 0.8375 0.4846 0.0
C207 C 0.94322 0.75495 0.45506 0.0
C208 C 0.98193 0.77647 0.55811 0.0
C209 C 0.95849 0.79835 0.56851 0.0
C210 C 0.99059 0.77472 0.52558 0.0
C211 C 0.97579 0.79576 0.50325 0.0
C212 C 0.95177 0.81758 0.51356 0.0
C213 C 0.94319 0.81842 0.54612 0.0
C214 C 0.01597 0.75083 0.51521 0.0
C215 C 0.93586 0.8407 0.49039 0.0
H216 H 0.04251 0.83235 0.4212 0.0
H217 H 0.96877 0.76388 0.3959 0.0
H218 H 0.01234 0.85425 0.49593 0.0
H219 H 0.04022 0.82251 0.5041 0.0
H220 H 0.04947 0.85192 0.47352 0.0
H221 H 0.93409 0.74091 0.43415 0.0
H222 H 0.95105 0.73786 0.47406 0.0
H223 H 0.92306 0.76927 0.46513 0.0
H224 H -0.00642 0.76076 0.57542 0.0
H225 H 0.92513 0.83545 0.55418 0.0
H226 H 0.03753 0.76389 0.50626 0.0
H227 H 0.00677 0.7358 0.49507 0.0
H228 H 0.02349 0.7347 0.5352 0.0
H229 H 0.95424 0.85723 0.48013 0.0
H230 H 0.91684 0.85539 0.50215 0.0
H231 H 0.9249 0.82729 0.47001 0.0
C232 C 0.43028 0.9549 0.16414 0.0
C233 C 0.40678 0.97022 0.18283 0.0
C234 C 0.46223 0.96568 0.1644 0.0
C235 C 0.47082 -0.00787 0.18416 0.0
C236 C 0.44729 0.00749 0.20339 0.0
C237 C 0.41537 -0.00356 0.20233 0.0
C238 C 0.48671 0.94896 0.14331 0.0
C239 C 0.45584 0.03555 0.22499 0.0
C240 C 0.55971 -0.00201 0.20303 0.0
C241 C 0.56985 0.02092 0.18044 0.0
C242 C 0.52718 0.98934 0.20545 0.0
C243 C 0.50453 0.00366 0.18441 0.0
C244 C 0.51451 0.02742 0.16209 0.0
C245 C 0.54714 0.03595 0.16053 0.0
C246 C 0.5172 0.96425 0.22984 0.0
C247 C 0.49098 0.04288 0.13904 0.0
H248 H 0.42364 0.93472 0.14889 0.0
H249 H 0.3972 0.00824 0.21688 0.0
H250 H 0.49765 0.96654 0.12638 0.0
H251 H 0.50649 0.9391 0.15834 0.0
H252 H 0.47595 0.92893 0.12912 0.0
H253 H 0.43477 0.0444 0.23889 0.0
H254 H 0.47503 0.02835 0.24217 0.0
H255 H 0.46553 0.05573 0.21038 0.0
H256 H 0.57725 0.98658 0.21866 0.0
H257 H 0.55498 0.05368 0.14302 0.0
H258 H 0.50868 0.94224 0.21721 0.0
H259 H 0.49684 0.97327 0.2446 0.0
H260 H 0.5373 0.95747 0.24618 0.0
H261 H 0.48111 0.02433 0.12245 0.0
H262 H 0.50234 0.06224 0.12443 0.0
H263 H 0.47035 0.05327 0.15244 0.0
C264 C 0.54904 0.95208 0.82698 0.0
C265 C 0.57165 0.96858 0.80813 0.0
C266 C 0.5167 0.96144 0.82724 0.0
C267 C 0.5068 0.98751 0.8077 0.0
C268 C 0.52941 0.00392 0.78815 0.0
C269 C 0.56177 -0.00558 0.78884 0.0
C270 C 0.49326 0.94379 0.84882 0.0
C271 C 0.51942 0.03151 0.76665 0.0
C272 C 0.41746 -0.00808 0.79038 0.0
C273 C 0.4077 0.01548 0.81243 0.0
C274 C 0.44994 0.98321 0.78787 0.0
C275 C 0.47283 -0.002 0.80842 0.0
C276 C 0.46308 0.02189 0.83067 0.0
C277 C 0.43057 0.03059 0.83219 0.0
C278 C 0.45973 0.95803 0.76351 0.0
C279 C 0.48684 0.0377 0.85336 0.0
H280 H 0.55674 0.93221 0.84208 0.0
H281 H 0.57929 0.00704 0.77411 0.0
H282 H 0.48231 0.96091 0.86617 0.0
H283 H 0.47336 0.93338 0.83426 0.0
H284 H 0.50496 0.92404 0.86257 0.0
H285 H 0.53977 0.04084 0.75196 0.0
H286 H 0.49982 0.02362 0.7502 0.0
H287 H 0.50978 0.05155 0.78145 0.0
H288 H 0.39975 0.98047 0.77489 0.0
H289 H 0.42295 0.04874 0.84935 0.0
H290 H 0.46949 0.93657 0.77607 0.0
H291 H 0.47917 0.96757 0.74782 0.0
H292 H 0.43923 0.95025 0.74809 0.0
H293 H 0.49801 0.01918 0.86906 0.0
H294 H 0.47535 0.05622 0.86887 0.0
H295 H 0.50656 0.04928 0.83951 0.0
C296 C 0.19899 0.43615 0.96914 0.0
C297 C 0.17773 0.42274 0.9466 0.0
C298 C 0.19817 0.46913 0.97609 0.0
C299 C 0.17518 0.48884 0.96046 0.0
C300 C 0.15433 0.47561 0.93694 0.0
C301 C 0.15602 0.44262 0.9301 0.0
C302 C 0.22109 0.48266 0.00099 0.0
C303 C 0.12927 0.49593 0.92012 0.0
C304 C 0.14911 0.56164 0.00815 0.0
C305 C 0.16686 0.58622 -0.00667 0.0
C306 C 0.1509 0.52991 -0.00303 0.0
C307 C 0.1713 0.52269 0.97068 0.0
C308 C 0.18881 0.54751 0.95518 0.0
C309 C 0.1862 0.57917 0.96661 0.0
C310 C 0.13147 0.50403 0.01372 0.0
C311 C 0.21098 0.54046 0.92724 0.0
H312 H 0.21599 0.42079 0.98167 0.0
H313 H 0.13951 0.43223 0.91268 0.0
H314 H 0.2338 0.50411 -0.00872 0.0
H315 H 0.20734 0.49061 0.02246 0.0
H316 H 0.23933 0.4647 0.00878 0.0
H317 H 0.11669 0.48249 0.90065 0.0
H318 H 0.11106 0.50413 0.93787 0.0
H319 H 0.14053 0.5178 0.90963 0.0
H320 H 0.1339 0.56716 0.02864 0.0
H321 H 0.19998 0.59821 0.95518 0.0
H322 H 0.14794 0.48636 0.02514 0.0
H323 H 0.11653 0.49069 -0.00404 0.0
H324 H 0.11538 0.51404 0.0326 0.0
H325 H 0.23084 0.52452 0.93535 0.0
H326 H 0.22164 0.56274 0.91687 0.0
H327 H 0.19773 0.52745 0.90798 0.0
C328 C 0.78455 0.56387 -0.00478 0.0
C329 C 0.80626 0.5747 0.97178 0.0
C330 C 0.78388 0.53139 0.00438 0.0
C331 C 0.80581 0.50962 0.99008 0.0
C332 C 0.82795 0.52052 0.96659 0.0
C333 C 0.82773 0.55297 0.95752 0.0
C334 C 0.75968 0.52035 0.02921 0.0
C335 C 0.85202 0.49797 0.95123 0.0
C336 C 0.82684 0.43278 0.03397 0.0
C337 C 0.80917 0.40994 0.01639 0.0
C338 C 0.82565 0.46547 0.02588 0.0
C339 C 0.80599 0.47542 -0.0001 0.0
C340 C 0.7875 0.45257 0.98254 0.0
C341 C 0.78949 0.41995 -0.00912 0.0
C342 C 0.84601 0.48923 0.0446 0.0
C343 C 0.76601 0.46253 0.95491 0.0
H344 H 0.76781 0.58068 0.0061 0.0
H345 H 0.84466 0.5614 0.93951 0.0
H346 H 0.74437 0.50087 0.01905 0.0
H347 H 0.7724 0.51019 0.05041 0.0
H348 H 0.74385 0.54025 0.03749 0.0
H349 H 0.86781 0.51044 0.93356 0.0
H350 H 0.86743 0.48691 0.97006 0.0
H351 H 0.83921 0.47808 0.93871 0.0
H352 H 0.84218 0.42504 0.05365 0.0
H353 H 0.77568 0.40229 0.9774 0.0
H354 H 0.83061 0.50855 0.05475 0.0
H355 H 0.86364 0.50094 0.02826 0.0
H356 H 0.85941 0.4776 0.06463 0.0
H357 H 0.74899 0.48151 0.96291 0.0
H358 H 0.75191 0.44198 0.94502 0.0
H359 H 0.78082 0.47296 0.93526 0.0
C360 C 0.12927 0.13015 0.74757 0.0
C361 C 0.11633 0.13114 0.71642 0.0
C362 C 0.15961 0.11661 0.75331 0.0
C363 C 0.17706 0.10303 0.72736 0.0
C364 C 0.16455 0.1046 0.69574 0.0
C365 C 0.1344 0.11889 0.69059 0.0
C366 C 0.17274 0.11627 0.78724 0.0
C367 C 0.18243 0.09015 0.66757 0.0
C368 C 0.26493 0.08638 0.74497 0.0
C369 C 0.26326 0.05463 0.75644 0.0
C370 C 0.23721 0.10216 0.73392 0.0
C371 C 0.20743 0.0855 0.7339 0.0
C372 C 0.20617 0.05267 0.7431 0.0
C373 C 0.23413 0.03767 0.75453 0.0
C374 C 0.23942 0.13728 0.72461 0.0
C375 C 0.17488 0.03398 0.74288 0.0
H376 H 0.11545 0.13947 0.76761 0.0
H377 H 0.12456 0.11944 0.6664 0.0
H378 H 0.17615 0.09105 0.79544 0.0
H379 H 0.19668 0.12821 0.78779 0.0
H380 H 0.15661 0.12874 0.80455 0.0
H381 H 0.1704 0.09527 0.64421 0.0
H382 H 0.20744 0.0996 0.66664 0.0
H383 H 0.18404 0.06363 0.67065 0.0
H384 H 0.28739 0.09968 0.74667 0.0
H385 H 0.23289 0.0131 0.76334 0.0
H386 H 0.22831 0.15222 0.74377 0.0
H387 H 0.22597 0.14194 0.70199 0.0
H388 H 0.26479 0.14528 0.7214 0.0
H389 H 0.15874 0.04345 0.76195 0.0
H390 H 0.17866 0.00784 0.74721 0.0
H391 H 0.1623 0.03704 0.71948 0.0
C392 C 0.71436 0.89874 0.73788 0.0
C393 C 0.71654 0.93005 0.75047 0.0
C394 C 0.74197 0.88244 0.72743 0.0
C395 C 0.77222 0.89816 0.729 0.0
C396 C 0.77411 0.93068 0.73922 0.0
C397 C 0.74621 0.94617 0.75015 0.0
C398 C 0.73907 0.84763 0.71713 0.0
C399 C 0.80591 0.94841 0.7406 0.0
C400 C 0.84758 0.84911 0.74386 0.0
C401 C 0.86083 0.84724 0.71291 0.0
C402 C 0.81819 0.86474 0.74917 0.0
C403 C 0.8022 0.87976 0.72306 0.0
C404 C 0.81532 0.87792 0.69173 0.0
C405 C 0.84434 0.86136 0.68695 0.0
C406 C 0.80435 0.8654 0.78278 0.0
C407 C 0.79916 0.89412 0.66345 0.0
H408 H 0.69148 0.88606 0.73835 0.0
H409 H 0.74787 0.9704 0.75984 0.0
H410 H 0.75258 0.84331 0.69451 0.0
H411 H 0.74977 0.83194 0.73594 0.0
H412 H 0.71357 0.84023 0.71346 0.0
H413 H 0.8027 0.9746 0.74517 0.0
H414 H 0.82097 0.93824 0.7602 0.0
H415 H 0.81935 0.94528 0.71772 0.0
H416 H 0.86032 0.83859 0.76403 0.0
H417 H 0.85456 0.86035 0.66296 0.0
H418 H 0.77969 0.85499 0.78253 0.0
H419 H 0.80234 0.89064 0.79135 0.0
H420 H 0.81924 0.85165 0.80024 0.0
H421 H 0.77396 0.88546 0.66098 0.0
H422 H 0.81203 0.88963 0.64044 0.0
H423 H 0.79813 0.92052 0.66762 0.0
C424 C 0.26633 0.88782 0.24635 0.0
C425 C 0.26404 0.92054 0.23823 0.0
C426 C 0.23896 0.87036 0.25578 0.0
C427 C 0.2089 0.88627 0.25771 0.0
C428 C 0.20709 0.9199 0.2522 0.0
C429 C 0.23469 0.9366 0.24215 0.0
C430 C 0.24179 0.83445 0.26095 0.0
C431 C 0.17554 0.93782 0.25463 0.0
C432 C 0.13169 0.84231 0.23695 0.0
C433 C 0.11831 0.83684 0.26743 0.0
C434 C 0.1619 0.857 0.23365 0.0
C435 C 0.17876 0.86737 0.26145 0.0
C436 C 0.16584 0.86133 0.29234 0.0
C437 C 0.13586 0.84586 0.29499 0.0
C438 C 0.1755 0.86206 0.20033 0.0
C439 C 0.18303 0.87235 0.32248 0.0
H440 H 0.28896 0.87523 0.24304 0.0
H441 H 0.23297 0.96192 0.23592 0.0
H442 H 0.22796 0.82674 0.28247 0.0
H443 H 0.23149 0.82162 0.23983 0.0
H444 H 0.26727 0.82679 0.26387 0.0
H445 H 0.17901 0.96437 0.25388 0.0
H446 H 0.15966 0.93075 0.23428 0.0
H447 H 0.16286 0.93143 0.27727 0.0
H448 H 0.11824 0.83586 0.21555 0.0
H449 H 0.12572 0.84188 0.31871 0.0
H450 H 0.19984 0.85119 0.19892 0.0
H451 H 0.17811 0.88821 0.19538 0.0
H452 H 0.16011 0.85122 0.18125 0.0
H453 H 0.2083 0.86366 0.32253 0.0
H454 H 0.17093 0.86373 0.34473 0.0
H455 H 0.1839 0.89909 0.32305 0.0
C456 C 0.74615 0.0411 0.23235 0.0
C457 C 0.71774 0.059 0.22949 0.0
C458 C 0.77497 0.05588 0.24201 0.0
C459 C 0.77534 0.08941 0.24838 0.0
C460 C 0.74636 0.10725 0.24717 0.0
C461 C 0.71776 0.09172 0.23799 0.0
C462 C 0.80539 0.03601 0.2435 0.0
C463 C 0.74589 0.14312 0.25343 0.0
C464 C 0.84936 0.12369 0.28955 0.0
C465 C 0.86797 0.13349 0.26303 0.0
C466 C 0.81884 0.1098 0.28523 0.0
C467 C 0.80649 0.10611 0.25372 0.0
C468 C 0.82458 0.11703 0.22696 0.0
C469 C 0.85525 0.13029 0.23192 0.0
C470 C 0.80027 0.09818 0.31427 0.0
C471 C 0.81167 0.11443 0.19305 0.0
H472 H 0.74611 0.01579 0.2258 0.0
H473 H 0.69588 0.10574 0.23553 0.0
H474 H 0.82185 0.04339 0.22377 0.0
H475 H 0.81821 0.04028 0.26659 0.0
H476 H 0.80043 0.00979 0.24109 0.0
H477 H 0.72095 0.1526 0.25549 0.0
H478 H 0.75925 0.14903 0.27583 0.0
H479 H 0.75811 0.15582 0.23332 0.0
H480 H 0.85898 0.12595 0.31373 0.0
H481 H 0.86947 0.13764 0.21133 0.0
H482 H 0.79722 0.07162 0.31297 0.0
H483 H 0.7758 0.1089 0.31452 0.0
H484 H 0.81258 0.10428 0.33727 0.0
H485 H 0.80525 0.08907 0.18742 0.0
H486 H 0.82922 0.12308 0.1748 0.0
H487 H 0.78936 0.12897 0.19094 0.0
C488 C 0.74788 0.12782 0.12734 0.0
C489 C 0.71651 0.11535 0.12868 0.0
C490 C 0.75419 0.15736 0.11233 0.0
C491 C 0.72861 0.17444 0.0976 0.0
C492 C 0.69689 0.16201 0.09876 0.0
C493 C 0.69115 0.13273 0.11457 0.0
C494 C 0.78821 0.1704 0.11241 0.0
C495 C 0.66915 0.1794 0.08288 0.0
C496 C 0.74504 0.26283 0.08267 0.0
C497 C 0.75733 0.26205 0.05124 0.0
C498 C 0.73434 0.23458 0.09774 0.0
C499 C 0.73539 0.20511 0.08065 0.0
C500 C 0.74558 0.20461 0.04812 0.0
C501 C 0.75673 0.23313 0.03386 0.0
C502 C 0.72403 0.23597 0.13259 0.0
C503 C 0.74651 0.17364 0.02902 0.0
H504 H 0.76758 0.11444 0.13796 0.0
H505 H 0.66683 0.12312 0.11522 0.0
H506 H 0.78881 0.19372 0.12547 0.0
H507 H 0.80552 0.15369 0.12411 0.0
H508 H 0.79641 0.17504 0.08741 0.0
H509 H 0.64584 0.16661 0.08623 0.0
H510 H 0.66692 0.2041 0.09286 0.0
H511 H 0.67383 0.18187 0.05669 0.0
H512 H 0.74567 0.28513 0.09629 0.0
H513 H 0.76616 0.23254 0.00952 0.0
H514 H 0.74227 0.22365 0.14776 0.0
H515 H 0.7008 0.22315 0.13604 0.0
H516 H 0.7214 0.26113 0.14136 0.0
H517 H 0.76566 0.15775 0.03878 0.0
H518 H 0.75147 0.17795 0.00309 0.0
H519 H 0.72329 0.16051 0.03126 0.0
C520 C 0.23461 0.75273 0.03268 0.0
C521 C 0.2319 0.72207 0.04644 0.0
C522 C 0.24771 0.77843 0.05026 0.0
C523 C 0.25761 0.7733 0.0825 0.0
C524 C 0.25752 0.74178 0.09548 0.0
C525 C 0.24488 0.71638 0.0771 0.0
C526 C 0.24821 0.81159 0.0353 0.0
C527 C 0.26761 0.73537 0.12983 0.0
C528 C 0.29686 0.84386 0.12549 0.0
C529 C 0.26979 0.8593 0.13868 0.0
C530 C 0.29359 0.81518 0.10785 0.0
C531 C 0.26264 0.80146 0.10388 0.0
C532 C 0.23556 0.81599 0.1186 0.0
C533 C 0.23939 0.84497 0.13536 0.0
C534 C 0.32293 0.80051 0.09219 0.0
C535 C 0.20226 0.80155 0.11568 0.0
H536 H 0.22482 0.75703 0.00884 0.0
H537 H 0.24277 0.69266 0.08785 0.0
H538 H 0.22854 0.82633 0.04577 0.0
H539 H 0.27132 0.82403 0.04059 0.0
H540 H 0.24479 0.81062 0.00877 0.0
H541 H 0.27203 0.70933 0.13417 0.0
H542 H 0.28971 0.7491 0.13612 0.0
H543 H 0.24817 0.74341 0.14631 0.0
H544 H 0.3205 0.85483 0.12775 0.0
H545 H 0.21834 0.85685 0.14508 0.0
H546 H 0.32139 0.8038 0.06571 0.0
H547 H 0.32394 0.77421 0.09686 0.0
H548 H 0.34567 0.81176 0.10085 0.0
H549 H 0.19394 0.80299 0.09031 0.0
H550 H 0.1844 0.81404 0.13118 0.0
H551 H 0.20286 0.7757 0.12246 0.0
C552 C 0.7342 0.71008 0.89095 0.0
C553 C 0.74219 0.71318 0.92364 0.0
C554 C 0.72389 0.73684 0.87314 0.0
C555 C 0.72111 0.76707 0.88865 0.0
C556 C 0.72621 0.76953 0.92229 0.0
C557 C 0.73696 0.74253 0.93937 0.0
C558 C 0.71888 0.73329 0.83729 0.0
C559 C 0.72288 0.80127 0.93979 0.0
C560 C 0.74127 0.84468 0.84567 0.0
C561 C 0.71068 0.85812 0.84109 0.0
C562 C 0.74479 0.8141 0.85939 0.0
C563 C 0.7171 0.79686 0.86945 0.0
C564 C 0.68608 0.80956 0.86361 0.0
C565 C 0.68321 0.84 0.84928 0.0
C566 C 0.77826 0.80084 0.86437 0.0
C567 C 0.65604 0.7918 0.87401 0.0
H568 H 0.7384 0.68743 0.87864 0.0
H569 H 0.743 0.74485 0.96469 0.0
H570 H 0.69755 0.74714 0.82913 0.0
H571 H 0.74023 0.74305 0.82447 0.0
H572 H 0.71575 0.70766 0.83015 0.0
H573 H 0.72357 0.79823 0.96637 0.0
H574 H 0.74289 0.81757 0.93267 0.0
H575 H 0.69995 0.81325 0.93311 0.0
H576 H 0.76259 0.85847 0.83954 0.0
H577 H 0.65939 0.85009 0.84577 0.0
H578 H 0.77972 0.77604 0.85451 0.0
H579 H 0.78365 0.79945 0.89052 0.0
H580 H 0.79705 0.8159 0.85263 0.0
H581 H 0.65684 0.76633 0.86589 0.0
H582 H 0.63377 0.80315 0.86444 0.0
H583 H 0.65467 0.7916 0.90069 0.0
C584 C 0.23668 0.1367 0.85209 0.0
C585 C 0.26723 0.1225 0.85073 0.0
C586 C 0.23265 0.16776 0.86461 0.0
C587 C 0.25974 0.18471 0.87673 0.0
C588 C 0.29073 0.17079 0.87501 0.0
C589 C 0.29415 0.13991 0.8618 0.0
C590 C 0.19931 0.18222 0.86538 0.0
C591 C 0.32008 0.18811 0.88795 0.0
C592 C 0.24614 0.27407 0.8879 0.0
C593 C 0.23528 0.275 0.91985 0.0
C594 C 0.25589 0.24497 0.87385 0.0
C595 C 0.25512 0.21642 0.89244 0.0
C596 C 0.24677 0.21777 0.92545 0.0
C597 C 0.23679 0.24712 0.93876 0.0
C598 C 0.26455 0.24441 0.83854 0.0
C599 C 0.24618 0.18785 0.94614 0.0
H600 H 0.21578 0.12339 0.84377 0.0
H601 H 0.3179 0.1291 0.86099 0.0
H602 H 0.19199 0.18679 0.89067 0.0
H603 H 0.19934 0.20575 0.8527 0.0
H604 H 0.18101 0.16633 0.85392 0.0
H605 H 0.34271 0.17464 0.88326 0.0
H606 H 0.32214 0.2124 0.87697 0.0
H607 H 0.31757 0.19158 0.91433 0.0
H608 H 0.24497 0.29558 0.87314 0.0
H609 H 0.22859 0.24786 0.96354 0.0
H610 H 0.24482 0.23267 0.82476 0.0
H611 H 0.28674 0.23011 0.83447 0.0
H612 H 0.26828 0.26904 0.82872 0.0
H613 H 0.22601 0.17202 0.9384 0.0
H614 H 0.24296 0.19361 0.97207 0.0
H615 H 0.26883 0.17399 0.9432 0.0
C616 C 0.08022 0.72618 0.26528 0.0
C617 C 0.04984 0.74053 0.26163 0.0
C618 C 0.09765 0.71567 0.23835 0.0
C619 C 0.08408 0.71929 0.2073 0.0
C620 C 0.05211 0.73067 0.20389 0.0
C621 C 0.0354 0.74134 0.23116 0.0
C622 C 0.13165 0.70365 0.24296 0.0
C623 C 0.03656 0.73426 0.17118 0.0
C624 C 0.13564 0.74223 0.13605 0.0
C625 C 0.13661 0.7134 0.11857 0.0
C626 C 0.12031 0.7438 0.16599 0.0
C627 C 0.10463 0.7161 0.17831 0.0
C628 C 0.10651 0.68655 0.16147 0.0
C629 C 0.12277 0.68546 0.13188 0.0
C630 C 0.11956 0.7756 0.18363 0.0
C631 C 0.08983 0.6566 0.17373 0.0
H632 H 0.09148 0.7254 0.28883 0.0
H633 H 0.01177 0.75211 0.22834 0.0
H634 H 0.13656 0.68266 0.22717 0.0
H635 H 0.14886 0.72303 0.23626 0.0
H636 H 0.1364 0.69666 0.26836 0.0
H637 H 0.01025 0.73888 0.173 0.0
H638 H 0.04787 0.75477 0.15823 0.0
H639 H 0.04038 0.71228 0.15645 0.0
H640 H 0.14586 0.76394 0.12587 0.0
H641 H 0.12319 0.66304 0.11848 0.0
H642 H 0.12688 0.77229 0.20912 0.0
H643 H 0.09463 0.78524 0.18358 0.0
H644 H 0.13573 0.7938 0.17246 0.0
H645 H 0.09486 0.65297 0.19972 0.0
H646 H 0.09733 0.63468 0.16032 0.0
H647 H 0.06337 0.65944 0.17103 0.0
C648 C 0.08284 0.23651 0.71747 0.0
C649 C 0.051 0.22517 0.71871 0.0
C650 C 0.0987 0.2468 0.74544 0.0
C651 C 0.08199 0.24642 0.7751 0.0
C652 C 0.04921 0.23692 0.77614 0.0
C653 C 0.03415 0.22608 0.74789 0.0
C654 C 0.13383 0.25627 0.74352 0.0
C655 C 0.03057 0.23668 0.80735 0.0
C656 C 0.13007 0.23722 0.85215 0.0
C657 C 0.13219 0.26919 0.86278 0.0
C658 C 0.11416 0.22952 0.82337 0.0
C659 C 0.09931 0.25433 0.80529 0.0
C660 C 0.10104 0.28661 0.81602 0.0
C661 C 0.11776 0.29371 0.84447 0.0
C662 C 0.11375 0.19493 0.81207 0.0
C663 C 0.08494 0.31356 0.79765 0.0
H664 H 0.0961 0.23551 0.69501 0.0
H665 H 0.00955 0.21725 0.74885 0.0
H666 H 0.13781 0.28006 0.75506 0.0
H667 H 0.1486 0.23842 0.75684 0.0
H668 H 0.14264 0.25743 0.71829 0.0
H669 H 0.00455 0.23152 0.80354 0.0
H670 H 0.04061 0.21802 0.82363 0.0
H671 H 0.033 0.26025 0.81977 0.0
H672 H 0.14081 0.21817 0.86633 0.0
H673 H 0.11889 0.31849 0.8527 0.0
H674 H 0.12844 0.19288 0.78987 0.0
H675 H 0.08886 0.18719 0.806 0.0
H676 H 0.12368 0.17815 0.83038 0.0
H677 H 0.09487 0.31498 0.7729 0.0
H678 H 0.08821 0.33736 0.80953 0.0
H679 H 0.05873 0.3086 0.79539 0.0
C680 C 0.85407 0.68776 0.84672 0.0
C681 C 0.84234 0.71481 0.86337 0.0
C682 C 0.86978 0.69111 0.81703 0.0
C683 C 0.87321 0.72213 0.80342 0.0
C684 C 0.86072 0.74938 0.81966 0.0
C685 C 0.84592 0.74544 0.84967 0.0
C686 C 0.88334 0.66162 0.80061 0.0
C687 C 0.86312 0.78275 0.80538 0.0
C688 C 0.93861 0.74473 0.74435 0.0
C689 C 0.92114 0.74623 0.71552 0.0
C690 C 0.92377 0.7347 0.77294 0.0
C691 C 0.89062 0.72655 0.7726 0.0
C692 C 0.87344 0.726 0.74316 0.0
C693 C 0.88905 0.73559 0.71483 0.0
C694 C 0.943 0.735 0.80384 0.0
C695 C 0.83798 0.71778 0.74192 0.0
H696 H 0.85171 0.66395 0.85719 0.0
H697 H 0.83755 0.76648 0.86257 0.0
H698 H 0.87342 0.65942 0.77589 0.0
H699 H 0.90988 0.66405 0.79834 0.0
H700 H 0.8779 0.63909 0.81402 0.0
H701 H 0.85189 0.80137 0.82096 0.0
H702 H 0.88875 0.78932 0.80146 0.0
H703 H 0.85098 0.78309 0.78156 0.0
H704 H 0.96347 0.75283 0.74485 0.0
H705 H 0.87539 0.73685 0.69259 0.0
H706 H 0.93885 0.71246 0.81763 0.0
H707 H 0.93497 0.75538 0.81915 0.0
H708 H 0.96927 0.73769 0.79937 0.0
H709 H 0.83289 0.69549 0.75577 0.0
H710 H 0.82924 0.71444 0.71683 0.0
H711 H 0.82396 0.73755 0.75317 0.0
C712 C 0.95196 0.22723 0.23151 0.0
C713 C 0.93611 0.2276 0.26125 0.0
C714 C 0.93652 0.2383 0.20362 0.0
C715 C 0.90441 0.24959 0.20564 0.0
C716 C 0.8891 0.25203 0.23595 0.0
C717 C 0.90528 0.24122 0.26352 0.0
C718 C 0.95382 0.23592 0.17173 0.0
C719 C 0.85479 0.26373 0.239 0.0
C720 C 0.86981 0.29187 0.1326 0.0
C721 C 0.85492 0.26613 0.11634 0.0
C722 C 0.88562 0.28703 0.16203 0.0
C723 C 0.88597 0.25586 0.17574 0.0
C724 C 0.86986 0.2301 0.16012 0.0
C725 C 0.85488 0.23546 0.13037 0.0
C726 C 0.90288 0.31495 0.17786 0.0
C727 C 0.86899 0.1967 0.17451 0.0
H728 H 0.97586 0.21685 0.22976 0.0
H729 H 0.89286 0.24146 0.28647 0.0
H730 H 0.94259 0.21663 0.15693 0.0
H731 H 0.95157 0.25882 0.15812 0.0
H732 H 0.97981 0.23027 0.17476 0.0
H733 H 0.84791 0.26813 0.26447 0.0
H734 H 0.85122 0.28628 0.22512 0.0
H735 H 0.83818 0.24534 0.22881 0.0
H736 H 0.87017 0.31564 0.12178 0.0
H737 H 0.8435 0.21552 0.1179 0.0
H738 H 0.92918 0.31014 0.17841 0.0
H739 H 0.89484 0.31767 0.20319 0.0
H740 H 0.89874 0.33806 0.16501 0.0
H741 H 0.89382 0.18695 0.17624 0.0
H742 H 0.85411 0.17972 0.16006 0.0
H743 H 0.85908 0.19773 0.19929 0.0
C744 C 0.01218 0.05401 0.65016 0.0
C745 C -0.00621 0.06986 0.6737 0.0
C746 C 0.0107 0.02044 0.6466 0.0
C747 C 0.98976 0.00243 0.66654 0.0
C748 C 0.96949 0.01852 0.68879 0.0
C749 C 0.97206 0.05205 0.69241 0.0
C750 C 0.03303 0.00414 0.62298 0.0
C751 C 0.94611 0.00015 0.70978 0.0
C752 C 0.96777 0.91586 0.64735 0.0
C753 C 0.98525 0.89915 0.67102 0.0
C754 C 0.96984 0.94949 0.64475 0.0
C755 C 0.99044 0.96667 0.66582 0.0
C756 C 0.01005 0.94971 0.68802 0.0
C757 C 0.00693 0.91613 0.69063 0.0
C758 C 0.94825 0.96672 0.62108 0.0
C759 C 0.03308 0.96718 0.7102 0.0
H760 H 0.02931 0.06758 0.63581 0.0
H761 H 0.95772 0.06421 0.71051 0.0
H762 H 0.05159 0.99037 0.63641 0.0
H763 H 0.0196 0.98668 0.60779 0.0
H764 H 0.04543 0.02172 0.60703 0.0
H765 H 0.92986 0.01644 0.72342 0.0
H766 H 0.93119 0.98363 0.69489 0.0
H767 H 0.95965 0.98514 0.72726 0.0
H768 H 0.95073 0.90296 0.63226 0.0
H769 H 0.0206 0.90332 0.70882 0.0
H770 H 0.96211 0.98479 0.60707 0.0
H771 H 0.92924 0.97991 0.63444 0.0
H772 H 0.9364 0.94979 0.60401 0.0
H773 H 0.04822 0.98433 0.69634 0.0
H774 H 0.04911 0.95031 0.72341 0.0
H775 H 0.01923 0.98141 0.72807 0.0
C776 C 0.01214 0.05281 0.28304 0.0
C777 C 0.98987 0.06999 0.30162 0.0
C778 C 0.01431 0.01914 0.28541 0.0
C779 C -0.00698 0.0023 0.30614 0.0
C780 C 0.97138 0.01964 0.32588 0.0
C781 C 0.97036 0.05334 0.32369 0.0
C782 C 0.03845 0.0015 0.26473 0.0
C783 C 0.94788 0.00254 0.34781 0.0
C784 C 0.97538 0.91667 0.27929 0.0
C785 C -0.00462 0.89888 0.29984 0.0
C786 C 0.97319 0.9503 0.28216 0.0
C787 C -0.00789 0.96651 0.30557 0.0
C788 C 0.01137 0.94857 0.32719 0.0
C789 C 0.01246 0.91492 0.32431 0.0
C790 C 0.95161 0.96859 0.25929 0.0
C791 C 0.0323 0.96501 0.35208 0.0
H792 H 0.0273 0.06562 0.26604 0.0
H793 H 0.95278 0.06646 0.33784 0.0
H794 H 0.05256 0.98432 0.27957 0.0
H795 H 0.02558 0.98726 0.24607 0.0
H796 H 0.05542 0.01824 0.25251 0.0
H797 H 0.93453 0.01958 0.36354 0.0
H798 H 0.93017 0.98893 0.33304 0.0
H799 H 0.9606 0.98484 0.36323 0.0
H800 H 0.96207 0.90437 0.26043 0.0
H801 H 0.02828 0.90137 0.34007 0.0
H802 H 0.96654 0.98336 0.24274 0.0
H803 H 0.93584 0.98534 0.27288 0.0
H804 H 0.93621 0.95226 0.24463 0.0
H805 H 0.05149 0.97902 0.33979 0.0
H806 H 0.04388 0.94752 0.3687 0.0
H807 H 0.01793 0.98228 0.36651 0.0
C808 C 0.69504 0.00014 0.92736 0.0
C809 C 0.67557 0.97932 0.9092 0.0
C810 C 0.69137 0.00242 0.96087 0.0
C811 C 0.66827 0.98275 0.97661 0.0
C812 C 0.64786 0.96246 0.95829 0.0
C813 C 0.65151 0.96127 0.92474 0.0
C814 C 0.71298 0.02506 0.97955 0.0
C815 C 0.62337 0.94073 0.97424 0.0
C816 C 0.69045 0.96651 0.06359 0.0
C817 C 0.67142 0.98923 0.07972 0.0
C818 C 0.68806 0.9626 0.0301 0.0
C819 C 0.66675 0.98247 0.01234 0.0
C820 C 0.6461 0.00403 0.02872 0.0
C821 C 0.64841 0.00685 0.06228 0.0
C822 C 0.70972 0.93856 0.01354 0.0
C823 C 0.62336 0.02593 0.01064 0.0
H824 H 0.71358 0.01419 0.91543 0.0
H825 H 0.63663 0.9448 0.91088 0.0
H826 H 0.69834 0.04072 -0.0045 0.0
H827 H 0.72947 0.01096 -0.00485 0.0
H828 H 0.72773 0.04061 0.9635 0.0
H829 H 0.6076 0.92836 0.95644 0.0
H830 H 0.63606 0.92215 0.98867 0.0
H831 H 0.60802 0.95468 -0.00895 0.0
H832 H 0.70811 0.95269 0.07698 0.0
H833 H 0.63376 0.02467 0.07452 0.0
H834 H 0.72855 0.95156 -0.00029 0.0
H835 H 0.6957 0.92377 -0.00383 0.0
H836 H 0.72179 0.92222 0.03096 0.0
H837 H 0.63754 0.04434 -0.00263 0.0
H838 H 0.60637 0.03853 0.02701 0.0
H839 H 0.60923 0.01214 -0.00741 0.0
C840 C 0.28045 0.00587 0.0671 0.0
C841 C 0.30109 0.98512 0.08389 0.0
C842 C 0.28308 0.00951 0.0336 0.0
C843 C 0.30629 -0.00873 0.01649 0.0
C844 C 0.32794 0.9712 0.03346 0.0
C845 C 0.32535 0.96869 0.06702 0.0
C846 C 0.26019 0.03192 0.01638 0.0
C847 C 0.35255 0.95088 0.01603 0.0
C848 C 0.28336 0.97487 0.92957 0.0
C849 C 0.3022 -0.00236 0.91325 0.0
C850 C 0.28569 0.97141 0.96311 0.0
C851 C 0.30663 -0.00808 0.98073 0.0
C852 C 0.32655 0.01414 0.96424 0.0
C853 C 0.32441 0.01642 0.93062 0.0
C854 C 0.26483 0.94667 0.9798 0.0
C855 C 0.3487 0.03684 0.98221 0.0
H856 H 0.26173 0.01863 0.08005 0.0
H857 H 0.34113 0.95226 0.07978 0.0
H858 H 0.27376 0.04834 0.0002 0.0
H859 H 0.2434 0.01768 0.00115 0.0
H860 H 0.24577 0.04666 0.03341 0.0
H861 H 0.36916 0.93839 0.03289 0.0
H862 H 0.33998 0.93243 0.00123 0.0
H863 H 0.36704 0.96593 -0.00064 0.0
H864 H 0.26625 0.96028 0.91618 0.0
H865 H 0.33874 0.03439 0.91816 0.0
H866 H 0.24636 0.95903 -0.00539 0.0
H867 H 0.27963 0.93175 -0.00368 0.0
H868 H 0.25235 0.93051 0.96244 0.0
H869 H 0.33409 0.05383 -0.00322 0.0
H870 H 0.36428 0.05105 0.96571 0.0
H871 H 0.3643 0.0233 -0.00086 0.0
C872 C 0.9168 0.66616 0.97282 0.0
C873 C 0.89799 0.68863 0.98967 0.0
C874 C 0.95047 0.66655 0.9751 0.0
C875 C 0.96565 0.68931 -0.00453 0.0
C876 C 0.94674 0.71071 0.01413 0.0
C877 C 0.91308 0.71046 0.01062 0.0
C878 C 0.96983 0.6438 0.95433 0.0
C879 C 0.96211 0.73456 0.03698 0.0
C880 C 0.0527 0.67365 0.01799 0.0
C881 C 0.06904 0.69602 -0.00141 0.0
C882 C 0.01902 0.67148 0.01751 0.0
C883 C 0.00135 0.69143 -0.00367 0.0
C884 C 0.01778 0.71333 0.97588 0.0
C885 C 0.0515 0.71581 0.97771 0.0
C886 C 0.00233 0.6486 0.04039 0.0
C887 C -0.00028 0.7343 0.95228 0.0
H888 H 0.90534 0.64951 0.95622 0.0
H889 H 0.89861 0.72783 0.02367 0.0
H890 H 0.98456 0.65788 0.937 0.0
H891 H 0.98673 0.62959 0.96935 0.0
H892 H 0.95429 0.62683 0.94056 0.0
H893 H 0.94398 0.74718 0.05205 0.0
H894 H 0.97949 0.72213 0.05305 0.0
H895 H 0.97581 0.75286 0.0231 0.0
H896 H 0.06621 0.65881 0.03472 0.0
H897 H 0.06415 0.73321 0.96287 0.0
H898 H 0.98734 0.63112 0.02675 0.0
H899 H 0.98588 0.66228 0.05641 0.0
H900 H 0.01965 0.63498 0.05558 0.0
H901 H 0.98426 0.71913 0.93653 0.0
H902 H 0.0162 0.74874 0.93688 0.0
H903 H 0.98363 0.75102 0.96548 0.0
C904 C 0.06484 0.34048 0.96516 0.0
C905 C 0.08277 0.31891 0.98407 0.0
C906 C 0.03117 0.34177 0.96746 0.0
C907 C 0.01517 0.32157 0.98974 0.0
C908 C 0.03332 0.30169 0.01072 0.0
C909 C 0.06693 0.30031 0.00737 0.0
C910 C 0.01266 0.36296 0.94441 0.0
C911 C 0.01711 0.28055 0.0355 0.0
C912 C 0.92737 0.3351 0.01077 0.0
C913 C 0.91234 0.30973 -0.00595 0.0
C914 C 0.96078 0.33986 0.00897 0.0
C915 C 0.97947 0.31917 0.98945 0.0
C916 C 0.96419 0.29487 0.97088 0.0
C917 C 0.93081 0.29019 0.97368 0.0
C918 C 0.97625 0.36573 0.02945 0.0
C919 C 0.98329 0.27291 0.94907 0.0
H920 H 0.07684 0.35477 0.94688 0.0
H921 H 0.08069 0.28375 0.02215 0.0
H922 H -0.0002 0.34761 0.92664 0.0
H923 H -0.00581 0.37721 0.9574 0.0
H924 H 0.02869 0.3798 0.9311 0.0
H925 H 0.03472 0.26944 0.05231 0.0
H926 H -0.00054 0.29471 0.04969 0.0
H927 H 0.00361 0.26097 0.02318 0.0
H928 H 0.91334 0.35016 0.02682 0.0
H929 H 0.91931 0.27067 0.96061 0.0
H930 H -0.00721 0.38078 0.0148 0.0
H931 H -0.0091 0.35428 0.04866 0.0
H932 H 0.95812 0.38167 0.04097 0.0
H933 H -0.00101 0.28731 0.93291 0.0
H934 H 0.9675 0.25726 0.93409 0.0
H935 H -0.00081 0.25727 0.96379 0.0
loop_
_geom_bond_atom_site_label_1
_geom_bond_atom_site_label_2
_geom_bond_distance
_geom_bond_site_symmetry_2
_ccdc_geom_bond_type
Co0 O1 2.216 . S
Co0 O2 2.091 . S
Co0 O4 2.004 . S
Co0 O10 2.021 . S
Co0 O12 2.137 . S
Co0 O13 2.244 . S
O1 Co0 2.216 . S
O1 C8 1.247 . S
O2 Co0 2.091 . S
O2 C8 1.261 . S
C3 O12 1.247 . S
C3 O13 1.272 . S
O4 Co0 2.004 . S
O4 C9 1.259 . S
Co5 O6 2.061 . S
Co5 O11 2.052 . S
Co5 O13 2.135 . S
O6 Co5 2.061 . S
O6 C9 1.235 . S
C7 O10 1.238 . S
C7 O11 1.241 . S
C8 O1 1.247 . S
C8 O2 1.261 . S
C9 O4 1.259 . S
C9 O6 1.235 . S
O10 Co0 2.021 . S
O10 C7 1.238 . S
O11 Co5 2.052 . S
O11 C7 1.241 . S
O12 Co0 2.137 . S
O12 C3 1.247 . S
O13 Co0 2.244 . S
O13 C3 1.272 . S
O13 Co5 2.135 . S
Co14 O15 2.216 . S
Co14 O16 2.091 . S
Co14 O18 2.004 . S
Co14 O24 2.021 . S
Co14 O26 2.137 . S
Co14 O27 2.244 . S
O15 Co14 2.216 . S
O15 C22 1.247 . S
O16 Co14 2.091 . S
O16 C22 1.261 . S
C17 O26 1.247 . S
C17 O27 1.272 . S
O18 Co14 2.004 . S
O18 C23 1.259 . S
Co19 O20 2.061 . S
Co19 O25 2.052 . S
Co19 O27 2.135 . S
O20 Co19 2.061 . S
O20 C23 1.235 . S
C21 O24 1.238 . S
C21 O25 1.241 . S
C22 O15 1.247 . S
C22 O16 1.261 . S
C23 O18 1.259 . S
C23 O20 1.235 . S
O24 Co14 2.021 . S
O24 C21 1.238 . S
O25 Co19 2.052 . S
O25 C21 1.241 . S
O26 Co14 2.137 . S
O26 C17 1.247 . S
O27 Co14 2.244 . S
O27 C17 1.272 . S
O27 Co19 2.135 . S
Co28 O29 2.216 . S
Co28 O30 2.091 . S
Co28 O32 2.004 . S
Co28 O38 2.021 . S
Co28 O40 2.137 . S
Co28 O41 2.244 . S
O29 Co28 2.216 . S
O29 C36 1.247 . S
O30 Co28 2.091 . S
O30 C36 1.261 . S
C31 O40 1.247 . S
C31 O41 1.272 . S
O32 Co28 2.004 . S
O32 C37 1.259 . S
Co33 O34 2.061 . S
Co33 O39 2.052 . S
Co33 O41 2.135 . S
O34 Co33 2.061 . S
O34 C37 1.235 . S
C35 O38 1.238 . S
C35 O39 1.241 . S
C36 O29 1.247 . S
C36 O30 1.261 . S
C37 O32 1.259 . S
C37 O34 1.235 . S
O38 Co28 2.021 . S
O38 C35 1.238 . S
O39 Co33 2.052 . S
O39 C35 1.241 . S
O40 Co28 2.137 . S
O40 C31 1.247 . S
O41 Co28 2.244 . S
O41 C31 1.272 . S
O41 Co33 2.135 . S
Co42 O43 2.216 . S
Co42 O44 2.091 . S
Co42 O46 2.004 . S
Co42 O52 2.021 . S
Co42 O54 2.137 . S
Co42 O55 2.244 . S
O43 Co42 2.216 . S
O43 C50 1.247 . S
O44 Co42 2.091 . S
O44 C50 1.261 . S
C45 O54 1.247 . S
C45 O55 1.272 . S
O46 Co42 2.004 . S
O46 C51 1.259 . S
Co47 O48 2.061 . S
Co47 O53 2.052 . S
Co47 O55 2.135 . S
O48 Co47 2.061 . S
O48 C51 1.235 . S
C49 O52 1.238 . S
C49 O53 1.241 . S
C50 O43 1.247 . S
C50 O44 1.261 . S
C51 O46 1.259 . S
C51 O48 1.235 . S
O52 Co42 2.021 . S
O52 C49 1.238 . S
O53 Co47 2.052 . S
O53 C49 1.241 . S
O54 Co42 2.137 . S
O54 C45 1.247 . S
O55 Co42 2.244 . S
O55 C45 1.272 . S
O55 Co47 2.135 . S
Co56 O57 2.216 . S
Co56 O58 2.091 . S
Co56 O60 2.004 . S
Co56 O66 2.021 . S
Co56 O68 2.137 . S
Co56 O69 2.244 . S
O57 Co56 2.216 . S
O57 C64 1.247 . S
O58 Co56 2.091 . S
O58 C64 1.261 . S
C59 O68 1.247 . S
C59 O69 1.272 . S
O60 Co56 2.004 . S
O60 C65 1.259 . S
Co61 O62 2.061 . S
Co61 O67 2.052 . S
Co61 O69 2.135 . S
O62 Co61 2.061 . S
O62 C65 1.235 . S
C63 O66 1.238 . S
C63 O67 1.241 . S
C64 O57 1.247 . S
C64 O58 1.261 . S
C65 O60 1.259 . S
C65 O62 1.235 . S
O66 Co56 2.021 . S
O66 C63 1.238 . S
O67 Co61 2.052 . S
O67 C63 1.241 . S
O68 Co56 2.137 . S
O68 C59 1.247 . S
O69 Co56 2.244 . S
O69 C59 1.272 . S
O69 Co61 2.135 . S
Co70 O71 2.216 . S
Co70 O72 2.091 . S
Co70 O74 2.004 . S
Co70 O80 2.021 . S
Co70 O82 2.137 . S
Co70 O83 2.244 . S
O71 Co70 2.216 . S
O71 C78 1.247 . S
O72 Co70 2.091 . S
O72 C78 1.261 . S
C73 O82 1.247 . S
C73 O83 1.272 . S
O74 Co70 2.004 . S
O74 C79 1.259 . S
Co75 O76 2.061 . S
Co75 O81 2.052 . S
Co75 O83 2.135 . S
O76 Co75 2.061 . S
O76 C79 1.235 . S
C77 O80 1.238 . S
C77 O81 1.241 . S
C78 O71 1.247 . S
C78 O72 1.261 . S
C79 O74 1.259 . S
C79 O76 1.235 . S
O80 Co70 2.021 . S
O80 C77 1.238 . S
O81 Co75 2.052 . S
O81 C77 1.241 . S
O82 Co70 2.137 . S
O82 C73 1.247 . S
O83 Co70 2.244 . S
O83 C73 1.272 . S
O83 Co75 2.135 . S
Co84 O85 2.216 . S
Co84 O86 2.091 . S
Co84 O88 2.004 . S
Co84 O94 2.021 . S
Co84 O96 2.137 . S
Co84 O97 2.244 . S
O85 Co84 2.216 . S
O85 C92 1.247 . S
O86 Co84 2.091 . S
O86 C92 1.261 . S
C87 O96 1.247 . S
C87 O97 1.272 . S
O88 Co84 2.004 . S
O88 C93 1.259 . S
Co89 O90 2.061 . S
Co89 O95 2.052 . S
Co89 O97 2.135 . S
O90 Co89 2.061 . S
O90 C93 1.235 . S
C91 O94 1.238 . S
C91 O95 1.241 . S
C92 O85 1.247 . S
C92 O86 1.261 . S
C93 O88 1.259 . S
C93 O90 1.235 . S
O94 Co84 2.021 . S
O94 C91 1.238 . S
O95 Co89 2.052 . S
O95 C91 1.241 . S
O96 Co84 2.137 . S
O96 C87 1.247 . S
O97 Co84 2.244 . S
O97 C87 1.272 . S
O97 Co89 2.135 . S
Co98 O99 2.216 . S
Co98 O100 2.091 . S
Co98 O102 2.004 . S
Co98 O108 2.021 . S
Co98 O110 2.137 . S
Co98 O111 2.244 . S
O99 Co98 2.216 . S
O99 C106 1.247 . S
O100 Co98 2.091 . S
O100 C106 1.261 . S
C101 O110 1.247 . S
C101 O111 1.272 . S
O102 Co98 2.004 . S
O102 C107 1.259 . S
Co103 O104 2.061 . S
Co103 O109 2.052 . S
Co103 O111 2.135 . S
O104 Co103 2.061 . S
O104 C107 1.235 . S
C105 O108 1.238 . S
C105 O109 1.241 . S
C106 O99 1.247 . S
C106 O100 1.261 . S
C107 O102 1.259 . S
C107 O104 1.235 . S
O108 Co98 2.021 . S
O108 C105 1.238 . S
O109 Co103 2.052 . S
O109 C105 1.241 . S
O110 Co98 2.137 . S
O110 C101 1.247 . S
O111 Co98 2.244 . S
O111 C101 1.272 . S
O111 Co103 2.135 . S
Co112 O113 2.216 . S
Co112 O114 2.091 . S
Co112 O116 2.004 . S
Co112 O122 2.021 . S
Co112 O124 2.137 . S
Co112 O125 2.244 . S
O113 Co112 2.216 . S
O113 C120 1.247 . S
O114 Co112 2.091 . S
O114 C120 1.261 . S
C115 O124 1.247 . S
C115 O125 1.272 . S
O116 Co112 2.004 . S
O116 C121 1.259 . S
Co117 O118 2.061 . S
Co117 O123 2.052 . S
Co117 O125 2.135 . S
O118 Co117 2.061 . S
O118 C121 1.235 . S
C119 O122 1.238 . S
C119 O123 1.241 . S
C120 O113 1.247 . S
C120 O114 1.261 . S
C121 O116 1.259 . S
C121 O118 1.235 . S
O122 Co112 2.021 . S
O122 C119 1.238 . S
O123 Co117 2.052 . S
O123 C119 1.241 . S
O124 Co112 2.137 . S
O124 C115 1.247 . S
O125 Co112 2.244 . S
O125 C115 1.272 . S
O125 Co117 2.135 . S
Co126 O127 2.216 . S
Co126 O128 2.091 . S
Co126 O130 2.004 . S
Co126 O136 2.021 . S
Co126 O138 2.137 . S
Co126 O139 2.244 . S
O127 Co126 2.216 . S
O127 C134 1.247 . S
O128 Co126 2.091 . S
O128 C134 1.261 . S
C129 O138 1.247 . S
C129 O139 1.272 . S
O130 Co126 2.004 . S
O130 C135 1.259 . S
Co131 O132 2.061 . S
Co131 O137 2.052 . S
Co131 O139 2.135 . S
O132 Co131 2.061 . S
O132 C135 1.235 . S
C133 O136 1.238 . S
C133 O137 1.241 . S
C134 O127 1.247 . S
C134 O128 1.261 . S
C135 O130 1.259 . S
C135 O132 1.235 . S
O136 Co126 2.021 . S
O136 C133 1.238 . S
O137 Co131 2.052 . S
O137 C133 1.241 . S
O138 Co126 2.137 . S
O138 C129 1.247 . S
O139 Co126 2.244 . S
O139 C129 1.272 . S
O139 Co131 2.135 . S
Co140 O141 2.216 . S
Co140 O142 2.091 . S
Co140 O144 2.004 . S
Co140 O150 2.021 . S
Co140 O152 2.137 . S
Co140 O153 2.244 . S
O141 Co140 2.216 . S
O141 C148 1.247 . S
O142 Co140 2.091 . S
O142 C148 1.261 . S
C143 O152 1.247 . S
C143 O153 1.272 . S
O144 Co140 2.004 . S
O144 C149 1.259 . S
Co145 O146 2.061 . S
Co145 O151 2.052 . S
Co145 O153 2.135 . S
O146 Co145 2.061 . S
O146 C149 1.235 . S
C147 O150 1.238 . S
C147 O151 1.241 . S
C148 O141 1.247 . S
C148 O142 1.261 . S
C149 O144 1.259 . S
C149 O146 1.235 . S
O150 Co140 2.021 . S
O150 C147 1.238 . S
O151 Co145 2.052 . S
O151 C147 1.241 . S
O152 Co140 2.137 . S
O152 C143 1.247 . S
O153 Co140 2.244 . S
O153 C143 1.272 . S
O153 Co145 2.135 . S
Co154 O155 2.216 . S
Co154 O156 2.091 . S
Co154 O158 2.004 . S
Co154 O164 2.021 . S
Co154 O166 2.137 . S
Co154 O167 2.244 . S
O155 Co154 2.216 . S
O155 C162 1.247 . S
O156 Co154 2.091 . S
O156 C162 1.261 . S
C157 O166 1.247 . S
C157 O167 1.272 . S
O158 Co154 2.004 . S
O158 C163 1.259 . S
Co159 O160 2.061 . S
Co159 O165 2.052 . S
Co159 O167 2.135 . S
O160 Co159 2.061 . S
O160 C163 1.235 . S
C161 O164 1.238 . S
C161 O165 1.241 . S
C162 O155 1.247 . S
C162 O156 1.261 . S
C163 O158 1.259 . S
C163 O160 1.235 . S
O164 Co154 2.021 . S
O164 C161 1.238 . S
O165 Co159 2.052 . S
O165 C161 1.241 . S
O166 Co154 2.137 . S
O166 C157 1.247 . S
O167 Co154 2.244 . S
O167 C157 1.272 . S
O167 Co159 2.135 . S
C168 C169 1.391 . S
C168 C170 1.394 . S
C168 H184 0.931 . S
C169 C168 1.391 . S
C169 C173 1.376 . S
C170 C168 1.394 . S
C170 C171 1.369 . S
C170 C174 1.531 1_655 S
C171 C170 1.369 . S
C171 C172 1.410 . S
C171 C179 1.503 1_655 S
C172 C171 1.410 . S
C172 C173 1.392 . S
C172 C175 1.511 . S
C173 C169 1.376 . S
C173 C172 1.392 . S
C173 H185 0.929 . S
C174 C170 1.531 1_455 S
C174 H186 0.960 . S
C174 H187 0.962 . S
C174 H188 0.960 . S
C175 C172 1.511 . S
C175 H189 0.961 . S
C175 H190 0.961 . S
C175 H191 0.961 . S
C176 C177 1.370 . S
C176 C178 1.363 . S
C176 H192 0.931 . S
C177 C176 1.370 . S
C177 C181 1.408 . S
C178 C176 1.363 . S
C178 C179 1.370 . S
C178 C182 1.524 . S
C179 C171 1.503 1_455 S
C179 C178 1.370 . S
C179 C180 1.403 . S
C180 C179 1.403 . S
C180 C181 1.404 . S
C180 C183 1.539 1_455 S
C181 C177 1.408 . S
C181 C180 1.404 . S
C181 H193 0.930 . S
C182 C178 1.524 . S
C182 H194 0.956 . S
C182 H195 0.961 . S
C182 H196 0.961 . S
C183 C180 1.539 1_655 S
C183 H197 0.958 . S
C183 H198 0.961 . S
C183 H199 0.960 . S
H184 C168 0.931 . S
H185 C173 0.929 . S
H186 C174 0.960 . S
H187 C174 0.962 . S
H188 C174 0.960 . S
H189 C175 0.961 . S
H190 C175 0.961 . S
H191 C175 0.961 . S
H192 C176 0.931 . S
H193 C181 0.930 . S
H194 C182 0.956 . S
H195 C182 0.961 . S
H196 C182 0.961 . S
H197 C183 0.958 . S
H198 C183 0.961 . S
H199 C183 0.960 . S
C200 C201 1.391 . S
C200 C202 1.394 . S
C200 H216 0.931 . S
C201 C200 1.391 . S
C201 C205 1.376 . S
C202 C200 1.394 . S
C202 C203 1.369 . S
C202 C206 1.531 . S
C203 C202 1.369 . S
C203 C204 1.410 1_455 S
C203 C211 1.503 1_455 S
C204 C203 1.410 1_655 S
C204 C205 1.392 1_655 S
C204 C207 1.511 . S
C205 C201 1.376 . S
C205 C204 1.392 1_455 S
C205 H217 0.929 . S
C206 C202 1.531 . S
C206 H218 0.960 . S
C206 H219 0.962 . S
C206 H220 0.960 . S
C207 C204 1.511 . S
C207 H221 0.961 . S
C207 H222 0.961 . S
C207 H223 0.961 . S
C208 C209 1.370 . S
C208 C210 1.363 . S
C208 H224 0.931 . S
C209 C208 1.370 . S
C209 C213 1.408 . S
C210 C208 1.363 . S
C210 C211 1.370 . S
C210 C214 1.524 1_655 S
C211 C203 1.503 1_655 S
C211 C210 1.370 . S
C211 C212 1.403 . S
C212 C211 1.403 . S
C212 C213 1.404 . S
C212 C215 1.539 . S
C213 C209 1.408 . S
C213 C212 1.404 . S
C213 H225 0.930 . S
C214 C210 1.524 1_455 S
C214 H226 0.956 . S
C214 H227 0.961 . S
C214 H228 0.961 . S
C215 C212 1.539 . S
C215 H229 0.958 . S
C215 H230 0.961 . S
C215 H231 0.960 . S
H216 C200 0.931 . S
H217 C205 0.929 . S
H218 C206 0.960 . S
H219 C206 0.962 . S
H220 C206 0.960 . S
H221 C207 0.961 . S
H222 C207 0.961 . S
H223 C207 0.961 . S
H224 C208 0.931 . S
H225 C213 0.930 . S
H226 C214 0.956 . S
H227 C214 0.961 . S
H228 C214 0.961 . S
H229 C215 0.958 . S
H230 C215 0.961 . S
H231 C215 0.960 . S
C232 C233 1.391 . S
C232 C234 1.394 . S
C232 H248 0.931 . S
C233 C232 1.391 . S
C233 C237 1.376 . S
C234 C232 1.394 . S
C234 C235 1.369 . S
C234 C238 1.531 . S
C235 C234 1.369 . S
C235 C236 1.410 1_565 S
C235 C243 1.503 1_565 S
C236 C235 1.410 1_545 S
C236 C237 1.392 1_545 S
C236 C239 1.511 . S
C237 C233 1.376 . S
C237 C236 1.392 1_565 S
C237 H249 0.929 . S
C238 C234 1.531 . S
C238 H250 0.960 . S
C238 H251 0.962 . S
C238 H252 0.960 . S
C239 C236 1.511 . S
C239 H253 0.961 . S
C239 H254 0.961 . S
C239 H255 0.961 . S
C240 C241 1.370 . S
C240 C242 1.363 . S
C240 H256 0.931 . S
C241 C240 1.370 . S
C241 C245 1.408 . S
C242 C240 1.363 . S
C242 C243 1.370 . S
C242 C246 1.524 1_545 S
C243 C235 1.503 1_545 S
C243 C242 1.370 . S
C243 C244 1.403 . S
C244 C243 1.403 . S
C244 C245 1.404 . S
C244 C247 1.539 . S
C245 C241 1.408 . S
C245 C244 1.404 . S
C245 H257 0.930 . S
C246 C242 1.524 1_565 S
C246 H258 0.956 . S
C246 H259 0.961 . S
C246 H260 0.961 . S
C247 C244 1.539 . S
C247 H261 0.958 . S
C247 H262 0.961 . S
C247 H263 0.960 . S
H248 C232 0.931 . S
H249 C237 0.929 . S
H250 C238 0.960 . S
H251 C238 0.962 . S
H252 C238 0.960 . S
H253 C239 0.961 . S
H254 C239 0.961 . S
H255 C239 0.961 . S
H256 C240 0.931 . S
H257 C245 0.930 . S
H258 C246 0.956 . S
H259 C246 0.961 . S
H260 C246 0.961 . S
H261 C247 0.958 . S
H262 C247 0.961 . S
H263 C247 0.960 . S
C264 C265 1.391 . S
C264 C266 1.394 . S
C264 H280 0.931 . S
C265 C264 1.391 . S
C265 C269 1.376 . S
C266 C264 1.394 . S
C266 C267 1.369 . S
C266 C270 1.531 . S
C267 C266 1.369 . S
C267 C268 1.410 1_565 S
C267 C275 1.503 1_565 S
C268 C267 1.410 1_545 S
C268 C269 1.392 1_545 S
C268 C271 1.511 . S
C269 C265 1.376 . S
C269 C268 1.392 1_565 S
C269 H281 0.929 . S
C270 C266 1.531 . S
C270 H282 0.960 . S
C270 H283 0.962 . S
C270 H284 0.960 . S
C271 C268 1.511 . S
C271 H285 0.961 . S
C271 H286 0.961 . S
C271 H287 0.961 . S
C272 C273 1.370 . S
C272 C274 1.363 . S
C272 H288 0.931 . S
C273 C272 1.370 . S
C273 C277 1.408 . S
C274 C272 1.363 . S
C274 C275 1.370 . S
C274 C278 1.524 1_545 S
C275 C267 1.503 1_545 S
C275 C274 1.370 . S
C275 C276 1.403 . S
C276 C275 1.403 . S
C276 C277 1.404 . S
C276 C279 1.539 . S
C277 C273 1.408 . S
C277 C276 1.404 . S
C277 H289 0.930 . S
C278 C274 1.524 1_565 S
C278 H290 0.956 . S
C278 H291 0.961 . S
C278 H292 0.961 . S
C279 C276 1.539 . S
C279 H293 0.958 . S
C279 H294 0.961 . S
C279 H295 0.960 . S
H280 C264 0.931 . S
H281 C269 0.929 . S
H282 C270 0.960 . S
H283 C270 0.962 . S
H284 C270 0.960 . S
H285 C271 0.961 . S
H286 C271 0.961 . S
H287 C271 0.961 . S
H288 C272 0.931 . S
H289 C277 0.930 . S
H290 C278 0.956 . S
H291 C278 0.961 . S
H292 C278 0.961 . S
H293 C279 0.958 . S
H294 C279 0.961 . S
H295 C279 0.960 . S
C296 C297 1.391 . S
C296 C298 1.394 . S
C296 H312 0.931 . S
C297 C296 1.391 . S
C297 C301 1.376 . S
C298 C296 1.394 . S
C298 C299 1.369 . S
C298 C302 1.531 . S
C299 C298 1.369 . S
C299 C300 1.410 . S
C299 C307 1.503 1_556 S
C300 C299 1.410 . S
C300 C301 1.392 . S
C300 C303 1.511 . S
C301 C297 1.376 . S
C301 C300 1.392 . S
C301 H313 0.929 . S
C302 C298 1.531 . S
C302 H314 0.960 . S
C302 H315 0.962 . S
C302 H316 0.960 . S
C303 C300 1.511 . S
C303 H317 0.961 1_556 S
C303 H318 0.961 1_556 S
C303 H319 0.961 . S
C304 C305 1.370 . S
C304 C306 1.363 . S
C304 H320 0.931 . S
C305 C304 1.370 . S
C305 C309 1.408 . S
C306 C304 1.363 . S
C306 C307 1.370 . S
C306 C310 1.524 . S
C307 C299 1.503 1_554 S
C307 C306 1.370 . S
C307 C308 1.403 1_554 S
C308 C307 1.403 1_556 S
C308 C309 1.404 1_556 S
C308 C311 1.539 . S
C309 C305 1.408 . S
C309 C308 1.404 1_554 S
C309 H321 0.930 . S
C310 C306 1.524 . S
C310 H322 0.956 . S
C310 H323 0.961 . S
C310 H324 0.961 . S
C311 C308 1.539 . S
C311 H325 0.958 . S
C311 H326 0.961 . S
C311 H327 0.960 . S
H312 C296 0.931 . S
H313 C301 0.929 . S
H314 C302 0.960 . S
H315 C302 0.962 . S
H316 C302 0.960 . S
H317 C303 0.961 1_554 S
H318 C303 0.961 1_554 S
H319 C303 0.961 . S
H320 C304 0.931 . S
H321 C309 0.930 . S
H322 C310 0.956 . S
H323 C310 0.961 . S
H324 C310 0.961 . S
H325 C311 0.958 . S
H326 C311 0.961 . S
H327 C311 0.960 . S
C328 C329 1.391 . S
C328 C330 1.394 . S
C328 H344 0.931 . S
C329 C328 1.391 . S
C329 C333 1.376 . S
C330 C328 1.394 . S
C330 C331 1.369 . S
C330 C334 1.531 1_556 S
C331 C330 1.369 . S
C331 C332 1.410 . S
C331 C339 1.503 1_556 S
C332 C331 1.410 . S
C332 C333 1.392 . S
C332 C335 1.511 . S
C333 C329 1.376 . S
C333 C332 1.392 . S
C333 H345 0.929 . S
C334 C330 1.531 1_554 S
C334 H346 0.960 . S
C334 H347 0.962 . S
C334 H348 0.960 1_554 S
C335 C332 1.511 . S
C335 H349 0.961 . S
C335 H350 0.961 . S
C335 H351 0.961 . S
C336 C337 1.370 . S
C336 C338 1.363 . S
C336 H352 0.931 . S
C337 C336 1.370 . S
C337 C341 1.408 . S
C338 C336 1.363 . S
C338 C339 1.370 . S
C338 C342 1.524 . S
C339 C331 1.503 1_554 S
C339 C338 1.370 . S
C339 C340 1.403 1_554 S
C340 C339 1.403 1_556 S
C340 C341 1.404 1_556 S
C340 C343 1.539 . S
C341 C337 1.408 . S
C341 C340 1.404 1_554 S
C341 H353 0.930 . S
C342 C338 1.524 . S
C342 H354 0.956 . S
C342 H355 0.961 . S
C342 H356 0.961 . S
C343 C340 1.539 . S
C343 H357 0.958 . S
C343 H358 0.961 . S
C343 H359 0.960 . S
H344 C328 0.931 . S
H345 C333 0.929 . S
H346 C334 0.960 . S
H347 C334 0.962 . S
H348 C334 0.960 1_556 S
H349 C335 0.961 . S
H350 C335 0.961 . S
H351 C335 0.961 . S
H352 C336 0.931 . S
H353 C341 0.930 . S
H354 C342 0.956 . S
H355 C342 0.961 . S
H356 C342 0.961 . S
H357 C343 0.958 . S
H358 C343 0.961 . S
H359 C343 0.960 . S
C360 C361 1.391 . S
C360 C362 1.394 . S
C360 H376 0.931 . S
C361 C360 1.391 . S
C361 C365 1.376 . S
C362 C360 1.394 . S
C362 C363 1.369 . S
C362 C366 1.531 . S
C363 C362 1.369 . S
C363 C364 1.410 . S
C363 C371 1.503 . S
C364 C363 1.410 . S
C364 C365 1.392 . S
C364 C367 1.511 . S
C365 C361 1.376 . S
C365 C364 1.392 . S
C365 H377 0.929 . S
C366 C362 1.531 . S
C366 H378 0.960 . S
C366 H379 0.962 . S
C366 H380 0.960 . S
C367 C364 1.511 . S
C367 H381 0.961 . S
C367 H382 0.961 . S
C367 H383 0.961 . S
C368 C369 1.370 . S
C368 C370 1.363 . S
C368 H384 0.931 . S
C369 C368 1.370 . S
C369 C373 1.408 . S
C370 C368 1.363 . S
C370 C371 1.370 . S
C370 C374 1.524 . S
C371 C363 1.503 . S
C371 C370 1.370 . S
C371 C372 1.403 . S
C372 C371 1.403 . S
C372 C373 1.404 . S
C372 C375 1.539 . S
C373 C369 1.408 . S
C373 C372 1.404 . S
C373 H385 0.930 . S
C374 C370 1.524 . S
C374 H386 0.956 . S
C374 H387 0.961 . S
C374 H388 0.961 . S
C375 C372 1.539 . S
C375 H389 0.958 . S
C375 H390 0.961 . S
C375 H391 0.960 . S
H376 C360 0.931 . S
H377 C365 0.929 . S
H378 C366 0.960 . S
H379 C366 0.962 . S
H380 C366 0.960 . S
H381 C367 0.961 . S
H382 C367 0.961 . S
H383 C367 0.961 . S
H384 C368 0.931 . S
H385 C373 0.930 . S
H386 C374 0.956 . S
H387 C374 0.961 . S
H388 C374 0.961 . S
H389 C375 0.958 . S
H390 C375 0.961 . S
H391 C375 0.960 . S
C392 C393 1.391 . S
C392 C394 1.394 . S
C392 H408 0.931 . S
C393 C392 1.391 . S
C393 C397 1.376 . S
C394 C392 1.394 . S
C394 C395 1.369 . S
C394 C398 1.531 . S
C395 C394 1.369 . S
C395 C396 1.410 . S
C395 C403 1.503 . S
C396 C395 1.410 . S
C396 C397 1.392 . S
C396 C399 1.511 . S
C397 C393 1.376 . S
C397 C396 1.392 . S
C397 H409 0.929 . S
C398 C394 1.531 . S
C398 H410 0.960 . S
C398 H411 0.962 . S
C398 H412 0.960 . S
C399 C396 1.511 . S
C399 H413 0.961 . S
C399 H414 0.961 . S
C399 H415 0.961 . S
C400 C401 1.370 . S
C400 C402 1.363 . S
C400 H416 0.931 . S
C401 C400 1.370 . S
C401 C405 1.408 . S
C402 C400 1.363 . S
C402 C403 1.370 . S
C402 C406 1.524 . S
C403 C395 1.503 . S
C403 C402 1.370 . S
C403 C404 1.403 . S
C404 C403 1.403 . S
C404 C405 1.404 . S
C404 C407 1.539 . S
C405 C401 1.408 . S
C405 C404 1.404 . S
C405 H417 0.930 . S
C406 C402 1.524 . S
C406 H418 0.956 . S
C406 H419 0.961 . S
C406 H420 0.961 . S
C407 C404 1.539 . S
C407 H421 0.958 . S
C407 H422 0.961 . S
C407 H423 0.960 . S
H408 C392 0.931 . S
H409 C397 0.929 . S
H410 C398 0.960 . S
H411 C398 0.962 . S
H412 C398 0.960 . S
H413 C399 0.961 . S
H414 C399 0.961 . S
H415 C399 0.961 . S
H416 C400 0.931 . S
H417 C405 0.930 . S
H418 C406 0.956 . S
H419 C406 0.961 . S
H420 C406 0.961 . S
H421 C407 0.958 . S
H422 C407 0.961 . S
H423 C407 0.960 . S
C424 C425 1.391 . S
C424 C426 1.394 . S
C424 H440 0.931 . S
C425 C424 1.391 . S
C425 C429 1.376 . S
C426 C424 1.394 . S
C426 C427 1.369 . S
C426 C430 1.531 . S
C427 C426 1.369 . S
C427 C428 1.410 . S
C427 C435 1.503 . S
C428 C427 1.410 . S
C428 C429 1.392 . S
C428 C431 1.511 . S
C429 C425 1.376 . S
C429 C428 1.392 . S
C429 H441 0.929 . S
C430 C426 1.531 . S
C430 H442 0.960 . S
C430 H443 0.962 . S
C430 H444 0.960 . S
C431 C428 1.511 . S
C431 H445 0.961 . S
C431 H446 0.961 . S
C431 H447 0.961 . S
C432 C433 1.370 . S
C432 C434 1.363 . S
C432 H448 0.931 . S
C433 C432 1.370 . S
C433 C437 1.408 . S
C434 C432 1.363 . S
C434 C435 1.370 . S
C434 C438 1.524 . S
C435 C427 1.503 . S
C435 C434 1.370 . S
C435 C436 1.403 . S
C436 C435 1.403 . S
C436 C437 1.404 . S
C436 C439 1.539 . S
C437 C433 1.408 . S
C437 C436 1.404 . S
C437 H449 0.930 . S
C438 C434 1.524 . S
C438 H450 0.956 . S
C438 H451 0.961 . S
C438 H452 0.961 . S
C439 C436 1.539 . S
C439 H453 0.958 . S
C439 H454 0.961 . S
C439 H455 0.960 . S
H440 C424 0.931 . S
H441 C429 0.929 . S
H442 C430 0.960 . S
H443 C430 0.962 . S
H444 C430 0.960 . S
H445 C431 0.961 . S
H446 C431 0.961 . S
H447 C431 0.961 . S
H448 C432 0.931 . S
H449 C437 0.930 . S
H450 C438 0.956 . S
H451 C438 0.961 . S
H452 C438 0.961 . S
H453 C439 0.958 . S
H454 C439 0.961 . S
H455 C439 0.960 . S
C456 C457 1.391 . S
C456 C458 1.394 . S
C456 H472 0.931 . S
C457 C456 1.391 . S
C457 C461 1.376 . S
C458 C456 1.394 . S
C458 C459 1.369 . S
C458 C462 1.531 . S
C459 C458 1.369 . S
C459 C460 1.410 . S
C459 C467 1.503 . S
C460 C459 1.410 . S
C460 C461 1.392 . S
C460 C463 1.511 . S
C461 C457 1.376 . S
C461 C460 1.392 . S
C461 H473 0.929 . S
C462 C458 1.531 . S
C462 H474 0.960 . S
C462 H475 0.962 . S
C462 H476 0.960 . S
C463 C460 1.511 . S
C463 H477 0.961 . S
C463 H478 0.961 . S
C463 H479 0.961 . S
C464 C465 1.370 . S
C464 C466 1.363 . S
C464 H480 0.931 . S
C465 C464 1.370 . S
C465 C469 1.408 . S
C466 C464 1.363 . S
C466 C467 1.370 . S
C466 C470 1.524 . S
C467 C459 1.503 . S
C467 C466 1.370 . S
C467 C468 1.403 . S
C468 C467 1.403 . S
C468 C469 1.404 . S
C468 C471 1.539 . S
C469 C465 1.408 . S
C469 C468 1.404 . S
C469 H481 0.930 . S
C470 C466 1.524 . S
C470 H482 0.956 . S
C470 H483 0.961 . S
C470 H484 0.961 . S
C471 C468 1.539 . S
C471 H485 0.958 . S
C471 H486 0.961 . S
C471 H487 0.960 . S
H472 C456 0.931 . S
H473 C461 0.929 . S
H474 C462 0.960 . S
H475 C462 0.962 . S
H476 C462 0.960 . S
H477 C463 0.961 . S
H478 C463 0.961 . S
H479 C463 0.961 . S
H480 C464 0.931 . S
H481 C469 0.930 . S
H482 C470 0.956 . S
H483 C470 0.961 . S
H484 C470 0.961 . S
H485 C471 0.958 . S
H486 C471 0.961 . S
H487 C471 0.960 . S
C488 C489 1.391 . S
C488 C490 1.394 . S
C488 H504 0.931 . S
C489 C488 1.391 . S
C489 C493 1.376 . S
C490 C488 1.394 . S
C490 C491 1.369 . S
C490 C494 1.531 . S
C491 C490 1.369 . S
C491 C492 1.410 . S
C491 C499 1.503 . S
C492 C491 1.410 . S
C492 C493 1.392 . S
C492 C495 1.511 . S
C493 C489 1.376 . S
C493 C492 1.392 . S
C493 H505 0.929 . S
C494 C490 1.531 . S
C494 H506 0.960 . S
C494 H507 0.962 . S
C494 H508 0.960 . S
C495 C492 1.511 . S
C495 H509 0.961 . S
C495 H510 0.961 . S
C495 H511 0.961 . S
C496 C497 1.370 . S
C496 C498 1.363 . S
C496 H512 0.931 . S
C497 C496 1.370 . S
C497 C501 1.408 . S
C498 C496 1.363 . S
C498 C499 1.370 . S
C498 C502 1.524 . S
C499 C491 1.503 . S
C499 C498 1.370 . S
C499 C500 1.403 . S
C500 C499 1.403 . S
C500 C501 1.404 . S
C500 C503 1.539 . S
C501 C497 1.408 . S
C501 C500 1.404 . S
C501 H513 0.930 . S
C502 C498 1.524 . S
C502 H514 0.956 . S
C502 H515 0.961 . S
C502 H516 0.961 . S
C503 C500 1.539 . S
C503 H517 0.958 . S
C503 H518 0.961 . S
C503 H519 0.960 . S
H504 C488 0.931 . S
H505 C493 0.929 . S
H506 C494 0.960 . S
H507 C494 0.962 . S
H508 C494 0.960 . S
H509 C495 0.961 . S
H510 C495 0.961 . S
H511 C495 0.961 . S
H512 C496 0.931 . S
H513 C501 0.930 . S
H514 C502 0.956 . S
H515 C502 0.961 . S
H516 C502 0.961 . S
H517 C503 0.958 . S
H518 C503 0.961 . S
H519 C503 0.960 . S
C520 C521 1.391 . S
C520 C522 1.394 . S
C520 H536 0.931 . S
C521 C520 1.391 . S
C521 C525 1.376 . S
C522 C520 1.394 . S
C522 C523 1.369 . S
C522 C526 1.531 . S
C523 C522 1.369 . S
C523 C524 1.410 . S
C523 C531 1.503 . S
C524 C523 1.410 . S
C524 C525 1.392 . S
C524 C527 1.511 . S
C525 C521 1.376 . S
C525 C524 1.392 . S
C525 H537 0.929 . S
C526 C522 1.531 . S
C526 H538 0.960 . S
C526 H539 0.962 . S
C526 H540 0.960 . S
C527 C524 1.511 . S
C527 H541 0.961 . S
C527 H542 0.961 . S
C527 H543 0.961 . S
C528 C529 1.370 . S
C528 C530 1.363 . S
C528 H544 0.931 . S
C529 C528 1.370 . S
C529 C533 1.408 . S
C530 C528 1.363 . S
C530 C531 1.370 . S
C530 C534 1.524 . S
C531 C523 1.503 . S
C531 C530 1.370 . S
C531 C532 1.403 . S
C532 C531 1.403 . S
C532 C533 1.404 . S
C532 C535 1.539 . S
C533 C529 1.408 . S
C533 C532 1.404 . S
C533 H545 0.930 . S
C534 C530 1.524 . S
C534 H546 0.956 . S
C534 H547 0.961 . S
C534 H548 0.961 . S
C535 C532 1.539 . S
C535 H549 0.958 . S
C535 H550 0.961 . S
C535 H551 0.960 . S
H536 C520 0.931 . S
H537 C525 0.929 . S
H538 C526 0.960 . S
H539 C526 0.962 . S
H540 C526 0.960 . S
H541 C527 0.961 . S
H542 C527 0.961 . S
H543 C527 0.961 . S
H544 C528 0.931 . S
H545 C533 0.930 . S
H546 C534 0.956 . S
H547 C534 0.961 . S
H548 C534 0.961 . S
H549 C535 0.958 . S
H550 C535 0.961 . S
H551 C535 0.960 . S
C552 C553 1.391 . S
C552 C554 1.394 . S
C552 H568 0.931 . S
C553 C552 1.391 . S
C553 C557 1.376 . S
C554 C552 1.394 . S
C554 C555 1.369 . S
C554 C558 1.531 . S
C555 C554 1.369 . S
C555 C556 1.410 . S
C555 C563 1.503 . S
C556 C555 1.410 . S
C556 C557 1.392 . S
C556 C559 1.511 . S
C557 C553 1.376 . S
C557 C556 1.392 . S
C557 H569 0.929 . S
C558 C554 1.531 . S
C558 H570 0.960 . S
C558 H571 0.962 . S
C558 H572 0.960 . S
C559 C556 1.511 . S
C559 H573 0.961 . S
C559 H574 0.961 . S
C559 H575 0.961 . S
C560 C561 1.370 . S
C560 C562 1.363 . S
C560 H576 0.931 . S
C561 C560 1.370 . S
C561 C565 1.408 . S
C562 C560 1.363 . S
C562 C563 1.370 . S
C562 C566 1.524 . S
C563 C555 1.503 . S
C563 C562 1.370 . S
C563 C564 1.403 . S
C564 C563 1.403 . S
C564 C565 1.404 . S
C564 C567 1.539 . S
C565 C561 1.408 . S
C565 C564 1.404 . S
C565 H577 0.930 . S
C566 C562 1.524 . S
C566 H578 0.956 . S
C566 H579 0.961 . S
C566 H580 0.961 . S
C567 C564 1.539 . S
C567 H581 0.958 . S
C567 H582 0.961 . S
C567 H583 0.960 . S
H568 C552 0.931 . S
H569 C557 0.929 . S
H570 C558 0.960 . S
H571 C558 0.962 . S
H572 C558 0.960 . S
H573 C559 0.961 . S
H574 C559 0.961 . S
H575 C559 0.961 . S
H576 C560 0.931 . S
H577 C565 0.930 . S
H578 C566 0.956 . S
H579 C566 0.961 . S
H580 C566 0.961 . S
H581 C567 0.958 . S
H582 C567 0.961 . S
H583 C567 0.960 . S
C584 C585 1.391 . S
C584 C586 1.394 . S
C584 H600 0.931 . S
C585 C584 1.391 . S
C585 C589 1.376 . S
C586 C584 1.394 . S
C586 C587 1.369 . S
C586 C590 1.531 . S
C587 C586 1.369 . S
C587 C588 1.410 . S
C587 C595 1.503 . S
C588 C587 1.410 . S
C588 C589 1.392 . S
C588 C591 1.511 . S
C589 C585 1.376 . S
C589 C588 1.392 . S
C589 H601 0.929 . S
C590 C586 1.531 . S
C590 H602 0.960 . S
C590 H603 0.962 . S
C590 H604 0.960 . S
C591 C588 1.511 . S
C591 H605 0.961 . S
C591 H606 0.961 . S
C591 H607 0.961 . S
C592 C593 1.370 . S
C592 C594 1.363 . S
C592 H608 0.931 . S
C593 C592 1.370 . S
C593 C597 1.408 . S
C594 C592 1.363 . S
C594 C595 1.370 . S
C594 C598 1.524 . S
C595 C587 1.503 . S
C595 C594 1.370 . S
C595 C596 1.403 . S
C596 C595 1.403 . S
C596 C597 1.404 . S
C596 C599 1.539 . S
C597 C593 1.408 . S
C597 C596 1.404 . S
C597 H609 0.930 . S
C598 C594 1.524 . S
C598 H610 0.956 . S
C598 H611 0.961 . S
C598 H612 0.961 . S
C599 C596 1.539 . S
C599 H613 0.958 . S
C599 H614 0.961 . S
C599 H615 0.960 . S
H600 C584 0.931 . S
H601 C589 0.929 . S
H602 C590 0.960 . S
H603 C590 0.962 . S
H604 C590 0.960 . S
H605 C591 0.961 . S
H606 C591 0.961 . S
H607 C591 0.961 . S
H608 C592 0.931 . S
H609 C597 0.930 . S
H610 C598 0.956 . S
H611 C598 0.961 . S
H612 C598 0.961 . S
H613 C599 0.958 . S
H614 C599 0.961 . S
H615 C599 0.960 . S
C616 C617 1.391 . S
C616 C618 1.394 . S
C616 H632 0.931 . S
C617 C616 1.391 . S
C617 C621 1.376 . S
C618 C616 1.394 . S
C618 C619 1.369 . S
C618 C622 1.531 . S
C619 C618 1.369 . S
C619 C620 1.410 . S
C619 C627 1.503 . S
C620 C619 1.410 . S
C620 C621 1.392 . S
C620 C623 1.511 . S
C621 C617 1.376 . S
C621 C620 1.392 . S
C621 H633 0.929 . S
C622 C618 1.531 . S
C622 H634 0.960 . S
C622 H635 0.962 . S
C622 H636 0.960 . S
C623 C620 1.511 . S
C623 H637 0.961 . S
C623 H638 0.961 . S
C623 H639 0.961 . S
C624 C625 1.370 . S
C624 C626 1.363 . S
C624 H640 0.931 . S
C625 C624 1.370 . S
C625 C629 1.408 . S
C626 C624 1.363 . S
C626 C627 1.370 . S
C626 C630 1.524 . S
C627 C619 1.503 . S
C627 C626 1.370 . S
C627 C628 1.403 . S
C628 C627 1.403 . S
C628 C629 1.404 . S
C628 C631 1.539 . S
C629 C625 1.408 . S
C629 C628 1.404 . S
C629 H641 0.930 . S
C630 C626 1.524 . S
C630 H642 0.956 . S
C630 H643 0.961 . S
C630 H644 0.961 . S
C631 C628 1.539 . S
C631 H645 0.958 . S
C631 H646 0.961 . S
C631 H647 0.960 . S
H632 C616 0.931 . S
H633 C621 0.929 . S
H634 C622 0.960 . S
H635 C622 0.962 . S
H636 C622 0.960 . S
H637 C623 0.961 . S
H638 C623 0.961 . S
H639 C623 0.961 . S
H640 C624 0.931 . S
H641 C629 0.930 . S
H642 C630 0.956 . S
H643 C630 0.961 . S
H644 C630 0.961 . S
H645 C631 0.958 . S
H646 C631 0.961 . S
H647 C631 0.960 . S
C648 C649 1.391 . S
C648 C650 1.394 . S
C648 H664 0.931 . S
C649 C648 1.391 . S
C649 C653 1.376 . S
C650 C648 1.394 . S
C650 C651 1.369 . S
C650 C654 1.531 . S
C651 C650 1.369 . S
C651 C652 1.410 . S
C651 C659 1.503 . S
C652 C651 1.410 . S
C652 C653 1.392 . S
C652 C655 1.511 . S
C653 C649 1.376 . S
C653 C652 1.392 . S
C653 H665 0.929 . S
C654 C650 1.531 . S
C654 H666 0.960 . S
C654 H667 0.962 . S
C654 H668 0.960 . S
C655 C652 1.511 . S
C655 H669 0.961 . S
C655 H670 0.961 . S
C655 H671 0.961 . S
C656 C657 1.370 . S
C656 C658 1.363 . S
C656 H672 0.931 . S
C657 C656 1.370 . S
C657 C661 1.408 . S
C658 C656 1.363 . S
C658 C659 1.370 . S
C658 C662 1.524 . S
C659 C651 1.503 . S
C659 C658 1.370 . S
C659 C660 1.403 . S
C660 C659 1.403 . S
C660 C661 1.404 . S
C660 C663 1.539 . S
C661 C657 1.408 . S
C661 C660 1.404 . S
C661 H673 0.930 . S
C662 C658 1.524 . S
C662 H674 0.956 . S
C662 H675 0.961 . S
C662 H676 0.961 . S
C663 C660 1.539 . S
C663 H677 0.958 . S
C663 H678 0.961 . S
C663 H679 0.960 . S
H664 C648 0.931 . S
H665 C653 0.929 . S
H666 C654 0.960 . S
H667 C654 0.962 . S
H668 C654 0.960 . S
H669 C655 0.961 . S
H670 C655 0.961 . S
H671 C655 0.961 . S
H672 C656 0.931 . S
H673 C661 0.930 . S
H674 C662 0.956 . S
H675 C662 0.961 . S
H676 C662 0.961 . S
H677 C663 0.958 . S
H678 C663 0.961 . S
H679 C663 0.960 . S
C680 C681 1.391 . S
C680 C682 1.394 . S
C680 H696 0.931 . S
C681 C680 1.391 . S
C681 C685 1.376 . S
C682 C680 1.394 . S
C682 C683 1.369 . S
C682 C686 1.531 . S
C683 C682 1.369 . S
C683 C684 1.410 . S
C683 C691 1.503 . S
C684 C683 1.410 . S
C684 C685 1.392 . S
C684 C687 1.511 . S
C685 C681 1.376 . S
C685 C684 1.392 . S
C685 H697 0.929 . S
C686 C682 1.531 . S
C686 H698 0.960 . S
C686 H699 0.962 . S
C686 H700 0.960 . S
C687 C684 1.511 . S
C687 H701 0.961 . S
C687 H702 0.961 . S
C687 H703 0.961 . S
C688 C689 1.370 . S
C688 C690 1.363 . S
C688 H704 0.931 . S
C689 C688 1.370 . S
C689 C693 1.408 . S
C690 C688 1.363 . S
C690 C691 1.370 . S
C690 C694 1.524 . S
C691 C683 1.503 . S
C691 C690 1.370 . S
C691 C692 1.403 . S
C692 C691 1.403 . S
C692 C693 1.404 . S
C692 C695 1.539 . S
C693 C689 1.408 . S
C693 C692 1.404 . S
C693 H705 0.930 . S
C694 C690 1.524 . S
C694 H706 0.956 . S
C694 H707 0.961 . S
C694 H708 0.961 . S
C695 C692 1.539 . S
C695 H709 0.958 . S
C695 H710 0.961 . S
C695 H711 0.960 . S
H696 C680 0.931 . S
H697 C685 0.929 . S
H698 C686 0.960 . S
H699 C686 0.962 . S
H700 C686 0.960 . S
H701 C687 0.961 . S
H702 C687 0.961 . S
H703 C687 0.961 . S
H704 C688 0.931 . S
H705 C693 0.930 . S
H706 C694 0.956 . S
H707 C694 0.961 . S
H708 C694 0.961 . S
H709 C695 0.958 . S
H710 C695 0.961 . S
H711 C695 0.960 . S
C712 C713 1.391 . S
C712 C714 1.394 . S
C712 H728 0.931 . S
C713 C712 1.391 . S
C713 C717 1.376 . S
C714 C712 1.394 . S
C714 C715 1.369 . S
C714 C718 1.531 . S
C715 C714 1.369 . S
C715 C716 1.410 . S
C715 C723 1.503 . S
C716 C715 1.410 . S
C716 C717 1.392 . S
C716 C719 1.511 . S
C717 C713 1.376 . S
C717 C716 1.392 . S
C717 H729 0.929 . S
C718 C714 1.531 . S
C718 H730 0.960 . S
C718 H731 0.962 . S
C718 H732 0.960 . S
C719 C716 1.511 . S
C719 H733 0.961 . S
C719 H734 0.961 . S
C719 H735 0.961 . S
C720 C721 1.370 . S
C720 C722 1.363 . S
C720 H736 0.931 . S
C721 C720 1.370 . S
C721 C725 1.408 . S
C722 C720 1.363 . S
C722 C723 1.370 . S
C722 C726 1.524 . S
C723 C715 1.503 . S
C723 C722 1.370 . S
C723 C724 1.403 . S
C724 C723 1.403 . S
C724 C725 1.404 . S
C724 C727 1.539 . S
C725 C721 1.408 . S
C725 C724 1.404 . S
C725 H737 0.930 . S
C726 C722 1.524 . S
C726 H738 0.956 . S
C726 H739 0.961 . S
C726 H740 0.961 . S
C727 C724 1.539 . S
C727 H741 0.958 . S
C727 H742 0.961 . S
C727 H743 0.960 . S
H728 C712 0.931 . S
H729 C717 0.929 . S
H730 C718 0.960 . S
H731 C718 0.962 . S
H732 C718 0.960 . S
H733 C719 0.961 . S
H734 C719 0.961 . S
H735 C719 0.961 . S
H736 C720 0.931 . S
H737 C725 0.930 . S
H738 C726 0.956 . S
H739 C726 0.961 . S
H740 C726 0.961 . S
H741 C727 0.958 . S
H742 C727 0.961 . S
H743 C727 0.960 . S
C744 C745 1.391 . S
C744 C746 1.394 . S
C744 H760 0.931 . S
C745 C744 1.391 . S
C745 C749 1.376 . S
C746 C744 1.394 . S
C746 C747 1.369 . S
C746 C750 1.531 1_545 S
C747 C746 1.369 . S
C747 C748 1.410 1_455 S
C747 C755 1.503 1_445 S
C748 C747 1.410 1_655 S
C748 C749 1.392 1_655 S
C748 C751 1.511 . S
C749 C745 1.376 . S
C749 C748 1.392 1_455 S
C749 H761 0.929 1_455 S
C750 C746 1.531 1_565 S
C750 H762 0.960 . S
C750 H763 0.962 . S
C750 H764 0.960 . S
C751 C748 1.511 . S
C751 H765 0.961 . S
C751 H766 0.961 . S
C751 H767 0.961 . S
C752 C753 1.370 . S
C752 C754 1.363 . S
C752 H768 0.931 . S
C753 C752 1.370 . S
C753 C757 1.408 . S
C754 C752 1.363 . S
C754 C755 1.370 . S
C754 C758 1.524 . S
C755 C747 1.503 1_665 S
C755 C754 1.370 . S
C755 C756 1.403 . S
C756 C755 1.403 . S
C756 C757 1.404 . S
C756 C759 1.539 1_655 S
C757 C753 1.408 . S
C757 C756 1.404 . S
C757 H769 0.930 . S
C758 C754 1.524 . S
C758 H770 0.927 1_655 S
C758 H771 0.961 1_565 S
C758 H772 0.961 . S
C759 C756 1.539 1_455 S
C759 H773 0.958 . S
C759 H774 0.961 1_455 S
C759 H775 0.960 . S
H760 C744 0.931 . S
H761 C749 0.929 1_655 S
H762 C750 0.960 . S
H763 C750 0.962 . S
H764 C750 0.960 . S
H765 C751 0.961 . S
H766 C751 0.961 . S
H767 C751 0.961 . S
H768 C752 0.931 . S
H769 C757 0.930 . S
H770 C758 0.927 1_455 S
H771 C758 0.961 1_545 S
H772 C758 0.961 . S
H773 C759 0.958 . S
H774 C759 0.961 1_655 S
H775 C759 0.960 . S
C776 C777 1.391 . S
C776 C778 1.394 1_655 S
C776 H792 0.930 . S
C777 C776 1.391 . S
C777 C781 1.376 . S
C778 C776 1.394 1_455 S
C778 C779 1.369 1_455 S
C778 C782 1.531 . S
C779 C778 1.369 1_655 S
C779 C780 1.410 . S
C779 C787 1.503 1_645 S
C780 C779 1.410 . S
C780 C781 1.392 . S
C780 C783 1.511 1_545 S
C781 C777 1.376 . S
C781 C780 1.392 . S
C781 H793 0.929 . S
C782 C778 1.531 . S
C782 H794 0.960 . S
C782 H795 0.962 . S
C782 H796 0.960 . S
C783 C780 1.511 1_565 S
C783 H797 0.961 . S
C783 H798 0.961 . S
C783 H799 0.961 . S
C784 C785 1.370 . S
C784 C786 1.363 . S
C784 H800 0.931 . S
C785 C784 1.370 . S
C785 C789 1.408 . S
C786 C784 1.363 . S
C786 C787 1.370 . S
C786 C790 1.509 1_565 S
C787 C779 1.503 1_465 S
C787 C786 1.370 . S
C787 C788 1.403 . S
C788 C787 1.403 . S
C788 C789 1.404 . S
C788 C791 1.539 1_455 S
C789 C785 1.408 . S
C789 C788 1.404 . S
C789 H801 0.930 . S
C790 C786 1.509 1_545 S
C790 H802 0.974 . S
C790 H803 0.967 . S
C790 H804 0.952 1_545 S
C791 C788 1.539 1_655 S
C791 H805 0.958 . S
C791 H806 0.961 . S
C791 H807 0.960 . S
H792 C776 0.930 . S
H793 C781 0.929 . S
H794 C782 0.960 . S
H795 C782 0.962 . S
H796 C782 0.960 . S
H797 C783 0.961 . S
H798 C783 0.961 . S
H799 C783 0.961 . S
H800 C784 0.931 . S
H801 C789 0.930 . S
H802 C790 0.974 . S
H803 C790 0.967 . S
H804 C790 0.952 1_565 S
H805 C791 0.958 . S
H806 C791 0.961 . S
H807 C791 0.960 . S
C808 C809 1.391 . S
C808 C810 1.394 . S
C808 H824 0.931 . S
C809 C808 1.391 . S
C809 C813 1.376 . S
C810 C808 1.394 . S
C810 C811 1.369 . S
C810 C814 1.530 . S
C811 C810 1.369 . S
C811 C812 1.410 . S
C811 C819 1.503 1_566 S
C812 C811 1.410 . S
C812 C813 1.392 . S
C812 C815 1.509 1_565 S
C813 C809 1.376 . S
C813 C812 1.392 . S
C813 H825 0.929 . S
C814 C810 1.530 . S
C814 H826 0.963 1_565 S
C814 H827 0.959 . S
C814 H828 0.961 1_565 S
C815 C812 1.509 1_545 S
C815 H829 0.956 1_545 S
C815 H830 0.961 1_556 S
C815 H831 0.967 . S
C816 C817 1.370 . S
C816 C818 1.363 1_545 S
C816 H832 0.931 1_545 S
C817 C816 1.370 . S
C817 C821 1.408 . S
C818 C816 1.363 1_565 S
C818 C819 1.370 1_565 S
C818 C822 1.524 . S
C819 C811 1.503 1_544 S
C819 C818 1.370 1_545 S
C819 C820 1.403 . S
C820 C819 1.403 . S
C820 C821 1.404 . S
C820 C823 1.539 1_554 S
C821 C817 1.408 . S
C821 C820 1.404 . S
C821 H833 0.930 . S
C822 C818 1.524 . S
C822 H834 0.956 . S
C822 H835 0.961 . S
C822 H836 0.961 . S
C823 C820 1.539 1_556 S
C823 H837 0.958 . S
C823 H838 0.961 . S
C823 H839 0.960 . S
H824 C808 0.931 . S
H825 C813 0.929 . S
H826 C814 0.963 1_545 S
H827 C814 0.959 . S
H828 C814 0.961 1_545 S
H829 C815 0.956 1_565 S
H830 C815 0.961 1_554 S
H831 C815 0.967 . S
H832 C816 0.931 1_565 S
H833 C821 0.930 . S
H834 C822 0.956 . S
H835 C822 0.961 . S
H836 C822 0.961 . S
H837 C823 0.958 . S
H838 C823 0.961 . S
H839 C823 0.960 . S
C840 C841 1.391 . S
C840 C842 1.394 1_565 S
C840 H856 0.931 . S
C841 C840 1.391 . S
C841 C845 1.376 . S
C842 C840 1.394 1_545 S
C842 C843 1.369 1_545 S
C842 C846 1.531 . S
C843 C842 1.369 1_565 S
C843 C844 1.410 . S
C843 C851 1.503 1_564 S
C844 C843 1.410 . S
C844 C845 1.392 . S
C844 C847 1.511 . S
C845 C841 1.376 . S
C845 C844 1.392 . S
C845 H857 0.929 . S
C846 C842 1.531 . S
C846 H858 0.960 . S
C846 H859 0.962 . S
C846 H860 0.960 . S
C847 C844 1.511 . S
C847 H861 0.961 . S
C847 H862 0.961 1_554 S
C847 H863 0.961 . S
C848 C849 1.370 . S
C848 C850 1.363 1_545 S
C848 H864 0.942 . S
C849 C848 1.370 . S
C849 C853 1.408 . S
C850 C848 1.363 1_565 S
C850 C851 1.370 1_565 S
C850 C854 1.524 . S
C851 C843 1.503 1_546 S
C851 C850 1.370 1_545 S
C851 C852 1.403 . S
C852 C851 1.403 . S
C852 C853 1.404 . S
C852 C855 1.539 1_556 S
C853 C849 1.408 . S
C853 C852 1.404 . S
C853 H865 0.930 . S
C854 C850 1.524 . S
C854 H866 0.956 . S
C854 H867 0.961 . S
C854 H868 0.961 . S
C855 C852 1.539 1_554 S
C855 H869 0.958 . S
C855 H870 0.961 1_554 S
C855 H871 0.960 . S
H856 C840 0.931 . S
H857 C845 0.929 . S
H858 C846 0.960 . S
H859 C846 0.962 . S
H860 C846 0.960 . S
H861 C847 0.961 . S
H862 C847 0.961 1_556 S
H863 C847 0.961 . S
H864 C848 0.942 . S
H865 C853 0.930 . S
H866 C854 0.956 . S
H867 C854 0.961 . S
H868 C854 0.961 . S
H869 C855 0.958 . S
H870 C855 0.961 1_556 S
H871 C855 0.960 . S
C872 C873 1.391 . S
C872 C874 1.394 . S
C872 H888 0.931 . S
C873 C872 1.391 . S
C873 C877 1.376 . S
C874 C872 1.394 . S
C874 C875 1.369 . S
C874 C878 1.531 . S
C875 C874 1.369 . S
C875 C876 1.410 . S
C875 C883 1.503 1_656 S
C876 C875 1.410 . S
C876 C877 1.392 . S
C876 C879 1.511 . S
C877 C873 1.376 . S
C877 C876 1.392 . S
C877 H889 0.929 . S
C878 C874 1.531 . S
C878 H890 0.960 1_655 S
C878 H891 0.962 . S
C878 H892 0.960 . S
C879 C876 1.511 . S
C879 H893 0.961 1_556 S
C879 H894 0.961 1_556 S
C879 H895 0.961 . S
C880 C881 1.370 . S
C880 C882 1.363 . S
C880 H896 0.931 . S
C881 C880 1.370 . S
C881 C885 1.408 . S
C882 C880 1.363 . S
C882 C883 1.370 . S
C882 C886 1.524 1_455 S
C883 C875 1.503 1_454 S
C883 C882 1.370 . S
C883 C884 1.403 1_554 S
C884 C883 1.403 1_556 S
C884 C885 1.404 1_556 S
C884 C887 1.539 . S
C885 C881 1.408 . S
C885 C884 1.404 1_554 S
C885 H897 0.930 1_554 S
C886 C882 1.524 1_655 S
C886 H898 0.956 . S
C886 H899 0.961 . S
C886 H900 0.961 . S
C887 C884 1.539 . S
C887 H901 0.958 . S
C887 H902 0.961 . S
C887 H903 0.960 . S
H888 C872 0.931 . S
H889 C877 0.929 . S
H890 C878 0.960 1_455 S
H891 C878 0.962 . S
H892 C878 0.960 . S
H893 C879 0.961 1_554 S
H894 C879 0.961 1_554 S
H895 C879 0.961 . S
H896 C880 0.931 . S
H897 C885 0.930 1_556 S
H898 C886 0.956 . S
H899 C886 0.961 . S
H900 C886 0.961 . S
H901 C887 0.958 . S
H902 C887 0.961 . S
H903 C887 0.960 . S
C904 C905 1.391 . S
C904 C906 1.394 . S
C904 H920 0.931 . S
C905 C904 1.391 . S
C905 C909 1.376 . S
C906 C904 1.394 . S
C906 C907 1.369 . S
C906 C910 1.531 1_455 S
C907 C906 1.369 . S
C907 C908 1.410 1_556 S
C907 C915 1.503 1_456 S
C908 C907 1.410 1_554 S
C908 C909 1.392 1_554 S
C908 C911 1.511 . S
C909 C905 1.376 . S
C909 C908 1.392 1_556 S
C909 H921 0.929 1_556 S
C910 C906 1.531 1_655 S
C910 H922 0.960 . S
C910 H923 0.962 . S
C910 H924 0.970 . S
C911 C908 1.511 . S
C911 H925 0.961 . S
C911 H926 0.961 . S
C911 H927 0.961 . S
C912 C913 1.370 . S
C912 C914 1.363 . S
C912 H928 0.931 . S
C913 C912 1.370 . S
C913 C917 1.408 . S
C914 C912 1.363 . S
C914 C915 1.370 . S
C914 C918 1.524 1_554 S
C915 C907 1.503 1_654 S
C915 C914 1.370 . S
C915 C916 1.403 . S
C916 C915 1.403 . S
C916 C917 1.404 . S
C916 C919 1.539 . S
C917 C913 1.408 . S
C917 C916 1.404 . S
C917 H929 0.930 . S
C918 C914 1.524 1_556 S
C918 H930 0.956 . S
C918 H931 0.961 . S
C918 H932 0.961 . S
C919 C916 1.539 . S
C919 H933 0.958 . S
C919 H934 0.961 . S
C919 H935 0.960 1_655 S
H920 C904 0.931 . S
H921 C909 0.929 1_554 S
H922 C910 0.960 . S
H923 C910 0.962 . S
H924 C910 0.970 . S
H925 C911 0.961 . S
H926 C911 0.961 . S
H927 C911 0.961 . S
H928 C912 0.931 . S
H929 C917 0.930 . S
H930 C918 0.956 . S
H931 C918 0.961 . S
H932 C918 0.961 . S
H933 C919 0.958 . S
H934 C919 0.961 . S
H935 C919 0.960 1_455 S
C169 C50 0.979 . S
C177 C8 0.953 . S
C201 C36 0.918 . S
C209 C22 0.945 . S
C233 C78 0.918 . S
C241 C64 0.945 . S
C265 C92 0.918 . S
C273 C106 0.946 . S
C297 C134 0.958 . S
C305 C120 0.938 . S
C329 C148 0.976 . S
C337 C162 0.946 . S
C361 C9 0.952 . S
C369 C101 0.958 . S
C393 C87 0.984 . S
C401 C23 0.945 . S
C425 C73 0.920 . S
C433 C37 0.951 . S
C457 C59 0.957 . S
C465 C51 0.923 . S
C489 C65 0.923 . S
C497 C157 0.954 . S
C521 C115 0.929 . S
C529 C79 0.917 . S
C553 C143 0.945 . S
C561 C93 0.957 . S
C585 C107 0.924 . S
C593 C129 0.955 . S
C617 C31 0.984 . S
C625 C121 0.944 . S
C649 C3 0.981 . S
C657 C135 0.951 . S
C681 C149 0.981 . S
C689 C17 0.939 . S
C713 C45 0.907 . S
C721 C163 0.946 . S
C745 C7 1.207 . S
C753 C21 1.226 . S
C777 C49 1.246 . S
C785 C35 1.244 . S
C809 C91 1.241 . S
C817 C63 1.232 . S
C841 C77 1.252 . S
C849 C105 1.238 . S
C873 C147 1.217 . S
C881 C119 1.235 . S
C905 C133 1.215 . S
C913 C161 1.224 . S
