# Generated by pormake.
# Topology nfb, (4)-cn, num edge types: 1
# Building blocks:
#     Node 0, Type 0, BuildingBlock: QUQFOY_clean_sbu_1, # of connection points: 4
#     Node 1, Type 0, BuildingBlock: QUQFOY_clean_sbu_1, # of connection points: 4
#     Node 2, Type 0, BuildingBlock: QUQFOY_clean_sbu_1, # of connection points: 4
#     Node 3, Type 0, BuildingBlock: QUQFOY_clean_sbu_1, # of connection points: 4
#     Node 4, Type 0, BuildingBlock: QUQFOY_clean_sbu_1, # of connection points: 4
#     Node 5, Type 0, BuildingBlock: QUQFOY_clean_sbu_1, # of connection points: 4
#     Node 6, Type 0, BuildingBlock: QUQFOY_clean_sbu_1, # of connection points: 4
#     Node 7, Type 0, BuildingBlock: QUQFOY_clean_sbu_1, # of connection points: 4
#     Node 8, Type 0, BuildingBlock: QUQFOY_clean_sbu_1, # of connection points: 4
#     Node 9, Type 0, BuildingBlock: QUQFOY_clean_sbu_1, # of connection points: 4
#     Node 10, Type 0, BuildingBlock: QUQFOY_clean_sbu_1, # of connection points: 4
#     Node 11, Type 0, BuildingBlock: QUQFOY_clean_sbu_1, # of connection points: 4
#     Node 12, Type 0, BuildingBlock: QUQFOY_clean_sbu_1, # of connection points: 4
#     Node 13, Type 0, BuildingBlock: QUQFOY_clean_sbu_1, # of connection points: 4
#     Node 14, Type 0, BuildingBlock: QUQFOY_clean_sbu_1, # of connection points: 4
#     Node 15, Type 0, BuildingBlock: QUQFOY_clean_sbu_1, # of connection points: 4
#     Node 16, Type 0, BuildingBlock: QUQFOY_clean_sbu_1, # of connection points: 4
#     Node 17, Type 0, BuildingBlock: QUQFOY_clean_sbu_1, # of connection points: 4
#     Node 18, Type 0, BuildingBlock: QUQFOY_clean_sbu_1, # of connection points: 4
#     Node 19, Type 0, BuildingBlock: QUQFOY_clean_sbu_1, # of connection points: 4
#     Node 20, Type 0, BuildingBlock: QUQFOY_clean_sbu_1, # of connection points: 4
#     Node 21, Type 0, BuildingBlock: QUQFOY_clean_sbu_1, # of connection points: 4
#     Node 22, Type 0, BuildingBlock: QUQFOY_clean_sbu_1, # of connection points: 4
#     Node 23, Type 0, BuildingBlock: QUQFOY_clean_sbu_1, # of connection points: 4
#     Node 24, Type 0, BuildingBlock: QUQFOY_clean_sbu_1, # of connection points: 4
#     Node 25, Type 0, BuildingBlock: QUQFOY_clean_sbu_1, # of connection points: 4
#     Node 26, Type 0, BuildingBlock: QUQFOY_clean_sbu_1, # of connection points: 4
#     Node 27, Type 0, BuildingBlock: QUQFOY_clean_sbu_1, # of connection points: 4
#     Node 28, Type 0, BuildingBlock: QUQFOY_clean_sbu_1, # of connection points: 4
#     Node 29, Type 0, BuildingBlock: QUQFOY_clean_sbu_1, # of connection points: 4
#     Node 30, Type 0, BuildingBlock: QUQFOY_clean_sbu_1, # of connection points: 4
#     Node 31, Type 0, BuildingBlock: QUQFOY_clean_sbu_1, # of connection points: 4
#     Node 32, Type 0, BuildingBlock: QUQFOY_clean_sbu_1, # of connection points: 4
#     Node 33, Type 0, BuildingBlock: QUQFOY_clean_sbu_1, # of connection points: 4
#     Node 34, Type 0, BuildingBlock: QUQFOY_clean_sbu_1, # of connection points: 4
#     Node 35, Type 0, BuildingBlock: QUQFOY_clean_sbu_1, # of connection points: 4
#     Node 36, Type 0, BuildingBlock: QUQFOY_clean_sbu_1, # of connection points: 4
#     Node 37, Type 0, BuildingBlock: QUQFOY_clean_sbu_1, # of connection points: 4
#     Node 38, Type 0, BuildingBlock: QUQFOY_clean_sbu_1, # of connection points: 4
#     Node 39, Type 0, BuildingBlock: QUQFOY_clean_sbu_1, # of connection points: 4
#     Node 40, Type 0, BuildingBlock: QUQFOY_clean_sbu_1, # of connection points: 4
#     Node 41, Type 0, BuildingBlock: QUQFOY_clean_sbu_1, # of connection points: 4
#     Node 42, Type 0, BuildingBlock: QUQFOY_clean_sbu_1, # of connection points: 4
#     Node 43, Type 0, BuildingBlock: QUQFOY_clean_sbu_1, # of connection points: 4
#     Node 44, Type 0, BuildingBlock: QUQFOY_clean_sbu_1, # of connection points: 4
#     Node 45, Type 0, BuildingBlock: QUQFOY_clean_sbu_1, # of connection points: 4
#     Node 46, Type 0, BuildingBlock: QUQFOY_clean_sbu_1, # of connection points: 4
#     Node 47, Type 0, BuildingBlock: QUQFOY_clean_sbu_1, # of connection points: 4
#     Edge 48, Type (0, 0), BuildingBlock: CIFDUS_clean_linker_0, # of connection points: 2
#     Edge 49, Type (0, 0), BuildingBlock: CIFDUS_clean_linker_0, # of connection points: 2
#     Edge 50, Type (0, 0), BuildingBlock: CIFDUS_clean_linker_0, # of connection points: 2
#     Edge 51, Type (0, 0), BuildingBlock: CIFDUS_clean_linker_0, # of connection points: 2
#     Edge 52, Type (0, 0), BuildingBlock: CIFDUS_clean_linker_0, # of connection points: 2
#     Edge 53, Type (0, 0), BuildingBlock: CIFDUS_clean_linker_0, # of connection points: 2
#     Edge 54, Type (0, 0), BuildingBlock: CIFDUS_clean_linker_0, # of connection points: 2
#     Edge 55, Type (0, 0), BuildingBlock: CIFDUS_clean_linker_0, # of connection points: 2
#     Edge 56, Type (0, 0), BuildingBlock: CIFDUS_clean_linker_0, # of connection points: 2
#     Edge 57, Type (0, 0), BuildingBlock: CIFDUS_clean_linker_0, # of connection points: 2
#     Edge 58, Type (0, 0), BuildingBlock: CIFDUS_clean_linker_0, # of connection points: 2
#     Edge 59, Type (0, 0), BuildingBlock: CIFDUS_clean_linker_0, # of connection points: 2
#     Edge 60, Type (0, 0), BuildingBlock: CIFDUS_clean_linker_0, # of connection points: 2
#     Edge 61, Type (0, 0), BuildingBlock: CIFDUS_clean_linker_0, # of connection points: 2
#     Edge 62, Type (0, 0), BuildingBlock: CIFDUS_clean_linker_0, # of connection points: 2
#     Edge 63, Type (0, 0), BuildingBlock: CIFDUS_clean_linker_0, # of connection points: 2
#     Edge 64, Type (0, 0), BuildingBlock: CIFDUS_clean_linker_0, # of connection points: 2
#     Edge 65, Type (0, 0), BuildingBlock: CIFDUS_clean_linker_0, # of connection points: 2
#     Edge 66, Type (0, 0), BuildingBlock: CIFDUS_clean_linker_0, # of connection points: 2
#     Edge 67, Type (0, 0), BuildingBlock: CIFDUS_clean_linker_0, # of connection points: 2
#     Edge 68, Type (0, 0), BuildingBlock: CIFDUS_clean_linker_0, # of connection points: 2
#     Edge 69, Type (0, 0), BuildingBlock: CIFDUS_clean_linker_0, # of connection points: 2
#     Edge 70, Type (0, 0), BuildingBlock: CIFDUS_clean_linker_0, # of connection points: 2
#     Edge 71, Type (0, 0), BuildingBlock: CIFDUS_clean_linker_0, # of connection points: 2
#     Edge 72, Type (0, 0), BuildingBlock: CIFDUS_clean_linker_0, # of connection points: 2
#     Edge 73, Type (0, 0), BuildingBlock: CIFDUS_clean_linker_0, # of connection points: 2
#     Edge 74, Type (0, 0), BuildingBlock: CIFDUS_clean_linker_0, # of connection points: 2
#     Edge 75, Type (0, 0), BuildingBlock: CIFDUS_clean_linker_0, # of connection points: 2
#     Edge 76, Type (0, 0), BuildingBlock: CIFDUS_clean_linker_0, # of connection points: 2
#     Edge 77, Type (0, 0), BuildingBlock: CIFDUS_clean_linker_0, # of connection points: 2
#     Edge 78, Type (0, 0), BuildingBlock: CIFDUS_clean_linker_0, # of connection points: 2
#     Edge 79, Type (0, 0), BuildingBlock: CIFDUS_clean_linker_0, # of connection points: 2
#     Edge 80, Type (0, 0), BuildingBlock: CIFDUS_clean_linker_0, # of connection points: 2
#     Edge 81, Type (0, 0), BuildingBlock: CIFDUS_clean_linker_0, # of connection points: 2
#     Edge 82, Type (0, 0), BuildingBlock: CIFDUS_clean_linker_0, # of connection points: 2
#     Edge 83, Type (0, 0), BuildingBlock: CIFDUS_clean_linker_0, # of connection points: 2
#     Edge 84, Type (0, 0), BuildingBlock: CIFDUS_clean_linker_0, # of connection points: 2
#     Edge 85, Type (0, 0), BuildingBlock: CIFDUS_clean_linker_0, # of connection points: 2
#     Edge 86, Type (0, 0), BuildingBlock: CIFDUS_clean_linker_0, # of connection points: 2
#     Edge 87, Type (0, 0), BuildingBlock: CIFDUS_clean_linker_0, # of connection points: 2
#     Edge 88, Type (0, 0), BuildingBlock: CIFDUS_clean_linker_0, # of connection points: 2
#     Edge 89, Type (0, 0), BuildingBlock: CIFDUS_clean_linker_0, # of connection points: 2
#     Edge 90, Type (0, 0), BuildingBlock: CIFDUS_clean_linker_0, # of connection points: 2
#     Edge 91, Type (0, 0), BuildingBlock: CIFDUS_clean_linker_0, # of connection points: 2
#     Edge 92, Type (0, 0), BuildingBlock: CIFDUS_clean_linker_0, # of connection points: 2
#     Edge 93, Type (0, 0), BuildingBlock: CIFDUS_clean_linker_0, # of connection points: 2
#     Edge 94, Type (0, 0), BuildingBlock: CIFDUS_clean_linker_0, # of connection points: 2
#     Edge 95, Type (0, 0), BuildingBlock: CIFDUS_clean_linker_0, # of connection points: 2
#     Edge 96, Type (0, 0), BuildingBlock: CIFDUS_clean_linker_0, # of connection points: 2
#     Edge 97, Type (0, 0), BuildingBlock: CIFDUS_clean_linker_0, # of connection points: 2
#     Edge 98, Type (0, 0), BuildingBlock: CIFDUS_clean_linker_0, # of connection points: 2
#     Edge 99, Type (0, 0), BuildingBlock: CIFDUS_clean_linker_0, # of connection points: 2
#     Edge 100, Type (0, 0), BuildingBlock: CIFDUS_clean_linker_0, # of connection points: 2
#     Edge 101, Type (0, 0), BuildingBlock: CIFDUS_clean_linker_0, # of connection points: 2
#     Edge 102, Type (0, 0), BuildingBlock: CIFDUS_clean_linker_0, # of connection points: 2
#     Edge 103, Type (0, 0), BuildingBlock: CIFDUS_clean_linker_0, # of connection points: 2
#     Edge 104, Type (0, 0), BuildingBlock: CIFDUS_clean_linker_0, # of connection points: 2
#     Edge 105, Type (0, 0), BuildingBlock: CIFDUS_clean_linker_0, # of connection points: 2
#     Edge 106, Type (0, 0), BuildingBlock: CIFDUS_clean_linker_0, # of connection points: 2
#     Edge 107, Type (0, 0), BuildingBlock: CIFDUS_clean_linker_0, # of connection points: 2
#     Edge 108, Type (0, 0), BuildingBlock: CIFDUS_clean_linker_0, # of connection points: 2
#     Edge 109, Type (0, 0), BuildingBlock: CIFDUS_clean_linker_0, # of connection points: 2
#     Edge 110, Type (0, 0), BuildingBlock: CIFDUS_clean_linker_0, # of connection points: 2
#     Edge 111, Type (0, 0), BuildingBlock: CIFDUS_clean_linker_0, # of connection points: 2
#     Edge 112, Type (0, 0), BuildingBlock: CIFDUS_clean_linker_0, # of connection points: 2
#     Edge 113, Type (0, 0), BuildingBlock: CIFDUS_clean_linker_0, # of connection points: 2
#     Edge 114, Type (0, 0), BuildingBlock: CIFDUS_clean_linker_0, # of connection points: 2
#     Edge 115, Type (0, 0), BuildingBlock: CIFDUS_clean_linker_0, # of connection points: 2
#     Edge 116, Type (0, 0), BuildingBlock: CIFDUS_clean_linker_0, # of connection points: 2
#     Edge 117, Type (0, 0), BuildingBlock: CIFDUS_clean_linker_0, # of connection points: 2
#     Edge 118, Type (0, 0), BuildingBlock: CIFDUS_clean_linker_0, # of connection points: 2
#     Edge 119, Type (0, 0), BuildingBlock: CIFDUS_clean_linker_0, # of connection points: 2
#     Edge 120, Type (0, 0), BuildingBlock: CIFDUS_clean_linker_0, # of connection points: 2
#     Edge 121, Type (0, 0), BuildingBlock: CIFDUS_clean_linker_0, # of connection points: 2
#     Edge 122, Type (0, 0), BuildingBlock: CIFDUS_clean_linker_0, # of connection points: 2
#     Edge 123, Type (0, 0), BuildingBlock: CIFDUS_clean_linker_0, # of connection points: 2
#     Edge 124, Type (0, 0), BuildingBlock: CIFDUS_clean_linker_0, # of connection points: 2
#     Edge 125, Type (0, 0), BuildingBlock: CIFDUS_clean_linker_0, # of connection points: 2
#     Edge 126, Type (0, 0), BuildingBlock: CIFDUS_clean_linker_0, # of connection points: 2
#     Edge 127, Type (0, 0), BuildingBlock: CIFDUS_clean_linker_0, # of connection points: 2
#     Edge 128, Type (0, 0), BuildingBlock: CIFDUS_clean_linker_0, # of connection points: 2
#     Edge 129, Type (0, 0), BuildingBlock: CIFDUS_clean_linker_0, # of connection points: 2
#     Edge 130, Type (0, 0), BuildingBlock: CIFDUS_clean_linker_0, # of connection points: 2
#     Edge 131, Type (0, 0), BuildingBlock: CIFDUS_clean_linker_0, # of connection points: 2
#     Edge 132, Type (0, 0), BuildingBlock: CIFDUS_clean_linker_0, # of connection points: 2
#     Edge 133, Type (0, 0), BuildingBlock: CIFDUS_clean_linker_0, # of connection points: 2
#     Edge 134, Type (0, 0), BuildingBlock: CIFDUS_clean_linker_0, # of connection points: 2
#     Edge 135, Type (0, 0), BuildingBlock: CIFDUS_clean_linker_0, # of connection points: 2
#     Edge 136, Type (0, 0), BuildingBlock: CIFDUS_clean_linker_0, # of connection points: 2
#     Edge 137, Type (0, 0), BuildingBlock: CIFDUS_clean_linker_0, # of connection points: 2
#     Edge 138, Type (0, 0), BuildingBlock: CIFDUS_clean_linker_0, # of connection points: 2
#     Edge 139, Type (0, 0), BuildingBlock: CIFDUS_clean_linker_0, # of connection points: 2
#     Edge 140, Type (0, 0), BuildingBlock: CIFDUS_clean_linker_0, # of connection points: 2
#     Edge 141, Type (0, 0), BuildingBlock: CIFDUS_clean_linker_0, # of connection points: 2
#     Edge 142, Type (0, 0), BuildingBlock: CIFDUS_clean_linker_0, # of connection points: 2
#     Edge 143, Type (0, 0), BuildingBlock: CIFDUS_clean_linker_0, # of connection points: 2
# Relax obj value: 0.337
# Max RMSD: 0.149
# Mean RMSD: 0.115
data_MOF--net-nfb--node1-QUQFOY_clean_sbu_1--edge1-CIFDUS_clean_linker_0
_symmetry_space_group_name_H-M    P1
_symmetry_Int_Tables_number       1
_symmetry_cell_setting            triclinic
loop_
_symmetry_equiv_pos_as_xyz
'x, y, z'
_cell_length_a     51.835544
_cell_length_b     51.992802
_cell_length_c     52.232419
_cell_angle_alpha  91.334998
_cell_angle_beta   91.362833
_cell_angle_gamma 93.990917
loop_
_atom_site_label
_atom_site_type_symbol
_atom_site_fract_x
_atom_site_fract_y
_atom_site_fract_z
_atom_type_partial_charge
O0 O 0.15979 0.15432 0.4129 0.0
Cd1 Cd 0.19571 0.16758 0.4273 0.0
Cd2 Cd 0.20854 0.12756 0.40011 0.0
O3 O 0.17144 0.12903 0.38152 0.0
O4 O 0.18487 0.19683 0.44839 0.0
O5 O 0.20985 0.20225 0.41502 0.0
C6 C 0.19683 0.21222 0.43303 0.0
C7 C 0.25186 0.14081 0.3898 0.0
C8 C 0.15376 0.14032 0.39316 0.0
C9 C 0.21434 0.12234 0.45444 0.0
O10 O 0.20753 0.10883 0.43456 0.0
O11 O 0.21466 0.14677 0.45406 0.0
O12 O 0.24082 0.11912 0.38112 0.0
O13 O 0.23747 0.15618 0.40182 0.0
O14 O 0.3948 0.63297 0.90598 0.0
Cd15 Cd 0.38818 0.5967 0.91931 0.0
Cd16 Cd 0.39152 0.58464 0.86925 0.0
O17 O 0.40433 0.62445 0.86589 0.0
O18 O 0.393 0.60442 0.95665 0.0
O19 O 0.41574 0.57651 0.93601 0.0
C20 C 0.41095 0.58857 0.95697 0.0
C21 C 0.41196 0.54537 0.86707 0.0
C22 C 0.40118 0.64084 0.8841 0.0
C23 C 0.3391 0.5786 0.89271 0.0
O24 O 0.35197 0.57917 0.87229 0.0
O25 O 0.35027 0.58307 0.91444 0.0
O26 O 0.40311 0.55534 0.84644 0.0
O27 O 0.41134 0.55886 0.8881 0.0
O28 O 0.92262 0.89322 0.41175 0.0
Cd29 Cd 0.8893 0.8854 0.43137 0.0
Cd30 Cd 0.87255 0.9244 0.40106 0.0
O31 O 0.90916 0.92018 0.38302 0.0
O32 O 0.89753 0.85586 0.45322 0.0
O33 O 0.867 0.85293 0.4229 0.0
C34 C 0.87959 0.84209 0.44075 0.0
C35 C 0.82897 0.90646 0.39578 0.0
C36 C 0.92713 0.90722 0.39253 0.0
C37 C 0.87511 0.93646 0.45538 0.0
O38 O 0.8754 0.94729 0.43384 0.0
O39 O 0.87806 0.91251 0.45724 0.0
O40 O 0.83661 0.92706 0.38381 0.0
O41 O 0.84662 0.89479 0.40771 0.0
O42 O 0.6812 0.42397 0.92373 0.0
Cd43 Cd 0.69346 0.46223 0.92766 0.0
Cd44 Cd 0.66197 0.46694 0.88821 0.0
O45 O 0.64633 0.42997 0.90018 0.0
O46 O 0.70874 0.46691 0.96311 0.0
O47 O 0.67223 0.48302 0.9506 0.0
C48 C 0.68874 0.4792 0.96868 0.0
C49 C 0.64742 0.50964 0.88814 0.0
C50 C 0.66012 0.41493 0.91306 0.0
C51 C 0.71812 0.46997 0.87842 0.0
O52 O 0.69576 0.46358 0.86887 0.0
O53 O 0.72101 0.47517 0.90227 0.0
O54 O 0.64066 0.49317 0.8698 0.0
O55 O 0.66048 0.50127 0.90715 0.0
O56 O 0.13566 0.91894 0.6365 0.0
Cd57 Cd 0.09744 0.91243 0.62564 0.0
Cd58 Cd 0.09294 0.90882 0.67624 0.0
O59 O 0.13142 0.9265 0.67783 0.0
O60 O 0.10062 0.91611 0.5883 0.0
O61 O 0.07618 0.94055 0.61127 0.0
C62 C 0.08512 0.93428 0.58942 0.0
C63 C 0.05123 0.92551 0.67909 0.0
C64 C 0.14583 0.92525 0.65827 0.0
C65 C 0.08655 0.86007 0.64559 0.0
O66 O 0.09291 0.86961 0.66768 0.0
O67 O 0.08319 0.87475 0.62691 0.0
O68 O 0.06277 0.91748 0.69935 0.0
O69 O 0.06408 0.92569 0.65825 0.0
O70 O 0.60742 0.70776 0.1263 0.0
Cd71 Cd 0.6152 0.70949 0.165 0.0
Cd72 Cd 0.66208 0.69167 0.15396 0.0
O73 O 0.64964 0.70917 0.12144 0.0
O74 O 0.60514 0.74432 0.17834 0.0
O75 O 0.64556 0.73547 0.17153 0.0
C76 C 0.62916 0.75254 0.17619 0.0
C77 C 0.70681 0.69085 0.15884 0.0
C78 C 0.62701 0.7119 0.1125 0.0
C79 C 0.62254 0.65493 0.17924 0.0
O80 O 0.6432 0.65866 0.16693 0.0
O81 O 0.60838 0.6737 0.18352 0.0
O82 O 0.6939 0.67677 0.14177 0.0
O83 O 0.69436 0.70616 0.17302 0.0
O84 O 0.94909 0.16029 0.65317 0.0
Cd85 Cd 0.98528 0.16273 0.63763 0.0
Cd86 Cd 0.99731 0.17711 0.68635 0.0
O87 O 0.95907 0.16337 0.69448 0.0
O88 O 0.97431 0.15258 0.6021 0.0
O89 O 1.00493 0.13345 0.62281 0.0
C90 C 0.99141 0.13592 0.60214 0.0
C91 C 0.03736 0.15779 0.69061 0.0
C92 C 0.94206 0.16053 0.67629 0.0
C93 C 1.001 0.21807 0.64784 0.0
O94 O 0.99831 0.2139 0.67155 0.0
O95 O 0.99995 0.19948 0.63166 0.0
O96 O 0.02902 0.17165 0.70917 0.0
O97 O 1.02226 0.15372 0.67067 0.0
O98 O 0.41715 0.31121 0.11341 0.0
Cd99 Cd 0.40073 0.31021 0.14921 0.0
Cd100 Cd 0.36485 0.32636 0.12363 0.0
O101 O 0.37845 0.30232 0.09608 0.0
O102 O 0.41086 0.27845 0.16787 0.0
O103 O 0.37288 0.28069 0.14827 0.0
C104 C 0.38917 0.26685 0.15974 0.0
C105 C 0.32299 0.3318 0.13506 0.0
C106 C 0.4029 0.30322 0.09427 0.0
C107 C 0.39387 0.36593 0.15335 0.0
O108 O 0.38562 0.36073 0.13069 0.0
O109 O 0.39804 0.34718 0.16803 0.0
O110 O 0.33125 0.3389 0.11302 0.0
O111 O 0.33746 0.31834 0.14922 0.0
O112 O 0.38413 1.02121 0.15439 0.0
Cd113 Cd 0.40192 0.05596 0.16643 0.0
Cd114 Cd 0.38549 0.07344 0.12096 0.0
O115 O 0.36891 0.03433 0.11742 0.0
O116 O 0.41535 0.05035 0.20158 0.0
O117 O 0.387 0.07899 0.19309 0.0
C118 C 0.40222 0.06902 0.20936 0.0
C119 C 0.36991 0.11419 0.1308 0.0
C120 C 0.3719 1.01622 0.1333 0.0
C121 C 0.44143 0.07683 0.12782 0.0
O122 O 0.42364 0.07915 0.11108 0.0
O123 O 0.43596 0.06851 0.14984 0.0
O124 O 0.36658 0.10382 0.10807 0.0
O125 O 0.37901 0.10007 0.14841 0.0
O126 O 0.31102 0.95155 0.65877 0.0
Cd127 Cd 0.34966 0.96321 0.66324 0.0
Cd128 Cd 0.35504 0.91577 0.64641 0.0
O129 O 0.31573 0.91735 0.63388 0.0
O130 O 0.35292 1.00172 0.66339 0.0
O131 O 0.36983 0.97723 0.63385 0.0
C132 C 0.36635 0.99992 0.64301 0.0
C133 C 0.39562 0.9089 0.62813 0.0
C134 C 0.30101 0.93283 0.64496 0.0
C135 C 0.36615 0.92723 0.70144 0.0
O136 O 0.35782 0.91023 0.68489 0.0
O137 O 0.36813 0.95089 0.69575 0.0
O138 O 0.37859 0.88987 0.63123 0.0
O139 O 0.38834 0.93184 0.63233 0.0
O140 O 0.60873 1.00062 0.14485 0.0
Cd141 Cd 0.59216 0.96761 0.15892 0.0
Cd142 Cd 0.62886 0.94345 0.12993 0.0
O143 O 0.64392 0.98342 0.13073 0.0
O144 O 0.57291 0.97419 0.19116 0.0
O145 O 0.61054 0.95664 0.19001 0.0
C146 C 0.59157 0.96394 0.20313 0.0
C147 C 0.63683 0.90509 0.15207 0.0
C148 C 0.63121 1.00327 0.13574 0.0
C149 C 0.57586 0.93097 0.11386 0.0
O150 O 0.59851 0.93353 0.10505 0.0
O151 O 0.57077 0.94112 0.13541 0.0
O152 O 0.65066 0.91176 0.13266 0.0
O153 O 0.62139 0.92157 0.1603 0.0
O154 O 0.77797 0.14495 0.68345 0.0
Cd155 Cd 0.73958 0.13245 0.68339 0.0
Cd156 Cd 0.73327 0.1839 0.67768 0.0
O157 O 0.77244 0.18271 0.66605 0.0
O158 O 0.7343 0.09437 0.67573 0.0
O159 O 0.72181 0.12425 0.64964 0.0
C160 C 0.72223 0.10029 0.65501 0.0
C161 C 0.69254 0.18705 0.65658 0.0
C162 C 0.78742 0.16562 0.67375 0.0
C163 C 0.71915 0.1623 0.72702 0.0
O164 O 0.72875 0.18235 0.71636 0.0
O165 O 0.71851 0.14043 0.71552 0.0
O166 O 0.70633 0.2078 0.66372 0.0
O167 O 0.70291 0.16551 0.65934 0.0
O168 O 0.36998 0.85016 0.84744 0.0
Cd169 Cd 0.37346 0.84829 0.88624 0.0
Cd170 Cd 0.42372 0.84374 0.87528 0.0
O171 O 0.4111 0.86342 0.84378 0.0
O172 O 0.35201 0.87642 0.90229 0.0
O173 O 0.3944 0.87953 0.9 0.0
C174 C 0.37361 0.89029 0.90557 0.0
C175 C 0.45952 0.86061 0.89939 0.0
C176 C 0.38817 0.86037 0.83444 0.0
C177 C 0.39404 0.79525 0.88884 0.0
O178 O 0.4129 0.80527 0.87658 0.0
O179 O 0.3775 0.80973 0.89862 0.0
O180 O 0.46243 0.84881 0.87775 0.0
O181 O 0.43655 0.86176 0.90781 0.0
O182 O 0.57801 0.8988 0.40589 0.0
Cd183 Cd 0.60874 0.92081 0.39303 0.0
Cd184 Cd 0.6344 0.90197 0.43404 0.0
O185 O 0.59717 0.88162 0.43892 0.0
O186 O 0.59247 0.93658 0.363 0.0
O187 O 0.62554 0.91227 0.35979 0.0
C188 C 0.60904 0.92618 0.34887 0.0
C189 C 0.67455 0.89303 0.41574 0.0
C190 C 0.57675 0.88449 0.42518 0.0
C191 C 0.63078 0.95752 0.43615 0.0
O192 O 0.63729 0.93888 0.4496 0.0
O193 O 0.62065 0.9534 0.41392 0.0
O194 O 0.66929 0.88634 0.43889 0.0
O195 O 0.65594 0.90168 0.40224 0.0
O196 O 0.68314 0.20863 0.8826 0.0
Cd197 Cd 0.67288 0.20721 0.92003 0.0
Cd198 Cd 0.62695 0.21235 0.89916 0.0
O199 O 0.64398 0.19717 0.86711 0.0
O200 O 0.69606 0.18139 0.93608 0.0
O201 O 0.65423 0.17306 0.9287 0.0
C202 C 0.67626 0.16472 0.93527 0.0
C203 C 0.58718 0.19546 0.9135 0.0
C204 C 0.66819 0.20101 0.86398 0.0
C205 C 0.65355 0.26011 0.92421 0.0
O206 O 0.63665 0.25064 0.90798 0.0
O207 O 0.6688 0.24513 0.93528 0.0
O208 O 0.58858 0.20973 0.89364 0.0
O209 O 0.60844 0.19043 0.92501 0.0
O210 O 0.49914 0.16098 0.39572 0.0
Cd211 Cd 0.46678 0.13779 0.3861 0.0
Cd212 Cd 0.44723 0.15664 0.42919 0.0
O213 O 0.4851 0.17642 0.43211 0.0
O214 O 0.47868 0.12042 0.35487 0.0
O215 O 0.4434 0.14176 0.35504 0.0
C216 C 0.45846 0.12729 0.34288 0.0
C217 C 0.40496 0.1679 0.41758 0.0
C218 C 0.50337 0.17436 0.41619 0.0
C219 C 0.45188 0.10148 0.42965 0.0
O220 O 0.44565 0.12011 0.44379 0.0
O221 O 0.45997 0.10558 0.40728 0.0
O222 O 0.41521 0.17404 0.43995 0.0
O223 O 0.41976 0.15808 0.4009 0.0
O224 O 0.11252 0.43568 0.19273 0.0
Cd225 Cd 0.12955 0.40148 0.19672 0.0
Cd226 Cd 0.16794 0.42738 0.1789 0.0
O227 O 0.15044 0.45745 0.19663 0.0
O228 O 0.11909 0.38457 0.23025 0.0
O229 O 0.15679 0.40597 0.22545 0.0
C230 C 0.14066 0.39441 0.24054 0.0
C231 C 0.21068 0.41699 0.18025 0.0
C232 C 0.12582 0.45702 0.19607 0.0
C233 C 0.13927 0.3932 0.14091 0.0
O234 O 0.15193 0.41479 0.14442 0.0
O235 O 0.13067 0.38101 0.16041 0.0
O236 O 0.20416 0.43802 0.16996 0.0
O237 O 0.19337 0.40355 0.19251 0.0
O238 O 0.13978 0.6185 0.81913 0.0
Cd239 Cd 0.14185 0.60218 0.85437 0.0
Cd240 Cd 0.1535 0.65341 0.87037 0.0
O241 O 0.14594 0.6599 0.83033 0.0
O242 O 0.12678 0.56568 0.85058 0.0
O243 O 0.11244 0.59412 0.87783 0.0
C244 C 0.11189 0.57076 0.86917 0.0
C245 C 0.13183 0.65821 0.90961 0.0
C246 C 0.14263 0.64201 0.81288 0.0
C247 C 0.19504 0.61646 0.8766 0.0
O248 O 0.18913 0.63976 0.87787 0.0
O249 O 0.1788 0.59862 0.86831 0.0
O250 O 0.14653 0.67718 0.90123 0.0
O251 O 0.12716 0.63859 0.89427 0.0
O252 O 0.87302 0.6794 0.44667 0.0
Cd253 Cd 0.8762 0.64031 0.44231 0.0
Cd254 Cd 0.92351 0.65547 0.43695 0.0
O255 O 0.91315 0.68457 0.46124 0.0
O256 O 0.85576 0.62199 0.47066 0.0
O257 O 0.89831 0.62774 0.47099 0.0
C258 C 0.87759 0.62067 0.48298 0.0
C259 C 0.96301 0.63719 0.44046 0.0
C260 C 0.89108 0.69338 0.45801 0.0
C261 C 0.89511 0.64201 0.38869 0.0
O262 O 0.91212 0.65775 0.39928 0.0
O263 O 0.87983 0.62846 0.40294 0.0
O264 O 0.9615 0.66126 0.43584 0.0
O265 O 0.94199 0.62341 0.44474 0.0
O266 O 0.91534 0.44284 0.77608 0.0
Cd267 Cd 0.91361 0.45737 0.81305 0.0
Cd268 Cd 0.89483 0.40708 0.82207 0.0
O269 O 0.90694 0.40132 0.78351 0.0
O270 O 0.92995 0.49338 0.8147 0.0
O271 O 0.94325 0.46217 0.83854 0.0
C272 C 0.94395 0.48637 0.8337 0.0
C273 C 0.91243 0.39982 0.86373 0.0
C274 C 0.91221 0.41954 0.76785 0.0
C275 C 0.85791 0.44722 0.82849 0.0
O276 O 0.8597 0.4232 0.82458 0.0
O277 O 0.87749 0.46305 0.82664 0.0
O278 O 0.89801 0.38183 0.85177 0.0
O279 O 0.91873 0.42015 0.85098 0.0
O280 O 0.1503 0.414 0.48571 0.0
Cd281 Cd 0.13877 0.39642 0.45131 0.0
Cd282 Cd 0.1599 0.43913 0.43242 0.0
O283 O 0.17805 0.4431 0.46979 0.0
O284 O 0.12776 0.36034 0.45994 0.0
O285 O 0.16262 0.37089 0.43773 0.0
C286 C 0.14798 0.35337 0.44841 0.0
C287 C 0.17143 0.42686 0.39035 0.0
C288 C 0.1684 0.43155 0.48916 0.0
C289 C 0.10598 0.43348 0.42377 0.0
O290 O 0.12318 0.45129 0.42974 0.0
O291 O 0.10999 0.41007 0.42802 0.0
O292 O 0.17811 0.4497 0.39976 0.0
O293 O 0.1615 0.41017 0.40589 0.0
O294 O 0.89726 0.62732 0.22517 0.0
Cd295 Cd 0.89441 0.61832 0.18721 0.0
Cd296 Cd 0.90637 0.66973 0.18079 0.0
O297 O 0.919 0.66496 0.22024 0.0
O298 O 0.89684 0.58016 0.18079 0.0
O299 O 0.92749 0.60957 0.17074 0.0
C300 C 0.91889 0.5858 0.17054 0.0
C301 C 0.92214 0.66759 0.13786 0.0
C302 C 0.9095 0.64729 0.23495 0.0
C303 C 0.85259 0.65283 0.17124 0.0
O304 O 0.86748 0.67193 0.17922 0.0
O305 O 0.86097 0.63035 0.16909 0.0
O306 O 0.92418 0.68937 0.15057 0.0
O307 O 0.91346 0.64789 0.15022 0.0
O308 O 0.93023 0.38308 0.52632 0.0
Cd309 Cd 0.94849 0.38048 0.56147 0.0
Cd310 Cd 0.9285 0.42618 0.57183 0.0
O311 O 0.91326 0.42038 0.53322 0.0
O312 O 0.96431 0.34662 0.56168 0.0
O313 O 0.93571 0.35769 0.58982 0.0
C314 C 0.95204 0.34167 0.58234 0.0
C315 C 0.911 0.42345 0.61332 0.0
C316 C 0.9174 0.40134 0.51814 0.0
C317 C 0.98473 0.42812 0.57499 0.0
O318 O 0.96588 0.44239 0.57573 0.0
O319 O 0.9808 0.40424 0.5696 0.0
O320 O 0.90821 0.44334 0.59929 0.0
O321 O 0.92068 0.40385 0.60251 0.0
O322 O 0.1544 0.66907 0.5633 0.0
Cd323 Cd 0.132 0.67912 0.59326 0.0
Cd324 Cd 0.14556 0.63632 0.61571 0.0
O325 O 0.16449 0.63217 0.57967 0.0
O326 O 0.1214 0.71432 0.58658 0.0
O327 O 0.14232 0.70459 0.62204 0.0
C328 C 0.13026 0.72114 0.60915 0.0
C329 C 0.15909 0.63829 0.65945 0.0
C330 C 0.16484 0.64777 0.56093 0.0
C331 C 0.0899 0.63853 0.60472 0.0
O332 O 0.10677 0.62509 0.61467 0.0
O333 O 0.09643 0.65987 0.59469 0.0
O334 O 0.15953 0.61734 0.64564 0.0
O335 O 0.15435 0.65908 0.6476 0.0
O336 O 0.89338 0.91919 0.65286 0.0
Cd337 Cd 0.86056 0.90446 0.63393 0.0
Cd338 Cd 0.842 0.90167 0.68038 0.0
O339 O 0.87841 0.92134 0.69185 0.0
O340 O 0.87213 0.91049 0.59854 0.0
O341 O 0.83727 0.92693 0.61376 0.0
C342 C 0.85307 0.9247 0.59532 0.0
C343 C 0.79823 0.91188 0.67633 0.0
C344 C 0.89721 0.92456 0.67647 0.0
C345 C 0.85013 0.85169 0.65539 0.0
O346 O 0.84546 0.86283 0.67652 0.0
O347 O 0.85462 0.86481 0.6355 0.0
O348 O 0.80875 0.90847 0.69862 0.0
O349 O 0.81309 0.91202 0.65682 0.0
O350 O 0.61317 0.4686 0.1141 0.0
Cd351 Cd 0.61105 0.46233 0.15287 0.0
Cd352 Cd 0.66714 0.44831 0.13442 0.0
O353 O 0.65255 0.48254 0.12451 0.0
O354 O 0.59209 0.49103 0.16958 0.0
O355 O 0.63442 0.48842 0.1729 0.0
C356 C 0.61455 0.50169 0.17659 0.0
C357 C 0.70621 0.44102 0.11576 0.0
C358 C 0.63415 0.48067 0.10809 0.0
C359 C 0.62536 0.40694 0.15547 0.0
O360 O 0.64621 0.41488 0.14489 0.0
O361 O 0.60908 0.42293 0.16279 0.0
O362 O 0.68462 0.43636 0.10325 0.0
O363 O 0.70569 0.44992 0.13903 0.0
O364 O 0.1907 0.14179 0.65982 0.0
Cd365 Cd 0.2177 0.15729 0.63562 0.0
Cd366 Cd 0.24251 0.17413 0.67836 0.0
O367 O 0.20841 0.15835 0.69588 0.0
O368 O 0.20494 0.14111 0.60238 0.0
O369 O 0.24507 0.13896 0.61684 0.0
C370 C 0.22776 0.13361 0.59904 0.0
C371 C 0.2867 0.16539 0.67941 0.0
C372 C 0.18911 0.14671 0.68363 0.0
C373 C 0.22298 0.21442 0.64502 0.0
O374 O 0.23633 0.20988 0.66488 0.0
O375 O 0.21383 0.19601 0.63036 0.0
O376 O 0.27687 0.17809 0.69797 0.0
O377 O 0.27092 0.15554 0.66167 0.0
O378 O 0.4339 0.56202 0.11288 0.0
Cd379 Cd 0.41623 0.56136 0.14784 0.0
Cd380 Cd 0.37528 0.56576 0.11674 0.0
O381 O 0.3985 0.54235 0.09645 0.0
O382 O 0.4324 0.53482 0.16961 0.0
O383 O 0.39293 0.52891 0.1525 0.0
C384 C 0.41204 0.51946 0.16467 0.0
C385 C 0.33192 0.56383 0.10333 0.0
C386 C 0.42238 0.54888 0.09474 0.0
C387 C 0.3983 0.61369 0.14622 0.0
O388 O 0.38682 0.604 0.12613 0.0
O389 O 0.40923 0.59879 0.16166 0.0
O390 O 0.35009 0.57308 0.08921 0.0
O391 O 0.33842 0.554 0.12481 0.0
O392 O 0.91521 0.15354 0.42207 0.0
Cd393 Cd 0.95399 0.16403 0.42456 0.0
Cd394 Cd 0.95764 0.11896 0.40352 0.0
O395 O 0.91908 0.12563 0.39031 0.0
O396 O 0.9562 0.20252 0.42803 0.0
O397 O 0.96831 0.18113 0.39368 0.0
C398 C 0.96448 0.2028 0.40491 0.0
C399 C 0.99965 0.11874 0.38568 0.0
C400 C 0.90472 0.13921 0.4042 0.0
C401 C 0.97073 0.12367 0.45775 0.0
O402 O 0.95901 0.10856 0.44118 0.0
O403 O 0.9753 0.14742 0.45297 0.0
O404 O 0.98363 0.09847 0.38388 0.0
O405 O 0.9909 0.13943 0.39514 0.0
O406 O 0.42137 0.39132 0.90188 0.0
Cd407 Cd 0.40514 0.36562 0.92665 0.0
Cd408 Cd 0.38356 0.34076 0.88581 0.0
O409 O 0.39927 0.37505 0.86796 0.0
O410 O 0.425 0.372 0.95947 0.0
O411 O 0.41975 0.33369 0.93996 0.0
C412 C 0.42831 0.34766 0.95948 0.0
C413 C 0.38828 0.29586 0.87805 0.0
C414 C 0.41379 0.39338 0.87878 0.0
C415 C 0.34765 0.36194 0.92371 0.0
O416 O 0.34968 0.34717 0.90423 0.0
O417 O 0.36766 0.3724 0.93521 0.0
O418 O 0.37509 0.30922 0.86253 0.0
O419 O 0.40084 0.30845 0.89658 0.0
O420 O 0.16704 0.91234 0.42298 0.0
Cd421 Cd 0.12882 0.9 0.42359 0.0
Cd422 Cd 0.12292 0.93995 0.39766 0.0
O423 O 0.16166 0.93205 0.38674 0.0
O424 O 0.12946 0.86334 0.4333 0.0
O425 O 0.11671 0.87584 0.39496 0.0
C426 C 0.12198 0.85751 0.41001 0.0
C427 C 0.08003 0.93437 0.3795 0.0
C428 C 0.17681 0.92241 0.40326 0.0
C429 C 0.10842 0.94365 0.44998 0.0
O430 O 0.12113 0.9567 0.43367 0.0
O431 O 0.10489 0.91932 0.44699 0.0
O432 O 0.09483 0.95486 0.37522 0.0
O433 O 0.09055 0.91611 0.39132 0.0
O434 O 0.66784 0.67324 0.92447 0.0
Cd435 Cd 0.67855 0.71115 0.93295 0.0
Cd436 Cd 0.66939 0.7164 0.88453 0.0
O437 O 0.64859 0.67916 0.88729 0.0
O438 O 0.68434 0.71252 0.97051 0.0
O439 O 0.65251 0.73163 0.95135 0.0
C440 C 0.66473 0.72627 0.97206 0.0
C441 C 0.6604 0.76107 0.8868 0.0
C442 C 0.65428 0.66409 0.90539 0.0
C443 C 0.72333 0.71947 0.89926 0.0
O444 O 0.70819 0.7117 0.88078 0.0
O445 O 0.71432 0.72508 0.92093 0.0
O446 O 0.6569 0.74779 0.86555 0.0
O447 O 0.66652 0.74864 0.90681 0.0
O448 O 0.6686 0.96676 0.85971 0.0
Cd449 Cd 0.67559 0.9613 0.89792 0.0
Cd450 Cd 0.62421 0.96423 0.90465 0.0
O451 O 0.62677 0.95832 0.86548 0.0
O452 O 0.69876 0.93113 0.90399 0.0
O453 O 0.65634 0.92723 0.90518 0.0
C454 C 0.67778 0.91622 0.90547 0.0
C455 C 0.59094 0.93889 0.92274 0.0
C456 C 0.64576 0.9618 0.85065 0.0
C457 C 0.65801 1.01007 0.92473 0.0
O458 O 0.63536 1.0001 0.91954 0.0
O459 O 0.67759 0.99701 0.92016 0.0
O460 O 0.58627 0.95915 0.91016 0.0
O461 O 0.61464 0.93407 0.92686 0.0
O462 O 0.73916 0.13865 0.38811 0.0
Cd463 Cd 0.70038 0.13473 0.37815 0.0
Cd464 Cd 0.69575 0.15401 0.42736 0.0
O465 O 0.73624 0.16345 0.42274 0.0
O466 O 0.69765 0.12617 0.34047 0.0
O467 O 0.68468 0.16212 0.35773 0.0
C468 C 0.68692 0.14761 0.33773 0.0
C469 C 0.65694 0.17548 0.42197 0.0
C470 C 0.7501 0.15232 0.4063 0.0
C471 C 0.67584 0.10137 0.41911 0.0
O472 O 0.68682 0.11628 0.43625 0.0
O473 O 0.67673 0.10703 0.39556 0.0
O474 O 0.66882 0.17611 0.44408 0.0
O475 O 0.66854 0.16532 0.40312 0.0
O476 O 0.41585 0.09238 0.84788 0.0
Cd477 Cd 0.39374 0.09645 0.87974 0.0
Cd478 Cd 0.43714 0.08229 0.90597 0.0
O479 O 0.4518 0.08718 0.87004 0.0
O480 O 0.37255 0.12762 0.8736 0.0
O481 O 0.40528 0.12812 0.90133 0.0
C482 C 0.38842 0.14077 0.88925 0.0
C483 C 0.4658 0.10365 0.93527 0.0
C484 C 0.4401 0.09026 0.84886 0.0
C485 C 0.39009 0.0441 0.90564 0.0
O486 O 0.41365 0.04949 0.91244 0.0
O487 O 0.37745 0.06083 0.89388 0.0
O488 O 0.46956 0.08068 0.92701 0.0
O489 O 0.44396 0.11288 0.92965 0.0
O490 O 0.3414 0.91413 0.38978 0.0
Cd491 Cd 0.37983 0.9142 0.38039 0.0
Cd492 Cd 0.38611 0.90499 0.43162 0.0
O493 O 0.34513 0.89619 0.42754 0.0
O494 O 0.38147 0.91447 0.34205 0.0
O495 O 0.39301 0.88191 0.36507 0.0
C496 C 0.39065 0.89208 0.343 0.0
C497 C 0.42428 0.88206 0.43 0.0
C498 C 0.33088 0.90461 0.40951 0.0
C499 C 0.40678 0.95492 0.41605 0.0
O500 O 0.39627 0.94368 0.43485 0.0
O501 O 0.40489 0.94466 0.39365 0.0
O502 O 0.41349 0.88588 0.45174 0.0
O503 O 0.4119 0.88866 0.40981 0.0
O504 O 0.59867 0.2424 0.16335 0.0
Cd505 Cd 0.5947 0.20494 0.17505 0.0
Cd506 Cd 0.615 0.19515 0.12815 0.0
O507 O 0.62717 0.23522 0.13369 0.0
O508 O 0.58952 0.20498 0.21309 0.0
O509 O 0.62492 0.19301 0.1947 0.0
C510 C 0.61222 0.19637 0.21524 0.0
C511 C 0.63503 0.15585 0.13469 0.0
C512 C 0.61524 0.25105 0.1476 0.0
C513 C 0.56219 0.17624 0.13336 0.0
O514 O 0.57694 0.18686 0.11701 0.0
O515 O 0.56783 0.17852 0.1572 0.0
O516 O 0.63669 0.16695 0.11281 0.0
O517 O 0.62454 0.16832 0.1528 0.0
O518 O 0.53295 0.15122 0.64979 0.0
Cd519 Cd 0.49855 0.12967 0.65544 0.0
Cd520 Cd 0.48671 0.17296 0.68126 0.0
O521 O 0.52203 0.18838 0.66629 0.0
O522 O 0.46804 0.12841 0.63135 0.0
O523 O 0.49605 0.09822 0.63267 0.0
C524 C 0.47419 0.1057 0.62444 0.0
C525 C 0.44263 0.18172 0.67603 0.0
C526 C 0.53871 0.17491 0.65553 0.0
C527 C 0.48999 0.12713 0.71239 0.0
O528 O 0.49125 0.15158 0.71327 0.0
O529 O 0.49098 0.11496 0.69114 0.0
O530 O 0.45863 0.19693 0.68969 0.0
O531 O 0.45231 0.16345 0.66306 0.0
O532 O 0.41672 0.77806 0.15775 0.0
Cd533 Cd 0.43018 0.81528 0.16613 0.0
Cd534 Cd 0.39523 0.82544 0.12303 0.0
O535 O 0.38674 0.78444 0.12787 0.0
O536 O 0.44037 0.8209 0.20362 0.0
O537 O 0.40687 0.83714 0.18454 0.0
C538 C 0.42085 0.83501 0.2049 0.0
C539 C 0.37145 0.86291 0.12828 0.0
C540 C 0.39881 0.76914 0.14227 0.0
C541 C 0.45279 0.84028 0.11943 0.0
O542 O 0.43064 0.83717 0.1084 0.0
O543 O 0.45645 0.83342 0.14238 0.0
O544 O 0.3704 0.85031 0.10659 0.0
O545 O 0.38294 0.85245 0.14704 0.0
O546 O 0.5614 0.9426 0.63893 0.0
Cd547 Cd 0.59834 0.95164 0.65257 0.0
Cd548 Cd 0.5985 0.89974 0.65905 0.0
O549 O 0.56298 0.90025 0.63684 0.0
O550 O 0.60797 0.98886 0.64627 0.0
O551 O 0.62756 0.95699 0.62813 0.0
C552 C 0.62646 0.98129 0.63249 0.0
C553 C 0.64357 0.8962 0.65223 0.0
C554 C 0.55058 0.92044 0.6332 0.0
C555 C 0.60079 0.92896 0.70627 0.0
O556 O 0.5932 0.90681 0.69703 0.0
O557 O 0.60594 0.94781 0.69163 0.0
O558 O 0.62801 0.87563 0.65291 0.0
O559 O 0.63318 0.91789 0.65288 0.0
O560 O 0.90963 0.64467 0.97873 0.0
Cd561 Cd 0.90174 0.63296 0.94207 0.0
Cd562 Cd 0.91441 0.67863 0.92727 0.0
O563 O 0.93252 0.67902 0.96551 0.0
O564 O 0.90649 0.5956 0.93414 0.0
O565 O 0.93465 0.62749 0.92384 0.0
C566 C 0.92744 0.60331 0.92279 0.0
C567 C 0.92109 0.67208 0.88208 0.0
C568 C 0.92477 0.66446 0.98386 0.0
C569 C 0.86089 0.66875 0.92481 0.0
O570 O 0.87745 0.68728 0.93042 0.0
O571 O 0.86749 0.6455 0.9251 0.0
O572 O 0.92994 0.69322 0.89389 0.0
O573 O 0.91084 0.65434 0.89605 0.0
O574 O 0.91416 0.4231 1.02361 0.0
Cd575 Cd 0.90678 0.43905 0.05897 0.0
Cd576 Cd 0.88993 0.38985 0.07121 0.0
O577 O 0.90533 0.38248 0.03414 0.0
O578 O 0.92312 0.47495 0.0638 0.0
O579 O 0.93359 0.44217 0.08714 0.0
C580 C 0.93496 0.46662 0.08365 0.0
C581 C 0.90188 0.38339 0.11494 0.0
C582 C 0.91227 0.39919 1.01745 0.0
C583 C 0.84975 0.42591 0.07071 0.0
O584 O 0.85339 0.40204 0.06906 0.0
O585 O 0.86855 0.44279 0.0688 0.0
O586 O 0.89245 0.36428 0.10046 0.0
O587 O 0.90673 0.40505 0.10401 0.0
O588 O 0.1435 0.39379 0.7258 0.0
Cd589 Cd 0.1464 0.38375 0.68775 0.0
Cd590 Cd 0.15712 0.43455 0.68159 0.0
O591 O 0.16613 0.43104 0.72187 0.0
O592 O 0.14679 0.3456 0.68294 0.0
O593 O 0.1814 0.37253 0.67866 0.0
C594 C 0.17091 0.34934 0.6776 0.0
C595 C 0.17873 0.43326 0.6419 0.0
C596 C 0.15575 0.41352 0.73617 0.0
C597 C 0.10979 0.41634 0.6586 0.0
O598 O 0.11869 0.43573 0.67205 0.0
O599 O 0.12018 0.39496 0.66032 0.0
O600 O 0.17657 0.45515 0.65374 0.0
O601 O 0.17214 0.41281 0.65429 0.0
O602 O 0.12075 0.61764 0.06356 0.0
Cd603 Cd 0.1275 0.59521 0.09477 0.0
Cd604 Cd 0.15392 0.63836 0.11425 0.0
O605 O 0.13858 0.65435 0.08024 0.0
O606 O 0.10317 0.56365 0.09457 0.0
O607 O 0.10566 0.59344 0.12562 0.0
C608 C 0.09696 0.57091 0.11728 0.0
C609 C 0.15025 0.64594 0.15929 0.0
C610 C 0.12734 0.64152 0.06131 0.0
C611 C 0.18517 0.59458 0.10188 0.0
O612 O 0.18577 0.61867 0.10662 0.0
O613 O 0.16386 0.5813 0.09824 0.0
O614 O 0.16278 0.66248 0.14522 0.0
O615 O 0.1379 0.6266 0.14755 0.0
O616 O 0.86111 0.68691 0.6855 0.0
Cd617 Cd 0.87325 0.65018 0.68921 0.0
Cd618 Cd 0.91372 0.66812 0.66609 0.0
O619 O 0.90016 0.70299 0.67586 0.0
O620 O 0.86278 0.63636 0.72381 0.0
O621 O 0.90269 0.65104 0.71586 0.0
C622 C 0.88603 0.64286 0.73236 0.0
C623 C 0.95694 0.66039 0.66408 0.0
C624 C 0.87675 0.70614 0.68112 0.0
C625 C 0.87809 0.63254 0.63418 0.0
O626 O 0.89604 0.65027 0.63486 0.0
O627 O 0.8667 0.6264 0.65492 0.0
O628 O 0.94688 0.67717 0.64993 0.0
O629 O 0.9432 0.65002 0.68187 0.0
O630 O 0.11321 0.43407 0.94374 0.0
Cd631 Cd 0.13084 0.40023 0.94475 0.0
Cd632 Cd 0.17214 0.43233 0.93792 0.0
O633 O 0.14865 0.45701 0.95674 0.0
O634 O 0.11785 0.37785 0.97491 0.0
O635 O 0.15485 0.40124 0.97549 0.0
C636 C 0.13838 0.38681 0.9877 0.0
C637 C 0.21477 0.42345 0.94762 0.0
C638 C 0.12441 0.45542 0.95155 0.0
C639 C 0.15105 0.40537 0.89082 0.0
O640 O 0.16253 0.42597 0.90012 0.0
O641 O 0.14022 0.38897 0.90606 0.0
O642 O 0.20948 0.44599 0.94 0.0
O643 O 0.19581 0.40672 0.95128 0.0
O644 O 0.14379 0.65724 0.32163 0.0
Cd645 Cd 0.13768 0.66991 0.35832 0.0
Cd646 Cd 0.14882 0.61974 0.36938 0.0
O647 O 0.15789 0.61897 0.32934 0.0
O648 O 0.1254 0.70453 0.35312 0.0
O649 O 0.161 0.69791 0.37552 0.0
C650 C 0.14451 0.71361 0.36757 0.0
C651 C 0.1713 0.6304 0.40877 0.0
C652 C 0.15258 0.63648 0.31347 0.0
C653 C 0.09954 0.63217 0.38587 0.0
O654 O 0.1105 0.61246 0.37818 0.0
O655 O 0.10881 0.65462 0.38073 0.0
O656 O 0.16953 0.60686 0.39986 0.0
O657 O 0.16383 0.64788 0.39365 0.0
O658 O 0.9341 0.37655 0.27528 0.0
Cd659 Cd 0.95191 0.37149 0.31 0.0
Cd660 Cd 0.93146 0.41703 0.32471 0.0
O661 O 0.91682 0.41305 0.28555 0.0
O662 O 0.96159 0.3351 0.31199 0.0
O663 O 0.93452 0.35254 0.3383 0.0
C664 C 0.94743 0.33318 0.33193 0.0
C665 C 0.91183 0.4171 0.36558 0.0
C666 C 0.92108 0.3953 0.26888 0.0
C667 C 0.98922 0.41593 0.3268 0.0
O668 O 0.97007 0.42955 0.32995 0.0
O669 O 0.98579 0.39276 0.31859 0.0
O670 O 0.91288 0.43746 0.35174 0.0
O671 O 0.91883 0.39617 0.35489 0.0
H672 H 0.18631 0.33173 0.42236 0.0
H673 H 0.12459 0.31414 0.47468 0.0
H674 H 0.1358 0.26949 0.47587 0.0
H675 H 0.16217 0.23538 0.46152 0.0
H676 H 0.2227 0.25146 0.40765 0.0
H677 H 0.21314 0.297 0.40789 0.0
C678 C 0.17533 0.3181 0.434 0.0
C679 C 0.1546 0.32623 0.44835 0.0
C680 C 0.18176 0.29231 0.43447 0.0
C681 C 0.14053 0.30837 0.46333 0.0
C682 C 0.14698 0.28284 0.46412 0.0
C683 C 0.17352 0.24885 0.45002 0.0
C684 C 0.19321 0.24011 0.43469 0.0
C685 C 0.16748 0.27463 0.44974 0.0
C686 C 0.2075 0.25777 0.41969 0.0
C687 C 0.20196 0.28375 0.41974 0.0
H688 H 0.30826 0.60784 0.91949 0.0
H689 H 0.30711 0.54888 0.86001 0.0
H690 H 0.26101 0.55374 0.85142 0.0
H691 H 0.22246 0.578 0.85799 0.0
H692 H 0.22581 0.64071 0.91379 0.0
H693 H 0.26972 0.63133 0.92668 0.0
C694 C 0.2977 0.59561 0.9051 0.0
C695 C 0.31076 0.57779 0.89061 0.0
C696 C 0.27179 0.5996 0.89933 0.0
C697 C 0.29722 0.56255 0.87151 0.0
C698 C 0.27099 0.56547 0.8665 0.0
C699 C 0.23278 0.5894 0.87313 0.0
C700 C 0.22109 0.61005 0.8849 0.0
C701 C 0.2583 0.58445 0.87981 0.0
C702 C 0.23461 0.62489 0.90432 0.0
C703 C 0.25963 0.61947 0.91176 0.0
H704 H 0.90695 0.81316 0.47263 0.0
H705 H 0.84123 0.80887 0.41997 0.0
H706 H 0.83645 0.76212 0.42412 0.0
H707 H 0.85424 0.72232 0.43843 0.0
H708 H 0.92176 0.72652 0.48875 0.0
H709 H 0.92219 0.77352 0.49022 0.0
C710 C 0.89136 0.80205 0.46232 0.0
C711 C 0.8747 0.81439 0.44573 0.0
C712 C 0.88909 0.77516 0.46434 0.0
C713 C 0.8545 0.79976 0.43264 0.0
C714 C 0.85174 0.77304 0.435 0.0
C715 C 0.8687 0.73348 0.45019 0.0
C716 C 0.8881 0.721 0.46325 0.0
C717 C 0.8694 0.76048 0.45019 0.0
C718 C 0.90675 0.73572 0.47835 0.0
C719 C 0.90708 0.76259 0.47911 0.0
H720 H 0.80884 0.4299 0.8145 0.0
H721 H 0.85287 0.48622 0.86278 0.0
H722 H 0.81311 0.50004 0.88124 0.0
H723 H 0.76613 0.49354 0.88618 0.0
H724 H 0.72174 0.43905 0.83613 0.0
H725 H 0.7612 0.4275 0.81546 0.0
C726 C 0.8096 0.44532 0.8289 0.0
C727 C 0.83361 0.45681 0.83756 0.0
C728 C 0.78664 0.45355 0.83905 0.0
C729 C 0.83451 0.47708 0.85589 0.0
C730 C 0.81182 0.48496 0.86649 0.0
C731 C 0.76509 0.47947 0.87045 0.0
C732 C 0.74115 0.46699 0.86287 0.0
C733 C 0.78782 0.47299 0.85856 0.0
C734 C 0.73997 0.449 0.84228 0.0
C735 C 0.76254 0.4422 0.83058 0.0
H736 H 0.09409 0.75205 0.59261 0.0
H737 H 0.15265 0.74613 0.65184 0.0
H738 H 0.14173 0.78748 0.67076 0.0
H739 H 0.11717 0.82654 0.66863 0.0
H740 H 0.05912 0.8318 0.60874 0.0
H741 H 0.06768 0.789 0.59232 0.0
C742 C 0.1046 0.75983 0.60959 0.0
C743 C 0.1245 0.74633 0.62053 0.0
C744 C 0.09799 0.78327 0.62046 0.0
C745 C 0.13748 0.75637 0.64288 0.0
C746 C 0.13114 0.77991 0.65376 0.0
C747 C 0.10593 0.81798 0.65243 0.0
C748 C 0.0875 0.83224 0.63992 0.0
C749 C 0.11154 0.79363 0.64258 0.0
C750 C 0.07337 0.82114 0.61868 0.0
C751 C 0.07841 0.79679 0.60916 0.0
H752 H 0.7344 0.65261 0.14049 0.0
H753 H 0.74189 0.72346 0.18563 0.0
H754 H 0.78813 0.71837 0.19243 0.0
H755 H 0.82588 0.69317 0.18648 0.0
H756 H 0.81774 0.62117 0.14318 0.0
H757 H 0.77204 0.62738 0.13466 0.0
C758 C 0.74617 0.66705 0.15168 0.0
C759 C 0.73482 0.68844 0.16248 0.0
C760 C 0.77249 0.66374 0.15588 0.0
C761 C 0.75022 0.70683 0.17716 0.0
C762 C 0.77661 0.70392 0.18103 0.0
C763 C 0.81417 0.6789 0.17501 0.0
C764 C 0.82518 0.65677 0.16539 0.0
C765 C 0.78788 0.68237 0.1706 0.0
C766 C 0.80969 0.63833 0.15084 0.0
C767 C 0.78359 0.64188 0.14595 0.0
H768 H 0.96803 0.25361 0.66124 0.0
H769 H 0.02986 0.23925 0.61025 0.0
H770 H 1.02005 0.27674 0.58531 0.0
H771 H 0.99134 0.31077 0.57571 0.0
H772 H 0.92802 0.32423 0.62536 0.0
H773 H 0.94057 0.28953 0.65289 0.0
C774 C 0.97985 0.25929 0.64518 0.0
C775 C 0.99989 0.24409 0.63774 0.0
C776 C 0.97326 0.28009 0.63024 0.0
C777 C 1.01461 0.25101 0.61645 0.0
C778 C 1.00877 0.27219 0.60203 0.0
C779 C 0.98017 0.30605 0.59247 0.0
C780 C 0.95852 0.31977 0.59824 0.0
C781 C 0.98761 0.28631 0.60826 0.0
C782 C 0.94455 0.3137 0.62029 0.0
C783 C 0.95184 0.29401 0.63615 0.0
H784 H 0.3085 0.37928 0.12676 0.0
H785 H 0.28816 0.31072 0.16873 0.0
H786 H 0.25272 0.33218 0.18879 0.0
H787 H 0.22701 0.37019 0.19308 0.0
H788 H 0.2496 0.43926 0.15243 0.0
H789 H 0.28548 0.41808 0.13386 0.0
C790 C 0.29607 0.36891 0.14004 0.0
C791 C 0.3003 0.34325 0.14575 0.0
C792 C 0.27663 0.38166 0.15214 0.0
C793 C 0.2848 0.33033 0.16371 0.0
C794 C 0.26476 0.34266 0.17529 0.0
C795 C 0.24007 0.38078 0.18055 0.0
C796 C 0.23548 0.40624 0.17401 0.0
C797 C 0.2605 0.36835 0.16961 0.0
C798 C 0.25263 0.41968 0.15778 0.0
C799 C 0.27301 0.4075 0.14692 0.0
H800 H 0.44464 0.06492 0.23881 0.0
H801 H 0.37196 0.10054 0.2367 0.0
H802 H 0.38329 0.12289 0.27777 0.0
H803 H 0.41436 0.13225 0.31413 0.0
H804 H 0.48783 0.09773 0.31371 0.0
H805 H 0.47582 0.07537 0.27342 0.0
C806 C 0.43108 0.0773 0.24746 0.0
C807 C 0.40734 0.08077 0.23504 0.0
C808 C 0.43807 0.09061 0.27039 0.0
C809 C 0.39026 0.09738 0.24614 0.0
C810 C 0.3968 0.11026 0.26949 0.0
C811 C 0.42782 0.12008 0.30503 0.0
C812 C 0.45192 0.11663 0.31696 0.0
C813 C 0.42078 0.10714 0.2817 0.0
C814 C 0.46914 0.10073 0.30499 0.0
C815 C 0.46226 0.08779 0.28199 0.0
H816 H 0.34742 0.88445 0.7243 0.0
H817 H 0.40045 0.95157 0.7363 0.0
H818 H 0.41317 0.93599 0.77842 0.0
H819 H 0.40902 0.90296 0.81165 0.0
H820 H 0.35353 0.8377 0.80005 0.0
H821 H 0.34207 0.85274 0.75762 0.0
C822 C 0.36181 0.89567 0.73611 0.0
C823 C 0.37316 0.91898 0.72726 0.0
C824 C 0.36864 0.88683 0.76021 0.0
C825 C 0.39144 0.93356 0.74285 0.0
C826 C 0.39878 0.92461 0.76681 0.0
C827 C 0.39459 0.89201 0.79966 0.0
C828 C 0.38226 0.86919 0.80865 0.0
C829 C 0.38755 0.9012 0.77562 0.0
C830 C 0.36324 0.85532 0.79335 0.0
C831 C 0.35669 0.8639 0.76917 0.0
H832 H 0.62493 0.9373 0.23061 0.0
H833 H 0.55729 0.98068 0.23783 0.0
H834 H 0.55675 0.97253 0.28377 0.0
H835 H 0.57551 0.95305 0.32154 0.0
H836 H 0.64291 0.90933 0.31401 0.0
H837 H 0.64346 0.91764 0.26817 0.0
C838 C 0.61011 0.94511 0.24221 0.0
C839 C 0.59123 0.95969 0.2309 0.0
C840 C 0.60983 0.9402 0.26841 0.0
C841 C 0.57204 0.96945 0.24614 0.0
C842 C 0.57173 0.96478 0.27236 0.0
C843 C 0.59032 0.9453 0.30989 0.0
C844 C 0.60916 0.9306 0.32112 0.0
C845 C 0.59051 0.95015 0.28365 0.0
C846 C 0.62818 0.92067 0.30578 0.0
C847 C 0.62853 0.92545 0.27962 0.0
H848 H 0.65529 0.16296 0.82846 0.0
H849 H 0.70665 0.23077 0.84353 0.0
H850 H 0.72707 0.22466 0.80243 0.0
H851 H 0.73054 0.20006 0.76251 0.0
H852 H 0.68155 0.1305 0.74804 0.0
H853 H 0.66019 0.13698 0.78878 0.0
C854 C 0.67082 0.17642 0.82254 0.0
C855 C 0.67937 0.19738 0.8387 0.0
C856 C 0.68303 0.17232 0.79922 0.0
C857 C 0.6998 0.21451 0.83125 0.0
C858 C 0.71149 0.21102 0.80783 0.0
C859 C 0.71523 0.18629 0.7683 0.0
C860 C 0.70754 0.16493 0.75233 0.0
C861 C 0.70333 0.18997 0.79173 0.0
C862 C 0.68788 0.14704 0.76015 0.0
C863 C 0.67557 0.15082 0.78333 0.0
H864 H 0.83334 0.81605 0.68981 0.0
H865 H 0.87494 0.82469 0.61948 0.0
H866 H 0.88661 0.78021 0.62142 0.0
H867 H 0.88772 0.73998 0.64457 0.0
H868 H 0.84432 0.72963 0.71334 0.0
H869 H 0.83065 0.77384 0.71069 0.0
C870 C 0.8447 0.80808 0.67476 0.0
C871 C 0.85349 0.82373 0.65469 0.0
C872 C 0.85128 0.78238 0.67592 0.0
C873 C 0.86791 0.81307 0.63515 0.0
C874 C 0.87477 0.78769 0.63631 0.0
C875 C 0.87526 0.74748 0.65895 0.0
C876 C 0.86739 0.73204 0.67939 0.0
C877 C 0.86705 0.77241 0.65689 0.0
C878 C 0.85072 0.74146 0.69759 0.0
C879 C 0.84295 0.76663 0.69605 0.0
H880 H 0.80284 0.40066 0.06079 0.0
H881 H 0.83965 0.46926 0.09758 0.0
H882 H 0.79835 0.4801 0.11498 0.0
H883 H 0.75219 0.46864 0.12185 0.0
H884 H 0.7147 0.40191 0.08251 0.0
H885 H 0.7558 0.39169 0.06399 0.0
C886 C 0.8017 0.41811 0.07238 0.0
C887 C 0.82421 0.43403 0.07806 0.0
C888 C 0.77785 0.4244 0.08206 0.0
C889 C 0.82252 0.45675 0.09286 0.0
C890 C 0.79897 0.46287 0.10297 0.0
C891 C 0.75312 0.45191 0.10919 0.0
C892 C 0.73074 0.43579 0.1038 0.0
C893 C 0.77661 0.44659 0.09808 0.0
C894 C 0.73185 0.41448 0.08696 0.0
C895 C 0.7553 0.40863 0.07641 0.0
H896 H 0.24459 0.25943 0.66579 0.0
H897 H 0.18022 0.22757 0.61843 0.0
H898 H 0.15864 0.26749 0.62356 0.0
H899 H 0.15548 0.30904 0.64636 0.0
H900 H 0.22037 0.34183 0.69214 0.0
H901 H 0.24435 0.30383 0.68298 0.0
C902 C 0.22612 0.26147 0.6561 0.0
C903 C 0.21383 0.24045 0.64213 0.0
C904 C 0.21368 0.28437 0.65935 0.0
C905 C 0.19009 0.24345 0.62936 0.0
C906 C 0.17757 0.26617 0.63251 0.0
C907 C 0.17494 0.30783 0.65413 0.0
C908 C 0.18605 0.32766 0.67033 0.0
C909 C 0.18872 0.28629 0.64832 0.0
C910 C 0.21147 0.32648 0.67983 0.0
C911 C 0.22513 0.30484 0.67458 0.0
H912 H 0.22631 0.60804 0.07388 0.0
H913 H 0.19828 0.5534 0.12919 0.0
H914 H 0.24143 0.53698 0.13335 0.0
H915 H 0.28816 0.5417 0.12427 0.0
H916 H 0.31479 0.59505 0.0668 0.0
H917 H 0.27109 0.60807 0.06005 0.0
C918 C 0.22968 0.59226 0.08651 0.0
C919 C 0.20959 0.58205 0.10144 0.0
C920 C 0.25424 0.58277 0.08844 0.0
C921 C 0.21373 0.56144 0.11755 0.0
C922 C 0.23835 0.55218 0.12 0.0
C923 C 0.28426 0.55583 0.10998 0.0
C924 C 0.30474 0.56767 0.09639 0.0
C925 C 0.25893 0.56319 0.106 0.0
C926 C 0.29941 0.58571 0.07766 0.0
C927 C 0.27443 0.59331 0.07384 0.0
H928 H 0.94032 0.2464 0.41422 0.0
H929 H 0.9928 0.21232 0.36257 0.0
H930 H 0.99183 0.24966 0.3351 0.0
H931 H 0.97467 0.29102 0.32491 0.0
H932 H 0.92105 0.32452 0.37585 0.0
H933 H 0.92355 0.28813 0.40427 0.0
C934 C 0.95188 0.24738 0.39718 0.0
C935 C 0.96673 0.22679 0.39047 0.0
C936 C 0.95063 0.26853 0.38112 0.0
C937 C 0.98128 0.22804 0.36813 0.0
C938 C 0.98062 0.24928 0.35236 0.0
C939 C 0.96341 0.2903 0.34215 0.0
C940 C 0.94757 0.31034 0.34814 0.0
C941 C 0.96502 0.26942 0.35845 0.0
C942 C 0.93324 0.30922 0.37066 0.0
C943 C 0.93478 0.2885 0.38702 0.0
H944 H 0.23012 0.37533 0.94216 0.0
H945 H 0.25943 0.45438 0.95501 0.0
H946 H 0.30387 0.44149 0.95176 0.0
H947 H 0.33391 0.40824 0.94127 0.0
H948 H 0.30362 0.3304 0.92326 0.0
H949 H 0.2599 0.3422 0.93267 0.0
C950 C 0.24625 0.38969 0.94472 0.0
C951 C 0.2416 0.41574 0.94897 0.0
C952 C 0.27149 0.38232 0.94166 0.0
C953 C 0.26261 0.43421 0.95177 0.0
C954 C 0.28796 0.42684 0.94983 0.0
C955 C 0.31774 0.39382 0.93983 0.0
C956 C 0.32183 0.36848 0.93173 0.0
C957 C 0.29258 0.40104 0.9442 0.0
C958 C 0.30079 0.35002 0.92944 0.0
C959 C 0.27587 0.35677 0.9348 0.0
H960 H 0.152 0.8207 0.42658 0.0
H961 H 0.09305 0.83554 0.37019 0.0
H962 H 0.09606 0.79252 0.35103 0.0
H963 H 0.11541 0.75101 0.35044 0.0
H964 H 0.17542 0.73648 0.40591 0.0
H965 H 0.17255 0.77954 0.42499 0.0
C966 C 0.13959 0.81433 0.41031 0.0
C967 C 0.12205 0.83094 0.39998 0.0
C968 C 0.14199 0.78996 0.399 0.0
C969 C 0.10652 0.82287 0.37853 0.0
C970 C 0.10835 0.7984 0.36751 0.0
C971 C 0.12805 0.75733 0.36656 0.0
C972 C 0.14557 0.74063 0.37679 0.0
C973 C 0.12611 0.78189 0.37752 0.0
C974 C 0.16189 0.74909 0.3976 0.0
C975 C 0.16008 0.77359 0.40866 0.0
H976 H 0.84025 0.71513 0.92676 0.0
H977 H 0.82278 0.63558 0.90304 0.0
H978 H 0.77959 0.64575 0.88841 0.0
H979 H 0.74576 0.67657 0.88557 0.0
H980 H 0.76223 0.75489 0.91307 0.0
H981 H 0.80731 0.74618 0.92222 0.0
C982 C 0.82707 0.69999 0.91831 0.0
C983 C 0.83463 0.67458 0.91622 0.0
C984 C 0.80228 0.7059 0.91023 0.0
C985 C 0.81731 0.65523 0.90517 0.0
C986 C 0.79269 0.66106 0.89664 0.0
C987 C 0.75954 0.69188 0.89275 0.0
C988 C 0.75112 0.71645 0.89819 0.0
C989 C 0.78488 0.68627 0.89935 0.0
C990 C 0.76865 0.736 0.90835 0.0
C991 C 0.79423 0.73091 0.91386 0.0
H992 H 0.60797 0.93147 0.82672 0.0
H993 H 0.67304 0.98504 0.81234 0.0
H994 H 0.66404 0.98033 0.76613 0.0
H995 H 0.63761 0.96084 0.73003 0.0
H996 H 0.57473 0.90471 0.74451 0.0
H997 H 0.58286 0.91058 0.79072 0.0
C998 C 0.62011 0.9422 0.81345 0.0
C999 C 0.64095 0.9588 0.82281 0.0
C1000 C 0.61517 0.93893 0.78707 0.0
C1001 C 0.65687 0.97219 0.80549 0.0
C1002 C 0.65169 0.96954 0.77914 0.0
C1003 C 0.62559 0.95006 0.74336 0.0
C1004 C 0.6054 0.93262 0.73405 0.0
C1005 C 0.63086 0.953 0.76975 0.0
C1006 C 0.59031 0.91829 0.75136 0.0
C1007 C 0.59495 0.92165 0.7777 0.0
H1008 H 0.65111 0.16551 0.22394 0.0
H1009 H 0.59833 0.21295 0.26264 0.0
H1010 H 0.61771 0.2028 0.30407 0.0
H1011 H 0.64946 0.18023 0.3291 0.0
H1012 H 0.70037 0.13075 0.29042 0.0
H1013 H 0.68195 0.14204 0.24896 0.0
C1014 C 0.64391 0.17372 0.24144 0.0
C1015 C 0.62347 0.19009 0.2403 0.0
C1016 C 0.65483 0.16748 0.26509 0.0
C1017 C 0.61406 0.20029 0.2631 0.0
C1018 C 0.62516 0.19455 0.28674 0.0
C1019 C 0.65664 0.17208 0.31157 0.0
C1020 C 0.67638 0.15489 0.3127 0.0
C1021 C 0.64556 0.17818 0.28793 0.0
C1022 C 0.68522 0.14408 0.28994 0.0
C1023 C 0.6747 0.15052 0.26628 0.0
H1024 H 0.50721 0.1374 0.76114 0.0
H1025 H 0.4553 0.08598 0.71503 0.0
H1026 H 0.43563 0.06856 0.75361 0.0
H1027 H 0.42998 0.07177 0.80037 0.0
H1028 H 0.48423 0.12067 0.84653 0.0
H1029 H 0.5064 0.13516 0.80813 0.0
C1030 C 0.49201 0.12197 0.75966 0.0
C1031 C 0.48253 0.11308 0.73546 0.0
C1032 C 0.48105 0.11183 0.78189 0.0
C1033 C 0.46296 0.09298 0.73358 0.0
C1034 C 0.45156 0.08319 0.75559 0.0
C1035 C 0.44692 0.08524 0.80191 0.0
C1036 C 0.45537 0.09541 0.826 0.0
C1037 C 0.45992 0.09304 0.77982 0.0
C1038 C 0.47749 0.11261 0.82804 0.0
C1039 C 0.49007 0.121 0.80613 0.0
H1040 H 0.43401 0.8241 0.25415 0.0
H1041 H 0.39296 0.87693 0.20854 0.0
H1042 H 0.38036 0.89949 0.24713 0.0
H1043 H 0.38018 0.90385 0.2938 0.0
H1044 H 0.41951 0.85022 0.33996 0.0
H1045 H 0.4335 0.82833 0.30132 0.0
C1046 C 0.42244 0.84064 0.25275 0.0
C1047 C 0.4144 0.84882 0.2286 0.0
C1048 C 0.41482 0.8533 0.27511 0.0
C1049 C 0.39924 0.87015 0.22696 0.0
C1050 C 0.39204 0.8831 0.24901 0.0
C1051 C 0.39183 0.88739 0.2954 0.0
C1052 C 0.39876 0.87866 0.31965 0.0
C1053 C 0.39955 0.87475 0.27317 0.0
C1054 C 0.41378 0.85723 0.32146 0.0
C1055 C 0.42186 0.84474 0.29938 0.0
H1056 H 0.19708 0.10196 0.56776 0.0
H1057 H 0.27278 0.14184 0.57406 0.0
H1058 H 0.27798 0.13653 0.52789 0.0
H1059 H 0.25632 0.13001 0.48551 0.0
H1060 H 0.18076 0.09004 0.47914 0.0
H1061 H 0.1803 0.08521 0.52564 0.0
C1062 C 0.21506 0.10864 0.55908 0.0
C1063 C 0.23429 0.12277 0.57397 0.0
C1064 C 0.21775 0.10573 0.53254 0.0
C1065 C 0.25769 0.13103 0.56282 0.0
C1066 C 0.26056 0.12821 0.53641 0.0
C1067 C 0.24032 0.11923 0.49431 0.0
C1068 C 0.2185 0.11059 0.47928 0.0
C1069 C 0.24008 0.11697 0.52099 0.0
C1070 C 0.19777 0.09668 0.49053 0.0
C1071 C 0.19739 0.09424 0.51711 0.0
H1072 H 0.41827 0.54248 0.97752 0.0
H1073 H 0.43295 0.62438 0.99037 0.0
H1074 H 0.44663 0.61755 0.03465 0.0
H1075 H 0.44442 0.5895 0.07136 0.0
H1076 H 0.42136 0.50877 0.06029 0.0
H1077 H 0.42195 0.51338 1.01376 0.0
C1078 C 0.42528 0.55864 0.98991 0.0
C1079 C 0.42457 0.58384 0.98108 0.0
C1080 C 0.43149 0.55463 1.01574 0.0
C1081 C 0.43326 0.60484 0.99709 0.0
C1082 C 0.44102 0.60093 1.02234 0.0
C1083 C 0.44075 0.57273 0.05869 0.0
C1084 C 0.43295 0.54885 0.06897 0.0
C1085 C 0.43886 0.57606 0.03221 0.0
C1086 C 0.42759 0.52728 0.05257 0.0
C1087 C 0.42755 0.53003 0.02603 0.0
H1088 H 0.83092 0.93865 0.48041 0.0
H1089 H 0.91192 0.96343 0.48412 0.0
H1090 H 0.91073 0.96705 0.53081 0.0
H1091 H 0.88947 0.95155 0.56957 0.0
H1092 H 0.80891 0.92481 0.56612 0.0
H1093 H 0.80672 0.93383 0.52028 0.0
C1094 C 0.84786 0.94625 0.49148 0.0
C1095 C 0.87146 0.95082 0.47919 0.0
C1096 C 0.84721 0.94707 0.5183 0.0
C1097 C 0.89353 0.96018 0.49339 0.0
C1098 C 0.89293 0.96177 0.52006 0.0
C1099 C 0.87126 0.94857 0.55886 0.0
C1100 C 0.84952 0.93709 0.57071 0.0
C1101 C 0.87034 0.95347 0.53265 0.0
C1102 C 0.82586 0.93353 0.5571 0.0
C1103 C 0.82469 0.93853 0.53094 0.0
H1104 H 0.64195 0.48559 0.9885 0.0
H1105 H 0.7232 0.48659 1.00883 0.0
H1106 H 0.71321 0.49072 0.0542 0.0
H1107 H 0.68133 0.48933 0.08776 0.0
H1108 H 0.59979 0.48322 0.06777 0.0
H1109 H 0.60995 0.48625 1.02234 0.0
C1110 C 0.6575 0.48728 1.00284 0.0
C1111 C 0.68327 0.48584 0.99544 0.0
C1112 C 0.65152 0.48852 0.02884 0.0
C1113 C 0.70323 0.48765 1.01416 0.0
C1114 C 0.69751 0.48993 0.04005 0.0
C1115 C 0.66571 0.48899 0.07354 0.0
C1116 C 0.63981 0.48584 0.08107 0.0
C1117 C 0.6717 0.48965 0.04758 0.0
C1118 C 0.61986 0.48544 0.06239 0.0
C1119 C 0.62567 0.48713 0.03646 0.0
H1120 H 0.1126 0.97089 0.56464 0.0
H1121 H 0.04203 0.92206 0.56077 0.0
H1122 H 0.03979 0.92577 0.51421 0.0
H1123 H 0.06461 0.93286 0.47527 0.0
H1124 H 0.13629 0.98017 0.47905 0.0
H1125 H 0.13125 0.98786 0.52497 0.0
C1126 C 0.09606 0.96231 0.5536 0.0
C1127 C 0.07754 0.9462 0.5657 0.0
C1128 C 0.09554 0.96376 0.52686 0.0
C1129 C 0.05629 0.93473 0.55159 0.0
C1130 C 0.05526 0.93655 0.52499 0.0
C1131 C 0.07856 0.94563 0.48607 0.0
C1132 C 0.10107 0.95542 0.47426 0.0
C1133 C 0.07577 0.94946 0.51242 0.0
C1134 C 0.11892 0.9723 0.48799 0.0
C1135 C 0.11615 0.9765 0.51425 0.0
H1136 H 0.61895 0.71354 0.99349 0.0
H1137 H 0.69266 0.75595 1.00674 0.0
H1138 H 0.68413 0.76004 0.05239 0.0
H1139 H 0.66007 0.74407 0.08869 0.0
H1140 H 0.58856 0.69744 0.07689 0.0
H1141 H 0.59132 0.70283 0.03041 0.0
C1142 C 0.6326 0.72441 1.00639 0.0
C1143 C 0.65634 0.73448 0.9972 0.0
C1144 C 0.62811 0.72545 0.03277 0.0
C1145 C 0.67428 0.74816 1.01374 0.0
C1146 C 0.66947 0.75034 0.03975 0.0
C1147 C 0.64483 0.73551 0.07593 0.0
C1148 C 0.62451 0.71989 0.08586 0.0
C1149 C 0.64713 0.73788 0.04955 0.0
C1150 C 0.60449 0.70937 0.06945 0.0
C1151 C 0.6062 0.7123 0.04295 0.0
H1152 H 1.01326 0.13454 0.48818 0.0
H1153 H 0.9381 0.09337 0.48553 0.0
H1154 H 0.94044 0.08783 0.53183 0.0
H1155 H 0.95981 0.10334 0.57331 0.0
H1156 H 0.0354 0.14333 0.57611 0.0
H1157 H 0.03756 0.13994 0.52942 0.0
C1158 C 0.9978 0.12372 0.49775 0.0
C1159 C 0.97532 0.11486 0.48384 0.0
C1160 C 0.9994 0.12044 0.5243 0.0
C1161 C 0.9555 0.10048 0.49607 0.0
C1162 C 0.95678 0.09741 0.52251 0.0
C1163 C 0.97724 0.11007 0.56369 0.0
C1164 C 0.99737 0.1236 0.57778 0.0
C1165 C 0.97807 0.10845 0.53692 0.0
C1166 C 1.01985 0.13258 0.56544 0.0
C1167 C 1.02087 0.13104 0.53875 0.0
H1168 H 0.41163 0.30127 0.97671 0.0
H1169 H 0.46244 0.36843 0.99601 0.0
H1170 H 0.46432 0.35573 0.04074 0.0
H1171 H 0.4429 0.33184 0.07512 0.0
H1172 H 0.3863 0.26921 0.05613 0.0
H1173 H 0.39553 0.27329 1.01066 0.0
C1174 C 0.42393 0.31253 0.99055 0.0
C1175 C 0.43668 0.33583 0.9833 0.0
C1176 C 0.42336 0.30611 1.01646 0.0
C1177 C 0.45235 0.35048 1.00133 0.0
C1178 C 0.45323 0.34333 0.02692 0.0
C1179 C 0.43334 0.31849 0.06105 0.0
C1180 C 0.41382 0.30043 0.06873 0.0
C1181 C 0.43751 0.32212 0.03491 0.0
C1182 C 0.40127 0.28339 0.05046 0.0
C1183 C 0.40644 0.28582 0.0245 0.0
H1184 H 0.55139 0.12866 0.15002 0.0
H1185 H 0.52439 0.18398 0.09735 0.0
H1186 H 0.48551 0.15538 0.08718 0.0
H1187 H 0.457 0.11706 0.09791 0.0
H1188 H 0.48524 0.06215 0.15063 0.0
H1189 H 0.52631 0.08773 0.1555 0.0
C1190 C 0.53703 0.13431 0.13615 0.0
C1191 C 0.54018 0.15848 0.12488 0.0
C1192 C 0.51515 0.11775 0.13029 0.0
C1193 C 0.52202 0.16548 0.10644 0.0
C1194 C 0.49988 0.14915 0.10066 0.0
C1195 C 0.47249 0.11028 0.10975 0.0
C1196 C 0.46802 0.08791 0.12413 0.0
C1197 C 0.49592 0.12551 0.11301 0.0
C1198 C 0.48818 0.07942 0.13954 0.0
C1199 C 0.51158 0.09414 0.14251 0.0
H1200 H 0.40912 1.00212 0.61415 0.0
H1201 H 0.35338 0.04961 0.64806 0.0
H1202 H 0.38007 0.08842 0.63789 0.0
H1203 H 0.42261 0.10778 0.62763 0.0
H1204 H 0.48101 0.0598 0.59973 0.0
H1205 H 0.44963 1.0224 0.59817 0.0
C1206 C 0.40251 1.021 0.61867 0.0
C1207 C 0.37955 1.02307 0.63215 0.0
C1208 C 0.41853 0.04315 0.61385 0.0
C1209 C 0.37119 0.04759 0.63799 0.0
C1210 C 0.38643 0.06977 0.63217 0.0
C1211 C 0.42824 0.08937 0.62026 0.0
C1212 C 0.45415 0.08645 0.61409 0.0
C1213 C 0.41068 0.06769 0.62125 0.0
C1214 C 0.46118 0.06245 0.6047 0.0
C1215 C 0.44332 0.04102 0.60412 0.0
H1216 H 0.50378 0.83217 0.11575 0.0
H1217 H 0.44689 0.88604 0.09768 0.0
H1218 H 0.48111 0.91929 0.08943 0.0
H1219 H 0.52687 0.93501 0.0961 0.0
H1220 H 0.58391 0.8806 0.11146 0.0
H1221 H 0.55016 0.84536 0.11138 0.0
C1222 C 0.49901 0.85094 0.10916 0.0
C1223 C 0.47305 0.85689 0.10763 0.0
C1224 C 0.51878 0.86986 0.10413 0.0
C1225 C 0.46685 0.88112 0.09893 0.0
C1226 C 0.48639 0.9002 0.0944 0.0
C1227 C 0.5319 0.91524 0.0982 0.0
C1228 C 0.55762 0.91023 0.10375 0.0
C1229 C 0.51239 0.89511 0.09813 0.0
C1230 C 0.56415 0.8847 0.10678 0.0
C1231 C 0.54483 0.86462 0.10711 0.0
H1232 H 0.7284 0.04904 0.64861 0.0
H1233 H 0.67768 0.10849 0.62966 0.0
H1234 H 0.64354 0.07605 0.61646 0.0
H1235 H 0.62569 0.0311 0.61876 0.0
H1236 H 0.67685 0.97138 0.6353 0.0
H1237 H 0.71338 1.00345 0.64041 0.0
C1238 C 0.71013 0.05479 0.64086 0.0
C1239 C 0.70528 0.08097 0.6406 0.0
C1240 C 0.69059 0.03601 0.63311 0.0
C1241 C 0.68177 0.08837 0.63015 0.0
C1242 C 0.66214 0.06984 0.62276 0.0
C1243 C 0.64503 1.02514 0.62257 0.0
C1244 C 0.64864 0.99919 0.62707 0.0
C1245 C 0.66594 0.04364 0.62539 0.0
C1246 C 0.67371 0.9914 0.63176 0.0
C1247 C 0.69456 1.00973 0.63495 0.0
H1248 H 0.50911 0.84767 0.90434 0.0
H1249 H 0.45816 0.90705 0.92316 0.0
H1250 H 0.4951 0.9363 0.93659 0.0
H1251 H 0.54198 0.94705 0.93562 0.0
H1252 H 0.59305 0.88714 0.91907 0.0
H1253 H 0.55604 0.85574 0.91284 0.0
C1254 C 0.5062 0.86682 0.91196 0.0
C1255 C 0.48124 0.87551 0.91235 0.0
C1256 C 0.52749 0.8834 0.91997 0.0
C1257 C 0.47737 0.9001 0.92263 0.0
C1258 C 0.49845 0.91686 0.93019 0.0
C1259 C 0.54493 0.92693 0.9315 0.0
C1260 C 0.56994 0.91938 0.9274 0.0
C1261 C 0.52362 0.90904 0.92792 0.0
C1262 C 0.57382 0.89329 0.92233 0.0
C1263 C 0.55268 0.8754 0.91847 0.0
H1264 H 0.60721 0.99863 0.42026 0.0
H1265 H 0.66964 0.97698 0.46944 0.0
H1266 H 0.68741 1.02199 0.47201 0.0
H1267 H 0.68927 0.06564 0.4534 0.0
H1268 H 0.62899 0.08446 0.40013 0.0
H1269 H 0.60623 0.04247 0.40593 0.0
C1270 C 0.62443 1.00384 0.43199 0.0
C1271 C 0.63741 0.98456 0.44421 0.0
C1272 C 0.63515 0.02921 0.43219 0.0
C1273 C 0.65937 0.99155 0.45978 0.0
C1274 C 0.66969 1.01721 0.46098 0.0
C1275 C 0.67089 0.06059 0.44356 0.0
C1276 C 0.66087 0.07773 0.42612 0.0
C1277 C 0.65842 0.03593 0.44621 0.0
C1278 C 0.63713 0.07124 0.41333 0.0
C1279 C 0.62412 0.04733 0.41668 0.0
H1280 H 0.4722 0.15455 0.92761 0.0
H1281 H 0.51021 0.09112 0.95985 0.0
H1282 H 0.55183 0.1164 0.95938 0.0
H1283 H 0.57801 0.15305 0.94212 0.0
H1284 H 0.53993 0.21346 0.90435 0.0
H1285 H 0.49776 0.19284 0.91443 0.0
C1286 C 0.48943 0.14659 0.93544 0.0
C1287 C 0.48821 0.12102 0.94373 0.0
C1288 C 0.51341 0.16046 0.93331 0.0
C1289 C 0.51073 0.11082 0.95344 0.0
C1290 C 0.53455 0.12514 0.95285 0.0
C1291 C 0.56045 0.16189 0.93651 0.0
C1292 C 0.56199 0.18452 0.92223 0.0
C1293 C 0.53627 0.14942 0.94155 0.0
C1294 C 0.53917 0.19581 0.91502 0.0
C1295 C 0.51508 0.1841 0.92087 0.0
H1296 H 0.3993 0.99256 0.45178 0.0
H1297 H 0.4475 0.97312 0.3889 0.0
H1298 H 0.46961 1.01602 0.39162 0.0
H1299 H 0.47131 0.0601 0.40773 0.0
H1300 H 0.42037 0.08199 0.46737 0.0
H1301 H 0.40392 0.03685 0.47082 0.0
C1302 C 0.41491 0.9977 0.43898 0.0
C1303 C 0.42155 0.97996 0.41991 0.0
C1304 C 0.42702 1.02276 0.44011 0.0
C1305 C 0.44178 0.98668 0.40341 0.0
C1306 C 0.45449 1.01113 0.40503 0.0
C1307 C 0.45688 0.05501 0.42181 0.0
C1308 C 0.44671 0.07438 0.43693 0.0
C1309 C 0.44667 0.02951 0.42269 0.0
C1310 C 0.42844 0.06741 0.45543 0.0
C1311 C 0.41883 0.04166 0.45719 0.0
H1312 H 0.08531 0.46449 0.16474 0.0
H1313 H 0.1396 0.50405 0.21852 0.0
H1314 H 0.12767 0.54567 0.20275 0.0
H1315 H 0.11062 0.56915 0.16696 0.0
H1316 H 0.06388 0.52829 0.10768 0.0
H1317 H 0.06303 0.48901 0.13263 0.0
C1318 C 0.09379 0.48227 0.17364 0.0
C1319 C 0.11342 0.48136 0.19259 0.0
C1320 C 0.08831 0.5059 0.16313 0.0
C1321 C 0.12455 0.50442 0.20379 0.0
C1322 C 0.11783 0.52815 0.19467 0.0
C1323 C 0.09932 0.55193 0.16001 0.0
C1324 C 0.0875 0.55143 0.13546 0.0
C1325 C 0.10098 0.52899 0.17331 0.0
C1326 C 0.07317 0.529 0.12651 0.0
C1327 C 0.07297 0.5065 0.14064 0.0
H1328 H 0.11392 0.5675 0.92008 0.0
H1329 H 0.08547 0.52653 0.85131 0.0
H1330 H 0.07905 0.48673 0.87521 0.0
H1331 H 0.09208 0.46243 0.91203 0.0
H1332 H 0.13044 0.50202 0.97729 0.0
H1333 H 0.12189 0.54364 0.95901 0.0
C1334 C 0.10535 0.55003 0.91063 0.0
C1335 C 0.10011 0.5497 0.8841 0.0
C1336 C 0.10401 0.52692 0.92395 0.0
C1337 C 0.08954 0.52703 0.87177 0.0
C1338 C 0.08611 0.50432 0.88539 0.0
C1339 C 0.09766 0.48016 0.92274 0.0
C1340 C 0.11196 0.4793 0.9459 0.0
C1341 C 0.09482 0.50377 0.91103 0.0
C1342 C 0.11944 0.50234 0.95942 0.0
C1343 C 0.11477 0.52607 0.94882 0.0
H1344 H 0.05765 0.59655 0.38626 0.0
H1345 H 0.09375 0.66387 0.42603 0.0
H1346 H 0.05553 0.66792 0.45131 0.0
H1347 H 1.00952 0.65769 0.45605 0.0
H1348 H 0.97158 0.59178 0.41599 0.0
H1349 H 1.01275 0.58128 0.39751 0.0
C1350 C 0.05721 0.61166 0.40088 0.0
C1351 C 0.07804 0.63035 0.40377 0.0
C1352 C 0.03479 0.61423 0.4152 0.0
C1353 C 0.07755 0.64971 0.42297 0.0
C1354 C 0.05577 0.65202 0.43754 0.0
C1355 C 1.01052 0.64052 0.44398 0.0
C1356 C 0.98779 0.6257 0.43708 0.0
C1357 C 0.03389 0.63519 0.43292 0.0
C1358 C 0.98905 0.60339 0.42159 0.0
C1359 C 1.0125 0.59762 0.41075 0.0
H1360 H 0.93998 0.5542 0.93103 0.0
H1361 H 0.9428 0.61394 0.87511 0.0
H1362 H 0.9542 0.58313 0.842 0.0
H1363 H 0.9547 0.53777 0.82776 0.0
H1364 H 0.95439 0.47841 0.88406 0.0
H1365 H 0.95194 0.51057 0.91833 0.0
C1366 C 0.94382 0.56049 0.91174 0.0
C1367 C 0.9401 0.58598 0.90525 0.0
C1368 C 0.95082 0.54277 0.89288 0.0
C1369 C 0.94546 0.59425 0.8804 0.0
C1370 C 0.95189 0.57665 0.86144 0.0
C1371 C 0.95514 0.53201 0.84758 0.0
C1372 C 0.95386 0.50571 0.8533 0.0
C1373 C 0.95345 0.55062 0.86724 0.0
C1374 C 0.95497 0.49851 0.87908 0.0
C1375 C 0.95324 0.51689 0.89875 0.0
H1376 H 0.09937 0.41592 0.37579 0.0
H1377 H 0.06511 0.46282 0.43296 0.0
H1378 H 1.02666 0.4658 0.40491 0.0
H1379 H 1.00078 0.44941 0.36682 0.0
H1380 H 0.03547 0.40122 0.31074 0.0
H1381 H 0.07628 0.40511 0.3352 0.0
C1382 C 0.08356 0.42708 0.38186 0.0
C1383 C 0.08453 0.43875 0.40636 0.0
C1384 C 0.06179 0.42854 0.36578 0.0
C1385 C 0.06442 0.45356 0.41415 0.0
C1386 C 0.04254 0.4552 0.39815 0.0
C1387 C 1.01754 0.44052 0.35955 0.0
C1388 C 1.0151 0.42483 0.33716 0.0
C1389 C 0.04069 0.44205 0.37425 0.0
C1390 C 0.03688 0.41323 0.32802 0.0
C1391 C 0.06013 0.41526 0.34209 0.0
H1392 H 0.95454 0.51648 0.0817 0.0
H1393 H 0.93111 0.45682 0.13402 0.0
H1394 H 0.92626 0.489 0.16783 0.0
H1395 H 0.91984 0.53446 0.17916 0.0
H1396 H 0.9483 0.59403 0.12895 0.0
H1397 H 0.96024 0.56163 0.09775 0.0
C1398 C 0.94941 0.51053 0.1008 0.0
C1399 C 0.94254 0.48449 0.10521 0.0
C1400 C 0.94688 0.52915 0.12031 0.0
C1401 C 0.9363 0.47685 0.13011 0.0
C1402 C 0.93321 0.49527 0.14942 0.0
C1403 C 0.92924 0.54026 0.16167 0.0
C1404 C 0.93209 0.56644 0.15572 0.0
C1405 C 0.93699 0.52153 0.14423 0.0
C1406 C 0.94508 0.57389 0.13348 0.0
C1407 C 0.95202 0.55539 0.11565 0.0
H1408 H 0.02917 0.40601 0.56729 0.0
H1409 H 0.99766 0.46916 0.60815 0.0
H1410 H 0.03575 0.47288 0.63705 0.0
H1411 H 0.07417 0.45284 0.65509 0.0
H1412 H 0.10168 0.38635 0.61591 0.0
H1413 H 0.06874 0.38887 0.58247 0.0
C1414 C 0.03089 0.42103 0.58215 0.0
C1415 C 1.01046 0.43696 0.58586 0.0
C1416 C 0.05176 0.42183 0.59961 0.0
C1417 C 1.01315 0.45662 0.60487 0.0
C1418 C 0.03472 0.45844 0.6217 0.0
C1419 C 0.07295 0.43905 0.63914 0.0
C1420 C 0.08992 0.41906 0.63834 0.0
C1421 C 0.05346 0.44023 0.62005 0.0
C1422 C 0.08841 0.4015 0.6174 0.0
C1423 C 0.06974 0.40305 0.59808 0.0
H1424 H 0.0691 0.62453 0.64948 0.0
H1425 H 0.04978 0.64266 0.5715 0.0
H1426 H 1.00545 0.6494 0.58342 0.0
H1427 H 0.97499 0.65709 0.61692 0.0
H1428 H 0.9938 0.64097 0.69551 0.0
H1429 H 0.03596 0.62675 0.68261 0.0
C1430 C 0.05482 0.62891 0.63498 0.0
C1431 C 0.06243 0.63307 0.60967 0.0
C1432 C 0.0298 0.63408 0.64229 0.0
C1433 C 0.0441 0.63924 0.59104 0.0
C1434 C 1.01895 0.64345 0.59793 0.0
C1435 C 0.98835 0.6505 0.63126 0.0
C1436 C 0.9819 0.65085 0.65719 0.0
C1437 C 1.01209 0.64224 0.62367 0.0
C1438 C 0.99878 0.64134 0.67549 0.0
C1439 C 1.02272 0.63312 0.66809 0.0
H1440 H 0.03558 0.15931 0.3817 0.0
H1441 H 0.02787 0.07623 0.37835 0.0
H1442 H 0.07504 0.07503 0.37703 0.0
H1443 H 0.11923 0.09787 0.38193 0.0
H1444 H 0.12552 0.18098 0.38596 0.0
H1445 H 0.07871 0.18182 0.38153 0.0
C1446 C 0.04411 0.14088 0.38021 0.0
C1447 C 0.02794 0.1179 0.38025 0.0
C1448 C 0.07133 0.14033 0.37968 0.0
C1449 C 0.03962 0.09428 0.37826 0.0
C1450 C 0.06674 0.09358 0.37767 0.0
C1451 C 0.11036 0.11611 0.381 0.0
C1452 C 0.12608 0.13938 0.38407 0.0
C1453 C 0.08294 0.1165 0.379 0.0
C1454 C 0.11405 0.16282 0.38346 0.0
C1455 C 0.08716 0.16333 0.38111 0.0
H1456 H 0.44333 0.43516 0.89789 0.0
H1457 H 0.39087 0.41166 0.83498 0.0
H1458 H 0.38821 0.45693 0.82362 0.0
H1459 H 0.39604 0.50372 0.83545 0.0
H1460 H 0.44568 0.52592 0.90085 0.0
H1461 H 0.45409 0.48092 0.90725 0.0
C1462 C 0.43168 0.43973 0.8813 0.0
C1463 C 0.41723 0.41969 0.86743 0.0
C1464 C 0.4294 0.46587 0.87555 0.0
C1465 C 0.40236 0.4264 0.84601 0.0
C1466 C 0.4006 0.45243 0.83967 0.0
C1467 C 0.40918 0.49874 0.85071 0.0
C1468 C 0.42026 0.51837 0.86763 0.0
C1469 C 0.41333 0.47243 0.85485 0.0
C1470 C 0.43688 0.51138 0.88755 0.0
C1471 C 0.44166 0.48556 0.89127 0.0
H1472 H 0.04575 0.89193 0.38005 0.0
H1473 H 0.04903 0.9739 0.36871 0.0
H1474 H 1.00166 0.97282 0.36847 0.0
H1475 H 0.95893 0.94906 0.37662 0.0
H1476 H 0.95702 0.86707 0.38798 0.0
H1477 H 1.00357 0.86771 0.38267 0.0
C1478 C 0.03616 0.90954 0.37702 0.0
C1479 C 0.05123 0.93298 0.3745 0.0
C1480 C 1.00881 0.9088 0.37703 0.0
C1481 C 0.03817 0.95551 0.37058 0.0
C1482 C 1.01093 0.95493 0.37061 0.0
C1483 C 0.9686 0.93125 0.37712 0.0
C1484 C 0.95419 0.908 0.38268 0.0
C1485 C 0.99594 0.93176 0.37447 0.0
C1486 C 0.96738 0.88524 0.38373 0.0
C1487 C 0.99417 0.88558 0.38084 0.0
H1488 H 0.64607 0.54485 0.92753 0.0
H1489 H 0.63906 0.53818 0.84529 0.0
H1490 H 0.63819 0.58521 0.84269 0.0
H1491 H 0.64364 0.6292 0.86401 0.0
H1492 H 0.64896 0.63404 0.94663 0.0
H1493 H 0.64591 0.58739 0.94868 0.0
C1494 C 0.64395 0.55359 0.90902 0.0
C1495 C 0.64277 0.53779 0.88666 0.0
C1496 C 0.64329 0.58068 0.90767 0.0
C1497 C 0.63989 0.54968 0.86289 0.0
C1498 C 0.63955 0.57671 0.86138 0.0
C1499 C 0.64351 0.62005 0.88244 0.0
C1500 C 0.64685 0.63554 0.90512 0.0
C1501 C 0.64177 0.5926 0.88365 0.0
C1502 C 0.64674 0.62297 0.92878 0.0
C1503 C 0.64505 0.5961 0.93005 0.0
H1504 H 0.93609 0.94729 0.64941 0.0
H1505 H 0.92101 0.91358 0.72258 0.0
H1506 H 0.96777 0.91284 0.73127 0.0
H1507 H 1.01315 0.91669 0.71527 0.0
H1508 H 1.02645 0.94961 0.6412 0.0
H1509 H 0.98059 0.95565 0.63582 0.0
C1510 C 0.94296 0.94033 0.66759 0.0
C1511 C 0.92482 0.93051 0.68529 0.0
C1512 C 0.96981 0.93937 0.67212 0.0
C1513 C 0.93431 0.92157 0.70869 0.0
C1514 C 0.96116 0.92083 0.7135 0.0
C1515 C 1.00608 0.92564 0.69819 0.0
C1516 C 1.02355 0.93246 0.67858 0.0
C1517 C 0.97916 0.9289 0.69497 0.0
C1518 C 1.01375 0.94394 0.65657 0.0
C1519 C 0.98737 0.94743 0.65342 0.0
H1520 H 0.5784 0.53846 0.17845 0.0
H1521 H 0.65936 0.52813 0.19284 0.0
H1522 H 0.66815 0.57455 0.19813 0.0
H1523 H 0.65425 0.6183 0.19326 0.0
H1524 H 0.57376 0.62994 0.17901 0.0
H1525 H 0.56337 0.5831 0.1796 0.0
C1526 C 0.59786 0.5463 0.18334 0.0
C1527 C 0.61821 0.52953 0.18498 0.0
C1528 C 0.60295 0.57341 0.1862 0.0
C1529 C 0.64328 0.5403 0.19129 0.0
C1530 C 0.6484 0.56699 0.19425 0.0
C1531 C 0.6343 0.61066 0.19089 0.0
C1532 C 0.61484 0.62772 0.18602 0.0
C1533 C 0.62858 0.58375 0.19095 0.0
C1534 C 0.58911 0.6174 0.18305 0.0
C1535 C 0.58322 0.59052 0.1831 0.0
H1536 H 0.07932 0.17258 0.72276 0.0
H1537 H 0.05589 0.12204 0.6584 0.0
H1538 H 0.10032 0.11068 0.65367 0.0
H1539 H 0.14642 0.1189 0.66406 0.0
H1540 H 0.17126 0.17095 0.72671 0.0
H1541 H 0.126 0.17714 0.73629 0.0
C1542 C 0.08386 0.15871 0.70802 0.0
C1543 C 0.06406 0.14838 0.69083 0.0
C1544 C 0.10988 0.15248 0.70504 0.0
C1545 C 0.07053 0.1305 0.6718 0.0
C1546 C 0.09605 0.12395 0.66905 0.0
C1547 C 0.14206 0.13114 0.68026 0.0
C1548 C 0.16252 0.14449 0.69453 0.0
C1549 C 0.11599 0.13536 0.68505 0.0
C1550 C 0.15616 0.1602 0.71546 0.0
C1551 C 0.13015 0.16404 0.72073 0.0
H1552 H 0.37114 0.48298 0.16126 0.0
H1553 H 0.453 0.49178 0.17883 0.0
H1554 H 0.45464 0.44493 0.18012 0.0
H1555 H 0.43357 0.40079 0.17128 0.0
H1556 H 0.3517 0.39283 0.15395 0.0
H1557 H 0.34928 0.43942 0.15793 0.0
C1558 C 0.38927 0.47472 0.16585 0.0
C1559 C 0.41192 0.49114 0.16978 0.0
C1560 C 0.39012 0.44759 0.16653 0.0
C1561 C 0.43519 0.47983 0.17574 0.0
C1562 C 0.43619 0.45289 0.17637 0.0
C1563 C 0.41512 0.40924 0.16924 0.0
C1564 C 0.39277 0.39321 0.16256 0.0
C1565 C 0.4139 0.43645 0.17117 0.0
C1566 C 0.36912 0.40464 0.15934 0.0
C1567 C 0.36774 0.43138 0.16141 0.0
H1568 H 0.36113 0.97744 0.16625 0.0
H1569 H 0.36679 0.99194 0.08564 0.0
H1570 H 0.364 0.9453 0.07621 0.0
H1571 H 0.36568 0.90016 0.0917 0.0
H1572 H 0.36025 0.8871 0.17273 0.0
H1573 H 0.35699 0.933 0.181 0.0
C1574 C 0.36122 0.97048 0.14652 0.0
C1575 C 0.36431 0.9884 0.12672 0.0
C1576 C 0.3599 0.94364 0.1413 0.0
C1577 C 0.36425 0.97879 0.1013 0.0
C1578 C 0.3629 0.95201 0.09592 0.0
C1579 C 0.36302 0.90727 0.11106 0.0
C1580 C 0.36334 0.88993 0.13157 0.0
C1581 C 0.36149 0.93417 0.11585 0.0
C1582 C 0.36021 0.89977 0.15656 0.0
C1583 C 0.35843 0.92616 0.16135 0.0
H1584 H 0.43393 0.94394 0.61335 0.0
H1585 H 0.42069 0.8645 0.63423 0.0
H1586 H 0.46738 0.85972 0.63528 0.0
H1587 H 0.51268 0.87973 0.63499 0.0
H1588 H 0.52473 0.9591 0.61298 0.0
H1589 H 0.47839 0.96198 0.60742 0.0
C1590 C 0.44117 0.9254 0.61764 0.0
C1591 C 0.42358 0.90468 0.6238 0.0
C1592 C 0.46816 0.92276 0.61826 0.0
C1593 C 0.43357 0.88082 0.62927 0.0
C1594 C 0.46041 0.87811 0.63006 0.0
C1595 C 0.50522 0.89744 0.62836 0.0
C1596 C 0.52255 0.91924 0.62474 0.0
C1597 C 0.47804 0.89915 0.62523 0.0
C1598 C 0.51217 0.94202 0.61625 0.0
C1599 C 0.48549 0.94378 0.61308 0.0
H1600 H 0.64588 0.11789 0.09889 0.0
H1601 H 0.63845 0.13194 0.1801 0.0
H1602 H 0.64025 0.0862 0.18779 0.0
H1603 H 0.63789 0.04152 0.17131 0.0
H1604 H 0.64556 1.02598 0.09071 0.0
H1605 H 0.65017 0.07256 0.08299 0.0
C1606 C 0.64532 0.11102 0.11831 0.0
C1607 C 0.64173 0.12861 0.13882 0.0
C1608 C 0.64623 0.08422 0.12274 0.0
C1609 C 0.64096 0.1191 0.16385 0.0
C1610 C 0.64194 0.09279 0.16833 0.0
C1611 C 0.64146 0.04835 0.15216 0.0
C1612 C 0.64169 0.03026 0.13167 0.0
C1613 C 0.64372 0.07509 0.14791 0.0
C1614 C 0.64585 0.03942 0.10689 0.0
C1615 C 0.64813 0.06612 0.10246 0.0
H1616 H 0.6553 0.21936 0.67159 0.0
H1617 H 0.66708 0.15305 0.62331 0.0
H1618 H 0.62049 0.14516 0.61639 0.0
H1619 H 0.57639 0.15369 0.62814 0.0
H1620 H 0.56351 0.21907 0.67735 0.0
H1621 H 0.61013 0.23095 0.67938 0.0
C1622 C 0.64766 0.20366 0.65896 0.0
C1623 C 0.6648 0.18674 0.64805 0.0
C1624 C 0.62049 0.19885 0.65546 0.0
C1625 C 0.65444 0.16625 0.63208 0.0
C1626 C 0.62772 0.16168 0.62816 0.0
C1627 C 0.58363 0.17084 0.63898 0.0
C1628 C 0.56622 0.18529 0.65273 0.0
C1629 C 0.61053 0.1773 0.64042 0.0
C1630 C 0.57624 0.20753 0.6665 0.0
C1631 C 0.60302 0.21425 0.66782 0.0
H1632 H 0.41166 1.00569 0.93157 0.0
H1633 H 0.34432 1.02026 0.88551 0.0
H1634 H 0.33114 0.97398 0.88415 0.0
H1635 H 0.34168 0.92846 0.89186 0.0
H1636 H 0.41075 0.91519 0.9358 0.0
H1637 H 0.42009 0.96152 0.94226 0.0
C1638 C 0.39382 0.99895 0.92152 0.0
C1639 C 0.37914 1.01677 0.90855 0.0
C1640 C 0.38672 0.97223 0.92029 0.0
C1641 C 0.35607 1.00727 0.89576 0.0
C1642 C 0.34859 0.98066 0.89483 0.0
C1643 C 0.35835 0.93575 0.90344 0.0
C1644 C 0.37541 0.9182 0.9135 0.0
C1645 C 0.36413 0.96281 0.90646 0.0
C1646 C 0.39725 0.92811 0.92794 0.0
C1647 C 0.40269 0.95469 0.93155 0.0
H1648 H 0.53709 0.86639 0.3937 0.0
H1649 H 0.55599 0.88338 0.47327 0.0
H1650 H 0.50972 0.88124 0.48291 0.0
H1651 H 0.46363 0.88125 0.46712 0.0
H1652 H 0.44625 0.86458 0.38696 0.0
H1653 H 0.49175 0.85968 0.37934 0.0
C1654 C 0.53114 0.86878 0.41333 0.0
C1655 C 0.55014 0.87495 0.43272 0.0
C1656 C 0.50451 0.86807 0.41858 0.0
C1657 C 0.54195 0.87819 0.458 0.0
C1658 C 0.51537 0.87735 0.46344 0.0
C1659 C 0.46971 0.87585 0.44815 0.0
C1660 C 0.45125 0.87356 0.42761 0.0
C1661 C 0.49639 0.87328 0.44369 0.0
C1662 C 0.45977 0.8667 0.40314 0.0
C1663 C 0.48593 0.86393 0.39869 0.0
H1664 H 0.639 0.12728 0.94706 0.0
H1665 H 0.71964 0.13794 0.92905 0.0
H1666 H 0.72241 0.09108 0.92619 0.0
H1667 H 0.70045 0.04652 0.92448 0.0
H1668 H 0.6201 0.03718 0.94471 0.0
H1669 H 0.61898 0.0834 0.95125 0.0
C1670 C 0.65734 0.1194 0.94298 0.0
C1671 C 0.67902 0.13635 0.93821 0.0
C1672 C 0.65886 0.09233 0.94153 0.0
C1673 C 0.7026 0.12555 0.933 0.0
C1674 C 0.70416 0.09862 0.93117 0.0
C1675 C 0.68289 0.05451 0.93091 0.0
C1676 C 0.66031 0.03795 0.93369 0.0
C1677 C 0.68224 0.08169 0.93482 0.0
C1678 C 0.63778 0.04908 0.94202 0.0
C1679 C 0.63702 0.07573 0.94576 0.0
H1680 H 0.54207 0.18499 0.38301 0.0
H1681 H 0.5274 0.18221 0.46378 0.0
H1682 H 0.57414 0.18526 0.47331 0.0
H1683 H 0.61936 0.18253 0.45809 0.0
H1684 H 0.63257 0.18451 0.37686 0.0
H1685 H 0.58666 0.1881 0.3683 0.0
C1686 C 0.54902 0.18569 0.40278 0.0
C1687 C 0.531 0.18328 0.42261 0.0
C1688 C 0.57593 0.1869 0.40807 0.0
C1689 C 0.5406 0.18427 0.44808 0.0
C1690 C 0.56745 0.1857 0.45352 0.0
C1691 C 0.61229 0.18441 0.43858 0.0
C1692 C 0.62969 0.18306 0.41816 0.0
C1693 C 0.58536 0.18614 0.43362 0.0
C1694 C 0.61989 0.18532 0.393 0.0
C1695 C 0.59347 0.18732 0.38802 0.0
H1696 H 0.10349 0.36982 0.02481 0.0
H1697 H 0.18345 0.39586 1.0146 0.0
H1698 H 0.19106 0.39732 0.06065 0.0
H1699 H 0.17457 0.39588 0.104 0.0
H1700 H 0.09528 0.36993 0.11632 0.0
H1701 H 0.08801 0.36335 0.06975 0.0
C1702 C 0.12268 0.37529 0.03265 0.0
C1703 C 0.14279 0.38295 1.01589 0.0
C1704 C 0.12706 0.37629 0.05972 0.0
C1705 C 0.16748 0.39007 0.02669 0.0
C1706 C 0.17192 0.39096 0.05319 0.0
C1707 C 0.15578 0.38827 0.09658 0.0
C1708 C 0.13551 0.38343 0.11376 0.0
C1709 C 0.15177 0.38482 0.06989 0.0
C1710 C 0.11132 0.37355 0.10369 0.0
C1711 C 0.10713 0.37006 0.07696 0.0
H1712 H 0.14897 0.68845 0.95198 0.0
H1713 H 0.09628 0.62358 0.92917 0.0
H1714 H 0.08806 0.61461 0.97387 0.0
H1715 H 0.09931 0.62179 1.01947 0.0
H1716 H 0.15233 0.68591 0.04334 0.0
H1717 H 0.15643 0.6987 0.99866 0.0
C1718 C 0.1352 0.67275 0.95676 0.0
C1719 C 0.12335 0.65672 0.9369 0.0
C1720 C 0.13073 0.66733 0.98291 0.0
C1721 C 0.10577 0.6363 0.94376 0.0
C1722 C 0.1011 0.63103 0.96947 0.0
C1723 C 0.11141 0.6389 1.01507 0.0
C1724 C 0.12557 0.65272 0.03506 0.0
C1725 C 0.114 0.64592 0.98922 0.0
C1726 C 0.14105 0.67487 0.02863 0.0
C1727 C 0.14358 0.68209 1.00293 0.0
H1728 H 0.8391 0.61883 0.51921 0.0
H1729 H 0.92051 0.60946 0.51013 0.0
H1730 H 0.92672 0.60798 0.55635 0.0
H1731 H 0.91074 0.61553 0.59942 0.0
H1732 H 0.83001 0.62584 0.61006 0.0
H1733 H 0.82172 0.62017 0.56361 0.0
C1734 C 0.85806 0.61579 0.52731 0.0
C1735 C 0.87935 0.61447 0.51089 0.0
C1736 C 0.86167 0.61526 0.55438 0.0
C1737 C 0.90377 0.61072 0.522 0.0
C1738 C 0.90739 0.60992 0.54858 0.0
C1739 C 0.89112 0.61564 0.59168 0.0
C1740 C 0.87099 0.62086 0.60833 0.0
C1741 C 0.88672 0.61302 0.56496 0.0
C1742 C 0.84578 0.62133 0.59788 0.0
C1743 C 0.84115 0.61848 0.57118 0.0
H1744 H 0.89519 0.36476 0.90019 0.0
H1745 H 0.9449 0.43383 0.8912 0.0
H1746 H 0.95088 0.43863 0.93744 0.0
H1747 H 0.93887 0.42587 0.98082 0.0
H1748 H 0.89045 0.35626 0.99099 0.0
H1749 H 0.88759 0.34882 0.94442 0.0
C1750 C 0.90774 0.38057 0.90831 0.0
C1751 C 0.91927 0.39914 0.89188 0.0
C1752 C 0.91128 0.38323 0.93537 0.0
C1753 C 0.93546 0.41943 0.90307 0.0
C1754 C 0.93893 0.42221 0.92968 0.0
C1755 C 0.92805 0.40877 0.97295 0.0
C1756 C 0.91482 0.39173 0.98966 0.0
C1757 C 0.92643 0.40465 0.94607 0.0
C1758 C 0.90102 0.36966 0.97883 0.0
C1759 C 0.89918 0.36551 0.95207 0.0
H1760 H 0.18195 0.47112 0.60494 0.0
H1761 H 0.18713 0.38943 0.61515 0.0
H1762 H 0.18665 0.38223 0.56904 0.0
H1763 H 0.17956 0.39788 0.52568 0.0
H1764 H 0.17591 0.47918 0.51375 0.0
H1765 H 0.1813 0.48776 0.56019 0.0
C1766 C 0.18367 0.45186 0.59709 0.0
C1767 C 0.18436 0.43085 0.61387 0.0
C1768 C 0.18336 0.44767 0.57005 0.0
C1769 C 0.18643 0.40603 0.60305 0.0
C1770 C 0.18604 0.4018 0.57651 0.0
C1771 C 0.18055 0.41757 0.53318 0.0
C1772 C 0.17734 0.43784 0.51618 0.0
C1773 C 0.18372 0.42229 0.55983 0.0
C1774 C 0.17862 0.46323 0.52628 0.0
C1775 C 0.18146 0.46808 0.55293 0.0
H1776 H 0.92626 0.63043 1.02203 0.0
H1777 H 0.93692 0.71187 1.00883 0.0
H1778 H 0.93903 0.72064 0.05545 0.0
H1779 H 0.93348 0.7048 0.10056 0.0
H1780 H 0.92115 0.62271 0.11089 0.0
H1781 H 0.92429 0.61481 0.0654 0.0
C1782 C 0.92944 0.65017 0.02922 0.0
C1783 C 0.93134 0.67042 1.01169 0.0
C1784 C 0.93017 0.65501 0.05591 0.0
C1785 C 0.9356 0.69581 1.02167 0.0
C1786 C 0.93655 0.70082 0.04844 0.0
C1787 C 0.93193 0.68519 0.09288 0.0
C1788 C 0.92734 0.66439 0.10971 0.0
C1789 C 0.93322 0.68057 0.06589 0.0
C1790 C 0.92511 0.63918 0.09898 0.0
C1791 C 0.92669 0.63455 0.07268 0.0
H1792 H 0.90673 0.37724 0.39891 0.0
H1793 H 0.90604 0.45999 0.39629 0.0
H1794 H 0.90499 0.46271 0.44312 0.0
H1795 H 0.90886 0.44174 0.48553 0.0
H1796 H 0.90973 0.35885 0.48702 0.0
H1797 H 0.90583 0.35619 0.44053 0.0
C1798 C 0.90585 0.39588 0.40848 0.0
C1799 C 0.90652 0.41836 0.39378 0.0
C1800 C 0.90548 0.39736 0.43557 0.0
C1801 C 0.90544 0.44229 0.40684 0.0
C1802 C 0.90499 0.44388 0.43378 0.0
C1803 C 0.90756 0.42307 0.47573 0.0
C1804 C 0.90974 0.40054 0.49012 0.0
C1805 C 0.90562 0.42158 0.44849 0.0
C1806 C 0.90827 0.37658 0.47675 0.0
C1807 C 0.90611 0.37499 0.44999 0.0
H1808 H 0.17649 0.67901 0.52089 0.0
H1809 H 0.1711 0.59893 0.5411 0.0
H1810 H 0.17542 0.58622 0.49597 0.0
H1811 H 0.17536 0.59787 0.44982 0.0
H1812 H 0.18023 0.67834 0.43064 0.0
H1813 H 0.18168 0.69065 0.47594 0.0
C1814 C 0.17679 0.65874 0.5156 0.0
C1815 C 0.17335 0.64001 0.53467 0.0
C1816 C 0.17891 0.65155 0.48949 0.0
C1817 C 0.17387 0.61387 0.52713 0.0
C1818 C 0.17611 0.60656 0.50116 0.0
C1819 C 0.17739 0.6181 0.45553 0.0
C1820 C 0.17761 0.63709 0.43649 0.0
C1821 C 0.17789 0.62521 0.482 0.0
C1822 C 0.18 0.6632 0.44456 0.0
C1823 C 0.18071 0.67032 0.47061 0.0
H1824 H 0.37417 0.14171 0.38061 0.0
H1825 H 0.37107 0.19637 0.44363 0.0
H1826 H 0.32391 0.19473 0.43901 0.0
H1827 H 0.283 0.17524 0.41933 0.0
H1828 H 0.28593 0.11826 0.35835 0.0
H1829 H 0.33324 0.12346 0.35978 0.0
C1830 C 0.36324 0.15364 0.39305 0.0
C1831 C 0.37644 0.16932 0.41238 0.0
C1832 C 0.33585 0.15202 0.39076 0.0
C1833 C 0.36168 0.18421 0.42854 0.0
C1834 C 0.33458 0.18321 0.42595 0.0
C1835 C 0.29394 0.16427 0.40602 0.0
C1836 C 0.28065 0.14646 0.3886 0.0
C1837 C 0.32136 0.16683 0.40745 0.0
C1838 C 0.29541 0.13215 0.37189 0.0
C1839 C 0.32258 0.13508 0.37276 0.0
H1840 H 0.37768 0.6762 0.91256 0.0
H1841 H 0.42656 0.66998 0.84728 0.0
H1842 H 0.42844 0.7171 0.84323 0.0
H1843 H 0.41675 0.75999 0.85885 0.0
H1844 H 0.36618 0.7655 0.92294 0.0
H1845 H 0.36436 0.71851 0.92678 0.0
C1846 C 0.38891 0.68504 0.89743 0.0
C1847 C 0.40233 0.66939 0.88042 0.0
C1848 C 0.38952 0.71201 0.89504 0.0
C1849 C 0.4162 0.68138 0.86068 0.0
C1850 C 0.41726 0.70836 0.85842 0.0
C1851 C 0.40531 0.75098 0.87373 0.0
C1852 C 0.39178 0.76649 0.89081 0.0
C1853 C 0.40411 0.72387 0.87559 0.0
C1854 C 0.37679 0.75424 0.90961 0.0
C1855 C 0.37581 0.72734 0.91182 0.0
H1856 H 0.7173 0.87031 0.43515 0.0
H1857 H 0.69358 0.91949 0.37487 0.0
H1858 H 0.7385 0.92737 0.36245 0.0
H1859 H 0.78549 0.92297 0.3706 0.0
H1860 H 0.80866 0.87163 0.42928 0.0
H1861 H 0.76361 0.86197 0.44001 0.0
C1862 C 0.72187 0.88243 0.41904 0.0
C1863 C 0.70176 0.8943 0.40613 0.0
C1864 C 0.74798 0.88673 0.41168 0.0
C1865 C 0.70837 0.90992 0.38522 0.0
C1866 C 0.73423 0.91461 0.37813 0.0
C1867 C 0.78069 0.90937 0.38546 0.0
C1868 C 0.80082 0.89823 0.3991 0.0
C1869 C 0.75435 0.90351 0.39148 0.0
C1870 C 0.79389 0.88058 0.41829 0.0
C1871 C 0.76796 0.87507 0.4246 0.0
H1872 H 0.62352 0.29571 0.9029 0.0
H1873 H 0.69006 0.28999 0.95322 0.0
H1874 H 0.6968 0.33712 0.95515 0.0
H1875 H 0.68542 0.37977 0.94058 0.0
H1876 H 0.61949 0.38545 0.88947 0.0
H1877 H 0.61091 0.3385 0.88997 0.0
C1878 C 0.63942 0.30465 0.91455 0.0
C1879 C 0.65631 0.28896 0.9279 0.0
C1880 C 0.64338 0.33184 0.91529 0.0
C1881 C 0.6767 0.30127 0.94281 0.0
C1882 C 0.68062 0.32831 0.94381 0.0
C1883 C 0.66899 0.37089 0.92963 0.0
C1884 C 0.65316 0.38646 0.91488 0.0
C1885 C 0.66433 0.34378 0.92983 0.0
C1886 C 0.63201 0.37425 0.90099 0.0
C1887 C 0.62715 0.3473 0.90123 0.0
H1888 H 0.26657 0.95129 0.6783 0.0
H1889 H 0.27006 0.905 0.60897 0.0
H1890 H 0.22267 0.89919 0.6071 0.0
H1891 H 0.18038 0.90736 0.62499 0.0
H1892 H 0.17675 0.95147 0.69566 0.0
H1893 H 0.22417 0.95797 0.6972 0.0
C1894 C 0.25703 0.93999 0.66265 0.0
C1895 C 0.27207 0.92882 0.64357 0.0
C1896 C 0.22975 0.93633 0.66201 0.0
C1897 C 0.25918 0.91388 0.62381 0.0
C1898 C 0.23203 0.91059 0.62276 0.0
C1899 C 0.18986 0.91853 0.64076 0.0
C1900 C 0.17477 0.92919 0.66009 0.0
C1901 C 0.21713 0.92177 0.64171 0.0
C1902 C 0.18766 0.94313 0.68052 0.0
C1903 C 0.21482 0.94686 0.68135 0.0
H1904 H 0.60318 0.79402 0.19274 0.0
H1905 H 0.67247 0.77481 0.15472 0.0
H1906 H 0.68201 0.82007 0.14469 0.0
H1907 H 0.6687 0.86513 0.14337 0.0
H1908 H 0.6007 0.88427 0.18384 0.0
H1909 H 0.59298 0.83965 0.19619 0.0
C1910 C 0.62063 0.79977 0.1827 0.0
C1911 C 0.63698 0.78077 0.17453 0.0
C1912 C 0.62623 0.82608 0.17712 0.0
C1913 C 0.65953 0.78883 0.1615 0.0
C1914 C 0.66495 0.81482 0.15553 0.0
C1915 C 0.65246 0.85963 0.15525 0.0
C1916 C 0.6353 0.87833 0.16243 0.0
C1917 C 0.64817 0.83363 0.16275 0.0
C1918 C 0.61437 0.87059 0.17793 0.0
C1919 C 0.60979 0.84489 0.18498 0.0
H1920 H 0.90606 0.18235 0.64727 0.0
H1921 H 0.9144 0.13877 0.71584 0.0
H1922 H 0.8673 0.13693 0.72112 0.0
H1923 H 0.82366 0.14644 0.70518 0.0
H1924 H 0.81593 0.19265 0.63827 0.0
H1925 H 0.863 0.19494 0.63346 0.0
C1926 C 0.89759 0.17241 0.66341 0.0
C1927 C 0.91375 0.16031 0.68095 0.0
C1928 C 0.87064 0.17199 0.66657 0.0
C1929 C 0.90248 0.1481 0.70204 0.0
C1930 C 0.87554 0.14703 0.70499 0.0
C1931 C 0.83227 0.15712 0.68957 0.0
C1932 C 0.81616 0.16915 0.67189 0.0
C1933 C 0.85941 0.1587 0.68722 0.0
C1934 C 0.82775 0.18325 0.6521 0.0
C1935 C 0.85467 0.18444 0.64931 0.0
H1936 H 0.39243 0.14549 0.16911 0.0
H1937 H 0.3414 0.14669 0.10281 0.0
H1938 H 0.34072 0.19361 0.10759 0.0
H1939 H 0.35741 0.23488 0.12849 0.0
H1940 H 0.41149 0.23384 0.1924 0.0
H1941 H 0.40806 0.18662 0.1908 0.0
C1942 C 0.38075 0.15593 0.15596 0.0
C1943 C 0.36676 0.14233 0.13572 0.0
C1944 C 0.38118 0.18315 0.15831 0.0
C1945 C 0.35223 0.15645 0.11862 0.0
C1946 C 0.35192 0.18338 0.12131 0.0
C1947 C 0.36809 0.22434 0.1424 0.0
C1948 C 0.38453 0.2381 0.16074 0.0
C1949 C 0.36669 0.19704 0.14079 0.0
C1950 C 0.39861 0.22394 0.17818 0.0
C1951 C 0.39671 0.19685 0.17721 0.0
H1952 H 0.17722 0.42436 0.26877 0.0
H1953 H 0.11496 0.36587 0.27686 0.0
H1954 H 0.12055 0.36912 0.32353 0.0
H1955 H 0.14143 0.39034 0.3624 0.0
H1956 H 0.20136 0.45116 0.35428 0.0
H1957 H 0.19859 0.44505 0.30762 0.0
C1958 C 0.16509 0.41201 0.28068 0.0
C1959 C 0.14577 0.39469 0.26902 0.0
C1960 C 0.168 0.41446 0.3077 0.0
C1961 C 0.13004 0.37926 0.28505 0.0
C1962 C 0.13321 0.38116 0.31185 0.0
C1963 C 0.15424 0.40197 0.35047 0.0
C1964 C 0.17187 0.42103 0.36207 0.0
C1965 C 0.15192 0.3989 0.32345 0.0
C1966 C 0.18779 0.43626 0.34608 0.0
C1967 C 0.18612 0.43281 0.3193 0.0
H1968 H 0.14857 0.6759 0.69579 0.0
H1969 H 0.17216 0.59808 0.68822 0.0
H1970 H 0.16874 0.59285 0.73417 0.0
H1971 H 0.15729 0.60896 0.77619 0.0
H1972 H 0.13503 0.68685 0.78607 0.0
H1973 H 0.13963 0.69338 0.73975 0.0
C1974 C 0.1534 0.65795 0.70425 0.0
C1975 C 0.16066 0.63739 0.6882 0.0
C1976 C 0.15125 0.65491 0.73114 0.0
C1977 C 0.16657 0.61427 0.69975 0.0
C1978 C 0.16449 0.61117 0.72615 0.0
C1979 C 0.15325 0.62744 0.76837 0.0
C1980 C 0.1453 0.64723 0.7848 0.0
C1981 C 0.15642 0.63113 0.74195 0.0
C1982 C 0.14091 0.67116 0.77405 0.0
C1983 C 0.14361 0.67488 0.7475 0.0
H1984 H 0.88297 0.61717 0.26901 0.0
H1985 H 0.93775 0.68344 0.26615 0.0
H1986 H 0.93779 0.68747 0.31309 0.0
H1987 H 0.92218 0.67225 0.35486 0.0
H1988 H 0.86648 0.60668 0.35732 0.0
H1989 H 0.86683 0.60248 0.31049 0.0
C1990 C 0.89513 0.6325 0.27851 0.0
C1991 C 0.91059 0.64989 0.26373 0.0
C1992 C 0.89474 0.6349 0.30549 0.0
C1993 C 0.9258 0.66971 0.27675 0.0
C1994 C 0.92576 0.67203 0.30366 0.0
C1995 C 0.91002 0.65698 0.34526 0.0
C1996 C 0.8943 0.63972 0.35993 0.0
C1997 C 0.91028 0.65475 0.31823 0.0
C1998 C 0.87871 0.62025 0.34681 0.0
C1999 C 0.87898 0.61782 0.31996 0.0
H2000 H 0.90071 0.45288 0.73082 0.0
H2001 H 0.92292 0.37527 0.74043 0.0
H2002 H 0.92322 0.36893 0.69358 0.0
H2003 H 0.91864 0.38637 0.64955 0.0
H2004 H 0.89439 0.46363 0.64144 0.0
H2005 H 0.89312 0.46892 0.68782 0.0
C2006 C 0.90573 0.43453 0.72278 0.0
C2007 C 0.91224 0.41472 0.73936 0.0
C2008 C 0.9053 0.43089 0.69591 0.0
C2009 C 0.91804 0.39094 0.72832 0.0
C2010 C 0.91818 0.38733 0.70146 0.0
C2011 C 0.91268 0.40423 0.6579 0.0
C2012 C 0.90662 0.42459 0.64167 0.0
C2013 C 0.91197 0.40724 0.68498 0.0
C2014 C 0.89909 0.44757 0.65311 0.0
C2015 C 0.8985 0.4507 0.67979 0.0
H2016 H 0.67859 0.93185 0.67438 0.0
H2017 H 0.67368 0.85903 0.63278 0.0
H2018 H 0.72103 0.85839 0.63513 0.0
H2019 H 0.76412 0.87826 0.64993 0.0
H2020 H 0.76815 0.94839 0.6958 0.0
H2021 H 0.72111 0.95051 0.69087 0.0
C2022 C 0.68787 0.91588 0.66566 0.0
C2023 C 0.67247 0.89562 0.65311 0.0
C2024 C 0.71507 0.91521 0.66795 0.0
C2025 C 0.68492 0.87488 0.64244 0.0
C2026 C 0.71205 0.87455 0.6438 0.0
C2027 C 0.75464 0.89406 0.65871 0.0
C2028 C 0.76968 0.91338 0.67295 0.0
C2029 C 0.72736 0.89455 0.6566 0.0
C2030 C 0.75709 0.93343 0.68465 0.0
C2031 C 0.73017 0.9346 0.68183 0.0
H2032 H 0.58891 0.28882 0.17071 0.0
H2033 H 0.65334 0.27836 0.12155 0.0
H2034 H 0.66223 0.32519 0.12043 0.0
H2035 H 0.65184 0.369 0.13329 0.0
H2036 H 0.5867 0.37983 0.18142 0.0
H2037 H 0.57809 0.33291 0.18311 0.0
C2038 C 0.60495 0.29668 0.1597 0.0
C2039 C 0.62048 0.27977 0.14623 0.0
C2040 C 0.60987 0.32375 0.15904 0.0
C2041 C 0.64102 0.29063 0.13205 0.0
C2042 C 0.64614 0.3175 0.13146 0.0
C2043 C 0.63577 0.36125 0.14433 0.0
C2044 C 0.62005 0.37826 0.15741 0.0
C2045 C 0.63074 0.33423 0.14491 0.0
C2046 C 0.59921 0.36748 0.17126 0.0
C2047 C 0.59427 0.34057 0.17219 0.0
H2048 H 0.3254 0.19704 0.70245 0.0
H2049 H 0.31262 0.13168 0.65024 0.0
H2050 H 0.3592 0.13157 0.64366 0.0
H2051 H 0.4039 0.15 0.6527 0.0
H2052 H 0.41642 0.21636 0.70378 0.0
H2053 H 0.36993 0.21626 0.71047 0.0
C2054 C 0.33281 0.18256 0.68986 0.0
C2055 C 0.31536 0.16415 0.67715 0.0
C2056 C 0.35972 0.18299 0.68566 0.0
C2057 C 0.32545 0.14594 0.66048 0.0
C2058 C 0.35216 0.14593 0.65661 0.0
C2059 C 0.39648 0.16466 0.66507 0.0
C2060 C 0.41391 0.18327 0.67759 0.0
C2061 C 0.36953 0.16444 0.66898 0.0
C2062 C 0.40369 0.2019 0.69371 0.0
C2063 C 0.37701 0.20176 0.6977 0.0
H2064 H 0.41831 0.7334 0.17367 0.0
H2065 H 0.36781 0.73931 0.10746 0.0
H2066 H 0.36269 0.6921 0.10356 0.0
H2067 H 0.3741 0.64914 0.1178 0.0
H2068 H 0.42483 0.64359 0.18389 0.0
H2069 H 0.42823 0.69066 0.18891 0.0
C2070 C 0.40601 0.72451 0.15838 0.0
C2071 C 0.39353 0.74027 0.14078 0.0
C2072 C 0.4033 0.6973 0.15617 0.0
C2073 C 0.37763 0.72799 0.12131 0.0
C2074 C 0.37479 0.70089 0.11903 0.0
C2075 C 0.38585 0.65812 0.13343 0.0
C2076 C 0.39931 0.64249 0.15042 0.0
C2077 C 0.38777 0.68535 0.13617 0.0
C2078 C 0.41427 0.65481 0.17053 0.0
C2079 C 0.41625 0.68183 0.17337 0.0
H2080 H 0.78389 0.12711 0.37665 0.0
H2081 H 0.78221 0.18041 0.44113 0.0
H2082 H 0.82938 0.18107 0.44564 0.0
H2083 H 0.87096 0.16601 0.43195 0.0
H2084 H 0.87294 0.1122 0.36795 0.0
H2085 H 0.82577 0.11227 0.36267 0.0
C2086 C 0.79375 0.13904 0.39167 0.0
C2087 C 0.77917 0.1538 0.40853 0.0
C2088 C 0.82099 0.13913 0.3943 0.0
C2089 C 0.79262 0.16892 0.42785 0.0
C2090 C 0.81968 0.16925 0.43045 0.0
C2091 C 0.86122 0.15424 0.41674 0.0
C2092 C 0.87583 0.13904 0.40035 0.0
C2093 C 0.83405 0.15434 0.4139 0.0
C2094 C 0.86249 0.12404 0.38087 0.0
C2095 C 0.83543 0.12411 0.37786 0.0
H2096 H 0.40966 0.2617 0.91062 0.0
H2097 H 0.36334 0.26435 0.84114 0.0
H2098 H 0.35798 0.21728 0.8392 0.0
H2099 H 0.36621 0.17483 0.8572 0.0
H2100 H 0.41342 0.17218 0.92607 0.0
H2101 H 0.4183 0.21927 0.92835 0.0
C2102 C 0.39858 0.25203 0.8949 0.0
C2103 C 0.38707 0.26688 0.87597 0.0
C2104 C 0.3954 0.2247 0.89393 0.0
C2105 C 0.3726 0.2537 0.85594 0.0
C2106 C 0.36938 0.22665 0.85487 0.0
C2107 C 0.37731 0.18453 0.8729 0.0
C2108 C 0.38914 0.16969 0.89162 0.0
C2109 C 0.38054 0.21187 0.87383 0.0
C2110 C 0.40385 0.18285 0.9115 0.0
C2111 C 0.40679 0.20991 0.91275 0.0
H2112 H 0.2114 0.90142 0.43553 0.0
H2113 H 0.20745 0.94087 0.36389 0.0
H2114 H 0.25425 0.93814 0.35936 0.0
H2115 H 0.29638 0.92476 0.37594 0.0
H2116 H 0.29979 0.88556 0.44778 0.0
H2117 H 0.25307 0.88788 0.45185 0.0
C2118 C 0.22061 0.90953 0.41884 0.0
C2119 C 0.20555 0.92147 0.40007 0.0
C2120 C 0.24754 0.90782 0.41636 0.0
C2121 C 0.21825 0.93167 0.37868 0.0
C2122 C 0.2451 0.93005 0.37609 0.0
C2123 C 0.28698 0.91656 0.39249 0.0
C2124 C 0.30195 0.90487 0.41154 0.0
C2125 C 0.25996 0.91816 0.39481 0.0
C2126 C 0.28909 0.89457 0.43279 0.0
C2127 C 0.26227 0.89597 0.43515 0.0
H2128 H 0.6928 0.79588 0.91392 0.0
H2129 H 0.62646 0.79119 0.86231 0.0
H2130 H 0.62508 0.8383 0.8649 0.0
H2131 H 0.64313 0.88116 0.88146 0.0
H2132 H 0.71273 0.88618 0.92863 0.0
H2133 H 0.71252 0.83892 0.92821 0.0
C2134 C 0.67796 0.80518 0.90331 0.0
C2135 C 0.65949 0.78986 0.88818 0.0
C2136 C 0.67795 0.83246 0.90411 0.0
C2137 C 0.64079 0.80236 0.87415 0.0
C2138 C 0.64002 0.82935 0.87567 0.0
C2139 C 0.65821 0.8719 0.89177 0.0
C2140 C 0.67778 0.88734 0.9054 0.0
C2141 C 0.65852 0.84465 0.89055 0.0
C2142 C 0.69742 0.87492 0.91813 0.0
C2143 C 0.69727 0.84784 0.91787 0.0
H2144 H 0.89262 0.63532 0.85351 0.0
H2145 H 0.94686 0.70123 0.84573 0.0
H2146 H 0.94262 0.69658 0.79888 0.0
H2147 H 0.92153 0.67505 0.75983 0.0
H2148 H 0.8645 0.61166 0.76861 0.0
H2149 H 0.87192 0.61394 0.81506 0.0
C2150 C 0.90378 0.64859 0.84165 0.0
C2151 C 0.92022 0.66858 0.85339 0.0
C2152 C 0.90065 0.64623 0.8147 0.0
C2153 C 0.93415 0.68566 0.83744 0.0
C2154 C 0.93167 0.683 0.81056 0.0
C2155 C 0.911 0.66149 0.77189 0.0
C2156 C 0.89261 0.64296 0.76052 0.0
C2157 C 0.91474 0.66352 0.79891 0.0
C2158 C 0.8788 0.62598 0.77664 0.0
C2159 C 0.88301 0.62733 0.80329 0.0
H2160 H 0.91763 0.35663 0.2323 0.0
H2161 H 0.90843 0.43806 0.2421 0.0
H2162 H 0.90254 0.44165 0.1956 0.0
H2163 H 0.90158 0.42184 0.15175 0.0
H2164 H 0.90908 0.3401 0.14251 0.0
H2165 H 0.9142 0.33651 0.18902 0.0
C2166 C 0.91405 0.37519 0.22439 0.0
C2167 C 0.91351 0.39708 0.241 0.0
C2168 C 0.91069 0.37709 0.19756 0.0
C2169 C 0.90874 0.42083 0.23009 0.0
C2170 C 0.90558 0.42292 0.20337 0.0
C2171 C 0.90455 0.40325 0.15988 0.0
C2172 C 0.9054 0.38129 0.14341 0.0
C2173 C 0.90689 0.40125 0.18685 0.0
C2174 C 0.90856 0.35732 0.15451 0.0
C2175 C 0.91142 0.35527 0.18119 0.0
H2176 H 0.17226 0.4381 0.85563 0.0
H2177 H 0.12778 0.36514 0.86064 0.0
H2178 H 0.12562 0.36131 0.81366 0.0
H2179 H 0.1358 0.37909 0.77108 0.0
H2180 H 0.17999 0.45231 0.76672 0.0
H2181 H 0.18271 0.45554 0.81353 0.0
C2182 C 0.1621 0.4212 0.84663 0.0
C2183 C 0.15019 0.40187 0.86206 0.0
C2184 C 0.16081 0.41924 0.81958 0.0
C2185 C 0.13717 0.3803 0.84958 0.0
C2186 C 0.13591 0.37815 0.82262 0.0
C2187 C 0.14609 0.39582 0.78027 0.0
C2188 C 0.15767 0.41551 0.765 0.0
C2189 C 0.14755 0.39757 0.8074 0.0
C2190 C 0.17087 0.43689 0.77763 0.0
C2191 C 0.17243 0.43873 0.80451 0.0
H2192 H 0.15926 0.67408 0.27837 0.0
H2193 H 0.14989 0.59138 0.28401 0.0
H2194 H 0.1472 0.58702 0.23703 0.0
H2195 H 0.14592 0.60706 0.19408 0.0
H2196 H 0.15794 0.68971 0.18923 0.0
H2197 H 0.16085 0.69372 0.236 0.0
C2198 C 0.15689 0.65501 0.2694 0.0
C2199 C 0.15476 0.63306 0.28495 0.0
C2200 C 0.15546 0.6527 0.24238 0.0
C2201 C 0.15184 0.6086 0.27274 0.0
C2202 C 0.15006 0.60614 0.2458 0.0
C2203 C 0.14903 0.62597 0.20328 0.0
C2204 C 0.1513 0.64815 0.18799 0.0
C2205 C 0.15148 0.62809 0.23038 0.0
C2206 C 0.15592 0.67238 0.20034 0.0
C2207 C 0.15766 0.67467 0.22716 0.0
loop_
_geom_bond_atom_site_label_1
_geom_bond_atom_site_label_2
_geom_bond_distance
_geom_bond_site_symmetry_2
_ccdc_geom_bond_type
O0 Cd1 2.223 . S
O0 C8 1.315 . S
Cd1 O0 2.223 . S
Cd1 O4 2.297 . S
Cd1 O5 2.439 . S
Cd1 O11 2.240 . S
Cd2 O3 2.240 . S
Cd2 O10 2.223 . S
Cd2 O12 2.297 . S
Cd2 O13 2.439 . S
O3 Cd2 2.240 . S
O3 C8 1.279 . S
O4 Cd1 2.297 . S
O4 C6 1.247 . S
O5 Cd1 2.439 . S
O5 C6 1.208 . S
C6 O4 1.247 . S
C6 O5 1.208 . S
C7 O12 1.247 . S
C7 O13 1.208 . S
C8 O0 1.315 . S
C8 O3 1.279 . S
C9 O10 1.315 . S
C9 O11 1.279 . S
O10 Cd2 2.223 . S
O10 C9 1.315 . S
O11 Cd1 2.240 . S
O11 C9 1.279 . S
O12 Cd2 2.297 . S
O12 C7 1.247 . S
O13 Cd2 2.439 . S
O13 C7 1.208 . S
O14 Cd15 2.223 . S
O14 C22 1.315 . S
Cd15 O14 2.223 . S
Cd15 O18 2.297 . S
Cd15 O19 2.439 . S
Cd15 O25 2.240 . S
Cd16 O17 2.240 . S
Cd16 O24 2.223 . S
Cd16 O26 2.297 . S
Cd16 O27 2.439 . S
O17 Cd16 2.240 . S
O17 C22 1.279 . S
O18 Cd15 2.297 . S
O18 C20 1.247 . S
O19 Cd15 2.439 . S
O19 C20 1.208 . S
C20 O18 1.247 . S
C20 O19 1.208 . S
C21 O26 1.247 . S
C21 O27 1.208 . S
C22 O14 1.315 . S
C22 O17 1.279 . S
C23 O24 1.315 . S
C23 O25 1.279 . S
O24 Cd16 2.223 . S
O24 C23 1.315 . S
O25 Cd15 2.240 . S
O25 C23 1.279 . S
O26 Cd16 2.297 . S
O26 C21 1.247 . S
O27 Cd16 2.439 . S
O27 C21 1.208 . S
O28 Cd29 2.223 . S
O28 C36 1.315 . S
Cd29 O28 2.223 . S
Cd29 O32 2.297 . S
Cd29 O33 2.439 . S
Cd29 O39 2.240 . S
Cd30 O31 2.240 . S
Cd30 O38 2.223 . S
Cd30 O40 2.297 . S
Cd30 O41 2.439 . S
O31 Cd30 2.240 . S
O31 C36 1.279 . S
O32 Cd29 2.297 . S
O32 C34 1.247 . S
O33 Cd29 2.439 . S
O33 C34 1.208 . S
C34 O32 1.247 . S
C34 O33 1.208 . S
C35 O40 1.247 . S
C35 O41 1.208 . S
C36 O28 1.315 . S
C36 O31 1.279 . S
C37 O38 1.315 . S
C37 O39 1.279 . S
O38 Cd30 2.223 . S
O38 C37 1.315 . S
O39 Cd29 2.240 . S
O39 C37 1.279 . S
O40 Cd30 2.297 . S
O40 C35 1.247 . S
O41 Cd30 2.439 . S
O41 C35 1.208 . S
O42 Cd43 2.223 . S
O42 C50 1.315 . S
Cd43 O42 2.223 . S
Cd43 O46 2.297 . S
Cd43 O47 2.439 . S
Cd43 O53 2.240 . S
Cd44 O45 2.240 . S
Cd44 O52 2.223 . S
Cd44 O54 2.297 . S
Cd44 O55 2.439 . S
O45 Cd44 2.240 . S
O45 C50 1.279 . S
O46 Cd43 2.297 . S
O46 C48 1.247 . S
O47 Cd43 2.439 . S
O47 C48 1.208 . S
C48 O46 1.247 . S
C48 O47 1.208 . S
C49 O54 1.247 . S
C49 O55 1.208 . S
C50 O42 1.315 . S
C50 O45 1.279 . S
C51 O52 1.315 . S
C51 O53 1.279 . S
O52 Cd44 2.223 . S
O52 C51 1.315 . S
O53 Cd43 2.240 . S
O53 C51 1.279 . S
O54 Cd44 2.297 . S
O54 C49 1.247 . S
O55 Cd44 2.439 . S
O55 C49 1.208 . S
O56 Cd57 2.223 . S
O56 C64 1.315 . S
Cd57 O56 2.223 . S
Cd57 O60 2.297 . S
Cd57 O61 2.439 . S
Cd57 O67 2.240 . S
Cd58 O59 2.240 . S
Cd58 O66 2.223 . S
Cd58 O68 2.297 . S
Cd58 O69 2.439 . S
O59 Cd58 2.240 . S
O59 C64 1.279 . S
O60 Cd57 2.297 . S
O60 C62 1.247 . S
O61 Cd57 2.439 . S
O61 C62 1.208 . S
C62 O60 1.247 . S
C62 O61 1.208 . S
C63 O68 1.247 . S
C63 O69 1.208 . S
C64 O56 1.315 . S
C64 O59 1.279 . S
C65 O66 1.315 . S
C65 O67 1.279 . S
O66 Cd58 2.223 . S
O66 C65 1.315 . S
O67 Cd57 2.240 . S
O67 C65 1.279 . S
O68 Cd58 2.297 . S
O68 C63 1.247 . S
O69 Cd58 2.439 . S
O69 C63 1.208 . S
O70 Cd71 2.223 . S
O70 C78 1.315 . S
Cd71 O70 2.223 . S
Cd71 O74 2.297 . S
Cd71 O75 2.439 . S
Cd71 O81 2.240 . S
Cd72 O73 2.240 . S
Cd72 O80 2.223 . S
Cd72 O82 2.297 . S
Cd72 O83 2.439 . S
O73 Cd72 2.240 . S
O73 C78 1.279 . S
O74 Cd71 2.297 . S
O74 C76 1.247 . S
O75 Cd71 2.439 . S
O75 C76 1.208 . S
C76 O74 1.247 . S
C76 O75 1.208 . S
C77 O82 1.247 . S
C77 O83 1.208 . S
C78 O70 1.315 . S
C78 O73 1.279 . S
C79 O80 1.315 . S
C79 O81 1.279 . S
O80 Cd72 2.223 . S
O80 C79 1.315 . S
O81 Cd71 2.240 . S
O81 C79 1.279 . S
O82 Cd72 2.297 . S
O82 C77 1.247 . S
O83 Cd72 2.439 . S
O83 C77 1.208 . S
O84 Cd85 2.223 . S
O84 C92 1.315 . S
Cd85 O84 2.223 . S
Cd85 O88 2.297 . S
Cd85 O89 2.439 . S
Cd85 O95 2.240 . S
Cd86 O87 2.240 . S
Cd86 O94 2.223 . S
Cd86 O96 2.297 . S
Cd86 O97 2.439 . S
O87 Cd86 2.240 . S
O87 C92 1.279 . S
O88 Cd85 2.297 . S
O88 C90 1.247 . S
O89 Cd85 2.439 . S
O89 C90 1.208 . S
C90 O88 1.247 . S
C90 O89 1.208 . S
C91 O96 1.247 . S
C91 O97 1.208 . S
C92 O84 1.315 . S
C92 O87 1.279 . S
C93 O94 1.315 . S
C93 O95 1.279 . S
O94 Cd86 2.223 . S
O94 C93 1.315 . S
O95 Cd85 2.240 . S
O95 C93 1.279 . S
O96 Cd86 2.297 . S
O96 C91 1.247 . S
O97 Cd86 2.439 . S
O97 C91 1.208 . S
O98 Cd99 2.223 . S
O98 C106 1.315 . S
Cd99 O98 2.223 . S
Cd99 O102 2.297 . S
Cd99 O103 2.439 . S
Cd99 O109 2.240 . S
Cd100 O101 2.240 . S
Cd100 O108 2.223 . S
Cd100 O110 2.297 . S
Cd100 O111 2.439 . S
O101 Cd100 2.240 . S
O101 C106 1.279 . S
O102 Cd99 2.297 . S
O102 C104 1.247 . S
O103 Cd99 2.439 . S
O103 C104 1.208 . S
C104 O102 1.247 . S
C104 O103 1.208 . S
C105 O110 1.247 . S
C105 O111 1.208 . S
C106 O98 1.315 . S
C106 O101 1.279 . S
C107 O108 1.315 . S
C107 O109 1.279 . S
O108 Cd100 2.223 . S
O108 C107 1.315 . S
O109 Cd99 2.240 . S
O109 C107 1.279 . S
O110 Cd100 2.297 . S
O110 C105 1.247 . S
O111 Cd100 2.439 . S
O111 C105 1.208 . S
O112 Cd113 2.223 . S
O112 C120 1.315 . S
Cd113 O112 2.223 . S
Cd113 O116 2.297 . S
Cd113 O117 2.439 . S
Cd113 O123 2.240 . S
Cd114 O115 2.240 . S
Cd114 O122 2.223 . S
Cd114 O124 2.297 . S
Cd114 O125 2.439 . S
O115 Cd114 2.240 . S
O115 C120 1.279 . S
O116 Cd113 2.297 . S
O116 C118 1.247 . S
O117 Cd113 2.439 . S
O117 C118 1.208 . S
C118 O116 1.247 . S
C118 O117 1.208 . S
C119 O124 1.247 . S
C119 O125 1.208 . S
C120 O112 1.315 . S
C120 O115 1.279 . S
C121 O122 1.315 . S
C121 O123 1.279 . S
O122 Cd114 2.223 . S
O122 C121 1.315 . S
O123 Cd113 2.240 . S
O123 C121 1.279 . S
O124 Cd114 2.297 . S
O124 C119 1.247 . S
O125 Cd114 2.439 . S
O125 C119 1.208 . S
O126 Cd127 2.223 . S
O126 C134 1.315 . S
Cd127 O126 2.223 . S
Cd127 O130 2.297 . S
Cd127 O131 2.439 . S
Cd127 O137 2.240 . S
Cd128 O129 2.240 . S
Cd128 O136 2.223 . S
Cd128 O138 2.297 . S
Cd128 O139 2.439 . S
O129 Cd128 2.240 . S
O129 C134 1.279 . S
O130 Cd127 2.297 . S
O130 C132 1.247 . S
O131 Cd127 2.439 . S
O131 C132 1.208 . S
C132 O130 1.247 . S
C132 O131 1.208 . S
C133 O138 1.247 . S
C133 O139 1.208 . S
C134 O126 1.315 . S
C134 O129 1.279 . S
C135 O136 1.315 . S
C135 O137 1.279 . S
O136 Cd128 2.223 . S
O136 C135 1.315 . S
O137 Cd127 2.240 . S
O137 C135 1.279 . S
O138 Cd128 2.297 . S
O138 C133 1.247 . S
O139 Cd128 2.439 . S
O139 C133 1.208 . S
O140 Cd141 2.223 . S
O140 C148 1.315 . S
Cd141 O140 2.223 . S
Cd141 O144 2.297 . S
Cd141 O145 2.439 . S
Cd141 O151 2.240 . S
Cd142 O143 2.240 . S
Cd142 O150 2.223 . S
Cd142 O152 2.297 . S
Cd142 O153 2.439 . S
O143 Cd142 2.240 . S
O143 C148 1.279 . S
O144 Cd141 2.297 . S
O144 C146 1.247 . S
O145 Cd141 2.439 . S
O145 C146 1.208 . S
C146 O144 1.247 . S
C146 O145 1.208 . S
C147 O152 1.247 . S
C147 O153 1.208 . S
C148 O140 1.315 . S
C148 O143 1.279 . S
C149 O150 1.315 . S
C149 O151 1.279 . S
O150 Cd142 2.223 . S
O150 C149 1.315 . S
O151 Cd141 2.240 . S
O151 C149 1.279 . S
O152 Cd142 2.297 . S
O152 C147 1.247 . S
O153 Cd142 2.439 . S
O153 C147 1.208 . S
O154 Cd155 2.223 . S
O154 C162 1.315 . S
Cd155 O154 2.223 . S
Cd155 O158 2.297 . S
Cd155 O159 2.439 . S
Cd155 O165 2.240 . S
Cd156 O157 2.240 . S
Cd156 O164 2.223 . S
Cd156 O166 2.297 . S
Cd156 O167 2.439 . S
O157 Cd156 2.240 . S
O157 C162 1.279 . S
O158 Cd155 2.297 . S
O158 C160 1.247 . S
O159 Cd155 2.439 . S
O159 C160 1.208 . S
C160 O158 1.247 . S
C160 O159 1.208 . S
C161 O166 1.247 . S
C161 O167 1.208 . S
C162 O154 1.315 . S
C162 O157 1.279 . S
C163 O164 1.315 . S
C163 O165 1.279 . S
O164 Cd156 2.223 . S
O164 C163 1.315 . S
O165 Cd155 2.240 . S
O165 C163 1.279 . S
O166 Cd156 2.297 . S
O166 C161 1.247 . S
O167 Cd156 2.439 . S
O167 C161 1.208 . S
O168 Cd169 2.223 . S
O168 C176 1.315 . S
Cd169 O168 2.223 . S
Cd169 O172 2.297 . S
Cd169 O173 2.439 . S
Cd169 O179 2.240 . S
Cd170 O171 2.240 . S
Cd170 O178 2.223 . S
Cd170 O180 2.297 . S
Cd170 O181 2.439 . S
O171 Cd170 2.240 . S
O171 C176 1.279 . S
O172 Cd169 2.297 . S
O172 C174 1.247 . S
O173 Cd169 2.439 . S
O173 C174 1.208 . S
C174 O172 1.247 . S
C174 O173 1.208 . S
C175 O180 1.247 . S
C175 O181 1.208 . S
C176 O168 1.315 . S
C176 O171 1.279 . S
C177 O178 1.315 . S
C177 O179 1.279 . S
O178 Cd170 2.223 . S
O178 C177 1.315 . S
O179 Cd169 2.240 . S
O179 C177 1.279 . S
O180 Cd170 2.297 . S
O180 C175 1.247 . S
O181 Cd170 2.439 . S
O181 C175 1.208 . S
O182 Cd183 2.223 . S
O182 C190 1.315 . S
Cd183 O182 2.223 . S
Cd183 O186 2.297 . S
Cd183 O187 2.439 . S
Cd183 O193 2.240 . S
Cd184 O185 2.240 . S
Cd184 O192 2.223 . S
Cd184 O194 2.297 . S
Cd184 O195 2.439 . S
O185 Cd184 2.240 . S
O185 C190 1.279 . S
O186 Cd183 2.297 . S
O186 C188 1.247 . S
O187 Cd183 2.439 . S
O187 C188 1.208 . S
C188 O186 1.247 . S
C188 O187 1.208 . S
C189 O194 1.247 . S
C189 O195 1.208 . S
C190 O182 1.315 . S
C190 O185 1.279 . S
C191 O192 1.315 . S
C191 O193 1.279 . S
O192 Cd184 2.223 . S
O192 C191 1.315 . S
O193 Cd183 2.240 . S
O193 C191 1.279 . S
O194 Cd184 2.297 . S
O194 C189 1.247 . S
O195 Cd184 2.439 . S
O195 C189 1.208 . S
O196 Cd197 2.223 . S
O196 C204 1.315 . S
Cd197 O196 2.223 . S
Cd197 O200 2.297 . S
Cd197 O201 2.439 . S
Cd197 O207 2.240 . S
Cd198 O199 2.240 . S
Cd198 O206 2.223 . S
Cd198 O208 2.297 . S
Cd198 O209 2.439 . S
O199 Cd198 2.240 . S
O199 C204 1.279 . S
O200 Cd197 2.297 . S
O200 C202 1.247 . S
O201 Cd197 2.439 . S
O201 C202 1.208 . S
C202 O200 1.247 . S
C202 O201 1.208 . S
C203 O208 1.247 . S
C203 O209 1.208 . S
C204 O196 1.315 . S
C204 O199 1.279 . S
C205 O206 1.315 . S
C205 O207 1.279 . S
O206 Cd198 2.223 . S
O206 C205 1.315 . S
O207 Cd197 2.240 . S
O207 C205 1.279 . S
O208 Cd198 2.297 . S
O208 C203 1.247 . S
O209 Cd198 2.439 . S
O209 C203 1.208 . S
O210 Cd211 2.223 . S
O210 C218 1.315 . S
Cd211 O210 2.223 . S
Cd211 O214 2.297 . S
Cd211 O215 2.439 . S
Cd211 O221 2.240 . S
Cd212 O213 2.240 . S
Cd212 O220 2.223 . S
Cd212 O222 2.297 . S
Cd212 O223 2.439 . S
O213 Cd212 2.240 . S
O213 C218 1.279 . S
O214 Cd211 2.297 . S
O214 C216 1.247 . S
O215 Cd211 2.439 . S
O215 C216 1.208 . S
C216 O214 1.247 . S
C216 O215 1.208 . S
C217 O222 1.247 . S
C217 O223 1.208 . S
C218 O210 1.315 . S
C218 O213 1.279 . S
C219 O220 1.315 . S
C219 O221 1.279 . S
O220 Cd212 2.223 . S
O220 C219 1.315 . S
O221 Cd211 2.240 . S
O221 C219 1.279 . S
O222 Cd212 2.297 . S
O222 C217 1.247 . S
O223 Cd212 2.439 . S
O223 C217 1.208 . S
O224 Cd225 2.223 . S
O224 C232 1.315 . S
Cd225 O224 2.223 . S
Cd225 O228 2.297 . S
Cd225 O229 2.439 . S
Cd225 O235 2.240 . S
Cd226 O227 2.240 . S
Cd226 O234 2.223 . S
Cd226 O236 2.297 . S
Cd226 O237 2.439 . S
O227 Cd226 2.240 . S
O227 C232 1.279 . S
O228 Cd225 2.297 . S
O228 C230 1.247 . S
O229 Cd225 2.439 . S
O229 C230 1.208 . S
C230 O228 1.247 . S
C230 O229 1.208 . S
C231 O236 1.247 . S
C231 O237 1.208 . S
C232 O224 1.315 . S
C232 O227 1.279 . S
C233 O234 1.315 . S
C233 O235 1.279 . S
O234 Cd226 2.223 . S
O234 C233 1.315 . S
O235 Cd225 2.240 . S
O235 C233 1.279 . S
O236 Cd226 2.297 . S
O236 C231 1.247 . S
O237 Cd226 2.439 . S
O237 C231 1.208 . S
O238 Cd239 2.223 . S
O238 C246 1.315 . S
Cd239 O238 2.223 . S
Cd239 O242 2.297 . S
Cd239 O243 2.439 . S
Cd239 O249 2.240 . S
Cd240 O241 2.240 . S
Cd240 O248 2.223 . S
Cd240 O250 2.297 . S
Cd240 O251 2.439 . S
O241 Cd240 2.240 . S
O241 C246 1.279 . S
O242 Cd239 2.297 . S
O242 C244 1.247 . S
O243 Cd239 2.439 . S
O243 C244 1.208 . S
C244 O242 1.247 . S
C244 O243 1.208 . S
C245 O250 1.247 . S
C245 O251 1.208 . S
C246 O238 1.315 . S
C246 O241 1.279 . S
C247 O248 1.315 . S
C247 O249 1.279 . S
O248 Cd240 2.223 . S
O248 C247 1.315 . S
O249 Cd239 2.240 . S
O249 C247 1.279 . S
O250 Cd240 2.297 . S
O250 C245 1.247 . S
O251 Cd240 2.439 . S
O251 C245 1.208 . S
O252 Cd253 2.223 . S
O252 C260 1.315 . S
Cd253 O252 2.223 . S
Cd253 O256 2.297 . S
Cd253 O257 2.439 . S
Cd253 O263 2.240 . S
Cd254 O255 2.240 . S
Cd254 O262 2.223 . S
Cd254 O264 2.297 . S
Cd254 O265 2.439 . S
O255 Cd254 2.240 . S
O255 C260 1.279 . S
O256 Cd253 2.297 . S
O256 C258 1.247 . S
O257 Cd253 2.439 . S
O257 C258 1.208 . S
C258 O256 1.247 . S
C258 O257 1.208 . S
C259 O264 1.247 . S
C259 O265 1.208 . S
C260 O252 1.315 . S
C260 O255 1.279 . S
C261 O262 1.315 . S
C261 O263 1.279 . S
O262 Cd254 2.223 . S
O262 C261 1.315 . S
O263 Cd253 2.240 . S
O263 C261 1.279 . S
O264 Cd254 2.297 . S
O264 C259 1.247 . S
O265 Cd254 2.439 . S
O265 C259 1.208 . S
O266 Cd267 2.223 . S
O266 C274 1.315 . S
Cd267 O266 2.223 . S
Cd267 O270 2.297 . S
Cd267 O271 2.439 . S
Cd267 O277 2.240 . S
Cd268 O269 2.240 . S
Cd268 O276 2.223 . S
Cd268 O278 2.297 . S
Cd268 O279 2.439 . S
O269 Cd268 2.240 . S
O269 C274 1.279 . S
O270 Cd267 2.297 . S
O270 C272 1.247 . S
O271 Cd267 2.439 . S
O271 C272 1.208 . S
C272 O270 1.247 . S
C272 O271 1.208 . S
C273 O278 1.247 . S
C273 O279 1.208 . S
C274 O266 1.315 . S
C274 O269 1.279 . S
C275 O276 1.315 . S
C275 O277 1.279 . S
O276 Cd268 2.223 . S
O276 C275 1.315 . S
O277 Cd267 2.240 . S
O277 C275 1.279 . S
O278 Cd268 2.297 . S
O278 C273 1.247 . S
O279 Cd268 2.439 . S
O279 C273 1.208 . S
O280 Cd281 2.223 . S
O280 C288 1.315 . S
Cd281 O280 2.223 . S
Cd281 O284 2.297 . S
Cd281 O285 2.439 . S
Cd281 O291 2.240 . S
Cd282 O283 2.240 . S
Cd282 O290 2.223 . S
Cd282 O292 2.297 . S
Cd282 O293 2.439 . S
O283 Cd282 2.240 . S
O283 C288 1.279 . S
O284 Cd281 2.297 . S
O284 C286 1.247 . S
O285 Cd281 2.439 . S
O285 C286 1.208 . S
C286 O284 1.247 . S
C286 O285 1.208 . S
C287 O292 1.247 . S
C287 O293 1.208 . S
C288 O280 1.315 . S
C288 O283 1.279 . S
C289 O290 1.315 . S
C289 O291 1.279 . S
O290 Cd282 2.223 . S
O290 C289 1.315 . S
O291 Cd281 2.240 . S
O291 C289 1.279 . S
O292 Cd282 2.297 . S
O292 C287 1.247 . S
O293 Cd282 2.439 . S
O293 C287 1.208 . S
O294 Cd295 2.223 . S
O294 C302 1.315 . S
Cd295 O294 2.223 . S
Cd295 O298 2.297 . S
Cd295 O299 2.439 . S
Cd295 O305 2.240 . S
Cd296 O297 2.240 . S
Cd296 O304 2.223 . S
Cd296 O306 2.297 . S
Cd296 O307 2.439 . S
O297 Cd296 2.240 . S
O297 C302 1.279 . S
O298 Cd295 2.297 . S
O298 C300 1.247 . S
O299 Cd295 2.439 . S
O299 C300 1.208 . S
C300 O298 1.247 . S
C300 O299 1.208 . S
C301 O306 1.247 . S
C301 O307 1.208 . S
C302 O294 1.315 . S
C302 O297 1.279 . S
C303 O304 1.315 . S
C303 O305 1.279 . S
O304 Cd296 2.223 . S
O304 C303 1.315 . S
O305 Cd295 2.240 . S
O305 C303 1.279 . S
O306 Cd296 2.297 . S
O306 C301 1.247 . S
O307 Cd296 2.439 . S
O307 C301 1.208 . S
O308 Cd309 2.223 . S
O308 C316 1.315 . S
Cd309 O308 2.223 . S
Cd309 O312 2.297 . S
Cd309 O313 2.439 . S
Cd309 O319 2.240 . S
Cd310 O311 2.240 . S
Cd310 O318 2.223 . S
Cd310 O320 2.297 . S
Cd310 O321 2.439 . S
O311 Cd310 2.240 . S
O311 C316 1.279 . S
O312 Cd309 2.297 . S
O312 C314 1.247 . S
O313 Cd309 2.439 . S
O313 C314 1.208 . S
C314 O312 1.247 . S
C314 O313 1.208 . S
C315 O320 1.247 . S
C315 O321 1.208 . S
C316 O308 1.315 . S
C316 O311 1.279 . S
C317 O318 1.315 . S
C317 O319 1.279 . S
O318 Cd310 2.223 . S
O318 C317 1.315 . S
O319 Cd309 2.240 . S
O319 C317 1.279 . S
O320 Cd310 2.297 . S
O320 C315 1.247 . S
O321 Cd310 2.439 . S
O321 C315 1.208 . S
O322 Cd323 2.223 . S
O322 C330 1.315 . S
Cd323 O322 2.223 . S
Cd323 O326 2.297 . S
Cd323 O327 2.439 . S
Cd323 O333 2.240 . S
Cd324 O325 2.240 . S
Cd324 O332 2.223 . S
Cd324 O334 2.297 . S
Cd324 O335 2.439 . S
O325 Cd324 2.240 . S
O325 C330 1.279 . S
O326 Cd323 2.297 . S
O326 C328 1.247 . S
O327 Cd323 2.439 . S
O327 C328 1.208 . S
C328 O326 1.247 . S
C328 O327 1.208 . S
C329 O334 1.247 . S
C329 O335 1.208 . S
C330 O322 1.315 . S
C330 O325 1.279 . S
C331 O332 1.315 . S
C331 O333 1.279 . S
O332 Cd324 2.223 . S
O332 C331 1.315 . S
O333 Cd323 2.240 . S
O333 C331 1.279 . S
O334 Cd324 2.297 . S
O334 C329 1.247 . S
O335 Cd324 2.439 . S
O335 C329 1.208 . S
O336 Cd337 2.223 . S
O336 C344 1.315 . S
Cd337 O336 2.223 . S
Cd337 O340 2.297 . S
Cd337 O341 2.439 . S
Cd337 O347 2.240 . S
Cd338 O339 2.240 . S
Cd338 O346 2.223 . S
Cd338 O348 2.297 . S
Cd338 O349 2.439 . S
O339 Cd338 2.240 . S
O339 C344 1.279 . S
O340 Cd337 2.297 . S
O340 C342 1.247 . S
O341 Cd337 2.439 . S
O341 C342 1.208 . S
C342 O340 1.247 . S
C342 O341 1.208 . S
C343 O348 1.247 . S
C343 O349 1.208 . S
C344 O336 1.315 . S
C344 O339 1.279 . S
C345 O346 1.315 . S
C345 O347 1.279 . S
O346 Cd338 2.223 . S
O346 C345 1.315 . S
O347 Cd337 2.240 . S
O347 C345 1.279 . S
O348 Cd338 2.297 . S
O348 C343 1.247 . S
O349 Cd338 2.439 . S
O349 C343 1.208 . S
O350 Cd351 2.223 . S
O350 C358 1.315 . S
Cd351 O350 2.223 . S
Cd351 O354 2.297 . S
Cd351 O355 2.439 . S
Cd351 O361 2.240 . S
Cd352 O353 2.240 . S
Cd352 O360 2.223 . S
Cd352 O362 2.297 . S
Cd352 O363 2.439 . S
O353 Cd352 2.240 . S
O353 C358 1.279 . S
O354 Cd351 2.297 . S
O354 C356 1.247 . S
O355 Cd351 2.439 . S
O355 C356 1.208 . S
C356 O354 1.247 . S
C356 O355 1.208 . S
C357 O362 1.247 . S
C357 O363 1.208 . S
C358 O350 1.315 . S
C358 O353 1.279 . S
C359 O360 1.315 . S
C359 O361 1.279 . S
O360 Cd352 2.223 . S
O360 C359 1.315 . S
O361 Cd351 2.240 . S
O361 C359 1.279 . S
O362 Cd352 2.297 . S
O362 C357 1.247 . S
O363 Cd352 2.439 . S
O363 C357 1.208 . S
O364 Cd365 2.223 . S
O364 C372 1.315 . S
Cd365 O364 2.223 . S
Cd365 O368 2.297 . S
Cd365 O369 2.439 . S
Cd365 O375 2.240 . S
Cd366 O367 2.240 . S
Cd366 O374 2.223 . S
Cd366 O376 2.297 . S
Cd366 O377 2.439 . S
O367 Cd366 2.240 . S
O367 C372 1.279 . S
O368 Cd365 2.297 . S
O368 C370 1.247 . S
O369 Cd365 2.439 . S
O369 C370 1.208 . S
C370 O368 1.247 . S
C370 O369 1.208 . S
C371 O376 1.247 . S
C371 O377 1.208 . S
C372 O364 1.315 . S
C372 O367 1.279 . S
C373 O374 1.315 . S
C373 O375 1.279 . S
O374 Cd366 2.223 . S
O374 C373 1.315 . S
O375 Cd365 2.240 . S
O375 C373 1.279 . S
O376 Cd366 2.297 . S
O376 C371 1.247 . S
O377 Cd366 2.439 . S
O377 C371 1.208 . S
O378 Cd379 2.223 . S
O378 C386 1.315 . S
Cd379 O378 2.223 . S
Cd379 O382 2.297 . S
Cd379 O383 2.439 . S
Cd379 O389 2.240 . S
Cd380 O381 2.240 . S
Cd380 O388 2.223 . S
Cd380 O390 2.297 . S
Cd380 O391 2.439 . S
O381 Cd380 2.240 . S
O381 C386 1.279 . S
O382 Cd379 2.297 . S
O382 C384 1.247 . S
O383 Cd379 2.439 . S
O383 C384 1.208 . S
C384 O382 1.247 . S
C384 O383 1.208 . S
C385 O390 1.247 . S
C385 O391 1.208 . S
C386 O378 1.315 . S
C386 O381 1.279 . S
C387 O388 1.315 . S
C387 O389 1.279 . S
O388 Cd380 2.223 . S
O388 C387 1.315 . S
O389 Cd379 2.240 . S
O389 C387 1.279 . S
O390 Cd380 2.297 . S
O390 C385 1.247 . S
O391 Cd380 2.439 . S
O391 C385 1.208 . S
O392 Cd393 2.223 . S
O392 C400 1.315 . S
Cd393 O392 2.223 . S
Cd393 O396 2.297 . S
Cd393 O397 2.439 . S
Cd393 O403 2.240 . S
Cd394 O395 2.240 . S
Cd394 O402 2.223 . S
Cd394 O404 2.297 . S
Cd394 O405 2.439 . S
O395 Cd394 2.240 . S
O395 C400 1.279 . S
O396 Cd393 2.297 . S
O396 C398 1.247 . S
O397 Cd393 2.439 . S
O397 C398 1.208 . S
C398 O396 1.247 . S
C398 O397 1.208 . S
C399 O404 1.247 . S
C399 O405 1.208 . S
C400 O392 1.315 . S
C400 O395 1.279 . S
C401 O402 1.315 . S
C401 O403 1.279 . S
O402 Cd394 2.223 . S
O402 C401 1.315 . S
O403 Cd393 2.240 . S
O403 C401 1.279 . S
O404 Cd394 2.297 . S
O404 C399 1.247 . S
O405 Cd394 2.439 . S
O405 C399 1.208 . S
O406 Cd407 2.223 . S
O406 C414 1.315 . S
Cd407 O406 2.223 . S
Cd407 O410 2.297 . S
Cd407 O411 2.439 . S
Cd407 O417 2.240 . S
Cd408 O409 2.240 . S
Cd408 O416 2.223 . S
Cd408 O418 2.297 . S
Cd408 O419 2.439 . S
O409 Cd408 2.240 . S
O409 C414 1.279 . S
O410 Cd407 2.297 . S
O410 C412 1.247 . S
O411 Cd407 2.439 . S
O411 C412 1.208 . S
C412 O410 1.247 . S
C412 O411 1.208 . S
C413 O418 1.247 . S
C413 O419 1.208 . S
C414 O406 1.315 . S
C414 O409 1.279 . S
C415 O416 1.315 . S
C415 O417 1.279 . S
O416 Cd408 2.223 . S
O416 C415 1.315 . S
O417 Cd407 2.240 . S
O417 C415 1.279 . S
O418 Cd408 2.297 . S
O418 C413 1.247 . S
O419 Cd408 2.439 . S
O419 C413 1.208 . S
O420 Cd421 2.223 . S
O420 C428 1.315 . S
Cd421 O420 2.223 . S
Cd421 O424 2.297 . S
Cd421 O425 2.439 . S
Cd421 O431 2.240 . S
Cd422 O423 2.240 . S
Cd422 O430 2.223 . S
Cd422 O432 2.297 . S
Cd422 O433 2.439 . S
O423 Cd422 2.240 . S
O423 C428 1.279 . S
O424 Cd421 2.297 . S
O424 C426 1.247 . S
O425 Cd421 2.439 . S
O425 C426 1.208 . S
C426 O424 1.247 . S
C426 O425 1.208 . S
C427 O432 1.247 . S
C427 O433 1.208 . S
C428 O420 1.315 . S
C428 O423 1.279 . S
C429 O430 1.315 . S
C429 O431 1.279 . S
O430 Cd422 2.223 . S
O430 C429 1.315 . S
O431 Cd421 2.240 . S
O431 C429 1.279 . S
O432 Cd422 2.297 . S
O432 C427 1.247 . S
O433 Cd422 2.439 . S
O433 C427 1.208 . S
O434 Cd435 2.223 . S
O434 C442 1.315 . S
Cd435 O434 2.223 . S
Cd435 O438 2.297 . S
Cd435 O439 2.439 . S
Cd435 O445 2.240 . S
Cd436 O437 2.240 . S
Cd436 O444 2.223 . S
Cd436 O446 2.297 . S
Cd436 O447 2.439 . S
O437 Cd436 2.240 . S
O437 C442 1.279 . S
O438 Cd435 2.297 . S
O438 C440 1.247 . S
O439 Cd435 2.439 . S
O439 C440 1.208 . S
C440 O438 1.247 . S
C440 O439 1.208 . S
C441 O446 1.247 . S
C441 O447 1.208 . S
C442 O434 1.315 . S
C442 O437 1.279 . S
C443 O444 1.315 . S
C443 O445 1.279 . S
O444 Cd436 2.223 . S
O444 C443 1.315 . S
O445 Cd435 2.240 . S
O445 C443 1.279 . S
O446 Cd436 2.297 . S
O446 C441 1.247 . S
O447 Cd436 2.439 . S
O447 C441 1.208 . S
O448 Cd449 2.223 . S
O448 C456 1.315 . S
Cd449 O448 2.223 . S
Cd449 O452 2.297 . S
Cd449 O453 2.439 . S
Cd449 O459 2.240 . S
Cd450 O451 2.240 . S
Cd450 O458 2.223 . S
Cd450 O460 2.297 . S
Cd450 O461 2.439 . S
O451 Cd450 2.240 . S
O451 C456 1.279 . S
O452 Cd449 2.297 . S
O452 C454 1.247 . S
O453 Cd449 2.439 . S
O453 C454 1.208 . S
C454 O452 1.247 . S
C454 O453 1.208 . S
C455 O460 1.247 . S
C455 O461 1.208 . S
C456 O448 1.315 . S
C456 O451 1.279 . S
C457 O458 1.315 . S
C457 O459 1.279 . S
O458 Cd450 2.223 . S
O458 C457 1.315 . S
O459 Cd449 2.240 . S
O459 C457 1.279 . S
O460 Cd450 2.297 . S
O460 C455 1.247 . S
O461 Cd450 2.439 . S
O461 C455 1.208 . S
O462 Cd463 2.223 . S
O462 C470 1.315 . S
Cd463 O462 2.223 . S
Cd463 O466 2.297 . S
Cd463 O467 2.439 . S
Cd463 O473 2.240 . S
Cd464 O465 2.240 . S
Cd464 O472 2.223 . S
Cd464 O474 2.297 . S
Cd464 O475 2.439 . S
O465 Cd464 2.240 . S
O465 C470 1.279 . S
O466 Cd463 2.297 . S
O466 C468 1.247 . S
O467 Cd463 2.439 . S
O467 C468 1.208 . S
C468 O466 1.247 . S
C468 O467 1.208 . S
C469 O474 1.247 . S
C469 O475 1.208 . S
C470 O462 1.315 . S
C470 O465 1.279 . S
C471 O472 1.315 . S
C471 O473 1.279 . S
O472 Cd464 2.223 . S
O472 C471 1.315 . S
O473 Cd463 2.240 . S
O473 C471 1.279 . S
O474 Cd464 2.297 . S
O474 C469 1.247 . S
O475 Cd464 2.439 . S
O475 C469 1.208 . S
O476 Cd477 2.223 . S
O476 C484 1.315 . S
Cd477 O476 2.223 . S
Cd477 O480 2.297 . S
Cd477 O481 2.439 . S
Cd477 O487 2.240 . S
Cd478 O479 2.240 . S
Cd478 O486 2.223 . S
Cd478 O488 2.297 . S
Cd478 O489 2.439 . S
O479 Cd478 2.240 . S
O479 C484 1.279 . S
O480 Cd477 2.297 . S
O480 C482 1.247 . S
O481 Cd477 2.439 . S
O481 C482 1.208 . S
C482 O480 1.247 . S
C482 O481 1.208 . S
C483 O488 1.247 . S
C483 O489 1.208 . S
C484 O476 1.315 . S
C484 O479 1.279 . S
C485 O486 1.315 . S
C485 O487 1.279 . S
O486 Cd478 2.223 . S
O486 C485 1.315 . S
O487 Cd477 2.240 . S
O487 C485 1.279 . S
O488 Cd478 2.297 . S
O488 C483 1.247 . S
O489 Cd478 2.439 . S
O489 C483 1.208 . S
O490 Cd491 2.223 . S
O490 C498 1.315 . S
Cd491 O490 2.223 . S
Cd491 O494 2.297 . S
Cd491 O495 2.439 . S
Cd491 O501 2.240 . S
Cd492 O493 2.240 . S
Cd492 O500 2.223 . S
Cd492 O502 2.297 . S
Cd492 O503 2.439 . S
O493 Cd492 2.240 . S
O493 C498 1.279 . S
O494 Cd491 2.297 . S
O494 C496 1.247 . S
O495 Cd491 2.439 . S
O495 C496 1.208 . S
C496 O494 1.247 . S
C496 O495 1.208 . S
C497 O502 1.247 . S
C497 O503 1.208 . S
C498 O490 1.315 . S
C498 O493 1.279 . S
C499 O500 1.315 . S
C499 O501 1.279 . S
O500 Cd492 2.223 . S
O500 C499 1.315 . S
O501 Cd491 2.240 . S
O501 C499 1.279 . S
O502 Cd492 2.297 . S
O502 C497 1.247 . S
O503 Cd492 2.439 . S
O503 C497 1.208 . S
O504 Cd505 2.223 . S
O504 C512 1.315 . S
Cd505 O504 2.223 . S
Cd505 O508 2.297 . S
Cd505 O509 2.439 . S
Cd505 O515 2.240 . S
Cd506 O507 2.240 . S
Cd506 O514 2.223 . S
Cd506 O516 2.297 . S
Cd506 O517 2.439 . S
O507 Cd506 2.240 . S
O507 C512 1.279 . S
O508 Cd505 2.297 . S
O508 C510 1.247 . S
O509 Cd505 2.439 . S
O509 C510 1.208 . S
C510 O508 1.247 . S
C510 O509 1.208 . S
C511 O516 1.247 . S
C511 O517 1.208 . S
C512 O504 1.315 . S
C512 O507 1.279 . S
C513 O514 1.315 . S
C513 O515 1.279 . S
O514 Cd506 2.223 . S
O514 C513 1.315 . S
O515 Cd505 2.240 . S
O515 C513 1.279 . S
O516 Cd506 2.297 . S
O516 C511 1.247 . S
O517 Cd506 2.439 . S
O517 C511 1.208 . S
O518 Cd519 2.223 . S
O518 C526 1.315 . S
Cd519 O518 2.223 . S
Cd519 O522 2.297 . S
Cd519 O523 2.439 . S
Cd519 O529 2.240 . S
Cd520 O521 2.240 . S
Cd520 O528 2.223 . S
Cd520 O530 2.297 . S
Cd520 O531 2.439 . S
O521 Cd520 2.240 . S
O521 C526 1.279 . S
O522 Cd519 2.297 . S
O522 C524 1.247 . S
O523 Cd519 2.439 . S
O523 C524 1.208 . S
C524 O522 1.247 . S
C524 O523 1.208 . S
C525 O530 1.247 . S
C525 O531 1.208 . S
C526 O518 1.315 . S
C526 O521 1.279 . S
C527 O528 1.315 . S
C527 O529 1.279 . S
O528 Cd520 2.223 . S
O528 C527 1.315 . S
O529 Cd519 2.240 . S
O529 C527 1.279 . S
O530 Cd520 2.297 . S
O530 C525 1.247 . S
O531 Cd520 2.439 . S
O531 C525 1.208 . S
O532 Cd533 2.223 . S
O532 C540 1.315 . S
Cd533 O532 2.223 . S
Cd533 O536 2.297 . S
Cd533 O537 2.439 . S
Cd533 O543 2.240 . S
Cd534 O535 2.240 . S
Cd534 O542 2.223 . S
Cd534 O544 2.297 . S
Cd534 O545 2.439 . S
O535 Cd534 2.240 . S
O535 C540 1.279 . S
O536 Cd533 2.297 . S
O536 C538 1.247 . S
O537 Cd533 2.439 . S
O537 C538 1.208 . S
C538 O536 1.247 . S
C538 O537 1.208 . S
C539 O544 1.247 . S
C539 O545 1.208 . S
C540 O532 1.315 . S
C540 O535 1.279 . S
C541 O542 1.315 . S
C541 O543 1.279 . S
O542 Cd534 2.223 . S
O542 C541 1.315 . S
O543 Cd533 2.240 . S
O543 C541 1.279 . S
O544 Cd534 2.297 . S
O544 C539 1.247 . S
O545 Cd534 2.439 . S
O545 C539 1.208 . S
O546 Cd547 2.223 . S
O546 C554 1.315 . S
Cd547 O546 2.223 . S
Cd547 O550 2.297 . S
Cd547 O551 2.439 . S
Cd547 O557 2.240 . S
Cd548 O549 2.240 . S
Cd548 O556 2.223 . S
Cd548 O558 2.297 . S
Cd548 O559 2.439 . S
O549 Cd548 2.240 . S
O549 C554 1.279 . S
O550 Cd547 2.297 . S
O550 C552 1.247 . S
O551 Cd547 2.439 . S
O551 C552 1.208 . S
C552 O550 1.247 . S
C552 O551 1.208 . S
C553 O558 1.247 . S
C553 O559 1.208 . S
C554 O546 1.315 . S
C554 O549 1.279 . S
C555 O556 1.315 . S
C555 O557 1.279 . S
O556 Cd548 2.223 . S
O556 C555 1.315 . S
O557 Cd547 2.240 . S
O557 C555 1.279 . S
O558 Cd548 2.297 . S
O558 C553 1.247 . S
O559 Cd548 2.439 . S
O559 C553 1.208 . S
O560 Cd561 2.223 . S
O560 C568 1.315 . S
Cd561 O560 2.223 . S
Cd561 O564 2.297 . S
Cd561 O565 2.439 . S
Cd561 O571 2.240 . S
Cd562 O563 2.240 . S
Cd562 O570 2.223 . S
Cd562 O572 2.297 . S
Cd562 O573 2.439 . S
O563 Cd562 2.240 . S
O563 C568 1.279 . S
O564 Cd561 2.297 . S
O564 C566 1.247 . S
O565 Cd561 2.439 . S
O565 C566 1.208 . S
C566 O564 1.247 . S
C566 O565 1.208 . S
C567 O572 1.247 . S
C567 O573 1.208 . S
C568 O560 1.315 . S
C568 O563 1.279 . S
C569 O570 1.315 . S
C569 O571 1.279 . S
O570 Cd562 2.223 . S
O570 C569 1.315 . S
O571 Cd561 2.240 . S
O571 C569 1.279 . S
O572 Cd562 2.297 . S
O572 C567 1.247 . S
O573 Cd562 2.439 . S
O573 C567 1.208 . S
O574 Cd575 2.223 . S
O574 C582 1.315 . S
Cd575 O574 2.223 . S
Cd575 O578 2.297 . S
Cd575 O579 2.439 . S
Cd575 O585 2.240 . S
Cd576 O577 2.240 . S
Cd576 O584 2.223 . S
Cd576 O586 2.297 . S
Cd576 O587 2.439 . S
O577 Cd576 2.240 . S
O577 C582 1.279 . S
O578 Cd575 2.297 . S
O578 C580 1.247 . S
O579 Cd575 2.439 . S
O579 C580 1.208 . S
C580 O578 1.247 . S
C580 O579 1.208 . S
C581 O586 1.247 . S
C581 O587 1.208 . S
C582 O574 1.315 . S
C582 O577 1.279 . S
C583 O584 1.315 . S
C583 O585 1.279 . S
O584 Cd576 2.223 . S
O584 C583 1.315 . S
O585 Cd575 2.240 . S
O585 C583 1.279 . S
O586 Cd576 2.297 . S
O586 C581 1.247 . S
O587 Cd576 2.439 . S
O587 C581 1.208 . S
O588 Cd589 2.223 . S
O588 C596 1.315 . S
Cd589 O588 2.223 . S
Cd589 O592 2.297 . S
Cd589 O593 2.439 . S
Cd589 O599 2.240 . S
Cd590 O591 2.240 . S
Cd590 O598 2.223 . S
Cd590 O600 2.297 . S
Cd590 O601 2.439 . S
O591 Cd590 2.240 . S
O591 C596 1.279 . S
O592 Cd589 2.297 . S
O592 C594 1.247 . S
O593 Cd589 2.439 . S
O593 C594 1.208 . S
C594 O592 1.247 . S
C594 O593 1.208 . S
C595 O600 1.247 . S
C595 O601 1.208 . S
C596 O588 1.315 . S
C596 O591 1.279 . S
C597 O598 1.315 . S
C597 O599 1.279 . S
O598 Cd590 2.223 . S
O598 C597 1.315 . S
O599 Cd589 2.240 . S
O599 C597 1.279 . S
O600 Cd590 2.297 . S
O600 C595 1.247 . S
O601 Cd590 2.439 . S
O601 C595 1.208 . S
O602 Cd603 2.223 . S
O602 C610 1.315 . S
Cd603 O602 2.223 . S
Cd603 O606 2.297 . S
Cd603 O607 2.439 . S
Cd603 O613 2.240 . S
Cd604 O605 2.240 . S
Cd604 O612 2.223 . S
Cd604 O614 2.297 . S
Cd604 O615 2.439 . S
O605 Cd604 2.240 . S
O605 C610 1.279 . S
O606 Cd603 2.297 . S
O606 C608 1.247 . S
O607 Cd603 2.439 . S
O607 C608 1.208 . S
C608 O606 1.247 . S
C608 O607 1.208 . S
C609 O614 1.247 . S
C609 O615 1.208 . S
C610 O602 1.315 . S
C610 O605 1.279 . S
C611 O612 1.315 . S
C611 O613 1.279 . S
O612 Cd604 2.223 . S
O612 C611 1.315 . S
O613 Cd603 2.240 . S
O613 C611 1.279 . S
O614 Cd604 2.297 . S
O614 C609 1.247 . S
O615 Cd604 2.439 . S
O615 C609 1.208 . S
O616 Cd617 2.223 . S
O616 C624 1.315 . S
Cd617 O616 2.223 . S
Cd617 O620 2.297 . S
Cd617 O621 2.439 . S
Cd617 O627 2.240 . S
Cd618 O619 2.240 . S
Cd618 O626 2.223 . S
Cd618 O628 2.297 . S
Cd618 O629 2.439 . S
O619 Cd618 2.240 . S
O619 C624 1.279 . S
O620 Cd617 2.297 . S
O620 C622 1.247 . S
O621 Cd617 2.439 . S
O621 C622 1.208 . S
C622 O620 1.247 . S
C622 O621 1.208 . S
C623 O628 1.247 . S
C623 O629 1.208 . S
C624 O616 1.315 . S
C624 O619 1.279 . S
C625 O626 1.315 . S
C625 O627 1.279 . S
O626 Cd618 2.223 . S
O626 C625 1.315 . S
O627 Cd617 2.240 . S
O627 C625 1.279 . S
O628 Cd618 2.297 . S
O628 C623 1.247 . S
O629 Cd618 2.439 . S
O629 C623 1.208 . S
O630 Cd631 2.223 . S
O630 C638 1.315 . S
Cd631 O630 2.223 . S
Cd631 O634 2.297 . S
Cd631 O635 2.439 . S
Cd631 O641 2.240 . S
Cd632 O633 2.240 . S
Cd632 O640 2.223 . S
Cd632 O642 2.297 . S
Cd632 O643 2.439 . S
O633 Cd632 2.240 . S
O633 C638 1.279 . S
O634 Cd631 2.297 . S
O634 C636 1.247 . S
O635 Cd631 2.439 . S
O635 C636 1.208 . S
C636 O634 1.247 . S
C636 O635 1.208 . S
C637 O642 1.247 . S
C637 O643 1.208 . S
C638 O630 1.315 . S
C638 O633 1.279 . S
C639 O640 1.315 . S
C639 O641 1.279 . S
O640 Cd632 2.223 . S
O640 C639 1.315 . S
O641 Cd631 2.240 . S
O641 C639 1.279 . S
O642 Cd632 2.297 . S
O642 C637 1.247 . S
O643 Cd632 2.439 . S
O643 C637 1.208 . S
O644 Cd645 2.223 . S
O644 C652 1.315 . S
Cd645 O644 2.223 . S
Cd645 O648 2.297 . S
Cd645 O649 2.439 . S
Cd645 O655 2.240 . S
Cd646 O647 2.240 . S
Cd646 O654 2.223 . S
Cd646 O656 2.297 . S
Cd646 O657 2.439 . S
O647 Cd646 2.240 . S
O647 C652 1.279 . S
O648 Cd645 2.297 . S
O648 C650 1.247 . S
O649 Cd645 2.439 . S
O649 C650 1.208 . S
C650 O648 1.247 . S
C650 O649 1.208 . S
C651 O656 1.247 . S
C651 O657 1.208 . S
C652 O644 1.315 . S
C652 O647 1.279 . S
C653 O654 1.315 . S
C653 O655 1.279 . S
O654 Cd646 2.223 . S
O654 C653 1.315 . S
O655 Cd645 2.240 . S
O655 C653 1.279 . S
O656 Cd646 2.297 . S
O656 C651 1.247 . S
O657 Cd646 2.439 . S
O657 C651 1.208 . S
O658 Cd659 2.223 . S
O658 C666 1.315 . S
Cd659 O658 2.223 . S
Cd659 O662 2.297 . S
Cd659 O663 2.439 . S
Cd659 O669 2.240 . S
Cd660 O661 2.240 . S
Cd660 O668 2.223 . S
Cd660 O670 2.297 . S
Cd660 O671 2.439 . S
O661 Cd660 2.240 . S
O661 C666 1.279 . S
O662 Cd659 2.297 . S
O662 C664 1.247 . S
O663 Cd659 2.439 . S
O663 C664 1.208 . S
C664 O662 1.247 . S
C664 O663 1.208 . S
C665 O670 1.247 . S
C665 O671 1.208 . S
C666 O658 1.315 . S
C666 O661 1.279 . S
C667 O668 1.315 . S
C667 O669 1.279 . S
O668 Cd660 2.223 . S
O668 C667 1.315 . S
O669 Cd659 2.240 . S
O669 C667 1.279 . S
O670 Cd660 2.297 . S
O670 C665 1.247 . S
O671 Cd660 2.439 . S
O671 C665 1.208 . S
H672 C678 0.930 . S
H673 C681 0.930 . S
H674 C682 0.930 . S
H675 C683 0.930 . S
H676 C686 0.930 . S
H677 C687 0.930 . S
C678 H672 0.930 . S
C678 C679 1.355 . S
C678 C680 1.415 . S
C679 C678 1.355 . S
C679 C681 1.419 . S
C680 C678 1.415 . S
C680 C685 1.425 . S
C680 C687 1.409 . S
C681 H673 0.930 . S
C681 C679 1.419 . S
C681 C682 1.362 . S
C682 H674 0.930 . S
C682 C681 1.362 . S
C682 C685 1.409 . S
C683 H675 0.930 . S
C683 C684 1.355 . S
C683 C685 1.415 . S
C684 C683 1.355 . S
C684 C686 1.419 . S
C685 C680 1.425 . S
C685 C682 1.409 . S
C685 C683 1.415 . S
C686 H676 0.930 . S
C686 C684 1.419 . S
C686 C687 1.362 . S
C687 H677 0.930 . S
C687 C680 1.409 . S
C687 C686 1.362 . S
H688 C694 0.930 . S
H689 C697 0.930 . S
H690 C698 0.930 . S
H691 C699 0.930 . S
H692 C702 0.930 . S
H693 C703 0.930 . S
C694 H688 0.930 . S
C694 C695 1.355 . S
C694 C696 1.415 . S
C695 C694 1.355 . S
C695 C697 1.419 . S
C696 C694 1.415 . S
C696 C701 1.425 . S
C696 C703 1.409 . S
C697 H689 0.930 . S
C697 C695 1.419 . S
C697 C698 1.362 . S
C698 H690 0.930 . S
C698 C697 1.362 . S
C698 C701 1.409 . S
C699 H691 0.930 . S
C699 C700 1.355 . S
C699 C701 1.415 . S
C700 C699 1.355 . S
C700 C702 1.419 . S
C701 C696 1.425 . S
C701 C698 1.409 . S
C701 C699 1.415 . S
C702 H692 0.930 . S
C702 C700 1.419 . S
C702 C703 1.362 . S
C703 H693 0.930 . S
C703 C696 1.409 . S
C703 C702 1.362 . S
H704 C710 0.930 . S
H705 C713 0.930 . S
H706 C714 0.930 . S
H707 C715 0.930 . S
H708 C718 0.930 . S
H709 C719 0.930 . S
C710 H704 0.930 . S
C710 C711 1.355 . S
C710 C712 1.415 . S
C711 C710 1.355 . S
C711 C713 1.419 . S
C712 C710 1.415 . S
C712 C717 1.425 . S
C712 C719 1.409 . S
C713 H705 0.930 . S
C713 C711 1.419 . S
C713 C714 1.362 . S
C714 H706 0.930 . S
C714 C713 1.362 . S
C714 C717 1.409 . S
C715 H707 0.930 . S
C715 C716 1.355 . S
C715 C717 1.415 . S
C716 C715 1.355 . S
C716 C718 1.419 . S
C717 C712 1.425 . S
C717 C714 1.409 . S
C717 C715 1.415 . S
C718 H708 0.930 . S
C718 C716 1.419 . S
C718 C719 1.362 . S
C719 H709 0.930 . S
C719 C712 1.409 . S
C719 C718 1.362 . S
H720 C726 0.930 . S
H721 C729 0.930 . S
H722 C730 0.930 . S
H723 C731 0.930 . S
H724 C734 0.930 . S
H725 C735 0.930 . S
C726 H720 0.930 . S
C726 C727 1.355 . S
C726 C728 1.415 . S
C727 C726 1.355 . S
C727 C729 1.419 . S
C728 C726 1.415 . S
C728 C733 1.425 . S
C728 C735 1.409 . S
C729 H721 0.930 . S
C729 C727 1.419 . S
C729 C730 1.362 . S
C730 H722 0.930 . S
C730 C729 1.362 . S
C730 C733 1.409 . S
C731 H723 0.930 . S
C731 C732 1.355 . S
C731 C733 1.415 . S
C732 C731 1.355 . S
C732 C734 1.419 . S
C733 C728 1.425 . S
C733 C730 1.409 . S
C733 C731 1.415 . S
C734 H724 0.930 . S
C734 C732 1.419 . S
C734 C735 1.362 . S
C735 H725 0.930 . S
C735 C728 1.409 . S
C735 C734 1.362 . S
H736 C742 0.930 . S
H737 C745 0.930 . S
H738 C746 0.930 . S
H739 C747 0.930 . S
H740 C750 0.930 . S
H741 C751 0.930 . S
C742 H736 0.930 . S
C742 C743 1.355 . S
C742 C744 1.415 . S
C743 C742 1.355 . S
C743 C745 1.419 . S
C744 C742 1.415 . S
C744 C749 1.425 . S
C744 C751 1.409 . S
C745 H737 0.930 . S
C745 C743 1.419 . S
C745 C746 1.362 . S
C746 H738 0.930 . S
C746 C745 1.362 . S
C746 C749 1.409 . S
C747 H739 0.930 . S
C747 C748 1.355 . S
C747 C749 1.415 . S
C748 C747 1.355 . S
C748 C750 1.419 . S
C749 C744 1.425 . S
C749 C746 1.409 . S
C749 C747 1.415 . S
C750 H740 0.930 . S
C750 C748 1.419 . S
C750 C751 1.362 . S
C751 H741 0.930 . S
C751 C744 1.409 . S
C751 C750 1.362 . S
H752 C758 0.930 . S
H753 C761 0.930 . S
H754 C762 0.930 . S
H755 C763 0.930 . S
H756 C766 0.930 . S
H757 C767 0.930 . S
C758 H752 0.930 . S
C758 C759 1.355 . S
C758 C760 1.415 . S
C759 C758 1.355 . S
C759 C761 1.419 . S
C760 C758 1.415 . S
C760 C765 1.425 . S
C760 C767 1.409 . S
C761 H753 0.930 . S
C761 C759 1.419 . S
C761 C762 1.362 . S
C762 H754 0.930 . S
C762 C761 1.362 . S
C762 C765 1.409 . S
C763 H755 0.930 . S
C763 C764 1.355 . S
C763 C765 1.415 . S
C764 C763 1.355 . S
C764 C766 1.419 . S
C765 C760 1.425 . S
C765 C762 1.409 . S
C765 C763 1.415 . S
C766 H756 0.930 . S
C766 C764 1.419 . S
C766 C767 1.362 . S
C767 H757 0.930 . S
C767 C760 1.409 . S
C767 C766 1.362 . S
H768 C774 0.930 . S
H769 C777 0.930 . S
H770 C778 0.930 . S
H771 C779 0.930 . S
H772 C782 0.930 . S
H773 C783 0.930 . S
C774 H768 0.930 . S
C774 C775 1.355 . S
C774 C776 1.415 . S
C775 C774 1.355 . S
C775 C777 1.419 . S
C776 C774 1.415 . S
C776 C781 1.425 . S
C776 C783 1.409 . S
C777 H769 0.930 . S
C777 C775 1.419 . S
C777 C778 1.362 . S
C778 H770 0.930 . S
C778 C777 1.362 . S
C778 C781 1.409 . S
C779 H771 0.930 . S
C779 C780 1.355 . S
C779 C781 1.415 . S
C780 C779 1.355 . S
C780 C782 1.419 . S
C781 C776 1.425 . S
C781 C778 1.409 . S
C781 C779 1.415 . S
C782 H772 0.930 . S
C782 C780 1.419 . S
C782 C783 1.362 . S
C783 H773 0.930 . S
C783 C776 1.409 . S
C783 C782 1.362 . S
H784 C790 0.930 . S
H785 C793 0.930 . S
H786 C794 0.930 . S
H787 C795 0.930 . S
H788 C798 0.930 . S
H789 C799 0.930 . S
C790 H784 0.930 . S
C790 C791 1.355 . S
C790 C792 1.415 . S
C791 C790 1.355 . S
C791 C793 1.419 . S
C792 C790 1.415 . S
C792 C797 1.425 . S
C792 C799 1.409 . S
C793 H785 0.930 . S
C793 C791 1.419 . S
C793 C794 1.362 . S
C794 H786 0.930 . S
C794 C793 1.362 . S
C794 C797 1.409 . S
C795 H787 0.930 . S
C795 C796 1.355 . S
C795 C797 1.415 . S
C796 C795 1.355 . S
C796 C798 1.419 . S
C797 C792 1.425 . S
C797 C794 1.409 . S
C797 C795 1.415 . S
C798 H788 0.930 . S
C798 C796 1.419 . S
C798 C799 1.362 . S
C799 H789 0.930 . S
C799 C792 1.409 . S
C799 C798 1.362 . S
H800 C806 0.930 . S
H801 C809 0.930 . S
H802 C810 0.930 . S
H803 C811 0.930 . S
H804 C814 0.930 . S
H805 C815 0.930 . S
C806 H800 0.930 . S
C806 C807 1.355 . S
C806 C808 1.415 . S
C807 C806 1.355 . S
C807 C809 1.419 . S
C808 C806 1.415 . S
C808 C813 1.425 . S
C808 C815 1.409 . S
C809 H801 0.930 . S
C809 C807 1.419 . S
C809 C810 1.362 . S
C810 H802 0.930 . S
C810 C809 1.362 . S
C810 C813 1.409 . S
C811 H803 0.930 . S
C811 C812 1.355 . S
C811 C813 1.415 . S
C812 C811 1.355 . S
C812 C814 1.419 . S
C813 C808 1.425 . S
C813 C810 1.409 . S
C813 C811 1.415 . S
C814 H804 0.930 . S
C814 C812 1.419 . S
C814 C815 1.362 . S
C815 H805 0.930 . S
C815 C808 1.409 . S
C815 C814 1.362 . S
H816 C822 0.930 . S
H817 C825 0.930 . S
H818 C826 0.930 . S
H819 C827 0.930 . S
H820 C830 0.930 . S
H821 C831 0.930 . S
C822 H816 0.930 . S
C822 C823 1.355 . S
C822 C824 1.415 . S
C823 C822 1.355 . S
C823 C825 1.419 . S
C824 C822 1.415 . S
C824 C829 1.425 . S
C824 C831 1.409 . S
C825 H817 0.930 . S
C825 C823 1.419 . S
C825 C826 1.362 . S
C826 H818 0.930 . S
C826 C825 1.362 . S
C826 C829 1.409 . S
C827 H819 0.930 . S
C827 C828 1.355 . S
C827 C829 1.415 . S
C828 C827 1.355 . S
C828 C830 1.419 . S
C829 C824 1.425 . S
C829 C826 1.409 . S
C829 C827 1.415 . S
C830 H820 0.930 . S
C830 C828 1.419 . S
C830 C831 1.362 . S
C831 H821 0.930 . S
C831 C824 1.409 . S
C831 C830 1.362 . S
H832 C838 0.930 . S
H833 C841 0.930 . S
H834 C842 0.930 . S
H835 C843 0.930 . S
H836 C846 0.930 . S
H837 C847 0.930 . S
C838 H832 0.930 . S
C838 C839 1.355 . S
C838 C840 1.415 . S
C839 C838 1.355 . S
C839 C841 1.419 . S
C840 C838 1.415 . S
C840 C845 1.425 . S
C840 C847 1.409 . S
C841 H833 0.930 . S
C841 C839 1.419 . S
C841 C842 1.362 . S
C842 H834 0.930 . S
C842 C841 1.362 . S
C842 C845 1.409 . S
C843 H835 0.930 . S
C843 C844 1.355 . S
C843 C845 1.415 . S
C844 C843 1.355 . S
C844 C846 1.419 . S
C845 C840 1.425 . S
C845 C842 1.409 . S
C845 C843 1.415 . S
C846 H836 0.930 . S
C846 C844 1.419 . S
C846 C847 1.362 . S
C847 H837 0.930 . S
C847 C840 1.409 . S
C847 C846 1.362 . S
H848 C854 0.930 . S
H849 C857 0.930 . S
H850 C858 0.930 . S
H851 C859 0.930 . S
H852 C862 0.930 . S
H853 C863 0.930 . S
C854 H848 0.930 . S
C854 C855 1.355 . S
C854 C856 1.415 . S
C855 C854 1.355 . S
C855 C857 1.419 . S
C856 C854 1.415 . S
C856 C861 1.425 . S
C856 C863 1.409 . S
C857 H849 0.930 . S
C857 C855 1.419 . S
C857 C858 1.362 . S
C858 H850 0.930 . S
C858 C857 1.362 . S
C858 C861 1.409 . S
C859 H851 0.930 . S
C859 C860 1.355 . S
C859 C861 1.415 . S
C860 C859 1.355 . S
C860 C862 1.419 . S
C861 C856 1.425 . S
C861 C858 1.409 . S
C861 C859 1.415 . S
C862 H852 0.930 . S
C862 C860 1.419 . S
C862 C863 1.362 . S
C863 H853 0.930 . S
C863 C856 1.409 . S
C863 C862 1.362 . S
H864 C870 0.930 . S
H865 C873 0.930 . S
H866 C874 0.930 . S
H867 C875 0.930 . S
H868 C878 0.930 . S
H869 C879 0.930 . S
C870 H864 0.930 . S
C870 C871 1.355 . S
C870 C872 1.415 . S
C871 C870 1.355 . S
C871 C873 1.419 . S
C872 C870 1.415 . S
C872 C877 1.425 . S
C872 C879 1.409 . S
C873 H865 0.930 . S
C873 C871 1.419 . S
C873 C874 1.362 . S
C874 H866 0.930 . S
C874 C873 1.362 . S
C874 C877 1.409 . S
C875 H867 0.930 . S
C875 C876 1.355 . S
C875 C877 1.415 . S
C876 C875 1.355 . S
C876 C878 1.419 . S
C877 C872 1.425 . S
C877 C874 1.409 . S
C877 C875 1.415 . S
C878 H868 0.930 . S
C878 C876 1.419 . S
C878 C879 1.362 . S
C879 H869 0.930 . S
C879 C872 1.409 . S
C879 C878 1.362 . S
H880 C886 0.930 . S
H881 C889 0.930 . S
H882 C890 0.930 . S
H883 C891 0.930 . S
H884 C894 0.930 . S
H885 C895 0.930 . S
C886 H880 0.930 . S
C886 C887 1.355 . S
C886 C888 1.415 . S
C887 C886 1.355 . S
C887 C889 1.419 . S
C888 C886 1.415 . S
C888 C893 1.425 . S
C888 C895 1.409 . S
C889 H881 0.930 . S
C889 C887 1.419 . S
C889 C890 1.362 . S
C890 H882 0.930 . S
C890 C889 1.362 . S
C890 C893 1.409 . S
C891 H883 0.930 . S
C891 C892 1.355 . S
C891 C893 1.415 . S
C892 C891 1.355 . S
C892 C894 1.419 . S
C893 C888 1.425 . S
C893 C890 1.409 . S
C893 C891 1.415 . S
C894 H884 0.930 . S
C894 C892 1.419 . S
C894 C895 1.362 . S
C895 H885 0.930 . S
C895 C888 1.409 . S
C895 C894 1.362 . S
H896 C902 0.930 . S
H897 C905 0.930 . S
H898 C906 0.930 . S
H899 C907 0.930 . S
H900 C910 0.930 . S
H901 C911 0.930 . S
C902 H896 0.930 . S
C902 C903 1.355 . S
C902 C904 1.415 . S
C903 C902 1.355 . S
C903 C905 1.419 . S
C904 C902 1.415 . S
C904 C909 1.425 . S
C904 C911 1.409 . S
C905 H897 0.930 . S
C905 C903 1.419 . S
C905 C906 1.362 . S
C906 H898 0.930 . S
C906 C905 1.362 . S
C906 C909 1.409 . S
C907 H899 0.930 . S
C907 C908 1.355 . S
C907 C909 1.415 . S
C908 C907 1.355 . S
C908 C910 1.419 . S
C909 C904 1.425 . S
C909 C906 1.409 . S
C909 C907 1.415 . S
C910 H900 0.930 . S
C910 C908 1.419 . S
C910 C911 1.362 . S
C911 H901 0.930 . S
C911 C904 1.409 . S
C911 C910 1.362 . S
H912 C918 0.930 . S
H913 C921 0.930 . S
H914 C922 0.930 . S
H915 C923 0.930 . S
H916 C926 0.930 . S
H917 C927 0.930 . S
C918 H912 0.930 . S
C918 C919 1.355 . S
C918 C920 1.415 . S
C919 C918 1.355 . S
C919 C921 1.419 . S
C920 C918 1.415 . S
C920 C925 1.425 . S
C920 C927 1.409 . S
C921 H913 0.930 . S
C921 C919 1.419 . S
C921 C922 1.362 . S
C922 H914 0.930 . S
C922 C921 1.362 . S
C922 C925 1.409 . S
C923 H915 0.930 . S
C923 C924 1.355 . S
C923 C925 1.415 . S
C924 C923 1.355 . S
C924 C926 1.419 . S
C925 C920 1.425 . S
C925 C922 1.409 . S
C925 C923 1.415 . S
C926 H916 0.930 . S
C926 C924 1.419 . S
C926 C927 1.362 . S
C927 H917 0.930 . S
C927 C920 1.409 . S
C927 C926 1.362 . S
H928 C934 0.930 . S
H929 C937 0.930 . S
H930 C938 0.930 . S
H931 C939 0.930 . S
H932 C942 0.930 . S
H933 C943 0.930 . S
C934 H928 0.930 . S
C934 C935 1.355 . S
C934 C936 1.415 . S
C935 C934 1.355 . S
C935 C937 1.419 . S
C936 C934 1.415 . S
C936 C941 1.425 . S
C936 C943 1.409 . S
C937 H929 0.930 . S
C937 C935 1.419 . S
C937 C938 1.362 . S
C938 H930 0.930 . S
C938 C937 1.362 . S
C938 C941 1.409 . S
C939 H931 0.930 . S
C939 C940 1.355 . S
C939 C941 1.415 . S
C940 C939 1.355 . S
C940 C942 1.419 . S
C941 C936 1.425 . S
C941 C938 1.409 . S
C941 C939 1.415 . S
C942 H932 0.930 . S
C942 C940 1.419 . S
C942 C943 1.362 . S
C943 H933 0.930 . S
C943 C936 1.409 . S
C943 C942 1.362 . S
H944 C950 0.930 . S
H945 C953 0.930 . S
H946 C954 0.930 . S
H947 C955 0.930 . S
H948 C958 0.930 . S
H949 C959 0.930 . S
C950 H944 0.930 . S
C950 C951 1.355 . S
C950 C952 1.415 . S
C951 C950 1.355 . S
C951 C953 1.419 . S
C952 C950 1.415 . S
C952 C957 1.425 . S
C952 C959 1.409 . S
C953 H945 0.930 . S
C953 C951 1.419 . S
C953 C954 1.362 . S
C954 H946 0.930 . S
C954 C953 1.362 . S
C954 C957 1.409 . S
C955 H947 0.930 . S
C955 C956 1.355 . S
C955 C957 1.415 . S
C956 C955 1.355 . S
C956 C958 1.419 . S
C957 C952 1.425 . S
C957 C954 1.409 . S
C957 C955 1.415 . S
C958 H948 0.930 . S
C958 C956 1.419 . S
C958 C959 1.362 . S
C959 H949 0.930 . S
C959 C952 1.409 . S
C959 C958 1.362 . S
H960 C966 0.930 . S
H961 C969 0.930 . S
H962 C970 0.930 . S
H963 C971 0.930 . S
H964 C974 0.930 . S
H965 C975 0.930 . S
C966 H960 0.930 . S
C966 C967 1.355 . S
C966 C968 1.415 . S
C967 C966 1.355 . S
C967 C969 1.419 . S
C968 C966 1.415 . S
C968 C973 1.425 . S
C968 C975 1.409 . S
C969 H961 0.930 . S
C969 C967 1.419 . S
C969 C970 1.362 . S
C970 H962 0.930 . S
C970 C969 1.362 . S
C970 C973 1.409 . S
C971 H963 0.930 . S
C971 C972 1.355 . S
C971 C973 1.415 . S
C972 C971 1.355 . S
C972 C974 1.419 . S
C973 C968 1.425 . S
C973 C970 1.409 . S
C973 C971 1.415 . S
C974 H964 0.930 . S
C974 C972 1.419 . S
C974 C975 1.362 . S
C975 H965 0.930 . S
C975 C968 1.409 . S
C975 C974 1.362 . S
H976 C982 0.930 . S
H977 C985 0.930 . S
H978 C986 0.930 . S
H979 C987 0.930 . S
H980 C990 0.930 . S
H981 C991 0.930 . S
C982 H976 0.930 . S
C982 C983 1.355 . S
C982 C984 1.415 . S
C983 C982 1.355 . S
C983 C985 1.419 . S
C984 C982 1.415 . S
C984 C989 1.425 . S
C984 C991 1.409 . S
C985 H977 0.930 . S
C985 C983 1.419 . S
C985 C986 1.362 . S
C986 H978 0.930 . S
C986 C985 1.362 . S
C986 C989 1.409 . S
C987 H979 0.930 . S
C987 C988 1.355 . S
C987 C989 1.415 . S
C988 C987 1.355 . S
C988 C990 1.419 . S
C989 C984 1.425 . S
C989 C986 1.409 . S
C989 C987 1.415 . S
C990 H980 0.930 . S
C990 C988 1.419 . S
C990 C991 1.362 . S
C991 H981 0.930 . S
C991 C984 1.409 . S
C991 C990 1.362 . S
H992 C998 0.930 . S
H993 C1001 0.930 . S
H994 C1002 0.930 . S
H995 C1003 0.930 . S
H996 C1006 0.930 . S
H997 C1007 0.930 . S
C998 H992 0.930 . S
C998 C999 1.355 . S
C998 C1000 1.415 . S
C999 C998 1.355 . S
C999 C1001 1.419 . S
C1000 C998 1.415 . S
C1000 C1005 1.425 . S
C1000 C1007 1.409 . S
C1001 H993 0.930 . S
C1001 C999 1.419 . S
C1001 C1002 1.362 . S
C1002 H994 0.930 . S
C1002 C1001 1.362 . S
C1002 C1005 1.409 . S
C1003 H995 0.930 . S
C1003 C1004 1.355 . S
C1003 C1005 1.415 . S
C1004 C1003 1.355 . S
C1004 C1006 1.419 . S
C1005 C1000 1.425 . S
C1005 C1002 1.409 . S
C1005 C1003 1.415 . S
C1006 H996 0.930 . S
C1006 C1004 1.419 . S
C1006 C1007 1.362 . S
C1007 H997 0.930 . S
C1007 C1000 1.409 . S
C1007 C1006 1.362 . S
H1008 C1014 0.930 . S
H1009 C1017 0.930 . S
H1010 C1018 0.930 . S
H1011 C1019 0.930 . S
H1012 C1022 0.930 . S
H1013 C1023 0.930 . S
C1014 H1008 0.930 . S
C1014 C1015 1.355 . S
C1014 C1016 1.415 . S
C1015 C1014 1.355 . S
C1015 C1017 1.419 . S
C1016 C1014 1.415 . S
C1016 C1021 1.425 . S
C1016 C1023 1.409 . S
C1017 H1009 0.930 . S
C1017 C1015 1.419 . S
C1017 C1018 1.362 . S
C1018 H1010 0.930 . S
C1018 C1017 1.362 . S
C1018 C1021 1.409 . S
C1019 H1011 0.930 . S
C1019 C1020 1.355 . S
C1019 C1021 1.415 . S
C1020 C1019 1.355 . S
C1020 C1022 1.419 . S
C1021 C1016 1.425 . S
C1021 C1018 1.409 . S
C1021 C1019 1.415 . S
C1022 H1012 0.930 . S
C1022 C1020 1.419 . S
C1022 C1023 1.362 . S
C1023 H1013 0.930 . S
C1023 C1016 1.409 . S
C1023 C1022 1.362 . S
H1024 C1030 0.930 . S
H1025 C1033 0.930 . S
H1026 C1034 0.930 . S
H1027 C1035 0.930 . S
H1028 C1038 0.930 . S
H1029 C1039 0.930 . S
C1030 H1024 0.930 . S
C1030 C1031 1.355 . S
C1030 C1032 1.415 . S
C1031 C1030 1.355 . S
C1031 C1033 1.419 . S
C1032 C1030 1.415 . S
C1032 C1037 1.425 . S
C1032 C1039 1.409 . S
C1033 H1025 0.930 . S
C1033 C1031 1.419 . S
C1033 C1034 1.362 . S
C1034 H1026 0.930 . S
C1034 C1033 1.362 . S
C1034 C1037 1.409 . S
C1035 H1027 0.930 . S
C1035 C1036 1.355 . S
C1035 C1037 1.415 . S
C1036 C1035 1.355 . S
C1036 C1038 1.419 . S
C1037 C1032 1.425 . S
C1037 C1034 1.409 . S
C1037 C1035 1.415 . S
C1038 H1028 0.930 . S
C1038 C1036 1.419 . S
C1038 C1039 1.362 . S
C1039 H1029 0.930 . S
C1039 C1032 1.409 . S
C1039 C1038 1.362 . S
H1040 C1046 0.930 . S
H1041 C1049 0.930 . S
H1042 C1050 0.930 . S
H1043 C1051 0.930 . S
H1044 C1054 0.930 . S
H1045 C1055 0.930 . S
C1046 H1040 0.930 . S
C1046 C1047 1.355 . S
C1046 C1048 1.415 . S
C1047 C1046 1.355 . S
C1047 C1049 1.419 . S
C1048 C1046 1.415 . S
C1048 C1053 1.425 . S
C1048 C1055 1.409 . S
C1049 H1041 0.930 . S
C1049 C1047 1.419 . S
C1049 C1050 1.362 . S
C1050 H1042 0.930 . S
C1050 C1049 1.362 . S
C1050 C1053 1.409 . S
C1051 H1043 0.930 . S
C1051 C1052 1.355 . S
C1051 C1053 1.415 . S
C1052 C1051 1.355 . S
C1052 C1054 1.419 . S
C1053 C1048 1.425 . S
C1053 C1050 1.409 . S
C1053 C1051 1.415 . S
C1054 H1044 0.930 . S
C1054 C1052 1.419 . S
C1054 C1055 1.362 . S
C1055 H1045 0.930 . S
C1055 C1048 1.409 . S
C1055 C1054 1.362 . S
H1056 C1062 0.930 . S
H1057 C1065 0.930 . S
H1058 C1066 0.930 . S
H1059 C1067 0.930 . S
H1060 C1070 0.930 . S
H1061 C1071 0.930 . S
C1062 H1056 0.930 . S
C1062 C1063 1.355 . S
C1062 C1064 1.415 . S
C1063 C1062 1.355 . S
C1063 C1065 1.419 . S
C1064 C1062 1.415 . S
C1064 C1069 1.425 . S
C1064 C1071 1.409 . S
C1065 H1057 0.930 . S
C1065 C1063 1.419 . S
C1065 C1066 1.362 . S
C1066 H1058 0.930 . S
C1066 C1065 1.362 . S
C1066 C1069 1.409 . S
C1067 H1059 0.930 . S
C1067 C1068 1.355 . S
C1067 C1069 1.415 . S
C1068 C1067 1.355 . S
C1068 C1070 1.419 . S
C1069 C1064 1.425 . S
C1069 C1066 1.409 . S
C1069 C1067 1.415 . S
C1070 H1060 0.930 . S
C1070 C1068 1.419 . S
C1070 C1071 1.362 . S
C1071 H1061 0.930 . S
C1071 C1064 1.409 . S
C1071 C1070 1.362 . S
H1072 C1078 0.930 . S
H1073 C1081 0.930 . S
H1074 C1082 0.930 . S
H1075 C1083 0.930 . S
H1076 C1086 0.930 . S
H1077 C1087 0.930 1_556 S
C1078 H1072 0.930 . S
C1078 C1079 1.355 . S
C1078 C1080 1.415 . S
C1079 C1078 1.355 . S
C1079 C1081 1.419 . S
C1080 C1078 1.415 . S
C1080 C1085 1.425 . S
C1080 C1087 1.409 1_556 S
C1081 H1073 0.930 . S
C1081 C1079 1.419 . S
C1081 C1082 1.362 . S
C1082 H1074 0.930 . S
C1082 C1081 1.362 . S
C1082 C1085 1.409 . S
C1083 H1075 0.930 . S
C1083 C1084 1.355 . S
C1083 C1085 1.415 1_554 S
C1084 C1083 1.355 . S
C1084 C1086 1.419 . S
C1085 C1080 1.425 . S
C1085 C1082 1.409 . S
C1085 C1083 1.415 1_556 S
C1086 H1076 0.930 . S
C1086 C1084 1.419 . S
C1086 C1087 1.362 . S
C1087 H1077 0.930 1_554 S
C1087 C1080 1.409 1_554 S
C1087 C1086 1.362 . S
H1088 C1094 0.930 . S
H1089 C1097 0.930 . S
H1090 C1098 0.930 . S
H1091 C1099 0.930 . S
H1092 C1102 0.930 . S
H1093 C1103 0.930 . S
C1094 H1088 0.930 . S
C1094 C1095 1.355 . S
C1094 C1096 1.415 . S
C1095 C1094 1.355 . S
C1095 C1097 1.419 . S
C1096 C1094 1.415 . S
C1096 C1101 1.425 . S
C1096 C1103 1.409 . S
C1097 H1089 0.930 . S
C1097 C1095 1.419 . S
C1097 C1098 1.362 . S
C1098 H1090 0.930 . S
C1098 C1097 1.362 . S
C1098 C1101 1.409 . S
C1099 H1091 0.930 . S
C1099 C1100 1.355 . S
C1099 C1101 1.415 . S
C1100 C1099 1.355 . S
C1100 C1102 1.419 . S
C1101 C1096 1.425 . S
C1101 C1098 1.409 . S
C1101 C1099 1.415 . S
C1102 H1092 0.930 . S
C1102 C1100 1.419 . S
C1102 C1103 1.362 . S
C1103 H1093 0.930 . S
C1103 C1096 1.409 . S
C1103 C1102 1.362 . S
H1104 C1110 0.930 . S
H1105 C1113 0.930 . S
H1106 C1114 0.930 . S
H1107 C1115 0.930 . S
H1108 C1118 0.930 . S
H1109 C1119 0.930 . S
C1110 H1104 0.930 . S
C1110 C1111 1.355 . S
C1110 C1112 1.415 1_556 S
C1111 C1110 1.355 . S
C1111 C1113 1.419 . S
C1112 C1110 1.415 1_554 S
C1112 C1117 1.425 . S
C1112 C1119 1.409 . S
C1113 H1105 0.930 . S
C1113 C1111 1.419 . S
C1113 C1114 1.362 1_556 S
C1114 H1106 0.930 . S
C1114 C1113 1.362 1_554 S
C1114 C1117 1.409 . S
C1115 H1107 0.930 . S
C1115 C1116 1.355 . S
C1115 C1117 1.415 . S
C1116 C1115 1.355 . S
C1116 C1118 1.419 . S
C1117 C1112 1.425 . S
C1117 C1114 1.409 . S
C1117 C1115 1.415 . S
C1118 H1108 0.930 . S
C1118 C1116 1.419 . S
C1118 C1119 1.362 . S
C1119 H1109 0.930 . S
C1119 C1112 1.409 . S
C1119 C1118 1.362 . S
H1120 C1126 0.930 . S
H1121 C1129 0.930 . S
H1122 C1130 0.930 . S
H1123 C1131 0.930 . S
H1124 C1134 0.930 . S
H1125 C1135 0.930 . S
C1126 H1120 0.930 . S
C1126 C1127 1.355 . S
C1126 C1128 1.415 . S
C1127 C1126 1.355 . S
C1127 C1129 1.419 . S
C1128 C1126 1.415 . S
C1128 C1133 1.425 . S
C1128 C1135 1.409 . S
C1129 H1121 0.930 . S
C1129 C1127 1.419 . S
C1129 C1130 1.362 . S
C1130 H1122 0.930 . S
C1130 C1129 1.362 . S
C1130 C1133 1.409 . S
C1131 H1123 0.930 . S
C1131 C1132 1.355 . S
C1131 C1133 1.415 . S
C1132 C1131 1.355 . S
C1132 C1134 1.419 . S
C1133 C1128 1.425 . S
C1133 C1130 1.409 . S
C1133 C1131 1.415 . S
C1134 H1124 0.930 . S
C1134 C1132 1.419 . S
C1134 C1135 1.362 . S
C1135 H1125 0.930 . S
C1135 C1128 1.409 . S
C1135 C1134 1.362 . S
H1136 C1142 0.930 . S
H1137 C1145 0.930 . S
H1138 C1146 0.930 . S
H1139 C1147 0.930 . S
H1140 C1150 0.930 . S
H1141 C1151 0.930 . S
C1142 H1136 0.930 . S
C1142 C1143 1.355 . S
C1142 C1144 1.415 . S
C1143 C1142 1.355 . S
C1143 C1145 1.419 . S
C1144 C1142 1.415 . S
C1144 C1149 1.425 1_556 S
C1144 C1151 1.409 1_556 S
C1145 H1137 0.930 . S
C1145 C1143 1.419 . S
C1145 C1146 1.362 . S
C1146 H1138 0.930 . S
C1146 C1145 1.362 . S
C1146 C1149 1.409 1_556 S
C1147 H1139 0.930 . S
C1147 C1148 1.355 . S
C1147 C1149 1.415 . S
C1148 C1147 1.355 . S
C1148 C1150 1.419 . S
C1149 C1144 1.425 1_554 S
C1149 C1146 1.409 1_554 S
C1149 C1147 1.415 . S
C1150 H1140 0.930 . S
C1150 C1148 1.419 . S
C1150 C1151 1.362 . S
C1151 H1141 0.930 . S
C1151 C1144 1.409 1_554 S
C1151 C1150 1.362 . S
H1152 C1158 0.930 . S
H1153 C1161 0.930 . S
H1154 C1162 0.930 . S
H1155 C1163 0.930 . S
H1156 C1166 0.930 . S
H1157 C1167 0.930 . S
C1158 H1152 0.930 . S
C1158 C1159 1.355 . S
C1158 C1160 1.415 . S
C1159 C1158 1.355 . S
C1159 C1161 1.419 . S
C1160 C1158 1.415 . S
C1160 C1165 1.425 . S
C1160 C1167 1.409 . S
C1161 H1153 0.930 . S
C1161 C1159 1.419 . S
C1161 C1162 1.362 . S
C1162 H1154 0.930 . S
C1162 C1161 1.362 . S
C1162 C1165 1.409 . S
C1163 H1155 0.930 . S
C1163 C1164 1.355 . S
C1163 C1165 1.415 . S
C1164 C1163 1.355 . S
C1164 C1166 1.419 . S
C1165 C1160 1.425 . S
C1165 C1162 1.409 . S
C1165 C1163 1.415 . S
C1166 H1156 0.930 . S
C1166 C1164 1.419 . S
C1166 C1167 1.362 . S
C1167 H1157 0.930 . S
C1167 C1160 1.409 . S
C1167 C1166 1.362 . S
H1168 C1174 0.930 . S
H1169 C1177 0.930 . S
H1170 C1178 0.930 . S
H1171 C1179 0.930 . S
H1172 C1182 0.930 . S
H1173 C1183 0.930 . S
C1174 H1168 0.930 . S
C1174 C1175 1.355 . S
C1174 C1176 1.415 . S
C1175 C1174 1.355 . S
C1175 C1177 1.419 . S
C1176 C1174 1.415 . S
C1176 C1181 1.425 . S
C1176 C1183 1.409 . S
C1177 H1169 0.930 . S
C1177 C1175 1.419 . S
C1177 C1178 1.362 . S
C1178 H1170 0.930 . S
C1178 C1177 1.362 . S
C1178 C1181 1.409 . S
C1179 H1171 0.930 . S
C1179 C1180 1.355 . S
C1179 C1181 1.415 1_554 S
C1180 C1179 1.355 . S
C1180 C1182 1.419 . S
C1181 C1176 1.425 . S
C1181 C1178 1.409 . S
C1181 C1179 1.415 1_556 S
C1182 H1172 0.930 . S
C1182 C1180 1.419 . S
C1182 C1183 1.362 1_554 S
C1183 H1173 0.930 . S
C1183 C1176 1.409 . S
C1183 C1182 1.362 1_556 S
H1184 C1190 0.930 . S
H1185 C1193 0.930 . S
H1186 C1194 0.930 . S
H1187 C1195 0.930 . S
H1188 C1198 0.930 . S
H1189 C1199 0.930 . S
C1190 H1184 0.930 . S
C1190 C1191 1.355 . S
C1190 C1192 1.415 . S
C1191 C1190 1.355 . S
C1191 C1193 1.419 . S
C1192 C1190 1.415 . S
C1192 C1197 1.425 . S
C1192 C1199 1.409 . S
C1193 H1185 0.930 . S
C1193 C1191 1.419 . S
C1193 C1194 1.362 . S
C1194 H1186 0.930 . S
C1194 C1193 1.362 . S
C1194 C1197 1.409 . S
C1195 H1187 0.930 . S
C1195 C1196 1.355 . S
C1195 C1197 1.415 . S
C1196 C1195 1.355 . S
C1196 C1198 1.419 . S
C1197 C1192 1.425 . S
C1197 C1194 1.409 . S
C1197 C1195 1.415 . S
C1198 H1188 0.930 . S
C1198 C1196 1.419 . S
C1198 C1199 1.362 . S
C1199 H1189 0.930 . S
C1199 C1192 1.409 . S
C1199 C1198 1.362 . S
H1200 C1206 0.930 . S
H1201 C1209 0.930 . S
H1202 C1210 0.930 . S
H1203 C1211 0.930 . S
H1204 C1214 0.930 . S
H1205 C1215 0.930 . S
C1206 H1200 0.930 . S
C1206 C1207 1.355 . S
C1206 C1208 1.415 . S
C1207 C1206 1.355 . S
C1207 C1209 1.419 . S
C1208 C1206 1.415 . S
C1208 C1213 1.432 . S
C1208 C1215 1.409 1_565 S
C1209 H1201 0.930 . S
C1209 C1207 1.419 . S
C1209 C1210 1.362 . S
C1210 H1202 0.930 . S
C1210 C1209 1.362 . S
C1210 C1213 1.420 . S
C1211 H1203 0.930 . S
C1211 C1212 1.355 . S
C1211 C1213 1.397 1_545 S
C1212 C1211 1.355 . S
C1212 C1214 1.419 . S
C1213 C1208 1.432 . S
C1213 C1210 1.420 . S
C1213 C1211 1.397 1_565 S
C1214 H1204 0.930 . S
C1214 C1212 1.419 . S
C1214 C1215 1.362 . S
C1215 H1205 0.930 . S
C1215 C1208 1.409 1_545 S
C1215 C1214 1.362 . S
H1216 C1222 0.930 . S
H1217 C1225 0.930 . S
H1218 C1226 0.930 . S
H1219 C1227 0.930 . S
H1220 C1230 0.930 . S
H1221 C1231 0.930 . S
C1222 H1216 0.930 . S
C1222 C1223 1.355 . S
C1222 C1224 1.415 . S
C1223 C1222 1.355 . S
C1223 C1225 1.419 . S
C1224 C1222 1.415 . S
C1224 C1229 1.425 . S
C1224 C1231 1.409 . S
C1225 H1217 0.930 . S
C1225 C1223 1.419 . S
C1225 C1226 1.362 . S
C1226 H1218 0.930 . S
C1226 C1225 1.362 . S
C1226 C1229 1.409 . S
C1227 H1219 0.930 . S
C1227 C1228 1.355 . S
C1227 C1229 1.415 . S
C1228 C1227 1.355 . S
C1228 C1230 1.419 . S
C1229 C1224 1.425 . S
C1229 C1226 1.409 . S
C1229 C1227 1.415 . S
C1230 H1220 0.930 . S
C1230 C1228 1.419 . S
C1230 C1231 1.362 . S
C1231 H1221 0.930 . S
C1231 C1224 1.409 . S
C1231 C1230 1.362 . S
H1232 C1238 0.930 . S
H1233 C1241 0.930 . S
H1234 C1242 0.930 . S
H1235 C1243 0.930 . S
H1236 C1246 0.930 . S
H1237 C1247 0.930 . S
C1238 H1232 0.930 . S
C1238 C1239 1.355 . S
C1238 C1240 1.415 . S
C1239 C1238 1.355 . S
C1239 C1241 1.419 . S
C1240 C1238 1.415 . S
C1240 C1245 1.425 1_545 S
C1240 C1247 1.409 1_545 S
C1241 H1233 0.930 . S
C1241 C1239 1.419 . S
C1241 C1242 1.362 . S
C1242 H1234 0.930 . S
C1242 C1241 1.362 . S
C1242 C1245 1.409 1_545 S
C1243 H1235 0.930 . S
C1243 C1244 1.355 . S
C1243 C1245 1.415 . S
C1244 C1243 1.355 . S
C1244 C1246 1.419 . S
C1245 C1240 1.425 1_565 S
C1245 C1242 1.409 1_565 S
C1245 C1243 1.415 . S
C1246 H1236 0.930 . S
C1246 C1244 1.419 . S
C1246 C1247 1.362 . S
C1247 H1237 0.930 . S
C1247 C1240 1.409 1_565 S
C1247 C1246 1.362 . S
H1248 C1254 0.930 . S
H1249 C1257 0.930 . S
H1250 C1258 0.930 . S
H1251 C1259 0.930 . S
H1252 C1262 0.930 . S
H1253 C1263 0.930 . S
C1254 H1248 0.930 . S
C1254 C1255 1.355 . S
C1254 C1256 1.415 . S
C1255 C1254 1.355 . S
C1255 C1257 1.419 . S
C1256 C1254 1.415 . S
C1256 C1261 1.425 . S
C1256 C1263 1.409 . S
C1257 H1249 0.930 . S
C1257 C1255 1.419 . S
C1257 C1258 1.362 . S
C1258 H1250 0.930 . S
C1258 C1257 1.362 . S
C1258 C1261 1.409 . S
C1259 H1251 0.930 . S
C1259 C1260 1.355 . S
C1259 C1261 1.415 . S
C1260 C1259 1.355 . S
C1260 C1262 1.419 . S
C1261 C1256 1.425 . S
C1261 C1258 1.409 . S
C1261 C1259 1.415 . S
C1262 H1252 0.930 . S
C1262 C1260 1.419 . S
C1262 C1263 1.362 . S
C1263 H1253 0.930 . S
C1263 C1256 1.409 . S
C1263 C1262 1.362 . S
H1264 C1270 0.930 . S
H1265 C1273 0.930 . S
H1266 C1274 0.930 . S
H1267 C1275 0.930 . S
H1268 C1278 0.930 . S
H1269 C1279 0.930 . S
C1270 H1264 0.930 . S
C1270 C1271 1.355 . S
C1270 C1272 1.415 1_565 S
C1271 C1270 1.355 . S
C1271 C1273 1.419 . S
C1272 C1270 1.415 1_545 S
C1272 C1277 1.425 . S
C1272 C1279 1.409 . S
C1273 H1265 0.930 . S
C1273 C1271 1.419 . S
C1273 C1274 1.362 1_565 S
C1274 H1266 0.930 . S
C1274 C1273 1.362 1_545 S
C1274 C1277 1.409 . S
C1275 H1267 0.930 . S
C1275 C1276 1.355 . S
C1275 C1277 1.415 . S
C1276 C1275 1.355 . S
C1276 C1278 1.419 . S
C1277 C1272 1.425 . S
C1277 C1274 1.409 . S
C1277 C1275 1.415 . S
C1278 H1268 0.930 . S
C1278 C1276 1.419 . S
C1278 C1279 1.362 . S
C1279 H1269 0.930 . S
C1279 C1272 1.409 . S
C1279 C1278 1.362 . S
H1280 C1286 0.930 . S
H1281 C1289 0.930 . S
H1282 C1290 0.930 . S
H1283 C1291 0.930 . S
H1284 C1294 0.930 . S
H1285 C1295 0.930 . S
C1286 H1280 0.930 . S
C1286 C1287 1.355 . S
C1286 C1288 1.415 . S
C1287 C1286 1.355 . S
C1287 C1289 1.419 . S
C1288 C1286 1.415 . S
C1288 C1293 1.425 . S
C1288 C1295 1.409 . S
C1289 H1281 0.930 . S
C1289 C1287 1.419 . S
C1289 C1290 1.362 . S
C1290 H1282 0.930 . S
C1290 C1289 1.362 . S
C1290 C1293 1.409 . S
C1291 H1283 0.930 . S
C1291 C1292 1.355 . S
C1291 C1293 1.415 . S
C1292 C1291 1.355 . S
C1292 C1294 1.419 . S
C1293 C1288 1.425 . S
C1293 C1290 1.409 . S
C1293 C1291 1.415 . S
C1294 H1284 0.930 . S
C1294 C1292 1.419 . S
C1294 C1295 1.362 . S
C1295 H1285 0.930 . S
C1295 C1288 1.409 . S
C1295 C1294 1.362 . S
H1296 C1302 0.930 . S
H1297 C1305 0.930 . S
H1298 C1306 0.930 . S
H1299 C1307 0.930 . S
H1300 C1310 0.930 . S
H1301 C1311 0.918 1_565 S
C1302 H1296 0.930 . S
C1302 C1303 1.355 . S
C1302 C1304 1.415 . S
C1303 C1302 1.355 . S
C1303 C1305 1.419 . S
C1304 C1302 1.415 . S
C1304 C1309 1.425 . S
C1304 C1311 1.379 1_565 S
C1305 H1297 0.930 . S
C1305 C1303 1.419 . S
C1305 C1306 1.362 . S
C1306 H1298 0.930 . S
C1306 C1305 1.362 . S
C1306 C1309 1.409 . S
C1307 H1299 0.930 . S
C1307 C1308 1.355 . S
C1307 C1309 1.415 1_545 S
C1308 C1307 1.355 . S
C1308 C1310 1.419 . S
C1309 C1304 1.425 . S
C1309 C1306 1.409 . S
C1309 C1307 1.415 1_565 S
C1310 H1300 0.930 . S
C1310 C1308 1.419 . S
C1310 C1311 1.406 . S
C1311 H1301 0.918 1_545 S
C1311 C1304 1.379 1_545 S
C1311 C1310 1.406 . S
H1312 C1318 0.930 . S
H1313 C1321 0.930 . S
H1314 C1322 0.930 . S
H1315 C1323 0.930 . S
H1316 C1326 0.930 . S
H1317 C1327 0.930 . S
C1318 H1312 0.930 . S
C1318 C1319 1.355 . S
C1318 C1320 1.415 . S
C1319 C1318 1.355 . S
C1319 C1321 1.419 . S
C1320 C1318 1.415 . S
C1320 C1325 1.425 . S
C1320 C1327 1.409 . S
C1321 H1313 0.930 . S
C1321 C1319 1.419 . S
C1321 C1322 1.362 . S
C1322 H1314 0.930 . S
C1322 C1321 1.362 . S
C1322 C1325 1.409 . S
C1323 H1315 0.930 . S
C1323 C1324 1.355 . S
C1323 C1325 1.415 . S
C1324 C1323 1.355 . S
C1324 C1326 1.419 . S
C1325 C1320 1.425 . S
C1325 C1322 1.409 . S
C1325 C1323 1.415 . S
C1326 H1316 0.930 . S
C1326 C1324 1.419 . S
C1326 C1327 1.362 . S
C1327 H1317 0.930 . S
C1327 C1320 1.409 . S
C1327 C1326 1.362 . S
H1328 C1334 0.930 . S
H1329 C1337 0.930 . S
H1330 C1338 0.930 . S
H1331 C1339 0.930 . S
H1332 C1342 0.930 . S
H1333 C1343 0.930 . S
C1334 H1328 0.930 . S
C1334 C1335 1.355 . S
C1334 C1336 1.415 . S
C1335 C1334 1.355 . S
C1335 C1337 1.419 . S
C1336 C1334 1.415 . S
C1336 C1341 1.425 . S
C1336 C1343 1.409 . S
C1337 H1329 0.930 . S
C1337 C1335 1.419 . S
C1337 C1338 1.362 . S
C1338 H1330 0.930 . S
C1338 C1337 1.362 . S
C1338 C1341 1.409 . S
C1339 H1331 0.930 . S
C1339 C1340 1.355 . S
C1339 C1341 1.415 . S
C1340 C1339 1.355 . S
C1340 C1342 1.419 . S
C1341 C1336 1.425 . S
C1341 C1338 1.409 . S
C1341 C1339 1.415 . S
C1342 H1332 0.930 . S
C1342 C1340 1.419 . S
C1342 C1343 1.362 . S
C1343 H1333 0.930 . S
C1343 C1336 1.409 . S
C1343 C1342 1.362 . S
H1344 C1350 0.930 . S
H1345 C1353 0.930 . S
H1346 C1354 0.930 . S
H1347 C1355 0.925 1_655 S
H1348 C1358 0.930 . S
H1349 C1359 0.930 . S
C1350 H1344 0.930 . S
C1350 C1351 1.355 . S
C1350 C1352 1.415 . S
C1351 C1350 1.355 . S
C1351 C1353 1.419 . S
C1352 C1350 1.415 . S
C1352 C1357 1.425 . S
C1352 C1359 1.409 . S
C1353 H1345 0.930 . S
C1353 C1351 1.419 . S
C1353 C1354 1.362 . S
C1354 H1346 0.930 . S
C1354 C1353 1.362 . S
C1354 C1357 1.409 . S
C1355 H1347 0.925 1_455 S
C1355 C1356 1.347 1_455 S
C1355 C1357 1.427 . S
C1356 C1355 1.347 1_655 S
C1356 C1358 1.419 . S
C1357 C1352 1.425 . S
C1357 C1354 1.409 . S
C1357 C1355 1.427 . S
C1358 H1348 0.930 . S
C1358 C1356 1.419 . S
C1358 C1359 1.362 1_655 S
C1359 H1349 0.930 . S
C1359 C1352 1.409 . S
C1359 C1358 1.362 1_455 S
H1360 C1366 0.930 . S
H1361 C1369 0.930 . S
H1362 C1370 0.930 . S
H1363 C1371 0.930 . S
H1364 C1374 0.930 . S
H1365 C1375 0.930 . S
C1366 H1360 0.930 . S
C1366 C1367 1.355 . S
C1366 C1368 1.415 . S
C1367 C1366 1.355 . S
C1367 C1369 1.419 . S
C1368 C1366 1.415 . S
C1368 C1373 1.425 . S
C1368 C1375 1.409 . S
C1369 H1361 0.930 . S
C1369 C1367 1.419 . S
C1369 C1370 1.362 . S
C1370 H1362 0.930 . S
C1370 C1369 1.362 . S
C1370 C1373 1.409 . S
C1371 H1363 0.930 . S
C1371 C1372 1.355 . S
C1371 C1373 1.415 . S
C1372 C1371 1.355 . S
C1372 C1374 1.419 . S
C1373 C1368 1.425 . S
C1373 C1370 1.409 . S
C1373 C1371 1.415 . S
C1374 H1364 0.930 . S
C1374 C1372 1.419 . S
C1374 C1375 1.362 . S
C1375 H1365 0.930 . S
C1375 C1368 1.409 . S
C1375 C1374 1.362 . S
H1376 C1382 0.930 1_455 S
H1377 C1385 0.930 . S
H1378 C1386 0.930 . S
H1379 C1387 0.930 . S
H1380 C1390 0.930 . S
H1381 C1391 0.930 . S
C1382 H1376 0.930 1_655 S
C1382 C1383 1.355 1_655 S
C1382 C1384 1.415 . S
C1383 C1382 1.355 1_455 S
C1383 C1385 1.419 . S
C1384 C1382 1.415 . S
C1384 C1389 1.425 . S
C1384 C1391 1.409 . S
C1385 H1377 0.930 . S
C1385 C1383 1.419 . S
C1385 C1386 1.362 1_455 S
C1386 H1378 0.930 . S
C1386 C1385 1.362 1_655 S
C1386 C1389 1.409 . S
C1387 H1379 0.930 . S
C1387 C1388 1.355 . S
C1387 C1389 1.415 . S
C1388 C1387 1.355 . S
C1388 C1390 1.419 . S
C1389 C1384 1.425 . S
C1389 C1386 1.409 . S
C1389 C1387 1.415 . S
C1390 H1380 0.930 . S
C1390 C1388 1.419 . S
C1390 C1391 1.362 . S
C1391 H1381 0.930 . S
C1391 C1384 1.409 . S
C1391 C1390 1.362 . S
H1392 C1398 0.930 . S
H1393 C1401 0.930 . S
H1394 C1402 0.930 . S
H1395 C1403 0.930 . S
H1396 C1406 0.930 . S
H1397 C1407 0.930 . S
C1398 H1392 0.930 . S
C1398 C1399 1.355 . S
C1398 C1400 1.415 . S
C1399 C1398 1.355 . S
C1399 C1401 1.419 . S
C1400 C1398 1.415 . S
C1400 C1405 1.425 . S
C1400 C1407 1.409 . S
C1401 H1393 0.930 . S
C1401 C1399 1.419 . S
C1401 C1402 1.362 . S
C1402 H1394 0.930 . S
C1402 C1401 1.362 . S
C1402 C1405 1.409 . S
C1403 H1395 0.930 . S
C1403 C1404 1.355 . S
C1403 C1405 1.415 . S
C1404 C1403 1.355 . S
C1404 C1406 1.419 . S
C1405 C1400 1.425 . S
C1405 C1402 1.409 . S
C1405 C1403 1.415 . S
C1406 H1396 0.930 . S
C1406 C1404 1.419 . S
C1406 C1407 1.362 . S
C1407 H1397 0.930 . S
C1407 C1400 1.409 . S
C1407 C1406 1.362 . S
H1408 C1414 0.930 . S
H1409 C1417 0.930 . S
H1410 C1418 0.930 . S
H1411 C1419 0.930 . S
H1412 C1422 0.930 . S
H1413 C1423 0.924 1_655 S
C1414 H1408 0.930 . S
C1414 C1415 1.355 . S
C1414 C1416 1.415 . S
C1415 C1414 1.355 . S
C1415 C1417 1.419 . S
C1416 C1414 1.415 . S
C1416 C1421 1.425 . S
C1416 C1423 1.400 1_655 S
C1417 H1409 0.930 . S
C1417 C1415 1.419 . S
C1417 C1418 1.362 . S
C1418 H1410 0.930 . S
C1418 C1417 1.362 . S
C1418 C1421 1.409 . S
C1419 H1411 0.930 . S
C1419 C1420 1.355 . S
C1419 C1421 1.415 1_455 S
C1420 C1419 1.355 . S
C1420 C1422 1.419 . S
C1421 C1416 1.425 . S
C1421 C1418 1.409 . S
C1421 C1419 1.415 1_655 S
C1422 H1412 0.930 . S
C1422 C1420 1.419 . S
C1422 C1423 1.377 . S
C1423 H1413 0.924 1_455 S
C1423 C1416 1.400 1_455 S
C1423 C1422 1.377 . S
H1424 C1430 0.930 . S
H1425 C1433 0.930 . S
H1426 C1434 0.930 . S
H1427 C1435 0.930 1_655 S
H1428 C1438 0.930 . S
H1429 C1439 0.930 . S
C1430 H1424 0.930 . S
C1430 C1431 1.355 . S
C1430 C1432 1.415 . S
C1431 C1430 1.355 . S
C1431 C1433 1.419 . S
C1432 C1430 1.415 . S
C1432 C1437 1.425 . S
C1432 C1439 1.409 . S
C1433 H1425 0.930 . S
C1433 C1431 1.419 . S
C1433 C1434 1.362 . S
C1434 H1426 0.930 . S
C1434 C1433 1.362 . S
C1434 C1437 1.409 . S
C1435 H1427 0.930 1_455 S
C1435 C1436 1.355 1_455 S
C1435 C1437 1.415 . S
C1436 C1435 1.355 1_655 S
C1436 C1438 1.419 . S
C1437 C1432 1.425 . S
C1437 C1434 1.409 . S
C1437 C1435 1.415 . S
C1438 H1428 0.930 . S
C1438 C1436 1.419 . S
C1438 C1439 1.362 1_655 S
C1439 H1429 0.930 . S
C1439 C1432 1.409 . S
C1439 C1438 1.362 1_455 S
H1440 C1446 0.930 . S
H1441 C1449 0.930 . S
H1442 C1450 0.930 . S
H1443 C1451 0.930 . S
H1444 C1454 0.930 . S
H1445 C1455 0.930 . S
C1446 H1440 0.930 . S
C1446 C1447 1.355 . S
C1446 C1448 1.415 . S
C1447 C1446 1.355 . S
C1447 C1449 1.419 . S
C1448 C1446 1.415 . S
C1448 C1453 1.425 . S
C1448 C1455 1.409 . S
C1449 H1441 0.930 . S
C1449 C1447 1.419 . S
C1449 C1450 1.362 . S
C1450 H1442 0.930 . S
C1450 C1449 1.362 . S
C1450 C1453 1.409 . S
C1451 H1443 0.930 . S
C1451 C1452 1.355 . S
C1451 C1453 1.415 1_455 S
C1452 C1451 1.355 . S
C1452 C1454 1.419 . S
C1453 C1448 1.425 . S
C1453 C1450 1.409 . S
C1453 C1451 1.415 1_655 S
C1454 H1444 0.930 . S
C1454 C1452 1.419 . S
C1454 C1455 1.362 1_455 S
C1455 H1445 0.930 . S
C1455 C1448 1.409 . S
C1455 C1454 1.362 1_655 S
H1456 C1462 0.930 . S
H1457 C1465 0.930 . S
H1458 C1466 0.930 . S
H1459 C1467 0.930 . S
H1460 C1470 0.930 . S
H1461 C1471 0.930 . S
C1462 H1456 0.930 . S
C1462 C1463 1.355 . S
C1462 C1464 1.415 . S
C1463 C1462 1.355 . S
C1463 C1465 1.419 . S
C1464 C1462 1.415 . S
C1464 C1469 1.425 . S
C1464 C1471 1.409 . S
C1465 H1457 0.930 . S
C1465 C1463 1.419 . S
C1465 C1466 1.362 . S
C1466 H1458 0.930 . S
C1466 C1465 1.362 . S
C1466 C1469 1.409 . S
C1467 H1459 0.930 . S
C1467 C1468 1.355 . S
C1467 C1469 1.415 . S
C1468 C1467 1.355 . S
C1468 C1470 1.419 . S
C1469 C1464 1.425 . S
C1469 C1466 1.409 . S
C1469 C1467 1.415 . S
C1470 H1460 0.930 . S
C1470 C1468 1.419 . S
C1470 C1471 1.362 . S
C1471 H1461 0.930 . S
C1471 C1464 1.409 . S
C1471 C1470 1.362 . S
H1472 C1478 0.930 . S
H1473 C1481 0.930 . S
H1474 C1482 0.930 . S
H1475 C1483 0.930 . S
H1476 C1486 0.930 . S
H1477 C1487 0.930 . S
C1478 H1472 0.930 . S
C1478 C1479 1.355 . S
C1478 C1480 1.415 . S
C1479 C1478 1.355 . S
C1479 C1481 1.419 . S
C1480 C1478 1.415 . S
C1480 C1485 1.425 . S
C1480 C1487 1.409 . S
C1481 H1473 0.930 . S
C1481 C1479 1.419 . S
C1481 C1482 1.362 . S
C1482 H1474 0.930 . S
C1482 C1481 1.362 . S
C1482 C1485 1.409 . S
C1483 H1475 0.930 . S
C1483 C1484 1.355 . S
C1483 C1485 1.415 1_655 S
C1484 C1483 1.355 . S
C1484 C1486 1.419 . S
C1485 C1480 1.425 . S
C1485 C1482 1.409 . S
C1485 C1483 1.415 1_455 S
C1486 H1476 0.930 . S
C1486 C1484 1.419 . S
C1486 C1487 1.362 1_655 S
C1487 H1477 0.930 . S
C1487 C1480 1.409 . S
C1487 C1486 1.362 1_455 S
H1488 C1494 0.930 . S
H1489 C1497 0.930 . S
H1490 C1498 0.930 . S
H1491 C1499 0.930 . S
H1492 C1502 0.930 . S
H1493 C1503 0.930 . S
C1494 H1488 0.930 . S
C1494 C1495 1.355 . S
C1494 C1496 1.415 . S
C1495 C1494 1.355 . S
C1495 C1497 1.419 . S
C1496 C1494 1.415 . S
C1496 C1501 1.425 . S
C1496 C1503 1.409 . S
C1497 H1489 0.930 . S
C1497 C1495 1.419 . S
C1497 C1498 1.362 . S
C1498 H1490 0.930 . S
C1498 C1497 1.362 . S
C1498 C1501 1.409 . S
C1499 H1491 0.930 . S
C1499 C1500 1.355 . S
C1499 C1501 1.415 . S
C1500 C1499 1.355 . S
C1500 C1502 1.419 . S
C1501 C1496 1.425 . S
C1501 C1498 1.409 . S
C1501 C1499 1.415 . S
C1502 H1492 0.930 . S
C1502 C1500 1.419 . S
C1502 C1503 1.362 . S
C1503 H1493 0.930 . S
C1503 C1496 1.409 . S
C1503 C1502 1.362 . S
H1504 C1510 0.930 . S
H1505 C1513 0.930 . S
H1506 C1514 0.930 . S
H1507 C1515 0.930 . S
H1508 C1518 0.930 . S
H1509 C1519 0.930 . S
C1510 H1504 0.930 . S
C1510 C1511 1.355 . S
C1510 C1512 1.415 1_655 S
C1511 C1510 1.355 . S
C1511 C1513 1.419 . S
C1512 C1510 1.415 1_455 S
C1512 C1517 1.425 . S
C1512 C1519 1.409 . S
C1513 H1505 0.930 . S
C1513 C1511 1.419 . S
C1513 C1514 1.362 1_655 S
C1514 H1506 0.930 . S
C1514 C1513 1.362 1_455 S
C1514 C1517 1.409 . S
C1515 H1507 0.930 . S
C1515 C1516 1.355 . S
C1515 C1517 1.415 . S
C1516 C1515 1.355 . S
C1516 C1518 1.419 . S
C1517 C1512 1.425 . S
C1517 C1514 1.409 . S
C1517 C1515 1.415 . S
C1518 H1508 0.930 . S
C1518 C1516 1.419 . S
C1518 C1519 1.362 . S
C1519 H1509 0.930 . S
C1519 C1512 1.409 . S
C1519 C1518 1.362 . S
H1520 C1526 0.930 . S
H1521 C1529 0.930 . S
H1522 C1530 0.930 . S
H1523 C1531 0.930 . S
H1524 C1534 0.930 . S
H1525 C1535 0.930 . S
C1526 H1520 0.930 . S
C1526 C1527 1.355 . S
C1526 C1528 1.415 . S
C1527 C1526 1.355 . S
C1527 C1529 1.419 . S
C1528 C1526 1.415 . S
C1528 C1533 1.425 . S
C1528 C1535 1.409 . S
C1529 H1521 0.930 . S
C1529 C1527 1.419 . S
C1529 C1530 1.362 . S
C1530 H1522 0.930 . S
C1530 C1529 1.362 . S
C1530 C1533 1.409 . S
C1531 H1523 0.930 . S
C1531 C1532 1.355 . S
C1531 C1533 1.415 . S
C1532 C1531 1.355 . S
C1532 C1534 1.419 . S
C1533 C1528 1.425 . S
C1533 C1530 1.409 . S
C1533 C1531 1.415 . S
C1534 H1524 0.930 . S
C1534 C1532 1.419 . S
C1534 C1535 1.362 . S
C1535 H1525 0.930 . S
C1535 C1528 1.409 . S
C1535 C1534 1.362 . S
H1536 C1542 0.930 . S
H1537 C1545 0.930 . S
H1538 C1546 0.930 . S
H1539 C1547 0.930 . S
H1540 C1550 0.930 . S
H1541 C1551 0.930 . S
C1542 H1536 0.930 . S
C1542 C1543 1.355 . S
C1542 C1544 1.415 . S
C1543 C1542 1.355 . S
C1543 C1545 1.419 . S
C1544 C1542 1.415 . S
C1544 C1549 1.425 . S
C1544 C1551 1.409 1_655 S
C1545 H1537 0.930 . S
C1545 C1543 1.419 . S
C1545 C1546 1.362 . S
C1546 H1538 0.930 . S
C1546 C1545 1.362 . S
C1546 C1549 1.409 . S
C1547 H1539 0.930 . S
C1547 C1548 1.355 . S
C1547 C1549 1.415 1_455 S
C1548 C1547 1.355 . S
C1548 C1550 1.419 . S
C1549 C1544 1.425 . S
C1549 C1546 1.409 . S
C1549 C1547 1.415 1_655 S
C1550 H1540 0.930 . S
C1550 C1548 1.419 . S
C1550 C1551 1.362 . S
C1551 H1541 0.930 . S
C1551 C1544 1.409 1_455 S
C1551 C1550 1.362 . S
H1552 C1558 0.930 . S
H1553 C1561 0.930 . S
H1554 C1562 0.930 . S
H1555 C1563 0.930 . S
H1556 C1566 0.930 . S
H1557 C1567 0.930 . S
C1558 H1552 0.930 . S
C1558 C1559 1.355 . S
C1558 C1560 1.415 . S
C1559 C1558 1.355 . S
C1559 C1561 1.419 . S
C1560 C1558 1.415 . S
C1560 C1565 1.425 . S
C1560 C1567 1.409 . S
C1561 H1553 0.930 . S
C1561 C1559 1.419 . S
C1561 C1562 1.362 . S
C1562 H1554 0.930 . S
C1562 C1561 1.362 . S
C1562 C1565 1.409 . S
C1563 H1555 0.930 . S
C1563 C1564 1.355 . S
C1563 C1565 1.415 . S
C1564 C1563 1.355 . S
C1564 C1566 1.419 . S
C1565 C1560 1.425 . S
C1565 C1562 1.409 . S
C1565 C1563 1.415 . S
C1566 H1556 0.930 . S
C1566 C1564 1.419 . S
C1566 C1567 1.362 . S
C1567 H1557 0.930 . S
C1567 C1560 1.409 . S
C1567 C1566 1.362 . S
H1568 C1574 0.930 . S
H1569 C1577 0.930 . S
H1570 C1578 0.930 . S
H1571 C1579 0.930 . S
H1572 C1582 0.930 . S
H1573 C1583 0.930 1_545 S
C1574 H1568 0.930 . S
C1574 C1575 1.355 . S
C1574 C1576 1.415 . S
C1575 C1574 1.355 . S
C1575 C1577 1.419 . S
C1576 C1574 1.415 . S
C1576 C1581 1.425 . S
C1576 C1583 1.409 1_545 S
C1577 H1569 0.930 . S
C1577 C1575 1.419 . S
C1577 C1578 1.362 . S
C1578 H1570 0.930 . S
C1578 C1577 1.362 . S
C1578 C1581 1.409 . S
C1579 H1571 0.930 . S
C1579 C1580 1.355 . S
C1579 C1581 1.415 1_565 S
C1580 C1579 1.355 . S
C1580 C1582 1.419 . S
C1581 C1576 1.425 . S
C1581 C1578 1.409 . S
C1581 C1579 1.415 1_545 S
C1582 H1572 0.930 . S
C1582 C1580 1.419 . S
C1582 C1583 1.362 . S
C1583 H1573 0.930 1_565 S
C1583 C1576 1.409 1_565 S
C1583 C1582 1.362 . S
H1584 C1590 0.930 . S
H1585 C1593 0.930 . S
H1586 C1594 0.930 . S
H1587 C1595 0.930 . S
H1588 C1598 0.930 . S
H1589 C1599 0.930 . S
C1590 H1584 0.930 . S
C1590 C1591 1.355 . S
C1590 C1592 1.415 . S
C1591 C1590 1.355 . S
C1591 C1593 1.419 . S
C1592 C1590 1.415 . S
C1592 C1597 1.425 . S
C1592 C1599 1.409 . S
C1593 H1585 0.930 . S
C1593 C1591 1.419 . S
C1593 C1594 1.362 . S
C1594 H1586 0.930 . S
C1594 C1593 1.362 . S
C1594 C1597 1.409 . S
C1595 H1587 0.930 . S
C1595 C1596 1.355 . S
C1595 C1597 1.415 . S
C1596 C1595 1.355 . S
C1596 C1598 1.419 . S
C1597 C1592 1.425 . S
C1597 C1594 1.409 . S
C1597 C1595 1.415 . S
C1598 H1588 0.930 . S
C1598 C1596 1.419 . S
C1598 C1599 1.362 . S
C1599 H1589 0.930 . S
C1599 C1592 1.409 . S
C1599 C1598 1.362 . S
H1600 C1606 0.930 . S
H1601 C1609 0.930 . S
H1602 C1610 0.930 1_565 S
H1603 C1611 0.930 . S
H1604 C1614 0.930 . S
H1605 C1615 0.930 . S
C1606 H1600 0.930 . S
C1606 C1607 1.355 . S
C1606 C1608 1.415 1_545 S
C1607 C1606 1.355 . S
C1607 C1609 1.419 . S
C1608 C1606 1.415 1_565 S
C1608 C1613 1.425 . S
C1608 C1615 1.409 . S
C1609 H1601 0.930 . S
C1609 C1607 1.419 . S
C1609 C1610 1.362 . S
C1610 H1602 0.930 1_545 S
C1610 C1609 1.362 . S
C1610 C1613 1.409 1_545 S
C1611 H1603 0.930 . S
C1611 C1612 1.355 . S
C1611 C1613 1.415 . S
C1612 C1611 1.355 . S
C1612 C1614 1.419 . S
C1613 C1608 1.425 . S
C1613 C1610 1.409 1_565 S
C1613 C1611 1.415 . S
C1614 H1604 0.930 . S
C1614 C1612 1.419 . S
C1614 C1615 1.362 . S
C1615 H1605 0.930 . S
C1615 C1608 1.409 . S
C1615 C1614 1.362 . S
H1616 C1622 0.930 . S
H1617 C1625 0.930 . S
H1618 C1626 0.930 . S
H1619 C1627 0.930 . S
H1620 C1630 0.930 . S
H1621 C1631 0.930 . S
C1622 H1616 0.930 . S
C1622 C1623 1.355 . S
C1622 C1624 1.415 . S
C1623 C1622 1.355 . S
C1623 C1625 1.419 . S
C1624 C1622 1.415 . S
C1624 C1629 1.425 . S
C1624 C1631 1.409 . S
C1625 H1617 0.930 . S
C1625 C1623 1.419 . S
C1625 C1626 1.362 . S
C1626 H1618 0.930 . S
C1626 C1625 1.362 . S
C1626 C1629 1.409 . S
C1627 H1619 0.930 . S
C1627 C1628 1.355 . S
C1627 C1629 1.415 . S
C1628 C1627 1.355 . S
C1628 C1630 1.419 . S
C1629 C1624 1.425 . S
C1629 C1626 1.409 . S
C1629 C1627 1.415 . S
C1630 H1620 0.930 . S
C1630 C1628 1.419 . S
C1630 C1631 1.362 . S
C1631 H1621 0.930 . S
C1631 C1624 1.409 . S
C1631 C1630 1.362 . S
H1632 C1638 0.930 . S
H1633 C1641 0.930 . S
H1634 C1642 0.930 . S
H1635 C1643 0.930 . S
H1636 C1646 0.930 . S
H1637 C1647 0.930 1_545 S
C1638 H1632 0.930 . S
C1638 C1639 1.355 . S
C1638 C1640 1.415 . S
C1639 C1638 1.355 . S
C1639 C1641 1.419 . S
C1640 C1638 1.415 . S
C1640 C1645 1.425 . S
C1640 C1647 1.409 1_545 S
C1641 H1633 0.930 . S
C1641 C1639 1.419 . S
C1641 C1642 1.362 . S
C1642 H1634 0.930 . S
C1642 C1641 1.362 . S
C1642 C1645 1.409 . S
C1643 H1635 0.930 . S
C1643 C1644 1.355 . S
C1643 C1645 1.415 1_565 S
C1644 C1643 1.355 . S
C1644 C1646 1.419 . S
C1645 C1640 1.425 . S
C1645 C1642 1.409 . S
C1645 C1643 1.415 1_545 S
C1646 H1636 0.930 . S
C1646 C1644 1.419 . S
C1646 C1647 1.362 . S
C1647 H1637 0.930 1_565 S
C1647 C1640 1.409 1_565 S
C1647 C1646 1.362 . S
H1648 C1654 0.930 . S
H1649 C1657 0.930 . S
H1650 C1658 0.930 . S
H1651 C1659 0.930 . S
H1652 C1662 0.930 . S
H1653 C1663 0.930 . S
C1654 H1648 0.930 . S
C1654 C1655 1.355 . S
C1654 C1656 1.415 . S
C1655 C1654 1.355 . S
C1655 C1657 1.419 . S
C1656 C1654 1.415 . S
C1656 C1661 1.425 . S
C1656 C1663 1.409 . S
C1657 H1649 0.930 . S
C1657 C1655 1.419 . S
C1657 C1658 1.362 . S
C1658 H1650 0.930 . S
C1658 C1657 1.362 . S
C1658 C1661 1.409 . S
C1659 H1651 0.930 . S
C1659 C1660 1.355 . S
C1659 C1661 1.415 . S
C1660 C1659 1.355 . S
C1660 C1662 1.419 . S
C1661 C1656 1.425 . S
C1661 C1658 1.409 . S
C1661 C1659 1.415 . S
C1662 H1652 0.930 . S
C1662 C1660 1.419 . S
C1662 C1663 1.362 . S
C1663 H1653 0.930 . S
C1663 C1656 1.409 . S
C1663 C1662 1.362 . S
H1664 C1670 0.930 . S
H1665 C1673 0.930 . S
H1666 C1674 0.930 . S
H1667 C1675 0.930 . S
H1668 C1678 0.930 . S
H1669 C1679 0.930 . S
C1670 H1664 0.930 . S
C1670 C1671 1.355 . S
C1670 C1672 1.415 1_545 S
C1671 C1670 1.355 . S
C1671 C1673 1.419 . S
C1672 C1670 1.415 1_565 S
C1672 C1677 1.425 . S
C1672 C1679 1.409 . S
C1673 H1665 0.930 . S
C1673 C1671 1.419 . S
C1673 C1674 1.362 1_545 S
C1674 H1666 0.930 . S
C1674 C1673 1.362 1_565 S
C1674 C1677 1.409 . S
C1675 H1667 0.930 . S
C1675 C1676 1.355 . S
C1675 C1677 1.415 . S
C1676 C1675 1.355 . S
C1676 C1678 1.419 . S
C1677 C1672 1.425 . S
C1677 C1674 1.409 . S
C1677 C1675 1.415 . S
C1678 H1668 0.930 . S
C1678 C1676 1.419 . S
C1678 C1679 1.362 . S
C1679 H1669 0.930 . S
C1679 C1672 1.409 . S
C1679 C1678 1.362 . S
H1680 C1686 0.930 . S
H1681 C1689 0.930 . S
H1682 C1690 0.930 . S
H1683 C1691 0.930 . S
H1684 C1694 0.930 . S
H1685 C1695 0.930 . S
C1686 H1680 0.930 . S
C1686 C1687 1.355 . S
C1686 C1688 1.415 . S
C1687 C1686 1.355 . S
C1687 C1689 1.419 . S
C1688 C1686 1.415 . S
C1688 C1693 1.425 . S
C1688 C1695 1.409 . S
C1689 H1681 0.930 . S
C1689 C1687 1.419 . S
C1689 C1690 1.362 . S
C1690 H1682 0.930 . S
C1690 C1689 1.362 . S
C1690 C1693 1.409 . S
C1691 H1683 0.930 . S
C1691 C1692 1.355 . S
C1691 C1693 1.415 . S
C1692 C1691 1.355 . S
C1692 C1694 1.419 . S
C1693 C1688 1.425 . S
C1693 C1690 1.409 . S
C1693 C1691 1.415 . S
C1694 H1684 0.930 . S
C1694 C1692 1.419 . S
C1694 C1695 1.362 . S
C1695 H1685 0.930 . S
C1695 C1688 1.409 . S
C1695 C1694 1.362 . S
H1696 C1702 0.930 . S
H1697 C1705 0.930 . S
H1698 C1706 0.930 . S
H1699 C1707 0.930 . S
H1700 C1710 0.930 . S
H1701 C1711 0.930 . S
C1702 H1696 0.930 . S
C1702 C1703 1.355 . S
C1702 C1704 1.415 . S
C1703 C1702 1.355 . S
C1703 C1705 1.419 . S
C1704 C1702 1.415 . S
C1704 C1709 1.425 . S
C1704 C1711 1.409 1_556 S
C1705 H1697 0.930 . S
C1705 C1703 1.419 . S
C1705 C1706 1.362 . S
C1706 H1698 0.930 . S
C1706 C1705 1.362 . S
C1706 C1709 1.410 . S
C1707 H1699 0.930 . S
C1707 C1708 1.355 . S
C1707 C1709 1.414 1_554 S
C1708 C1707 1.355 . S
C1708 C1710 1.419 . S
C1709 C1704 1.425 . S
C1709 C1706 1.410 . S
C1709 C1707 1.414 1_556 S
C1710 H1700 0.930 . S
C1710 C1708 1.419 . S
C1710 C1711 1.362 . S
C1711 H1701 0.930 . S
C1711 C1704 1.409 1_554 S
C1711 C1710 1.362 . S
H1712 C1718 0.930 . S
H1713 C1721 0.930 . S
H1714 C1722 0.930 . S
H1715 C1723 0.930 . S
H1716 C1726 0.930 . S
H1717 C1727 0.930 . S
C1718 H1712 0.930 . S
C1718 C1719 1.355 . S
C1718 C1720 1.415 . S
C1719 C1718 1.355 . S
C1719 C1721 1.419 . S
C1720 C1718 1.415 . S
C1720 C1725 1.425 1_556 S
C1720 C1727 1.409 1_556 S
C1721 H1713 0.930 . S
C1721 C1719 1.419 . S
C1721 C1722 1.362 . S
C1722 H1714 0.930 . S
C1722 C1721 1.362 . S
C1722 C1725 1.409 1_556 S
C1723 H1715 0.930 . S
C1723 C1724 1.355 . S
C1723 C1725 1.415 . S
C1724 C1723 1.355 . S
C1724 C1726 1.419 . S
C1725 C1720 1.425 1_554 S
C1725 C1722 1.409 1_554 S
C1725 C1723 1.415 . S
C1726 H1716 0.930 . S
C1726 C1724 1.419 . S
C1726 C1727 1.362 . S
C1727 H1717 0.930 . S
C1727 C1720 1.409 1_554 S
C1727 C1726 1.362 . S
H1728 C1734 0.930 . S
H1729 C1737 0.930 . S
H1730 C1738 0.930 . S
H1731 C1739 0.930 . S
H1732 C1742 0.930 . S
H1733 C1743 0.930 . S
C1734 H1728 0.930 . S
C1734 C1735 1.355 . S
C1734 C1736 1.415 . S
C1735 C1734 1.355 . S
C1735 C1737 1.419 . S
C1736 C1734 1.415 . S
C1736 C1741 1.425 . S
C1736 C1743 1.409 . S
C1737 H1729 0.930 . S
C1737 C1735 1.419 . S
C1737 C1738 1.362 . S
C1738 H1730 0.930 . S
C1738 C1737 1.362 . S
C1738 C1741 1.409 . S
C1739 H1731 0.930 . S
C1739 C1740 1.355 . S
C1739 C1741 1.415 . S
C1740 C1739 1.355 . S
C1740 C1742 1.419 . S
C1741 C1736 1.425 . S
C1741 C1738 1.409 . S
C1741 C1739 1.415 . S
C1742 H1732 0.930 . S
C1742 C1740 1.419 . S
C1742 C1743 1.362 . S
C1743 H1733 0.930 . S
C1743 C1736 1.409 . S
C1743 C1742 1.362 . S
H1744 C1750 0.930 . S
H1745 C1753 0.930 1_556 S
H1746 C1754 0.930 . S
H1747 C1755 0.930 . S
H1748 C1758 0.930 . S
H1749 C1759 0.930 . S
C1750 H1744 0.930 . S
C1750 C1751 1.355 1_554 S
C1750 C1752 1.415 . S
C1751 C1750 1.355 1_556 S
C1751 C1753 1.419 1_556 S
C1752 C1750 1.415 . S
C1752 C1757 1.425 . S
C1752 C1759 1.409 . S
C1753 H1745 0.930 1_554 S
C1753 C1751 1.419 1_554 S
C1753 C1754 1.362 . S
C1754 H1746 0.930 . S
C1754 C1753 1.362 . S
C1754 C1757 1.409 . S
C1755 H1747 0.930 . S
C1755 C1756 1.355 . S
C1755 C1757 1.415 . S
C1756 C1755 1.355 . S
C1756 C1758 1.419 . S
C1757 C1752 1.425 . S
C1757 C1754 1.409 . S
C1757 C1755 1.415 . S
C1758 H1748 0.930 . S
C1758 C1756 1.419 . S
C1758 C1759 1.362 . S
C1759 H1749 0.930 . S
C1759 C1752 1.409 . S
C1759 C1758 1.362 . S
H1760 C1766 0.930 . S
H1761 C1769 0.930 . S
H1762 C1770 0.930 . S
H1763 C1771 0.930 . S
H1764 C1774 0.930 . S
H1765 C1775 0.930 . S
C1766 H1760 0.930 . S
C1766 C1767 1.355 . S
C1766 C1768 1.415 . S
C1767 C1766 1.355 . S
C1767 C1769 1.419 . S
C1768 C1766 1.415 . S
C1768 C1773 1.425 . S
C1768 C1775 1.409 . S
C1769 H1761 0.930 . S
C1769 C1767 1.419 . S
C1769 C1770 1.362 . S
C1770 H1762 0.930 . S
C1770 C1769 1.362 . S
C1770 C1773 1.409 . S
C1771 H1763 0.930 . S
C1771 C1772 1.355 . S
C1771 C1773 1.415 . S
C1772 C1771 1.355 . S
C1772 C1774 1.419 . S
C1773 C1768 1.425 . S
C1773 C1770 1.409 . S
C1773 C1771 1.415 . S
C1774 H1764 0.930 . S
C1774 C1772 1.419 . S
C1774 C1775 1.362 . S
C1775 H1765 0.930 . S
C1775 C1768 1.409 . S
C1775 C1774 1.362 . S
H1776 C1782 0.930 . S
H1777 C1785 0.930 . S
H1778 C1786 0.930 . S
H1779 C1787 0.930 . S
H1780 C1790 0.930 . S
H1781 C1791 0.930 . S
C1782 H1776 0.930 . S
C1782 C1783 1.355 . S
C1782 C1784 1.415 . S
C1783 C1782 1.355 . S
C1783 C1785 1.419 . S
C1784 C1782 1.415 . S
C1784 C1789 1.425 1_556 S
C1784 C1791 1.409 1_556 S
C1785 H1777 0.930 . S
C1785 C1783 1.419 . S
C1785 C1786 1.362 . S
C1786 H1778 0.930 . S
C1786 C1785 1.362 . S
C1786 C1789 1.409 1_556 S
C1787 H1779 0.930 . S
C1787 C1788 1.355 . S
C1787 C1789 1.415 . S
C1788 C1787 1.355 . S
C1788 C1790 1.419 . S
C1789 C1784 1.425 1_554 S
C1789 C1786 1.409 1_554 S
C1789 C1787 1.415 . S
C1790 H1780 0.930 . S
C1790 C1788 1.419 . S
C1790 C1791 1.362 . S
C1791 H1781 0.930 . S
C1791 C1784 1.409 1_554 S
C1791 C1790 1.362 . S
H1792 C1798 0.930 . S
H1793 C1801 0.930 . S
H1794 C1802 0.930 . S
H1795 C1803 0.930 . S
H1796 C1806 0.930 . S
H1797 C1807 0.930 . S
C1798 H1792 0.930 . S
C1798 C1799 1.355 . S
C1798 C1800 1.415 . S
C1799 C1798 1.355 . S
C1799 C1801 1.419 . S
C1800 C1798 1.415 . S
C1800 C1805 1.425 . S
C1800 C1807 1.409 . S
C1801 H1793 0.930 . S
C1801 C1799 1.419 . S
C1801 C1802 1.362 . S
C1802 H1794 0.930 . S
C1802 C1801 1.362 . S
C1802 C1805 1.409 . S
C1803 H1795 0.930 . S
C1803 C1804 1.355 . S
C1803 C1805 1.415 . S
C1804 C1803 1.355 . S
C1804 C1806 1.419 . S
C1805 C1800 1.425 . S
C1805 C1802 1.409 . S
C1805 C1803 1.415 . S
C1806 H1796 0.930 . S
C1806 C1804 1.419 . S
C1806 C1807 1.362 . S
C1807 H1797 0.930 . S
C1807 C1800 1.409 . S
C1807 C1806 1.362 . S
H1808 C1814 0.930 . S
H1809 C1817 0.930 . S
H1810 C1818 0.930 . S
H1811 C1819 0.930 . S
H1812 C1822 0.930 . S
H1813 C1823 0.930 . S
C1814 H1808 0.930 . S
C1814 C1815 1.355 . S
C1814 C1816 1.415 . S
C1815 C1814 1.355 . S
C1815 C1817 1.419 . S
C1816 C1814 1.415 . S
C1816 C1821 1.425 . S
C1816 C1823 1.409 . S
C1817 H1809 0.930 . S
C1817 C1815 1.419 . S
C1817 C1818 1.362 . S
C1818 H1810 0.930 . S
C1818 C1817 1.362 . S
C1818 C1821 1.409 . S
C1819 H1811 0.930 . S
C1819 C1820 1.355 . S
C1819 C1821 1.415 . S
C1820 C1819 1.355 . S
C1820 C1822 1.419 . S
C1821 C1816 1.425 . S
C1821 C1818 1.409 . S
C1821 C1819 1.415 . S
C1822 H1812 0.930 . S
C1822 C1820 1.419 . S
C1822 C1823 1.362 . S
C1823 H1813 0.930 . S
C1823 C1816 1.409 . S
C1823 C1822 1.362 . S
H1824 C1830 0.930 . S
H1825 C1833 0.930 . S
H1826 C1834 0.930 . S
H1827 C1835 0.930 . S
H1828 C1838 0.930 . S
H1829 C1839 0.930 . S
C1830 H1824 0.930 . S
C1830 C1831 1.355 . S
C1830 C1832 1.415 . S
C1831 C1830 1.355 . S
C1831 C1833 1.419 . S
C1832 C1830 1.415 . S
C1832 C1837 1.425 . S
C1832 C1839 1.409 . S
C1833 H1825 0.930 . S
C1833 C1831 1.419 . S
C1833 C1834 1.362 . S
C1834 H1826 0.930 . S
C1834 C1833 1.362 . S
C1834 C1837 1.409 . S
C1835 H1827 0.930 . S
C1835 C1836 1.355 . S
C1835 C1837 1.415 . S
C1836 C1835 1.355 . S
C1836 C1838 1.419 . S
C1837 C1832 1.425 . S
C1837 C1834 1.409 . S
C1837 C1835 1.415 . S
C1838 H1828 0.930 . S
C1838 C1836 1.419 . S
C1838 C1839 1.362 . S
C1839 H1829 0.930 . S
C1839 C1832 1.409 . S
C1839 C1838 1.362 . S
H1840 C1846 0.930 . S
H1841 C1849 0.930 . S
H1842 C1850 0.930 . S
H1843 C1851 0.930 . S
H1844 C1854 0.930 . S
H1845 C1855 0.930 . S
C1846 H1840 0.930 . S
C1846 C1847 1.355 . S
C1846 C1848 1.415 . S
C1847 C1846 1.355 . S
C1847 C1849 1.419 . S
C1848 C1846 1.415 . S
C1848 C1853 1.425 . S
C1848 C1855 1.409 . S
C1849 H1841 0.930 . S
C1849 C1847 1.419 . S
C1849 C1850 1.362 . S
C1850 H1842 0.930 . S
C1850 C1849 1.362 . S
C1850 C1853 1.409 . S
C1851 H1843 0.930 . S
C1851 C1852 1.355 . S
C1851 C1853 1.415 . S
C1852 C1851 1.355 . S
C1852 C1854 1.419 . S
C1853 C1848 1.425 . S
C1853 C1850 1.409 . S
C1853 C1851 1.415 . S
C1854 H1844 0.930 . S
C1854 C1852 1.419 . S
C1854 C1855 1.362 . S
C1855 H1845 0.930 . S
C1855 C1848 1.409 . S
C1855 C1854 1.362 . S
H1856 C1862 0.930 . S
H1857 C1865 0.930 . S
H1858 C1866 0.930 . S
H1859 C1867 0.930 . S
H1860 C1870 0.930 . S
H1861 C1871 0.930 . S
C1862 H1856 0.930 . S
C1862 C1863 1.355 . S
C1862 C1864 1.415 . S
C1863 C1862 1.355 . S
C1863 C1865 1.419 . S
C1864 C1862 1.415 . S
C1864 C1869 1.425 . S
C1864 C1871 1.409 . S
C1865 H1857 0.930 . S
C1865 C1863 1.419 . S
C1865 C1866 1.362 . S
C1866 H1858 0.930 . S
C1866 C1865 1.362 . S
C1866 C1869 1.409 . S
C1867 H1859 0.930 . S
C1867 C1868 1.355 . S
C1867 C1869 1.415 . S
C1868 C1867 1.355 . S
C1868 C1870 1.419 . S
C1869 C1864 1.425 . S
C1869 C1866 1.409 . S
C1869 C1867 1.415 . S
C1870 H1860 0.930 . S
C1870 C1868 1.419 . S
C1870 C1871 1.362 . S
C1871 H1861 0.930 . S
C1871 C1864 1.409 . S
C1871 C1870 1.362 . S
H1872 C1878 0.930 . S
H1873 C1881 0.930 . S
H1874 C1882 0.930 . S
H1875 C1883 0.930 . S
H1876 C1886 0.930 . S
H1877 C1887 0.930 . S
C1878 H1872 0.930 . S
C1878 C1879 1.355 . S
C1878 C1880 1.415 . S
C1879 C1878 1.355 . S
C1879 C1881 1.419 . S
C1880 C1878 1.415 . S
C1880 C1885 1.425 . S
C1880 C1887 1.409 . S
C1881 H1873 0.930 . S
C1881 C1879 1.419 . S
C1881 C1882 1.362 . S
C1882 H1874 0.930 . S
C1882 C1881 1.362 . S
C1882 C1885 1.409 . S
C1883 H1875 0.930 . S
C1883 C1884 1.355 . S
C1883 C1885 1.415 . S
C1884 C1883 1.355 . S
C1884 C1886 1.419 . S
C1885 C1880 1.425 . S
C1885 C1882 1.409 . S
C1885 C1883 1.415 . S
C1886 H1876 0.930 . S
C1886 C1884 1.419 . S
C1886 C1887 1.362 . S
C1887 H1877 0.930 . S
C1887 C1880 1.409 . S
C1887 C1886 1.362 . S
H1888 C1894 0.930 . S
H1889 C1897 0.930 . S
H1890 C1898 0.930 . S
H1891 C1899 0.930 . S
H1892 C1902 0.930 . S
H1893 C1903 0.930 . S
C1894 H1888 0.930 . S
C1894 C1895 1.355 . S
C1894 C1896 1.415 . S
C1895 C1894 1.355 . S
C1895 C1897 1.419 . S
C1896 C1894 1.415 . S
C1896 C1901 1.425 . S
C1896 C1903 1.409 . S
C1897 H1889 0.930 . S
C1897 C1895 1.419 . S
C1897 C1898 1.362 . S
C1898 H1890 0.930 . S
C1898 C1897 1.362 . S
C1898 C1901 1.409 . S
C1899 H1891 0.930 . S
C1899 C1900 1.355 . S
C1899 C1901 1.415 . S
C1900 C1899 1.355 . S
C1900 C1902 1.419 . S
C1901 C1896 1.425 . S
C1901 C1898 1.409 . S
C1901 C1899 1.415 . S
C1902 H1892 0.930 . S
C1902 C1900 1.419 . S
C1902 C1903 1.362 . S
C1903 H1893 0.930 . S
C1903 C1896 1.409 . S
C1903 C1902 1.362 . S
H1904 C1910 0.930 . S
H1905 C1913 0.930 . S
H1906 C1914 0.930 . S
H1907 C1915 0.930 . S
H1908 C1918 0.930 . S
H1909 C1919 0.930 . S
C1910 H1904 0.930 . S
C1910 C1911 1.355 . S
C1910 C1912 1.415 . S
C1911 C1910 1.355 . S
C1911 C1913 1.419 . S
C1912 C1910 1.415 . S
C1912 C1917 1.425 . S
C1912 C1919 1.409 . S
C1913 H1905 0.930 . S
C1913 C1911 1.419 . S
C1913 C1914 1.362 . S
C1914 H1906 0.930 . S
C1914 C1913 1.362 . S
C1914 C1917 1.409 . S
C1915 H1907 0.930 . S
C1915 C1916 1.355 . S
C1915 C1917 1.415 . S
C1916 C1915 1.355 . S
C1916 C1918 1.419 . S
C1917 C1912 1.425 . S
C1917 C1914 1.409 . S
C1917 C1915 1.415 . S
C1918 H1908 0.930 . S
C1918 C1916 1.419 . S
C1918 C1919 1.362 . S
C1919 H1909 0.930 . S
C1919 C1912 1.409 . S
C1919 C1918 1.362 . S
H1920 C1926 0.930 . S
H1921 C1929 0.930 . S
H1922 C1930 0.930 . S
H1923 C1931 0.930 . S
H1924 C1934 0.930 . S
H1925 C1935 0.930 . S
C1926 H1920 0.930 . S
C1926 C1927 1.355 . S
C1926 C1928 1.415 . S
C1927 C1926 1.355 . S
C1927 C1929 1.419 . S
C1928 C1926 1.415 . S
C1928 C1933 1.425 . S
C1928 C1935 1.409 . S
C1929 H1921 0.930 . S
C1929 C1927 1.419 . S
C1929 C1930 1.362 . S
C1930 H1922 0.930 . S
C1930 C1929 1.362 . S
C1930 C1933 1.409 . S
C1931 H1923 0.930 . S
C1931 C1932 1.355 . S
C1931 C1933 1.415 . S
C1932 C1931 1.355 . S
C1932 C1934 1.419 . S
C1933 C1928 1.425 . S
C1933 C1930 1.409 . S
C1933 C1931 1.415 . S
C1934 H1924 0.930 . S
C1934 C1932 1.419 . S
C1934 C1935 1.362 . S
C1935 H1925 0.930 . S
C1935 C1928 1.409 . S
C1935 C1934 1.362 . S
H1936 C1942 0.930 . S
H1937 C1945 0.930 . S
H1938 C1946 0.930 . S
H1939 C1947 0.930 . S
H1940 C1950 0.930 . S
H1941 C1951 0.930 . S
C1942 H1936 0.930 . S
C1942 C1943 1.355 . S
C1942 C1944 1.415 . S
C1943 C1942 1.355 . S
C1943 C1945 1.419 . S
C1944 C1942 1.415 . S
C1944 C1949 1.425 . S
C1944 C1951 1.409 . S
C1945 H1937 0.930 . S
C1945 C1943 1.419 . S
C1945 C1946 1.362 . S
C1946 H1938 0.930 . S
C1946 C1945 1.362 . S
C1946 C1949 1.409 . S
C1947 H1939 0.930 . S
C1947 C1948 1.355 . S
C1947 C1949 1.415 . S
C1948 C1947 1.355 . S
C1948 C1950 1.419 . S
C1949 C1944 1.425 . S
C1949 C1946 1.409 . S
C1949 C1947 1.415 . S
C1950 H1940 0.930 . S
C1950 C1948 1.419 . S
C1950 C1951 1.362 . S
C1951 H1941 0.930 . S
C1951 C1944 1.409 . S
C1951 C1950 1.362 . S
H1952 C1958 0.930 . S
H1953 C1961 0.930 . S
H1954 C1962 0.930 . S
H1955 C1963 0.930 . S
H1956 C1966 0.930 . S
H1957 C1967 0.930 . S
C1958 H1952 0.930 . S
C1958 C1959 1.355 . S
C1958 C1960 1.415 . S
C1959 C1958 1.355 . S
C1959 C1961 1.419 . S
C1960 C1958 1.415 . S
C1960 C1965 1.425 . S
C1960 C1967 1.409 . S
C1961 H1953 0.930 . S
C1961 C1959 1.419 . S
C1961 C1962 1.362 . S
C1962 H1954 0.930 . S
C1962 C1961 1.362 . S
C1962 C1965 1.409 . S
C1963 H1955 0.930 . S
C1963 C1964 1.355 . S
C1963 C1965 1.415 . S
C1964 C1963 1.355 . S
C1964 C1966 1.419 . S
C1965 C1960 1.425 . S
C1965 C1962 1.409 . S
C1965 C1963 1.415 . S
C1966 H1956 0.930 . S
C1966 C1964 1.419 . S
C1966 C1967 1.362 . S
C1967 H1957 0.930 . S
C1967 C1960 1.409 . S
C1967 C1966 1.362 . S
H1968 C1974 0.930 . S
H1969 C1977 0.930 . S
H1970 C1978 0.930 . S
H1971 C1979 0.930 . S
H1972 C1982 0.930 . S
H1973 C1983 0.930 . S
C1974 H1968 0.930 . S
C1974 C1975 1.355 . S
C1974 C1976 1.415 . S
C1975 C1974 1.355 . S
C1975 C1977 1.419 . S
C1976 C1974 1.415 . S
C1976 C1981 1.425 . S
C1976 C1983 1.409 . S
C1977 H1969 0.930 . S
C1977 C1975 1.419 . S
C1977 C1978 1.362 . S
C1978 H1970 0.930 . S
C1978 C1977 1.362 . S
C1978 C1981 1.409 . S
C1979 H1971 0.930 . S
C1979 C1980 1.355 . S
C1979 C1981 1.415 . S
C1980 C1979 1.355 . S
C1980 C1982 1.419 . S
C1981 C1976 1.425 . S
C1981 C1978 1.409 . S
C1981 C1979 1.415 . S
C1982 H1972 0.930 . S
C1982 C1980 1.419 . S
C1982 C1983 1.362 . S
C1983 H1973 0.930 . S
C1983 C1976 1.409 . S
C1983 C1982 1.362 . S
H1984 C1990 0.930 . S
H1985 C1993 0.930 . S
H1986 C1994 0.930 . S
H1987 C1995 0.930 . S
H1988 C1998 0.930 . S
H1989 C1999 0.930 . S
C1990 H1984 0.930 . S
C1990 C1991 1.355 . S
C1990 C1992 1.415 . S
C1991 C1990 1.355 . S
C1991 C1993 1.419 . S
C1992 C1990 1.415 . S
C1992 C1997 1.425 . S
C1992 C1999 1.409 . S
C1993 H1985 0.930 . S
C1993 C1991 1.419 . S
C1993 C1994 1.362 . S
C1994 H1986 0.930 . S
C1994 C1993 1.362 . S
C1994 C1997 1.409 . S
C1995 H1987 0.930 . S
C1995 C1996 1.355 . S
C1995 C1997 1.415 . S
C1996 C1995 1.355 . S
C1996 C1998 1.419 . S
C1997 C1992 1.425 . S
C1997 C1994 1.409 . S
C1997 C1995 1.415 . S
C1998 H1988 0.930 . S
C1998 C1996 1.419 . S
C1998 C1999 1.362 . S
C1999 H1989 0.930 . S
C1999 C1992 1.409 . S
C1999 C1998 1.362 . S
H2000 C2006 0.930 . S
H2001 C2009 0.930 . S
H2002 C2010 0.930 . S
H2003 C2011 0.930 . S
H2004 C2014 0.930 . S
H2005 C2015 0.930 . S
C2006 H2000 0.930 . S
C2006 C2007 1.355 . S
C2006 C2008 1.415 . S
C2007 C2006 1.355 . S
C2007 C2009 1.419 . S
C2008 C2006 1.415 . S
C2008 C2013 1.425 . S
C2008 C2015 1.409 . S
C2009 H2001 0.930 . S
C2009 C2007 1.419 . S
C2009 C2010 1.362 . S
C2010 H2002 0.930 . S
C2010 C2009 1.362 . S
C2010 C2013 1.409 . S
C2011 H2003 0.930 . S
C2011 C2012 1.355 . S
C2011 C2013 1.415 . S
C2012 C2011 1.355 . S
C2012 C2014 1.419 . S
C2013 C2008 1.425 . S
C2013 C2010 1.409 . S
C2013 C2011 1.415 . S
C2014 H2004 0.930 . S
C2014 C2012 1.419 . S
C2014 C2015 1.362 . S
C2015 H2005 0.930 . S
C2015 C2008 1.409 . S
C2015 C2014 1.362 . S
H2016 C2022 0.930 . S
H2017 C2025 0.930 . S
H2018 C2026 0.930 . S
H2019 C2027 0.930 . S
H2020 C2030 0.930 . S
H2021 C2031 0.930 . S
C2022 H2016 0.930 . S
C2022 C2023 1.355 . S
C2022 C2024 1.415 . S
C2023 C2022 1.355 . S
C2023 C2025 1.419 . S
C2024 C2022 1.415 . S
C2024 C2029 1.425 . S
C2024 C2031 1.409 . S
C2025 H2017 0.930 . S
C2025 C2023 1.419 . S
C2025 C2026 1.362 . S
C2026 H2018 0.930 . S
C2026 C2025 1.362 . S
C2026 C2029 1.409 . S
C2027 H2019 0.930 . S
C2027 C2028 1.355 . S
C2027 C2029 1.415 . S
C2028 C2027 1.355 . S
C2028 C2030 1.419 . S
C2029 C2024 1.425 . S
C2029 C2026 1.409 . S
C2029 C2027 1.415 . S
C2030 H2020 0.930 . S
C2030 C2028 1.419 . S
C2030 C2031 1.362 . S
C2031 H2021 0.930 . S
C2031 C2024 1.409 . S
C2031 C2030 1.362 . S
H2032 C2038 0.930 . S
H2033 C2041 0.930 . S
H2034 C2042 0.930 . S
H2035 C2043 0.930 . S
H2036 C2046 0.930 . S
H2037 C2047 0.930 . S
C2038 H2032 0.930 . S
C2038 C2039 1.355 . S
C2038 C2040 1.415 . S
C2039 C2038 1.355 . S
C2039 C2041 1.419 . S
C2040 C2038 1.415 . S
C2040 C2045 1.425 . S
C2040 C2047 1.409 . S
C2041 H2033 0.930 . S
C2041 C2039 1.419 . S
C2041 C2042 1.362 . S
C2042 H2034 0.930 . S
C2042 C2041 1.362 . S
C2042 C2045 1.409 . S
C2043 H2035 0.930 . S
C2043 C2044 1.355 . S
C2043 C2045 1.415 . S
C2044 C2043 1.355 . S
C2044 C2046 1.419 . S
C2045 C2040 1.425 . S
C2045 C2042 1.409 . S
C2045 C2043 1.415 . S
C2046 H2036 0.930 . S
C2046 C2044 1.419 . S
C2046 C2047 1.362 . S
C2047 H2037 0.930 . S
C2047 C2040 1.409 . S
C2047 C2046 1.362 . S
H2048 C2054 0.930 . S
H2049 C2057 0.930 . S
H2050 C2058 0.930 . S
H2051 C2059 0.930 . S
H2052 C2062 0.930 . S
H2053 C2063 0.930 . S
C2054 H2048 0.930 . S
C2054 C2055 1.355 . S
C2054 C2056 1.415 . S
C2055 C2054 1.355 . S
C2055 C2057 1.419 . S
C2056 C2054 1.415 . S
C2056 C2061 1.425 . S
C2056 C2063 1.409 . S
C2057 H2049 0.930 . S
C2057 C2055 1.419 . S
C2057 C2058 1.362 . S
C2058 H2050 0.930 . S
C2058 C2057 1.362 . S
C2058 C2061 1.409 . S
C2059 H2051 0.930 . S
C2059 C2060 1.355 . S
C2059 C2061 1.415 . S
C2060 C2059 1.355 . S
C2060 C2062 1.419 . S
C2061 C2056 1.425 . S
C2061 C2058 1.409 . S
C2061 C2059 1.415 . S
C2062 H2052 0.930 . S
C2062 C2060 1.419 . S
C2062 C2063 1.362 . S
C2063 H2053 0.930 . S
C2063 C2056 1.409 . S
C2063 C2062 1.362 . S
H2064 C2070 0.930 . S
H2065 C2073 0.930 . S
H2066 C2074 0.930 . S
H2067 C2075 0.930 . S
H2068 C2078 0.930 . S
H2069 C2079 0.930 . S
C2070 H2064 0.930 . S
C2070 C2071 1.355 . S
C2070 C2072 1.415 . S
C2071 C2070 1.355 . S
C2071 C2073 1.419 . S
C2072 C2070 1.415 . S
C2072 C2077 1.425 . S
C2072 C2079 1.409 . S
C2073 H2065 0.930 . S
C2073 C2071 1.419 . S
C2073 C2074 1.362 . S
C2074 H2066 0.930 . S
C2074 C2073 1.362 . S
C2074 C2077 1.409 . S
C2075 H2067 0.930 . S
C2075 C2076 1.355 . S
C2075 C2077 1.415 . S
C2076 C2075 1.355 . S
C2076 C2078 1.419 . S
C2077 C2072 1.425 . S
C2077 C2074 1.409 . S
C2077 C2075 1.415 . S
C2078 H2068 0.930 . S
C2078 C2076 1.419 . S
C2078 C2079 1.362 . S
C2079 H2069 0.930 . S
C2079 C2072 1.409 . S
C2079 C2078 1.362 . S
H2080 C2086 0.930 . S
H2081 C2089 0.930 . S
H2082 C2090 0.930 . S
H2083 C2091 0.930 . S
H2084 C2094 0.930 . S
H2085 C2095 0.930 . S
C2086 H2080 0.930 . S
C2086 C2087 1.355 . S
C2086 C2088 1.415 . S
C2087 C2086 1.355 . S
C2087 C2089 1.419 . S
C2088 C2086 1.415 . S
C2088 C2093 1.425 . S
C2088 C2095 1.409 . S
C2089 H2081 0.930 . S
C2089 C2087 1.419 . S
C2089 C2090 1.362 . S
C2090 H2082 0.930 . S
C2090 C2089 1.362 . S
C2090 C2093 1.409 . S
C2091 H2083 0.930 . S
C2091 C2092 1.355 . S
C2091 C2093 1.415 . S
C2092 C2091 1.355 . S
C2092 C2094 1.419 . S
C2093 C2088 1.425 . S
C2093 C2090 1.409 . S
C2093 C2091 1.415 . S
C2094 H2084 0.930 . S
C2094 C2092 1.419 . S
C2094 C2095 1.362 . S
C2095 H2085 0.930 . S
C2095 C2088 1.409 . S
C2095 C2094 1.362 . S
H2096 C2102 0.930 . S
H2097 C2105 0.930 . S
H2098 C2106 0.930 . S
H2099 C2107 0.930 . S
H2100 C2110 0.930 . S
H2101 C2111 0.930 . S
C2102 H2096 0.930 . S
C2102 C2103 1.355 . S
C2102 C2104 1.415 . S
C2103 C2102 1.355 . S
C2103 C2105 1.419 . S
C2104 C2102 1.415 . S
C2104 C2109 1.425 . S
C2104 C2111 1.409 . S
C2105 H2097 0.930 . S
C2105 C2103 1.419 . S
C2105 C2106 1.362 . S
C2106 H2098 0.930 . S
C2106 C2105 1.362 . S
C2106 C2109 1.409 . S
C2107 H2099 0.930 . S
C2107 C2108 1.355 . S
C2107 C2109 1.415 . S
C2108 C2107 1.355 . S
C2108 C2110 1.419 . S
C2109 C2104 1.425 . S
C2109 C2106 1.409 . S
C2109 C2107 1.415 . S
C2110 H2100 0.930 . S
C2110 C2108 1.419 . S
C2110 C2111 1.362 . S
C2111 H2101 0.930 . S
C2111 C2104 1.409 . S
C2111 C2110 1.362 . S
H2112 C2118 0.930 . S
H2113 C2121 0.930 . S
H2114 C2122 0.930 . S
H2115 C2123 0.930 . S
H2116 C2126 0.930 . S
H2117 C2127 0.930 . S
C2118 H2112 0.930 . S
C2118 C2119 1.355 . S
C2118 C2120 1.415 . S
C2119 C2118 1.355 . S
C2119 C2121 1.419 . S
C2120 C2118 1.415 . S
C2120 C2125 1.425 . S
C2120 C2127 1.409 . S
C2121 H2113 0.930 . S
C2121 C2119 1.419 . S
C2121 C2122 1.362 . S
C2122 H2114 0.930 . S
C2122 C2121 1.362 . S
C2122 C2125 1.409 . S
C2123 H2115 0.930 . S
C2123 C2124 1.355 . S
C2123 C2125 1.415 . S
C2124 C2123 1.355 . S
C2124 C2126 1.419 . S
C2125 C2120 1.425 . S
C2125 C2122 1.409 . S
C2125 C2123 1.415 . S
C2126 H2116 0.930 . S
C2126 C2124 1.419 . S
C2126 C2127 1.362 . S
C2127 H2117 0.930 . S
C2127 C2120 1.409 . S
C2127 C2126 1.362 . S
H2128 C2134 0.930 . S
H2129 C2137 0.930 . S
H2130 C2138 0.930 . S
H2131 C2139 0.930 . S
H2132 C2142 0.930 . S
H2133 C2143 0.930 . S
C2134 H2128 0.930 . S
C2134 C2135 1.355 . S
C2134 C2136 1.415 . S
C2135 C2134 1.355 . S
C2135 C2137 1.419 . S
C2136 C2134 1.415 . S
C2136 C2141 1.425 . S
C2136 C2143 1.409 . S
C2137 H2129 0.930 . S
C2137 C2135 1.419 . S
C2137 C2138 1.362 . S
C2138 H2130 0.930 . S
C2138 C2137 1.362 . S
C2138 C2141 1.409 . S
C2139 H2131 0.930 . S
C2139 C2140 1.355 . S
C2139 C2141 1.415 . S
C2140 C2139 1.355 . S
C2140 C2142 1.419 . S
C2141 C2136 1.425 . S
C2141 C2138 1.409 . S
C2141 C2139 1.415 . S
C2142 H2132 0.930 . S
C2142 C2140 1.419 . S
C2142 C2143 1.362 . S
C2143 H2133 0.930 . S
C2143 C2136 1.409 . S
C2143 C2142 1.362 . S
H2144 C2150 0.930 . S
H2145 C2153 0.930 . S
H2146 C2154 0.930 . S
H2147 C2155 0.930 . S
H2148 C2158 0.930 . S
H2149 C2159 0.930 . S
C2150 H2144 0.930 . S
C2150 C2151 1.355 . S
C2150 C2152 1.415 . S
C2151 C2150 1.355 . S
C2151 C2153 1.419 . S
C2152 C2150 1.415 . S
C2152 C2157 1.425 . S
C2152 C2159 1.409 . S
C2153 H2145 0.930 . S
C2153 C2151 1.419 . S
C2153 C2154 1.362 . S
C2154 H2146 0.930 . S
C2154 C2153 1.362 . S
C2154 C2157 1.409 . S
C2155 H2147 0.930 . S
C2155 C2156 1.355 . S
C2155 C2157 1.415 . S
C2156 C2155 1.355 . S
C2156 C2158 1.419 . S
C2157 C2152 1.425 . S
C2157 C2154 1.409 . S
C2157 C2155 1.415 . S
C2158 H2148 0.930 . S
C2158 C2156 1.419 . S
C2158 C2159 1.362 . S
C2159 H2149 0.930 . S
C2159 C2152 1.409 . S
C2159 C2158 1.362 . S
H2160 C2166 0.930 . S
H2161 C2169 0.930 . S
H2162 C2170 0.930 . S
H2163 C2171 0.930 . S
H2164 C2174 0.930 . S
H2165 C2175 0.930 . S
C2166 H2160 0.930 . S
C2166 C2167 1.355 . S
C2166 C2168 1.415 . S
C2167 C2166 1.355 . S
C2167 C2169 1.419 . S
C2168 C2166 1.415 . S
C2168 C2173 1.425 . S
C2168 C2175 1.409 . S
C2169 H2161 0.930 . S
C2169 C2167 1.419 . S
C2169 C2170 1.362 . S
C2170 H2162 0.930 . S
C2170 C2169 1.362 . S
C2170 C2173 1.409 . S
C2171 H2163 0.930 . S
C2171 C2172 1.355 . S
C2171 C2173 1.415 . S
C2172 C2171 1.355 . S
C2172 C2174 1.419 . S
C2173 C2168 1.425 . S
C2173 C2170 1.409 . S
C2173 C2171 1.415 . S
C2174 H2164 0.930 . S
C2174 C2172 1.419 . S
C2174 C2175 1.362 . S
C2175 H2165 0.930 . S
C2175 C2168 1.409 . S
C2175 C2174 1.362 . S
H2176 C2182 0.930 . S
H2177 C2185 0.930 . S
H2178 C2186 0.930 . S
H2179 C2187 0.930 . S
H2180 C2190 0.930 . S
H2181 C2191 0.930 . S
C2182 H2176 0.930 . S
C2182 C2183 1.355 . S
C2182 C2184 1.415 . S
C2183 C2182 1.355 . S
C2183 C2185 1.419 . S
C2184 C2182 1.415 . S
C2184 C2189 1.425 . S
C2184 C2191 1.409 . S
C2185 H2177 0.930 . S
C2185 C2183 1.419 . S
C2185 C2186 1.362 . S
C2186 H2178 0.930 . S
C2186 C2185 1.362 . S
C2186 C2189 1.409 . S
C2187 H2179 0.930 . S
C2187 C2188 1.355 . S
C2187 C2189 1.415 . S
C2188 C2187 1.355 . S
C2188 C2190 1.419 . S
C2189 C2184 1.425 . S
C2189 C2186 1.409 . S
C2189 C2187 1.415 . S
C2190 H2180 0.930 . S
C2190 C2188 1.419 . S
C2190 C2191 1.362 . S
C2191 H2181 0.930 . S
C2191 C2184 1.409 . S
C2191 C2190 1.362 . S
H2192 C2198 0.930 . S
H2193 C2201 0.930 . S
H2194 C2202 0.930 . S
H2195 C2203 0.930 . S
H2196 C2206 0.930 . S
H2197 C2207 0.930 . S
C2198 H2192 0.930 . S
C2198 C2199 1.355 . S
C2198 C2200 1.415 . S
C2199 C2198 1.355 . S
C2199 C2201 1.419 . S
C2200 C2198 1.415 . S
C2200 C2205 1.425 . S
C2200 C2207 1.409 . S
C2201 H2193 0.930 . S
C2201 C2199 1.419 . S
C2201 C2202 1.362 . S
C2202 H2194 0.930 . S
C2202 C2201 1.362 . S
C2202 C2205 1.409 . S
C2203 H2195 0.930 . S
C2203 C2204 1.355 . S
C2203 C2205 1.415 . S
C2204 C2203 1.355 . S
C2204 C2206 1.419 . S
C2205 C2200 1.425 . S
C2205 C2202 1.409 . S
C2205 C2203 1.415 . S
C2206 H2196 0.930 . S
C2206 C2204 1.419 . S
C2206 C2207 1.362 . S
C2207 H2197 0.930 . S
C2207 C2200 1.409 . S
C2207 C2206 1.362 . S
C679 C286 1.547 . S
C684 C6 1.572 . S
C695 C23 1.839 . S
C700 C247 1.867 . S
C711 C34 1.648 . S
C716 C260 1.828 . S
C727 C275 1.822 . S
C732 C51 1.822 . S
C743 C328 1.575 . S
C748 C65 1.733 . S
C759 C77 1.756 . S
C764 C303 1.846 . S
C775 C93 1.726 . S
C780 C314 1.594 . S
C791 C105 1.640 . S
C796 C231 1.638 . S
C807 C118 1.664 . S
C812 C216 1.598 . S
C823 C135 1.847 . S
C828 C176 1.870 . S
C839 C146 1.480 . S
C844 C188 1.527 . S
C855 C204 1.850 . S
C860 C163 1.826 . S
C871 C345 1.898 . S
C876 C624 1.888 . S
C887 C583 1.665 . S
C892 C357 1.511 . S
C903 C373 1.817 . S
C908 C594 1.709 . S
C919 C611 1.733 . S
C924 C385 1.588 . S
C935 C398 1.364 . S
C940 C664 1.349 . S
C951 C637 1.589 . S
C956 C415 1.757 . S
C967 C426 1.293 . S
C972 C650 1.241 . S
C983 C569 1.852 . S
C988 C443 1.857 . S
C999 C456 1.742 . S
C1004 C555 1.742 . S
C1015 C510 1.485 . S
C1020 C468 1.476 . S
C1031 C527 1.624 . S
C1036 C484 1.621 . S
C1047 C538 1.523 . S
C1052 C496 1.562 . S
C1063 C370 1.151 . S
C1068 C9 1.273 . S
C1079 C20 1.123 . S
C1084 C386 1.165 . S
C1095 C37 1.235 . S
C1100 C342 1.120 . S
C1111 C48 1.061 . S
C1116 C358 1.195 . S
C1127 C62 1.229 . S
C1132 C429 1.346 . S
C1143 C440 1.200 . S
C1148 C78 1.230 . S
C1159 C401 1.339 . S
C1164 C90 1.268 . S
C1175 C412 1.171 . S
C1180 C106 1.248 . S
C1191 C513 1.433 . S
C1196 C121 1.423 . S
C1207 C132 1.028 . S
C1212 C524 0.973 . S
C1223 C541 1.376 . S
C1228 C149 1.400 . S
C1239 C160 1.064 . S
C1244 C552 0.949 . S
C1255 C175 1.120 . S
C1260 C455 1.150 . S
C1271 C191 1.253 . S
C1276 C471 1.239 . S
C1287 C483 1.172 . S
C1292 C203 1.075 . S
C1303 C499 1.285 . S
C1308 C219 1.281 . S
C1319 C232 1.308 . S
C1324 C608 1.213 . S
C1335 C244 1.073 . S
C1340 C638 1.221 . S
C1351 C653 1.216 . S
C1356 C259 1.168 . S
C1367 C566 1.101 . S
C1372 C272 1.020 . S
C1383 C289 1.293 . S
C1388 C667 1.285 . S
C1399 C580 1.209 . S
C1404 C300 1.128 . S
C1415 C317 1.372 . S
C1420 C597 1.369 . S
C1431 C331 1.255 . S
C1436 C623 1.248 . S
C1447 C399 1.857 . S
C1452 C8 1.769 . S
C1463 C414 1.757 . S
C1468 C21 1.855 . S
C1479 C427 1.962 . S
C1484 C36 1.899 . S
C1495 C49 1.888 . S
C1500 C442 1.770 . S
C1511 C344 1.795 . S
C1516 C63 1.834 . S
C1527 C356 1.992 . S
C1532 C79 1.923 . S
C1543 C91 1.816 . S
C1548 C372 1.771 . S
C1559 C384 1.894 . S
C1564 C107 1.781 . S
C1575 C120 1.839 . S
C1580 C539 1.882 . S
C1591 C133 1.926 . S
C1596 C554 1.807 . S
C1607 C511 1.877 . S
C1612 C148 1.827 . S
C1623 C161 1.934 . S
C1628 C526 1.842 . S
C1639 C485 1.877 . S
C1644 C174 1.940 . S
C1655 C190 1.789 . S
C1660 C497 1.820 . S
C1671 C202 1.929 . S
C1676 C457 1.826 . S
C1687 C218 1.766 . S
C1692 C469 1.854 . S
C1703 C636 1.888 . S
C1708 C233 1.827 . S
C1719 C245 1.897 . S
C1724 C610 1.797 . S
C1735 C258 1.789 . S
C1740 C625 1.735 . S
C1751 C273 1.868 . S
C1756 C582 1.805 . S
C1767 C595 1.833 . S
C1772 C288 1.800 . S
C1783 C568 1.822 . S
C1788 C301 1.869 . S
C1799 C665 1.945 . S
C1804 C316 1.845 . S
C1815 C330 1.873 . S
C1820 C651 1.914 . S
C1831 C217 1.702 . S
C1836 C7 1.710 . S
C1847 C22 1.464 . S
C1852 C177 1.462 . S
C1863 C189 1.692 . S
C1868 C35 1.682 . S
C1879 C205 1.441 . S
C1884 C50 1.469 . S
C1895 C134 1.309 . S
C1900 C64 1.350 . S
C1911 C76 1.688 . S
C1916 C147 1.717 . S
C1927 C92 1.440 . S
C1932 C162 1.423 . S
C1943 C119 1.726 . S
C1948 C104 1.716 . S
C1959 C230 1.644 . S
C1964 C287 1.650 . S
C1975 C329 1.641 . S
C1980 C246 1.473 . S
C1991 C302 1.384 . S
C1996 C261 1.437 . S
C2007 C274 1.422 . S
C2012 C315 1.608 . S
C2023 C553 1.608 . S
C2028 C343 1.609 . S
C2039 C512 1.314 . S
C2044 C359 1.348 . S
C2055 C371 1.649 . S
C2060 C525 1.633 . S
C2071 C540 1.307 . S
C2076 C387 1.303 . S
C2087 C470 1.457 . S
C2092 C400 1.428 . S
C2103 C413 1.703 . S
C2108 C482 1.701 . S
C2119 C428 1.364 . S
C2124 C498 1.422 . S
C2135 C441 1.587 . S
C2140 C454 1.582 . S
C2151 C567 1.616 . S
C2156 C622 1.620 . S
C2167 C666 1.473 . S
C2172 C581 1.636 . S
C2183 C639 1.268 . S
C2188 C596 1.241 . S
C2199 C652 1.511 . S
C2204 C609 1.678 . S
