# Generated by pormake.
# Topology smu, (6)-cn, num edge types: 1
# Building blocks:
#     Node 0, Type 0, BuildingBlock: JUFBIX_clean_sbu_0, # of connection points: 6
#     Node 1, Type 0, BuildingBlock: JUFBIX_clean_sbu_0, # of connection points: 6
#     Node 2, Type 0, BuildingBlock: JUFBIX_clean_sbu_0, # of connection points: 6
#     Node 3, Type 0, BuildingBlock: JUFBIX_clean_sbu_0, # of connection points: 6
#     Node 4, Type 0, BuildingBlock: JUFBIX_clean_sbu_0, # of connection points: 6
#     Node 5, Type 0, BuildingBlock: JUFBIX_clean_sbu_0, # of connection points: 6
#     Edge 6, Type (0, 0), BuildingBlock: EZIPEK_clean_linker_0, # of connection points: 2
#     Edge 7, Type (0, 0), BuildingBlock: EZIPEK_clean_linker_0, # of connection points: 2
#     Edge 8, Type (0, 0), BuildingBlock: EZIPEK_clean_linker_0, # of connection points: 2
#     Edge 9, Type (0, 0), BuildingBlock: EZIPEK_clean_linker_0, # of connection points: 2
#     Edge 10, Type (0, 0), BuildingBlock: EZIPEK_clean_linker_0, # of connection points: 2
#     Edge 11, Type (0, 0), BuildingBlock: EZIPEK_clean_linker_0, # of connection points: 2
#     Edge 12, Type (0, 0), BuildingBlock: EZIPEK_clean_linker_0, # of connection points: 2
#     Edge 13, Type (0, 0), BuildingBlock: EZIPEK_clean_linker_0, # of connection points: 2
#     Edge 14, Type (0, 0), BuildingBlock: EZIPEK_clean_linker_0, # of connection points: 2
#     Edge 15, Type (0, 0), BuildingBlock: EZIPEK_clean_linker_0, # of connection points: 2
#     Edge 16, Type (0, 0), BuildingBlock: EZIPEK_clean_linker_0, # of connection points: 2
#     Edge 17, Type (0, 0), BuildingBlock: EZIPEK_clean_linker_0, # of connection points: 2
#     Edge 18, Type (0, 0), BuildingBlock: EZIPEK_clean_linker_0, # of connection points: 2
#     Edge 19, Type (0, 0), BuildingBlock: EZIPEK_clean_linker_0, # of connection points: 2
#     Edge 20, Type (0, 0), BuildingBlock: EZIPEK_clean_linker_0, # of connection points: 2
#     Edge 21, Type (0, 0), BuildingBlock: EZIPEK_clean_linker_0, # of connection points: 2
#     Edge 22, Type (0, 0), BuildingBlock: EZIPEK_clean_linker_0, # of connection points: 2
#     Edge 23, Type (0, 0), BuildingBlock: EZIPEK_clean_linker_0, # of connection points: 2
# Relax obj value: 0.442
# Max RMSD: 0.310
# Mean RMSD: 0.309
data_MOF--net-smu--node1-JUFBIX_clean_sbu_0--edge1-EZIPEK_clean_linker_0
_symmetry_space_group_name_H-M    P1
_symmetry_Int_Tables_number       1
_symmetry_cell_setting            triclinic
loop_
_symmetry_equiv_pos_as_xyz
'x, y, z'
_cell_length_a     23.764514
_cell_length_b     23.751707
_cell_length_c     20.782253
_cell_angle_alpha  91.878687
_cell_angle_beta   89.589495
_cell_angle_gamma 119.65063
loop_
_atom_site_label
_atom_site_type_symbol
_atom_site_fract_x
_atom_site_fract_y
_atom_site_fract_z
_atom_type_partial_charge
Co0 Co 0.32127 0.03149 0.26143 0.0
C1 C 0.36804 0.08333 0.14269 0.0
Co2 Co 0.38661 0.13615 0.26497 0.0
C3 C 0.20684 0.92397 0.21817 0.0
C4 C 0.25695 0.89088 0.27739 0.0
N5 N 0.26497 0.94312 0.24605 0.0
N6 N 0.16095 0.86525 0.23614 0.0
C7 C 0.19283 0.84249 0.2709 0.0
H8 H 0.19551 0.9562 0.19275 0.0
H9 H 0.29203 0.89126 0.31054 0.0
C10 C 0.33699 0.06634 0.38317 0.0
N11 N 0.42937 0.22818 0.28033 0.0
C12 C 0.47631 0.28381 0.25427 0.0
C13 C 0.40254 0.25007 0.32536 0.0
N14 N 0.47802 0.33764 0.28183 0.0
C15 C 0.43147 0.3158 0.32609 0.0
C16 C 0.25791 0.10173 0.25531 0.0
O17 O 0.31561 1.01778 0.34573 0.0
O18 O 0.36558 0.12298 0.35943 0.0
O19 O 0.31547 0.14451 0.24791 0.0
O20 O 0.24579 0.04484 0.26705 0.0
O21 O 0.40536 0.13846 0.17141 0.0
H22 H 0.36169 0.22014 0.35478 0.0
H23 H 0.5073 0.28491 0.21535 0.0
O24 O 0.32404 0.03964 0.17457 0.0
O25 O 0.40303 1.02584 0.25999 0.0
O26 O 0.45957 0.13176 0.27997 0.0
C27 C 0.4579 0.07804 0.27057 0.0
H28 H 0.16966 0.79872 0.29815 0.0
H29 H 0.41939 0.34579 0.35707 0.0
Co30 Co 0.78712 0.65577 0.25354 0.0
C31 C 0.76312 0.69123 0.13095 0.0
Co32 Co 0.75621 0.72952 0.25417 0.0
C33 C 0.86884 0.59781 0.27497 0.0
C34 C 0.78355 0.53432 0.21998 0.0
N35 N 0.81295 0.5924 0.25176 0.0
N36 N 0.87525 0.54569 0.25865 0.0
C37 C 0.8216 0.50561 0.22419 0.0
H38 H 0.90519 0.63992 0.30176 0.0
H39 H 0.73839 0.51503 0.19349 0.0
C40 C 0.77536 0.70342 0.37743 0.0
N41 N 0.73795 0.79679 0.25738 0.0
C42 C 0.77796 0.85398 0.23071 0.0
C43 C 0.70812 0.81142 0.30534 0.0
N44 N 0.77822 0.90382 0.26322 0.0
C45 C 0.73357 0.87771 0.30947 0.0
C46 C 0.65369 0.60237 0.25904 0.0
O47 O 0.7908 0.66297 0.3513 0.0
O48 O 0.75986 0.7345 0.34101 0.0
O49 O 0.66375 0.6608 0.25826 0.0
O50 O 0.70139 0.59265 0.25722 0.0
O51 O 0.75078 0.72724 0.1669 0.0
H52 H 0.67708 0.77764 0.34062 0.0
H53 H 0.81288 0.86015 0.19392 0.0
O54 O 0.78077 0.65361 0.1566 0.0
O55 O 0.87243 0.71576 0.24944 0.0
O56 O 0.85006 0.7942 0.2512 0.0
C57 C 0.89158 0.7751 0.24875 0.0
H58 H 0.81153 0.45955 0.20223 0.0
H59 H 0.72429 0.90492 0.34674 0.0
Co60 Co 1.03055 0.30969 0.26582 0.0
C61 C 0.96518 0.29455 0.15401 0.0
Co62 Co 0.92845 0.28286 0.28355 0.0
C63 C 0.13538 0.29104 0.27545 0.0
C64 C 0.15182 0.35236 0.19634 0.0
N65 N 0.11525 0.32939 0.24945 0.0
N66 N 0.17883 0.28488 0.23906 0.0
C67 C 0.19117 0.32478 0.1898 0.0
H68 H 0.111 0.25939 0.31479 0.0
H69 H 0.14364 0.37903 0.15982 0.0
C70 C 1.01069 0.30962 0.39455 0.0
N71 N 0.8385 0.2469 0.30491 0.0
C72 C 0.78168 0.2327 0.27498 0.0
C73 C 0.81848 0.20812 0.35608 0.0
N74 N 0.72859 0.18617 0.30583 0.0
C75 C 0.75301 0.17071 0.35587 0.0
C76 C 0.94562 0.17644 0.26554 0.0
O77 O 0.04827 0.31018 0.35185 0.0
O78 O 0.9536 0.29659 0.37725 0.0
O79 O 0.90943 0.19805 0.28312 0.0
O80 O 1.00449 0.21678 0.25436 0.0
O81 O 0.91344 0.27618 0.18773 0.0
H82 H 0.84955 0.2011 0.38809 0.0
H83 H 0.77936 0.25292 0.22981 0.0
O84 O 1.01801 0.31157 0.18171 0.0
O85 O 0.04994 0.40154 0.27488 0.0
O86 O 0.94443 0.3659 0.2839 0.0
C87 C 1.002 0.41262 0.28068 0.0
H88 H 0.22012 0.32747 0.14833 0.0
H89 H 0.7251 0.13299 0.38938 0.0
Co90 Co 0.15195 0.39352 0.78784 0.0
C91 C 0.07177 0.3465 0.90201 0.0
Co92 Co 0.04992 0.31858 0.77752 0.0
C93 C 0.29901 0.48044 0.77265 0.0
C94 C 0.26559 0.43383 0.86201 0.0
N95 N 0.24348 0.44526 0.8068 0.0
N96 N 0.3532 0.4902 0.8052 0.0
C97 C 0.33107 0.46001 0.86077 0.0
H98 H 0.2995 0.4956 0.724 0.0
H99 H 0.23632 0.40349 0.89995 0.0
C100 C 0.109 0.36 0.66057 0.0
N101 N 0.96444 0.2547 0.75898 0.0
C102 C 0.95236 0.19764 0.7308 0.0
C103 C 0.90868 0.24136 0.78855 0.0
N104 N 0.89413 0.14822 0.7457 0.0
C105 C 0.8653 0.17567 0.78056 0.0
C106 C 0.08323 0.45365 0.77633 0.0
O107 O 0.15991 0.40379 0.69117 0.0
O108 O 0.06633 0.31547 0.69253 0.0
O109 O 1.03628 0.3952 0.76526 0.0
O110 O 0.13835 0.46275 0.793 0.0
O111 O 1.02806 0.31774 0.86059 0.0
H112 H 0.90317 0.27457 0.82136 0.0
H113 H 0.98898 0.19025 0.70752 0.0
O114 O 0.13083 0.37931 0.88337 0.0
O115 O 0.1699 0.32641 0.78179 0.0
O116 O 0.07069 0.24936 0.79175 0.0
C117 C 0.13057 0.26745 0.78784 0.0
H118 H 0.36064 0.45629 0.89799 0.0
H119 H 0.82011 0.14903 0.80588 0.0
Co120 Co 0.3001 0.91469 0.75874 0.0
C121 C 0.32892 0.98096 0.88047 0.0
Co122 Co 0.3247 1.01728 0.76015 0.0
C123 C 0.21564 0.7723 0.74464 0.0
C124 C 0.30725 0.80031 0.78886 0.0
N125 N 0.27369 0.82518 0.76061 0.0
N126 N 0.2122 0.71622 0.76219 0.0
C127 C 0.26983 0.73379 0.78974 0.0
H128 H 0.17574 0.77484 0.7229 0.0
H129 H 0.35503 0.8289 0.81011 0.0
C130 C 0.3103 0.97018 0.63824 0.0
N131 N 0.34356 0.1032 0.76242 0.0
C132 C 0.30471 0.12064 0.79465 0.0
C133 C 0.37428 0.14983 0.71917 0.0
N134 N 0.30633 0.1731 0.77064 0.0
C135 C 0.35078 0.19265 0.7237 0.0
C136 C 0.4298 0.99028 0.74943 0.0
O137 O 0.29288 0.91435 0.66212 0.0
O138 O 0.32239 1.01733 0.67532 0.0
O139 O 0.41907 0.03851 0.75685 0.0
O140 O 0.38266 0.93356 0.74871 0.0
O141 O 0.32749 1.02204 0.84574 0.0
H142 H 0.40487 0.14821 0.68138 0.0
H143 H 0.26884 0.09029 0.82899 0.0
O144 O 0.31522 0.92565 0.8544 0.0
O145 O 0.21421 0.89149 0.76856 0.0
O146 O 0.2324 0.99031 0.76133 0.0
C147 C 0.19273 0.93017 0.76604 0.0
H148 H 0.28313 0.70084 0.81075 0.0
H149 H 0.36016 0.23053 0.69062 0.0
Co150 Co 0.68082 0.77821 0.75796 0.0
C151 C 0.7299 0.7636 0.87871 0.0
Co152 Co 0.75072 0.74244 0.7531 0.0
C153 C 0.62312 0.86184 0.74359 0.0
C154 C 0.56933 0.7834 0.80631 0.0
N155 N 0.62055 0.80765 0.76646 0.0
N156 N 0.57561 0.87191 0.76772 0.0
C157 C 0.54155 0.82245 0.80688 0.0
H158 H 0.65949 0.89379 0.71052 0.0
H159 H 0.55414 0.74092 0.83464 0.0
C160 C 0.70969 0.75103 0.63242 0.0
N161 N 0.81637 0.72136 0.74743 0.0
C162 C 0.87466 0.76137 0.775 0.0
C163 C 0.82837 0.68674 0.70205 0.0
N164 N 0.92283 0.75593 0.7471 0.0
C165 C 0.89424 0.70828 0.70156 0.0
C166 C 0.62083 0.6436 0.76048 0.0
O167 O 0.67667 0.77423 0.66082 0.0
O168 O 0.74289 0.73497 0.66594 0.0
O169 O 0.67828 0.65057 0.76004 0.0
O170 O 0.61468 0.69339 0.75841 0.0
O171 O 0.76092 0.7477 0.84023 0.0
H172 H 0.79343 0.65432 0.66638 0.0
H173 H 0.88339 0.80033 0.80892 0.0
O174 O 0.68953 0.77884 0.85487 0.0
O175 O 0.74377 0.86314 0.75751 0.0
O176 O 0.81811 0.8355 0.74665 0.0
C177 C 0.80219 0.87947 0.75087 0.0
H178 H 0.49954 0.81521 0.83399 0.0
H179 H 0.91972 0.69497 0.6663 0.0
C180 C 0.33212 0.96476 1.00131 0.0
C181 C 0.35221 1.00516 0.94816 0.0
C182 C 0.39378 0.10168 0.02248 0.0
C183 C 0.37533 0.06131 0.07579 0.0
N184 N 0.35207 0.9537 0.10964 0.0
N185 N 0.43075 0.11315 0.91329 0.0
C186 C 0.35294 0.99326 0.06345 0.0
C187 C 0.39209 0.07402 0.96029 0.0
N188 N 0.29372 0.89911 0.99419 0.0
N189 N 0.41034 0.16538 0.02949 0.0
H190 H 0.4363 0.09511 0.86891 0.0
H191 H 0.46375 0.1622 0.92168 0.0
H192 H 0.41192 0.18802 0.07367 0.0
H193 H 0.41722 0.19422 0.99016 0.0
H194 H 0.27795 0.86908 0.03365 0.0
H195 H 0.27474 0.87488 0.95034 0.0
H196 H 0.37275 0.9699 0.15514 0.0
H197 H 0.37275 0.9699 0.15514 0.0
C198 C 0.69733 0.67554 0.54112 0.0
C199 C 0.71297 0.7394 0.56147 0.0
C200 C 0.7845 0.78079 0.46806 0.0
C201 C 0.76925 0.7162 0.44821 0.0
N202 N 0.72735 0.60616 0.47914 0.0
N203 N 0.76255 0.85176 0.5389 0.0
C204 C 0.73041 0.66469 0.48869 0.0
C205 C 0.75418 0.7918 0.52321 0.0
N206 N 0.64824 0.62481 0.57126 0.0
N207 N 0.83054 0.83191 0.43516 0.0
H208 H 0.73959 0.85973 0.57829 0.0
H209 H 0.78721 0.89212 0.51073 0.0
H210 H 0.85535 0.82572 0.39657 0.0
H211 H 0.84831 0.88034 0.4487 0.0
H212 H 0.62965 0.5766 0.55594 0.0
H213 H 0.62143 0.63267 0.60683 0.0
H214 H 0.70479 0.56847 0.51097 0.0
H215 H 0.75321 0.59768 0.44314 0.0
C216 C 0.99248 0.25487 0.05303 0.0
C217 C 0.97097 0.29581 0.08272 0.0
C218 C 1.03169 0.37732 1.00164 0.0
C219 C 0.04935 0.33453 0.96993 0.0
N220 N 1.03039 0.2249 0.95711 0.0
N221 N 0.95921 0.38996 0.07687 0.0
C222 C 1.02455 0.27095 0.99299 0.0
C223 C 0.98672 0.35491 0.05369 0.0
N224 N 0.98683 0.20272 0.08445 0.0
N225 N 0.05895 0.4398 0.98268 0.0
H226 H 0.92669 0.37411 0.11504 0.0
H227 H 0.96383 0.43075 0.05479 0.0
H228 H 0.09302 0.4574 0.94596 0.0
H229 H 0.05249 0.47521 1.00694 0.0
H230 H 1.00926 0.17649 0.06917 0.0
H231 H 0.96451 0.189 0.12872 0.0
H232 H 1.00636 0.17598 0.96803 0.0
H233 H 0.05496 0.23439 0.91373 0.0
C234 C 0.38552 0.07434 0.49233 0.0
C235 C 0.33007 0.0521 0.45279 0.0
C236 C 0.26675 0.96419 0.52763 0.0
C237 C 0.32101 0.98782 0.56919 0.0
N238 N 0.42968 0.07591 0.59632 0.0
N239 N 0.21416 0.98811 0.44217 0.0
C240 C 0.37981 0.0457 0.55278 0.0
C241 C 0.26963 1.0006 0.4734 0.0
N242 N 0.44437 0.1219 0.47194 0.0
N243 N 0.21201 0.90722 0.54002 0.0
H244 H 0.21425 1.01239 0.4013 0.0
H245 H 0.16828 0.95877 0.46079 0.0
H246 H 0.208 0.87966 0.57958 0.0
H247 H 0.17293 0.88447 0.50802 0.0
H248 H 0.48806 0.13422 0.49463 0.0
H249 H 0.45082 0.14723 0.43016 0.0
H250 H 0.46838 0.12264 0.59144 0.0
H251 H 0.43052 0.05748 0.64049 0.0
C252 C 0.80248 0.76657 0.96852 0.0
C253 C 0.74022 0.75632 0.94903 0.0
C254 C 0.69271 0.68676 0.04114 0.0
C255 C 0.75413 0.69648 0.06058 0.0
N256 N 0.86617 0.73748 0.03774 0.0
N257 N 0.63269 0.72736 0.98327 0.0
C258 C 0.80874 0.73414 0.02263 0.0
C259 C 0.68712 0.72248 0.99014 0.0
N260 N 0.85621 0.81099 0.9373 0.0
N261 N 0.63905 0.6408 0.07072 0.0
H262 H 0.62869 0.75657 0.94942 0.0
H263 H 0.59471 0.70847 1.01588 0.0
H264 H 0.64297 0.61154 0.10472 0.0
H265 H 0.59196 0.62675 0.05602 0.0
H266 H 0.90354 0.82517 0.95084 0.0
H267 H 0.85342 0.83868 0.90098 0.0
H268 H 0.90731 0.75906 1.00938 0.0
H269 H 0.87088 0.71336 0.07662 0.0
C270 C 0.99705 0.29919 0.51483 0.0
C271 C 1.03719 0.32805 0.46222 0.0
C272 C 0.13069 0.3832 0.53864 0.0
C273 C 0.08807 0.3598 0.5915 0.0
N274 N 0.97338 0.3179 0.61992 0.0
N275 N 0.14113 0.41589 0.4281 0.0
C276 C 1.01958 0.32528 0.57682 0.0
C277 C 0.10396 0.37544 0.47503 0.0
N278 N 0.9368 0.24659 0.50693 0.0
N279 N 0.19594 0.41122 0.54781 0.0
H280 H 0.1226 0.41745 0.38336 0.0
H281 H 0.18805 0.45385 0.43679 0.0
H282 H 0.21728 0.41787 0.59303 0.0
H283 H 0.22815 0.42291 0.50966 0.0
H284 H 0.90612 0.22531 0.54576 0.0
H285 H 0.9216 0.21996 0.46366 0.0
H286 H 0.98296 0.34186 0.6646 0.0
H287 H 0.98296 0.34186 0.6646 0.0
C288 C 0.56309 0.09701 0.22145 0.0
C289 C 0.52175 0.08094 0.27571 0.0
C290 C 0.61637 0.14256 0.3451 0.0
C291 C 0.65914 0.15482 0.29245 0.0
N292 N 0.67029 0.12538 0.18256 0.0
N293 N 0.51217 0.06834 0.38959 0.0
C294 C 0.63182 0.12665 0.23091 0.0
C295 C 0.54984 0.09633 0.33762 0.0
N296 N 0.53699 0.08583 0.16105 0.0
N297 N 0.6384 0.17809 0.40139 0.0
H298 H 0.46292 0.0345 0.38451 0.0
H299 H 0.53163 0.07369 0.43569 0.0
H300 H 0.68525 0.21735 0.40656 0.0
H301 H 0.60783 0.17359 0.43954 0.0
H302 H 0.56497 0.10285 0.11987 0.0
H303 H 0.48707 0.06218 0.15311 0.0
H304 H 0.65178 0.10086 0.13856 0.0
H305 H 0.71966 0.14274 0.18887 0.0
C306 C 0.54763 0.50785 0.22048 0.0
C307 C 0.59038 0.5436 0.27197 0.0
C308 C 0.56118 0.44308 0.3262 0.0
C309 C 0.52115 0.40614 0.27339 0.0
N310 N 0.46644 0.40223 0.17525 0.0
N311 N 0.61518 0.54717 0.38348 0.0
C312 C 0.51138 0.43832 0.22171 0.0
C313 C 0.58929 0.51143 0.32809 0.0
N314 N 0.54076 0.5412 0.17202 0.0
N315 N 0.5738 0.41249 0.37381 0.0
H316 H 0.63488 0.59746 0.38497 0.0
H317 H 0.60966 0.52638 0.4281 0.0
H318 H 0.5554 0.36242 0.37252 0.0
H319 H 0.60715 0.43721 0.41091 0.0
H320 H 0.51436 0.52002 0.12985 0.0
H321 H 0.56119 0.59152 0.17612 0.0
H322 H 0.45398 0.42166 0.13743 0.0
H323 H 0.44011 0.35172 0.17561 0.0
C324 C 1.00804 0.50623 0.22513 0.0
C325 C 1.00784 0.47787 0.28388 0.0
C326 C 0.93837 0.51689 0.33227 0.0
C327 C 0.92952 0.53544 0.27065 0.0
N328 N 0.96597 0.56284 0.16239 0.0
N329 N 0.99478 0.47651 0.39787 0.0
C330 C 0.96872 0.53591 0.21848 0.0
C331 C 0.98128 0.49163 0.33928 0.0
N332 N 0.04377 0.50176 0.17561 0.0
N333 N 0.90187 0.51863 0.3825 0.0
H334 H 1.02549 0.45701 0.40213 0.0
H335 H 0.98035 0.48772 0.44155 0.0
H336 H 0.86992 0.5365 0.37834 0.0
H337 H 0.90102 0.50007 0.42737 0.0
H338 H 0.0467 0.52026 0.13032 0.0
H339 H 0.07274 0.48054 0.18143 0.0
H340 H 0.99182 0.56453 0.12126 0.0
H341 H 0.93852 0.58587 0.15804 0.0
C342 C 0.10783 0.54312 0.70317 0.0
C343 C 0.08118 0.51397 0.76243 0.0
C344 C 0.1202 0.62236 0.81289 0.0
C345 C 0.158 0.65055 0.75762 0.0
N346 N 0.18464 0.64018 0.64811 0.0
N347 N 0.04737 0.52333 0.86862 0.0
C348 C 0.14948 0.61165 0.70148 0.0
C349 C 0.08182 0.55323 0.81543 0.0
N350 N 0.09427 0.50426 0.6492 0.0
N351 N 0.12333 0.6622 0.86326 0.0
H352 H 1.01764 0.47301 0.8687 0.0
H353 H 0.04661 0.54721 0.91115 0.0
H354 H 0.15086 0.71258 0.86121 0.0
H355 H 0.09757 0.64635 0.90569 0.0
H356 H 0.10901 0.52111 0.60311 0.0
H357 H 0.0626 0.45457 0.65072 0.0
H358 H 0.18633 0.61467 0.60718 0.0
H359 H 0.21437 0.69028 0.6459 0.0
C360 C 0.4957 0.95373 0.68683 0.0
C361 C 0.49363 0.99288 0.73941 0.0
C362 C 0.56922 0.97039 0.79918 0.0
C363 C 0.5596 0.92147 0.75236 0.0
N364 N 0.51597 0.8672 0.65053 0.0
N365 N 0.53796 0.04851 0.84019 0.0
C366 C 0.52541 0.91501 0.69482 0.0
C367 C 0.53488 1.00555 0.79333 0.0
N368 N 0.46478 0.95008 0.63052 0.0
N369 N 0.61045 0.9818 0.84954 0.0
H370 H 0.51685 0.07729 0.83343 0.0
H371 H 0.56152 0.05643 0.8843 0.0
H372 H 0.63564 0.95639 0.85361 0.0
H373 H 0.62268 1.01817 0.8848 0.0
H374 H 0.47021 0.92917 0.58784 0.0
H375 H 0.43643 0.97164 0.62561 0.0
H376 H 0.48452 0.85355 0.61124 0.0
H377 H 0.53703 0.83807 0.65491 0.0
C378 C 0.46532 0.56933 0.83797 0.0
C379 C 0.42211 0.52544 0.7902 0.0
C380 C 0.51773 0.53996 0.72829 0.0
C381 C 0.55952 0.58336 0.77714 0.0
N382 N 0.57044 0.61334 0.88887 0.0
N383 N 0.40801 0.45715 0.69641 0.0
C384 C 0.53199 0.58863 0.83557 0.0
C385 C 0.44849 0.50718 0.73686 0.0
N386 N 0.44304 0.59503 0.8845 0.0
N387 N 0.54478 0.52929 0.67472 0.0
H388 H 0.35801 0.43181 0.70255 0.0
H389 H 0.42411 0.43799 0.65963 0.0
H390 H 0.59459 0.54659 0.67288 0.0
H391 H 0.51863 0.50404 0.63353 0.0
H392 H 0.47367 0.631 0.91767 0.0
H393 H 0.39528 0.58574 0.88499 0.0
H394 H 0.5514 0.61154 0.93458 0.0
H395 H 0.61955 0.6272 0.88738 0.0
C396 C 0.22049 0.16801 0.31221 0.0
C397 C 0.21097 0.12507 0.25942 0.0
C398 C 0.16605 0.17961 0.19716 0.0
C399 C 0.19079 0.23133 0.24424 0.0
N400 N 0.24505 0.27635 0.34572 0.0
N401 N 0.17335 0.08806 0.15121 0.0
C402 C 0.21825 0.22549 0.30203 0.0
C403 C 0.18229 0.12966 0.20196 0.0
N404 N 0.2345 0.15475 0.37138 0.0
N405 N 0.12519 0.17676 0.14976 0.0
H406 H 0.18239 0.04952 0.15518 0.0
H407 H 0.15974 0.09355 0.10531 0.0
H408 H 0.10942 0.21046 0.14697 0.0
H409 H 0.10169 0.13735 0.11748 0.0
H410 H 0.23721 0.18142 0.41321 0.0
H411 H 0.23792 0.11337 0.37865 0.0
H412 H 0.27134 0.27731 0.38604 0.0
H413 H 0.24612 0.32011 0.33835 0.0
C414 C 0.9975 0.8212 0.3055 0.0
C415 C 0.96249 0.81811 0.24929 0.0
C416 C 0.05792 0.84299 0.18405 0.0
C417 C 0.09348 0.84812 0.24068 0.0
N418 N 0.10235 0.86677 0.35626 0.0
N419 N 0.96337 0.84157 0.13785 0.0
C420 C 0.06496 0.8447 0.3018 0.0
C421 C 0.99442 0.83479 0.18946 0.0
N422 N 0.96587 0.79877 0.36211 0.0
N423 N 0.08393 0.84326 0.12522 0.0
H424 H 0.91701 0.83592 0.14156 0.0
H425 H 0.98556 0.85855 0.09383 0.0
H426 H 0.12948 0.84726 0.12012 0.0
H427 H 0.05842 0.83403 0.08204 0.0
H428 H 0.98771 0.79233 0.40239 0.0
H429 H 0.91652 0.78186 0.36713 0.0
H430 H 0.08387 0.86952 0.40113 0.0
H431 H 0.15263 0.88989 0.35559 0.0
C432 C 0.93155 0.06547 0.28471 0.0
C433 C 0.91321 0.10526 0.25156 0.0
C434 C 0.80759 1.01023 0.22332 0.0
C435 C 0.82521 0.97109 0.25721 0.0
N436 N 0.90567 0.95639 0.31185 0.0
N437 N 0.84009 0.11257 0.17573 0.0
C438 C 0.88815 0.99715 0.2848 0.0
C439 C 0.85329 0.07646 0.21637 0.0
N440 N 0.98817 0.09325 0.31931 0.0
N441 N 0.74581 0.98407 0.19969 0.0
H442 H 0.87093 0.16158 0.17011 0.0
H443 H 0.80137 0.0931 0.14326 0.0
H444 H 0.71215 0.93476 0.20157 0.0
H445 H 0.72633 1.01144 0.18222 0.0
H446 H 1.00121 0.06823 0.35058 0.0
H447 H 1.02162 0.14259 0.31871 0.0
H448 H 0.95259 0.97035 0.32684 0.0
H449 H 0.87349 0.90709 0.31623 0.0
C450 C 0.15787 0.1866 0.73785 0.0
C451 C 0.15895 0.22453 0.79247 0.0
C452 C 0.25604 0.22548 0.83387 0.0
C453 C 0.25548 0.18884 0.77886 0.0
N454 N 0.19682 0.11854 0.68838 0.0
N455 N 0.19948 0.26779 0.89914 0.0
C456 C 0.20325 0.16408 0.73405 0.0
C457 C 0.20471 0.23928 0.84299 0.0
N458 N 0.1168 0.17609 0.68758 0.0
N459 N 0.30735 0.24929 0.87578 0.0
H460 H 0.16332 0.27995 0.90625 0.0
H461 H 0.22749 0.27498 0.94009 0.0
H462 H 0.34514 0.23913 0.87005 0.0
H463 H 0.31484 0.2822 0.91355 0.0
H464 H 0.11918 0.15575 0.64319 0.0
H465 H 0.08274 0.19149 0.68907 0.0
H466 H 0.15623 0.0937 0.65852 0.0
H467 H 0.22951 0.10138 0.68416 0.0
C468 C 0.08732 0.89682 0.7097 0.0
C469 C 0.12151 0.90145 0.76709 0.0
C470 C 1.02413 0.81005 0.81073 0.0
C471 C 0.99016 0.80479 0.75322 0.0
N472 N 0.98278 0.85472 0.65696 0.0
N473 N 0.11947 0.8748 0.87793 0.0
C474 C 1.01975 0.85181 0.70534 0.0
C475 C 0.08852 0.86208 0.81965 0.0
N476 N 0.11989 0.93273 0.65819 0.0
N477 N 0.9952 0.76374 0.85569 0.0
H478 H 0.16643 0.91343 0.88537 0.0
H479 H 0.09706 0.85143 0.91985 0.0
H480 H 0.94809 0.72505 0.8499 0.0
H481 H 1.01905 0.76084 0.89619 0.0
H482 H 0.09927 0.92531 0.61245 0.0
H483 H 0.16878 0.96783 0.66035 0.0
H484 H 1.00026 0.89185 0.62427 0.0
H485 H 0.93297 0.82341 0.6532 0.0
C486 C 0.8735 0.04581 0.68915 0.0
C487 C 0.8806 0.0818 0.7473 0.0
C488 C 0.85627 0.9867 0.80929 0.0
C489 C 0.84815 0.95012 0.75128 0.0
N490 N 0.86684 0.94894 0.6379 0.0
N491 N 0.90471 0.09318 0.86111 0.0
C492 C 0.86331 0.98142 0.69174 0.0
C493 C 0.8802 0.05437 0.807 0.0
N494 N 0.87374 0.0723 0.63179 0.0
N495 N 0.83766 0.95622 0.86645 0.0
H496 H 0.92633 0.14349 0.86053 0.0
H497 H 0.91054 0.07616 0.90475 0.0
H498 H 0.82033 0.90673 0.87001 0.0
H499 H 0.83516 0.9792 0.90909 0.0
H500 H 0.86289 0.04664 0.58782 0.0
H501 H 0.8803 0.11895 0.62891 0.0
H502 H 0.88246 0.97032 0.59356 0.0
H503 H 0.85992 0.90204 0.6397 0.0
loop_
_geom_bond_atom_site_label_1
_geom_bond_atom_site_label_2
_geom_bond_distance
_geom_bond_site_symmetry_2
_ccdc_geom_bond_type
Co0 N5 2.057 1_545 S
Co0 O17 2.021 . S
Co0 O20 2.062 . S
Co0 O24 2.117 . S
Co0 O25 2.020 . S
C1 O21 1.259 . S
C1 O24 1.258 . S
Co2 N11 2.057 . S
Co2 O18 2.117 . S
Co2 O19 2.020 . S
Co2 O21 2.021 . S
Co2 O26 2.062 . S
C3 N5 1.316 . S
C3 N6 1.347 . S
C3 H8 0.931 . S
C4 N5 1.375 . S
C4 C7 1.350 . S
C4 H9 0.930 . S
N5 Co0 2.057 1_565 S
N5 C3 1.316 . S
N5 C4 1.375 . S
N6 C3 1.347 . S
N6 C7 1.373 . S
C7 C4 1.350 . S
C7 N6 1.373 . S
C7 H28 0.931 . S
H8 C3 0.931 . S
H9 C4 0.930 . S
C10 O17 1.259 . S
C10 O18 1.258 . S
N11 Co2 2.057 . S
N11 C12 1.316 . S
N11 C13 1.375 . S
C12 N11 1.316 . S
C12 N14 1.347 . S
C12 H23 0.931 . S
C13 N11 1.375 . S
C13 C15 1.350 . S
C13 H22 0.930 . S
N14 C12 1.347 . S
N14 C15 1.373 . S
C15 C13 1.350 . S
C15 N14 1.373 . S
C15 H29 0.931 . S
C16 O19 1.256 . S
C16 O20 1.255 . S
O17 Co0 2.021 . S
O17 C10 1.259 . S
O18 Co2 2.117 . S
O18 C10 1.258 . S
O19 Co2 2.020 . S
O19 C16 1.256 . S
O20 Co0 2.062 . S
O20 C16 1.255 . S
O21 C1 1.259 . S
O21 Co2 2.021 . S
H22 C13 0.930 . S
H23 C12 0.931 . S
O24 Co0 2.117 . S
O24 C1 1.258 . S
O25 Co0 2.020 . S
O25 C27 1.256 . S
O26 Co2 2.062 . S
O26 C27 1.255 . S
C27 O25 1.256 . S
C27 O26 1.255 . S
H28 C7 0.931 . S
H29 C15 0.931 . S
Co30 N35 2.057 . S
Co30 O47 2.021 . S
Co30 O50 2.062 . S
Co30 O54 2.117 . S
Co30 O55 2.020 . S
C31 O51 1.259 . S
C31 O54 1.258 . S
Co32 N41 2.057 . S
Co32 O48 2.117 . S
Co32 O49 2.020 . S
Co32 O51 2.021 . S
Co32 O56 2.062 . S
C33 N35 1.316 . S
C33 N36 1.347 . S
C33 H38 0.931 . S
C34 N35 1.375 . S
C34 C37 1.350 . S
C34 H39 0.930 . S
N35 Co30 2.057 . S
N35 C33 1.316 . S
N35 C34 1.375 . S
N36 C33 1.347 . S
N36 C37 1.373 . S
C37 C34 1.350 . S
C37 N36 1.373 . S
C37 H58 0.931 . S
H38 C33 0.931 . S
H39 C34 0.930 . S
C40 O47 1.259 . S
C40 O48 1.258 . S
N41 Co32 2.057 . S
N41 C42 1.316 . S
N41 C43 1.375 . S
C42 N41 1.316 . S
C42 N44 1.347 . S
C42 H53 0.931 . S
C43 N41 1.375 . S
C43 C45 1.350 . S
C43 H52 0.930 . S
N44 C42 1.347 . S
N44 C45 1.373 . S
C45 C43 1.350 . S
C45 N44 1.373 . S
C45 H59 0.931 . S
C46 O49 1.256 . S
C46 O50 1.255 . S
O47 Co30 2.021 . S
O47 C40 1.259 . S
O48 Co32 2.117 . S
O48 C40 1.258 . S
O49 Co32 2.020 . S
O49 C46 1.256 . S
O50 Co30 2.062 . S
O50 C46 1.255 . S
O51 C31 1.259 . S
O51 Co32 2.021 . S
H52 C43 0.930 . S
H53 C42 0.931 . S
O54 Co30 2.117 . S
O54 C31 1.258 . S
O55 Co30 2.020 . S
O55 C57 1.256 . S
O56 Co32 2.062 . S
O56 C57 1.255 . S
C57 O55 1.256 . S
C57 O56 1.255 . S
H58 C37 0.931 . S
H59 C45 0.931 . S
Co60 N65 2.057 1_655 S
Co60 O77 2.021 . S
Co60 O80 2.062 . S
Co60 O84 2.117 . S
Co60 O85 2.020 . S
C61 O81 1.259 . S
C61 O84 1.258 . S
Co62 N71 2.057 . S
Co62 O78 2.117 . S
Co62 O79 2.020 . S
Co62 O81 2.021 . S
Co62 O86 2.062 . S
C63 N65 1.316 . S
C63 N66 1.347 . S
C63 H68 0.931 . S
C64 N65 1.375 . S
C64 C67 1.350 . S
C64 H69 0.930 . S
N65 Co60 2.057 1_455 S
N65 C63 1.316 . S
N65 C64 1.375 . S
N66 C63 1.347 . S
N66 C67 1.373 . S
C67 C64 1.350 . S
C67 N66 1.373 . S
C67 H88 0.931 . S
H68 C63 0.931 . S
H69 C64 0.930 . S
C70 O77 1.259 . S
C70 O78 1.258 . S
N71 Co62 2.057 . S
N71 C72 1.316 . S
N71 C73 1.375 . S
C72 N71 1.316 . S
C72 N74 1.347 . S
C72 H83 0.931 . S
C73 N71 1.375 . S
C73 C75 1.350 . S
C73 H82 0.930 . S
N74 C72 1.347 . S
N74 C75 1.373 . S
C75 C73 1.350 . S
C75 N74 1.373 . S
C75 H89 0.931 . S
C76 O79 1.256 . S
C76 O80 1.255 . S
O77 Co60 2.021 . S
O77 C70 1.259 . S
O78 Co62 2.117 . S
O78 C70 1.258 . S
O79 Co62 2.020 . S
O79 C76 1.256 . S
O80 Co60 2.062 . S
O80 C76 1.255 . S
O81 C61 1.259 . S
O81 Co62 2.021 . S
H82 C73 0.930 . S
H83 C72 0.931 . S
O84 Co60 2.117 . S
O84 C61 1.258 . S
O85 Co60 2.020 . S
O85 C87 1.256 . S
O86 Co62 2.062 . S
O86 C87 1.255 . S
C87 O85 1.256 . S
C87 O86 1.255 . S
H88 C67 0.931 . S
H89 C75 0.931 . S
Co90 N95 2.057 . S
Co90 O107 2.021 . S
Co90 O110 2.062 . S
Co90 O114 2.117 . S
Co90 O115 2.020 . S
C91 O111 1.259 . S
C91 O114 1.258 . S
Co92 N101 2.057 1_455 S
Co92 O108 2.117 . S
Co92 O109 2.020 . S
Co92 O111 2.021 . S
Co92 O116 2.062 . S
C93 N95 1.316 . S
C93 N96 1.347 . S
C93 H98 0.931 . S
C94 N95 1.375 . S
C94 C97 1.350 . S
C94 H99 0.930 . S
N95 Co90 2.057 . S
N95 C93 1.316 . S
N95 C94 1.375 . S
N96 C93 1.347 . S
N96 C97 1.373 . S
C97 C94 1.350 . S
C97 N96 1.373 . S
C97 H118 0.931 . S
H98 C93 0.931 . S
H99 C94 0.930 . S
C100 O107 1.259 . S
C100 O108 1.258 . S
N101 Co92 2.057 1_655 S
N101 C102 1.316 . S
N101 C103 1.375 . S
C102 N101 1.316 . S
C102 N104 1.347 . S
C102 H113 0.931 . S
C103 N101 1.375 . S
C103 C105 1.350 . S
C103 H112 0.930 . S
N104 C102 1.347 . S
N104 C105 1.373 . S
C105 C103 1.350 . S
C105 N104 1.373 . S
C105 H119 0.931 . S
C106 O109 1.256 . S
C106 O110 1.255 . S
O107 Co90 2.021 . S
O107 C100 1.259 . S
O108 Co92 2.117 . S
O108 C100 1.258 . S
O109 Co92 2.020 . S
O109 C106 1.256 . S
O110 Co90 2.062 . S
O110 C106 1.255 . S
O111 C91 1.259 . S
O111 Co92 2.021 . S
H112 C103 0.930 . S
H113 C102 0.931 . S
O114 Co90 2.117 . S
O114 C91 1.258 . S
O115 Co90 2.020 . S
O115 C117 1.256 . S
O116 Co92 2.062 . S
O116 C117 1.255 . S
C117 O115 1.256 . S
C117 O116 1.255 . S
H118 C97 0.931 . S
H119 C105 0.931 . S
Co120 N125 2.057 . S
Co120 O137 2.021 . S
Co120 O140 2.062 . S
Co120 O144 2.117 . S
Co120 O145 2.020 . S
C121 O141 1.259 . S
C121 O144 1.258 . S
Co122 N131 2.057 1_565 S
Co122 O138 2.117 . S
Co122 O139 2.020 . S
Co122 O141 2.021 . S
Co122 O146 2.062 . S
C123 N125 1.316 . S
C123 N126 1.347 . S
C123 H128 0.931 . S
C124 N125 1.375 . S
C124 C127 1.350 . S
C124 H129 0.930 . S
N125 Co120 2.057 . S
N125 C123 1.316 . S
N125 C124 1.375 . S
N126 C123 1.347 . S
N126 C127 1.373 . S
C127 C124 1.350 . S
C127 N126 1.373 . S
C127 H148 0.931 . S
H128 C123 0.931 . S
H129 C124 0.930 . S
C130 O137 1.259 . S
C130 O138 1.258 . S
N131 Co122 2.057 1_545 S
N131 C132 1.316 . S
N131 C133 1.375 . S
C132 N131 1.316 . S
C132 N134 1.347 . S
C132 H143 0.931 . S
C133 N131 1.375 . S
C133 C135 1.350 . S
C133 H142 0.930 . S
N134 C132 1.347 . S
N134 C135 1.373 . S
C135 C133 1.350 . S
C135 N134 1.373 . S
C135 H149 0.931 . S
C136 O139 1.256 . S
C136 O140 1.255 . S
O137 Co120 2.021 . S
O137 C130 1.259 . S
O138 Co122 2.117 . S
O138 C130 1.258 . S
O139 Co122 2.020 . S
O139 C136 1.256 . S
O140 Co120 2.062 . S
O140 C136 1.255 . S
O141 C121 1.259 . S
O141 Co122 2.021 . S
H142 C133 0.930 . S
H143 C132 0.931 . S
O144 Co120 2.117 . S
O144 C121 1.258 . S
O145 Co120 2.020 . S
O145 C147 1.256 . S
O146 Co122 2.062 . S
O146 C147 1.255 . S
C147 O145 1.256 . S
C147 O146 1.255 . S
H148 C127 0.931 . S
H149 C135 0.931 . S
Co150 N155 2.057 . S
Co150 O167 2.021 . S
Co150 O170 2.062 . S
Co150 O174 2.117 . S
Co150 O175 2.020 . S
C151 O171 1.259 . S
C151 O174 1.258 . S
Co152 N161 2.057 . S
Co152 O168 2.117 . S
Co152 O169 2.020 . S
Co152 O171 2.021 . S
Co152 O176 2.062 . S
C153 N155 1.316 . S
C153 N156 1.347 . S
C153 H158 0.931 . S
C154 N155 1.375 . S
C154 C157 1.350 . S
C154 H159 0.930 . S
N155 Co150 2.057 . S
N155 C153 1.316 . S
N155 C154 1.375 . S
N156 C153 1.347 . S
N156 C157 1.373 . S
C157 C154 1.350 . S
C157 N156 1.373 . S
C157 H178 0.931 . S
H158 C153 0.931 . S
H159 C154 0.930 . S
C160 O167 1.259 . S
C160 O168 1.258 . S
N161 Co152 2.057 . S
N161 C162 1.316 . S
N161 C163 1.375 . S
C162 N161 1.316 . S
C162 N164 1.347 . S
C162 H173 0.931 . S
C163 N161 1.375 . S
C163 C165 1.350 . S
C163 H172 0.930 . S
N164 C162 1.347 . S
N164 C165 1.373 . S
C165 C163 1.350 . S
C165 N164 1.373 . S
C165 H179 0.931 . S
C166 O169 1.256 . S
C166 O170 1.255 . S
O167 Co150 2.021 . S
O167 C160 1.259 . S
O168 Co152 2.117 . S
O168 C160 1.258 . S
O169 Co152 2.020 . S
O169 C166 1.256 . S
O170 Co150 2.062 . S
O170 C166 1.255 . S
O171 C151 1.259 . S
O171 Co152 2.021 . S
H172 C163 0.930 . S
H173 C162 0.931 . S
O174 Co150 2.117 . S
O174 C151 1.258 . S
O175 Co150 2.020 . S
O175 C177 1.256 . S
O176 Co152 2.062 . S
O176 C177 1.255 . S
C177 O175 1.256 . S
C177 O176 1.255 . S
H178 C157 0.931 . S
H179 C165 0.931 . S
C180 C181 1.363 1_554 S
C180 C186 1.379 . S
C180 N188 1.356 . S
C181 C180 1.363 1_556 S
C181 C187 1.363 1_565 S
C182 C183 1.363 1_556 S
C182 C187 1.379 . S
C182 N189 1.356 . S
C183 C182 1.363 1_554 S
C183 C186 1.363 1_545 S
N184 C186 1.356 . S
N184 H196 0.984 . S
N184 H197 0.985 1_565 S
N185 C187 1.356 . S
N185 H190 0.984 1_545 S
N185 H191 0.985 . S
C186 C180 1.379 . S
C186 C183 1.363 1_565 S
C186 N184 1.356 . S
C187 C181 1.363 1_545 S
C187 C182 1.379 . S
C187 N185 1.356 . S
N188 C180 1.356 . S
N188 H194 0.984 . S
N188 H195 0.984 1_554 S
N189 C182 1.356 . S
N189 H192 0.984 1_556 S
N189 H193 0.985 . S
H190 N185 0.984 1_565 S
H191 N185 0.985 . S
H192 N189 0.984 1_554 S
H193 N189 0.985 . S
H194 N188 0.984 . S
H195 N188 0.984 1_556 S
H196 N184 0.984 . S
H197 N184 0.985 1_545 S
C198 C199 1.363 . S
C198 C204 1.379 . S
C198 N206 1.356 . S
C199 C198 1.363 . S
C199 C205 1.363 . S
C200 C201 1.363 . S
C200 C205 1.379 . S
C200 N207 1.356 . S
C201 C200 1.363 . S
C201 C204 1.363 . S
N202 C204 1.356 . S
N202 H214 0.984 . S
N202 H215 0.985 . S
N203 C205 1.356 . S
N203 H208 0.984 . S
N203 H209 0.985 . S
C204 C198 1.379 . S
C204 C201 1.363 . S
C204 N202 1.356 . S
C205 C199 1.363 . S
C205 C200 1.379 . S
C205 N203 1.356 . S
N206 C198 1.356 . S
N206 H212 0.984 . S
N206 H213 0.984 . S
N207 C200 1.356 . S
N207 H210 0.984 . S
N207 H211 0.985 . S
H208 N203 0.984 . S
H209 N203 0.985 . S
H210 N207 0.984 . S
H211 N207 0.985 . S
H212 N206 0.984 . S
H213 N206 0.984 . S
H214 N202 0.984 . S
H215 N202 0.985 . S
C216 C217 1.363 . S
C216 C222 1.379 1_654 S
C216 N224 1.356 . S
C217 C216 1.363 . S
C217 C223 1.363 . S
C218 C219 1.363 . S
C218 C223 1.379 1_456 S
C218 N225 1.356 . S
C219 C218 1.363 . S
C219 C222 1.363 . S
N220 C222 1.356 . S
N220 H232 0.984 . S
N220 H233 0.985 . S
N221 C223 1.356 . S
N221 H226 0.984 . S
N221 H227 0.985 . S
C222 C216 1.379 1_456 S
C222 C219 1.363 . S
C222 N220 1.356 . S
C223 C217 1.363 . S
C223 C218 1.379 1_654 S
C223 N221 1.356 . S
N224 C216 1.356 . S
N224 H230 0.984 . S
N224 H231 0.984 . S
N225 C218 1.356 . S
N225 H228 0.984 . S
N225 H229 0.985 . S
H226 N221 0.984 . S
H227 N221 0.985 . S
H228 N225 0.984 . S
H229 N225 0.985 . S
H230 N224 0.984 . S
H231 N224 0.984 . S
H232 N220 0.984 . S
H233 N220 0.985 . S
C234 C235 1.363 . S
C234 C240 1.379 . S
C234 N242 1.356 . S
C235 C234 1.363 . S
C235 C241 1.363 1_545 S
C236 C237 1.363 . S
C236 C241 1.379 . S
C236 N243 1.356 . S
C237 C236 1.363 . S
C237 C240 1.363 1_565 S
N238 C240 1.356 . S
N238 H250 0.984 . S
N238 H251 0.985 1_545 S
N239 C241 1.356 . S
N239 H244 0.984 1_565 S
N239 H245 0.985 . S
C240 C234 1.379 . S
C240 C237 1.363 1_545 S
C240 N238 1.356 . S
C241 C235 1.363 1_565 S
C241 C236 1.379 . S
C241 N239 1.356 . S
N242 C234 1.356 . S
N242 H248 0.984 . S
N242 H249 0.984 . S
N243 C236 1.356 . S
N243 H246 0.984 . S
N243 H247 0.985 . S
H244 N239 0.984 1_545 S
H245 N239 0.985 . S
H246 N243 0.984 . S
H247 N243 0.985 . S
H248 N242 0.984 . S
H249 N242 0.984 . S
H250 N238 0.984 . S
H251 N238 0.985 1_565 S
C252 C253 1.363 . S
C252 C258 1.375 1_556 S
C252 N260 1.356 . S
C253 C252 1.363 . S
C253 C259 1.363 . S
C254 C255 1.363 . S
C254 C259 1.379 1_554 S
C254 N261 1.356 . S
C255 C254 1.363 . S
C255 C258 1.367 . S
N256 C258 1.358 . S
N256 H268 0.984 1_554 S
N256 H269 0.985 . S
N257 C259 1.356 . S
N257 H262 0.984 . S
N257 H263 0.985 1_556 S
C258 C252 1.375 1_554 S
C258 C255 1.367 . S
C258 N256 1.358 . S
C259 C253 1.363 . S
C259 C254 1.379 1_556 S
C259 N257 1.356 . S
N260 C252 1.356 . S
N260 H266 0.984 . S
N260 H267 0.984 . S
N261 C254 1.356 . S
N261 H264 0.984 . S
N261 H265 0.985 . S
H262 N257 0.984 . S
H263 N257 0.985 1_554 S
H264 N261 0.984 . S
H265 N261 0.985 . S
H266 N260 0.984 . S
H267 N260 0.984 . S
H268 N256 0.984 1_556 S
H269 N256 0.985 . S
C270 C271 1.363 . S
C270 C276 1.379 . S
C270 N278 1.356 . S
C271 C270 1.363 . S
C271 C277 1.363 1_655 S
C272 C273 1.363 . S
C272 C277 1.379 . S
C272 N279 1.356 . S
C273 C272 1.363 . S
C273 C276 1.363 1_455 S
N274 C276 1.356 . S
N274 H286 0.984 . S
N274 H287 0.985 1_655 S
N275 C277 1.356 . S
N275 H280 0.984 1_455 S
N275 H281 0.985 . S
C276 C270 1.379 . S
C276 C273 1.363 1_655 S
C276 N274 1.356 . S
C277 C271 1.363 1_455 S
C277 C272 1.379 . S
C277 N275 1.356 . S
N278 C270 1.356 . S
N278 H284 0.984 . S
N278 H285 0.984 . S
N279 C272 1.356 . S
N279 H282 0.984 . S
N279 H283 0.985 . S
H280 N275 0.984 1_655 S
H281 N275 0.985 . S
H282 N279 0.984 . S
H283 N279 0.985 . S
H284 N278 0.984 . S
H285 N278 0.984 . S
H286 N274 0.984 . S
H287 N274 0.985 1_455 S
C288 C289 1.363 . S
C288 C294 1.379 . S
C288 N296 1.356 . S
C289 C288 1.363 . S
C289 C295 1.363 . S
C290 C291 1.363 . S
C290 C295 1.379 . S
C290 N297 1.356 . S
C291 C290 1.363 . S
C291 C294 1.363 . S
N292 C294 1.356 . S
N292 H304 0.984 . S
N292 H305 0.985 . S
N293 C295 1.356 . S
N293 H298 0.984 . S
N293 H299 0.985 . S
C294 C288 1.379 . S
C294 C291 1.363 . S
C294 N292 1.356 . S
C295 C289 1.363 . S
C295 C290 1.379 . S
C295 N293 1.356 . S
N296 C288 1.356 . S
N296 H302 0.984 . S
N296 H303 0.984 . S
N297 C290 1.356 . S
N297 H300 0.984 . S
N297 H301 0.985 . S
H298 N293 0.984 . S
H299 N293 0.985 . S
H300 N297 0.984 . S
H301 N297 0.985 . S
H302 N296 0.984 . S
H303 N296 0.984 . S
H304 N292 0.984 . S
H305 N292 0.985 . S
C306 C307 1.363 . S
C306 C312 1.379 . S
C306 N314 1.356 . S
C307 C306 1.363 . S
C307 C313 1.363 . S
C308 C309 1.363 . S
C308 C313 1.379 . S
C308 N315 1.356 . S
C309 C308 1.363 . S
C309 C312 1.363 . S
N310 C312 1.356 . S
N310 H322 0.984 . S
N310 H323 0.985 . S
N311 C313 1.356 . S
N311 H316 0.984 . S
N311 H317 0.985 . S
C312 C306 1.379 . S
C312 C309 1.363 . S
C312 N310 1.356 . S
C313 C307 1.363 . S
C313 C308 1.379 . S
C313 N311 1.356 . S
N314 C306 1.356 . S
N314 H320 0.984 . S
N314 H321 0.984 . S
N315 C308 1.356 . S
N315 H318 0.984 . S
N315 H319 0.985 . S
H316 N311 0.984 . S
H317 N311 0.985 . S
H318 N315 0.984 . S
H319 N315 0.985 . S
H320 N314 0.984 . S
H321 N314 0.984 . S
H322 N310 0.984 . S
H323 N310 0.985 . S
C324 C325 1.363 . S
C324 C330 1.379 . S
C324 N332 1.356 . S
C325 C324 1.363 . S
C325 C331 1.363 . S
C326 C327 1.363 . S
C326 C331 1.379 . S
C326 N333 1.356 . S
C327 C326 1.363 . S
C327 C330 1.363 . S
N328 C330 1.356 . S
N328 H340 0.984 . S
N328 H341 0.985 . S
N329 C331 1.356 . S
N329 H334 0.984 . S
N329 H335 0.985 . S
C330 C324 1.379 . S
C330 C327 1.363 . S
C330 N328 1.356 . S
C331 C325 1.363 . S
C331 C326 1.379 . S
C331 N329 1.356 . S
N332 C324 1.356 . S
N332 H338 0.984 . S
N332 H339 0.984 . S
N333 C326 1.356 . S
N333 H336 0.984 . S
N333 H337 0.985 . S
H334 N329 0.984 . S
H335 N329 0.985 . S
H336 N333 0.984 . S
H337 N333 0.985 . S
H338 N332 0.984 . S
H339 N332 0.984 . S
H340 N328 0.984 . S
H341 N328 0.985 . S
C342 C343 1.363 . S
C342 C348 1.379 . S
C342 N350 1.356 . S
C343 C342 1.363 . S
C343 C349 1.363 . S
C344 C345 1.363 . S
C344 C349 1.379 . S
C344 N351 1.356 . S
C345 C344 1.363 . S
C345 C348 1.363 . S
N346 C348 1.356 . S
N346 H358 0.984 . S
N346 H359 0.985 . S
N347 C349 1.356 . S
N347 H352 0.984 . S
N347 H353 0.985 . S
C348 C342 1.379 . S
C348 C345 1.363 . S
C348 N346 1.356 . S
C349 C343 1.363 . S
C349 C344 1.379 . S
C349 N347 1.356 . S
N350 C342 1.356 . S
N350 H356 0.984 . S
N350 H357 0.984 . S
N351 C344 1.356 . S
N351 H354 0.984 . S
N351 H355 0.985 . S
H352 N347 0.984 . S
H353 N347 0.985 . S
H354 N351 0.984 . S
H355 N351 0.985 . S
H356 N350 0.984 . S
H357 N350 0.984 . S
H358 N346 0.984 . S
H359 N346 0.985 . S
C360 C361 1.363 . S
C360 C366 1.379 . S
C360 N368 1.356 . S
C361 C360 1.363 . S
C361 C367 1.363 . S
C362 C363 1.363 . S
C362 C367 1.379 . S
C362 N369 1.356 . S
C363 C362 1.363 . S
C363 C366 1.363 . S
N364 C366 1.356 . S
N364 H376 0.984 . S
N364 H377 0.985 . S
N365 C367 1.356 . S
N365 H370 0.984 . S
N365 H371 0.985 . S
C366 C360 1.379 . S
C366 C363 1.363 . S
C366 N364 1.356 . S
C367 C361 1.363 . S
C367 C362 1.379 . S
C367 N365 1.356 . S
N368 C360 1.356 . S
N368 H374 0.984 . S
N368 H375 0.984 . S
N369 C362 1.356 . S
N369 H372 0.984 . S
N369 H373 0.985 . S
H370 N365 0.984 . S
H371 N365 0.985 . S
H372 N369 0.984 . S
H373 N369 0.985 . S
H374 N368 0.984 . S
H375 N368 0.984 . S
H376 N364 0.984 . S
H377 N364 0.985 . S
C378 C379 1.363 . S
C378 C384 1.379 . S
C378 N386 1.356 . S
C379 C378 1.363 . S
C379 C385 1.363 . S
C380 C381 1.363 . S
C380 C385 1.379 . S
C380 N387 1.356 . S
C381 C380 1.363 . S
C381 C384 1.363 . S
N382 C384 1.356 . S
N382 H394 0.984 . S
N382 H395 0.985 . S
N383 C385 1.356 . S
N383 H388 0.984 . S
N383 H389 0.985 . S
C384 C378 1.379 . S
C384 C381 1.363 . S
C384 N382 1.356 . S
C385 C379 1.363 . S
C385 C380 1.379 . S
C385 N383 1.356 . S
N386 C378 1.356 . S
N386 H392 0.984 . S
N386 H393 0.984 . S
N387 C380 1.356 . S
N387 H390 0.984 . S
N387 H391 0.985 . S
H388 N383 0.984 . S
H389 N383 0.985 . S
H390 N387 0.984 . S
H391 N387 0.985 . S
H392 N386 0.984 . S
H393 N386 0.984 . S
H394 N382 0.984 . S
H395 N382 0.985 . S
C396 C397 1.363 . S
C396 C402 1.379 . S
C396 N404 1.356 . S
C397 C396 1.363 . S
C397 C403 1.363 . S
C398 C399 1.363 . S
C398 C403 1.379 . S
C398 N405 1.356 . S
C399 C398 1.363 . S
C399 C402 1.363 . S
N400 C402 1.356 . S
N400 H412 0.984 . S
N400 H413 0.985 . S
N401 C403 1.356 . S
N401 H406 0.984 . S
N401 H407 0.985 . S
C402 C396 1.379 . S
C402 C399 1.363 . S
C402 N400 1.356 . S
C403 C397 1.363 . S
C403 C398 1.379 . S
C403 N401 1.356 . S
N404 C396 1.356 . S
N404 H410 0.984 . S
N404 H411 0.984 . S
N405 C398 1.356 . S
N405 H408 0.984 . S
N405 H409 0.985 . S
H406 N401 0.984 . S
H407 N401 0.985 . S
H408 N405 0.984 . S
H409 N405 0.985 . S
H410 N404 0.984 . S
H411 N404 0.984 . S
H412 N400 0.984 . S
H413 N400 0.985 . S
C414 C415 1.363 . S
C414 C420 1.379 1_655 S
C414 N422 1.356 . S
C415 C414 1.363 . S
C415 C421 1.363 . S
C416 C417 1.363 . S
C416 C421 1.379 1_455 S
C416 N423 1.356 . S
C417 C416 1.363 . S
C417 C420 1.363 . S
N418 C420 1.356 . S
N418 H430 0.984 . S
N418 H431 0.985 . S
N419 C421 1.356 . S
N419 H424 0.984 . S
N419 H425 0.985 . S
C420 C414 1.379 1_455 S
C420 C417 1.363 . S
C420 N418 1.356 . S
C421 C415 1.363 . S
C421 C416 1.379 1_655 S
C421 N419 1.356 . S
N422 C414 1.356 . S
N422 H428 0.984 . S
N422 H429 0.984 . S
N423 C416 1.356 . S
N423 H426 0.984 . S
N423 H427 0.985 . S
H424 N419 0.984 . S
H425 N419 0.985 . S
H426 N423 0.984 . S
H427 N423 0.985 . S
H428 N422 0.984 . S
H429 N422 0.984 . S
H430 N418 0.984 . S
H431 N418 0.985 . S
C432 C433 1.363 . S
C432 C438 1.379 1_545 S
C432 N440 1.356 . S
C433 C432 1.363 . S
C433 C439 1.363 . S
C434 C435 1.363 . S
C434 C439 1.379 1_565 S
C434 N441 1.356 . S
C435 C434 1.363 . S
C435 C438 1.363 . S
N436 C438 1.356 . S
N436 H448 0.984 . S
N436 H449 0.985 . S
N437 C439 1.356 . S
N437 H442 0.984 . S
N437 H443 0.985 . S
C438 C432 1.379 1_565 S
C438 C435 1.363 . S
C438 N436 1.356 . S
C439 C433 1.363 . S
C439 C434 1.379 1_545 S
C439 N437 1.356 . S
N440 C432 1.356 . S
N440 H446 0.984 . S
N440 H447 0.984 . S
N441 C434 1.356 . S
N441 H444 0.984 . S
N441 H445 0.985 . S
H442 N437 0.984 . S
H443 N437 0.985 . S
H444 N441 0.984 . S
H445 N441 0.985 . S
H446 N440 0.984 . S
H447 N440 0.984 . S
H448 N436 0.984 . S
H449 N436 0.985 . S
C450 C451 1.363 . S
C450 C456 1.379 . S
C450 N458 1.356 . S
C451 C450 1.363 . S
C451 C457 1.363 . S
C452 C453 1.363 . S
C452 C457 1.379 . S
C452 N459 1.356 . S
C453 C452 1.363 . S
C453 C456 1.363 . S
N454 C456 1.356 . S
N454 H466 0.984 . S
N454 H467 0.985 . S
N455 C457 1.356 . S
N455 H460 0.984 . S
N455 H461 0.985 . S
C456 C450 1.379 . S
C456 C453 1.363 . S
C456 N454 1.356 . S
C457 C451 1.363 . S
C457 C452 1.379 . S
C457 N455 1.356 . S
N458 C450 1.356 . S
N458 H464 0.984 . S
N458 H465 0.984 . S
N459 C452 1.356 . S
N459 H462 0.984 . S
N459 H463 0.985 . S
H460 N455 0.984 . S
H461 N455 0.985 . S
H462 N459 0.984 . S
H463 N459 0.985 . S
H464 N458 0.984 . S
H465 N458 0.984 . S
H466 N454 0.984 . S
H467 N454 0.985 . S
C468 C469 1.363 . S
C468 C474 1.379 1_455 S
C468 N476 1.356 . S
C469 C468 1.363 . S
C469 C475 1.363 . S
C470 C471 1.363 . S
C470 C475 1.379 1_655 S
C470 N477 1.356 . S
C471 C470 1.363 . S
C471 C474 1.363 . S
N472 C474 1.356 . S
N472 H484 0.984 . S
N472 H485 0.985 . S
N473 C475 1.356 . S
N473 H478 0.984 . S
N473 H479 0.985 . S
C474 C468 1.379 1_655 S
C474 C471 1.363 . S
C474 N472 1.356 . S
C475 C469 1.363 . S
C475 C470 1.379 1_455 S
C475 N473 1.356 . S
N476 C468 1.356 . S
N476 H482 0.984 . S
N476 H483 0.984 . S
N477 C470 1.356 . S
N477 H480 0.984 . S
N477 H481 0.985 . S
H478 N473 0.984 . S
H479 N473 0.985 . S
H480 N477 0.984 . S
H481 N477 0.985 . S
H482 N476 0.984 . S
H483 N476 0.984 . S
H484 N472 0.984 . S
H485 N472 0.985 . S
C486 C487 1.363 . S
C486 C492 1.379 1_545 S
C486 N494 1.356 . S
C487 C486 1.363 . S
C487 C493 1.363 . S
C488 C489 1.363 . S
C488 C493 1.379 1_565 S
C488 N495 1.356 . S
C489 C488 1.363 . S
C489 C492 1.363 . S
N490 C492 1.356 . S
N490 H502 0.984 . S
N490 H503 0.985 . S
N491 C493 1.356 . S
N491 H496 0.984 . S
N491 H497 0.985 . S
C492 C486 1.379 1_565 S
C492 C489 1.363 . S
C492 N490 1.356 . S
C493 C487 1.363 . S
C493 C488 1.379 1_545 S
C493 N491 1.356 . S
N494 C486 1.356 . S
N494 H500 0.984 . S
N494 H501 0.984 . S
N495 C488 1.356 . S
N495 H498 0.984 . S
N495 H499 0.985 . S
H496 N491 0.984 . S
H497 N491 0.985 . S
H498 N495 0.984 . S
H499 N495 0.985 . S
H500 N494 0.984 . S
H501 N494 0.984 . S
H502 N490 0.984 . S
H503 N490 0.985 . S
C181 C121 2.014 . S
C183 C1 2.114 . S
C199 C160 2.181 . S
C201 C40 2.184 . S
C217 C61 2.203 . S
C219 C91 2.098 . S
C235 C10 2.128 . S
C237 C130 2.233 . S
C253 C151 2.062 . S
C255 C31 2.062 . S
C271 C70 2.039 . S
C273 C100 2.142 . S
C289 C27 1.348 . S
C291 N74 1.351 . S
C307 C46 1.346 . S
C309 N14 1.354 . S
C325 C87 1.347 . S
C327 N36 1.352 . S
C343 C106 1.350 . S
C345 N126 1.348 . S
C361 C136 1.347 . S
C363 N156 1.354 . S
C379 N96 1.358 . S
C381 C166 1.347 . S
C397 C16 1.260 . S
C399 N66 1.212 . S
C415 C57 1.262 . S
C417 N6 1.209 . S
C433 C76 1.261 . S
C435 N44 1.210 . S
C451 C117 1.261 . S
C453 N134 1.208 . S
C469 C147 1.261 . S
C471 N164 1.210 . S
C487 N104 1.215 . S
C489 C177 1.261 . S
