# Generated by pormake.
# Topology eci, (8)-cn, num edge types: 1
# Building blocks:
#     Node 0, Type 0, BuildingBlock: AJUNOK_clean_sbu_0, # of connection points: 8
#     Node 1, Type 0, BuildingBlock: AJUNOK_clean_sbu_0, # of connection points: 8
#     Node 2, Type 0, BuildingBlock: AJUNOK_clean_sbu_0, # of connection points: 8
#     Node 3, Type 0, BuildingBlock: AJUNOK_clean_sbu_0, # of connection points: 8
#     Edge 4, Type (0, 0), BuildingBlock: TEMPAE_clean_linker_10, # of connection points: 2
#     Edge 5, Type (0, 0), BuildingBlock: TEMPAE_clean_linker_10, # of connection points: 2
#     Edge 6, Type (0, 0), BuildingBlock: TEMPAE_clean_linker_10, # of connection points: 2
#     Edge 7, Type (0, 0), BuildingBlock: TEMPAE_clean_linker_10, # of connection points: 2
#     Edge 8, Type (0, 0), BuildingBlock: TEMPAE_clean_linker_10, # of connection points: 2
#     Edge 9, Type (0, 0), BuildingBlock: TEMPAE_clean_linker_10, # of connection points: 2
#     Edge 10, Type (0, 0), BuildingBlock: TEMPAE_clean_linker_10, # of connection points: 2
#     Edge 11, Type (0, 0), BuildingBlock: TEMPAE_clean_linker_10, # of connection points: 2
#     Edge 12, Type (0, 0), BuildingBlock: TEMPAE_clean_linker_10, # of connection points: 2
#     Edge 13, Type (0, 0), BuildingBlock: TEMPAE_clean_linker_10, # of connection points: 2
#     Edge 14, Type (0, 0), BuildingBlock: TEMPAE_clean_linker_10, # of connection points: 2
#     Edge 15, Type (0, 0), BuildingBlock: TEMPAE_clean_linker_10, # of connection points: 2
#     Edge 16, Type (0, 0), BuildingBlock: TEMPAE_clean_linker_10, # of connection points: 2
#     Edge 17, Type (0, 0), BuildingBlock: TEMPAE_clean_linker_10, # of connection points: 2
#     Edge 18, Type (0, 0), BuildingBlock: TEMPAE_clean_linker_10, # of connection points: 2
#     Edge 19, Type (0, 0), BuildingBlock: TEMPAE_clean_linker_10, # of connection points: 2
# Relax obj value: 0.365
# Max RMSD: 0.286
# Mean RMSD: 0.286
data_MOF--net-eci--node1-AJUNOK_clean_sbu_0--edge1-TEMPAE_clean_linker_10
_symmetry_space_group_name_H-M    P1
_symmetry_Int_Tables_number       1
_symmetry_cell_setting            triclinic
loop_
_symmetry_equiv_pos_as_xyz
'x, y, z'
_cell_length_a     34.025757
_cell_length_b     34.050559
_cell_length_c     18.983476
_cell_angle_alpha  90.205991
_cell_angle_beta   89.904755
_cell_angle_gamma 89.888125
loop_
_atom_site_label
_atom_site_type_symbol
_atom_site_fract_x
_atom_site_fract_y
_atom_site_fract_z
_atom_type_partial_charge
Cd0 Cd 0.82205 0.79385 0.04209 0.0
Cd1 Cd 0.78711 0.81408 0.83099 0.0
C2 C 0.84339 0.70199 0.03237 0.0
N3 N 0.81121 0.72574 0.03251 0.0
C4 C 0.76901 0.66989 0.0442 0.0
C5 C 0.80188 0.64464 0.04611 0.0
C6 C 0.83936 0.66133 0.03768 0.0
C7 C 0.77438 0.7105 0.03723 0.0
H8 H 0.87245 0.71466 0.03129 0.0
H9 H 0.74927 0.73 0.03926 0.0
C10 C 0.77885 0.87955 0.95043 0.0
C11 C 0.84077 0.87999 0.76577 0.0
C12 C 0.87078 0.90705 0.75519 0.0
C13 C 0.89954 0.91207 0.80713 0.0
C14 C 0.8971 0.89039 0.86953 0.0
C15 C 0.86597 0.86423 0.87863 0.0
N16 N 0.83895 0.85908 0.82647 0.0
H17 H 0.81899 0.87538 0.72524 0.0
H18 H 0.86368 0.84793 0.92706 0.0
C19 C 0.71919 0.79639 0.95099 0.0
N20 N 0.74044 0.77919 0.89831 0.0
C21 C 0.68713 0.73575 0.87264 0.0
C22 C 0.66306 0.75669 0.91983 0.0
C23 C 0.6804 0.78518 0.96319 0.0
C24 C 0.72606 0.74765 0.86263 0.0
H25 H 0.72988 0.82171 -0.02151 0.0
H26 H 0.74299 0.73504 0.81988 0.0
C27 C 0.87626 0.76883 0.88586 0.0
C28 C 0.78733 0.79846 0.17693 0.0
N29 N 0.87452 0.82818 0.08665 0.0
C30 C 0.91223 0.81526 0.09176 0.0
C31 C 0.94029 0.83856 0.12579 0.0
C32 C 0.92886 0.87485 0.15506 0.0
C33 C 0.88987 0.88744 0.1475 0.0
C34 C 0.86315 0.86355 0.11283 0.0
C35 C 0.75717 0.80952 0.68926 0.0
O36 O 0.79366 0.85023 -0.01808 0.0
O37 O 0.7684 0.8755 0.88685 0.0
O38 O 0.85036 0.77805 0.84031 0.0
O39 O 0.87035 0.77402 0.95151 0.0
O40 O 0.76601 0.8035 0.12247 0.0
O41 O 0.82316 0.78913 0.16718 0.0
O42 O 0.77822 0.78256 0.71556 0.0
O43 O 0.7498 0.83865 0.72877 0.0
H44 H 0.92027 0.78678 0.07073 0.0
H45 H 0.83285 0.87264 0.10821 0.0
H46 H 0.73953 0.65874 0.05167 0.0
H47 H 0.86562 0.64333 0.03751 0.0
H48 H 0.87207 0.92325 0.70621 0.0
H49 H 0.91883 0.89384 0.91074 0.0
H50 H 0.67489 0.71364 0.83795 0.0
H51 H 0.66294 0.8016 0.00097 0.0
H52 H 0.97022 0.82803 0.13062 0.0
H53 H 0.88011 0.91552 0.16815 0.0
Cd54 Cd 0.69904 0.32702 0.36601 0.0
Cd55 Cd 0.69955 0.2947 0.1647 0.0
C56 C 0.79024 0.33297 0.37364 0.0
N57 N 0.76385 0.30515 0.35397 0.0
C58 C 0.81601 0.26188 0.31915 0.0
C59 C 0.84385 0.29052 0.33851 0.0
C60 C 0.83033 0.32627 0.36648 0.0
C61 C 0.77574 0.26996 0.32713 0.0
H62 H 0.78 0.36087 0.39395 0.0
H63 H 0.75411 0.24842 0.3114 0.0
C64 C 0.63762 0.26216 0.30315 0.0
C65 C 0.61108 0.32919 0.14066 0.0
C66 C 0.58308 0.35686 0.12017 0.0
C67 C 0.59475 0.39577 0.10882 0.0
C68 C 0.63382 0.40646 0.12071 0.0
C69 C 0.66059 0.37805 0.14184 0.0
N70 N 0.64896 0.34036 0.15228 0.0
H71 H 0.60285 0.29862 0.1439 0.0
H72 H 0.6911 0.38565 0.1448 0.0
C73 C 0.69932 0.20136 0.19229 0.0
N74 N 0.72439 0.23026 0.17192 0.0
C75 C 0.77148 0.18219 0.13394 0.0
C76 C 0.74505 0.1519 0.1509 0.0
C77 C 0.70931 0.162 0.18323 0.0
C78 C 0.76043 0.22146 0.14487 0.0
H79 H 0.67041 0.20845 0.21156 0.0
H80 H 0.77957 0.2449 0.12775 0.0
C81 C 0.74856 0.37202 0.22971 0.0
C82 C 0.68908 0.34488 0.51135 0.0
N83 N 0.6536 0.37491 0.33395 0.0
C84 C 0.66363 0.41132 0.35704 0.0
C85 C 0.63737 0.4424 0.35155 0.0
C86 C 0.59981 0.43606 0.3232 0.0
C87 C 0.59023 0.39817 0.29899 0.0
C88 C 0.61759 0.3677 0.30581 0.0
C89 C 0.69702 0.30063 0.0173 0.0
O90 O 0.66293 0.26676 0.35114 0.0
O91 O 0.64462 0.27346 0.24077 0.0
O92 O 0.7544 0.33969 0.19741 0.0
O93 O 0.72577 0.3733 0.28252 0.0
O94 O 0.66501 0.32403 0.47721 0.0
O95 O 0.71942 0.3564 0.47864 0.0
O96 O 0.71956 0.32167 0.05454 0.0
O97 O 0.67832 0.27329 0.04771 0.0
H98 H 0.69168 0.41583 0.3825 0.0
H99 H 0.60943 0.33822 0.29117 0.0
H100 H 0.82521 0.23391 0.29728 0.0
H101 H 0.8506 0.34887 0.3835 0.0
H102 H 0.55325 0.34756 0.10944 0.0
H103 H 0.64389 0.43613 0.11097 0.0
H104 H 0.79926 0.1758 0.10842 0.0
H105 H 0.68827 0.1397 0.19823 0.0
H106 H 0.64574 0.47056 0.37347 0.0
H107 H 0.56151 0.39184 0.27731 0.0
Cd108 Cd 0.19989 0.19775 0.37308 0.0
Cd109 Cd 0.18477 0.2187 0.57237 0.0
C110 C 0.29078 0.17926 0.37495 0.0
N111 N 0.26682 0.21087 0.38346 0.0
C112 C 0.32233 0.25329 0.39578 0.0
C113 C 0.34799 0.2212 0.3856 0.0
C114 C 0.3315 0.18376 0.37556 0.0
C115 C 0.2816 0.24747 0.39391 0.0
H116 H 0.2781 0.15056 0.36604 0.0
H117 H 0.2618 0.27215 0.39983 0.0
C118 C 0.12893 0.25335 0.43654 0.0
C119 C 0.116 0.15153 0.55505 0.0
C120 C 0.0935 0.1197 0.5772 0.0
C121 C 0.10643 0.09675 0.63402 0.0
C122 C 0.14287 0.10525 0.66483 0.0
C123 C 0.16442 0.13729 0.6409 0.0
N124 N 0.1506 0.15991 0.58742 0.0
H125 H 0.10455 0.1706 0.51491 0.0
H126 H 0.19155 0.14519 0.66691 0.0
C127 C 0.17476 0.30983 0.55494 0.0
N128 N 0.20442 0.28318 0.54973 0.0
C129 C 0.25202 0.33487 0.54728 0.0
C130 C 0.22183 0.36287 0.55532 0.0
C131 C 0.18276 0.34985 0.55663 0.0
C132 C 0.24258 0.29478 0.54513 0.0
H133 H 0.14485 0.3 0.56196 0.0
H134 H 0.26574 0.27297 0.54381 0.0
C135 C 0.23102 0.14452 0.51672 0.0
C136 C 0.18864 0.19655 0.22705 0.0
N137 N 0.1568 0.14524 0.36834 0.0
C138 C 0.17115 0.10932 0.34995 0.0
C139 C 0.1457 0.07791 0.33967 0.0
C140 C 0.10507 0.08393 0.34612 0.0
C141 C 0.09098 0.12138 0.36414 0.0
C142 C 0.11758 0.15188 0.37457 0.0
C143 C 0.17181 0.22984 0.71674 0.0
O144 O 0.15927 0.25539 0.39798 0.0
O145 O 0.13048 0.23649 0.49578 0.0
O146 O 0.24146 0.17534 0.54945 0.0
O147 O 0.20997 0.14741 0.46203 0.0
O148 O 0.17304 0.22202 0.26703 0.0
O149 O 0.21359 0.17332 0.25431 0.0
O150 O 0.20651 0.2291 0.69212 0.0
O151 O 0.14364 0.22852 0.67343 0.0
H152 H 0.20243 0.10528 0.34244 0.0
H153 H 0.10688 0.18098 0.38608 0.0
H154 H 0.3335 0.28264 0.40464 0.0
H155 H 0.34975 0.15821 0.36599 0.0
H156 H 0.0652 0.11458 0.55283 0.0
H157 H 0.15403 0.08809 0.7084 0.0
H158 H 0.28259 0.34366 0.54706 0.0
H159 H 0.15857 0.37036 0.56228 0.0
H160 H 0.15755 0.04962 0.3241 0.0
H161 H 0.05977 0.12714 0.36891 0.0
Cd162 Cd 0.31586 0.71688 0.64192 0.0
Cd163 Cd 0.31153 0.69661 0.83981 0.0
C164 C 0.32961 0.80844 0.65102 0.0
N165 N 0.29889 0.78304 0.6536 0.0
C166 C 0.25314 0.83652 0.65384 0.0
C167 C 0.28441 0.86334 0.64905 0.0
C168 C 0.32304 0.84883 0.64893 0.0
C169 C 0.2611 0.79613 0.65533 0.0
H170 H 0.35931 0.79723 0.64793 0.0
H171 H 0.2372 0.77524 0.65561 0.0
C172 C 0.28148 0.64026 0.7076 0.0
C173 C 0.34233 0.61144 0.87835 0.0
C174 C 0.36841 0.58206 0.89846 0.0
C175 C 0.40869 0.58731 0.88691 0.0
C176 C 0.42178 0.62084 0.85142 0.0
C177 C 0.39453 0.64913 0.83082 0.0
N178 N 0.35576 0.64442 0.84597 0.0
H179 H 0.31145 0.6087 0.89092 0.0
H180 H 0.40469 0.6755 0.80596 0.0
C181 C 0.2195 0.68422 0.82269 0.0
N182 N 0.24594 0.71398 0.81856 0.0
C183 C 0.19406 0.76055 0.80108 0.0
C184 C 0.166 0.73028 0.80533 0.0
C185 C 0.17938 0.69167 0.81591 0.0
C186 C 0.23413 0.75169 0.80816 0.0
H187 H 0.22965 0.65463 0.83262 0.0
H188 H 0.25574 0.77493 0.8065 0.0
C189 C 0.37977 0.7475 0.77086 0.0
C190 C 0.30128 0.70295 0.49918 0.0
N191 N 0.37405 0.68588 0.60818 0.0
C192 C 0.39416 0.70149 0.553 0.0
C193 C 0.42158 0.67878 0.51619 0.0
C194 C 0.42871 0.64002 0.53741 0.0
C195 C 0.40963 0.62568 0.59767 0.0
C196 C 0.38195 0.64913 0.63207 0.0
C197 C 0.31066 0.6869 -0.0134 0.0
O198 O 0.26556 0.67112 0.68382 0.0
O199 O 0.30633 0.6433 0.75657 0.0
O200 O 0.35057 0.75397 0.81076 0.0
O201 O 0.37494 0.72868 0.71366 0.0
O202 O 0.29649 0.6767 0.54542 0.0
O203 O 0.30976 0.73744 0.52016 0.0
O204 O 0.33675 0.7075 0.9566 0.0
O205 O 0.28255 0.67448 0.94889 0.0
H206 H 0.38699 0.73064 0.53459 0.0
H207 H 0.36516 0.63709 0.67505 0.0
H208 H 0.22292 0.84657 0.65312 0.0
H209 H 0.34794 0.86851 0.64551 0.0
H210 H 0.35749 0.5566 0.92636 0.0
H211 H 0.45281 0.62563 0.84182 0.0
H212 H 0.18517 0.79073 0.79279 0.0
H213 H 0.15898 0.6675 0.82131 0.0
H214 H 0.43603 0.69088 0.47028 0.0
H215 H 0.41422 0.5958 0.61534 0.0
C216 C 0.79935 0.81571 0.3017 0.0
C217 C 0.77253 0.80518 0.2491 0.0
C218 C 0.7875 0.82 0.37182 0.0
C219 C 0.74782 0.81291 0.39038 0.0
C220 C 0.71999 0.80451 0.33688 0.0
C221 C 0.73271 0.80092 0.26643 0.0
C222 C 0.81803 0.83033 0.42657 0.0
C223 C 0.67732 0.79752 0.3542 0.0
C224 C 0.74937 0.77387 0.57517 0.0
C225 C 0.7451 0.80853 0.61441 0.0
C226 C 0.74549 0.77403 0.50166 0.0
C227 C 0.73771 0.80983 0.46651 0.0
C228 C 0.72919 0.84401 0.5065 0.0
C229 C 0.73295 0.84294 0.58023 0.0
C230 C 0.75379 0.73666 0.46125 0.0
C231 C 0.71993 0.88263 0.4715 0.0
H232 H 0.82999 0.82019 0.28812 0.0
H233 H 0.71182 0.79334 0.22554 0.0
H234 H 0.80792 0.85558 0.45896 0.0
H235 H 0.82243 0.80506 0.4625 0.0
H236 H 0.84682 0.83796 0.40265 0.0
H237 H 0.65843 0.79956 0.30665 0.0
H238 H 0.67394 0.76772 0.37681 0.0
H239 H 0.66667 0.81893 0.39413 0.0
H240 H 0.75782 0.74695 0.6015 0.0
H241 H 0.72895 0.86975 0.61041 0.0
H242 H 0.78342 0.73848 0.43695 0.0
H243 H 0.73218 0.73268 0.41814 0.0
H244 H 0.75296 0.7104 0.49578 0.0
H245 H 0.7478 0.89717 0.45615 0.0
H246 H 0.70377 0.90268 0.5077 0.0
H247 H 0.70225 0.87827 0.42307 0.0
C248 C 0.71482 0.36318 0.62933 0.0
C249 C 0.68305 0.35267 0.5867 0.0
C250 C 0.71126 0.36245 0.70275 0.0
C251 C 0.675 0.35132 0.7334 0.0
C252 C 0.64152 0.34609 0.69053 0.0
C253 C 0.64605 0.34626 0.61723 0.0
C254 C 0.74719 0.36999 0.74729 0.0
C255 C 0.60172 0.33729 0.72176 0.0
C256 C 0.68917 0.28508 0.89025 0.0
C257 C 0.68808 0.31226 0.94524 0.0
C258 C 0.68314 0.2974 0.82078 0.0
C259 C 0.6747 0.33753 0.80714 0.0
C260 C 0.6707 0.36442 0.8636 0.0
C261 C 0.67796 0.35145 0.93217 0.0
C262 C 0.68771 0.26786 0.76172 0.0
C263 C 0.65875 0.40667 0.85222 0.0
H264 H 0.74319 0.36916 0.60561 0.0
H265 H 0.62102 0.33959 0.58401 0.0
H266 H 0.74016 0.39099 0.79034 0.0
H267 H 0.75689 0.3421 0.77198 0.0
H268 H 0.77198 0.38198 0.71592 0.0
H269 H 0.57772 0.34254 0.68328 0.0
H270 H 0.60061 0.30606 0.73804 0.0
H271 H 0.59638 0.35562 0.7693 0.0
H272 H 0.69638 0.25468 0.90129 0.0
H273 H 0.67569 0.37198 0.97585 0.0
H274 H 0.7122 0.2768 0.72657 0.0
H275 H 0.66059 0.26693 0.72944 0.0
H276 H 0.69384 0.23779 0.78143 0.0
H277 H 0.66608 0.42542 0.89839 0.0
H278 H 0.62646 0.40799 0.84433 0.0
H279 H 0.67288 0.41921 0.80469 0.0
C280 C 0.19001 0.24241 0.84054 0.0
C281 C 0.1647 0.22511 0.79194 0.0
C282 C 0.18697 0.23345 0.91203 0.0
C283 C 0.15871 0.20559 0.93454 0.0
C284 C 0.1325 0.18854 0.88552 0.0
C285 C 0.13558 0.19894 0.8145 0.0
C286 C 0.21486 0.25293 0.96319 0.0
C287 C 0.10289 0.15771 0.90645 0.0
C288 C 0.19502 0.16716 0.10691 0.0
C289 C 0.17665 0.19364 0.15299 0.0
C290 C 0.18566 0.16714 0.03509 0.0
C291 C 0.15793 0.19463 0.00959 0.0
C292 C 0.13611 0.21803 0.05715 0.0
C293 C 0.14589 0.21739 0.12849 0.0
C294 C 0.20761 0.14002 -0.0142 0.0
C295 C 0.10497 0.24631 0.03205 0.0
H296 H 0.21257 0.26245 0.82239 0.0
H297 H 0.11665 0.18485 0.77606 0.0
H298 H 0.19815 0.26698 0.00679 0.0
H299 H 0.23453 0.23053 -0.01326 0.0
H300 H 0.23335 0.27564 0.93756 0.0
H301 H 0.1173 0.12845 0.90482 0.0
H302 H 0.09153 0.1625 0.96059 0.0
H303 H 0.07771 0.15695 0.86926 0.0
H304 H 0.21771 0.14761 0.12629 0.0
H305 H 0.13037 0.23674 0.16455 0.0
H306 H 0.23052 0.15689 0.95735 0.0
H307 H 0.1874 0.12744 0.94588 0.0
H308 H 0.22215 0.11562 0.01452 0.0
H309 H 0.11934 0.2719 0.0068 0.0
H310 H 0.08628 0.25718 0.07608 0.0
H311 H 0.08584 0.23219 -0.00793 0.0
C312 C 0.34909 0.6829 0.09761 0.0
C313 C 0.31387 0.67637 0.06122 0.0
C314 C 0.35137 0.67621 0.17012 0.0
C315 C 0.31732 0.66394 0.20654 0.0
C316 C 0.28347 0.65255 0.16868 0.0
C317 C 0.28207 0.65901 0.09604 0.0
C318 C 0.38901 0.68562 0.2085 0.0
C319 C 0.24745 0.63715 0.20576 0.0
C320 C 0.31508 0.65431 0.40511 0.0
C321 C 0.30298 0.69225 0.42463 0.0
C322 C 0.32121 0.64453 0.33429 0.0
C323 C 0.3135 0.67309 0.28223 0.0
C324 C 0.30094 0.71134 0.30196 0.0
C325 C 0.2963 0.72058 0.3732 0.0
C326 C 0.33589 0.60383 0.31625 0.0
C327 C 0.29263 0.7427 0.24777 0.0
H328 H 0.37448 0.69443 0.07001 0.0
H329 H 0.25537 0.65235 0.06734 0.0
H330 H 0.38689 0.71556 0.23146 0.0
H331 H 0.39408 0.6647 0.25229 0.0
H332 H 0.41476 0.68477 0.17243 0.0
H333 H 0.22609 0.62401 0.16831 0.0
H334 H 0.25579 0.61468 0.24519 0.0
H335 H 0.23273 0.66162 0.23428 0.0
H336 H 0.32113 0.6326 0.44538 0.0
H337 H 0.28739 0.74996 0.38874 0.0
H338 H 0.35334 0.60336 0.26684 0.0
H339 H 0.31035 0.58399 0.30943 0.0
H340 H 0.35428 0.59177 0.35946 0.0
H341 H 0.31976 0.74915 0.21748 0.0
H342 H 0.28196 0.77048 0.272 0.0
H343 H 0.27016 0.73219 0.20986 0.0
C344 C 0.42735 0.75609 0.87042 0.0
C345 C 0.42021 0.75359 0.7977 0.0
C346 C 0.46589 0.75601 0.89694 0.0
C347 C 0.49801 0.75417 0.84955 0.0
C348 C 0.49097 0.75288 0.77605 0.0
C349 C 0.45218 0.7523 0.75109 0.0
C350 C 0.47223 0.75689 0.97564 0.0
C351 C 0.52442 0.75158 0.72368 0.0
C352 C 0.59868 0.79048 0.9043 0.0
C353 C 0.61963 0.75521 0.91245 0.0
C354 C 0.5588 0.79051 0.8861 0.0
C355 C 0.53912 0.75437 0.87636 0.0
C356 C 0.55952 0.7186 0.88779 0.0
C357 C 0.59973 0.71944 0.905 0.0
C358 C 0.53831 0.82928 0.87373 0.0
C359 C 0.53924 0.67947 0.87936 0.0
H360 H 0.40281 0.75649 0.90689 0.0
H361 H 0.44684 0.75025 0.69489 0.0
H362 H 0.48852 0.73021 -0.00783 0.0
H363 H 0.49046 0.7826 -0.00961 0.0
H364 H 0.44413 0.75834 0.00544 0.0
H365 H 0.51394 0.75155 0.66828 0.0
H366 H 0.54395 0.77729 0.73156 0.0
H367 H 0.54241 0.72482 0.73224 0.0
H368 H 0.61402 0.81827 0.90845 0.0
H369 H 0.6158 0.69216 0.91126 0.0
H370 H 0.5108 0.83096 0.905 0.0
H371 H 0.53006 0.8317 0.81738 0.0
H372 H 0.55709 0.85478 0.88777 0.0
H373 H 0.51161 0.67897 0.91047 0.0
H374 H 0.55813 0.65459 0.89633 0.0
H375 H 0.53117 0.67492 0.82332 0.0
C376 C 0.72158 0.08859 0.09884 0.0
C377 C 0.75236 0.11056 0.1284 0.0
C378 C 0.72756 0.05014 0.07459 0.0
C379 C 0.76541 0.03311 0.07911 0.0
C380 C 0.79663 0.05481 0.10951 0.0
C381 C 0.78974 0.09335 0.13378 0.0
C382 C 0.69345 0.02808 0.04252 0.0
C383 C 0.83742 0.0376 0.11505 0.0
C384 C 0.76935 0.92201 0.05713 0.0
C385 C 0.77664 0.91844 -0.01524 0.0
C386 C 0.76682 0.9592 0.08932 0.0
C387 C 0.77232 0.99342 0.04816 0.0
C388 C 0.78104 0.98974 0.97546 0.0
C389 C 0.78266 0.95232 0.94454 0.0
C390 C 0.7569 0.96189 0.16672 0.0
C391 C 0.78779 0.02536 0.92984 0.0
H392 H 0.6928 0.10185 0.09287 0.0
H393 H 0.81359 0.11001 0.1569 0.0
H394 H 0.6994 0.02224 -0.01404 0.0
H395 H 0.68984 0.99924 0.06873 0.0
H396 H 0.66536 0.0446 0.04688 0.0
H397 H 0.85815 0.05769 0.14235 0.0
H398 H 0.83649 0.00938 0.14402 0.0
H399 H 0.84904 0.03117 0.06159 0.0
H400 H 0.76455 0.89577 0.08814 0.0
H401 H 0.789 0.94952 0.88873 0.0
H402 H 0.72763 0.97586 0.17338 0.0
H403 H 0.77855 0.98067 0.19448 0.0
H404 H 0.75633 0.9326 0.19231 0.0
H405 H 0.76006 0.04233 0.92512 0.0
H406 H 0.79801 0.01733 0.87606 0.0
H407 H 0.80992 0.04499 0.95437 0.0
C408 C 0.41715 0.19745 0.40702 0.0
C409 C 0.39153 0.22667 0.38199 0.0
C410 C 0.45803 0.20056 0.39819 0.0
C411 C 0.4739 0.23414 0.36502 0.0
C412 C 0.44845 0.26448 0.34222 0.0
C413 C 0.40764 0.2602 0.35025 0.0
C414 C 0.48415 0.16742 0.42268 0.0
C415 C 0.46429 0.30119 0.30797 0.0
C416 C 0.58181 0.25977 0.38844 0.0
C417 C 0.59733 0.24982 0.32218 0.0
C418 C 0.54182 0.25419 0.40372 0.0
C419 C 0.517 0.23723 0.35215 0.0
C420 C 0.53302 0.22522 0.28653 0.0
C421 C 0.57287 0.23226 0.27191 0.0
C422 C 0.52575 0.26844 0.47351 0.0
C423 C 0.5078 0.20606 0.23086 0.0
H424 H 0.40527 0.17182 0.43307 0.0
H425 H 0.38834 0.28275 0.32975 0.0
H426 H 0.50053 0.15501 0.37713 0.0
H427 H 0.50622 0.17854 0.46071 0.0
H428 H 0.46724 0.14344 0.44811 0.0
H429 H 0.44092 0.32332 0.29815 0.0
H430 H 0.4872 0.31471 0.34175 0.0
H431 H 0.47835 0.29359 0.25694 0.0
H432 H 0.60046 0.27396 0.42711 0.0
H433 H 0.5848 0.22458 0.22067 0.0
H434 H 0.50917 0.24472 0.50011 0.0
H435 H 0.50489 0.29299 0.46443 0.0
H436 H 0.5493 0.27886 0.50944 0.0
H437 H 0.49109 0.18123 0.25382 0.0
H438 H 0.52548 0.19493 0.18573 0.0
H439 H 0.48609 0.22757 0.21068 0.0
C440 C 0.29698 0.92584 0.58458 0.0
C441 C 0.2771 0.90593 0.63842 0.0
C442 C 0.28983 0.96569 0.57143 0.0
C443 C 0.26233 0.98641 0.61357 0.0
C444 C 0.24267 0.96673 0.66904 0.0
C445 C 0.25007 0.92656 0.68047 0.0
C446 C 0.31078 0.98527 0.51078 0.0
C447 C 0.21337 0.98791 0.71541 0.0
C448 C 0.26699 0.0979 0.5974 0.0
C449 C 0.2383 0.10477 0.54594 0.0
C450 C 0.27419 0.05961 0.62232 0.0
C451 C 0.25207 0.02769 0.59525 0.0
C452 C 0.22201 0.03483 0.54557 0.0
C453 C 0.21551 0.07313 0.52177 0.0
C454 C 0.30622 0.05309 0.67591 0.0
C455 C 0.19749 1.00183 0.51547 0.0
H456 H 0.31746 0.90987 0.55126 0.0
H457 H 0.23486 0.91129 0.72241 0.0
H458 H 0.28904 0.9946 0.47064 0.0
H459 H 0.32617 0.01205 0.52941 0.0
H460 H 0.33258 0.96554 0.48508 0.0
H461 H 0.20253 0.96914 0.75903 0.0
H462 H 0.22689 0.01471 0.73824 0.0
H463 H 0.18783 0.99755 0.68354 0.0
H464 H 0.28435 0.12224 0.61702 0.0
H465 H 0.1924 0.07818 0.48374 0.0
H466 H 0.33051 0.03596 0.65159 0.0
H467 H 0.29485 0.03567 0.72079 0.0
H468 H 0.31834 0.08116 0.6964 0.0
H469 H 0.21658 0.98139 0.48519 0.0
H470 H 0.17392 0.01267 0.48001 0.0
H471 H 0.18372 0.98475 0.55854 0.0
C472 C 0.94193 0.73774 0.90617 0.0
C473 C 0.91668 0.75892 0.86207 0.0
C474 C 0.9819 0.73305 0.8895 0.0
C475 C 0.99734 0.75072 0.82791 0.0
C476 C 0.97183 0.7714 0.78219 0.0
C477 C 0.93173 0.77496 0.79951 0.0
C478 C 0.0079 0.71024 0.93917 0.0
C479 C 0.98719 0.79144 0.7169 0.0
C480 C 0.10705 0.77115 0.8387 0.0
C481 C 0.12293 0.73862 0.80292 0.0
C482 C 0.06617 0.77657 0.84406 0.0
C483 C 0.04046 0.74862 0.81349 0.0
C484 C 0.05628 0.7169 0.77419 0.0
C485 C 0.09724 0.71238 0.76916 0.0
C486 C 0.0505 0.81129 0.88519 0.0
C487 C 0.02997 0.6867 0.74007 0.0
H488 H 0.93057 0.72544 0.95465 0.0
H489 H 0.91259 0.7921 0.76584 0.0
H490 H 0.02419 0.68709 0.90989 0.0
H491 H 0.02999 0.73017 0.96299 0.0
H492 H 0.99093 0.69618 -0.01773 0.0
H493 H 0.96307 0.80245 0.68285 0.0
H494 H 0.00583 0.81672 0.73246 0.0
H495 H 0.00587 0.77109 0.68563 0.0
H496 H 0.12652 0.79151 0.86527 0.0
H497 H 0.10919 0.68768 0.73996 0.0
H498 H 0.03608 0.80087 0.93412 0.0
H499 H 0.02795 0.82711 0.85403 0.0
H500 H 0.07407 0.8323 0.89984 0.0
H501 H 0.01416 0.67004 0.78145 0.0
H502 H 0.0467 0.66558 0.70679 0.0
H503 H 0.00747 0.7013 0.70697 0.0
C504 C 0.75157 0.44521 0.23331 0.0
C505 C 0.76219 0.40997 0.19951 0.0
C506 C 0.75894 0.48178 0.20259 0.0
C507 C 0.77839 0.48362 0.13678 0.0
C508 C 0.79032 0.44834 0.10295 0.0
C509 C 0.78183 0.41185 0.13447 0.0
C510 C 0.74522 0.51851 0.24032 0.0
C511 C 0.81165 0.44919 0.03322 0.0
C512 C 0.76475 0.58041 0.0397 0.0
C513 C 0.79755 0.6019 0.06276 0.0
C514 C 0.75891 0.54123 0.06073 0.0
C515 C 0.78681 0.52281 0.10514 0.0
C516 C 0.82083 0.54365 0.12583 0.0
C517 C 0.82555 0.58289 0.10516 0.0
C518 C 0.72201 0.52015 0.03799 0.0
C519 C 0.85147 0.52507 0.17265 0.0
H520 H 0.73638 0.44435 0.28347 0.0
H521 H 0.78991 0.38489 0.10758 0.0
H522 H 0.77074 0.53747 0.25294 0.0
H523 H 0.72538 0.53564 0.20567 0.0
H524 H 0.72933 0.5119 0.29006 0.0
H525 H 0.82021 0.41936 0.0149 0.0
H526 H 0.79268 0.46286 -0.00737 0.0
H527 H 0.83849 0.46749 0.03762 0.0
H528 H 0.74323 0.59437 0.00601 0.0
H529 H 0.85066 0.59907 0.12476 0.0
H530 H 0.70334 0.51421 0.08474 0.0
H531 H 0.72947 0.49138 0.01386 0.0
H532 H 0.70458 0.5375 -0.00037 0.0
H533 H 0.83909 0.52064 0.22613 0.0
H534 H 0.87827 0.54346 0.17738 0.0
H535 H 0.86002 0.49577 0.15186 0.0
C536 C 0.91187 0.31399 0.31093 0.0
C537 C 0.88691 0.28351 0.33264 0.0
C538 C 0.95281 0.31077 0.31724 0.0
C539 C 0.96929 0.27598 0.34508 0.0
C540 C 0.94448 0.24389 0.36165 0.0
C541 C 0.90353 0.24808 0.35551 0.0
C542 C 0.97812 0.34564 0.29882 0.0
C543 C 0.96106 0.20594 0.38999 0.0
C544 C 0.0797 0.25766 0.33914 0.0
C545 C 0.09016 0.26545 0.40927 0.0
C546 C 0.0405 0.26146 0.31671 0.0
C547 C 0.01158 0.27475 0.36503 0.0
C548 C 0.02269 0.28515 0.43455 0.0
C549 C 0.0617 0.27975 0.45608 0.0
C550 C 0.02974 0.24947 0.24255 0.0
C551 C 0.99304 0.30046 0.48725 0.0
H552 H 0.89923 0.34113 0.29155 0.0
H553 H 0.8845 0.2244 0.37235 0.0
H554 H 0.99027 0.35863 0.34783 0.0
H555 H 1.00336 0.33646 0.26561 0.0
H556 H 0.96134 0.36873 0.27053 0.0
H557 H 0.93862 0.18231 0.39193 0.0
H558 H 0.98609 0.19579 0.35704 0.0
H559 H 0.97239 0.21082 0.44408 0.0
H560 H 0.10157 0.24614 0.30305 0.0
H561 H 0.06983 0.28587 0.51023 0.0
H562 H 0.01691 0.27479 0.21407 0.0
H563 H 0.00704 0.22612 0.24387 0.0
H564 H 0.05548 0.23843 0.21227 0.0
H565 H 0.9763 0.32536 0.46453 0.0
H566 H 0.0071 0.31046 0.53695 0.0
H567 H 0.97164 0.277 0.50009 0.0
C568 C 0.25933 0.42526 0.53169 0.0
C569 C 0.23061 0.40489 0.56992 0.0
C570 C 0.26784 0.46482 0.54706 0.0
C571 C 0.24734 0.48419 0.60225 0.0
C572 C 0.21815 0.46379 0.64051 0.0
C573 C 0.21024 0.42449 0.62401 0.0
C574 C 0.29919 0.48567 0.50519 0.0
C575 C 0.19593 0.48314 0.70031 0.0
C576 C 0.29378 0.56813 0.70325 0.0
C577 C 0.27326 0.60088 0.67744 0.0
C578 C 0.28657 0.53029 0.67738 0.0
C579 C 0.25811 0.5248 0.62407 0.0
C580 C 0.23794 0.55775 0.59628 0.0
C581 C 0.24575 0.5955 0.62334 0.0
C582 C 0.3087 0.49604 0.70874 0.0
C583 C 0.20742 0.55295 0.53932 0.0
H584 H 0.27501 0.4103 0.48968 0.0
H585 H 0.1886 0.40873 0.65486 0.0
H586 H 0.28714 0.51311 0.48234 0.0
H587 H 0.32375 0.49418 0.54043 0.0
H588 H 0.31111 0.46712 0.46186 0.0
H589 H 0.17273 0.46383 0.72239 0.0
H590 H 0.21661 0.49099 0.74322 0.0
H591 H 0.18202 0.51077 0.68203 0.0
H592 H 0.31543 0.5719 0.7445 0.0
H593 H 0.23001 0.62065 0.60271 0.0
H594 H 0.32309 0.47859 0.66648 0.0
H595 H 0.28787 0.47631 0.73633 0.0
H596 H 0.33151 0.5056 0.74693 0.0
H597 H 0.21989 0.53627 0.49419 0.0
H598 H 0.19627 0.58162 0.51996 0.0
H599 H 0.18226 0.53575 0.55991 0.0
C600 C 0.0839 0.01402 0.35453 0.0
C601 C 0.07763 0.05194 0.32843 0.0
C602 C 0.06026 0.98265 0.33262 0.0
C603 C 0.02993 0.98955 0.28324 0.0
C604 C 0.02272 0.02806 0.25848 0.0
C605 C 0.0467 0.05886 0.28151 0.0
C606 C 0.06835 0.94205 0.36084 0.0
C607 C 0.99046 0.03654 0.20605 0.0
C608 C 0.99346 0.9091 0.16198 0.0
C609 C 0.95711 0.90027 0.19255 0.0
C610 C 0.0183 0.93713 0.19263 0.0
C611 C 0.0064 0.95647 0.25535 0.0
C612 C 0.97056 0.94626 0.28824 0.0
C613 C 0.94629 0.91824 0.25634 0.0
C614 C 0.05632 0.94743 0.15603 0.0
C615 C 0.95699 0.96627 0.35518 0.0
H616 H 0.10763 0.00888 0.39145 0.0
H617 H 0.04214 0.08815 0.26078 0.0
H618 H 0.04127 0.92959 0.38438 0.0
H619 H 0.07733 0.92231 0.31704 0.0
H620 H 0.09189 0.94205 0.40135 0.0
H621 H 0.98769 0.06839 0.19445 0.0
H622 H 0.99647 0.02069 0.15601 0.0
H623 H 0.96186 0.02581 0.22638 0.0
H624 H 1.00166 0.89544 0.11241 0.0
H625 H 0.91831 0.911 0.28043 0.0
H626 H 0.08116 0.94615 0.19372 0.0
H627 H 0.05466 0.97795 0.13594 0.0
H628 H 0.06277 0.92747 0.11103 0.0
H629 H 0.98057 0.96572 0.39543 0.0
H630 H 0.93028 0.95232 0.37757 0.0
H631 H 0.95027 0.99756 0.34419 0.0
C632 C 0.58099 0.50716 0.32151 0.0
C633 C 0.56982 0.4677 0.32866 0.0
C634 C 0.55652 0.53759 0.34532 0.0
C635 C 0.51953 0.52834 0.37495 0.0
C636 C 0.50623 0.48897 0.37465 0.0
C637 C 0.53169 0.45902 0.35207 0.0
C638 C 0.5718 0.57918 0.34458 0.0
C639 C 0.46644 0.47806 0.40385 0.0
C640 C 0.48217 0.59019 0.52728 0.0
C641 C 0.45378 0.6136 0.49458 0.0
C642 C 0.50424 0.56291 0.48845 0.0
C643 C 0.49739 0.55865 0.41518 0.0
C644 C 0.46908 0.5826 0.38156 0.0
C645 C 0.44768 0.61002 0.42172 0.0
C646 C 0.53447 0.5382 0.52622 0.0
C647 C 0.46056 0.57839 0.30384 0.0
H648 H 0.60997 0.51416 0.30143 0.0
H649 H 0.52264 0.42871 0.35785 0.0
H650 H 0.54914 0.59968 0.32442 0.0
H651 H 0.57892 0.58841 0.39922 0.0
H652 H 0.59873 0.58209 0.31185 0.0
H653 H 0.45797 0.44761 0.38922 0.0
H654 H 0.46704 0.48029 0.46217 0.0
H655 H 0.4435 0.49857 0.38463 0.0
H656 H 0.48696 0.59315 0.58351 0.0
H657 H 0.42526 0.62776 0.39658 0.0
H658 H 0.56358 0.54132 0.50044 0.0
H659 H 0.52614 0.50676 0.52309 0.0
H660 H 0.53739 0.54646 0.58264 0.0
H661 H 0.48804 0.58121 0.27276 0.0
H662 H 0.4391 0.60063 0.28503 0.0
H663 H 0.44855 0.54871 0.293 0.0
C664 C 0.07533 0.06421 0.73795 0.0
C665 C 0.08039 0.06646 0.66466 0.0
C666 C 0.04808 0.0382 0.76755 0.0
C667 C 0.02535 0.01399 0.72271 0.0
C668 C 0.03111 0.01538 0.64883 0.0
C669 C 0.05862 0.04159 0.62072 0.0
C670 C 0.04255 0.0377 0.84651 0.0
C671 C 0.00738 0.99004 0.59924 0.0
C672 C 0.97105 0.92506 0.7927 0.0
C673 C 0.9324 0.93919 0.79442 0.0
C674 C 1.00201 0.94945 0.7713 0.0
C675 C 0.9939 0.98884 0.75236 0.0
C676 C 0.9551 0.00367 0.75773 0.0
C677 C 0.92469 0.97847 0.77807 0.0
C678 C 0.04299 0.93262 0.76595 0.0
C679 C 0.94543 0.04573 0.7395 0.0
H680 H 0.09163 0.08386 0.77212 0.0
H681 H 0.06277 0.043 0.56414 0.0
H682 H 0.0125 0.04801 0.85998 0.0
H683 H 0.04545 0.00731 0.86672 0.0
H684 H 0.06413 0.0567 0.87419 0.0
H685 H 0.01704 0.99305 0.54357 0.0
H686 H 0.00978 0.95872 0.6146 0.0
H687 H 0.97587 0.99831 0.60272 0.0
H688 H 0.97674 0.89449 0.80501 0.0
H689 H 0.89467 0.98922 0.77999 0.0
H690 H 0.06403 0.95131 0.79537 0.0
H691 H 0.05252 0.93233 0.71002 0.0
H692 H 0.04473 0.90219 0.78669 0.0
H693 H 0.965 0.0661 0.76865 0.0
H694 H 0.91442 0.05339 0.75196 0.0
H695 H 0.95049 0.05063 0.68246 0.0
C696 C 0.53109 0.43192 0.10984 0.0
C697 C 0.56738 0.42431 0.07793 0.0
C698 C 0.50487 0.45894 0.08005 0.0
C699 C 0.51522 0.47803 0.01649 0.0
C700 C 0.55192 0.47026 -0.01586 0.0
C701 C 0.57769 0.44356 0.01556 0.0
C702 C 0.46625 0.46709 0.11659 0.0
C703 C 0.56384 0.48993 0.91617 0.0
C704 C 0.43429 0.51945 0.90196 0.0
C705 C 0.43693 0.55952 0.91749 0.0
C706 C 0.45972 0.49249 0.93384 0.0
C707 C 0.48771 0.50608 -0.01668 0.0
C708 C 0.49024 0.5466 -0.0005 0.0
C709 C 0.46497 0.57298 0.96571 0.0
C710 C 0.45675 0.44956 0.91442 0.0
C711 C 0.51941 0.56199 0.05273 0.0
H712 H 0.52349 0.41704 0.1584 0.0
H713 H 0.60575 0.43719 -0.00921 0.0
H714 H 0.46386 0.4988 0.12954 0.0
H715 H 0.4415 0.45978 0.08094 0.0
H716 H 0.46294 0.44998 0.16598 0.0
H717 H 0.59335 0.48034 0.89772 0.0
H718 H 0.54208 0.48324 0.87437 0.0
H719 H 0.56415 0.52228 0.92334 0.0
H720 H 0.41242 0.50934 0.8646 0.0
H721 H 0.46643 0.60405 -0.02177 0.0
H722 H 0.45072 0.43186 0.96217 0.0
H723 H 0.48514 0.43917 0.89226 0.0
H724 H 0.43323 0.44387 0.87519 0.0
H725 H 0.51482 0.54738 0.10425 0.0
H726 H 0.51691 0.59425 0.06046 0.0
H727 H 0.54978 0.55501 0.03537 0.0
loop_
_geom_bond_atom_site_label_1
_geom_bond_atom_site_label_2
_geom_bond_distance
_geom_bond_site_symmetry_2
_ccdc_geom_bond_type
Cd0 N3 2.334 . S
Cd0 N29 2.304 . S
Cd0 O36 2.268 . S
Cd0 O39 2.273 . S
Cd0 O40 2.417 . S
Cd0 O41 2.330 . S
Cd1 N16 2.304 . S
Cd1 N20 2.334 . S
Cd1 O37 2.273 . S
Cd1 O38 2.268 . S
Cd1 O42 2.417 . S
Cd1 O43 2.330 . S
C2 N3 1.332 . S
C2 C6 1.381 . S
C2 H8 0.931 . S
N3 Cd0 2.334 . S
N3 C2 1.332 . S
N3 C7 1.328 . S
C4 C5 1.396 . S
C4 C7 1.378 . S
C4 H46 0.931 . S
C5 C4 1.396 . S
C5 C6 1.382 . S
C6 C2 1.381 . S
C6 C5 1.382 . S
C6 H47 0.930 . S
C7 N3 1.328 . S
C7 C4 1.378 . S
C7 H9 0.930 . S
H8 C2 0.931 . S
H9 C7 0.930 . S
C10 O36 1.238 . S
C10 O37 1.253 1_554 S
C11 C12 1.379 . S
C11 N16 1.337 . S
C11 H17 0.929 . S
C12 C11 1.379 . S
C12 C13 1.380 . S
C12 H48 0.929 . S
C13 C12 1.380 . S
C13 C14 1.399 . S
C14 C13 1.399 . S
C14 C15 1.376 . S
C14 H49 0.931 . S
C15 C14 1.376 . S
C15 N16 1.338 . S
C15 H18 0.930 . S
N16 Cd1 2.304 . S
N16 C11 1.337 . S
N16 C15 1.338 . S
H17 C11 0.929 . S
H18 C15 0.930 . S
C19 N20 1.332 . S
C19 C23 1.381 . S
C19 H25 0.931 . S
N20 Cd1 2.334 . S
N20 C19 1.332 . S
N20 C24 1.328 . S
C21 C22 1.396 . S
C21 C24 1.378 . S
C21 H50 0.931 . S
C22 C21 1.396 . S
C22 C23 1.382 . S
C23 C19 1.381 . S
C23 C22 1.382 . S
C23 H51 0.930 . S
C24 N20 1.328 . S
C24 C21 1.378 . S
C24 H26 0.930 . S
H25 C19 0.931 . S
H26 C24 0.930 . S
C27 O38 1.238 . S
C27 O39 1.253 1_556 S
C28 O40 1.239 . S
C28 O41 1.230 . S
N29 Cd0 2.304 . S
N29 C30 1.337 . S
N29 C34 1.338 . S
C30 N29 1.337 . S
C30 C31 1.379 . S
C30 H44 0.929 . S
C31 C30 1.379 . S
C31 C32 1.380 . S
C31 H52 0.929 . S
C32 C31 1.380 . S
C32 C33 1.399 . S
C33 C32 1.399 . S
C33 C34 1.376 . S
C33 H53 0.931 . S
C34 N29 1.338 . S
C34 C33 1.376 . S
C34 H45 0.930 . S
C35 O42 1.239 . S
C35 O43 1.230 . S
O36 Cd0 2.268 . S
O36 C10 1.238 . S
O37 Cd1 2.273 . S
O37 C10 1.253 1_556 S
O38 Cd1 2.268 . S
O38 C27 1.238 . S
O39 Cd0 2.273 . S
O39 C27 1.253 1_554 S
O40 Cd0 2.417 . S
O40 C28 1.239 . S
O41 Cd0 2.330 . S
O41 C28 1.230 . S
O42 Cd1 2.417 . S
O42 C35 1.239 . S
O43 Cd1 2.330 . S
O43 C35 1.230 . S
H44 C30 0.929 . S
H45 C34 0.930 . S
H46 C4 0.931 . S
H47 C6 0.930 . S
H48 C12 0.929 . S
H49 C14 0.931 . S
H50 C21 0.931 . S
H51 C23 0.930 . S
H52 C31 0.929 . S
H53 C33 0.931 . S
Cd54 N57 2.334 . S
Cd54 N83 2.304 . S
Cd54 O90 2.268 . S
Cd54 O93 2.273 . S
Cd54 O94 2.417 . S
Cd54 O95 2.330 . S
Cd55 N70 2.304 . S
Cd55 N74 2.334 . S
Cd55 O91 2.273 . S
Cd55 O92 2.268 . S
Cd55 O96 2.417 . S
Cd55 O97 2.330 . S
C56 N57 1.332 . S
C56 C60 1.381 . S
C56 H62 0.931 . S
N57 Cd54 2.334 . S
N57 C56 1.332 . S
N57 C61 1.328 . S
C58 C59 1.396 . S
C58 C61 1.378 . S
C58 H100 0.931 . S
C59 C58 1.396 . S
C59 C60 1.382 . S
C60 C56 1.381 . S
C60 C59 1.382 . S
C60 H101 0.930 . S
C61 N57 1.328 . S
C61 C58 1.378 . S
C61 H63 0.930 . S
H62 C56 0.931 . S
H63 C61 0.930 . S
C64 O90 1.238 . S
C64 O91 1.253 . S
C65 C66 1.379 . S
C65 N70 1.337 . S
C65 H71 0.929 . S
C66 C65 1.379 . S
C66 C67 1.380 . S
C66 H102 0.929 . S
C67 C66 1.380 . S
C67 C68 1.399 . S
C68 C67 1.399 . S
C68 C69 1.376 . S
C68 H103 0.931 . S
C69 C68 1.376 . S
C69 N70 1.338 . S
C69 H72 0.930 . S
N70 Cd55 2.304 . S
N70 C65 1.337 . S
N70 C69 1.338 . S
H71 C65 0.929 . S
H72 C69 0.930 . S
C73 N74 1.332 . S
C73 C77 1.381 . S
C73 H79 0.931 . S
N74 Cd55 2.334 . S
N74 C73 1.332 . S
N74 C78 1.328 . S
C75 C76 1.396 . S
C75 C78 1.378 . S
C75 H104 0.931 . S
C76 C75 1.396 . S
C76 C77 1.382 . S
C77 C73 1.381 . S
C77 C76 1.382 . S
C77 H105 0.930 . S
C78 N74 1.328 . S
C78 C75 1.378 . S
C78 H80 0.930 . S
H79 C73 0.931 . S
H80 C78 0.930 . S
C81 O92 1.238 . S
C81 O93 1.253 . S
C82 O94 1.239 . S
C82 O95 1.230 . S
N83 Cd54 2.304 . S
N83 C84 1.337 . S
N83 C88 1.338 . S
C84 N83 1.337 . S
C84 C85 1.379 . S
C84 H98 0.929 . S
C85 C84 1.379 . S
C85 C86 1.380 . S
C85 H106 0.929 . S
C86 C85 1.380 . S
C86 C87 1.399 . S
C87 C86 1.399 . S
C87 C88 1.376 . S
C87 H107 0.931 . S
C88 N83 1.338 . S
C88 C87 1.376 . S
C88 H99 0.930 . S
C89 O96 1.239 1_556 S
C89 O97 1.230 1_556 S
O90 Cd54 2.268 . S
O90 C64 1.238 . S
O91 Cd55 2.273 . S
O91 C64 1.253 . S
O92 Cd55 2.268 . S
O92 C81 1.238 . S
O93 Cd54 2.273 . S
O93 C81 1.253 . S
O94 Cd54 2.417 . S
O94 C82 1.239 . S
O95 Cd54 2.330 . S
O95 C82 1.230 . S
O96 Cd55 2.417 . S
O96 C89 1.239 1_554 S
O97 Cd55 2.330 . S
O97 C89 1.230 1_554 S
H98 C84 0.929 . S
H99 C88 0.930 . S
H100 C58 0.931 . S
H101 C60 0.930 . S
H102 C66 0.929 . S
H103 C68 0.931 . S
H104 C75 0.931 . S
H105 C77 0.930 . S
H106 C85 0.929 . S
H107 C87 0.931 . S
Cd108 N111 2.334 . S
Cd108 N137 2.304 . S
Cd108 O144 2.268 . S
Cd108 O147 2.273 . S
Cd108 O148 2.417 . S
Cd108 O149 2.330 . S
Cd109 N124 2.304 . S
Cd109 N128 2.334 . S
Cd109 O145 2.273 . S
Cd109 O146 2.268 . S
Cd109 O150 2.417 . S
Cd109 O151 2.330 . S
C110 N111 1.332 . S
C110 C114 1.381 . S
C110 H116 0.931 . S
N111 Cd108 2.334 . S
N111 C110 1.332 . S
N111 C115 1.328 . S
C112 C113 1.396 . S
C112 C115 1.378 . S
C112 H154 0.931 . S
C113 C112 1.396 . S
C113 C114 1.382 . S
C114 C110 1.381 . S
C114 C113 1.382 . S
C114 H155 0.930 . S
C115 N111 1.328 . S
C115 C112 1.378 . S
C115 H117 0.930 . S
H116 C110 0.931 . S
H117 C115 0.930 . S
C118 O144 1.238 . S
C118 O145 1.253 . S
C119 C120 1.379 . S
C119 N124 1.337 . S
C119 H125 0.929 . S
C120 C119 1.379 . S
C120 C121 1.380 . S
C120 H156 0.929 . S
C121 C120 1.380 . S
C121 C122 1.399 . S
C122 C121 1.399 . S
C122 C123 1.376 . S
C122 H157 0.931 . S
C123 C122 1.376 . S
C123 N124 1.338 . S
C123 H126 0.930 . S
N124 Cd109 2.304 . S
N124 C119 1.337 . S
N124 C123 1.338 . S
H125 C119 0.929 . S
H126 C123 0.930 . S
C127 N128 1.332 . S
C127 C131 1.381 . S
C127 H133 0.931 . S
N128 Cd109 2.334 . S
N128 C127 1.332 . S
N128 C132 1.328 . S
C129 C130 1.396 . S
C129 C132 1.378 . S
C129 H158 0.931 . S
C130 C129 1.396 . S
C130 C131 1.382 . S
C131 C127 1.381 . S
C131 C130 1.382 . S
C131 H159 0.930 . S
C132 N128 1.328 . S
C132 C129 1.378 . S
C132 H134 0.930 . S
H133 C127 0.931 . S
H134 C132 0.930 . S
C135 O146 1.238 . S
C135 O147 1.253 . S
C136 O148 1.239 . S
C136 O149 1.230 . S
N137 Cd108 2.304 . S
N137 C138 1.337 . S
N137 C142 1.338 . S
C138 N137 1.337 . S
C138 C139 1.379 . S
C138 H152 0.929 . S
C139 C138 1.379 . S
C139 C140 1.380 . S
C139 H160 0.929 . S
C140 C139 1.380 . S
C140 C141 1.399 . S
C141 C140 1.399 . S
C141 C142 1.376 . S
C141 H161 0.931 . S
C142 N137 1.338 . S
C142 C141 1.376 . S
C142 H153 0.930 . S
C143 O150 1.239 . S
C143 O151 1.230 . S
O144 Cd108 2.268 . S
O144 C118 1.238 . S
O145 Cd109 2.273 . S
O145 C118 1.253 . S
O146 Cd109 2.268 . S
O146 C135 1.238 . S
O147 Cd108 2.273 . S
O147 C135 1.253 . S
O148 Cd108 2.417 . S
O148 C136 1.239 . S
O149 Cd108 2.330 . S
O149 C136 1.230 . S
O150 Cd109 2.417 . S
O150 C143 1.239 . S
O151 Cd109 2.330 . S
O151 C143 1.230 . S
H152 C138 0.929 . S
H153 C142 0.930 . S
H154 C112 0.931 . S
H155 C114 0.930 . S
H156 C120 0.929 . S
H157 C122 0.931 . S
H158 C129 0.931 . S
H159 C131 0.930 . S
H160 C139 0.929 . S
H161 C141 0.931 . S
Cd162 N165 2.334 . S
Cd162 N191 2.304 . S
Cd162 O198 2.268 . S
Cd162 O201 2.273 . S
Cd162 O202 2.417 . S
Cd162 O203 2.330 . S
Cd163 N178 2.304 . S
Cd163 N182 2.334 . S
Cd163 O199 2.273 . S
Cd163 O200 2.268 . S
Cd163 O204 2.417 . S
Cd163 O205 2.330 . S
C164 N165 1.332 . S
C164 C168 1.381 . S
C164 H170 0.931 . S
N165 Cd162 2.334 . S
N165 C164 1.332 . S
N165 C169 1.328 . S
C166 C167 1.396 . S
C166 C169 1.378 . S
C166 H208 0.931 . S
C167 C166 1.396 . S
C167 C168 1.382 . S
C168 C164 1.381 . S
C168 C167 1.382 . S
C168 H209 0.930 . S
C169 N165 1.328 . S
C169 C166 1.378 . S
C169 H171 0.930 . S
H170 C164 0.931 . S
H171 C169 0.930 . S
C172 O198 1.238 . S
C172 O199 1.253 . S
C173 C174 1.379 . S
C173 N178 1.337 . S
C173 H179 0.929 . S
C174 C173 1.379 . S
C174 C175 1.380 . S
C174 H210 0.929 . S
C175 C174 1.380 . S
C175 C176 1.399 . S
C176 C175 1.399 . S
C176 C177 1.376 . S
C176 H211 0.931 . S
C177 C176 1.376 . S
C177 N178 1.338 . S
C177 H180 0.930 . S
N178 Cd163 2.304 . S
N178 C173 1.337 . S
N178 C177 1.338 . S
H179 C173 0.929 . S
H180 C177 0.930 . S
C181 N182 1.332 . S
C181 C185 1.381 . S
C181 H187 0.931 . S
N182 Cd163 2.334 . S
N182 C181 1.332 . S
N182 C186 1.328 . S
C183 C184 1.396 . S
C183 C186 1.378 . S
C183 H212 0.931 . S
C184 C183 1.396 . S
C184 C185 1.382 . S
C185 C181 1.381 . S
C185 C184 1.382 . S
C185 H213 0.930 . S
C186 N182 1.328 . S
C186 C183 1.378 . S
C186 H188 0.930 . S
H187 C181 0.931 . S
H188 C186 0.930 . S
C189 O200 1.238 . S
C189 O201 1.253 . S
C190 O202 1.239 . S
C190 O203 1.230 . S
N191 Cd162 2.304 . S
N191 C192 1.337 . S
N191 C196 1.338 . S
C192 N191 1.337 . S
C192 C193 1.379 . S
C192 H206 0.929 . S
C193 C192 1.379 . S
C193 C194 1.380 . S
C193 H214 0.929 . S
C194 C193 1.380 . S
C194 C195 1.399 . S
C195 C194 1.399 . S
C195 C196 1.376 . S
C195 H215 0.931 . S
C196 N191 1.338 . S
C196 C195 1.376 . S
C196 H207 0.930 . S
C197 O204 1.239 1_554 S
C197 O205 1.230 1_554 S
O198 Cd162 2.268 . S
O198 C172 1.238 . S
O199 Cd163 2.273 . S
O199 C172 1.253 . S
O200 Cd163 2.268 . S
O200 C189 1.238 . S
O201 Cd162 2.273 . S
O201 C189 1.253 . S
O202 Cd162 2.417 . S
O202 C190 1.239 . S
O203 Cd162 2.330 . S
O203 C190 1.230 . S
O204 Cd163 2.417 . S
O204 C197 1.239 1_556 S
O205 Cd163 2.330 . S
O205 C197 1.230 1_556 S
H206 C192 0.929 . S
H207 C196 0.930 . S
H208 C166 0.931 . S
H209 C168 0.930 . S
H210 C174 0.929 . S
H211 C176 0.931 . S
H212 C183 0.931 . S
H213 C185 0.930 . S
H214 C193 0.929 . S
H215 C195 0.931 . S
C216 C217 1.391 . S
C216 C218 1.394 . S
C216 H232 0.931 . S
C217 C216 1.391 . S
C217 C221 1.376 . S
C218 C216 1.394 . S
C218 C219 1.369 . S
C218 C222 1.531 . S
C219 C218 1.369 . S
C219 C220 1.410 . S
C219 C227 1.503 . S
C220 C219 1.410 . S
C220 C221 1.392 . S
C220 C223 1.511 . S
C221 C217 1.376 . S
C221 C220 1.392 . S
C221 H233 0.929 . S
C222 C218 1.531 . S
C222 H234 0.960 . S
C222 H235 0.962 . S
C222 H236 0.960 . S
C223 C220 1.511 . S
C223 H237 0.961 . S
C223 H238 0.961 . S
C223 H239 0.961 . S
C224 C225 1.370 . S
C224 C226 1.363 . S
C224 H240 0.931 . S
C225 C224 1.370 . S
C225 C229 1.408 . S
C226 C224 1.363 . S
C226 C227 1.370 . S
C226 C230 1.524 . S
C227 C219 1.503 . S
C227 C226 1.370 . S
C227 C228 1.403 . S
C228 C227 1.403 . S
C228 C229 1.404 . S
C228 C231 1.539 . S
C229 C225 1.408 . S
C229 C228 1.404 . S
C229 H241 0.930 . S
C230 C226 1.524 . S
C230 H242 0.956 . S
C230 H243 0.961 . S
C230 H244 0.961 . S
C231 C228 1.539 . S
C231 H245 0.958 . S
C231 H246 0.961 . S
C231 H247 0.960 . S
H232 C216 0.931 . S
H233 C221 0.929 . S
H234 C222 0.960 . S
H235 C222 0.962 . S
H236 C222 0.960 . S
H237 C223 0.961 . S
H238 C223 0.961 . S
H239 C223 0.961 . S
H240 C224 0.931 . S
H241 C229 0.930 . S
H242 C230 0.956 . S
H243 C230 0.961 . S
H244 C230 0.961 . S
H245 C231 0.958 . S
H246 C231 0.961 . S
H247 C231 0.960 . S
C248 C249 1.391 . S
C248 C250 1.394 . S
C248 H264 0.931 . S
C249 C248 1.391 . S
C249 C253 1.376 . S
C250 C248 1.394 . S
C250 C251 1.369 . S
C250 C254 1.531 . S
C251 C250 1.369 . S
C251 C252 1.410 . S
C251 C259 1.503 . S
C252 C251 1.410 . S
C252 C253 1.392 . S
C252 C255 1.511 . S
C253 C249 1.376 . S
C253 C252 1.392 . S
C253 H265 0.929 . S
C254 C250 1.531 . S
C254 H266 0.960 . S
C254 H267 0.962 . S
C254 H268 0.960 . S
C255 C252 1.511 . S
C255 H269 0.961 . S
C255 H270 0.961 . S
C255 H271 0.961 . S
C256 C257 1.370 . S
C256 C258 1.363 . S
C256 H272 0.931 . S
C257 C256 1.370 . S
C257 C261 1.408 . S
C258 C256 1.363 . S
C258 C259 1.370 . S
C258 C262 1.524 . S
C259 C251 1.503 . S
C259 C258 1.370 . S
C259 C260 1.403 . S
C260 C259 1.403 . S
C260 C261 1.404 . S
C260 C263 1.539 . S
C261 C257 1.408 . S
C261 C260 1.404 . S
C261 H273 0.930 . S
C262 C258 1.524 . S
C262 H274 0.956 . S
C262 H275 0.961 . S
C262 H276 0.961 . S
C263 C260 1.539 . S
C263 H277 0.958 . S
C263 H278 0.961 . S
C263 H279 0.960 . S
H264 C248 0.931 . S
H265 C253 0.929 . S
H266 C254 0.960 . S
H267 C254 0.962 . S
H268 C254 0.960 . S
H269 C255 0.961 . S
H270 C255 0.961 . S
H271 C255 0.961 . S
H272 C256 0.931 . S
H273 C261 0.930 . S
H274 C262 0.956 . S
H275 C262 0.961 . S
H276 C262 0.961 . S
H277 C263 0.958 . S
H278 C263 0.961 . S
H279 C263 0.960 . S
C280 C281 1.391 . S
C280 C282 1.394 . S
C280 H296 0.931 . S
C281 C280 1.391 . S
C281 C285 1.376 . S
C282 C280 1.394 . S
C282 C283 1.369 . S
C282 C286 1.531 . S
C283 C282 1.369 . S
C283 C284 1.410 . S
C283 C291 1.503 1_556 S
C284 C283 1.410 . S
C284 C285 1.392 . S
C284 C287 1.511 . S
C285 C281 1.376 . S
C285 C284 1.392 . S
C285 H297 0.929 . S
C286 C282 1.531 . S
C286 H298 0.960 1_556 S
C286 H299 0.962 . S
C286 H300 0.960 . S
C287 C284 1.511 . S
C287 H301 0.961 . S
C287 H302 0.961 1_556 S
C287 H303 0.961 . S
C288 C289 1.370 . S
C288 C290 1.363 . S
C288 H304 0.931 . S
C289 C288 1.370 . S
C289 C293 1.408 . S
C290 C288 1.363 . S
C290 C291 1.370 . S
C290 C294 1.524 . S
C291 C283 1.503 1_554 S
C291 C290 1.370 . S
C291 C292 1.403 . S
C292 C291 1.403 . S
C292 C293 1.404 . S
C292 C295 1.539 . S
C293 C289 1.408 . S
C293 C292 1.404 . S
C293 H305 0.930 . S
C294 C290 1.524 . S
C294 H306 0.956 1_554 S
C294 H307 0.961 1_554 S
C294 H308 0.961 . S
C295 C292 1.539 . S
C295 H309 0.958 . S
C295 H310 0.961 . S
C295 H311 0.960 . S
H296 C280 0.931 . S
H297 C285 0.929 . S
H298 C286 0.960 1_554 S
H299 C286 0.962 . S
H300 C286 0.960 . S
H301 C287 0.961 . S
H302 C287 0.961 1_554 S
H303 C287 0.961 . S
H304 C288 0.931 . S
H305 C293 0.930 . S
H306 C294 0.956 1_556 S
H307 C294 0.961 1_556 S
H308 C294 0.961 . S
H309 C295 0.958 . S
H310 C295 0.961 . S
H311 C295 0.960 . S
C312 C313 1.391 . S
C312 C314 1.394 . S
C312 H328 0.931 . S
C313 C312 1.391 . S
C313 C317 1.376 . S
C314 C312 1.394 . S
C314 C315 1.369 . S
C314 C318 1.531 . S
C315 C314 1.369 . S
C315 C316 1.410 . S
C315 C323 1.503 . S
C316 C315 1.410 . S
C316 C317 1.392 . S
C316 C319 1.511 . S
C317 C313 1.376 . S
C317 C316 1.392 . S
C317 H329 0.929 . S
C318 C314 1.531 . S
C318 H330 0.960 . S
C318 H331 0.962 . S
C318 H332 0.960 . S
C319 C316 1.511 . S
C319 H333 0.961 . S
C319 H334 0.961 . S
C319 H335 0.961 . S
C320 C321 1.370 . S
C320 C322 1.363 . S
C320 H336 0.931 . S
C321 C320 1.370 . S
C321 C325 1.408 . S
C322 C320 1.363 . S
C322 C323 1.370 . S
C322 C326 1.524 . S
C323 C315 1.503 . S
C323 C322 1.370 . S
C323 C324 1.403 . S
C324 C323 1.403 . S
C324 C325 1.404 . S
C324 C327 1.539 . S
C325 C321 1.408 . S
C325 C324 1.404 . S
C325 H337 0.930 . S
C326 C322 1.524 . S
C326 H338 0.956 . S
C326 H339 0.961 . S
C326 H340 0.961 . S
C327 C324 1.539 . S
C327 H341 0.958 . S
C327 H342 0.961 . S
C327 H343 0.960 . S
H328 C312 0.931 . S
H329 C317 0.929 . S
H330 C318 0.960 . S
H331 C318 0.962 . S
H332 C318 0.960 . S
H333 C319 0.961 . S
H334 C319 0.961 . S
H335 C319 0.961 . S
H336 C320 0.931 . S
H337 C325 0.930 . S
H338 C326 0.956 . S
H339 C326 0.961 . S
H340 C326 0.961 . S
H341 C327 0.958 . S
H342 C327 0.961 . S
H343 C327 0.960 . S
C344 C345 1.391 . S
C344 C346 1.394 . S
C344 H360 0.931 . S
C345 C344 1.391 . S
C345 C349 1.376 . S
C346 C344 1.394 . S
C346 C347 1.369 . S
C346 C350 1.531 . S
C347 C346 1.369 . S
C347 C348 1.410 . S
C347 C355 1.503 . S
C348 C347 1.410 . S
C348 C349 1.392 . S
C348 C351 1.511 . S
C349 C345 1.376 . S
C349 C348 1.392 . S
C349 H361 0.929 . S
C350 C346 1.531 . S
C350 H362 0.960 . S
C350 H363 0.962 . S
C350 H364 0.960 1_556 S
C351 C348 1.511 . S
C351 H365 0.961 . S
C351 H366 0.961 . S
C351 H367 0.961 . S
C352 C353 1.370 . S
C352 C354 1.363 . S
C352 H368 0.931 . S
C353 C352 1.370 . S
C353 C357 1.408 . S
C354 C352 1.363 . S
C354 C355 1.370 . S
C354 C358 1.524 . S
C355 C347 1.503 . S
C355 C354 1.370 . S
C355 C356 1.403 . S
C356 C355 1.403 . S
C356 C357 1.404 . S
C356 C359 1.539 . S
C357 C353 1.408 . S
C357 C356 1.404 . S
C357 H369 0.930 . S
C358 C354 1.524 . S
C358 H370 0.956 . S
C358 H371 0.961 . S
C358 H372 0.961 . S
C359 C356 1.539 . S
C359 H373 0.958 . S
C359 H374 0.961 . S
C359 H375 0.960 . S
H360 C344 0.931 . S
H361 C349 0.929 . S
H362 C350 0.960 . S
H363 C350 0.962 . S
H364 C350 0.960 1_554 S
H365 C351 0.961 . S
H366 C351 0.961 . S
H367 C351 0.961 . S
H368 C352 0.931 . S
H369 C357 0.930 . S
H370 C358 0.956 . S
H371 C358 0.961 . S
H372 C358 0.961 . S
H373 C359 0.958 . S
H374 C359 0.961 . S
H375 C359 0.960 . S
C376 C377 1.391 . S
C376 C378 1.394 . S
C376 H392 0.931 . S
C377 C376 1.391 . S
C377 C381 1.376 . S
C378 C376 1.394 . S
C378 C379 1.369 . S
C378 C382 1.531 1_554 S
C379 C378 1.369 . S
C379 C380 1.410 . S
C379 C387 1.503 . S
C380 C379 1.410 . S
C380 C381 1.392 . S
C380 C383 1.511 . S
C381 C377 1.376 . S
C381 C380 1.392 . S
C381 H393 0.929 . S
C382 C378 1.531 1_556 S
C382 H394 0.960 . S
C382 H395 0.962 1_556 S
C382 H396 0.960 . S
C383 C380 1.511 . S
C383 H397 0.961 . S
C383 H398 0.961 . S
C383 H399 0.961 . S
C384 C385 1.370 . S
C384 C386 1.363 1_565 S
C384 H400 0.931 . S
C385 C384 1.370 . S
C385 C389 1.408 . S
C386 C384 1.363 1_545 S
C386 C387 1.370 . S
C386 C390 1.524 . S
C387 C379 1.503 . S
C387 C386 1.370 . S
C387 C388 1.403 . S
C388 C387 1.403 . S
C388 C389 1.404 1_545 S
C388 C391 1.539 1_554 S
C389 C385 1.408 . S
C389 C388 1.404 1_565 S
C389 H401 0.930 1_554 S
C390 C386 1.524 . S
C390 H402 0.956 . S
C390 H403 0.961 . S
C390 H404 0.961 . S
C391 C388 1.539 1_556 S
C391 H405 0.958 . S
C391 H406 0.961 . S
C391 H407 0.960 1_556 S
H392 C376 0.931 . S
H393 C381 0.929 . S
H394 C382 0.960 . S
H395 C382 0.962 1_554 S
H396 C382 0.960 . S
H397 C383 0.961 . S
H398 C383 0.961 . S
H399 C383 0.961 . S
H400 C384 0.931 . S
H401 C389 0.930 1_556 S
H402 C390 0.956 . S
H403 C390 0.961 . S
H404 C390 0.961 . S
H405 C391 0.958 . S
H406 C391 0.961 . S
H407 C391 0.960 1_554 S
C408 C409 1.391 . S
C408 C410 1.394 . S
C408 H424 0.931 . S
C409 C408 1.391 . S
C409 C413 1.376 . S
C410 C408 1.394 . S
C410 C411 1.369 . S
C410 C414 1.531 . S
C411 C410 1.369 . S
C411 C412 1.410 . S
C411 C419 1.503 . S
C412 C411 1.410 . S
C412 C413 1.392 . S
C412 C415 1.511 . S
C413 C409 1.376 . S
C413 C412 1.392 . S
C413 H425 0.929 . S
C414 C410 1.531 . S
C414 H426 0.960 . S
C414 H427 0.962 . S
C414 H428 0.960 . S
C415 C412 1.511 . S
C415 H429 0.961 . S
C415 H430 0.961 . S
C415 H431 0.961 . S
C416 C417 1.370 . S
C416 C418 1.363 . S
C416 H432 0.931 . S
C417 C416 1.370 . S
C417 C421 1.408 . S
C418 C416 1.363 . S
C418 C419 1.370 . S
C418 C422 1.524 . S
C419 C411 1.503 . S
C419 C418 1.370 . S
C419 C420 1.403 . S
C420 C419 1.403 . S
C420 C421 1.404 . S
C420 C423 1.539 . S
C421 C417 1.408 . S
C421 C420 1.404 . S
C421 H433 0.930 . S
C422 C418 1.524 . S
C422 H434 0.956 . S
C422 H435 0.961 . S
C422 H436 0.961 . S
C423 C420 1.539 . S
C423 H437 0.958 . S
C423 H438 0.961 . S
C423 H439 0.960 . S
H424 C408 0.931 . S
H425 C413 0.929 . S
H426 C414 0.960 . S
H427 C414 0.962 . S
H428 C414 0.960 . S
H429 C415 0.961 . S
H430 C415 0.961 . S
H431 C415 0.961 . S
H432 C416 0.931 . S
H433 C421 0.930 . S
H434 C422 0.956 . S
H435 C422 0.961 . S
H436 C422 0.961 . S
H437 C423 0.958 . S
H438 C423 0.961 . S
H439 C423 0.960 . S
C440 C441 1.391 . S
C440 C442 1.394 . S
C440 H456 0.931 . S
C441 C440 1.391 . S
C441 C445 1.376 . S
C442 C440 1.394 . S
C442 C443 1.369 . S
C442 C446 1.531 . S
C443 C442 1.369 . S
C443 C444 1.410 . S
C443 C451 1.503 . S
C444 C443 1.410 . S
C444 C445 1.392 . S
C444 C447 1.511 . S
C445 C441 1.376 . S
C445 C444 1.392 . S
C445 H457 0.929 . S
C446 C442 1.531 . S
C446 H458 0.960 . S
C446 H459 0.962 . S
C446 H460 0.960 . S
C447 C444 1.511 . S
C447 H461 0.961 . S
C447 H462 0.961 . S
C447 H463 0.961 . S
C448 C449 1.370 . S
C448 C450 1.363 1_545 S
C448 H464 0.931 . S
C449 C448 1.370 . S
C449 C453 1.408 . S
C450 C448 1.363 1_565 S
C450 C451 1.370 . S
C450 C454 1.524 . S
C451 C443 1.503 . S
C451 C450 1.370 . S
C451 C452 1.403 . S
C452 C451 1.403 . S
C452 C453 1.404 1_565 S
C452 C455 1.539 . S
C453 C449 1.408 . S
C453 C452 1.404 1_545 S
C453 H465 0.930 . S
C454 C450 1.524 . S
C454 H466 0.956 . S
C454 H467 0.961 . S
C454 H468 0.961 . S
C455 C452 1.539 . S
C455 H469 0.958 . S
C455 H470 0.961 . S
C455 H471 0.960 . S
H456 C440 0.931 . S
H457 C445 0.929 . S
H458 C446 0.960 . S
H459 C446 0.962 . S
H460 C446 0.960 . S
H461 C447 0.961 . S
H462 C447 0.961 . S
H463 C447 0.961 . S
H464 C448 0.931 . S
H465 C453 0.930 . S
H466 C454 0.956 . S
H467 C454 0.961 . S
H468 C454 0.961 . S
H469 C455 0.958 . S
H470 C455 0.961 . S
H471 C455 0.960 . S
C472 C473 1.391 . S
C472 C474 1.394 1_655 S
C472 H488 0.931 1_556 S
C473 C472 1.391 . S
C473 C477 1.376 . S
C474 C472 1.394 1_455 S
C474 C475 1.369 . S
C474 C478 1.531 . S
C475 C474 1.369 . S
C475 C476 1.410 . S
C475 C483 1.503 . S
C476 C475 1.410 . S
C476 C477 1.392 1_455 S
C476 C479 1.511 . S
C477 C473 1.376 . S
C477 C476 1.392 1_655 S
C477 H489 0.929 . S
C478 C474 1.531 . S
C478 H490 0.960 . S
C478 H491 0.962 1_556 S
C478 H492 0.960 . S
C479 C476 1.511 . S
C479 H493 0.961 . S
C479 H494 0.961 . S
C479 H495 0.961 . S
C480 C481 1.370 . S
C480 C482 1.363 . S
C480 H496 0.931 . S
C481 C480 1.370 . S
C481 C485 1.408 . S
C482 C480 1.363 . S
C482 C483 1.370 . S
C482 C486 1.524 . S
C483 C475 1.503 . S
C483 C482 1.370 . S
C483 C484 1.403 . S
C484 C483 1.403 . S
C484 C485 1.404 . S
C484 C487 1.539 . S
C485 C481 1.408 . S
C485 C484 1.404 . S
C485 H497 0.930 . S
C486 C482 1.524 . S
C486 H498 0.956 1_556 S
C486 H499 0.961 . S
C486 H500 0.961 1_556 S
C487 C484 1.539 . S
C487 H501 0.958 . S
C487 H502 0.961 . S
C487 H503 0.960 . S
H488 C472 0.931 1_554 S
H489 C477 0.929 . S
H490 C478 0.960 . S
H491 C478 0.962 1_554 S
H492 C478 0.960 . S
H493 C479 0.961 . S
H494 C479 0.961 . S
H495 C479 0.961 . S
H496 C480 0.931 . S
H497 C485 0.930 . S
H498 C486 0.956 1_554 S
H499 C486 0.961 . S
H500 C486 0.961 1_554 S
H501 C487 0.958 . S
H502 C487 0.961 . S
H503 C487 0.960 . S
C504 C505 1.391 . S
C504 C506 1.394 . S
C504 H520 0.931 . S
C505 C504 1.391 . S
C505 C509 1.376 . S
C506 C504 1.394 . S
C506 C507 1.369 . S
C506 C510 1.531 . S
C507 C506 1.369 . S
C507 C508 1.410 . S
C507 C515 1.503 . S
C508 C507 1.410 . S
C508 C509 1.392 . S
C508 C511 1.511 . S
C509 C505 1.376 . S
C509 C508 1.392 . S
C509 H521 0.929 . S
C510 C506 1.531 . S
C510 H522 0.960 . S
C510 H523 0.962 . S
C510 H524 0.960 . S
C511 C508 1.511 . S
C511 H525 0.961 . S
C511 H526 0.961 . S
C511 H527 0.961 . S
C512 C513 1.370 . S
C512 C514 1.363 . S
C512 H528 0.931 . S
C513 C512 1.370 . S
C513 C517 1.408 . S
C514 C512 1.363 . S
C514 C515 1.370 . S
C514 C518 1.524 . S
C515 C507 1.503 . S
C515 C514 1.370 . S
C515 C516 1.403 . S
C516 C515 1.403 . S
C516 C517 1.404 . S
C516 C519 1.539 . S
C517 C513 1.408 . S
C517 C516 1.404 . S
C517 H529 0.930 . S
C518 C514 1.524 . S
C518 H530 0.956 . S
C518 H531 0.961 . S
C518 H532 0.961 1_554 S
C519 C516 1.539 . S
C519 H533 0.958 . S
C519 H534 0.961 . S
C519 H535 0.960 . S
H520 C504 0.931 . S
H521 C509 0.929 . S
H522 C510 0.960 . S
H523 C510 0.962 . S
H524 C510 0.960 . S
H525 C511 0.961 . S
H526 C511 0.961 . S
H527 C511 0.961 . S
H528 C512 0.931 . S
H529 C517 0.930 . S
H530 C518 0.956 . S
H531 C518 0.961 . S
H532 C518 0.961 1_556 S
H533 C519 0.958 . S
H534 C519 0.961 . S
H535 C519 0.960 . S
C536 C537 1.391 . S
C536 C538 1.394 . S
C536 H552 0.931 . S
C537 C536 1.391 . S
C537 C541 1.376 . S
C538 C536 1.394 . S
C538 C539 1.369 . S
C538 C542 1.531 . S
C539 C538 1.369 . S
C539 C540 1.410 . S
C539 C547 1.503 . S
C540 C539 1.410 . S
C540 C541 1.392 . S
C540 C543 1.511 . S
C541 C537 1.376 . S
C541 C540 1.392 . S
C541 H553 0.929 . S
C542 C538 1.531 . S
C542 H554 0.960 . S
C542 H555 0.962 . S
C542 H556 0.960 . S
C543 C540 1.511 . S
C543 H557 0.961 . S
C543 H558 0.961 . S
C543 H559 0.961 . S
C544 C545 1.370 . S
C544 C546 1.363 1_455 S
C544 H560 0.931 . S
C545 C544 1.370 . S
C545 C549 1.408 . S
C546 C544 1.363 1_655 S
C546 C547 1.370 . S
C546 C550 1.524 . S
C547 C539 1.503 . S
C547 C546 1.370 . S
C547 C548 1.403 . S
C548 C547 1.403 . S
C548 C549 1.404 1_655 S
C548 C551 1.539 . S
C549 C545 1.408 . S
C549 C548 1.404 1_455 S
C549 H561 0.930 . S
C550 C546 1.524 . S
C550 H562 0.956 . S
C550 H563 0.961 . S
C550 H564 0.961 . S
C551 C548 1.539 . S
C551 H565 0.958 . S
C551 H566 0.961 . S
C551 H567 0.960 . S
H552 C536 0.931 . S
H553 C541 0.929 . S
H554 C542 0.960 . S
H555 C542 0.962 . S
H556 C542 0.960 . S
H557 C543 0.961 . S
H558 C543 0.961 . S
H559 C543 0.961 . S
H560 C544 0.931 . S
H561 C549 0.930 . S
H562 C550 0.956 . S
H563 C550 0.961 . S
H564 C550 0.961 . S
H565 C551 0.958 . S
H566 C551 0.961 . S
H567 C551 0.960 . S
C568 C569 1.391 . S
C568 C570 1.394 . S
C568 H584 0.931 . S
C569 C568 1.391 . S
C569 C573 1.376 . S
C570 C568 1.394 . S
C570 C571 1.369 . S
C570 C574 1.531 . S
C571 C570 1.369 . S
C571 C572 1.410 . S
C571 C579 1.503 . S
C572 C571 1.410 . S
C572 C573 1.392 . S
C572 C575 1.511 . S
C573 C569 1.376 . S
C573 C572 1.392 . S
C573 H585 0.929 . S
C574 C570 1.531 . S
C574 H586 0.960 . S
C574 H587 0.962 . S
C574 H588 0.960 . S
C575 C572 1.511 . S
C575 H589 0.961 . S
C575 H590 0.961 . S
C575 H591 0.961 . S
C576 C577 1.370 . S
C576 C578 1.363 . S
C576 H592 0.931 . S
C577 C576 1.370 . S
C577 C581 1.408 . S
C578 C576 1.363 . S
C578 C579 1.370 . S
C578 C582 1.524 . S
C579 C571 1.503 . S
C579 C578 1.370 . S
C579 C580 1.403 . S
C580 C579 1.403 . S
C580 C581 1.404 . S
C580 C583 1.539 . S
C581 C577 1.408 . S
C581 C580 1.404 . S
C581 H593 0.930 . S
C582 C578 1.524 . S
C582 H594 0.956 . S
C582 H595 0.961 . S
C582 H596 0.961 . S
C583 C580 1.539 . S
C583 H597 0.958 . S
C583 H598 0.961 . S
C583 H599 0.960 . S
H584 C568 0.931 . S
H585 C573 0.929 . S
H586 C574 0.960 . S
H587 C574 0.962 . S
H588 C574 0.960 . S
H589 C575 0.961 . S
H590 C575 0.961 . S
H591 C575 0.961 . S
H592 C576 0.931 . S
H593 C581 0.930 . S
H594 C582 0.956 . S
H595 C582 0.961 . S
H596 C582 0.961 . S
H597 C583 0.958 . S
H598 C583 0.961 . S
H599 C583 0.960 . S
C600 C601 1.391 1_565 S
C600 C602 1.394 . S
C600 H616 0.931 . S
C601 C600 1.391 1_545 S
C601 C605 1.376 . S
C602 C600 1.394 . S
C602 C603 1.381 . S
C602 C606 1.531 . S
C603 C602 1.381 . S
C603 C604 1.388 1_565 S
C603 C611 1.513 1_455 S
C604 C603 1.388 1_545 S
C604 C605 1.392 . S
C604 C607 1.511 . S
C605 C601 1.376 . S
C605 C604 1.392 . S
C605 H617 0.929 . S
C606 C602 1.531 . S
C606 H618 0.960 1_455 S
C606 H619 0.962 . S
C606 H620 0.960 . S
C607 C604 1.511 . S
C607 H621 0.961 . S
C607 H622 0.961 . S
C607 H623 0.961 1_455 S
C608 C609 1.370 1_455 S
C608 C610 1.363 . S
C608 H624 0.931 . S
C609 C608 1.370 1_655 S
C609 C613 1.408 . S
C610 C608 1.363 . S
C610 C611 1.370 1_455 S
C610 C614 1.524 . S
C611 C603 1.513 1_655 S
C611 C610 1.370 1_655 S
C611 C612 1.403 . S
C612 C611 1.403 . S
C612 C613 1.404 . S
C612 C615 1.539 . S
C613 C609 1.408 . S
C613 C612 1.404 . S
C613 H625 0.930 . S
C614 C610 1.524 . S
C614 H626 0.956 . S
C614 H627 0.961 1_565 S
C614 H628 0.961 . S
C615 C612 1.539 . S
C615 H629 0.958 . S
C615 H630 0.961 . S
C615 H631 0.960 1_565 S
H616 C600 0.931 . S
H617 C605 0.929 . S
H618 C606 0.960 1_655 S
H619 C606 0.962 . S
H620 C606 0.960 . S
H621 C607 0.961 . S
H622 C607 0.961 . S
H623 C607 0.961 1_655 S
H624 C608 0.931 . S
H625 C613 0.930 . S
H626 C614 0.956 . S
H627 C614 0.961 1_545 S
H628 C614 0.961 . S
H629 C615 0.958 . S
H630 C615 0.961 . S
H631 C615 0.960 1_545 S
C632 C633 1.391 . S
C632 C634 1.394 . S
C632 H648 0.931 . S
C633 C632 1.391 . S
C633 C637 1.376 . S
C634 C632 1.394 . S
C634 C635 1.369 . S
C634 C638 1.531 . S
C635 C634 1.369 . S
C635 C636 1.410 . S
C635 C643 1.503 . S
C636 C635 1.410 . S
C636 C637 1.392 . S
C636 C639 1.511 . S
C637 C633 1.376 . S
C637 C636 1.392 . S
C637 H649 0.929 . S
C638 C634 1.531 . S
C638 H650 0.960 . S
C638 H651 0.962 . S
C638 H652 0.960 . S
C639 C636 1.511 . S
C639 H653 0.961 . S
C639 H654 0.961 . S
C639 H655 0.961 . S
C640 C641 1.370 . S
C640 C642 1.363 . S
C640 H656 0.931 . S
C641 C640 1.370 . S
C641 C645 1.408 . S
C642 C640 1.363 . S
C642 C643 1.370 . S
C642 C646 1.524 . S
C643 C635 1.503 . S
C643 C642 1.370 . S
C643 C644 1.403 . S
C644 C643 1.403 . S
C644 C645 1.404 . S
C644 C647 1.539 . S
C645 C641 1.408 . S
C645 C644 1.404 . S
C645 H657 0.930 . S
C646 C642 1.524 . S
C646 H658 0.956 . S
C646 H659 0.961 . S
C646 H660 0.961 . S
C647 C644 1.539 . S
C647 H661 0.958 . S
C647 H662 0.961 . S
C647 H663 0.960 . S
H648 C632 0.931 . S
H649 C637 0.929 . S
H650 C638 0.960 . S
H651 C638 0.962 . S
H652 C638 0.960 . S
H653 C639 0.961 . S
H654 C639 0.961 . S
H655 C639 0.961 . S
H656 C640 0.931 . S
H657 C645 0.930 . S
H658 C646 0.956 . S
H659 C646 0.961 . S
H660 C646 0.961 . S
H661 C647 0.958 . S
H662 C647 0.961 . S
H663 C647 0.960 . S
C664 C665 1.391 . S
C664 C666 1.394 . S
C664 H680 0.931 . S
C665 C664 1.391 . S
C665 C669 1.376 1_455 S
C666 C664 1.394 . S
C666 C667 1.369 1_455 S
C666 C670 1.531 . S
C667 C666 1.369 1_655 S
C667 C668 1.410 . S
C667 C675 1.503 . S
C668 C667 1.410 . S
C668 C669 1.392 . S
C668 C671 1.511 1_545 S
C669 C665 1.376 1_655 S
C669 C668 1.392 . S
C669 H681 0.929 . S
C670 C666 1.531 . S
C670 H682 0.960 . S
C670 H683 0.962 . S
C670 H684 0.960 . S
C671 C668 1.511 1_565 S
C671 H685 0.961 . S
C671 H686 0.961 . S
C671 H687 0.961 1_565 S
C672 C673 1.370 . S
C672 C674 1.363 . S
C672 H688 0.931 . S
C673 C672 1.370 . S
C673 C677 1.408 1_565 S
C674 C672 1.363 . S
C674 C675 1.370 1_565 S
C674 C678 1.524 1_655 S
C675 C667 1.503 . S
C675 C674 1.370 1_545 S
C675 C676 1.403 . S
C676 C675 1.403 . S
C676 C677 1.404 . S
C676 C679 1.539 . S
C677 C673 1.408 1_545 S
C677 C676 1.404 . S
C677 H689 0.930 . S
C678 C674 1.524 1_455 S
C678 H690 0.956 . S
C678 H691 0.961 . S
C678 H692 0.961 . S
C679 C676 1.539 . S
C679 H693 0.958 . S
C679 H694 0.961 . S
C679 H695 0.960 . S
H680 C664 0.931 . S
H681 C669 0.929 . S
H682 C670 0.960 . S
H683 C670 0.962 . S
H684 C670 0.960 . S
H685 C671 0.961 . S
H686 C671 0.961 . S
H687 C671 0.961 1_545 S
H688 C672 0.931 . S
H689 C677 0.930 . S
H690 C678 0.956 . S
H691 C678 0.961 . S
H692 C678 0.961 . S
H693 C679 0.958 . S
H694 C679 0.961 . S
H695 C679 0.960 . S
C696 C697 1.391 . S
C696 C698 1.394 . S
C696 H712 0.931 . S
C697 C696 1.391 . S
C697 C701 1.376 . S
C698 C696 1.394 . S
C698 C699 1.369 . S
C698 C702 1.531 . S
C699 C698 1.369 . S
C699 C700 1.410 . S
C699 C707 1.503 1_554 S
C700 C699 1.410 . S
C700 C701 1.392 . S
C700 C703 1.511 1_554 S
C701 C697 1.376 . S
C701 C700 1.392 . S
C701 H713 0.929 . S
C702 C698 1.531 . S
C702 H714 0.960 . S
C702 H715 0.962 . S
C702 H716 0.960 . S
C703 C700 1.511 1_556 S
C703 H717 0.961 . S
C703 H718 0.961 . S
C703 H719 0.961 . S
C704 C705 1.370 . S
C704 C706 1.363 . S
C704 H720 0.931 . S
C705 C704 1.370 . S
C705 C709 1.408 . S
C706 C704 1.363 . S
C706 C707 1.370 . S
C706 C710 1.524 . S
C707 C699 1.503 1_556 S
C707 C706 1.370 . S
C707 C708 1.403 . S
C708 C707 1.403 . S
C708 C709 1.404 . S
C708 C711 1.539 1_556 S
C709 C705 1.408 . S
C709 C708 1.404 . S
C709 H721 0.930 . S
C710 C706 1.524 . S
C710 H722 0.956 . S
C710 H723 0.961 . S
C710 H724 0.961 . S
C711 C708 1.539 1_554 S
C711 H725 0.958 . S
C711 H726 0.961 1_554 S
C711 H727 0.960 . S
H712 C696 0.931 . S
H713 C701 0.929 . S
H714 C702 0.960 . S
H715 C702 0.962 . S
H716 C702 0.960 . S
H717 C703 0.961 . S
H718 C703 0.961 . S
H719 C703 0.961 . S
H720 C704 0.931 . S
H721 C709 0.930 . S
H722 C710 0.956 . S
H723 C710 0.961 . S
H724 C710 0.961 . S
H725 C711 0.958 . S
H726 C711 0.961 1_556 S
H727 C711 0.960 . S
C217 C28 0.937 . S
C225 C35 0.968 . S
C249 C82 0.963 . S
C257 C89 0.959 . S
C281 C143 0.979 . S
C289 C136 0.949 . S
C313 C197 0.952 . S
C321 C190 0.958 . S
C345 C189 2.335 . S
C353 C22 2.363 . S
C377 C76 2.362 . S
C385 C10 2.352 . S
C409 C113 2.325 . S
C417 C64 2.364 . S
C441 C167 2.368 . S
C449 C135 2.352 . S
C473 C27 2.383 . S
C481 C184 2.349 . S
C505 C81 2.358 . S
C513 C5 2.343 . S
C537 C59 2.331 . S
C545 C118 2.360 . S
C569 C130 2.330 . S
C577 C172 2.374 . S
C601 C140 0.795 . S
C609 C32 0.703 . S
C633 C86 0.823 . S
C641 C194 0.685 . S
C665 C121 0.714 . S
C673 C13 0.730 . S
C697 C67 0.788 . S
C705 C175 0.706 . S
