# Generated by pormake.
# Topology mmt, (4)-cn, num edge types: 1
# Building blocks:
#     Node 0, Type 0, BuildingBlock: CEKHIL_clean_sbu_0, # of connection points: 4
#     Node 1, Type 0, BuildingBlock: CEKHIL_clean_sbu_0, # of connection points: 4
#     Node 2, Type 0, BuildingBlock: CEKHIL_clean_sbu_0, # of connection points: 4
#     Node 3, Type 0, BuildingBlock: CEKHIL_clean_sbu_0, # of connection points: 4
#     Node 4, Type 0, BuildingBlock: CEKHIL_clean_sbu_0, # of connection points: 4
#     Node 5, Type 0, BuildingBlock: CEKHIL_clean_sbu_0, # of connection points: 4
#     Node 6, Type 0, BuildingBlock: CEKHIL_clean_sbu_0, # of connection points: 4
#     Node 7, Type 0, BuildingBlock: CEKHIL_clean_sbu_0, # of connection points: 4
#     Edge 8, Type (0, 0), BuildingBlock: CIFDUS_clean_linker_0, # of connection points: 2
#     Edge 9, Type (0, 0), BuildingBlock: CIFDUS_clean_linker_0, # of connection points: 2
#     Edge 10, Type (0, 0), BuildingBlock: CIFDUS_clean_linker_0, # of connection points: 2
#     Edge 11, Type (0, 0), BuildingBlock: CIFDUS_clean_linker_0, # of connection points: 2
#     Edge 12, Type (0, 0), BuildingBlock: CIFDUS_clean_linker_0, # of connection points: 2
#     Edge 13, Type (0, 0), BuildingBlock: CIFDUS_clean_linker_0, # of connection points: 2
#     Edge 14, Type (0, 0), BuildingBlock: CIFDUS_clean_linker_0, # of connection points: 2
#     Edge 15, Type (0, 0), BuildingBlock: CIFDUS_clean_linker_0, # of connection points: 2
#     Edge 16, Type (0, 0), BuildingBlock: CIFDUS_clean_linker_0, # of connection points: 2
#     Edge 17, Type (0, 0), BuildingBlock: CIFDUS_clean_linker_0, # of connection points: 2
#     Edge 18, Type (0, 0), BuildingBlock: CIFDUS_clean_linker_0, # of connection points: 2
#     Edge 19, Type (0, 0), BuildingBlock: CIFDUS_clean_linker_0, # of connection points: 2
#     Edge 20, Type (0, 0), BuildingBlock: CIFDUS_clean_linker_0, # of connection points: 2
#     Edge 21, Type (0, 0), BuildingBlock: CIFDUS_clean_linker_0, # of connection points: 2
#     Edge 22, Type (0, 0), BuildingBlock: CIFDUS_clean_linker_0, # of connection points: 2
#     Edge 23, Type (0, 0), BuildingBlock: CIFDUS_clean_linker_0, # of connection points: 2
# Relax obj value: 0.032
# Max RMSD: 0.050
# Mean RMSD: 0.050
data_MOF--net-mmt--node1-CEKHIL_clean_sbu_0--edge1-CIFDUS_clean_linker_0
_symmetry_space_group_name_H-M    P1
_symmetry_Int_Tables_number       1
_symmetry_cell_setting            triclinic
loop_
_symmetry_equiv_pos_as_xyz
'x, y, z'
_cell_length_a     19.532429
_cell_length_b     31.827701
_cell_length_c     38.312695
_cell_angle_alpha  90.079819
_cell_angle_beta   89.93584
_cell_angle_gamma 89.984343
loop_
_atom_site_label
_atom_site_type_symbol
_atom_site_fract_x
_atom_site_fract_y
_atom_site_fract_z
_atom_type_partial_charge
Co0 Co 0.10878 0.57389 0.36925 0.0
O1 O 0.04601 0.57806 0.40856 0.0
O2 O 0.11494 0.52445 0.39827 0.0
C3 C 0.15133 0.63987 0.37387 0.0
O4 O 0.18266 0.55724 0.33417 0.0
Co5 Co 0.10295 0.62864 0.3031 0.0
O6 O 0.19033 0.60157 0.289 0.0
C7 C 0.00503 0.55835 0.31115 0.0
C8 C 0.06911 0.5416 0.41833 0.0
C9 C 0.21148 0.5696 0.30576 0.0
O10 O 0.03545 0.54667 0.33941 0.0
O11 O 0.02144 0.59172 0.29449 0.0
O12 O 0.175 0.60981 0.39337 0.0
O13 O 0.10073 0.63004 0.3538 0.0
Co14 Co 0.39115 0.92572 0.37196 0.0
O15 O 0.44702 0.92343 0.41369 0.0
O16 O 0.37814 0.97588 0.39998 0.0
C17 C 0.35054 0.85923 0.37574 0.0
O18 O 0.32359 0.93973 0.33298 0.0
Co19 Co 0.41453 0.86889 0.30777 0.0
O20 O 0.32595 0.89121 0.29048 0.0
C21 C 0.50469 0.94237 0.31887 0.0
C22 C 0.42159 0.95985 0.42193 0.0
C23 C 0.30025 0.924 0.30435 0.0
O24 O 0.46816 0.9536 0.34532 0.0
O25 O 0.49414 0.90827 0.30192 0.0
O26 O 0.32233 0.8894 0.39357 0.0
O27 O 0.40459 0.86932 0.35819 0.0
Co28 Co 0.60785 0.43036 0.14151 0.0
O29 O 0.54279 0.42094 0.10435 0.0
O30 O 0.60612 0.47803 0.10994 0.0
C31 C 0.65855 0.36654 0.13818 0.0
O32 O 0.68228 0.45089 0.17507 0.0
Co33 Co 0.60553 0.37762 0.20933 0.0
O34 O 0.69272 0.40644 0.22029 0.0
C35 C 0.50479 0.44609 0.20046 0.0
C36 C 0.56103 0.45719 0.09194 0.0
C37 C 0.71221 0.43868 0.20332 0.0
O38 O 0.53409 0.45672 0.17164 0.0
O39 O 0.52284 0.41377 0.2181 0.0
O40 O 0.67538 0.39636 0.11678 0.0
O41 O 0.60774 0.37472 0.1588 0.0
Co42 Co 0.91122 0.08621 0.16494 0.0
O43 O 0.97751 0.09765 0.12843 0.0
O44 O 0.91823 0.03888 0.13334 0.0
C45 C 0.85556 0.14859 0.16177 0.0
O46 O 0.83654 0.06283 0.19689 0.0
Co47 Co 0.90139 0.13856 0.23337 0.0
O48 O 0.81704 0.10571 0.24245 0.0
C49 C 0.01296 0.07629 0.22474 0.0
C50 C 0.96221 0.06096 0.1157 0.0
C51 C 0.80274 0.07314 0.22453 0.0
O52 O 0.9855 0.06236 0.19635 0.0
O53 O 0.99023 0.10848 0.24119 0.0
O54 O 0.84229 0.11888 0.13952 0.0
O55 O 0.90535 0.14119 0.183 0.0
Co56 Co 0.89287 0.4287 0.65331 0.0
O57 O 0.9488 0.42491 0.61164 0.0
O58 O 0.88104 0.47828 0.62453 0.0
C59 C 0.85042 0.3625 0.65045 0.0
O60 O 0.82543 0.44395 0.69218 0.0
Co61 Co 0.91604 0.37311 0.71804 0.0
O62 O 0.82717 0.39571 0.73482 0.0
C63 C 0.00658 0.44621 0.70627 0.0
C64 C 0.92417 0.46128 0.60281 0.0
C65 C 0.80172 0.42843 0.72081 0.0
O66 O 0.97041 0.45676 0.67955 0.0
O67 O 0.99563 0.41256 0.72371 0.0
O68 O 0.82321 0.39257 0.63223 0.0
O69 O 0.90493 0.37239 0.66771 0.0
Co70 Co 0.60021 0.07981 0.65436 0.0
O71 O 0.53953 0.08339 0.61421 0.0
O72 O 0.60835 0.03013 0.6257 0.0
C73 C 0.64319 0.14574 0.65038 0.0
O74 O 0.67223 0.06368 0.69033 0.0
Co75 Co 0.59058 0.13445 0.7205 0.0
O76 O 0.67763 0.1079 0.73573 0.0
C77 C 0.49389 0.06372 0.71129 0.0
C78 C 0.56332 0.04682 0.60502 0.0
C79 C 0.6998 0.07608 0.71904 0.0
O80 O 0.52556 0.05243 0.68324 0.0
O81 O 0.50932 0.097 0.72837 0.0
O82 O 0.66759 0.11563 0.63108 0.0
O83 O 0.5913 0.13609 0.66972 0.0
Co84 Co 0.41179 0.59047 0.86029 0.0
O85 O 0.47766 0.60049 0.89706 0.0
O86 O 0.41662 0.54249 0.89135 0.0
C87 C 0.36015 0.65397 0.86511 0.0
O88 O 0.33698 0.56841 0.82784 0.0
Co89 Co 0.40259 0.64354 0.79327 0.0
O90 O 0.3176 0.61182 0.78289 0.0
C91 C 0.51325 0.58042 0.80049 0.0
C92 C 0.46117 0.56383 0.90929 0.0
C93 C 0.3031 0.57902 0.80039 0.0
O94 O 0.48599 0.5664 0.82889 0.0
O95 O 0.4906 0.61283 0.78442 0.0
O96 O 0.34306 0.62331 0.88568 0.0
O97 O 0.40964 0.64632 0.84367 0.0
Co98 Co 0.09803 0.93163 0.87914 0.0
O99 O 0.03591 0.92181 0.91754 0.0
O100 O 0.10188 0.97777 0.91245 0.0
C101 C 0.14372 0.8662 0.8791 0.0
O102 O 0.17063 0.95242 0.84472 0.0
Co103 Co 0.0906 0.88193 0.80984 0.0
O104 O 0.17839 0.90981 0.79815 0.0
C105 C 0.99229 0.95124 0.82287 0.0
C106 C 0.05701 0.95708 0.93073 0.0
C107 C 0.19928 0.94118 0.81583 0.0
O108 O 0.02306 0.96072 0.85161 0.0
O109 O 0.00878 0.91937 0.80422 0.0
O110 O 0.1663 0.89468 0.90049 0.0
O111 O 0.09201 0.87697 0.86018 0.0
H112 H 0.27507 0.57784 0.24225 0.0
H113 H 0.2769 0.50343 0.33648 0.0
H114 H 0.36624 0.45883 0.31207 0.0
H115 H 0.44278 0.44002 0.26403 0.0
H116 H 0.44227 0.51389 0.16956 0.0
H117 H 0.35343 0.55932 0.19407 0.0
C118 C 0.29524 0.55204 0.25758 0.0
C119 C 0.26888 0.54417 0.29124 0.0
C120 C 0.34666 0.52613 0.24328 0.0
C121 C 0.29578 0.51038 0.31053 0.0
C122 C 0.34696 0.48471 0.29657 0.0
C123 C 0.42323 0.46592 0.24861 0.0
C124 C 0.44931 0.47323 0.21484 0.0
C125 C 0.37243 0.49209 0.26291 0.0
C126 C 0.42332 0.5073 0.19556 0.0
C127 C 0.37248 0.5334 0.2096 0.0
H128 H 0.06117 0.9969 0.20999 0.0
H129 H 0.09691 0.10459 0.27632 0.0
H130 H 0.18662 0.06688 0.3069 0.0
H131 H 0.25381 1.00328 0.31615 0.0
H132 H 0.22119 0.89521 0.25009 0.0
H133 H 0.13165 0.933 0.21845 0.0
C134 C 0.08901 0.01224 0.2309 0.0
C135 C 0.07167 0.05358 0.24078 0.0
C136 C 0.1409 0.99018 0.2488 0.0
C137 C 0.10841 0.07277 0.26813 0.0
C138 C 0.15991 0.0512 0.28579 0.0
C139 C 0.22697 0.98778 0.29497 0.0
C140 C 0.24414 0.9463 0.28577 0.0
C141 C 0.1761 0.0098 0.27664 0.0
C142 C 0.20911 0.92709 0.25788 0.0
C143 C 0.15788 0.94873 0.23969 0.0
H144 H 0.77974 0.42671 0.26492 0.0
H145 H 0.77216 0.50887 0.17531 0.0
H146 H 0.86099 0.55297 0.20106 0.0
H147 H 0.93939 0.56882 0.24905 0.0
H148 H 0.94733 0.48698 0.33882 0.0
H149 H 0.85925 0.44229 0.31285 0.0
C150 C 0.7976 0.45413 0.25083 0.0
C151 C 0.76897 0.46431 0.21809 0.0
C152 C 0.84845 0.47959 0.2659 0.0
C153 C 0.79301 0.50012 0.20046 0.0
C154 C 0.84379 0.52546 0.21522 0.0
C155 C 0.9219 0.54131 0.26314 0.0
C156 C 0.95011 0.53151 0.29603 0.0
C157 C 0.87153 0.51564 0.24799 0.0
C158 C 0.92669 0.49547 0.31357 0.0
C159 C 0.87633 0.46982 0.29868 0.0
H160 H 0.72557 0.08142 0.28367 0.0
H161 H 0.7545 1.00127 0.19374 0.0
H162 H 0.66619 0.95375 0.21534 0.0
H163 H 0.58146 0.93459 0.25971 0.0
H164 H 0.55198 0.01468 0.34961 0.0
H165 H 0.6402 0.06239 0.32799 0.0
C166 C 0.71254 0.05367 0.26864 0.0
C167 C 0.74696 0.0451 0.23703 0.0
C168 C 0.66182 0.02627 0.28128 0.0
C169 C 0.72911 0.00882 0.2181 0.0
C170 C 0.67861 0.98151 0.23048 0.0
C171 C 0.59435 0.96235 0.27476 0.0
C172 C 0.55995 0.97081 0.30638 0.0
C173 C 0.64486 0.98983 0.26209 0.0
C174 C 0.57742 0.00721 0.32524 0.0
C175 C 0.62789 0.0346 0.31286 0.0
H176 H 0.56224 0.50133 0.81526 0.0
H177 H 0.5958 0.60834 0.74811 0.0
H178 H 0.68565 0.57067 0.71739 0.0
H179 H 0.75396 0.50732 0.70843 0.0
H180 H 0.72312 0.39999 0.77532 0.0
H181 H 0.63325 0.43768 0.8069 0.0
C182 C 0.58959 0.51653 0.79412 0.0
C183 C 0.57168 0.55768 0.7841 0.0
C184 C 0.64156 0.49451 0.77616 0.0
C185 C 0.60779 0.57668 0.75644 0.0
C186 C 0.65938 0.55513 0.7387 0.0
C187 C 0.72743 0.49198 0.72978 0.0
C188 C 0.7453 0.45074 0.73926 0.0
C189 C 0.67628 0.51394 0.74808 0.0
C190 C 0.71059 0.43169 0.76733 0.0
C191 C 0.65914 0.45327 0.7855 0.0
H192 H 0.76189 0.08366 0.78319 0.0
H193 H 0.76687 0.01115 0.68774 0.0
H194 H 0.85606 0.96659 0.71173 0.0
H195 H 0.93123 0.94712 0.75943 0.0
H196 H 0.92954 0.01854 0.85533 0.0
H197 H 0.84036 0.06442 0.83145 0.0
C198 C 0.78276 0.05828 0.76755 0.0
C199 C 0.75719 0.05089 0.73363 0.0
C200 C 0.83436 0.03233 0.78162 0.0
C201 C 0.785 0.01769 0.71389 0.0
C202 C 0.83613 0.99204 0.72761 0.0
C203 C 0.91142 0.97256 0.77537 0.0
C204 C 0.93706 0.97904 0.80932 0.0
C205 C 0.86077 0.99886 0.76146 0.0
C206 C 0.91079 0.0126 0.82919 0.0
C207 C 0.85981 0.03891 0.81551 0.0
H208 H 0.22706 0.58631 0.74066 0.0
H209 H 0.25377 0.50793 0.83162 0.0
H210 H 0.16605 0.46002 0.81019 0.0
H211 H 0.08238 0.43986 0.76576 0.0
H212 H 0.05452 0.51793 0.67475 0.0
H213 H 0.1423 0.56619 0.69612 0.0
C214 C 0.21361 0.55886 0.75593 0.0
C215 C 0.24735 0.55093 0.7878 0.0
C216 C 0.16309 0.53115 0.74337 0.0
C217 C 0.229 0.51502 0.80705 0.0
C218 C 0.17878 0.48746 0.79477 0.0
C219 C 0.09553 0.46729 0.75039 0.0
C220 C 0.06171 0.47499 0.71853 0.0
C221 C 0.14573 0.4951 0.76293 0.0
C222 C 0.07952 0.51101 0.6993 0.0
C223 C 0.12974 0.53873 0.71154 0.0
H224 H 0.26642 0.9313 0.7536 0.0
H225 H 0.26037 0.00978 0.84567 0.0
H226 H 0.3497 0.05439 0.8212 0.0
H227 H 0.42828 0.07185 0.7737 0.0
H228 H 0.43552 0.99371 0.6815 0.0
H229 H 0.34664 0.94843 0.70609 0.0
C230 C 0.28474 0.95803 0.76846 0.0
C231 C 0.2563 0.96702 0.80154 0.0
C232 C 0.33609 0.98383 0.75415 0.0
C233 C 0.28097 1.00194 0.82023 0.0
C234 C 0.33208 0.0276 0.8062 0.0
C235 C 0.41044 0.04504 0.75878 0.0
C236 C 0.43866 0.03647 0.72561 0.0
C237 C 0.35967 0.019 0.77313 0.0
C238 C 0.41487 1.00126 0.707 0.0
C239 C 0.36403 0.97527 0.72109 0.0
H240 H 0.98057 0.57176 0.468 0.0
H241 H 0.1069 0.46466 0.4427 0.0
H242 H 0.07349 0.43067 0.49711 0.0
H243 H 0.00957 0.43128 0.55234 0.0
H244 H 0.88315 0.53804 0.57824 0.0
H245 H 0.91543 0.57206 0.52341 0.0
C246 C 1.00058 0.54092 0.47433 0.0
C247 C 0.04625 0.52087 0.45115 0.0
C248 C 0.9813 0.52145 0.50593 0.0
C249 C 0.07173 0.48092 0.45993 0.0
C250 C 0.05269 0.4614 0.49113 0.0
C251 C 0.98903 0.46201 0.54604 0.0
C252 C 0.94401 0.48204 0.56951 0.0
C253 C 0.00775 0.48139 0.51441 0.0
C254 C 0.91791 0.52185 0.56076 0.0
C255 C 0.93635 0.54135 0.52935 0.0
H256 H 0.5079 0.93227 0.47281 0.0
H257 H 0.37857 0.03689 0.44511 0.0
H258 H 0.40989 0.0729 0.49922 0.0
H259 H 0.47474 0.07489 0.55464 0.0
H260 H 0.60385 0.96984 0.58177 0.0
H261 H 0.57179 0.93401 0.52795 0.0
C262 C 0.48653 0.96296 0.47856 0.0
C263 C 0.44094 0.98179 0.45481 0.0
C264 C 0.50469 0.98351 0.50979 0.0
C265 C 0.41377 0.02159 0.46283 0.0
C266 C 0.43166 0.04225 0.49384 0.0
C267 C 0.49571 0.04412 0.54881 0.0
C268 C 0.54171 0.02519 0.57236 0.0
C269 C 0.47713 0.02353 0.51756 0.0
C270 C 0.56839 0.98528 0.56425 0.0
C271 C 0.55011 0.96468 0.53339 0.0
H272 H 0.5998 0.52718 0.05558 0.0
H273 H 0.46206 0.4213 0.05161 0.0
H274 H 0.42059 0.444 0.99462 0.0
H275 H 0.42333 0.49379 0.94554 0.0
H276 H 0.56059 0.59987 0.94943 0.0
H277 H 0.60248 0.57708 1.0064 0.0
C278 C 0.56047 0.50919 0.04233 0.0
C279 C 0.53406 0.47261 0.05801 0.0
C280 C 0.537 0.5223 1.0093 0.0
C281 C 0.48333 0.44961 0.04029 0.0
C282 C 0.45962 0.46251 1.00758 0.0
C283 C 0.4627 0.5118 0.95874 0.0
C284 C 0.48886 0.54844 0.94308 0.0
C285 C 0.48623 0.49871 0.99174 0.0
C286 C 0.53957 0.5715 0.96076 0.0
C287 C 0.56349 0.55855 0.99345 0.0
H288 H 0.09728 0.02678 0.96762 0.0
H289 H 0.96166 0.91989 0.97232 0.0
H290 H 0.92254 0.94157 0.03002 0.0
H291 H 0.92585 0.99089 0.0793 0.0
H292 H 0.05994 0.09842 0.07498 0.0
H293 H 0.10078 0.07636 0.01741 0.0
C294 C 0.05903 0.00832 0.98123 0.0
C295 C 0.03246 0.97175 0.96547 0.0
C296 C 0.03664 0.02095 0.01469 0.0
C297 C 0.98305 0.94818 0.98365 0.0
C298 C 0.96064 0.96051 0.01677 0.0
C299 C 0.96435 0.00939 0.0659 0.0
C300 C 0.98988 0.04621 0.08161 0.0
C301 C 0.98709 0.99677 0.0326 0.0
C302 C 0.03944 0.06989 0.06364 0.0
C303 C 0.06273 0.05735 0.03061 0.0
H304 H 0.28464 0.66454 0.37673 0.0
H305 H 0.07823 0.71202 0.37286 0.0
H306 H 0.12093 0.78428 0.37494 0.0
H307 H 0.2175 0.83426 0.37726 0.0
H308 H 0.42411 0.78698 0.37394 0.0
H309 H 0.38144 0.71466 0.37516 0.0
C310 C 0.24927 0.69082 0.37649 0.0
C311 C 0.17849 0.68317 0.37504 0.0
C312 C 0.27436 0.73234 0.3763 0.0
C313 C 0.13298 0.71731 0.37403 0.0
C314 C 0.15735 0.75859 0.37525 0.0
C315 C 0.25297 0.80803 0.37691 0.0
C316 C 0.32375 0.81579 0.37587 0.0
C317 C 0.22795 0.76653 0.37632 0.0
C318 C 0.36934 0.78167 0.37476 0.0
C319 C 0.34499 0.74034 0.37553 0.0
H320 H 0.80813 0.1944 0.10746 0.0
H321 H 0.81496 0.19127 0.2198 0.0
H322 H 0.7504 0.25713 0.22276 0.0
H323 H 0.69414 0.31691 0.19309 0.0
H324 H 0.70054 0.32414 0.08084 0.0
H325 H 0.75752 0.25576 0.07794 0.0
C326 C 0.79499 0.20812 0.13253 0.0
C327 C 0.81549 0.18792 0.16336 0.0
C328 C 0.76041 0.24688 0.13397 0.0
C329 C 0.79953 0.20628 0.19572 0.0
C330 C 0.76261 0.24392 0.19741 0.0
C331 C 0.70785 0.30329 0.16808 0.0
C332 C 0.6928 0.32518 0.1372 0.0
C333 C 0.74308 0.26468 0.1667 0.0
C334 C 0.71176 0.30773 0.10492 0.0
C335 C 0.7442 0.26864 0.10326 0.0
H336 H 0.77741 0.1687 0.64944 0.0
H337 H 0.57263 0.21895 0.65144 0.0
H338 H 0.61807 0.29063 0.65018 0.0
H339 H 0.71656 0.33927 0.64855 0.0
H340 H 0.92127 0.28921 0.6536 0.0
H341 H 0.87595 0.21748 0.65222 0.0
C342 C 0.74299 0.19545 0.64949 0.0
C343 C 0.67187 0.18873 0.6501 0.0
C344 C 0.7696 0.23661 0.65013 0.0
C345 C 0.6276 0.22349 0.6509 0.0
C346 C 0.65354 0.26444 0.65014 0.0
C347 C 0.75106 0.31257 0.64931 0.0
C348 C 0.82209 0.31938 0.65082 0.0
C349 C 0.72447 0.27143 0.64974 0.0
C350 C 0.86636 0.28465 0.65243 0.0
C351 C 0.84048 0.24366 0.65155 0.0
H352 H 0.22518 0.67421 0.86964 0.0
H353 H 0.42732 0.72815 0.86638 0.0
H354 H 0.37893 0.79877 0.8724 0.0
H355 H 0.27851 0.84544 0.87834 0.0
H356 H 0.07593 0.79225 0.87404 0.0
H357 H 0.12439 0.72132 0.87117 0.0
C358 C 0.25833 0.70154 0.87031 0.0
C359 C 0.32955 0.69622 0.86794 0.0
C360 C 0.22993 0.74216 0.87239 0.0
C361 C 0.37225 0.7317 0.86819 0.0
C362 C 0.34465 0.77201 0.87169 0.0
C363 C 0.24524 0.8182 0.87687 0.0
C364 C 0.17394 0.82378 0.87681 0.0
C365 C 0.27354 0.77767 0.87382 0.0
C366 C 0.13107 0.78851 0.87419 0.0
C367 C 0.15873 0.74801 0.8726 0.0
loop_
_geom_bond_atom_site_label_1
_geom_bond_atom_site_label_2
_geom_bond_distance
_geom_bond_site_symmetry_2
_ccdc_geom_bond_type
Co0 O1 2.216 . S
Co0 O2 2.091 . S
Co0 O4 2.004 . S
Co0 O10 2.021 . S
Co0 O12 2.137 . S
Co0 O13 2.244 . S
O1 Co0 2.216 . S
O1 C8 1.247 . S
O2 Co0 2.091 . S
O2 C8 1.261 . S
C3 O12 1.247 . S
C3 O13 1.272 . S
O4 Co0 2.004 . S
O4 C9 1.259 . S
Co5 O6 2.061 . S
Co5 O11 2.052 . S
Co5 O13 2.135 . S
O6 Co5 2.061 . S
O6 C9 1.235 . S
C7 O10 1.238 . S
C7 O11 1.241 . S
C8 O1 1.247 . S
C8 O2 1.261 . S
C9 O4 1.259 . S
C9 O6 1.235 . S
O10 Co0 2.021 . S
O10 C7 1.238 . S
O11 Co5 2.052 . S
O11 C7 1.241 . S
O12 Co0 2.137 . S
O12 C3 1.247 . S
O13 Co0 2.244 . S
O13 C3 1.272 . S
O13 Co5 2.135 . S
Co14 O15 2.216 . S
Co14 O16 2.091 . S
Co14 O18 2.004 . S
Co14 O24 2.021 . S
Co14 O26 2.137 . S
Co14 O27 2.244 . S
O15 Co14 2.216 . S
O15 C22 1.247 . S
O16 Co14 2.091 . S
O16 C22 1.261 . S
C17 O26 1.247 . S
C17 O27 1.272 . S
O18 Co14 2.004 . S
O18 C23 1.259 . S
Co19 O20 2.061 . S
Co19 O25 2.052 . S
Co19 O27 2.135 . S
O20 Co19 2.061 . S
O20 C23 1.235 . S
C21 O24 1.238 . S
C21 O25 1.241 . S
C22 O15 1.247 . S
C22 O16 1.261 . S
C23 O18 1.259 . S
C23 O20 1.235 . S
O24 Co14 2.021 . S
O24 C21 1.238 . S
O25 Co19 2.052 . S
O25 C21 1.241 . S
O26 Co14 2.137 . S
O26 C17 1.247 . S
O27 Co14 2.244 . S
O27 C17 1.272 . S
O27 Co19 2.135 . S
Co28 O29 2.216 . S
Co28 O30 2.091 . S
Co28 O32 2.004 . S
Co28 O38 2.021 . S
Co28 O40 2.137 . S
Co28 O41 2.244 . S
O29 Co28 2.216 . S
O29 C36 1.247 . S
O30 Co28 2.091 . S
O30 C36 1.261 . S
C31 O40 1.247 . S
C31 O41 1.272 . S
O32 Co28 2.004 . S
O32 C37 1.259 . S
Co33 O34 2.061 . S
Co33 O39 2.052 . S
Co33 O41 2.135 . S
O34 Co33 2.061 . S
O34 C37 1.235 . S
C35 O38 1.238 . S
C35 O39 1.241 . S
C36 O29 1.247 . S
C36 O30 1.261 . S
C37 O32 1.259 . S
C37 O34 1.235 . S
O38 Co28 2.021 . S
O38 C35 1.238 . S
O39 Co33 2.052 . S
O39 C35 1.241 . S
O40 Co28 2.137 . S
O40 C31 1.247 . S
O41 Co28 2.244 . S
O41 C31 1.272 . S
O41 Co33 2.135 . S
Co42 O43 2.216 . S
Co42 O44 2.091 . S
Co42 O46 2.004 . S
Co42 O52 2.021 . S
Co42 O54 2.137 . S
Co42 O55 2.244 . S
O43 Co42 2.216 . S
O43 C50 1.247 . S
O44 Co42 2.091 . S
O44 C50 1.261 . S
C45 O54 1.247 . S
C45 O55 1.272 . S
O46 Co42 2.004 . S
O46 C51 1.259 . S
Co47 O48 2.061 . S
Co47 O53 2.052 . S
Co47 O55 2.135 . S
O48 Co47 2.061 . S
O48 C51 1.235 . S
C49 O52 1.238 . S
C49 O53 1.241 . S
C50 O43 1.247 . S
C50 O44 1.261 . S
C51 O46 1.259 . S
C51 O48 1.235 . S
O52 Co42 2.021 . S
O52 C49 1.238 . S
O53 Co47 2.052 . S
O53 C49 1.241 . S
O54 Co42 2.137 . S
O54 C45 1.247 . S
O55 Co42 2.244 . S
O55 C45 1.272 . S
O55 Co47 2.135 . S
Co56 O57 2.216 . S
Co56 O58 2.091 . S
Co56 O60 2.004 . S
Co56 O66 2.021 . S
Co56 O68 2.137 . S
Co56 O69 2.244 . S
O57 Co56 2.216 . S
O57 C64 1.247 . S
O58 Co56 2.091 . S
O58 C64 1.261 . S
C59 O68 1.247 . S
C59 O69 1.272 . S
O60 Co56 2.004 . S
O60 C65 1.259 . S
Co61 O62 2.061 . S
Co61 O67 2.052 . S
Co61 O69 2.135 . S
O62 Co61 2.061 . S
O62 C65 1.235 . S
C63 O66 1.238 . S
C63 O67 1.241 . S
C64 O57 1.247 . S
C64 O58 1.261 . S
C65 O60 1.259 . S
C65 O62 1.235 . S
O66 Co56 2.021 . S
O66 C63 1.238 . S
O67 Co61 2.052 . S
O67 C63 1.241 . S
O68 Co56 2.137 . S
O68 C59 1.247 . S
O69 Co56 2.244 . S
O69 C59 1.272 . S
O69 Co61 2.135 . S
Co70 O71 2.216 . S
Co70 O72 2.091 . S
Co70 O74 2.004 . S
Co70 O80 2.021 . S
Co70 O82 2.137 . S
Co70 O83 2.244 . S
O71 Co70 2.216 . S
O71 C78 1.247 . S
O72 Co70 2.091 . S
O72 C78 1.261 . S
C73 O82 1.247 . S
C73 O83 1.272 . S
O74 Co70 2.004 . S
O74 C79 1.259 . S
Co75 O76 2.061 . S
Co75 O81 2.052 . S
Co75 O83 2.135 . S
O76 Co75 2.061 . S
O76 C79 1.235 . S
C77 O80 1.238 . S
C77 O81 1.241 . S
C78 O71 1.247 . S
C78 O72 1.261 . S
C79 O74 1.259 . S
C79 O76 1.235 . S
O80 Co70 2.021 . S
O80 C77 1.238 . S
O81 Co75 2.052 . S
O81 C77 1.241 . S
O82 Co70 2.137 . S
O82 C73 1.247 . S
O83 Co70 2.244 . S
O83 C73 1.272 . S
O83 Co75 2.135 . S
Co84 O85 2.216 . S
Co84 O86 2.091 . S
Co84 O88 2.004 . S
Co84 O94 2.021 . S
Co84 O96 2.137 . S
Co84 O97 2.244 . S
O85 Co84 2.216 . S
O85 C92 1.247 . S
O86 Co84 2.091 . S
O86 C92 1.261 . S
C87 O96 1.247 . S
C87 O97 1.272 . S
O88 Co84 2.004 . S
O88 C93 1.259 . S
Co89 O90 2.061 . S
Co89 O95 2.052 . S
Co89 O97 2.135 . S
O90 Co89 2.061 . S
O90 C93 1.235 . S
C91 O94 1.238 . S
C91 O95 1.241 . S
C92 O85 1.247 . S
C92 O86 1.261 . S
C93 O88 1.259 . S
C93 O90 1.235 . S
O94 Co84 2.021 . S
O94 C91 1.238 . S
O95 Co89 2.052 . S
O95 C91 1.241 . S
O96 Co84 2.137 . S
O96 C87 1.247 . S
O97 Co84 2.244 . S
O97 C87 1.272 . S
O97 Co89 2.135 . S
Co98 O99 2.216 . S
Co98 O100 2.091 . S
Co98 O102 2.004 . S
Co98 O108 2.021 . S
Co98 O110 2.137 . S
Co98 O111 2.244 . S
O99 Co98 2.216 . S
O99 C106 1.247 . S
O100 Co98 2.091 . S
O100 C106 1.261 . S
C101 O110 1.247 . S
C101 O111 1.272 . S
O102 Co98 2.004 . S
O102 C107 1.259 . S
Co103 O104 2.061 . S
Co103 O109 2.052 . S
Co103 O111 2.135 . S
O104 Co103 2.061 . S
O104 C107 1.235 . S
C105 O108 1.238 . S
C105 O109 1.241 . S
C106 O99 1.247 . S
C106 O100 1.261 . S
C107 O102 1.259 . S
C107 O104 1.235 . S
O108 Co98 2.021 . S
O108 C105 1.238 . S
O109 Co103 2.052 . S
O109 C105 1.241 . S
O110 Co98 2.137 . S
O110 C101 1.247 . S
O111 Co98 2.244 . S
O111 C101 1.272 . S
O111 Co103 2.135 . S
H112 C118 0.930 . S
H113 C121 0.930 . S
H114 C122 0.930 . S
H115 C123 0.930 . S
H116 C126 0.930 . S
H117 C127 0.930 . S
C118 H112 0.930 . S
C118 C119 1.355 . S
C118 C120 1.415 . S
C119 C118 1.355 . S
C119 C121 1.419 . S
C120 C118 1.415 . S
C120 C125 1.425 . S
C120 C127 1.409 . S
C121 H113 0.930 . S
C121 C119 1.419 . S
C121 C122 1.362 . S
C122 H114 0.930 . S
C122 C121 1.362 . S
C122 C125 1.409 . S
C123 H115 0.930 . S
C123 C124 1.355 . S
C123 C125 1.415 . S
C124 C123 1.355 . S
C124 C126 1.419 . S
C125 C120 1.425 . S
C125 C122 1.409 . S
C125 C123 1.415 . S
C126 H116 0.930 . S
C126 C124 1.419 . S
C126 C127 1.362 . S
C127 H117 0.930 . S
C127 C120 1.409 . S
C127 C126 1.362 . S
H128 C134 0.930 . S
H129 C137 0.930 1_655 S
H130 C138 0.930 . S
H131 C139 0.930 . S
H132 C142 0.930 . S
H133 C143 0.930 . S
C134 H128 0.930 . S
C134 C135 1.355 1_565 S
C134 C136 1.415 . S
C135 C134 1.355 1_545 S
C135 C137 1.419 . S
C136 C134 1.415 . S
C136 C141 1.425 1_565 S
C136 C143 1.409 . S
C137 H129 0.930 1_455 S
C137 C135 1.419 . S
C137 C138 1.362 . S
C138 H130 0.930 . S
C138 C137 1.362 . S
C138 C141 1.409 . S
C139 H131 0.930 . S
C139 C140 1.355 1_545 S
C139 C141 1.415 . S
C140 C139 1.355 1_565 S
C140 C142 1.419 . S
C141 C136 1.425 1_545 S
C141 C138 1.409 . S
C141 C139 1.415 . S
C142 H132 0.930 . S
C142 C140 1.419 . S
C142 C143 1.362 . S
C143 H133 0.930 . S
C143 C136 1.409 . S
C143 C142 1.362 . S
H144 C150 0.930 . S
H145 C153 0.930 . S
H146 C154 0.930 . S
H147 C155 0.930 . S
H148 C158 0.918 1_455 S
H149 C159 0.930 . S
C150 H144 0.930 . S
C150 C151 1.355 . S
C150 C152 1.415 . S
C151 C150 1.355 . S
C151 C153 1.419 . S
C152 C150 1.415 . S
C152 C157 1.425 . S
C152 C159 1.409 . S
C153 H145 0.930 . S
C153 C151 1.419 . S
C153 C154 1.362 . S
C154 H146 0.930 . S
C154 C153 1.362 . S
C154 C157 1.409 . S
C155 H147 0.930 . S
C155 C156 1.355 . S
C155 C157 1.415 . S
C156 C155 1.355 . S
C156 C158 1.422 . S
C157 C152 1.425 . S
C157 C154 1.409 . S
C157 C155 1.415 . S
C158 H148 0.918 1_655 S
C158 C156 1.422 . S
C158 C159 1.371 . S
C159 H149 0.930 . S
C159 C152 1.409 . S
C159 C158 1.371 . S
H160 C166 0.930 . S
H161 C169 0.930 . S
H162 C170 0.930 . S
H163 C171 0.930 . S
H164 C174 0.930 . S
H165 C175 0.930 1_545 S
C166 H160 0.930 . S
C166 C167 1.355 . S
C166 C168 1.415 . S
C167 C166 1.355 . S
C167 C169 1.419 . S
C168 C166 1.415 . S
C168 C173 1.425 1_545 S
C168 C175 1.409 1_545 S
C169 H161 0.930 . S
C169 C167 1.419 . S
C169 C170 1.362 1_545 S
C170 H162 0.930 . S
C170 C169 1.362 1_565 S
C170 C173 1.409 . S
C171 H163 0.930 . S
C171 C172 1.355 . S
C171 C173 1.415 . S
C172 C171 1.355 . S
C172 C174 1.419 . S
C173 C168 1.425 1_565 S
C173 C170 1.409 . S
C173 C171 1.415 . S
C174 H164 0.930 . S
C174 C172 1.419 . S
C174 C175 1.362 . S
C175 H165 0.930 1_565 S
C175 C168 1.409 1_565 S
C175 C174 1.362 . S
H176 C182 0.930 . S
H177 C185 0.930 . S
H178 C186 0.930 . S
H179 C187 0.930 . S
H180 C190 0.930 . S
H181 C191 0.930 . S
C182 H176 0.930 . S
C182 C183 1.355 . S
C182 C184 1.415 . S
C183 C182 1.355 . S
C183 C185 1.419 . S
C184 C182 1.415 . S
C184 C189 1.425 . S
C184 C191 1.409 . S
C185 H177 0.930 . S
C185 C183 1.419 . S
C185 C186 1.362 . S
C186 H178 0.930 . S
C186 C185 1.362 . S
C186 C189 1.409 . S
C187 H179 0.930 . S
C187 C188 1.355 . S
C187 C189 1.415 . S
C188 C187 1.355 . S
C188 C190 1.419 . S
C189 C184 1.425 . S
C189 C186 1.409 . S
C189 C187 1.415 . S
C190 H180 0.930 . S
C190 C188 1.419 . S
C190 C191 1.362 . S
C191 H181 0.930 . S
C191 C184 1.409 . S
C191 C190 1.362 . S
H192 C198 0.930 . S
H193 C201 0.930 . S
H194 C202 0.930 . S
H195 C203 0.930 . S
H196 C206 0.930 . S
H197 C207 0.930 . S
C198 H192 0.930 . S
C198 C199 1.355 . S
C198 C200 1.415 . S
C199 C198 1.355 . S
C199 C201 1.419 1_545 S
C200 C198 1.415 . S
C200 C205 1.425 1_545 S
C200 C207 1.409 . S
C201 H193 0.930 . S
C201 C199 1.419 1_565 S
C201 C202 1.362 . S
C202 H194 0.930 . S
C202 C201 1.362 . S
C202 C205 1.409 . S
C203 H195 0.930 . S
C203 C204 1.355 . S
C203 C205 1.415 . S
C204 C203 1.355 . S
C204 C206 1.419 1_565 S
C205 C200 1.425 1_565 S
C205 C202 1.409 . S
C205 C203 1.415 . S
C206 H196 0.930 . S
C206 C204 1.419 1_545 S
C206 C207 1.362 . S
C207 H197 0.930 . S
C207 C200 1.409 . S
C207 C206 1.362 . S
H208 C214 0.930 . S
H209 C217 0.930 . S
H210 C218 0.930 . S
H211 C219 0.930 1_655 S
H212 C222 0.930 . S
H213 C223 0.930 . S
C214 H208 0.930 . S
C214 C215 1.355 . S
C214 C216 1.415 . S
C215 C214 1.355 . S
C215 C217 1.419 . S
C216 C214 1.415 . S
C216 C221 1.425 . S
C216 C223 1.409 . S
C217 H209 0.930 . S
C217 C215 1.419 . S
C217 C218 1.362 . S
C218 H210 0.930 . S
C218 C217 1.362 . S
C218 C221 1.409 . S
C219 H211 0.930 1_455 S
C219 C220 1.355 . S
C219 C221 1.415 . S
C220 C219 1.355 . S
C220 C222 1.419 . S
C221 C216 1.425 . S
C221 C218 1.409 . S
C221 C219 1.415 . S
C222 H212 0.930 . S
C222 C220 1.419 . S
C222 C223 1.362 . S
C223 H213 0.930 . S
C223 C216 1.409 . S
C223 C222 1.362 . S
H224 C230 0.930 . S
H225 C233 0.930 . S
H226 C234 0.930 . S
H227 C235 0.930 . S
H228 C238 0.930 . S
H229 C239 0.928 1_565 S
C230 H224 0.930 . S
C230 C231 1.355 . S
C230 C232 1.415 . S
C231 C230 1.355 . S
C231 C233 1.419 . S
C232 C230 1.415 . S
C232 C237 1.425 1_565 S
C232 C239 1.408 1_565 S
C233 H225 0.930 . S
C233 C231 1.419 . S
C233 C234 1.362 1_565 S
C234 H226 0.930 . S
C234 C233 1.362 1_545 S
C234 C237 1.409 . S
C235 H227 0.930 . S
C235 C236 1.355 . S
C235 C237 1.415 . S
C236 C235 1.355 . S
C236 C238 1.419 . S
C237 C232 1.425 1_545 S
C237 C234 1.409 . S
C237 C235 1.415 . S
C238 H228 0.930 . S
C238 C236 1.419 . S
C238 C239 1.366 . S
C239 H229 0.928 1_545 S
C239 C232 1.408 1_545 S
C239 C238 1.366 . S
H240 C246 0.930 1_655 S
H241 C249 0.930 . S
H242 C250 0.930 . S
H243 C251 0.930 1_455 S
H244 C254 0.930 . S
H245 C255 0.930 . S
C246 H240 0.930 1_455 S
C246 C247 1.355 . S
C246 C248 1.415 1_455 S
C247 C246 1.355 . S
C247 C249 1.419 . S
C248 C246 1.415 1_655 S
C248 C253 1.425 1_655 S
C248 C255 1.409 . S
C249 H241 0.930 . S
C249 C247 1.419 . S
C249 C250 1.362 . S
C250 H242 0.930 . S
C250 C249 1.362 . S
C250 C253 1.409 . S
C251 H243 0.930 1_655 S
C251 C252 1.355 . S
C251 C253 1.415 1_655 S
C252 C251 1.355 . S
C252 C254 1.419 . S
C253 C248 1.425 1_455 S
C253 C250 1.409 . S
C253 C251 1.415 1_455 S
C254 H244 0.930 . S
C254 C252 1.419 . S
C254 C255 1.362 . S
C255 H245 0.930 . S
C255 C248 1.409 . S
C255 C254 1.362 . S
H256 C262 0.930 . S
H257 C265 0.930 . S
H258 C266 0.930 . S
H259 C267 0.930 . S
H260 C270 0.930 . S
H261 C271 0.930 . S
C262 H256 0.930 . S
C262 C263 1.355 . S
C262 C264 1.415 . S
C263 C262 1.355 . S
C263 C265 1.419 1_565 S
C264 C262 1.415 . S
C264 C269 1.425 1_565 S
C264 C271 1.409 . S
C265 H257 0.930 . S
C265 C263 1.419 1_545 S
C265 C266 1.362 . S
C266 H258 0.930 . S
C266 C265 1.362 . S
C266 C269 1.409 . S
C267 H259 0.930 . S
C267 C268 1.355 . S
C267 C269 1.415 . S
C268 C267 1.355 . S
C268 C270 1.419 1_545 S
C269 C264 1.425 1_545 S
C269 C266 1.409 . S
C269 C267 1.415 . S
C270 H260 0.930 . S
C270 C268 1.419 1_565 S
C270 C271 1.362 . S
C271 H261 0.930 . S
C271 C264 1.409 . S
C271 C270 1.362 . S
H272 C278 0.930 . S
H273 C281 0.930 . S
H274 C282 0.930 . S
H275 C283 0.930 . S
H276 C286 0.930 . S
H277 C287 0.930 . S
C278 H272 0.930 . S
C278 C279 1.355 . S
C278 C280 1.415 1_554 S
C279 C278 1.355 . S
C279 C281 1.419 . S
C280 C278 1.415 1_556 S
C280 C285 1.425 1_556 S
C280 C287 1.409 . S
C281 H273 0.930 . S
C281 C279 1.419 . S
C281 C282 1.362 . S
C282 H274 0.930 . S
C282 C281 1.362 . S
C282 C285 1.409 . S
C283 H275 0.930 . S
C283 C284 1.355 . S
C283 C285 1.415 1_556 S
C284 C283 1.355 . S
C284 C286 1.419 . S
C285 C280 1.425 1_554 S
C285 C282 1.409 . S
C285 C283 1.415 1_554 S
C286 H276 0.930 . S
C286 C284 1.419 . S
C286 C287 1.362 . S
C287 H277 0.930 . S
C287 C280 1.409 . S
C287 C286 1.362 . S
H288 C294 0.930 . S
H289 C297 0.930 . S
H290 C298 0.930 . S
H291 C299 0.930 . S
H292 C302 0.930 . S
H293 C303 0.930 . S
C294 H288 0.930 . S
C294 C295 1.355 . S
C294 C296 1.415 1_556 S
C295 C294 1.355 . S
C295 C297 1.419 1_455 S
C296 C294 1.415 1_554 S
C296 C301 1.425 1_464 S
C296 C303 1.409 1_565 S
C297 H289 0.930 . S
C297 C295 1.419 1_655 S
C297 C298 1.362 . S
C298 H290 0.930 . S
C298 C297 1.362 . S
C298 C301 1.409 1_565 S
C299 H291 0.930 . S
C299 C300 1.355 . S
C299 C301 1.415 1_554 S
C300 C299 1.355 . S
C300 C302 1.419 1_655 S
C301 C296 1.425 1_646 S
C301 C298 1.409 1_545 S
C301 C299 1.415 1_556 S
C302 H292 0.930 . S
C302 C300 1.419 1_455 S
C302 C303 1.362 . S
C303 H293 0.930 . S
C303 C296 1.409 1_545 S
C303 C302 1.362 . S
H304 C310 0.930 . S
H305 C313 0.930 . S
H306 C314 0.930 . S
H307 C315 0.930 . S
H308 C318 0.930 . S
H309 C319 0.930 . S
C310 H304 0.930 . S
C310 C311 1.355 . S
C310 C312 1.415 . S
C311 C310 1.355 . S
C311 C313 1.419 . S
C312 C310 1.415 . S
C312 C317 1.425 . S
C312 C319 1.409 . S
C313 H305 0.930 . S
C313 C311 1.419 . S
C313 C314 1.362 . S
C314 H306 0.930 . S
C314 C313 1.362 . S
C314 C317 1.409 . S
C315 H307 0.930 . S
C315 C316 1.355 . S
C315 C317 1.415 . S
C316 C315 1.355 . S
C316 C318 1.419 . S
C317 C312 1.425 . S
C317 C314 1.409 . S
C317 C315 1.415 . S
C318 H308 0.930 . S
C318 C316 1.419 . S
C318 C319 1.362 . S
C319 H309 0.930 . S
C319 C312 1.409 . S
C319 C318 1.362 . S
H320 C326 0.930 . S
H321 C329 0.930 . S
H322 C330 0.930 . S
H323 C331 0.930 . S
H324 C334 0.930 . S
H325 C335 0.930 . S
C326 H320 0.930 . S
C326 C327 1.355 . S
C326 C328 1.415 . S
C327 C326 1.355 . S
C327 C329 1.419 . S
C328 C326 1.415 . S
C328 C333 1.425 . S
C328 C335 1.409 . S
C329 H321 0.930 . S
C329 C327 1.419 . S
C329 C330 1.362 . S
C330 H322 0.930 . S
C330 C329 1.362 . S
C330 C333 1.409 . S
C331 H323 0.930 . S
C331 C332 1.355 . S
C331 C333 1.415 . S
C332 C331 1.355 . S
C332 C334 1.419 . S
C333 C328 1.425 . S
C333 C330 1.409 . S
C333 C331 1.415 . S
C334 H324 0.930 . S
C334 C332 1.419 . S
C334 C335 1.362 . S
C335 H325 0.930 . S
C335 C328 1.409 . S
C335 C334 1.362 . S
H336 C342 0.930 . S
H337 C345 0.930 . S
H338 C346 0.930 . S
H339 C347 0.930 . S
H340 C350 0.930 . S
H341 C351 0.930 . S
C342 H336 0.930 . S
C342 C343 1.355 . S
C342 C344 1.415 . S
C343 C342 1.355 . S
C343 C345 1.419 . S
C344 C342 1.415 . S
C344 C349 1.425 . S
C344 C351 1.409 . S
C345 H337 0.930 . S
C345 C343 1.419 . S
C345 C346 1.362 . S
C346 H338 0.930 . S
C346 C345 1.362 . S
C346 C349 1.409 . S
C347 H339 0.930 . S
C347 C348 1.355 . S
C347 C349 1.415 . S
C348 C347 1.355 . S
C348 C350 1.419 . S
C349 C344 1.425 . S
C349 C346 1.409 . S
C349 C347 1.415 . S
C350 H340 0.930 . S
C350 C348 1.419 . S
C350 C351 1.362 . S
C351 H341 0.930 . S
C351 C344 1.409 . S
C351 C350 1.362 . S
H352 C358 0.930 . S
H353 C361 0.930 . S
H354 C362 0.930 . S
H355 C363 0.930 . S
H356 C366 0.930 . S
H357 C367 0.930 . S
C358 H352 0.930 . S
C358 C359 1.355 . S
C358 C360 1.415 . S
C359 C358 1.355 . S
C359 C361 1.419 . S
C360 C358 1.415 . S
C360 C365 1.425 . S
C360 C367 1.409 . S
C361 H353 0.930 . S
C361 C359 1.419 . S
C361 C362 1.362 . S
C362 H354 0.930 . S
C362 C361 1.362 . S
C362 C365 1.409 . S
C363 H355 0.930 . S
C363 C364 1.355 . S
C363 C365 1.415 . S
C364 C363 1.355 . S
C364 C366 1.419 . S
C365 C360 1.425 . S
C365 C362 1.409 . S
C365 C363 1.415 . S
C366 H356 0.930 . S
C366 C364 1.419 . S
C366 C367 1.362 . S
C367 H357 0.930 . S
C367 C360 1.409 . S
C367 C366 1.362 . S
C119 C9 1.428 . S
C124 C35 1.422 . S
C135 C49 1.355 1_455 S
C140 C23 1.376 . S
C151 C37 1.405 . S
C156 C7 1.383 1_655 S
C167 C51 1.426 . S
C172 C21 1.421 . S
C183 C91 1.380 . S
C188 C65 1.388 . S
C199 C79 1.429 . S
C204 C105 1.420 1_655 S
C215 C93 1.411 . S
C220 C63 1.408 1_455 S
C231 C107 1.415 . S
C236 C77 1.412 . S
C247 C8 1.513 . S
C252 C64 1.513 . S
C263 C22 1.508 . S
C268 C78 1.508 . S
C279 C36 1.510 . S
C284 C92 1.510 . S
C295 C106 1.518 . S
C300 C50 1.518 . S
C311 C3 1.529 . S
C316 C17 1.528 . S
C327 C45 1.525 . S
C332 C31 1.528 . S
C343 C73 1.528 . S
C348 C59 1.529 . S
C359 C87 1.528 . S
C364 C101 1.529 . S
