# Generated by pormake.
# Topology wjf, (4)-cn, num edge types: 1
# Building blocks:
#     Node 0, Type 0, BuildingBlock: NAHDIM_clean_sbu_0, # of connection points: 4
#     Node 1, Type 0, BuildingBlock: NAHDIM_clean_sbu_0, # of connection points: 4
#     Node 2, Type 0, BuildingBlock: NAHDIM_clean_sbu_0, # of connection points: 4
#     Node 3, Type 0, BuildingBlock: NAHDIM_clean_sbu_0, # of connection points: 4
#     Node 4, Type 0, BuildingBlock: NAHDIM_clean_sbu_0, # of connection points: 4
#     Node 5, Type 0, BuildingBlock: NAHDIM_clean_sbu_0, # of connection points: 4
#     Node 6, Type 0, BuildingBlock: NAHDIM_clean_sbu_0, # of connection points: 4
#     Node 7, Type 0, BuildingBlock: NAHDIM_clean_sbu_0, # of connection points: 4
#     Node 8, Type 0, BuildingBlock: NAHDIM_clean_sbu_0, # of connection points: 4
#     Node 9, Type 0, BuildingBlock: NAHDIM_clean_sbu_0, # of connection points: 4
#     Node 10, Type 0, BuildingBlock: NAHDIM_clean_sbu_0, # of connection points: 4
#     Node 11, Type 0, BuildingBlock: NAHDIM_clean_sbu_0, # of connection points: 4
#     Edge 12, Type (0, 0), BuildingBlock: ZUJKAS_clean_linker_0, # of connection points: 2
#     Edge 13, Type (0, 0), BuildingBlock: ZUJKAS_clean_linker_0, # of connection points: 2
#     Edge 14, Type (0, 0), BuildingBlock: ZUJKAS_clean_linker_0, # of connection points: 2
#     Edge 15, Type (0, 0), BuildingBlock: ZUJKAS_clean_linker_0, # of connection points: 2
#     Edge 16, Type (0, 0), BuildingBlock: ZUJKAS_clean_linker_0, # of connection points: 2
#     Edge 17, Type (0, 0), BuildingBlock: ZUJKAS_clean_linker_0, # of connection points: 2
#     Edge 18, Type (0, 0), BuildingBlock: ZUJKAS_clean_linker_0, # of connection points: 2
#     Edge 19, Type (0, 0), BuildingBlock: ZUJKAS_clean_linker_0, # of connection points: 2
#     Edge 20, Type (0, 0), BuildingBlock: ZUJKAS_clean_linker_0, # of connection points: 2
#     Edge 21, Type (0, 0), BuildingBlock: ZUJKAS_clean_linker_0, # of connection points: 2
#     Edge 22, Type (0, 0), BuildingBlock: ZUJKAS_clean_linker_0, # of connection points: 2
#     Edge 23, Type (0, 0), BuildingBlock: ZUJKAS_clean_linker_0, # of connection points: 2
#     Edge 24, Type (0, 0), BuildingBlock: ZUJKAS_clean_linker_0, # of connection points: 2
#     Edge 25, Type (0, 0), BuildingBlock: ZUJKAS_clean_linker_0, # of connection points: 2
#     Edge 26, Type (0, 0), BuildingBlock: ZUJKAS_clean_linker_0, # of connection points: 2
#     Edge 27, Type (0, 0), BuildingBlock: ZUJKAS_clean_linker_0, # of connection points: 2
#     Edge 28, Type (0, 0), BuildingBlock: ZUJKAS_clean_linker_0, # of connection points: 2
#     Edge 29, Type (0, 0), BuildingBlock: ZUJKAS_clean_linker_0, # of connection points: 2
#     Edge 30, Type (0, 0), BuildingBlock: ZUJKAS_clean_linker_0, # of connection points: 2
#     Edge 31, Type (0, 0), BuildingBlock: ZUJKAS_clean_linker_0, # of connection points: 2
#     Edge 32, Type (0, 0), BuildingBlock: ZUJKAS_clean_linker_0, # of connection points: 2
#     Edge 33, Type (0, 0), BuildingBlock: ZUJKAS_clean_linker_0, # of connection points: 2
#     Edge 34, Type (0, 0), BuildingBlock: ZUJKAS_clean_linker_0, # of connection points: 2
#     Edge 35, Type (0, 0), BuildingBlock: ZUJKAS_clean_linker_0, # of connection points: 2
# Relax obj value: 0.240
# Max RMSD: 0.249
# Mean RMSD: 0.249
data_MOF--net-wjf--node1-NAHDIM_clean_sbu_0--edge1-ZUJKAS_clean_linker_0
_symmetry_space_group_name_H-M    P1
_symmetry_Int_Tables_number       1
_symmetry_cell_setting            triclinic
loop_
_symmetry_equiv_pos_as_xyz
'x, y, z'
_cell_length_a     66.762196
_cell_length_b     66.759572
_cell_length_c     33.467195
_cell_angle_alpha  89.975062
_cell_angle_beta   90.01994
_cell_angle_gamma 120.06543
loop_
_atom_site_label
_atom_site_type_symbol
_atom_site_fract_x
_atom_site_fract_y
_atom_site_fract_z
_atom_type_partial_charge
C0 C 0.28518 0.39879 0.08234 0.0
O1 O 0.27769 0.37645 0.08317 0.0
O2 O 0.3144 0.37651 0.14441 0.0
Zn3 Zn 0.32568 0.39778 0.0969 0.0
O4 O 0.32213 0.38008 0.04635 0.0
C5 C 0.37249 0.41729 0.12481 0.0
O6 O 0.36396 0.39678 0.1414 0.0
O7 O 0.30642 0.41277 0.08944 0.0
C8 C 0.33621 0.37375 0.03473 0.0
O9 O 0.35418 0.37831 0.05706 0.0
C10 C 0.30393 0.35456 0.14205 0.0
O11 O 0.29935 0.34464 0.10675 0.0
O12 O 0.35921 0.42191 0.10449 0.0
C13 C 0.8891 0.285 0.43432 0.0
O14 O 0.90102 0.27472 0.44259 0.0
O15 O 0.94432 0.31457 0.48502 0.0
Zn16 Zn 0.93427 0.3239 0.43519 0.0
O17 O 0.94563 0.31635 0.38495 0.0
C18 C 0.96489 0.37236 0.45285 0.0
O19 O 0.97747 0.36465 0.46982 0.0
O20 O 0.89971 0.30689 0.43134 0.0
C21 C 0.96663 0.32634 0.37382 0.0
O22 O 0.98269 0.34188 0.39722 0.0
C23 C 0.95437 0.30269 0.48658 0.0
O24 O 0.95871 0.29509 0.45335 0.0
O25 O 0.94579 0.35807 0.43652 0.0
C26 C 0.59636 0.89196 0.76463 0.0
O27 O 0.61785 0.90269 0.77752 0.0
O28 O 0.62557 0.94804 0.8099 0.0
Zn29 Zn 0.60532 0.93827 0.76108 0.0
O30 O 0.62381 0.94925 0.7105 0.0
C31 C 0.57722 0.95485 0.79731 0.0
O32 O 0.5844 0.94992 0.83047 0.0
O33 O 0.58664 0.90373 0.75723 0.0
C34 C 0.63367 0.97013 0.6987 0.0
O35 O 0.63289 0.98578 0.72138 0.0
C36 C 0.64749 0.95746 0.81041 0.0
O37 O 0.65883 0.96119 0.77662 0.0
O38 O 0.58386 0.95117 0.76392 0.0
C39 C 0.70397 0.59772 0.07286 0.0
O40 O 0.71167 0.61981 0.07935 0.0
O41 O 0.67599 0.61954 0.13392 0.0
Zn42 Zn 0.66302 0.59811 0.08672 0.0
O43 O 0.66438 0.61527 0.03642 0.0
C44 C 0.61715 0.57755 0.12011 0.0
O45 O 0.62588 0.59788 0.13745 0.0
O46 O 0.68241 0.58359 0.07597 0.0
C47 C 0.64791 0.61813 0.02452 0.0
O48 O 0.62935 0.61073 0.04684 0.0
C49 C 0.67814 0.63956 0.13489 0.0
O50 O 0.67215 0.64718 0.10351 0.0
O51 O 0.62997 0.57347 0.09744 0.0
C52 C 0.09931 0.70093 0.38077 0.0
O53 O 0.08265 0.70455 0.36887 0.0
O54 O 0.04838 0.67151 0.45764 0.0
Zn55 Zn 0.06037 0.66096 0.41192 0.0
O56 O 0.04271 0.6584 0.36174 0.0
C57 C 0.03406 0.6129 0.4248 0.0
O58 O 0.01759 0.61781 0.41806 0.0
O59 O 0.09419 0.68298 0.40134 0.0
C60 C 0.03139 0.66874 0.35542 0.0
O61 O 0.03037 0.68199 0.3834 0.0
C62 C 0.05795 0.69182 0.47219 0.0
O63 O 0.07759 0.70807 0.45717 0.0
O64 O 0.055 0.62922 0.42439 0.0
C65 C 0.40378 0.10862 0.77347 0.0
O66 O 0.38756 0.09974 0.80093 0.0
O67 O 0.37464 0.05197 0.81481 0.0
Zn68 Zn 0.39373 0.06134 0.76467 0.0
O69 O 0.37352 0.04659 0.71678 0.0
C70 C 0.42627 0.05013 0.80073 0.0
O71 O 0.42013 0.05615 0.83388 0.0
O72 O 0.4097 0.09559 0.75571 0.0
C73 C 0.37041 0.02766 0.70235 0.0
O74 O 0.37988 0.01689 0.72014 0.0
C75 C 0.35279 0.04319 0.81527 0.0
O76 O 0.34164 0.04026 0.78147 0.0
O77 O 0.41744 0.05128 0.76779 0.0
C78 C 0.58413 0.70718 0.56591 0.0
O79 O 0.60513 0.71638 0.55113 0.0
O80 O 0.6084 0.67802 0.51357 0.0
Zn81 Zn 0.58828 0.66692 0.56252 0.0
O82 O 0.60657 0.67004 0.61215 0.0
C83 C 0.56906 0.62017 0.53458 0.0
O84 O 0.58933 0.62898 0.51702 0.0
O85 O 0.57267 0.68549 0.57187 0.0
C86 C 0.61682 0.65865 0.61849 0.0
O87 O 0.61669 0.64475 0.59061 0.0
C88 C 0.6304 0.68888 0.51332 0.0
O89 O 0.64176 0.6946 0.54731 0.0
O90 O 0.56442 0.63328 0.55534 0.0
C91 C 0.88801 0.60098 0.87777 0.0
O92 O 0.89852 0.62135 0.86033 0.0
O93 O 0.94463 0.63113 0.83718 0.0
Zn94 Zn 0.93454 0.61081 0.88586 0.0
O95 O 0.9456 0.62936 0.93631 0.0
C96 C 0.94361 0.57565 0.85512 0.0
O97 O 0.92993 0.57458 0.82594 0.0
O98 O 0.89999 0.59218 0.88959 0.0
C99 C 0.96619 0.63729 0.94869 0.0
O100 O 0.98087 0.63442 0.92671 0.0
C101 C 0.95596 0.65313 0.83792 0.0
O102 O 0.96147 0.66396 0.87241 0.0
O103 O 0.94775 0.5897 0.88372 0.0
C104 C 0.30249 0.88619 0.23137 0.0
O105 O 0.30047 0.89159 0.19441 0.0
O106 O 0.32104 0.94197 0.19051 0.0
Zn107 Zn 0.33204 0.93593 0.2424 0.0
O108 O 0.32615 0.95213 0.28746 0.0
C109 C 0.37444 0.93881 0.215 0.0
O110 O 0.36035 0.92127 0.19237 0.0
O111 O 0.31526 0.90213 0.25567 0.0
C112 C 0.34167 0.97189 0.29972 0.0
O113 O 0.36169 0.98253 0.28116 0.0
C114 C 0.30498 0.94685 0.1877 0.0
O115 O 0.29447 0.94784 0.22019 0.0
O116 O 0.3661 0.94761 0.23871 0.0
C117 C 0.38894 0.28812 0.59054 0.0
O118 O 0.36757 0.28314 0.59765 0.0
O119 O 0.36553 0.31795 0.52603 0.0
Zn120 Zn 0.38992 0.32877 0.5689 0.0
O121 O 0.3767 0.32927 0.62243 0.0
C122 C 0.40872 0.37653 0.55858 0.0
O123 O 0.38723 0.37005 0.56819 0.0
O124 O 0.40298 0.30766 0.57531 0.0
C125 C 0.35609 0.3244 0.62986 0.0
O126 O 0.34122 0.31894 0.60043 0.0
C127 C 0.35977 0.30072 0.50313 0.0
O128 O 0.36982 0.28823 0.50725 0.0
O129 O 0.41473 0.36127 0.55627 0.0
C130 C 0.10829 0.41738 0.89839 0.0
O131 O 0.10044 0.40341 0.86748 0.0
O132 O 0.05105 0.382 0.86344 0.0
Zn133 Zn 0.05973 0.40188 0.9126 0.0
O134 O 0.04683 0.38288 0.96229 0.0
C135 C 0.04896 0.43395 0.87498 0.0
O136 O 0.0597 0.43094 0.84469 0.0
O137 O 0.09418 0.42004 0.92006 0.0
C138 C 0.02643 0.36596 0.96689 0.0
O139 O 0.01179 0.35933 0.93687 0.0
C140 C 0.04794 0.36163 0.86135 0.0
O141 O 0.05038 0.35179 0.89355 0.0
O142 O 0.04712 0.42342 0.9076 0.0
C143 C 0.70445 0.11452 0.23428 0.0
O144 O 0.71439 0.10546 0.21282 0.0
O145 O 0.67923 0.05972 0.18682 0.0
Zn146 Zn 0.66783 0.06723 0.23711 0.0
O147 O 0.67402 0.05374 0.28596 0.0
C148 C 0.62108 0.03616 0.21244 0.0
O149 O 0.63104 0.02609 0.19394 0.0
O150 O 0.68384 0.10155 0.24634 0.0
C151 C 0.66723 0.03247 0.29165 0.0
O152 O 0.65594 0.01745 0.26317 0.0
C153 C 0.69408 0.05315 0.18465 0.0
O154 O 0.70385 0.05131 0.21745 0.0
O155 O 0.63347 0.05437 0.23275 0.0
H156 H 0.30868 0.3695 0.21906 0.0
H157 H 0.30628 0.34798 0.27948 0.0
H158 H 0.28633 0.28669 0.20922 0.0
H159 H 0.2888 0.30817 0.14821 0.0
H160 H 0.26976 0.30372 0.31407 0.0
H161 H 0.34924 0.30322 0.26387 0.0
H162 H 0.34037 0.3221 0.24136 0.0
H163 H 0.32469 0.29167 0.23082 0.0
C164 C 0.30345 0.35136 0.2164 0.0
C165 C 0.29927 0.34063 0.17879 0.0
C166 C 0.30196 0.33906 0.251 0.0
C167 C 0.29635 0.31587 0.24864 0.0
C168 C 0.29085 0.30466 0.21148 0.0
H169 H 0.34367 0.26571 0.448 0.0
H170 H 0.32156 0.26201 0.38737 0.0
C171 C 0.29226 0.31696 0.17673 0.0
C172 C 0.29889 0.3046 0.28472 0.0
H173 H 0.33776 0.29313 0.33005 0.0
C174 C 0.28431 0.30087 0.31745 0.0
C175 C 0.31776 0.30073 0.28879 0.0
C176 C 0.33405 0.30468 0.25453 0.0
C177 C 0.2889 0.29461 0.35492 0.0
C178 C 0.30892 0.29266 0.35982 0.0
C179 C 0.32246 0.2947 0.32631 0.0
C180 C 0.31816 0.29199 0.39975 0.0
C181 C 0.27265 0.29081 0.38908 0.0
C182 C 0.32326 0.30983 0.42716 0.0
C183 C 0.33578 0.31194 0.46179 0.0
C184 C 0.34381 0.29646 0.46942 0.0
C185 C 0.33784 0.27799 0.44287 0.0
C186 C 0.32514 0.2758 0.40827 0.0
H187 H 0.25463 0.28372 0.37812 0.0
H188 H 0.27291 0.27879 0.41175 0.0
H189 H 0.27787 0.30766 0.40365 0.0
H190 H 0.31868 0.32294 0.42076 0.0
H191 H 0.34008 0.32638 0.48158 0.0
H192 H 0.98252 0.28445 0.50106 0.0
H193 H -0.00117 0.2823 0.56557 0.0
H194 H 0.96129 0.31106 0.62393 0.0
H195 H 0.94482 0.31299 0.56026 0.0
H196 H 0.02668 0.31954 0.61113 0.0
H197 H 0.9507 0.25996 0.70067 0.0
H198 H 0.94973 0.26104 0.64678 0.0
H199 H 0.94558 0.28105 0.67693 0.0
C200 C 0.9774 0.28986 0.5278 0.0
C201 C 0.96246 0.29898 0.52554 0.0
C202 C 0.9867 0.28859 0.56459 0.0
C203 C 0.98095 0.29612 0.59965 0.0
C204 C 0.96549 0.30454 0.59749 0.0
H205 H 0.04735 0.37938 0.78852 0.0
H206 H 0.03401 0.35884 0.72543 0.0
C207 C 0.95628 0.30588 0.5609 0.0
C208 C 0.99311 0.29818 0.63777 0.0
H209 H 0.98298 0.29109 0.73806 0.0
C210 C 0.01722 0.31274 0.63883 0.0
C211 C 0.9809 0.28893 0.67387 0.0
C212 C 0.95532 0.27166 0.67442 0.0
C213 C 0.02904 0.32024 0.67527 0.0
C214 C 0.01633 0.31329 0.71135 0.0
C215 C 0.99266 0.29677 0.71033 0.0
C216 C 0.02634 0.3256 0.74934 0.0
C217 C 0.05486 0.33649 0.67475 0.0
C218 C 0.0261 0.31364 0.784 0.0
C219 C 0.03367 0.32539 0.82046 0.0
C220 C 0.04122 0.34918 0.82278 0.0
C221 C 0.04164 0.36106 0.78784 0.0
C222 C 0.03424 0.34939 0.75158 0.0
H223 H 0.06287 0.33337 0.64813 0.0
H224 H 0.05844 0.35459 0.6731 0.0
H225 H 0.06319 0.33459 0.7021 0.0
H226 H 0.01978 0.29521 0.78293 0.0
H227 H 0.03308 0.31576 0.84691 0.0
H228 H 0.69442 0.98293 0.82296 0.0
H229 H 0.71435 -0.00109 0.8866 0.0
H230 H 0.64858 0.96657 0.94757 0.0
H231 H 0.62871 0.95037 0.88482 0.0
H232 H 0.70929 0.02926 0.93253 0.0
H233 H 0.68655 0.95177 0.02269 0.0
H234 H 0.68366 0.95063 0.96892 0.0
H235 H 0.66095 0.94909 0.00026 0.0
C236 C 0.68427 0.97888 0.85009 0.0
C237 C 0.65998 0.96544 0.84883 0.0
C238 C 0.69569 0.988 0.88638 0.0
C239 C 0.68299 0.98358 0.92194 0.0
C240 C 0.65881 0.96968 0.92075 0.0
H241 H 0.6783 0.05718 0.11184 0.0
H242 H 0.68317 0.0428 0.04804 0.0
C243 C 0.64743 0.96063 0.88467 0.0
C244 C 0.69428 0.99547 0.95966 0.0
H245 H 0.69167 0.9857 0.06001 0.0
C246 C 0.70604 0.01976 0.96033 0.0
C247 C 0.69063 0.98318 -0.00413 0.0
C248 C 0.67999 0.95722 -0.0032 0.0
C249 C 0.71203 0.03191 -0.00341 0.0
C250 C 0.70564 0.0194 0.03292 0.0
C251 C 0.69615 0.9953 0.03215 0.0
C252 C 0.70529 0.03038 0.07114 0.0
C253 C 0.72419 0.05799 0.99559 0.0
C254 C 0.71582 0.02789 0.10564 0.0
C255 C 0.71286 0.03596 0.14254 0.0
C256 C 0.6991 0.04639 0.14549 0.0
C257 C 0.68904 0.04928 0.11067 0.0
C258 C 0.69202 0.04127 0.074 0.0
H259 H 0.73553 0.06488 0.96888 0.0
H260 H 0.71111 0.06356 0.99363 0.0
H261 H 0.73483 0.06572 0.02281 0.0
H262 H 0.7259 0.01928 0.10414 0.0
H263 H 0.72079 0.03344 0.16885 0.0
H264 H 0.67132 0.67532 0.15503 0.0
H265 H 0.67428 0.6915 0.22154 0.0
H266 H 0.70146 0.64943 0.26725 0.0
H267 H 0.69782 0.6326 0.20098 0.0
H268 H 0.66453 0.64191 0.30684 0.0
H269 H 0.72243 0.73654 0.2971 0.0
H270 H 0.70064 0.72651 0.25902 0.0
H271 H 0.7216 0.71704 0.25889 0.0
C272 C 0.67849 0.66995 0.179 0.0
C273 C 0.68405 0.65247 0.17293 0.0
C274 C 0.68039 0.67939 0.21701 0.0
C275 C 0.68832 0.67186 0.24937 0.0
C276 C 0.69537 0.65555 0.24269 0.0
H277 H 0.67609 0.70222 0.5016 0.0
H278 H 0.69429 0.7014 0.43835 0.0
C279 C 0.6932 0.64589 0.20484 0.0
C280 C 0.68547 0.67792 0.29076 0.0
H281 H 0.69395 0.7229 0.35086 0.0
C282 C 0.67147 0.65966 0.31669 0.0
C283 C 0.69451 0.70105 0.30378 0.0
C284 C 0.71083 0.72138 0.27832 0.0
C285 C 0.66521 0.66385 0.3543 0.0
C286 C 0.6729 0.68687 0.3661 0.0
C287 C 0.68791 0.70525 0.34133 0.0
C288 C 0.66374 0.69161 0.40271 0.0
C289 C 0.64964 0.64359 0.38066 0.0
C290 C 0.64086 0.68704 0.40304 0.0
C291 C 0.6304 0.68734 0.43887 0.0
C292 C 0.6427 0.69226 0.47503 0.0
C293 C 0.66615 0.69831 0.47424 0.0
C294 C 0.6766 0.69792 0.43822 0.0
H295 H 0.64885 0.62733 0.3707 0.0
H296 H 0.6557 0.64706 0.41214 0.0
H297 H 0.63185 0.64094 0.37981 0.0
H298 H 0.63073 0.68214 0.37577 0.0
H299 H 0.61239 0.68281 0.43839 0.0
H300 H 0.98858 0.69887 0.82797 0.0
H301 H 0.00612 0.71859 0.76489 0.0
H302 H 0.96052 0.65625 0.70002 0.0
H303 H 0.94291 0.6366 0.76242 0.0
H304 H 0.02899 0.70373 0.71603 0.0
H305 H 0.95936 0.7055 0.63044 0.0
H306 H 0.95803 0.70169 0.68405 0.0
H307 H 0.94946 0.67732 0.65123 0.0
C308 C 0.98195 0.68956 0.80016 0.0
C309 C 0.9645 0.66613 0.80014 0.0
C310 C 0.99195 0.70086 0.76421 0.0
C311 C 0.98437 0.689 0.72777 0.0
C312 C 0.96625 0.66594 0.72768 0.0
H313 H 0.01717 0.66218 0.50859 0.0
H314 H 0.00125 0.66869 0.56941 0.0
C315 C 0.95637 0.65462 0.76347 0.0
C316 C -0.00263 0.69909 0.69038 0.0
H317 H 0.98862 0.7025 0.59084 0.0
C318 C 0.02047 0.70426 0.68877 0.0
C319 C 0.98623 0.69988 0.655 0.0
C320 C 0.96196 0.69604 0.65536 0.0
C321 C 0.03194 0.70777 0.65211 0.0
C322 C 0.02 0.7064 0.61638 0.0
C323 C -0.00236 0.70335 0.61831 0.0
C324 C 0.02881 0.70409 0.57716 0.0
C325 C 0.05595 0.71088 0.65169 0.0
C326 C 0.04937 0.72206 0.56093 0.0
C327 C 0.05866 0.71834 0.52611 0.0
C328 C 0.04745 0.69661 0.5071 0.0
C329 C 0.02635 0.67905 0.52263 0.0
C330 C 0.01714 0.68277 0.55729 0.0
H331 H 0.06168 0.7089 0.68187 0.0
H332 H 0.05659 0.69808 0.63132 0.0
H333 H 0.06843 0.72843 0.64045 0.0
H334 H 0.05846 0.73872 0.57565 0.0
H335 H 0.07485 0.73228 0.51468 0.0
H336 H 0.27712 0.96517 0.17134 0.0
H337 H 0.27176 0.97901 0.1065 0.0
H338 H 0.31576 0.95687 0.05107 0.0
H339 H 0.32093 0.94284 0.11508 0.0
H340 H 0.30641 0.01326 0.06352 0.0
H341 H 0.26381 0.9347 0.97067 0.0
H342 H 0.26398 0.9335 0.02461 0.0
H343 H 0.28807 0.93606 -0.00388 0.0
C344 C 0.28525 0.96284 0.14514 0.0
C345 C 0.29955 0.95302 0.14835 0.0
C346 C 0.28215 0.97073 0.10817 0.0
C347 C 0.29303 0.96861 0.07385 0.0
C348 C 0.30668 0.95813 0.0769 0.0
H349 H 0.37108 0.04943 0.89 0.0
H350 H 0.35065 0.03285 0.95225 0.0
C351 C 0.30984 0.95034 0.11368 0.0
C352 C 0.29282 0.97978 0.03578 0.0
H353 H 0.29017 0.97068 0.93526 0.0
C354 C 0.3022 0.00387 0.03547 0.0
C355 C 0.28683 0.96753 -0.00079 0.0
C356 C 0.27486 0.94147 -0.00227 0.0
C357 C 0.30805 0.01626 -0.00054 0.0
C358 C 0.30479 0.00424 0.96308 0.0
C359 C 0.2931 0.97995 0.96322 0.0
C360 C 0.31645 0.01643 0.92581 0.0
C361 C 0.31868 0.0422 0.00084 0.0
C362 C 0.30403 0.0125 0.89006 0.0
C363 C 0.31575 0.02187 0.85412 0.0
C364 C 0.34007 0.03504 0.85341 0.0
C365 C 0.35235 0.03938 0.88947 0.0
C366 C 0.34066 0.0301 0.92522 0.0
H367 H 0.31202 0.04751 0.02678 0.0
H368 H 0.3377 0.05032 0.00444 0.0
H369 H 0.3151 0.04895 0.97304 0.0
H370 H 0.28535 0.00177 0.88984 0.0
H371 H 0.30581 0.01819 0.82681 0.0
H372 H 0.13905 0.40442 0.87345 0.0
H373 H 0.17457 0.41213 0.90731 0.0
H374 H 0.16746 0.45803 0.98926 0.0
H375 H 0.13141 0.44984 0.95627 0.0
H376 H 0.21673 0.44968 0.92831 0.0
H377 H 0.16237 0.40708 0.06232 0.0
H378 H 0.14997 0.40702 0.01446 0.0
H379 H 0.16247 0.43259 0.04503 0.0
C380 C 0.14526 0.41653 0.89814 0.0
C381 C 0.13217 0.42611 0.91277 0.0
C382 C 0.16561 0.42096 0.91743 0.0
C383 C 0.17329 0.43518 0.95141 0.0
C384 C 0.16147 0.44654 0.9637 0.0
H385 H 0.29568 0.44377 0.07115 0.0
H386 H 0.27038 0.45709 0.04329 0.0
C387 C 0.14095 0.4419 0.94472 0.0
C388 C 0.19193 0.43574 0.97617 0.0
H389 H 0.20105 0.4164 0.06497 0.0
C390 C 0.21351 0.44279 0.95846 0.0
C391 C 0.1875 0.42651 0.01538 0.0
C392 C 0.1643 0.41768 0.03544 0.0
C393 C 0.23043 0.43985 0.9782 0.0
C394 C 0.22568 0.42999 0.01689 0.0
C395 C 0.20459 0.42407 0.03537 0.0
C396 C 0.24085 0.42267 0.03642 0.0
C397 C 0.2526 0.44596 0.95658 0.0
C398 C 0.23233 0.39901 0.04306 0.0
C399 C 0.24657 0.39139 0.05921 0.0
C400 C 0.26967 0.40729 0.06904 0.0
C401 C 0.27798 0.43109 0.06368 0.0
C402 C 0.26363 0.43873 0.04754 0.0
H403 H 0.25197 0.44996 0.92453 0.0
H404 H 0.26719 0.46139 0.97079 0.0
H405 H 0.25629 0.43151 0.95861 0.0
H406 H 0.21475 0.38635 0.03478 0.0
H407 H 0.23959 0.37296 0.06307 0.0
H408 H 0.86034 0.30067 0.40897 0.0
H409 H 0.82151 0.27758 0.38061 0.0
H410 H 0.82392 0.21523 0.40357 0.0
H411 H 0.86232 0.238 0.43254 0.0
H412 H 0.81212 0.25185 0.31473 0.0
H413 H 0.75885 0.19534 0.43749 0.0
H414 H 0.78648 0.22108 0.44622 0.0
H415 H 0.78498 0.19413 0.43334 0.0
C416 C 0.85235 0.282 0.40885 0.0
C417 C 0.86446 0.27115 0.42281 0.0
C418 C 0.83017 0.26885 0.39262 0.0
C419 C 0.81969 0.24467 0.39042 0.0
C420 C 0.83138 0.23381 0.40587 0.0
H421 H 0.75013 0.14505 0.22087 0.0
H422 H 0.77461 0.18089 0.25662 0.0
C423 C 0.85348 0.24689 0.42213 0.0
C424 C 0.79801 0.23086 0.36758 0.0
H425 H 0.74767 0.17913 0.37014 0.0
C426 C 0.7977 0.23625 0.32709 0.0
C427 C 0.77892 0.21085 0.3838 0.0
C428 C 0.77722 0.20519 0.42774 0.0
C429 C 0.77988 0.22099 0.30161 0.0
C430 C 0.76227 0.19962 0.31691 0.0
C431 C 0.7614 0.19532 0.35815 0.0
C432 C 0.74663 0.18026 0.29042 0.0
C433 C 0.78059 0.22755 0.2583 0.0
C434 C 0.72268 0.16795 0.29732 0.0
C435 C 0.7086 0.14717 0.2772 0.0
C436 C 0.71832 0.13831 0.25005 0.0
C437 C 0.74208 0.15138 0.24155 0.0
C438 C 0.75611 0.17205 0.26175 0.0
H439 H 0.78859 0.2466 0.25497 0.0
H440 H 0.79143 0.22221 0.24134 0.0
H441 H 0.76302 0.21906 0.24487 0.0
H442 H 0.71502 0.17391 0.31948 0.0
H443 H 0.69033 0.13754 0.28434 0.0
H444 H 0.55372 0.86559 0.73023 0.0
H445 H 0.53831 0.82721 0.70032 0.0
H446 H 0.59857 0.82494 0.74036 0.0
H447 H 0.61383 0.86292 0.77085 0.0
H448 H 0.55917 0.81883 0.63991 0.0
H449 H 0.54841 0.75969 0.7634 0.0
H450 H 0.55117 0.78769 0.77189 0.0
H451 H 0.57656 0.78498 0.76586 0.0
C452 C 0.5634 0.85665 0.73356 0.0
C453 C 0.58511 0.86738 0.75264 0.0
C454 C 0.55455 0.83472 0.71645 0.0
C455 C 0.56715 0.8231 0.71845 0.0
C456 C 0.58825 0.8333 0.73926 0.0
H457 H 0.60494 0.7541 0.55979 0.0
H458 H 0.59387 0.77941 0.59343 0.0
C459 C 0.59708 0.85516 0.7564 0.0
C460 C 0.56022 0.80204 0.69431 0.0
H461 H 0.55793 0.74993 0.69823 0.0
C462 C 0.55826 0.80348 0.65276 0.0
C463 C 0.55851 0.78179 0.71102 0.0
C464 C 0.55851 0.77836 0.75556 0.0
C465 C 0.55681 0.78615 0.62728 0.0
C466 C 0.55783 0.76719 0.6438 0.0
C467 C 0.55757 0.76469 0.68549 0.0
C468 C 0.56231 0.75157 0.61881 0.0
C469 C 0.5551 0.78877 0.58285 0.0
C470 C 0.54826 0.72746 0.62186 0.0
C471 C 0.55468 0.71288 0.60286 0.0
C472 C 0.5754 0.72222 0.58085 0.0
C473 C 0.58888 0.74634 0.57646 0.0
C474 C 0.58245 0.76086 0.59543 0.0
H475 H 0.54587 0.79836 0.57627 0.0
H476 H 0.57278 0.79888 0.57014 0.0
H477 H 0.54596 0.77169 0.56765 0.0
H478 H 0.53273 0.71996 0.64001 0.0
H479 H 0.54391 0.69435 0.60681 0.0
H480 H 0.75062 0.62382 0.06355 0.0
H481 H 0.77622 0.61272 0.03096 0.0
H482 H 0.7191 0.5433 0.01491 0.0
H483 H 0.69309 0.55437 0.04718 0.0
H484 H 0.78685 0.57768 0.04813 0.0
H485 H 0.74357 0.56534 0.9004 0.0
H486 H 0.73844 0.57975 0.94139 0.0
H487 H 0.72596 0.54889 0.94204 0.0
C488 C 0.74347 0.60612 0.05347 0.0
C489 C 0.71978 0.59004 0.05756 0.0
C490 C 0.75815 0.5998 0.03492 0.0
C491 C 0.74946 0.5773 0.02006 0.0
C492 C 0.72603 0.56085 0.02565 0.0
H493 H 0.86165 0.56035 0.91834 0.0
H494 H 0.8241 0.54751 0.95004 0.0
C495 C 0.71126 0.56718 0.04427 0.0
C496 C 0.76506 0.5719 -0.00292 0.0
H497 H 0.77859 0.56522 0.90152 0.0
C498 C 0.78488 0.57443 0.01621 0.0
C499 C 0.76233 0.56778 0.95544 0.0
C500 C 0.74153 0.56539 0.93334 0.0
C501 C 0.80282 0.57446 0.99444 0.0
C502 C 0.80058 0.5714 0.95249 0.0
C503 C 0.78012 0.56742 0.9337 0.0
C504 C 0.82062 0.57595 0.92731 0.0
C505 C 0.8247 0.5795 0.01613 0.0
C506 C 0.8303 0.59534 0.90206 0.0
C507 C 0.85159 0.6026 0.88365 0.0
C508 C 0.8636 0.59063 0.89033 0.0
C509 C 0.85296 0.57013 0.91305 0.0
C510 C 0.83156 0.5628 0.93131 0.0
H511 H 0.82492 0.58504 0.04751 0.0
H512 H 0.82615 0.56366 0.01666 0.0
H513 H 0.84015 0.59329 0.00052 0.0
H514 H 0.82204 0.60566 0.89844 0.0
H515 H 0.85918 0.61833 0.86604 0.0
H516 H 0.1378 0.69681 0.39262 0.0
H517 H 0.1778 0.72458 0.37302 0.0
H518 H 0.15527 0.76993 0.32476 0.0
H519 H 0.11554 0.74254 0.34402 0.0
H520 H 0.19441 0.74334 0.29167 0.0
H521 H 0.20917 0.81036 0.40402 0.0
H522 H 0.18677 0.78042 0.4093 0.0
H523 H 0.18235 0.79953 0.37735 0.0
C524 C 0.14143 0.71276 0.378 0.0
C525 C 0.12354 0.71755 0.36999 0.0
C526 C 0.16422 0.72852 0.36677 0.0
C527 C 0.16939 0.74932 0.34789 0.0
C528 C 0.15159 0.75406 0.3398 0.0
H529 H 0.26536 0.85035 0.19424 0.0
H530 H 0.23656 0.81393 0.22455 0.0
C531 C 0.12889 0.73835 0.35074 0.0
C532 C 0.19326 0.76623 0.33577 0.0
H533 H 0.234 0.82305 0.34671 0.0
C534 C 0.20338 0.76066 0.30415 0.0
C535 C 0.205 0.78862 0.3526 0.0
C536 C 0.19539 0.79508 0.38797 0.0
C537 C 0.22432 0.77752 0.28705 0.0
C538 C 0.23507 0.80045 0.30175 0.0
C539 C 0.22569 0.8055 0.3352 0.0
C540 C 0.25465 0.82006 0.28095 0.0
C541 C 0.23444 0.77073 0.25292 0.0
C542 C 0.27451 0.83552 0.30239 0.0
C543 C 0.29082 0.85652 0.28534 0.0
C544 C 0.28752 0.86244 0.24652 0.0
C545 C 0.26841 0.84628 0.22416 0.0
C546 C 0.25201 0.82533 0.24136 0.0
H547 H 0.22934 0.75215 0.25479 0.0
H548 H 0.22769 0.77336 0.22429 0.0
H549 H 0.25362 0.78134 0.25247 0.0
H550 H 0.27684 0.83182 0.33302 0.0
H551 H 0.30548 0.86854 0.30323 0.0
H552 H 0.38926 0.13867 0.79551 0.0
H553 H 0.39736 0.17424 0.7612 0.0
H554 H 0.44514 0.16786 0.68287 0.0
H555 H 0.43689 0.132 0.71659 0.0
H556 H 0.43768 0.21719 0.74157 0.0
H557 H 0.39371 0.16285 0.60804 0.0
H558 H 0.39245 0.15039 0.65645 0.0
H559 H 0.41835 0.16179 0.62699 0.0
C560 C 0.40183 0.14503 0.77151 0.0
C561 C 0.41207 0.13227 0.75824 0.0
C562 C 0.40649 0.1654 0.752 0.0
C563 C 0.42149 0.17336 0.71906 0.0
C564 C 0.43319 0.16172 0.70781 0.0
H565 H 0.43333 0.29579 0.59384 0.0
H566 H 0.44581 0.26958 0.62089 0.0
C567 C 0.42848 0.14128 0.72719 0.0
C568 C 0.42266 0.1922 0.69418 0.0
H569 H 0.40322 0.20164 0.60579 0.0
C570 C 0.4306 0.21402 0.71156 0.0
C571 C 0.41322 0.18781 0.65515 0.0
C572 C 0.40378 0.16444 0.63547 0.0
C573 C 0.42837 0.23129 0.69158 0.0
C574 C 0.41809 0.22654 0.65327 0.0
C575 C 0.41123 0.20516 0.6351 0.0
C576 C 0.41111 0.24205 0.63424 0.0
C577 C 0.43565 0.25394 0.71248 0.0
C578 C 0.38751 0.2349 0.6319 0.0
C579 C 0.38035 0.24969 0.61657 0.0
C580 C 0.39669 0.2719 0.60307 0.0
C581 C 0.42035 0.27876 0.60407 0.0
C582 C 0.42752 0.26391 0.61966 0.0
H583 H 0.44128 0.254 0.74375 0.0
H584 H 0.45024 0.2682 0.69597 0.0
H585 H 0.42114 0.25757 0.71278 0.0
H586 H 0.37461 0.21803 0.64295 0.0
H587 H 0.36201 0.24383 0.61603 0.0
H588 H 0.38118 0.3294 0.69701 0.0
H589 H 0.37076 0.33147 0.76597 0.0
H590 H 0.30517 0.32245 0.72701 0.0
H591 H 0.31551 0.32042 0.65732 0.0
H592 H 0.33098 0.36064 0.7789 0.0
H593 H 0.32375 0.28017 0.84009 0.0
H594 H 0.3499 0.29733 0.81227 0.0
H595 H 0.3224 0.2848 0.78718 0.0
C596 C 0.36444 0.32768 0.70297 0.0
C597 C 0.34917 0.3248 0.67166 0.0
C598 C 0.35844 0.32865 0.74249 0.0
C599 C 0.33705 0.3267 0.75156 0.0
C600 C 0.32166 0.32373 0.72051 0.0
H601 H 0.2995 0.3594 0.98387 0.0
H602 H 0.29621 0.34503 0.91563 0.0
C603 C 0.32761 0.32261 0.6808 0.0
C604 C 0.33183 0.32966 0.79331 0.0
H605 H 0.32934 0.30939 0.88786 0.0
C606 C 0.33015 0.34922 0.80273 0.0
C607 C 0.33087 0.31474 0.82417 0.0
C608 C 0.3316 0.29295 0.81545 0.0
C609 C 0.32885 0.35502 0.84254 0.0
C610 C 0.32876 0.34055 0.87355 0.0
C611 C 0.32949 0.32047 0.864 0.0
C612 C 0.32948 0.34686 0.91608 0.0
C613 C 0.32885 0.37722 0.85112 0.0
C614 C 0.34884 0.35165 0.93945 0.0
C615 C 0.35072 0.35968 0.97858 0.0
C616 C 0.33325 0.36306 0.99492 0.0
C617 C 0.3134 0.35725 0.97198 0.0
C618 C 0.3115 0.34911 0.93294 0.0
H619 H 0.33393 0.38872 0.82454 0.0
H620 H 0.3112 0.37308 0.86015 0.0
H621 H 0.34088 0.38684 0.876 0.0
H622 H 0.36286 0.3499 0.92696 0.0
H623 H 0.36616 0.3639 0.99551 0.0
H624 H 0.93709 0.29663 0.31742 0.0
H625 H 0.94538 0.29456 0.24694 0.0
H626 H 0.01698 0.34585 0.2664 0.0
H627 H 0.00893 0.34792 0.33703 0.0
H628 H 0.96135 0.33276 0.19761 0.0
H629 H 0.02167 0.29852 0.19503 0.0
H630 H 0.00366 0.29521 0.23766 0.0
H631 H 0.03015 0.32203 0.22948 0.0
C632 C 0.95472 0.30714 0.30694 0.0
C633 C 0.97233 0.3226 0.33279 0.0
C634 C 0.95941 0.30589 0.26665 0.0
C635 C 0.98181 0.31989 0.25154 0.0
C636 C -0.00034 0.33455 0.27762 0.0
H637 H 0.05211 0.37767 0.03519 0.0
H638 H 0.03918 0.36242 0.10223 0.0
C639 C 0.99499 0.33583 0.31795 0.0
C640 C 0.98594 0.3214 0.20791 0.0
H641 H 0.02074 0.31863 0.13611 0.0
C642 C 0.97402 0.32926 0.18395 0.0
C643 C 0.00251 0.31688 0.19034 0.0
C644 C 0.01509 0.30748 0.21439 0.0
C645 C 0.97912 0.33396 0.14322 0.0
C646 C -0.00372 0.33018 0.12585 0.0
C647 C 0.00757 0.32146 0.14951 0.0
C648 C 0.00429 0.33738 0.08431 0.0
C649 C 0.96704 0.34415 0.11974 0.0
C650 C 0.98909 0.32792 0.05178 0.0
C651 C -0.00363 0.33677 0.01326 0.0
C652 C 0.01903 0.35508 0.00672 0.0
C653 C 0.03448 0.36369 0.03917 0.0
C654 C 0.02716 0.35493 0.07754 0.0
H655 H 0.95787 0.35033 0.13947 0.0
H656 H 0.97959 0.35887 0.10106 0.0
H657 H 0.95405 0.33073 0.09959 0.0
H658 H 0.97147 0.31404 0.0563 0.0
H659 H 0.98413 0.32961 0.98884 0.0
H660 H 0.65364 0.01234 0.66154 0.0
H661 H 0.665 0.0206 0.59123 0.0
H662 H 0.64697 0.94958 0.57313 0.0
H663 H 0.63554 0.94108 0.64322 0.0
H664 H 0.69726 0.01149 0.54058 0.0
H665 H 0.60421 0.96254 0.49687 0.0
H666 H 0.61337 0.97291 0.54714 0.0
H667 H 0.61457 0.94819 0.52933 0.0
C668 C 0.6524 -0.00145 0.64278 0.0
C669 C 0.64341 0.97599 0.65786 0.0
C670 C 0.65896 0.00332 0.60268 0.0
C671 C 0.65655 0.98562 0.57709 0.0
C672 C 0.64874 0.96339 0.59246 0.0
H673 H 0.65359 0.98825 0.31617 0.0
H674 H 0.65433 0.97529 0.38435 0.0
C675 C 0.64223 0.9586 0.63252 0.0
C676 C 0.66039 0.99 0.53374 0.0
H677 H 0.63137 0.98008 0.44551 0.0
C678 C 0.68293 0.00451 0.51963 0.0
C679 C 0.64163 0.98068 0.50665 0.0
C680 C 0.61702 0.96531 0.52055 0.0
C681 C 0.68718 0.01025 0.47894 0.0
C682 C 0.66829 0.00168 0.45204 0.0
C683 C 0.64584 0.98658 0.46611 0.0
C684 C 0.67094 0.00967 0.41003 0.0
C685 C 0.71184 0.02542 0.46523 0.0
C686 C 0.68025 0.03329 0.40177 0.0
C687 C 0.67994 0.04073 0.36295 0.0
C688 C 0.67 0.02466 0.33161 0.0
C689 C 0.66134 0.00106 0.33965 0.0
C690 C 0.66177 0.99363 0.37857 0.0
H691 H 0.72413 0.02356 0.48512 0.0
H692 H 0.71431 0.02125 0.43416 0.0
H693 H 0.71624 0.0438 0.4663 0.0
H694 H 0.68684 0.04593 0.42565 0.0
H695 H 0.68672 0.05904 0.35787 0.0
H696 H 0.61881 0.68474 0.68286 0.0
H697 H 0.63005 0.68191 0.75107 0.0
H698 H 0.64791 0.63108 0.71323 0.0
H699 H 0.6364 0.63355 0.64482 0.0
H700 H 0.61719 0.61658 0.77601 0.0
H701 H 0.69191 0.70367 0.80732 0.0
H702 H 0.66729 0.70436 0.78739 0.0
H703 H 0.68199 0.69342 0.75722 0.0
C704 C 0.62552 0.67325 0.68883 0.0
C705 C 0.62655 0.65923 0.65845 0.0
C706 C 0.63211 0.6718 0.72782 0.0
C707 C 0.64003 0.65647 0.7371 0.0
C708 C 0.64195 0.64311 0.70657 0.0
H709 H 0.68333 0.63416 0.97038 0.0
H710 H 0.68263 0.64492 0.90071 0.0
C711 C 0.63536 0.64455 0.66752 0.0
C712 C 0.64374 0.65247 0.77925 0.0
H713 H 0.67345 0.67944 0.86412 0.0
C714 C 0.62965 0.63027 0.79516 0.0
C715 C 0.66008 0.67034 0.80409 0.0
C716 C 0.67635 0.69424 0.78809 0.0
C717 C 0.63101 0.62558 0.83555 0.0
C718 C 0.64664 0.64368 0.86077 0.0
C719 C 0.66126 0.66573 0.84471 0.0
C720 C 0.648 0.63975 0.90386 0.0
C721 C 0.61573 0.60129 0.85094 0.0
C722 C 0.62902 0.63401 0.92885 0.0
C723 C 0.62932 0.62785 0.96863 0.0
C724 C 0.64866 0.62734 0.98403 0.0
C725 C 0.66811 0.63423 0.95936 0.0
C726 C 0.66778 0.64043 0.9196 0.0
H727 H 0.60867 0.58845 0.82626 0.0
H728 H 0.62542 0.59628 0.8718 0.0
H729 H 0.60093 0.60046 0.86749 0.0
H730 H 0.61372 0.63371 0.91725 0.0
H731 H 0.61413 0.6228 0.98688 0.0
H732 H 0.0276 0.64024 0.29415 0.0
H733 H 0.01345 0.63949 0.2267 0.0
H734 H -0.00195 0.69293 0.25843 0.0
H735 H 0.01238 0.69396 0.32639 0.0
H736 H 0.96861 0.63158 0.20207 0.0
H737 H 0.04156 0.71817 0.15832 0.0
H738 H 0.04319 0.70257 0.20113 0.0
H739 H 0.02601 0.7163 0.20342 0.0
C740 C 0.02114 0.65181 0.28696 0.0
C741 C 0.02124 0.66727 0.31556 0.0
C742 C 0.01303 0.65131 0.24841 0.0
C743 C 0.00498 0.66633 0.2376 0.0
C744 C 0.00449 0.68142 0.2662 0.0
H745 H 0.93969 0.64502 0.00187 0.0
H746 H 0.94813 0.65557 0.07236 0.0
C747 C 0.01255 0.68188 0.30499 0.0
C748 C -0.00248 0.66613 0.196 0.0
H749 H 0.01475 0.69619 0.10829 0.0
C750 C 0.97843 0.64581 0.18161 0.0
C751 C 0.01058 0.68471 0.16957 0.0
C752 C 0.03158 0.70668 0.18359 0.0
C753 C 0.97247 0.64323 0.14103 0.0
C754 C 0.98584 0.66162 0.11436 0.0
C755 C 0.0045 0.68224 0.12897 0.0
C756 C 0.982 0.65876 0.07075 0.0
C757 C 0.9527 0.6204 0.12669 0.0
C758 C -0.00128 0.65817 0.04622 0.0
C759 C 0.99403 0.65226 0.00591 0.0
C760 C 0.97251 0.64685 0.98953 0.0
C761 C 0.95634 0.64885 0.01369 0.0
C762 C 0.96109 0.65481 0.05397 0.0
H763 H 0.94691 0.60669 0.14988 0.0
H764 H 0.93777 0.62261 0.11882 0.0
H765 H 0.95775 0.61444 0.09954 0.0
H766 H 0.01501 0.66125 0.05868 0.0
H767 H 0.0069 0.65102 0.98808 0.0
H768 H 0.30115 0.9582 0.33978 0.0
H769 H 0.29663 0.96951 0.40723 0.0
H770 H 0.37038 0.0162 0.41393 0.0
H771 H 0.37485 0.00571 0.34626 0.0
H772 H 0.31244 0.96132 0.47158 0.0
H773 H 0.34877 0.05556 0.46486 0.0
H774 H 0.34158 0.0381 0.42026 0.0
H775 H 0.36933 0.04871 0.44417 0.0
C776 C 0.31631 0.97131 0.35533 0.0
C777 C 0.33838 0.98103 0.3378 0.0
C778 C 0.3137 0.97775 0.39385 0.0
C779 C 0.33311 0.99393 0.41557 0.0
C780 C 0.35503 0.00422 0.39746 0.0
H781 H 0.37083 0.99519 0.65358 0.0
H782 H 0.35615 0.98559 0.58554 0.0
C783 C 0.3576 -0.00195 0.35879 0.0
C784 C 0.33109 -0.00209 0.45862 0.0
H785 H 0.35245 0.04031 0.52939 0.0
C786 C 0.32071 0.97862 0.48414 0.0
C787 C 0.34128 0.0204 0.47519 0.0
C788 C 0.3506 0.0418 0.44952 0.0
C789 C 0.32191 0.98124 0.52578 0.0
C790 C 0.33452 0.00371 0.54229 0.0
C791 C 0.34321 0.02302 0.51682 0.0
C792 C 0.34091 0.00761 0.58518 0.0
C793 C 0.31004 0.95984 0.55152 0.0
C794 C 0.33755 0.02345 0.60761 0.0
C795 C 0.3464 0.02936 0.64637 0.0
C796 C 0.3587 0.01946 0.6634 0.0
C797 C 0.36127 0.00296 0.64147 0.0
C798 C 0.35269 0.9973 0.60259 0.0
H799 H 0.29433 0.94603 0.53646 0.0
H800 H 0.32195 0.953 0.55646 0.0
H801 H 0.30495 0.96354 0.58097 0.0
H802 H 0.32863 0.03172 0.59474 0.0
H803 H 0.34409 0.04209 0.66261 0.0
H804 H 0.40617 0.41115 0.15916 0.0
H805 H 0.44772 0.43864 0.16143 0.0
H806 H 0.437 0.48937 0.10021 0.0
H807 H 0.39543 0.46183 0.09706 0.0
H808 H 0.47185 0.48482 0.06731 0.0
H809 H 0.48335 0.4954 0.23154 0.0
H810 H 0.46971 0.46579 0.21551 0.0
H811 H 0.45524 0.4821 0.20803 0.0
C812 C 0.4126 0.42823 0.14647 0.0
C813 C 0.39749 0.43432 0.12798 0.0
C814 C 0.43635 0.44396 0.14802 0.0
C815 C 0.44539 0.46616 0.13153 0.0
C816 C 0.43034 0.47235 0.11328 0.0
H817 H 0.58428 0.58271 0.15983 0.0
H818 H 0.54268 0.5554 0.1628 0.0
C819 C 0.4066 0.4566 0.11154 0.0
C820 C 0.47066 0.48254 0.13154 0.0
H821 H 0.51775 0.51091 0.19246 0.0
C822 C 0.48188 0.49061 0.09468 0.0
C823 C 0.48365 0.49024 0.16731 0.0
C824 C 0.47236 0.48313 0.20787 0.0
C825 C 0.50581 0.50595 0.09253 0.0
C826 C 0.51892 0.51301 0.12822 0.0
C827 C 0.50767 0.50522 0.16514 0.0
C828 C 0.54426 0.52897 0.12784 0.0
C829 C 0.51673 0.51479 0.05211 0.0
C830 C 0.55899 0.52293 0.10796 0.0
C831 C 0.58276 0.53855 0.10602 0.0
C832 C 0.59225 0.5604 0.12428 0.0
C833 C 0.57753 0.56606 0.14534 0.0
C834 C 0.55375 0.55047 0.14711 0.0
H835 H 0.50369 0.51265 0.02933 0.0
H836 H 0.53022 0.53338 0.05359 0.0
H837 H 0.52504 0.50487 0.04197 0.0
H838 H 0.55206 0.5062 0.09366 0.0
H839 H 0.59365 0.53358 0.08985 0.0
H840 H 0.9916 0.57407 0.4186 0.0
H841 H 0.98209 0.53383 0.42586 0.0
H842 H 0.05354 0.55633 0.4518 0.0
H843 H 0.06334 0.5968 0.44446 0.0
H844 H 0.00515 0.51286 0.37878 0.0
H845 H 0.01347 0.5094 0.54396 0.0
H846 H 0.00821 0.53063 0.5201 0.0
H847 H 0.03635 0.53349 0.51745 0.0
C848 C 0.00531 0.57053 0.42612 0.0
C849 C 0.02824 0.58864 0.43094 0.0
C850 C -0.00018 0.54752 0.43021 0.0
C851 C 0.01709 0.54222 0.43961 0.0
C852 C 0.03996 0.56018 0.44493 0.0
H853 H 0.00687 0.40799 0.47713 0.0
H854 H 0.02068 0.44952 0.47319 0.0
C855 C 0.04551 0.58324 0.44059 0.0
C856 C 0.01119 0.51778 0.44211 0.0
H857 H 0.00379 0.47547 0.50773 0.0
C858 C 0.00489 0.50464 0.40691 0.0
C859 C 0.01112 0.50732 0.47883 0.0
C860 C 0.01752 0.52079 0.51741 0.0
C861 C -0.00163 0.48115 0.40745 0.0
C862 C -0.00245 0.47043 0.44438 0.0
C863 C 0.00433 0.48372 0.47951 0.0
C864 C 0.9891 0.4453 0.44724 0.0
C865 C 0.9927 0.46814 0.36839 0.0
C866 C 0.96663 0.42918 0.43466 0.0
C867 C 0.95875 0.4055 0.43662 0.0
C868 C 0.9731 0.39745 0.45173 0.0
C869 C 0.99542 0.41362 0.46525 0.0
C870 C 0.00334 0.43735 0.46305 0.0
H871 H 0.00081 0.48005 0.34267 0.0
H872 H -0.00144 0.45524 0.36839 0.0
H873 H 0.97368 0.45883 0.36381 0.0
H874 H 0.95515 0.43493 0.42332 0.0
H875 H 0.94139 0.3935 0.42633 0.0
H876 H 0.56158 0.96687 0.86349 0.0
H877 H 0.53582 0.98305 0.86563 0.0
H878 H 0.53223 0.98146 0.73695 0.0
H879 H 0.55785 0.96519 0.73441 0.0
H880 H 0.54275 0.02491 0.82862 0.0
H881 H 0.46372 0.94685 0.7734 0.0
H882 H 0.48846 0.9458 0.79258 0.0
H883 H 0.48898 0.95615 0.74282 0.0
C884 C 0.55525 0.96988 0.83563 0.0
C885 C 0.56167 0.96463 0.79878 0.0
C886 C 0.54058 0.97915 0.83694 0.0
C887 C 0.53193 0.98314 0.80148 0.0
C888 C 0.53844 0.97813 0.76466 0.0
H889 H 0.44245 0.03651 0.73749 0.0
H890 H 0.46876 0.02107 0.73915 0.0
C891 C 0.55315 0.96892 0.76329 0.0
C892 C 0.51639 0.99293 0.80288 0.0
H893 H 0.46201 0.9814 0.77848 0.0
C894 C 0.52504 0.0154 0.81792 0.0
C895 C 0.49334 0.98041 0.78885 0.0
C896 C 0.48294 0.95589 0.7738 0.0
C897 C 0.51139 0.02595 0.81833 0.0
C898 C 0.48838 0.01348 0.804 0.0
C899 C 0.47968 0.99092 0.78934 0.0
C900 C 0.47308 0.02358 0.80336 0.0
C901 C 0.5219 0.05055 0.83301 0.0
C902 C 0.46672 0.03 0.83898 0.0
C903 C 0.45172 0.03892 0.83816 0.0
C904 C 0.4427 0.04138 0.80169 0.0
C905 C 0.44912 0.03489 0.76608 0.0
C906 C 0.46413 0.02603 0.76695 0.0
H907 H 0.54111 0.05949 0.83351 0.0
H908 H 0.51649 0.06063 0.81395 0.0
H909 H 0.51584 0.05046 0.86392 0.0
H910 H 0.47308 0.02781 0.86747 0.0
H911 H 0.447 0.04362 0.86613 0.0
H912 H 0.57609 0.58666 0.50206 0.0
H913 H 0.54909 0.5449 0.50075 0.0
H914 H 0.49755 0.55508 0.56003 0.0
H915 H 0.5244 0.59687 0.56165 0.0
H916 H 0.52722 0.51669 0.5724 0.0
H917 H 0.46418 0.51332 0.46018 0.0
H918 H 0.49342 0.53742 0.4638 0.0
H919 H 0.47192 0.53445 0.49924 0.0
C920 C 0.55894 0.58006 0.51452 0.0
C921 C 0.55237 0.59508 0.53196 0.0
C922 C 0.54358 0.55621 0.51377 0.0
C923 C 0.52133 0.54702 0.52994 0.0
C924 C 0.51459 0.56194 0.54692 0.0
H925 H 0.40241 0.41335 0.57095 0.0
H926 H 0.43063 0.45434 0.56242 0.0
C927 C 0.52998 0.58577 0.54797 0.0
C928 C 0.50551 0.52173 0.53091 0.0
H929 H 0.4536 0.4788 0.49611 0.0
C930 C 0.5112 0.5083 0.55551 0.0
C931 C 0.48467 0.51102 0.50889 0.0
C932 C 0.47816 0.5247 0.48125 0.0
C933 C 0.49615 0.4844 0.55972 0.0
C934 C 0.47516 0.47365 0.5379 0.0
C935 C 0.4697 0.48709 0.51276 0.0
C936 C 0.45814 0.44866 0.54205 0.0
C937 C 0.50246 0.4711 0.58866 0.0
C938 C 0.46415 0.43183 0.53287 0.0
C939 C 0.4481 0.40832 0.53806 0.0
C940 C 0.42566 0.40128 0.55201 0.0
C941 C 0.41955 0.41818 0.56021 0.0
C942 C 0.43564 0.44163 0.55531 0.0
H943 H 0.51593 0.48274 0.61025 0.0
H944 H 0.48706 0.45825 0.60565 0.0
H945 H 0.50945 0.46164 0.57177 0.0
H946 H 0.48126 0.43686 0.5217 0.0
H947 H 0.45325 0.3957 0.53113 0.0
H948 H 0.93715 0.54231 0.80063 0.0
H949 H 0.95507 0.51802 0.80062 0.0
H950 H 0.99209 0.55133 0.90854 0.0
H951 H 0.97446 0.57574 0.90875 0.0
H952 H 0.01963 0.54723 0.84729 0.0
H953 H 0.93925 0.464 0.87945 0.0
H954 H 0.93781 0.48029 0.83785 0.0
H955 H 0.94143 0.49177 0.88751 0.0
C956 C 0.94907 0.54444 0.8244 0.0
C957 C 0.9543 0.56088 0.85479 0.0
C958 C 0.95921 0.5305 0.82441 0.0
C959 C 0.97469 0.53276 0.85481 0.0
C960 C 0.98013 0.54931 0.88489 0.0
H961 H 0.02465 0.44267 0.93119 0.0
H962 H 0.00709 0.46699 0.92428 0.0
C963 C 0.96998 0.56319 0.88498 0.0
C964 C 0.9854 0.51802 0.85538 0.0
H965 H 0.97325 0.4623 0.86782 0.0
C966 C 0.00953 0.52865 0.85161 0.0
C967 C 0.97212 0.49385 0.86144 0.0
C968 C 0.94623 0.48173 0.86713 0.0
C969 C 0.02078 0.5157 0.8538 0.0
C970 C 0.00748 0.49149 0.85949 0.0
C971 C 0.98335 0.48086 0.8632 0.0
C972 C 0.01835 0.47697 0.86325 0.0
C973 C 0.04684 0.52807 0.85108 0.0
C974 C 0.03037 0.47446 0.83108 0.0
C975 C 0.04047 0.46059 0.83491 0.0
C976 C 0.03862 0.44894 0.87096 0.0
C977 C 0.02646 0.45145 0.90305 0.0
C978 C 0.01636 0.46529 0.89916 0.0
H979 H 0.05472 0.54705 0.85533 0.0
H980 H 0.0541 0.52132 0.87379 0.0
H981 H 0.05193 0.52504 0.82112 0.0
H982 H 0.03178 0.48307 0.80292 0.0
H983 H 0.04962 0.45892 0.80958 0.0
H984 H 0.59476 0.05129 0.25021 0.0
H985 H 0.55267 0.03392 0.24808 0.0
H986 H 0.54792 0.98127 0.16759 0.0
H987 H 0.58995 -0.00172 0.16997 0.0
H988 H 0.52389 0.02636 0.18234 0.0
H989 H 0.50266 0.94362 0.25679 0.0
H990 H 0.53138 0.96863 0.25747 0.0
H991 H 0.52107 0.95059 0.2138 0.0
C992 C 0.58478 0.03599 0.23209 0.0
C993 C 0.59569 0.02608 0.21045 0.0
C994 C 0.56074 0.02611 0.2309 0.0
C995 C 0.54719 0.00612 0.20819 0.0
C996 C 0.55804 0.99642 0.18597 0.0
H997 H 0.39821 0.92327 0.17013 0.0
H998 H 0.44024 0.93978 0.16643 0.0
C999 C 0.58207 0.00625 0.18721 0.0
C1000 C 0.52172 0.99563 0.20742 0.0
H1001 H 0.4712 0.94658 0.23106 0.0
C1002 C 0.51235 0.00894 0.19303 0.0
C1003 C 0.50676 0.97286 0.2213 0.0
C1004 C 0.51592 0.95812 0.23855 0.0
C1005 C 0.48835 3e-05 0.19196 0.0
C1006 C 0.47342 0.97736 0.20617 0.0
C1007 C 0.48275 0.96394 0.22011 0.0
C1008 C 0.44808 0.96753 0.20806 0.0
C1009 C 0.47915 0.01485 0.17527 0.0
C1010 C 0.43866 0.97753 0.2331 0.0
C1011 C 0.41473 0.96816 0.23537 0.0
C1012 C 0.39977 0.94853 0.2127 0.0
C1013 C 0.40927 0.93843 0.18786 0.0
C1014 C 0.43324 0.94781 0.18572 0.0
H1015 H 0.49222 0.02916 0.15647 0.0
H1016 H 0.46334 0.00433 0.15711 0.0
H1017 H 0.47451 0.02263 0.20034 0.0
H1018 H 0.44983 0.99251 0.25114 0.0
H1019 H 0.40799 0.97632 0.25492 0.0
loop_
_geom_bond_atom_site_label_1
_geom_bond_atom_site_label_2
_geom_bond_distance
_geom_bond_site_symmetry_2
_ccdc_geom_bond_type
C0 O1 1.160 . S
C0 O7 1.185 . S
O1 C0 1.160 . S
O2 Zn3 1.899 . S
O2 C10 1.284 . S
Zn3 O2 1.899 . S
Zn3 O4 2.032 . S
Zn3 O7 2.086 . S
Zn3 O12 1.977 . S
O4 Zn3 2.032 . S
O4 C8 1.278 . S
C5 O6 1.203 . S
C5 O12 1.267 . S
O6 C5 1.203 . S
O7 C0 1.185 . S
O7 Zn3 2.086 . S
C8 O4 1.278 . S
C8 O9 1.211 . S
O9 C8 1.211 . S
C10 O2 1.284 . S
C10 O11 1.273 . S
O11 C10 1.273 . S
O12 Zn3 1.977 . S
O12 C5 1.267 . S
C13 O14 1.160 . S
C13 O20 1.185 . S
O14 C13 1.160 . S
O15 Zn16 1.899 . S
O15 C23 1.284 . S
Zn16 O15 1.899 . S
Zn16 O17 2.032 . S
Zn16 O20 2.086 . S
Zn16 O25 1.977 . S
O17 Zn16 2.032 . S
O17 C21 1.278 . S
C18 O19 1.203 . S
C18 O25 1.267 . S
O19 C18 1.203 . S
O20 C13 1.185 . S
O20 Zn16 2.086 . S
C21 O17 1.278 . S
C21 O22 1.211 . S
O22 C21 1.211 . S
C23 O15 1.284 . S
C23 O24 1.273 . S
O24 C23 1.273 . S
O25 Zn16 1.977 . S
O25 C18 1.267 . S
C26 O27 1.160 . S
C26 O33 1.185 . S
O27 C26 1.160 . S
O28 Zn29 1.899 . S
O28 C36 1.284 . S
Zn29 O28 1.899 . S
Zn29 O30 2.032 . S
Zn29 O33 2.086 . S
Zn29 O38 1.977 . S
O30 Zn29 2.032 . S
O30 C34 1.278 . S
C31 O32 1.203 . S
C31 O38 1.267 . S
O32 C31 1.203 . S
O33 C26 1.185 . S
O33 Zn29 2.086 . S
C34 O30 1.278 . S
C34 O35 1.211 . S
O35 C34 1.211 . S
C36 O28 1.284 . S
C36 O37 1.273 . S
O37 C36 1.273 . S
O38 Zn29 1.977 . S
O38 C31 1.267 . S
C39 O40 1.160 . S
C39 O46 1.185 . S
O40 C39 1.160 . S
O41 Zn42 1.899 . S
O41 C49 1.284 . S
Zn42 O41 1.899 . S
Zn42 O43 2.032 . S
Zn42 O46 2.086 . S
Zn42 O51 1.977 . S
O43 Zn42 2.032 . S
O43 C47 1.278 . S
C44 O45 1.203 . S
C44 O51 1.267 . S
O45 C44 1.203 . S
O46 C39 1.185 . S
O46 Zn42 2.086 . S
C47 O43 1.278 . S
C47 O48 1.211 . S
O48 C47 1.211 . S
C49 O41 1.284 . S
C49 O50 1.273 . S
O50 C49 1.273 . S
O51 Zn42 1.977 . S
O51 C44 1.267 . S
C52 O53 1.160 . S
C52 O59 1.185 . S
O53 C52 1.160 . S
O54 Zn55 1.899 . S
O54 C62 1.284 . S
Zn55 O54 1.899 . S
Zn55 O56 2.032 . S
Zn55 O59 2.086 . S
Zn55 O64 1.977 . S
O56 Zn55 2.032 . S
O56 C60 1.278 . S
C57 O58 1.203 . S
C57 O64 1.267 . S
O58 C57 1.203 . S
O59 C52 1.185 . S
O59 Zn55 2.086 . S
C60 O56 1.278 . S
C60 O61 1.211 . S
O61 C60 1.211 . S
C62 O54 1.284 . S
C62 O63 1.273 . S
O63 C62 1.273 . S
O64 Zn55 1.977 . S
O64 C57 1.267 . S
C65 O66 1.160 . S
C65 O72 1.185 . S
O66 C65 1.160 . S
O67 Zn68 1.899 . S
O67 C75 1.284 . S
Zn68 O67 1.899 . S
Zn68 O69 2.032 . S
Zn68 O72 2.086 . S
Zn68 O77 1.977 . S
O69 Zn68 2.032 . S
O69 C73 1.278 . S
C70 O71 1.203 . S
C70 O77 1.267 . S
O71 C70 1.203 . S
O72 C65 1.185 . S
O72 Zn68 2.086 . S
C73 O69 1.278 . S
C73 O74 1.211 . S
O74 C73 1.211 . S
C75 O67 1.284 . S
C75 O76 1.273 . S
O76 C75 1.273 . S
O77 Zn68 1.977 . S
O77 C70 1.267 . S
C78 O79 1.160 . S
C78 O85 1.185 . S
O79 C78 1.160 . S
O80 Zn81 1.899 . S
O80 C88 1.284 . S
Zn81 O80 1.899 . S
Zn81 O82 2.032 . S
Zn81 O85 2.086 . S
Zn81 O90 1.977 . S
O82 Zn81 2.032 . S
O82 C86 1.278 . S
C83 O84 1.203 . S
C83 O90 1.267 . S
O84 C83 1.203 . S
O85 C78 1.185 . S
O85 Zn81 2.086 . S
C86 O82 1.278 . S
C86 O87 1.211 . S
O87 C86 1.211 . S
C88 O80 1.284 . S
C88 O89 1.273 . S
O89 C88 1.273 . S
O90 Zn81 1.977 . S
O90 C83 1.267 . S
C91 O92 1.160 . S
C91 O98 1.185 . S
O92 C91 1.160 . S
O93 Zn94 1.899 . S
O93 C101 1.284 . S
Zn94 O93 1.899 . S
Zn94 O95 2.032 . S
Zn94 O98 2.086 . S
Zn94 O103 1.977 . S
O95 Zn94 2.032 . S
O95 C99 1.278 . S
C96 O97 1.203 . S
C96 O103 1.267 . S
O97 C96 1.203 . S
O98 C91 1.185 . S
O98 Zn94 2.086 . S
C99 O95 1.278 . S
C99 O100 1.211 . S
O100 C99 1.211 . S
C101 O93 1.284 . S
C101 O102 1.273 . S
O102 C101 1.273 . S
O103 Zn94 1.977 . S
O103 C96 1.267 . S
C104 O105 1.160 . S
C104 O111 1.185 . S
O105 C104 1.160 . S
O106 Zn107 1.899 . S
O106 C114 1.284 . S
Zn107 O106 1.899 . S
Zn107 O108 2.032 . S
Zn107 O111 2.086 . S
Zn107 O116 1.977 . S
O108 Zn107 2.032 . S
O108 C112 1.278 . S
C109 O110 1.203 . S
C109 O116 1.267 . S
O110 C109 1.203 . S
O111 C104 1.185 . S
O111 Zn107 2.086 . S
C112 O108 1.278 . S
C112 O113 1.211 . S
O113 C112 1.211 . S
C114 O106 1.284 . S
C114 O115 1.273 . S
O115 C114 1.273 . S
O116 Zn107 1.977 . S
O116 C109 1.267 . S
C117 O118 1.160 . S
C117 O124 1.185 . S
O118 C117 1.160 . S
O119 Zn120 1.899 . S
O119 C127 1.284 . S
Zn120 O119 1.899 . S
Zn120 O121 2.032 . S
Zn120 O124 2.086 . S
Zn120 O129 1.977 . S
O121 Zn120 2.032 . S
O121 C125 1.278 . S
C122 O123 1.203 . S
C122 O129 1.267 . S
O123 C122 1.203 . S
O124 C117 1.185 . S
O124 Zn120 2.086 . S
C125 O121 1.278 . S
C125 O126 1.211 . S
O126 C125 1.211 . S
C127 O119 1.284 . S
C127 O128 1.273 . S
O128 C127 1.273 . S
O129 Zn120 1.977 . S
O129 C122 1.267 . S
C130 O131 1.160 . S
C130 O137 1.185 . S
O131 C130 1.160 . S
O132 Zn133 1.899 . S
O132 C140 1.284 . S
Zn133 O132 1.899 . S
Zn133 O134 2.032 . S
Zn133 O137 2.086 . S
Zn133 O142 1.977 . S
O134 Zn133 2.032 . S
O134 C138 1.278 . S
C135 O136 1.203 . S
C135 O142 1.267 . S
O136 C135 1.203 . S
O137 C130 1.185 . S
O137 Zn133 2.086 . S
C138 O134 1.278 . S
C138 O139 1.211 . S
O139 C138 1.211 . S
C140 O132 1.284 . S
C140 O141 1.273 . S
O141 C140 1.273 . S
O142 Zn133 1.977 . S
O142 C135 1.267 . S
C143 O144 1.160 . S
C143 O150 1.185 . S
O144 C143 1.160 . S
O145 Zn146 1.899 . S
O145 C153 1.284 . S
Zn146 O145 1.899 . S
Zn146 O147 2.032 . S
Zn146 O150 2.086 . S
Zn146 O155 1.977 . S
O147 Zn146 2.032 . S
O147 C151 1.278 . S
C148 O149 1.203 . S
C148 O155 1.267 . S
O149 C148 1.203 . S
O150 C143 1.185 . S
O150 Zn146 2.086 . S
C151 O147 1.278 . S
C151 O152 1.211 . S
O152 C151 1.211 . S
C153 O145 1.284 . S
C153 O154 1.273 . S
O154 C153 1.273 . S
O155 Zn146 1.977 . S
O155 C148 1.267 . S
H156 C164 0.929 . S
H157 C166 0.930 . S
H158 C168 0.930 . S
H159 C171 0.929 . S
H160 C174 0.930 . S
H161 C176 0.960 . S
H162 C176 0.960 . S
H163 C176 0.960 . S
C164 H156 0.929 . S
C164 C165 1.377 . S
C164 C166 1.384 . S
C165 C164 1.377 . S
C165 C171 1.390 . S
C166 H157 0.930 . S
C166 C164 1.384 . S
C166 C167 1.372 . S
C167 C166 1.372 . S
C167 C168 1.400 . S
C167 C172 1.490 . S
C168 H158 0.930 . S
C168 C167 1.400 . S
C168 C171 1.386 . S
H169 C185 0.930 . S
H170 C186 0.931 . S
C171 H159 0.929 . S
C171 C165 1.390 . S
C171 C168 1.386 . S
C172 C167 1.490 . S
C172 C174 1.395 . S
C172 C175 1.403 . S
H173 C179 0.930 . S
C174 H160 0.930 . S
C174 C172 1.395 . S
C174 C177 1.403 . S
C175 C172 1.403 . S
C175 C176 1.524 . S
C175 C179 1.400 . S
C176 H161 0.960 . S
C176 H162 0.960 . S
C176 H163 0.960 . S
C176 C175 1.524 . S
C177 C174 1.403 . S
C177 C178 1.392 . S
C177 C181 1.495 . S
C178 C177 1.392 . S
C178 C179 1.385 . S
C178 C180 1.478 . S
C179 H173 0.930 . S
C179 C175 1.400 . S
C179 C178 1.385 . S
C180 C178 1.478 . S
C180 C182 1.381 . S
C180 C186 1.383 . S
C181 C177 1.495 . S
C181 H187 0.959 . S
C181 H188 0.961 . S
C181 H189 0.960 . S
C182 C180 1.381 . S
C182 C183 1.394 . S
C182 H190 0.930 . S
C183 C182 1.394 . S
C183 C184 1.383 . S
C183 H191 0.929 . S
C184 C183 1.383 . S
C184 C185 1.377 . S
C185 H169 0.930 . S
C185 C184 1.377 . S
C185 C186 1.379 . S
C186 H170 0.931 . S
C186 C180 1.383 . S
C186 C185 1.379 . S
H187 C181 0.959 . S
H188 C181 0.961 . S
H189 C181 0.960 . S
H190 C182 0.930 . S
H191 C183 0.929 . S
H192 C200 0.929 . S
H193 C202 0.930 . S
H194 C204 0.930 . S
H195 C207 0.929 . S
H196 C210 0.930 . S
H197 C212 0.960 . S
H198 C212 0.960 . S
H199 C212 0.960 . S
C200 H192 0.929 . S
C200 C201 1.377 . S
C200 C202 1.384 . S
C201 C200 1.377 . S
C201 C207 1.390 . S
C202 H193 0.930 . S
C202 C200 1.384 . S
C202 C203 1.372 . S
C203 C202 1.372 . S
C203 C204 1.400 . S
C203 C208 1.490 . S
C204 H194 0.930 . S
C204 C203 1.400 . S
C204 C207 1.386 . S
H205 C221 0.930 . S
H206 C222 0.931 . S
C207 H195 0.929 . S
C207 C201 1.390 . S
C207 C204 1.386 . S
C208 C203 1.490 . S
C208 C210 1.395 1_655 S
C208 C211 1.403 . S
H209 C215 0.930 . S
C210 H196 0.930 . S
C210 C208 1.395 1_455 S
C210 C213 1.403 . S
C211 C208 1.403 . S
C211 C212 1.524 . S
C211 C215 1.400 . S
C212 H197 0.960 . S
C212 H198 0.960 . S
C212 H199 0.960 . S
C212 C211 1.524 . S
C213 C210 1.403 . S
C213 C214 1.392 . S
C213 C217 1.495 . S
C214 C213 1.392 . S
C214 C215 1.385 1_455 S
C214 C216 1.478 . S
C215 H209 0.930 . S
C215 C211 1.400 . S
C215 C214 1.385 1_655 S
C216 C214 1.478 . S
C216 C218 1.381 . S
C216 C222 1.383 . S
C217 C213 1.495 . S
C217 H223 0.959 . S
C217 H224 0.961 . S
C217 H225 0.960 . S
C218 C216 1.381 . S
C218 C219 1.394 . S
C218 H226 0.930 . S
C219 C218 1.394 . S
C219 C220 1.383 . S
C219 H227 0.929 . S
C220 C219 1.383 . S
C220 C221 1.377 . S
C221 H205 0.930 . S
C221 C220 1.377 . S
C221 C222 1.379 . S
C222 H206 0.931 . S
C222 C216 1.383 . S
C222 C221 1.379 . S
H223 C217 0.959 . S
H224 C217 0.961 . S
H225 C217 0.960 . S
H226 C218 0.930 . S
H227 C219 0.929 . S
H228 C236 0.929 . S
H229 C238 0.930 . S
H230 C240 0.920 1_545 S
H231 C243 0.929 . S
H232 C246 0.930 . S
H233 C248 0.960 . S
H234 C248 0.960 . S
H235 C248 0.960 . S
C236 H228 0.929 . S
C236 C237 1.377 . S
C236 C238 1.384 . S
C237 C236 1.377 . S
C237 C243 1.390 . S
C238 H229 0.930 . S
C238 C236 1.384 . S
C238 C239 1.372 . S
C239 C238 1.372 . S
C239 C240 1.400 . S
C239 C244 1.490 . S
C240 H230 0.920 1_565 S
C240 C239 1.400 . S
C240 C243 1.386 . S
H241 C257 0.930 . S
H242 C258 0.931 . S
C243 H231 0.929 . S
C243 C237 1.390 . S
C243 C240 1.386 . S
C244 C239 1.490 . S
C244 C246 1.395 1_565 S
C244 C247 1.403 . S
H245 C251 0.930 . S
C246 H232 0.930 . S
C246 C244 1.395 1_545 S
C246 C249 1.403 1_556 S
C247 C244 1.403 . S
C247 C248 1.524 . S
C247 C251 1.400 1_556 S
C248 H233 0.960 . S
C248 H234 0.960 . S
C248 H235 0.960 . S
C248 C247 1.524 . S
C249 C246 1.403 1_554 S
C249 C250 1.392 . S
C249 C253 1.495 . S
C250 C249 1.392 . S
C250 C251 1.385 1_545 S
C250 C252 1.478 . S
C251 H245 0.930 . S
C251 C247 1.400 1_554 S
C251 C250 1.385 1_565 S
C252 C250 1.478 . S
C252 C254 1.381 . S
C252 C258 1.383 . S
C253 C249 1.495 . S
C253 H259 0.959 . S
C253 H260 0.961 . S
C253 H261 0.960 . S
C254 C252 1.381 . S
C254 C255 1.394 . S
C254 H262 0.930 1_545 S
C255 C254 1.394 . S
C255 C256 1.383 . S
C255 H263 0.929 . S
C256 C255 1.383 . S
C256 C257 1.377 . S
C257 H241 0.930 . S
C257 C256 1.377 . S
C257 C258 1.379 . S
C258 H242 0.931 . S
C258 C252 1.383 . S
C258 C257 1.379 . S
H259 C253 0.959 . S
H260 C253 0.961 . S
H261 C253 0.960 . S
H262 C254 0.930 1_565 S
H263 C255 0.929 . S
H264 C272 0.929 . S
H265 C274 0.930 . S
H266 C276 0.930 . S
H267 C279 0.929 . S
H268 C282 0.930 . S
H269 C284 0.960 . S
H270 C284 0.960 . S
H271 C284 0.960 . S
C272 H264 0.929 . S
C272 C273 1.377 . S
C272 C274 1.384 . S
C273 C272 1.377 . S
C273 C279 1.390 . S
C274 H265 0.930 . S
C274 C272 1.384 . S
C274 C275 1.372 . S
C275 C274 1.372 . S
C275 C276 1.400 . S
C275 C280 1.490 . S
C276 H266 0.930 . S
C276 C275 1.400 . S
C276 C279 1.386 . S
H277 C293 0.930 . S
H278 C294 0.931 . S
C279 H267 0.929 . S
C279 C273 1.390 . S
C279 C276 1.386 . S
C280 C275 1.490 . S
C280 C282 1.395 . S
C280 C283 1.403 . S
H281 C287 0.930 . S
C282 H268 0.930 . S
C282 C280 1.395 . S
C282 C285 1.403 . S
C283 C280 1.403 . S
C283 C284 1.524 . S
C283 C287 1.400 . S
C284 H269 0.960 . S
C284 H270 0.960 . S
C284 H271 0.960 . S
C284 C283 1.524 . S
C285 C282 1.403 . S
C285 C286 1.392 . S
C285 C289 1.495 . S
C286 C285 1.392 . S
C286 C287 1.385 . S
C286 C288 1.478 . S
C287 H281 0.930 . S
C287 C283 1.400 . S
C287 C286 1.385 . S
C288 C286 1.478 . S
C288 C290 1.381 . S
C288 C294 1.383 . S
C289 C285 1.495 . S
C289 H295 0.959 . S
C289 H296 0.961 . S
C289 H297 0.960 . S
C290 C288 1.381 . S
C290 C291 1.394 . S
C290 H298 0.930 . S
C291 C290 1.394 . S
C291 C292 1.383 . S
C291 H299 0.929 . S
C292 C291 1.383 . S
C292 C293 1.377 . S
C293 H277 0.930 . S
C293 C292 1.377 . S
C293 C294 1.379 . S
C294 H278 0.931 . S
C294 C288 1.383 . S
C294 C293 1.379 . S
H295 C289 0.959 . S
H296 C289 0.961 . S
H297 C289 0.960 . S
H298 C290 0.930 . S
H299 C291 0.929 . S
H300 C308 0.929 . S
H301 C310 0.927 . S
H302 C312 0.930 . S
H303 C315 0.929 . S
H304 C318 0.930 . S
H305 C320 0.960 . S
H306 C320 0.960 . S
H307 C320 0.960 . S
C308 H300 0.929 . S
C308 C309 1.377 . S
C308 C310 1.384 . S
C309 C308 1.377 . S
C309 C315 1.390 . S
C310 H301 0.927 . S
C310 C308 1.384 . S
C310 C311 1.372 . S
C311 C310 1.372 . S
C311 C312 1.400 . S
C311 C316 1.490 . S
C312 H302 0.930 . S
C312 C311 1.400 . S
C312 C315 1.386 . S
H313 C329 0.930 . S
H314 C330 0.931 . S
C315 H303 0.929 . S
C315 C309 1.390 . S
C315 C312 1.386 . S
C316 C311 1.490 . S
C316 C318 1.395 1_655 S
C316 C319 1.403 . S
H317 C323 0.930 . S
C318 H304 0.930 . S
C318 C316 1.395 1_455 S
C318 C321 1.403 . S
C319 C316 1.403 . S
C319 C320 1.524 . S
C319 C323 1.400 . S
C320 H305 0.960 . S
C320 H306 0.960 . S
C320 H307 0.960 . S
C320 C319 1.524 . S
C321 C318 1.403 . S
C321 C322 1.392 . S
C321 C325 1.495 . S
C322 C321 1.392 . S
C322 C323 1.385 1_455 S
C322 C324 1.478 . S
C323 H317 0.930 . S
C323 C319 1.400 . S
C323 C322 1.385 1_655 S
C324 C322 1.478 . S
C324 C326 1.381 . S
C324 C330 1.383 . S
C325 C321 1.495 . S
C325 H331 0.959 . S
C325 H332 0.961 . S
C325 H333 0.960 . S
C326 C324 1.381 . S
C326 C327 1.394 . S
C326 H334 0.930 . S
C327 C326 1.394 . S
C327 C328 1.383 . S
C327 H335 0.929 . S
C328 C327 1.383 . S
C328 C329 1.377 . S
C329 H313 0.930 . S
C329 C328 1.377 . S
C329 C330 1.379 . S
C330 H314 0.931 . S
C330 C324 1.383 . S
C330 C329 1.379 . S
H331 C325 0.959 . S
H332 C325 0.961 . S
H333 C325 0.960 . S
H334 C326 0.930 . S
H335 C327 0.929 . S
H336 C344 0.929 . S
H337 C346 0.930 . S
H338 C348 0.930 . S
H339 C351 0.929 . S
H340 C354 0.930 . S
H341 C356 0.960 1_556 S
H342 C356 0.960 . S
H343 C356 0.960 . S
C344 H336 0.929 . S
C344 C345 1.377 . S
C344 C346 1.384 . S
C345 C344 1.377 . S
C345 C351 1.390 . S
C346 H337 0.930 . S
C346 C344 1.384 . S
C346 C347 1.372 . S
C347 C346 1.372 . S
C347 C348 1.400 . S
C347 C352 1.490 . S
C348 H338 0.930 . S
C348 C347 1.400 . S
C348 C351 1.386 . S
H349 C365 0.930 . S
H350 C366 0.931 . S
C351 H339 0.929 . S
C351 C345 1.390 . S
C351 C348 1.386 . S
C352 C347 1.490 . S
C352 C354 1.395 1_565 S
C352 C355 1.403 . S
H353 C359 0.930 . S
C354 H340 0.930 . S
C354 C352 1.395 1_545 S
C354 C357 1.403 1_554 S
C355 C352 1.403 . S
C355 C356 1.524 . S
C355 C359 1.400 1_554 S
C356 H341 0.960 1_554 S
C356 H342 0.960 . S
C356 H343 0.960 . S
C356 C355 1.524 . S
C357 C354 1.403 1_556 S
C357 C358 1.392 . S
C357 C361 1.495 . S
C358 C357 1.392 . S
C358 C359 1.385 1_545 S
C358 C360 1.478 . S
C359 H353 0.930 . S
C359 C355 1.400 1_556 S
C359 C358 1.385 1_565 S
C360 C358 1.478 . S
C360 C362 1.381 . S
C360 C366 1.383 . S
C361 C357 1.495 . S
C361 H367 0.959 1_556 S
C361 H368 0.961 . S
C361 H369 0.960 . S
C362 C360 1.381 . S
C362 C363 1.394 . S
C362 H370 0.930 . S
C363 C362 1.394 . S
C363 C364 1.383 . S
C363 H371 0.929 . S
C364 C363 1.383 . S
C364 C365 1.377 . S
C365 H349 0.930 . S
C365 C364 1.377 . S
C365 C366 1.379 . S
C366 H350 0.931 . S
C366 C360 1.383 . S
C366 C365 1.379 . S
H367 C361 0.959 1_554 S
H368 C361 0.961 . S
H369 C361 0.960 . S
H370 C362 0.930 . S
H371 C363 0.929 . S
H372 C380 0.929 . S
H373 C382 0.930 . S
H374 C384 0.930 . S
H375 C387 0.929 1_554 S
H376 C390 0.930 . S
H377 C392 0.960 . S
H378 C392 0.960 . S
H379 C392 0.960 . S
C380 H372 0.929 . S
C380 C381 1.377 . S
C380 C382 1.384 . S
C381 C380 1.377 . S
C381 C387 1.390 . S
C382 H373 0.930 . S
C382 C380 1.384 . S
C382 C383 1.372 . S
C383 C382 1.372 . S
C383 C384 1.400 1_556 S
C383 C388 1.490 . S
C384 H374 0.930 . S
C384 C383 1.400 1_554 S
C384 C387 1.386 1_554 S
H385 C401 0.930 . S
H386 C402 0.931 . S
C387 H375 0.929 1_556 S
C387 C381 1.390 . S
C387 C384 1.386 1_556 S
C388 C383 1.490 . S
C388 C390 1.395 . S
C388 C391 1.403 1_556 S
H389 C395 0.930 . S
C390 H376 0.930 . S
C390 C388 1.395 . S
C390 C393 1.403 . S
C391 C388 1.403 1_554 S
C391 C392 1.524 . S
C391 C395 1.400 . S
C392 H377 0.960 . S
C392 H378 0.960 . S
C392 H379 0.960 . S
C392 C391 1.524 . S
C393 C390 1.403 . S
C393 C394 1.392 1_556 S
C393 C397 1.495 . S
C394 C393 1.392 1_554 S
C394 C395 1.385 . S
C394 C396 1.478 . S
C395 H389 0.930 . S
C395 C391 1.400 . S
C395 C394 1.385 . S
C396 C394 1.478 . S
C396 C398 1.381 1_554 S
C396 C402 1.383 . S
C397 C393 1.495 . S
C397 H403 0.959 . S
C397 H404 0.961 . S
C397 H405 0.960 . S
C398 C396 1.381 1_556 S
C398 C399 1.394 1_556 S
C398 H406 0.930 . S
C399 C398 1.394 1_554 S
C399 C400 1.383 . S
C399 H407 0.929 1_554 S
C400 C399 1.383 . S
C400 C401 1.377 . S
C401 H385 0.930 . S
C401 C400 1.377 . S
C401 C402 1.379 . S
C402 H386 0.931 . S
C402 C396 1.383 . S
C402 C401 1.379 . S
H403 C397 0.959 . S
H404 C397 0.961 . S
H405 C397 0.960 . S
H406 C398 0.930 . S
H407 C399 0.929 1_556 S
H408 C416 0.929 . S
H409 C418 0.930 . S
H410 C420 0.930 . S
H411 C423 0.929 . S
H412 C426 0.930 . S
H413 C428 0.960 . S
H414 C428 0.960 . S
H415 C428 0.960 . S
C416 H408 0.929 . S
C416 C417 1.377 . S
C416 C418 1.384 . S
C417 C416 1.377 . S
C417 C423 1.390 . S
C418 H409 0.930 . S
C418 C416 1.384 . S
C418 C419 1.372 . S
C419 C418 1.372 . S
C419 C420 1.400 . S
C419 C424 1.490 . S
C420 H410 0.930 . S
C420 C419 1.400 . S
C420 C423 1.386 . S
H421 C437 0.930 . S
H422 C438 0.931 . S
C423 H411 0.929 . S
C423 C417 1.390 . S
C423 C420 1.386 . S
C424 C419 1.490 . S
C424 C426 1.395 . S
C424 C427 1.403 . S
H425 C431 0.930 . S
C426 H412 0.930 . S
C426 C424 1.395 . S
C426 C429 1.403 . S
C427 C424 1.403 . S
C427 C428 1.524 . S
C427 C431 1.400 . S
C428 H413 0.960 . S
C428 H414 0.960 . S
C428 H415 0.960 . S
C428 C427 1.524 . S
C429 C426 1.403 . S
C429 C430 1.392 . S
C429 C433 1.495 . S
C430 C429 1.392 . S
C430 C431 1.385 . S
C430 C432 1.478 . S
C431 H425 0.930 . S
C431 C427 1.400 . S
C431 C430 1.385 . S
C432 C430 1.478 . S
C432 C434 1.381 . S
C432 C438 1.383 . S
C433 C429 1.495 . S
C433 H439 0.959 . S
C433 H440 0.961 . S
C433 H441 0.960 . S
C434 C432 1.381 . S
C434 C435 1.394 . S
C434 H442 0.930 . S
C435 C434 1.394 . S
C435 C436 1.383 . S
C435 H443 0.929 . S
C436 C435 1.383 . S
C436 C437 1.377 . S
C437 H421 0.930 . S
C437 C436 1.377 . S
C437 C438 1.379 . S
C438 H422 0.931 . S
C438 C432 1.383 . S
C438 C437 1.379 . S
H439 C433 0.959 . S
H440 C433 0.961 . S
H441 C433 0.960 . S
H442 C434 0.930 . S
H443 C435 0.929 . S
H444 C452 0.929 . S
H445 C454 0.930 . S
H446 C456 0.930 . S
H447 C459 0.929 . S
H448 C462 0.930 . S
H449 C464 0.960 . S
H450 C464 0.960 . S
H451 C464 0.960 . S
C452 H444 0.929 . S
C452 C453 1.377 . S
C452 C454 1.384 . S
C453 C452 1.377 . S
C453 C459 1.390 . S
C454 H445 0.930 . S
C454 C452 1.384 . S
C454 C455 1.372 . S
C455 C454 1.372 . S
C455 C456 1.400 . S
C455 C460 1.490 . S
C456 H446 0.930 . S
C456 C455 1.400 . S
C456 C459 1.386 . S
H457 C473 0.930 . S
H458 C474 0.931 . S
C459 H447 0.929 . S
C459 C453 1.390 . S
C459 C456 1.386 . S
C460 C455 1.490 . S
C460 C462 1.395 . S
C460 C463 1.403 . S
H461 C467 0.930 . S
C462 H448 0.930 . S
C462 C460 1.395 . S
C462 C465 1.403 . S
C463 C460 1.403 . S
C463 C464 1.524 . S
C463 C467 1.400 . S
C464 H449 0.960 . S
C464 H450 0.960 . S
C464 H451 0.960 . S
C464 C463 1.524 . S
C465 C462 1.403 . S
C465 C466 1.392 . S
C465 C469 1.495 . S
C466 C465 1.392 . S
C466 C467 1.385 . S
C466 C468 1.478 . S
C467 H461 0.930 . S
C467 C463 1.400 . S
C467 C466 1.385 . S
C468 C466 1.478 . S
C468 C470 1.381 . S
C468 C474 1.383 . S
C469 C465 1.495 . S
C469 H475 0.959 . S
C469 H476 0.961 . S
C469 H477 0.960 . S
C470 C468 1.381 . S
C470 C471 1.394 . S
C470 H478 0.930 . S
C471 C470 1.394 . S
C471 C472 1.383 . S
C471 H479 0.929 . S
C472 C471 1.383 . S
C472 C473 1.377 . S
C473 H457 0.930 . S
C473 C472 1.377 . S
C473 C474 1.379 . S
C474 H458 0.931 . S
C474 C468 1.383 . S
C474 C473 1.379 . S
H475 C469 0.959 . S
H476 C469 0.961 . S
H477 C469 0.960 . S
H478 C470 0.930 . S
H479 C471 0.929 . S
H480 C488 0.929 1_556 S
H481 C490 0.930 1_556 S
H482 C492 0.930 . S
H483 C495 0.929 . S
H484 C498 0.930 . S
H485 C500 0.964 . S
H486 C500 0.969 . S
H487 C500 0.948 1_554 S
C488 H480 0.929 1_554 S
C488 C489 1.377 . S
C488 C490 1.384 . S
C489 C488 1.377 . S
C489 C495 1.390 . S
C490 H481 0.930 1_554 S
C490 C488 1.384 . S
C490 C491 1.372 . S
C491 C490 1.372 . S
C491 C492 1.400 . S
C491 C496 1.490 . S
C492 H482 0.930 . S
C492 C491 1.400 . S
C492 C495 1.386 . S
H493 C509 0.930 1_554 S
H494 C510 0.942 . S
C495 H483 0.929 . S
C495 C489 1.390 . S
C495 C492 1.386 . S
C496 C491 1.490 . S
C496 C498 1.395 . S
C496 C499 1.402 . S
H497 C503 0.930 . S
C498 H484 0.930 . S
C498 C496 1.395 . S
C498 C501 1.403 1_554 S
C499 C496 1.402 . S
C499 C500 1.524 1_554 S
C499 C503 1.400 1_554 S
C500 H485 0.964 . S
C500 H486 0.969 . S
C500 H487 0.948 1_556 S
C500 C499 1.524 1_556 S
C501 C498 1.403 1_556 S
C501 C502 1.392 . S
C501 C505 1.495 . S
C502 C501 1.392 . S
C502 C503 1.385 . S
C502 C504 1.478 . S
C503 H497 0.930 . S
C503 C499 1.400 1_556 S
C503 C502 1.385 . S
C504 C502 1.478 . S
C504 C506 1.381 . S
C504 C510 1.376 1_556 S
C505 C501 1.495 . S
C505 H511 0.959 1_556 S
C505 H512 0.961 1_556 S
C505 H513 0.960 . S
C506 C504 1.381 . S
C506 C507 1.394 . S
C506 H514 0.930 . S
C507 C506 1.394 . S
C507 C508 1.383 . S
C507 H515 0.929 . S
C508 C507 1.383 . S
C508 C509 1.377 . S
C509 H493 0.930 1_556 S
C509 C508 1.377 . S
C509 C510 1.376 1_556 S
C510 H494 0.942 . S
C510 C504 1.376 1_554 S
C510 C509 1.376 1_554 S
H511 C505 0.959 1_554 S
H512 C505 0.961 1_554 S
H513 C505 0.960 . S
H514 C506 0.930 . S
H515 C507 0.929 . S
H516 C524 0.929 . S
H517 C526 0.930 . S
H518 C528 0.930 . S
H519 C531 0.929 . S
H520 C534 0.930 . S
H521 C536 0.960 . S
H522 C536 0.960 . S
H523 C536 0.960 . S
C524 H516 0.929 . S
C524 C525 1.377 . S
C524 C526 1.384 . S
C525 C524 1.377 . S
C525 C531 1.390 . S
C526 H517 0.930 . S
C526 C524 1.384 . S
C526 C527 1.372 . S
C527 C526 1.372 . S
C527 C528 1.400 . S
C527 C532 1.490 . S
C528 H518 0.930 . S
C528 C527 1.400 . S
C528 C531 1.386 . S
H529 C545 0.930 . S
H530 C546 0.931 . S
C531 H519 0.929 . S
C531 C525 1.390 . S
C531 C528 1.386 . S
C532 C527 1.490 . S
C532 C534 1.395 . S
C532 C535 1.403 . S
H533 C539 0.930 . S
C534 H520 0.930 . S
C534 C532 1.395 . S
C534 C537 1.403 . S
C535 C532 1.403 . S
C535 C536 1.524 . S
C535 C539 1.400 . S
C536 H521 0.960 . S
C536 H522 0.960 . S
C536 H523 0.960 . S
C536 C535 1.524 . S
C537 C534 1.403 . S
C537 C538 1.392 . S
C537 C541 1.495 . S
C538 C537 1.392 . S
C538 C539 1.385 . S
C538 C540 1.478 . S
C539 H533 0.930 . S
C539 C535 1.400 . S
C539 C538 1.385 . S
C540 C538 1.478 . S
C540 C542 1.381 . S
C540 C546 1.383 . S
C541 C537 1.495 . S
C541 H547 0.959 . S
C541 H548 0.961 . S
C541 H549 0.960 . S
C542 C540 1.381 . S
C542 C543 1.394 . S
C542 H550 0.930 . S
C543 C542 1.394 . S
C543 C544 1.383 . S
C543 H551 0.929 . S
C544 C543 1.383 . S
C544 C545 1.377 . S
C545 H529 0.930 . S
C545 C544 1.377 . S
C545 C546 1.379 . S
C546 H530 0.931 . S
C546 C540 1.383 . S
C546 C545 1.379 . S
H547 C541 0.959 . S
H548 C541 0.961 . S
H549 C541 0.960 . S
H550 C542 0.930 . S
H551 C543 0.929 . S
H552 C560 0.929 . S
H553 C562 0.930 . S
H554 C564 0.930 . S
H555 C567 0.929 . S
H556 C570 0.930 . S
H557 C572 0.960 . S
H558 C572 0.960 . S
H559 C572 0.960 . S
C560 H552 0.929 . S
C560 C561 1.377 . S
C560 C562 1.384 . S
C561 C560 1.377 . S
C561 C567 1.390 . S
C562 H553 0.930 . S
C562 C560 1.384 . S
C562 C563 1.372 . S
C563 C562 1.372 . S
C563 C564 1.400 . S
C563 C568 1.490 . S
C564 H554 0.930 . S
C564 C563 1.400 . S
C564 C567 1.386 . S
H565 C581 0.930 . S
H566 C582 0.931 . S
C567 H555 0.929 . S
C567 C561 1.390 . S
C567 C564 1.386 . S
C568 C563 1.490 . S
C568 C570 1.395 . S
C568 C571 1.403 . S
H569 C575 0.930 . S
C570 H556 0.930 . S
C570 C568 1.395 . S
C570 C573 1.403 . S
C571 C568 1.403 . S
C571 C572 1.524 . S
C571 C575 1.400 . S
C572 H557 0.960 . S
C572 H558 0.960 . S
C572 H559 0.960 . S
C572 C571 1.524 . S
C573 C570 1.403 . S
C573 C574 1.392 . S
C573 C577 1.495 . S
C574 C573 1.392 . S
C574 C575 1.385 . S
C574 C576 1.478 . S
C575 H569 0.930 . S
C575 C571 1.400 . S
C575 C574 1.385 . S
C576 C574 1.478 . S
C576 C578 1.381 . S
C576 C582 1.383 . S
C577 C573 1.495 . S
C577 H583 0.959 . S
C577 H584 0.961 . S
C577 H585 0.960 . S
C578 C576 1.381 . S
C578 C579 1.394 . S
C578 H586 0.930 . S
C579 C578 1.394 . S
C579 C580 1.383 . S
C579 H587 0.929 . S
C580 C579 1.383 . S
C580 C581 1.377 . S
C581 H565 0.930 . S
C581 C580 1.377 . S
C581 C582 1.379 . S
C582 H566 0.931 . S
C582 C576 1.383 . S
C582 C581 1.379 . S
H583 C577 0.959 . S
H584 C577 0.961 . S
H585 C577 0.960 . S
H586 C578 0.930 . S
H587 C579 0.929 . S
H588 C596 0.929 . S
H589 C598 0.930 . S
H590 C600 0.930 . S
H591 C603 0.929 . S
H592 C606 0.930 . S
H593 C608 0.960 . S
H594 C608 0.960 . S
H595 C608 0.960 . S
C596 H588 0.929 . S
C596 C597 1.377 . S
C596 C598 1.384 . S
C597 C596 1.377 . S
C597 C603 1.390 . S
C598 H589 0.930 . S
C598 C596 1.384 . S
C598 C599 1.372 . S
C599 C598 1.372 . S
C599 C600 1.400 . S
C599 C604 1.490 . S
C600 H590 0.930 . S
C600 C599 1.400 . S
C600 C603 1.386 . S
H601 C617 0.930 . S
H602 C618 0.931 . S
C603 H591 0.929 . S
C603 C597 1.390 . S
C603 C600 1.386 . S
C604 C599 1.490 . S
C604 C606 1.395 . S
C604 C607 1.403 . S
H605 C611 0.930 . S
C606 H592 0.930 . S
C606 C604 1.395 . S
C606 C609 1.403 . S
C607 C604 1.403 . S
C607 C608 1.524 . S
C607 C611 1.400 . S
C608 H593 0.960 . S
C608 H594 0.960 . S
C608 H595 0.960 . S
C608 C607 1.524 . S
C609 C606 1.403 . S
C609 C610 1.392 . S
C609 C613 1.495 . S
C610 C609 1.392 . S
C610 C611 1.385 . S
C610 C612 1.478 . S
C611 H605 0.930 . S
C611 C607 1.400 . S
C611 C610 1.385 . S
C612 C610 1.478 . S
C612 C614 1.381 . S
C612 C618 1.383 . S
C613 C609 1.495 . S
C613 H619 0.959 . S
C613 H620 0.961 . S
C613 H621 0.960 . S
C614 C612 1.381 . S
C614 C615 1.394 . S
C614 H622 0.930 . S
C615 C614 1.394 . S
C615 C616 1.383 1_556 S
C615 H623 0.929 1_556 S
C616 C615 1.383 1_554 S
C616 C617 1.377 1_554 S
C617 H601 0.930 . S
C617 C616 1.377 1_556 S
C617 C618 1.379 . S
C618 H602 0.931 . S
C618 C612 1.383 . S
C618 C617 1.379 . S
H619 C613 0.959 . S
H620 C613 0.961 . S
H621 C613 0.960 . S
H622 C614 0.930 . S
H623 C615 0.929 1_554 S
H624 C632 0.929 . S
H625 C634 0.930 . S
H626 C636 0.930 . S
H627 C639 0.929 . S
H628 C642 0.930 . S
H629 C644 0.960 . S
H630 C644 0.960 . S
H631 C644 0.960 . S
C632 H624 0.929 . S
C632 C633 1.377 . S
C632 C634 1.384 . S
C633 C632 1.377 . S
C633 C639 1.390 1_655 S
C634 H625 0.930 . S
C634 C632 1.384 . S
C634 C635 1.372 . S
C635 C634 1.372 . S
C635 C636 1.400 1_655 S
C635 C640 1.490 . S
C636 H626 0.930 . S
C636 C635 1.400 1_455 S
C636 C639 1.386 . S
H637 C653 0.930 . S
H638 C654 0.931 . S
C639 H627 0.929 . S
C639 C633 1.390 1_455 S
C639 C636 1.386 . S
C640 C635 1.490 . S
C640 C642 1.395 . S
C640 C643 1.403 1_655 S
H641 C647 0.930 . S
C642 H628 0.930 . S
C642 C640 1.395 . S
C642 C645 1.403 . S
C643 C640 1.403 1_455 S
C643 C644 1.524 . S
C643 C647 1.400 . S
C644 H629 0.960 . S
C644 H630 0.960 . S
C644 H631 0.960 . S
C644 C643 1.524 . S
C645 C642 1.403 . S
C645 C646 1.388 . S
C645 C649 1.495 . S
C646 C645 1.388 . S
C646 C647 1.389 1_655 S
C646 C648 1.478 1_655 S
C647 H641 0.930 . S
C647 C643 1.400 . S
C647 C646 1.389 1_455 S
C648 C646 1.478 1_455 S
C648 C650 1.381 1_455 S
C648 C654 1.383 . S
C649 C645 1.495 . S
C649 H655 0.959 . S
C649 H656 0.961 . S
C649 H657 0.960 . S
C650 C648 1.381 1_655 S
C650 C651 1.394 . S
C650 H658 0.930 . S
C651 C650 1.394 . S
C651 C652 1.383 1_654 S
C651 H659 0.929 1_554 S
C652 C651 1.383 1_456 S
C652 C653 1.377 1_556 S
C653 H637 0.930 . S
C653 C652 1.377 1_554 S
C653 C654 1.379 . S
C654 H638 0.931 . S
C654 C648 1.383 . S
C654 C653 1.379 . S
H655 C649 0.959 . S
H656 C649 0.961 . S
H657 C649 0.960 . S
H658 C650 0.930 . S
H659 C651 0.929 1_556 S
H660 C668 0.929 . S
H661 C670 0.930 . S
H662 C672 0.930 . S
H663 C675 0.929 . S
H664 C678 0.930 . S
H665 C680 0.960 . S
H666 C680 0.960 . S
H667 C680 0.960 . S
C668 H660 0.929 . S
C668 C669 1.377 1_545 S
C668 C670 1.384 . S
C669 C668 1.377 1_565 S
C669 C675 1.390 . S
C670 H661 0.930 . S
C670 C668 1.384 . S
C670 C671 1.372 1_545 S
C671 C670 1.372 1_565 S
C671 C672 1.400 . S
C671 C676 1.490 . S
C672 H662 0.930 . S
C672 C671 1.400 . S
C672 C675 1.386 . S
H673 C689 0.930 . S
H674 C690 0.931 . S
C675 H663 0.929 . S
C675 C669 1.390 . S
C675 C672 1.386 . S
C676 C671 1.490 . S
C676 C678 1.395 1_565 S
C676 C679 1.403 . S
H677 C683 0.930 . S
C678 H664 0.930 . S
C678 C676 1.395 1_545 S
C678 C681 1.403 . S
C679 C676 1.403 . S
C679 C680 1.524 . S
C679 C683 1.400 . S
C680 H665 0.960 . S
C680 H666 0.960 . S
C680 H667 0.960 . S
C680 C679 1.524 . S
C681 C678 1.403 . S
C681 C682 1.392 . S
C681 C685 1.495 . S
C682 C681 1.392 . S
C682 C683 1.385 1_545 S
C682 C684 1.478 . S
C683 H677 0.930 . S
C683 C679 1.400 . S
C683 C682 1.385 1_565 S
C684 C682 1.478 . S
C684 C686 1.381 . S
C684 C690 1.383 1_545 S
C685 C681 1.495 . S
C685 H691 0.959 . S
C685 H692 0.961 . S
C685 H693 0.960 . S
C686 C684 1.381 . S
C686 C687 1.394 . S
C686 H694 0.930 . S
C687 C686 1.394 . S
C687 C688 1.383 . S
C687 H695 0.929 . S
C688 C687 1.383 . S
C688 C689 1.377 1_545 S
C689 H673 0.930 . S
C689 C688 1.377 1_565 S
C689 C690 1.379 . S
C690 H674 0.931 . S
C690 C684 1.383 1_565 S
C690 C689 1.379 . S
H691 C685 0.959 . S
H692 C685 0.961 . S
H693 C685 0.960 . S
H694 C686 0.930 . S
H695 C687 0.929 . S
H696 C704 0.929 . S
H697 C706 0.930 . S
H698 C708 0.930 . S
H699 C711 0.929 . S
H700 C714 0.930 . S
H701 C716 0.960 . S
H702 C716 0.960 . S
H703 C716 0.960 . S
C704 H696 0.929 . S
C704 C705 1.377 . S
C704 C706 1.384 . S
C705 C704 1.377 . S
C705 C711 1.390 . S
C706 H697 0.930 . S
C706 C704 1.384 . S
C706 C707 1.372 . S
C707 C706 1.372 . S
C707 C708 1.400 . S
C707 C712 1.490 . S
C708 H698 0.930 . S
C708 C707 1.400 . S
C708 C711 1.386 . S
H709 C725 0.930 . S
H710 C726 0.931 . S
C711 H699 0.929 . S
C711 C705 1.390 . S
C711 C708 1.386 . S
C712 C707 1.490 . S
C712 C714 1.395 . S
C712 C715 1.403 . S
H713 C719 0.930 . S
C714 H700 0.930 . S
C714 C712 1.395 . S
C714 C717 1.403 . S
C715 C712 1.403 . S
C715 C716 1.524 . S
C715 C719 1.400 . S
C716 H701 0.960 . S
C716 H702 0.960 . S
C716 H703 0.960 . S
C716 C715 1.524 . S
C717 C714 1.403 . S
C717 C718 1.392 . S
C717 C721 1.495 . S
C718 C717 1.392 . S
C718 C719 1.385 . S
C718 C720 1.478 . S
C719 H713 0.930 . S
C719 C715 1.400 . S
C719 C718 1.385 . S
C720 C718 1.478 . S
C720 C722 1.381 . S
C720 C726 1.383 . S
C721 C717 1.495 . S
C721 H727 0.959 . S
C721 H728 0.961 . S
C721 H729 0.960 . S
C722 C720 1.381 . S
C722 C723 1.394 . S
C722 H730 0.930 . S
C723 C722 1.394 . S
C723 C724 1.383 1_556 S
C723 H731 0.929 1_556 S
C724 C723 1.383 1_554 S
C724 C725 1.377 1_554 S
C725 H709 0.930 . S
C725 C724 1.377 1_556 S
C725 C726 1.379 . S
C726 H710 0.931 . S
C726 C720 1.383 . S
C726 C725 1.379 . S
H727 C721 0.959 . S
H728 C721 0.961 . S
H729 C721 0.960 . S
H730 C722 0.930 . S
H731 C723 0.929 1_554 S
H732 C740 0.929 . S
H733 C742 0.930 . S
H734 C744 0.930 1_655 S
H735 C747 0.957 . S
H736 C750 0.930 . S
H737 C752 0.960 . S
H738 C752 0.960 . S
H739 C752 0.960 . S
C740 H732 0.929 . S
C740 C741 1.377 . S
C740 C742 1.384 . S
C741 C740 1.377 . S
C741 C747 1.390 . S
C742 H733 0.930 . S
C742 C740 1.384 . S
C742 C743 1.372 . S
C743 C742 1.372 . S
C743 C744 1.400 . S
C743 C748 1.490 . S
C744 H734 0.930 1_455 S
C744 C743 1.400 . S
C744 C747 1.386 . S
H745 C761 0.930 . S
H746 C762 0.931 . S
C747 H735 0.957 . S
C747 C741 1.390 . S
C747 C744 1.386 . S
C748 C743 1.490 . S
C748 C750 1.395 1_455 S
C748 C751 1.403 . S
H749 C755 0.930 . S
C750 H736 0.930 . S
C750 C748 1.395 1_655 S
C750 C753 1.403 . S
C751 C748 1.403 . S
C751 C752 1.524 . S
C751 C755 1.400 . S
C752 H737 0.960 . S
C752 H738 0.960 . S
C752 H739 0.960 . S
C752 C751 1.524 . S
C753 C750 1.403 . S
C753 C754 1.392 . S
C753 C757 1.495 . S
C754 C753 1.392 . S
C754 C755 1.385 1_655 S
C754 C756 1.478 . S
C755 H749 0.930 . S
C755 C751 1.400 . S
C755 C754 1.385 1_455 S
C756 C754 1.478 . S
C756 C758 1.381 . S
C756 C762 1.383 . S
C757 C753 1.495 . S
C757 H763 0.959 . S
C757 H764 0.961 . S
C757 H765 0.960 . S
C758 C756 1.381 . S
C758 C759 1.394 . S
C758 H766 0.930 1_655 S
C759 C758 1.394 . S
C759 C760 1.383 1_554 S
C759 H767 0.929 1_654 S
C760 C759 1.383 1_556 S
C760 C761 1.377 1_556 S
C761 H745 0.930 . S
C761 C760 1.377 1_554 S
C761 C762 1.379 . S
C762 H746 0.931 . S
C762 C756 1.383 . S
C762 C761 1.379 . S
H763 C757 0.959 . S
H764 C757 0.961 . S
H765 C757 0.960 . S
H766 C758 0.930 1_455 S
H767 C759 0.929 1_456 S
H768 C776 0.929 . S
H769 C778 0.930 . S
H770 C780 0.930 1_545 S
H771 C783 0.929 . S
H772 C786 0.930 . S
H773 C788 0.960 . S
H774 C788 0.960 . S
H775 C788 0.960 . S
C776 H768 0.929 . S
C776 C777 1.377 . S
C776 C778 1.384 . S
C777 C776 1.377 . S
C777 C783 1.390 . S
C778 H769 0.930 . S
C778 C776 1.384 . S
C778 C779 1.372 . S
C779 C778 1.372 . S
C779 C780 1.400 . S
C779 C784 1.490 . S
C780 H770 0.930 1_565 S
C780 C779 1.400 . S
C780 C783 1.386 . S
H781 C797 0.930 . S
H782 C798 0.931 . S
C783 H771 0.929 . S
C783 C777 1.390 . S
C783 C780 1.386 . S
C784 C779 1.490 . S
C784 C786 1.395 . S
C784 C787 1.403 1_565 S
H785 C791 0.930 . S
C786 H772 0.930 . S
C786 C784 1.395 . S
C786 C789 1.403 . S
C787 C784 1.403 1_545 S
C787 C788 1.524 . S
C787 C791 1.400 . S
C788 H773 0.960 . S
C788 H774 0.960 . S
C788 H775 0.960 . S
C788 C787 1.524 . S
C789 C786 1.403 . S
C789 C790 1.400 . S
C789 C793 1.495 . S
C790 C789 1.400 . S
C790 C791 1.379 1_565 S
C790 C792 1.476 1_565 S
C791 H785 0.930 . S
C791 C787 1.400 . S
C791 C790 1.379 1_545 S
C792 C790 1.476 1_545 S
C792 C794 1.381 . S
C792 C798 1.383 . S
C793 C789 1.495 . S
C793 H799 0.959 . S
C793 H800 0.961 . S
C793 H801 0.960 . S
C794 C792 1.381 . S
C794 C795 1.394 . S
C794 H802 0.930 1_545 S
C795 C794 1.394 . S
C795 C796 1.383 . S
C795 H803 0.929 . S
C796 C795 1.383 . S
C796 C797 1.377 . S
C797 H781 0.930 . S
C797 C796 1.377 . S
C797 C798 1.379 . S
C798 H782 0.931 . S
C798 C792 1.383 . S
C798 C797 1.379 . S
H799 C793 0.959 . S
H800 C793 0.961 . S
H801 C793 0.960 . S
H802 C794 0.930 1_565 S
H803 C795 0.929 . S
H804 C812 0.929 . S
H805 C814 0.930 . S
H806 C816 0.930 . S
H807 C819 0.929 . S
H808 C822 0.930 . S
H809 C824 0.960 . S
H810 C824 0.960 . S
H811 C824 0.960 . S
C812 H804 0.929 . S
C812 C813 1.377 . S
C812 C814 1.384 . S
C813 C812 1.377 . S
C813 C819 1.390 . S
C814 H805 0.930 . S
C814 C812 1.384 . S
C814 C815 1.372 . S
C815 C814 1.372 . S
C815 C816 1.400 . S
C815 C820 1.490 . S
C816 H806 0.930 . S
C816 C815 1.400 . S
C816 C819 1.386 . S
H817 C833 0.930 . S
H818 C834 0.931 . S
C819 H807 0.929 . S
C819 C813 1.390 . S
C819 C816 1.386 . S
C820 C815 1.490 . S
C820 C822 1.395 . S
C820 C823 1.403 . S
H821 C827 0.930 . S
C822 H808 0.930 . S
C822 C820 1.395 . S
C822 C825 1.403 . S
C823 C820 1.403 . S
C823 C824 1.524 . S
C823 C827 1.400 . S
C824 H809 0.960 . S
C824 H810 0.960 . S
C824 H811 0.960 . S
C824 C823 1.524 . S
C825 C822 1.403 . S
C825 C826 1.392 . S
C825 C829 1.495 1_554 S
C826 C825 1.392 . S
C826 C827 1.385 . S
C826 C828 1.478 . S
C827 H821 0.930 . S
C827 C823 1.400 . S
C827 C826 1.385 . S
C828 C826 1.478 . S
C828 C830 1.381 . S
C828 C834 1.383 . S
C829 C825 1.495 1_556 S
C829 H835 0.959 . S
C829 H836 0.961 . S
C829 H837 0.960 . S
C830 C828 1.381 . S
C830 C831 1.394 . S
C830 H838 0.930 . S
C831 C830 1.394 . S
C831 C832 1.383 . S
C831 H839 0.929 . S
C832 C831 1.383 . S
C832 C833 1.377 . S
C833 H817 0.930 . S
C833 C832 1.377 . S
C833 C834 1.379 . S
C834 H818 0.931 . S
C834 C828 1.383 . S
C834 C833 1.379 . S
H835 C829 0.959 . S
H836 C829 0.961 . S
H837 C829 0.960 . S
H838 C830 0.930 . S
H839 C831 0.929 . S
H840 C848 0.929 . S
H841 C850 0.930 1_655 S
H842 C852 0.930 . S
H843 C855 0.929 . S
H844 C858 0.930 . S
H845 C860 0.960 . S
H846 C860 0.960 . S
H847 C860 0.960 . S
C848 H840 0.929 . S
C848 C849 1.377 . S
C848 C850 1.384 . S
C849 C848 1.377 . S
C849 C855 1.390 . S
C850 H841 0.930 1_455 S
C850 C848 1.384 . S
C850 C851 1.372 . S
C851 C850 1.372 . S
C851 C852 1.400 . S
C851 C856 1.490 . S
C852 H842 0.930 . S
C852 C851 1.400 . S
C852 C855 1.386 . S
H853 C869 0.930 . S
H854 C870 0.931 1_455 S
C855 H843 0.929 . S
C855 C849 1.390 . S
C855 C852 1.386 . S
C856 C851 1.490 . S
C856 C858 1.395 1_455 S
C856 C859 1.403 . S
H857 C863 0.930 . S
C858 H844 0.930 . S
C858 C856 1.395 1_655 S
C858 C861 1.403 . S
C859 C856 1.403 . S
C859 C860 1.524 . S
C859 C863 1.400 . S
C860 H845 0.960 . S
C860 H846 0.960 . S
C860 H847 0.960 . S
C860 C859 1.524 . S
C861 C858 1.403 . S
C861 C862 1.392 . S
C861 C865 1.495 . S
C862 C861 1.392 . S
C862 C863 1.385 1_655 S
C862 C864 1.478 . S
C863 H857 0.930 . S
C863 C859 1.400 . S
C863 C862 1.385 1_455 S
C864 C862 1.478 . S
C864 C866 1.381 . S
C864 C870 1.383 . S
C865 C861 1.495 . S
C865 H871 0.959 . S
C865 H872 0.961 . S
C865 H873 0.960 . S
C866 C864 1.381 . S
C866 C867 1.394 . S
C866 H874 0.930 . S
C867 C866 1.394 . S
C867 C868 1.383 . S
C867 H875 0.929 . S
C868 C867 1.383 . S
C868 C869 1.377 . S
C869 H853 0.930 . S
C869 C868 1.377 . S
C869 C870 1.379 . S
C870 H854 0.931 1_655 S
C870 C864 1.383 . S
C870 C869 1.379 . S
H871 C865 0.959 . S
H872 C865 0.961 . S
H873 C865 0.960 . S
H874 C866 0.930 . S
H875 C867 0.929 . S
H876 C884 0.929 . S
H877 C886 0.930 . S
H878 C888 0.930 . S
H879 C891 0.929 . S
H880 C894 0.930 . S
H881 C896 0.960 . S
H882 C896 0.960 . S
H883 C896 0.960 . S
C884 H876 0.929 . S
C884 C885 1.377 . S
C884 C886 1.384 . S
C885 C884 1.377 . S
C885 C891 1.390 . S
C886 H877 0.930 . S
C886 C884 1.384 . S
C886 C887 1.372 . S
C887 C886 1.372 . S
C887 C888 1.400 . S
C887 C892 1.490 . S
C888 H878 0.930 . S
C888 C887 1.400 . S
C888 C891 1.386 . S
H889 C905 0.930 . S
H890 C906 0.931 . S
C891 H879 0.929 . S
C891 C885 1.390 . S
C891 C888 1.386 . S
C892 C887 1.490 . S
C892 C894 1.395 1_565 S
C892 C895 1.403 . S
H893 C899 0.930 . S
C894 H880 0.930 . S
C894 C892 1.395 1_545 S
C894 C897 1.403 . S
C895 C892 1.403 . S
C895 C896 1.524 . S
C895 C899 1.400 . S
C896 H881 0.960 . S
C896 H882 0.960 . S
C896 H883 0.960 . S
C896 C895 1.524 . S
C897 C894 1.403 . S
C897 C898 1.392 . S
C897 C901 1.495 . S
C898 C897 1.392 . S
C898 C899 1.385 1_545 S
C898 C900 1.478 . S
C899 H893 0.930 . S
C899 C895 1.400 . S
C899 C898 1.385 1_565 S
C900 C898 1.478 . S
C900 C902 1.381 . S
C900 C906 1.383 . S
C901 C897 1.495 . S
C901 H907 0.959 . S
C901 H908 0.961 . S
C901 H909 0.960 . S
C902 C900 1.381 . S
C902 C903 1.394 . S
C902 H910 0.930 . S
C903 C902 1.394 . S
C903 C904 1.383 . S
C903 H911 0.929 . S
C904 C903 1.383 . S
C904 C905 1.377 . S
C905 H889 0.930 . S
C905 C904 1.377 . S
C905 C906 1.379 . S
C906 H890 0.931 . S
C906 C900 1.383 . S
C906 C905 1.379 . S
H907 C901 0.959 . S
H908 C901 0.961 . S
H909 C901 0.960 . S
H910 C902 0.930 . S
H911 C903 0.929 . S
H912 C920 0.929 . S
H913 C922 0.930 . S
H914 C924 0.930 . S
H915 C927 0.929 . S
H916 C930 0.930 . S
H917 C932 0.960 . S
H918 C932 0.960 . S
H919 C932 0.960 . S
C920 H912 0.929 . S
C920 C921 1.377 . S
C920 C922 1.384 . S
C921 C920 1.377 . S
C921 C927 1.390 . S
C922 H913 0.930 . S
C922 C920 1.384 . S
C922 C923 1.372 . S
C923 C922 1.372 . S
C923 C924 1.400 . S
C923 C928 1.490 . S
C924 H914 0.930 . S
C924 C923 1.400 . S
C924 C927 1.386 . S
H925 C941 0.930 . S
H926 C942 0.931 . S
C927 H915 0.929 . S
C927 C921 1.390 . S
C927 C924 1.386 . S
C928 C923 1.490 . S
C928 C930 1.395 . S
C928 C931 1.403 . S
H929 C935 0.930 . S
C930 H916 0.930 . S
C930 C928 1.395 . S
C930 C933 1.403 . S
C931 C928 1.403 . S
C931 C932 1.524 . S
C931 C935 1.400 . S
C932 H917 0.960 . S
C932 H918 0.960 . S
C932 H919 0.960 . S
C932 C931 1.524 . S
C933 C930 1.403 . S
C933 C934 1.392 . S
C933 C937 1.495 . S
C934 C933 1.392 . S
C934 C935 1.385 . S
C934 C936 1.478 . S
C935 H929 0.930 . S
C935 C931 1.400 . S
C935 C934 1.385 . S
C936 C934 1.478 . S
C936 C938 1.381 . S
C936 C942 1.383 . S
C937 C933 1.495 . S
C937 H943 0.959 . S
C937 H944 0.961 . S
C937 H945 0.960 . S
C938 C936 1.381 . S
C938 C939 1.394 . S
C938 H946 0.930 . S
C939 C938 1.394 . S
C939 C940 1.383 . S
C939 H947 0.929 . S
C940 C939 1.383 . S
C940 C941 1.377 . S
C941 H925 0.930 . S
C941 C940 1.377 . S
C941 C942 1.379 . S
C942 H926 0.931 . S
C942 C936 1.383 . S
C942 C941 1.379 . S
H943 C937 0.959 . S
H944 C937 0.961 . S
H945 C937 0.960 . S
H946 C938 0.930 . S
H947 C939 0.929 . S
H948 C956 0.929 . S
H949 C958 0.930 . S
H950 C960 0.930 . S
H951 C963 0.929 . S
H952 C966 0.930 . S
H953 C968 0.960 . S
H954 C968 0.960 . S
H955 C968 0.960 . S
C956 H948 0.929 . S
C956 C957 1.377 . S
C956 C958 1.384 . S
C957 C956 1.377 . S
C957 C963 1.390 . S
C958 H949 0.930 . S
C958 C956 1.384 . S
C958 C959 1.372 . S
C959 C958 1.372 . S
C959 C960 1.400 . S
C959 C964 1.490 . S
C960 H950 0.930 . S
C960 C959 1.400 . S
C960 C963 1.386 . S
H961 C977 0.930 . S
H962 C978 0.931 . S
C963 H951 0.929 . S
C963 C957 1.390 . S
C963 C960 1.386 . S
C964 C959 1.490 . S
C964 C966 1.395 1_655 S
C964 C967 1.403 . S
H965 C971 0.930 . S
C966 H952 0.930 . S
C966 C964 1.395 1_455 S
C966 C969 1.403 . S
C967 C964 1.403 . S
C967 C968 1.524 . S
C967 C971 1.400 . S
C968 H953 0.960 . S
C968 H954 0.960 . S
C968 H955 0.960 . S
C968 C967 1.524 . S
C969 C966 1.403 . S
C969 C970 1.392 . S
C969 C973 1.495 . S
C970 C969 1.392 . S
C970 C971 1.385 1_455 S
C970 C972 1.478 . S
C971 H965 0.930 . S
C971 C967 1.400 . S
C971 C970 1.385 1_655 S
C972 C970 1.478 . S
C972 C974 1.381 . S
C972 C978 1.383 . S
C973 C969 1.495 . S
C973 H979 0.959 . S
C973 H980 0.961 . S
C973 H981 0.960 . S
C974 C972 1.381 . S
C974 C975 1.394 . S
C974 H982 0.930 . S
C975 C974 1.394 . S
C975 C976 1.383 . S
C975 H983 0.929 . S
C976 C975 1.383 . S
C976 C977 1.377 . S
C977 H961 0.930 . S
C977 C976 1.377 . S
C977 C978 1.379 . S
C978 H962 0.931 . S
C978 C972 1.383 . S
C978 C977 1.379 . S
H979 C973 0.959 . S
H980 C973 0.961 . S
H981 C973 0.960 . S
H982 C974 0.930 . S
H983 C975 0.929 . S
H984 C992 0.929 . S
H985 C994 0.930 . S
H986 C996 0.930 . S
H987 C999 0.929 . S
H988 C1002 0.930 . S
H989 C1004 0.960 . S
H990 C1004 0.960 . S
H991 C1004 0.960 . S
C992 H984 0.929 . S
C992 C993 1.377 . S
C992 C994 1.384 . S
C993 C992 1.377 . S
C993 C999 1.390 . S
C994 H985 0.930 . S
C994 C992 1.384 . S
C994 C995 1.372 . S
C995 C994 1.372 . S
C995 C996 1.400 . S
C995 C1000 1.490 . S
C996 H986 0.930 . S
C996 C995 1.400 . S
C996 C999 1.386 . S
H997 C1013 0.930 . S
H998 C1014 0.931 . S
C999 H987 0.929 . S
C999 C993 1.390 . S
C999 C996 1.386 . S
C1000 C995 1.490 . S
C1000 C1002 1.395 . S
C1000 C1003 1.403 1_545 S
H1001 C1007 0.930 . S
C1002 H988 0.930 . S
C1002 C1000 1.395 . S
C1002 C1005 1.403 . S
C1003 C1000 1.403 1_565 S
C1003 C1004 1.524 . S
C1003 C1007 1.400 . S
C1004 H989 0.960 . S
C1004 H990 0.960 . S
C1004 H991 0.960 . S
C1004 C1003 1.524 . S
C1005 C1002 1.403 . S
C1005 C1006 1.392 1_545 S
C1005 C1009 1.495 . S
C1006 C1005 1.392 1_565 S
C1006 C1007 1.385 . S
C1006 C1008 1.478 . S
C1007 H1001 0.930 . S
C1007 C1003 1.400 . S
C1007 C1006 1.385 . S
C1008 C1006 1.478 . S
C1008 C1010 1.381 . S
C1008 C1014 1.383 . S
C1009 C1005 1.495 . S
C1009 H1015 0.959 . S
C1009 H1016 0.961 . S
C1009 H1017 0.960 . S
C1010 C1008 1.381 . S
C1010 C1011 1.394 . S
C1010 H1018 0.930 . S
C1011 C1010 1.394 . S
C1011 C1012 1.383 . S
C1011 H1019 0.929 . S
C1012 C1011 1.383 . S
C1012 C1013 1.377 . S
C1013 H997 0.930 . S
C1013 C1012 1.377 . S
C1013 C1014 1.379 . S
C1014 H998 0.931 . S
C1014 C1008 1.383 . S
C1014 C1013 1.379 . S
H1015 C1009 0.959 . S
H1016 C1009 0.961 . S
H1017 C1009 0.960 . S
H1018 C1010 0.930 . S
H1019 C1011 0.929 . S
C165 C10 1.220 . S
C184 C127 1.218 . S
C201 C23 1.223 . S
C220 C140 1.222 . S
C237 C36 1.222 . S
C256 C153 1.226 . S
C273 C49 1.224 . S
C292 C88 1.208 . S
C309 C101 1.224 . S
C328 C62 1.219 . S
C345 C114 1.223 . S
C364 C75 1.220 . S
C381 C130 1.293 . S
C400 C0 1.312 . S
C417 C13 1.298 . S
C436 C143 1.286 . S
C453 C26 1.297 . S
C472 C78 1.293 . S
C489 C39 1.300 . S
C508 C91 1.282 . S
C525 C52 1.294 . S
C544 C104 1.306 . S
C561 C65 1.295 . S
C580 C117 1.304 . S
C597 C125 0.516 . S
C616 C8 0.420 . S
C633 C21 0.536 . S
C652 C138 0.488 . S
C669 C34 0.510 . S
C688 C151 0.598 . S
C705 C86 0.521 . S
C724 C47 0.424 . S
C741 C60 0.508 . S
C760 C99 0.427 . S
C777 C112 0.539 . S
C796 C73 0.575 . S
C813 C5 1.299 . S
C832 C44 1.319 . S
C849 C57 1.300 . S
C868 C18 1.326 . S
C885 C31 1.310 . S
C904 C70 1.332 . S
C921 C83 1.301 . S
C940 C122 1.331 . S
C957 C96 1.310 . S
C976 C135 1.329 . S
C993 C148 1.305 . S
C1012 C109 1.269 . S
