# Generated by pormake.
# Topology npo, (4)-cn, num edge types: 1
# Building blocks:
#     Node 0, Type 0, BuildingBlock: TATPOV_clean_sbu_0, # of connection points: 4
#     Node 1, Type 0, BuildingBlock: TATPOV_clean_sbu_0, # of connection points: 4
#     Node 2, Type 0, BuildingBlock: TATPOV_clean_sbu_0, # of connection points: 4
#     Node 3, Type 0, BuildingBlock: TATPOV_clean_sbu_0, # of connection points: 4
#     Node 4, Type 0, BuildingBlock: TATPOV_clean_sbu_0, # of connection points: 4
#     Node 5, Type 0, BuildingBlock: TATPOV_clean_sbu_0, # of connection points: 4
#     Edge 6, Type (0, 0), BuildingBlock: XUDNAN_clean_linker_2, # of connection points: 2
#     Edge 7, Type (0, 0), BuildingBlock: XUDNAN_clean_linker_2, # of connection points: 2
#     Edge 8, Type (0, 0), BuildingBlock: XUDNAN_clean_linker_2, # of connection points: 2
#     Edge 9, Type (0, 0), BuildingBlock: XUDNAN_clean_linker_2, # of connection points: 2
#     Edge 10, Type (0, 0), BuildingBlock: XUDNAN_clean_linker_2, # of connection points: 2
#     Edge 11, Type (0, 0), BuildingBlock: XUDNAN_clean_linker_2, # of connection points: 2
#     Edge 12, Type (0, 0), BuildingBlock: XUDNAN_clean_linker_2, # of connection points: 2
#     Edge 13, Type (0, 0), BuildingBlock: XUDNAN_clean_linker_2, # of connection points: 2
#     Edge 14, Type (0, 0), BuildingBlock: XUDNAN_clean_linker_2, # of connection points: 2
#     Edge 15, Type (0, 0), BuildingBlock: XUDNAN_clean_linker_2, # of connection points: 2
#     Edge 16, Type (0, 0), BuildingBlock: XUDNAN_clean_linker_2, # of connection points: 2
#     Edge 17, Type (0, 0), BuildingBlock: XUDNAN_clean_linker_2, # of connection points: 2
# Relax obj value: 0.179
# Max RMSD: 0.205
# Mean RMSD: 0.194
data_MOF--net-npo--node1-TATPOV_clean_sbu_0--edge1-XUDNAN_clean_linker_2
_symmetry_space_group_name_H-M    P1
_symmetry_Int_Tables_number       1
_symmetry_cell_setting            triclinic
loop_
_symmetry_equiv_pos_as_xyz
'x, y, z'
_cell_length_a     44.195469
_cell_length_b     41.569126
_cell_length_c     26.219954
_cell_angle_alpha  90.825187
_cell_angle_beta   89.658912
_cell_angle_gamma 122.45408
loop_
_atom_site_label
_atom_site_type_symbol
_atom_site_fract_x
_atom_site_fract_y
_atom_site_fract_z
_atom_type_partial_charge
Zn0 Zn 0.58253 0.13767 0.13451 0.0
Zn1 Zn 0.53856 0.09884 0.21122 0.0
O2 O 0.52429 0.13776 0.20016 0.0
O3 O 0.55925 0.16817 0.13477 0.0
O4 O 0.50669 0.06505 0.26826 0.0
O5 O 0.56243 0.09222 0.08869 0.0
O6 O 0.52399 0.06096 0.15031 0.0
C7 C 0.53539 0.1634 0.16634 0.0
C8 C 0.62132 0.14554 0.22394 0.0
O9 O 0.58959 0.12431 0.24115 0.0
O10 O 0.62608 0.15482 0.17748 0.0
C11 C 0.51435 0.07263 0.31541 0.0
O12 O 0.5438 0.10469 0.32886 0.0
C13 C 0.53533 0.06191 0.10512 0.0
Zn14 Zn 0.3822 0.52904 0.59055 0.0
Zn15 Zn 0.42248 0.53338 0.6671 0.0
O16 O 0.37053 0.51018 0.69611 0.0
O17 O 0.33778 0.50942 0.63282 0.0
O18 O 0.44993 0.53322 0.72979 0.0
O19 O 0.39155 0.49399 0.55071 0.0
O20 O 0.43286 0.50595 0.60775 0.0
C21 C 0.34061 0.50364 0.67927 0.0
C22 C 0.44058 0.60592 0.61372 0.0
O23 O 0.44577 0.59004 0.65097 0.0
O24 O 0.41596 0.58592 0.58156 0.0
C25 C 0.44634 0.54723 0.77128 0.0
O26 O 0.42618 0.56165 0.77111 0.0
C27 C 0.41748 0.49144 0.56491 0.0
Zn28 Zn 0.83408 0.44183 0.43078 0.0
Zn29 Zn 0.86969 0.44827 0.34446 0.0
O30 O 0.84526 0.47867 0.33086 0.0
O31 O 0.81822 0.47552 0.40311 0.0
O32 O 0.8937 0.45091 0.2764 0.0
O33 O 0.8792 0.46292 0.47129 0.0
O34 O 0.90918 0.46728 0.40154 0.0
C35 C 0.82588 0.4868 0.35754 0.0
C36 C 0.80844 0.36985 0.38141 0.0
O37 O 0.83272 0.39089 0.3494 0.0
O38 O 0.80318 0.38467 0.42026 0.0
C39 C 0.9246 0.47778 0.26222 0.0
O40 O 0.94397 0.50672 0.29347 0.0
C41 C 0.90812 0.47068 0.45005 0.0
Zn42 Zn 0.39754 0.81905 0.75669 0.0
Zn43 Zn 0.41635 0.87323 0.7013 0.0
O44 O 0.36064 0.84168 0.69831 0.0
O45 O 0.34985 0.78621 0.72238 0.0
O46 O 0.42962 0.91276 0.64664 0.0
O47 O 0.40185 0.84983 0.8182 0.0
O48 O 0.43397 0.90097 0.77166 0.0
C49 C 0.33884 0.80599 0.70379 0.0
C50 C 0.4505 0.825 0.69733 0.0
O51 O 0.44233 0.84639 0.6749 0.0
O52 O 0.43724 0.81176 0.74051 0.0
C53 C 0.41412 0.89825 0.60414 0.0
O54 O 0.39206 0.86108 0.60059 0.0
C55 C 0.42201 0.88567 0.81511 0.0
Zn56 Zn 0.60419 0.47187 0.08385 0.0
Zn57 Zn 0.57034 0.47849 0.16526 0.0
O58 O 0.62327 0.505 0.18948 0.0
O59 O 0.65107 0.49945 0.1232 0.0
O60 O 0.54198 0.47923 0.22646 0.0
O61 O 0.58691 0.49788 0.03909 0.0
O62 O 0.55748 0.50157 0.10468 0.0
C63 C 0.65175 0.50989 0.16905 0.0
C64 C 0.55162 0.39979 0.1264 0.0
O65 O 0.54802 0.42093 0.15816 0.0
O66 O 0.57346 0.41459 0.08971 0.0
C67 C 0.55361 0.49135 0.27151 0.0
O68 O 0.58807 0.50837 0.28101 0.0
C69 C 0.56574 0.50679 0.05733 0.0
Zn70 Zn 0.13534 0.56307 0.91017 0.0
Zn71 Zn 0.08843 0.52236 0.83516 0.0
O72 O 0.12378 0.50396 0.83 0.0
O73 O 0.16186 0.53685 0.89221 0.0
O74 O 0.05547 0.49903 0.77335 0.0
O75 O 0.09559 0.54103 0.96093 0.0
O76 O 0.05578 0.50714 0.90098 0.0
C77 C 0.1519 0.51309 0.8555 0.0
C78 C 0.13602 0.61063 0.83401 0.0
O79 O 0.1136 0.57824 0.81436 0.0
O80 O 0.14955 0.61298 0.87732 0.0
C81 C 0.07105 0.50559 0.7302 0.0
O82 O 0.10615 0.52286 0.7292 0.0
C83 C 0.06335 0.51781 0.94777 0.0
H84 H 0.5416 0.20791 0.08738 0.0
H85 H 0.50137 0.179 0.242 0.0
H86 H 0.48994 0.23117 0.24255 0.0
H87 H 0.59079 0.30239 0.10485 0.0
H88 H 0.58263 0.31509 0.04328 0.0
H89 H 0.57949 0.27058 0.0508 0.0
H90 H 0.51451 0.23416 0.01541 0.0
H91 H 0.51753 0.27881 0.00746 0.0
H92 H 0.4816 0.24154 0.04448 0.0
H93 H 0.494 0.29362 0.23158 0.0
H94 H 0.51332 0.35975 0.21072 0.0
H95 H 0.55079 0.34676 0.06317 0.0
C96 C 0.52938 0.21177 0.12088 0.0
C97 C 0.5224 0.18952 0.16466 0.0
C98 C 0.50664 0.19558 0.20787 0.0
C99 C 0.50001 0.22509 0.20845 0.0
C100 C 0.50869 0.24764 0.1652 0.0
C101 C 0.52259 0.24085 0.12194 0.0
C102 C 0.53395 0.27163 0.08283 0.0
C103 C 0.57407 0.29106 0.06975 0.0
C104 C 0.51048 0.25557 0.0347 0.0
C105 C 0.52645 0.29818 0.11199 0.0
C106 C 0.51106 0.28354 0.15892 0.0
C107 C 0.50524 0.30494 0.19448 0.0
C108 C 0.51635 0.34252 0.1823 0.0
C109 C 0.53356 0.35841 0.13526 0.0
C110 C 0.53743 0.33536 0.09921 0.0
H111 H 0.27486 0.49158 0.65544 0.0
H112 H 0.3386 0.49533 0.7834 0.0
H113 H 0.29206 0.48887 0.84273 0.0
H114 H 0.24877 0.54868 0.7095 0.0
H115 H 0.20412 0.52346 0.68308 0.0
H116 H 0.2393 0.52203 0.65056 0.0
H117 H 0.20148 0.44819 0.65244 0.0
H118 H 0.16602 0.4494 0.68493 0.0
H119 H 0.18478 0.42434 0.71246 0.0
H120 H 0.24344 0.49205 0.88815 0.0
H121 H 0.19623 0.50314 0.91589 0.0
H122 H 0.16306 0.49571 0.75865 0.0
C123 C 0.27865 0.48994 0.69586 0.0
C124 C 0.31042 0.49372 0.71464 0.0
C125 C 0.31446 0.49215 0.76794 0.0
C126 C 0.2881 0.48848 0.80198 0.0
C127 C 0.25765 0.486 0.78219 0.0
C128 C 0.25263 0.48627 0.73029 0.0
C129 C 0.21918 0.48662 0.71888 0.0
C130 C 0.22841 0.52232 0.68875 0.0
C131 C 0.19121 0.44995 0.6905 0.0
C132 C 0.20682 0.48793 0.77249 0.0
C133 C 0.22919 0.48716 0.80848 0.0
C134 C 0.2253 0.49178 0.86037 0.0
C135 C 0.19841 0.49811 0.87577 0.0
C136 C 0.17557 0.49962 0.83953 0.0
C137 C 0.17937 0.49352 0.78734 0.0
H138 H 0.69134 0.196 0.19972 0.0
H139 H 0.62048 0.14131 0.32843 0.0
H140 H 0.66805 0.1875 0.38675 0.0
H141 H 0.78005 0.23025 0.27075 0.0
H142 H 0.80177 0.27389 0.23522 0.0
H143 H 0.76685 0.23006 0.20577 0.0
H144 H 0.7324 0.26257 0.18411 0.0
H145 H 0.76659 0.30605 0.21413 0.0
H146 H 0.7207 0.28373 0.23479 0.0
H147 H 0.71573 0.24798 0.42737 0.0
H148 H 0.76108 0.31531 0.44755 0.0
H149 H 0.80128 0.33112 0.29265 0.0
C150 C 0.68635 0.1926 0.24036 0.0
C151 C 0.65214 0.16512 0.25946 0.0
C152 C 0.6465 0.16202 0.31285 0.0
C153 C 0.67345 0.18815 0.34634 0.0
C154 C 0.70603 0.21674 0.32589 0.0
C155 C 0.71288 0.21859 0.27412 0.0
C156 C 0.74757 0.25517 0.26072 0.0
C157 C 0.77573 0.24683 0.24203 0.0
C158 C 0.7414 0.27821 0.22116 0.0
C159 C 0.75769 0.27495 0.31229 0.0
C160 C 0.73393 0.25196 0.34967 0.0
C161 C 0.73514 0.26581 0.39883 0.0
C162 C 0.76083 0.3042 0.40983 0.0
C163 C 0.78481 0.3284 0.37169 0.0
C164 C 0.78377 0.31315 0.32284 0.0
H165 H 0.48295 0.79256 0.74083 0.0
H166 H 0.45897 0.8206 0.59428 0.0
H167 H 0.4722 0.77615 0.55203 0.0
H168 H 0.55074 0.76561 0.69064 0.0
H169 H 0.53293 0.7277 0.73632 0.0
H170 H 0.53614 0.77179 0.7523 0.0
H171 H 0.4685 0.73378 0.7742 0.0
H172 H 0.46487 0.68997 0.75764 0.0
H173 H 0.43645 0.70259 0.72649 0.0
H174 H 0.46743 0.71592 0.53026 0.0
H175 H 0.44809 0.64827 0.53036 0.0
H176 H 0.47492 0.65766 0.6908 0.0
C177 C 0.48236 0.79077 0.69957 0.0
C178 C 0.46985 0.80978 0.67077 0.0
C179 C 0.46886 0.80656 0.617 0.0
C180 C 0.47636 0.78131 0.59271 0.0
C181 C 0.48546 0.7602 0.62272 0.0
C182 C 0.48943 0.76544 0.67507 0.0
C183 C 0.49233 0.73451 0.69993 0.0
C184 C 0.5303 0.75088 0.72102 0.0
C185 C 0.46382 0.71402 0.74193 0.0
C186 C 0.48524 0.70869 0.65433 0.0
C187 C 0.48276 0.7247 0.60982 0.0
C188 C 0.47058 0.70368 0.56442 0.0
C189 C 0.45937 0.66513 0.56493 0.0
C190 C 0.46016 0.64787 0.61064 0.0
C191 C 0.47487 0.67043 0.65513 0.0
H192 H 0.70842 0.50284 0.14564 0.0
H193 H 0.66677 0.54146 0.26565 0.0
H194 H 0.71451 0.5499 0.32353 0.0
H195 H 0.72291 0.44632 0.2207 0.0
H196 H 0.76329 0.45549 0.18978 0.0
H197 H 0.73108 0.46018 0.15474 0.0
H198 H 0.78018 0.5297 0.13232 0.0
H199 H 0.81273 0.52516 0.16717 0.0
H200 H 0.80599 0.56325 0.18272 0.0
H201 H 0.76016 0.54433 0.37191 0.0
H202 H 0.79918 0.52447 0.40723 0.0
H203 H 0.81105 0.48867 0.25623 0.0
C204 C 0.71009 0.51447 0.18348 0.0
C205 C 0.684 0.52195 0.20083 0.0
C206 C 0.68658 0.53591 0.25125 0.0
C207 C 0.71369 0.54085 0.28439 0.0
C208 C 0.73814 0.53184 0.26659 0.0
C209 C 0.73673 0.51917 0.21713 0.0
C210 C 0.76325 0.50698 0.20919 0.0
C211 C 0.74397 0.46475 0.19266 0.0
C212 C 0.79227 0.53282 0.17056 0.0
C213 C 0.7788 0.51327 0.26244 0.0
C214 C 0.76441 0.52827 0.29473 0.0
C215 C 0.77213 0.53332 0.34675 0.0
C216 C 0.7943 0.52187 0.3665 0.0
C217 C 0.80852 0.50537 0.33445 0.0
C218 C 0.80138 0.50207 0.28149 0.0
H219 H 0.29063 0.73803 0.66044 0.0
H220 H 0.3005 0.83357 0.74408 0.0
H221 H 0.23721 0.79371 0.77006 0.0
H222 H 0.1861 0.68882 0.62937 0.0
H223 H 0.1807 0.64292 0.63603 0.0
H224 H 0.2211 0.68186 0.60825 0.0
H225 H 0.25867 0.67234 0.6745 0.0
H226 H 0.21884 0.63425 0.70302 0.0
H227 H 0.25058 0.67466 0.7416 0.0
H228 H 0.18622 0.7404 0.81424 0.0
H229 H 0.14681 0.68002 0.85954 0.0
H230 H 0.16376 0.61826 0.74065 0.0
C231 C 0.27849 0.75099 0.68122 0.0
C232 C 0.29995 0.78862 0.70007 0.0
C233 C 0.28411 0.80491 0.7285 0.0
C234 C 0.24816 0.78236 0.74358 0.0
C235 C 0.2283 0.7441 0.72824 0.0
C236 C 0.24241 0.72892 0.69556 0.0
C237 C 0.21784 0.68597 0.69114 0.0
C238 C 0.20039 0.67421 0.63804 0.0
C239 C 0.23768 0.66569 0.70338 0.0
C240 C 0.19039 0.67894 0.73148 0.0
C241 C 0.19634 0.71285 0.75174 0.0
C242 C 0.17986 0.71367 0.79698 0.0
C243 C 0.15769 0.67936 0.82269 0.0
C244 C 0.15166 0.64476 0.80244 0.0
C245 C 0.16686 0.64437 0.75531 0.0
H246 H 0.47991 0.95871 0.83227 0.0
H247 H 0.38788 0.86328 0.90634 0.0
H248 H 0.4076 0.89725 -0.01113 0.0
H249 H 0.54212 0.97973 0.93234 0.0
H250 H 0.56585 0.03074 0.92565 0.0
H251 H 0.54377 1e-05 0.87127 0.0
H252 H 0.50732 0.03148 0.85735 0.0
H253 H 0.52969 0.0627 0.91123 0.0
H254 H 0.48141 0.03347 0.90927 0.0
H255 H 0.43789 0.94025 0.06388 0.0
H256 H 0.47546 0.99185 0.12583 0.0
H257 H 0.54829 0.05865 0.0036 0.0
C258 C 0.46367 0.94529 0.86572 0.0
C259 C 0.43241 0.90839 0.86287 0.0
C260 C 0.41205 0.89152 0.90764 0.0
C261 C 0.423 0.91052 0.95476 0.0
C262 C 0.45441 0.94638 0.9566 0.0
C263 C 0.47435 0.96379 0.91333 0.0
C264 C 0.50738 0.00229 0.92624 0.0
C265 C 0.54181 0.00322 0.91309 0.0
C266 C 0.50637 0.03438 0.89944 0.0
C267 C 0.50283 0.0036 0.98338 0.0
C268 C 0.47212 0.97108 0.00013 0.0
C269 C 0.46204 0.96594 0.05131 0.0
C270 C 0.48361 -0.0047 0.08622 0.0
C271 C 0.51486 0.02923 0.06968 0.0
C272 C 0.52472 0.03299 0.01764 0.0
H273 H 0.56804 0.52327 0.3683 0.0
H274 H 0.48106 0.4408 0.27032 0.0
H275 H 0.43822 0.4254 0.34051 0.0
H276 H 0.53354 0.47098 0.48823 0.0
H277 H 0.54756 0.51343 0.52574 0.0
H278 H 0.57232 0.51591 0.46945 0.0
H279 H 0.5639 0.56813 0.43262 0.0
H280 H 0.53966 0.56618 0.48906 0.0
H281 H 0.51932 0.5591 0.42714 0.0
H282 H 0.40425 0.42132 0.41855 0.0
H283 H 0.38035 0.43395 0.49623 0.0
H284 H 0.48846 0.5192 0.54505 0.0
C285 C 0.54002 0.50173 0.36179 0.0
C286 C 0.52797 0.48313 0.31374 0.0
C287 C 0.49099 0.45551 0.30662 0.0
C288 C 0.46646 0.4463 0.34646 0.0
C289 C 0.47919 0.46496 0.39333 0.0
C290 C 0.51501 0.4924 0.40112 0.0
C291 C 0.52108 0.51037 0.45396 0.0
C292 C 0.54505 0.50217 0.48625 0.0
C293 C 0.53691 0.55349 0.45047 0.0
C294 C 0.48294 0.48932 0.47417 0.0
C295 C 0.45935 0.46279 0.43876 0.0
C296 C 0.42246 0.44162 0.44685 0.0
C297 C 0.40914 0.44885 0.49122 0.0
C298 C 0.43255 0.47703 0.52707 0.0
C299 C 0.47002 0.49662 0.51916 0.0
H300 H 0.07056 0.5504 0.04129 0.0
H301 H -0.00732 0.45638 0.94539 0.0
H302 H 0.94793 0.43536 0.01531 0.0
H303 H 0.04691 0.50165 0.15883 0.0
H304 H 0.05396 0.5421 0.19563 0.0
H305 H 0.07896 0.54938 0.13788 0.0
H306 H 0.05629 0.59064 0.10223 0.0
H307 H 0.03129 0.58359 0.15995 0.0
H308 H 0.00877 0.5712 0.09908 0.0
H309 H 0.9125 0.4241 0.09893 0.0
H310 H 0.88933 0.42517 0.18471 0.0
H311 H -0.00872 0.52798 0.22283 0.0
C312 C 0.04413 0.52528 0.03469 0.0
C313 C 0.03525 0.50484 -0.01219 0.0
C314 C 0.00014 0.47249 0.9809 0.0
C315 C 0.97461 0.46035 0.02048 0.0
C316 C 0.98456 0.48113 0.06641 0.0
C317 C 0.01849 0.51312 0.07328 0.0
C318 C 0.02284 0.53101 0.1256 0.0
C319 C 0.05241 0.53101 0.15628 0.0
C320 C 0.03023 0.5715 0.12144 0.0
C321 C 0.98617 0.50385 0.14781 0.0
C322 C 0.96436 0.4752 0.11329 0.0
C323 C 0.92939 0.44656 0.12598 0.0
C324 C 0.91648 0.44738 0.17491 0.0
C325 C 0.93842 0.47671 0.21068 0.0
C326 C 0.97371 0.50521 0.19654 0.0
H327 H 0.52849 0.07405 0.41778 0.0
H328 H 0.44891 0.00676 0.30119 0.0
H329 H 0.41271 0.95737 0.36458 0.0
H330 H 0.52505 -0.00283 0.47804 0.0
H331 H 0.53047 0.01608 0.54196 0.0
H332 H 0.54866 0.04798 0.48887 0.0
H333 H 0.51306 0.07853 0.5163 0.0
H334 H 0.49478 0.04673 0.56964 0.0
H335 H 0.46517 0.04864 0.52456 0.0
H336 H 0.3875 0.9133 0.43795 0.0
H337 H 0.37447 0.87697 0.51706 0.0
H338 H 0.46996 0.97237 0.58736 0.0
C339 C 0.50316 0.04923 0.40575 0.0
C340 C 0.49149 0.04437 0.35446 0.0
C341 C 0.45841 0.01119 0.34019 0.0
C342 C 0.4376 0.983 0.37598 0.0
C343 C 0.45013 0.98841 0.42596 0.0
C344 C 0.48205 0.02071 0.44101 0.0
C345 C 0.49026 0.01841 0.49649 0.0
C346 C 0.52571 0.01999 0.50161 0.0
C347 C 0.49084 0.04996 0.52864 0.0
C348 C 0.45833 0.9794 0.50991 0.0
C349 C 0.43543 0.9628 0.46867 0.0
C350 C 0.40501 0.92614 0.47067 0.0
C351 C 0.39792 0.90569 0.5158 0.0
C352 C 0.42112 0.92185 0.5585 0.0
C353 C 0.45149 0.95944 0.55561 0.0
H354 H 0.49441 0.52486 0.78614 0.0
H355 H 0.43647 0.5675 0.86662 0.0
H356 H 0.46262 0.56473 0.94793 0.0
H357 H 0.48468 0.45933 0.88089 0.0
H358 H 0.52892 0.46798 0.87204 0.0
H359 H 0.50654 0.47449 0.81983 0.0
H360 H 0.56058 0.54387 0.80968 0.0
H361 H 0.5831 0.53757 0.86199 0.0
H362 H 0.57564 0.57615 0.86373 0.0
H363 H 0.4927 0.55403 0.02188 0.0
H364 H 0.52538 0.53742 0.08149 0.0
H365 H 0.56529 0.50407 0.95275 0.0
C366 C 0.48736 0.53381 0.8208 0.0
C367 C 0.4633 0.54638 0.81975 0.0
C368 C 0.45486 0.55782 0.86616 0.0
C369 C 0.4696 0.55637 0.91271 0.0
C370 C 0.49307 0.5437 0.91248 0.0
C371 C 0.50208 0.53282 0.8677 0.0
C372 C 0.5276 0.51984 0.87812 0.0
C373 C 0.51093 0.47792 0.86176 0.0
C374 C 0.56388 0.54592 0.85182 0.0
C375 C 0.5311 0.52462 0.93569 0.0
C376 C 0.51099 0.53841 0.95486 0.0
C377 C 0.50885 0.54358 0.00722 0.0
C378 C 0.52751 0.53408 0.04085 0.0
C379 C 0.54825 0.51979 0.02202 0.0
C380 C 0.55019 0.51547 0.96858 0.0
H381 H 0.00211 0.48852 0.71704 0.0
H382 H 0.09538 0.50801 0.63326 0.0
H383 H 0.06483 0.50249 0.55203 0.0
H384 H 0.93489 0.42004 0.6278 0.0
H385 H 0.90615 0.43811 0.63671 0.0
H386 H 0.93497 0.44184 0.68778 0.0
H387 H 0.96278 0.51482 0.69273 0.0
H388 H 0.93436 0.51137 0.64123 0.0
H389 H 0.98233 0.54299 0.63636 0.0
H390 H 0.02385 0.49598 0.47901 0.0
H391 H 0.97531 0.4869 0.42173 0.0
H392 H 0.91047 0.47393 0.55426 0.0
C393 C 0.01593 0.49106 0.68164 0.0
C394 C 0.0511 0.49849 0.68165 0.0
C395 C 0.06838 0.50221 0.63434 0.0
C396 C 0.05128 0.4992 0.58791 0.0
C397 C 0.01689 0.49264 0.58925 0.0
C398 C -0.00063 0.48846 0.63494 0.0
C399 C 0.96284 0.4824 0.62608 0.0
C400 C 0.93295 0.44327 0.64575 0.0
C401 C 0.96046 0.51483 0.65055 0.0
C402 C 0.96252 0.48381 0.56839 0.0
C403 C -0.00616 0.48967 0.54765 0.0
C404 C -0.00079 0.49142 0.49491 0.0
C405 C 0.97157 0.48641 0.46263 0.0
C406 C 0.93906 0.47988 0.48323 0.0
C407 C 0.93497 0.4791 0.53694 0.0
loop_
_geom_bond_atom_site_label_1
_geom_bond_atom_site_label_2
_geom_bond_distance
_geom_bond_site_symmetry_2
_ccdc_geom_bond_type
Zn0 O3 2.031 . S
Zn0 O5 2.049 . S
Zn0 O10 2.067 . S
Zn1 O2 1.962 . S
Zn1 O4 1.986 . S
Zn1 O6 1.996 . S
Zn1 O9 1.943 . S
O2 Zn1 1.962 . S
O2 C7 1.254 . S
O3 Zn0 2.031 . S
O3 C7 1.269 . S
O4 Zn1 1.986 . S
O4 C11 1.262 . S
O5 Zn0 2.049 . S
O5 C13 1.260 . S
O6 Zn1 1.996 . S
O6 C13 1.257 . S
C7 O2 1.254 . S
C7 O3 1.269 . S
C8 O9 1.249 . S
C8 O10 1.270 . S
O9 Zn1 1.943 . S
O9 C8 1.249 . S
O10 Zn0 2.067 . S
O10 C8 1.270 . S
C11 O4 1.262 . S
C11 O12 1.232 . S
O12 C11 1.232 . S
C13 O5 1.260 . S
C13 O6 1.257 . S
Zn14 O17 2.031 . S
Zn14 O19 2.049 . S
Zn14 O24 2.067 . S
Zn15 O16 1.962 . S
Zn15 O18 1.986 . S
Zn15 O20 1.996 . S
Zn15 O23 1.943 . S
O16 Zn15 1.962 . S
O16 C21 1.254 . S
O17 Zn14 2.031 . S
O17 C21 1.269 . S
O18 Zn15 1.986 . S
O18 C25 1.262 . S
O19 Zn14 2.049 . S
O19 C27 1.260 . S
O20 Zn15 1.996 . S
O20 C27 1.257 . S
C21 O16 1.254 . S
C21 O17 1.269 . S
C22 O23 1.249 . S
C22 O24 1.270 . S
O23 Zn15 1.943 . S
O23 C22 1.249 . S
O24 Zn14 2.067 . S
O24 C22 1.270 . S
C25 O18 1.262 . S
C25 O26 1.232 . S
O26 C25 1.232 . S
C27 O19 1.260 . S
C27 O20 1.257 . S
Zn28 O31 2.031 . S
Zn28 O33 2.049 . S
Zn28 O38 2.067 . S
Zn29 O30 1.962 . S
Zn29 O32 1.986 . S
Zn29 O34 1.996 . S
Zn29 O37 1.943 . S
O30 Zn29 1.962 . S
O30 C35 1.254 . S
O31 Zn28 2.031 . S
O31 C35 1.269 . S
O32 Zn29 1.986 . S
O32 C39 1.262 . S
O33 Zn28 2.049 . S
O33 C41 1.260 . S
O34 Zn29 1.996 . S
O34 C41 1.257 . S
C35 O30 1.254 . S
C35 O31 1.269 . S
C36 O37 1.249 . S
C36 O38 1.270 . S
O37 Zn29 1.943 . S
O37 C36 1.249 . S
O38 Zn28 2.067 . S
O38 C36 1.270 . S
C39 O32 1.262 . S
C39 O40 1.232 . S
O40 C39 1.232 . S
C41 O33 1.260 . S
C41 O34 1.257 . S
Zn42 O45 2.031 . S
Zn42 O47 2.049 . S
Zn42 O52 2.067 . S
Zn43 O44 1.962 . S
Zn43 O46 1.986 . S
Zn43 O48 1.996 . S
Zn43 O51 1.943 . S
O44 Zn43 1.962 . S
O44 C49 1.254 . S
O45 Zn42 2.031 . S
O45 C49 1.269 . S
O46 Zn43 1.986 . S
O46 C53 1.262 . S
O47 Zn42 2.049 . S
O47 C55 1.260 . S
O48 Zn43 1.996 . S
O48 C55 1.257 . S
C49 O44 1.254 . S
C49 O45 1.269 . S
C50 O51 1.249 . S
C50 O52 1.270 . S
O51 Zn43 1.943 . S
O51 C50 1.249 . S
O52 Zn42 2.067 . S
O52 C50 1.270 . S
C53 O46 1.262 . S
C53 O54 1.232 . S
O54 C53 1.232 . S
C55 O47 1.260 . S
C55 O48 1.257 . S
Zn56 O59 2.031 . S
Zn56 O61 2.049 . S
Zn56 O66 2.067 . S
Zn57 O58 1.962 . S
Zn57 O60 1.986 . S
Zn57 O62 1.996 . S
Zn57 O65 1.943 . S
O58 Zn57 1.962 . S
O58 C63 1.254 . S
O59 Zn56 2.031 . S
O59 C63 1.269 . S
O60 Zn57 1.986 . S
O60 C67 1.262 . S
O61 Zn56 2.049 . S
O61 C69 1.260 . S
O62 Zn57 1.996 . S
O62 C69 1.257 . S
C63 O58 1.254 . S
C63 O59 1.269 . S
C64 O65 1.249 . S
C64 O66 1.270 . S
O65 Zn57 1.943 . S
O65 C64 1.249 . S
O66 Zn56 2.067 . S
O66 C64 1.270 . S
C67 O60 1.262 . S
C67 O68 1.232 . S
O68 C67 1.232 . S
C69 O61 1.260 . S
C69 O62 1.257 . S
Zn70 O73 2.031 . S
Zn70 O75 2.049 . S
Zn70 O80 2.067 . S
Zn71 O72 1.962 . S
Zn71 O74 1.986 . S
Zn71 O76 1.996 . S
Zn71 O79 1.943 . S
O72 Zn71 1.962 . S
O72 C77 1.254 . S
O73 Zn70 2.031 . S
O73 C77 1.269 . S
O74 Zn71 1.986 . S
O74 C81 1.262 . S
O75 Zn70 2.049 . S
O75 C83 1.260 . S
O76 Zn71 1.996 . S
O76 C83 1.257 . S
C77 O72 1.254 . S
C77 O73 1.269 . S
C78 O79 1.249 . S
C78 O80 1.270 . S
O79 Zn71 1.943 . S
O79 C78 1.249 . S
O80 Zn70 2.067 . S
O80 C78 1.270 . S
C81 O74 1.262 . S
C81 O82 1.232 . S
O82 C81 1.232 . S
C83 O75 1.260 . S
C83 O76 1.257 . S
H84 C96 0.930 . S
H85 C98 0.930 . S
H86 C99 0.930 . S
H87 C103 0.959 . S
H88 C103 0.959 . S
H89 C103 0.961 . S
H90 C104 0.960 . S
H91 C104 0.961 . S
H92 C104 0.959 . S
H93 C107 0.929 . S
H94 C108 0.931 . S
H95 C110 0.930 . S
C96 H84 0.930 . S
C96 C97 1.399 . S
C96 C101 1.399 . S
C97 C96 1.399 . S
C97 C98 1.376 . S
C98 H85 0.930 . S
C98 C97 1.376 . S
C98 C99 1.388 . S
C99 H86 0.930 . S
C99 C98 1.388 . S
C99 C100 1.390 . S
C100 C99 1.390 . S
C100 C101 1.394 . S
C100 C106 1.465 . S
C101 C96 1.399 . S
C101 C100 1.394 . S
C101 C102 1.516 . S
C102 C101 1.516 . S
C102 C103 1.502 . S
C102 C104 1.561 . S
C102 C105 1.526 . S
C103 H87 0.959 . S
C103 H88 0.959 . S
C103 H89 0.961 . S
C103 C102 1.502 . S
C104 H90 0.960 . S
C104 H91 0.961 . S
C104 H92 0.959 . S
C104 C102 1.561 . S
C105 C102 1.526 . S
C105 C106 1.396 . S
C105 C110 1.390 . S
C106 C100 1.465 . S
C106 C105 1.396 . S
C106 C107 1.399 . S
C107 H93 0.929 . S
C107 C106 1.399 . S
C107 C108 1.385 . S
C108 H94 0.931 . S
C108 C107 1.385 . S
C108 C109 1.389 . S
C109 C108 1.389 . S
C109 C110 1.387 . S
C110 H95 0.930 . S
C110 C105 1.390 . S
C110 C109 1.387 . S
H111 C123 0.930 . S
H112 C125 0.930 . S
H113 C126 0.930 . S
H114 C130 0.959 . S
H115 C130 0.959 . S
H116 C130 0.961 . S
H117 C131 0.960 . S
H118 C131 0.961 . S
H119 C131 0.959 . S
H120 C134 0.929 . S
H121 C135 0.931 . S
H122 C137 0.930 . S
C123 H111 0.930 . S
C123 C124 1.399 . S
C123 C128 1.399 . S
C124 C123 1.399 . S
C124 C125 1.376 . S
C125 H112 0.930 . S
C125 C124 1.376 . S
C125 C126 1.388 . S
C126 H113 0.930 . S
C126 C125 1.388 . S
C126 C127 1.390 . S
C127 C126 1.390 . S
C127 C128 1.394 . S
C127 C133 1.465 . S
C128 C123 1.399 . S
C128 C127 1.394 . S
C128 C129 1.516 . S
C129 C128 1.516 . S
C129 C130 1.502 . S
C129 C131 1.561 . S
C129 C132 1.526 . S
C130 H114 0.959 . S
C130 H115 0.959 . S
C130 H116 0.961 . S
C130 C129 1.502 . S
C131 H117 0.960 . S
C131 H118 0.961 . S
C131 H119 0.959 . S
C131 C129 1.561 . S
C132 C129 1.526 . S
C132 C133 1.396 . S
C132 C137 1.390 . S
C133 C127 1.465 . S
C133 C132 1.396 . S
C133 C134 1.399 . S
C134 H120 0.929 . S
C134 C133 1.399 . S
C134 C135 1.385 . S
C135 H121 0.931 . S
C135 C134 1.385 . S
C135 C136 1.389 . S
C136 C135 1.389 . S
C136 C137 1.387 . S
C137 H122 0.930 . S
C137 C132 1.390 . S
C137 C136 1.387 . S
H138 C150 0.930 . S
H139 C152 0.930 . S
H140 C153 0.930 . S
H141 C157 0.959 . S
H142 C157 0.959 . S
H143 C157 0.961 . S
H144 C158 0.960 . S
H145 C158 0.961 . S
H146 C158 0.959 . S
H147 C161 0.929 . S
H148 C162 0.931 . S
H149 C164 0.930 . S
C150 H138 0.930 . S
C150 C151 1.399 . S
C150 C155 1.399 . S
C151 C150 1.399 . S
C151 C152 1.376 . S
C152 H139 0.930 . S
C152 C151 1.376 . S
C152 C153 1.388 . S
C153 H140 0.930 . S
C153 C152 1.388 . S
C153 C154 1.390 . S
C154 C153 1.390 . S
C154 C155 1.394 . S
C154 C160 1.465 . S
C155 C150 1.399 . S
C155 C154 1.394 . S
C155 C156 1.516 . S
C156 C155 1.516 . S
C156 C157 1.502 . S
C156 C158 1.561 . S
C156 C159 1.526 . S
C157 H141 0.959 . S
C157 H142 0.959 . S
C157 H143 0.961 . S
C157 C156 1.502 . S
C158 H144 0.960 . S
C158 H145 0.961 . S
C158 H146 0.959 . S
C158 C156 1.561 . S
C159 C156 1.526 . S
C159 C160 1.396 . S
C159 C164 1.390 . S
C160 C154 1.465 . S
C160 C159 1.396 . S
C160 C161 1.399 . S
C161 H147 0.929 . S
C161 C160 1.399 . S
C161 C162 1.385 . S
C162 H148 0.931 . S
C162 C161 1.385 . S
C162 C163 1.389 . S
C163 C162 1.389 . S
C163 C164 1.387 . S
C164 H149 0.930 . S
C164 C159 1.390 . S
C164 C163 1.387 . S
H165 C177 0.930 . S
H166 C179 0.930 . S
H167 C180 0.930 . S
H168 C184 0.959 . S
H169 C184 0.959 . S
H170 C184 0.961 . S
H171 C185 0.960 . S
H172 C185 0.961 . S
H173 C185 0.959 . S
H174 C188 0.929 . S
H175 C189 0.931 . S
H176 C191 0.930 . S
C177 H165 0.930 . S
C177 C178 1.399 . S
C177 C182 1.399 . S
C178 C177 1.399 . S
C178 C179 1.376 . S
C179 H166 0.930 . S
C179 C178 1.376 . S
C179 C180 1.388 . S
C180 H167 0.930 . S
C180 C179 1.388 . S
C180 C181 1.390 . S
C181 C180 1.390 . S
C181 C182 1.394 . S
C181 C187 1.465 . S
C182 C177 1.399 . S
C182 C181 1.394 . S
C182 C183 1.516 . S
C183 C182 1.516 . S
C183 C184 1.502 . S
C183 C185 1.561 . S
C183 C186 1.526 . S
C184 H168 0.959 . S
C184 H169 0.959 . S
C184 H170 0.961 . S
C184 C183 1.502 . S
C185 H171 0.960 . S
C185 H172 0.961 . S
C185 H173 0.959 . S
C185 C183 1.561 . S
C186 C183 1.526 . S
C186 C187 1.396 . S
C186 C191 1.390 . S
C187 C181 1.465 . S
C187 C186 1.396 . S
C187 C188 1.399 . S
C188 H174 0.929 . S
C188 C187 1.399 . S
C188 C189 1.385 . S
C189 H175 0.931 . S
C189 C188 1.385 . S
C189 C190 1.389 . S
C190 C189 1.389 . S
C190 C191 1.387 . S
C191 H176 0.930 . S
C191 C186 1.390 . S
C191 C190 1.387 . S
H192 C204 0.930 . S
H193 C206 0.930 . S
H194 C207 0.930 . S
H195 C211 0.959 . S
H196 C211 0.959 . S
H197 C211 0.961 . S
H198 C212 0.960 . S
H199 C212 0.961 . S
H200 C212 0.959 . S
H201 C215 0.929 . S
H202 C216 0.931 . S
H203 C218 0.930 . S
C204 H192 0.930 . S
C204 C205 1.399 . S
C204 C209 1.399 . S
C205 C204 1.399 . S
C205 C206 1.376 . S
C206 H193 0.930 . S
C206 C205 1.376 . S
C206 C207 1.388 . S
C207 H194 0.930 . S
C207 C206 1.388 . S
C207 C208 1.390 . S
C208 C207 1.390 . S
C208 C209 1.394 . S
C208 C214 1.465 . S
C209 C204 1.399 . S
C209 C208 1.394 . S
C209 C210 1.516 . S
C210 C209 1.516 . S
C210 C211 1.502 . S
C210 C212 1.561 . S
C210 C213 1.526 . S
C211 H195 0.959 . S
C211 H196 0.959 . S
C211 H197 0.961 . S
C211 C210 1.502 . S
C212 H198 0.960 . S
C212 H199 0.961 . S
C212 H200 0.959 . S
C212 C210 1.561 . S
C213 C210 1.526 . S
C213 C214 1.396 . S
C213 C218 1.390 . S
C214 C208 1.465 . S
C214 C213 1.396 . S
C214 C215 1.399 . S
C215 H201 0.929 . S
C215 C214 1.399 . S
C215 C216 1.385 . S
C216 H202 0.931 . S
C216 C215 1.385 . S
C216 C217 1.389 . S
C217 C216 1.389 . S
C217 C218 1.387 . S
C218 H203 0.930 . S
C218 C213 1.390 . S
C218 C217 1.387 . S
H219 C231 0.930 . S
H220 C233 0.930 . S
H221 C234 0.930 . S
H222 C238 0.959 . S
H223 C238 0.959 . S
H224 C238 0.961 . S
H225 C239 0.960 . S
H226 C239 0.961 . S
H227 C239 0.959 . S
H228 C242 0.929 . S
H229 C243 0.931 . S
H230 C245 0.930 . S
C231 H219 0.930 . S
C231 C232 1.399 . S
C231 C236 1.399 . S
C232 C231 1.399 . S
C232 C233 1.376 . S
C233 H220 0.930 . S
C233 C232 1.376 . S
C233 C234 1.388 . S
C234 H221 0.930 . S
C234 C233 1.388 . S
C234 C235 1.390 . S
C235 C234 1.390 . S
C235 C236 1.394 . S
C235 C241 1.465 . S
C236 C231 1.399 . S
C236 C235 1.394 . S
C236 C237 1.516 . S
C237 C236 1.516 . S
C237 C238 1.502 . S
C237 C239 1.561 . S
C237 C240 1.526 . S
C238 H222 0.959 . S
C238 H223 0.959 . S
C238 H224 0.961 . S
C238 C237 1.502 . S
C239 H225 0.960 . S
C239 H226 0.961 . S
C239 H227 0.959 . S
C239 C237 1.561 . S
C240 C237 1.526 . S
C240 C241 1.396 . S
C240 C245 1.390 . S
C241 C235 1.465 . S
C241 C240 1.396 . S
C241 C242 1.399 . S
C242 H228 0.929 . S
C242 C241 1.399 . S
C242 C243 1.385 . S
C243 H229 0.931 . S
C243 C242 1.385 . S
C243 C244 1.389 . S
C244 C243 1.389 . S
C244 C245 1.387 . S
C245 H230 0.930 . S
C245 C240 1.390 . S
C245 C244 1.387 . S
H246 C258 0.930 . S
H247 C260 0.930 . S
H248 C261 0.930 . S
H249 C265 0.959 . S
H250 C265 0.959 . S
H251 C265 0.961 . S
H252 C266 0.960 . S
H253 C266 0.961 . S
H254 C266 0.959 . S
H255 C269 0.929 . S
H256 C270 0.931 . S
H257 C272 0.930 . S
C258 H246 0.930 . S
C258 C259 1.399 . S
C258 C263 1.399 . S
C259 C258 1.399 . S
C259 C260 1.376 . S
C260 H247 0.930 . S
C260 C259 1.376 . S
C260 C261 1.388 . S
C261 H248 0.930 . S
C261 C260 1.388 . S
C261 C262 1.390 . S
C262 C261 1.390 . S
C262 C263 1.394 . S
C262 C268 1.460 1_566 S
C263 C258 1.399 . S
C263 C262 1.394 . S
C263 C264 1.516 1_565 S
C264 C263 1.516 1_545 S
C264 C265 1.502 . S
C264 C266 1.561 . S
C264 C267 1.526 1_556 S
C265 H249 0.959 . S
C265 H250 0.959 . S
C265 H251 0.961 . S
C265 C264 1.502 . S
C266 H252 0.960 . S
C266 H253 0.961 . S
C266 H254 0.959 . S
C266 C264 1.561 . S
C267 C264 1.526 1_554 S
C267 C268 1.401 . S
C267 C272 1.390 . S
C268 C262 1.460 1_544 S
C268 C267 1.401 . S
C268 C269 1.400 1_545 S
C269 H255 0.929 . S
C269 C268 1.400 1_565 S
C269 C270 1.385 1_565 S
C270 H256 0.931 . S
C270 C269 1.385 1_545 S
C270 C271 1.389 . S
C271 C270 1.389 . S
C271 C272 1.387 . S
C272 H257 0.930 . S
C272 C267 1.390 . S
C272 C271 1.387 . S
H273 C285 0.930 . S
H274 C287 0.930 . S
H275 C288 0.930 . S
H276 C292 0.959 . S
H277 C292 0.959 . S
H278 C292 0.961 . S
H279 C293 0.960 . S
H280 C293 0.961 . S
H281 C293 0.959 . S
H282 C296 0.929 . S
H283 C297 0.931 . S
H284 C299 0.930 . S
C285 H273 0.930 . S
C285 C286 1.399 . S
C285 C290 1.399 . S
C286 C285 1.399 . S
C286 C287 1.376 . S
C287 H274 0.930 . S
C287 C286 1.376 . S
C287 C288 1.388 . S
C288 H275 0.930 . S
C288 C287 1.388 . S
C288 C289 1.390 . S
C289 C288 1.390 . S
C289 C290 1.394 . S
C289 C295 1.465 . S
C290 C285 1.399 . S
C290 C289 1.394 . S
C290 C291 1.516 . S
C291 C290 1.516 . S
C291 C292 1.502 . S
C291 C293 1.561 . S
C291 C294 1.526 . S
C292 H276 0.959 . S
C292 H277 0.959 . S
C292 H278 0.961 . S
C292 C291 1.502 . S
C293 H279 0.960 . S
C293 H280 0.961 . S
C293 H281 0.959 . S
C293 C291 1.561 . S
C294 C291 1.526 . S
C294 C295 1.396 . S
C294 C299 1.390 . S
C295 C289 1.465 . S
C295 C294 1.396 . S
C295 C296 1.399 . S
C296 H282 0.929 . S
C296 C295 1.399 . S
C296 C297 1.385 . S
C297 H283 0.931 . S
C297 C296 1.385 . S
C297 C298 1.389 . S
C298 C297 1.389 . S
C298 C299 1.387 . S
C299 H284 0.930 . S
C299 C294 1.390 . S
C299 C298 1.387 . S
H300 C312 0.930 . S
H301 C314 0.930 . S
H302 C315 0.930 . S
H303 C319 0.959 . S
H304 C319 0.959 . S
H305 C319 0.961 . S
H306 C320 0.960 . S
H307 C320 0.961 . S
H308 C320 0.959 . S
H309 C323 0.929 . S
H310 C324 0.931 . S
H311 C326 0.930 . S
C312 H300 0.930 . S
C312 C313 1.399 . S
C312 C317 1.399 . S
C313 C312 1.399 . S
C313 C314 1.376 . S
C314 H301 0.930 . S
C314 C313 1.376 . S
C314 C315 1.388 . S
C315 H302 0.930 . S
C315 C314 1.388 . S
C315 C316 1.390 . S
C316 C315 1.390 . S
C316 C317 1.394 . S
C316 C322 1.465 1_556 S
C317 C312 1.399 . S
C317 C316 1.394 . S
C317 C318 1.516 1_455 S
C318 C317 1.516 1_655 S
C318 C319 1.502 . S
C318 C320 1.561 . S
C318 C321 1.526 1_556 S
C319 H303 0.959 . S
C319 H304 0.959 . S
C319 H305 0.961 . S
C319 C318 1.502 . S
C320 H306 0.960 . S
C320 H307 0.961 . S
C320 H308 0.959 . S
C320 C318 1.561 . S
C321 C318 1.526 1_554 S
C321 C322 1.396 1_655 S
C321 C326 1.390 . S
C322 C316 1.465 1_554 S
C322 C321 1.396 1_455 S
C322 C323 1.399 . S
C323 H309 0.929 . S
C323 C322 1.399 . S
C323 C324 1.385 1_455 S
C324 H310 0.931 . S
C324 C323 1.385 1_655 S
C324 C325 1.389 . S
C325 C324 1.389 . S
C325 C326 1.387 . S
C326 H311 0.930 . S
C326 C321 1.390 . S
C326 C325 1.387 . S
H327 C339 0.930 . S
H328 C341 0.930 . S
H329 C342 0.930 . S
H330 C346 0.959 . S
H331 C346 0.959 . S
H332 C346 0.961 . S
H333 C347 0.960 . S
H334 C347 0.961 . S
H335 C347 0.959 . S
H336 C350 0.929 . S
H337 C351 0.931 . S
H338 C353 0.930 . S
C339 H327 0.930 . S
C339 C340 1.399 . S
C339 C344 1.399 . S
C340 C339 1.399 . S
C340 C341 1.376 . S
C341 H328 0.930 . S
C341 C340 1.376 . S
C341 C342 1.388 1_545 S
C342 H329 0.930 . S
C342 C341 1.388 1_565 S
C342 C343 1.390 1_565 S
C343 C342 1.390 1_545 S
C343 C344 1.394 . S
C343 C349 1.465 1_545 S
C344 C339 1.399 . S
C344 C343 1.394 . S
C344 C345 1.516 . S
C345 C344 1.516 . S
C345 C346 1.502 . S
C345 C347 1.561 . S
C345 C348 1.526 1_545 S
C346 H330 0.959 . S
C346 H331 0.959 . S
C346 H332 0.961 . S
C346 C345 1.502 . S
C347 H333 0.960 . S
C347 H334 0.961 . S
C347 H335 0.959 . S
C347 C345 1.561 . S
C348 C345 1.526 1_565 S
C348 C349 1.396 . S
C348 C353 1.390 . S
C349 C343 1.465 1_565 S
C349 C348 1.396 . S
C349 C350 1.399 . S
C350 H336 0.929 . S
C350 C349 1.399 . S
C350 C351 1.385 . S
C351 H337 0.931 . S
C351 C350 1.385 . S
C351 C352 1.389 . S
C352 C351 1.389 . S
C352 C353 1.387 . S
C353 H338 0.930 . S
C353 C348 1.390 . S
C353 C352 1.387 . S
H354 C366 0.930 . S
H355 C368 0.930 . S
H356 C369 0.930 1_554 S
H357 C373 0.959 . S
H358 C373 0.959 . S
H359 C373 0.961 . S
H360 C374 0.960 1_556 S
H361 C374 0.961 . S
H362 C374 0.959 . S
H363 C377 0.929 . S
H364 C378 0.931 . S
H365 C380 0.930 . S
C366 H354 0.930 . S
C366 C367 1.399 . S
C366 C371 1.399 . S
C367 C366 1.399 . S
C367 C368 1.376 . S
C368 H355 0.930 . S
C368 C367 1.376 . S
C368 C369 1.388 . S
C369 H356 0.930 1_556 S
C369 C368 1.388 . S
C369 C370 1.390 . S
C370 C369 1.390 . S
C370 C371 1.394 . S
C370 C376 1.465 1_556 S
C371 C366 1.399 . S
C371 C370 1.394 . S
C371 C372 1.516 . S
C372 C371 1.516 . S
C372 C373 1.502 . S
C372 C374 1.561 1_556 S
C372 C375 1.526 1_556 S
C373 H357 0.959 . S
C373 H358 0.959 . S
C373 H359 0.961 . S
C373 C372 1.502 . S
C374 H360 0.960 1_554 S
C374 H361 0.961 . S
C374 H362 0.959 . S
C374 C372 1.561 1_554 S
C375 C372 1.526 1_554 S
C375 C376 1.396 . S
C375 C380 1.390 . S
C376 C370 1.465 1_554 S
C376 C375 1.396 . S
C376 C377 1.399 . S
C377 H363 0.929 . S
C377 C376 1.399 . S
C377 C378 1.385 . S
C378 H364 0.931 . S
C378 C377 1.385 . S
C378 C379 1.389 . S
C379 C378 1.389 . S
C379 C380 1.387 . S
C380 H365 0.930 . S
C380 C375 1.390 . S
C380 C379 1.387 . S
H381 C393 0.930 . S
H382 C395 0.930 . S
H383 C396 0.930 . S
H384 C400 0.959 . S
H385 C400 0.959 . S
H386 C400 0.961 . S
H387 C401 0.960 . S
H388 C401 0.961 . S
H389 C401 0.960 . S
H390 C404 0.929 . S
H391 C405 0.931 . S
H392 C407 0.930 . S
C393 H381 0.930 . S
C393 C394 1.399 . S
C393 C398 1.409 . S
C394 C393 1.399 . S
C394 C395 1.376 . S
C395 H382 0.930 . S
C395 C394 1.376 . S
C395 C396 1.388 . S
C396 H383 0.930 . S
C396 C395 1.388 . S
C396 C397 1.390 . S
C397 C396 1.390 . S
C397 C398 1.413 . S
C397 C403 1.465 1_455 S
C398 C393 1.409 . S
C398 C397 1.413 . S
C398 C399 1.489 1_455 S
C399 C398 1.489 1_655 S
C399 C400 1.502 . S
C399 C401 1.561 . S
C399 C402 1.526 . S
C400 H384 0.959 . S
C400 H385 0.959 . S
C400 H386 0.961 . S
C400 C399 1.502 . S
C401 H387 0.960 . S
C401 H388 0.961 . S
C401 H389 0.960 . S
C401 C399 1.561 . S
C402 C399 1.526 . S
C402 C403 1.396 . S
C402 C407 1.390 . S
C403 C397 1.465 1_655 S
C403 C402 1.396 . S
C403 C404 1.399 1_655 S
C404 H390 0.929 . S
C404 C403 1.399 1_455 S
C404 C405 1.385 1_455 S
C405 H391 0.931 . S
C405 C404 1.385 1_655 S
C405 C406 1.389 . S
C406 C405 1.389 . S
C406 C407 1.387 . S
C407 H392 0.930 . S
C407 C402 1.390 . S
C407 C406 1.387 . S
C97 C7 1.064 . S
C109 C64 1.061 . S
C124 C21 1.050 . S
C136 C77 1.039 . S
C151 C8 0.992 . S
C163 C36 1.007 . S
C178 C50 1.068 . S
C190 C22 1.003 . S
C205 C63 0.993 . S
C217 C35 0.968 . S
C232 C49 0.971 . S
C244 C78 0.983 . S
C259 C55 1.238 . S
C271 C13 1.307 . S
C286 C67 1.400 . S
C298 C27 1.265 . S
C313 C83 1.236 . S
C325 C39 1.395 . S
C340 C11 1.374 . S
C352 C53 1.360 . S
C367 C25 1.365 . S
C379 C69 1.323 . S
C394 C81 1.376 . S
C406 C41 1.350 . S
