# Generated by pormake.
# Topology reo, (8)-cn, num edge types: 1
# Building blocks:
#     Node 0, Type 0, BuildingBlock: VETTIZ_charged_sbu_0, # of connection points: 8
#     Node 1, Type 0, BuildingBlock: VETTIZ_charged_sbu_0, # of connection points: 8
#     Node 2, Type 0, BuildingBlock: VETTIZ_charged_sbu_0, # of connection points: 8
#     Edge 3, Type (0, 0), BuildingBlock: XUDNAN_clean_linker_2, # of connection points: 2
#     Edge 4, Type (0, 0), BuildingBlock: XUDNAN_clean_linker_2, # of connection points: 2
#     Edge 5, Type (0, 0), BuildingBlock: XUDNAN_clean_linker_2, # of connection points: 2
#     Edge 6, Type (0, 0), BuildingBlock: XUDNAN_clean_linker_2, # of connection points: 2
#     Edge 7, Type (0, 0), BuildingBlock: XUDNAN_clean_linker_2, # of connection points: 2
#     Edge 8, Type (0, 0), BuildingBlock: XUDNAN_clean_linker_2, # of connection points: 2
#     Edge 9, Type (0, 0), BuildingBlock: XUDNAN_clean_linker_2, # of connection points: 2
#     Edge 10, Type (0, 0), BuildingBlock: XUDNAN_clean_linker_2, # of connection points: 2
#     Edge 11, Type (0, 0), BuildingBlock: XUDNAN_clean_linker_2, # of connection points: 2
#     Edge 12, Type (0, 0), BuildingBlock: XUDNAN_clean_linker_2, # of connection points: 2
#     Edge 13, Type (0, 0), BuildingBlock: XUDNAN_clean_linker_2, # of connection points: 2
#     Edge 14, Type (0, 0), BuildingBlock: XUDNAN_clean_linker_2, # of connection points: 2
# Relax obj value: 0.145
# Max RMSD: 0.165
# Mean RMSD: 0.165
data_MOF--net-reo--node1-VETTIZ_charged_sbu_0--edge1-XUDNAN_clean_linker_2
_symmetry_space_group_name_H-M    P1
_symmetry_Int_Tables_number       1
_symmetry_cell_setting            triclinic
loop_
_symmetry_equiv_pos_as_xyz
'x, y, z'
_cell_length_a     23.368962
_cell_length_b     24.517059
_cell_length_c     22.864029
_cell_angle_alpha  88.785094
_cell_angle_beta   90.149562
_cell_angle_gamma 90.476305
loop_
_atom_site_label
_atom_site_type_symbol
_atom_site_fract_x
_atom_site_fract_y
_atom_site_fract_z
_atom_type_partial_charge
Fe0 Fe 0.00999 -0.00962 0.44811 0.0
O1 O 0.99642 0.03721 0.51712 0.0
Fe2 Fe 0.07546 0.87657 0.51409 0.0
Fe3 Fe 0.93518 0.09138 0.52079 0.0
O4 O 0.01338 0.93035 0.50918 0.0
O5 O 0.01204 0.92928 0.51549 0.0
O6 O 0.99491 0.03616 0.52297 0.0
Fe7 Fe 0.99905 0.97682 0.58401 0.0
C8 C 1.00234 0.11242 0.40854 0.0
O9 O 0.92254 0.97653 0.43667 0.0
O10 O 0.88986 0.06035 0.45161 0.0
O11 O 1.00412 0.90645 0.63861 0.0
O12 O 0.02441 0.83729 0.57478 0.0
O13 O 0.03559 0.85084 0.43847 0.0
O14 O 0.02408 0.93143 0.38484 0.0
O15 O 0.8815 0.0488 0.57718 0.0
O16 O 0.91168 0.96264 0.58169 0.0
C17 C 0.02564 0.87842 0.39027 0.0
O18 O 0.08551 -0.00803 0.59164 0.0
O19 O 0.11924 0.90789 0.58608 0.0
O20 O 1.00601 0.06128 0.39424 0.0
O21 O 0.98562 0.12981 0.45889 0.0
C22 C 0.88368 0.01266 0.43133 0.0
C23 C 0.87345 -0.0015 0.58971 0.0
C24 C 0.98792 0.08887 0.6424 0.0
O25 O 0.97769 0.11647 0.59442 0.0
O26 O 0.98728 0.03585 0.64775 0.0
C27 C 0.00736 0.85518 0.62477 0.0
O28 O 0.12966 0.91991 0.45906 0.0
O29 O 0.09734 0.00516 0.45234 0.0
C30 C 0.1238 0.95686 0.60319 0.0
C31 C 0.13655 0.97009 0.44539 0.0
Fe32 Fe 0.43922 -0.00306 0.02197 0.0
O33 O 0.49196 0.93305 0.02408 0.0
Fe34 Fe 0.52207 0.09816 0.9531 0.0
Fe35 Fe 0.48855 0.87465 0.0843 0.0
O36 O 0.51148 0.04018 1.01284 0.0
O37 O 0.51675 0.03914 1.01154 0.0
O38 O 0.49761 0.93199 0.02308 0.0
Fe39 Fe 0.56948 0.97584 1.01533 0.0
C40 C 0.4292 0.96761 0.14965 0.0
O41 O 0.37066 0.94202 0.02942 0.0
O42 O 0.41439 0.85787 0.03883 0.0
O43 O 0.56981 0.96802 0.92554 0.0
O44 O 0.57348 0.05564 0.89674 0.0
O45 O 0.45107 0.07567 0.90415 0.0
O46 O 0.43025 -0.00967 0.93228 0.0
O47 O 0.54505 0.83616 0.03083 0.0
O48 O 0.61455 0.90288 0.01846 0.0
C49 C 0.42591 0.03004 0.89575 0.0
O50 O 0.63842 0.03023 1.00979 0.0
O51 O 0.59573 0.11472 0.9998 0.0
O52 O 0.44168 0.0046 0.1118 0.0
O53 O 0.43727 0.91721 0.14065 0.0
C54 C 0.37136 0.88914 0.02536 0.0
C55 C 0.59533 0.85312 1.01427 0.0
C56 C 0.58157 0.9447 0.14113 0.0
O57 O 0.56045 0.89742 0.13283 0.0
O58 O 0.57437 -0.01624 0.1046 0.0
C59 C 0.58202 0.00525 0.8878 0.0
O60 O 0.46575 0.13603 1.00728 0.0
O61 O 0.39481 0.07083 0.02115 0.0
C62 C 0.6382 0.08301 1.01341 0.0
C63 C 0.41578 0.12001 0.02588 0.0
Fe64 Fe 0.01534 0.42561 0.03682 0.0
O65 O 0.94845 0.4752 0.02891 0.0
Fe66 Fe 0.11558 0.48026 0.93838 0.0
Fe67 Fe 0.89571 0.48814 0.09438 0.0
O68 O 0.06178 0.48737 1.00351 0.0
O69 O 0.06115 0.49144 1.00198 0.0
O70 O 0.94797 0.47948 0.02781 0.0
Fe71 Fe 0.99453 0.54088 0.99381 0.0
C72 C 0.9026 0.36656 0.07561 0.0
O73 O 0.0321 0.45352 0.11865 0.0
O74 O 0.94585 0.44865 0.15673 0.0
O75 O 0.05017 0.60037 0.96038 0.0
O76 O 0.13884 0.5596 0.95798 0.0
O77 O 0.16089 0.4379 1.00254 0.0
O78 O 0.09058 0.38141 0.04237 0.0
O79 O 0.92794 0.56325 0.11817 0.0
O80 O 0.01253 0.57084 0.07432 0.0
C81 C 0.14355 0.39627 0.03436 0.0
O82 O 0.97788 0.51367 0.9114 0.0
O83 O 0.06538 0.51803 0.87536 0.0
O84 O 0.95806 0.36625 0.06979 0.0
O85 O 0.87045 0.4097 0.07544 0.0
C86 C 0.99944 0.44022 0.1607 0.0
C87 C 0.97666 0.58614 0.11189 0.0
C88 C 0.86684 0.57217 0.99844 0.0
O89 O 0.84944 0.53152 0.03161 0.0
O90 O 0.91993 0.58527 0.98869 0.0
C91 C 0.1056 0.6021 0.95657 0.0
O92 O 0.08518 0.40481 0.91437 0.0
O93 O 0.99924 0.39548 0.95602 0.0
C94 C 0.01179 0.52601 0.86983 0.0
C95 C 0.03679 0.38104 0.91963 0.0
H96 H 0.93981 0.39643 0.25311 0.0
H97 H 0.10102 0.38362 0.16075 0.0
H98 H 0.11986 0.29608 0.21227 0.0
H99 H 0.9896 0.33596 0.39271 0.0
H100 H 0.92163 0.30254 0.40541 0.0
H101 H 0.92473 0.36616 0.36468 0.0
H102 H 0.871 0.32044 0.27888 0.0
H103 H 0.8691 0.25639 0.31869 0.0
H104 H 0.90055 0.2603 0.24685 0.0
H105 H 0.11452 0.20299 0.26668 0.0
H106 H 0.0926 0.12224 0.33103 0.0
H107 H 0.93697 0.20018 0.38739 0.0
C108 C 0.97991 0.37619 0.24481 0.0
C109 C 0.01852 0.3968 0.20231 0.0
C110 C 0.07045 0.36865 0.19283 0.0
C111 C 0.08145 0.31863 0.2217 0.0
C112 C 0.04066 0.29792 0.26078 0.0
C113 C 0.99166 0.32668 0.27338 0.0
C114 C 0.95372 0.29559 0.31594 0.0
C115 C 0.94707 0.32692 0.37307 0.0
C116 C 0.89515 0.28243 0.28841 0.0
C117 C 0.98865 0.24463 0.3251 0.0
C118 C 0.03843 0.24603 0.29264 0.0
C119 C 0.07602 0.20189 0.29292 0.0
C120 C 0.06308 0.15607 0.32894 0.0
C121 C 0.0134 0.15552 0.36417 0.0
C122 C 0.9756 0.19996 0.36126 0.0
H123 H 0.86057 0.93433 0.34701 0.0
H124 H 0.78358 0.06675 0.44167 0.0
H125 H 0.69643 0.05855 0.38245 0.0
H126 H 0.80611 0.97221 0.20802 0.0
H127 H 0.79198 0.90392 0.18374 0.0
H128 H 0.84739 0.91591 0.23691 0.0
H129 H 0.7998 0.8461 0.30818 0.0
H130 H 0.7442 0.83366 0.2552 0.0
H131 H 0.72575 0.85419 0.32796 0.0
H132 H 0.62229 0.04499 0.30676 0.0
H133 H 0.56173 0.02102 0.22207 0.0
H134 H 0.68071 0.89395 0.17726 0.0
C135 C 0.82486 0.9607 0.35605 0.0
C136 C 0.82937 0.00137 0.39911 0.0
C137 C 0.78175 0.03556 0.40884 0.0
C138 C 0.73173 0.03118 0.37547 0.0
C139 C 0.72916 -0.00797 0.33243 0.0
C140 C 0.77397 0.95683 0.32287 0.0
C141 C 0.76024 0.92007 0.27173 0.0
C142 C 0.80404 0.92856 0.22218 0.0
C143 C 0.75731 0.85993 0.292 0.0
C144 C 0.70141 0.94102 0.25369 0.0
C145 C 0.6846 -0.01733 0.28945 0.0
C146 C 0.6343 0.01166 0.27918 0.0
C147 C 0.60023 -0.00208 0.23102 0.0
C148 C 0.61598 0.95506 0.19418 0.0
C149 C 0.66699 0.92589 0.20595 0.0
H150 H 0.95768 0.78936 0.37767 0.0
H151 H 0.07848 0.8948 0.28536 0.0
H152 H 0.07687 0.8323 0.2015 0.0
H153 H 0.01109 0.66509 0.33648 0.0
H154 H 0.94285 0.63165 0.32671 0.0
H155 H 0.94953 0.68682 0.37698 0.0
H156 H 0.86868 0.73938 0.32287 0.0
H157 H 0.86099 0.68395 0.27284 0.0
H158 H 0.87416 0.7523 0.24519 0.0
H159 H 0.07208 0.75202 0.13514 0.0
H160 H 0.05366 0.6665 0.08318 0.0
H161 H 0.92993 0.61714 0.21572 0.0
C162 C 0.98284 0.79965 0.3392 0.0
C163 C 0.01827 0.84641 0.33742 0.0
C164 C 0.05075 0.85915 0.28683 0.0
C165 C 0.05027 0.82386 0.23935 0.0
C166 C 0.016 0.77707 0.24307 0.0
C167 C 0.98173 0.76568 0.29105 0.0
C168 C 0.94924 0.71255 0.2845 0.0
C169 C 0.96411 0.67163 0.33411 0.0
C170 C 0.88443 0.72266 0.28113 0.0
C171 C 0.97247 0.69453 0.22645 0.0
C172 C 0.01103 0.73222 0.20336 0.0
C173 C 0.04107 0.72277 0.15212 0.0
C174 C 0.03062 0.67391 0.12319 0.0
C175 C 0.98997 0.6355 0.14518 0.0
C176 C 0.96067 0.64609 0.19752 0.0
H177 H 0.32749 0.02107 0.1627 0.0
H178 H 0.46369 0.94165 0.25994 0.0
H179 H 0.40798 0.9493 0.35115 0.0
H180 H 0.2754 0.11238 0.28399 0.0
H181 H 0.20189 0.10218 0.26244 0.0
H182 H 0.25797 0.10115 0.20838 0.0
H183 H 0.22212 0.00564 0.17706 0.0
H184 H 0.16738 0.00619 0.23214 0.0
H185 H 0.21785 0.95103 0.23102 0.0
H186 H 0.33305 0.95178 0.42772 0.0
H187 H 0.24311 0.94643 0.48405 0.0
H188 H 0.15242 0.0232 0.33925 0.0
C189 C 0.34635 0.00751 0.20377 0.0
C190 C 0.40053 0.98207 0.20483 0.0
C191 C 0.42283 0.96222 0.25863 0.0
C192 C 0.39145 0.96646 0.31059 0.0
C193 C 0.33742 -0.00972 0.30808 0.0
C194 C 0.31494 0.01064 0.2561 0.0
C195 C 0.253 0.02771 0.26422 0.0
C196 C 0.24667 0.08954 0.25418 0.0
C197 C 0.21275 -0.00429 0.22372 0.0
C198 C 0.24355 0.01176 0.32818 0.0
C199 C 0.29328 -0.0088 0.35278 0.0
C200 C 0.29427 0.96895 0.40941 0.0
C201 C 0.24301 0.96614 0.44117 0.0
C202 C 0.19126 -0.01436 0.41662 0.0
C203 C 0.19186 0.00998 0.35988 0.0
H204 H 0.08091 0.77802 0.66055 0.0
H205 H 0.90845 0.83566 0.68707 0.0
H206 H 0.8869 0.75268 0.74812 0.0
H207 H 0.05004 0.64 0.64593 0.0
H208 H 0.11187 0.61591 0.68574 0.0
H209 H 0.11437 0.68105 0.64799 0.0
H210 H 0.14251 0.72926 0.74418 0.0
H211 H 0.14207 0.66396 0.78167 0.0
H212 H 0.099 0.7186 0.80847 0.0
H213 H 0.88438 0.65876 0.80124 0.0
H214 H 0.90509 0.57205 0.85439 0.0
H215 H 0.07946 0.57882 0.78935 0.0
C216 C 0.03892 0.77354 0.68017 0.0
C217 C 0.99625 0.81273 0.66962 0.0
C218 C 0.94172 0.80598 0.69553 0.0
C219 C 0.92909 0.75885 0.7296 0.0
C220 C 0.9718 0.71971 0.73739 0.0
C221 C 0.02602 0.72747 0.71444 0.0
C222 C 0.06496 0.68037 0.7294 0.0
C223 C 0.08655 0.65272 0.67395 0.0
C224 C 0.11506 0.69917 0.76823 0.0
C225 C 0.02395 0.64383 0.7631 0.0
C226 C 0.97041 0.6669 0.76751 0.0
C227 C 0.92631 0.64061 0.79828 0.0
C228 C 0.93832 0.59107 0.82787 0.0
C229 C 0.99403 0.56854 0.82648 0.0
C230 C 0.03632 0.59446 0.79142 0.0
H231 H 0.3576 0.94189 0.86282 0.0
H232 H 0.40497 0.10783 0.81125 0.0
H233 H 0.33636 0.10466 0.72986 0.0
H234 H 0.33806 0.89215 0.71308 0.0
H235 H 0.27755 0.84937 0.73224 0.0
H236 H 0.33212 0.86303 0.78593 0.0
H237 H 0.25556 0.89897 0.85621 0.0
H238 H 0.20063 0.88557 0.80293 0.0
H239 H 0.20879 0.95304 0.83184 0.0
H240 H 0.25806 0.08766 0.65887 0.0
H241 H 0.17797 0.0551 0.59798 0.0
H242 H 0.18225 0.89822 0.68925 0.0
C243 C 0.35411 0.97731 0.83396 0.0
C244 C 0.38713 0.0252 0.84392 0.0
C245 C 0.3806 0.07063 0.80506 0.0
C246 C 0.34155 0.0693 0.75846 0.0
C247 C 0.30929 0.02207 0.7504 0.0
C248 C 0.31537 0.97658 0.78654 0.0
C249 C 0.27439 0.93136 0.76812 0.0
C250 C 0.30753 0.88101 0.74867 0.0
C251 C 0.23235 0.91639 0.81773 0.0
C252 C 0.24395 0.95906 0.71658 0.0
C253 C 0.26483 0.01146 0.70755 0.0
C254 C 0.24188 0.04645 0.66492 0.0
C255 C 0.19629 0.02764 0.63059 0.0
C256 C 0.17432 0.974 0.63824 0.0
C257 C 0.19896 0.93908 0.68157 0.0
H258 H 0.06376 0.36143 0.80627 0.0
H259 H 0.99045 0.28706 0.96274 0.0
H260 H 0.97659 0.20035 0.91073 0.0
H261 H 0.96877 0.29945 0.70563 0.0
H262 H 0.02241 0.29084 0.65014 0.0
H263 H 0.0292 0.34554 0.70098 0.0
H264 H 0.12991 0.31079 0.73089 0.0
H265 H 0.12311 0.25559 0.68047 0.0
H266 H 0.13813 0.24126 0.7566 0.0
H267 H 0.96896 0.12273 0.84127 0.0
H268 H 0.96112 0.06219 0.75614 0.0
H269 H 0.03821 0.18872 0.64578 0.0
C270 C 0.0448 0.32676 0.82938 0.0
C271 C 0.02696 0.33066 0.88783 0.0
C272 C 1.00245 0.28485 0.91719 0.0
C273 C 0.99527 0.23544 0.88843 0.0
C274 C 0.01289 0.23284 0.83051 0.0
C275 C 0.03678 0.27738 0.80117 0.0
C276 C 0.04938 0.26478 0.73821 0.0
C277 C 0.01539 0.30237 0.69629 0.0
C278 C 0.11398 0.26831 0.72585 0.0
C279 C 0.02788 0.20656 0.73651 0.0
C280 C 0.00792 0.18844 0.79035 0.0
C281 C 0.98473 0.13628 0.79889 0.0
C282 C 0.98067 0.10217 0.75054 0.0
C283 C 0.99888 0.12107 0.69468 0.0
C284 C 0.02372 0.17343 0.68805 0.0
H285 H 0.68641 0.95701 0.87617 0.0
H286 H 0.54615 0.02696 0.77681 0.0
H287 H 0.60178 0.01817 0.68554 0.0
H288 H 0.79251 0.02912 0.80205 0.0
H289 H 0.84533 0.97596 0.80421 0.0
H290 H 0.79103 0.9778 0.8597 0.0
H291 H 0.76056 0.8794 0.8357 0.0
H292 H 0.81461 0.87682 0.77973 0.0
H293 H 0.74082 0.86261 0.76194 0.0
H294 H 0.67669 0.01466 0.60817 0.0
H295 H 0.76613 0.01889 0.55068 0.0
H296 H 0.85968 0.95118 0.69853 0.0
C297 C 0.66671 0.96814 0.83475 0.0
C298 C 0.61133 -0.00898 0.83298 0.0
C299 C 0.58796 0.0082 0.77864 0.0
C300 C 0.61928 0.00331 0.72669 0.0
C301 C 0.67431 0.98167 0.72982 0.0
C302 C 0.69794 0.96432 0.78247 0.0
C303 C 0.76042 0.94917 0.77476 0.0
C304 C 0.79961 -0.01484 0.8124 0.0
C305 C 0.76964 0.88834 0.78882 0.0
C306 C 0.76855 0.96172 0.70994 0.0
C307 C 0.71807 0.9799 0.68479 0.0
C308 C 0.71603 -0.00079 0.62699 0.0
C309 C 0.76695 0.00133 0.59456 0.0
C310 C 0.81925 -0.0162 0.61961 0.0
C311 C 0.81976 0.96262 0.67763 0.0
H312 H 0.13665 0.28674 0.04946 0.0
H313 H 0.24912 0.42582 0.07417 0.0
H314 H 0.32727 0.36385 0.10294 0.0
H315 H 0.20912 0.1892 0.16319 0.0
H316 H 0.19859 0.1327 0.11497 0.0
H317 H 0.14646 0.18647 0.11727 0.0
H318 H 0.15625 0.20158 1.00531 0.0
H319 H 0.20835 0.14855 1.00246 0.0
H320 H 0.22589 0.21595 0.97454 0.0
H321 H 0.39641 0.29134 0.10451 0.0
H322 H 0.45402 0.21449 0.07285 0.0
H323 H 0.29934 0.12011 0.04159 0.0
C324 C 0.1771 0.30398 0.06353 0.0
C325 C 0.18725 0.36069 0.06009 0.0
C326 C 0.24089 0.38228 0.07668 0.0
C327 C 0.28515 0.34742 0.09379 0.0
C328 C 0.27485 0.2913 0.09385 0.0
C329 C 0.22198 0.26957 0.07935 0.0
C330 C 0.22517 0.20863 0.07049 0.0
C331 C 0.19295 0.17739 0.11941 0.0
C332 C 0.20265 0.19284 1.0096 0.0
C333 C 0.28906 0.20061 0.076 0.0
C334 C 0.31635 0.24828 0.09242 0.0
C335 C 0.3756 0.25345 0.093 0.0
C336 C 0.40791 0.20972 0.07409 0.0
C337 C 0.3809 0.1617 0.05389 0.0
C338 C 0.32091 0.15623 0.0573 0.0
H339 H 0.21471 0.62714 0.92261 0.0
H340 H 0.05627 0.70046 0.979 0.0
H341 H 0.10472 0.78968 0.98441 0.0
H342 H 0.30203 0.68699 1.01439 0.0
H343 H 0.36158 0.69894 0.96567 0.0
H344 H 0.3119 0.64468 0.95168 0.0
H345 H 0.29196 0.68513 0.8478 0.0
H346 H 0.34237 0.73955 0.86139 0.0
H347 H 0.27014 0.75522 0.83941 0.0
H348 H 0.17417 0.86516 1.00394 0.0
H349 H 0.2587 0.91947 0.03424 0.0
H350 H 0.37017 0.79718 0.96285 0.0
C351 C 0.18985 0.66225 0.93457 0.0
C352 C 0.13218 0.65668 0.95134 0.0
C353 C 0.10083 0.70362 0.9664 0.0
C354 C 0.1278 0.75468 0.96908 0.0
C355 C 0.18557 0.75836 0.95484 0.0
C356 C 0.21592 0.71353 0.93664 0.0
C357 C 0.27887 0.72647 0.93057 0.0
C358 C 0.31568 0.68697 0.96784 0.0
C359 C 0.29688 0.72661 0.86594 0.0
C360 C 0.27998 0.78349 0.95411 0.0
C361 C 0.22567 0.80218 0.96582 0.0
C362 C 0.21684 0.85161 0.99356 0.0
C363 C 0.26491 0.88199 1.01091 0.0
C364 C 0.32057 0.86187 1.00149 0.0
C365 C 0.32791 0.81312 0.97102 0.0
H366 H 0.74207 0.10839 0.96618 0.0
H367 H 0.64035 0.11813 0.12342 0.0
H368 H 0.71265 0.179 0.16701 0.0
H369 H 0.88839 0.12431 0.04519 0.0
H370 H 0.91714 0.16528 0.98593 0.0
H371 H 0.86712 0.11086 0.97098 0.0
H372 H 0.79964 0.17699 0.91609 0.0
H373 H 0.84942 0.2317 0.92793 0.0
H374 H 0.77621 0.23792 0.95152 0.0
H375 H 0.7784 0.25517 0.18175 0.0
H376 H 0.8377 0.33845 0.16906 0.0
H377 H 0.90021 0.27966 1.00427 0.0
C378 C 0.73687 0.12157 1.01075 0.0
C379 C 0.68674 0.10875 0.04214 0.0
C380 C 0.67929 0.12756 0.09947 0.0
C381 C 0.72018 0.16177 0.12456 0.0
C382 C 0.76828 0.17616 0.09169 0.0
C383 C 0.77751 0.15591 0.03638 0.0
C384 C 0.82836 0.18372 1.00727 0.0
C385 C 0.87818 0.14364 1.00201 0.0
C386 C 0.81238 0.20911 0.94722 0.0
C387 C 0.84183 0.22683 0.05181 0.0
C388 C 0.808 0.22046 0.10112 0.0
C389 C 0.80662 0.25957 0.14447 0.0
C390 C 0.83985 0.30684 0.13675 0.0
C391 C 0.8739 0.31423 0.08631 0.0
C392 C 0.87609 0.27338 0.04414 0.0
H393 H 0.7522 0.5744 0.02227 0.0
H394 H 0.88533 0.65625 0.92045 0.0
H395 H 0.81911 0.72949 0.89447 0.0
H396 H 0.62414 0.62851 0.92967 0.0
H397 H 0.58264 0.6356 0.99538 0.0
H398 H 0.63322 0.58076 0.98996 0.0
H399 H 0.68205 0.61242 0.0854 0.0
H400 H 0.63275 0.66768 0.09063 0.0
H401 H 0.70863 0.68153 0.08953 0.0
H402 H 0.75283 0.80393 0.9041 0.0
H403 H 0.68473 0.87184 0.93975 0.0
H404 H 0.59274 0.74352 0.03448 0.0
C405 C 0.76657 0.60649 0.99241 0.0
C406 C 0.82383 0.60945 0.9734 0.0
C407 C 0.84152 0.65274 0.93537 0.0
C408 C 0.80407 0.69461 0.92004 0.0
C409 C 0.74898 0.69243 0.94271 0.0
C410 C 0.72969 0.64895 0.97713 0.0
C411 C 0.67222 0.66088 1.00402 0.0
C412 C 0.62527 0.62426 0.97818 0.0
C413 C 0.67412 0.65534 0.07133 0.0
C414 C 0.66514 0.71951 0.98389 0.0
C415 C 0.70909 0.73645 0.94732 0.0
C416 C 0.71674 0.79096 0.93056 0.0
C417 C 0.6785 0.82926 0.95178 0.0
C418 C 0.63353 0.81263 0.98952 0.0
C419 C 0.62609 0.757 1.00458 0.0
loop_
_geom_bond_atom_site_label_1
_geom_bond_atom_site_label_2
_geom_bond_distance
_geom_bond_site_symmetry_2
_ccdc_geom_bond_type
Fe0 O1 1.895 . S
Fe0 O4 1.706 1_645 S
Fe0 O9 2.077 1_545 S
Fe0 O14 1.918 1_545 S
Fe0 O20 2.094 1_655 S
Fe0 O29 1.938 1_655 S
O1 Fe0 1.895 . S
O1 Fe3 1.715 . S
Fe2 O4 1.886 . S
Fe2 O5 1.715 . S
Fe2 O12 1.935 . S
Fe2 O13 2.077 . S
Fe2 O19 1.935 . S
Fe2 O28 2.077 . S
Fe3 O1 1.715 . S
Fe3 O6 1.886 . S
Fe3 O10 1.935 . S
Fe3 O15 2.077 . S
Fe3 O21 1.935 . S
Fe3 O25 2.077 . S
O4 Fe0 1.706 1_465 S
O4 Fe2 1.886 . S
O5 Fe2 1.715 . S
O5 Fe7 1.892 . S
O6 Fe3 1.886 . S
O6 Fe7 1.708 1_645 S
Fe7 O5 1.892 . S
Fe7 O6 1.708 1_465 S
Fe7 O11 2.090 1_455 S
Fe7 O16 1.938 1_455 S
Fe7 O18 2.077 1_565 S
Fe7 O26 1.922 1_565 S
C8 O20 1.381 1_655 S
C8 O21 1.421 . S
O9 Fe0 2.077 1_565 S
O9 C22 1.381 1_565 S
O10 Fe3 1.935 . S
O10 C22 1.421 . S
O11 Fe7 2.090 1_655 S
O11 C27 1.381 1_655 S
O12 Fe2 1.935 . S
O12 C27 1.421 . S
O13 Fe2 2.077 . S
O13 C17 1.381 . S
O14 Fe0 1.918 1_565 S
O14 C17 1.421 1_655 S
O15 Fe3 2.077 . S
O15 C23 1.381 . S
O16 Fe7 1.938 1_655 S
O16 C23 1.421 1_565 S
C17 O13 1.381 . S
C17 O14 1.421 1_455 S
O18 Fe7 2.077 1_545 S
O18 C30 1.381 1_545 S
O19 Fe2 1.935 . S
O19 C30 1.421 . S
O20 Fe0 2.094 1_455 S
O20 C8 1.381 1_455 S
O21 Fe3 1.935 . S
O21 C8 1.421 . S
C22 O9 1.381 1_545 S
C22 O10 1.421 . S
C23 O15 1.381 . S
C23 O16 1.421 1_545 S
C24 O25 1.381 . S
C24 O26 1.421 1_655 S
O25 Fe3 2.077 . S
O25 C24 1.381 . S
O26 Fe7 1.922 1_545 S
O26 C24 1.421 1_455 S
C27 O11 1.381 1_455 S
C27 O12 1.421 . S
O28 Fe2 2.077 . S
O28 C31 1.381 . S
O29 Fe0 1.938 1_455 S
O29 C31 1.421 1_545 S
C30 O18 1.381 1_565 S
C30 O19 1.421 . S
C31 O28 1.381 . S
C31 O29 1.421 1_565 S
Fe32 O33 1.895 . S
Fe32 O36 1.706 1_564 S
Fe32 O41 2.077 1_554 S
Fe32 O46 1.918 1_554 S
Fe32 O52 2.094 1_565 S
Fe32 O61 1.938 1_565 S
O33 Fe32 1.895 . S
O33 Fe35 1.715 . S
Fe34 O36 1.886 . S
Fe34 O37 1.715 . S
Fe34 O44 1.935 . S
Fe34 O45 2.077 . S
Fe34 O51 1.935 . S
Fe34 O60 2.077 . S
Fe35 O33 1.715 . S
Fe35 O38 1.886 . S
Fe35 O42 1.935 . S
Fe35 O47 2.077 . S
Fe35 O53 1.935 . S
Fe35 O57 2.077 . S
O36 Fe32 1.706 1_546 S
O36 Fe34 1.886 . S
O37 Fe34 1.715 . S
O37 Fe39 1.892 . S
O38 Fe35 1.886 . S
O38 Fe39 1.708 1_564 S
Fe39 O37 1.892 . S
Fe39 O38 1.708 1_546 S
Fe39 O43 2.090 1_545 S
Fe39 O48 1.938 1_545 S
Fe39 O50 2.077 1_556 S
Fe39 O58 1.922 1_556 S
C40 O52 1.381 1_565 S
C40 O53 1.421 . S
O41 Fe32 2.077 1_556 S
O41 C54 1.381 1_556 S
O42 Fe35 1.935 . S
O42 C54 1.421 . S
O43 Fe39 2.090 1_565 S
O43 C59 1.381 1_565 S
O44 Fe34 1.935 . S
O44 C59 1.421 . S
O45 Fe34 2.077 . S
O45 C49 1.381 . S
O46 Fe32 1.918 1_556 S
O46 C49 1.421 1_565 S
O47 Fe35 2.077 . S
O47 C55 1.381 . S
O48 Fe39 1.938 1_565 S
O48 C55 1.421 1_556 S
C49 O45 1.381 . S
C49 O46 1.421 1_545 S
O50 Fe39 2.077 1_554 S
O50 C62 1.381 1_554 S
O51 Fe34 1.935 . S
O51 C62 1.421 . S
O52 Fe32 2.094 1_545 S
O52 C40 1.381 1_545 S
O53 Fe35 1.935 . S
O53 C40 1.421 . S
C54 O41 1.381 1_554 S
C54 O42 1.421 . S
C55 O47 1.381 . S
C55 O48 1.421 1_554 S
C56 O57 1.381 . S
C56 O58 1.421 1_565 S
O57 Fe35 2.077 . S
O57 C56 1.381 . S
O58 Fe39 1.922 1_554 S
O58 C56 1.421 1_545 S
C59 O43 1.381 1_545 S
C59 O44 1.421 . S
O60 Fe34 2.077 . S
O60 C63 1.381 . S
O61 Fe32 1.938 1_545 S
O61 C63 1.421 1_554 S
C62 O50 1.381 1_556 S
C62 O51 1.421 . S
C63 O60 1.381 . S
C63 O61 1.421 1_556 S
Fe64 O65 1.895 . S
Fe64 O68 1.706 1_654 S
Fe64 O73 2.094 1_655 S
Fe64 O78 1.938 1_655 S
Fe64 O84 2.077 1_554 S
Fe64 O93 1.918 1_554 S
O65 Fe64 1.895 . S
O65 Fe67 1.715 . S
Fe66 O68 1.886 . S
Fe66 O69 1.715 . S
Fe66 O76 1.935 . S
Fe66 O77 2.077 . S
Fe66 O83 1.935 . S
Fe66 O92 2.077 . S
Fe67 O65 1.715 . S
Fe67 O70 1.886 . S
Fe67 O74 1.935 . S
Fe67 O79 2.077 . S
Fe67 O85 1.935 . S
Fe67 O89 2.077 . S
O68 Fe64 1.706 1_456 S
O68 Fe66 1.886 . S
O69 Fe66 1.715 . S
O69 Fe71 1.892 . S
O70 Fe67 1.886 . S
O70 Fe71 1.708 1_654 S
Fe71 O69 1.892 . S
Fe71 O70 1.708 1_456 S
Fe71 O75 2.077 1_556 S
Fe71 O80 1.922 1_556 S
Fe71 O82 2.090 1_455 S
Fe71 O90 1.938 1_455 S
C72 O84 1.381 1_554 S
C72 O85 1.421 . S
O73 Fe64 2.094 1_455 S
O73 C86 1.381 1_455 S
O74 Fe67 1.935 . S
O74 C86 1.421 . S
O75 Fe71 2.077 1_554 S
O75 C91 1.381 1_554 S
O76 Fe66 1.935 . S
O76 C91 1.421 . S
O77 Fe66 2.077 . S
O77 C81 1.381 . S
O78 Fe64 1.938 1_455 S
O78 C81 1.421 1_554 S
O79 Fe67 2.077 . S
O79 C87 1.381 . S
O80 Fe71 1.922 1_554 S
O80 C87 1.421 1_455 S
C81 O77 1.381 . S
C81 O78 1.421 1_556 S
O82 Fe71 2.090 1_655 S
O82 C94 1.381 1_655 S
O83 Fe66 1.935 . S
O83 C94 1.421 . S
O84 Fe64 2.077 1_556 S
O84 C72 1.381 1_556 S
O85 Fe67 1.935 . S
O85 C72 1.421 . S
C86 O73 1.381 1_655 S
C86 O74 1.421 . S
C87 O79 1.381 . S
C87 O80 1.421 1_655 S
C88 O89 1.381 . S
C88 O90 1.421 1_554 S
O89 Fe67 2.077 . S
O89 C88 1.381 . S
O90 Fe71 1.938 1_655 S
O90 C88 1.421 1_556 S
C91 O75 1.381 1_556 S
C91 O76 1.421 . S
O92 Fe66 2.077 . S
O92 C95 1.381 . S
O93 Fe64 1.918 1_556 S
O93 C95 1.421 1_655 S
C94 O82 1.381 1_455 S
C94 O83 1.421 . S
C95 O92 1.381 . S
C95 O93 1.421 1_455 S
H96 C108 0.930 . S
H97 C110 0.930 . S
H98 C111 0.930 . S
H99 C115 0.959 . S
H100 C115 0.959 . S
H101 C115 0.961 . S
H102 C116 0.960 . S
H103 C116 0.961 . S
H104 C116 0.959 . S
H105 C119 0.929 . S
H106 C120 0.931 . S
H107 C122 0.930 . S
C108 H96 0.930 . S
C108 C109 1.399 1_655 S
C108 C113 1.399 . S
C109 C108 1.399 1_455 S
C109 C110 1.376 . S
C110 H97 0.930 . S
C110 C109 1.376 . S
C110 C111 1.388 . S
C111 H98 0.930 . S
C111 C110 1.388 . S
C111 C112 1.390 . S
C112 C111 1.390 . S
C112 C113 1.394 1_455 S
C112 C118 1.465 . S
C113 C108 1.399 . S
C113 C112 1.394 1_655 S
C113 C114 1.516 . S
C114 C113 1.516 . S
C114 C115 1.502 . S
C114 C116 1.561 . S
C114 C117 1.526 . S
C115 H99 0.959 . S
C115 H100 0.959 . S
C115 H101 0.961 . S
C115 C114 1.502 . S
C116 H102 0.960 . S
C116 H103 0.961 . S
C116 H104 0.959 . S
C116 C114 1.561 . S
C117 C114 1.526 . S
C117 C118 1.396 1_655 S
C117 C122 1.390 . S
C118 C112 1.465 . S
C118 C117 1.396 1_455 S
C118 C119 1.399 . S
C119 H105 0.929 . S
C119 C118 1.399 . S
C119 C120 1.385 . S
C120 H106 0.931 . S
C120 C119 1.385 . S
C120 C121 1.389 . S
C121 C120 1.389 . S
C121 C122 1.387 1_455 S
C122 H107 0.930 . S
C122 C117 1.390 . S
C122 C121 1.387 1_655 S
H123 C135 0.930 . S
H124 C137 0.930 . S
H125 C138 0.930 . S
H126 C142 0.959 . S
H127 C142 0.959 . S
H128 C142 0.961 . S
H129 C143 0.960 . S
H130 C143 0.961 . S
H131 C143 0.959 . S
H132 C146 0.929 . S
H133 C147 0.931 . S
H134 C149 0.930 . S
C135 H123 0.930 . S
C135 C136 1.399 1_565 S
C135 C140 1.399 . S
C136 C135 1.399 1_545 S
C136 C137 1.376 . S
C137 H124 0.930 . S
C137 C136 1.376 . S
C137 C138 1.388 . S
C138 H125 0.930 . S
C138 C137 1.388 . S
C138 C139 1.390 . S
C139 C138 1.390 . S
C139 C140 1.394 1_545 S
C139 C145 1.465 . S
C140 C135 1.399 . S
C140 C139 1.394 1_565 S
C140 C141 1.516 . S
C141 C140 1.516 . S
C141 C142 1.502 . S
C141 C143 1.561 . S
C141 C144 1.526 . S
C142 H126 0.959 . S
C142 H127 0.959 . S
C142 H128 0.961 . S
C142 C141 1.502 . S
C143 H129 0.960 . S
C143 H130 0.961 . S
C143 H131 0.959 . S
C143 C141 1.561 . S
C144 C141 1.526 . S
C144 C145 1.396 1_565 S
C144 C149 1.390 . S
C145 C139 1.465 . S
C145 C144 1.396 1_545 S
C145 C146 1.399 . S
C146 H132 0.929 . S
C146 C145 1.399 . S
C146 C147 1.385 . S
C147 H133 0.931 . S
C147 C146 1.385 . S
C147 C148 1.389 . S
C148 C147 1.389 . S
C148 C149 1.387 1_545 S
C149 H134 0.930 . S
C149 C144 1.390 . S
C149 C148 1.387 1_565 S
H150 C162 0.930 . S
H151 C164 0.930 . S
H152 C165 0.930 . S
H153 C169 0.959 . S
H154 C169 0.959 . S
H155 C169 0.961 . S
H156 C170 0.960 . S
H157 C170 0.961 . S
H158 C170 0.959 . S
H159 C173 0.929 . S
H160 C174 0.931 . S
H161 C176 0.930 . S
C162 H150 0.930 . S
C162 C163 1.401 . S
C162 C167 1.399 . S
C163 C162 1.401 . S
C163 C164 1.375 1_655 S
C164 H151 0.930 . S
C164 C163 1.375 1_455 S
C164 C165 1.388 . S
C165 H152 0.930 . S
C165 C164 1.388 . S
C165 C166 1.390 1_455 S
C166 C165 1.390 1_655 S
C166 C167 1.394 . S
C166 C172 1.465 . S
C167 C162 1.399 . S
C167 C166 1.394 . S
C167 C168 1.516 . S
C168 C167 1.516 . S
C168 C169 1.502 1_655 S
C168 C170 1.561 . S
C168 C171 1.526 . S
C169 H153 0.959 . S
C169 H154 0.959 . S
C169 H155 0.961 . S
C169 C168 1.502 1_455 S
C170 H156 0.960 . S
C170 H157 0.961 . S
C170 H158 0.959 . S
C170 C168 1.561 . S
C171 C168 1.526 . S
C171 C172 1.396 . S
C171 C176 1.390 . S
C172 C166 1.465 . S
C172 C171 1.396 . S
C172 C173 1.399 1_655 S
C173 H159 0.929 . S
C173 C172 1.399 1_455 S
C173 C174 1.385 . S
C174 H160 0.931 . S
C174 C173 1.385 . S
C174 C175 1.388 1_455 S
C175 C174 1.388 1_655 S
C175 C176 1.389 . S
C176 H161 0.930 . S
C176 C171 1.390 . S
C176 C175 1.389 . S
H177 C189 0.930 . S
H178 C191 0.930 . S
H179 C192 0.930 . S
H180 C196 0.959 . S
H181 C196 0.959 . S
H182 C196 0.961 . S
H183 C197 0.960 . S
H184 C197 0.961 . S
H185 C197 0.959 . S
H186 C200 0.929 . S
H187 C201 0.931 . S
H188 C203 0.930 . S
C189 H177 0.930 . S
C189 C190 1.399 1_545 S
C189 C194 1.399 . S
C190 C189 1.399 1_565 S
C190 C191 1.376 . S
C191 H178 0.930 . S
C191 C190 1.376 . S
C191 C192 1.388 . S
C192 H179 0.930 . S
C192 C191 1.388 . S
C192 C193 1.390 . S
C193 C192 1.390 . S
C193 C194 1.394 1_565 S
C193 C199 1.465 . S
C194 C189 1.399 . S
C194 C193 1.394 1_545 S
C194 C195 1.516 . S
C195 C194 1.516 . S
C195 C196 1.502 . S
C195 C197 1.561 . S
C195 C198 1.526 . S
C196 H180 0.959 . S
C196 H181 0.959 . S
C196 H182 0.961 . S
C196 C195 1.502 . S
C197 H183 0.960 . S
C197 H184 0.961 . S
C197 H185 0.959 . S
C197 C195 1.561 . S
C198 C195 1.526 . S
C198 C199 1.396 1_545 S
C198 C203 1.390 . S
C199 C193 1.465 . S
C199 C198 1.396 1_565 S
C199 C200 1.399 . S
C200 H186 0.929 . S
C200 C199 1.399 . S
C200 C201 1.385 . S
C201 H187 0.931 . S
C201 C200 1.385 . S
C201 C202 1.389 . S
C202 C201 1.389 . S
C202 C203 1.387 1_565 S
C203 H188 0.930 . S
C203 C198 1.390 . S
C203 C202 1.387 1_545 S
H204 C216 0.930 . S
H205 C218 0.930 . S
H206 C219 0.930 . S
H207 C223 0.959 . S
H208 C223 0.959 . S
H209 C223 0.961 . S
H210 C224 0.960 . S
H211 C224 0.961 . S
H212 C224 0.959 . S
H213 C227 0.929 . S
H214 C228 0.931 . S
H215 C230 0.930 . S
C216 H204 0.930 . S
C216 C217 1.399 1_455 S
C216 C221 1.399 . S
C217 C216 1.399 1_655 S
C217 C218 1.376 . S
C218 H205 0.930 . S
C218 C217 1.376 . S
C218 C219 1.388 . S
C219 H206 0.930 . S
C219 C218 1.388 . S
C219 C220 1.390 . S
C220 C219 1.390 . S
C220 C221 1.394 1_655 S
C220 C226 1.465 . S
C221 C216 1.399 . S
C221 C220 1.394 1_455 S
C221 C222 1.516 . S
C222 C221 1.516 . S
C222 C223 1.502 . S
C222 C224 1.561 . S
C222 C225 1.526 . S
C223 H207 0.959 . S
C223 H208 0.959 . S
C223 H209 0.961 . S
C223 C222 1.502 . S
C224 H210 0.960 . S
C224 H211 0.961 . S
C224 H212 0.959 . S
C224 C222 1.561 . S
C225 C222 1.526 . S
C225 C226 1.396 1_455 S
C225 C230 1.390 . S
C226 C220 1.465 . S
C226 C225 1.396 1_655 S
C226 C227 1.399 . S
C227 H213 0.929 . S
C227 C226 1.399 . S
C227 C228 1.385 . S
C228 H214 0.931 . S
C228 C227 1.385 . S
C228 C229 1.389 . S
C229 C228 1.389 . S
C229 C230 1.387 1_655 S
C230 H215 0.930 . S
C230 C225 1.390 . S
C230 C229 1.387 1_455 S
H231 C243 0.930 . S
H232 C245 0.930 . S
H233 C246 0.930 . S
H234 C250 0.959 . S
H235 C250 0.959 . S
H236 C250 0.961 . S
H237 C251 0.960 . S
H238 C251 0.961 . S
H239 C251 0.959 . S
H240 C254 0.929 . S
H241 C255 0.931 . S
H242 C257 0.930 . S
C243 H231 0.930 . S
C243 C244 1.399 1_565 S
C243 C248 1.399 . S
C244 C243 1.399 1_545 S
C244 C245 1.376 . S
C245 H232 0.930 . S
C245 C244 1.376 . S
C245 C246 1.388 . S
C246 H233 0.930 . S
C246 C245 1.388 . S
C246 C247 1.390 . S
C247 C246 1.390 . S
C247 C248 1.394 1_545 S
C247 C253 1.465 . S
C248 C243 1.399 . S
C248 C247 1.394 1_565 S
C248 C249 1.516 . S
C249 C248 1.516 . S
C249 C250 1.502 . S
C249 C251 1.561 . S
C249 C252 1.526 . S
C250 H234 0.959 . S
C250 H235 0.959 . S
C250 H236 0.961 . S
C250 C249 1.502 . S
C251 H237 0.960 . S
C251 H238 0.961 . S
C251 H239 0.959 . S
C251 C249 1.561 . S
C252 C249 1.526 . S
C252 C253 1.396 1_565 S
C252 C257 1.390 . S
C253 C247 1.465 . S
C253 C252 1.396 1_545 S
C253 C254 1.399 . S
C254 H240 0.929 . S
C254 C253 1.399 . S
C254 C255 1.385 . S
C255 H241 0.931 . S
C255 C254 1.385 . S
C255 C256 1.389 . S
C256 C255 1.389 . S
C256 C257 1.387 1_545 S
C257 H242 0.930 . S
C257 C252 1.390 . S
C257 C256 1.387 1_565 S
H258 C270 0.930 . S
H259 C272 0.930 . S
H260 C273 0.930 . S
H261 C277 0.959 . S
H262 C277 0.959 . S
H263 C277 0.961 . S
H264 C278 0.960 . S
H265 C278 0.961 . S
H266 C278 0.959 1_455 S
H267 C281 0.929 . S
H268 C282 0.931 . S
H269 C284 0.930 . S
C270 H258 0.930 . S
C270 C271 1.399 1_655 S
C270 C275 1.399 . S
C271 C270 1.399 1_455 S
C271 C272 1.376 . S
C272 H259 0.930 . S
C272 C271 1.376 . S
C272 C273 1.388 . S
C273 H260 0.930 . S
C273 C272 1.388 . S
C273 C274 1.390 . S
C274 C273 1.390 . S
C274 C275 1.394 1_455 S
C274 C280 1.465 . S
C275 C270 1.399 . S
C275 C274 1.394 1_655 S
C275 C276 1.516 . S
C276 C275 1.516 . S
C276 C277 1.502 . S
C276 C278 1.561 . S
C276 C279 1.526 . S
C277 H261 0.959 . S
C277 H262 0.959 . S
C277 H263 0.961 . S
C277 C276 1.502 . S
C278 H264 0.960 . S
C278 H265 0.961 . S
C278 H266 0.959 1_655 S
C278 C276 1.561 . S
C279 C276 1.526 . S
C279 C280 1.396 1_655 S
C279 C284 1.390 . S
C280 C274 1.465 . S
C280 C279 1.396 1_455 S
C280 C281 1.399 . S
C281 H267 0.929 . S
C281 C280 1.399 . S
C281 C282 1.385 . S
C282 H268 0.931 . S
C282 C281 1.385 . S
C282 C283 1.389 . S
C283 C282 1.389 . S
C283 C284 1.387 1_455 S
C284 H269 0.930 . S
C284 C279 1.390 . S
C284 C283 1.387 1_655 S
H285 C297 0.930 . S
H286 C299 0.930 . S
H287 C300 0.930 . S
H288 C304 0.959 . S
H289 C304 0.959 . S
H290 C304 0.961 . S
H291 C305 0.960 . S
H292 C305 0.961 . S
H293 C305 0.959 . S
H294 C308 0.929 . S
H295 C309 0.931 . S
H296 C311 0.930 . S
C297 H285 0.930 . S
C297 C298 1.399 1_565 S
C297 C302 1.399 . S
C298 C297 1.399 1_545 S
C298 C299 1.376 . S
C299 H286 0.930 . S
C299 C298 1.376 . S
C299 C300 1.388 . S
C300 H287 0.930 . S
C300 C299 1.388 . S
C300 C301 1.390 . S
C301 C300 1.390 . S
C301 C302 1.394 1_545 S
C301 C307 1.465 . S
C302 C297 1.399 . S
C302 C301 1.394 1_565 S
C302 C303 1.516 . S
C303 C302 1.516 . S
C303 C304 1.502 . S
C303 C305 1.561 . S
C303 C306 1.526 . S
C304 H288 0.959 . S
C304 H289 0.959 . S
C304 H290 0.961 . S
C304 C303 1.502 . S
C305 H291 0.960 . S
C305 H292 0.961 . S
C305 H293 0.959 . S
C305 C303 1.561 . S
C306 C303 1.526 . S
C306 C307 1.396 1_565 S
C306 C311 1.390 . S
C307 C301 1.465 . S
C307 C306 1.396 1_545 S
C307 C308 1.399 . S
C308 H294 0.929 . S
C308 C307 1.399 . S
C308 C309 1.385 . S
C309 H295 0.931 . S
C309 C308 1.385 . S
C309 C310 1.389 . S
C310 C309 1.389 . S
C310 C311 1.387 1_545 S
C311 H296 0.930 . S
C311 C306 1.390 . S
C311 C310 1.387 1_565 S
H312 C324 0.930 . S
H313 C326 0.930 . S
H314 C327 0.930 . S
H315 C331 0.959 . S
H316 C331 0.959 . S
H317 C331 0.961 . S
H318 C332 0.960 . S
H319 C332 0.961 . S
H320 C332 0.959 . S
H321 C335 0.929 . S
H322 C336 0.931 . S
H323 C338 0.930 . S
C324 H312 0.930 . S
C324 C325 1.400 1_556 S
C324 C329 1.399 . S
C325 C324 1.400 1_554 S
C325 C326 1.376 . S
C326 H313 0.930 . S
C326 C325 1.376 . S
C326 C327 1.388 . S
C327 H314 0.930 . S
C327 C326 1.388 . S
C327 C328 1.390 . S
C328 C327 1.390 . S
C328 C329 1.394 1_554 S
C328 C334 1.465 . S
C329 C324 1.399 . S
C329 C328 1.394 1_556 S
C329 C330 1.516 . S
C330 C329 1.516 . S
C330 C331 1.502 . S
C330 C332 1.561 . S
C330 C333 1.526 . S
C331 H315 0.959 . S
C331 H316 0.959 . S
C331 H317 0.961 . S
C331 C330 1.502 . S
C332 H318 0.960 . S
C332 H319 0.961 . S
C332 H320 0.959 . S
C332 C330 1.561 . S
C333 C330 1.526 . S
C333 C334 1.396 1_556 S
C333 C338 1.390 . S
C334 C328 1.465 . S
C334 C333 1.396 1_554 S
C334 C335 1.399 . S
C335 H321 0.929 . S
C335 C334 1.399 . S
C335 C336 1.385 . S
C336 H322 0.931 . S
C336 C335 1.385 . S
C336 C337 1.389 . S
C337 C336 1.389 . S
C337 C338 1.387 1_554 S
C338 H323 0.930 . S
C338 C333 1.390 . S
C338 C337 1.387 1_556 S
H339 C351 0.930 . S
H340 C353 0.930 . S
H341 C354 0.930 . S
H342 C358 0.959 . S
H343 C358 0.959 . S
H344 C358 0.961 . S
H345 C359 0.959 1_554 S
H346 C359 0.958 1_554 S
H347 C359 0.967 . S
H348 C362 0.929 . S
H349 C363 0.931 . S
H350 C365 0.930 . S
C351 H339 0.930 . S
C351 C352 1.399 1_554 S
C351 C356 1.399 . S
C352 C351 1.399 1_556 S
C352 C353 1.376 . S
C353 H340 0.930 . S
C353 C352 1.376 . S
C353 C354 1.388 . S
C354 H341 0.930 . S
C354 C353 1.388 . S
C354 C355 1.390 . S
C355 C354 1.390 . S
C355 C356 1.394 1_556 S
C355 C361 1.465 . S
C356 C351 1.399 . S
C356 C355 1.394 1_554 S
C356 C357 1.516 . S
C357 C356 1.516 . S
C357 C358 1.502 . S
C357 C359 1.557 1_554 S
C357 C360 1.526 . S
C358 H342 0.959 . S
C358 H343 0.959 . S
C358 H344 0.961 . S
C358 C357 1.502 . S
C359 H345 0.959 1_556 S
C359 H346 0.958 1_556 S
C359 H347 0.967 . S
C359 C357 1.557 1_556 S
C360 C357 1.526 . S
C360 C361 1.396 1_554 S
C360 C365 1.390 . S
C361 C355 1.465 . S
C361 C360 1.396 1_556 S
C361 C362 1.399 . S
C362 H348 0.929 . S
C362 C361 1.399 . S
C362 C363 1.385 . S
C363 H349 0.931 . S
C363 C362 1.385 . S
C363 C364 1.389 . S
C364 C363 1.389 . S
C364 C365 1.387 1_556 S
C365 H350 0.930 . S
C365 C360 1.390 . S
C365 C364 1.387 1_554 S
H366 C378 0.930 . S
H367 C380 0.930 . S
H368 C381 0.930 . S
H369 C385 0.959 . S
H370 C385 0.959 . S
H371 C385 0.961 . S
H372 C386 0.960 . S
H373 C386 0.961 . S
H374 C386 0.959 . S
H375 C389 0.929 . S
H376 C390 0.931 . S
H377 C392 0.930 . S
C378 H366 0.930 . S
C378 C379 1.399 1_556 S
C378 C383 1.399 . S
C379 C378 1.399 1_554 S
C379 C380 1.376 . S
C380 H367 0.930 . S
C380 C379 1.376 . S
C380 C381 1.388 . S
C381 H368 0.930 . S
C381 C380 1.388 . S
C381 C382 1.390 . S
C382 C381 1.390 . S
C382 C383 1.394 1_554 S
C382 C388 1.465 . S
C383 C378 1.399 . S
C383 C382 1.394 1_556 S
C383 C384 1.516 . S
C384 C383 1.516 . S
C384 C385 1.502 . S
C384 C386 1.561 . S
C384 C387 1.526 . S
C385 H369 0.959 . S
C385 H370 0.959 . S
C385 H371 0.961 . S
C385 C384 1.502 . S
C386 H372 0.960 . S
C386 H373 0.961 . S
C386 H374 0.959 . S
C386 C384 1.561 . S
C387 C384 1.526 . S
C387 C388 1.396 1_556 S
C387 C392 1.390 . S
C388 C382 1.465 . S
C388 C387 1.396 1_554 S
C388 C389 1.399 . S
C389 H375 0.929 . S
C389 C388 1.399 . S
C389 C390 1.385 . S
C390 H376 0.931 . S
C390 C389 1.385 . S
C390 C391 1.389 . S
C391 C390 1.389 . S
C391 C392 1.387 1_554 S
C392 H377 0.930 . S
C392 C387 1.390 . S
C392 C391 1.387 1_556 S
H393 C405 0.930 . S
H394 C407 0.930 . S
H395 C408 0.930 . S
H396 C412 0.959 . S
H397 C412 0.959 . S
H398 C412 0.961 . S
H399 C413 0.960 . S
H400 C413 0.961 . S
H401 C413 0.959 . S
H402 C416 0.929 . S
H403 C417 0.931 . S
H404 C419 0.930 . S
C405 H393 0.930 . S
C405 C406 1.387 1_554 S
C405 C410 1.399 . S
C406 C405 1.387 1_556 S
C406 C407 1.391 . S
C407 H394 0.930 . S
C407 C406 1.391 . S
C407 C408 1.388 . S
C408 H395 0.930 . S
C408 C407 1.388 . S
C408 C409 1.390 . S
C409 C408 1.390 . S
C409 C410 1.394 1_556 S
C409 C415 1.465 . S
C410 C405 1.399 . S
C410 C409 1.394 1_554 S
C410 C411 1.516 . S
C411 C410 1.516 . S
C411 C412 1.502 . S
C411 C413 1.561 . S
C411 C414 1.526 . S
C412 H396 0.959 . S
C412 H397 0.959 . S
C412 H398 0.961 . S
C412 C411 1.502 . S
C413 H399 0.960 . S
C413 H400 0.961 . S
C413 H401 0.959 . S
C413 C411 1.561 . S
C414 C411 1.526 . S
C414 C415 1.396 1_554 S
C414 C419 1.390 . S
C415 C409 1.465 . S
C415 C414 1.396 1_556 S
C415 C416 1.399 . S
C416 H402 0.929 . S
C416 C415 1.399 . S
C416 C417 1.385 . S
C417 H403 0.931 . S
C417 C416 1.385 . S
C417 C418 1.389 . S
C418 C417 1.389 . S
C418 C419 1.387 1_556 S
C419 H404 0.930 . S
C419 C414 1.390 . S
C419 C418 1.387 1_554 S
C109 C86 1.216 1_455 S
C121 C8 1.216 1_455 S
C136 C22 1.139 . S
C148 C56 1.176 1_545 S
C163 C17 1.084 1_655 S
C175 C87 1.081 . S
C190 C40 1.118 . S
C202 C31 1.107 . S
C217 C27 1.213 1_655 S
C229 C94 1.221 1_655 S
C244 C49 1.083 . S
C256 C30 1.177 1_545 S
C271 C95 1.070 . S
C283 C24 1.118 1_455 S
C298 C59 1.152 . S
C310 C23 1.146 . S
C325 C81 1.211 1_554 S
C337 C63 1.212 1_554 S
C352 C91 1.075 . S
C364 C54 1.137 1_556 S
C379 C62 1.181 1_554 S
C391 C72 1.100 . S
C406 C88 1.130 1_556 S
C418 C55 1.156 1_556 S
