# Generated by pormake.
# Topology sxf, (6)-cn, num edge types: 1
# Building blocks:
#     Node 0, Type 0, BuildingBlock: IZENUY_clean_sbu_0, # of connection points: 6
#     Node 1, Type 0, BuildingBlock: IZENUY_clean_sbu_0, # of connection points: 6
#     Node 2, Type 0, BuildingBlock: IZENUY_clean_sbu_0, # of connection points: 6
#     Node 3, Type 0, BuildingBlock: IZENUY_clean_sbu_0, # of connection points: 6
#     Node 4, Type 0, BuildingBlock: IZENUY_clean_sbu_0, # of connection points: 6
#     Node 5, Type 0, BuildingBlock: IZENUY_clean_sbu_0, # of connection points: 6
#     Node 6, Type 0, BuildingBlock: IZENUY_clean_sbu_0, # of connection points: 6
#     Node 7, Type 0, BuildingBlock: IZENUY_clean_sbu_0, # of connection points: 6
#     Node 8, Type 0, BuildingBlock: IZENUY_clean_sbu_0, # of connection points: 6
#     Node 9, Type 0, BuildingBlock: IZENUY_clean_sbu_0, # of connection points: 6
#     Node 10, Type 0, BuildingBlock: IZENUY_clean_sbu_0, # of connection points: 6
#     Node 11, Type 0, BuildingBlock: IZENUY_clean_sbu_0, # of connection points: 6
#     Node 12, Type 0, BuildingBlock: IZENUY_clean_sbu_0, # of connection points: 6
#     Node 13, Type 0, BuildingBlock: IZENUY_clean_sbu_0, # of connection points: 6
#     Node 14, Type 0, BuildingBlock: IZENUY_clean_sbu_0, # of connection points: 6
#     Node 15, Type 0, BuildingBlock: IZENUY_clean_sbu_0, # of connection points: 6
#     Node 16, Type 0, BuildingBlock: IZENUY_clean_sbu_0, # of connection points: 6
#     Node 17, Type 0, BuildingBlock: IZENUY_clean_sbu_0, # of connection points: 6
#     Node 18, Type 0, BuildingBlock: IZENUY_clean_sbu_0, # of connection points: 6
#     Node 19, Type 0, BuildingBlock: IZENUY_clean_sbu_0, # of connection points: 6
#     Node 20, Type 0, BuildingBlock: IZENUY_clean_sbu_0, # of connection points: 6
#     Node 21, Type 0, BuildingBlock: IZENUY_clean_sbu_0, # of connection points: 6
#     Node 22, Type 0, BuildingBlock: IZENUY_clean_sbu_0, # of connection points: 6
#     Node 23, Type 0, BuildingBlock: IZENUY_clean_sbu_0, # of connection points: 6
#     Edge 24, Type (0, 0), None
#     Edge 25, Type (0, 0), None
#     Edge 26, Type (0, 0), None
#     Edge 27, Type (0, 0), None
#     Edge 28, Type (0, 0), None
#     Edge 29, Type (0, 0), None
#     Edge 30, Type (0, 0), None
#     Edge 31, Type (0, 0), None
#     Edge 32, Type (0, 0), None
#     Edge 33, Type (0, 0), None
#     Edge 34, Type (0, 0), None
#     Edge 35, Type (0, 0), None
#     Edge 36, Type (0, 0), None
#     Edge 37, Type (0, 0), None
#     Edge 38, Type (0, 0), None
#     Edge 39, Type (0, 0), None
#     Edge 40, Type (0, 0), None
#     Edge 41, Type (0, 0), None
#     Edge 42, Type (0, 0), None
#     Edge 43, Type (0, 0), None
#     Edge 44, Type (0, 0), None
#     Edge 45, Type (0, 0), None
#     Edge 46, Type (0, 0), None
#     Edge 47, Type (0, 0), None
#     Edge 48, Type (0, 0), None
#     Edge 49, Type (0, 0), None
#     Edge 50, Type (0, 0), None
#     Edge 51, Type (0, 0), None
#     Edge 52, Type (0, 0), None
#     Edge 53, Type (0, 0), None
#     Edge 54, Type (0, 0), None
#     Edge 55, Type (0, 0), None
#     Edge 56, Type (0, 0), None
#     Edge 57, Type (0, 0), None
#     Edge 58, Type (0, 0), None
#     Edge 59, Type (0, 0), None
#     Edge 60, Type (0, 0), None
#     Edge 61, Type (0, 0), None
#     Edge 62, Type (0, 0), None
#     Edge 63, Type (0, 0), None
#     Edge 64, Type (0, 0), None
#     Edge 65, Type (0, 0), None
#     Edge 66, Type (0, 0), None
#     Edge 67, Type (0, 0), None
#     Edge 68, Type (0, 0), None
#     Edge 69, Type (0, 0), None
#     Edge 70, Type (0, 0), None
#     Edge 71, Type (0, 0), None
#     Edge 72, Type (0, 0), None
#     Edge 73, Type (0, 0), None
#     Edge 74, Type (0, 0), None
#     Edge 75, Type (0, 0), None
#     Edge 76, Type (0, 0), None
#     Edge 77, Type (0, 0), None
#     Edge 78, Type (0, 0), None
#     Edge 79, Type (0, 0), None
#     Edge 80, Type (0, 0), None
#     Edge 81, Type (0, 0), None
#     Edge 82, Type (0, 0), None
#     Edge 83, Type (0, 0), None
#     Edge 84, Type (0, 0), None
#     Edge 85, Type (0, 0), None
#     Edge 86, Type (0, 0), None
#     Edge 87, Type (0, 0), None
#     Edge 88, Type (0, 0), None
#     Edge 89, Type (0, 0), None
#     Edge 90, Type (0, 0), None
#     Edge 91, Type (0, 0), None
#     Edge 92, Type (0, 0), None
#     Edge 93, Type (0, 0), None
#     Edge 94, Type (0, 0), None
#     Edge 95, Type (0, 0), None
# Relax obj value: 0.436
# Max RMSD: 0.175
# Mean RMSD: 0.175
data_MOF--net-sxf--node1-IZENUY_clean_sbu_0--edge1-none
_symmetry_space_group_name_H-M    P1
_symmetry_Int_Tables_number       1
_symmetry_cell_setting            triclinic
loop_
_symmetry_equiv_pos_as_xyz
'x, y, z'
_cell_length_a     21.327152
_cell_length_b     21.327031
_cell_length_c     21.325917
_cell_angle_alpha  89.999983
_cell_angle_beta   89.999999
_cell_angle_gamma 90.00002
loop_
_atom_site_label
_atom_site_type_symbol
_atom_site_fract_x
_atom_site_fract_y
_atom_site_fract_z
_atom_type_partial_charge
Fe0 Fe 0.02471 0.51671 0.30233 0.0
Fe1 Fe 0.10996 0.40438 0.25639 0.0
O2 O 0.05797 0.46861 0.24325 0.0
Fe3 Fe 0.0384 0.48676 0.16702 0.0
O4 O 1.01704 0.56499 0.18147 0.0
O5 O 0.062 0.59072 0.26633 0.0
O6 O 0.09176 0.51095 0.3543 0.0
C7 C 0.14575 0.48737 0.35025 0.0
C8 C 0.92264 0.4999 0.21537 0.0
O9 O 0.16193 0.45219 0.30505 0.0
C10 C 0.038 0.36264 0.158 0.0
O11 O 0.98912 0.44741 0.33916 0.0
O12 O 0.06647 0.37843 0.32471 0.0
O13 O 0.95731 0.46321 0.18311 0.0
O14 O 0.94783 0.52904 0.2613 0.0
C15 C 0.16709 0.47608 0.15845 0.0
O16 O 0.05883 0.34878 0.21145 0.0
O17 O 0.05636 0.41241 0.13482 0.0
C18 C 1.01307 0.393 0.34614 0.0
O19 O 0.16327 0.42352 0.18747 0.0
O20 O 0.1188 0.51118 0.15631 0.0
C21 C 0.04894 0.60384 0.20936 0.0
Fe22 Fe 0.51378 0.52179 0.80233 0.0
Fe23 Fe 0.42853 0.63412 0.75639 0.0
O24 O 0.48052 0.56989 0.74325 0.0
Fe25 Fe 0.50008 0.55174 0.66702 0.0
O26 O 0.52144 0.47351 0.68147 0.0
O27 O 0.47649 0.44777 0.76633 0.0
O28 O 0.44673 0.52755 0.8543 0.0
C29 C 0.39274 0.55113 0.85025 0.0
C30 C 0.61585 0.5386 0.71537 0.0
O31 O 0.37656 0.58631 0.80505 0.0
C32 C 0.50049 0.67586 0.658 0.0
O33 O 0.54937 0.59109 0.83916 0.0
O34 O 0.47202 0.66006 0.82471 0.0
O35 O 0.58118 0.57528 0.68311 0.0
O36 O 0.59066 0.50945 0.7613 0.0
C37 C 0.3714 0.56241 0.65845 0.0
O38 O 0.47965 0.68971 0.71145 0.0
O39 O 0.48213 0.62609 0.63482 0.0
C40 C 0.52542 0.6455 0.84614 0.0
O41 O 0.37522 0.61497 0.68747 0.0
O42 O 0.41969 0.52731 0.65631 0.0
C43 C 0.48955 0.43465 0.70936 0.0
Fe44 Fe 0.60996 0.13412 0.78216 0.0
Fe45 Fe 0.5384 0.05174 0.87153 0.0
O46 O 0.55797 0.06989 0.7953 0.0
Fe47 Fe 0.52471 0.02179 0.73622 0.0
O48 O 0.59176 0.02755 0.68425 0.0
O49 O 0.66193 0.08631 0.7335 0.0
O50 O 0.66327 0.11497 0.85108 0.0
C51 C 0.66709 0.06241 0.8801 0.0
C52 C 0.51307 0.1455 0.69241 0.0
O53 O 0.6188 0.02731 0.88224 0.0
C54 C 0.42264 0.0386 0.82317 0.0
O55 O 0.55883 0.18971 0.82709 0.0
O56 O 0.55636 0.12609 0.90373 0.0
O57 O 0.48912 0.09109 0.69939 0.0
O58 O 0.56647 0.16006 0.71383 0.0
C59 C 0.54894 0.93465 0.82919 0.0
O60 O 0.45731 0.07528 0.85544 0.0
O61 O 0.44783 1.00945 0.77725 0.0
C62 C 0.538 0.17586 0.88055 0.0
O63 O 0.51704 0.97351 0.85708 0.0
O64 O 0.562 0.94777 0.77222 0.0
C65 C 0.64575 0.05113 0.6883 0.0
Fe66 Fe 1.00008 0.98676 0.37153 0.0
Fe67 Fe 1.01378 1.01671 0.23622 0.0
O68 O 0.98052 0.96861 0.2953 0.0
Fe69 Fe 0.92853 0.90438 0.28216 0.0
O70 O 0.87522 0.92352 0.35108 0.0
O71 O 0.91969 1.01118 0.38224 0.0
O72 O 0.02144 0.06499 0.35708 0.0
C73 C 0.98955 0.10384 0.32919 0.0
C74 C 1.00049 0.86264 0.38055 0.0
O75 O 0.97649 0.09072 0.27222 0.0
C76 C 0.02542 0.893 0.19241 0.0
O77 O 0.08118 0.96321 0.35544 0.0
O78 O 0.09066 0.02904 0.27725 0.0
O79 O 0.97965 0.84878 0.32709 0.0
O80 O 0.98213 0.91241 0.40373 0.0
C81 C 0.89274 0.98737 0.1883 0.0
O82 O 0.04937 0.94741 0.19939 0.0
O83 O 0.97202 0.87843 0.21383 0.0
C84 C 0.11585 0.9999 0.32317 0.0
O85 O 0.94673 1.01095 0.18425 0.0
O86 O 0.87656 0.95219 0.2335 0.0
C87 C 0.8714 0.97608 0.3801 0.0
Fe88 Fe 0.25637 0.10995 0.40442 0.0
Fe89 Fe 0.16701 0.0384 0.48681 0.0
O90 O 0.24323 0.05797 0.46865 0.0
Fe91 Fe 0.30232 0.0247 0.51675 0.0
O92 O 0.35429 0.09175 0.51098 0.0
O93 O 0.30504 0.16192 0.45223 0.0
O94 O 0.18746 0.16326 0.42359 0.0
C95 C 0.15843 0.16708 0.47614 0.0
C96 C 0.3461 1.01305 0.39302 0.0
O97 O 0.1563 0.11879 0.51125 0.0
C98 C 0.21536 0.92263 0.49993 0.0
O99 O 0.21143 0.05884 0.34883 0.0
O100 O 0.1348 0.05636 0.41247 0.0
O101 O 0.33914 0.98911 0.44744 0.0
O102 O 0.32469 0.06646 0.37847 0.0
C103 C 0.20936 0.04893 0.60389 0.0
O104 O 0.1831 0.95731 0.46325 0.0
O105 O 0.26129 0.94782 0.52908 0.0
C106 C 0.15797 0.03802 0.36268 0.0
O107 O 0.18148 1.01702 0.56504 0.0
O108 O 0.26632 0.062 0.59077 0.0
C109 C 0.35024 0.14574 0.48739 0.0
Fe110 Fe 0.37148 1.0001 0.98681 0.0
Fe111 Fe 0.23617 1.01379 1.01675 0.0
O112 O 0.29525 0.98053 0.96865 0.0
Fe113 Fe 0.28211 0.92854 0.90442 0.0
O114 O 0.35103 0.87523 0.92359 0.0
O115 O 0.38219 0.9197 1.01125 0.0
O116 O 0.357 0.02147 0.06504 0.0
C117 C 0.32913 0.98956 0.10389 0.0
C118 C 0.38051 1.00047 0.86268 0.0
O119 O 0.27217 0.9765 0.09077 0.0
C120 C 0.19239 0.02544 0.89302 0.0
O121 O 0.35538 0.08118 0.96325 0.0
O122 O 0.2772 0.09068 0.02908 0.0
O123 O 0.32706 0.97966 0.84883 0.0
O124 O 0.40369 0.98213 0.91247 0.0
C125 C 0.18824 0.89276 0.98739 0.0
O126 O 0.19935 0.04939 0.94744 0.0
O127 O 0.2138 0.97203 0.87847 0.0
C128 C 0.32313 0.11586 0.99993 0.0
O129 O 0.1842 0.94675 1.01098 0.0
O130 O 0.23344 0.87657 0.95223 0.0
C131 C 0.38006 0.87142 0.97614 0.0
Fe132 Fe 0.75637 0.42854 0.63413 0.0
Fe133 Fe 0.66701 0.5001 0.55174 0.0
O134 O 0.74323 0.48053 0.5699 0.0
Fe135 Fe 0.80232 0.51379 0.5218 0.0
O136 O 0.85429 0.44675 0.52757 0.0
O137 O 0.80504 0.37657 0.58632 0.0
O138 O 0.68746 0.37523 0.61496 0.0
C139 C 0.65843 0.37142 0.5624 0.0
C140 C 0.8461 0.52544 0.64552 0.0
O141 O 0.6563 0.4197 0.5273 0.0
C142 C 0.71536 0.61586 0.53862 0.0
O143 O 0.71143 0.47966 0.68972 0.0
O144 O 0.6348 0.48213 0.62608 0.0
O145 O 0.83914 0.54939 0.59111 0.0
O146 O 0.82469 0.47203 0.66008 0.0
C147 C 0.70936 0.48956 0.43466 0.0
O148 O 0.6831 0.58118 0.5753 0.0
O149 O 0.76129 0.59068 0.50947 0.0
C150 C 0.65797 0.50047 0.67586 0.0
O151 O 0.68148 0.52147 0.47351 0.0
O152 O 0.76632 0.4765 0.44778 0.0
C153 C 0.85024 0.39276 0.55116 0.0
Fe154 Fe 0.78211 0.60995 0.13413 0.0
Fe155 Fe 0.87148 0.5384 0.05174 0.0
O156 O 0.79525 0.55797 0.0699 0.0
Fe157 Fe 0.73617 0.5247 0.0218 0.0
O158 O 0.6842 0.59175 0.02757 0.0
O159 O 0.73344 0.66192 0.08632 0.0
O160 O 0.85103 0.66326 0.11496 0.0
C161 C 0.88006 0.66708 0.0624 0.0
C162 C 0.69239 0.51305 0.14552 0.0
O163 O 0.88219 0.61879 0.0273 0.0
C164 C 0.82313 0.42263 0.03862 0.0
O165 O 0.82706 0.55884 0.18972 0.0
O166 O 0.90369 0.55636 0.12608 0.0
O167 O 0.69935 0.48911 0.09111 0.0
O168 O 0.7138 0.56646 0.16008 0.0
C169 C 0.82913 0.54893 0.93466 0.0
O170 O 0.85538 0.45731 0.0753 0.0
O171 O 0.7772 0.44782 1.00947 0.0
C172 C 0.88051 0.53802 0.17586 0.0
O173 O 0.857 0.51702 0.97351 0.0
O174 O 0.77217 0.562 0.94778 0.0
C175 C 0.68824 0.64574 0.05116 0.0
Fe176 Fe 0.40441 0.25637 0.10997 0.0
Fe177 Fe 0.48678 0.16699 0.03843 0.0
O178 O 0.46863 0.24322 0.05797 0.0
Fe179 Fe 0.51673 0.3023 0.02471 0.0
O180 O 0.51098 0.35427 0.09177 0.0
O181 O 0.45222 0.30503 0.16194 0.0
O182 O 0.42355 0.18746 0.16328 0.0
C183 C 0.4761 0.15843 0.16711 0.0
C184 C 0.39302 0.34611 1.01307 0.0
O185 O 0.51121 0.15631 0.11883 0.0
C186 C 0.49985 0.21537 0.92266 0.0
O187 O 0.34881 0.21145 0.05885 0.0
O188 O 0.41242 0.1348 0.0564 0.0
O189 O 0.44743 0.33914 0.98912 0.0
O190 O 0.37847 0.3247 0.06648 0.0
C191 C 0.60385 0.20933 0.04894 0.0
O192 O 0.46321 0.18303 0.95732 0.0
O193 O 0.52906 0.26127 0.94782 0.0
C194 C 0.36265 0.15798 0.03806 0.0
O195 O 0.565 0.18145 1.01704 0.0
O196 O 0.59075 0.2663 0.062 0.0
C197 C 0.48739 0.35022 0.14576 0.0
Fe198 Fe 1.01673 0.23619 1.01384 0.0
Fe199 Fe 0.90441 0.28212 0.92858 0.0
O200 O 0.96863 0.29527 0.98057 0.0
Fe201 Fe 0.98678 0.37151 1.00012 0.0
O202 O 0.065 0.35705 0.0215 0.0
O203 O 0.09075 0.2722 0.97655 0.0
O204 O 1.01098 0.18422 0.94678 0.0
C205 C 0.98739 0.18827 0.89279 0.0
C206 C 0.99985 0.32312 0.11588 0.0
O207 O 0.95222 0.23346 0.87661 0.0
C208 C 0.86265 0.38052 1.00049 0.0
O209 O 0.94743 0.19936 0.04943 0.0
O210 O 0.87847 0.2138 0.97206 0.0
O211 O 0.96321 0.35546 0.08123 0.0
O212 O 0.02906 0.27722 0.09073 0.0
C213 C 0.9761 0.38006 0.87144 0.0
O214 O 0.84881 0.32705 0.97969 0.0
O215 O 0.91242 0.4037 0.98215 0.0
C216 C 0.89302 0.19238 0.02547 0.0
O217 O 0.92355 0.35104 0.87526 0.0
O218 O 1.01121 0.38219 0.91972 0.0
C219 C 0.10385 0.32916 0.9896 0.0
Fe220 Fe 0.52175 0.8023 0.51384 0.0
Fe221 Fe 0.63408 0.75637 0.42858 0.0
O222 O 0.56986 0.74322 0.48057 0.0
Fe223 Fe 0.55171 0.66699 0.50012 0.0
O224 O 0.47349 0.68145 0.5215 0.0
O225 O 0.44774 0.7663 0.47655 0.0
O226 O 0.52751 0.85427 0.44678 0.0
C227 C 0.5511 0.85022 0.39279 0.0
C228 C 0.53864 0.71537 0.61588 0.0
O229 O 0.58627 0.80503 0.37661 0.0
C230 C 0.67584 0.65798 0.50049 0.0
O231 O 0.59106 0.83914 0.54943 0.0
O232 O 0.66002 0.8247 0.47206 0.0
O233 O 0.57527 0.68303 0.58123 0.0
O234 O 0.50943 0.76127 0.59073 0.0
C235 C 0.56239 0.65843 0.37144 0.0
O236 O 0.68968 0.71145 0.47969 0.0
O237 O 0.62606 0.6348 0.48215 0.0
C238 C 0.64547 0.84611 0.52547 0.0
O239 O 0.61494 0.68746 0.37526 0.0
O240 O 0.52728 0.65631 0.41972 0.0
C241 C 0.43463 0.70933 0.4896 0.0
Fe242 Fe 0.05171 0.87151 0.53843 0.0
Fe243 Fe 0.02175 0.73619 0.52471 0.0
O244 O 0.06986 0.79527 0.55797 0.0
Fe245 Fe 0.13408 0.78212 0.60997 0.0
O246 O 0.11494 0.85104 0.66328 0.0
O247 O 0.02728 0.88219 0.61883 0.0
O248 O 0.97349 0.85705 0.51704 0.0
C249 C 0.93463 0.82916 0.54894 0.0
C250 C 0.17584 0.88052 0.53806 0.0
O251 O 0.94774 0.7722 0.562 0.0
C252 C 0.14547 0.69238 0.51307 0.0
O253 O 0.07527 0.85546 0.45732 0.0
O254 O 1.00943 0.77722 0.44782 0.0
O255 O 0.18968 0.82705 0.55885 0.0
O256 O 0.12606 0.9037 0.5564 0.0
C257 C 0.0511 0.68827 0.64576 0.0
O258 O 0.09106 0.69936 0.48912 0.0
O259 O 0.16002 0.7138 0.56648 0.0
C260 C 0.03864 0.82312 0.42266 0.0
O261 O 0.02751 0.68422 0.59177 0.0
O262 O 0.08627 0.73346 0.66194 0.0
C263 C 0.06239 0.88006 0.66711 0.0
Fe264 Fe 0.92852 0.6341 0.78216 0.0
Fe265 Fe 1.0001 0.55172 0.87153 0.0
O266 O 0.98052 0.56988 0.7953 0.0
Fe267 Fe 1.0138 0.5218 0.73621 0.0
O268 O 0.94676 0.52757 0.68423 0.0
O269 O 0.87656 0.58628 0.73349 0.0
O270 O 0.87522 0.61495 0.85107 0.0
C271 C 0.87143 0.5624 0.88009 0.0
C272 C 0.02543 0.64552 0.69246 0.0
O273 O 0.91971 0.52729 0.88225 0.0
C274 C 0.11586 0.5386 0.82317 0.0
O275 O 0.97963 0.6897 0.82709 0.0
O276 O 0.98214 0.62607 0.90373 0.0
O277 O 0.04939 0.59111 0.6994 0.0
O278 O 0.972 0.66005 0.71383 0.0
C279 C 0.98957 0.43465 0.82916 0.0
O280 O 0.08119 0.57528 0.85543 0.0
O281 O 0.09068 0.50945 0.77724 0.0
C282 C 1.00048 0.67585 0.88054 0.0
O283 O 0.02146 0.47349 0.85706 0.0
O284 O 0.97651 0.44778 0.7722 0.0
C285 C 0.89277 0.55114 0.68827 0.0
Fe286 Fe 0.52469 0.5167 0.23621 0.0
Fe287 Fe 0.60997 0.40439 0.28216 0.0
O288 O 0.55797 0.46861 0.2953 0.0
Fe289 Fe 0.53839 0.48677 0.37153 0.0
O290 O 0.51703 0.565 0.35706 0.0
O291 O 0.56198 0.59072 0.2722 0.0
O292 O 0.59173 0.51093 0.18423 0.0
C293 C 0.64572 0.48735 0.18827 0.0
C294 C 0.42262 0.4999 0.32317 0.0
O295 O 0.66192 0.45222 0.23349 0.0
C296 C 0.538 0.36264 0.38054 0.0
O297 O 0.4891 0.44738 0.1994 0.0
O298 O 0.56649 0.37844 0.21383 0.0
O299 O 0.4573 0.46321 0.35543 0.0
O300 O 0.44781 0.52904 0.27724 0.0
C301 C 0.66706 0.4761 0.38009 0.0
O302 O 0.55885 0.34879 0.32709 0.0
O303 O 0.55635 0.41242 0.40373 0.0
C304 C 0.51306 0.39297 0.19246 0.0
O305 O 0.66327 0.42354 0.35107 0.0
O306 O 0.61878 0.51121 0.38225 0.0
C307 C 0.54892 0.60385 0.32916 0.0
Fe308 Fe 0.42852 0.90439 0.25639 0.0
Fe309 Fe 0.5001 0.98677 0.16702 0.0
O310 O 0.48052 0.96861 0.24325 0.0
Fe311 Fe 0.5138 1.0167 0.30234 0.0
O312 O 0.44676 1.01093 0.35432 0.0
O313 O 0.37656 0.95222 0.30506 0.0
O314 O 0.37522 0.92354 0.18748 0.0
C315 C 0.37143 0.9761 0.15845 0.0
C316 C 0.52543 0.89297 0.34609 0.0
O317 O 0.41971 1.01121 0.1563 0.0
C318 C 0.61586 0.9999 0.21538 0.0
O319 O 0.47963 0.84879 0.21145 0.0
O320 O 0.48214 0.91242 0.13482 0.0
O321 O 0.54939 0.94738 0.33915 0.0
O322 O 0.472 0.87844 0.32472 0.0
C323 C 0.48957 0.10385 0.20939 0.0
O324 O 0.58119 0.96321 0.18312 0.0
O325 O 0.59068 0.02904 0.26131 0.0
C326 C 0.50048 0.86264 0.15801 0.0
O327 O 0.52146 0.065 0.18149 0.0
O328 O 0.47651 0.09072 0.26635 0.0
C329 C 0.39277 0.98735 0.35027 0.0
Fe330 Fe 0.10997 0.1341 0.75639 0.0
Fe331 Fe 0.03839 0.05172 0.66702 0.0
O332 O 0.05797 0.06988 0.74325 0.0
Fe333 Fe 0.02469 0.0218 0.80234 0.0
O334 O 0.09173 0.02757 0.85432 0.0
O335 O 0.16192 0.08628 0.80506 0.0
O336 O 0.16327 0.11495 0.68748 0.0
C337 C 0.16706 0.0624 0.65845 0.0
C338 C 1.01306 0.14552 0.84609 0.0
O339 O 0.11878 0.02729 0.6563 0.0
C340 C 0.92262 0.0386 0.71538 0.0
O341 O 0.05885 0.1897 0.71145 0.0
O342 O 0.05635 0.12607 0.63482 0.0
O343 O 0.9891 0.09111 0.83915 0.0
O344 O 0.06649 0.16005 0.82472 0.0
C345 C 0.04892 0.93465 0.70939 0.0
O346 O 0.9573 0.07528 0.68312 0.0
O347 O 0.94781 1.00945 0.76131 0.0
C348 C 0.038 0.17585 0.65801 0.0
O349 O 1.01703 0.97349 0.68149 0.0
O350 O 0.06198 0.94778 0.76635 0.0
C351 C 0.14572 0.05114 0.85027 0.0
Fe352 Fe 0.78211 0.92853 0.63411 0.0
Fe353 Fe 0.87147 1.00011 0.55172 0.0
O354 O 0.79525 0.98053 0.56989 0.0
Fe355 Fe 0.73616 1.01381 0.52181 0.0
O356 O 0.68417 0.94678 0.52759 0.0
O357 O 0.73344 0.87658 0.58629 0.0
O358 O 0.85102 0.87523 0.61495 0.0
C359 C 0.88005 0.87144 0.56239 0.0
C360 C 0.69244 0.02546 0.64555 0.0
O361 O 0.8822 0.91972 0.52728 0.0
C362 C 0.82312 0.11588 0.53862 0.0
O363 O 0.82705 0.97964 0.68971 0.0
O364 O 0.90368 0.98215 0.62607 0.0
O365 O 0.69936 0.04941 0.59113 0.0
O366 O 0.7138 0.97202 0.66007 0.0
C367 C 0.8291 0.98958 0.43465 0.0
O368 O 0.85538 0.08119 0.5753 0.0
O369 O 0.7772 0.09069 0.50947 0.0
C370 C 0.88051 1.00047 0.67586 0.0
O371 O 0.85698 0.02149 0.4735 0.0
O372 O 0.77214 0.97651 0.44779 0.0
C373 C 0.68822 0.89279 0.55117 0.0
Fe374 Fe 0.80233 0.02468 0.02181 0.0
Fe375 Fe 0.75638 0.10996 0.13411 0.0
O376 O 0.74324 0.05796 0.06989 0.0
Fe377 Fe 0.66702 0.03838 0.05172 0.0
O378 O 0.6815 1.01701 0.9735 0.0
O379 O 0.76635 0.06198 0.94779 0.0
O380 O 0.85431 0.09172 0.02759 0.0
C381 C 0.85027 0.14571 0.05117 0.0
C382 C 0.71536 0.92262 0.03862 0.0
O383 O 0.80505 0.16192 0.08629 0.0
C384 C 0.65798 0.03803 0.17586 0.0
O385 O 0.83913 0.98909 0.09113 0.0
O386 O 0.82469 0.06647 0.16007 0.0
O387 O 0.68311 0.9573 0.0753 0.0
O388 O 0.76129 0.9478 1.00947 0.0
C389 C 0.65844 0.16705 0.06239 0.0
O390 O 0.71143 0.05886 0.18971 0.0
O391 O 0.63481 0.05635 0.12607 0.0
C392 C 0.84605 1.01303 0.14555 0.0
O393 O 0.68747 0.16327 0.11495 0.0
O394 O 0.65629 0.11877 0.02728 0.0
C395 C 0.70939 0.04891 0.93465 0.0
Fe396 Fe 0.23616 0.52468 0.51674 0.0
Fe397 Fe 0.28211 0.60996 0.40444 0.0
O398 O 0.29525 0.55796 0.46866 0.0
Fe399 Fe 0.37147 0.53838 0.48683 0.0
O400 O 0.35698 0.51701 0.56505 0.0
O401 O 0.27214 0.56198 0.59076 0.0
O402 O 0.18417 0.59172 0.51096 0.0
C403 C 0.18822 0.64571 0.48738 0.0
C404 C 0.32312 0.42262 0.49993 0.0
O405 O 0.23344 0.66192 0.45226 0.0
C406 C 0.38051 0.53803 0.36269 0.0
O407 O 0.19936 0.48909 0.44742 0.0
O408 O 0.2138 0.56647 0.37848 0.0
O409 O 0.35538 0.4573 0.46325 0.0
O410 O 0.2772 0.4478 0.52908 0.0
C411 C 0.38005 0.66705 0.47616 0.0
O412 O 0.32705 0.55886 0.34884 0.0
O413 O 0.40368 0.55635 0.41248 0.0
C414 C 0.19244 0.51303 0.393 0.0
O415 O 0.35102 0.66327 0.4236 0.0
O416 O 0.3822 0.61877 0.51127 0.0
C417 C 0.3291 0.54891 0.60389 0.0
Fe418 Fe 0.25638 0.42853 0.90444 0.0
Fe419 Fe 0.16702 0.50011 0.98683 0.0
O420 O 0.24324 0.48053 0.96866 0.0
Fe421 Fe 0.30233 0.51381 1.01674 0.0
O422 O 0.35431 0.44678 1.01096 0.0
O423 O 0.30505 0.37658 0.95226 0.0
O424 O 0.18747 0.37523 0.9236 0.0
C425 C 0.15844 0.37144 0.97616 0.0
C426 C 0.34605 0.52546 0.893 0.0
O427 O 0.15629 0.41972 1.01127 0.0
C428 C 0.21536 0.61588 0.99993 0.0
O429 O 0.21143 0.47964 0.84884 0.0
O430 O 0.13481 0.48215 0.91248 0.0
O431 O 0.33913 0.54941 0.94742 0.0
O432 O 0.32469 0.47202 0.87848 0.0
C433 C 0.20939 0.48958 0.10389 0.0
O434 O 0.18311 0.58119 0.96325 0.0
O435 O 0.26129 0.59069 0.02908 0.0
C436 C 0.15798 0.50047 0.86269 0.0
O437 O 0.1815 0.52149 0.06505 0.0
O438 O 0.26635 0.47651 0.09076 0.0
C439 C 0.35027 0.39279 0.98738 0.0
Fe440 Fe 0.63407 0.78212 0.92857 0.0
Fe441 Fe 0.5517 0.8715 1.00014 0.0
O442 O 0.56986 0.79527 0.98058 0.0
Fe443 Fe 0.52176 0.73618 1.01386 0.0
O444 O 0.52753 0.6842 0.94682 0.0
O445 O 0.58624 0.73346 0.87661 0.0
O446 O 0.61492 0.85103 0.87526 0.0
C447 C 0.56237 0.88006 0.87146 0.0
C448 C 0.64549 0.69243 0.02549 0.0
O449 O 0.52725 0.8822 0.91974 0.0
C450 C 0.53864 0.82312 0.1159 0.0
O451 O 0.68967 0.82705 0.97967 0.0
O452 O 0.62605 0.9037 0.98216 0.0
O453 O 0.59108 0.69937 0.04945 0.0
O454 O 0.66001 0.7138 0.97205 0.0
C455 C 0.43463 0.82913 0.98963 0.0
O456 O 0.57527 0.85546 0.08124 0.0
O457 O 0.50943 0.77722 0.09074 0.0
C458 C 0.67584 0.88051 1.00049 0.0
O459 O 0.47348 0.85703 0.02152 0.0
O460 O 0.44775 0.77217 0.97656 0.0
C461 C 0.55111 0.68824 0.89282 0.0
Fe462 Fe 0.02176 0.80231 0.02469 0.0
Fe463 Fe 0.13407 0.75638 0.10998 0.0
O464 O 0.06986 0.74323 0.05797 0.0
Fe465 Fe 0.0517 0.66699 0.03841 0.0
O466 O 0.97348 0.68147 1.01703 0.0
O467 O 0.94775 0.76632 0.06199 0.0
O468 O 0.02753 0.8543 0.09173 0.0
C469 C 0.05111 0.85025 0.14573 0.0
C470 C 0.03864 0.71538 0.92265 0.0
O471 O 0.08624 0.80503 0.16194 0.0
C472 C 0.17584 0.65799 0.03806 0.0
O473 O 0.09108 0.83913 0.9891 0.0
O474 O 0.16001 0.8247 0.0665 0.0
O475 O 0.07527 0.68304 0.95731 0.0
O476 O 1.00943 0.76128 0.94781 0.0
C477 C 0.06237 0.65844 0.16709 0.0
O478 O 0.18967 0.71145 0.05888 0.0
O479 O 0.12605 0.6348 0.05639 0.0
C480 C 0.14549 0.84607 1.01306 0.0
O481 O 0.11492 0.68746 0.16329 0.0
O482 O 0.02725 0.6563 0.11881 0.0
C483 C 0.93463 0.70936 0.04892 0.0
Fe484 Fe 0.48679 0.3715 0.53841 0.0
Fe485 Fe 0.51672 0.23618 0.52469 0.0
O486 O 0.46863 0.29527 0.55797 0.0
Fe487 Fe 0.40442 0.28212 0.60998 0.0
O488 O 0.42356 0.35103 0.66329 0.0
O489 O 0.51124 0.3822 0.61881 0.0
O490 O 0.56501 0.35703 0.51703 0.0
C491 C 0.60386 0.32913 0.54892 0.0
C492 C 0.36265 0.38051 0.53806 0.0
O493 O 0.59074 0.27217 0.56199 0.0
C494 C 0.393 0.19243 0.51306 0.0
O495 O 0.46322 0.35546 0.45731 0.0
O496 O 0.52906 0.27722 0.44781 0.0
O497 O 0.34882 0.32705 0.55888 0.0
O498 O 0.41244 0.4037 0.55639 0.0
C499 C 0.48738 0.18824 0.64573 0.0
O500 O 0.44741 0.19937 0.4891 0.0
O501 O 0.37847 0.2138 0.5665 0.0
C502 C 0.49985 0.32312 0.42265 0.0
O503 O 0.51096 0.1842 0.59173 0.0
O504 O 0.45225 0.23346 0.66194 0.0
C505 C 0.47612 0.38006 0.66709 0.0
Fe506 Fe 0.90442 0.25638 0.42857 0.0
Fe507 Fe 0.98679 0.16699 0.50014 0.0
O508 O 0.96863 0.24323 0.48058 0.0
Fe509 Fe 1.01672 0.30231 0.51386 0.0
O510 O 1.01096 0.3543 0.44682 0.0
O511 O 0.95225 0.30503 0.37661 0.0
O512 O 0.92356 0.18746 0.37526 0.0
C513 C 0.97612 0.15844 0.37146 0.0
C514 C 0.893 0.34607 0.52549 0.0
O515 O 1.01124 0.1563 0.41974 0.0
C516 C 0.99985 0.21537 0.6159 0.0
O517 O 0.84882 0.21145 0.47967 0.0
O518 O 0.91244 0.1348 0.48216 0.0
O519 O 0.94741 0.33913 0.54945 0.0
O520 O 0.87847 0.3247 0.47205 0.0
C521 C 0.10386 0.20936 0.48963 0.0
O522 O 0.96322 0.18304 0.58124 0.0
O523 O 0.02906 0.26128 0.59074 0.0
C524 C 0.86265 0.15798 0.50049 0.0
O525 O 0.06501 0.18147 0.52152 0.0
O526 O 0.09074 0.26632 0.47656 0.0
C527 C 0.98738 0.35025 0.39282 0.0
loop_
_geom_bond_atom_site_label_1
_geom_bond_atom_site_label_2
_geom_bond_distance
_geom_bond_site_symmetry_2
_ccdc_geom_bond_type
Fe0 O2 1.918 . S
Fe0 O5 1.997 . S
Fe0 O6 2.002 . S
Fe0 O11 1.976 1_455 S
Fe0 O14 1.996 1_455 S
Fe1 O2 1.918 . S
Fe1 O9 1.997 . S
Fe1 O12 1.996 . S
Fe1 O16 1.976 . S
Fe1 O19 2.002 . S
O2 Fe0 1.918 . S
O2 Fe1 1.918 . S
O2 Fe3 1.918 . S
Fe3 O2 1.918 . S
Fe3 O4 2.002 . S
Fe3 O13 1.976 1_455 S
Fe3 O17 1.996 . S
Fe3 O20 1.997 . S
O4 Fe3 2.002 . S
O4 C21 1.295 . S
O5 Fe0 1.997 . S
O5 C21 1.235 . S
O6 Fe0 2.002 . S
O6 C7 1.295 . S
C7 O6 1.295 . S
C7 O9 1.235 . S
C8 O13 1.287 . S
C8 O14 1.255 . S
O9 Fe1 1.997 . S
O9 C7 1.235 . S
C10 O16 1.287 . S
C10 O17 1.255 . S
O11 Fe0 1.976 1_655 S
O11 C18 1.287 1_655 S
O12 Fe1 1.996 . S
O12 C18 1.255 . S
O13 Fe3 1.976 1_655 S
O13 C8 1.287 . S
O14 Fe0 1.996 1_655 S
O14 C8 1.255 . S
C15 O19 1.295 . S
C15 O20 1.235 . S
O16 Fe1 1.976 . S
O16 C10 1.287 . S
O17 Fe3 1.996 . S
O17 C10 1.255 . S
C18 O11 1.287 1_455 S
C18 O12 1.255 . S
O19 Fe1 2.002 . S
O19 C15 1.295 . S
O20 Fe3 1.997 . S
O20 C15 1.235 . S
C21 O4 1.295 . S
C21 O5 1.235 . S
Fe22 O24 1.918 . S
Fe22 O27 1.997 . S
Fe22 O28 2.002 . S
Fe22 O33 1.976 . S
Fe22 O36 1.996 . S
Fe23 O24 1.918 . S
Fe23 O31 1.997 . S
Fe23 O34 1.996 . S
Fe23 O38 1.976 . S
Fe23 O41 2.002 . S
O24 Fe22 1.918 . S
O24 Fe23 1.918 . S
O24 Fe25 1.918 . S
Fe25 O24 1.918 . S
Fe25 O26 2.002 . S
Fe25 O35 1.976 . S
Fe25 O39 1.996 . S
Fe25 O42 1.997 . S
O26 Fe25 2.002 . S
O26 C43 1.295 . S
O27 Fe22 1.997 . S
O27 C43 1.235 . S
O28 Fe22 2.002 . S
O28 C29 1.295 . S
C29 O28 1.295 . S
C29 O31 1.235 . S
C30 O35 1.287 . S
C30 O36 1.255 . S
O31 Fe23 1.997 . S
O31 C29 1.235 . S
C32 O38 1.287 . S
C32 O39 1.255 . S
O33 Fe22 1.976 . S
O33 C40 1.287 . S
O34 Fe23 1.996 . S
O34 C40 1.255 . S
O35 Fe25 1.976 . S
O35 C30 1.287 . S
O36 Fe22 1.996 . S
O36 C30 1.255 . S
C37 O41 1.295 . S
C37 O42 1.235 . S
O38 Fe23 1.976 . S
O38 C32 1.287 . S
O39 Fe25 1.996 . S
O39 C32 1.255 . S
C40 O33 1.287 . S
C40 O34 1.255 . S
O41 Fe23 2.002 . S
O41 C37 1.295 . S
O42 Fe25 1.997 . S
O42 C37 1.235 . S
C43 O26 1.295 . S
C43 O27 1.235 . S
Fe44 O46 1.918 . S
Fe44 O49 1.997 . S
Fe44 O50 2.002 . S
Fe44 O55 1.976 . S
Fe44 O58 1.996 . S
Fe45 O46 1.918 . S
Fe45 O53 1.997 . S
Fe45 O56 1.996 . S
Fe45 O60 1.976 . S
Fe45 O63 2.002 1_545 S
O46 Fe44 1.918 . S
O46 Fe45 1.918 . S
O46 Fe47 1.918 . S
Fe47 O46 1.918 . S
Fe47 O48 2.002 . S
Fe47 O57 1.976 . S
Fe47 O61 1.996 . S
Fe47 O64 1.997 1_545 S
O48 Fe47 2.002 . S
O48 C65 1.295 . S
O49 Fe44 1.997 . S
O49 C65 1.235 . S
O50 Fe44 2.002 . S
O50 C51 1.295 . S
C51 O50 1.295 . S
C51 O53 1.235 . S
C52 O57 1.287 . S
C52 O58 1.255 . S
O53 Fe45 1.997 . S
O53 C51 1.235 . S
C54 O60 1.287 . S
C54 O61 1.255 . S
O55 Fe44 1.976 . S
O55 C62 1.287 . S
O56 Fe45 1.996 . S
O56 C62 1.255 . S
O57 Fe47 1.976 . S
O57 C52 1.287 . S
O58 Fe44 1.996 . S
O58 C52 1.255 . S
C59 O63 1.295 . S
C59 O64 1.235 . S
O60 Fe45 1.976 . S
O60 C54 1.287 . S
O61 Fe47 1.996 . S
O61 C54 1.255 . S
C62 O55 1.287 . S
C62 O56 1.255 . S
O63 Fe45 2.002 1_565 S
O63 C59 1.295 . S
O64 Fe47 1.997 1_565 S
O64 C59 1.235 . S
C65 O48 1.295 . S
C65 O49 1.235 . S
Fe66 O68 1.918 . S
Fe66 O71 1.997 . S
Fe66 O72 2.002 1_565 S
Fe66 O77 1.976 1_655 S
Fe66 O80 1.996 . S
Fe67 O68 1.918 . S
Fe67 O75 1.997 1_565 S
Fe67 O78 1.996 1_655 S
Fe67 O82 1.976 1_655 S
Fe67 O85 2.002 . S
O68 Fe66 1.918 . S
O68 Fe67 1.918 . S
O68 Fe69 1.918 . S
Fe69 O68 1.918 . S
Fe69 O70 2.002 . S
Fe69 O79 1.976 . S
Fe69 O83 1.996 . S
Fe69 O86 1.997 . S
O70 Fe69 2.002 . S
O70 C87 1.295 . S
O71 Fe66 1.997 . S
O71 C87 1.235 . S
O72 Fe66 2.002 1_545 S
O72 C73 1.295 . S
C73 O72 1.295 . S
C73 O75 1.235 . S
C74 O79 1.287 . S
C74 O80 1.255 . S
O75 Fe67 1.997 1_545 S
O75 C73 1.235 . S
C76 O82 1.287 1_655 S
C76 O83 1.255 . S
O77 Fe66 1.976 1_455 S
O77 C84 1.287 . S
O78 Fe67 1.996 1_455 S
O78 C84 1.255 . S
O79 Fe69 1.976 . S
O79 C74 1.287 . S
O80 Fe66 1.996 . S
O80 C74 1.255 . S
C81 O85 1.295 . S
C81 O86 1.235 . S
O82 Fe67 1.976 1_455 S
O82 C76 1.287 1_455 S
O83 Fe69 1.996 . S
O83 C76 1.255 . S
C84 O77 1.287 . S
C84 O78 1.255 . S
O85 Fe67 2.002 . S
O85 C81 1.295 . S
O86 Fe69 1.997 . S
O86 C81 1.235 . S
C87 O70 1.295 . S
C87 O71 1.235 . S
Fe88 O90 1.918 . S
Fe88 O93 1.997 . S
Fe88 O94 2.002 . S
Fe88 O99 1.976 . S
Fe88 O102 1.996 . S
Fe89 O90 1.918 . S
Fe89 O97 1.997 . S
Fe89 O100 1.996 . S
Fe89 O104 1.976 1_545 S
Fe89 O107 2.002 . S
O90 Fe88 1.918 . S
O90 Fe89 1.918 . S
O90 Fe91 1.918 . S
Fe91 O90 1.918 . S
Fe91 O92 2.002 . S
Fe91 O101 1.976 1_545 S
Fe91 O105 1.996 1_545 S
Fe91 O108 1.997 . S
O92 Fe91 2.002 . S
O92 C109 1.295 . S
O93 Fe88 1.997 . S
O93 C109 1.235 . S
O94 Fe88 2.002 . S
O94 C95 1.295 . S
C95 O94 1.295 . S
C95 O97 1.235 . S
C96 O101 1.287 1_545 S
C96 O102 1.255 . S
O97 Fe89 1.997 . S
O97 C95 1.235 . S
C98 O104 1.287 . S
C98 O105 1.255 . S
O99 Fe88 1.976 . S
O99 C106 1.287 . S
O100 Fe89 1.996 . S
O100 C106 1.255 . S
O101 Fe91 1.976 1_565 S
O101 C96 1.287 1_565 S
O102 Fe88 1.996 . S
O102 C96 1.255 . S
C103 O107 1.295 . S
C103 O108 1.235 . S
O104 Fe89 1.976 1_565 S
O104 C98 1.287 . S
O105 Fe91 1.996 1_565 S
O105 C98 1.255 . S
C106 O99 1.287 . S
C106 O100 1.255 . S
O107 Fe89 2.002 . S
O107 C103 1.295 . S
O108 Fe91 1.997 . S
O108 C103 1.235 . S
C109 O92 1.295 . S
C109 O93 1.235 . S
Fe110 O112 1.918 . S
Fe110 O115 1.997 . S
Fe110 O116 2.002 1_556 S
Fe110 O121 1.976 1_565 S
Fe110 O124 1.996 . S
Fe111 O112 1.918 . S
Fe111 O119 1.997 1_556 S
Fe111 O122 1.996 1_565 S
Fe111 O126 1.976 1_565 S
Fe111 O129 2.002 . S
O112 Fe110 1.918 . S
O112 Fe111 1.918 . S
O112 Fe113 1.918 . S
Fe113 O112 1.918 . S
Fe113 O114 2.002 . S
Fe113 O123 1.976 . S
Fe113 O127 1.996 . S
Fe113 O130 1.997 . S
O114 Fe113 2.002 . S
O114 C131 1.295 . S
O115 Fe110 1.997 . S
O115 C131 1.235 . S
O116 Fe110 2.002 1_554 S
O116 C117 1.295 . S
C117 O116 1.295 . S
C117 O119 1.235 . S
C118 O123 1.287 . S
C118 O124 1.255 . S
O119 Fe111 1.997 1_554 S
O119 C117 1.235 . S
C120 O126 1.287 1_565 S
C120 O127 1.255 . S
O121 Fe110 1.976 1_545 S
O121 C128 1.287 . S
O122 Fe111 1.996 1_545 S
O122 C128 1.255 . S
O123 Fe113 1.976 . S
O123 C118 1.287 . S
O124 Fe110 1.996 . S
O124 C118 1.255 . S
C125 O129 1.295 . S
C125 O130 1.235 . S
O126 Fe111 1.976 1_545 S
O126 C120 1.287 1_545 S
O127 Fe113 1.996 . S
O127 C120 1.255 . S
C128 O121 1.287 . S
C128 O122 1.255 . S
O129 Fe111 2.002 . S
O129 C125 1.295 . S
O130 Fe113 1.997 . S
O130 C125 1.235 . S
C131 O114 1.295 . S
C131 O115 1.235 . S
Fe132 O134 1.918 . S
Fe132 O137 1.997 . S
Fe132 O138 2.002 . S
Fe132 O143 1.976 . S
Fe132 O146 1.996 . S
Fe133 O134 1.918 . S
Fe133 O141 1.997 . S
Fe133 O144 1.996 . S
Fe133 O148 1.976 . S
Fe133 O151 2.002 . S
O134 Fe132 1.918 . S
O134 Fe133 1.918 . S
O134 Fe135 1.918 . S
Fe135 O134 1.918 . S
Fe135 O136 2.002 . S
Fe135 O145 1.976 . S
Fe135 O149 1.996 . S
Fe135 O152 1.997 . S
O136 Fe135 2.002 . S
O136 C153 1.295 . S
O137 Fe132 1.997 . S
O137 C153 1.235 . S
O138 Fe132 2.002 . S
O138 C139 1.295 . S
C139 O138 1.295 . S
C139 O141 1.235 . S
C140 O145 1.287 . S
C140 O146 1.255 . S
O141 Fe133 1.997 . S
O141 C139 1.235 . S
C142 O148 1.287 . S
C142 O149 1.255 . S
O143 Fe132 1.976 . S
O143 C150 1.287 . S
O144 Fe133 1.996 . S
O144 C150 1.255 . S
O145 Fe135 1.976 . S
O145 C140 1.287 . S
O146 Fe132 1.996 . S
O146 C140 1.255 . S
C147 O151 1.295 . S
C147 O152 1.235 . S
O148 Fe133 1.976 . S
O148 C142 1.287 . S
O149 Fe135 1.996 . S
O149 C142 1.255 . S
C150 O143 1.287 . S
C150 O144 1.255 . S
O151 Fe133 2.002 . S
O151 C147 1.295 . S
O152 Fe135 1.997 . S
O152 C147 1.235 . S
C153 O136 1.295 . S
C153 O137 1.235 . S
Fe154 O156 1.918 . S
Fe154 O159 1.997 . S
Fe154 O160 2.002 . S
Fe154 O165 1.976 . S
Fe154 O168 1.996 . S
Fe155 O156 1.918 . S
Fe155 O163 1.997 . S
Fe155 O166 1.996 . S
Fe155 O170 1.976 . S
Fe155 O173 2.002 1_554 S
O156 Fe154 1.918 . S
O156 Fe155 1.918 . S
O156 Fe157 1.918 . S
Fe157 O156 1.918 . S
Fe157 O158 2.002 . S
Fe157 O167 1.976 . S
Fe157 O171 1.996 . S
Fe157 O174 1.997 1_554 S
O158 Fe157 2.002 . S
O158 C175 1.295 . S
O159 Fe154 1.997 . S
O159 C175 1.235 . S
O160 Fe154 2.002 . S
O160 C161 1.295 . S
C161 O160 1.295 . S
C161 O163 1.235 . S
C162 O167 1.287 . S
C162 O168 1.255 . S
O163 Fe155 1.997 . S
O163 C161 1.235 . S
C164 O170 1.287 . S
C164 O171 1.255 . S
O165 Fe154 1.976 . S
O165 C172 1.287 . S
O166 Fe155 1.996 . S
O166 C172 1.255 . S
O167 Fe157 1.976 . S
O167 C162 1.287 . S
O168 Fe154 1.996 . S
O168 C162 1.255 . S
C169 O173 1.295 . S
C169 O174 1.235 . S
O170 Fe155 1.976 . S
O170 C164 1.287 . S
O171 Fe157 1.996 . S
O171 C164 1.255 . S
C172 O165 1.287 . S
C172 O166 1.255 . S
O173 Fe155 2.002 1_556 S
O173 C169 1.295 . S
O174 Fe157 1.997 1_556 S
O174 C169 1.235 . S
C175 O158 1.295 . S
C175 O159 1.235 . S
Fe176 O178 1.918 . S
Fe176 O181 1.997 . S
Fe176 O182 2.002 . S
Fe176 O187 1.976 . S
Fe176 O190 1.996 . S
Fe177 O178 1.918 . S
Fe177 O185 1.997 . S
Fe177 O188 1.996 . S
Fe177 O192 1.976 1_554 S
Fe177 O195 2.002 . S
O178 Fe176 1.918 . S
O178 Fe177 1.918 . S
O178 Fe179 1.918 . S
Fe179 O178 1.918 . S
Fe179 O180 2.002 . S
Fe179 O189 1.976 1_554 S
Fe179 O193 1.996 1_554 S
Fe179 O196 1.997 . S
O180 Fe179 2.002 . S
O180 C197 1.295 . S
O181 Fe176 1.997 . S
O181 C197 1.235 . S
O182 Fe176 2.002 . S
O182 C183 1.295 . S
C183 O182 1.295 . S
C183 O185 1.235 . S
C184 O189 1.287 1_554 S
C184 O190 1.255 . S
O185 Fe177 1.997 . S
O185 C183 1.235 . S
C186 O192 1.287 . S
C186 O193 1.255 . S
O187 Fe176 1.976 . S
O187 C194 1.287 . S
O188 Fe177 1.996 . S
O188 C194 1.255 . S
O189 Fe179 1.976 1_556 S
O189 C184 1.287 1_556 S
O190 Fe176 1.996 . S
O190 C184 1.255 . S
C191 O195 1.295 . S
C191 O196 1.235 . S
O192 Fe177 1.976 1_556 S
O192 C186 1.287 . S
O193 Fe179 1.996 1_556 S
O193 C186 1.255 . S
C194 O187 1.287 . S
C194 O188 1.255 . S
O195 Fe177 2.002 . S
O195 C191 1.295 . S
O196 Fe179 1.997 . S
O196 C191 1.235 . S
C197 O180 1.295 . S
C197 O181 1.235 . S
Fe198 O200 1.918 . S
Fe198 O203 1.997 1_655 S
Fe198 O204 2.002 . S
Fe198 O209 1.976 1_556 S
Fe198 O212 1.996 1_556 S
Fe199 O200 1.918 . S
Fe199 O207 1.997 . S
Fe199 O210 1.996 . S
Fe199 O214 1.976 . S
Fe199 O217 2.002 . S
O200 Fe198 1.918 . S
O200 Fe199 1.918 . S
O200 Fe201 1.918 . S
Fe201 O200 1.918 . S
Fe201 O202 2.002 1_655 S
Fe201 O211 1.976 1_556 S
Fe201 O215 1.996 . S
Fe201 O218 1.997 . S
O202 Fe201 2.002 1_455 S
O202 C219 1.295 . S
O203 Fe198 1.997 1_455 S
O203 C219 1.235 . S
O204 Fe198 2.002 . S
O204 C205 1.295 . S
C205 O204 1.295 . S
C205 O207 1.235 . S
C206 O211 1.287 . S
C206 O212 1.255 . S
O207 Fe199 1.997 . S
O207 C205 1.235 . S
C208 O214 1.287 . S
C208 O215 1.255 . S
O209 Fe198 1.976 1_554 S
O209 C216 1.287 1_554 S
O210 Fe199 1.996 . S
O210 C216 1.255 . S
O211 Fe201 1.976 1_554 S
O211 C206 1.287 . S
O212 Fe198 1.996 1_554 S
O212 C206 1.255 . S
C213 O217 1.295 . S
C213 O218 1.235 . S
O214 Fe199 1.976 . S
O214 C208 1.287 . S
O215 Fe201 1.996 . S
O215 C208 1.255 . S
C216 O209 1.287 1_556 S
C216 O210 1.255 . S
O217 Fe199 2.002 . S
O217 C213 1.295 . S
O218 Fe201 1.997 . S
O218 C213 1.235 . S
C219 O202 1.295 . S
C219 O203 1.235 . S
Fe220 O222 1.918 . S
Fe220 O225 1.997 . S
Fe220 O226 2.002 . S
Fe220 O231 1.976 . S
Fe220 O234 1.996 . S
Fe221 O222 1.918 . S
Fe221 O229 1.997 . S
Fe221 O232 1.996 . S
Fe221 O236 1.976 . S
Fe221 O239 2.002 . S
O222 Fe220 1.918 . S
O222 Fe221 1.918 . S
O222 Fe223 1.918 . S
Fe223 O222 1.918 . S
Fe223 O224 2.002 . S
Fe223 O233 1.976 . S
Fe223 O237 1.996 . S
Fe223 O240 1.997 . S
O224 Fe223 2.002 . S
O224 C241 1.295 . S
O225 Fe220 1.997 . S
O225 C241 1.235 . S
O226 Fe220 2.002 . S
O226 C227 1.295 . S
C227 O226 1.295 . S
C227 O229 1.235 . S
C228 O233 1.287 . S
C228 O234 1.255 . S
O229 Fe221 1.997 . S
O229 C227 1.235 . S
C230 O236 1.287 . S
C230 O237 1.255 . S
O231 Fe220 1.976 . S
O231 C238 1.287 . S
O232 Fe221 1.996 . S
O232 C238 1.255 . S
O233 Fe223 1.976 . S
O233 C228 1.287 . S
O234 Fe220 1.996 . S
O234 C228 1.255 . S
C235 O239 1.295 . S
C235 O240 1.235 . S
O236 Fe221 1.976 . S
O236 C230 1.287 . S
O237 Fe223 1.996 . S
O237 C230 1.255 . S
C238 O231 1.287 . S
C238 O232 1.255 . S
O239 Fe221 2.002 . S
O239 C235 1.295 . S
O240 Fe223 1.997 . S
O240 C235 1.235 . S
C241 O224 1.295 . S
C241 O225 1.235 . S
Fe242 O244 1.918 . S
Fe242 O247 1.997 . S
Fe242 O248 2.002 1_455 S
Fe242 O253 1.976 . S
Fe242 O256 1.996 . S
Fe243 O244 1.918 . S
Fe243 O251 1.997 1_455 S
Fe243 O254 1.996 . S
Fe243 O258 1.976 . S
Fe243 O261 2.002 . S
O244 Fe242 1.918 . S
O244 Fe243 1.918 . S
O244 Fe245 1.918 . S
Fe245 O244 1.918 . S
Fe245 O246 2.002 . S
Fe245 O255 1.976 . S
Fe245 O259 1.996 . S
Fe245 O262 1.997 . S
O246 Fe245 2.002 . S
O246 C263 1.295 . S
O247 Fe242 1.997 . S
O247 C263 1.235 . S
O248 Fe242 2.002 1_655 S
O248 C249 1.295 . S
C249 O248 1.295 . S
C249 O251 1.235 . S
C250 O255 1.287 . S
C250 O256 1.255 . S
O251 Fe243 1.997 1_655 S
O251 C249 1.235 . S
C252 O258 1.287 . S
C252 O259 1.255 . S
O253 Fe242 1.976 . S
O253 C260 1.287 . S
O254 Fe243 1.996 . S
O254 C260 1.255 . S
O255 Fe245 1.976 . S
O255 C250 1.287 . S
O256 Fe242 1.996 . S
O256 C250 1.255 . S
C257 O261 1.295 . S
C257 O262 1.235 . S
O258 Fe243 1.976 . S
O258 C252 1.287 . S
O259 Fe245 1.996 . S
O259 C252 1.255 . S
C260 O253 1.287 . S
C260 O254 1.255 . S
O261 Fe243 2.002 . S
O261 C257 1.295 . S
O262 Fe245 1.997 . S
O262 C257 1.235 . S
C263 O246 1.295 . S
C263 O247 1.235 . S
Fe264 O266 1.918 . S
Fe264 O269 1.997 . S
Fe264 O270 2.002 . S
Fe264 O275 1.976 . S
Fe264 O278 1.996 . S
Fe265 O266 1.918 . S
Fe265 O273 1.997 . S
Fe265 O276 1.996 . S
Fe265 O280 1.976 1_655 S
Fe265 O283 2.002 . S
O266 Fe264 1.918 . S
O266 Fe265 1.918 . S
O266 Fe267 1.918 . S
Fe267 O266 1.918 . S
Fe267 O268 2.002 . S
Fe267 O277 1.976 1_655 S
Fe267 O281 1.996 1_655 S
Fe267 O284 1.997 . S
O268 Fe267 2.002 . S
O268 C285 1.295 . S
O269 Fe264 1.997 . S
O269 C285 1.235 . S
O270 Fe264 2.002 . S
O270 C271 1.295 . S
C271 O270 1.295 . S
C271 O273 1.235 . S
C272 O277 1.287 1_655 S
C272 O278 1.255 . S
O273 Fe265 1.997 . S
O273 C271 1.235 . S
C274 O280 1.287 . S
C274 O281 1.255 . S
O275 Fe264 1.976 . S
O275 C282 1.287 . S
O276 Fe265 1.996 . S
O276 C282 1.255 . S
O277 Fe267 1.976 1_455 S
O277 C272 1.287 1_455 S
O278 Fe264 1.996 . S
O278 C272 1.255 . S
C279 O283 1.295 . S
C279 O284 1.235 . S
O280 Fe265 1.976 1_455 S
O280 C274 1.287 . S
O281 Fe267 1.996 1_455 S
O281 C274 1.255 . S
C282 O275 1.287 . S
C282 O276 1.255 . S
O283 Fe265 2.002 . S
O283 C279 1.295 . S
O284 Fe267 1.997 . S
O284 C279 1.235 . S
C285 O268 1.295 . S
C285 O269 1.235 . S
Fe286 O288 1.918 . S
Fe286 O291 1.997 . S
Fe286 O292 2.002 . S
Fe286 O297 1.976 . S
Fe286 O300 1.996 . S
Fe287 O288 1.918 . S
Fe287 O295 1.997 . S
Fe287 O298 1.996 . S
Fe287 O302 1.976 . S
Fe287 O305 2.002 . S
O288 Fe286 1.918 . S
O288 Fe287 1.918 . S
O288 Fe289 1.918 . S
Fe289 O288 1.918 . S
Fe289 O290 2.002 . S
Fe289 O299 1.976 . S
Fe289 O303 1.996 . S
Fe289 O306 1.997 . S
O290 Fe289 2.002 . S
O290 C307 1.295 . S
O291 Fe286 1.997 . S
O291 C307 1.235 . S
O292 Fe286 2.002 . S
O292 C293 1.295 . S
C293 O292 1.295 . S
C293 O295 1.235 . S
C294 O299 1.287 . S
C294 O300 1.255 . S
O295 Fe287 1.997 . S
O295 C293 1.235 . S
C296 O302 1.287 . S
C296 O303 1.255 . S
O297 Fe286 1.976 . S
O297 C304 1.287 . S
O298 Fe287 1.996 . S
O298 C304 1.255 . S
O299 Fe289 1.976 . S
O299 C294 1.287 . S
O300 Fe286 1.996 . S
O300 C294 1.255 . S
C301 O305 1.295 . S
C301 O306 1.235 . S
O302 Fe287 1.976 . S
O302 C296 1.287 . S
O303 Fe289 1.996 . S
O303 C296 1.255 . S
C304 O297 1.287 . S
C304 O298 1.255 . S
O305 Fe287 2.002 . S
O305 C301 1.295 . S
O306 Fe289 1.997 . S
O306 C301 1.235 . S
C307 O290 1.295 . S
C307 O291 1.235 . S
Fe308 O310 1.918 . S
Fe308 O313 1.997 . S
Fe308 O314 2.002 . S
Fe308 O319 1.976 . S
Fe308 O322 1.996 . S
Fe309 O310 1.918 . S
Fe309 O317 1.997 . S
Fe309 O320 1.996 . S
Fe309 O324 1.976 . S
Fe309 O327 2.002 1_565 S
O310 Fe308 1.918 . S
O310 Fe309 1.918 . S
O310 Fe311 1.918 . S
Fe311 O310 1.918 . S
Fe311 O312 2.002 . S
Fe311 O321 1.976 . S
Fe311 O325 1.996 . S
Fe311 O328 1.997 1_565 S
O312 Fe311 2.002 . S
O312 C329 1.295 . S
O313 Fe308 1.997 . S
O313 C329 1.235 . S
O314 Fe308 2.002 . S
O314 C315 1.295 . S
C315 O314 1.295 . S
C315 O317 1.235 . S
C316 O321 1.287 . S
C316 O322 1.255 . S
O317 Fe309 1.997 . S
O317 C315 1.235 . S
C318 O324 1.287 . S
C318 O325 1.255 . S
O319 Fe308 1.976 . S
O319 C326 1.287 . S
O320 Fe309 1.996 . S
O320 C326 1.255 . S
O321 Fe311 1.976 . S
O321 C316 1.287 . S
O322 Fe308 1.996 . S
O322 C316 1.255 . S
C323 O327 1.295 . S
C323 O328 1.235 . S
O324 Fe309 1.976 . S
O324 C318 1.287 . S
O325 Fe311 1.996 . S
O325 C318 1.255 . S
C326 O319 1.287 . S
C326 O320 1.255 . S
O327 Fe309 2.002 1_545 S
O327 C323 1.295 . S
O328 Fe311 1.997 1_545 S
O328 C323 1.235 . S
C329 O312 1.295 . S
C329 O313 1.235 . S
Fe330 O332 1.918 . S
Fe330 O335 1.997 . S
Fe330 O336 2.002 . S
Fe330 O341 1.976 . S
Fe330 O344 1.996 . S
Fe331 O332 1.918 . S
Fe331 O339 1.997 . S
Fe331 O342 1.996 . S
Fe331 O346 1.976 1_455 S
Fe331 O349 2.002 1_545 S
O332 Fe330 1.918 . S
O332 Fe331 1.918 . S
O332 Fe333 1.918 . S
Fe333 O332 1.918 . S
Fe333 O334 2.002 . S
Fe333 O343 1.976 1_455 S
Fe333 O347 1.996 1_455 S
Fe333 O350 1.997 1_545 S
O334 Fe333 2.002 . S
O334 C351 1.295 . S
O335 Fe330 1.997 . S
O335 C351 1.235 . S
O336 Fe330 2.002 . S
O336 C337 1.295 . S
C337 O336 1.295 . S
C337 O339 1.235 . S
C338 O343 1.287 1_455 S
C338 O344 1.255 . S
O339 Fe331 1.997 . S
O339 C337 1.235 . S
C340 O346 1.287 . S
C340 O347 1.255 . S
O341 Fe330 1.976 . S
O341 C348 1.287 . S
O342 Fe331 1.996 . S
O342 C348 1.255 . S
O343 Fe333 1.976 1_655 S
O343 C338 1.287 1_655 S
O344 Fe330 1.996 . S
O344 C338 1.255 . S
C345 O349 1.295 . S
C345 O350 1.235 . S
O346 Fe331 1.976 1_655 S
O346 C340 1.287 . S
O347 Fe333 1.996 1_655 S
O347 C340 1.255 . S
C348 O341 1.287 . S
C348 O342 1.255 . S
O349 Fe331 2.002 1_565 S
O349 C345 1.295 . S
O350 Fe333 1.997 1_565 S
O350 C345 1.235 . S
C351 O334 1.295 . S
C351 O335 1.235 . S
Fe352 O354 1.918 . S
Fe352 O357 1.997 . S
Fe352 O358 2.002 . S
Fe352 O363 1.976 . S
Fe352 O366 1.996 . S
Fe353 O354 1.918 . S
Fe353 O361 1.997 . S
Fe353 O364 1.996 . S
Fe353 O368 1.976 1_565 S
Fe353 O371 2.002 . S
O354 Fe352 1.918 . S
O354 Fe353 1.918 . S
O354 Fe355 1.918 . S
Fe355 O354 1.918 . S
Fe355 O356 2.002 . S
Fe355 O365 1.976 1_565 S
Fe355 O369 1.996 1_565 S
Fe355 O372 1.997 . S
O356 Fe355 2.002 . S
O356 C373 1.295 . S
O357 Fe352 1.997 . S
O357 C373 1.235 . S
O358 Fe352 2.002 . S
O358 C359 1.295 . S
C359 O358 1.295 . S
C359 O361 1.235 . S
C360 O365 1.287 1_565 S
C360 O366 1.255 . S
O361 Fe353 1.997 . S
O361 C359 1.235 . S
C362 O368 1.287 . S
C362 O369 1.255 . S
O363 Fe352 1.976 . S
O363 C370 1.287 . S
O364 Fe353 1.996 . S
O364 C370 1.255 . S
O365 Fe355 1.976 1_545 S
O365 C360 1.287 1_545 S
O366 Fe352 1.996 . S
O366 C360 1.255 . S
C367 O371 1.295 . S
C367 O372 1.235 . S
O368 Fe353 1.976 1_545 S
O368 C362 1.287 . S
O369 Fe355 1.996 1_545 S
O369 C362 1.255 . S
C370 O363 1.287 . S
C370 O364 1.255 . S
O371 Fe353 2.002 . S
O371 C367 1.295 . S
O372 Fe355 1.997 . S
O372 C367 1.235 . S
C373 O356 1.295 . S
C373 O357 1.235 . S
Fe374 O376 1.918 . S
Fe374 O379 1.997 1_554 S
Fe374 O380 2.002 . S
Fe374 O385 1.976 1_545 S
Fe374 O388 1.996 1_545 S
Fe375 O376 1.918 . S
Fe375 O383 1.997 . S
Fe375 O386 1.996 . S
Fe375 O390 1.976 . S
Fe375 O393 2.002 . S
O376 Fe374 1.918 . S
O376 Fe375 1.918 . S
O376 Fe377 1.918 . S
Fe377 O376 1.918 . S
Fe377 O378 2.002 1_554 S
Fe377 O387 1.976 1_545 S
Fe377 O391 1.996 . S
Fe377 O394 1.997 . S
O378 Fe377 2.002 1_556 S
O378 C395 1.295 . S
O379 Fe374 1.997 1_556 S
O379 C395 1.235 . S
O380 Fe374 2.002 . S
O380 C381 1.295 . S
C381 O380 1.295 . S
C381 O383 1.235 . S
C382 O387 1.287 . S
C382 O388 1.255 . S
O383 Fe375 1.997 . S
O383 C381 1.235 . S
C384 O390 1.287 . S
C384 O391 1.255 . S
O385 Fe374 1.976 1_565 S
O385 C392 1.287 1_565 S
O386 Fe375 1.996 . S
O386 C392 1.255 . S
O387 Fe377 1.976 1_565 S
O387 C382 1.287 . S
O388 Fe374 1.996 1_565 S
O388 C382 1.255 . S
C389 O393 1.295 . S
C389 O394 1.235 . S
O390 Fe375 1.976 . S
O390 C384 1.287 . S
O391 Fe377 1.996 . S
O391 C384 1.255 . S
C392 O385 1.287 1_545 S
C392 O386 1.255 . S
O393 Fe375 2.002 . S
O393 C389 1.295 . S
O394 Fe377 1.997 . S
O394 C389 1.235 . S
C395 O378 1.295 . S
C395 O379 1.235 . S
Fe396 O398 1.918 . S
Fe396 O401 1.997 . S
Fe396 O402 2.002 . S
Fe396 O407 1.976 . S
Fe396 O410 1.996 . S
Fe397 O398 1.918 . S
Fe397 O405 1.997 . S
Fe397 O408 1.996 . S
Fe397 O412 1.976 . S
Fe397 O415 2.002 . S
O398 Fe396 1.918 . S
O398 Fe397 1.918 . S
O398 Fe399 1.918 . S
Fe399 O398 1.918 . S
Fe399 O400 2.002 . S
Fe399 O409 1.976 . S
Fe399 O413 1.996 . S
Fe399 O416 1.997 . S
O400 Fe399 2.002 . S
O400 C417 1.295 . S
O401 Fe396 1.997 . S
O401 C417 1.235 . S
O402 Fe396 2.002 . S
O402 C403 1.295 . S
C403 O402 1.295 . S
C403 O405 1.235 . S
C404 O409 1.287 . S
C404 O410 1.255 . S
O405 Fe397 1.997 . S
O405 C403 1.235 . S
C406 O412 1.287 . S
C406 O413 1.255 . S
O407 Fe396 1.976 . S
O407 C414 1.287 . S
O408 Fe397 1.996 . S
O408 C414 1.255 . S
O409 Fe399 1.976 . S
O409 C404 1.287 . S
O410 Fe396 1.996 . S
O410 C404 1.255 . S
C411 O415 1.295 . S
C411 O416 1.235 . S
O412 Fe397 1.976 . S
O412 C406 1.287 . S
O413 Fe399 1.996 . S
O413 C406 1.255 . S
C414 O407 1.287 . S
C414 O408 1.255 . S
O415 Fe397 2.002 . S
O415 C411 1.295 . S
O416 Fe399 1.997 . S
O416 C411 1.235 . S
C417 O400 1.295 . S
C417 O401 1.235 . S
Fe418 O420 1.918 . S
Fe418 O423 1.997 . S
Fe418 O424 2.002 . S
Fe418 O429 1.976 . S
Fe418 O432 1.996 . S
Fe419 O420 1.918 . S
Fe419 O427 1.997 . S
Fe419 O430 1.996 . S
Fe419 O434 1.976 . S
Fe419 O437 2.002 1_556 S
O420 Fe418 1.918 . S
O420 Fe419 1.918 . S
O420 Fe421 1.918 . S
Fe421 O420 1.918 . S
Fe421 O422 2.002 . S
Fe421 O431 1.976 . S
Fe421 O435 1.996 . S
Fe421 O438 1.997 1_556 S
O422 Fe421 2.002 . S
O422 C439 1.295 . S
O423 Fe418 1.997 . S
O423 C439 1.235 . S
O424 Fe418 2.002 . S
O424 C425 1.295 . S
C425 O424 1.295 . S
C425 O427 1.235 . S
C426 O431 1.287 . S
C426 O432 1.255 . S
O427 Fe419 1.997 . S
O427 C425 1.235 . S
C428 O434 1.287 . S
C428 O435 1.255 . S
O429 Fe418 1.976 . S
O429 C436 1.287 . S
O430 Fe419 1.996 . S
O430 C436 1.255 . S
O431 Fe421 1.976 . S
O431 C426 1.287 . S
O432 Fe418 1.996 . S
O432 C426 1.255 . S
C433 O437 1.295 . S
C433 O438 1.235 . S
O434 Fe419 1.976 . S
O434 C428 1.287 . S
O435 Fe421 1.996 . S
O435 C428 1.255 . S
C436 O429 1.287 . S
C436 O430 1.255 . S
O437 Fe419 2.002 1_554 S
O437 C433 1.295 . S
O438 Fe421 1.997 1_554 S
O438 C433 1.235 . S
C439 O422 1.295 . S
C439 O423 1.235 . S
Fe440 O442 1.918 . S
Fe440 O445 1.997 . S
Fe440 O446 2.002 . S
Fe440 O451 1.976 . S
Fe440 O454 1.996 . S
Fe441 O442 1.918 . S
Fe441 O449 1.997 . S
Fe441 O452 1.996 . S
Fe441 O456 1.976 1_556 S
Fe441 O459 2.002 . S
O442 Fe440 1.918 . S
O442 Fe441 1.918 . S
O442 Fe443 1.918 . S
Fe443 O442 1.918 . S
Fe443 O444 2.002 . S
Fe443 O453 1.976 1_556 S
Fe443 O457 1.996 1_556 S
Fe443 O460 1.997 . S
O444 Fe443 2.002 . S
O444 C461 1.295 . S
O445 Fe440 1.997 . S
O445 C461 1.235 . S
O446 Fe440 2.002 . S
O446 C447 1.295 . S
C447 O446 1.295 . S
C447 O449 1.235 . S
C448 O453 1.287 1_556 S
C448 O454 1.255 . S
O449 Fe441 1.997 . S
O449 C447 1.235 . S
C450 O456 1.287 . S
C450 O457 1.255 . S
O451 Fe440 1.976 . S
O451 C458 1.287 . S
O452 Fe441 1.996 . S
O452 C458 1.255 . S
O453 Fe443 1.976 1_554 S
O453 C448 1.287 1_554 S
O454 Fe440 1.996 . S
O454 C448 1.255 . S
C455 O459 1.295 . S
C455 O460 1.235 . S
O456 Fe441 1.976 1_554 S
O456 C450 1.287 . S
O457 Fe443 1.996 1_554 S
O457 C450 1.255 . S
C458 O451 1.287 . S
C458 O452 1.255 . S
O459 Fe441 2.002 . S
O459 C455 1.295 . S
O460 Fe443 1.997 . S
O460 C455 1.235 . S
C461 O444 1.295 . S
C461 O445 1.235 . S
Fe462 O464 1.918 . S
Fe462 O467 1.997 1_455 S
Fe462 O468 2.002 . S
Fe462 O473 1.976 1_554 S
Fe462 O476 1.996 1_554 S
Fe463 O464 1.918 . S
Fe463 O471 1.997 . S
Fe463 O474 1.996 . S
Fe463 O478 1.976 . S
Fe463 O481 2.002 . S
O464 Fe462 1.918 . S
O464 Fe463 1.918 . S
O464 Fe465 1.918 . S
Fe465 O464 1.918 . S
Fe465 O466 2.002 1_455 S
Fe465 O475 1.976 1_554 S
Fe465 O479 1.996 . S
Fe465 O482 1.997 . S
O466 Fe465 2.002 1_655 S
O466 C483 1.295 . S
O467 Fe462 1.997 1_655 S
O467 C483 1.235 . S
O468 Fe462 2.002 . S
O468 C469 1.295 . S
C469 O468 1.295 . S
C469 O471 1.235 . S
C470 O475 1.287 . S
C470 O476 1.255 . S
O471 Fe463 1.997 . S
O471 C469 1.235 . S
C472 O478 1.287 . S
C472 O479 1.255 . S
O473 Fe462 1.976 1_556 S
O473 C480 1.287 1_556 S
O474 Fe463 1.996 . S
O474 C480 1.255 . S
O475 Fe465 1.976 1_556 S
O475 C470 1.287 . S
O476 Fe462 1.996 1_556 S
O476 C470 1.255 . S
C477 O481 1.295 . S
C477 O482 1.235 . S
O478 Fe463 1.976 . S
O478 C472 1.287 . S
O479 Fe465 1.996 . S
O479 C472 1.255 . S
C480 O473 1.287 1_554 S
C480 O474 1.255 . S
O481 Fe463 2.002 . S
O481 C477 1.295 . S
O482 Fe465 1.997 . S
O482 C477 1.235 . S
C483 O466 1.295 . S
C483 O467 1.235 . S
Fe484 O486 1.918 . S
Fe484 O489 1.997 . S
Fe484 O490 2.002 . S
Fe484 O495 1.976 . S
Fe484 O498 1.996 . S
Fe485 O486 1.918 . S
Fe485 O493 1.997 . S
Fe485 O496 1.996 . S
Fe485 O500 1.976 . S
Fe485 O503 2.002 . S
O486 Fe484 1.918 . S
O486 Fe485 1.918 . S
O486 Fe487 1.918 . S
Fe487 O486 1.918 . S
Fe487 O488 2.002 . S
Fe487 O497 1.976 . S
Fe487 O501 1.996 . S
Fe487 O504 1.997 . S
O488 Fe487 2.002 . S
O488 C505 1.295 . S
O489 Fe484 1.997 . S
O489 C505 1.235 . S
O490 Fe484 2.002 . S
O490 C491 1.295 . S
C491 O490 1.295 . S
C491 O493 1.235 . S
C492 O497 1.287 . S
C492 O498 1.255 . S
O493 Fe485 1.997 . S
O493 C491 1.235 . S
C494 O500 1.287 . S
C494 O501 1.255 . S
O495 Fe484 1.976 . S
O495 C502 1.287 . S
O496 Fe485 1.996 . S
O496 C502 1.255 . S
O497 Fe487 1.976 . S
O497 C492 1.287 . S
O498 Fe484 1.996 . S
O498 C492 1.255 . S
C499 O503 1.295 . S
C499 O504 1.235 . S
O500 Fe485 1.976 . S
O500 C494 1.287 . S
O501 Fe487 1.996 . S
O501 C494 1.255 . S
C502 O495 1.287 . S
C502 O496 1.255 . S
O503 Fe485 2.002 . S
O503 C499 1.295 . S
O504 Fe487 1.997 . S
O504 C499 1.235 . S
C505 O488 1.295 . S
C505 O489 1.235 . S
Fe506 O508 1.918 . S
Fe506 O511 1.997 . S
Fe506 O512 2.002 . S
Fe506 O517 1.976 . S
Fe506 O520 1.996 . S
Fe507 O508 1.918 . S
Fe507 O515 1.997 . S
Fe507 O518 1.996 . S
Fe507 O522 1.976 . S
Fe507 O525 2.002 1_655 S
O508 Fe506 1.918 . S
O508 Fe507 1.918 . S
O508 Fe509 1.918 . S
Fe509 O508 1.918 . S
Fe509 O510 2.002 . S
Fe509 O519 1.976 . S
Fe509 O523 1.996 . S
Fe509 O526 1.997 1_655 S
O510 Fe509 2.002 . S
O510 C527 1.295 . S
O511 Fe506 1.997 . S
O511 C527 1.235 . S
O512 Fe506 2.002 . S
O512 C513 1.295 . S
C513 O512 1.295 . S
C513 O515 1.235 . S
C514 O519 1.287 . S
C514 O520 1.255 . S
O515 Fe507 1.997 . S
O515 C513 1.235 . S
C516 O522 1.287 . S
C516 O523 1.255 . S
O517 Fe506 1.976 . S
O517 C524 1.287 . S
O518 Fe507 1.996 . S
O518 C524 1.255 . S
O519 Fe509 1.976 . S
O519 C514 1.287 . S
O520 Fe506 1.996 . S
O520 C514 1.255 . S
C521 O525 1.295 . S
C521 O526 1.235 . S
O522 Fe507 1.976 . S
O522 C516 1.287 . S
O523 Fe509 1.996 . S
O523 C516 1.255 . S
C524 O517 1.287 . S
C524 O518 1.255 . S
O525 Fe507 2.002 1_455 S
O525 C521 1.295 . S
O526 Fe509 1.997 1_455 S
O526 C521 1.235 . S
C527 O510 1.295 . S
C527 O511 1.235 . S
C7 C414 1.419 . S
C426 C29 1.419 . S
C65 C360 1.419 1_545 S
C81 C392 1.419 1_565 S
C494 C109 1.419 . S
C125 C480 1.419 1_556 S
C514 C153 1.419 . S
C175 C448 1.419 1_554 S
C197 C304 1.419 . S
C205 C338 1.419 1_655 S
C316 C227 1.419 . S
C257 C272 1.419 1_455 S
C285 C140 1.419 . S
C293 C162 1.419 . S
C329 C96 1.419 1_565 S
C120 C351 1.419 1_565 S
C373 C238 1.419 . S
C216 C381 1.419 1_556 S
C252 C403 1.419 . S
C184 C439 1.419 1_554 S
C40 C461 1.419 . S
C76 C469 1.419 1_655 S
C52 C499 1.419 . S
C527 C18 1.419 1_655 S
C433 C15 1.351 . S
C417 C37 1.351 . S
C51 C395 1.351 . S
C367 C87 1.351 . S
C95 C521 1.351 . S
C131 C455 1.351 . S
C491 C139 1.351 . S
C161 C483 1.351 . S
C323 C183 1.351 . S
C279 C213 1.351 . S
C307 C235 1.351 . S
C345 C263 1.351 . S
C271 C169 1.351 . S
C301 C147 1.351 . S
C117 C315 1.351 . S
C103 C337 1.351 . S
C249 C359 1.351 . S
C389 C191 1.351 . S
C241 C411 1.351 . S
C219 C425 1.351 . S
C447 C59 1.351 . S
C477 C21 1.351 . S
C43 C505 1.351 . S
C73 C513 1.351 . S
C10 C206 1.254 1_455 S
C228 C32 1.254 . S
C186 C62 1.254 . S
C260 C74 1.254 1_455 S
C106 C84 1.254 1_545 S
C54 C118 1.254 1_545 S
C150 C30 1.254 . S
C8 C172 1.254 . S
C194 C128 1.254 1_554 S
C208 C164 1.254 1_556 S
C230 C142 1.254 . S
C250 C98 1.254 . S
C282 C470 1.254 1_655 S
C296 C502 1.254 . S
C450 C326 1.254 . S
C516 C348 1.254 1_655 S
C370 C340 1.254 1_565 S
C384 C318 1.254 1_545 S
C294 C406 1.254 . S
C436 C274 1.254 . S
C458 C382 1.254 1_556 S
C428 C472 1.254 1_556 S
C492 C404 1.254 . S
C524 C362 1.254 . S
