# Generated by pormake.
# Topology yfz, (5)-cn, num edge types: 1
# Building blocks:
#     Node 0, Type 0, BuildingBlock: XOMCOT_clean_sbu_1, # of connection points: 5
#     Node 1, Type 0, BuildingBlock: XOMCOT_clean_sbu_1, # of connection points: 5
#     Node 2, Type 0, BuildingBlock: XOMCOT_clean_sbu_1, # of connection points: 5
#     Node 3, Type 0, BuildingBlock: XOMCOT_clean_sbu_1, # of connection points: 5
#     Node 4, Type 0, BuildingBlock: XOMCOT_clean_sbu_1, # of connection points: 5
#     Node 5, Type 0, BuildingBlock: XOMCOT_clean_sbu_1, # of connection points: 5
#     Node 6, Type 0, BuildingBlock: XOMCOT_clean_sbu_1, # of connection points: 5
#     Node 7, Type 0, BuildingBlock: XOMCOT_clean_sbu_1, # of connection points: 5
#     Edge 8, Type (0, 0), BuildingBlock: AJUNOK_clean_linker_0, # of connection points: 2
#     Edge 9, Type (0, 0), BuildingBlock: AJUNOK_clean_linker_0, # of connection points: 2
#     Edge 10, Type (0, 0), BuildingBlock: AJUNOK_clean_linker_0, # of connection points: 2
#     Edge 11, Type (0, 0), BuildingBlock: AJUNOK_clean_linker_0, # of connection points: 2
#     Edge 12, Type (0, 0), BuildingBlock: AJUNOK_clean_linker_0, # of connection points: 2
#     Edge 13, Type (0, 0), BuildingBlock: AJUNOK_clean_linker_0, # of connection points: 2
#     Edge 14, Type (0, 0), BuildingBlock: AJUNOK_clean_linker_0, # of connection points: 2
#     Edge 15, Type (0, 0), BuildingBlock: AJUNOK_clean_linker_0, # of connection points: 2
#     Edge 16, Type (0, 0), BuildingBlock: AJUNOK_clean_linker_0, # of connection points: 2
#     Edge 17, Type (0, 0), BuildingBlock: AJUNOK_clean_linker_0, # of connection points: 2
#     Edge 18, Type (0, 0), BuildingBlock: AJUNOK_clean_linker_0, # of connection points: 2
#     Edge 19, Type (0, 0), BuildingBlock: AJUNOK_clean_linker_0, # of connection points: 2
#     Edge 20, Type (0, 0), BuildingBlock: AJUNOK_clean_linker_0, # of connection points: 2
#     Edge 21, Type (0, 0), BuildingBlock: AJUNOK_clean_linker_0, # of connection points: 2
#     Edge 22, Type (0, 0), BuildingBlock: AJUNOK_clean_linker_0, # of connection points: 2
#     Edge 23, Type (0, 0), BuildingBlock: AJUNOK_clean_linker_0, # of connection points: 2
#     Edge 24, Type (0, 0), BuildingBlock: AJUNOK_clean_linker_0, # of connection points: 2
#     Edge 25, Type (0, 0), BuildingBlock: AJUNOK_clean_linker_0, # of connection points: 2
#     Edge 26, Type (0, 0), BuildingBlock: AJUNOK_clean_linker_0, # of connection points: 2
#     Edge 27, Type (0, 0), BuildingBlock: AJUNOK_clean_linker_0, # of connection points: 2
# Relax obj value: 0.151
# Max RMSD: 0.137
# Mean RMSD: 0.137
data_MOF--net-yfz--node1-XOMCOT_clean_sbu_1--edge1-AJUNOK_clean_linker_0
_symmetry_space_group_name_H-M    P1
_symmetry_Int_Tables_number       1
_symmetry_cell_setting            triclinic
loop_
_symmetry_equiv_pos_as_xyz
'x, y, z'
_cell_length_a     39.64732
_cell_length_b     39.653845
_cell_length_c     13.483051
_cell_angle_alpha  89.65996
_cell_angle_beta   89.914276
_cell_angle_gamma 90.037491
loop_
_atom_site_label
_atom_site_type_symbol
_atom_site_fract_x
_atom_site_fract_y
_atom_site_fract_z
_atom_type_partial_charge
C0 C 0.53923 0.05521 0.19958 0.0
C1 C 0.539 0.05435 0.09737 0.0
N2 N 0.54386 0.08592 0.0632 0.0
N3 N 0.54379 0.08729 0.22988 0.0
C4 C 0.54618 0.10536 0.14464 0.0
H5 H 0.5376 0.03345 0.24779 0.0
Co6 Co 0.55152 0.10336 0.35878 0.0
C7 C 0.51017 0.16542 0.359 0.0
O8 O 0.49561 0.15701 0.44316 0.0
N9 N 0.55991 0.11979 0.48776 0.0
C10 C 0.57127 0.15355 0.61507 0.0
C11 C 0.56986 0.15117 0.51323 0.0
C12 C 0.55646 0.10344 0.57556 0.0
N13 N 0.56279 0.12338 0.65415 0.0
O14 O 0.50809 0.08634 0.40182 0.0
H15 H 0.57483 0.17143 0.46119 0.0
H16 H 0.54949 0.0773 0.58289 0.0
O17 O 0.53198 0.146 0.32011 0.0
C18 C 0.51131 0.0564 0.43552 0.0
O19 O 0.54126 0.04225 0.43112 0.0
N20 N 0.59467 0.11713 0.31921 0.0
C21 C 0.6607 0.12531 0.25102 0.0
C22 C 0.63637 0.15046 0.23428 0.0
C23 C 0.60349 0.14608 0.27009 0.0
C24 C 0.61804 0.09285 0.33799 0.0
C25 C 0.65121 0.09648 0.30513 0.0
H26 H 0.5851 0.16549 0.2549 0.0
H27 H 0.61057 0.07013 0.37701 0.0
H28 H 0.55036 0.13227 0.14193 0.0
H29 H 0.53708 0.03206 0.05176 0.0
H30 H 0.57684 0.17611 0.65671 0.0
H31 H 0.6423 0.17282 0.19122 0.0
H32 H 0.66919 0.07664 0.32107 0.0
C33 C 0.41666 0.56485 0.757 0.0
C34 C 0.42028 0.5662 0.65539 0.0
N35 N 0.39321 0.55124 0.61459 0.0
N36 N 0.38739 0.54927 0.77988 0.0
C37 C 0.3739 0.54091 0.69142 0.0
H38 H 0.43361 0.57572 0.81087 0.0
Co39 Co 0.36954 0.54668 0.90765 0.0
C40 C 0.29554 0.54326 0.87789 0.0
O41 O 0.29275 0.56562 0.94909 0.0
N42 N 0.35285 0.54324 0.03939 0.0
C43 C 0.33006 0.51889 0.17306 0.0
C44 C 0.33036 0.51993 0.07146 0.0
C45 C 0.36703 0.55479 0.12413 0.0
N46 N 0.35337 0.54065 0.20655 0.0
O47 O 0.38409 0.50067 0.92015 0.0
H48 H 0.31683 0.50262 0.02439 0.0
H49 H 0.38941 0.57024 0.12555 0.0
O50 O 0.32498 0.53272 0.85356 0.0
C51 C 0.41199 0.50206 0.96684 0.0
O52 O 0.42539 0.53186 0.98287 0.0
N53 N 0.35872 0.5931 0.89736 0.0
C54 C 0.35607 0.66288 0.86804 0.0
C55 C 0.33575 0.64134 0.81201 0.0
C56 C 0.33819 0.60648 0.82567 0.0
C57 C 0.37931 0.61386 0.95032 0.0
C58 C 0.37822 0.64883 0.9375 0.0
H59 H 0.32489 0.59044 0.77457 0.0
H60 H 0.39845 0.60328 0.99776 0.0
H61 H 0.3496 0.52911 0.68263 0.0
H62 H 0.44088 0.57772 0.61471 0.0
H63 H 0.31512 0.50194 0.21849 0.0
H64 H 0.3195 0.65131 0.75435 0.0
H65 H 0.39524 0.66469 0.97932 0.0
C66 C 0.90052 0.40709 0.28964 0.0
C67 C 0.9005 0.40946 0.18758 0.0
N68 N 0.91865 0.3836 0.15142 0.0
N69 N 0.91857 0.37982 0.31734 0.0
C70 C 0.9301 0.36663 0.23163 0.0
H71 H 0.8866 0.42296 0.34021 0.0
Co72 Co 0.92093 0.36187 0.4456 0.0
C73 C 0.91984 0.28852 0.41158 0.0
O74 O 0.89812 0.28621 0.48509 0.0
N75 N 0.92493 0.34516 0.57679 0.0
C76 C 0.94706 0.31918 0.70872 0.0
C77 C 0.94592 0.32025 0.60711 0.0
C78 C 0.91562 0.36034 0.66237 0.0
N79 N 0.92786 0.34437 0.74344 0.0
O80 O 0.96714 0.37576 0.45341 0.0
H81 H 0.96153 0.30516 0.5589 0.0
H82 H 0.90215 0.38398 0.66564 0.0
O83 O 0.93312 0.31716 0.39047 0.0
C84 C 0.96721 0.40616 0.48343 0.0
O85 O 0.93817 0.42083 0.50158 0.0
N86 N 0.87378 0.35092 0.43668 0.0
C87 C 0.80411 0.34561 0.40151 0.0
C88 C 0.82749 0.33273 0.33402 0.0
C89 C 0.86193 0.33578 0.35252 0.0
C90 C 0.85123 0.36389 0.50293 0.0
C91 C 0.81637 0.36082 0.48803 0.0
H92 H 0.87903 0.32703 0.29603 0.0
H93 H 0.85975 0.37835 0.56504 0.0
H94 H 0.94532 0.34407 0.22769 0.0
H95 H 0.88649 0.42749 0.14334 0.0
H96 H 0.96269 0.30268 0.75342 0.0
H97 H 0.81932 0.32156 0.26495 0.0
H98 H 0.79925 0.37122 0.54245 0.0
C99 C 0.0636 0.94702 0.69829 0.0
C100 C 0.06416 0.95153 0.5971 0.0
N101 N 0.09566 0.94536 0.56436 0.0
N102 N 0.09459 0.938 0.7296 0.0
C103 C 0.11359 0.93732 0.64625 0.0
H104 H 0.04151 0.94836 0.74512 0.0
Co105 Co 0.10488 0.92404 0.85825 0.0
C106 C 0.17894 0.93361 0.88384 0.0
O107 O 0.17904 0.91046 0.9538 0.0
N108 N 0.11406 0.90976 0.99146 0.0
C109 C 0.11752 0.87968 0.13133 0.0
C110 C 0.11446 0.87818 0.03012 0.0
C111 C 0.11766 0.92987 0.07199 0.0
N112 N 0.11909 0.91225 0.15808 0.0
O113 O 0.08954 0.96704 0.90705 0.0
H114 H 0.11188 0.85508 0.98926 0.0
H115 H 0.11886 0.95705 0.06763 0.0
O116 O 0.15115 0.94139 0.84123 0.0
C117 C 0.06024 0.96339 0.94489 0.0
O118 O 0.04652 0.9332 0.94346 0.0
N119 N 0.11604 0.8812 0.808 0.0
C120 C 0.12092 0.8156 0.7326 0.0
C121 C 0.14747 0.83888 0.72067 0.0
C122 C 0.1448 0.87132 0.76037 0.0
C123 C 0.08906 0.85999 0.81298 0.0
C124 C 0.0913 0.8269 0.77921 0.0
H125 H 0.16546 0.88855 0.74884 0.0
H126 H 0.06595 0.86857 0.84732 0.0
H127 H 0.1397 0.92958 0.64458 0.0
H128 H 0.04245 0.95644 0.55062 0.0
H129 H 0.11684 0.85836 0.18182 0.0
H130 H 0.16997 0.83259 0.6794 0.0
H131 H 0.06996 0.81031 0.79092 0.0
C132 C 0.54664 0.41068 0.32855 0.0
C133 C 0.54604 0.41262 0.4304 0.0
N134 N 0.54787 0.38109 0.46733 0.0
N135 N 0.54838 0.37803 0.30123 0.0
C136 C 0.54956 0.36071 0.38787 0.0
H137 H 0.54719 0.43198 0.27847 0.0
Co138 Co 0.55311 0.36112 0.17275 0.0
C139 C 0.51229 0.29891 0.18404 0.0
O140 O 0.49647 0.30698 0.10174 0.0
N141 N 0.55861 0.34448 0.0439 0.0
C142 C 0.56801 0.31188 0.91306 0.0
C143 C 0.56786 0.31327 1.01516 0.0
C144 C 0.55435 0.36177 0.95824 0.0
N145 N 0.55918 0.34243 0.87731 0.0
O146 O 0.50802 0.3762 0.14051 0.0
H147 H 0.5738 0.2927 0.06518 0.0
H148 H 0.54867 0.38832 0.9551 0.0
O149 O 0.53538 0.31804 0.21784 0.0
C150 C 0.50645 0.40657 0.1097 0.0
O151 O 0.53441 0.42413 0.10125 0.0
N152 N 0.59746 0.34894 0.20318 0.0
C153 C 0.66424 0.34522 0.26706 0.0
C154 C 0.6413 0.31932 0.29011 0.0
C155 C 0.60787 0.3216 0.25723 0.0
C156 C 0.6198 0.37329 0.17553 0.0
C157 C 0.65338 0.3718 0.20586 0.0
H158 H 0.59029 0.30215 0.27926 0.0
H159 H 0.61108 0.3947 0.1326 0.0
H160 H 0.55259 0.33371 0.39315 0.0
H161 H 0.5458 0.43549 0.47384 0.0
H162 H 0.5737 0.28994 0.86871 0.0
H163 H 0.64875 0.29822 0.33647 0.0
H164 H 0.6705 0.39172 0.18331 0.0
C165 C 0.0632 0.57679 0.75677 0.0
C166 C 0.06019 0.57622 0.85836 0.0
N167 N 0.08444 0.556 0.89591 0.0
N168 N 0.0895 0.55743 0.7299 0.0
C169 C 0.10167 0.54473 0.81602 0.0
H170 H 0.04865 0.5922 0.70606 0.0
Co171 Co 0.10747 0.55636 0.60189 0.0
C172 C 0.17394 0.52248 0.64216 0.0
O173 O 0.17041 0.49988 0.57212 0.0
N174 N 0.12505 0.55571 0.47269 0.0
C175 C 0.15492 0.56782 0.33758 0.0
C176 C 0.15462 0.56835 0.43975 0.0
C177 C 0.10808 0.54738 0.38954 0.0
N178 N 0.12538 0.5549 0.30576 0.0
O179 O 0.09397 0.50991 0.58969 0.0
H180 H 0.17393 0.579 0.48673 0.0
H181 H 0.08318 0.53659 0.39075 0.0
O182 O 0.15095 0.5444 0.65613 0.0
C183 C 0.06312 0.50989 0.56299 0.0
O184 O 0.04768 0.53908 0.55394 0.0
N185 N 0.11791 0.60245 0.61183 0.0
C186 C 0.12392 0.67234 0.63138 0.0
C187 C 0.13973 0.65033 0.6988 0.0
C188 C 0.13658 0.61549 0.68742 0.0
C189 C 0.10215 0.62334 0.54594 0.0
C190 C 0.10515 0.65835 0.55361 0.0
H191 H 0.14772 0.59913 0.74248 0.0
H192 H 0.08649 0.61277 0.4883 0.0
H193 H 0.12371 0.52875 0.8206 0.0
H194 H 0.04307 0.59165 0.90105 0.0
H195 H 0.17469 0.57785 0.29049 0.0
H196 H 0.15325 0.65984 0.76249 0.0
H197 H 0.09233 0.6743 0.50023 0.0
C198 C 0.89527 0.06456 0.23976 0.0
C199 C 0.8952 0.06223 0.34181 0.0
N200 N 0.91418 0.08755 0.37765 0.0
N201 N 0.91421 0.09123 0.21177 0.0
C202 C 0.92614 0.10412 0.29729 0.0
H203 H 0.88092 0.04904 0.18937 0.0
Co204 Co 0.91754 0.10888 0.08333 0.0
C205 C 0.91827 0.18233 0.11702 0.0
O206 O 0.89678 0.18523 0.04332 0.0
N207 N 0.92244 0.12531 0.95218 0.0
C208 C 0.94519 0.15091 0.82028 0.0
C209 C 0.944 0.1498 0.92191 0.0
C210 C 0.91282 0.11039 0.86658 0.0
N211 N 0.92542 0.12616 0.78554 0.0
O212 O 0.96342 0.09388 0.0768 0.0
H213 H 0.95984 0.16459 0.97016 0.0
H214 H 0.89878 0.08707 0.86324 0.0
O215 O 0.93069 0.15334 0.13828 0.0
C216 C 0.96263 0.06303 0.05111 0.0
O217 O 0.93318 0.04895 0.03449 0.0
N218 N 0.87071 0.12092 0.09069 0.0
C219 C 0.80105 0.12874 0.12169 0.0
C220 C 0.82439 0.14093 0.19037 0.0
C221 C 0.85882 0.13673 0.17376 0.0
C222 C 0.84819 0.10793 0.02454 0.0
C223 C 0.81337 0.11211 0.03754 0.0
H224 H 0.87585 0.14505 0.23094 0.0
H225 H 0.85666 0.09252 0.96432 0.0
H226 H 0.94215 0.12616 0.30099 0.0
H227 H 0.88069 0.04461 0.38628 0.0
H228 H 0.96115 0.16715 0.77557 0.0
H229 H 0.81621 0.15228 0.25918 0.0
H230 H 0.79621 0.10132 0.98393 0.0
C231 C 0.42339 0.91135 0.84107 0.0
C232 C 0.42572 0.91317 0.94292 0.0
N233 N 0.39672 0.92607 0.97775 0.0
N234 N 0.39309 0.92321 0.81156 0.0
C235 C 0.37759 0.93228 0.89695 0.0
H236 H 0.44165 0.8997 0.79251 0.0
Co237 Co 0.37549 0.919 0.68223 0.0
C238 C 0.31054 0.95695 0.70551 0.0
O239 O 0.3171 0.97789 0.63212 0.0
N240 N 0.35842 0.91455 0.55291 0.0
C241 C 0.32474 0.90706 0.42335 0.0
C242 C 0.32675 0.90663 0.52518 0.0
C243 C 0.37536 0.91883 0.4665 0.0
N244 N 0.35549 0.91442 0.38603 0.0
O245 O 0.3897 0.96425 0.65065 0.0
H246 H 0.30622 0.90115 0.57566 0.0
H247 H 0.40196 0.9247 0.46261 0.0
O248 O 0.33181 0.93413 0.72857 0.0
C249 C 0.42084 0.96402 0.62725 0.0
O250 O 0.43716 0.93521 0.63028 0.0
N251 N 0.36401 0.87402 0.71099 0.0
C252 C 0.35788 0.80581 0.76272 0.0
C253 C 0.34151 0.83088 0.818 0.0
C254 C 0.3444 0.86473 0.78988 0.0
C255 C 0.38008 0.85018 0.65616 0.0
C256 C 0.37691 0.81595 0.67963 0.0
H257 H 0.33214 0.88348 0.83474 0.0
H258 H 0.39616 0.85783 0.59516 0.0
H259 H 0.3519 0.9411 0.9013 0.0
H260 H 0.44589 0.90314 0.98834 0.0
H261 H 0.30199 0.90309 0.3809 0.0
H262 H 0.32764 0.82479 0.8849 0.0
H263 H 0.38984 0.79765 0.63403 0.0
C264 C 0.47247 0.99853 0.6261 0.0
C265 C 0.43931 0.99415 0.59233 0.0
C266 C 0.49467 0.02055 0.57804 0.0
C267 C 0.4847 0.03918 0.49398 0.0
H268 H 0.48196 0.98334 0.68706 0.0
H269 H 0.52044 0.02176 0.60446 0.0
S270 S 0.3998 0.0385 0.37958 0.0
N271 N 0.39671 0.01157 0.47326 0.0
N272 N 0.43872 0.05352 0.38259 0.0
C273 C 0.45092 0.03687 0.46314 0.0
C274 C 0.42812 0.01417 0.51245 0.0
C275 C 0.45788 0.41878 0.99713 0.0
C276 C 0.47431 0.42368 0.08838 0.0
C277 C 0.43492 0.44291 0.96005 0.0
C278 C 0.42791 0.47235 1.01397 0.0
H279 H 0.46468 0.39759 0.95113 0.0
H280 H 0.42479 0.43982 0.88609 0.0
S281 S 0.4587 0.49265 0.2664 0.0
N282 N 0.47804 0.45713 0.23783 0.0
N283 N 0.43458 0.50187 0.17028 0.0
C284 C 0.44143 0.47539 0.10987 0.0
C285 C 0.46476 0.45116 0.1467 0.0
C286 C 0.99856 0.45684 0.43212 0.0
C287 C 0.99795 0.42691 0.48799 0.0
C288 C 0.0217 0.48241 0.45289 0.0
C289 C 0.04502 0.4792 0.53093 0.0
H290 H 0.97963 0.46138 0.37566 0.0
H291 H 0.02009 0.50568 0.41056 0.0
S292 S 0.05539 0.40452 0.69445 0.0
N293 N 0.02391 0.39424 0.62019 0.0
N294 N 0.06782 0.44261 0.65954 0.0
C295 C 0.04635 0.4484 0.58298 0.0
C296 C 0.02259 0.42216 0.56156 0.0
C297 C 0.01871 0.04922 0.97484 0.0
C298 C 0.99302 0.04181 0.04374 0.0
C299 C 0.04247 0.02443 0.94765 0.0
C300 C 0.04084 0.99164 0.98823 0.0
H301 H 0.01893 0.07332 0.93656 0.0
H302 H 0.06055 0.03023 0.88971 0.0
S303 S 0.98198 0.96215 0.18487 0.0
N304 N 0.97021 1.0013 0.16138 0.0
N305 N 0.01433 0.95492 0.1108 0.0
C306 C 0.01693 0.98513 0.06311 0.0
C307 C 0.99312 0.0102 0.09074 0.0
C308 C 0.50713 0.20408 0.21258 0.0
C309 C 0.50585 0.19954 0.31616 0.0
C310 C 0.50734 0.23645 0.17 0.0
C311 C 0.50721 0.26537 0.22969 0.0
H312 H 0.50865 0.18243 0.16414 0.0
H313 H 0.50925 0.23884 0.09008 0.0
S314 S 0.50285 0.26736 0.50424 0.0
N315 N 0.50316 0.22679 0.47706 0.0
N316 N 0.5042 0.28759 0.39686 0.0
C317 C 0.50508 0.26123 0.33304 0.0
C318 C 0.50418 0.2283 0.37637 0.0
C319 C 0.20471 0.544 0.79024 0.0
C320 C 0.20499 0.52415 0.70408 0.0
C321 C 0.23378 0.54882 0.84689 0.0
C322 C 0.26478 0.53404 0.8205 0.0
H323 H 0.18188 0.55647 0.81406 0.0
H324 H 0.23186 0.56501 0.91105 0.0
S325 S 0.27874 0.47704 0.60665 0.0
N326 N 0.23859 0.48775 0.59815 0.0
N327 N 0.2933 0.49629 0.70609 0.0
C328 C 0.26522 0.51276 0.73709 0.0
C329 C 0.23538 0.50793 0.67869 0.0
C330 C 0.95019 0.22185 0.22905 0.0
C331 C 0.91951 0.20964 0.19095 0.0
C332 C 0.95059 0.248 0.29962 0.0
C333 C 0.92029 0.26124 0.33749 0.0
H334 H 0.97387 0.21161 0.20283 0.0
H335 H 0.97457 0.25743 0.32604 0.0
S336 S 0.83353 0.23696 0.2639 0.0
N337 N 0.85836 0.21367 0.19407 0.0
N338 N 0.85907 0.25931 0.33397 0.0
C339 C 0.88965 0.24842 0.30169 0.0
C340 C 0.88927 0.22348 0.22655 0.0
C341 C 0.27341 0.9395 0.84634 0.0
C342 C 0.27693 0.95633 0.75477 0.0
C343 C 0.24179 0.93416 0.88955 0.0
C344 C 0.21196 0.9451 0.84296 0.0
H345 H 0.29517 0.92937 0.88435 0.0
H346 H 0.24083 0.92013 0.9587 0.0
S347 S 0.20718 0.99325 0.60624 0.0
N348 N 0.24789 0.98616 0.62187 0.0
N349 N 0.1882 0.97614 0.70332 0.0
C350 C 0.21509 0.96367 0.75391 0.0
C351 C 0.24757 0.96925 0.7098 0.0
C352 C 0.38607 0.74953 0.78642 0.0
C353 C 0.35673 0.76951 0.79352 0.0
C354 C 0.38585 0.71527 0.81275 0.0
C355 C 0.3563 0.69958 0.84726 0.0
H356 H 0.40958 0.76044 0.76074 0.0
H357 H 0.40884 0.70078 0.80443 0.0
S358 S 0.2737 0.74034 0.88956 0.0
N359 N 0.29753 0.77068 0.84276 0.0
N360 N 0.29777 0.70645 0.89436 0.0
C361 C 0.3271 0.71913 0.85764 0.0
C362 C 0.32717 0.75404 0.83062 0.0
C363 C 0.75264 0.3159 0.33685 0.0
C364 C 0.76749 0.34518 0.37661 0.0
C365 C 0.71908 0.31582 0.30366 0.0
C366 C 0.69909 0.34508 0.30831 0.0
H367 H 0.76726 0.29295 0.33006 0.0
H368 H 0.70903 0.29295 0.27159 0.0
S369 S 0.72517 0.42781 0.41067 0.0
N370 N 0.75913 0.40399 0.42055 0.0
N371 N 0.69587 0.40347 0.36172 0.0
C372 C 0.71326 0.37418 0.3508 0.0
C373 C 0.74743 0.37431 0.3842 0.0
C374 C 0.09455 0.76306 0.66197 0.0
C375 C 0.12349 0.77982 0.69759 0.0
C376 C 0.09512 0.72869 0.63823 0.0
C377 C 0.12484 0.70955 0.6469 0.0
H378 H 0.07092 0.7764 0.65345 0.0
H379 H 0.07175 0.71685 0.61573 0.0
S380 S 0.20877 0.74169 0.72131 0.0
N381 N 0.18349 0.7744 0.73383 0.0
N382 N 0.18489 0.71064 0.68097 0.0
C383 C 0.15445 0.72627 0.67596 0.0
C384 C 0.15375 0.76113 0.7028 0.0
C385 C 0.74448 0.10079 0.13415 0.0
C386 C 0.76426 0.13004 0.1442 0.0
C387 C 0.71088 0.09992 0.16636 0.0
C388 C 0.6956 0.12818 0.21052 0.0
H389 H 0.75538 0.07792 0.10456 0.0
H390 H 0.69688 0.07665 0.15789 0.0
S391 S 0.73564 0.21187 0.24698 0.0
N392 N 0.76527 0.18888 0.19411 0.0
N393 N 0.70257 0.18682 0.2587 0.0
C394 C 0.71469 0.15801 0.21783 0.0
C395 C 0.74888 0.15899 0.18403 0.0
C396 C 0.5331 0.09155 0.78648 0.0
C397 C 0.55849 0.11453 0.75761 0.0
C398 C 0.52843 0.08241 0.88627 0.0
C399 C 0.54873 0.09609 0.96129 0.0
H400 H 0.5164 0.0808 0.73162 0.0
H401 H 0.50852 0.06479 0.90518 0.0
S402 S 0.62063 0.15484 0.92512 0.0
N403 N 0.60553 0.14908 0.81236 0.0
N404 N 0.59648 0.13213 0.99975 0.0
C405 C 0.57442 0.11879 0.93369 0.0
C406 C 0.57933 0.12797 0.83198 0.0
C407 C 0.37174 0.51863 0.47335 0.0
C408 C 0.38491 0.5488 0.51098 0.0
C409 C 0.3621 0.51603 0.37376 0.0
C410 C 0.36468 0.54373 0.30804 0.0
H411 H 0.36906 0.49681 0.52143 0.0
H412 H 0.35267 0.492 0.34821 0.0
S413 S 0.39566 0.62915 0.37258 0.0
N414 N 0.39929 0.60723 0.47655 0.0
N415 N 0.38033 0.60275 0.28976 0.0
C416 C 0.37776 0.57415 0.34514 0.0
C417 C 0.38801 0.57661 0.44648 0.0
C418 C 0.92467 0.39766 0.97342 0.0
C419 C 0.92081 0.37339 0.04917 0.0
C420 C 0.92649 0.38817 0.87333 0.0
C421 C 0.92447 0.35407 0.84572 0.0
H422 H 0.92677 0.4241 0.99197 0.0
H423 H 0.93021 0.40752 0.81738 0.0
S424 S 0.90998 0.28122 1.01404 0.0
N425 N 0.91193 0.31406 0.08848 0.0
N426 N 0.91576 0.29634 0.90092 0.0
C427 C 0.91973 0.32969 0.92043 0.0
C428 C 0.91778 0.3393 0.02202 0.0
C429 C 0.13199 0.90543 0.33616 0.0
C430 C 0.11751 0.92453 0.25878 0.0
C431 C 0.12627 0.91342 0.43591 0.0
C432 C 0.1057 0.94082 0.46242 0.0
H433 H 0.14702 0.88339 0.31943 0.0
H434 H 0.13659 0.89695 0.49251 0.0
S435 S 0.06529 1.00157 0.28974 0.0
N436 N 0.08394 0.97399 0.21662 0.0
N437 N 0.07383 0.98923 0.40412 0.0
C438 C 0.09278 0.96139 0.38626 0.0
C439 C 0.0986 0.95328 0.28448 0.0
C440 C 0.57287 0.34621 0.60061 0.0
C441 C 0.55001 0.37128 0.57008 0.0
C442 C 0.57574 0.33694 0.70089 0.0
C443 C 0.55568 0.35223 0.77432 0.0
H444 H 0.58911 0.33417 0.54677 0.0
H445 H 0.5942 0.31804 0.72118 0.0
S446 S 0.48919 0.41658 0.72972 0.0
N447 N 0.50546 0.40959 0.61903 0.0
N448 N 0.51019 0.39189 0.80685 0.0
C449 C 0.53207 0.37674 0.74377 0.0
C450 C 0.5294 0.38632 0.64188 0.0
C451 C 0.12791 0.54948 0.02654 0.0
C452 C 0.09378 0.55247 0.99921 0.0
C453 C 0.1378 0.54946 0.12644 0.0
C454 C 0.11406 0.55262 0.20372 0.0
H455 H 0.14738 0.54823 0.97042 0.0
H456 H 0.16441 0.54731 0.14308 0.0
S457 S 0.02104 0.559 0.17158 0.0
N458 N 0.03592 0.55596 0.05768 0.0
N459 N 0.05437 0.55813 0.24459 0.0
C460 C 0.07966 0.55478 0.17733 0.0
C461 C 0.0696 0.55424 0.07547 0.0
C462 C 0.92012 0.07318 0.55534 0.0
C463 C 0.91688 0.09762 0.47986 0.0
C464 C 0.92248 0.08254 0.6554 0.0
C465 C 0.92165 0.11667 0.68324 0.0
H466 H 0.92131 0.0467 0.5366 0.0
H467 H 0.92566 0.06304 0.71113 0.0
S468 S 0.90917 0.19005 0.51564 0.0
N469 N 0.90988 0.15721 0.44101 0.0
N470 N 0.9147 0.17469 0.62854 0.0
C471 C 0.91754 0.14124 0.60879 0.0
C472 C 0.91505 0.13176 0.50722 0.0
C473 C 0.39207 0.93884 0.25389 0.0
C474 C 0.36518 0.91749 0.28253 0.0
C475 C 0.40214 0.94186 0.15408 0.0
C476 C 0.38529 0.9242 0.07903 0.0
H477 H 0.40539 0.9535 0.30882 0.0
H478 H 0.4231 0.9582 0.13515 0.0
S479 S 0.31549 0.86312 0.11263 0.0
N480 N 0.32366 0.87655 0.22576 0.0
N481 N 0.34184 0.88361 0.03903 0.0
C482 C 0.35859 0.90282 0.10595 0.0
C483 C 0.34868 0.89916 0.20737 0.0
loop_
_geom_bond_atom_site_label_1
_geom_bond_atom_site_label_2
_geom_bond_distance
_geom_bond_site_symmetry_2
_ccdc_geom_bond_type
C0 C1 1.351 . S
C0 N3 1.368 . S
C0 H5 0.931 . S
C1 C0 1.351 . S
C1 N2 1.373 . S
C1 H29 0.930 . S
N2 C1 1.373 . S
N2 C4 1.340 . S
N3 C0 1.368 . S
N3 C4 1.321 . S
N3 Co6 2.135 . S
C4 N2 1.340 . S
C4 N3 1.321 . S
C4 H28 0.930 . S
H5 C0 0.931 . S
Co6 N3 2.135 . S
Co6 N9 2.121 . S
Co6 O14 2.055 . S
Co6 O17 2.039 . S
Co6 N20 2.140 . S
C7 O8 1.227 . S
C7 O17 1.265 . S
O8 C7 1.227 . S
N9 Co6 2.121 . S
N9 C11 1.375 . S
N9 C12 1.313 . S
C10 C11 1.338 . S
C10 N13 1.377 . S
C10 H30 0.930 . S
C11 N9 1.375 . S
C11 C10 1.338 . S
C11 H15 0.931 . S
C12 N9 1.313 . S
C12 N13 1.344 . S
C12 H16 0.930 . S
N13 C10 1.377 . S
N13 C12 1.344 . S
O14 Co6 2.055 . S
O14 C18 1.253 . S
H15 C11 0.931 . S
H16 C12 0.930 . S
O17 Co6 2.039 . S
O17 C7 1.265 . S
C18 O14 1.253 . S
C18 O19 1.227 . S
O19 C18 1.227 . S
N20 Co6 2.140 . S
N20 C23 1.346 . S
N20 C24 1.345 . S
C21 C22 1.387 . S
C21 C25 1.391 . S
C22 C21 1.387 . S
C22 C23 1.369 . S
C22 H31 0.929 . S
C23 N20 1.346 . S
C23 C22 1.369 . S
C23 H26 0.928 . S
C24 N20 1.345 . S
C24 C25 1.371 . S
C24 H27 0.931 . S
C25 C21 1.391 . S
C25 C24 1.371 . S
C25 H32 0.930 . S
H26 C23 0.928 . S
H27 C24 0.931 . S
H28 C4 0.930 . S
H29 C1 0.930 . S
H30 C10 0.930 . S
H31 C22 0.929 . S
H32 C25 0.930 . S
C33 C34 1.351 . S
C33 N36 1.368 . S
C33 H38 0.931 . S
C34 C33 1.351 . S
C34 N35 1.373 . S
C34 H62 0.930 . S
N35 C34 1.373 . S
N35 C37 1.340 . S
N36 C33 1.368 . S
N36 C37 1.321 . S
N36 Co39 2.135 . S
C37 N35 1.340 . S
C37 N36 1.321 . S
C37 H61 0.930 . S
H38 C33 0.931 . S
Co39 N36 2.135 . S
Co39 N42 2.121 . S
Co39 O47 2.055 . S
Co39 O50 2.039 . S
Co39 N53 2.140 . S
C40 O41 1.227 . S
C40 O50 1.265 . S
O41 C40 1.227 . S
N42 Co39 2.121 . S
N42 C44 1.379 . S
N42 C45 1.313 1_556 S
C43 C44 1.327 1_554 S
C43 N46 1.377 . S
C43 H63 0.930 . S
C44 N42 1.379 . S
C44 C43 1.327 1_556 S
C44 H48 0.937 . S
C45 N42 1.313 1_554 S
C45 N46 1.344 . S
C45 H49 0.930 . S
N46 C43 1.377 . S
N46 C45 1.344 . S
O47 Co39 2.055 . S
O47 C51 1.253 . S
H48 C44 0.937 . S
H49 C45 0.930 . S
O50 Co39 2.039 . S
O50 C40 1.265 . S
C51 O47 1.253 . S
C51 O52 1.227 . S
O52 C51 1.227 . S
N53 Co39 2.140 . S
N53 C56 1.346 . S
N53 C57 1.345 . S
C54 C55 1.387 . S
C54 C58 1.391 . S
C55 C54 1.387 . S
C55 C56 1.369 . S
C55 H64 0.929 . S
C56 N53 1.346 . S
C56 C55 1.369 . S
C56 H59 0.928 . S
C57 N53 1.345 . S
C57 C58 1.371 . S
C57 H60 0.931 . S
C58 C54 1.391 . S
C58 C57 1.371 . S
C58 H65 0.930 . S
H59 C56 0.928 . S
H60 C57 0.931 . S
H61 C37 0.930 . S
H62 C34 0.930 . S
H63 C43 0.930 . S
H64 C55 0.929 . S
H65 C58 0.930 . S
C66 C67 1.351 . S
C66 N69 1.368 . S
C66 H71 0.931 . S
C67 C66 1.351 . S
C67 N68 1.373 . S
C67 H95 0.930 . S
N68 C67 1.373 . S
N68 C70 1.340 . S
N69 C66 1.368 . S
N69 C70 1.321 . S
N69 Co72 2.135 . S
C70 N68 1.340 . S
C70 N69 1.321 . S
C70 H94 0.930 . S
H71 C66 0.931 . S
Co72 N69 2.135 . S
Co72 N75 2.121 . S
Co72 O80 2.055 . S
Co72 O83 2.039 . S
Co72 N86 2.140 . S
C73 O74 1.227 . S
C73 O83 1.265 . S
O74 C73 1.227 . S
N75 Co72 2.121 . S
N75 C77 1.375 . S
N75 C78 1.313 . S
C76 C77 1.338 . S
C76 N79 1.377 . S
C76 H96 0.930 . S
C77 N75 1.375 . S
C77 C76 1.338 . S
C77 H81 0.931 . S
C78 N75 1.313 . S
C78 N79 1.344 . S
C78 H82 0.930 . S
N79 C76 1.377 . S
N79 C78 1.344 . S
O80 Co72 2.055 . S
O80 C84 1.253 . S
H81 C77 0.931 . S
H82 C78 0.930 . S
O83 Co72 2.039 . S
O83 C73 1.265 . S
C84 O80 1.253 . S
C84 O85 1.227 . S
O85 C84 1.227 . S
N86 Co72 2.140 . S
N86 C89 1.346 . S
N86 C90 1.345 . S
C87 C88 1.387 . S
C87 C91 1.391 . S
C88 C87 1.387 . S
C88 C89 1.369 . S
C88 H97 0.929 . S
C89 N86 1.346 . S
C89 C88 1.369 . S
C89 H92 0.928 . S
C90 N86 1.345 . S
C90 C91 1.371 . S
C90 H93 0.931 . S
C91 C87 1.391 . S
C91 C90 1.371 . S
C91 H98 0.930 . S
H92 C89 0.928 . S
H93 C90 0.931 . S
H94 C70 0.930 . S
H95 C67 0.930 . S
H96 C76 0.930 . S
H97 C88 0.929 . S
H98 C91 0.930 . S
C99 C100 1.351 . S
C99 N102 1.368 . S
C99 H104 0.931 . S
C100 C99 1.351 . S
C100 N101 1.373 . S
C100 H128 0.930 . S
N101 C100 1.373 . S
N101 C103 1.340 . S
N102 C99 1.368 . S
N102 C103 1.321 . S
N102 Co105 2.135 . S
C103 N101 1.340 . S
C103 N102 1.321 . S
C103 H127 0.930 . S
H104 C99 0.931 . S
Co105 N102 2.135 . S
Co105 N108 2.121 . S
Co105 O113 2.055 . S
Co105 O116 2.039 . S
Co105 N119 2.140 . S
C106 O107 1.227 . S
C106 O116 1.265 . S
O107 C106 1.227 . S
N108 Co105 2.121 . S
N108 C110 1.379 . S
N108 C111 1.313 1_556 S
C109 C110 1.327 1_554 S
C109 N112 1.377 . S
C109 H129 0.930 . S
C110 N108 1.379 . S
C110 C109 1.327 1_556 S
C110 H114 0.937 . S
C111 N108 1.313 1_554 S
C111 N112 1.344 . S
C111 H115 0.930 . S
N112 C109 1.377 . S
N112 C111 1.344 . S
O113 Co105 2.055 . S
O113 C117 1.253 . S
H114 C110 0.937 . S
H115 C111 0.930 . S
O116 Co105 2.039 . S
O116 C106 1.265 . S
C117 O113 1.253 . S
C117 O118 1.227 . S
O118 C117 1.227 . S
N119 Co105 2.140 . S
N119 C122 1.346 . S
N119 C123 1.345 . S
C120 C121 1.387 . S
C120 C124 1.391 . S
C121 C120 1.387 . S
C121 C122 1.369 . S
C121 H130 0.929 . S
C122 N119 1.346 . S
C122 C121 1.369 . S
C122 H125 0.928 . S
C123 N119 1.345 . S
C123 C124 1.371 . S
C123 H126 0.931 . S
C124 C120 1.391 . S
C124 C123 1.371 . S
C124 H131 0.930 . S
H125 C122 0.928 . S
H126 C123 0.931 . S
H127 C103 0.930 . S
H128 C100 0.930 . S
H129 C109 0.930 . S
H130 C121 0.929 . S
H131 C124 0.930 . S
C132 C133 1.351 . S
C132 N135 1.368 . S
C132 H137 0.931 . S
C133 C132 1.351 . S
C133 N134 1.373 . S
C133 H161 0.930 . S
N134 C133 1.373 . S
N134 C136 1.340 . S
N135 C132 1.368 . S
N135 C136 1.321 . S
N135 Co138 2.135 . S
C136 N134 1.340 . S
C136 N135 1.321 . S
C136 H160 0.930 . S
H137 C132 0.931 . S
Co138 N135 2.135 . S
Co138 N141 2.121 . S
Co138 O146 2.055 . S
Co138 O149 2.039 . S
Co138 N152 2.140 . S
C139 O140 1.227 . S
C139 O149 1.265 . S
O140 C139 1.227 . S
N141 Co138 2.121 . S
N141 C143 1.379 . S
N141 C144 1.313 1_554 S
C142 C143 1.327 1_556 S
C142 N145 1.377 . S
C142 H162 0.930 . S
C143 N141 1.379 . S
C143 C142 1.327 1_554 S
C143 H147 0.937 . S
C144 N141 1.313 1_556 S
C144 N145 1.344 . S
C144 H148 0.930 . S
N145 C142 1.377 . S
N145 C144 1.344 . S
O146 Co138 2.055 . S
O146 C150 1.253 . S
H147 C143 0.937 . S
H148 C144 0.930 . S
O149 Co138 2.039 . S
O149 C139 1.265 . S
C150 O146 1.253 . S
C150 O151 1.227 . S
O151 C150 1.227 . S
N152 Co138 2.140 . S
N152 C155 1.346 . S
N152 C156 1.345 . S
C153 C154 1.387 . S
C153 C157 1.391 . S
C154 C153 1.387 . S
C154 C155 1.369 . S
C154 H163 0.929 . S
C155 N152 1.346 . S
C155 C154 1.369 . S
C155 H158 0.928 . S
C156 N152 1.345 . S
C156 C157 1.371 . S
C156 H159 0.931 . S
C157 C153 1.391 . S
C157 C156 1.371 . S
C157 H164 0.930 . S
H158 C155 0.928 . S
H159 C156 0.931 . S
H160 C136 0.930 . S
H161 C133 0.930 . S
H162 C142 0.930 . S
H163 C154 0.929 . S
H164 C157 0.930 . S
C165 C166 1.351 . S
C165 N168 1.368 . S
C165 H170 0.931 . S
C166 C165 1.351 . S
C166 N167 1.373 . S
C166 H194 0.930 . S
N167 C166 1.373 . S
N167 C169 1.340 . S
N168 C165 1.368 . S
N168 C169 1.321 . S
N168 Co171 2.135 . S
C169 N167 1.340 . S
C169 N168 1.321 . S
C169 H193 0.930 . S
H170 C165 0.931 . S
Co171 N168 2.135 . S
Co171 N174 2.121 . S
Co171 O179 2.055 . S
Co171 O182 2.039 . S
Co171 N185 2.140 . S
C172 O173 1.227 . S
C172 O182 1.265 . S
O173 C172 1.227 . S
N174 Co171 2.121 . S
N174 C176 1.375 . S
N174 C177 1.313 . S
C175 C176 1.338 . S
C175 N178 1.377 . S
C175 H195 0.930 . S
C176 N174 1.375 . S
C176 C175 1.338 . S
C176 H180 0.931 . S
C177 N174 1.313 . S
C177 N178 1.344 . S
C177 H181 0.930 . S
N178 C175 1.377 . S
N178 C177 1.344 . S
O179 Co171 2.055 . S
O179 C183 1.253 . S
H180 C176 0.931 . S
H181 C177 0.930 . S
O182 Co171 2.039 . S
O182 C172 1.265 . S
C183 O179 1.253 . S
C183 O184 1.227 . S
O184 C183 1.227 . S
N185 Co171 2.140 . S
N185 C188 1.346 . S
N185 C189 1.345 . S
C186 C187 1.387 . S
C186 C190 1.391 . S
C187 C186 1.387 . S
C187 C188 1.369 . S
C187 H196 0.929 . S
C188 N185 1.346 . S
C188 C187 1.369 . S
C188 H191 0.928 . S
C189 N185 1.345 . S
C189 C190 1.371 . S
C189 H192 0.931 . S
C190 C186 1.391 . S
C190 C189 1.371 . S
C190 H197 0.930 . S
H191 C188 0.928 . S
H192 C189 0.931 . S
H193 C169 0.930 . S
H194 C166 0.930 . S
H195 C175 0.930 . S
H196 C187 0.929 . S
H197 C190 0.930 . S
C198 C199 1.351 . S
C198 N201 1.368 . S
C198 H203 0.931 . S
C199 C198 1.351 . S
C199 N200 1.373 . S
C199 H227 0.930 . S
N200 C199 1.373 . S
N200 C202 1.340 . S
N201 C198 1.368 . S
N201 C202 1.321 . S
N201 Co204 2.135 . S
C202 N200 1.340 . S
C202 N201 1.321 . S
C202 H226 0.930 . S
H203 C198 0.931 . S
Co204 N201 2.135 . S
Co204 N207 2.121 . S
Co204 O212 2.055 . S
Co204 O215 2.039 . S
Co204 N218 2.140 . S
C205 O206 1.227 . S
C205 O215 1.265 . S
O206 C205 1.227 . S
N207 Co204 2.121 . S
N207 C209 1.379 . S
N207 C210 1.313 1_554 S
C208 C209 1.327 1_556 S
C208 N211 1.377 . S
C208 H228 0.930 . S
C209 N207 1.379 . S
C209 C208 1.327 1_554 S
C209 H213 0.937 . S
C210 N207 1.313 1_556 S
C210 N211 1.344 . S
C210 H214 0.930 . S
N211 C208 1.377 . S
N211 C210 1.344 . S
O212 Co204 2.055 . S
O212 C216 1.253 . S
H213 C209 0.937 . S
H214 C210 0.930 . S
O215 Co204 2.039 . S
O215 C205 1.265 . S
C216 O212 1.253 . S
C216 O217 1.227 . S
O217 C216 1.227 . S
N218 Co204 2.140 . S
N218 C221 1.346 . S
N218 C222 1.345 . S
C219 C220 1.387 . S
C219 C223 1.391 . S
C220 C219 1.387 . S
C220 C221 1.369 . S
C220 H229 0.929 . S
C221 N218 1.346 . S
C221 C220 1.369 . S
C221 H224 0.928 . S
C222 N218 1.345 . S
C222 C223 1.371 . S
C222 H225 0.931 . S
C223 C219 1.391 . S
C223 C222 1.371 . S
C223 H230 0.930 . S
H224 C221 0.928 . S
H225 C222 0.931 . S
H226 C202 0.930 . S
H227 C199 0.930 . S
H228 C208 0.930 . S
H229 C220 0.929 . S
H230 C223 0.930 . S
C231 C232 1.351 . S
C231 N234 1.368 . S
C231 H236 0.931 . S
C232 C231 1.351 . S
C232 N233 1.373 . S
C232 H260 0.930 . S
N233 C232 1.373 . S
N233 C235 1.340 . S
N234 C231 1.368 . S
N234 C235 1.321 . S
N234 Co237 2.135 . S
C235 N233 1.340 . S
C235 N234 1.321 . S
C235 H259 0.930 . S
H236 C231 0.931 . S
Co237 N234 2.135 . S
Co237 N240 2.121 . S
Co237 O245 2.055 . S
Co237 O248 2.039 . S
Co237 N251 2.140 . S
C238 O239 1.227 . S
C238 O248 1.265 . S
O239 C238 1.227 . S
N240 Co237 2.121 . S
N240 C242 1.375 . S
N240 C243 1.313 . S
C241 C242 1.338 . S
C241 N244 1.377 . S
C241 H261 0.930 . S
C242 N240 1.375 . S
C242 C241 1.338 . S
C242 H246 0.931 . S
C243 N240 1.313 . S
C243 N244 1.344 . S
C243 H247 0.930 . S
N244 C241 1.377 . S
N244 C243 1.344 . S
O245 Co237 2.055 . S
O245 C249 1.253 . S
H246 C242 0.931 . S
H247 C243 0.930 . S
O248 Co237 2.039 . S
O248 C238 1.265 . S
C249 O245 1.253 . S
C249 O250 1.227 . S
O250 C249 1.227 . S
N251 Co237 2.140 . S
N251 C254 1.346 . S
N251 C255 1.345 . S
C252 C253 1.387 . S
C252 C256 1.391 . S
C253 C252 1.387 . S
C253 C254 1.369 . S
C253 H262 0.929 . S
C254 N251 1.346 . S
C254 C253 1.369 . S
C254 H257 0.928 . S
C255 N251 1.345 . S
C255 C256 1.371 . S
C255 H258 0.931 . S
C256 C252 1.391 . S
C256 C255 1.371 . S
C256 H263 0.930 . S
H257 C254 0.928 . S
H258 C255 0.931 . S
H259 C235 0.930 . S
H260 C232 0.930 . S
H261 C241 0.930 . S
H262 C253 0.929 . S
H263 C256 0.930 . S
C264 C265 1.369 . S
C264 C266 1.419 . S
C264 H268 0.930 . S
C265 C264 1.369 . S
C265 C274 1.429 1_565 S
C266 C264 1.419 . S
C266 C267 1.363 1_565 S
C266 H269 0.929 . S
C267 C266 1.363 1_545 S
C267 C273 1.428 . S
H268 C264 0.930 . S
H269 C266 0.929 . S
S270 N271 1.613 . S
S270 N272 1.610 . S
N271 S270 1.613 . S
N271 C274 1.350 . S
N272 S270 1.610 . S
N272 C273 1.351 . S
C273 C267 1.428 . S
C273 N272 1.351 . S
C273 C274 1.434 . S
C274 C265 1.429 1_545 S
C274 N271 1.350 . S
C274 C273 1.434 . S
C275 C276 1.369 . S
C275 C277 1.419 1_554 S
C275 H279 0.930 . S
C276 C275 1.369 . S
C276 C285 1.429 . S
C277 C275 1.419 1_556 S
C277 C278 1.363 . S
C277 H280 0.929 . S
C278 C277 1.363 . S
C278 C284 1.428 . S
H279 C275 0.930 . S
H280 C277 0.929 . S
S281 N282 1.613 . S
S281 N283 1.610 1_554 S
N282 S281 1.613 . S
N282 C285 1.350 . S
N283 S281 1.610 1_556 S
N283 C284 1.351 . S
C284 C278 1.428 . S
C284 N283 1.351 . S
C284 C285 1.434 1_556 S
C285 C276 1.429 . S
C285 N282 1.350 . S
C285 C284 1.434 1_554 S
C286 C287 1.369 . S
C286 C288 1.419 . S
C286 H290 0.930 . S
C287 C286 1.369 . S
C287 C296 1.429 1_655 S
C288 C286 1.419 . S
C288 C289 1.363 1_655 S
C288 H291 0.929 . S
C289 C288 1.363 1_455 S
C289 C295 1.428 . S
H290 C286 0.930 . S
H291 C288 0.929 . S
S292 N293 1.613 . S
S292 N294 1.610 . S
N293 S292 1.613 . S
N293 C296 1.350 . S
N294 S292 1.610 . S
N294 C295 1.351 . S
C295 C289 1.428 . S
C295 N294 1.351 . S
C295 C296 1.434 . S
C296 C287 1.429 1_455 S
C296 N293 1.350 . S
C296 C295 1.434 . S
C297 C298 1.374 . S
C297 C299 1.414 1_654 S
C297 H301 0.929 1_655 S
C298 C297 1.374 . S
C298 C307 1.429 1_545 S
C299 C297 1.414 1_456 S
C299 C300 1.363 1_545 S
C299 H302 0.929 . S
C300 C299 1.363 1_565 S
C300 C306 1.428 1_455 S
H301 C297 0.929 1_455 S
H302 C299 0.929 . S
S303 N304 1.613 . S
S303 N305 1.605 1_554 S
N304 S303 1.613 . S
N304 C307 1.350 . S
N305 S303 1.605 1_556 S
N305 C306 1.351 . S
C306 C300 1.428 1_655 S
C306 N305 1.351 . S
C306 C307 1.434 1_556 S
C307 C298 1.429 1_565 S
C307 N304 1.350 . S
C307 C306 1.434 1_554 S
C308 C309 1.369 . S
C308 C310 1.419 . S
C308 H312 0.930 . S
C309 C308 1.369 . S
C309 C318 1.429 . S
C310 C308 1.419 . S
C310 C311 1.363 . S
C310 H313 0.929 . S
C311 C310 1.363 . S
C311 C317 1.428 . S
H312 C308 0.930 . S
H313 C310 0.929 . S
S314 N315 1.613 . S
S314 N316 1.610 . S
N315 S314 1.613 . S
N315 C318 1.350 . S
N316 S314 1.610 . S
N316 C317 1.351 . S
C317 C311 1.428 . S
C317 N316 1.351 . S
C317 C318 1.434 . S
C318 C309 1.429 . S
C318 N315 1.350 . S
C318 C317 1.434 . S
C319 C320 1.369 . S
C319 C321 1.419 . S
C319 H323 0.930 . S
C320 C319 1.369 . S
C320 C329 1.429 . S
C321 C319 1.419 . S
C321 C322 1.363 . S
C321 H324 0.929 . S
C322 C321 1.363 . S
C322 C328 1.428 . S
H323 C319 0.930 . S
H324 C321 0.929 . S
S325 N326 1.613 . S
S325 N327 1.610 . S
N326 S325 1.613 . S
N326 C329 1.350 . S
N327 S325 1.610 . S
N327 C328 1.351 . S
C328 C322 1.428 . S
C328 N327 1.351 . S
C328 C329 1.434 . S
C329 C320 1.429 . S
C329 N326 1.350 . S
C329 C328 1.434 . S
C330 C331 1.369 . S
C330 C332 1.419 . S
C330 H334 0.930 . S
C331 C330 1.369 . S
C331 C340 1.429 . S
C332 C330 1.419 . S
C332 C333 1.363 . S
C332 H335 0.929 . S
C333 C332 1.363 . S
C333 C339 1.428 . S
H334 C330 0.930 . S
H335 C332 0.929 . S
S336 N337 1.613 . S
S336 N338 1.610 . S
N337 S336 1.613 . S
N337 C340 1.350 . S
N338 S336 1.610 . S
N338 C339 1.351 . S
C339 C333 1.428 . S
C339 N338 1.351 . S
C339 C340 1.434 . S
C340 C331 1.429 . S
C340 N337 1.350 . S
C340 C339 1.434 . S
C341 C342 1.369 . S
C341 C343 1.419 . S
C341 H345 0.930 . S
C342 C341 1.369 . S
C342 C351 1.429 . S
C343 C341 1.419 . S
C343 C344 1.363 . S
C343 H346 0.929 . S
C344 C343 1.363 . S
C344 C350 1.428 . S
H345 C341 0.930 . S
H346 C343 0.929 . S
S347 N348 1.613 1_545 S
S347 N349 1.610 1_545 S
N348 S347 1.613 1_565 S
N348 C351 1.350 . S
N349 S347 1.610 1_565 S
N349 C350 1.351 . S
C350 C344 1.428 . S
C350 N349 1.351 . S
C350 C351 1.434 . S
C351 C342 1.429 . S
C351 N348 1.350 . S
C351 C350 1.434 . S
C352 C353 1.369 . S
C352 C354 1.419 . S
C352 H356 0.930 . S
C353 C352 1.369 . S
C353 C362 1.429 . S
C354 C352 1.419 . S
C354 C355 1.363 . S
C354 H357 0.929 . S
C355 C354 1.363 . S
C355 C361 1.428 . S
H356 C352 0.930 . S
H357 C354 0.929 . S
S358 N359 1.613 . S
S358 N360 1.610 . S
N359 S358 1.613 . S
N359 C362 1.350 . S
N360 S358 1.610 . S
N360 C361 1.351 . S
C361 C355 1.428 . S
C361 N360 1.351 . S
C361 C362 1.434 . S
C362 C353 1.429 . S
C362 N359 1.350 . S
C362 C361 1.434 . S
C363 C364 1.369 . S
C363 C365 1.419 . S
C363 H367 0.930 . S
C364 C363 1.369 . S
C364 C373 1.429 . S
C365 C363 1.419 . S
C365 C366 1.363 . S
C365 H368 0.929 . S
C366 C365 1.363 . S
C366 C372 1.428 . S
H367 C363 0.930 . S
H368 C365 0.929 . S
S369 N370 1.613 . S
S369 N371 1.610 . S
N370 S369 1.613 . S
N370 C373 1.350 . S
N371 S369 1.610 . S
N371 C372 1.351 . S
C372 C366 1.428 . S
C372 N371 1.351 . S
C372 C373 1.434 . S
C373 C364 1.429 . S
C373 N370 1.350 . S
C373 C372 1.434 . S
C374 C375 1.369 . S
C374 C376 1.419 . S
C374 H378 0.930 . S
C375 C374 1.369 . S
C375 C384 1.429 . S
C376 C374 1.419 . S
C376 C377 1.363 . S
C376 H379 0.929 . S
C377 C376 1.363 . S
C377 C383 1.428 . S
H378 C374 0.930 . S
H379 C376 0.929 . S
S380 N381 1.613 . S
S380 N382 1.610 . S
N381 S380 1.613 . S
N381 C384 1.350 . S
N382 S380 1.610 . S
N382 C383 1.351 . S
C383 C377 1.428 . S
C383 N382 1.351 . S
C383 C384 1.434 . S
C384 C375 1.429 . S
C384 N381 1.350 . S
C384 C383 1.434 . S
C385 C386 1.369 . S
C385 C387 1.419 . S
C385 H389 0.930 . S
C386 C385 1.369 . S
C386 C395 1.429 . S
C387 C385 1.419 . S
C387 C388 1.363 . S
C387 H390 0.929 . S
C388 C387 1.363 . S
C388 C394 1.428 . S
H389 C385 0.930 . S
H390 C387 0.929 . S
S391 N392 1.613 . S
S391 N393 1.610 . S
N392 S391 1.613 . S
N392 C395 1.350 . S
N393 S391 1.610 . S
N393 C394 1.351 . S
C394 C388 1.428 . S
C394 N393 1.351 . S
C394 C395 1.434 . S
C395 C386 1.429 . S
C395 N392 1.350 . S
C395 C394 1.434 . S
C396 C397 1.369 . S
C396 C398 1.419 . S
C396 H400 0.930 . S
C397 C396 1.369 . S
C397 C406 1.429 . S
C398 C396 1.419 . S
C398 C399 1.363 . S
C398 H401 0.929 . S
C399 C398 1.363 . S
C399 C405 1.428 . S
H400 C396 0.930 . S
H401 C398 0.929 . S
S402 N403 1.613 . S
S402 N404 1.610 . S
N403 S402 1.613 . S
N403 C406 1.350 . S
N404 S402 1.610 . S
N404 C405 1.351 . S
C405 C399 1.428 . S
C405 N404 1.351 . S
C405 C406 1.434 . S
C406 C397 1.429 . S
C406 N403 1.350 . S
C406 C405 1.434 . S
C407 C408 1.369 . S
C407 C409 1.419 . S
C407 H411 0.930 . S
C408 C407 1.369 . S
C408 C417 1.429 . S
C409 C407 1.419 . S
C409 C410 1.363 . S
C409 H412 0.929 . S
C410 C409 1.363 . S
C410 C416 1.428 . S
H411 C407 0.930 . S
H412 C409 0.929 . S
S413 N414 1.613 . S
S413 N415 1.610 . S
N414 S413 1.613 . S
N414 C417 1.350 . S
N415 S413 1.610 . S
N415 C416 1.351 . S
C416 C410 1.428 . S
C416 N415 1.351 . S
C416 C417 1.434 . S
C417 C408 1.429 . S
C417 N414 1.350 . S
C417 C416 1.434 . S
C418 C419 1.369 . S
C418 C420 1.419 . S
C418 H422 0.930 . S
C419 C418 1.369 . S
C419 C428 1.429 . S
C420 C418 1.419 . S
C420 C421 1.363 . S
C420 H423 0.929 . S
C421 C420 1.363 . S
C421 C427 1.428 . S
H422 C418 0.930 . S
H423 C420 0.929 . S
S424 N425 1.613 . S
S424 N426 1.610 . S
N425 S424 1.613 . S
N425 C428 1.350 . S
N426 S424 1.610 . S
N426 C427 1.351 . S
C427 C421 1.428 . S
C427 N426 1.351 . S
C427 C428 1.434 . S
C428 C419 1.429 . S
C428 N425 1.350 . S
C428 C427 1.434 . S
C429 C430 1.369 . S
C429 C431 1.419 . S
C429 H433 0.930 . S
C430 C429 1.369 . S
C430 C439 1.429 . S
C431 C429 1.419 . S
C431 C432 1.363 . S
C431 H434 0.929 . S
C432 C431 1.363 . S
C432 C438 1.428 . S
H433 C429 0.930 . S
H434 C431 0.929 . S
S435 N436 1.613 . S
S435 N437 1.610 . S
N436 S435 1.613 . S
N436 C439 1.350 . S
N437 S435 1.610 . S
N437 C438 1.351 . S
C438 C432 1.428 . S
C438 N437 1.351 . S
C438 C439 1.434 . S
C439 C430 1.429 . S
C439 N436 1.350 . S
C439 C438 1.434 . S
C440 C441 1.369 . S
C440 C442 1.419 . S
C440 H444 0.930 . S
C441 C440 1.369 . S
C441 C450 1.429 . S
C442 C440 1.419 . S
C442 C443 1.363 . S
C442 H445 0.929 . S
C443 C442 1.363 . S
C443 C449 1.428 . S
H444 C440 0.930 . S
H445 C442 0.929 . S
S446 N447 1.613 . S
S446 N448 1.610 . S
N447 S446 1.613 . S
N447 C450 1.350 . S
N448 S446 1.610 . S
N448 C449 1.351 . S
C449 C443 1.428 . S
C449 N448 1.351 . S
C449 C450 1.434 . S
C450 C441 1.429 . S
C450 N447 1.350 . S
C450 C449 1.434 . S
C451 C452 1.369 . S
C451 C453 1.419 . S
C451 H455 0.930 . S
C452 C451 1.369 . S
C452 C461 1.429 . S
C453 C451 1.419 . S
C453 C454 1.363 . S
C453 H456 0.929 . S
C454 C453 1.363 . S
C454 C460 1.428 . S
H455 C451 0.930 . S
H456 C453 0.929 . S
S457 N458 1.613 . S
S457 N459 1.610 . S
N458 S457 1.613 . S
N458 C461 1.350 . S
N459 S457 1.610 . S
N459 C460 1.351 . S
C460 C454 1.428 . S
C460 N459 1.351 . S
C460 C461 1.434 . S
C461 C452 1.429 . S
C461 N458 1.350 . S
C461 C460 1.434 . S
C462 C463 1.369 . S
C462 C464 1.419 . S
C462 H466 0.930 . S
C463 C462 1.369 . S
C463 C472 1.429 . S
C464 C462 1.419 . S
C464 C465 1.363 . S
C464 H467 0.929 . S
C465 C464 1.363 . S
C465 C471 1.428 . S
H466 C462 0.930 . S
H467 C464 0.929 . S
S468 N469 1.613 . S
S468 N470 1.610 . S
N469 S468 1.613 . S
N469 C472 1.350 . S
N470 S468 1.610 . S
N470 C471 1.351 . S
C471 C465 1.428 . S
C471 N470 1.351 . S
C471 C472 1.434 . S
C472 C463 1.429 . S
C472 N469 1.350 . S
C472 C471 1.434 . S
C473 C474 1.369 . S
C473 C475 1.419 . S
C473 H477 0.930 . S
C474 C473 1.369 . S
C474 C483 1.429 . S
C475 C473 1.419 . S
C475 C476 1.363 . S
C475 H478 0.929 . S
C476 C475 1.363 . S
C476 C482 1.428 . S
H477 C473 0.930 . S
H478 C475 0.929 . S
S479 N480 1.613 . S
S479 N481 1.610 . S
N480 S479 1.613 . S
N480 C483 1.350 . S
N481 S479 1.610 . S
N481 C482 1.351 . S
C482 C476 1.428 . S
C482 N481 1.351 . S
C482 C483 1.434 . S
C483 C474 1.429 . S
C483 N480 1.350 . S
C483 C482 1.434 . S
C265 C249 1.329 . S
C267 C18 1.336 . S
C276 C150 1.337 . S
C278 C51 1.330 . S
C287 C84 1.329 . S
C289 C183 1.335 . S
C298 C216 1.338 . S
C300 C117 1.330 . S
C309 C7 1.495 . S
C311 C139 1.493 . S
C320 C172 1.495 . S
C322 C40 1.495 . S
C331 C205 1.491 . S
C333 C73 1.490 . S
C342 C238 1.494 . S
C344 C106 1.495 . S
C353 C252 1.527 . S
C355 C54 1.528 . S
C364 C87 1.531 . S
C366 C153 1.529 . S
C375 C120 1.527 . S
C377 C186 1.529 . S
C386 C219 1.527 . S
C388 C21 1.527 . S
C397 N13 1.335 . S
C399 N2 1.331 1_556 S
C408 N35 1.331 . S
C410 N46 1.335 . S
C419 N68 1.334 1_556 S
C421 N79 1.332 . S
C430 N112 1.335 . S
C432 N101 1.331 . S
C441 N134 1.330 . S
C443 N145 1.335 . S
C452 N167 1.330 1_554 S
C454 N178 1.335 . S
C463 N200 1.334 . S
C465 N211 1.332 . S
C474 N244 1.333 . S
C476 N233 1.333 1_554 S
