# Generated by pormake.
# Topology snk, (6)-cn, num edge types: 1
# Building blocks:
#     Node 0, Type 0, BuildingBlock: FUNLAD_clean_sbu_0, # of connection points: 6
#     Node 1, Type 0, BuildingBlock: FUNLAD_clean_sbu_0, # of connection points: 6
#     Node 2, Type 0, BuildingBlock: FUNLAD_clean_sbu_0, # of connection points: 6
#     Node 3, Type 0, BuildingBlock: FUNLAD_clean_sbu_0, # of connection points: 6
#     Node 4, Type 0, BuildingBlock: FUNLAD_clean_sbu_0, # of connection points: 6
#     Node 5, Type 0, BuildingBlock: FUNLAD_clean_sbu_0, # of connection points: 6
#     Node 6, Type 0, BuildingBlock: FUNLAD_clean_sbu_0, # of connection points: 6
#     Node 7, Type 0, BuildingBlock: FUNLAD_clean_sbu_0, # of connection points: 6
#     Edge 8, Type (0, 0), BuildingBlock: OJICUG_clean_linker_0, # of connection points: 2
#     Edge 9, Type (0, 0), BuildingBlock: OJICUG_clean_linker_0, # of connection points: 2
#     Edge 10, Type (0, 0), BuildingBlock: OJICUG_clean_linker_0, # of connection points: 2
#     Edge 11, Type (0, 0), BuildingBlock: OJICUG_clean_linker_0, # of connection points: 2
#     Edge 12, Type (0, 0), BuildingBlock: OJICUG_clean_linker_0, # of connection points: 2
#     Edge 13, Type (0, 0), BuildingBlock: OJICUG_clean_linker_0, # of connection points: 2
#     Edge 14, Type (0, 0), BuildingBlock: OJICUG_clean_linker_0, # of connection points: 2
#     Edge 15, Type (0, 0), BuildingBlock: OJICUG_clean_linker_0, # of connection points: 2
#     Edge 16, Type (0, 0), BuildingBlock: OJICUG_clean_linker_0, # of connection points: 2
#     Edge 17, Type (0, 0), BuildingBlock: OJICUG_clean_linker_0, # of connection points: 2
#     Edge 18, Type (0, 0), BuildingBlock: OJICUG_clean_linker_0, # of connection points: 2
#     Edge 19, Type (0, 0), BuildingBlock: OJICUG_clean_linker_0, # of connection points: 2
#     Edge 20, Type (0, 0), BuildingBlock: OJICUG_clean_linker_0, # of connection points: 2
#     Edge 21, Type (0, 0), BuildingBlock: OJICUG_clean_linker_0, # of connection points: 2
#     Edge 22, Type (0, 0), BuildingBlock: OJICUG_clean_linker_0, # of connection points: 2
#     Edge 23, Type (0, 0), BuildingBlock: OJICUG_clean_linker_0, # of connection points: 2
#     Edge 24, Type (0, 0), BuildingBlock: OJICUG_clean_linker_0, # of connection points: 2
#     Edge 25, Type (0, 0), BuildingBlock: OJICUG_clean_linker_0, # of connection points: 2
#     Edge 26, Type (0, 0), BuildingBlock: OJICUG_clean_linker_0, # of connection points: 2
#     Edge 27, Type (0, 0), BuildingBlock: OJICUG_clean_linker_0, # of connection points: 2
#     Edge 28, Type (0, 0), BuildingBlock: OJICUG_clean_linker_0, # of connection points: 2
#     Edge 29, Type (0, 0), BuildingBlock: OJICUG_clean_linker_0, # of connection points: 2
#     Edge 30, Type (0, 0), BuildingBlock: OJICUG_clean_linker_0, # of connection points: 2
#     Edge 31, Type (0, 0), BuildingBlock: OJICUG_clean_linker_0, # of connection points: 2
# Relax obj value: 0.379
# Max RMSD: 0.135
# Mean RMSD: 0.103
data_MOF--net-snk--node1-FUNLAD_clean_sbu_0--edge1-OJICUG_clean_linker_0
_symmetry_space_group_name_H-M    P1
_symmetry_Int_Tables_number       1
_symmetry_cell_setting            triclinic
loop_
_symmetry_equiv_pos_as_xyz
'x, y, z'
_cell_length_a     38.61694
_cell_length_b     38.487326
_cell_length_c     11.302562
_cell_angle_alpha  78.575005
_cell_angle_beta   78.2577
_cell_angle_gamma 95.586145
loop_
_atom_site_label
_atom_site_type_symbol
_atom_site_fract_x
_atom_site_fract_y
_atom_site_fract_z
_atom_type_partial_charge
C0 C 1.03471 1.03931 0.71889 0.0
N1 N 0.09695 0.98552 0.48749 0.0
C2 C 0.13037 0.99244 0.41214 0.0
C3 C 0.15652 0.97083 0.4371 0.0
C4 C 0.14835 0.94179 0.54086 0.0
C5 C 0.11343 0.9352 0.61564 0.0
C6 C 0.08821 0.9573 0.5872 0.0
Zn7 Zn 0.05946 1.02045 0.46997 0.0
C8 C 0.97881 0.97579 0.53739 0.0
N9 N 0.98086 0.09284 0.45586 0.0
C10 C 0.98241 0.12503 0.48881 0.0
C11 C 0.95444 0.08212 0.40164 0.0
C12 C 0.92856 0.10387 0.37787 0.0
C13 C 0.92968 0.13747 0.40876 0.0
C14 C 0.95705 0.14785 0.46581 0.0
Zn15 Zn 1.01928 0.05873 0.47289 0.0
O16 O 0.05441 1.02104 0.65914 0.0
C17 C 0.10001 0.10326 0.40595 0.0
O18 O 1.01505 0.05854 0.66423 0.0
H19 H 0.95383 0.05687 0.37346 0.0
H20 H 0.13704 1.0152 0.33407 0.0
H21 H 1.00363 0.13331 0.5311 0.0
O22 O 0.10548 0.07025 0.41902 0.0
O23 O 0.06672 0.1077 0.42064 0.0
H24 H 0.06183 0.95253 0.64769 0.0
O25 O 1.02444 0.05828 0.28357 0.0
O26 O 0.06374 1.02073 0.27853 0.0
O27 O 0.97333 1.00873 0.52579 0.0
O28 O 1.01209 0.97147 0.52104 0.0
C29 C 0.04411 0.03999 0.22383 0.0
H30 H 0.18284 0.97685 0.3757 0.0
H31 H 0.10578 0.91372 0.69793 0.0
H32 H 0.90853 0.09486 0.33182 0.0
H33 H 0.95891 0.17339 0.49225 0.0
C34 C 0.28827 0.79709 0.95925 0.0
N35 N 0.36279 0.8486 0.63042 0.0
C36 C 0.36395 0.87379 0.69857 0.0
C37 C 0.39212 0.87753 0.75613 0.0
C38 C 0.41858 0.85516 0.74137 0.0
C39 C 0.42065 0.83552 0.64939 0.0
C40 C 0.39225 0.83347 0.59085 0.0
Zn41 Zn 0.31608 0.81518 0.67868 0.0
C42 C 0.33399 0.73807 0.75952 0.0
N43 N 0.22394 0.73829 0.79604 0.0
C44 C 0.19412 0.75301 0.83476 0.0
C45 C 0.22327 0.7126 0.7297 0.0
C46 C 0.19501 0.70759 0.67362 0.0
C47 C 0.16788 0.72922 0.68785 0.0
C48 C 0.16551 0.74955 0.77793 0.0
Zn49 Zn 0.27056 0.77179 0.74879 0.0
O50 O 0.31109 0.81809 0.87022 0.0
C51 C 0.25227 0.8486 0.66901 0.0
O52 O 0.26587 0.77478 0.9348 0.0
H53 H 0.2472 0.70111 0.70087 0.0
H54 H 0.3403 0.88564 0.7279 0.0
H55 H 0.19516 0.77272 0.89064 0.0
O56 O 0.28576 0.85888 0.64453 0.0
O57 O 0.24087 0.81559 0.71413 0.0
H58 H 0.39082 0.81417 0.53362 0.0
O59 O 0.27544 0.76899 0.55724 0.0
O60 O 0.32084 0.81207 0.49272 0.0
O61 O 0.30047 0.72834 0.78227 0.0
O62 O 0.346 0.771 0.71474 0.0
C63 C 0.29836 0.78986 0.46824 0.0
H64 H 0.3906 0.89378 0.82469 0.0
H65 H 0.44132 0.81872 0.63434 0.0
H66 H 0.19673 0.69074 0.60689 0.0
H67 H 0.14428 0.76574 0.79284 0.0
C68 C 0.53475 0.04243 0.72678 0.0
N69 N 0.48893 0.97058 0.06858 0.0
C70 C 0.45856 0.96294 0.03052 0.0
C71 C 0.44505 0.92739 0.0406 0.0
C72 C 0.46417 0.90023 0.08484 0.0
C73 C 0.49232 0.9086 0.13906 0.0
C74 C 0.50392 0.94444 0.13223 0.0
Zn75 Zn 0.51975 1.01849 -0.00039 0.0
C76 C 0.59698 1.00178 0.91889 0.0
N77 N 0.59331 0.11233 0.86649 0.0
C78 C 0.57823 0.1387 0.8044 0.0
C79 C 0.6237 0.11973 0.90475 0.0
C80 C 0.63704 0.15518 0.89715 0.0
C81 C 0.61768 0.18242 0.85542 0.0
C82 C 0.58963 0.17441 0.80024 0.0
Zn83 Zn 0.56238 0.06444 0.935 0.0
O84 O 0.51376 1.01891 0.81386 0.0
C85 C 0.48499 0.08096 0.016 0.0
O86 O 0.55628 0.06486 0.75422 0.0
H87 H 0.63511 0.09829 0.95363 0.0
H88 H 0.44722 0.98421 -0.01962 0.0
H89 H 0.55444 0.13203 0.77227 0.0
O90 O 0.47535 0.04737 0.03579 0.0
O91 O 0.51791 0.09312 -0.02641 0.0
H92 H 0.52772 0.95129 0.16405 0.0
O93 O 0.56848 0.06395 0.12069 0.0
O94 O 0.52576 1.0182 0.1804 0.0
O95 O 0.60682 1.03537 0.89839 0.0
O96 O 0.56405 0.98985 0.96166 0.0
C97 C 0.54739 0.04054 0.2078 0.0
H98 H 0.42336 0.92163 -0.00343 0.0
H99 H 0.5077 0.88825 0.1726 0.0
H100 H 0.65867 0.16065 0.94174 0.0
H101 H 0.57409 0.19482 0.76847 0.0
C102 C 0.28985 0.29429 -0.02505 0.0
N103 N 0.34234 0.23095 0.20545 0.0
C104 C 0.33184 0.20437 0.15107 0.0
C105 C 0.35386 0.17873 0.12582 0.0
C106 C 0.38747 0.1803 0.1554 0.0
C107 C 0.39756 0.20775 0.21309 0.0
C108 C 0.37449 0.23284 0.23754 0.0
Zn109 Zn 0.30854 0.2695 0.22311 0.0
C110 C 0.35344 0.34999 0.15585 0.0
N111 N 0.2366 0.34834 0.23937 0.0
C112 C 0.20445 0.34656 0.20723 0.0
C113 C 0.2472 0.37491 0.29364 0.0
C114 C 0.22529 0.40067 0.31868 0.0
C115 C 0.19169 0.39921 0.28903 0.0
C116 C 0.18149 0.37176 0.2315 0.0
Zn117 Zn 0.27036 0.30972 0.22171 0.0
O118 O 0.30816 0.27462 0.03385 0.0
C119 C 0.22546 0.22921 0.28895 0.0
O120 O 0.2706 0.31392 0.03047 0.0
H121 H 0.27243 0.37568 0.32111 0.0
H122 H 0.3066 0.20352 0.12365 0.0
H123 H 0.19629 0.32522 0.16486 0.0
O124 O 0.25835 0.22374 0.27595 0.0
O125 O 0.22111 0.26258 0.27398 0.0
H126 H 0.38258 0.25419 0.27999 0.0
O127 O 0.27073 0.30461 0.41097 0.0
O128 O 0.30829 0.2653 0.41436 0.0
O129 O 0.32055 0.35547 0.16883 0.0
O130 O 0.35778 0.31662 0.17086 0.0
C131 C 0.28905 0.28494 0.46988 0.0
H132 H 0.34507 0.15858 0.07947 0.0
H133 H 0.4231 0.20992 0.23864 0.0
H134 H 0.23415 0.4208 0.36492 0.0
H135 H 0.15596 0.36967 0.20593 0.0
C136 C 0.78249 0.29215 0.47536 0.0
N137 N 0.85684 0.34353 0.14626 0.0
C138 C 0.85791 0.36892 0.21367 0.0
C139 C 0.88625 0.37321 0.27 0.0
C140 C 0.913 0.35118 0.25484 0.0
C141 C 0.91506 0.3313 0.16353 0.0
C142 C 0.88644 0.32865 0.10632 0.0
Zn143 Zn 0.81021 0.30998 0.19516 0.0
C144 C 0.8285 0.23325 0.27561 0.0
N145 N 0.71794 0.2331 0.31425 0.0
C146 C 0.6885 0.24818 0.35449 0.0
C147 C 0.71656 0.2076 0.24739 0.0
C148 C 0.68801 0.20335 0.19194 0.0
C149 C 0.6615 0.22564 0.20697 0.0
C150 C 0.65978 0.24569 0.29771 0.0
Zn151 Zn 0.76462 0.26664 0.26499 0.0
O152 O 0.80543 0.31304 0.38647 0.0
C153 C 0.74654 0.34352 0.18393 0.0
O154 O 0.76004 0.26995 0.45071 0.0
H155 H 0.74021 0.19584 0.21738 0.0
H156 H 0.83415 0.38057 0.24332 0.0
H157 H 0.69012 0.26773 0.41071 0.0
O158 O 0.78006 0.35338 0.16114 0.0
O159 O 0.73465 0.31059 0.22894 0.0
H160 H 0.88507 0.30917 0.04971 0.0
O161 O 0.76938 0.26352 0.0738 0.0
O162 O 0.81474 0.30668 0.00945 0.0
O163 O 0.79499 0.22316 0.29905 0.0
O164 O 0.84014 0.26622 0.23063 0.0
C165 C 0.79229 0.28446 -0.01513 0.0
H166 H 0.88474 0.38966 0.33793 0.0
H167 H 0.93597 0.31477 0.14808 0.0
H168 H 0.68932 0.1869 0.12403 0.0
H169 H 0.63914 0.26253 0.31276 0.0
C170 C 0.7898 0.79433 0.47404 0.0
N171 N 0.84188 0.73067 0.70555 0.0
C172 C 0.83119 0.7041 0.65142 0.0
C173 C 0.85283 0.67801 0.62793 0.0
C174 C 0.88624 0.67913 0.659 0.0
C175 C 0.89653 0.70661 0.71624 0.0
C176 C 0.87384 0.73216 0.73895 0.0
Zn177 Zn 0.80838 0.76955 0.72229 0.0
C178 C 0.85348 0.84987 0.65477 0.0
N179 N 0.73691 0.84883 0.73749 0.0
C180 C 0.70496 0.8475 0.70402 0.0
C181 C 0.74771 0.87534 0.79168 0.0
C182 C 0.72622 0.90153 0.81516 0.0
C183 C 0.69282 0.90058 0.78403 0.0
C184 C 0.6824 0.87315 0.72674 0.0
Zn185 Zn 0.77034 0.8099 0.72069 0.0
O186 O 0.80806 0.77459 0.533 0.0
C187 C 0.72521 0.72958 0.78819 0.0
O188 O 0.77062 0.81403 0.52949 0.0
H189 H 0.7728 0.87577 0.82011 0.0
H190 H 0.8061 0.70354 0.62307 0.0
H191 H 0.69665 0.82623 0.66162 0.0
O192 O 0.75807 0.72403 0.77523 0.0
O193 O 0.72093 0.76297 0.77308 0.0
H194 H 0.88206 0.75348 0.7813 0.0
O195 O 0.77066 0.80485 0.90999 0.0
O196 O 0.80809 0.76541 0.9135 0.0
O197 O 0.82062 0.8554 0.66771 0.0
O198 O 0.85778 0.81649 0.6699 0.0
C199 C 0.78892 0.78511 0.96895 0.0
H200 H 0.84392 0.65785 0.58185 0.0
H201 H 0.92193 0.70846 0.74285 0.0
H202 H 0.73522 0.92164 0.8613 0.0
H203 H 0.657 0.87144 0.70011 0.0
C204 C 0.53459 0.53955 0.21973 0.0
N205 N 0.59769 0.48644 -0.01123 0.0
C206 C 0.62414 0.49708 0.04297 0.0
C207 C 0.64943 0.47486 0.0695 0.0
C208 C 0.64768 0.44089 0.04141 0.0
C209 C 0.62037 0.43065 -0.01606 0.0
C210 C 0.5956 0.45392 0.9582 0.0
Zn211 Zn 0.55938 0.52059 0.97092 0.0
C212 C 0.47896 0.47584 0.03871 0.0
N213 N 0.48119 0.59333 0.95568 0.0
C214 C 0.48359 0.62585 -0.01381 0.0
C215 C 0.45468 0.58296 0.90132 0.0
C216 C 0.42968 0.6055 0.87435 0.0
C217 C 0.4318 0.6395 0.90224 0.0
C218 C 0.45913 0.64943 0.96006 0.0
Zn219 Zn 0.51934 0.55903 -0.02649 0.0
O220 O 0.55414 0.52114 0.16013 0.0
C221 C 0.59973 0.60378 0.90564 0.0
O222 O 0.51504 0.55892 0.16492 0.0
H223 H 0.45346 0.55744 0.87497 0.0
H224 H 0.62512 0.52258 0.06946 0.0
H225 H 0.50491 0.63386 0.02847 0.0
O226 O 0.60517 0.5708 0.91801 0.0
O227 O 0.56646 0.60817 0.9213 0.0
H228 H 0.57433 0.44569 0.91609 0.0
O229 O 0.52458 0.55849 0.7843 0.0
O230 O 0.56367 0.5207 0.77952 0.0
O231 O 0.47352 0.50883 0.02626 0.0
O232 O 0.51223 0.47143 0.02318 0.0
C233 C 0.54413 0.54007 0.72471 0.0
H234 H 0.66945 0.48381 0.1157 0.0
H235 H 0.61804 0.40484 0.95949 0.0
H236 H 0.40961 0.59677 0.82796 0.0
H237 H 0.46172 0.67523 -0.01555 0.0
C238 C 1.03225 0.53954 0.23645 0.0
N239 N 0.98632 0.46774 0.57775 0.0
C240 C 0.95582 0.46041 0.54004 0.0
C241 C 0.94205 0.42497 0.54972 0.0
C242 C 0.96101 0.39758 0.59329 0.0
C243 C 0.98938 0.40562 0.64692 0.0
C244 C 1.00125 0.44137 0.64054 0.0
Zn245 Zn 1.01726 0.51555 0.50927 0.0
C246 C 0.09453 0.4989 0.42834 0.0
N247 N 0.09077 0.60925 0.37655 0.0
C248 C 0.07593 0.63572 0.31387 0.0
C249 C 0.12134 0.6164 0.41402 0.0
C250 C 0.1354 0.65178 0.40377 0.0
C251 C 0.1167 0.67932 0.35963 0.0
C252 C 0.0881 0.67143 0.30688 0.0
Zn253 Zn 0.05982 0.56148 0.44479 0.0
O254 O 1.01123 0.51606 0.32354 0.0
C255 C 0.98262 0.57823 0.52531 0.0
O256 O 0.05381 0.56195 0.26386 0.0
H257 H 0.13252 0.59488 0.46351 0.0
H258 H 0.94455 0.48185 0.49053 0.0
H259 H 0.05197 0.62922 0.28246 0.0
O260 O 0.97282 0.54464 0.54558 0.0
O261 O 1.01555 0.59021 0.48288 0.0
H262 H 1.02514 0.44799 0.67216 0.0
O263 O 0.06586 0.56096 0.63051 0.0
O264 O 1.02325 0.51511 0.6902 0.0
O265 O 0.10421 0.53249 0.40835 0.0
O266 O 0.06163 0.48679 0.47097 0.0
C267 C 0.04483 0.5375 0.71761 0.0
H268 H 0.9202 0.41944 0.50613 0.0
H269 H 1.00463 0.38508 0.67992 0.0
H270 H 0.1574 0.65722 0.44677 0.0
H271 H 0.07305 0.69211 0.2735 0.0
C272 C 0.12707 0.17265 0.36116 0.0
C273 C 0.13203 0.13582 0.37544 0.0
H274 H 0.14971 0.22894 0.32502 0.0
C275 C 0.16879 0.13098 0.36057 0.0
H276 H 0.10013 0.17915 0.37087 0.0
C277 C 0.19792 0.16025 0.33383 0.0
C278 C 0.19302 0.19707 0.31953 0.0
H279 H 0.17539 0.10403 0.36976 0.0
H280 H 0.22484 0.1537 0.32411 0.0
C281 C 0.15625 0.20196 0.33431 0.0
C282 C 0.21193 0.93249 0.55473 0.0
C283 C 0.17565 0.91841 0.57218 0.0
H284 H 0.26461 0.92188 0.57231 0.0
C285 C 0.16529 0.88149 0.62256 0.0
H286 H 0.22096 0.96082 0.51743 0.0
C287 C 0.19009 0.85945 0.65551 0.0
C288 C 0.22629 0.87338 0.63852 0.0
H289 H 0.13792 0.86931 0.63528 0.0
H290 H 0.18076 0.83119 0.69304 0.0
C291 C 0.23696 0.91024 0.58735 0.0
C292 C 0.47392 0.86341 0.8168 0.0
C293 C 0.43836 0.84783 0.83889 0.0
H294 H 0.51222 0.8901 0.89242 0.0
C295 C 0.41836 0.83517 0.96147 0.0
H296 H 0.48984 0.87281 0.7229 0.0
C297 C 0.4305 0.84618 0.05772 0.0
C298 C 0.46301 0.86883 0.03042 0.0
H299 H 0.39109 0.82204 -0.02038 0.0
H300 H 0.41207 0.84235 0.14699 0.0
C301 C 0.4867 0.87299 0.91436 0.0
C302 C 0.42272 0.09408 0.098 0.0
C303 C 0.45938 0.10605 0.04878 0.0
H304 H 0.3714 0.10783 0.17167 0.0
C305 C 0.47208 0.14251 0.03594 0.0
H306 H 0.41203 0.06621 0.11005 0.0
C307 C 0.44892 0.16627 0.07184 0.0
C308 C 0.41225 0.15443 0.12112 0.0
H309 H 0.50015 0.15283 -0.0013 0.0
H310 H 0.45973 0.19415 0.05901 0.0
C311 C 0.39943 0.118 0.13329 0.0
C312 C 0.91007 0.94806 0.58318 0.0
C313 C 0.94683 0.94323 0.568 0.0
H314 H 0.85404 0.92531 0.61994 0.0
C315 C 0.95184 0.90642 0.58203 0.0
H316 H 0.90346 0.97501 0.57411 0.0
C317 C 0.92268 0.8771 0.609 0.0
C318 C 0.88591 0.88198 0.62409 0.0
H319 H 0.97879 0.89995 0.5721 0.0
H320 H 0.92923 0.85012 0.61814 0.0
C321 C 0.88097 0.91879 0.61 0.0
C322 C 0.91445 0.19874 0.32887 0.0
C323 C 0.90332 0.16185 0.37668 0.0
H324 H 0.90003 0.24971 0.25837 0.0
C325 C 0.86712 0.1484 0.3893 0.0
H326 H 0.94211 0.21008 0.3159 0.0
C327 C 0.84277 0.17125 0.35553 0.0
C328 C 0.85406 0.20812 0.30732 0.0
H329 H 0.85745 0.12018 0.42671 0.0
H330 H 0.81511 0.16005 0.36772 0.0
C331 C 0.89026 0.22147 0.29445 0.0
C332 C 0.60659 0.21681 0.12946 0.0
C333 C 0.64185 0.23306 0.10911 0.0
H334 H 0.56911 0.19019 0.05048 0.0
C335 C 0.66202 0.24661 -0.01284 0.0
H336 H 0.59058 0.20665 0.22289 0.0
C337 C 0.65045 0.23606 0.88919 0.0
C338 C 0.61828 0.21301 0.91409 0.0
H339 H 0.68908 0.26016 0.97048 0.0
H340 H 0.66908 0.2407 0.79999 0.0
C341 C 0.59434 0.20769 0.03027 0.0
C342 C 0.63178 0.91575 0.86544 0.0
C343 C 0.66854 0.92701 0.81669 0.0
H344 H 0.58088 0.93003 0.93721 0.0
C345 C 0.6819 0.96335 0.8038 0.0
H346 H 0.62055 0.88797 0.8788 0.0
C347 C 0.65902 0.98775 0.83794 0.0
C348 C 0.62225 0.97633 0.88678 0.0
H349 H 0.71004 0.97306 0.76585 0.0
H350 H 0.67009 1.01553 0.82544 0.0
C351 C 0.60904 0.93996 0.90025 0.0
C352 C 0.66849 0.63144 0.85998 0.0
C353 C 0.63175 0.63631 0.87496 0.0
H354 H 0.72455 0.65411 0.82335 0.0
C355 C 0.6268 0.67314 0.86076 0.0
H356 H 0.67506 0.60447 0.86921 0.0
C357 C 0.65599 0.70243 0.83379 0.0
C358 C 0.69274 0.6975 0.81888 0.0
H359 H 0.59986 0.67965 0.87059 0.0
H360 H 0.64948 0.72942 0.82453 0.0
C361 C 0.69763 0.66068 0.83315 0.0
C362 C 0.68513 0.35618 0.16292 0.0
C363 C 0.72142 0.36898 0.15074 0.0
H364 H 0.63374 0.36842 0.13851 0.0
C365 C 0.73337 0.40568 0.10104 0.0
H366 H 0.67487 0.32807 0.20011 0.0
C367 C 0.70963 0.42892 0.06485 0.0
C368 C 0.67334 0.41604 0.07658 0.0
H369 H 0.76114 0.41647 0.08928 0.0
H370 H 0.71985 0.45697 0.02612 0.0
C371 C 0.6615 0.37931 0.12615 0.0
C372 C 0.98231 0.37 0.42254 0.0
C373 C 0.95918 0.36611 0.53952 0.0
H374 H 0.98446 0.36915 0.23212 0.0
C375 C 0.92654 0.34357 0.56917 0.0
H376 H 1.00791 0.38705 0.39888 0.0
C377 C 0.91376 0.33227 0.47456 0.0
C378 C 0.93327 0.34451 0.35117 0.0
H379 H 0.90854 0.34 0.65915 0.0
H380 H 0.88643 0.31915 0.49466 0.0
C381 C 0.96891 0.36007 0.32664 0.0
C382 C 0.89745 0.61642 0.63943 0.0
C383 C 0.91067 0.6528 0.62647 0.0
H384 H 0.90949 0.56428 0.61816 0.0
C385 C 0.94742 0.66417 0.57797 0.0
H386 H 0.86932 0.60661 0.6772 0.0
C387 C 0.9703 0.64003 0.54352 0.0
C388 C 0.95723 0.60362 0.5571 0.0
H389 H 0.95854 0.69199 0.56455 0.0
H390 H 0.99845 0.65004 0.50674 0.0
C391 C 0.92046 0.59209 0.60563 0.0
C392 C 0.42265 0.37718 0.1104 0.0
C393 C 0.3859 0.3821 0.12524 0.0
H394 H 0.47878 0.39995 0.07375 0.0
C395 C 0.38102 0.41893 0.11097 0.0
H396 H 0.42917 0.35019 0.11967 0.0
C397 C 0.41017 0.44817 0.08421 0.0
C398 C 0.44692 0.4433 0.06931 0.0
H399 H 0.3541 0.4255 0.12071 0.0
H400 H 0.4036 0.47514 0.07498 0.0
C401 C 0.45185 0.40647 0.08352 0.0
C402 C 0.3701 0.65217 0.87819 0.0
C403 C 0.40646 0.66469 0.86675 0.0
H404 H 0.3188 0.66517 0.85352 0.0
C405 C 0.41864 0.70138 0.81737 0.0
H406 H 0.35962 0.62417 0.91678 0.0
C407 C 0.39526 0.72483 0.78058 0.0
C408 C 0.35891 0.71237 0.79253 0.0
H409 H 0.44646 0.712 0.80527 0.0
H410 H 0.40575 0.75289 0.74359 0.0
C411 C 0.34663 0.6757 0.84196 0.0
C412 C 0.11128 0.71924 0.62093 0.0
C413 C 0.14707 0.73462 0.59276 0.0
H414 H 0.07131 0.69146 0.55496 0.0
C415 C 0.16597 0.74569 0.4683 0.0
H416 H 0.09621 0.71108 0.71629 0.0
C417 C 0.15232 0.73352 0.37679 0.0
C418 C 0.11945 0.71125 0.41049 0.0
H419 H 0.19341 0.75868 0.44529 0.0
H420 H 0.16978 0.7363 0.28627 0.0
C421 C 0.09705 0.70836 0.52809 0.0
C422 C 0.13035 0.41345 0.37263 0.0
C423 C 0.16702 0.42519 0.3232 0.0
H424 H 0.0792 0.42704 0.44591 0.0
C425 C 0.17995 0.4616 0.31083 0.0
H426 H 0.11945 0.38559 0.38561 0.0
C427 C 0.15675 0.48561 0.3461 0.0
C428 C 0.12008 0.47374 0.39552 0.0
H429 H 0.20799 0.4717 0.27235 0.0
H430 H 0.16752 0.51347 0.33391 0.0
C431 C 0.10728 0.43729 0.40853 0.0
C432 C 0.05905 1.01814 0.90589 0.0
C433 C 1.03645 1.0391 0.84893 0.0
H434 H 0.07948 1.00213 0.06797 0.0
C435 C 1.01682 0.06059 0.91591 0.0
H436 H 0.07469 1.0013 0.85688 0.0
C437 C 1.01973 0.06113 0.03691 0.0
C438 C 0.04236 0.04019 0.09381 0.0
H439 H 0.99932 0.07715 0.87479 0.0
H440 H 1.00406 0.07793 0.08597 0.0
C441 C 0.06198 1.01869 0.02685 0.0
C442 C 0.2718 0.76648 0.30917 0.0
C443 C 0.29669 0.79082 0.33761 0.0
H444 H 0.24915 0.74972 0.16833 0.0
C445 C 0.31825 0.8178 0.24062 0.0
H446 H 0.25482 0.74537 0.38148 0.0
C447 C 0.31487 0.82046 0.11831 0.0
C448 C 0.28997 0.79613 0.08987 0.0
H449 H 0.33752 0.83722 0.25918 0.0
H450 H 0.33188 0.84155 0.046 0.0
C451 C 0.26842 0.76914 0.18687 0.0
C452 C 0.51739 1.01502 0.55912 0.0
C453 C 0.53689 0.04243 0.59409 0.0
H454 H 0.5059 0.99261 0.4104 0.0
C455 C 0.56063 0.06889 0.50066 0.0
H456 H 0.49919 0.99407 0.62845 0.0
C457 C 0.56477 0.06796 0.37543 0.0
C458 C 0.54527 0.04055 0.34047 0.0
H459 H 0.57626 0.09037 0.52417 0.0
H460 H 0.58297 0.08891 0.30609 0.0
C461 C 0.52153 1.01409 0.4339 0.0
C462 C 0.26875 0.31243 0.77852 0.0
C463 C 0.29002 0.29254 0.84491 0.0
H464 H 0.25157 0.32541 0.60887 0.0
C465 C 0.3107 0.26969 0.78734 0.0
H466 H 0.2524 0.33012 0.82013 0.0
C467 C 0.31014 0.2668 0.6663 0.0
C468 C 0.28887 0.28668 0.59992 0.0
H469 H 0.32732 0.25381 0.83595 0.0
H470 H 0.32649 0.24911 0.62469 0.0
C471 C 0.26819 0.30954 0.65748 0.0
C472 C 0.81252 0.31232 0.75728 0.0
C473 C 0.79063 0.28552 0.85415 0.0
H474 H 0.82648 0.33606 0.56265 0.0
C475 C 0.76546 0.26153 0.82544 0.0
H476 H 0.832 0.33147 0.77603 0.0
C477 C 0.76218 0.26432 0.70298 0.0
C478 C 0.78409 0.2911 0.60611 0.0
H479 H 0.74816 0.24062 0.89765 0.0
H480 H 0.74271 0.24516 0.68422 0.0
C481 C 0.80922 0.31512 0.63484 0.0
C482 C 0.76877 0.81261 0.27758 0.0
C483 C 0.78996 0.79261 0.344 0.0
H484 H 0.75164 0.82572 0.10788 0.0
C485 C 0.81053 0.76968 0.28646 0.0
H486 H 0.7525 0.83036 0.31918 0.0
C487 C 0.80995 0.76683 0.1654 0.0
C488 C 0.78876 0.78683 0.09898 0.0
H489 H 0.82708 0.75372 0.3351 0.0
H490 H 0.82622 0.74908 0.1238 0.0
C491 C 0.76819 0.80976 0.15652 0.0
C492 C 0.56204 0.51893 0.52739 0.0
C493 C 0.54234 0.54031 0.59468 0.0
H494 H 0.57484 0.50174 0.35708 0.0
C495 C 0.51961 0.56118 0.53805 0.0
H496 H 0.57963 0.50243 0.56826 0.0
C497 C 0.51667 0.56069 0.41704 0.0
C498 C 0.53637 0.53932 0.34975 0.0
H499 H 0.50388 0.57789 0.58736 0.0
H500 H 0.49908 0.57719 0.37617 0.0
C501 C 0.5591 0.51845 0.40639 0.0
C502 C 0.0623 0.56491 0.88511 0.0
C503 C 0.04271 0.53753 0.85026 0.0
H504 H 0.07387 0.58733 0.03371 0.0
C505 C 1.01892 0.51114 0.94376 0.0
H506 H 0.08055 0.5858 0.81572 0.0
C507 C 1.0148 0.51212 0.06894 0.0
C508 C 1.03437 0.5395 0.10379 0.0
H509 H 1.00322 0.48969 0.92034 0.0
H510 H 0.99654 0.49122 0.13834 0.0
C511 C 0.05817 0.56588 0.0103 0.0
loop_
_geom_bond_atom_site_label_1
_geom_bond_atom_site_label_2
_geom_bond_distance
_geom_bond_site_symmetry_2
_ccdc_geom_bond_type
C0 O16 1.246 1_645 S
C0 O18 1.258 . S
N1 C2 1.333 . S
N1 C6 1.307 . S
N1 Zn7 2.020 . S
C2 N1 1.333 . S
C2 C3 1.379 . S
C2 H20 0.952 . S
C3 C2 1.379 . S
C3 C4 1.390 . S
C3 H30 0.949 . S
C4 C3 1.390 . S
C4 C5 1.357 . S
C5 C4 1.357 . S
C5 C6 1.370 . S
C5 H31 0.950 . S
C6 N1 1.307 . S
C6 C5 1.370 . S
C6 H24 0.948 . S
Zn7 N1 2.020 . S
Zn7 O16 2.039 . S
Zn7 O22 2.034 1_565 S
Zn7 O26 2.025 . S
Zn7 O28 2.024 1_455 S
C8 O27 1.246 . S
C8 O28 1.249 . S
N9 C10 1.307 . S
N9 C11 1.333 . S
N9 Zn15 2.020 . S
C10 N9 1.307 . S
C10 C14 1.370 . S
C10 H21 0.948 . S
C11 N9 1.333 . S
C11 C12 1.379 . S
C11 H19 0.952 . S
C12 C11 1.379 . S
C12 C13 1.390 . S
C12 H32 0.949 . S
C13 C12 1.390 . S
C13 C14 1.357 . S
C14 C10 1.370 . S
C14 C13 1.357 . S
C14 H33 0.950 . S
Zn15 N9 2.020 . S
Zn15 O18 2.025 . S
Zn15 O23 2.024 1_655 S
Zn15 O25 2.039 . S
Zn15 O27 2.034 1_545 S
O16 C0 1.246 1_465 S
O16 Zn7 2.039 . S
C17 O22 1.246 . S
C17 O23 1.249 . S
O18 C0 1.258 . S
O18 Zn15 2.025 . S
H19 C11 0.952 . S
H20 C2 0.952 . S
H21 C10 0.948 . S
O22 Zn7 2.034 1_545 S
O22 C17 1.246 . S
O23 Zn15 2.024 1_455 S
O23 C17 1.249 . S
H24 C6 0.948 . S
O25 Zn15 2.039 . S
O25 C29 1.249 1_655 S
O26 Zn7 2.025 . S
O26 C29 1.255 1_565 S
O27 C8 1.246 . S
O27 Zn15 2.034 1_565 S
O28 Zn7 2.024 1_655 S
O28 C8 1.249 . S
C29 O25 1.249 1_455 S
C29 O26 1.255 1_545 S
H30 C3 0.949 . S
H31 C5 0.950 . S
H32 C12 0.949 . S
H33 C14 0.950 . S
C34 O50 1.251 1_554 S
C34 O52 1.254 1_554 S
N35 C36 1.333 . S
N35 C40 1.307 . S
N35 Zn41 2.020 . S
C36 N35 1.333 . S
C36 C37 1.379 . S
C36 H54 0.952 . S
C37 C36 1.379 . S
C37 C38 1.390 . S
C37 H64 0.949 . S
C38 C37 1.390 . S
C38 C39 1.357 . S
C39 C38 1.357 . S
C39 C40 1.370 . S
C39 H65 0.950 . S
C40 N35 1.307 . S
C40 C39 1.370 . S
C40 H58 0.948 . S
Zn41 N35 2.020 . S
Zn41 O50 2.039 . S
Zn41 O56 2.034 . S
Zn41 O60 2.025 . S
Zn41 O62 2.024 . S
C42 O61 1.246 . S
C42 O62 1.249 . S
N43 C44 1.307 . S
N43 C45 1.333 . S
N43 Zn49 2.020 . S
C44 N43 1.307 . S
C44 C48 1.370 . S
C44 H55 0.948 . S
C45 N43 1.333 . S
C45 C46 1.379 . S
C45 H53 0.952 . S
C46 C45 1.379 . S
C46 C47 1.390 . S
C46 H66 0.949 . S
C47 C46 1.390 . S
C47 C48 1.357 . S
C48 C44 1.370 . S
C48 C47 1.357 . S
C48 H67 0.950 . S
Zn49 N43 2.020 . S
Zn49 O52 2.025 . S
Zn49 O57 2.024 . S
Zn49 O59 2.039 . S
Zn49 O61 2.034 . S
O50 C34 1.251 1_556 S
O50 Zn41 2.039 . S
C51 O56 1.246 . S
C51 O57 1.249 . S
O52 C34 1.254 1_556 S
O52 Zn49 2.025 . S
H53 C45 0.952 . S
H54 C36 0.952 . S
H55 C44 0.948 . S
O56 Zn41 2.034 . S
O56 C51 1.246 . S
O57 Zn49 2.024 . S
O57 C51 1.249 . S
H58 C40 0.948 . S
O59 Zn49 2.039 . S
O59 C63 1.251 . S
O60 Zn41 2.025 . S
O60 C63 1.254 . S
O61 C42 1.246 . S
O61 Zn49 2.034 . S
O62 Zn41 2.024 . S
O62 C42 1.249 . S
C63 O59 1.251 . S
C63 O60 1.254 . S
H64 C37 0.949 . S
H65 C39 0.950 . S
H66 C46 0.949 . S
H67 C48 0.950 . S
C68 O84 1.251 1_545 S
C68 O86 1.254 . S
N69 C70 1.333 1_554 S
N69 C74 1.307 . S
N69 Zn75 2.020 . S
C70 N69 1.333 1_556 S
C70 C71 1.379 . S
C70 H88 0.952 . S
C71 C70 1.379 . S
C71 C72 1.390 1_556 S
C71 H98 0.949 . S
C72 C71 1.390 1_554 S
C72 C73 1.357 . S
C73 C72 1.357 . S
C73 C74 1.370 . S
C73 H99 0.950 . S
C74 N69 1.307 . S
C74 C73 1.370 . S
C74 H92 0.948 . S
Zn75 N69 2.020 . S
Zn75 O84 2.039 1_554 S
Zn75 O90 2.034 1_565 S
Zn75 O94 2.025 . S
Zn75 O96 2.024 1_554 S
C76 O95 1.246 . S
C76 O96 1.249 . S
N77 C78 1.307 . S
N77 C79 1.333 1_556 S
N77 Zn83 2.020 . S
C78 N77 1.307 . S
C78 C82 1.370 . S
C78 H89 0.948 . S
C79 N77 1.333 1_554 S
C79 C80 1.379 . S
C79 H87 0.952 . S
C80 C79 1.379 . S
C80 C81 1.390 1_554 S
C80 H100 0.949 . S
C81 C80 1.390 1_556 S
C81 C82 1.357 . S
C82 C78 1.370 . S
C82 C81 1.357 . S
C82 H101 0.950 . S
Zn83 N77 2.020 . S
Zn83 O86 2.025 . S
Zn83 O91 2.024 1_556 S
Zn83 O93 2.039 1_556 S
Zn83 O95 2.034 1_545 S
O84 C68 1.251 1_565 S
O84 Zn75 2.039 1_556 S
C85 O90 1.246 . S
C85 O91 1.249 . S
O86 C68 1.254 . S
O86 Zn83 2.025 . S
H87 C79 0.952 . S
H88 C70 0.952 . S
H89 C78 0.948 . S
O90 Zn75 2.034 1_545 S
O90 C85 1.246 . S
O91 Zn83 2.024 1_554 S
O91 C85 1.249 . S
H92 C74 0.948 . S
O93 Zn83 2.039 1_554 S
O93 C97 1.251 1_545 S
O94 Zn75 2.025 . S
O94 C97 1.254 . S
O95 C76 1.246 . S
O95 Zn83 2.034 1_565 S
O96 Zn75 2.024 1_556 S
O96 C76 1.249 . S
C97 O93 1.251 1_565 S
C97 O94 1.254 . S
H98 C71 0.949 . S
H99 C73 0.950 . S
H100 C80 0.949 . S
H101 C82 0.950 . S
C102 O118 1.253 . S
C102 O120 1.256 . S
N103 C104 1.333 . S
N103 C108 1.307 . S
N103 Zn109 2.020 . S
C104 N103 1.333 . S
C104 C105 1.379 . S
C104 H122 0.952 . S
C105 C104 1.379 . S
C105 C106 1.390 . S
C105 H132 0.949 . S
C106 C105 1.390 . S
C106 C107 1.357 . S
C107 C106 1.357 . S
C107 C108 1.370 . S
C107 H133 0.950 . S
C108 N103 1.307 . S
C108 C107 1.370 . S
C108 H126 0.948 . S
Zn109 N103 2.020 . S
Zn109 O118 2.039 . S
Zn109 O124 2.034 . S
Zn109 O128 2.025 . S
Zn109 O130 2.024 . S
C110 O129 1.246 . S
C110 O130 1.249 . S
N111 C112 1.307 . S
N111 C113 1.333 . S
N111 Zn117 2.020 . S
C112 N111 1.307 . S
C112 C116 1.370 . S
C112 H123 0.948 . S
C113 N111 1.333 . S
C113 C114 1.379 . S
C113 H121 0.952 . S
C114 C113 1.379 . S
C114 C115 1.390 . S
C114 H134 0.949 . S
C115 C114 1.390 . S
C115 C116 1.357 . S
C116 C112 1.370 . S
C116 C115 1.357 . S
C116 H135 0.950 . S
Zn117 N111 2.020 . S
Zn117 O120 2.025 . S
Zn117 O125 2.024 . S
Zn117 O127 2.039 . S
Zn117 O129 2.034 . S
O118 C102 1.253 . S
O118 Zn109 2.039 . S
C119 O124 1.246 . S
C119 O125 1.249 . S
O120 C102 1.256 . S
O120 Zn117 2.025 . S
H121 C113 0.952 . S
H122 C104 0.952 . S
H123 C112 0.948 . S
O124 Zn109 2.034 . S
O124 C119 1.246 . S
O125 Zn117 2.024 . S
O125 C119 1.249 . S
H126 C108 0.948 . S
O127 Zn117 2.039 . S
O127 C131 1.251 . S
O128 Zn109 2.025 . S
O128 C131 1.254 . S
O129 C110 1.246 . S
O129 Zn117 2.034 . S
O130 Zn109 2.024 . S
O130 C110 1.249 . S
C131 O127 1.251 . S
C131 O128 1.254 . S
H132 C105 0.949 . S
H133 C107 0.950 . S
H134 C114 0.949 . S
H135 C116 0.950 . S
C136 O152 1.251 . S
C136 O154 1.254 . S
N137 C138 1.333 . S
N137 C142 1.307 . S
N137 Zn143 2.020 . S
C138 N137 1.333 . S
C138 C139 1.379 . S
C138 H156 0.952 . S
C139 C138 1.379 . S
C139 C140 1.390 . S
C139 H166 0.949 . S
C140 C139 1.390 . S
C140 C141 1.357 . S
C141 C140 1.357 . S
C141 C142 1.370 . S
C141 H167 0.950 . S
C142 N137 1.307 . S
C142 C141 1.370 . S
C142 H160 0.948 . S
Zn143 N137 2.020 . S
Zn143 O152 2.039 . S
Zn143 O158 2.034 . S
Zn143 O162 2.025 . S
Zn143 O164 2.024 . S
C144 O163 1.246 . S
C144 O164 1.249 . S
N145 C146 1.307 . S
N145 C147 1.333 . S
N145 Zn151 2.020 . S
C146 N145 1.307 . S
C146 C150 1.370 . S
C146 H157 0.948 . S
C147 N145 1.333 . S
C147 C148 1.379 . S
C147 H155 0.952 . S
C148 C147 1.379 . S
C148 C149 1.390 . S
C148 H168 0.949 . S
C149 C148 1.390 . S
C149 C150 1.357 . S
C150 C146 1.370 . S
C150 C149 1.357 . S
C150 H169 0.950 . S
Zn151 N145 2.020 . S
Zn151 O154 2.025 . S
Zn151 O159 2.024 . S
Zn151 O161 2.039 . S
Zn151 O163 2.034 . S
O152 C136 1.251 . S
O152 Zn143 2.039 . S
C153 O158 1.246 . S
C153 O159 1.249 . S
O154 C136 1.254 . S
O154 Zn151 2.025 . S
H155 C147 0.952 . S
H156 C138 0.952 . S
H157 C146 0.948 . S
O158 Zn143 2.034 . S
O158 C153 1.246 . S
O159 Zn151 2.024 . S
O159 C153 1.249 . S
H160 C142 0.948 . S
O161 Zn151 2.039 . S
O161 C165 1.251 1_554 S
O162 Zn143 2.025 . S
O162 C165 1.254 1_554 S
O163 C144 1.246 . S
O163 Zn151 2.034 . S
O164 Zn143 2.024 . S
O164 C144 1.249 . S
C165 O161 1.251 1_556 S
C165 O162 1.254 1_556 S
H166 C139 0.949 . S
H167 C141 0.950 . S
H168 C148 0.949 . S
H169 C150 0.950 . S
C170 O186 1.251 . S
C170 O188 1.254 . S
N171 C172 1.333 . S
N171 C176 1.307 . S
N171 Zn177 2.020 . S
C172 N171 1.333 . S
C172 C173 1.379 . S
C172 H190 0.952 . S
C173 C172 1.379 . S
C173 C174 1.390 . S
C173 H200 0.949 . S
C174 C173 1.390 . S
C174 C175 1.357 . S
C175 C174 1.357 . S
C175 C176 1.370 . S
C175 H201 0.950 . S
C176 N171 1.307 . S
C176 C175 1.370 . S
C176 H194 0.948 . S
Zn177 N171 2.020 . S
Zn177 O186 2.039 . S
Zn177 O192 2.034 . S
Zn177 O196 2.025 . S
Zn177 O198 2.024 . S
C178 O197 1.246 . S
C178 O198 1.249 . S
N179 C180 1.307 . S
N179 C181 1.333 . S
N179 Zn185 2.020 . S
C180 N179 1.307 . S
C180 C184 1.370 . S
C180 H191 0.948 . S
C181 N179 1.333 . S
C181 C182 1.379 . S
C181 H189 0.952 . S
C182 C181 1.379 . S
C182 C183 1.390 . S
C182 H202 0.949 . S
C183 C182 1.390 . S
C183 C184 1.357 . S
C184 C180 1.370 . S
C184 C183 1.357 . S
C184 H203 0.950 . S
Zn185 N179 2.020 . S
Zn185 O188 2.025 . S
Zn185 O193 2.024 . S
Zn185 O195 2.039 . S
Zn185 O197 2.034 . S
O186 C170 1.251 . S
O186 Zn177 2.039 . S
C187 O192 1.246 . S
C187 O193 1.249 . S
O188 C170 1.254 . S
O188 Zn185 2.025 . S
H189 C181 0.952 . S
H190 C172 0.952 . S
H191 C180 0.948 . S
O192 Zn177 2.034 . S
O192 C187 1.246 . S
O193 Zn185 2.024 . S
O193 C187 1.249 . S
H194 C176 0.948 . S
O195 Zn185 2.039 . S
O195 C199 1.252 . S
O196 Zn177 2.025 . S
O196 C199 1.256 . S
O197 C178 1.246 . S
O197 Zn185 2.034 . S
O198 Zn177 2.024 . S
O198 C178 1.249 . S
C199 O195 1.252 . S
C199 O196 1.256 . S
H200 C173 0.949 . S
H201 C175 0.950 . S
H202 C182 0.949 . S
H203 C184 0.950 . S
C204 O220 1.251 . S
C204 O222 1.254 . S
N205 C206 1.333 . S
N205 C210 1.307 1_554 S
N205 Zn211 2.020 . S
C206 N205 1.333 . S
C206 C207 1.379 . S
C206 H224 0.952 . S
C207 C206 1.379 . S
C207 C208 1.390 . S
C207 H234 0.949 . S
C208 C207 1.390 . S
C208 C209 1.357 1_554 S
C209 C208 1.357 1_556 S
C209 C210 1.370 . S
C209 H235 0.950 . S
C210 N205 1.307 1_556 S
C210 C209 1.370 . S
C210 H228 0.948 . S
Zn211 N205 2.020 . S
Zn211 O220 2.039 . S
Zn211 O226 2.034 1_554 S
Zn211 O230 2.025 1_554 S
Zn211 O232 2.024 . S
C212 O231 1.246 . S
C212 O232 1.249 . S
N213 C214 1.307 1_556 S
N213 C215 1.333 . S
N213 Zn219 2.020 . S
C214 N213 1.307 1_554 S
C214 C218 1.370 . S
C214 H225 0.948 . S
C215 N213 1.333 . S
C215 C216 1.379 . S
C215 H223 0.952 . S
C216 C215 1.379 . S
C216 C217 1.390 . S
C216 H236 0.949 . S
C217 C216 1.390 . S
C217 C218 1.357 1_556 S
C218 C214 1.370 . S
C218 C217 1.357 1_554 S
C218 H237 0.950 . S
Zn219 N213 2.020 . S
Zn219 O222 2.025 1_556 S
Zn219 O227 2.024 . S
Zn219 O229 2.039 . S
Zn219 O231 2.034 1_556 S
O220 C204 1.251 . S
O220 Zn211 2.039 . S
C221 O226 1.246 . S
C221 O227 1.249 . S
O222 C204 1.254 . S
O222 Zn219 2.025 1_554 S
H223 C215 0.952 . S
H224 C206 0.952 . S
H225 C214 0.948 . S
O226 Zn211 2.034 1_556 S
O226 C221 1.246 . S
O227 Zn219 2.024 . S
O227 C221 1.249 . S
H228 C210 0.948 . S
O229 Zn219 2.039 . S
O229 C233 1.251 . S
O230 Zn211 2.025 1_556 S
O230 C233 1.254 . S
O231 C212 1.246 . S
O231 Zn219 2.034 1_554 S
O232 Zn211 2.024 . S
O232 C212 1.249 . S
C233 O229 1.251 . S
C233 O230 1.254 . S
H234 C207 0.949 . S
H235 C209 0.950 . S
H236 C216 0.949 . S
H237 C218 0.950 . S
C238 O254 1.251 1_455 S
C238 O256 1.254 . S
N239 C240 1.333 . S
N239 C244 1.307 . S
N239 Zn245 2.020 . S
C240 N239 1.333 . S
C240 C241 1.379 . S
C240 H258 0.952 . S
C241 C240 1.379 . S
C241 C242 1.390 . S
C241 H268 0.949 . S
C242 C241 1.390 . S
C242 C243 1.357 . S
C243 C242 1.357 . S
C243 C244 1.370 . S
C243 H269 0.950 . S
C244 N239 1.307 . S
C244 C243 1.370 . S
C244 H262 0.948 . S
Zn245 N239 2.020 . S
Zn245 O254 2.039 . S
Zn245 O260 2.034 . S
Zn245 O264 2.025 . S
Zn245 O266 2.024 1_655 S
C246 O265 1.246 . S
C246 O266 1.249 . S
N247 C248 1.307 . S
N247 C249 1.333 . S
N247 Zn253 2.020 . S
C248 N247 1.307 . S
C248 C252 1.370 . S
C248 H259 0.948 . S
C249 N247 1.333 . S
C249 C250 1.379 . S
C249 H257 0.952 . S
C250 C249 1.379 . S
C250 C251 1.390 . S
C250 H270 0.949 . S
C251 C250 1.390 . S
C251 C252 1.357 . S
C252 C248 1.370 . S
C252 C251 1.357 . S
C252 H271 0.950 . S
Zn253 N247 2.020 . S
Zn253 O256 2.025 . S
Zn253 O261 2.024 1_455 S
Zn253 O263 2.039 . S
Zn253 O265 2.034 . S
O254 C238 1.251 1_655 S
O254 Zn245 2.039 . S
C255 O260 1.246 . S
C255 O261 1.249 . S
O256 C238 1.254 . S
O256 Zn253 2.025 . S
H257 C249 0.952 . S
H258 C240 0.952 . S
H259 C248 0.948 . S
O260 Zn245 2.034 . S
O260 C255 1.246 . S
O261 Zn253 2.024 1_655 S
O261 C255 1.249 . S
H262 C244 0.948 . S
O263 Zn253 2.039 . S
O263 C267 1.251 1_455 S
O264 Zn245 2.025 . S
O264 C267 1.254 . S
O265 C246 1.246 . S
O265 Zn253 2.034 . S
O266 Zn245 2.024 1_455 S
O266 C246 1.249 . S
C267 O263 1.251 1_655 S
C267 O264 1.254 . S
H268 C241 0.949 . S
H269 C243 0.950 . S
H270 C250 0.949 . S
H271 C252 0.950 . S
C272 C273 1.387 . S
C272 H276 0.950 . S
C272 C281 1.390 . S
C273 C272 1.387 . S
C273 C275 1.387 . S
H274 C281 0.950 . S
C275 C273 1.387 . S
C275 C277 1.390 . S
C275 H279 0.950 . S
H276 C272 0.950 . S
C277 C275 1.390 . S
C277 C278 1.387 . S
C277 H280 0.950 . S
C278 C277 1.387 . S
C278 C281 1.387 . S
H279 C275 0.950 . S
H280 C277 0.950 . S
C281 C272 1.390 . S
C281 H274 0.950 . S
C281 C278 1.387 . S
C282 C283 1.387 . S
C282 H286 0.950 . S
C282 C291 1.390 . S
C283 C282 1.387 . S
C283 C285 1.387 . S
H284 C291 0.950 . S
C285 C283 1.387 . S
C285 C287 1.390 . S
C285 H289 0.950 . S
H286 C282 0.950 . S
C287 C285 1.390 . S
C287 C288 1.387 . S
C287 H290 0.950 . S
C288 C287 1.387 . S
C288 C291 1.387 . S
H289 C285 0.950 . S
H290 C287 0.950 . S
C291 C282 1.390 . S
C291 H284 0.950 . S
C291 C288 1.387 . S
C292 C293 1.387 . S
C292 H296 0.950 . S
C292 C301 1.390 . S
C293 C292 1.387 . S
C293 C295 1.387 . S
H294 C301 0.950 . S
C295 C293 1.387 . S
C295 C297 1.390 . S
C295 H299 0.950 . S
H296 C292 0.950 . S
C297 C295 1.390 . S
C297 C298 1.387 . S
C297 H300 0.950 . S
C298 C297 1.387 . S
C298 C301 1.387 . S
H299 C295 0.950 . S
H300 C297 0.950 . S
C301 C292 1.390 . S
C301 H294 0.950 . S
C301 C298 1.387 . S
C302 C303 1.387 . S
C302 H306 0.950 . S
C302 C311 1.390 . S
C303 C302 1.387 . S
C303 C305 1.387 1_554 S
H304 C311 0.950 . S
C305 C303 1.387 1_556 S
C305 C307 1.390 1_556 S
C305 H309 0.950 . S
H306 C302 0.950 . S
C307 C305 1.390 1_554 S
C307 C308 1.387 . S
C307 H310 0.950 1_554 S
C308 C307 1.387 . S
C308 C311 1.387 . S
H309 C305 0.950 . S
H310 C307 0.950 1_556 S
C311 C302 1.390 . S
C311 H304 0.950 . S
C311 C308 1.387 . S
C312 C313 1.387 . S
C312 H316 0.950 . S
C312 C321 1.390 . S
C313 C312 1.387 . S
C313 C315 1.387 . S
H314 C321 0.950 . S
C315 C313 1.387 . S
C315 C317 1.390 . S
C315 H319 0.950 . S
H316 C312 0.950 . S
C317 C315 1.390 . S
C317 C318 1.387 . S
C317 H320 0.950 . S
C318 C317 1.387 . S
C318 C321 1.387 . S
H319 C315 0.950 . S
H320 C317 0.950 . S
C321 C312 1.390 . S
C321 H314 0.950 . S
C321 C318 1.387 . S
C322 C323 1.387 . S
C322 H326 0.950 . S
C322 C331 1.390 . S
C323 C322 1.387 . S
C323 C325 1.387 . S
H324 C331 0.950 . S
C325 C323 1.387 . S
C325 C327 1.390 . S
C325 H329 0.950 . S
H326 C322 0.950 . S
C327 C325 1.390 . S
C327 C328 1.387 . S
C327 H330 0.950 . S
C328 C327 1.387 . S
C328 C331 1.387 . S
H329 C325 0.950 . S
H330 C327 0.950 . S
C331 C322 1.390 . S
C331 H324 0.950 . S
C331 C328 1.387 . S
C332 C333 1.387 . S
C332 H336 0.950 . S
C332 C341 1.390 . S
C333 C332 1.387 . S
C333 C335 1.387 . S
H334 C341 0.950 1_556 S
C335 C333 1.387 . S
C335 C337 1.390 . S
C335 H339 0.950 . S
H336 C332 0.950 . S
C337 C335 1.390 . S
C337 C338 1.387 . S
C337 H340 0.950 . S
C338 C337 1.387 . S
C338 C341 1.387 . S
H339 C335 0.950 . S
H340 C337 0.950 . S
C341 C332 1.390 . S
C341 H334 0.950 1_554 S
C341 C338 1.387 . S
C342 C343 1.387 . S
C342 H346 0.950 1_556 S
C342 C351 1.390 1_556 S
C343 C342 1.387 . S
C343 C345 1.387 . S
H344 C351 0.950 . S
C345 C343 1.387 . S
C345 C347 1.390 . S
C345 H349 0.950 . S
H346 C342 0.950 1_554 S
C347 C345 1.390 . S
C347 C348 1.387 . S
C347 H350 0.950 . S
C348 C347 1.387 . S
C348 C351 1.387 1_556 S
H349 C345 0.950 . S
H350 C347 0.950 . S
C351 C342 1.390 1_554 S
C351 H344 0.950 . S
C351 C348 1.387 1_554 S
C352 C353 1.387 . S
C352 H356 0.950 . S
C352 C361 1.390 . S
C353 C352 1.387 . S
C353 C355 1.392 . S
H354 C361 0.950 . S
C355 C353 1.392 . S
C355 C357 1.390 . S
C355 H359 0.946 1_556 S
H356 C352 0.950 . S
C357 C355 1.390 . S
C357 C358 1.387 . S
C357 H360 0.950 1_556 S
C358 C357 1.387 . S
C358 C361 1.387 . S
H359 C355 0.946 1_554 S
H360 C357 0.950 1_554 S
C361 C352 1.390 . S
C361 H354 0.950 . S
C361 C358 1.387 . S
C362 C363 1.387 . S
C362 H366 0.950 . S
C362 C371 1.390 . S
C363 C362 1.387 . S
C363 C365 1.387 . S
H364 C371 0.950 . S
C365 C363 1.387 . S
C365 C367 1.390 . S
C365 H369 0.950 . S
H366 C362 0.950 . S
C367 C365 1.390 . S
C367 C368 1.387 . S
C367 H370 0.950 . S
C368 C367 1.387 . S
C368 C371 1.387 . S
H369 C365 0.950 . S
H370 C367 0.950 . S
C371 C362 1.390 . S
C371 H364 0.950 . S
C371 C368 1.387 . S
C372 C373 1.387 . S
C372 H376 0.950 . S
C372 C381 1.390 . S
C373 C372 1.387 . S
C373 C375 1.387 . S
H374 C381 0.950 . S
C375 C373 1.387 . S
C375 C377 1.390 . S
C375 H379 0.950 . S
H376 C372 0.950 . S
C377 C375 1.390 . S
C377 C378 1.387 . S
C377 H380 0.950 . S
C378 C377 1.387 . S
C378 C381 1.387 . S
H379 C375 0.950 . S
H380 C377 0.950 . S
C381 C372 1.390 . S
C381 H374 0.950 . S
C381 C378 1.387 . S
C382 C383 1.387 . S
C382 H386 0.950 . S
C382 C391 1.390 . S
C383 C382 1.387 . S
C383 C385 1.387 . S
H384 C391 0.950 . S
C385 C383 1.387 . S
C385 C387 1.390 . S
C385 H389 0.950 . S
H386 C382 0.950 . S
C387 C385 1.390 . S
C387 C388 1.387 . S
C387 H390 0.950 . S
C388 C387 1.387 . S
C388 C391 1.387 . S
H389 C385 0.950 . S
H390 C387 0.950 . S
C391 C382 1.390 . S
C391 H384 0.950 . S
C391 C388 1.387 . S
C392 C393 1.387 . S
C392 H396 0.950 . S
C392 C401 1.390 . S
C393 C392 1.387 . S
C393 C395 1.387 . S
H394 C401 0.950 . S
C395 C393 1.387 . S
C395 C397 1.390 . S
C395 H399 0.950 1_554 S
H396 C392 0.950 . S
C397 C395 1.390 . S
C397 C398 1.390 . S
C397 H400 0.947 1_554 S
C398 C397 1.390 . S
C398 C401 1.387 . S
H399 C395 0.950 1_556 S
H400 C397 0.947 1_556 S
C401 C392 1.390 . S
C401 H394 0.950 . S
C401 C398 1.387 . S
C402 C403 1.387 . S
C402 H406 0.950 . S
C402 C411 1.390 . S
C403 C402 1.387 . S
C403 C405 1.387 . S
H404 C411 0.950 . S
C405 C403 1.387 . S
C405 C407 1.390 . S
C405 H409 0.950 1_556 S
H406 C402 0.950 . S
C407 C405 1.390 . S
C407 C408 1.387 . S
C407 H410 0.950 . S
C408 C407 1.387 . S
C408 C411 1.387 . S
H409 C405 0.950 1_554 S
H410 C407 0.950 . S
C411 C402 1.390 . S
C411 H404 0.950 . S
C411 C408 1.387 . S
C412 C413 1.387 . S
C412 H416 0.950 . S
C412 C421 1.390 . S
C413 C412 1.387 . S
C413 C415 1.387 . S
H414 C421 0.950 . S
C415 C413 1.387 . S
C415 C417 1.390 . S
C415 H419 0.950 . S
H416 C412 0.950 . S
C417 C415 1.390 . S
C417 C418 1.387 . S
C417 H420 0.950 . S
C418 C417 1.387 . S
C418 C421 1.387 . S
H419 C415 0.950 . S
H420 C417 0.950 . S
C421 C412 1.390 . S
C421 H414 0.950 . S
C421 C418 1.387 . S
C422 C423 1.387 . S
C422 H426 0.950 . S
C422 C431 1.390 . S
C423 C422 1.387 . S
C423 C425 1.387 . S
H424 C431 0.950 . S
C425 C423 1.387 . S
C425 C427 1.390 . S
C425 H429 0.950 . S
H426 C422 0.950 . S
C427 C425 1.390 . S
C427 C428 1.387 . S
C427 H430 0.950 . S
C428 C427 1.387 . S
C428 C431 1.387 . S
H429 C425 0.950 . S
H430 C427 0.950 . S
C431 C422 1.390 . S
C431 H424 0.950 . S
C431 C428 1.387 . S
C432 C433 1.389 . S
C432 H436 0.950 . S
C432 C441 1.390 1_556 S
C433 C432 1.389 . S
C433 C435 1.385 1_665 S
H434 C441 0.950 . S
C435 C433 1.385 1_445 S
C435 C437 1.390 1_556 S
C435 H439 0.950 . S
H436 C432 0.950 . S
C437 C435 1.390 1_554 S
C437 C438 1.399 . S
C437 H440 0.950 . S
C438 C437 1.399 . S
C438 C441 1.373 1_445 S
H439 C435 0.950 . S
H440 C437 0.950 . S
C441 C432 1.390 1_554 S
C441 H434 0.950 . S
C441 C438 1.373 1_665 S
C442 C443 1.387 . S
C442 H446 0.950 . S
C442 C451 1.390 . S
C443 C442 1.387 . S
C443 C445 1.387 . S
H444 C451 0.950 . S
C445 C443 1.387 . S
C445 C447 1.390 . S
C445 H449 0.950 . S
H446 C442 0.950 . S
C447 C445 1.390 . S
C447 C448 1.387 . S
C447 H450 0.950 . S
C448 C447 1.387 . S
C448 C451 1.387 . S
H449 C445 0.950 . S
H450 C447 0.950 . S
C451 C442 1.390 . S
C451 H444 0.950 . S
C451 C448 1.387 . S
C452 C453 1.387 1_565 S
C452 H456 0.950 . S
C452 C461 1.390 . S
C453 C452 1.387 1_545 S
C453 C455 1.387 . S
H454 C461 0.950 . S
C455 C453 1.387 . S
C455 C457 1.390 . S
C455 H459 0.950 . S
H456 C452 0.950 . S
C457 C455 1.390 . S
C457 C458 1.387 1_545 S
C457 H460 0.950 . S
C458 C457 1.387 1_565 S
C458 C461 1.387 . S
H459 C455 0.950 . S
H460 C457 0.950 . S
C461 C452 1.390 . S
C461 H454 0.950 . S
C461 C458 1.387 . S
C462 C463 1.387 . S
C462 H466 0.950 . S
C462 C471 1.390 . S
C463 C462 1.387 . S
C463 C465 1.387 . S
H464 C471 0.950 . S
C465 C463 1.387 . S
C465 C467 1.390 . S
C465 H469 0.950 . S
H466 C462 0.950 . S
C467 C465 1.390 . S
C467 C468 1.387 . S
C467 H470 0.950 . S
C468 C467 1.387 . S
C468 C471 1.387 . S
H469 C465 0.950 . S
H470 C467 0.950 . S
C471 C462 1.390 . S
C471 H464 0.950 . S
C471 C468 1.387 . S
C472 C473 1.387 . S
C472 H476 0.950 . S
C472 C481 1.390 . S
C473 C472 1.387 . S
C473 C475 1.387 . S
H474 C481 0.950 . S
C475 C473 1.387 . S
C475 C477 1.390 . S
C475 H479 0.950 . S
H476 C472 0.950 . S
C477 C475 1.390 . S
C477 C478 1.387 . S
C477 H480 0.950 . S
C478 C477 1.387 . S
C478 C481 1.387 . S
H479 C475 0.950 . S
H480 C477 0.950 . S
C481 C472 1.390 . S
C481 H474 0.950 . S
C481 C478 1.387 . S
C482 C483 1.387 . S
C482 H486 0.950 . S
C482 C491 1.390 . S
C483 C482 1.387 . S
C483 C485 1.387 . S
H484 C491 0.950 . S
C485 C483 1.387 . S
C485 C487 1.390 . S
C485 H489 0.950 . S
H486 C482 0.950 . S
C487 C485 1.390 . S
C487 C488 1.387 . S
C487 H490 0.950 . S
C488 C487 1.387 . S
C488 C491 1.387 . S
H489 C485 0.950 . S
H490 C487 0.950 . S
C491 C482 1.390 . S
C491 H484 0.950 . S
C491 C488 1.387 . S
C492 C493 1.387 . S
C492 H496 0.950 . S
C492 C501 1.390 . S
C493 C492 1.387 . S
C493 C495 1.387 . S
H494 C501 0.950 . S
C495 C493 1.387 . S
C495 C497 1.390 . S
C495 H499 0.950 . S
H496 C492 0.950 . S
C497 C495 1.390 . S
C497 C498 1.387 . S
C497 H500 0.950 . S
C498 C497 1.387 . S
C498 C501 1.387 . S
H499 C495 0.950 . S
H500 C497 0.950 . S
C501 C492 1.390 . S
C501 H494 0.950 . S
C501 C498 1.387 . S
C502 C503 1.387 . S
C502 H506 0.950 . S
C502 C511 1.390 1_556 S
C503 C502 1.387 . S
C503 C505 1.387 1_655 S
H504 C511 0.950 . S
C505 C503 1.387 1_455 S
C505 C507 1.390 1_556 S
C505 H509 0.950 . S
H506 C502 0.950 . S
C507 C505 1.390 1_554 S
C507 C508 1.387 . S
C507 H510 0.950 . S
C508 C507 1.387 . S
C508 C511 1.387 1_455 S
H509 C505 0.950 . S
H510 C507 0.950 . S
C511 C502 1.390 1_554 S
C511 H504 0.950 . S
C511 C508 1.387 1_655 S
C273 C17 3.294 . S
C278 C119 3.294 . S
C283 C4 1.525 . S
C288 C51 1.524 . S
C293 C38 0.763 . S
C298 C72 0.763 1_556 S
C303 C85 1.524 . S
C308 C106 1.525 . S
C313 C8 3.294 . S
C318 C178 3.294 . S
C323 C13 1.525 . S
C328 C144 1.524 . S
C333 C149 0.771 . S
C338 C81 0.771 1_554 S
C343 C183 1.525 . S
C348 C76 1.524 . S
C353 C221 3.294 . S
C358 C187 3.294 . S
C363 C153 1.524 . S
C368 C208 1.524 . S
C373 C242 0.765 . S
C378 C140 0.766 . S
C383 C174 1.525 . S
C388 C255 1.524 . S
C393 C110 3.294 . S
C398 C212 3.294 . S
C403 C217 1.525 . S
C408 C42 1.524 . S
C413 C47 0.771 . S
C418 C251 0.771 . S
C423 C115 1.525 . S
C428 C246 1.524 . S
C433 C0 1.273 1_565 S
C438 C29 1.274 . S
C443 C63 1.333 . S
C448 C34 1.333 . S
C453 C68 1.331 . S
C458 C97 1.331 . S
C463 C102 1.266 1_556 S
C468 C131 1.270 . S
C473 C165 1.331 . S
C478 C136 1.331 . S
C483 C170 1.270 . S
C488 C199 1.266 1_554 S
C493 C233 1.272 . S
C498 C204 1.272 . S
C503 C267 1.331 . S
C508 C238 1.331 . S
