# Generated by pormake.
# Topology dia-a, (4)-cn, num edge types: 1
# Building blocks:
#     Node 0, Type 0, BuildingBlock: NAHDIM_clean_sbu_0, # of connection points: 4
#     Node 1, Type 0, BuildingBlock: NAHDIM_clean_sbu_0, # of connection points: 4
#     Node 2, Type 0, BuildingBlock: NAHDIM_clean_sbu_0, # of connection points: 4
#     Node 3, Type 0, BuildingBlock: NAHDIM_clean_sbu_0, # of connection points: 4
#     Node 4, Type 0, BuildingBlock: NAHDIM_clean_sbu_0, # of connection points: 4
#     Node 5, Type 0, BuildingBlock: NAHDIM_clean_sbu_0, # of connection points: 4
#     Node 6, Type 0, BuildingBlock: NAHDIM_clean_sbu_0, # of connection points: 4
#     Node 7, Type 0, BuildingBlock: NAHDIM_clean_sbu_0, # of connection points: 4
#     Node 8, Type 0, BuildingBlock: NAHDIM_clean_sbu_0, # of connection points: 4
#     Node 9, Type 0, BuildingBlock: NAHDIM_clean_sbu_0, # of connection points: 4
#     Node 10, Type 0, BuildingBlock: NAHDIM_clean_sbu_0, # of connection points: 4
#     Node 11, Type 0, BuildingBlock: NAHDIM_clean_sbu_0, # of connection points: 4
#     Node 12, Type 0, BuildingBlock: NAHDIM_clean_sbu_0, # of connection points: 4
#     Node 13, Type 0, BuildingBlock: NAHDIM_clean_sbu_0, # of connection points: 4
#     Node 14, Type 0, BuildingBlock: NAHDIM_clean_sbu_0, # of connection points: 4
#     Node 15, Type 0, BuildingBlock: NAHDIM_clean_sbu_0, # of connection points: 4
#     Node 16, Type 0, BuildingBlock: NAHDIM_clean_sbu_0, # of connection points: 4
#     Node 17, Type 0, BuildingBlock: NAHDIM_clean_sbu_0, # of connection points: 4
#     Node 18, Type 0, BuildingBlock: NAHDIM_clean_sbu_0, # of connection points: 4
#     Node 19, Type 0, BuildingBlock: NAHDIM_clean_sbu_0, # of connection points: 4
#     Node 20, Type 0, BuildingBlock: NAHDIM_clean_sbu_0, # of connection points: 4
#     Node 21, Type 0, BuildingBlock: NAHDIM_clean_sbu_0, # of connection points: 4
#     Node 22, Type 0, BuildingBlock: NAHDIM_clean_sbu_0, # of connection points: 4
#     Node 23, Type 0, BuildingBlock: NAHDIM_clean_sbu_0, # of connection points: 4
#     Node 24, Type 0, BuildingBlock: NAHDIM_clean_sbu_0, # of connection points: 4
#     Node 25, Type 0, BuildingBlock: NAHDIM_clean_sbu_0, # of connection points: 4
#     Node 26, Type 0, BuildingBlock: NAHDIM_clean_sbu_0, # of connection points: 4
#     Node 27, Type 0, BuildingBlock: NAHDIM_clean_sbu_0, # of connection points: 4
#     Node 28, Type 0, BuildingBlock: NAHDIM_clean_sbu_0, # of connection points: 4
#     Node 29, Type 0, BuildingBlock: NAHDIM_clean_sbu_0, # of connection points: 4
#     Node 30, Type 0, BuildingBlock: NAHDIM_clean_sbu_0, # of connection points: 4
#     Node 31, Type 0, BuildingBlock: NAHDIM_clean_sbu_0, # of connection points: 4
#     Edge 32, Type (0, 0), BuildingBlock: CIFDUS_clean_linker_0, # of connection points: 2
#     Edge 33, Type (0, 0), BuildingBlock: CIFDUS_clean_linker_0, # of connection points: 2
#     Edge 34, Type (0, 0), BuildingBlock: CIFDUS_clean_linker_0, # of connection points: 2
#     Edge 35, Type (0, 0), BuildingBlock: CIFDUS_clean_linker_0, # of connection points: 2
#     Edge 36, Type (0, 0), BuildingBlock: CIFDUS_clean_linker_0, # of connection points: 2
#     Edge 37, Type (0, 0), BuildingBlock: CIFDUS_clean_linker_0, # of connection points: 2
#     Edge 38, Type (0, 0), BuildingBlock: CIFDUS_clean_linker_0, # of connection points: 2
#     Edge 39, Type (0, 0), BuildingBlock: CIFDUS_clean_linker_0, # of connection points: 2
#     Edge 40, Type (0, 0), BuildingBlock: CIFDUS_clean_linker_0, # of connection points: 2
#     Edge 41, Type (0, 0), BuildingBlock: CIFDUS_clean_linker_0, # of connection points: 2
#     Edge 42, Type (0, 0), BuildingBlock: CIFDUS_clean_linker_0, # of connection points: 2
#     Edge 43, Type (0, 0), BuildingBlock: CIFDUS_clean_linker_0, # of connection points: 2
#     Edge 44, Type (0, 0), BuildingBlock: CIFDUS_clean_linker_0, # of connection points: 2
#     Edge 45, Type (0, 0), BuildingBlock: CIFDUS_clean_linker_0, # of connection points: 2
#     Edge 46, Type (0, 0), BuildingBlock: CIFDUS_clean_linker_0, # of connection points: 2
#     Edge 47, Type (0, 0), BuildingBlock: CIFDUS_clean_linker_0, # of connection points: 2
#     Edge 48, Type (0, 0), BuildingBlock: CIFDUS_clean_linker_0, # of connection points: 2
#     Edge 49, Type (0, 0), BuildingBlock: CIFDUS_clean_linker_0, # of connection points: 2
#     Edge 50, Type (0, 0), BuildingBlock: CIFDUS_clean_linker_0, # of connection points: 2
#     Edge 51, Type (0, 0), BuildingBlock: CIFDUS_clean_linker_0, # of connection points: 2
#     Edge 52, Type (0, 0), BuildingBlock: CIFDUS_clean_linker_0, # of connection points: 2
#     Edge 53, Type (0, 0), BuildingBlock: CIFDUS_clean_linker_0, # of connection points: 2
#     Edge 54, Type (0, 0), BuildingBlock: CIFDUS_clean_linker_0, # of connection points: 2
#     Edge 55, Type (0, 0), BuildingBlock: CIFDUS_clean_linker_0, # of connection points: 2
#     Edge 56, Type (0, 0), BuildingBlock: CIFDUS_clean_linker_0, # of connection points: 2
#     Edge 57, Type (0, 0), BuildingBlock: CIFDUS_clean_linker_0, # of connection points: 2
#     Edge 58, Type (0, 0), BuildingBlock: CIFDUS_clean_linker_0, # of connection points: 2
#     Edge 59, Type (0, 0), BuildingBlock: CIFDUS_clean_linker_0, # of connection points: 2
#     Edge 60, Type (0, 0), BuildingBlock: CIFDUS_clean_linker_0, # of connection points: 2
#     Edge 61, Type (0, 0), BuildingBlock: CIFDUS_clean_linker_0, # of connection points: 2
#     Edge 62, Type (0, 0), BuildingBlock: CIFDUS_clean_linker_0, # of connection points: 2
#     Edge 63, Type (0, 0), BuildingBlock: CIFDUS_clean_linker_0, # of connection points: 2
#     Edge 64, Type (0, 0), BuildingBlock: CIFDUS_clean_linker_0, # of connection points: 2
#     Edge 65, Type (0, 0), BuildingBlock: CIFDUS_clean_linker_0, # of connection points: 2
#     Edge 66, Type (0, 0), BuildingBlock: CIFDUS_clean_linker_0, # of connection points: 2
#     Edge 67, Type (0, 0), BuildingBlock: CIFDUS_clean_linker_0, # of connection points: 2
#     Edge 68, Type (0, 0), BuildingBlock: CIFDUS_clean_linker_0, # of connection points: 2
#     Edge 69, Type (0, 0), BuildingBlock: CIFDUS_clean_linker_0, # of connection points: 2
#     Edge 70, Type (0, 0), BuildingBlock: CIFDUS_clean_linker_0, # of connection points: 2
#     Edge 71, Type (0, 0), BuildingBlock: CIFDUS_clean_linker_0, # of connection points: 2
#     Edge 72, Type (0, 0), BuildingBlock: CIFDUS_clean_linker_0, # of connection points: 2
#     Edge 73, Type (0, 0), BuildingBlock: CIFDUS_clean_linker_0, # of connection points: 2
#     Edge 74, Type (0, 0), BuildingBlock: CIFDUS_clean_linker_0, # of connection points: 2
#     Edge 75, Type (0, 0), BuildingBlock: CIFDUS_clean_linker_0, # of connection points: 2
#     Edge 76, Type (0, 0), BuildingBlock: CIFDUS_clean_linker_0, # of connection points: 2
#     Edge 77, Type (0, 0), BuildingBlock: CIFDUS_clean_linker_0, # of connection points: 2
#     Edge 78, Type (0, 0), BuildingBlock: CIFDUS_clean_linker_0, # of connection points: 2
#     Edge 79, Type (0, 0), BuildingBlock: CIFDUS_clean_linker_0, # of connection points: 2
#     Edge 80, Type (0, 0), BuildingBlock: CIFDUS_clean_linker_0, # of connection points: 2
#     Edge 81, Type (0, 0), BuildingBlock: CIFDUS_clean_linker_0, # of connection points: 2
#     Edge 82, Type (0, 0), BuildingBlock: CIFDUS_clean_linker_0, # of connection points: 2
#     Edge 83, Type (0, 0), BuildingBlock: CIFDUS_clean_linker_0, # of connection points: 2
#     Edge 84, Type (0, 0), BuildingBlock: CIFDUS_clean_linker_0, # of connection points: 2
#     Edge 85, Type (0, 0), BuildingBlock: CIFDUS_clean_linker_0, # of connection points: 2
#     Edge 86, Type (0, 0), BuildingBlock: CIFDUS_clean_linker_0, # of connection points: 2
#     Edge 87, Type (0, 0), BuildingBlock: CIFDUS_clean_linker_0, # of connection points: 2
#     Edge 88, Type (0, 0), BuildingBlock: CIFDUS_clean_linker_0, # of connection points: 2
#     Edge 89, Type (0, 0), BuildingBlock: CIFDUS_clean_linker_0, # of connection points: 2
#     Edge 90, Type (0, 0), BuildingBlock: CIFDUS_clean_linker_0, # of connection points: 2
#     Edge 91, Type (0, 0), BuildingBlock: CIFDUS_clean_linker_0, # of connection points: 2
#     Edge 92, Type (0, 0), BuildingBlock: CIFDUS_clean_linker_0, # of connection points: 2
#     Edge 93, Type (0, 0), BuildingBlock: CIFDUS_clean_linker_0, # of connection points: 2
#     Edge 94, Type (0, 0), BuildingBlock: CIFDUS_clean_linker_0, # of connection points: 2
#     Edge 95, Type (0, 0), BuildingBlock: CIFDUS_clean_linker_0, # of connection points: 2
# Relax obj value: 0.786
# Max RMSD: 0.301
# Mean RMSD: 0.286
data_MOF--net-dia-a--node1-NAHDIM_clean_sbu_0--edge1-CIFDUS_clean_linker_0
_symmetry_space_group_name_H-M    P1
_symmetry_Int_Tables_number       1
_symmetry_cell_setting            triclinic
loop_
_symmetry_equiv_pos_as_xyz
'x, y, z'
_cell_length_a     61.352216
_cell_length_b     56.059532
_cell_length_c     43.525826
_cell_angle_alpha  94.902004
_cell_angle_beta   93.513893
_cell_angle_gamma 88.884689
loop_
_atom_site_label
_atom_site_type_symbol
_atom_site_fract_x
_atom_site_fract_y
_atom_site_fract_z
_atom_type_partial_charge
C0 C 0.01686 0.09046 0.4248 0.0
O1 O 0.00871 0.10922 0.44059 0.0
O2 O 0.06879 0.14047 0.43306 0.0
Zn3 Zn 0.05713 0.11083 0.4491 0.0
O4 O 0.04211 0.12128 0.48781 0.0
C5 C 0.1021 0.09284 0.46317 0.0
O6 O 0.10906 0.11066 0.44881 0.0
O7 O 0.03724 0.08961 0.42108 0.0
C8 C 0.03817 0.1057 0.50619 0.0
O9 O 0.04249 0.08305 0.49815 0.0
C10 C 0.0584 0.16007 0.43867 0.0
O11 O 0.03856 0.15927 0.44827 0.0
O12 O 0.08172 0.08991 0.46438 0.0
C13 C 0.91201 0.19648 0.81822 0.0
O14 O 0.90652 0.20261 0.84653 0.0
O15 O 0.84763 0.20963 0.7909 0.0
Zn16 Zn 0.87576 0.22809 0.79978 0.0
O17 O 0.87784 0.24478 0.84284 0.0
C18 C 0.86716 0.25685 0.7457 0.0
O19 O 0.85007 0.24329 0.73847 0.0
O20 O 0.90107 0.20467 0.79554 0.0
C21 C 0.89535 0.25596 0.85112 0.0
O22 O 0.91096 0.25569 0.83172 0.0
C23 C 0.82756 0.21341 0.79603 0.0
O24 O 0.81373 0.19616 0.78744 0.0
O25 O 0.87945 0.25312 0.76947 0.0
C26 C 0.63226 0.30617 0.04627 0.0
O27 O 0.61541 0.29196 0.04125 0.0
O28 O 0.626 0.24924 0.07082 0.0
Zn29 Zn 0.64386 0.27517 0.09441 0.0
O30 O 0.67392 0.26118 0.10341 0.0
C31 C 0.61038 0.28161 0.13786 0.0
O32 O 0.59743 0.27861 0.11269 0.0
O33 O 0.64586 0.30323 0.06892 0.0
C34 C 0.67523 0.24229 0.11773 0.0
O35 O 0.65716 0.23288 0.12565 0.0
C36 C 0.63201 0.23888 0.04557 0.0
O37 O 0.65007 0.24565 0.03432 0.0
O38 O 0.6308 0.28312 0.13522 0.0
C39 C 0.83566 0.95096 0.18894 0.0
O40 O 0.85632 0.94832 0.19799 0.0
O41 O 0.86077 0.91049 0.2369 0.0
Zn42 Zn 0.83137 0.90553 0.21448 0.0
O43 O 0.81056 0.90509 0.24854 0.0
C44 C 0.8498 0.86349 0.18458 0.0
O45 O 0.86649 0.8776 0.1831 0.0
O46 O 0.82265 0.93381 0.19079 0.0
C47 C 0.79941 0.88709 0.25352 0.0
O48 O 0.80038 0.86752 0.23476 0.0
C49 C 0.86721 0.89507 0.25535 0.0
O50 O 0.8549 0.87649 0.25783 0.0
O51 O 0.83146 0.87299 0.19092 0.0
C52 C 0.03327 0.14931 0.79993 0.0
O53 O 0.05031 0.16148 0.81177 0.0
O54 O 0.0874 0.11779 0.7603 0.0
Zn55 Zn 0.06009 0.13619 0.74793 0.0
O56 O 0.04978 0.12145 0.70612 0.0
C57 C 0.08575 0.18 0.74949 0.0
O58 O 0.10065 0.16822 0.76538 0.0
O59 O 0.03483 0.13614 0.77492 0.0
C60 C 0.03838 0.13331 0.68722 0.0
O61 O 0.03242 0.15541 0.69575 0.0
C62 C 0.08882 0.09578 0.75067 0.0
O63 O 0.07107 0.08484 0.73896 0.0
O64 O 0.06759 0.17015 0.74134 0.0
C65 C 0.70005 0.37498 0.93584 0.0
O66 O 0.71331 0.39317 0.94124 0.0
O67 O 0.754 0.37723 0.91876 0.0
Zn68 Zn 0.73066 0.36103 0.89057 0.0
O69 O 0.74228 0.32791 0.87825 0.0
C70 C 0.73188 0.3996 0.85091 0.0
O71 O 0.73642 0.4125 0.87709 0.0
O72 O 0.70337 0.35942 0.91354 0.0
C73 C 0.76142 0.32663 0.86842 0.0
O74 O 0.77218 0.34652 0.86706 0.0
C75 C 0.76177 0.36713 0.94217 0.0
O76 O 0.75381 0.34652 0.94806 0.0
O77 O 0.72693 0.37777 0.85162 0.0
C78 C 0.7695 0.0746 0.1949 0.0
O79 O 0.74844 0.07769 0.19788 0.0
O80 O 0.74359 0.11955 0.15643 0.0
Zn81 Zn 0.76401 0.12404 0.19479 0.0
O82 O 0.74649 0.12657 0.23301 0.0
C83 C 0.78105 0.17323 0.18359 0.0
O84 O 0.79806 0.18719 0.18425 0.0
O85 O 0.78128 0.09297 0.19429 0.0
C86 C 0.74602 0.14347 0.25439 0.0
O87 O 0.75902 0.16177 0.25401 0.0
C88 C 0.72368 0.11444 0.15869 0.0
O89 O 0.716 0.11458 0.18622 0.0
O90 O 0.78396 0.15236 0.19296 0.0
C91 C 0.94714 0.97862 0.45543 0.0
O92 O 0.92597 0.97607 0.45636 0.0
O93 O 0.91836 0.9361 0.48828 0.0
Zn94 Zn 0.94742 0.92962 0.46969 0.0
O95 O 0.94094 0.91088 0.42867 0.0
C96 C 0.97093 0.8887 0.4977 0.0
O97 O 0.98679 0.88037 0.51563 0.0
O98 O 0.95994 0.96123 0.46128 0.0
C99 C 0.94695 0.91702 0.4031 0.0
O100 O 0.95948 0.93573 0.40289 0.0
C101 C 0.91287 0.93296 0.5153 0.0
O102 O 0.92743 0.92505 0.53554 0.0
O103 O 0.9684 0.9113 0.49729 0.0
C104 C 0.57954 0.03822 -0.00062 0.0
O105 O 0.5752 0.05572 0.02022 0.0
O106 O 0.61349 0.09494 0.97282 0.0
Zn107 Zn 0.61707 0.06642 0.99768 0.0
O108 O 0.61151 0.07835 0.04159 0.0
C109 C 0.66315 0.07081 0.99774 0.0
O110 O 0.65896 0.08705 0.97808 0.0
O111 O 0.59673 0.03914 0.98461 0.0
C112 C 0.62028 0.09733 0.05436 0.0
O113 O 0.6328 0.10972 0.03836 0.0
C114 C 0.5981 0.1096 0.97942 0.0
O115 O 0.58225 0.10237 0.99521 0.0
O116 O 0.64842 0.05589 0.00157 0.0
C117 C 0.92748 0.7032 0.36237 0.0
O118 O 0.92574 0.71368 0.3903 0.0
O119 O 0.87126 0.74262 0.35947 0.0
Zn120 Zn 0.90176 0.74397 0.34508 0.0
O121 O 0.91994 0.76562 0.37547 0.0
C122 C 0.88373 0.75866 0.28595 0.0
O123 O 0.86692 0.74588 0.29153 0.0
O124 O 0.91722 0.71212 0.33969 0.0
C125 C 0.91271 0.7862 0.38487 0.0
O126 O 0.89307 0.79295 0.37502 0.0
C127 C 0.86746 0.74412 0.38795 0.0
O128 O 0.88397 0.74354 0.40858 0.0
O129 O 0.90032 0.75961 0.30498 0.0
C130 C 0.15405 0.32397 0.56899 0.0
O131 O 0.13605 0.32412 0.55101 0.0
O132 O 0.11405 0.27617 0.55432 0.0
Zn133 Zn 0.13695 0.28018 0.58967 0.0
O134 O 0.15513 0.25017 0.58509 0.0
C135 C 0.1034 0.27644 0.63285 0.0
O136 O 0.09018 0.27932 0.60849 0.0
O137 O 0.15684 0.30791 0.58781 0.0
C138 C 0.17146 0.24485 0.60271 0.0
O139 O 0.17826 0.26035 0.62545 0.0
C140 C 0.12018 0.26742 0.52827 0.0
O141 O 0.14122 0.2652 0.52435 0.0
O142 O 0.12382 0.27867 0.63074 0.0
C143 C 0.85362 0.46882 0.6873 0.0
O144 O 0.86487 0.46337 0.71244 0.0
O145 O 0.85796 0.41947 0.72932 0.0
Zn146 Zn 0.83838 0.4215 0.69085 0.0
O147 O 0.80835 0.42278 0.70713 0.0
C148 C 0.86076 0.37965 0.66867 0.0
O149 O 0.87766 0.39261 0.67922 0.0
O150 O 0.84262 0.45254 0.67149 0.0
C151 C 0.79384 0.40701 0.70041 0.0
O152 O 0.7974 0.38952 0.67918 0.0
C153 C 0.8548 0.40216 0.74547 0.0
O154 O 0.83975 0.38645 0.73574 0.0
O155 O 0.84233 0.39016 0.66518 0.0
C156 C 0.54692 0.15078 0.28084 0.0
O157 O 0.54932 0.15659 0.25264 0.0
O158 O 0.61944 0.15507 0.30681 0.0
Zn159 Zn 0.59132 0.16081 0.28205 0.0
O160 O 0.59509 0.1438 0.24002 0.0
C161 C 0.60332 0.21088 0.28193 0.0
O162 O 0.61975 0.20498 0.30071 0.0
O163 O 0.56364 0.1507 0.29963 0.0
C164 C 0.58881 0.12308 0.22945 0.0
O165 O 0.57814 0.10992 0.24691 0.0
C166 C 0.62742 0.13398 0.30646 0.0
O167 O 0.61477 0.11596 0.29646 0.0
O168 O 0.58877 0.19546 0.2734 0.0
C169 C 0.72857 0.88396 0.52365 0.0
O170 O 0.74387 0.89778 0.53754 0.0
O171 O 0.78254 0.89518 0.50034 0.0
Zn172 Zn 0.76045 0.87315 0.47743 0.0
O173 O 0.77488 0.84051 0.47587 0.0
C174 C 0.76152 0.90189 0.42512 0.0
O175 O 0.76694 0.91914 0.4464 0.0
O176 O 0.73199 0.87261 0.49781 0.0
C177 C 0.77201 0.82518 0.45278 0.0
O178 O 0.75744 0.82971 0.43056 0.0
C179 C 0.79363 0.88849 0.5238 0.0
O180 O 0.78842 0.86851 0.53514 0.0
O181 O 0.75668 0.88155 0.43337 0.0
C182 C 0.24954 0.02403 0.62901 0.0
O183 O 0.22977 0.01728 0.61909 0.0
O184 O 0.21201 0.06005 0.58898 0.0
Zn185 Zn 0.22616 0.06722 0.63183 0.0
O186 O 0.20456 0.0629 0.66421 0.0
C187 C 0.21415 0.11333 0.62608 0.0
O188 O 0.19639 0.1006 0.62037 0.0
O189 O 0.2528 0.04609 0.63695 0.0
C190 C 0.20665 0.07555 0.68989 0.0
O191 O 0.22398 0.08897 0.69565 0.0
C192 C 0.19326 0.05086 0.58355 0.0
O193 O 0.1835 0.04243 0.6063 0.0
O194 O 0.23196 0.10278 0.63382 0.0
C195 C 0.93359 0.44849 0.00482 0.0
O196 O 0.91829 0.44589 0.02404 0.0
O197 O 0.8895 0.40664 0.99457 0.0
Zn198 Zn 0.91835 0.40297 0.97523 0.0
O199 O 0.91013 0.40096 0.92973 0.0
C200 C 0.92106 0.35423 0.98796 0.0
O201 O 0.90319 0.35984 0.00228 0.0
O202 O 0.93727 0.43177 0.98414 0.0
C203 C 0.8963 0.38532 0.91902 0.0
O204 O 0.88805 0.37134 0.93793 0.0
C205 C 0.87681 0.42287 0.98476 0.0
O206 O 0.88479 0.43867 0.968 0.0
O207 O 0.93299 0.3711 0.98123 0.0
C208 C 0.00202 0.56391 0.98127 0.0
O209 O -0.00096 0.58096 0.00331 0.0
O210 O 0.04957 0.61508 0.97336 0.0
Zn211 Zn 0.04451 0.5827 0.98832 0.0
O212 O 0.03937 0.58749 0.03355 0.0
C213 C 0.09074 0.57105 0.98403 0.0
O214 O 0.09193 0.59223 0.97349 0.0
O215 O 0.01987 0.56306 0.96783 0.0
C216 C 0.05446 0.59663 0.05183 0.0
O217 O 0.07232 0.60376 0.04039 0.0
C218 C 0.04101 0.63345 0.98733 0.0
O219 O 0.02548 0.6304 0.00605 0.0
O220 O 0.07211 0.5629 0.98842 0.0
C221 C 0.51355 0.44402 0.41992 0.0
O222 O 0.4951 0.4507 0.40605 0.0
O223 O 0.46821 0.40632 0.45816 0.0
Zn224 Zn 0.48848 0.40258 0.42307 0.0
O225 O 0.47107 0.41142 0.38516 0.0
C226 C 0.49058 0.35234 0.43255 0.0
O227 O 0.48347 0.36 0.45956 0.0
O228 O 0.5149 0.42348 0.43031 0.0
C229 C 0.47701 0.40632 0.3579 0.0
O230 O 0.49573 0.39509 0.35377 0.0
C231 C 0.45234 0.42125 0.45819 0.0
O232 O 0.45072 0.4366 0.43695 0.0
O233 O 0.49587 0.36756 0.4144 0.0
C234 C 0.15132 0.79709 0.0713 0.0
O235 O 0.13225 0.79089 0.05798 0.0
O236 O 0.11768 0.74671 0.08473 0.0
Zn237 Zn 0.14704 0.75525 0.10592 0.0
O238 O 0.16714 0.72756 0.09405 0.0
C239 C 0.12903 0.75753 0.16713 0.0
O240 O 0.11029 0.76268 0.15274 0.0
O241 O 0.15969 0.78522 0.09278 0.0
C242 C 0.18333 0.72195 0.11179 0.0
O243 O 0.188 0.73558 0.13733 0.0
C244 C 0.11732 0.73748 0.05696 0.0
O245 O 0.13556 0.73634 0.04253 0.0
O246 O 0.14611 0.75556 0.152 0.0
C247 C 0.03264 0.64251 0.29701 0.0
O248 O 0.03911 0.65204 0.27262 0.0
O249 O 0.1008 0.61258 0.31484 0.0
Zn250 Zn 0.07697 0.63417 0.29864 0.0
O251 O 0.07602 0.62584 0.25271 0.0
C252 C 0.10423 0.67391 0.29388 0.0
O253 O 0.1188 0.65663 0.28964 0.0
O254 O 0.04675 0.63229 0.31433 0.0
C255 C 0.06317 0.61203 0.2359 0.0
O256 O 0.04781 0.60088 0.24852 0.0
C257 C 0.09906 0.59057 0.30533 0.0
O258 O 0.07962 0.58264 0.29562 0.0
O259 O 0.08554 0.66868 0.30213 0.0
C260 C 0.23023 0.84976 0.96028 0.0
O261 O 0.22824 0.84968 0.93004 0.0
O262 O 0.30107 0.86542 0.97336 0.0
Zn263 Zn 0.27646 0.84677 0.95066 0.0
O264 O 0.28651 0.81232 0.94527 0.0
C265 C 0.27611 0.88005 0.90375 0.0
O266 O 0.28003 0.89561 0.9277 0.0
O267 O 0.24919 0.84936 0.97371 0.0
C268 C 0.28067 0.79837 0.92176 0.0
O269 O 0.26637 0.80607 0.90101 0.0
C270 C 0.31448 0.85589 0.99229 0.0
O271 O 0.31087 0.83411 -0.00039 0.0
O272 O 0.27255 0.85842 0.90829 0.0
C273 C 0.35151 0.94201 0.67356 0.0
O274 O 0.36976 0.9488 0.68887 0.0
O275 O 0.38326 0.91409 0.7326 0.0
Zn276 Zn 0.35724 0.89992 0.70771 0.0
O277 O 0.33445 0.89809 0.73862 0.0
C278 C 0.38365 0.85741 0.695 0.0
O279 O 0.39974 0.87246 0.70155 0.0
O280 O 0.34456 0.92105 0.67584 0.0
C281 C 0.32044 0.88159 0.73735 0.0
O282 O 0.31996 0.86501 0.71409 0.0
C283 C 0.38029 0.93042 0.7541 0.0
O284 O 0.36064 0.93984 0.75675 0.0
O285 O 0.3642 0.86563 0.69274 0.0
C286 C 0.49047 0.9366 0.99593 0.0
O287 O 0.47232 0.9374 0.01052 0.0
O288 O 0.44175 0.90115 0.98058 0.0
Zn289 Zn 0.46781 0.90113 0.95446 0.0
O290 O 0.45721 0.91465 0.91501 0.0
C291 C 0.46834 0.8496 0.95306 0.0
O292 O 0.4556 0.85376 0.97616 0.0
O293 O 0.49244 0.92148 0.97282 0.0
C294 C 0.46706 0.91027 0.89028 0.0
O295 O 0.48518 0.89738 0.89084 0.0
C296 C 0.42702 0.91732 0.97878 0.0
O297 O 0.43043 0.93569 0.96297 0.0
O298 O 0.47704 0.86719 0.94213 0.0
C299 C 0.23337 0.49865 0.14195 0.0
O300 O 0.21308 0.49279 0.13383 0.0
O301 O 0.19275 0.53885 0.11197 0.0
Zn302 Zn 0.21347 0.54514 0.14933 0.0
O303 O 0.19652 0.54539 0.18782 0.0
C304 C 0.22383 0.58844 0.12229 0.0
O305 O 0.21924 0.5752 0.09641 0.0
O306 O 0.23778 0.52051 0.14958 0.0
C307 C 0.20286 0.55832 0.21205 0.0
O308 O 0.22133 0.56983 0.21229 0.0
C309 C 0.17495 0.52765 0.11177 0.0
O310 O 0.16985 0.51806 0.13684 0.0
O311 O 0.22429 0.57877 0.14771 0.0
C312 C 0.42499 0.66889 0.82774 0.0
O313 O 0.42061 0.67831 0.85539 0.0
O314 O 0.36532 0.70223 0.82165 0.0
Zn315 Zn 0.39637 0.70677 0.81079 0.0
O316 O 0.41029 0.72723 0.84651 0.0
C317 C 0.37892 0.72967 0.75686 0.0
O318 O 0.36153 0.71717 0.76065 0.0
O319 O 0.41492 0.6769 0.80424 0.0
C320 C 0.4293 0.73581 0.84655 0.0
O321 O 0.44084 0.73112 0.82225 0.0
C322 C 0.36128 0.70239 0.84997 0.0
O323 O 0.37764 0.69974 0.87038 0.0
O324 O 0.39602 0.72693 0.77433 0.0
C325 C 0.59273 0.55439 0.44901 0.0
O326 O 0.58584 0.57671 0.44872 0.0
O327 O 0.6147 0.60867 0.48939 0.0
Zn328 Zn 0.62042 0.57445 0.49914 0.0
O329 O 0.60412 0.57073 0.53702 0.0
C330 C 0.65808 0.58566 0.53414 0.0
O331 O 0.6443 0.60298 0.54216 0.0
O332 O 0.60899 0.54955 0.46698 0.0
C333 C 0.61043 0.55532 0.55556 0.0
O334 O 0.62677 0.54076 0.54856 0.0
C335 C 0.62933 0.62221 0.48131 0.0
O336 O 0.64802 0.6126 0.47305 0.0
O337 O 0.65203 0.56969 0.51301 0.0
C338 C 0.63492 0.81344 0.58831 0.0
O339 O 0.6203 0.79938 0.57315 0.0
O340 O 0.63393 0.75117 0.59279 0.0
Zn341 Zn 0.63606 0.77622 0.62906 0.0
O342 O 0.6599 0.76584 0.65904 0.0
C343 C 0.59224 0.76393 0.64212 0.0
O344 O 0.58988 0.75814 0.61223 0.0
O345 O 0.64278 0.80804 0.61454 0.0
C346 C 0.68058 0.76686 0.65911 0.0
O347 O 0.68969 0.7764 0.63661 0.0
C348 C 0.64874 0.74797 0.5736 0.0
O349 O 0.66598 0.7617 0.5769 0.0
O350 O 0.60916 0.7752 0.65295 0.0
C351 C 0.80447 0.59886 0.70745 0.0
O352 O 0.79689 0.60793 0.68201 0.0
O353 O 0.75135 0.61643 0.68921 0.0
Zn354 Zn 0.76618 0.62212 0.73137 0.0
O355 O 0.7453 0.60991 0.76074 0.0
C356 C 0.74864 0.66752 0.73617 0.0
O357 O 0.73203 0.65336 0.7378 0.0
O358 O 0.79492 0.60404 0.73235 0.0
C359 C 0.74116 0.62008 0.78705 0.0
O360 O 0.75278 0.63859 0.79842 0.0
C361 C 0.7472 0.59718 0.67253 0.0
O362 O 0.75329 0.57649 0.68257 0.0
O363 O 0.76775 0.65829 0.73555 0.0
C364 C 0.54718 0.62444 0.82219 0.0
O365 O 0.56307 0.63399 0.84054 0.0
O366 O 0.60732 0.61361 0.80007 0.0
Zn367 Zn 0.57936 0.62115 0.77545 0.0
O368 O 0.5796 0.60145 0.73468 0.0
C369 C 0.56511 0.66633 0.75201 0.0
O370 O 0.54663 0.65513 0.74509 0.0
O371 O 0.55116 0.61648 0.79491 0.0
C372 C 0.563 0.59777 0.71607 0.0
O373 O 0.54382 0.60629 0.72377 0.0
C374 C 0.61672 0.59338 0.79476 0.0
O375 O 0.60595 0.57636 0.778 0.0
O376 O 0.58082 0.65563 0.76581 0.0
C377 C 0.2709 0.36361 0.53129 0.0
O378 O 0.27033 0.37441 0.50563 0.0
O379 O 0.33803 0.36953 0.52089 0.0
Zn380 Zn 0.31291 0.34679 0.51133 0.0
O381 O 0.32455 0.31304 0.51279 0.0
C382 C 0.30521 0.36796 0.45296 0.0
O383 O 0.31383 0.38697 0.46846 0.0
O384 O 0.28802 0.35197 0.53924 0.0
C385 C 0.31445 0.29564 0.49801 0.0
O386 O 0.2954 0.29971 0.48379 0.0
C387 C 0.3557 0.36306 0.53486 0.0
O388 O 0.35639 0.34247 0.54725 0.0
O389 O 0.30244 0.34935 0.46691 0.0
C390 C 0.33347 0.41539 0.18932 0.0
O391 O 0.35023 0.42323 0.20733 0.0
O392 O 0.37509 0.38617 0.23098 0.0
Zn393 Zn 0.34435 0.37503 0.22136 0.0
O394 O 0.33048 0.38404 0.26149 0.0
C395 C 0.36013 0.32588 0.20812 0.0
O396 O 0.37707 0.33609 0.19806 0.0
O397 O 0.32819 0.39354 0.18922 0.0
C398 C 0.31713 0.37088 0.27321 0.0
O399 O 0.31056 0.35095 0.25762 0.0
C400 C 0.39216 0.38832 0.2164 0.0
O401 O 0.39218 0.38187 0.18668 0.0
O402 O 0.34367 0.3388 0.21546 0.0
C403 C 0.43634 0.16307 0.3636 0.0
O404 O 0.43525 0.17145 0.39259 0.0
O405 O 0.37634 0.1893 0.38261 0.0
Zn406 Zn 0.40087 0.19619 0.35588 0.0
O407 O 0.41896 0.22149 0.38035 0.0
C408 C 0.36904 0.21932 0.31559 0.0
O409 O 0.35589 0.21542 0.33727 0.0
O410 O 0.42145 0.16905 0.34398 0.0
C411 C 0.43624 0.22952 0.37058 0.0
O412 O 0.44268 0.22107 0.34347 0.0
C413 C 0.37971 0.19287 0.41175 0.0
O414 O 0.39997 0.19416 0.42333 0.0
O415 O 0.38869 0.21168 0.31792 0.0
H416 H 0.98523 0.98531 0.42915 0.0
H417 H 0.92837 0.02294 0.46301 0.0
H418 H 0.94372 0.0611 0.45243 0.0
H419 H 0.97473 0.08387 0.43799 0.0
H420 H 0.03137 0.04605 0.40334 0.0
H421 H 0.01436 0.00787 0.40891 0.0
C422 C 0.97621 0.00188 0.43411 0.0
C423 C 0.95593 0.00142 0.44738 0.0
C424 C 0.98499 0.0237 0.4276 0.0
C425 C 0.94412 0.02291 0.45303 0.0
C426 C 0.95287 0.04471 0.44696 0.0
C427 C 0.98319 0.0673 0.43105 0.0
C428 C 0.00446 0.0679 0.42075 0.0
C429 C 0.97347 0.04535 0.43478 0.0
C430 C 0.01506 0.0462 0.41156 0.0
C431 C 0.00542 0.0243 0.41497 0.0
H432 H 0.94829 0.19406 0.85686 0.0
H433 H 0.92098 0.16781 0.76689 0.0
H434 H 0.95562 0.14789 0.7552 0.0
H435 H 0.99435 0.14139 0.76841 0.0
H436 H 0.023 0.17087 0.85618 0.0
H437 H 0.98705 0.18578 0.87114 0.0
C438 C 0.94986 0.18363 0.83492 0.0
C439 C 0.93216 0.18239 0.81272 0.0
C440 C 0.97006 0.17293 0.82795 0.0
C441 C 0.93444 0.1691 0.78424 0.0
C442 C 0.95422 0.15772 0.77756 0.0
C443 C 0.99273 0.15068 0.79108 0.0
C444 C 0.01134 0.15503 0.81117 0.0
C445 C 0.97226 0.16 0.79894 0.0
C446 C 0.00893 0.16733 0.84029 0.0
C447 C 0.9884 0.17593 0.84879 0.0
H448 H 0.66457 0.34642 0.92775 0.0
H449 H 0.70176 0.39131 0.99662 0.0
H450 H 0.6819 0.37588 0.03738 0.0
H451 H 0.65787 0.34535 0.05375 0.0
H452 H 0.62004 0.30113 0.98492 0.0
H453 H 0.63595 0.32085 0.94388 0.0
C454 C 0.66799 0.35316 0.95164 0.0
C455 C 0.68484 0.36963 0.95923 0.0
C456 C 0.65653 0.34418 0.975 0.0
C457 C 0.68891 0.37853 0.99019 0.0
C458 C 0.67766 0.36961 0.01356 0.0
C459 C 0.6528 0.34041 0.02977 0.0
C460 C 0.63812 0.32158 0.02232 0.0
C461 C 0.66203 0.35178 0.00629 0.0
C462 C 0.63138 0.31554 0.99123 0.0
C463 C 0.64058 0.32669 0.96773 0.0
H464 H 0.81223 0.06095 0.18876 0.0
H465 H 0.74743 0.03289 0.19232 0.0
H466 H 0.76197 0.99222 0.18704 0.0
H467 H 0.79302 0.96457 0.18454 0.0
H468 H 0.85822 0.99186 0.18305 0.0
H469 H 0.8435 0.03275 0.18367 0.0
C470 C 0.80131 0.04592 0.1883 0.0
C471 C 0.7788 0.05004 0.19124 0.0
C472 C 0.8098 0.02239 0.18541 0.0
C473 C 0.76485 0.03034 0.1904 0.0
C474 C 0.77312 0.007 0.18726 0.0
C475 C 0.80405 0.97939 0.18385 0.0
C476 C 0.8267 0.97513 0.18388 0.0
C477 C 0.79557 0.00282 0.1851 0.0
C478 C 0.84069 0.99462 0.18308 0.0
C479 C 0.83231 0.01803 0.18363 0.0
H480 H 0.54633 0.02836 0.03416 0.0
H481 H 0.58102 0.00055 0.95512 0.0
H482 H 0.55738 0.96563 0.94854 0.0
H483 H 0.52621 0.94386 0.96424 0.0
H484 H 0.49143 0.97204 0.04307 0.0
H485 H 0.51614 0.0059 0.05102 0.0
C486 C 0.54873 0.01471 0.01541 0.0
C487 C 0.56528 0.01715 0.99497 0.0
C488 C 0.53521 0.99471 0.01189 0.0
C489 C 0.56831 0.99915 0.97106 0.0
C490 C 0.55485 0.97917 0.96734 0.0
C491 C 0.52415 0.95726 0.98338 0.0
C492 C 0.50693 0.95547 0.00297 0.0
C493 C 0.53819 0.97685 0.98753 0.0
C494 C 0.50451 0.97301 0.02762 0.0
C495 C 0.51857 0.99243 0.03211 0.0
H496 H 0.93721 0.68074 0.30712 0.0
H497 H 0.95713 0.68498 0.40425 0.0
H498 H 0.99056 0.66244 0.39282 0.0
H499 H 0.01681 0.64766 0.35444 0.0
H500 H 0.99742 0.64639 0.25738 0.0
H501 H 0.9611 0.6613 0.26956 0.0
C502 C 0.94863 0.67635 0.3259 0.0
C503 C 0.94487 0.68499 0.35641 0.0
C504 C 0.96811 0.66409 0.3191 0.0
C505 C 0.95972 0.6788 0.38047 0.0
C506 C 0.97893 0.666 0.37395 0.0
C507 C 0.00441 0.65005 0.33607 0.0
C508 C 0.00978 0.64626 0.30509 0.0
C509 C 0.98373 0.65947 0.34324 0.0
C510 C 0.99367 0.64951 0.28142 0.0
C511 C 0.97292 0.65807 0.28835 0.0
H512 H 0.22949 0.37606 0.51215 0.0
H513 H 0.26671 0.34446 0.58617 0.0
H514 H 0.23303 0.33251 0.60718 0.0
H515 H 0.19372 0.32595 0.60023 0.0
H516 H 0.15651 0.35548 0.52462 0.0
H517 H 0.18946 0.3737 0.50891 0.0
C518 C 0.23024 0.36699 0.53324 0.0
C519 C 0.25061 0.36081 0.54727 0.0
C520 C 0.21081 0.35958 0.54475 0.0
C521 C 0.25126 0.34918 0.57468 0.0
C522 C 0.232 0.34228 0.58668 0.0
C523 C 0.19269 0.33671 0.58061 0.0
C524 C 0.17274 0.33896 0.56329 0.0
C525 C 0.21177 0.34657 0.57122 0.0
C526 C 0.17169 0.35324 0.5382 0.0
C527 C 0.19056 0.36359 0.52911 0.0
H528 H 0.81092 0.56736 0.65808 0.0
H529 H 0.83258 0.58455 0.75343 0.0
H530 H 0.85337 0.54689 0.75344 0.0
H531 H 0.86073 0.50699 0.72886 0.0
H532 H 0.83546 0.48775 0.63549 0.0
H533 H 0.82106 0.5285 0.63192 0.0
C534 C 0.82065 0.56312 0.67861 0.0
C535 C 0.82023 0.57864 0.70576 0.0
C536 C 0.8317 0.54096 0.67884 0.0
C537 C 0.83263 0.57281 0.73233 0.0
C538 C 0.84444 0.55127 0.73235 0.0
C539 C 0.85252 0.5118 0.70744 0.0
C540 C 0.84902 0.49429 0.68253 0.0
C541 C 0.84342 0.53485 0.7061 0.0
C542 C 0.83825 0.50086 0.65503 0.0
C543 C 0.82993 0.52412 0.65305 0.0
H544 H 0.53502 0.14521 0.33922 0.0
H545 H 0.50893 0.14795 0.24514 0.0
H546 H 0.47188 0.14791 0.26221 0.0
H547 H 0.44712 0.15262 0.30424 0.0
H548 H 0.47296 0.15165 0.39864 0.0
H549 H 0.50973 0.14485 0.38096 0.0
C550 C 0.52123 0.14541 0.32241 0.0
C551 C 0.52477 0.14704 0.29104 0.0
C552 C 0.49987 0.14578 0.33243 0.0
C553 C 0.50671 0.14706 0.26951 0.0
C554 C 0.48547 0.14703 0.27923 0.0
C555 C 0.46069 0.15039 0.32097 0.0
C556 C 0.4573 0.15306 0.35274 0.0
C557 C 0.48187 0.14721 0.31072 0.0
C558 C 0.47511 0.14992 0.37403 0.0
C559 C 0.49619 0.14617 0.36395 0.0
H560 H 0.69091 0.86397 0.49878 0.0
H561 H 0.7229 0.89108 0.58546 0.0
H562 H 0.6943 0.87446 0.61353 0.0
H563 H 0.66354 0.84709 0.61345 0.0
H564 H 0.6318 0.81968 0.52668 0.0
H565 H 0.65669 0.842 0.49869 0.0
C566 C 0.69141 0.86659 0.5238 0.0
C567 C 0.70921 0.87827 0.54005 0.0
C568 C 0.67504 0.85681 0.53979 0.0
C569 C 0.70946 0.88197 0.57241 0.0
C570 C 0.69316 0.87238 0.5885 0.0
C571 C 0.66177 0.8464 0.58844 0.0
C572 C 0.64615 0.83135 0.57217 0.0
C573 C 0.67636 0.85898 0.57244 0.0
C574 C 0.6438 0.83096 0.5398 0.0
C575 C 0.65813 0.8436 0.52373 0.0
H576 H 0.29269 0.0316 0.64552 0.0
H577 H 0.2462 0.97567 0.61851 0.0
H578 H 0.27447 0.94535 0.62623 0.0
H579 H 0.31142 0.93458 0.64475 0.0
H580 H 0.35803 0.99014 0.67284 0.0
H581 H 0.33083 0.02063 0.65987 0.0
C582 C 0.28879 0.01278 0.64114 0.0
C583 C 0.26728 0.00595 0.63185 0.0
C584 C 0.30515 0.99532 0.64571 0.0
C585 C 0.26256 0.98148 0.62593 0.0
C586 C 0.27873 0.96407 0.6303 0.0
C587 C 0.31578 0.95333 0.6476 0.0
C588 C 0.33667 0.96003 0.6601 0.0
C589 C 0.29996 0.97078 0.64075 0.0
C590 C 0.34205 0.98443 0.66339 0.0
C591 C 0.32645 0.00192 0.65617 0.0
H592 H 0.95983 0.4621 0.96161 0.0
H593 H 0.93145 0.48733 0.04702 0.0
H594 H 0.94828 0.52629 0.04531 0.0
H595 H 0.972 0.55257 0.0206 0.0
H596 H 0.00112 0.52704 0.93589 0.0
H597 H 0.98251 0.4889 0.93591 0.0
C598 C 0.95738 0.47607 0.97996 0.0
C599 C 0.94455 0.47172 0.00457 0.0
C600 C 0.96697 0.49844 0.97873 0.0
C601 C 0.94136 0.49013 0.02792 0.0
C602 C 0.95089 0.51245 0.02689 0.0
C603 C 0.974 0.53885 0.00182 0.0
C604 C 0.98794 0.54265 0.97826 0.0
C605 C 0.96376 0.51677 0.00245 0.0
C606 C 0.99047 0.52457 0.95428 0.0
C607 C 0.97996 0.5027 0.9544 0.0
H608 H 0.51588 0.48753 0.39771 0.0
H609 H 0.55294 0.43775 0.45146 0.0
H610 H 0.58232 0.46668 0.46161 0.0
H611 H 0.59576 0.50729 0.45927 0.0
H612 H 0.55787 0.55764 0.40743 0.0
H613 H 0.5307 0.527 0.3919 0.0
C614 C 0.53044 0.48291 0.41149 0.0
C615 C 0.53208 0.46065 0.42418 0.0
C616 C 0.54713 0.49968 0.41749 0.0
C617 C 0.55118 0.45485 0.44165 0.0
C618 C 0.56799 0.47137 0.44744 0.0
C619 C 0.58178 0.51148 0.44408 0.0
C620 C 0.57874 0.5348 0.43475 0.0
C621 C 0.56592 0.49401 0.43602 0.0
C622 C 0.56053 0.53987 0.41509 0.0
C623 C 0.54493 0.5224 0.40634 0.0
H624 H 0.14589 0.81294 0.01397 0.0
H625 H 0.18809 0.8188 0.09728 0.0
H626 H 0.21522 0.83926 0.07083 0.0
H627 H 0.22916 0.84965 0.02242 0.0
H628 H 0.18802 0.84171 0.93819 0.0
H629 H 0.15815 0.82827 0.96675 0.0
C630 C 0.16079 0.81921 0.02654 0.0
C631 C 0.16514 0.81402 0.05738 0.0
C632 C 0.17664 0.8303 0.01091 0.0
C633 C 0.18449 0.82231 0.07339 0.0
C634 C 0.20005 0.83394 0.05826 0.0
C635 C 0.21355 0.84535 0.01033 0.0
C636 C 0.21098 0.84619 0.97812 0.0
C637 C 0.19667 0.83708 0.02672 0.0
C638 C 0.19053 0.84095 0.96293 0.0
C639 C 0.17345 0.83318 0.97924 0.0
H640 H 0.29254 0.40777 0.16273 0.0
H641 H 0.34115 0.4624 0.18345 0.0
H642 H 0.31477 0.49294 0.16829 0.0
H643 H 0.27697 0.50467 0.15456 0.0
H644 H 0.22811 0.45022 0.13481 0.0
H645 H 0.25554 0.41915 0.14403 0.0
C646 C 0.29749 0.42629 0.16338 0.0
C647 C 0.31871 0.43281 0.17459 0.0
C648 C 0.28211 0.44388 0.1552 0.0
C649 C 0.32486 0.4569 0.17519 0.0
C650 C 0.30976 0.47442 0.16663 0.0
C651 C 0.27235 0.486 0.152 0.0
C652 C 0.25046 0.47983 0.14447 0.0
C653 C 0.28817 0.46821 0.15754 0.0
C654 C 0.24481 0.45551 0.14086 0.0
C655 C 0.26049 0.4377 0.14614 0.0
H656 H 0.51068 0.61768 0.78413 0.0
H657 H 0.53204 0.63886 0.87873 0.0
H658 H 0.49471 0.65113 0.88993 0.0
H659 H 0.45744 0.66095 0.87104 0.0
H660 H 0.43697 0.64278 0.77537 0.0
H661 H 0.47252 0.62388 0.76652 0.0
C662 C 0.50715 0.62453 0.80739 0.0
C663 C 0.5242 0.6276 0.8305 0.0
C664 C 0.48584 0.6323 0.81338 0.0
C665 C 0.51926 0.6365 0.86047 0.0
C666 C 0.49793 0.64358 0.86686 0.0
C667 C 0.46056 0.65241 0.84839 0.0
C668 C 0.44464 0.65348 0.8238 0.0
C669 C 0.48127 0.64235 0.84322 0.0
C670 C 0.449 0.64236 0.79461 0.0
C671 C 0.46935 0.63163 0.78952 0.0
H672 H 0.12921 0.23673 0.47875 0.0
H673 H 0.07558 0.26827 0.52851 0.0
H674 H 0.0505 0.23994 0.49994 0.0
H675 H 0.04518 0.20219 0.46783 0.0
H676 H 0.0995 0.16869 0.42146 0.0
H677 H 0.12279 0.20208 0.4412 0.0
C678 C 0.11195 0.23781 0.48287 0.0
C679 C 0.10437 0.25436 0.50614 0.0
C680 C 0.09776 0.2209 0.46716 0.0
C681 C 0.08191 0.25555 0.51099 0.0
C682 C 0.06756 0.23928 0.49473 0.0
C683 C 0.06196 0.20244 0.46135 0.0
C684 C 0.07066 0.18274 0.44359 0.0
C685 C 0.07549 0.22122 0.4738 0.0
C686 C 0.09243 0.18348 0.43535 0.0
C687 C 0.1058 0.20252 0.44678 0.0
H688 H 0.89301 0.35417 0.69695 0.0
H689 H 0.82901 0.3468 0.65049 0.0
H690 H 0.82621 0.30671 0.66791 0.0
H691 H 0.84 0.27604 0.70186 0.0
H692 H 0.90307 0.28509 0.75077 0.0
H693 H 0.90809 0.32221 0.72692 0.0
C694 C 0.87864 0.34363 0.68995 0.0
C695 C 0.86119 0.3536 0.67256 0.0
C696 C 0.87679 0.32101 0.70103 0.0
C697 C 0.84268 0.33961 0.6639 0.0
C698 C 0.84099 0.31674 0.67407 0.0
C699 C 0.85498 0.28595 0.70695 0.0
C700 C 0.87103 0.27787 0.72835 0.0
C701 C 0.85762 0.30761 0.69356 0.0
C702 C 0.89034 0.29097 0.73465 0.0
C703 C 0.89326 0.31222 0.72098 0.0
H704 H 0.57763 0.14584 0.01203 0.0
H705 H 0.62898 0.13141 0.94921 0.0
H706 H 0.64264 0.17194 0.96168 0.0
H707 H 0.64335 0.20891 0.99639 0.0
H708 H 0.59333 0.22188 0.06166 0.0
H709 H 0.57583 0.18448 0.04223 0.0
C710 C 0.59145 0.15171 0.00039 0.0
C711 C 0.60242 0.1355 0.98 0.0
C712 C 0.59976 0.17464 0.00864 0.0
C713 C 0.62031 0.14349 0.96515 0.0
C714 C 0.62824 0.1666 0.97247 0.0
C715 C 0.62844 0.20374 0.00604 0.0
C716 C 0.61988 0.21798 0.03079 0.0
C717 C 0.61867 0.18193 0.99519 0.0
C718 C 0.60044 0.21111 0.04287 0.0
C719 C 0.59039 0.18971 0.03176 0.0
H720 H 0.84792 0.76835 0.24861 0.0
H721 H 0.91615 0.78523 0.26629 0.0
H722 H 0.91239 0.81659 0.23075 0.0
H723 H 0.88869 0.84297 0.20121 0.0
H724 H 0.81989 0.82819 0.18654 0.0
H725 H 0.82507 0.79184 0.21352 0.0
C726 C 0.86207 0.77857 0.24425 0.0
C727 C 0.8822 0.77468 0.2605 0.0
C728 C 0.85968 0.79701 0.22431 0.0
C729 C 0.90039 0.78803 0.25441 0.0
C730 C 0.89826 0.80599 0.23407 0.0
C731 C 0.87491 0.83146 0.20305 0.0
C732 C 0.85388 0.83846 0.19216 0.0
C733 C 0.87782 0.8112 0.21978 0.0
C734 C 0.83623 0.82329 0.19487 0.0
C735 C 0.83915 0.80261 0.21054 0.0
H736 H 0.17003 0.04855 0.68798 0.0
H737 H 0.20135 0.11003 0.73708 0.0
H738 H 0.16821 0.11996 0.76389 0.0
H739 H 0.12892 0.11436 0.76799 0.0
H740 H 0.09757 0.05287 0.71889 0.0
H741 H 0.13219 0.03958 0.69816 0.0
C742 C 0.16973 0.06388 0.70495 0.0
C743 C 0.18803 0.07873 0.71007 0.0
C744 C 0.15054 0.06961 0.72022 0.0
C745 C 0.18746 0.09835 0.73246 0.0
C746 C 0.16846 0.10412 0.74777 0.0
C747 C 0.12974 0.09777 0.7533 0.0
C748 C 0.11054 0.08492 0.74457 0.0
C749 C 0.14967 0.09035 0.74104 0.0
C750 C 0.112 0.0633 0.7258 0.0
C751 C 0.1318 0.05571 0.71374 0.0
H752 H 0.7787 0.41134 0.94103 0.0
H753 H 0.78907 0.34456 0.98269 0.0
H754 H 0.8248 0.35796 0.00452 0.0
H755 H 0.85498 0.38603 0.00509 0.0
H756 H 0.84495 0.45225 0.96193 0.0
H757 H 0.807 0.4419 0.94808 0.0
C758 C 0.78864 0.39986 0.95528 0.0
C759 C 0.78146 0.37682 0.95972 0.0
C760 C 0.80926 0.40754 0.96743 0.0
C761 C 0.79432 0.36231 0.97868 0.0
C762 C 0.81479 0.36993 0.99111 0.0
C763 C 0.84437 0.3985 0.99334 0.0
C764 C 0.85292 0.41966 0.98402 0.0
C765 C 0.82272 0.39215 0.98469 0.0
C766 C 0.83887 0.4357 0.96905 0.0
C767 C 0.81718 0.42973 0.96094 0.0
H768 H 0.72131 0.10671 0.26807 0.0
H769 H 0.72916 0.18302 0.28634 0.0
H770 H 0.69398 0.18622 0.30991 0.0
H771 H 0.65856 0.16832 0.31685 0.0
H772 H 0.65045 0.0921 0.29693 0.0
H773 H 0.68834 0.08786 0.28328 0.0
C774 C 0.71553 0.12398 0.27781 0.0
C775 C 0.72762 0.14465 0.27493 0.0
C776 C 0.69514 0.12574 0.29083 0.0
C777 C 0.72012 0.16684 0.28809 0.0
C778 C 0.69992 0.1687 0.30141 0.0
C779 C 0.66521 0.15067 0.31029 0.0
C780 C 0.65147 0.13064 0.3072 0.0
C781 C 0.6869 0.14842 0.30168 0.0
C782 C 0.66051 0.10789 0.29911 0.0
C783 C 0.68218 0.10545 0.29109 0.0
H784 H 0.89254 0.9088 0.55679 0.0
H785 H 0.88041 0.95716 0.48545 0.0
H786 H 0.84124 0.95062 0.48571 0.0
H787 H 0.81145 0.92632 0.49997 0.0
H788 H 0.82367 0.87591 0.56889 0.0
H789 H 0.86163 0.88847 0.57627 0.0
C790 C 0.88127 0.91839 0.54192 0.0
C791 C 0.88936 0.93318 0.52084 0.0
C792 C 0.85878 0.91394 0.54146 0.0
C793 C 0.87457 0.94545 0.50164 0.0
C794 C 0.85218 0.94167 0.5017 0.0
C795 C 0.82226 0.91841 0.51709 0.0
C796 C 0.81482 0.89986 0.53339 0.0
C797 C 0.84422 0.92518 0.52054 0.0
C798 C 0.82902 0.89003 0.55574 0.0
C799 C 0.85079 0.89713 0.55989 0.0
H800 H 0.61343 0.14438 0.19022 0.0
H801 H 0.57407 0.08215 0.1965 0.0
H802 H 0.58052 0.06861 0.14289 0.0
H803 H 0.59673 0.07489 0.09404 0.0
H804 H 0.63625 0.13708 0.08819 0.0
H805 H 0.63031 0.15016 0.14198 0.0
C806 C 0.60625 0.12782 0.17993 0.0
C807 C 0.59319 0.11436 0.19734 0.0
C808 C 0.61001 0.12017 0.14918 0.0
C809 C 0.58417 0.09288 0.18364 0.0
C810 C 0.58782 0.08514 0.15297 0.0
C811 C 0.60404 0.09131 0.10451 0.0
C812 C 0.61679 0.10507 0.08703 0.0
C813 C 0.6006 0.09872 0.13548 0.0
C814 C 0.62627 0.12621 0.10104 0.0
C815 C 0.6229 0.1337 0.13182 0.0
H816 H 0.85604 0.76023 0.44555 0.0
H817 H 0.82973 0.74667 0.35152 0.0
H818 H 0.79603 0.76786 0.36477 0.0
H819 H 0.77648 0.79521 0.40093 0.0
H820 H 0.80375 0.8106 0.49418 0.0
H821 H 0.83442 0.78345 0.48343 0.0
C822 C 0.84276 0.76143 0.42809 0.0
C823 C 0.84556 0.75218 0.39748 0.0
C824 C 0.82366 0.77424 0.43563 0.0
C825 C 0.82812 0.75384 0.3752 0.0
C826 C 0.80885 0.76604 0.38272 0.0
C827 C 0.78888 0.79227 0.41912 0.0
C828 C 0.78797 0.80523 0.44816 0.0
C829 C 0.8068 0.77711 0.41255 0.0
C830 C 0.80415 0.80107 0.47149 0.0
C831 C 0.82175 0.78559 0.46535 0.0
H832 H 0.18914 0.13428 0.58363 0.0
H833 H 0.23568 0.15001 0.66055 0.0
H834 H 0.22787 0.19308 0.65861 0.0
H835 H 0.20474 0.2256 0.63808 0.0
H836 H 0.15856 0.20848 0.56065 0.0
H837 H 0.16945 0.16657 0.55963 0.0
C838 C 0.19777 0.14719 0.59976 0.0
C839 C 0.21271 0.13917 0.62245 0.0
C840 C 0.19313 0.1716 0.59852 0.0
C841 C 0.2241 0.15592 0.64289 0.0
C842 C 0.21952 0.18046 0.64188 0.0
C843 C 0.19729 0.21275 0.62074 0.0
C844 C 0.18058 0.22018 0.59982 0.0
C845 C 0.2036 0.18845 0.62027 0.0
C846 C 0.17127 0.20331 0.57727 0.0
C847 C 0.17746 0.17927 0.57665 0.0
H848 H 0.85017 0.36872 0.78598 0.0
H849 H 0.88584 0.43246 0.77331 0.0
H850 H 0.90287 0.432 0.82544 0.0
H851 H 0.90581 0.41502 0.87565 0.0
H852 H 0.86942 0.35182 0.88856 0.0
H853 H 0.85454 0.35056 0.8352 0.0
C854 C 0.86178 0.38243 0.7945 0.0
C855 C 0.86657 0.40071 0.77589 0.0
C856 C 0.87129 0.38225 0.8246 0.0
C857 C 0.88177 0.41824 0.78723 0.0
C858 C 0.89149 0.41803 0.81706 0.0
C859 C 0.89476 0.40086 0.86673 0.0
C860 C 0.88858 0.38369 0.88613 0.0
C861 C 0.88608 0.40036 0.83612 0.0
C862 C 0.87429 0.36541 0.8742 0.0
C863 C 0.86577 0.36465 0.84367 0.0
H864 H 0.17786 0.55237 0.06112 0.0
H865 H 0.13578 0.50498 0.10266 0.0
H866 H 0.10695 0.51128 0.06287 0.0
H867 H 0.09221 0.53426 0.02089 0.0
H868 H 0.13337 0.58385 0.98159 0.0
H869 H 0.16424 0.57221 0.01552 0.0
C870 C 0.16252 0.54309 0.06122 0.0
C871 C 0.15887 0.52848 0.08511 0.0
C872 C 0.14582 0.54726 0.03873 0.0
C873 C 0.13894 0.51652 0.08475 0.0
C874 C 0.12243 0.52013 0.06201 0.0
C875 C 0.10803 0.54219 0.0192 0.0
C876 C 0.11038 0.56016 -0.00103 0.0
C877 C 0.12546 0.53607 0.03953 0.0
C878 C 0.13105 0.57012 0.99709 0.0
C879 C 0.14869 0.56357 0.01663 0.0
H880 H 0.63344 0.2833 0.19339 0.0
H881 H 0.56964 0.26729 0.14995 0.0
H882 H 0.56013 0.2474 0.19486 0.0
H883 H 0.57266 0.22773 0.2411 0.0
H884 H 0.63717 0.24203 0.28316 0.0
H885 H 0.64345 0.26976 0.24452 0.0
C886 C 0.61725 0.27599 0.19404 0.0
C887 C 0.60251 0.2762 0.16796 0.0
C888 C 0.61211 0.26394 0.21955 0.0
C889 C 0.58145 0.26708 0.16947 0.0
C890 C 0.57603 0.25554 0.1951 0.0
C891 C 0.58791 0.23734 0.24228 0.0
C892 C 0.60464 0.23229 0.26447 0.0
C893 C 0.59166 0.25276 0.21947 0.0
C894 C 0.62411 0.24528 0.26607 0.0
C895 C 0.62778 0.26107 0.24384 0.0
H896 H 0.79459 0.92436 0.297 0.0
H897 H 0.77778 0.8502 0.27468 0.0
H898 H 0.76226 0.84908 0.32482 0.0
H899 H 0.75677 0.86794 0.37672 0.0
H900 H 0.77457 0.94177 0.39962 0.0
H901 H 0.78608 0.94428 0.34732 0.0
C902 C 0.78732 0.90801 0.30293 0.0
C903 C 0.78761 0.88731 0.28222 0.0
C904 C 0.77866 0.9074 0.33196 0.0
C905 C 0.77792 0.86636 0.29022 0.0
C906 C 0.76907 0.86568 0.31894 0.0
C907 C 0.76285 0.88472 0.37019 0.0
C908 C 0.76502 0.90456 0.39222 0.0
C909 C 0.76983 0.88592 0.34026 0.0
C910 C 0.77284 0.92616 0.38323 0.0
C911 C 0.77951 0.9276 0.35333 0.0
H912 H 0.14652 0.09563 0.4694 0.0
H913 H 0.0921 0.0579 0.49973 0.0
H914 H 0.11629 0.03894 0.53715 0.0
H915 H 0.15187 0.03694 0.56565 0.0
H916 H 0.20624 0.07515 0.5361 0.0
H917 H 0.18319 0.08959 0.49378 0.0
C918 C 0.14001 0.08298 0.48385 0.0
C919 C 0.11747 0.07856 0.48206 0.0
C920 C 0.15398 0.07226 0.50566 0.0
C921 C 0.10935 0.06188 0.50076 0.0
C922 C 0.12317 0.05102 0.52228 0.0
C923 C 0.1588 0.04805 0.54962 0.0
C924 C 0.18065 0.05523 0.5544 0.0
C925 C 0.14537 0.05666 0.5256 0.0
C926 C 0.18941 0.06945 0.53317 0.0
C927 C 0.17621 0.07786 0.509 0.0
H928 H 0.46792 0.3187 0.45789 0.0
H929 H 0.50497 0.32965 0.37922 0.0
H930 H 0.49307 0.29101 0.35424 0.0
H931 H 0.46861 0.2566 0.35212 0.0
H932 H 0.42989 0.24724 0.42968 0.0
H933 H 0.44602 0.28275 0.45767 0.0
C934 C 0.47378 0.31246 0.43555 0.0
C935 C 0.48717 0.32715 0.42034 0.0
C936 C 0.46628 0.29065 0.42088 0.0
C937 C 0.49456 0.31875 0.39137 0.0
C938 C 0.48766 0.29671 0.37699 0.0
C939 C 0.46391 0.26215 0.3753 0.0
C940 C 0.44786 0.24946 0.38861 0.0
C941 C 0.47294 0.2829 0.39109 0.0
C942 C 0.44201 0.25684 0.41872 0.0
C943 C 0.45125 0.27714 0.43479 0.0
H944 H 0.14165 0.6916 0.27518 0.0
H945 H 0.07281 0.70748 0.28078 0.0
H946 H 0.07522 0.73831 0.24496 0.0
H947 H 0.09534 0.75508 0.20482 0.0
H948 H 0.16409 0.73861 0.19885 0.0
H949 H 0.16325 0.71413 0.24228 0.0
C950 C 0.12729 0.70223 0.26919 0.0
C951 C 0.10701 0.6968 0.28004 0.0
C952 C 0.12867 0.71963 0.24808 0.0
C953 C 0.08862 0.71105 0.27251 0.0
C954 C 0.08993 0.72861 0.25181 0.0
C955 C 0.11025 0.74661 0.21347 0.0
C956 C 0.12957 0.74817 0.198 0.0
C957 C 0.10963 0.73219 0.23827 0.0
C958 C 0.14886 0.73742 0.20992 0.0
C959 C 0.14841 0.7233 0.23475 0.0
H960 H 0.93208 0.27711 0.87762 0.0
H961 H 0.86424 0.26621 0.89284 0.0
H962 H 0.86754 0.29265 0.94043 0.0
H963 H 0.8884 0.32235 0.97404 0.0
H964 H 0.95562 0.3351 0.95707 0.0
H965 H 0.95402 0.3038 0.91438 0.0
C966 C 0.91805 0.28032 0.89149 0.0
C967 C 0.89787 0.26995 0.88148 0.0
C968 C 0.91999 0.29576 0.91862 0.0
C969 C 0.87994 0.27407 0.89992 0.0
C970 C 0.88181 0.2892 0.92715 0.0
C971 C 0.90292 0.31788 0.9616 0.0
C972 C 0.92206 0.33124 0.96858 0.0
C973 C 0.90161 0.30059 0.93629 0.0
C974 C 0.94065 0.32517 0.95209 0.0
C975 C 0.93969 0.30743 0.92749 0.0
H976 H 0.16579 0.53486 0.22214 0.0
H977 H 0.20646 0.59376 0.25902 0.0
H978 H 0.17905 0.60687 0.29532 0.0
H979 H 0.14149 0.60496 0.31127 0.0
H980 H 0.10064 0.54626 0.27405 0.0
H981 H 0.13035 0.52947 0.24397 0.0
C982 C 0.16881 0.55033 0.23846 0.0
C983 C 0.18798 0.56354 0.23743 0.0
C984 C 0.15289 0.5579 0.25923 0.0
C985 C 0.19178 0.58334 0.25908 0.0
C986 C 0.17607 0.59093 0.27984 0.0
C987 C 0.13922 0.58818 0.2972 0.0
C988 C 0.11866 0.5772 0.2945 0.0
C989 C 0.15625 0.57883 0.27938 0.0
C990 C 0.11618 0.5553 0.27637 0.0
C991 C 0.13313 0.54573 0.25893 0.0
H992 H 0.32673 0.90078 0.98214 0.0
H993 H 0.35059 0.83606 0.0206 0.0
H994 H 0.38775 0.85118 0.02408 0.0
H995 H 0.41389 0.87997 0.00892 0.0
H996 H 0.39002 0.94422 0.96925 0.0
H997 H 0.35248 0.93224 0.97407 0.0
C998 C 0.33999 0.89015 0.99182 0.0
C999 C 0.33592 0.86712 0.00051 0.0
C1000 C 0.36139 0.89877 0.99329 0.0
C1001 C 0.35326 0.85376 0.01346 0.0
C1002 C 0.37456 0.86234 0.01533 0.0
C1003 C 0.40049 0.8916 0.00189 0.0
C1004 C 0.40479 0.91273 0.98816 0.0
C1005 C 0.3789 0.8844 0.00419 0.0
C1006 C 0.38722 0.92773 0.97958 0.0
C1007 C 0.36571 0.92085 0.98219 0.0
H1008 H 0.03605 0.67146 0.02955 0.0
H1009 H 0.07324 0.64658 0.95173 0.0
H1010 H 0.09868 0.67943 0.96415 0.0
H1011 H 0.11345 0.71099 0.00169 0.0
H1012 H 0.07758 0.73406 0.0815 0.0
H1013 H 0.04843 0.70632 0.06348 0.0
C1014 C 0.04939 0.67353 0.0148 0.0
C1015 C 0.05288 0.65636 0.98998 0.0
C1016 C 0.06441 0.69195 0.02274 0.0
C1017 C 0.07026 0.65941 0.97113 0.0
C1018 C 0.0849 0.67812 0.97833 0.0
C1019 C 0.09908 0.7103 0.01489 0.0
C1020 C 0.0979 0.7243 0.04319 0.0
C1021 C 0.08265 0.69385 0.00484 0.0
C1022 C 0.07905 0.72331 0.05981 0.0
C1023 C 0.06237 0.70739 0.04956 0.0
H1024 H 0.35346 0.82199 0.69014 0.0
H1025 H 0.42241 0.83466 0.7085 0.0
H1026 H 0.42753 0.79465 0.726 0.0
H1027 H 0.41159 0.75851 0.74305 0.0
H1028 H 0.34252 0.7462 0.72558 0.0
H1029 H 0.33842 0.78344 0.70053 0.0
C1030 C 0.3697 0.81585 0.69733 0.0
C1031 C 0.38744 0.83153 0.6985 0.0
C1032 C 0.3725 0.79295 0.70795 0.0
C1033 C 0.4084 0.82311 0.70762 0.0
C1034 C 0.41135 0.80024 0.71781 0.0
C1035 C 0.3957 0.76375 0.7333 0.0
C1036 C 0.37734 0.74975 0.73671 0.0
C1037 C 0.39337 0.78538 0.71921 0.0
C1038 C 0.35692 0.75669 0.72356 0.0
C1039 C 0.35453 0.77807 0.70929 0.0
H1040 H 0.46442 0.76502 0.84907 0.0
H1041 H 0.41185 0.7446 0.90252 0.0
H1042 H 0.42175 0.77601 0.9429 0.0
H1043 H 0.44229 0.81214 0.95991 0.0
H1044 H 0.49341 0.83429 0.90515 0.0
H1045 H 0.48744 0.79903 0.86881 0.0
C1046 C 0.45535 0.7672 0.86976 0.0
C1047 C 0.43724 0.75271 0.87256 0.0
C1048 C 0.46082 0.78567 0.89265 0.0
C1049 C 0.4257 0.75572 0.89959 0.0
C1050 C 0.43135 0.77367 0.92273 0.0
C1051 C 0.45246 0.80903 0.94041 0.0
C1052 C 0.46809 0.82598 0.93508 0.0
C1053 C 0.44845 0.78919 0.91906 0.0
C1054 C 0.48114 0.82161 0.90968 0.0
C1055 C 0.47767 0.80151 0.88878 0.0
H1056 H 0.12751 0.26061 0.68193 0.0
H1057 H 0.06135 0.26534 0.64267 0.0
H1058 H 0.04943 0.23797 0.67873 0.0
H1059 H 0.05882 0.20824 0.71572 0.0
H1060 H 0.12525 0.20225 0.75348 0.0
H1061 H 0.13592 0.23478 0.72394 0.0
C1062 C 0.11038 0.2561 0.68166 0.0
C1063 C 0.09543 0.26471 0.6592 0.0
C1064 C 0.10372 0.23984 0.70194 0.0
C1065 C 0.07328 0.2588 0.65945 0.0
C1066 C 0.06645 0.24303 0.67999 0.0
C1067 C 0.07557 0.21429 0.71792 0.0
C1068 C 0.09129 0.20249 0.73636 0.0
C1069 C 0.0817 0.2327 0.70043 0.0
C1070 C 0.11284 0.21082 0.73924 0.0
C1071 C 0.11899 0.22939 0.72226 0.0
H1072 H 0.28009 0.76981 0.86786 0.0
H1073 H 0.30871 0.7758 0.96127 0.0
H1074 H 0.33383 0.74274 0.94825 0.0
H1075 H 0.35133 0.71683 0.90865 0.0
H1076 H 0.32451 0.71276 0.81434 0.0
H1077 H 0.2947 0.73985 0.82961 0.0
C1078 C 0.29151 0.76357 0.88555 0.0
C1079 C 0.29277 0.77555 0.91536 0.0
C1080 C 0.30635 0.74496 0.87769 0.0
C1081 C 0.30759 0.76712 0.93803 0.0
C1082 C 0.32199 0.74822 0.9306 0.0
C1083 C 0.33869 0.72136 0.89151 0.0
C1084 C 0.34041 0.7131 0.86029 0.0
C1085 C 0.32209 0.73767 0.90022 0.0
C1086 C 0.32374 0.71905 0.83849 0.0
C1087 C 0.30675 0.73469 0.84717 0.0
H1088 H 0.94203 0.93651 0.34814 0.0
H1089 H 0.92727 0.87367 0.3932 0.0
H1090 H 0.90314 0.8596 0.34897 0.0
H1091 H 0.88257 0.868 0.30096 0.0
H1092 H 0.89568 0.93215 0.25737 0.0
H1093 H 0.92434 0.94271 0.29733 0.0
C1094 C 0.93392 0.91948 0.34799 0.0
C1095 C 0.93615 0.9063 0.37408 0.0
C1096 C 0.91955 0.91191 0.32288 0.0
C1097 C 0.92553 0.88428 0.37356 0.0
C1098 C 0.91171 0.87626 0.34829 0.0
C1099 C 0.89189 0.88413 0.29993 0.0
C1100 C 0.88672 0.89949 0.27655 0.0
C1101 C 0.90796 0.89039 0.32338 0.0
C1102 C 0.89914 0.92016 0.27535 0.0
C1103 C 0.91552 0.92624 0.29822 0.0
H1104 H 0.59579 0.5681 0.69734 0.0
H1105 H 0.53731 0.60396 0.6639 0.0
H1106 H 0.54586 0.59197 0.61061 0.0
H1107 H 0.57212 0.57521 0.57374 0.0
H1108 H 0.63025 0.53876 0.6074 0.0
H1109 H 0.61953 0.54682 0.6604 0.0
C1110 C 0.58477 0.57298 0.67836 0.0
C1111 C 0.56613 0.58716 0.68445 0.0
C1112 C 0.58979 0.56607 0.64787 0.0
C1113 C 0.55179 0.59308 0.65976 0.0
C1114 C 0.55673 0.58636 0.62929 0.0
C1115 C 0.58226 0.56874 0.59267 0.0
C1116 C 0.60207 0.55671 0.58673 0.0
C1117 C 0.57601 0.57345 0.62309 0.0
C1118 C 0.61493 0.54811 0.61137 0.0
C1119 C 0.60888 0.55282 0.64171 0.0
H1120 H 0.80212 0.31834 0.84801 0.0
H1121 H 0.74293 0.2824 0.86486 0.0
H1122 H 0.75869 0.24419 0.84517 0.0
H1123 H 0.78866 0.22128 0.82154 0.0
H1124 H 0.84738 0.25734 0.80367 0.0
H1125 H 0.83258 0.29513 0.82579 0.0
C1126 C 0.79266 0.30216 0.84749 0.0
C1127 C 0.7713 0.30329 0.85774 0.0
C1128 C 0.80178 0.28025 0.83605 0.0
C1129 C 0.75937 0.28209 0.85704 0.0
C1130 C 0.76836 0.26022 0.84576 0.0
C1131 C 0.7983 0.23737 0.82254 0.0
C1132 C 0.8193 0.23633 0.81104 0.0
C1133 C 0.78947 0.25914 0.83493 0.0
C1134 C 0.83146 0.2574 0.8127 0.0
C1135 C 0.82287 0.27913 0.82517 0.0
H1136 H 0.08402 0.61422 0.0964 0.0
H1137 H 0.02043 0.58199 0.08301 0.0
H1138 H 0.01777 0.58315 0.13888 0.0
H1139 H 0.03351 0.59345 0.19159 0.0
H1140 H 0.09694 0.62616 0.20442 0.0
H1141 H 0.09966 0.6245 0.14868 0.0
C1142 C 0.06954 0.60749 0.10566 0.0
C1143 C 0.05246 0.59806 0.08557 0.0
C1144 C 0.06812 0.60819 0.13772 0.0
C1145 C 0.03382 0.5894 0.09798 0.0
C1146 C 0.03229 0.59 0.12993 0.0
C1147 C 0.04797 0.60007 0.18217 0.0
C1148 C 0.06497 0.60989 0.20212 0.0
C1149 C 0.04937 0.59931 0.15002 0.0
C1150 C 0.08356 0.61857 0.18957 0.0
C1151 C 0.08515 0.61765 0.15769 0.0
H1152 H 0.66183 0.65497 0.48494 0.0
H1153 H 0.59347 0.64772 0.50011 0.0
H1154 H 0.59302 0.68734 0.52795 0.0
H1155 H 0.61317 0.72146 0.55398 0.0
H1156 H 0.68164 0.72853 0.53957 0.0
H1157 H 0.68085 0.69165 0.50537 0.0
C1158 C 0.64669 0.66226 0.49365 0.0
C1159 C 0.62781 0.64818 0.49083 0.0
C1160 C 0.64664 0.68488 0.51029 0.0
C1161 C 0.60831 0.65804 0.50219 0.0
C1162 C 0.60806 0.68066 0.51831 0.0
C1163 C 0.62786 0.71508 0.54307 0.0
C1164 C 0.64751 0.7275 0.54975 0.0
C1165 C 0.62733 0.6938 0.52354 0.0
C1166 C 0.66632 0.71922 0.53502 0.0
C1167 C 0.6659 0.69809 0.51549 0.0
H1168 H 0.71649 0.58022 0.77544 0.0
H1169 H 0.71809 0.64945 0.82705 0.0
H1170 H 0.67984 0.64571 0.83814 0.0
H1171 H 0.64462 0.62567 0.82601 0.0
H1172 H 0.64317 0.55648 0.77412 0.0
H1173 H 0.68264 0.55716 0.77089 0.0
C1174 C 0.7086 0.59425 0.7897 0.0
C1175 C 0.72004 0.61524 0.79993 0.0
C1176 C 0.68651 0.59213 0.79569 0.0
C1177 C 0.70968 0.63313 0.81874 0.0
C1178 C 0.68772 0.63109 0.82492 0.0
C1179 C 0.65298 0.61049 0.8146 0.0
C1180 C 0.64082 0.59131 0.79976 0.0
C1181 C 0.67575 0.6111 0.81244 0.0
C1182 C 0.65201 0.57163 0.78547 0.0
C1183 C 0.67463 0.57204 0.78345 0.0
H1184 H 0.20976 0.61504 0.07552 0.0
H1185 H 0.23601 0.6212 0.17013 0.0
H1186 H 0.22833 0.66424 0.17378 0.0
H1187 H 0.20979 0.69885 0.15235 0.0
H1188 H 0.18114 0.69187 0.05899 0.0
H1189 H 0.19432 0.65048 0.05253 0.0
C1190 C 0.21425 0.62585 0.09675 0.0
C1191 C 0.22327 0.61487 0.1226 0.0
C1192 C 0.2091 0.65042 0.09903 0.0
C1193 C 0.22892 0.62918 0.14994 0.0
C1194 C 0.22445 0.65378 0.15209 0.0
C1195 C 0.20677 0.68843 0.13039 0.0
C1196 C 0.1943 0.69836 0.1063 0.0
C1197 C 0.21385 0.66442 0.12713 0.0
C1198 C 0.19053 0.68459 0.078 0.0
C1199 C 0.19804 0.6609 0.0743 0.0
H1200 H 0.60357 0.75699 0.70196 0.0
H1201 H 0.55364 0.74039 0.62946 0.0
H1202 H 0.53856 0.71067 0.65998 0.0
H1203 H 0.54332 0.68516 0.70327 0.0
H1204 H 0.59577 0.6993 0.77272 0.0
H1205 H 0.60607 0.7343 0.74745 0.0
C1206 C 0.58904 0.74735 0.69308 0.0
C1207 C 0.57986 0.75076 0.6633 0.0
C1208 C 0.58116 0.72951 0.71004 0.0
C1209 C 0.56109 0.73801 0.65223 0.0
C1210 C 0.55256 0.7209 0.66959 0.0
C1211 C 0.5567 0.69621 0.71323 0.0
C1212 C 0.5689 0.68955 0.73966 0.0
C1213 C 0.56304 0.7158 0.69792 0.0
C1214 C 0.58628 0.70394 0.75222 0.0
C1215 C 0.59217 0.72395 0.73777 0.0
H1216 H 0.7828 0.4395 0.74709 0.0
H1217 H 0.76422 0.37118 0.70045 0.0
H1218 H 0.73998 0.36474 0.74126 0.0
H1219 H 0.72898 0.37547 0.7939 0.0
H1220 H 0.74905 0.44289 0.84166 0.0
H1221 H 0.7674 0.45289 0.79639 0.0
C1222 C 0.77313 0.42339 0.7455 0.0
C1223 C 0.77569 0.40562 0.72106 0.0
C1224 C 0.75963 0.41953 0.76942 0.0
C1225 C 0.76278 0.38505 0.71915 0.0
C1226 C 0.74896 0.38129 0.74258 0.0
C1227 C 0.73695 0.39259 0.79422 0.0
C1228 C 0.73803 0.40817 0.82141 0.0
C1229 C 0.748 0.39795 0.76843 0.0
C1230 C 0.74818 0.43042 0.82121 0.0
C1231 C 0.75879 0.43611 0.79536 0.0
H1232 H 0.98349 0.84703 0.46734 0.0
H1233 H 0.92699 0.89151 0.4851 0.0
H1234 H 0.90391 0.8639 0.45188 0.0
H1235 H 0.9 0.82734 0.41684 0.0
H1236 H 0.95632 0.78171 0.40052 0.0
H1237 H 0.97927 0.80936 0.4341 0.0
C1238 C 0.96612 0.85064 0.46384 0.0
C1239 C 0.957 0.87175 0.47781 0.0
C1240 C 0.95296 0.83441 0.44496 0.0
C1241 C 0.93446 0.87596 0.47367 0.0
C1242 C 0.92124 0.85998 0.45492 0.0
C1243 C 0.91728 0.82341 0.42065 0.0
C1244 C 0.92643 0.80255 0.40605 0.0
C1245 C 0.93036 0.83926 0.44018 0.0
C1246 C 0.94884 0.79764 0.41147 0.0
C1247 C 0.962 0.81347 0.43063 0.0
H1248 H 0.44969 0.39025 0.50273 0.0
H1249 H 0.41274 0.44441 0.4564 0.0
H1250 H 0.37973 0.43323 0.47982 0.0
H1251 H 0.36046 0.40437 0.5073 0.0
H1252 H 0.3973 0.34965 0.55272 0.0
H1253 H 0.4312 0.36505 0.53623 0.0
C1254 C 0.43451 0.39993 0.49819 0.0
C1255 C 0.43366 0.41785 0.47736 0.0
C1256 C 0.41547 0.39317 0.51137 0.0
C1257 C 0.41388 0.43039 0.47209 0.0
C1258 C 0.39493 0.42394 0.48539 0.0
C1259 C 0.37593 0.39609 0.51414 0.0
C1260 C 0.37625 0.3756 0.53076 0.0
C1261 C 0.39538 0.40478 0.50413 0.0
C1262 C 0.39649 0.3653 0.5397 0.0
C1263 C 0.41593 0.37403 0.53014 0.0
H1264 H 0.33111 0.30221 0.23899 0.0
H1265 H 0.39476 0.29478 0.20179 0.0
H1266 H 0.40224 0.2591 0.2293 0.0
H1267 H 0.39276 0.23352 0.2695 0.0
H1268 H 0.32952 0.2419 0.30783 0.0
H1269 H 0.31986 0.27353 0.27417 0.0
C1270 C 0.34645 0.29254 0.23633 0.0
C1271 C 0.36248 0.30145 0.21871 0.0
C1272 C 0.35088 0.27235 0.25283 0.0
C1273 C 0.38218 0.2885 0.2154 0.0
C1274 C 0.38654 0.26813 0.23128 0.0
C1275 C 0.37672 0.24198 0.27015 0.0
C1276 C 0.36205 0.23557 0.29157 0.0
C1277 C 0.37135 0.26045 0.25099 0.0
C1278 C 0.34126 0.2466 0.29184 0.0
C1279 C 0.3357 0.26476 0.2726 0.0
H1280 H 0.38366 0.21496 0.46973 0.0
H1281 H 0.33606 0.19634 0.39475 0.0
H1282 H 0.30978 0.2244 0.4184 0.0
H1283 H 0.30303 0.25931 0.45485 0.0
H1284 H 0.35201 0.27998 0.52719 0.0
H1285 H 0.37493 0.24592 0.51023 0.0
C1286 C 0.36736 0.21652 0.45891 0.0
C1287 C 0.36203 0.20391 0.43015 0.0
C1288 C 0.35268 0.23345 0.4719 0.0
C1289 C 0.34071 0.20603 0.4167 0.0
C1290 C 0.32571 0.22223 0.43011 0.0
C1291 C 0.31849 0.25607 0.46736 0.0
C1292 C 0.32598 0.27243 0.4919 0.0
C1293 C 0.33193 0.23688 0.45685 0.0
C1294 C 0.346 0.26787 0.50795 0.0
C1295 C 0.35914 0.2484 0.49823 0.0
H1296 H 0.02534 0.15747 0.63764 0.0
H1297 H 0.04323 0.08689 0.66412 0.0
H1298 H 0.04191 0.07141 0.60992 0.0
H1299 H 0.03969 0.07887 0.55523 0.0
H1300 H 0.02418 0.14996 0.52866 0.0
H1301 H 0.02026 0.16421 0.58269 0.0
C1302 C 0.02859 0.13862 0.63158 0.0
C1303 C 0.03456 0.12341 0.65484 0.0
C1304 C 0.02838 0.12996 0.60035 0.0
C1305 C 0.03877 0.09903 0.64661 0.0
C1306 C 0.03805 0.09016 0.61563 0.0
C1307 C 0.03507 0.09739 0.56118 0.0
C1308 C 0.03242 0.11338 0.53801 0.0
C1309 C 0.03348 0.1056 0.59231 0.0
C1310 C 0.02647 0.13733 0.54612 0.0
C1311 C 0.02428 0.14551 0.577 0.0
H1312 H 0.68318 0.2036 0.15062 0.0
H1313 H 0.7157 0.2564 0.10385 0.0
H1314 H 0.75115 0.23907 0.11917 0.0
H1315 H 0.77294 0.20958 0.14697 0.0
H1316 H 0.74035 0.15803 0.19513 0.0
H1317 H 0.70496 0.17389 0.17785 0.0
C1318 C 0.698 0.2113 0.14365 0.0
C1319 C 0.69674 0.23135 0.12617 0.0
C1320 C 0.71834 0.20136 0.15269 0.0
C1321 C 0.71615 0.24103 0.11738 0.0
C1322 C 0.73645 0.23113 0.12612 0.0
C1323 C 0.7581 0.20174 0.15362 0.0
C1324 C 0.75939 0.18221 0.17204 0.0
C1325 C 0.73774 0.21139 0.14397 0.0
C1326 C 0.73995 0.17249 0.18046 0.0
C1327 C 0.71964 0.18179 0.17076 0.0
H1328 H 0.39512 0.41822 0.26777 0.0
H1329 H 0.43419 0.37351 0.20637 0.0
H1330 H 0.46562 0.37779 0.244 0.0
H1331 H 0.47979 0.3892 0.29757 0.0
H1332 H 0.43942 0.4327 0.3589 0.0
H1333 H 0.41073 0.43408 0.31796 0.0
C1334 C 0.41067 0.4098 0.26239 0.0
C1335 C 0.41235 0.39528 0.23471 0.0
C1336 C 0.4283 0.41186 0.2843 0.0
C1337 C 0.43258 0.38476 0.22764 0.0
C1338 C 0.45045 0.38703 0.24926 0.0
C1339 C 0.46488 0.39934 0.30177 0.0
C1340 C 0.46156 0.4104 0.33143 0.0
C1341 C 0.4482 0.39975 0.27819 0.0
C1342 C 0.44224 0.42367 0.33645 0.0
C1343 C 0.42581 0.4245 0.31305 0.0
H1344 H 0.68121 0.62156 0.5637 0.0
H1345 H 0.68052 0.54467 0.5472 0.0
H1346 H 0.70996 0.54125 0.5874 0.0
H1347 H 0.7325 0.56029 0.6316 0.0
H1348 H 0.73217 0.63748 0.64735 0.0
H1349 H 0.70663 0.64056 0.60301 0.0
C1350 C 0.6878 0.60407 0.56855 0.0
C1351 C 0.67866 0.58341 0.55291 0.0
C1352 C 0.70434 0.60229 0.59184 0.0
C1353 C 0.68742 0.56084 0.55899 0.0
C1354 C 0.70408 0.55889 0.58214 0.0
C1355 C 0.72705 0.57776 0.62507 0.0
C1356 C 0.73394 0.59856 0.64319 0.0
C1357 C 0.71215 0.5795 0.59944 0.0
C1358 C 0.72693 0.62111 0.63416 0.0
C1359 C 0.7123 0.62296 0.60875 0.0
H1360 H 0.27126 0.85154 0.85006 0.0
H1361 H 0.29079 0.92244 0.88682 0.0
H1362 H 0.30433 0.93003 0.83708 0.0
H1363 H 0.31462 0.9148 0.78542 0.0
H1364 H 0.29582 0.84362 0.74896 0.0
H1365 H 0.27784 0.838 0.79629 0.0
C1366 C 0.27815 0.86881 0.84708 0.0
C1367 C 0.28031 0.88625 0.8723 0.0
C1368 C 0.28626 0.87293 0.81858 0.0
C1369 C 0.28905 0.90862 0.8679 0.0
C1370 C 0.29691 0.91295 0.83948 0.0
C1371 C 0.30636 0.89815 0.78765 0.0
C1372 C 0.30685 0.87952 0.76389 0.0
C1373 C 0.29625 0.89495 0.81502 0.0
C1374 C 0.29581 0.85821 0.76697 0.0
C1375 C 0.28558 0.85494 0.79408 0.0
H1376 H 0.73216 0.11599 0.09806 0.0
H1377 H 0.68494 0.09164 0.15767 0.0
H1378 H 0.66382 0.07325 0.11304 0.0
H1379 H 0.65854 0.06425 0.05758 0.0
H1380 H 0.70276 0.09221 0.99667 0.0
H1381 H 0.72589 0.10817 0.04147 0.0
C1382 C 0.71723 0.10668 0.10123 0.0
C1383 C 0.71021 0.1051 0.13117 0.0
C1384 C 0.70495 0.09632 0.07535 0.0
C1385 C 0.69073 0.09318 0.13492 0.0
C1386 C 0.6787 0.08247 0.10942 0.0
C1387 C 0.67343 0.07348 0.05399 0.0
C1388 C 0.67914 0.07676 0.02386 0.0
C1389 C 0.68574 0.08381 0.07962 0.0
C1390 C 0.69822 0.08922 0.01969 0.0
C1391 C 0.71128 0.09854 0.04526 0.0
H1392 H 0.43302 0.94108 0.88191 0.0
H1393 H 0.4771 0.89333 0.83204 0.0
H1394 H 0.45552 0.89822 0.78392 0.0
H1395 H 0.4215 0.91162 0.75764 0.0
H1396 H 0.37705 0.95867 0.80794 0.0
H1397 H 0.40166 0.95883 0.85409 0.0
C1398 C 0.43809 0.93202 0.86043 0.0
C1399 C 0.45639 0.91652 0.86063 0.0
C1400 C 0.42548 0.93467 0.83294 0.0
C1401 C 0.46298 0.90523 0.83257 0.0
C1402 C 0.4506 0.90794 0.80504 0.0
C1403 C 0.41738 0.92229 0.77851 0.0
C1404 C 0.39726 0.93473 0.77948 0.0
C1405 C 0.43141 0.92196 0.80517 0.0
C1406 C 0.39232 0.94872 0.80661 0.0
C1407 C 0.40634 0.94873 0.8331 0.0
H1408 H 0.72349 0.75251 0.65771 0.0
H1409 H 0.66735 0.75271 0.71297 0.0
H1410 H 0.68599 0.72512 0.74626 0.0
H1411 H 0.71521 0.69576 0.75397 0.0
H1412 H 0.77084 0.6935 0.69795 0.0
H1413 H 0.75582 0.72753 0.67134 0.0
C1414 C 0.71556 0.74694 0.67746 0.0
C1415 C 0.69387 0.75423 0.68239 0.0
C1416 C 0.72626 0.7306 0.69631 0.0
C1417 C 0.68388 0.74701 0.70825 0.0
C1418 C 0.69453 0.73123 0.72737 0.0
C1419 C 0.72436 0.70322 0.73656 0.0
C1420 C 0.74391 0.69205 0.72762 0.0
C1421 C 0.71528 0.72212 0.72078 0.0
C1422 C 0.75576 0.70189 0.70527 0.0
C1423 C 0.74702 0.72115 0.68978 0.0
H1424 H 0.29693 0.34195 0.30938 0.0
H1425 H 0.32612 0.41152 0.31064 0.0
H1426 H 0.32276 0.41782 0.36631 0.0
H1427 H 0.31521 0.40185 0.41518 0.0
H1428 H 0.28742 0.33159 0.4142 0.0
H1429 H 0.28635 0.32746 0.35787 0.0
C1430 C 0.30223 0.35866 0.32172 0.0
C1431 C 0.31198 0.37611 0.30589 0.0
C1432 C 0.30067 0.36198 0.35386 0.0
C1433 C 0.31872 0.39768 0.32228 0.0
C1434 C 0.31685 0.4013 0.35415 0.0
C1435 C 0.30861 0.38577 0.40267 0.0
C1436 C 0.30165 0.36696 0.41893 0.0
C1437 C 0.30843 0.3833 0.37029 0.0
C1438 C 0.29307 0.34629 0.40229 0.0
C1439 C 0.29248 0.34387 0.37005 0.0
loop_
_geom_bond_atom_site_label_1
_geom_bond_atom_site_label_2
_geom_bond_distance
_geom_bond_site_symmetry_2
_ccdc_geom_bond_type
C0 O1 1.160 . S
C0 O7 1.185 . S
O1 C0 1.160 . S
O2 Zn3 1.899 . S
O2 C10 1.284 . S
Zn3 O2 1.899 . S
Zn3 O4 2.032 . S
Zn3 O7 2.086 . S
Zn3 O12 1.977 . S
O4 Zn3 2.032 . S
O4 C8 1.278 . S
C5 O6 1.203 . S
C5 O12 1.267 . S
O6 C5 1.203 . S
O7 C0 1.185 . S
O7 Zn3 2.086 . S
C8 O4 1.278 . S
C8 O9 1.211 . S
O9 C8 1.211 . S
C10 O2 1.284 . S
C10 O11 1.273 . S
O11 C10 1.273 . S
O12 Zn3 1.977 . S
O12 C5 1.267 . S
C13 O14 1.160 . S
C13 O20 1.185 . S
O14 C13 1.160 . S
O15 Zn16 1.899 . S
O15 C23 1.284 . S
Zn16 O15 1.899 . S
Zn16 O17 2.032 . S
Zn16 O20 2.086 . S
Zn16 O25 1.977 . S
O17 Zn16 2.032 . S
O17 C21 1.278 . S
C18 O19 1.203 . S
C18 O25 1.267 . S
O19 C18 1.203 . S
O20 C13 1.185 . S
O20 Zn16 2.086 . S
C21 O17 1.278 . S
C21 O22 1.211 . S
O22 C21 1.211 . S
C23 O15 1.284 . S
C23 O24 1.273 . S
O24 C23 1.273 . S
O25 Zn16 1.977 . S
O25 C18 1.267 . S
C26 O27 1.160 1_554 S
C26 O33 1.185 . S
O27 C26 1.160 1_556 S
O28 Zn29 1.899 . S
O28 C36 1.284 . S
Zn29 O28 1.899 . S
Zn29 O30 2.032 . S
Zn29 O33 2.086 . S
Zn29 O38 1.977 . S
O30 Zn29 2.032 . S
O30 C34 1.278 . S
C31 O32 1.203 . S
C31 O38 1.267 . S
O32 C31 1.203 . S
O33 C26 1.185 . S
O33 Zn29 2.086 . S
C34 O30 1.278 . S
C34 O35 1.211 . S
O35 C34 1.211 . S
C36 O28 1.284 . S
C36 O37 1.273 . S
O37 C36 1.273 . S
O38 Zn29 1.977 . S
O38 C31 1.267 . S
C39 O40 1.160 . S
C39 O46 1.185 . S
O40 C39 1.160 . S
O41 Zn42 1.899 . S
O41 C49 1.284 . S
Zn42 O41 1.899 . S
Zn42 O43 2.032 . S
Zn42 O46 2.086 . S
Zn42 O51 1.977 . S
O43 Zn42 2.032 . S
O43 C47 1.278 . S
C44 O45 1.203 . S
C44 O51 1.267 . S
O45 C44 1.203 . S
O46 C39 1.185 . S
O46 Zn42 2.086 . S
C47 O43 1.278 . S
C47 O48 1.211 . S
O48 C47 1.211 . S
C49 O41 1.284 . S
C49 O50 1.273 . S
O50 C49 1.273 . S
O51 Zn42 1.977 . S
O51 C44 1.267 . S
C52 O53 1.160 . S
C52 O59 1.185 . S
O53 C52 1.160 . S
O54 Zn55 1.899 . S
O54 C62 1.284 . S
Zn55 O54 1.899 . S
Zn55 O56 2.032 . S
Zn55 O59 2.086 . S
Zn55 O64 1.977 . S
O56 Zn55 2.032 . S
O56 C60 1.278 . S
C57 O58 1.203 . S
C57 O64 1.267 . S
O58 C57 1.203 . S
O59 C52 1.185 . S
O59 Zn55 2.086 . S
C60 O56 1.278 . S
C60 O61 1.211 . S
O61 C60 1.211 . S
C62 O54 1.284 . S
C62 O63 1.273 . S
O63 C62 1.273 . S
O64 Zn55 1.977 . S
O64 C57 1.267 . S
C65 O66 1.160 . S
C65 O72 1.185 . S
O66 C65 1.160 . S
O67 Zn68 1.899 . S
O67 C75 1.284 . S
Zn68 O67 1.899 . S
Zn68 O69 2.032 . S
Zn68 O72 2.086 . S
Zn68 O77 1.977 . S
O69 Zn68 2.032 . S
O69 C73 1.278 . S
C70 O71 1.203 . S
C70 O77 1.267 . S
O71 C70 1.203 . S
O72 C65 1.185 . S
O72 Zn68 2.086 . S
C73 O69 1.278 . S
C73 O74 1.211 . S
O74 C73 1.211 . S
C75 O67 1.284 . S
C75 O76 1.273 . S
O76 C75 1.273 . S
O77 Zn68 1.977 . S
O77 C70 1.267 . S
C78 O79 1.160 . S
C78 O85 1.185 . S
O79 C78 1.160 . S
O80 Zn81 1.899 . S
O80 C88 1.284 . S
Zn81 O80 1.899 . S
Zn81 O82 2.032 . S
Zn81 O85 2.086 . S
Zn81 O90 1.977 . S
O82 Zn81 2.032 . S
O82 C86 1.278 . S
C83 O84 1.203 . S
C83 O90 1.267 . S
O84 C83 1.203 . S
O85 C78 1.185 . S
O85 Zn81 2.086 . S
C86 O82 1.278 . S
C86 O87 1.211 . S
O87 C86 1.211 . S
C88 O80 1.284 . S
C88 O89 1.273 . S
O89 C88 1.273 . S
O90 Zn81 1.977 . S
O90 C83 1.267 . S
C91 O92 1.160 . S
C91 O98 1.185 . S
O92 C91 1.160 . S
O93 Zn94 1.899 . S
O93 C101 1.284 . S
Zn94 O93 1.899 . S
Zn94 O95 2.032 . S
Zn94 O98 2.086 . S
Zn94 O103 1.977 . S
O95 Zn94 2.032 . S
O95 C99 1.278 . S
C96 O97 1.203 . S
C96 O103 1.267 . S
O97 C96 1.203 . S
O98 C91 1.185 . S
O98 Zn94 2.086 . S
C99 O95 1.278 . S
C99 O100 1.211 . S
O100 C99 1.211 . S
C101 O93 1.284 . S
C101 O102 1.273 . S
O102 C101 1.273 . S
O103 Zn94 1.977 . S
O103 C96 1.267 . S
C104 O105 1.160 . S
C104 O111 1.185 1_556 S
O105 C104 1.160 . S
O106 Zn107 1.899 1_556 S
O106 C114 1.284 . S
Zn107 O106 1.899 1_554 S
Zn107 O108 2.032 . S
Zn107 O111 2.086 . S
Zn107 O116 1.977 . S
O108 Zn107 2.032 . S
O108 C112 1.278 . S
C109 O110 1.203 . S
C109 O116 1.267 . S
O110 C109 1.203 . S
O111 C104 1.185 1_554 S
O111 Zn107 2.086 . S
C112 O108 1.278 . S
C112 O113 1.211 . S
O113 C112 1.211 . S
C114 O106 1.284 . S
C114 O115 1.273 1_556 S
O115 C114 1.273 1_554 S
O116 Zn107 1.977 . S
O116 C109 1.267 . S
C117 O118 1.160 . S
C117 O124 1.185 . S
O118 C117 1.160 . S
O119 Zn120 1.899 . S
O119 C127 1.284 . S
Zn120 O119 1.899 . S
Zn120 O121 2.032 . S
Zn120 O124 2.086 . S
Zn120 O129 1.977 . S
O121 Zn120 2.032 . S
O121 C125 1.278 . S
C122 O123 1.203 . S
C122 O129 1.267 . S
O123 C122 1.203 . S
O124 C117 1.185 . S
O124 Zn120 2.086 . S
C125 O121 1.278 . S
C125 O126 1.211 . S
O126 C125 1.211 . S
C127 O119 1.284 . S
C127 O128 1.273 . S
O128 C127 1.273 . S
O129 Zn120 1.977 . S
O129 C122 1.267 . S
C130 O131 1.160 . S
C130 O137 1.185 . S
O131 C130 1.160 . S
O132 Zn133 1.899 . S
O132 C140 1.284 . S
Zn133 O132 1.899 . S
Zn133 O134 2.032 . S
Zn133 O137 2.086 . S
Zn133 O142 1.977 . S
O134 Zn133 2.032 . S
O134 C138 1.278 . S
C135 O136 1.203 . S
C135 O142 1.267 . S
O136 C135 1.203 . S
O137 C130 1.185 . S
O137 Zn133 2.086 . S
C138 O134 1.278 . S
C138 O139 1.211 . S
O139 C138 1.211 . S
C140 O132 1.284 . S
C140 O141 1.273 . S
O141 C140 1.273 . S
O142 Zn133 1.977 . S
O142 C135 1.267 . S
C143 O144 1.160 . S
C143 O150 1.185 . S
O144 C143 1.160 . S
O145 Zn146 1.899 . S
O145 C153 1.284 . S
Zn146 O145 1.899 . S
Zn146 O147 2.032 . S
Zn146 O150 2.086 . S
Zn146 O155 1.977 . S
O147 Zn146 2.032 . S
O147 C151 1.278 . S
C148 O149 1.203 . S
C148 O155 1.267 . S
O149 C148 1.203 . S
O150 C143 1.185 . S
O150 Zn146 2.086 . S
C151 O147 1.278 . S
C151 O152 1.211 . S
O152 C151 1.211 . S
C153 O145 1.284 . S
C153 O154 1.273 . S
O154 C153 1.273 . S
O155 Zn146 1.977 . S
O155 C148 1.267 . S
C156 O157 1.160 . S
C156 O163 1.185 . S
O157 C156 1.160 . S
O158 Zn159 1.899 . S
O158 C166 1.284 . S
Zn159 O158 1.899 . S
Zn159 O160 2.032 . S
Zn159 O163 2.086 . S
Zn159 O168 1.977 . S
O160 Zn159 2.032 . S
O160 C164 1.278 . S
C161 O162 1.203 . S
C161 O168 1.267 . S
O162 C161 1.203 . S
O163 C156 1.185 . S
O163 Zn159 2.086 . S
C164 O160 1.278 . S
C164 O165 1.211 . S
O165 C164 1.211 . S
C166 O158 1.284 . S
C166 O167 1.273 . S
O167 C166 1.273 . S
O168 Zn159 1.977 . S
O168 C161 1.267 . S
C169 O170 1.160 . S
C169 O176 1.185 . S
O170 C169 1.160 . S
O171 Zn172 1.899 . S
O171 C179 1.284 . S
Zn172 O171 1.899 . S
Zn172 O173 2.032 . S
Zn172 O176 2.086 . S
Zn172 O181 1.977 . S
O173 Zn172 2.032 . S
O173 C177 1.278 . S
C174 O175 1.203 . S
C174 O181 1.267 . S
O175 C174 1.203 . S
O176 C169 1.185 . S
O176 Zn172 2.086 . S
C177 O173 1.278 . S
C177 O178 1.211 . S
O178 C177 1.211 . S
C179 O171 1.284 . S
C179 O180 1.273 . S
O180 C179 1.273 . S
O181 Zn172 1.977 . S
O181 C174 1.267 . S
C182 O183 1.160 . S
C182 O189 1.185 . S
O183 C182 1.160 . S
O184 Zn185 1.899 . S
O184 C192 1.284 . S
Zn185 O184 1.899 . S
Zn185 O186 2.032 . S
Zn185 O189 2.086 . S
Zn185 O194 1.977 . S
O186 Zn185 2.032 . S
O186 C190 1.278 . S
C187 O188 1.203 . S
C187 O194 1.267 . S
O188 C187 1.203 . S
O189 C182 1.185 . S
O189 Zn185 2.086 . S
C190 O186 1.278 . S
C190 O191 1.211 . S
O191 C190 1.211 . S
C192 O184 1.284 . S
C192 O193 1.273 . S
O193 C192 1.273 . S
O194 Zn185 1.977 . S
O194 C187 1.267 . S
C195 O196 1.160 . S
C195 O202 1.185 1_554 S
O196 C195 1.160 . S
O197 Zn198 1.899 1_554 S
O197 C205 1.284 . S
Zn198 O197 1.899 1_556 S
Zn198 O199 2.032 . S
Zn198 O202 2.086 . S
Zn198 O207 1.977 . S
O199 Zn198 2.032 . S
O199 C203 1.278 . S
C200 O201 1.203 . S
C200 O207 1.267 . S
O201 C200 1.203 . S
O202 C195 1.185 1_556 S
O202 Zn198 2.086 . S
C203 O199 1.278 . S
C203 O204 1.211 . S
O204 C203 1.211 . S
C205 O197 1.284 . S
C205 O206 1.273 1_554 S
O206 C205 1.273 1_556 S
O207 Zn198 1.977 . S
O207 C200 1.267 . S
C208 O209 1.160 . S
C208 O215 1.185 1_556 S
O209 C208 1.160 . S
O210 Zn211 1.899 1_556 S
O210 C218 1.284 . S
Zn211 O210 1.899 1_554 S
Zn211 O212 2.032 . S
Zn211 O215 2.086 . S
Zn211 O220 1.977 . S
O212 Zn211 2.032 . S
O212 C216 1.278 . S
C213 O214 1.203 . S
C213 O220 1.267 . S
O214 C213 1.203 . S
O215 C208 1.185 1_554 S
O215 Zn211 2.086 . S
C216 O212 1.278 . S
C216 O217 1.211 . S
O217 C216 1.211 . S
C218 O210 1.284 . S
C218 O219 1.273 1_556 S
O219 C218 1.273 1_554 S
O220 Zn211 1.977 . S
O220 C213 1.267 . S
C221 O222 1.160 . S
C221 O228 1.185 . S
O222 C221 1.160 . S
O223 Zn224 1.899 . S
O223 C231 1.284 . S
Zn224 O223 1.899 . S
Zn224 O225 2.032 . S
Zn224 O228 2.086 . S
Zn224 O233 1.977 . S
O225 Zn224 2.032 . S
O225 C229 1.278 . S
C226 O227 1.203 . S
C226 O233 1.267 . S
O227 C226 1.203 . S
O228 C221 1.185 . S
O228 Zn224 2.086 . S
C229 O225 1.278 . S
C229 O230 1.211 . S
O230 C229 1.211 . S
C231 O223 1.284 . S
C231 O232 1.273 . S
O232 C231 1.273 . S
O233 Zn224 1.977 . S
O233 C226 1.267 . S
C234 O235 1.160 1_554 S
C234 O241 1.185 . S
O235 C234 1.160 1_556 S
O236 Zn237 1.899 . S
O236 C244 1.284 . S
Zn237 O236 1.899 . S
Zn237 O238 2.032 . S
Zn237 O241 2.086 . S
Zn237 O246 1.977 . S
O238 Zn237 2.032 . S
O238 C242 1.278 . S
C239 O240 1.203 . S
C239 O246 1.267 . S
O240 C239 1.203 . S
O241 C234 1.185 . S
O241 Zn237 2.086 . S
C242 O238 1.278 . S
C242 O243 1.211 . S
O243 C242 1.211 . S
C244 O236 1.284 . S
C244 O245 1.273 . S
O245 C244 1.273 . S
O246 Zn237 1.977 . S
O246 C239 1.267 . S
C247 O248 1.160 . S
C247 O254 1.185 . S
O248 C247 1.160 . S
O249 Zn250 1.899 . S
O249 C257 1.284 . S
Zn250 O249 1.899 . S
Zn250 O251 2.032 . S
Zn250 O254 2.086 . S
Zn250 O259 1.977 . S
O251 Zn250 2.032 . S
O251 C255 1.278 . S
C252 O253 1.203 . S
C252 O259 1.267 . S
O253 C252 1.203 . S
O254 C247 1.185 . S
O254 Zn250 2.086 . S
C255 O251 1.278 . S
C255 O256 1.211 . S
O256 C255 1.211 . S
C257 O249 1.284 . S
C257 O258 1.273 . S
O258 C257 1.273 . S
O259 Zn250 1.977 . S
O259 C252 1.267 . S
C260 O261 1.160 . S
C260 O267 1.185 . S
O261 C260 1.160 . S
O262 Zn263 1.899 . S
O262 C270 1.284 . S
Zn263 O262 1.899 . S
Zn263 O264 2.032 . S
Zn263 O267 2.086 . S
Zn263 O272 1.977 . S
O264 Zn263 2.032 . S
O264 C268 1.278 . S
C265 O266 1.203 . S
C265 O272 1.267 . S
O266 C265 1.203 . S
O267 C260 1.185 . S
O267 Zn263 2.086 . S
C268 O264 1.278 . S
C268 O269 1.211 . S
O269 C268 1.211 . S
C270 O262 1.284 . S
C270 O271 1.273 . S
O271 C270 1.273 . S
O272 Zn263 1.977 . S
O272 C265 1.267 . S
C273 O274 1.160 . S
C273 O280 1.185 . S
O274 C273 1.160 . S
O275 Zn276 1.899 . S
O275 C283 1.284 . S
Zn276 O275 1.899 . S
Zn276 O277 2.032 . S
Zn276 O280 2.086 . S
Zn276 O285 1.977 . S
O277 Zn276 2.032 . S
O277 C281 1.278 . S
C278 O279 1.203 . S
C278 O285 1.267 . S
O279 C278 1.203 . S
O280 C273 1.185 . S
O280 Zn276 2.086 . S
C281 O277 1.278 . S
C281 O282 1.211 . S
O282 C281 1.211 . S
C283 O275 1.284 . S
C283 O284 1.273 . S
O284 C283 1.273 . S
O285 Zn276 1.977 . S
O285 C278 1.267 . S
C286 O287 1.160 . S
C286 O293 1.185 1_554 S
O287 C286 1.160 . S
O288 Zn289 1.899 1_554 S
O288 C296 1.284 . S
Zn289 O288 1.899 1_556 S
Zn289 O290 2.032 . S
Zn289 O293 2.086 . S
Zn289 O298 1.977 . S
O290 Zn289 2.032 . S
O290 C294 1.278 . S
C291 O292 1.203 . S
C291 O298 1.267 . S
O292 C291 1.203 . S
O293 C286 1.185 1_556 S
O293 Zn289 2.086 . S
C294 O290 1.278 . S
C294 O295 1.211 . S
O295 C294 1.211 . S
C296 O288 1.284 . S
C296 O297 1.273 1_554 S
O297 C296 1.273 1_556 S
O298 Zn289 1.977 . S
O298 C291 1.267 . S
C299 O300 1.160 . S
C299 O306 1.185 . S
O300 C299 1.160 . S
O301 Zn302 1.899 . S
O301 C309 1.284 . S
Zn302 O301 1.899 . S
Zn302 O303 2.032 . S
Zn302 O306 2.086 . S
Zn302 O311 1.977 . S
O303 Zn302 2.032 . S
O303 C307 1.278 . S
C304 O305 1.203 . S
C304 O311 1.267 . S
O305 C304 1.203 . S
O306 C299 1.185 . S
O306 Zn302 2.086 . S
C307 O303 1.278 . S
C307 O308 1.211 . S
O308 C307 1.211 . S
C309 O301 1.284 . S
C309 O310 1.273 . S
O310 C309 1.273 . S
O311 Zn302 1.977 . S
O311 C304 1.267 . S
C312 O313 1.160 . S
C312 O319 1.185 . S
O313 C312 1.160 . S
O314 Zn315 1.899 . S
O314 C322 1.284 . S
Zn315 O314 1.899 . S
Zn315 O316 2.032 . S
Zn315 O319 2.086 . S
Zn315 O324 1.977 . S
O316 Zn315 2.032 . S
O316 C320 1.278 . S
C317 O318 1.203 . S
C317 O324 1.267 . S
O318 C317 1.203 . S
O319 C312 1.185 . S
O319 Zn315 2.086 . S
C320 O316 1.278 . S
C320 O321 1.211 . S
O321 C320 1.211 . S
C322 O314 1.284 . S
C322 O323 1.273 . S
O323 C322 1.273 . S
O324 Zn315 1.977 . S
O324 C317 1.267 . S
C325 O326 1.160 . S
C325 O332 1.185 . S
O326 C325 1.160 . S
O327 Zn328 1.899 . S
O327 C335 1.284 . S
Zn328 O327 1.899 . S
Zn328 O329 2.032 . S
Zn328 O332 2.086 . S
Zn328 O337 1.977 . S
O329 Zn328 2.032 . S
O329 C333 1.278 . S
C330 O331 1.203 . S
C330 O337 1.267 . S
O331 C330 1.203 . S
O332 C325 1.185 . S
O332 Zn328 2.086 . S
C333 O329 1.278 . S
C333 O334 1.211 . S
O334 C333 1.211 . S
C335 O327 1.284 . S
C335 O336 1.273 . S
O336 C335 1.273 . S
O337 Zn328 1.977 . S
O337 C330 1.267 . S
C338 O339 1.160 . S
C338 O345 1.185 . S
O339 C338 1.160 . S
O340 Zn341 1.899 . S
O340 C348 1.284 . S
Zn341 O340 1.899 . S
Zn341 O342 2.032 . S
Zn341 O345 2.086 . S
Zn341 O350 1.977 . S
O342 Zn341 2.032 . S
O342 C346 1.278 . S
C343 O344 1.203 . S
C343 O350 1.267 . S
O344 C343 1.203 . S
O345 C338 1.185 . S
O345 Zn341 2.086 . S
C346 O342 1.278 . S
C346 O347 1.211 . S
O347 C346 1.211 . S
C348 O340 1.284 . S
C348 O349 1.273 . S
O349 C348 1.273 . S
O350 Zn341 1.977 . S
O350 C343 1.267 . S
C351 O352 1.160 . S
C351 O358 1.185 . S
O352 C351 1.160 . S
O353 Zn354 1.899 . S
O353 C361 1.284 . S
Zn354 O353 1.899 . S
Zn354 O355 2.032 . S
Zn354 O358 2.086 . S
Zn354 O363 1.977 . S
O355 Zn354 2.032 . S
O355 C359 1.278 . S
C356 O357 1.203 . S
C356 O363 1.267 . S
O357 C356 1.203 . S
O358 C351 1.185 . S
O358 Zn354 2.086 . S
C359 O355 1.278 . S
C359 O360 1.211 . S
O360 C359 1.211 . S
C361 O353 1.284 . S
C361 O362 1.273 . S
O362 C361 1.273 . S
O363 Zn354 1.977 . S
O363 C356 1.267 . S
C364 O365 1.160 . S
C364 O371 1.185 . S
O365 C364 1.160 . S
O366 Zn367 1.899 . S
O366 C374 1.284 . S
Zn367 O366 1.899 . S
Zn367 O368 2.032 . S
Zn367 O371 2.086 . S
Zn367 O376 1.977 . S
O368 Zn367 2.032 . S
O368 C372 1.278 . S
C369 O370 1.203 . S
C369 O376 1.267 . S
O370 C369 1.203 . S
O371 C364 1.185 . S
O371 Zn367 2.086 . S
C372 O368 1.278 . S
C372 O373 1.211 . S
O373 C372 1.211 . S
C374 O366 1.284 . S
C374 O375 1.273 . S
O375 C374 1.273 . S
O376 Zn367 1.977 . S
O376 C369 1.267 . S
C377 O378 1.160 . S
C377 O384 1.185 . S
O378 C377 1.160 . S
O379 Zn380 1.899 . S
O379 C387 1.284 . S
Zn380 O379 1.899 . S
Zn380 O381 2.032 . S
Zn380 O384 2.086 . S
Zn380 O389 1.977 . S
O381 Zn380 2.032 . S
O381 C385 1.278 . S
C382 O383 1.203 . S
C382 O389 1.267 . S
O383 C382 1.203 . S
O384 C377 1.185 . S
O384 Zn380 2.086 . S
C385 O381 1.278 . S
C385 O386 1.211 . S
O386 C385 1.211 . S
C387 O379 1.284 . S
C387 O388 1.273 . S
O388 C387 1.273 . S
O389 Zn380 1.977 . S
O389 C382 1.267 . S
C390 O391 1.160 . S
C390 O397 1.185 . S
O391 C390 1.160 . S
O392 Zn393 1.899 . S
O392 C400 1.284 . S
Zn393 O392 1.899 . S
Zn393 O394 2.032 . S
Zn393 O397 2.086 . S
Zn393 O402 1.977 . S
O394 Zn393 2.032 . S
O394 C398 1.278 . S
C395 O396 1.203 . S
C395 O402 1.267 . S
O396 C395 1.203 . S
O397 C390 1.185 . S
O397 Zn393 2.086 . S
C398 O394 1.278 . S
C398 O399 1.211 . S
O399 C398 1.211 . S
C400 O392 1.284 . S
C400 O401 1.273 . S
O401 C400 1.273 . S
O402 Zn393 1.977 . S
O402 C395 1.267 . S
C403 O404 1.160 . S
C403 O410 1.185 . S
O404 C403 1.160 . S
O405 Zn406 1.899 . S
O405 C413 1.284 . S
Zn406 O405 1.899 . S
Zn406 O407 2.032 . S
Zn406 O410 2.086 . S
Zn406 O415 1.977 . S
O407 Zn406 2.032 . S
O407 C411 1.278 . S
C408 O409 1.203 . S
C408 O415 1.267 . S
O409 C408 1.203 . S
O410 C403 1.185 . S
O410 Zn406 2.086 . S
C411 O407 1.278 . S
C411 O412 1.211 . S
O412 C411 1.211 . S
C413 O405 1.284 . S
C413 O414 1.273 . S
O414 C413 1.273 . S
O415 Zn406 1.977 . S
O415 C408 1.267 . S
H416 C422 0.930 . S
H417 C425 0.930 . S
H418 C426 0.930 1_655 S
H419 C427 0.930 1_545 S
H420 C430 0.930 . S
H421 C431 0.930 . S
C422 H416 0.930 . S
C422 C423 1.357 1_455 S
C422 C424 1.415 . S
C423 C422 1.357 1_655 S
C423 C425 1.418 . S
C424 C422 1.415 . S
C424 C429 1.425 . S
C424 C431 1.409 . S
C425 H417 0.930 . S
C425 C423 1.418 . S
C425 C426 1.362 1_655 S
C426 H418 0.930 1_455 S
C426 C425 1.362 1_455 S
C426 C429 1.409 . S
C427 H419 0.930 1_565 S
C427 C428 1.355 . S
C427 C429 1.415 . S
C428 C427 1.355 . S
C428 C430 1.419 . S
C429 C424 1.425 . S
C429 C426 1.409 . S
C429 C427 1.415 . S
C430 H420 0.930 . S
C430 C428 1.419 . S
C430 C431 1.362 . S
C431 H421 0.930 . S
C431 C424 1.409 . S
C431 C430 1.362 . S
H432 C438 0.930 . S
H433 C441 0.930 . S
H434 C442 0.930 . S
H435 C443 0.930 1_455 S
H436 C446 0.930 . S
H437 C447 0.930 . S
C438 H432 0.930 . S
C438 C439 1.355 . S
C438 C440 1.415 . S
C439 C438 1.355 . S
C439 C441 1.419 . S
C440 C438 1.415 . S
C440 C445 1.425 . S
C440 C447 1.409 . S
C441 H433 0.930 . S
C441 C439 1.419 . S
C441 C442 1.362 . S
C442 H434 0.930 . S
C442 C441 1.362 . S
C442 C445 1.409 . S
C443 H435 0.930 1_655 S
C443 C444 1.355 1_655 S
C443 C445 1.415 . S
C444 C443 1.355 1_455 S
C444 C446 1.419 1_455 S
C445 C440 1.425 . S
C445 C442 1.409 . S
C445 C443 1.415 . S
C446 H436 0.930 . S
C446 C444 1.419 1_655 S
C446 C447 1.362 . S
C447 H437 0.930 . S
C447 C440 1.409 . S
C447 C446 1.362 . S
H448 C454 0.930 . S
H449 C457 0.930 . S
H450 C458 0.930 . S
H451 C459 0.930 . S
H452 C462 0.930 . S
H453 C463 0.930 . S
C454 H448 0.930 . S
C454 C455 1.355 . S
C454 C456 1.415 . S
C455 C454 1.355 . S
C455 C457 1.419 . S
C456 C454 1.415 . S
C456 C461 1.436 . S
C456 C463 1.409 . S
C457 H449 0.930 . S
C457 C455 1.419 . S
C457 C458 1.362 1_556 S
C458 H450 0.930 . S
C458 C457 1.362 1_554 S
C458 C461 1.408 1_554 S
C459 H451 0.930 . S
C459 C460 1.355 . S
C459 C461 1.406 1_554 S
C460 C459 1.355 . S
C460 C462 1.419 1_554 S
C461 C456 1.436 . S
C461 C458 1.408 1_556 S
C461 C459 1.406 1_556 S
C462 H452 0.930 . S
C462 C460 1.419 1_556 S
C462 C463 1.362 . S
C463 H453 0.930 . S
C463 C456 1.409 . S
C463 C462 1.362 . S
H464 C470 0.930 . S
H465 C473 0.930 . S
H466 C474 0.930 . S
H467 C475 0.930 1_565 S
H468 C478 0.930 . S
H469 C479 0.930 . S
C470 H464 0.930 . S
C470 C471 1.355 . S
C470 C472 1.415 . S
C471 C470 1.355 . S
C471 C473 1.419 . S
C472 C470 1.415 . S
C472 C477 1.425 . S
C472 C479 1.409 . S
C473 H465 0.930 . S
C473 C471 1.419 . S
C473 C474 1.362 . S
C474 H466 0.930 . S
C474 C473 1.362 . S
C474 C477 1.409 . S
C475 H467 0.930 1_545 S
C475 C476 1.355 . S
C475 C477 1.415 . S
C476 C475 1.355 . S
C476 C478 1.419 . S
C477 C472 1.425 . S
C477 C474 1.409 . S
C477 C475 1.415 . S
C478 H468 0.930 . S
C478 C476 1.419 . S
C478 C479 1.362 . S
C479 H469 0.930 . S
C479 C472 1.409 . S
C479 C478 1.362 . S
H480 C486 0.930 1_545 S
H481 C489 0.930 . S
H482 C490 0.930 . S
H483 C491 0.930 . S
H484 C494 0.930 . S
H485 C495 0.930 . S
C486 H480 0.930 1_565 S
C486 C487 1.355 . S
C486 C488 1.415 . S
C487 C486 1.355 . S
C487 C489 1.419 . S
C488 C486 1.415 . S
C488 C493 1.425 1_556 S
C488 C495 1.409 . S
C489 H481 0.930 . S
C489 C487 1.419 . S
C489 C490 1.362 1_556 S
C490 H482 0.930 . S
C490 C489 1.362 1_554 S
C490 C493 1.409 . S
C491 H483 0.930 . S
C491 C492 1.355 . S
C491 C493 1.415 . S
C492 C491 1.355 . S
C492 C494 1.419 . S
C493 C488 1.425 1_554 S
C493 C490 1.409 . S
C493 C491 1.415 . S
C494 H484 0.930 . S
C494 C492 1.419 . S
C494 C495 1.362 1_554 S
C495 H485 0.930 . S
C495 C488 1.409 . S
C495 C494 1.362 1_556 S
H496 C502 0.930 . S
H497 C505 0.930 . S
H498 C506 0.930 . S
H499 C507 0.930 1_455 S
H500 C510 0.948 . S
H501 C511 0.930 . S
C502 H496 0.930 . S
C502 C503 1.355 . S
C502 C504 1.415 . S
C503 C502 1.355 . S
C503 C505 1.419 . S
C504 C502 1.415 . S
C504 C509 1.425 . S
C504 C511 1.409 . S
C505 H497 0.930 . S
C505 C503 1.419 . S
C505 C506 1.362 . S
C506 H498 0.930 . S
C506 C505 1.362 . S
C506 C509 1.409 . S
C507 H499 0.930 1_655 S
C507 C508 1.355 1_655 S
C507 C509 1.415 . S
C508 C507 1.355 1_455 S
C508 C510 1.419 1_455 S
C509 C504 1.425 . S
C509 C506 1.409 . S
C509 C507 1.415 . S
C510 H500 0.948 . S
C510 C508 1.419 1_655 S
C510 C511 1.362 . S
C511 H501 0.930 . S
C511 C504 1.409 . S
C511 C510 1.362 . S
H512 C518 0.930 . S
H513 C521 0.930 . S
H514 C522 0.930 . S
H515 C523 0.930 . S
H516 C526 0.930 . S
H517 C527 0.930 . S
C518 H512 0.930 . S
C518 C519 1.355 . S
C518 C520 1.415 . S
C519 C518 1.355 . S
C519 C521 1.419 . S
C520 C518 1.415 . S
C520 C525 1.425 . S
C520 C527 1.409 . S
C521 H513 0.930 . S
C521 C519 1.419 . S
C521 C522 1.362 . S
C522 H514 0.930 . S
C522 C521 1.362 . S
C522 C525 1.409 . S
C523 H515 0.930 . S
C523 C524 1.355 . S
C523 C525 1.415 . S
C524 C523 1.355 . S
C524 C526 1.419 . S
C525 C520 1.425 . S
C525 C522 1.409 . S
C525 C523 1.415 . S
C526 H516 0.930 . S
C526 C524 1.419 . S
C526 C527 1.362 . S
C527 H517 0.930 . S
C527 C520 1.409 . S
C527 C526 1.362 . S
H528 C534 0.930 . S
H529 C537 0.930 . S
H530 C538 0.930 . S
H531 C539 0.930 . S
H532 C542 0.930 . S
H533 C543 0.930 . S
C534 H528 0.930 . S
C534 C535 1.355 . S
C534 C536 1.415 . S
C535 C534 1.355 . S
C535 C537 1.419 . S
C536 C534 1.415 . S
C536 C541 1.425 . S
C536 C543 1.409 . S
C537 H529 0.930 . S
C537 C535 1.419 . S
C537 C538 1.362 . S
C538 H530 0.930 . S
C538 C537 1.362 . S
C538 C541 1.409 . S
C539 H531 0.930 . S
C539 C540 1.355 . S
C539 C541 1.415 . S
C540 C539 1.355 . S
C540 C542 1.419 . S
C541 C536 1.425 . S
C541 C538 1.409 . S
C541 C539 1.415 . S
C542 H532 0.930 . S
C542 C540 1.419 . S
C542 C543 1.362 . S
C543 H533 0.930 . S
C543 C536 1.409 . S
C543 C542 1.362 . S
H544 C550 0.930 . S
H545 C553 0.930 . S
H546 C554 0.930 . S
H547 C555 0.930 . S
H548 C558 0.930 . S
H549 C559 0.930 . S
C550 H544 0.930 . S
C550 C551 1.355 . S
C550 C552 1.415 . S
C551 C550 1.355 . S
C551 C553 1.419 . S
C552 C550 1.415 . S
C552 C557 1.425 . S
C552 C559 1.409 . S
C553 H545 0.930 . S
C553 C551 1.419 . S
C553 C554 1.362 . S
C554 H546 0.930 . S
C554 C553 1.362 . S
C554 C557 1.409 . S
C555 H547 0.930 . S
C555 C556 1.355 . S
C555 C557 1.415 . S
C556 C555 1.355 . S
C556 C558 1.419 . S
C557 C552 1.425 . S
C557 C554 1.409 . S
C557 C555 1.415 . S
C558 H548 0.930 . S
C558 C556 1.419 . S
C558 C559 1.362 . S
C559 H549 0.930 . S
C559 C552 1.409 . S
C559 C558 1.362 . S
H560 C566 0.930 . S
H561 C569 0.930 . S
H562 C570 0.930 . S
H563 C571 0.930 . S
H564 C574 0.930 . S
H565 C575 0.930 . S
C566 H560 0.930 . S
C566 C567 1.355 . S
C566 C568 1.415 . S
C567 C566 1.355 . S
C567 C569 1.419 . S
C568 C566 1.415 . S
C568 C573 1.425 . S
C568 C575 1.409 . S
C569 H561 0.930 . S
C569 C567 1.419 . S
C569 C570 1.362 . S
C570 H562 0.930 . S
C570 C569 1.362 . S
C570 C573 1.409 . S
C571 H563 0.930 . S
C571 C572 1.355 . S
C571 C573 1.415 . S
C572 C571 1.355 . S
C572 C574 1.419 . S
C573 C568 1.425 . S
C573 C570 1.409 . S
C573 C571 1.415 . S
C574 H564 0.930 . S
C574 C572 1.419 . S
C574 C575 1.362 . S
C575 H565 0.930 . S
C575 C568 1.409 . S
C575 C574 1.362 . S
H576 C582 0.930 . S
H577 C585 0.930 . S
H578 C586 0.930 . S
H579 C587 0.930 1_565 S
H580 C590 0.930 . S
H581 C591 0.930 . S
C582 H576 0.930 . S
C582 C583 1.355 . S
C582 C584 1.415 . S
C583 C582 1.355 . S
C583 C585 1.419 . S
C584 C582 1.415 . S
C584 C589 1.425 . S
C584 C591 1.409 . S
C585 H577 0.930 . S
C585 C583 1.419 . S
C585 C586 1.362 . S
C586 H578 0.930 . S
C586 C585 1.362 . S
C586 C589 1.409 . S
C587 H579 0.930 1_545 S
C587 C588 1.355 . S
C587 C589 1.415 . S
C588 C587 1.355 . S
C588 C590 1.419 . S
C589 C584 1.425 . S
C589 C586 1.409 . S
C589 C587 1.415 . S
C590 H580 0.930 . S
C590 C588 1.419 . S
C590 C591 1.362 . S
C591 H581 0.930 . S
C591 C584 1.409 . S
C591 C590 1.362 . S
H592 C598 0.930 . S
H593 C601 0.930 . S
H594 C602 0.933 . S
H595 C603 0.930 . S
H596 C606 0.930 . S
H597 C607 0.930 . S
C598 H592 0.930 . S
C598 C599 1.348 1_455 S
C598 C600 1.415 . S
C599 C598 1.348 1_655 S
C599 C601 1.421 1_554 S
C600 C598 1.415 . S
C600 C605 1.425 1_554 S
C600 C607 1.409 . S
C601 H593 0.930 . S
C601 C599 1.421 1_556 S
C601 C602 1.362 1_655 S
C602 H594 0.933 . S
C602 C601 1.362 1_455 S
C602 C605 1.409 . S
C603 H595 0.930 . S
C603 C604 1.355 . S
C603 C605 1.415 . S
C604 C603 1.355 . S
C604 C606 1.419 1_556 S
C605 C600 1.425 1_556 S
C605 C602 1.409 . S
C605 C603 1.415 . S
C606 H596 0.930 . S
C606 C604 1.419 1_554 S
C606 C607 1.362 . S
C607 H597 0.930 . S
C607 C600 1.409 . S
C607 C606 1.362 . S
H608 C614 0.930 . S
H609 C617 0.930 . S
H610 C618 0.930 . S
H611 C619 0.930 . S
H612 C622 0.930 . S
H613 C623 0.930 . S
C614 H608 0.930 . S
C614 C615 1.355 . S
C614 C616 1.415 . S
C615 C614 1.355 . S
C615 C617 1.419 . S
C616 C614 1.415 . S
C616 C621 1.425 . S
C616 C623 1.409 . S
C617 H609 0.930 . S
C617 C615 1.419 . S
C617 C618 1.362 . S
C618 H610 0.930 . S
C618 C617 1.362 . S
C618 C621 1.409 . S
C619 H611 0.930 . S
C619 C620 1.355 . S
C619 C621 1.415 . S
C620 C619 1.355 . S
C620 C622 1.419 . S
C621 C616 1.425 . S
C621 C618 1.409 . S
C621 C619 1.415 . S
C622 H612 0.930 . S
C622 C620 1.419 . S
C622 C623 1.362 . S
C623 H613 0.930 . S
C623 C616 1.409 . S
C623 C622 1.362 . S
H624 C630 0.930 . S
H625 C633 0.930 . S
H626 C634 0.930 . S
H627 C635 0.930 1_554 S
H628 C638 0.930 . S
H629 C639 0.930 . S
C630 H624 0.930 . S
C630 C631 1.355 1_556 S
C630 C632 1.415 . S
C631 C630 1.355 1_554 S
C631 C633 1.419 . S
C632 C630 1.415 . S
C632 C637 1.414 1_556 S
C632 C639 1.409 . S
C633 H625 0.930 . S
C633 C631 1.419 . S
C633 C634 1.362 . S
C634 H626 0.930 . S
C634 C633 1.362 . S
C634 C637 1.429 . S
C635 H627 0.930 1_556 S
C635 C636 1.355 . S
C635 C637 1.407 1_556 S
C636 C635 1.355 . S
C636 C638 1.419 . S
C637 C632 1.414 1_554 S
C637 C634 1.429 . S
C637 C635 1.407 1_554 S
C638 H628 0.930 . S
C638 C636 1.419 . S
C638 C639 1.362 . S
C639 H629 0.930 . S
C639 C632 1.409 . S
C639 C638 1.362 . S
H640 C646 0.930 . S
H641 C649 0.930 . S
H642 C650 0.930 . S
H643 C651 0.930 . S
H644 C654 0.930 . S
H645 C655 0.930 . S
C646 H640 0.930 . S
C646 C647 1.355 . S
C646 C648 1.415 . S
C647 C646 1.355 . S
C647 C649 1.419 . S
C648 C646 1.415 . S
C648 C653 1.425 . S
C648 C655 1.409 . S
C649 H641 0.930 . S
C649 C647 1.419 . S
C649 C650 1.362 . S
C650 H642 0.930 . S
C650 C649 1.362 . S
C650 C653 1.409 . S
C651 H643 0.930 . S
C651 C652 1.355 . S
C651 C653 1.415 . S
C652 C651 1.355 . S
C652 C654 1.419 . S
C653 C648 1.425 . S
C653 C650 1.409 . S
C653 C651 1.415 . S
C654 H644 0.930 . S
C654 C652 1.419 . S
C654 C655 1.362 . S
C655 H645 0.930 . S
C655 C648 1.409 . S
C655 C654 1.362 . S
H656 C662 0.930 . S
H657 C665 0.930 . S
H658 C666 0.930 . S
H659 C667 0.930 . S
H660 C670 0.930 . S
H661 C671 0.930 . S
C662 H656 0.930 . S
C662 C663 1.355 . S
C662 C664 1.415 . S
C663 C662 1.355 . S
C663 C665 1.419 . S
C664 C662 1.415 . S
C664 C669 1.425 . S
C664 C671 1.409 . S
C665 H657 0.930 . S
C665 C663 1.419 . S
C665 C666 1.362 . S
C666 H658 0.930 . S
C666 C665 1.362 . S
C666 C669 1.409 . S
C667 H659 0.930 . S
C667 C668 1.355 . S
C667 C669 1.415 . S
C668 C667 1.355 . S
C668 C670 1.419 . S
C669 C664 1.425 . S
C669 C666 1.409 . S
C669 C667 1.415 . S
C670 H660 0.930 . S
C670 C668 1.419 . S
C670 C671 1.362 . S
C671 H661 0.930 . S
C671 C664 1.409 . S
C671 C670 1.362 . S
H672 C678 0.930 . S
H673 C681 0.930 . S
H674 C682 0.930 . S
H675 C683 0.930 . S
H676 C686 0.930 . S
H677 C687 0.930 . S
C678 H672 0.930 . S
C678 C679 1.355 . S
C678 C680 1.415 . S
C679 C678 1.355 . S
C679 C681 1.419 . S
C680 C678 1.415 . S
C680 C685 1.425 . S
C680 C687 1.409 . S
C681 H673 0.930 . S
C681 C679 1.419 . S
C681 C682 1.362 . S
C682 H674 0.930 . S
C682 C681 1.362 . S
C682 C685 1.409 . S
C683 H675 0.930 . S
C683 C684 1.355 . S
C683 C685 1.415 . S
C684 C683 1.355 . S
C684 C686 1.419 . S
C685 C680 1.425 . S
C685 C682 1.409 . S
C685 C683 1.415 . S
C686 H676 0.930 . S
C686 C684 1.419 . S
C686 C687 1.362 . S
C687 H677 0.930 . S
C687 C680 1.409 . S
C687 C686 1.362 . S
H688 C694 0.930 . S
H689 C697 0.930 . S
H690 C698 0.930 . S
H691 C699 0.930 . S
H692 C702 0.930 . S
H693 C703 0.930 . S
C694 H688 0.930 . S
C694 C695 1.355 . S
C694 C696 1.415 . S
C695 C694 1.355 . S
C695 C697 1.419 . S
C696 C694 1.415 . S
C696 C701 1.425 . S
C696 C703 1.409 . S
C697 H689 0.930 . S
C697 C695 1.419 . S
C697 C698 1.362 . S
C698 H690 0.930 . S
C698 C697 1.362 . S
C698 C701 1.409 . S
C699 H691 0.930 . S
C699 C700 1.355 . S
C699 C701 1.415 . S
C700 C699 1.355 . S
C700 C702 1.419 . S
C701 C696 1.425 . S
C701 C698 1.409 . S
C701 C699 1.415 . S
C702 H692 0.930 . S
C702 C700 1.419 . S
C702 C703 1.362 . S
C703 H693 0.930 . S
C703 C696 1.409 . S
C703 C702 1.362 . S
H704 C710 0.930 . S
H705 C713 0.930 1_554 S
H706 C714 0.930 . S
H707 C715 0.930 . S
H708 C718 0.930 . S
H709 C719 0.930 . S
C710 H704 0.930 . S
C710 C711 1.355 . S
C710 C712 1.415 . S
C711 C710 1.355 . S
C711 C713 1.419 . S
C712 C710 1.415 . S
C712 C717 1.425 . S
C712 C719 1.409 . S
C713 H705 0.930 1_556 S
C713 C711 1.419 . S
C713 C714 1.362 1_556 S
C714 H706 0.930 . S
C714 C713 1.362 1_554 S
C714 C717 1.409 1_554 S
C715 H707 0.930 . S
C715 C716 1.355 1_554 S
C715 C717 1.415 1_554 S
C716 C715 1.355 1_556 S
C716 C718 1.419 . S
C717 C712 1.425 . S
C717 C714 1.409 1_556 S
C717 C715 1.415 1_556 S
C718 H708 0.930 . S
C718 C716 1.419 . S
C718 C719 1.362 . S
C719 H709 0.930 . S
C719 C712 1.409 . S
C719 C718 1.362 . S
H720 C726 0.930 . S
H721 C729 0.930 . S
H722 C730 0.930 . S
H723 C731 0.930 . S
H724 C734 0.930 . S
H725 C735 0.930 . S
C726 H720 0.930 . S
C726 C727 1.355 . S
C726 C728 1.415 . S
C727 C726 1.355 . S
C727 C729 1.419 . S
C728 C726 1.415 . S
C728 C733 1.425 . S
C728 C735 1.409 . S
C729 H721 0.930 . S
C729 C727 1.419 . S
C729 C730 1.362 . S
C730 H722 0.930 . S
C730 C729 1.362 . S
C730 C733 1.409 . S
C731 H723 0.930 . S
C731 C732 1.355 . S
C731 C733 1.415 . S
C732 C731 1.355 . S
C732 C734 1.419 . S
C733 C728 1.425 . S
C733 C730 1.409 . S
C733 C731 1.415 . S
C734 H724 0.930 . S
C734 C732 1.419 . S
C734 C735 1.362 . S
C735 H725 0.930 . S
C735 C728 1.409 . S
C735 C734 1.362 . S
H736 C742 0.930 . S
H737 C745 0.930 . S
H738 C746 0.930 . S
H739 C747 0.930 . S
H740 C750 0.930 . S
H741 C751 0.930 . S
C742 H736 0.930 . S
C742 C743 1.355 . S
C742 C744 1.415 . S
C743 C742 1.355 . S
C743 C745 1.419 . S
C744 C742 1.415 . S
C744 C749 1.425 . S
C744 C751 1.409 . S
C745 H737 0.930 . S
C745 C743 1.419 . S
C745 C746 1.362 . S
C746 H738 0.930 . S
C746 C745 1.362 . S
C746 C749 1.409 . S
C747 H739 0.930 . S
C747 C748 1.355 . S
C747 C749 1.415 . S
C748 C747 1.355 . S
C748 C750 1.419 . S
C749 C744 1.425 . S
C749 C746 1.409 . S
C749 C747 1.415 . S
C750 H740 0.930 . S
C750 C748 1.419 . S
C750 C751 1.362 . S
C751 H741 0.930 . S
C751 C744 1.409 . S
C751 C750 1.362 . S
H752 C758 0.930 . S
H753 C761 0.930 . S
H754 C762 0.930 . S
H755 C763 0.930 . S
H756 C766 0.930 1_556 S
H757 C767 0.930 . S
C758 H752 0.930 . S
C758 C759 1.355 . S
C758 C760 1.414 1_556 S
C759 C758 1.355 . S
C759 C761 1.419 1_556 S
C760 C758 1.414 1_554 S
C760 C765 1.426 . S
C760 C767 1.409 1_554 S
C761 H753 0.930 . S
C761 C759 1.419 1_554 S
C761 C762 1.362 . S
C762 H754 0.930 . S
C762 C761 1.362 . S
C762 C765 1.409 . S
C763 H755 0.930 . S
C763 C764 1.355 . S
C763 C765 1.415 . S
C764 C763 1.355 . S
C764 C766 1.419 . S
C765 C760 1.426 . S
C765 C762 1.409 . S
C765 C763 1.415 . S
C766 H756 0.930 1_554 S
C766 C764 1.419 . S
C766 C767 1.362 1_554 S
C767 H757 0.930 . S
C767 C760 1.409 1_556 S
C767 C766 1.362 1_556 S
H768 C774 0.930 . S
H769 C777 0.930 . S
H770 C778 0.930 . S
H771 C779 0.930 . S
H772 C782 0.930 . S
H773 C783 0.930 . S
C774 H768 0.930 . S
C774 C775 1.355 . S
C774 C776 1.415 . S
C775 C774 1.355 . S
C775 C777 1.419 . S
C776 C774 1.415 . S
C776 C781 1.425 . S
C776 C783 1.409 . S
C777 H769 0.930 . S
C777 C775 1.419 . S
C777 C778 1.362 . S
C778 H770 0.930 . S
C778 C777 1.362 . S
C778 C781 1.409 . S
C779 H771 0.930 . S
C779 C780 1.355 . S
C779 C781 1.415 . S
C780 C779 1.355 . S
C780 C782 1.419 . S
C781 C776 1.425 . S
C781 C778 1.409 . S
C781 C779 1.415 . S
C782 H772 0.930 . S
C782 C780 1.419 . S
C782 C783 1.362 . S
C783 H773 0.930 . S
C783 C776 1.409 . S
C783 C782 1.362 . S
H784 C790 0.930 . S
H785 C793 0.930 . S
H786 C794 0.930 . S
H787 C795 0.930 . S
H788 C798 0.930 . S
H789 C799 0.930 . S
C790 H784 0.930 . S
C790 C791 1.355 . S
C790 C792 1.415 . S
C791 C790 1.355 . S
C791 C793 1.419 . S
C792 C790 1.415 . S
C792 C797 1.425 . S
C792 C799 1.409 . S
C793 H785 0.930 . S
C793 C791 1.419 . S
C793 C794 1.362 . S
C794 H786 0.930 . S
C794 C793 1.362 . S
C794 C797 1.409 . S
C795 H787 0.930 . S
C795 C796 1.355 . S
C795 C797 1.415 . S
C796 C795 1.355 . S
C796 C798 1.419 . S
C797 C792 1.425 . S
C797 C794 1.409 . S
C797 C795 1.415 . S
C798 H788 0.930 . S
C798 C796 1.419 . S
C798 C799 1.362 . S
C799 H789 0.930 . S
C799 C792 1.409 . S
C799 C798 1.362 . S
H800 C806 0.930 . S
H801 C809 0.930 . S
H802 C810 0.930 . S
H803 C811 0.930 . S
H804 C814 0.930 . S
H805 C815 0.930 . S
C806 H800 0.930 . S
C806 C807 1.355 . S
C806 C808 1.415 . S
C807 C806 1.355 . S
C807 C809 1.419 . S
C808 C806 1.415 . S
C808 C813 1.425 . S
C808 C815 1.409 . S
C809 H801 0.930 . S
C809 C807 1.419 . S
C809 C810 1.362 . S
C810 H802 0.930 . S
C810 C809 1.362 . S
C810 C813 1.409 . S
C811 H803 0.930 . S
C811 C812 1.355 . S
C811 C813 1.415 . S
C812 C811 1.355 . S
C812 C814 1.419 . S
C813 C808 1.425 . S
C813 C810 1.409 . S
C813 C811 1.415 . S
C814 H804 0.930 . S
C814 C812 1.419 . S
C814 C815 1.362 . S
C815 H805 0.930 . S
C815 C808 1.409 . S
C815 C814 1.362 . S
H816 C822 0.930 . S
H817 C825 0.930 . S
H818 C826 0.930 . S
H819 C827 0.930 . S
H820 C830 0.930 . S
H821 C831 0.930 . S
C822 H816 0.930 . S
C822 C823 1.355 . S
C822 C824 1.415 . S
C823 C822 1.355 . S
C823 C825 1.419 . S
C824 C822 1.415 . S
C824 C829 1.425 . S
C824 C831 1.409 . S
C825 H817 0.930 . S
C825 C823 1.419 . S
C825 C826 1.362 . S
C826 H818 0.930 . S
C826 C825 1.362 . S
C826 C829 1.409 . S
C827 H819 0.930 . S
C827 C828 1.355 . S
C827 C829 1.415 . S
C828 C827 1.355 . S
C828 C830 1.419 . S
C829 C824 1.425 . S
C829 C826 1.409 . S
C829 C827 1.415 . S
C830 H820 0.930 . S
C830 C828 1.419 . S
C830 C831 1.362 . S
C831 H821 0.930 . S
C831 C824 1.409 . S
C831 C830 1.362 . S
H832 C838 0.930 . S
H833 C841 0.930 . S
H834 C842 0.930 . S
H835 C843 0.930 . S
H836 C846 0.930 . S
H837 C847 0.930 . S
C838 H832 0.930 . S
C838 C839 1.355 . S
C838 C840 1.415 . S
C839 C838 1.355 . S
C839 C841 1.419 . S
C840 C838 1.415 . S
C840 C845 1.425 . S
C840 C847 1.409 . S
C841 H833 0.930 . S
C841 C839 1.419 . S
C841 C842 1.362 . S
C842 H834 0.930 . S
C842 C841 1.362 . S
C842 C845 1.409 . S
C843 H835 0.930 . S
C843 C844 1.355 . S
C843 C845 1.415 . S
C844 C843 1.355 . S
C844 C846 1.419 . S
C845 C840 1.425 . S
C845 C842 1.409 . S
C845 C843 1.415 . S
C846 H836 0.930 . S
C846 C844 1.419 . S
C846 C847 1.362 . S
C847 H837 0.930 . S
C847 C840 1.409 . S
C847 C846 1.362 . S
H848 C854 0.930 . S
H849 C857 0.930 . S
H850 C858 0.930 . S
H851 C859 0.930 . S
H852 C862 0.930 . S
H853 C863 0.930 . S
C854 H848 0.930 . S
C854 C855 1.355 . S
C854 C856 1.415 . S
C855 C854 1.355 . S
C855 C857 1.419 . S
C856 C854 1.415 . S
C856 C861 1.425 . S
C856 C863 1.409 . S
C857 H849 0.930 . S
C857 C855 1.419 . S
C857 C858 1.362 . S
C858 H850 0.930 . S
C858 C857 1.362 . S
C858 C861 1.409 . S
C859 H851 0.930 . S
C859 C860 1.355 . S
C859 C861 1.415 . S
C860 C859 1.355 . S
C860 C862 1.419 . S
C861 C856 1.425 . S
C861 C858 1.409 . S
C861 C859 1.415 . S
C862 H852 0.930 . S
C862 C860 1.419 . S
C862 C863 1.362 . S
C863 H853 0.930 . S
C863 C856 1.409 . S
C863 C862 1.362 . S
H864 C870 0.930 . S
H865 C873 0.930 . S
H866 C874 0.930 . S
H867 C875 0.930 . S
H868 C878 0.930 . S
H869 C879 0.930 . S
C870 H864 0.930 . S
C870 C871 1.355 . S
C870 C872 1.415 . S
C871 C870 1.355 . S
C871 C873 1.419 . S
C872 C870 1.415 . S
C872 C877 1.425 . S
C872 C879 1.409 . S
C873 H865 0.930 . S
C873 C871 1.419 . S
C873 C874 1.362 . S
C874 H866 0.930 . S
C874 C873 1.362 . S
C874 C877 1.409 . S
C875 H867 0.930 . S
C875 C876 1.355 . S
C875 C877 1.415 . S
C876 C875 1.355 . S
C876 C878 1.419 . S
C877 C872 1.425 . S
C877 C874 1.409 . S
C877 C875 1.415 . S
C878 H868 0.930 . S
C878 C876 1.419 . S
C878 C879 1.362 . S
C879 H869 0.930 . S
C879 C872 1.409 . S
C879 C878 1.362 . S
H880 C886 0.930 . S
H881 C889 0.930 . S
H882 C890 0.930 . S
H883 C891 0.930 . S
H884 C894 0.930 . S
H885 C895 0.930 . S
C886 H880 0.930 . S
C886 C887 1.355 . S
C886 C888 1.415 . S
C887 C886 1.355 . S
C887 C889 1.419 . S
C888 C886 1.415 . S
C888 C893 1.425 . S
C888 C895 1.409 . S
C889 H881 0.930 . S
C889 C887 1.419 . S
C889 C890 1.362 . S
C890 H882 0.930 . S
C890 C889 1.362 . S
C890 C893 1.409 . S
C891 H883 0.930 . S
C891 C892 1.355 . S
C891 C893 1.415 . S
C892 C891 1.355 . S
C892 C894 1.419 . S
C893 C888 1.425 . S
C893 C890 1.409 . S
C893 C891 1.415 . S
C894 H884 0.930 . S
C894 C892 1.419 . S
C894 C895 1.362 . S
C895 H885 0.930 . S
C895 C888 1.409 . S
C895 C894 1.362 . S
H896 C902 0.930 . S
H897 C905 0.930 . S
H898 C906 0.930 . S
H899 C907 0.930 . S
H900 C910 0.930 . S
H901 C911 0.930 . S
C902 H896 0.930 . S
C902 C903 1.355 . S
C902 C904 1.415 . S
C903 C902 1.355 . S
C903 C905 1.419 . S
C904 C902 1.415 . S
C904 C909 1.425 . S
C904 C911 1.409 . S
C905 H897 0.930 . S
C905 C903 1.419 . S
C905 C906 1.362 . S
C906 H898 0.930 . S
C906 C905 1.362 . S
C906 C909 1.409 . S
C907 H899 0.930 . S
C907 C908 1.355 . S
C907 C909 1.415 . S
C908 C907 1.355 . S
C908 C910 1.419 . S
C909 C904 1.425 . S
C909 C906 1.409 . S
C909 C907 1.415 . S
C910 H900 0.930 . S
C910 C908 1.419 . S
C910 C911 1.362 . S
C911 H901 0.930 . S
C911 C904 1.409 . S
C911 C910 1.362 . S
H912 C918 0.930 . S
H913 C921 0.930 . S
H914 C922 0.930 . S
H915 C923 0.930 . S
H916 C926 0.930 . S
H917 C927 0.930 . S
C918 H912 0.930 . S
C918 C919 1.355 . S
C918 C920 1.415 . S
C919 C918 1.355 . S
C919 C921 1.419 . S
C920 C918 1.415 . S
C920 C925 1.425 . S
C920 C927 1.409 . S
C921 H913 0.930 . S
C921 C919 1.419 . S
C921 C922 1.362 . S
C922 H914 0.930 . S
C922 C921 1.362 . S
C922 C925 1.409 . S
C923 H915 0.930 . S
C923 C924 1.355 . S
C923 C925 1.415 . S
C924 C923 1.355 . S
C924 C926 1.419 . S
C925 C920 1.425 . S
C925 C922 1.409 . S
C925 C923 1.415 . S
C926 H916 0.930 . S
C926 C924 1.419 . S
C926 C927 1.362 . S
C927 H917 0.930 . S
C927 C920 1.409 . S
C927 C926 1.362 . S
H928 C934 0.930 . S
H929 C937 0.930 . S
H930 C938 0.930 . S
H931 C939 0.930 . S
H932 C942 0.930 . S
H933 C943 0.930 . S
C934 H928 0.930 . S
C934 C935 1.355 . S
C934 C936 1.415 . S
C935 C934 1.355 . S
C935 C937 1.419 . S
C936 C934 1.415 . S
C936 C941 1.425 . S
C936 C943 1.409 . S
C937 H929 0.930 . S
C937 C935 1.419 . S
C937 C938 1.362 . S
C938 H930 0.930 . S
C938 C937 1.362 . S
C938 C941 1.409 . S
C939 H931 0.930 . S
C939 C940 1.355 . S
C939 C941 1.415 . S
C940 C939 1.355 . S
C940 C942 1.419 . S
C941 C936 1.425 . S
C941 C938 1.409 . S
C941 C939 1.415 . S
C942 H932 0.930 . S
C942 C940 1.419 . S
C942 C943 1.362 . S
C943 H933 0.930 . S
C943 C936 1.409 . S
C943 C942 1.362 . S
H944 C950 0.930 . S
H945 C953 0.930 . S
H946 C954 0.930 . S
H947 C955 0.930 . S
H948 C958 0.930 . S
H949 C959 0.930 . S
C950 H944 0.930 . S
C950 C951 1.355 . S
C950 C952 1.415 . S
C951 C950 1.355 . S
C951 C953 1.419 . S
C952 C950 1.415 . S
C952 C957 1.425 . S
C952 C959 1.409 . S
C953 H945 0.930 . S
C953 C951 1.419 . S
C953 C954 1.362 . S
C954 H946 0.930 . S
C954 C953 1.362 . S
C954 C957 1.409 . S
C955 H947 0.930 . S
C955 C956 1.355 . S
C955 C957 1.415 . S
C956 C955 1.355 . S
C956 C958 1.419 . S
C957 C952 1.425 . S
C957 C954 1.409 . S
C957 C955 1.415 . S
C958 H948 0.930 . S
C958 C956 1.419 . S
C958 C959 1.362 . S
C959 H949 0.930 . S
C959 C952 1.409 . S
C959 C958 1.362 . S
H960 C966 0.930 . S
H961 C969 0.930 . S
H962 C970 0.930 . S
H963 C971 0.930 . S
H964 C974 0.930 . S
H965 C975 0.930 . S
C966 H960 0.930 . S
C966 C967 1.355 . S
C966 C968 1.415 . S
C967 C966 1.355 . S
C967 C969 1.419 . S
C968 C966 1.415 . S
C968 C973 1.425 . S
C968 C975 1.409 . S
C969 H961 0.930 . S
C969 C967 1.419 . S
C969 C970 1.362 . S
C970 H962 0.930 . S
C970 C969 1.362 . S
C970 C973 1.409 . S
C971 H963 0.930 . S
C971 C972 1.355 . S
C971 C973 1.415 . S
C972 C971 1.355 . S
C972 C974 1.419 . S
C973 C968 1.425 . S
C973 C970 1.409 . S
C973 C971 1.415 . S
C974 H964 0.930 . S
C974 C972 1.419 . S
C974 C975 1.362 . S
C975 H965 0.930 . S
C975 C968 1.409 . S
C975 C974 1.362 . S
H976 C982 0.930 . S
H977 C985 0.930 . S
H978 C986 0.930 . S
H979 C987 0.930 . S
H980 C990 0.930 . S
H981 C991 0.930 . S
C982 H976 0.930 . S
C982 C983 1.355 . S
C982 C984 1.415 . S
C983 C982 1.355 . S
C983 C985 1.419 . S
C984 C982 1.415 . S
C984 C989 1.425 . S
C984 C991 1.409 . S
C985 H977 0.930 . S
C985 C983 1.419 . S
C985 C986 1.362 . S
C986 H978 0.930 . S
C986 C985 1.362 . S
C986 C989 1.409 . S
C987 H979 0.930 . S
C987 C988 1.355 . S
C987 C989 1.415 . S
C988 C987 1.355 . S
C988 C990 1.419 . S
C989 C984 1.425 . S
C989 C986 1.409 . S
C989 C987 1.415 . S
C990 H980 0.930 . S
C990 C988 1.419 . S
C990 C991 1.362 . S
C991 H981 0.930 . S
C991 C984 1.409 . S
C991 C990 1.362 . S
H992 C998 0.930 . S
H993 C1001 0.930 . S
H994 C1002 0.930 . S
H995 C1003 0.930 . S
H996 C1006 0.930 . S
H997 C1007 0.930 . S
C998 H992 0.930 . S
C998 C999 1.355 . S
C998 C1000 1.415 . S
C999 C998 1.355 . S
C999 C1001 1.419 1_556 S
C1000 C998 1.415 . S
C1000 C1005 1.425 1_556 S
C1000 C1007 1.409 . S
C1001 H993 0.930 . S
C1001 C999 1.419 1_554 S
C1001 C1002 1.362 . S
C1002 H994 0.930 . S
C1002 C1001 1.362 . S
C1002 C1005 1.409 . S
C1003 H995 0.930 . S
C1003 C1004 1.355 . S
C1003 C1005 1.415 . S
C1004 C1003 1.355 . S
C1004 C1006 1.419 1_554 S
C1005 C1000 1.425 1_554 S
C1005 C1002 1.409 . S
C1005 C1003 1.415 . S
C1006 H996 0.930 . S
C1006 C1004 1.419 1_556 S
C1006 C1007 1.362 . S
C1007 H997 0.930 . S
C1007 C1000 1.409 . S
C1007 C1006 1.362 . S
H1008 C1014 0.930 . S
H1009 C1017 0.930 1_554 S
H1010 C1018 0.930 . S
H1011 C1019 0.930 . S
H1012 C1022 0.930 . S
H1013 C1023 0.930 . S
C1014 H1008 0.930 . S
C1014 C1015 1.355 . S
C1014 C1016 1.415 . S
C1015 C1014 1.355 . S
C1015 C1017 1.419 . S
C1016 C1014 1.415 . S
C1016 C1021 1.425 . S
C1016 C1023 1.409 . S
C1017 H1009 0.930 1_556 S
C1017 C1015 1.419 . S
C1017 C1018 1.362 1_556 S
C1018 H1010 0.930 . S
C1018 C1017 1.362 1_554 S
C1018 C1021 1.409 1_554 S
C1019 H1011 0.930 . S
C1019 C1020 1.355 1_554 S
C1019 C1021 1.415 1_554 S
C1020 C1019 1.355 1_556 S
C1020 C1022 1.419 . S
C1021 C1016 1.425 . S
C1021 C1018 1.409 1_556 S
C1021 C1019 1.415 1_556 S
C1022 H1012 0.930 . S
C1022 C1020 1.419 . S
C1022 C1023 1.362 . S
C1023 H1013 0.930 . S
C1023 C1016 1.409 . S
C1023 C1022 1.362 . S
H1024 C1030 0.930 . S
H1025 C1033 0.930 . S
H1026 C1034 0.930 . S
H1027 C1035 0.930 . S
H1028 C1038 0.930 . S
H1029 C1039 0.930 . S
C1030 H1024 0.930 . S
C1030 C1031 1.355 . S
C1030 C1032 1.415 . S
C1031 C1030 1.355 . S
C1031 C1033 1.419 . S
C1032 C1030 1.415 . S
C1032 C1037 1.425 . S
C1032 C1039 1.409 . S
C1033 H1025 0.930 . S
C1033 C1031 1.419 . S
C1033 C1034 1.362 . S
C1034 H1026 0.930 . S
C1034 C1033 1.362 . S
C1034 C1037 1.409 . S
C1035 H1027 0.930 . S
C1035 C1036 1.355 . S
C1035 C1037 1.415 . S
C1036 C1035 1.355 . S
C1036 C1038 1.419 . S
C1037 C1032 1.425 . S
C1037 C1034 1.409 . S
C1037 C1035 1.415 . S
C1038 H1028 0.930 . S
C1038 C1036 1.419 . S
C1038 C1039 1.362 . S
C1039 H1029 0.930 . S
C1039 C1032 1.409 . S
C1039 C1038 1.362 . S
H1040 C1046 0.930 . S
H1041 C1049 0.930 . S
H1042 C1050 0.930 . S
H1043 C1051 0.930 . S
H1044 C1054 0.930 . S
H1045 C1055 0.930 . S
C1046 H1040 0.930 . S
C1046 C1047 1.355 . S
C1046 C1048 1.415 . S
C1047 C1046 1.355 . S
C1047 C1049 1.419 . S
C1048 C1046 1.415 . S
C1048 C1053 1.425 . S
C1048 C1055 1.409 . S
C1049 H1041 0.930 . S
C1049 C1047 1.419 . S
C1049 C1050 1.362 . S
C1050 H1042 0.930 . S
C1050 C1049 1.362 . S
C1050 C1053 1.409 . S
C1051 H1043 0.930 . S
C1051 C1052 1.355 . S
C1051 C1053 1.415 . S
C1052 C1051 1.355 . S
C1052 C1054 1.419 . S
C1053 C1048 1.425 . S
C1053 C1050 1.409 . S
C1053 C1051 1.415 . S
C1054 H1044 0.930 . S
C1054 C1052 1.419 . S
C1054 C1055 1.362 . S
C1055 H1045 0.930 . S
C1055 C1048 1.409 . S
C1055 C1054 1.362 . S
H1056 C1062 0.930 . S
H1057 C1065 0.930 . S
H1058 C1066 0.930 . S
H1059 C1067 0.930 . S
H1060 C1070 0.930 . S
H1061 C1071 0.930 . S
C1062 H1056 0.930 . S
C1062 C1063 1.355 . S
C1062 C1064 1.415 . S
C1063 C1062 1.355 . S
C1063 C1065 1.419 . S
C1064 C1062 1.415 . S
C1064 C1069 1.425 . S
C1064 C1071 1.409 . S
C1065 H1057 0.930 . S
C1065 C1063 1.419 . S
C1065 C1066 1.362 . S
C1066 H1058 0.930 . S
C1066 C1065 1.362 . S
C1066 C1069 1.409 . S
C1067 H1059 0.930 . S
C1067 C1068 1.355 . S
C1067 C1069 1.415 . S
C1068 C1067 1.355 . S
C1068 C1070 1.419 . S
C1069 C1064 1.425 . S
C1069 C1066 1.409 . S
C1069 C1067 1.415 . S
C1070 H1060 0.930 . S
C1070 C1068 1.419 . S
C1070 C1071 1.362 . S
C1071 H1061 0.930 . S
C1071 C1064 1.409 . S
C1071 C1070 1.362 . S
H1072 C1078 0.930 . S
H1073 C1081 0.930 . S
H1074 C1082 0.930 . S
H1075 C1083 0.930 . S
H1076 C1086 0.930 . S
H1077 C1087 0.930 . S
C1078 H1072 0.930 . S
C1078 C1079 1.355 . S
C1078 C1080 1.415 . S
C1079 C1078 1.355 . S
C1079 C1081 1.419 . S
C1080 C1078 1.415 . S
C1080 C1085 1.425 . S
C1080 C1087 1.409 . S
C1081 H1073 0.930 . S
C1081 C1079 1.419 . S
C1081 C1082 1.362 . S
C1082 H1074 0.930 . S
C1082 C1081 1.362 . S
C1082 C1085 1.409 . S
C1083 H1075 0.930 . S
C1083 C1084 1.355 . S
C1083 C1085 1.415 . S
C1084 C1083 1.355 . S
C1084 C1086 1.419 . S
C1085 C1080 1.425 . S
C1085 C1082 1.409 . S
C1085 C1083 1.415 . S
C1086 H1076 0.930 . S
C1086 C1084 1.419 . S
C1086 C1087 1.362 . S
C1087 H1077 0.930 . S
C1087 C1080 1.409 . S
C1087 C1086 1.362 . S
H1088 C1094 0.930 . S
H1089 C1097 0.930 . S
H1090 C1098 0.930 . S
H1091 C1099 0.930 . S
H1092 C1102 0.930 . S
H1093 C1103 0.930 . S
C1094 H1088 0.930 . S
C1094 C1095 1.355 . S
C1094 C1096 1.415 . S
C1095 C1094 1.355 . S
C1095 C1097 1.419 . S
C1096 C1094 1.415 . S
C1096 C1101 1.425 . S
C1096 C1103 1.409 . S
C1097 H1089 0.930 . S
C1097 C1095 1.419 . S
C1097 C1098 1.362 . S
C1098 H1090 0.930 . S
C1098 C1097 1.362 . S
C1098 C1101 1.409 . S
C1099 H1091 0.930 . S
C1099 C1100 1.355 . S
C1099 C1101 1.415 . S
C1100 C1099 1.355 . S
C1100 C1102 1.419 . S
C1101 C1096 1.425 . S
C1101 C1098 1.409 . S
C1101 C1099 1.415 . S
C1102 H1092 0.930 . S
C1102 C1100 1.419 . S
C1102 C1103 1.362 . S
C1103 H1093 0.930 . S
C1103 C1096 1.409 . S
C1103 C1102 1.362 . S
H1104 C1110 0.930 . S
H1105 C1113 0.930 . S
H1106 C1114 0.930 . S
H1107 C1115 0.930 . S
H1108 C1118 0.930 . S
H1109 C1119 0.930 . S
C1110 H1104 0.930 . S
C1110 C1111 1.355 . S
C1110 C1112 1.415 . S
C1111 C1110 1.355 . S
C1111 C1113 1.419 . S
C1112 C1110 1.415 . S
C1112 C1117 1.425 . S
C1112 C1119 1.409 . S
C1113 H1105 0.930 . S
C1113 C1111 1.419 . S
C1113 C1114 1.362 . S
C1114 H1106 0.930 . S
C1114 C1113 1.362 . S
C1114 C1117 1.409 . S
C1115 H1107 0.930 . S
C1115 C1116 1.355 . S
C1115 C1117 1.415 . S
C1116 C1115 1.355 . S
C1116 C1118 1.419 . S
C1117 C1112 1.425 . S
C1117 C1114 1.409 . S
C1117 C1115 1.415 . S
C1118 H1108 0.930 . S
C1118 C1116 1.419 . S
C1118 C1119 1.362 . S
C1119 H1109 0.930 . S
C1119 C1112 1.409 . S
C1119 C1118 1.362 . S
H1120 C1126 0.930 . S
H1121 C1129 0.930 . S
H1122 C1130 0.930 . S
H1123 C1131 0.930 . S
H1124 C1134 0.930 . S
H1125 C1135 0.930 . S
C1126 H1120 0.930 . S
C1126 C1127 1.355 . S
C1126 C1128 1.415 . S
C1127 C1126 1.355 . S
C1127 C1129 1.419 . S
C1128 C1126 1.415 . S
C1128 C1133 1.425 . S
C1128 C1135 1.409 . S
C1129 H1121 0.930 . S
C1129 C1127 1.419 . S
C1129 C1130 1.362 . S
C1130 H1122 0.930 . S
C1130 C1129 1.362 . S
C1130 C1133 1.409 . S
C1131 H1123 0.930 . S
C1131 C1132 1.355 . S
C1131 C1133 1.415 . S
C1132 C1131 1.355 . S
C1132 C1134 1.419 . S
C1133 C1128 1.425 . S
C1133 C1130 1.409 . S
C1133 C1131 1.415 . S
C1134 H1124 0.930 . S
C1134 C1132 1.419 . S
C1134 C1135 1.362 . S
C1135 H1125 0.930 . S
C1135 C1128 1.409 . S
C1135 C1134 1.362 . S
H1136 C1142 0.930 . S
H1137 C1145 0.930 . S
H1138 C1146 0.930 . S
H1139 C1147 0.930 . S
H1140 C1150 0.930 . S
H1141 C1151 0.930 . S
C1142 H1136 0.930 . S
C1142 C1143 1.355 . S
C1142 C1144 1.415 . S
C1143 C1142 1.355 . S
C1143 C1145 1.419 . S
C1144 C1142 1.415 . S
C1144 C1149 1.425 . S
C1144 C1151 1.409 . S
C1145 H1137 0.930 . S
C1145 C1143 1.419 . S
C1145 C1146 1.362 . S
C1146 H1138 0.930 . S
C1146 C1145 1.362 . S
C1146 C1149 1.409 . S
C1147 H1139 0.930 . S
C1147 C1148 1.355 . S
C1147 C1149 1.415 . S
C1148 C1147 1.355 . S
C1148 C1150 1.419 . S
C1149 C1144 1.425 . S
C1149 C1146 1.409 . S
C1149 C1147 1.415 . S
C1150 H1140 0.930 . S
C1150 C1148 1.419 . S
C1150 C1151 1.362 . S
C1151 H1141 0.930 . S
C1151 C1144 1.409 . S
C1151 C1150 1.362 . S
H1152 C1158 0.930 . S
H1153 C1161 0.930 . S
H1154 C1162 0.930 . S
H1155 C1163 0.930 . S
H1156 C1166 0.930 . S
H1157 C1167 0.930 . S
C1158 H1152 0.930 . S
C1158 C1159 1.355 . S
C1158 C1160 1.415 . S
C1159 C1158 1.355 . S
C1159 C1161 1.419 . S
C1160 C1158 1.415 . S
C1160 C1165 1.425 . S
C1160 C1167 1.409 . S
C1161 H1153 0.930 . S
C1161 C1159 1.419 . S
C1161 C1162 1.362 . S
C1162 H1154 0.930 . S
C1162 C1161 1.362 . S
C1162 C1165 1.409 . S
C1163 H1155 0.930 . S
C1163 C1164 1.355 . S
C1163 C1165 1.415 . S
C1164 C1163 1.355 . S
C1164 C1166 1.419 . S
C1165 C1160 1.425 . S
C1165 C1162 1.409 . S
C1165 C1163 1.415 . S
C1166 H1156 0.930 . S
C1166 C1164 1.419 . S
C1166 C1167 1.362 . S
C1167 H1157 0.930 . S
C1167 C1160 1.409 . S
C1167 C1166 1.362 . S
H1168 C1174 0.930 . S
H1169 C1177 0.930 . S
H1170 C1178 0.930 . S
H1171 C1179 0.930 . S
H1172 C1182 0.930 . S
H1173 C1183 0.930 . S
C1174 H1168 0.930 . S
C1174 C1175 1.355 . S
C1174 C1176 1.415 . S
C1175 C1174 1.355 . S
C1175 C1177 1.419 . S
C1176 C1174 1.415 . S
C1176 C1181 1.425 . S
C1176 C1183 1.409 . S
C1177 H1169 0.930 . S
C1177 C1175 1.419 . S
C1177 C1178 1.362 . S
C1178 H1170 0.930 . S
C1178 C1177 1.362 . S
C1178 C1181 1.409 . S
C1179 H1171 0.930 . S
C1179 C1180 1.355 . S
C1179 C1181 1.415 . S
C1180 C1179 1.355 . S
C1180 C1182 1.419 . S
C1181 C1176 1.425 . S
C1181 C1178 1.409 . S
C1181 C1179 1.415 . S
C1182 H1172 0.930 . S
C1182 C1180 1.419 . S
C1182 C1183 1.362 . S
C1183 H1173 0.930 . S
C1183 C1176 1.409 . S
C1183 C1182 1.362 . S
H1184 C1190 0.930 . S
H1185 C1193 0.930 . S
H1186 C1194 0.930 . S
H1187 C1195 0.930 . S
H1188 C1198 0.930 . S
H1189 C1199 0.930 . S
C1190 H1184 0.930 . S
C1190 C1191 1.355 . S
C1190 C1192 1.415 . S
C1191 C1190 1.355 . S
C1191 C1193 1.419 . S
C1192 C1190 1.415 . S
C1192 C1197 1.425 . S
C1192 C1199 1.409 . S
C1193 H1185 0.930 . S
C1193 C1191 1.419 . S
C1193 C1194 1.362 . S
C1194 H1186 0.930 . S
C1194 C1193 1.362 . S
C1194 C1197 1.409 . S
C1195 H1187 0.930 . S
C1195 C1196 1.355 . S
C1195 C1197 1.415 . S
C1196 C1195 1.355 . S
C1196 C1198 1.419 . S
C1197 C1192 1.425 . S
C1197 C1194 1.409 . S
C1197 C1195 1.415 . S
C1198 H1188 0.930 . S
C1198 C1196 1.419 . S
C1198 C1199 1.362 . S
C1199 H1189 0.930 . S
C1199 C1192 1.409 . S
C1199 C1198 1.362 . S
H1200 C1206 0.930 . S
H1201 C1209 0.930 . S
H1202 C1210 0.930 . S
H1203 C1211 0.930 . S
H1204 C1214 0.930 . S
H1205 C1215 0.930 . S
C1206 H1200 0.930 . S
C1206 C1207 1.355 . S
C1206 C1208 1.415 . S
C1207 C1206 1.355 . S
C1207 C1209 1.419 . S
C1208 C1206 1.415 . S
C1208 C1213 1.425 . S
C1208 C1215 1.409 . S
C1209 H1201 0.930 . S
C1209 C1207 1.419 . S
C1209 C1210 1.362 . S
C1210 H1202 0.930 . S
C1210 C1209 1.362 . S
C1210 C1213 1.409 . S
C1211 H1203 0.930 . S
C1211 C1212 1.355 . S
C1211 C1213 1.415 . S
C1212 C1211 1.355 . S
C1212 C1214 1.419 . S
C1213 C1208 1.425 . S
C1213 C1210 1.409 . S
C1213 C1211 1.415 . S
C1214 H1204 0.930 . S
C1214 C1212 1.419 . S
C1214 C1215 1.362 . S
C1215 H1205 0.930 . S
C1215 C1208 1.409 . S
C1215 C1214 1.362 . S
H1216 C1222 0.930 . S
H1217 C1225 0.930 . S
H1218 C1226 0.930 . S
H1219 C1227 0.930 . S
H1220 C1230 0.930 . S
H1221 C1231 0.930 . S
C1222 H1216 0.930 . S
C1222 C1223 1.355 . S
C1222 C1224 1.415 . S
C1223 C1222 1.355 . S
C1223 C1225 1.419 . S
C1224 C1222 1.415 . S
C1224 C1229 1.425 . S
C1224 C1231 1.409 . S
C1225 H1217 0.930 . S
C1225 C1223 1.419 . S
C1225 C1226 1.362 . S
C1226 H1218 0.930 . S
C1226 C1225 1.362 . S
C1226 C1229 1.409 . S
C1227 H1219 0.930 . S
C1227 C1228 1.355 . S
C1227 C1229 1.415 . S
C1228 C1227 1.355 . S
C1228 C1230 1.419 . S
C1229 C1224 1.425 . S
C1229 C1226 1.409 . S
C1229 C1227 1.415 . S
C1230 H1220 0.930 . S
C1230 C1228 1.419 . S
C1230 C1231 1.362 . S
C1231 H1221 0.930 . S
C1231 C1224 1.409 . S
C1231 C1230 1.362 . S
H1232 C1238 0.930 . S
H1233 C1241 0.930 . S
H1234 C1242 0.930 . S
H1235 C1243 0.930 . S
H1236 C1246 0.930 . S
H1237 C1247 0.930 . S
C1238 H1232 0.930 . S
C1238 C1239 1.355 . S
C1238 C1240 1.415 . S
C1239 C1238 1.355 . S
C1239 C1241 1.419 . S
C1240 C1238 1.415 . S
C1240 C1245 1.425 . S
C1240 C1247 1.409 . S
C1241 H1233 0.930 . S
C1241 C1239 1.419 . S
C1241 C1242 1.362 . S
C1242 H1234 0.930 . S
C1242 C1241 1.362 . S
C1242 C1245 1.409 . S
C1243 H1235 0.930 . S
C1243 C1244 1.355 . S
C1243 C1245 1.415 . S
C1244 C1243 1.355 . S
C1244 C1246 1.419 . S
C1245 C1240 1.425 . S
C1245 C1242 1.409 . S
C1245 C1243 1.415 . S
C1246 H1236 0.930 . S
C1246 C1244 1.419 . S
C1246 C1247 1.362 . S
C1247 H1237 0.930 . S
C1247 C1240 1.409 . S
C1247 C1246 1.362 . S
H1248 C1254 0.930 . S
H1249 C1257 0.930 . S
H1250 C1258 0.930 . S
H1251 C1259 0.930 . S
H1252 C1262 0.930 . S
H1253 C1263 0.930 . S
C1254 H1248 0.930 . S
C1254 C1255 1.355 . S
C1254 C1256 1.415 . S
C1255 C1254 1.355 . S
C1255 C1257 1.419 . S
C1256 C1254 1.415 . S
C1256 C1261 1.425 . S
C1256 C1263 1.409 . S
C1257 H1249 0.930 . S
C1257 C1255 1.419 . S
C1257 C1258 1.362 . S
C1258 H1250 0.930 . S
C1258 C1257 1.362 . S
C1258 C1261 1.409 . S
C1259 H1251 0.930 . S
C1259 C1260 1.355 . S
C1259 C1261 1.415 . S
C1260 C1259 1.355 . S
C1260 C1262 1.419 . S
C1261 C1256 1.425 . S
C1261 C1258 1.409 . S
C1261 C1259 1.415 . S
C1262 H1252 0.930 . S
C1262 C1260 1.419 . S
C1262 C1263 1.362 . S
C1263 H1253 0.930 . S
C1263 C1256 1.409 . S
C1263 C1262 1.362 . S
H1264 C1270 0.930 . S
H1265 C1273 0.930 . S
H1266 C1274 0.930 . S
H1267 C1275 0.930 . S
H1268 C1278 0.930 . S
H1269 C1279 0.930 . S
C1270 H1264 0.930 . S
C1270 C1271 1.355 . S
C1270 C1272 1.415 . S
C1271 C1270 1.355 . S
C1271 C1273 1.419 . S
C1272 C1270 1.415 . S
C1272 C1277 1.425 . S
C1272 C1279 1.409 . S
C1273 H1265 0.930 . S
C1273 C1271 1.419 . S
C1273 C1274 1.362 . S
C1274 H1266 0.930 . S
C1274 C1273 1.362 . S
C1274 C1277 1.409 . S
C1275 H1267 0.930 . S
C1275 C1276 1.355 . S
C1275 C1277 1.415 . S
C1276 C1275 1.355 . S
C1276 C1278 1.419 . S
C1277 C1272 1.425 . S
C1277 C1274 1.409 . S
C1277 C1275 1.415 . S
C1278 H1268 0.930 . S
C1278 C1276 1.419 . S
C1278 C1279 1.362 . S
C1279 H1269 0.930 . S
C1279 C1272 1.409 . S
C1279 C1278 1.362 . S
H1280 C1286 0.930 . S
H1281 C1289 0.930 . S
H1282 C1290 0.930 . S
H1283 C1291 0.930 . S
H1284 C1294 0.930 . S
H1285 C1295 0.930 . S
C1286 H1280 0.930 . S
C1286 C1287 1.355 . S
C1286 C1288 1.415 . S
C1287 C1286 1.355 . S
C1287 C1289 1.419 . S
C1288 C1286 1.415 . S
C1288 C1293 1.425 . S
C1288 C1295 1.409 . S
C1289 H1281 0.930 . S
C1289 C1287 1.419 . S
C1289 C1290 1.362 . S
C1290 H1282 0.930 . S
C1290 C1289 1.362 . S
C1290 C1293 1.409 . S
C1291 H1283 0.930 . S
C1291 C1292 1.355 . S
C1291 C1293 1.415 . S
C1292 C1291 1.355 . S
C1292 C1294 1.419 . S
C1293 C1288 1.425 . S
C1293 C1290 1.409 . S
C1293 C1291 1.415 . S
C1294 H1284 0.930 . S
C1294 C1292 1.419 . S
C1294 C1295 1.362 . S
C1295 H1285 0.930 . S
C1295 C1288 1.409 . S
C1295 C1294 1.362 . S
H1296 C1302 0.930 . S
H1297 C1305 0.930 . S
H1298 C1306 0.930 . S
H1299 C1307 0.930 . S
H1300 C1310 0.930 . S
H1301 C1311 0.930 . S
C1302 H1296 0.930 . S
C1302 C1303 1.355 . S
C1302 C1304 1.415 . S
C1303 C1302 1.355 . S
C1303 C1305 1.419 . S
C1304 C1302 1.415 . S
C1304 C1309 1.425 . S
C1304 C1311 1.409 . S
C1305 H1297 0.930 . S
C1305 C1303 1.419 . S
C1305 C1306 1.362 . S
C1306 H1298 0.930 . S
C1306 C1305 1.362 . S
C1306 C1309 1.409 . S
C1307 H1299 0.930 . S
C1307 C1308 1.355 . S
C1307 C1309 1.415 . S
C1308 C1307 1.355 . S
C1308 C1310 1.419 . S
C1309 C1304 1.425 . S
C1309 C1306 1.409 . S
C1309 C1307 1.415 . S
C1310 H1300 0.930 . S
C1310 C1308 1.419 . S
C1310 C1311 1.362 . S
C1311 H1301 0.930 . S
C1311 C1304 1.409 . S
C1311 C1310 1.362 . S
H1312 C1318 0.930 . S
H1313 C1321 0.930 . S
H1314 C1322 0.930 . S
H1315 C1323 0.930 . S
H1316 C1326 0.930 . S
H1317 C1327 0.930 . S
C1318 H1312 0.930 . S
C1318 C1319 1.355 . S
C1318 C1320 1.415 . S
C1319 C1318 1.355 . S
C1319 C1321 1.419 . S
C1320 C1318 1.415 . S
C1320 C1325 1.425 . S
C1320 C1327 1.409 . S
C1321 H1313 0.930 . S
C1321 C1319 1.419 . S
C1321 C1322 1.362 . S
C1322 H1314 0.930 . S
C1322 C1321 1.362 . S
C1322 C1325 1.409 . S
C1323 H1315 0.930 . S
C1323 C1324 1.355 . S
C1323 C1325 1.415 . S
C1324 C1323 1.355 . S
C1324 C1326 1.419 . S
C1325 C1320 1.425 . S
C1325 C1322 1.409 . S
C1325 C1323 1.415 . S
C1326 H1316 0.930 . S
C1326 C1324 1.419 . S
C1326 C1327 1.362 . S
C1327 H1317 0.930 . S
C1327 C1320 1.409 . S
C1327 C1326 1.362 . S
H1328 C1334 0.930 . S
H1329 C1337 0.930 . S
H1330 C1338 0.930 . S
H1331 C1339 0.930 . S
H1332 C1342 0.930 . S
H1333 C1343 0.930 . S
C1334 H1328 0.930 . S
C1334 C1335 1.355 . S
C1334 C1336 1.415 . S
C1335 C1334 1.355 . S
C1335 C1337 1.419 . S
C1336 C1334 1.415 . S
C1336 C1341 1.425 . S
C1336 C1343 1.409 . S
C1337 H1329 0.930 . S
C1337 C1335 1.419 . S
C1337 C1338 1.362 . S
C1338 H1330 0.930 . S
C1338 C1337 1.362 . S
C1338 C1341 1.409 . S
C1339 H1331 0.930 . S
C1339 C1340 1.355 . S
C1339 C1341 1.415 . S
C1340 C1339 1.355 . S
C1340 C1342 1.419 . S
C1341 C1336 1.425 . S
C1341 C1338 1.409 . S
C1341 C1339 1.415 . S
C1342 H1332 0.930 . S
C1342 C1340 1.419 . S
C1342 C1343 1.362 . S
C1343 H1333 0.930 . S
C1343 C1336 1.409 . S
C1343 C1342 1.362 . S
H1344 C1350 0.930 . S
H1345 C1353 0.930 . S
H1346 C1354 0.930 . S
H1347 C1355 0.930 . S
H1348 C1358 0.930 . S
H1349 C1359 0.930 . S
C1350 H1344 0.930 . S
C1350 C1351 1.355 . S
C1350 C1352 1.415 . S
C1351 C1350 1.355 . S
C1351 C1353 1.419 . S
C1352 C1350 1.415 . S
C1352 C1357 1.425 . S
C1352 C1359 1.409 . S
C1353 H1345 0.930 . S
C1353 C1351 1.419 . S
C1353 C1354 1.362 . S
C1354 H1346 0.930 . S
C1354 C1353 1.362 . S
C1354 C1357 1.409 . S
C1355 H1347 0.930 . S
C1355 C1356 1.355 . S
C1355 C1357 1.415 . S
C1356 C1355 1.355 . S
C1356 C1358 1.419 . S
C1357 C1352 1.425 . S
C1357 C1354 1.409 . S
C1357 C1355 1.415 . S
C1358 H1348 0.930 . S
C1358 C1356 1.419 . S
C1358 C1359 1.362 . S
C1359 H1349 0.930 . S
C1359 C1352 1.409 . S
C1359 C1358 1.362 . S
H1360 C1366 0.930 . S
H1361 C1369 0.930 . S
H1362 C1370 0.930 . S
H1363 C1371 0.930 . S
H1364 C1374 0.930 . S
H1365 C1375 0.930 . S
C1366 H1360 0.930 . S
C1366 C1367 1.355 . S
C1366 C1368 1.415 . S
C1367 C1366 1.355 . S
C1367 C1369 1.419 . S
C1368 C1366 1.415 . S
C1368 C1373 1.425 . S
C1368 C1375 1.409 . S
C1369 H1361 0.930 . S
C1369 C1367 1.419 . S
C1369 C1370 1.362 . S
C1370 H1362 0.930 . S
C1370 C1369 1.362 . S
C1370 C1373 1.409 . S
C1371 H1363 0.930 . S
C1371 C1372 1.355 . S
C1371 C1373 1.415 . S
C1372 C1371 1.355 . S
C1372 C1374 1.419 . S
C1373 C1368 1.425 . S
C1373 C1370 1.409 . S
C1373 C1371 1.415 . S
C1374 H1364 0.930 . S
C1374 C1372 1.419 . S
C1374 C1375 1.362 . S
C1375 H1365 0.930 . S
C1375 C1368 1.409 . S
C1375 C1374 1.362 . S
H1376 C1382 0.930 . S
H1377 C1385 0.930 . S
H1378 C1386 0.930 . S
H1379 C1387 0.930 . S
H1380 C1390 0.930 . S
H1381 C1391 0.930 . S
C1382 H1376 0.930 . S
C1382 C1383 1.355 . S
C1382 C1384 1.415 . S
C1383 C1382 1.355 . S
C1383 C1385 1.419 . S
C1384 C1382 1.415 . S
C1384 C1389 1.425 . S
C1384 C1391 1.409 . S
C1385 H1377 0.930 . S
C1385 C1383 1.419 . S
C1385 C1386 1.362 . S
C1386 H1378 0.930 . S
C1386 C1385 1.362 . S
C1386 C1389 1.409 . S
C1387 H1379 0.930 . S
C1387 C1388 1.355 . S
C1387 C1389 1.415 . S
C1388 C1387 1.355 . S
C1388 C1390 1.419 . S
C1389 C1384 1.425 . S
C1389 C1386 1.409 . S
C1389 C1387 1.415 . S
C1390 H1380 0.930 . S
C1390 C1388 1.419 . S
C1390 C1391 1.362 . S
C1391 H1381 0.930 . S
C1391 C1384 1.409 . S
C1391 C1390 1.362 . S
H1392 C1398 0.930 . S
H1393 C1401 0.930 . S
H1394 C1402 0.930 . S
H1395 C1403 0.930 . S
H1396 C1406 0.930 . S
H1397 C1407 0.930 . S
C1398 H1392 0.930 . S
C1398 C1399 1.355 . S
C1398 C1400 1.415 . S
C1399 C1398 1.355 . S
C1399 C1401 1.419 . S
C1400 C1398 1.415 . S
C1400 C1405 1.425 . S
C1400 C1407 1.409 . S
C1401 H1393 0.930 . S
C1401 C1399 1.419 . S
C1401 C1402 1.362 . S
C1402 H1394 0.930 . S
C1402 C1401 1.362 . S
C1402 C1405 1.409 . S
C1403 H1395 0.930 . S
C1403 C1404 1.355 . S
C1403 C1405 1.415 . S
C1404 C1403 1.355 . S
C1404 C1406 1.419 . S
C1405 C1400 1.425 . S
C1405 C1402 1.409 . S
C1405 C1403 1.415 . S
C1406 H1396 0.930 . S
C1406 C1404 1.419 . S
C1406 C1407 1.362 . S
C1407 H1397 0.930 . S
C1407 C1400 1.409 . S
C1407 C1406 1.362 . S
H1408 C1414 0.930 . S
H1409 C1417 0.930 . S
H1410 C1418 0.930 . S
H1411 C1419 0.930 . S
H1412 C1422 0.930 . S
H1413 C1423 0.930 . S
C1414 H1408 0.930 . S
C1414 C1415 1.355 . S
C1414 C1416 1.415 . S
C1415 C1414 1.355 . S
C1415 C1417 1.419 . S
C1416 C1414 1.415 . S
C1416 C1421 1.425 . S
C1416 C1423 1.409 . S
C1417 H1409 0.930 . S
C1417 C1415 1.419 . S
C1417 C1418 1.362 . S
C1418 H1410 0.930 . S
C1418 C1417 1.362 . S
C1418 C1421 1.409 . S
C1419 H1411 0.930 . S
C1419 C1420 1.355 . S
C1419 C1421 1.415 . S
C1420 C1419 1.355 . S
C1420 C1422 1.419 . S
C1421 C1416 1.425 . S
C1421 C1418 1.409 . S
C1421 C1419 1.415 . S
C1422 H1412 0.930 . S
C1422 C1420 1.419 . S
C1422 C1423 1.362 . S
C1423 H1413 0.930 . S
C1423 C1416 1.409 . S
C1423 C1422 1.362 . S
H1424 C1430 0.930 . S
H1425 C1433 0.930 . S
H1426 C1434 0.930 . S
H1427 C1435 0.930 . S
H1428 C1438 0.930 . S
H1429 C1439 0.930 . S
C1430 H1424 0.930 . S
C1430 C1431 1.355 . S
C1430 C1432 1.415 . S
C1431 C1430 1.355 . S
C1431 C1433 1.419 . S
C1432 C1430 1.415 . S
C1432 C1437 1.425 . S
C1432 C1439 1.409 . S
C1433 H1425 0.930 . S
C1433 C1431 1.419 . S
C1433 C1434 1.362 . S
C1434 H1426 0.930 . S
C1434 C1433 1.362 . S
C1434 C1437 1.409 . S
C1435 H1427 0.930 . S
C1435 C1436 1.355 . S
C1435 C1437 1.415 . S
C1436 C1435 1.355 . S
C1436 C1438 1.419 . S
C1437 C1432 1.425 . S
C1437 C1434 1.409 . S
C1437 C1435 1.415 . S
C1438 H1428 0.930 . S
C1438 C1436 1.419 . S
C1438 C1439 1.362 . S
C1439 H1429 0.930 . S
C1439 C1432 1.409 . S
C1439 C1438 1.362 . S
C423 C91 1.556 . S
C428 C0 1.584 1_565 S
C439 C13 1.633 . S
C444 C52 1.677 . S
C455 C65 1.362 . S
C460 C26 1.388 . S
C471 C78 1.336 . S
C476 C39 1.450 1_545 S
C487 C104 1.568 1_565 S
C492 C286 1.545 . S
C503 C117 1.611 . S
C508 C247 1.654 . S
C519 C377 1.401 . S
C524 C130 1.339 . S
C535 C351 1.414 . S
C540 C143 1.476 . S
C551 C156 1.668 . S
C556 C403 1.618 . S
C567 C169 1.376 . S
C572 C338 1.362 . S
C583 C182 1.337 . S
C588 C273 1.451 1_545 S
C599 C195 1.550 . S
C604 C208 1.567 . S
C615 C221 1.594 . S
C620 C325 1.544 . S
C631 C234 1.387 . S
C636 C260 1.372 . S
C647 C390 1.479 . S
C652 C299 1.370 . S
C663 C364 1.680 . S
C668 C312 1.643 . S
C679 C140 0.791 . S
C684 C10 0.583 . S
C695 C148 0.836 . S
C700 C18 0.927 . S
C711 C114 0.713 . S
C716 C36 0.772 1_556 S
C727 C122 0.979 . S
C732 C44 0.742 . S
C743 C190 0.901 . S
C748 C62 0.761 . S
C759 C75 0.719 . S
C764 C205 0.709 . S
C775 C86 0.788 . S
C780 C166 0.930 . S
C791 C101 0.634 . S
C796 C179 0.839 . S
C807 C164 0.882 . S
C812 C112 0.821 . S
C823 C127 0.975 . S
C828 C177 1.078 . S
C839 C187 0.686 . S
C844 C138 0.771 . S
C855 C153 0.718 . S
C860 C203 0.854 . S
C871 C309 0.965 . S
C876 C213 0.853 . S
C887 C31 0.831 . S
C892 C161 1.046 . S
C903 C47 0.669 . S
C908 C174 0.755 . S
C919 C5 0.763 . S
C924 C192 1.010 . S
C935 C226 0.884 . S
C940 C411 0.748 . S
C951 C252 1.037 . S
C956 C239 0.824 . S
C967 C21 0.805 . S
C972 C200 0.824 . S
C983 C307 0.929 . S
C988 C257 0.731 . S
C999 C270 0.792 . S
C1004 C296 0.643 . S
C1015 C218 0.715 . S
C1020 C244 0.770 1_556 S
C1031 C278 0.744 . S
C1036 C317 0.977 . S
C1047 C320 0.847 . S
C1052 C291 0.713 . S
C1063 C135 0.949 . S
C1068 C57 1.017 . S
C1079 C268 1.122 . S
C1084 C322 0.822 . S
C1095 C99 0.810 . S
C1100 C49 0.820 . S
C1111 C372 0.805 . S
C1116 C333 0.725 . S
C1127 C73 1.082 . S
C1132 C23 0.764 . S
C1143 C216 0.803 . S
C1148 C255 0.647 . S
C1159 C335 0.605 . S
C1164 C348 0.733 . S
C1175 C359 0.913 . S
C1180 C374 0.746 . S
C1191 C304 0.669 . S
C1196 C242 0.781 . S
C1207 C343 0.757 . S
C1212 C369 1.057 . S
C1223 C151 0.680 . S
C1228 C70 0.726 . S
C1239 C96 0.662 . S
C1244 C125 0.849 . S
C1255 C231 0.710 . S
C1260 C387 0.718 . S
C1271 C395 0.949 . S
C1276 C408 0.845 . S
C1287 C413 0.880 . S
C1292 C385 1.117 . S
C1303 C60 0.739 . S
C1308 C8 0.881 . S
C1319 C34 0.816 . S
C1324 C83 0.628 . S
C1335 C400 0.886 . S
C1340 C229 0.901 . S
C1351 C330 0.867 . S
C1356 C361 1.005 . S
C1367 C265 0.785 . S
C1372 C281 0.658 . S
C1383 C88 0.959 . S
C1388 C109 0.961 . S
C1399 C294 0.806 . S
C1404 C283 0.859 . S
C1415 C346 0.748 . S
C1420 C356 0.748 . S
C1431 C398 0.686 . S
C1436 C382 0.816 . S
