# Generated by pormake.
# Topology wmc, (6)-cn, num edge types: 1
# Building blocks:
#     Node 0, Type 0, BuildingBlock: VOLQOD_clean_sbu_1, # of connection points: 6
#     Node 1, Type 0, BuildingBlock: VOLQOD_clean_sbu_1, # of connection points: 6
#     Node 2, Type 0, BuildingBlock: VOLQOD_clean_sbu_1, # of connection points: 6
#     Node 3, Type 0, BuildingBlock: VOLQOD_clean_sbu_1, # of connection points: 6
#     Node 4, Type 0, BuildingBlock: VOLQOD_clean_sbu_1, # of connection points: 6
#     Node 5, Type 0, BuildingBlock: VOLQOD_clean_sbu_1, # of connection points: 6
#     Node 6, Type 0, BuildingBlock: VOLQOD_clean_sbu_1, # of connection points: 6
#     Node 7, Type 0, BuildingBlock: VOLQOD_clean_sbu_1, # of connection points: 6
#     Node 8, Type 0, BuildingBlock: VOLQOD_clean_sbu_1, # of connection points: 6
#     Node 9, Type 0, BuildingBlock: VOLQOD_clean_sbu_1, # of connection points: 6
#     Node 10, Type 0, BuildingBlock: VOLQOD_clean_sbu_1, # of connection points: 6
#     Node 11, Type 0, BuildingBlock: VOLQOD_clean_sbu_1, # of connection points: 6
#     Node 12, Type 0, BuildingBlock: VOLQOD_clean_sbu_1, # of connection points: 6
#     Node 13, Type 0, BuildingBlock: VOLQOD_clean_sbu_1, # of connection points: 6
#     Node 14, Type 0, BuildingBlock: VOLQOD_clean_sbu_1, # of connection points: 6
#     Node 15, Type 0, BuildingBlock: VOLQOD_clean_sbu_1, # of connection points: 6
#     Node 16, Type 0, BuildingBlock: VOLQOD_clean_sbu_1, # of connection points: 6
#     Node 17, Type 0, BuildingBlock: VOLQOD_clean_sbu_1, # of connection points: 6
#     Edge 18, Type (0, 0), None
#     Edge 19, Type (0, 0), None
#     Edge 20, Type (0, 0), None
#     Edge 21, Type (0, 0), None
#     Edge 22, Type (0, 0), None
#     Edge 23, Type (0, 0), None
#     Edge 24, Type (0, 0), None
#     Edge 25, Type (0, 0), None
#     Edge 26, Type (0, 0), None
#     Edge 27, Type (0, 0), None
#     Edge 28, Type (0, 0), None
#     Edge 29, Type (0, 0), None
#     Edge 30, Type (0, 0), None
#     Edge 31, Type (0, 0), None
#     Edge 32, Type (0, 0), None
#     Edge 33, Type (0, 0), None
#     Edge 34, Type (0, 0), None
#     Edge 35, Type (0, 0), None
#     Edge 36, Type (0, 0), None
#     Edge 37, Type (0, 0), None
#     Edge 38, Type (0, 0), None
#     Edge 39, Type (0, 0), None
#     Edge 40, Type (0, 0), None
#     Edge 41, Type (0, 0), None
#     Edge 42, Type (0, 0), None
#     Edge 43, Type (0, 0), None
#     Edge 44, Type (0, 0), None
#     Edge 45, Type (0, 0), None
#     Edge 46, Type (0, 0), None
#     Edge 47, Type (0, 0), None
#     Edge 48, Type (0, 0), None
#     Edge 49, Type (0, 0), None
#     Edge 50, Type (0, 0), None
#     Edge 51, Type (0, 0), None
#     Edge 52, Type (0, 0), None
#     Edge 53, Type (0, 0), None
#     Edge 54, Type (0, 0), None
#     Edge 55, Type (0, 0), None
#     Edge 56, Type (0, 0), None
#     Edge 57, Type (0, 0), None
#     Edge 58, Type (0, 0), None
#     Edge 59, Type (0, 0), None
#     Edge 60, Type (0, 0), None
#     Edge 61, Type (0, 0), None
#     Edge 62, Type (0, 0), None
#     Edge 63, Type (0, 0), None
#     Edge 64, Type (0, 0), None
#     Edge 65, Type (0, 0), None
#     Edge 66, Type (0, 0), None
#     Edge 67, Type (0, 0), None
#     Edge 68, Type (0, 0), None
#     Edge 69, Type (0, 0), None
#     Edge 70, Type (0, 0), None
#     Edge 71, Type (0, 0), None
# Relax obj value: 0.289
# Max RMSD: 0.168
# Mean RMSD: 0.168
data_MOF--net-wmc--node1-VOLQOD_clean_sbu_1--edge1-none
_symmetry_space_group_name_H-M    P1
_symmetry_Int_Tables_number       1
_symmetry_cell_setting            triclinic
loop_
_symmetry_equiv_pos_as_xyz
'x, y, z'
_cell_length_a     23.787106
_cell_length_b     23.787984
_cell_length_c     17.270656
_cell_angle_alpha  90.00081
_cell_angle_beta   89.999534
_cell_angle_gamma 120.00305
loop_
_atom_site_label
_atom_site_type_symbol
_atom_site_fract_x
_atom_site_fract_y
_atom_site_fract_z
_atom_type_partial_charge
O0 O 0.73122 0.23426 0.88503 0.0
Zn1 Zn 0.66614 0.14079 0.89761 0.0
O2 O 0.59146 0.12937 -0.0462 0.0
Zn3 Zn 0.54026 0.14117 0.87979 0.0
Zn4 Zn 0.63174 0.19682 0.02484 0.0
Zn5 Zn 0.55158 0.05377 0.01634 0.0
O6 O 0.44646 0.07071 0.8898 0.0
O7 O 0.46039 0.99562 -0.04877 0.0
O8 O 0.64587 0.10165 0.7911 0.0
O9 O 0.57275 0.13311 0.77499 0.0
O10 O 0.5518 0.23038 0.89116 0.0
O11 O 0.60207 0.25852 0.0056 0.0
O12 O 0.61564 0.16621 0.13193 0.0
O13 O 0.71504 0.11753 -0.03117 0.0
O14 O 0.52656 0.06988 0.12396 0.0
O15 O 0.63963 0.05294 0.05386 0.0
C16 C 0.75689 0.26408 0.94762 0.0
C17 C 0.42367 1.01235 0.91266 0.0
C18 C 0.5758 0.26946 -0.05206 0.0
C19 C 0.60959 0.11316 0.74764 0.0
C20 C 0.56923 0.11699 0.16391 0.0
C21 C 0.70001 0.08796 0.0331 0.0
O22 O 0.72641 0.24646 0.01126 0.0
O23 O 0.85366 0.5146 0.88502 0.0
Zn24 Zn 0.94713 0.54298 0.89761 0.0
O25 O 0.95854 0.47973 -0.04619 0.0
Zn26 Zn 0.94673 0.41672 0.8798 0.0
Zn27 Zn 0.89108 0.45256 0.02484 0.0
Zn28 Zn 1.03413 0.51543 0.01636 0.0
O29 O 1.01718 0.39337 0.88981 0.0
O30 O 0.09228 0.48239 -0.04876 0.0
O31 O 0.98628 0.56186 0.79111 0.0
O32 O 0.9548 0.45727 0.775 0.0
O33 O 0.85751 0.33905 0.89117 0.0
O34 O 0.82937 0.36118 0.00561 0.0
O35 O 0.92169 0.46707 0.13194 0.0
O36 O 0.9704 0.61515 -0.03117 0.0
O37 O 1.01801 0.4743 0.12396 0.0
O38 O 1.03495 0.60431 0.05388 0.0
C39 C 0.82384 0.51045 0.94761 0.0
C40 C 0.07554 0.42894 0.91267 0.0
C41 C 0.81844 0.32397 -0.05204 0.0
C42 C 0.97475 0.51406 0.74765 0.0
C43 C 0.97091 0.46987 0.16392 0.0
C44 C 0.99994 0.62968 0.03312 0.0
O45 O 0.84146 0.4976 0.01125 0.0
O46 O 0.5733 0.35667 0.88501 0.0
Zn47 Zn 0.54493 0.42175 0.89761 0.0
O48 O 0.60819 0.49643 -0.0462 0.0
Zn49 Zn 0.67119 0.54763 0.87978 0.0
Zn50 Zn 0.63535 0.45615 0.02483 0.0
Zn51 Zn 0.57249 0.53632 0.01635 0.0
O52 O 0.69453 0.64142 0.88978 0.0
O53 O 0.60552 0.6275 -0.04876 0.0
O54 O 0.52604 0.44202 0.7911 0.0
O55 O 0.63063 0.51513 0.77499 0.0
O56 O 0.74887 0.5361 0.89115 0.0
O57 O 0.72674 0.48583 0.0056 0.0
O58 O 0.62085 0.47224 0.13192 0.0
O59 O 0.47276 0.37286 -0.03117 0.0
O60 O 0.61362 0.56133 0.12396 0.0
O61 O 0.48361 0.44826 0.05388 0.0
C62 C 0.57744 0.331 0.94761 0.0
C63 C 0.65897 0.66422 0.91265 0.0
C64 C 0.76395 0.51211 -0.05206 0.0
C65 C 0.57384 0.4783 0.74764 0.0
C66 C 0.61804 0.51865 0.16391 0.0
C67 C 0.45824 0.38788 0.03312 0.0
O68 O 0.59032 0.36148 0.01124 0.0
O69 O 0.85365 0.35668 0.385 0.0
Zn70 Zn 0.94712 0.42177 0.3976 0.0
O71 O 0.95854 0.49644 0.45381 0.0
Zn72 Zn 0.94674 0.54764 0.3798 0.0
Zn73 Zn 0.89107 0.45614 0.52483 0.0
Zn74 Zn 1.03412 0.53631 0.51636 0.0
O75 O 1.01718 0.64144 0.38985 0.0
O76 O 0.09228 0.6275 0.45124 0.0
O77 O 0.98627 0.44205 0.2911 0.0
O78 O 0.95484 0.51519 0.275 0.0
O79 O 0.85752 0.53609 0.39115 0.0
O80 O 0.82936 0.4858 0.50558 0.0
O81 O 0.92166 0.47225 0.63193 0.0
O82 O 0.97039 0.37286 0.46881 0.0
O83 O 1.018 0.56132 0.62397 0.0
O84 O 1.03494 0.44826 0.55387 0.0
C85 C 0.82383 0.33101 0.44759 0.0
C86 C 0.07555 0.66423 0.41269 0.0
C87 C 0.81843 0.51208 0.44792 0.0
C88 C 0.9748 0.47836 0.24765 0.0
C89 C 0.97087 0.51867 0.66391 0.0
C90 C 0.99994 0.38788 0.5331 0.0
O91 O 0.84146 0.36148 0.51123 0.0
O92 O 0.73122 0.51458 0.385 0.0
Zn93 Zn 0.66613 0.54295 0.3976 0.0
O94 O 0.59145 0.47969 0.45379 0.0
Zn95 Zn 0.54025 0.41669 0.37978 0.0
Zn96 Zn 0.63174 0.45252 0.52482 0.0
Zn97 Zn 0.55158 0.5154 0.51635 0.0
O98 O 0.44645 0.39334 0.38981 0.0
O99 O 0.46039 0.48237 0.45124 0.0
O100 O 0.64586 0.56183 0.2911 0.0
O101 O 0.57271 0.45725 0.27499 0.0
O102 O 0.55178 0.33901 0.39113 0.0
O103 O 0.60207 0.36115 0.50556 0.0
O104 O 0.61563 0.467 0.63192 0.0
O105 O 0.71503 0.61512 0.46881 0.0
O106 O 0.52656 0.47427 0.62396 0.0
O107 O 0.63963 0.60428 0.55386 0.0
C108 C 0.75689 0.51044 0.44759 0.0
C109 C 0.42366 0.42892 0.41267 0.0
C110 C 0.57579 0.32394 0.44791 0.0
C111 C 0.60954 0.51404 0.24764 0.0
C112 C 0.56922 0.4698 0.6639 0.0
C113 C 0.70001 0.62965 0.5331 0.0
O114 O 0.72641 0.49757 0.51123 0.0
O115 O 0.57329 0.23423 0.38499 0.0
Zn116 Zn 0.54492 0.14077 0.3976 0.0
O117 O 0.60818 0.12936 0.4538 0.0
Zn118 Zn 0.67119 0.14116 0.37979 0.0
Zn119 Zn 0.63535 0.19682 0.52482 0.0
Zn120 Zn 0.57248 0.05378 0.51636 0.0
O121 O 0.69455 0.07073 0.38982 0.0
O122 O 0.60552 0.99563 0.45125 0.0
O123 O 0.52604 0.10161 0.2911 0.0
O124 O 0.63063 0.13307 0.27499 0.0
O125 O 0.74886 0.23039 0.39114 0.0
O126 O 0.72672 0.25853 0.50557 0.0
O127 O 0.62086 0.16624 0.63192 0.0
O128 O 0.47275 0.1175 0.46881 0.0
O129 O 0.61363 0.06992 0.62397 0.0
O130 O 0.48361 0.05297 0.55389 0.0
C131 C 0.57743 0.26405 0.44758 0.0
C132 C 0.65897 1.01236 0.41268 0.0
C133 C 0.76394 0.26946 0.44792 0.0
C134 C 0.57384 0.1131 0.24765 0.0
C135 C 0.61808 0.11704 0.66391 0.0
C136 C 0.45823 0.08797 0.53311 0.0
O137 O 0.59029 0.24643 0.51122 0.0
O138 O 0.39789 0.56759 0.21834 0.0
Zn139 Zn 0.3328 0.47413 0.23093 0.0
O140 O 0.25812 0.4627 0.28712 0.0
Zn141 Zn 0.20693 0.4745 0.21311 0.0
Zn142 Zn 0.29841 0.53016 0.35816 0.0
Zn143 Zn 0.21824 0.38711 0.34966 0.0
O144 O 0.11313 0.40404 0.22311 0.0
O145 O 0.12705 0.32895 0.28455 0.0
O146 O 0.31253 0.43498 0.12442 0.0
O147 O 0.23941 0.46644 0.10831 0.0
O148 O 0.21846 0.56372 0.22447 0.0
O149 O 0.26873 0.59186 0.33892 0.0
O150 O 0.2823 0.49955 0.46525 0.0
O151 O 0.3817 0.45086 0.30215 0.0
O152 O 0.19323 0.40322 0.45728 0.0
O153 O 0.30629 0.38628 0.38719 0.0
C154 C 0.42356 0.59741 0.28093 0.0
C155 C 0.09033 0.34568 0.24598 0.0
C156 C 0.24246 0.60279 0.28126 0.0
C157 C 0.27625 0.4465 0.08096 0.0
C158 C 0.2359 0.45033 0.49723 0.0
C159 C 0.36667 0.4213 0.36643 0.0
O160 O 0.39307 0.57979 0.34457 0.0
O161 O 0.52033 0.84793 0.21833 0.0
Zn162 Zn 0.61379 0.87631 0.23093 0.0
O163 O 0.62521 0.81305 0.28713 0.0
Zn164 Zn 0.6134 0.75005 0.21311 0.0
Zn165 Zn 0.55775 0.78589 0.35816 0.0
Zn166 Zn 0.7008 0.84876 0.34968 0.0
O167 O 0.68385 0.72671 0.22312 0.0
O168 O 0.75895 0.81572 0.28457 0.0
O169 O 0.65295 0.89519 0.12443 0.0
O170 O 0.62146 0.7906 0.10832 0.0
O171 O 0.52418 0.67238 0.22448 0.0
O172 O 0.49604 0.69451 0.33893 0.0
O173 O 0.58836 0.8004 0.46525 0.0
O174 O 0.63706 0.94847 0.30215 0.0
O175 O 0.68467 0.80762 0.45728 0.0
O176 O 0.70161 0.93763 0.38721 0.0
C177 C 0.49051 0.84379 0.28092 0.0
C178 C 0.74221 0.76227 0.24599 0.0
C179 C 0.4851 0.6573 0.28127 0.0
C180 C 0.64142 0.84739 0.08096 0.0
C181 C 0.63757 0.8032 0.49724 0.0
C182 C 0.6666 0.963 0.36644 0.0
O183 O 0.50813 0.83093 0.34456 0.0
O184 O 0.23997 0.69001 0.21833 0.0
Zn185 Zn 0.2116 0.75509 0.23093 0.0
O186 O 0.27486 0.82977 0.28712 0.0
Zn187 Zn 0.33786 0.88096 0.2131 0.0
Zn188 Zn 0.30202 0.78948 0.35815 0.0
Zn189 Zn 0.23916 0.86965 0.34967 0.0
O190 O 0.3612 0.97476 0.2231 0.0
O191 O 0.27219 0.96084 0.28456 0.0
O192 O 0.19271 0.77536 0.12442 0.0
O193 O 0.2973 0.84847 0.1083 0.0
O194 O 0.41554 0.86943 0.22447 0.0
O195 O 0.39341 0.81917 0.33891 0.0
O196 O 0.28751 0.80558 0.46524 0.0
O197 O 0.13944 0.7062 0.30215 0.0
O198 O 0.28029 0.89466 0.45728 0.0
O199 O 0.15028 0.7816 0.3872 0.0
C200 C 0.24411 0.66434 0.28092 0.0
C201 C 0.32564 0.99756 0.24597 0.0
C202 C 0.43062 0.84544 0.28126 0.0
C203 C 0.24051 0.81163 0.08096 0.0
C204 C 0.28471 0.85199 0.49723 0.0
C205 C 0.12491 0.72122 0.36644 0.0
O206 O 0.25699 0.69482 0.34456 0.0
O207 O 0.52032 0.69002 0.71832 0.0
Zn208 Zn 0.61379 0.7551 0.73092 0.0
O209 O 0.6252 0.82977 0.78712 0.0
Zn210 Zn 0.6134 0.88098 0.71312 0.0
Zn211 Zn 0.55774 0.78948 0.85815 0.0
Zn212 Zn 0.70079 0.86965 0.84968 0.0
O213 O 0.68385 0.97478 0.72316 0.0
O214 O 0.75894 0.96084 0.78457 0.0
O215 O 0.65294 0.77539 0.62442 0.0
O216 O 0.6215 0.84853 0.60832 0.0
O217 O 0.52418 0.86943 0.72447 0.0
O218 O 0.49603 0.81914 0.83889 0.0
O219 O 0.58833 0.80559 -0.03475 0.0
O220 O 0.63705 0.7062 0.80213 0.0
O221 O 0.68466 0.89466 -0.04271 0.0
O222 O 0.7016 0.78159 0.8872 0.0
C223 C 0.4905 0.66434 0.78091 0.0
C224 C 0.74222 0.99756 0.74601 0.0
C225 C 0.4851 0.84542 0.78124 0.0
C226 C 0.64146 0.8117 0.58097 0.0
C227 C 0.63754 0.852 -0.00277 0.0
C228 C 0.66659 0.72122 0.86642 0.0
O229 O 0.50812 0.69481 0.84455 0.0
O230 O 0.39788 0.84791 0.71831 0.0
Zn231 Zn 0.33279 0.87628 0.73092 0.0
O232 O 0.25812 0.81302 0.78711 0.0
Zn233 Zn 0.20691 0.75002 0.7131 0.0
Zn234 Zn 0.29841 0.78585 0.85814 0.0
Zn235 Zn 0.21824 0.84873 0.84967 0.0
O236 O 0.11311 0.72667 0.72313 0.0
O237 O 0.12705 0.8157 0.78456 0.0
O238 O 0.31252 0.89516 0.62442 0.0
O239 O 0.23938 0.79058 0.6083 0.0
O240 O 0.21845 0.67234 0.72445 0.0
O241 O 0.26874 0.69448 0.83888 0.0
O242 O 0.2823 0.80033 -0.03477 0.0
O243 O 0.38169 0.94845 0.80213 0.0
O244 O 0.19323 0.80759 -0.04272 0.0
O245 O 0.3063 0.93761 0.88719 0.0
C246 C 0.42355 0.84377 0.78091 0.0
C247 C 0.09032 0.76225 0.74599 0.0
C248 C 0.24246 0.65727 0.78122 0.0
C249 C 0.27621 0.84737 0.58096 0.0
C250 C 0.23589 0.80313 -0.00278 0.0
C251 C 0.36667 0.96298 0.86642 0.0
O252 O 0.39308 0.83091 0.84455 0.0
O253 O 0.23996 0.56756 0.7183 0.0
Zn254 Zn 0.21159 0.4741 0.73092 0.0
O255 O 0.27485 0.4627 0.78711 0.0
Zn256 Zn 0.33786 0.4745 0.71311 0.0
Zn257 Zn 0.30202 0.53016 0.85814 0.0
Zn258 Zn 0.23915 0.38712 0.84968 0.0
O259 O 0.36121 0.40406 0.72314 0.0
O260 O 0.27219 0.32896 0.78457 0.0
O261 O 0.19271 0.43494 0.62442 0.0
O262 O 0.2973 0.4664 0.60831 0.0
O263 O 0.41554 0.56372 0.72446 0.0
O264 O 0.39339 0.59187 0.83889 0.0
O265 O 0.28753 0.49957 -0.03476 0.0
O266 O 0.13943 0.45084 0.80213 0.0
O267 O 0.2803 0.40326 -0.04271 0.0
O268 O 0.15028 0.38631 0.88721 0.0
C269 C 0.2441 0.59738 0.7809 0.0
C270 C 0.32564 0.34569 0.746 0.0
C271 C 0.43061 0.6028 0.78124 0.0
C272 C 0.24051 0.44643 0.58096 0.0
C273 C 0.28475 0.45037 -0.00277 0.0
C274 C 0.12491 0.42131 0.86643 0.0
O275 O 0.25696 0.57977 0.84454 0.0
O276 O 0.06454 0.90092 0.55166 0.0
Zn277 Zn 0.99946 0.80746 0.56425 0.0
O278 O 0.92478 0.79603 0.62044 0.0
Zn279 Zn 0.87359 0.80784 0.54642 0.0
Zn280 Zn 0.96507 0.86349 0.69148 0.0
Zn281 Zn 0.8849 0.72044 0.68299 0.0
O282 O 0.77979 0.73738 0.55643 0.0
O283 O 0.79371 0.66228 0.6179 0.0
O284 O 0.97919 0.76831 0.45775 0.0
O285 O 0.90608 0.79978 0.44163 0.0
O286 O 0.88513 0.89706 0.55779 0.0
O287 O 0.9354 0.92519 0.67223 0.0
O288 O 0.94896 0.83288 0.79857 0.0
O289 O 1.04835 0.78419 0.63547 0.0
O290 O 0.85989 0.73655 0.7906 0.0
O291 O 0.97295 0.71961 0.72051 0.0
C292 C 0.09022 0.93074 0.61425 0.0
C293 C 0.757 0.67903 0.57934 0.0
C294 C 0.90913 0.93613 0.61457 0.0
C295 C 0.94292 0.77983 0.41428 0.0
C296 C 0.90256 0.78366 0.83055 0.0
C297 C 1.03333 0.75463 0.69975 0.0
O298 O 0.05973 0.91312 0.67789 0.0
O299 O 0.187 0.18126 0.55165 0.0
Zn300 Zn 0.28046 0.20963 0.56426 0.0
O301 O 0.29188 0.14638 0.62045 0.0
Zn302 Zn 0.28006 0.08338 0.54643 0.0
Zn303 Zn 0.22442 0.11922 0.69148 0.0
Zn304 Zn 0.36747 0.18209 0.683 0.0
O305 O 0.35051 0.06003 0.55644 0.0
O306 O 0.42562 0.14905 0.61791 0.0
O307 O 0.31962 0.22852 0.45775 0.0
O308 O 0.28813 0.12393 0.44163 0.0
O309 O 0.19084 1.0057 0.5578 0.0
O310 O 0.16271 1.02783 0.67225 0.0
O311 O 0.25502 0.13373 0.79858 0.0
O312 O 0.30372 0.2818 0.63547 0.0
O313 O 0.35134 0.14096 0.79061 0.0
O314 O 0.36828 0.27096 0.72054 0.0
C315 C 0.15718 0.17711 0.61424 0.0
C316 C 0.40886 0.09558 0.57935 0.0
C317 C 0.15177 0.99063 0.61459 0.0
C318 C 0.30809 0.18072 0.41429 0.0
C319 C 0.30424 0.13653 0.83056 0.0
C320 C 0.33327 0.29633 0.69977 0.0
O321 O 0.17479 0.16425 0.67788 0.0
O322 O 0.90664 1.02335 0.55164 0.0
Zn323 Zn 0.87827 0.08843 0.56425 0.0
O324 O 0.94153 0.16311 0.62044 0.0
Zn325 Zn 1.00453 0.2143 0.54641 0.0
Zn326 Zn 0.96869 0.12282 0.69147 0.0
Zn327 Zn 0.90582 0.20299 0.68299 0.0
O328 O 1.02788 0.3081 0.55641 0.0
O329 O 0.93886 0.29418 0.6179 0.0
O330 O 0.85938 0.1087 0.45775 0.0
O331 O 0.96397 0.1818 0.44162 0.0
O332 O 0.08221 0.20276 0.55778 0.0
O333 O 0.06008 0.1525 0.67223 0.0
O334 O 0.95418 0.13891 0.79856 0.0
O335 O 0.80611 0.03954 0.63548 0.0
O336 O 0.94696 0.228 0.7906 0.0
O337 O 0.81695 0.11493 0.72053 0.0
C338 C 0.91078 0.99767 0.61424 0.0
C339 C 0.99232 0.33089 0.57934 0.0
C340 C 0.09729 0.17877 0.61458 0.0
C341 C 0.90718 0.14497 0.41428 0.0
C342 C 0.95138 0.18532 0.83055 0.0
C343 C 0.79158 0.05456 0.69976 0.0
O344 O 0.92365 1.02816 0.67788 0.0
O345 O 0.18699 1.02336 0.05164 0.0
Zn346 Zn 0.28045 0.08845 0.06425 0.0
O347 O 0.29187 0.16312 0.12045 0.0
Zn348 Zn 0.28007 0.21432 0.04644 0.0
Zn349 Zn 0.2244 0.12282 0.19147 0.0
Zn350 Zn 0.36746 0.20299 0.18301 0.0
O351 O 0.35051 0.30812 0.05647 0.0
O352 O 0.42562 0.29419 0.11791 0.0
O353 O 0.31961 0.10873 -0.04226 0.0
O354 O 0.28816 0.18186 0.94164 0.0
O355 O 0.19084 0.20276 0.05778 0.0
O356 O 0.16269 0.15248 0.17221 0.0
O357 O 0.25499 0.13893 0.29857 0.0
O358 O 0.30372 0.03954 0.13545 0.0
O359 O 0.35133 0.228 0.29062 0.0
O360 O 0.36827 0.11493 0.22052 0.0
C361 C 0.15717 0.99768 0.11423 0.0
C362 C 0.40887 0.3309 0.07937 0.0
C363 C 0.15176 0.17875 0.11456 0.0
C364 C 0.30813 0.14503 0.91429 0.0
C365 C 0.30421 0.18534 0.33055 0.0
C366 C 0.33326 0.05456 0.19974 0.0
O367 O 0.17479 1.02816 0.17787 0.0
O368 O 0.06454 0.18124 0.05163 0.0
Zn369 Zn 0.99945 0.20961 0.06424 0.0
O370 O 0.92477 0.14635 0.12043 0.0
Zn371 Zn 0.87357 0.08335 0.04641 0.0
Zn372 Zn 0.96507 0.11919 0.19145 0.0
Zn373 Zn 0.8849 0.18206 0.183 0.0
O374 O 0.77977 0.06 0.05644 0.0
O375 O 0.79371 0.14903 0.1179 0.0
O376 O 0.97918 0.22849 -0.04226 0.0
O377 O 0.90604 0.12391 0.94162 0.0
O378 O 0.88511 1.00567 0.05776 0.0
O379 O 0.93541 1.02781 0.17219 0.0
O380 O 0.94896 0.13366 0.29855 0.0
O381 O 1.04835 0.28178 0.13545 0.0
O382 O 0.8599 0.14093 0.29061 0.0
O383 O 0.97296 0.27094 0.22051 0.0
C384 C 0.09022 0.1771 0.11423 0.0
C385 C 0.75699 0.09557 0.07935 0.0
C386 C 0.90913 0.9906 0.11454 0.0
C387 C 0.94287 0.1807 0.91428 0.0
C388 C 0.90256 0.13646 0.33054 0.0
C389 C 1.03334 0.29631 0.19974 0.0
O390 O 0.05974 0.16424 0.17787 0.0
O391 O 0.90664 0.90089 0.05162 0.0
Zn392 Zn 0.87827 0.80744 0.06424 0.0
O393 O 0.94153 0.79603 0.12043 0.0
Zn394 Zn 1.00453 0.80784 0.04642 0.0
Zn395 Zn 0.96869 0.86349 0.19146 0.0
Zn396 Zn 0.90582 0.72045 0.18301 0.0
O397 O 1.02789 0.7374 0.05645 0.0
O398 O 0.93886 0.66229 0.11792 0.0
O399 O 0.85938 0.76827 -0.04226 0.0
O400 O 0.96397 0.79974 0.94162 0.0
O401 O 0.08221 0.89706 0.05778 0.0
O402 O 0.06006 0.9252 0.17221 0.0
O403 O 0.9542 0.83291 0.29856 0.0
O404 O 0.8061 0.78417 0.13546 0.0
O405 O 0.94697 0.73659 0.29061 0.0
O406 O 0.81695 0.71964 0.22054 0.0
C407 C 0.91077 0.93071 0.11421 0.0
C408 C 0.99233 0.67905 0.07936 0.0
C409 C 0.09728 0.93614 0.11456 0.0
C410 C 0.90718 0.77977 0.91429 0.0
C411 C 0.95141 0.78371 0.33055 0.0
C412 C 0.79158 0.75464 0.19975 0.0
O413 O 0.92363 0.9131 0.17785 0.0
loop_
_geom_bond_atom_site_label_1
_geom_bond_atom_site_label_2
_geom_bond_distance
_geom_bond_site_symmetry_2
_ccdc_geom_bond_type
O0 Zn1 1.953 . S
O0 C16 1.225 1_556 S
Zn1 O0 1.953 . S
Zn1 O2 1.949 1_556 S
Zn1 O8 1.919 . S
Zn1 O13 1.924 . S
O2 Zn1 1.949 1_554 S
O2 Zn3 1.923 1_554 S
O2 Zn4 1.950 . S
O2 Zn5 1.945 . S
Zn3 O2 1.923 1_556 S
Zn3 O6 1.933 . S
Zn3 O9 1.941 . S
Zn3 O10 1.965 . S
Zn4 O2 1.950 . S
Zn4 O11 1.938 . S
Zn4 O12 1.906 . S
Zn4 O22 1.953 . S
Zn5 O2 1.945 . S
Zn5 O7 1.932 1_545 S
Zn5 O14 1.977 . S
Zn5 O15 1.910 . S
O6 Zn3 1.933 . S
O6 C17 1.226 1_545 S
O7 Zn5 1.932 1_565 S
O7 C17 1.307 1_554 S
O8 Zn1 1.919 . S
O8 C19 1.253 . S
O9 Zn3 1.941 . S
O9 C19 1.283 . S
O10 Zn3 1.965 . S
O10 C18 1.303 1_556 S
O11 Zn4 1.938 . S
O11 C18 1.247 . S
O12 Zn4 1.906 . S
O12 C20 1.304 . S
O13 Zn1 1.924 . S
O13 C21 1.311 1_556 S
O14 Zn5 1.977 . S
O14 C20 1.272 . S
O15 Zn5 1.910 . S
O15 C21 1.231 . S
C16 O0 1.225 1_554 S
C16 O22 1.298 . S
C17 O6 1.226 1_565 S
C17 O7 1.307 1_556 S
C18 O10 1.303 1_554 S
C18 O11 1.247 . S
C19 O8 1.253 . S
C19 O9 1.283 . S
C20 O12 1.304 . S
C20 O14 1.272 . S
C21 O13 1.311 1_554 S
C21 O15 1.231 . S
O22 Zn4 1.953 . S
O22 C16 1.298 . S
O23 Zn24 1.953 . S
O23 C39 1.225 1_556 S
Zn24 O23 1.953 . S
Zn24 O25 1.949 1_556 S
Zn24 O31 1.919 . S
Zn24 O36 1.924 . S
O25 Zn24 1.949 1_554 S
O25 Zn26 1.923 1_554 S
O25 Zn27 1.950 . S
O25 Zn28 1.945 . S
Zn26 O25 1.923 1_556 S
Zn26 O29 1.933 . S
Zn26 O32 1.941 . S
Zn26 O33 1.965 . S
Zn27 O25 1.950 . S
Zn27 O34 1.938 . S
Zn27 O35 1.906 . S
Zn27 O45 1.953 . S
Zn28 O25 1.945 . S
Zn28 O30 1.932 1_655 S
Zn28 O37 1.977 . S
Zn28 O38 1.910 . S
O29 Zn26 1.933 . S
O29 C40 1.226 1_655 S
O30 Zn28 1.932 1_455 S
O30 C40 1.307 1_554 S
O31 Zn24 1.919 . S
O31 C42 1.253 . S
O32 Zn26 1.941 . S
O32 C42 1.283 . S
O33 Zn26 1.965 . S
O33 C41 1.303 1_556 S
O34 Zn27 1.938 . S
O34 C41 1.247 . S
O35 Zn27 1.906 . S
O35 C43 1.304 . S
O36 Zn24 1.924 . S
O36 C44 1.311 1_556 S
O37 Zn28 1.977 . S
O37 C43 1.272 . S
O38 Zn28 1.910 . S
O38 C44 1.231 . S
C39 O23 1.225 1_554 S
C39 O45 1.298 . S
C40 O29 1.226 1_455 S
C40 O30 1.307 1_556 S
C41 O33 1.303 1_554 S
C41 O34 1.247 . S
C42 O31 1.253 . S
C42 O32 1.283 . S
C43 O35 1.304 . S
C43 O37 1.272 . S
C44 O36 1.311 1_554 S
C44 O38 1.231 . S
O45 Zn27 1.953 . S
O45 C39 1.298 . S
O46 Zn47 1.953 . S
O46 C62 1.225 1_556 S
Zn47 O46 1.953 . S
Zn47 O48 1.949 1_556 S
Zn47 O54 1.919 . S
Zn47 O59 1.924 . S
O48 Zn47 1.949 1_554 S
O48 Zn49 1.923 1_554 S
O48 Zn50 1.950 . S
O48 Zn51 1.945 . S
Zn49 O48 1.923 1_556 S
Zn49 O52 1.933 . S
Zn49 O55 1.941 . S
Zn49 O56 1.965 . S
Zn50 O48 1.950 . S
Zn50 O57 1.938 . S
Zn50 O58 1.906 . S
Zn50 O68 1.953 . S
Zn51 O48 1.945 . S
Zn51 O53 1.932 . S
Zn51 O60 1.977 . S
Zn51 O61 1.910 . S
O52 Zn49 1.933 . S
O52 C63 1.226 . S
O53 Zn51 1.932 . S
O53 C63 1.307 1_554 S
O54 Zn47 1.919 . S
O54 C65 1.253 . S
O55 Zn49 1.941 . S
O55 C65 1.283 . S
O56 Zn49 1.965 . S
O56 C64 1.303 1_556 S
O57 Zn50 1.938 . S
O57 C64 1.247 . S
O58 Zn50 1.906 . S
O58 C66 1.304 . S
O59 Zn47 1.924 . S
O59 C67 1.311 1_556 S
O60 Zn51 1.977 . S
O60 C66 1.272 . S
O61 Zn51 1.910 . S
O61 C67 1.231 . S
C62 O46 1.225 1_554 S
C62 O68 1.298 . S
C63 O52 1.226 . S
C63 O53 1.307 1_556 S
C64 O56 1.303 1_554 S
C64 O57 1.247 . S
C65 O54 1.253 . S
C65 O55 1.283 . S
C66 O58 1.304 . S
C66 O60 1.272 . S
C67 O59 1.311 1_554 S
C67 O61 1.231 . S
O68 Zn50 1.953 . S
O68 C62 1.298 . S
O69 Zn70 1.953 . S
O69 C85 1.225 . S
Zn70 O69 1.953 . S
Zn70 O71 1.949 . S
Zn70 O77 1.919 . S
Zn70 O82 1.924 . S
O71 Zn70 1.949 . S
O71 Zn72 1.923 . S
O71 Zn73 1.950 . S
O71 Zn74 1.945 . S
Zn72 O71 1.923 . S
Zn72 O75 1.933 . S
Zn72 O78 1.941 . S
Zn72 O79 1.965 . S
Zn73 O71 1.950 . S
Zn73 O80 1.938 . S
Zn73 O81 1.906 . S
Zn73 O91 1.953 . S
Zn74 O71 1.945 . S
Zn74 O76 1.932 1_655 S
Zn74 O83 1.977 . S
Zn74 O84 1.910 . S
O75 Zn72 1.933 . S
O75 C86 1.226 1_655 S
O76 Zn74 1.932 1_455 S
O76 C86 1.307 . S
O77 Zn70 1.919 . S
O77 C88 1.253 . S
O78 Zn72 1.941 . S
O78 C88 1.283 . S
O79 Zn72 1.965 . S
O79 C87 1.303 . S
O80 Zn73 1.938 . S
O80 C87 1.247 . S
O81 Zn73 1.906 . S
O81 C89 1.304 . S
O82 Zn70 1.924 . S
O82 C90 1.311 . S
O83 Zn74 1.977 . S
O83 C89 1.272 . S
O84 Zn74 1.910 . S
O84 C90 1.231 . S
C85 O69 1.225 . S
C85 O91 1.298 . S
C86 O75 1.226 1_455 S
C86 O76 1.307 . S
C87 O79 1.303 . S
C87 O80 1.247 . S
C88 O77 1.253 . S
C88 O78 1.283 . S
C89 O81 1.304 . S
C89 O83 1.272 . S
C90 O82 1.311 . S
C90 O84 1.231 . S
O91 Zn73 1.953 . S
O91 C85 1.298 . S
O92 Zn93 1.953 . S
O92 C108 1.225 . S
Zn93 O92 1.953 . S
Zn93 O94 1.949 . S
Zn93 O100 1.919 . S
Zn93 O105 1.924 . S
O94 Zn93 1.949 . S
O94 Zn95 1.923 . S
O94 Zn96 1.950 . S
O94 Zn97 1.945 . S
Zn95 O94 1.923 . S
Zn95 O98 1.933 . S
Zn95 O101 1.941 . S
Zn95 O102 1.965 . S
Zn96 O94 1.950 . S
Zn96 O103 1.938 . S
Zn96 O104 1.906 . S
Zn96 O114 1.953 . S
Zn97 O94 1.945 . S
Zn97 O99 1.932 . S
Zn97 O106 1.977 . S
Zn97 O107 1.910 . S
O98 Zn95 1.933 . S
O98 C109 1.226 . S
O99 Zn97 1.932 . S
O99 C109 1.307 . S
O100 Zn93 1.919 . S
O100 C111 1.253 . S
O101 Zn95 1.941 . S
O101 C111 1.283 . S
O102 Zn95 1.965 . S
O102 C110 1.303 . S
O103 Zn96 1.938 . S
O103 C110 1.247 . S
O104 Zn96 1.906 . S
O104 C112 1.304 . S
O105 Zn93 1.924 . S
O105 C113 1.311 . S
O106 Zn97 1.977 . S
O106 C112 1.272 . S
O107 Zn97 1.910 . S
O107 C113 1.231 . S
C108 O92 1.225 . S
C108 O114 1.298 . S
C109 O98 1.226 . S
C109 O99 1.307 . S
C110 O102 1.303 . S
C110 O103 1.247 . S
C111 O100 1.253 . S
C111 O101 1.283 . S
C112 O104 1.304 . S
C112 O106 1.272 . S
C113 O105 1.311 . S
C113 O107 1.231 . S
O114 Zn96 1.953 . S
O114 C108 1.298 . S
O115 Zn116 1.953 . S
O115 C131 1.225 . S
Zn116 O115 1.953 . S
Zn116 O117 1.949 . S
Zn116 O123 1.919 . S
Zn116 O128 1.924 . S
O117 Zn116 1.949 . S
O117 Zn118 1.923 . S
O117 Zn119 1.950 . S
O117 Zn120 1.945 . S
Zn118 O117 1.923 . S
Zn118 O121 1.933 . S
Zn118 O124 1.941 . S
Zn118 O125 1.965 . S
Zn119 O117 1.950 . S
Zn119 O126 1.938 . S
Zn119 O127 1.906 . S
Zn119 O137 1.953 . S
Zn120 O117 1.945 . S
Zn120 O122 1.932 1_545 S
Zn120 O129 1.977 . S
Zn120 O130 1.910 . S
O121 Zn118 1.933 . S
O121 C132 1.226 1_545 S
O122 Zn120 1.932 1_565 S
O122 C132 1.307 . S
O123 Zn116 1.919 . S
O123 C134 1.253 . S
O124 Zn118 1.941 . S
O124 C134 1.283 . S
O125 Zn118 1.965 . S
O125 C133 1.303 . S
O126 Zn119 1.938 . S
O126 C133 1.247 . S
O127 Zn119 1.906 . S
O127 C135 1.304 . S
O128 Zn116 1.924 . S
O128 C136 1.311 . S
O129 Zn120 1.977 . S
O129 C135 1.272 . S
O130 Zn120 1.910 . S
O130 C136 1.231 . S
C131 O115 1.225 . S
C131 O137 1.298 . S
C132 O121 1.226 1_565 S
C132 O122 1.307 . S
C133 O125 1.303 . S
C133 O126 1.247 . S
C134 O123 1.253 . S
C134 O124 1.283 . S
C135 O127 1.304 . S
C135 O129 1.272 . S
C136 O128 1.311 . S
C136 O130 1.231 . S
O137 Zn119 1.953 . S
O137 C131 1.298 . S
O138 Zn139 1.953 . S
O138 C154 1.225 . S
Zn139 O138 1.953 . S
Zn139 O140 1.949 . S
Zn139 O146 1.919 . S
Zn139 O151 1.924 . S
O140 Zn139 1.949 . S
O140 Zn141 1.923 . S
O140 Zn142 1.950 . S
O140 Zn143 1.945 . S
Zn141 O140 1.923 . S
Zn141 O144 1.933 . S
Zn141 O147 1.941 . S
Zn141 O148 1.965 . S
Zn142 O140 1.950 . S
Zn142 O149 1.938 . S
Zn142 O150 1.906 . S
Zn142 O160 1.953 . S
Zn143 O140 1.945 . S
Zn143 O145 1.932 . S
Zn143 O152 1.977 . S
Zn143 O153 1.910 . S
O144 Zn141 1.933 . S
O144 C155 1.226 . S
O145 Zn143 1.932 . S
O145 C155 1.307 . S
O146 Zn139 1.919 . S
O146 C157 1.253 . S
O147 Zn141 1.941 . S
O147 C157 1.283 . S
O148 Zn141 1.965 . S
O148 C156 1.303 . S
O149 Zn142 1.938 . S
O149 C156 1.247 . S
O150 Zn142 1.906 . S
O150 C158 1.304 . S
O151 Zn139 1.924 . S
O151 C159 1.311 . S
O152 Zn143 1.977 . S
O152 C158 1.272 . S
O153 Zn143 1.910 . S
O153 C159 1.231 . S
C154 O138 1.225 . S
C154 O160 1.298 . S
C155 O144 1.226 . S
C155 O145 1.307 . S
C156 O148 1.303 . S
C156 O149 1.247 . S
C157 O146 1.253 . S
C157 O147 1.283 . S
C158 O150 1.304 . S
C158 O152 1.272 . S
C159 O151 1.311 . S
C159 O153 1.231 . S
O160 Zn142 1.953 . S
O160 C154 1.298 . S
O161 Zn162 1.953 . S
O161 C177 1.225 . S
Zn162 O161 1.953 . S
Zn162 O163 1.949 . S
Zn162 O169 1.919 . S
Zn162 O174 1.924 . S
O163 Zn162 1.949 . S
O163 Zn164 1.923 . S
O163 Zn165 1.950 . S
O163 Zn166 1.945 . S
Zn164 O163 1.923 . S
Zn164 O167 1.933 . S
Zn164 O170 1.941 . S
Zn164 O171 1.965 . S
Zn165 O163 1.950 . S
Zn165 O172 1.938 . S
Zn165 O173 1.906 . S
Zn165 O183 1.953 . S
Zn166 O163 1.945 . S
Zn166 O168 1.932 . S
Zn166 O175 1.977 . S
Zn166 O176 1.910 . S
O167 Zn164 1.933 . S
O167 C178 1.226 . S
O168 Zn166 1.932 . S
O168 C178 1.307 . S
O169 Zn162 1.919 . S
O169 C180 1.253 . S
O170 Zn164 1.941 . S
O170 C180 1.283 . S
O171 Zn164 1.965 . S
O171 C179 1.303 . S
O172 Zn165 1.938 . S
O172 C179 1.247 . S
O173 Zn165 1.906 . S
O173 C181 1.304 . S
O174 Zn162 1.924 . S
O174 C182 1.311 . S
O175 Zn166 1.977 . S
O175 C181 1.272 . S
O176 Zn166 1.910 . S
O176 C182 1.231 . S
C177 O161 1.225 . S
C177 O183 1.298 . S
C178 O167 1.226 . S
C178 O168 1.307 . S
C179 O171 1.303 . S
C179 O172 1.247 . S
C180 O169 1.253 . S
C180 O170 1.283 . S
C181 O173 1.304 . S
C181 O175 1.272 . S
C182 O174 1.311 . S
C182 O176 1.231 . S
O183 Zn165 1.953 . S
O183 C177 1.298 . S
O184 Zn185 1.953 . S
O184 C200 1.225 . S
Zn185 O184 1.953 . S
Zn185 O186 1.949 . S
Zn185 O192 1.919 . S
Zn185 O197 1.924 . S
O186 Zn185 1.949 . S
O186 Zn187 1.923 . S
O186 Zn188 1.950 . S
O186 Zn189 1.945 . S
Zn187 O186 1.923 . S
Zn187 O190 1.933 . S
Zn187 O193 1.941 . S
Zn187 O194 1.965 . S
Zn188 O186 1.950 . S
Zn188 O195 1.938 . S
Zn188 O196 1.906 . S
Zn188 O206 1.953 . S
Zn189 O186 1.945 . S
Zn189 O191 1.932 . S
Zn189 O198 1.977 . S
Zn189 O199 1.910 . S
O190 Zn187 1.933 . S
O190 C201 1.226 . S
O191 Zn189 1.932 . S
O191 C201 1.307 . S
O192 Zn185 1.919 . S
O192 C203 1.253 . S
O193 Zn187 1.941 . S
O193 C203 1.283 . S
O194 Zn187 1.965 . S
O194 C202 1.303 . S
O195 Zn188 1.938 . S
O195 C202 1.247 . S
O196 Zn188 1.906 . S
O196 C204 1.304 . S
O197 Zn185 1.924 . S
O197 C205 1.311 . S
O198 Zn189 1.977 . S
O198 C204 1.272 . S
O199 Zn189 1.910 . S
O199 C205 1.231 . S
C200 O184 1.225 . S
C200 O206 1.298 . S
C201 O190 1.226 . S
C201 O191 1.307 . S
C202 O194 1.303 . S
C202 O195 1.247 . S
C203 O192 1.253 . S
C203 O193 1.283 . S
C204 O196 1.304 . S
C204 O198 1.272 . S
C205 O197 1.311 . S
C205 O199 1.231 . S
O206 Zn188 1.953 . S
O206 C200 1.298 . S
O207 Zn208 1.953 . S
O207 C223 1.225 . S
Zn208 O207 1.953 . S
Zn208 O209 1.949 . S
Zn208 O215 1.919 . S
Zn208 O220 1.924 . S
O209 Zn208 1.949 . S
O209 Zn210 1.923 . S
O209 Zn211 1.950 . S
O209 Zn212 1.945 . S
Zn210 O209 1.923 . S
Zn210 O213 1.933 . S
Zn210 O216 1.941 . S
Zn210 O217 1.965 . S
Zn211 O209 1.950 . S
Zn211 O218 1.938 . S
Zn211 O219 1.906 1_556 S
Zn211 O229 1.953 . S
Zn212 O209 1.945 . S
Zn212 O214 1.932 . S
Zn212 O221 1.977 1_556 S
Zn212 O222 1.910 . S
O213 Zn210 1.933 . S
O213 C224 1.226 . S
O214 Zn212 1.932 . S
O214 C224 1.307 . S
O215 Zn208 1.919 . S
O215 C226 1.253 . S
O216 Zn210 1.941 . S
O216 C226 1.283 . S
O217 Zn210 1.965 . S
O217 C225 1.303 . S
O218 Zn211 1.938 . S
O218 C225 1.247 . S
O219 Zn211 1.906 1_554 S
O219 C227 1.304 . S
O220 Zn208 1.924 . S
O220 C228 1.311 . S
O221 Zn212 1.977 1_554 S
O221 C227 1.272 . S
O222 Zn212 1.910 . S
O222 C228 1.231 . S
C223 O207 1.225 . S
C223 O229 1.298 . S
C224 O213 1.226 . S
C224 O214 1.307 . S
C225 O217 1.303 . S
C225 O218 1.247 . S
C226 O215 1.253 . S
C226 O216 1.283 . S
C227 O219 1.304 . S
C227 O221 1.272 . S
C228 O220 1.311 . S
C228 O222 1.231 . S
O229 Zn211 1.953 . S
O229 C223 1.298 . S
O230 Zn231 1.953 . S
O230 C246 1.225 . S
Zn231 O230 1.953 . S
Zn231 O232 1.949 . S
Zn231 O238 1.919 . S
Zn231 O243 1.924 . S
O232 Zn231 1.949 . S
O232 Zn233 1.923 . S
O232 Zn234 1.950 . S
O232 Zn235 1.945 . S
Zn233 O232 1.923 . S
Zn233 O236 1.933 . S
Zn233 O239 1.941 . S
Zn233 O240 1.965 . S
Zn234 O232 1.950 . S
Zn234 O241 1.938 . S
Zn234 O242 1.906 1_556 S
Zn234 O252 1.953 . S
Zn235 O232 1.945 . S
Zn235 O237 1.932 . S
Zn235 O244 1.977 1_556 S
Zn235 O245 1.910 . S
O236 Zn233 1.933 . S
O236 C247 1.226 . S
O237 Zn235 1.932 . S
O237 C247 1.307 . S
O238 Zn231 1.919 . S
O238 C249 1.253 . S
O239 Zn233 1.941 . S
O239 C249 1.283 . S
O240 Zn233 1.965 . S
O240 C248 1.303 . S
O241 Zn234 1.938 . S
O241 C248 1.247 . S
O242 Zn234 1.906 1_554 S
O242 C250 1.304 . S
O243 Zn231 1.924 . S
O243 C251 1.311 . S
O244 Zn235 1.977 1_554 S
O244 C250 1.272 . S
O245 Zn235 1.910 . S
O245 C251 1.231 . S
C246 O230 1.225 . S
C246 O252 1.298 . S
C247 O236 1.226 . S
C247 O237 1.307 . S
C248 O240 1.303 . S
C248 O241 1.247 . S
C249 O238 1.253 . S
C249 O239 1.283 . S
C250 O242 1.304 . S
C250 O244 1.272 . S
C251 O243 1.311 . S
C251 O245 1.231 . S
O252 Zn234 1.953 . S
O252 C246 1.298 . S
O253 Zn254 1.953 . S
O253 C269 1.225 . S
Zn254 O253 1.953 . S
Zn254 O255 1.949 . S
Zn254 O261 1.919 . S
Zn254 O266 1.924 . S
O255 Zn254 1.949 . S
O255 Zn256 1.923 . S
O255 Zn257 1.950 . S
O255 Zn258 1.945 . S
Zn256 O255 1.923 . S
Zn256 O259 1.933 . S
Zn256 O262 1.941 . S
Zn256 O263 1.965 . S
Zn257 O255 1.950 . S
Zn257 O264 1.938 . S
Zn257 O265 1.906 1_556 S
Zn257 O275 1.953 . S
Zn258 O255 1.945 . S
Zn258 O260 1.932 . S
Zn258 O267 1.977 1_556 S
Zn258 O268 1.910 . S
O259 Zn256 1.933 . S
O259 C270 1.226 . S
O260 Zn258 1.932 . S
O260 C270 1.307 . S
O261 Zn254 1.919 . S
O261 C272 1.253 . S
O262 Zn256 1.941 . S
O262 C272 1.283 . S
O263 Zn256 1.965 . S
O263 C271 1.303 . S
O264 Zn257 1.938 . S
O264 C271 1.247 . S
O265 Zn257 1.906 1_554 S
O265 C273 1.304 . S
O266 Zn254 1.924 . S
O266 C274 1.311 . S
O267 Zn258 1.977 1_554 S
O267 C273 1.272 . S
O268 Zn258 1.910 . S
O268 C274 1.231 . S
C269 O253 1.225 . S
C269 O275 1.298 . S
C270 O259 1.226 . S
C270 O260 1.307 . S
C271 O263 1.303 . S
C271 O264 1.247 . S
C272 O261 1.253 . S
C272 O262 1.283 . S
C273 O265 1.304 . S
C273 O267 1.272 . S
C274 O266 1.311 . S
C274 O268 1.231 . S
O275 Zn257 1.953 . S
O275 C269 1.298 . S
O276 Zn277 1.953 1_455 S
O276 C292 1.225 . S
Zn277 O276 1.953 1_655 S
Zn277 O278 1.949 . S
Zn277 O284 1.919 . S
Zn277 O289 1.924 1_655 S
O278 Zn277 1.949 . S
O278 Zn279 1.923 . S
O278 Zn280 1.950 . S
O278 Zn281 1.945 . S
Zn279 O278 1.923 . S
Zn279 O282 1.933 . S
Zn279 O285 1.941 . S
Zn279 O286 1.965 . S
Zn280 O278 1.950 . S
Zn280 O287 1.938 . S
Zn280 O288 1.906 . S
Zn280 O298 1.953 1_655 S
Zn281 O278 1.945 . S
Zn281 O283 1.932 . S
Zn281 O290 1.977 . S
Zn281 O291 1.910 . S
O282 Zn279 1.933 . S
O282 C293 1.226 . S
O283 Zn281 1.932 . S
O283 C293 1.307 . S
O284 Zn277 1.919 . S
O284 C295 1.253 . S
O285 Zn279 1.941 . S
O285 C295 1.283 . S
O286 Zn279 1.965 . S
O286 C294 1.303 . S
O287 Zn280 1.938 . S
O287 C294 1.247 . S
O288 Zn280 1.906 . S
O288 C296 1.304 . S
O289 Zn277 1.924 1_455 S
O289 C297 1.311 . S
O290 Zn281 1.977 . S
O290 C296 1.272 . S
O291 Zn281 1.910 . S
O291 C297 1.231 1_655 S
C292 O276 1.225 . S
C292 O298 1.298 . S
C293 O282 1.226 . S
C293 O283 1.307 . S
C294 O286 1.303 . S
C294 O287 1.247 . S
C295 O284 1.253 . S
C295 O285 1.283 . S
C296 O288 1.304 . S
C296 O290 1.272 . S
C297 O289 1.311 . S
C297 O291 1.231 1_455 S
O298 Zn280 1.953 1_455 S
O298 C292 1.298 . S
O299 Zn300 1.953 . S
O299 C315 1.225 . S
Zn300 O299 1.953 . S
Zn300 O301 1.949 . S
Zn300 O307 1.919 . S
Zn300 O312 1.924 . S
O301 Zn300 1.949 . S
O301 Zn302 1.923 . S
O301 Zn303 1.950 . S
O301 Zn304 1.945 . S
Zn302 O301 1.923 . S
Zn302 O305 1.933 . S
Zn302 O308 1.941 . S
Zn302 O309 1.965 1_545 S
Zn303 O301 1.950 . S
Zn303 O310 1.938 1_545 S
Zn303 O311 1.906 . S
Zn303 O321 1.953 . S
Zn304 O301 1.945 . S
Zn304 O306 1.932 . S
Zn304 O313 1.977 . S
Zn304 O314 1.910 . S
O305 Zn302 1.933 . S
O305 C316 1.226 . S
O306 Zn304 1.932 . S
O306 C316 1.307 . S
O307 Zn300 1.919 . S
O307 C318 1.253 . S
O308 Zn302 1.941 . S
O308 C318 1.283 . S
O309 Zn302 1.965 1_565 S
O309 C317 1.303 . S
O310 Zn303 1.938 1_565 S
O310 C317 1.247 . S
O311 Zn303 1.906 . S
O311 C319 1.304 . S
O312 Zn300 1.924 . S
O312 C320 1.311 . S
O313 Zn304 1.977 . S
O313 C319 1.272 . S
O314 Zn304 1.910 . S
O314 C320 1.231 . S
C315 O299 1.225 . S
C315 O321 1.298 . S
C316 O305 1.226 . S
C316 O306 1.307 . S
C317 O309 1.303 . S
C317 O310 1.247 . S
C318 O307 1.253 . S
C318 O308 1.283 . S
C319 O311 1.304 . S
C319 O313 1.272 . S
C320 O312 1.311 . S
C320 O314 1.231 . S
O321 Zn303 1.953 . S
O321 C315 1.298 . S
O322 Zn323 1.953 1_565 S
O322 C338 1.225 . S
Zn323 O322 1.953 1_545 S
Zn323 O324 1.949 . S
Zn323 O330 1.919 . S
Zn323 O335 1.924 1_545 S
O324 Zn323 1.949 . S
O324 Zn325 1.923 . S
O324 Zn326 1.950 . S
O324 Zn327 1.945 . S
Zn325 O324 1.923 . S
Zn325 O328 1.933 . S
Zn325 O331 1.941 . S
Zn325 O332 1.965 1_655 S
Zn326 O324 1.950 . S
Zn326 O333 1.938 1_655 S
Zn326 O334 1.906 . S
Zn326 O344 1.953 1_545 S
Zn327 O324 1.945 . S
Zn327 O329 1.932 . S
Zn327 O336 1.977 . S
Zn327 O337 1.910 . S
O328 Zn325 1.933 . S
O328 C339 1.226 . S
O329 Zn327 1.932 . S
O329 C339 1.307 . S
O330 Zn323 1.919 . S
O330 C341 1.253 . S
O331 Zn325 1.941 . S
O331 C341 1.283 . S
O332 Zn325 1.965 1_455 S
O332 C340 1.303 . S
O333 Zn326 1.938 1_455 S
O333 C340 1.247 . S
O334 Zn326 1.906 . S
O334 C342 1.304 . S
O335 Zn323 1.924 1_565 S
O335 C343 1.311 . S
O336 Zn327 1.977 . S
O336 C342 1.272 . S
O337 Zn327 1.910 . S
O337 C343 1.231 1_545 S
C338 O322 1.225 . S
C338 O344 1.298 . S
C339 O328 1.226 . S
C339 O329 1.307 . S
C340 O332 1.303 . S
C340 O333 1.247 . S
C341 O330 1.253 . S
C341 O331 1.283 . S
C342 O334 1.304 . S
C342 O336 1.272 . S
C343 O335 1.311 . S
C343 O337 1.231 1_565 S
O344 Zn326 1.953 1_565 S
O344 C338 1.298 . S
O345 Zn346 1.953 1_565 S
O345 C361 1.225 . S
Zn346 O345 1.953 1_545 S
Zn346 O347 1.949 . S
Zn346 O353 1.919 1_554 S
Zn346 O358 1.924 1_545 S
O347 Zn346 1.949 . S
O347 Zn348 1.923 . S
O347 Zn349 1.950 . S
O347 Zn350 1.945 . S
Zn348 O347 1.923 . S
Zn348 O351 1.933 . S
Zn348 O354 1.941 1_554 S
Zn348 O355 1.965 . S
Zn349 O347 1.950 . S
Zn349 O356 1.938 . S
Zn349 O357 1.906 . S
Zn349 O367 1.953 1_545 S
Zn350 O347 1.945 . S
Zn350 O352 1.932 . S
Zn350 O359 1.977 . S
Zn350 O360 1.910 . S
O351 Zn348 1.933 . S
O351 C362 1.226 . S
O352 Zn350 1.932 . S
O352 C362 1.307 . S
O353 Zn346 1.919 1_556 S
O353 C364 1.253 . S
O354 Zn348 1.941 1_556 S
O354 C364 1.283 . S
O355 Zn348 1.965 . S
O355 C363 1.303 . S
O356 Zn349 1.938 . S
O356 C363 1.247 . S
O357 Zn349 1.906 . S
O357 C365 1.304 . S
O358 Zn346 1.924 1_565 S
O358 C366 1.311 . S
O359 Zn350 1.977 . S
O359 C365 1.272 . S
O360 Zn350 1.910 . S
O360 C366 1.231 1_545 S
C361 O345 1.225 . S
C361 O367 1.298 . S
C362 O351 1.226 . S
C362 O352 1.307 . S
C363 O355 1.303 . S
C363 O356 1.247 . S
C364 O353 1.253 . S
C364 O354 1.283 . S
C365 O357 1.304 . S
C365 O359 1.272 . S
C366 O358 1.311 . S
C366 O360 1.231 1_565 S
O367 Zn349 1.953 1_565 S
O367 C361 1.298 . S
O368 Zn369 1.953 1_455 S
O368 C384 1.225 . S
Zn369 O368 1.953 1_655 S
Zn369 O370 1.949 . S
Zn369 O376 1.919 1_554 S
Zn369 O381 1.924 1_655 S
O370 Zn369 1.949 . S
O370 Zn371 1.923 . S
O370 Zn372 1.950 . S
O370 Zn373 1.945 . S
Zn371 O370 1.923 . S
Zn371 O374 1.933 . S
Zn371 O377 1.941 1_554 S
Zn371 O378 1.965 1_545 S
Zn372 O370 1.950 . S
Zn372 O379 1.938 1_545 S
Zn372 O380 1.906 . S
Zn372 O390 1.953 1_655 S
Zn373 O370 1.945 . S
Zn373 O375 1.932 . S
Zn373 O382 1.977 . S
Zn373 O383 1.910 . S
O374 Zn371 1.933 . S
O374 C385 1.226 . S
O375 Zn373 1.932 . S
O375 C385 1.307 . S
O376 Zn369 1.919 1_556 S
O376 C387 1.253 . S
O377 Zn371 1.941 1_556 S
O377 C387 1.283 . S
O378 Zn371 1.965 1_565 S
O378 C386 1.303 . S
O379 Zn372 1.938 1_565 S
O379 C386 1.247 . S
O380 Zn372 1.906 . S
O380 C388 1.304 . S
O381 Zn369 1.924 1_455 S
O381 C389 1.311 . S
O382 Zn373 1.977 . S
O382 C388 1.272 . S
O383 Zn373 1.910 . S
O383 C389 1.231 1_655 S
C384 O368 1.225 . S
C384 O390 1.298 . S
C385 O374 1.226 . S
C385 O375 1.307 . S
C386 O378 1.303 . S
C386 O379 1.247 . S
C387 O376 1.253 . S
C387 O377 1.283 . S
C388 O380 1.304 . S
C388 O382 1.272 . S
C389 O381 1.311 . S
C389 O383 1.231 1_455 S
O390 Zn372 1.953 1_455 S
O390 C384 1.298 . S
O391 Zn392 1.953 . S
O391 C407 1.225 . S
Zn392 O391 1.953 . S
Zn392 O393 1.949 . S
Zn392 O399 1.919 1_554 S
Zn392 O404 1.924 . S
O393 Zn392 1.949 . S
O393 Zn394 1.923 . S
O393 Zn395 1.950 . S
O393 Zn396 1.945 . S
Zn394 O393 1.923 . S
Zn394 O397 1.933 . S
Zn394 O400 1.941 1_554 S
Zn394 O401 1.965 1_655 S
Zn395 O393 1.950 . S
Zn395 O402 1.938 1_655 S
Zn395 O403 1.906 . S
Zn395 O413 1.953 . S
Zn396 O393 1.945 . S
Zn396 O398 1.932 . S
Zn396 O405 1.977 . S
Zn396 O406 1.910 . S
O397 Zn394 1.933 . S
O397 C408 1.226 . S
O398 Zn396 1.932 . S
O398 C408 1.307 . S
O399 Zn392 1.919 1_556 S
O399 C410 1.253 . S
O400 Zn394 1.941 1_556 S
O400 C410 1.283 . S
O401 Zn394 1.965 1_455 S
O401 C409 1.303 . S
O402 Zn395 1.938 1_455 S
O402 C409 1.247 . S
O403 Zn395 1.906 . S
O403 C411 1.304 . S
O404 Zn392 1.924 . S
O404 C412 1.311 . S
O405 Zn396 1.977 . S
O405 C411 1.272 . S
O406 Zn396 1.910 . S
O406 C412 1.231 . S
C407 O391 1.225 . S
C407 O413 1.298 . S
C408 O397 1.226 . S
C408 O398 1.307 . S
C409 O401 1.303 . S
C409 O402 1.247 . S
C410 O399 1.253 . S
C410 O400 1.283 . S
C411 O403 1.304 . S
C411 O405 1.272 . S
C412 O404 1.311 . S
C412 O406 1.231 . S
O413 Zn395 1.953 . S
O413 C407 1.298 . S
C18 C62 1.073 . S
C16 C41 1.073 . S
C64 C39 1.073 . S
C108 C87 1.073 . S
C131 C110 1.073 . S
C133 C85 1.073 . S
C200 C156 1.073 . S
C179 C154 1.073 . S
C177 C202 1.073 . S
C225 C246 1.073 . S
C269 C248 1.073 . S
C271 C223 1.073 . S
C338 C294 1.073 . S
C317 C292 1.073 . S
C340 C315 1.073 . S
C363 C384 1.073 . S
C407 C386 1.073 . S
C361 C409 1.073 . S
C134 C20 1.350 . S
C88 C43 1.350 . S
C111 C66 1.350 . S
C42 C89 1.350 . S
C112 C65 1.350 . S
C19 C135 1.350 . S
C158 C272 1.350 . S
C181 C226 1.350 . S
C249 C204 1.350 . S
C227 C180 1.350 . S
C250 C203 1.350 . S
C273 C157 1.350 . S
C296 C410 1.350 . S
C319 C364 1.350 . S
C342 C387 1.350 . S
C365 C318 1.350 . S
C388 C341 1.350 . S
C411 C295 1.350 . S
C251 C17 2.957 . S
C40 C274 2.957 . S
C228 C63 2.957 . S
C86 C205 2.957 . S
C109 C159 2.957 . S
C182 C132 2.957 . S
C155 C389 2.957 . S
C178 C412 2.957 . S
C201 C366 2.957 . S
C343 C224 2.957 . S
C297 C247 2.957 . S
C320 C270 2.957 . S
C113 C293 2.957 . S
C316 C136 2.957 . S
C90 C339 2.957 . S
C362 C67 2.957 . S
C385 C21 2.957 . S
C44 C408 2.957 . S
