# Generated by pormake.
# Topology uky, (4)-cn, num edge types: 1
# Building blocks:
#     Node 0, Type 0, BuildingBlock: ESEHIV_clean_sbu_0, # of connection points: 4
#     Node 1, Type 0, BuildingBlock: ESEHIV_clean_sbu_0, # of connection points: 4
#     Node 2, Type 0, BuildingBlock: ESEHIV_clean_sbu_0, # of connection points: 4
#     Node 3, Type 0, BuildingBlock: ESEHIV_clean_sbu_0, # of connection points: 4
#     Node 4, Type 0, BuildingBlock: ESEHIV_clean_sbu_0, # of connection points: 4
#     Node 5, Type 0, BuildingBlock: ESEHIV_clean_sbu_0, # of connection points: 4
#     Node 6, Type 0, BuildingBlock: ESEHIV_clean_sbu_0, # of connection points: 4
#     Node 7, Type 0, BuildingBlock: ESEHIV_clean_sbu_0, # of connection points: 4
#     Node 8, Type 0, BuildingBlock: ESEHIV_clean_sbu_0, # of connection points: 4
#     Node 9, Type 0, BuildingBlock: ESEHIV_clean_sbu_0, # of connection points: 4
#     Node 10, Type 0, BuildingBlock: ESEHIV_clean_sbu_0, # of connection points: 4
#     Node 11, Type 0, BuildingBlock: ESEHIV_clean_sbu_0, # of connection points: 4
#     Node 12, Type 0, BuildingBlock: ESEHIV_clean_sbu_0, # of connection points: 4
#     Node 13, Type 0, BuildingBlock: ESEHIV_clean_sbu_0, # of connection points: 4
#     Node 14, Type 0, BuildingBlock: ESEHIV_clean_sbu_0, # of connection points: 4
#     Node 15, Type 0, BuildingBlock: ESEHIV_clean_sbu_0, # of connection points: 4
#     Node 16, Type 0, BuildingBlock: ESEHIV_clean_sbu_0, # of connection points: 4
#     Node 17, Type 0, BuildingBlock: ESEHIV_clean_sbu_0, # of connection points: 4
#     Node 18, Type 0, BuildingBlock: ESEHIV_clean_sbu_0, # of connection points: 4
#     Node 19, Type 0, BuildingBlock: ESEHIV_clean_sbu_0, # of connection points: 4
#     Node 20, Type 0, BuildingBlock: ESEHIV_clean_sbu_0, # of connection points: 4
#     Node 21, Type 0, BuildingBlock: ESEHIV_clean_sbu_0, # of connection points: 4
#     Node 22, Type 0, BuildingBlock: ESEHIV_clean_sbu_0, # of connection points: 4
#     Node 23, Type 0, BuildingBlock: ESEHIV_clean_sbu_0, # of connection points: 4
#     Node 24, Type 0, BuildingBlock: ESEHIV_clean_sbu_0, # of connection points: 4
#     Node 25, Type 0, BuildingBlock: ESEHIV_clean_sbu_0, # of connection points: 4
#     Node 26, Type 0, BuildingBlock: ESEHIV_clean_sbu_0, # of connection points: 4
#     Node 27, Type 0, BuildingBlock: ESEHIV_clean_sbu_0, # of connection points: 4
#     Node 28, Type 0, BuildingBlock: ESEHIV_clean_sbu_0, # of connection points: 4
#     Node 29, Type 0, BuildingBlock: ESEHIV_clean_sbu_0, # of connection points: 4
#     Node 30, Type 0, BuildingBlock: ESEHIV_clean_sbu_0, # of connection points: 4
#     Node 31, Type 0, BuildingBlock: ESEHIV_clean_sbu_0, # of connection points: 4
#     Node 32, Type 0, BuildingBlock: ESEHIV_clean_sbu_0, # of connection points: 4
#     Node 33, Type 0, BuildingBlock: ESEHIV_clean_sbu_0, # of connection points: 4
#     Node 34, Type 0, BuildingBlock: ESEHIV_clean_sbu_0, # of connection points: 4
#     Node 35, Type 0, BuildingBlock: ESEHIV_clean_sbu_0, # of connection points: 4
#     Node 36, Type 0, BuildingBlock: ESEHIV_clean_sbu_0, # of connection points: 4
#     Node 37, Type 0, BuildingBlock: ESEHIV_clean_sbu_0, # of connection points: 4
#     Node 38, Type 0, BuildingBlock: ESEHIV_clean_sbu_0, # of connection points: 4
#     Node 39, Type 0, BuildingBlock: ESEHIV_clean_sbu_0, # of connection points: 4
#     Node 40, Type 0, BuildingBlock: ESEHIV_clean_sbu_0, # of connection points: 4
#     Node 41, Type 0, BuildingBlock: ESEHIV_clean_sbu_0, # of connection points: 4
#     Node 42, Type 0, BuildingBlock: ESEHIV_clean_sbu_0, # of connection points: 4
#     Node 43, Type 0, BuildingBlock: ESEHIV_clean_sbu_0, # of connection points: 4
#     Node 44, Type 0, BuildingBlock: ESEHIV_clean_sbu_0, # of connection points: 4
#     Node 45, Type 0, BuildingBlock: ESEHIV_clean_sbu_0, # of connection points: 4
#     Node 46, Type 0, BuildingBlock: ESEHIV_clean_sbu_0, # of connection points: 4
#     Node 47, Type 0, BuildingBlock: ESEHIV_clean_sbu_0, # of connection points: 4
#     Edge 48, Type (0, 0), None
#     Edge 49, Type (0, 0), None
#     Edge 50, Type (0, 0), None
#     Edge 51, Type (0, 0), None
#     Edge 52, Type (0, 0), None
#     Edge 53, Type (0, 0), None
#     Edge 54, Type (0, 0), None
#     Edge 55, Type (0, 0), None
#     Edge 56, Type (0, 0), None
#     Edge 57, Type (0, 0), None
#     Edge 58, Type (0, 0), None
#     Edge 59, Type (0, 0), None
#     Edge 60, Type (0, 0), None
#     Edge 61, Type (0, 0), None
#     Edge 62, Type (0, 0), None
#     Edge 63, Type (0, 0), None
#     Edge 64, Type (0, 0), None
#     Edge 65, Type (0, 0), None
#     Edge 66, Type (0, 0), None
#     Edge 67, Type (0, 0), None
#     Edge 68, Type (0, 0), None
#     Edge 69, Type (0, 0), None
#     Edge 70, Type (0, 0), None
#     Edge 71, Type (0, 0), None
#     Edge 72, Type (0, 0), None
#     Edge 73, Type (0, 0), None
#     Edge 74, Type (0, 0), None
#     Edge 75, Type (0, 0), None
#     Edge 76, Type (0, 0), None
#     Edge 77, Type (0, 0), None
#     Edge 78, Type (0, 0), None
#     Edge 79, Type (0, 0), None
#     Edge 80, Type (0, 0), None
#     Edge 81, Type (0, 0), None
#     Edge 82, Type (0, 0), None
#     Edge 83, Type (0, 0), None
#     Edge 84, Type (0, 0), None
#     Edge 85, Type (0, 0), None
#     Edge 86, Type (0, 0), None
#     Edge 87, Type (0, 0), None
#     Edge 88, Type (0, 0), None
#     Edge 89, Type (0, 0), None
#     Edge 90, Type (0, 0), None
#     Edge 91, Type (0, 0), None
#     Edge 92, Type (0, 0), None
#     Edge 93, Type (0, 0), None
#     Edge 94, Type (0, 0), None
#     Edge 95, Type (0, 0), None
#     Edge 96, Type (0, 0), None
#     Edge 97, Type (0, 0), None
#     Edge 98, Type (0, 0), None
#     Edge 99, Type (0, 0), None
#     Edge 100, Type (0, 0), None
#     Edge 101, Type (0, 0), None
#     Edge 102, Type (0, 0), None
#     Edge 103, Type (0, 0), None
#     Edge 104, Type (0, 0), None
#     Edge 105, Type (0, 0), None
#     Edge 106, Type (0, 0), None
#     Edge 107, Type (0, 0), None
#     Edge 108, Type (0, 0), None
#     Edge 109, Type (0, 0), None
#     Edge 110, Type (0, 0), None
#     Edge 111, Type (0, 0), None
#     Edge 112, Type (0, 0), None
#     Edge 113, Type (0, 0), None
#     Edge 114, Type (0, 0), None
#     Edge 115, Type (0, 0), None
#     Edge 116, Type (0, 0), None
#     Edge 117, Type (0, 0), None
#     Edge 118, Type (0, 0), None
#     Edge 119, Type (0, 0), None
#     Edge 120, Type (0, 0), None
#     Edge 121, Type (0, 0), None
#     Edge 122, Type (0, 0), None
#     Edge 123, Type (0, 0), None
#     Edge 124, Type (0, 0), None
#     Edge 125, Type (0, 0), None
#     Edge 126, Type (0, 0), None
#     Edge 127, Type (0, 0), None
#     Edge 128, Type (0, 0), None
#     Edge 129, Type (0, 0), None
#     Edge 130, Type (0, 0), None
#     Edge 131, Type (0, 0), None
#     Edge 132, Type (0, 0), None
#     Edge 133, Type (0, 0), None
#     Edge 134, Type (0, 0), None
#     Edge 135, Type (0, 0), None
#     Edge 136, Type (0, 0), None
#     Edge 137, Type (0, 0), None
#     Edge 138, Type (0, 0), None
#     Edge 139, Type (0, 0), None
#     Edge 140, Type (0, 0), None
#     Edge 141, Type (0, 0), None
#     Edge 142, Type (0, 0), None
#     Edge 143, Type (0, 0), None
# Relax obj value: 0.140
# Max RMSD: 0.332
# Mean RMSD: 0.286
data_MOF--net-uky--node1-ESEHIV_clean_sbu_0--edge1-none
_symmetry_space_group_name_H-M    P1
_symmetry_Int_Tables_number       1
_symmetry_cell_setting            triclinic
loop_
_symmetry_equiv_pos_as_xyz
'x, y, z'
_cell_length_a     26.584366
_cell_length_b     36.546613
_cell_length_c     36.548709
_cell_angle_alpha  90.000488
_cell_angle_beta   89.998261
_cell_angle_gamma 90.000477
loop_
_atom_site_label
_atom_site_type_symbol
_atom_site_fract_x
_atom_site_fract_y
_atom_site_fract_z
_atom_type_partial_charge
Cu0 Cu 0.20523 0.28073 0.42569 0.0
N1 N 0.23353 0.31341 0.45845 0.0
N2 N 0.25523 0.33853 0.51141 0.0
C3 C 0.22098 0.31799 0.49373 0.0
C4 C 0.29107 0.34677 0.48675 0.0
C5 C 0.2771 0.33164 0.45375 0.0
O6 O 0.1627 0.24692 0.45308 0.0
C7 C 0.26967 0.25727 0.36823 0.0
O8 O 0.23385 0.26909 0.34656 0.0
H9 H 0.19053 0.30349 0.50703 0.0
H10 H 0.29914 0.33129 0.42887 0.0
N11 N 0.16813 0.30822 0.39211 0.0
N12 N 0.15109 0.35052 0.34999 0.0
C13 C 0.18582 0.33711 0.37326 0.0
C14 C 0.12036 0.30351 0.38069 0.0
C15 C 0.10966 0.3297 0.35449 0.0
C16 C 0.14951 0.21534 0.44199 0.0
O17 O 0.16426 0.20375 0.40973 0.0
H18 H 0.22385 0.3473 0.37592 0.0
H19 H 0.0955 0.28209 0.3902 0.0
O20 O 0.26274 0.25686 0.40262 0.0
H21 H 0.32643 0.3601 0.49294 0.0
H22 H 0.07497 0.33243 0.33926 0.0
Cu23 Cu 0.01423 1.01023 0.68612 0.0
N24 N 0.06866 0.03486 0.66538 0.0
N25 N 0.10849 0.07351 0.62817 0.0
C26 C 0.06382 0.06323 0.6422 0.0
C27 C 0.14305 0.05093 0.64297 0.0
C28 C 0.11821 1.02702 0.66612 0.0
O29 O 0.96222 1.01528 0.64887 0.0
C30 C 0.99285 1.01927 0.76349 0.0
O31 O 0.99393 0.98343 0.7657 0.0
H32 H 0.02792 0.0749 0.63461 0.0
H33 H 0.13489 1.00475 0.68135 0.0
N34 N 0.03083 0.96069 0.69231 0.0
N35 N 0.069 0.9096 0.71061 0.0
C36 C 0.0684 0.94645 0.71262 0.0
C37 C 1.00782 0.93168 0.67672 0.0
C38 C 0.03111 0.9 0.68826 0.0
C39 C 0.91991 0.99926 0.64596 0.0
O40 O 0.9036 0.9783 0.67266 0.0
H41 H 0.09396 0.96265 0.72902 0.0
H42 H 0.97654 0.93329 0.65796 0.0
O43 O 0.99815 0.03483 0.73247 0.0
H44 H 0.18286 0.05103 0.63684 0.0
H45 H 0.02145 0.87227 0.68061 0.0
Cu46 Cu 0.31207 0.78003 0.92568 0.0
N47 N 0.28376 0.74736 0.95844 0.0
N48 N 0.26206 0.72224 1.0114 0.0
C49 C 0.29633 0.74278 0.99372 0.0
C50 C 0.22621 0.71402 0.98675 0.0
C51 C 0.24018 0.72915 0.95375 0.0
O52 O 0.35462 0.81383 0.95306 0.0
C53 C 0.24763 0.80348 0.86821 0.0
O54 O 0.28345 0.79164 0.84654 0.0
H55 H 0.32679 0.75726 1.00701 0.0
H56 H 0.21813 0.7295 0.92887 0.0
N57 N 0.34918 0.75253 0.8921 0.0
N58 N 0.36621 0.71022 0.84999 0.0
C59 C 0.33148 0.72364 0.87325 0.0
C60 C 0.39694 0.75724 0.88068 0.0
C61 C 0.40764 0.73104 0.85447 0.0
C62 C 0.36767 0.84546 0.94203 0.0
O63 O 0.35274 0.85713 0.90984 0.0
H64 H 0.29345 0.71345 0.87592 0.0
H65 H 0.4218 0.77866 0.89017 0.0
O66 O 0.25458 0.8039 0.90261 0.0
H67 H 0.19085 0.7007 0.99294 0.0
H68 H 0.44233 0.7283 0.83924 0.0
Cu69 Cu 0.50307 0.0505 0.18613 0.0
N70 N 0.44864 1.02587 0.16539 0.0
N71 N 0.40881 0.98723 0.12817 0.0
C72 C 0.45349 0.9975 0.1422 0.0
C73 C 0.37426 1.00981 0.14297 0.0
C74 C 0.3991 0.03372 0.16612 0.0
O75 O 0.55509 0.04545 0.14888 0.0
C76 C 0.52446 0.04146 0.26349 0.0
O77 O 0.52337 0.0773 0.26571 0.0
H78 H 0.48939 0.98583 0.13461 0.0
H79 H 0.38242 0.05599 0.18135 0.0
N80 N 0.48648 0.10005 0.19231 0.0
N81 N 0.4483 0.15113 0.21062 0.0
C82 C 0.44891 0.11428 0.21263 0.0
C83 C 0.50948 0.12905 0.17672 0.0
C84 C 0.48619 0.16073 0.18826 0.0
C85 C 0.5974 0.06148 0.14597 0.0
O86 O 0.6137 0.08243 0.17266 0.0
H87 H 0.42335 0.09809 0.22903 0.0
H88 H 0.54076 0.12744 0.15796 0.0
O89 O 0.51915 1.0259 0.23248 0.0
H90 H 0.33445 1.00971 0.13684 0.0
H91 H 0.49585 0.18846 0.18061 0.0
Cu92 Cu 0.20522 0.78005 0.13512 0.0
N93 N 0.23356 0.7474 0.10236 0.0
N94 N 0.25543 0.72235 0.04942 0.0
C95 C 0.22114 0.74292 0.06704 0.0
C96 C 0.2911 0.71395 0.07414 0.0
C97 C 0.27703 0.72906 0.10714 0.0
O98 O 0.16265 0.81385 0.10774 0.0
C99 C 0.26966 0.8035 0.1926 0.0
O100 O 0.23386 0.79162 0.21427 0.0
H101 H 0.19076 0.75746 0.05371 0.0
H102 H 0.29894 0.72929 0.13208 0.0
N103 N 0.16812 0.75255 0.1687 0.0
N104 N 0.15109 0.71023 0.2108 0.0
C105 C 0.18582 0.72365 0.18754 0.0
C106 C 0.12036 0.75724 0.18012 0.0
C107 C 0.10966 0.73104 0.20632 0.0
C108 C 0.14977 0.84554 0.1187 0.0
O109 O 0.16489 0.85728 0.15082 0.0
H110 H 0.22385 0.71346 0.18487 0.0
H111 H 0.0955 0.77867 0.17063 0.0
O112 O 0.2627 0.80395 0.1582 0.0
H113 H 0.32638 0.70049 0.06803 0.0
H114 H 0.07497 0.7283 0.22155 0.0
Cu115 Cu 0.50308 1.01023 0.37467 0.0
N116 N 0.44865 0.03485 0.39541 0.0
N117 N 0.40882 0.0735 0.43263 0.0
C118 C 0.45349 0.06323 0.41859 0.0
C119 C 0.37427 0.05091 0.41784 0.0
C120 C 0.39911 1.027 0.39469 0.0
O121 O 0.5551 1.01528 0.41191 0.0
C122 C 0.52446 1.01927 0.2973 0.0
O123 O 0.52339 0.98343 0.29508 0.0
H124 H 0.48939 0.07491 0.42617 0.0
H125 H 0.38243 1.00472 0.37947 0.0
N126 N 0.48649 0.96068 0.36848 0.0
N127 N 0.44832 0.9096 0.35017 0.0
C128 C 0.44892 0.94645 0.34816 0.0
C129 C 0.50949 0.93167 0.38407 0.0
C130 C 0.48621 0.9 0.37253 0.0
C131 C 0.59741 0.99926 0.41482 0.0
O132 O 0.61371 0.9783 0.38812 0.0
H133 H 0.42336 0.96264 0.33176 0.0
H134 H 0.54077 0.93329 0.40283 0.0
O135 O 0.51915 0.03483 0.32831 0.0
H136 H 0.33446 0.051 0.42399 0.0
H137 H 0.49587 0.87226 0.38017 0.0
Cu138 Cu 0.31209 0.2807 0.63512 0.0
N139 N 0.28375 0.31336 0.60236 0.0
N140 N 0.26188 0.33842 0.54943 0.0
C141 C 0.29616 0.31785 0.56704 0.0
C142 C 0.22622 0.34684 0.57416 0.0
C143 C 0.24029 0.33171 0.60714 0.0
O144 O 0.35465 0.24691 0.60773 0.0
C145 C 0.24765 0.25725 0.69259 0.0
O146 O 0.28345 0.26911 0.71426 0.0
H147 H 0.32653 0.3033 0.5537 0.0
H148 H 0.21839 0.33149 0.63209 0.0
N149 N 0.34919 0.3082 0.66869 0.0
N150 N 0.36622 0.35051 0.7108 0.0
C151 C 0.33149 0.3371 0.68754 0.0
C152 C 0.39695 0.3035 0.68011 0.0
C153 C 0.40765 0.3297 0.70632 0.0
C154 C 0.36765 0.21526 0.61873 0.0
O155 O 0.35267 0.20357 0.65091 0.0
H156 H 0.29346 0.34728 0.68488 0.0
H157 H 0.42181 0.28208 0.67062 0.0
O158 O 0.2546 0.25681 0.65819 0.0
H159 H 0.19094 0.3603 0.56805 0.0
H160 H 0.44234 0.33244 0.72154 0.0
Cu161 Cu 0.01423 0.0505 0.87466 0.0
N162 N 0.06866 1.02588 0.89541 0.0
N163 N 0.10848 0.98723 0.93263 0.0
C164 C 0.06381 0.9975 0.91859 0.0
C165 C 0.14304 1.00982 0.91783 0.0
C166 C 0.1182 0.03373 0.89468 0.0
O167 O 0.96221 0.04545 0.91191 0.0
C168 C 0.99284 0.04146 0.7973 0.0
O169 O 0.99391 0.0773 0.79508 0.0
H170 H 0.02791 0.98583 0.92618 0.0
H171 H 0.13488 0.056 0.87945 0.0
N172 N 0.03082 0.10005 0.86848 0.0
N173 N 0.06899 0.15113 0.85016 0.0
C174 C 0.06839 0.11428 0.84816 0.0
C175 C 1.00782 0.12905 0.88406 0.0
C176 C 0.0311 0.16073 0.87252 0.0
C177 C 0.9199 0.06147 0.91482 0.0
O178 O 0.9036 0.08243 0.88812 0.0
H179 H 0.09395 0.09809 0.83176 0.0
H180 H 0.97653 0.12744 0.90283 0.0
O181 O 0.99816 1.0259 0.82831 0.0
H182 H 0.18285 1.00972 0.92397 0.0
H183 H 0.02144 0.18846 0.88017 0.0
Cu184 Cu 0.3915 0.26249 0.29362 0.0
N185 N 0.39372 0.30678 0.2679 0.0
N186 N 0.37381 0.36415 0.25224 0.0
C187 C 0.36057 0.33437 0.27189 0.0
C188 C 0.417 0.35501 0.23515 0.0
C189 C 0.42928 0.31952 0.24493 0.0
O190 O 0.32924 0.26291 0.32111 0.0
C191 C 0.48131 0.28337 0.33057 0.0
O192 O 0.46397 0.31691 0.3279 0.0
H193 H 0.32761 0.33272 0.28924 0.0
H194 H 0.46221 0.30433 0.23646 0.0
N195 N 0.38888 0.2225 0.26204 0.0
N196 N 0.41555 0.1751 0.22912 0.0
C197 C 0.42701 0.20862 0.24211 0.0
C198 C 0.3524 0.19687 0.26138 0.0
C199 C 0.36888 0.16738 0.24109 0.0
C200 C 0.31998 0.25081 0.35295 0.0
O201 O 0.35603 0.23643 0.37286 0.0
H202 H 0.4635 0.22151 0.23952 0.0
H203 H 0.31752 0.19856 0.27654 0.0
O204 O 0.45304 0.25667 0.32187 0.0
H205 H 0.43793 0.37258 0.21686 0.0
H206 H 0.34907 0.1419 0.2366 0.0
Cu207 Cu 0.06205 0.17566 0.53079 0.0
N208 N 0.0338 0.20843 0.56349 0.0
N209 N 0.01214 0.26139 0.58863 0.0
C210 C 0.04636 0.24371 0.56805 0.0
C211 C 0.97632 0.23673 0.5969 0.0
C212 C 0.99026 0.20372 0.58176 0.0
O213 O 0.10457 0.20305 0.49697 0.0
C214 C 0.99761 0.11821 0.50729 0.0
O215 O 0.03348 0.09653 0.51903 0.0
H216 H 0.07678 0.257 0.55353 0.0
H217 H 0.96822 0.17884 0.58143 0.0
N218 N 0.09915 0.14205 0.55825 0.0
N219 N 0.11617 0.09991 0.60052 0.0
C220 C 0.08144 0.12317 0.58711 0.0
C221 C 0.14694 0.13067 0.55357 0.0
C222 C 0.15763 0.10445 0.57976 0.0
C223 C 0.1178 0.19193 0.46541 0.0
O224 O 0.1031 0.15964 0.45384 0.0
H225 H 0.04341 0.12583 0.5973 0.0
H226 H 0.17183 0.14022 0.53219 0.0
O227 O 1.00451 0.15261 0.50695 0.0
H228 H 0.94098 0.24291 0.61026 0.0
H229 H 0.19236 0.08927 0.58253 0.0
Cu230 Cu 0.1258 0.79825 0.79361 0.0
N231 N 0.12358 0.75395 0.7679 0.0
N232 N 0.14349 0.69659 0.75224 0.0
C233 C 0.15672 0.72637 0.77189 0.0
C234 C 0.1003 0.70573 0.73515 0.0
C235 C 0.08802 0.74121 0.74493 0.0
O236 O 0.18806 0.79782 0.82111 0.0
C237 C 0.03599 0.77737 0.83057 0.0
O238 O 0.05333 0.74383 0.8279 0.0
H239 H 0.18969 0.72801 0.78924 0.0
H240 H 0.0551 0.75641 0.73646 0.0
N241 N 0.12842 0.83824 0.76203 0.0
N242 N 0.10175 0.88563 0.72912 0.0
C243 C 0.09029 0.85212 0.7421 0.0
C244 C 0.16491 0.86386 0.76137 0.0
C245 C 0.14843 0.89336 0.74108 0.0
C246 C 0.19733 0.80994 0.85294 0.0
O247 O 0.16129 0.82435 0.87284 0.0
H248 H 0.0538 0.83922 0.73952 0.0
H249 H 0.19978 0.86217 0.77652 0.0
O250 O 0.06426 0.80407 0.82187 0.0
H251 H 0.07937 0.68815 0.71686 0.0
H252 H 0.16823 0.91883 0.73659 0.0
Cu253 Cu 0.45527 0.88507 0.03079 0.0
N254 N 0.48351 0.85231 0.06349 0.0
N255 N 0.50516 0.79935 0.08863 0.0
C256 C 0.47095 0.81703 0.06806 0.0
C257 C 0.54099 0.82401 0.0969 0.0
C258 C 0.52704 0.85702 0.08176 0.0
O259 O 0.41275 0.85769 0.99696 0.0
C260 C 0.51971 0.94253 1.00729 0.0
O261 O 0.48384 0.96421 1.01904 0.0
H262 H 0.44052 0.80374 0.05353 0.0
H263 H 0.54909 0.8819 0.08143 0.0
N264 N 0.41816 0.91868 0.05825 0.0
N265 N 0.40114 0.96083 0.10052 0.0
C266 C 0.43587 0.93756 0.08711 0.0
C267 C 0.37037 0.93007 0.05357 0.0
C268 C 0.35968 0.95629 0.07975 0.0
C269 C 0.39937 0.86887 0.96546 0.0
O270 O 0.41391 0.90122 0.95396 0.0
H271 H 0.4739 0.93491 0.0973 0.0
H272 H 0.34549 0.92052 0.03219 0.0
O273 O 0.51281 0.90812 1.00695 0.0
H274 H 0.57632 0.81783 0.11026 0.0
H275 H 0.32495 0.97146 0.08252 0.0
Cu276 Cu 0.39153 0.79824 0.26717 0.0
N277 N 0.39374 0.75395 0.29288 0.0
N278 N 0.37383 0.69658 0.30854 0.0
C279 C 0.3606 0.72636 0.28889 0.0
C280 C 0.41701 0.70572 0.32563 0.0
C281 C 0.42929 0.74121 0.31586 0.0
O282 O 0.32926 0.79781 0.23967 0.0
C283 C 0.48134 0.77735 0.23021 0.0
O284 O 0.464 0.74382 0.23289 0.0
H285 H 0.32764 0.72801 0.27154 0.0
H286 H 0.46222 0.7564 0.32433 0.0
N287 N 0.3889 0.83823 0.29874 0.0
N288 N 0.41557 0.88563 0.33166 0.0
C289 C 0.42703 0.85211 0.31868 0.0
C290 C 0.35242 0.86386 0.2994 0.0
C291 C 0.3689 0.89335 0.31969 0.0
C292 C 0.31996 0.80997 0.20786 0.0
O293 O 0.35597 0.82443 0.18798 0.0
H294 H 0.46352 0.83922 0.32126 0.0
H295 H 0.31755 0.86216 0.28425 0.0
O296 O 0.45306 0.80406 0.23891 0.0
H297 H 0.43793 0.68815 0.34393 0.0
H298 H 0.34909 0.91883 0.32418 0.0
Cu299 Cu 0.45529 0.17566 0.52999 0.0
N300 N 0.48352 0.20842 0.49728 0.0
N301 N 0.50517 0.26138 0.47212 0.0
C302 C 0.47096 0.2437 0.49271 0.0
C303 C 0.54099 0.23672 0.46385 0.0
C304 C 0.52705 0.20372 0.47901 0.0
O305 O 0.41278 0.20305 0.56382 0.0
C306 C 0.51974 0.11822 0.55349 0.0
O307 O 0.48386 0.09653 0.54176 0.0
H308 H 0.44054 0.257 0.50724 0.0
H309 H 0.5491 0.17884 0.47933 0.0
N310 N 0.41818 0.14205 0.50255 0.0
N311 N 0.40115 0.0999 0.46028 0.0
C312 C 0.43588 0.12317 0.47368 0.0
C313 C 0.37039 0.13066 0.50723 0.0
C314 C 0.35969 0.10444 0.48105 0.0
C315 C 0.39936 0.19185 0.59531 0.0
O316 O 0.41384 0.15948 0.60679 0.0
H317 H 0.47391 0.12583 0.46349 0.0
H318 H 0.34551 0.14021 0.52862 0.0
O319 O 0.51283 0.15262 0.55382 0.0
H320 H 0.57632 0.2429 0.45049 0.0
H321 H 0.32497 0.08926 0.47829 0.0
Cu322 Cu 0.12578 0.26249 0.76717 0.0
N323 N 0.12357 0.30678 0.79288 0.0
N324 N 0.14348 0.36415 0.80855 0.0
C325 C 0.15671 0.33437 0.78889 0.0
C326 C 0.10029 0.35501 0.82564 0.0
C327 C 0.08801 0.31952 0.81585 0.0
O328 O 0.18805 0.26292 0.73967 0.0
C329 C 0.03598 0.28338 0.73021 0.0
O330 O 0.05332 0.31691 0.73288 0.0
H331 H 0.18968 0.33272 0.77155 0.0
H332 H 0.05508 0.30433 0.82433 0.0
N333 N 0.12841 0.2225 0.79874 0.0
N334 N 0.10174 0.1751 0.83166 0.0
C335 C 0.09028 0.20862 0.81867 0.0
C336 C 0.16489 0.19687 0.7994 0.0
C337 C 0.14841 0.16738 0.81969 0.0
C338 C 0.19735 0.25078 0.70785 0.0
O339 O 0.16133 0.23634 0.68796 0.0
H340 H 0.05379 0.22151 0.82126 0.0
H341 H 0.19976 0.19856 0.78424 0.0
O342 O 0.06425 0.25667 0.73891 0.0
H343 H 0.07936 0.37258 0.84393 0.0
H344 H 0.16822 0.1419 0.82418 0.0
Cu345 Cu 0.06201 0.88508 1.03 0.0
N346 N 0.03378 0.85231 0.99729 0.0
N347 N 0.01214 0.79935 0.97214 0.0
C348 C 0.04635 0.81704 0.99272 0.0
C349 C 0.97631 0.82401 0.96387 0.0
C350 C 0.99025 0.85701 0.97902 0.0
O351 O 0.10451 0.85769 0.06383 0.0
C352 C 0.99757 0.94253 0.05349 0.0
O353 O 0.03345 0.96421 0.04177 0.0
H354 H 0.07678 0.80374 1.00724 0.0
H355 H 0.9682 0.88189 0.97935 0.0
N356 N 0.09913 0.91869 1.00255 0.0
N357 N 0.11616 0.96083 0.96028 0.0
C358 C 0.08142 0.93757 0.97368 0.0
C359 C 0.14692 0.93007 1.00723 0.0
C360 C 0.15761 0.95629 0.98104 0.0
C361 C 0.11806 0.86894 0.09527 0.0
O362 O 0.10372 0.90137 0.10669 0.0
H363 H 0.04339 0.93491 0.9635 0.0
H364 H 0.1718 0.92052 1.02861 0.0
O365 O 1.00447 0.90813 0.05383 0.0
H366 H 0.94098 0.81782 0.95051 0.0
H367 H 0.19234 0.97147 0.97827 0.0
Cu368 Cu 0.25307 0.43608 0.26028 0.0
N369 N 0.19864 0.41532 0.2849 0.0
N370 N 0.15881 0.37809 0.32353 0.0
C371 C 0.20349 0.3921 0.31324 0.0
C372 C 0.12424 0.39298 0.30101 0.0
C373 C 0.14909 0.41613 0.2771 0.0
O374 O 0.30511 0.39886 0.26534 0.0
C375 C 0.27443 0.51346 0.2693 0.0
O376 O 0.27336 0.51566 0.23346 0.0
H377 H 0.23939 0.38448 0.32489 0.0
H378 H 0.1324 0.43142 0.25488 0.0
N379 N 0.23648 0.44225 0.21073 0.0
N380 N 0.19831 0.46054 0.15964 0.0
C381 C 0.1989 0.46256 0.19649 0.0
C382 C 0.2595 0.42666 0.18173 0.0
C383 C 0.23622 0.43819 0.15005 0.0
C384 C 0.34742 0.39595 0.24932 0.0
O385 O 0.36372 0.42265 0.22835 0.0
H386 H 0.17333 0.47895 0.21267 0.0
H387 H 0.2908 0.40791 0.18335 0.0
O388 O 0.26912 0.48244 0.28487 0.0
H389 H 0.08441 0.38691 0.30117 0.0
H390 H 0.24589 0.43054 0.12232 0.0
Cu391 Cu 0.75308 0.12464 0.8005 0.0
N392 N 0.69865 0.14537 0.77587 0.0
N393 N 0.65881 0.18258 0.73722 0.0
C394 C 0.70349 0.16857 0.74751 0.0
C395 C 0.62425 0.16775 0.75978 0.0
C396 C 0.6491 0.14461 0.7837 0.0
O397 O 0.80509 0.16189 0.79545 0.0
C398 C 0.77446 0.04727 0.79148 0.0
O399 O 0.77336 0.04506 0.82731 0.0
H400 H 0.73939 0.17618 0.73585 0.0
H401 H 0.63242 0.12936 0.80595 0.0
N402 N 0.73649 0.11846 0.85005 0.0
N403 N 0.69831 0.10016 0.90113 0.0
C404 C 0.69891 0.09815 0.86429 0.0
C405 C 0.7595 0.13405 0.87905 0.0
C406 C 0.73622 0.12252 0.91073 0.0
C407 C 0.84741 0.16479 0.81146 0.0
O408 O 0.86372 0.1381 0.83241 0.0
H409 H 0.67334 0.08176 0.8481 0.0
H410 H 0.7908 0.1528 0.87743 0.0
O411 O 0.76917 0.07828 0.77591 0.0
H412 H 0.58444 0.17387 0.75967 0.0
H413 H 0.74588 0.13016 0.93846 0.0
Cu414 Cu 0.1415 0.54351 0.04827 0.0
N415 N 0.14369 0.5178 1.00397 0.0
N416 N 0.12379 0.50215 0.94661 0.0
C417 C 0.11056 0.52181 0.97639 0.0
C418 C 0.16696 0.48503 0.95575 0.0
C419 C 0.17924 0.49481 0.99124 0.0
O420 O 0.07925 0.57102 0.04786 0.0
C421 C 0.23132 0.58045 1.02737 0.0
O422 O 0.21398 0.57777 0.99384 0.0
H423 H 0.07761 0.53917 0.97803 0.0
H424 H 0.21215 0.48632 1.00643 0.0
N425 N 0.13888 0.51193 0.08826 0.0
N426 N 0.16556 0.47903 0.13566 0.0
C427 C 0.17702 0.49201 0.10215 0.0
C428 C 0.10239 0.51126 0.11388 0.0
C429 C 0.11887 0.49098 0.14337 0.0
C430 C 0.07003 0.60288 0.05994 0.0
O431 O 0.10612 0.62278 0.07427 0.0
H432 H 0.21352 0.48944 0.08926 0.0
H433 H 0.06751 0.5264 0.11217 0.0
O434 O 0.20305 0.57176 0.05408 0.0
H435 H 0.18787 0.46673 0.93818 0.0
H436 H 0.09906 0.48648 0.16885 0.0
Cu437 Cu 0.76424 0.9361 0.3005 0.0
N438 N 0.81867 0.91536 0.27587 0.0
N439 N 0.85851 0.87815 0.23721 0.0
C440 C 0.81383 0.89217 0.2475 0.0
C441 C 0.89307 0.89298 0.25978 0.0
C442 C 0.86822 0.91612 0.2837 0.0
O443 O 0.71223 0.89885 0.29545 0.0
C444 C 0.74286 1.01347 0.29148 0.0
O445 O 0.74395 1.01567 0.32731 0.0
H446 H 0.77793 0.88456 0.23584 0.0
H447 H 0.8849 0.93136 0.30595 0.0
N448 N 0.78083 0.94227 0.35005 0.0
N449 N 0.81901 0.96057 0.40113 0.0
C450 C 0.81842 0.96258 0.36428 0.0
C451 C 0.75782 0.92669 0.37905 0.0
C452 C 0.7811 0.93822 0.41072 0.0
C453 C 0.66991 0.89594 0.31146 0.0
O454 O 0.6536 0.92265 0.33241 0.0
H455 H 0.84399 0.97897 0.3481 0.0
H456 H 0.72652 0.90794 0.37743 0.0
O457 O 0.74816 0.98245 0.27591 0.0
H458 H 0.93288 0.88686 0.25967 0.0
H459 H 0.77143 0.93058 0.43846 0.0
Cu460 Cu 0.87581 1.0172 0.04829 0.0
N461 N 0.87362 0.04291 1.00399 0.0
N462 N 0.89353 0.05857 0.94663 0.0
C463 C 0.90676 0.03892 0.97641 0.0
C464 C 0.85033 0.07565 0.95577 0.0
C465 C 0.83805 0.06587 0.99125 0.0
O466 O 0.93807 0.98969 0.04789 0.0
C467 C 0.786 0.98025 1.02741 0.0
O468 O 0.80335 0.98291 0.99387 0.0
H469 H 0.93973 1.02157 0.97806 0.0
H470 H 0.80512 0.07434 1.00644 0.0
N471 N 0.87843 0.0488 0.08827 0.0
N472 N 0.85177 0.08176 0.13564 0.0
C473 C 0.84031 0.06876 0.10213 0.0
C474 C 0.91489 0.04943 0.11392 0.0
C475 C 0.8984 0.06974 0.14339 0.0
C476 C 0.94727 0.95781 0.05992 0.0
O477 O 0.91115 0.93789 0.07419 0.0
H478 H 0.80383 0.07135 0.08923 0.0
H479 H 0.94973 0.03424 0.11225 0.0
O480 O 0.81427 0.98896 0.05411 0.0
H481 H 0.8294 0.09394 0.93819 0.0
H482 H 0.91817 0.0742 0.16889 0.0
Cu483 Cu 0.26422 0.62465 0.76028 0.0
N484 N 0.31865 0.64541 0.78491 0.0
N485 N 0.35848 0.68264 0.82353 0.0
C486 C 0.3138 0.66863 0.81324 0.0
C487 C 0.39306 0.66775 0.80101 0.0
C488 C 0.3682 0.6446 0.77711 0.0
O489 O 0.21218 0.66187 0.76534 0.0
C490 C 0.24287 0.54727 0.76931 0.0
O491 O 0.24393 0.54507 0.73348 0.0
H492 H 0.2779 0.67626 0.8249 0.0
H493 H 0.3849 0.6293 0.75489 0.0
N494 N 0.28081 0.61848 0.71074 0.0
N495 N 0.31898 0.60018 0.65965 0.0
C496 C 0.31838 0.59817 0.6965 0.0
C497 C 0.2578 0.63406 0.68174 0.0
C498 C 0.28108 0.62254 0.65006 0.0
C499 C 0.16987 0.66478 0.74932 0.0
O500 O 0.15358 0.63808 0.72836 0.0
H501 H 0.34395 0.58177 0.71268 0.0
H502 H 0.2265 0.65282 0.68336 0.0
O503 O 0.24818 0.57829 0.78488 0.0
H504 H 0.43289 0.67382 0.80117 0.0
H505 H 0.27141 0.63019 0.62233 0.0
Cu506 Cu 0.14148 0.51723 0.51248 0.0
N507 N 0.14368 0.54293 0.55678 0.0
N508 N 0.12378 0.55857 0.61415 0.0
C509 C 0.11055 0.53892 0.58437 0.0
C510 C 0.16696 0.57568 0.605 0.0
C511 C 0.17923 0.56591 0.56952 0.0
O512 O 0.07922 0.48972 0.51288 0.0
C513 C 0.23128 0.48027 0.53336 0.0
O514 O 0.21394 0.48293 0.5669 0.0
H515 H 0.07759 0.52157 0.58272 0.0
H516 H 0.21214 0.5744 0.55432 0.0
N517 N 0.13885 0.54882 0.4725 0.0
N518 N 0.16552 0.58178 0.42513 0.0
C519 C 0.17697 0.56878 0.45864 0.0
C520 C 0.10239 0.54946 0.44686 0.0
C521 C 0.11888 0.56976 0.41738 0.0
C522 C 0.07 0.45786 0.50081 0.0
O523 O 0.10609 0.43795 0.48648 0.0
H524 H 0.21345 0.57137 0.47154 0.0
H525 H 0.06755 0.53427 0.44852 0.0
O526 O 0.20302 0.48898 0.50665 0.0
H527 H 0.18788 0.59398 0.62258 0.0
H528 H 0.09911 0.57422 0.39188 0.0
Cu529 Cu 0.37583 0.5435 1.01249 0.0
N530 N 0.37363 0.5178 0.05679 0.0
N531 N 0.39353 0.50216 0.11416 0.0
C532 C 0.40676 0.52181 0.08438 0.0
C533 C 0.35035 0.48506 0.10502 0.0
C534 C 0.33808 0.49482 0.06953 0.0
O535 O 0.43809 0.57101 1.01289 0.0
C536 C 0.28603 0.58046 0.03338 0.0
O537 O 0.30335 0.5778 0.06692 0.0
H538 H 0.43972 0.53917 0.08273 0.0
H539 H 0.30516 0.48634 0.05434 0.0
N540 N 0.37846 0.5119 0.97251 0.0
N541 N 0.35179 0.47894 0.92515 0.0
C542 C 0.34033 0.49195 0.95866 0.0
C543 C 0.41492 0.51126 0.94687 0.0
C544 C 0.39843 0.49096 0.91739 0.0
C545 C 0.4473 0.60287 1.00082 0.0
O546 O 0.41121 0.62278 0.9865 0.0
H547 H 0.30385 0.48937 0.97155 0.0
H548 H 0.44976 0.52645 0.94854 0.0
O549 O 0.31429 0.57175 1.00667 0.0
H550 H 0.32943 0.46676 0.12259 0.0
H551 H 0.4182 0.4865 0.8919 0.0
Cu552 Cu 0.70521 0.78071 0.92567 0.0
N553 N 0.73353 0.81338 0.95843 0.0
N554 N 0.75526 0.8385 1.01138 0.0
C555 C 0.72099 0.81796 0.99371 0.0
C556 C 0.7911 0.84672 0.98672 0.0
C557 C 0.77711 0.83159 0.95372 0.0
O558 O 0.66264 0.74691 0.95305 0.0
C559 C 0.76964 0.75725 0.8682 0.0
O560 O 0.73383 0.7691 0.84653 0.0
H561 H 0.69053 0.80348 1.00701 0.0
H562 H 0.79914 0.83124 0.92884 0.0
N563 N 0.66811 0.80821 0.89209 0.0
N564 N 0.65109 0.85052 0.84998 0.0
C565 C 0.68582 0.83711 0.87324 0.0
C566 C 0.62035 0.80352 0.88067 0.0
C567 C 0.60966 0.82971 0.85447 0.0
C568 C 0.64973 0.71524 0.94207 0.0
O569 O 0.66482 0.70352 0.90993 0.0
H570 H 0.72384 0.84729 0.87591 0.0
H571 H 0.59548 0.7821 0.89017 0.0
O572 O 0.7627 0.75683 0.90259 0.0
H573 H 0.82647 0.86004 0.9929 0.0
H574 H 0.57496 0.83245 0.83924 0.0
Cu575 Cu 0.51423 0.51024 0.18612 0.0
N576 N 0.56865 0.53488 0.16538 0.0
N577 N 0.60847 0.57354 0.12816 0.0
C578 C 0.5638 0.56325 0.14219 0.0
C579 C 0.64303 0.55097 0.14297 0.0
C580 C 0.6182 0.52705 0.16612 0.0
O581 O 0.46221 0.51529 0.14888 0.0
C582 C 0.49284 0.51928 0.26349 0.0
O583 O 0.49392 0.48344 0.2657 0.0
H584 H 0.52789 0.57491 0.1346 0.0
H585 H 0.63489 0.50478 0.18135 0.0
N586 N 0.53083 0.4607 0.1923 0.0
N587 N 0.56901 0.40962 0.21061 0.0
C588 C 0.5684 0.44647 0.21262 0.0
C589 C 0.50784 0.43169 0.17671 0.0
C590 C 0.53113 0.40002 0.18825 0.0
C591 C 0.4199 0.49926 0.14597 0.0
O592 O 0.40361 0.47829 0.17267 0.0
H593 H 0.59395 0.46266 0.22902 0.0
H594 H 0.47655 0.4333 0.15795 0.0
O595 O 0.49815 0.53484 0.23247 0.0
H596 H 0.68285 0.55108 0.13684 0.0
H597 H 0.52147 0.37228 0.18061 0.0
Cu598 Cu 0.81209 0.28002 0.42566 0.0
N599 N 0.78376 0.24736 0.45842 0.0
N600 N 0.76203 0.22224 0.51138 0.0
C601 C 0.7963 0.24277 0.49371 0.0
C602 C 0.72619 0.21402 0.48672 0.0
C603 C 0.74018 0.22915 0.45372 0.0
O604 O 0.85465 0.31382 0.45305 0.0
C605 C 0.74766 0.30349 0.3682 0.0
O606 O 0.78347 0.29164 0.34653 0.0
H607 H 0.82677 0.25726 0.507 0.0
H608 H 0.71814 0.22951 0.42884 0.0
N609 N 0.84919 0.25252 0.39208 0.0
N610 N 0.86621 0.21021 0.34997 0.0
C611 C 0.83148 0.22363 0.37324 0.0
C612 C 0.89695 0.25722 0.38066 0.0
C613 C 0.90764 0.23102 0.35446 0.0
C614 C 0.86761 0.34548 0.44205 0.0
O615 O 0.85259 0.35717 0.40988 0.0
H616 H 0.79345 0.21345 0.3759 0.0
H617 H 0.92182 0.27864 0.39016 0.0
O618 O 0.7546 0.30391 0.40259 0.0
H619 H 0.69082 0.2007 0.4929 0.0
H620 H 0.94234 0.22828 0.33923 0.0
Cu621 Cu 1.00308 0.55049 0.68611 0.0
N622 N 0.94865 0.52585 0.66537 0.0
N623 N 0.90884 0.4872 0.62816 0.0
C624 C 0.95351 0.49749 0.64218 0.0
C625 C 0.87427 0.50977 0.64297 0.0
C626 C 0.89911 0.53369 0.66612 0.0
O627 O 0.0551 0.54545 0.64887 0.0
C628 C 0.02447 0.54146 0.76348 0.0
O629 O 0.02339 0.57729 0.76569 0.0
H630 H 0.98941 0.48582 0.63459 0.0
H631 H 0.88242 0.55595 0.68135 0.0
N632 N 0.98647 0.60004 0.6923 0.0
N633 N 0.94829 0.65111 0.71061 0.0
C634 C 0.9489 0.61426 0.71262 0.0
C635 C 0.00947 0.62905 0.67671 0.0
C636 C 0.98618 0.66072 0.68825 0.0
C637 C 0.0974 0.56148 0.64596 0.0
O638 O 0.11369 0.58245 0.67265 0.0
H639 H 0.92335 0.59807 0.72902 0.0
H640 H 0.04075 0.62743 0.65794 0.0
O641 O 0.01916 0.52589 0.73246 0.0
H642 H 0.83446 0.50966 0.63684 0.0
H643 H 0.99583 0.68845 0.6806 0.0
Cu644 Cu 0.70519 0.28004 0.63511 0.0
N645 N 0.73351 0.24738 0.60234 0.0
N646 N 0.75538 0.22235 0.5494 0.0
C647 C 0.72111 0.24292 0.56702 0.0
C648 C 0.79103 0.21391 0.57412 0.0
C649 C 0.77696 0.22902 0.60712 0.0
O650 O 0.6626 0.31383 0.60775 0.0
C651 C 0.76963 0.30352 0.69257 0.0
O652 O 0.73381 0.29169 0.71424 0.0
H653 H 0.69075 0.25748 0.55368 0.0
H654 H 0.79886 0.22922 0.63207 0.0
N655 N 0.66812 0.25253 0.6687 0.0
N656 N 0.65112 0.21023 0.71083 0.0
C657 C 0.68585 0.22366 0.68757 0.0
C658 C 0.62033 0.25719 0.68009 0.0
C659 C 0.60965 0.23099 0.70629 0.0
C660 C 0.65007 0.34564 0.61857 0.0
O661 O 0.66559 0.35751 0.65055 0.0
H662 H 0.72388 0.21349 0.68491 0.0
H663 H 0.59544 0.27857 0.67055 0.0
O664 O 0.76269 0.30392 0.65817 0.0
H665 H 0.8263 0.20043 0.56801 0.0
H666 H 0.57492 0.22821 0.72147 0.0
Cu667 Cu 1.00308 0.51024 0.87465 0.0
N668 N 0.94866 0.53488 0.8954 0.0
N669 N 0.90885 0.57353 0.93262 0.0
C670 C 0.95352 0.56325 0.91859 0.0
C671 C 0.87428 0.55096 0.91781 0.0
C672 C 0.89911 0.52704 0.89466 0.0
O673 O 0.05511 0.51528 0.91189 0.0
C674 C 0.02447 0.51927 0.79729 0.0
O675 O 0.0234 0.48343 0.79508 0.0
H676 H 0.98942 0.57491 0.92618 0.0
H677 H 0.88242 0.50478 0.87943 0.0
N678 N 0.98647 0.4607 0.86847 0.0
N679 N 0.94828 0.40962 0.85016 0.0
C680 C 0.9489 0.44647 0.84815 0.0
C681 C 0.00945 0.43168 0.88407 0.0
C682 C 0.98616 0.40001 0.87253 0.0
C683 C 0.09741 0.49924 0.9148 0.0
O684 O 0.11369 0.47827 0.88811 0.0
H685 H 0.92336 0.46266 0.83175 0.0
H686 H 0.04073 0.4333 0.90284 0.0
O687 O 0.01916 0.53484 0.8283 0.0
H688 H 0.83447 0.55107 0.92394 0.0
H689 H 0.99581 0.37228 0.88018 0.0
Cu690 Cu 0.81211 0.7807 0.13511 0.0
N691 N 0.78379 0.81336 0.10234 0.0
N692 N 0.76192 0.83839 0.0494 0.0
C693 C 0.79619 0.81782 0.06701 0.0
C694 C 0.72627 0.84683 0.07413 0.0
C695 C 0.74034 0.83172 0.10712 0.0
O696 O 0.85469 0.7469 0.10774 0.0
C697 C 0.74768 0.75722 0.19257 0.0
O698 O 0.78351 0.76904 0.21424 0.0
H699 H 0.82654 0.80326 0.05368 0.0
H700 H 0.71844 0.83152 0.13207 0.0
N701 N 0.84919 0.8082 0.16869 0.0
N702 N 0.8662 0.8505 0.21082 0.0
C703 C 0.83147 0.83708 0.18756 0.0
C704 C 0.89698 0.80354 0.18008 0.0
C705 C 0.90767 0.82974 0.20628 0.0
C706 C 0.86744 0.71517 0.11865 0.0
O707 O 0.85216 0.70339 0.15072 0.0
H708 H 0.79343 0.84725 0.18491 0.0
H709 H 0.92187 0.78216 0.17054 0.0
O710 O 0.75461 0.75682 0.15818 0.0
H711 H 0.69099 0.86031 0.06802 0.0
H712 H 0.94239 0.83252 0.22146 0.0
Cu713 Cu 0.51424 0.55049 0.37466 0.0
N714 N 0.56866 0.52586 0.39541 0.0
N715 N 0.60847 0.4872 0.43262 0.0
C716 C 0.5638 0.49749 0.41859 0.0
C717 C 0.64304 0.50977 0.41781 0.0
C718 C 0.6182 0.53369 0.39467 0.0
O719 O 0.46221 0.54546 0.4119 0.0
C720 C 0.49284 0.54146 0.2973 0.0
O721 O 0.49392 0.5773 0.29509 0.0
H722 H 0.5279 0.48582 0.42618 0.0
H723 H 0.63489 0.55596 0.37944 0.0
N724 N 0.53084 0.60004 0.36848 0.0
N725 N 0.56903 0.65112 0.35017 0.0
C726 C 0.56842 0.61427 0.34816 0.0
C727 C 0.50784 0.62905 0.38406 0.0
C728 C 0.53113 0.66072 0.37253 0.0
C729 C 0.41991 0.56148 0.41481 0.0
O730 O 0.40361 0.58244 0.38811 0.0
H731 H 0.59397 0.59807 0.33177 0.0
H732 H 0.47655 0.62744 0.40282 0.0
O733 O 0.49816 0.5259 0.32831 0.0
H734 H 0.68285 0.50966 0.42395 0.0
H735 H 0.52147 0.68846 0.38017 0.0
Cu736 Cu 0.89149 0.76248 0.79361 0.0
N737 N 0.89371 0.80676 0.76789 0.0
N738 N 0.87381 0.86413 0.75222 0.0
C739 C 0.86057 0.83435 0.77188 0.0
C740 C 0.917 0.85498 0.73513 0.0
C741 C 0.92927 0.8195 0.74491 0.0
O742 O 0.82922 0.76291 0.8211 0.0
C743 C 0.98128 0.78337 0.83058 0.0
O744 O 0.96396 0.81692 0.8279 0.0
H745 H 0.82761 0.83271 0.78923 0.0
H746 H 0.96219 0.8043 0.73644 0.0
N747 N 0.88887 0.72248 0.76204 0.0
N748 N 0.91554 0.67508 0.72912 0.0
C749 C 0.927 0.7086 0.7421 0.0
C750 C 0.85239 0.69685 0.76139 0.0
C751 C 0.86888 0.66735 0.7411 0.0
C752 C 0.81994 0.75078 0.85293 0.0
O753 O 0.85597 0.73636 0.87282 0.0
H754 H 0.96348 0.7215 0.73951 0.0
H755 H 0.81752 0.69854 0.77654 0.0
O756 O 0.95302 0.75666 0.82187 0.0
H757 H 0.93792 0.87255 0.71683 0.0
H758 H 0.84907 0.64187 0.73661 0.0
Cu759 Cu 0.56198 0.67566 0.03076 0.0
N760 N 0.53367 0.70841 0.06344 0.0
N761 N 0.51182 0.76133 0.08852 0.0
C762 C 0.54608 0.74373 0.06793 0.0
C763 C 0.47616 0.7366 0.09694 0.0
C764 C 0.49022 0.70362 0.08181 0.0
O765 O 0.60449 0.70306 0.99694 0.0
C766 C 0.4976 0.61817 1.00726 0.0
O767 O 0.53346 0.5965 1.01903 0.0
H768 H 0.57643 0.75707 0.05337 0.0
H769 H 0.46832 0.67867 0.08158 0.0
N770 N 0.5991 0.64207 0.05823 0.0
N771 N 0.61614 0.59993 0.10051 0.0
C772 C 0.58139 0.62319 0.0871 0.0
C773 C 0.6469 0.63071 0.05357 0.0
C774 C 0.65761 0.6045 0.07976 0.0
C775 C 0.61802 0.69183 0.96549 0.0
O776 O 0.60365 0.65942 0.95404 0.0
H777 H 0.54336 0.62582 0.09727 0.0
H778 H 0.67179 0.64026 0.03219 0.0
O779 O 0.50448 0.65257 1.0069 0.0
H780 H 0.44089 0.74271 0.11043 0.0
H781 H 0.69234 0.58933 0.08254 0.0
Cu782 Cu 0.62581 0.29826 0.29361 0.0
N783 N 0.62359 0.25397 0.26789 0.0
N784 N 0.64348 0.1966 0.25223 0.0
C785 C 0.65672 0.22638 0.27188 0.0
C786 C 0.6003 0.20575 0.23514 0.0
C787 C 0.58803 0.24124 0.24492 0.0
O788 O 0.68808 0.29783 0.3211 0.0
C789 C 0.53602 0.27737 0.33058 0.0
O790 O 0.55334 0.24383 0.32791 0.0
H791 H 0.68968 0.22802 0.28923 0.0
H792 H 0.55511 0.25644 0.23644 0.0
N793 N 0.62843 0.33826 0.26204 0.0
N794 N 0.60176 0.38565 0.22912 0.0
C795 C 0.5903 0.35213 0.2421 0.0
C796 C 0.66491 0.36389 0.26138 0.0
C797 C 0.64843 0.39338 0.24109 0.0
C798 C 0.69736 0.30996 0.35293 0.0
O799 O 0.66133 0.32438 0.37282 0.0
H800 H 0.55382 0.33924 0.23951 0.0
H801 H 0.69978 0.3622 0.27654 0.0
O802 O 0.56428 0.30408 0.32187 0.0
H803 H 0.57937 0.18818 0.21684 0.0
H804 H 0.66823 0.41886 0.23661 0.0
Cu805 Cu 0.95532 0.38508 0.53075 0.0
N806 N 0.98363 0.35233 0.56343 0.0
N807 N 1.00548 0.2994 0.58851 0.0
C808 C 0.97122 0.31701 0.56792 0.0
C809 C 0.04113 0.32414 0.59693 0.0
C810 C 0.02708 0.35712 0.5818 0.0
O811 O 0.9128 0.35768 0.49693 0.0
C812 C 0.01971 0.44257 0.50725 0.0
O813 O 0.98385 0.46423 0.51903 0.0
H814 H 0.94087 0.30366 0.55336 0.0
H815 H 0.04897 0.38207 0.58157 0.0
N816 N 0.9182 0.41867 0.55823 0.0
N817 N 0.90116 0.4608 0.60051 0.0
C818 C 0.93591 0.43755 0.58709 0.0
C819 C 0.8704 0.43003 0.55356 0.0
C820 C 0.8597 0.45624 0.57975 0.0
C821 C 0.89933 0.36889 0.46546 0.0
O822 O 0.91376 0.40128 0.45399 0.0
H823 H 0.97394 0.43491 0.59726 0.0
H824 H 0.84551 0.42048 0.53219 0.0
O825 O 0.01282 0.40816 0.50689 0.0
H826 H 0.0764 0.31803 0.61042 0.0
H827 H 0.82496 0.47141 0.58253 0.0
Cu828 Cu 0.89148 0.29826 0.76716 0.0
N829 N 0.89369 0.25397 0.79288 0.0
N830 N 0.87378 0.19661 0.80855 0.0
C831 C 0.86054 0.22639 0.7889 0.0
C832 C 0.91699 0.20575 0.82562 0.0
C833 C 0.92927 0.24123 0.81583 0.0
O834 O 0.82921 0.29784 0.73967 0.0
C835 C 0.98127 0.27737 0.73019 0.0
O836 O 0.96395 0.24383 0.73286 0.0
H837 H 0.82757 0.22804 0.77157 0.0
H838 H 0.9622 0.25642 0.82429 0.0
N839 N 0.88886 0.33826 0.79873 0.0
N840 N 0.91553 0.38565 0.83165 0.0
C841 C 0.92699 0.35213 0.81867 0.0
C842 C 0.85238 0.36389 0.79939 0.0
C843 C 0.86887 0.39338 0.81968 0.0
C844 C 0.81993 0.30997 0.70784 0.0
O845 O 0.85598 0.32438 0.68794 0.0
H846 H 0.96347 0.33923 0.82126 0.0
H847 H 0.81751 0.3622 0.78423 0.0
O848 O 0.95301 0.30408 0.7389 0.0
H849 H 0.93793 0.18817 0.84389 0.0
H850 H 0.84907 0.41886 0.82416 0.0
Cu851 Cu 0.95534 0.67566 1.03002 0.0
N852 N 0.98365 0.70841 0.99733 0.0
N853 N 1.00549 0.76134 0.97225 0.0
C854 C 0.97123 0.74373 0.99285 0.0
C855 C 0.04115 0.73661 0.96383 0.0
C856 C 0.0271 0.70362 0.97897 0.0
O857 O 0.91284 0.70305 0.06384 0.0
C858 C 0.01973 0.61817 0.05351 0.0
O859 O 0.98387 0.5965 0.04173 0.0
H860 H 0.94088 0.75707 1.0074 0.0
H861 H 0.04901 0.67868 0.97919 0.0
N862 N 0.91822 0.64207 1.00254 0.0
N863 N 0.90118 0.59993 0.96027 0.0
C864 C 0.93593 0.62319 0.97368 0.0
C865 C 0.87042 0.6307 1.00721 0.0
C866 C 0.85972 0.60449 0.98103 0.0
C867 C 0.89915 0.69177 0.09523 0.0
O868 O 0.91334 0.65929 0.10661 0.0
H869 H 0.97396 0.62583 0.9635 0.0
H870 H 0.84554 0.64026 1.02859 0.0
O871 O 0.01284 0.65257 0.05387 0.0
H872 H 0.07642 0.74272 0.95035 0.0
H873 H 0.82498 0.58932 0.97825 0.0
Cu874 Cu 0.62584 0.76247 0.26717 0.0
N875 N 0.62363 0.80677 0.29288 0.0
N876 N 0.64354 0.86413 0.30855 0.0
C877 C 0.65678 0.83435 0.28891 0.0
C878 C 0.60033 0.855 0.32562 0.0
C879 C 0.58805 0.81951 0.31584 0.0
O880 O 0.68811 0.76289 0.23968 0.0
C881 C 0.53605 0.78336 0.2302 0.0
O882 O 0.55337 0.81691 0.23287 0.0
H883 H 0.68975 0.8327 0.27157 0.0
H884 H 0.55511 0.80432 0.32429 0.0
N885 N 0.62846 0.72248 0.29875 0.0
N886 N 0.60178 0.67509 0.33166 0.0
C887 C 0.59032 0.7086 0.31868 0.0
C888 C 0.66494 0.69685 0.29941 0.0
C889 C 0.64845 0.66736 0.3197 0.0
C890 C 0.69738 0.75076 0.20785 0.0
O891 O 0.66133 0.73637 0.18795 0.0
H892 H 0.55384 0.7215 0.32126 0.0
H893 H 0.69981 0.69854 0.28426 0.0
O894 O 0.56431 0.75665 0.23891 0.0
H895 H 0.57938 0.87258 0.34389 0.0
H896 H 0.66826 0.64188 0.32419 0.0
Cu897 Cu 0.56197 0.38507 0.53001 0.0
N898 N 0.53367 0.35232 0.49732 0.0
N899 N 0.51183 0.2994 0.47224 0.0
C900 C 0.54608 0.317 0.49283 0.0
C901 C 0.47618 0.32413 0.46381 0.0
C902 C 0.49023 0.35711 0.47895 0.0
O903 O 0.60445 0.35767 0.56384 0.0
C904 C 0.49757 0.44255 0.5535 0.0
O905 O 0.53343 0.46422 0.54173 0.0
H906 H 0.57643 0.30366 0.5074 0.0
H907 H 0.46832 0.38206 0.47917 0.0
N908 N 0.5991 0.41866 0.50254 0.0
N909 N 0.61614 0.4608 0.46027 0.0
C910 C 0.58139 0.43754 0.47368 0.0
C911 C 0.64689 0.43003 0.50721 0.0
C912 C 0.6576 0.45624 0.48102 0.0
C913 C 0.61836 0.36904 0.59515 0.0
O914 O 0.60441 0.4016 0.60643 0.0
H915 H 0.54336 0.4349 0.4635 0.0
H916 H 0.67178 0.42047 0.52859 0.0
O917 O 0.50446 0.40815 0.55386 0.0
H918 H 0.44091 0.31802 0.45032 0.0
H919 H 0.69234 0.47141 0.47825 0.0
Cu920 Cu 0.75309 0.93608 0.76027 0.0
N921 N 0.69866 0.91533 0.78489 0.0
N922 N 0.65882 0.8781 0.82352 0.0
C923 C 0.7035 0.8921 0.81323 0.0
C924 C 0.62425 0.893 0.80101 0.0
C925 C 0.6491 0.91614 0.7771 0.0
O926 O 0.80512 0.89885 0.76532 0.0
C927 C 0.77447 1.01345 0.7693 0.0
O928 O 0.77342 1.01566 0.73346 0.0
H929 H 0.7394 0.88448 0.82488 0.0
H930 H 0.63242 0.93144 0.75488 0.0
N931 N 0.7365 0.94226 0.71072 0.0
N932 N 0.69833 0.96056 0.65964 0.0
C933 C 0.69893 0.96258 0.69649 0.0
C934 C 0.7595 0.92667 0.68172 0.0
C935 C 0.73622 0.9382 0.65004 0.0
C936 C 0.84743 0.89594 0.7493 0.0
O937 O 0.86372 0.92263 0.72833 0.0
H938 H 0.67337 0.97898 0.71268 0.0
H939 H 0.79079 0.90791 0.68334 0.0
O940 O 0.76915 0.98244 0.78486 0.0
H941 H 0.58442 0.88694 0.80117 0.0
H942 H 0.74588 0.93056 0.62231 0.0
Cu943 Cu 0.25308 0.62465 0.3005 0.0
N944 N 0.19866 0.64541 0.27588 0.0
N945 N 0.15882 0.68264 0.23726 0.0
C946 C 0.2035 0.66864 0.24754 0.0
C947 C 0.12425 0.66774 0.25976 0.0
C948 C 0.1491 0.64459 0.28367 0.0
O949 O 0.30513 0.66187 0.29544 0.0
C950 C 0.27443 0.54727 0.29148 0.0
O951 O 0.27335 0.54507 0.32732 0.0
H952 H 0.23941 0.67627 0.2359 0.0
H953 H 0.13241 0.62929 0.30588 0.0
N954 N 0.2365 0.61849 0.35005 0.0
N955 N 0.19832 0.60021 0.40114 0.0
C956 C 0.19892 0.59818 0.3643 0.0
C957 C 0.25951 0.63409 0.37904 0.0
C958 C 0.23622 0.62258 0.41072 0.0
C959 C 0.34744 0.66477 0.31146 0.0
O960 O 0.36372 0.63808 0.33243 0.0
H961 H 0.17335 0.58179 0.34812 0.0
H962 H 0.29079 0.65285 0.37741 0.0
O963 O 0.26913 0.57829 0.27591 0.0
H964 H 0.08442 0.6738 0.25961 0.0
H965 H 0.24587 0.63026 0.43845 0.0
Cu966 Cu 0.6415 0.04355 0.54828 0.0
N967 N 0.6437 1.01784 0.50399 0.0
N968 N 0.62378 1.00216 0.44663 0.0
C969 C 0.61055 1.02182 0.47641 0.0
C970 C 0.66698 0.98508 0.45576 0.0
C971 C 0.67926 0.99486 0.49124 0.0
O972 O 0.57925 0.07106 0.54788 0.0
C973 C 0.73132 0.0805 0.52739 0.0
O974 O 0.71398 0.07782 0.49385 0.0
H975 H 0.57759 0.03917 0.47806 0.0
H976 H 0.71219 0.9864 0.50644 0.0
N977 N 0.63889 1.01197 0.58827 0.0
N978 N 0.66557 0.97906 0.63567 0.0
C979 C 0.67703 0.99205 0.60215 0.0
C980 C 0.6024 1.0113 0.61389 0.0
C981 C 0.61889 0.99102 0.64339 0.0
C982 C 0.57004 0.10293 0.55992 0.0
O983 O 0.60615 0.12286 0.57419 0.0
H984 H 0.71352 0.98947 0.58926 0.0
H985 H 0.56753 1.02645 0.6122 0.0
O986 O 0.70305 0.0718 0.5541 0.0
H987 H 0.68791 0.96679 0.43819 0.0
H988 H 0.59909 0.98652 0.66886 0.0
Cu989 Cu 0.26422 0.43608 0.80051 0.0
N990 N 0.31865 0.41533 0.77589 0.0
N991 N 0.35849 0.3781 0.73726 0.0
C992 C 0.31381 0.3921 0.74755 0.0
C993 C 0.39306 0.39299 0.75978 0.0
C994 C 0.36821 0.41614 0.78368 0.0
O995 O 0.21218 0.39886 0.79545 0.0
C996 C 0.24287 0.51346 0.7915 0.0
O997 O 0.24395 0.51567 0.82733 0.0
H998 H 0.27791 0.38447 0.7359 0.0
H999 H 0.3849 0.43144 0.8059 0.0
N1000 N 0.2808 0.44225 0.85006 0.0
N1001 N 0.31898 0.46052 0.90116 0.0
C1002 C 0.31838 0.46254 0.86431 0.0
C1003 C 0.25779 0.42665 0.87906 0.0
C1004 C 0.28108 0.43815 0.91074 0.0
C1005 C 0.16987 0.39595 0.81147 0.0
O1006 O 0.15358 0.42265 0.83244 0.0
H1007 H 0.34396 0.47893 0.84813 0.0
H1008 H 0.2265 0.40789 0.87743 0.0
O1009 O 0.24817 0.48245 0.77593 0.0
H1010 H 0.43289 0.38693 0.75962 0.0
H1011 H 0.27143 0.43048 0.93847 0.0
Cu1012 Cu 0.37579 0.51721 0.54827 0.0
N1013 N 0.37361 0.54293 0.50398 0.0
N1014 N 0.39353 0.55859 0.44662 0.0
C1015 C 0.40676 0.53894 0.4764 0.0
C1016 C 0.35033 0.57567 0.45575 0.0
C1017 C 0.33804 0.56589 0.49123 0.0
O1018 O 0.43805 0.4897 0.54787 0.0
C1019 C 0.286 0.48026 0.52736 0.0
O1020 O 0.30333 0.48293 0.49383 0.0
H1021 H 0.43972 0.52159 0.47805 0.0
H1022 H 0.30511 0.57436 0.50642 0.0
N1023 N 0.37841 0.54879 0.58827 0.0
N1024 N 0.35173 0.58169 0.63567 0.0
C1025 C 0.34027 0.56871 0.60215 0.0
C1026 C 0.4149 0.54946 0.61388 0.0
C1027 C 0.39842 0.56974 0.64338 0.0
C1028 C 0.44727 0.45784 0.55994 0.0
O1029 O 0.41118 0.43794 0.57427 0.0
H1030 H 0.30378 0.57128 0.58927 0.0
H1031 H 0.44978 0.53431 0.61218 0.0
O1032 O 0.31425 0.48896 0.55408 0.0
H1033 H 0.3294 0.59395 0.43817 0.0
H1034 H 0.41823 0.57423 0.66886 0.0
Cu1035 Cu 0.76421 0.12465 0.26026 0.0
N1036 N 0.81864 0.14541 0.28488 0.0
N1037 N 0.85848 0.18264 0.32351 0.0
C1038 C 0.81379 0.16863 0.31322 0.0
C1039 C 0.89305 0.16775 0.30099 0.0
C1040 C 0.86819 0.1446 0.27708 0.0
O1041 O 0.71217 0.16188 0.26533 0.0
C1042 C 0.74284 0.04728 0.26929 0.0
O1043 O 0.7439 0.04507 0.23346 0.0
H1044 H 0.7779 0.17626 0.32488 0.0
H1045 H 0.88488 0.1293 0.25487 0.0
N1046 N 0.78079 0.11848 0.21071 0.0
N1047 N 0.81896 0.1002 0.15962 0.0
C1048 C 0.81836 0.09817 0.19647 0.0
C1049 C 0.75778 0.13408 0.18172 0.0
C1050 C 0.78107 0.12257 0.15004 0.0
C1051 C 0.66986 0.16479 0.2493 0.0
O1052 O 0.65357 0.13811 0.22833 0.0
H1053 H 0.84393 0.08178 0.21265 0.0
H1054 H 0.72651 0.15285 0.18335 0.0
O1055 O 0.74816 0.07829 0.28486 0.0
H1056 H 0.93288 0.1738 0.30115 0.0
H1057 H 0.77143 0.13024 0.12231 0.0
Cu1058 Cu 0.64149 1.01719 1.0125 0.0
N1059 N 0.64368 0.0429 0.05679 0.0
N1060 N 0.62377 0.05857 0.11415 0.0
C1061 C 0.61053 0.03892 0.08438 0.0
C1062 C 0.66697 0.07565 0.10502 0.0
C1063 C 0.67925 0.06587 0.06954 0.0
O1064 O 0.57923 0.98968 1.01291 0.0
C1065 C 0.73129 0.98023 0.03341 0.0
O1066 O 0.71396 0.98291 0.06695 0.0
H1067 H 0.57757 1.02157 0.08273 0.0
H1068 H 0.71218 0.07433 0.05435 0.0
N1069 N 0.63888 0.04876 0.97251 0.0
N1070 N 0.66556 0.08167 0.92511 0.0
C1071 C 0.67702 0.06868 0.95863 0.0
C1072 C 0.60239 0.04943 0.94689 0.0
C1073 C 0.61888 0.06971 0.91739 0.0
C1074 C 0.57002 0.95781 1.00086 0.0
O1075 O 0.60612 0.93788 0.98657 0.0
H1076 H 0.71351 0.07126 0.97151 0.0
H1077 H 0.56751 0.03429 0.94859 0.0
O1078 O 0.70303 0.98893 1.00669 0.0
H1079 H 0.6879 0.09393 0.1226 0.0
H1080 H 0.59907 0.07421 0.89192 0.0
Cu1081 Cu 0.87583 0.04355 0.5125 0.0
N1082 N 0.87363 1.01784 0.55679 0.0
N1083 N 0.89354 1.00217 0.61415 0.0
C1084 C 0.90678 1.02182 0.58437 0.0
C1085 C 0.85034 0.98509 0.60501 0.0
C1086 C 0.83807 0.99487 0.56953 0.0
O1087 O 0.93809 0.07105 0.5129 0.0
C1088 C 0.78603 0.08051 0.53339 0.0
O1089 O 0.80335 0.07784 0.56693 0.0
H1090 H 0.93975 0.03917 0.58272 0.0
H1091 H 0.80513 0.98641 0.55434 0.0
N1092 N 0.87845 1.01197 0.47251 0.0
N1093 N 0.85177 0.97907 0.42511 0.0
C1094 C 0.8403 0.99205 0.45862 0.0
C1095 C 0.91494 1.0113 0.44688 0.0
C1096 C 0.89845 0.99102 0.41739 0.0
C1097 C 0.94731 0.10293 0.50086 0.0
O1098 O 0.9112 0.12285 0.48657 0.0
H1099 H 0.80381 0.98948 0.47151 0.0
H1100 H 0.94982 1.02644 0.44858 0.0
O1101 O 0.81429 0.0718 0.50668 0.0
H1102 H 0.8294 0.96681 0.62259 0.0
H1103 H 0.91826 0.98652 0.39191 0.0
loop_
_geom_bond_atom_site_label_1
_geom_bond_atom_site_label_2
_geom_bond_distance
_geom_bond_site_symmetry_2
_ccdc_geom_bond_type
Cu0 N1 1.999 . S
Cu0 O6 1.974 . S
Cu0 N11 1.985 . S
Cu0 O20 1.959 . S
N1 Cu0 1.999 . S
N1 C3 1.263 . S
N1 C5 1.389 . S
N2 C3 1.358 . S
N2 C4 1.400 . S
C3 N1 1.263 . S
C3 N2 1.358 . S
C3 H9 0.930 . S
C4 N2 1.400 . S
C4 C5 1.351 . S
C4 H21 0.930 . S
C5 N1 1.389 . S
C5 C4 1.351 . S
C5 H10 0.930 . S
O6 Cu0 1.974 . S
O6 C16 1.282 . S
C7 O8 1.261 . S
C7 O20 1.251 . S
O8 C7 1.261 . S
H9 C3 0.930 . S
H10 C5 0.930 . S
N11 Cu0 1.985 . S
N11 C13 1.335 . S
N11 C14 1.390 . S
N12 C13 1.345 . S
N12 C15 1.336 . S
C13 N11 1.335 . S
C13 N12 1.345 . S
C13 H18 0.930 . S
C14 N11 1.390 . S
C14 C15 1.346 . S
C14 H19 0.930 . S
C15 N12 1.336 . S
C15 C14 1.346 . S
C15 H22 0.929 . S
C16 O6 1.282 . S
C16 O17 1.216 . S
O17 C16 1.216 . S
H18 C13 0.930 . S
H19 C14 0.930 . S
O20 Cu0 1.959 . S
O20 C7 1.251 . S
H21 C4 0.930 . S
H22 C15 0.929 . S
Cu23 N24 1.999 1_565 S
Cu23 O29 1.974 . S
Cu23 N34 1.985 . S
Cu23 O43 1.959 . S
N24 Cu23 1.999 1_545 S
N24 C26 1.263 . S
N24 C28 1.389 . S
N25 C26 1.358 . S
N25 C27 1.400 . S
C26 N24 1.263 . S
C26 N25 1.358 . S
C26 H32 0.930 . S
C27 N25 1.400 . S
C27 C28 1.351 . S
C27 H44 0.930 . S
C28 N24 1.389 . S
C28 C27 1.351 . S
C28 H33 0.930 . S
O29 Cu23 1.974 . S
O29 C39 1.282 . S
C30 O31 1.261 1_565 S
C30 O43 1.251 . S
O31 C30 1.261 1_545 S
H32 C26 0.930 . S
H33 C28 0.930 . S
N34 Cu23 1.985 . S
N34 C36 1.335 . S
N34 C37 1.390 . S
N35 C36 1.345 . S
N35 C38 1.336 . S
C36 N34 1.335 . S
C36 N35 1.345 . S
C36 H41 0.930 . S
C37 N34 1.390 . S
C37 C38 1.346 . S
C37 H42 0.930 . S
C38 N35 1.336 . S
C38 C37 1.346 . S
C38 H45 0.929 . S
C39 O29 1.282 . S
C39 O40 1.216 1_455 S
O40 C39 1.216 1_655 S
H41 C36 0.930 . S
H42 C37 0.930 . S
O43 Cu23 1.959 . S
O43 C30 1.251 . S
H44 C27 0.930 . S
H45 C38 0.929 . S
Cu46 N47 1.999 . S
Cu46 O52 1.974 . S
Cu46 N57 1.985 . S
Cu46 O66 1.959 . S
N47 Cu46 1.999 . S
N47 C49 1.263 . S
N47 C51 1.389 . S
N48 C49 1.358 . S
N48 C50 1.400 . S
C49 N47 1.263 . S
C49 N48 1.358 . S
C49 H55 0.930 . S
C50 N48 1.400 . S
C50 C51 1.351 . S
C50 H67 0.930 . S
C51 N47 1.389 . S
C51 C50 1.351 . S
C51 H56 0.930 . S
O52 Cu46 1.974 . S
O52 C62 1.282 . S
C53 O54 1.261 . S
C53 O66 1.251 . S
O54 C53 1.261 . S
H55 C49 0.930 . S
H56 C51 0.930 . S
N57 Cu46 1.985 . S
N57 C59 1.335 . S
N57 C60 1.390 . S
N58 C59 1.345 . S
N58 C61 1.336 . S
C59 N57 1.335 . S
C59 N58 1.345 . S
C59 H64 0.930 . S
C60 N57 1.390 . S
C60 C61 1.346 . S
C60 H65 0.930 . S
C61 N58 1.336 . S
C61 C60 1.346 . S
C61 H68 0.929 . S
C62 O52 1.282 . S
C62 O63 1.216 . S
O63 C62 1.216 . S
H64 C59 0.930 . S
H65 C60 0.930 . S
O66 Cu46 1.959 . S
O66 C53 1.251 . S
H67 C50 0.930 . S
H68 C61 0.929 . S
Cu69 N70 1.999 1_545 S
Cu69 O75 1.974 . S
Cu69 N80 1.985 . S
Cu69 O89 1.959 . S
N70 Cu69 1.999 1_565 S
N70 C72 1.263 . S
N70 C74 1.389 . S
N71 C72 1.358 . S
N71 C73 1.400 . S
C72 N70 1.263 . S
C72 N71 1.358 . S
C72 H78 0.930 . S
C73 N71 1.400 . S
C73 C74 1.351 . S
C73 H90 0.930 . S
C74 N70 1.389 . S
C74 C73 1.351 . S
C74 H79 0.930 . S
O75 Cu69 1.974 . S
O75 C85 1.282 . S
C76 O77 1.261 1_545 S
C76 O89 1.251 . S
O77 C76 1.261 1_565 S
H78 C72 0.930 . S
H79 C74 0.930 . S
N80 Cu69 1.985 . S
N80 C82 1.335 . S
N80 C83 1.390 . S
N81 C82 1.345 . S
N81 C84 1.336 . S
C82 N80 1.335 . S
C82 N81 1.345 . S
C82 H87 0.930 . S
C83 N80 1.390 . S
C83 C84 1.346 . S
C83 H88 0.930 . S
C84 N81 1.336 . S
C84 C83 1.346 . S
C84 H91 0.929 . S
C85 O75 1.282 . S
C85 O86 1.216 . S
O86 C85 1.216 . S
H87 C82 0.930 . S
H88 C83 0.930 . S
O89 Cu69 1.959 . S
O89 C76 1.251 . S
H90 C73 0.930 . S
H91 C84 0.929 . S
Cu92 N93 1.999 . S
Cu92 O98 1.974 . S
Cu92 N103 1.985 . S
Cu92 O112 1.959 . S
N93 Cu92 1.999 . S
N93 C95 1.263 . S
N93 C97 1.389 . S
N94 C95 1.358 . S
N94 C96 1.400 . S
C95 N93 1.263 . S
C95 N94 1.358 . S
C95 H101 0.930 . S
C96 N94 1.400 . S
C96 C97 1.351 . S
C96 H113 0.930 . S
C97 N93 1.389 . S
C97 C96 1.351 . S
C97 H102 0.930 . S
O98 Cu92 1.974 . S
O98 C108 1.282 . S
C99 O100 1.261 . S
C99 O112 1.251 . S
O100 C99 1.261 . S
H101 C95 0.930 . S
H102 C97 0.930 . S
N103 Cu92 1.985 . S
N103 C105 1.335 . S
N103 C106 1.390 . S
N104 C105 1.345 . S
N104 C107 1.336 . S
C105 N103 1.335 . S
C105 N104 1.345 . S
C105 H110 0.930 . S
C106 N103 1.390 . S
C106 C107 1.346 . S
C106 H111 0.930 . S
C107 N104 1.336 . S
C107 C106 1.346 . S
C107 H114 0.929 . S
C108 O98 1.282 . S
C108 O109 1.216 . S
O109 C108 1.216 . S
H110 C105 0.930 . S
H111 C106 0.930 . S
O112 Cu92 1.959 . S
O112 C99 1.251 . S
H113 C96 0.930 . S
H114 C107 0.929 . S
Cu115 N116 1.999 1_565 S
Cu115 O121 1.974 . S
Cu115 N126 1.985 . S
Cu115 O135 1.959 . S
N116 Cu115 1.999 1_545 S
N116 C118 1.263 . S
N116 C120 1.389 . S
N117 C118 1.358 . S
N117 C119 1.400 . S
C118 N116 1.263 . S
C118 N117 1.358 . S
C118 H124 0.930 . S
C119 N117 1.400 . S
C119 C120 1.351 . S
C119 H136 0.930 . S
C120 N116 1.389 . S
C120 C119 1.351 . S
C120 H125 0.930 . S
O121 Cu115 1.974 . S
O121 C131 1.282 . S
C122 O123 1.261 1_565 S
C122 O135 1.251 . S
O123 C122 1.261 1_545 S
H124 C118 0.930 . S
H125 C120 0.930 . S
N126 Cu115 1.985 . S
N126 C128 1.335 . S
N126 C129 1.390 . S
N127 C128 1.345 . S
N127 C130 1.336 . S
C128 N126 1.335 . S
C128 N127 1.345 . S
C128 H133 0.930 . S
C129 N126 1.390 . S
C129 C130 1.346 . S
C129 H134 0.930 . S
C130 N127 1.336 . S
C130 C129 1.346 . S
C130 H137 0.929 . S
C131 O121 1.282 . S
C131 O132 1.216 . S
O132 C131 1.216 . S
H133 C128 0.930 . S
H134 C129 0.930 . S
O135 Cu115 1.959 . S
O135 C122 1.251 . S
H136 C119 0.930 . S
H137 C130 0.929 . S
Cu138 N139 1.999 . S
Cu138 O144 1.974 . S
Cu138 N149 1.985 . S
Cu138 O158 1.959 . S
N139 Cu138 1.999 . S
N139 C141 1.263 . S
N139 C143 1.389 . S
N140 C141 1.358 . S
N140 C142 1.400 . S
C141 N139 1.263 . S
C141 N140 1.358 . S
C141 H147 0.930 . S
C142 N140 1.400 . S
C142 C143 1.351 . S
C142 H159 0.930 . S
C143 N139 1.389 . S
C143 C142 1.351 . S
C143 H148 0.930 . S
O144 Cu138 1.974 . S
O144 C154 1.282 . S
C145 O146 1.261 . S
C145 O158 1.251 . S
O146 C145 1.261 . S
H147 C141 0.930 . S
H148 C143 0.930 . S
N149 Cu138 1.985 . S
N149 C151 1.335 . S
N149 C152 1.390 . S
N150 C151 1.345 . S
N150 C153 1.336 . S
C151 N149 1.335 . S
C151 N150 1.345 . S
C151 H156 0.930 . S
C152 N149 1.390 . S
C152 C153 1.346 . S
C152 H157 0.930 . S
C153 N150 1.336 . S
C153 C152 1.346 . S
C153 H160 0.929 . S
C154 O144 1.282 . S
C154 O155 1.216 . S
O155 C154 1.216 . S
H156 C151 0.930 . S
H157 C152 0.930 . S
O158 Cu138 1.959 . S
O158 C145 1.251 . S
H159 C142 0.930 . S
H160 C153 0.929 . S
Cu161 N162 1.999 1_545 S
Cu161 O167 1.974 . S
Cu161 N172 1.985 . S
Cu161 O181 1.959 . S
N162 Cu161 1.999 1_565 S
N162 C164 1.263 . S
N162 C166 1.389 . S
N163 C164 1.358 . S
N163 C165 1.400 . S
C164 N162 1.263 . S
C164 N163 1.358 . S
C164 H170 0.930 . S
C165 N163 1.400 . S
C165 C166 1.351 . S
C165 H182 0.930 . S
C166 N162 1.389 . S
C166 C165 1.351 . S
C166 H171 0.930 . S
O167 Cu161 1.974 . S
O167 C177 1.282 . S
C168 O169 1.261 1_545 S
C168 O181 1.251 . S
O169 C168 1.261 1_565 S
H170 C164 0.930 . S
H171 C166 0.930 . S
N172 Cu161 1.985 . S
N172 C174 1.335 . S
N172 C175 1.390 . S
N173 C174 1.345 . S
N173 C176 1.336 . S
C174 N172 1.335 . S
C174 N173 1.345 . S
C174 H179 0.930 . S
C175 N172 1.390 . S
C175 C176 1.346 . S
C175 H180 0.930 . S
C176 N173 1.336 . S
C176 C175 1.346 . S
C176 H183 0.929 . S
C177 O167 1.282 . S
C177 O178 1.216 1_455 S
O178 C177 1.216 1_655 S
H179 C174 0.930 . S
H180 C175 0.930 . S
O181 Cu161 1.959 . S
O181 C168 1.251 . S
H182 C165 0.930 . S
H183 C176 0.929 . S
Cu184 N185 1.999 . S
Cu184 O190 1.974 . S
Cu184 N195 1.985 . S
Cu184 O204 1.959 . S
N185 Cu184 1.999 . S
N185 C187 1.263 . S
N185 C189 1.389 . S
N186 C187 1.358 . S
N186 C188 1.400 . S
C187 N185 1.263 . S
C187 N186 1.358 . S
C187 H193 0.930 . S
C188 N186 1.400 . S
C188 C189 1.351 . S
C188 H205 0.930 . S
C189 N185 1.389 . S
C189 C188 1.351 . S
C189 H194 0.930 . S
O190 Cu184 1.974 . S
O190 C200 1.282 . S
C191 O192 1.261 . S
C191 O204 1.251 . S
O192 C191 1.261 . S
H193 C187 0.930 . S
H194 C189 0.930 . S
N195 Cu184 1.985 . S
N195 C197 1.335 . S
N195 C198 1.390 . S
N196 C197 1.345 . S
N196 C199 1.336 . S
C197 N195 1.335 . S
C197 N196 1.345 . S
C197 H202 0.930 . S
C198 N195 1.390 . S
C198 C199 1.346 . S
C198 H203 0.930 . S
C199 N196 1.336 . S
C199 C198 1.346 . S
C199 H206 0.929 . S
C200 O190 1.282 . S
C200 O201 1.216 . S
O201 C200 1.216 . S
H202 C197 0.930 . S
H203 C198 0.930 . S
O204 Cu184 1.959 . S
O204 C191 1.251 . S
H205 C188 0.930 . S
H206 C199 0.929 . S
Cu207 N208 1.999 . S
Cu207 O213 1.974 . S
Cu207 N218 1.985 . S
Cu207 O227 1.959 1_455 S
N208 Cu207 1.999 . S
N208 C210 1.263 . S
N208 C212 1.389 1_455 S
N209 C210 1.358 1_655 S
N209 C211 1.400 . S
C210 N208 1.263 . S
C210 N209 1.358 1_455 S
C210 H216 0.930 . S
C211 N209 1.400 . S
C211 C212 1.351 . S
C211 H228 0.930 . S
C212 N208 1.389 1_655 S
C212 C211 1.351 . S
C212 H217 0.930 . S
O213 Cu207 1.974 . S
O213 C223 1.282 . S
C214 O215 1.261 . S
C214 O227 1.251 . S
O215 C214 1.261 . S
H216 C210 0.930 . S
H217 C212 0.930 . S
N218 Cu207 1.985 . S
N218 C220 1.335 . S
N218 C221 1.390 . S
N219 C220 1.345 . S
N219 C222 1.336 . S
C220 N218 1.335 . S
C220 N219 1.345 . S
C220 H225 0.930 . S
C221 N218 1.390 . S
C221 C222 1.346 . S
C221 H226 0.930 . S
C222 N219 1.336 . S
C222 C221 1.346 . S
C222 H229 0.929 . S
C223 O213 1.282 . S
C223 O224 1.216 . S
O224 C223 1.216 . S
H225 C220 0.930 . S
H226 C221 0.930 . S
O227 Cu207 1.959 1_655 S
O227 C214 1.251 . S
H228 C211 0.930 . S
H229 C222 0.929 . S
Cu230 N231 1.999 . S
Cu230 O236 1.974 . S
Cu230 N241 1.985 . S
Cu230 O250 1.959 . S
N231 Cu230 1.999 . S
N231 C233 1.263 . S
N231 C235 1.389 . S
N232 C233 1.358 . S
N232 C234 1.400 . S
C233 N231 1.263 . S
C233 N232 1.358 . S
C233 H239 0.930 . S
C234 N232 1.400 . S
C234 C235 1.351 . S
C234 H251 0.930 . S
C235 N231 1.389 . S
C235 C234 1.351 . S
C235 H240 0.930 . S
O236 Cu230 1.974 . S
O236 C246 1.282 . S
C237 O238 1.261 . S
C237 O250 1.251 . S
O238 C237 1.261 . S
H239 C233 0.930 . S
H240 C235 0.930 . S
N241 Cu230 1.985 . S
N241 C243 1.335 . S
N241 C244 1.390 . S
N242 C243 1.345 . S
N242 C245 1.336 . S
C243 N241 1.335 . S
C243 N242 1.345 . S
C243 H248 0.930 . S
C244 N241 1.390 . S
C244 C245 1.346 . S
C244 H249 0.930 . S
C245 N242 1.336 . S
C245 C244 1.346 . S
C245 H252 0.929 . S
C246 O236 1.282 . S
C246 O247 1.216 . S
O247 C246 1.216 . S
H248 C243 0.930 . S
H249 C244 0.930 . S
O250 Cu230 1.959 . S
O250 C237 1.251 . S
H251 C234 0.930 . S
H252 C245 0.929 . S
Cu253 N254 1.999 . S
Cu253 O259 1.974 . S
Cu253 N264 1.985 1_556 S
Cu253 O273 1.959 1_556 S
N254 Cu253 1.999 . S
N254 C256 1.263 . S
N254 C258 1.389 . S
N255 C256 1.358 . S
N255 C257 1.400 . S
C256 N254 1.263 . S
C256 N255 1.358 . S
C256 H262 0.930 . S
C257 N255 1.400 . S
C257 C258 1.351 . S
C257 H274 0.930 . S
C258 N254 1.389 . S
C258 C257 1.351 . S
C258 H263 0.930 1_556 S
O259 Cu253 1.974 . S
O259 C269 1.282 . S
C260 O261 1.261 . S
C260 O273 1.251 1_556 S
O261 C260 1.261 . S
H262 C256 0.930 . S
H263 C258 0.930 1_554 S
N264 Cu253 1.985 1_554 S
N264 C266 1.335 . S
N264 C267 1.390 1_554 S
N265 C266 1.345 . S
N265 C268 1.336 . S
C266 N264 1.335 . S
C266 N265 1.345 . S
C266 H271 0.930 . S
C267 N264 1.390 1_556 S
C267 C268 1.346 1_556 S
C267 H272 0.930 . S
C268 N265 1.336 . S
C268 C267 1.346 1_554 S
C268 H275 0.929 . S
C269 O259 1.282 . S
C269 O270 1.216 . S
O270 C269 1.216 . S
H271 C266 0.930 . S
H272 C267 0.930 . S
O273 Cu253 1.959 1_554 S
O273 C260 1.251 1_554 S
H274 C257 0.930 . S
H275 C268 0.929 . S
Cu276 N277 1.999 . S
Cu276 O282 1.974 . S
Cu276 N287 1.985 . S
Cu276 O296 1.959 . S
N277 Cu276 1.999 . S
N277 C279 1.263 . S
N277 C281 1.389 . S
N278 C279 1.358 . S
N278 C280 1.400 . S
C279 N277 1.263 . S
C279 N278 1.358 . S
C279 H285 0.930 . S
C280 N278 1.400 . S
C280 C281 1.351 . S
C280 H297 0.930 . S
C281 N277 1.389 . S
C281 C280 1.351 . S
C281 H286 0.930 . S
O282 Cu276 1.974 . S
O282 C292 1.282 . S
C283 O284 1.261 . S
C283 O296 1.251 . S
O284 C283 1.261 . S
H285 C279 0.930 . S
H286 C281 0.930 . S
N287 Cu276 1.985 . S
N287 C289 1.335 . S
N287 C290 1.390 . S
N288 C289 1.345 . S
N288 C291 1.336 . S
C289 N287 1.335 . S
C289 N288 1.345 . S
C289 H294 0.930 . S
C290 N287 1.390 . S
C290 C291 1.346 . S
C290 H295 0.930 . S
C291 N288 1.336 . S
C291 C290 1.346 . S
C291 H298 0.929 . S
C292 O282 1.282 . S
C292 O293 1.216 . S
O293 C292 1.216 . S
H294 C289 0.930 . S
H295 C290 0.930 . S
O296 Cu276 1.959 . S
O296 C283 1.251 . S
H297 C280 0.930 . S
H298 C291 0.929 . S
Cu299 N300 1.999 . S
Cu299 O305 1.974 . S
Cu299 N310 1.985 . S
Cu299 O319 1.959 . S
N300 Cu299 1.999 . S
N300 C302 1.263 . S
N300 C304 1.389 . S
N301 C302 1.358 . S
N301 C303 1.400 . S
C302 N300 1.263 . S
C302 N301 1.358 . S
C302 H308 0.930 . S
C303 N301 1.400 . S
C303 C304 1.351 . S
C303 H320 0.930 . S
C304 N300 1.389 . S
C304 C303 1.351 . S
C304 H309 0.930 . S
O305 Cu299 1.974 . S
O305 C315 1.282 . S
C306 O307 1.261 . S
C306 O319 1.251 . S
O307 C306 1.261 . S
H308 C302 0.930 . S
H309 C304 0.930 . S
N310 Cu299 1.985 . S
N310 C312 1.335 . S
N310 C313 1.390 . S
N311 C312 1.345 . S
N311 C314 1.336 . S
C312 N310 1.335 . S
C312 N311 1.345 . S
C312 H317 0.930 . S
C313 N310 1.390 . S
C313 C314 1.346 . S
C313 H318 0.930 . S
C314 N311 1.336 . S
C314 C313 1.346 . S
C314 H321 0.929 . S
C315 O305 1.282 . S
C315 O316 1.216 . S
O316 C315 1.216 . S
H317 C312 0.930 . S
H318 C313 0.930 . S
O319 Cu299 1.959 . S
O319 C306 1.251 . S
H320 C303 0.930 . S
H321 C314 0.929 . S
Cu322 N323 1.999 . S
Cu322 O328 1.974 . S
Cu322 N333 1.985 . S
Cu322 O342 1.959 . S
N323 Cu322 1.999 . S
N323 C325 1.263 . S
N323 C327 1.389 . S
N324 C325 1.358 . S
N324 C326 1.400 . S
C325 N323 1.263 . S
C325 N324 1.358 . S
C325 H331 0.930 . S
C326 N324 1.400 . S
C326 C327 1.351 . S
C326 H343 0.930 . S
C327 N323 1.389 . S
C327 C326 1.351 . S
C327 H332 0.930 . S
O328 Cu322 1.974 . S
O328 C338 1.282 . S
C329 O330 1.261 . S
C329 O342 1.251 . S
O330 C329 1.261 . S
H331 C325 0.930 . S
H332 C327 0.930 . S
N333 Cu322 1.985 . S
N333 C335 1.335 . S
N333 C336 1.390 . S
N334 C335 1.345 . S
N334 C337 1.336 . S
C335 N333 1.335 . S
C335 N334 1.345 . S
C335 H340 0.930 . S
C336 N333 1.390 . S
C336 C337 1.346 . S
C336 H341 0.930 . S
C337 N334 1.336 . S
C337 C336 1.346 . S
C337 H344 0.929 . S
C338 O328 1.282 . S
C338 O339 1.216 . S
O339 C338 1.216 . S
H340 C335 0.930 . S
H341 C336 0.930 . S
O342 Cu322 1.959 . S
O342 C329 1.251 . S
H343 C326 0.930 . S
H344 C337 0.929 . S
Cu345 N346 1.999 . S
Cu345 O351 1.974 . S
Cu345 N356 1.985 1_554 S
Cu345 O365 1.959 1_454 S
N346 Cu345 1.999 . S
N346 C348 1.263 . S
N346 C350 1.389 1_455 S
N347 C348 1.358 1_655 S
N347 C349 1.400 . S
C348 N346 1.263 . S
C348 N347 1.358 1_455 S
C348 H354 0.930 . S
C349 N347 1.400 . S
C349 C350 1.351 . S
C349 H366 0.930 . S
C350 N346 1.389 1_655 S
C350 C349 1.351 . S
C350 H355 0.930 1_554 S
O351 Cu345 1.974 . S
O351 C361 1.282 . S
C352 O353 1.261 . S
C352 O365 1.251 1_554 S
O353 C352 1.261 . S
H354 C348 0.930 . S
H355 C350 0.930 1_556 S
N356 Cu345 1.985 1_556 S
N356 C358 1.335 . S
N356 C359 1.390 1_556 S
N357 C358 1.345 . S
N357 C360 1.336 . S
C358 N356 1.335 . S
C358 N357 1.345 . S
C358 H363 0.930 . S
C359 N356 1.390 1_554 S
C359 C360 1.346 1_554 S
C359 H364 0.930 . S
C360 N357 1.336 . S
C360 C359 1.346 1_556 S
C360 H367 0.929 . S
C361 O351 1.282 . S
C361 O362 1.216 . S
O362 C361 1.216 . S
H363 C358 0.930 . S
H364 C359 0.930 . S
O365 Cu345 1.959 1_656 S
O365 C352 1.251 1_556 S
H366 C349 0.930 . S
H367 C360 0.929 . S
Cu368 N369 1.999 . S
Cu368 O374 1.974 . S
Cu368 N379 1.985 . S
Cu368 O388 1.959 . S
N369 Cu368 1.999 . S
N369 C371 1.263 . S
N369 C373 1.389 . S
N370 C371 1.358 . S
N370 C372 1.400 . S
C371 N369 1.263 . S
C371 N370 1.358 . S
C371 H377 0.930 . S
C372 N370 1.400 . S
C372 C373 1.351 . S
C372 H389 0.930 . S
C373 N369 1.389 . S
C373 C372 1.351 . S
C373 H378 0.930 . S
O374 Cu368 1.974 . S
O374 C384 1.282 . S
C375 O376 1.261 . S
C375 O388 1.251 . S
O376 C375 1.261 . S
H377 C371 0.930 . S
H378 C373 0.930 . S
N379 Cu368 1.985 . S
N379 C381 1.335 . S
N379 C382 1.390 . S
N380 C381 1.345 . S
N380 C383 1.336 . S
C381 N379 1.335 . S
C381 N380 1.345 . S
C381 H386 0.930 . S
C382 N379 1.390 . S
C382 C383 1.346 . S
C382 H387 0.930 . S
C383 N380 1.336 . S
C383 C382 1.346 . S
C383 H390 0.929 . S
C384 O374 1.282 . S
C384 O385 1.216 . S
O385 C384 1.216 . S
H386 C381 0.930 . S
H387 C382 0.930 . S
O388 Cu368 1.959 . S
O388 C375 1.251 . S
H389 C372 0.930 . S
H390 C383 0.929 . S
Cu391 N392 1.999 . S
Cu391 O397 1.974 . S
Cu391 N402 1.985 . S
Cu391 O411 1.959 . S
N392 Cu391 1.999 . S
N392 C394 1.263 . S
N392 C396 1.389 . S
N393 C394 1.358 . S
N393 C395 1.400 . S
C394 N392 1.263 . S
C394 N393 1.358 . S
C394 H400 0.930 . S
C395 N393 1.400 . S
C395 C396 1.351 . S
C395 H412 0.930 . S
C396 N392 1.389 . S
C396 C395 1.351 . S
C396 H401 0.930 . S
O397 Cu391 1.974 . S
O397 C407 1.282 . S
C398 O399 1.261 . S
C398 O411 1.251 . S
O399 C398 1.261 . S
H400 C394 0.930 . S
H401 C396 0.930 . S
N402 Cu391 1.985 . S
N402 C404 1.335 . S
N402 C405 1.390 . S
N403 C404 1.345 . S
N403 C406 1.336 . S
C404 N402 1.335 . S
C404 N403 1.345 . S
C404 H409 0.930 . S
C405 N402 1.390 . S
C405 C406 1.346 . S
C405 H410 0.930 . S
C406 N403 1.336 . S
C406 C405 1.346 . S
C406 H413 0.929 . S
C407 O397 1.282 . S
C407 O408 1.216 . S
O408 C407 1.216 . S
H409 C404 0.930 . S
H410 C405 0.930 . S
O411 Cu391 1.959 . S
O411 C398 1.251 . S
H412 C395 0.930 . S
H413 C406 0.929 . S
Cu414 N415 1.999 1_554 S
Cu414 O420 1.974 . S
Cu414 N425 1.985 . S
Cu414 O434 1.959 1_554 S
N415 Cu414 1.999 1_556 S
N415 C417 1.263 . S
N415 C419 1.389 . S
N416 C417 1.358 . S
N416 C418 1.400 . S
C417 N415 1.263 . S
C417 N416 1.358 . S
C417 H423 0.930 . S
C418 N416 1.400 . S
C418 C419 1.351 . S
C418 H435 0.930 . S
C419 N415 1.389 . S
C419 C418 1.351 . S
C419 H424 0.930 . S
O420 Cu414 1.974 . S
O420 C430 1.282 . S
C421 O422 1.261 . S
C421 O434 1.251 . S
O422 C421 1.261 . S
H423 C417 0.930 . S
H424 C419 0.930 . S
N425 Cu414 1.985 . S
N425 C427 1.335 . S
N425 C428 1.390 . S
N426 C427 1.345 . S
N426 C429 1.336 . S
C427 N425 1.335 . S
C427 N426 1.345 . S
C427 H432 0.930 . S
C428 N425 1.390 . S
C428 C429 1.346 . S
C428 H433 0.930 . S
C429 N426 1.336 . S
C429 C428 1.346 . S
C429 H436 0.929 . S
C430 O420 1.282 . S
C430 O431 1.216 . S
O431 C430 1.216 . S
H432 C427 0.930 . S
H433 C428 0.930 . S
O434 Cu414 1.959 1_556 S
O434 C421 1.251 . S
H435 C418 0.930 . S
H436 C429 0.929 . S
Cu437 N438 1.999 . S
Cu437 O443 1.974 . S
Cu437 N448 1.985 . S
Cu437 O457 1.959 . S
N438 Cu437 1.999 . S
N438 C440 1.263 . S
N438 C442 1.389 . S
N439 C440 1.358 . S
N439 C441 1.400 . S
C440 N438 1.263 . S
C440 N439 1.358 . S
C440 H446 0.930 . S
C441 N439 1.400 . S
C441 C442 1.351 . S
C441 H458 0.930 . S
C442 N438 1.389 . S
C442 C441 1.351 . S
C442 H447 0.930 . S
O443 Cu437 1.974 . S
O443 C453 1.282 . S
C444 O445 1.261 . S
C444 O457 1.251 . S
O445 C444 1.261 . S
H446 C440 0.930 . S
H447 C442 0.930 . S
N448 Cu437 1.985 . S
N448 C450 1.335 . S
N448 C451 1.390 . S
N449 C450 1.345 . S
N449 C452 1.336 . S
C450 N448 1.335 . S
C450 N449 1.345 . S
C450 H455 0.930 . S
C451 N448 1.390 . S
C451 C452 1.346 . S
C451 H456 0.930 . S
C452 N449 1.336 . S
C452 C451 1.346 . S
C452 H459 0.929 . S
C453 O443 1.282 . S
C453 O454 1.216 . S
O454 C453 1.216 . S
H455 C450 0.930 . S
H456 C451 0.930 . S
O457 Cu437 1.959 . S
O457 C444 1.251 . S
H458 C441 0.930 . S
H459 C452 0.929 . S
Cu460 N461 1.999 1_554 S
Cu460 O466 1.974 1_545 S
Cu460 N471 1.985 . S
Cu460 O480 1.959 1_554 S
N461 Cu460 1.999 1_556 S
N461 C463 1.263 1_545 S
N461 C465 1.389 . S
N462 C463 1.358 1_545 S
N462 C464 1.400 . S
C463 N461 1.263 1_565 S
C463 N462 1.358 1_565 S
C463 H469 0.930 . S
C464 N462 1.400 . S
C464 C465 1.351 . S
C464 H481 0.930 . S
C465 N461 1.389 . S
C465 C464 1.351 . S
C465 H470 0.930 . S
O466 Cu460 1.974 1_565 S
O466 C476 1.282 . S
C467 O468 1.261 1_545 S
C467 O480 1.251 . S
O468 C467 1.261 1_565 S
H469 C463 0.930 . S
H470 C465 0.930 . S
N471 Cu460 1.985 . S
N471 C473 1.335 . S
N471 C474 1.390 1_545 S
N472 C473 1.345 . S
N472 C475 1.336 1_545 S
C473 N471 1.335 . S
C473 N472 1.345 . S
C473 H478 0.930 . S
C474 N471 1.390 1_565 S
C474 C475 1.346 . S
C474 H479 0.930 . S
C475 N472 1.336 1_565 S
C475 C474 1.346 . S
C475 H482 0.929 . S
C476 O466 1.282 . S
C476 O477 1.216 . S
O477 C476 1.216 . S
H478 C473 0.930 . S
H479 C474 0.930 . S
O480 Cu460 1.959 1_556 S
O480 C467 1.251 . S
H481 C464 0.930 . S
H482 C475 0.929 . S
Cu483 N484 1.999 . S
Cu483 O489 1.974 . S
Cu483 N494 1.985 . S
Cu483 O503 1.959 . S
N484 Cu483 1.999 . S
N484 C486 1.263 . S
N484 C488 1.389 . S
N485 C486 1.358 . S
N485 C487 1.400 . S
C486 N484 1.263 . S
C486 N485 1.358 . S
C486 H492 0.930 . S
C487 N485 1.400 . S
C487 C488 1.351 . S
C487 H504 0.930 . S
C488 N484 1.389 . S
C488 C487 1.351 . S
C488 H493 0.930 . S
O489 Cu483 1.974 . S
O489 C499 1.282 . S
C490 O491 1.261 . S
C490 O503 1.251 . S
O491 C490 1.261 . S
H492 C486 0.930 . S
H493 C488 0.930 . S
N494 Cu483 1.985 . S
N494 C496 1.335 . S
N494 C497 1.390 . S
N495 C496 1.345 . S
N495 C498 1.336 . S
C496 N494 1.335 . S
C496 N495 1.345 . S
C496 H501 0.930 . S
C497 N494 1.390 . S
C497 C498 1.346 . S
C497 H502 0.930 . S
C498 N495 1.336 . S
C498 C497 1.346 . S
C498 H505 0.929 . S
C499 O489 1.282 . S
C499 O500 1.216 . S
O500 C499 1.216 . S
H501 C496 0.930 . S
H502 C497 0.930 . S
O503 Cu483 1.959 . S
O503 C490 1.251 . S
H504 C487 0.930 . S
H505 C498 0.929 . S
Cu506 N507 1.999 . S
Cu506 O512 1.974 . S
Cu506 N517 1.985 . S
Cu506 O526 1.959 . S
N507 Cu506 1.999 . S
N507 C509 1.263 . S
N507 C511 1.389 . S
N508 C509 1.358 . S
N508 C510 1.400 . S
C509 N507 1.263 . S
C509 N508 1.358 . S
C509 H515 0.930 . S
C510 N508 1.400 . S
C510 C511 1.351 . S
C510 H527 0.930 . S
C511 N507 1.389 . S
C511 C510 1.351 . S
C511 H516 0.930 . S
O512 Cu506 1.974 . S
O512 C522 1.282 . S
C513 O514 1.261 . S
C513 O526 1.251 . S
O514 C513 1.261 . S
H515 C509 0.930 . S
H516 C511 0.930 . S
N517 Cu506 1.985 . S
N517 C519 1.335 . S
N517 C520 1.390 . S
N518 C519 1.345 . S
N518 C521 1.336 . S
C519 N517 1.335 . S
C519 N518 1.345 . S
C519 H524 0.930 . S
C520 N517 1.390 . S
C520 C521 1.346 . S
C520 H525 0.930 . S
C521 N518 1.336 . S
C521 C520 1.346 . S
C521 H528 0.929 . S
C522 O512 1.282 . S
C522 O523 1.216 . S
O523 C522 1.216 . S
H524 C519 0.930 . S
H525 C520 0.930 . S
O526 Cu506 1.959 . S
O526 C513 1.251 . S
H527 C510 0.930 . S
H528 C521 0.929 . S
Cu529 N530 1.999 1_556 S
Cu529 O535 1.974 . S
Cu529 N540 1.985 . S
Cu529 O549 1.959 1_556 S
N530 Cu529 1.999 1_554 S
N530 C532 1.263 . S
N530 C534 1.389 . S
N531 C532 1.358 . S
N531 C533 1.400 . S
C532 N530 1.263 . S
C532 N531 1.358 . S
C532 H538 0.930 . S
C533 N531 1.400 . S
C533 C534 1.351 . S
C533 H550 0.930 . S
C534 N530 1.389 . S
C534 C533 1.351 . S
C534 H539 0.930 . S
O535 Cu529 1.974 . S
O535 C545 1.282 . S
C536 O537 1.261 . S
C536 O549 1.251 . S
O537 C536 1.261 . S
H538 C532 0.930 . S
H539 C534 0.930 . S
N540 Cu529 1.985 . S
N540 C542 1.335 . S
N540 C543 1.390 . S
N541 C542 1.345 . S
N541 C544 1.336 . S
C542 N540 1.335 . S
C542 N541 1.345 . S
C542 H547 0.930 . S
C543 N540 1.390 . S
C543 C544 1.346 . S
C543 H548 0.930 . S
C544 N541 1.336 . S
C544 C543 1.346 . S
C544 H551 0.929 . S
C545 O535 1.282 . S
C545 O546 1.216 . S
O546 C545 1.216 . S
H547 C542 0.930 . S
H548 C543 0.930 . S
O549 Cu529 1.959 1_554 S
O549 C536 1.251 . S
H550 C533 0.930 . S
H551 C544 0.929 . S
Cu552 N553 1.999 . S
Cu552 O558 1.974 . S
Cu552 N563 1.985 . S
Cu552 O572 1.959 . S
N553 Cu552 1.999 . S
N553 C555 1.263 . S
N553 C557 1.389 . S
N554 C555 1.358 . S
N554 C556 1.400 . S
C555 N553 1.263 . S
C555 N554 1.358 . S
C555 H561 0.930 . S
C556 N554 1.400 . S
C556 C557 1.351 . S
C556 H573 0.930 . S
C557 N553 1.389 . S
C557 C556 1.351 . S
C557 H562 0.930 . S
O558 Cu552 1.974 . S
O558 C568 1.282 . S
C559 O560 1.261 . S
C559 O572 1.251 . S
O560 C559 1.261 . S
H561 C555 0.930 . S
H562 C557 0.930 . S
N563 Cu552 1.985 . S
N563 C565 1.335 . S
N563 C566 1.390 . S
N564 C565 1.345 . S
N564 C567 1.336 . S
C565 N563 1.335 . S
C565 N564 1.345 . S
C565 H570 0.930 . S
C566 N563 1.390 . S
C566 C567 1.346 . S
C566 H571 0.930 . S
C567 N564 1.336 . S
C567 C566 1.346 . S
C567 H574 0.929 . S
C568 O558 1.282 . S
C568 O569 1.216 . S
O569 C568 1.216 . S
H570 C565 0.930 . S
H571 C566 0.930 . S
O572 Cu552 1.959 . S
O572 C559 1.251 . S
H573 C556 0.930 . S
H574 C567 0.929 . S
Cu575 N576 1.999 . S
Cu575 O581 1.974 . S
Cu575 N586 1.985 . S
Cu575 O595 1.959 . S
N576 Cu575 1.999 . S
N576 C578 1.263 . S
N576 C580 1.389 . S
N577 C578 1.358 . S
N577 C579 1.400 . S
C578 N576 1.263 . S
C578 N577 1.358 . S
C578 H584 0.930 . S
C579 N577 1.400 . S
C579 C580 1.351 . S
C579 H596 0.930 . S
C580 N576 1.389 . S
C580 C579 1.351 . S
C580 H585 0.930 . S
O581 Cu575 1.974 . S
O581 C591 1.282 . S
C582 O583 1.261 . S
C582 O595 1.251 . S
O583 C582 1.261 . S
H584 C578 0.930 . S
H585 C580 0.930 . S
N586 Cu575 1.985 . S
N586 C588 1.335 . S
N586 C589 1.390 . S
N587 C588 1.345 . S
N587 C590 1.336 . S
C588 N586 1.335 . S
C588 N587 1.345 . S
C588 H593 0.930 . S
C589 N586 1.390 . S
C589 C590 1.346 . S
C589 H594 0.930 . S
C590 N587 1.336 . S
C590 C589 1.346 . S
C590 H597 0.929 . S
C591 O581 1.282 . S
C591 O592 1.216 . S
O592 C591 1.216 . S
H593 C588 0.930 . S
H594 C589 0.930 . S
O595 Cu575 1.959 . S
O595 C582 1.251 . S
H596 C579 0.930 . S
H597 C590 0.929 . S
Cu598 N599 1.999 . S
Cu598 O604 1.974 . S
Cu598 N609 1.985 . S
Cu598 O618 1.959 . S
N599 Cu598 1.999 . S
N599 C601 1.263 . S
N599 C603 1.389 . S
N600 C601 1.358 . S
N600 C602 1.400 . S
C601 N599 1.263 . S
C601 N600 1.358 . S
C601 H607 0.930 . S
C602 N600 1.400 . S
C602 C603 1.351 . S
C602 H619 0.930 . S
C603 N599 1.389 . S
C603 C602 1.351 . S
C603 H608 0.930 . S
O604 Cu598 1.974 . S
O604 C614 1.282 . S
C605 O606 1.261 . S
C605 O618 1.251 . S
O606 C605 1.261 . S
H607 C601 0.930 . S
H608 C603 0.930 . S
N609 Cu598 1.985 . S
N609 C611 1.335 . S
N609 C612 1.390 . S
N610 C611 1.345 . S
N610 C613 1.336 . S
C611 N609 1.335 . S
C611 N610 1.345 . S
C611 H616 0.930 . S
C612 N609 1.390 . S
C612 C613 1.346 . S
C612 H617 0.930 . S
C613 N610 1.336 . S
C613 C612 1.346 . S
C613 H620 0.929 . S
C614 O604 1.282 . S
C614 O615 1.216 . S
O615 C614 1.216 . S
H616 C611 0.930 . S
H617 C612 0.930 . S
O618 Cu598 1.959 . S
O618 C605 1.251 . S
H619 C602 0.930 . S
H620 C613 0.929 . S
Cu621 N622 1.999 . S
Cu621 O627 1.974 . S
Cu621 N632 1.985 . S
Cu621 O641 1.959 . S
N622 Cu621 1.999 . S
N622 C624 1.263 . S
N622 C626 1.389 . S
N623 C624 1.358 . S
N623 C625 1.400 . S
C624 N622 1.263 . S
C624 N623 1.358 . S
C624 H630 0.930 . S
C625 N623 1.400 . S
C625 C626 1.351 . S
C625 H642 0.930 . S
C626 N622 1.389 . S
C626 C625 1.351 . S
C626 H631 0.930 . S
O627 Cu621 1.974 . S
O627 C637 1.282 . S
C628 O629 1.261 . S
C628 O641 1.251 . S
O629 C628 1.261 . S
H630 C624 0.930 . S
H631 C626 0.930 . S
N632 Cu621 1.985 . S
N632 C634 1.335 . S
N632 C635 1.390 . S
N633 C634 1.345 . S
N633 C636 1.336 . S
C634 N632 1.335 . S
C634 N633 1.345 . S
C634 H639 0.930 . S
C635 N632 1.390 . S
C635 C636 1.346 . S
C635 H640 0.930 . S
C636 N633 1.336 . S
C636 C635 1.346 . S
C636 H643 0.929 . S
C637 O627 1.282 . S
C637 O638 1.216 1_655 S
O638 C637 1.216 1_455 S
H639 C634 0.930 . S
H640 C635 0.930 . S
O641 Cu621 1.959 . S
O641 C628 1.251 . S
H642 C625 0.930 . S
H643 C636 0.929 . S
Cu644 N645 1.999 . S
Cu644 O650 1.974 . S
Cu644 N655 1.985 . S
Cu644 O664 1.959 . S
N645 Cu644 1.999 . S
N645 C647 1.263 . S
N645 C649 1.389 . S
N646 C647 1.358 . S
N646 C648 1.400 . S
C647 N645 1.263 . S
C647 N646 1.358 . S
C647 H653 0.930 . S
C648 N646 1.400 . S
C648 C649 1.351 . S
C648 H665 0.930 . S
C649 N645 1.389 . S
C649 C648 1.351 . S
C649 H654 0.930 . S
O650 Cu644 1.974 . S
O650 C660 1.282 . S
C651 O652 1.261 . S
C651 O664 1.251 . S
O652 C651 1.261 . S
H653 C647 0.930 . S
H654 C649 0.930 . S
N655 Cu644 1.985 . S
N655 C657 1.335 . S
N655 C658 1.390 . S
N656 C657 1.345 . S
N656 C659 1.336 . S
C657 N655 1.335 . S
C657 N656 1.345 . S
C657 H662 0.930 . S
C658 N655 1.390 . S
C658 C659 1.346 . S
C658 H663 0.930 . S
C659 N656 1.336 . S
C659 C658 1.346 . S
C659 H666 0.929 . S
C660 O650 1.282 . S
C660 O661 1.216 . S
O661 C660 1.216 . S
H662 C657 0.930 . S
H663 C658 0.930 . S
O664 Cu644 1.959 . S
O664 C651 1.251 . S
H665 C648 0.930 . S
H666 C659 0.929 . S
Cu667 N668 1.999 . S
Cu667 O673 1.974 . S
Cu667 N678 1.985 . S
Cu667 O687 1.959 . S
N668 Cu667 1.999 . S
N668 C670 1.263 . S
N668 C672 1.389 . S
N669 C670 1.358 . S
N669 C671 1.400 . S
C670 N668 1.263 . S
C670 N669 1.358 . S
C670 H676 0.930 . S
C671 N669 1.400 . S
C671 C672 1.351 . S
C671 H688 0.930 . S
C672 N668 1.389 . S
C672 C671 1.351 . S
C672 H677 0.930 . S
O673 Cu667 1.974 . S
O673 C683 1.282 . S
C674 O675 1.261 . S
C674 O687 1.251 . S
O675 C674 1.261 . S
H676 C670 0.930 . S
H677 C672 0.930 . S
N678 Cu667 1.985 . S
N678 C680 1.335 . S
N678 C681 1.390 . S
N679 C680 1.345 . S
N679 C682 1.336 . S
C680 N678 1.335 . S
C680 N679 1.345 . S
C680 H685 0.930 . S
C681 N678 1.390 . S
C681 C682 1.346 . S
C681 H686 0.930 . S
C682 N679 1.336 . S
C682 C681 1.346 . S
C682 H689 0.929 . S
C683 O673 1.282 . S
C683 O684 1.216 1_655 S
O684 C683 1.216 1_455 S
H685 C680 0.930 . S
H686 C681 0.930 . S
O687 Cu667 1.959 . S
O687 C674 1.251 . S
H688 C671 0.930 . S
H689 C682 0.929 . S
Cu690 N691 1.999 . S
Cu690 O696 1.974 . S
Cu690 N701 1.985 . S
Cu690 O710 1.959 . S
N691 Cu690 1.999 . S
N691 C693 1.263 . S
N691 C695 1.389 . S
N692 C693 1.358 . S
N692 C694 1.400 . S
C693 N691 1.263 . S
C693 N692 1.358 . S
C693 H699 0.930 . S
C694 N692 1.400 . S
C694 C695 1.351 . S
C694 H711 0.930 . S
C695 N691 1.389 . S
C695 C694 1.351 . S
C695 H700 0.930 . S
O696 Cu690 1.974 . S
O696 C706 1.282 . S
C697 O698 1.261 . S
C697 O710 1.251 . S
O698 C697 1.261 . S
H699 C693 0.930 . S
H700 C695 0.930 . S
N701 Cu690 1.985 . S
N701 C703 1.335 . S
N701 C704 1.390 . S
N702 C703 1.345 . S
N702 C705 1.336 . S
C703 N701 1.335 . S
C703 N702 1.345 . S
C703 H708 0.930 . S
C704 N701 1.390 . S
C704 C705 1.346 . S
C704 H709 0.930 . S
C705 N702 1.336 . S
C705 C704 1.346 . S
C705 H712 0.929 . S
C706 O696 1.282 . S
C706 O707 1.216 . S
O707 C706 1.216 . S
H708 C703 0.930 . S
H709 C704 0.930 . S
O710 Cu690 1.959 . S
O710 C697 1.251 . S
H711 C694 0.930 . S
H712 C705 0.929 . S
Cu713 N714 1.999 . S
Cu713 O719 1.974 . S
Cu713 N724 1.985 . S
Cu713 O733 1.959 . S
N714 Cu713 1.999 . S
N714 C716 1.263 . S
N714 C718 1.389 . S
N715 C716 1.358 . S
N715 C717 1.400 . S
C716 N714 1.263 . S
C716 N715 1.358 . S
C716 H722 0.930 . S
C717 N715 1.400 . S
C717 C718 1.351 . S
C717 H734 0.930 . S
C718 N714 1.389 . S
C718 C717 1.351 . S
C718 H723 0.930 . S
O719 Cu713 1.974 . S
O719 C729 1.282 . S
C720 O721 1.261 . S
C720 O733 1.251 . S
O721 C720 1.261 . S
H722 C716 0.930 . S
H723 C718 0.930 . S
N724 Cu713 1.985 . S
N724 C726 1.335 . S
N724 C727 1.390 . S
N725 C726 1.345 . S
N725 C728 1.336 . S
C726 N724 1.335 . S
C726 N725 1.345 . S
C726 H731 0.930 . S
C727 N724 1.390 . S
C727 C728 1.346 . S
C727 H732 0.930 . S
C728 N725 1.336 . S
C728 C727 1.346 . S
C728 H735 0.929 . S
C729 O719 1.282 . S
C729 O730 1.216 . S
O730 C729 1.216 . S
H731 C726 0.930 . S
H732 C727 0.930 . S
O733 Cu713 1.959 . S
O733 C720 1.251 . S
H734 C717 0.930 . S
H735 C728 0.929 . S
Cu736 N737 1.999 . S
Cu736 O742 1.974 . S
Cu736 N747 1.985 . S
Cu736 O756 1.959 . S
N737 Cu736 1.999 . S
N737 C739 1.263 . S
N737 C741 1.389 . S
N738 C739 1.358 . S
N738 C740 1.400 . S
C739 N737 1.263 . S
C739 N738 1.358 . S
C739 H745 0.930 . S
C740 N738 1.400 . S
C740 C741 1.351 . S
C740 H757 0.930 . S
C741 N737 1.389 . S
C741 C740 1.351 . S
C741 H746 0.930 . S
O742 Cu736 1.974 . S
O742 C752 1.282 . S
C743 O744 1.261 . S
C743 O756 1.251 . S
O744 C743 1.261 . S
H745 C739 0.930 . S
H746 C741 0.930 . S
N747 Cu736 1.985 . S
N747 C749 1.335 . S
N747 C750 1.390 . S
N748 C749 1.345 . S
N748 C751 1.336 . S
C749 N747 1.335 . S
C749 N748 1.345 . S
C749 H754 0.930 . S
C750 N747 1.390 . S
C750 C751 1.346 . S
C750 H755 0.930 . S
C751 N748 1.336 . S
C751 C750 1.346 . S
C751 H758 0.929 . S
C752 O742 1.282 . S
C752 O753 1.216 . S
O753 C752 1.216 . S
H754 C749 0.930 . S
H755 C750 0.930 . S
O756 Cu736 1.959 . S
O756 C743 1.251 . S
H757 C740 0.930 . S
H758 C751 0.929 . S
Cu759 N760 1.999 . S
Cu759 O765 1.974 . S
Cu759 N770 1.985 1_556 S
Cu759 O779 1.959 1_556 S
N760 Cu759 1.999 . S
N760 C762 1.263 . S
N760 C764 1.389 . S
N761 C762 1.358 . S
N761 C763 1.400 . S
C762 N760 1.263 . S
C762 N761 1.358 . S
C762 H768 0.930 . S
C763 N761 1.400 . S
C763 C764 1.351 . S
C763 H780 0.930 . S
C764 N760 1.389 . S
C764 C763 1.351 . S
C764 H769 0.930 1_556 S
O765 Cu759 1.974 . S
O765 C775 1.282 . S
C766 O767 1.261 . S
C766 O779 1.251 1_556 S
O767 C766 1.261 . S
H768 C762 0.930 . S
H769 C764 0.930 1_554 S
N770 Cu759 1.985 1_554 S
N770 C772 1.335 . S
N770 C773 1.390 1_554 S
N771 C772 1.345 . S
N771 C774 1.336 . S
C772 N770 1.335 . S
C772 N771 1.345 . S
C772 H777 0.930 . S
C773 N770 1.390 1_556 S
C773 C774 1.346 1_556 S
C773 H778 0.930 . S
C774 N771 1.336 . S
C774 C773 1.346 1_554 S
C774 H781 0.929 . S
C775 O765 1.282 . S
C775 O776 1.216 . S
O776 C775 1.216 . S
H777 C772 0.930 . S
H778 C773 0.930 . S
O779 Cu759 1.959 1_554 S
O779 C766 1.251 1_554 S
H780 C763 0.930 . S
H781 C774 0.929 . S
Cu782 N783 1.999 . S
Cu782 O788 1.974 . S
Cu782 N793 1.985 . S
Cu782 O802 1.959 . S
N783 Cu782 1.999 . S
N783 C785 1.263 . S
N783 C787 1.389 . S
N784 C785 1.358 . S
N784 C786 1.400 . S
C785 N783 1.263 . S
C785 N784 1.358 . S
C785 H791 0.930 . S
C786 N784 1.400 . S
C786 C787 1.351 . S
C786 H803 0.930 . S
C787 N783 1.389 . S
C787 C786 1.351 . S
C787 H792 0.930 . S
O788 Cu782 1.974 . S
O788 C798 1.282 . S
C789 O790 1.261 . S
C789 O802 1.251 . S
O790 C789 1.261 . S
H791 C785 0.930 . S
H792 C787 0.930 . S
N793 Cu782 1.985 . S
N793 C795 1.335 . S
N793 C796 1.390 . S
N794 C795 1.345 . S
N794 C797 1.336 . S
C795 N793 1.335 . S
C795 N794 1.345 . S
C795 H800 0.930 . S
C796 N793 1.390 . S
C796 C797 1.346 . S
C796 H801 0.930 . S
C797 N794 1.336 . S
C797 C796 1.346 . S
C797 H804 0.929 . S
C798 O788 1.282 . S
C798 O799 1.216 . S
O799 C798 1.216 . S
H800 C795 0.930 . S
H801 C796 0.930 . S
O802 Cu782 1.959 . S
O802 C789 1.251 . S
H803 C786 0.930 . S
H804 C797 0.929 . S
Cu805 N806 1.999 . S
Cu805 O811 1.974 . S
Cu805 N816 1.985 . S
Cu805 O825 1.959 1_655 S
N806 Cu805 1.999 . S
N806 C808 1.263 . S
N806 C810 1.389 1_655 S
N807 C808 1.358 1_455 S
N807 C809 1.400 . S
C808 N806 1.263 . S
C808 N807 1.358 1_655 S
C808 H814 0.930 . S
C809 N807 1.400 . S
C809 C810 1.351 . S
C809 H826 0.930 . S
C810 N806 1.389 1_455 S
C810 C809 1.351 . S
C810 H815 0.930 . S
O811 Cu805 1.974 . S
O811 C821 1.282 . S
C812 O813 1.261 . S
C812 O825 1.251 . S
O813 C812 1.261 . S
H814 C808 0.930 . S
H815 C810 0.930 . S
N816 Cu805 1.985 . S
N816 C818 1.335 . S
N816 C819 1.390 . S
N817 C818 1.345 . S
N817 C820 1.336 . S
C818 N816 1.335 . S
C818 N817 1.345 . S
C818 H823 0.930 . S
C819 N816 1.390 . S
C819 C820 1.346 . S
C819 H824 0.930 . S
C820 N817 1.336 . S
C820 C819 1.346 . S
C820 H827 0.929 . S
C821 O811 1.282 . S
C821 O822 1.216 . S
O822 C821 1.216 . S
H823 C818 0.930 . S
H824 C819 0.930 . S
O825 Cu805 1.959 1_455 S
O825 C812 1.251 . S
H826 C809 0.930 . S
H827 C820 0.929 . S
Cu828 N829 1.999 . S
Cu828 O834 1.974 . S
Cu828 N839 1.985 . S
Cu828 O848 1.959 . S
N829 Cu828 1.999 . S
N829 C831 1.263 . S
N829 C833 1.389 . S
N830 C831 1.358 . S
N830 C832 1.400 . S
C831 N829 1.263 . S
C831 N830 1.358 . S
C831 H837 0.930 . S
C832 N830 1.400 . S
C832 C833 1.351 . S
C832 H849 0.930 . S
C833 N829 1.389 . S
C833 C832 1.351 . S
C833 H838 0.930 . S
O834 Cu828 1.974 . S
O834 C844 1.282 . S
C835 O836 1.261 . S
C835 O848 1.251 . S
O836 C835 1.261 . S
H837 C831 0.930 . S
H838 C833 0.930 . S
N839 Cu828 1.985 . S
N839 C841 1.335 . S
N839 C842 1.390 . S
N840 C841 1.345 . S
N840 C843 1.336 . S
C841 N839 1.335 . S
C841 N840 1.345 . S
C841 H846 0.930 . S
C842 N839 1.390 . S
C842 C843 1.346 . S
C842 H847 0.930 . S
C843 N840 1.336 . S
C843 C842 1.346 . S
C843 H850 0.929 . S
C844 O834 1.282 . S
C844 O845 1.216 . S
O845 C844 1.216 . S
H846 C841 0.930 . S
H847 C842 0.930 . S
O848 Cu828 1.959 . S
O848 C835 1.251 . S
H849 C832 0.930 . S
H850 C843 0.929 . S
Cu851 N852 1.999 . S
Cu851 O857 1.974 . S
Cu851 N862 1.985 1_554 S
Cu851 O871 1.959 1_654 S
N852 Cu851 1.999 . S
N852 C854 1.263 . S
N852 C856 1.389 1_655 S
N853 C854 1.358 1_455 S
N853 C855 1.400 . S
C854 N852 1.263 . S
C854 N853 1.358 1_655 S
C854 H860 0.930 . S
C855 N853 1.400 . S
C855 C856 1.351 . S
C855 H872 0.930 . S
C856 N852 1.389 1_455 S
C856 C855 1.351 . S
C856 H861 0.930 1_554 S
O857 Cu851 1.974 . S
O857 C867 1.282 . S
C858 O859 1.261 . S
C858 O871 1.251 1_554 S
O859 C858 1.261 . S
H860 C854 0.930 . S
H861 C856 0.930 1_556 S
N862 Cu851 1.985 1_556 S
N862 C864 1.335 . S
N862 C865 1.390 1_556 S
N863 C864 1.345 . S
N863 C866 1.336 . S
C864 N862 1.335 . S
C864 N863 1.345 . S
C864 H869 0.930 . S
C865 N862 1.390 1_554 S
C865 C866 1.346 1_554 S
C865 H870 0.930 . S
C866 N863 1.336 . S
C866 C865 1.346 1_556 S
C866 H873 0.929 . S
C867 O857 1.282 . S
C867 O868 1.216 . S
O868 C867 1.216 . S
H869 C864 0.930 . S
H870 C865 0.930 . S
O871 Cu851 1.959 1_456 S
O871 C858 1.251 1_556 S
H872 C855 0.930 . S
H873 C866 0.929 . S
Cu874 N875 1.999 . S
Cu874 O880 1.974 . S
Cu874 N885 1.985 . S
Cu874 O894 1.959 . S
N875 Cu874 1.999 . S
N875 C877 1.263 . S
N875 C879 1.389 . S
N876 C877 1.358 . S
N876 C878 1.400 . S
C877 N875 1.263 . S
C877 N876 1.358 . S
C877 H883 0.930 . S
C878 N876 1.400 . S
C878 C879 1.351 . S
C878 H895 0.930 . S
C879 N875 1.389 . S
C879 C878 1.351 . S
C879 H884 0.930 . S
O880 Cu874 1.974 . S
O880 C890 1.282 . S
C881 O882 1.261 . S
C881 O894 1.251 . S
O882 C881 1.261 . S
H883 C877 0.930 . S
H884 C879 0.930 . S
N885 Cu874 1.985 . S
N885 C887 1.335 . S
N885 C888 1.390 . S
N886 C887 1.345 . S
N886 C889 1.336 . S
C887 N885 1.335 . S
C887 N886 1.345 . S
C887 H892 0.930 . S
C888 N885 1.390 . S
C888 C889 1.346 . S
C888 H893 0.930 . S
C889 N886 1.336 . S
C889 C888 1.346 . S
C889 H896 0.929 . S
C890 O880 1.282 . S
C890 O891 1.216 . S
O891 C890 1.216 . S
H892 C887 0.930 . S
H893 C888 0.930 . S
O894 Cu874 1.959 . S
O894 C881 1.251 . S
H895 C878 0.930 . S
H896 C889 0.929 . S
Cu897 N898 1.999 . S
Cu897 O903 1.974 . S
Cu897 N908 1.985 . S
Cu897 O917 1.959 . S
N898 Cu897 1.999 . S
N898 C900 1.263 . S
N898 C902 1.389 . S
N899 C900 1.358 . S
N899 C901 1.400 . S
C900 N898 1.263 . S
C900 N899 1.358 . S
C900 H906 0.930 . S
C901 N899 1.400 . S
C901 C902 1.351 . S
C901 H918 0.930 . S
C902 N898 1.389 . S
C902 C901 1.351 . S
C902 H907 0.930 . S
O903 Cu897 1.974 . S
O903 C913 1.282 . S
C904 O905 1.261 . S
C904 O917 1.251 . S
O905 C904 1.261 . S
H906 C900 0.930 . S
H907 C902 0.930 . S
N908 Cu897 1.985 . S
N908 C910 1.335 . S
N908 C911 1.390 . S
N909 C910 1.345 . S
N909 C912 1.336 . S
C910 N908 1.335 . S
C910 N909 1.345 . S
C910 H915 0.930 . S
C911 N908 1.390 . S
C911 C912 1.346 . S
C911 H916 0.930 . S
C912 N909 1.336 . S
C912 C911 1.346 . S
C912 H919 0.929 . S
C913 O903 1.282 . S
C913 O914 1.216 . S
O914 C913 1.216 . S
H915 C910 0.930 . S
H916 C911 0.930 . S
O917 Cu897 1.959 . S
O917 C904 1.251 . S
H918 C901 0.930 . S
H919 C912 0.929 . S
Cu920 N921 1.999 . S
Cu920 O926 1.974 . S
Cu920 N931 1.985 . S
Cu920 O940 1.959 . S
N921 Cu920 1.999 . S
N921 C923 1.263 . S
N921 C925 1.389 . S
N922 C923 1.358 . S
N922 C924 1.400 . S
C923 N921 1.263 . S
C923 N922 1.358 . S
C923 H929 0.930 . S
C924 N922 1.400 . S
C924 C925 1.351 . S
C924 H941 0.930 . S
C925 N921 1.389 . S
C925 C924 1.351 . S
C925 H930 0.930 . S
O926 Cu920 1.974 . S
O926 C936 1.282 . S
C927 O928 1.261 . S
C927 O940 1.251 . S
O928 C927 1.261 . S
H929 C923 0.930 . S
H930 C925 0.930 . S
N931 Cu920 1.985 . S
N931 C933 1.335 . S
N931 C934 1.390 . S
N932 C933 1.345 . S
N932 C935 1.336 . S
C933 N931 1.335 . S
C933 N932 1.345 . S
C933 H938 0.930 . S
C934 N931 1.390 . S
C934 C935 1.346 . S
C934 H939 0.930 . S
C935 N932 1.336 . S
C935 C934 1.346 . S
C935 H942 0.929 . S
C936 O926 1.282 . S
C936 O937 1.216 . S
O937 C936 1.216 . S
H938 C933 0.930 . S
H939 C934 0.930 . S
O940 Cu920 1.959 . S
O940 C927 1.251 . S
H941 C924 0.930 . S
H942 C935 0.929 . S
Cu943 N944 1.999 . S
Cu943 O949 1.974 . S
Cu943 N954 1.985 . S
Cu943 O963 1.959 . S
N944 Cu943 1.999 . S
N944 C946 1.263 . S
N944 C948 1.389 . S
N945 C946 1.358 . S
N945 C947 1.400 . S
C946 N944 1.263 . S
C946 N945 1.358 . S
C946 H952 0.930 . S
C947 N945 1.400 . S
C947 C948 1.351 . S
C947 H964 0.930 . S
C948 N944 1.389 . S
C948 C947 1.351 . S
C948 H953 0.930 . S
O949 Cu943 1.974 . S
O949 C959 1.282 . S
C950 O951 1.261 . S
C950 O963 1.251 . S
O951 C950 1.261 . S
H952 C946 0.930 . S
H953 C948 0.930 . S
N954 Cu943 1.985 . S
N954 C956 1.335 . S
N954 C957 1.390 . S
N955 C956 1.345 . S
N955 C958 1.336 . S
C956 N954 1.335 . S
C956 N955 1.345 . S
C956 H961 0.930 . S
C957 N954 1.390 . S
C957 C958 1.346 . S
C957 H962 0.930 . S
C958 N955 1.336 . S
C958 C957 1.346 . S
C958 H965 0.929 . S
C959 O949 1.282 . S
C959 O960 1.216 . S
O960 C959 1.216 . S
H961 C956 0.930 . S
H962 C957 0.930 . S
O963 Cu943 1.959 . S
O963 C950 1.251 . S
H964 C947 0.930 . S
H965 C958 0.929 . S
Cu966 N967 1.999 . S
Cu966 O972 1.974 1_565 S
Cu966 N977 1.985 . S
Cu966 O986 1.959 . S
N967 Cu966 1.999 . S
N967 C969 1.263 1_565 S
N967 C971 1.389 . S
N968 C969 1.358 1_565 S
N968 C970 1.400 . S
C969 N967 1.263 1_545 S
C969 N968 1.358 1_545 S
C969 H975 0.930 . S
C970 N968 1.400 . S
C970 C971 1.351 . S
C970 H987 0.930 . S
C971 N967 1.389 . S
C971 C970 1.351 . S
C971 H976 0.930 . S
O972 Cu966 1.974 1_545 S
O972 C982 1.282 . S
C973 O974 1.261 1_565 S
C973 O986 1.251 . S
O974 C973 1.261 1_545 S
H975 C969 0.930 . S
H976 C971 0.930 . S
N977 Cu966 1.985 . S
N977 C979 1.335 . S
N977 C980 1.390 1_565 S
N978 C979 1.345 . S
N978 C981 1.336 1_565 S
C979 N977 1.335 . S
C979 N978 1.345 . S
C979 H984 0.930 . S
C980 N977 1.390 1_545 S
C980 C981 1.346 . S
C980 H985 0.930 . S
C981 N978 1.336 1_545 S
C981 C980 1.346 . S
C981 H988 0.929 . S
C982 O972 1.282 . S
C982 O983 1.216 . S
O983 C982 1.216 . S
H984 C979 0.930 . S
H985 C980 0.930 . S
O986 Cu966 1.959 . S
O986 C973 1.251 . S
H987 C970 0.930 . S
H988 C981 0.929 . S
Cu989 N990 1.999 . S
Cu989 O995 1.974 . S
Cu989 N1000 1.985 . S
Cu989 O1009 1.959 . S
N990 Cu989 1.999 . S
N990 C992 1.263 . S
N990 C994 1.389 . S
N991 C992 1.358 . S
N991 C993 1.400 . S
C992 N990 1.263 . S
C992 N991 1.358 . S
C992 H998 0.930 . S
C993 N991 1.400 . S
C993 C994 1.351 . S
C993 H1010 0.930 . S
C994 N990 1.389 . S
C994 C993 1.351 . S
C994 H999 0.930 . S
O995 Cu989 1.974 . S
O995 C1005 1.282 . S
C996 O997 1.261 . S
C996 O1009 1.251 . S
O997 C996 1.261 . S
H998 C992 0.930 . S
H999 C994 0.930 . S
N1000 Cu989 1.985 . S
N1000 C1002 1.335 . S
N1000 C1003 1.390 . S
N1001 C1002 1.345 . S
N1001 C1004 1.336 . S
C1002 N1000 1.335 . S
C1002 N1001 1.345 . S
C1002 H1007 0.930 . S
C1003 N1000 1.390 . S
C1003 C1004 1.346 . S
C1003 H1008 0.930 . S
C1004 N1001 1.336 . S
C1004 C1003 1.346 . S
C1004 H1011 0.929 . S
C1005 O995 1.282 . S
C1005 O1006 1.216 . S
O1006 C1005 1.216 . S
H1007 C1002 0.930 . S
H1008 C1003 0.930 . S
O1009 Cu989 1.959 . S
O1009 C996 1.251 . S
H1010 C993 0.930 . S
H1011 C1004 0.929 . S
Cu1012 N1013 1.999 . S
Cu1012 O1018 1.974 . S
Cu1012 N1023 1.985 . S
Cu1012 O1032 1.959 . S
N1013 Cu1012 1.999 . S
N1013 C1015 1.263 . S
N1013 C1017 1.389 . S
N1014 C1015 1.358 . S
N1014 C1016 1.400 . S
C1015 N1013 1.263 . S
C1015 N1014 1.358 . S
C1015 H1021 0.930 . S
C1016 N1014 1.400 . S
C1016 C1017 1.351 . S
C1016 H1033 0.930 . S
C1017 N1013 1.389 . S
C1017 C1016 1.351 . S
C1017 H1022 0.930 . S
O1018 Cu1012 1.974 . S
O1018 C1028 1.282 . S
C1019 O1020 1.261 . S
C1019 O1032 1.251 . S
O1020 C1019 1.261 . S
H1021 C1015 0.930 . S
H1022 C1017 0.930 . S
N1023 Cu1012 1.985 . S
N1023 C1025 1.335 . S
N1023 C1026 1.390 . S
N1024 C1025 1.345 . S
N1024 C1027 1.336 . S
C1025 N1023 1.335 . S
C1025 N1024 1.345 . S
C1025 H1030 0.930 . S
C1026 N1023 1.390 . S
C1026 C1027 1.346 . S
C1026 H1031 0.930 . S
C1027 N1024 1.336 . S
C1027 C1026 1.346 . S
C1027 H1034 0.929 . S
C1028 O1018 1.282 . S
C1028 O1029 1.216 . S
O1029 C1028 1.216 . S
H1030 C1025 0.930 . S
H1031 C1026 0.930 . S
O1032 Cu1012 1.959 . S
O1032 C1019 1.251 . S
H1033 C1016 0.930 . S
H1034 C1027 0.929 . S
Cu1035 N1036 1.999 . S
Cu1035 O1041 1.974 . S
Cu1035 N1046 1.985 . S
Cu1035 O1055 1.959 . S
N1036 Cu1035 1.999 . S
N1036 C1038 1.263 . S
N1036 C1040 1.389 . S
N1037 C1038 1.358 . S
N1037 C1039 1.400 . S
C1038 N1036 1.263 . S
C1038 N1037 1.358 . S
C1038 H1044 0.930 . S
C1039 N1037 1.400 . S
C1039 C1040 1.351 . S
C1039 H1056 0.930 . S
C1040 N1036 1.389 . S
C1040 C1039 1.351 . S
C1040 H1045 0.930 . S
O1041 Cu1035 1.974 . S
O1041 C1051 1.282 . S
C1042 O1043 1.261 . S
C1042 O1055 1.251 . S
O1043 C1042 1.261 . S
H1044 C1038 0.930 . S
H1045 C1040 0.930 . S
N1046 Cu1035 1.985 . S
N1046 C1048 1.335 . S
N1046 C1049 1.390 . S
N1047 C1048 1.345 . S
N1047 C1050 1.336 . S
C1048 N1046 1.335 . S
C1048 N1047 1.345 . S
C1048 H1053 0.930 . S
C1049 N1046 1.390 . S
C1049 C1050 1.346 . S
C1049 H1054 0.930 . S
C1050 N1047 1.336 . S
C1050 C1049 1.346 . S
C1050 H1057 0.929 . S
C1051 O1041 1.282 . S
C1051 O1052 1.216 . S
O1052 C1051 1.216 . S
H1053 C1048 0.930 . S
H1054 C1049 0.930 . S
O1055 Cu1035 1.959 . S
O1055 C1042 1.251 . S
H1056 C1039 0.930 . S
H1057 C1050 0.929 . S
Cu1058 N1059 1.999 1_556 S
Cu1058 O1064 1.974 1_545 S
Cu1058 N1069 1.985 . S
Cu1058 O1078 1.959 1_556 S
N1059 Cu1058 1.999 1_554 S
N1059 C1061 1.263 1_545 S
N1059 C1063 1.389 . S
N1060 C1061 1.358 1_545 S
N1060 C1062 1.400 . S
C1061 N1059 1.263 1_565 S
C1061 N1060 1.358 1_565 S
C1061 H1067 0.930 . S
C1062 N1060 1.400 . S
C1062 C1063 1.351 . S
C1062 H1079 0.930 . S
C1063 N1059 1.389 . S
C1063 C1062 1.351 . S
C1063 H1068 0.930 . S
O1064 Cu1058 1.974 1_565 S
O1064 C1074 1.282 . S
C1065 O1066 1.261 1_545 S
C1065 O1078 1.251 . S
O1066 C1065 1.261 1_565 S
H1067 C1061 0.930 . S
H1068 C1063 0.930 . S
N1069 Cu1058 1.985 . S
N1069 C1071 1.335 . S
N1069 C1072 1.390 1_545 S
N1070 C1071 1.345 . S
N1070 C1073 1.336 1_545 S
C1071 N1069 1.335 . S
C1071 N1070 1.345 . S
C1071 H1076 0.930 . S
C1072 N1069 1.390 1_565 S
C1072 C1073 1.346 . S
C1072 H1077 0.930 . S
C1073 N1070 1.336 1_565 S
C1073 C1072 1.346 . S
C1073 H1080 0.929 . S
C1074 O1064 1.282 . S
C1074 O1075 1.216 . S
O1075 C1074 1.216 . S
H1076 C1071 0.930 . S
H1077 C1072 0.930 . S
O1078 Cu1058 1.959 1_554 S
O1078 C1065 1.251 . S
H1079 C1062 0.930 . S
H1080 C1073 0.929 . S
Cu1081 N1082 1.999 . S
Cu1081 O1087 1.974 1_565 S
Cu1081 N1092 1.985 . S
Cu1081 O1101 1.959 . S
N1082 Cu1081 1.999 . S
N1082 C1084 1.263 1_565 S
N1082 C1086 1.389 . S
N1083 C1084 1.358 1_565 S
N1083 C1085 1.400 . S
C1084 N1082 1.263 1_545 S
C1084 N1083 1.358 1_545 S
C1084 H1090 0.930 . S
C1085 N1083 1.400 . S
C1085 C1086 1.351 . S
C1085 H1102 0.930 . S
C1086 N1082 1.389 . S
C1086 C1085 1.351 . S
C1086 H1091 0.930 . S
O1087 Cu1081 1.974 1_545 S
O1087 C1097 1.282 . S
C1088 O1089 1.261 1_565 S
C1088 O1101 1.251 . S
O1089 C1088 1.261 1_545 S
H1090 C1084 0.930 . S
H1091 C1086 0.930 . S
N1092 Cu1081 1.985 . S
N1092 C1094 1.335 . S
N1092 C1095 1.390 1_565 S
N1093 C1094 1.345 . S
N1093 C1096 1.336 1_565 S
C1094 N1092 1.335 . S
C1094 N1093 1.345 . S
C1094 H1099 0.930 . S
C1095 N1092 1.390 1_545 S
C1095 C1096 1.346 . S
C1095 H1100 0.930 . S
C1096 N1093 1.336 1_545 S
C1096 C1095 1.346 . S
C1096 H1103 0.929 . S
C1097 O1087 1.282 . S
C1097 O1098 1.216 . S
O1098 C1097 1.216 . S
H1099 C1094 0.930 . S
H1100 C1095 0.930 . S
O1101 Cu1081 1.959 . S
O1101 C1088 1.251 . S
H1102 C1085 0.930 . S
H1103 C1096 0.929 . S
N140 N2 1.925 . S
C30 C168 2.050 1_565 S
N48 N94 1.925 1_556 S
C122 C76 2.050 1_565 S
C789 C191 2.065 . S
N807 N209 1.927 1_455 S
C237 C743 2.065 1_455 S
N255 N761 1.927 . S
C881 C283 2.065 . S
N899 N301 1.927 . S
C835 C329 2.065 1_655 S
N853 N347 1.927 1_455 S
C375 C950 2.050 . S
C398 C927 2.051 1_545 S
C421 C536 2.065 1_556 S
C1042 C444 2.050 1_545 S
C1065 C467 2.065 1_554 S
C996 C490 2.050 . S
C1019 C513 2.064 . S
N692 N554 1.926 1_554 S
C720 C582 2.050 . S
N600 N646 1.926 . S
C628 C674 2.049 . S
C1088 C973 2.065 . S
N370 N12 3.452 . S
C39 N1083 2.272 1_455 S
N58 N485 3.452 . S
N1060 C85 2.272 . S
N104 N945 3.452 . S
N968 C131 2.272 . S
N150 N991 3.452 . S
N462 C177 2.272 1_655 S
C200 C7 2.186 . S
N25 N219 3.452 . S
C246 C53 2.187 . S
N265 N71 3.452 . S
C292 C99 2.187 . S
N117 N311 3.452 . S
C338 C145 2.187 . S
N357 N163 3.452 . S
C384 N186 2.276 . S
C407 N830 2.275 . S
C858 C430 2.187 . S
N876 C453 2.275 . S
C476 C352 2.192 . S
C499 N232 2.275 . S
C812 C522 2.187 . S
C766 C545 2.187 . S
N564 N922 3.452 . S
C591 N531 2.275 . S
N610 N1037 3.452 . S
C637 N508 2.275 1_655 S
N656 N393 3.452 . S
N416 C683 2.275 1_455 S
N439 N702 3.452 . S
N1014 C729 2.275 . S
C559 C752 2.187 . S
N577 N771 3.452 . S
C798 C605 2.187 . S
N623 N817 3.452 . S
C844 C651 2.187 . S
N669 N863 3.452 . S
C890 C697 2.187 . S
N715 N909 3.452 . S
C936 N738 2.275 . S
C959 N278 2.275 . S
C306 C982 2.192 . S
C1005 N324 2.275 . S
C1028 C904 2.187 . S
N784 C1051 2.275 . S
C1074 C260 2.192 . S
C214 C1097 2.192 . S
C223 C16 1.965 . S
N35 N242 1.612 . S
C269 C62 1.964 . S
N196 N81 1.612 . S
C108 C361 1.965 . S
N127 N288 1.612 . S
C315 C154 1.964 . S
N334 N173 1.612 . S
N380 N426 1.613 . S
N403 N1070 1.608 . S
N449 N1093 1.608 . S
N1047 N472 1.608 . S
N1024 N495 1.613 . S
N955 N518 1.613 . S
N541 N1001 1.613 . S
C775 C568 1.964 . S
N794 N587 1.613 . S
C614 C821 1.965 . S
N748 N633 1.612 . S
C913 C660 1.965 . S
N840 N679 1.612 . S
C706 C867 1.964 . S
N886 N725 1.612 . S
N978 N932 1.608 . S
