# Generated by pormake.
# Topology fnw, (5)-cn, num edge types: 1
# Building blocks:
#     Node 0, Type 0, BuildingBlock: BEQFEK_clean_sbu_0, # of connection points: 5
#     Node 1, Type 0, BuildingBlock: BEQFEK_clean_sbu_0, # of connection points: 5
#     Node 2, Type 0, BuildingBlock: BEQFEK_clean_sbu_0, # of connection points: 5
#     Node 3, Type 0, BuildingBlock: BEQFEK_clean_sbu_0, # of connection points: 5
#     Node 4, Type 0, BuildingBlock: BEQFEK_clean_sbu_0, # of connection points: 5
#     Node 5, Type 0, BuildingBlock: BEQFEK_clean_sbu_0, # of connection points: 5
#     Node 6, Type 0, BuildingBlock: BEQFEK_clean_sbu_0, # of connection points: 5
#     Node 7, Type 0, BuildingBlock: BEQFEK_clean_sbu_0, # of connection points: 5
#     Node 8, Type 0, BuildingBlock: BEQFEK_clean_sbu_0, # of connection points: 5
#     Node 9, Type 0, BuildingBlock: BEQFEK_clean_sbu_0, # of connection points: 5
#     Node 10, Type 0, BuildingBlock: BEQFEK_clean_sbu_0, # of connection points: 5
#     Node 11, Type 0, BuildingBlock: BEQFEK_clean_sbu_0, # of connection points: 5
#     Edge 12, Type (0, 0), BuildingBlock: EZIPEK_clean_linker_0, # of connection points: 2
#     Edge 13, Type (0, 0), BuildingBlock: EZIPEK_clean_linker_0, # of connection points: 2
#     Edge 14, Type (0, 0), BuildingBlock: EZIPEK_clean_linker_0, # of connection points: 2
#     Edge 15, Type (0, 0), BuildingBlock: EZIPEK_clean_linker_0, # of connection points: 2
#     Edge 16, Type (0, 0), BuildingBlock: EZIPEK_clean_linker_0, # of connection points: 2
#     Edge 17, Type (0, 0), BuildingBlock: EZIPEK_clean_linker_0, # of connection points: 2
#     Edge 18, Type (0, 0), BuildingBlock: EZIPEK_clean_linker_0, # of connection points: 2
#     Edge 19, Type (0, 0), BuildingBlock: EZIPEK_clean_linker_0, # of connection points: 2
#     Edge 20, Type (0, 0), BuildingBlock: EZIPEK_clean_linker_0, # of connection points: 2
#     Edge 21, Type (0, 0), BuildingBlock: EZIPEK_clean_linker_0, # of connection points: 2
#     Edge 22, Type (0, 0), BuildingBlock: EZIPEK_clean_linker_0, # of connection points: 2
#     Edge 23, Type (0, 0), BuildingBlock: EZIPEK_clean_linker_0, # of connection points: 2
#     Edge 24, Type (0, 0), BuildingBlock: EZIPEK_clean_linker_0, # of connection points: 2
#     Edge 25, Type (0, 0), BuildingBlock: EZIPEK_clean_linker_0, # of connection points: 2
#     Edge 26, Type (0, 0), BuildingBlock: EZIPEK_clean_linker_0, # of connection points: 2
#     Edge 27, Type (0, 0), BuildingBlock: EZIPEK_clean_linker_0, # of connection points: 2
#     Edge 28, Type (0, 0), BuildingBlock: EZIPEK_clean_linker_0, # of connection points: 2
#     Edge 29, Type (0, 0), BuildingBlock: EZIPEK_clean_linker_0, # of connection points: 2
#     Edge 30, Type (0, 0), BuildingBlock: EZIPEK_clean_linker_0, # of connection points: 2
#     Edge 31, Type (0, 0), BuildingBlock: EZIPEK_clean_linker_0, # of connection points: 2
#     Edge 32, Type (0, 0), BuildingBlock: EZIPEK_clean_linker_0, # of connection points: 2
#     Edge 33, Type (0, 0), BuildingBlock: EZIPEK_clean_linker_0, # of connection points: 2
#     Edge 34, Type (0, 0), BuildingBlock: EZIPEK_clean_linker_0, # of connection points: 2
#     Edge 35, Type (0, 0), BuildingBlock: EZIPEK_clean_linker_0, # of connection points: 2
#     Edge 36, Type (0, 0), BuildingBlock: EZIPEK_clean_linker_0, # of connection points: 2
#     Edge 37, Type (0, 0), BuildingBlock: EZIPEK_clean_linker_0, # of connection points: 2
#     Edge 38, Type (0, 0), BuildingBlock: EZIPEK_clean_linker_0, # of connection points: 2
#     Edge 39, Type (0, 0), BuildingBlock: EZIPEK_clean_linker_0, # of connection points: 2
#     Edge 40, Type (0, 0), BuildingBlock: EZIPEK_clean_linker_0, # of connection points: 2
#     Edge 41, Type (0, 0), BuildingBlock: EZIPEK_clean_linker_0, # of connection points: 2
# Relax obj value: 0.199
# Max RMSD: 0.133
# Mean RMSD: 0.133
data_MOF--net-fnw--node1-BEQFEK_clean_sbu_0--edge1-EZIPEK_clean_linker_0
_symmetry_space_group_name_H-M    P1
_symmetry_Int_Tables_number       1
_symmetry_cell_setting            triclinic
loop_
_symmetry_equiv_pos_as_xyz
'x, y, z'
_cell_length_a     44.067633
_cell_length_b     44.080807
_cell_length_c     22.979179
_cell_angle_alpha  90.024793
_cell_angle_beta   90.013054
_cell_angle_gamma 119.98925
loop_
_atom_site_label
_atom_site_type_symbol
_atom_site_fract_x
_atom_site_fract_y
_atom_site_fract_z
_atom_type_partial_charge
Co0 Co 0.24521 0.50317 0.22541 0.0
Co1 Co 0.28167 0.45774 0.23388 0.0
C2 C 0.24023 0.45416 0.12955 0.0
O3 O 0.23417 0.47721 0.15124 0.0
O4 O 0.25764 0.44279 0.15708 0.0
C5 C 0.21339 0.54199 0.18491 0.0
O6 O 0.21226 0.52713 0.13478 0.0
C7 C 0.29318 0.39728 0.24472 0.0
C8 C 0.34624 0.42368 0.28349 0.0
C9 C 0.31992 0.39168 0.26343 0.0
N10 N 0.30356 0.43131 0.2529 0.0
N11 N 0.3352 0.44682 0.27628 0.0
C12 C 0.25849 0.37106 0.21981 0.0
H13 H 0.23751 0.37457 0.23981 0.0
H14 H 0.25315 0.34392 0.22692 0.0
H15 H 0.25843 0.37583 0.17241 0.0
C16 C 0.21856 0.47174 0.33994 0.0
N17 N 0.23496 0.47332 0.28979 0.0
N18 N 0.25137 0.45541 0.29506 0.0
C19 C 0.24652 0.44245 0.34954 0.0
C20 C 0.22583 0.45264 0.37993 0.0
C21 C 0.20031 0.49206 0.35144 0.0
H22 H 0.21997 0.52041 0.35312 0.0
H23 H 0.182 0.4879 0.31519 0.0
H24 H 0.18566 0.48407 0.39314 0.0
O25 O 0.2955 0.53844 0.22513 0.0
O26 O 0.32132 0.50632 0.22481 0.0
H27 H 0.29418 0.44339 0.37094 0.0
H28 H 0.25872 0.41804 0.42082 0.0
C29 C 0.26554 0.42527 0.37448 0.0
H30 H 0.25887 0.40134 0.34911 0.0
H31 H 0.34941 0.47337 0.28696 0.0
O32 O 0.22304 0.53264 0.23031 0.0
C33 C 0.32294 0.5359 0.223 0.0
Co34 Co 0.74633 0.26356 0.71418 0.0
Co35 Co 0.82564 0.28665 0.72065 0.0
C36 C 0.78382 0.24804 0.61745 0.0
O37 O 0.75697 0.24709 0.64029 0.0
O38 O 0.81302 0.26125 0.64449 0.0
C39 C 0.67123 0.21651 0.70173 0.0
O40 O 0.67847 0.19432 0.67586 0.0
C41 C 0.8969 0.29465 0.72627 0.0
C42 C 0.92206 0.34037 0.78533 0.0
C43 C 0.9285 0.31783 0.75277 0.0
N44 N 0.873 0.30355 0.74221 0.0
N45 N 0.88824 0.33073 0.77771 0.0
C46 C 0.88949 0.26495 0.68638 0.0
H47 H 0.86533 0.24107 0.70084 0.0
H48 H 0.9118 0.25995 0.68519 0.0
H49 H 0.88452 0.27129 0.64191 0.0
C50 C 0.74847 0.24061 0.83406 0.0
N51 N 0.76307 0.25204 0.78134 0.0
N52 N 0.79576 0.25905 0.7826 0.0
C53 C 0.80246 0.25045 0.83553 0.0
C54 C 0.77295 0.23923 0.87057 0.0
C55 C 0.71326 0.23523 0.85064 0.0
H56 H 0.70977 0.25649 0.83197 0.0
H57 H 0.69266 0.21004 0.83209 0.0
H58 H 0.70992 0.2347 0.89854 0.0
O59 O 0.76712 0.31414 0.70917 0.0
O60 O 0.82372 0.33102 0.71157 0.0
H61 H 0.85562 0.28197 0.86367 0.0
H62 H 0.83388 0.23798 0.89198 0.0
C63 C 0.83689 0.2542 0.85311 0.0
H64 H 0.84788 0.24626 0.81661 0.0
H65 H 0.87554 0.34297 0.79629 0.0
O66 O 0.69571 0.24565 0.72017 0.0
C67 C 0.79903 0.33802 0.7083 0.0
Co68 Co 0.47878 0.7436 0.21435 0.0
Co69 Co 0.53562 0.82297 0.21996 0.0
C70 C 0.53365 0.78009 0.11962 0.0
O71 O 0.50709 0.75358 0.14179 0.0
O72 O 0.5496 0.80933 0.14643 0.0
C73 C 0.4515 0.66804 0.21 0.0
O74 O 0.48287 0.6749 0.19381 0.0
C75 C 0.59996 0.89332 0.22802 0.0
C76 C 0.57742 0.92138 0.2747 0.0
C77 C 0.6079 0.92599 0.24941 0.0
N78 N 0.56602 0.87067 0.23958 0.0
N79 N 0.5529 0.88764 0.26778 0.0
C80 C 0.62389 0.88356 0.19774 0.0
H81 H 0.61596 0.8777 0.15141 0.0
H82 H 0.62117 0.85932 0.21735 0.0
H83 H 0.65156 0.90505 0.20032 0.0
C84 C 0.502 0.7472 0.33647 0.0
N85 N 0.50599 0.76109 0.28291 0.0
N86 N 0.53176 0.79376 0.2839 0.0
C87 C 0.54622 0.80113 0.33751 0.0
C88 C 0.52742 0.77204 0.37314 0.0
C89 C 0.4719 0.71231 0.35354 0.0
H90 H 0.44773 0.7077 0.33089 0.0
H91 H 0.47764 0.69157 0.33998 0.0
H92 H 0.46745 0.71048 0.40124 0.0
O93 O 0.44954 0.76486 0.20537 0.0
O94 O 0.48983 0.82129 0.20643 0.0
H95 H 0.56736 0.85503 0.36039 0.0
H96 H 0.58816 0.83387 0.39662 0.0
C97 C 0.57645 0.83585 0.35503 0.0
H98 H 0.59669 0.84563 0.32046 0.0
H99 H 0.52698 0.87619 0.28187 0.0
O100 O 0.44545 0.69283 0.2201 0.0
C101 C 0.45808 0.79688 0.20242 0.0
Co102 Co 0.75002 0.49225 0.72099 0.0
Co103 Co 0.71519 0.53956 0.71923 0.0
C104 C 0.75622 0.53629 0.61794 0.0
O105 O 0.76307 0.51543 0.64547 0.0
O106 O 0.73823 0.54862 0.64077 0.0
C107 C 0.79867 0.46725 0.69938 0.0
O108 O 0.81376 0.4934 0.66249 0.0
C109 C 0.70775 0.60299 0.72725 0.0
C110 C 0.65182 0.57778 0.75188 0.0
C111 C 0.68098 0.60986 0.7401 0.0
N112 N 0.69466 0.56815 0.73096 0.0
N113 N 0.66126 0.55339 0.74567 0.0
C114 C 0.74504 0.62875 0.71296 0.0
H115 H 0.76266 0.6211 0.73488 0.0
H116 H 0.7518 0.65567 0.72594 0.0
H117 H 0.74899 0.62819 0.66537 0.0
C118 C 0.77689 0.528 0.83218 0.0
N119 N 0.76099 0.52518 0.78103 0.0
N120 N 0.74483 0.54347 0.78284 0.0
C121 C 0.74866 0.55721 0.83668 0.0
C122 C 0.76902 0.54772 0.86981 0.0
C123 C 0.79545 0.5084 0.84678 0.0
H124 H 0.81473 0.51306 0.81207 0.0
H125 H 0.80919 0.51683 0.88926 0.0
H126 H 0.77628 0.47991 0.84809 0.0
O127 O 0.69862 0.45778 0.72033 0.0
O128 O 0.67468 0.49171 0.71772 0.0
H129 H 0.73099 0.57773 0.90658 0.0
H130 H 0.73824 0.59959 0.83743 0.0
C131 C 0.72841 0.57381 0.85875 0.0
H132 H 0.70034 0.55712 0.8474 0.0
H133 H 0.64483 0.52656 0.75192 0.0
O134 O 0.7731 0.46358 0.73021 0.0
C135 C 0.67187 0.46164 0.71844 0.0
Co136 Co 0.25679 0.74924 0.21453 0.0
Co137 Co 0.17523 0.71341 0.22176 0.0
C138 C 0.21392 0.75723 0.11961 0.0
O139 O 0.24264 0.76199 0.14098 0.0
O140 O 0.1853 0.74087 0.14791 0.0
C141 C 0.32946 0.79705 0.18427 0.0
O142 O 0.31724 0.80975 0.14486 0.0
C143 C 0.10461 0.7045 0.23591 0.0
C144 C 0.0751 0.64916 0.26409 0.0
C145 C 0.07149 0.67785 0.2513 0.0
N146 N 0.12675 0.69189 0.23906 0.0
N147 N 0.10893 0.65886 0.25604 0.0
C148 C 0.11524 0.74121 0.21897 0.0
H149 H 0.1406 0.75967 0.23987 0.0
H150 H 0.09486 0.7478 0.23133 0.0
H151 H 0.11923 0.74403 0.17117 0.0
C152 C 0.25109 0.77154 0.3333 0.0
N153 N 0.23674 0.75737 0.28148 0.0
N154 N 0.20239 0.74082 0.28612 0.0
C155 C 0.19381 0.74326 0.34165 0.0
C156 C 0.22441 0.76272 0.37356 0.0
C157 C 0.28959 0.78998 0.34519 0.0
H158 H 0.2991 0.77101 0.34188 0.0
H159 H 0.30334 0.81042 0.31166 0.0
H160 H 0.29584 0.80223 0.389 0.0
O161 O 0.24186 0.69899 0.21 0.0
O162 O 0.18386 0.67375 0.2088 0.0
H163 H 0.14591 0.69514 0.35502 0.0
H164 H 0.15678 0.72645 0.41322 0.0
C165 C 0.15736 0.72334 0.3654 0.0
H166 H 0.14099 0.73281 0.34439 0.0
H167 H 0.11987 0.64286 0.26202 0.0
O168 O 0.30861 0.77339 0.21907 0.0
C169 C 0.21167 0.6718 0.20668 0.0
Co170 Co 0.50692 0.25831 0.73205 0.0
Co171 Co 0.46155 0.17634 0.73087 0.0
C172 C 0.45968 0.21903 0.63178 0.0
O173 O 0.48252 0.24728 0.65622 0.0
O174 O 0.44801 0.18925 0.6561 0.0
C175 C 0.53815 0.33354 0.71291 0.0
O176 O 0.51289 0.3259 0.67524 0.0
C177 C 0.39997 0.1049 0.73596 0.0
C178 C 0.42548 0.07553 0.76672 0.0
C179 C 0.39358 0.07165 0.75009 0.0
N180 N 0.43436 0.12742 0.74356 0.0
N181 N 0.44936 0.10966 0.76199 0.0
C182 C 0.37414 0.11531 0.71631 0.0
H183 H 0.3799 0.14023 0.73768 0.0
H184 H 0.34691 0.09446 0.72602 0.0
H185 H 0.37693 0.12003 0.66867 0.0
C186 C 0.47212 0.24852 0.84506 0.0
N187 N 0.47558 0.23587 0.79388 0.0
N188 N 0.45827 0.20142 0.79569 0.0
C189 C 0.44424 0.1911 0.84918 0.0
C190 C 0.45274 0.22066 0.88234 0.0
C191 C 0.49033 0.28661 0.85979 0.0
H192 H 0.48565 0.30089 0.8244 0.0
H193 H 0.48086 0.29136 0.90168 0.0
H194 H 0.51895 0.29673 0.86268 0.0
O195 O 0.54179 0.24284 0.7288 0.0
O196 O 0.50999 0.1851 0.72186 0.0
H197 H 0.42129 0.1522 0.91762 0.0
H198 H 0.40268 0.13796 0.84603 0.0
C199 C 0.42734 0.15411 0.87046 0.0
H200 H 0.44499 0.14343 0.86218 0.0
H201 H 0.476 0.12088 0.77139 0.0
O202 O 0.53772 0.30942 0.74365 0.0
C203 C 0.5395 0.21313 0.72297 0.0
Co204 Co 0.48237 0.73505 0.78313 0.0
Co205 Co 0.53801 0.71092 0.77407 0.0
C206 C 0.53569 0.74849 0.8787 0.0
O207 O 0.50988 0.74981 0.85655 0.0
O208 O 0.5515 0.73551 0.85071 0.0
C209 C 0.45334 0.77876 0.81617 0.0
O210 O 0.47809 0.79194 0.85584 0.0
C211 C 0.60209 0.70487 0.76629 0.0
C212 C 0.58097 0.65598 0.71497 0.0
C213 C 0.61072 0.68103 0.74323 0.0
N214 N 0.56844 0.69391 0.7528 0.0
N215 N 0.55616 0.66486 0.72183 0.0
C216 C 0.62505 0.73728 0.80043 0.0
H217 H 0.62239 0.75938 0.78329 0.0
H218 H 0.65285 0.74384 0.79865 0.0
H219 H 0.61617 0.73318 0.8464 0.0
C220 C 0.50583 0.75647 0.66212 0.0
N221 N 0.51019 0.74625 0.71518 0.0
N222 N 0.53566 0.73892 0.71294 0.0
C223 C 0.54962 0.74612 0.65897 0.0
C224 C 0.53068 0.7568 0.62443 0.0
C225 C 0.47543 0.76103 0.64607 0.0
H226 H 0.45187 0.74253 0.67116 0.0
H227 H 0.48186 0.78809 0.65701 0.0
H228 H 0.46955 0.75672 0.59885 0.0
O229 O 0.45176 0.68436 0.78643 0.0
O230 O 0.49128 0.6671 0.7822 0.0
H231 H 0.56913 0.71244 0.63281 0.0
H232 H 0.59077 0.75491 0.59851 0.0
C233 C 0.57906 0.74076 0.63974 0.0
H234 H 0.59949 0.75012 0.67403 0.0
H235 H 0.53058 0.6508 0.70596 0.0
O236 O 0.45156 0.7558 0.78071 0.0
C237 C 0.45966 0.66033 0.78579 0.0
Co238 Co 0.74475 0.49009 0.26905 0.0
Co239 Co 0.82659 0.53751 0.27299 0.0
C240 C 0.78048 0.53546 0.37119 0.0
O241 O 0.75295 0.51493 0.34281 0.0
O242 O 0.81106 0.5468 0.34996 0.0
C243 C 0.67078 0.45565 0.29211 0.0
O244 O 0.67973 0.47738 0.33628 0.0
C245 C 0.89726 0.60108 0.27162 0.0
C246 C 0.9281 0.57771 0.23825 0.0
C247 C 0.93092 0.6088 0.25695 0.0
N248 N 0.87556 0.56668 0.26221 0.0
N249 N 0.89423 0.55299 0.24228 0.0
C250 C 0.88573 0.62567 0.29328 0.0
H251 H 0.87999 0.62117 0.34051 0.0
H252 H 0.86111 0.62012 0.27103 0.0
H253 H 0.90635 0.65335 0.28622 0.0
C254 C 0.75445 0.52475 0.15653 0.0
N255 N 0.76706 0.52175 0.20802 0.0
N256 N 0.80148 0.54048 0.2075 0.0
C257 C 0.81192 0.55491 0.15424 0.0
C258 C 0.7824 0.54524 0.12006 0.0
C259 C 0.71642 0.5053 0.14091 0.0
H260 H 0.70132 0.50914 0.17584 0.0
H261 H 0.71148 0.51446 0.09886 0.0
H262 H 0.70728 0.47688 0.13801 0.0
O263 O 0.7625 0.45678 0.27611 0.0
O264 O 0.82038 0.49012 0.2777 0.0
H265 H 0.86058 0.55614 0.14145 0.0
H266 H 0.85145 0.58025 0.08731 0.0
C267 C 0.84919 0.57328 0.13411 0.0
H268 H 0.86447 0.59749 0.16005 0.0
H269 H 0.88379 0.52669 0.23111 0.0
O270 O 0.69388 0.45875 0.25581 0.0
C271 C 0.79288 0.46027 0.27919 0.0
Co272 Co 0.25361 0.74494 0.78407 0.0
Co273 Co 0.28821 0.82637 0.77729 0.0
C274 C 0.24344 0.78628 0.87858 0.0
O275 O 0.23873 0.75762 0.85695 0.0
O276 O 0.26027 0.81511 0.85092 0.0
C277 C 0.2197 0.67311 0.81954 0.0
O278 O 0.2152 0.68505 0.86926 0.0
C279 C 0.297 0.89716 0.76689 0.0
C280 C 0.35151 0.92639 0.73447 0.0
C281 C 0.32348 0.93025 0.751 0.0
N282 N 0.30913 0.87478 0.76048 0.0
N283 N 0.34165 0.89243 0.74092 0.0
C284 C 0.26096 0.88681 0.78756 0.0
H285 H 0.24161 0.86202 0.76608 0.0
H286 H 0.25456 0.90774 0.77866 0.0
H287 H 0.25935 0.88182 0.83509 0.0
C288 C 0.23166 0.75053 0.66487 0.0
N289 N 0.2457 0.76486 0.71678 0.0
N290 N 0.26147 0.79918 0.71255 0.0
C291 C 0.25863 0.80781 0.65727 0.0
C292 C 0.23977 0.77725 0.62502 0.0
C293 C 0.21382 0.7121 0.65255 0.0
H294 H 0.19399 0.69774 0.68674 0.0
H295 H 0.20094 0.7058 0.60923 0.0
H296 H 0.2334 0.70329 0.65411 0.0
O297 O 0.30381 0.76116 0.7919 0.0
O298 O 0.32862 0.81906 0.79035 0.0
H299 H 0.27293 0.84531 0.58685 0.0
H300 H 0.26834 0.8604 0.65766 0.0
C301 C 0.27743 0.84444 0.63415 0.0
H302 H 0.30594 0.85612 0.64204 0.0
H303 H 0.35721 0.88128 0.73225 0.0
O304 O 0.23267 0.69368 0.77646 0.0
C305 C 0.33073 0.79144 0.79442 0.0
Co306 Co 0.50416 0.2464 0.28118 0.0
Co307 Co 0.46188 0.28632 0.2837 0.0
C308 C 0.46282 0.24342 0.38499 0.0
O309 O 0.47989 0.2325 0.35561 0.0
O310 O 0.45401 0.26455 0.36325 0.0
C311 C 0.53043 0.19897 0.30374 0.0
O312 O 0.50647 0.18575 0.34466 0.0
C313 C 0.39995 0.29608 0.28022 0.0
C314 C 0.42551 0.35143 0.25211 0.0
C315 C 0.39351 0.32306 0.26708 0.0
N316 N 0.43448 0.30823 0.27358 0.0
N317 N 0.44949 0.3413 0.25682 0.0
C318 C 0.37396 0.2594 0.29738 0.0
H319 H 0.38205 0.24102 0.27993 0.0
H320 H 0.34734 0.2521 0.28165 0.0
H321 H 0.37332 0.25739 0.34553 0.0
C322 C 0.4685 0.22224 0.16941 0.0
N323 N 0.47213 0.2379 0.22106 0.0
N324 N 0.45518 0.25543 0.22037 0.0
C325 C 0.44126 0.25247 0.16692 0.0
C326 C 0.44945 0.2315 0.13277 0.0
C327 C 0.48729 0.20309 0.1531 0.0
H328 H 0.48289 0.18361 0.18734 0.0
H329 H 0.47808 0.18957 0.11058 0.0
H330 H 0.51586 0.22192 0.15075 0.0
O331 O 0.54045 0.29708 0.28422 0.0
O332 O 0.51043 0.3252 0.282 0.0
H333 H 0.44435 0.30211 0.15537 0.0
H334 H 0.42018 0.27066 0.09873 0.0
C335 C 0.4259 0.27407 0.14605 0.0
H336 H 0.40122 0.2662 0.16996 0.0
H337 H 0.47618 0.35697 0.24812 0.0
O338 O 0.5318 0.22247 0.27001 0.0
C339 C 0.53926 0.32533 0.28333 0.0
Co340 Co 0.25688 0.50423 0.78112 0.0
Co341 Co 0.17475 0.46262 0.78818 0.0
C342 C 0.22116 0.46058 0.88351 0.0
O343 O 0.24857 0.4776 0.85282 0.0
O344 O 0.19101 0.45309 0.86435 0.0
C345 C 0.33116 0.52954 0.79568 0.0
O346 O 0.32148 0.50358 0.83262 0.0
C347 C 0.10374 0.39995 0.77624 0.0
C348 C 0.07178 0.42581 0.77374 0.0
C349 C 0.06968 0.39352 0.77065 0.0
N350 N 0.12507 0.43475 0.78235 0.0
N351 N 0.10567 0.44989 0.7812 0.0
C352 C 0.11585 0.3738 0.77396 0.0
H353 H 0.14454 0.38706 0.76624 0.0
H354 H 0.10156 0.35418 0.73933 0.0
H355 H 0.10997 0.3597 0.81609 0.0
C356 C 0.24291 0.47138 0.6664 0.0
N357 N 0.23188 0.47424 0.71946 0.0
N358 N 0.19741 0.45811 0.7202 0.0
C359 C 0.18553 0.44586 0.66616 0.0
C360 C 0.21398 0.45374 0.63045 0.0
C361 C 0.28062 0.48883 0.64903 0.0
H362 H 0.29539 0.48311 0.68212 0.0
H363 H 0.28392 0.4797 0.60572 0.0
H364 H 0.29156 0.51762 0.64783 0.0
O365 O 0.24246 0.54025 0.79202 0.0
O366 O 0.18429 0.51104 0.79261 0.0
H367 H 0.14699 0.43472 0.59885 0.0
H368 H 0.13314 0.40377 0.65757 0.0
C369 C 0.14853 0.43198 0.64661 0.0
H370 H 0.13685 0.44595 0.66912 0.0
H371 H 0.11562 0.47684 0.78444 0.0
O372 O 0.30818 0.5325 0.7668 0.0
C373 C 0.21326 0.53958 0.79479 0.0
Co374 Co 0.7353 0.25177 0.27843 0.0
Co375 Co 0.71062 0.17185 0.27516 0.0
C376 C 0.75069 0.2143 0.3761 0.0
O377 O 0.75158 0.24092 0.35255 0.0
O378 O 0.7372 0.18489 0.34986 0.0
C379 C 0.78217 0.32582 0.30104 0.0
O380 O 0.79964 0.31597 0.33499 0.0
C381 C 0.70353 0.10109 0.26839 0.0
C382 C 0.65229 0.07288 0.22358 0.0
C383 C 0.67843 0.06832 0.24794 0.0
N384 N 0.69223 0.12377 0.25712 0.0
N385 N 0.66173 0.1067 0.23014 0.0
C386 C 0.7376 0.11091 0.2974 0.0
H387 H 0.75873 0.13569 0.27856 0.0
H388 H 0.74419 0.08979 0.29283 0.0
H389 H 0.73573 0.11582 0.34428 0.0
C390 C 0.75434 0.24596 0.15651 0.0
N391 N 0.74465 0.23303 0.21073 0.0
N392 N 0.73722 0.20017 0.21113 0.0
C393 C 0.74393 0.19183 0.15792 0.0
C394 C 0.75453 0.22048 0.12117 0.0
C395 C 0.75841 0.28009 0.13643 0.0
H396 H 0.74512 0.28935 0.16648 0.0
H397 H 0.78666 0.2998 0.13424 0.0
H398 H 0.74738 0.27738 0.09204 0.0
O399 O 0.68485 0.23233 0.28502 0.0
O400 O 0.6673 0.1755 0.2856 0.0
H401 H 0.71001 0.13767 0.13793 0.0
H402 H 0.75125 0.15755 0.09954 0.0
C403 C 0.73846 0.15657 0.14166 0.0
H404 H 0.74929 0.1471 0.17611 0.0
H405 H 0.64721 0.11818 0.2164 0.0
O406 O 0.7558 0.30318 0.27261 0.0
C407 C 0.66073 0.20052 0.2878 0.0
C408 C 0.3478 0.3306 0.31892 0.0
C409 C 0.36042 0.32394 0.26658 0.0
C410 C 0.33213 0.34952 0.20934 0.0
C411 C 0.32296 0.35976 0.26195 0.0
N412 N 0.31026 0.34975 0.36393 0.0
N413 N 0.35413 0.31458 0.16348 0.0
C414 C 0.32646 0.34628 0.31582 0.0
C415 C 0.34847 0.32878 0.2122 0.0
N416 N 0.35852 0.32458 0.37124 0.0
N417 N 0.32808 0.36205 0.15732 0.0
H418 H 0.36627 0.29945 0.16556 0.0
H419 H 0.34396 0.3149 0.12272 0.0
H420 H 0.31596 0.37706 0.15363 0.0
H421 H 0.33815 0.35897 0.1182 0.0
H422 H 0.35368 0.33274 0.41094 0.0
H423 H 0.37363 0.31251 0.37461 0.0
H424 H 0.30967 0.33849 0.40403 0.0
H425 H 0.29458 0.36131 0.36174 0.0
C426 C 0.98462 0.3394 0.69774 0.0
C427 C 0.96378 0.32188 0.74696 0.0
C428 C 0.01627 0.33967 0.80578 0.0
C429 C 0.03673 0.36055 0.75871 0.0
N430 N 0.043 0.37043 0.65574 0.0
N431 N 0.95883 0.29477 0.83959 0.0
C432 C 0.02165 0.35653 0.70294 0.0
C433 C 0.97951 0.31808 0.79804 0.0
N434 N 0.96927 0.34236 0.64809 0.0
N435 N 0.0316 0.34262 0.8587 0.0
H436 H 0.9318 0.27896 0.83392 0.0
H437 H 0.9686 0.2889 0.87653 0.0
H438 H 0.05862 0.35777 0.86483 0.0
H439 H 0.01764 0.33121 0.89665 0.0
H440 H 0.98325 0.35846 0.61336 0.0
H441 H 0.94222 0.32983 0.64256 0.0
H442 H 0.03395 0.36636 0.613 0.0
H443 H 0.07023 0.3833 0.65959 0.0
C444 C 0.66894 0.01483 0.30274 0.0
C445 C 0.67677 0.03393 0.24993 0.0
C446 C 0.65084 0.97961 0.19378 0.0
C447 C 0.64047 0.96048 0.24666 0.0
N448 N 0.65122 0.95877 0.34863 0.0
N449 N 0.68799 0.03581 0.14744 0.0
C450 C 0.65413 0.97792 0.30015 0.0
C451 C 0.67254 0.01657 0.19622 0.0
N452 N 0.67239 0.03117 0.3548 0.0
N453 N 0.63742 0.96321 0.14194 0.0
H454 H 0.70381 0.06305 0.14903 0.0
H455 H 0.68801 0.02464 0.10749 0.0
H456 H 0.62102 0.93627 0.1383 0.0
H457 H 0.64084 0.97662 0.10298 0.0
H458 H 0.6631 0.01774 0.39393 0.0
H459 H 0.68259 0.05807 0.35852 0.0
H460 H 0.66281 0.97004 0.38832 0.0
H461 H 0.64009 0.93157 0.34692 0.0
C462 C 0.67279 0.65217 0.79818 0.0
C463 C 0.68072 0.64323 0.74347 0.0
C464 C 0.66006 0.67906 0.69576 0.0
C465 C 0.64316 0.67899 0.74817 0.0
N466 N 0.63467 0.66709 0.8513 0.0
N467 N 0.68541 0.65068 0.63949 0.0
C468 C 0.65084 0.66716 0.80058 0.0
C469 C 0.6765 0.65841 0.69204 0.0
N470 N 0.68497 0.64456 0.84746 0.0
N471 N 0.65899 0.6978 0.64932 0.0
H472 H 0.698 0.63608 0.63578 0.0
H473 H 0.67911 0.65746 0.59975 0.0
H474 H 0.64685 0.71294 0.65194 0.0
H475 H 0.67273 0.70097 0.61083 0.0
H476 H 0.68228 0.65252 0.88889 0.0
H477 H 0.70084 0.63321 0.8456 0.0
H478 H 0.63604 0.6549 0.8892 0.0
H479 H 0.61822 0.6776 0.85477 0.0
C480 C 0.02123 0.67197 0.30821 0.0
C481 C 0.03765 0.67721 0.25334 0.0
C482 C 0.9812 0.65622 0.20531 0.0
C483 C 0.96456 0.64212 0.25904 0.0
N484 N 0.96731 0.63987 0.36333 0.0
N485 N 0.03449 0.67811 0.14869 0.0
C486 C 0.9841 0.652 0.31139 0.0
C487 C 0.01815 0.67161 0.20145 0.0
N488 N 0.04147 0.68506 0.35688 0.0
N489 N 0.96119 0.65324 0.15795 0.0
H490 H 0.06158 0.68978 0.1446 0.0
H491 H 0.02121 0.67074 0.10915 0.0
H492 H 0.93398 0.64168 0.16096 0.0
H493 H 0.97153 0.66486 0.11791 0.0
H494 H 0.03138 0.68419 0.3982 0.0
H495 H 0.06877 0.6997 0.35449 0.0
H496 H 0.98019 0.6426 0.40263 0.0
H497 H 0.94007 0.62595 0.36658 0.0
C498 C 0.32889 0.98148 0.69815 0.0
C499 C 0.32468 0.96435 0.75203 0.0
C500 C 0.34784 0.02033 0.8026 0.0
C501 C 0.36075 0.03752 0.74881 0.0
N502 N 0.36096 0.03572 0.6441 0.0
N503 N 0.32675 0.96635 0.85685 0.0
C504 C 0.34952 0.01857 0.69592 0.0
C505 C 0.33203 0.98331 0.80491 0.0
N506 N 0.31417 0.96192 0.6493 0.0
N507 N 0.35214 0.03981 0.85134 0.0
H508 H 0.31478 0.93919 0.85992 0.0
H509 H 0.33548 0.97918 0.89659 0.0
H510 H 0.36391 0.06706 0.84959 0.0
H511 H 0.34132 0.02901 0.8916 0.0
H512 H 0.31416 0.97262 0.60893 0.0
H513 H 0.29908 0.93462 0.65096 0.0
H514 H 0.35717 0.02307 0.60426 0.0
H515 H 0.37555 0.06294 0.64132 0.0
C516 C 0.25402 0.48426 0.97664 0.0
C517 C 0.2261 0.45589 0.94625 0.0
C518 C 0.20733 0.42295 0.03812 0.0
C519 C 0.23727 0.45027 0.06575 0.0
N520 N 0.29488 0.50087 0.05605 0.0
N521 N 0.17991 0.39529 0.94643 0.0
C522 C 0.26264 0.47867 0.03299 0.0
C523 C 0.20372 0.42421 0.97646 0.0
N524 N 0.27052 0.51747 0.95439 0.0
N525 N 0.1823 0.39635 0.07074 0.0
H526 H 0.17742 0.39505 0.90127 0.0
H527 H 0.16497 0.37078 0.96561 0.0
H528 H 0.18526 0.39437 0.11542 0.0
H529 H 0.15812 0.37757 0.05409 0.0
H530 H 0.28848 0.53918 0.97837 0.0
H531 H 0.26326 0.52429 0.91564 0.0
H532 H 0.31521 0.52034 0.03153 0.0
H533 H 0.30236 0.49739 0.09748 0.0
C534 C 0.74039 0.19569 0.48204 0.0
C535 C 0.76313 0.21776 0.43744 0.0
C536 C 0.80292 0.25813 0.51169 0.0
C537 C 0.78071 0.2355 0.55625 0.0
N538 N 0.73462 0.17793 0.58315 0.0
N539 N 0.82077 0.26376 0.41062 0.0
C540 C 0.75162 0.20259 0.54103 0.0
C541 C 0.79605 0.24686 0.45269 0.0
N542 N 0.70705 0.16987 0.46918 0.0
N543 N 0.82888 0.29138 0.52462 0.0
H544 H 0.81665 0.25567 0.36721 0.0
H545 H 0.84638 0.28319 0.41985 0.0
H546 H 0.8345 0.30156 0.56663 0.0
H547 H 0.84289 0.31007 0.49283 0.0
H548 H 0.68835 0.15596 0.50101 0.0
H549 H 0.69675 0.16435 0.42724 0.0
H550 H 0.7152 0.15232 0.57393 0.0
H551 H 0.74266 0.18208 0.62658 0.0
C552 C 0.54425 0.79988 0.01442 0.0
C553 C 0.54353 0.77699 0.05879 0.0
C554 C 0.5437 0.73718 0.9842 0.0
C555 C 0.54524 0.76051 0.94 0.0
N556 N 0.55841 0.81873 0.91412 0.0
N557 N 0.55338 0.72985 0.0859 0.0
C558 C 0.54954 0.79352 0.95568 0.0
C559 C 0.54699 0.74768 0.04354 0.0
N560 N 0.53699 0.82591 0.02703 0.0
N561 N 0.53645 0.70405 0.97042 0.0
H562 H 0.55647 0.73733 0.12958 0.0
H563 H 0.55926 0.71018 0.07691 0.0
H564 H 0.53311 0.69463 0.92799 0.0
H565 H 0.53086 0.68481 0.00162 0.0
H566 H 0.53321 0.84045 0.99504 0.0
H567 H 0.53135 0.831 0.06866 0.0
H568 H 0.56495 0.84439 0.92381 0.0
H569 H 0.56287 0.81486 0.87084 0.0
C570 C 0.75787 0.50575 0.46585 0.0
C571 C 0.77615 0.5377 0.43464 0.0
C572 C 0.78307 0.57043 0.52501 0.0
C573 C 0.76173 0.53821 0.5542 0.0
N574 N 0.72123 0.47582 0.54784 0.0
N575 N 0.80324 0.60056 0.43213 0.0
C576 C 0.74687 0.50611 0.52319 0.0
C577 C 0.78808 0.57021 0.46354 0.0
N578 N 0.75219 0.47495 0.44167 0.0
N579 N 0.79929 0.60087 0.55618 0.0
H580 H 0.8075 0.60108 0.38738 0.0
H581 H 0.80942 0.6248 0.44949 0.0
H582 H 0.79571 0.60174 0.60091 0.0
H583 H 0.81794 0.62478 0.53861 0.0
H584 H 0.74263 0.45177 0.46529 0.0
H585 H 0.76042 0.47312 0.40001 0.0
H586 H 0.70675 0.45264 0.52447 0.0
H587 H 0.71177 0.47457 0.5898 0.0
C588 C 0.198 0.75722 0.95586 0.0
C589 C 0.23118 0.78544 0.93941 0.0
C590 C 0.24299 0.80238 0.04217 0.0
C591 C 0.21461 0.76936 0.05874 0.0
N592 N 0.1659 0.71318 0.02846 0.0
N593 N 0.28763 0.83364 0.97015 0.0
C594 C 0.19175 0.74637 0.01502 0.0
C595 C 0.25415 0.80827 0.9832 0.0
N596 N 0.17259 0.74054 0.91469 0.0
N597 N 0.25961 0.82795 0.08311 0.0
H598 H 0.29821 0.83853 0.9285 0.0
H599 H 0.3062 0.84789 0.00203 0.0
H600 H 0.25143 0.82447 0.12645 0.0
H601 H 0.27867 0.85351 0.07267 0.0
H602 H 0.14692 0.72166 0.92494 0.0
H603 H 0.1763 0.74851 0.87124 0.0
H604 H 0.1516 0.69446 0.99682 0.0
H605 H 0.16047 0.70303 0.0704 0.0
C606 C 0.42783 0.22159 0.54161 0.0
C607 C 0.45615 0.22024 0.56813 0.0
C608 C 0.48913 0.23864 0.47806 0.0
C609 C 0.45966 0.23626 0.44857 0.0
N610 N 0.39841 0.21959 0.45096 0.0
N611 N 0.50794 0.21547 0.55581 0.0
C612 C 0.42813 0.22611 0.47993 0.0
C613 C 0.4848 0.22471 0.53435 0.0
N614 N 0.40108 0.21892 0.57521 0.0
N615 N 0.52195 0.25631 0.45438 0.0
H616 H 0.50493 0.20392 0.59662 0.0
H617 H 0.52764 0.21565 0.53036 0.0
H618 H 0.52752 0.26993 0.41521 0.0
H619 H 0.54435 0.26118 0.47742 0.0
H620 H 0.38141 0.22323 0.55933 0.0
H621 H 0.39987 0.21433 0.61995 0.0
H622 H 0.37404 0.20926 0.47101 0.0
H623 H 0.39749 0.22156 0.40586 0.0
C624 C 0.76514 0.51538 0.02333 0.0
C625 C 0.78082 0.54699 0.05565 0.0
C626 C 0.79151 0.58014 0.96496 0.0
C627 C 0.77177 0.54815 0.93429 0.0
N628 N 0.73071 0.48592 0.93868 0.0
N629 N 0.80473 0.60957 0.05859 0.0
C630 C 0.75579 0.51591 0.96478 0.0
C631 C 0.79289 0.57952 0.02687 0.0
N632 N 0.76022 0.48499 0.04775 0.0
N633 N 0.80956 0.61089 0.93502 0.0
H634 H 0.80628 0.61003 0.1039 0.0
H635 H 0.81048 0.63348 0.0403 0.0
H636 H 0.80882 0.61226 0.88976 0.0
H637 H 0.82725 0.63452 0.95468 0.0
H638 H 0.75156 0.46197 0.02392 0.0
H639 H 0.76857 0.4838 0.08974 0.0
H640 H 0.71631 0.46242 0.96118 0.0
H641 H 0.72151 0.48549 0.89669 0.0
C642 C 0.21578 0.78615 0.53068 0.0
C643 C 0.23597 0.77408 0.56045 0.0
C644 C 0.24408 0.75042 0.46914 0.0
C645 C 0.22778 0.76627 0.43815 0.0
N646 N 0.20284 0.80409 0.43855 0.0
N647 N 0.27713 0.75309 0.55469 0.0
C648 C 0.21495 0.78557 0.46869 0.0
C649 C 0.25243 0.75865 0.52873 0.0
N650 N 0.19665 0.79727 0.56155 0.0
N651 N 0.25036 0.72638 0.4425 0.0
H652 H 0.28533 0.76029 0.59758 0.0
H653 H 0.29217 0.74492 0.53171 0.0
H654 H 0.24309 0.71824 0.39961 0.0
H655 H 0.25922 0.71175 0.46495 0.0
H656 H 0.17864 0.80294 0.54237 0.0
H657 H 0.19659 0.79801 0.60692 0.0
H658 H 0.19654 0.82151 0.45828 0.0
H659 H 0.20188 0.80431 0.3932 0.0
C660 C 0.4826 0.23865 0.97907 0.0
C661 C 0.45101 0.22258 0.94664 0.0
C662 C 0.41744 0.21031 0.0372 0.0
C663 C 0.44929 0.22993 0.06826 0.0
N664 N 0.51139 0.27158 0.06539 0.0
N665 N 0.38825 0.19738 0.94336 0.0
C666 C 0.48166 0.24684 0.03817 0.0
C667 C 0.41829 0.20959 0.97527 0.0
N668 N 0.51336 0.24482 0.95428 0.0
N669 N 0.38663 0.19177 0.06681 0.0
H670 H 0.38797 0.19625 0.898 0.0
H671 H 0.36411 0.19089 0.96153 0.0
H672 H 0.38509 0.19223 0.11208 0.0
H673 H 0.3631 0.17406 0.04687 0.0
H674 H 0.53642 0.25362 0.97805 0.0
H675 H 0.51498 0.23743 0.91179 0.0
H676 H 0.53495 0.28679 0.04342 0.0
H677 H 0.51156 0.27967 0.1081 0.0
C678 C 0.23895 0.48441 0.47525 0.0
C679 C 0.22168 0.45239 0.44406 0.0
C680 C 0.19977 0.42037 0.53582 0.0
C681 C 0.21433 0.45278 0.56589 0.0
N682 N 0.2383 0.51541 0.56132 0.0
N683 N 0.18095 0.39023 0.44306 0.0
C684 C 0.23098 0.48476 0.5347 0.0
C685 C 0.20058 0.42039 0.47389 0.0
N686 N 0.26423 0.51424 0.44908 0.0
N687 N 0.18625 0.38974 0.56636 0.0
H688 H 0.18122 0.38933 0.3977 0.0
H689 H 0.16238 0.36678 0.46212 0.0
H690 H 0.18499 0.38876 0.61169 0.0
H691 H 0.17868 0.36561 0.54702 0.0
H692 H 0.2798 0.53739 0.47191 0.0
H693 H 0.27236 0.51491 0.40626 0.0
H694 H 0.24759 0.53892 0.53876 0.0
H695 H 0.23143 0.51659 0.60436 0.0
C696 C 0.79367 0.25891 0.9738 0.0
C697 C 0.76978 0.2329 0.93479 0.0
C698 C 0.73408 0.19932 0.01806 0.0
C699 C 0.7605 0.22288 0.05688 0.0
N700 N 0.82 0.27006 0.06936 0.0
N701 N 0.72162 0.17398 0.92154 0.0
C702 C 0.79184 0.251 0.03397 0.0
C703 C 0.74145 0.2016 0.9575 0.0
N704 N 0.81649 0.29196 0.9546 0.0
N705 N 0.70122 0.17642 0.03794 0.0
H706 H 0.72673 0.17443 0.87712 0.0
H707 H 0.70251 0.1496 0.93704 0.0
H708 H 0.69374 0.17578 0.08114 0.0
H709 H 0.68038 0.16097 0.01022 0.0
H710 H 0.83224 0.31243 0.98273 0.0
H711 H 0.81667 0.29999 0.91189 0.0
H712 H 0.84435 0.28901 0.05344 0.0
H713 H 0.81997 0.26437 0.11344 0.0
C714 C 0.52852 0.73454 0.52189 0.0
C715 C 0.53213 0.7616 0.55989 0.0
C716 C 0.52841 0.79365 0.47575 0.0
C717 C 0.53035 0.76932 0.43753 0.0
N718 N 0.54081 0.72083 0.426 0.0
N719 N 0.54371 0.82096 0.57065 0.0
C720 C 0.53323 0.74114 0.46116 0.0
C721 C 0.5348 0.79252 0.53605 0.0
N722 N 0.51829 0.70183 0.54282 0.0
N723 N 0.51827 0.81636 0.45555 0.0
H724 H 0.54946 0.82143 0.6148 0.0
H725 H 0.54883 0.84508 0.55406 0.0
H726 H 0.51051 0.81619 0.41264 0.0
H727 H 0.51362 0.83245 0.48297 0.0
H728 H 0.51246 0.68062 0.51574 0.0
H729 H 0.51155 0.69489 0.58622 0.0
H730 H 0.54601 0.70182 0.44227 0.0
H731 H 0.54545 0.72547 0.38148 0.0
C732 C 0.18773 0.5765 0.22848 0.0
C733 C 0.21025 0.57394 0.18712 0.0
C734 C 0.22755 0.63278 0.15161 0.0
C735 C 0.20917 0.63727 0.19836 0.0
N736 N 0.17579 0.61504 0.28707 0.0
N737 N 0.25782 0.60318 0.11806 0.0
C738 C 0.1901 0.6095 0.23827 0.0
C739 C 0.23174 0.60293 0.15071 0.0
N740 N 0.1636 0.54729 0.25754 0.0
N741 N 0.24035 0.6566 0.10725 0.0
H742 H 0.26357 0.58296 0.11837 0.0
H743 H 0.27636 0.62525 0.09558 0.0
H744 H 0.23698 0.67839 0.10544 0.0
H745 H 0.25092 0.65267 0.06933 0.0
H746 H 0.14422 0.54688 0.28403 0.0
H747 H 0.16076 0.5226 0.25065 0.0
H748 H 0.16489 0.59684 0.32064 0.0
H749 H 0.17764 0.63902 0.29676 0.0
C750 C 0.62778 0.23189 0.66349 0.0
C751 C 0.63536 0.21103 0.70104 0.0
C752 C 0.58005 0.19117 0.7529 0.0
C753 C 0.572 0.21149 0.71457 0.0
N754 N 0.585 0.2462 0.62693 0.0
N755 N 0.61679 0.1658 0.77346 0.0
C756 C 0.59497 0.23044 0.66799 0.0
C757 C 0.6107 0.18885 0.74296 0.0
N758 N 0.65241 0.25372 0.62425 0.0
N759 N 0.55968 0.17599 0.80092 0.0
H760 H 0.63938 0.16409 0.7679 0.0
H761 H 0.59832 0.14642 0.8005 0.0
H762 H 0.53764 0.17796 0.81087 0.0
H763 H 0.56618 0.16401 0.83378 0.0
H764 H 0.65078 0.27327 0.60147 0.0
H765 H 0.67558 0.25345 0.61624 0.0
H766 H 0.5984 0.25647 0.5881 0.0
H767 H 0.5618 0.24693 0.62927 0.0
C768 C 0.41647 0.60845 0.25441 0.0
C769 C 0.42147 0.63188 0.20847 0.0
C770 C 0.36377 0.59053 0.16792 0.0
C771 C 0.35751 0.56821 0.21669 0.0
N772 N 0.37569 0.55732 0.30979 0.0
N773 N 0.40441 0.64344 0.11541 0.0
C774 C 0.38349 0.57723 0.26043 0.0
C775 C 0.39632 0.62239 0.16345 0.0
N776 N 0.44347 0.61597 0.29184 0.0
N777 N 0.33826 0.5815 0.12662 0.0
H778 H 0.42842 0.66647 0.11045 0.0
H779 H 0.38884 0.63739 0.07846 0.0
H780 H 0.31503 0.55752 0.12618 0.0
H781 H 0.33912 0.5979 0.0934 0.0
H782 H 0.443 0.59853 0.3228 0.0
H783 H 0.46781 0.63873 0.28863 0.0
H784 H 0.39188 0.56444 0.34616 0.0
H785 H 0.35158 0.53478 0.3168 0.0
C786 C 0.81927 0.39782 0.74991 0.0
C787 C 0.80692 0.3746 0.70174 0.0
C788 C 0.7939 0.41477 0.64829 0.0
C789 C 0.806 0.43797 0.69666 0.0
N790 N 0.83865 0.45646 0.7861 0.0
N791 N 0.79175 0.36471 0.60017 0.0
C792 C 0.82144 0.43102 0.74518 0.0
C793 C 0.79734 0.38442 0.6492 0.0
N794 N 0.82719 0.38746 0.80101 0.0
N795 N 0.77725 0.42058 0.60304 0.0
H796 H 0.7943 0.3424 0.59965 0.0
H797 H 0.78799 0.37223 0.55907 0.0
H798 H 0.77422 0.44252 0.60029 0.0
H799 H 0.76422 0.40244 0.57004 0.0
H800 H 0.83231 0.40146 0.83973 0.0
H801 H 0.82658 0.36362 0.80569 0.0
H802 H 0.85304 0.45425 0.8201 0.0
H803 H 0.84148 0.48132 0.7824 0.0
C804 C 0.38837 0.82178 0.23057 0.0
C805 C 0.36629 0.80513 0.18218 0.0
C806 C 0.41119 0.79474 0.1394 0.0
C807 C 0.42999 0.80527 0.19251 0.0
N808 N 0.4368 0.82826 0.28988 0.0
N809 N 0.35549 0.77398 0.09097 0.0
C810 C 0.41904 0.81924 0.2382 0.0
C811 C 0.3776 0.79168 0.13606 0.0
N812 N 0.38005 0.84029 0.26868 0.0
N813 N 0.42563 0.7878 0.0922 0.0
H814 H 0.3307 0.77121 0.0864 0.0
H815 H 0.36069 0.75989 0.06007 0.0
H816 H 0.45036 0.79005 0.09349 0.0
H817 H 0.41479 0.78322 0.05063 0.0
H818 H 0.39643 0.85548 0.30235 0.0
H819 H 0.35822 0.84329 0.26274 0.0
H820 H 0.42774 0.83468 0.32711 0.0
H821 H 0.45968 0.82727 0.29673 0.0
C822 C 0.62024 0.41639 0.66266 0.0
C823 C 0.63642 0.43048 0.71691 0.0
C824 C 0.58396 0.38604 0.76717 0.0
C825 C 0.57032 0.36862 0.71333 0.0
N826 N 0.57979 0.3641 0.61048 0.0
N827 N 0.63522 0.42762 0.82168 0.0
C828 C 0.58944 0.38302 0.66103 0.0
C829 C 0.61873 0.41496 0.76953 0.0
N830 N 0.63392 0.43509 0.6127 0.0
N831 N 0.56317 0.3758 0.8155 0.0
H832 H 0.66024 0.44951 0.82505 0.0
H833 H 0.62511 0.41499 0.86118 0.0
H834 H 0.53701 0.35605 0.8142 0.0
H835 H 0.57053 0.38929 0.85489 0.0
H836 H 0.62134 0.42735 0.57253 0.0
H837 H 0.65571 0.46021 0.61268 0.0
H838 H 0.59512 0.37221 0.57296 0.0
H839 H 0.55862 0.33872 0.6073 0.0
C840 C 0.37179 0.78263 0.85719 0.0
C841 C 0.36514 0.79416 0.80362 0.0
C842 C 0.42155 0.80479 0.76577 0.0
C843 C 0.42537 0.78795 0.81546 0.0
N844 N 0.40329 0.75854 0.90746 0.0
N845 N 0.38224 0.81464 0.70519 0.0
C846 C 0.40054 0.77667 0.86141 0.0
C847 C 0.38983 0.80527 0.75758 0.0
N848 N 0.35081 0.77786 0.90418 0.0
N849 N 0.4486 0.82088 0.72715 0.0
H850 H 0.35949 0.81581 0.69777 0.0
H851 H 0.39729 0.819 0.6679 0.0
H852 H 0.47244 0.82161 0.73303 0.0
H853 H 0.44878 0.8363 0.6927 0.0
H854 H 0.35632 0.77291 0.94603 0.0
H855 H 0.32958 0.78215 0.90244 0.0
H856 H 0.38379 0.7461 0.93872 0.0
H857 H 0.42398 0.75368 0.91249 0.0
C858 C 0.58365 0.3817 0.23678 0.0
C859 C 0.57219 0.35932 0.28601 0.0
C860 C 0.6258 0.39948 0.33835 0.0
C861 C 0.63603 0.42338 0.29106 0.0
N862 N 0.62192 0.44024 0.19971 0.0
N863 N 0.57795 0.3507 0.38812 0.0
C864 C 0.61415 0.41533 0.24142 0.0
C865 C 0.59196 0.36934 0.33818 0.0
N866 N 0.56599 0.37041 0.1852 0.0
N867 N 0.64897 0.40443 0.38198 0.0
H868 H 0.55279 0.32898 0.38989 0.0
H869 H 0.58974 0.3589 0.42879 0.0
H870 H 0.67459 0.42538 0.38314 0.0
H871 H 0.64394 0.38581 0.41409 0.0
H872 H 0.57522 0.38396 0.14617 0.0
H873 H 0.5434 0.34603 0.18035 0.0
H874 H 0.60527 0.43716 0.16523 0.0
H875 H 0.64356 0.46539 0.20268 0.0
C876 C 0.22913 0.59366 0.85242 0.0
C877 C 0.21298 0.57276 0.80264 0.0
C878 C 0.19514 0.61458 0.77066 0.0
C879 C 0.21559 0.63771 0.81592 0.0
N880 N 0.25844 0.65204 0.89259 0.0
N881 N 0.18457 0.56539 0.70964 0.0
C882 C 0.23426 0.62802 0.85507 0.0
C883 C 0.19689 0.58368 0.76045 0.0
N884 N 0.23853 0.5803 0.89815 0.0
N885 N 0.1733 0.62165 0.73855 0.0
H886 H 0.18577 0.54287 0.70017 0.0
H887 H 0.17601 0.57426 0.67477 0.0
H888 H 0.17066 0.64356 0.74608 0.0
H889 H 0.15531 0.60413 0.70864 0.0
H890 H 0.24731 0.59327 0.93783 0.0
H891 H 0.23373 0.55464 0.89871 0.0
H892 H 0.27516 0.64702 0.91762 0.0
H893 H 0.26457 0.67812 0.89439 0.0
C894 C 0.56682 0.17711 0.25556 0.0
C895 C 0.56048 0.19275 0.30451 0.0
C896 C 0.61549 0.20315 0.34872 0.0
C897 C 0.62437 0.19299 0.29588 0.0
N898 N 0.60969 0.17132 0.19759 0.0
N899 N 0.5802 0.22379 0.39601 0.0
C900 C 0.60017 0.17975 0.24907 0.0
C901 C 0.58492 0.20615 0.35116 0.0
N902 N 0.54071 0.15936 0.21588 0.0
N903 N 0.63627 0.20971 0.39666 0.0
H904 H 0.5584 0.22695 0.39962 0.0
H905 H 0.59921 0.23773 0.4274 0.0
H906 H 0.65882 0.20758 0.39616 0.0
H907 H 0.62941 0.21385 0.43806 0.0
H908 H 0.54247 0.14472 0.18185 0.0
H909 H 0.51587 0.15653 0.22042 0.0
H910 H 0.59486 0.16544 0.15967 0.0
H911 H 0.63362 0.17226 0.19171 0.0
C912 C 0.41892 0.6018 0.74121 0.0
C913 C 0.43098 0.62371 0.79103 0.0
C914 C 0.37969 0.58167 0.84641 0.0
C915 C 0.36746 0.55955 0.79664 0.0
N916 N 0.37879 0.54418 0.70188 0.0
N917 N 0.42844 0.63101 0.89436 0.0
C918 C 0.38823 0.56826 0.7456 0.0
C919 C 0.41316 0.61238 0.8448 0.0
N920 N 0.43587 0.6137 0.68923 0.0
N921 N 0.35848 0.57464 0.89388 0.0
H922 H 0.45303 0.65367 0.89441 0.0
H923 H 0.41844 0.62229 0.9359 0.0
H924 H 0.33372 0.55254 0.89713 0.0
H925 H 0.36425 0.59203 0.92835 0.0
H926 H 0.42611 0.60078 0.64982 0.0
H927 H 0.45892 0.63773 0.68485 0.0
H928 H 0.3943 0.54759 0.66557 0.0
H929 H 0.3568 0.51923 0.7047 0.0
C930 C 0.78883 0.38047 0.34768 0.0
C931 C 0.7915 0.36301 0.29767 0.0
C932 C 0.79836 0.4112 0.23557 0.0
C933 C 0.79612 0.42873 0.28561 0.0
N934 N 0.80018 0.43559 0.3898 0.0
N935 N 0.80926 0.36617 0.19784 0.0
C936 C 0.79493 0.41514 0.34194 0.0
C937 C 0.79946 0.37977 0.24264 0.0
N938 N 0.77858 0.3634 0.39987 0.0
N939 N 0.79868 0.42416 0.18141 0.0
H940 H 0.8123 0.34434 0.2033 0.0
H941 H 0.81808 0.37854 0.15779 0.0
H942 H 0.7992 0.44785 0.17479 0.0
H943 H 0.79629 0.41045 0.14317 0.0
H944 H 0.77235 0.37356 0.43594 0.0
H945 H 0.77356 0.33789 0.40611 0.0
H946 H 0.80255 0.42818 0.43184 0.0
H947 H 0.80604 0.46156 0.3866 0.0
loop_
_geom_bond_atom_site_label_1
_geom_bond_atom_site_label_2
_geom_bond_distance
_geom_bond_site_symmetry_2
_ccdc_geom_bond_type
Co0 O3 1.970 . S
Co0 N17 1.989 . S
Co0 O25 1.967 . S
Co0 O32 1.920 . S
Co1 O4 1.966 . S
Co1 N10 2.022 . S
Co1 N18 1.993 . S
Co1 O26 1.941 . S
C2 O3 1.258 . S
C2 O4 1.263 . S
O3 Co0 1.970 . S
O3 C2 1.258 . S
O4 Co1 1.966 . S
O4 C2 1.263 . S
C5 O6 1.235 . S
C5 O32 1.289 . S
O6 C5 1.235 . S
C7 C9 1.400 . S
C7 N10 1.351 . S
C7 C12 1.501 . S
C8 C9 1.387 . S
C8 N11 1.341 . S
C9 C7 1.400 . S
C9 C8 1.387 . S
N10 Co1 2.022 . S
N10 C7 1.351 . S
N10 N11 1.365 . S
N11 C8 1.341 . S
N11 N10 1.365 . S
N11 H31 0.862 . S
C12 C7 1.501 . S
C12 H13 0.961 . S
C12 H14 0.961 . S
C12 H15 0.960 . S
H13 C12 0.961 . S
H14 C12 0.961 . S
H15 C12 0.960 . S
C16 N17 1.342 . S
C16 C20 1.401 . S
C16 C21 1.499 . S
N17 Co0 1.989 . S
N17 C16 1.342 . S
N17 N18 1.388 . S
N18 Co1 1.993 . S
N18 N17 1.388 . S
N18 C19 1.346 . S
C19 N18 1.346 . S
C19 C20 1.396 . S
C19 C29 1.510 . S
C20 C16 1.401 . S
C20 C19 1.396 . S
C21 C16 1.499 . S
C21 H22 0.959 . S
C21 H23 0.960 . S
C21 H24 0.961 . S
H22 C21 0.959 . S
H23 C21 0.960 . S
H24 C21 0.961 . S
O25 Co0 1.967 . S
O25 C33 1.258 . S
O26 Co1 1.941 . S
O26 C33 1.266 . S
H27 C29 0.959 . S
H28 C29 0.961 . S
C29 C19 1.510 . S
C29 H27 0.959 . S
C29 H28 0.961 . S
C29 H30 0.960 . S
H30 C29 0.960 . S
H31 N11 0.862 . S
O32 Co0 1.920 . S
O32 C5 1.289 . S
C33 O25 1.258 . S
C33 O26 1.266 . S
Co34 O37 1.970 . S
Co34 N51 1.989 . S
Co34 O59 1.967 . S
Co34 O66 1.920 . S
Co35 O38 1.966 . S
Co35 N44 2.022 . S
Co35 N52 1.993 . S
Co35 O60 1.941 . S
C36 O37 1.258 . S
C36 O38 1.263 . S
O37 Co34 1.970 . S
O37 C36 1.258 . S
O38 Co35 1.966 . S
O38 C36 1.263 . S
C39 O40 1.235 . S
C39 O66 1.289 . S
O40 C39 1.235 . S
C41 C43 1.400 . S
C41 N44 1.351 . S
C41 C46 1.501 . S
C42 C43 1.387 . S
C42 N45 1.341 . S
C43 C41 1.400 . S
C43 C42 1.387 . S
N44 Co35 2.022 . S
N44 C41 1.351 . S
N44 N45 1.365 . S
N45 C42 1.341 . S
N45 N44 1.365 . S
N45 H65 0.862 . S
C46 C41 1.501 . S
C46 H47 0.961 . S
C46 H48 0.961 . S
C46 H49 0.960 . S
H47 C46 0.961 . S
H48 C46 0.961 . S
H49 C46 0.960 . S
C50 N51 1.342 . S
C50 C54 1.401 . S
C50 C55 1.499 . S
N51 Co34 1.989 . S
N51 C50 1.342 . S
N51 N52 1.388 . S
N52 Co35 1.993 . S
N52 N51 1.388 . S
N52 C53 1.346 . S
C53 N52 1.346 . S
C53 C54 1.396 . S
C53 C63 1.510 . S
C54 C50 1.401 . S
C54 C53 1.396 . S
C55 C50 1.499 . S
C55 H56 0.959 . S
C55 H57 0.960 . S
C55 H58 0.961 . S
H56 C55 0.959 . S
H57 C55 0.960 . S
H58 C55 0.961 . S
O59 Co34 1.967 . S
O59 C67 1.258 . S
O60 Co35 1.941 . S
O60 C67 1.266 . S
H61 C63 0.959 . S
H62 C63 0.961 . S
C63 C53 1.510 . S
C63 H61 0.959 . S
C63 H62 0.961 . S
C63 H64 0.960 . S
H64 C63 0.960 . S
H65 N45 0.862 . S
O66 Co34 1.920 . S
O66 C39 1.289 . S
C67 O59 1.258 . S
C67 O60 1.266 . S
Co68 O71 1.970 . S
Co68 N85 1.989 . S
Co68 O93 1.967 . S
Co68 O100 1.920 . S
Co69 O72 1.966 . S
Co69 N78 2.022 . S
Co69 N86 1.993 . S
Co69 O94 1.941 . S
C70 O71 1.258 . S
C70 O72 1.263 . S
O71 Co68 1.970 . S
O71 C70 1.258 . S
O72 Co69 1.966 . S
O72 C70 1.263 . S
C73 O74 1.235 . S
C73 O100 1.289 . S
O74 C73 1.235 . S
C75 C77 1.400 . S
C75 N78 1.351 . S
C75 C80 1.501 . S
C76 C77 1.387 . S
C76 N79 1.341 . S
C77 C75 1.400 . S
C77 C76 1.387 . S
N78 Co69 2.022 . S
N78 C75 1.351 . S
N78 N79 1.365 . S
N79 C76 1.341 . S
N79 N78 1.365 . S
N79 H99 0.862 . S
C80 C75 1.501 . S
C80 H81 0.961 . S
C80 H82 0.961 . S
C80 H83 0.960 . S
H81 C80 0.961 . S
H82 C80 0.961 . S
H83 C80 0.960 . S
C84 N85 1.342 . S
C84 C88 1.401 . S
C84 C89 1.499 . S
N85 Co68 1.989 . S
N85 C84 1.342 . S
N85 N86 1.388 . S
N86 Co69 1.993 . S
N86 N85 1.388 . S
N86 C87 1.346 . S
C87 N86 1.346 . S
C87 C88 1.396 . S
C87 C97 1.510 . S
C88 C84 1.401 . S
C88 C87 1.396 . S
C89 C84 1.499 . S
C89 H90 0.959 . S
C89 H91 0.960 . S
C89 H92 0.961 . S
H90 C89 0.959 . S
H91 C89 0.960 . S
H92 C89 0.961 . S
O93 Co68 1.967 . S
O93 C101 1.258 . S
O94 Co69 1.941 . S
O94 C101 1.266 . S
H95 C97 0.959 . S
H96 C97 0.961 . S
C97 C87 1.510 . S
C97 H95 0.959 . S
C97 H96 0.961 . S
C97 H98 0.960 . S
H98 C97 0.960 . S
H99 N79 0.862 . S
O100 Co68 1.920 . S
O100 C73 1.289 . S
C101 O93 1.258 . S
C101 O94 1.266 . S
Co102 O105 1.970 . S
Co102 N119 1.989 . S
Co102 O127 1.967 . S
Co102 O134 1.920 . S
Co103 O106 1.966 . S
Co103 N112 2.022 . S
Co103 N120 1.993 . S
Co103 O128 1.941 . S
C104 O105 1.258 . S
C104 O106 1.263 . S
O105 Co102 1.970 . S
O105 C104 1.258 . S
O106 Co103 1.966 . S
O106 C104 1.263 . S
C107 O108 1.235 . S
C107 O134 1.289 . S
O108 C107 1.235 . S
C109 C111 1.400 . S
C109 N112 1.351 . S
C109 C114 1.501 . S
C110 C111 1.387 . S
C110 N113 1.341 . S
C111 C109 1.400 . S
C111 C110 1.387 . S
N112 Co103 2.022 . S
N112 C109 1.351 . S
N112 N113 1.365 . S
N113 C110 1.341 . S
N113 N112 1.365 . S
N113 H133 0.862 . S
C114 C109 1.501 . S
C114 H115 0.961 . S
C114 H116 0.961 . S
C114 H117 0.960 . S
H115 C114 0.961 . S
H116 C114 0.961 . S
H117 C114 0.960 . S
C118 N119 1.342 . S
C118 C122 1.401 . S
C118 C123 1.499 . S
N119 Co102 1.989 . S
N119 C118 1.342 . S
N119 N120 1.388 . S
N120 Co103 1.993 . S
N120 N119 1.388 . S
N120 C121 1.346 . S
C121 N120 1.346 . S
C121 C122 1.396 . S
C121 C131 1.510 . S
C122 C118 1.401 . S
C122 C121 1.396 . S
C123 C118 1.499 . S
C123 H124 0.959 . S
C123 H125 0.960 . S
C123 H126 0.961 . S
H124 C123 0.959 . S
H125 C123 0.960 . S
H126 C123 0.961 . S
O127 Co102 1.967 . S
O127 C135 1.258 . S
O128 Co103 1.941 . S
O128 C135 1.266 . S
H129 C131 0.959 . S
H130 C131 0.961 . S
C131 C121 1.510 . S
C131 H129 0.959 . S
C131 H130 0.961 . S
C131 H132 0.960 . S
H132 C131 0.960 . S
H133 N113 0.862 . S
O134 Co102 1.920 . S
O134 C107 1.289 . S
C135 O127 1.258 . S
C135 O128 1.266 . S
Co136 O139 1.970 . S
Co136 N153 1.989 . S
Co136 O161 1.967 . S
Co136 O168 1.920 . S
Co137 O140 1.966 . S
Co137 N146 2.022 . S
Co137 N154 1.993 . S
Co137 O162 1.941 . S
C138 O139 1.258 . S
C138 O140 1.263 . S
O139 Co136 1.970 . S
O139 C138 1.258 . S
O140 Co137 1.966 . S
O140 C138 1.263 . S
C141 O142 1.235 . S
C141 O168 1.289 . S
O142 C141 1.235 . S
C143 C145 1.400 . S
C143 N146 1.351 . S
C143 C148 1.501 . S
C144 C145 1.387 . S
C144 N147 1.341 . S
C145 C143 1.400 . S
C145 C144 1.387 . S
N146 Co137 2.022 . S
N146 C143 1.351 . S
N146 N147 1.365 . S
N147 C144 1.341 . S
N147 N146 1.365 . S
N147 H167 0.862 . S
C148 C143 1.501 . S
C148 H149 0.961 . S
C148 H150 0.961 . S
C148 H151 0.960 . S
H149 C148 0.961 . S
H150 C148 0.961 . S
H151 C148 0.960 . S
C152 N153 1.342 . S
C152 C156 1.401 . S
C152 C157 1.499 . S
N153 Co136 1.989 . S
N153 C152 1.342 . S
N153 N154 1.388 . S
N154 Co137 1.993 . S
N154 N153 1.388 . S
N154 C155 1.346 . S
C155 N154 1.346 . S
C155 C156 1.396 . S
C155 C165 1.510 . S
C156 C152 1.401 . S
C156 C155 1.396 . S
C157 C152 1.499 . S
C157 H158 0.959 . S
C157 H159 0.960 . S
C157 H160 0.961 . S
H158 C157 0.959 . S
H159 C157 0.960 . S
H160 C157 0.961 . S
O161 Co136 1.967 . S
O161 C169 1.258 . S
O162 Co137 1.941 . S
O162 C169 1.266 . S
H163 C165 0.959 . S
H164 C165 0.961 . S
C165 C155 1.510 . S
C165 H163 0.959 . S
C165 H164 0.961 . S
C165 H166 0.960 . S
H166 C165 0.960 . S
H167 N147 0.862 . S
O168 Co136 1.920 . S
O168 C141 1.289 . S
C169 O161 1.258 . S
C169 O162 1.266 . S
Co170 O173 1.970 . S
Co170 N187 1.989 . S
Co170 O195 1.967 . S
Co170 O202 1.920 . S
Co171 O174 1.966 . S
Co171 N180 2.022 . S
Co171 N188 1.993 . S
Co171 O196 1.941 . S
C172 O173 1.258 . S
C172 O174 1.263 . S
O173 Co170 1.970 . S
O173 C172 1.258 . S
O174 Co171 1.966 . S
O174 C172 1.263 . S
C175 O176 1.235 . S
C175 O202 1.289 . S
O176 C175 1.235 . S
C177 C179 1.400 . S
C177 N180 1.351 . S
C177 C182 1.501 . S
C178 C179 1.387 . S
C178 N181 1.341 . S
C179 C177 1.400 . S
C179 C178 1.387 . S
N180 Co171 2.022 . S
N180 C177 1.351 . S
N180 N181 1.365 . S
N181 C178 1.341 . S
N181 N180 1.365 . S
N181 H201 0.862 . S
C182 C177 1.501 . S
C182 H183 0.961 . S
C182 H184 0.961 . S
C182 H185 0.960 . S
H183 C182 0.961 . S
H184 C182 0.961 . S
H185 C182 0.960 . S
C186 N187 1.342 . S
C186 C190 1.401 . S
C186 C191 1.499 . S
N187 Co170 1.989 . S
N187 C186 1.342 . S
N187 N188 1.388 . S
N188 Co171 1.993 . S
N188 N187 1.388 . S
N188 C189 1.346 . S
C189 N188 1.346 . S
C189 C190 1.396 . S
C189 C199 1.510 . S
C190 C186 1.401 . S
C190 C189 1.396 . S
C191 C186 1.499 . S
C191 H192 0.959 . S
C191 H193 0.960 . S
C191 H194 0.961 . S
H192 C191 0.959 . S
H193 C191 0.960 . S
H194 C191 0.961 . S
O195 Co170 1.967 . S
O195 C203 1.258 . S
O196 Co171 1.941 . S
O196 C203 1.266 . S
H197 C199 0.959 . S
H198 C199 0.961 . S
C199 C189 1.510 . S
C199 H197 0.959 . S
C199 H198 0.961 . S
C199 H200 0.960 . S
H200 C199 0.960 . S
H201 N181 0.862 . S
O202 Co170 1.920 . S
O202 C175 1.289 . S
C203 O195 1.258 . S
C203 O196 1.266 . S
Co204 O207 1.970 . S
Co204 N221 1.989 . S
Co204 O229 1.967 . S
Co204 O236 1.920 . S
Co205 O208 1.966 . S
Co205 N214 2.022 . S
Co205 N222 1.993 . S
Co205 O230 1.941 . S
C206 O207 1.258 . S
C206 O208 1.263 . S
O207 Co204 1.970 . S
O207 C206 1.258 . S
O208 Co205 1.966 . S
O208 C206 1.263 . S
C209 O210 1.235 . S
C209 O236 1.289 . S
O210 C209 1.235 . S
C211 C213 1.400 . S
C211 N214 1.351 . S
C211 C216 1.501 . S
C212 C213 1.387 . S
C212 N215 1.341 . S
C213 C211 1.400 . S
C213 C212 1.387 . S
N214 Co205 2.022 . S
N214 C211 1.351 . S
N214 N215 1.365 . S
N215 C212 1.341 . S
N215 N214 1.365 . S
N215 H235 0.862 . S
C216 C211 1.501 . S
C216 H217 0.961 . S
C216 H218 0.961 . S
C216 H219 0.960 . S
H217 C216 0.961 . S
H218 C216 0.961 . S
H219 C216 0.960 . S
C220 N221 1.342 . S
C220 C224 1.401 . S
C220 C225 1.499 . S
N221 Co204 1.989 . S
N221 C220 1.342 . S
N221 N222 1.388 . S
N222 Co205 1.993 . S
N222 N221 1.388 . S
N222 C223 1.346 . S
C223 N222 1.346 . S
C223 C224 1.396 . S
C223 C233 1.510 . S
C224 C220 1.401 . S
C224 C223 1.396 . S
C225 C220 1.499 . S
C225 H226 0.959 . S
C225 H227 0.960 . S
C225 H228 0.961 . S
H226 C225 0.959 . S
H227 C225 0.960 . S
H228 C225 0.961 . S
O229 Co204 1.967 . S
O229 C237 1.258 . S
O230 Co205 1.941 . S
O230 C237 1.266 . S
H231 C233 0.959 . S
H232 C233 0.961 . S
C233 C223 1.510 . S
C233 H231 0.959 . S
C233 H232 0.961 . S
C233 H234 0.960 . S
H234 C233 0.960 . S
H235 N215 0.862 . S
O236 Co204 1.920 . S
O236 C209 1.289 . S
C237 O229 1.258 . S
C237 O230 1.266 . S
Co238 O241 1.970 . S
Co238 N255 1.989 . S
Co238 O263 1.967 . S
Co238 O270 1.920 . S
Co239 O242 1.966 . S
Co239 N248 2.022 . S
Co239 N256 1.993 . S
Co239 O264 1.941 . S
C240 O241 1.258 . S
C240 O242 1.263 . S
O241 Co238 1.970 . S
O241 C240 1.258 . S
O242 Co239 1.966 . S
O242 C240 1.263 . S
C243 O244 1.235 . S
C243 O270 1.289 . S
O244 C243 1.235 . S
C245 C247 1.400 . S
C245 N248 1.351 . S
C245 C250 1.501 . S
C246 C247 1.387 . S
C246 N249 1.341 . S
C247 C245 1.400 . S
C247 C246 1.387 . S
N248 Co239 2.022 . S
N248 C245 1.351 . S
N248 N249 1.365 . S
N249 C246 1.341 . S
N249 N248 1.365 . S
N249 H269 0.862 . S
C250 C245 1.501 . S
C250 H251 0.961 . S
C250 H252 0.961 . S
C250 H253 0.960 . S
H251 C250 0.961 . S
H252 C250 0.961 . S
H253 C250 0.960 . S
C254 N255 1.342 . S
C254 C258 1.401 . S
C254 C259 1.499 . S
N255 Co238 1.989 . S
N255 C254 1.342 . S
N255 N256 1.388 . S
N256 Co239 1.993 . S
N256 N255 1.388 . S
N256 C257 1.346 . S
C257 N256 1.346 . S
C257 C258 1.396 . S
C257 C267 1.510 . S
C258 C254 1.401 . S
C258 C257 1.396 . S
C259 C254 1.499 . S
C259 H260 0.959 . S
C259 H261 0.960 . S
C259 H262 0.961 . S
H260 C259 0.959 . S
H261 C259 0.960 . S
H262 C259 0.961 . S
O263 Co238 1.967 . S
O263 C271 1.258 . S
O264 Co239 1.941 . S
O264 C271 1.266 . S
H265 C267 0.959 . S
H266 C267 0.961 . S
C267 C257 1.510 . S
C267 H265 0.959 . S
C267 H266 0.961 . S
C267 H268 0.960 . S
H268 C267 0.960 . S
H269 N249 0.862 . S
O270 Co238 1.920 . S
O270 C243 1.289 . S
C271 O263 1.258 . S
C271 O264 1.266 . S
Co272 O275 1.970 . S
Co272 N289 1.989 . S
Co272 O297 1.967 . S
Co272 O304 1.920 . S
Co273 O276 1.966 . S
Co273 N282 2.022 . S
Co273 N290 1.993 . S
Co273 O298 1.941 . S
C274 O275 1.258 . S
C274 O276 1.263 . S
O275 Co272 1.970 . S
O275 C274 1.258 . S
O276 Co273 1.966 . S
O276 C274 1.263 . S
C277 O278 1.235 . S
C277 O304 1.289 . S
O278 C277 1.235 . S
C279 C281 1.400 . S
C279 N282 1.351 . S
C279 C284 1.501 . S
C280 C281 1.387 . S
C280 N283 1.341 . S
C281 C279 1.400 . S
C281 C280 1.387 . S
N282 Co273 2.022 . S
N282 C279 1.351 . S
N282 N283 1.365 . S
N283 C280 1.341 . S
N283 N282 1.365 . S
N283 H303 0.862 . S
C284 C279 1.501 . S
C284 H285 0.961 . S
C284 H286 0.961 . S
C284 H287 0.960 . S
H285 C284 0.961 . S
H286 C284 0.961 . S
H287 C284 0.960 . S
C288 N289 1.342 . S
C288 C292 1.401 . S
C288 C293 1.499 . S
N289 Co272 1.989 . S
N289 C288 1.342 . S
N289 N290 1.388 . S
N290 Co273 1.993 . S
N290 N289 1.388 . S
N290 C291 1.346 . S
C291 N290 1.346 . S
C291 C292 1.396 . S
C291 C301 1.510 . S
C292 C288 1.401 . S
C292 C291 1.396 . S
C293 C288 1.499 . S
C293 H294 0.959 . S
C293 H295 0.960 . S
C293 H296 0.961 . S
H294 C293 0.959 . S
H295 C293 0.960 . S
H296 C293 0.961 . S
O297 Co272 1.967 . S
O297 C305 1.258 . S
O298 Co273 1.941 . S
O298 C305 1.266 . S
H299 C301 0.959 . S
H300 C301 0.961 . S
C301 C291 1.510 . S
C301 H299 0.959 . S
C301 H300 0.961 . S
C301 H302 0.960 . S
H302 C301 0.960 . S
H303 N283 0.862 . S
O304 Co272 1.920 . S
O304 C277 1.289 . S
C305 O297 1.258 . S
C305 O298 1.266 . S
Co306 O309 1.970 . S
Co306 N323 1.989 . S
Co306 O331 1.967 . S
Co306 O338 1.920 . S
Co307 O310 1.966 . S
Co307 N316 2.022 . S
Co307 N324 1.993 . S
Co307 O332 1.941 . S
C308 O309 1.258 . S
C308 O310 1.263 . S
O309 Co306 1.970 . S
O309 C308 1.258 . S
O310 Co307 1.966 . S
O310 C308 1.263 . S
C311 O312 1.235 . S
C311 O338 1.289 . S
O312 C311 1.235 . S
C313 C315 1.400 . S
C313 N316 1.351 . S
C313 C318 1.501 . S
C314 C315 1.387 . S
C314 N317 1.341 . S
C315 C313 1.400 . S
C315 C314 1.387 . S
N316 Co307 2.022 . S
N316 C313 1.351 . S
N316 N317 1.365 . S
N317 C314 1.341 . S
N317 N316 1.365 . S
N317 H337 0.862 . S
C318 C313 1.501 . S
C318 H319 0.961 . S
C318 H320 0.961 . S
C318 H321 0.960 . S
H319 C318 0.961 . S
H320 C318 0.961 . S
H321 C318 0.960 . S
C322 N323 1.342 . S
C322 C326 1.401 . S
C322 C327 1.499 . S
N323 Co306 1.989 . S
N323 C322 1.342 . S
N323 N324 1.388 . S
N324 Co307 1.993 . S
N324 N323 1.388 . S
N324 C325 1.346 . S
C325 N324 1.346 . S
C325 C326 1.396 . S
C325 C335 1.510 . S
C326 C322 1.401 . S
C326 C325 1.396 . S
C327 C322 1.499 . S
C327 H328 0.959 . S
C327 H329 0.960 . S
C327 H330 0.961 . S
H328 C327 0.959 . S
H329 C327 0.960 . S
H330 C327 0.961 . S
O331 Co306 1.967 . S
O331 C339 1.258 . S
O332 Co307 1.941 . S
O332 C339 1.266 . S
H333 C335 0.959 . S
H334 C335 0.961 . S
C335 C325 1.510 . S
C335 H333 0.959 . S
C335 H334 0.961 . S
C335 H336 0.960 . S
H336 C335 0.960 . S
H337 N317 0.862 . S
O338 Co306 1.920 . S
O338 C311 1.289 . S
C339 O331 1.258 . S
C339 O332 1.266 . S
Co340 O343 1.970 . S
Co340 N357 1.989 . S
Co340 O365 1.967 . S
Co340 O372 1.920 . S
Co341 O344 1.966 . S
Co341 N350 2.022 . S
Co341 N358 1.993 . S
Co341 O366 1.941 . S
C342 O343 1.258 . S
C342 O344 1.263 . S
O343 Co340 1.970 . S
O343 C342 1.258 . S
O344 Co341 1.966 . S
O344 C342 1.263 . S
C345 O346 1.235 . S
C345 O372 1.289 . S
O346 C345 1.235 . S
C347 C349 1.400 . S
C347 N350 1.351 . S
C347 C352 1.501 . S
C348 C349 1.387 . S
C348 N351 1.341 . S
C349 C347 1.400 . S
C349 C348 1.387 . S
N350 Co341 2.022 . S
N350 C347 1.351 . S
N350 N351 1.365 . S
N351 C348 1.341 . S
N351 N350 1.365 . S
N351 H371 0.862 . S
C352 C347 1.501 . S
C352 H353 0.961 . S
C352 H354 0.961 . S
C352 H355 0.960 . S
H353 C352 0.961 . S
H354 C352 0.961 . S
H355 C352 0.960 . S
C356 N357 1.342 . S
C356 C360 1.401 . S
C356 C361 1.499 . S
N357 Co340 1.989 . S
N357 C356 1.342 . S
N357 N358 1.388 . S
N358 Co341 1.993 . S
N358 N357 1.388 . S
N358 C359 1.346 . S
C359 N358 1.346 . S
C359 C360 1.396 . S
C359 C369 1.510 . S
C360 C356 1.401 . S
C360 C359 1.396 . S
C361 C356 1.499 . S
C361 H362 0.959 . S
C361 H363 0.960 . S
C361 H364 0.961 . S
H362 C361 0.959 . S
H363 C361 0.960 . S
H364 C361 0.961 . S
O365 Co340 1.967 . S
O365 C373 1.258 . S
O366 Co341 1.941 . S
O366 C373 1.266 . S
H367 C369 0.959 . S
H368 C369 0.961 . S
C369 C359 1.510 . S
C369 H367 0.959 . S
C369 H368 0.961 . S
C369 H370 0.960 . S
H370 C369 0.960 . S
H371 N351 0.862 . S
O372 Co340 1.920 . S
O372 C345 1.289 . S
C373 O365 1.258 . S
C373 O366 1.266 . S
Co374 O377 1.970 . S
Co374 N391 1.989 . S
Co374 O399 1.967 . S
Co374 O406 1.920 . S
Co375 O378 1.966 . S
Co375 N384 2.022 . S
Co375 N392 1.993 . S
Co375 O400 1.941 . S
C376 O377 1.258 . S
C376 O378 1.263 . S
O377 Co374 1.970 . S
O377 C376 1.258 . S
O378 Co375 1.966 . S
O378 C376 1.263 . S
C379 O380 1.235 . S
C379 O406 1.289 . S
O380 C379 1.235 . S
C381 C383 1.400 . S
C381 N384 1.351 . S
C381 C386 1.501 . S
C382 C383 1.387 . S
C382 N385 1.341 . S
C383 C381 1.400 . S
C383 C382 1.387 . S
N384 Co375 2.022 . S
N384 C381 1.351 . S
N384 N385 1.365 . S
N385 C382 1.341 . S
N385 N384 1.365 . S
N385 H405 0.862 . S
C386 C381 1.501 . S
C386 H387 0.961 . S
C386 H388 0.961 . S
C386 H389 0.960 . S
H387 C386 0.961 . S
H388 C386 0.961 . S
H389 C386 0.960 . S
C390 N391 1.342 . S
C390 C394 1.401 . S
C390 C395 1.499 . S
N391 Co374 1.989 . S
N391 C390 1.342 . S
N391 N392 1.388 . S
N392 Co375 1.993 . S
N392 N391 1.388 . S
N392 C393 1.346 . S
C393 N392 1.346 . S
C393 C394 1.396 . S
C393 C403 1.510 . S
C394 C390 1.401 . S
C394 C393 1.396 . S
C395 C390 1.499 . S
C395 H396 0.959 . S
C395 H397 0.960 . S
C395 H398 0.961 . S
H396 C395 0.959 . S
H397 C395 0.960 . S
H398 C395 0.961 . S
O399 Co374 1.967 . S
O399 C407 1.258 . S
O400 Co375 1.941 . S
O400 C407 1.266 . S
H401 C403 0.959 . S
H402 C403 0.961 . S
C403 C393 1.510 . S
C403 H401 0.959 . S
C403 H402 0.961 . S
C403 H404 0.960 . S
H404 C403 0.960 . S
H405 N385 0.862 . S
O406 Co374 1.920 . S
O406 C379 1.289 . S
C407 O399 1.258 . S
C407 O400 1.266 . S
C408 C409 1.363 . S
C408 C414 1.379 . S
C408 N416 1.356 . S
C409 C408 1.363 . S
C409 C415 1.363 . S
C410 C411 1.363 . S
C410 C415 1.379 . S
C410 N417 1.356 . S
C411 C410 1.363 . S
C411 C414 1.363 . S
N412 C414 1.356 . S
N412 H424 0.984 . S
N412 H425 0.985 . S
N413 C415 1.356 . S
N413 H418 0.984 . S
N413 H419 0.985 . S
C414 C408 1.379 . S
C414 C411 1.363 . S
C414 N412 1.356 . S
C415 C409 1.363 . S
C415 C410 1.379 . S
C415 N413 1.356 . S
N416 C408 1.356 . S
N416 H422 0.984 . S
N416 H423 0.984 . S
N417 C410 1.356 . S
N417 H420 0.984 . S
N417 H421 0.985 . S
H418 N413 0.984 . S
H419 N413 0.985 . S
H420 N417 0.984 . S
H421 N417 0.985 . S
H422 N416 0.984 . S
H423 N416 0.984 . S
H424 N412 0.984 . S
H425 N412 0.985 . S
C426 C427 1.363 . S
C426 C432 1.379 1_655 S
C426 N434 1.356 . S
C427 C426 1.363 . S
C427 C433 1.363 . S
C428 C429 1.363 . S
C428 C433 1.379 1_455 S
C428 N435 1.356 . S
C429 C428 1.363 . S
C429 C432 1.363 . S
N430 C432 1.356 . S
N430 H442 0.984 . S
N430 H443 0.985 . S
N431 C433 1.356 . S
N431 H436 0.984 . S
N431 H437 0.985 . S
C432 C426 1.379 1_455 S
C432 C429 1.363 . S
C432 N430 1.356 . S
C433 C427 1.363 . S
C433 C428 1.379 1_655 S
C433 N431 1.356 . S
N434 C426 1.356 . S
N434 H440 0.984 . S
N434 H441 0.984 . S
N435 C428 1.356 . S
N435 H438 0.984 . S
N435 H439 0.985 . S
H436 N431 0.984 . S
H437 N431 0.985 . S
H438 N435 0.984 . S
H439 N435 0.985 . S
H440 N434 0.984 . S
H441 N434 0.984 . S
H442 N430 0.984 . S
H443 N430 0.985 . S
C444 C445 1.363 . S
C444 C450 1.379 1_545 S
C444 N452 1.356 . S
C445 C444 1.363 . S
C445 C451 1.363 . S
C446 C447 1.363 . S
C446 C451 1.379 1_565 S
C446 N453 1.356 . S
C447 C446 1.363 . S
C447 C450 1.363 . S
N448 C450 1.356 . S
N448 H460 0.984 . S
N448 H461 0.985 . S
N449 C451 1.356 . S
N449 H454 0.984 . S
N449 H455 0.985 . S
C450 C444 1.379 1_565 S
C450 C447 1.363 . S
C450 N448 1.356 . S
C451 C445 1.363 . S
C451 C446 1.379 1_545 S
C451 N449 1.356 . S
N452 C444 1.356 . S
N452 H458 0.984 . S
N452 H459 0.984 . S
N453 C446 1.356 . S
N453 H456 0.984 . S
N453 H457 0.985 . S
H454 N449 0.984 . S
H455 N449 0.985 . S
H456 N453 0.984 . S
H457 N453 0.985 . S
H458 N452 0.984 . S
H459 N452 0.984 . S
H460 N448 0.984 . S
H461 N448 0.985 . S
C462 C463 1.363 . S
C462 C468 1.379 . S
C462 N470 1.356 . S
C463 C462 1.363 . S
C463 C469 1.363 . S
C464 C465 1.363 . S
C464 C469 1.379 . S
C464 N471 1.356 . S
C465 C464 1.363 . S
C465 C468 1.363 . S
N466 C468 1.356 . S
N466 H478 0.984 . S
N466 H479 0.985 . S
N467 C469 1.356 . S
N467 H472 0.984 . S
N467 H473 0.985 . S
C468 C462 1.379 . S
C468 C465 1.363 . S
C468 N466 1.356 . S
C469 C463 1.363 . S
C469 C464 1.379 . S
C469 N467 1.356 . S
N470 C462 1.356 . S
N470 H476 0.984 . S
N470 H477 0.984 . S
N471 C464 1.356 . S
N471 H474 0.984 . S
N471 H475 0.985 . S
H472 N467 0.984 . S
H473 N467 0.985 . S
H474 N471 0.984 . S
H475 N471 0.985 . S
H476 N470 0.984 . S
H477 N470 0.984 . S
H478 N466 0.984 . S
H479 N466 0.985 . S
C480 C481 1.363 . S
C480 C486 1.379 1_455 S
C480 N488 1.356 . S
C481 C480 1.363 . S
C481 C487 1.363 . S
C482 C483 1.363 . S
C482 C487 1.379 1_655 S
C482 N489 1.356 . S
C483 C482 1.363 . S
C483 C486 1.363 . S
N484 C486 1.356 . S
N484 H496 0.984 . S
N484 H497 0.985 . S
N485 C487 1.356 . S
N485 H490 0.984 . S
N485 H491 0.985 . S
C486 C480 1.379 1_655 S
C486 C483 1.363 . S
C486 N484 1.356 . S
C487 C481 1.363 . S
C487 C482 1.379 1_455 S
C487 N485 1.356 . S
N488 C480 1.356 . S
N488 H494 0.984 . S
N488 H495 0.984 . S
N489 C482 1.356 . S
N489 H492 0.984 . S
N489 H493 0.985 . S
H490 N485 0.984 . S
H491 N485 0.985 . S
H492 N489 0.984 . S
H493 N489 0.985 . S
H494 N488 0.984 . S
H495 N488 0.984 . S
H496 N484 0.984 . S
H497 N484 0.985 . S
C498 C499 1.363 . S
C498 C504 1.379 1_565 S
C498 N506 1.356 . S
C499 C498 1.363 . S
C499 C505 1.363 . S
C500 C501 1.363 . S
C500 C505 1.379 1_545 S
C500 N507 1.356 . S
C501 C500 1.363 . S
C501 C504 1.363 . S
N502 C504 1.356 . S
N502 H514 0.984 . S
N502 H515 0.985 . S
N503 C505 1.356 . S
N503 H508 0.984 . S
N503 H509 0.985 . S
C504 C498 1.379 1_545 S
C504 C501 1.363 . S
C504 N502 1.356 . S
C505 C499 1.363 . S
C505 C500 1.379 1_565 S
C505 N503 1.356 . S
N506 C498 1.356 . S
N506 H512 0.984 . S
N506 H513 0.984 . S
N507 C500 1.356 . S
N507 H510 0.984 . S
N507 H511 0.985 . S
H508 N503 0.984 . S
H509 N503 0.985 . S
H510 N507 0.984 . S
H511 N507 0.985 . S
H512 N506 0.984 . S
H513 N506 0.984 . S
H514 N502 0.984 . S
H515 N502 0.985 . S
C516 C517 1.363 . S
C516 C522 1.379 1_556 S
C516 N524 1.356 . S
C517 C516 1.363 . S
C517 C523 1.363 . S
C518 C519 1.363 . S
C518 C523 1.379 1_554 S
C518 N525 1.356 . S
C519 C518 1.363 . S
C519 C522 1.363 . S
N520 C522 1.356 . S
N520 H532 0.984 . S
N520 H533 0.985 . S
N521 C523 1.356 . S
N521 H526 0.984 . S
N521 H527 0.985 . S
C522 C516 1.379 1_554 S
C522 C519 1.363 . S
C522 N520 1.356 . S
C523 C517 1.363 . S
C523 C518 1.379 1_556 S
C523 N521 1.356 . S
N524 C516 1.356 . S
N524 H530 0.984 . S
N524 H531 0.984 . S
N525 C518 1.356 . S
N525 H528 0.984 . S
N525 H529 0.985 . S
H526 N521 0.984 . S
H527 N521 0.985 . S
H528 N525 0.984 . S
H529 N525 0.985 . S
H530 N524 0.984 . S
H531 N524 0.984 . S
H532 N520 0.984 . S
H533 N520 0.985 . S
C534 C535 1.363 . S
C534 C540 1.379 . S
C534 N542 1.356 . S
C535 C534 1.363 . S
C535 C541 1.363 . S
C536 C537 1.363 . S
C536 C541 1.379 . S
C536 N543 1.356 . S
C537 C536 1.363 . S
C537 C540 1.363 . S
N538 C540 1.356 . S
N538 H550 0.984 . S
N538 H551 0.985 . S
N539 C541 1.356 . S
N539 H544 0.984 . S
N539 H545 0.985 . S
C540 C534 1.379 . S
C540 C537 1.363 . S
C540 N538 1.356 . S
C541 C535 1.363 . S
C541 C536 1.379 . S
C541 N539 1.356 . S
N542 C534 1.356 . S
N542 H548 0.984 . S
N542 H549 0.984 . S
N543 C536 1.356 . S
N543 H546 0.984 . S
N543 H547 0.985 . S
H544 N539 0.984 . S
H545 N539 0.985 . S
H546 N543 0.984 . S
H547 N543 0.985 . S
H548 N542 0.984 . S
H549 N542 0.984 . S
H550 N538 0.984 . S
H551 N538 0.985 . S
C552 C553 1.363 . S
C552 C558 1.379 1_554 S
C552 N560 1.356 . S
C553 C552 1.363 . S
C553 C559 1.363 . S
C554 C555 1.363 . S
C554 C559 1.379 1_556 S
C554 N561 1.356 . S
C555 C554 1.363 . S
C555 C558 1.363 . S
N556 C558 1.356 . S
N556 H568 0.984 . S
N556 H569 0.985 . S
N557 C559 1.356 . S
N557 H562 0.984 . S
N557 H563 0.985 . S
C558 C552 1.379 1_556 S
C558 C555 1.363 . S
C558 N556 1.356 . S
C559 C553 1.363 . S
C559 C554 1.379 1_554 S
C559 N557 1.356 . S
N560 C552 1.356 . S
N560 H566 0.984 . S
N560 H567 0.984 . S
N561 C554 1.356 . S
N561 H564 0.984 . S
N561 H565 0.985 . S
H562 N557 0.984 . S
H563 N557 0.985 . S
H564 N561 0.984 . S
H565 N561 0.985 . S
H566 N560 0.984 . S
H567 N560 0.984 . S
H568 N556 0.984 . S
H569 N556 0.985 . S
C570 C571 1.363 . S
C570 C576 1.379 . S
C570 N578 1.356 . S
C571 C570 1.363 . S
C571 C577 1.363 . S
C572 C573 1.363 . S
C572 C577 1.379 . S
C572 N579 1.356 . S
C573 C572 1.363 . S
C573 C576 1.363 . S
N574 C576 1.356 . S
N574 H586 0.984 . S
N574 H587 0.985 . S
N575 C577 1.356 . S
N575 H580 0.984 . S
N575 H581 0.985 . S
C576 C570 1.379 . S
C576 C573 1.363 . S
C576 N574 1.356 . S
C577 C571 1.363 . S
C577 C572 1.379 . S
C577 N575 1.356 . S
N578 C570 1.356 . S
N578 H584 0.984 . S
N578 H585 0.984 . S
N579 C572 1.356 . S
N579 H582 0.984 . S
N579 H583 0.985 . S
H580 N575 0.984 . S
H581 N575 0.985 . S
H582 N579 0.984 . S
H583 N579 0.985 . S
H584 N578 0.984 . S
H585 N578 0.984 . S
H586 N574 0.984 . S
H587 N574 0.985 . S
C588 C589 1.363 . S
C588 C594 1.379 1_556 S
C588 N596 1.356 . S
C589 C588 1.363 . S
C589 C595 1.363 . S
C590 C591 1.363 . S
C590 C595 1.379 1_554 S
C590 N597 1.356 . S
C591 C590 1.363 . S
C591 C594 1.363 . S
N592 C594 1.356 . S
N592 H604 0.984 . S
N592 H605 0.985 . S
N593 C595 1.356 . S
N593 H598 0.984 . S
N593 H599 0.985 . S
C594 C588 1.379 1_554 S
C594 C591 1.363 . S
C594 N592 1.356 . S
C595 C589 1.363 . S
C595 C590 1.379 1_556 S
C595 N593 1.356 . S
N596 C588 1.356 . S
N596 H602 0.984 . S
N596 H603 0.984 . S
N597 C590 1.356 . S
N597 H600 0.984 . S
N597 H601 0.985 . S
H598 N593 0.984 . S
H599 N593 0.985 . S
H600 N597 0.984 . S
H601 N597 0.985 . S
H602 N596 0.984 . S
H603 N596 0.984 . S
H604 N592 0.984 . S
H605 N592 0.985 . S
C606 C607 1.363 . S
C606 C612 1.379 . S
C606 N614 1.356 . S
C607 C606 1.363 . S
C607 C613 1.363 . S
C608 C609 1.363 . S
C608 C613 1.379 . S
C608 N615 1.356 . S
C609 C608 1.363 . S
C609 C612 1.363 . S
N610 C612 1.356 . S
N610 H622 0.984 . S
N610 H623 0.985 . S
N611 C613 1.356 . S
N611 H616 0.984 . S
N611 H617 0.985 . S
C612 C606 1.379 . S
C612 C609 1.363 . S
C612 N610 1.356 . S
C613 C607 1.363 . S
C613 C608 1.379 . S
C613 N611 1.356 . S
N614 C606 1.356 . S
N614 H620 0.984 . S
N614 H621 0.984 . S
N615 C608 1.356 . S
N615 H618 0.984 . S
N615 H619 0.985 . S
H616 N611 0.984 . S
H617 N611 0.985 . S
H618 N615 0.984 . S
H619 N615 0.985 . S
H620 N614 0.984 . S
H621 N614 0.984 . S
H622 N610 0.984 . S
H623 N610 0.985 . S
C624 C625 1.363 . S
C624 C630 1.379 1_554 S
C624 N632 1.356 . S
C625 C624 1.363 . S
C625 C631 1.363 . S
C626 C627 1.363 . S
C626 C631 1.379 1_556 S
C626 N633 1.356 . S
C627 C626 1.363 . S
C627 C630 1.363 . S
N628 C630 1.356 . S
N628 H640 0.984 . S
N628 H641 0.985 . S
N629 C631 1.356 . S
N629 H634 0.984 . S
N629 H635 0.985 . S
C630 C624 1.379 1_556 S
C630 C627 1.363 . S
C630 N628 1.356 . S
C631 C625 1.363 . S
C631 C626 1.379 1_554 S
C631 N629 1.356 . S
N632 C624 1.356 . S
N632 H638 0.984 . S
N632 H639 0.984 . S
N633 C626 1.356 . S
N633 H636 0.984 . S
N633 H637 0.985 . S
H634 N629 0.984 . S
H635 N629 0.985 . S
H636 N633 0.984 . S
H637 N633 0.985 . S
H638 N632 0.984 . S
H639 N632 0.984 . S
H640 N628 0.984 . S
H641 N628 0.985 . S
C642 C643 1.363 . S
C642 C648 1.379 . S
C642 N650 1.356 . S
C643 C642 1.363 . S
C643 C649 1.363 . S
C644 C645 1.363 . S
C644 C649 1.379 . S
C644 N651 1.356 . S
C645 C644 1.363 . S
C645 C648 1.363 . S
N646 C648 1.356 . S
N646 H658 0.984 . S
N646 H659 0.985 . S
N647 C649 1.356 . S
N647 H652 0.984 . S
N647 H653 0.985 . S
C648 C642 1.379 . S
C648 C645 1.363 . S
C648 N646 1.356 . S
C649 C643 1.363 . S
C649 C644 1.379 . S
C649 N647 1.356 . S
N650 C642 1.356 . S
N650 H656 0.984 . S
N650 H657 0.984 . S
N651 C644 1.356 . S
N651 H654 0.984 . S
N651 H655 0.985 . S
H652 N647 0.984 . S
H653 N647 0.985 . S
H654 N651 0.984 . S
H655 N651 0.985 . S
H656 N650 0.984 . S
H657 N650 0.984 . S
H658 N646 0.984 . S
H659 N646 0.985 . S
C660 C661 1.363 . S
C660 C666 1.379 1_556 S
C660 N668 1.356 . S
C661 C660 1.363 . S
C661 C667 1.363 . S
C662 C663 1.363 . S
C662 C667 1.379 1_554 S
C662 N669 1.356 . S
C663 C662 1.363 . S
C663 C666 1.363 . S
N664 C666 1.356 . S
N664 H676 0.984 . S
N664 H677 0.985 . S
N665 C667 1.356 . S
N665 H670 0.984 . S
N665 H671 0.985 . S
C666 C660 1.379 1_554 S
C666 C663 1.363 . S
C666 N664 1.356 . S
C667 C661 1.363 . S
C667 C662 1.379 1_556 S
C667 N665 1.356 . S
N668 C660 1.356 . S
N668 H674 0.984 . S
N668 H675 0.984 . S
N669 C662 1.356 . S
N669 H672 0.984 . S
N669 H673 0.985 . S
H670 N665 0.984 . S
H671 N665 0.985 . S
H672 N669 0.984 . S
H673 N669 0.985 . S
H674 N668 0.984 . S
H675 N668 0.984 . S
H676 N664 0.984 . S
H677 N664 0.985 . S
C678 C679 1.363 . S
C678 C684 1.379 . S
C678 N686 1.356 . S
C679 C678 1.363 . S
C679 C685 1.363 . S
C680 C681 1.363 . S
C680 C685 1.379 . S
C680 N687 1.356 . S
C681 C680 1.363 . S
C681 C684 1.363 . S
N682 C684 1.356 . S
N682 H694 0.984 . S
N682 H695 0.985 . S
N683 C685 1.356 . S
N683 H688 0.984 . S
N683 H689 0.985 . S
C684 C678 1.379 . S
C684 C681 1.363 . S
C684 N682 1.356 . S
C685 C679 1.363 . S
C685 C680 1.379 . S
C685 N683 1.356 . S
N686 C678 1.356 . S
N686 H692 0.984 . S
N686 H693 0.984 . S
N687 C680 1.356 . S
N687 H690 0.984 . S
N687 H691 0.985 . S
H688 N683 0.984 . S
H689 N683 0.985 . S
H690 N687 0.984 . S
H691 N687 0.985 . S
H692 N686 0.984 . S
H693 N686 0.984 . S
H694 N682 0.984 . S
H695 N682 0.985 . S
C696 C697 1.363 . S
C696 C702 1.379 1_556 S
C696 N704 1.356 . S
C697 C696 1.363 . S
C697 C703 1.363 . S
C698 C699 1.363 . S
C698 C703 1.379 1_554 S
C698 N705 1.356 . S
C699 C698 1.363 . S
C699 C702 1.363 . S
N700 C702 1.356 . S
N700 H712 0.984 . S
N700 H713 0.985 . S
N701 C703 1.356 . S
N701 H706 0.984 . S
N701 H707 0.985 . S
C702 C696 1.379 1_554 S
C702 C699 1.363 . S
C702 N700 1.356 . S
C703 C697 1.363 . S
C703 C698 1.379 1_556 S
C703 N701 1.356 . S
N704 C696 1.356 . S
N704 H710 0.984 . S
N704 H711 0.984 . S
N705 C698 1.356 . S
N705 H708 0.984 . S
N705 H709 0.985 . S
H706 N701 0.984 . S
H707 N701 0.985 . S
H708 N705 0.984 . S
H709 N705 0.985 . S
H710 N704 0.984 . S
H711 N704 0.984 . S
H712 N700 0.984 . S
H713 N700 0.985 . S
C714 C715 1.363 . S
C714 C720 1.379 . S
C714 N722 1.356 . S
C715 C714 1.363 . S
C715 C721 1.363 . S
C716 C717 1.363 . S
C716 C721 1.379 . S
C716 N723 1.356 . S
C717 C716 1.363 . S
C717 C720 1.363 . S
N718 C720 1.356 . S
N718 H730 0.984 . S
N718 H731 0.985 . S
N719 C721 1.356 . S
N719 H724 0.984 . S
N719 H725 0.985 . S
C720 C714 1.379 . S
C720 C717 1.363 . S
C720 N718 1.356 . S
C721 C715 1.363 . S
C721 C716 1.379 . S
C721 N719 1.356 . S
N722 C714 1.356 . S
N722 H728 0.984 . S
N722 H729 0.984 . S
N723 C716 1.356 . S
N723 H726 0.984 . S
N723 H727 0.985 . S
H724 N719 0.984 . S
H725 N719 0.985 . S
H726 N723 0.984 . S
H727 N723 0.985 . S
H728 N722 0.984 . S
H729 N722 0.984 . S
H730 N718 0.984 . S
H731 N718 0.985 . S
C732 C733 1.363 . S
C732 C738 1.379 . S
C732 N740 1.356 . S
C733 C732 1.363 . S
C733 C739 1.363 . S
C734 C735 1.363 . S
C734 C739 1.379 . S
C734 N741 1.356 . S
C735 C734 1.363 . S
C735 C738 1.363 . S
N736 C738 1.356 . S
N736 H748 0.984 . S
N736 H749 0.985 . S
N737 C739 1.356 . S
N737 H742 0.984 . S
N737 H743 0.985 . S
C738 C732 1.379 . S
C738 C735 1.363 . S
C738 N736 1.356 . S
C739 C733 1.363 . S
C739 C734 1.379 . S
C739 N737 1.356 . S
N740 C732 1.356 . S
N740 H746 0.984 . S
N740 H747 0.984 . S
N741 C734 1.356 . S
N741 H744 0.984 . S
N741 H745 0.985 . S
H742 N737 0.984 . S
H743 N737 0.985 . S
H744 N741 0.984 . S
H745 N741 0.985 . S
H746 N740 0.984 . S
H747 N740 0.984 . S
H748 N736 0.984 . S
H749 N736 0.985 . S
C750 C751 1.363 . S
C750 C756 1.379 . S
C750 N758 1.356 . S
C751 C750 1.363 . S
C751 C757 1.363 . S
C752 C753 1.363 . S
C752 C757 1.379 . S
C752 N759 1.356 . S
C753 C752 1.363 . S
C753 C756 1.363 . S
N754 C756 1.356 . S
N754 H766 0.984 . S
N754 H767 0.985 . S
N755 C757 1.356 . S
N755 H760 0.984 . S
N755 H761 0.985 . S
C756 C750 1.379 . S
C756 C753 1.363 . S
C756 N754 1.356 . S
C757 C751 1.363 . S
C757 C752 1.379 . S
C757 N755 1.356 . S
N758 C750 1.356 . S
N758 H764 0.984 . S
N758 H765 0.984 . S
N759 C752 1.356 . S
N759 H762 0.984 . S
N759 H763 0.985 . S
H760 N755 0.984 . S
H761 N755 0.985 . S
H762 N759 0.984 . S
H763 N759 0.985 . S
H764 N758 0.984 . S
H765 N758 0.984 . S
H766 N754 0.984 . S
H767 N754 0.985 . S
C768 C769 1.363 . S
C768 C774 1.379 . S
C768 N776 1.356 . S
C769 C768 1.363 . S
C769 C775 1.363 . S
C770 C771 1.363 . S
C770 C775 1.379 . S
C770 N777 1.356 . S
C771 C770 1.363 . S
C771 C774 1.363 . S
N772 C774 1.356 . S
N772 H784 0.984 . S
N772 H785 0.985 . S
N773 C775 1.356 . S
N773 H778 0.984 . S
N773 H779 0.985 . S
C774 C768 1.379 . S
C774 C771 1.363 . S
C774 N772 1.356 . S
C775 C769 1.363 . S
C775 C770 1.379 . S
C775 N773 1.356 . S
N776 C768 1.356 . S
N776 H782 0.984 . S
N776 H783 0.984 . S
N777 C770 1.356 . S
N777 H780 0.984 . S
N777 H781 0.985 . S
H778 N773 0.984 . S
H779 N773 0.985 . S
H780 N777 0.984 . S
H781 N777 0.985 . S
H782 N776 0.984 . S
H783 N776 0.984 . S
H784 N772 0.984 . S
H785 N772 0.985 . S
C786 C787 1.363 . S
C786 C792 1.379 . S
C786 N794 1.356 . S
C787 C786 1.363 . S
C787 C793 1.363 . S
C788 C789 1.363 . S
C788 C793 1.379 . S
C788 N795 1.356 . S
C789 C788 1.363 . S
C789 C792 1.363 . S
N790 C792 1.356 . S
N790 H802 0.984 . S
N790 H803 0.985 . S
N791 C793 1.356 . S
N791 H796 0.984 . S
N791 H797 0.985 . S
C792 C786 1.379 . S
C792 C789 1.363 . S
C792 N790 1.356 . S
C793 C787 1.363 . S
C793 C788 1.379 . S
C793 N791 1.356 . S
N794 C786 1.356 . S
N794 H800 0.984 . S
N794 H801 0.984 . S
N795 C788 1.356 . S
N795 H798 0.984 . S
N795 H799 0.985 . S
H796 N791 0.984 . S
H797 N791 0.985 . S
H798 N795 0.984 . S
H799 N795 0.985 . S
H800 N794 0.984 . S
H801 N794 0.984 . S
H802 N790 0.984 . S
H803 N790 0.985 . S
C804 C805 1.363 . S
C804 C810 1.379 . S
C804 N812 1.356 . S
C805 C804 1.363 . S
C805 C811 1.363 . S
C806 C807 1.363 . S
C806 C811 1.379 . S
C806 N813 1.356 . S
C807 C806 1.363 . S
C807 C810 1.363 . S
N808 C810 1.356 . S
N808 H820 0.984 . S
N808 H821 0.985 . S
N809 C811 1.356 . S
N809 H814 0.984 . S
N809 H815 0.985 . S
C810 C804 1.379 . S
C810 C807 1.363 . S
C810 N808 1.356 . S
C811 C805 1.363 . S
C811 C806 1.379 . S
C811 N809 1.356 . S
N812 C804 1.356 . S
N812 H818 0.984 . S
N812 H819 0.984 . S
N813 C806 1.356 . S
N813 H816 0.984 . S
N813 H817 0.985 . S
H814 N809 0.984 . S
H815 N809 0.985 . S
H816 N813 0.984 . S
H817 N813 0.985 . S
H818 N812 0.984 . S
H819 N812 0.984 . S
H820 N808 0.984 . S
H821 N808 0.985 . S
C822 C823 1.363 . S
C822 C828 1.379 . S
C822 N830 1.356 . S
C823 C822 1.363 . S
C823 C829 1.363 . S
C824 C825 1.363 . S
C824 C829 1.379 . S
C824 N831 1.356 . S
C825 C824 1.363 . S
C825 C828 1.363 . S
N826 C828 1.356 . S
N826 H838 0.984 . S
N826 H839 0.985 . S
N827 C829 1.356 . S
N827 H832 0.984 . S
N827 H833 0.985 . S
C828 C822 1.379 . S
C828 C825 1.363 . S
C828 N826 1.356 . S
C829 C823 1.363 . S
C829 C824 1.379 . S
C829 N827 1.356 . S
N830 C822 1.356 . S
N830 H836 0.984 . S
N830 H837 0.984 . S
N831 C824 1.356 . S
N831 H834 0.984 . S
N831 H835 0.985 . S
H832 N827 0.984 . S
H833 N827 0.985 . S
H834 N831 0.984 . S
H835 N831 0.985 . S
H836 N830 0.984 . S
H837 N830 0.984 . S
H838 N826 0.984 . S
H839 N826 0.985 . S
C840 C841 1.363 . S
C840 C846 1.379 . S
C840 N848 1.356 . S
C841 C840 1.363 . S
C841 C847 1.363 . S
C842 C843 1.363 . S
C842 C847 1.379 . S
C842 N849 1.356 . S
C843 C842 1.363 . S
C843 C846 1.363 . S
N844 C846 1.356 . S
N844 H856 0.984 . S
N844 H857 0.985 . S
N845 C847 1.356 . S
N845 H850 0.984 . S
N845 H851 0.985 . S
C846 C840 1.379 . S
C846 C843 1.363 . S
C846 N844 1.356 . S
C847 C841 1.363 . S
C847 C842 1.379 . S
C847 N845 1.356 . S
N848 C840 1.356 . S
N848 H854 0.984 . S
N848 H855 0.984 . S
N849 C842 1.356 . S
N849 H852 0.984 . S
N849 H853 0.985 . S
H850 N845 0.984 . S
H851 N845 0.985 . S
H852 N849 0.984 . S
H853 N849 0.985 . S
H854 N848 0.984 . S
H855 N848 0.984 . S
H856 N844 0.984 . S
H857 N844 0.985 . S
C858 C859 1.363 . S
C858 C864 1.379 . S
C858 N866 1.356 . S
C859 C858 1.363 . S
C859 C865 1.363 . S
C860 C861 1.363 . S
C860 C865 1.379 . S
C860 N867 1.356 . S
C861 C860 1.363 . S
C861 C864 1.363 . S
N862 C864 1.356 . S
N862 H874 0.984 . S
N862 H875 0.985 . S
N863 C865 1.356 . S
N863 H868 0.984 . S
N863 H869 0.985 . S
C864 C858 1.379 . S
C864 C861 1.363 . S
C864 N862 1.356 . S
C865 C859 1.363 . S
C865 C860 1.379 . S
C865 N863 1.356 . S
N866 C858 1.356 . S
N866 H872 0.984 . S
N866 H873 0.984 . S
N867 C860 1.356 . S
N867 H870 0.984 . S
N867 H871 0.985 . S
H868 N863 0.984 . S
H869 N863 0.985 . S
H870 N867 0.984 . S
H871 N867 0.985 . S
H872 N866 0.984 . S
H873 N866 0.984 . S
H874 N862 0.984 . S
H875 N862 0.985 . S
C876 C877 1.363 . S
C876 C882 1.379 . S
C876 N884 1.356 . S
C877 C876 1.363 . S
C877 C883 1.363 . S
C878 C879 1.363 . S
C878 C883 1.379 . S
C878 N885 1.356 . S
C879 C878 1.363 . S
C879 C882 1.363 . S
N880 C882 1.356 . S
N880 H892 0.984 . S
N880 H893 0.985 . S
N881 C883 1.356 . S
N881 H886 0.984 . S
N881 H887 0.985 . S
C882 C876 1.379 . S
C882 C879 1.363 . S
C882 N880 1.356 . S
C883 C877 1.363 . S
C883 C878 1.379 . S
C883 N881 1.356 . S
N884 C876 1.356 . S
N884 H890 0.984 . S
N884 H891 0.984 . S
N885 C878 1.356 . S
N885 H888 0.984 . S
N885 H889 0.985 . S
H886 N881 0.984 . S
H887 N881 0.985 . S
H888 N885 0.984 . S
H889 N885 0.985 . S
H890 N884 0.984 . S
H891 N884 0.984 . S
H892 N880 0.984 . S
H893 N880 0.985 . S
C894 C895 1.363 . S
C894 C900 1.379 . S
C894 N902 1.356 . S
C895 C894 1.363 . S
C895 C901 1.363 . S
C896 C897 1.363 . S
C896 C901 1.379 . S
C896 N903 1.356 . S
C897 C896 1.363 . S
C897 C900 1.363 . S
N898 C900 1.356 . S
N898 H910 0.984 . S
N898 H911 0.985 . S
N899 C901 1.356 . S
N899 H904 0.984 . S
N899 H905 0.985 . S
C900 C894 1.379 . S
C900 C897 1.363 . S
C900 N898 1.356 . S
C901 C895 1.363 . S
C901 C896 1.379 . S
C901 N899 1.356 . S
N902 C894 1.356 . S
N902 H908 0.984 . S
N902 H909 0.984 . S
N903 C896 1.356 . S
N903 H906 0.984 . S
N903 H907 0.985 . S
H904 N899 0.984 . S
H905 N899 0.985 . S
H906 N903 0.984 . S
H907 N903 0.985 . S
H908 N902 0.984 . S
H909 N902 0.984 . S
H910 N898 0.984 . S
H911 N898 0.985 . S
C912 C913 1.363 . S
C912 C918 1.379 . S
C912 N920 1.356 . S
C913 C912 1.363 . S
C913 C919 1.363 . S
C914 C915 1.363 . S
C914 C919 1.379 . S
C914 N921 1.356 . S
C915 C914 1.363 . S
C915 C918 1.363 . S
N916 C918 1.356 . S
N916 H928 0.984 . S
N916 H929 0.985 . S
N917 C919 1.356 . S
N917 H922 0.984 . S
N917 H923 0.985 . S
C918 C912 1.379 . S
C918 C915 1.363 . S
C918 N916 1.356 . S
C919 C913 1.363 . S
C919 C914 1.379 . S
C919 N917 1.356 . S
N920 C912 1.356 . S
N920 H926 0.984 . S
N920 H927 0.984 . S
N921 C914 1.356 . S
N921 H924 0.984 . S
N921 H925 0.985 . S
H922 N917 0.984 . S
H923 N917 0.985 . S
H924 N921 0.984 . S
H925 N921 0.985 . S
H926 N920 0.984 . S
H927 N920 0.984 . S
H928 N916 0.984 . S
H929 N916 0.985 . S
C930 C931 1.363 . S
C930 C936 1.379 . S
C930 N938 1.356 . S
C931 C930 1.363 . S
C931 C937 1.363 . S
C932 C933 1.363 . S
C932 C937 1.379 . S
C932 N939 1.356 . S
C933 C932 1.363 . S
C933 C936 1.363 . S
N934 C936 1.356 . S
N934 H946 0.984 . S
N934 H947 0.985 . S
N935 C937 1.356 . S
N935 H940 0.984 . S
N935 H941 0.985 . S
C936 C930 1.379 . S
C936 C933 1.363 . S
C936 N934 1.356 . S
C937 C931 1.363 . S
C937 C932 1.379 . S
C937 N935 1.356 . S
N938 C930 1.356 . S
N938 H944 0.984 . S
N938 H945 0.984 . S
N939 C932 1.356 . S
N939 H942 0.984 . S
N939 H943 0.985 . S
H940 N935 0.984 . S
H941 N935 0.985 . S
H942 N939 0.984 . S
H943 N939 0.985 . S
H944 N938 0.984 . S
H945 N938 0.984 . S
H946 N934 0.984 . S
H947 N934 0.985 . S
C409 C315 1.621 . S
C411 C9 1.621 . S
C427 C43 1.621 . S
C429 C349 1.621 . S
C445 C383 1.621 . S
C447 C77 1.621 . S
C463 C111 1.621 . S
C465 C213 1.621 . S
C481 C145 1.621 . S
C483 C247 1.621 . S
C499 C281 1.621 . S
C501 C179 1.621 . S
C517 C342 1.420 . S
C519 C2 1.420 . S
C535 C376 1.420 . S
C537 C36 1.420 . S
C553 C70 1.420 . S
C555 C206 1.420 . S
C571 C240 1.420 . S
C573 C104 1.420 . S
C589 C274 1.420 . S
C591 C138 1.420 . S
C607 C172 1.420 . S
C609 C308 1.420 . S
C625 C258 1.540 . S
C627 C122 1.540 . S
C643 C292 1.540 . S
C645 C156 1.540 . S
C661 C190 1.540 . S
C663 C326 1.540 . S
C679 C20 1.540 . S
C681 C360 1.540 . S
C697 C54 1.540 . S
C699 C394 1.540 . S
C715 C224 1.540 . S
C717 C88 1.540 . S
C733 C5 1.613 . S
C735 C169 1.645 . S
C751 C39 1.613 . S
C753 C203 1.645 . S
C769 C73 1.613 . S
C771 C33 1.645 . S
C787 C67 1.645 . S
C789 C107 1.613 . S
C805 C141 1.613 . S
C807 C101 1.645 . S
C823 C135 1.645 . S
C825 C175 1.613 . S
C841 C305 1.645 . S
C843 C209 1.613 . S
C859 C339 1.645 . S
C861 C243 1.613 . S
C877 C373 1.645 . S
C879 C277 1.613 . S
C895 C311 1.613 . S
C897 C407 1.645 . S
C913 C237 1.645 . S
C915 C345 1.613 . S
C931 C379 1.613 . S
C933 C271 1.645 . S
