# Generated by pormake.
# Topology smk, (6)-cn, num edge types: 1
# Building blocks:
#     Node 0, Type 0, BuildingBlock: UKALOJ_clean_sbu_0, # of connection points: 6
#     Node 1, Type 0, BuildingBlock: UKALOJ_clean_sbu_0, # of connection points: 6
#     Node 2, Type 0, BuildingBlock: UKALOJ_clean_sbu_0, # of connection points: 6
#     Node 3, Type 0, BuildingBlock: UKALOJ_clean_sbu_0, # of connection points: 6
#     Node 4, Type 0, BuildingBlock: UKALOJ_clean_sbu_0, # of connection points: 6
#     Node 5, Type 0, BuildingBlock: UKALOJ_clean_sbu_0, # of connection points: 6
#     Edge 6, Type (0, 0), BuildingBlock: FUNLAD_clean_linker_0, # of connection points: 2
#     Edge 7, Type (0, 0), BuildingBlock: FUNLAD_clean_linker_0, # of connection points: 2
#     Edge 8, Type (0, 0), BuildingBlock: FUNLAD_clean_linker_0, # of connection points: 2
#     Edge 9, Type (0, 0), BuildingBlock: FUNLAD_clean_linker_0, # of connection points: 2
#     Edge 10, Type (0, 0), BuildingBlock: FUNLAD_clean_linker_0, # of connection points: 2
#     Edge 11, Type (0, 0), BuildingBlock: FUNLAD_clean_linker_0, # of connection points: 2
#     Edge 12, Type (0, 0), BuildingBlock: FUNLAD_clean_linker_0, # of connection points: 2
#     Edge 13, Type (0, 0), BuildingBlock: FUNLAD_clean_linker_0, # of connection points: 2
#     Edge 14, Type (0, 0), BuildingBlock: FUNLAD_clean_linker_0, # of connection points: 2
#     Edge 15, Type (0, 0), BuildingBlock: FUNLAD_clean_linker_0, # of connection points: 2
#     Edge 16, Type (0, 0), BuildingBlock: FUNLAD_clean_linker_0, # of connection points: 2
#     Edge 17, Type (0, 0), BuildingBlock: FUNLAD_clean_linker_0, # of connection points: 2
#     Edge 18, Type (0, 0), BuildingBlock: FUNLAD_clean_linker_0, # of connection points: 2
#     Edge 19, Type (0, 0), BuildingBlock: FUNLAD_clean_linker_0, # of connection points: 2
#     Edge 20, Type (0, 0), BuildingBlock: FUNLAD_clean_linker_0, # of connection points: 2
#     Edge 21, Type (0, 0), BuildingBlock: FUNLAD_clean_linker_0, # of connection points: 2
#     Edge 22, Type (0, 0), BuildingBlock: FUNLAD_clean_linker_0, # of connection points: 2
#     Edge 23, Type (0, 0), BuildingBlock: FUNLAD_clean_linker_0, # of connection points: 2
# Relax obj value: 0.277
# Max RMSD: 0.211
# Mean RMSD: 0.211
data_MOF--net-smk--node1-UKALOJ_clean_sbu_0--edge1-FUNLAD_clean_linker_0
_symmetry_space_group_name_H-M    P1
_symmetry_Int_Tables_number       1
_symmetry_cell_setting            triclinic
loop_
_symmetry_equiv_pos_as_xyz
'x, y, z'
_cell_length_a     52.909295
_cell_length_b     52.906582
_cell_length_c     17.088532
_cell_angle_alpha  90.302739
_cell_angle_beta   90.073996
_cell_angle_gamma 119.93226
loop_
_atom_site_label
_atom_site_type_symbol
_atom_site_fract_x
_atom_site_fract_y
_atom_site_fract_z
_atom_type_partial_charge
Zn0 Zn 0.43764 0.21969 0.55548 0.0
O1 O 0.40345 0.17678 0.58403 0.0
C2 C 0.46173 0.22872 0.71375 0.0
Zn3 Zn 0.47156 0.20612 0.56468 0.0
C4 C 0.41033 0.15709 0.59402 0.0
O5 O 0.43706 0.16401 0.5916 0.0
C6 C 0.4988 0.26781 0.51876 0.0
O7 O 0.46642 0.19428 0.44696 0.0
O8 O 0.43271 0.20687 0.43864 0.0
N9 N 0.50092 0.19159 0.57829 0.0
C10 C 0.52542 0.20145 0.62189 0.0
C11 C 0.51846 0.16273 0.56393 0.0
N12 N 0.49672 0.16755 0.54234 0.0
N13 N 0.53669 0.18357 0.61437 0.0
C14 C 0.3916 0.24024 0.58592 0.0
C15 C 0.39132 0.25786 0.47444 0.0
N16 N 0.40858 0.23462 0.53814 0.0
N17 N 0.40797 0.24529 0.4687 0.0
N18 N 0.38062 0.25494 0.54736 0.0
H19 H 0.39032 0.21455 0.68464 0.0
H20 H 0.36638 0.22951 0.69204 0.0
H21 H 0.40488 0.25314 0.7038 0.0
C22 C 0.388 0.2338 0.67156 0.0
C23 C 0.53927 0.2294 0.66793 0.0
H24 H 0.56336 0.24053 0.66254 0.0
H25 H 0.53377 0.22447 0.73052 0.0
H26 H 0.53149 0.24423 0.64847 0.0
O27 O 0.5051 0.24813 0.53423 0.0
O28 O 0.47242 0.26195 0.52407 0.0
C29 C 0.44758 0.1968 0.40698 0.0
O30 O 0.44363 0.23227 0.67326 0.0
O31 O 0.47599 0.21796 0.68221 0.0
Zn32 Zn 0.231 0.42692 0.68404 0.0
O33 O 0.24033 0.39304 0.71042 0.0
C34 C 0.2447 0.44956 0.84335 0.0
Zn35 Zn 0.27826 0.4611 0.69571 0.0
C36 C 0.26679 0.39988 0.72196 0.0
O37 O 0.28655 0.42665 0.72122 0.0
C38 C 0.24336 0.48828 0.6522 0.0
O39 O 0.28563 0.45725 0.57669 0.0
O40 O 0.23951 0.42302 0.56767 0.0
N41 N 0.32185 0.491 0.71305 0.0
C42 C 0.33542 0.51431 0.76149 0.0
C43 C 0.36852 0.51018 0.70195 0.0
N44 N 0.34252 0.48855 0.67606 0.0
N45 N 0.3647 0.52654 0.75621 0.0
C46 C 0.16606 0.378 0.71151 0.0
C47 C 0.14694 0.37642 0.60052 0.0
N48 N 0.18755 0.39733 0.6649 0.0
N49 N 0.17557 0.39617 0.59592 0.0
N50 N 0.14028 0.36471 0.67258 0.0
H51 H 0.19294 0.37394 0.79953 0.0
H52 H 0.15432 0.34835 0.80858 0.0
H53 H 0.16879 0.38617 0.83467 0.0
C54 C 0.1708 0.37106 0.79322 0.0
C55 C 0.32011 0.52594 0.81103 0.0
H56 H 0.33319 0.55008 0.81529 0.0
H57 H 0.31748 0.51694 0.87076 0.0
H58 H 0.29829 0.51962 0.78724 0.0
O59 O 0.26929 0.4945 0.66819 0.0
O60 O 0.22293 0.46178 0.65445 0.0
C61 C 0.26435 0.4382 0.53651 0.0
O62 O 0.22339 0.43126 0.80206 0.0
O63 O 0.2698 0.46428 0.8133 0.0
Zn64 Zn 0.81871 0.2163 0.86943 0.0
O65 O 0.86401 0.22985 0.85067 0.0
C66 C 0.83239 0.23459 0.03105 0.0
Zn67 Zn 0.82979 0.26284 0.8845 0.0
C68 C 0.88245 0.25707 0.85163 0.0
O69 O 0.87354 0.27505 0.86357 0.0
C70 C 0.76613 0.22299 0.89772 0.0
O71 O 0.82371 0.26713 0.76656 0.0
O72 O 0.81333 0.22152 0.75185 0.0
N73 N 0.84275 0.30583 0.90639 0.0
C74 C 0.82947 0.32188 0.90041 0.0
C75 C 0.87157 0.34938 0.94993 0.0
N76 N 0.86893 0.32305 0.9369 0.0
N77 N 0.84706 0.34925 0.92791 0.0
C78 C 0.79162 0.14912 0.89334 0.0
C79 C 0.80293 0.13571 0.78761 0.0
N80 N 0.80701 0.17328 0.8497 0.0
N81 N 0.81398 0.16483 0.78402 0.0
N82 N 0.78898 0.12535 0.85596 0.0
H83 H 0.79229 0.14948 0.01814 0.0
H84 H 0.75661 0.1278 -0.02388 0.0
H85 H 0.77387 0.16709 -0.0235 0.0
C86 C 0.77767 0.14844 0.97018 0.0
C87 C 0.80013 0.31122 0.86368 0.0
H88 H 0.79579 0.29445 0.81834 0.0
H89 H 0.79871 0.32954 0.83693 0.0
H90 H 0.78317 0.30132 0.90944 0.0
O91 O 0.78554 0.24971 0.90458 0.0
O92 O 0.77392 0.20412 0.88506 0.0
C93 C 0.81599 0.24485 0.72336 0.0
O94 O 0.82432 0.2122 -0.01173 0.0
O95 O 0.83583 0.25804 0.00159 0.0
Zn96 Zn 0.60336 0.80436 0.05462 0.0
O97 O 0.63506 0.84951 0.03725 0.0
C98 C 0.60008 0.8166 0.21637 0.0
Zn99 Zn 0.5678 0.81522 0.07099 0.0
C100 C 0.62609 0.86783 0.03566 0.0
O101 O 0.59928 0.85905 0.04814 0.0
C102 C 0.54454 0.75147 0.08157 0.0
O103 O 0.55554 0.8096 0.95386 0.0
O104 O 0.59153 0.80037 0.93743 0.0
N105 N 0.53847 0.82841 0.10121 0.0
C106 C 0.50914 0.81442 0.10735 0.0
C107 C 0.52546 0.85644 0.15925 0.0
N108 N 0.54846 0.85458 0.13302 0.0
N109 N 0.50043 0.83141 0.14466 0.0
C110 C 0.65712 0.79468 0.06713 0.0
C111 C 0.64932 0.76585 0.9711 0.0
N112 N 0.63326 0.79137 0.02901 0.0
N113 N 0.62862 0.77358 0.9691 0.0
N114 N 0.66744 0.77863 0.03236 0.0
H115 H 0.6681 0.83413 0.13046 0.0
H116 H 0.69487 0.82247 0.13774 0.0
H117 H 0.66101 0.80336 0.19026 0.0
C118 C 0.6712 0.81495 0.13518 0.0
C119 C 0.48921 0.78494 0.07287 0.0
H120 H 0.49929 0.78111 0.02061 0.0
H121 H 0.46798 0.78291 0.05622 0.0
H122 H 0.48519 0.7681 0.11695 0.0
O123 O 0.53685 0.77056 0.09078 0.0
O124 O 0.57121 0.75977 0.06849 0.0
C125 C 0.5705 0.80274 0.90969 0.0
O126 O 0.61367 0.80793 0.17302 0.0
O127 O 0.58056 0.82098 0.18737 0.0
Zn128 Zn 0.76389 0.57191 0.18941 0.0
O129 O 0.75322 0.57152 0.07169 0.0
C130 C 0.79653 0.54195 0.15237 0.0
Zn131 Zn 0.81108 0.60484 0.17239 0.0
C132 C 0.77405 0.58883 0.02799 0.0
O133 O 0.79953 0.60443 0.05615 0.0
C134 C 0.8006 0.58748 0.33392 0.0
O135 O 0.80402 0.64073 0.19202 0.0
O136 O 0.75785 0.60815 0.20879 0.0
N137 N 0.85417 0.63195 0.1448 0.0
C138 C 0.87725 0.65247 0.18564 0.0
C139 C 0.89324 0.64673 0.07663 0.0
N140 N 0.86421 0.62857 0.07699 0.0
N141 N 0.9022 0.66194 0.14432 0.0
C142 C 0.70209 0.5161 0.20716 0.0
C143 C 0.68208 0.53167 0.28732 0.0
N144 N 0.72108 0.54467 0.21975 0.0
N145 N 0.70843 0.55427 0.26914 0.0
N146 N 0.67756 0.50735 0.24958 0.0
H147 H 0.72056 0.5106 0.10076 0.0
H148 H 0.68574 0.47961 0.12728 0.0
H149 H 0.7182 0.4873 0.18035 0.0
C150 C 0.70688 0.49734 0.15019 0.0
C151 C 0.87483 0.66404 0.26376 0.0
H152 H 0.85316 0.66226 0.27024 0.0
H153 H 0.89211 0.68718 0.27108 0.0
H154 H 0.87728 0.65097 0.31055 0.0
O155 O 0.82152 0.60453 0.29028 0.0
O156 O 0.77512 0.57239 0.30568 0.0
C157 C 0.77794 0.63471 0.20549 0.0
O158 O 0.771 0.53666 0.16942 0.0
O159 O 0.81719 0.5683 0.14991 0.0
Zn160 Zn 0.22184 0.81086 0.38486 0.0
O161 O 0.1778 0.80006 0.36184 0.0
C162 C 0.20345 0.78696 0.53866 0.0
Zn163 Zn 0.20838 0.76341 0.3843 0.0
C164 C 0.15854 0.7735 0.35012 0.0
O165 O 0.16564 0.75387 0.35489 0.0
C166 C 0.27206 0.8007 0.4122 0.0
O167 O 0.21753 0.76314 0.26692 0.0
O168 O 0.22932 0.80942 0.26596 0.0
N169 N 0.19332 0.71944 0.39553 0.0
C170 C 0.20551 0.70242 0.38745 0.0
C171 C 0.16418 0.67662 0.44152 0.0
N172 N 0.1675 0.70316 0.42829 0.0
N173 N 0.18767 0.6755 0.41614 0.0
C174 C 0.25153 0.87744 0.42543 0.0
C175 C 0.24314 0.89462 0.32241 0.0
N176 N 0.23554 0.85468 0.37684 0.0
N177 N 0.23031 0.86547 0.31302 0.0
N178 N 0.2564 0.90268 0.3928 0.0
H179 H 0.24947 0.87484 0.54999 0.0
H180 H 0.28585 0.89459 0.51199 0.0
H181 H 0.2655 0.85526 0.50578 0.0
C182 C 0.26392 0.87529 0.50241 0.0
C183 C 0.23573 0.71279 0.35815 0.0
H184 H 0.24327 0.73239 0.32116 0.0
H185 H 0.2365 0.69538 0.32369 0.0
H186 H 0.25057 0.71802 0.40905 0.0
O187 O 0.25182 0.77415 0.41143 0.0
O188 O 0.26546 0.82063 0.40487 0.0
C189 C 0.22671 0.78703 0.2307 0.0
O190 O 0.21412 0.81117 0.50359 0.0
O191 O 0.19922 0.7643 0.50193 0.0
C192 C 0.42491 0.19522 0.27879 0.0
C193 C 0.44517 0.19133 0.32252 0.0
C194 C 0.42659 0.19634 0.19774 0.0
C195 C 0.44858 0.19362 0.15962 0.0
C196 C 0.46676 0.18658 0.20249 0.0
C197 C 0.46518 0.18557 0.28383 0.0
C198 C 0.45445 0.20039 0.07638 0.0
C199 C 0.45294 0.22276 0.04442 0.0
C200 C 0.45924 0.22989 0.96143 0.0
C201 C 0.44188 0.238 0.91863 0.0
C202 C 0.44403 0.23973 0.83741 0.0
C203 C 0.46375 0.23357 0.79862 0.0
H204 H 0.4956 0.22181 0.9559 0.0
C205 C 0.48319 0.22852 0.8426 0.0
C206 C 0.48103 0.22677 0.92349 0.0
H207 H 0.49902 0.2243 0.81456 0.0
H208 H 0.40878 0.19901 0.30712 0.0
H209 H 0.41151 0.20057 0.16525 0.0
H210 H 0.48347 0.18386 0.17353 0.0
H211 H 0.48075 0.18205 0.31626 0.0
H212 H 0.46183 0.18793 0.04227 0.0
H213 H 0.44556 0.23521 0.07864 0.0
H214 H 0.42537 0.24109 0.94742 0.0
H215 H 0.4291 0.24414 0.80518 0.0
C216 C 0.2859 0.45956 0.408 0.0
C217 C 0.26712 0.43517 0.45248 0.0
C218 C 0.28346 0.45827 0.32674 0.0
C219 C 0.26245 0.43247 0.28966 0.0
C220 C 0.2459 0.40731 0.33372 0.0
C221 C 0.24795 0.40873 0.41491 0.0
C222 C 0.2557 0.43189 0.20624 0.0
C223 C 0.25376 0.45385 0.17339 0.0
C224 C 0.24664 0.45332 0.09014 0.0
C225 C 0.26139 0.47915 0.04743 0.0
C226 C 0.25902 0.47831 0.96627 0.0
C227 C 0.24153 0.45171 0.92748 0.0
H228 H 0.21436 0.40718 0.08419 0.0
C229 C 0.22429 0.42643 0.97072 0.0
C230 C 0.22689 0.4272 0.05188 0.0
H231 H 0.21048 0.40573 0.94173 0.0
H232 H 0.30095 0.48011 0.43596 0.0
H233 H 0.29709 0.47772 0.29323 0.0
H234 H 0.22993 0.38714 0.30576 0.0
H235 H 0.23355 0.38954 0.44842 0.0
H236 H 0.25033 0.41227 0.17294 0.0
H237 H 0.25914 0.47341 0.20708 0.0
H238 H 0.27619 0.4996 0.07628 0.0
H239 H 0.27181 0.49818 0.93368 0.0
C240 C 0.84849 0.25913 0.15943 0.0
C241 C 0.83549 0.23319 0.11548 0.0
C242 C 0.84643 0.25811 0.24025 0.0
C243 C 0.83116 0.23112 0.27786 0.0
C244 C 0.82084 0.20521 0.23486 0.0
C245 C 0.82291 0.20621 0.15364 0.0
C246 C 0.8241 0.22961 0.36093 0.0
C247 C 0.81674 0.24821 0.39336 0.0
C248 C 0.81093 0.24728 0.47713 0.0
C249 C 0.82299 0.27345 0.51968 0.0
C250 C 0.82319 0.27285 0.6011 0.0
C251 C 0.8112 0.24601 0.63979 0.0
H252 H 0.78559 0.20006 0.4839 0.0
C253 C 0.79641 0.21989 0.597 0.0
C254 C 0.79612 0.22051 0.51602 0.0
H255 H 0.78616 0.19892 0.62588 0.0
H256 H 0.85907 0.28025 0.1313 0.0
H257 H 0.85578 0.27842 0.27294 0.0
H258 H 0.80953 0.18422 0.26357 0.0
H259 H 0.81311 0.18594 0.1209 0.0
H260 H 0.82384 0.21219 0.39501 0.0
H261 H 0.81707 0.26568 0.35938 0.0
H262 H 0.83405 0.29427 0.49009 0.0
H263 H 0.83429 0.29327 0.63328 0.0
C264 C 0.59479 0.83537 0.34395 0.0
C265 C 0.60486 0.81956 0.30081 0.0
C266 C 0.59358 0.83362 0.42484 0.0
C267 C 0.60217 0.81579 0.46344 0.0
C268 C 0.61501 0.80238 0.42115 0.0
C269 C 0.6163 0.80419 0.33978 0.0
C270 C 0.59613 0.80943 0.5468 0.0
C271 C 0.57142 0.80589 0.57912 0.0
C272 C 0.56575 0.80017 0.66286 0.0
C273 C 0.55325 0.81405 0.70454 0.0
C274 C 0.55285 0.81338 0.78607 0.0
C275 C 0.5649 0.79873 0.82575 0.0
H276 H 0.58327 0.77088 0.67125 0.0
C277 C 0.57457 0.78237 0.78357 0.0
C278 C 0.57482 0.78292 0.70255 0.0
H279 H 0.58315 0.77017 0.81325 0.0
H280 H 0.5866 0.84805 0.31506 0.0
H281 H 0.58488 0.8453 0.45678 0.0
H282 H 0.62228 0.78902 0.45054 0.0
H283 H 0.62444 0.79207 0.30748 0.0
H284 H 0.61173 0.80642 0.58111 0.0
H285 H 0.55586 0.80893 0.54476 0.0
H286 H 0.54564 0.827 0.67438 0.0
H287 H 0.54497 0.82585 0.8178 0.0
C288 C 0.78395 0.56216 0.46011 0.0
C289 C 0.8047 0.58632 0.41806 0.0
C290 C 0.78368 0.56314 0.54117 0.0
C291 C 0.80398 0.58846 0.5811 0.0
C292 C 0.82655 0.61141 0.53968 0.0
C293 C 0.82689 0.6104 0.45815 0.0
C294 C 0.80068 0.5922 0.66486 0.0
C295 C 0.77422 0.58196 0.69733 0.0
C296 C 0.77093 0.58612 0.78084 0.0
C297 C 0.74837 0.56342 0.82291 0.0
C298 C 0.7479 0.56502 0.90434 0.0
C299 C 0.76997 0.58945 0.94365 0.0
H300 H 0.80789 0.63015 0.78812 0.0
C301 C 0.7907 0.61334 0.90074 0.0
C302 C 0.79111 0.61176 0.81979 0.0
H303 H 0.80749 0.63274 0.92991 0.0
H304 H 0.76707 0.54301 0.43026 0.0
H305 H 0.76687 0.54457 0.57223 0.0
H306 H 0.84271 0.63088 0.56996 0.0
H307 H 0.84322 0.62919 0.42672 0.0
H308 H 0.8204 0.60498 0.69924 0.0
H309 H 0.75449 0.56918 0.66302 0.0
H310 H 0.73228 0.54372 0.79333 0.0
H311 H 0.73156 0.54644 0.93645 0.0
C312 C 0.22067 0.76299 0.10175 0.0
C313 C 0.23254 0.78859 0.14697 0.0
C314 C 0.22148 0.76476 0.02066 0.0
C315 C 0.23432 0.79215 -0.0155 0.0
C316 C 0.24892 0.81762 0.02946 0.0
C317 C 0.24783 0.81589 0.11056 0.0
C318 C 0.22999 0.79469 0.90116 0.0
C319 C 0.20372 0.77818 0.86793 0.0
C320 C 0.19897 0.78118 0.7851 0.0
C321 C 0.18304 0.75595 0.73995 0.0
C322 C 0.18296 0.75797 0.65895 0.0
C323 C 0.19845 0.78532 0.62288 0.0
H324 H 0.22357 0.82852 0.78419 0.0
C325 C 0.21174 0.81077 0.66874 0.0
C326 C 0.21206 0.80871 0.74967 0.0
H327 H 0.22341 0.83212 0.64224 0.0
H328 H 0.20921 0.74169 0.1287 0.0
H329 H 0.21089 0.74482 -0.01365 0.0
H330 H 0.2593 0.83887 0.00204 0.0
H331 H 0.25774 0.83592 0.14456 0.0
H332 H 0.24789 0.81183 0.86843 0.0
H333 H 0.18583 0.76108 0.90081 0.0
H334 H 0.17239 0.73462 0.76687 0.0
H335 H 0.17202 0.73805 0.62459 0.0
C336 C 0.3961 0.10437 0.59638 0.0
C337 C 0.38765 0.12574 0.59681 0.0
C338 C 0.37555 0.07499 0.5844 0.0
C339 C 0.34598 0.06616 0.57302 0.0
C340 C 0.33712 0.0871 0.57929 0.0
C341 C 0.3578 0.11669 0.59037 0.0
C342 C 0.32444 0.03547 0.55164 0.0
C343 C 0.33135 0.02008 0.50154 0.0
C344 C 0.31058 0.98994 0.47427 0.0
C345 C 0.31446 0.9813 0.39948 0.0
C346 C 0.29631 0.95283 0.37253 0.0
C347 C 0.27437 0.93213 0.4206 0.0
H348 H 0.28494 0.97512 0.58055 0.0
C349 C 0.27034 0.94059 0.49551 0.0
C350 C 0.2882 0.96932 0.52209 0.0
H351 H 0.25333 0.92498 0.53317 0.0
H352 H 0.41883 0.11041 0.60191 0.0
H353 H 0.38296 0.05926 0.58241 0.0
H354 H 0.31438 0.08077 0.57176 0.0
H355 H 0.35052 0.13253 0.59071 0.0
H356 H 0.30216 0.02635 0.57212 0.0
H357 H 0.3529 0.03069 0.47522 0.0
H358 H 0.33163 0.99668 0.36164 0.0
H359 H 0.29978 0.94672 0.31465 0.0
C360 C 0.34131 0.25817 0.61767 0.0
C361 C 0.36828 0.27163 0.57905 0.0
C362 C 0.32942 0.2749 0.64651 0.0
C363 C 0.34432 0.30544 0.6366 0.0
C364 C 0.37137 0.31864 0.59823 0.0
C365 C 0.38309 0.30196 0.56949 0.0
C366 C 0.33307 0.32473 0.6649 0.0
C367 C 0.30535 0.31562 0.68705 0.0
C368 C 0.29491 0.33643 0.70681 0.0
C369 C 0.26551 0.32805 0.69376 0.0
C370 C 0.2558 0.34817 0.70314 0.0
C371 C 0.27532 0.3771 0.72607 0.0
H372 H 0.33633 0.37175 0.74994 0.0
C373 C 0.30423 0.38487 0.74448 0.0
C374 C 0.31386 0.36476 0.73554 0.0
H375 H 0.31974 0.40683 0.76354 0.0
H376 H 0.32933 0.23472 0.62459 0.0
H377 H 0.30876 0.26379 0.67663 0.0
H378 H 0.38347 0.34203 0.58975 0.0
H379 H 0.40392 0.31278 0.5399 0.0
H380 H 0.3483 0.34801 0.66223 0.0
H381 H 0.28917 0.29262 0.68415 0.0
H382 H 0.25028 0.30627 0.67285 0.0
H383 H 0.23335 0.34141 0.68872 0.0
C384 C 0.92511 0.25015 0.81736 0.0
C385 C 0.91412 0.2684 0.84011 0.0
C386 C 0.95519 0.26168 0.80592 0.0
C387 C 0.97481 0.29171 0.81732 0.0
C388 C 0.9637 0.30965 0.84133 0.0
C389 C 0.93386 0.29826 0.85214 0.0
C390 C 1.00694 0.30555 0.806 0.0
C391 C 1.02002 0.29442 0.76107 0.0
C392 C 0.05187 0.31095 0.74342 0.0
C393 C 0.06171 0.30588 0.67195 0.0
C394 C 0.09096 0.32287 0.65012 0.0
C395 C 0.11119 0.34498 0.69988 0.0
H396 H 0.06594 0.33639 0.8513 0.0
C397 C 0.10165 0.34929 0.7728 0.0
C398 C 0.07239 0.33233 0.79468 0.0
H399 H 0.11647 0.36658 0.81165 0.0
H400 H 0.91051 0.22702 0.80808 0.0
H401 H 0.9629 0.24696 0.78916 0.0
H402 H 0.97819 0.33278 0.85107 0.0
H403 H 0.92631 0.31301 0.87022 0.0
H404 H 1.02013 0.32721 0.831 0.0
H405 H 1.00681 0.27395 0.73012 0.0
H406 H 0.04652 0.28945 0.63151 0.0
H407 H 0.09774 0.31918 0.59347 0.0
C408 C 0.67624 0.9108 0.01046 0.0
C409 C 0.64581 0.8988 0.01444 0.0
C410 C 0.69422 0.93978 -0.01338 0.0
C411 C 0.682 0.95713 0.96547 0.0
C412 C 0.65168 0.94506 0.96961 0.0
C413 C 0.63385 0.91643 -0.00552 0.0
C414 C 0.69973 0.98732 0.93515 0.0
C415 C 0.72752 1.00583 0.95678 0.0
C416 C 0.74381 0.03652 0.92884 0.0
C417 C 0.76412 0.05845 -0.02121 0.0
C418 C 0.77894 0.08762 0.95504 0.0
C419 C 0.77405 0.09536 0.88039 0.0
H420 H 0.72467 0.02781 0.81233 0.0
C421 C 0.75464 0.07335 0.82921 0.0
C422 C 0.73951 0.04424 0.85325 0.0
H423 H 0.75085 0.07882 0.77104 0.0
H424 H 0.68611 0.89775 0.02508 0.0
H425 H 0.71749 0.94823 -0.01735 0.0
H426 H 0.64166 0.95784 0.95334 0.0
H427 H 0.61052 0.90793 -0.00372 0.0
H428 H 0.68865 0.99523 0.89742 0.0
H429 H 0.73786 0.99913 0.00057 0.0
H430 H 0.76815 0.05307 0.03685 0.0
H431 H 0.79441 0.10413 -0.0053 0.0
C432 C 0.7877 0.68537 0.1763 0.0
C433 C 0.76998 0.65786 0.21 0.0
C434 C 0.77771 0.70536 0.16989 0.0
C435 C 0.74986 0.69822 0.19766 0.0
C436 C 0.7331 0.67149 0.23576 0.0
C437 C 0.74289 0.65145 0.24126 0.0
C438 C 0.73686 0.71725 0.18592 0.0
C439 C 0.74343 0.73562 0.12503 0.0
C440 C 0.72618 0.75001 0.10478 0.0
C441 C 0.72505 0.75721 0.02631 0.0
C442 C 0.70666 0.76777 0.00324 0.0
C443 C 0.68935 0.77189 0.05831 0.0
H444 H 0.7106 0.75093 0.22194 0.0
C445 C 0.69143 0.76597 0.1374 0.0
C446 C 0.7098 0.75538 0.16056 0.0
H447 H 0.67785 0.76818 0.181 0.0
H448 H 0.80874 0.69097 0.15189 0.0
H449 H 0.79164 0.72612 0.14228 0.0
H450 H 0.71175 0.66551 0.25856 0.0
H451 H 0.7288 0.63055 0.26817 0.0
H452 H 0.71876 0.71324 0.22364 0.0
H453 H 0.75977 0.73763 0.08327 0.0
H454 H 0.73753 0.75352 -0.01794 0.0
H455 H 0.70535 0.77202 0.94189 0.0
C456 C 0.94245 0.68185 0.24257 0.0
C457 C 0.93237 0.68107 0.16582 0.0
C458 C 0.97233 0.69749 0.25999 0.0
C459 C 0.99283 0.71213 0.20061 0.0
C460 C 0.98279 0.71168 0.12435 0.0
C461 C 0.95295 0.69657 0.1073 0.0
C462 C 0.02464 0.72502 0.21446 0.0
C463 C 0.03795 0.73764 0.28247 0.0
C464 C 0.06925 0.74755 0.29663 0.0
C465 C 0.0867 0.77325 0.33948 0.0
C466 C 0.11602 0.78225 0.35526 0.0
C467 C 0.12807 0.76514 0.33061 0.0
H468 H 0.06841 0.71043 0.23942 0.0
C469 C 0.11047 0.73927 0.28847 0.0
C470 C 0.08147 0.73069 0.27109 0.0
H471 H 0.11914 0.72562 0.26875 0.0
H472 H 0.92759 0.6691 0.28844 0.0
H473 H 0.97941 0.69663 0.31892 0.0
H474 H 0.99813 0.72252 0.07737 0.0
H475 H 0.94594 0.69618 0.04752 0.0
H476 H 0.03763 0.7242 0.16631 0.0
H477 H 0.02585 0.74121 0.32834 0.0
H478 H 0.07768 0.78645 0.3604 0.0
H479 H 0.12904 0.80218 0.38833 0.0
C480 C 0.51457 0.31755 0.46464 0.0
C481 C 0.52173 0.29672 0.49072 0.0
C482 C 0.53603 0.34413 0.43379 0.0
C483 C 0.56517 0.35044 0.42814 0.0
C484 C 0.57236 0.3299 0.45618 0.0
C485 C 0.55093 0.30333 0.48675 0.0
C486 C 0.58889 0.37827 0.39547 0.0
C487 C 0.58444 0.39586 0.34741 0.0
C488 C 0.60858 0.42381 0.31675 0.0
C489 C 0.60295 0.4464 0.29854 0.0
C490 C 0.62545 0.47352 0.27382 0.0
C491 C 0.65392 0.47842 0.26507 0.0
H492 H 0.64207 0.41138 0.31674 0.0
C493 C 0.6594 0.45554 0.28054 0.0
C494 C 0.63697 0.42846 0.30566 0.0
H495 H 0.68125 0.45889 0.27638 0.0
H496 H 0.49231 0.31323 0.4673 0.0
H497 H 0.5296 0.35964 0.4154 0.0
H498 H 0.59463 0.33424 0.45347 0.0
H499 H 0.55726 0.28786 0.50661 0.0
H500 H 0.61105 0.38425 0.41164 0.0
H501 H 0.5624 0.39032 0.3315 0.0
H502 H 0.58127 0.44336 0.30581 0.0
H503 H 0.62078 0.49092 0.26281 0.0
C504 C 0.21228 0.50568 0.58673 0.0
C505 C 0.23739 0.51182 0.62981 0.0
C506 C 0.2075 0.52829 0.56309 0.0
C507 C 0.22759 0.55743 0.58311 0.0
C508 C 0.25229 0.56341 0.6276 0.0
C509 C 0.25734 0.54093 0.64988 0.0
C510 C 0.22281 0.58194 0.56191 0.0
C511 C 0.20942 0.5826 0.4954 0.0
C512 C 0.20477 0.60736 0.4756 0.0
C513 C 0.20404 0.61446 0.39673 0.0
C514 C 0.19909 0.63731 0.37682 0.0
C515 C 0.19432 0.65307 0.43549 0.0
H516 H 0.19943 0.61788 0.59535 0.0
C517 C 0.19463 0.64577 0.51412 0.0
C518 C 0.19991 0.62324 0.53413 0.0
H519 H 0.19067 0.65753 0.56005 0.0
H520 H 0.19651 0.48345 0.57042 0.0
H521 H 0.18786 0.52287 0.53047 0.0
H522 H 0.26793 0.58562 0.64451 0.0
H523 H 0.27682 0.54637 0.68342 0.0
H524 H 0.23208 0.6008 0.60078 0.0
H525 H 0.20279 0.56515 0.45256 0.0
H526 H 0.20738 0.60235 0.35049 0.0
H527 H 0.19838 0.64232 0.31579 0.0
C528 C 0.71477 0.18861 0.85456 0.0
C529 C 0.735 0.21481 0.8917 0.0
C530 C 0.68695 0.18352 0.83433 0.0
C531 C 0.67876 0.20453 0.85106 0.0
C532 C 0.69816 0.22961 0.89358 0.0
C533 C 0.72604 0.23481 0.91324 0.0
C534 C 0.65068 0.20151 0.82309 0.0
C535 C 0.6375 0.18742 0.75609 0.0
C536 C 0.61121 0.18674 0.72181 0.0
C537 C 0.60508 0.17991 0.64192 0.0
C538 C 0.58079 0.17911 0.60685 0.0
C539 C 0.56205 0.1852 0.65076 0.0
H540 H 0.59515 0.19641 0.82853 0.0
C541 C 0.56767 0.19135 0.73105 0.0
C542 C 0.59198 0.19216 0.7663 0.0
H543 H 0.55284 0.19474 0.76714 0.0
H544 H 0.72089 0.17264 0.83754 0.0
H545 H 0.67218 0.16339 0.80429 0.0
H546 H 0.69226 0.24592 0.90853 0.0
H547 H 0.74092 0.25499 0.94291 0.0
H548 H 0.64239 0.21367 0.8547 0.0
H549 H 0.64755 0.17758 0.72138 0.0
H550 H 0.61926 0.17534 0.60621 0.0
H551 H 0.57671 0.17393 0.5451 0.0
C552 C 0.52943 0.70096 0.0344 0.0
C553 C 0.52215 0.72025 0.07162 0.0
C554 C 0.50763 0.67334 0.00946 0.0
C555 C 0.47801 0.66435 0.02132 0.0
C556 C 0.4709 0.68265 0.06418 0.0
C557 C 0.4927 0.71037 0.08868 0.0
C558 C 0.45411 0.63662 -0.01238 0.0
C559 C 0.45693 0.62516 0.91961 0.0
C560 C 0.43264 0.59926 0.87969 0.0
C561 C 0.43494 0.59533 0.79911 0.0
C562 C 0.41264 0.57154 0.75885 0.0
C563 C 0.38746 0.5511 0.79818 0.0
H564 H 0.40554 0.57979 -0.0179 0.0
C565 C 0.38546 0.55445 0.87921 0.0
C566 C 0.40774 0.57829 0.91959 0.0
H567 H 0.36696 0.5383 0.91177 0.0
H568 H 0.5519 0.7077 0.02081 0.0
H569 H 0.51405 0.65938 -0.02058 0.0
H570 H 0.4483 0.67607 0.07555 0.0
H571 H 0.48635 0.72441 0.11838 0.0
H572 H 0.43297 0.62716 0.01573 0.0
H573 H 0.47747 0.63645 0.88837 0.0
H574 H 0.45397 0.6109 0.76688 0.0
H575 H 0.41488 0.56924 0.69664 0.0
C576 C 0.82748 0.52304 0.09385 0.0
C577 C 0.80178 0.51767 0.13216 0.0
C578 C 0.83152 0.49989 0.07056 0.0
C579 C 0.80989 0.47081 0.08518 0.0
C580 C 0.7847 0.46562 0.12569 0.0
C581 C 0.78061 0.48871 0.14857 0.0
C582 C 0.8129 0.44533 0.06128 0.0
C583 C 0.83031 0.44591 0.00288 0.0
C584 C 0.83325 0.42027 -0.01975 0.0
C585 C 0.85925 0.42511 0.9451 0.0
C586 C 0.86339 0.4017 0.92601 0.0
C587 C 0.84138 0.3729 0.9401 0.0
H588 H 0.79018 0.38656 0.01743 0.0
C589 C 0.815 0.36791 0.9731 0.0
C590 C 0.81088 0.39132 -0.00738 0.0
H591 H 0.79794 0.34599 -0.01365 0.0
H592 H 0.84432 0.54513 0.08081 0.0
H593 H 0.85173 0.50499 0.04197 0.0
H594 H 0.76786 0.44353 0.13885 0.0
H595 H 0.76082 0.48381 0.17918 0.0
H596 H 0.79978 0.42518 0.09287 0.0
H597 H 0.84364 0.46602 0.97138 0.0
H598 H 0.87674 0.44711 0.93422 0.0
H599 H 0.88397 0.40606 0.90102 0.0
C600 C 0.46444 0.84618 0.17997 0.0
C601 C 0.47227 0.82444 0.17509 0.0
C602 C 0.43858 0.84067 0.21678 0.0
C603 C 0.42003 0.81326 0.25019 0.0
C604 C 0.4276 0.7914 0.24402 0.0
C605 C 0.45358 0.79701 0.20787 0.0
C606 C 0.39222 0.80635 0.28945 0.0
C607 C 0.38769 0.82653 0.32535 0.0
C608 C 0.35914 0.81994 0.3595 0.0
C609 C 0.35258 0.84253 0.36575 0.0
C610 C 0.32481 0.83668 0.38869 0.0
C611 C 0.30298 0.80807 0.40644 0.0
H612 H 0.34263 0.77398 0.38332 0.0
C613 C 0.31032 0.78593 0.40666 0.0
C614 C 0.33808 0.79176 0.38356 0.0
H615 H 0.29428 0.76379 0.42155 0.0
H616 H 0.47852 0.86756 0.15563 0.0
H617 H 0.43312 0.85784 0.21811 0.0
H618 H 0.41372 0.77008 0.2691 0.0
H619 H 0.45945 0.78017 0.20839 0.0
H620 H 0.37502 0.78368 0.28833 0.0
H621 H 0.40505 0.84915 0.32641 0.0
H622 H 0.36852 0.86456 0.34911 0.0
H623 H 0.32004 0.85436 0.38834 0.0
loop_
_geom_bond_atom_site_label_1
_geom_bond_atom_site_label_2
_geom_bond_distance
_geom_bond_site_symmetry_2
_ccdc_geom_bond_type
Zn0 O1 2.055 . S
Zn0 O8 2.046 . S
Zn0 N16 2.036 . S
Zn0 O28 2.053 . S
Zn0 O30 2.066 . S
O1 Zn0 2.055 . S
O1 C4 1.259 . S
C2 O30 1.256 . S
C2 O31 1.244 . S
Zn3 O5 2.046 . S
Zn3 O7 2.055 . S
Zn3 N9 2.036 . S
Zn3 O27 2.066 . S
Zn3 O31 2.053 . S
C4 O1 1.259 . S
C4 O5 1.254 . S
O5 Zn3 2.046 . S
O5 C4 1.254 . S
C6 O27 1.256 . S
C6 O28 1.244 . S
O7 Zn3 2.055 . S
O7 C29 1.259 . S
O8 Zn0 2.046 . S
O8 C29 1.254 . S
N9 Zn3 2.036 . S
N9 C10 1.298 . S
N9 N12 1.398 . S
C10 N9 1.298 . S
C10 N13 1.367 . S
C10 C23 1.481 . S
C11 N12 1.299 . S
C11 N13 1.379 . S
N12 N9 1.398 . S
N12 C11 1.299 . S
N13 C10 1.367 . S
N13 C11 1.379 . S
C14 N16 1.298 . S
C14 N18 1.367 . S
C14 C22 1.481 . S
C15 N17 1.299 . S
C15 N18 1.379 . S
N16 Zn0 2.036 . S
N16 C14 1.298 . S
N16 N17 1.398 . S
N17 C15 1.299 . S
N17 N16 1.398 . S
N18 C14 1.367 . S
N18 C15 1.379 . S
H19 C22 0.980 . S
H20 C22 0.981 . S
H21 C22 0.981 . S
C22 C14 1.481 . S
C22 H19 0.980 . S
C22 H20 0.981 . S
C22 H21 0.981 . S
C23 C10 1.481 . S
C23 H24 0.980 . S
C23 H25 0.981 . S
C23 H26 0.981 . S
H24 C23 0.980 . S
H25 C23 0.981 . S
H26 C23 0.981 . S
O27 Zn3 2.066 . S
O27 C6 1.256 . S
O28 Zn0 2.053 . S
O28 C6 1.244 . S
C29 O7 1.259 . S
C29 O8 1.254 . S
O30 Zn0 2.066 . S
O30 C2 1.256 . S
O31 C2 1.244 . S
O31 Zn3 2.053 . S
Zn32 O33 2.055 . S
Zn32 O40 2.046 . S
Zn32 N48 2.036 . S
Zn32 O60 2.053 . S
Zn32 O62 2.066 . S
O33 Zn32 2.055 . S
O33 C36 1.259 . S
C34 O62 1.256 . S
C34 O63 1.244 . S
Zn35 O37 2.046 . S
Zn35 O39 2.055 . S
Zn35 N41 2.036 . S
Zn35 O59 2.066 . S
Zn35 O63 2.053 . S
C36 O33 1.259 . S
C36 O37 1.254 . S
O37 Zn35 2.046 . S
O37 C36 1.254 . S
C38 O59 1.256 . S
C38 O60 1.244 . S
O39 Zn35 2.055 . S
O39 C61 1.259 . S
O40 Zn32 2.046 . S
O40 C61 1.254 . S
N41 Zn35 2.036 . S
N41 C42 1.298 . S
N41 N44 1.398 . S
C42 N41 1.298 . S
C42 N45 1.367 . S
C42 C55 1.481 . S
C43 N44 1.299 . S
C43 N45 1.379 . S
N44 N41 1.398 . S
N44 C43 1.299 . S
N45 C42 1.367 . S
N45 C43 1.379 . S
C46 N48 1.298 . S
C46 N50 1.367 . S
C46 C54 1.481 . S
C47 N49 1.299 . S
C47 N50 1.379 . S
N48 Zn32 2.036 . S
N48 C46 1.298 . S
N48 N49 1.398 . S
N49 C47 1.299 . S
N49 N48 1.398 . S
N50 C46 1.367 . S
N50 C47 1.379 . S
H51 C54 0.980 . S
H52 C54 0.981 . S
H53 C54 0.981 . S
C54 C46 1.481 . S
C54 H51 0.980 . S
C54 H52 0.981 . S
C54 H53 0.981 . S
C55 C42 1.481 . S
C55 H56 0.980 . S
C55 H57 0.981 . S
C55 H58 0.981 . S
H56 C55 0.980 . S
H57 C55 0.981 . S
H58 C55 0.981 . S
O59 Zn35 2.066 . S
O59 C38 1.256 . S
O60 Zn32 2.053 . S
O60 C38 1.244 . S
C61 O39 1.259 . S
C61 O40 1.254 . S
O62 Zn32 2.066 . S
O62 C34 1.256 . S
O63 C34 1.244 . S
O63 Zn35 2.053 . S
Zn64 O65 2.055 . S
Zn64 O72 2.046 . S
Zn64 N80 2.036 . S
Zn64 O92 2.053 . S
Zn64 O94 2.066 1_556 S
O65 Zn64 2.055 . S
O65 C68 1.259 . S
C66 O94 1.256 . S
C66 O95 1.244 . S
Zn67 O69 2.046 . S
Zn67 O71 2.055 . S
Zn67 N73 2.036 . S
Zn67 O91 2.066 . S
Zn67 O95 2.053 1_556 S
C68 O65 1.259 . S
C68 O69 1.254 . S
O69 Zn67 2.046 . S
O69 C68 1.254 . S
C70 O91 1.256 . S
C70 O92 1.244 . S
O71 Zn67 2.055 . S
O71 C93 1.259 . S
O72 Zn64 2.046 . S
O72 C93 1.254 . S
N73 Zn67 2.036 . S
N73 C74 1.298 . S
N73 N76 1.398 1_556 S
C74 N73 1.298 . S
C74 N77 1.367 . S
C74 C87 1.481 . S
C75 N76 1.299 . S
C75 N77 1.379 1_554 S
N76 N73 1.398 1_554 S
N76 C75 1.299 . S
N77 C74 1.367 . S
N77 C75 1.379 1_556 S
C78 N80 1.298 . S
C78 N82 1.367 . S
C78 C86 1.481 . S
C79 N81 1.299 . S
C79 N82 1.379 . S
N80 Zn64 2.036 . S
N80 C78 1.298 . S
N80 N81 1.398 . S
N81 C79 1.299 . S
N81 N80 1.398 . S
N82 C78 1.367 . S
N82 C79 1.379 . S
H83 C86 0.980 . S
H84 C86 0.981 . S
H85 C86 0.981 1_554 S
C86 C78 1.481 . S
C86 H83 0.980 . S
C86 H84 0.981 . S
C86 H85 0.981 1_556 S
C87 C74 1.481 . S
C87 H88 0.980 . S
C87 H89 0.981 . S
C87 H90 0.981 . S
H88 C87 0.980 . S
H89 C87 0.981 . S
H90 C87 0.981 . S
O91 Zn67 2.066 . S
O91 C70 1.256 . S
O92 Zn64 2.053 . S
O92 C70 1.244 . S
C93 O71 1.259 . S
C93 O72 1.254 . S
O94 Zn64 2.066 1_554 S
O94 C66 1.256 . S
O95 C66 1.244 . S
O95 Zn67 2.053 1_554 S
Zn96 O97 2.055 . S
Zn96 O104 2.046 1_554 S
Zn96 N112 2.036 . S
Zn96 O124 2.053 . S
Zn96 O126 2.066 . S
O97 Zn96 2.055 . S
O97 C100 1.259 . S
C98 O126 1.256 . S
C98 O127 1.244 . S
Zn99 O101 2.046 . S
Zn99 O103 2.055 1_554 S
Zn99 N105 2.036 . S
Zn99 O123 2.066 . S
Zn99 O127 2.053 . S
C100 O97 1.259 . S
C100 O101 1.254 . S
O101 Zn99 2.046 . S
O101 C100 1.254 . S
C102 O123 1.256 . S
C102 O124 1.244 . S
O103 Zn99 2.055 1_556 S
O103 C125 1.259 . S
O104 Zn96 2.046 1_556 S
O104 C125 1.254 . S
N105 Zn99 2.036 . S
N105 C106 1.298 . S
N105 N108 1.398 . S
C106 N105 1.298 . S
C106 N109 1.367 . S
C106 C119 1.481 1_554 S
C107 N108 1.299 . S
C107 N109 1.379 . S
N108 N105 1.398 . S
N108 C107 1.299 . S
N109 C106 1.367 . S
N109 C107 1.379 . S
C110 N112 1.298 . S
C110 N114 1.367 . S
C110 C118 1.481 . S
C111 N113 1.299 . S
C111 N114 1.379 . S
N112 Zn96 2.036 . S
N112 C110 1.298 . S
N112 N113 1.398 . S
N113 C111 1.299 . S
N113 N112 1.398 . S
N114 C110 1.367 . S
N114 C111 1.379 . S
H115 C118 0.980 . S
H116 C118 0.981 . S
H117 C118 0.981 . S
C118 C110 1.481 . S
C118 H115 0.980 . S
C118 H116 0.981 . S
C118 H117 0.981 . S
C119 C106 1.481 1_556 S
C119 H120 0.980 . S
C119 H121 0.981 . S
C119 H122 0.981 . S
H120 C119 0.980 . S
H121 C119 0.981 . S
H122 C119 0.981 . S
O123 Zn99 2.066 . S
O123 C102 1.256 . S
O124 Zn96 2.053 . S
O124 C102 1.244 . S
C125 O103 1.259 . S
C125 O104 1.254 . S
O126 Zn96 2.066 . S
O126 C98 1.256 . S
O127 C98 1.244 . S
O127 Zn99 2.053 . S
Zn128 O129 2.055 . S
Zn128 O136 2.046 . S
Zn128 N144 2.036 . S
Zn128 O156 2.053 . S
Zn128 O158 2.066 . S
O129 Zn128 2.055 . S
O129 C132 1.259 . S
C130 O158 1.256 . S
C130 O159 1.244 . S
Zn131 O133 2.046 . S
Zn131 O135 2.055 . S
Zn131 N137 2.036 . S
Zn131 O155 2.066 . S
Zn131 O159 2.053 . S
C132 O129 1.259 . S
C132 O133 1.254 . S
O133 Zn131 2.046 . S
O133 C132 1.254 . S
C134 O155 1.256 . S
C134 O156 1.244 . S
O135 Zn131 2.055 . S
O135 C157 1.259 . S
O136 Zn128 2.046 . S
O136 C157 1.254 . S
N137 Zn131 2.036 . S
N137 C138 1.298 . S
N137 N140 1.398 . S
C138 N137 1.298 . S
C138 N141 1.367 . S
C138 C151 1.481 . S
C139 N140 1.299 . S
C139 N141 1.379 . S
N140 N137 1.398 . S
N140 C139 1.299 . S
N141 C138 1.367 . S
N141 C139 1.379 . S
C142 N144 1.298 . S
C142 N146 1.367 . S
C142 C150 1.481 . S
C143 N145 1.299 . S
C143 N146 1.379 . S
N144 Zn128 2.036 . S
N144 C142 1.298 . S
N144 N145 1.398 . S
N145 C143 1.299 . S
N145 N144 1.398 . S
N146 C142 1.367 . S
N146 C143 1.379 . S
H147 C150 0.980 . S
H148 C150 0.981 . S
H149 C150 0.981 . S
C150 C142 1.481 . S
C150 H147 0.980 . S
C150 H148 0.981 . S
C150 H149 0.981 . S
C151 C138 1.481 . S
C151 H152 0.980 . S
C151 H153 0.981 . S
C151 H154 0.981 . S
H152 C151 0.980 . S
H153 C151 0.981 . S
H154 C151 0.981 . S
O155 Zn131 2.066 . S
O155 C134 1.256 . S
O156 Zn128 2.053 . S
O156 C134 1.244 . S
C157 O135 1.259 . S
C157 O136 1.254 . S
O158 Zn128 2.066 . S
O158 C130 1.256 . S
O159 C130 1.244 . S
O159 Zn131 2.053 . S
Zn160 O161 2.055 . S
Zn160 O168 2.046 . S
Zn160 N176 2.036 . S
Zn160 O188 2.053 . S
Zn160 O190 2.066 . S
O161 Zn160 2.055 . S
O161 C164 1.259 . S
C162 O190 1.256 . S
C162 O191 1.244 . S
Zn163 O165 2.046 . S
Zn163 O167 2.055 . S
Zn163 N169 2.036 . S
Zn163 O187 2.066 . S
Zn163 O191 2.053 . S
C164 O161 1.259 . S
C164 O165 1.254 . S
O165 Zn163 2.046 . S
O165 C164 1.254 . S
C166 O187 1.256 . S
C166 O188 1.244 . S
O167 Zn163 2.055 . S
O167 C189 1.259 . S
O168 Zn160 2.046 . S
O168 C189 1.254 . S
N169 Zn163 2.036 . S
N169 C170 1.298 . S
N169 N172 1.398 . S
C170 N169 1.298 . S
C170 N173 1.367 . S
C170 C183 1.481 . S
C171 N172 1.299 . S
C171 N173 1.379 . S
N172 N169 1.398 . S
N172 C171 1.299 . S
N173 C170 1.367 . S
N173 C171 1.379 . S
C174 N176 1.298 . S
C174 N178 1.367 . S
C174 C182 1.481 . S
C175 N177 1.299 . S
C175 N178 1.379 . S
N176 Zn160 2.036 . S
N176 C174 1.298 . S
N176 N177 1.398 . S
N177 C175 1.299 . S
N177 N176 1.398 . S
N178 C174 1.367 . S
N178 C175 1.379 . S
H179 C182 0.980 . S
H180 C182 0.981 . S
H181 C182 0.981 . S
C182 C174 1.481 . S
C182 H179 0.980 . S
C182 H180 0.981 . S
C182 H181 0.981 . S
C183 C170 1.481 . S
C183 H184 0.980 . S
C183 H185 0.981 . S
C183 H186 0.981 . S
H184 C183 0.980 . S
H185 C183 0.981 . S
H186 C183 0.981 . S
O187 Zn163 2.066 . S
O187 C166 1.256 . S
O188 Zn160 2.053 . S
O188 C166 1.244 . S
C189 O167 1.259 . S
C189 O168 1.254 . S
O190 Zn160 2.066 . S
O190 C162 1.256 . S
O191 C162 1.244 . S
O191 Zn163 2.053 . S
C192 C193 1.386 . S
C192 C194 1.383 . S
C192 H208 0.951 . S
C193 C192 1.386 . S
C193 C197 1.383 . S
C194 C192 1.383 . S
C194 C195 1.402 . S
C194 H209 0.951 . S
C195 C194 1.402 . S
C195 C196 1.375 . S
C195 C198 1.481 . S
C196 C195 1.375 . S
C196 C197 1.367 . S
C196 H210 0.951 . S
C197 C193 1.383 . S
C197 C196 1.367 . S
C197 H211 0.950 . S
C198 C195 1.481 . S
C198 C199 1.297 . S
C198 H212 0.950 . S
C199 C198 1.297 . S
C199 C200 1.479 1_554 S
C199 H213 0.950 . S
C200 C199 1.479 1_556 S
C200 C201 1.375 . S
C200 C206 1.404 . S
C201 C200 1.375 . S
C201 C202 1.369 . S
C201 H214 0.950 . S
C202 C201 1.369 . S
C202 C203 1.392 . S
C202 H215 0.951 . S
C203 C202 1.392 . S
C203 C205 1.384 . S
H204 C206 0.949 . S
C205 C203 1.384 . S
C205 C206 1.385 . S
C205 H207 0.950 . S
C206 C200 1.404 . S
C206 H204 0.949 . S
C206 C205 1.385 . S
H207 C205 0.950 . S
H208 C192 0.951 . S
H209 C194 0.951 . S
H210 C196 0.951 . S
H211 C197 0.950 . S
H212 C198 0.950 . S
H213 C199 0.950 . S
H214 C201 0.950 . S
H215 C202 0.951 . S
C216 C217 1.386 . S
C216 C218 1.383 . S
C216 H232 0.951 . S
C217 C216 1.386 . S
C217 C221 1.383 . S
C218 C216 1.383 . S
C218 C219 1.402 . S
C218 H233 0.951 . S
C219 C218 1.402 . S
C219 C220 1.375 . S
C219 C222 1.481 . S
C220 C219 1.375 . S
C220 C221 1.367 . S
C220 H234 0.951 . S
C221 C217 1.383 . S
C221 C220 1.367 . S
C221 H235 0.950 . S
C222 C219 1.481 . S
C222 C223 1.297 . S
C222 H236 0.950 . S
C223 C222 1.297 . S
C223 C224 1.479 . S
C223 H237 0.950 . S
C224 C223 1.479 . S
C224 C225 1.375 . S
C224 C230 1.404 . S
C225 C224 1.375 . S
C225 C226 1.369 1_554 S
C225 H238 0.950 . S
C226 C225 1.369 1_556 S
C226 C227 1.392 . S
C226 H239 0.951 . S
C227 C226 1.392 . S
C227 C229 1.376 1_556 S
H228 C230 0.949 . S
C229 C227 1.376 1_554 S
C229 C230 1.398 . S
C229 H231 0.945 1_554 S
C230 C224 1.404 . S
C230 H228 0.949 . S
C230 C229 1.398 . S
H231 C229 0.945 1_556 S
H232 C216 0.951 . S
H233 C218 0.951 . S
H234 C220 0.951 . S
H235 C221 0.950 . S
H236 C222 0.950 . S
H237 C223 0.950 . S
H238 C225 0.950 . S
H239 C226 0.951 . S
C240 C241 1.386 . S
C240 C242 1.383 . S
C240 H256 0.951 . S
C241 C240 1.386 . S
C241 C245 1.383 . S
C242 C240 1.383 . S
C242 C243 1.402 . S
C242 H257 0.951 . S
C243 C242 1.402 . S
C243 C244 1.375 . S
C243 C246 1.481 . S
C244 C243 1.375 . S
C244 C245 1.367 . S
C244 H258 0.951 . S
C245 C241 1.383 . S
C245 C244 1.367 . S
C245 H259 0.950 . S
C246 C243 1.481 . S
C246 C247 1.297 . S
C246 H260 0.950 . S
C247 C246 1.297 . S
C247 C248 1.479 . S
C247 H261 0.950 . S
C248 C247 1.479 . S
C248 C249 1.375 . S
C248 C254 1.404 . S
C249 C248 1.375 . S
C249 C250 1.369 . S
C249 H262 0.950 . S
C250 C249 1.369 . S
C250 C251 1.392 . S
C250 H263 0.951 . S
C251 C250 1.392 . S
C251 C253 1.384 . S
H252 C254 0.949 . S
C253 C251 1.384 . S
C253 C254 1.385 . S
C253 H255 0.950 . S
C254 C248 1.404 . S
C254 H252 0.949 . S
C254 C253 1.385 . S
H255 C253 0.950 . S
H256 C240 0.951 . S
H257 C242 0.951 . S
H258 C244 0.951 . S
H259 C245 0.950 . S
H260 C246 0.950 . S
H261 C247 0.950 . S
H262 C249 0.950 . S
H263 C250 0.951 . S
C264 C265 1.386 . S
C264 C266 1.383 . S
C264 H280 0.951 . S
C265 C264 1.386 . S
C265 C269 1.383 . S
C266 C264 1.383 . S
C266 C267 1.402 . S
C266 H281 0.951 . S
C267 C266 1.402 . S
C267 C268 1.375 . S
C267 C270 1.481 . S
C268 C267 1.375 . S
C268 C269 1.367 . S
C268 H282 0.951 . S
C269 C265 1.383 . S
C269 C268 1.367 . S
C269 H283 0.950 . S
C270 C267 1.481 . S
C270 C271 1.297 . S
C270 H284 0.950 . S
C271 C270 1.297 . S
C271 C272 1.479 . S
C271 H285 0.950 . S
C272 C271 1.479 . S
C272 C273 1.375 . S
C272 C278 1.404 . S
C273 C272 1.375 . S
C273 C274 1.369 . S
C273 H286 0.950 . S
C274 C273 1.369 . S
C274 C275 1.392 . S
C274 H287 0.951 . S
C275 C274 1.392 . S
C275 C277 1.384 . S
H276 C278 0.949 . S
C277 C275 1.384 . S
C277 C278 1.385 . S
C277 H279 0.950 . S
C278 C272 1.404 . S
C278 H276 0.949 . S
C278 C277 1.385 . S
H279 C277 0.950 . S
H280 C264 0.951 . S
H281 C266 0.951 . S
H282 C268 0.951 . S
H283 C269 0.950 . S
H284 C270 0.950 . S
H285 C271 0.950 . S
H286 C273 0.950 . S
H287 C274 0.951 . S
C288 C289 1.386 . S
C288 C290 1.383 . S
C288 H304 0.951 . S
C289 C288 1.386 . S
C289 C293 1.383 . S
C290 C288 1.383 . S
C290 C291 1.402 . S
C290 H305 0.951 . S
C291 C290 1.402 . S
C291 C292 1.375 . S
C291 C294 1.481 . S
C292 C291 1.375 . S
C292 C293 1.367 . S
C292 H306 0.951 . S
C293 C289 1.383 . S
C293 C292 1.367 . S
C293 H307 0.950 . S
C294 C291 1.481 . S
C294 C295 1.297 . S
C294 H308 0.950 . S
C295 C294 1.297 . S
C295 C296 1.479 . S
C295 H309 0.950 . S
C296 C295 1.479 . S
C296 C297 1.375 . S
C296 C302 1.404 . S
C297 C296 1.375 . S
C297 C298 1.369 . S
C297 H310 0.950 . S
C298 C297 1.369 . S
C298 C299 1.392 1_556 S
C298 H311 0.951 1_556 S
C299 C298 1.392 1_554 S
C299 C301 1.384 1_554 S
H300 C302 0.949 . S
C301 C299 1.384 1_556 S
C301 C302 1.385 . S
C301 H303 0.950 1_556 S
C302 C296 1.404 . S
C302 H300 0.949 . S
C302 C301 1.385 . S
H303 C301 0.950 1_554 S
H304 C288 0.951 . S
H305 C290 0.951 . S
H306 C292 0.951 . S
H307 C293 0.950 . S
H308 C294 0.950 . S
H309 C295 0.950 . S
H310 C297 0.950 . S
H311 C298 0.951 1_554 S
C312 C313 1.386 . S
C312 C314 1.383 . S
C312 H328 0.951 . S
C313 C312 1.386 . S
C313 C317 1.383 . S
C314 C312 1.383 . S
C314 C315 1.402 . S
C314 H329 0.951 . S
C315 C314 1.402 . S
C315 C316 1.375 . S
C315 C318 1.481 1_554 S
C316 C315 1.375 . S
C316 C317 1.367 . S
C316 H330 0.951 . S
C317 C313 1.383 . S
C317 C316 1.367 . S
C317 H331 0.950 . S
C318 C315 1.481 1_556 S
C318 C319 1.297 . S
C318 H332 0.950 . S
C319 C318 1.297 . S
C319 C320 1.479 . S
C319 H333 0.950 . S
C320 C319 1.479 . S
C320 C321 1.375 . S
C320 C326 1.404 . S
C321 C320 1.375 . S
C321 C322 1.369 . S
C321 H334 0.950 . S
C322 C321 1.369 . S
C322 C323 1.392 . S
C322 H335 0.951 . S
C323 C322 1.392 . S
C323 C325 1.384 . S
H324 C326 0.949 . S
C325 C323 1.384 . S
C325 C326 1.385 . S
C325 H327 0.950 . S
C326 C320 1.404 . S
C326 H324 0.949 . S
C326 C325 1.385 . S
H327 C325 0.950 . S
H328 C312 0.951 . S
H329 C314 0.951 . S
H330 C316 0.951 . S
H331 C317 0.950 . S
H332 C318 0.950 . S
H333 C319 0.950 . S
H334 C321 0.950 . S
H335 C322 0.951 . S
C336 C337 1.386 . S
C336 C338 1.383 . S
C336 H352 0.951 . S
C337 C336 1.386 . S
C337 C341 1.383 . S
C338 C336 1.383 . S
C338 C339 1.402 . S
C338 H353 0.951 . S
C339 C338 1.402 . S
C339 C340 1.375 . S
C339 C342 1.481 . S
C340 C339 1.375 . S
C340 C341 1.367 . S
C340 H354 0.951 . S
C341 C337 1.383 . S
C341 C340 1.367 . S
C341 H355 0.950 . S
C342 C339 1.481 . S
C342 C343 1.297 . S
C342 H356 0.950 . S
C343 C342 1.297 . S
C343 C344 1.479 1_545 S
C343 H357 0.950 . S
C344 C343 1.479 1_565 S
C344 C345 1.375 . S
C344 C350 1.404 . S
C345 C344 1.375 . S
C345 C346 1.369 . S
C345 H358 0.950 . S
C346 C345 1.369 . S
C346 C347 1.392 . S
C346 H359 0.951 . S
C347 C346 1.392 . S
C347 C349 1.384 . S
H348 C350 0.949 . S
C349 C347 1.384 . S
C349 C350 1.385 . S
C349 H351 0.950 . S
C350 C344 1.404 . S
C350 H348 0.949 . S
C350 C349 1.385 . S
H351 C349 0.950 . S
H352 C336 0.951 . S
H353 C338 0.951 . S
H354 C340 0.951 . S
H355 C341 0.950 . S
H356 C342 0.950 . S
H357 C343 0.950 . S
H358 C345 0.950 . S
H359 C346 0.951 . S
C360 C361 1.386 . S
C360 C362 1.383 . S
C360 H376 0.951 . S
C361 C360 1.386 . S
C361 C365 1.383 . S
C362 C360 1.383 . S
C362 C363 1.402 . S
C362 H377 0.951 . S
C363 C362 1.402 . S
C363 C364 1.375 . S
C363 C366 1.481 . S
C364 C363 1.375 . S
C364 C365 1.367 . S
C364 H378 0.951 . S
C365 C361 1.383 . S
C365 C364 1.367 . S
C365 H379 0.950 . S
C366 C363 1.481 . S
C366 C367 1.297 . S
C366 H380 0.950 . S
C367 C366 1.297 . S
C367 C368 1.479 . S
C367 H381 0.950 . S
C368 C367 1.479 . S
C368 C369 1.375 . S
C368 C374 1.404 . S
C369 C368 1.375 . S
C369 C370 1.369 . S
C369 H382 0.950 . S
C370 C369 1.369 . S
C370 C371 1.392 . S
C370 H383 0.951 . S
C371 C370 1.392 . S
C371 C373 1.384 . S
H372 C374 0.949 . S
C373 C371 1.384 . S
C373 C374 1.385 . S
C373 H375 0.950 . S
C374 C368 1.404 . S
C374 H372 0.949 . S
C374 C373 1.385 . S
H375 C373 0.950 . S
H376 C360 0.951 . S
H377 C362 0.951 . S
H378 C364 0.951 . S
H379 C365 0.950 . S
H380 C366 0.950 . S
H381 C367 0.950 . S
H382 C369 0.950 . S
H383 C370 0.951 . S
C384 C385 1.386 . S
C384 C386 1.383 . S
C384 H400 0.951 . S
C385 C384 1.386 . S
C385 C389 1.383 . S
C386 C384 1.383 . S
C386 C387 1.402 . S
C386 H401 0.951 . S
C387 C386 1.402 . S
C387 C388 1.375 . S
C387 C390 1.481 . S
C388 C387 1.375 . S
C388 C389 1.367 . S
C388 H402 0.951 . S
C389 C385 1.383 . S
C389 C388 1.367 . S
C389 H403 0.950 1_556 S
C390 C387 1.481 . S
C390 C391 1.297 . S
C390 H404 0.950 . S
C391 C390 1.297 . S
C391 C392 1.479 1_655 S
C391 H405 0.950 . S
C392 C391 1.479 1_455 S
C392 C393 1.375 . S
C392 C398 1.404 . S
C393 C392 1.375 . S
C393 C394 1.369 . S
C393 H406 0.950 . S
C394 C393 1.369 . S
C394 C395 1.392 . S
C394 H407 0.951 . S
C395 C394 1.392 . S
C395 C397 1.384 . S
H396 C398 0.949 . S
C397 C395 1.384 . S
C397 C398 1.385 . S
C397 H399 0.950 . S
C398 C392 1.404 . S
C398 H396 0.949 . S
C398 C397 1.385 . S
H399 C397 0.950 . S
H400 C384 0.951 . S
H401 C386 0.951 . S
H402 C388 0.951 . S
H403 C389 0.950 1_554 S
H404 C390 0.950 . S
H405 C391 0.950 . S
H406 C393 0.950 . S
H407 C394 0.951 . S
C408 C409 1.386 . S
C408 C410 1.383 . S
C408 H424 0.951 . S
C409 C408 1.386 . S
C409 C413 1.383 . S
C410 C408 1.383 . S
C410 C411 1.402 . S
C410 H425 0.951 . S
C411 C410 1.402 . S
C411 C412 1.375 . S
C411 C414 1.481 1_554 S
C412 C411 1.375 . S
C412 C413 1.367 . S
C412 H426 0.951 . S
C413 C409 1.383 . S
C413 C412 1.367 . S
C413 H427 0.950 . S
C414 C411 1.481 1_556 S
C414 C415 1.297 . S
C414 H428 0.950 . S
C415 C414 1.297 . S
C415 C416 1.479 1_565 S
C415 H429 0.950 . S
C416 C415 1.479 1_545 S
C416 C417 1.375 . S
C416 C422 1.404 . S
C417 C416 1.375 . S
C417 C418 1.369 . S
C417 H430 0.950 . S
C418 C417 1.369 . S
C418 C419 1.392 . S
C418 H431 0.951 . S
C419 C418 1.392 . S
C419 C421 1.384 . S
H420 C422 0.949 . S
C421 C419 1.384 . S
C421 C422 1.385 . S
C421 H423 0.950 . S
C422 C416 1.404 . S
C422 H420 0.949 . S
C422 C421 1.385 . S
H423 C421 0.950 . S
H424 C408 0.951 . S
H425 C410 0.951 . S
H426 C412 0.951 . S
H427 C413 0.950 . S
H428 C414 0.950 . S
H429 C415 0.950 . S
H430 C417 0.950 . S
H431 C418 0.951 . S
C432 C433 1.386 . S
C432 C434 1.383 . S
C432 H448 0.951 . S
C433 C432 1.386 . S
C433 C437 1.383 . S
C434 C432 1.383 . S
C434 C435 1.402 . S
C434 H449 0.951 . S
C435 C434 1.402 . S
C435 C436 1.375 . S
C435 C438 1.481 . S
C436 C435 1.375 . S
C436 C437 1.367 . S
C436 H450 0.951 . S
C437 C433 1.383 . S
C437 C436 1.367 . S
C437 H451 0.950 . S
C438 C435 1.481 . S
C438 C439 1.297 . S
C438 H452 0.950 . S
C439 C438 1.297 . S
C439 C440 1.479 . S
C439 H453 0.950 . S
C440 C439 1.479 . S
C440 C441 1.375 . S
C440 C446 1.404 . S
C441 C440 1.375 . S
C441 C442 1.369 . S
C441 H454 0.950 . S
C442 C441 1.369 . S
C442 C443 1.392 . S
C442 H455 0.960 . S
C443 C442 1.392 . S
C443 C445 1.384 . S
H444 C446 0.949 . S
C445 C443 1.384 . S
C445 C446 1.385 . S
C445 H447 0.950 . S
C446 C440 1.404 . S
C446 H444 0.949 . S
C446 C445 1.385 . S
H447 C445 0.950 . S
H448 C432 0.951 . S
H449 C434 0.951 . S
H450 C436 0.951 . S
H451 C437 0.950 . S
H452 C438 0.950 . S
H453 C439 0.950 . S
H454 C441 0.950 . S
H455 C442 0.960 . S
C456 C457 1.386 . S
C456 C458 1.383 . S
C456 H472 0.951 . S
C457 C456 1.386 . S
C457 C461 1.383 . S
C458 C456 1.383 . S
C458 C459 1.402 . S
C458 H473 0.951 . S
C459 C458 1.402 . S
C459 C460 1.375 . S
C459 C462 1.481 1_655 S
C460 C459 1.375 . S
C460 C461 1.367 . S
C460 H474 0.951 . S
C461 C457 1.383 . S
C461 C460 1.367 . S
C461 H475 0.950 . S
C462 C459 1.481 1_455 S
C462 C463 1.297 . S
C462 H476 0.950 . S
C463 C462 1.297 . S
C463 C464 1.479 . S
C463 H477 0.950 . S
C464 C463 1.479 . S
C464 C465 1.375 . S
C464 C470 1.404 . S
C465 C464 1.375 . S
C465 C466 1.369 . S
C465 H478 0.950 . S
C466 C465 1.369 . S
C466 C467 1.392 . S
C466 H479 0.951 . S
C467 C466 1.392 . S
C467 C469 1.384 . S
H468 C470 0.949 . S
C469 C467 1.384 . S
C469 C470 1.385 . S
C469 H471 0.950 . S
C470 C464 1.404 . S
C470 H468 0.949 . S
C470 C469 1.385 . S
H471 C469 0.950 . S
H472 C456 0.951 . S
H473 C458 0.951 . S
H474 C460 0.951 . S
H475 C461 0.950 . S
H476 C462 0.950 . S
H477 C463 0.950 . S
H478 C465 0.950 . S
H479 C466 0.951 . S
C480 C481 1.386 . S
C480 C482 1.383 . S
C480 H496 0.951 . S
C481 C480 1.386 . S
C481 C485 1.383 . S
C482 C480 1.383 . S
C482 C483 1.402 . S
C482 H497 0.951 . S
C483 C482 1.402 . S
C483 C484 1.375 . S
C483 C486 1.481 . S
C484 C483 1.375 . S
C484 C485 1.367 . S
C484 H498 0.951 . S
C485 C481 1.383 . S
C485 C484 1.367 . S
C485 H499 0.950 . S
C486 C483 1.481 . S
C486 C487 1.297 . S
C486 H500 0.950 . S
C487 C486 1.297 . S
C487 C488 1.479 . S
C487 H501 0.950 . S
C488 C487 1.479 . S
C488 C489 1.375 . S
C488 C494 1.404 . S
C489 C488 1.375 . S
C489 C490 1.369 . S
C489 H502 0.950 . S
C490 C489 1.369 . S
C490 C491 1.392 . S
C490 H503 0.951 . S
C491 C490 1.392 . S
C491 C493 1.384 . S
H492 C494 0.949 . S
C493 C491 1.384 . S
C493 C494 1.385 . S
C493 H495 0.950 . S
C494 C488 1.404 . S
C494 H492 0.949 . S
C494 C493 1.385 . S
H495 C493 0.950 . S
H496 C480 0.951 . S
H497 C482 0.951 . S
H498 C484 0.951 . S
H499 C485 0.950 . S
H500 C486 0.950 . S
H501 C487 0.950 . S
H502 C489 0.950 . S
H503 C490 0.951 . S
C504 C505 1.386 . S
C504 C506 1.383 . S
C504 H520 0.951 . S
C505 C504 1.386 . S
C505 C509 1.383 . S
C506 C504 1.383 . S
C506 C507 1.402 . S
C506 H521 0.951 . S
C507 C506 1.402 . S
C507 C508 1.375 . S
C507 C510 1.481 . S
C508 C507 1.375 . S
C508 C509 1.367 . S
C508 H522 0.951 . S
C509 C505 1.383 . S
C509 C508 1.367 . S
C509 H523 0.950 . S
C510 C507 1.481 . S
C510 C511 1.297 . S
C510 H524 0.950 . S
C511 C510 1.297 . S
C511 C512 1.479 . S
C511 H525 0.950 . S
C512 C511 1.479 . S
C512 C513 1.375 . S
C512 C518 1.404 . S
C513 C512 1.375 . S
C513 C514 1.369 . S
C513 H526 0.950 . S
C514 C513 1.369 . S
C514 C515 1.392 . S
C514 H527 0.951 . S
C515 C514 1.392 . S
C515 C517 1.384 . S
H516 C518 0.949 . S
C517 C515 1.384 . S
C517 C518 1.385 . S
C517 H519 0.950 . S
C518 C512 1.404 . S
C518 H516 0.949 . S
C518 C517 1.385 . S
H519 C517 0.950 . S
H520 C504 0.951 . S
H521 C506 0.951 . S
H522 C508 0.951 . S
H523 C509 0.950 . S
H524 C510 0.950 . S
H525 C511 0.950 . S
H526 C513 0.950 . S
H527 C514 0.951 . S
C528 C529 1.386 . S
C528 C530 1.383 . S
C528 H544 0.951 . S
C529 C528 1.386 . S
C529 C533 1.383 . S
C530 C528 1.383 . S
C530 C531 1.402 . S
C530 H545 0.951 . S
C531 C530 1.402 . S
C531 C532 1.375 . S
C531 C534 1.481 . S
C532 C531 1.375 . S
C532 C533 1.367 . S
C532 H546 0.951 . S
C533 C529 1.383 . S
C533 C532 1.367 . S
C533 H547 0.950 . S
C534 C531 1.481 . S
C534 C535 1.297 . S
C534 H548 0.950 . S
C535 C534 1.297 . S
C535 C536 1.479 . S
C535 H549 0.950 . S
C536 C535 1.479 . S
C536 C537 1.375 . S
C536 C542 1.404 . S
C537 C536 1.375 . S
C537 C538 1.369 . S
C537 H550 0.950 . S
C538 C537 1.369 . S
C538 C539 1.392 . S
C538 H551 0.951 . S
C539 C538 1.392 . S
C539 C541 1.384 . S
H540 C542 0.949 . S
C541 C539 1.384 . S
C541 C542 1.385 . S
C541 H543 0.950 . S
C542 C536 1.404 . S
C542 H540 0.949 . S
C542 C541 1.385 . S
H543 C541 0.950 . S
H544 C528 0.951 . S
H545 C530 0.951 . S
H546 C532 0.951 . S
H547 C533 0.950 . S
H548 C534 0.950 . S
H549 C535 0.950 . S
H550 C537 0.950 . S
H551 C538 0.951 . S
C552 C553 1.386 1_556 S
C552 C554 1.383 . S
C552 H568 0.951 . S
C553 C552 1.386 1_554 S
C553 C557 1.383 . S
C554 C552 1.383 . S
C554 C555 1.402 . S
C554 H569 0.951 . S
C555 C554 1.402 . S
C555 C556 1.375 1_556 S
C555 C558 1.481 . S
C556 C555 1.375 1_554 S
C556 C557 1.367 . S
C556 H570 0.951 . S
C557 C553 1.383 . S
C557 C556 1.367 . S
C557 H571 0.950 . S
C558 C555 1.481 . S
C558 C559 1.297 . S
C558 H572 0.950 . S
C559 C558 1.297 . S
C559 C560 1.479 . S
C559 H573 0.950 . S
C560 C559 1.479 . S
C560 C561 1.375 . S
C560 C566 1.404 . S
C561 C560 1.375 . S
C561 C562 1.369 . S
C561 H574 0.950 . S
C562 C561 1.369 . S
C562 C563 1.392 . S
C562 H575 0.951 . S
C563 C562 1.392 . S
C563 C565 1.384 . S
H564 C566 0.949 . S
C565 C563 1.384 . S
C565 C566 1.385 . S
C565 H567 0.950 . S
C566 C560 1.404 . S
C566 H564 0.949 . S
C566 C565 1.385 . S
H567 C565 0.950 . S
H568 C552 0.951 . S
H569 C554 0.951 . S
H570 C556 0.951 . S
H571 C557 0.950 . S
H572 C558 0.950 . S
H573 C559 0.950 . S
H574 C561 0.950 . S
H575 C562 0.951 . S
C576 C577 1.386 . S
C576 C578 1.383 . S
C576 H592 0.951 . S
C577 C576 1.386 . S
C577 C581 1.383 . S
C578 C576 1.383 . S
C578 C579 1.402 . S
C578 H593 0.951 . S
C579 C578 1.402 . S
C579 C580 1.375 . S
C579 C582 1.481 . S
C580 C579 1.375 . S
C580 C581 1.367 . S
C580 H594 0.951 . S
C581 C577 1.383 . S
C581 C580 1.367 . S
C581 H595 0.950 . S
C582 C579 1.481 . S
C582 C583 1.297 . S
C582 H596 0.950 . S
C583 C582 1.297 . S
C583 C584 1.479 . S
C583 H597 0.950 . S
C584 C583 1.479 . S
C584 C585 1.375 1_554 S
C584 C590 1.404 . S
C585 C584 1.375 1_556 S
C585 C586 1.369 . S
C585 H598 0.950 . S
C586 C585 1.369 . S
C586 C587 1.392 . S
C586 H599 0.951 . S
C587 C586 1.392 . S
C587 C589 1.384 1_556 S
H588 C590 0.949 . S
C589 C587 1.384 1_554 S
C589 C590 1.385 . S
C589 H591 0.950 . S
C590 C584 1.404 . S
C590 H588 0.949 . S
C590 C589 1.385 . S
H591 C589 0.950 . S
H592 C576 0.951 . S
H593 C578 0.951 . S
H594 C580 0.951 . S
H595 C581 0.950 . S
H596 C582 0.950 . S
H597 C583 0.950 . S
H598 C585 0.950 . S
H599 C586 0.951 . S
C600 C601 1.386 . S
C600 C602 1.383 . S
C600 H616 0.951 . S
C601 C600 1.386 . S
C601 C605 1.383 . S
C602 C600 1.383 . S
C602 C603 1.402 . S
C602 H617 0.951 . S
C603 C602 1.402 . S
C603 C604 1.375 . S
C603 C606 1.481 . S
C604 C603 1.375 . S
C604 C605 1.367 . S
C604 H618 0.951 . S
C605 C601 1.383 . S
C605 C604 1.367 . S
C605 H619 0.950 . S
C606 C603 1.481 . S
C606 C607 1.297 . S
C606 H620 0.950 . S
C607 C606 1.297 . S
C607 C608 1.479 . S
C607 H621 0.950 . S
C608 C607 1.479 . S
C608 C609 1.375 . S
C608 C614 1.404 . S
C609 C608 1.375 . S
C609 C610 1.369 . S
C609 H622 0.950 . S
C610 C609 1.369 . S
C610 C611 1.392 . S
C610 H623 0.951 . S
C611 C610 1.392 . S
C611 C613 1.384 . S
H612 C614 0.949 . S
C613 C611 1.384 . S
C613 C614 1.385 . S
C613 H615 0.950 . S
C614 C608 1.404 . S
C614 H612 0.949 . S
C614 C613 1.385 . S
H615 C613 0.950 . S
H616 C600 0.951 . S
H617 C602 0.951 . S
H618 C604 0.951 . S
H619 C605 0.950 . S
H620 C606 0.950 . S
H621 C607 0.950 . S
H622 C609 0.950 . S
H623 C610 0.951 . S
C193 C29 0.942 . S
C203 C2 0.949 . S
C217 C61 0.908 . S
C227 C34 0.939 . S
C241 C66 0.942 . S
C251 C93 0.955 . S
C265 C98 0.928 . S
C275 C125 0.968 . S
C289 C134 0.950 . S
C299 C132 0.910 . S
C313 C189 0.925 . S
C323 C162 0.958 . S
C337 C4 1.508 . S
C347 N178 1.445 . S
C361 N18 1.435 . S
C371 C36 1.503 . S
C385 C68 1.470 . S
C395 N50 1.404 . S
C409 C100 1.449 . S
C419 N82 1.455 . S
C433 C157 1.491 . S
C443 N114 1.401 . S
C457 N141 1.431 . S
C467 C164 1.490 . S
C481 C6 1.891 . S
C491 N146 1.765 . S
C505 C38 1.913 . S
C515 N173 1.788 . S
C529 C70 1.911 . S
C539 N13 1.764 . S
C553 C102 1.913 . S
C563 N45 1.780 . S
C577 C130 1.911 . S
C587 N77 1.763 . S
C601 N109 1.835 . S
C611 C166 1.893 . S
