# Generated by pormake.
# Topology wnn, (7)-cn, num edge types: 1
# Building blocks:
#     Node 0, Type 0, BuildingBlock: HICVOG_clean_sbu_0, # of connection points: 7
#     Node 1, Type 0, BuildingBlock: HICVOG_clean_sbu_0, # of connection points: 7
#     Node 2, Type 0, BuildingBlock: HICVOG_clean_sbu_0, # of connection points: 7
#     Node 3, Type 0, BuildingBlock: HICVOG_clean_sbu_0, # of connection points: 7
#     Node 4, Type 0, BuildingBlock: HICVOG_clean_sbu_0, # of connection points: 7
#     Node 5, Type 0, BuildingBlock: HICVOG_clean_sbu_0, # of connection points: 7
#     Node 6, Type 0, BuildingBlock: HICVOG_clean_sbu_0, # of connection points: 7
#     Node 7, Type 0, BuildingBlock: HICVOG_clean_sbu_0, # of connection points: 7
#     Node 8, Type 0, BuildingBlock: HICVOG_clean_sbu_0, # of connection points: 7
#     Node 9, Type 0, BuildingBlock: HICVOG_clean_sbu_0, # of connection points: 7
#     Node 10, Type 0, BuildingBlock: HICVOG_clean_sbu_0, # of connection points: 7
#     Node 11, Type 0, BuildingBlock: HICVOG_clean_sbu_0, # of connection points: 7
#     Node 12, Type 0, BuildingBlock: HICVOG_clean_sbu_0, # of connection points: 7
#     Node 13, Type 0, BuildingBlock: HICVOG_clean_sbu_0, # of connection points: 7
#     Node 14, Type 0, BuildingBlock: HICVOG_clean_sbu_0, # of connection points: 7
#     Node 15, Type 0, BuildingBlock: HICVOG_clean_sbu_0, # of connection points: 7
#     Node 16, Type 0, BuildingBlock: HICVOG_clean_sbu_0, # of connection points: 7
#     Node 17, Type 0, BuildingBlock: HICVOG_clean_sbu_0, # of connection points: 7
#     Edge 18, Type (0, 0), BuildingBlock: XIVTED_clean_linker_0, # of connection points: 2
#     Edge 19, Type (0, 0), BuildingBlock: XIVTED_clean_linker_0, # of connection points: 2
#     Edge 20, Type (0, 0), BuildingBlock: XIVTED_clean_linker_0, # of connection points: 2
#     Edge 21, Type (0, 0), BuildingBlock: XIVTED_clean_linker_0, # of connection points: 2
#     Edge 22, Type (0, 0), BuildingBlock: XIVTED_clean_linker_0, # of connection points: 2
#     Edge 23, Type (0, 0), BuildingBlock: XIVTED_clean_linker_0, # of connection points: 2
#     Edge 24, Type (0, 0), BuildingBlock: XIVTED_clean_linker_0, # of connection points: 2
#     Edge 25, Type (0, 0), BuildingBlock: XIVTED_clean_linker_0, # of connection points: 2
#     Edge 26, Type (0, 0), BuildingBlock: XIVTED_clean_linker_0, # of connection points: 2
#     Edge 27, Type (0, 0), BuildingBlock: XIVTED_clean_linker_0, # of connection points: 2
#     Edge 28, Type (0, 0), BuildingBlock: XIVTED_clean_linker_0, # of connection points: 2
#     Edge 29, Type (0, 0), BuildingBlock: XIVTED_clean_linker_0, # of connection points: 2
#     Edge 30, Type (0, 0), BuildingBlock: XIVTED_clean_linker_0, # of connection points: 2
#     Edge 31, Type (0, 0), BuildingBlock: XIVTED_clean_linker_0, # of connection points: 2
#     Edge 32, Type (0, 0), BuildingBlock: XIVTED_clean_linker_0, # of connection points: 2
#     Edge 33, Type (0, 0), BuildingBlock: XIVTED_clean_linker_0, # of connection points: 2
#     Edge 34, Type (0, 0), BuildingBlock: XIVTED_clean_linker_0, # of connection points: 2
#     Edge 35, Type (0, 0), BuildingBlock: XIVTED_clean_linker_0, # of connection points: 2
#     Edge 36, Type (0, 0), BuildingBlock: XIVTED_clean_linker_0, # of connection points: 2
#     Edge 37, Type (0, 0), BuildingBlock: XIVTED_clean_linker_0, # of connection points: 2
#     Edge 38, Type (0, 0), BuildingBlock: XIVTED_clean_linker_0, # of connection points: 2
#     Edge 39, Type (0, 0), BuildingBlock: XIVTED_clean_linker_0, # of connection points: 2
#     Edge 40, Type (0, 0), BuildingBlock: XIVTED_clean_linker_0, # of connection points: 2
#     Edge 41, Type (0, 0), BuildingBlock: XIVTED_clean_linker_0, # of connection points: 2
#     Edge 42, Type (0, 0), BuildingBlock: XIVTED_clean_linker_0, # of connection points: 2
#     Edge 43, Type (0, 0), BuildingBlock: XIVTED_clean_linker_0, # of connection points: 2
#     Edge 44, Type (0, 0), BuildingBlock: XIVTED_clean_linker_0, # of connection points: 2
#     Edge 45, Type (0, 0), BuildingBlock: XIVTED_clean_linker_0, # of connection points: 2
#     Edge 46, Type (0, 0), BuildingBlock: XIVTED_clean_linker_0, # of connection points: 2
#     Edge 47, Type (0, 0), BuildingBlock: XIVTED_clean_linker_0, # of connection points: 2
#     Edge 48, Type (0, 0), BuildingBlock: XIVTED_clean_linker_0, # of connection points: 2
#     Edge 49, Type (0, 0), BuildingBlock: XIVTED_clean_linker_0, # of connection points: 2
#     Edge 50, Type (0, 0), BuildingBlock: XIVTED_clean_linker_0, # of connection points: 2
#     Edge 51, Type (0, 0), BuildingBlock: XIVTED_clean_linker_0, # of connection points: 2
#     Edge 52, Type (0, 0), BuildingBlock: XIVTED_clean_linker_0, # of connection points: 2
#     Edge 53, Type (0, 0), BuildingBlock: XIVTED_clean_linker_0, # of connection points: 2
#     Edge 54, Type (0, 0), BuildingBlock: XIVTED_clean_linker_0, # of connection points: 2
#     Edge 55, Type (0, 0), BuildingBlock: XIVTED_clean_linker_0, # of connection points: 2
#     Edge 56, Type (0, 0), BuildingBlock: XIVTED_clean_linker_0, # of connection points: 2
#     Edge 57, Type (0, 0), BuildingBlock: XIVTED_clean_linker_0, # of connection points: 2
#     Edge 58, Type (0, 0), BuildingBlock: XIVTED_clean_linker_0, # of connection points: 2
#     Edge 59, Type (0, 0), BuildingBlock: XIVTED_clean_linker_0, # of connection points: 2
#     Edge 60, Type (0, 0), BuildingBlock: XIVTED_clean_linker_0, # of connection points: 2
#     Edge 61, Type (0, 0), BuildingBlock: XIVTED_clean_linker_0, # of connection points: 2
#     Edge 62, Type (0, 0), BuildingBlock: XIVTED_clean_linker_0, # of connection points: 2
#     Edge 63, Type (0, 0), BuildingBlock: XIVTED_clean_linker_0, # of connection points: 2
#     Edge 64, Type (0, 0), BuildingBlock: XIVTED_clean_linker_0, # of connection points: 2
#     Edge 65, Type (0, 0), BuildingBlock: XIVTED_clean_linker_0, # of connection points: 2
#     Edge 66, Type (0, 0), BuildingBlock: XIVTED_clean_linker_0, # of connection points: 2
#     Edge 67, Type (0, 0), BuildingBlock: XIVTED_clean_linker_0, # of connection points: 2
#     Edge 68, Type (0, 0), BuildingBlock: XIVTED_clean_linker_0, # of connection points: 2
#     Edge 69, Type (0, 0), BuildingBlock: XIVTED_clean_linker_0, # of connection points: 2
#     Edge 70, Type (0, 0), BuildingBlock: XIVTED_clean_linker_0, # of connection points: 2
#     Edge 71, Type (0, 0), BuildingBlock: XIVTED_clean_linker_0, # of connection points: 2
#     Edge 72, Type (0, 0), BuildingBlock: XIVTED_clean_linker_0, # of connection points: 2
#     Edge 73, Type (0, 0), BuildingBlock: XIVTED_clean_linker_0, # of connection points: 2
#     Edge 74, Type (0, 0), BuildingBlock: XIVTED_clean_linker_0, # of connection points: 2
#     Edge 75, Type (0, 0), BuildingBlock: XIVTED_clean_linker_0, # of connection points: 2
#     Edge 76, Type (0, 0), BuildingBlock: XIVTED_clean_linker_0, # of connection points: 2
#     Edge 77, Type (0, 0), BuildingBlock: XIVTED_clean_linker_0, # of connection points: 2
#     Edge 78, Type (0, 0), BuildingBlock: XIVTED_clean_linker_0, # of connection points: 2
#     Edge 79, Type (0, 0), BuildingBlock: XIVTED_clean_linker_0, # of connection points: 2
#     Edge 80, Type (0, 0), BuildingBlock: XIVTED_clean_linker_0, # of connection points: 2
# Relax obj value: 0.209
# Max RMSD: 0.233
# Mean RMSD: 0.233
data_MOF--net-wnn--node1-HICVOG_clean_sbu_0--edge1-XIVTED_clean_linker_0
_symmetry_space_group_name_H-M    P1
_symmetry_Int_Tables_number       1
_symmetry_cell_setting            triclinic
loop_
_symmetry_equiv_pos_as_xyz
'x, y, z'
_cell_length_a     67.638196
_cell_length_b     67.632837
_cell_length_c     19.715546
_cell_angle_alpha  89.993554
_cell_angle_beta   90.032625
_cell_angle_gamma 119.93268
loop_
_atom_site_label
_atom_site_type_symbol
_atom_site_fract_x
_atom_site_fract_y
_atom_site_fract_z
_atom_type_partial_charge
Zn0 Zn 0.16981 0.22956 0.31766 0.0
C1 C 0.18001 0.19042 0.45295 0.0
N2 N 0.16068 0.18763 0.48105 0.0
C3 C 0.15584 0.20117 0.44268 0.0
N4 N 0.17157 0.21183 0.39324 0.0
N5 N 0.1872 0.20558 0.40117 0.0
C6 C 0.234 0.20416 0.24876 0.0
O7 O 0.24641 0.22602 0.23514 0.0
O8 O 0.15719 0.24984 0.34434 0.0
Zn9 Zn 0.21857 0.22008 0.3647 0.0
N10 N 0.15313 0.20943 0.24305 0.0
C11 C 0.145 0.17619 0.18026 0.0
C12 C 0.15495 0.19042 0.23595 0.0
C13 C 0.14159 0.21479 0.19666 0.0
N14 N 0.13372 0.1816 0.13359 0.0
C15 C 0.13159 0.20051 0.13995 0.0
O16 O 0.2291 0.24936 0.31181 0.0
C17 C 0.22113 0.26039 0.28108 0.0
O18 O 0.19993 0.25348 0.2808 0.0
H19 H 0.16446 0.1866 0.27266 0.0
H20 H 0.14091 0.23033 0.20288 0.0
C21 C 0.26205 0.23647 0.43788 0.0
C22 C 0.27638 0.24685 0.49443 0.0
C23 C 0.24453 0.24229 0.55756 0.0
C24 C 0.23065 0.23298 0.50107 0.0
N25 N 0.2394 0.22983 0.44252 0.0
N26 N 0.26701 0.24925 0.55269 0.0
H27 H 0.269 0.23494 0.39001 0.0
C28 C 0.17081 0.26612 0.38275 0.0
O29 O 0.18731 0.26453 0.41278 0.0
O30 O 0.22185 0.19792 0.30225 0.0
H31 H 0.21318 0.22914 0.50358 0.0
H32 H 0.14644 0.16108 0.1737 0.0
H33 H 0.23767 0.24476 0.60431 0.0
Zn34 Zn 0.80205 0.94671 0.31157 0.0
C35 C 0.84189 0.9965 0.44503 0.0
N36 N 0.84478 0.98003 0.47325 0.0
C37 C 0.83101 0.96154 0.43571 0.0
N38 N 0.8201 0.96646 0.38656 0.0
N39 N 0.82648 0.98838 0.39385 0.0
C40 C 0.83612 0.02221 0.24044 0.0
O41 O 0.82694 1.00003 0.23371 0.0
O42 O 0.78091 0.91433 0.34116 0.0
Zn43 Zn 0.81128 1.00477 0.35947 0.0
N44 N 0.82226 0.94793 0.23963 0.0
C45 C 0.85923 0.96719 0.19012 0.0
C46 C 0.84429 0.96517 0.24164 0.0
C47 C 0.81457 0.93236 0.18826 0.0
N48 N 0.8516 0.95177 0.13881 0.0
C49 C 0.82966 0.93421 0.13606 0.0
O50 O 0.78201 0.98587 0.30745 0.0
C51 C 0.77142 0.96741 0.27401 0.0
O52 O 0.77863 0.95333 0.27127 0.0
H53 H 0.85015 0.9774 0.28266 0.0
H54 H 0.79685 0.91907 0.1878 0.0
C55 C 0.79511 0.03142 0.43619 0.0
C56 C 0.78497 0.03499 0.49396 0.0
C57 C 0.78973 1.00726 0.55392 0.0
C58 C 0.79881 1.00306 0.49622 0.0
N59 N 0.80175 0.01538 0.43868 0.0
N60 N 0.78278 0.02284 0.55121 0.0
H61 H 0.79648 0.04023 0.38908 0.0
C62 C 0.76443 0.9123 0.37736 0.0
O63 O 0.76593 0.9308 0.40411 0.0
O64 O 0.83193 0.02991 0.29415 0.0
H65 H 0.80264 0.9894 0.49701 0.0
H66 H 0.87676 0.98093 0.19075 0.0
H67 H 0.78743 0.99761 0.59989 0.0
Zn68 Zn 0.08439 0.86105 0.31599 0.0
C69 C 0.03491 0.85283 0.44759 0.0
N70 N 0.05147 0.87222 0.4753 0.0
C71 C 0.06995 0.87646 0.43834 0.0
N72 N 0.06494 0.86033 0.39023 0.0
N73 N 0.04297 0.84505 0.39762 0.0
C74 C 1.00479 0.8103 0.23582 0.0
O75 O 0.02463 0.81373 0.21435 0.0
O76 O 0.11746 0.87437 0.34188 0.0
Zn77 Zn 0.02618 0.8133 0.36473 0.0
N78 N 0.08034 0.8762 0.23824 0.0
C79 C 0.0541 0.88093 0.16945 0.0
C80 C 0.05886 0.87236 0.22754 0.0
C81 C 0.09744 0.8885 0.19322 0.0
N82 N 0.07101 0.89297 0.12416 0.0
C83 C 0.0927 0.89716 0.13416 0.0
O84 O 0.0449 0.80172 0.31688 0.0
C85 C 0.06395 0.8092 0.28693 0.0
O86 O 0.07823 0.83037 0.28418 0.0
H87 H 0.04542 0.86229 0.26327 0.0
H88 H 0.11424 0.8908 0.20234 0.0
C89 C 0.99859 0.77101 0.44221 0.0
C90 C 0.99426 0.75738 0.50068 0.0
C91 C 0.02151 0.78989 0.56159 0.0
C92 C 0.02649 0.80302 0.50325 0.0
N93 N 1.01474 0.79362 0.44488 0.0
N94 N 1.0058 0.76743 0.55874 0.0
H95 H 0.99031 0.76352 0.39451 0.0
C96 C 0.12054 0.86134 0.38174 0.0
O97 O 0.10274 0.84513 0.41353 0.0
O98 O 1.00094 0.80898 0.29937 0.0
H99 H 0.0403 0.82042 0.50436 0.0
H100 H 0.03702 0.87783 0.15998 0.0
H101 H 0.03068 0.79728 0.60824 0.0
Zn102 Zn 0.86672 0.79505 0.70448 0.0
C103 C 0.8567 0.8346 0.57043 0.0
N104 N 0.87615 0.83766 0.54261 0.0
C105 C 0.88095 0.82396 0.58039 0.0
N106 N 0.86508 0.81299 0.62929 0.0
N107 N 0.84942 0.81921 0.62153 0.0
C108 C 0.80052 0.82044 0.76777 0.0
O109 O 0.78682 0.79854 0.77828 0.0
O110 O 0.87859 0.7742 0.67706 0.0
Zn111 Zn 0.81793 0.80462 0.65675 0.0
N112 N 0.88401 0.81511 0.77856 0.0
C113 C 0.89373 0.84894 0.84044 0.0
C114 C 0.88308 0.83462 0.78539 0.0
C115 C 0.8953 0.80932 0.82459 0.0
N116 N 0.9048 0.84313 0.88672 0.0
C117 C 0.90603 0.82371 0.88062 0.0
O118 O 0.8074 0.77567 0.711 0.0
C119 C 0.8154 0.7648 0.74245 0.0
O120 O 0.83658 0.77162 0.74243 0.0
H121 H 0.87378 0.8388 0.74891 0.0
H122 H 0.89527 0.7934 0.81854 0.0
C123 C 0.77476 0.78812 0.58173 0.0
C124 C 0.76072 0.77792 0.5245 0.0
C125 C 0.79288 0.78246 0.46306 0.0
C126 C 0.80646 0.79164 0.52017 0.0
N127 N 0.79741 0.7947 0.5782 0.0
N128 N 0.7704 0.77561 0.46677 0.0
H129 H 0.76761 0.78965 0.6292 0.0
C130 C 0.86475 0.75808 0.63861 0.0
O131 O 0.84841 0.76004 0.60889 0.0
O132 O 0.8142 0.82675 0.71771 0.0
H133 H 0.82397 0.79553 0.5185 0.0
H134 H 0.89302 0.86446 0.84678 0.0
H135 H 0.79998 0.78007 0.41668 0.0
Zn136 Zn 0.2358 0.07834 0.70641 0.0
C137 C 0.19611 0.02901 0.57189 0.0
N138 N 0.19336 0.04561 0.54397 0.0
C139 C 0.20701 0.06394 0.58226 0.0
N140 N 0.21772 0.05879 0.63143 0.0
N141 N 0.21136 0.0369 0.6235 0.0
C142 C 0.20506 1.00061 0.78653 0.0
O143 O 0.2191 0.02175 0.8051 0.0
O144 O 0.25629 0.11102 0.67851 0.0
Zn145 Zn 0.22598 0.02007 0.6594 0.0
N146 N 0.21592 0.07611 0.78039 0.0
C147 C 0.18061 0.05412 0.83767 0.0
C148 C 0.19513 0.05692 0.78397 0.0
C149 C 0.22287 0.09272 0.82858 0.0
N150 N 0.18748 0.07061 0.88575 0.0
C151 C 0.20823 0.09002 0.88317 0.0
O152 O 0.25573 0.03887 0.71011 0.0
C153 C 0.26667 0.0577 0.7417 0.0
O154 O 0.25956 0.07185 0.74355 0.0
H155 H 0.18999 0.0438 0.74575 0.0
H156 H 0.23976 0.10747 0.82484 0.0
C157 C 0.24145 0.99217 0.58625 0.0
C158 C 0.25133 0.98772 0.5294 0.0
C159 C 0.24668 0.01487 0.46564 0.0
C160 C 0.23791 0.01995 0.52241 0.0
N161 N 0.23501 1.00834 0.58142 0.0
N162 N 0.25344 0.99917 0.47068 0.0
H163 H 0.24018 0.98395 0.63445 0.0
C164 C 0.27282 0.1136 0.64149 0.0
O165 O 0.27152 0.09546 0.61271 0.0
O166 O 0.20466 0.99512 0.72454 0.0
H167 H 0.23429 0.03374 0.51969 0.0
H168 H 0.16404 0.0389 0.84138 0.0
H169 H 0.24893 0.02395 0.41851 0.0
Zn170 Zn 0.95319 0.16351 0.70822 0.0
C171 C 1.00212 0.17344 0.57205 0.0
N172 N 0.98556 0.15411 0.54407 0.0
C173 C 0.96721 0.1494 0.58231 0.0
N174 N 0.9723 0.16522 0.63154 0.0
N175 N 0.99418 0.18074 0.62366 0.0
C176 C 0.03082 0.21213 0.78792 0.0
O177 O 1.01008 0.20638 0.80745 0.0
O178 O 0.92019 0.15096 0.68274 0.0
Zn179 Zn 1.01082 0.2121 0.65969 0.0
N180 N 0.95693 0.14623 0.78066 0.0
C181 C 0.98159 0.13509 0.83273 0.0
C182 C 0.97757 0.14742 0.78357 0.0
C183 C 0.94014 0.13346 0.82609 0.0
N184 N 0.96481 0.12206 0.87725 0.0
C185 C 0.94412 0.12089 0.87587 0.0
O186 O 0.99177 0.22293 0.7097 0.0
C187 C 0.97312 0.21494 0.74226 0.0
O188 O 0.95933 0.19365 0.74549 0.0
H189 H 0.9908 0.15781 0.74766 0.0
H190 H 0.92382 0.13273 0.8224 0.0
C191 C 0.03858 0.2553 0.58594 0.0
C192 C 0.0429 0.26953 0.52892 0.0
C193 C 1.01557 0.2377 0.46582 0.0
C194 C 1.01061 0.22396 0.52278 0.0
N195 N 0.02238 0.23272 0.58152 0.0
N196 N 0.03131 0.26011 0.47044 0.0
H197 H 0.04692 0.26229 0.63397 0.0
C198 C 0.91741 0.1646 0.6447 0.0
O199 O 0.93539 0.18104 0.61419 0.0
O200 O 0.03584 0.21584 0.72518 0.0
H201 H 0.99678 0.20658 0.52041 0.0
H202 H 0.9979 0.13577 0.83537 0.0
H203 H 1.00637 0.23081 0.4189 0.0
Zn204 Zn 0.83634 0.56308 0.647 0.0
C205 C 0.84552 0.52333 0.78253 0.0
N206 N 0.82611 0.52053 0.81002 0.0
C207 C 0.82164 0.53444 0.77213 0.0
N208 N 0.83766 0.54534 0.72356 0.0
N209 N 0.85307 0.53882 0.73165 0.0
C210 C 0.8854 0.53358 0.57037 0.0
O211 O 0.87975 0.54855 0.54959 0.0
O212 O 0.82386 0.58359 0.67254 0.0
Zn213 Zn 0.88462 0.55358 0.69769 0.0
N214 N 0.81922 0.54232 0.57378 0.0
C215 C 0.80855 0.5068 0.52073 0.0
C216 C 0.82071 0.52304 0.57026 0.0
C217 C 0.80631 0.54629 0.52855 0.0
N218 N 0.79539 0.51048 0.47645 0.0
C219 C 0.7939 0.52983 0.47839 0.0
O220 O 0.89563 0.58339 0.64769 0.0
C221 C 0.88796 0.59429 0.61482 0.0
O222 O 0.86671 0.58706 0.61076 0.0
H223 H 0.8312 0.52025 0.60599 0.0
H224 H 0.80533 0.56173 0.53268 0.0
C225 C 0.92732 0.56891 0.77389 0.0
C226 C 0.94119 0.57867 0.83163 0.0
C227 C 0.90896 0.57393 0.89298 0.0
C228 C 0.89555 0.56526 0.83532 0.0
N229 N 0.90471 0.56248 0.77707 0.0
N230 N 0.93143 0.58068 0.88956 0.0
H231 H 0.93461 0.5677 0.72628 0.0
C232 C 0.83726 0.59964 0.71195 0.0
O233 O 0.85335 0.59768 0.74334 0.0
O234 O 0.88885 0.53242 0.63339 0.0
H235 H 0.87813 0.56162 0.83675 0.0
H236 H 0.80948 0.49131 0.51761 0.0
H237 H 0.90178 0.57609 0.9395 0.0
Zn238 Zn 0.46834 0.27992 0.65219 0.0
C239 C 0.5074 0.32978 0.78634 0.0
N240 N 0.51012 0.31335 0.81555 0.0
C241 C 0.49663 0.29483 0.77767 0.0
N242 N 0.48607 0.29974 0.72737 0.0
N243 N 0.49238 0.32166 0.73423 0.0
C244 C 0.49408 0.37181 0.58694 0.0
O245 O 0.47221 0.36361 0.5758 0.0
O246 O 0.44703 0.24758 0.68151 0.0
Zn247 Zn 0.47791 0.33847 0.6974 0.0
N248 N 0.48864 0.28111 0.58078 0.0
C249 C 0.5253 0.30094 0.52957 0.0
C250 C 0.51036 0.29896 0.58108 0.0
C251 C 0.48117 0.26505 0.53078 0.0
N252 N 0.5179 0.28501 0.47965 0.0
C253 C 0.49621 0.26695 0.47834 0.0
O254 O 0.44923 0.31996 0.64193 0.0
C255 C 0.43857 0.3012 0.60988 0.0
O256 O 0.44538 0.28681 0.61053 0.0
H257 H 0.51596 0.31166 0.62077 0.0
H258 H 0.46361 0.25138 0.53145 0.0
C259 C 0.46159 0.36551 0.77142 0.0
C260 C 0.45113 0.36932 0.82799 0.0
C261 C 0.4543 0.34081 0.88912 0.0
C262 C 0.46374 0.33645 0.83257 0.0
N263 N 0.46759 0.349 0.77504 0.0
N264 N 0.44799 0.35687 0.88526 0.0
H265 H 0.46378 0.37459 0.7243 0.0
C266 C 0.43033 0.24557 0.71656 0.0
O267 O 0.43171 0.26408 0.74285 0.0
O268 O 0.50029 0.36437 0.63718 0.0
H269 H 0.46724 0.32255 0.8342 0.0
H270 H 0.54263 0.31508 0.529 0.0
H271 H 0.45128 0.33098 0.9351 0.0
Zn272 Zn 0.75143 0.19439 0.64996 0.0
C273 C 0.70152 0.18481 0.782 0.0
N274 N 0.7179 0.20424 0.80999 0.0
C275 C 0.73646 0.20883 0.77299 0.0
N276 N 0.73167 0.19286 0.7245 0.0
N277 N 0.70976 0.17735 0.73168 0.0
C278 C 0.67235 0.14517 0.57383 0.0
O279 O 0.69341 0.15249 0.55392 0.0
O280 O 0.78402 0.20622 0.67867 0.0
Zn281 Zn 0.69345 0.14559 0.69914 0.0
N282 N 0.74929 0.21224 0.57612 0.0
C283 C 0.7273 0.22606 0.52106 0.0
C284 C 0.73031 0.21428 0.57419 0.0
C285 C 0.76549 0.2215 0.52665 0.0
N286 N 0.74335 0.23526 0.47172 0.0
C287 C 0.76253 0.23345 0.47248 0.0
O288 O 0.71229 0.13496 0.6473 0.0
C289 C 0.7309 0.14294 0.61456 0.0
O290 O 0.74488 0.1642 0.61216 0.0
H291 H 0.71748 0.2066 0.61331 0.0
H292 H 0.78008 0.21903 0.52901 0.0
C293 C 0.6677 0.10311 0.77826 0.0
C294 C 0.66441 0.08979 0.83692 0.0
C295 C 0.69182 0.12288 0.89531 0.0
C296 C 0.6957 0.13575 0.83684 0.0
N297 N 0.68341 0.12589 0.77962 0.0
N298 N 0.67654 0.10028 0.89376 0.0
H299 H 0.65891 0.09531 0.73142 0.0
C300 C 0.78633 0.19213 0.71591 0.0
O301 O 0.76803 0.17543 0.74437 0.0
O302 O 0.66743 0.14055 0.63632 0.0
H303 H 0.7091 0.15334 0.83685 0.0
H304 H 0.71224 0.22777 0.51874 0.0
H305 H 0.70145 0.13063 0.94103 0.0
Zn306 Zn 0.48566 0.13866 0.99396 0.0
C307 C 0.54854 0.15798 0.91683 0.0
N308 N 0.54375 0.17173 0.87936 0.0
C309 C 0.52437 0.16875 0.90759 0.0
N310 N 0.51713 0.15333 0.95863 0.0
N311 N 0.53273 0.14701 0.96586 0.0
C312 C 0.53201 0.09174 0.97369 0.0
O313 O 0.5155 0.09367 0.94505 0.0
O314 O 0.48192 0.16095 0.05439 0.0
Zn315 Zn 0.53437 0.12882 0.04032 0.0
N316 N 0.46535 0.12852 0.91502 0.0
C317 C 0.46122 0.11583 0.8004 0.0
C318 C 0.4746 0.12524 0.85774 0.0
C319 C 0.44269 0.12192 0.91758 0.0
N320 N 0.43872 0.10893 0.8032 0.0
C321 C 0.42886 0.11146 0.86018 0.0
O322 O 0.50429 0.10547 0.07851 0.0
C323 C 0.48314 0.09877 0.07957 0.0
O324 O 0.47511 0.10974 0.04881 0.0
H325 H 0.49211 0.12912 0.85688 0.0
H326 H 0.43535 0.1236 0.96449 0.0
C327 C 0.56277 0.14265 0.16088 0.0
C328 C 0.57318 0.15673 0.21769 0.0
C329 C 0.56101 0.18213 0.17813 0.0
C330 C 0.55065 0.16809 0.12233 0.0
N331 N 0.55165 0.14864 0.11482 0.0
N332 N 0.57187 0.17609 0.22449 0.0
H333 H 0.56281 0.12678 0.15434 0.0
C334 C 0.46888 0.15473 0.106 0.0
O335 O 0.45577 0.13285 0.11823 0.0
O336 O 0.54602 0.10786 0.01183 0.0
H337 H 0.54146 0.17242 0.08589 0.0
H338 H 0.46848 0.11327 0.75464 0.0
H339 H 0.56022 0.19758 0.18502 0.0
Zn340 Zn 0.90175 0.41134 0.04027 0.0
C341 C 0.86166 0.36221 0.90584 0.0
N342 N 0.8588 0.3788 0.8784 0.0
C343 C 0.87258 0.39713 0.91653 0.0
N344 N 0.88348 0.39198 0.96515 0.0
N345 N 0.87706 0.37008 0.95699 0.0
C346 C 0.87619 0.32076 0.10529 0.0
O347 O 0.89815 0.32953 0.11618 0.0
O348 O 0.92217 0.44424 0.01397 0.0
Zn349 Zn 0.89154 0.35296 0.99156 0.0
N350 N 0.88201 0.40811 0.11561 0.0
C351 C 0.84923 0.38334 0.18048 0.0
C352 C 0.86317 0.38729 0.12426 0.0
C353 C 0.8875 0.4253 0.16089 0.0
N354 N 0.85476 0.40035 0.22603 0.0
C355 C 0.87351 0.42138 0.21806 0.0
O356 O 0.92086 0.37131 0.04405 0.0
C357 C 0.9322 0.39019 0.07499 0.0
O358 O 0.9256 0.40474 0.07606 0.0
H359 H 0.85926 0.37373 0.08835 0.0
H360 H 0.90291 0.44152 0.15337 0.0
C361 C 0.90772 0.3262 0.91549 0.0
C362 C 0.91789 0.3225 0.858 0.0
C363 C 0.9131 0.35006 0.79711 0.0
C364 C 0.90402 0.35441 0.85455 0.0
N365 N 0.90105 0.34223 0.91242 0.0
N366 N 0.92006 0.3345 0.80042 0.0
H367 H 0.90637 0.31752 0.96285 0.0
C368 C 0.93856 0.44695 0.97604 0.0
O369 O 0.93707 0.42893 0.94588 0.0
O370 O 0.86959 0.32736 0.05392 0.0
H371 H 0.90022 0.36809 0.85326 0.0
H372 H 0.83425 0.3668 0.18828 0.0
H373 H 0.91539 0.35959 0.75089 0.0
Zn374 Zn 0.67713 0.54586 0.99376 0.0
C375 C 0.63359 0.48321 0.91605 0.0
N376 N 0.65211 0.48785 0.87877 0.0
C377 C 0.66861 0.50707 0.9074 0.0
N378 N 0.6605 0.51438 0.95851 0.0
N379 N 0.63853 0.49898 0.96539 0.0
C380 C 0.58446 0.50077 0.97411 0.0
O381 O 0.60299 0.51762 0.94715 0.0
O382 O 0.70216 0.55003 0.05949 0.0
Zn383 Zn 0.61875 0.49732 0.04022 0.0
N384 N 0.68806 0.56629 0.91518 0.0
C385 C 0.6804 0.57073 0.79984 0.0
C386 C 0.67602 0.55719 0.85704 0.0
C387 C 0.70402 0.58896 0.91873 0.0
N388 N 0.69589 0.59324 0.80361 0.0
C389 C 0.70777 0.60294 0.86146 0.0
O390 O 0.6255 0.52739 0.08078 0.0
C391 C 0.63976 0.5486 0.07848 0.0
O392 O 0.6583 0.55632 0.04557 0.0
H393 H 0.6624 0.53971 0.85537 0.0
H394 H 0.7126 0.5962 0.96628 0.0
C395 C 0.60415 0.47027 0.163 0.0
C396 C 0.60583 0.45685 0.21504 0.0
C397 C 0.63884 0.46017 0.16145 0.0
C398 C 0.63698 0.47325 0.11005 0.0
N399 N 0.6198 0.47816 0.1119 0.0
N400 N 0.62333 0.45235 0.21246 0.0
H401 H 0.59092 0.47481 0.16334 0.0
C402 C 0.69454 0.53819 0.11329 0.0
O403 O 0.67236 0.52522 0.12022 0.0
O404 O 0.58641 0.48627 1.01043 0.0
H405 H 0.64929 0.47964 0.06927 0.0
H406 H 0.67096 0.56359 0.75342 0.0
H407 H 0.65253 0.45628 0.16095 0.0
Zn408 Zn 0.50359 0.89599 0.97711 0.0
C409 C 0.50933 0.85706 0.1241 0.0
N410 N 0.48935 0.85502 0.14417 0.0
C411 C 0.48651 0.86888 0.10155 0.0
N412 N 0.50386 0.87906 0.0569 0.0
N413 N 0.51877 0.87235 0.07236 0.0
C414 C 0.56542 0.87018 0.91906 0.0
O415 O 0.57985 0.89201 0.91001 0.0
O416 O 0.49041 0.91633 0.99694 0.0
Zn417 Zn 0.55031 0.88597 0.03687 0.0
N418 N 0.48798 0.87485 0.90363 0.0
C419 C 0.48138 0.84081 0.84875 0.0
C420 C 0.49148 0.85677 0.90036 0.0
C421 C 0.47487 0.87783 0.85664 0.0
N422 N 0.46831 0.84367 0.80203 0.0
C423 C 0.46467 0.86176 0.80376 0.0
O424 O 0.56242 0.91606 0.98663 0.0
C425 C 0.55534 0.92696 0.95108 0.0
O426 O 0.53422 0.91976 0.94378 0.0
H427 H 0.50216 0.85486 0.93758 0.0
H428 H 0.47237 0.89236 0.86113 0.0
C429 C 0.59376 0.90089 0.10884 0.0
C430 C 0.60815 0.91024 0.16581 0.0
C431 C 0.57645 0.90483 0.2314 0.0
C432 C 0.56252 0.89658 0.17461 0.0
N433 N 0.57115 0.89432 0.11461 0.0
N434 N 0.59889 0.91172 0.2255 0.0
H435 H 0.60062 0.90012 0.05998 0.0
C436 C 0.50311 0.93238 0.03741 0.0
O437 O 0.51873 0.9305 0.07189 0.0
O438 O 0.5521 0.86389 0.97001 0.0
H439 H 0.54509 0.89282 0.17822 0.0
H440 H 0.48398 0.8263 0.84555 0.0
H441 H 0.56967 0.90656 0.27932 0.0
Zn442 Zn 0.1345 0.61219 0.9836 0.0
C443 C 0.17458 0.6624 0.11525 0.0
N444 N 0.17757 0.64606 0.144 0.0
C445 C 0.16372 0.62741 0.1071 0.0
N446 N 0.15266 0.63213 0.05792 0.0
N447 N 0.15904 0.65407 0.06447 0.0
C448 C 0.16755 0.68692 0.9096 0.0
O449 O 0.15779 0.66464 0.9042 0.0
O450 O 0.11338 0.57984 0.01357 0.0
Zn451 Zn 0.14374 0.67037 0.03009 0.0
N452 N 0.15456 0.61335 0.91136 0.0
C453 C 0.1913 0.63272 0.86046 0.0
C454 C 0.17652 0.63073 0.91247 0.0
C455 C 0.14676 0.59764 0.86039 0.0
N456 N 0.18357 0.61714 0.80959 0.0
C457 C 0.16169 0.59945 0.80772 0.0
O458 O 0.11422 0.65128 0.97917 0.0
C459 C 0.10368 0.63272 0.94614 0.0
O460 O 0.11103 0.61876 0.94363 0.0
H461 H 0.18246 0.64311 0.9531 0.0
H462 H 0.12907 0.58428 0.86061 0.0
C463 C 0.12839 0.69765 0.10768 0.0
C464 C 0.11862 0.70146 0.16597 0.0
C465 C 0.12286 0.67323 0.22498 0.0
C466 C 0.13155 0.66883 0.1668 0.0
N467 N 0.13459 0.68128 0.10949 0.0
N468 N 0.11637 0.68917 0.22298 0.0
H469 H 0.12982 0.70657 0.06075 0.0
C470 C 0.09687 0.57787 0.04954 0.0
O471 O 0.09847 0.59638 0.07658 0.0
O472 O 0.16418 0.6952 0.96344 0.0
H473 H 0.13504 0.65493 0.16706 0.0
H474 H 0.20878 0.64657 0.86037 0.0
H475 H 0.12051 0.66349 0.27078 0.0
Zn476 Zn 0.41734 0.52872 0.98153 0.0
C477 C 0.36748 0.5183 0.11565 0.0
N478 N 0.38379 0.53778 0.14351 0.0
C479 C 0.40227 0.54278 0.10557 0.0
N480 N 0.39749 0.52695 0.05647 0.0
N481 N 0.37566 0.51118 0.06422 0.0
C482 C 0.3419 0.48744 0.91019 0.0
O483 O 0.36409 0.50042 0.90386 0.0
O484 O 0.44969 0.53989 0.01144 0.0
Zn485 Zn 0.35922 0.47967 0.0291 0.0
N486 N 0.41623 0.5478 0.90957 0.0
C487 C 0.39709 0.56562 0.85971 0.0
C488 C 0.39897 0.55258 0.91117 0.0
C489 C 0.43196 0.55579 0.85864 0.0
N490 N 0.41267 0.57354 0.80888 0.0
C491 C 0.43026 0.56917 0.80652 0.0
O492 O 0.37818 0.46953 0.97658 0.0
C493 C 0.39668 0.47743 0.94335 0.0
O494 O 0.41077 0.49869 0.94103 0.0
H495 H 0.38662 0.54612 0.95185 0.0
H496 H 0.44527 0.55136 0.85851 0.0
C497 C 0.33249 0.43648 0.10458 0.0
C498 C 0.32892 0.42256 0.16193 0.0
C499 C 0.3566 0.45485 0.22265 0.0
C500 C 0.36078 0.46831 0.16538 0.0
N501 N 0.3485 0.45915 0.10765 0.0
N502 N 0.34106 0.43235 0.21935 0.0
H503 H 0.32369 0.42919 0.05734 0.0
C504 C 0.45166 0.52541 0.04779 0.0
O505 O 0.43314 0.50855 0.07479 0.0
O506 O 0.33412 0.47545 0.96367 0.0
H507 H 0.3744 0.4858 0.16664 0.0
H508 H 0.38333 0.56942 0.86003 0.0
H509 H 0.36623 0.46204 0.26876 0.0
Zn510 Zn 0.15159 0.47121 0.32553 0.0
C511 C 0.21385 0.48924 0.24765 0.0
N512 N 0.20909 0.50275 0.20885 0.0
C513 C 0.18996 0.50033 0.23736 0.0
N514 N 0.18285 0.48544 0.28976 0.0
N515 N 0.19828 0.47894 0.29772 0.0
C516 C 0.1982 0.42466 0.31301 0.0
O517 O 0.18158 0.42628 0.28386 0.0
O518 O 0.14792 0.49369 0.38497 0.0
Zn519 Zn 0.20045 0.46218 0.37556 0.0
N520 N 0.13104 0.46069 0.24718 0.0
C521 C 0.12641 0.44713 0.13346 0.0
C522 C 0.13997 0.45673 0.19037 0.0
C523 C 0.10851 0.45461 0.24977 0.0
N524 N 0.10404 0.44077 0.13627 0.0
C525 C 0.09447 0.44399 0.19285 0.0
O526 O 0.17053 0.43903 0.41658 0.0
C527 C 0.14932 0.43212 0.41505 0.0
O528 O 0.14144 0.44268 0.38136 0.0
H529 H 0.15736 0.46023 0.18959 0.0
H530 H 0.10142 0.45687 0.29639 0.0
C531 C 0.23127 0.47969 0.492 0.0
C532 C 0.24459 0.49669 0.53984 0.0
C533 C 0.2318 0.52067 0.49256 0.0
C534 C 0.21871 0.50386 0.44543 0.0
N535 N 0.21883 0.48383 0.44547 0.0
N536 N 0.24446 0.51676 0.53818 0.0
H537 H 0.23115 0.46363 0.49068 0.0
C538 C 0.13442 0.48752 0.43546 0.0
O539 O 0.12093 0.46565 0.447 0.0
O540 O 0.21227 0.44113 0.35004 0.0
H541 H 0.20857 0.5068 0.40877 0.0
H542 H 0.13342 0.44403 0.08803 0.0
H543 H 0.23197 0.53675 0.49281 0.0
Zn544 Zn 0.5685 0.74524 0.37498 0.0
C545 C 0.52708 0.69679 0.24191 0.0
N546 N 0.52276 0.71324 0.22108 0.0
C547 C 0.53776 0.73142 0.25769 0.0
N548 N 0.55045 0.72632 0.2994 0.0
N549 N 0.54399 0.70455 0.28868 0.0
C550 C 0.54209 0.65414 0.43421 0.0
O551 O 0.56396 0.66226 0.44517 0.0
O552 O 0.59004 0.77769 0.34703 0.0
Zn553 Zn 0.55809 0.68701 0.32193 0.0
N554 N 0.54805 0.74405 0.44572 0.0
C555 C 0.51115 0.72396 0.49533 0.0
C556 C 0.52645 0.726 0.44497 0.0
C557 C 0.55507 0.76026 0.49516 0.0
N558 N 0.51809 0.74004 0.54468 0.0
C559 C 0.53966 0.7583 0.5465 0.0
O560 O 0.58734 0.70504 0.37542 0.0
C561 C 0.598 0.72311 0.41069 0.0
O562 O 0.59114 0.73744 0.41486 0.0
H563 H 0.52118 0.71316 0.40578 0.0
H564 H 0.57254 0.77412 0.49489 0.0
C565 C 0.57388 0.65995 0.24685 0.0
C566 C 0.58301 0.65523 0.18877 0.0
C567 C 0.57653 0.68128 0.12538 0.0
C568 C 0.56832 0.68652 0.18317 0.0
N569 N 0.56683 0.67566 0.2427 0.0
N570 N 0.58389 0.66604 0.12969 0.0
H571 H 0.5735 0.65221 0.29525 0.0
C572 C 0.60664 0.7797 0.31139 0.0
O573 O 0.60513 0.76123 0.28442 0.0
O574 O 0.53588 0.66145 0.38366 0.0
H575 H 0.56388 0.69975 0.18062 0.0
H576 H 0.49391 0.70967 0.49548 0.0
H577 H 0.57771 0.68979 0.07784 0.0
Zn578 Zn 0.34339 0.87847 0.32913 0.0
C579 C 0.29904 0.81653 0.24632 0.0
N580 N 0.31668 0.82164 0.2047 0.0
C581 C 0.33375 0.841 0.23101 0.0
N582 N 0.32665 0.84787 0.28628 0.0
N583 N 0.30493 0.83205 0.29689 0.0
C584 C 0.25162 0.83357 0.31355 0.0
O585 O 0.27024 0.85044 0.28702 0.0
O586 O 0.36795 0.88137 0.3972 0.0
Zn587 Zn 0.28583 0.8291 0.37592 0.0
N588 N 0.35413 0.90087 0.2549 0.0
C589 C 0.34485 0.90739 0.14352 0.0
C590 C 0.34103 0.89293 0.19802 0.0
C591 C 0.3707 0.92331 0.25997 0.0
N592 N 0.36094 0.92965 0.14884 0.0
C593 C 0.37395 0.93823 0.20554 0.0
O594 O 0.29228 0.85825 0.42207 0.0
C595 C 0.30604 0.87956 0.41923 0.0
O596 O 0.32413 0.88771 0.38393 0.0
H597 H 0.32706 0.87563 0.19549 0.0
H598 H 0.38024 0.92965 0.30667 0.0
C599 C 0.27152 0.7981 0.49246 0.0
C600 C 0.27323 0.78242 0.53585 0.0
C601 C 0.30681 0.78918 0.47776 0.0
C602 C 0.30481 0.80428 0.4344 0.0
N603 N 0.28734 0.80855 0.44241 0.0
N604 N 0.29097 0.77853 0.52687 0.0
H605 H 0.25746 0.80138 0.49671 0.0
C606 C 0.36949 0.86396 0.41354 0.0
O607 O 0.35673 0.84467 0.38159 0.0
O608 O 0.25336 0.81866 0.34841 0.0
H609 H 0.31679 0.81216 0.39352 0.0
H610 H 0.33455 0.90116 0.09812 0.0
H611 H 0.32063 0.78562 0.47176 0.0
H612 H 0.21175 0.08272 0.4588 0.0
H613 H 0.18791 0.18145 0.58229 0.0
H614 H 0.20772 0.09637 0.67019 0.0
H615 H 0.1937 0.16656 0.37363 0.0
H616 H 0.19955 0.15385 0.61748 0.0
H617 H 0.21025 0.11686 0.42864 0.0
C618 C 0.2109 0.09318 0.49906 0.0
C619 C 0.20993 0.08673 0.56712 0.0
C620 C 0.19887 0.15705 0.56396 0.0
C621 C 0.20761 0.12583 0.53284 0.0
C622 C 0.19229 0.17283 0.54388 0.0
C623 C 0.19067 0.17689 0.47478 0.0
C624 C 0.20342 0.14489 0.51447 0.0
C625 C 0.19599 0.16493 0.42712 0.0
C626 C 0.20998 0.11269 0.48179 0.0
C627 C 0.20878 0.10088 0.61717 0.0
N628 N 0.20195 0.14941 0.44777 0.0
N629 N 0.20735 0.11964 0.59901 0.0
H630 H 0.93488 0.11821 0.67128 0.0
H631 H 0.86388 0.03428 0.36555 0.0
H632 H 0.94856 0.1344 0.45906 0.0
H633 H 0.85237 0.01321 0.57441 0.0
H634 H 0.89029 0.07333 0.40144 0.0
H635 H 0.90053 0.08206 0.64009 0.0
C636 C 0.93036 0.11444 0.61835 0.0
C637 C 0.94452 0.12934 0.56769 0.0
C638 C 0.88166 0.06034 0.4398 0.0
C639 C 0.90562 0.08802 0.53146 0.0
C640 C 0.86612 0.03811 0.41908 0.0
C641 C 0.85526 0.02067 0.46693 0.0
C642 C 0.88679 0.06519 0.50913 0.0
C643 C 0.86023 0.02628 0.53588 0.0
C644 C 0.91088 0.09372 0.60045 0.0
C645 C 0.93815 0.12336 0.49975 0.0
N646 N 0.87571 0.04801 0.55496 0.0
N647 N 0.91932 0.10323 0.48371 0.0
H648 H 0.99757 0.83777 0.36668 0.0
H649 H 0.9117 0.82206 0.66978 0.0
H650 H 1.01771 0.84654 0.57642 0.0
H651 H 0.89688 0.82179 0.45715 0.0
H652 H 0.94821 0.82447 0.63943 0.0
H653 H 0.95832 0.82493 0.40109 0.0
C654 C 0.99349 0.836 0.42009 0.0
C655 C 1.0107 0.84236 0.46866 0.0
C656 C 0.93677 0.82353 0.59949 0.0
C657 C 0.96596 0.82909 0.50914 0.0
C658 C 0.91585 0.82194 0.61689 0.0
C659 C 0.90123 0.82166 0.56592 0.0
C660 C 0.94296 0.82477 0.53069 0.0
C661 C 0.9077 0.82205 0.49808 0.0
C662 C 0.97115 0.82918 0.43994 0.0
C663 C 1.00481 0.8415 0.53739 0.0
N664 N 0.92801 0.82367 0.48254 0.0
N665 N 0.98296 0.83508 0.55565 0.0
H666 H 0.82757 0.92783 0.34782 0.0
H667 H 0.84405 0.85868 0.65196 0.0
H668 H 0.82946 0.94413 0.55977 0.0
H669 H 0.84825 0.84392 0.44206 0.0
H670 H 0.83192 0.8857 0.6179 0.0
H671 H 0.82887 0.89328 0.37927 0.0
C672 C 0.82771 0.9239 0.40082 0.0
C673 C 0.82835 0.93885 0.45118 0.0
C674 C 0.83496 0.87623 0.57901 0.0
C675 C 0.83021 0.89964 0.48773 0.0
C676 C 0.84134 0.86035 0.59875 0.0
C677 C 0.84619 0.84835 0.54999 0.0
C678 C 0.83389 0.88058 0.50966 0.0
C679 C 0.8443 0.85262 0.48123 0.0
C680 C 0.82866 0.90427 0.41885 0.0
C681 C 0.82905 0.93312 0.51922 0.0
N682 N 0.8384 0.86845 0.46302 0.0
N683 N 0.83005 0.91413 0.5354 0.0
H684 H 0.1865 0.0129 0.44197 0.0
H685 H 0.08853 0.89004 0.56217 0.0
H686 H 0.17344 0.99086 0.64989 0.0
H687 H 0.10262 0.90803 0.35111 0.0
H688 H 0.12278 0.92542 0.59315 0.0
H689 H 0.15913 0.97383 0.40556 0.0
C690 C 0.17832 0.99966 0.4799 0.0
C691 C 0.18277 1.00494 0.54913 0.0
C692 C 0.11869 0.92164 0.53992 0.0
C693 C 0.15103 0.96034 0.50807 0.0
C694 C 0.09912 0.90137 0.52219 0.0
C695 C 0.09277 0.89609 0.45401 0.0
C696 C 0.13196 0.9372 0.48919 0.0
C697 C 0.10706 0.91138 0.40425 0.0
C698 C 0.16268 0.97738 0.45911 0.0
C699 C 0.17142 0.98731 0.59618 0.0
N700 N 0.12586 0.93144 0.42286 0.0
N701 N 0.15597 0.96591 0.57489 0.0
H702 H 0.14176 0.20604 0.56596 0.0
H703 H 0.01854 0.17984 0.44246 0.0
H704 H 0.12391 0.20134 0.35451 0.0
H705 H 0.04011 0.18886 0.65089 0.0
H706 H 0.05774 0.1916 0.40707 0.0
H707 H 0.106 0.20431 0.59586 0.0
C708 C 0.13038 0.20499 0.52563 0.0
C709 C 0.13585 0.20391 0.45764 0.0
C710 C 0.05405 0.19158 0.46051 0.0
C711 C 0.09429 0.20132 0.49163 0.0
C712 C 0.0317 0.18492 0.48072 0.0
C713 C 0.02625 0.1841 0.54979 0.0
C714 C 0.07101 0.19704 0.50989 0.0
C715 C 0.04379 0.19039 0.59727 0.0
C716 C 0.10989 0.20395 0.54276 0.0
C717 C 0.12046 0.20249 0.40749 0.0
N718 N 0.06526 0.19639 0.57654 0.0
N719 N 0.10021 0.20093 0.42552 0.0
H720 H 0.87451 0.42974 1.00606 0.0
H721 H 0.86035 0.50072 0.70215 0.0
H722 H 0.87555 0.41562 0.79344 0.0
H723 H 0.85187 0.51259 0.91162 0.0
H724 H 0.87284 0.47405 0.73704 0.0
H725 H 0.87265 0.46416 0.97557 0.0
C726 C 0.87491 0.43418 0.95316 0.0
C727 C 0.87525 0.41987 0.9022 0.0
C728 C 0.86875 0.4828 0.77575 0.0
C729 C 0.87277 0.45885 0.86682 0.0
C730 C 0.86215 0.49849 0.7556 0.0
C731 C 0.85597 0.50956 0.80394 0.0
C732 C 0.86877 0.47774 0.84501 0.0
C733 C 0.8568 0.50458 0.87275 0.0
C734 C 0.87364 0.45369 0.93568 0.0
C735 C 0.87524 0.42615 0.83436 0.0
N736 N 0.86298 0.48897 0.8913 0.0
N737 N 0.87392 0.44501 0.81875 0.0
H738 H 0.6159 0.46866 0.79159 0.0
H739 H 0.51541 0.34722 0.91497 0.0
H740 H 0.60013 0.45201 1.00277 0.0
H741 H 0.53207 0.36684 0.70615 0.0
H742 H 0.54297 0.3865 0.94951 0.0
H743 H 0.58189 0.43308 0.76062 0.0
C744 C 0.60502 0.4576 0.83162 0.0
C745 C 0.61087 0.46337 0.89993 0.0
C746 C 0.54017 0.38238 0.89603 0.0
C747 C 0.57187 0.42202 0.86474 0.0
C748 C 0.52441 0.36 0.87632 0.0
C749 C 0.52087 0.35401 0.80737 0.0
C750 C 0.55284 0.39879 0.84636 0.0
C751 C 0.53332 0.37102 0.75943 0.0
C752 C 0.58558 0.43721 0.81387 0.0
C753 C 0.59616 0.44838 0.94959 0.0
N754 N 0.54882 0.39252 0.77976 0.0
N755 N 0.57747 0.42823 0.93104 0.0
H756 H 0.66424 0.17019 0.70097 0.0
H757 H 0.57902 0.15518 1.00526 0.0
H758 H 0.68425 0.17776 0.91073 0.0
H759 H 0.56437 0.15613 0.793 0.0
H760 H 0.61509 0.1568 0.97412 0.0
H761 H 0.62511 0.15786 0.73561 0.0
C762 C 0.66014 0.16823 0.75439 0.0
C763 C 0.67729 0.17415 0.80293 0.0
C764 C 0.60379 0.15631 0.93442 0.0
C765 C 0.63272 0.16149 0.84367 0.0
C766 C 0.58311 0.15518 0.95226 0.0
C767 C 0.56866 0.15545 0.90166 0.0
C768 C 0.60991 0.15765 0.86553 0.0
C769 C 0.57506 0.15598 0.83368 0.0
C770 C 0.63788 0.16172 0.77438 0.0
C771 C 0.67139 0.17305 0.87172 0.0
N772 N 0.59514 0.15714 0.8177 0.0
N773 N 0.64964 0.16695 0.89011 0.0
H774 H 0.51533 0.17702 0.77881 0.0
H775 H 0.49343 0.27706 0.90209 0.0
H776 H 0.51163 0.19321 0.98765 0.0
H777 H 0.49493 0.26162 0.69089 0.0
H778 H 0.49521 0.24311 0.933 0.0
H779 H 0.50359 0.20459 0.74413 0.0
C780 C 0.51139 0.18593 0.8174 0.0
C781 C 0.51362 0.18225 0.8864 0.0
C782 C 0.49486 0.24686 0.87976 0.0
C783 C 0.50079 0.21423 0.84728 0.0
C784 C 0.4938 0.26627 0.86204 0.0
C785 C 0.49398 0.27218 0.79374 0.0
C786 C 0.49655 0.23326 0.82888 0.0
C787 C 0.49449 0.25758 0.74406 0.0
C788 C 0.50476 0.2017 0.79762 0.0
C789 C 0.50888 0.19458 0.9343 0.0
N790 N 0.49605 0.23893 0.76258 0.0
N791 N 0.50286 0.21009 0.91391 0.0
H792 H 0.85288 0.34568 0.77616 0.0
H793 H 0.75459 0.22285 0.89709 0.0
H794 H 0.83792 0.32454 0.98444 0.0
H795 H 0.76925 0.24051 0.68601 0.0
H796 H 0.78845 0.25853 0.92821 0.0
H797 H 0.82567 0.30645 0.74023 0.0
C798 C 0.84431 0.33259 0.81432 0.0
C799 C 0.84823 0.33813 0.88352 0.0
C800 C 0.78457 0.25462 0.87494 0.0
C801 C 0.81671 0.29341 0.84301 0.0
C802 C 0.76522 0.23417 0.85712 0.0
C803 C 0.75912 0.22869 0.78886 0.0
C804 C 0.79788 0.27014 0.8242 0.0
C805 C 0.77347 0.24397 0.73918 0.0
C806 C 0.82877 0.31024 0.79382 0.0
C807 C 0.83637 0.32073 0.93087 0.0
N808 N 0.79206 0.26419 0.75784 0.0
N809 N 0.82107 0.29926 0.90983 0.0
H810 H 0.79074 0.53606 0.68278 0.0
H811 H 0.70623 0.52245 0.98744 0.0
H812 H 0.80644 0.53784 0.89523 0.0
H813 H 0.68552 0.51346 0.77824 0.0
H814 H 0.74533 0.5351 0.95213 0.0
H815 H 0.75454 0.53428 0.71356 0.0
C816 C 0.78684 0.53666 0.73569 0.0
C817 C 0.80161 0.53717 0.78654 0.0
C818 C 0.73242 0.53087 0.91358 0.0
C819 C 0.76025 0.53478 0.82226 0.0
C820 C 0.71015 0.52417 0.93397 0.0
C821 C 0.69281 0.51776 0.88585 0.0
C822 C 0.73739 0.53076 0.84428 0.0
C823 C 0.69852 0.51854 0.81697 0.0
C824 C 0.76611 0.53543 0.75334 0.0
C825 C 0.7955 0.53739 0.85442 0.0
N826 N 0.72029 0.5248 0.79819 0.0
N827 N 0.77535 0.5361 0.87021 0.0
H828 H 0.56977 0.77087 0.19725 0.0
H829 H 0.49307 0.83019 0.23633 0.0
H830 H 0.50625 0.74142 0.30634 0.0
H831 H 0.545 0.85008 0.08343 0.0
H832 H 0.50295 0.80251 0.27939 0.0
H833 H 0.56615 0.80464 0.17233 0.0
C834 C 0.5554 0.77186 0.21751 0.0
C835 C 0.53841 0.75357 0.25459 0.0
C836 C 0.51235 0.81305 0.2366 0.0
C837 C 0.53389 0.79176 0.22542 0.0
C838 C 0.50676 0.829 0.21177 0.0
C839 C 0.51802 0.84256 0.1549 0.0
C840 C 0.52949 0.81049 0.20481 0.0
C841 C 0.53571 0.84011 0.12644 0.0
C842 C 0.55321 0.79098 0.20273 0.0
C843 C 0.51982 0.75532 0.27822 0.0
N844 N 0.54081 0.82433 0.15128 0.0
N845 N 0.51803 0.77401 0.26317 0.0
H846 H 0.26758 0.78477 0.33666 0.0
H847 H 0.19621 0.69985 0.03437 0.0
H848 H 0.27904 0.80166 0.12442 0.0
H849 H 0.18533 0.67966 0.244 0.0
H850 H 0.22221 0.73917 0.06878 0.0
H851 H 0.23358 0.74843 0.30705 0.0
C852 C 0.26268 0.78117 0.28415 0.0
C853 C 0.27621 0.79636 0.23313 0.0
C854 C 0.21381 0.72632 0.10762 0.0
C855 C 0.23755 0.75458 0.19836 0.0
C856 C 0.19849 0.70392 0.08776 0.0
C857 C 0.18791 0.68666 0.13627 0.0
C858 C 0.219 0.73152 0.17677 0.0
C859 C 0.19297 0.69258 0.20498 0.0
C860 C 0.24334 0.76027 0.26705 0.0
C861 C 0.26918 0.79043 0.16551 0.0
N862 N 0.20823 0.71447 0.22323 0.0
N863 N 0.25053 0.77006 0.15016 0.0
H864 H 0.22721 0.48318 0.12471 0.0
H865 H 0.35132 0.51139 0.24552 0.0
H866 H 0.24625 0.48986 0.33549 0.0
H867 H 0.32929 0.50238 0.03756 0.0
H868 H 0.31208 0.49903 0.28183 0.0
H869 H 0.26298 0.48499 0.09426 0.0
C870 C 0.23884 0.48466 0.1648 0.0
C871 C 0.23372 0.4863 0.23275 0.0
C872 C 0.31568 0.49918 0.22828 0.0
C873 C 0.27526 0.489 0.1981 0.0
C874 C 0.33805 0.50617 0.20755 0.0
C875 C 0.34339 0.50717 0.13833 0.0
C876 C 0.29858 0.49355 0.17927 0.0
C877 C 0.32572 0.50069 0.09124 0.0
C878 C 0.25934 0.48575 0.14736 0.0
C879 C 0.24941 0.48826 0.28261 0.0
N880 N 0.30422 0.49436 0.11247 0.0
N881 N 0.26966 0.48987 0.26423 0.0
H882 H 0.18104 0.50872 0.10844 0.0
H883 H 0.16128 0.6101 0.23176 0.0
H884 H 0.1779 0.52531 0.31726 0.0
H885 H 0.16115 0.59373 0.02061 0.0
H886 H 0.16277 0.57602 0.26277 0.0
H887 H 0.16975 0.53665 0.0738 0.0
C888 C 0.17732 0.5178 0.14704 0.0
C889 C 0.17957 0.51412 0.21602 0.0
C890 C 0.16213 0.5796 0.20953 0.0
C891 C 0.16726 0.54649 0.17696 0.0
C892 C 0.16125 0.5991 0.19176 0.0
C893 C 0.16104 0.60477 0.12343 0.0
C894 C 0.16327 0.56568 0.15864 0.0
C895 C 0.16102 0.58989 0.07381 0.0
C896 C 0.17095 0.53376 0.12729 0.0
C897 C 0.17512 0.52667 0.26393 0.0
N898 N 0.16243 0.57115 0.09235 0.0
N899 N 0.16935 0.54236 0.24357 0.0
H900 H 0.43546 0.57365 0.01732 0.0
H901 H 0.5033 0.65977 0.32225 0.0
H902 H 0.41975 0.5588 0.22935 0.0
H903 H 0.5168 0.67963 0.11275 0.0
H904 H 0.47685 0.62058 0.28743 0.0
H905 H 0.46912 0.61023 0.04871 0.0
C906 C 0.43936 0.57779 0.07031 0.0
C907 C 0.42477 0.56312 0.12071 0.0
C908 C 0.48588 0.63331 0.24872 0.0
C909 C 0.46297 0.60502 0.15719 0.0
C910 C 0.5014 0.6556 0.26887 0.0
C911 C 0.51296 0.67268 0.22048 0.0
C912 C 0.48145 0.62805 0.17931 0.0
C913 C 0.50844 0.66678 0.15161 0.0
C914 C 0.45846 0.59878 0.0883 0.0
C915 C 0.43046 0.56963 0.18874 0.0
N916 N 0.493 0.64497 0.13298 0.0
N917 N 0.44894 0.59002 0.20486 0.0
H918 H 0.37471 0.87717 0.27935 0.0
H919 H 0.45258 0.85898 1.00809 0.0
H920 H 0.34713 0.82948 0.11389 0.0
H921 H 0.47475 0.88518 0.20973 0.0
H922 H 0.41576 0.85696 0.03106 0.0
H923 H 0.41311 0.88895 0.23953 0.0
C924 C 0.37654 0.86918 0.23485 0.0
C925 C 0.35738 0.85172 0.20202 0.0
C926 C 0.4289 0.86361 0.0697 0.0
C927 C 0.40167 0.86557 0.15412 0.0
C928 C 0.44994 0.86497 0.0563 0.0
C929 C 0.46667 0.87239 0.10702 0.0
C930 C 0.42476 0.86991 0.13399 0.0
C931 C 0.46226 0.87946 0.16928 0.0
C932 C 0.39861 0.87602 0.21165 0.0
C933 C 0.36125 0.84269 0.14225 0.0
N934 N 0.44175 0.87798 0.18113 0.0
N935 N 0.38285 0.84954 0.12065 0.0
H936 H 0.14557 0.27888 0.30347 0.0
H937 H 0.22351 0.41187 0.39176 0.0
H938 H 0.20019 0.30518 0.45044 0.0
H939 H 0.16842 0.38552 0.24639 0.0
H940 H 0.21586 0.37298 0.41186 0.0
H941 H 0.15315 0.31775 0.28354 0.0
C942 C 0.15891 0.29275 0.33237 0.0
C943 C 0.17229 0.28871 0.37861 0.0
C944 C 0.20554 0.37573 0.37523 0.0
C945 C 0.18138 0.33336 0.35499 0.0
C946 C 0.21006 0.39798 0.36325 0.0
C947 C 0.19657 0.40201 0.31739 0.0
C948 C 0.1874 0.35735 0.34119 0.0
C949 C 0.17925 0.38327 0.28231 0.0
C950 C 0.16337 0.31499 0.3205 0.0
C951 C 0.18945 0.30743 0.41421 0.0
N952 N 0.17508 0.36178 0.29522 0.0
N953 N 0.19358 0.32891 0.40135 0.0
H954 H 0.7523 0.87302 0.30557 0.0
H955 H 0.61875 0.81893 0.38352 0.0
H956 H 0.72484 0.90384 0.43949 0.0
H957 H 0.64625 0.78818 0.24945 0.0
H958 H 0.65742 0.85063 0.40279 0.0
H959 H 0.71363 0.84132 0.28642 0.0
C960 C 0.73821 0.87297 0.3318 0.0
C961 C 0.74187 0.89118 0.37412 0.0
C962 C 0.65497 0.83702 0.3688 0.0
C963 C 0.69746 0.85513 0.35134 0.0
C964 C 0.63285 0.819 0.3573 0.0
C965 C 0.6292 0.80081 0.31489 0.0
C966 C 0.67361 0.83685 0.3378 0.0
C967 C 0.6482 0.80179 0.28265 0.0
C968 C 0.71609 0.85495 0.32036 0.0
C969 C 0.72288 0.89021 0.40637 0.0
N970 N 0.66955 0.8194 0.29509 0.0
N971 N 0.70152 0.8726 0.39399 0.0
H972 H 0.15831 0.88636 0.30154 0.0
H973 H 0.21287 0.80778 0.38891 0.0
H974 H 0.13062 0.83238 0.45047 0.0
H975 H 0.24329 0.86456 0.24968 0.0
H976 H 0.18173 0.81563 0.40857 0.0
H977 H 0.18971 0.87886 0.282 0.0
C978 C 0.159 0.87319 0.33094 0.0
C979 C 0.14172 0.85996 0.37763 0.0
C980 C 0.19515 0.82629 0.37339 0.0
C981 C 0.17738 0.85095 0.35443 0.0
C982 C 0.21284 0.82166 0.36164 0.0
C983 C 0.23077 0.83553 0.31761 0.0
C984 C 0.19536 0.84491 0.34089 0.0
C985 C 0.22986 0.85341 0.28413 0.0
C986 C 0.17684 0.86878 0.31932 0.0
C987 C 0.14349 0.84301 0.41387 0.0
N988 N 0.21255 0.85764 0.2967 0.0
N989 N 0.16086 0.83889 0.40116 0.0
H990 H 0.86548 0.63789 0.78472 0.0
H991 H 0.83606 0.71979 0.56664 0.0
H992 H 0.81406 0.6136 0.62796 0.0
H993 H 0.88829 0.74409 0.72098 0.0
H994 H 0.82821 0.68094 0.58703 0.0
H995 H 0.87331 0.6767 0.76405 0.0
C996 C 0.85557 0.64065 0.74658 0.0
C997 C 0.83909 0.62238 0.70794 0.0
C998 C 0.8415 0.69477 0.61612 0.0
C999 C 0.8483 0.66702 0.68318 0.0
C1000 C 0.84614 0.71702 0.60415 0.0
C1001 C 0.86285 0.7353 0.64222 0.0
C1002 C 0.85361 0.69064 0.66671 0.0
C1003 C 0.87529 0.73059 0.69024 0.0
C1004 C 0.8602 0.66289 0.73446 0.0
C1005 C 0.82686 0.62709 0.65914 0.0
N1006 N 0.87031 0.70872 0.70142 0.0
N1007 N 0.83182 0.64895 0.64787 0.0
H1008 H 0.2846 0.15205 0.71736 0.0
H1009 H 0.41843 0.20662 0.64328 0.0
H1010 H 0.31259 0.12295 0.5788 0.0
H1011 H 0.39048 0.23695 0.77732 0.0
H1012 H 0.37982 0.17516 0.62193 0.0
H1013 H 0.32319 0.18359 0.73895 0.0
C1014 C 0.29879 0.15246 0.69063 0.0
C1015 C 0.2953 0.13476 0.64627 0.0
C1016 C 0.38215 0.18862 0.65637 0.0
C1017 C 0.3396 0.1706 0.67186 0.0
C1018 C 0.40424 0.2065 0.6691 0.0
C1019 C 0.40775 0.22452 0.7121 0.0
C1020 C 0.3634 0.18873 0.68678 0.0
C1021 C 0.38863 0.22347 0.74371 0.0
C1022 C 0.32086 0.17038 0.70345 0.0
C1023 C 0.31441 0.13617 0.61347 0.0
N1024 N 0.36731 0.20599 0.73013 0.0
N1025 N 0.3357 0.15366 0.62726 0.0
H1026 H 0.87964 0.13945 0.72471 0.0
H1027 H 0.82465 0.21775 0.63864 0.0
H1028 H 0.90764 0.1941 0.57795 0.0
H1029 H 0.79551 0.16203 0.78173 0.0
H1030 H 0.8559 0.21011 0.61858 0.0
H1031 H 0.8484 0.14708 0.7454 0.0
C1032 C 0.87905 0.1528 0.69602 0.0
C1033 C 0.89635 0.16616 0.64956 0.0
C1034 C 0.84275 0.19965 0.65472 0.0
C1035 C 0.86086 0.17532 0.67406 0.0
C1036 C 0.825 0.20415 0.66669 0.0
C1037 C 0.80736 0.19049 0.71188 0.0
C1038 C 0.84289 0.18134 0.6881 0.0
C1039 C 0.80869 0.173 0.74636 0.0
C1040 C 0.8613 0.1573 0.70832 0.0
C1041 C 0.89472 0.18336 0.6143 0.0
N1042 N 0.82603 0.16885 0.73346 0.0
N1043 N 0.87742 0.18752 0.62758 0.0
H1044 H 0.47998 0.94596 0.95157 0.0
H1045 H 0.5566 0.07806 0.0523 0.0
H1046 H 0.5308 0.9708 0.11012 0.0
H1047 H 0.50261 0.05326 0.90345 0.0
H1048 H 0.5486 0.03896 0.06984 0.0
H1049 H 0.488 0.98506 0.9324 0.0
C1050 C 0.49255 0.95955 0.98308 0.0
C1051 C 0.50474 0.95504 0.03248 0.0
C1052 C 0.53859 0.04209 0.033 0.0
C1053 C 0.51438 0.99992 1.00982 0.0
C1054 C 0.54332 0.06447 0.02247 0.0
C1055 C 0.53024 0.069 0.97642 0.0
C1056 C 0.52066 0.02406 0.99724 0.0
C1057 C 0.51312 0.05061 0.93959 0.0
C1058 C 0.49728 0.98191 0.97171 0.0
C1059 C 0.52098 0.9734 0.07139 0.0
N1060 N 0.50875 0.02897 0.95106 0.0
N1061 N 0.52542 0.995 0.05893 0.0
H1062 H 0.95091 0.48503 0.0545 0.0
H1063 H 0.08434 0.53912 0.97447 0.0
H1064 H 0.97798 0.45648 0.91081 0.0
H1065 H 0.05736 0.56933 0.11244 0.0
H1066 H 0.04553 0.50796 0.9536 0.0
H1067 H 0.98969 0.51631 0.07566 0.0
C1068 C 0.96493 0.48551 0.02658 0.0
C1069 C 0.96113 0.46803 0.98089 0.0
C1070 C 0.04811 0.52134 0.98879 0.0
C1071 C 1.00565 0.50356 1.00595 0.0
C1072 C 0.07032 0.53903 1.00124 0.0
C1073 C 0.07417 0.55693 0.04523 0.0
C1074 C 0.02958 0.5215 0.02049 0.0
C1075 C 0.05525 0.55594 0.07806 0.0
C1076 C 0.98711 0.50328 0.03914 0.0
C1077 C 0.98004 0.46952 0.94656 0.0
N1078 N 0.03381 0.53863 0.06474 0.0
N1079 N 1.00144 0.48684 0.96013 0.0
H1080 H 0.57573 0.53121 0.90852 0.0
H1081 H 0.46041 0.49498 0.11338 0.0
H1082 H 0.54576 0.47499 0.0498 0.0
H1083 H 0.49033 0.55116 0.97196 0.0
H1084 H 0.49192 0.48795 0.0925 0.0
H1085 H 0.54421 0.53824 0.92933 0.0
C1086 C 0.56235 0.5201 0.94321 0.0
C1087 C 0.56347 0.50248 0.97753 0.0
C1088 C 0.49171 0.50192 0.06636 0.0
C1089 C 0.52742 0.51074 1.00252 0.0
C1090 C 0.47378 0.50608 0.07865 0.0
C1091 C 0.47265 0.5237 0.04431 0.0
C1092 C 0.50869 0.51542 0.01925 0.0
C1093 C 0.49049 0.53744 0.99975 0.0
C1094 C 0.54442 0.52426 0.95545 0.0
C1095 C 0.54562 0.48873 0.02202 0.0
N1096 N 0.50768 0.53292 0.9882 0.0
N1097 N 0.52842 0.49325 0.03354 0.0
H1098 H 0.23868 0.13679 0.8799 0.0
H1099 H 0.20866 0.15744 0.25733 0.0
H1100 H 0.19184 0.08284 0.01259 0.0
H1101 H 0.25557 0.21167 0.12584 0.0
H1102 H 0.2041 0.1297 0.17043 0.0
H1103 H 0.24687 0.1642 0.97121 0.0
C1104 C 0.23034 0.13055 0.92831 0.0
C1105 C 0.21461 0.10727 0.9383 0.0
C1106 C 0.21549 0.14766 0.16067 0.0
C1107 C 0.22368 0.13887 0.0431 0.0
C1108 C 0.21814 0.16353 0.21042 0.0
C1109 C 0.23245 0.18698 0.1989 0.0
C1110 C 0.22719 0.15522 0.09869 0.0
C1111 C 0.2443 0.1938 0.137 0.0
C1112 C 0.23492 0.14632 0.98044 0.0
C1113 C 0.20399 0.10056 1.00209 0.0
N1114 N 0.24132 0.17803 0.08918 0.0
N1115 N 0.20868 0.11622 0.05178 0.0
H1116 H 0.93572 0.07959 0.92111 0.0
H1117 H 0.8517 0.0681 0.22086 0.0
H1118 H 0.91311 0.12857 0.94593 0.0
H1119 H 0.85533 1.01105 0.13704 0.0
H1120 H 0.87687 0.09236 0.12923 0.0
H1121 H 0.90896 0.05591 1.00891 0.0
C1122 C 0.92501 0.08531 0.94488 0.0
C1123 C 0.92655 0.10601 0.92582 0.0
C1124 C 0.87202 0.07449 0.131 0.0
C1125 C 0.89603 0.07908 0.02751 0.0
C1126 C 0.85779 0.0607 0.18337 0.0
C1127 C 0.85139 0.03751 0.18661 0.0
C1128 C 0.88017 0.06508 0.08247 0.0
C1129 C 0.85972 0.02879 0.13657 0.0
C1130 C 0.90969 0.07175 0.99494 0.0
C1131 C 0.91224 0.11257 0.95843 0.0
N1132 N 0.87375 0.04258 0.08702 0.0
N1133 N 0.89769 0.09923 1.00823 0.0
H1134 H 0.96698 0.81457 0.25891 0.0
H1135 H 0.93144 0.80222 0.8664 0.0
H1136 H 1.00417 0.80379 0.09908 0.0
H1137 H 0.90904 0.83352 0.01555 0.0
H1138 H 0.9535 0.79633 0.95458 0.0
H1139 H 0.94096 0.81534 0.17345 0.0
C1140 C 0.96954 0.81215 0.206 0.0
C1141 C 0.98784 0.80923 0.18608 0.0
C1142 C 0.94361 0.80434 0.96802 0.0
C1143 C 0.95814 0.80999 0.08825 0.0
C1144 C 0.93085 0.80754 0.9178 0.0
C1145 C 0.91829 0.81834 0.93357 0.0
C1146 C 0.94367 0.81179 0.03463 0.0
C1147 C 0.91858 0.82524 1.00099 0.0
C1148 C 0.95476 0.81268 0.15726 0.0
C1149 C 0.99039 0.80625 0.11673 0.0
N1150 N 0.93102 0.82184 0.04897 0.0
N1151 N 0.97573 0.8067 0.0704 0.0
H1152 H 0.84796 0.94242 1.00912 0.0
H1153 H 0.77593 0.81264 0.88516 0.0
H1154 H 0.79592 0.88853 0.13101 0.0
H1155 H 0.82824 0.86698 0.76535 0.0
H1156 H 0.78083 0.8405 0.97216 0.0
H1157 H 0.83894 0.91539 0.91654 0.0
C1158 C 0.83451 0.92493 0.01643 0.0
C1159 C 0.82268 0.91788 0.07827 0.0
C1160 C 0.79112 0.84635 0.92663 0.0
C1161 C 0.81228 0.88662 0.97179 0.0
C1162 C 0.78831 0.83045 0.87678 0.0
C1163 C 0.80179 0.83742 0.81788 0.0
C1164 C 0.80757 0.86944 0.91773 0.0
C1165 C 0.81753 0.86076 0.80996 0.0
C1166 C 0.82934 0.90948 0.96329 0.0
C1167 C 0.80533 0.89496 0.08421 0.0
N1168 N 0.82006 0.87587 0.85943 0.0
N1169 N 0.80077 0.88015 0.03184 0.0
H1170 H 0.08674 0.89671 0.99743 0.0
H1171 H 0.20883 1.00406 0.92432 0.0
H1172 H 0.13855 0.92801 0.1519 0.0
H1173 H 0.16628 0.95916 0.76514 0.0
H1174 H 0.18259 0.97743 1.00857 0.0
H1175 H 0.11482 0.92031 0.91183 0.0
C1176 C 0.10408 0.90845 0.01332 0.0
C1177 C 0.11029 0.91029 0.08201 0.0
C1178 C 0.17907 0.9733 0.95526 0.0
C1179 C 0.14248 0.9376 0.98416 0.0
C1180 C 0.19399 0.98854 0.90703 0.0
C1181 C 0.18972 0.98386 0.83748 0.0
C1182 C 0.15946 0.95335 0.93399 0.0
C1183 C 0.17026 0.96343 0.8182 0.0
C1184 C 0.12011 0.92185 0.96434 0.0
C1185 C 0.13303 0.92577 0.09955 0.0
N1186 N 0.15573 0.94902 0.86619 0.0
N1187 N 0.14823 0.93899 0.05103 0.0
H1188 H 0.13039 0.19204 1.0045 0.0
H1189 H 0.02909 0.21598 0.9251 0.0
H1190 H 0.10402 0.21964 0.1535 0.0
H1191 H 0.07055 0.21111 0.76702 0.0
H1192 H 0.05537 0.21586 1.00986 0.0
H1193 H 0.10775 0.19738 0.91724 0.0
C1194 C 0.11995 0.19938 0.01881 0.0
C1195 C 0.11918 0.20547 0.08647 0.0
C1196 C 0.05885 0.215 0.95665 0.0
C1197 C 0.09298 0.21136 0.98677 0.0
C1198 C 0.0438 0.21498 0.90816 0.0
C1199 C 0.04759 0.21349 0.8388 0.0
C1200 C 0.07768 0.21312 0.93593 0.0
C1201 C 0.067 0.21234 0.81992 0.0
C1202 C 0.10711 0.2025 0.96887 0.0
C1203 C 0.10539 0.21495 0.10195 0.0
N1204 N 0.0812 0.21194 0.86826 0.0
N1205 N 0.09266 0.21738 0.05263 0.0
H1206 H 0.89268 0.46792 0.20113 0.0
H1207 H 0.88444 0.49306 0.59447 0.0
H1208 H 0.86548 0.41522 0.35397 0.0
H1209 H 0.88919 0.53827 0.43288 0.0
H1210 H 0.88408 0.46636 0.50938 0.0
H1211 H 0.89826 0.49603 0.28836 0.0
C1212 C 0.88821 0.46229 0.25311 0.0
C1213 C 0.87864 0.43915 0.27025 0.0
C1214 C 0.88533 0.4822 0.49273 0.0
C1215 C 0.88484 0.47123 0.37021 0.0
C1216 C 0.88563 0.49747 0.54122 0.0
C1217 C 0.88673 0.51786 0.5207 0.0
C1218 C 0.88644 0.48753 0.42338 0.0
C1219 C 0.88815 0.52267 0.45097 0.0
C1220 C 0.89122 0.47832 0.30279 0.0
C1221 C 0.87278 0.43285 0.3384 0.0
N1222 N 0.88798 0.50765 0.40489 0.0
N1223 N 0.87599 0.44877 0.38584 0.0
H1224 H 0.56026 0.44547 0.21947 0.0
H1225 H 0.54065 0.39108 0.59156 0.0
H1226 H 0.61356 0.44603 0.34172 0.0
H1227 H 0.48653 0.3884 0.46866 0.0
H1228 H 0.5681 0.41417 0.50418 0.0
H1229 H 0.53363 0.4276 0.31345 0.0
C1230 C 0.56655 0.44224 0.26625 0.0
C1231 C 0.58936 0.44744 0.27246 0.0
C1232 C 0.55024 0.40866 0.49644 0.0
C1233 C 0.55867 0.42651 0.38015 0.0
C1234 C 0.53454 0.39548 0.54647 0.0
C1235 C 0.51118 0.38762 0.53736 0.0
C1236 C 0.54261 0.41403 0.43659 0.0
C1237 C 0.50433 0.39399 0.47783 0.0
C1238 C 0.55122 0.43182 0.31985 0.0
C1239 C 0.59616 0.44224 0.33418 0.0
N1240 N 0.51993 0.40668 0.42958 0.0
N1241 N 0.58092 0.43205 0.38532 0.0
H1242 H 0.59971 0.13655 0.20261 0.0
H1243 H 0.63194 0.14457 0.59695 0.0
H1244 H 0.5745 0.16468 0.35351 0.0
H1245 H 0.67379 0.14166 0.43652 0.0
H1246 H 0.60554 0.14444 0.51098 0.0
H1247 H 0.62174 0.13065 0.29102 0.0
C1248 C 0.59849 0.14113 0.25443 0.0
C1249 C 0.58521 0.15112 0.27068 0.0
C1250 C 0.62044 0.14367 0.49481 0.0
C1251 C 0.61044 0.14449 0.37194 0.0
C1252 C 0.63543 0.14364 0.54378 0.0
C1253 C 0.65515 0.14327 0.5238 0.0
C1254 C 0.62504 0.14295 0.42557 0.0
C1255 C 0.65889 0.14217 0.45417 0.0
C1256 C 0.61121 0.13793 0.30477 0.0
C1257 C 0.58463 0.15707 0.33865 0.0
N1258 N 0.644 0.14203 0.40763 0.0
N1259 N 0.59704 0.15366 0.38675 0.0
H1260 H 0.46287 0.22104 0.47555 0.0
H1261 H 0.49579 0.20137 0.10078 0.0
H1262 H 0.51436 0.27451 0.35114 0.0
H1263 H 0.44563 0.14716 0.22593 0.0
H1264 H 0.50052 0.22883 0.18875 0.0
H1265 H 0.4541 0.19427 0.3819 0.0
C1266 C 0.47212 0.22732 0.42842 0.0
C1267 C 0.48936 0.25025 0.42148 0.0
C1268 C 0.48837 0.21095 0.19686 0.0
C1269 C 0.47957 0.21939 0.31407 0.0
C1270 C 0.48562 0.19523 0.14648 0.0
C1271 C 0.47037 0.17185 0.15599 0.0
C1272 C 0.47583 0.2033 0.25747 0.0
C1273 C 0.45764 0.16498 0.21637 0.0
C1274 C 0.46719 0.21191 0.37498 0.0
C1275 C 0.50104 0.25704 0.35928 0.0
N1276 N 0.46075 0.18059 0.2649 0.0
N1277 N 0.49598 0.24172 0.30828 0.0
H1278 H 0.88467 0.30553 0.22474 0.0
H1279 H 0.75411 0.24229 0.34406 0.0
H1280 H 0.82947 0.30069 0.10245 0.0
H1281 H 0.80922 0.24902 0.47104 0.0
H1282 H 0.78126 0.26138 0.25263 0.0
H1283 H 0.85712 0.28247 0.31216 0.0
C1284 C 0.86674 0.29948 0.21593 0.0
C1285 C 0.85943 0.30518 0.15609 0.0
C1286 C 0.78742 0.25856 0.3003 0.0
C1287 C 0.82774 0.27879 0.25648 0.0
C1288 C 0.7719 0.24766 0.35284 0.0
C1289 C 0.77922 0.24386 0.41578 0.0
C1290 C 0.81062 0.26595 0.31037 0.0
C1291 C 0.80256 0.25116 0.42343 0.0
C1292 C 0.85101 0.28633 0.26605 0.0
C1293 C 0.83595 0.29681 0.14772 0.0
N1294 N 0.8174 0.26193 0.37152 0.0
N1295 N 0.821 0.28415 0.19741 0.0
H1296 H 0.75273 0.49675 0.43313 0.0
H1297 H 0.74035 0.56874 0.13306 0.0
H1298 H 0.80109 0.56841 0.40864 0.0
H1299 H 0.68366 0.50783 0.21661 0.0
H1300 H 0.76472 0.56808 0.22492 0.0
H1301 H 0.72888 0.49958 0.34523 0.0
C1302 C 0.75827 0.51314 0.40943 0.0
C1303 C 0.77885 0.53239 0.4286 0.0
C1304 C 0.74691 0.55496 0.22304 0.0
C1305 C 0.75173 0.5357 0.32673 0.0
C1306 C 0.73305 0.55525 0.17053 0.0
C1307 C 0.70992 0.53833 0.16716 0.0
C1308 C 0.73764 0.5374 0.27159 0.0
C1309 C 0.70135 0.52128 0.21718 0.0
C1310 C 0.74462 0.51476 0.3593 0.0
C1311 C 0.78519 0.55321 0.39605 0.0
N1312 N 0.7152 0.52118 0.26687 0.0
N1313 N 0.77177 0.55429 0.34615 0.0
H1314 H 0.53662 0.82387 0.9199 0.0
H1315 H 0.57278 0.80432 0.54965 0.0
H1316 H 0.58948 0.87788 0.80054 0.0
H1317 H 0.5205 0.75083 0.67215 0.0
H1318 H 0.58069 0.83116 0.6426 0.0
H1319 H 0.53197 0.79662 0.83144 0.0
C1320 C 0.54737 0.83001 0.87528 0.0
C1321 C 0.56343 0.85325 0.86767 0.0
C1322 C 0.56761 0.8135 0.64921 0.0
C1323 C 0.55809 0.82205 0.76563 0.0
C1324 C 0.56317 0.79805 0.59621 0.0
C1325 C 0.54598 0.77509 0.60285 0.0
C1326 C 0.55476 0.80602 0.7093 0.0
C1327 C 0.53381 0.76832 0.66424 0.0
C1328 C 0.54468 0.81441 0.82464 0.0
C1329 C 0.57685 0.86014 0.80861 0.0
N1330 N 0.53839 0.78367 0.71478 0.0
N1331 N 0.57381 0.84464 0.75977 0.0
H1332 H 0.2486 0.79555 0.61902 0.0
H1333 H 0.18256 0.67358 0.80059 0.0
H1334 H 0.25896 0.73892 0.5741 0.0
H1335 H 0.1864 0.73349 0.89132 0.0
H1336 H 0.20683 0.69699 0.70863 0.0
H1337 H 0.22207 0.77278 0.71028 0.0
C1338 C 0.24512 0.77829 0.62772 0.0
C1339 C 0.256 0.7691 0.5887 0.0
C1340 C 0.20242 0.70511 0.74854 0.0
C1341 C 0.22587 0.74314 0.69274 0.0
C1342 C 0.18847 0.6917 0.80119 0.0
C1343 C 0.18242 0.70156 0.854 0.0
C1344 C 0.2104 0.72866 0.74786 0.0
C1345 C 0.19071 0.7252 0.85175 0.0
C1346 C 0.23015 0.76541 0.68013 0.0
C1347 C 0.25111 0.74678 0.60302 0.0
N1348 N 0.20427 0.73798 0.79938 0.0
N1349 N 0.23642 0.73462 0.65349 0.0
H1350 H 0.29601 0.45724 0.88976 0.0
H1351 H 0.28619 0.52917 0.58419 0.0
H1352 H 0.35328 0.51775 0.80658 0.0
H1353 H 0.23596 0.45828 0.61353 0.0
H1354 H 0.3094 0.52614 0.67365 0.0
H1355 H 0.27201 0.45811 0.79706 0.0
C1356 C 0.30351 0.47069 0.85221 0.0
C1357 C 0.3267 0.48744 0.85593 0.0
C1358 C 0.29339 0.51116 0.66034 0.0
C1359 C 0.29942 0.48859 0.7505 0.0
C1360 C 0.28009 0.51289 0.60929 0.0
C1361 C 0.25917 0.49392 0.59096 0.0
C1362 C 0.28562 0.49038 0.69461 0.0
C1363 C 0.25214 0.47325 0.62536 0.0
C1364 C 0.28986 0.4711 0.79923 0.0
C1365 C 0.33555 0.50443 0.80578 0.0
N1366 N 0.26526 0.47206 0.67603 0.0
N1367 N 0.3219 0.50463 0.75559 0.0
H1368 H 0.1616 0.5341 0.43056 0.0
H1369 H 0.12784 0.55378 0.80395 0.0
H1370 H 0.11054 0.48004 0.55412 0.0
H1371 H 0.17978 0.60719 0.68047 0.0
H1372 H 0.11893 0.52712 0.70993 0.0
H1373 H 0.16611 0.5616 0.51813 0.0
C1374 C 0.15118 0.52801 0.47582 0.0
C1375 C 0.13576 0.50466 0.48506 0.0
C1376 C 0.13214 0.54473 0.70327 0.0
C1377 C 0.14096 0.53613 0.58604 0.0
C1378 C 0.13715 0.56008 0.75691 0.0
C1379 C 0.15457 0.58294 0.75036 0.0
C1380 C 0.14465 0.55221 0.64259 0.0
C1381 C 0.16632 0.58976 0.68828 0.0
C1382 C 0.1538 0.54374 0.52596 0.0
C1383 C 0.1227 0.49784 0.54482 0.0
N1384 N 0.1612 0.5745 0.6371 0.0
N1385 N 0.1257 0.51346 0.59317 0.0
H1386 H 0.4955 0.63488 0.42978 0.0
H1387 H 0.4759 0.58074 0.80236 0.0
H1388 H 0.54968 0.63786 0.5531 0.0
H1389 H 0.42258 0.58003 0.67981 0.0
H1390 H 0.50257 0.59872 0.70852 0.0
H1391 H 0.46808 0.61192 0.5174 0.0
C1392 C 0.50164 0.63058 0.47503 0.0
C1393 C 0.525 0.63848 0.48414 0.0
C1394 C 0.48498 0.59444 0.70203 0.0
C1395 C 0.4936 0.61221 0.5852 0.0
C1396 C 0.46962 0.58397 0.75556 0.0
C1397 C 0.44678 0.57868 0.74922 0.0
C1398 C 0.47753 0.59973 0.64167 0.0
C1399 C 0.44 0.58388 0.68746 0.0
C1400 C 0.48595 0.61748 0.5252 0.0
C1401 C 0.53187 0.63225 0.54389 0.0
N1402 N 0.45526 0.59413 0.63639 0.0
N1403 N 0.51629 0.61962 0.59226 0.0
H1404 H 0.4641 0.90025 0.75444 0.0
H1405 H 0.3739 0.82875 0.4628 0.0
H1406 H 0.43227 0.82727 0.7277 0.0
H1407 H 0.3986 0.9005 0.49434 0.0
H1408 H 0.39655 0.82894 0.55857 0.0
H1409 H 0.44113 0.90156 0.66022 0.0
C1410 C 0.45214 0.88446 0.72975 0.0
C1411 C 0.45016 0.86355 0.74976 0.0
C1412 C 0.39712 0.84472 0.54477 0.0
C1413 C 0.42415 0.86512 0.64069 0.0
C1414 C 0.3842 0.84465 0.48965 0.0
C1415 C 0.38432 0.86466 0.47019 0.0
C1416 C 0.41044 0.86497 0.58126 0.0
C1417 C 0.398 0.88468 0.50747 0.0
C1418 C 0.43914 0.88529 0.67543 0.0
C1419 C 0.43462 0.84382 0.71423 0.0
N1420 N 0.41054 0.88433 0.56128 0.0
N1421 N 0.42235 0.84513 0.66171 0.0
H1422 H 0.33909 0.39132 0.20961 0.0
H1423 H 0.21046 0.28955 0.21431 0.0
H1424 H 0.28442 0.39691 0.11646 0.0
H1425 H 0.26794 0.28253 0.2758 0.0
H1426 H 0.23688 0.32784 0.172 0.0
H1427 H 0.31328 0.35069 0.22701 0.0
C1428 C 0.32163 0.38385 0.19199 0.0
C1429 C 0.31385 0.39748 0.1617 0.0
C1430 C 0.2437 0.31782 0.19401 0.0
C1431 C 0.2839 0.35085 0.18276 0.0
C1432 C 0.22863 0.29591 0.21831 0.0
C1433 C 0.23695 0.28275 0.24924 0.0
C1434 C 0.26731 0.32676 0.201 0.0
C1435 C 0.26068 0.292 0.25279 0.0
C1436 C 0.30687 0.36062 0.20198 0.0
C1437 C 0.29111 0.38694 0.13964 0.0
N1438 N 0.27496 0.31345 0.22957 0.0
N1439 N 0.2768 0.36426 0.1515 0.0
H1440 H 0.74967 0.99244 0.27055 0.0
H1441 H 0.63345 0.89229 0.11058 0.0
H1442 H 0.74186 0.92785 0.20651 0.0
H1443 H 0.63974 0.95085 0.21694 0.0
H1444 H 0.67486 0.90776 0.12457 0.0
H1445 H 0.71118 0.98015 0.23006 0.0
C1446 C 0.73999 0.97575 0.24736 0.0
C1447 C 0.74904 0.96111 0.24262 0.0
C1448 C 0.66716 0.91732 0.14396 0.0
C1449 C 0.70469 0.94682 0.19626 0.0
C1450 C 0.64362 0.90859 0.13553 0.0
C1451 C 0.63323 0.92029 0.16297 0.0
C1452 C 0.68025 0.93796 0.17931 0.0
C1453 C 0.64707 0.94121 0.19554 0.0
C1454 C 0.71794 0.96871 0.22432 0.0
C1455 C 0.73559 0.9397 0.21161 0.0
N1456 N 0.66977 0.9493 0.20298 0.0
N1457 N 0.71403 0.93312 0.19012 0.0
H1458 H 0.03887 0.76243 0.286 0.0
H1459 H 0.13704 0.74532 0.11522 0.0
H1460 H 0.10341 0.81873 0.22012 0.0
H1461 H 0.07866 0.69288 0.22154 0.0
H1462 H 0.12235 0.77168 0.13449 0.0
H1463 H 0.05067 0.73596 0.24411 0.0
C1464 C 0.05546 0.76926 0.26232 0.0
C1465 C 0.07021 0.79289 0.25719 0.0
C1466 C 0.11267 0.7543 0.15282 0.0
C1467 C 0.08389 0.76255 0.20902 0.0
C1468 C 0.12096 0.73926 0.14137 0.0
C1469 C 0.10909 0.71697 0.16718 0.0
C1470 C 0.09231 0.74682 0.18959 0.0
C1471 C 0.08846 0.71001 0.2014 0.0
C1472 C 0.06221 0.75411 0.23842 0.0
C1473 C 0.09149 0.80066 0.22557 0.0
N1474 N 0.08079 0.72486 0.21175 0.0
N1475 N 0.09774 0.78554 0.20305 0.0
H1476 H 0.82607 0.73583 0.81029 0.0
H1477 H 0.69753 0.63417 0.81424 0.0
H1478 H 0.76862 0.7429 0.74862 0.0
H1479 H 0.75213 0.62856 0.90786 0.0
H1480 H 0.72328 0.67484 0.79767 0.0
H1481 H 0.79962 0.69765 0.85323 0.0
C1482 C 0.80791 0.72951 0.80643 0.0
C1483 C 0.7996 0.74263 0.77516 0.0
C1484 C 0.72968 0.6649 0.82266 0.0
C1485 C 0.76922 0.69876 0.82409 0.0
C1486 C 0.71496 0.64165 0.83215 0.0
C1487 C 0.72275 0.62801 0.86227 0.0
C1488 C 0.75262 0.67467 0.84219 0.0
C1489 C 0.74544 0.63854 0.88476 0.0
C1490 C 0.79282 0.70767 0.83107 0.0
C1491 C 0.77587 0.73344 0.77183 0.0
N1492 N 0.75973 0.66125 0.87334 0.0
N1493 N 0.76158 0.71204 0.79534 0.0
H1494 H 0.29573 0.09721 0.80975 0.0
H1495 H 0.39765 0.07034 0.81099 0.0
H1496 H 0.28898 0.03315 0.74472 0.0
H1497 H 0.40319 0.13025 0.90639 0.0
H1498 H 0.35705 0.05568 0.79354 0.0
H1499 H 0.33406 0.10894 0.85167 0.0
C1500 C 0.30216 0.08548 0.80488 0.0
C1501 C 0.28907 0.06416 0.7731 0.0
C1502 C 0.36697 0.07191 0.81905 0.0
C1503 C 0.3331 0.07764 0.82089 0.0
C1504 C 0.39018 0.08029 0.82903 0.0
C1505 C 0.40379 0.10156 0.85996 0.0
C1506 C 0.35719 0.08505 0.83897 0.0
C1507 C 0.39325 0.11371 0.88266 0.0
C1508 C 0.32409 0.09222 0.82895 0.0
C1509 C 0.2984 0.04976 0.76842 0.0
N1510 N 0.37057 0.10542 0.87083 0.0
N1511 N 0.31986 0.05684 0.79147 0.0
H1512 H 0.95912 0.33264 0.80919 0.0
H1513 H 0.93357 0.2043 0.81048 0.0
H1514 H 0.8995 0.2782 0.90504 0.0
H1515 H 0.99721 0.26178 0.74423 0.0
H1516 H 0.92149 0.23072 0.85179 0.0
H1517 H 0.97413 0.30694 0.79242 0.0
C1518 C 0.94931 0.31525 0.82748 0.0
C1519 C 0.92801 0.3075 0.85834 0.0
C1520 C 0.93819 0.23754 0.82894 0.0
C1521 C 0.94493 0.27767 0.83808 0.0
C1522 C 0.94514 0.22247 0.80523 0.0
C1523 C 0.96644 0.23078 0.77329 0.0
C1524 C 0.95256 0.26112 0.82037 0.0
C1525 C 0.98062 0.25451 0.76807 0.0
C1526 C 0.95789 0.30056 0.81787 0.0
C1527 C 0.91605 0.28486 0.88136 0.0
N1528 N 0.97334 0.26878 0.79079 0.0
N1529 N 0.92453 0.2706 0.86988 0.0
H1530 H 0.93472 0.61648 0.61601 0.0
H1531 H 0.95115 0.73147 0.445 0.0
H1532 H 0.87819 0.62365 0.5451 0.0
H1533 H 1.00284 0.72634 0.55895 0.0
H1534 H 0.92526 0.69023 0.46184 0.0
H1535 H 0.96097 0.65496 0.57567 0.0
C1536 C 0.9278 0.62603 0.59142 0.0
C1537 C 0.90415 0.61679 0.58457 0.0
C1538 C 0.94238 0.69816 0.4824 0.0
C1539 C 0.93424 0.6611 0.5383 0.0
C1540 C 0.95716 0.72161 0.47238 0.0
C1541 C 0.97909 0.7323 0.50099 0.0
C1542 C 0.94978 0.68544 0.52049 0.0
C1543 C 0.98599 0.71881 0.53664 0.0
C1544 C 0.94282 0.64807 0.56847 0.0
C1545 C 0.89627 0.63007 0.55185 0.0
N1546 N 0.97141 0.69618 0.54549 0.0
N1547 N 0.91126 0.6516 0.53035 0.0
H1548 H 0.40953 0.26144 0.5428 0.0
H1549 H 0.30787 0.28858 0.5388 0.0
H1550 H 0.41678 0.32621 0.60195 0.0
H1551 H 0.30176 0.22777 0.44832 0.0
H1552 H 0.34863 0.30351 0.55389 0.0
H1553 H 0.37123 0.24961 0.50037 0.0
C1554 C 0.40324 0.27332 0.54612 0.0
C1555 C 0.41645 0.29485 0.57663 0.0
C1556 C 0.33856 0.28703 0.52989 0.0
C1557 C 0.37241 0.28124 0.52835 0.0
C1558 C 0.31526 0.2785 0.52122 0.0
C1559 C 0.30146 0.2569 0.49243 0.0
C1560 C 0.34823 0.2737 0.5109 0.0
C1561 C 0.31187 0.24457 0.47038 0.0
C1562 C 0.38132 0.26651 0.52181 0.0
C1563 C 0.40727 0.30943 0.57934 0.0
N1564 N 0.33464 0.253 0.48101 0.0
N1565 N 0.3858 0.30227 0.5562 0.0
H1566 H 0.74387 0.02496 0.54359 0.0
H1567 H 0.77023 0.1535 0.54528 0.0
H1568 H 0.80347 0.07932 0.44741 0.0
H1569 H 0.70644 0.09615 0.61118 0.0
H1570 H 0.78197 0.12698 0.50251 0.0
H1571 H 0.72905 0.05078 0.56118 0.0
C1572 C 0.75371 0.04236 0.5254 0.0
C1573 C 0.77495 0.05006 0.49423 0.0
C1574 C 0.7653 0.12021 0.5256 0.0
C1575 C 0.75826 0.08001 0.5154 0.0
C1576 C 0.75856 0.13534 0.55014 0.0
C1577 C 0.73733 0.12708 0.58247 0.0
C1578 C 0.7508 0.09663 0.53372 0.0
C1579 C 0.72299 0.10336 0.58711 0.0
C1580 C 0.74524 0.05712 0.53546 0.0
C1581 C 0.78696 0.07271 0.47135 0.0
N1582 N 0.73008 0.08903 0.5636 0.0
N1583 N 0.77859 0.08704 0.48328 0.0
H1584 H 0.3639 0.97098 0.17413 0.0
H1585 H 0.49389 0.06912 0.1427 0.0
H1586 H 0.41971 0.96196 0.23937 0.0
H1587 H 0.43655 0.07788 0.09278 0.0
H1588 H 0.46751 0.03136 0.18849 0.0
H1589 H 0.39044 1.01143 0.15614 0.0
C1590 C 0.38179 0.97769 0.18579 0.0
C1591 C 0.38966 0.96316 0.20818 0.0
C1592 C 0.46073 0.04164 0.16822 0.0
C1593 C 0.42039 1.00951 0.18601 0.0
C1594 C 0.47577 0.06325 0.14198 0.0
C1595 C 0.46746 0.07674 0.11324 0.0
C1596 C 0.43713 0.03334 0.16562 0.0
C1597 C 0.4438 0.06813 0.11391 0.0
C1598 C 0.39697 1.0008 0.1753 0.0
C1599 C 0.41297 0.97267 0.22252 0.0
N1600 N 0.42952 0.04696 0.13911 0.0
N1601 N 0.42762 0.99525 0.21022 0.0
H1602 H 0.06968 0.46338 0.24225 0.0
H1603 H 0.95318 0.36442 0.07994 0.0
H1604 H 0.06247 0.40359 0.14112 0.0
H1605 H 0.96236 0.42985 0.14065 0.0
H1606 H 0.99142 0.37609 0.12165 0.0
H1607 H 0.02861 0.44889 0.22484 0.0
C1608 C 0.05939 0.44704 0.21764 0.0
C1609 C 0.06947 0.4347 0.19272 0.0
C1610 C 0.98502 0.38785 0.12632 0.0
C1611 C 0.02278 0.41814 0.17247 0.0
C1612 C 0.96312 0.38117 0.10257 0.0
C1613 C 0.95452 0.39621 0.10614 0.0
C1614 C 0.99855 0.40976 0.15397 0.0
C1615 C 0.96828 0.41769 0.13644 0.0
C1616 C 0.03604 0.43886 0.20726 0.0
C1617 C 0.05543 0.41375 0.16051 0.0
N1618 N 0.98965 0.42388 0.15874 0.0
N1619 N 0.03291 0.4062 0.15115 0.0
H1620 H 0.66466 0.59535 0.0791 0.0
H1621 H 0.56633 0.61265 0.24756 0.0
H1622 H 0.60067 0.539 0.14817 0.0
H1623 H 0.62246 0.6635 0.12997 0.0
H1624 H 0.58176 0.58671 0.23249 0.0
H1625 H 0.65253 0.62175 0.11902 0.0
C1626 C 0.64815 0.58849 0.1033 0.0
C1627 C 0.63361 0.56484 0.10961 0.0
C1628 C 0.59079 0.60366 0.21078 0.0
C1629 C 0.61953 0.59515 0.15536 0.0
C1630 C 0.58209 0.61848 0.21979 0.0
C1631 C 0.5931 0.64018 0.18965 0.0
C1632 C 0.61074 0.6108 0.17222 0.0
C1633 C 0.61333 0.64683 0.15352 0.0
C1634 C 0.6412 0.60361 0.12597 0.0
C1635 C 0.61243 0.55708 0.14182 0.0
N1636 N 0.62143 0.63223 0.14571 0.0
N1637 N 0.60595 0.57217 0.16304 0.0
H1638 H 0.54633 0.9552 0.87307 0.0
H1639 H 0.67351 0.05946 0.89817 0.0
H1640 H 0.60211 0.95039 0.96225 0.0
H1641 H 0.62125 0.06294 0.7822 0.0
H1642 H 0.64783 0.01886 0.91595 0.0
H1643 H 0.5734 0.99369 0.83389 0.0
C1644 C 0.56429 0.9621 0.8839 0.0
C1645 C 0.57189 0.94948 0.92155 0.0
C1646 C 0.64195 0.02834 0.88598 0.0
C1647 C 0.603 0.99376 0.87689 0.0
C1648 C 0.65662 0.05158 0.87584 0.0
C1649 C 0.64948 0.06464 0.83889 0.0
C1650 C 0.61969 0.01794 0.85995 0.0
C1651 C 0.62748 0.05348 0.8107 0.0
C1652 C 0.57974 0.98413 0.86138 0.0
C1653 C 0.59539 0.95943 0.93376 0.0
N1654 N 0.61323 0.03079 0.82257 0.0
N1655 N 0.61003 0.98099 0.91203 0.0
H1656 H 0.97248 0.61969 0.88102 0.0
H1657 H 0.07457 0.5931 0.87836 0.0
H1658 H 0.96676 0.55998 0.78368 0.0
H1659 H 0.0814 0.65727 0.94265 0.0
H1660 H 0.03609 0.58126 0.83724 0.0
H1661 H 1.01315 0.6344 0.89707 0.0
C1662 C 0.97993 0.60979 0.86226 0.0
C1663 C 0.96626 0.58858 0.83116 0.0
C1664 C 0.04613 0.59802 0.85957 0.0
C1665 C 1.01294 0.60514 0.85058 0.0
C1666 C 0.06814 0.60484 0.88314 0.0
C1667 C 0.08129 0.62621 0.91457 0.0
C1668 C 0.03711 0.6126 0.86779 0.0
C1669 C 0.07194 0.64061 0.91925 0.0
C1670 C 1.00318 0.61821 0.87144 0.0
C1671 C 0.97676 0.57649 0.80756 0.0
N1672 N 0.05042 0.63346 0.89673 0.0
N1673 N 0.99949 0.5848 0.81865 0.0
H1674 H 0.47084 0.41353 0.77889 0.0
H1675 H 0.37102 0.43082 0.93602 0.0
H1676 H 0.41043 0.36093 0.87696 0.0
H1677 H 0.43664 0.48726 0.8785 0.0
H1678 H 0.38292 0.40445 0.89434 0.0
H1679 H 0.45629 0.44018 0.79506 0.0
C1680 C 0.45435 0.4075 0.80252 0.0
C1681 C 0.44185 0.38506 0.82699 0.0
C1682 C 0.39468 0.42261 0.89032 0.0
C1683 C 0.42522 0.41524 0.84578 0.0
C1684 C 0.38787 0.43772 0.91406 0.0
C1685 C 0.40289 0.46135 0.91143 0.0
C1686 C 0.41674 0.43107 0.86371 0.0
C1687 C 0.42449 0.46918 0.8819 0.0
C1688 C 0.44614 0.4227 0.81219 0.0
C1689 C 0.42071 0.37815 0.85793 0.0
N1690 N 0.43084 0.45408 0.85969 0.0
N1691 N 0.41314 0.39314 0.8666 0.0
H1692 H 0.10263 0.41089 0.4208 0.0
H1693 H 0.08649 0.29472 0.58187 0.0
H1694 H 0.15931 0.40262 0.48303 0.0
H1695 H 0.03397 0.30123 0.47768 0.0
H1696 H 0.11253 0.33602 0.56674 0.0
H1697 H 0.07642 0.3726 0.46256 0.0
C1698 C 0.1096 0.40116 0.4439 0.0
C1699 C 0.13327 0.41001 0.4477 0.0
C1700 C 0.09519 0.32839 0.54806 0.0
C1701 C 0.10321 0.36589 0.49548 0.0
C1702 C 0.08034 0.30491 0.55712 0.0
C1703 C 0.05813 0.29459 0.53063 0.0
C1704 C 0.0876 0.34153 0.51304 0.0
C1705 C 0.05104 0.30849 0.4983 0.0
C1706 C 0.0946 0.37922 0.46765 0.0
C1707 C 0.14121 0.39651 0.47863 0.0
N1708 N 0.0657 0.33114 0.49024 0.0
N1709 N 0.12623 0.37506 0.5008 0.0
H1710 H 0.73522 0.79572 0.57974 0.0
H1711 H 0.61959 0.69787 0.40996 0.0
H1712 H 0.72919 0.73804 0.46855 0.0
H1713 H 0.62734 0.76159 0.4828 0.0
H1714 H 0.65794 0.70953 0.45073 0.0
H1715 H 0.69399 0.78067 0.56388 0.0
C1716 C 0.72517 0.77971 0.55321 0.0
C1717 C 0.73562 0.76817 0.52505 0.0
C1718 C 0.65119 0.7209 0.45832 0.0
C1719 C 0.68872 0.75096 0.50657 0.0
C1720 C 0.62922 0.71421 0.43515 0.0
C1721 C 0.6202 0.72882 0.44228 0.0
C1722 C 0.66438 0.74238 0.48896 0.0
C1723 C 0.63358 0.74978 0.47578 0.0
C1724 C 0.70171 0.77122 0.54374 0.0
C1725 C 0.72186 0.74762 0.49048 0.0
N1726 N 0.65504 0.756 0.49737 0.0
N1727 N 0.69923 0.73975 0.48206 0.0
H1728 H 0.26644 0.86896 0.48756 0.0
H1729 H 0.29277 0.99754 0.48356 0.0
H1730 H 0.33061 0.92631 0.42421 0.0
H1731 H 0.23243 0.94349 0.57752 0.0
H1732 H 0.30769 0.97165 0.46955 0.0
H1733 H 0.25441 0.89553 0.52825 0.0
C1734 C 0.27817 0.88712 0.48306 0.0
C1735 C 0.29958 0.89536 0.45189 0.0
C1736 C 0.29131 0.96539 0.49404 0.0
C1737 C 0.28574 0.92586 0.49805 0.0
C1738 C 0.28278 0.9802 0.50208 0.0
C1739 C 0.26133 0.97262 0.53161 0.0
C1740 C 0.27812 0.94254 0.51443 0.0
C1741 C 0.24912 0.95001 0.55487 0.0
C1742 C 0.27123 0.90227 0.5063 0.0
C1743 C 0.31393 0.91909 0.44742 0.0
N1744 N 0.25755 0.93562 0.54488 0.0
N1745 N 0.30667 0.93342 0.4696 0.0
loop_
_geom_bond_atom_site_label_1
_geom_bond_atom_site_label_2
_geom_bond_distance
_geom_bond_site_symmetry_2
_ccdc_geom_bond_type
Zn0 N4 2.020 . S
Zn0 O8 2.019 . S
Zn0 N10 2.119 . S
Zn0 O18 1.975 . S
C1 N2 1.334 . S
C1 N5 1.336 . S
N2 C1 1.334 . S
N2 C3 1.334 . S
C3 N2 1.334 . S
C3 N4 1.336 . S
N4 Zn0 2.020 . S
N4 C3 1.336 . S
N4 N5 1.354 . S
N5 C1 1.336 . S
N5 N4 1.354 . S
N5 Zn9 2.020 . S
C6 O7 1.244 . S
C6 O30 1.257 . S
O7 C6 1.244 . S
O8 Zn0 2.019 . S
O8 C28 1.257 . S
Zn9 N5 2.020 . S
Zn9 O16 1.975 . S
Zn9 N25 2.119 . S
Zn9 O30 2.019 . S
N10 Zn0 2.119 . S
N10 C12 1.334 . S
N10 C13 1.328 . S
C11 C12 1.391 . S
C11 N14 1.329 . S
C11 H32 0.930 . S
C12 N10 1.334 . S
C12 C11 1.391 . S
C12 H19 0.930 . S
C13 N10 1.328 . S
C13 C15 1.392 . S
C13 H20 0.930 . S
N14 C11 1.329 . S
N14 C15 1.331 . S
C15 C13 1.392 . S
C15 N14 1.331 . S
O16 Zn9 1.975 . S
O16 C17 1.252 . S
C17 O16 1.252 . S
C17 O18 1.252 . S
O18 Zn0 1.975 . S
O18 C17 1.252 . S
H19 C12 0.930 . S
H20 C13 0.930 . S
C21 C22 1.392 . S
C21 N25 1.328 . S
C21 H27 0.930 . S
C22 C21 1.392 . S
C22 N26 1.331 . S
C23 C24 1.391 . S
C23 N26 1.329 . S
C23 H33 0.930 . S
C24 C23 1.391 . S
C24 N25 1.334 . S
C24 H31 0.930 . S
N25 Zn9 2.119 . S
N25 C21 1.328 . S
N25 C24 1.334 . S
N26 C22 1.331 . S
N26 C23 1.329 . S
H27 C21 0.930 . S
C28 O8 1.257 . S
C28 O29 1.244 . S
O29 C28 1.244 . S
O30 C6 1.257 . S
O30 Zn9 2.019 . S
H31 C24 0.930 . S
H32 C11 0.930 . S
H33 C23 0.930 . S
Zn34 N38 2.020 . S
Zn34 O42 2.019 . S
Zn34 N44 2.119 . S
Zn34 O52 1.975 . S
C35 N36 1.334 . S
C35 N39 1.336 . S
N36 C35 1.334 . S
N36 C37 1.334 . S
C37 N36 1.334 . S
C37 N38 1.336 . S
N38 Zn34 2.020 . S
N38 C37 1.336 . S
N38 N39 1.354 . S
N39 C35 1.336 . S
N39 N38 1.354 . S
N39 Zn43 2.020 . S
C40 O41 1.244 . S
C40 O64 1.257 . S
O41 C40 1.244 . S
O42 Zn34 2.019 . S
O42 C62 1.257 . S
Zn43 N39 2.020 . S
Zn43 O50 1.975 . S
Zn43 N59 2.119 . S
Zn43 O64 2.019 1_565 S
N44 Zn34 2.119 . S
N44 C46 1.334 . S
N44 C47 1.328 . S
C45 C46 1.391 . S
C45 N48 1.329 . S
C45 H66 0.930 . S
C46 N44 1.334 . S
C46 C45 1.391 . S
C46 H53 0.930 . S
C47 N44 1.328 . S
C47 C49 1.392 . S
C47 H54 0.930 . S
N48 C45 1.329 . S
N48 C49 1.331 . S
C49 C47 1.392 . S
C49 N48 1.331 . S
O50 Zn43 1.975 . S
O50 C51 1.252 . S
C51 O50 1.252 . S
C51 O52 1.252 . S
O52 Zn34 1.975 . S
O52 C51 1.252 . S
H53 C46 0.930 . S
H54 C47 0.930 . S
C55 C56 1.392 . S
C55 N59 1.328 1_545 S
C55 H61 0.930 . S
C56 C55 1.392 . S
C56 N60 1.331 . S
C57 C58 1.391 . S
C57 N60 1.329 1_565 S
C57 H67 0.930 . S
C58 C57 1.391 . S
C58 N59 1.334 . S
C58 H65 0.930 . S
N59 Zn43 2.119 . S
N59 C55 1.328 1_565 S
N59 C58 1.334 . S
N60 C56 1.331 . S
N60 C57 1.329 1_545 S
H61 C55 0.930 . S
C62 O42 1.257 . S
C62 O63 1.244 . S
O63 C62 1.244 . S
O64 C40 1.257 . S
O64 Zn43 2.019 1_545 S
H65 C58 0.930 . S
H66 C45 0.930 . S
H67 C57 0.930 . S
Zn68 N72 2.020 . S
Zn68 O76 2.019 . S
Zn68 N78 2.119 . S
Zn68 O86 1.975 . S
C69 N70 1.334 . S
C69 N73 1.336 . S
N70 C69 1.334 . S
N70 C71 1.334 . S
C71 N70 1.334 . S
C71 N72 1.336 . S
N72 Zn68 2.020 . S
N72 C71 1.336 . S
N72 N73 1.354 . S
N73 C69 1.336 . S
N73 N72 1.354 . S
N73 Zn77 2.020 . S
C74 O75 1.244 . S
C74 O98 1.257 . S
O75 C74 1.244 . S
O76 Zn68 2.019 . S
O76 C96 1.257 . S
Zn77 N73 2.020 . S
Zn77 O84 1.975 . S
Zn77 N93 2.119 . S
Zn77 O98 2.019 1_455 S
N78 Zn68 2.119 . S
N78 C80 1.334 . S
N78 C81 1.328 . S
C79 C80 1.391 . S
C79 N82 1.329 . S
C79 H100 0.930 . S
C80 N78 1.334 . S
C80 C79 1.391 . S
C80 H87 0.930 . S
C81 N78 1.328 . S
C81 C83 1.392 . S
C81 H88 0.930 . S
N82 C79 1.329 . S
N82 C83 1.331 . S
C83 C81 1.392 . S
C83 N82 1.331 . S
O84 Zn77 1.975 . S
O84 C85 1.252 . S
C85 O84 1.252 . S
C85 O86 1.252 . S
O86 Zn68 1.975 . S
O86 C85 1.252 . S
H87 C80 0.930 . S
H88 C81 0.930 . S
C89 C90 1.392 . S
C89 N93 1.328 1_655 S
C89 H95 0.930 . S
C90 C89 1.392 . S
C90 N94 1.331 . S
C91 C92 1.391 . S
C91 N94 1.329 1_455 S
C91 H101 0.930 . S
C92 C91 1.391 . S
C92 N93 1.334 . S
C92 H99 0.930 . S
N93 Zn77 2.119 . S
N93 C89 1.328 1_455 S
N93 C92 1.334 . S
N94 C90 1.331 . S
N94 C91 1.329 1_655 S
H95 C89 0.930 . S
C96 O76 1.257 . S
C96 O97 1.244 . S
O97 C96 1.244 . S
O98 C74 1.257 . S
O98 Zn77 2.019 1_655 S
H99 C92 0.930 . S
H100 C79 0.930 . S
H101 C91 0.930 . S
Zn102 N106 2.020 . S
Zn102 O110 2.019 . S
Zn102 N112 2.119 . S
Zn102 O120 1.975 . S
C103 N104 1.334 . S
C103 N107 1.336 . S
N104 C103 1.334 . S
N104 C105 1.334 . S
C105 N104 1.334 . S
C105 N106 1.336 . S
N106 Zn102 2.020 . S
N106 C105 1.336 . S
N106 N107 1.354 . S
N107 C103 1.336 . S
N107 N106 1.354 . S
N107 Zn111 2.020 . S
C108 O109 1.244 . S
C108 O132 1.257 . S
O109 C108 1.244 . S
O110 Zn102 2.019 . S
O110 C130 1.257 . S
Zn111 N107 2.020 . S
Zn111 O118 1.975 . S
Zn111 N127 2.119 . S
Zn111 O132 2.019 . S
N112 Zn102 2.119 . S
N112 C114 1.334 . S
N112 C115 1.328 . S
C113 C114 1.391 . S
C113 N116 1.329 . S
C113 H134 0.930 . S
C114 N112 1.334 . S
C114 C113 1.391 . S
C114 H121 0.930 . S
C115 N112 1.328 . S
C115 C117 1.392 . S
C115 H122 0.930 . S
N116 C113 1.329 . S
N116 C117 1.331 . S
C117 C115 1.392 . S
C117 N116 1.331 . S
O118 Zn111 1.975 . S
O118 C119 1.252 . S
C119 O118 1.252 . S
C119 O120 1.252 . S
O120 Zn102 1.975 . S
O120 C119 1.252 . S
H121 C114 0.930 . S
H122 C115 0.930 . S
C123 C124 1.392 . S
C123 N127 1.328 . S
C123 H129 0.930 . S
C124 C123 1.392 . S
C124 N128 1.331 . S
C125 C126 1.391 . S
C125 N128 1.329 . S
C125 H135 0.930 . S
C126 C125 1.391 . S
C126 N127 1.334 . S
C126 H133 0.930 . S
N127 Zn111 2.119 . S
N127 C123 1.328 . S
N127 C126 1.334 . S
N128 C124 1.331 . S
N128 C125 1.329 . S
H129 C123 0.930 . S
C130 O110 1.257 . S
C130 O131 1.244 . S
O131 C130 1.244 . S
O132 C108 1.257 . S
O132 Zn111 2.019 . S
H133 C126 0.930 . S
H134 C113 0.930 . S
H135 C125 0.930 . S
Zn136 N140 2.020 . S
Zn136 O144 2.019 . S
Zn136 N146 2.119 . S
Zn136 O154 1.975 . S
C137 N138 1.334 . S
C137 N141 1.336 . S
N138 C137 1.334 . S
N138 C139 1.334 . S
C139 N138 1.334 . S
C139 N140 1.336 . S
N140 Zn136 2.020 . S
N140 C139 1.336 . S
N140 N141 1.354 . S
N141 C137 1.336 . S
N141 N140 1.354 . S
N141 Zn145 2.020 . S
C142 O143 1.244 . S
C142 O166 1.257 . S
O143 C142 1.244 . S
O144 Zn136 2.019 . S
O144 C164 1.257 . S
Zn145 N141 2.020 . S
Zn145 O152 1.975 . S
Zn145 N161 2.119 . S
Zn145 O166 2.019 1_545 S
N146 Zn136 2.119 . S
N146 C148 1.334 . S
N146 C149 1.328 . S
C147 C148 1.391 . S
C147 N150 1.329 . S
C147 H168 0.930 . S
C148 N146 1.334 . S
C148 C147 1.391 . S
C148 H155 0.930 . S
C149 N146 1.328 . S
C149 C151 1.392 . S
C149 H156 0.930 . S
N150 C147 1.329 . S
N150 C151 1.331 . S
C151 C149 1.392 . S
C151 N150 1.331 . S
O152 Zn145 1.975 . S
O152 C153 1.252 . S
C153 O152 1.252 . S
C153 O154 1.252 . S
O154 Zn136 1.975 . S
O154 C153 1.252 . S
H155 C148 0.930 . S
H156 C149 0.930 . S
C157 C158 1.392 . S
C157 N161 1.328 1_565 S
C157 H163 0.930 . S
C158 C157 1.392 . S
C158 N162 1.331 . S
C159 C160 1.391 . S
C159 N162 1.329 1_545 S
C159 H169 0.930 . S
C160 C159 1.391 . S
C160 N161 1.334 . S
C160 H167 0.930 . S
N161 Zn145 2.119 . S
N161 C157 1.328 1_545 S
N161 C160 1.334 . S
N162 C158 1.331 . S
N162 C159 1.329 1_565 S
H163 C157 0.930 . S
C164 O144 1.257 . S
C164 O165 1.244 . S
O165 C164 1.244 . S
O166 C142 1.257 . S
O166 Zn145 2.019 1_565 S
H167 C160 0.930 . S
H168 C147 0.930 . S
H169 C159 0.930 . S
Zn170 N174 2.020 . S
Zn170 O178 2.019 . S
Zn170 N180 2.119 . S
Zn170 O188 1.975 . S
C171 N172 1.334 . S
C171 N175 1.336 . S
N172 C171 1.334 . S
N172 C173 1.334 . S
C173 N172 1.334 . S
C173 N174 1.336 . S
N174 Zn170 2.020 . S
N174 C173 1.336 . S
N174 N175 1.354 . S
N175 C171 1.336 . S
N175 N174 1.354 . S
N175 Zn179 2.020 . S
C176 O177 1.244 . S
C176 O200 1.257 . S
O177 C176 1.244 . S
O178 Zn170 2.019 . S
O178 C198 1.257 . S
Zn179 N175 2.020 . S
Zn179 O186 1.975 . S
Zn179 N195 2.119 . S
Zn179 O200 2.019 1_655 S
N180 Zn170 2.119 . S
N180 C182 1.334 . S
N180 C183 1.328 . S
C181 C182 1.391 . S
C181 N184 1.329 . S
C181 H202 0.930 . S
C182 N180 1.334 . S
C182 C181 1.391 . S
C182 H189 0.930 . S
C183 N180 1.328 . S
C183 C185 1.392 . S
C183 H190 0.930 . S
N184 C181 1.329 . S
N184 C185 1.331 . S
C185 C183 1.392 . S
C185 N184 1.331 . S
O186 Zn179 1.975 . S
O186 C187 1.252 . S
C187 O186 1.252 . S
C187 O188 1.252 . S
O188 Zn170 1.975 . S
O188 C187 1.252 . S
H189 C182 0.930 . S
H190 C183 0.930 . S
C191 C192 1.392 . S
C191 N195 1.328 1_455 S
C191 H197 0.930 . S
C192 C191 1.392 . S
C192 N196 1.331 . S
C193 C194 1.391 . S
C193 N196 1.329 1_655 S
C193 H203 0.930 . S
C194 C193 1.391 . S
C194 N195 1.334 . S
C194 H201 0.930 . S
N195 Zn179 2.119 . S
N195 C191 1.328 1_655 S
N195 C194 1.334 . S
N196 C192 1.331 . S
N196 C193 1.329 1_455 S
H197 C191 0.930 . S
C198 O178 1.257 . S
C198 O199 1.244 . S
O199 C198 1.244 . S
O200 C176 1.257 . S
O200 Zn179 2.019 1_455 S
H201 C194 0.930 . S
H202 C181 0.930 . S
H203 C193 0.930 . S
Zn204 N208 2.020 . S
Zn204 O212 2.019 . S
Zn204 N214 2.119 . S
Zn204 O222 1.975 . S
C205 N206 1.334 . S
C205 N209 1.336 . S
N206 C205 1.334 . S
N206 C207 1.334 . S
C207 N206 1.334 . S
C207 N208 1.336 . S
N208 Zn204 2.020 . S
N208 C207 1.336 . S
N208 N209 1.354 . S
N209 C205 1.336 . S
N209 N208 1.354 . S
N209 Zn213 2.020 . S
C210 O211 1.244 . S
C210 O234 1.257 . S
O211 C210 1.244 . S
O212 Zn204 2.019 . S
O212 C232 1.257 . S
Zn213 N209 2.020 . S
Zn213 O220 1.975 . S
Zn213 N229 2.119 . S
Zn213 O234 2.019 . S
N214 Zn204 2.119 . S
N214 C216 1.334 . S
N214 C217 1.328 . S
C215 C216 1.391 . S
C215 N218 1.329 . S
C215 H236 0.930 . S
C216 N214 1.334 . S
C216 C215 1.391 . S
C216 H223 0.930 . S
C217 N214 1.328 . S
C217 C219 1.392 . S
C217 H224 0.930 . S
N218 C215 1.329 . S
N218 C219 1.331 . S
C219 C217 1.392 . S
C219 N218 1.331 . S
O220 Zn213 1.975 . S
O220 C221 1.252 . S
C221 O220 1.252 . S
C221 O222 1.252 . S
O222 Zn204 1.975 . S
O222 C221 1.252 . S
H223 C216 0.930 . S
H224 C217 0.930 . S
C225 C226 1.392 . S
C225 N229 1.328 . S
C225 H231 0.930 . S
C226 C225 1.392 . S
C226 N230 1.331 . S
C227 C228 1.391 . S
C227 N230 1.329 . S
C227 H237 0.930 . S
C228 C227 1.391 . S
C228 N229 1.334 . S
C228 H235 0.930 . S
N229 Zn213 2.119 . S
N229 C225 1.328 . S
N229 C228 1.334 . S
N230 C226 1.331 . S
N230 C227 1.329 . S
H231 C225 0.930 . S
C232 O212 1.257 . S
C232 O233 1.244 . S
O233 C232 1.244 . S
O234 C210 1.257 . S
O234 Zn213 2.019 . S
H235 C228 0.930 . S
H236 C215 0.930 . S
H237 C227 0.930 . S
Zn238 N242 2.020 . S
Zn238 O246 2.019 . S
Zn238 N248 2.119 . S
Zn238 O256 1.975 . S
C239 N240 1.334 . S
C239 N243 1.336 . S
N240 C239 1.334 . S
N240 C241 1.334 . S
C241 N240 1.334 . S
C241 N242 1.336 . S
N242 Zn238 2.020 . S
N242 C241 1.336 . S
N242 N243 1.354 . S
N243 C239 1.336 . S
N243 N242 1.354 . S
N243 Zn247 2.020 . S
C244 O245 1.244 . S
C244 O268 1.257 . S
O245 C244 1.244 . S
O246 Zn238 2.019 . S
O246 C266 1.257 . S
Zn247 N243 2.020 . S
Zn247 O254 1.975 . S
Zn247 N263 2.119 . S
Zn247 O268 2.019 . S
N248 Zn238 2.119 . S
N248 C250 1.334 . S
N248 C251 1.328 . S
C249 C250 1.391 . S
C249 N252 1.329 . S
C249 H270 0.930 . S
C250 N248 1.334 . S
C250 C249 1.391 . S
C250 H257 0.930 . S
C251 N248 1.328 . S
C251 C253 1.392 . S
C251 H258 0.930 . S
N252 C249 1.329 . S
N252 C253 1.331 . S
C253 C251 1.392 . S
C253 N252 1.331 . S
O254 Zn247 1.975 . S
O254 C255 1.252 . S
C255 O254 1.252 . S
C255 O256 1.252 . S
O256 Zn238 1.975 . S
O256 C255 1.252 . S
H257 C250 0.930 . S
H258 C251 0.930 . S
C259 C260 1.392 . S
C259 N263 1.328 . S
C259 H265 0.930 . S
C260 C259 1.392 . S
C260 N264 1.331 . S
C261 C262 1.391 . S
C261 N264 1.329 . S
C261 H271 0.930 . S
C262 C261 1.391 . S
C262 N263 1.334 . S
C262 H269 0.930 . S
N263 Zn247 2.119 . S
N263 C259 1.328 . S
N263 C262 1.334 . S
N264 C260 1.331 . S
N264 C261 1.329 . S
H265 C259 0.930 . S
C266 O246 1.257 . S
C266 O267 1.244 . S
O267 C266 1.244 . S
O268 C244 1.257 . S
O268 Zn247 2.019 . S
H269 C262 0.930 . S
H270 C249 0.930 . S
H271 C261 0.930 . S
Zn272 N276 2.020 . S
Zn272 O280 2.019 . S
Zn272 N282 2.119 . S
Zn272 O290 1.975 . S
C273 N274 1.334 . S
C273 N277 1.336 . S
N274 C273 1.334 . S
N274 C275 1.334 . S
C275 N274 1.334 . S
C275 N276 1.336 . S
N276 Zn272 2.020 . S
N276 C275 1.336 . S
N276 N277 1.354 . S
N277 C273 1.336 . S
N277 N276 1.354 . S
N277 Zn281 2.020 . S
C278 O279 1.244 . S
C278 O302 1.257 . S
O279 C278 1.244 . S
O280 Zn272 2.019 . S
O280 C300 1.257 . S
Zn281 N277 2.020 . S
Zn281 O288 1.975 . S
Zn281 N297 2.119 . S
Zn281 O302 2.019 . S
N282 Zn272 2.119 . S
N282 C284 1.334 . S
N282 C285 1.328 . S
C283 C284 1.391 . S
C283 N286 1.329 . S
C283 H304 0.930 . S
C284 N282 1.334 . S
C284 C283 1.391 . S
C284 H291 0.930 . S
C285 N282 1.328 . S
C285 C287 1.392 . S
C285 H292 0.930 . S
N286 C283 1.329 . S
N286 C287 1.331 . S
C287 C285 1.392 . S
C287 N286 1.331 . S
O288 Zn281 1.975 . S
O288 C289 1.252 . S
C289 O288 1.252 . S
C289 O290 1.252 . S
O290 Zn272 1.975 . S
O290 C289 1.252 . S
H291 C284 0.930 . S
H292 C285 0.930 . S
C293 C294 1.392 . S
C293 N297 1.328 . S
C293 H299 0.930 . S
C294 C293 1.392 . S
C294 N298 1.331 . S
C295 C296 1.391 . S
C295 N298 1.329 . S
C295 H305 0.930 . S
C296 C295 1.391 . S
C296 N297 1.334 . S
C296 H303 0.930 . S
N297 Zn281 2.119 . S
N297 C293 1.328 . S
N297 C296 1.334 . S
N298 C294 1.331 . S
N298 C295 1.329 . S
H299 C293 0.930 . S
C300 O280 1.257 . S
C300 O301 1.244 . S
O301 C300 1.244 . S
O302 C278 1.257 . S
O302 Zn281 2.019 . S
H303 C296 0.930 . S
H304 C283 0.930 . S
H305 C295 0.930 . S
Zn306 N310 2.020 . S
Zn306 O314 2.019 . S
Zn306 N316 2.119 . S
Zn306 O324 1.975 . S
C307 N308 1.334 . S
C307 N311 1.336 1_556 S
N308 C307 1.334 . S
N308 C309 1.334 . S
C309 N308 1.334 . S
C309 N310 1.336 1_556 S
N310 Zn306 2.020 . S
N310 C309 1.336 1_554 S
N310 N311 1.354 . S
N311 C307 1.336 1_554 S
N311 N310 1.354 . S
N311 Zn315 2.020 . S
C312 O313 1.244 1_554 S
C312 O336 1.257 . S
O313 C312 1.244 1_556 S
O314 Zn306 2.019 . S
O314 C334 1.257 . S
Zn315 N311 2.020 . S
Zn315 O322 1.975 . S
Zn315 N331 2.119 . S
Zn315 O336 2.019 . S
N316 Zn306 2.119 . S
N316 C318 1.334 1_554 S
N316 C319 1.328 . S
C317 C318 1.391 . S
C317 N320 1.329 . S
C317 H338 0.930 . S
C318 N316 1.334 1_556 S
C318 C317 1.391 . S
C318 H325 0.930 . S
C319 N316 1.328 . S
C319 C321 1.392 1_554 S
C319 H326 0.930 . S
N320 C317 1.329 . S
N320 C321 1.331 . S
C321 C319 1.392 1_556 S
C321 N320 1.331 . S
O322 Zn315 1.975 . S
O322 C323 1.252 . S
C323 O322 1.252 . S
C323 O324 1.252 . S
O324 Zn306 1.975 . S
O324 C323 1.252 . S
H325 C318 0.930 . S
H326 C319 0.930 . S
C327 C328 1.392 . S
C327 N331 1.328 . S
C327 H333 0.930 . S
C328 C327 1.392 . S
C328 N332 1.331 . S
C329 C330 1.391 . S
C329 N332 1.329 . S
C329 H339 0.930 . S
C330 C329 1.391 . S
C330 N331 1.334 . S
C330 H337 0.930 . S
N331 Zn315 2.119 . S
N331 C327 1.328 . S
N331 C330 1.334 . S
N332 C328 1.331 . S
N332 C329 1.329 . S
H333 C327 0.930 . S
C334 O314 1.257 . S
C334 O335 1.244 . S
O335 C334 1.244 . S
O336 C312 1.257 . S
O336 Zn315 2.019 . S
H337 C330 0.930 . S
H338 C317 0.930 . S
H339 C329 0.930 . S
Zn340 N344 2.020 . S
Zn340 O348 2.019 . S
Zn340 N350 2.119 . S
Zn340 O358 1.975 . S
C341 N342 1.334 . S
C341 N345 1.336 1_556 S
N342 C341 1.334 . S
N342 C343 1.334 . S
C343 N342 1.334 . S
C343 N344 1.336 1_556 S
N344 Zn340 2.020 . S
N344 C343 1.336 1_554 S
N344 N345 1.354 . S
N345 C341 1.336 1_554 S
N345 N344 1.354 . S
N345 Zn349 2.020 . S
C346 O347 1.244 . S
C346 O370 1.257 . S
O347 C346 1.244 . S
O348 Zn340 2.019 . S
O348 C368 1.257 . S
Zn349 N345 2.020 . S
Zn349 O356 1.975 . S
Zn349 N365 2.119 . S
Zn349 O370 2.019 . S
N350 Zn340 2.119 . S
N350 C352 1.334 . S
N350 C353 1.328 . S
C351 C352 1.391 . S
C351 N354 1.329 . S
C351 H372 0.930 . S
C352 N350 1.334 . S
C352 C351 1.391 . S
C352 H359 0.930 . S
C353 N350 1.328 . S
C353 C355 1.392 . S
C353 H360 0.930 . S
N354 C351 1.329 . S
N354 C355 1.331 . S
C355 C353 1.392 . S
C355 N354 1.331 . S
O356 Zn349 1.975 . S
O356 C357 1.252 . S
C357 O356 1.252 . S
C357 O358 1.252 . S
O358 Zn340 1.975 . S
O358 C357 1.252 . S
H359 C352 0.930 . S
H360 C353 0.930 . S
C361 C362 1.392 1_554 S
C361 N365 1.328 . S
C361 H367 0.930 . S
C362 C361 1.392 1_556 S
C362 N366 1.331 . S
C363 C364 1.391 . S
C363 N366 1.329 . S
C363 H373 0.930 . S
C364 C363 1.391 . S
C364 N365 1.334 1_556 S
C364 H371 0.930 . S
N365 Zn349 2.119 . S
N365 C361 1.328 . S
N365 C364 1.334 1_554 S
N366 C362 1.331 . S
N366 C363 1.329 . S
H367 C361 0.930 . S
C368 O348 1.257 . S
C368 O369 1.244 1_554 S
O369 C368 1.244 1_556 S
O370 C346 1.257 . S
O370 Zn349 2.019 . S
H371 C364 0.930 . S
H372 C351 0.930 . S
H373 C363 0.930 . S
Zn374 N378 2.020 . S
Zn374 O382 2.019 . S
Zn374 N384 2.119 . S
Zn374 O392 1.975 . S
C375 N376 1.334 . S
C375 N379 1.336 1_556 S
N376 C375 1.334 . S
N376 C377 1.334 . S
C377 N376 1.334 . S
C377 N378 1.336 1_556 S
N378 Zn374 2.020 . S
N378 C377 1.336 1_554 S
N378 N379 1.354 . S
N379 C375 1.336 1_554 S
N379 N378 1.354 . S
N379 Zn383 2.020 . S
C380 O381 1.244 1_554 S
C380 O404 1.257 . S
O381 C380 1.244 1_556 S
O382 Zn374 2.019 . S
O382 C402 1.257 . S
Zn383 N379 2.020 . S
Zn383 O390 1.975 . S
Zn383 N399 2.119 . S
Zn383 O404 2.019 . S
N384 Zn374 2.119 . S
N384 C386 1.334 1_554 S
N384 C387 1.328 . S
C385 C386 1.391 . S
C385 N388 1.329 . S
C385 H406 0.930 . S
C386 N384 1.334 1_556 S
C386 C385 1.391 . S
C386 H393 0.930 . S
C387 N384 1.328 . S
C387 C389 1.392 1_554 S
C387 H394 0.930 . S
N388 C385 1.329 . S
N388 C389 1.331 . S
C389 C387 1.392 1_556 S
C389 N388 1.331 . S
O390 Zn383 1.975 . S
O390 C391 1.252 . S
C391 O390 1.252 . S
C391 O392 1.252 . S
O392 Zn374 1.975 . S
O392 C391 1.252 . S
H393 C386 0.930 . S
H394 C387 0.930 . S
C395 C396 1.392 . S
C395 N399 1.328 . S
C395 H401 0.930 . S
C396 C395 1.392 . S
C396 N400 1.331 . S
C397 C398 1.391 . S
C397 N400 1.329 . S
C397 H407 0.930 . S
C398 C397 1.391 . S
C398 N399 1.334 . S
C398 H405 0.930 . S
N399 Zn383 2.119 . S
N399 C395 1.328 . S
N399 C398 1.334 . S
N400 C396 1.331 . S
N400 C397 1.329 . S
H401 C395 0.930 . S
C402 O382 1.257 . S
C402 O403 1.244 . S
O403 C402 1.244 . S
O404 C380 1.257 . S
O404 Zn383 2.019 . S
H405 C398 0.930 . S
H406 C385 0.930 . S
H407 C397 0.930 . S
Zn408 N412 2.020 . S
Zn408 O416 2.019 . S
Zn408 N418 2.119 . S
Zn408 O426 1.975 . S
C409 N410 1.334 . S
C409 N413 1.336 1_554 S
N410 C409 1.334 . S
N410 C411 1.334 . S
C411 N410 1.334 . S
C411 N412 1.336 1_554 S
N412 Zn408 2.020 . S
N412 C411 1.336 1_556 S
N412 N413 1.354 . S
N413 C409 1.336 1_556 S
N413 N412 1.354 . S
N413 Zn417 2.020 . S
C414 O415 1.244 . S
C414 O438 1.257 . S
O415 C414 1.244 . S
O416 Zn408 2.019 . S
O416 C436 1.257 . S
Zn417 N413 2.020 . S
Zn417 O424 1.975 . S
Zn417 N433 2.119 . S
Zn417 O438 2.019 . S
N418 Zn408 2.119 . S
N418 C420 1.334 . S
N418 C421 1.328 . S
C419 C420 1.391 . S
C419 N422 1.329 . S
C419 H440 0.930 . S
C420 N418 1.334 . S
C420 C419 1.391 . S
C420 H427 0.930 . S
C421 N418 1.328 . S
C421 C423 1.392 . S
C421 H428 0.930 . S
N422 C419 1.329 . S
N422 C423 1.331 . S
C423 C421 1.392 . S
C423 N422 1.331 . S
O424 Zn417 1.975 . S
O424 C425 1.252 . S
C425 O424 1.252 . S
C425 O426 1.252 . S
O426 Zn408 1.975 . S
O426 C425 1.252 . S
H427 C420 0.930 . S
H428 C421 0.930 . S
C429 C430 1.392 1_556 S
C429 N433 1.328 . S
C429 H435 0.930 . S
C430 C429 1.392 1_554 S
C430 N434 1.331 . S
C431 C432 1.391 . S
C431 N434 1.329 . S
C431 H441 0.930 . S
C432 C431 1.391 . S
C432 N433 1.334 1_554 S
C432 H439 0.930 . S
N433 Zn417 2.119 . S
N433 C429 1.328 . S
N433 C432 1.334 1_556 S
N434 C430 1.331 . S
N434 C431 1.329 . S
H435 C429 0.930 . S
C436 O416 1.257 . S
C436 O437 1.244 1_556 S
O437 C436 1.244 1_554 S
O438 C414 1.257 . S
O438 Zn417 2.019 . S
H439 C432 0.930 . S
H440 C419 0.930 . S
H441 C431 0.930 . S
Zn442 N446 2.020 . S
Zn442 O450 2.019 . S
Zn442 N452 2.119 . S
Zn442 O460 1.975 . S
C443 N444 1.334 . S
C443 N447 1.336 1_554 S
N444 C443 1.334 . S
N444 C445 1.334 . S
C445 N444 1.334 . S
C445 N446 1.336 1_554 S
N446 Zn442 2.020 . S
N446 C445 1.336 1_556 S
N446 N447 1.354 . S
N447 C443 1.336 1_556 S
N447 N446 1.354 . S
N447 Zn451 2.020 . S
C448 O449 1.244 . S
C448 O472 1.257 . S
O449 C448 1.244 . S
O450 Zn442 2.019 . S
O450 C470 1.257 . S
Zn451 N447 2.020 . S
Zn451 O458 1.975 . S
Zn451 N467 2.119 . S
Zn451 O472 2.019 . S
N452 Zn442 2.119 . S
N452 C454 1.334 . S
N452 C455 1.328 . S
C453 C454 1.391 . S
C453 N456 1.329 . S
C453 H474 0.930 . S
C454 N452 1.334 . S
C454 C453 1.391 . S
C454 H461 0.930 . S
C455 N452 1.328 . S
C455 C457 1.392 . S
C455 H462 0.930 . S
N456 C453 1.329 . S
N456 C457 1.331 . S
C457 C455 1.392 . S
C457 N456 1.331 . S
O458 Zn451 1.975 . S
O458 C459 1.252 . S
C459 O458 1.252 . S
C459 O460 1.252 . S
O460 Zn442 1.975 . S
O460 C459 1.252 . S
H461 C454 0.930 . S
H462 C455 0.930 . S
C463 C464 1.392 1_556 S
C463 N467 1.328 . S
C463 H469 0.930 . S
C464 C463 1.392 1_554 S
C464 N468 1.331 . S
C465 C466 1.391 . S
C465 N468 1.329 . S
C465 H475 0.930 . S
C466 C465 1.391 . S
C466 N467 1.334 1_554 S
C466 H473 0.930 . S
N467 Zn451 2.119 . S
N467 C463 1.328 . S
N467 C466 1.334 1_556 S
N468 C464 1.331 . S
N468 C465 1.329 . S
H469 C463 0.930 . S
C470 O450 1.257 . S
C470 O471 1.244 1_556 S
O471 C470 1.244 1_554 S
O472 C448 1.257 . S
O472 Zn451 2.019 . S
H473 C466 0.930 . S
H474 C453 0.930 . S
H475 C465 0.930 . S
Zn476 N480 2.020 . S
Zn476 O484 2.019 . S
Zn476 N486 2.119 . S
Zn476 O494 1.975 . S
C477 N478 1.334 . S
C477 N481 1.336 1_554 S
N478 C477 1.334 . S
N478 C479 1.334 . S
C479 N478 1.334 . S
C479 N480 1.336 1_554 S
N480 Zn476 2.020 . S
N480 C479 1.336 1_556 S
N480 N481 1.354 . S
N481 C477 1.336 1_556 S
N481 N480 1.354 . S
N481 Zn485 2.020 . S
C482 O483 1.244 . S
C482 O506 1.257 . S
O483 C482 1.244 . S
O484 Zn476 2.019 . S
O484 C504 1.257 . S
Zn485 N481 2.020 . S
Zn485 O492 1.975 . S
Zn485 N501 2.119 . S
Zn485 O506 2.019 . S
N486 Zn476 2.119 . S
N486 C488 1.334 . S
N486 C489 1.328 . S
C487 C488 1.391 . S
C487 N490 1.329 . S
C487 H508 0.930 . S
C488 N486 1.334 . S
C488 C487 1.391 . S
C488 H495 0.930 . S
C489 N486 1.328 . S
C489 C491 1.392 . S
C489 H496 0.930 . S
N490 C487 1.329 . S
N490 C491 1.331 . S
C491 C489 1.392 . S
C491 N490 1.331 . S
O492 Zn485 1.975 . S
O492 C493 1.252 . S
C493 O492 1.252 . S
C493 O494 1.252 . S
O494 Zn476 1.975 . S
O494 C493 1.252 . S
H495 C488 0.930 . S
H496 C489 0.930 . S
C497 C498 1.392 1_556 S
C497 N501 1.328 . S
C497 H503 0.930 . S
C498 C497 1.392 1_554 S
C498 N502 1.331 . S
C499 C500 1.391 . S
C499 N502 1.329 . S
C499 H509 0.930 . S
C500 C499 1.391 . S
C500 N501 1.334 1_554 S
C500 H507 0.930 . S
N501 Zn485 2.119 . S
N501 C497 1.328 . S
N501 C500 1.334 1_556 S
N502 C498 1.331 . S
N502 C499 1.329 . S
H503 C497 0.930 . S
C504 O484 1.257 . S
C504 O505 1.244 1_556 S
O505 C504 1.244 1_554 S
O506 C482 1.257 . S
O506 Zn485 2.019 . S
H507 C500 0.930 . S
H508 C487 0.930 . S
H509 C499 0.930 . S
Zn510 N514 2.020 . S
Zn510 O518 2.019 . S
Zn510 N520 2.119 . S
Zn510 O528 1.975 . S
C511 N512 1.334 . S
C511 N515 1.336 . S
N512 C511 1.334 . S
N512 C513 1.334 . S
C513 N512 1.334 . S
C513 N514 1.336 . S
N514 Zn510 2.020 . S
N514 C513 1.336 . S
N514 N515 1.354 . S
N515 C511 1.336 . S
N515 N514 1.354 . S
N515 Zn519 2.020 . S
C516 O517 1.244 . S
C516 O540 1.257 . S
O517 C516 1.244 . S
O518 Zn510 2.019 . S
O518 C538 1.257 . S
Zn519 N515 2.020 . S
Zn519 O526 1.975 . S
Zn519 N535 2.119 . S
Zn519 O540 2.019 . S
N520 Zn510 2.119 . S
N520 C522 1.334 . S
N520 C523 1.328 . S
C521 C522 1.391 . S
C521 N524 1.329 . S
C521 H542 0.930 . S
C522 N520 1.334 . S
C522 C521 1.391 . S
C522 H529 0.930 . S
C523 N520 1.328 . S
C523 C525 1.392 . S
C523 H530 0.930 . S
N524 C521 1.329 . S
N524 C525 1.331 . S
C525 C523 1.392 . S
C525 N524 1.331 . S
O526 Zn519 1.975 . S
O526 C527 1.252 . S
C527 O526 1.252 . S
C527 O528 1.252 . S
O528 Zn510 1.975 . S
O528 C527 1.252 . S
H529 C522 0.930 . S
H530 C523 0.930 . S
C531 C532 1.392 . S
C531 N535 1.328 . S
C531 H537 0.930 . S
C532 C531 1.392 . S
C532 N536 1.331 . S
C533 C534 1.391 . S
C533 N536 1.329 . S
C533 H543 0.930 . S
C534 C533 1.391 . S
C534 N535 1.334 . S
C534 H541 0.930 . S
N535 Zn519 2.119 . S
N535 C531 1.328 . S
N535 C534 1.334 . S
N536 C532 1.331 . S
N536 C533 1.329 . S
H537 C531 0.930 . S
C538 O518 1.257 . S
C538 O539 1.244 . S
O539 C538 1.244 . S
O540 C516 1.257 . S
O540 Zn519 2.019 . S
H541 C534 0.930 . S
H542 C521 0.930 . S
H543 C533 0.930 . S
Zn544 N548 2.020 . S
Zn544 O552 2.019 . S
Zn544 N554 2.119 . S
Zn544 O562 1.975 . S
C545 N546 1.334 . S
C545 N549 1.336 . S
N546 C545 1.334 . S
N546 C547 1.334 . S
C547 N546 1.334 . S
C547 N548 1.336 . S
N548 Zn544 2.020 . S
N548 C547 1.336 . S
N548 N549 1.354 . S
N549 C545 1.336 . S
N549 N548 1.354 . S
N549 Zn553 2.020 . S
C550 O551 1.244 . S
C550 O574 1.257 . S
O551 C550 1.244 . S
O552 Zn544 2.019 . S
O552 C572 1.257 . S
Zn553 N549 2.020 . S
Zn553 O560 1.975 . S
Zn553 N569 2.119 . S
Zn553 O574 2.019 . S
N554 Zn544 2.119 . S
N554 C556 1.334 . S
N554 C557 1.328 . S
C555 C556 1.391 . S
C555 N558 1.329 . S
C555 H576 0.930 . S
C556 N554 1.334 . S
C556 C555 1.391 . S
C556 H563 0.930 . S
C557 N554 1.328 . S
C557 C559 1.392 . S
C557 H564 0.930 . S
N558 C555 1.329 . S
N558 C559 1.331 . S
C559 C557 1.392 . S
C559 N558 1.331 . S
O560 Zn553 1.975 . S
O560 C561 1.252 . S
C561 O560 1.252 . S
C561 O562 1.252 . S
O562 Zn544 1.975 . S
O562 C561 1.252 . S
H563 C556 0.930 . S
H564 C557 0.930 . S
C565 C566 1.392 . S
C565 N569 1.328 . S
C565 H571 0.930 . S
C566 C565 1.392 . S
C566 N570 1.331 . S
C567 C568 1.391 . S
C567 N570 1.329 . S
C567 H577 0.930 . S
C568 C567 1.391 . S
C568 N569 1.334 . S
C568 H575 0.930 . S
N569 Zn553 2.119 . S
N569 C565 1.328 . S
N569 C568 1.334 . S
N570 C566 1.331 . S
N570 C567 1.329 . S
H571 C565 0.930 . S
C572 O552 1.257 . S
C572 O573 1.244 . S
O573 C572 1.244 . S
O574 C550 1.257 . S
O574 Zn553 2.019 . S
H575 C568 0.930 . S
H576 C555 0.930 . S
H577 C567 0.930 . S
Zn578 N582 2.020 . S
Zn578 O586 2.019 . S
Zn578 N588 2.119 . S
Zn578 O596 1.975 . S
C579 N580 1.334 . S
C579 N583 1.336 . S
N580 C579 1.334 . S
N580 C581 1.334 . S
C581 N580 1.334 . S
C581 N582 1.336 . S
N582 Zn578 2.020 . S
N582 C581 1.336 . S
N582 N583 1.354 . S
N583 C579 1.336 . S
N583 N582 1.354 . S
N583 Zn587 2.020 . S
C584 O585 1.244 . S
C584 O608 1.257 . S
O585 C584 1.244 . S
O586 Zn578 2.019 . S
O586 C606 1.257 . S
Zn587 N583 2.020 . S
Zn587 O594 1.975 . S
Zn587 N603 2.119 . S
Zn587 O608 2.019 . S
N588 Zn578 2.119 . S
N588 C590 1.334 . S
N588 C591 1.328 . S
C589 C590 1.391 . S
C589 N592 1.329 . S
C589 H610 0.930 . S
C590 N588 1.334 . S
C590 C589 1.391 . S
C590 H597 0.930 . S
C591 N588 1.328 . S
C591 C593 1.392 . S
C591 H598 0.930 . S
N592 C589 1.329 . S
N592 C593 1.331 . S
C593 C591 1.392 . S
C593 N592 1.331 . S
O594 Zn587 1.975 . S
O594 C595 1.252 . S
C595 O594 1.252 . S
C595 O596 1.252 . S
O596 Zn578 1.975 . S
O596 C595 1.252 . S
H597 C590 0.930 . S
H598 C591 0.930 . S
C599 C600 1.392 . S
C599 N603 1.328 . S
C599 H605 0.930 . S
C600 C599 1.392 . S
C600 N604 1.331 . S
C601 C602 1.391 . S
C601 N604 1.329 . S
C601 H611 0.930 . S
C602 C601 1.391 . S
C602 N603 1.334 . S
C602 H609 0.930 . S
N603 Zn587 2.119 . S
N603 C599 1.328 . S
N603 C602 1.334 . S
N604 C600 1.331 . S
N604 C601 1.329 . S
H605 C599 0.930 . S
C606 O586 1.257 . S
C606 O607 1.244 . S
O607 C606 1.244 . S
O608 C584 1.257 . S
O608 Zn587 2.019 . S
H609 C602 0.930 . S
H610 C589 0.930 . S
H611 C601 0.930 . S
H612 C618 0.930 . S
H613 C622 0.930 . S
H614 C627 0.929 . S
H615 C625 0.929 . S
H616 C620 0.929 . S
H617 C626 0.929 . S
C618 H612 0.930 . S
C618 C619 1.367 . S
C618 C626 1.378 . S
C619 C618 1.367 . S
C619 C627 1.433 . S
C620 H616 0.929 . S
C620 C622 1.378 . S
C620 C624 1.350 . S
C621 C624 1.463 . S
C621 C626 1.350 . S
C621 N629 1.427 . S
C622 H613 0.930 . S
C622 C620 1.378 . S
C622 C623 1.367 . S
C623 C622 1.367 . S
C623 C625 1.433 . S
C624 C620 1.350 . S
C624 C621 1.463 . S
C624 N628 1.427 . S
C625 H615 0.929 . S
C625 C623 1.433 . S
C625 N628 1.384 . S
C626 H617 0.929 . S
C626 C618 1.378 . S
C626 C621 1.350 . S
C627 H614 0.929 . S
C627 C619 1.433 . S
C627 N629 1.384 . S
N628 C624 1.427 . S
N628 C625 1.384 . S
N629 C621 1.427 . S
N629 C627 1.384 . S
H630 C636 0.930 . S
H631 C640 0.930 . S
H632 C645 0.929 . S
H633 C643 0.929 . S
H634 C638 0.929 . S
H635 C644 0.929 . S
C636 H630 0.930 . S
C636 C637 1.367 . S
C636 C644 1.378 . S
C637 C636 1.367 . S
C637 C645 1.433 . S
C638 H634 0.929 . S
C638 C640 1.378 . S
C638 C642 1.350 . S
C639 C642 1.463 . S
C639 C644 1.350 . S
C639 N647 1.427 . S
C640 H631 0.930 . S
C640 C638 1.378 . S
C640 C641 1.367 . S
C641 C640 1.367 . S
C641 C643 1.433 . S
C642 C638 1.350 . S
C642 C639 1.463 . S
C642 N646 1.427 . S
C643 H633 0.929 . S
C643 C641 1.433 . S
C643 N646 1.384 . S
C644 H635 0.929 . S
C644 C636 1.378 . S
C644 C639 1.350 . S
C645 H632 0.929 . S
C645 C637 1.433 . S
C645 N647 1.384 . S
N646 C642 1.427 . S
N646 C643 1.384 . S
N647 C639 1.427 . S
N647 C645 1.384 . S
H648 C654 0.930 . S
H649 C658 0.930 . S
H650 C663 0.929 . S
H651 C661 0.929 . S
H652 C656 0.929 . S
H653 C662 0.929 . S
C654 H648 0.930 . S
C654 C655 1.367 . S
C654 C662 1.378 . S
C655 C654 1.367 . S
C655 C663 1.433 . S
C656 H652 0.929 . S
C656 C658 1.378 . S
C656 C660 1.350 . S
C657 C660 1.463 . S
C657 C662 1.350 . S
C657 N665 1.427 . S
C658 H649 0.930 . S
C658 C656 1.378 . S
C658 C659 1.367 . S
C659 C658 1.367 . S
C659 C661 1.433 . S
C660 C656 1.350 . S
C660 C657 1.463 . S
C660 N664 1.427 . S
C661 H651 0.929 . S
C661 C659 1.433 . S
C661 N664 1.384 . S
C662 H653 0.929 . S
C662 C654 1.378 . S
C662 C657 1.350 . S
C663 H650 0.929 . S
C663 C655 1.433 . S
C663 N665 1.384 . S
N664 C660 1.427 . S
N664 C661 1.384 . S
N665 C657 1.427 . S
N665 C663 1.384 . S
H666 C672 0.930 . S
H667 C676 0.930 . S
H668 C681 0.929 . S
H669 C679 0.929 . S
H670 C674 0.929 . S
H671 C680 0.929 . S
C672 H666 0.930 . S
C672 C673 1.367 . S
C672 C680 1.378 . S
C673 C672 1.367 . S
C673 C681 1.433 . S
C674 H670 0.929 . S
C674 C676 1.378 . S
C674 C678 1.350 . S
C675 C678 1.463 . S
C675 C680 1.350 . S
C675 N683 1.427 . S
C676 H667 0.930 . S
C676 C674 1.378 . S
C676 C677 1.367 . S
C677 C676 1.367 . S
C677 C679 1.433 . S
C678 C674 1.350 . S
C678 C675 1.463 . S
C678 N682 1.427 . S
C679 H669 0.929 . S
C679 C677 1.433 . S
C679 N682 1.384 . S
C680 H671 0.929 . S
C680 C672 1.378 . S
C680 C675 1.350 . S
C681 H668 0.929 . S
C681 C673 1.433 . S
C681 N683 1.384 . S
N682 C678 1.427 . S
N682 C679 1.384 . S
N683 C675 1.427 . S
N683 C681 1.384 . S
H684 C690 0.930 . S
H685 C694 0.930 . S
H686 C699 0.929 . S
H687 C697 0.929 . S
H688 C692 0.929 . S
H689 C698 0.929 . S
C690 H684 0.930 . S
C690 C691 1.367 . S
C690 C698 1.378 . S
C691 C690 1.367 . S
C691 C699 1.433 . S
C692 H688 0.929 . S
C692 C694 1.378 . S
C692 C696 1.350 . S
C693 C696 1.463 . S
C693 C698 1.350 . S
C693 N701 1.427 . S
C694 H685 0.930 . S
C694 C692 1.378 . S
C694 C695 1.367 . S
C695 C694 1.367 . S
C695 C697 1.433 . S
C696 C692 1.350 . S
C696 C693 1.463 . S
C696 N700 1.427 . S
C697 H687 0.929 . S
C697 C695 1.433 . S
C697 N700 1.384 . S
C698 H689 0.929 . S
C698 C690 1.378 . S
C698 C693 1.350 . S
C699 H686 0.929 . S
C699 C691 1.433 . S
C699 N701 1.384 . S
N700 C696 1.427 . S
N700 C697 1.384 . S
N701 C693 1.427 . S
N701 C699 1.384 . S
H702 C708 0.930 . S
H703 C712 0.930 . S
H704 C717 0.929 . S
H705 C715 0.929 . S
H706 C710 0.929 . S
H707 C716 0.929 . S
C708 H702 0.930 . S
C708 C709 1.367 . S
C708 C716 1.378 . S
C709 C708 1.367 . S
C709 C717 1.433 . S
C710 H706 0.929 . S
C710 C712 1.378 . S
C710 C714 1.350 . S
C711 C714 1.463 . S
C711 C716 1.350 . S
C711 N719 1.427 . S
C712 H703 0.930 . S
C712 C710 1.378 . S
C712 C713 1.367 . S
C713 C712 1.367 . S
C713 C715 1.433 . S
C714 C710 1.350 . S
C714 C711 1.463 . S
C714 N718 1.427 . S
C715 H705 0.929 . S
C715 C713 1.433 . S
C715 N718 1.384 . S
C716 H707 0.929 . S
C716 C708 1.378 . S
C716 C711 1.350 . S
C717 H704 0.929 . S
C717 C709 1.433 . S
C717 N719 1.384 . S
N718 C714 1.427 . S
N718 C715 1.384 . S
N719 C711 1.427 . S
N719 C717 1.384 . S
H720 C726 0.930 . S
H721 C730 0.930 . S
H722 C735 0.929 . S
H723 C733 0.929 . S
H724 C728 0.929 . S
H725 C734 0.929 . S
C726 H720 0.930 . S
C726 C727 1.367 . S
C726 C734 1.378 . S
C727 C726 1.367 . S
C727 C735 1.433 . S
C728 H724 0.929 . S
C728 C730 1.378 . S
C728 C732 1.350 . S
C729 C732 1.463 . S
C729 C734 1.350 . S
C729 N737 1.427 . S
C730 H721 0.930 . S
C730 C728 1.378 . S
C730 C731 1.367 . S
C731 C730 1.367 . S
C731 C733 1.433 . S
C732 C728 1.350 . S
C732 C729 1.463 . S
C732 N736 1.427 . S
C733 H723 0.929 . S
C733 C731 1.433 . S
C733 N736 1.384 . S
C734 H725 0.929 . S
C734 C726 1.378 . S
C734 C729 1.350 . S
C735 H722 0.929 . S
C735 C727 1.433 . S
C735 N737 1.384 . S
N736 C732 1.427 . S
N736 C733 1.384 . S
N737 C729 1.427 . S
N737 C735 1.384 . S
H738 C744 0.930 . S
H739 C748 0.930 . S
H740 C753 0.929 . S
H741 C751 0.929 . S
H742 C746 0.929 . S
H743 C752 0.929 . S
C744 H738 0.930 . S
C744 C745 1.367 . S
C744 C752 1.378 . S
C745 C744 1.367 . S
C745 C753 1.433 . S
C746 H742 0.929 . S
C746 C748 1.378 . S
C746 C750 1.350 . S
C747 C750 1.463 . S
C747 C752 1.350 . S
C747 N755 1.427 . S
C748 H739 0.930 . S
C748 C746 1.378 . S
C748 C749 1.367 . S
C749 C748 1.367 . S
C749 C751 1.433 . S
C750 C746 1.350 . S
C750 C747 1.463 . S
C750 N754 1.427 . S
C751 H741 0.929 . S
C751 C749 1.433 . S
C751 N754 1.384 . S
C752 H743 0.929 . S
C752 C744 1.378 . S
C752 C747 1.350 . S
C753 H740 0.929 . S
C753 C745 1.433 . S
C753 N755 1.384 . S
N754 C750 1.427 . S
N754 C751 1.384 . S
N755 C747 1.427 . S
N755 C753 1.384 . S
H756 C762 0.930 . S
H757 C766 0.930 . S
H758 C771 0.929 . S
H759 C769 0.929 . S
H760 C764 0.929 . S
H761 C770 0.929 . S
C762 H756 0.930 . S
C762 C763 1.367 . S
C762 C770 1.378 . S
C763 C762 1.367 . S
C763 C771 1.433 . S
C764 H760 0.929 . S
C764 C766 1.378 . S
C764 C768 1.350 . S
C765 C768 1.463 . S
C765 C770 1.350 . S
C765 N773 1.427 . S
C766 H757 0.930 . S
C766 C764 1.378 . S
C766 C767 1.367 . S
C767 C766 1.367 . S
C767 C769 1.433 . S
C768 C764 1.350 . S
C768 C765 1.463 . S
C768 N772 1.427 . S
C769 H759 0.929 . S
C769 C767 1.433 . S
C769 N772 1.384 . S
C770 H761 0.929 . S
C770 C762 1.378 . S
C770 C765 1.350 . S
C771 H758 0.929 . S
C771 C763 1.433 . S
C771 N773 1.384 . S
N772 C768 1.427 . S
N772 C769 1.384 . S
N773 C765 1.427 . S
N773 C771 1.384 . S
H774 C780 0.930 . S
H775 C784 0.930 . S
H776 C789 0.929 1_554 S
H777 C787 0.929 . S
H778 C782 0.929 . S
H779 C788 0.929 . S
C780 H774 0.930 . S
C780 C781 1.367 . S
C780 C788 1.378 . S
C781 C780 1.367 . S
C781 C789 1.433 . S
C782 H778 0.929 . S
C782 C784 1.378 . S
C782 C786 1.350 . S
C783 C786 1.463 . S
C783 C788 1.350 . S
C783 N791 1.427 . S
C784 H775 0.930 . S
C784 C782 1.378 . S
C784 C785 1.367 . S
C785 C784 1.367 . S
C785 C787 1.433 . S
C786 C782 1.350 . S
C786 C783 1.463 . S
C786 N790 1.427 . S
C787 H777 0.929 . S
C787 C785 1.433 . S
C787 N790 1.384 . S
C788 H779 0.929 . S
C788 C780 1.378 . S
C788 C783 1.350 . S
C789 H776 0.929 1_556 S
C789 C781 1.433 . S
C789 N791 1.384 . S
N790 C786 1.427 . S
N790 C787 1.384 . S
N791 C783 1.427 . S
N791 C789 1.384 . S
H792 C798 0.930 . S
H793 C802 0.930 . S
H794 C807 0.929 . S
H795 C805 0.929 . S
H796 C800 0.929 . S
H797 C806 0.929 . S
C798 H792 0.930 . S
C798 C799 1.367 . S
C798 C806 1.378 . S
C799 C798 1.367 . S
C799 C807 1.433 . S
C800 H796 0.929 . S
C800 C802 1.378 . S
C800 C804 1.350 . S
C801 C804 1.463 . S
C801 C806 1.350 . S
C801 N809 1.427 . S
C802 H793 0.930 . S
C802 C800 1.378 . S
C802 C803 1.367 . S
C803 C802 1.367 . S
C803 C805 1.433 . S
C804 C800 1.350 . S
C804 C801 1.463 . S
C804 N808 1.427 . S
C805 H795 0.929 . S
C805 C803 1.433 . S
C805 N808 1.384 . S
C806 H797 0.929 . S
C806 C798 1.378 . S
C806 C801 1.350 . S
C807 H794 0.929 . S
C807 C799 1.433 . S
C807 N809 1.384 . S
N808 C804 1.427 . S
N808 C805 1.384 . S
N809 C801 1.427 . S
N809 C807 1.384 . S
H810 C816 0.930 . S
H811 C820 0.930 . S
H812 C825 0.929 . S
H813 C823 0.929 . S
H814 C818 0.929 . S
H815 C824 0.929 . S
C816 H810 0.930 . S
C816 C817 1.367 . S
C816 C824 1.378 . S
C817 C816 1.367 . S
C817 C825 1.433 . S
C818 H814 0.929 . S
C818 C820 1.378 . S
C818 C822 1.350 . S
C819 C822 1.463 . S
C819 C824 1.350 . S
C819 N827 1.427 . S
C820 H811 0.930 . S
C820 C818 1.378 . S
C820 C821 1.367 . S
C821 C820 1.367 . S
C821 C823 1.433 . S
C822 C818 1.350 . S
C822 C819 1.463 . S
C822 N826 1.427 . S
C823 H813 0.929 . S
C823 C821 1.433 . S
C823 N826 1.384 . S
C824 H815 0.929 . S
C824 C816 1.378 . S
C824 C819 1.350 . S
C825 H812 0.929 . S
C825 C817 1.433 . S
C825 N827 1.384 . S
N826 C822 1.427 . S
N826 C823 1.384 . S
N827 C819 1.427 . S
N827 C825 1.384 . S
H828 C834 0.930 . S
H829 C838 0.930 . S
H830 C843 0.929 . S
H831 C841 0.929 . S
H832 C836 0.929 . S
H833 C842 0.929 . S
C834 H828 0.930 . S
C834 C835 1.367 . S
C834 C842 1.378 . S
C835 C834 1.367 . S
C835 C843 1.433 . S
C836 H832 0.929 . S
C836 C838 1.378 . S
C836 C840 1.350 . S
C837 C840 1.463 . S
C837 C842 1.350 . S
C837 N845 1.427 . S
C838 H829 0.930 . S
C838 C836 1.378 . S
C838 C839 1.367 . S
C839 C838 1.367 . S
C839 C841 1.433 . S
C840 C836 1.350 . S
C840 C837 1.463 . S
C840 N844 1.427 . S
C841 H831 0.929 . S
C841 C839 1.433 . S
C841 N844 1.384 . S
C842 H833 0.929 . S
C842 C834 1.378 . S
C842 C837 1.350 . S
C843 H830 0.929 . S
C843 C835 1.433 . S
C843 N845 1.384 . S
N844 C840 1.427 . S
N844 C841 1.384 . S
N845 C837 1.427 . S
N845 C843 1.384 . S
H846 C852 0.930 . S
H847 C856 0.930 . S
H848 C861 0.929 . S
H849 C859 0.929 . S
H850 C854 0.929 . S
H851 C860 0.929 . S
C852 H846 0.930 . S
C852 C853 1.367 . S
C852 C860 1.378 . S
C853 C852 1.367 . S
C853 C861 1.433 . S
C854 H850 0.929 . S
C854 C856 1.378 . S
C854 C858 1.350 . S
C855 C858 1.463 . S
C855 C860 1.350 . S
C855 N863 1.427 . S
C856 H847 0.930 . S
C856 C854 1.378 . S
C856 C857 1.367 . S
C857 C856 1.367 . S
C857 C859 1.433 . S
C858 C854 1.350 . S
C858 C855 1.463 . S
C858 N862 1.427 . S
C859 H849 0.929 . S
C859 C857 1.433 . S
C859 N862 1.384 . S
C860 H851 0.929 . S
C860 C852 1.378 . S
C860 C855 1.350 . S
C861 H848 0.929 . S
C861 C853 1.433 . S
C861 N863 1.384 . S
N862 C858 1.427 . S
N862 C859 1.384 . S
N863 C855 1.427 . S
N863 C861 1.384 . S
H864 C870 0.930 . S
H865 C874 0.930 . S
H866 C879 0.929 . S
H867 C877 0.925 1_556 S
H868 C872 0.929 . S
H869 C878 0.929 . S
C870 H864 0.930 . S
C870 C871 1.367 . S
C870 C878 1.378 . S
C871 C870 1.367 . S
C871 C879 1.433 . S
C872 H868 0.929 . S
C872 C874 1.378 . S
C872 C876 1.350 . S
C873 C876 1.463 . S
C873 C878 1.350 . S
C873 N881 1.427 . S
C874 H865 0.930 . S
C874 C872 1.378 . S
C874 C875 1.367 . S
C875 C874 1.367 . S
C875 C877 1.433 . S
C876 C872 1.350 . S
C876 C873 1.463 . S
C876 N880 1.427 . S
C877 H867 0.925 1_554 S
C877 C875 1.433 . S
C877 N880 1.384 . S
C878 H869 0.929 . S
C878 C870 1.378 . S
C878 C873 1.350 . S
C879 H866 0.929 . S
C879 C871 1.433 . S
C879 N881 1.384 . S
N880 C876 1.427 . S
N880 C877 1.384 . S
N881 C873 1.427 . S
N881 C879 1.384 . S
H882 C888 0.930 . S
H883 C892 0.930 . S
H884 C897 0.929 . S
H885 C895 0.929 . S
H886 C890 0.929 . S
H887 C896 0.929 . S
C888 H882 0.930 . S
C888 C889 1.367 . S
C888 C896 1.378 . S
C889 C888 1.367 . S
C889 C897 1.433 . S
C890 H886 0.929 . S
C890 C892 1.378 . S
C890 C894 1.350 . S
C891 C894 1.463 . S
C891 C896 1.350 . S
C891 N899 1.427 . S
C892 H883 0.930 . S
C892 C890 1.378 . S
C892 C893 1.367 . S
C893 C892 1.367 . S
C893 C895 1.433 . S
C894 C890 1.350 . S
C894 C891 1.463 . S
C894 N898 1.427 . S
C895 H885 0.929 . S
C895 C893 1.433 . S
C895 N898 1.384 . S
C896 H887 0.929 . S
C896 C888 1.378 . S
C896 C891 1.350 . S
C897 H884 0.929 . S
C897 C889 1.433 . S
C897 N899 1.384 . S
N898 C894 1.427 . S
N898 C895 1.384 . S
N899 C891 1.427 . S
N899 C897 1.384 . S
H900 C906 0.930 . S
H901 C910 0.930 . S
H902 C915 0.929 . S
H903 C913 0.929 . S
H904 C908 0.929 . S
H905 C914 0.929 . S
C906 H900 0.930 . S
C906 C907 1.367 . S
C906 C914 1.378 . S
C907 C906 1.367 . S
C907 C915 1.433 . S
C908 H904 0.929 . S
C908 C910 1.378 . S
C908 C912 1.350 . S
C909 C912 1.463 . S
C909 C914 1.350 . S
C909 N917 1.427 . S
C910 H901 0.930 . S
C910 C908 1.378 . S
C910 C911 1.367 . S
C911 C910 1.367 . S
C911 C913 1.433 . S
C912 C908 1.350 . S
C912 C909 1.463 . S
C912 N916 1.427 . S
C913 H903 0.929 . S
C913 C911 1.433 . S
C913 N916 1.384 . S
C914 H905 0.929 . S
C914 C906 1.378 . S
C914 C909 1.350 . S
C915 H902 0.929 . S
C915 C907 1.433 . S
C915 N917 1.384 . S
N916 C912 1.427 . S
N916 C913 1.384 . S
N917 C909 1.427 . S
N917 C915 1.384 . S
H918 C924 0.930 . S
H919 C928 0.930 . S
H920 C933 0.929 . S
H921 C931 0.929 . S
H922 C926 0.929 . S
H923 C932 0.929 . S
C924 H918 0.930 . S
C924 C925 1.367 . S
C924 C932 1.378 . S
C925 C924 1.367 . S
C925 C933 1.433 . S
C926 H922 0.929 . S
C926 C928 1.378 . S
C926 C930 1.350 . S
C927 C930 1.463 . S
C927 C932 1.350 . S
C927 N935 1.427 . S
C928 H919 0.930 . S
C928 C926 1.378 . S
C928 C929 1.367 . S
C929 C928 1.367 . S
C929 C931 1.433 . S
C930 C926 1.350 . S
C930 C927 1.463 . S
C930 N934 1.427 . S
C931 H921 0.929 . S
C931 C929 1.433 . S
C931 N934 1.384 . S
C932 H923 0.929 . S
C932 C924 1.378 . S
C932 C927 1.350 . S
C933 H920 0.929 . S
C933 C925 1.433 . S
C933 N935 1.384 . S
N934 C930 1.427 . S
N934 C931 1.384 . S
N935 C927 1.427 . S
N935 C933 1.384 . S
H936 C942 0.930 . S
H937 C946 0.930 . S
H938 C951 0.929 . S
H939 C949 0.929 . S
H940 C944 0.929 . S
H941 C950 0.929 . S
C942 H936 0.930 . S
C942 C943 1.367 . S
C942 C950 1.378 . S
C943 C942 1.367 . S
C943 C951 1.433 . S
C944 H940 0.929 . S
C944 C946 1.378 . S
C944 C948 1.350 . S
C945 C948 1.463 . S
C945 C950 1.350 . S
C945 N953 1.427 . S
C946 H937 0.930 . S
C946 C944 1.378 . S
C946 C947 1.367 . S
C947 C946 1.367 . S
C947 C949 1.433 . S
C948 C944 1.350 . S
C948 C945 1.463 . S
C948 N952 1.427 . S
C949 H939 0.929 . S
C949 C947 1.433 . S
C949 N952 1.384 . S
C950 H941 0.929 . S
C950 C942 1.378 . S
C950 C945 1.350 . S
C951 H938 0.929 . S
C951 C943 1.433 . S
C951 N953 1.384 . S
N952 C948 1.427 . S
N952 C949 1.384 . S
N953 C945 1.427 . S
N953 C951 1.384 . S
H954 C960 0.930 . S
H955 C964 0.930 . S
H956 C969 0.929 . S
H957 C967 0.929 . S
H958 C962 0.929 . S
H959 C968 0.929 . S
C960 H954 0.930 . S
C960 C961 1.367 . S
C960 C968 1.378 . S
C961 C960 1.367 . S
C961 C969 1.433 . S
C962 H958 0.929 . S
C962 C964 1.378 . S
C962 C966 1.350 . S
C963 C966 1.463 . S
C963 C968 1.350 . S
C963 N971 1.427 . S
C964 H955 0.930 . S
C964 C962 1.378 . S
C964 C965 1.367 . S
C965 C964 1.367 . S
C965 C967 1.433 . S
C966 C962 1.350 . S
C966 C963 1.463 . S
C966 N970 1.427 . S
C967 H957 0.929 . S
C967 C965 1.433 . S
C967 N970 1.384 . S
C968 H959 0.929 . S
C968 C960 1.378 . S
C968 C963 1.350 . S
C969 H956 0.929 . S
C969 C961 1.433 . S
C969 N971 1.384 . S
N970 C966 1.427 . S
N970 C967 1.384 . S
N971 C963 1.427 . S
N971 C969 1.384 . S
H972 C978 0.930 . S
H973 C982 0.930 . S
H974 C987 0.929 . S
H975 C985 0.929 . S
H976 C980 0.929 . S
H977 C986 0.929 . S
C978 H972 0.930 . S
C978 C979 1.367 . S
C978 C986 1.378 . S
C979 C978 1.367 . S
C979 C987 1.433 . S
C980 H976 0.929 . S
C980 C982 1.378 . S
C980 C984 1.350 . S
C981 C984 1.463 . S
C981 C986 1.350 . S
C981 N989 1.427 . S
C982 H973 0.930 . S
C982 C980 1.378 . S
C982 C983 1.367 . S
C983 C982 1.367 . S
C983 C985 1.433 . S
C984 C980 1.350 . S
C984 C981 1.463 . S
C984 N988 1.427 . S
C985 H975 0.929 . S
C985 C983 1.433 . S
C985 N988 1.384 . S
C986 H977 0.929 . S
C986 C978 1.378 . S
C986 C981 1.350 . S
C987 H974 0.929 . S
C987 C979 1.433 . S
C987 N989 1.384 . S
N988 C984 1.427 . S
N988 C985 1.384 . S
N989 C981 1.427 . S
N989 C987 1.384 . S
H990 C996 0.930 . S
H991 C1000 0.930 . S
H992 C1005 0.929 . S
H993 C1003 0.929 . S
H994 C998 0.929 . S
H995 C1004 0.929 . S
C996 H990 0.930 . S
C996 C997 1.367 . S
C996 C1004 1.378 . S
C997 C996 1.367 . S
C997 C1005 1.433 . S
C998 H994 0.929 . S
C998 C1000 1.378 . S
C998 C1002 1.350 . S
C999 C1002 1.463 . S
C999 C1004 1.350 . S
C999 N1007 1.427 . S
C1000 H991 0.930 . S
C1000 C998 1.378 . S
C1000 C1001 1.367 . S
C1001 C1000 1.367 . S
C1001 C1003 1.433 . S
C1002 C998 1.350 . S
C1002 C999 1.463 . S
C1002 N1006 1.427 . S
C1003 H993 0.929 . S
C1003 C1001 1.433 . S
C1003 N1006 1.384 . S
C1004 H995 0.929 . S
C1004 C996 1.378 . S
C1004 C999 1.350 . S
C1005 H992 0.929 . S
C1005 C997 1.433 . S
C1005 N1007 1.384 . S
N1006 C1002 1.427 . S
N1006 C1003 1.384 . S
N1007 C999 1.427 . S
N1007 C1005 1.384 . S
H1008 C1014 0.930 . S
H1009 C1018 0.930 . S
H1010 C1023 0.929 . S
H1011 C1021 0.929 . S
H1012 C1016 0.929 . S
H1013 C1022 0.929 . S
C1014 H1008 0.930 . S
C1014 C1015 1.367 . S
C1014 C1022 1.378 . S
C1015 C1014 1.367 . S
C1015 C1023 1.433 . S
C1016 H1012 0.929 . S
C1016 C1018 1.378 . S
C1016 C1020 1.350 . S
C1017 C1020 1.463 . S
C1017 C1022 1.350 . S
C1017 N1025 1.427 . S
C1018 H1009 0.930 . S
C1018 C1016 1.378 . S
C1018 C1019 1.367 . S
C1019 C1018 1.367 . S
C1019 C1021 1.433 . S
C1020 C1016 1.350 . S
C1020 C1017 1.463 . S
C1020 N1024 1.427 . S
C1021 H1011 0.929 . S
C1021 C1019 1.433 . S
C1021 N1024 1.384 . S
C1022 H1013 0.929 . S
C1022 C1014 1.378 . S
C1022 C1017 1.350 . S
C1023 H1010 0.929 . S
C1023 C1015 1.433 . S
C1023 N1025 1.384 . S
N1024 C1020 1.427 . S
N1024 C1021 1.384 . S
N1025 C1017 1.427 . S
N1025 C1023 1.384 . S
H1026 C1032 0.930 . S
H1027 C1036 0.930 . S
H1028 C1041 0.929 . S
H1029 C1039 0.929 . S
H1030 C1034 0.929 . S
H1031 C1040 0.929 . S
C1032 H1026 0.930 . S
C1032 C1033 1.367 . S
C1032 C1040 1.378 . S
C1033 C1032 1.367 . S
C1033 C1041 1.433 . S
C1034 H1030 0.929 . S
C1034 C1036 1.378 . S
C1034 C1038 1.350 . S
C1035 C1038 1.463 . S
C1035 C1040 1.350 . S
C1035 N1043 1.427 . S
C1036 H1027 0.930 . S
C1036 C1034 1.378 . S
C1036 C1037 1.367 . S
C1037 C1036 1.367 . S
C1037 C1039 1.433 . S
C1038 C1034 1.350 . S
C1038 C1035 1.463 . S
C1038 N1042 1.427 . S
C1039 H1029 0.929 . S
C1039 C1037 1.433 . S
C1039 N1042 1.384 . S
C1040 H1031 0.929 . S
C1040 C1032 1.378 . S
C1040 C1035 1.350 . S
C1041 H1028 0.929 . S
C1041 C1033 1.433 . S
C1041 N1043 1.384 . S
N1042 C1038 1.427 . S
N1042 C1039 1.384 . S
N1043 C1035 1.427 . S
N1043 C1041 1.384 . S
H1044 C1050 0.930 . S
H1045 C1054 0.930 . S
H1046 C1059 0.929 . S
H1047 C1057 0.929 . S
H1048 C1052 0.929 . S
H1049 C1058 0.929 . S
C1050 H1044 0.930 . S
C1050 C1051 1.367 . S
C1050 C1058 1.378 . S
C1051 C1050 1.367 . S
C1051 C1059 1.433 1_556 S
C1052 H1048 0.929 . S
C1052 C1054 1.378 . S
C1052 C1056 1.350 . S
C1053 C1056 1.463 1_566 S
C1053 C1058 1.350 . S
C1053 N1061 1.427 1_556 S
C1054 H1045 0.930 . S
C1054 C1052 1.378 . S
C1054 C1055 1.367 . S
C1055 C1054 1.367 . S
C1055 C1057 1.433 1_554 S
C1056 C1052 1.350 . S
C1056 C1053 1.463 1_544 S
C1056 N1060 1.427 1_554 S
C1057 H1047 0.929 . S
C1057 C1055 1.433 1_556 S
C1057 N1060 1.384 . S
C1058 H1049 0.929 . S
C1058 C1050 1.378 . S
C1058 C1053 1.350 . S
C1059 H1046 0.929 . S
C1059 C1051 1.433 1_554 S
C1059 N1061 1.384 . S
N1060 C1056 1.427 1_556 S
N1060 C1057 1.384 . S
N1061 C1053 1.427 1_554 S
N1061 C1059 1.384 . S
H1062 C1068 0.930 . S
H1063 C1072 0.930 . S
H1064 C1077 0.929 . S
H1065 C1075 0.929 . S
H1066 C1070 0.929 . S
H1067 C1076 0.929 . S
C1068 H1062 0.930 . S
C1068 C1069 1.367 . S
C1068 C1076 1.378 . S
C1069 C1068 1.367 . S
C1069 C1077 1.433 1_554 S
C1070 H1066 0.929 . S
C1070 C1072 1.378 . S
C1070 C1074 1.350 . S
C1071 C1074 1.463 1_654 S
C1071 C1076 1.350 . S
C1071 N1079 1.427 1_554 S
C1072 H1063 0.930 . S
C1072 C1070 1.378 . S
C1072 C1073 1.367 . S
C1073 C1072 1.367 . S
C1073 C1075 1.433 1_556 S
C1074 C1070 1.350 . S
C1074 C1071 1.463 1_456 S
C1074 N1078 1.427 1_556 S
C1075 H1065 0.929 . S
C1075 C1073 1.433 1_554 S
C1075 N1078 1.384 . S
C1076 H1067 0.929 . S
C1076 C1068 1.378 . S
C1076 C1071 1.350 . S
C1077 H1064 0.929 . S
C1077 C1069 1.433 1_556 S
C1077 N1079 1.384 . S
N1078 C1074 1.427 1_554 S
N1078 C1075 1.384 . S
N1079 C1071 1.427 1_556 S
N1079 C1077 1.384 . S
H1080 C1086 0.930 . S
H1081 C1090 0.930 . S
H1082 C1095 0.929 . S
H1083 C1093 0.929 . S
H1084 C1088 0.929 . S
H1085 C1094 0.929 . S
C1086 H1080 0.930 . S
C1086 C1087 1.367 1_556 S
C1086 C1094 1.378 . S
C1087 C1086 1.367 1_554 S
C1087 C1095 1.433 . S
C1088 H1084 0.929 . S
C1088 C1090 1.378 . S
C1088 C1092 1.350 1_554 S
C1089 C1092 1.463 1_554 S
C1089 C1094 1.350 1_554 S
C1089 N1097 1.427 . S
C1090 H1081 0.930 . S
C1090 C1088 1.378 . S
C1090 C1091 1.367 1_554 S
C1091 C1090 1.367 1_556 S
C1091 C1093 1.433 . S
C1092 C1088 1.350 1_556 S
C1092 C1089 1.463 1_556 S
C1092 N1096 1.427 . S
C1093 H1083 0.929 . S
C1093 C1091 1.433 . S
C1093 N1096 1.384 . S
C1094 H1085 0.929 . S
C1094 C1086 1.378 . S
C1094 C1089 1.350 1_556 S
C1095 H1082 0.929 . S
C1095 C1087 1.433 . S
C1095 N1097 1.384 . S
N1096 C1092 1.427 . S
N1096 C1093 1.384 . S
N1097 C1089 1.427 . S
N1097 C1095 1.384 . S
H1098 C1104 0.930 . S
H1099 C1108 0.930 . S
H1100 C1113 0.929 . S
H1101 C1111 0.929 . S
H1102 C1106 0.929 . S
H1103 C1112 0.929 . S
C1104 H1098 0.930 . S
C1104 C1105 1.367 . S
C1104 C1112 1.378 . S
C1105 C1104 1.367 . S
C1105 C1113 1.433 . S
C1106 H1102 0.929 . S
C1106 C1108 1.378 . S
C1106 C1110 1.350 . S
C1107 C1110 1.475 . S
C1107 C1112 1.336 1_554 S
C1107 N1115 1.429 . S
C1108 H1099 0.930 . S
C1108 C1106 1.378 . S
C1108 C1109 1.367 . S
C1109 C1108 1.367 . S
C1109 C1111 1.433 . S
C1110 C1106 1.350 . S
C1110 C1107 1.475 . S
C1110 N1114 1.427 . S
C1111 H1101 0.929 . S
C1111 C1109 1.433 . S
C1111 N1114 1.384 . S
C1112 H1103 0.929 . S
C1112 C1104 1.378 . S
C1112 C1107 1.336 1_556 S
C1113 H1100 0.929 . S
C1113 C1105 1.433 . S
C1113 N1115 1.384 1_556 S
N1114 C1110 1.427 . S
N1114 C1111 1.384 . S
N1115 C1107 1.429 . S
N1115 C1113 1.384 1_554 S
H1116 C1122 0.930 . S
H1117 C1126 0.930 . S
H1118 C1131 0.929 . S
H1119 C1129 0.929 . S
H1120 C1124 0.929 . S
H1121 C1130 0.929 . S
C1122 H1116 0.930 . S
C1122 C1123 1.367 . S
C1122 C1130 1.378 . S
C1123 C1122 1.367 . S
C1123 C1131 1.433 . S
C1124 H1120 0.929 . S
C1124 C1126 1.378 . S
C1124 C1128 1.350 . S
C1125 C1128 1.463 . S
C1125 C1130 1.350 1_554 S
C1125 N1133 1.427 1_554 S
C1126 H1117 0.930 . S
C1126 C1124 1.378 . S
C1126 C1127 1.367 . S
C1127 C1126 1.367 . S
C1127 C1129 1.433 . S
C1128 C1124 1.350 . S
C1128 C1125 1.463 . S
C1128 N1132 1.427 . S
C1129 H1119 0.929 . S
C1129 C1127 1.433 . S
C1129 N1132 1.384 . S
C1130 H1121 0.929 . S
C1130 C1122 1.378 . S
C1130 C1125 1.350 1_556 S
C1131 H1118 0.929 . S
C1131 C1123 1.433 . S
C1131 N1133 1.384 . S
N1132 C1128 1.427 . S
N1132 C1129 1.384 . S
N1133 C1125 1.427 1_556 S
N1133 C1131 1.384 . S
H1134 C1140 0.930 . S
H1135 C1144 0.930 . S
H1136 C1149 0.929 . S
H1137 C1147 0.929 . S
H1138 C1142 0.929 . S
H1139 C1148 0.929 . S
C1140 H1134 0.930 . S
C1140 C1141 1.367 . S
C1140 C1148 1.378 . S
C1141 C1140 1.367 . S
C1141 C1149 1.433 . S
C1142 H1138 0.929 . S
C1142 C1144 1.378 . S
C1142 C1146 1.338 1_556 S
C1143 C1146 1.473 . S
C1143 C1148 1.350 . S
C1143 N1151 1.427 . S
C1144 H1135 0.930 . S
C1144 C1142 1.378 . S
C1144 C1145 1.367 . S
C1145 C1144 1.367 . S
C1145 C1147 1.433 . S
C1146 C1142 1.338 1_554 S
C1146 C1143 1.473 . S
C1146 N1150 1.430 . S
C1147 H1137 0.929 . S
C1147 C1145 1.433 . S
C1147 N1150 1.384 1_556 S
C1148 H1139 0.929 . S
C1148 C1140 1.378 . S
C1148 C1143 1.350 . S
C1149 H1136 0.929 . S
C1149 C1141 1.433 . S
C1149 N1151 1.384 . S
N1150 C1146 1.430 . S
N1150 C1147 1.384 1_554 S
N1151 C1143 1.427 . S
N1151 C1149 1.384 . S
H1152 C1158 0.930 . S
H1153 C1162 0.930 . S
H1154 C1167 0.929 . S
H1155 C1165 0.929 . S
H1156 C1160 0.929 . S
H1157 C1166 0.929 . S
C1158 H1152 0.930 . S
C1158 C1159 1.367 . S
C1158 C1166 1.378 1_554 S
C1159 C1158 1.367 . S
C1159 C1167 1.433 . S
C1160 H1156 0.929 . S
C1160 C1162 1.378 . S
C1160 C1164 1.350 . S
C1161 C1164 1.463 . S
C1161 C1166 1.350 . S
C1161 N1169 1.427 1_556 S
C1162 H1153 0.930 . S
C1162 C1160 1.378 . S
C1162 C1163 1.367 . S
C1163 C1162 1.367 . S
C1163 C1165 1.433 . S
C1164 C1160 1.350 . S
C1164 C1161 1.463 . S
C1164 N1168 1.427 . S
C1165 H1155 0.929 . S
C1165 C1163 1.433 . S
C1165 N1168 1.384 . S
C1166 H1157 0.929 . S
C1166 C1158 1.378 1_556 S
C1166 C1161 1.350 . S
C1167 H1154 0.929 . S
C1167 C1159 1.433 . S
C1167 N1169 1.384 . S
N1168 C1164 1.427 . S
N1168 C1165 1.384 . S
N1169 C1161 1.427 1_554 S
N1169 C1167 1.384 . S
H1170 C1176 0.930 . S
H1171 C1180 0.930 . S
H1172 C1185 0.929 . S
H1173 C1183 0.929 . S
H1174 C1178 0.929 1_554 S
H1175 C1184 0.929 . S
C1176 H1170 0.930 . S
C1176 C1177 1.367 . S
C1176 C1184 1.378 1_554 S
C1177 C1176 1.367 . S
C1177 C1185 1.433 . S
C1178 H1174 0.929 1_556 S
C1178 C1180 1.378 . S
C1178 C1182 1.350 . S
C1179 C1182 1.463 . S
C1179 C1184 1.350 . S
C1179 N1187 1.427 1_556 S
C1180 H1171 0.930 . S
C1180 C1178 1.378 . S
C1180 C1181 1.367 . S
C1181 C1180 1.367 . S
C1181 C1183 1.433 . S
C1182 C1178 1.350 . S
C1182 C1179 1.463 . S
C1182 N1186 1.427 . S
C1183 H1173 0.929 . S
C1183 C1181 1.433 . S
C1183 N1186 1.384 . S
C1184 H1175 0.929 . S
C1184 C1176 1.378 1_556 S
C1184 C1179 1.350 . S
C1185 H1172 0.929 . S
C1185 C1177 1.433 . S
C1185 N1187 1.384 . S
N1186 C1182 1.427 . S
N1186 C1183 1.384 . S
N1187 C1179 1.427 1_554 S
N1187 C1185 1.384 . S
H1188 C1194 0.930 . S
H1189 C1198 0.930 . S
H1190 C1203 0.929 . S
H1191 C1201 0.929 . S
H1192 C1196 0.929 1_554 S
H1193 C1202 0.929 . S
C1194 H1188 0.930 . S
C1194 C1195 1.367 . S
C1194 C1202 1.378 1_554 S
C1195 C1194 1.367 . S
C1195 C1203 1.433 . S
C1196 H1192 0.929 1_556 S
C1196 C1198 1.378 . S
C1196 C1200 1.350 . S
C1197 C1200 1.463 . S
C1197 C1202 1.350 . S
C1197 N1205 1.427 1_556 S
C1198 H1189 0.930 . S
C1198 C1196 1.378 . S
C1198 C1199 1.367 . S
C1199 C1198 1.367 . S
C1199 C1201 1.433 . S
C1200 C1196 1.350 . S
C1200 C1197 1.463 . S
C1200 N1204 1.427 . S
C1201 H1191 0.929 . S
C1201 C1199 1.433 . S
C1201 N1204 1.384 . S
C1202 H1193 0.929 . S
C1202 C1194 1.378 1_556 S
C1202 C1197 1.350 . S
C1203 H1190 0.929 . S
C1203 C1195 1.433 . S
C1203 N1205 1.384 . S
N1204 C1200 1.427 . S
N1204 C1201 1.384 . S
N1205 C1197 1.427 1_554 S
N1205 C1203 1.384 . S
H1206 C1212 0.930 . S
H1207 C1216 0.930 . S
H1208 C1221 0.929 . S
H1209 C1219 0.929 . S
H1210 C1214 0.929 . S
H1211 C1220 0.929 . S
C1212 H1206 0.930 . S
C1212 C1213 1.367 . S
C1212 C1220 1.378 . S
C1213 C1212 1.367 . S
C1213 C1221 1.433 . S
C1214 H1210 0.929 . S
C1214 C1216 1.378 . S
C1214 C1218 1.350 . S
C1215 C1218 1.463 . S
C1215 C1220 1.350 . S
C1215 N1223 1.427 . S
C1216 H1207 0.930 . S
C1216 C1214 1.378 . S
C1216 C1217 1.367 . S
C1217 C1216 1.367 . S
C1217 C1219 1.433 . S
C1218 C1214 1.350 . S
C1218 C1215 1.463 . S
C1218 N1222 1.427 . S
C1219 H1209 0.929 . S
C1219 C1217 1.433 . S
C1219 N1222 1.384 . S
C1220 H1211 0.929 . S
C1220 C1212 1.378 . S
C1220 C1215 1.350 . S
C1221 H1208 0.929 . S
C1221 C1213 1.433 . S
C1221 N1223 1.384 . S
N1222 C1218 1.427 . S
N1222 C1219 1.384 . S
N1223 C1215 1.427 . S
N1223 C1221 1.384 . S
H1224 C1230 0.930 . S
H1225 C1234 0.930 . S
H1226 C1239 0.929 . S
H1227 C1237 0.929 . S
H1228 C1232 0.929 . S
H1229 C1238 0.929 . S
C1230 H1224 0.930 . S
C1230 C1231 1.367 . S
C1230 C1238 1.378 . S
C1231 C1230 1.367 . S
C1231 C1239 1.433 . S
C1232 H1228 0.929 . S
C1232 C1234 1.378 . S
C1232 C1236 1.350 . S
C1233 C1236 1.463 . S
C1233 C1238 1.350 . S
C1233 N1241 1.427 . S
C1234 H1225 0.930 . S
C1234 C1232 1.378 . S
C1234 C1235 1.367 . S
C1235 C1234 1.367 . S
C1235 C1237 1.433 . S
C1236 C1232 1.350 . S
C1236 C1233 1.463 . S
C1236 N1240 1.427 . S
C1237 H1227 0.929 . S
C1237 C1235 1.433 . S
C1237 N1240 1.384 . S
C1238 H1229 0.929 . S
C1238 C1230 1.378 . S
C1238 C1233 1.350 . S
C1239 H1226 0.929 . S
C1239 C1231 1.433 . S
C1239 N1241 1.384 . S
N1240 C1236 1.427 . S
N1240 C1237 1.384 . S
N1241 C1233 1.427 . S
N1241 C1239 1.384 . S
H1242 C1248 0.930 . S
H1243 C1252 0.930 . S
H1244 C1257 0.929 . S
H1245 C1255 0.929 . S
H1246 C1250 0.929 . S
H1247 C1256 0.929 . S
C1248 H1242 0.930 . S
C1248 C1249 1.367 . S
C1248 C1256 1.378 . S
C1249 C1248 1.367 . S
C1249 C1257 1.433 . S
C1250 H1246 0.929 . S
C1250 C1252 1.378 . S
C1250 C1254 1.350 . S
C1251 C1254 1.463 . S
C1251 C1256 1.350 . S
C1251 N1259 1.427 . S
C1252 H1243 0.930 . S
C1252 C1250 1.378 . S
C1252 C1253 1.367 . S
C1253 C1252 1.367 . S
C1253 C1255 1.433 . S
C1254 C1250 1.350 . S
C1254 C1251 1.463 . S
C1254 N1258 1.427 . S
C1255 H1245 0.929 . S
C1255 C1253 1.433 . S
C1255 N1258 1.384 . S
C1256 H1247 0.929 . S
C1256 C1248 1.378 . S
C1256 C1251 1.350 . S
C1257 H1244 0.929 . S
C1257 C1249 1.433 . S
C1257 N1259 1.384 . S
N1258 C1254 1.427 . S
N1258 C1255 1.384 . S
N1259 C1251 1.427 . S
N1259 C1257 1.384 . S
H1260 C1266 0.930 . S
H1261 C1270 0.930 . S
H1262 C1275 0.929 . S
H1263 C1273 0.929 . S
H1264 C1268 0.929 . S
H1265 C1274 0.929 . S
C1266 H1260 0.930 . S
C1266 C1267 1.367 . S
C1266 C1274 1.378 . S
C1267 C1266 1.367 . S
C1267 C1275 1.433 . S
C1268 H1264 0.929 . S
C1268 C1270 1.378 . S
C1268 C1272 1.350 . S
C1269 C1272 1.463 . S
C1269 C1274 1.350 . S
C1269 N1277 1.427 . S
C1270 H1261 0.930 . S
C1270 C1268 1.378 . S
C1270 C1271 1.367 . S
C1271 C1270 1.367 . S
C1271 C1273 1.433 . S
C1272 C1268 1.350 . S
C1272 C1269 1.463 . S
C1272 N1276 1.427 . S
C1273 H1263 0.929 . S
C1273 C1271 1.433 . S
C1273 N1276 1.384 . S
C1274 H1265 0.929 . S
C1274 C1266 1.378 . S
C1274 C1269 1.350 . S
C1275 H1262 0.929 . S
C1275 C1267 1.433 . S
C1275 N1277 1.384 . S
N1276 C1272 1.427 . S
N1276 C1273 1.384 . S
N1277 C1269 1.427 . S
N1277 C1275 1.384 . S
H1278 C1284 0.930 . S
H1279 C1288 0.930 . S
H1280 C1293 0.929 . S
H1281 C1291 0.929 . S
H1282 C1286 0.929 . S
H1283 C1292 0.929 . S
C1284 H1278 0.930 . S
C1284 C1285 1.367 . S
C1284 C1292 1.378 . S
C1285 C1284 1.367 . S
C1285 C1293 1.433 . S
C1286 H1282 0.929 . S
C1286 C1288 1.378 . S
C1286 C1290 1.350 . S
C1287 C1290 1.463 . S
C1287 C1292 1.350 . S
C1287 N1295 1.427 . S
C1288 H1279 0.930 . S
C1288 C1286 1.378 . S
C1288 C1289 1.367 . S
C1289 C1288 1.367 . S
C1289 C1291 1.433 . S
C1290 C1286 1.350 . S
C1290 C1287 1.463 . S
C1290 N1294 1.427 . S
C1291 H1281 0.929 . S
C1291 C1289 1.433 . S
C1291 N1294 1.384 . S
C1292 H1283 0.929 . S
C1292 C1284 1.378 . S
C1292 C1287 1.350 . S
C1293 H1280 0.929 . S
C1293 C1285 1.433 . S
C1293 N1295 1.384 . S
N1294 C1290 1.427 . S
N1294 C1291 1.384 . S
N1295 C1287 1.427 . S
N1295 C1293 1.384 . S
H1296 C1302 0.930 . S
H1297 C1306 0.930 . S
H1298 C1311 0.929 . S
H1299 C1309 0.929 . S
H1300 C1304 0.929 . S
H1301 C1310 0.929 . S
C1302 H1296 0.930 . S
C1302 C1303 1.367 . S
C1302 C1310 1.378 . S
C1303 C1302 1.367 . S
C1303 C1311 1.433 . S
C1304 H1300 0.929 . S
C1304 C1306 1.378 . S
C1304 C1308 1.350 . S
C1305 C1308 1.463 . S
C1305 C1310 1.350 . S
C1305 N1313 1.427 . S
C1306 H1297 0.930 . S
C1306 C1304 1.378 . S
C1306 C1307 1.367 . S
C1307 C1306 1.367 . S
C1307 C1309 1.433 . S
C1308 C1304 1.350 . S
C1308 C1305 1.463 . S
C1308 N1312 1.427 . S
C1309 H1299 0.929 . S
C1309 C1307 1.433 . S
C1309 N1312 1.384 . S
C1310 H1301 0.929 . S
C1310 C1302 1.378 . S
C1310 C1305 1.350 . S
C1311 H1298 0.929 . S
C1311 C1303 1.433 . S
C1311 N1313 1.384 . S
N1312 C1308 1.427 . S
N1312 C1309 1.384 . S
N1313 C1305 1.427 . S
N1313 C1311 1.384 . S
H1314 C1320 0.930 . S
H1315 C1324 0.930 . S
H1316 C1329 0.929 . S
H1317 C1327 0.929 . S
H1318 C1322 0.929 . S
H1319 C1328 0.929 . S
C1320 H1314 0.930 . S
C1320 C1321 1.367 . S
C1320 C1328 1.378 . S
C1321 C1320 1.367 . S
C1321 C1329 1.433 . S
C1322 H1318 0.929 . S
C1322 C1324 1.378 . S
C1322 C1326 1.350 . S
C1323 C1326 1.463 . S
C1323 C1328 1.350 . S
C1323 N1331 1.427 . S
C1324 H1315 0.930 . S
C1324 C1322 1.378 . S
C1324 C1325 1.367 . S
C1325 C1324 1.367 . S
C1325 C1327 1.433 . S
C1326 C1322 1.350 . S
C1326 C1323 1.463 . S
C1326 N1330 1.427 . S
C1327 H1317 0.929 . S
C1327 C1325 1.433 . S
C1327 N1330 1.384 . S
C1328 H1319 0.929 . S
C1328 C1320 1.378 . S
C1328 C1323 1.350 . S
C1329 H1316 0.929 . S
C1329 C1321 1.433 . S
C1329 N1331 1.384 . S
N1330 C1326 1.427 . S
N1330 C1327 1.384 . S
N1331 C1323 1.427 . S
N1331 C1329 1.384 . S
H1332 C1338 0.930 . S
H1333 C1342 0.930 . S
H1334 C1347 0.929 . S
H1335 C1345 0.929 . S
H1336 C1340 0.929 . S
H1337 C1346 0.929 . S
C1338 H1332 0.930 . S
C1338 C1339 1.367 . S
C1338 C1346 1.378 . S
C1339 C1338 1.367 . S
C1339 C1347 1.433 . S
C1340 H1336 0.929 . S
C1340 C1342 1.378 . S
C1340 C1344 1.350 . S
C1341 C1344 1.463 . S
C1341 C1346 1.350 . S
C1341 N1349 1.427 . S
C1342 H1333 0.930 . S
C1342 C1340 1.378 . S
C1342 C1343 1.367 . S
C1343 C1342 1.367 . S
C1343 C1345 1.433 . S
C1344 C1340 1.350 . S
C1344 C1341 1.463 . S
C1344 N1348 1.427 . S
C1345 H1335 0.929 . S
C1345 C1343 1.433 . S
C1345 N1348 1.384 . S
C1346 H1337 0.929 . S
C1346 C1338 1.378 . S
C1346 C1341 1.350 . S
C1347 H1334 0.929 . S
C1347 C1339 1.433 . S
C1347 N1349 1.384 . S
N1348 C1344 1.427 . S
N1348 C1345 1.384 . S
N1349 C1341 1.427 . S
N1349 C1347 1.384 . S
H1350 C1356 0.930 . S
H1351 C1360 0.930 . S
H1352 C1365 0.929 . S
H1353 C1363 0.929 . S
H1354 C1358 0.929 . S
H1355 C1364 0.929 . S
C1356 H1350 0.930 . S
C1356 C1357 1.367 . S
C1356 C1364 1.378 . S
C1357 C1356 1.367 . S
C1357 C1365 1.433 . S
C1358 H1354 0.929 . S
C1358 C1360 1.378 . S
C1358 C1362 1.350 . S
C1359 C1362 1.463 . S
C1359 C1364 1.350 . S
C1359 N1367 1.427 . S
C1360 H1351 0.930 . S
C1360 C1358 1.378 . S
C1360 C1361 1.367 . S
C1361 C1360 1.367 . S
C1361 C1363 1.433 . S
C1362 C1358 1.350 . S
C1362 C1359 1.463 . S
C1362 N1366 1.427 . S
C1363 H1353 0.929 . S
C1363 C1361 1.433 . S
C1363 N1366 1.384 . S
C1364 H1355 0.929 . S
C1364 C1356 1.378 . S
C1364 C1359 1.350 . S
C1365 H1352 0.929 . S
C1365 C1357 1.433 . S
C1365 N1367 1.384 . S
N1366 C1362 1.427 . S
N1366 C1363 1.384 . S
N1367 C1359 1.427 . S
N1367 C1365 1.384 . S
H1368 C1374 0.930 . S
H1369 C1378 0.930 . S
H1370 C1383 0.929 . S
H1371 C1381 0.929 . S
H1372 C1376 0.929 . S
H1373 C1382 0.929 . S
C1374 H1368 0.930 . S
C1374 C1375 1.367 . S
C1374 C1382 1.378 . S
C1375 C1374 1.367 . S
C1375 C1383 1.433 . S
C1376 H1372 0.929 . S
C1376 C1378 1.378 . S
C1376 C1380 1.350 . S
C1377 C1380 1.463 . S
C1377 C1382 1.350 . S
C1377 N1385 1.427 . S
C1378 H1369 0.930 . S
C1378 C1376 1.378 . S
C1378 C1379 1.367 . S
C1379 C1378 1.367 . S
C1379 C1381 1.433 . S
C1380 C1376 1.350 . S
C1380 C1377 1.463 . S
C1380 N1384 1.427 . S
C1381 H1371 0.929 . S
C1381 C1379 1.433 . S
C1381 N1384 1.384 . S
C1382 H1373 0.929 . S
C1382 C1374 1.378 . S
C1382 C1377 1.350 . S
C1383 H1370 0.929 . S
C1383 C1375 1.433 . S
C1383 N1385 1.384 . S
N1384 C1380 1.427 . S
N1384 C1381 1.384 . S
N1385 C1377 1.427 . S
N1385 C1383 1.384 . S
H1386 C1392 0.930 . S
H1387 C1396 0.930 . S
H1388 C1401 0.929 . S
H1389 C1399 0.929 . S
H1390 C1394 0.929 . S
H1391 C1400 0.929 . S
C1392 H1386 0.930 . S
C1392 C1393 1.367 . S
C1392 C1400 1.378 . S
C1393 C1392 1.367 . S
C1393 C1401 1.433 . S
C1394 H1390 0.929 . S
C1394 C1396 1.378 . S
C1394 C1398 1.350 . S
C1395 C1398 1.463 . S
C1395 C1400 1.350 . S
C1395 N1403 1.427 . S
C1396 H1387 0.930 . S
C1396 C1394 1.378 . S
C1396 C1397 1.367 . S
C1397 C1396 1.367 . S
C1397 C1399 1.433 . S
C1398 C1394 1.350 . S
C1398 C1395 1.463 . S
C1398 N1402 1.427 . S
C1399 H1389 0.929 . S
C1399 C1397 1.433 . S
C1399 N1402 1.384 . S
C1400 H1391 0.929 . S
C1400 C1392 1.378 . S
C1400 C1395 1.350 . S
C1401 H1388 0.929 . S
C1401 C1393 1.433 . S
C1401 N1403 1.384 . S
N1402 C1398 1.427 . S
N1402 C1399 1.384 . S
N1403 C1395 1.427 . S
N1403 C1401 1.384 . S
H1404 C1410 0.930 . S
H1405 C1414 0.930 . S
H1406 C1419 0.929 . S
H1407 C1417 0.929 . S
H1408 C1412 0.929 . S
H1409 C1418 0.929 . S
C1410 H1404 0.930 . S
C1410 C1411 1.367 . S
C1410 C1418 1.378 . S
C1411 C1410 1.367 . S
C1411 C1419 1.433 . S
C1412 H1408 0.929 . S
C1412 C1414 1.378 . S
C1412 C1416 1.350 . S
C1413 C1416 1.463 . S
C1413 C1418 1.350 . S
C1413 N1421 1.427 . S
C1414 H1405 0.930 . S
C1414 C1412 1.378 . S
C1414 C1415 1.367 . S
C1415 C1414 1.367 . S
C1415 C1417 1.433 . S
C1416 C1412 1.350 . S
C1416 C1413 1.463 . S
C1416 N1420 1.427 . S
C1417 H1407 0.929 . S
C1417 C1415 1.433 . S
C1417 N1420 1.384 . S
C1418 H1409 0.929 . S
C1418 C1410 1.378 . S
C1418 C1413 1.350 . S
C1419 H1406 0.929 . S
C1419 C1411 1.433 . S
C1419 N1421 1.384 . S
N1420 C1416 1.427 . S
N1420 C1417 1.384 . S
N1421 C1413 1.427 . S
N1421 C1419 1.384 . S
H1422 C1428 0.930 1_556 S
H1423 C1432 0.930 . S
H1424 C1437 0.929 . S
H1425 C1435 0.929 . S
H1426 C1430 0.929 . S
H1427 C1436 0.929 . S
C1428 H1422 0.930 1_554 S
C1428 C1429 1.367 . S
C1428 C1436 1.378 . S
C1429 C1428 1.367 . S
C1429 C1437 1.433 . S
C1430 H1426 0.929 . S
C1430 C1432 1.378 . S
C1430 C1434 1.350 . S
C1431 C1434 1.463 . S
C1431 C1436 1.350 . S
C1431 N1439 1.427 . S
C1432 H1423 0.930 . S
C1432 C1430 1.378 . S
C1432 C1433 1.367 . S
C1433 C1432 1.367 . S
C1433 C1435 1.433 . S
C1434 C1430 1.350 . S
C1434 C1431 1.463 . S
C1434 N1438 1.427 . S
C1435 H1425 0.929 . S
C1435 C1433 1.433 . S
C1435 N1438 1.384 . S
C1436 H1427 0.929 . S
C1436 C1428 1.378 . S
C1436 C1431 1.350 . S
C1437 H1424 0.929 . S
C1437 C1429 1.433 . S
C1437 N1439 1.384 . S
N1438 C1434 1.427 . S
N1438 C1435 1.384 . S
N1439 C1431 1.427 . S
N1439 C1437 1.384 . S
H1440 C1446 0.930 . S
H1441 C1450 0.930 . S
H1442 C1455 0.929 . S
H1443 C1453 0.929 1_556 S
H1444 C1448 0.929 . S
H1445 C1454 0.929 . S
C1446 H1440 0.930 . S
C1446 C1447 1.367 . S
C1446 C1454 1.378 . S
C1447 C1446 1.367 . S
C1447 C1455 1.433 . S
C1448 H1444 0.929 . S
C1448 C1450 1.378 . S
C1448 C1452 1.350 . S
C1449 C1452 1.463 . S
C1449 C1454 1.350 . S
C1449 N1457 1.427 . S
C1450 H1441 0.930 . S
C1450 C1448 1.378 . S
C1450 C1451 1.367 . S
C1451 C1450 1.367 . S
C1451 C1453 1.433 . S
C1452 C1448 1.350 . S
C1452 C1449 1.463 . S
C1452 N1456 1.427 . S
C1453 H1443 0.929 1_554 S
C1453 C1451 1.433 . S
C1453 N1456 1.384 . S
C1454 H1445 0.929 . S
C1454 C1446 1.378 . S
C1454 C1449 1.350 . S
C1455 H1442 0.929 . S
C1455 C1447 1.433 . S
C1455 N1457 1.384 . S
N1456 C1452 1.427 . S
N1456 C1453 1.384 . S
N1457 C1449 1.427 . S
N1457 C1455 1.384 . S
H1458 C1464 0.930 . S
H1459 C1468 0.930 . S
H1460 C1473 0.929 . S
H1461 C1471 0.929 . S
H1462 C1466 0.929 1_556 S
H1463 C1472 0.929 . S
C1464 H1458 0.930 . S
C1464 C1465 1.367 . S
C1464 C1472 1.378 . S
C1465 C1464 1.367 . S
C1465 C1473 1.433 . S
C1466 H1462 0.929 1_554 S
C1466 C1468 1.378 1_554 S
C1466 C1470 1.350 . S
C1467 C1470 1.463 . S
C1467 C1472 1.350 . S
C1467 N1475 1.427 . S
C1468 H1459 0.930 . S
C1468 C1466 1.378 1_556 S
C1468 C1469 1.367 1_556 S
C1469 C1468 1.367 1_554 S
C1469 C1471 1.433 . S
C1470 C1466 1.350 . S
C1470 C1467 1.463 . S
C1470 N1474 1.427 . S
C1471 H1461 0.929 . S
C1471 C1469 1.433 . S
C1471 N1474 1.384 . S
C1472 H1463 0.929 . S
C1472 C1464 1.378 . S
C1472 C1467 1.350 . S
C1473 H1460 0.929 . S
C1473 C1465 1.433 . S
C1473 N1475 1.384 . S
N1474 C1470 1.427 . S
N1474 C1471 1.384 . S
N1475 C1467 1.427 . S
N1475 C1473 1.384 . S
H1476 C1482 0.930 . S
H1477 C1486 0.930 . S
H1478 C1491 0.929 . S
H1479 C1489 0.929 . S
H1480 C1484 0.929 1_554 S
H1481 C1490 0.929 . S
C1482 H1476 0.930 . S
C1482 C1483 1.367 . S
C1482 C1490 1.378 . S
C1483 C1482 1.367 . S
C1483 C1491 1.433 . S
C1484 H1480 0.929 1_556 S
C1484 C1486 1.378 1_556 S
C1484 C1488 1.350 . S
C1485 C1488 1.463 . S
C1485 C1490 1.350 . S
C1485 N1493 1.427 . S
C1486 H1477 0.930 . S
C1486 C1484 1.378 1_554 S
C1486 C1487 1.367 1_554 S
C1487 C1486 1.367 1_556 S
C1487 C1489 1.433 . S
C1488 C1484 1.350 . S
C1488 C1485 1.463 . S
C1488 N1492 1.427 . S
C1489 H1479 0.929 . S
C1489 C1487 1.433 . S
C1489 N1492 1.384 . S
C1490 H1481 0.929 . S
C1490 C1482 1.378 . S
C1490 C1485 1.350 . S
C1491 H1478 0.929 . S
C1491 C1483 1.433 . S
C1491 N1493 1.384 . S
N1492 C1488 1.427 . S
N1492 C1489 1.384 . S
N1493 C1485 1.427 . S
N1493 C1491 1.384 . S
H1494 C1500 0.930 . S
H1495 C1504 0.930 . S
H1496 C1509 0.929 . S
H1497 C1507 0.929 . S
H1498 C1502 0.929 1_554 S
H1499 C1508 0.929 . S
C1500 H1494 0.930 . S
C1500 C1501 1.367 . S
C1500 C1508 1.378 . S
C1501 C1500 1.367 . S
C1501 C1509 1.433 . S
C1502 H1498 0.929 1_556 S
C1502 C1504 1.378 1_556 S
C1502 C1506 1.350 . S
C1503 C1506 1.463 . S
C1503 C1508 1.350 . S
C1503 N1511 1.427 . S
C1504 H1495 0.930 . S
C1504 C1502 1.378 1_554 S
C1504 C1505 1.367 1_554 S
C1505 C1504 1.367 1_556 S
C1505 C1507 1.433 . S
C1506 C1502 1.350 . S
C1506 C1503 1.463 . S
C1506 N1510 1.427 . S
C1507 H1497 0.929 . S
C1507 C1505 1.433 . S
C1507 N1510 1.384 . S
C1508 H1499 0.929 . S
C1508 C1500 1.378 . S
C1508 C1503 1.350 . S
C1509 H1496 0.929 . S
C1509 C1501 1.433 . S
C1509 N1511 1.384 . S
N1510 C1506 1.427 . S
N1510 C1507 1.384 . S
N1511 C1503 1.427 . S
N1511 C1509 1.384 . S
H1512 C1518 0.930 . S
H1513 C1522 0.930 . S
H1514 C1527 0.929 . S
H1515 C1525 0.929 . S
H1516 C1520 0.929 . S
H1517 C1526 0.929 . S
C1518 H1512 0.930 . S
C1518 C1519 1.367 . S
C1518 C1526 1.378 . S
C1519 C1518 1.367 . S
C1519 C1527 1.433 . S
C1520 H1516 0.929 . S
C1520 C1522 1.378 . S
C1520 C1524 1.350 . S
C1521 C1524 1.463 . S
C1521 C1526 1.350 . S
C1521 N1529 1.427 . S
C1522 H1513 0.930 . S
C1522 C1520 1.378 . S
C1522 C1523 1.367 . S
C1523 C1522 1.367 . S
C1523 C1525 1.433 . S
C1524 C1520 1.350 . S
C1524 C1521 1.463 . S
C1524 N1528 1.427 . S
C1525 H1515 0.929 . S
C1525 C1523 1.433 . S
C1525 N1528 1.384 . S
C1526 H1517 0.929 . S
C1526 C1518 1.378 . S
C1526 C1521 1.350 . S
C1527 H1514 0.929 . S
C1527 C1519 1.433 . S
C1527 N1529 1.384 . S
N1528 C1524 1.427 . S
N1528 C1525 1.384 . S
N1529 C1521 1.427 . S
N1529 C1527 1.384 . S
H1530 C1536 0.930 . S
H1531 C1540 0.930 . S
H1532 C1545 0.929 . S
H1533 C1543 0.929 . S
H1534 C1538 0.929 . S
H1535 C1544 0.929 . S
C1536 H1530 0.930 . S
C1536 C1537 1.367 . S
C1536 C1544 1.378 . S
C1537 C1536 1.367 . S
C1537 C1545 1.433 . S
C1538 H1534 0.929 . S
C1538 C1540 1.378 . S
C1538 C1542 1.350 . S
C1539 C1542 1.463 . S
C1539 C1544 1.350 . S
C1539 N1547 1.427 . S
C1540 H1531 0.930 . S
C1540 C1538 1.378 . S
C1540 C1541 1.367 . S
C1541 C1540 1.367 . S
C1541 C1543 1.433 . S
C1542 C1538 1.350 . S
C1542 C1539 1.463 . S
C1542 N1546 1.427 . S
C1543 H1533 0.929 . S
C1543 C1541 1.433 . S
C1543 N1546 1.384 . S
C1544 H1535 0.929 . S
C1544 C1536 1.378 . S
C1544 C1539 1.350 . S
C1545 H1532 0.929 . S
C1545 C1537 1.433 . S
C1545 N1547 1.384 . S
N1546 C1542 1.427 . S
N1546 C1543 1.384 . S
N1547 C1539 1.427 . S
N1547 C1545 1.384 . S
H1548 C1554 0.930 . S
H1549 C1558 0.930 . S
H1550 C1563 0.929 . S
H1551 C1561 0.929 . S
H1552 C1556 0.929 . S
H1553 C1562 0.929 . S
C1554 H1548 0.930 . S
C1554 C1555 1.367 . S
C1554 C1562 1.378 . S
C1555 C1554 1.367 . S
C1555 C1563 1.433 . S
C1556 H1552 0.929 . S
C1556 C1558 1.378 . S
C1556 C1560 1.350 . S
C1557 C1560 1.463 . S
C1557 C1562 1.350 . S
C1557 N1565 1.427 . S
C1558 H1549 0.930 . S
C1558 C1556 1.378 . S
C1558 C1559 1.367 . S
C1559 C1558 1.367 . S
C1559 C1561 1.433 . S
C1560 C1556 1.350 . S
C1560 C1557 1.463 . S
C1560 N1564 1.427 . S
C1561 H1551 0.929 . S
C1561 C1559 1.433 . S
C1561 N1564 1.384 . S
C1562 H1553 0.929 . S
C1562 C1554 1.378 . S
C1562 C1557 1.350 . S
C1563 H1550 0.929 . S
C1563 C1555 1.433 . S
C1563 N1565 1.384 . S
N1564 C1560 1.427 . S
N1564 C1561 1.384 . S
N1565 C1557 1.427 . S
N1565 C1563 1.384 . S
H1566 C1572 0.930 . S
H1567 C1576 0.930 . S
H1568 C1581 0.929 . S
H1569 C1579 0.929 . S
H1570 C1574 0.929 . S
H1571 C1580 0.929 . S
C1572 H1566 0.930 . S
C1572 C1573 1.367 . S
C1572 C1580 1.378 . S
C1573 C1572 1.367 . S
C1573 C1581 1.433 . S
C1574 H1570 0.929 . S
C1574 C1576 1.378 . S
C1574 C1578 1.350 . S
C1575 C1578 1.463 . S
C1575 C1580 1.350 . S
C1575 N1583 1.427 . S
C1576 H1567 0.930 . S
C1576 C1574 1.378 . S
C1576 C1577 1.367 . S
C1577 C1576 1.367 . S
C1577 C1579 1.433 . S
C1578 C1574 1.350 . S
C1578 C1575 1.463 . S
C1578 N1582 1.427 . S
C1579 H1569 0.929 . S
C1579 C1577 1.433 . S
C1579 N1582 1.384 . S
C1580 H1571 0.929 . S
C1580 C1572 1.378 . S
C1580 C1575 1.350 . S
C1581 H1568 0.929 . S
C1581 C1573 1.433 . S
C1581 N1583 1.384 . S
N1582 C1578 1.427 . S
N1582 C1579 1.384 . S
N1583 C1575 1.427 . S
N1583 C1581 1.384 . S
H1584 C1590 0.930 . S
H1585 C1594 0.930 . S
H1586 C1599 0.929 . S
H1587 C1597 0.929 . S
H1588 C1592 0.929 . S
H1589 C1598 0.929 1_545 S
C1590 H1584 0.930 . S
C1590 C1591 1.367 . S
C1590 C1598 1.378 . S
C1591 C1590 1.367 . S
C1591 C1599 1.433 . S
C1592 H1588 0.929 . S
C1592 C1594 1.378 . S
C1592 C1596 1.350 . S
C1593 C1596 1.463 1_565 S
C1593 C1598 1.350 . S
C1593 N1601 1.427 . S
C1594 H1585 0.930 . S
C1594 C1592 1.378 . S
C1594 C1595 1.367 . S
C1595 C1594 1.367 . S
C1595 C1597 1.433 . S
C1596 C1592 1.350 . S
C1596 C1593 1.463 1_545 S
C1596 N1600 1.427 . S
C1597 H1587 0.929 . S
C1597 C1595 1.433 . S
C1597 N1600 1.384 . S
C1598 H1589 0.929 1_565 S
C1598 C1590 1.378 . S
C1598 C1593 1.350 . S
C1599 H1586 0.929 . S
C1599 C1591 1.433 . S
C1599 N1601 1.384 . S
N1600 C1596 1.427 . S
N1600 C1597 1.384 . S
N1601 C1593 1.427 . S
N1601 C1599 1.384 . S
H1602 C1608 0.930 . S
H1603 C1612 0.930 . S
H1604 C1617 0.929 . S
H1605 C1615 0.929 . S
H1606 C1610 0.929 . S
H1607 C1616 0.977 . S
C1608 H1602 0.930 . S
C1608 C1609 1.367 . S
C1608 C1616 1.378 . S
C1609 C1608 1.367 . S
C1609 C1617 1.433 . S
C1610 H1606 0.929 . S
C1610 C1612 1.378 . S
C1610 C1614 1.350 . S
C1611 C1614 1.463 1_455 S
C1611 C1616 1.350 . S
C1611 N1619 1.427 . S
C1612 H1603 0.930 . S
C1612 C1610 1.378 . S
C1612 C1613 1.367 . S
C1613 C1612 1.367 . S
C1613 C1615 1.433 . S
C1614 C1610 1.350 . S
C1614 C1611 1.463 1_655 S
C1614 N1618 1.427 . S
C1615 H1605 0.929 . S
C1615 C1613 1.433 . S
C1615 N1618 1.384 . S
C1616 H1607 0.977 . S
C1616 C1608 1.378 . S
C1616 C1611 1.350 . S
C1617 H1604 0.929 . S
C1617 C1609 1.433 . S
C1617 N1619 1.384 . S
N1618 C1614 1.427 . S
N1618 C1615 1.384 . S
N1619 C1611 1.427 . S
N1619 C1617 1.384 . S
H1620 C1626 0.930 . S
H1621 C1630 0.930 . S
H1622 C1635 0.929 . S
H1623 C1633 0.929 . S
H1624 C1628 0.929 . S
H1625 C1634 0.929 . S
C1626 H1620 0.930 . S
C1626 C1627 1.367 . S
C1626 C1634 1.378 . S
C1627 C1626 1.367 . S
C1627 C1635 1.433 . S
C1628 H1624 0.929 . S
C1628 C1630 1.378 . S
C1628 C1632 1.350 . S
C1629 C1632 1.463 . S
C1629 C1634 1.350 . S
C1629 N1637 1.427 . S
C1630 H1621 0.930 . S
C1630 C1628 1.378 . S
C1630 C1631 1.367 . S
C1631 C1630 1.367 . S
C1631 C1633 1.433 . S
C1632 C1628 1.350 . S
C1632 C1629 1.463 . S
C1632 N1636 1.427 . S
C1633 H1623 0.929 . S
C1633 C1631 1.433 . S
C1633 N1636 1.384 . S
C1634 H1625 0.929 . S
C1634 C1626 1.378 . S
C1634 C1629 1.350 . S
C1635 H1622 0.929 . S
C1635 C1627 1.433 . S
C1635 N1637 1.384 . S
N1636 C1632 1.427 . S
N1636 C1633 1.384 . S
N1637 C1629 1.427 . S
N1637 C1635 1.384 . S
H1638 C1644 0.930 . S
H1639 C1648 0.930 . S
H1640 C1653 0.929 . S
H1641 C1651 0.929 . S
H1642 C1646 0.929 . S
H1643 C1652 0.929 . S
C1644 H1638 0.930 . S
C1644 C1645 1.367 . S
C1644 C1652 1.378 . S
C1645 C1644 1.367 . S
C1645 C1653 1.433 . S
C1646 H1642 0.929 . S
C1646 C1648 1.378 . S
C1646 C1650 1.350 . S
C1647 C1650 1.463 1_565 S
C1647 C1652 1.350 . S
C1647 N1655 1.427 . S
C1648 H1639 0.930 . S
C1648 C1646 1.378 . S
C1648 C1649 1.367 . S
C1649 C1648 1.367 . S
C1649 C1651 1.433 . S
C1650 C1646 1.350 . S
C1650 C1647 1.463 1_545 S
C1650 N1654 1.427 . S
C1651 H1641 0.929 . S
C1651 C1649 1.433 . S
C1651 N1654 1.384 . S
C1652 H1643 0.929 . S
C1652 C1644 1.378 . S
C1652 C1647 1.350 . S
C1653 H1640 0.929 . S
C1653 C1645 1.433 . S
C1653 N1655 1.384 . S
N1654 C1650 1.427 . S
N1654 C1651 1.384 . S
N1655 C1647 1.427 . S
N1655 C1653 1.384 . S
H1656 C1662 0.930 . S
H1657 C1666 0.930 . S
H1658 C1671 0.929 . S
H1659 C1669 0.929 . S
H1660 C1664 0.929 . S
H1661 C1670 0.929 . S
C1662 H1656 0.930 . S
C1662 C1663 1.367 . S
C1662 C1670 1.378 . S
C1663 C1662 1.367 . S
C1663 C1671 1.433 . S
C1664 H1660 0.929 . S
C1664 C1666 1.378 . S
C1664 C1668 1.350 . S
C1665 C1668 1.463 1_655 S
C1665 C1670 1.350 . S
C1665 N1673 1.427 . S
C1666 H1657 0.930 . S
C1666 C1664 1.378 . S
C1666 C1667 1.367 . S
C1667 C1666 1.367 . S
C1667 C1669 1.433 . S
C1668 C1664 1.350 . S
C1668 C1665 1.463 1_455 S
C1668 N1672 1.427 . S
C1669 H1659 0.929 . S
C1669 C1667 1.433 . S
C1669 N1672 1.384 . S
C1670 H1661 0.929 . S
C1670 C1662 1.378 . S
C1670 C1665 1.350 . S
C1671 H1658 0.929 . S
C1671 C1663 1.433 . S
C1671 N1673 1.384 . S
N1672 C1668 1.427 . S
N1672 C1669 1.384 . S
N1673 C1665 1.427 . S
N1673 C1671 1.384 . S
H1674 C1680 0.930 . S
H1675 C1684 0.930 . S
H1676 C1689 0.929 . S
H1677 C1687 0.929 . S
H1678 C1682 0.929 . S
H1679 C1688 0.929 . S
C1680 H1674 0.930 . S
C1680 C1681 1.367 . S
C1680 C1688 1.378 . S
C1681 C1680 1.367 . S
C1681 C1689 1.433 . S
C1682 H1678 0.929 . S
C1682 C1684 1.378 . S
C1682 C1686 1.350 . S
C1683 C1686 1.463 . S
C1683 C1688 1.350 . S
C1683 N1691 1.427 . S
C1684 H1675 0.930 . S
C1684 C1682 1.378 . S
C1684 C1685 1.367 . S
C1685 C1684 1.367 . S
C1685 C1687 1.433 . S
C1686 C1682 1.350 . S
C1686 C1683 1.463 . S
C1686 N1690 1.427 . S
C1687 H1677 0.929 . S
C1687 C1685 1.433 . S
C1687 N1690 1.384 . S
C1688 H1679 0.929 . S
C1688 C1680 1.378 . S
C1688 C1683 1.350 . S
C1689 H1676 0.929 . S
C1689 C1681 1.433 . S
C1689 N1691 1.384 . S
N1690 C1686 1.427 . S
N1690 C1687 1.384 . S
N1691 C1683 1.427 . S
N1691 C1689 1.384 . S
H1692 C1698 0.930 . S
H1693 C1702 0.930 . S
H1694 C1707 0.929 . S
H1695 C1705 0.929 . S
H1696 C1700 0.929 . S
H1697 C1706 0.929 . S
C1698 H1692 0.930 . S
C1698 C1699 1.367 . S
C1698 C1706 1.378 . S
C1699 C1698 1.367 . S
C1699 C1707 1.433 . S
C1700 H1696 0.929 . S
C1700 C1702 1.378 . S
C1700 C1704 1.350 . S
C1701 C1704 1.463 . S
C1701 C1706 1.350 . S
C1701 N1709 1.427 . S
C1702 H1693 0.930 . S
C1702 C1700 1.378 . S
C1702 C1703 1.367 . S
C1703 C1702 1.367 . S
C1703 C1705 1.433 . S
C1704 C1700 1.350 . S
C1704 C1701 1.463 . S
C1704 N1708 1.427 . S
C1705 H1695 0.929 . S
C1705 C1703 1.433 . S
C1705 N1708 1.384 . S
C1706 H1697 0.929 . S
C1706 C1698 1.378 . S
C1706 C1701 1.350 . S
C1707 H1694 0.929 . S
C1707 C1699 1.433 . S
C1707 N1709 1.384 . S
N1708 C1704 1.427 . S
N1708 C1705 1.384 . S
N1709 C1701 1.427 . S
N1709 C1707 1.384 . S
H1710 C1716 0.930 . S
H1711 C1720 0.930 . S
H1712 C1725 0.929 . S
H1713 C1723 0.929 . S
H1714 C1718 0.929 . S
H1715 C1724 0.929 . S
C1716 H1710 0.930 . S
C1716 C1717 1.367 . S
C1716 C1724 1.378 . S
C1717 C1716 1.367 . S
C1717 C1725 1.433 . S
C1718 H1714 0.929 . S
C1718 C1720 1.378 . S
C1718 C1722 1.350 . S
C1719 C1722 1.463 . S
C1719 C1724 1.350 . S
C1719 N1727 1.427 . S
C1720 H1711 0.930 . S
C1720 C1718 1.378 . S
C1720 C1721 1.367 . S
C1721 C1720 1.367 . S
C1721 C1723 1.433 . S
C1722 C1718 1.350 . S
C1722 C1719 1.463 . S
C1722 N1726 1.427 . S
C1723 H1713 0.929 . S
C1723 C1721 1.433 . S
C1723 N1726 1.384 . S
C1724 H1715 0.929 . S
C1724 C1716 1.378 . S
C1724 C1719 1.350 . S
C1725 H1712 0.929 . S
C1725 C1717 1.433 . S
C1725 N1727 1.384 . S
N1726 C1722 1.427 . S
N1726 C1723 1.384 . S
N1727 C1719 1.427 . S
N1727 C1725 1.384 . S
H1728 C1734 0.930 . S
H1729 C1738 0.930 . S
H1730 C1743 0.929 . S
H1731 C1741 0.929 . S
H1732 C1736 0.929 . S
H1733 C1742 0.929 . S
C1734 H1728 0.930 . S
C1734 C1735 1.367 . S
C1734 C1742 1.378 . S
C1735 C1734 1.367 . S
C1735 C1743 1.433 . S
C1736 H1732 0.929 . S
C1736 C1738 1.378 . S
C1736 C1740 1.350 . S
C1737 C1740 1.463 . S
C1737 C1742 1.350 . S
C1737 N1745 1.427 . S
C1738 H1729 0.930 . S
C1738 C1736 1.378 . S
C1738 C1739 1.367 . S
C1739 C1738 1.367 . S
C1739 C1741 1.433 . S
C1740 C1736 1.350 . S
C1740 C1737 1.463 . S
C1740 N1744 1.427 . S
C1741 H1731 0.929 . S
C1741 C1739 1.433 . S
C1741 N1744 1.384 . S
C1742 H1733 0.929 . S
C1742 C1734 1.378 . S
C1742 C1737 1.350 . S
C1743 H1730 0.929 . S
C1743 C1735 1.433 . S
C1743 N1745 1.384 . S
N1744 C1740 1.427 . S
N1744 C1741 1.384 . S
N1745 C1737 1.427 . S
N1745 C1743 1.384 . S
C619 C139 2.874 . S
C623 C1 2.868 . S
C637 C173 2.869 . S
C641 C35 2.871 1_545 S
C655 C69 2.871 1_655 S
C659 C105 2.869 . S
C673 C37 2.874 . S
C677 C103 2.872 . S
C691 C137 2.869 1_565 S
C695 C71 2.868 . S
C709 C3 2.868 . S
C713 C171 2.869 1_455 S
C727 C343 2.872 . S
C731 C205 2.873 . S
C745 C375 2.869 . S
C749 C239 2.867 . S
C763 C273 2.871 . S
C767 C307 2.869 . S
C781 C309 2.867 . S
C785 C241 2.869 . S
C799 C341 2.867 . S
C803 C275 2.874 . S
C817 C207 2.869 . S
C821 C377 2.871 . S
C835 C547 2.874 . S
C839 C409 2.868 . S
C853 C579 2.871 . S
C857 C443 2.873 . S
C871 C511 2.871 . S
C875 C477 2.866 . S
C889 C513 2.868 . S
C893 C445 2.869 . S
C907 C479 2.871 . S
C911 C545 2.872 . S
C925 C581 2.872 . S
C929 C411 2.872 . S
C943 C28 0.655 . S
C947 C516 0.655 . S
C961 C62 0.651 . S
C965 C572 0.651 . S
C979 C96 0.652 . S
C983 C584 0.652 . S
C997 C232 0.664 . S
C1001 C130 0.664 . S
C1015 C164 0.653 . S
C1019 C266 0.653 . S
C1033 C198 0.650 . S
C1037 C300 0.650 . S
C1051 C436 0.648 . S
C1055 C312 0.648 . S
C1069 C368 0.654 . S
C1073 C470 0.654 . S
C1087 C380 0.668 . S
C1091 C504 0.668 . S
C1105 C151 0.849 . S
C1109 C6 0.848 . S
C1123 C185 0.832 . S
C1127 C40 0.855 . S
C1141 C74 0.856 . S
C1145 C117 0.840 . S
C1159 C49 0.820 . S
C1163 C108 0.848 . S
C1177 C83 0.821 . S
C1181 C142 0.842 . S
C1195 C15 0.825 . S
C1199 C176 0.840 . S
C1213 C355 0.847 . S
C1217 C210 0.855 . S
C1231 C396 0.840 . S
C1235 C244 0.856 . S
C1249 C328 0.832 . S
C1253 C278 0.855 . S
C1267 C253 0.849 . S
C1271 C334 0.848 . S
C1285 C346 0.851 . S
C1289 C287 0.823 . S
C1303 C219 0.832 . S
C1307 C402 0.855 . S
C1321 C414 0.845 . S
C1325 C559 0.846 . S
C1339 C600 0.836 . S
C1343 C448 0.840 . S
C1357 C482 0.854 . S
C1361 C532 0.831 . S
C1375 C538 0.853 . S
C1379 C457 0.827 . S
C1393 C550 0.855 . S
C1397 C491 0.832 . S
C1411 C423 0.827 . S
C1415 C606 0.839 . S
C1429 C498 1.188 . S
C1433 C17 1.195 . S
C1447 C51 1.207 . S
C1451 C430 1.199 . S
C1465 C85 1.195 . S
C1469 C464 1.198 . S
C1483 C119 1.195 . S
C1487 C389 1.197 . S
C1501 C153 1.193 . S
C1505 C321 1.193 . S
C1519 C362 1.185 . S
C1523 C187 1.201 . S
C1537 C221 1.209 . S
C1541 C90 1.191 . S
C1555 C255 1.198 . S
C1559 C22 1.185 . S
C1573 C56 1.187 . S
C1577 C289 1.206 . S
C1591 C593 1.194 . S
C1595 C323 1.194 . S
C1609 C525 1.199 . S
C1613 C357 1.196 . S
C1627 C391 1.210 . S
C1631 C566 1.194 . S
C1645 C425 1.208 . S
C1649 C294 1.189 . S
C1663 C226 1.184 . S
C1667 C459 1.201 . S
C1681 C260 1.200 . S
C1685 C493 1.208 . S
C1699 C527 1.209 . S
C1703 C192 1.197 . S
C1717 C124 1.191 . S
C1721 C561 1.209 . S
C1735 C595 1.194 . S
C1739 C158 1.191 . S
