# Generated by pormake.
# Topology smu, (6)-cn, num edge types: 1
# Building blocks:
#     Node 0, Type 0, BuildingBlock: JUFBIX_clean_sbu_0, # of connection points: 6
#     Node 1, Type 0, BuildingBlock: JUFBIX_clean_sbu_0, # of connection points: 6
#     Node 2, Type 0, BuildingBlock: JUFBIX_clean_sbu_0, # of connection points: 6
#     Node 3, Type 0, BuildingBlock: JUFBIX_clean_sbu_0, # of connection points: 6
#     Node 4, Type 0, BuildingBlock: JUFBIX_clean_sbu_0, # of connection points: 6
#     Node 5, Type 0, BuildingBlock: JUFBIX_clean_sbu_0, # of connection points: 6
#     Edge 6, Type (0, 0), BuildingBlock: MIFKUJ_clean_linker_0, # of connection points: 2
#     Edge 7, Type (0, 0), BuildingBlock: MIFKUJ_clean_linker_0, # of connection points: 2
#     Edge 8, Type (0, 0), BuildingBlock: MIFKUJ_clean_linker_0, # of connection points: 2
#     Edge 9, Type (0, 0), BuildingBlock: MIFKUJ_clean_linker_0, # of connection points: 2
#     Edge 10, Type (0, 0), BuildingBlock: MIFKUJ_clean_linker_0, # of connection points: 2
#     Edge 11, Type (0, 0), BuildingBlock: MIFKUJ_clean_linker_0, # of connection points: 2
#     Edge 12, Type (0, 0), BuildingBlock: MIFKUJ_clean_linker_0, # of connection points: 2
#     Edge 13, Type (0, 0), BuildingBlock: MIFKUJ_clean_linker_0, # of connection points: 2
#     Edge 14, Type (0, 0), BuildingBlock: MIFKUJ_clean_linker_0, # of connection points: 2
#     Edge 15, Type (0, 0), BuildingBlock: MIFKUJ_clean_linker_0, # of connection points: 2
#     Edge 16, Type (0, 0), BuildingBlock: MIFKUJ_clean_linker_0, # of connection points: 2
#     Edge 17, Type (0, 0), BuildingBlock: MIFKUJ_clean_linker_0, # of connection points: 2
#     Edge 18, Type (0, 0), BuildingBlock: MIFKUJ_clean_linker_0, # of connection points: 2
#     Edge 19, Type (0, 0), BuildingBlock: MIFKUJ_clean_linker_0, # of connection points: 2
#     Edge 20, Type (0, 0), BuildingBlock: MIFKUJ_clean_linker_0, # of connection points: 2
#     Edge 21, Type (0, 0), BuildingBlock: MIFKUJ_clean_linker_0, # of connection points: 2
#     Edge 22, Type (0, 0), BuildingBlock: MIFKUJ_clean_linker_0, # of connection points: 2
#     Edge 23, Type (0, 0), BuildingBlock: MIFKUJ_clean_linker_0, # of connection points: 2
# Relax obj value: 0.404
# Max RMSD: 0.297
# Mean RMSD: 0.296
data_MOF--net-smu--node1-JUFBIX_clean_sbu_0--edge1-MIFKUJ_clean_linker_0
_symmetry_space_group_name_H-M    P1
_symmetry_Int_Tables_number       1
_symmetry_cell_setting            triclinic
loop_
_symmetry_equiv_pos_as_xyz
'x, y, z'
_cell_length_a     40.010907
_cell_length_b     39.951542
_cell_length_c     36.954217
_cell_angle_alpha  91.810344
_cell_angle_beta   89.54643
_cell_angle_gamma 120.14562
loop_
_atom_site_label
_atom_site_type_symbol
_atom_site_fract_x
_atom_site_fract_y
_atom_site_fract_z
_atom_type_partial_charge
Co0 Co 0.31217 0.04272 0.27687 0.0
C1 C 0.33123 0.08585 0.21531 0.0
Co2 Co 0.34446 0.1057 0.28931 0.0
C3 C 0.2463 0.9677 0.27781 0.0
C4 C 0.28704 0.96873 0.23944 0.0
N5 N 0.28264 0.99015 0.26593 0.0
N6 N 0.22701 0.93378 0.25896 0.0
C7 C 0.25274 0.93409 0.23494 0.0
H8 H 0.23287 0.97787 0.29738 0.0
H9 H 0.31221 0.97899 0.22239 0.0
C10 C 0.32159 0.05861 0.35037 0.0
N11 N 0.37254 0.15865 0.30092 0.0
C12 C 0.39886 0.18872 0.28156 0.0
C13 C 0.37022 0.17499 0.33269 0.0
N14 N 0.4133 0.22279 0.30043 0.0
C15 C 0.39546 0.21415 0.3326 0.0
C16 C 0.26699 0.07797 0.28599 0.0
O17 O 0.30624 0.03197 0.32621 0.0
O18 O 0.34144 0.09367 0.3408 0.0
O19 O 0.29924 0.10767 0.29333 0.0
O20 O 0.26548 0.04625 0.27712 0.0
O21 O 0.3461 0.11542 0.23709 0.0
H22 H 0.35119 0.15954 0.35464 0.0
H23 H 0.40772 0.18567 0.25449 0.0
O24 O 0.31679 0.05238 0.22792 0.0
O25 O 0.3604 0.04135 0.27607 0.0
O26 O 0.38991 0.10441 0.28554 0.0
C27 C 0.39177 0.0739 0.28016 0.0
H28 H 0.24648 0.91217 0.21395 0.0
H29 H 0.3999 0.23487 0.3543 0.0
Co30 Co 0.76359 0.66039 0.24693 0.0
C31 C 0.73908 0.68003 0.18363 0.0
Co32 Co 0.73798 0.69807 0.25584 0.0
C33 C 0.79288 0.60689 0.26018 0.0
C34 C 0.80263 0.62841 0.20656 0.0
N35 N 0.78551 0.62895 0.23805 0.0
N36 N 0.81408 0.59309 0.24359 0.0
C37 C 0.81978 0.60639 0.20979 0.0
H38 H 0.78445 0.60251 0.2883 0.0
H39 H 0.80418 0.64435 0.18292 0.0
C40 C 0.75968 0.67976 0.31963 0.0
N41 N 0.7192 0.73174 0.26337 0.0
C42 C 0.73551 0.76706 0.24894 0.0
C43 C 0.69487 0.73196 0.28868 0.0
N44 N 0.724 0.79019 0.26516 0.0
C45 C 0.69785 0.76797 0.28991 0.0
C46 C 0.68439 0.61959 0.25663 0.0
O47 O 0.77167 0.66143 0.2994 0.0
O48 O 0.74429 0.6972 0.30546 0.0
O49 O 0.68691 0.6528 0.2587 0.0
O50 O 0.71452 0.61704 0.25179 0.0
O51 O 0.73085 0.69911 0.20626 0.0
H52 H 0.67876 0.70884 0.30716 0.0
H53 H 0.75862 0.77702 0.22943 0.0
O54 O 0.75397 0.66055 0.19498 0.0
O55 O 0.81269 0.70336 0.24206 0.0
O56 O 0.78992 0.74221 0.2533 0.0
C57 C 0.81828 0.73727 0.24623 0.0
H58 H 0.8358 0.60109 0.18887 0.0
H59 H 0.68415 0.77788 0.30944 0.0
Co60 Co 0.97105 0.27595 0.29112 0.0
C61 C 0.93361 0.26232 0.22478 0.0
Co62 Co 0.90724 0.24312 0.29602 0.0
C63 C 0.04484 0.28625 0.3008 0.0
C64 C 0.04675 0.32284 0.25901 0.0
N65 N 0.02451 0.30106 0.28615 0.0
N66 N 0.07717 0.29483 0.28223 0.0
C67 C 0.07913 0.31895 0.25647 0.0
H68 H 0.03328 0.26518 0.32178 0.0
H69 H 0.03767 0.33615 0.23927 0.0
C70 C 0.94865 0.25921 0.36205 0.0
N71 N 0.85361 0.21417 0.30175 0.0
C72 C 0.82347 0.21345 0.28447 0.0
C73 C 0.83702 0.18427 0.32439 0.0
N74 N 0.78913 0.18384 0.29528 0.0
C75 C 0.79767 0.16558 0.32034 0.0
C76 C 0.93776 0.19535 0.28622 0.0
O77 O 0.97716 0.27445 0.34102 0.0
O78 O 0.91452 0.24403 0.34885 0.0
O79 O 0.90724 0.1966 0.2914 0.0
O80 O 0.96975 0.22675 0.28414 0.0
O81 O 0.9022 0.24367 0.2426 0.0
H82 H 0.85268 0.17565 0.34196 0.0
H83 H 0.82664 0.23311 0.26347 0.0
O84 O 0.96553 0.2778 0.24167 0.0
O85 O 0.97057 0.32433 0.29771 0.0
O86 O 0.90698 0.28946 0.30105 0.0
C87 C 0.93775 0.32232 0.30163 0.0
H88 H 0.09961 0.32899 0.2345 0.0
H89 H 0.7768 0.14018 0.33441 0.0
Co90 Co 0.113 0.35301 0.79561 0.0
C91 C 0.06152 0.32558 0.85478 0.0
Co92 Co 0.05107 0.31856 0.78045 0.0
C93 C 0.19734 0.40527 0.78959 0.0
C94 C 0.17955 0.38134 0.84193 0.0
N95 N 0.16541 0.38283 0.80932 0.0
N96 N 0.23049 0.41725 0.80862 0.0
C97 C 0.21915 0.40238 0.8416 0.0
H98 H 0.19642 0.41112 0.76133 0.0
H99 H 0.16245 0.36455 0.86431 0.0
C100 C 0.09821 0.34385 0.7208 0.0
N101 N 0.99966 0.28631 0.76725 0.0
C102 C 0.97975 0.24942 0.77795 0.0
C103 C 0.9803 0.28708 0.73785 0.0
N104 N 0.95023 0.22651 0.75547 0.0
C105 C 0.94998 0.25009 0.73036 0.0
C106 C 0.07766 0.39703 0.78688 0.0
O107 O 0.12624 0.35729 0.74363 0.0
O108 O 0.06391 0.32685 0.73209 0.0
O109 O 0.04616 0.36466 0.78232 0.0
O110 O 0.10895 0.39725 0.79316 0.0
O111 O 0.03708 0.30968 0.82928 0.0
H112 H 0.99057 0.31136 0.72021 0.0
H113 H 0.99009 0.23817 0.79869 0.0
O114 O 0.09703 0.34747 0.84675 0.0
O115 O 0.11754 0.30904 0.79795 0.0
O116 O 0.05825 0.2739 0.77775 0.0
C117 C 0.08977 0.27648 0.78773 0.0
H118 H 0.23818 0.40579 0.86383 0.0
H119 H 0.93259 0.24044 0.70584 0.0
Co120 Co 0.24129 0.91081 0.78219 0.0
C121 C 0.27023 0.96464 0.84148 0.0
Co122 Co 0.27514 0.97242 0.76736 0.0
C123 C 0.2083 0.82597 0.78132 0.0
C124 C 0.18826 0.84832 0.82439 0.0
N125 N 0.21302 0.85947 0.79636 0.0
N126 N 0.18117 0.7946 0.79876 0.0
C127 C 0.16878 0.80875 0.8259 0.0
H128 H 0.22329 0.82451 0.75734 0.0
H129 H 0.18367 0.86774 0.84204 0.0
C130 C 0.24921 0.9217 0.70783 0.0
N131 N 0.29998 0.02383 0.75385 0.0
C132 C 0.28908 0.04873 0.76706 0.0
C133 C 0.31815 0.03923 0.72261 0.0
N134 N 0.29747 0.07775 0.74456 0.0
C135 C 0.31629 0.07224 0.71667 0.0
C136 C 0.31981 0.93786 0.77407 0.0
O137 O 0.23361 0.89479 0.73071 0.0
O138 O 0.26752 0.95663 0.71896 0.0
O139 O 0.32249 0.97032 0.76706 0.0
O140 O 0.28709 0.9093 0.78203 0.0
O141 O 0.28362 0.98879 0.81642 0.0
H142 H 0.32757 0.02491 0.70321 0.0
H143 H 0.2701 0.04244 0.79004 0.0
O144 O 0.2503 0.92861 0.833 0.0
O145 O 0.19547 0.91201 0.78214 0.0
O146 O 0.22669 0.97258 0.76689 0.0
C147 C 0.19522 0.9424 0.77447 0.0
H148 H 0.14692 0.79164 0.84541 0.0
H149 H 0.32467 0.08856 0.69214 0.0
Co150 Co 0.66629 0.7698 0.74841 0.0
C151 C 0.68705 0.74977 0.81385 0.0
Co152 Co 0.70283 0.743 0.74244 0.0
C153 C 0.6098 0.79581 0.73632 0.0
C154 C 0.64629 0.82119 0.78309 0.0
N155 N 0.63783 0.79478 0.75577 0.0
N156 N 0.60137 0.82238 0.75039 0.0
C157 C 0.62416 0.83819 0.77976 0.0
H158 H 0.59697 0.77866 0.71176 0.0
H159 H 0.66828 0.82868 0.80359 0.0
C160 C 0.68456 0.76188 0.67684 0.0
N161 N 0.7342 0.72151 0.7366 0.0
C162 C 0.76902 0.73635 0.7529 0.0
C163 C 0.73437 0.69816 0.70958 0.0
N164 N 0.79181 0.7249 0.73623 0.0
C165 C 0.77001 0.7005 0.70903 0.0
C166 C 0.62284 0.69072 0.74033 0.0
O167 O 0.66667 0.77525 0.69575 0.0
O168 O 0.70129 0.74654 0.69246 0.0
O169 O 0.65564 0.69231 0.73998 0.0
O170 O 0.62157 0.7218 0.74361 0.0
O171 O 0.70508 0.73942 0.79227 0.0
H172 H 0.71172 0.68378 0.68942 0.0
H173 H 0.77924 0.759 0.77381 0.0
O174 O 0.6668 0.76317 0.80091 0.0
O175 O 0.71092 0.8181 0.75309 0.0
O176 O 0.74879 0.79408 0.74491 0.0
C177 C 0.74466 0.82326 0.75074 0.0
H178 H 0.62487 0.86074 0.79737 0.0
H179 H 0.7801 0.68781 0.6885 0.0
H180 H 0.2286 0.93041 0.90269 0.0
H181 H 0.24154 0.95815 0.96493 0.0
H182 H 0.34421 0.05933 0.92879 0.0
H183 H 0.33103 0.03244 0.86679 0.0
H184 H 0.35323 0.02683 0.99572 0.0
H185 H 0.27317 0.07041 0.94098 0.0
H186 H 0.21547 0.06089 0.90815 0.0
H187 H 0.14267 0.98906 0.99241 0.0
H188 H 0.19996 0.99767 0.02548 0.0
H189 H 0.38554 0.13067 0.1644 0.0
H190 H 0.37829 0.11887 0.09819 0.0
H191 H 0.25926 0.03011 0.11213 0.0
H192 H 0.26613 0.04271 0.17713 0.0
H193 H 0.26248 0.06247 0.05324 0.0
H194 H 0.33746 0.01163 0.10535 0.0
H195 H 0.39243 0.01569 0.13902 0.0
H196 H 0.47136 0.0942 0.06174 0.0
H197 H 0.41683 0.091 0.02787 0.0
C198 C 0.25404 0.95841 0.90812 0.0
C199 C 0.27867 0.97925 0.87976 0.0
C200 C 0.26137 0.97429 0.94363 0.0
C201 C 0.29384 0.01091 0.9515 0.0
C202 C 0.31906 0.03108 0.92342 0.0
C203 C 0.31134 0.01567 0.88794 0.0
C204 C 0.30097 0.02888 0.98869 0.0
C205 C 0.33368 0.0351 1.00819 0.0
C206 C 0.27524 0.03921 1.00514 0.0
C207 C 0.24082 0.03438 0.98552 0.0
C208 C 0.24484 0.05232 0.95236 0.0
C209 C 0.21221 0.04714 0.93373 0.0
C210 C 0.17542 0.0243 0.94814 0.0
C211 C 0.17119 1.0067 0.98126 0.0
C212 C 0.20373 0.01175 0.99997 0.0
C213 C 0.35759 0.10974 0.15302 0.0
C214 C 0.32641 0.08762 0.17585 0.0
C215 C 0.35353 0.10251 0.11525 0.0
C216 C 0.31838 0.07285 0.09996 0.0
C217 C 0.2867 0.053 0.12285 0.0
C218 C 0.29068 0.06026 0.16017 0.0
C219 C 0.31453 0.05992 0.06092 0.0
C220 C 0.28235 0.0546 0.04086 0.0
C221 C 0.34039 0.04972 0.04423 0.0
C222 C 0.37315 0.05145 0.06435 0.0
C223 C 0.36657 0.02995 0.09568 0.0
C224 C 0.39763 0.03207 0.11478 0.0
C225 C 0.43538 0.05528 0.10259 0.0
C226 C 0.44212 0.07631 0.0712 0.0
C227 C 0.41115 0.07436 0.05204 0.0
H228 H 0.45939 0.0569 0.11742 0.0
H229 H 0.15019 0.02032 0.93368 0.0
H230 H 0.62997 0.71406 0.62749 0.0
H231 H 0.64322 0.70004 0.56553 0.0
H232 H 0.7607 0.79445 0.5762 0.0
H233 H 0.74721 0.80858 0.63778 0.0
H234 H 0.73571 0.78865 0.5079 0.0
H235 H 0.74069 0.69884 0.59112 0.0
H236 H 0.71578 0.64917 0.63768 0.0
H237 H 0.61511 0.57734 0.57217 0.0
H238 H 0.64008 0.62606 0.52468 0.0
H239 H 0.81587 0.73037 0.36641 0.0
H240 H 0.80473 0.74501 0.42887 0.0
H241 H 0.68877 0.64699 0.42303 0.0
H242 H 0.70061 0.63173 0.36137 0.0
H243 H 0.71332 0.65538 0.48908 0.0
H244 H 0.7139 0.74245 0.40173 0.0
H245 H 0.74221 0.79047 0.35406 0.0
H246 H 0.83185 0.86945 0.42737 0.0
H247 H 0.80477 0.82145 0.47533 0.0
C248 C 0.65798 0.73297 0.61585 0.0
C249 C 0.68724 0.7631 0.63702 0.0
C250 C 0.66585 0.72445 0.58072 0.0
C251 C 0.70328 0.74563 0.56631 0.0
C252 C 0.73165 0.77759 0.58653 0.0
C253 C 0.72379 0.786 0.62161 0.0
C254 C 0.71378 0.733 0.53158 0.0
C255 C 0.73112 0.75962 0.50391 0.0
C256 C 0.70748 0.695 0.52591 0.0
C257 C 0.69199 0.66617 0.55464 0.0
C258 C 0.71313 0.67255 0.58681 0.0
C259 C 0.69906 0.64456 0.6133 0.0
C260 C 0.66365 0.61038 0.60813 0.0
C261 C 0.64245 0.6039 0.57622 0.0
C262 C 0.65666 0.63154 0.5494 0.0
C263 C 0.78883 0.7108 0.37929 0.0
C264 C 0.75948 0.67927 0.35948 0.0
C265 C 0.78209 0.71965 0.41472 0.0
C266 C 0.74544 0.69781 0.43051 0.0
C267 C 0.71723 0.66448 0.41165 0.0
C268 C 0.72415 0.65541 0.37649 0.0
C269 C 0.73522 0.71097 0.46515 0.0
C270 C 0.7179 0.68443 0.49287 0.0
C271 C 0.74151 0.74908 0.47072 0.0
C272 C 0.75752 0.77816 0.44204 0.0
C273 C 0.7398 0.76994 0.40765 0.0
C274 C 0.75563 0.79717 0.38056 0.0
C275 C 0.78876 0.83299 0.38764 0.0
C276 C 0.8062 0.84167 0.42189 0.0
C277 C 0.79067 0.81443 0.44903 0.0
H278 H 0.80089 0.85403 0.3666 0.0
H279 H 0.65278 0.58881 0.62874 0.0
H280 H 0.98632 0.32563 0.1911 0.0
H281 H 1.0016 0.33342 0.12744 0.0
H282 H 0.90234 0.22112 0.10307 0.0
H283 H 0.88778 0.21234 0.16842 0.0
H284 H 0.9615 0.22753 0.06642 0.0
H285 H 0.90832 0.30954 0.07816 0.0
H286 H 0.8969 0.36015 0.10502 0.0
H287 H 0.01597 0.44556 0.08923 0.0
H288 H 0.02828 0.39538 0.06273 0.0
H289 H 0.99262 0.267 0.87761 0.0
H290 H 0.96647 0.2547 0.9386 0.0
H291 H 0.0711 0.35367 0.97984 0.0
H292 H 0.09788 0.36623 0.91823 0.0
H293 H 1.00275 0.35088 1.00511 0.0
H294 H 0.05339 0.2639 0.99376 0.0
H295 H 0.0602 0.21152 0.96407 0.0
H296 H 0.93865 0.13276 0.97607 0.0
H297 H 0.93092 0.18491 1.00506 0.0
C298 C 0.96717 0.30264 0.1723 0.0
C299 C 0.93572 0.26831 0.18502 0.0
C300 C 0.97588 0.30733 0.13557 0.0
C301 C 0.95298 0.27823 0.10988 0.0
C302 C 0.9205 0.24421 0.1222 0.0
C303 C 0.91182 0.23933 0.1595 0.0
C304 C 0.96509 0.28314 0.07089 0.0
C305 C 0.9697 0.25421 0.05283 0.0
C306 C 0.97653 0.31817 0.0529 0.0
C307 C 0.96927 0.34859 0.06864 0.0
C308 C 0.93214 0.33906 0.08062 0.0
C309 C 0.9255 0.36769 0.09576 0.0
C310 C 0.9557 0.40603 0.09889 0.0
C311 C 0.9926 0.41584 0.08679 0.0
C312 C 0.99941 0.38732 0.07165 0.0
C313 C 0.01035 0.2862 0.89958 0.0
C314 C 0.04748 0.31775 0.89285 0.0
C315 C 0.99527 0.27895 0.93458 0.0
C316 C 0.01675 0.30305 0.96402 0.0
C317 C 0.05394 0.33458 0.95759 0.0
C318 C 0.06933 0.34166 0.9224 0.0
C319 C 0.9998 0.29567 1.00119 0.0
C320 C 0.99425 0.32414 0.01875 0.0
C321 C 0.98676 0.25994 0.01831 0.0
C322 C 0.99151 0.22846 1.00125 0.0
C323 C 0.02804 0.23552 0.98976 0.0
C324 C 0.03206 0.20586 0.97306 0.0
C325 C 0.99984 0.16888 0.96802 0.0
C326 C 0.96356 0.16145 0.97985 0.0
C327 C 0.95934 0.19106 0.99641 0.0
H328 H 1.003 0.14597 0.95505 0.0
H329 H 0.9505 0.42815 0.11063 0.0
H330 H 0.37288 0.08225 0.40782 0.0
H331 H 0.35937 0.05474 0.4687 0.0
H332 H 0.23907 0.98259 0.43965 0.0
H333 H 0.25261 0.00878 0.37891 0.0
H334 H 0.25741 0.0227 0.51384 0.0
H335 H 0.2854 0.94082 0.43249 0.0
H336 H 0.3274 0.93138 0.38919 0.0
H337 H 0.41819 0.97505 0.46911 0.0
H338 H 0.37687 0.98531 0.51273 0.0
H339 H 0.19064 0.89821 0.65818 0.0
H340 H 0.2006 0.91502 0.59409 0.0
H341 H 0.32202 0.95389 0.60629 0.0
H342 H 0.31157 0.93538 0.66937 0.0
H343 H 0.30426 0.93206 0.54015 0.0
H344 H 0.28251 0.01321 0.62205 0.0
H345 H 0.24639 0.02726 0.66851 0.0
H346 H 0.15404 0.99626 0.5925 0.0
H347 H 0.18887 0.98035 0.54591 0.0
C348 C 0.34352 0.06109 0.41479 0.0
C349 C 0.31378 0.04767 0.38876 0.0
C350 C 0.33583 0.04527 0.44942 0.0
C351 C 0.29817 0.01653 0.45868 0.0
C352 C 0.26825 1.00473 0.43321 0.0
C353 C 0.27606 0.01971 0.39851 0.0
C354 C 0.28998 0.99665 0.49382 0.0
C355 C 0.26731 1.0026 0.51953 0.0
C356 C 0.30377 0.97125 0.50164 0.0
C357 C 0.32821 0.96422 0.47571 0.0
C358 C 0.31442 0.94868 0.44073 0.0
C359 C 0.33809 0.94314 0.41615 0.0
C360 C 0.3755 0.95273 0.42635 0.0
C361 C 0.38924 0.9677 0.46123 0.0
C362 C 0.3657 0.97335 0.48589 0.0
C363 C 0.21887 0.9081 0.64648 0.0
C364 C 0.2502 0.91491 0.66851 0.0
C365 C 0.22482 0.91854 0.61003 0.0
C366 C 0.2624 0.93707 0.59547 0.0
C367 C 0.29282 0.94 0.61662 0.0
C368 C 0.28676 0.92905 0.65272 0.0
C369 C 0.2711 0.95757 0.56038 0.0
C370 C 0.29409 0.95197 0.53464 0.0
C371 C 0.25858 0.98428 0.55304 0.0
C372 C 0.23813 0.99517 0.58056 0.0
C373 C 0.25441 0.00919 0.61525 0.0
C374 C 0.23415 0.01745 0.64164 0.0
C375 C 0.19802 0.01282 0.63344 0.0
C376 C 0.18203 0.99982 0.59882 0.0
C377 C 0.20195 0.99101 0.57243 0.0
H378 H 0.18241 0.0193 0.65392 0.0
H379 H 0.39381 0.94848 0.40727 0.0
H380 H 0.74509 0.74626 0.84703 0.0
H381 H 0.7505 0.7338 0.90996 0.0
H382 H 0.64366 0.73145 0.93369 0.0
H383 H 0.63824 0.74471 0.86984 0.0
H384 H 0.70027 0.76965 0.98817 0.0
H385 H 0.64282 0.64744 0.92273 0.0
H386 H 0.63792 0.60303 0.8725 0.0
H387 H 0.74847 0.61835 0.902 0.0
H388 H 0.75427 0.66328 0.95214 0.0
H389 H 0.67987 0.68611 0.15687 0.0
H390 H 0.6682 0.69585 0.09457 0.0
H391 H 0.76747 0.68802 0.06033 0.0
H392 H 0.77841 0.67663 0.12317 0.0
H393 H 0.71157 0.65392 1.01114 0.0
H394 H 0.77055 0.77684 0.07518 0.0
H395 H 0.77743 0.82269 0.12481 0.0
H396 H 0.66669 0.80816 0.09761 0.0
H397 H 0.65883 0.7617 0.04819 0.0
C398 C 0.72268 0.74331 0.86552 0.0
C399 C 0.69091 0.74601 0.85325 0.0
C400 C 0.72585 0.73609 0.9016 0.0
C401 C 0.6971 0.73079 0.92647 0.0
C402 C 0.66608 0.73516 0.91488 0.0
C403 C 0.663 0.74276 0.87847 0.0
C404 C 0.69949 0.71955 0.96405 0.0
C405 C 0.70201 0.74398 0.99331 0.0
C406 C 0.7029 0.68662 0.97069 0.0
C407 C 0.69907 0.6589 0.94107 0.0
C408 C 0.66616 0.64147 0.91842 0.0
C409 C 0.66322 0.6162 0.88996 0.0
C410 C 0.69289 0.60792 0.88403 0.0
C411 C 0.72551 0.62479 0.90663 0.0
C412 C 0.72861 0.65011 0.93511 0.0
C413 C 0.69905 0.68605 0.13603 0.0
C414 C 0.7303 0.68097 0.14493 0.0
C415 C 0.69247 0.6919 0.10039 0.0
C416 C 0.7176 0.69391 0.07276 0.0
C417 C 0.74786 0.68698 0.08121 0.0
C418 C 0.75408 0.68038 0.11705 0.0
C419 C 0.71254 0.70409 0.03544 0.0
C420 C 0.70959 0.67948 1.00616 0.0
C421 C 0.70898 0.73702 0.02881 0.0
C422 C 0.71396 0.76551 0.05814 0.0
C423 C 0.74756 0.78324 0.0799 0.0
C424 C 0.75164 0.80935 0.108 0.0
C425 C 0.72249 0.81828 0.11441 0.0
C426 C 0.68924 0.8012 0.09264 0.0
C427 C 0.68496 0.77499 0.06456 0.0
H428 H 0.7257 0.83848 0.13619 0.0
H429 H 0.6906 0.5884 0.86195 0.0
H430 H 0.93002 0.29293 0.41845 0.0
H431 H 0.9593 0.30849 0.47953 0.0
H432 H 0.01783 0.24507 0.45365 0.0
H433 H 0.98936 0.23032 0.39269 0.0
H434 H 0.98893 0.23466 0.52603 0.0
H435 H 0.06554 0.33717 0.44405 0.0
H436 H 0.07504 0.38605 0.39979 0.0
H437 H 0.04005 0.44324 0.47884 0.0
H438 H 0.02972 0.39426 0.52342 0.0
H439 H 0.11969 0.30503 0.67232 0.0
H440 H 0.09955 0.29209 0.60836 0.0
H441 H 0.05943 0.37407 0.61766 0.0
H442 H 0.08106 0.38802 0.68065 0.0
H443 H 0.08013 0.37428 0.55206 0.0
H444 H 1.00027 0.27334 0.63299 0.0
H445 H 0.98695 0.22447 0.67837 0.0
H446 H 0.02243 0.16394 0.60379 0.0
H447 H 0.03665 0.21296 0.558 0.0
C448 C 0.94803 0.28123 0.42634 0.0
C449 C 0.95695 0.2599 0.40112 0.0
C450 C 0.96512 0.29047 0.46106 0.0
C451 C 0.99108 0.27821 0.47115 0.0
C452 C 0.99791 0.25479 0.44664 0.0
C453 C 0.98146 0.2462 0.41188 0.0
C454 C 0.01356 0.29216 0.50587 0.0
C455 C 0.00916 0.26514 0.53159 0.0
C456 C 0.03959 0.33198 0.51348 0.0
C457 C 0.04649 0.36184 0.48694 0.0
C458 C 0.05961 0.36001 0.45191 0.0
C459 C 0.06518 0.38775 0.42678 0.0
C460 C 0.05806 0.41768 0.43647 0.0
C461 C 0.0455 0.42 0.47136 0.0
C462 C 0.0398 0.39228 0.49658 0.0
C463 C 0.10871 0.32189 0.66 0.0
C464 C 0.10275 0.34818 0.68124 0.0
C465 C 0.09628 0.31384 0.62363 0.0
C466 C 0.0767 0.33114 0.60821 0.0
C467 C 0.07417 0.36006 0.6286 0.0
C468 C 0.08698 0.3684 0.66464 0.0
C469 C 0.05545 0.31681 0.57266 0.0
C470 C 0.06004 0.34375 0.54664 0.0
C471 C 0.02908 0.27692 0.56504 0.0
C472 C 0.01992 0.24703 0.59222 0.0
C473 C 1.00542 0.24971 0.62631 0.0
C474 C 0.99771 0.22198 0.65213 0.0
C475 C 1.0039 0.19112 0.64406 0.0
C476 C 0.01771 0.18789 0.61004 0.0
C477 C 0.02562 0.21565 0.58413 0.0
H478 H 0.99792 0.16969 0.66412 0.0
H479 H 0.06235 0.43912 0.41696 0.0
H480 H 0.41383 0.02041 0.25832 0.0
H481 H 0.48069 0.03292 0.25239 0.0
H482 H 0.52435 0.15048 0.2918 0.0
H483 H 0.45919 0.13858 0.29788 0.0
H484 H 0.56157 0.14801 0.2311 0.0
H485 H 0.52175 0.08344 0.34589 0.0
H486 H 0.48015 0.02845 0.38419 0.0
H487 H 0.50977 0.95501 0.32124 0.0
H488 H 0.55112 0.00949 0.28223 0.0
H489 H 0.75537 0.22763 0.29232 0.0
H490 H 0.68641 0.20387 0.28186 0.0
H491 H 0.66744 0.08883 0.25938 0.0
H492 H 0.73587 0.11247 0.27181 0.0
H493 H 0.61518 0.0823 0.30213 0.0
H494 H 0.66238 0.15043 0.19184 0.0
H495 H 0.7035 0.20597 0.15395 0.0
H496 H 0.65984 0.273 0.20746 0.0
H497 H 0.6188 0.21803 0.24595 0.0
C498 C 0.43776 0.04874 0.26594 0.0
C499 C 0.43098 0.07844 0.27836 0.0
C500 C 0.4759 0.05591 0.26246 0.0
C501 C 0.50757 0.09284 0.27135 0.0
C502 C 0.50055 0.12199 0.2843 0.0
C503 C 0.46298 0.11492 0.28788 0.0
C504 C 0.54841 0.1022 0.26771 0.0
C505 C 0.57338 0.13364 0.24658 0.0
C506 C 0.56365 0.08296 0.28724 0.0
C507 C 0.53911 0.05037 0.31088 0.0
C508 C 0.51914 0.05548 0.34004 0.0
C509 C 0.49565 0.02443 0.36191 0.0
C510 C 0.49222 0.98823 0.35508 0.0
C511 C 0.51238 0.98305 0.32645 0.0
C512 C 0.53585 0.01399 0.30446 0.0
C513 C 0.73647 0.19755 0.28428 0.0
C514 C 0.75073 0.17188 0.28261 0.0
C515 C 0.69705 0.18387 0.27825 0.0
C516 C 0.67142 0.14443 0.26941 0.0
C517 C 0.6863 0.11925 0.26625 0.0
C518 C 0.72541 0.13277 0.27307 0.0
C519 C 0.62887 0.12888 0.266 0.0
C520 C 0.60353 0.09629 0.28589 0.0
C521 C 0.61325 0.14713 0.24529 0.0
C522 C 0.63768 0.18014 0.22193 0.0
C523 C 0.6617 0.17707 0.19565 0.0
C524 C 0.68497 0.20845 0.17404 0.0
C525 C 0.68433 0.243 0.17833 0.0
C526 C 0.66032 0.24622 0.20416 0.0
C527 C 0.63699 0.21494 0.22583 0.0
H528 H 0.70239 0.26726 0.1616 0.0
H529 H 0.47401 0.96422 0.37202 0.0
H530 H 0.62196 0.58359 0.21086 0.0
H531 H 0.57124 0.51489 0.21221 0.0
H532 H 0.61651 0.50483 0.31436 0.0
H533 H 0.66722 0.57278 0.31253 0.0
H534 H 0.61222 0.45202 0.26586 0.0
H535 H 0.52785 0.49935 0.30692 0.0
H536 H 0.49515 0.53749 0.30255 0.0
H537 H 0.44125 0.47757 0.20248 0.0
H538 H 0.47406 0.43941 0.20603 0.0
H539 H 0.47193 0.27742 0.34086 0.0
H540 H 0.51612 0.34465 0.32525 0.0
H541 H 0.46179 0.32258 0.22007 0.0
H542 H 0.41763 0.25464 0.23566 0.0
H543 H 0.4695 0.38969 0.25835 0.0
H544 H 0.54765 0.33685 0.22137 0.0
H545 H 0.58129 0.29955 0.22469 0.0
H546 H 0.64798 0.37037 0.31585 0.0
H547 H 0.61425 0.40766 0.31356 0.0
C548 C 0.61992 0.56693 0.2342 0.0
C549 C 0.64787 0.58337 0.26193 0.0
C550 C 0.5912 0.52767 0.23486 0.0
C551 C 0.59018 0.50458 0.26332 0.0
C552 C 0.6168 0.52192 0.29204 0.0
C553 C 0.64546 0.56083 0.29123 0.0
C554 C 0.56412 0.4618 0.26205 0.0
C555 C 0.58098 0.43843 0.2646 0.0
C556 C 0.52346 0.44393 0.25865 0.0
C557 C 0.50378 0.46687 0.25651 0.0
C558 C 0.50931 0.49456 0.28381 0.0
C559 C 0.49069 0.51613 0.28153 0.0
C560 C 0.46624 0.51005 0.2522 0.0
C561 C 0.46026 0.48231 0.22514 0.0
C562 C 0.47884 0.46068 0.22729 0.0
C563 C 0.46977 0.28684 0.31426 0.0
C564 C 0.44153 0.26098 0.28941 0.0
C565 C 0.49504 0.32516 0.30532 0.0
C566 C 0.49231 0.3386 0.27147 0.0
C567 C 0.46442 0.31273 0.2463 0.0
C568 C 0.43948 0.274 0.25506 0.0
C569 C 0.51766 0.38019 0.26367 0.0
C570 C 0.50076 0.4033 0.25923 0.0
C571 C 0.55838 0.39793 0.26534 0.0
C572 C 0.57809 0.37487 0.26748 0.0
C573 C 0.56912 0.34418 0.24244 0.0
C574 C 0.5883 0.32309 0.24407 0.0
C575 C 0.6167 0.33253 0.27051 0.0
C576 C 0.62594 0.36305 0.29541 0.0
C577 C 0.6068 0.38418 0.29394 0.0
H578 H 0.63163 0.31627 0.27163 0.0
H579 H 0.45184 0.52677 0.25048 0.0
H580 H 0.98052 0.3939 0.27132 0.0
H581 H 0.9633 0.44499 0.27045 0.0
H582 H 0.86755 0.37893 0.34133 0.0
H583 H 0.88404 0.32799 0.34154 0.0
H584 H 0.84278 0.39836 0.28581 0.0
H585 H 0.94806 0.46549 0.36914 0.0
H586 H 0.01494 0.49337 0.39169 0.0
H587 H 0.05671 0.56933 0.30202 0.0
H588 H 0.9901 0.54147 0.27859 0.0
H589 H 0.78333 0.53952 0.29596 0.0
H590 H 0.80787 0.49767 0.31612 0.0
H591 H 0.90468 0.55421 0.24414 0.0
H592 H 0.88108 0.5963 0.22497 0.0
H593 H 0.92795 0.53996 0.30585 0.0
H594 H 0.8218 0.46756 0.22074 0.0
H595 H 0.75449 0.43864 0.19896 0.0
H596 H 0.71389 0.3715 0.29452 0.0
H597 H 0.78096 0.40049 0.31713 0.0
C598 C 0.95648 0.39091 0.2874 0.0
C599 C 0.93353 0.35695 0.30633 0.0
C600 C 0.94654 0.42003 0.28687 0.0
C601 C 0.9139 0.41578 0.30571 0.0
C602 C 0.89254 0.38281 0.32628 0.0
C603 C 0.90215 0.35376 0.3265 0.0
C604 C 0.89986 0.44376 0.3019 0.0
C605 C 0.86132 0.42927 0.29085 0.0
C606 C 0.924 0.48417 0.30787 0.0
C607 C 0.9641 0.50112 0.32192 0.0
C608 C 0.97153 0.48792 0.35406 0.0
C609 C 0.00939 0.50375 0.36703 0.0
C610 C 0.04006 0.53304 0.34825 0.0
C611 C 0.03292 0.54661 0.31651 0.0
C612 C 0.99511 0.53082 0.30339 0.0
C613 C 0.81014 0.54335 0.28496 0.0
C614 C 0.82986 0.57082 0.2584 0.0
C615 C 0.82403 0.51928 0.29627 0.0
C616 C 0.85786 0.52232 0.28119 0.0
C617 C 0.87847 0.55107 0.25608 0.0
C618 C 0.86466 0.57493 0.24483 0.0
C619 C 0.87103 0.49449 0.28962 0.0
C620 C 0.90939 0.50899 0.30132 0.0
C621 C 0.84666 0.45398 0.28446 0.0
C622 C 0.80635 0.43656 0.27083 0.0
C623 C 0.79849 0.44688 0.23725 0.0
C624 C 0.76038 0.43044 0.22474 0.0
C625 C 0.72991 0.40337 0.24542 0.0
C626 C 0.7375 0.39257 0.2786 0.0
C627 C 0.77555 0.409 0.29127 0.0
H628 H 0.70043 0.39066 0.23568 0.0
H629 H 0.06935 0.54527 0.35834 0.0
H630 H 0.13971 0.46172 0.764 0.0
H631 H 0.14976 0.52674 0.76248 0.0
H632 H 0.0329 0.4851 0.79815 0.0
H633 H 0.02224 0.41854 0.79933 0.0
H634 H 0.05909 0.54388 0.74429 0.0
H635 H 0.10024 0.52613 0.8593 0.0
H636 H 0.13354 0.50533 0.9011 0.0
H637 H 0.24274 0.58467 0.85437 0.0
H638 H 0.21003 0.60553 0.81186 0.0
H639 H 0.10784 0.7359 0.8055 0.0
H640 H 0.08465 0.66659 0.79857 0.0
H641 H 0.19869 0.69178 0.76662 0.0
H642 H 0.22212 0.76155 0.77377 0.0
H643 H 0.16856 0.6396 0.82157 0.0
H644 H 0.12654 0.65587 0.70544 0.0
H645 H 0.09284 0.67602 0.66344 0.0
H646 H 0.9845 0.59976 0.71334 0.0
H647 H 0.01765 0.57954 0.75602 0.0
C648 C 0.11588 0.46609 0.77139 0.0
C649 C 0.08035 0.43505 0.78252 0.0
C650 C 0.12173 0.5034 0.77041 0.0
C651 C 0.09244 0.51098 0.78096 0.0
C652 C 0.05601 0.47985 0.79016 0.0
C653 C 0.04994 0.44194 0.79086 0.0
C654 C 0.10163 0.55193 0.78416 0.0
C655 C 0.08247 0.56474 0.7617 0.0
C656 C 0.13271 0.57928 0.80636 0.0
C657 C 0.15262 0.56721 0.83222 0.0
C658 C 0.13133 0.53897 0.85777 0.0
C659 C 0.1501 0.52718 0.88161 0.0
C660 C 0.19022 0.54362 0.88035 0.0
C661 C 0.21166 0.57196 0.8553 0.0
C662 C 0.19302 0.58381 0.83135 0.0
C663 C 0.12792 0.72667 0.79673 0.0
C664 C 0.1669 0.75411 0.79046 0.0
C665 C 0.11454 0.68704 0.79251 0.0
C666 C 0.13987 0.67394 0.78202 0.0
C667 C 0.17861 0.70128 0.77471 0.0
C668 C 0.19194 0.74106 0.77857 0.0
C669 C 0.12653 0.63182 0.78123 0.0
C670 C 0.14495 0.61879 0.80431 0.0
C671 C 0.09464 0.60441 0.75983 0.0
C672 C 0.07465 0.6165 0.73418 0.0
C673 C 0.09558 0.64366 0.70769 0.0
C674 C 0.07657 0.65504 0.68371 0.0
C675 C 0.03657 0.63927 0.68579 0.0
C676 C 0.01549 0.612 0.7118 0.0
C677 C 0.03437 0.60054 0.73587 0.0
H678 H 0.0219 0.64811 0.66719 0.0
H679 H 0.2047 0.53444 0.89882 0.0
H680 H 0.39441 0.98755 0.75098 0.0
H681 H 0.44599 0.97181 0.74121 0.0
H682 H 0.37005 0.85613 0.77764 0.0
H683 H 0.31979 0.87179 0.78861 0.0
H684 H 0.43664 0.88005 0.805 0.0
H685 H 0.38885 0.87993 0.68574 0.0
H686 H 0.37339 0.90848 0.63485 0.0
H687 H 0.49313 0.99543 0.62665 0.0
H688 H 0.5092 0.96778 0.67795 0.0
H689 H 0.52445 0.77621 0.74161 0.0
H690 H 0.47751 0.79865 0.73726 0.0
H691 H 0.57113 0.91619 0.72853 0.0
H692 H 0.61778 0.89374 0.73357 0.0
H693 H 0.49995 0.89566 0.68577 0.0
H694 H 0.5452 0.89289 0.80696 0.0
H695 H 0.55803 0.86058 0.85629 0.0
H696 H 0.43774 0.77379 0.85835 0.0
H697 H 0.42434 0.80525 0.80853 0.0
C698 C 0.38905 0.959 0.75733 0.0
C699 C 0.35292 0.93103 0.77058 0.0
C700 C 0.41838 0.94988 0.75142 0.0
C701 C 0.4118 0.91254 0.75826 0.0
C702 C 0.37604 0.88512 0.77219 0.0
C703 C 0.34715 0.89423 0.77839 0.0
C704 C 0.4415 0.90113 0.75107 0.0
C705 C 0.45012 0.88327 0.77876 0.0
C706 C 0.4597 0.90566 0.71704 0.0
C707 C 0.45017 0.92206 0.68595 0.0
C708 C 0.41185 0.90531 0.67326 0.0
C709 C 0.40297 0.92131 0.64432 0.0
C710 C 0.43225 0.9538 0.62759 0.0
C711 C 0.47048 0.9703 0.63969 0.0
C712 C 0.47948 0.95449 0.6687 0.0
C713 C 0.53473 0.80653 0.73728 0.0
C714 C 0.57447 0.83333 0.73782 0.0
C715 C 0.50806 0.81938 0.73497 0.0
C716 C 0.52093 0.85914 0.73278 0.0
C717 C 0.56061 0.88544 0.72999 0.0
C718 C 0.58717 0.87265 0.73289 0.0
C719 C 0.49391 0.87387 0.73939 0.0
C720 C 0.48623 0.89256 0.71185 0.0
C721 C 0.47595 0.86962 0.77337 0.0
C722 C 0.48385 0.85119 0.80381 0.0
C723 C 0.52155 0.86676 0.81776 0.0
C724 C 0.52892 0.84862 0.84582 0.0
C725 C 0.49873 0.8151 0.86039 0.0
C726 C 0.4611 0.79973 0.847 0.0
C727 C 0.4536 0.8177 0.81886 0.0
H728 H 0.50449 0.80109 0.88211 0.0
H729 H 0.42533 0.96615 0.60519 0.0
H730 H 0.26027 0.47387 0.75922 0.0
H731 H 0.32838 0.51304 0.74208 0.0
H732 H 0.35804 0.44785 0.81285 0.0
H733 H 0.29051 0.40929 0.83025 0.0
H734 H 0.4073 0.52083 0.82339 0.0
H735 H 0.35731 0.43729 0.7183 0.0
H736 H 0.31334 0.40459 0.6663 0.0
H737 H 0.34777 0.51473 0.62073 0.0
H738 H 0.39157 0.54813 0.67273 0.0
H739 H 0.60377 0.61973 0.76741 0.0
H740 H 0.53797 0.56384 0.77305 0.0
H741 H 0.49232 0.62394 0.7143 0.0
H742 H 0.55729 0.67911 0.70855 0.0
H743 H 0.45307 0.54706 0.69674 0.0
H744 H 0.49677 0.62957 0.80587 0.0
H745 H 0.54216 0.66225 0.85698 0.0
H746 H 0.51989 0.55223 0.89425 0.0
H747 H 0.47474 0.51894 0.84302 0.0
C748 C 0.28131 0.46768 0.77073 0.0
C749 C 0.26998 0.43871 0.79632 0.0
C750 C 0.32026 0.49002 0.76092 0.0
C751 C 0.34856 0.48337 0.77602 0.0
C752 C 0.33701 0.45385 0.80097 0.0
C753 C 0.29829 0.43184 0.81098 0.0
C754 C 0.39037 0.50802 0.7671 0.0
C755 C 0.41727 0.5259 0.79565 0.0
C756 C 0.40369 0.51519 0.73096 0.0
C757 C 0.37748 0.49522 0.69958 0.0
C758 C 0.3553 0.45455 0.69733 0.0
C759 C 0.33044 0.43589 0.66783 0.0
C760 C 0.3277 0.45757 0.64027 0.0
C761 C 0.34989 0.49797 0.64212 0.0
C762 C 0.37477 0.51678 0.67157 0.0
C763 C 0.57974 0.6204 0.75487 0.0
C764 C 0.58556 0.65382 0.73781 0.0
C765 C 0.54217 0.58865 0.7583 0.0
C766 C 0.51007 0.58992 0.74453 0.0
C767 C 0.51644 0.6222 0.7252 0.0
C768 C 0.55366 0.65382 0.72207 0.0
C769 C 0.46961 0.55994 0.75298 0.0
C770 C 0.44299 0.5413 0.72442 0.0
C771 C 0.45651 0.55193 0.78907 0.0
C772 C 0.48272 0.57182 0.82044 0.0
C773 C 0.50168 0.61238 0.8249 0.0
C774 C 0.52737 0.631 0.85387 0.0
C775 C 0.534 0.60934 0.87879 0.0
C776 C 0.51478 0.56898 0.87489 0.0
C777 C 0.48913 0.55021 0.8459 0.0
H778 H 0.55397 0.62381 0.90115 0.0
H779 H 0.30843 0.44307 0.61746 0.0
H780 H 0.22537 0.07339 0.22672 0.0
H781 H 0.18766 0.10613 0.22141 0.0
H782 H 0.19722 0.12877 0.33694 0.0
H783 H 0.23592 0.09734 0.34192 0.0
H784 H 0.12491 0.10735 0.24634 0.0
H785 H 0.22677 0.22278 0.35408 0.0
H786 H 0.29278 0.24914 0.37851 0.0
H787 H 0.32671 0.21446 0.28027 0.0
H788 H 0.26111 0.18859 0.25495 0.0
H789 H 0.04836 0.22119 0.30524 0.0
H790 H 0.07832 0.18183 0.30105 0.0
H791 H 0.17835 0.27492 0.25125 0.0
H792 H 0.14896 0.316 0.25697 0.0
H793 H 0.20009 0.24144 0.29812 0.0
H794 H 0.11154 0.19816 0.20164 0.0
H795 H 0.04997 0.17588 0.16933 0.0
H796 H 0.99685 0.07179 0.22955 0.0
H797 H 0.05763 0.09411 0.26356 0.0
C798 C 0.21781 0.08385 0.25106 0.0
C799 C 0.23311 0.08279 0.28475 0.0
C800 C 0.19657 0.10279 0.24802 0.0
C801 C 0.19061 0.12082 0.27866 0.0
C802 C 0.20223 0.11579 0.31285 0.0
C803 C 0.22386 0.09742 0.31579 0.0
C804 C 0.17689 0.1488 0.27465 0.0
C805 C 0.14118 0.13661 0.25773 0.0
C806 C 0.19916 0.18762 0.28792 0.0
C807 C 0.23888 0.20347 0.30275 0.0
C808 C 0.24835 0.22095 0.33762 0.0
C809 C 0.28569 0.2358 0.35162 0.0
C810 C 0.31388 0.23344 0.33096 0.0
C811 C 0.30481 0.21622 0.29625 0.0
C812 C 0.26754 0.20145 0.28206 0.0
C813 C 0.07713 0.23413 0.29419 0.0
C814 C 0.0964 0.27234 0.28181 0.0
C815 C 0.09396 0.21102 0.29119 0.0
C816 C 0.13022 0.22505 0.27517 0.0
C817 C 0.15013 0.26338 0.26347 0.0
C818 C 0.13331 0.28679 0.26666 0.0
C819 C 0.14714 0.19949 0.27142 0.0
C820 C 0.18369 0.21221 0.28667 0.0
C821 C 0.12619 0.16166 0.25543 0.0
C822 C 0.08921 0.14806 0.23545 0.0
C823 C 0.08661 0.17076 0.20846 0.0
C824 C 0.05179 0.15816 0.18989 0.0
C825 C 0.01943 0.12259 0.19765 0.0
C826 C 0.02184 0.09954 0.22396 0.0
C827 C 0.05648 0.11218 0.24292 0.0
H828 H 0.99256 0.11278 0.1831 0.0
H829 H 0.34277 0.24513 0.34184 0.0
H830 H 0.86422 0.75688 0.1879 0.0
H831 H 0.93478 0.79645 0.18835 0.0
H832 H 0.93291 0.82595 0.30143 0.0
H833 H 0.86193 0.7876 0.30042 0.0
H834 H 0.99344 0.88498 0.26662 0.0
H835 H 0.93879 0.74636 0.27521 0.0
H836 H 0.8969 0.67856 0.25387 0.0
H837 H 0.96023 0.70253 0.15458 0.0
H838 H 1.00201 0.77059 0.17503 0.0
H839 H 0.1785 0.91908 0.3153 0.0
H840 H 0.10814 0.88854 0.31199 0.0
H841 H 0.11069 0.86244 0.19824 0.0
H842 H 0.18113 0.89353 0.20118 0.0
H843 H 0.05017 0.80276 0.23308 0.0
H844 H 0.10452 0.93941 0.22262 0.0
H845 H 0.14536 0.00837 0.24031 0.0
H846 H 0.08339 0.98949 0.33998 0.0
H847 H 0.04244 0.92018 0.32307 0.0
C848 C 0.8789 0.77324 0.21236 0.0
C849 C 0.85801 0.76963 0.24405 0.0
C850 C 0.91915 0.79546 0.21274 0.0
C851 C 0.93913 0.81318 0.2452 0.0
C852 C 0.91807 0.81232 0.27615 0.0
C853 C 0.87761 0.79064 0.27555 0.0
C854 C 0.9814 0.82842 0.24782 0.0
C855 C 1.00581 0.86691 0.25972 0.0
C856 C 0.99763 0.80497 0.23819 0.0
C857 C 0.97334 0.76365 0.22654 0.0
C858 C 0.9437 0.73719 0.24879 0.0
C859 C 0.91995 0.69873 0.23684 0.0
C860 C 0.92587 0.68632 0.20285 0.0
C861 C 0.95566 0.71223 0.18087 0.0
C862 C 0.97939 0.75072 0.19263 0.0
C863 C 0.16406 0.90652 0.28965 0.0
C864 C 0.18553 0.90919 0.25843 0.0
C865 C 0.12388 0.88916 0.28779 0.0
C866 C 0.10432 0.874 0.2547 0.0
C867 C 0.1253 0.87421 0.224 0.0
C868 C 0.16558 0.89175 0.2258 0.0
C869 C 0.06221 0.85931 0.25186 0.0
C870 C 0.03781 0.82084 0.24005 0.0
C871 C 0.04609 0.88284 0.26141 0.0
C872 C 0.07068 0.92449 0.27174 0.0
C873 C 0.09983 0.94987 0.24847 0.0
C874 C 0.12297 0.98905 0.25833 0.0
C875 C 0.11708 1.0033 0.29131 0.0
C876 C 0.08797 0.97839 0.31447 0.0
C877 C 0.06475 0.93915 0.30474 0.0
H878 H 0.13495 0.03364 0.29888 0.0
H879 H 0.90743 0.65666 0.19349 0.0
H880 H 0.91058 0.14344 0.33832 0.0
H881 H 0.88533 0.07403 0.33063 0.0
H882 H 0.92863 0.09035 0.22144 0.0
H883 H 0.95424 0.16058 0.22938 0.0
H884 H 0.85206 0.03973 0.22347 0.0
H885 H 0.96173 0.0534 0.28407 0.0
H886 H 0.01281 0.07579 0.33067 0.0
H887 H 0.92724 0.01497 0.41128 0.0
H888 H 0.87559 0.99272 0.36518 0.0
H889 H 0.7601 0.83273 0.20692 0.0
H890 H 0.80568 0.90233 0.20695 0.0
H891 H 0.78059 0.91218 0.31926 0.0
H892 H 0.7361 0.8424 0.31975 0.0
H893 H 0.85683 0.94873 0.30866 0.0
H894 H 0.74749 0.94505 0.24944 0.0
H895 H 0.69647 0.92257 0.20262 0.0
H896 H 0.78253 0.9649 0.11961 0.0
H897 H 0.83407 0.98726 0.16596 0.0
C898 C 0.91618 0.13237 0.31324 0.0
C899 C 0.93461 0.15713 0.28457 0.0
C900 C 0.9017 0.09267 0.30881 0.0
C901 C 0.9051 0.07688 0.27547 0.0
C902 C 0.92583 0.10196 0.24744 0.0
C903 C 0.94077 0.14201 0.25205 0.0
C904 C 0.88221 0.03425 0.26894 0.0
C905 C 0.85379 0.01975 0.24153 0.0
C906 C 0.8838 0.00822 0.29303 0.0
C907 C 0.91474 0.02153 0.32106 0.0
C908 C 0.95378 0.04502 0.31173 0.0
C909 C 0.98285 0.05766 0.33808 0.0
C910 C 0.97328 0.04684 0.37394 0.0
C911 C 0.93461 0.02332 0.38348 0.0
C912 C 0.90543 0.01064 0.35721 0.0
C913 C 0.76401 0.84979 0.23153 0.0
C914 C 0.7446 0.83187 0.26339 0.0
C915 C 0.78998 0.88964 0.23147 0.0
C916 C 0.79668 0.91256 0.26313 0.0
C917 C 0.77606 0.89505 0.29455 0.0
C918 C 0.75018 0.85515 0.29466 0.0
C919 C 0.82606 0.95453 0.26399 0.0
C920 C 0.8556 0.96875 0.29029 0.0
C921 C 0.82551 0.98034 0.23894 0.0
C922 C 0.79459 0.96746 0.21113 0.0
C923 C 0.75551 0.94935 0.22119 0.0
C924 C 0.72651 0.93667 0.19474 0.0
C925 C 0.73625 0.94219 0.15816 0.0
C926 C 0.77503 0.96058 0.14796 0.0
C927 C 0.80414 0.97331 0.1743 0.0
H928 H 0.71375 0.9323 0.13772 0.0
H929 H 0.99582 0.05664 0.39432 0.0
H930 H 0.07447 0.22635 0.73007 0.0
H931 H 0.10406 0.18594 0.71956 0.0
H932 H 0.15036 0.21317 0.82853 0.0
H933 H 0.12248 0.25476 0.83826 0.0
H934 H 0.20578 0.232 0.78278 0.0
H935 H 0.08026 0.11842 0.79812 0.0
H936 H 0.0105 0.07753 0.78488 0.0
H937 H 0.03513 0.06504 0.67362 0.0
H938 H 0.10508 0.10603 0.68615 0.0
H939 H 0.2839 0.11024 0.80347 0.0
H940 H 0.24259 0.13918 0.80688 0.0
H941 H 0.22436 0.12306 0.69129 0.0
H942 H 0.26601 0.0943 0.68775 0.0
H943 H 0.1542 0.09806 0.73315 0.0
H944 H 0.28026 0.20948 0.7198 0.0
H945 H 0.34959 0.25231 0.73355 0.0
H946 H 0.32255 0.27003 0.84262 0.0
H947 H 0.25306 0.22684 0.82967 0.0
C948 C 0.08981 0.22244 0.75208 0.0
C949 C 0.09641 0.24355 0.78493 0.0
C950 C 0.10679 0.19944 0.74608 0.0
C951 C 0.12978 0.19675 0.77318 0.0
C952 C 0.13315 0.21512 0.80709 0.0
C953 C 0.11699 0.23862 0.81277 0.0
C954 C 0.15445 0.1794 0.76527 0.0
C955 C 0.19426 0.20248 0.77244 0.0
C956 C 0.13982 0.14147 0.75033 0.0
C957 C 0.0979 0.11553 0.74302 0.0
C958 C 0.0708 0.10699 0.77081 0.0
C959 C 0.03123 0.08377 0.76345 0.0
C960 C 0.0184 0.06873 0.72842 0.0
C961 C 0.04513 0.07673 0.70074 0.0
C962 C 0.08475 0.09985 0.70798 0.0
C963 C 0.27152 0.1134 0.77875 0.0
C964 C 0.27837 0.10021 0.74538 0.0
C965 C 0.24777 0.12969 0.78072 0.0
C966 C 0.23021 0.13299 0.74935 0.0
C967 C 0.23744 0.1205 0.71582 0.0
C968 C 0.26166 0.10458 0.71379 0.0
C969 C 0.20507 0.15038 0.752 0.0
C970 C 0.16545 0.12752 0.74353 0.0
C971 C 0.21968 0.18856 0.76598 0.0
C972 C 0.26147 0.21465 0.77384 0.0
C973 C 0.28912 0.22225 0.7468 0.0
C974 C 0.32844 0.24665 0.75443 0.0
C975 C 0.34047 0.26382 0.78895 0.0
C976 C 0.31319 0.25669 0.8159 0.0
C977 C 0.27383 0.23228 0.80842 0.0
H978 H 0.37093 0.2827 0.79481 0.0
H979 H 0.98775 0.05087 0.72275 0.0
H980 H 0.1579 0.94001 0.71304 0.0
H981 H 0.08773 0.91017 0.70694 0.0
H982 H 0.07731 0.90683 0.82335 0.0
H983 H 0.1473 0.93493 0.82915 0.0
H984 H 0.03676 0.83806 0.79582 0.0
H985 H 0.04878 0.96011 0.76861 0.0
H986 H 0.07569 0.02166 0.73688 0.0
H987 H 0.03321 0.9591 0.63542 0.0
H988 H 1.00646 0.89717 0.66646 0.0
H989 H 0.83231 0.7514 0.79864 0.0
H990 H 0.90206 0.79511 0.80513 0.0
H991 H 0.9149 0.78842 0.68955 0.0
H992 H 0.84492 0.74514 0.68294 0.0
H993 H 0.95323 0.86393 0.71679 0.0
H994 H 0.94441 0.74281 0.74397 0.0
H995 H 0.9197 0.68129 0.77532 0.0
H996 H 0.95755 0.7435 0.87747 0.0
H997 H 0.98206 0.8054 0.84677 0.0
C998 C 0.14068 0.93464 0.73725 0.0
C999 C 0.15769 0.94011 0.77156 0.0
C1000 C 0.10053 0.91742 0.7338 0.0
C1001 C 0.07707 0.90606 0.76472 0.0
C1002 C 0.09472 0.91514 0.79912 0.0
C1003 C 0.1347 0.93163 0.8025 0.0
C1004 C 0.03462 0.87948 0.76123 0.0
C1005 C 0.01843 0.84424 0.77914 0.0
C1006 C 0.01084 0.88672 0.73843 0.0
C1007 C 0.02591 0.92396 0.71985 0.0
C1008 C 0.04533 0.95946 0.73951 0.0
C1009 C 0.06054 0.99443 0.72165 0.0
C1010 C 0.05632 0.99426 0.68414 0.0
C1011 C 0.03652 0.95916 0.66447 0.0
C1012 C 0.02127 0.92412 0.68219 0.0
C1013 C 0.85014 0.7588 0.77472 0.0
C1014 C 0.83322 0.74468 0.74035 0.0
C1015 C 0.88993 0.78379 0.77842 0.0
C1016 C 0.91366 0.79507 0.7478 0.0
C1017 C 0.89706 0.78015 0.71351 0.0
C1018 C 0.85718 0.75497 0.70981 0.0
C1019 C 0.95567 0.82301 0.75172 0.0
C1020 C 0.97169 0.85821 0.73376 0.0
C1021 C 0.97943 0.81592 0.77459 0.0
C1022 C 0.96472 0.77871 0.7931 0.0
C1023 C 0.94718 0.74336 0.77315 0.0
C1024 C 0.93327 0.70842 0.7908 0.0
C1025 C 0.93696 0.70848 0.82837 0.0
C1026 C 0.95466 0.74349 0.84837 0.0
C1027 C 0.9686 0.77851 0.83086 0.0
H1028 H 0.92617 0.6814 0.84198 0.0
H1029 H 0.06841 0.02131 0.67027 0.0
H1030 H 0.87786 0.16824 0.76646 0.0
H1031 H 0.85665 0.09863 0.76535 0.0
H1032 H 0.97068 0.12448 0.73251 0.0
H1033 H 0.99197 0.19391 0.73475 0.0
H1034 H 0.90217 0.05655 0.69418 0.0
H1035 H 0.9606 0.10683 0.81013 0.0
H1036 H 0.97352 0.14677 0.86618 0.0
H1037 H 0.85377 0.08041 0.89473 0.0
H1038 H 0.84001 0.04044 0.83854 0.0
H1039 H 0.82029 0.85311 0.72822 0.0
H1040 H 0.8713 0.92198 0.73027 0.0
H1041 H 0.79312 0.95135 0.78461 0.0
H1042 H 0.74319 0.88383 0.78314 0.0
H1043 H 0.86381 0.99338 0.81278 0.0
H1044 H 0.80495 0.95407 0.69052 0.0
H1045 H 0.79108 0.91574 0.63325 0.0
H1046 H 0.91264 0.96202 0.61654 0.0
H1047 H 0.92714 1.00025 0.67398 0.0
C1048 C 0.89794 0.15875 0.75844 0.0
C1049 C 0.93621 0.18589 0.75037 0.0
C1050 C 0.88603 0.11928 0.75789 0.0
C1051 C 0.91222 0.10663 0.74886 0.0
C1052 C 0.95008 0.1337 0.73932 0.0
C1053 C 0.96212 0.17313 0.74053 0.0
C1054 C 0.90036 0.06532 0.75178 0.0
C1055 C 0.89454 0.04272 0.72012 0.0
C1056 C 0.891 0.04759 0.78567 0.0
C1057 C 0.89923 0.07083 0.81999 0.0
C1058 C 0.93698 0.10091 0.82825 0.0
C1059 C 0.94446 0.12353 0.86006 0.0
C1060 C 0.91446 0.1162 0.88394 0.0
C1061 C 0.87697 0.08607 0.87618 0.0
C1062 C 0.86931 0.06338 0.84438 0.0
C1063 C 0.81444 0.87435 0.7411 0.0
C1064 C 0.77762 0.86319 0.75504 0.0
C1065 C 0.84346 0.9136 0.74217 0.0
C1066 C 0.83588 0.94188 0.75732 0.0
C1067 C 0.79977 0.93019 0.77286 0.0
C1068 C 0.77106 0.89146 0.7717 0.0
C1069 C 0.86343 0.98404 0.75496 0.0
C1070 C 0.87252 0.00714 0.78686 0.0
C1071 C 0.87583 1.00216 0.72127 0.0
C1072 C 0.86708 0.9796 0.68664 0.0
C1073 C 0.82867 0.95588 0.67469 0.0
C1074 C 0.82071 0.9342 0.64222 0.0
C1075 C 0.85096 0.93636 0.62132 0.0
C1076 C 0.88924 0.96031 0.63279 0.0
C1077 C 0.89735 0.98198 0.66529 0.0
H1078 H 0.84474 0.91954 0.59619 0.0
H1079 H 0.92025 0.13387 0.90843 0.0
loop_
_geom_bond_atom_site_label_1
_geom_bond_atom_site_label_2
_geom_bond_distance
_geom_bond_site_symmetry_2
_ccdc_geom_bond_type
Co0 N5 2.057 . S
Co0 O17 2.021 . S
Co0 O20 2.062 . S
Co0 O24 2.117 . S
Co0 O25 2.020 . S
C1 O21 1.259 . S
C1 O24 1.258 . S
Co2 N11 2.057 . S
Co2 O18 2.117 . S
Co2 O19 2.020 . S
Co2 O21 2.021 . S
Co2 O26 2.062 . S
C3 N5 1.316 1_565 S
C3 N6 1.347 . S
C3 H8 0.931 . S
C4 N5 1.375 1_565 S
C4 C7 1.350 . S
C4 H9 0.930 . S
N5 Co0 2.057 . S
N5 C3 1.316 1_545 S
N5 C4 1.375 1_545 S
N6 C3 1.347 . S
N6 C7 1.373 . S
C7 C4 1.350 . S
C7 N6 1.373 . S
C7 H28 0.931 . S
H8 C3 0.931 . S
H9 C4 0.930 . S
C10 O17 1.259 . S
C10 O18 1.258 . S
N11 Co2 2.057 . S
N11 C12 1.316 . S
N11 C13 1.375 . S
C12 N11 1.316 . S
C12 N14 1.347 . S
C12 H23 0.931 . S
C13 N11 1.375 . S
C13 C15 1.350 . S
C13 H22 0.930 . S
N14 C12 1.347 . S
N14 C15 1.373 . S
C15 C13 1.350 . S
C15 N14 1.373 . S
C15 H29 0.931 . S
C16 O19 1.256 . S
C16 O20 1.255 . S
O17 Co0 2.021 . S
O17 C10 1.259 . S
O18 Co2 2.117 . S
O18 C10 1.258 . S
O19 Co2 2.020 . S
O19 C16 1.256 . S
O20 Co0 2.062 . S
O20 C16 1.255 . S
O21 C1 1.259 . S
O21 Co2 2.021 . S
H22 C13 0.930 . S
H23 C12 0.931 . S
O24 Co0 2.117 . S
O24 C1 1.258 . S
O25 Co0 2.020 . S
O25 C27 1.256 . S
O26 Co2 2.062 . S
O26 C27 1.255 . S
C27 O25 1.256 . S
C27 O26 1.255 . S
H28 C7 0.931 . S
H29 C15 0.931 . S
Co30 N35 2.057 . S
Co30 O47 2.021 . S
Co30 O50 2.062 . S
Co30 O54 2.117 . S
Co30 O55 2.020 . S
C31 O51 1.259 . S
C31 O54 1.258 . S
Co32 N41 2.057 . S
Co32 O48 2.117 . S
Co32 O49 2.020 . S
Co32 O51 2.021 . S
Co32 O56 2.062 . S
C33 N35 1.316 . S
C33 N36 1.347 . S
C33 H38 0.931 . S
C34 N35 1.375 . S
C34 C37 1.350 . S
C34 H39 0.930 . S
N35 Co30 2.057 . S
N35 C33 1.316 . S
N35 C34 1.375 . S
N36 C33 1.347 . S
N36 C37 1.373 . S
C37 C34 1.350 . S
C37 N36 1.373 . S
C37 H58 0.931 . S
H38 C33 0.931 . S
H39 C34 0.930 . S
C40 O47 1.259 . S
C40 O48 1.258 . S
N41 Co32 2.057 . S
N41 C42 1.316 . S
N41 C43 1.375 . S
C42 N41 1.316 . S
C42 N44 1.347 . S
C42 H53 0.931 . S
C43 N41 1.375 . S
C43 C45 1.350 . S
C43 H52 0.930 . S
N44 C42 1.347 . S
N44 C45 1.373 . S
C45 C43 1.350 . S
C45 N44 1.373 . S
C45 H59 0.931 . S
C46 O49 1.256 . S
C46 O50 1.255 . S
O47 Co30 2.021 . S
O47 C40 1.259 . S
O48 Co32 2.117 . S
O48 C40 1.258 . S
O49 Co32 2.020 . S
O49 C46 1.256 . S
O50 Co30 2.062 . S
O50 C46 1.255 . S
O51 C31 1.259 . S
O51 Co32 2.021 . S
H52 C43 0.930 . S
H53 C42 0.931 . S
O54 Co30 2.117 . S
O54 C31 1.258 . S
O55 Co30 2.020 . S
O55 C57 1.256 . S
O56 Co32 2.062 . S
O56 C57 1.255 . S
C57 O55 1.256 . S
C57 O56 1.255 . S
H58 C37 0.931 . S
H59 C45 0.931 . S
Co60 N65 2.057 . S
Co60 O77 2.021 . S
Co60 O80 2.062 . S
Co60 O84 2.117 . S
Co60 O85 2.020 . S
C61 O81 1.259 . S
C61 O84 1.258 . S
Co62 N71 2.057 . S
Co62 O78 2.117 . S
Co62 O79 2.020 . S
Co62 O81 2.021 . S
Co62 O86 2.062 . S
C63 N65 1.316 1_455 S
C63 N66 1.347 . S
C63 H68 0.931 . S
C64 N65 1.375 1_455 S
C64 C67 1.350 . S
C64 H69 0.949 . S
N65 Co60 2.057 . S
N65 C63 1.316 1_655 S
N65 C64 1.375 1_655 S
N66 C63 1.347 . S
N66 C67 1.373 . S
C67 C64 1.350 . S
C67 N66 1.373 . S
C67 H88 0.931 . S
H68 C63 0.931 . S
H69 C64 0.949 . S
C70 O77 1.259 . S
C70 O78 1.258 . S
N71 Co62 2.057 . S
N71 C72 1.316 . S
N71 C73 1.375 . S
C72 N71 1.316 . S
C72 N74 1.347 . S
C72 H83 0.931 . S
C73 N71 1.375 . S
C73 C75 1.350 . S
C73 H82 0.930 . S
N74 C72 1.347 . S
N74 C75 1.373 . S
C75 C73 1.350 . S
C75 N74 1.373 . S
C75 H89 0.931 . S
C76 O79 1.256 . S
C76 O80 1.255 . S
O77 Co60 2.021 . S
O77 C70 1.259 . S
O78 Co62 2.117 . S
O78 C70 1.258 . S
O79 Co62 2.020 . S
O79 C76 1.256 . S
O80 Co60 2.062 . S
O80 C76 1.255 . S
O81 C61 1.259 . S
O81 Co62 2.021 . S
H82 C73 0.930 . S
H83 C72 0.931 . S
O84 Co60 2.117 . S
O84 C61 1.258 . S
O85 Co60 2.020 . S
O85 C87 1.256 . S
O86 Co62 2.062 . S
O86 C87 1.255 . S
C87 O85 1.256 . S
C87 O86 1.255 . S
H88 C67 0.931 . S
H89 C75 0.931 . S
Co90 N95 2.057 . S
Co90 O107 2.021 . S
Co90 O110 2.062 . S
Co90 O114 2.117 . S
Co90 O115 2.020 . S
C91 O111 1.259 . S
C91 O114 1.258 . S
Co92 N101 2.057 . S
Co92 O108 2.117 . S
Co92 O109 2.020 . S
Co92 O111 2.021 . S
Co92 O116 2.062 . S
C93 N95 1.316 . S
C93 N96 1.347 . S
C93 H98 0.931 . S
C94 N95 1.375 . S
C94 C97 1.350 . S
C94 H99 0.930 . S
N95 Co90 2.057 . S
N95 C93 1.316 . S
N95 C94 1.375 . S
N96 C93 1.347 . S
N96 C97 1.373 . S
C97 C94 1.350 . S
C97 N96 1.373 . S
C97 H118 0.931 . S
H98 C93 0.931 . S
H99 C94 0.930 . S
C100 O107 1.259 . S
C100 O108 1.258 . S
N101 Co92 2.057 . S
N101 C102 1.316 1_455 S
N101 C103 1.375 1_455 S
C102 N101 1.316 1_655 S
C102 N104 1.347 . S
C102 H113 0.931 . S
C103 N101 1.375 1_655 S
C103 C105 1.350 . S
C103 H112 0.930 . S
N104 C102 1.347 . S
N104 C105 1.373 . S
C105 C103 1.350 . S
C105 N104 1.373 . S
C105 H119 0.931 . S
C106 O109 1.256 . S
C106 O110 1.255 . S
O107 Co90 2.021 . S
O107 C100 1.259 . S
O108 Co92 2.117 . S
O108 C100 1.258 . S
O109 Co92 2.020 . S
O109 C106 1.256 . S
O110 Co90 2.062 . S
O110 C106 1.255 . S
O111 C91 1.259 . S
O111 Co92 2.021 . S
H112 C103 0.930 . S
H113 C102 0.931 . S
O114 Co90 2.117 . S
O114 C91 1.258 . S
O115 Co90 2.020 . S
O115 C117 1.256 . S
O116 Co92 2.062 . S
O116 C117 1.255 . S
C117 O115 1.256 . S
C117 O116 1.255 . S
H118 C97 0.931 . S
H119 C105 0.931 . S
Co120 N125 2.057 . S
Co120 O137 2.021 . S
Co120 O140 2.062 . S
Co120 O144 2.117 . S
Co120 O145 2.020 . S
C121 O141 1.259 . S
C121 O144 1.258 . S
Co122 N131 2.057 . S
Co122 O138 2.117 . S
Co122 O139 2.020 . S
Co122 O141 2.021 . S
Co122 O146 2.062 . S
C123 N125 1.316 . S
C123 N126 1.347 . S
C123 H128 0.931 . S
C124 N125 1.375 . S
C124 C127 1.350 . S
C124 H129 0.930 . S
N125 Co120 2.057 . S
N125 C123 1.316 . S
N125 C124 1.375 . S
N126 C123 1.347 . S
N126 C127 1.373 . S
C127 C124 1.350 . S
C127 N126 1.373 . S
C127 H148 0.931 . S
H128 C123 0.931 . S
H129 C124 0.930 . S
C130 O137 1.259 . S
C130 O138 1.258 . S
N131 Co122 2.057 . S
N131 C132 1.316 1_565 S
N131 C133 1.375 1_565 S
C132 N131 1.316 1_545 S
C132 N134 1.347 . S
C132 H143 0.931 . S
C133 N131 1.375 1_545 S
C133 C135 1.350 . S
C133 H142 0.936 . S
N134 C132 1.347 . S
N134 C135 1.373 . S
C135 C133 1.350 . S
C135 N134 1.373 . S
C135 H149 0.931 . S
C136 O139 1.256 . S
C136 O140 1.255 . S
O137 Co120 2.021 . S
O137 C130 1.259 . S
O138 Co122 2.117 . S
O138 C130 1.258 . S
O139 Co122 2.020 . S
O139 C136 1.256 . S
O140 Co120 2.062 . S
O140 C136 1.255 . S
O141 C121 1.259 . S
O141 Co122 2.021 . S
H142 C133 0.936 . S
H143 C132 0.931 . S
O144 Co120 2.117 . S
O144 C121 1.258 . S
O145 Co120 2.020 . S
O145 C147 1.256 . S
O146 Co122 2.062 . S
O146 C147 1.255 . S
C147 O145 1.256 . S
C147 O146 1.255 . S
H148 C127 0.931 . S
H149 C135 0.931 . S
Co150 N155 2.057 . S
Co150 O167 2.021 . S
Co150 O170 2.062 . S
Co150 O174 2.117 . S
Co150 O175 2.020 . S
C151 O171 1.259 . S
C151 O174 1.258 . S
Co152 N161 2.057 . S
Co152 O168 2.117 . S
Co152 O169 2.020 . S
Co152 O171 2.021 . S
Co152 O176 2.062 . S
C153 N155 1.316 . S
C153 N156 1.347 . S
C153 H158 0.931 . S
C154 N155 1.375 . S
C154 C157 1.350 . S
C154 H159 0.930 . S
N155 Co150 2.057 . S
N155 C153 1.316 . S
N155 C154 1.375 . S
N156 C153 1.347 . S
N156 C157 1.373 . S
C157 C154 1.350 . S
C157 N156 1.373 . S
C157 H178 0.931 . S
H158 C153 0.931 . S
H159 C154 0.930 . S
C160 O167 1.259 . S
C160 O168 1.258 . S
N161 Co152 2.057 . S
N161 C162 1.316 . S
N161 C163 1.375 . S
C162 N161 1.316 . S
C162 N164 1.347 . S
C162 H173 0.931 . S
C163 N161 1.375 . S
C163 C165 1.350 . S
C163 H172 0.930 . S
N164 C162 1.347 . S
N164 C165 1.373 . S
C165 C163 1.350 . S
C165 N164 1.373 . S
C165 H179 0.931 . S
C166 O169 1.256 . S
C166 O170 1.255 . S
O167 Co150 2.021 . S
O167 C160 1.259 . S
O168 Co152 2.117 . S
O168 C160 1.258 . S
O169 Co152 2.020 . S
O169 C166 1.256 . S
O170 Co150 2.062 . S
O170 C166 1.255 . S
O171 C151 1.259 . S
O171 Co152 2.021 . S
H172 C163 0.930 . S
H173 C162 0.931 . S
O174 Co150 2.117 . S
O174 C151 1.258 . S
O175 Co150 2.020 . S
O175 C177 1.256 . S
O176 Co152 2.062 . S
O176 C177 1.255 . S
C177 O175 1.256 . S
C177 O176 1.255 . S
H178 C157 0.931 . S
H179 C165 0.931 . S
H180 C198 0.951 . S
H181 C200 0.951 . S
H182 C202 0.950 . S
H183 C203 0.950 . S
H184 C205 0.950 . S
H185 C208 0.950 . S
H186 C209 0.950 . S
H187 C211 0.950 . S
H188 C212 0.950 1_554 S
H189 C213 0.951 . S
H190 C215 0.951 . S
H191 C217 0.950 . S
H192 C218 0.950 . S
H193 C220 0.950 . S
H194 C223 0.950 . S
H195 C224 0.950 . S
H196 C226 0.950 . S
H197 C227 0.950 1_556 S
C198 H180 0.951 . S
C198 C199 1.366 . S
C198 C200 1.388 . S
C199 C198 1.366 . S
C199 C203 1.385 . S
C200 H181 0.951 . S
C200 C198 1.388 . S
C200 C201 1.366 . S
C201 C200 1.366 . S
C201 C202 1.414 . S
C201 C204 1.499 . S
C202 H182 0.950 . S
C202 C201 1.414 . S
C202 C203 1.374 . S
C203 H183 0.950 . S
C203 C199 1.385 . S
C203 C202 1.374 . S
C204 C201 1.499 . S
C204 C205 1.373 . S
C204 C206 1.389 . S
C205 H184 0.950 . S
C205 C204 1.373 . S
C205 C221 1.377 1_566 S
C206 C204 1.389 . S
C206 C207 1.524 . S
C206 C220 1.377 1_566 S
C207 C206 1.524 . S
C207 C208 1.397 1_565 S
C207 C212 1.363 . S
C208 H185 0.950 . S
C208 C207 1.397 1_545 S
C208 C209 1.334 . S
C209 H186 0.950 . S
C209 C208 1.334 . S
C209 C210 1.287 1_545 S
C210 C209 1.287 1_565 S
C210 C211 1.524 . S
C210 H229 0.913 . S
C211 H187 0.950 . S
C211 C210 1.524 . S
C211 C212 1.415 . S
C212 H188 0.950 1_556 S
C212 C207 1.363 . S
C212 C211 1.415 . S
C213 H189 0.951 . S
C213 C214 1.366 . S
C213 C215 1.388 . S
C214 C213 1.366 . S
C214 C218 1.385 . S
C215 H190 0.951 . S
C215 C213 1.388 . S
C215 C216 1.366 . S
C216 C215 1.366 . S
C216 C217 1.414 . S
C216 C219 1.499 . S
C217 H191 0.950 . S
C217 C216 1.414 . S
C217 C218 1.374 . S
C218 H192 0.950 . S
C218 C214 1.385 . S
C218 C217 1.374 . S
C219 C216 1.499 . S
C219 C220 1.373 . S
C219 C221 1.389 . S
C220 H193 0.950 . S
C220 C206 1.377 1_544 S
C220 C219 1.373 . S
C221 C205 1.377 1_544 S
C221 C219 1.389 . S
C221 C222 1.524 . S
C222 C221 1.524 . S
C222 C223 1.397 1_545 S
C222 C227 1.363 . S
C223 H194 0.950 . S
C223 C222 1.397 1_565 S
C223 C224 1.334 . S
C224 H195 0.950 . S
C224 C223 1.334 . S
C224 C225 1.287 1_565 S
C225 C224 1.287 1_545 S
C225 C226 1.524 . S
C225 H228 0.999 . S
C226 H196 0.950 . S
C226 C225 1.524 . S
C226 C227 1.415 . S
C227 H197 0.950 1_554 S
C227 C222 1.363 . S
C227 C226 1.415 . S
H228 C225 0.999 . S
H229 C210 0.913 . S
H230 C248 0.951 . S
H231 C250 0.951 . S
H232 C252 0.950 . S
H233 C253 0.950 . S
H234 C255 0.950 . S
H235 C258 0.950 . S
H236 C259 0.950 . S
H237 C261 0.950 . S
H238 C262 0.950 . S
H239 C263 0.951 . S
H240 C265 0.951 . S
H241 C267 0.950 . S
H242 C268 0.950 . S
H243 C270 0.950 . S
H244 C273 0.950 . S
H245 C274 0.950 . S
H246 C276 0.950 . S
H247 C277 0.950 . S
C248 H230 0.951 . S
C248 C249 1.366 . S
C248 C250 1.388 . S
C249 C248 1.366 . S
C249 C253 1.385 . S
C250 H231 0.951 . S
C250 C248 1.388 . S
C250 C251 1.366 . S
C251 C250 1.366 . S
C251 C252 1.414 . S
C251 C254 1.499 . S
C252 H232 0.950 . S
C252 C251 1.414 . S
C252 C253 1.374 . S
C253 H233 0.950 . S
C253 C249 1.385 . S
C253 C252 1.374 . S
C254 C251 1.499 . S
C254 C255 1.373 . S
C254 C256 1.389 . S
C255 H234 0.950 . S
C255 C254 1.373 . S
C255 C271 1.377 . S
C256 C254 1.389 . S
C256 C257 1.524 . S
C256 C270 1.377 . S
C257 C256 1.524 . S
C257 C258 1.397 . S
C257 C262 1.363 . S
C258 H235 0.950 . S
C258 C257 1.397 . S
C258 C259 1.334 . S
C259 H236 0.950 . S
C259 C258 1.334 . S
C259 C260 1.287 . S
C260 C259 1.287 . S
C260 C261 1.524 . S
C260 H279 0.913 . S
C261 H237 0.950 . S
C261 C260 1.524 . S
C261 C262 1.415 . S
C262 H238 0.950 . S
C262 C257 1.363 . S
C262 C261 1.415 . S
C263 H239 0.951 . S
C263 C264 1.366 . S
C263 C265 1.388 . S
C264 C263 1.366 . S
C264 C268 1.385 . S
C265 H240 0.951 . S
C265 C263 1.388 . S
C265 C266 1.366 . S
C266 C265 1.366 . S
C266 C267 1.414 . S
C266 C269 1.499 . S
C267 H241 0.950 . S
C267 C266 1.414 . S
C267 C268 1.374 . S
C268 H242 0.950 . S
C268 C264 1.385 . S
C268 C267 1.374 . S
C269 C266 1.499 . S
C269 C270 1.373 . S
C269 C271 1.389 . S
C270 H243 0.950 . S
C270 C256 1.377 . S
C270 C269 1.373 . S
C271 C255 1.377 . S
C271 C269 1.389 . S
C271 C272 1.524 . S
C272 C271 1.524 . S
C272 C273 1.397 . S
C272 C277 1.363 . S
C273 H244 0.950 . S
C273 C272 1.397 . S
C273 C274 1.334 . S
C274 H245 0.950 . S
C274 C273 1.334 . S
C274 C275 1.287 . S
C275 C274 1.287 . S
C275 C276 1.524 . S
C275 H278 0.999 . S
C276 H246 0.950 . S
C276 C275 1.524 . S
C276 C277 1.415 . S
C277 H247 0.950 . S
C277 C272 1.363 . S
C277 C276 1.415 . S
H278 C275 0.999 . S
H279 C260 0.913 . S
H280 C298 0.951 . S
H281 C300 0.951 1_455 S
H282 C302 0.950 . S
H283 C303 0.950 . S
H284 C305 0.950 . S
H285 C308 0.950 . S
H286 C309 0.950 . S
H287 C311 0.950 . S
H288 C312 0.950 . S
H289 C313 0.951 . S
H290 C315 0.951 1_655 S
H291 C317 0.950 . S
H292 C318 0.950 . S
H293 C320 0.950 . S
H294 C323 0.950 . S
H295 C324 0.950 . S
H296 C326 0.950 . S
H297 C327 0.950 . S
C298 H280 0.951 . S
C298 C299 1.366 . S
C298 C300 1.388 . S
C299 C298 1.366 . S
C299 C303 1.385 . S
C300 H281 0.951 1_655 S
C300 C298 1.388 . S
C300 C301 1.366 . S
C301 C300 1.366 . S
C301 C302 1.414 . S
C301 C304 1.499 . S
C302 H282 0.950 . S
C302 C301 1.414 . S
C302 C303 1.374 . S
C303 H283 0.950 . S
C303 C299 1.385 . S
C303 C302 1.374 . S
C304 C301 1.499 . S
C304 C305 1.373 . S
C304 C306 1.389 1_655 S
C305 H284 0.950 . S
C305 C304 1.373 . S
C305 C321 1.377 1_554 S
C306 C304 1.389 1_455 S
C306 C307 1.524 . S
C306 C320 1.377 1_554 S
C307 C306 1.524 . S
C307 C308 1.397 1_455 S
C307 C312 1.363 . S
C308 H285 0.950 . S
C308 C307 1.397 1_655 S
C308 C309 1.334 . S
C309 H286 0.950 . S
C309 C308 1.334 . S
C309 C310 1.287 1_655 S
C310 C309 1.287 1_455 S
C310 C311 1.524 . S
C310 H329 0.913 . S
C311 H287 0.950 . S
C311 C310 1.524 . S
C311 C312 1.415 . S
C312 H288 0.950 . S
C312 C307 1.363 . S
C312 C311 1.415 . S
C313 H289 0.951 . S
C313 C314 1.366 . S
C313 C315 1.388 . S
C314 C313 1.366 . S
C314 C318 1.385 . S
C315 H290 0.951 1_455 S
C315 C313 1.388 . S
C315 C316 1.366 . S
C316 C315 1.366 . S
C316 C317 1.414 . S
C316 C319 1.499 . S
C317 H291 0.950 . S
C317 C316 1.414 . S
C317 C318 1.374 . S
C318 H292 0.950 . S
C318 C314 1.385 . S
C318 C317 1.374 . S
C319 C316 1.499 . S
C319 C320 1.373 . S
C319 C321 1.389 1_455 S
C320 H293 0.950 . S
C320 C306 1.377 1_556 S
C320 C319 1.373 . S
C321 C305 1.377 1_556 S
C321 C319 1.389 1_655 S
C321 C322 1.524 . S
C322 C321 1.524 . S
C322 C323 1.397 1_655 S
C322 C327 1.363 . S
C323 H294 0.950 . S
C323 C322 1.397 1_455 S
C323 C324 1.334 . S
C324 H295 0.950 . S
C324 C323 1.334 . S
C324 C325 1.287 1_455 S
C325 C324 1.287 1_655 S
C325 C326 1.524 . S
C325 H328 0.999 . S
C326 H296 0.950 . S
C326 C325 1.524 . S
C326 C327 1.415 . S
C327 H297 0.950 . S
C327 C322 1.363 . S
C327 C326 1.415 . S
H328 C325 0.999 . S
H329 C310 0.913 . S
H330 C348 0.951 . S
H331 C350 0.951 . S
H332 C352 0.950 . S
H333 C353 0.950 . S
H334 C355 0.950 . S
H335 C358 0.950 . S
H336 C359 0.950 . S
H337 C361 0.950 . S
H338 C362 0.950 . S
H339 C363 0.951 . S
H340 C365 0.951 . S
H341 C367 0.950 . S
H342 C368 0.950 . S
H343 C370 0.950 . S
H344 C373 0.950 . S
H345 C374 0.950 . S
H346 C376 0.950 . S
H347 C377 0.951 . S
C348 H330 0.951 . S
C348 C349 1.366 . S
C348 C350 1.388 . S
C349 C348 1.366 . S
C349 C353 1.385 . S
C350 H331 0.951 . S
C350 C348 1.388 . S
C350 C351 1.366 . S
C351 C350 1.366 . S
C351 C352 1.414 . S
C351 C354 1.499 . S
C352 H332 0.950 . S
C352 C351 1.414 . S
C352 C353 1.374 . S
C353 H333 0.950 . S
C353 C349 1.385 . S
C353 C352 1.374 . S
C354 C351 1.499 . S
C354 C355 1.373 . S
C354 C356 1.389 1_545 S
C355 H334 0.950 . S
C355 C354 1.373 . S
C355 C371 1.377 . S
C356 C354 1.389 1_565 S
C356 C357 1.524 . S
C356 C370 1.377 . S
C357 C356 1.524 . S
C357 C358 1.397 . S
C357 C362 1.363 . S
C358 H335 0.950 . S
C358 C357 1.397 . S
C358 C359 1.334 . S
C359 H336 0.950 . S
C359 C358 1.334 . S
C359 C360 1.287 . S
C360 C359 1.287 . S
C360 C361 1.524 . S
C360 H379 0.913 . S
C361 H337 0.950 . S
C361 C360 1.524 . S
C361 C362 1.415 . S
C362 H338 0.950 . S
C362 C357 1.363 . S
C362 C361 1.415 . S
C363 H339 0.951 . S
C363 C364 1.366 . S
C363 C365 1.388 . S
C364 C363 1.366 . S
C364 C368 1.385 . S
C365 H340 0.951 . S
C365 C363 1.388 . S
C365 C366 1.366 . S
C366 C365 1.366 . S
C366 C367 1.414 . S
C366 C369 1.499 . S
C367 H341 0.950 . S
C367 C366 1.414 . S
C367 C368 1.374 . S
C368 H342 0.950 . S
C368 C364 1.385 . S
C368 C367 1.374 . S
C369 C366 1.499 . S
C369 C370 1.373 . S
C369 C371 1.389 1_565 S
C370 H343 0.950 . S
C370 C356 1.377 . S
C370 C369 1.373 . S
C371 C355 1.377 . S
C371 C369 1.389 1_545 S
C371 C372 1.524 . S
C372 C371 1.524 . S
C372 C373 1.397 . S
C372 C377 1.363 . S
C373 H344 0.950 . S
C373 C372 1.397 . S
C373 C374 1.334 . S
C374 H345 0.950 . S
C374 C373 1.334 . S
C374 C375 1.287 . S
C375 C374 1.287 . S
C375 C376 1.524 . S
C375 H378 0.999 . S
C376 H346 0.950 . S
C376 C375 1.524 . S
C376 C377 1.415 . S
C377 H347 0.951 . S
C377 C372 1.363 . S
C377 C376 1.415 . S
H378 C375 0.999 . S
H379 C360 0.913 . S
H380 C398 0.951 . S
H381 C400 0.951 . S
H382 C402 0.950 . S
H383 C403 0.950 . S
H384 C405 0.950 . S
H385 C408 0.950 . S
H386 C409 0.950 . S
H387 C411 0.950 . S
H388 C412 0.950 . S
H389 C413 0.951 . S
H390 C415 0.951 . S
H391 C417 0.950 . S
H392 C418 0.950 . S
H393 C420 0.950 . S
H394 C423 0.950 . S
H395 C424 0.950 . S
H396 C426 0.950 . S
H397 C427 0.950 . S
C398 H380 0.951 . S
C398 C399 1.366 . S
C398 C400 1.388 . S
C399 C398 1.366 . S
C399 C403 1.385 . S
C400 H381 0.951 . S
C400 C398 1.388 . S
C400 C401 1.366 . S
C401 C400 1.366 . S
C401 C402 1.414 . S
C401 C404 1.499 . S
C402 H382 0.950 . S
C402 C401 1.414 . S
C402 C403 1.374 . S
C403 H383 0.950 . S
C403 C399 1.385 . S
C403 C402 1.374 . S
C404 C401 1.499 . S
C404 C405 1.373 . S
C404 C406 1.389 . S
C405 H384 0.950 . S
C405 C404 1.373 . S
C405 C421 1.377 1_556 S
C406 C404 1.389 . S
C406 C407 1.524 . S
C406 C420 1.377 1_556 S
C407 C406 1.524 . S
C407 C408 1.397 . S
C407 C412 1.363 . S
C408 H385 0.950 . S
C408 C407 1.397 . S
C408 C409 1.334 . S
C409 H386 0.950 . S
C409 C408 1.334 . S
C409 C410 1.287 . S
C410 C409 1.287 . S
C410 C411 1.524 . S
C410 H429 0.913 . S
C411 H387 0.950 . S
C411 C410 1.524 . S
C411 C412 1.415 . S
C412 H388 0.950 . S
C412 C407 1.363 . S
C412 C411 1.415 . S
C413 H389 0.951 . S
C413 C414 1.366 . S
C413 C415 1.388 . S
C414 C413 1.366 . S
C414 C418 1.385 . S
C415 H390 0.951 . S
C415 C413 1.388 . S
C415 C416 1.366 . S
C416 C415 1.366 . S
C416 C417 1.414 . S
C416 C419 1.499 . S
C417 H391 0.950 . S
C417 C416 1.414 . S
C417 C418 1.374 . S
C418 H392 0.950 . S
C418 C414 1.385 . S
C418 C417 1.374 . S
C419 C416 1.499 . S
C419 C420 1.373 . S
C419 C421 1.389 . S
C420 H393 0.950 . S
C420 C406 1.377 1_554 S
C420 C419 1.373 . S
C421 C405 1.377 1_554 S
C421 C419 1.389 . S
C421 C422 1.524 . S
C422 C421 1.524 . S
C422 C423 1.397 . S
C422 C427 1.363 . S
C423 H394 0.950 . S
C423 C422 1.397 . S
C423 C424 1.334 . S
C424 H395 0.950 . S
C424 C423 1.334 . S
C424 C425 1.287 . S
C425 C424 1.287 . S
C425 C426 1.524 . S
C425 H428 0.999 . S
C426 H396 0.950 . S
C426 C425 1.524 . S
C426 C427 1.415 . S
C427 H397 0.950 . S
C427 C422 1.363 . S
C427 C426 1.415 . S
H428 C425 0.999 . S
H429 C410 0.913 . S
H430 C448 0.951 . S
H431 C450 0.951 . S
H432 C452 0.950 . S
H433 C453 0.950 . S
H434 C455 0.950 . S
H435 C458 0.950 . S
H436 C459 0.950 . S
H437 C461 0.969 . S
H438 C462 0.950 . S
H439 C463 0.951 . S
H440 C465 0.951 . S
H441 C467 0.950 . S
H442 C468 0.950 . S
H443 C470 0.950 . S
H444 C473 0.950 . S
H445 C474 0.950 . S
H446 C476 0.950 . S
H447 C477 0.950 . S
C448 H430 0.951 . S
C448 C449 1.366 . S
C448 C450 1.388 . S
C449 C448 1.366 . S
C449 C453 1.385 . S
C450 H431 0.951 . S
C450 C448 1.388 . S
C450 C451 1.366 . S
C451 C450 1.366 . S
C451 C452 1.414 . S
C451 C454 1.499 . S
C452 H432 0.950 . S
C452 C451 1.414 . S
C452 C453 1.374 . S
C453 H433 0.950 . S
C453 C449 1.385 . S
C453 C452 1.374 . S
C454 C451 1.499 . S
C454 C455 1.373 . S
C454 C456 1.392 1_655 S
C455 H434 0.950 . S
C455 C454 1.373 . S
C455 C471 1.377 1_655 S
C456 C454 1.392 1_455 S
C456 C457 1.512 . S
C456 C470 1.390 . S
C457 C456 1.512 . S
C457 C458 1.397 . S
C457 C462 1.363 1_455 S
C458 H435 0.950 . S
C458 C457 1.397 . S
C458 C459 1.334 . S
C459 H436 0.950 . S
C459 C458 1.334 . S
C459 C460 1.287 . S
C460 C459 1.287 . S
C460 C461 1.511 1_455 S
C460 H479 0.913 . S
C461 H437 0.969 . S
C461 C460 1.511 1_655 S
C461 C462 1.406 . S
C462 H438 0.950 . S
C462 C457 1.363 1_655 S
C462 C461 1.406 . S
C463 H439 0.951 . S
C463 C464 1.366 . S
C463 C465 1.388 . S
C464 C463 1.366 . S
C464 C468 1.385 . S
C465 H440 0.951 . S
C465 C463 1.388 . S
C465 C466 1.366 . S
C466 C465 1.366 . S
C466 C467 1.414 . S
C466 C469 1.499 . S
C467 H441 0.950 . S
C467 C466 1.414 . S
C467 C468 1.374 . S
C468 H442 0.950 . S
C468 C464 1.385 . S
C468 C467 1.374 . S
C469 C466 1.499 . S
C469 C470 1.373 . S
C469 C471 1.389 . S
C470 H443 0.950 . S
C470 C456 1.390 . S
C470 C469 1.373 . S
C471 C455 1.377 1_455 S
C471 C469 1.389 . S
C471 C472 1.524 1_455 S
C472 C471 1.524 1_655 S
C472 C473 1.397 . S
C472 C477 1.363 1_655 S
C473 H444 0.950 . S
C473 C472 1.397 . S
C473 C474 1.334 . S
C474 H445 0.950 . S
C474 C473 1.334 . S
C474 C475 1.287 . S
C475 C474 1.287 . S
C475 C476 1.524 1_655 S
C475 H478 0.999 . S
C476 H446 0.950 . S
C476 C475 1.524 1_455 S
C476 C477 1.415 . S
C477 H447 0.950 . S
C477 C472 1.363 1_455 S
C477 C476 1.415 . S
H478 C475 0.999 . S
H479 C460 0.913 . S
H480 C498 0.951 . S
H481 C500 0.951 . S
H482 C502 0.950 . S
H483 C503 0.950 . S
H484 C505 0.950 . S
H485 C508 0.950 . S
H486 C509 0.950 . S
H487 C511 0.950 1_565 S
H488 C512 0.950 . S
H489 C513 0.951 . S
H490 C515 0.951 . S
H491 C517 0.950 . S
H492 C518 0.950 . S
H493 C520 0.950 . S
H494 C523 0.950 . S
H495 C524 0.950 . S
H496 C526 0.950 . S
H497 C527 0.950 . S
C498 H480 0.951 . S
C498 C499 1.366 . S
C498 C500 1.388 . S
C499 C498 1.366 . S
C499 C503 1.385 . S
C500 H481 0.951 . S
C500 C498 1.388 . S
C500 C501 1.366 . S
C501 C500 1.366 . S
C501 C502 1.414 . S
C501 C504 1.499 . S
C502 H482 0.950 . S
C502 C501 1.414 . S
C502 C503 1.374 . S
C503 H483 0.950 . S
C503 C499 1.385 . S
C503 C502 1.374 . S
C504 C501 1.499 . S
C504 C505 1.373 . S
C504 C506 1.389 . S
C505 H484 0.950 . S
C505 C504 1.373 . S
C505 C521 1.377 . S
C506 C504 1.389 . S
C506 C507 1.524 . S
C506 C520 1.377 . S
C507 C506 1.524 . S
C507 C508 1.397 . S
C507 C512 1.363 . S
C508 H485 0.950 . S
C508 C507 1.397 . S
C508 C509 1.334 . S
C509 H486 0.950 . S
C509 C508 1.334 . S
C509 C510 1.287 . S
C510 C509 1.287 . S
C510 C511 1.524 . S
C510 H529 0.919 . S
C511 H487 0.950 1_545 S
C511 C510 1.524 . S
C511 C512 1.415 . S
C512 H488 0.950 . S
C512 C507 1.363 . S
C512 C511 1.415 . S
C513 H489 0.951 . S
C513 C514 1.366 . S
C513 C515 1.388 . S
C514 C513 1.366 . S
C514 C518 1.385 . S
C515 H490 0.951 . S
C515 C513 1.388 . S
C515 C516 1.366 . S
C516 C515 1.366 . S
C516 C517 1.414 . S
C516 C519 1.499 . S
C517 H491 0.950 . S
C517 C516 1.414 . S
C517 C518 1.374 . S
C518 H492 0.950 . S
C518 C514 1.385 . S
C518 C517 1.374 . S
C519 C516 1.499 . S
C519 C520 1.373 . S
C519 C521 1.389 . S
C520 H493 0.950 . S
C520 C506 1.377 . S
C520 C519 1.373 . S
C521 C505 1.377 . S
C521 C519 1.389 . S
C521 C522 1.524 . S
C522 C521 1.524 . S
C522 C523 1.397 . S
C522 C527 1.363 . S
C523 H494 0.950 . S
C523 C522 1.397 . S
C523 C524 1.334 . S
C524 H495 0.950 . S
C524 C523 1.334 . S
C524 C525 1.287 . S
C525 C524 1.287 . S
C525 C526 1.524 . S
C525 H528 0.999 . S
C526 H496 0.950 . S
C526 C525 1.524 . S
C526 C527 1.415 . S
C527 H497 0.950 . S
C527 C522 1.363 . S
C527 C526 1.415 . S
H528 C525 0.999 . S
H529 C510 0.919 . S
H530 C548 0.951 . S
H531 C550 0.951 . S
H532 C552 0.950 . S
H533 C553 0.950 . S
H534 C555 0.950 . S
H535 C558 0.950 . S
H536 C559 0.950 . S
H537 C561 0.950 . S
H538 C562 0.950 . S
H539 C563 0.951 . S
H540 C565 0.951 . S
H541 C567 0.950 . S
H542 C568 0.950 . S
H543 C570 0.950 . S
H544 C573 0.950 . S
H545 C574 0.950 . S
H546 C576 0.950 . S
H547 C577 0.950 . S
C548 H530 0.951 . S
C548 C549 1.366 . S
C548 C550 1.388 . S
C549 C548 1.366 . S
C549 C553 1.385 . S
C550 H531 0.951 . S
C550 C548 1.388 . S
C550 C551 1.366 . S
C551 C550 1.366 . S
C551 C552 1.414 . S
C551 C554 1.499 . S
C552 H532 0.950 . S
C552 C551 1.414 . S
C552 C553 1.374 . S
C553 H533 0.950 . S
C553 C549 1.385 . S
C553 C552 1.374 . S
C554 C551 1.499 . S
C554 C555 1.373 . S
C554 C556 1.389 . S
C555 H534 0.950 . S
C555 C554 1.373 . S
C555 C571 1.377 . S
C556 C554 1.389 . S
C556 C557 1.524 . S
C556 C570 1.377 . S
C557 C556 1.524 . S
C557 C558 1.397 . S
C557 C562 1.363 . S
C558 H535 0.950 . S
C558 C557 1.397 . S
C558 C559 1.334 . S
C559 H536 0.950 . S
C559 C558 1.334 . S
C559 C560 1.287 . S
C560 C559 1.287 . S
C560 C561 1.524 . S
C560 H579 0.913 . S
C561 H537 0.950 . S
C561 C560 1.524 . S
C561 C562 1.415 . S
C562 H538 0.950 . S
C562 C557 1.363 . S
C562 C561 1.415 . S
C563 H539 0.951 . S
C563 C564 1.366 . S
C563 C565 1.388 . S
C564 C563 1.366 . S
C564 C568 1.385 . S
C565 H540 0.951 . S
C565 C563 1.388 . S
C565 C566 1.366 . S
C566 C565 1.366 . S
C566 C567 1.414 . S
C566 C569 1.499 . S
C567 H541 0.950 . S
C567 C566 1.414 . S
C567 C568 1.374 . S
C568 H542 0.950 . S
C568 C564 1.385 . S
C568 C567 1.374 . S
C569 C566 1.499 . S
C569 C570 1.373 . S
C569 C571 1.389 . S
C570 H543 0.950 . S
C570 C556 1.377 . S
C570 C569 1.373 . S
C571 C555 1.377 . S
C571 C569 1.389 . S
C571 C572 1.524 . S
C572 C571 1.524 . S
C572 C573 1.397 . S
C572 C577 1.363 . S
C573 H544 0.950 . S
C573 C572 1.397 . S
C573 C574 1.334 . S
C574 H545 0.950 . S
C574 C573 1.334 . S
C574 C575 1.287 . S
C575 C574 1.287 . S
C575 C576 1.524 . S
C575 H578 0.999 . S
C576 H546 0.950 . S
C576 C575 1.524 . S
C576 C577 1.415 . S
C577 H547 0.950 . S
C577 C572 1.363 . S
C577 C576 1.415 . S
H578 C575 0.999 . S
H579 C560 0.913 . S
H580 C598 0.951 . S
H581 C600 0.951 . S
H582 C602 0.950 . S
H583 C603 0.950 . S
H584 C605 0.950 . S
H585 C608 0.950 . S
H586 C609 0.950 . S
H587 C611 0.950 . S
H588 C612 0.950 . S
H589 C613 0.951 . S
H590 C615 0.951 . S
H591 C617 0.950 . S
H592 C618 0.950 . S
H593 C620 0.950 . S
H594 C623 0.950 . S
H595 C624 0.950 . S
H596 C626 0.950 . S
H597 C627 0.950 . S
C598 H580 0.951 . S
C598 C599 1.366 . S
C598 C600 1.388 . S
C599 C598 1.366 . S
C599 C603 1.385 . S
C600 H581 0.951 . S
C600 C598 1.388 . S
C600 C601 1.366 . S
C601 C600 1.366 . S
C601 C602 1.414 . S
C601 C604 1.499 . S
C602 H582 0.950 . S
C602 C601 1.414 . S
C602 C603 1.374 . S
C603 H583 0.950 . S
C603 C599 1.385 . S
C603 C602 1.374 . S
C604 C601 1.499 . S
C604 C605 1.373 . S
C604 C606 1.389 . S
C605 H584 0.950 . S
C605 C604 1.373 . S
C605 C621 1.377 . S
C606 C604 1.389 . S
C606 C607 1.524 . S
C606 C620 1.377 . S
C607 C606 1.524 . S
C607 C608 1.397 . S
C607 C612 1.363 . S
C608 H585 0.950 . S
C608 C607 1.397 . S
C608 C609 1.334 . S
C609 H586 0.950 . S
C609 C608 1.334 . S
C609 C610 1.287 . S
C610 C609 1.287 . S
C610 C611 1.524 1_655 S
C610 H629 0.913 1_655 S
C611 H587 0.950 . S
C611 C610 1.524 1_455 S
C611 C612 1.415 1_455 S
C612 H588 0.950 . S
C612 C607 1.363 . S
C612 C611 1.415 1_655 S
C613 H589 0.951 . S
C613 C614 1.366 . S
C613 C615 1.388 . S
C614 C613 1.366 . S
C614 C618 1.385 . S
C615 H590 0.951 . S
C615 C613 1.388 . S
C615 C616 1.366 . S
C616 C615 1.366 . S
C616 C617 1.414 . S
C616 C619 1.499 . S
C617 H591 0.950 . S
C617 C616 1.414 . S
C617 C618 1.374 . S
C618 H592 0.950 . S
C618 C614 1.385 . S
C618 C617 1.374 . S
C619 C616 1.499 . S
C619 C620 1.373 . S
C619 C621 1.389 . S
C620 H593 0.950 . S
C620 C606 1.377 . S
C620 C619 1.373 . S
C621 C605 1.377 . S
C621 C619 1.389 . S
C621 C622 1.524 . S
C622 C621 1.524 . S
C622 C623 1.397 . S
C622 C627 1.363 . S
C623 H594 0.950 . S
C623 C622 1.397 . S
C623 C624 1.334 . S
C624 H595 0.950 . S
C624 C623 1.334 . S
C624 C625 1.287 . S
C625 C624 1.287 . S
C625 C626 1.524 . S
C625 H628 0.999 . S
C626 H596 0.950 . S
C626 C625 1.524 . S
C626 C627 1.415 . S
C627 H597 0.950 . S
C627 C622 1.363 . S
C627 C626 1.415 . S
H628 C625 0.999 . S
H629 C610 0.913 1_455 S
H630 C648 0.951 . S
H631 C650 0.951 . S
H632 C652 0.950 . S
H633 C653 0.950 . S
H634 C655 0.950 . S
H635 C658 0.950 . S
H636 C659 0.950 . S
H637 C661 0.950 . S
H638 C662 0.950 . S
H639 C663 0.951 . S
H640 C665 0.951 . S
H641 C667 0.950 . S
H642 C668 0.950 . S
H643 C670 0.950 . S
H644 C673 0.950 . S
H645 C674 0.950 . S
H646 C676 0.950 . S
H647 C677 0.950 . S
C648 H630 0.951 . S
C648 C649 1.366 . S
C648 C650 1.388 . S
C649 C648 1.366 . S
C649 C653 1.385 . S
C650 H631 0.951 . S
C650 C648 1.388 . S
C650 C651 1.366 . S
C651 C650 1.366 . S
C651 C652 1.414 . S
C651 C654 1.499 . S
C652 H632 0.950 . S
C652 C651 1.414 . S
C652 C653 1.374 . S
C653 H633 0.950 . S
C653 C649 1.385 . S
C653 C652 1.374 . S
C654 C651 1.499 . S
C654 C655 1.373 . S
C654 C656 1.389 . S
C655 H634 0.950 . S
C655 C654 1.373 . S
C655 C671 1.377 . S
C656 C654 1.389 . S
C656 C657 1.524 . S
C656 C670 1.377 . S
C657 C656 1.524 . S
C657 C658 1.397 . S
C657 C662 1.363 . S
C658 H635 0.950 . S
C658 C657 1.397 . S
C658 C659 1.334 . S
C659 H636 0.950 . S
C659 C658 1.334 . S
C659 C660 1.287 . S
C660 C659 1.287 . S
C660 C661 1.524 . S
C660 H679 0.913 . S
C661 H637 0.950 . S
C661 C660 1.524 . S
C661 C662 1.415 . S
C662 H638 0.950 . S
C662 C657 1.363 . S
C662 C661 1.415 . S
C663 H639 0.951 . S
C663 C664 1.366 . S
C663 C665 1.388 . S
C664 C663 1.366 . S
C664 C668 1.385 . S
C665 H640 0.951 . S
C665 C663 1.388 . S
C665 C666 1.366 . S
C666 C665 1.366 . S
C666 C667 1.414 . S
C666 C669 1.499 . S
C667 H641 0.950 . S
C667 C666 1.414 . S
C667 C668 1.374 . S
C668 H642 0.950 . S
C668 C664 1.385 . S
C668 C667 1.374 . S
C669 C666 1.499 . S
C669 C670 1.373 . S
C669 C671 1.389 . S
C670 H643 0.950 . S
C670 C656 1.377 . S
C670 C669 1.373 . S
C671 C655 1.377 . S
C671 C669 1.389 . S
C671 C672 1.524 . S
C672 C671 1.524 . S
C672 C673 1.397 . S
C672 C677 1.363 . S
C673 H644 0.950 . S
C673 C672 1.397 . S
C673 C674 1.334 . S
C674 H645 0.950 . S
C674 C673 1.334 . S
C674 C675 1.287 . S
C675 C674 1.287 . S
C675 C676 1.524 . S
C675 H678 0.999 . S
C676 H646 0.950 . S
C676 C675 1.524 . S
C676 C677 1.415 . S
C677 H647 0.950 . S
C677 C672 1.363 . S
C677 C676 1.415 . S
H678 C675 0.999 . S
H679 C660 0.913 . S
H680 C698 0.951 . S
H681 C700 0.951 . S
H682 C702 0.950 . S
H683 C703 0.950 . S
H684 C705 0.950 . S
H685 C708 0.950 . S
H686 C709 0.950 . S
H687 C711 0.950 1_545 S
H688 C712 0.950 . S
H689 C713 0.951 . S
H690 C715 0.951 . S
H691 C717 0.950 . S
H692 C718 0.950 . S
H693 C720 0.950 . S
H694 C723 0.950 . S
H695 C724 0.950 . S
H696 C726 0.950 . S
H697 C727 0.950 . S
C698 H680 0.951 . S
C698 C699 1.366 . S
C698 C700 1.388 . S
C699 C698 1.366 . S
C699 C703 1.385 . S
C700 H681 0.951 . S
C700 C698 1.388 . S
C700 C701 1.366 . S
C701 C700 1.366 . S
C701 C702 1.414 . S
C701 C704 1.499 . S
C702 H682 0.950 . S
C702 C701 1.414 . S
C702 C703 1.374 . S
C703 H683 0.950 . S
C703 C699 1.385 . S
C703 C702 1.374 . S
C704 C701 1.499 . S
C704 C705 1.373 . S
C704 C706 1.389 . S
C705 H684 0.950 . S
C705 C704 1.373 . S
C705 C721 1.377 . S
C706 C704 1.389 . S
C706 C707 1.524 . S
C706 C720 1.377 . S
C707 C706 1.524 . S
C707 C708 1.397 . S
C707 C712 1.363 . S
C708 H685 0.950 . S
C708 C707 1.397 . S
C708 C709 1.334 . S
C709 H686 0.950 . S
C709 C708 1.334 . S
C709 C710 1.287 . S
C710 C709 1.287 . S
C710 C711 1.524 . S
C710 H729 0.913 . S
C711 H687 0.950 1_565 S
C711 C710 1.524 . S
C711 C712 1.415 . S
C712 H688 0.950 . S
C712 C707 1.363 . S
C712 C711 1.415 . S
C713 H689 0.951 . S
C713 C714 1.366 . S
C713 C715 1.388 . S
C714 C713 1.366 . S
C714 C718 1.385 . S
C715 H690 0.951 . S
C715 C713 1.388 . S
C715 C716 1.366 . S
C716 C715 1.366 . S
C716 C717 1.414 . S
C716 C719 1.499 . S
C717 H691 0.950 . S
C717 C716 1.414 . S
C717 C718 1.374 . S
C718 H692 0.950 . S
C718 C714 1.385 . S
C718 C717 1.374 . S
C719 C716 1.499 . S
C719 C720 1.373 . S
C719 C721 1.389 . S
C720 H693 0.950 . S
C720 C706 1.377 . S
C720 C719 1.373 . S
C721 C705 1.377 . S
C721 C719 1.389 . S
C721 C722 1.524 . S
C722 C721 1.524 . S
C722 C723 1.397 . S
C722 C727 1.363 . S
C723 H694 0.950 . S
C723 C722 1.397 . S
C723 C724 1.334 . S
C724 H695 0.950 . S
C724 C723 1.334 . S
C724 C725 1.287 . S
C725 C724 1.287 . S
C725 C726 1.524 . S
C725 H728 0.999 . S
C726 H696 0.950 . S
C726 C725 1.524 . S
C726 C727 1.415 . S
C727 H697 0.950 . S
C727 C722 1.363 . S
C727 C726 1.415 . S
H728 C725 0.999 . S
H729 C710 0.913 . S
H730 C748 0.951 . S
H731 C750 0.951 . S
H732 C752 0.950 . S
H733 C753 0.950 . S
H734 C755 0.950 . S
H735 C758 0.950 . S
H736 C759 0.950 . S
H737 C761 0.950 . S
H738 C762 0.950 . S
H739 C763 0.951 . S
H740 C765 0.951 . S
H741 C767 0.950 . S
H742 C768 0.950 . S
H743 C770 0.950 . S
H744 C773 0.950 . S
H745 C774 0.950 . S
H746 C776 0.950 . S
H747 C777 0.950 . S
C748 H730 0.951 . S
C748 C749 1.366 . S
C748 C750 1.388 . S
C749 C748 1.366 . S
C749 C753 1.385 . S
C750 H731 0.951 . S
C750 C748 1.388 . S
C750 C751 1.366 . S
C751 C750 1.366 . S
C751 C752 1.414 . S
C751 C754 1.499 . S
C752 H732 0.950 . S
C752 C751 1.414 . S
C752 C753 1.374 . S
C753 H733 0.950 . S
C753 C749 1.385 . S
C753 C752 1.374 . S
C754 C751 1.499 . S
C754 C755 1.373 . S
C754 C756 1.389 . S
C755 H734 0.950 . S
C755 C754 1.373 . S
C755 C771 1.377 . S
C756 C754 1.389 . S
C756 C757 1.524 . S
C756 C770 1.377 . S
C757 C756 1.524 . S
C757 C758 1.397 . S
C757 C762 1.363 . S
C758 H735 0.950 . S
C758 C757 1.397 . S
C758 C759 1.334 . S
C759 H736 0.950 . S
C759 C758 1.334 . S
C759 C760 1.287 . S
C760 C759 1.287 . S
C760 C761 1.524 . S
C760 H779 0.913 . S
C761 H737 0.950 . S
C761 C760 1.524 . S
C761 C762 1.415 . S
C762 H738 0.950 . S
C762 C757 1.363 . S
C762 C761 1.415 . S
C763 H739 0.951 . S
C763 C764 1.366 . S
C763 C765 1.388 . S
C764 C763 1.366 . S
C764 C768 1.385 . S
C765 H740 0.951 . S
C765 C763 1.388 . S
C765 C766 1.366 . S
C766 C765 1.366 . S
C766 C767 1.414 . S
C766 C769 1.499 . S
C767 H741 0.950 . S
C767 C766 1.414 . S
C767 C768 1.374 . S
C768 H742 0.950 . S
C768 C764 1.385 . S
C768 C767 1.374 . S
C769 C766 1.499 . S
C769 C770 1.373 . S
C769 C771 1.389 . S
C770 H743 0.950 . S
C770 C756 1.377 . S
C770 C769 1.373 . S
C771 C755 1.377 . S
C771 C769 1.389 . S
C771 C772 1.524 . S
C772 C771 1.524 . S
C772 C773 1.397 . S
C772 C777 1.363 . S
C773 H744 0.950 . S
C773 C772 1.397 . S
C773 C774 1.334 . S
C774 H745 0.950 . S
C774 C773 1.334 . S
C774 C775 1.287 . S
C775 C774 1.287 . S
C775 C776 1.524 . S
C775 H778 0.999 . S
C776 H746 0.950 . S
C776 C775 1.524 . S
C776 C777 1.415 . S
C777 H747 0.950 . S
C777 C772 1.363 . S
C777 C776 1.415 . S
H778 C775 0.999 . S
H779 C760 0.913 . S
H780 C798 0.951 . S
H781 C800 0.951 . S
H782 C802 0.950 . S
H783 C803 0.950 . S
H784 C805 0.950 . S
H785 C808 0.950 . S
H786 C809 0.950 . S
H787 C811 0.950 . S
H788 C812 0.950 . S
H789 C813 0.951 . S
H790 C815 0.951 . S
H791 C817 0.950 . S
H792 C818 0.950 . S
H793 C820 0.950 . S
H794 C823 0.950 . S
H795 C824 0.950 . S
H796 C826 0.950 . S
H797 C827 0.950 . S
C798 H780 0.951 . S
C798 C799 1.366 . S
C798 C800 1.388 . S
C799 C798 1.366 . S
C799 C803 1.385 . S
C800 H781 0.951 . S
C800 C798 1.388 . S
C800 C801 1.366 . S
C801 C800 1.366 . S
C801 C802 1.414 . S
C801 C804 1.499 . S
C802 H782 0.950 . S
C802 C801 1.414 . S
C802 C803 1.374 . S
C803 H783 0.950 . S
C803 C799 1.385 . S
C803 C802 1.374 . S
C804 C801 1.499 . S
C804 C805 1.373 . S
C804 C806 1.389 . S
C805 H784 0.950 . S
C805 C804 1.373 . S
C805 C821 1.377 . S
C806 C804 1.389 . S
C806 C807 1.524 . S
C806 C820 1.377 . S
C807 C806 1.524 . S
C807 C808 1.397 . S
C807 C812 1.363 . S
C808 H785 0.950 . S
C808 C807 1.397 . S
C808 C809 1.334 . S
C809 H786 0.950 . S
C809 C808 1.334 . S
C809 C810 1.287 . S
C810 C809 1.287 . S
C810 C811 1.524 . S
C810 H829 0.913 . S
C811 H787 0.950 . S
C811 C810 1.524 . S
C811 C812 1.415 . S
C812 H788 0.950 . S
C812 C807 1.363 . S
C812 C811 1.415 . S
C813 H789 0.951 . S
C813 C814 1.366 . S
C813 C815 1.388 . S
C814 C813 1.366 . S
C814 C818 1.385 . S
C815 H790 0.951 . S
C815 C813 1.388 . S
C815 C816 1.366 . S
C816 C815 1.366 . S
C816 C817 1.414 . S
C816 C819 1.499 . S
C817 H791 0.950 . S
C817 C816 1.414 . S
C817 C818 1.374 . S
C818 H792 0.950 . S
C818 C814 1.385 . S
C818 C817 1.374 . S
C819 C816 1.499 . S
C819 C820 1.373 . S
C819 C821 1.389 . S
C820 H793 0.950 . S
C820 C806 1.377 . S
C820 C819 1.373 . S
C821 C805 1.377 . S
C821 C819 1.389 . S
C821 C822 1.524 . S
C822 C821 1.524 . S
C822 C823 1.397 . S
C822 C827 1.363 . S
C823 H794 0.950 . S
C823 C822 1.397 . S
C823 C824 1.334 . S
C824 H795 0.950 . S
C824 C823 1.334 . S
C824 C825 1.287 . S
C825 C824 1.287 . S
C825 C826 1.524 . S
C825 H828 0.999 1_455 S
C826 H796 0.950 . S
C826 C825 1.524 . S
C826 C827 1.415 . S
C827 H797 0.950 . S
C827 C822 1.363 . S
C827 C826 1.415 . S
H828 C825 0.999 1_655 S
H829 C810 0.913 . S
H830 C848 0.951 . S
H831 C850 0.951 . S
H832 C852 0.950 . S
H833 C853 0.950 . S
H834 C855 0.950 1_655 S
H835 C858 0.950 . S
H836 C859 0.950 . S
H837 C861 0.950 . S
H838 C862 0.950 . S
H839 C863 0.951 . S
H840 C865 0.951 . S
H841 C867 0.950 . S
H842 C868 0.950 . S
H843 C870 0.950 . S
H844 C873 0.950 . S
H845 C874 0.950 1_545 S
H846 C876 0.950 . S
H847 C877 0.950 . S
C848 H830 0.951 . S
C848 C849 1.366 . S
C848 C850 1.388 . S
C849 C848 1.366 . S
C849 C853 1.385 . S
C850 H831 0.951 . S
C850 C848 1.388 . S
C850 C851 1.366 . S
C851 C850 1.366 . S
C851 C852 1.414 . S
C851 C854 1.499 . S
C852 H832 0.950 . S
C852 C851 1.414 . S
C852 C853 1.374 . S
C853 H833 0.950 . S
C853 C849 1.385 . S
C853 C852 1.374 . S
C854 C851 1.499 . S
C854 C855 1.373 1_655 S
C854 C856 1.389 1_655 S
C855 H834 0.950 1_455 S
C855 C854 1.373 1_455 S
C855 C871 1.377 . S
C856 C854 1.389 1_455 S
C856 C857 1.524 1_455 S
C856 C870 1.377 . S
C857 C856 1.524 1_655 S
C857 C858 1.397 . S
C857 C862 1.363 1_655 S
C858 H835 0.950 . S
C858 C857 1.397 . S
C858 C859 1.334 . S
C859 H836 0.950 . S
C859 C858 1.334 . S
C859 C860 1.287 . S
C860 C859 1.287 . S
C860 C861 1.524 . S
C860 H879 0.913 . S
C861 H837 0.950 . S
C861 C860 1.524 . S
C861 C862 1.415 1_655 S
C862 H838 0.950 . S
C862 C857 1.363 1_455 S
C862 C861 1.415 1_455 S
C863 H839 0.951 . S
C863 C864 1.366 . S
C863 C865 1.388 . S
C864 C863 1.366 . S
C864 C868 1.385 . S
C865 H840 0.951 . S
C865 C863 1.388 . S
C865 C866 1.366 . S
C866 C865 1.366 . S
C866 C867 1.414 . S
C866 C869 1.499 . S
C867 H841 0.950 . S
C867 C866 1.414 . S
C867 C868 1.374 . S
C868 H842 0.950 . S
C868 C864 1.385 . S
C868 C867 1.374 . S
C869 C866 1.499 . S
C869 C870 1.373 . S
C869 C871 1.389 . S
C870 H843 0.950 . S
C870 C856 1.377 . S
C870 C869 1.373 . S
C871 C855 1.377 . S
C871 C869 1.389 . S
C871 C872 1.524 . S
C872 C871 1.524 . S
C872 C873 1.397 . S
C872 C877 1.363 . S
C873 H844 0.950 . S
C873 C872 1.397 . S
C873 C874 1.334 . S
C874 H845 0.950 1_565 S
C874 C873 1.334 . S
C874 C875 1.287 . S
C875 C874 1.287 . S
C875 C876 1.524 . S
C875 H878 0.999 1_565 S
C876 H846 0.950 . S
C876 C875 1.524 . S
C876 C877 1.415 . S
C877 H847 0.950 . S
C877 C872 1.363 . S
C877 C876 1.415 . S
H878 C875 0.999 1_545 S
H879 C860 0.913 . S
H880 C898 0.951 . S
H881 C900 0.951 . S
H882 C902 0.950 . S
H883 C903 0.950 . S
H884 C905 0.950 1_545 S
H885 C908 0.950 . S
H886 C909 0.950 . S
H887 C911 0.950 . S
H888 C912 0.950 1_565 S
H889 C913 0.951 . S
H890 C915 0.951 . S
H891 C917 0.950 . S
H892 C918 0.950 . S
H893 C920 0.950 . S
H894 C923 0.950 . S
H895 C924 0.950 . S
H896 C926 0.950 . S
H897 C927 0.950 . S
C898 H880 0.951 . S
C898 C899 1.366 . S
C898 C900 1.388 . S
C899 C898 1.366 . S
C899 C903 1.385 . S
C900 H881 0.951 . S
C900 C898 1.388 . S
C900 C901 1.366 . S
C901 C900 1.366 . S
C901 C902 1.414 . S
C901 C904 1.499 . S
C902 H882 0.950 . S
C902 C901 1.414 . S
C902 C903 1.374 . S
C903 H883 0.950 . S
C903 C899 1.385 . S
C903 C902 1.374 . S
C904 C901 1.499 . S
C904 C905 1.373 1_545 S
C904 C906 1.389 1_545 S
C905 H884 0.950 1_565 S
C905 C904 1.373 1_565 S
C905 C921 1.377 . S
C906 C904 1.389 1_565 S
C906 C907 1.524 1_565 S
C906 C920 1.377 . S
C907 C906 1.524 1_545 S
C907 C908 1.397 . S
C907 C912 1.363 . S
C908 H885 0.950 . S
C908 C907 1.397 . S
C908 C909 1.334 . S
C909 H886 0.950 . S
C909 C908 1.334 . S
C909 C910 1.287 . S
C910 C909 1.287 . S
C910 C911 1.524 . S
C910 H929 0.913 . S
C911 H887 0.950 . S
C911 C910 1.524 . S
C911 C912 1.415 . S
C912 H888 0.950 1_545 S
C912 C907 1.363 . S
C912 C911 1.415 . S
C913 H889 0.951 . S
C913 C914 1.366 . S
C913 C915 1.388 . S
C914 C913 1.366 . S
C914 C918 1.385 . S
C915 H890 0.951 . S
C915 C913 1.388 . S
C915 C916 1.366 . S
C916 C915 1.366 . S
C916 C917 1.414 . S
C916 C919 1.499 . S
C917 H891 0.950 . S
C917 C916 1.414 . S
C917 C918 1.374 . S
C918 H892 0.950 . S
C918 C914 1.385 . S
C918 C917 1.374 . S
C919 C916 1.499 . S
C919 C920 1.373 . S
C919 C921 1.389 . S
C920 H893 0.950 . S
C920 C906 1.377 . S
C920 C919 1.373 . S
C921 C905 1.377 . S
C921 C919 1.389 . S
C921 C922 1.524 . S
C922 C921 1.524 . S
C922 C923 1.397 . S
C922 C927 1.363 . S
C923 H894 0.950 . S
C923 C922 1.397 . S
C923 C924 1.334 . S
C924 H895 0.950 . S
C924 C923 1.334 . S
C924 C925 1.287 . S
C925 C924 1.287 . S
C925 C926 1.524 . S
C925 H928 0.999 . S
C926 H896 0.950 . S
C926 C925 1.524 . S
C926 C927 1.415 . S
C927 H897 0.950 . S
C927 C922 1.363 . S
C927 C926 1.415 . S
H928 C925 0.999 . S
H929 C910 0.913 . S
H930 C948 0.951 . S
H931 C950 0.951 . S
H932 C952 0.950 . S
H933 C953 0.950 . S
H934 C955 0.950 . S
H935 C958 0.950 . S
H936 C959 0.950 . S
H937 C961 0.950 . S
H938 C962 0.950 . S
H939 C963 0.951 . S
H940 C965 0.951 . S
H941 C967 0.950 . S
H942 C968 0.950 . S
H943 C970 0.950 . S
H944 C973 0.950 . S
H945 C974 0.950 . S
H946 C976 0.950 . S
H947 C977 0.950 . S
C948 H930 0.951 . S
C948 C949 1.366 . S
C948 C950 1.388 . S
C949 C948 1.366 . S
C949 C953 1.385 . S
C950 H931 0.951 . S
C950 C948 1.388 . S
C950 C951 1.366 . S
C951 C950 1.366 . S
C951 C952 1.414 . S
C951 C954 1.499 . S
C952 H932 0.950 . S
C952 C951 1.414 . S
C952 C953 1.374 . S
C953 H933 0.950 . S
C953 C949 1.385 . S
C953 C952 1.374 . S
C954 C951 1.499 . S
C954 C955 1.373 . S
C954 C956 1.389 . S
C955 H934 0.950 . S
C955 C954 1.373 . S
C955 C971 1.377 . S
C956 C954 1.389 . S
C956 C957 1.524 . S
C956 C970 1.377 . S
C957 C956 1.524 . S
C957 C958 1.397 . S
C957 C962 1.363 . S
C958 H935 0.950 . S
C958 C957 1.397 . S
C958 C959 1.334 . S
C959 H936 0.950 . S
C959 C958 1.334 . S
C959 C960 1.287 . S
C960 C959 1.287 . S
C960 C961 1.524 . S
C960 H979 0.913 . S
C961 H937 0.950 . S
C961 C960 1.524 . S
C961 C962 1.415 . S
C962 H938 0.950 . S
C962 C957 1.363 . S
C962 C961 1.415 . S
C963 H939 0.951 . S
C963 C964 1.366 . S
C963 C965 1.388 . S
C964 C963 1.366 . S
C964 C968 1.385 . S
C965 H940 0.951 . S
C965 C963 1.388 . S
C965 C966 1.366 . S
C966 C965 1.366 . S
C966 C967 1.414 . S
C966 C969 1.499 . S
C967 H941 0.950 . S
C967 C966 1.414 . S
C967 C968 1.374 . S
C968 H942 0.950 . S
C968 C964 1.385 . S
C968 C967 1.374 . S
C969 C966 1.499 . S
C969 C970 1.373 . S
C969 C971 1.389 . S
C970 H943 0.950 . S
C970 C956 1.377 . S
C970 C969 1.373 . S
C971 C955 1.377 . S
C971 C969 1.389 . S
C971 C972 1.524 . S
C972 C971 1.524 . S
C972 C973 1.397 . S
C972 C977 1.363 . S
C973 H944 0.950 . S
C973 C972 1.397 . S
C973 C974 1.334 . S
C974 H945 0.950 . S
C974 C973 1.334 . S
C974 C975 1.287 . S
C975 C974 1.287 . S
C975 C976 1.524 . S
C975 H978 0.999 . S
C976 H946 0.950 . S
C976 C975 1.524 . S
C976 C977 1.415 . S
C977 H947 0.950 . S
C977 C972 1.363 . S
C977 C976 1.415 . S
H978 C975 0.999 . S
H979 C960 0.913 . S
H980 C998 0.951 . S
H981 C1000 0.951 . S
H982 C1002 0.950 . S
H983 C1003 0.950 . S
H984 C1005 0.950 1_455 S
H985 C1008 0.950 . S
H986 C1009 0.950 . S
H987 C1011 0.950 . S
H988 C1012 0.950 . S
H989 C1013 0.951 . S
H990 C1015 0.951 . S
H991 C1017 0.950 . S
H992 C1018 0.950 . S
H993 C1020 0.950 . S
H994 C1023 0.950 . S
H995 C1024 0.950 . S
H996 C1026 0.950 . S
H997 C1027 0.950 . S
C998 H980 0.951 . S
C998 C999 1.366 . S
C998 C1000 1.388 . S
C999 C998 1.366 . S
C999 C1003 1.385 . S
C1000 H981 0.951 . S
C1000 C998 1.388 . S
C1000 C1001 1.366 . S
C1001 C1000 1.366 . S
C1001 C1002 1.414 . S
C1001 C1004 1.499 . S
C1002 H982 0.950 . S
C1002 C1001 1.414 . S
C1002 C1003 1.374 . S
C1003 H983 0.950 . S
C1003 C999 1.385 . S
C1003 C1002 1.374 . S
C1004 C1001 1.499 . S
C1004 C1005 1.373 1_455 S
C1004 C1006 1.389 1_455 S
C1005 H984 0.950 1_655 S
C1005 C1004 1.373 1_655 S
C1005 C1021 1.377 . S
C1006 C1004 1.389 1_655 S
C1006 C1007 1.524 1_655 S
C1006 C1020 1.377 . S
C1007 C1006 1.524 1_455 S
C1007 C1008 1.397 . S
C1007 C1012 1.363 1_455 S
C1008 H985 0.950 . S
C1008 C1007 1.397 . S
C1008 C1009 1.334 . S
C1009 H986 0.950 . S
C1009 C1008 1.334 . S
C1009 C1010 1.287 . S
C1010 C1009 1.287 . S
C1010 C1011 1.524 . S
C1010 H1029 0.913 . S
C1011 H987 0.950 . S
C1011 C1010 1.524 . S
C1011 C1012 1.415 1_455 S
C1012 H988 0.950 . S
C1012 C1007 1.363 1_655 S
C1012 C1011 1.415 1_655 S
C1013 H989 0.951 . S
C1013 C1014 1.366 . S
C1013 C1015 1.388 . S
C1014 C1013 1.366 . S
C1014 C1018 1.385 . S
C1015 H990 0.951 . S
C1015 C1013 1.388 . S
C1015 C1016 1.366 . S
C1016 C1015 1.366 . S
C1016 C1017 1.414 . S
C1016 C1019 1.499 . S
C1017 H991 0.950 . S
C1017 C1016 1.414 . S
C1017 C1018 1.374 . S
C1018 H992 0.950 . S
C1018 C1014 1.385 . S
C1018 C1017 1.374 . S
C1019 C1016 1.499 . S
C1019 C1020 1.373 . S
C1019 C1021 1.389 . S
C1020 H993 0.950 . S
C1020 C1006 1.377 . S
C1020 C1019 1.373 . S
C1021 C1005 1.377 . S
C1021 C1019 1.389 . S
C1021 C1022 1.524 . S
C1022 C1021 1.524 . S
C1022 C1023 1.397 . S
C1022 C1027 1.363 . S
C1023 H994 0.950 . S
C1023 C1022 1.397 . S
C1023 C1024 1.334 . S
C1024 H995 0.950 . S
C1024 C1023 1.334 . S
C1024 C1025 1.287 . S
C1025 C1024 1.287 . S
C1025 C1026 1.524 . S
C1025 H1028 0.999 . S
C1026 H996 0.950 . S
C1026 C1025 1.524 . S
C1026 C1027 1.415 . S
C1027 H997 0.950 . S
C1027 C1022 1.363 . S
C1027 C1026 1.415 . S
H1028 C1025 0.999 . S
H1029 C1010 0.913 . S
H1030 C1048 0.951 . S
H1031 C1050 0.951 . S
H1032 C1052 0.950 . S
H1033 C1053 0.950 . S
H1034 C1055 0.950 . S
H1035 C1058 0.950 . S
H1036 C1059 0.950 . S
H1037 C1061 0.950 . S
H1038 C1062 0.950 . S
H1039 C1063 0.951 . S
H1040 C1065 0.951 . S
H1041 C1067 0.950 . S
H1042 C1068 0.950 . S
H1043 C1070 0.950 1_565 S
H1044 C1073 0.950 . S
H1045 C1074 0.950 . S
H1046 C1076 0.950 . S
H1047 C1077 0.950 1_545 S
C1048 H1030 0.951 . S
C1048 C1049 1.366 . S
C1048 C1050 1.388 . S
C1049 C1048 1.366 . S
C1049 C1053 1.385 . S
C1050 H1031 0.951 . S
C1050 C1048 1.388 . S
C1050 C1051 1.366 . S
C1051 C1050 1.366 . S
C1051 C1052 1.414 . S
C1051 C1054 1.499 . S
C1052 H1032 0.950 . S
C1052 C1051 1.414 . S
C1052 C1053 1.374 . S
C1053 H1033 0.950 . S
C1053 C1049 1.385 . S
C1053 C1052 1.374 . S
C1054 C1051 1.499 . S
C1054 C1055 1.373 . S
C1054 C1056 1.389 . S
C1055 H1034 0.950 . S
C1055 C1054 1.373 . S
C1055 C1071 1.377 . S
C1056 C1054 1.389 . S
C1056 C1057 1.524 . S
C1056 C1070 1.377 . S
C1057 C1056 1.524 . S
C1057 C1058 1.397 . S
C1057 C1062 1.363 . S
C1058 H1035 0.950 . S
C1058 C1057 1.397 . S
C1058 C1059 1.334 . S
C1059 H1036 0.950 . S
C1059 C1058 1.334 . S
C1059 C1060 1.287 . S
C1060 C1059 1.287 . S
C1060 C1061 1.524 . S
C1060 H1079 0.913 . S
C1061 H1037 0.950 . S
C1061 C1060 1.524 . S
C1061 C1062 1.415 . S
C1062 H1038 0.950 . S
C1062 C1057 1.363 . S
C1062 C1061 1.415 . S
C1063 H1039 0.951 . S
C1063 C1064 1.366 . S
C1063 C1065 1.388 . S
C1064 C1063 1.366 . S
C1064 C1068 1.385 . S
C1065 H1040 0.951 . S
C1065 C1063 1.388 . S
C1065 C1066 1.366 . S
C1066 C1065 1.366 . S
C1066 C1067 1.414 . S
C1066 C1069 1.499 . S
C1067 H1041 0.950 . S
C1067 C1066 1.414 . S
C1067 C1068 1.374 . S
C1068 H1042 0.950 . S
C1068 C1064 1.385 . S
C1068 C1067 1.374 . S
C1069 C1066 1.499 . S
C1069 C1070 1.373 1_565 S
C1069 C1071 1.389 1_565 S
C1070 H1043 0.950 1_545 S
C1070 C1056 1.377 . S
C1070 C1069 1.373 1_545 S
C1071 C1055 1.377 . S
C1071 C1069 1.389 1_545 S
C1071 C1072 1.524 1_545 S
C1072 C1071 1.524 1_565 S
C1072 C1073 1.397 . S
C1072 C1077 1.363 . S
C1073 H1044 0.950 . S
C1073 C1072 1.397 . S
C1073 C1074 1.334 . S
C1074 H1045 0.950 . S
C1074 C1073 1.334 . S
C1074 C1075 1.287 . S
C1075 C1074 1.287 . S
C1075 C1076 1.524 . S
C1075 H1078 0.999 . S
C1076 H1046 0.950 . S
C1076 C1075 1.524 . S
C1076 C1077 1.415 . S
C1077 H1047 0.950 1_565 S
C1077 C1072 1.363 . S
C1077 C1076 1.415 . S
H1078 C1075 0.999 . S
H1079 C1060 0.913 . S
C199 C121 2.017 . S
C214 C1 2.078 . S
C249 C160 2.147 . S
C264 C40 2.148 . S
C299 C61 2.201 . S
C314 C91 2.135 . S
C349 C10 2.175 . S
C364 C130 2.242 . S
C399 C151 2.108 . S
C414 C31 2.108 . S
C449 C70 2.054 . S
C464 C100 2.118 . S
C499 C27 1.128 . S
C514 N74 1.122 . S
C549 C46 1.126 . S
C564 N14 1.123 . S
C599 C87 1.127 . S
C614 N36 1.124 . S
C649 C106 1.130 . S
C664 N126 1.122 . S
C699 C136 1.127 . S
C714 N156 1.124 . S
C749 N96 1.125 . S
C764 C166 1.128 . S
C799 C16 0.568 . S
C814 N66 0.595 . S
C849 C57 0.569 . S
C864 N6 0.596 . S
C899 C76 0.567 . S
C914 N44 0.593 . S
C949 C117 0.567 . S
C964 N134 0.595 . S
C999 C147 0.568 . S
C1014 N164 0.594 . S
C1049 N104 0.592 . S
C1064 C177 0.568 . S
