# Generated by pormake.
# Topology ecf, (8)-cn, num edge types: 1
# Building blocks:
#     Node 0, Type 0, BuildingBlock: TAGTUT_clean_sbu_3, # of connection points: 8
#     Node 1, Type 0, BuildingBlock: TAGTUT_clean_sbu_3, # of connection points: 8
#     Node 2, Type 0, BuildingBlock: TAGTUT_clean_sbu_3, # of connection points: 8
#     Node 3, Type 0, BuildingBlock: TAGTUT_clean_sbu_3, # of connection points: 8
#     Node 4, Type 0, BuildingBlock: TAGTUT_clean_sbu_3, # of connection points: 8
#     Node 5, Type 0, BuildingBlock: TAGTUT_clean_sbu_3, # of connection points: 8
#     Edge 6, Type (0, 0), BuildingBlock: ZUJKAS_clean_linker_0, # of connection points: 2
#     Edge 7, Type (0, 0), BuildingBlock: ZUJKAS_clean_linker_0, # of connection points: 2
#     Edge 8, Type (0, 0), BuildingBlock: ZUJKAS_clean_linker_0, # of connection points: 2
#     Edge 9, Type (0, 0), BuildingBlock: ZUJKAS_clean_linker_0, # of connection points: 2
#     Edge 10, Type (0, 0), BuildingBlock: ZUJKAS_clean_linker_0, # of connection points: 2
#     Edge 11, Type (0, 0), BuildingBlock: ZUJKAS_clean_linker_0, # of connection points: 2
#     Edge 12, Type (0, 0), BuildingBlock: ZUJKAS_clean_linker_0, # of connection points: 2
#     Edge 13, Type (0, 0), BuildingBlock: ZUJKAS_clean_linker_0, # of connection points: 2
#     Edge 14, Type (0, 0), BuildingBlock: ZUJKAS_clean_linker_0, # of connection points: 2
#     Edge 15, Type (0, 0), BuildingBlock: ZUJKAS_clean_linker_0, # of connection points: 2
#     Edge 16, Type (0, 0), BuildingBlock: ZUJKAS_clean_linker_0, # of connection points: 2
#     Edge 17, Type (0, 0), BuildingBlock: ZUJKAS_clean_linker_0, # of connection points: 2
#     Edge 18, Type (0, 0), BuildingBlock: ZUJKAS_clean_linker_0, # of connection points: 2
#     Edge 19, Type (0, 0), BuildingBlock: ZUJKAS_clean_linker_0, # of connection points: 2
#     Edge 20, Type (0, 0), BuildingBlock: ZUJKAS_clean_linker_0, # of connection points: 2
#     Edge 21, Type (0, 0), BuildingBlock: ZUJKAS_clean_linker_0, # of connection points: 2
#     Edge 22, Type (0, 0), BuildingBlock: ZUJKAS_clean_linker_0, # of connection points: 2
#     Edge 23, Type (0, 0), BuildingBlock: ZUJKAS_clean_linker_0, # of connection points: 2
#     Edge 24, Type (0, 0), BuildingBlock: ZUJKAS_clean_linker_0, # of connection points: 2
#     Edge 25, Type (0, 0), BuildingBlock: ZUJKAS_clean_linker_0, # of connection points: 2
#     Edge 26, Type (0, 0), BuildingBlock: ZUJKAS_clean_linker_0, # of connection points: 2
#     Edge 27, Type (0, 0), BuildingBlock: ZUJKAS_clean_linker_0, # of connection points: 2
#     Edge 28, Type (0, 0), BuildingBlock: ZUJKAS_clean_linker_0, # of connection points: 2
#     Edge 29, Type (0, 0), BuildingBlock: ZUJKAS_clean_linker_0, # of connection points: 2
# Relax obj value: 0.231
# Max RMSD: 0.186
# Mean RMSD: 0.186
data_MOF--net-ecf--node1-TAGTUT_clean_sbu_3--edge1-ZUJKAS_clean_linker_0
_symmetry_space_group_name_H-M    P1
_symmetry_Int_Tables_number       1
_symmetry_cell_setting            triclinic
loop_
_symmetry_equiv_pos_as_xyz
'x, y, z'
_cell_length_a     41.823739
_cell_length_b     41.905252
_cell_length_c     34.458647
_cell_angle_alpha  90.056262
_cell_angle_beta   89.968285
_cell_angle_gamma 120.04925
loop_
_atom_site_label
_atom_site_type_symbol
_atom_site_fract_x
_atom_site_fract_y
_atom_site_fract_z
_atom_type_partial_charge
C0 C 0.17202 0.33009 0.19212 0.0
C1 C 0.07935 0.25616 0.3035 0.0
C2 C 0.17583 0.31923 0.37679 0.0
Mg3 Mg 0.26532 0.37482 0.19762 0.0
Mg4 Mg 0.31369 0.3541 0.25995 0.0
O5 O 0.27284 0.36025 0.25089 0.0
Mg6 Mg 0.22102 0.32495 0.26423 0.0
O7 O 0.16764 0.29305 0.27654 0.0
Mg8 Mg 0.15748 0.33489 0.28579 0.0
Mg9 Mg 0.15411 0.25841 0.3166 0.0
C10 C 0.27223 0.31782 0.33927 0.0
O11 O 0.22278 0.27336 0.25051 0.0
O12 O 0.32715 0.42196 0.20155 0.0
O13 O 0.18314 0.23138 0.29347 0.0
O14 O 0.28149 0.33388 0.17044 0.0
O15 O 0.35638 0.40955 0.24876 0.0
O16 O 0.31133 0.31914 0.21442 0.0
O17 O 0.2173 0.37633 0.27749 0.0
O18 O 0.24832 0.41214 0.22747 0.0
C19 C 0.22838 0.40597 0.25775 0.0
C20 C 0.35565 0.43123 0.22305 0.0
O21 O 0.2423 0.31683 0.32728 0.0
O22 O 0.09761 0.2902 0.29386 0.0
O23 O 0.30114 0.33027 0.31783 0.0
O24 O 0.16761 0.33636 0.3516 0.0
O25 O 0.0951 0.23769 0.31301 0.0
O26 O 0.17511 0.2892 0.36885 0.0
O27 O 0.20161 0.32854 0.2003 0.0
O28 O 0.15228 0.33246 0.21938 0.0
C29 C 0.29759 0.31599 0.18071 0.0
C30 C 0.20772 0.24157 0.26661 0.0
C31 C 0.82365 0.22518 0.75849 0.0
C32 C 0.92215 0.35668 0.73295 0.0
C33 C 0.98537 0.30695 0.68713 0.0
Mg34 Mg 0.82719 0.15429 0.7778 0.0
Mg35 Mg 0.90227 0.14815 0.79707 0.0
O36 O 0.87942 0.16714 0.76531 0.0
Mg37 Mg 0.8988 0.22072 0.75977 0.0
O38 O 0.91266 0.27258 0.75274 0.0
Mg39 Mg 0.89241 0.26921 0.69936 0.0
Mg40 Mg 0.95723 0.31399 0.76689 0.0
C41 C 0.97064 0.20949 0.74998 0.0
O42 O 0.92706 0.23695 0.82458 0.0
O43 O 0.8135 0.09456 0.77587 0.0
O44 O 0.96751 0.298 0.82298 0.0
O45 O 0.83932 0.15881 0.8434 0.0
O46 O 0.86506 0.09099 0.78258 0.0
O47 O 0.89249 0.15969 0.85469 0.0
O48 O 0.87573 0.20585 0.69482 0.0
O49 O 0.82228 0.15556 0.71198 0.0
C50 C 0.84397 0.17726 0.68558 0.0
C51 C 0.83026 0.07607 0.77613 0.0
O52 O 0.95313 0.22625 0.74117 0.0
O53 O 0.90477 0.32982 0.709 0.0
O54 O 0.9575 0.18114 0.77234 0.0
O55 O 0.95214 0.29036 0.67375 0.0
O56 O 0.94322 0.356 0.75941 0.0
O57 O 0.99266 0.31745 0.72227 0.0
O58 O 0.84307 0.21391 0.77644 0.0
O59 O 0.83691 0.24723 0.72953 0.0
C60 C 0.86483 0.16205 0.86638 0.0
C61 C 0.95303 0.2669 0.84054 0.0
C62 C 0.65992 0.83973 0.18693 0.0
C63 C 0.73737 0.81459 0.28599 0.0
C64 C 0.68264 0.8497 0.37007 0.0
Mg65 Mg 0.61924 0.89041 0.19936 0.0
Mg66 Mg 0.64234 0.95715 0.26482 0.0
O67 O 0.63547 0.91048 0.25328 0.0
Mg68 Mg 0.67078 0.89313 0.26284 0.0
O69 O 0.70194 0.86989 0.27004 0.0
Mg70 Mg 0.65956 0.81784 0.27864 0.0
Mg71 Mg 0.74031 0.88844 0.30623 0.0
C72 C 0.68149 0.9505 0.34117 0.0
O73 O 0.7227 0.94694 0.24928 0.0
O74 O 0.57299 0.90613 0.2068 0.0
O75 O 0.76764 0.94474 0.28369 0.0
O76 O 0.66062 0.94812 0.17339 0.0
O77 O 0.58702 0.94609 0.25609 0.0
O78 O 0.6766 0.99079 0.21983 0.0
O79 O 0.61903 0.83791 0.27603 0.0
O80 O 0.58195 0.83544 0.22822 0.0
C81 C 0.58864 0.82043 0.25703 0.0
C82 C 0.56466 0.92501 0.22993 0.0
O83 O 0.68201 0.92165 0.3278 0.0
O84 O 0.70274 0.80026 0.27972 0.0
O85 O 0.66815 0.96695 0.32124 0.0
O86 O 0.66272 0.82521 0.34499 0.0
O87 O 0.75795 0.8484 0.29613 0.0
O88 O 0.7131 0.87827 0.36106 0.0
O89 O 0.66431 0.87153 0.19762 0.0
O90 O 0.65738 0.81611 0.21226 0.0
C91 C 0.67933 0.98157 0.18535 0.0
C92 C 0.75606 0.96151 0.26146 0.0
C93 C 0.7666 0.59057 0.75646 0.0
C94 C 0.63599 0.56394 0.73461 0.0
C95 C 0.68974 0.67707 0.68925 0.0
Mg96 Mg 0.8395 0.66203 0.77787 0.0
Mg97 Mg 0.84835 0.74167 0.80694 0.0
O98 O 0.82917 0.7039 0.76974 0.0
Mg99 Mg 0.77474 0.67189 0.76322 0.0
O100 O 0.72194 0.63604 0.75497 0.0
Mg101 Mg 0.72425 0.61938 0.70093 0.0
Mg102 Mg 0.6818 0.64172 0.76893 0.0
C103 C 0.78924 0.75599 0.76418 0.0
O104 O 0.75887 0.68245 0.82882 0.0
O105 O 0.90039 0.70636 0.77923 0.0
O106 O 0.69892 0.66705 0.82557 0.0
O107 O 0.83454 0.66406 0.84414 0.0
O108 O 0.90634 0.76097 0.79582 0.0
O109 O 0.83325 0.71474 0.86179 0.0
O110 O 0.78848 0.66541 0.69736 0.0
O111 O 0.83838 0.66031 0.71143 0.0
C112 C 0.8165 0.66199 0.68639 0.0
C113 C 0.92025 0.74103 0.7855 0.0
O114 O 0.77202 0.72324 0.75023 0.0
O115 O 0.66256 0.5723 0.71046 0.0
O116 O 0.81704 0.76752 0.7873 0.0
O117 O 0.70528 0.65935 0.6764 0.0
O118 O 0.63792 0.58631 0.76104 0.0
O119 O 0.67946 0.67482 0.7244 0.0
O120 O 0.77914 0.62085 0.77544 0.0
O121 O 0.74399 0.58316 0.72833 0.0
C122 C 0.83052 0.68382 0.86982 0.0
C123 C 0.72962 0.68086 0.84405 0.0
C124 C 0.15005 0.8188 0.18416 0.0
C125 C 0.17141 0.92347 0.2752 0.0
C126 C 0.14567 0.84054 0.36712 0.0
Mg127 Mg 0.10411 0.7277 0.20188 0.0
Mg128 Mg 0.03992 0.68489 0.27056 0.0
O129 O 0.08469 0.72586 0.25564 0.0
Mg130 Mg 0.09984 0.7782 0.26254 0.0
O131 O 0.12076 0.83224 0.26749 0.0
Mg132 Mg 0.17401 0.84526 0.27466 0.0
Mg133 Mg 0.10186 0.85222 0.30321 0.0
C134 C 0.04682 0.7339 0.34418 0.0
O135 O 0.04408 0.77297 0.2495 0.0
O136 O 0.09236 0.66765 0.21344 0.0
O137 O 0.04471 0.81889 0.28453 0.0
O138 O 0.04473 0.70501 0.17726 0.0
O139 O 0.0547 0.64315 0.26481 0.0
O140 O 0.00341 0.67848 0.22516 0.0
O141 O 0.157 0.78552 0.27529 0.0
O142 O 0.16062 0.75028 0.22911 0.0
C143 C 0.17545 0.77345 0.25679 0.0
C144 C 0.07548 0.64167 0.23844 0.0
O145 O 0.07398 0.76329 0.32853 0.0
O146 O 0.18802 0.90497 0.27193 0.0
O147 O 0.0308 0.70287 0.32633 0.0
O148 O 0.1687 0.84356 0.34096 0.0
O149 O 0.13762 0.90885 0.28612 0.0
O150 O 0.11657 0.84182 0.35925 0.0
O151 O 0.11916 0.7907 0.19614 0.0
O152 O 0.17371 0.84162 0.20848 0.0
C153 C 0.01132 0.68791 0.18978 0.0
C154 C 0.02821 0.79021 0.26267 0.0
C155 C 0.39478 0.17771 0.7615 0.0
C156 C 0.43562 0.08196 0.74809 0.0
C157 C 0.32941 0.01719 0.68899 0.0
Mg158 Mg 0.31674 0.17111 0.76575 0.0
Mg159 Mg 0.23534 0.09478 0.77959 0.0
O160 O 0.28101 0.11735 0.75459 0.0
Mg161 Mg 0.31713 0.09971 0.75727 0.0
O162 O 0.35752 0.08816 0.75735 0.0
Mg163 Mg 0.37946 0.10933 0.70528 0.0
Mg164 Mg 0.35407 0.04356 0.77225 0.0
C165 C 0.23598 0.02575 0.74106 0.0
O166 O 0.30012 0.07181 0.82259 0.0
O167 O 0.26983 0.18178 0.75138 0.0
O168 O 0.32215 0.0324 0.82509 0.0
O169 O 0.30137 0.16163 0.83019 0.0
O170 O 0.21543 0.12909 0.75474 0.0
O171 O 0.25046 0.10682 0.83946 0.0
O172 O 0.33098 0.12168 0.69208 0.0
O173 O 0.33062 0.17459 0.7019 0.0
C174 C 0.33406 0.15232 0.67915 0.0
C175 C 0.23486 0.16344 0.74635 0.0
O176 O 0.27126 0.04292 0.73754 0.0
O177 O 0.42793 0.09945 0.72252 0.0
O178 O 0.21822 0.04 0.75704 0.0
O179 O 0.34678 0.05088 0.67761 0.0
O180 O 0.41146 0.05961 0.77215 0.0
O181 O 0.32802 0.00833 0.72454 0.0
O182 O 0.36218 0.15777 0.77567 0.0
O183 O 0.40751 0.16462 0.73609 0.0
C184 C 0.27789 0.13637 0.85256 0.0
C185 C 0.30359 0.04613 0.84008 0.0
H186 H 0.24552 0.46948 0.21977 0.0
H187 H 0.21313 0.50402 0.22248 0.0
H188 H 0.1422 0.43225 0.31269 0.0
H189 H 0.17498 0.39745 0.31072 0.0
H190 H 0.13396 0.46817 0.20779 0.0
H191 H 0.17609 0.53992 0.35072 0.0
H192 H 0.20299 0.52306 0.32634 0.0
H193 H 0.16024 0.49127 0.34931 0.0
C194 C 0.22339 0.46115 0.24067 0.0
C195 C 0.21239 0.43008 0.2645 0.0
C196 C 0.20488 0.48098 0.24208 0.0
C197 C 0.17517 0.47049 0.26752 0.0
C198 C 0.16519 0.44078 0.29289 0.0
H199 H 0.04727 0.58303 0.28847 0.0
H200 H 0.06601 0.53667 0.29522 0.0
C201 C 0.18384 0.42082 0.29157 0.0
C202 C 0.15351 0.48949 0.26514 0.0
H203 H 0.13755 0.55216 0.31137 0.0
C204 C 0.1344 0.48628 0.23057 0.0
C205 C 0.15396 0.51275 0.29505 0.0
C206 C 0.17451 0.5173 0.33247 0.0
C207 C 0.11655 0.50663 0.22461 0.0
C208 C 0.1185 0.53129 0.25374 0.0
C209 C 0.13626 0.5333 0.28902 0.0
C210 C 0.10449 0.55703 0.24726 0.0
C211 C 0.09607 0.50179 0.18705 0.0
C212 C 0.11966 0.58359 0.21774 0.0
C213 C 0.10901 0.61012 0.21369 0.0
C214 C 0.08318 0.61078 0.23934 0.0
C215 C 0.06722 0.58339 0.26817 0.0
C216 C 0.07793 0.55688 0.27218 0.0
H217 H 0.08752 0.47458 0.17356 0.0
H218 H 0.07115 0.50431 0.19164 0.0
H219 H 0.11451 0.52348 0.16629 0.0
H220 H 0.14072 0.5846 0.19863 0.0
H221 H 0.12201 0.63086 0.19131 0.0
H222 H 0.46378 0.0531 0.80043 0.0
H223 H 0.52832 0.06943 0.80865 0.0
H224 H 0.55947 0.14488 0.71239 0.0
H225 H 0.49515 0.12858 0.70359 0.0
H226 H 0.59189 0.0993 0.71165 0.0
H227 H 0.60889 0.16867 0.85436 0.0
H228 H 0.57132 0.12203 0.85023 0.0
H229 H 0.57055 0.15783 0.82243 0.0
C230 C 0.48429 0.07302 0.78082 0.0
C231 C 0.47422 0.08969 0.75146 0.0
C232 C 0.52119 0.08245 0.78575 0.0
C233 C 0.54868 0.10877 0.76153 0.0
C234 C 0.53864 0.12461 0.73151 0.0
H235 H 0.77541 0.24178 0.72368 0.0
H236 H 0.7085 0.20911 0.72902 0.0
C237 C 0.50181 0.11525 0.72654 0.0
C238 C 0.58811 0.12042 0.7674 0.0
H239 H 0.66146 0.1701 0.82784 0.0
C240 C 0.607 0.11435 0.73727 0.0
C241 C 0.60768 0.1399 0.80098 0.0
C242 C 0.58879 0.14782 0.83383 0.0
C243 C 0.64522 0.12837 0.73922 0.0
C244 C 0.66503 0.14929 0.77192 0.0
C245 C 0.64601 0.15392 0.80291 0.0
C246 C 0.70582 0.17026 0.77189 0.0
C247 C 0.66445 0.12174 0.70573 0.0
C248 C 0.72651 0.15995 0.79542 0.0
C249 C 0.76516 0.17867 0.79249 0.0
C250 C 0.78345 0.20794 0.76601 0.0
C251 C 0.7624 0.21914 0.74406 0.0
C252 C 0.72407 0.20047 0.74696 0.0
H253 H 0.64477 0.09813 0.6875 0.0
H254 H 0.67772 0.14671 0.68717 0.0
H255 H 0.68637 0.11635 0.71636 0.0
H256 H 0.71275 0.13683 0.81512 0.0
H257 H 0.78049 0.16958 0.81013 0.0
H258 H 0.41972 0.46235 0.26553 0.0
H259 H 0.46288 0.52811 0.27495 0.0
H260 H 0.40402 0.55418 0.18979 0.0
H261 H 0.36049 0.48859 0.18022 0.0
H262 H 0.50878 0.58905 0.22251 0.0
H263 H 0.39652 0.60206 0.29336 0.0
H264 H 0.39353 0.55808 0.28505 0.0
H265 H 0.38539 0.58145 0.24593 0.0
C266 C 0.41629 0.48197 0.24818 0.0
C267 C 0.38621 0.47009 0.22251 0.0
C268 C 0.44101 0.51956 0.25369 0.0
C269 C 0.43605 0.54587 0.23372 0.0
C270 C 0.40783 0.53418 0.20599 0.0
H271 H 0.5235 0.7761 0.22024 0.0
H272 H 0.48799 0.70917 0.22003 0.0
C273 C 0.38311 0.49663 0.2004 0.0
C274 C 0.45867 0.58542 0.24369 0.0
H275 H 0.45216 0.65778 0.27996 0.0
C276 C 0.4966 0.60411 0.23542 0.0
C277 C 0.44263 0.60473 0.26096 0.0
C278 C 0.40235 0.58557 0.27222 0.0
C279 C 0.51863 0.64218 0.24218 0.0
C280 C 0.50227 0.66171 0.25826 0.0
C281 C 0.46459 0.64269 0.26772 0.0
C282 C 0.52276 0.70239 0.26172 0.0
C283 C 0.55878 0.66155 0.23046 0.0
C284 C 0.55338 0.72088 0.28643 0.0
C285 C 0.5739 0.7595 0.2868 0.0
C286 C 0.5642 0.78011 0.26219 0.0
C287 C 0.5322 0.76128 0.23922 0.0
C288 C 0.51177 0.72291 0.23901 0.0
H289 H 0.56557 0.64364 0.21261 0.0
H290 H 0.56605 0.68695 0.21377 0.0
H291 H 0.57627 0.66979 0.2569 0.0
H292 H 0.56176 0.70546 0.30489 0.0
H293 H 0.59786 0.77301 0.30544 0.0
H294 H 0.95369 0.41849 0.77866 0.0
H295 H 0.93443 0.46445 0.78542 0.0
H296 H 0.85341 0.41063 0.69518 0.0
H297 H 0.87258 0.36461 0.68784 0.0
H298 H 0.89345 0.48957 0.69132 0.0
H299 H 0.83509 0.43726 0.83817 0.0
H300 H 0.88271 0.45036 0.83114 0.0
H301 H 0.84729 0.41156 0.80519 0.0
C302 C 0.93208 0.4166 0.75985 0.0
C303 C 0.91439 0.38754 0.73297 0.0
C304 C 0.921 0.44282 0.76395 0.0
C305 C 0.892 0.4404 0.74139 0.0
C306 C 0.87569 0.41274 0.71307 0.0
H307 H 0.75034 0.52846 0.71581 0.0
H308 H 0.784 0.49513 0.71537 0.0
C309 C 0.88674 0.3865 0.70889 0.0
C310 C 0.87746 0.46564 0.74826 0.0
H311 H 0.82901 0.48635 0.81357 0.0
C312 C 0.87963 0.48911 0.71815 0.0
C313 C 0.85961 0.46503 0.78341 0.0
C314 C 0.85568 0.43956 0.81632 0.0
C315 C 0.86373 0.51151 0.72195 0.0
C316 C 0.84469 0.50986 0.7565 0.0
C317 C 0.84368 0.48745 0.78718 0.0
C318 C 0.82296 0.52873 0.7597 0.0
C319 C 0.86699 0.53645 0.68876 0.0
C320 C 0.83264 0.55753 0.78628 0.0
C321 C 0.81323 0.57676 0.78684 0.0
C322 C 0.78389 0.56734 0.7608 0.0
C323 C 0.77307 0.53695 0.73592 0.0
C324 C 0.79241 0.5179 0.73541 0.0
H325 H 0.89048 0.54213 0.66934 0.0
H326 H 0.84128 0.52285 0.67125 0.0
H327 H 0.87071 0.56306 0.69962 0.0
H328 H 0.85585 0.56584 0.8057 0.0
H329 H 0.82189 0.59955 0.80683 0.0
H330 H 0.22176 0.75569 0.21933 0.0
H331 H 0.28885 0.78949 0.21886 0.0
H332 H 0.28964 0.86628 0.3027 0.0
H333 H 0.22185 0.83215 0.30386 0.0
H334 H 0.33185 0.8665 0.19763 0.0
H335 H 0.36498 0.83665 0.34509 0.0
H336 H 0.32041 0.80819 0.32274 0.0
H337 H 0.33244 0.85275 0.34149 0.0
C338 C 0.23595 0.77949 0.23813 0.0
C339 C 0.21617 0.79147 0.26123 0.0
C340 C 0.27442 0.79884 0.23769 0.0
C341 C 0.29418 0.83045 0.26053 0.0
C342 C 0.27483 0.84181 0.28494 0.0
H343 H 0.53569 0.95783 0.2758 0.0
H344 H 0.47083 0.94072 0.28206 0.0
C345 C 0.23607 0.82234 0.28544 0.0
C346 C 0.33492 0.85201 0.2569 0.0
H347 H 0.41487 0.8719 0.30329 0.0
C348 C 0.35008 0.86805 0.22084 0.0
C349 C 0.35856 0.85417 0.28732 0.0
C350 C 0.3435 0.83693 0.32637 0.0
C351 C 0.38824 0.88532 0.21401 0.0
C352 C 0.41175 0.88593 0.24382 0.0
C353 C 0.39676 0.87129 0.28043 0.0
C354 C 0.45151 0.89927 0.23695 0.0
C355 C 0.40294 0.90251 0.17484 0.0
C356 C 0.46229 0.88205 0.20907 0.0
C357 C 0.49938 0.89181 0.20527 0.0
C358 C 0.52644 0.9188 0.22958 0.0
C359 C 0.51567 0.93695 0.25655 0.0
C360 C 0.47856 0.92714 0.26029 0.0
H361 H 0.38409 0.91023 0.16028 0.0
H362 H 0.43071 0.92745 0.17738 0.0
H363 H 0.40525 0.88226 0.15602 0.0
H364 H 0.44182 0.85995 0.19124 0.0
H365 H 0.50652 0.87708 0.18437 0.0
H366 H 0.46543 0.225 0.73937 0.0
H367 H 0.49772 0.29196 0.73943 0.0
H368 H 0.4057 0.29035 0.79759 0.0
H369 H 0.37264 0.22254 0.79786 0.0
H370 H 0.4588 0.33252 0.70328 0.0
H371 H 0.50975 0.36792 0.85553 0.0
H372 H 0.50229 0.3256 0.83348 0.0
H373 H 0.46352 0.33082 0.84564 0.0
C374 C 0.45196 0.23862 0.75265 0.0
C375 C 0.416 0.21818 0.76797 0.0
C376 C 0.47058 0.27699 0.75259 0.0
C377 C 0.45393 0.29596 0.76812 0.0
C378 C 0.41889 0.27602 0.78535 0.0
H379 H 0.57303 0.53726 0.77833 0.0
H380 H 0.52372 0.47323 0.78496 0.0
C381 C 0.40006 0.23731 0.78545 0.0
C382 C 0.47299 0.33649 0.76381 0.0
H383 H 0.53234 0.41648 0.81032 0.0
C384 C 0.47443 0.35104 0.72678 0.0
C385 C 0.49313 0.36038 0.79457 0.0
C386 C 0.49235 0.34569 0.83468 0.0
C387 C 0.49659 0.38891 0.71935 0.0
C388 C 0.51854 0.41264 0.74958 0.0
C389 C 0.51567 0.39825 0.78709 0.0
C390 C 0.54635 0.45193 0.74248 0.0
C391 C 0.49658 0.40302 0.6791 0.0
C392 C 0.57529 0.46137 0.716 0.0
C393 C 0.60352 0.49804 0.71195 0.0
C394 C 0.60361 0.52598 0.73468 0.0
C395 C 0.57395 0.51652 0.76036 0.0
C396 C 0.54571 0.47988 0.76428 0.0
H397 H 0.47035 0.38462 0.66362 0.0
H398 H 0.50057 0.43128 0.67998 0.0
H399 H 0.51948 0.4038 0.66205 0.0
H400 H 0.57682 0.44019 0.69946 0.0
H401 H 0.626 0.50418 0.69216 0.0
H402 H 0.21268 0.1906 0.31066 0.0
H403 H 0.23478 0.14933 0.29015 0.0
H404 H 0.25315 0.19437 0.17463 0.0
H405 H 0.23107 0.23594 0.1949 0.0
H406 H 0.21832 0.12519 0.17002 0.0
H407 H 0.29568 0.15471 0.29858 0.0
H408 H 0.31566 0.18956 0.2612 0.0
H409 H 0.33239 0.15778 0.26921 0.0
C410 C 0.22184 0.19194 0.28098 0.0
C411 C 0.22049 0.21644 0.25436 0.0
C412 C 0.23525 0.16901 0.26946 0.0
C413 C 0.24752 0.17029 0.2312 0.0
C414 C 0.24554 0.19436 0.20452 0.0
H415 H 0.24354 0.9639 0.25208 0.0
H416 H 0.2746 0.02596 0.22448 0.0
C417 C 0.23256 0.21765 0.21609 0.0
C418 C 0.25646 0.14217 0.21824 0.0
H419 H 0.2868 0.08916 0.26066 0.0
C420 C 0.23465 0.11802 0.18868 0.0
C421 C 0.2793 0.13352 0.24077 0.0
C422 C 0.30741 0.16069 0.26882 0.0
C423 C 0.22932 0.08239 0.18677 0.0
C424 C 0.24547 0.0711 0.21564 0.0
C425 C 0.27313 0.09752 0.23962 0.0
C426 C 0.22671 0.03262 0.22878 0.0
C427 C 0.20303 0.05587 0.15702 0.0
C428 C 0.18997 0.0166 0.24155 0.0
C429 C 0.17227 0.98154 0.25775 0.0
C430 C 0.1911 0.96192 0.26164 0.0
C431 C 0.22822 0.97833 0.24944 0.0
C432 C 0.24596 0.01356 0.23331 0.0
H433 H 0.2056 0.07032 0.12917 0.0
H434 H 0.20819 0.03267 0.15175 0.0
H435 H 0.17423 0.04451 0.16744 0.0
H436 H 0.17512 0.03157 0.23964 0.0
H437 H 0.14376 0.96975 0.26681 0.0
H438 H 0.03197 0.2164 0.7844 0.0
H439 H 0.09188 0.23683 0.75414 0.0
H440 H 0.04997 0.25121 0.6451 0.0
H441 H 0.99015 0.23173 0.67573 0.0
H442 H 0.08282 0.21287 0.63492 0.0
H443 H 0.1488 0.29976 0.75442 0.0
H444 H 0.12948 0.31696 0.71877 0.0
H445 H 0.17845 0.33283 0.71932 0.0
C446 C 0.0359 0.22466 0.75419 0.0
C447 C 0.00692 0.22291 0.73236 0.0
C448 C 0.07021 0.23692 0.73702 0.0
C449 C 0.07593 0.24725 0.69766 0.0
C450 C 0.04667 0.24495 0.67574 0.0
H451 H 0.2693 0.2328 0.71527 0.0
H452 H 0.24096 0.26353 0.68152 0.0
C453 C 0.01254 0.23352 0.69318 0.0
C454 C 0.11065 0.25437 0.67911 0.0
H455 H 0.19692 0.28282 0.71283 0.0
C456 C 0.10844 0.22941 0.6506 0.0
C457 C 0.14488 0.27757 0.69726 0.0
C458 C 0.15048 0.30859 0.72376 0.0
C459 C 0.13689 0.22124 0.64675 0.0
C460 C 0.16703 0.23779 0.6727 0.0
C461 C 0.17283 0.26865 0.6943 0.0
C462 C 0.18528 0.21751 0.68646 0.0
C463 C 0.13247 0.19203 0.61824 0.0
C464 C 0.16328 0.18154 0.70091 0.0
C465 C 0.17924 0.16394 0.72053 0.0
C466 C 0.21752 0.18217 0.72654 0.0
C467 C 0.23959 0.21805 0.71157 0.0
C468 C 0.22359 0.23557 0.69178 0.0
H469 H 0.12065 0.19514 0.59058 0.0
H470 H 0.15924 0.19346 0.61213 0.0
H471 H 0.11281 0.16439 0.63012 0.0
H472 H 0.13347 0.16753 0.69855 0.0
H473 H 0.1615 0.13634 0.73153 0.0
H474 H 0.03808 0.28197 0.269 0.0
H475 H 0.97157 0.24837 0.25754 0.0
H476 H 0.9624 0.15499 0.31996 0.0
H477 H 0.02896 0.18816 0.33143 0.0
H478 H 0.93952 0.18049 0.21556 0.0
H479 H 0.87288 0.16402 0.35842 0.0
H480 H 0.91906 0.20119 0.34787 0.0
H481 H 0.91136 0.15632 0.36107 0.0
C482 C 0.02185 0.25454 0.28103 0.0
C483 C 0.03879 0.2375 0.30087 0.0
C484 C 0.98388 0.23555 0.27452 0.0
C485 C 0.96225 0.19959 0.28838 0.0
C486 C 0.97873 0.18313 0.30975 0.0
H487 H 0.82948 0.99462 0.24633 0.0
H488 H 0.87258 0.06091 0.24139 0.0
C489 C 0.01676 0.20191 0.31593 0.0
C490 C 0.92373 0.17677 0.27575 0.0
H491 H 0.84074 0.11282 0.31273 0.0
C492 C 0.91736 0.16658 0.23648 0.0
C493 C 0.8948 0.15937 0.30291 0.0
C494 C 0.89975 0.17109 0.34488 0.0
C495 C 0.88423 0.13581 0.22475 0.0
C496 C 0.85743 0.11522 0.25308 0.0
C497 C 0.86173 0.12856 0.29118 0.0
C498 C 0.83035 0.07618 0.24675 0.0
C499 C 0.8795 0.12348 0.18301 0.0
C500 C 0.79253 0.06317 0.25084 0.0
C501 C 0.76795 0.02537 0.25336 0.0
C502 C 0.78114 0.00041 0.25259 0.0
C503 C 0.81882 0.01345 0.24693 0.0
C504 C 0.84327 0.05115 0.24372 0.0
H505 H 0.89473 0.14737 0.16324 0.0
H506 H 0.89086 0.10476 0.17912 0.0
H507 H 0.84988 0.10831 0.17466 0.0
H508 H 0.78233 0.08225 0.25397 0.0
H509 H 0.73902 0.01584 0.25853 0.0
H510 H 0.8564 0.02933 0.76098 0.0
H511 H 0.8214 0.96616 0.73748 0.0
H512 H 0.72103 0.97147 0.7401 0.0
H513 H 0.75574 0.03478 0.76408 0.0
H514 H 0.71381 0.91072 0.77623 0.0
H515 H 0.77517 0.92089 0.63292 0.0
H516 H 0.81175 0.94782 0.66635 0.0
H517 H 0.77695 0.96026 0.65678 0.0
C518 C 0.82692 0.01717 0.75658 0.0
C519 C 0.80891 0.03706 0.76447 0.0
C520 C 0.80704 0.98131 0.74244 0.0
C521 C 0.76888 0.96475 0.73578 0.0
C522 C 0.7506 0.98419 0.7442 0.0
H523 H 0.75246 0.75532 0.6989 0.0
H524 H 0.7273 0.79563 0.68399 0.0
C525 C 0.7705 0.02019 0.75825 0.0
C526 C 0.74819 0.92552 0.72513 0.0
H527 H 0.76612 0.86726 0.67357 0.0
C528 C 0.72381 0.90076 0.75277 0.0
C529 C 0.75955 0.91214 0.69351 0.0
C530 C 0.78193 0.93678 0.66047 0.0
C531 C 0.71667 0.86442 0.75375 0.0
C532 C 0.73516 0.85364 0.72711 0.0
C533 C 0.75315 0.87609 0.69501 0.0
C534 C 0.74519 0.82581 0.73781 0.0
C535 C 0.69287 0.83928 0.78579 0.0
C536 C 0.76456 0.83041 0.77259 0.0
C537 C 0.77927 0.80792 0.781 0.0
C538 C 0.77492 0.78055 0.75469 0.0
C539 C 0.75555 0.7759 0.7199 0.0
C540 C 0.74101 0.79862 0.7114 0.0
H541 H 0.66916 0.84357 0.79157 0.0
H542 H 0.68224 0.80983 0.7785 0.0
H543 H 0.70932 0.84598 0.81292 0.0
H544 H 0.76947 0.85229 0.7927 0.0
H545 H 0.79396 0.81193 0.8081 0.0
H546 H 0.71097 0.75447 0.23891 0.0
H547 H 0.7409 0.71876 0.22263 0.0
H548 H 0.83018 0.78599 0.30081 0.0
H549 H 0.80098 0.82241 0.31665 0.0
H550 H 0.82101 0.76183 0.19309 0.0
H551 H 0.7988 0.67191 0.31961 0.0
H552 H 0.76595 0.68576 0.30484 0.0
H553 H 0.80607 0.7166 0.33274 0.0
C554 C 0.7367 0.76125 0.25314 0.0
C555 C 0.7539 0.79135 0.27892 0.0
C556 C 0.75354 0.74071 0.24388 0.0
C557 C 0.7872 0.74947 0.26106 0.0
C558 C 0.80372 0.77855 0.28788 0.0
H559 H 0.9827 0.81271 0.29306 0.0
H560 H 0.91694 0.78648 0.28132 0.0
C561 C 0.78731 0.79953 0.29659 0.0
C562 C 0.80857 0.73262 0.2474 0.0
H563 H 0.85951 0.69906 0.28841 0.0
C564 C 0.82836 0.74632 0.21277 0.0
C565 C 0.81757 0.71209 0.27298 0.0
C566 C 0.7957 0.69539 0.3095 0.0
C567 C 0.86106 0.74565 0.20649 0.0
C568 C 0.87327 0.73037 0.23536 0.0
C569 C 0.85002 0.711 0.26651 0.0
C570 C 0.91291 0.745 0.24099 0.0
C571 C 0.88516 0.76669 0.17255 0.0
C572 C 0.93211 0.73041 0.22164 0.0
C573 C 0.96998 0.7457 0.228 0.0
C574 C 0.98879 0.77538 0.25396 0.0
C575 C 0.96919 0.78995 0.27285 0.0
C576 C 0.93161 0.77488 0.26636 0.0
H577 H 0.8683 0.76695 0.14777 0.0
H578 H 0.90405 0.79566 0.18154 0.0
H579 H 0.90228 0.75484 0.16276 0.0
H580 H 0.91791 0.70744 0.20183 0.0
H581 H 0.9845 0.73429 0.21273 0.0
H582 H 0.257 0.97376 0.7419 0.0
H583 H 0.21698 0.90733 0.73171 0.0
H584 H 0.12693 0.92529 0.70209 0.0
H585 H 0.16675 0.99118 0.71162 0.0
H586 H 0.15934 0.87365 0.7809 0.0
H587 H 0.10415 0.83894 0.63283 0.0
H588 H 0.14783 0.87993 0.64345 0.0
H589 H 0.10507 0.88043 0.64719 0.0
C590 C 0.22912 0.96355 0.73157 0.0
C591 C 0.21474 0.98735 0.72782 0.0
C592 C 0.20634 0.92567 0.72574 0.0
C593 C 0.16913 0.91139 0.71565 0.0
C594 C 0.15577 0.93567 0.70885 0.0
H595 H 0.9747 0.80951 0.808 0.0
H596 H 0.04024 0.83946 0.79142 0.0
C597 C 0.17835 0.97331 0.71497 0.0
C598 C 0.14188 0.87209 0.72163 0.0
H599 H 0.05744 0.80951 0.68613 0.0
C600 C 0.13773 0.85862 0.75969 0.0
C601 C 0.11404 0.85199 0.69392 0.0
C602 C 0.11832 0.86351 0.65196 0.0
C603 C 0.104 0.82916 0.7722 0.0
C604 C 0.07418 0.8131 0.74591 0.0
C605 C 0.08021 0.82261 0.70649 0.0
C606 C 0.03577 0.79269 0.7598 0.0
C607 C 0.09947 0.81776 0.81424 0.0
C608 C 0.01176 0.75667 0.74726 0.0
C609 C 0.97434 0.73949 0.75677 0.0
C610 C 0.9603 0.7584 0.77832 0.0
C611 C 0.98465 0.7943 0.79136 0.0
C612 C 0.0221 0.81126 0.78221 0.0
H613 H 0.12611 0.82296 0.82685 0.0
H614 H 0.09013 0.83426 0.83096 0.0
H615 H 0.07858 0.78812 0.8177 0.0
H616 H 0.02182 0.74222 0.72947 0.0
H617 H 0.95625 0.71182 0.74609 0.0
H618 H 0.26281 0.29271 0.11069 0.0
H619 H 0.26103 0.24489 0.06901 0.0
H620 H 0.3321 0.22994 0.14863 0.0
H621 H 0.33497 0.27855 0.18995 0.0
H622 H 0.35257 0.22702 0.08063 0.0
H623 H 0.20261 0.13643 0.08135 0.0
H624 H 0.21088 0.18039 0.06485 0.0
H625 H 0.22466 0.17579 0.11318 0.0
C626 C 0.2782 0.2794 0.11927 0.0
C627 C 0.29869 0.28917 0.15381 0.0
C628 C 0.27668 0.25162 0.09575 0.0
C629 C 0.29517 0.23276 0.10656 0.0
C630 C 0.31711 0.24368 0.14006 0.0
H631 H 0.24346 0.08525 0.91032 0.0
H632 H 0.25158 0.09597 0.98047 0.0
C633 C 0.31869 0.2715 0.16362 0.0
C634 C 0.29331 0.2034 0.08124 0.0
H635 H 0.2339 0.13688 0.01932 0.0
C636 C 0.3265 0.2065 0.06807 0.0
C637 C 0.25937 0.1751 0.06622 0.0
C638 C 0.22247 0.16654 0.08267 0.0
C639 C 0.3268 0.18579 0.03636 0.0
C640 C 0.29333 0.16281 0.01667 0.0
C641 C 0.25981 0.15552 0.03354 0.0
C642 C 0.29297 0.15372 0.97522 0.0
C643 C 0.36324 0.19066 0.02271 0.0
C644 C 0.31351 0.18255 0.9491 0.0
C645 C 0.30908 0.17653 0.90937 0.0
C646 C 0.2834 0.14168 0.89476 0.0
C647 C 0.26329 0.11248 0.92079 0.0
C648 C 0.26809 0.11847 0.9608 0.0
H649 H 0.38073 0.19282 0.04796 0.0
H650 H 0.3595 0.16744 1.004 0.0
H651 H 0.37838 0.21679 1.00615 0.0
H652 H 0.33173 0.21034 0.95936 0.0
H653 H 0.32493 0.19965 0.89016 0.0
H654 H 0.05761 0.33904 0.70868 0.0
H655 H 0.1099 0.34824 0.66972 0.0
H656 H 0.03826 0.30029 0.57083 0.0
H657 H 0.98502 0.29012 0.60995 0.0
H658 H 0.08481 0.2714 0.58627 0.0
H659 H 0.16381 0.42499 0.58577 0.0
H660 H 0.15133 0.40239 0.63215 0.0
H661 H 0.11596 0.39927 0.60023 0.0
C662 C 0.05277 0.33067 0.67852 0.0
C663 C 0.01698 0.31389 0.66231 0.0
C664 C 0.08289 0.33618 0.65634 0.0
C665 C 0.07795 0.32536 0.61747 0.0
C666 C 0.04247 0.3089 0.60094 0.0
H667 H 0.15798 0.36714 0.40954 0.0
H668 H 0.15115 0.37422 0.47823 0.0
C669 C 0.01214 0.30318 0.6232 0.0
C670 C 0.10939 0.32991 0.59403 0.0
H671 H 0.18563 0.39466 0.54617 0.0
C672 C 0.10733 0.29826 0.57796 0.0
C673 C 0.13918 0.36505 0.58437 0.0
C674 C 0.14284 0.39997 0.60129 0.0
C675 C 0.13182 0.30079 0.5489 0.0
C676 C 0.15941 0.33619 0.53614 0.0
C677 C 0.16427 0.36767 0.55585 0.0
C678 C 0.17511 0.34126 0.49672 0.0
C679 C 0.1253 0.2656 0.52966 0.0
C680 C 0.19345 0.32276 0.48428 0.0
C681 C 0.19632 0.31766 0.44463 0.0
C682 C 0.18192 0.33206 0.41728 0.0
C683 C 0.16869 0.35513 0.42991 0.0
C684 C 0.16504 0.35944 0.46934 0.0
H685 H 0.10075 0.24079 0.54157 0.0
H686 H 0.12117 0.26663 0.49796 0.0
H687 H 0.14964 0.26215 0.53425 0.0
H688 H 0.20274 0.30974 0.50501 0.0
H689 H 0.20764 0.3006 0.43557 0.0
H690 H 0.72284 0.0548 0.20178 0.0
H691 H 0.76287 0.10406 0.15746 0.0
H692 H 0.73481 0.02457 0.0654 0.0
H693 H 0.69428 0.9749 0.10937 0.0
H694 H 0.82365 0.11627 0.11257 0.0
H695 H 0.70691 0.09867 0.02208 0.0
H696 H 0.70051 0.07848 0.06974 0.0
H697 H 0.70637 0.05589 0.0281 0.0
C698 C 0.72513 0.04765 0.1721 0.0
C699 C 0.70488 0.01092 0.15887 0.0
C700 C 0.74813 0.0759 0.14694 0.0
C701 C 0.75104 0.0679 0.10816 0.0
C702 C 0.73212 0.03121 0.09518 0.0
H703 H 0.88973 0.13799 0.92583 0.0
H704 H 0.86975 0.13114 0.99298 0.0
C705 C 0.70908 0.00289 0.1203 0.0
C706 C 0.77307 0.0978 0.08065 0.0
H707 H 0.76665 0.12804 0.99135 0.0
C708 C 0.81131 0.11956 0.08633 0.0
C709 C 0.75661 0.10316 0.04746 0.0
C710 C 0.71528 0.0831 0.04169 0.0
C711 C 0.83404 0.14398 0.05748 0.0
C712 C 0.81796 0.14565 0.02198 0.0
C713 C 0.7793 0.12663 0.01827 0.0
C714 C 0.83977 0.16063 0.98605 0.0
C715 C 0.875 0.1667 0.06493 0.0
C716 C 0.8306 0.18043 0.9598 0.0
C717 C 0.84066 0.18287 0.92089 0.0
C718 C 0.86086 0.16641 0.90803 0.0
C719 C 0.8739 0.15067 0.9351 0.0
C720 C 0.86296 0.14729 0.97375 0.0
H721 H 0.88034 0.17598 0.09565 0.0
H722 H 0.88784 0.14941 0.05999 0.0
H723 H 0.88852 0.19125 0.04576 0.0
H724 H 0.8129 0.19113 0.96868 0.0
H725 H 0.83096 0.19585 0.90053 0.0
H726 H 0.71666 0.69926 0.61577 0.0
H727 H 0.70945 0.74289 0.57502 0.0
H728 H 0.64359 0.75505 0.66391 0.0
H729 H 0.64986 0.71092 0.70445 0.0
H730 H 0.61348 0.74927 0.59601 0.0
H731 H 0.76069 0.85305 0.58565 0.0
H732 H 0.755 0.80989 0.56941 0.0
H733 H 0.74419 0.81484 0.6189 0.0
C734 C 0.70055 0.7111 0.62658 0.0
C735 C 0.68409 0.70182 0.6634 0.0
C736 C 0.69683 0.73638 0.60352 0.0
C737 C 0.67694 0.75301 0.61704 0.0
C738 C 0.65944 0.74287 0.6532 0.0
H739 H 0.70799 0.89982 0.42943 0.0
H740 H 0.69769 0.88654 0.49865 0.0
C741 C 0.66312 0.71763 0.67627 0.0
C742 C 0.67301 0.77953 0.59228 0.0
H743 H 0.72269 0.84948 0.52937 0.0
C744 C 0.63736 0.77186 0.5821 0.0
C745 C 0.70405 0.81017 0.5756 0.0
C746 C 0.74306 0.82265 0.58843 0.0
C747 C 0.632 0.79111 0.55198 0.0
C748 C 0.66302 0.8176 0.53097 0.0
C749 C 0.69867 0.82853 0.54472 0.0
C750 C 0.65982 0.82811 0.49083 0.0
C751 C 0.59314 0.78151 0.54178 0.0
C752 C 0.64052 0.80009 0.46338 0.0
C753 C 0.64587 0.80776 0.42388 0.0
C754 C 0.67138 0.84341 0.41111 0.0
C755 C 0.68849 0.87202 0.43844 0.0
C756 C 0.68249 0.86448 0.47803 0.0
H757 H 0.57655 0.77669 0.56858 0.0
H758 H 0.59252 0.80358 0.52456 0.0
H759 H 0.57972 0.75546 0.52486 0.0
H760 H 0.62375 0.77161 0.47226 0.0
H761 H 0.63217 0.78514 0.40353 0.0
H762 H 0.85127 0.72693 0.93415 0.0
H763 H 0.85745 0.70826 0.99924 0.0
H764 H 0.80181 0.59432 0.96298 0.0
H765 H 0.79765 0.61323 0.8968 0.0
H766 H 0.82128 0.66301 0.05915 0.0
H767 H 0.90474 0.61365 0.97935 0.0
H768 H 0.88506 0.63767 0.95491 0.0
H769 H 0.85614 0.59038 0.96941 0.0
C770 C 0.83961 0.69782 0.94023 0.0
C771 C 0.82533 0.67161 0.91035 0.0
C772 C 0.84285 0.68711 0.97754 0.0
C773 C 0.83124 0.65002 0.98548 0.0
C774 C 0.81207 0.6232 0.95698 0.0
H775 H 0.93796 0.64078 0.20275 0.0
H776 H 0.88694 0.6234 0.15751 0.0
C777 C 0.80976 0.63402 0.9193 0.0
C778 C 0.84627 0.64158 0.02018 0.0
H779 H 0.91515 0.62447 0.04511 0.0
C780 C 0.84115 0.65368 0.05646 0.0
C781 C 0.87226 0.62944 0.01633 0.0
C782 C 0.88017 0.61723 0.97797 0.0
C783 C 0.86387 0.65739 0.08805 0.0
C784 C 0.89154 0.6478 0.08315 0.0
C785 C 0.89403 0.63212 0.04824 0.0
C786 C 0.92164 0.6586 0.11132 0.0
C787 C 0.86023 0.67434 0.12525 0.0
C788 C 0.95797 0.68385 0.09997 0.0
C789 C 0.98725 0.69352 0.12544 0.0
C790 C 0.98056 0.67817 0.16273 0.0
C791 C 0.944 0.65316 0.17416 0.0
C792 C 0.91476 0.64329 0.14852 0.0
H793 H 0.84145 0.68577 0.12213 0.0
H794 H 0.84911 0.65306 0.14835 0.0
H795 H 0.8877 0.6967 0.13487 0.0
H796 H 0.96366 0.69598 0.07125 0.0
H797 H 0.01501 0.71302 0.11593 0.0
H798 H 0.29463 0.94296 0.70208 0.0
H799 H 0.26104 0.89347 0.65527 0.0
H800 H 0.28484 0.97404 0.56549 0.0
H801 H 0.31895 0.02376 0.61181 0.0
H802 H 0.20032 0.87743 0.61294 0.0
H803 H 0.31604 0.90643 0.51526 0.0
H804 H 0.3231 0.92574 0.56349 0.0
H805 H 0.31412 0.94769 0.52332 0.0
C806 C 0.29304 0.95022 0.67227 0.0
C807 C 0.30975 0.98735 0.66052 0.0
C808 C 0.27383 0.92185 0.64565 0.0
C809 C 0.27127 0.93017 0.60688 0.0
C810 C 0.28751 0.96713 0.59514 0.0
H811 H 0.12506 0.8632 0.43157 0.0
H812 H 0.15033 0.8696 0.49653 0.0
C813 C 0.3068 0.99551 0.62167 0.0
C814 C 0.2501 0.90058 0.57864 0.0
H815 H 0.25511 0.87764 0.48528 0.0
C816 C 0.2123 0.87671 0.58526 0.0
C817 C 0.26611 0.89851 0.54337 0.0
C818 C 0.30719 0.9207 0.53617 0.0
C819 C 0.1893 0.85381 0.55562 0.0
C820 C 0.20458 0.85577 0.51849 0.0
C821 C 0.24306 0.8765 0.51349 0.0
C822 C 0.1816 0.84244 0.4831 0.0
C823 C 0.14879 0.82896 0.56404 0.0
C824 C 0.19018 0.82453 0.45395 0.0
C825 C 0.17682 0.82214 0.41639 0.0
C826 C 0.15414 0.83702 0.40768 0.0
C827 C 0.14259 0.8516 0.43761 0.0
C828 C 0.15664 0.85477 0.47496 0.0
H829 H 0.14482 0.81774 0.59397 0.0
H830 H 0.13449 0.8452 0.5623 0.0
H831 H 0.13567 0.80561 0.54325 0.0
H832 H 0.20934 0.81479 0.45958 0.0
H833 H 0.18559 0.81016 0.39382 0.0
H834 H 0.78355 0.74685 0.87686 0.0
H835 H 0.77674 0.77856 0.93411 0.0
H836 H 0.66851 0.6855 0.9551 0.0
H837 H 0.67506 0.65421 0.89842 0.0
H838 H 0.71936 0.79792 0.9473 0.0
H839 H 0.71662 0.70532 0.06321 0.0
H840 H 0.73476 0.70629 0.01538 0.0
H841 H 0.68573 0.68141 0.02375 0.0
C842 C 0.7588 0.7327 0.89439 0.0
C843 C 0.73015 0.69751 0.88311 0.0
C844 C 0.75466 0.75112 0.92695 0.0
C845 C 0.72207 0.73459 0.94956 0.0
C846 C 0.69414 0.69899 0.93892 0.0
H847 H 0.62012 0.77413 0.14989 0.0
H848 H 0.6365 0.75246 0.09149 0.0
C849 C 0.69802 0.68094 0.90632 0.0
C850 C 0.71603 0.75443 0.98321 0.0
H851 H 0.69428 0.74571 0.08015 0.0
C852 C 0.71434 0.78673 0.97646 0.0
C853 C 0.70919 0.74012 0.02153 0.0
C854 C 0.71197 0.70658 0.03164 0.0
C855 C 0.70458 0.80392 1.00615 0.0
C856 C 0.69693 0.7891 0.04438 0.0
C857 C 0.69967 0.75734 0.05118 0.0
C858 C 0.68476 0.80476 0.0775 0.0
C859 C 0.70098 0.8369 0.99566 0.0
C860 C 0.70531 0.84208 0.08938 0.0
C861 C 0.69531 0.85488 0.12284 0.0
C862 C 0.66467 0.83068 0.14569 0.0
C863 C 0.64348 0.79387 0.13284 0.0
C864 C 0.6532 0.78124 0.09946 0.0
H865 H 0.69724 0.83838 0.96392 0.0
H866 H 0.67729 0.83625 1.01095 0.0
H867 H 0.72657 0.8624 1.00433 0.0
H868 H 0.73027 0.86102 0.07403 0.0
H869 H 0.71309 0.88304 0.13232 0.0
H870 H 0.01939 0.68002 0.3992 0.0
H871 H 0.98088 0.67334 0.45538 0.0
H872 H 0.99469 0.78063 0.43296 0.0
H873 H 0.03378 0.78753 0.37621 0.0
H874 H 0.99249 0.71419 0.52374 0.0
H875 H 0.88099 0.7144 0.43638 0.0
H876 H 0.91714 0.70878 0.41458 0.0
H877 H 0.9266 0.75349 0.43042 0.0
C878 C 0.01497 0.70267 0.40653 0.0
C879 C 0.03026 0.73451 0.38299 0.0
C880 C 0.99258 0.69866 0.43878 0.0
C881 C 0.98383 0.726 0.44853 0.0
C882 C 0.00018 0.75862 0.42602 0.0
H883 H 0.82851 0.71679 0.63318 0.0
H884 H 0.86839 0.73401 0.57516 0.0
C885 C 0.02318 0.76288 0.39381 0.0
C886 C 0.95739 0.71952 0.48185 0.0
H887 H 0.87115 0.70597 0.50388 0.0
C888 C 0.96606 0.7126 0.51924 0.0
C889 C 0.92268 0.71748 0.47671 0.0
C890 C 0.91094 0.72364 0.43738 0.0
C891 C 0.94152 0.70376 0.55103 0.0
C892 C 0.90615 0.70028 0.54568 0.0
C893 C 0.89782 0.70816 0.50848 0.0
C894 C 0.87757 0.6876 0.57809 0.0
C895 C 0.95429 0.69891 0.59041 0.0
C896 C 0.86717 0.65463 0.59836 0.0
C897 C 0.84428 0.64474 0.63136 0.0
C898 C 0.83001 0.66686 0.64505 0.0
C899 C 0.83806 0.69848 0.62318 0.0
C900 C 0.86141 0.70863 0.59012 0.0
H901 H 0.98492 0.71414 0.59249 0.0
H902 H 0.94316 0.70867 0.61397 0.0
H903 H 0.94462 0.66927 0.59517 0.0
H904 H 0.87787 0.63698 0.58949 0.0
H905 H 0.83922 0.62047 0.64753 0.0
H906 H 0.33144 0.02519 0.89985 0.0
H907 H 0.29929 0.98657 0.95571 0.0
H908 H 0.20014 0.98697 0.92282 0.0
H909 H 0.23263 0.02598 0.86617 0.0
H910 H 0.26428 0.99431 0.01971 0.0
H911 H 0.16226 0.876 0.93138 0.0
H912 H 0.20277 0.91439 0.91026 0.0
H913 H 0.16382 0.91915 0.92341 0.0
C914 C 0.30294 0.01773 0.90473 0.0
C915 C 0.28495 0.02924 0.87828 0.0
C916 C 0.28439 0.99529 0.93684 0.0
C917 C 0.24676 0.98273 0.94367 0.0
C918 C 0.22889 0.99534 0.9182 0.0
H919 H 0.10455 0.82618 0.13015 0.0
H920 H 0.12502 0.86492 0.07123 0.0
C921 C 0.24772 0.01831 0.88601 0.0
C922 C 0.22708 0.95636 0.97713 0.0
H923 H 0.15888 0.86792 0.99928 0.0
C924 C 0.24111 0.96678 0.01504 0.0
C925 C 0.19655 0.92016 0.97184 0.0
C926 C 0.18048 0.90644 0.93206 0.0
C927 C 0.22606 0.94252 0.0471 0.0
C928 C 0.19645 0.90584 0.04166 0.0
C929 C 0.18162 0.89568 1.00395 0.0
C930 C 0.18195 0.87776 0.07451 0.0
C931 C 0.24196 0.95684 0.08684 0.0
C932 C 0.20612 0.86985 0.09531 0.0
C933 C 0.19436 0.84748 0.12869 0.0
C934 C 0.15773 0.83146 0.14245 0.0
C935 C 0.13268 0.8371 0.12015 0.0
C936 C 0.14461 0.85981 0.08657 0.0
H937 H 0.25538 0.98737 0.08831 0.0
H938 H 0.22031 0.94481 0.10963 0.0
H939 H 0.26332 0.94931 0.09338 0.0
H940 H 0.23475 0.88215 0.08654 0.0
H941 H 0.21467 0.84431 0.14513 0.0
H942 H 0.27832 0.11221 0.62713 0.0
H943 H 0.26507 0.13621 0.56773 0.0
H944 H 0.36946 0.23676 0.57917 0.0
H945 H 0.3824 0.21301 0.6384 0.0
H946 H 0.25907 0.20133 0.56381 0.0
H947 H 0.36798 0.21381 0.46317 0.0
H948 H 0.35482 0.18508 0.50592 0.0
H949 H 0.38507 0.23407 0.50998 0.0
C950 C 0.29927 0.13865 0.61587 0.0
C951 C 0.33218 0.15998 0.63695 0.0
C952 C 0.29133 0.15276 0.5822 0.0
C953 C 0.31626 0.18845 0.56832 0.0
C954 C 0.34987 0.20899 0.58839 0.0
H955 H 0.33166 0.34079 0.38733 0.0
H956 H 0.33905 0.30893 0.44288 0.0
C957 C 0.35753 0.19512 0.62221 0.0
C958 C 0.30648 0.20536 0.53473 0.0
H959 H 0.33669 0.24583 0.44557 0.0
C960 C 0.27585 0.2107 0.53778 0.0
C961 C 0.32826 0.21804 0.50059 0.0
C962 C 0.36068 0.21222 0.49439 0.0
C963 C 0.26733 0.22927 0.50866 0.0
C964 C 0.2894 0.24232 0.4746 0.0
C965 C 0.3196 0.23626 0.47138 0.0
C966 C 0.28284 0.2633 0.44252 0.0
C967 C 0.2356 0.23605 0.51562 0.0
C968 C 0.24846 0.24926 0.4234 0.0
C969 C 0.24399 0.26804 0.39155 0.0
C970 C 0.27384 0.30127 0.37759 0.0
C971 C 0.30784 0.31556 0.3973 0.0
C972 C 0.31221 0.29707 0.42913 0.0
H973 H 0.22864 0.23438 0.54696 0.0
H974 H 0.24198 0.2635 0.50457 0.0
H975 H 0.21077 0.21467 0.50021 0.0
H976 H 0.22536 0.22295 0.43197 0.0
H977 H 0.21771 0.25546 0.37657 0.0
H978 H 0.1002 0.28022 0.17936 0.0
H979 H 0.06435 0.26562 0.1199 0.0
H980 H 0.16268 0.34012 0.05645 0.0
H981 H 0.19932 0.35421 0.11678 0.0
H982 H 0.04889 0.30691 0.0783 0.0
H983 H 0.11902 0.25634 0.98053 0.0
H984 H 0.1287 0.26297 0.03186 0.0
H985 H 0.1493 0.30169 0.99929 0.0
C986 C 0.11458 0.2932 0.1527 0.0
C987 C 0.15294 0.31846 0.15323 0.0
C988 C 0.09379 0.28484 0.11843 0.0
C989 C 0.11024 0.30146 0.08293 0.0
C990 C 0.14893 0.3261 0.08293 0.0
H991 H 0.98548 0.32385 0.89191 0.0
H992 H 0.02174 0.32987 0.94951 0.0
C993 C 0.17006 0.33429 0.11758 0.0
C994 C 0.08597 0.29426 0.04738 0.0
H995 H 0.07296 0.26644 0.95189 0.0
C996 C 0.05436 0.29796 0.05079 0.0
C997 C 0.09205 0.28191 1.01114 0.0
C998 C 0.12387 0.2751 1.00543 0.0
C999 C 0.02947 0.29034 0.01966 0.0
C1000 C 0.03627 0.27936 0.98304 0.0
C1001 C 0.06748 0.27499 0.97961 0.0
C1002 C 0.01237 0.27426 0.94784 0.0
C1003 C 0.99556 0.29352 0.0267 0.0
C1004 C 0.99448 0.24087 0.92667 0.0
C1005 C 0.97321 0.23721 0.89315 0.0
C1006 C 0.96959 0.26701 0.87958 0.0
C1007 C 0.98711 0.30004 0.9013 0.0
C1008 C 0.00802 0.30358 0.9346 0.0
H1009 H 0.98812 0.29047 0.05798 0.0
H1010 H 0.00118 0.32118 0.01732 0.0
H1011 H 0.97149 0.27239 1.01007 0.0
H1012 H -0.00273 0.21767 0.93586 0.0
H1013 H 0.96106 0.21165 0.87695 0.0
H1014 H 0.88758 0.18217 0.62129 0.0
H1015 H 0.86611 0.14495 0.56118 0.0
H1016 H 0.75334 0.0993 0.59861 0.0
H1017 H 0.77424 0.13643 0.6575 0.0
H1018 H 0.77502 0.04435 0.57598 0.0
H1019 H 0.80732 0.15109 0.46301 0.0
H1020 H 0.84239 0.15912 0.49828 0.0
H1021 H 0.80128 0.15889 0.5134 0.0
C1022 C 0.8582 0.16521 0.6161 0.0
C1023 C 0.83282 0.16284 0.64458 0.0
C1024 C 0.84585 0.14348 0.58176 0.0
C1025 C 0.80785 0.1187 0.57508 0.0
C1026 C 0.7827 0.11768 0.60274 0.0
H1027 H 0.66372 0.99254 0.3869 0.0
H1028 H 0.69706 0.03146 0.44211 0.0
C1029 C 0.79486 0.13938 0.63653 0.0
C1030 C 0.79368 0.09271 0.54051 0.0
H1031 H 0.77724 0.08924 0.44246 0.0
C1032 C 0.77608 0.0543 0.54671 0.0
C1033 C 0.79443 0.10517 0.50209 0.0
C1034 C 0.81216 0.14576 0.49341 0.0
C1035 C 0.75916 0.02847 0.51608 0.0
C1036 C 0.75924 0.04093 0.47781 0.0
C1037 C 0.7772 0.07933 0.47152 0.0
C1038 C 0.73817 0.01476 0.44479 0.0
C1039 C 0.73997 0.98782 0.52503 0.0
C1040 C 0.74937 0.99131 0.42748 0.0
C1041 C 0.73017 0.96875 0.39514 0.0
C1042 C 0.69891 0.96862 0.37952 0.0
C1043 C 0.68737 0.99136 0.39787 0.0
C1044 C 0.70664 0.01401 0.42961 0.0
H1045 H 0.73926 0.98235 0.55665 0.0
H1046 H 0.71121 0.97396 0.51381 0.0
H1047 H 0.75458 0.97528 0.51019 0.0
H1048 H 0.7737 0.99131 0.43817 0.0
H1049 H 0.74073 0.95265 0.38143 0.0
loop_
_geom_bond_atom_site_label_1
_geom_bond_atom_site_label_2
_geom_bond_distance
_geom_bond_site_symmetry_2
_ccdc_geom_bond_type
C0 O27 1.312 . S
C0 O28 1.208 . S
C1 O22 1.331 . S
C1 O25 1.244 . S
C2 O24 1.264 . S
C2 O26 1.273 . S
Mg3 O5 1.936 . S
Mg3 O12 2.081 . S
Mg3 O14 2.023 . S
Mg3 O18 2.031 . S
Mg3 O27 2.291 . S
Mg4 O5 1.963 . S
Mg4 O15 1.942 . S
Mg4 O16 1.955 . S
Mg4 O23 1.986 . S
O5 Mg3 1.936 . S
O5 Mg4 1.963 . S
O5 Mg6 1.915 . S
Mg6 O5 1.915 . S
Mg6 O7 1.915 . S
Mg6 O11 2.013 . S
Mg6 O17 2.114 . S
Mg6 O21 2.013 . S
Mg6 O27 2.114 . S
O7 Mg6 1.915 . S
O7 Mg8 1.936 . S
O7 Mg9 1.963 . S
Mg8 O7 1.936 . S
Mg8 O17 2.291 . S
Mg8 O22 2.081 . S
Mg8 O24 2.023 . S
Mg8 O28 2.031 . S
Mg9 O7 1.963 . S
Mg9 O13 1.986 . S
Mg9 O25 1.942 . S
Mg9 O26 1.955 . S
C10 O21 1.191 . S
C10 O23 1.307 . S
O11 Mg6 2.013 . S
O11 C30 1.191 . S
O12 Mg3 2.081 . S
O12 C20 1.331 . S
O13 Mg9 1.986 . S
O13 C30 1.307 . S
O14 Mg3 2.023 . S
O14 C29 1.264 . S
O15 Mg4 1.942 . S
O15 C20 1.244 . S
O16 Mg4 1.955 . S
O16 C29 1.273 . S
O17 Mg6 2.114 . S
O17 Mg8 2.291 . S
O17 C19 1.312 . S
O18 Mg3 2.031 . S
O18 C19 1.208 . S
C19 O17 1.312 . S
C19 O18 1.208 . S
C20 O12 1.331 . S
C20 O15 1.244 . S
O21 Mg6 2.013 . S
O21 C10 1.191 . S
O22 C1 1.331 . S
O22 Mg8 2.081 . S
O23 Mg4 1.986 . S
O23 C10 1.307 . S
O24 C2 1.264 . S
O24 Mg8 2.023 . S
O25 C1 1.244 . S
O25 Mg9 1.942 . S
O26 C2 1.273 . S
O26 Mg9 1.955 . S
O27 C0 1.312 . S
O27 Mg3 2.291 . S
O27 Mg6 2.114 . S
O28 C0 1.208 . S
O28 Mg8 2.031 . S
C29 O14 1.264 . S
C29 O16 1.273 . S
C30 O11 1.191 . S
C30 O13 1.307 . S
C31 O58 1.312 . S
C31 O59 1.208 . S
C32 O53 1.331 . S
C32 O56 1.244 . S
C33 O55 1.264 . S
C33 O57 1.273 . S
Mg34 O36 1.936 . S
Mg34 O43 2.081 . S
Mg34 O45 2.023 . S
Mg34 O49 2.031 . S
Mg34 O58 2.291 . S
Mg35 O36 1.963 . S
Mg35 O46 1.942 . S
Mg35 O47 1.955 . S
Mg35 O54 1.986 . S
O36 Mg34 1.936 . S
O36 Mg35 1.963 . S
O36 Mg37 1.915 . S
Mg37 O36 1.915 . S
Mg37 O38 1.915 . S
Mg37 O42 2.013 . S
Mg37 O48 2.114 . S
Mg37 O52 2.013 . S
Mg37 O58 2.114 . S
O38 Mg37 1.915 . S
O38 Mg39 1.936 . S
O38 Mg40 1.963 . S
Mg39 O38 1.936 . S
Mg39 O48 2.291 . S
Mg39 O53 2.081 . S
Mg39 O55 2.023 . S
Mg39 O59 2.031 . S
Mg40 O38 1.963 . S
Mg40 O44 1.986 . S
Mg40 O56 1.942 . S
Mg40 O57 1.955 . S
C41 O52 1.191 . S
C41 O54 1.307 . S
O42 Mg37 2.013 . S
O42 C61 1.191 . S
O43 Mg34 2.081 . S
O43 C51 1.331 . S
O44 Mg40 1.986 . S
O44 C61 1.307 . S
O45 Mg34 2.023 . S
O45 C60 1.264 . S
O46 Mg35 1.942 . S
O46 C51 1.244 . S
O47 Mg35 1.955 . S
O47 C60 1.273 . S
O48 Mg37 2.114 . S
O48 Mg39 2.291 . S
O48 C50 1.312 . S
O49 Mg34 2.031 . S
O49 C50 1.208 . S
C50 O48 1.312 . S
C50 O49 1.208 . S
C51 O43 1.331 . S
C51 O46 1.244 . S
O52 Mg37 2.013 . S
O52 C41 1.191 . S
O53 C32 1.331 . S
O53 Mg39 2.081 . S
O54 Mg35 1.986 . S
O54 C41 1.307 . S
O55 C33 1.264 . S
O55 Mg39 2.023 . S
O56 C32 1.244 . S
O56 Mg40 1.942 . S
O57 C33 1.273 . S
O57 Mg40 1.955 . S
O58 C31 1.312 . S
O58 Mg34 2.291 . S
O58 Mg37 2.114 . S
O59 C31 1.208 . S
O59 Mg39 2.031 . S
C60 O45 1.264 . S
C60 O47 1.273 . S
C61 O42 1.191 . S
C61 O44 1.307 . S
C62 O89 1.312 . S
C62 O90 1.208 . S
C63 O84 1.331 . S
C63 O87 1.244 . S
C64 O86 1.264 . S
C64 O88 1.273 . S
Mg65 O67 1.936 . S
Mg65 O74 2.081 . S
Mg65 O76 2.023 . S
Mg65 O80 2.031 . S
Mg65 O89 2.291 . S
Mg66 O67 1.963 . S
Mg66 O77 1.942 . S
Mg66 O78 1.955 . S
Mg66 O85 1.986 . S
O67 Mg65 1.936 . S
O67 Mg66 1.963 . S
O67 Mg68 1.915 . S
Mg68 O67 1.915 . S
Mg68 O69 1.915 . S
Mg68 O73 2.013 . S
Mg68 O79 2.114 . S
Mg68 O83 2.013 . S
Mg68 O89 2.114 . S
O69 Mg68 1.915 . S
O69 Mg70 1.936 . S
O69 Mg71 1.963 . S
Mg70 O69 1.936 . S
Mg70 O79 2.291 . S
Mg70 O84 2.081 . S
Mg70 O86 2.023 . S
Mg70 O90 2.031 . S
Mg71 O69 1.963 . S
Mg71 O75 1.986 . S
Mg71 O87 1.942 . S
Mg71 O88 1.955 . S
C72 O83 1.191 . S
C72 O85 1.307 . S
O73 Mg68 2.013 . S
O73 C92 1.191 . S
O74 Mg65 2.081 . S
O74 C82 1.331 . S
O75 Mg71 1.986 . S
O75 C92 1.307 . S
O76 Mg65 2.023 . S
O76 C91 1.264 . S
O77 Mg66 1.942 . S
O77 C82 1.244 . S
O78 Mg66 1.955 . S
O78 C91 1.273 . S
O79 Mg68 2.114 . S
O79 Mg70 2.291 . S
O79 C81 1.312 . S
O80 Mg65 2.031 . S
O80 C81 1.208 . S
C81 O79 1.312 . S
C81 O80 1.208 . S
C82 O74 1.331 . S
C82 O77 1.244 . S
O83 Mg68 2.013 . S
O83 C72 1.191 . S
O84 C63 1.331 . S
O84 Mg70 2.081 . S
O85 Mg66 1.986 . S
O85 C72 1.307 . S
O86 C64 1.264 . S
O86 Mg70 2.023 . S
O87 C63 1.244 . S
O87 Mg71 1.942 . S
O88 C64 1.273 . S
O88 Mg71 1.955 . S
O89 C62 1.312 . S
O89 Mg65 2.291 . S
O89 Mg68 2.114 . S
O90 C62 1.208 . S
O90 Mg70 2.031 . S
C91 O76 1.264 . S
C91 O78 1.273 . S
C92 O73 1.191 . S
C92 O75 1.307 . S
C93 O120 1.312 . S
C93 O121 1.208 . S
C94 O115 1.331 . S
C94 O118 1.244 . S
C95 O117 1.264 . S
C95 O119 1.273 . S
Mg96 O98 1.936 . S
Mg96 O105 2.081 . S
Mg96 O107 2.023 . S
Mg96 O111 2.031 . S
Mg96 O120 2.291 . S
Mg97 O98 1.963 . S
Mg97 O108 1.942 . S
Mg97 O109 1.955 . S
Mg97 O116 1.986 . S
O98 Mg96 1.936 . S
O98 Mg97 1.963 . S
O98 Mg99 1.915 . S
Mg99 O98 1.915 . S
Mg99 O100 1.915 . S
Mg99 O104 2.013 . S
Mg99 O110 2.114 . S
Mg99 O114 2.013 . S
Mg99 O120 2.114 . S
O100 Mg99 1.915 . S
O100 Mg101 1.936 . S
O100 Mg102 1.963 . S
Mg101 O100 1.936 . S
Mg101 O110 2.291 . S
Mg101 O115 2.081 . S
Mg101 O117 2.023 . S
Mg101 O121 2.031 . S
Mg102 O100 1.963 . S
Mg102 O106 1.986 . S
Mg102 O118 1.942 . S
Mg102 O119 1.955 . S
C103 O114 1.191 . S
C103 O116 1.307 . S
O104 Mg99 2.013 . S
O104 C123 1.191 . S
O105 Mg96 2.081 . S
O105 C113 1.331 . S
O106 Mg102 1.986 . S
O106 C123 1.307 . S
O107 Mg96 2.023 . S
O107 C122 1.264 . S
O108 Mg97 1.942 . S
O108 C113 1.244 . S
O109 Mg97 1.955 . S
O109 C122 1.273 . S
O110 Mg99 2.114 . S
O110 Mg101 2.291 . S
O110 C112 1.312 . S
O111 Mg96 2.031 . S
O111 C112 1.208 . S
C112 O110 1.312 . S
C112 O111 1.208 . S
C113 O105 1.331 . S
C113 O108 1.244 . S
O114 Mg99 2.013 . S
O114 C103 1.191 . S
O115 C94 1.331 . S
O115 Mg101 2.081 . S
O116 Mg97 1.986 . S
O116 C103 1.307 . S
O117 C95 1.264 . S
O117 Mg101 2.023 . S
O118 C94 1.244 . S
O118 Mg102 1.942 . S
O119 C95 1.273 . S
O119 Mg102 1.955 . S
O120 C93 1.312 . S
O120 Mg96 2.291 . S
O120 Mg99 2.114 . S
O121 C93 1.208 . S
O121 Mg101 2.031 . S
C122 O107 1.264 . S
C122 O109 1.273 . S
C123 O104 1.191 . S
C123 O106 1.307 . S
C124 O151 1.312 . S
C124 O152 1.208 . S
C125 O146 1.331 . S
C125 O149 1.244 . S
C126 O148 1.264 . S
C126 O150 1.273 . S
Mg127 O129 1.936 . S
Mg127 O136 2.081 . S
Mg127 O138 2.023 . S
Mg127 O142 2.031 . S
Mg127 O151 2.291 . S
Mg128 O129 1.963 . S
Mg128 O139 1.942 . S
Mg128 O140 1.955 . S
Mg128 O147 1.986 . S
O129 Mg127 1.936 . S
O129 Mg128 1.963 . S
O129 Mg130 1.915 . S
Mg130 O129 1.915 . S
Mg130 O131 1.915 . S
Mg130 O135 2.013 . S
Mg130 O141 2.114 . S
Mg130 O145 2.013 . S
Mg130 O151 2.114 . S
O131 Mg130 1.915 . S
O131 Mg132 1.936 . S
O131 Mg133 1.963 . S
Mg132 O131 1.936 . S
Mg132 O141 2.291 . S
Mg132 O146 2.081 . S
Mg132 O148 2.023 . S
Mg132 O152 2.031 . S
Mg133 O131 1.963 . S
Mg133 O137 1.986 . S
Mg133 O149 1.942 . S
Mg133 O150 1.955 . S
C134 O145 1.191 . S
C134 O147 1.307 . S
O135 Mg130 2.013 . S
O135 C154 1.191 . S
O136 Mg127 2.081 . S
O136 C144 1.331 . S
O137 Mg133 1.986 . S
O137 C154 1.307 . S
O138 Mg127 2.023 . S
O138 C153 1.264 . S
O139 Mg128 1.942 . S
O139 C144 1.244 . S
O140 Mg128 1.955 . S
O140 C153 1.273 . S
O141 Mg130 2.114 . S
O141 Mg132 2.291 . S
O141 C143 1.312 . S
O142 Mg127 2.031 . S
O142 C143 1.208 . S
C143 O141 1.312 . S
C143 O142 1.208 . S
C144 O136 1.331 . S
C144 O139 1.244 . S
O145 Mg130 2.013 . S
O145 C134 1.191 . S
O146 C125 1.331 . S
O146 Mg132 2.081 . S
O147 Mg128 1.986 . S
O147 C134 1.307 . S
O148 C126 1.264 . S
O148 Mg132 2.023 . S
O149 C125 1.244 . S
O149 Mg133 1.942 . S
O150 C126 1.273 . S
O150 Mg133 1.955 . S
O151 C124 1.312 . S
O151 Mg127 2.291 . S
O151 Mg130 2.114 . S
O152 C124 1.208 . S
O152 Mg132 2.031 . S
C153 O138 1.264 . S
C153 O140 1.273 . S
C154 O135 1.191 . S
C154 O137 1.307 . S
C155 O182 1.312 . S
C155 O183 1.208 . S
C156 O177 1.331 . S
C156 O180 1.244 . S
C157 O179 1.264 . S
C157 O181 1.273 . S
Mg158 O160 1.936 . S
Mg158 O167 2.081 . S
Mg158 O169 2.023 . S
Mg158 O173 2.031 . S
Mg158 O182 2.291 . S
Mg159 O160 1.963 . S
Mg159 O170 1.942 . S
Mg159 O171 1.955 . S
Mg159 O178 1.986 . S
O160 Mg158 1.936 . S
O160 Mg159 1.963 . S
O160 Mg161 1.915 . S
Mg161 O160 1.915 . S
Mg161 O162 1.915 . S
Mg161 O166 2.013 . S
Mg161 O172 2.114 . S
Mg161 O176 2.013 . S
Mg161 O182 2.114 . S
O162 Mg161 1.915 . S
O162 Mg163 1.936 . S
O162 Mg164 1.963 . S
Mg163 O162 1.936 . S
Mg163 O172 2.291 . S
Mg163 O177 2.081 . S
Mg163 O179 2.023 . S
Mg163 O183 2.031 . S
Mg164 O162 1.963 . S
Mg164 O168 1.986 . S
Mg164 O180 1.942 . S
Mg164 O181 1.955 . S
C165 O176 1.191 . S
C165 O178 1.307 . S
O166 Mg161 2.013 . S
O166 C185 1.191 . S
O167 Mg158 2.081 . S
O167 C175 1.331 . S
O168 Mg164 1.986 . S
O168 C185 1.307 . S
O169 Mg158 2.023 . S
O169 C184 1.264 . S
O170 Mg159 1.942 . S
O170 C175 1.244 . S
O171 Mg159 1.955 . S
O171 C184 1.273 . S
O172 Mg161 2.114 . S
O172 Mg163 2.291 . S
O172 C174 1.312 . S
O173 Mg158 2.031 . S
O173 C174 1.208 . S
C174 O172 1.312 . S
C174 O173 1.208 . S
C175 O167 1.331 . S
C175 O170 1.244 . S
O176 Mg161 2.013 . S
O176 C165 1.191 . S
O177 C156 1.331 . S
O177 Mg163 2.081 . S
O178 Mg159 1.986 . S
O178 C165 1.307 . S
O179 C157 1.264 . S
O179 Mg163 2.023 . S
O180 C156 1.244 . S
O180 Mg164 1.942 . S
O181 C157 1.273 . S
O181 Mg164 1.955 . S
O182 C155 1.312 . S
O182 Mg158 2.291 . S
O182 Mg161 2.114 . S
O183 C155 1.208 . S
O183 Mg163 2.031 . S
C184 O169 1.264 . S
C184 O171 1.273 . S
C185 O166 1.191 . S
C185 O168 1.307 . S
H186 C194 0.929 . S
H187 C196 0.930 . S
H188 C198 0.930 . S
H189 C201 0.929 . S
H190 C204 0.930 . S
H191 C206 0.960 . S
H192 C206 0.960 . S
H193 C206 0.960 . S
C194 H186 0.929 . S
C194 C195 1.377 . S
C194 C196 1.384 . S
C195 C194 1.377 . S
C195 C201 1.390 . S
C196 H187 0.930 . S
C196 C194 1.384 . S
C196 C197 1.372 . S
C197 C196 1.372 . S
C197 C198 1.400 . S
C197 C202 1.490 . S
C198 H188 0.930 . S
C198 C197 1.400 . S
C198 C201 1.386 . S
H199 C215 0.930 . S
H200 C216 0.931 . S
C201 H189 0.929 . S
C201 C195 1.390 . S
C201 C198 1.386 . S
C202 C197 1.490 . S
C202 C204 1.395 . S
C202 C205 1.403 . S
H203 C209 0.930 . S
C204 H190 0.930 . S
C204 C202 1.395 . S
C204 C207 1.403 . S
C205 C202 1.403 . S
C205 C206 1.524 . S
C205 C209 1.400 . S
C206 H191 0.960 . S
C206 H192 0.960 . S
C206 H193 0.960 . S
C206 C205 1.524 . S
C207 C204 1.403 . S
C207 C208 1.392 . S
C207 C211 1.495 . S
C208 C207 1.392 . S
C208 C209 1.385 . S
C208 C210 1.478 . S
C209 H203 0.930 . S
C209 C205 1.400 . S
C209 C208 1.385 . S
C210 C208 1.478 . S
C210 C212 1.381 . S
C210 C216 1.383 . S
C211 C207 1.495 . S
C211 H217 0.959 . S
C211 H218 0.961 . S
C211 H219 0.960 . S
C212 C210 1.381 . S
C212 C213 1.394 . S
C212 H220 0.930 . S
C213 C212 1.394 . S
C213 C214 1.383 . S
C213 H221 0.929 . S
C214 C213 1.383 . S
C214 C215 1.377 . S
C215 H199 0.930 . S
C215 C214 1.377 . S
C215 C216 1.379 . S
C216 H200 0.931 . S
C216 C210 1.383 . S
C216 C215 1.379 . S
H217 C211 0.959 . S
H218 C211 0.961 . S
H219 C211 0.960 . S
H220 C212 0.930 . S
H221 C213 0.929 . S
H222 C230 0.929 . S
H223 C232 0.930 . S
H224 C234 0.930 . S
H225 C237 0.929 . S
H226 C240 0.930 . S
H227 C242 0.960 . S
H228 C242 0.960 . S
H229 C242 0.960 . S
C230 H222 0.929 . S
C230 C231 1.377 . S
C230 C232 1.384 . S
C231 C230 1.377 . S
C231 C237 1.390 . S
C232 H223 0.930 . S
C232 C230 1.384 . S
C232 C233 1.372 . S
C233 C232 1.372 . S
C233 C234 1.400 . S
C233 C238 1.490 . S
C234 H224 0.930 . S
C234 C233 1.400 . S
C234 C237 1.386 . S
H235 C251 0.930 . S
H236 C252 0.931 . S
C237 H225 0.929 . S
C237 C231 1.390 . S
C237 C234 1.386 . S
C238 C233 1.490 . S
C238 C240 1.395 . S
C238 C241 1.403 . S
H239 C245 0.930 . S
C240 H226 0.930 . S
C240 C238 1.395 . S
C240 C243 1.403 . S
C241 C238 1.403 . S
C241 C242 1.524 . S
C241 C245 1.400 . S
C242 H227 0.960 . S
C242 H228 0.960 . S
C242 H229 0.960 . S
C242 C241 1.524 . S
C243 C240 1.403 . S
C243 C244 1.392 . S
C243 C247 1.495 . S
C244 C243 1.392 . S
C244 C245 1.385 . S
C244 C246 1.478 . S
C245 H239 0.930 . S
C245 C241 1.400 . S
C245 C244 1.385 . S
C246 C244 1.478 . S
C246 C248 1.381 . S
C246 C252 1.383 . S
C247 C243 1.495 . S
C247 H253 0.959 . S
C247 H254 0.961 . S
C247 H255 0.960 . S
C248 C246 1.381 . S
C248 C249 1.394 . S
C248 H256 0.930 . S
C249 C248 1.394 . S
C249 C250 1.383 . S
C249 H257 0.929 . S
C250 C249 1.383 . S
C250 C251 1.377 . S
C251 H235 0.930 . S
C251 C250 1.377 . S
C251 C252 1.379 . S
C252 H236 0.931 . S
C252 C246 1.383 . S
C252 C251 1.379 . S
H253 C247 0.959 . S
H254 C247 0.961 . S
H255 C247 0.960 . S
H256 C248 0.930 . S
H257 C249 0.929 . S
H258 C266 0.929 . S
H259 C268 0.930 . S
H260 C270 0.930 . S
H261 C273 0.929 . S
H262 C276 0.930 . S
H263 C278 0.960 . S
H264 C278 0.960 . S
H265 C278 0.960 . S
C266 H258 0.929 . S
C266 C267 1.377 . S
C266 C268 1.384 . S
C267 C266 1.377 . S
C267 C273 1.390 . S
C268 H259 0.930 . S
C268 C266 1.384 . S
C268 C269 1.372 . S
C269 C268 1.372 . S
C269 C270 1.400 . S
C269 C274 1.490 . S
C270 H260 0.930 . S
C270 C269 1.400 . S
C270 C273 1.386 . S
H271 C287 0.930 . S
H272 C288 0.931 . S
C273 H261 0.929 . S
C273 C267 1.390 . S
C273 C270 1.386 . S
C274 C269 1.490 . S
C274 C276 1.395 . S
C274 C277 1.403 . S
H275 C281 0.930 . S
C276 H262 0.930 . S
C276 C274 1.395 . S
C276 C279 1.403 . S
C277 C274 1.403 . S
C277 C278 1.524 . S
C277 C281 1.400 . S
C278 H263 0.960 . S
C278 H264 0.960 . S
C278 H265 0.960 . S
C278 C277 1.524 . S
C279 C276 1.403 . S
C279 C280 1.392 . S
C279 C283 1.495 . S
C280 C279 1.392 . S
C280 C281 1.385 . S
C280 C282 1.478 . S
C281 H275 0.930 . S
C281 C277 1.400 . S
C281 C280 1.385 . S
C282 C280 1.478 . S
C282 C284 1.381 . S
C282 C288 1.383 . S
C283 C279 1.495 . S
C283 H289 0.959 . S
C283 H290 0.961 . S
C283 H291 0.960 . S
C284 C282 1.381 . S
C284 C285 1.394 . S
C284 H292 0.930 . S
C285 C284 1.394 . S
C285 C286 1.383 . S
C285 H293 0.929 . S
C286 C285 1.383 . S
C286 C287 1.377 . S
C287 H271 0.930 . S
C287 C286 1.377 . S
C287 C288 1.379 . S
C288 H272 0.931 . S
C288 C282 1.383 . S
C288 C287 1.379 . S
H289 C283 0.959 . S
H290 C283 0.961 . S
H291 C283 0.960 . S
H292 C284 0.930 . S
H293 C285 0.929 . S
H294 C302 0.929 . S
H295 C304 0.930 . S
H296 C306 0.930 . S
H297 C309 0.929 . S
H298 C312 0.930 . S
H299 C314 0.960 . S
H300 C314 0.960 . S
H301 C314 0.960 . S
C302 H294 0.929 . S
C302 C303 1.377 . S
C302 C304 1.384 . S
C303 C302 1.377 . S
C303 C309 1.390 . S
C304 H295 0.930 . S
C304 C302 1.384 . S
C304 C305 1.372 . S
C305 C304 1.372 . S
C305 C306 1.400 . S
C305 C310 1.490 . S
C306 H296 0.930 . S
C306 C305 1.400 . S
C306 C309 1.386 . S
H307 C323 0.930 . S
H308 C324 0.931 . S
C309 H297 0.929 . S
C309 C303 1.390 . S
C309 C306 1.386 . S
C310 C305 1.490 . S
C310 C312 1.395 . S
C310 C313 1.403 . S
H311 C317 0.930 . S
C312 H298 0.930 . S
C312 C310 1.395 . S
C312 C315 1.403 . S
C313 C310 1.403 . S
C313 C314 1.524 . S
C313 C317 1.400 . S
C314 H299 0.960 . S
C314 H300 0.960 . S
C314 H301 0.960 . S
C314 C313 1.524 . S
C315 C312 1.403 . S
C315 C316 1.392 . S
C315 C319 1.495 . S
C316 C315 1.392 . S
C316 C317 1.385 . S
C316 C318 1.478 . S
C317 H311 0.930 . S
C317 C313 1.400 . S
C317 C316 1.385 . S
C318 C316 1.478 . S
C318 C320 1.381 . S
C318 C324 1.383 . S
C319 C315 1.495 . S
C319 H325 0.959 . S
C319 H326 0.961 . S
C319 H327 0.960 . S
C320 C318 1.381 . S
C320 C321 1.394 . S
C320 H328 0.930 . S
C321 C320 1.394 . S
C321 C322 1.383 . S
C321 H329 0.929 . S
C322 C321 1.383 . S
C322 C323 1.377 . S
C323 H307 0.930 . S
C323 C322 1.377 . S
C323 C324 1.379 . S
C324 H308 0.931 . S
C324 C318 1.383 . S
C324 C323 1.379 . S
H325 C319 0.959 . S
H326 C319 0.961 . S
H327 C319 0.960 . S
H328 C320 0.930 . S
H329 C321 0.929 . S
H330 C338 0.929 . S
H331 C340 0.930 . S
H332 C342 0.930 . S
H333 C345 0.929 . S
H334 C348 0.930 . S
H335 C350 0.960 . S
H336 C350 0.960 . S
H337 C350 0.960 . S
C338 H330 0.929 . S
C338 C339 1.377 . S
C338 C340 1.384 . S
C339 C338 1.377 . S
C339 C345 1.390 . S
C340 H331 0.930 . S
C340 C338 1.384 . S
C340 C341 1.372 . S
C341 C340 1.372 . S
C341 C342 1.400 . S
C341 C346 1.490 . S
C342 H332 0.930 . S
C342 C341 1.400 . S
C342 C345 1.386 . S
H343 C359 0.930 . S
H344 C360 0.931 . S
C345 H333 0.929 . S
C345 C339 1.390 . S
C345 C342 1.386 . S
C346 C341 1.490 . S
C346 C348 1.395 . S
C346 C349 1.403 . S
H347 C353 0.930 . S
C348 H334 0.930 . S
C348 C346 1.395 . S
C348 C351 1.403 . S
C349 C346 1.403 . S
C349 C350 1.524 . S
C349 C353 1.400 . S
C350 H335 0.960 . S
C350 H336 0.960 . S
C350 H337 0.960 . S
C350 C349 1.524 . S
C351 C348 1.403 . S
C351 C352 1.392 . S
C351 C355 1.495 . S
C352 C351 1.392 . S
C352 C353 1.385 . S
C352 C354 1.478 . S
C353 H347 0.930 . S
C353 C349 1.400 . S
C353 C352 1.385 . S
C354 C352 1.478 . S
C354 C356 1.381 . S
C354 C360 1.383 . S
C355 C351 1.495 . S
C355 H361 0.959 . S
C355 H362 0.961 . S
C355 H363 0.960 . S
C356 C354 1.381 . S
C356 C357 1.394 . S
C356 H364 0.930 . S
C357 C356 1.394 . S
C357 C358 1.383 . S
C357 H365 0.929 . S
C358 C357 1.383 . S
C358 C359 1.377 . S
C359 H343 0.930 . S
C359 C358 1.377 . S
C359 C360 1.379 . S
C360 H344 0.931 . S
C360 C354 1.383 . S
C360 C359 1.379 . S
H361 C355 0.959 . S
H362 C355 0.961 . S
H363 C355 0.960 . S
H364 C356 0.930 . S
H365 C357 0.929 . S
H366 C374 0.929 . S
H367 C376 0.930 . S
H368 C378 0.930 . S
H369 C381 0.929 . S
H370 C384 0.930 . S
H371 C386 0.960 . S
H372 C386 0.960 . S
H373 C386 0.960 . S
C374 H366 0.929 . S
C374 C375 1.377 . S
C374 C376 1.384 . S
C375 C374 1.377 . S
C375 C381 1.390 . S
C376 H367 0.930 . S
C376 C374 1.384 . S
C376 C377 1.372 . S
C377 C376 1.372 . S
C377 C378 1.400 . S
C377 C382 1.490 . S
C378 H368 0.930 . S
C378 C377 1.400 . S
C378 C381 1.386 . S
H379 C395 0.930 . S
H380 C396 0.931 . S
C381 H369 0.929 . S
C381 C375 1.390 . S
C381 C378 1.386 . S
C382 C377 1.490 . S
C382 C384 1.395 . S
C382 C385 1.403 . S
H383 C389 0.930 . S
C384 H370 0.930 . S
C384 C382 1.395 . S
C384 C387 1.403 . S
C385 C382 1.403 . S
C385 C386 1.524 . S
C385 C389 1.400 . S
C386 H371 0.960 . S
C386 H372 0.960 . S
C386 H373 0.960 . S
C386 C385 1.524 . S
C387 C384 1.403 . S
C387 C388 1.392 . S
C387 C391 1.495 . S
C388 C387 1.392 . S
C388 C389 1.385 . S
C388 C390 1.478 . S
C389 H383 0.930 . S
C389 C385 1.400 . S
C389 C388 1.385 . S
C390 C388 1.478 . S
C390 C392 1.381 . S
C390 C396 1.383 . S
C391 C387 1.495 . S
C391 H397 0.959 . S
C391 H398 0.961 . S
C391 H399 0.960 . S
C392 C390 1.381 . S
C392 C393 1.394 . S
C392 H400 0.930 . S
C393 C392 1.394 . S
C393 C394 1.383 . S
C393 H401 0.929 . S
C394 C393 1.383 . S
C394 C395 1.377 . S
C395 H379 0.930 . S
C395 C394 1.377 . S
C395 C396 1.379 . S
C396 H380 0.931 . S
C396 C390 1.383 . S
C396 C395 1.379 . S
H397 C391 0.959 . S
H398 C391 0.961 . S
H399 C391 0.960 . S
H400 C392 0.930 . S
H401 C393 0.929 . S
H402 C410 0.929 . S
H403 C412 0.930 . S
H404 C414 0.930 . S
H405 C417 0.929 . S
H406 C420 0.930 . S
H407 C422 0.960 . S
H408 C422 0.960 . S
H409 C422 0.960 . S
C410 H402 0.929 . S
C410 C411 1.377 . S
C410 C412 1.384 . S
C411 C410 1.377 . S
C411 C417 1.390 . S
C412 H403 0.930 . S
C412 C410 1.384 . S
C412 C413 1.372 . S
C413 C412 1.372 . S
C413 C414 1.400 . S
C413 C418 1.490 . S
C414 H404 0.930 . S
C414 C413 1.400 . S
C414 C417 1.386 . S
H415 C431 0.930 1_565 S
H416 C432 0.931 . S
C417 H405 0.929 . S
C417 C411 1.390 . S
C417 C414 1.386 . S
C418 C413 1.490 . S
C418 C420 1.395 . S
C418 C421 1.403 . S
H419 C425 0.930 . S
C420 H406 0.930 . S
C420 C418 1.395 . S
C420 C423 1.403 . S
C421 C418 1.403 . S
C421 C422 1.524 . S
C421 C425 1.400 . S
C422 H407 0.960 . S
C422 H408 0.960 . S
C422 H409 0.960 . S
C422 C421 1.524 . S
C423 C420 1.403 . S
C423 C424 1.392 . S
C423 C427 1.495 . S
C424 C423 1.392 . S
C424 C425 1.385 . S
C424 C426 1.478 . S
C425 H419 0.930 . S
C425 C421 1.400 . S
C425 C424 1.385 . S
C426 C424 1.478 . S
C426 C428 1.381 . S
C426 C432 1.383 . S
C427 C423 1.495 . S
C427 H433 0.959 . S
C427 H434 0.961 . S
C427 H435 0.960 . S
C428 C426 1.381 . S
C428 C429 1.394 . S
C428 H436 0.930 . S
C429 C428 1.394 . S
C429 C430 1.383 1_545 S
C429 H437 0.929 . S
C430 C429 1.383 1_565 S
C430 C431 1.377 1_565 S
C431 H415 0.930 1_545 S
C431 C430 1.377 1_545 S
C431 C432 1.379 . S
C432 H416 0.931 . S
C432 C426 1.383 . S
C432 C431 1.379 . S
H433 C427 0.959 . S
H434 C427 0.961 . S
H435 C427 0.960 . S
H436 C428 0.930 . S
H437 C429 0.929 . S
H438 C446 0.929 . S
H439 C448 0.930 . S
H440 C450 0.930 . S
H441 C453 0.929 . S
H442 C456 0.930 . S
H443 C458 0.960 . S
H444 C458 0.960 . S
H445 C458 0.960 . S
C446 H438 0.929 . S
C446 C447 1.377 . S
C446 C448 1.384 . S
C447 C446 1.377 . S
C447 C453 1.390 . S
C448 H439 0.930 . S
C448 C446 1.384 . S
C448 C449 1.372 . S
C449 C448 1.372 . S
C449 C450 1.400 . S
C449 C454 1.490 1_655 S
C450 H440 0.930 . S
C450 C449 1.400 . S
C450 C453 1.386 . S
H451 C467 0.930 . S
H452 C468 0.931 . S
C453 H441 0.929 . S
C453 C447 1.390 . S
C453 C450 1.386 . S
C454 C449 1.490 1_455 S
C454 C456 1.395 . S
C454 C457 1.403 . S
H455 C461 0.930 . S
C456 H442 0.930 . S
C456 C454 1.395 . S
C456 C459 1.403 . S
C457 C454 1.403 . S
C457 C458 1.524 . S
C457 C461 1.400 . S
C458 H443 0.960 . S
C458 H444 0.960 . S
C458 H445 0.960 . S
C458 C457 1.524 . S
C459 C456 1.403 . S
C459 C460 1.392 . S
C459 C463 1.495 . S
C460 C459 1.392 . S
C460 C461 1.385 . S
C460 C462 1.478 . S
C461 H455 0.930 . S
C461 C457 1.400 . S
C461 C460 1.385 . S
C462 C460 1.478 . S
C462 C464 1.381 . S
C462 C468 1.383 . S
C463 C459 1.495 . S
C463 H469 0.959 . S
C463 H470 0.961 . S
C463 H471 0.960 . S
C464 C462 1.381 . S
C464 C465 1.394 . S
C464 H472 0.930 . S
C465 C464 1.394 . S
C465 C466 1.383 . S
C465 H473 0.929 . S
C466 C465 1.383 . S
C466 C467 1.377 . S
C467 H451 0.930 . S
C467 C466 1.377 . S
C467 C468 1.379 . S
C468 H452 0.931 . S
C468 C462 1.383 . S
C468 C467 1.379 . S
H469 C463 0.959 . S
H470 C463 0.961 . S
H471 C463 0.960 . S
H472 C464 0.930 . S
H473 C465 0.929 . S
H474 C482 0.929 . S
H475 C484 0.930 . S
H476 C486 0.930 . S
H477 C489 0.929 . S
H478 C492 0.930 . S
H479 C494 0.960 . S
H480 C494 0.960 . S
H481 C494 0.960 . S
C482 H474 0.929 . S
C482 C483 1.377 1_655 S
C482 C484 1.384 . S
C483 C482 1.377 1_455 S
C483 C489 1.390 . S
C484 H475 0.930 . S
C484 C482 1.384 . S
C484 C485 1.372 . S
C485 C484 1.372 . S
C485 C486 1.400 . S
C485 C490 1.490 . S
C486 H476 0.930 . S
C486 C485 1.400 . S
C486 C489 1.386 1_655 S
H487 C503 0.930 . S
H488 C504 0.931 . S
C489 H477 0.929 . S
C489 C483 1.390 . S
C489 C486 1.386 1_455 S
C490 C485 1.490 . S
C490 C492 1.395 . S
C490 C493 1.403 . S
H491 C497 0.930 . S
C492 H478 0.930 . S
C492 C490 1.395 . S
C492 C495 1.403 . S
C493 C490 1.403 . S
C493 C494 1.524 . S
C493 C497 1.400 . S
C494 H479 0.960 . S
C494 H480 0.960 . S
C494 H481 0.960 . S
C494 C493 1.524 . S
C495 C492 1.403 . S
C495 C496 1.392 . S
C495 C499 1.495 . S
C496 C495 1.392 . S
C496 C497 1.385 . S
C496 C498 1.478 1_545 S
C497 H491 0.930 . S
C497 C493 1.400 . S
C497 C496 1.385 . S
C498 C496 1.478 1_565 S
C498 C500 1.381 . S
C498 C504 1.383 . S
C499 C495 1.495 . S
C499 H505 0.959 . S
C499 H506 0.961 . S
C499 H507 0.960 . S
C500 C498 1.381 . S
C500 C501 1.394 . S
C500 H508 0.930 . S
C501 C500 1.394 . S
C501 C502 1.383 . S
C501 H509 0.929 . S
C502 C501 1.383 . S
C502 C503 1.377 . S
C503 H487 0.930 . S
C503 C502 1.377 . S
C503 C504 1.379 . S
C504 H488 0.931 . S
C504 C498 1.383 . S
C504 C503 1.379 . S
H505 C499 0.959 . S
H506 C499 0.961 . S
H507 C499 0.960 . S
H508 C500 0.930 . S
H509 C501 0.929 . S
H510 C518 0.929 . S
H511 C520 0.930 . S
H512 C522 0.930 . S
H513 C525 0.929 1_545 S
H514 C528 0.930 . S
H515 C530 0.960 . S
H516 C530 0.960 . S
H517 C530 0.960 . S
C518 H510 0.929 . S
C518 C519 1.377 1_565 S
C518 C520 1.384 . S
C519 C518 1.377 1_545 S
C519 C525 1.390 1_545 S
C520 H511 0.930 . S
C520 C518 1.384 . S
C520 C521 1.372 . S
C521 C520 1.372 . S
C521 C522 1.400 . S
C521 C526 1.490 . S
C522 H512 0.930 . S
C522 C521 1.400 . S
C522 C525 1.386 . S
H523 C539 0.930 . S
H524 C540 0.931 . S
C525 H513 0.929 1_565 S
C525 C519 1.390 1_565 S
C525 C522 1.386 . S
C526 C521 1.490 . S
C526 C528 1.395 . S
C526 C529 1.403 . S
H527 C533 0.930 . S
C528 H514 0.930 . S
C528 C526 1.395 . S
C528 C531 1.403 . S
C529 C526 1.403 . S
C529 C530 1.524 . S
C529 C533 1.400 . S
C530 H515 0.960 . S
C530 H516 0.960 . S
C530 H517 0.960 . S
C530 C529 1.524 . S
C531 C528 1.403 . S
C531 C532 1.392 . S
C531 C535 1.495 . S
C532 C531 1.392 . S
C532 C533 1.385 . S
C532 C534 1.478 . S
C533 H527 0.930 . S
C533 C529 1.400 . S
C533 C532 1.385 . S
C534 C532 1.478 . S
C534 C536 1.381 . S
C534 C540 1.383 . S
C535 C531 1.495 . S
C535 H541 0.959 . S
C535 H542 0.961 . S
C535 H543 0.960 . S
C536 C534 1.381 . S
C536 C537 1.394 . S
C536 H544 0.930 . S
C537 C536 1.394 . S
C537 C538 1.383 . S
C537 H545 0.929 . S
C538 C537 1.383 . S
C538 C539 1.377 . S
C539 H523 0.930 . S
C539 C538 1.377 . S
C539 C540 1.379 . S
C540 H524 0.931 . S
C540 C534 1.383 . S
C540 C539 1.379 . S
H541 C535 0.959 . S
H542 C535 0.961 . S
H543 C535 0.960 . S
H544 C536 0.930 . S
H545 C537 0.929 . S
H546 C554 0.929 . S
H547 C556 0.930 . S
H548 C558 0.930 . S
H549 C561 0.929 . S
H550 C564 0.930 . S
H551 C566 0.960 . S
H552 C566 0.960 . S
H553 C566 0.960 . S
C554 H546 0.929 . S
C554 C555 1.377 . S
C554 C556 1.384 . S
C555 C554 1.377 . S
C555 C561 1.390 . S
C556 H547 0.930 . S
C556 C554 1.384 . S
C556 C557 1.372 . S
C557 C556 1.372 . S
C557 C558 1.400 . S
C557 C562 1.490 . S
C558 H548 0.930 . S
C558 C557 1.400 . S
C558 C561 1.386 . S
H559 C575 0.930 . S
H560 C576 0.931 . S
C561 H549 0.929 . S
C561 C555 1.390 . S
C561 C558 1.386 . S
C562 C557 1.490 . S
C562 C564 1.395 . S
C562 C565 1.403 . S
H563 C569 0.930 . S
C564 H550 0.930 . S
C564 C562 1.395 . S
C564 C567 1.403 . S
C565 C562 1.403 . S
C565 C566 1.524 . S
C565 C569 1.400 . S
C566 H551 0.960 . S
C566 H552 0.960 . S
C566 H553 0.960 . S
C566 C565 1.524 . S
C567 C564 1.403 . S
C567 C568 1.392 . S
C567 C571 1.498 . S
C568 C567 1.392 . S
C568 C569 1.385 . S
C568 C570 1.478 1_655 S
C569 H563 0.930 . S
C569 C565 1.400 . S
C569 C568 1.385 . S
C570 C568 1.478 1_455 S
C570 C572 1.381 . S
C570 C576 1.383 . S
C571 C567 1.498 . S
C571 H577 0.969 . S
C571 H578 0.954 1_655 S
C571 H579 0.953 1_655 S
C572 C570 1.381 . S
C572 C573 1.394 . S
C572 H580 0.930 . S
C573 C572 1.394 . S
C573 C574 1.383 . S
C573 H581 0.929 . S
C574 C573 1.383 . S
C574 C575 1.377 . S
C575 H559 0.930 . S
C575 C574 1.377 . S
C575 C576 1.379 . S
C576 H560 0.931 . S
C576 C570 1.383 . S
C576 C575 1.379 . S
H577 C571 0.969 . S
H578 C571 0.954 1_455 S
H579 C571 0.953 1_455 S
H580 C572 0.930 . S
H581 C573 0.929 . S
H582 C590 0.929 . S
H583 C592 0.930 . S
H584 C594 0.930 . S
H585 C597 0.929 . S
H586 C600 0.930 . S
H587 C602 0.960 . S
H588 C602 0.960 . S
H589 C602 0.960 . S
C590 H582 0.929 . S
C590 C591 1.377 . S
C590 C592 1.384 . S
C591 C590 1.377 . S
C591 C597 1.390 . S
C592 H583 0.930 . S
C592 C590 1.384 . S
C592 C593 1.372 . S
C593 C592 1.372 . S
C593 C594 1.400 . S
C593 C598 1.490 1_545 S
C594 H584 0.930 . S
C594 C593 1.400 . S
C594 C597 1.386 . S
H595 C611 0.930 . S
H596 C612 0.931 . S
C597 H585 0.929 . S
C597 C591 1.390 . S
C597 C594 1.386 . S
C598 C593 1.490 1_565 S
C598 C600 1.395 . S
C598 C601 1.403 . S
H599 C605 0.930 . S
C600 H586 0.930 . S
C600 C598 1.395 . S
C600 C603 1.403 . S
C601 C598 1.403 . S
C601 C602 1.524 . S
C601 C605 1.400 . S
C602 H587 0.960 . S
C602 H588 0.960 . S
C602 H589 0.960 . S
C602 C601 1.524 . S
C603 C600 1.403 . S
C603 C604 1.392 . S
C603 C607 1.495 . S
C604 C603 1.392 . S
C604 C605 1.385 . S
C604 C606 1.478 . S
C605 H599 0.930 . S
C605 C601 1.400 . S
C605 C604 1.385 . S
C606 C604 1.478 . S
C606 C608 1.381 . S
C606 C612 1.383 . S
C607 C603 1.495 . S
C607 H613 0.959 . S
C607 H614 0.961 . S
C607 H615 0.960 . S
C608 C606 1.381 . S
C608 C609 1.394 . S
C608 H616 0.930 . S
C609 C608 1.394 . S
C609 C610 1.383 1_455 S
C609 H617 0.929 . S
C610 C609 1.383 1_655 S
C610 C611 1.377 . S
C611 H595 0.930 . S
C611 C610 1.377 . S
C611 C612 1.379 1_655 S
C612 H596 0.931 . S
C612 C606 1.383 . S
C612 C611 1.379 1_455 S
H613 C607 0.959 . S
H614 C607 0.961 . S
H615 C607 0.960 . S
H616 C608 0.930 . S
H617 C609 0.929 . S
H618 C626 0.929 . S
H619 C628 0.930 . S
H620 C630 0.930 . S
H621 C633 0.929 . S
H622 C636 0.930 . S
H623 C638 0.960 . S
H624 C638 0.960 . S
H625 C638 0.960 . S
C626 H618 0.929 . S
C626 C627 1.377 . S
C626 C628 1.384 . S
C627 C626 1.377 . S
C627 C633 1.390 . S
C628 H619 0.930 . S
C628 C626 1.384 . S
C628 C629 1.372 . S
C629 C628 1.372 . S
C629 C630 1.400 . S
C629 C634 1.490 . S
C630 H620 0.930 . S
C630 C629 1.400 . S
C630 C633 1.386 . S
H631 C647 0.930 . S
H632 C648 0.931 . S
C633 H621 0.929 . S
C633 C627 1.390 . S
C633 C630 1.386 . S
C634 C629 1.490 . S
C634 C636 1.395 . S
C634 C637 1.403 . S
H635 C641 0.930 . S
C636 H622 0.930 . S
C636 C634 1.395 . S
C636 C639 1.403 1_554 S
C637 C634 1.403 . S
C637 C638 1.524 . S
C637 C641 1.400 1_554 S
C638 H623 0.960 . S
C638 H624 0.960 . S
C638 H625 0.960 . S
C638 C637 1.524 . S
C639 C636 1.403 1_556 S
C639 C640 1.392 . S
C639 C643 1.495 . S
C640 C639 1.392 . S
C640 C641 1.385 . S
C640 C642 1.478 . S
C641 H635 0.930 . S
C641 C637 1.400 1_556 S
C641 C640 1.385 . S
C642 C640 1.478 . S
C642 C644 1.381 . S
C642 C648 1.383 . S
C643 C639 1.495 . S
C643 H649 0.959 . S
C643 H650 0.961 . S
C643 H651 0.960 . S
C644 C642 1.381 . S
C644 C645 1.394 . S
C644 H652 0.930 . S
C645 C644 1.394 . S
C645 C646 1.383 . S
C645 H653 0.929 . S
C646 C645 1.383 . S
C646 C647 1.377 . S
C647 H631 0.930 . S
C647 C646 1.377 . S
C647 C648 1.379 . S
C648 H632 0.931 . S
C648 C642 1.383 . S
C648 C647 1.379 . S
H649 C643 0.959 . S
H650 C643 0.961 . S
H651 C643 0.960 . S
H652 C644 0.930 . S
H653 C645 0.929 . S
H654 C662 0.929 . S
H655 C664 0.930 . S
H656 C666 0.930 . S
H657 C669 0.929 . S
H658 C672 0.930 . S
H659 C674 0.960 . S
H660 C674 0.960 . S
H661 C674 0.960 . S
C662 H654 0.929 . S
C662 C663 1.377 . S
C662 C664 1.384 . S
C663 C662 1.377 . S
C663 C669 1.390 . S
C664 H655 0.930 . S
C664 C662 1.384 . S
C664 C665 1.372 . S
C665 C664 1.372 . S
C665 C666 1.400 . S
C665 C670 1.490 . S
C666 H656 0.930 . S
C666 C665 1.400 . S
C666 C669 1.386 . S
H667 C683 0.930 . S
H668 C684 0.931 1_655 S
C669 H657 0.929 . S
C669 C663 1.390 . S
C669 C666 1.386 . S
C670 C665 1.490 . S
C670 C672 1.395 . S
C670 C673 1.403 . S
H671 C677 0.930 . S
C672 H658 0.930 . S
C672 C670 1.395 . S
C672 C675 1.403 1_655 S
C673 C670 1.403 . S
C673 C674 1.524 . S
C673 C677 1.400 . S
C674 H659 0.960 . S
C674 H660 0.960 . S
C674 H661 0.960 . S
C674 C673 1.524 . S
C675 C672 1.403 1_455 S
C675 C676 1.392 . S
C675 C679 1.495 . S
C676 C675 1.392 . S
C676 C677 1.385 1_455 S
C676 C678 1.478 . S
C677 H671 0.930 . S
C677 C673 1.400 . S
C677 C676 1.385 1_655 S
C678 C676 1.478 . S
C678 C680 1.381 . S
C678 C684 1.383 . S
C679 C675 1.495 . S
C679 H685 0.959 . S
C679 H686 0.961 . S
C679 H687 0.960 . S
C680 C678 1.381 . S
C680 C681 1.394 . S
C680 H688 0.930 . S
C681 C680 1.394 . S
C681 C682 1.383 . S
C681 H689 0.929 . S
C682 C681 1.383 . S
C682 C683 1.377 . S
C683 H667 0.930 . S
C683 C682 1.377 . S
C683 C684 1.379 . S
C684 H668 0.931 1_455 S
C684 C678 1.383 . S
C684 C683 1.379 . S
H685 C679 0.959 . S
H686 C679 0.961 . S
H687 C679 0.960 . S
H688 C680 0.930 . S
H689 C681 0.929 . S
H690 C698 0.929 . S
H691 C700 0.930 . S
H692 C702 0.930 . S
H693 C705 0.929 . S
H694 C708 0.930 . S
H695 C710 0.960 . S
H696 C710 0.960 1_554 S
H697 C710 0.960 1_554 S
C698 H690 0.929 . S
C698 C699 1.377 . S
C698 C700 1.384 . S
C699 C698 1.377 . S
C699 C705 1.390 . S
C700 H691 0.930 . S
C700 C698 1.384 . S
C700 C701 1.372 . S
C701 C700 1.372 . S
C701 C702 1.400 . S
C701 C706 1.490 . S
C702 H692 0.930 . S
C702 C701 1.400 . S
C702 C705 1.386 . S
H703 C719 0.930 . S
H704 C720 0.931 . S
C705 H693 0.929 . S
C705 C699 1.390 . S
C705 C702 1.386 . S
C706 C701 1.490 . S
C706 C708 1.395 1_565 S
C706 C709 1.403 . S
H707 C713 0.930 . S
C708 H694 0.930 . S
C708 C706 1.395 1_545 S
C708 C711 1.403 . S
C709 C706 1.403 . S
C709 C710 1.524 1_554 S
C709 C713 1.400 1_554 S
C710 H695 0.960 . S
C710 H696 0.960 1_556 S
C710 H697 0.960 1_556 S
C710 C709 1.524 1_556 S
C711 C708 1.403 . S
C711 C712 1.392 1_554 S
C711 C715 1.495 . S
C712 C711 1.392 1_556 S
C712 C713 1.385 1_545 S
C712 C714 1.478 . S
C713 H707 0.930 . S
C713 C709 1.400 1_556 S
C713 C712 1.385 1_565 S
C714 C712 1.478 . S
C714 C716 1.381 . S
C714 C720 1.383 . S
C715 C711 1.495 . S
C715 H721 0.959 . S
C715 H722 0.961 . S
C715 H723 0.956 1_554 S
C716 C714 1.381 . S
C716 C717 1.394 . S
C716 H724 0.930 . S
C717 C716 1.394 . S
C717 C718 1.383 . S
C717 H725 0.929 . S
C718 C717 1.383 . S
C718 C719 1.377 . S
C719 H703 0.930 . S
C719 C718 1.377 . S
C719 C720 1.379 . S
C720 H704 0.931 . S
C720 C714 1.383 . S
C720 C719 1.379 . S
H721 C715 0.959 . S
H722 C715 0.961 . S
H723 C715 0.956 1_556 S
H724 C716 0.930 . S
H725 C717 0.929 . S
H726 C734 0.929 . S
H727 C736 0.930 . S
H728 C738 0.930 . S
H729 C741 0.929 . S
H730 C744 0.930 . S
H731 C746 0.960 . S
H732 C746 0.960 . S
H733 C746 0.960 . S
C734 H726 0.929 . S
C734 C735 1.377 . S
C734 C736 1.384 . S
C735 C734 1.377 . S
C735 C741 1.390 . S
C736 H727 0.930 . S
C736 C734 1.384 . S
C736 C737 1.372 . S
C737 C736 1.372 . S
C737 C738 1.400 . S
C737 C742 1.490 . S
C738 H728 0.930 . S
C738 C737 1.400 . S
C738 C741 1.386 . S
H739 C755 0.930 . S
H740 C756 0.931 . S
C741 H729 0.929 . S
C741 C735 1.390 . S
C741 C738 1.386 . S
C742 C737 1.490 . S
C742 C744 1.395 . S
C742 C745 1.403 . S
H743 C749 0.930 . S
C744 H730 0.930 . S
C744 C742 1.395 . S
C744 C747 1.403 . S
C745 C742 1.403 . S
C745 C746 1.524 . S
C745 C749 1.400 . S
C746 H731 0.960 . S
C746 H732 0.960 . S
C746 H733 0.960 . S
C746 C745 1.524 . S
C747 C744 1.403 . S
C747 C748 1.392 . S
C747 C751 1.495 . S
C748 C747 1.392 . S
C748 C749 1.385 . S
C748 C750 1.478 . S
C749 H743 0.930 . S
C749 C745 1.400 . S
C749 C748 1.385 . S
C750 C748 1.478 . S
C750 C752 1.381 . S
C750 C756 1.383 . S
C751 C747 1.495 . S
C751 H757 0.959 . S
C751 H758 0.961 . S
C751 H759 0.960 . S
C752 C750 1.381 . S
C752 C753 1.394 . S
C752 H760 0.930 . S
C753 C752 1.394 . S
C753 C754 1.383 . S
C753 H761 0.929 . S
C754 C753 1.383 . S
C754 C755 1.377 . S
C755 H739 0.930 . S
C755 C754 1.377 . S
C755 C756 1.379 . S
C756 H740 0.931 . S
C756 C750 1.383 . S
C756 C755 1.379 . S
H757 C751 0.959 . S
H758 C751 0.961 . S
H759 C751 0.960 . S
H760 C752 0.930 . S
H761 C753 0.929 . S
H762 C770 0.929 . S
H763 C772 0.930 1_455 S
H764 C774 0.930 . S
H765 C777 0.929 . S
H766 C780 0.942 . S
H767 C782 0.960 . S
H768 C782 0.960 . S
H769 C782 0.960 1_655 S
C770 H762 0.929 . S
C770 C771 1.377 . S
C770 C772 1.384 . S
C771 C770 1.377 . S
C771 C777 1.390 . S
C772 H763 0.930 1_655 S
C772 C770 1.384 . S
C772 C773 1.372 . S
C773 C772 1.372 . S
C773 C774 1.400 . S
C773 C778 1.490 . S
C774 H764 0.930 . S
C774 C773 1.400 . S
C774 C777 1.386 . S
H775 C791 0.930 . S
H776 C792 0.931 . S
C777 H765 0.929 . S
C777 C771 1.390 . S
C777 C774 1.386 . S
C778 C773 1.490 . S
C778 C780 1.389 . S
C778 C781 1.403 1_655 S
H779 C785 0.930 . S
C780 H766 0.942 . S
C780 C778 1.389 . S
C780 C783 1.397 1_656 S
C781 C778 1.403 1_455 S
C781 C782 1.524 . S
C781 C785 1.400 1_556 S
C782 H767 0.960 . S
C782 H768 0.960 . S
C782 H769 0.960 1_455 S
C782 C781 1.524 . S
C783 C780 1.397 1_454 S
C783 C784 1.392 . S
C783 C787 1.495 . S
C784 C783 1.392 . S
C784 C785 1.385 . S
C784 C786 1.478 . S
C785 H779 0.930 . S
C785 C781 1.400 1_554 S
C785 C784 1.385 . S
C786 C784 1.478 . S
C786 C788 1.381 . S
C786 C792 1.383 . S
C787 C783 1.495 . S
C787 H793 0.959 . S
C787 H794 0.961 . S
C787 H795 0.960 . S
C788 C786 1.381 . S
C788 C789 1.394 . S
C788 H796 0.930 . S
C789 C788 1.394 . S
C789 C790 1.383 . S
C789 H797 0.929 . S
C790 C789 1.383 . S
C790 C791 1.377 . S
C791 H775 0.930 . S
C791 C790 1.377 . S
C791 C792 1.379 . S
C792 H776 0.931 . S
C792 C786 1.383 . S
C792 C791 1.379 . S
H793 C787 0.959 . S
H794 C787 0.961 . S
H795 C787 0.960 . S
H796 C788 0.930 . S
H797 C789 0.929 . S
H798 C806 0.929 . S
H799 C808 0.930 . S
H800 C810 0.930 . S
H801 C813 0.929 . S
H802 C816 0.930 . S
H803 C818 0.960 . S
H804 C818 0.960 . S
H805 C818 0.960 . S
C806 H798 0.929 . S
C806 C807 1.377 . S
C806 C808 1.384 . S
C807 C806 1.377 . S
C807 C813 1.390 . S
C808 H799 0.930 . S
C808 C806 1.384 . S
C808 C809 1.372 . S
C809 C808 1.372 . S
C809 C810 1.400 . S
C809 C814 1.490 . S
C810 H800 0.930 . S
C810 C809 1.400 . S
C810 C813 1.386 . S
H811 C827 0.930 . S
H812 C828 0.931 . S
C813 H801 0.929 . S
C813 C807 1.390 . S
C813 C810 1.386 . S
C814 C809 1.490 . S
C814 C816 1.395 1_545 S
C814 C817 1.403 . S
H815 C821 0.930 . S
C816 H802 0.930 . S
C816 C814 1.395 1_565 S
C816 C819 1.403 . S
C817 C814 1.403 . S
C817 C818 1.524 . S
C817 C821 1.400 . S
C818 H803 0.960 . S
C818 H804 0.960 . S
C818 H805 0.960 . S
C818 C817 1.524 . S
C819 C816 1.403 . S
C819 C820 1.392 . S
C819 C823 1.495 . S
C820 C819 1.392 . S
C820 C821 1.385 1_565 S
C820 C822 1.478 . S
C821 H815 0.930 . S
C821 C817 1.400 . S
C821 C820 1.385 1_545 S
C822 C820 1.478 . S
C822 C824 1.381 . S
C822 C828 1.383 . S
C823 C819 1.495 . S
C823 H829 0.959 . S
C823 H830 0.961 . S
C823 H831 0.960 . S
C824 C822 1.381 . S
C824 C825 1.394 . S
C824 H832 0.930 . S
C825 C824 1.394 . S
C825 C826 1.383 . S
C825 H833 0.929 . S
C826 C825 1.383 . S
C826 C827 1.377 . S
C827 H811 0.930 . S
C827 C826 1.377 . S
C827 C828 1.379 . S
C828 H812 0.931 . S
C828 C822 1.383 . S
C828 C827 1.379 . S
H829 C823 0.959 . S
H830 C823 0.961 . S
H831 C823 0.960 . S
H832 C824 0.930 . S
H833 C825 0.929 . S
H834 C842 0.929 . S
H835 C844 0.930 . S
H836 C846 0.930 . S
H837 C849 0.929 . S
H838 C852 0.930 . S
H839 C854 0.952 1_554 S
H840 C854 0.959 1_554 S
H841 C854 0.968 . S
C842 H834 0.929 . S
C842 C843 1.377 . S
C842 C844 1.384 . S
C843 C842 1.377 . S
C843 C849 1.390 . S
C844 H835 0.930 . S
C844 C842 1.384 . S
C844 C845 1.372 . S
C845 C844 1.372 . S
C845 C846 1.400 . S
C845 C850 1.490 . S
C846 H836 0.930 . S
C846 C845 1.400 . S
C846 C849 1.386 . S
H847 C863 0.930 . S
H848 C864 0.931 . S
C849 H837 0.929 . S
C849 C843 1.390 . S
C849 C846 1.386 . S
C850 C845 1.490 . S
C850 C852 1.395 . S
C850 C853 1.403 . S
H851 C857 0.930 . S
C852 H838 0.930 . S
C852 C850 1.395 . S
C852 C855 1.403 1_556 S
C853 C850 1.403 . S
C853 C854 1.524 . S
C853 C857 1.400 1_556 S
C854 H839 0.952 1_556 S
C854 H840 0.959 1_556 S
C854 H841 0.968 . S
C854 C853 1.524 . S
C855 C852 1.403 1_554 S
C855 C856 1.392 . S
C855 C859 1.495 . S
C856 C855 1.392 . S
C856 C857 1.385 . S
C856 C858 1.478 . S
C857 H851 0.930 . S
C857 C853 1.400 1_554 S
C857 C856 1.385 . S
C858 C856 1.478 . S
C858 C860 1.381 . S
C858 C864 1.383 . S
C859 C855 1.495 . S
C859 H865 0.959 1_554 S
C859 H866 0.961 . S
C859 H867 0.960 . S
C860 C858 1.381 . S
C860 C861 1.394 . S
C860 H868 0.930 . S
C861 C860 1.394 . S
C861 C862 1.383 . S
C861 H869 0.929 . S
C862 C861 1.383 . S
C862 C863 1.377 . S
C863 H847 0.930 . S
C863 C862 1.377 . S
C863 C864 1.379 . S
C864 H848 0.931 . S
C864 C858 1.383 . S
C864 C863 1.379 . S
H865 C859 0.959 1_556 S
H866 C859 0.961 . S
H867 C859 0.960 . S
H868 C860 0.930 . S
H869 C861 0.929 . S
H870 C878 0.929 . S
H871 C880 0.930 . S
H872 C882 0.930 . S
H873 C885 0.929 . S
H874 C888 0.930 . S
H875 C890 0.960 . S
H876 C890 0.960 . S
H877 C890 0.960 . S
C878 H870 0.929 . S
C878 C879 1.377 . S
C878 C880 1.384 . S
C879 C878 1.377 . S
C879 C885 1.390 . S
C880 H871 0.930 . S
C880 C878 1.384 . S
C880 C881 1.372 . S
C881 C880 1.372 . S
C881 C882 1.400 . S
C881 C886 1.490 . S
C882 H872 0.930 . S
C882 C881 1.400 . S
C882 C885 1.386 . S
H883 C899 0.930 . S
H884 C900 0.931 . S
C885 H873 0.929 . S
C885 C879 1.390 . S
C885 C882 1.386 . S
C886 C881 1.490 . S
C886 C888 1.395 . S
C886 C889 1.403 . S
H887 C893 0.930 . S
C888 H874 0.930 . S
C888 C886 1.395 . S
C888 C891 1.403 . S
C889 C886 1.403 . S
C889 C890 1.524 1_455 S
C889 C893 1.400 1_455 S
C890 H875 0.960 . S
C890 H876 0.960 . S
C890 H877 0.960 . S
C890 C889 1.524 1_655 S
C891 C888 1.403 . S
C891 C892 1.392 . S
C891 C895 1.495 . S
C892 C891 1.392 . S
C892 C893 1.385 1_455 S
C892 C894 1.478 1_455 S
C893 H887 0.930 . S
C893 C889 1.400 1_655 S
C893 C892 1.385 1_655 S
C894 C892 1.478 1_655 S
C894 C896 1.381 . S
C894 C900 1.383 . S
C895 C891 1.495 . S
C895 H901 0.959 . S
C895 H902 0.961 . S
C895 H903 0.960 . S
C896 C894 1.381 . S
C896 C897 1.394 . S
C896 H904 0.930 . S
C897 C896 1.394 . S
C897 C898 1.383 . S
C897 H905 0.929 . S
C898 C897 1.383 . S
C898 C899 1.377 . S
C899 H883 0.930 . S
C899 C898 1.377 . S
C899 C900 1.379 . S
C900 H884 0.931 . S
C900 C894 1.383 . S
C900 C899 1.379 . S
H901 C895 0.959 . S
H902 C895 0.961 . S
H903 C895 0.960 . S
H904 C896 0.930 . S
H905 C897 0.929 . S
H906 C914 0.929 . S
H907 C916 0.930 . S
H908 C918 0.930 . S
H909 C921 0.929 . S
H910 C924 0.927 1_556 S
H911 C926 0.938 1_565 S
H912 C926 0.966 . S
H913 C926 0.964 1_565 S
C914 H906 0.929 . S
C914 C915 1.377 . S
C914 C916 1.384 . S
C915 C914 1.377 . S
C915 C921 1.390 . S
C916 H907 0.930 . S
C916 C914 1.384 . S
C916 C917 1.372 . S
C917 C916 1.372 . S
C917 C918 1.400 . S
C917 C922 1.490 . S
C918 H908 0.930 . S
C918 C917 1.400 . S
C918 C921 1.386 . S
H919 C935 0.930 . S
H920 C936 0.931 . S
C921 H909 0.929 . S
C921 C915 1.390 . S
C921 C918 1.386 . S
C922 C917 1.490 . S
C922 C924 1.371 1_556 S
C922 C925 1.403 . S
H923 C929 0.930 . S
C924 H910 0.927 1_554 S
C924 C922 1.371 1_554 S
C924 C927 1.429 . S
C925 C922 1.403 . S
C925 C926 1.537 . S
C925 C929 1.400 1_546 S
C926 H911 0.938 1_545 S
C926 H912 0.966 . S
C926 H913 0.964 1_545 S
C926 C925 1.537 . S
C927 C924 1.429 . S
C927 C928 1.392 . S
C927 C931 1.495 . S
C928 C927 1.392 . S
C928 C929 1.385 1_545 S
C928 C930 1.478 1_545 S
C929 H923 0.930 . S
C929 C925 1.400 1_564 S
C929 C928 1.385 1_565 S
C930 C928 1.478 1_565 S
C930 C932 1.381 . S
C930 C936 1.383 . S
C931 C927 1.495 . S
C931 H937 0.959 . S
C931 H938 0.961 . S
C931 H939 0.960 . S
C932 C930 1.381 . S
C932 C933 1.394 . S
C932 H940 0.930 1_565 S
C933 C932 1.394 . S
C933 C934 1.383 . S
C933 H941 0.929 . S
C934 C933 1.383 . S
C934 C935 1.377 . S
C935 H919 0.930 . S
C935 C934 1.377 . S
C935 C936 1.379 . S
C936 H920 0.931 . S
C936 C930 1.383 . S
C936 C935 1.379 . S
H937 C931 0.959 . S
H938 C931 0.961 . S
H939 C931 0.960 . S
H940 C932 0.930 1_545 S
H941 C933 0.929 . S
H942 C950 0.929 . S
H943 C952 0.930 . S
H944 C954 0.930 . S
H945 C957 0.929 . S
H946 C960 0.930 . S
H947 C962 0.960 . S
H948 C962 0.960 . S
H949 C962 0.960 . S
C950 H942 0.929 . S
C950 C951 1.377 . S
C950 C952 1.384 . S
C951 C950 1.377 . S
C951 C957 1.390 . S
C952 H943 0.930 . S
C952 C950 1.384 . S
C952 C953 1.372 . S
C953 C952 1.372 . S
C953 C954 1.400 . S
C953 C958 1.490 . S
C954 H944 0.930 . S
C954 C953 1.400 . S
C954 C957 1.386 . S
H955 C971 0.930 . S
H956 C972 0.931 . S
C957 H945 0.929 . S
C957 C951 1.390 . S
C957 C954 1.386 . S
C958 C953 1.490 . S
C958 C960 1.395 . S
C958 C961 1.403 . S
H959 C965 0.930 . S
C960 H946 0.930 . S
C960 C958 1.395 . S
C960 C963 1.403 . S
C961 C958 1.403 . S
C961 C962 1.524 . S
C961 C965 1.400 . S
C962 H947 0.960 . S
C962 H948 0.960 . S
C962 H949 0.960 . S
C962 C961 1.524 . S
C963 C960 1.403 . S
C963 C964 1.392 . S
C963 C967 1.495 . S
C964 C963 1.392 . S
C964 C965 1.385 . S
C964 C966 1.478 . S
C965 H959 0.930 . S
C965 C961 1.400 . S
C965 C964 1.385 . S
C966 C964 1.478 . S
C966 C968 1.381 . S
C966 C972 1.383 . S
C967 C963 1.495 . S
C967 H973 0.959 . S
C967 H974 0.961 . S
C967 H975 0.960 . S
C968 C966 1.381 . S
C968 C969 1.394 . S
C968 H976 0.930 . S
C969 C968 1.394 . S
C969 C970 1.383 . S
C969 H977 0.929 . S
C970 C969 1.383 . S
C970 C971 1.377 . S
C971 H955 0.930 . S
C971 C970 1.377 . S
C971 C972 1.379 . S
C972 H956 0.931 . S
C972 C966 1.383 . S
C972 C971 1.379 . S
H973 C967 0.959 . S
H974 C967 0.961 . S
H975 C967 0.960 . S
H976 C968 0.930 . S
H977 C969 0.929 . S
H978 C986 0.929 . S
H979 C988 0.930 1_655 S
H980 C990 0.930 . S
H981 C993 0.929 . S
H982 C996 0.930 . S
H983 C998 0.960 . S
H984 C998 0.960 1_554 S
H985 C998 0.960 . S
C986 H978 0.929 . S
C986 C987 1.377 . S
C986 C988 1.384 . S
C987 C986 1.377 . S
C987 C993 1.390 . S
C988 H979 0.930 1_455 S
C988 C986 1.384 . S
C988 C989 1.372 . S
C989 C988 1.372 . S
C989 C990 1.400 . S
C989 C994 1.499 . S
C990 H980 0.930 . S
C990 C989 1.400 . S
C990 C993 1.386 . S
H991 C1007 0.930 . S
H992 C1008 0.931 . S
C993 H981 0.929 . S
C993 C987 1.390 . S
C993 C990 1.386 . S
C994 C989 1.499 . S
C994 C996 1.379 1_455 S
C994 C997 1.409 1_554 S
H995 C1001 0.930 . S
C996 H982 0.930 . S
C996 C994 1.379 1_655 S
C996 C999 1.403 . S
C997 C994 1.409 1_556 S
C997 C998 1.524 . S
C997 C1001 1.400 1_455 S
C998 H983 0.960 . S
C998 H984 0.960 1_556 S
C998 H985 0.960 . S
C998 C997 1.524 . S
C999 C996 1.403 . S
C999 C1000 1.392 1_554 S
C999 C1003 1.495 . S
C1000 C999 1.392 1_556 S
C1000 C1001 1.385 . S
C1000 C1002 1.478 . S
C1001 H995 0.930 . S
C1001 C997 1.400 1_655 S
C1001 C1000 1.385 . S
C1002 C1000 1.478 . S
C1002 C1004 1.381 . S
C1002 C1008 1.383 . S
C1003 C999 1.495 . S
C1003 H1009 0.959 . S
C1003 H1010 0.961 . S
C1003 H1011 0.960 . S
C1004 C1002 1.381 . S
C1004 C1005 1.394 . S
C1004 H1012 0.930 . S
C1005 C1004 1.394 . S
C1005 C1006 1.383 . S
C1005 H1013 0.929 . S
C1006 C1005 1.383 . S
C1006 C1007 1.377 . S
C1007 H991 0.930 . S
C1007 C1006 1.377 . S
C1007 C1008 1.379 . S
C1008 H992 0.931 . S
C1008 C1002 1.383 . S
C1008 C1007 1.379 . S
H1009 C1003 0.959 . S
H1010 C1003 0.961 . S
H1011 C1003 0.960 . S
H1012 C1004 0.930 . S
H1013 C1005 0.929 . S
H1014 C1022 0.929 . S
H1015 C1024 0.930 . S
H1016 C1026 0.930 . S
H1017 C1029 0.929 . S
H1018 C1032 0.930 . S
H1019 C1034 0.960 . S
H1020 C1034 0.960 . S
H1021 C1034 0.960 . S
C1022 H1014 0.929 . S
C1022 C1023 1.377 . S
C1022 C1024 1.384 . S
C1023 C1022 1.377 . S
C1023 C1029 1.390 . S
C1024 H1015 0.930 . S
C1024 C1022 1.384 . S
C1024 C1025 1.372 . S
C1025 C1024 1.372 . S
C1025 C1026 1.400 . S
C1025 C1030 1.490 . S
C1026 H1016 0.930 . S
C1026 C1025 1.400 . S
C1026 C1029 1.386 . S
H1027 C1043 0.930 . S
H1028 C1044 0.931 . S
C1029 H1017 0.929 . S
C1029 C1023 1.390 . S
C1029 C1026 1.386 . S
C1030 C1025 1.490 . S
C1030 C1032 1.395 1_545 S
C1030 C1033 1.403 . S
H1031 C1037 0.930 . S
C1032 H1018 0.930 . S
C1032 C1030 1.395 1_565 S
C1032 C1035 1.403 . S
C1033 C1030 1.403 . S
C1033 C1034 1.524 . S
C1033 C1037 1.400 1_545 S
C1034 H1019 0.960 . S
C1034 H1020 0.960 . S
C1034 H1021 0.960 . S
C1034 C1033 1.524 . S
C1035 C1032 1.403 . S
C1035 C1036 1.392 . S
C1035 C1039 1.495 . S
C1036 C1035 1.392 . S
C1036 C1037 1.385 . S
C1036 C1038 1.478 . S
C1037 H1031 0.930 . S
C1037 C1033 1.400 1_565 S
C1037 C1036 1.385 . S
C1038 C1036 1.478 . S
C1038 C1040 1.381 . S
C1038 C1044 1.383 . S
C1039 C1035 1.495 . S
C1039 H1045 0.959 . S
C1039 H1046 0.961 . S
C1039 H1047 0.960 . S
C1040 C1038 1.381 . S
C1040 C1041 1.394 . S
C1040 H1048 0.930 . S
C1041 C1040 1.394 . S
C1041 C1042 1.383 . S
C1041 H1049 0.929 . S
C1042 C1041 1.383 . S
C1042 C1043 1.377 . S
C1043 H1027 0.930 . S
C1043 C1042 1.377 . S
C1043 C1044 1.379 . S
C1044 H1028 0.931 . S
C1044 C1038 1.383 . S
C1044 C1043 1.379 . S
H1045 C1039 0.959 . S
H1046 C1039 0.961 . S
H1047 C1039 0.960 . S
H1048 C1040 0.930 . S
H1049 C1041 0.929 . S
C195 C19 1.131 . S
C214 C144 1.197 . S
C231 C156 1.183 . S
C250 C31 1.077 . S
C267 C20 1.186 . S
C286 C81 1.105 . S
C303 C32 1.180 . S
C322 C93 1.097 . S
C339 C143 1.127 . S
C358 C82 1.181 . S
C375 C155 1.124 . S
C394 C94 1.173 . S
C411 C30 0.887 . S
C430 C125 0.880 . S
C447 C41 0.883 . S
C466 C175 0.901 . S
C483 C1 0.905 . S
C502 C92 0.934 . S
C519 C51 0.898 . S
C538 C103 0.878 . S
C555 C63 0.911 . S
C574 C154 0.884 . S
C591 C165 0.891 . S
C610 C113 0.873 . S
C627 C29 0.977 . S
C646 C184 0.961 . S
C663 C33 0.975 . S
C682 C2 0.939 . S
C699 C91 0.975 . S
C718 C60 0.981 . S
C735 C95 0.977 . S
C754 C64 0.963 . S
C771 C122 0.940 . S
C790 C153 0.981 . S
C807 C157 0.975 . S
C826 C126 0.976 . S
C843 C123 2.221 . S
C862 C62 2.263 . S
C879 C134 2.217 . S
C898 C112 2.232 . S
C915 C185 2.221 . S
C934 C124 2.243 . S
C951 C174 2.255 . S
C970 C10 2.230 . S
C987 C0 2.253 . S
C1006 C61 2.234 . S
C1023 C50 2.255 . S
C1042 C72 2.233 . S
