# Generated by pormake.
# Topology cag, (4)-cn, num edge types: 1
# Building blocks:
#     Node 0, Type 0, BuildingBlock: KUFVIS_clean_sbu_0, # of connection points: 4
#     Node 1, Type 0, BuildingBlock: KUFVIS_clean_sbu_0, # of connection points: 4
#     Node 2, Type 0, BuildingBlock: KUFVIS_clean_sbu_0, # of connection points: 4
#     Node 3, Type 0, BuildingBlock: KUFVIS_clean_sbu_0, # of connection points: 4
#     Node 4, Type 0, BuildingBlock: KUFVIS_clean_sbu_0, # of connection points: 4
#     Node 5, Type 0, BuildingBlock: KUFVIS_clean_sbu_0, # of connection points: 4
#     Node 6, Type 0, BuildingBlock: KUFVIS_clean_sbu_0, # of connection points: 4
#     Node 7, Type 0, BuildingBlock: KUFVIS_clean_sbu_0, # of connection points: 4
#     Node 8, Type 0, BuildingBlock: KUFVIS_clean_sbu_0, # of connection points: 4
#     Node 9, Type 0, BuildingBlock: KUFVIS_clean_sbu_0, # of connection points: 4
#     Node 10, Type 0, BuildingBlock: KUFVIS_clean_sbu_0, # of connection points: 4
#     Node 11, Type 0, BuildingBlock: KUFVIS_clean_sbu_0, # of connection points: 4
#     Node 12, Type 0, BuildingBlock: KUFVIS_clean_sbu_0, # of connection points: 4
#     Node 13, Type 0, BuildingBlock: KUFVIS_clean_sbu_0, # of connection points: 4
#     Node 14, Type 0, BuildingBlock: KUFVIS_clean_sbu_0, # of connection points: 4
#     Node 15, Type 0, BuildingBlock: KUFVIS_clean_sbu_0, # of connection points: 4
#     Edge 16, Type (0, 0), BuildingBlock: MIFKUJ_clean_linker_0, # of connection points: 2
#     Edge 17, Type (0, 0), BuildingBlock: MIFKUJ_clean_linker_0, # of connection points: 2
#     Edge 18, Type (0, 0), BuildingBlock: MIFKUJ_clean_linker_0, # of connection points: 2
#     Edge 19, Type (0, 0), BuildingBlock: MIFKUJ_clean_linker_0, # of connection points: 2
#     Edge 20, Type (0, 0), BuildingBlock: MIFKUJ_clean_linker_0, # of connection points: 2
#     Edge 21, Type (0, 0), BuildingBlock: MIFKUJ_clean_linker_0, # of connection points: 2
#     Edge 22, Type (0, 0), BuildingBlock: MIFKUJ_clean_linker_0, # of connection points: 2
#     Edge 23, Type (0, 0), BuildingBlock: MIFKUJ_clean_linker_0, # of connection points: 2
#     Edge 24, Type (0, 0), BuildingBlock: MIFKUJ_clean_linker_0, # of connection points: 2
#     Edge 25, Type (0, 0), BuildingBlock: MIFKUJ_clean_linker_0, # of connection points: 2
#     Edge 26, Type (0, 0), BuildingBlock: MIFKUJ_clean_linker_0, # of connection points: 2
#     Edge 27, Type (0, 0), BuildingBlock: MIFKUJ_clean_linker_0, # of connection points: 2
#     Edge 28, Type (0, 0), BuildingBlock: MIFKUJ_clean_linker_0, # of connection points: 2
#     Edge 29, Type (0, 0), BuildingBlock: MIFKUJ_clean_linker_0, # of connection points: 2
#     Edge 30, Type (0, 0), BuildingBlock: MIFKUJ_clean_linker_0, # of connection points: 2
#     Edge 31, Type (0, 0), BuildingBlock: MIFKUJ_clean_linker_0, # of connection points: 2
#     Edge 32, Type (0, 0), BuildingBlock: MIFKUJ_clean_linker_0, # of connection points: 2
#     Edge 33, Type (0, 0), BuildingBlock: MIFKUJ_clean_linker_0, # of connection points: 2
#     Edge 34, Type (0, 0), BuildingBlock: MIFKUJ_clean_linker_0, # of connection points: 2
#     Edge 35, Type (0, 0), BuildingBlock: MIFKUJ_clean_linker_0, # of connection points: 2
#     Edge 36, Type (0, 0), BuildingBlock: MIFKUJ_clean_linker_0, # of connection points: 2
#     Edge 37, Type (0, 0), BuildingBlock: MIFKUJ_clean_linker_0, # of connection points: 2
#     Edge 38, Type (0, 0), BuildingBlock: MIFKUJ_clean_linker_0, # of connection points: 2
#     Edge 39, Type (0, 0), BuildingBlock: MIFKUJ_clean_linker_0, # of connection points: 2
#     Edge 40, Type (0, 0), BuildingBlock: MIFKUJ_clean_linker_0, # of connection points: 2
#     Edge 41, Type (0, 0), BuildingBlock: MIFKUJ_clean_linker_0, # of connection points: 2
#     Edge 42, Type (0, 0), BuildingBlock: MIFKUJ_clean_linker_0, # of connection points: 2
#     Edge 43, Type (0, 0), BuildingBlock: MIFKUJ_clean_linker_0, # of connection points: 2
#     Edge 44, Type (0, 0), BuildingBlock: MIFKUJ_clean_linker_0, # of connection points: 2
#     Edge 45, Type (0, 0), BuildingBlock: MIFKUJ_clean_linker_0, # of connection points: 2
#     Edge 46, Type (0, 0), BuildingBlock: MIFKUJ_clean_linker_0, # of connection points: 2
#     Edge 47, Type (0, 0), BuildingBlock: MIFKUJ_clean_linker_0, # of connection points: 2
# Relax obj value: 0.082
# Max RMSD: 0.119
# Mean RMSD: 0.116
data_MOF--net-cag--node1-KUFVIS_clean_sbu_0--edge1-MIFKUJ_clean_linker_0
_symmetry_space_group_name_H-M    P1
_symmetry_Int_Tables_number       1
_symmetry_cell_setting            triclinic
loop_
_symmetry_equiv_pos_as_xyz
'x, y, z'
_cell_length_a     54.112209
_cell_length_b     64.619859
_cell_length_c     53.609505
_cell_angle_alpha  89.97458
_cell_angle_beta   89.93877
_cell_angle_gamma 89.943933
loop_
_atom_site_label
_atom_site_type_symbol
_atom_site_fract_x
_atom_site_fract_y
_atom_site_fract_z
_atom_type_partial_charge
Mn0 Mn 0.34744 0.13974 0.09347 0.0
Mn1 Mn 0.37125 0.17385 0.1348 0.0
C2 C 0.3887 0.1498 0.09067 0.0
C3 C 0.33835 0.10666 0.07807 0.0
C4 C 0.33884 0.18694 0.09171 0.0
O5 O 0.32246 0.13803 0.12238 0.0
O6 O 0.34001 0.16181 0.14751 0.0
C7 C 0.38345 0.14345 0.17434 0.0
N8 N 0.3904 0.15921 0.15901 0.0
C9 C 0.43142 0.15951 0.1763 0.0
C10 C 0.42466 0.14337 0.19241 0.0
C11 C 0.40066 0.13517 0.19124 0.0
C12 C 0.4136 0.16692 0.15962 0.0
H13 H 0.36499 0.13716 0.17358 0.0
C14 C 0.32303 0.14868 0.14251 0.0
O15 O 0.32638 0.12296 0.07083 0.0
O16 O 0.35467 0.10929 0.09556 0.0
N17 N 0.40162 0.18678 0.12548 0.0
C18 C 0.40566 0.2013 0.1075 0.0
C19 C 0.42872 0.21117 0.10618 0.0
C20 C 0.44729 0.20603 0.12338 0.0
C21 C 0.44293 0.19069 0.1413 0.0
C22 C 0.41942 0.18173 0.14208 0.0
H23 H 0.39126 0.20558 0.09455 0.0
O24 O 0.37688 0.14314 0.07123 0.0
O25 O 0.37596 0.15076 0.11125 0.0
O26 O 0.33493 0.16865 0.08375 0.0
O27 O 0.35239 0.19073 0.11062 0.0
C28 C 0.46096 0.18395 0.15843 0.0
C29 C 0.45528 0.16822 0.17576 0.0
H30 H 0.43785 0.13697 0.20551 0.0
H31 H 0.39547 0.12248 0.20331 0.0
H32 H 0.43203 0.22292 0.0922 0.0
H33 H 0.46479 0.21409 0.12286 0.0
H34 H 0.47935 0.19055 0.15818 0.0
H35 H 0.46943 0.16286 0.18851 0.0
Mn36 Mn 0.16082 0.89044 0.59503 0.0
Mn37 Mn 0.13087 0.85675 0.63278 0.0
C38 C 0.11924 0.88338 0.58894 0.0
C39 C 0.1736 0.92338 0.58219 0.0
C40 C 0.16607 0.843 0.59212 0.0
O41 O 0.18338 0.88956 0.62582 0.0
O42 O 0.16148 0.86689 0.64909 0.0
C43 C 0.11677 0.88583 0.67307 0.0
N44 N 0.11023 0.87159 0.65555 0.0
C45 C 0.06746 0.87358 0.6677 0.0
C46 C 0.07375 0.88821 0.68594 0.0
C47 C 0.09851 0.89439 0.68858 0.0
C48 C 0.08646 0.86558 0.6528 0.0
H49 H 0.13577 0.89061 0.67518 0.0
C50 C 0.17999 0.87895 0.64574 0.0
O51 O 0.18491 0.90672 0.575 0.0
O52 O 0.15588 0.92105 0.59833 0.0
N53 N 0.10077 0.84587 0.61946 0.0
C54 C 0.09761 0.83248 0.60009 0.0
C55 C 0.07387 0.82495 0.59474 0.0
C56 C 0.05368 0.83113 0.60945 0.0
C57 C 0.05736 0.84499 0.62921 0.0
C58 C 0.08148 0.85181 0.63383 0.0
H59 H 0.11309 0.82755 0.58884 0.0
O60 O 0.13287 0.88976 0.57058 0.0
O61 O 0.13039 0.88075 0.61016 0.0
O62 O 0.17159 0.86118 0.58478 0.0
O63 O 0.15101 0.83958 0.60996 0.0
C64 C 0.038 0.85253 0.64429 0.0
C65 C 0.04304 0.86688 0.66346 0.0
H66 H 0.05971 0.8949 0.69789 0.0
H67 H 0.1035 0.90572 0.70256 0.0
H68 H 0.07115 0.81432 0.5794 0.0
H69 H 0.03544 0.82518 0.60537 0.0
H70 H 0.01913 0.84765 0.64105 0.0
H71 H 0.02795 0.87281 0.67467 0.0
Mn72 Mn 0.34401 0.88356 0.91953 0.0
Mn73 Mn 0.36001 0.84923 0.87485 0.0
C74 C 0.38469 0.87189 0.91603 0.0
C75 C 0.33806 0.91672 0.93639 0.0
C76 C 0.33295 0.83678 0.92174 0.0
O77 O 0.31564 0.88669 0.89433 0.0
O78 O 0.32819 0.86265 0.8665 0.0
C79 C 0.36827 0.8789 0.83354 0.0
N80 N 0.37658 0.86323 0.84833 0.0
C81 C 0.4137 0.85977 0.82405 0.0
C82 C 0.40552 0.87577 0.80841 0.0
C83 C 0.38283 0.88555 0.81337 0.0
C84 C 0.39872 0.85421 0.84424 0.0
H85 H 0.35057 0.8861 0.83694 0.0
C86 C 0.31298 0.87645 0.87407 0.0
O87 O 0.32672 0.9006 0.94501 0.0
O88 O 0.3522 0.91385 0.91706 0.0
N89 N 0.39057 0.83512 0.88013 0.0
C90 C 0.39639 0.82078 0.89782 0.0
C91 C 0.41901 0.81019 0.89624 0.0
C92 C 0.43502 0.81404 0.87613 0.0
C93 C 0.42846 0.82874 0.85806 0.0
C94 C 0.40606 0.83923 0.861 0.0
H95 H 0.38382 0.8174 0.91294 0.0
O96 O 0.37618 0.87871 0.93714 0.0
O97 O 0.36912 0.87183 0.8976 0.0
O98 O 0.33138 0.85502 0.93057 0.0
O99 O 0.34351 0.8328 0.90105 0.0
C100 C 0.44302 0.83312 0.83698 0.0
C101 C 0.4359 0.84885 0.82018 0.0
H102 H 0.4165 0.88068 0.79258 0.0
H103 H 0.37637 0.89791 0.80141 0.0
H104 H 0.42391 0.79885 0.91026 0.0
H105 H 0.45229 0.80562 0.87473 0.0
H106 H 0.45947 0.82419 0.83336 0.0
H107 H 0.44747 0.85226 0.80421 0.0
Mn108 Mn 0.16551 0.14298 0.4201 0.0
Mn109 Mn 0.14109 0.17629 0.37814 0.0
C110 C 0.12426 0.15276 0.42313 0.0
C111 C 0.17531 0.11006 0.43564 0.0
C112 C 0.17351 0.19023 0.42079 0.0
O113 O 0.19005 0.14096 0.39102 0.0
O114 O 0.17243 0.16435 0.36532 0.0
C115 C 0.12922 0.14568 0.33878 0.0
N116 N 0.12198 0.16122 0.35432 0.0
C117 C 0.08082 0.16091 0.3374 0.0
C118 C 0.08785 0.14496 0.32112 0.0
C119 C 0.11212 0.13724 0.32192 0.0
C120 C 0.09862 0.16862 0.35387 0.0
H121 H 0.14787 0.13974 0.33925 0.0
C122 C 0.18937 0.15123 0.37063 0.0
O123 O 0.18722 0.12649 0.44253 0.0
O124 O 0.15849 0.11256 0.41861 0.0
N125 N 0.11059 0.18901 0.38753 0.0
C126 C 0.10643 0.20359 0.4054 0.0
C127 C 0.08311 0.21301 0.40702 0.0
C128 C 0.06439 0.20739 0.39022 0.0
C129 C 0.06893 0.19205 0.37234 0.0
C130 C 0.09267 0.1835 0.37129 0.0
H131 H 0.1209 0.2082 0.41809 0.0
O132 O 0.13638 0.14647 0.44259 0.0
O133 O 0.13675 0.15354 0.40235 0.0
O134 O 0.17773 0.17211 0.42919 0.0
O135 O 0.15991 0.19362 0.4018 0.0
C136 C 0.05086 0.18491 0.35553 0.0
C137 C 0.05674 0.16923 0.33819 0.0
H138 H 0.07472 0.13841 0.3081 0.0
H139 H 0.11762 0.12483 0.30957 0.0
H140 H 0.07969 0.22478 0.42096 0.0
H141 H 0.04661 0.21503 0.39108 0.0
H142 H 0.03229 0.19118 0.35599 0.0
H143 H 0.04259 0.16362 0.32563 0.0
Mn144 Mn 0.68986 0.88169 0.93427 0.0
Mn145 Mn 0.65948 0.8375 0.92016 0.0
C146 C 0.64853 0.88262 0.92281 0.0
C147 C 0.70249 0.90821 0.96106 0.0
C148 C 0.69591 0.85788 0.88498 0.0
O149 O 0.7118 0.85949 0.95045 0.0
O150 O 0.68944 0.83124 0.94026 0.0
C151 C 0.64361 0.8257 0.97111 0.0
N152 N 0.63788 0.83014 0.94696 0.0
C153 C 0.59469 0.82365 0.95438 0.0
C154 C 0.60015 0.81892 0.9793 0.0
C155 C 0.6247 0.82001 0.98771 0.0
C156 C 0.6143 0.82922 0.9387 0.0
H157 H 0.66245 0.82652 0.97764 0.0
C158 C 0.70801 0.83991 0.95082 0.0
O159 O 0.71421 0.90411 0.94054 0.0
O160 O 0.68438 0.89594 0.96696 0.0
N161 N 0.62999 0.84128 0.90099 0.0
C162 C 0.62767 0.84744 0.87678 0.0
C163 C 0.60423 0.84749 0.86557 0.0
C164 C 0.58347 0.84108 0.87928 0.0
C165 C 0.5863 0.83489 0.90418 0.0
C166 C 0.61016 0.83494 0.91428 0.0
H167 H 0.64358 0.85225 0.86609 0.0
O168 O 0.66247 0.89874 0.91971 0.0
O169 O 0.65924 0.8663 0.93196 0.0
O170 O 0.70124 0.87291 0.89937 0.0
O171 O 0.6806 0.84372 0.89097 0.0
C172 C 0.56634 0.82895 0.91948 0.0
C173 C 0.57052 0.82341 0.94459 0.0
H174 H 0.58562 0.81459 0.99219 0.0
H175 H 0.62904 0.81646 1.00695 0.0
H176 H 0.60218 0.85237 0.84637 0.0
H177 H 0.56545 0.84103 0.87052 0.0
H178 H 0.54766 0.82889 0.91224 0.0
H179 H 0.55499 0.81918 0.95628 0.0
Mn180 Mn 0.8171 0.13684 0.43657 0.0
Mn181 Mn 0.8435 0.18314 0.42427 0.0
C182 C 0.85858 0.13909 0.42552 0.0
C183 C 0.807 0.10873 0.46228 0.0
C184 C 0.80935 0.16149 0.38806 0.0
O185 O 0.79294 0.15725 0.45339 0.0
O186 O 0.81284 0.18697 0.44397 0.0
C187 C 0.85739 0.19477 0.47581 0.0
N188 N 0.86396 0.19104 0.4517 0.0
C189 C 0.90626 0.20019 0.46 0.0
C190 C 0.89994 0.20419 0.48491 0.0
C191 C 0.87542 0.20137 0.49287 0.0
C192 C 0.88756 0.19345 0.44393 0.0
H193 H 0.83854 0.19276 0.48197 0.0
C194 C 0.79495 0.17703 0.45409 0.0
O195 O 0.79494 0.11263 0.44192 0.0
O196 O 0.82376 0.12207 0.46872 0.0
N197 N 0.87355 0.18156 0.4055 0.0
C198 C 0.87678 0.17628 0.38111 0.0
C199 C 0.90041 0.1777 0.37039 0.0
C200 C 0.92037 0.18483 0.38473 0.0
C201 C 0.91652 0.19043 0.4097 0.0
C202 C 0.89261 0.18855 0.41942 0.0
H203 H 0.86145 0.17097 0.36994 0.0
O204 O 0.84636 0.12212 0.42169 0.0
O205 O 0.84609 0.15426 0.4351 0.0
O206 O 0.80531 0.14577 0.40184 0.0
O207 O 0.8233 0.17643 0.39463 0.0
C208 C 0.93548 0.19778 0.42534 0.0
C209 C 0.93039 0.20255 0.45051 0.0
H210 H 0.91377 0.20936 0.4981 0.0
H211 H 0.87041 0.20439 0.51208 0.0
H212 H 0.90322 0.17338 0.35109 0.0
H213 H 0.93857 0.18591 0.3764 0.0
H214 H 0.95415 0.1995 0.41831 0.0
H215 H 0.94523 0.20784 0.46245 0.0
Mn216 Mn 0.69618 0.13988 0.09285 0.0
Mn217 Mn 0.66924 0.18617 0.10388 0.0
C218 C 0.65419 0.14209 0.10115 0.0
C219 C 0.70826 0.11211 0.06766 0.0
C220 C 0.70105 0.16412 0.14194 0.0
O221 O 0.72121 0.16028 0.07782 0.0
O222 O 0.70102 0.19017 0.08601 0.0
C223 C 0.65838 0.19816 0.05168 0.0
N224 N 0.6504 0.19422 0.07532 0.0
C225 C 0.60847 0.20263 0.0643 0.0
C226 C 0.61625 0.20685 0.03987 0.0
C227 C 0.64129 0.20453 0.03352 0.0
C228 C 0.6263 0.19623 0.08157 0.0
H229 H 0.67762 0.19646 0.04672 0.0
C230 C 0.71935 0.18006 0.07693 0.0
O231 O 0.71876 0.11584 0.08891 0.0
O232 O 0.69181 0.12539 0.06016 0.0
N233 N 0.63813 0.18434 0.12076 0.0
C234 C 0.63347 0.17875 0.14482 0.0
C235 C 0.60916 0.17966 0.15396 0.0
C236 C 0.58996 0.18651 0.13837 0.0
C237 C 0.59527 0.19238 0.11376 0.0
C238 C 0.61983 0.19111 0.10567 0.0
H239 H 0.64817 0.17356 0.15691 0.0
O240 O 0.66614 0.12507 0.10562 0.0
O241 O 0.66725 0.15735 0.09257 0.0
O242 O 0.70568 0.14848 0.12827 0.0
O243 O 0.68773 0.17928 0.13469 0.0
C244 C 0.57711 0.19931 0.0969 0.0
C245 C 0.58369 0.20435 0.07215 0.0
H246 H 0.60313 0.21178 0.02581 0.0
H247 H 0.64741 0.20768 0.01467 0.0
H248 H 0.60522 0.17509 0.17297 0.0
H249 H 0.57122 0.18712 0.14546 0.0
H250 H 0.55796 0.20053 0.10265 0.0
H251 H 0.56948 0.20933 0.05924 0.0
Mn252 Mn 0.81444 0.87321 0.58877 0.0
Mn253 Mn 0.83437 0.82519 0.60325 0.0
C254 C 0.85546 0.86737 0.60064 0.0
C255 C 0.80726 0.90163 0.56247 0.0
C256 C 0.80246 0.85068 0.63787 0.0
O257 O 0.78833 0.85474 0.57179 0.0
O258 O 0.80407 0.82364 0.58266 0.0
C259 C 0.84835 0.81077 0.5527 0.0
N260 N 0.85431 0.81426 0.57701 0.0
C261 C 0.89382 0.79778 0.57195 0.0
C262 C 0.88814 0.7939 0.54688 0.0
C263 C 0.86549 0.80078 0.53711 0.0
C264 C 0.87648 0.80853 0.5863 0.0
H265 H 0.83068 0.81555 0.54532 0.0
C266 C 0.78791 0.83488 0.57162 0.0
O267 O 0.79493 0.89879 0.58289 0.0
O268 O 0.82306 0.8873 0.55643 0.0
N269 N 0.86372 0.82448 0.62298 0.0
C270 C 0.86716 0.83095 0.64693 0.0
C271 C 0.88958 0.82657 0.65899 0.0
C272 C 0.90792 0.81514 0.64653 0.0
C273 C 0.90383 0.80857 0.62195 0.0
C274 C 0.88143 0.8139 0.61067 0.0
H275 H 0.85287 0.83931 0.65676 0.0
O276 O 0.84525 0.88536 0.6039 0.0
O277 O 0.84127 0.85326 0.59119 0.0
O278 O 0.80071 0.86623 0.62343 0.0
O279 O 0.81458 0.83449 0.63206 0.0
C280 C 0.92087 0.7966 0.60836 0.0
C281 C 0.91589 0.79124 0.58334 0.0
H282 H 0.9011 0.78584 0.53492 0.0
H283 H 0.86123 0.79817 0.51768 0.0
H284 H 0.89256 0.83169 0.67796 0.0
H285 H 0.92505 0.81149 0.65601 0.0
H286 H 0.93767 0.79126 0.61714 0.0
H287 H 0.92895 0.78188 0.57306 0.0
Mn288 Mn 0.84161 0.63521 0.09486 0.0
Mn289 Mn 0.86355 0.66948 0.13699 0.0
C290 C 0.88232 0.64664 0.09242 0.0
C291 C 0.83417 0.60197 0.07883 0.0
C292 C 0.83124 0.68222 0.09374 0.0
O293 O 0.81672 0.63221 0.12359 0.0
O294 O 0.83235 0.65675 0.14896 0.0
C295 C 0.8756 0.63916 0.17669 0.0
N296 N 0.88259 0.65495 0.1614 0.0
C297 C 0.92323 0.6558 0.17954 0.0
C298 C 0.91644 0.63962 0.19557 0.0
C299 C 0.89257 0.63118 0.19402 0.0
C300 C 0.9056 0.66299 0.16251 0.0
H301 H 0.85725 0.63268 0.17565 0.0
C302 C 0.81627 0.64293 0.14366 0.0
O303 O 0.82134 0.61792 0.07193 0.0
O304 O 0.85041 0.60504 0.09627 0.0
N305 N 0.89375 0.68308 0.12851 0.0
C306 C 0.89774 0.6979 0.11088 0.0
C307 C 0.9206 0.70811 0.11009 0.0
C308 C 0.93904 0.70301 0.12747 0.0
C309 C 0.93471 0.68742 0.14508 0.0
C310 C 0.9114 0.67809 0.14531 0.0
H311 H 0.88345 0.70213 0.09778 0.0
O312 O 0.87084 0.63992 0.07279 0.0
O313 O 0.86954 0.64685 0.11303 0.0
O314 O 0.82774 0.66387 0.08572 0.0
O315 O 0.84474 0.68618 0.11263 0.0
C316 C 0.95257 0.6808 0.16245 0.0
C317 C 0.9469 0.66488 0.17954 0.0
H318 H 0.92945 0.63344 0.20899 0.0
H319 H 0.88727 0.61857 0.20617 0.0
H320 H 0.92386 0.72009 0.09637 0.0
H321 H 0.9564 0.7113 0.12731 0.0
H322 H 0.97081 0.68769 0.16264 0.0
H323 H 0.96091 0.65969 0.19255 0.0
Mn324 Mn 0.65935 0.37956 0.60052 0.0
Mn325 Mn 0.64163 0.34539 0.64471 0.0
C326 C 0.6184 0.36832 0.60295 0.0
C327 C 0.66611 0.41269 0.58373 0.0
C328 C 0.67012 0.33265 0.59878 0.0
O329 O 0.68688 0.38257 0.62671 0.0
O330 O 0.67327 0.35857 0.65407 0.0
C331 C 0.63219 0.37539 0.68541 0.0
N332 N 0.62438 0.35955 0.67065 0.0
C333 C 0.5867 0.35615 0.69403 0.0
C334 C 0.59438 0.37229 0.70967 0.0
C335 C 0.61706 0.38217 0.70509 0.0
C336 C 0.60217 0.35054 0.67424 0.0
H337 H 0.6499 0.38264 0.68235 0.0
C338 C 0.68879 0.37231 0.64706 0.0
O339 O 0.6776 0.39645 0.57558 0.0
O340 O 0.65128 0.40993 0.60255 0.0
N341 N 0.61112 0.33154 0.6385 0.0
C342 C 0.60566 0.31731 0.62058 0.0
C343 C 0.58301 0.30676 0.62161 0.0
C344 C 0.56659 0.31052 0.64142 0.0
C345 C 0.57276 0.32514 0.6597 0.0
C346 C 0.59522 0.3356 0.65729 0.0
H347 H 0.61856 0.31396 0.60573 0.0
O348 O 0.62758 0.37491 0.58201 0.0
O349 O 0.63352 0.36809 0.62172 0.0
O350 O 0.67217 0.35089 0.59002 0.0
O351 O 0.65878 0.32877 0.61908 0.0
C352 C 0.55778 0.32945 0.6805 0.0
C353 C 0.5645 0.34516 0.69746 0.0
H354 H 0.58298 0.37727 0.72518 0.0
H355 H 0.62311 0.39468 0.71703 0.0
H356 H 0.57841 0.2955 0.60743 0.0
H357 H 0.5493 0.30212 0.64241 0.0
H358 H 0.54127 0.3205 0.68377 0.0
H359 H 0.55264 0.34853 0.71322 0.0
Mn360 Mn 0.84937 0.37913 0.92048 0.0
Mn361 Mn 0.86787 0.34329 0.87852 0.0
C362 C 0.89065 0.36853 0.91843 0.0
C363 C 0.84171 0.41275 0.93535 0.0
C364 C 0.83954 0.33232 0.92526 0.0
O365 O 0.82154 0.38035 0.89428 0.0
O366 O 0.83624 0.35592 0.86808 0.0
C367 C 0.87704 0.37037 0.8349 0.0
N368 N 0.88525 0.35609 0.85165 0.0
C369 C 0.92317 0.35143 0.82895 0.0
C370 C 0.91518 0.36609 0.81143 0.0
C371 C 0.89212 0.37576 0.81457 0.0
C372 C 0.90769 0.34714 0.84919 0.0
H373 H 0.85904 0.37742 0.83687 0.0
C374 C 0.82015 0.36951 0.87431 0.0
O375 O 0.83074 0.39664 0.94445 0.0
O376 O 0.85647 0.40957 0.91657 0.0
N377 N 0.89845 0.33 0.88621 0.0
C378 C 0.90383 0.31684 0.90532 0.0
C379 C 0.92671 0.30658 0.90559 0.0
C380 C 0.94344 0.30949 0.88585 0.0
C381 C 0.93733 0.32298 0.86631 0.0
C382 C 0.91465 0.33329 0.86747 0.0
H383 H 0.89073 0.31415 0.92018 0.0
O384 O 0.88147 0.37593 0.93898 0.0
O385 O 0.8754 0.36718 0.89986 0.0
O386 O 0.83749 0.35083 0.93311 0.0
O387 O 0.85061 0.3278 0.90503 0.0
C388 C 0.95255 0.3262 0.8454 0.0
C389 C 0.94558 0.34052 0.8268 0.0
H390 H 0.92656 0.37 0.79547 0.0
H391 H 0.88584 0.38705 0.8011 0.0
H392 H 0.93125 0.29618 0.92073 0.0
H393 H 0.96089 0.30126 0.88586 0.0
H394 H 0.96939 0.31739 0.84329 0.0
H395 H 0.95734 0.3428 0.81071 0.0
Mn396 Mn 0.66029 0.63322 0.42237 0.0
Mn397 Mn 0.63357 0.66691 0.38234 0.0
C398 C 0.61874 0.64181 0.42608 0.0
C399 C 0.67075 0.6001 0.43689 0.0
C400 C 0.6671 0.68058 0.42432 0.0
O401 O 0.68433 0.63266 0.39256 0.0
O402 O 0.66465 0.65577 0.36789 0.0
C403 C 0.62064 0.6372 0.34235 0.0
N404 N 0.61365 0.65191 0.35913 0.0
C405 C 0.5714 0.65025 0.34528 0.0
C406 C 0.57817 0.63514 0.32779 0.0
C407 C 0.60286 0.62849 0.32645 0.0
C408 C 0.58986 0.65819 0.36084 0.0
H409 H 0.63963 0.63213 0.34113 0.0
C410 C 0.68242 0.64315 0.37233 0.0
O411 O 0.68258 0.6165 0.44405 0.0
O412 O 0.65399 0.60274 0.41985 0.0
N413 N 0.60315 0.67862 0.39393 0.0
C414 C 0.59944 0.69261 0.41258 0.0
C415 C 0.57557 0.70039 0.41688 0.0
C416 C 0.55585 0.69394 0.40175 0.0
C417 C 0.56019 0.67974 0.38247 0.0
C418 C 0.58434 0.67244 0.37914 0.0
H419 H 0.61455 0.69774 0.42416 0.0
O420 O 0.63104 0.63539 0.44535 0.0
O421 O 0.63119 0.64351 0.4055 0.0
O422 O 0.67177 0.66238 0.43223 0.0
O423 O 0.65303 0.68409 0.40571 0.0
C424 C 0.54147 0.67247 0.36649 0.0
C425 C 0.54703 0.65763 0.34801 0.0
H426 H 0.56453 0.62843 0.31543 0.0
H427 H 0.60815 0.6167 0.31315 0.0
H428 H 0.57239 0.71137 0.43178 0.0
H429 H 0.53746 0.69995 0.40514 0.0
H430 H 0.52264 0.67792 0.36852 0.0
H431 H 0.53237 0.65186 0.33617 0.0
Mn432 Mn 0.19608 0.38437 0.93062 0.0
Mn433 Mn 0.16709 0.33948 0.91681 0.0
C434 C 0.15458 0.38436 0.91994 0.0
C435 C 0.20812 0.41094 0.95756 0.0
C436 C 0.20256 0.36075 0.88132 0.0
O437 O 0.21902 0.36257 0.94623 0.0
O438 O 0.19714 0.33383 0.93695 0.0
C439 C 0.15145 0.32724 0.96766 0.0
N440 N 0.14563 0.33169 0.94354 0.0
C441 C 0.10258 0.32458 0.95093 0.0
C442 C 0.10813 0.31982 0.97582 0.0
C443 C 0.13266 0.32121 0.98423 0.0
C444 C 0.12208 0.33045 0.93526 0.0
H445 H 0.17027 0.3283 0.9742 0.0
C446 C 0.21567 0.34294 0.94704 0.0
O447 O 0.21969 0.40736 0.9368 0.0
O448 O 0.19061 0.39813 0.96358 0.0
N449 N 0.13754 0.34284 0.89761 0.0
C450 C 0.13508 0.34921 0.8735 0.0
C451 C 0.1116 0.34917 0.86236 0.0
C452 C 0.09095 0.3425 0.87606 0.0
C453 C 0.09393 0.33607 0.90085 0.0
C454 C 0.11782 0.33624 0.91088 0.0
H455 H 0.1509 0.35426 0.86284 0.0
O456 O 0.16788 0.40085 0.91677 0.0
O457 O 0.16605 0.36825 0.92869 0.0
O458 O 0.20707 0.37618 0.89538 0.0
O459 O 0.1882 0.34601 0.88768 0.0
C460 C 0.0741 0.3298 0.91613 0.0
C461 C 0.0784 0.32412 0.94117 0.0
H462 H 0.09368 0.31526 0.98869 0.0
H463 H 0.13707 0.31764 1.00345 0.0
H464 H 0.10943 0.35423 0.84324 0.0
H465 H 0.07289 0.34246 0.86737 0.0
H466 H 0.05541 0.32963 0.90894 0.0
H467 H 0.06295 0.31967 0.95284 0.0
Mn468 Mn 0.31169 0.64762 0.42989 0.0
Mn469 Mn 0.33704 0.69448 0.41839 0.0
C470 C 0.35299 0.65015 0.41804 0.0
C471 C 0.30139 0.61909 0.45473 0.0
C472 C 0.30351 0.67273 0.38182 0.0
O473 O 0.28736 0.66726 0.44743 0.0
O474 O 0.30615 0.69736 0.43794 0.0
C475 C 0.3501 0.70552 0.47038 0.0
N476 N 0.35686 0.70274 0.44614 0.0
C477 C 0.39837 0.714 0.45468 0.0
C478 C 0.39185 0.71703 0.47973 0.0
C479 C 0.36764 0.71268 0.48763 0.0
C480 C 0.38015 0.70672 0.43839 0.0
H481 H 0.33147 0.70232 0.47651 0.0
C482 C 0.28868 0.68703 0.44816 0.0
O483 O 0.28953 0.62344 0.43441 0.0
O484 O 0.3184 0.63209 0.46158 0.0
N485 N 0.36719 0.69431 0.39981 0.0
C486 C 0.37076 0.68964 0.37529 0.0
C487 C 0.3939 0.69338 0.36434 0.0
C488 C 0.41304 0.70191 0.3787 0.0
C489 C 0.40911 0.70613 0.40402 0.0
C490 C 0.38554 0.70247 0.41378 0.0
H491 H 0.35594 0.68344 0.36408 0.0
O492 O 0.34052 0.63332 0.41417 0.0
O493 O 0.34088 0.66528 0.42849 0.0
O494 O 0.29952 0.65703 0.39557 0.0
O495 O 0.31741 0.68769 0.3884 0.0
C496 C 0.42762 0.71389 0.41992 0.0
C497 C 0.42231 0.71767 0.44529 0.0
H498 H 0.40531 0.72257 0.49309 0.0
H499 H 0.36254 0.71487 0.50696 0.0
H500 H 0.39685 0.68998 0.3448 0.0
H501 H 0.43063 0.70536 0.37008 0.0
H502 H 0.44607 0.71679 0.4129 0.0
H503 H 0.43678 0.72335 0.45743 0.0
Mn504 Mn 0.19036 0.643 0.08793 0.0
Mn505 Mn 0.16255 0.68915 0.09762 0.0
C506 C 0.14839 0.64476 0.09659 0.0
C507 C 0.20307 0.61497 0.06349 0.0
C508 C 0.19515 0.66847 0.13609 0.0
O509 O 0.21486 0.6634 0.07211 0.0
O510 O 0.19412 0.69318 0.07938 0.0
C511 C 0.151 0.69975 0.04515 0.0
N512 N 0.14332 0.69632 0.06899 0.0
C513 C 0.10121 0.70428 0.05822 0.0
C514 C 0.10867 0.70797 0.03356 0.0
C515 C 0.13366 0.70562 0.02698 0.0
C516 C 0.11929 0.69834 0.07547 0.0
H517 H 0.17021 0.69805 0.04003 0.0
C518 C 0.21262 0.68311 0.07061 0.0
O519 O 0.21351 0.6193 0.0846 0.0
O520 O 0.18615 0.62773 0.05573 0.0
N521 N 0.13165 0.68737 0.11487 0.0
C522 C 0.12731 0.68229 0.13916 0.0
C523 C 0.10311 0.68328 0.14856 0.0
C524 C 0.08369 0.68974 0.13301 0.0
C525 C 0.08867 0.69511 0.10816 0.0
C526 C 0.11313 0.69373 0.0998 0.0
H527 H 0.14219 0.67744 0.15124 0.0
O528 O 0.16076 0.62802 0.10144 0.0
O529 O 0.161 0.66002 0.08734 0.0
O530 O 0.19995 0.65255 0.12297 0.0
O531 O 0.18142 0.68323 0.12844 0.0
C532 C 0.07029 0.70166 0.09133 0.0
C533 C 0.07652 0.70611 0.06633 0.0
H534 H 0.09537 0.71253 0.01951 0.0
H535 H 0.13955 0.70837 1.00797 0.0
H536 H 0.09943 0.67912 0.16776 0.0
H537 H 0.06504 0.69045 0.14031 0.0
H538 H 0.05122 0.70301 0.09731 0.0
H539 H 0.06213 0.71076 0.05345 0.0
Mn540 Mn 0.31372 0.38661 0.58477 0.0
Mn541 Mn 0.34314 0.3417 0.59776 0.0
C542 C 0.35508 0.38672 0.59628 0.0
C543 C 0.30171 0.41363 0.55837 0.0
C544 C 0.30637 0.36184 0.63299 0.0
O545 O 0.29133 0.36483 0.56818 0.0
O546 O 0.31424 0.33633 0.57601 0.0
C547 C 0.36121 0.33113 0.54716 0.0
N548 N 0.36587 0.33485 0.57172 0.0
C549 C 0.40925 0.32801 0.56609 0.0
C550 C 0.40488 0.32395 0.54078 0.0
C551 C 0.38077 0.32559 0.53127 0.0
C552 C 0.38902 0.33342 0.58104 0.0
H553 H 0.34273 0.33244 0.53976 0.0
C554 C 0.29565 0.34538 0.56595 0.0
O555 O 0.28987 0.40951 0.57881 0.0
O556 O 0.3195 0.40109 0.55228 0.0
N557 N 0.37177 0.34488 0.61835 0.0
C558 C 0.37311 0.35073 0.64273 0.0
C559 C 0.39607 0.3505 0.65493 0.0
C560 C 0.41735 0.34414 0.642 0.0
C561 C 0.41553 0.33827 0.61689 0.0
C562 C 0.39212 0.33864 0.60578 0.0
H563 H 0.3568 0.35552 0.65281 0.0
O564 O 0.34153 0.40306 0.59956 0.0
O565 O 0.34396 0.37073 0.5869 0.0
O566 O 0.30233 0.37773 0.61956 0.0
O567 O 0.32069 0.34716 0.62627 0.0
C568 C 0.43606 0.33238 0.60235 0.0
C569 C 0.43294 0.32732 0.57695 0.0
H570 H 0.41994 0.31976 0.52844 0.0
H571 H 0.37728 0.3226 0.51173 0.0
H572 H 0.39734 0.35514 0.67427 0.0
H573 H 0.43499 0.34391 0.65151 0.0
H574 H 0.45439 0.33203 0.61039 0.0
H575 H 0.44895 0.32319 0.56586 0.0
H576 H 0.34253 0.22851 0.10217 0.0
H577 H 0.32542 0.2575 0.07842 0.0
H578 H 0.29313 0.21474 0.02607 0.0
H579 H 0.31025 0.1857 0.04949 0.0
H580 H 0.31583 0.24607 1.00219 0.0
H581 H 0.25811 0.2392 0.07028 0.0
H582 H 0.24553 0.23764 0.11446 0.0
H583 H 0.27413 0.29882 0.12628 0.0
H584 H 0.28719 0.30062 0.08221 0.0
H585 H 0.22198 0.30139 0.94196 0.0
H586 H 0.24722 0.27831 0.96707 0.0
H587 H 0.27435 0.3303 0.00931 0.0
H588 H 0.2487 0.35381 0.98408 0.0
H589 H 0.25918 0.29795 0.03955 0.0
H590 H 0.31263 0.30607 0.96972 0.0
H591 H 0.3241 0.30746 0.92524 0.0
H592 H 0.30305 0.24384 0.91641 0.0
H593 H 0.2911 0.24214 0.96077 0.0
C594 C 0.33169 0.22522 0.08567 0.0
C595 C 0.32776 0.20466 0.07785 0.0
C596 C 0.32187 0.24186 0.07213 0.0
C597 C 0.30785 0.23834 0.0505 0.0
C598 C 0.30392 0.21788 0.04265 0.0
C599 C 0.31366 0.20125 0.05618 0.0
C600 C 0.29742 0.25588 0.0358 0.0
C601 C 0.3033 0.25732 0.01034 0.0
C602 C 0.28172 0.27101 0.04655 0.0
C603 C 0.2739 0.26994 0.07303 0.0
C604 C 0.26192 0.25225 0.08236 0.0
C605 C 0.25466 0.25133 0.10737 0.0
C606 C 0.2591 0.26809 0.12319 0.0
C607 C 0.27075 0.28583 0.11402 0.0
C608 C 0.27808 0.28681 0.08902 0.0
C609 C 0.23345 0.30807 0.95641 0.0
C610 C 0.23326 0.32953 0.96097 0.0
C611 C 0.248 0.29478 0.97072 0.0
C612 C 0.26287 0.30253 0.98998 0.0
C613 C 0.26307 0.32398 0.99448 0.0
C614 C 0.24855 0.3374 0.97995 0.0
C615 C 0.27717 0.28785 1.00583 0.0
C616 C 0.27202 0.28691 0.03149 0.0
C617 C 0.29353 0.27313 0.99527 0.0
C618 C 0.30082 0.27403 0.96857 0.0
C619 C 0.31028 0.29241 0.95826 0.0
C620 C 0.3169 0.29325 0.93307 0.0
C621 C 0.31427 0.27576 0.918 0.0
C622 C 0.30507 0.25738 0.92811 0.0
C623 C 0.29841 0.25646 0.95329 0.0
H624 H 0.3194 0.27643 0.8985 0.0
H625 H 0.25346 0.26736 0.14255 0.0
H626 H 0.27632 0.72716 0.44043 0.0
H627 H 0.25222 0.74973 0.46735 0.0
H628 H 0.23506 0.69815 0.5153 0.0
H629 H 0.25953 0.6751 0.48814 0.0
H630 H 0.19426 0.72899 0.50661 0.0
H631 H 0.27804 0.72526 0.5351 0.0
H632 H 0.32321 0.72492 0.52937 0.0
H633 H 0.3205 0.78645 0.49918 0.0
H634 H 0.27519 0.78705 0.50446 0.0
H635 H 0.15963 0.80156 0.602 0.0
H636 H 0.17778 0.77209 0.58 0.0
H637 H 0.21562 0.81386 0.5302 0.0
H638 H 0.198 0.84338 0.55231 0.0
H639 H 0.24589 0.78406 0.54457 0.0
H640 H 0.16236 0.78708 0.51323 0.0
H641 H 0.11693 0.78734 0.51694 0.0
H642 H 0.11882 0.72734 0.55134 0.0
H643 H 0.16432 0.72686 0.54816 0.0
C644 C 0.26717 0.72043 0.45648 0.0
C645 C 0.27016 0.69933 0.46231 0.0
C646 C 0.25333 0.7334 0.47184 0.0
C647 C 0.24217 0.72571 0.49352 0.0
C648 C 0.2436 0.70439 0.49865 0.0
C649 C 0.25754 0.69125 0.48312 0.0
C650 C 0.23118 0.74058 0.51156 0.0
C651 C 0.20554 0.74078 0.5154 0.0
C652 C 0.24588 0.75617 0.52262 0.0
C653 C 0.2732 0.75614 0.52004 0.0
C654 C 0.28706 0.73868 0.52712 0.0
C655 C 0.3127 0.73844 0.52395 0.0
C656 C 0.32473 0.75563 0.51383 0.0
C657 C 0.31115 0.77314 0.507 0.0
C658 C 0.28549 0.77345 0.51013 0.0
C659 C 0.17186 0.80453 0.5864 0.0
C660 C 0.1773 0.82496 0.57899 0.0
C661 C 0.18213 0.7876 0.57374 0.0
C662 C 0.1979 0.79068 0.55323 0.0
C663 C 0.20353 0.81103 0.54596 0.0
C664 C 0.19336 0.82795 0.55863 0.0
C665 C 0.20877 0.77285 0.53934 0.0
C666 C 0.23452 0.77212 0.53621 0.0
C667 C 0.1941 0.75683 0.52897 0.0
C668 C 0.16675 0.75704 0.53072 0.0
C669 C 0.1531 0.77401 0.52176 0.0
C670 C 0.12734 0.77419 0.52374 0.0
C671 C 0.115 0.7574 0.53444 0.0
C672 C 0.1284 0.74036 0.54311 0.0
C673 C 0.15417 0.74012 0.54121 0.0
H674 H 0.09505 0.75757 0.53596 0.0
H675 H 0.34458 0.7554 0.51134 0.0
H676 H 0.31225 0.83791 0.96851 0.0
H677 H 0.29624 0.809 0.99299 0.0
H678 H 0.31411 0.76693 0.93323 0.0
H679 H 0.3301 0.79578 0.90847 0.0
H680 H 0.26825 0.75922 0.95256 0.0
H681 H 0.35005 0.76839 0.98411 0.0
H682 H 0.38531 0.78787 1.00127 0.0
H683 H 0.34214 0.8043 0.06555 0.0
H684 H 0.30648 0.78518 0.04859 0.0
H685 H 0.2406 0.67198 0.02986 0.0
H686 H 0.26599 0.69512 1.0039 0.0
H687 H 0.25169 0.74538 0.05482 0.0
H688 H 0.22642 0.72256 0.08054 0.0
H689 H 0.29971 0.74569 0.03795 0.0
H690 H 0.21714 0.74045 1.00456 0.0
H691 H 0.18111 0.72166 0.98795 0.0
H692 H 0.22529 0.69845 0.92752 0.0
H693 H 0.26173 0.71686 0.94404 0.0
C694 C 0.31277 0.82255 0.96048 0.0
C695 C 0.32257 0.81925 0.93646 0.0
C696 C 0.3037 0.80598 0.97459 0.0
C697 C 0.30424 0.78573 0.96509 0.0
C698 C 0.31357 0.7824 0.94098 0.0
C699 C 0.32275 0.79895 0.92687 0.0
C700 C 0.29494 0.7681 0.98035 0.0
C701 C 0.27548 0.756 0.97103 0.0
C702 C 0.30407 0.76406 1.00463 0.0
C703 C 0.32553 0.77548 0.01498 0.0
C704 C 0.34801 0.77628 1.00182 0.0
C705 C 0.36808 0.78724 0.01152 0.0
C706 C 0.36595 0.79735 0.03446 0.0
C707 C 0.34376 0.79647 0.04777 0.0
C708 C 0.32362 0.78556 0.03814 0.0
C709 C 0.24339 0.68784 0.03576 0.0
C710 C 0.23142 0.69549 0.05715 0.0
C711 C 0.25774 0.70107 0.02086 0.0
C712 C 0.26052 0.72206 0.02729 0.0
C713 C 0.24981 0.7293 0.04946 0.0
C714 C 0.2353 0.71622 0.0641 0.0
C715 C 0.27287 0.73702 0.01027 0.0
C716 C 0.29282 0.74868 0.0193 0.0
C717 C 0.26413 0.74072 0.98578 0.0
C718 C 0.24222 0.72981 0.9757 0.0
C719 C 0.21922 0.7312 0.98785 0.0
C720 C 0.19872 0.72064 0.97844 0.0
C721 C 0.20093 0.70881 0.95673 0.0
C722 C 0.22363 0.70758 0.94436 0.0
C723 C 0.24421 0.71807 0.95374 0.0
H724 H 0.18503 0.70065 0.94947 0.0
H725 H 0.38151 0.80582 0.04194 0.0
H726 H 0.30587 0.30681 0.54838 0.0
H727 H 0.28091 0.28494 0.52171 0.0
H728 H 0.22363 0.3313 0.52025 0.0
H729 H 0.24895 0.35386 0.5471 0.0
H730 H 0.20763 0.28758 0.52938 0.0
H731 H 0.25357 0.32838 0.47088 0.0
H732 H 0.2912 0.34473 0.45403 0.0
H733 H 0.32454 0.28495 0.44427 0.0
H734 H 0.28724 0.26825 0.46143 0.0
H735 H 0.17705 0.23044 0.4046 0.0
H736 H 0.19352 0.26027 0.4273 0.0
H737 H 0.21009 0.22105 0.49016 0.0
H738 H 0.19391 0.19111 0.46759 0.0
H739 H 0.24089 0.26671 0.44678 0.0
H740 H 0.1976 0.24946 0.54339 0.0
H741 H 0.16029 0.2329 0.56072 0.0
H742 H 0.12052 0.24656 0.49342 0.0
H743 H 0.15746 0.26349 0.47585 0.0
C744 C 0.28796 0.31253 0.54258 0.0
C745 C 0.27948 0.33223 0.55 0.0
C746 C 0.27372 0.29992 0.5272 0.0
C747 C 0.2505 0.3065 0.51889 0.0
C748 C 0.24157 0.32596 0.52648 0.0
C749 C 0.25607 0.33884 0.54174 0.0
C750 C 0.23611 0.29278 0.50206 0.0
C751 C 0.2147 0.28317 0.5112 0.0
C752 C 0.24531 0.28711 0.47829 0.0
C753 C 0.26764 0.29707 0.46757 0.0
C754 C 0.26898 0.31872 0.46529 0.0
C755 C 0.29025 0.32806 0.45566 0.0
C756 C 0.31026 0.31589 0.44811 0.0
C757 C 0.30902 0.29436 0.45012 0.0
C758 C 0.2878 0.28495 0.45976 0.0
C759 C 0.18424 0.22811 0.42323 0.0
C760 C 0.18417 0.2083 0.43421 0.0
C761 C 0.19367 0.2452 0.43617 0.0
C762 C 0.20281 0.24294 0.46051 0.0
C763 C 0.20288 0.22321 0.47149 0.0
C764 C 0.19375 0.20607 0.45848 0.0
C765 C 0.21274 0.26108 0.47435 0.0
C766 C 0.23348 0.27138 0.46472 0.0
C767 C 0.20287 0.26739 0.49763 0.0
C768 C 0.18039 0.2576 0.50824 0.0
C769 C 0.18086 0.24904 0.53235 0.0
C770 C 0.15977 0.23957 0.5422 0.0
C771 C 0.13807 0.23863 0.52816 0.0
C772 C 0.13737 0.24724 0.50425 0.0
C773 C 0.15839 0.25675 0.49432 0.0
H774 H 0.12178 0.23127 0.53581 0.0
H775 H 0.32672 0.32315 0.44068 0.0
H776 H 0.83466 0.72379 0.10411 0.0
H777 H 0.81713 0.75267 0.08056 0.0
H778 H 0.78451 0.70977 0.02859 0.0
H779 H 0.80213 0.68079 0.05183 0.0
H780 H 0.80647 0.74115 1.00438 0.0
H781 H 0.74982 0.73439 0.07329 0.0
H782 H 0.73784 0.73278 0.11764 0.0
H783 H 0.76683 0.79385 0.12924 0.0
H784 H 0.77929 0.79571 0.085 0.0
H785 H 0.71302 0.79823 0.94548 0.0
H786 H 0.73782 0.77452 0.9702 0.0
H787 H 0.76658 0.8257 0.01275 0.0
H788 H 0.74141 0.84985 0.98792 0.0
H789 H 0.75094 0.79335 0.04278 0.0
H790 H 0.80381 0.80127 0.97244 0.0
H791 H 0.81484 0.80278 0.92785 0.0
H792 H 0.79257 0.73948 0.91871 0.0
H793 H 0.78105 0.73767 0.96318 0.0
C794 C 0.82365 0.72043 0.08775 0.0
C795 C 0.81979 0.69985 0.07999 0.0
C796 C 0.81358 0.73702 0.07432 0.0
C797 C 0.79933 0.73344 0.05286 0.0
C798 C 0.79546 0.71295 0.04506 0.0
C799 C 0.80548 0.69636 0.05847 0.0
C800 C 0.78865 0.75098 0.0383 0.0
C801 C 0.79417 0.75246 0.01276 0.0
C802 C 0.77323 0.76619 0.04933 0.0
C803 C 0.76576 0.76509 0.07591 0.0
C804 C 0.75384 0.7474 0.08535 0.0
C805 C 0.74692 0.74646 0.11046 0.0
C806 C 0.75164 0.76317 0.12627 0.0
C807 C 0.76323 0.7809 0.11698 0.0
C808 C 0.77021 0.78191 0.09189 0.0
C809 C 0.72474 0.8046 0.95994 0.0
C810 C 0.72517 0.82603 0.96468 0.0
C811 C 0.73904 0.79095 0.97402 0.0
C812 C 0.75425 0.79828 0.99324 0.0
C813 C 0.75502 0.81969 0.99795 0.0
C814 C 0.74076 0.83348 0.98365 0.0
C815 C 0.76839 0.78326 1.00878 0.0
C816 C 0.76352 0.78222 0.03449 0.0
C817 C 0.7844 0.76842 0.99791 0.0
C818 C 0.79141 0.76939 0.97114 0.0
C819 C 0.80109 0.78772 0.96089 0.0
C820 C 0.80746 0.78862 0.93564 0.0
C821 C 0.80437 0.77125 0.92045 0.0
C822 C 0.79495 0.75293 0.9305 0.0
C823 C 0.78853 0.75195 0.95574 0.0
H824 H 0.80931 0.77198 0.9009 0.0
H825 H 0.74626 0.76242 0.1457 0.0
H826 H 0.76552 0.16641 0.49445 0.0
H827 H 0.74119 0.19032 0.52061 0.0
H828 H 0.75945 0.2406 0.47101 0.0
H829 H 0.78348 0.21715 0.44517 0.0
H830 H 0.77037 0.25006 0.51862 0.0
H831 H 0.70148 0.22078 0.47346 0.0
H832 H 0.67462 0.19246 0.4589 0.0
H833 H 0.65735 0.1766 0.53473 0.0
H834 H 0.68439 0.20468 0.54975 0.0
H835 H 0.69607 0.33401 0.55475 0.0
H836 H 0.71443 0.30522 0.53183 0.0
H837 H 0.68797 0.2625 0.58756 0.0
H838 H 0.66913 0.2912 0.6105 0.0
H839 H 0.68161 0.24664 0.54139 0.0
H840 H 0.74833 0.27692 0.58666 0.0
H841 H 0.7753 0.30502 0.60164 0.0
H842 H 0.79736 0.31832 0.52637 0.0
H843 H 0.77024 0.29049 0.51089 0.0
C844 C 0.76384 0.18247 0.4889 0.0
C845 C 0.77666 0.18989 0.46786 0.0
C846 C 0.75002 0.19614 0.50388 0.0
C847 C 0.7487 0.21735 0.49792 0.0
C848 C 0.76041 0.22441 0.47621 0.0
C849 C 0.77414 0.21091 0.4614 0.0
C850 C 0.73662 0.23271 0.51474 0.0
C851 C 0.7509 0.24937 0.5234 0.0
C852 C 0.71144 0.23152 0.52174 0.0
C853 C 0.69519 0.21466 0.51273 0.0
C854 C 0.69214 0.21113 0.48703 0.0
C855 C 0.67684 0.19515 0.47869 0.0
C856 C 0.66435 0.18269 0.49588 0.0
C857 C 0.66708 0.18623 0.52144 0.0
C858 C 0.68237 0.20218 0.52988 0.0
C859 C 0.6941 0.31852 0.56222 0.0
C860 C 0.68124 0.31505 0.58466 0.0
C861 C 0.7047 0.30203 0.54907 0.0
C862 C 0.70291 0.28166 0.55811 0.0
C863 C 0.68967 0.27805 0.58022 0.0
C864 C 0.67901 0.29455 0.59339 0.0
C865 C 0.71524 0.26428 0.54461 0.0
C866 C 0.70111 0.24723 0.53673 0.0
C867 C 0.74066 0.26502 0.53836 0.0
C868 C 0.75709 0.28172 0.5476 0.0
C869 C 0.7588 0.28593 0.57328 0.0
C870 C 0.77413 0.3018 0.58187 0.0
C871 C 0.788 0.31347 0.56496 0.0
C872 C 0.7866 0.30928 0.53944 0.0
C873 C 0.77126 0.29344 0.53075 0.0
H874 H 0.79986 0.32575 0.57165 0.0
H875 H 0.65251 0.17033 0.48938 0.0
H876 H 0.81748 0.33467 0.97138 0.0
H877 H 0.80136 0.3063 0.99675 0.0
H878 H 0.8219 0.26263 0.93958 0.0
H879 H 0.83798 0.29089 0.91396 0.0
H880 H 0.77578 0.25474 0.95775 0.0
H881 H 0.8563 0.26663 0.99164 0.0
H882 H 0.89025 0.28744 0.0092 0.0
H883 H 0.84427 0.30465 0.07115 0.0
H884 H 0.8099 0.28418 0.05377 0.0
H885 H 0.74816 0.16881 0.03675 0.0
H886 H 0.77345 0.19196 0.01074 0.0
H887 H 0.75754 0.24264 0.06058 0.0
H888 H 0.73252 0.21978 0.08645 0.0
H889 H 0.80506 0.24412 0.04451 0.0
H890 H 0.7238 0.23592 0.00901 0.0
H891 H 0.68889 0.21598 0.99194 0.0
H892 H 0.73548 0.19269 0.93343 0.0
H893 H 0.77081 0.21228 0.95042 0.0
C894 C 0.81857 0.31906 0.96411 0.0
C895 C 0.82913 0.31515 0.94057 0.0
C896 C 0.80943 0.30281 0.97874 0.0
C897 C 0.81068 0.28227 0.97022 0.0
C898 C 0.82079 0.27833 0.94658 0.0
C899 C 0.83003 0.29455 0.93197 0.0
C900 C 0.8013 0.26496 0.98599 0.0
C901 C 0.78253 0.25218 0.97655 0.0
C902 C 0.80977 0.26178 0.01069 0.0
C903 C 0.83046 0.27399 0.02129 0.0
C904 C 0.85336 0.27497 1.00892 0.0
C905 C 0.87269 0.28669 0.01885 0.0
C906 C 0.8694 0.2974 0.04125 0.0
C907 C 0.84679 0.29636 0.05379 0.0
C908 C 0.82738 0.28468 0.04392 0.0
C909 C 0.75058 0.18476 0.04244 0.0
C910 C 0.73822 0.19249 0.06356 0.0
C911 C 0.76486 0.19801 0.02748 0.0
C912 C 0.76713 0.21913 0.03354 0.0
C913 C 0.75606 0.22646 0.05548 0.0
C914 C 0.74167 0.21335 0.07021 0.0
C915 C 0.77938 0.23408 0.01637 0.0
C916 C 0.79862 0.24648 0.02557 0.0
C917 C 0.77125 0.23699 0.99151 0.0
C918 C 0.75001 0.22535 0.98116 0.0
C919 C 0.72665 0.22641 0.99263 0.0
C920 C 0.70678 0.21519 0.98295 0.0
C921 C 0.70998 0.20302 0.96166 0.0
C922 C 0.73305 0.20209 0.94996 0.0
C923 C 0.753 0.21325 0.9596 0.0
H924 H 0.69457 0.19434 0.95419 0.0
H925 H 0.88439 0.30646 0.04891 0.0
H926 H 0.77076 0.79628 0.58084 0.0
H927 H 0.74701 0.7741 0.55321 0.0
H928 H 0.73867 0.82444 0.50114 0.0
H929 H 0.76291 0.84705 0.52898 0.0
H930 H 0.6943 0.79588 0.5085 0.0
H931 H 0.78014 0.79438 0.48501 0.0
H932 H 0.82496 0.79217 0.49232 0.0
H933 H 0.81571 0.73281 0.52718 0.0
H934 H 0.77071 0.73469 0.52001 0.0
H935 H 0.663 0.72203 0.41307 0.0
H936 H 0.68042 0.75138 0.43582 0.0
H937 H 0.71258 0.70944 0.48935 0.0
H938 H 0.69575 0.68005 0.46651 0.0
H939 H 0.74504 0.7375 0.47676 0.0
H940 H 0.6594 0.7389 0.50143 0.0
H941 H 0.61442 0.7405 0.49433 0.0
H942 H 0.62251 0.79956 0.45851 0.0
H943 H 0.66762 0.79816 0.46508 0.0
C944 C 0.76355 0.80287 0.56374 0.0
C945 C 0.769 0.82343 0.55701 0.0
C946 C 0.74993 0.79011 0.54795 0.0
C947 C 0.74137 0.7975 0.52497 0.0
C948 C 0.74516 0.81843 0.51882 0.0
C949 C 0.75892 0.83135 0.53476 0.0
C950 C 0.7307 0.78254 0.50685 0.0
C951 C 0.70543 0.78334 0.50108 0.0
C952 C 0.7451 0.76593 0.49762 0.0
C953 C 0.77208 0.76475 0.50213 0.0
C954 C 0.78765 0.78093 0.49441 0.0
C955 C 0.8131 0.77971 0.49849 0.0
C956 C 0.82321 0.76239 0.51032 0.0
C957 C 0.80786 0.74622 0.51803 0.0
C958 C 0.78239 0.74732 0.51389 0.0
C959 C 0.67382 0.71901 0.42965 0.0
C960 C 0.67796 0.69856 0.43786 0.0
C961 C 0.68365 0.73587 0.44276 0.0
C962 C 0.69762 0.73272 0.46452 0.0
C963 C 0.70188 0.71234 0.47263 0.0
C964 C 0.69219 0.6955 0.45951 0.0
C965 C 0.70839 0.75045 0.47866 0.0
C966 C 0.73381 0.75014 0.48378 0.0
C967 C 0.69402 0.7674 0.48729 0.0
C968 C 0.66691 0.76831 0.48348 0.0
C969 C 0.65161 0.75215 0.49186 0.0
C970 C 0.62609 0.75303 0.48796 0.0
C971 C 0.61562 0.77009 0.47591 0.0
C972 C 0.63065 0.78634 0.4678 0.0
C973 C 0.65619 0.78551 0.47161 0.0
H974 H 0.59586 0.77075 0.47291 0.0
H975 H 0.84293 0.76143 0.51344 0.0
H976 H 0.32183 0.10094 0.0308 0.0
H977 H 0.32098 0.06908 1.00669 0.0
H978 H 0.34706 0.03504 0.07082 0.0
H979 H 0.34963 0.06745 0.09454 0.0
H980 H 0.36937 0.02054 0.03426 0.0
H981 H 0.28351 0.03377 0.04628 0.0
H982 H 0.24465 0.05374 0.04608 0.0
H983 H 0.24985 0.06091 0.96662 0.0
H984 H 0.28892 0.0412 0.96637 0.0
H985 H 0.31737 0.92432 0.98182 0.0
H986 H 0.31672 0.95682 1.00513 0.0
H987 H 0.35355 0.98759 0.94428 0.0
H988 H 0.35492 0.95484 0.9209 0.0
H989 H 0.29893 1.00242 0.97929 0.0
H990 H 0.39092 0.99145 0.97276 0.0
H991 H 0.42671 0.96797 0.97677 0.0
H992 H 0.40458 0.95267 0.05148 0.0
H993 H 0.36844 0.97584 0.04771 0.0
C994 C 0.32711 0.08663 0.0399 0.0
C995 C 0.33557 0.08669 0.06469 0.0
C996 C 0.32648 0.0683 0.02608 0.0
C997 C 0.33338 0.04934 0.03692 0.0
C998 C 0.34156 0.04936 0.06188 0.0
C999 C 0.34288 0.06786 0.07554 0.0
C1000 C 0.333 0.02979 0.02189 0.0
C1001 C 0.35379 0.01668 0.02243 0.0
C1002 C 0.3128 0.02435 1.00628 0.0
C1003 C 0.28926 0.03616 1.00635 0.0
C1004 C 0.27645 0.03972 0.02878 0.0
C1005 C 0.25437 0.05098 0.02874 0.0
C1006 C 0.24482 0.05863 1.00636 0.0
C1007 C 0.25729 0.05499 0.98395 0.0
C1008 C 0.27938 0.04375 0.98388 0.0
C1009 C 0.32524 0.93799 0.97325 0.0
C1010 C 0.33624 0.93695 0.94946 0.0
C1011 C 0.32488 0.95654 0.98667 0.0
C1012 C 0.33526 0.97452 0.97653 0.0
C1013 C 0.34564 0.97379 0.95251 0.0
C1014 C 0.34635 0.9551 0.93916 0.0
C1015 C 0.33539 0.99392 0.99136 0.0
C1016 C 0.31445 1.00668 0.991 0.0
C1017 C 0.3551 0.99882 1.00753 0.0
C1018 C 0.37689 0.98513 0.00984 0.0
C1019 C 0.39358 0.98291 0.98993 0.0
C1020 C 0.41394 0.9697 0.99218 0.0
C1021 C 0.41787 0.95878 0.01434 0.0
C1022 C 0.40148 0.9611 0.03431 0.0
C1023 C 0.38107 0.97426 0.03213 0.0
H1024 H 0.43365 0.94857 0.01605 0.0
H1025 H 0.22773 0.06734 1.00637 0.0
H1026 H 0.19928 0.93017 0.53925 0.0
H1027 H 0.20217 0.96214 0.51539 0.0
H1028 H 0.1619 0.99442 0.57303 0.0
H1029 H 0.15781 0.96201 0.59643 0.0
H1030 H 0.14411 1.00561 0.53172 0.0
H1031 H 0.2273 1.00094 0.56083 0.0
H1032 H 0.26775 0.98453 0.56854 0.0
H1033 H 0.2787 0.977 0.48973 0.0
H1034 H 0.23818 0.99313 0.48155 0.0
H1035 H 0.20849 0.1012 0.4725 0.0
H1036 H 0.21083 0.06993 0.49799 0.0
H1037 H 0.15279 0.04222 0.45424 0.0
H1038 H 0.15003 0.07369 0.42888 0.0
H1039 H 0.22088 0.03056 0.49105 0.0
H1040 H 0.11558 0.01369 0.49217 0.0
H1041 H 0.07621 0.03278 0.48866 0.0
H1042 H 0.11161 0.08807 0.5149 0.0
H1043 H 0.15107 0.06925 0.51891 0.0
C1044 C 0.19137 0.94414 0.54709 0.0
C1045 C 0.1784 0.94355 0.56983 0.0
C1046 C 0.19313 0.96251 0.53341 0.0
C1047 C 0.18256 0.98093 0.54243 0.0
C1048 C 0.17021 0.98048 0.56555 0.0
C1049 C 0.16802 0.96197 0.57904 0.0
C1050 C 0.18319 1.00027 0.52709 0.0
C1051 C 0.16097 1.01103 0.52293 0.0
C1052 C 0.20516 1.00771 0.51574 0.0
C1053 C 0.22961 0.9981 0.5206 0.0
C1054 C 0.23827 0.99567 0.54515 0.0
C1055 C 0.26122 0.98643 0.5496 0.0
C1056 C 0.27576 0.97969 0.52964 0.0
C1057 C 0.26741 0.98222 0.50517 0.0
C1058 C 0.24447 0.99143 0.50062 0.0
C1059 C 0.19639 0.08837 0.46807 0.0
C1060 C 0.17895 0.09002 0.44872 0.0
C1061 C 0.19779 0.07046 0.48269 0.0
C1062 C 0.18173 0.0538 0.47836 0.0
C1063 C 0.16509 0.055 0.45827 0.0
C1064 C 0.16364 0.07296 0.44365 0.0
C1065 C 0.18179 0.03557 0.49547 0.0
C1066 C 0.20409 0.02506 0.4999 0.0
C1067 C 0.16005 0.0287 0.50766 0.0
C1068 C 0.13633 0.0401 0.50556 0.0
C1069 C 0.11493 0.0299 0.49727 0.0
C1070 C 0.09261 0.04068 0.49519 0.0
C1071 C 0.09143 0.06164 0.50147 0.0
C1072 C 0.11256 0.07186 0.50994 0.0
C1073 C 0.13491 0.06114 0.5121 0.0
H1074 H 0.07414 0.06996 0.49982 0.0
H1075 H 0.29352 0.97254 0.53313 0.0
H1076 H 0.73324 0.93974 0.94775 0.0
H1077 H 0.73675 0.97374 0.96698 0.0
H1078 H 0.68637 0.95494 0.02517 0.0
H1079 H 0.68203 0.92099 1.00533 0.0
H1080 H 0.67338 0.99093 0.01003 0.0
H1081 H 0.75054 0.96239 0.03519 0.0
H1082 H 0.79066 0.94473 0.03027 0.0
H1083 H 0.81558 0.99304 0.98133 0.0
H1084 H 0.77547 1.01086 0.98569 0.0
H1085 H 0.73758 0.08003 0.08249 0.0
H1086 H 0.73901 0.04515 0.06523 0.0
H1087 H 0.68984 0.06384 1.00604 0.0
H1088 H 0.6877 0.09873 0.02375 0.0
H1089 H 0.75288 0.02706 0.02472 0.0
H1090 H 0.65093 0.02462 0.99154 0.0
H1091 H 0.61091 0.0408 1.00198 0.0
H1092 H 0.63569 0.05146 0.07693 0.0
H1093 H 0.67572 0.03509 0.06705 0.0
C1094 C 0.7232 0.94267 0.96488 0.0
C1095 C 0.7074 0.92759 0.97504 0.0
C1096 C 0.72529 0.96219 0.97593 0.0
C1097 C 0.71201 0.96698 0.99772 0.0
C1098 C 0.69678 0.9517 1.00834 0.0
C1099 C 0.69445 0.93222 0.9971 0.0
C1100 C 0.71307 0.98824 1.00857 0.0
C1101 C 0.6908 0.99876 0.01328 0.0
C1102 C 0.73573 0.99851 0.01326 0.0
C1103 C 0.75991 0.98787 0.01061 0.0
C1104 C 0.76451 0.96917 0.02324 0.0
C1105 C 0.78726 0.95915 0.02057 0.0
C1106 C 0.80564 0.96773 1.00546 0.0
C1107 C 0.80132 0.98639 0.99302 0.0
C1108 C 0.77859 0.99648 0.9956 0.0
C1109 C 0.72731 0.07684 0.06559 0.0
C1110 C 0.71236 0.09216 0.05461 0.0
C1111 C 0.72816 0.05683 0.05572 0.0
C1112 C 0.71415 0.05167 0.0346 0.0
C1113 C 0.70037 0.06728 0.02269 0.0
C1114 C 0.69933 0.08729 0.0327 0.0
C1115 C 0.71323 0.02979 0.02579 0.0
C1116 C 0.73549 0.01919 0.02144 0.0
C1117 C 0.69057 0.01921 0.02221 0.0
C1118 C 0.66642 0.02882 0.02845 0.0
C1119 C 0.6478 0.03034 0.01027 0.0
C1120 C 0.62512 0.03956 0.01609 0.0
C1121 C 0.6208 0.04722 0.04008 0.0
C1122 C 0.6391 0.04559 0.05834 0.0
C1123 C 0.66179 0.03636 0.05263 0.0
H1124 H 0.60325 0.05438 0.04452 0.0
H1125 H 0.82324 0.95995 1.00342 0.0
H1126 H 0.83517 0.0931 0.50037 0.0
H1127 H 0.83476 0.05776 0.51683 0.0
H1128 H 0.77243 0.0432 0.46994 0.0
H1129 H 0.77306 0.07834 0.45308 0.0
H1130 H 0.80397 0.03394 0.54154 0.0
H1131 H 0.77728 0.99397 0.44848 0.0
H1132 H 0.78154 0.99998 0.40321 0.0
H1133 H 0.84578 0.03742 0.41609 0.0
H1134 H 0.84211 0.03141 0.46137 0.0
H1135 H 0.77178 0.93122 0.56796 0.0
H1136 H 0.77113 0.96597 0.55019 0.0
H1137 H 0.83761 0.95244 0.50883 0.0
H1138 H 0.83809 0.9173 0.52627 0.0
H1139 H 0.80748 0.9757 0.4813 0.0
H1140 H 0.84003 0.97942 0.56376 0.0
H1141 H 0.84103 0.97352 0.60919 0.0
H1142 H 0.77436 1.00889 0.61782 0.0
H1143 H 0.77276 0.01476 0.57237 0.0
C1144 C 0.82113 0.08248 0.49384 0.0
C1145 C 0.80423 0.08855 0.4753 0.0
C1146 C 0.82095 0.06223 0.50324 0.0
C1147 C 0.80389 0.04761 0.49428 0.0
C1148 C 0.78615 0.054 0.47677 0.0
C1149 C 0.78639 0.07419 0.46728 0.0
C1150 C 0.80511 0.02559 0.50269 0.0
C1151 C 0.80465 0.02124 0.52834 0.0
C1152 C 0.80669 1.00891 0.48556 0.0
C1153 C 0.80925 0.0124 0.45833 0.0
C1154 C 0.79236 1.00342 0.44163 0.0
C1155 C 0.79467 1.00684 0.41598 0.0
C1156 C 0.81387 0.01913 0.40679 0.0
C1157 C 0.83086 0.02797 0.42324 0.0
C1158 C 0.82866 0.02458 0.4489 0.0
C1159 C 0.7861 0.93549 0.5548 0.0
C1160 C 0.80509 0.92149 0.54866 0.0
C1161 C 0.78578 0.95546 0.54476 0.0
C1162 C 0.80463 0.96207 0.5286 0.0
C1163 C 0.82293 0.94778 0.52138 0.0
C1164 C 0.82317 0.92767 0.53132 0.0
C1165 C 0.80566 0.98407 0.52012 0.0
C1166 C 0.80665 0.98841 0.49448 0.0
C1167 C 0.80523 1.00078 0.53728 0.0
C1168 C 0.80616 0.99736 0.56463 0.0
C1169 C 0.82549 0.98581 0.57533 0.0
C1170 C 0.82617 0.98249 0.60108 0.0
C1171 C 0.80774 0.99078 0.61638 0.0
C1172 C 0.78861 1.00246 0.60595 0.0
C1173 C 0.78781 1.0058 0.58019 0.0
H1174 H 0.8083 0.9882 0.63632 0.0
H1175 H 0.8156 0.02177 0.38693 0.0
H1176 H 0.81451 0.42191 0.97667 0.0
H1177 H 0.81223 0.45448 0.99928 0.0
H1178 H 0.85991 0.48306 0.94471 0.0
H1179 H 0.86289 0.45002 0.92223 0.0
H1180 H 0.87404 0.49438 0.98913 0.0
H1181 H 0.79634 0.49362 0.94782 0.0
H1182 H 0.75633 0.47946 0.93401 0.0
H1183 H 0.73259 0.47428 0.01021 0.0
H1184 H 0.7726 0.48814 0.0245 0.0
H1185 H 0.80598 0.59332 0.03794 0.0
H1186 H 0.80646 0.56209 0.01242 0.0
H1187 H 0.85811 0.53379 0.06335 0.0
H1188 H 0.85833 0.56539 0.08859 0.0
H1189 H 0.79424 0.52413 0.01739 0.0
H1190 H 0.8969 0.50153 0.0325 0.0
H1191 H 0.93669 0.51843 0.04191 0.0
H1192 H 0.91018 0.5752 0.00995 0.0
H1193 H 0.87038 0.55856 1.00005 0.0
C1194 C 0.82436 0.43513 0.96925 0.0
C1195 C 0.83881 0.43332 0.9475 0.0
C1196 C 0.82295 0.45386 0.98222 0.0
C1197 C 0.83562 0.47144 0.97364 0.0
C1198 C 0.84991 0.46977 0.95176 0.0
C1199 C 0.85149 0.4509 0.93881 0.0
C1200 C 0.83443 0.49125 0.98803 0.0
C1201 C 0.85657 0.50089 0.99524 0.0
C1202 C 0.81168 0.5001 0.99574 0.0
C1203 C 0.78756 0.49177 0.98723 0.0
C1204 C 0.78266 0.48932 0.96164 0.0
C1205 C 0.75997 0.48137 0.95373 0.0
C1206 C 0.74195 0.47593 0.97122 0.0
C1207 C 0.74657 0.47848 0.99668 0.0
C1208 C 0.76924 0.48641 1.00469 0.0
C1209 C 0.81731 0.5804 0.04389 0.0
C1210 C 0.83222 0.58194 0.0653 0.0
C1211 C 0.81755 0.56249 0.02922 0.0
C1212 C 0.83264 0.54559 0.03559 0.0
C1213 C 0.84673 0.54673 0.05762 0.0
C1214 C 0.84668 0.56477 0.0722 0.0
C1215 C 0.83386 0.52705 0.01892 0.0
C1216 C 0.81172 0.51764 0.01129 0.0
C1217 C 0.85658 0.51878 0.01023 0.0
C1218 C 0.88058 0.52884 0.01578 0.0
C1219 C 0.89961 0.51759 0.0274 0.0
C1220 C 0.92216 0.52713 0.03283 0.0
C1221 C 0.92593 0.54789 0.02661 0.0
C1222 C 0.9072 0.55914 0.01484 0.0
C1223 C 0.88464 0.54967 0.00934 0.0
H1224 H 0.94338 0.55525 0.03085 0.0
H1225 H 0.72439 0.46978 0.96506 0.0
H1226 H 0.69207 0.42075 0.54125 0.0
H1227 H 0.69414 0.45292 0.51772 0.0
H1228 H 0.64823 0.4829 0.57276 0.0
H1229 H 0.64542 0.4503 0.59614 0.0
H1230 H 0.63329 0.49401 0.52877 0.0
H1231 H 0.71205 0.4924 0.56787 0.0
H1232 H 0.75212 0.47776 0.58086 0.0
H1233 H 0.77372 0.47133 0.50416 0.0
H1234 H 0.73363 0.48568 0.49069 0.0
H1235 H 0.70069 0.59171 0.47667 0.0
H1236 H 0.70113 0.5606 0.50251 0.0
H1237 H 0.64833 0.53184 0.45329 0.0
H1238 H 0.64729 0.56323 0.4277 0.0
H1239 H 0.7129 0.52212 0.49775 0.0
H1240 H 0.60918 0.50129 0.48616 0.0
H1241 H 0.5696 0.51894 0.47772 0.0
H1242 H 0.59867 0.57546 0.50781 0.0
H1243 H 0.63829 0.55808 0.51674 0.0
C1244 C 0.68255 0.4342 0.54855 0.0
C1245 C 0.66867 0.43293 0.57071 0.0
C1246 C 0.68384 0.45269 0.53505 0.0
C1247 C 0.67165 0.47056 0.54353 0.0
C1248 C 0.65786 0.46939 0.56578 0.0
C1249 C 0.65637 0.45077 0.57923 0.0
C1250 C 0.67285 0.49018 0.52874 0.0
C1251 C 0.65073 0.50014 0.52205 0.0
C1252 C 0.69557 0.49858 0.52028 0.0
C1253 C 0.71974 0.48996 0.52828 0.0
C1254 C 0.72527 0.48773 0.55377 0.0
C1255 C 0.748 0.4795 0.56122 0.0
C1256 C 0.76543 0.47358 0.54334 0.0
C1257 C 0.76019 0.47591 0.51798 0.0
C1258 C 0.73747 0.48411 0.51043 0.0
C1259 C 0.68938 0.57868 0.47112 0.0
C1260 C 0.67385 0.58004 0.45014 0.0
C1261 C 0.68964 0.56086 0.48597 0.0
C1262 C 0.67441 0.54392 0.48022 0.0
C1263 C 0.65984 0.54483 0.45852 0.0
C1264 C 0.65943 0.56274 0.44373 0.0
C1265 C 0.67333 0.52565 0.49732 0.0
C1266 C 0.69547 0.51596 0.50446 0.0
C1267 C 0.65068 0.5179 0.50682 0.0
C1268 C 0.62678 0.52841 0.50187 0.0
C1269 C 0.60708 0.51745 0.49107 0.0
C1270 C 0.58465 0.52742 0.48618 0.0
C1271 C 0.58165 0.54833 0.49215 0.0
C1272 C 0.60105 0.55929 0.50311 0.0
C1273 C 0.6235 0.54939 0.50807 0.0
H1274 H 0.56429 0.55602 0.48832 0.0
H1275 H 0.78302 0.46722 0.54914 0.0
H1276 H 0.18294 0.60042 0.01992 0.0
H1277 H 0.18701 0.56554 1.00252 0.0
H1278 H 0.2374 0.54921 0.06168 0.0
H1279 H 0.234 0.5841 0.07865 0.0
H1280 H 0.25227 0.53162 0.02111 0.0
H1281 H 0.17506 0.53639 0.06389 0.0
H1282 H 0.13414 0.551 0.07407 0.0
H1283 H 0.10945 0.5391 0.99935 0.0
H1284 H 0.15035 0.52468 0.98862 0.0
H1285 H 0.18766 0.42272 1.00219 0.0
H1286 H 0.19033 0.45675 0.02212 0.0
H1287 H 0.23908 0.47761 0.96354 0.0
H1288 H 0.23723 0.44355 0.94419 0.0
H1289 H 0.17503 0.49207 1.00696 0.0
H1290 H 0.27567 0.51633 0.98207 0.0
H1291 H 0.31679 0.50023 0.97757 0.0
H1292 H 0.29503 0.45098 0.02667 0.0
H1293 H 0.25391 0.46692 0.03173 0.0
C1294 C 0.19522 0.5895 0.02895 0.0
C1295 C 0.20803 0.59502 0.05075 0.0
C1296 C 0.19738 0.5695 0.01911 0.0
C1297 C 0.21211 0.55454 0.03107 0.0
C1298 C 0.22584 0.56038 0.05213 0.0
C1299 C 0.22385 0.58039 0.06184 0.0
C1300 C 0.21251 0.53263 0.02238 0.0
C1301 C 0.23538 0.523 0.01795 0.0
C1302 C 0.19052 0.52108 0.01898 0.0
C1303 C 0.16585 0.52964 0.02539 0.0
C1304 C 0.16095 0.53702 0.04958 0.0
C1305 C 0.13776 0.54525 0.05546 0.0
C1306 C 0.11923 0.54603 0.03735 0.0
C1307 C 0.12384 0.53852 0.01335 0.0
C1308 C 0.14702 0.5303 1.00736 0.0
C1309 C 0.19939 0.43443 0.99389 0.0
C1310 C 0.21233 0.43037 0.97167 0.0
C1311 C 0.20076 0.45394 1.00519 0.0
C1312 C 0.215 0.46983 0.99446 0.0
C1313 C 0.22836 0.46559 0.97255 0.0
C1314 C 0.22723 0.44605 0.96144 0.0
C1315 C 0.21482 0.49111 1.00528 0.0
C1316 C 0.19196 0.50066 0.0101 0.0
C1317 C 0.23685 0.50234 0.00982 0.0
C1318 C 0.26162 0.49273 1.00708 0.0
C1319 C 0.27969 0.50211 0.99198 0.0
C1320 C 0.303 0.493 0.98932 0.0
C1321 C 0.30849 0.47456 1.00176 0.0
C1322 C 0.29072 0.46522 0.01697 0.0
C1323 C 0.2674 0.47427 0.01971 0.0
H1324 H 0.32653 0.46753 0.99967 0.0
H1325 H 0.10129 0.55241 0.04194 0.0
H1326 H 0.32304 0.60487 0.49787 0.0
H1327 H 0.32029 0.56991 0.51544 0.0
H1328 H 0.26968 0.5525 0.45697 0.0
H1329 H 0.2716 0.58742 0.44001 0.0
H1330 H 0.25559 0.53464 0.49685 0.0
H1331 H 0.33347 0.54088 0.45519 0.0
H1332 H 0.37418 0.55617 0.44583 0.0
H1333 H 0.39774 0.54457 0.52101 0.0
H1334 H 0.35702 0.52946 0.53092 0.0
H1335 H 0.32279 0.42665 0.5145 0.0
H1336 H 0.31968 0.46102 0.49547 0.0
H1337 H 0.26943 0.48001 0.5537 0.0
H1338 H 0.27173 0.4456 0.57214 0.0
H1339 H 0.33372 0.49639 0.51167 0.0
H1340 H 0.23212 0.51846 0.53545 0.0
H1341 H 0.19139 0.50158 0.53903 0.0
H1342 H 0.21518 0.45346 0.48927 0.0
H1343 H 0.25592 0.47018 0.48513 0.0
C1344 C 0.31102 0.59367 0.48903 0.0
C1345 C 0.29763 0.59894 0.46748 0.0
C1346 C 0.30962 0.57362 0.49895 0.0
C1347 C 0.29517 0.55834 0.48725 0.0
C1348 C 0.28101 0.56389 0.46637 0.0
C1349 C 0.28216 0.58394 0.45665 0.0
C1350 C 0.29534 0.53641 0.49608 0.0
C1351 C 0.2727 0.52632 0.50015 0.0
C1352 C 0.3176 0.52523 0.49977 0.0
C1353 C 0.34212 0.53424 0.49386 0.0
C1354 C 0.34728 0.54172 0.46977 0.0
C1355 C 0.37036 0.55034 0.46436 0.0
C1356 C 0.38851 0.55139 0.48283 0.0
C1357 C 0.38364 0.54378 0.50674 0.0
C1358 C 0.36058 0.53518 0.51226 0.0
C1359 C 0.31066 0.43802 0.52291 0.0
C1360 C 0.29741 0.43332 0.54476 0.0
C1361 C 0.30904 0.45774 0.51213 0.0
C1362 C 0.29422 0.4732 0.52302 0.0
C1363 C 0.28061 0.46834 0.54457 0.0
C1364 C 0.28199 0.44859 0.55516 0.0
C1365 C 0.29396 0.49467 0.51268 0.0
C1366 C 0.3166 0.5047 0.50839 0.0
C1367 C 0.2717 0.50556 0.50799 0.0
C1368 C 0.24716 0.49548 0.51019 0.0
C1369 C 0.22863 0.50432 0.5252 0.0
C1370 C 0.20555 0.49477 0.52734 0.0
C1371 C 0.20073 0.47643 0.51445 0.0
C1372 C 0.21896 0.46762 0.49932 0.0
C1373 C 0.24207 0.47711 0.4971 0.0
H1374 H 0.18286 0.46905 0.51614 0.0
H1375 H 0.40637 0.55807 0.47861 0.0
H1376 H 0.61956 0.13077 0.13567 0.0
H1377 H 0.57453 0.13074 0.13036 0.0
H1378 H 0.58359 0.1503 0.0538 0.0
H1379 H 0.6283 0.15158 0.05977 0.0
H1380 H 0.54921 0.17056 0.07014 0.0
H1381 H 0.56473 0.09909 0.07261 0.0
H1382 H 0.58144 0.06589 0.08773 0.0
H1383 H 0.5387 0.07148 0.15492 0.0
H1384 H 0.52201 0.1049 0.14039 0.0
H1385 H 0.41845 0.16255 0.05254 0.0
H1386 H 0.46333 0.15948 0.04977 0.0
H1387 H 0.46537 0.13597 0.12521 0.0
H1388 H 0.42041 0.13599 0.12614 0.0
H1389 H 0.49471 0.11517 0.10228 0.0
H1390 H 0.495 0.19449 0.10178 0.0
H1391 H 0.48182 0.22828 0.08418 0.0
H1392 H 0.49685 0.20604 0.01028 0.0
H1393 H 0.51023 0.1724 0.02756 0.0
C1394 C 0.61176 0.13508 0.1178 0.0
C1395 C 0.62715 0.14166 0.09832 0.0
C1396 C 0.58608 0.13484 0.11462 0.0
C1397 C 0.57545 0.14023 0.09151 0.0
C1398 C 0.59112 0.14616 0.07184 0.0
C1399 C 0.61667 0.14692 0.07525 0.0
C1400 C 0.54807 0.14081 0.08821 0.0
C1401 C 0.53741 0.15841 0.07728 0.0
C1402 C 0.53236 0.12477 0.09667 0.0
C1403 C 0.54226 0.10461 0.10548 0.0
C1404 C 0.55902 0.09332 0.09069 0.0
C1405 C 0.56847 0.07445 0.09914 0.0
C1406 C 0.56117 0.0666 0.12229 0.0
C1407 C 0.54435 0.07759 0.137 0.0
C1408 C 0.53487 0.0965 0.12865 0.0
C1409 C 0.42863 0.157 0.0686 0.0
C1410 C 0.41602 0.15066 0.09018 0.0
C1411 C 0.45445 0.15556 0.0672 0.0
C1412 C 0.46832 0.14828 0.08764 0.0
C1413 C 0.45549 0.14189 0.10916 0.0
C1414 C 0.4297 0.14246 0.11006 0.0
C1415 C 0.49587 0.14588 0.08641 0.0
C1416 C 0.50659 0.12759 0.09585 0.0
C1417 C 0.51175 0.16119 0.07633 0.0
C1418 C 0.5027 0.1809 0.06588 0.0
C1419 C 0.49491 0.19681 0.08179 0.0
C1420 C 0.48764 0.21591 0.0719 0.0
C1421 C 0.48814 0.21917 0.04613 0.0
C1422 C 0.49624 0.20344 0.03021 0.0
C1423 C 0.50374 0.18441 0.04005 0.0
H1424 H 0.48248 0.23395 0.03853 0.0
H1425 H 0.56851 0.05198 0.12881 0.0
H1426 H 0.8843 0.85058 0.56448 0.0
H1427 H 0.92914 0.85219 0.5608 0.0
H1428 H 0.93332 0.88166 0.63287 0.0
H1429 H 0.88809 0.88083 0.63599 0.0
H1430 H 0.95761 0.90326 0.60172 0.0
H1431 H 0.98369 0.82565 0.61939 0.0
H1432 H 0.98732 0.78825 0.61094 0.0
H1433 H 0.96828 0.79864 0.53422 0.0
H1434 H 0.96583 0.8362 0.54204 0.0
H1435 H 0.08725 0.90146 0.62114 0.0
H1436 H 0.0422 0.90026 0.62023 0.0
H1437 H 0.04517 0.86867 0.54925 0.0
H1438 H 0.09043 0.86858 0.55131 0.0
H1439 H 0.01684 0.84904 0.57566 0.0
H1440 H 0.02053 0.92107 0.55984 0.0
H1441 H 0.03348 0.9573 0.56581 0.0
H1442 H 1.00038 0.9577 0.63864 0.0
H1443 H 0.98751 0.92138 0.63325 0.0
C1444 C 0.89487 0.85679 0.5799 0.0
C1445 C 0.88275 0.86529 0.60072 0.0
C1446 C 0.92067 0.85754 0.57787 0.0
C1447 C 0.93502 0.86667 0.59673 0.0
C1448 C 0.92284 0.87445 0.61803 0.0
C1449 C 0.89699 0.87398 0.61986 0.0
C1450 C 0.96195 0.87089 0.59282 0.0
C1451 C 0.97062 0.89123 0.59651 0.0
C1452 C 0.9791 0.8557 0.58477 0.0
C1453 C 0.97332 0.83359 0.58159 0.0
C1454 C 0.97943 0.81985 0.60094 0.0
C1455 C 0.98201 0.7987 0.59609 0.0
C1456 C 0.978 0.79106 0.57207 0.0
C1457 C 0.97126 0.80455 0.55286 0.0
C1458 C 0.96927 0.82577 0.55749 0.0
C1459 C 0.07817 0.89411 0.60549 0.0
C1460 C 0.0921 0.88414 0.58695 0.0
C1461 C 0.05237 0.89388 0.60463 0.0
C1462 C 0.03999 0.88439 0.58464 0.0
C1463 C 0.05414 0.87587 0.56508 0.0
C1464 C 0.07997 0.87579 0.56621 0.0
C1465 C 0.0127 0.88105 0.58562 0.0
C1466 C 0.00392 0.86105 0.58115 0.0
C1467 C 0.99564 0.89654 0.59294 0.0
C1468 C 1.00317 0.91845 0.59618 0.0
C1469 C 0.01613 0.92884 0.57719 0.0
C1470 C 0.02345 0.94941 0.58046 0.0
C1471 C 0.01779 0.95979 0.6026 0.0
C1472 C 0.00475 0.94964 0.62149 0.0
C1473 C 0.9974 0.92908 0.61832 0.0
H1474 H 0.02348 0.9757 0.60511 0.0
H1475 H 0.97997 0.77468 0.56836 0.0
H1476 H 0.41263 0.88762 0.87829 0.0
H1477 H 0.45767 0.88966 0.87627 0.0
H1478 H 0.46287 0.85422 0.94428 0.0
H1479 H 0.41766 0.85267 0.94659 0.0
H1480 H 0.48716 0.88902 0.94857 0.0
H1481 H 0.5104 0.83172 0.88185 0.0
H1482 H 0.51116 0.8158 0.84003 0.0
H1483 H 0.49392 0.87456 0.80686 0.0
H1484 H 0.49419 0.89092 0.84844 0.0
H1485 H 0.61577 0.87098 0.95828 0.0
H1486 H 0.57076 0.87178 0.95596 0.0
H1487 H 0.57535 0.90246 0.88448 0.0
H1488 H 0.6206 0.90036 0.88627 0.0
H1489 H 0.54561 0.87379 0.87992 0.0
H1490 H 0.55162 0.92588 0.94162 0.0
H1491 H 0.5652 0.94249 0.98066 0.0
H1492 H 0.53009 0.89456 0.02334 0.0
H1493 H 0.51657 0.87749 0.98455 0.0
C1494 C 0.42345 0.87961 0.89228 0.0
C1495 C 0.41169 0.86967 0.91238 0.0
C1496 C 0.4493 0.88068 0.89104 0.0
C1497 C 0.46394 0.87181 0.90988 0.0
C1498 C 0.4521 0.86111 0.92941 0.0
C1499 C 0.42627 0.86022 0.93076 0.0
C1500 C 0.49095 0.87635 0.91154 0.0
C1501 C 0.5 0.88532 0.93367 0.0
C1502 C 0.5078 0.8726 0.89185 0.0
C1503 C 0.5012 0.86232 0.86828 0.0
C1504 C 0.50602 0.84107 0.86567 0.0
C1505 C 0.50695 0.83209 0.84198 0.0
C1506 C 0.50257 0.84416 0.82079 0.0
C1507 C 0.49718 0.86521 0.82328 0.0
C1508 C 0.49679 0.87434 0.84691 0.0
C1509 C 0.60707 0.87775 0.94201 0.0
C1510 C 0.62143 0.88472 0.92191 0.0
C1511 C 0.5813 0.87865 0.94093 0.0
C1512 C 0.5694 0.88727 0.92007 0.0
C1513 C 0.58397 0.89554 0.9007 0.0
C1514 C 0.60979 0.89437 0.90167 0.0
C1515 C 0.54204 0.88555 0.91725 0.0
C1516 C 0.53287 0.87735 0.89494 0.0
C1517 C 0.52521 0.89007 0.93675 0.0
C1518 C 0.53321 0.90034 0.96014 0.0
C1519 C 0.54693 0.9188 0.95932 0.0
C1520 C 0.55459 0.92832 0.98141 0.0
C1521 C 0.54854 0.91957 1.00446 0.0
C1522 C 0.53476 0.90132 1.00547 0.0
C1523 C 0.52706 0.89173 0.98344 0.0
H1524 H 0.5545 0.92696 0.02154 0.0
H1525 H 0.50322 0.83718 0.80245 0.0
H1526 H 0.0923 0.13849 0.38812 0.0
H1527 H 0.04737 0.1376 0.38991 0.0
H1528 H 0.05021 0.16085 0.46544 0.0
H1529 H 0.09486 0.16498 0.46171 0.0
H1530 H 0.01903 0.11637 0.4125 0.0
H1531 H 1.00054 0.17381 0.48924 0.0
H1532 H 0.01349 0.20776 0.50584 0.0
H1533 H 0.03257 0.22783 0.43199 0.0
H1534 H 0.01987 0.19372 0.41506 0.0
H1535 H 0.88708 0.14798 0.46522 0.0
H1536 H 0.9321 0.14742 0.46795 0.0
H1537 H 0.93627 0.12956 0.39037 0.0
H1538 H 0.89099 0.12865 0.38838 0.0
H1539 H 0.96395 0.16897 0.44998 0.0
H1540 H 0.98986 0.10691 0.37512 0.0
H1541 H 0.97414 0.07345 0.35976 0.0
H1542 H 0.93632 0.06356 0.42919 0.0
H1543 H 0.95208 0.09682 0.4451 0.0
C1544 C 0.08313 0.14479 0.40437 0.0
C1545 C 0.09693 0.15324 0.42398 0.0
C1546 C 0.05738 0.14368 0.40579 0.0
C1547 C 0.04478 0.14968 0.42762 0.0
C1548 C 0.05884 0.15719 0.4478 0.0
C1549 C 0.08455 0.15926 0.44583 0.0
C1550 C 0.01737 0.14662 0.42956 0.0
C1551 C 0.00698 0.12826 0.42 0.0
C1552 C 1.00134 0.16123 0.4409 0.0
C1553 C 0.00996 0.18122 0.451 0.0
C1554 C 0.00777 0.18542 0.47662 0.0
C1555 C 0.01504 0.20463 0.48607 0.0
C1556 C 0.02415 0.21983 0.46998 0.0
C1557 C 0.02593 0.21587 0.44441 0.0
C1558 C 0.01888 0.1966 0.43491 0.0
C1559 C 0.89771 0.14376 0.44885 0.0
C1560 C 0.88577 0.13872 0.42646 0.0
C1561 C 0.92345 0.14343 0.45038 0.0
C1562 C 0.93787 0.13829 0.42945 0.0
C1563 C 0.92578 0.13303 0.40705 0.0
C1564 C 0.89991 0.13276 0.40576 0.0
C1565 C 0.9654 0.13979 0.43073 0.0
C1566 C 0.97586 0.15747 0.44159 0.0
C1567 C 0.98135 0.12461 0.4205 0.0
C1568 C 0.97198 0.10447 0.4112 0.0
C1569 C 0.97828 0.09756 0.38715 0.0
C1570 C 0.96934 0.07863 0.37834 0.0
C1571 C 0.95418 0.06642 0.39346 0.0
C1572 C 0.94799 0.07307 0.41746 0.0
C1573 C 0.95689 0.09197 0.42637 0.0
H1574 H 0.94727 0.05178 0.3866 0.0
H1575 H 0.02964 0.23475 0.47728 0.0
H1576 H 0.11515 0.63322 0.13234 0.0
H1577 H 0.06998 0.63234 0.12851 0.0
H1578 H 0.07605 0.65162 0.05157 0.0
H1579 H 0.12093 0.65358 0.05598 0.0
H1580 H 0.0417 0.67156 0.06942 0.0
H1581 H 0.05918 0.60039 0.07083 0.0
H1582 H 0.07727 0.56745 0.08516 0.0
H1583 H 0.03664 0.57198 0.15379 0.0
H1584 H 0.01858 0.60514 0.14004 0.0
H1585 H 0.91125 0.66074 0.0544 0.0
H1586 H 0.95618 0.65897 0.0512 0.0
H1587 H 0.95985 0.63476 0.12625 0.0
H1588 H 0.91489 0.6336 0.12763 0.0
H1589 H 0.98975 0.61496 0.10277 0.0
H1590 H 0.98607 0.69325 0.10377 0.0
H1591 H 0.97136 0.72714 0.0878 0.0
H1592 H 0.9881 0.7081 0.01297 0.0
H1593 H 1.00302 0.67437 0.02864 0.0
C1594 C 0.10668 0.63728 0.1147 0.0
C1595 C 0.12127 0.64396 0.09465 0.0
C1596 C 0.08091 0.63656 0.11238 0.0
C1597 C 0.06941 0.64163 0.0896 0.0
C1598 C 0.08427 0.64771 0.06937 0.0
C1599 C 0.10991 0.64888 0.07189 0.0
C1600 C 0.04193 0.64171 0.08723 0.0
C1601 C 0.03045 0.65916 0.07684 0.0
C1602 C 0.02693 0.62534 0.09611 0.0
C1603 C 0.03767 0.60536 0.10447 0.0
C1604 C 0.05423 0.59445 0.08906 0.0
C1605 C 0.06446 0.57572 0.09707 0.0
C1606 C 0.05814 0.56765 0.12039 0.0
C1607 C 0.04153 0.57827 0.13573 0.0
C1608 C 0.03127 0.59702 0.12783 0.0
C1609 C 0.92177 0.65533 0.0703 0.0
C1610 C 0.9096 0.64842 0.09188 0.0
C1611 C 0.94762 0.65461 0.06864 0.0
C1612 C 0.96196 0.64749 0.08883 0.0
C1613 C 0.94958 0.64057 0.11039 0.0
C1614 C 0.92377 0.64045 0.11155 0.0
C1615 C 0.98956 0.64577 0.08717 0.0
C1616 C 1.00107 0.62766 0.09612 0.0
C1617 C 0.00471 0.6615 0.07685 0.0
C1618 C 0.9948 0.68125 0.0673 0.0
C1619 C 0.98605 0.69629 0.08392 0.0
C1620 C 0.97791 0.71545 0.07495 0.0
C1621 C 0.97846 0.71964 0.04938 0.0
C1622 C 0.98747 0.70478 0.03275 0.0
C1623 C 0.99584 0.68569 0.04167 0.0
H1624 H 0.97212 0.73446 0.04248 0.0
H1625 H 0.06608 0.55314 0.12656 0.0
H1626 H 0.59078 0.3846 0.64053 0.0
H1627 H 0.54588 0.38791 0.64235 0.0
H1628 H 0.53969 0.35351 0.5737 0.0
H1629 H 0.58484 0.35057 0.57168 0.0
H1630 H 0.51651 0.38882 0.56988 0.0
H1631 H 0.49229 0.33165 0.63589 0.0
H1632 H 0.49038 0.31542 0.6775 0.0
H1633 H 0.50804 0.37365 0.71166 0.0
H1634 H 0.50872 0.39037 0.67027 0.0
H1635 H 0.38725 0.37514 0.5603 0.0
H1636 H 0.43225 0.37472 0.5624 0.0
H1637 H 0.42903 0.40417 0.63469 0.0
H1638 H 0.38372 0.40318 0.63313 0.0
H1639 H 0.45765 0.37483 0.63854 0.0
H1640 H 0.45377 0.42773 0.57753 0.0
H1641 H 0.44077 0.44513 0.53876 0.0
H1642 H 0.47357 0.39648 0.49535 0.0
H1643 H 0.48649 0.37863 0.53387 0.0
C1644 C 0.57976 0.37705 0.62635 0.0
C1645 C 0.59126 0.36697 0.6062 0.0
C1646 C 0.55398 0.37888 0.62746 0.0
C1647 C 0.53911 0.37068 0.6084 0.0
C1648 C 0.55064 0.35989 0.58875 0.0
C1649 C 0.57643 0.3582 0.58756 0.0
C1650 C 0.51229 0.37599 0.60678 0.0
C1651 C 0.50356 0.38541 0.58478 0.0
C1652 C 0.49534 0.37264 0.62649 0.0
C1653 C 0.50157 0.36204 0.64998 0.0
C1654 C 0.49643 0.34083 0.65225 0.0
C1655 C 0.49489 0.33168 0.67582 0.0
C1656 C 0.49912 0.34349 0.69722 0.0
C1657 C 0.50489 0.36449 0.69507 0.0
C1658 C 0.50582 0.37382 0.67156 0.0
C1659 C 0.39625 0.38138 0.57669 0.0
C1660 C 0.38222 0.38827 0.59708 0.0
C1661 C 0.42203 0.3816 0.57766 0.0
C1662 C 0.43432 0.38949 0.59868 0.0
C1663 C 0.42012 0.39778 0.61834 0.0
C1664 C 0.39426 0.39724 0.6175 0.0
C1665 C 0.46161 0.3869 0.60137 0.0
C1666 C 0.47049 0.37819 0.62353 0.0
C1667 C 0.47858 0.39104 0.58186 0.0
C1668 C 0.47097 0.40178 0.55862 0.0
C1669 C 0.45809 0.42068 0.55973 0.0
C1670 C 0.45075 0.43063 0.53779 0.0
C1671 C 0.45631 0.4219 0.51461 0.0
C1672 C 0.46928 0.40322 0.51332 0.0
C1673 C 0.47665 0.3932 0.5352 0.0
H1674 H 0.45061 0.42963 0.49765 0.0
H1675 H 0.49805 0.33635 0.71546 0.0
H1676 H 0.12519 0.40184 0.88445 0.0
H1677 H 0.07989 0.40322 0.88406 0.0
H1678 H 0.0781 0.37175 0.95518 0.0
H1679 H 0.12317 0.37176 0.95618 0.0
H1680 H 0.05096 0.37411 0.87987 0.0
H1681 H 0.02433 0.37587 0.98509 0.0
H1682 H 0.03846 0.3925 0.02394 0.0
H1683 H 0.07142 0.44169 0.98159 0.0
H1684 H 0.05721 0.42552 0.9425 0.0
H1685 H 0.9247 0.35105 0.94951 0.0
H1686 H 0.96983 0.35347 0.94646 0.0
H1687 H 0.96249 0.38796 0.87793 0.0
H1688 H 0.91768 0.38461 0.88041 0.0
H1689 H 0.99378 0.38764 0.95009 0.0
H1690 H 0.99745 0.39156 0.85053 0.0
H1691 H 0.99719 0.37679 0.80813 0.0
H1692 H 0.0196 0.31789 0.83753 0.0
H1693 H 0.01843 0.33206 0.88022 0.0
C1694 C 0.11498 0.3955 0.90007 0.0
C1695 C 0.12743 0.38586 0.91981 0.0
C1696 C 0.08914 0.39628 0.8999 0.0
C1697 C 0.07533 0.38756 0.91957 0.0
C1698 C 0.08804 0.37895 0.93994 0.0
C1699 C 0.11384 0.37848 0.94025 0.0
C1700 C 0.04797 0.38537 0.91746 0.0
C1701 C 0.03847 0.37732 0.89523 0.0
C1702 C 0.0315 0.38937 0.93742 0.0
C1703 C 0.03984 0.39939 0.96085 0.0
C1704 C 0.03447 0.3903 0.98407 0.0
C1705 C 0.04252 0.39963 1.00613 0.0
C1706 C 0.05587 0.41811 1.00523 0.0
C1707 C 0.06114 0.42734 0.98226 0.0
C1708 C 0.05312 0.41808 0.96014 0.0
C1709 C 0.93287 0.35857 0.93343 0.0
C1710 C 0.91777 0.36731 0.91498 0.0
C1711 C 0.95866 0.35997 0.93163 0.0
C1712 C 0.96992 0.3706 0.91167 0.0
C1713 C 0.9547 0.37893 0.89295 0.0
C1714 C 0.92894 0.37719 0.89452 0.0
C1715 C 0.9969 0.37556 0.9127 0.0
C1716 C 0.00632 0.38431 0.93481 0.0
C1717 C 0.01342 0.37234 0.89254 0.0
C1718 C 0.00663 0.3626 0.86866 0.0
C1719 C 1.001 0.37519 0.84806 0.0
C1720 C 1.00147 0.367 0.82394 0.0
C1721 C 0.00832 0.34639 0.82013 0.0
C1722 C 0.01415 0.33382 0.8405 0.0
C1723 C 0.013 0.34178 0.86471 0.0
H1724 H 0.00909 0.34016 0.80141 0.0
H1725 H 0.06211 0.4253 0.02233 0.0
H1726 H 0.5862 0.66122 0.45736 0.0
H1727 H 0.54093 0.65967 0.4558 0.0
H1728 H 0.54542 0.6164 0.3945 0.0
H1729 H 0.59041 0.61916 0.39512 0.0
H1730 H 0.51265 0.64032 0.38347 0.0
H1731 H 0.52658 0.60302 0.45719 0.0
H1732 H 0.54347 0.59486 0.49873 0.0
H1733 H 0.50531 0.64712 0.52987 0.0
H1734 H 0.48848 0.6558 0.48842 0.0
H1735 H 0.38141 0.62974 0.38402 0.0
H1736 H 0.42604 0.62453 0.38508 0.0
H1737 H 0.43084 0.66414 0.44981 0.0
H1738 H 0.38593 0.6664 0.45085 0.0
H1739 H 0.45901 0.63608 0.45807 0.0
H1740 H 0.45838 0.67788 0.37814 0.0
H1741 H 0.44487 0.68466 0.33465 0.0
H1742 H 0.46 0.62146 0.31538 0.0
H1743 H 0.47374 0.61453 0.35852 0.0
C1744 C 0.57736 0.65144 0.44361 0.0
C1745 C 0.59156 0.64071 0.42599 0.0
C1746 C 0.55151 0.65032 0.44287 0.0
C1747 C 0.53952 0.63767 0.42522 0.0
C1748 C 0.554 0.62638 0.40822 0.0
C1749 C 0.57972 0.62795 0.40854 0.0
C1750 C 0.51198 0.63715 0.42343 0.0
C1751 C 0.50105 0.6395 0.39989 0.0
C1752 C 0.49646 0.63535 0.44459 0.0
C1753 C 0.50642 0.63016 0.46962 0.0
C1754 C 0.52192 0.61286 0.47285 0.0
C1755 C 0.53147 0.60813 0.4964 0.0
C1756 C 0.5255 0.62049 0.51692 0.0
C1757 C 0.50993 0.63757 0.51395 0.0
C1758 C 0.50036 0.64239 0.49044 0.0
C1759 C 0.39214 0.63754 0.39823 0.0
C1760 C 0.38031 0.64953 0.41653 0.0
C1761 C 0.41784 0.63484 0.39863 0.0
C1762 C 0.43243 0.64459 0.41692 0.0
C1763 C 0.4204 0.65656 0.43522 0.0
C1764 C 0.39466 0.65842 0.43545 0.0
C1765 C 0.45987 0.64138 0.41829 0.0
C1766 C 0.47074 0.63765 0.44177 0.0
C1767 C 0.47547 0.64176 0.39703 0.0
C1768 C 0.46627 0.64564 0.37154 0.0
C1769 C 0.45829 0.66545 0.36462 0.0
C1770 C 0.45081 0.66933 0.34008 0.0
C1771 C 0.45124 0.65344 0.3224 0.0
C1772 C 0.45946 0.63371 0.32913 0.0
C1773 C 0.46717 0.62983 0.35357 0.0
H1774 H 0.44541 0.65647 0.30344 0.0
H1775 H 0.53291 0.6168 0.53514 0.0
H1776 H 0.30306 0.17811 0.17203 0.0
H1777 H 0.28046 0.17317 0.21089 0.0
H1778 H 0.27917 0.10729 0.19831 0.0
H1779 H 0.30184 0.11223 0.15878 0.0
H1780 H 0.23465 0.12347 0.22129 0.0
H1781 H 0.32181 0.1234 0.23636 0.0
H1782 H 0.3646 0.13587 0.23222 0.0
H1783 H 0.34355 0.19463 0.26298 0.0
H1784 H 0.30055 0.18244 0.26746 0.0
H1785 H 0.20539 0.11393 0.35243 0.0
H1786 H 0.22895 0.10827 0.31366 0.0
H1787 H 0.2374 0.17424 0.30499 0.0
H1788 H 0.21352 0.1799 0.34314 0.0
H1789 H 0.28088 0.15133 0.29386 0.0
H1790 H 0.19346 0.1527 0.27445 0.0
H1791 H 0.15041 0.1408 0.27874 0.0
H1792 H 0.172 0.07963 0.25618 0.0
H1793 H 0.2153 0.09117 0.25197 0.0
C1794 C 0.29747 0.16258 0.17718 0.0
C1795 C 0.30434 0.14554 0.16241 0.0
C1796 C 0.28464 0.15977 0.19949 0.0
C1797 C 0.27861 0.13983 0.20783 0.0
C1798 C 0.28377 0.12281 0.19229 0.0
C1799 C 0.29658 0.12565 0.16966 0.0
C1800 C 0.26881 0.13713 0.23362 0.0
C1801 C 0.24498 0.12908 0.23724 0.0
C1802 C 0.28212 0.14467 0.25447 0.0
C1803 C 0.30796 0.15204 0.2521 0.0
C1804 C 0.32628 0.13901 0.24213 0.0
C1805 C 0.35058 0.14603 0.23972 0.0
C1806 C 0.35679 0.16608 0.24714 0.0
C1807 C 0.33872 0.17911 0.2572 0.0
C1808 C 0.3144 0.17212 0.25978 0.0
C1809 C 0.2129 0.12714 0.34256 0.0
C1810 C 0.20785 0.14735 0.35084 0.0
C1811 C 0.22612 0.12392 0.32033 0.0
C1812 C 0.23478 0.14086 0.30635 0.0
C1813 C 0.23094 0.16095 0.31546 0.0
C1814 C 0.21736 0.16417 0.33728 0.0
C1815 C 0.24658 0.13805 0.28149 0.0
C1816 C 0.27079 0.1452 0.27803 0.0
C1817 C 0.23362 0.12965 0.2609 0.0
C1818 C 0.20763 0.12272 0.26321 0.0
C1819 C 0.18906 0.13667 0.27061 0.0
C1820 C 0.16461 0.13 0.27299 0.0
C1821 C 0.15848 0.10944 0.26786 0.0
C1822 C 0.17678 0.09553 0.26021 0.0
C1823 C 0.20128 0.10214 0.2578 0.0
H1824 H 0.13954 0.1043 0.26972 0.0
H1825 H 0.37562 0.17149 0.24519 0.0
H1826 H 0.27963 0.84989 0.85482 0.0
H1827 H 0.25639 0.85463 0.81618 0.0
H1828 H 0.28028 0.91822 0.81264 0.0
H1829 H 0.30306 0.9136 0.85196 0.0
H1830 H 0.23293 0.9129 0.79263 0.0
H1831 H 0.31349 0.88238 0.78218 0.0
H1832 H 0.34696 0.8574 0.79068 0.0
H1833 H 0.29928 0.80714 0.77049 0.0
H1834 H 0.26548 0.83176 0.76184 0.0
H1835 H 0.20752 0.91279 0.66025 0.0
H1836 H 0.23104 0.91657 0.69931 0.0
H1837 H 0.21431 0.85328 0.71847 0.0
H1838 H 0.19103 0.84946 0.67991 0.0
H1839 H 0.26196 0.86274 0.72889 0.0
H1840 H 0.18093 0.89234 0.74225 0.0
H1841 H 0.14687 0.9166 0.73327 0.0
H1842 H 0.19477 0.96809 0.74811 0.0
H1843 H 0.22925 0.9441 0.75676 0.0
C1844 C 0.27901 0.86513 0.84638 0.0
C1845 C 0.29289 0.88144 0.85647 0.0
C1846 C 0.26599 0.86777 0.82413 0.0
C1847 C 0.26714 0.88662 0.81112 0.0
C1848 C 0.27923 0.9035 0.82226 0.0
C1849 C 0.29204 0.90092 0.84484 0.0
C1850 C 0.25798 0.88778 0.78493 0.0
C1851 C 0.23958 0.90219 0.77857 0.0
C1852 C 0.26651 0.87373 0.76652 0.0
C1853 C 0.2869 0.85891 0.77151 0.0
C1854 C 0.3101 0.866 0.77967 0.0
C1855 C 0.32913 0.85191 0.78451 0.0
C1856 C 0.32521 0.83072 0.78127 0.0
C1857 C 0.30228 0.82356 0.77302 0.0
C1858 C 0.2832 0.83757 0.76807 0.0
C1859 C 0.20931 0.89961 0.6726 0.0
C1860 C 0.19736 0.88085 0.66703 0.0
C1861 C 0.22255 0.90183 0.695 0.0
C1862 C 0.22421 0.88526 0.71198 0.0
C1863 C 0.21327 0.86629 0.70575 0.0
C1864 C 0.19992 0.86415 0.68367 0.0
C1865 C 0.23647 0.88748 0.73671 0.0
C1866 C 0.25556 0.87369 0.74281 0.0
C1867 C 0.2285 0.90205 0.75478 0.0
C1868 C 0.20774 0.91645 0.74985 0.0
C1869 C 0.18425 0.90884 0.74339 0.0
C1870 C 0.16487 0.92254 0.73839 0.0
C1871 C 0.16867 0.94388 0.74005 0.0
C1872 C 0.19186 0.95156 0.74679 0.0
C1873 C 0.21134 0.93792 0.75174 0.0
H1874 H 0.15364 0.95446 0.73618 0.0
H1875 H 0.33998 0.81986 0.78507 0.0
H1876 H 0.73164 0.88351 0.86573 0.0
H1877 H 0.74939 0.88304 0.82379 0.0
H1878 H 0.70451 0.83018 0.80512 0.0
H1879 H 0.68645 0.83062 0.84689 0.0
H1880 H 0.77597 0.85474 0.79851 0.0
H1881 H 0.68708 0.83405 0.744 0.0
H1882 H 0.64195 0.83843 0.74802 0.0
H1883 H 0.65285 0.89274 0.79278 0.0
H1884 H 0.69801 0.88887 0.78871 0.0
H1885 H 0.80594 0.82249 0.67597 0.0
H1886 H 0.78763 0.82456 0.71752 0.0
H1887 H 0.75395 0.88295 0.69851 0.0
H1888 H 0.77203 0.88098 0.65672 0.0
H1889 H 0.72194 0.85831 0.72388 0.0
H1890 H 0.80512 0.88203 0.73374 0.0
H1891 H 0.85046 0.88008 0.72966 0.0
H1892 H 0.85145 0.82492 0.77435 0.0
H1893 H 0.80605 0.82636 0.77838 0.0
C1894 C 0.72553 0.87174 0.85276 0.0
C1895 C 0.70749 0.85714 0.85978 0.0
C1896 C 0.73579 0.87146 0.82878 0.0
C1897 C 0.72813 0.85672 0.81119 0.0
C1898 C 0.71048 0.8419 0.81824 0.0
C1899 C 0.70024 0.84212 0.84223 0.0
C1900 C 0.73844 0.85695 0.78543 0.0
C1901 C 0.76414 0.85549 0.78221 0.0
C1902 C 0.72308 0.85831 0.7641 0.0
C1903 C 0.69593 0.86103 0.76624 0.0
C1904 C 0.67984 0.84698 0.75459 0.0
C1905 C 0.65425 0.84937 0.7569 0.0
C1906 C 0.64454 0.86581 0.77072 0.0
C1907 C 0.66039 0.87997 0.78216 0.0
C1908 C 0.68599 0.87767 0.77987 0.0
C1909 C 0.79454 0.83576 0.68049 0.0
C1910 C 0.79056 0.85161 0.6629 0.0
C1911 C 0.78416 0.83694 0.70435 0.0
C1912 C 0.76961 0.85401 0.71126 0.0
C1913 C 0.76513 0.86964 0.69362 0.0
C1914 C 0.77557 0.86851 0.66974 0.0
C1915 C 0.75942 0.85566 0.73698 0.0
C1916 C 0.73375 0.8575 0.74019 0.0
C1917 C 0.77483 0.85499 0.75831 0.0
C1918 C 0.80216 0.8542 0.75617 0.0
C1919 C 0.81499 0.8694 0.74255 0.0
C1920 C 0.8407 0.8684 0.74026 0.0
C1921 C 0.85382 0.85236 0.75168 0.0
C1922 C 0.84126 0.83732 0.76548 0.0
C1923 C 0.81554 0.83824 0.76779 0.0
H1924 H 0.87373 0.8516 0.74988 0.0
H1925 H 0.62473 0.86761 0.77251 0.0
H1926 H 0.80203 0.19545 0.35827 0.0
H1927 H 0.78305 0.19657 0.31681 0.0
H1928 H 0.7717 0.13059 0.31939 0.0
H1929 H 0.79027 0.12932 0.36099 0.0
H1930 H 0.79383 0.14595 0.27394 0.0
H1931 H 0.72419 0.15912 0.32816 0.0
H1932 H 0.70197 0.17766 0.36155 0.0
H1933 H 0.70724 0.2343 0.31999 0.0
H1934 H 0.72983 0.21614 0.28649 0.0
H1935 H 0.71717 0.13131 0.16967 0.0
H1936 H 0.73485 0.13174 0.21146 0.0
H1937 H 0.72732 0.1982 0.21385 0.0
H1938 H 0.70853 0.19775 0.17231 0.0
H1939 H 0.71583 0.18384 0.25697 0.0
H1940 H 0.78459 0.17259 0.20296 0.0
H1941 H 0.8086 0.15592 0.16939 0.0
H1942 H 0.8079 0.0985 0.20973 0.0
H1943 H 0.78358 0.11476 0.2434 0.0
C1944 C 0.79545 0.18117 0.35006 0.0
C1945 C 0.79762 0.1623 0.36302 0.0
C1946 C 0.78456 0.18186 0.32639 0.0
C1947 C 0.77591 0.16367 0.31507 0.0
C1948 C 0.77825 0.1448 0.32781 0.0
C1949 C 0.78877 0.14413 0.35164 0.0
C1950 C 0.76461 0.16428 0.28983 0.0
C1951 C 0.77662 0.15401 0.27023 0.0
C1952 C 0.74263 0.17542 0.28489 0.0
C1953 C 0.72893 0.18632 0.30495 0.0
C1954 C 0.72081 0.17556 0.32624 0.0
C1955 C 0.7081 0.186 0.34517 0.0
C1956 C 0.70326 0.20716 0.34293 0.0
C1957 C 0.71104 0.21792 0.32172 0.0
C1958 C 0.72378 0.20756 0.30275 0.0
C1959 C 0.71929 0.14605 0.17904 0.0
C1960 C 0.71161 0.16452 0.16751 0.0
C1961 C 0.72956 0.14629 0.20296 0.0
C1962 C 0.73303 0.16505 0.21572 0.0
C1963 C 0.72498 0.18351 0.20442 0.0
C1964 C 0.71427 0.18324 0.18063 0.0
C1965 C 0.74493 0.16533 0.24085 0.0
C1966 C 0.73309 0.1758 0.2605 0.0
C1967 C 0.76735 0.15467 0.24576 0.0
C1968 C 0.78207 0.14485 0.2256 0.0
C1969 C 0.78941 0.15637 0.20459 0.0
C1970 C 0.8031 0.147 0.18556 0.0
C1971 C 0.80972 0.12615 0.1874 0.0
C1972 C 0.80273 0.11464 0.20832 0.0
C1973 C 0.78902 0.12393 0.2274 0.0
H1974 H 0.82032 0.11892 0.17264 0.0
H1975 H 0.69342 0.2152 0.3576 0.0
H1976 H 0.69879 0.67248 0.34033 0.0
H1977 H 0.72108 0.66744 0.30131 0.0
H1978 H 0.72811 0.60229 0.3173 0.0
H1979 H 0.70595 0.6074 0.35705 0.0
H1980 H 0.77011 0.61852 0.29324 0.0
H1981 H 0.68304 0.61716 0.2792 0.0
H1982 H 0.64014 0.62951 0.28332 0.0
H1983 H 0.65965 0.6866 0.24742 0.0
H1984 H 0.70278 0.67466 0.24323 0.0
H1985 H 0.80179 0.60572 0.16352 0.0
H1986 H 0.7777 0.60066 0.20209 0.0
H1987 H 0.76536 0.66649 0.20671 0.0
H1988 H 0.78963 0.67156 0.16872 0.0
H1989 H 0.7234 0.64333 0.21935 0.0
H1990 H 0.81071 0.64682 0.23921 0.0
H1991 H 0.85412 0.63558 0.23583 0.0
H1992 H 0.83396 0.57465 0.26056 0.0
H1993 H 0.79032 0.58556 0.26395 0.0
C1994 C 0.7055 0.65712 0.33585 0.0
C1995 C 0.70045 0.64031 0.35171 0.0
C1996 C 0.71814 0.65424 0.31343 0.0
C1997 C 0.72571 0.6344 0.30599 0.0
C1998 C 0.72227 0.61773 0.32255 0.0
C1999 C 0.70973 0.62066 0.3453 0.0
C2000 C 0.73566 0.63128 0.28028 0.0
C2001 C 0.75968 0.62348 0.27704 0.0
C2002 C 0.7222 0.63794 0.25904 0.0
C2003 C 0.69618 0.64505 0.26103 0.0
C2004 C 0.67821 0.63239 0.27228 0.0
C2005 C 0.65385 0.63932 0.27464 0.0
C2006 C 0.64718 0.65886 0.26574 0.0
C2007 C 0.66485 0.67147 0.25432 0.0
C2008 C 0.68925 0.66461 0.25189 0.0
C2009 C 0.79327 0.61898 0.17241 0.0
C2010 C 0.79737 0.63901 0.16306 0.0
C2011 C 0.77976 0.61612 0.19456 0.0
C2012 C 0.76989 0.63323 0.20742 0.0
C2013 C 0.77274 0.65306 0.19715 0.0
C2014 C 0.78656 0.65594 0.1754 0.0
C2015 C 0.758 0.63099 0.23237 0.0
C2016 C 0.7336 0.63787 0.23548 0.0
C2017 C 0.77109 0.62347 0.25339 0.0
C2018 C 0.79726 0.61692 0.25153 0.0
C2019 C 0.81552 0.63098 0.24373 0.0
C2020 C 0.84016 0.62468 0.24185 0.0
C2021 C 0.84679 0.60437 0.24784 0.0
C2022 C 0.82879 0.59036 0.25586 0.0
C2023 C 0.8041 0.5966 0.2578 0.0
H2024 H 0.86588 0.59952 0.24637 0.0
H2025 H 0.62831 0.6642 0.26764 0.0
H2026 H 0.72064 0.34561 0.6686 0.0
H2027 H 0.74181 0.35058 0.70838 0.0
H2028 H 0.71908 0.41456 0.7092 0.0
H2029 H 0.69832 0.40968 0.6688 0.0
H2030 H 0.76578 0.40845 0.73138 0.0
H2031 H 0.68351 0.37989 0.73953 0.0
H2032 H 0.64979 0.35528 0.73061 0.0
H2033 H 0.69589 0.3046 0.75311 0.0
H2034 H 0.72985 0.32884 0.76238 0.0
H2035 H 0.7967 0.40615 0.86189 0.0
H2036 H 0.77131 0.4123 0.82447 0.0
H2037 H 0.77553 0.34729 0.80646 0.0
H2038 H 0.79978 0.34111 0.84372 0.0
H2039 H 0.73247 0.36011 0.79497 0.0
H2040 H 0.81584 0.38646 0.78185 0.0
H2041 H 0.85099 0.40959 0.79067 0.0
H2042 H 0.80533 0.46264 0.77643 0.0
H2043 H 0.76977 0.43982 0.76786 0.0
C2044 C 0.72109 0.36096 0.67673 0.0
C2045 C 0.70809 0.37731 0.66553 0.0
C2046 C 0.7329 0.36373 0.69963 0.0
C2047 C 0.73145 0.38279 0.71214 0.0
C2048 C 0.72031 0.39968 0.69998 0.0
C2049 C 0.70869 0.39695 0.67678 0.0
C2050 C 0.73947 0.38424 0.73868 0.0
C2051 C 0.75823 0.39814 0.74541 0.0
C2052 C 0.72972 0.37074 0.75705 0.0
C2053 C 0.70925 0.35618 0.75153 0.0
C2054 C 0.68649 0.36349 0.74247 0.0
C2055 C 0.66734 0.34962 0.73735 0.0
C2056 C 0.67075 0.32842 0.74111 0.0
C2057 C 0.69328 0.32103 0.75017 0.0
C2058 C 0.71245 0.33483 0.75547 0.0
C2059 C 0.79147 0.39314 0.85032 0.0
C2060 C 0.80033 0.37316 0.8557 0.0
C2061 C 0.77728 0.39669 0.82873 0.0
C2062 C 0.7719 0.38033 0.81222 0.0
C2063 C 0.77941 0.36024 0.81867 0.0
C2064 C 0.79336 0.35671 0.84007 0.0
C2065 C 0.75965 0.38365 0.78756 0.0
C2066 C 0.73984 0.3707 0.78113 0.0
C2067 C 0.76871 0.3978 0.76949 0.0
C2068 C 0.79009 0.41146 0.77453 0.0
C2069 C 0.81326 0.40306 0.78077 0.0
C2070 C 0.83325 0.41611 0.7857 0.0
C2071 C 0.83038 0.43756 0.78419 0.0
C2072 C 0.80751 0.44602 0.77766 0.0
C2073 C 0.78743 0.43304 0.77277 0.0
H2074 H 0.8459 0.44763 0.78801 0.0
H2075 H 0.65589 0.31773 0.73708 0.0
H2076 H 0.28787 0.39383 0.66074 0.0
H2077 H 0.2705 0.39243 0.70286 0.0
H2078 H 0.28071 0.32629 0.70425 0.0
H2079 H 0.29863 0.32754 0.66221 0.0
H2080 H 0.23189 0.34231 0.72186 0.0
H2081 H 0.31973 0.35075 0.73409 0.0
H2082 H 0.35991 0.36775 0.72706 0.0
H2083 H 0.33084 0.42476 0.756 0.0
H2084 H 0.29032 0.40818 0.76278 0.0
H2085 H 0.20846 0.32723 0.85057 0.0
H2086 H 0.22644 0.32645 0.80878 0.0
H2087 H 0.23955 0.39223 0.81262 0.0
H2088 H 0.22255 0.39293 0.85484 0.0
H2089 H 0.27702 0.37554 0.79169 0.0
H2090 H 0.18994 0.36949 0.77885 0.0
H2091 H 0.14826 0.35482 0.78448 0.0
H2092 H 0.17327 0.29657 0.7553 0.0
H2093 H 0.21523 0.3108 0.74987 0.0
C2094 C 0.28629 0.37894 0.66989 0.0
C2095 C 0.29467 0.36079 0.65806 0.0
C2096 C 0.27642 0.37819 0.694 0.0
C2097 C 0.27438 0.35927 0.70667 0.0
C2098 C 0.28211 0.34104 0.69475 0.0
C2099 C 0.29242 0.34181 0.67077 0.0
C2100 C 0.26477 0.35868 0.73263 0.0
C2101 C 0.24186 0.34929 0.73725 0.0
C2102 C 0.27748 0.36836 0.75247 0.0
C2103 C 0.30192 0.37828 0.7487 0.0
C2104 C 0.32183 0.36696 0.73875 0.0
C2105 C 0.34468 0.37651 0.73485 0.0
C2106 C 0.34791 0.39734 0.74103 0.0
C2107 C 0.32831 0.40864 0.75119 0.0
C2108 C 0.3054 0.39917 0.75508 0.0
C2109 C 0.21522 0.34153 0.84255 0.0
C2110 C 0.21397 0.36016 0.85608 0.0
C2111 C 0.22539 0.34109 0.81853 0.0
C2112 C 0.23398 0.35936 0.80719 0.0
C2113 C 0.23307 0.37791 0.82084 0.0
C2114 C 0.22328 0.3783 0.84502 0.0
C2115 C 0.24392 0.35917 0.78117 0.0
C2116 C 0.26693 0.36846 0.77644 0.0
C2117 C 0.23105 0.34972 0.76113 0.0
C2118 C 0.2058 0.34115 0.76419 0.0
C2119 C 0.1866 0.35351 0.7738 0.0
C2120 C 0.16292 0.34528 0.77694 0.0
C2121 C 0.15813 0.32476 0.77031 0.0
C2122 C 0.17701 0.31245 0.76047 0.0
C2123 C 0.20075 0.32059 0.75734 0.0
H2124 H 0.13979 0.31842 0.77276 0.0
H2125 H 0.36561 0.40471 0.738 0.0
H2126 H 0.28537 0.64027 0.35479 0.0
H2127 H 0.2672 0.64109 0.31305 0.0
H2128 H 0.27675 0.70727 0.31033 0.0
H2129 H 0.29542 0.70659 0.35201 0.0
H2130 H 0.22784 0.69119 0.29458 0.0
H2131 H 0.31509 0.68227 0.27937 0.0
H2132 H 0.35557 0.66542 0.28517 0.0
H2133 H 0.32569 0.60793 0.25875 0.0
H2134 H 0.28489 0.62438 0.25319 0.0
H2135 H 0.20053 0.70286 0.16561 0.0
H2136 H 0.21908 0.70485 0.20709 0.0
H2137 H 0.23202 0.63894 0.20594 0.0
H2138 H 0.21443 0.637 0.16413 0.0
H2139 H 0.27036 0.65633 0.22411 0.0
H2140 H 0.18375 0.66287 0.24045 0.0
H2141 H 0.14187 0.67752 0.23616 0.0
H2142 H 0.16815 0.73643 0.26192 0.0
H2143 H 0.21029 0.7222 0.26601 0.0
C2144 C 0.28354 0.65503 0.3454 0.0
C2145 C 0.29188 0.67337 0.35676 0.0
C2146 C 0.2732 0.65545 0.32152 0.0
C2147 C 0.27069 0.67423 0.30862 0.0
C2148 C 0.27852 0.69263 0.32002 0.0
C2149 C 0.28927 0.69219 0.34377 0.0
C2150 C 0.26028 0.67448 0.28303 0.0
C2151 C 0.23724 0.68387 0.27902 0.0
C2152 C 0.27228 0.66438 0.26301 0.0
C2153 C 0.29687 0.65452 0.26609 0.0
C2154 C 0.31709 0.666 0.275 0.0
C2155 C 0.3401 0.65652 0.27821 0.0
C2156 C 0.34318 0.6356 0.27239 0.0
C2157 C 0.32326 0.62413 0.26328 0.0
C2158 C 0.30019 0.63353 0.26008 0.0
C2159 C 0.20729 0.68878 0.17421 0.0
C2160 C 0.20596 0.66976 0.1615 0.0
C2161 C 0.2178 0.68991 0.19802 0.0
C2162 C 0.22669 0.67199 0.20993 0.0
C2163 C 0.22538 0.65301 0.19723 0.0
C2164 C 0.21524 0.65192 0.17329 0.0
C2165 C 0.23764 0.67295 0.23544 0.0
C2166 C 0.26085 0.66377 0.23951 0.0
C2167 C 0.22556 0.68294 0.25563 0.0
C2168 C 0.20023 0.69152 0.25328 0.0
C2169 C 0.18064 0.67899 0.24502 0.0
C2170 C 0.15685 0.68721 0.24265 0.0
C2171 C 0.15237 0.70791 0.2487 0.0
C2172 C 0.17166 0.72041 0.2572 0.0
C2173 C 0.1955 0.71227 0.25956 0.0
H2174 H 0.13394 0.71425 0.24685 0.0
H2175 H 0.36102 0.6283 0.27489 0.0
loop_
_geom_bond_atom_site_label_1
_geom_bond_atom_site_label_2
_geom_bond_distance
_geom_bond_site_symmetry_2
_ccdc_geom_bond_type
Mn0 O5 2.095 . S
Mn0 O15 2.162 . S
Mn0 O16 2.297 . S
Mn0 O24 2.385 . S
Mn0 O25 2.209 . S
Mn0 O26 2.094 . S
Mn1 O6 2.121 . S
Mn1 N8 2.257 . S
Mn1 N17 2.282 . S
Mn1 O25 2.215 . S
Mn1 O27 2.117 . S
C2 O24 1.234 . S
C2 O25 1.283 . S
C3 O15 1.281 . S
C3 O16 1.236 . S
C4 O26 1.240 . S
C4 O27 1.264 . S
O5 Mn0 2.095 . S
O5 C14 1.250 . S
O6 Mn1 2.121 . S
O6 C14 1.258 . S
C7 N8 1.326 . S
C7 C11 1.460 . S
C7 H13 0.929 . S
N8 Mn1 2.257 . S
N8 C7 1.326 . S
N8 C12 1.362 . S
C9 C10 1.258 . S
C9 C12 1.431 . S
C9 C29 1.449 . S
C10 C9 1.258 . S
C10 C11 1.477 . S
C10 H30 0.931 . S
C11 C7 1.460 . S
C11 C10 1.477 . S
C11 H31 0.930 . S
C12 N8 1.362 . S
C12 C9 1.431 . S
C12 C22 1.476 . S
H13 C7 0.929 . S
C14 O5 1.250 . S
C14 O6 1.258 . S
O15 Mn0 2.162 . S
O15 C3 1.281 . S
O16 Mn0 2.297 . S
O16 C3 1.236 . S
N17 Mn1 2.282 . S
N17 C18 1.328 . S
N17 C22 1.318 . S
C18 N17 1.328 . S
C18 C19 1.457 . S
C18 H23 0.929 . S
C19 C18 1.457 . S
C19 C20 1.291 . S
C19 H32 0.931 . S
C20 C19 1.291 . S
C20 C21 1.373 . S
C20 H33 0.929 . S
C21 C20 1.373 . S
C21 C22 1.396 . S
C21 C28 1.403 . S
C22 C12 1.476 . S
C22 N17 1.318 . S
C22 C21 1.396 . S
H23 C18 0.929 . S
O24 Mn0 2.385 . S
O24 C2 1.234 . S
O25 Mn0 2.209 . S
O25 Mn1 2.215 . S
O25 C2 1.283 . S
O26 Mn0 2.094 . S
O26 C4 1.240 . S
O27 Mn1 2.117 . S
O27 C4 1.264 . S
C28 C21 1.403 . S
C28 C29 1.399 . S
C28 H34 0.929 . S
C29 C9 1.449 . S
C29 C28 1.399 . S
C29 H35 0.930 . S
H30 C10 0.931 . S
H31 C11 0.930 . S
H32 C19 0.931 . S
H33 C20 0.929 . S
H34 C28 0.929 . S
H35 C29 0.930 . S
Mn36 O41 2.095 . S
Mn36 O51 2.162 . S
Mn36 O52 2.297 . S
Mn36 O60 2.385 . S
Mn36 O61 2.209 . S
Mn36 O62 2.094 . S
Mn37 O42 2.121 . S
Mn37 N44 2.257 . S
Mn37 N53 2.282 . S
Mn37 O61 2.215 . S
Mn37 O63 2.117 . S
C38 O60 1.234 . S
C38 O61 1.283 . S
C39 O51 1.281 . S
C39 O52 1.236 . S
C40 O62 1.240 . S
C40 O63 1.264 . S
O41 Mn36 2.095 . S
O41 C50 1.250 . S
O42 Mn37 2.121 . S
O42 C50 1.258 . S
C43 N44 1.326 . S
C43 C47 1.460 . S
C43 H49 0.929 . S
N44 Mn37 2.257 . S
N44 C43 1.326 . S
N44 C48 1.362 . S
C45 C46 1.258 . S
C45 C48 1.431 . S
C45 C65 1.449 . S
C46 C45 1.258 . S
C46 C47 1.477 . S
C46 H66 0.931 . S
C47 C43 1.460 . S
C47 C46 1.477 . S
C47 H67 0.930 . S
C48 N44 1.362 . S
C48 C45 1.431 . S
C48 C58 1.476 . S
H49 C43 0.929 . S
C50 O41 1.250 . S
C50 O42 1.258 . S
O51 Mn36 2.162 . S
O51 C39 1.281 . S
O52 Mn36 2.297 . S
O52 C39 1.236 . S
N53 Mn37 2.282 . S
N53 C54 1.328 . S
N53 C58 1.318 . S
C54 N53 1.328 . S
C54 C55 1.457 . S
C54 H59 0.929 . S
C55 C54 1.457 . S
C55 C56 1.291 . S
C55 H68 0.931 . S
C56 C55 1.291 . S
C56 C57 1.373 . S
C56 H69 0.929 . S
C57 C56 1.373 . S
C57 C58 1.396 . S
C57 C64 1.403 . S
C58 C48 1.476 . S
C58 N53 1.318 . S
C58 C57 1.396 . S
H59 C54 0.929 . S
O60 Mn36 2.385 . S
O60 C38 1.234 . S
O61 Mn36 2.209 . S
O61 Mn37 2.215 . S
O61 C38 1.283 . S
O62 Mn36 2.094 . S
O62 C40 1.240 . S
O63 Mn37 2.117 . S
O63 C40 1.264 . S
C64 C57 1.403 . S
C64 C65 1.399 . S
C64 H70 0.929 . S
C65 C45 1.449 . S
C65 C64 1.399 . S
C65 H71 0.930 . S
H66 C46 0.931 . S
H67 C47 0.930 . S
H68 C55 0.931 . S
H69 C56 0.929 . S
H70 C64 0.929 . S
H71 C65 0.930 . S
Mn72 O77 2.095 . S
Mn72 O87 2.162 . S
Mn72 O88 2.297 . S
Mn72 O96 2.385 . S
Mn72 O97 2.209 . S
Mn72 O98 2.094 . S
Mn73 O78 2.121 . S
Mn73 N80 2.257 . S
Mn73 N89 2.282 . S
Mn73 O97 2.215 . S
Mn73 O99 2.117 . S
C74 O96 1.234 . S
C74 O97 1.283 . S
C75 O87 1.281 . S
C75 O88 1.236 . S
C76 O98 1.240 . S
C76 O99 1.264 . S
O77 Mn72 2.095 . S
O77 C86 1.250 . S
O78 Mn73 2.121 . S
O78 C86 1.258 . S
C79 N80 1.326 . S
C79 C83 1.460 . S
C79 H85 0.929 . S
N80 Mn73 2.257 . S
N80 C79 1.326 . S
N80 C84 1.362 . S
C81 C82 1.258 . S
C81 C84 1.431 . S
C81 C101 1.449 . S
C82 C81 1.258 . S
C82 C83 1.477 . S
C82 H102 0.931 . S
C83 C79 1.460 . S
C83 C82 1.477 . S
C83 H103 0.930 . S
C84 N80 1.362 . S
C84 C81 1.431 . S
C84 C94 1.476 . S
H85 C79 0.929 . S
C86 O77 1.250 . S
C86 O78 1.258 . S
O87 Mn72 2.162 . S
O87 C75 1.281 . S
O88 Mn72 2.297 . S
O88 C75 1.236 . S
N89 Mn73 2.282 . S
N89 C90 1.328 . S
N89 C94 1.318 . S
C90 N89 1.328 . S
C90 C91 1.457 . S
C90 H95 0.929 . S
C91 C90 1.457 . S
C91 C92 1.291 . S
C91 H104 0.931 . S
C92 C91 1.291 . S
C92 C93 1.373 . S
C92 H105 0.929 . S
C93 C92 1.373 . S
C93 C94 1.396 . S
C93 C100 1.403 . S
C94 C84 1.476 . S
C94 N89 1.318 . S
C94 C93 1.396 . S
H95 C90 0.929 . S
O96 Mn72 2.385 . S
O96 C74 1.234 . S
O97 Mn72 2.209 . S
O97 Mn73 2.215 . S
O97 C74 1.283 . S
O98 Mn72 2.094 . S
O98 C76 1.240 . S
O99 Mn73 2.117 . S
O99 C76 1.264 . S
C100 C93 1.403 . S
C100 C101 1.399 . S
C100 H106 0.929 . S
C101 C81 1.449 . S
C101 C100 1.399 . S
C101 H107 0.930 . S
H102 C82 0.931 . S
H103 C83 0.930 . S
H104 C91 0.931 . S
H105 C92 0.929 . S
H106 C100 0.929 . S
H107 C101 0.930 . S
Mn108 O113 2.095 . S
Mn108 O123 2.162 . S
Mn108 O124 2.297 . S
Mn108 O132 2.385 . S
Mn108 O133 2.209 . S
Mn108 O134 2.094 . S
Mn109 O114 2.121 . S
Mn109 N116 2.257 . S
Mn109 N125 2.282 . S
Mn109 O133 2.215 . S
Mn109 O135 2.117 . S
C110 O132 1.234 . S
C110 O133 1.283 . S
C111 O123 1.281 . S
C111 O124 1.236 . S
C112 O134 1.240 . S
C112 O135 1.264 . S
O113 Mn108 2.095 . S
O113 C122 1.250 . S
O114 Mn109 2.121 . S
O114 C122 1.258 . S
C115 N116 1.326 . S
C115 C119 1.460 . S
C115 H121 0.929 . S
N116 Mn109 2.257 . S
N116 C115 1.326 . S
N116 C120 1.362 . S
C117 C118 1.258 . S
C117 C120 1.431 . S
C117 C137 1.449 . S
C118 C117 1.258 . S
C118 C119 1.477 . S
C118 H138 0.931 . S
C119 C115 1.460 . S
C119 C118 1.477 . S
C119 H139 0.930 . S
C120 N116 1.362 . S
C120 C117 1.431 . S
C120 C130 1.476 . S
H121 C115 0.929 . S
C122 O113 1.250 . S
C122 O114 1.258 . S
O123 Mn108 2.162 . S
O123 C111 1.281 . S
O124 Mn108 2.297 . S
O124 C111 1.236 . S
N125 Mn109 2.282 . S
N125 C126 1.328 . S
N125 C130 1.318 . S
C126 N125 1.328 . S
C126 C127 1.457 . S
C126 H131 0.929 . S
C127 C126 1.457 . S
C127 C128 1.291 . S
C127 H140 0.931 . S
C128 C127 1.291 . S
C128 C129 1.373 . S
C128 H141 0.929 . S
C129 C128 1.373 . S
C129 C130 1.396 . S
C129 C136 1.403 . S
C130 C120 1.476 . S
C130 N125 1.318 . S
C130 C129 1.396 . S
H131 C126 0.929 . S
O132 Mn108 2.385 . S
O132 C110 1.234 . S
O133 Mn108 2.209 . S
O133 Mn109 2.215 . S
O133 C110 1.283 . S
O134 Mn108 2.094 . S
O134 C112 1.240 . S
O135 Mn109 2.117 . S
O135 C112 1.264 . S
C136 C129 1.403 . S
C136 C137 1.399 . S
C136 H142 0.929 . S
C137 C117 1.449 . S
C137 C136 1.399 . S
C137 H143 0.930 . S
H138 C118 0.931 . S
H139 C119 0.930 . S
H140 C127 0.931 . S
H141 C128 0.929 . S
H142 C136 0.929 . S
H143 C137 0.930 . S
Mn144 O149 2.095 . S
Mn144 O159 2.162 . S
Mn144 O160 2.297 . S
Mn144 O168 2.385 . S
Mn144 O169 2.209 . S
Mn144 O170 2.094 . S
Mn145 O150 2.121 . S
Mn145 N152 2.257 . S
Mn145 N161 2.282 . S
Mn145 O169 2.215 . S
Mn145 O171 2.117 . S
C146 O168 1.234 . S
C146 O169 1.283 . S
C147 O159 1.281 . S
C147 O160 1.236 . S
C148 O170 1.240 . S
C148 O171 1.264 . S
O149 Mn144 2.095 . S
O149 C158 1.250 . S
O150 Mn145 2.121 . S
O150 C158 1.258 . S
C151 N152 1.326 . S
C151 C155 1.460 . S
C151 H157 0.929 . S
N152 Mn145 2.257 . S
N152 C151 1.326 . S
N152 C156 1.362 . S
C153 C154 1.258 . S
C153 C156 1.431 . S
C153 C173 1.449 . S
C154 C153 1.258 . S
C154 C155 1.477 . S
C154 H174 0.931 . S
C155 C151 1.460 . S
C155 C154 1.477 . S
C155 H175 0.930 . S
C156 N152 1.362 . S
C156 C153 1.431 . S
C156 C166 1.476 . S
H157 C151 0.929 . S
C158 O149 1.250 . S
C158 O150 1.258 . S
O159 Mn144 2.162 . S
O159 C147 1.281 . S
O160 Mn144 2.297 . S
O160 C147 1.236 . S
N161 Mn145 2.282 . S
N161 C162 1.328 . S
N161 C166 1.318 . S
C162 N161 1.328 . S
C162 C163 1.457 . S
C162 H167 0.929 . S
C163 C162 1.457 . S
C163 C164 1.291 . S
C163 H176 0.931 . S
C164 C163 1.291 . S
C164 C165 1.373 . S
C164 H177 0.929 . S
C165 C164 1.373 . S
C165 C166 1.396 . S
C165 C172 1.403 . S
C166 C156 1.476 . S
C166 N161 1.318 . S
C166 C165 1.396 . S
H167 C162 0.929 . S
O168 Mn144 2.385 . S
O168 C146 1.234 . S
O169 Mn144 2.209 . S
O169 Mn145 2.215 . S
O169 C146 1.283 . S
O170 Mn144 2.094 . S
O170 C148 1.240 . S
O171 Mn145 2.117 . S
O171 C148 1.264 . S
C172 C165 1.403 . S
C172 C173 1.399 . S
C172 H178 0.929 . S
C173 C153 1.449 . S
C173 C172 1.399 . S
C173 H179 0.930 . S
H174 C154 0.931 . S
H175 C155 0.930 . S
H176 C163 0.931 . S
H177 C164 0.929 . S
H178 C172 0.929 . S
H179 C173 0.930 . S
Mn180 O185 2.095 . S
Mn180 O195 2.162 . S
Mn180 O196 2.297 . S
Mn180 O204 2.385 . S
Mn180 O205 2.209 . S
Mn180 O206 2.094 . S
Mn181 O186 2.121 . S
Mn181 N188 2.257 . S
Mn181 N197 2.282 . S
Mn181 O205 2.215 . S
Mn181 O207 2.117 . S
C182 O204 1.234 . S
C182 O205 1.283 . S
C183 O195 1.281 . S
C183 O196 1.236 . S
C184 O206 1.240 . S
C184 O207 1.264 . S
O185 Mn180 2.095 . S
O185 C194 1.250 . S
O186 Mn181 2.121 . S
O186 C194 1.258 . S
C187 N188 1.326 . S
C187 C191 1.460 . S
C187 H193 0.929 . S
N188 Mn181 2.257 . S
N188 C187 1.326 . S
N188 C192 1.362 . S
C189 C190 1.258 . S
C189 C192 1.431 . S
C189 C209 1.449 . S
C190 C189 1.258 . S
C190 C191 1.477 . S
C190 H210 0.931 . S
C191 C187 1.460 . S
C191 C190 1.477 . S
C191 H211 0.930 . S
C192 N188 1.362 . S
C192 C189 1.431 . S
C192 C202 1.476 . S
H193 C187 0.929 . S
C194 O185 1.250 . S
C194 O186 1.258 . S
O195 Mn180 2.162 . S
O195 C183 1.281 . S
O196 Mn180 2.297 . S
O196 C183 1.236 . S
N197 Mn181 2.282 . S
N197 C198 1.328 . S
N197 C202 1.318 . S
C198 N197 1.328 . S
C198 C199 1.457 . S
C198 H203 0.929 . S
C199 C198 1.457 . S
C199 C200 1.291 . S
C199 H212 0.931 . S
C200 C199 1.291 . S
C200 C201 1.373 . S
C200 H213 0.929 . S
C201 C200 1.373 . S
C201 C202 1.396 . S
C201 C208 1.403 . S
C202 C192 1.476 . S
C202 N197 1.318 . S
C202 C201 1.396 . S
H203 C198 0.929 . S
O204 Mn180 2.385 . S
O204 C182 1.234 . S
O205 Mn180 2.209 . S
O205 Mn181 2.215 . S
O205 C182 1.283 . S
O206 Mn180 2.094 . S
O206 C184 1.240 . S
O207 Mn181 2.117 . S
O207 C184 1.264 . S
C208 C201 1.403 . S
C208 C209 1.399 . S
C208 H214 0.929 . S
C209 C189 1.449 . S
C209 C208 1.399 . S
C209 H215 0.930 . S
H210 C190 0.931 . S
H211 C191 0.930 . S
H212 C199 0.931 . S
H213 C200 0.929 . S
H214 C208 0.929 . S
H215 C209 0.930 . S
Mn216 O221 2.095 . S
Mn216 O231 2.162 . S
Mn216 O232 2.297 . S
Mn216 O240 2.385 . S
Mn216 O241 2.209 . S
Mn216 O242 2.094 . S
Mn217 O222 2.121 . S
Mn217 N224 2.257 . S
Mn217 N233 2.282 . S
Mn217 O241 2.215 . S
Mn217 O243 2.117 . S
C218 O240 1.234 . S
C218 O241 1.283 . S
C219 O231 1.281 . S
C219 O232 1.236 . S
C220 O242 1.240 . S
C220 O243 1.264 . S
O221 Mn216 2.095 . S
O221 C230 1.250 . S
O222 Mn217 2.121 . S
O222 C230 1.258 . S
C223 N224 1.326 . S
C223 C227 1.460 . S
C223 H229 0.929 . S
N224 Mn217 2.257 . S
N224 C223 1.326 . S
N224 C228 1.362 . S
C225 C226 1.258 . S
C225 C228 1.431 . S
C225 C245 1.449 . S
C226 C225 1.258 . S
C226 C227 1.477 . S
C226 H246 0.931 . S
C227 C223 1.460 . S
C227 C226 1.477 . S
C227 H247 0.930 . S
C228 N224 1.362 . S
C228 C225 1.431 . S
C228 C238 1.476 . S
H229 C223 0.929 . S
C230 O221 1.250 . S
C230 O222 1.258 . S
O231 Mn216 2.162 . S
O231 C219 1.281 . S
O232 Mn216 2.297 . S
O232 C219 1.236 . S
N233 Mn217 2.282 . S
N233 C234 1.328 . S
N233 C238 1.318 . S
C234 N233 1.328 . S
C234 C235 1.457 . S
C234 H239 0.929 . S
C235 C234 1.457 . S
C235 C236 1.291 . S
C235 H248 0.931 . S
C236 C235 1.291 . S
C236 C237 1.373 . S
C236 H249 0.929 . S
C237 C236 1.373 . S
C237 C238 1.396 . S
C237 C244 1.403 . S
C238 C228 1.476 . S
C238 N233 1.318 . S
C238 C237 1.396 . S
H239 C234 0.929 . S
O240 Mn216 2.385 . S
O240 C218 1.234 . S
O241 Mn216 2.209 . S
O241 Mn217 2.215 . S
O241 C218 1.283 . S
O242 Mn216 2.094 . S
O242 C220 1.240 . S
O243 Mn217 2.117 . S
O243 C220 1.264 . S
C244 C237 1.403 . S
C244 C245 1.399 . S
C244 H250 0.929 . S
C245 C225 1.449 . S
C245 C244 1.399 . S
C245 H251 0.930 . S
H246 C226 0.931 . S
H247 C227 0.930 . S
H248 C235 0.931 . S
H249 C236 0.929 . S
H250 C244 0.929 . S
H251 C245 0.930 . S
Mn252 O257 2.095 . S
Mn252 O267 2.162 . S
Mn252 O268 2.297 . S
Mn252 O276 2.385 . S
Mn252 O277 2.209 . S
Mn252 O278 2.094 . S
Mn253 O258 2.121 . S
Mn253 N260 2.257 . S
Mn253 N269 2.282 . S
Mn253 O277 2.215 . S
Mn253 O279 2.117 . S
C254 O276 1.234 . S
C254 O277 1.283 . S
C255 O267 1.281 . S
C255 O268 1.236 . S
C256 O278 1.240 . S
C256 O279 1.264 . S
O257 Mn252 2.095 . S
O257 C266 1.250 . S
O258 Mn253 2.121 . S
O258 C266 1.258 . S
C259 N260 1.326 . S
C259 C263 1.460 . S
C259 H265 0.929 . S
N260 Mn253 2.257 . S
N260 C259 1.326 . S
N260 C264 1.362 . S
C261 C262 1.258 . S
C261 C264 1.431 . S
C261 C281 1.449 . S
C262 C261 1.258 . S
C262 C263 1.477 . S
C262 H282 0.931 . S
C263 C259 1.460 . S
C263 C262 1.477 . S
C263 H283 0.930 . S
C264 N260 1.362 . S
C264 C261 1.431 . S
C264 C274 1.476 . S
H265 C259 0.929 . S
C266 O257 1.250 . S
C266 O258 1.258 . S
O267 Mn252 2.162 . S
O267 C255 1.281 . S
O268 Mn252 2.297 . S
O268 C255 1.236 . S
N269 Mn253 2.282 . S
N269 C270 1.328 . S
N269 C274 1.318 . S
C270 N269 1.328 . S
C270 C271 1.457 . S
C270 H275 0.929 . S
C271 C270 1.457 . S
C271 C272 1.291 . S
C271 H284 0.931 . S
C272 C271 1.291 . S
C272 C273 1.373 . S
C272 H285 0.929 . S
C273 C272 1.373 . S
C273 C274 1.396 . S
C273 C280 1.403 . S
C274 C264 1.476 . S
C274 N269 1.318 . S
C274 C273 1.396 . S
H275 C270 0.929 . S
O276 Mn252 2.385 . S
O276 C254 1.234 . S
O277 Mn252 2.209 . S
O277 Mn253 2.215 . S
O277 C254 1.283 . S
O278 Mn252 2.094 . S
O278 C256 1.240 . S
O279 Mn253 2.117 . S
O279 C256 1.264 . S
C280 C273 1.403 . S
C280 C281 1.399 . S
C280 H286 0.929 . S
C281 C261 1.449 . S
C281 C280 1.399 . S
C281 H287 0.930 . S
H282 C262 0.931 . S
H283 C263 0.930 . S
H284 C271 0.931 . S
H285 C272 0.929 . S
H286 C280 0.929 . S
H287 C281 0.930 . S
Mn288 O293 2.095 . S
Mn288 O303 2.162 . S
Mn288 O304 2.297 . S
Mn288 O312 2.385 . S
Mn288 O313 2.209 . S
Mn288 O314 2.094 . S
Mn289 O294 2.121 . S
Mn289 N296 2.257 . S
Mn289 N305 2.282 . S
Mn289 O313 2.215 . S
Mn289 O315 2.117 . S
C290 O312 1.234 . S
C290 O313 1.283 . S
C291 O303 1.281 . S
C291 O304 1.236 . S
C292 O314 1.240 . S
C292 O315 1.264 . S
O293 Mn288 2.095 . S
O293 C302 1.250 . S
O294 Mn289 2.121 . S
O294 C302 1.258 . S
C295 N296 1.326 . S
C295 C299 1.460 . S
C295 H301 0.929 . S
N296 Mn289 2.257 . S
N296 C295 1.326 . S
N296 C300 1.362 . S
C297 C298 1.258 . S
C297 C300 1.431 . S
C297 C317 1.449 . S
C298 C297 1.258 . S
C298 C299 1.477 . S
C298 H318 0.931 . S
C299 C295 1.460 . S
C299 C298 1.477 . S
C299 H319 0.930 . S
C300 N296 1.362 . S
C300 C297 1.431 . S
C300 C310 1.476 . S
H301 C295 0.929 . S
C302 O293 1.250 . S
C302 O294 1.258 . S
O303 Mn288 2.162 . S
O303 C291 1.281 . S
O304 Mn288 2.297 . S
O304 C291 1.236 . S
N305 Mn289 2.282 . S
N305 C306 1.328 . S
N305 C310 1.318 . S
C306 N305 1.328 . S
C306 C307 1.457 . S
C306 H311 0.929 . S
C307 C306 1.457 . S
C307 C308 1.291 . S
C307 H320 0.931 . S
C308 C307 1.291 . S
C308 C309 1.373 . S
C308 H321 0.929 . S
C309 C308 1.373 . S
C309 C310 1.396 . S
C309 C316 1.403 . S
C310 C300 1.476 . S
C310 N305 1.318 . S
C310 C309 1.396 . S
H311 C306 0.929 . S
O312 Mn288 2.385 . S
O312 C290 1.234 . S
O313 Mn288 2.209 . S
O313 Mn289 2.215 . S
O313 C290 1.283 . S
O314 Mn288 2.094 . S
O314 C292 1.240 . S
O315 Mn289 2.117 . S
O315 C292 1.264 . S
C316 C309 1.403 . S
C316 C317 1.399 . S
C316 H322 0.929 . S
C317 C297 1.449 . S
C317 C316 1.399 . S
C317 H323 0.930 . S
H318 C298 0.931 . S
H319 C299 0.930 . S
H320 C307 0.931 . S
H321 C308 0.929 . S
H322 C316 0.929 . S
H323 C317 0.930 . S
Mn324 O329 2.095 . S
Mn324 O339 2.162 . S
Mn324 O340 2.297 . S
Mn324 O348 2.385 . S
Mn324 O349 2.209 . S
Mn324 O350 2.094 . S
Mn325 O330 2.121 . S
Mn325 N332 2.257 . S
Mn325 N341 2.282 . S
Mn325 O349 2.215 . S
Mn325 O351 2.117 . S
C326 O348 1.234 . S
C326 O349 1.283 . S
C327 O339 1.281 . S
C327 O340 1.236 . S
C328 O350 1.240 . S
C328 O351 1.264 . S
O329 Mn324 2.095 . S
O329 C338 1.250 . S
O330 Mn325 2.121 . S
O330 C338 1.258 . S
C331 N332 1.326 . S
C331 C335 1.460 . S
C331 H337 0.929 . S
N332 Mn325 2.257 . S
N332 C331 1.326 . S
N332 C336 1.362 . S
C333 C334 1.258 . S
C333 C336 1.431 . S
C333 C353 1.449 . S
C334 C333 1.258 . S
C334 C335 1.477 . S
C334 H354 0.931 . S
C335 C331 1.460 . S
C335 C334 1.477 . S
C335 H355 0.930 . S
C336 N332 1.362 . S
C336 C333 1.431 . S
C336 C346 1.476 . S
H337 C331 0.929 . S
C338 O329 1.250 . S
C338 O330 1.258 . S
O339 Mn324 2.162 . S
O339 C327 1.281 . S
O340 Mn324 2.297 . S
O340 C327 1.236 . S
N341 Mn325 2.282 . S
N341 C342 1.328 . S
N341 C346 1.318 . S
C342 N341 1.328 . S
C342 C343 1.457 . S
C342 H347 0.929 . S
C343 C342 1.457 . S
C343 C344 1.291 . S
C343 H356 0.931 . S
C344 C343 1.291 . S
C344 C345 1.373 . S
C344 H357 0.929 . S
C345 C344 1.373 . S
C345 C346 1.396 . S
C345 C352 1.403 . S
C346 C336 1.476 . S
C346 N341 1.318 . S
C346 C345 1.396 . S
H347 C342 0.929 . S
O348 Mn324 2.385 . S
O348 C326 1.234 . S
O349 Mn324 2.209 . S
O349 Mn325 2.215 . S
O349 C326 1.283 . S
O350 Mn324 2.094 . S
O350 C328 1.240 . S
O351 Mn325 2.117 . S
O351 C328 1.264 . S
C352 C345 1.403 . S
C352 C353 1.399 . S
C352 H358 0.929 . S
C353 C333 1.449 . S
C353 C352 1.399 . S
C353 H359 0.930 . S
H354 C334 0.931 . S
H355 C335 0.930 . S
H356 C343 0.931 . S
H357 C344 0.929 . S
H358 C352 0.929 . S
H359 C353 0.930 . S
Mn360 O365 2.095 . S
Mn360 O375 2.162 . S
Mn360 O376 2.297 . S
Mn360 O384 2.385 . S
Mn360 O385 2.209 . S
Mn360 O386 2.094 . S
Mn361 O366 2.121 . S
Mn361 N368 2.257 . S
Mn361 N377 2.282 . S
Mn361 O385 2.215 . S
Mn361 O387 2.117 . S
C362 O384 1.234 . S
C362 O385 1.283 . S
C363 O375 1.281 . S
C363 O376 1.236 . S
C364 O386 1.240 . S
C364 O387 1.264 . S
O365 Mn360 2.095 . S
O365 C374 1.250 . S
O366 Mn361 2.121 . S
O366 C374 1.258 . S
C367 N368 1.326 . S
C367 C371 1.460 . S
C367 H373 0.929 . S
N368 Mn361 2.257 . S
N368 C367 1.326 . S
N368 C372 1.362 . S
C369 C370 1.258 . S
C369 C372 1.431 . S
C369 C389 1.449 . S
C370 C369 1.258 . S
C370 C371 1.477 . S
C370 H390 0.931 . S
C371 C367 1.460 . S
C371 C370 1.477 . S
C371 H391 0.930 . S
C372 N368 1.362 . S
C372 C369 1.431 . S
C372 C382 1.476 . S
H373 C367 0.929 . S
C374 O365 1.250 . S
C374 O366 1.258 . S
O375 Mn360 2.162 . S
O375 C363 1.281 . S
O376 Mn360 2.297 . S
O376 C363 1.236 . S
N377 Mn361 2.282 . S
N377 C378 1.328 . S
N377 C382 1.318 . S
C378 N377 1.328 . S
C378 C379 1.457 . S
C378 H383 0.929 . S
C379 C378 1.457 . S
C379 C380 1.291 . S
C379 H392 0.931 . S
C380 C379 1.291 . S
C380 C381 1.373 . S
C380 H393 0.929 . S
C381 C380 1.373 . S
C381 C382 1.396 . S
C381 C388 1.403 . S
C382 C372 1.476 . S
C382 N377 1.318 . S
C382 C381 1.396 . S
H383 C378 0.929 . S
O384 Mn360 2.385 . S
O384 C362 1.234 . S
O385 Mn360 2.209 . S
O385 Mn361 2.215 . S
O385 C362 1.283 . S
O386 Mn360 2.094 . S
O386 C364 1.240 . S
O387 Mn361 2.117 . S
O387 C364 1.264 . S
C388 C381 1.403 . S
C388 C389 1.399 . S
C388 H394 0.929 . S
C389 C369 1.449 . S
C389 C388 1.399 . S
C389 H395 0.930 . S
H390 C370 0.931 . S
H391 C371 0.930 . S
H392 C379 0.931 . S
H393 C380 0.929 . S
H394 C388 0.929 . S
H395 C389 0.930 . S
Mn396 O401 2.095 . S
Mn396 O411 2.162 . S
Mn396 O412 2.297 . S
Mn396 O420 2.385 . S
Mn396 O421 2.209 . S
Mn396 O422 2.094 . S
Mn397 O402 2.121 . S
Mn397 N404 2.257 . S
Mn397 N413 2.282 . S
Mn397 O421 2.215 . S
Mn397 O423 2.117 . S
C398 O420 1.234 . S
C398 O421 1.283 . S
C399 O411 1.281 . S
C399 O412 1.236 . S
C400 O422 1.240 . S
C400 O423 1.264 . S
O401 Mn396 2.095 . S
O401 C410 1.250 . S
O402 Mn397 2.121 . S
O402 C410 1.258 . S
C403 N404 1.326 . S
C403 C407 1.460 . S
C403 H409 0.929 . S
N404 Mn397 2.257 . S
N404 C403 1.326 . S
N404 C408 1.362 . S
C405 C406 1.258 . S
C405 C408 1.431 . S
C405 C425 1.449 . S
C406 C405 1.258 . S
C406 C407 1.477 . S
C406 H426 0.931 . S
C407 C403 1.460 . S
C407 C406 1.477 . S
C407 H427 0.930 . S
C408 N404 1.362 . S
C408 C405 1.431 . S
C408 C418 1.476 . S
H409 C403 0.929 . S
C410 O401 1.250 . S
C410 O402 1.258 . S
O411 Mn396 2.162 . S
O411 C399 1.281 . S
O412 Mn396 2.297 . S
O412 C399 1.236 . S
N413 Mn397 2.282 . S
N413 C414 1.328 . S
N413 C418 1.318 . S
C414 N413 1.328 . S
C414 C415 1.457 . S
C414 H419 0.929 . S
C415 C414 1.457 . S
C415 C416 1.291 . S
C415 H428 0.931 . S
C416 C415 1.291 . S
C416 C417 1.373 . S
C416 H429 0.929 . S
C417 C416 1.373 . S
C417 C418 1.396 . S
C417 C424 1.403 . S
C418 C408 1.476 . S
C418 N413 1.318 . S
C418 C417 1.396 . S
H419 C414 0.929 . S
O420 Mn396 2.385 . S
O420 C398 1.234 . S
O421 Mn396 2.209 . S
O421 Mn397 2.215 . S
O421 C398 1.283 . S
O422 Mn396 2.094 . S
O422 C400 1.240 . S
O423 Mn397 2.117 . S
O423 C400 1.264 . S
C424 C417 1.403 . S
C424 C425 1.399 . S
C424 H430 0.929 . S
C425 C405 1.449 . S
C425 C424 1.399 . S
C425 H431 0.930 . S
H426 C406 0.931 . S
H427 C407 0.930 . S
H428 C415 0.931 . S
H429 C416 0.929 . S
H430 C424 0.929 . S
H431 C425 0.930 . S
Mn432 O437 2.095 . S
Mn432 O447 2.162 . S
Mn432 O448 2.297 . S
Mn432 O456 2.385 . S
Mn432 O457 2.209 . S
Mn432 O458 2.094 . S
Mn433 O438 2.121 . S
Mn433 N440 2.257 . S
Mn433 N449 2.282 . S
Mn433 O457 2.215 . S
Mn433 O459 2.117 . S
C434 O456 1.234 . S
C434 O457 1.283 . S
C435 O447 1.281 . S
C435 O448 1.236 . S
C436 O458 1.240 . S
C436 O459 1.264 . S
O437 Mn432 2.095 . S
O437 C446 1.250 . S
O438 Mn433 2.121 . S
O438 C446 1.258 . S
C439 N440 1.326 . S
C439 C443 1.460 . S
C439 H445 0.929 . S
N440 Mn433 2.257 . S
N440 C439 1.326 . S
N440 C444 1.362 . S
C441 C442 1.258 . S
C441 C444 1.431 . S
C441 C461 1.449 . S
C442 C441 1.258 . S
C442 C443 1.477 . S
C442 H462 0.931 . S
C443 C439 1.460 . S
C443 C442 1.477 . S
C443 H463 0.930 . S
C444 N440 1.362 . S
C444 C441 1.431 . S
C444 C454 1.476 . S
H445 C439 0.929 . S
C446 O437 1.250 . S
C446 O438 1.258 . S
O447 Mn432 2.162 . S
O447 C435 1.281 . S
O448 Mn432 2.297 . S
O448 C435 1.236 . S
N449 Mn433 2.282 . S
N449 C450 1.328 . S
N449 C454 1.318 . S
C450 N449 1.328 . S
C450 C451 1.457 . S
C450 H455 0.929 . S
C451 C450 1.457 . S
C451 C452 1.291 . S
C451 H464 0.931 . S
C452 C451 1.291 . S
C452 C453 1.373 . S
C452 H465 0.929 . S
C453 C452 1.373 . S
C453 C454 1.396 . S
C453 C460 1.403 . S
C454 C444 1.476 . S
C454 N449 1.318 . S
C454 C453 1.396 . S
H455 C450 0.929 . S
O456 Mn432 2.385 . S
O456 C434 1.234 . S
O457 Mn432 2.209 . S
O457 Mn433 2.215 . S
O457 C434 1.283 . S
O458 Mn432 2.094 . S
O458 C436 1.240 . S
O459 Mn433 2.117 . S
O459 C436 1.264 . S
C460 C453 1.403 . S
C460 C461 1.399 . S
C460 H466 0.929 . S
C461 C441 1.449 . S
C461 C460 1.399 . S
C461 H467 0.930 . S
H462 C442 0.931 . S
H463 C443 0.930 . S
H464 C451 0.931 . S
H465 C452 0.929 . S
H466 C460 0.929 . S
H467 C461 0.930 . S
Mn468 O473 2.095 . S
Mn468 O483 2.162 . S
Mn468 O484 2.297 . S
Mn468 O492 2.385 . S
Mn468 O493 2.209 . S
Mn468 O494 2.094 . S
Mn469 O474 2.121 . S
Mn469 N476 2.257 . S
Mn469 N485 2.282 . S
Mn469 O493 2.215 . S
Mn469 O495 2.117 . S
C470 O492 1.234 . S
C470 O493 1.283 . S
C471 O483 1.281 . S
C471 O484 1.236 . S
C472 O494 1.240 . S
C472 O495 1.264 . S
O473 Mn468 2.095 . S
O473 C482 1.250 . S
O474 Mn469 2.121 . S
O474 C482 1.258 . S
C475 N476 1.326 . S
C475 C479 1.460 . S
C475 H481 0.929 . S
N476 Mn469 2.257 . S
N476 C475 1.326 . S
N476 C480 1.362 . S
C477 C478 1.258 . S
C477 C480 1.431 . S
C477 C497 1.449 . S
C478 C477 1.258 . S
C478 C479 1.477 . S
C478 H498 0.931 . S
C479 C475 1.460 . S
C479 C478 1.477 . S
C479 H499 0.930 . S
C480 N476 1.362 . S
C480 C477 1.431 . S
C480 C490 1.476 . S
H481 C475 0.929 . S
C482 O473 1.250 . S
C482 O474 1.258 . S
O483 Mn468 2.162 . S
O483 C471 1.281 . S
O484 Mn468 2.297 . S
O484 C471 1.236 . S
N485 Mn469 2.282 . S
N485 C486 1.328 . S
N485 C490 1.318 . S
C486 N485 1.328 . S
C486 C487 1.457 . S
C486 H491 0.929 . S
C487 C486 1.457 . S
C487 C488 1.291 . S
C487 H500 0.931 . S
C488 C487 1.291 . S
C488 C489 1.373 . S
C488 H501 0.929 . S
C489 C488 1.373 . S
C489 C490 1.396 . S
C489 C496 1.403 . S
C490 C480 1.476 . S
C490 N485 1.318 . S
C490 C489 1.396 . S
H491 C486 0.929 . S
O492 Mn468 2.385 . S
O492 C470 1.234 . S
O493 Mn468 2.209 . S
O493 Mn469 2.215 . S
O493 C470 1.283 . S
O494 Mn468 2.094 . S
O494 C472 1.240 . S
O495 Mn469 2.117 . S
O495 C472 1.264 . S
C496 C489 1.403 . S
C496 C497 1.399 . S
C496 H502 0.929 . S
C497 C477 1.449 . S
C497 C496 1.399 . S
C497 H503 0.930 . S
H498 C478 0.931 . S
H499 C479 0.930 . S
H500 C487 0.931 . S
H501 C488 0.929 . S
H502 C496 0.929 . S
H503 C497 0.930 . S
Mn504 O509 2.095 . S
Mn504 O519 2.162 . S
Mn504 O520 2.297 . S
Mn504 O528 2.385 . S
Mn504 O529 2.209 . S
Mn504 O530 2.094 . S
Mn505 O510 2.121 . S
Mn505 N512 2.257 . S
Mn505 N521 2.282 . S
Mn505 O529 2.215 . S
Mn505 O531 2.117 . S
C506 O528 1.234 . S
C506 O529 1.283 . S
C507 O519 1.281 . S
C507 O520 1.236 . S
C508 O530 1.240 . S
C508 O531 1.264 . S
O509 Mn504 2.095 . S
O509 C518 1.250 . S
O510 Mn505 2.121 . S
O510 C518 1.258 . S
C511 N512 1.326 . S
C511 C515 1.460 . S
C511 H517 0.929 . S
N512 Mn505 2.257 . S
N512 C511 1.326 . S
N512 C516 1.362 . S
C513 C514 1.258 . S
C513 C516 1.431 . S
C513 C533 1.449 . S
C514 C513 1.258 . S
C514 C515 1.477 . S
C514 H534 0.931 . S
C515 C511 1.460 . S
C515 C514 1.477 . S
C515 H535 0.930 . S
C516 N512 1.362 . S
C516 C513 1.431 . S
C516 C526 1.476 . S
H517 C511 0.929 . S
C518 O509 1.250 . S
C518 O510 1.258 . S
O519 Mn504 2.162 . S
O519 C507 1.281 . S
O520 Mn504 2.297 . S
O520 C507 1.236 . S
N521 Mn505 2.282 . S
N521 C522 1.328 . S
N521 C526 1.318 . S
C522 N521 1.328 . S
C522 C523 1.457 . S
C522 H527 0.929 . S
C523 C522 1.457 . S
C523 C524 1.291 . S
C523 H536 0.931 . S
C524 C523 1.291 . S
C524 C525 1.373 . S
C524 H537 0.929 . S
C525 C524 1.373 . S
C525 C526 1.396 . S
C525 C532 1.403 . S
C526 C516 1.476 . S
C526 N521 1.318 . S
C526 C525 1.396 . S
H527 C522 0.929 . S
O528 Mn504 2.385 . S
O528 C506 1.234 . S
O529 Mn504 2.209 . S
O529 Mn505 2.215 . S
O529 C506 1.283 . S
O530 Mn504 2.094 . S
O530 C508 1.240 . S
O531 Mn505 2.117 . S
O531 C508 1.264 . S
C532 C525 1.403 . S
C532 C533 1.399 . S
C532 H538 0.929 . S
C533 C513 1.449 . S
C533 C532 1.399 . S
C533 H539 0.930 . S
H534 C514 0.931 . S
H535 C515 0.930 . S
H536 C523 0.931 . S
H537 C524 0.929 . S
H538 C532 0.929 . S
H539 C533 0.930 . S
Mn540 O545 2.095 . S
Mn540 O555 2.162 . S
Mn540 O556 2.297 . S
Mn540 O564 2.385 . S
Mn540 O565 2.209 . S
Mn540 O566 2.094 . S
Mn541 O546 2.121 . S
Mn541 N548 2.257 . S
Mn541 N557 2.282 . S
Mn541 O565 2.215 . S
Mn541 O567 2.117 . S
C542 O564 1.234 . S
C542 O565 1.283 . S
C543 O555 1.281 . S
C543 O556 1.236 . S
C544 O566 1.240 . S
C544 O567 1.264 . S
O545 Mn540 2.095 . S
O545 C554 1.250 . S
O546 Mn541 2.121 . S
O546 C554 1.258 . S
C547 N548 1.326 . S
C547 C551 1.460 . S
C547 H553 0.929 . S
N548 Mn541 2.257 . S
N548 C547 1.326 . S
N548 C552 1.362 . S
C549 C550 1.258 . S
C549 C552 1.431 . S
C549 C569 1.449 . S
C550 C549 1.258 . S
C550 C551 1.477 . S
C550 H570 0.931 . S
C551 C547 1.460 . S
C551 C550 1.477 . S
C551 H571 0.930 . S
C552 N548 1.362 . S
C552 C549 1.431 . S
C552 C562 1.476 . S
H553 C547 0.929 . S
C554 O545 1.250 . S
C554 O546 1.258 . S
O555 Mn540 2.162 . S
O555 C543 1.281 . S
O556 Mn540 2.297 . S
O556 C543 1.236 . S
N557 Mn541 2.282 . S
N557 C558 1.328 . S
N557 C562 1.318 . S
C558 N557 1.328 . S
C558 C559 1.457 . S
C558 H563 0.929 . S
C559 C558 1.457 . S
C559 C560 1.291 . S
C559 H572 0.931 . S
C560 C559 1.291 . S
C560 C561 1.373 . S
C560 H573 0.929 . S
C561 C560 1.373 . S
C561 C562 1.396 . S
C561 C568 1.403 . S
C562 C552 1.476 . S
C562 N557 1.318 . S
C562 C561 1.396 . S
H563 C558 0.929 . S
O564 Mn540 2.385 . S
O564 C542 1.234 . S
O565 Mn540 2.209 . S
O565 Mn541 2.215 . S
O565 C542 1.283 . S
O566 Mn540 2.094 . S
O566 C544 1.240 . S
O567 Mn541 2.117 . S
O567 C544 1.264 . S
C568 C561 1.403 . S
C568 C569 1.399 . S
C568 H574 0.929 . S
C569 C549 1.449 . S
C569 C568 1.399 . S
C569 H575 0.930 . S
H570 C550 0.931 . S
H571 C551 0.930 . S
H572 C559 0.931 . S
H573 C560 0.929 . S
H574 C568 0.929 . S
H575 C569 0.930 . S
H576 C594 0.951 . S
H577 C596 0.951 . S
H578 C598 0.950 . S
H579 C599 0.950 . S
H580 C601 0.954 . S
H581 C604 0.950 . S
H582 C605 0.950 . S
H583 C607 0.950 . S
H584 C608 0.950 . S
H585 C609 0.951 . S
H586 C611 0.951 . S
H587 C613 0.950 1_554 S
H588 C614 0.950 . S
H589 C616 0.950 . S
H590 C619 0.950 . S
H591 C620 0.950 . S
H592 C622 0.950 . S
H593 C623 0.950 . S
C594 H576 0.951 . S
C594 C595 1.366 . S
C594 C596 1.388 . S
C595 C594 1.366 . S
C595 C599 1.385 . S
C596 H577 0.951 . S
C596 C594 1.388 . S
C596 C597 1.366 . S
C597 C596 1.366 . S
C597 C598 1.414 . S
C597 C600 1.499 . S
C598 H578 0.950 . S
C598 C597 1.414 . S
C598 C599 1.374 . S
C599 H579 0.950 . S
C599 C595 1.385 . S
C599 C598 1.374 . S
C600 C597 1.499 . S
C600 C601 1.373 . S
C600 C602 1.389 . S
C601 H580 0.954 . S
C601 C600 1.373 . S
C601 C617 1.377 1_554 S
C602 C600 1.389 . S
C602 C603 1.524 . S
C602 C616 1.377 . S
C603 C602 1.524 . S
C603 C604 1.397 . S
C603 C608 1.363 . S
C604 H581 0.950 . S
C604 C603 1.397 . S
C604 C605 1.334 . S
C605 H582 0.950 . S
C605 C604 1.334 . S
C605 C606 1.287 . S
C606 C605 1.287 . S
C606 C607 1.524 . S
C606 H625 0.913 . S
C607 H583 0.950 . S
C607 C606 1.524 . S
C607 C608 1.415 . S
C608 H584 0.950 . S
C608 C603 1.363 . S
C608 C607 1.415 . S
C609 H585 0.951 . S
C609 C610 1.366 . S
C609 C611 1.388 . S
C610 C609 1.366 . S
C610 C614 1.385 . S
C611 H586 0.951 . S
C611 C609 1.388 . S
C611 C612 1.366 . S
C612 C611 1.366 . S
C612 C613 1.414 . S
C612 C615 1.499 . S
C613 H587 0.950 1_556 S
C613 C612 1.414 . S
C613 C614 1.374 . S
C614 H588 0.950 . S
C614 C610 1.385 . S
C614 C613 1.374 . S
C615 C612 1.499 . S
C615 C616 1.373 1_556 S
C615 C617 1.389 . S
C616 H589 0.950 . S
C616 C602 1.377 . S
C616 C615 1.373 1_554 S
C617 C601 1.377 1_556 S
C617 C615 1.389 . S
C617 C618 1.524 . S
C618 C617 1.524 . S
C618 C619 1.397 . S
C618 C623 1.363 . S
C619 H590 0.950 . S
C619 C618 1.397 . S
C619 C620 1.334 . S
C620 H591 0.950 . S
C620 C619 1.334 . S
C620 C621 1.287 . S
C621 C620 1.287 . S
C621 C622 1.524 . S
C621 H624 0.999 . S
C622 H592 0.950 . S
C622 C621 1.524 . S
C622 C623 1.415 . S
C623 H593 0.950 . S
C623 C618 1.363 . S
C623 C622 1.415 . S
H624 C621 0.999 . S
H625 C606 0.913 . S
H626 C644 0.951 . S
H627 C646 0.951 . S
H628 C648 0.950 . S
H629 C649 0.950 . S
H630 C651 0.950 . S
H631 C654 0.950 . S
H632 C655 0.950 . S
H633 C657 0.950 . S
H634 C658 0.950 . S
H635 C659 0.951 . S
H636 C661 0.951 . S
H637 C663 0.950 . S
H638 C664 0.950 . S
H639 C666 0.950 . S
H640 C669 0.950 . S
H641 C670 0.950 . S
H642 C672 0.950 . S
H643 C673 0.950 . S
C644 H626 0.951 . S
C644 C645 1.366 . S
C644 C646 1.388 . S
C645 C644 1.366 . S
C645 C649 1.385 . S
C646 H627 0.951 . S
C646 C644 1.388 . S
C646 C647 1.366 . S
C647 C646 1.366 . S
C647 C648 1.414 . S
C647 C650 1.499 . S
C648 H628 0.950 . S
C648 C647 1.414 . S
C648 C649 1.374 . S
C649 H629 0.950 . S
C649 C645 1.385 . S
C649 C648 1.374 . S
C650 C647 1.499 . S
C650 C651 1.373 . S
C650 C652 1.389 . S
C651 H630 0.950 . S
C651 C650 1.373 . S
C651 C667 1.377 . S
C652 C650 1.389 . S
C652 C653 1.524 . S
C652 C666 1.377 . S
C653 C652 1.524 . S
C653 C654 1.397 . S
C653 C658 1.363 . S
C654 H631 0.950 . S
C654 C653 1.397 . S
C654 C655 1.334 . S
C655 H632 0.950 . S
C655 C654 1.334 . S
C655 C656 1.287 . S
C656 C655 1.287 . S
C656 C657 1.524 . S
C656 H675 0.913 . S
C657 H633 0.950 . S
C657 C656 1.524 . S
C657 C658 1.415 . S
C658 H634 0.950 . S
C658 C653 1.363 . S
C658 C657 1.415 . S
C659 H635 0.951 . S
C659 C660 1.366 . S
C659 C661 1.388 . S
C660 C659 1.366 . S
C660 C664 1.385 . S
C661 H636 0.951 . S
C661 C659 1.388 . S
C661 C662 1.366 . S
C662 C661 1.366 . S
C662 C663 1.414 . S
C662 C665 1.499 . S
C663 H637 0.950 . S
C663 C662 1.414 . S
C663 C664 1.374 . S
C664 H638 0.950 . S
C664 C660 1.385 . S
C664 C663 1.374 . S
C665 C662 1.499 . S
C665 C666 1.373 . S
C665 C667 1.389 . S
C666 H639 0.950 . S
C666 C652 1.377 . S
C666 C665 1.373 . S
C667 C651 1.377 . S
C667 C665 1.389 . S
C667 C668 1.524 . S
C668 C667 1.524 . S
C668 C669 1.397 . S
C668 C673 1.363 . S
C669 H640 0.950 . S
C669 C668 1.397 . S
C669 C670 1.334 . S
C670 H641 0.950 . S
C670 C669 1.334 . S
C670 C671 1.287 . S
C671 C670 1.287 . S
C671 C672 1.524 . S
C671 H674 0.999 . S
C672 H642 0.950 . S
C672 C671 1.524 . S
C672 C673 1.415 . S
C673 H643 0.950 . S
C673 C668 1.363 . S
C673 C672 1.415 . S
H674 C671 0.999 . S
H675 C656 0.913 . S
H676 C694 0.951 . S
H677 C696 0.951 . S
H678 C698 0.950 . S
H679 C699 0.950 . S
H680 C701 0.950 . S
H681 C704 0.950 . S
H682 C705 0.950 . S
H683 C707 0.950 . S
H684 C708 0.950 . S
H685 C709 0.951 . S
H686 C711 0.951 1_556 S
H687 C713 0.950 . S
H688 C714 0.950 . S
H689 C716 0.950 . S
H690 C719 0.950 . S
H691 C720 0.950 . S
H692 C722 0.950 . S
H693 C723 0.950 . S
C694 H676 0.951 . S
C694 C695 1.366 . S
C694 C696 1.388 . S
C695 C694 1.366 . S
C695 C699 1.385 . S
C696 H677 0.951 . S
C696 C694 1.388 . S
C696 C697 1.366 . S
C697 C696 1.366 . S
C697 C698 1.414 . S
C697 C700 1.499 . S
C698 H678 0.950 . S
C698 C697 1.414 . S
C698 C699 1.374 . S
C699 H679 0.950 . S
C699 C695 1.385 . S
C699 C698 1.374 . S
C700 C697 1.499 . S
C700 C701 1.373 . S
C700 C702 1.389 . S
C701 H680 0.950 . S
C701 C700 1.373 . S
C701 C717 1.377 . S
C702 C700 1.389 . S
C702 C703 1.524 . S
C702 C716 1.377 1_556 S
C703 C702 1.524 . S
C703 C704 1.397 . S
C703 C708 1.363 1_556 S
C704 H681 0.950 . S
C704 C703 1.397 . S
C704 C705 1.334 . S
C705 H682 0.950 . S
C705 C704 1.334 . S
C705 C706 1.287 . S
C706 C705 1.287 . S
C706 C707 1.524 1_556 S
C706 H725 0.913 . S
C707 H683 0.950 . S
C707 C706 1.524 1_554 S
C707 C708 1.415 . S
C708 H684 0.950 . S
C708 C703 1.363 1_554 S
C708 C707 1.415 . S
C709 H685 0.951 . S
C709 C710 1.366 . S
C709 C711 1.388 . S
C710 C709 1.366 . S
C710 C714 1.385 . S
C711 H686 0.951 1_554 S
C711 C709 1.388 . S
C711 C712 1.366 . S
C712 C711 1.366 . S
C712 C713 1.414 . S
C712 C715 1.499 . S
C713 H687 0.950 . S
C713 C712 1.414 . S
C713 C714 1.374 . S
C714 H688 0.950 . S
C714 C710 1.385 . S
C714 C713 1.374 . S
C715 C712 1.499 . S
C715 C716 1.373 . S
C715 C717 1.389 1_554 S
C716 H689 0.950 . S
C716 C702 1.377 1_554 S
C716 C715 1.373 . S
C717 C701 1.377 . S
C717 C715 1.389 1_556 S
C717 C718 1.524 . S
C718 C717 1.524 . S
C718 C719 1.397 1_556 S
C718 C723 1.363 . S
C719 H690 0.950 . S
C719 C718 1.397 1_554 S
C719 C720 1.334 . S
C720 H691 0.950 . S
C720 C719 1.334 . S
C720 C721 1.287 1_554 S
C721 C720 1.287 1_556 S
C721 C722 1.524 . S
C721 H724 0.999 . S
C722 H692 0.950 . S
C722 C721 1.524 . S
C722 C723 1.415 . S
C723 H693 0.950 . S
C723 C718 1.363 . S
C723 C722 1.415 . S
H724 C721 0.999 . S
H725 C706 0.913 . S
H726 C744 0.951 . S
H727 C746 0.951 . S
H728 C748 0.950 . S
H729 C749 0.950 . S
H730 C751 0.950 . S
H731 C754 0.950 . S
H732 C755 0.950 . S
H733 C757 0.950 . S
H734 C758 0.950 . S
H735 C759 0.951 . S
H736 C761 0.951 . S
H737 C763 0.950 . S
H738 C764 0.950 . S
H739 C766 0.950 . S
H740 C769 0.950 . S
H741 C770 0.950 . S
H742 C772 0.950 . S
H743 C773 0.950 . S
C744 H726 0.951 . S
C744 C745 1.366 . S
C744 C746 1.388 . S
C745 C744 1.366 . S
C745 C749 1.385 . S
C746 H727 0.951 . S
C746 C744 1.388 . S
C746 C747 1.366 . S
C747 C746 1.366 . S
C747 C748 1.414 . S
C747 C750 1.499 . S
C748 H728 0.950 . S
C748 C747 1.414 . S
C748 C749 1.374 . S
C749 H729 0.950 . S
C749 C745 1.385 . S
C749 C748 1.374 . S
C750 C747 1.499 . S
C750 C751 1.373 . S
C750 C752 1.389 . S
C751 H730 0.950 . S
C751 C750 1.373 . S
C751 C767 1.377 . S
C752 C750 1.389 . S
C752 C753 1.524 . S
C752 C766 1.377 . S
C753 C752 1.524 . S
C753 C754 1.397 . S
C753 C758 1.363 . S
C754 H731 0.950 . S
C754 C753 1.397 . S
C754 C755 1.334 . S
C755 H732 0.950 . S
C755 C754 1.334 . S
C755 C756 1.287 . S
C756 C755 1.287 . S
C756 C757 1.524 . S
C756 H775 0.913 . S
C757 H733 0.950 . S
C757 C756 1.524 . S
C757 C758 1.415 . S
C758 H734 0.950 . S
C758 C753 1.363 . S
C758 C757 1.415 . S
C759 H735 0.951 . S
C759 C760 1.366 . S
C759 C761 1.388 . S
C760 C759 1.366 . S
C760 C764 1.385 . S
C761 H736 0.951 . S
C761 C759 1.388 . S
C761 C762 1.366 . S
C762 C761 1.366 . S
C762 C763 1.414 . S
C762 C765 1.499 . S
C763 H737 0.950 . S
C763 C762 1.414 . S
C763 C764 1.374 . S
C764 H738 0.950 . S
C764 C760 1.385 . S
C764 C763 1.374 . S
C765 C762 1.499 . S
C765 C766 1.373 . S
C765 C767 1.389 . S
C766 H739 0.950 . S
C766 C752 1.377 . S
C766 C765 1.373 . S
C767 C751 1.377 . S
C767 C765 1.389 . S
C767 C768 1.524 . S
C768 C767 1.524 . S
C768 C769 1.397 . S
C768 C773 1.363 . S
C769 H740 0.950 . S
C769 C768 1.397 . S
C769 C770 1.334 . S
C770 H741 0.950 . S
C770 C769 1.334 . S
C770 C771 1.287 . S
C771 C770 1.287 . S
C771 C772 1.524 . S
C771 H774 0.999 . S
C772 H742 0.950 . S
C772 C771 1.524 . S
C772 C773 1.415 . S
C773 H743 0.950 . S
C773 C768 1.363 . S
C773 C772 1.415 . S
H774 C771 0.999 . S
H775 C756 0.913 . S
H776 C794 0.951 . S
H777 C796 0.951 . S
H778 C798 0.950 . S
H779 C799 0.950 . S
H780 C801 0.950 1_556 S
H781 C804 0.950 . S
H782 C805 0.950 . S
H783 C807 0.950 . S
H784 C808 0.950 . S
H785 C809 0.951 . S
H786 C811 0.951 . S
H787 C813 0.950 1_554 S
H788 C814 0.950 . S
H789 C816 0.950 . S
H790 C819 0.950 . S
H791 C820 0.950 . S
H792 C822 0.950 . S
H793 C823 0.950 . S
C794 H776 0.951 . S
C794 C795 1.366 . S
C794 C796 1.388 . S
C795 C794 1.366 . S
C795 C799 1.385 . S
C796 H777 0.951 . S
C796 C794 1.388 . S
C796 C797 1.366 . S
C797 C796 1.366 . S
C797 C798 1.414 . S
C797 C800 1.499 . S
C798 H778 0.950 . S
C798 C797 1.414 . S
C798 C799 1.374 . S
C799 H779 0.950 . S
C799 C795 1.385 . S
C799 C798 1.374 . S
C800 C797 1.499 . S
C800 C801 1.373 . S
C800 C802 1.389 . S
C801 H780 0.950 1_554 S
C801 C800 1.373 . S
C801 C817 1.377 1_554 S
C802 C800 1.389 . S
C802 C803 1.524 . S
C802 C816 1.377 . S
C803 C802 1.524 . S
C803 C804 1.397 . S
C803 C808 1.363 . S
C804 H781 0.950 . S
C804 C803 1.397 . S
C804 C805 1.334 . S
C805 H782 0.950 . S
C805 C804 1.334 . S
C805 C806 1.287 . S
C806 C805 1.287 . S
C806 C807 1.524 . S
C806 H825 0.913 . S
C807 H783 0.950 . S
C807 C806 1.524 . S
C807 C808 1.415 . S
C808 H784 0.950 . S
C808 C803 1.363 . S
C808 C807 1.415 . S
C809 H785 0.951 . S
C809 C810 1.366 . S
C809 C811 1.388 . S
C810 C809 1.366 . S
C810 C814 1.385 . S
C811 H786 0.951 . S
C811 C809 1.388 . S
C811 C812 1.366 . S
C812 C811 1.366 . S
C812 C813 1.414 . S
C812 C815 1.499 . S
C813 H787 0.950 1_556 S
C813 C812 1.414 . S
C813 C814 1.374 . S
C814 H788 0.950 . S
C814 C810 1.385 . S
C814 C813 1.374 . S
C815 C812 1.499 . S
C815 C816 1.373 1_556 S
C815 C817 1.389 . S
C816 H789 0.950 . S
C816 C802 1.377 . S
C816 C815 1.373 1_554 S
C817 C801 1.377 1_556 S
C817 C815 1.389 . S
C817 C818 1.524 . S
C818 C817 1.524 . S
C818 C819 1.397 . S
C818 C823 1.363 . S
C819 H790 0.950 . S
C819 C818 1.397 . S
C819 C820 1.334 . S
C820 H791 0.950 . S
C820 C819 1.334 . S
C820 C821 1.287 . S
C821 C820 1.287 . S
C821 C822 1.524 . S
C821 H824 0.999 . S
C822 H792 0.950 . S
C822 C821 1.524 . S
C822 C823 1.415 . S
C823 H793 0.950 . S
C823 C818 1.363 . S
C823 C822 1.415 . S
H824 C821 0.999 . S
H825 C806 0.913 . S
H826 C844 0.951 . S
H827 C846 0.951 . S
H828 C848 0.950 . S
H829 C849 0.950 . S
H830 C851 0.950 . S
H831 C854 0.950 . S
H832 C855 0.950 . S
H833 C857 0.950 . S
H834 C858 0.950 . S
H835 C859 0.951 . S
H836 C861 0.951 . S
H837 C863 0.950 . S
H838 C864 0.950 . S
H839 C866 0.950 . S
H840 C869 0.950 . S
H841 C870 0.950 . S
H842 C872 0.950 . S
H843 C873 0.950 . S
C844 H826 0.951 . S
C844 C845 1.366 . S
C844 C846 1.388 . S
C845 C844 1.366 . S
C845 C849 1.385 . S
C846 H827 0.951 . S
C846 C844 1.388 . S
C846 C847 1.366 . S
C847 C846 1.366 . S
C847 C848 1.414 . S
C847 C850 1.499 . S
C848 H828 0.950 . S
C848 C847 1.414 . S
C848 C849 1.374 . S
C849 H829 0.950 . S
C849 C845 1.385 . S
C849 C848 1.374 . S
C850 C847 1.499 . S
C850 C851 1.373 . S
C850 C852 1.389 . S
C851 H830 0.950 . S
C851 C850 1.373 . S
C851 C867 1.377 . S
C852 C850 1.389 . S
C852 C853 1.524 . S
C852 C866 1.377 . S
C853 C852 1.524 . S
C853 C854 1.397 . S
C853 C858 1.363 . S
C854 H831 0.950 . S
C854 C853 1.397 . S
C854 C855 1.334 . S
C855 H832 0.950 . S
C855 C854 1.334 . S
C855 C856 1.287 . S
C856 C855 1.287 . S
C856 C857 1.524 . S
C856 H875 0.913 . S
C857 H833 0.950 . S
C857 C856 1.524 . S
C857 C858 1.415 . S
C858 H834 0.950 . S
C858 C853 1.363 . S
C858 C857 1.415 . S
C859 H835 0.951 . S
C859 C860 1.366 . S
C859 C861 1.388 . S
C860 C859 1.366 . S
C860 C864 1.385 . S
C861 H836 0.951 . S
C861 C859 1.388 . S
C861 C862 1.366 . S
C862 C861 1.366 . S
C862 C863 1.414 . S
C862 C865 1.499 . S
C863 H837 0.950 . S
C863 C862 1.414 . S
C863 C864 1.374 . S
C864 H838 0.950 . S
C864 C860 1.385 . S
C864 C863 1.374 . S
C865 C862 1.499 . S
C865 C866 1.373 . S
C865 C867 1.389 . S
C866 H839 0.950 . S
C866 C852 1.377 . S
C866 C865 1.373 . S
C867 C851 1.377 . S
C867 C865 1.389 . S
C867 C868 1.524 . S
C868 C867 1.524 . S
C868 C869 1.397 . S
C868 C873 1.363 . S
C869 H840 0.950 . S
C869 C868 1.397 . S
C869 C870 1.334 . S
C870 H841 0.950 . S
C870 C869 1.334 . S
C870 C871 1.287 . S
C871 C870 1.287 . S
C871 C872 1.524 . S
C871 H874 0.999 . S
C872 H842 0.950 . S
C872 C871 1.524 . S
C872 C873 1.415 . S
C873 H843 0.950 . S
C873 C868 1.363 . S
C873 C872 1.415 . S
H874 C871 0.999 . S
H875 C856 0.913 . S
H876 C894 0.951 . S
H877 C896 0.951 . S
H878 C898 0.950 . S
H879 C899 0.950 . S
H880 C901 0.950 . S
H881 C904 0.950 . S
H882 C905 0.950 . S
H883 C907 0.950 . S
H884 C908 0.950 . S
H885 C909 0.951 . S
H886 C911 0.951 . S
H887 C913 0.950 . S
H888 C914 0.950 . S
H889 C916 0.950 . S
H890 C919 0.950 . S
H891 C920 0.950 . S
H892 C922 0.950 . S
H893 C923 0.950 . S
C894 H876 0.951 . S
C894 C895 1.366 . S
C894 C896 1.388 . S
C895 C894 1.366 . S
C895 C899 1.385 . S
C896 H877 0.951 . S
C896 C894 1.388 . S
C896 C897 1.366 . S
C897 C896 1.366 . S
C897 C898 1.414 . S
C897 C900 1.499 . S
C898 H878 0.950 . S
C898 C897 1.414 . S
C898 C899 1.374 . S
C899 H879 0.950 . S
C899 C895 1.385 . S
C899 C898 1.374 . S
C900 C897 1.499 . S
C900 C901 1.373 . S
C900 C902 1.389 1_556 S
C901 H880 0.950 . S
C901 C900 1.373 . S
C901 C917 1.377 . S
C902 C900 1.389 1_554 S
C902 C903 1.524 . S
C902 C916 1.377 . S
C903 C902 1.524 . S
C903 C904 1.397 . S
C903 C908 1.363 . S
C904 H881 0.950 . S
C904 C903 1.397 . S
C904 C905 1.334 . S
C905 H882 0.950 . S
C905 C904 1.334 . S
C905 C906 1.287 . S
C906 C905 1.287 . S
C906 C907 1.524 . S
C906 H925 0.913 . S
C907 H883 0.950 . S
C907 C906 1.524 . S
C907 C908 1.415 . S
C908 H884 0.950 . S
C908 C903 1.363 . S
C908 C907 1.415 . S
C909 H885 0.951 . S
C909 C910 1.366 . S
C909 C911 1.388 . S
C910 C909 1.366 . S
C910 C914 1.385 . S
C911 H886 0.951 . S
C911 C909 1.388 . S
C911 C912 1.366 . S
C912 C911 1.366 . S
C912 C913 1.414 . S
C912 C915 1.499 . S
C913 H887 0.950 . S
C913 C912 1.414 . S
C913 C914 1.374 . S
C914 H888 0.950 . S
C914 C910 1.385 . S
C914 C913 1.374 . S
C915 C912 1.499 . S
C915 C916 1.373 . S
C915 C917 1.389 1_554 S
C916 H889 0.950 . S
C916 C902 1.377 . S
C916 C915 1.373 . S
C917 C901 1.377 . S
C917 C915 1.389 1_556 S
C917 C918 1.524 . S
C918 C917 1.524 . S
C918 C919 1.397 . S
C918 C923 1.363 . S
C919 H890 0.950 . S
C919 C918 1.397 . S
C919 C920 1.334 . S
C920 H891 0.950 . S
C920 C919 1.334 . S
C920 C921 1.287 . S
C921 C920 1.287 . S
C921 C922 1.524 . S
C921 H924 0.999 . S
C922 H892 0.950 . S
C922 C921 1.524 . S
C922 C923 1.415 . S
C923 H893 0.950 . S
C923 C918 1.363 . S
C923 C922 1.415 . S
H924 C921 0.999 . S
H925 C906 0.913 . S
H926 C944 0.951 . S
H927 C946 0.951 . S
H928 C948 0.950 . S
H929 C949 0.950 . S
H930 C951 0.950 . S
H931 C954 0.950 . S
H932 C955 0.950 . S
H933 C957 0.950 . S
H934 C958 0.950 . S
H935 C959 0.951 . S
H936 C961 0.951 . S
H937 C963 0.950 . S
H938 C964 0.950 . S
H939 C966 0.950 . S
H940 C969 0.950 . S
H941 C970 0.950 . S
H942 C972 0.950 . S
H943 C973 0.950 . S
C944 H926 0.951 . S
C944 C945 1.366 . S
C944 C946 1.388 . S
C945 C944 1.366 . S
C945 C949 1.385 . S
C946 H927 0.951 . S
C946 C944 1.388 . S
C946 C947 1.366 . S
C947 C946 1.366 . S
C947 C948 1.414 . S
C947 C950 1.499 . S
C948 H928 0.950 . S
C948 C947 1.414 . S
C948 C949 1.374 . S
C949 H929 0.950 . S
C949 C945 1.385 . S
C949 C948 1.374 . S
C950 C947 1.499 . S
C950 C951 1.373 . S
C950 C952 1.389 . S
C951 H930 0.950 . S
C951 C950 1.373 . S
C951 C967 1.377 . S
C952 C950 1.389 . S
C952 C953 1.524 . S
C952 C966 1.377 . S
C953 C952 1.524 . S
C953 C954 1.397 . S
C953 C958 1.363 . S
C954 H931 0.950 . S
C954 C953 1.397 . S
C954 C955 1.334 . S
C955 H932 0.950 . S
C955 C954 1.334 . S
C955 C956 1.287 . S
C956 C955 1.287 . S
C956 C957 1.524 . S
C956 H975 0.913 . S
C957 H933 0.950 . S
C957 C956 1.524 . S
C957 C958 1.415 . S
C958 H934 0.950 . S
C958 C953 1.363 . S
C958 C957 1.415 . S
C959 H935 0.951 . S
C959 C960 1.366 . S
C959 C961 1.388 . S
C960 C959 1.366 . S
C960 C964 1.385 . S
C961 H936 0.951 . S
C961 C959 1.388 . S
C961 C962 1.366 . S
C962 C961 1.366 . S
C962 C963 1.414 . S
C962 C965 1.499 . S
C963 H937 0.950 . S
C963 C962 1.414 . S
C963 C964 1.374 . S
C964 H938 0.950 . S
C964 C960 1.385 . S
C964 C963 1.374 . S
C965 C962 1.499 . S
C965 C966 1.373 . S
C965 C967 1.389 . S
C966 H939 0.950 . S
C966 C952 1.377 . S
C966 C965 1.373 . S
C967 C951 1.377 . S
C967 C965 1.389 . S
C967 C968 1.524 . S
C968 C967 1.524 . S
C968 C969 1.397 . S
C968 C973 1.363 . S
C969 H940 0.950 . S
C969 C968 1.397 . S
C969 C970 1.334 . S
C970 H941 0.950 . S
C970 C969 1.334 . S
C970 C971 1.287 . S
C971 C970 1.287 . S
C971 C972 1.524 . S
C971 H974 0.999 . S
C972 H942 0.950 . S
C972 C971 1.524 . S
C972 C973 1.415 . S
C973 H943 0.950 . S
C973 C968 1.363 . S
C973 C972 1.415 . S
H974 C971 0.999 . S
H975 C956 0.913 . S
H976 C994 0.951 . S
H977 C996 0.951 . S
H978 C998 0.950 . S
H979 C999 0.950 . S
H980 C1001 0.950 . S
H981 C1004 0.950 . S
H982 C1005 0.950 . S
H983 C1007 0.950 . S
H984 C1008 0.950 . S
H985 C1009 0.951 . S
H986 C1011 0.951 . S
H987 C1013 0.950 . S
H988 C1014 0.950 . S
H989 C1016 0.950 . S
H990 C1019 0.950 . S
H991 C1020 0.950 . S
H992 C1022 0.950 . S
H993 C1023 0.950 . S
C994 H976 0.951 . S
C994 C995 1.366 . S
C994 C996 1.388 . S
C995 C994 1.366 . S
C995 C999 1.385 . S
C996 H977 0.951 . S
C996 C994 1.388 . S
C996 C997 1.366 . S
C997 C996 1.366 . S
C997 C998 1.414 . S
C997 C1000 1.499 . S
C998 H978 0.950 . S
C998 C997 1.414 . S
C998 C999 1.374 . S
C999 H979 0.950 . S
C999 C995 1.385 . S
C999 C998 1.374 . S
C1000 C997 1.499 . S
C1000 C1001 1.356 1_545 S
C1000 C1002 1.389 1_554 S
C1001 H980 0.950 . S
C1001 C1000 1.356 1_565 S
C1001 C1017 1.393 . S
C1002 C1000 1.389 1_556 S
C1002 C1003 1.524 . S
C1002 C1016 1.393 . S
C1003 C1002 1.524 . S
C1003 C1004 1.397 . S
C1003 C1008 1.363 . S
C1004 H981 0.950 . S
C1004 C1003 1.397 . S
C1004 C1005 1.334 . S
C1005 H982 0.950 . S
C1005 C1004 1.334 . S
C1005 C1006 1.287 . S
C1006 C1005 1.287 . S
C1006 C1007 1.524 . S
C1006 H1025 0.913 . S
C1007 H983 0.950 . S
C1007 C1006 1.524 . S
C1007 C1008 1.415 . S
C1008 H984 0.950 . S
C1008 C1003 1.363 . S
C1008 C1007 1.415 . S
C1009 H985 0.951 . S
C1009 C1010 1.366 . S
C1009 C1011 1.388 . S
C1010 C1009 1.366 . S
C1010 C1014 1.385 . S
C1011 H986 0.951 . S
C1011 C1009 1.388 . S
C1011 C1012 1.366 . S
C1012 C1011 1.366 . S
C1012 C1013 1.414 . S
C1012 C1015 1.499 . S
C1013 H987 0.950 . S
C1013 C1012 1.414 . S
C1013 C1014 1.374 . S
C1014 H988 0.950 . S
C1014 C1010 1.385 . S
C1014 C1013 1.374 . S
C1015 C1012 1.499 . S
C1015 C1016 1.356 1_565 S
C1015 C1017 1.389 1_556 S
C1016 H989 0.950 . S
C1016 C1002 1.393 . S
C1016 C1015 1.356 1_545 S
C1017 C1001 1.393 . S
C1017 C1015 1.389 1_554 S
C1017 C1018 1.524 . S
C1018 C1017 1.524 . S
C1018 C1019 1.397 . S
C1018 C1023 1.363 . S
C1019 H990 0.950 . S
C1019 C1018 1.397 . S
C1019 C1020 1.334 . S
C1020 H991 0.950 . S
C1020 C1019 1.334 . S
C1020 C1021 1.287 . S
C1021 C1020 1.287 . S
C1021 C1022 1.524 . S
C1021 H1024 0.999 . S
C1022 H992 0.950 . S
C1022 C1021 1.524 . S
C1022 C1023 1.415 . S
C1023 H993 0.950 . S
C1023 C1018 1.363 . S
C1023 C1022 1.415 . S
H1024 C1021 0.999 . S
H1025 C1006 0.913 . S
H1026 C1044 0.951 . S
H1027 C1046 0.951 . S
H1028 C1048 0.950 . S
H1029 C1049 0.950 . S
H1030 C1051 0.950 . S
H1031 C1054 0.950 . S
H1032 C1055 0.950 . S
H1033 C1057 0.950 . S
H1034 C1058 0.950 . S
H1035 C1059 0.951 . S
H1036 C1061 0.951 . S
H1037 C1063 0.950 . S
H1038 C1064 0.950 . S
H1039 C1066 0.950 . S
H1040 C1069 0.950 . S
H1041 C1070 0.950 . S
H1042 C1072 0.950 . S
H1043 C1073 0.950 . S
C1044 H1026 0.951 . S
C1044 C1045 1.366 . S
C1044 C1046 1.388 . S
C1045 C1044 1.366 . S
C1045 C1049 1.385 . S
C1046 H1027 0.951 . S
C1046 C1044 1.388 . S
C1046 C1047 1.366 . S
C1047 C1046 1.366 . S
C1047 C1048 1.414 . S
C1047 C1050 1.499 . S
C1048 H1028 0.950 . S
C1048 C1047 1.414 . S
C1048 C1049 1.374 . S
C1049 H1029 0.950 . S
C1049 C1045 1.385 . S
C1049 C1048 1.374 . S
C1050 C1047 1.499 . S
C1050 C1051 1.358 1_565 S
C1050 C1052 1.389 . S
C1051 H1030 0.950 . S
C1051 C1050 1.358 1_545 S
C1051 C1067 1.391 . S
C1052 C1050 1.389 . S
C1052 C1053 1.524 . S
C1052 C1066 1.391 . S
C1053 C1052 1.524 . S
C1053 C1054 1.397 . S
C1053 C1058 1.363 . S
C1054 H1031 0.950 . S
C1054 C1053 1.397 . S
C1054 C1055 1.334 . S
C1055 H1032 0.950 . S
C1055 C1054 1.334 . S
C1055 C1056 1.287 . S
C1056 C1055 1.287 . S
C1056 C1057 1.524 . S
C1056 H1075 0.913 . S
C1057 H1033 0.950 . S
C1057 C1056 1.524 . S
C1057 C1058 1.415 . S
C1058 H1034 0.950 . S
C1058 C1053 1.363 . S
C1058 C1057 1.415 . S
C1059 H1035 0.951 . S
C1059 C1060 1.366 . S
C1059 C1061 1.388 . S
C1060 C1059 1.366 . S
C1060 C1064 1.385 . S
C1061 H1036 0.951 . S
C1061 C1059 1.388 . S
C1061 C1062 1.366 . S
C1062 C1061 1.366 . S
C1062 C1063 1.414 . S
C1062 C1065 1.499 . S
C1063 H1037 0.950 . S
C1063 C1062 1.414 . S
C1063 C1064 1.374 . S
C1064 H1038 0.950 . S
C1064 C1060 1.385 . S
C1064 C1063 1.374 . S
C1065 C1062 1.499 . S
C1065 C1066 1.358 1_545 S
C1065 C1067 1.389 . S
C1066 H1039 0.950 . S
C1066 C1052 1.391 . S
C1066 C1065 1.358 1_565 S
C1067 C1051 1.391 . S
C1067 C1065 1.389 . S
C1067 C1068 1.524 . S
C1068 C1067 1.524 . S
C1068 C1069 1.397 . S
C1068 C1073 1.363 . S
C1069 H1040 0.950 . S
C1069 C1068 1.397 . S
C1069 C1070 1.334 . S
C1070 H1041 0.950 . S
C1070 C1069 1.334 . S
C1070 C1071 1.287 . S
C1071 C1070 1.287 . S
C1071 C1072 1.524 . S
C1071 H1074 0.999 . S
C1072 H1042 0.950 . S
C1072 C1071 1.524 . S
C1072 C1073 1.415 . S
C1073 H1043 0.950 . S
C1073 C1068 1.363 . S
C1073 C1072 1.415 . S
H1074 C1071 0.999 . S
H1075 C1056 0.913 . S
H1076 C1094 0.951 . S
H1077 C1096 0.951 . S
H1078 C1098 0.950 1_554 S
H1079 C1099 0.950 . S
H1080 C1101 0.950 . S
H1081 C1104 0.950 . S
H1082 C1105 0.950 . S
H1083 C1107 0.950 . S
H1084 C1108 0.950 1_545 S
H1085 C1109 0.951 . S
H1086 C1111 0.951 . S
H1087 C1113 0.950 1_556 S
H1088 C1114 0.950 . S
H1089 C1116 0.950 . S
H1090 C1119 0.950 . S
H1091 C1120 0.950 . S
H1092 C1122 0.950 . S
H1093 C1123 0.950 1_565 S
C1094 H1076 0.951 . S
C1094 C1095 1.366 . S
C1094 C1096 1.388 . S
C1095 C1094 1.366 . S
C1095 C1099 1.385 . S
C1096 H1077 0.951 . S
C1096 C1094 1.388 . S
C1096 C1097 1.366 . S
C1097 C1096 1.366 . S
C1097 C1098 1.414 . S
C1097 C1100 1.499 . S
C1098 H1078 0.950 1_556 S
C1098 C1097 1.414 . S
C1098 C1099 1.374 . S
C1099 H1079 0.950 . S
C1099 C1095 1.385 . S
C1099 C1098 1.374 . S
C1100 C1097 1.499 . S
C1100 C1101 1.373 . S
C1100 C1102 1.389 . S
C1101 H1080 0.950 . S
C1101 C1100 1.373 . S
C1101 C1117 1.377 1_566 S
C1102 C1100 1.389 . S
C1102 C1103 1.524 . S
C1102 C1116 1.377 1_566 S
C1103 C1102 1.524 . S
C1103 C1104 1.397 1_556 S
C1103 C1108 1.363 . S
C1104 H1081 0.950 . S
C1104 C1103 1.397 1_554 S
C1104 C1105 1.334 . S
C1105 H1082 0.950 . S
C1105 C1104 1.334 . S
C1105 C1106 1.287 1_554 S
C1106 C1105 1.287 1_556 S
C1106 C1107 1.524 . S
C1106 H1125 0.913 . S
C1107 H1083 0.950 . S
C1107 C1106 1.524 . S
C1107 C1108 1.415 . S
C1108 H1084 0.950 1_565 S
C1108 C1103 1.363 . S
C1108 C1107 1.415 . S
C1109 H1085 0.951 . S
C1109 C1110 1.366 . S
C1109 C1111 1.388 . S
C1110 C1109 1.366 . S
C1110 C1114 1.385 . S
C1111 H1086 0.951 . S
C1111 C1109 1.388 . S
C1111 C1112 1.366 . S
C1112 C1111 1.366 . S
C1112 C1113 1.414 . S
C1112 C1115 1.499 . S
C1113 H1087 0.950 1_554 S
C1113 C1112 1.414 . S
C1113 C1114 1.374 . S
C1114 H1088 0.950 . S
C1114 C1110 1.385 . S
C1114 C1113 1.374 . S
C1115 C1112 1.499 . S
C1115 C1116 1.373 . S
C1115 C1117 1.389 . S
C1116 H1089 0.950 . S
C1116 C1102 1.377 1_544 S
C1116 C1115 1.373 . S
C1117 C1101 1.377 1_544 S
C1117 C1115 1.389 . S
C1117 C1118 1.524 . S
C1118 C1117 1.524 . S
C1118 C1119 1.397 1_554 S
C1118 C1123 1.363 . S
C1119 H1090 0.950 . S
C1119 C1118 1.397 1_556 S
C1119 C1120 1.334 . S
C1120 H1091 0.950 . S
C1120 C1119 1.334 . S
C1120 C1121 1.287 1_556 S
C1121 C1120 1.287 1_554 S
C1121 C1122 1.524 . S
C1121 H1124 0.999 . S
C1122 H1092 0.950 . S
C1122 C1121 1.524 . S
C1122 C1123 1.415 . S
C1123 H1093 0.950 1_545 S
C1123 C1118 1.363 . S
C1123 C1122 1.415 . S
H1124 C1121 0.999 . S
H1125 C1106 0.913 . S
H1126 C1144 0.951 . S
H1127 C1146 0.951 . S
H1128 C1148 0.950 . S
H1129 C1149 0.950 . S
H1130 C1151 0.950 . S
H1131 C1154 0.950 . S
H1132 C1155 0.950 . S
H1133 C1157 0.950 . S
H1134 C1158 0.950 . S
H1135 C1159 0.951 . S
H1136 C1161 0.951 . S
H1137 C1163 0.950 . S
H1138 C1164 0.950 . S
H1139 C1166 0.950 . S
H1140 C1169 0.950 . S
H1141 C1170 0.950 . S
H1142 C1172 0.950 . S
H1143 C1173 0.950 . S
C1144 H1126 0.951 . S
C1144 C1145 1.366 . S
C1144 C1146 1.388 . S
C1145 C1144 1.366 . S
C1145 C1149 1.385 . S
C1146 H1127 0.951 . S
C1146 C1144 1.388 . S
C1146 C1147 1.366 . S
C1147 C1146 1.366 . S
C1147 C1148 1.414 . S
C1147 C1150 1.499 . S
C1148 H1128 0.950 . S
C1148 C1147 1.414 . S
C1148 C1149 1.374 . S
C1149 H1129 0.950 . S
C1149 C1145 1.385 . S
C1149 C1148 1.374 . S
C1150 C1147 1.499 . S
C1150 C1151 1.373 . S
C1150 C1152 1.389 . S
C1151 H1130 0.950 . S
C1151 C1150 1.373 . S
C1151 C1167 1.377 1_545 S
C1152 C1150 1.389 . S
C1152 C1153 1.524 . S
C1152 C1166 1.377 1_545 S
C1153 C1152 1.524 . S
C1153 C1154 1.397 . S
C1153 C1158 1.363 1_545 S
C1154 H1131 0.950 . S
C1154 C1153 1.397 . S
C1154 C1155 1.334 . S
C1155 H1132 0.950 . S
C1155 C1154 1.334 . S
C1155 C1156 1.287 . S
C1156 C1155 1.287 . S
C1156 C1157 1.524 1_545 S
C1156 H1175 0.913 . S
C1157 H1133 0.950 . S
C1157 C1156 1.524 1_565 S
C1157 C1158 1.415 . S
C1158 H1134 0.950 . S
C1158 C1153 1.363 1_565 S
C1158 C1157 1.415 . S
C1159 H1135 0.951 . S
C1159 C1160 1.366 . S
C1159 C1161 1.388 . S
C1160 C1159 1.366 . S
C1160 C1164 1.385 . S
C1161 H1136 0.951 . S
C1161 C1159 1.388 . S
C1161 C1162 1.366 . S
C1162 C1161 1.366 . S
C1162 C1163 1.414 . S
C1162 C1165 1.499 . S
C1163 H1137 0.950 . S
C1163 C1162 1.414 . S
C1163 C1164 1.374 . S
C1164 H1138 0.950 . S
C1164 C1160 1.385 . S
C1164 C1163 1.374 . S
C1165 C1162 1.499 . S
C1165 C1166 1.373 . S
C1165 C1167 1.389 . S
C1166 H1139 0.950 . S
C1166 C1152 1.377 1_565 S
C1166 C1165 1.373 . S
C1167 C1151 1.377 1_565 S
C1167 C1165 1.389 . S
C1167 C1168 1.524 . S
C1168 C1167 1.524 . S
C1168 C1169 1.397 . S
C1168 C1173 1.363 1_565 S
C1169 H1140 0.950 . S
C1169 C1168 1.397 . S
C1169 C1170 1.334 . S
C1170 H1141 0.950 . S
C1170 C1169 1.334 . S
C1170 C1171 1.287 . S
C1171 C1170 1.287 . S
C1171 C1172 1.524 1_565 S
C1171 H1174 0.999 . S
C1172 H1142 0.950 . S
C1172 C1171 1.524 1_545 S
C1172 C1173 1.415 . S
C1173 H1143 0.950 . S
C1173 C1168 1.363 1_545 S
C1173 C1172 1.415 . S
H1174 C1171 0.999 . S
H1175 C1156 0.913 . S
H1176 C1194 0.951 . S
H1177 C1196 0.951 . S
H1178 C1198 0.950 . S
H1179 C1199 0.950 . S
H1180 C1201 0.950 . S
H1181 C1204 0.950 . S
H1182 C1205 0.950 . S
H1183 C1207 0.950 . S
H1184 C1208 0.950 . S
H1185 C1209 0.951 . S
H1186 C1211 0.951 . S
H1187 C1213 0.950 . S
H1188 C1214 0.950 . S
H1189 C1216 0.950 . S
H1190 C1219 0.950 . S
H1191 C1220 0.950 . S
H1192 C1222 0.950 . S
H1193 C1223 0.950 . S
C1194 H1176 0.951 . S
C1194 C1195 1.366 . S
C1194 C1196 1.388 . S
C1195 C1194 1.366 . S
C1195 C1199 1.385 . S
C1196 H1177 0.951 . S
C1196 C1194 1.388 . S
C1196 C1197 1.366 . S
C1197 C1196 1.366 . S
C1197 C1198 1.414 . S
C1197 C1200 1.499 . S
C1198 H1178 0.950 . S
C1198 C1197 1.414 . S
C1198 C1199 1.374 . S
C1199 H1179 0.950 . S
C1199 C1195 1.385 . S
C1199 C1198 1.374 . S
C1200 C1197 1.499 . S
C1200 C1201 1.373 . S
C1200 C1202 1.389 . S
C1201 H1180 0.950 . S
C1201 C1200 1.373 . S
C1201 C1217 1.377 1_556 S
C1202 C1200 1.389 . S
C1202 C1203 1.524 . S
C1202 C1216 1.377 1_556 S
C1203 C1202 1.524 . S
C1203 C1204 1.397 . S
C1203 C1208 1.363 1_556 S
C1204 H1181 0.950 . S
C1204 C1203 1.397 . S
C1204 C1205 1.334 . S
C1205 H1182 0.950 . S
C1205 C1204 1.334 . S
C1205 C1206 1.287 . S
C1206 C1205 1.287 . S
C1206 C1207 1.524 1_556 S
C1206 H1225 0.913 . S
C1207 H1183 0.950 . S
C1207 C1206 1.524 1_554 S
C1207 C1208 1.415 . S
C1208 H1184 0.950 . S
C1208 C1203 1.363 1_554 S
C1208 C1207 1.415 . S
C1209 H1185 0.951 . S
C1209 C1210 1.366 . S
C1209 C1211 1.388 . S
C1210 C1209 1.366 . S
C1210 C1214 1.385 . S
C1211 H1186 0.951 . S
C1211 C1209 1.388 . S
C1211 C1212 1.366 . S
C1212 C1211 1.366 . S
C1212 C1213 1.414 . S
C1212 C1215 1.499 . S
C1213 H1187 0.950 . S
C1213 C1212 1.414 . S
C1213 C1214 1.374 . S
C1214 H1188 0.950 . S
C1214 C1210 1.385 . S
C1214 C1213 1.374 . S
C1215 C1212 1.499 . S
C1215 C1216 1.373 . S
C1215 C1217 1.389 . S
C1216 H1189 0.950 . S
C1216 C1202 1.377 1_554 S
C1216 C1215 1.373 . S
C1217 C1201 1.377 1_554 S
C1217 C1215 1.389 . S
C1217 C1218 1.524 . S
C1218 C1217 1.524 . S
C1218 C1219 1.397 . S
C1218 C1223 1.363 1_554 S
C1219 H1190 0.950 . S
C1219 C1218 1.397 . S
C1219 C1220 1.334 . S
C1220 H1191 0.950 . S
C1220 C1219 1.334 . S
C1220 C1221 1.287 . S
C1221 C1220 1.287 . S
C1221 C1222 1.524 1_554 S
C1221 H1224 0.999 . S
C1222 H1192 0.950 . S
C1222 C1221 1.524 1_556 S
C1222 C1223 1.415 . S
C1223 H1193 0.950 . S
C1223 C1218 1.363 1_556 S
C1223 C1222 1.415 . S
H1224 C1221 0.999 . S
H1225 C1206 0.913 . S
H1226 C1244 0.951 . S
H1227 C1246 0.951 . S
H1228 C1248 0.950 . S
H1229 C1249 0.950 . S
H1230 C1251 0.950 . S
H1231 C1254 0.950 . S
H1232 C1255 0.950 . S
H1233 C1257 0.950 . S
H1234 C1258 0.950 . S
H1235 C1259 0.951 . S
H1236 C1261 0.951 . S
H1237 C1263 0.950 . S
H1238 C1264 0.950 . S
H1239 C1266 0.950 . S
H1240 C1269 0.950 . S
H1241 C1270 0.950 . S
H1242 C1272 0.950 . S
H1243 C1273 0.950 . S
C1244 H1226 0.951 . S
C1244 C1245 1.366 . S
C1244 C1246 1.388 . S
C1245 C1244 1.366 . S
C1245 C1249 1.385 . S
C1246 H1227 0.951 . S
C1246 C1244 1.388 . S
C1246 C1247 1.366 . S
C1247 C1246 1.366 . S
C1247 C1248 1.414 . S
C1247 C1250 1.499 . S
C1248 H1228 0.950 . S
C1248 C1247 1.414 . S
C1248 C1249 1.374 . S
C1249 H1229 0.950 . S
C1249 C1245 1.385 . S
C1249 C1248 1.374 . S
C1250 C1247 1.499 . S
C1250 C1251 1.373 . S
C1250 C1252 1.389 . S
C1251 H1230 0.950 . S
C1251 C1250 1.373 . S
C1251 C1267 1.377 . S
C1252 C1250 1.389 . S
C1252 C1253 1.524 . S
C1252 C1266 1.377 . S
C1253 C1252 1.524 . S
C1253 C1254 1.397 . S
C1253 C1258 1.363 . S
C1254 H1231 0.950 . S
C1254 C1253 1.397 . S
C1254 C1255 1.334 . S
C1255 H1232 0.950 . S
C1255 C1254 1.334 . S
C1255 C1256 1.287 . S
C1256 C1255 1.287 . S
C1256 C1257 1.524 . S
C1256 H1275 0.913 . S
C1257 H1233 0.950 . S
C1257 C1256 1.524 . S
C1257 C1258 1.415 . S
C1258 H1234 0.950 . S
C1258 C1253 1.363 . S
C1258 C1257 1.415 . S
C1259 H1235 0.951 . S
C1259 C1260 1.366 . S
C1259 C1261 1.388 . S
C1260 C1259 1.366 . S
C1260 C1264 1.385 . S
C1261 H1236 0.951 . S
C1261 C1259 1.388 . S
C1261 C1262 1.366 . S
C1262 C1261 1.366 . S
C1262 C1263 1.414 . S
C1262 C1265 1.499 . S
C1263 H1237 0.950 . S
C1263 C1262 1.414 . S
C1263 C1264 1.374 . S
C1264 H1238 0.950 . S
C1264 C1260 1.385 . S
C1264 C1263 1.374 . S
C1265 C1262 1.499 . S
C1265 C1266 1.373 . S
C1265 C1267 1.389 . S
C1266 H1239 0.950 . S
C1266 C1252 1.377 . S
C1266 C1265 1.373 . S
C1267 C1251 1.377 . S
C1267 C1265 1.389 . S
C1267 C1268 1.524 . S
C1268 C1267 1.524 . S
C1268 C1269 1.397 . S
C1268 C1273 1.363 . S
C1269 H1240 0.950 . S
C1269 C1268 1.397 . S
C1269 C1270 1.334 . S
C1270 H1241 0.950 . S
C1270 C1269 1.334 . S
C1270 C1271 1.287 . S
C1271 C1270 1.287 . S
C1271 C1272 1.524 . S
C1271 H1274 0.999 . S
C1272 H1242 0.950 . S
C1272 C1271 1.524 . S
C1272 C1273 1.415 . S
C1273 H1243 0.950 . S
C1273 C1268 1.363 . S
C1273 C1272 1.415 . S
H1274 C1271 0.999 . S
H1275 C1256 0.913 . S
H1276 C1294 0.951 . S
H1277 C1296 0.951 1_556 S
H1278 C1298 0.950 . S
H1279 C1299 0.950 . S
H1280 C1301 0.950 . S
H1281 C1304 0.950 . S
H1282 C1305 0.950 . S
H1283 C1307 0.950 . S
H1284 C1308 0.950 . S
H1285 C1309 0.951 . S
H1286 C1311 0.951 1_554 S
H1287 C1313 0.950 . S
H1288 C1314 0.950 . S
H1289 C1316 0.950 . S
H1290 C1319 0.950 . S
H1291 C1320 0.950 . S
H1292 C1322 0.950 . S
H1293 C1323 0.950 . S
C1294 H1276 0.951 . S
C1294 C1295 1.366 . S
C1294 C1296 1.388 . S
C1295 C1294 1.366 . S
C1295 C1299 1.385 . S
C1296 H1277 0.951 1_554 S
C1296 C1294 1.388 . S
C1296 C1297 1.366 . S
C1297 C1296 1.366 . S
C1297 C1298 1.414 . S
C1297 C1300 1.499 . S
C1298 H1278 0.950 . S
C1298 C1297 1.414 . S
C1298 C1299 1.374 . S
C1299 H1279 0.950 . S
C1299 C1295 1.385 . S
C1299 C1298 1.374 . S
C1300 C1297 1.499 . S
C1300 C1301 1.373 . S
C1300 C1302 1.389 1_554 S
C1301 H1280 0.950 . S
C1301 C1300 1.373 . S
C1301 C1317 1.377 . S
C1302 C1300 1.389 1_556 S
C1302 C1303 1.524 . S
C1302 C1316 1.377 . S
C1303 C1302 1.524 . S
C1303 C1304 1.397 1_556 S
C1303 C1308 1.363 . S
C1304 H1281 0.950 . S
C1304 C1303 1.397 1_554 S
C1304 C1305 1.334 . S
C1305 H1282 0.950 . S
C1305 C1304 1.334 . S
C1305 C1306 1.287 1_554 S
C1306 C1305 1.287 1_556 S
C1306 C1307 1.524 . S
C1306 H1325 0.913 . S
C1307 H1283 0.950 . S
C1307 C1306 1.524 . S
C1307 C1308 1.415 . S
C1308 H1284 0.950 . S
C1308 C1303 1.363 . S
C1308 C1307 1.415 . S
C1309 H1285 0.951 . S
C1309 C1310 1.366 . S
C1309 C1311 1.388 . S
C1310 C1309 1.366 . S
C1310 C1314 1.385 . S
C1311 H1286 0.951 1_556 S
C1311 C1309 1.388 . S
C1311 C1312 1.366 . S
C1312 C1311 1.366 . S
C1312 C1313 1.414 . S
C1312 C1315 1.499 . S
C1313 H1287 0.950 . S
C1313 C1312 1.414 . S
C1313 C1314 1.374 . S
C1314 H1288 0.950 . S
C1314 C1310 1.385 . S
C1314 C1313 1.374 . S
C1315 C1312 1.499 . S
C1315 C1316 1.373 . S
C1315 C1317 1.389 1_556 S
C1316 H1289 0.950 . S
C1316 C1302 1.377 . S
C1316 C1315 1.373 . S
C1317 C1301 1.377 . S
C1317 C1315 1.389 1_554 S
C1317 C1318 1.524 . S
C1318 C1317 1.524 . S
C1318 C1319 1.397 1_554 S
C1318 C1323 1.363 . S
C1319 H1290 0.950 . S
C1319 C1318 1.397 1_556 S
C1319 C1320 1.334 . S
C1320 H1291 0.950 . S
C1320 C1319 1.334 . S
C1320 C1321 1.287 1_556 S
C1321 C1320 1.287 1_554 S
C1321 C1322 1.524 . S
C1321 H1324 0.999 . S
C1322 H1292 0.950 . S
C1322 C1321 1.524 . S
C1322 C1323 1.415 . S
C1323 H1293 0.950 . S
C1323 C1318 1.363 . S
C1323 C1322 1.415 . S
H1324 C1321 0.999 . S
H1325 C1306 0.913 . S
H1326 C1344 0.951 . S
H1327 C1346 0.951 . S
H1328 C1348 0.950 . S
H1329 C1349 0.950 . S
H1330 C1351 0.950 . S
H1331 C1354 0.950 . S
H1332 C1355 0.950 . S
H1333 C1357 0.950 . S
H1334 C1358 0.950 . S
H1335 C1359 0.951 . S
H1336 C1361 0.951 . S
H1337 C1363 0.950 . S
H1338 C1364 0.950 . S
H1339 C1366 0.950 . S
H1340 C1369 0.950 . S
H1341 C1370 0.950 . S
H1342 C1372 0.950 . S
H1343 C1373 0.950 . S
C1344 H1326 0.951 . S
C1344 C1345 1.366 . S
C1344 C1346 1.388 . S
C1345 C1344 1.366 . S
C1345 C1349 1.385 . S
C1346 H1327 0.951 . S
C1346 C1344 1.388 . S
C1346 C1347 1.366 . S
C1347 C1346 1.366 . S
C1347 C1348 1.414 . S
C1347 C1350 1.499 . S
C1348 H1328 0.950 . S
C1348 C1347 1.414 . S
C1348 C1349 1.374 . S
C1349 H1329 0.950 . S
C1349 C1345 1.385 . S
C1349 C1348 1.374 . S
C1350 C1347 1.499 . S
C1350 C1351 1.373 . S
C1350 C1352 1.389 . S
C1351 H1330 0.950 . S
C1351 C1350 1.373 . S
C1351 C1367 1.377 . S
C1352 C1350 1.389 . S
C1352 C1353 1.524 . S
C1352 C1366 1.377 . S
C1353 C1352 1.524 . S
C1353 C1354 1.397 . S
C1353 C1358 1.363 . S
C1354 H1331 0.950 . S
C1354 C1353 1.397 . S
C1354 C1355 1.334 . S
C1355 H1332 0.950 . S
C1355 C1354 1.334 . S
C1355 C1356 1.287 . S
C1356 C1355 1.287 . S
C1356 C1357 1.524 . S
C1356 H1375 0.913 . S
C1357 H1333 0.950 . S
C1357 C1356 1.524 . S
C1357 C1358 1.415 . S
C1358 H1334 0.950 . S
C1358 C1353 1.363 . S
C1358 C1357 1.415 . S
C1359 H1335 0.951 . S
C1359 C1360 1.366 . S
C1359 C1361 1.388 . S
C1360 C1359 1.366 . S
C1360 C1364 1.385 . S
C1361 H1336 0.951 . S
C1361 C1359 1.388 . S
C1361 C1362 1.366 . S
C1362 C1361 1.366 . S
C1362 C1363 1.414 . S
C1362 C1365 1.499 . S
C1363 H1337 0.950 . S
C1363 C1362 1.414 . S
C1363 C1364 1.374 . S
C1364 H1338 0.950 . S
C1364 C1360 1.385 . S
C1364 C1363 1.374 . S
C1365 C1362 1.499 . S
C1365 C1366 1.373 . S
C1365 C1367 1.389 . S
C1366 H1339 0.950 . S
C1366 C1352 1.377 . S
C1366 C1365 1.373 . S
C1367 C1351 1.377 . S
C1367 C1365 1.389 . S
C1367 C1368 1.524 . S
C1368 C1367 1.524 . S
C1368 C1369 1.397 . S
C1368 C1373 1.363 . S
C1369 H1340 0.950 . S
C1369 C1368 1.397 . S
C1369 C1370 1.334 . S
C1370 H1341 0.950 . S
C1370 C1369 1.334 . S
C1370 C1371 1.287 . S
C1371 C1370 1.287 . S
C1371 C1372 1.524 . S
C1371 H1374 0.999 . S
C1372 H1342 0.950 . S
C1372 C1371 1.524 . S
C1372 C1373 1.415 . S
C1373 H1343 0.950 . S
C1373 C1368 1.363 . S
C1373 C1372 1.415 . S
H1374 C1371 0.999 . S
H1375 C1356 0.913 . S
H1376 C1394 0.951 . S
H1377 C1396 0.951 . S
H1378 C1398 0.950 . S
H1379 C1399 0.950 . S
H1380 C1401 0.950 . S
H1381 C1404 0.950 . S
H1382 C1405 0.950 . S
H1383 C1407 0.950 . S
H1384 C1408 0.950 . S
H1385 C1409 0.951 . S
H1386 C1411 0.951 . S
H1387 C1413 0.950 . S
H1388 C1414 0.950 . S
H1389 C1416 0.950 . S
H1390 C1419 0.950 . S
H1391 C1420 0.950 . S
H1392 C1422 0.950 . S
H1393 C1423 0.950 . S
C1394 H1376 0.951 . S
C1394 C1395 1.366 . S
C1394 C1396 1.388 . S
C1395 C1394 1.366 . S
C1395 C1399 1.385 . S
C1396 H1377 0.951 . S
C1396 C1394 1.388 . S
C1396 C1397 1.366 . S
C1397 C1396 1.366 . S
C1397 C1398 1.414 . S
C1397 C1400 1.499 . S
C1398 H1378 0.950 . S
C1398 C1397 1.414 . S
C1398 C1399 1.374 . S
C1399 H1379 0.950 . S
C1399 C1395 1.385 . S
C1399 C1398 1.374 . S
C1400 C1397 1.499 . S
C1400 C1401 1.373 . S
C1400 C1402 1.389 . S
C1401 H1380 0.950 . S
C1401 C1400 1.373 . S
C1401 C1417 1.377 . S
C1402 C1400 1.389 . S
C1402 C1403 1.524 . S
C1402 C1416 1.377 . S
C1403 C1402 1.524 . S
C1403 C1404 1.397 . S
C1403 C1408 1.363 . S
C1404 H1381 0.950 . S
C1404 C1403 1.397 . S
C1404 C1405 1.334 . S
C1405 H1382 0.950 . S
C1405 C1404 1.334 . S
C1405 C1406 1.287 . S
C1406 C1405 1.287 . S
C1406 C1407 1.524 . S
C1406 H1425 0.913 . S
C1407 H1383 0.950 . S
C1407 C1406 1.524 . S
C1407 C1408 1.415 . S
C1408 H1384 0.950 . S
C1408 C1403 1.363 . S
C1408 C1407 1.415 . S
C1409 H1385 0.951 . S
C1409 C1410 1.366 . S
C1409 C1411 1.388 . S
C1410 C1409 1.366 . S
C1410 C1414 1.385 . S
C1411 H1386 0.951 . S
C1411 C1409 1.388 . S
C1411 C1412 1.366 . S
C1412 C1411 1.366 . S
C1412 C1413 1.414 . S
C1412 C1415 1.499 . S
C1413 H1387 0.950 . S
C1413 C1412 1.414 . S
C1413 C1414 1.374 . S
C1414 H1388 0.950 . S
C1414 C1410 1.385 . S
C1414 C1413 1.374 . S
C1415 C1412 1.499 . S
C1415 C1416 1.373 . S
C1415 C1417 1.389 . S
C1416 H1389 0.950 . S
C1416 C1402 1.377 . S
C1416 C1415 1.373 . S
C1417 C1401 1.377 . S
C1417 C1415 1.389 . S
C1417 C1418 1.524 . S
C1418 C1417 1.524 . S
C1418 C1419 1.397 . S
C1418 C1423 1.363 . S
C1419 H1390 0.950 . S
C1419 C1418 1.397 . S
C1419 C1420 1.334 . S
C1420 H1391 0.950 . S
C1420 C1419 1.334 . S
C1420 C1421 1.287 . S
C1421 C1420 1.287 . S
C1421 C1422 1.524 . S
C1421 H1424 0.999 . S
C1422 H1392 0.950 . S
C1422 C1421 1.524 . S
C1422 C1423 1.415 . S
C1423 H1393 0.950 . S
C1423 C1418 1.363 . S
C1423 C1422 1.415 . S
H1424 C1421 0.999 . S
H1425 C1406 0.913 . S
H1426 C1444 0.951 . S
H1427 C1446 0.951 . S
H1428 C1448 0.950 . S
H1429 C1449 0.950 . S
H1430 C1451 0.950 . S
H1431 C1454 0.950 . S
H1432 C1455 0.950 . S
H1433 C1457 0.950 . S
H1434 C1458 0.950 . S
H1435 C1459 0.951 . S
H1436 C1461 0.951 . S
H1437 C1463 0.950 . S
H1438 C1464 0.950 . S
H1439 C1466 0.931 1_455 S
H1440 C1469 0.950 . S
H1441 C1470 0.950 . S
H1442 C1472 0.950 . S
H1443 C1473 0.950 1_655 S
C1444 H1426 0.951 . S
C1444 C1445 1.366 . S
C1444 C1446 1.388 . S
C1445 C1444 1.366 . S
C1445 C1449 1.385 . S
C1446 H1427 0.951 . S
C1446 C1444 1.388 . S
C1446 C1447 1.366 . S
C1447 C1446 1.366 . S
C1447 C1448 1.414 . S
C1447 C1450 1.499 . S
C1448 H1428 0.950 . S
C1448 C1447 1.414 . S
C1448 C1449 1.374 . S
C1449 H1429 0.950 . S
C1449 C1445 1.385 . S
C1449 C1448 1.374 . S
C1450 C1447 1.499 . S
C1450 C1451 1.373 . S
C1450 C1452 1.389 . S
C1451 H1430 0.950 . S
C1451 C1450 1.373 . S
C1451 C1467 1.377 . S
C1452 C1450 1.389 . S
C1452 C1453 1.524 . S
C1452 C1466 1.415 . S
C1453 C1452 1.524 . S
C1453 C1454 1.397 . S
C1453 C1458 1.363 . S
C1454 H1431 0.950 . S
C1454 C1453 1.397 . S
C1454 C1455 1.334 . S
C1455 H1432 0.950 . S
C1455 C1454 1.334 . S
C1455 C1456 1.287 . S
C1456 C1455 1.287 . S
C1456 C1457 1.524 . S
C1456 H1475 0.913 . S
C1457 H1433 0.950 . S
C1457 C1456 1.524 . S
C1457 C1458 1.415 . S
C1458 H1434 0.950 . S
C1458 C1453 1.363 . S
C1458 C1457 1.415 . S
C1459 H1435 0.951 . S
C1459 C1460 1.366 . S
C1459 C1461 1.388 . S
C1460 C1459 1.366 . S
C1460 C1464 1.385 . S
C1461 H1436 0.951 . S
C1461 C1459 1.388 . S
C1461 C1462 1.366 . S
C1462 C1461 1.366 . S
C1462 C1463 1.414 . S
C1462 C1465 1.499 . S
C1463 H1437 0.950 . S
C1463 C1462 1.414 . S
C1463 C1464 1.374 . S
C1464 H1438 0.950 . S
C1464 C1460 1.385 . S
C1464 C1463 1.374 . S
C1465 C1462 1.499 . S
C1465 C1466 1.355 1_455 S
C1465 C1467 1.389 1_455 S
C1466 H1439 0.931 1_655 S
C1466 C1452 1.415 . S
C1466 C1465 1.355 1_655 S
C1467 C1451 1.377 . S
C1467 C1465 1.389 1_655 S
C1467 C1468 1.524 1_655 S
C1468 C1467 1.524 1_455 S
C1468 C1469 1.397 . S
C1468 C1473 1.363 . S
C1469 H1440 0.950 . S
C1469 C1468 1.397 . S
C1469 C1470 1.334 . S
C1470 H1441 0.950 . S
C1470 C1469 1.334 . S
C1470 C1471 1.287 . S
C1471 C1470 1.287 . S
C1471 C1472 1.524 . S
C1471 H1474 0.999 . S
C1472 H1442 0.950 . S
C1472 C1471 1.524 . S
C1472 C1473 1.415 . S
C1473 H1443 0.950 1_455 S
C1473 C1468 1.363 . S
C1473 C1472 1.415 . S
H1474 C1471 0.999 . S
H1475 C1456 0.913 . S
H1476 C1494 0.951 . S
H1477 C1496 0.951 . S
H1478 C1498 0.950 . S
H1479 C1499 0.950 . S
H1480 C1501 0.950 . S
H1481 C1504 0.950 . S
H1482 C1505 0.950 . S
H1483 C1507 0.950 . S
H1484 C1508 0.950 . S
H1485 C1509 0.951 . S
H1486 C1511 0.951 . S
H1487 C1513 0.950 . S
H1488 C1514 0.950 . S
H1489 C1516 0.950 . S
H1490 C1519 0.950 . S
H1491 C1520 0.950 . S
H1492 C1522 0.950 . S
H1493 C1523 0.950 . S
C1494 H1476 0.951 . S
C1494 C1495 1.366 . S
C1494 C1496 1.388 . S
C1495 C1494 1.366 . S
C1495 C1499 1.385 . S
C1496 H1477 0.951 . S
C1496 C1494 1.388 . S
C1496 C1497 1.366 . S
C1497 C1496 1.366 . S
C1497 C1498 1.414 . S
C1497 C1500 1.499 . S
C1498 H1478 0.950 . S
C1498 C1497 1.414 . S
C1498 C1499 1.374 . S
C1499 H1479 0.950 . S
C1499 C1495 1.385 . S
C1499 C1498 1.374 . S
C1500 C1497 1.499 . S
C1500 C1501 1.373 . S
C1500 C1502 1.389 . S
C1501 H1480 0.950 . S
C1501 C1500 1.373 . S
C1501 C1517 1.377 . S
C1502 C1500 1.389 . S
C1502 C1503 1.524 . S
C1502 C1516 1.377 . S
C1503 C1502 1.524 . S
C1503 C1504 1.397 . S
C1503 C1508 1.363 . S
C1504 H1481 0.950 . S
C1504 C1503 1.397 . S
C1504 C1505 1.334 . S
C1505 H1482 0.950 . S
C1505 C1504 1.334 . S
C1505 C1506 1.287 . S
C1506 C1505 1.287 . S
C1506 C1507 1.524 . S
C1506 H1525 0.913 . S
C1507 H1483 0.950 . S
C1507 C1506 1.524 . S
C1507 C1508 1.415 . S
C1508 H1484 0.950 . S
C1508 C1503 1.363 . S
C1508 C1507 1.415 . S
C1509 H1485 0.951 . S
C1509 C1510 1.366 . S
C1509 C1511 1.388 . S
C1510 C1509 1.366 . S
C1510 C1514 1.385 . S
C1511 H1486 0.951 . S
C1511 C1509 1.388 . S
C1511 C1512 1.366 . S
C1512 C1511 1.366 . S
C1512 C1513 1.414 . S
C1512 C1515 1.499 . S
C1513 H1487 0.950 . S
C1513 C1512 1.414 . S
C1513 C1514 1.374 . S
C1514 H1488 0.950 . S
C1514 C1510 1.385 . S
C1514 C1513 1.374 . S
C1515 C1512 1.499 . S
C1515 C1516 1.373 . S
C1515 C1517 1.389 . S
C1516 H1489 0.950 . S
C1516 C1502 1.377 . S
C1516 C1515 1.373 . S
C1517 C1501 1.377 . S
C1517 C1515 1.389 . S
C1517 C1518 1.524 . S
C1518 C1517 1.524 . S
C1518 C1519 1.397 . S
C1518 C1523 1.363 . S
C1519 H1490 0.950 . S
C1519 C1518 1.397 . S
C1519 C1520 1.334 . S
C1520 H1491 0.950 . S
C1520 C1519 1.334 . S
C1520 C1521 1.287 1_556 S
C1521 C1520 1.287 1_554 S
C1521 C1522 1.524 . S
C1521 H1524 0.999 . S
C1522 H1492 0.950 . S
C1522 C1521 1.524 . S
C1522 C1523 1.415 1_554 S
C1523 H1493 0.950 . S
C1523 C1518 1.363 . S
C1523 C1522 1.415 1_556 S
H1524 C1521 0.999 . S
H1525 C1506 0.913 . S
H1526 C1544 0.951 . S
H1527 C1546 0.951 . S
H1528 C1548 0.950 . S
H1529 C1549 0.950 . S
H1530 C1551 0.950 1_455 S
H1531 C1554 0.950 . S
H1532 C1555 0.950 . S
H1533 C1557 0.950 . S
H1534 C1558 0.950 1_655 S
H1535 C1559 0.951 . S
H1536 C1561 0.951 . S
H1537 C1563 0.950 . S
H1538 C1564 0.950 . S
H1539 C1566 0.950 . S
H1540 C1569 0.950 . S
H1541 C1570 0.950 . S
H1542 C1572 0.950 . S
H1543 C1573 0.950 . S
C1544 H1526 0.951 . S
C1544 C1545 1.366 . S
C1544 C1546 1.388 . S
C1545 C1544 1.366 . S
C1545 C1549 1.385 . S
C1546 H1527 0.951 . S
C1546 C1544 1.388 . S
C1546 C1547 1.366 . S
C1547 C1546 1.366 . S
C1547 C1548 1.414 . S
C1547 C1550 1.499 . S
C1548 H1528 0.950 . S
C1548 C1547 1.414 . S
C1548 C1549 1.374 . S
C1549 H1529 0.950 . S
C1549 C1545 1.385 . S
C1549 C1548 1.374 . S
C1550 C1547 1.499 . S
C1550 C1551 1.373 1_455 S
C1550 C1552 1.389 1_455 S
C1551 H1530 0.950 1_655 S
C1551 C1550 1.373 1_655 S
C1551 C1567 1.378 . S
C1552 C1550 1.389 1_655 S
C1552 C1553 1.524 1_655 S
C1552 C1566 1.377 . S
C1553 C1552 1.524 1_455 S
C1553 C1554 1.397 . S
C1553 C1558 1.363 . S
C1554 H1531 0.950 . S
C1554 C1553 1.397 . S
C1554 C1555 1.334 . S
C1555 H1532 0.950 . S
C1555 C1554 1.334 . S
C1555 C1556 1.287 . S
C1556 C1555 1.287 . S
C1556 C1557 1.524 . S
C1556 H1575 0.913 . S
C1557 H1533 0.950 . S
C1557 C1556 1.524 . S
C1557 C1558 1.415 . S
C1558 H1534 0.950 1_455 S
C1558 C1553 1.363 . S
C1558 C1557 1.415 . S
C1559 H1535 0.951 . S
C1559 C1560 1.366 . S
C1559 C1561 1.388 . S
C1560 C1559 1.366 . S
C1560 C1564 1.385 . S
C1561 H1536 0.951 . S
C1561 C1559 1.388 . S
C1561 C1562 1.366 . S
C1562 C1561 1.366 . S
C1562 C1563 1.414 . S
C1562 C1565 1.499 . S
C1563 H1537 0.950 . S
C1563 C1562 1.414 . S
C1563 C1564 1.374 . S
C1564 H1538 0.950 . S
C1564 C1560 1.385 . S
C1564 C1563 1.374 . S
C1565 C1562 1.499 . S
C1565 C1566 1.373 . S
C1565 C1567 1.389 . S
C1566 H1539 0.950 . S
C1566 C1552 1.377 . S
C1566 C1565 1.373 . S
C1567 C1551 1.378 . S
C1567 C1565 1.389 . S
C1567 C1568 1.524 . S
C1568 C1567 1.524 . S
C1568 C1569 1.397 . S
C1568 C1573 1.363 . S
C1569 H1540 0.950 . S
C1569 C1568 1.397 . S
C1569 C1570 1.334 . S
C1570 H1541 0.950 . S
C1570 C1569 1.334 . S
C1570 C1571 1.287 . S
C1571 C1570 1.287 . S
C1571 C1572 1.524 . S
C1571 H1574 0.999 . S
C1572 H1542 0.950 . S
C1572 C1571 1.524 . S
C1572 C1573 1.415 . S
C1573 H1543 0.950 . S
C1573 C1568 1.363 . S
C1573 C1572 1.415 . S
H1574 C1571 0.999 . S
H1575 C1556 0.913 . S
H1576 C1594 0.951 . S
H1577 C1596 0.951 . S
H1578 C1598 0.950 . S
H1579 C1599 0.950 . S
H1580 C1601 0.950 . S
H1581 C1604 0.950 . S
H1582 C1605 0.950 . S
H1583 C1607 0.950 . S
H1584 C1608 0.950 . S
H1585 C1609 0.951 . S
H1586 C1611 0.951 . S
H1587 C1613 0.950 . S
H1588 C1614 0.950 . S
H1589 C1616 0.948 1_655 S
H1590 C1619 0.950 . S
H1591 C1620 0.950 . S
H1592 C1622 0.950 . S
H1593 C1623 0.950 1_455 S
C1594 H1576 0.951 . S
C1594 C1595 1.366 . S
C1594 C1596 1.388 . S
C1595 C1594 1.366 . S
C1595 C1599 1.385 . S
C1596 H1577 0.951 . S
C1596 C1594 1.388 . S
C1596 C1597 1.366 . S
C1597 C1596 1.366 . S
C1597 C1598 1.414 . S
C1597 C1600 1.499 . S
C1598 H1578 0.950 . S
C1598 C1597 1.414 . S
C1598 C1599 1.374 . S
C1599 H1579 0.950 . S
C1599 C1595 1.385 . S
C1599 C1598 1.374 . S
C1600 C1597 1.499 . S
C1600 C1601 1.373 . S
C1600 C1602 1.389 . S
C1601 H1580 0.950 . S
C1601 C1600 1.373 . S
C1601 C1617 1.377 . S
C1602 C1600 1.389 . S
C1602 C1603 1.524 . S
C1602 C1616 1.380 . S
C1603 C1602 1.524 . S
C1603 C1604 1.397 . S
C1603 C1608 1.363 . S
C1604 H1581 0.950 . S
C1604 C1603 1.397 . S
C1604 C1605 1.334 . S
C1605 H1582 0.950 . S
C1605 C1604 1.334 . S
C1605 C1606 1.287 . S
C1606 C1605 1.287 . S
C1606 C1607 1.524 . S
C1606 H1625 0.913 . S
C1607 H1583 0.950 . S
C1607 C1606 1.524 . S
C1607 C1608 1.415 . S
C1608 H1584 0.950 . S
C1608 C1603 1.363 . S
C1608 C1607 1.415 . S
C1609 H1585 0.951 . S
C1609 C1610 1.366 . S
C1609 C1611 1.388 . S
C1610 C1609 1.366 . S
C1610 C1614 1.385 . S
C1611 H1586 0.951 . S
C1611 C1609 1.388 . S
C1611 C1612 1.366 . S
C1612 C1611 1.366 . S
C1612 C1613 1.414 . S
C1612 C1615 1.499 . S
C1613 H1587 0.950 . S
C1613 C1612 1.414 . S
C1613 C1614 1.374 . S
C1614 H1588 0.950 . S
C1614 C1610 1.385 . S
C1614 C1613 1.374 . S
C1615 C1612 1.499 . S
C1615 C1616 1.372 1_655 S
C1615 C1617 1.389 1_655 S
C1616 H1589 0.948 1_455 S
C1616 C1602 1.380 . S
C1616 C1615 1.372 1_455 S
C1617 C1601 1.377 . S
C1617 C1615 1.389 1_455 S
C1617 C1618 1.524 1_455 S
C1618 C1617 1.524 1_655 S
C1618 C1619 1.397 . S
C1618 C1623 1.363 . S
C1619 H1590 0.950 . S
C1619 C1618 1.397 . S
C1619 C1620 1.334 . S
C1620 H1591 0.950 . S
C1620 C1619 1.334 . S
C1620 C1621 1.287 . S
C1621 C1620 1.287 . S
C1621 C1622 1.524 . S
C1621 H1624 0.999 . S
C1622 H1592 0.950 . S
C1622 C1621 1.524 . S
C1622 C1623 1.415 . S
C1623 H1593 0.950 1_655 S
C1623 C1618 1.363 . S
C1623 C1622 1.415 . S
H1624 C1621 0.999 . S
H1625 C1606 0.913 . S
H1626 C1644 0.951 . S
H1627 C1646 0.951 . S
H1628 C1648 0.950 . S
H1629 C1649 0.950 . S
H1630 C1651 0.950 . S
H1631 C1654 0.950 . S
H1632 C1655 0.950 . S
H1633 C1657 0.950 . S
H1634 C1658 0.950 . S
H1635 C1659 0.951 . S
H1636 C1661 0.951 . S
H1637 C1663 0.950 . S
H1638 C1664 0.950 . S
H1639 C1666 0.950 . S
H1640 C1669 0.950 . S
H1641 C1670 0.950 . S
H1642 C1672 0.950 . S
H1643 C1673 0.950 . S
C1644 H1626 0.951 . S
C1644 C1645 1.366 . S
C1644 C1646 1.388 . S
C1645 C1644 1.366 . S
C1645 C1649 1.385 . S
C1646 H1627 0.951 . S
C1646 C1644 1.388 . S
C1646 C1647 1.366 . S
C1647 C1646 1.366 . S
C1647 C1648 1.414 . S
C1647 C1650 1.499 . S
C1648 H1628 0.950 . S
C1648 C1647 1.414 . S
C1648 C1649 1.374 . S
C1649 H1629 0.950 . S
C1649 C1645 1.385 . S
C1649 C1648 1.374 . S
C1650 C1647 1.499 . S
C1650 C1651 1.373 . S
C1650 C1652 1.389 . S
C1651 H1630 0.950 . S
C1651 C1650 1.373 . S
C1651 C1667 1.377 . S
C1652 C1650 1.389 . S
C1652 C1653 1.524 . S
C1652 C1666 1.377 . S
C1653 C1652 1.524 . S
C1653 C1654 1.397 . S
C1653 C1658 1.363 . S
C1654 H1631 0.950 . S
C1654 C1653 1.397 . S
C1654 C1655 1.334 . S
C1655 H1632 0.950 . S
C1655 C1654 1.334 . S
C1655 C1656 1.287 . S
C1656 C1655 1.287 . S
C1656 C1657 1.524 . S
C1656 H1675 0.913 . S
C1657 H1633 0.950 . S
C1657 C1656 1.524 . S
C1657 C1658 1.415 . S
C1658 H1634 0.950 . S
C1658 C1653 1.363 . S
C1658 C1657 1.415 . S
C1659 H1635 0.951 . S
C1659 C1660 1.366 . S
C1659 C1661 1.388 . S
C1660 C1659 1.366 . S
C1660 C1664 1.385 . S
C1661 H1636 0.951 . S
C1661 C1659 1.388 . S
C1661 C1662 1.366 . S
C1662 C1661 1.366 . S
C1662 C1663 1.414 . S
C1662 C1665 1.499 . S
C1663 H1637 0.950 . S
C1663 C1662 1.414 . S
C1663 C1664 1.374 . S
C1664 H1638 0.950 . S
C1664 C1660 1.385 . S
C1664 C1663 1.374 . S
C1665 C1662 1.499 . S
C1665 C1666 1.373 . S
C1665 C1667 1.389 . S
C1666 H1639 0.950 . S
C1666 C1652 1.377 . S
C1666 C1665 1.373 . S
C1667 C1651 1.377 . S
C1667 C1665 1.389 . S
C1667 C1668 1.524 . S
C1668 C1667 1.524 . S
C1668 C1669 1.397 . S
C1668 C1673 1.363 . S
C1669 H1640 0.950 . S
C1669 C1668 1.397 . S
C1669 C1670 1.334 . S
C1670 H1641 0.950 . S
C1670 C1669 1.334 . S
C1670 C1671 1.287 . S
C1671 C1670 1.287 . S
C1671 C1672 1.524 . S
C1671 H1674 0.999 . S
C1672 H1642 0.950 . S
C1672 C1671 1.524 . S
C1672 C1673 1.415 . S
C1673 H1643 0.950 . S
C1673 C1668 1.363 . S
C1673 C1672 1.415 . S
H1674 C1671 0.999 . S
H1675 C1656 0.913 . S
H1676 C1694 0.951 . S
H1677 C1696 0.951 . S
H1678 C1698 0.950 . S
H1679 C1699 0.950 . S
H1680 C1701 0.950 . S
H1681 C1704 0.950 . S
H1682 C1705 0.950 . S
H1683 C1707 0.950 1_554 S
H1684 C1708 0.950 . S
H1685 C1709 0.951 . S
H1686 C1711 0.951 . S
H1687 C1713 0.950 . S
H1688 C1714 0.950 . S
H1689 C1716 0.936 1_655 S
H1690 C1719 0.950 . S
H1691 C1720 0.950 . S
H1692 C1722 0.950 . S
H1693 C1723 0.950 1_455 S
C1694 H1676 0.951 . S
C1694 C1695 1.366 . S
C1694 C1696 1.388 . S
C1695 C1694 1.366 . S
C1695 C1699 1.385 . S
C1696 H1677 0.951 . S
C1696 C1694 1.388 . S
C1696 C1697 1.366 . S
C1697 C1696 1.366 . S
C1697 C1698 1.414 . S
C1697 C1700 1.499 . S
C1698 H1678 0.950 . S
C1698 C1697 1.414 . S
C1698 C1699 1.374 . S
C1699 H1679 0.950 . S
C1699 C1695 1.385 . S
C1699 C1698 1.374 . S
C1700 C1697 1.499 . S
C1700 C1701 1.373 . S
C1700 C1702 1.389 . S
C1701 H1680 0.950 . S
C1701 C1700 1.373 . S
C1701 C1717 1.377 . S
C1702 C1700 1.389 . S
C1702 C1703 1.524 . S
C1702 C1716 1.405 . S
C1703 C1702 1.524 . S
C1703 C1704 1.397 . S
C1703 C1708 1.363 . S
C1704 H1681 0.950 . S
C1704 C1703 1.397 . S
C1704 C1705 1.334 . S
C1705 H1682 0.950 . S
C1705 C1704 1.334 . S
C1705 C1706 1.287 1_556 S
C1706 C1705 1.287 1_554 S
C1706 C1707 1.524 1_554 S
C1706 H1725 0.913 . S
C1707 H1683 0.950 1_556 S
C1707 C1706 1.524 1_556 S
C1707 C1708 1.415 . S
C1708 H1684 0.950 . S
C1708 C1703 1.363 . S
C1708 C1707 1.415 . S
C1709 H1685 0.951 . S
C1709 C1710 1.366 . S
C1709 C1711 1.388 . S
C1710 C1709 1.366 . S
C1710 C1714 1.385 . S
C1711 H1686 0.951 . S
C1711 C1709 1.388 . S
C1711 C1712 1.366 . S
C1712 C1711 1.366 . S
C1712 C1713 1.414 . S
C1712 C1715 1.499 . S
C1713 H1687 0.950 . S
C1713 C1712 1.414 . S
C1713 C1714 1.374 . S
C1714 H1688 0.950 . S
C1714 C1710 1.385 . S
C1714 C1713 1.374 . S
C1715 C1712 1.499 . S
C1715 C1716 1.360 1_655 S
C1715 C1717 1.389 1_655 S
C1716 H1689 0.936 1_455 S
C1716 C1702 1.405 . S
C1716 C1715 1.360 1_455 S
C1717 C1701 1.377 . S
C1717 C1715 1.389 1_455 S
C1717 C1718 1.524 1_455 S
C1718 C1717 1.524 1_655 S
C1718 C1719 1.397 . S
C1718 C1723 1.363 . S
C1719 H1690 0.950 . S
C1719 C1718 1.397 . S
C1719 C1720 1.334 . S
C1720 H1691 0.950 . S
C1720 C1719 1.334 . S
C1720 C1721 1.287 . S
C1721 C1720 1.287 . S
C1721 C1722 1.524 . S
C1721 H1724 0.999 . S
C1722 H1692 0.950 . S
C1722 C1721 1.524 . S
C1722 C1723 1.415 . S
C1723 H1693 0.950 1_655 S
C1723 C1718 1.363 . S
C1723 C1722 1.415 . S
H1724 C1721 0.999 . S
H1725 C1706 0.913 . S
H1726 C1744 0.951 . S
H1727 C1746 0.951 . S
H1728 C1748 0.950 . S
H1729 C1749 0.950 . S
H1730 C1751 0.950 . S
H1731 C1754 0.950 . S
H1732 C1755 0.950 . S
H1733 C1757 0.950 . S
H1734 C1758 0.950 . S
H1735 C1759 0.951 . S
H1736 C1761 0.951 . S
H1737 C1763 0.950 . S
H1738 C1764 0.950 . S
H1739 C1766 0.950 . S
H1740 C1769 0.950 . S
H1741 C1770 0.950 . S
H1742 C1772 0.950 . S
H1743 C1773 0.950 . S
C1744 H1726 0.951 . S
C1744 C1745 1.366 . S
C1744 C1746 1.388 . S
C1745 C1744 1.366 . S
C1745 C1749 1.385 . S
C1746 H1727 0.951 . S
C1746 C1744 1.388 . S
C1746 C1747 1.366 . S
C1747 C1746 1.366 . S
C1747 C1748 1.414 . S
C1747 C1750 1.499 . S
C1748 H1728 0.950 . S
C1748 C1747 1.414 . S
C1748 C1749 1.374 . S
C1749 H1729 0.950 . S
C1749 C1745 1.385 . S
C1749 C1748 1.374 . S
C1750 C1747 1.499 . S
C1750 C1751 1.373 . S
C1750 C1752 1.389 . S
C1751 H1730 0.950 . S
C1751 C1750 1.373 . S
C1751 C1767 1.377 . S
C1752 C1750 1.389 . S
C1752 C1753 1.524 . S
C1752 C1766 1.377 . S
C1753 C1752 1.524 . S
C1753 C1754 1.397 . S
C1753 C1758 1.363 . S
C1754 H1731 0.950 . S
C1754 C1753 1.397 . S
C1754 C1755 1.334 . S
C1755 H1732 0.950 . S
C1755 C1754 1.334 . S
C1755 C1756 1.287 . S
C1756 C1755 1.287 . S
C1756 C1757 1.524 . S
C1756 H1775 0.913 . S
C1757 H1733 0.950 . S
C1757 C1756 1.524 . S
C1757 C1758 1.415 . S
C1758 H1734 0.950 . S
C1758 C1753 1.363 . S
C1758 C1757 1.415 . S
C1759 H1735 0.951 . S
C1759 C1760 1.366 . S
C1759 C1761 1.388 . S
C1760 C1759 1.366 . S
C1760 C1764 1.385 . S
C1761 H1736 0.951 . S
C1761 C1759 1.388 . S
C1761 C1762 1.366 . S
C1762 C1761 1.366 . S
C1762 C1763 1.414 . S
C1762 C1765 1.499 . S
C1763 H1737 0.950 . S
C1763 C1762 1.414 . S
C1763 C1764 1.374 . S
C1764 H1738 0.950 . S
C1764 C1760 1.385 . S
C1764 C1763 1.374 . S
C1765 C1762 1.499 . S
C1765 C1766 1.373 . S
C1765 C1767 1.389 . S
C1766 H1739 0.950 . S
C1766 C1752 1.377 . S
C1766 C1765 1.373 . S
C1767 C1751 1.377 . S
C1767 C1765 1.389 . S
C1767 C1768 1.524 . S
C1768 C1767 1.524 . S
C1768 C1769 1.397 . S
C1768 C1773 1.363 . S
C1769 H1740 0.950 . S
C1769 C1768 1.397 . S
C1769 C1770 1.334 . S
C1770 H1741 0.950 . S
C1770 C1769 1.334 . S
C1770 C1771 1.287 . S
C1771 C1770 1.287 . S
C1771 C1772 1.524 . S
C1771 H1774 0.999 . S
C1772 H1742 0.950 . S
C1772 C1771 1.524 . S
C1772 C1773 1.415 . S
C1773 H1743 0.950 . S
C1773 C1768 1.363 . S
C1773 C1772 1.415 . S
H1774 C1771 0.999 . S
H1775 C1756 0.913 . S
H1776 C1794 0.951 . S
H1777 C1796 0.951 . S
H1778 C1798 0.950 . S
H1779 C1799 0.950 . S
H1780 C1801 0.950 . S
H1781 C1804 0.950 . S
H1782 C1805 0.950 . S
H1783 C1807 0.950 . S
H1784 C1808 0.950 . S
H1785 C1809 0.951 . S
H1786 C1811 0.951 . S
H1787 C1813 0.950 . S
H1788 C1814 0.950 . S
H1789 C1816 0.950 . S
H1790 C1819 0.950 . S
H1791 C1820 0.950 . S
H1792 C1822 0.950 . S
H1793 C1823 0.950 . S
C1794 H1776 0.951 . S
C1794 C1795 1.366 . S
C1794 C1796 1.388 . S
C1795 C1794 1.366 . S
C1795 C1799 1.385 . S
C1796 H1777 0.951 . S
C1796 C1794 1.388 . S
C1796 C1797 1.366 . S
C1797 C1796 1.366 . S
C1797 C1798 1.414 . S
C1797 C1800 1.499 . S
C1798 H1778 0.950 . S
C1798 C1797 1.414 . S
C1798 C1799 1.374 . S
C1799 H1779 0.950 . S
C1799 C1795 1.385 . S
C1799 C1798 1.374 . S
C1800 C1797 1.499 . S
C1800 C1801 1.373 . S
C1800 C1802 1.389 . S
C1801 H1780 0.950 . S
C1801 C1800 1.373 . S
C1801 C1817 1.377 . S
C1802 C1800 1.389 . S
C1802 C1803 1.524 . S
C1802 C1816 1.377 . S
C1803 C1802 1.524 . S
C1803 C1804 1.397 . S
C1803 C1808 1.363 . S
C1804 H1781 0.950 . S
C1804 C1803 1.397 . S
C1804 C1805 1.334 . S
C1805 H1782 0.950 . S
C1805 C1804 1.334 . S
C1805 C1806 1.287 . S
C1806 C1805 1.287 . S
C1806 C1807 1.524 . S
C1806 H1825 0.913 . S
C1807 H1783 0.950 . S
C1807 C1806 1.524 . S
C1807 C1808 1.415 . S
C1808 H1784 0.950 . S
C1808 C1803 1.363 . S
C1808 C1807 1.415 . S
C1809 H1785 0.951 . S
C1809 C1810 1.366 . S
C1809 C1811 1.388 . S
C1810 C1809 1.366 . S
C1810 C1814 1.385 . S
C1811 H1786 0.951 . S
C1811 C1809 1.388 . S
C1811 C1812 1.366 . S
C1812 C1811 1.366 . S
C1812 C1813 1.414 . S
C1812 C1815 1.499 . S
C1813 H1787 0.950 . S
C1813 C1812 1.414 . S
C1813 C1814 1.374 . S
C1814 H1788 0.950 . S
C1814 C1810 1.385 . S
C1814 C1813 1.374 . S
C1815 C1812 1.499 . S
C1815 C1816 1.373 . S
C1815 C1817 1.389 . S
C1816 H1789 0.950 . S
C1816 C1802 1.377 . S
C1816 C1815 1.373 . S
C1817 C1801 1.377 . S
C1817 C1815 1.389 . S
C1817 C1818 1.524 . S
C1818 C1817 1.524 . S
C1818 C1819 1.397 . S
C1818 C1823 1.363 . S
C1819 H1790 0.950 . S
C1819 C1818 1.397 . S
C1819 C1820 1.334 . S
C1820 H1791 0.950 . S
C1820 C1819 1.334 . S
C1820 C1821 1.287 . S
C1821 C1820 1.287 . S
C1821 C1822 1.524 . S
C1821 H1824 0.999 . S
C1822 H1792 0.950 . S
C1822 C1821 1.524 . S
C1822 C1823 1.415 . S
C1823 H1793 0.950 . S
C1823 C1818 1.363 . S
C1823 C1822 1.415 . S
H1824 C1821 0.999 . S
H1825 C1806 0.913 . S
H1826 C1844 0.951 . S
H1827 C1846 0.951 . S
H1828 C1848 0.950 . S
H1829 C1849 0.950 . S
H1830 C1851 0.950 . S
H1831 C1854 0.950 . S
H1832 C1855 0.950 . S
H1833 C1857 0.950 . S
H1834 C1858 0.950 . S
H1835 C1859 0.951 . S
H1836 C1861 0.951 . S
H1837 C1863 0.950 . S
H1838 C1864 0.950 . S
H1839 C1866 0.950 . S
H1840 C1869 0.950 . S
H1841 C1870 0.950 . S
H1842 C1872 0.950 . S
H1843 C1873 0.950 . S
C1844 H1826 0.951 . S
C1844 C1845 1.366 . S
C1844 C1846 1.388 . S
C1845 C1844 1.366 . S
C1845 C1849 1.385 . S
C1846 H1827 0.951 . S
C1846 C1844 1.388 . S
C1846 C1847 1.366 . S
C1847 C1846 1.366 . S
C1847 C1848 1.414 . S
C1847 C1850 1.499 . S
C1848 H1828 0.950 . S
C1848 C1847 1.414 . S
C1848 C1849 1.374 . S
C1849 H1829 0.950 . S
C1849 C1845 1.385 . S
C1849 C1848 1.374 . S
C1850 C1847 1.499 . S
C1850 C1851 1.373 . S
C1850 C1852 1.389 . S
C1851 H1830 0.950 . S
C1851 C1850 1.373 . S
C1851 C1867 1.377 . S
C1852 C1850 1.389 . S
C1852 C1853 1.524 . S
C1852 C1866 1.377 . S
C1853 C1852 1.524 . S
C1853 C1854 1.397 . S
C1853 C1858 1.363 . S
C1854 H1831 0.950 . S
C1854 C1853 1.397 . S
C1854 C1855 1.334 . S
C1855 H1832 0.950 . S
C1855 C1854 1.334 . S
C1855 C1856 1.287 . S
C1856 C1855 1.287 . S
C1856 C1857 1.524 . S
C1856 H1875 0.913 . S
C1857 H1833 0.950 . S
C1857 C1856 1.524 . S
C1857 C1858 1.415 . S
C1858 H1834 0.950 . S
C1858 C1853 1.363 . S
C1858 C1857 1.415 . S
C1859 H1835 0.951 . S
C1859 C1860 1.366 . S
C1859 C1861 1.388 . S
C1860 C1859 1.366 . S
C1860 C1864 1.385 . S
C1861 H1836 0.951 . S
C1861 C1859 1.388 . S
C1861 C1862 1.366 . S
C1862 C1861 1.366 . S
C1862 C1863 1.414 . S
C1862 C1865 1.499 . S
C1863 H1837 0.950 . S
C1863 C1862 1.414 . S
C1863 C1864 1.374 . S
C1864 H1838 0.950 . S
C1864 C1860 1.385 . S
C1864 C1863 1.374 . S
C1865 C1862 1.499 . S
C1865 C1866 1.373 . S
C1865 C1867 1.389 . S
C1866 H1839 0.950 . S
C1866 C1852 1.377 . S
C1866 C1865 1.373 . S
C1867 C1851 1.377 . S
C1867 C1865 1.389 . S
C1867 C1868 1.524 . S
C1868 C1867 1.524 . S
C1868 C1869 1.397 . S
C1868 C1873 1.363 . S
C1869 H1840 0.950 . S
C1869 C1868 1.397 . S
C1869 C1870 1.334 . S
C1870 H1841 0.950 . S
C1870 C1869 1.334 . S
C1870 C1871 1.287 . S
C1871 C1870 1.287 . S
C1871 C1872 1.524 . S
C1871 H1874 0.999 . S
C1872 H1842 0.950 . S
C1872 C1871 1.524 . S
C1872 C1873 1.415 . S
C1873 H1843 0.950 . S
C1873 C1868 1.363 . S
C1873 C1872 1.415 . S
H1874 C1871 0.999 . S
H1875 C1856 0.913 . S
H1876 C1894 0.951 . S
H1877 C1896 0.951 . S
H1878 C1898 0.950 . S
H1879 C1899 0.950 . S
H1880 C1901 0.950 . S
H1881 C1904 0.950 . S
H1882 C1905 0.950 . S
H1883 C1907 0.950 . S
H1884 C1908 0.950 . S
H1885 C1909 0.951 . S
H1886 C1911 0.951 . S
H1887 C1913 0.950 . S
H1888 C1914 0.950 . S
H1889 C1916 0.950 . S
H1890 C1919 0.950 . S
H1891 C1920 0.950 . S
H1892 C1922 0.950 . S
H1893 C1923 0.950 . S
C1894 H1876 0.951 . S
C1894 C1895 1.366 . S
C1894 C1896 1.388 . S
C1895 C1894 1.366 . S
C1895 C1899 1.385 . S
C1896 H1877 0.951 . S
C1896 C1894 1.388 . S
C1896 C1897 1.366 . S
C1897 C1896 1.366 . S
C1897 C1898 1.414 . S
C1897 C1900 1.499 . S
C1898 H1878 0.950 . S
C1898 C1897 1.414 . S
C1898 C1899 1.374 . S
C1899 H1879 0.950 . S
C1899 C1895 1.385 . S
C1899 C1898 1.374 . S
C1900 C1897 1.499 . S
C1900 C1901 1.373 . S
C1900 C1902 1.389 . S
C1901 H1880 0.950 . S
C1901 C1900 1.373 . S
C1901 C1917 1.377 . S
C1902 C1900 1.389 . S
C1902 C1903 1.524 . S
C1902 C1916 1.377 . S
C1903 C1902 1.524 . S
C1903 C1904 1.397 . S
C1903 C1908 1.363 . S
C1904 H1881 0.950 . S
C1904 C1903 1.397 . S
C1904 C1905 1.334 . S
C1905 H1882 0.950 . S
C1905 C1904 1.334 . S
C1905 C1906 1.287 . S
C1906 C1905 1.287 . S
C1906 C1907 1.524 . S
C1906 H1925 0.913 . S
C1907 H1883 0.950 . S
C1907 C1906 1.524 . S
C1907 C1908 1.415 . S
C1908 H1884 0.950 . S
C1908 C1903 1.363 . S
C1908 C1907 1.415 . S
C1909 H1885 0.951 . S
C1909 C1910 1.366 . S
C1909 C1911 1.388 . S
C1910 C1909 1.366 . S
C1910 C1914 1.385 . S
C1911 H1886 0.951 . S
C1911 C1909 1.388 . S
C1911 C1912 1.366 . S
C1912 C1911 1.366 . S
C1912 C1913 1.414 . S
C1912 C1915 1.499 . S
C1913 H1887 0.950 . S
C1913 C1912 1.414 . S
C1913 C1914 1.374 . S
C1914 H1888 0.950 . S
C1914 C1910 1.385 . S
C1914 C1913 1.374 . S
C1915 C1912 1.499 . S
C1915 C1916 1.373 . S
C1915 C1917 1.389 . S
C1916 H1889 0.950 . S
C1916 C1902 1.377 . S
C1916 C1915 1.373 . S
C1917 C1901 1.377 . S
C1917 C1915 1.389 . S
C1917 C1918 1.524 . S
C1918 C1917 1.524 . S
C1918 C1919 1.397 . S
C1918 C1923 1.363 . S
C1919 H1890 0.950 . S
C1919 C1918 1.397 . S
C1919 C1920 1.334 . S
C1920 H1891 0.950 . S
C1920 C1919 1.334 . S
C1920 C1921 1.287 . S
C1921 C1920 1.287 . S
C1921 C1922 1.524 . S
C1921 H1924 0.999 . S
C1922 H1892 0.950 . S
C1922 C1921 1.524 . S
C1922 C1923 1.415 . S
C1923 H1893 0.950 . S
C1923 C1918 1.363 . S
C1923 C1922 1.415 . S
H1924 C1921 0.999 . S
H1925 C1906 0.913 . S
H1926 C1944 0.951 . S
H1927 C1946 0.951 . S
H1928 C1948 0.950 . S
H1929 C1949 0.950 . S
H1930 C1951 0.950 . S
H1931 C1954 0.950 . S
H1932 C1955 0.950 . S
H1933 C1957 0.950 . S
H1934 C1958 0.950 . S
H1935 C1959 0.951 . S
H1936 C1961 0.951 . S
H1937 C1963 0.950 . S
H1938 C1964 0.950 . S
H1939 C1966 0.950 . S
H1940 C1969 0.950 . S
H1941 C1970 0.950 . S
H1942 C1972 0.950 . S
H1943 C1973 0.950 . S
C1944 H1926 0.951 . S
C1944 C1945 1.366 . S
C1944 C1946 1.388 . S
C1945 C1944 1.366 . S
C1945 C1949 1.385 . S
C1946 H1927 0.951 . S
C1946 C1944 1.388 . S
C1946 C1947 1.366 . S
C1947 C1946 1.366 . S
C1947 C1948 1.414 . S
C1947 C1950 1.499 . S
C1948 H1928 0.950 . S
C1948 C1947 1.414 . S
C1948 C1949 1.374 . S
C1949 H1929 0.950 . S
C1949 C1945 1.385 . S
C1949 C1948 1.374 . S
C1950 C1947 1.499 . S
C1950 C1951 1.373 . S
C1950 C1952 1.389 . S
C1951 H1930 0.950 . S
C1951 C1950 1.373 . S
C1951 C1967 1.377 . S
C1952 C1950 1.389 . S
C1952 C1953 1.524 . S
C1952 C1966 1.377 . S
C1953 C1952 1.524 . S
C1953 C1954 1.397 . S
C1953 C1958 1.363 . S
C1954 H1931 0.950 . S
C1954 C1953 1.397 . S
C1954 C1955 1.334 . S
C1955 H1932 0.950 . S
C1955 C1954 1.334 . S
C1955 C1956 1.287 . S
C1956 C1955 1.287 . S
C1956 C1957 1.524 . S
C1956 H1975 0.913 . S
C1957 H1933 0.950 . S
C1957 C1956 1.524 . S
C1957 C1958 1.415 . S
C1958 H1934 0.950 . S
C1958 C1953 1.363 . S
C1958 C1957 1.415 . S
C1959 H1935 0.951 . S
C1959 C1960 1.366 . S
C1959 C1961 1.388 . S
C1960 C1959 1.366 . S
C1960 C1964 1.385 . S
C1961 H1936 0.951 . S
C1961 C1959 1.388 . S
C1961 C1962 1.366 . S
C1962 C1961 1.366 . S
C1962 C1963 1.414 . S
C1962 C1965 1.499 . S
C1963 H1937 0.950 . S
C1963 C1962 1.414 . S
C1963 C1964 1.374 . S
C1964 H1938 0.950 . S
C1964 C1960 1.385 . S
C1964 C1963 1.374 . S
C1965 C1962 1.499 . S
C1965 C1966 1.373 . S
C1965 C1967 1.389 . S
C1966 H1939 0.950 . S
C1966 C1952 1.377 . S
C1966 C1965 1.373 . S
C1967 C1951 1.377 . S
C1967 C1965 1.389 . S
C1967 C1968 1.524 . S
C1968 C1967 1.524 . S
C1968 C1969 1.397 . S
C1968 C1973 1.363 . S
C1969 H1940 0.950 . S
C1969 C1968 1.397 . S
C1969 C1970 1.334 . S
C1970 H1941 0.950 . S
C1970 C1969 1.334 . S
C1970 C1971 1.287 . S
C1971 C1970 1.287 . S
C1971 C1972 1.524 . S
C1971 H1974 0.999 . S
C1972 H1942 0.950 . S
C1972 C1971 1.524 . S
C1972 C1973 1.415 . S
C1973 H1943 0.950 . S
C1973 C1968 1.363 . S
C1973 C1972 1.415 . S
H1974 C1971 0.999 . S
H1975 C1956 0.913 . S
H1976 C1994 0.951 . S
H1977 C1996 0.951 . S
H1978 C1998 0.950 . S
H1979 C1999 0.950 . S
H1980 C2001 0.950 . S
H1981 C2004 0.950 . S
H1982 C2005 0.950 . S
H1983 C2007 0.950 . S
H1984 C2008 0.950 . S
H1985 C2009 0.951 . S
H1986 C2011 0.951 . S
H1987 C2013 0.950 . S
H1988 C2014 0.950 . S
H1989 C2016 0.950 . S
H1990 C2019 0.950 . S
H1991 C2020 0.950 . S
H1992 C2022 0.950 . S
H1993 C2023 0.950 . S
C1994 H1976 0.951 . S
C1994 C1995 1.366 . S
C1994 C1996 1.388 . S
C1995 C1994 1.366 . S
C1995 C1999 1.385 . S
C1996 H1977 0.951 . S
C1996 C1994 1.388 . S
C1996 C1997 1.366 . S
C1997 C1996 1.366 . S
C1997 C1998 1.414 . S
C1997 C2000 1.499 . S
C1998 H1978 0.950 . S
C1998 C1997 1.414 . S
C1998 C1999 1.374 . S
C1999 H1979 0.950 . S
C1999 C1995 1.385 . S
C1999 C1998 1.374 . S
C2000 C1997 1.499 . S
C2000 C2001 1.373 . S
C2000 C2002 1.389 . S
C2001 H1980 0.950 . S
C2001 C2000 1.373 . S
C2001 C2017 1.377 . S
C2002 C2000 1.389 . S
C2002 C2003 1.524 . S
C2002 C2016 1.377 . S
C2003 C2002 1.524 . S
C2003 C2004 1.397 . S
C2003 C2008 1.363 . S
C2004 H1981 0.950 . S
C2004 C2003 1.397 . S
C2004 C2005 1.334 . S
C2005 H1982 0.950 . S
C2005 C2004 1.334 . S
C2005 C2006 1.287 . S
C2006 C2005 1.287 . S
C2006 C2007 1.524 . S
C2006 H2025 0.913 . S
C2007 H1983 0.950 . S
C2007 C2006 1.524 . S
C2007 C2008 1.415 . S
C2008 H1984 0.950 . S
C2008 C2003 1.363 . S
C2008 C2007 1.415 . S
C2009 H1985 0.951 . S
C2009 C2010 1.366 . S
C2009 C2011 1.388 . S
C2010 C2009 1.366 . S
C2010 C2014 1.385 . S
C2011 H1986 0.951 . S
C2011 C2009 1.388 . S
C2011 C2012 1.366 . S
C2012 C2011 1.366 . S
C2012 C2013 1.414 . S
C2012 C2015 1.499 . S
C2013 H1987 0.950 . S
C2013 C2012 1.414 . S
C2013 C2014 1.374 . S
C2014 H1988 0.950 . S
C2014 C2010 1.385 . S
C2014 C2013 1.374 . S
C2015 C2012 1.499 . S
C2015 C2016 1.373 . S
C2015 C2017 1.389 . S
C2016 H1989 0.950 . S
C2016 C2002 1.377 . S
C2016 C2015 1.373 . S
C2017 C2001 1.377 . S
C2017 C2015 1.389 . S
C2017 C2018 1.524 . S
C2018 C2017 1.524 . S
C2018 C2019 1.397 . S
C2018 C2023 1.363 . S
C2019 H1990 0.950 . S
C2019 C2018 1.397 . S
C2019 C2020 1.334 . S
C2020 H1991 0.950 . S
C2020 C2019 1.334 . S
C2020 C2021 1.287 . S
C2021 C2020 1.287 . S
C2021 C2022 1.524 . S
C2021 H2024 0.999 . S
C2022 H1992 0.950 . S
C2022 C2021 1.524 . S
C2022 C2023 1.415 . S
C2023 H1993 0.950 . S
C2023 C2018 1.363 . S
C2023 C2022 1.415 . S
H2024 C2021 0.999 . S
H2025 C2006 0.913 . S
H2026 C2044 0.951 . S
H2027 C2046 0.951 . S
H2028 C2048 0.950 . S
H2029 C2049 0.950 . S
H2030 C2051 0.950 . S
H2031 C2054 0.950 . S
H2032 C2055 0.950 . S
H2033 C2057 0.950 . S
H2034 C2058 0.950 . S
H2035 C2059 0.951 . S
H2036 C2061 0.951 . S
H2037 C2063 0.950 . S
H2038 C2064 0.950 . S
H2039 C2066 0.950 . S
H2040 C2069 0.950 . S
H2041 C2070 0.950 . S
H2042 C2072 0.950 . S
H2043 C2073 0.950 . S
C2044 H2026 0.951 . S
C2044 C2045 1.366 . S
C2044 C2046 1.388 . S
C2045 C2044 1.366 . S
C2045 C2049 1.385 . S
C2046 H2027 0.951 . S
C2046 C2044 1.388 . S
C2046 C2047 1.366 . S
C2047 C2046 1.366 . S
C2047 C2048 1.414 . S
C2047 C2050 1.499 . S
C2048 H2028 0.950 . S
C2048 C2047 1.414 . S
C2048 C2049 1.374 . S
C2049 H2029 0.950 . S
C2049 C2045 1.385 . S
C2049 C2048 1.374 . S
C2050 C2047 1.499 . S
C2050 C2051 1.373 . S
C2050 C2052 1.389 . S
C2051 H2030 0.950 . S
C2051 C2050 1.373 . S
C2051 C2067 1.377 . S
C2052 C2050 1.389 . S
C2052 C2053 1.524 . S
C2052 C2066 1.377 . S
C2053 C2052 1.524 . S
C2053 C2054 1.397 . S
C2053 C2058 1.363 . S
C2054 H2031 0.950 . S
C2054 C2053 1.397 . S
C2054 C2055 1.334 . S
C2055 H2032 0.950 . S
C2055 C2054 1.334 . S
C2055 C2056 1.287 . S
C2056 C2055 1.287 . S
C2056 C2057 1.524 . S
C2056 H2075 0.913 . S
C2057 H2033 0.950 . S
C2057 C2056 1.524 . S
C2057 C2058 1.415 . S
C2058 H2034 0.950 . S
C2058 C2053 1.363 . S
C2058 C2057 1.415 . S
C2059 H2035 0.951 . S
C2059 C2060 1.366 . S
C2059 C2061 1.388 . S
C2060 C2059 1.366 . S
C2060 C2064 1.385 . S
C2061 H2036 0.951 . S
C2061 C2059 1.388 . S
C2061 C2062 1.366 . S
C2062 C2061 1.366 . S
C2062 C2063 1.414 . S
C2062 C2065 1.499 . S
C2063 H2037 0.950 . S
C2063 C2062 1.414 . S
C2063 C2064 1.374 . S
C2064 H2038 0.950 . S
C2064 C2060 1.385 . S
C2064 C2063 1.374 . S
C2065 C2062 1.499 . S
C2065 C2066 1.373 . S
C2065 C2067 1.389 . S
C2066 H2039 0.950 . S
C2066 C2052 1.377 . S
C2066 C2065 1.373 . S
C2067 C2051 1.377 . S
C2067 C2065 1.389 . S
C2067 C2068 1.524 . S
C2068 C2067 1.524 . S
C2068 C2069 1.397 . S
C2068 C2073 1.363 . S
C2069 H2040 0.950 . S
C2069 C2068 1.397 . S
C2069 C2070 1.334 . S
C2070 H2041 0.950 . S
C2070 C2069 1.334 . S
C2070 C2071 1.287 . S
C2071 C2070 1.287 . S
C2071 C2072 1.524 . S
C2071 H2074 0.999 . S
C2072 H2042 0.950 . S
C2072 C2071 1.524 . S
C2072 C2073 1.415 . S
C2073 H2043 0.950 . S
C2073 C2068 1.363 . S
C2073 C2072 1.415 . S
H2074 C2071 0.999 . S
H2075 C2056 0.913 . S
H2076 C2094 0.951 . S
H2077 C2096 0.951 . S
H2078 C2098 0.950 . S
H2079 C2099 0.950 . S
H2080 C2101 0.950 . S
H2081 C2104 0.950 . S
H2082 C2105 0.950 . S
H2083 C2107 0.950 . S
H2084 C2108 0.950 . S
H2085 C2109 0.951 . S
H2086 C2111 0.951 . S
H2087 C2113 0.950 . S
H2088 C2114 0.950 . S
H2089 C2116 0.950 . S
H2090 C2119 0.950 . S
H2091 C2120 0.950 . S
H2092 C2122 0.950 . S
H2093 C2123 0.950 . S
C2094 H2076 0.951 . S
C2094 C2095 1.366 . S
C2094 C2096 1.388 . S
C2095 C2094 1.366 . S
C2095 C2099 1.385 . S
C2096 H2077 0.951 . S
C2096 C2094 1.388 . S
C2096 C2097 1.366 . S
C2097 C2096 1.366 . S
C2097 C2098 1.414 . S
C2097 C2100 1.499 . S
C2098 H2078 0.950 . S
C2098 C2097 1.414 . S
C2098 C2099 1.374 . S
C2099 H2079 0.950 . S
C2099 C2095 1.385 . S
C2099 C2098 1.374 . S
C2100 C2097 1.499 . S
C2100 C2101 1.373 . S
C2100 C2102 1.389 . S
C2101 H2080 0.950 . S
C2101 C2100 1.373 . S
C2101 C2117 1.377 . S
C2102 C2100 1.389 . S
C2102 C2103 1.524 . S
C2102 C2116 1.377 . S
C2103 C2102 1.524 . S
C2103 C2104 1.397 . S
C2103 C2108 1.363 . S
C2104 H2081 0.950 . S
C2104 C2103 1.397 . S
C2104 C2105 1.334 . S
C2105 H2082 0.950 . S
C2105 C2104 1.334 . S
C2105 C2106 1.287 . S
C2106 C2105 1.287 . S
C2106 C2107 1.524 . S
C2106 H2125 0.913 . S
C2107 H2083 0.950 . S
C2107 C2106 1.524 . S
C2107 C2108 1.415 . S
C2108 H2084 0.950 . S
C2108 C2103 1.363 . S
C2108 C2107 1.415 . S
C2109 H2085 0.951 . S
C2109 C2110 1.366 . S
C2109 C2111 1.388 . S
C2110 C2109 1.366 . S
C2110 C2114 1.385 . S
C2111 H2086 0.951 . S
C2111 C2109 1.388 . S
C2111 C2112 1.366 . S
C2112 C2111 1.366 . S
C2112 C2113 1.414 . S
C2112 C2115 1.499 . S
C2113 H2087 0.950 . S
C2113 C2112 1.414 . S
C2113 C2114 1.374 . S
C2114 H2088 0.950 . S
C2114 C2110 1.385 . S
C2114 C2113 1.374 . S
C2115 C2112 1.499 . S
C2115 C2116 1.373 . S
C2115 C2117 1.389 . S
C2116 H2089 0.950 . S
C2116 C2102 1.377 . S
C2116 C2115 1.373 . S
C2117 C2101 1.377 . S
C2117 C2115 1.389 . S
C2117 C2118 1.524 . S
C2118 C2117 1.524 . S
C2118 C2119 1.397 . S
C2118 C2123 1.363 . S
C2119 H2090 0.950 . S
C2119 C2118 1.397 . S
C2119 C2120 1.334 . S
C2120 H2091 0.950 . S
C2120 C2119 1.334 . S
C2120 C2121 1.287 . S
C2121 C2120 1.287 . S
C2121 C2122 1.524 . S
C2121 H2124 0.999 . S
C2122 H2092 0.950 . S
C2122 C2121 1.524 . S
C2122 C2123 1.415 . S
C2123 H2093 0.950 . S
C2123 C2118 1.363 . S
C2123 C2122 1.415 . S
H2124 C2121 0.999 . S
H2125 C2106 0.913 . S
H2126 C2144 0.951 . S
H2127 C2146 0.951 . S
H2128 C2148 0.950 . S
H2129 C2149 0.950 . S
H2130 C2151 0.950 . S
H2131 C2154 0.950 . S
H2132 C2155 0.950 . S
H2133 C2157 0.950 . S
H2134 C2158 0.950 . S
H2135 C2159 0.951 . S
H2136 C2161 0.951 . S
H2137 C2163 0.950 . S
H2138 C2164 0.950 . S
H2139 C2166 0.950 . S
H2140 C2169 0.950 . S
H2141 C2170 0.950 . S
H2142 C2172 0.950 . S
H2143 C2173 0.950 . S
C2144 H2126 0.951 . S
C2144 C2145 1.366 . S
C2144 C2146 1.388 . S
C2145 C2144 1.366 . S
C2145 C2149 1.385 . S
C2146 H2127 0.951 . S
C2146 C2144 1.388 . S
C2146 C2147 1.366 . S
C2147 C2146 1.366 . S
C2147 C2148 1.414 . S
C2147 C2150 1.499 . S
C2148 H2128 0.950 . S
C2148 C2147 1.414 . S
C2148 C2149 1.374 . S
C2149 H2129 0.950 . S
C2149 C2145 1.385 . S
C2149 C2148 1.374 . S
C2150 C2147 1.499 . S
C2150 C2151 1.373 . S
C2150 C2152 1.389 . S
C2151 H2130 0.950 . S
C2151 C2150 1.373 . S
C2151 C2167 1.377 . S
C2152 C2150 1.389 . S
C2152 C2153 1.524 . S
C2152 C2166 1.377 . S
C2153 C2152 1.524 . S
C2153 C2154 1.397 . S
C2153 C2158 1.363 . S
C2154 H2131 0.950 . S
C2154 C2153 1.397 . S
C2154 C2155 1.334 . S
C2155 H2132 0.950 . S
C2155 C2154 1.334 . S
C2155 C2156 1.287 . S
C2156 C2155 1.287 . S
C2156 C2157 1.524 . S
C2156 H2175 0.913 . S
C2157 H2133 0.950 . S
C2157 C2156 1.524 . S
C2157 C2158 1.415 . S
C2158 H2134 0.950 . S
C2158 C2153 1.363 . S
C2158 C2157 1.415 . S
C2159 H2135 0.951 . S
C2159 C2160 1.366 . S
C2159 C2161 1.388 . S
C2160 C2159 1.366 . S
C2160 C2164 1.385 . S
C2161 H2136 0.951 . S
C2161 C2159 1.388 . S
C2161 C2162 1.366 . S
C2162 C2161 1.366 . S
C2162 C2163 1.414 . S
C2162 C2165 1.499 . S
C2163 H2137 0.950 . S
C2163 C2162 1.414 . S
C2163 C2164 1.374 . S
C2164 H2138 0.950 . S
C2164 C2160 1.385 . S
C2164 C2163 1.374 . S
C2165 C2162 1.499 . S
C2165 C2166 1.373 . S
C2165 C2167 1.389 . S
C2166 H2139 0.950 . S
C2166 C2152 1.377 . S
C2166 C2165 1.373 . S
C2167 C2151 1.377 . S
C2167 C2165 1.389 . S
C2167 C2168 1.524 . S
C2168 C2167 1.524 . S
C2168 C2169 1.397 . S
C2168 C2173 1.363 . S
C2169 H2140 0.950 . S
C2169 C2168 1.397 . S
C2169 C2170 1.334 . S
C2170 H2141 0.950 . S
C2170 C2169 1.334 . S
C2170 C2171 1.287 . S
C2171 C2170 1.287 . S
C2171 C2172 1.524 . S
C2171 H2174 0.999 . S
C2172 H2142 0.950 . S
C2172 C2171 1.524 . S
C2172 C2173 1.415 . S
C2173 H2143 0.950 . S
C2173 C2168 1.363 . S
C2173 C2172 1.415 . S
H2174 C2171 0.999 . S
H2175 C2156 0.913 . S
C595 C4 1.479 . S
C610 C446 1.416 . S
C645 C482 1.416 . S
C660 C40 1.479 . S
C695 C76 1.479 . S
C710 C518 1.417 . S
C745 C554 1.416 . S
C760 C112 1.479 . S
C795 C292 1.479 . S
C810 C158 1.416 . S
C845 C194 1.417 . S
C860 C328 1.479 . S
C895 C364 1.479 . S
C910 C230 1.416 . S
C945 C266 1.417 . S
C960 C400 1.479 . S
C995 C3 1.606 . S
C1010 C75 1.606 . S
C1045 C39 1.606 . S
C1060 C111 1.606 . S
C1095 C147 1.438 . S
C1110 C219 1.438 . S
C1145 C183 1.439 . S
C1160 C255 1.439 . S
C1195 C363 1.606 . S
C1210 C291 1.606 . S
C1245 C327 1.606 . S
C1260 C399 1.606 . S
C1295 C507 1.439 . S
C1310 C435 1.439 . S
C1345 C471 1.439 . S
C1360 C543 1.439 . S
C1395 C218 1.466 . S
C1410 C2 1.461 . S
C1445 C254 1.466 . S
C1460 C38 1.461 . S
C1495 C74 1.461 . S
C1510 C146 1.466 . S
C1545 C110 1.461 . S
C1560 C182 1.466 . S
C1595 C506 1.466 . S
C1610 C290 1.461 . S
C1645 C326 1.461 . S
C1660 C542 1.466 . S
C1695 C434 1.466 . S
C1710 C362 1.461 . S
C1745 C398 1.461 . S
C1760 C470 1.466 . S
C1795 C14 1.682 . S
C1810 C122 1.682 . S
C1845 C86 1.682 . S
C1860 C50 1.681 . S
C1895 C148 1.181 . S
C1910 C256 1.181 . S
C1945 C184 1.181 . S
C1960 C220 1.181 . S
C1995 C410 1.682 . S
C2010 C302 1.681 . S
C2045 C338 1.682 . S
C2060 C374 1.682 . S
C2095 C544 1.181 . S
C2110 C436 1.181 . S
C2145 C472 1.181 . S
C2160 C508 1.181 . S
