# Generated by pormake.
# Topology irl, (4)-cn, num edge types: 1
# Building blocks:
#     Node 0, Type 0, BuildingBlock: ESEHIV_clean_sbu_0, # of connection points: 4
#     Node 1, Type 0, BuildingBlock: ESEHIV_clean_sbu_0, # of connection points: 4
#     Node 2, Type 0, BuildingBlock: ESEHIV_clean_sbu_0, # of connection points: 4
#     Node 3, Type 0, BuildingBlock: ESEHIV_clean_sbu_0, # of connection points: 4
#     Node 4, Type 0, BuildingBlock: ESEHIV_clean_sbu_0, # of connection points: 4
#     Node 5, Type 0, BuildingBlock: ESEHIV_clean_sbu_0, # of connection points: 4
#     Node 6, Type 0, BuildingBlock: ESEHIV_clean_sbu_0, # of connection points: 4
#     Node 7, Type 0, BuildingBlock: ESEHIV_clean_sbu_0, # of connection points: 4
#     Edge 8, Type (0, 0), BuildingBlock: KIFKEQ_clean_linker_1, # of connection points: 2
#     Edge 9, Type (0, 0), BuildingBlock: KIFKEQ_clean_linker_1, # of connection points: 2
#     Edge 10, Type (0, 0), BuildingBlock: KIFKEQ_clean_linker_1, # of connection points: 2
#     Edge 11, Type (0, 0), BuildingBlock: KIFKEQ_clean_linker_1, # of connection points: 2
#     Edge 12, Type (0, 0), BuildingBlock: KIFKEQ_clean_linker_1, # of connection points: 2
#     Edge 13, Type (0, 0), BuildingBlock: KIFKEQ_clean_linker_1, # of connection points: 2
#     Edge 14, Type (0, 0), BuildingBlock: KIFKEQ_clean_linker_1, # of connection points: 2
#     Edge 15, Type (0, 0), BuildingBlock: KIFKEQ_clean_linker_1, # of connection points: 2
#     Edge 16, Type (0, 0), BuildingBlock: KIFKEQ_clean_linker_1, # of connection points: 2
#     Edge 17, Type (0, 0), BuildingBlock: KIFKEQ_clean_linker_1, # of connection points: 2
#     Edge 18, Type (0, 0), BuildingBlock: KIFKEQ_clean_linker_1, # of connection points: 2
#     Edge 19, Type (0, 0), BuildingBlock: KIFKEQ_clean_linker_1, # of connection points: 2
#     Edge 20, Type (0, 0), BuildingBlock: KIFKEQ_clean_linker_1, # of connection points: 2
#     Edge 21, Type (0, 0), BuildingBlock: KIFKEQ_clean_linker_1, # of connection points: 2
#     Edge 22, Type (0, 0), BuildingBlock: KIFKEQ_clean_linker_1, # of connection points: 2
#     Edge 23, Type (0, 0), BuildingBlock: KIFKEQ_clean_linker_1, # of connection points: 2
# Relax obj value: 0.080
# Max RMSD: 0.129
# Mean RMSD: 0.129
data_MOF--net-irl--node1-ESEHIV_clean_sbu_0--edge1-KIFKEQ_clean_linker_1
_symmetry_space_group_name_H-M    P1
_symmetry_Int_Tables_number       1
_symmetry_cell_setting            triclinic
loop_
_symmetry_equiv_pos_as_xyz
'x, y, z'
_cell_length_a     10.644772
_cell_length_b     67.268946
_cell_length_c     30.006524
_cell_angle_alpha  89.761188
_cell_angle_beta   89.994036
_cell_angle_gamma 90.14194
loop_
_atom_site_label
_atom_site_type_symbol
_atom_site_fract_x
_atom_site_fract_y
_atom_site_fract_z
_atom_type_partial_charge
Cu0 Cu 0.99883 0.15877 0.9918 0.0
N1 N 0.89007 0.13678 0.9987 0.0
N2 N 0.85719 0.10378 1.00151 0.0
C3 C 0.94016 0.11875 1.00701 0.0
C4 C 0.74908 0.11279 0.9893 0.0
C5 C 0.7695 0.13318 0.98767 0.0
O6 O 0.12025 0.15441 0.03952 0.0
C7 C 0.94446 0.16306 0.90549 0.0
O8 O 0.84355 0.16878 0.92703 0.0
H9 H 0.03919 0.11656 0.01355 0.0
H10 H 0.70336 0.14433 0.97661 0.0
N11 N 0.94898 0.18519 1.00265 0.0
N12 N 0.98638 0.21798 1.00989 0.0
C13 C 0.03481 0.19993 1.00037 0.0
C14 C 0.84091 0.19408 0.01435 0.0
C15 C 0.86371 0.21431 0.01881 0.0
C16 C 0.05889 0.15422 0.0762 0.0
O17 O 0.93688 0.15702 0.07523 0.0
H18 H 0.13243 0.19717 0.99265 0.0
H19 H 0.75245 0.18645 0.01942 0.0
O20 O 0.04075 0.15798 0.92836 0.0
H21 H 0.66288 0.10518 0.98057 0.0
H22 H 0.7947 0.22539 0.02767 0.0
Cu23 Cu 0.98283 0.90662 0.0203 0.0
N24 N 0.09422 0.92706 1.00483 0.0
N25 N 0.11836 0.95984 0.99247 0.0
C26 C 0.07304 0.94561 0.02006 0.0
C27 C 0.17262 0.94977 0.95871 0.0
C28 C 0.15702 0.92959 0.96628 0.0
O29 O 0.95432 0.90947 0.08481 0.0
C30 C 0.82433 0.89901 0.94747 0.0
O31 O 0.79729 0.88075 0.95987 0.0
H32 H 0.00987 0.94861 0.04749 0.0
H33 H 0.17574 0.91788 0.94263 0.0
N34 N 0.03163 0.88008 0.01103 0.0
N35 N 0.98959 0.84729 1.00849 0.0
C36 C 0.96723 0.86476 0.02926 0.0
C37 C 0.0997 0.87204 0.97796 0.0
C38 C 0.07478 0.85183 0.97655 0.0
C39 C 0.05483 0.90755 0.10786 0.0
O40 O 0.16007 0.90387 0.08655 0.0
H41 H 0.897 0.86684 0.05486 0.0
H42 H 0.15407 0.88046 0.95396 0.0
O43 O 0.84775 0.9118 0.97772 0.0
H44 H 0.21141 0.95646 0.92885 0.0
H45 H 0.10867 0.84167 0.95144 0.0
Cu46 Cu 0.04006 0.90943 0.53385 0.0
N47 N 0.93537 0.93181 0.53224 0.0
N48 N 0.91294 0.96494 0.52795 0.0
C49 C 0.99107 0.94965 0.53651 0.0
C50 C 0.80119 0.95622 0.51868 0.0
C51 C 0.8154 0.93572 0.5212 0.0
O52 O 0.12918 0.91203 0.47644 0.0
C53 C 0.02971 0.91147 0.62338 0.0
O54 O 0.91218 0.91002 0.6105 0.0
H55 H 0.08969 0.95115 0.54443 0.0
H56 H 0.74548 0.92458 0.51328 0.0
N57 N 0.97965 0.88328 0.53234 0.0
N58 N 0.01084 0.85029 0.53058 0.0
C59 C 0.06409 0.86849 0.52956 0.0
C60 C 0.86696 0.87425 0.53503 0.0
C61 C 0.886 0.85382 0.53375 0.0
C62 C 0.04883 0.9109 0.44464 0.0
O63 O 0.93081 0.90743 0.45483 0.0
H64 H 0.1639 0.87126 0.52664 0.0
H65 H 0.77811 0.88188 0.53826 0.0
O66 O 0.11627 0.91139 0.5936 0.0
H67 H 0.71683 0.96397 0.50862 0.0
H68 H 0.81374 0.84252 0.53598 0.0
Cu69 Cu 0.01636 0.16398 0.49117 0.0
N70 N 0.12546 0.14252 0.49983 0.0
N71 N 0.15656 0.10968 0.50687 0.0
C72 C 0.07512 0.12425 0.49638 0.0
C73 C 0.26428 0.1193 0.51751 0.0
C74 C 0.24486 0.13965 0.51306 0.0
O75 O 0.97612 0.16199 0.42796 0.0
C76 C 0.95329 0.16045 0.57553 0.0
O77 O 0.07343 0.16489 0.5752 0.0
H78 H 0.97723 0.12192 0.48823 0.0
H79 H 0.31134 0.15139 0.52025 0.0
N80 N 0.06398 0.19055 0.50027 0.0
N81 N 0.02085 0.22301 0.50806 0.0
C82 C 0.97532 0.20477 0.49871 0.0
C83 C 0.17127 0.20004 0.51086 0.0
C84 C 0.14491 0.22015 0.51549 0.0
C85 C 0.07541 0.16544 0.40515 0.0
O86 O 0.17834 0.17037 0.42666 0.0
H87 H 0.87824 0.20158 0.49075 0.0
H88 H 0.2612 0.19288 0.51558 0.0
O89 O 0.89425 0.15932 0.53849 0.0
H90 H 0.35036 0.11223 0.52828 0.0
H91 H 0.21142 0.23161 0.52466 0.0
Cu92 Cu 0.52569 0.65905 0.02961 0.0
N93 N 0.41562 0.63815 0.04307 0.0
N94 N 0.3876 0.60544 0.05525 0.0
C95 C 0.4454 0.61954 0.0304 0.0
C96 C 0.31664 0.61573 0.08456 0.0
C97 C 0.33491 0.63588 0.07722 0.0
O98 O 0.6553 0.65437 0.07449 0.0
C99 C 0.46329 0.65744 0.94167 0.0
O100 O 0.35509 0.6601 0.96187 0.0
H101 H 0.52013 0.61651 1.00695 0.0
H102 H 0.30224 0.64781 0.09826 0.0
N103 N 0.47106 0.6854 0.03735 0.0
N104 N 0.50244 0.71849 0.03889 0.0
C105 C 0.535 0.701 0.02007 0.0
C106 C 0.39296 0.69325 0.06773 0.0
C107 C 0.41159 0.71363 0.06859 0.0
C108 C 0.67717 0.66756 0.10394 0.0
O109 O 0.70075 0.68581 0.09055 0.0
H110 H 0.61327 0.69916 0.99747 0.0
H111 H 0.33402 0.68471 0.09007 0.0
O112 O 0.56234 0.65633 0.96576 0.0
H113 H 0.26214 0.60926 0.1114 0.0
H114 H 0.36604 0.72385 0.09111 0.0
Cu115 Cu 0.46536 0.40778 0.02307 0.0
N116 N 0.58028 0.42803 0.0374 0.0
N117 N 0.62124 0.46025 0.0504 0.0
C118 C 0.53248 0.44606 0.04665 0.0
C119 C 0.73109 0.4507 0.04336 0.0
C120 C 0.70563 0.43072 0.03563 0.0
O121 O 0.35525 0.40975 0.07464 0.0
C122 C 0.5057 0.41503 0.93702 0.0
O123 O 0.61638 0.41071 0.95369 0.0
H124 H 0.43247 0.44889 0.04784 0.0
H125 H 0.7729 0.41932 0.02716 0.0
N126 N 0.51028 0.38069 0.01962 0.0
N127 N 0.46955 0.34785 0.01656 0.0
C128 C 0.4215 0.36635 0.02076 0.0
C129 C 0.61981 0.37105 0.01449 0.0
C130 C 0.59502 0.35081 0.01268 0.0
C131 C 0.4113 0.40237 0.10852 0.0
O132 O 0.51987 0.39355 0.10279 0.0
H133 H 0.32287 0.36964 0.02497 0.0
H134 H 0.71071 0.37818 0.01185 0.0
O135 O 0.41043 0.41459 0.96296 0.0
H136 H 0.82274 0.4577 0.04273 0.0
H137 H 0.66438 0.33928 1.00808 0.0
Cu138 Cu 0.51135 0.40895 0.51704 0.0
N139 N 0.39285 0.42954 0.51879 0.0
N140 N 0.35224 0.46227 0.51905 0.0
C141 C 0.43282 0.44783 0.50718 0.0
C142 C 0.2559 0.45259 0.53908 0.0
C143 C 0.28131 0.43233 0.53894 0.0
O144 O 0.59696 0.41439 0.46086 0.0
C145 C 0.51573 0.40466 0.60503 0.0
O146 O 0.40818 0.397 0.5922 0.0
H147 H 0.52567 0.45057 0.49377 0.0
H148 H 0.22678 0.42078 0.55506 0.0
N149 N 0.46648 0.38197 0.51216 0.0
N150 N 0.50987 0.34932 0.51044 0.0
C151 C 0.55607 0.36792 0.51479 0.0
C152 C 0.35822 0.37203 0.50566 0.0
C153 C 0.38484 0.35184 0.50451 0.0
C154 C 0.5137 0.41384 0.43015 0.0
O155 O 0.39756 0.40919 0.44074 0.0
H156 H 0.65443 0.37148 0.51914 0.0
H157 H 0.26701 0.3789 0.50206 0.0
O158 O 0.59111 0.41133 0.57529 0.0
H159 H 0.17576 0.45963 0.55453 0.0
H160 H 0.31703 0.34 0.50012 0.0
Cu161 Cu 0.47272 0.66147 0.5149 0.0
N162 N 0.58452 0.63997 0.5154 0.0
N163 N 0.60682 0.60675 0.51479 0.0
C164 C 0.5373 0.62232 0.52849 0.0
C165 C 0.70531 0.61512 0.49313 0.0
C166 C 0.69089 0.63563 0.49328 0.0
O167 O 0.3843 0.6577 0.45785 0.0
C168 C 0.48301 0.66286 0.60367 0.0
O169 O 0.59696 0.66668 0.58906 0.0
H170 H 0.44711 0.62106 0.5448 0.0
H171 H 0.74762 0.64629 0.47515 0.0
N172 N 0.52569 0.68813 0.51278 0.0
N173 N 0.48894 0.72098 0.51453 0.0
C174 C 0.43845 0.70257 0.51384 0.0
C175 C 0.6371 0.69762 0.51248 0.0
C176 C 0.6146 0.71795 0.51342 0.0
C177 C 0.45914 0.66138 0.42531 0.0
O178 O 0.57328 0.6676 0.43414 0.0
H179 H 0.3388 0.6994 0.51415 0.0
H180 H 0.72762 0.69035 0.5124 0.0
O181 O 0.39697 0.65941 0.57474 0.0
H182 H 0.77707 0.60705 0.47524 0.0
H183 H 0.68548 0.72949 0.51434 0.0
H184 H 0.08554 0.98233 0.06616 0.0
H185 H 0.07619 0.9849 0.92252 0.0
H186 H 0.01621 1.01691 0.06957 0.0
H187 H 0.00848 1.01956 0.92584 0.0
H188 H 0.7577 0.07441 0.95016 0.0
H189 H 0.82219 0.03947 0.94818 0.0
H190 H 0.09131 0.05071 0.05276 0.0
H191 H 0.02574 0.08544 0.05501 0.0
C192 C 0.06946 0.99032 0.0353 0.0
C193 C 0.08712 0.9808 0.99412 0.0
C194 C 0.03017 1.01019 0.03722 0.0
C195 C 0.00604 1.02108 0.99798 0.0
C196 C 0.0247 1.0116 0.95674 0.0
C197 C 0.06531 0.99178 0.95483 0.0
C198 C 0.82927 0.06934 0.97313 0.0
C199 C 0.8866 0.08276 1.0027 0.0
C200 C 0.86742 0.04936 0.97165 0.0
C201 C 0.9627 0.04223 1.00012 0.0
C202 C 0.01734 0.05558 0.0305 0.0
C203 C 0.98025 0.07555 0.03162 0.0
H204 H 0.75791 0.9972 0.53079 0.0
H205 H 0.14841 0.98058 0.51834 0.0
H206 H 0.81878 1.03224 0.52618 0.0
H207 H 0.20802 1.01527 0.51475 0.0
H208 H 0.27653 0.08078 0.55478 0.0
H209 H 0.21654 0.04574 0.56107 0.0
H210 H 0.90853 0.05568 0.47025 0.0
H211 H 0.96939 0.09031 0.46307 0.0
C212 C 0.85632 1.00089 0.52707 0.0
C213 C 0.9476 0.98582 0.52539 0.0
C214 C 0.89136 1.02102 0.52449 0.0
C215 C 0.0186 1.02659 0.5204 0.0
C216 C 0.10956 1.01156 0.51877 0.0
C217 C 0.07472 0.99153 0.52096 0.0
C218 C 0.19697 0.07548 0.53577 0.0
C219 C 0.12736 0.08861 0.50883 0.0
C220 C 0.16215 0.05538 0.53951 0.0
C221 C 0.05651 0.04793 0.51661 0.0
C222 C 0.98847 0.06097 0.48917 0.0
C223 C 0.02377 0.08093 0.48511 0.0
H224 H 0.36638 0.57926 0.12468 0.0
H225 H 0.47821 0.58347 0.98664 0.0
H226 H 0.43008 0.54449 0.12614 0.0
H227 H 0.54238 0.54873 0.98817 0.0
H228 H 0.75638 0.49122 0.01634 0.0
H229 H 0.70129 0.52654 0.01896 0.0
H230 H 0.37323 0.51222 0.09758 0.0
H231 H 0.43026 0.47719 0.09589 0.0
C232 C 0.40298 0.57278 0.09444 0.0
C233 C 0.41708 0.58436 0.05554 0.0
C234 C 0.44016 0.55277 0.09532 0.0
C235 C 0.49267 0.54373 0.05738 0.0
C236 C 0.50504 0.55523 0.01835 0.0
C237 C 0.4676 0.5752 0.01742 0.0
C238 C 0.67386 0.49568 0.03481 0.0
C239 C 0.59746 0.48132 0.05565 0.0
C240 C 0.64118 0.51591 0.03587 0.0
C241 C 0.53188 0.52232 0.05814 0.0
C242 C 0.45829 0.50797 0.08031 0.0
C243 C 0.4905 0.48781 0.07902 0.0
H244 H 0.26496 0.49143 0.57376 0.0
H245 H 0.50009 0.4813 0.45887 0.0
H246 H 0.3279 0.52641 0.57367 0.0
H247 H 0.564 0.51606 0.45914 0.0
H248 H 0.75581 0.57417 0.50351 0.0
H249 H 0.69059 0.53928 0.50413 0.0
H250 H 0.30814 0.55702 0.52974 0.0
H251 H 0.37141 0.59152 0.52854 0.0
C252 C 0.32865 0.49666 0.54816 0.0
C253 C 0.37808 0.48341 0.5166 0.0
C254 C 0.36537 0.51673 0.5482 0.0
C255 C 0.4526 0.52404 0.51675 0.0
C256 C 0.49915 0.51089 0.48451 0.0
C257 C 0.46201 0.49093 0.4843 0.0
C258 C 0.65782 0.57068 0.50914 0.0
C259 C 0.56994 0.58594 0.5163 0.0
C260 C 0.62027 0.55063 0.50947 0.0
C261 C 0.49391 0.5453 0.51715 0.0
C262 C 0.40647 0.56051 0.52453 0.0
C263 C 0.44359 0.58046 0.52395 0.0
H264 H 0.02063 0.1235 0.13179 0.0
H265 H 0.20735 0.1802 0.12102 0.0
H266 H 0.03285 0.12519 0.21293 0.0
H267 H 0.21831 0.18223 0.20229 0.0
H268 H 0.27297 0.17463 0.3517 0.0
H269 H 0.29593 0.16924 0.27233 0.0
H270 H 0.91893 0.14547 0.26695 0.0
H271 H 0.89658 0.15048 0.34744 0.0
C272 C 0.06977 0.13589 0.14693 0.0
C273 C 0.11569 0.15152 0.12032 0.0
C274 C 0.07409 0.1371 0.19337 0.0
C275 C 0.12375 0.15405 0.21417 0.0
C276 C 0.17965 0.16891 0.1874 0.0
C277 C 0.17533 0.16767 0.1408 0.0
C278 C 0.1944 0.16824 0.33378 0.0
C279 C 0.08254 0.16298 0.35608 0.0
C280 C 0.20785 0.16522 0.28807 0.0
C281 C 0.10989 0.15683 0.26319 0.0
C282 C 0.99728 0.15166 0.2853 0.0
C283 C 0.98368 0.15472 0.3313 0.0
H284 H 0.92369 0.935 0.38878 0.0
H285 H 0.23063 0.89338 0.39222 0.0
H286 H 0.92885 0.93526 0.30775 0.0
H287 H 0.2344 0.89309 0.31038 0.0
H288 H 0.26162 0.90738 0.16143 0.0
H289 H 0.27337 0.91016 0.24194 0.0
H290 H 0.86879 0.91418 0.24833 0.0
H291 H 0.85741 0.91193 0.16704 0.0
C292 C 0.99439 0.9262 0.372 0.0
C293 C 0.07776 0.91435 0.39687 0.0
C294 C 0.99594 0.92608 0.32542 0.0
C295 C 0.08005 0.91388 0.30205 0.0
C296 C 0.1684 0.90277 0.32701 0.0
C297 C 0.16732 0.90302 0.37398 0.0
C298 C 0.17468 0.90889 0.17984 0.0
C299 C 0.05822 0.90944 0.15745 0.0
C300 C 0.18168 0.91036 0.22632 0.0
C301 C 0.07241 0.9124 0.25214 0.0
C302 C 0.95556 0.91296 0.22974 0.0
C303 C 0.94859 0.91155 0.18302 0.0
H304 H 0.95458 0.94132 0.67652 0.0
H305 H 0.13942 0.88447 0.67963 0.0
H306 H 0.91968 0.93947 0.75676 0.0
H307 H 0.1057 0.8825 0.76045 0.0
H308 H 0.83712 0.87206 0.87958 0.0
H309 H 0.9171 0.87675 0.80444 0.0
H310 H 0.99585 0.93836 0.83334 0.0
H311 H 0.91385 0.9337 0.90898 0.0
C312 C 0.99307 0.92883 0.69486 0.0
C313 C 0.05225 0.91325 0.67193 0.0
C314 C 0.97225 0.92768 0.74094 0.0
C315 C 0.00811 0.91071 0.76533 0.0
C316 C 0.07507 0.89569 0.74276 0.0
C317 C 0.09685 0.89695 0.69656 0.0
C318 C 0.87102 0.88667 0.87011 0.0
C319 C 0.86801 0.90252 0.90064 0.0
C320 C 0.91873 0.8893 0.82695 0.0
C321 C 0.96465 0.90788 0.81261 0.0
C322 C 0.9611 0.92382 0.843 0.0
C323 C 0.91379 0.92117 0.88645 0.0
H324 H 0.75082 0.17479 0.85313 0.0
H325 H 0.11845 0.14784 0.84607 0.0
H326 H 0.72599 0.1713 0.77349 0.0
H327 H 0.09454 0.14483 0.76501 0.0
H328 H 0.98535 0.12785 0.6261 0.0
H329 H 0.97633 0.12723 0.70749 0.0
H330 H 0.80622 0.1855 0.70595 0.0
H331 H 0.81369 0.18575 0.62464 0.0
C332 C 0.82724 0.1682 0.83455 0.0
C333 C 0.93716 0.16161 0.85618 0.0
C334 C 0.81271 0.16626 0.78863 0.0
C335 C 0.90776 0.15775 0.7627 0.0
C336 C 0.01838 0.15119 0.78412 0.0
C337 C 0.03298 0.15311 0.83046 0.0
C338 C 0.93983 0.14001 0.64328 0.0
C339 C 0.89678 0.1566 0.61924 0.0
C340 C 0.93761 0.1399 0.68988 0.0
C341 C 0.89302 0.15648 0.71337 0.0
C342 C 0.84058 0.17241 0.68905 0.0
C343 C 0.84285 0.17248 0.64239 0.0
H344 H 0.57131 0.63395 0.14225 0.0
H345 H 0.68246 0.69422 0.1723 0.0
H346 H 0.4846 0.63044 0.21759 0.0
H347 H 0.59748 0.69066 0.24697 0.0
H348 H 0.36151 0.68801 0.36699 0.0
H349 H 0.40004 0.68808 0.28666 0.0
H350 H 0.55041 0.62866 0.29631 0.0
H351 H 0.50942 0.62865 0.3765 0.0
C352 C 0.57839 0.64639 0.16492 0.0
C353 C 0.63435 0.66438 0.15094 0.0
C354 C 0.52819 0.64439 0.20814 0.0
C355 C 0.53178 0.66037 0.23837 0.0
C356 C 0.58966 0.67818 0.22445 0.0
C357 C 0.64013 0.68014 0.18157 0.0
C358 C 0.39615 0.67457 0.35147 0.0
C359 C 0.429 0.65812 0.37785 0.0
C360 C 0.42113 0.67474 0.30554 0.0
C361 C 0.48108 0.65853 0.28492 0.0
C362 C 0.50378 0.64139 0.31076 0.0
C363 C 0.4788 0.64126 0.35674 0.0
H364 H 0.64627 0.39169 0.37133 0.0
H365 H 0.42052 0.44447 0.38323 0.0
H366 H 0.60556 0.39113 0.29106 0.0
H367 H 0.37776 0.44388 0.30328 0.0
H368 H 0.40682 0.43899 0.14613 0.0
H369 H 0.45342 0.44521 0.22489 0.0
H370 H 0.40735 0.38258 0.25306 0.0
H371 H 0.36327 0.37651 0.1746 0.0
C372 C 0.59339 0.40373 0.35634 0.0
C373 C 0.53818 0.41829 0.38309 0.0
C374 C 0.56729 0.40318 0.31064 0.0
C375 C 0.4852 0.41715 0.29111 0.0
C376 C 0.44072 0.43288 0.31726 0.0
C377 C 0.46649 0.43336 0.36292 0.0
C378 C 0.40017 0.42679 0.16971 0.0
C379 C 0.37921 0.40733 0.15464 0.0
C380 C 0.42937 0.43026 0.21461 0.0
C381 C 0.43845 0.41427 0.24485 0.0
C382 C 0.40528 0.39512 0.23031 0.0
C383 C 0.37653 0.3917 0.18566 0.0
H384 H 0.69106 0.42866 0.88356 0.0
H385 H 0.30464 0.40901 0.88084 0.0
H386 H 0.69937 0.42784 0.80271 0.0
H387 H 0.31196 0.40861 0.79915 0.0
H388 H 0.43097 0.38002 0.66892 0.0
H389 H 0.42021 0.38603 0.74846 0.0
H390 H 0.62688 0.44086 0.73075 0.0
H391 H 0.6385 0.43463 0.65013 0.0
C392 C 0.60673 0.42457 0.86553 0.0
C393 C 0.49755 0.4186 0.8885 0.0
C394 C 0.61153 0.42423 0.8191 0.0
C395 C 0.50727 0.41783 0.79449 0.0
C396 C 0.39485 0.41323 0.81734 0.0
C397 C 0.3899 0.41366 0.86402 0.0
C398 C 0.47578 0.39325 0.68202 0.0
C399 C 0.53573 0.40686 0.65339 0.0
C400 C 0.46781 0.39684 0.72756 0.0
C401 C 0.51942 0.41419 0.74583 0.0
C402 C 0.58536 0.4274 0.71757 0.0
C403 C 0.59342 0.42376 0.67158 0.0
H404 H 0.26193 0.65719 0.88561 0.0
H405 H 0.66747 0.65539 0.88488 0.0
H406 H 0.25943 0.65785 0.8047 0.0
H407 H 0.66486 0.6556 0.80328 0.0
H408 H 0.62447 0.68179 0.66475 0.0
H409 H 0.61914 0.67897 0.74508 0.0
H410 H 0.29773 0.63987 0.73601 0.0
H411 H 0.30238 0.64298 0.65422 0.0
C412 C 0.35101 0.65676 0.86821 0.0
C413 C 0.46527 0.65644 0.89202 0.0
C414 C 0.3492 0.65697 0.82156 0.0
C415 C 0.46165 0.65691 0.79714 0.0
C416 C 0.57615 0.65601 0.82091 0.0
C417 C 0.57795 0.65577 0.86775 0.0
C418 C 0.55187 0.67261 0.67966 0.0
C419 C 0.46406 0.66252 0.65284 0.0
C420 C 0.5498 0.67084 0.72598 0.0
C421 C 0.45992 0.65886 0.74734 0.0
C422 C 0.36862 0.64924 0.72074 0.0
C423 C 0.37062 0.65106 0.67388 0.0
H424 H 0.21719 0.34247 1.00378 0.0
H425 H 0.5616 0.31021 0.0276 0.0
H426 H 0.10084 0.31142 1.00336 0.0
H427 H 0.44425 0.27906 0.02656 0.0
H428 H 0.21358 0.22662 0.97202 0.0
H429 H 0.32949 0.25765 0.97497 0.0
H430 H 0.03068 0.28406 0.05157 0.0
H431 H 0.91428 0.25277 0.04927 0.0
C432 C 0.26877 0.32887 1.00937 0.0
C433 C 0.40011 0.32916 0.01591 0.0
C434 C 0.20123 0.31094 1.00911 0.0
C435 C 0.26254 0.29263 0.01499 0.0
C436 C 0.39371 0.29283 0.02137 0.0
C437 C 0.46136 0.31079 0.02194 0.0
C438 C 0.17229 0.23884 0.99007 0.0
C439 C 0.05379 0.23684 1.01073 0.0
C440 C 0.23948 0.25677 0.99171 0.0
C441 C 0.19034 0.27344 0.01371 0.0
C442 C 0.07131 0.27162 0.03394 0.0
C443 C 0.0042 0.25359 0.03258 0.0
H444 H 0.50939 0.74948 0.09744 0.0
H445 H 0.64482 0.73092 0.9685 0.0
H446 H 0.62751 0.78032 0.0904 0.0
H447 H 0.76343 0.76181 0.96158 0.0
H448 H 0.06381 0.81009 0.9845 0.0
H449 H 0.94445 0.77916 0.99125 0.0
H450 H 0.63692 0.81134 0.05058 0.0
H451 H 0.75534 0.84207 0.04387 0.0
C452 C 0.56282 0.75199 0.06728 0.0
C453 C 0.56692 0.73746 0.03362 0.0
C454 C 0.63121 0.76978 0.06326 0.0
C455 C 0.70612 0.77366 0.02549 0.0
C456 C 0.70899 0.75927 0.99156 0.0
C457 C 0.64035 0.74149 0.99552 0.0
C458 C 0.97068 0.8106 0.99889 0.0
C459 C 0.92049 0.82875 0.01384 0.0
C460 C 0.90177 0.79282 1.00266 0.0
C461 C 0.78047 0.79261 0.02153 0.0
C462 C 0.73061 0.81074 0.0366 0.0
C463 C 0.79928 0.82849 0.0328 0.0
H464 H 0.91915 0.81415 0.505 0.0
H465 H 0.25384 0.84323 0.55382 0.0
H466 H 0.03468 0.78282 0.50046 0.0
H467 H 0.36843 0.81223 0.54885 0.0
H468 H 0.57144 0.75802 0.49109 0.0
H469 H 0.45405 0.78913 0.49456 0.0
H470 H 0.13322 0.75755 0.54747 0.0
H471 H 0.24994 0.72665 0.54449 0.0
C472 C 0.01679 0.81391 0.51499 0.0
C473 C 0.07677 0.83142 0.5293 0.0
C474 C 0.08332 0.79592 0.51234 0.0
C475 C 0.21164 0.79497 0.52387 0.0
C476 C 0.2708 0.81242 0.53871 0.0
C477 C 0.20448 0.83031 0.54153 0.0
C478 C 0.4763 0.75769 0.50375 0.0
C479 C 0.42077 0.73963 0.51716 0.0
C480 C 0.40867 0.77557 0.50572 0.0
C481 C 0.28351 0.7759 0.5211 0.0
C482 C 0.2283 0.75787 0.53463 0.0
C483 C 0.29586 0.74005 0.53285 0.0
H484 H 0.73867 0.34319 0.54865 0.0
H485 H 0.44507 0.31344 0.47504 0.0
H486 H 0.86293 0.31296 0.54826 0.0
H487 H 0.56977 0.28303 0.47494 0.0
H488 H 0.77024 0.22684 0.52359 0.0
H489 H 0.6471 0.25715 0.5242 0.0
H490 H 0.98276 0.29155 0.49896 0.0
H491 H 0.1068 0.26101 0.49805 0.0
C492 C 0.70063 0.33029 0.53196 0.0
C493 C 0.58142 0.33097 0.51152 0.0
C494 C 0.77244 0.31287 0.53177 0.0
C495 C 0.72723 0.29549 0.51137 0.0
C496 C 0.60736 0.29604 0.49142 0.0
C497 C 0.53551 0.31353 0.49148 0.0
C498 C 0.81829 0.24078 0.51763 0.0
C499 C 0.94907 0.24131 0.51024 0.0
C500 C 0.74712 0.25825 0.51801 0.0
C501 C 0.80427 0.27687 0.51127 0.0
C502 C 0.9354 0.2775 0.50466 0.0
C503 C 0.00682 0.25996 0.50415 0.0
loop_
_geom_bond_atom_site_label_1
_geom_bond_atom_site_label_2
_geom_bond_distance
_geom_bond_site_symmetry_2
_ccdc_geom_bond_type
Cu0 N1 1.999 1_554 S
Cu0 O6 1.974 . S
Cu0 N11 1.985 . S
Cu0 O20 1.959 1_554 S
N1 Cu0 1.999 1_556 S
N1 C3 1.263 1_556 S
N1 C5 1.389 . S
N2 C3 1.358 . S
N2 C4 1.400 1_554 S
C3 N1 1.263 1_554 S
C3 N2 1.358 . S
C3 H9 0.930 1_455 S
C4 N2 1.400 1_556 S
C4 C5 1.351 . S
C4 H21 0.930 . S
C5 N1 1.389 . S
C5 C4 1.351 . S
C5 H10 0.930 . S
O6 Cu0 1.974 . S
O6 C16 1.282 . S
C7 O8 1.261 1_455 S
C7 O20 1.251 . S
O8 C7 1.261 1_655 S
H9 C3 0.930 1_655 S
H10 C5 0.930 . S
N11 Cu0 1.985 . S
N11 C13 1.335 1_554 S
N11 C14 1.390 . S
N12 C13 1.345 . S
N12 C15 1.336 1_556 S
C13 N11 1.335 1_556 S
C13 N12 1.345 . S
C13 H18 0.930 . S
C14 N11 1.390 . S
C14 C15 1.346 . S
C14 H19 0.930 . S
C15 N12 1.336 1_554 S
C15 C14 1.346 . S
C15 H22 0.929 . S
C16 O6 1.282 . S
C16 O17 1.216 1_455 S
O17 C16 1.216 1_655 S
H18 C13 0.930 . S
H19 C14 0.930 . S
O20 Cu0 1.959 1_556 S
O20 C7 1.251 . S
H21 C4 0.930 . S
H22 C15 0.929 . S
Cu23 N24 1.999 1_554 S
Cu23 O29 1.974 . S
Cu23 N34 1.985 . S
Cu23 O43 1.959 1_554 S
N24 Cu23 1.999 1_556 S
N24 C26 1.263 1_556 S
N24 C28 1.389 . S
N25 C26 1.358 . S
N25 C27 1.400 1_554 S
C26 N24 1.263 1_554 S
C26 N25 1.358 . S
C26 H32 0.930 1_655 S
C27 N25 1.400 1_556 S
C27 C28 1.351 . S
C27 H44 0.930 . S
C28 N24 1.389 . S
C28 C27 1.351 . S
C28 H33 0.930 . S
O29 Cu23 1.974 . S
O29 C39 1.282 . S
C30 O31 1.261 1_655 S
C30 O43 1.251 . S
O31 C30 1.261 1_455 S
H32 C26 0.930 1_455 S
H33 C28 0.930 . S
N34 Cu23 1.985 . S
N34 C36 1.335 1_554 S
N34 C37 1.390 . S
N35 C36 1.345 . S
N35 C38 1.336 1_556 S
C36 N34 1.335 1_556 S
C36 N35 1.345 . S
C36 H41 0.930 . S
C37 N34 1.390 . S
C37 C38 1.346 . S
C37 H42 0.930 . S
C38 N35 1.336 1_554 S
C38 C37 1.346 . S
C38 H45 0.929 . S
C39 O29 1.282 . S
C39 O40 1.216 1_655 S
O40 C39 1.216 1_455 S
H41 C36 0.930 . S
H42 C37 0.930 . S
O43 Cu23 1.959 1_556 S
O43 C30 1.251 . S
H44 C27 0.930 . S
H45 C38 0.929 . S
Cu46 N47 1.999 . S
Cu46 O52 1.974 . S
Cu46 N57 1.985 . S
Cu46 O66 1.959 . S
N47 Cu46 1.999 . S
N47 C49 1.263 . S
N47 C51 1.389 . S
N48 C49 1.358 . S
N48 C50 1.400 . S
C49 N47 1.263 . S
C49 N48 1.358 . S
C49 H55 0.929 1_455 S
C50 N48 1.400 . S
C50 C51 1.351 . S
C50 H67 0.930 . S
C51 N47 1.389 . S
C51 C50 1.351 . S
C51 H56 0.930 . S
O52 Cu46 1.974 . S
O52 C62 1.282 . S
C53 O54 1.261 1_455 S
C53 O66 1.251 . S
O54 C53 1.261 1_655 S
H55 C49 0.929 1_655 S
H56 C51 0.930 . S
N57 Cu46 1.985 . S
N57 C59 1.335 . S
N57 C60 1.390 . S
N58 C59 1.345 . S
N58 C61 1.336 . S
C59 N57 1.335 . S
C59 N58 1.345 . S
C59 H64 0.930 . S
C60 N57 1.390 . S
C60 C61 1.346 . S
C60 H65 0.930 . S
C61 N58 1.336 . S
C61 C60 1.346 . S
C61 H68 0.929 . S
C62 O52 1.282 . S
C62 O63 1.216 1_455 S
O63 C62 1.216 1_655 S
H64 C59 0.930 . S
H65 C60 0.930 . S
O66 Cu46 1.959 . S
O66 C53 1.251 . S
H67 C50 0.930 . S
H68 C61 0.929 . S
Cu69 N70 1.999 . S
Cu69 O75 1.974 . S
Cu69 N80 1.985 . S
Cu69 O89 1.959 . S
N70 Cu69 1.999 . S
N70 C72 1.263 . S
N70 C74 1.389 . S
N71 C72 1.358 . S
N71 C73 1.400 . S
C72 N70 1.263 . S
C72 N71 1.358 . S
C72 H78 0.929 1_655 S
C73 N71 1.400 . S
C73 C74 1.351 . S
C73 H90 0.930 . S
C74 N70 1.389 . S
C74 C73 1.351 . S
C74 H79 0.930 . S
O75 Cu69 1.974 . S
O75 C85 1.282 . S
C76 O77 1.261 1_655 S
C76 O89 1.251 . S
O77 C76 1.261 1_455 S
H78 C72 0.929 1_455 S
H79 C74 0.930 . S
N80 Cu69 1.985 . S
N80 C82 1.335 . S
N80 C83 1.390 . S
N81 C82 1.345 . S
N81 C84 1.336 . S
C82 N80 1.335 . S
C82 N81 1.345 . S
C82 H87 0.930 . S
C83 N80 1.390 . S
C83 C84 1.346 . S
C83 H88 0.930 . S
C84 N81 1.336 . S
C84 C83 1.346 . S
C84 H91 0.929 . S
C85 O75 1.282 . S
C85 O86 1.216 1_655 S
O86 C85 1.216 1_455 S
H87 C82 0.930 . S
H88 C83 0.930 . S
O89 Cu69 1.959 . S
O89 C76 1.251 . S
H90 C73 0.930 . S
H91 C84 0.929 . S
Cu92 N93 1.999 1_554 S
Cu92 O98 1.974 . S
Cu92 N103 1.985 . S
Cu92 O112 1.959 1_554 S
N93 Cu92 1.999 1_556 S
N93 C95 1.262 1_556 S
N93 C97 1.390 . S
N94 C95 1.358 . S
N94 C96 1.400 1_554 S
C95 N93 1.262 1_554 S
C95 N94 1.358 . S
C95 H101 0.930 . S
C96 N94 1.400 1_556 S
C96 C97 1.351 . S
C96 H113 0.930 . S
C97 N93 1.390 . S
C97 C96 1.351 . S
C97 H102 0.930 . S
O98 Cu92 1.974 . S
O98 C108 1.282 . S
C99 O100 1.261 . S
C99 O112 1.251 . S
O100 C99 1.261 . S
H101 C95 0.930 . S
H102 C97 0.930 . S
N103 Cu92 1.985 . S
N103 C105 1.335 1_554 S
N103 C106 1.390 . S
N104 C105 1.345 . S
N104 C107 1.336 1_556 S
C105 N103 1.335 1_556 S
C105 N104 1.345 . S
C105 H110 0.930 . S
C106 N103 1.390 . S
C106 C107 1.346 . S
C106 H111 0.930 . S
C107 N104 1.336 1_554 S
C107 C106 1.346 . S
C107 H114 0.929 . S
C108 O98 1.282 . S
C108 O109 1.216 . S
O109 C108 1.216 . S
H110 C105 0.930 . S
H111 C106 0.930 . S
O112 Cu92 1.959 1_556 S
O112 C99 1.251 . S
H113 C96 0.930 . S
H114 C107 0.929 . S
Cu115 N116 1.999 1_554 S
Cu115 O121 1.974 . S
Cu115 N126 1.985 . S
Cu115 O135 1.959 1_554 S
N116 Cu115 1.999 1_556 S
N116 C118 1.262 1_556 S
N116 C120 1.390 . S
N117 C118 1.358 . S
N117 C119 1.400 1_554 S
C118 N116 1.262 1_554 S
C118 N117 1.358 . S
C118 H124 0.930 . S
C119 N117 1.400 1_556 S
C119 C120 1.351 . S
C119 H136 0.930 . S
C120 N116 1.390 . S
C120 C119 1.351 . S
C120 H125 0.930 . S
O121 Cu115 1.974 . S
O121 C131 1.282 . S
C122 O123 1.261 . S
C122 O135 1.251 . S
O123 C122 1.261 . S
H124 C118 0.930 . S
H125 C120 0.930 . S
N126 Cu115 1.985 . S
N126 C128 1.335 1_554 S
N126 C129 1.390 . S
N127 C128 1.345 . S
N127 C130 1.336 1_556 S
C128 N126 1.335 1_556 S
C128 N127 1.345 . S
C128 H133 0.930 . S
C129 N126 1.390 . S
C129 C130 1.346 . S
C129 H134 0.930 . S
C130 N127 1.336 1_554 S
C130 C129 1.346 . S
C130 H137 0.929 . S
C131 O121 1.282 . S
C131 O132 1.216 . S
O132 C131 1.216 . S
H133 C128 0.930 . S
H134 C129 0.930 . S
O135 Cu115 1.959 1_556 S
O135 C122 1.251 . S
H136 C119 0.930 . S
H137 C130 0.929 . S
Cu138 N139 1.999 . S
Cu138 O144 1.974 . S
Cu138 N149 1.985 . S
Cu138 O158 1.959 . S
N139 Cu138 1.999 . S
N139 C141 1.263 . S
N139 C143 1.389 . S
N140 C141 1.358 . S
N140 C142 1.400 . S
C141 N139 1.263 . S
C141 N140 1.358 . S
C141 H147 0.930 . S
C142 N140 1.400 . S
C142 C143 1.351 . S
C142 H159 0.930 . S
C143 N139 1.389 . S
C143 C142 1.351 . S
C143 H148 0.930 . S
O144 Cu138 1.974 . S
O144 C154 1.282 . S
C145 O146 1.261 . S
C145 O158 1.251 . S
O146 C145 1.261 . S
H147 C141 0.930 . S
H148 C143 0.930 . S
N149 Cu138 1.985 . S
N149 C151 1.335 . S
N149 C152 1.390 . S
N150 C151 1.345 . S
N150 C153 1.336 . S
C151 N149 1.335 . S
C151 N150 1.345 . S
C151 H156 0.930 . S
C152 N149 1.390 . S
C152 C153 1.346 . S
C152 H157 0.930 . S
C153 N150 1.336 . S
C153 C152 1.346 . S
C153 H160 0.929 . S
C154 O144 1.282 . S
C154 O155 1.216 . S
O155 C154 1.216 . S
H156 C151 0.930 . S
H157 C152 0.930 . S
O158 Cu138 1.959 . S
O158 C145 1.251 . S
H159 C142 0.930 . S
H160 C153 0.929 . S
Cu161 N162 1.999 . S
Cu161 O167 1.974 . S
Cu161 N172 1.985 . S
Cu161 O181 1.959 . S
N162 Cu161 1.999 . S
N162 C164 1.263 . S
N162 C166 1.389 . S
N163 C164 1.358 . S
N163 C165 1.400 . S
C164 N162 1.263 . S
C164 N163 1.358 . S
C164 H170 0.930 . S
C165 N163 1.400 . S
C165 C166 1.351 . S
C165 H182 0.930 . S
C166 N162 1.389 . S
C166 C165 1.351 . S
C166 H171 0.930 . S
O167 Cu161 1.974 . S
O167 C177 1.282 . S
C168 O169 1.261 . S
C168 O181 1.251 . S
O169 C168 1.261 . S
H170 C164 0.930 . S
H171 C166 0.930 . S
N172 Cu161 1.985 . S
N172 C174 1.335 . S
N172 C175 1.390 . S
N173 C174 1.345 . S
N173 C176 1.336 . S
C174 N172 1.335 . S
C174 N173 1.345 . S
C174 H179 0.930 . S
C175 N172 1.390 . S
C175 C176 1.346 . S
C175 H180 0.930 . S
C176 N173 1.336 . S
C176 C175 1.346 . S
C176 H183 0.929 . S
C177 O167 1.282 . S
C177 O178 1.216 . S
O178 C177 1.216 . S
H179 C174 0.930 . S
H180 C175 0.930 . S
O181 Cu161 1.959 . S
O181 C168 1.251 . S
H182 C165 0.930 . S
H183 C176 0.929 . S
H184 C192 0.950 . S
H185 C197 0.950 . S
H186 C194 0.950 . S
H187 C196 0.950 . S
H188 C198 0.950 . S
H189 C200 0.950 . S
H190 C202 0.950 . S
H191 C203 0.950 . S
C192 H184 0.950 . S
C192 C193 1.386 1_455 S
C192 C194 1.391 . S
C193 C192 1.386 1_655 S
C193 C197 1.393 1_554 S
C194 H186 0.950 . S
C194 C192 1.391 . S
C194 C195 1.400 1_455 S
C195 C194 1.400 1_655 S
C195 C196 1.398 1_554 S
C195 C201 1.491 1_665 S
C196 H187 0.950 . S
C196 C195 1.398 1_556 S
C196 C197 1.391 . S
C197 H185 0.950 . S
C197 C193 1.393 1_556 S
C197 C196 1.391 . S
C198 H188 0.950 . S
C198 C199 1.386 1_656 S
C198 C200 1.391 . S
C199 C198 1.386 1_454 S
C199 C203 1.393 . S
C200 H189 0.950 . S
C200 C198 1.391 . S
C200 C201 1.400 1_656 S
C201 C195 1.491 1_445 S
C201 C200 1.400 1_454 S
C201 C202 1.398 . S
C202 H190 0.950 . S
C202 C201 1.398 . S
C202 C203 1.391 . S
C203 H191 0.950 . S
C203 C199 1.393 . S
C203 C202 1.391 . S
H204 C212 0.950 . S
H205 C217 0.950 . S
H206 C214 0.950 . S
H207 C216 0.950 . S
H208 C218 0.950 . S
H209 C220 0.950 . S
H210 C222 0.950 . S
H211 C223 0.950 . S
C212 H204 0.950 . S
C212 C213 1.386 1_655 S
C212 C214 1.391 . S
C213 C212 1.386 1_455 S
C213 C217 1.393 . S
C214 H206 0.950 . S
C214 C212 1.391 . S
C214 C215 1.400 1_655 S
C215 C214 1.400 1_455 S
C215 C216 1.398 . S
C215 C221 1.491 1_465 S
C216 H207 0.950 . S
C216 C215 1.398 . S
C216 C217 1.391 . S
C217 H205 0.950 . S
C217 C213 1.393 . S
C217 C216 1.391 . S
C218 H208 0.950 . S
C218 C219 1.386 1_455 S
C218 C220 1.391 . S
C219 C218 1.386 1_655 S
C219 C223 1.393 . S
C220 H209 0.950 . S
C220 C218 1.391 . S
C220 C221 1.400 1_455 S
C221 C215 1.491 1_645 S
C221 C220 1.400 1_655 S
C221 C222 1.398 . S
C222 H210 0.950 . S
C222 C221 1.398 . S
C222 C223 1.391 . S
C223 H211 0.950 . S
C223 C219 1.393 . S
C223 C222 1.391 . S
H224 C232 0.950 . S
H225 C237 0.950 . S
H226 C234 0.950 . S
H227 C236 0.950 . S
H228 C238 0.950 . S
H229 C240 0.950 . S
H230 C242 0.950 . S
H231 C243 0.950 . S
C232 H224 0.950 . S
C232 C233 1.386 . S
C232 C234 1.391 . S
C233 C232 1.386 . S
C233 C237 1.393 1_554 S
C234 H226 0.950 . S
C234 C232 1.391 . S
C234 C235 1.400 . S
C235 C234 1.400 . S
C235 C236 1.398 1_554 S
C235 C241 1.491 . S
C236 H227 0.950 . S
C236 C235 1.398 1_556 S
C236 C237 1.391 . S
C237 H225 0.950 . S
C237 C233 1.393 1_556 S
C237 C236 1.391 . S
C238 H228 0.950 . S
C238 C239 1.386 1_556 S
C238 C240 1.391 . S
C239 C238 1.386 1_554 S
C239 C243 1.393 . S
C240 H229 0.950 . S
C240 C238 1.391 . S
C240 C241 1.400 1_556 S
C241 C235 1.491 . S
C241 C240 1.400 1_554 S
C241 C242 1.398 . S
C242 H230 0.950 . S
C242 C241 1.398 . S
C242 C243 1.391 . S
C243 H231 0.950 . S
C243 C239 1.393 . S
C243 C242 1.391 . S
H244 C252 0.950 . S
H245 C257 0.950 . S
H246 C254 0.950 . S
H247 C256 0.950 . S
H248 C258 0.950 . S
H249 C260 0.950 . S
H250 C262 0.950 . S
H251 C263 0.950 . S
C252 H244 0.950 . S
C252 C253 1.386 . S
C252 C254 1.391 . S
C253 C252 1.386 . S
C253 C257 1.393 . S
C254 H246 0.950 . S
C254 C252 1.391 . S
C254 C255 1.400 . S
C255 C254 1.400 . S
C255 C256 1.398 . S
C255 C261 1.491 . S
C256 H247 0.950 . S
C256 C255 1.398 . S
C256 C257 1.391 . S
C257 H245 0.950 . S
C257 C253 1.393 . S
C257 C256 1.391 . S
C258 H248 0.950 . S
C258 C259 1.386 . S
C258 C260 1.391 . S
C259 C258 1.386 . S
C259 C263 1.393 . S
C260 H249 0.950 . S
C260 C258 1.391 . S
C260 C261 1.400 . S
C261 C255 1.491 . S
C261 C260 1.400 . S
C261 C262 1.398 . S
C262 H250 0.950 . S
C262 C261 1.398 . S
C262 C263 1.391 . S
C263 H251 0.950 . S
C263 C259 1.393 . S
C263 C262 1.391 . S
H264 C272 0.950 . S
H265 C277 0.950 . S
H266 C274 0.950 . S
H267 C276 0.950 . S
H268 C278 0.950 . S
H269 C280 0.950 . S
H270 C282 0.950 . S
H271 C283 0.950 . S
C272 H264 0.950 . S
C272 C273 1.386 1_655 S
C272 C274 1.391 . S
C273 C272 1.386 1_455 S
C273 C277 1.393 . S
C274 H266 0.950 . S
C274 C272 1.391 . S
C274 C275 1.400 1_655 S
C275 C274 1.400 1_455 S
C275 C276 1.398 . S
C275 C281 1.491 1_455 S
C276 H267 0.950 . S
C276 C275 1.398 . S
C276 C277 1.391 . S
C277 H265 0.950 . S
C277 C273 1.393 . S
C277 C276 1.391 . S
C278 H268 0.950 . S
C278 C279 1.386 1_455 S
C278 C280 1.391 . S
C279 C278 1.386 1_655 S
C279 C283 1.393 . S
C280 H269 0.950 . S
C280 C278 1.391 . S
C280 C281 1.400 1_455 S
C281 C275 1.491 1_655 S
C281 C280 1.400 1_655 S
C281 C282 1.398 . S
C282 H270 0.950 . S
C282 C281 1.398 . S
C282 C283 1.391 . S
C283 H271 0.950 . S
C283 C279 1.393 . S
C283 C282 1.391 . S
H284 C292 0.950 . S
H285 C297 0.950 . S
H286 C294 0.950 . S
H287 C296 0.950 . S
H288 C298 0.950 . S
H289 C300 0.950 . S
H290 C302 0.950 . S
H291 C303 0.950 . S
C292 H284 0.950 . S
C292 C293 1.386 1_655 S
C292 C294 1.391 . S
C293 C292 1.386 1_455 S
C293 C297 1.393 . S
C294 H286 0.950 . S
C294 C292 1.391 . S
C294 C295 1.400 1_655 S
C295 C294 1.400 1_455 S
C295 C296 1.398 . S
C295 C301 1.491 1_455 S
C296 H287 0.950 . S
C296 C295 1.398 . S
C296 C297 1.391 . S
C297 H285 0.950 . S
C297 C293 1.393 . S
C297 C296 1.391 . S
C298 H288 0.950 . S
C298 C299 1.386 1_455 S
C298 C300 1.391 . S
C299 C298 1.386 1_655 S
C299 C303 1.393 . S
C300 H289 0.950 . S
C300 C298 1.391 . S
C300 C301 1.400 1_455 S
C301 C295 1.491 1_655 S
C301 C300 1.400 1_655 S
C301 C302 1.398 . S
C302 H290 0.950 . S
C302 C301 1.398 . S
C302 C303 1.391 . S
C303 H291 0.950 . S
C303 C299 1.393 . S
C303 C302 1.391 . S
H304 C312 0.950 . S
H305 C317 0.950 . S
H306 C314 0.950 . S
H307 C316 0.950 . S
H308 C318 0.950 . S
H309 C320 0.950 . S
H310 C322 0.950 . S
H311 C323 0.950 . S
C312 H304 0.950 . S
C312 C313 1.386 1_655 S
C312 C314 1.391 . S
C313 C312 1.386 1_455 S
C313 C317 1.393 . S
C314 H306 0.950 . S
C314 C312 1.391 . S
C314 C315 1.400 1_655 S
C315 C314 1.400 1_455 S
C315 C316 1.398 . S
C315 C321 1.491 1_455 S
C316 H307 0.950 . S
C316 C315 1.398 . S
C316 C317 1.391 . S
C317 H305 0.950 . S
C317 C313 1.393 . S
C317 C316 1.391 . S
C318 H308 0.950 . S
C318 C319 1.386 1_455 S
C318 C320 1.391 . S
C319 C318 1.386 1_655 S
C319 C323 1.393 . S
C320 H309 0.950 . S
C320 C318 1.391 . S
C320 C321 1.400 1_455 S
C321 C315 1.491 1_655 S
C321 C320 1.400 1_655 S
C321 C322 1.398 . S
C322 H310 0.950 . S
C322 C321 1.398 . S
C322 C323 1.391 . S
C323 H311 0.950 . S
C323 C319 1.393 . S
C323 C322 1.391 . S
H324 C332 0.950 . S
H325 C337 0.950 . S
H326 C334 0.950 . S
H327 C336 0.950 . S
H328 C338 0.950 . S
H329 C340 0.950 . S
H330 C342 0.950 . S
H331 C343 0.950 . S
C332 H324 0.950 . S
C332 C333 1.386 1_655 S
C332 C334 1.391 . S
C333 C332 1.386 1_455 S
C333 C337 1.393 . S
C334 H326 0.950 . S
C334 C332 1.391 . S
C334 C335 1.400 1_655 S
C335 C334 1.400 1_455 S
C335 C336 1.398 . S
C335 C341 1.491 1_455 S
C336 H327 0.950 . S
C336 C335 1.398 . S
C336 C337 1.391 . S
C337 H325 0.950 . S
C337 C333 1.393 . S
C337 C336 1.391 . S
C338 H328 0.950 . S
C338 C339 1.386 1_455 S
C338 C340 1.391 . S
C339 C338 1.386 1_655 S
C339 C343 1.393 . S
C340 H329 0.950 . S
C340 C338 1.391 . S
C340 C341 1.400 1_455 S
C341 C335 1.491 1_655 S
C341 C340 1.400 1_655 S
C341 C342 1.398 . S
C342 H330 0.950 . S
C342 C341 1.398 . S
C342 C343 1.391 . S
C343 H331 0.950 . S
C343 C339 1.393 . S
C343 C342 1.391 . S
H344 C352 0.950 . S
H345 C357 0.950 . S
H346 C354 0.950 . S
H347 C356 0.950 . S
H348 C358 0.950 . S
H349 C360 0.950 . S
H350 C362 0.950 . S
H351 C363 0.950 . S
C352 H344 0.950 . S
C352 C353 1.386 . S
C352 C354 1.391 . S
C353 C352 1.386 . S
C353 C357 1.393 . S
C354 H346 0.950 . S
C354 C352 1.391 . S
C354 C355 1.400 . S
C355 C354 1.400 . S
C355 C356 1.398 . S
C355 C361 1.491 . S
C356 H347 0.950 . S
C356 C355 1.398 . S
C356 C357 1.391 . S
C357 H345 0.950 . S
C357 C353 1.393 . S
C357 C356 1.391 . S
C358 H348 0.950 . S
C358 C359 1.386 . S
C358 C360 1.391 . S
C359 C358 1.386 . S
C359 C363 1.393 . S
C360 H349 0.950 . S
C360 C358 1.391 . S
C360 C361 1.400 . S
C361 C355 1.491 . S
C361 C360 1.400 . S
C361 C362 1.398 . S
C362 H350 0.950 . S
C362 C361 1.398 . S
C362 C363 1.391 . S
C363 H351 0.950 . S
C363 C359 1.393 . S
C363 C362 1.391 . S
H364 C372 0.950 . S
H365 C377 0.950 . S
H366 C374 0.950 . S
H367 C376 0.950 . S
H368 C378 0.950 . S
H369 C380 0.950 . S
H370 C382 0.950 . S
H371 C383 0.950 . S
C372 H364 0.950 . S
C372 C373 1.386 . S
C372 C374 1.391 . S
C373 C372 1.386 . S
C373 C377 1.393 . S
C374 H366 0.950 . S
C374 C372 1.391 . S
C374 C375 1.400 . S
C375 C374 1.400 . S
C375 C376 1.398 . S
C375 C381 1.491 . S
C376 H367 0.950 . S
C376 C375 1.398 . S
C376 C377 1.391 . S
C377 H365 0.950 . S
C377 C373 1.393 . S
C377 C376 1.391 . S
C378 H368 0.950 . S
C378 C379 1.386 . S
C378 C380 1.391 . S
C379 C378 1.386 . S
C379 C383 1.393 . S
C380 H369 0.950 . S
C380 C378 1.391 . S
C380 C381 1.400 . S
C381 C375 1.491 . S
C381 C380 1.400 . S
C381 C382 1.398 . S
C382 H370 0.950 . S
C382 C381 1.398 . S
C382 C383 1.391 . S
C383 H371 0.950 . S
C383 C379 1.393 . S
C383 C382 1.391 . S
H384 C392 0.950 . S
H385 C397 0.950 . S
H386 C394 0.950 . S
H387 C396 0.950 . S
H388 C398 0.950 . S
H389 C400 0.950 . S
H390 C402 0.950 . S
H391 C403 0.950 . S
C392 H384 0.950 . S
C392 C393 1.386 . S
C392 C394 1.391 . S
C393 C392 1.386 . S
C393 C397 1.393 . S
C394 H386 0.950 . S
C394 C392 1.391 . S
C394 C395 1.400 . S
C395 C394 1.400 . S
C395 C396 1.398 . S
C395 C401 1.491 . S
C396 H387 0.950 . S
C396 C395 1.398 . S
C396 C397 1.391 . S
C397 H385 0.950 . S
C397 C393 1.393 . S
C397 C396 1.391 . S
C398 H388 0.950 . S
C398 C399 1.386 . S
C398 C400 1.391 . S
C399 C398 1.386 . S
C399 C403 1.393 . S
C400 H389 0.950 . S
C400 C398 1.391 . S
C400 C401 1.400 . S
C401 C395 1.491 . S
C401 C400 1.400 . S
C401 C402 1.398 . S
C402 H390 0.950 . S
C402 C401 1.398 . S
C402 C403 1.391 . S
C403 H391 0.950 . S
C403 C399 1.393 . S
C403 C402 1.391 . S
H404 C412 0.950 . S
H405 C417 0.950 . S
H406 C414 0.950 . S
H407 C416 0.950 . S
H408 C418 0.950 . S
H409 C420 0.950 . S
H410 C422 0.950 . S
H411 C423 0.950 . S
C412 H404 0.950 . S
C412 C413 1.386 . S
C412 C414 1.391 . S
C413 C412 1.386 . S
C413 C417 1.393 . S
C414 H406 0.950 . S
C414 C412 1.391 . S
C414 C415 1.400 . S
C415 C414 1.400 . S
C415 C416 1.398 . S
C415 C421 1.491 . S
C416 H407 0.950 . S
C416 C415 1.398 . S
C416 C417 1.391 . S
C417 H405 0.950 . S
C417 C413 1.393 . S
C417 C416 1.391 . S
C418 H408 0.950 . S
C418 C419 1.386 . S
C418 C420 1.391 . S
C419 C418 1.386 . S
C419 C423 1.393 . S
C420 H409 0.950 . S
C420 C418 1.391 . S
C420 C421 1.400 . S
C421 C415 1.491 . S
C421 C420 1.400 . S
C421 C422 1.398 . S
C422 H410 0.950 . S
C422 C421 1.398 . S
C422 C423 1.391 . S
C423 H411 0.950 . S
C423 C419 1.393 . S
C423 C422 1.391 . S
H424 C432 0.950 . S
H425 C437 0.950 . S
H426 C434 0.950 . S
H427 C436 0.950 . S
H428 C438 0.950 . S
H429 C440 0.950 . S
H430 C442 0.950 . S
H431 C443 0.950 . S
C432 H424 0.950 . S
C432 C433 1.386 1_554 S
C432 C434 1.391 . S
C433 C432 1.386 1_556 S
C433 C437 1.393 . S
C434 H426 0.950 . S
C434 C432 1.391 . S
C434 C435 1.400 1_554 S
C435 C434 1.400 1_556 S
C435 C436 1.398 . S
C435 C441 1.491 . S
C436 H427 0.950 . S
C436 C435 1.398 . S
C436 C437 1.391 . S
C437 H425 0.950 . S
C437 C433 1.393 . S
C437 C436 1.391 . S
C438 H428 0.950 . S
C438 C439 1.386 . S
C438 C440 1.391 . S
C439 C438 1.386 . S
C439 C443 1.393 1_556 S
C440 H429 0.950 . S
C440 C438 1.391 . S
C440 C441 1.400 . S
C441 C435 1.491 . S
C441 C440 1.400 . S
C441 C442 1.398 1_556 S
C442 H430 0.950 . S
C442 C441 1.398 1_554 S
C442 C443 1.391 . S
C443 H431 0.950 . S
C443 C439 1.393 1_554 S
C443 C442 1.391 . S
H444 C452 0.950 . S
H445 C457 0.950 . S
H446 C454 0.950 . S
H447 C456 0.950 . S
H448 C458 0.950 . S
H449 C460 0.950 . S
H450 C462 0.950 . S
H451 C463 0.950 . S
C452 H444 0.950 . S
C452 C453 1.386 1_554 S
C452 C454 1.391 . S
C453 C452 1.386 1_556 S
C453 C457 1.393 . S
C454 H446 0.950 . S
C454 C452 1.391 . S
C454 C455 1.400 1_554 S
C455 C454 1.400 1_556 S
C455 C456 1.398 . S
C455 C461 1.491 . S
C456 H447 0.950 . S
C456 C455 1.398 . S
C456 C457 1.391 . S
C457 H445 0.950 . S
C457 C453 1.393 . S
C457 C456 1.391 . S
C458 H448 0.950 . S
C458 C459 1.386 . S
C458 C460 1.391 . S
C459 C458 1.386 . S
C459 C463 1.393 1_556 S
C460 H449 0.950 . S
C460 C458 1.391 . S
C460 C461 1.400 . S
C461 C455 1.491 . S
C461 C460 1.400 . S
C461 C462 1.398 1_556 S
C462 H450 0.950 . S
C462 C461 1.398 1_554 S
C462 C463 1.391 . S
C463 H451 0.950 . S
C463 C459 1.393 1_554 S
C463 C462 1.391 . S
H464 C472 0.950 1_655 S
H465 C477 0.950 . S
H466 C474 0.950 . S
H467 C476 0.950 . S
H468 C478 0.950 . S
H469 C480 0.950 . S
H470 C482 0.950 . S
H471 C483 0.950 . S
C472 H464 0.950 1_455 S
C472 C473 1.386 . S
C472 C474 1.391 . S
C473 C472 1.386 . S
C473 C477 1.393 . S
C474 H466 0.950 . S
C474 C472 1.391 . S
C474 C475 1.400 . S
C475 C474 1.400 . S
C475 C476 1.398 . S
C475 C481 1.491 . S
C476 H467 0.950 . S
C476 C475 1.398 . S
C476 C477 1.391 . S
C477 H465 0.950 . S
C477 C473 1.393 . S
C477 C476 1.391 . S
C478 H468 0.950 . S
C478 C479 1.386 . S
C478 C480 1.391 . S
C479 C478 1.386 . S
C479 C483 1.393 . S
C480 H469 0.950 . S
C480 C478 1.391 . S
C480 C481 1.400 . S
C481 C475 1.491 . S
C481 C480 1.400 . S
C481 C482 1.398 . S
C482 H470 0.950 . S
C482 C481 1.398 . S
C482 C483 1.391 . S
C483 H471 0.950 . S
C483 C479 1.393 . S
C483 C482 1.391 . S
H484 C492 0.950 . S
H485 C497 0.950 . S
H486 C494 0.950 . S
H487 C496 0.950 . S
H488 C498 0.950 . S
H489 C500 0.950 . S
H490 C502 0.950 . S
H491 C503 0.950 . S
C492 H484 0.950 . S
C492 C493 1.386 . S
C492 C494 1.391 . S
C493 C492 1.386 . S
C493 C497 1.393 . S
C494 H486 0.950 . S
C494 C492 1.391 . S
C494 C495 1.400 . S
C495 C494 1.400 . S
C495 C496 1.398 . S
C495 C501 1.491 . S
C496 H487 0.950 . S
C496 C495 1.398 . S
C496 C497 1.391 . S
C497 H485 0.950 . S
C497 C493 1.393 . S
C497 C496 1.391 . S
C498 H488 0.950 . S
C498 C499 1.386 . S
C498 C500 1.391 . S
C499 C498 1.386 . S
C499 C503 1.393 . S
C500 H489 0.950 . S
C500 C498 1.391 . S
C500 C501 1.400 . S
C501 C495 1.491 . S
C501 C500 1.400 . S
C501 C502 1.398 . S
C502 H490 0.950 . S
C502 C501 1.398 . S
C502 C503 1.391 . S
C503 H491 0.950 . S
C503 C499 1.393 . S
C503 C502 1.391 . S
C193 N25 1.471 . S
C199 N2 1.477 . S
C213 N48 1.460 . S
C219 N71 1.479 . S
C233 N94 1.464 . S
C239 N117 1.479 . S
C253 N140 1.457 . S
C259 N163 1.477 . S
C273 C16 1.503 . S
C279 C85 1.491 . S
C293 C62 1.505 . S
C299 C39 1.494 . S
C313 C53 1.512 . S
C319 C30 1.502 . S
C333 C7 1.512 . S
C339 C76 1.506 . S
C353 C108 1.501 . S
C359 C177 1.504 . S
C373 C154 1.494 . S
C379 C131 1.493 . S
C393 C122 1.510 . S
C399 C145 1.501 . S
C413 C99 1.512 . S
C419 C168 1.502 . S
C433 N127 1.495 . S
C439 N12 1.484 . S
C453 N104 1.486 . S
C459 N35 1.493 . S
C473 N58 1.475 . S
C479 N173 1.500 . S
C493 N150 1.495 . S
C499 N81 1.483 . S
