# Generated by pormake.
# Topology eta, (3)-cn, num edge types: 1
# Building blocks:
#     Node 0, Type 0, BuildingBlock: WUSLED_clean_sbu_0, # of connection points: 3
#     Node 1, Type 0, BuildingBlock: WUSLED_clean_sbu_0, # of connection points: 3
#     Node 2, Type 0, BuildingBlock: WUSLED_clean_sbu_0, # of connection points: 3
#     Node 3, Type 0, BuildingBlock: WUSLED_clean_sbu_0, # of connection points: 3
#     Node 4, Type 0, BuildingBlock: WUSLED_clean_sbu_0, # of connection points: 3
#     Node 5, Type 0, BuildingBlock: WUSLED_clean_sbu_0, # of connection points: 3
#     Edge 6, Type (0, 0), BuildingBlock: MIFKUJ_clean_linker_0, # of connection points: 2
#     Edge 7, Type (0, 0), BuildingBlock: MIFKUJ_clean_linker_0, # of connection points: 2
#     Edge 8, Type (0, 0), BuildingBlock: MIFKUJ_clean_linker_0, # of connection points: 2
#     Edge 9, Type (0, 0), BuildingBlock: MIFKUJ_clean_linker_0, # of connection points: 2
#     Edge 10, Type (0, 0), BuildingBlock: MIFKUJ_clean_linker_0, # of connection points: 2
#     Edge 11, Type (0, 0), BuildingBlock: MIFKUJ_clean_linker_0, # of connection points: 2
#     Edge 12, Type (0, 0), BuildingBlock: MIFKUJ_clean_linker_0, # of connection points: 2
#     Edge 13, Type (0, 0), BuildingBlock: MIFKUJ_clean_linker_0, # of connection points: 2
#     Edge 14, Type (0, 0), BuildingBlock: MIFKUJ_clean_linker_0, # of connection points: 2
# Relax obj value: 0.000
# Max RMSD: 0.005
# Mean RMSD: 0.005
data_MOF--net-eta--node1-WUSLED_clean_sbu_0--edge1-MIFKUJ_clean_linker_0
_symmetry_space_group_name_H-M    P1
_symmetry_Int_Tables_number       1
_symmetry_cell_setting            triclinic
loop_
_symmetry_equiv_pos_as_xyz
'x, y, z'
_cell_length_a     80.089878
_cell_length_b     80.543288
_cell_length_c     65.75018
_cell_angle_alpha  89.632364
_cell_angle_beta   90.052428
_cell_angle_gamma 121.02068
loop_
_atom_site_label
_atom_site_type_symbol
_atom_site_fract_x
_atom_site_fract_y
_atom_site_fract_z
_atom_type_partial_charge
C0 C 0.24224 0.60785 0.13019 0.0
C1 C 0.26246 0.61898 0.13321 0.0
C2 C 0.26811 0.61194 0.09868 0.0
C3 C 0.27529 0.62099 0.11759 0.0
C4 C 0.2478 0.60062 0.09593 0.0
C5 C 0.23503 0.59862 0.11152 0.0
U6 U 0.23032 0.61772 0.18368 0.0
O7 O 0.20849 0.62499 0.19316 0.0
O8 O 0.20657 0.59837 0.20448 0.0
C9 C 0.19825 0.6088 0.20354 0.0
C10 C 0.22843 0.60592 0.14611 0.0
C11 C 0.17712 0.59803 0.19973 0.0
C12 C 0.14888 0.57603 0.17947 0.0
C13 C 0.16909 0.58626 0.18256 0.0
C14 C 0.14462 0.58939 0.21059 0.0
C15 C 0.13639 0.5775 0.19346 0.0
C16 C 0.16476 0.59953 0.21366 0.0
C17 C 0.27163 0.6479 0.22136 0.0
C18 C 0.26844 0.66264 0.25217 0.0
C19 C 0.29752 0.66114 0.24651 0.0
C20 C 0.28994 0.65183 0.22798 0.0
C21 C 0.28693 0.66677 0.25879 0.0
C22 C 0.26083 0.65321 0.23365 0.0
C23 C 0.26431 0.6386 0.20147 0.0
O24 O 0.22724 0.5955 0.16212 0.0
O25 O 0.22881 0.62195 0.1508 0.0
O26 O 0.25638 0.64605 0.1899 0.0
O27 O 0.2545 0.61956 0.20159 0.0
H28 H 0.26828 0.62625 0.14755 0.0
H29 H 0.29082 0.62994 0.12017 0.0
H30 H 0.24175 0.59318 0.08173 0.0
H31 H 0.21946 0.58991 0.10896 0.0
H32 H 0.14305 0.56715 0.16604 0.0
H33 H 0.17845 0.58499 0.17158 0.0
H34 H 0.13545 0.59063 0.22184 0.0
H35 H 0.17069 0.6085 0.22704 0.0
H36 H 0.25982 0.66659 0.26137 0.0
H37 H 0.31188 0.66431 0.251 0.0
H38 H 0.2985 0.64786 0.2187 0.0
H39 H 0.24658 0.6502 0.22887 0.0
C40 C 0.61829 0.23041 0.57527 0.0
C41 C 0.63491 0.24899 0.57712 0.0
C42 C 0.62034 0.25571 0.60611 0.0
C43 C 0.63597 0.26149 0.59247 0.0
C44 C 0.60369 0.23714 0.60405 0.0
C45 C 0.60271 0.22463 0.58881 0.0
U46 U 0.6303 0.21947 0.52238 0.0
O47 O 0.63711 0.19746 0.51287 0.0
O48 O 0.61136 0.19691 0.50058 0.0
C49 C 0.62131 0.18809 0.50174 0.0
C50 C 0.61684 0.21685 0.55941 0.0
C51 C 0.60975 0.16696 0.50487 0.0
C52 C 0.58885 0.13859 0.52569 0.0
C53 C 0.59964 0.15878 0.52311 0.0
C54 C 0.59818 0.13467 0.49184 0.0
C55 C 0.58805 0.12628 0.51009 0.0
C56 C 0.60891 0.15479 0.48928 0.0
C57 C 0.66293 0.26176 0.48633 0.0
C58 C 0.66831 0.25805 0.45066 0.0
C59 C 0.68602 0.28969 0.46628 0.0
C60 C 0.67663 0.28161 0.48476 0.0
C61 C 0.68187 0.27807 0.44892 0.0
C62 C 0.65891 0.24996 0.46922 0.0
C63 C 0.65279 0.25381 0.50583 0.0
O64 O 0.60711 0.21617 0.54302 0.0
O65 O 0.63288 0.21678 0.55538 0.0
O66 O 0.65949 0.24506 0.5172 0.0
O67 O 0.63366 0.24449 0.50512 0.0
H68 H 0.64706 0.25382 0.56672 0.0
H69 H 0.6489 0.27576 0.59351 0.0
H70 H 0.5915 0.23214 0.61442 0.0
H71 H 0.58977 0.21036 0.58764 0.0
H72 H 0.58139 0.13265 0.54001 0.0
H73 H 0.60016 0.16799 0.53534 0.0
H74 H 0.59765 0.12568 0.47939 0.0
H75 H 0.61656 0.16086 0.47507 0.0
H76 H 0.66463 0.24869 0.43759 0.0
H77 H 0.69661 0.30508 0.46562 0.0
H78 H 0.67998 0.29092 0.49785 0.0
H79 H 0.64836 0.23457 0.47017 0.0
C80 C 0.44733 0.64573 0.79708 0.0
C81 C 0.43259 0.65026 0.79731 0.0
C82 C 0.44473 0.66813 0.76532 0.0
C83 C 0.43129 0.66135 0.78156 0.0
C84 C 0.45966 0.66379 0.76545 0.0
C85 C 0.4609 0.65268 0.78114 0.0
U86 U 0.43563 0.62283 0.85041 0.0
O87 O 0.4278 0.59347 0.86008 0.0
O88 O 0.45433 0.61872 0.87186 0.0
C89 C 0.44376 0.59972 0.87085 0.0
C90 C 0.44867 0.63359 0.8131 0.0
C91 C 0.45457 0.58975 0.8674 0.0
C92 C 0.47505 0.58256 0.84642 0.0
C93 C 0.46492 0.59229 0.84928 0.0
C94 C 0.46456 0.56769 0.87972 0.0
C95 C 0.47494 0.57007 0.8616 0.0
C96 C 0.45449 0.57743 0.88256 0.0
C97 C 0.40432 0.63311 0.88663 0.0
C98 C 0.39311 0.61812 0.91997 0.0
C99 C 0.38573 0.64219 0.90818 0.0
C100 C 0.39568 0.64417 0.89003 0.0
C101 C 0.38418 0.62904 0.92335 0.0
C102 C 0.40309 0.62012 0.90173 0.0
C103 C 0.41434 0.63529 0.86716 0.0
O104 O 0.45876 0.64283 0.82928 0.0
O105 O 0.43238 0.6174 0.8175 0.0
O106 O 0.40704 0.6197 0.85584 0.0
O107 O 0.43347 0.64491 0.86783 0.0
H108 H 0.42198 0.64506 0.80955 0.0
H109 H 0.41951 0.66426 0.78189 0.0
H110 H 0.47049 0.66906 0.75345 0.0
H111 H 0.47245 0.64943 0.78078 0.0
H112 H 0.48275 0.5846 0.83222 0.0
H113 H 0.4651 0.60175 0.83738 0.0
H114 H 0.46442 0.55848 0.89188 0.0
H115 H 0.44665 0.57535 0.89668 0.0
H116 H 0.39208 0.60777 0.93124 0.0
H117 H 0.37937 0.65109 0.91038 0.0
H118 H 0.39658 0.65434 0.87858 0.0
H119 H 0.4097 0.61146 0.89935 0.0
C120 C 0.81771 0.43121 0.13015 0.0
C121 C 0.79973 0.42932 0.13505 0.0
C122 C 0.79139 0.42692 0.09905 0.0
C123 C 0.78672 0.42728 0.11962 0.0
C124 C 0.80933 0.4286 0.0943 0.0
C125 C 0.82235 0.43076 0.1097 0.0
U126 U 0.83148 0.4232 0.18385 0.0
O127 O 0.8547 0.41798 0.19349 0.0
O128 O 0.8549 0.4439 0.20403 0.0
C129 C 0.86435 0.43456 0.20316 0.0
C130 C 0.83203 0.43402 0.14595 0.0
C131 C 0.8855 0.44658 0.19906 0.0
C132 C 0.91411 0.45591 0.17806 0.0
C133 C 0.89388 0.44484 0.18102 0.0
C134 C 0.91778 0.47089 0.21087 0.0
C135 C 0.9263 0.46904 0.19298 0.0
C136 C 0.89763 0.45975 0.21387 0.0
C137 C 0.79084 0.39219 0.22261 0.0
C138 C 0.79248 0.37513 0.25255 0.0
C139 C 0.76643 0.38191 0.24932 0.0
C140 C 0.77401 0.39097 0.23057 0.0
C141 C 0.77549 0.37377 0.26051 0.0
C142 C 0.80014 0.38433 0.2338 0.0
C143 C 0.79798 0.40126 0.20242 0.0
O144 O 0.83312 0.44454 0.16167 0.0
O145 O 0.83271 0.41856 0.15101 0.0
O146 O 0.80656 0.39431 0.19123 0.0
O147 O 0.80682 0.42026 0.20176 0.0
H148 H 0.79578 0.4295 0.15076 0.0
H149 H 0.77294 0.42582 0.12378 0.0
H150 H 0.81351 0.42864 0.07863 0.0
H151 H 0.83616 0.43224 0.1056 0.0
H152 H 0.92019 0.45428 0.16403 0.0
H153 H 0.88486 0.43486 0.16927 0.0
H154 H 0.92674 0.48066 0.22278 0.0
H155 H 0.8915 0.46129 0.22792 0.0
H156 H 0.79992 0.36921 0.26089 0.0
H157 H 0.75321 0.38091 0.25486 0.0
H158 H 0.76658 0.39688 0.22216 0.0
H159 H 0.81322 0.38519 0.22802 0.0
C160 C 0.4096 0.81156 0.46343 0.0
C161 C 0.40029 0.79151 0.46686 0.0
C162 C 0.38724 0.78535 0.43235 0.0
C163 C 0.38921 0.77851 0.45145 0.0
C164 C 0.39671 0.8055 0.42906 0.0
C165 C 0.40776 0.81845 0.44445 0.0
U166 U 0.43215 0.8238 0.51669 0.0
O167 O 0.46098 0.84721 0.52652 0.0
O168 O 0.43464 0.84582 0.53826 0.0
C169 C 0.45376 0.85588 0.53709 0.0
C170 C 0.42122 0.8255 0.4794 0.0
C171 C 0.4627 0.87693 0.53361 0.0
C172 C 0.4798 0.90564 0.51206 0.0
C173 C 0.47067 0.88553 0.51465 0.0
C174 C 0.47266 0.90876 0.54713 0.0
C175 C 0.48099 0.91751 0.5283 0.0
C176 C 0.46367 0.88869 0.54974 0.0
C177 C 0.4241 0.78238 0.55262 0.0
C178 C 0.43517 0.78679 0.58772 0.0
C179 C 0.42053 0.75509 0.57229 0.0
C180 C 0.41803 0.76271 0.55416 0.0
C181 C 0.42918 0.76703 0.58929 0.0
C182 C 0.4327 0.79442 0.5695 0.0
C183 C 0.4214 0.78993 0.53324 0.0
O184 O 0.4115 0.82517 0.49565 0.0
O185 O 0.43789 0.82683 0.48373 0.0
O186 O 0.43708 0.79963 0.5219 0.0
O187 O 0.41079 0.79806 0.53403 0.0
H188 H 0.40154 0.78594 0.48147 0.0
H189 H 0.38197 0.76311 0.45459 0.0
H190 H 0.3958 0.8113 0.41447 0.0
H191 H 0.41491 0.83388 0.44151 0.0
H192 H 0.48586 0.9119 0.4973 0.0
H193 H 0.46998 0.87675 0.5019 0.0
H194 H 0.47348 0.91747 0.56 0.0
H195 H 0.45764 0.88235 0.56449 0.0
H196 H 0.44204 0.79642 0.60045 0.0
H197 H 0.41546 0.73977 0.57304 0.0
H198 H 0.41131 0.75319 0.5413 0.0
H199 H 0.43754 0.80969 0.56854 0.0
C200 C 0.61691 0.40056 0.79654 0.0
C201 C 0.62604 0.39001 0.80078 0.0
C202 C 0.61963 0.37734 0.7662 0.0
C203 C 0.6274 0.3785 0.78574 0.0
C204 C 0.61073 0.38817 0.76205 0.0
C205 C 0.60939 0.39964 0.77707 0.0
U206 U 0.62717 0.42329 0.84956 0.0
O207 O 0.63316 0.45201 0.85892 0.0
O208 O 0.6073 0.42583 0.87075 0.0
C209 C 0.61684 0.44483 0.86936 0.0
C210 C 0.61482 0.41233 0.81222 0.0
C211 C 0.60484 0.45363 0.86563 0.0
C212 C 0.59446 0.47151 0.8443 0.0
C213 C 0.6055 0.46268 0.84704 0.0
C214 C 0.58165 0.46199 0.87848 0.0
C215 C 0.58243 0.4713 0.86002 0.0
C216 C 0.59277 0.45331 0.88125 0.0
C217 C 0.6597 0.41477 0.88638 0.0
C218 C 0.66183 0.4185 0.92318 0.0
C219 C 0.68623 0.41528 0.90487 0.0
C220 C 0.67676 0.41398 0.88657 0.0
C221 C 0.67878 0.41731 0.92347 0.0
C222 C 0.65237 0.41725 0.90479 0.0
C223 C 0.64967 0.41245 0.86684 0.0
O224 O 0.6048 0.40282 0.82845 0.0
O225 O 0.6307 0.42884 0.81654 0.0
O226 O 0.65644 0.42812 0.85549 0.0
O227 O 0.63054 0.40192 0.86721 0.0
H228 H 0.63193 0.39055 0.81577 0.0
H229 H 0.63418 0.37022 0.78954 0.0
H230 H 0.60489 0.3879 0.74711 0.0
H231 H 0.60237 0.40776 0.7735 0.0
H232 H 0.59523 0.47839 0.82983 0.0
H233 H 0.61461 0.46303 0.83467 0.0
H234 H 0.57274 0.46177 0.89099 0.0
H235 H 0.59208 0.44647 0.89572 0.0
H236 H 0.65563 0.41995 0.9372 0.0
H237 H 0.69945 0.41473 0.90442 0.0
H238 H 0.68271 0.4122 0.87252 0.0
H239 H 0.63923 0.41796 0.90497 0.0
H240 H 0.34961 0.62789 0.92741 0.0
H241 H 0.33217 0.6257 0.95866 0.0
H242 H 0.37586 0.62246 0.99389 0.0
H243 H 0.39357 0.62481 0.96256 0.0
H244 H 0.33921 0.59672 1.00769 0.0
H245 H 0.37597 0.66423 0.99201 0.0
H246 H 0.38841 0.69341 0.97042 0.0
H247 H 0.33018 0.68182 0.96213 0.0
H248 H 0.31734 0.65239 0.98343 0.0
H249 H 0.30249 0.61206 0.10067 0.0
H250 H 0.32421 0.61575 0.07253 0.0
H251 H 0.28578 0.62072 0.03025 0.0
H252 H 0.26439 0.61767 0.05827 0.0
H253 H 0.32292 0.64717 0.02204 0.0
H254 H 0.28621 0.57833 0.03595 0.0
H255 H 0.274 0.54914 0.05749 0.0
H256 H 0.3327 0.5636 0.06946 0.0
H257 H 0.34527 0.59304 0.04819 0.0
C258 C 0.35564 0.62687 0.94179 0.0
C259 C 0.37314 0.62676 0.94245 0.0
C260 C 0.3456 0.62557 0.95967 0.0
C261 C 0.35286 0.62423 0.97867 0.0
C262 C 0.37001 0.62354 0.9794 0.0
C263 C 0.38009 0.62483 0.96147 0.0
C264 C 0.34251 0.62376 0.99766 0.0
C265 C 0.33593 0.60791 1.01102 0.0
C266 C 0.33802 0.63824 1.00191 0.0
C267 C 0.34568 0.65601 0.98919 0.0
C268 C 0.3658 0.66782 0.98547 0.0
C269 C 0.37292 0.68442 0.97329 0.0
C270 C 0.36009 0.68944 0.96487 0.0
C271 C 0.3401 0.6779 0.96865 0.0
C272 C 0.33289 0.66127 0.98079 0.0
C273 C 0.29876 0.61412 0.0854 0.0
C274 C 0.2816 0.61444 0.08174 0.0
C275 C 0.31111 0.61605 0.0693 0.0
C276 C 0.30652 0.61828 0.04921 0.0
C277 C 0.2896 0.61894 0.04559 0.0
C278 C 0.27728 0.61701 0.06163 0.0
C279 C 0.31923 0.61991 0.03185 0.0
C280 C 0.32632 0.63604 0.01881 0.0
C281 C 0.32423 0.60572 0.02796 0.0
C282 C 0.31668 0.58799 0.04067 0.0
C283 C 0.29652 0.57537 0.04331 0.0
C284 C 0.28953 0.55876 0.05544 0.0
C285 C 0.30257 0.55455 0.06489 0.0
C286 C 0.32262 0.5669 0.06217 0.0
C287 C 0.32968 0.58354 0.05006 0.0
H288 H 0.29713 0.54168 0.07428 0.0
H289 H 0.36563 0.7023 0.95545 0.0
H290 H 0.68932 0.31258 0.43254 0.0
H291 H 0.70543 0.3275 0.40041 0.0
H292 H 0.71171 0.27851 0.38772 0.0
H293 H 0.69613 0.26373 0.42031 0.0
H294 H 0.74477 0.31206 0.37872 0.0
H295 H 0.67716 0.28391 0.36349 0.0
H296 H 0.64364 0.27702 0.36832 0.0
H297 H 0.6637 0.33754 0.36164 0.0
H298 H 0.6974 0.34483 0.35705 0.0
H299 H 0.77087 0.33942 0.27433 0.0
H300 H 0.75538 0.32219 0.30599 0.0
H301 H 0.74537 0.36803 0.32287 0.0
H302 H 0.76072 0.38524 0.29123 0.0
H303 H 0.71345 0.33393 0.32885 0.0
H304 H 0.78138 0.36209 0.34541 0.0
H305 H 0.81484 0.36876 0.34062 0.0
H306 H 0.794 0.30789 0.34453 0.0
H307 H 0.76038 0.30084 0.34909 0.0
C308 C 0.69427 0.30502 0.42304 0.0
C309 C 0.69143 0.28694 0.42907 0.0
C310 C 0.70331 0.31349 0.40454 0.0
C311 C 0.70958 0.30403 0.39149 0.0
C312 C 0.70692 0.28605 0.39749 0.0
C313 C 0.69787 0.27755 0.41605 0.0
C314 C 0.71903 0.31307 0.3717 0.0
C315 C 0.7378 0.31658 0.36766 0.0
C316 C 0.7101 0.31927 0.3574 0.0
C317 C 0.68984 0.31493 0.3601 0.0
C318 C 0.67445 0.29577 0.3632 0.0
C319 C 0.65541 0.29179 0.36587 0.0
C320 C 0.65155 0.30684 0.36533 0.0
C321 C 0.66672 0.3259 0.36207 0.0
C322 C 0.68579 0.32996 0.35941 0.0
C323 C 0.7656 0.34595 0.28491 0.0
C324 C 0.76701 0.36371 0.28022 0.0
C325 C 0.75673 0.33607 0.30302 0.0
C326 C 0.7493 0.34385 0.31693 0.0
C327 C 0.7509 0.36167 0.31236 0.0
C328 C 0.75965 0.37149 0.29424 0.0
C329 C 0.73934 0.33325 0.33598 0.0
C330 C 0.72042 0.32938 0.33986 0.0
C331 C 0.74813 0.3267 0.35008 0.0
C332 C 0.76834 0.33093 0.34738 0.0
C333 C 0.78392 0.35012 0.34509 0.0
C334 C 0.80291 0.35397 0.34244 0.0
C335 C 0.80654 0.33875 0.34221 0.0
C336 C 0.79117 0.31966 0.34468 0.0
C337 C 0.77215 0.31573 0.34731 0.0
H338 H 0.82125 0.34177 0.34016 0.0
H339 H 0.6368 0.30373 0.3674 0.0
H340 H 0.45052 0.66544 0.72472 0.0
H341 H 0.44875 0.68442 0.69665 0.0
H342 H 0.43308 0.71514 0.73857 0.0
H343 H 0.43509 0.69634 0.76691 0.0
H344 H 0.41057 0.70453 0.70436 0.0
H345 H 0.47845 0.73712 0.71955 0.0
H346 H 0.51011 0.73998 0.72629 0.0
H347 H 0.50971 0.71839 0.66663 0.0
H348 H 0.47789 0.71513 0.65964 0.0
H349 H 0.4233 0.7743 0.62862 0.0
H350 H 0.42683 0.75974 0.65993 0.0
H351 H 0.44429 0.72621 0.62468 0.0
H352 H 0.44135 0.74108 0.59346 0.0
H353 H 0.46682 0.74091 0.65764 0.0
H354 H 0.39785 0.70621 0.64356 0.0
H355 H 0.36606 0.70315 0.63695 0.0
H356 H 0.36866 0.72891 0.69474 0.0
H357 H 0.40061 0.73237 0.70156 0.0
C358 C 0.44691 0.67638 0.72807 0.0
C359 C 0.44314 0.67946 0.74816 0.0
C360 C 0.44585 0.68719 0.71196 0.0
C361 C 0.44104 0.7014 0.71551 0.0
C362 C 0.43684 0.70427 0.73546 0.0
C363 C 0.43794 0.69346 0.75164 0.0
C364 C 0.44041 0.71316 0.69831 0.0
C365 C 0.42298 0.71276 0.69435 0.0
C366 C 0.45649 0.72369 0.68505 0.0
C367 C 0.4757 0.72573 0.68914 0.0
C368 C 0.48504 0.73284 0.70792 0.0
C369 C 0.50303 0.73456 0.71178 0.0
C370 C 0.5119 0.72933 0.69691 0.0
C371 C 0.50281 0.72242 0.67814 0.0
C372 C 0.48481 0.72065 0.67422 0.0
C373 C 0.42811 0.76399 0.62756 0.0
C374 C 0.43191 0.75876 0.60849 0.0
C375 C 0.42995 0.75555 0.64546 0.0
C376 C 0.43559 0.74168 0.64466 0.0
C377 C 0.43984 0.7368 0.6257 0.0
C378 C 0.43799 0.7452 0.60783 0.0
C379 C 0.43688 0.732 0.66347 0.0
C380 C 0.45446 0.73282 0.66775 0.0
C381 C 0.42094 0.72189 0.67702 0.0
C382 C 0.40171 0.71975 0.67297 0.0
C383 C 0.39171 0.71137 0.65478 0.0
C384 C 0.37366 0.70953 0.65101 0.0
C385 C 0.36537 0.71588 0.66539 0.0
C386 C 0.37511 0.72403 0.6836 0.0
C387 C 0.39318 0.72592 0.68743 0.0
H388 H 0.35139 0.71445 0.66244 0.0
H389 H 0.52583 0.73067 0.69993 0.0
H390 H 0.77058 0.44523 0.09553 0.0
H391 H 0.74989 0.44355 0.06721 0.0
H392 H 0.76088 0.40278 0.03683 0.0
H393 H 0.78163 0.4045 0.06498 0.0
H394 H 0.7656 0.43013 1.01124 0.0
H395 H 0.71639 0.38917 0.05998 0.0
H396 H 0.69937 0.38093 0.09305 0.0
H397 H 0.68792 0.42715 0.08547 0.0
H398 H 0.70511 0.43583 0.05246 0.0
H399 H 0.69481 0.39566 0.93433 0.0
H400 H 0.71256 0.39778 0.96531 0.0
H401 H 0.70254 0.44197 0.98818 0.0
H402 H 0.68492 0.44016 0.95694 0.0
H403 H 0.69744 0.41498 1.01794 0.0
H404 H 0.74583 0.45528 0.96887 0.0
H405 H 0.76257 0.46332 0.93566 0.0
H406 H 0.77553 0.41822 0.94404 0.0
H407 H 0.75861 0.40972 0.97719 0.0
C408 C 0.76836 0.4357 0.08294 0.0
C409 C 0.77782 0.42505 0.08249 0.0
C410 C 0.75652 0.43475 0.06675 0.0
C411 C 0.75371 0.42296 0.04988 0.0
C412 C 0.76288 0.41207 0.04959 0.0
C413 C 0.77478 0.41309 0.06569 0.0
C414 C 0.74194 0.4225 0.03209 0.0
C415 C 0.75061 0.42656 1.01273 0.0
C416 C 0.72257 0.41848 0.03402 0.0
C417 C 0.71223 0.41328 0.05385 0.0
C418 C 0.71039 0.39768 0.06544 0.0
C419 C 0.70068 0.39291 0.08416 0.0
C420 C 0.69262 0.40355 0.09138 0.0
C421 C 0.6942 0.41895 0.07987 0.0
C422 C 0.70391 0.42379 0.06115 0.0
C423 C 0.69647 0.40596 0.94584 0.0
C424 C 0.68864 0.41794 0.94296 0.0
C425 C 0.70656 0.40708 0.96361 0.0
C426 C 0.70912 0.42022 0.97895 0.0
C427 C 0.70076 0.43174 0.97652 0.0
C428 C 0.69066 0.43066 0.95867 0.0
C429 C 0.72103 0.42222 0.99717 0.0
C430 C 0.71244 0.41857 1.01654 0.0
C431 C 0.7405 0.42661 0.99531 0.0
C432 C 0.7508 0.43176 0.97544 0.0
C433 C 0.75212 0.44698 0.96356 0.0
C434 C 0.76167 0.45164 0.94476 0.0
C435 C 0.77007 0.44126 0.93772 0.0
C436 C 0.769 0.42623 0.9495 0.0
C437 C 0.75945 0.4215 0.96831 0.0
H438 H 0.77746 0.44488 0.92316 0.0
H439 H 0.6851 0.39983 0.10587 0.0
H440 H 0.36254 0.78816 0.40554 0.0
H441 H 0.34436 0.76647 0.37761 0.0
H442 H 0.36651 0.72947 0.39405 0.0
H443 H 0.38533 0.75151 0.42164 0.0
H444 H 0.36897 0.73554 0.35399 0.0
H445 H 0.3191 0.7163 0.40429 0.0
H446 H 0.29922 0.72098 0.42961 0.0
H447 H 0.279 0.74413 0.38322 0.0
H448 H 0.29898 0.73984 0.35765 0.0
H449 H 0.3068 0.65926 0.28781 0.0
H450 H 0.32234 0.67771 0.31858 0.0
H451 H 0.30193 0.71663 0.3044 0.0
H452 H 0.28628 0.69817 0.27363 0.0
H453 H 0.2981 0.7083 0.34427 0.0
H454 H 0.34914 0.72891 0.29442 0.0
H455 H 0.36904 0.72427 0.26908 0.0
H456 H 0.38709 0.69855 0.31485 0.0
H457 H 0.36708 0.7028 0.34042 0.0
C458 C 0.36365 0.77547 0.40318 0.0
C459 C 0.37546 0.77163 0.41586 0.0
C460 C 0.35305 0.76295 0.38731 0.0
C461 C 0.35386 0.74619 0.38383 0.0
C462 C 0.36558 0.74226 0.39647 0.0
C463 C 0.37621 0.7548 0.41236 0.0
C464 C 0.34299 0.73314 0.36658 0.0
C465 C 0.35341 0.72932 0.35207 0.0
C466 C 0.32276 0.72536 0.36376 0.0
C467 C 0.31068 0.72791 0.37909 0.0
C468 C 0.31053 0.72253 0.39951 0.0
C469 C 0.29922 0.72508 0.41391 0.0
C470 C 0.28789 0.73289 0.40804 0.0
C471 C 0.2878 0.7381 0.38774 0.0
C472 C 0.2991 0.73559 0.37329 0.0
C473 C 0.30565 0.67177 0.29121 0.0
C474 C 0.29541 0.67732 0.27816 0.0
C475 C 0.31454 0.68231 0.30883 0.0
C476 C 0.31358 0.69877 0.31368 0.0
C477 C 0.30289 0.704 0.301 0.0
C478 C 0.29391 0.69341 0.28342 0.0
C479 C 0.32411 0.71079 0.33167 0.0
C480 C 0.31364 0.71443 0.34628 0.0
C481 C 0.34431 0.71843 0.33459 0.0
C482 C 0.35646 0.716 0.31928 0.0
C483 C 0.35725 0.72214 0.29905 0.0
C484 C 0.36856 0.7196 0.28465 0.0
C485 C 0.37928 0.71108 0.29034 0.0
C486 C 0.37876 0.70513 0.31046 0.0
C487 C 0.36744 0.70761 0.32491 0.0
H488 H 0.38803 0.70912 0.27917 0.0
H489 H 0.27914 0.73485 0.4192 0.0
H490 H 0.59128 0.35423 0.73898 0.0
H491 H 0.5928 0.33399 0.71247 0.0
H492 H 0.65111 0.35094 0.73102 0.0
H493 H 0.64995 0.37181 0.75724 0.0
H494 H 0.64855 0.35159 0.69017 0.0
H495 H 0.61266 0.30631 0.7434 0.0
H496 H 0.58678 0.29007 0.76926 0.0
H497 H 0.54318 0.2712 0.72273 0.0
H498 H 0.56879 0.28756 0.69661 0.0
H499 H 0.65105 0.2785 0.63124 0.0
H500 H 0.65215 0.29934 0.6588 0.0
H501 H 0.59304 0.28362 0.64549 0.0
H502 H 0.5918 0.26266 0.61809 0.0
H503 H 0.59741 0.28211 0.685 0.0
H504 H 0.63337 0.32858 0.63192 0.0
H505 H 0.6593 0.34496 0.60613 0.0
H506 H 0.70285 0.36158 0.65242 0.0
H507 H 0.67716 0.34508 0.67846 0.0
C508 C 0.60452 0.35382 0.73734 0.0
C509 C 0.62051 0.3647 0.75027 0.0
C510 C 0.60528 0.34205 0.72229 0.0
C511 C 0.62198 0.34073 0.71988 0.0
C512 C 0.63804 0.35166 0.73264 0.0
C513 C 0.63728 0.36346 0.74774 0.0
C514 C 0.62266 0.32807 0.7039 0.0
C515 C 0.63754 0.33633 0.68921 0.0
C516 C 0.6081 0.30822 0.7024 0.0
C517 C 0.59265 0.2983 0.71807 0.0
C518 C 0.59755 0.29882 0.7387 0.0
C519 C 0.58293 0.28957 0.7534 0.0
C520 C 0.56335 0.27965 0.74764 0.0
C521 C 0.55835 0.27891 0.72716 0.0
C522 C 0.57292 0.28815 0.7124 0.0
C523 C 0.63836 0.27965 0.63405 0.0
C524 C 0.62133 0.2689 0.62246 0.0
C525 C 0.639 0.29157 0.64983 0.0
C526 C 0.62273 0.29322 0.65416 0.0
C527 C 0.60576 0.28256 0.64253 0.0
C528 C 0.60506 0.27055 0.62687 0.0
C529 C 0.62314 0.30568 0.67105 0.0
C530 C 0.60847 0.29736 0.68596 0.0
C531 C 0.63789 0.32546 0.67273 0.0
C532 C 0.65334 0.33542 0.6571 0.0
C533 C 0.64848 0.3356 0.63658 0.0
C534 C 0.66313 0.34493 0.62192 0.0
C535 C 0.68271 0.35426 0.62763 0.0
C536 C 0.68768 0.35432 0.64802 0.0
C537 C 0.67308 0.345 0.66273 0.0
H538 H 0.69403 0.36147 0.61626 0.0
H539 H 0.55205 0.2725 0.75905 0.0
H540 H 0.11105 0.59026 0.19969 0.0
H541 H 0.07556 0.57175 0.1973 0.0
H542 H 0.07728 0.52159 0.17799 0.0
H543 H 0.1129 0.54003 0.18045 0.0
H544 H 0.05036 0.52582 0.15642 0.0
H545 H 0.06639 0.52498 0.22659 0.0
H546 H 0.08258 0.53935 0.25914 0.0
H547 H 0.05342 0.57151 0.26186 0.0
H548 H 0.03726 0.55754 0.22916 0.0
H549 H 0.95015 0.45673 0.17832 0.0
H550 H 0.98574 0.47516 0.1759 0.0
H551 H 0.98681 0.5257 0.19905 0.0
H552 H 0.95128 0.50731 0.20164 0.0
H553 H 1.01252 0.52058 0.21833 0.0
H554 H 0.99633 0.52138 0.14813 0.0
H555 H 0.98033 0.5072 0.11545 0.0
H556 H 1.0096 0.47515 0.11264 0.0
H557 H 1.02559 0.48894 0.14546 0.0
C558 C 0.10391 0.57527 0.19499 0.0
C559 C 0.11485 0.56658 0.1905 0.0
C560 C 0.0836 0.56472 0.19357 0.0
C561 C 0.07371 0.54518 0.18778 0.0
C562 C 0.08458 0.53664 0.18253 0.0
C563 C 0.10496 0.54722 0.18391 0.0
C564 C 0.05203 0.53355 0.18795 0.0
C565 C 0.04206 0.52445 0.17001 0.0
C566 C 0.04118 0.53204 0.20559 0.0
C567 C 0.05075 0.54035 0.22534 0.0
C568 C 0.06354 0.53523 0.23406 0.0
C569 C 0.07269 0.54328 0.25254 0.0
C570 C 0.06906 0.55637 0.26254 0.0
C571 C 0.05623 0.56139 0.25409 0.0
C572 C 0.04706 0.55339 0.23559 0.0
C573 C 0.95795 0.47185 0.18261 0.0
C574 C 0.94786 0.48053 0.19023 0.0
C575 C 0.97832 0.48239 0.18121 0.0
C576 C 0.98902 0.50191 0.18716 0.0
C577 C 0.97893 0.51066 0.19444 0.0
C578 C 0.9586 0.50012 0.19595 0.0
C579 C 1.01074 0.51299 0.18671 0.0
C580 C 1.02075 0.52194 0.20468 0.0
C581 C 1.02158 0.51434 0.1691 0.0
C582 C 1.012 0.50605 0.14936 0.0
C583 C 0.99923 0.51119 0.14063 0.0
C584 C 0.99019 0.50325 0.12207 0.0
C585 C 0.9939 0.49025 0.11201 0.0
C586 C 1.00671 0.4852 0.12047 0.0
C587 C 1.01578 0.49309 0.13904 0.0
H588 H 0.98689 0.48412 0.09763 0.0
H589 H 0.07617 0.5626 0.27685 0.0
H590 H 0.5521 0.10357 0.52786 0.0
H591 H 0.53337 0.06823 0.53122 0.0
H592 H 0.57959 0.065 0.50149 0.0
H593 H 0.59842 0.10027 0.49819 0.0
H594 H 0.54485 0.03883 0.48614 0.0
H595 H 0.57226 0.05846 0.55309 0.0
H596 H 0.57916 0.07627 0.58535 0.0
H597 H 0.51786 0.04838 0.5978 0.0
H598 H 0.51058 0.03059 0.56547 0.0
H599 H 0.5158 0.94145 0.50925 0.0
H600 H 0.53307 0.97673 0.5061 0.0
H601 H 0.48666 0.97744 0.53856 0.0
H602 H 0.46942 0.94213 0.54196 0.0
H603 H 0.52043 1.00495 0.55238 0.0
H604 H 0.49276 0.98481 0.48609 0.0
H605 H 0.48548 0.96704 0.45377 0.0
H606 H 0.54657 0.9959 0.43985 0.0
H607 H 0.55424 1.01366 0.47223 0.0
C608 C 0.55838 0.09536 0.52226 0.0
C609 C 0.57677 0.1048 0.51273 0.0
C610 C 0.54763 0.07514 0.52415 0.0
C611 C 0.5551 0.06392 0.51671 0.0
C612 C 0.57346 0.07331 0.50726 0.0
C613 C 0.5842 0.0935 0.50534 0.0
C614 C 0.54372 0.0424 0.51844 0.0
C615 C 0.53972 0.03142 0.50066 0.0
C616 C 0.53652 0.03269 0.5373 0.0
C617 C 0.54087 0.04335 0.55676 0.0
C618 C 0.56025 0.05624 0.56263 0.0
C619 C 0.56423 0.06631 0.58094 0.0
C620 C 0.54896 0.0635 0.59359 0.0
C621 C 0.52967 0.05057 0.58797 0.0
C622 C 0.52561 0.04048 0.56966 0.0
C623 C 0.50916 0.94909 0.51551 0.0
C624 C 0.49119 0.93895 0.5258 0.0
C625 C 0.51905 0.96929 0.5137 0.0
C626 C 0.51108 0.9798 0.52187 0.0
C627 C 0.49314 0.9697 0.53215 0.0
C628 C 0.4833 0.94951 0.5341 0.0
C629 C 0.52166 1.00134 0.52008 0.0
C630 C 0.5255 1.01233 0.53784 0.0
C631 C 0.52865 1.01107 0.50118 0.0
C632 C 0.52408 1.00044 0.48168 0.0
C633 C 0.50465 0.98726 0.47621 0.0
C634 C 0.50045 0.97721 0.45787 0.0
C635 C 0.51555 0.9803 0.44479 0.0
C636 C 0.53489 0.9935 0.45001 0.0
C637 C 0.53917 1.00358 0.46834 0.0
H638 H 0.51227 0.97251 0.43059 0.0
H639 H 0.55207 0.0713 0.60776 0.0
H640 H 0.51118 0.58377 0.84472 0.0
H641 H 0.52924 0.56692 0.84192 0.0
H642 H 0.48109 0.51594 0.86943 0.0
H643 H 0.46293 0.5326 0.87215 0.0
H644 H 0.51469 0.52476 0.88711 0.0
H645 H 0.49142 0.51809 0.81841 0.0
H646 H 0.48668 0.52965 0.78532 0.0
H647 H 0.54864 0.56385 0.77659 0.0
H648 H 0.55375 0.5527 0.80978 0.0
H649 H 0.54465 0.45771 0.87136 0.0
H650 H 0.52652 0.47447 0.86928 0.0
H651 H 0.57602 0.52364 0.84096 0.0
H652 H 0.59423 0.50683 0.84285 0.0
H653 H 0.54281 0.51679 0.82333 0.0
H654 H 0.56636 0.52391 0.89157 0.0
H655 H 0.57162 0.51284 0.9247 0.0
H656 H 0.50981 0.47872 0.9345 0.0
H657 H 0.50416 0.48938 0.90127 0.0
C658 C 0.50431 0.56888 0.84989 0.0
C659 C 0.48562 0.55959 0.85877 0.0
C660 C 0.51468 0.55926 0.8483 0.0
C661 C 0.50651 0.54011 0.8554 0.0
C662 C 0.48775 0.53073 0.86394 0.0
C663 C 0.47741 0.54032 0.86555 0.0
C664 C 0.51775 0.53006 0.8548 0.0
C665 C 0.52059 0.52279 0.8731 0.0
C666 C 0.52602 0.52801 0.83664 0.0
C667 C 0.52297 0.53472 0.81668 0.0
C668 C 0.50403 0.52821 0.80952 0.0
C669 C 0.50128 0.53466 0.79073 0.0
C670 C 0.51735 0.54752 0.77889 0.0
C671 C 0.53621 0.55391 0.78579 0.0
C672 C 0.53904 0.54752 0.80459 0.0
C673 C 0.5517 0.4721 0.8647 0.0
C674 C 0.57096 0.481 0.85746 0.0
C675 C 0.5413 0.48167 0.8635 0.0
C676 C 0.55001 0.50048 0.8553 0.0
C677 C 0.569 0.50916 0.84739 0.0
C678 C 0.57938 0.49952 0.84846 0.0
C679 C 0.53949 0.51127 0.8556 0.0
C680 C 0.53687 0.51876 0.83731 0.0
C681 C 0.53149 0.51363 0.87379 0.0
C682 C 0.53484 0.50731 0.89385 0.0
C683 C 0.55388 0.51394 0.90073 0.0
C684 C 0.55694 0.50775 0.91953 0.0
C685 C 0.54106 0.49504 0.93168 0.0
C686 C 0.52209 0.48854 0.92506 0.0
C687 C 0.51895 0.49466 0.90625 0.0
H688 H 0.54345 0.49027 0.94623 0.0
H689 H 0.51519 0.55249 0.76434 0.0
loop_
_geom_bond_atom_site_label_1
_geom_bond_atom_site_label_2
_geom_bond_distance
_geom_bond_site_symmetry_2
_ccdc_geom_bond_type
C0 C1 1.264 . S
C0 C5 1.479 . S
C0 C10 1.465 . S
C1 C0 1.264 . S
C1 C3 1.339 . S
C1 H28 0.931 . S
C2 C3 1.395 . S
C2 C4 1.320 . S
C3 C1 1.339 . S
C3 C2 1.395 . S
C3 H29 0.929 . S
C4 C2 1.320 . S
C4 C5 1.405 . S
C4 H30 0.930 . S
C5 C0 1.479 . S
C5 C4 1.405 . S
C5 H31 0.931 . S
U6 O7 2.454 . S
U6 O8 2.458 . S
U6 C9 2.984 . S
U6 C10 2.847 . S
U6 C23 2.882 . S
U6 O24 2.441 . S
U6 O25 2.420 . S
U6 O26 2.455 . S
U6 O27 2.449 . S
O7 U6 2.454 . S
O7 C9 1.353 . S
O8 U6 2.458 . S
O8 C9 1.286 . S
C9 U6 2.984 . S
C9 O7 1.353 . S
C9 O8 1.286 . S
C9 C11 1.363 . S
C10 C0 1.465 . S
C10 U6 2.847 . S
C10 O24 1.249 . S
C10 O25 1.202 . S
C11 C9 1.363 . S
C11 C13 1.408 . S
C11 C16 1.342 . S
C12 C13 1.310 . S
C12 C15 1.461 . S
C12 H32 0.932 . S
C13 C11 1.408 . S
C13 C12 1.310 . S
C13 H33 0.930 . S
C14 C15 1.474 . S
C14 C16 1.285 . S
C14 H34 0.929 . S
C15 C12 1.461 . S
C15 C14 1.474 . S
C16 C11 1.342 . S
C16 C14 1.285 . S
C16 H35 0.930 . S
C17 C20 1.424 . S
C17 C22 1.245 . S
C17 C23 1.428 . S
C18 C21 1.260 . S
C18 C22 1.477 . S
C18 H36 0.932 . S
C19 C20 1.384 . S
C19 C21 1.479 . S
C19 H37 0.929 . S
C20 C17 1.424 . S
C20 C19 1.384 . S
C20 H38 0.928 . S
C21 C18 1.260 . S
C21 C19 1.479 . S
C22 C17 1.245 . S
C22 C18 1.477 . S
C22 H39 0.932 . S
C23 U6 2.882 . S
C23 C17 1.428 . S
C23 O26 1.301 . S
C23 O27 1.282 . S
O24 U6 2.441 . S
O24 C10 1.249 . S
O25 U6 2.420 . S
O25 C10 1.202 . S
O26 U6 2.455 . S
O26 C23 1.301 . S
O27 U6 2.449 . S
O27 C23 1.282 . S
H28 C1 0.931 . S
H29 C3 0.929 . S
H30 C4 0.930 . S
H31 C5 0.931 . S
H32 C12 0.932 . S
H33 C13 0.930 . S
H34 C14 0.929 . S
H35 C16 0.930 . S
H36 C18 0.932 . S
H37 C19 0.929 . S
H38 C20 0.928 . S
H39 C22 0.932 . S
C40 C41 1.264 . S
C40 C45 1.479 . S
C40 C50 1.465 . S
C41 C40 1.264 . S
C41 C43 1.339 . S
C41 H68 0.931 . S
C42 C43 1.395 . S
C42 C44 1.320 . S
C43 C41 1.339 . S
C43 C42 1.395 . S
C43 H69 0.929 . S
C44 C42 1.320 . S
C44 C45 1.405 . S
C44 H70 0.930 . S
C45 C40 1.479 . S
C45 C44 1.405 . S
C45 H71 0.931 . S
U46 O47 2.454 . S
U46 O48 2.458 . S
U46 C49 2.984 . S
U46 C50 2.847 . S
U46 C63 2.882 . S
U46 O64 2.441 . S
U46 O65 2.420 . S
U46 O66 2.455 . S
U46 O67 2.449 . S
O47 U46 2.454 . S
O47 C49 1.353 . S
O48 U46 2.458 . S
O48 C49 1.286 . S
C49 U46 2.984 . S
C49 O47 1.353 . S
C49 O48 1.286 . S
C49 C51 1.363 . S
C50 C40 1.465 . S
C50 U46 2.847 . S
C50 O64 1.249 . S
C50 O65 1.202 . S
C51 C49 1.363 . S
C51 C53 1.408 . S
C51 C56 1.342 . S
C52 C53 1.310 . S
C52 C55 1.461 . S
C52 H72 0.932 . S
C53 C51 1.408 . S
C53 C52 1.310 . S
C53 H73 0.930 . S
C54 C55 1.474 . S
C54 C56 1.285 . S
C54 H74 0.929 . S
C55 C52 1.461 . S
C55 C54 1.474 . S
C56 C51 1.342 . S
C56 C54 1.285 . S
C56 H75 0.930 . S
C57 C60 1.424 . S
C57 C62 1.245 . S
C57 C63 1.428 . S
C58 C61 1.260 . S
C58 C62 1.477 . S
C58 H76 0.932 . S
C59 C60 1.384 . S
C59 C61 1.479 . S
C59 H77 0.929 . S
C60 C57 1.424 . S
C60 C59 1.384 . S
C60 H78 0.928 . S
C61 C58 1.260 . S
C61 C59 1.479 . S
C62 C57 1.245 . S
C62 C58 1.477 . S
C62 H79 0.932 . S
C63 U46 2.882 . S
C63 C57 1.428 . S
C63 O66 1.301 . S
C63 O67 1.282 . S
O64 U46 2.441 . S
O64 C50 1.249 . S
O65 U46 2.420 . S
O65 C50 1.202 . S
O66 U46 2.455 . S
O66 C63 1.301 . S
O67 U46 2.449 . S
O67 C63 1.282 . S
H68 C41 0.931 . S
H69 C43 0.929 . S
H70 C44 0.930 . S
H71 C45 0.931 . S
H72 C52 0.932 . S
H73 C53 0.930 . S
H74 C54 0.929 . S
H75 C56 0.930 . S
H76 C58 0.932 . S
H77 C59 0.929 . S
H78 C60 0.928 . S
H79 C62 0.932 . S
C80 C81 1.264 . S
C80 C85 1.479 . S
C80 C90 1.465 . S
C81 C80 1.264 . S
C81 C83 1.339 . S
C81 H108 0.931 . S
C82 C83 1.395 . S
C82 C84 1.320 . S
C83 C81 1.339 . S
C83 C82 1.395 . S
C83 H109 0.929 . S
C84 C82 1.320 . S
C84 C85 1.405 . S
C84 H110 0.930 . S
C85 C80 1.479 . S
C85 C84 1.405 . S
C85 H111 0.931 . S
U86 O87 2.454 . S
U86 O88 2.458 . S
U86 C89 2.984 . S
U86 C90 2.847 . S
U86 C103 2.882 . S
U86 O104 2.441 . S
U86 O105 2.420 . S
U86 O106 2.455 . S
U86 O107 2.449 . S
O87 U86 2.454 . S
O87 C89 1.353 . S
O88 U86 2.458 . S
O88 C89 1.286 . S
C89 U86 2.984 . S
C89 O87 1.353 . S
C89 O88 1.286 . S
C89 C91 1.363 . S
C90 C80 1.465 . S
C90 U86 2.847 . S
C90 O104 1.249 . S
C90 O105 1.202 . S
C91 C89 1.363 . S
C91 C93 1.408 . S
C91 C96 1.342 . S
C92 C93 1.310 . S
C92 C95 1.461 . S
C92 H112 0.932 . S
C93 C91 1.408 . S
C93 C92 1.310 . S
C93 H113 0.930 . S
C94 C95 1.474 . S
C94 C96 1.285 . S
C94 H114 0.929 . S
C95 C92 1.461 . S
C95 C94 1.474 . S
C96 C91 1.342 . S
C96 C94 1.285 . S
C96 H115 0.930 . S
C97 C100 1.424 . S
C97 C102 1.245 . S
C97 C103 1.428 . S
C98 C101 1.260 . S
C98 C102 1.477 . S
C98 H116 0.932 . S
C99 C100 1.384 . S
C99 C101 1.479 . S
C99 H117 0.929 . S
C100 C97 1.424 . S
C100 C99 1.384 . S
C100 H118 0.928 . S
C101 C98 1.260 . S
C101 C99 1.479 . S
C102 C97 1.245 . S
C102 C98 1.477 . S
C102 H119 0.932 . S
C103 U86 2.882 . S
C103 C97 1.428 . S
C103 O106 1.301 . S
C103 O107 1.282 . S
O104 U86 2.441 . S
O104 C90 1.249 . S
O105 U86 2.420 . S
O105 C90 1.202 . S
O106 U86 2.455 . S
O106 C103 1.301 . S
O107 U86 2.449 . S
O107 C103 1.282 . S
H108 C81 0.931 . S
H109 C83 0.929 . S
H110 C84 0.930 . S
H111 C85 0.931 . S
H112 C92 0.932 . S
H113 C93 0.930 . S
H114 C94 0.929 . S
H115 C96 0.930 . S
H116 C98 0.932 . S
H117 C99 0.929 . S
H118 C100 0.928 . S
H119 C102 0.932 . S
C120 C121 1.264 . S
C120 C125 1.479 . S
C120 C130 1.465 . S
C121 C120 1.264 . S
C121 C123 1.339 . S
C121 H148 0.931 . S
C122 C123 1.395 . S
C122 C124 1.320 . S
C123 C121 1.339 . S
C123 C122 1.395 . S
C123 H149 0.929 . S
C124 C122 1.320 . S
C124 C125 1.405 . S
C124 H150 0.930 . S
C125 C120 1.479 . S
C125 C124 1.405 . S
C125 H151 0.931 . S
U126 O127 2.454 . S
U126 O128 2.458 . S
U126 C129 2.984 . S
U126 C130 2.847 . S
U126 C143 2.882 . S
U126 O144 2.441 . S
U126 O145 2.420 . S
U126 O146 2.455 . S
U126 O147 2.449 . S
O127 U126 2.454 . S
O127 C129 1.353 . S
O128 U126 2.458 . S
O128 C129 1.286 . S
C129 U126 2.984 . S
C129 O127 1.353 . S
C129 O128 1.286 . S
C129 C131 1.363 . S
C130 C120 1.465 . S
C130 U126 2.847 . S
C130 O144 1.249 . S
C130 O145 1.202 . S
C131 C129 1.363 . S
C131 C133 1.408 . S
C131 C136 1.342 . S
C132 C133 1.310 . S
C132 C135 1.461 . S
C132 H152 0.932 . S
C133 C131 1.408 . S
C133 C132 1.310 . S
C133 H153 0.930 . S
C134 C135 1.474 . S
C134 C136 1.285 . S
C134 H154 0.929 . S
C135 C132 1.461 . S
C135 C134 1.474 . S
C136 C131 1.342 . S
C136 C134 1.285 . S
C136 H155 0.930 . S
C137 C140 1.424 . S
C137 C142 1.245 . S
C137 C143 1.428 . S
C138 C141 1.260 . S
C138 C142 1.477 . S
C138 H156 0.932 . S
C139 C140 1.384 . S
C139 C141 1.479 . S
C139 H157 0.929 . S
C140 C137 1.424 . S
C140 C139 1.384 . S
C140 H158 0.928 . S
C141 C138 1.260 . S
C141 C139 1.479 . S
C142 C137 1.245 . S
C142 C138 1.477 . S
C142 H159 0.932 . S
C143 U126 2.882 . S
C143 C137 1.428 . S
C143 O146 1.301 . S
C143 O147 1.282 . S
O144 U126 2.441 . S
O144 C130 1.249 . S
O145 U126 2.420 . S
O145 C130 1.202 . S
O146 U126 2.455 . S
O146 C143 1.301 . S
O147 U126 2.449 . S
O147 C143 1.282 . S
H148 C121 0.931 . S
H149 C123 0.929 . S
H150 C124 0.930 . S
H151 C125 0.931 . S
H152 C132 0.932 . S
H153 C133 0.930 . S
H154 C134 0.929 . S
H155 C136 0.930 . S
H156 C138 0.932 . S
H157 C139 0.929 . S
H158 C140 0.928 . S
H159 C142 0.932 . S
C160 C161 1.264 . S
C160 C165 1.479 . S
C160 C170 1.465 . S
C161 C160 1.264 . S
C161 C163 1.339 . S
C161 H188 0.931 . S
C162 C163 1.395 . S
C162 C164 1.320 . S
C163 C161 1.339 . S
C163 C162 1.395 . S
C163 H189 0.929 . S
C164 C162 1.320 . S
C164 C165 1.405 . S
C164 H190 0.930 . S
C165 C160 1.479 . S
C165 C164 1.405 . S
C165 H191 0.931 . S
U166 O167 2.454 . S
U166 O168 2.458 . S
U166 C169 2.984 . S
U166 C170 2.847 . S
U166 C183 2.882 . S
U166 O184 2.441 . S
U166 O185 2.420 . S
U166 O186 2.455 . S
U166 O187 2.449 . S
O167 U166 2.454 . S
O167 C169 1.353 . S
O168 U166 2.458 . S
O168 C169 1.286 . S
C169 U166 2.984 . S
C169 O167 1.353 . S
C169 O168 1.286 . S
C169 C171 1.363 . S
C170 C160 1.465 . S
C170 U166 2.847 . S
C170 O184 1.249 . S
C170 O185 1.202 . S
C171 C169 1.363 . S
C171 C173 1.408 . S
C171 C176 1.342 . S
C172 C173 1.310 . S
C172 C175 1.461 . S
C172 H192 0.932 . S
C173 C171 1.408 . S
C173 C172 1.310 . S
C173 H193 0.930 . S
C174 C175 1.474 . S
C174 C176 1.285 . S
C174 H194 0.929 . S
C175 C172 1.461 . S
C175 C174 1.474 . S
C176 C171 1.342 . S
C176 C174 1.285 . S
C176 H195 0.930 . S
C177 C180 1.424 . S
C177 C182 1.245 . S
C177 C183 1.428 . S
C178 C181 1.260 . S
C178 C182 1.477 . S
C178 H196 0.932 . S
C179 C180 1.384 . S
C179 C181 1.479 . S
C179 H197 0.929 . S
C180 C177 1.424 . S
C180 C179 1.384 . S
C180 H198 0.928 . S
C181 C178 1.260 . S
C181 C179 1.479 . S
C182 C177 1.245 . S
C182 C178 1.477 . S
C182 H199 0.932 . S
C183 U166 2.882 . S
C183 C177 1.428 . S
C183 O186 1.301 . S
C183 O187 1.282 . S
O184 U166 2.441 . S
O184 C170 1.249 . S
O185 U166 2.420 . S
O185 C170 1.202 . S
O186 U166 2.455 . S
O186 C183 1.301 . S
O187 U166 2.449 . S
O187 C183 1.282 . S
H188 C161 0.931 . S
H189 C163 0.929 . S
H190 C164 0.930 . S
H191 C165 0.931 . S
H192 C172 0.932 . S
H193 C173 0.930 . S
H194 C174 0.929 . S
H195 C176 0.930 . S
H196 C178 0.932 . S
H197 C179 0.929 . S
H198 C180 0.928 . S
H199 C182 0.932 . S
C200 C201 1.264 . S
C200 C205 1.479 . S
C200 C210 1.465 . S
C201 C200 1.264 . S
C201 C203 1.339 . S
C201 H228 0.931 . S
C202 C203 1.395 . S
C202 C204 1.320 . S
C203 C201 1.339 . S
C203 C202 1.395 . S
C203 H229 0.929 . S
C204 C202 1.320 . S
C204 C205 1.405 . S
C204 H230 0.930 . S
C205 C200 1.479 . S
C205 C204 1.405 . S
C205 H231 0.931 . S
U206 O207 2.454 . S
U206 O208 2.458 . S
U206 C209 2.984 . S
U206 C210 2.847 . S
U206 C223 2.882 . S
U206 O224 2.441 . S
U206 O225 2.420 . S
U206 O226 2.455 . S
U206 O227 2.449 . S
O207 U206 2.454 . S
O207 C209 1.353 . S
O208 U206 2.458 . S
O208 C209 1.286 . S
C209 U206 2.984 . S
C209 O207 1.353 . S
C209 O208 1.286 . S
C209 C211 1.363 . S
C210 C200 1.465 . S
C210 U206 2.847 . S
C210 O224 1.249 . S
C210 O225 1.202 . S
C211 C209 1.363 . S
C211 C213 1.408 . S
C211 C216 1.342 . S
C212 C213 1.310 . S
C212 C215 1.461 . S
C212 H232 0.932 . S
C213 C211 1.408 . S
C213 C212 1.310 . S
C213 H233 0.930 . S
C214 C215 1.474 . S
C214 C216 1.285 . S
C214 H234 0.929 . S
C215 C212 1.461 . S
C215 C214 1.474 . S
C216 C211 1.342 . S
C216 C214 1.285 . S
C216 H235 0.930 . S
C217 C220 1.424 . S
C217 C222 1.245 . S
C217 C223 1.428 . S
C218 C221 1.260 . S
C218 C222 1.477 . S
C218 H236 0.932 . S
C219 C220 1.384 . S
C219 C221 1.479 . S
C219 H237 0.929 . S
C220 C217 1.424 . S
C220 C219 1.384 . S
C220 H238 0.928 . S
C221 C218 1.260 . S
C221 C219 1.479 . S
C222 C217 1.245 . S
C222 C218 1.477 . S
C222 H239 0.932 . S
C223 U206 2.882 . S
C223 C217 1.428 . S
C223 O226 1.301 . S
C223 O227 1.282 . S
O224 U206 2.441 . S
O224 C210 1.249 . S
O225 U206 2.420 . S
O225 C210 1.202 . S
O226 U206 2.455 . S
O226 C223 1.301 . S
O227 U206 2.449 . S
O227 C223 1.282 . S
H228 C201 0.931 . S
H229 C203 0.929 . S
H230 C204 0.930 . S
H231 C205 0.931 . S
H232 C212 0.932 . S
H233 C213 0.930 . S
H234 C214 0.929 . S
H235 C216 0.930 . S
H236 C218 0.932 . S
H237 C219 0.929 . S
H238 C220 0.928 . S
H239 C222 0.932 . S
H240 C258 0.951 . S
H241 C260 0.951 . S
H242 C262 0.950 . S
H243 C263 0.950 . S
H244 C265 0.950 . S
H245 C268 0.950 . S
H246 C269 0.950 . S
H247 C271 0.950 . S
H248 C272 0.950 . S
H249 C273 0.951 . S
H250 C275 0.951 . S
H251 C277 0.950 . S
H252 C278 0.950 . S
H253 C280 0.950 . S
H254 C283 0.950 . S
H255 C284 0.950 . S
H256 C286 0.950 . S
H257 C287 0.950 . S
C258 H240 0.951 . S
C258 C259 1.366 . S
C258 C260 1.388 . S
C259 C258 1.366 . S
C259 C263 1.385 . S
C260 H241 0.951 . S
C260 C258 1.388 . S
C260 C261 1.366 . S
C261 C260 1.366 . S
C261 C262 1.414 . S
C261 C264 1.499 . S
C262 H242 0.950 . S
C262 C261 1.414 . S
C262 C263 1.374 . S
C263 H243 0.950 . S
C263 C259 1.385 . S
C263 C262 1.374 . S
C264 C261 1.499 . S
C264 C265 1.373 . S
C264 C266 1.389 . S
C265 H244 0.950 . S
C265 C264 1.373 . S
C265 C281 1.377 1_556 S
C266 C264 1.389 . S
C266 C267 1.524 . S
C266 C280 1.377 1_556 S
C267 C266 1.524 . S
C267 C268 1.397 . S
C267 C272 1.363 . S
C268 H245 0.950 . S
C268 C267 1.397 . S
C268 C269 1.334 . S
C269 H246 0.950 . S
C269 C268 1.334 . S
C269 C270 1.287 . S
C270 C269 1.287 . S
C270 C271 1.524 . S
C270 H289 0.913 . S
C271 H247 0.950 . S
C271 C270 1.524 . S
C271 C272 1.415 . S
C272 H248 0.950 . S
C272 C267 1.363 . S
C272 C271 1.415 . S
C273 H249 0.951 . S
C273 C274 1.366 . S
C273 C275 1.388 . S
C274 C273 1.366 . S
C274 C278 1.385 . S
C275 H250 0.951 . S
C275 C273 1.388 . S
C275 C276 1.366 . S
C276 C275 1.366 . S
C276 C277 1.414 . S
C276 C279 1.499 . S
C277 H251 0.950 . S
C277 C276 1.414 . S
C277 C278 1.374 . S
C278 H252 0.950 . S
C278 C274 1.385 . S
C278 C277 1.374 . S
C279 C276 1.499 . S
C279 C280 1.373 . S
C279 C281 1.389 . S
C280 H253 0.950 . S
C280 C266 1.377 1_554 S
C280 C279 1.373 . S
C281 C265 1.377 1_554 S
C281 C279 1.389 . S
C281 C282 1.524 . S
C282 C281 1.524 . S
C282 C283 1.397 . S
C282 C287 1.363 . S
C283 H254 0.950 . S
C283 C282 1.397 . S
C283 C284 1.334 . S
C284 H255 0.950 . S
C284 C283 1.334 . S
C284 C285 1.287 . S
C285 C284 1.287 . S
C285 C286 1.524 . S
C285 H288 0.999 . S
C286 H256 0.950 . S
C286 C285 1.524 . S
C286 C287 1.415 . S
C287 H257 0.950 . S
C287 C282 1.363 . S
C287 C286 1.415 . S
H288 C285 0.999 . S
H289 C270 0.913 . S
H290 C308 0.951 . S
H291 C310 0.951 . S
H292 C312 0.950 . S
H293 C313 0.950 . S
H294 C315 0.950 . S
H295 C318 0.950 . S
H296 C319 0.950 . S
H297 C321 0.950 . S
H298 C322 0.950 . S
H299 C323 0.951 . S
H300 C325 0.951 . S
H301 C327 0.950 . S
H302 C328 0.950 . S
H303 C330 0.950 . S
H304 C333 0.950 . S
H305 C334 0.950 . S
H306 C336 0.950 . S
H307 C337 0.950 . S
C308 H290 0.951 . S
C308 C309 1.366 . S
C308 C310 1.388 . S
C309 C308 1.366 . S
C309 C313 1.385 . S
C310 H291 0.951 . S
C310 C308 1.388 . S
C310 C311 1.366 . S
C311 C310 1.366 . S
C311 C312 1.414 . S
C311 C314 1.499 . S
C312 H292 0.950 . S
C312 C311 1.414 . S
C312 C313 1.374 . S
C313 H293 0.950 . S
C313 C309 1.385 . S
C313 C312 1.374 . S
C314 C311 1.499 . S
C314 C315 1.373 . S
C314 C316 1.389 . S
C315 H294 0.950 . S
C315 C314 1.373 . S
C315 C331 1.377 . S
C316 C314 1.389 . S
C316 C317 1.524 . S
C316 C330 1.377 . S
C317 C316 1.524 . S
C317 C318 1.397 . S
C317 C322 1.363 . S
C318 H295 0.950 . S
C318 C317 1.397 . S
C318 C319 1.334 . S
C319 H296 0.950 . S
C319 C318 1.334 . S
C319 C320 1.287 . S
C320 C319 1.287 . S
C320 C321 1.524 . S
C320 H339 0.913 . S
C321 H297 0.950 . S
C321 C320 1.524 . S
C321 C322 1.415 . S
C322 H298 0.950 . S
C322 C317 1.363 . S
C322 C321 1.415 . S
C323 H299 0.951 . S
C323 C324 1.366 . S
C323 C325 1.388 . S
C324 C323 1.366 . S
C324 C328 1.385 . S
C325 H300 0.951 . S
C325 C323 1.388 . S
C325 C326 1.366 . S
C326 C325 1.366 . S
C326 C327 1.414 . S
C326 C329 1.499 . S
C327 H301 0.950 . S
C327 C326 1.414 . S
C327 C328 1.374 . S
C328 H302 0.950 . S
C328 C324 1.385 . S
C328 C327 1.374 . S
C329 C326 1.499 . S
C329 C330 1.373 . S
C329 C331 1.389 . S
C330 H303 0.950 . S
C330 C316 1.377 . S
C330 C329 1.373 . S
C331 C315 1.377 . S
C331 C329 1.389 . S
C331 C332 1.524 . S
C332 C331 1.524 . S
C332 C333 1.397 . S
C332 C337 1.363 . S
C333 H304 0.950 . S
C333 C332 1.397 . S
C333 C334 1.334 . S
C334 H305 0.950 . S
C334 C333 1.334 . S
C334 C335 1.287 . S
C335 C334 1.287 . S
C335 C336 1.524 . S
C335 H338 0.999 . S
C336 H306 0.950 . S
C336 C335 1.524 . S
C336 C337 1.415 . S
C337 H307 0.950 . S
C337 C332 1.363 . S
C337 C336 1.415 . S
H338 C335 0.999 . S
H339 C320 0.913 . S
H340 C358 0.951 . S
H341 C360 0.951 . S
H342 C362 0.950 . S
H343 C363 0.950 . S
H344 C365 0.950 . S
H345 C368 0.950 . S
H346 C369 0.950 . S
H347 C371 0.950 . S
H348 C372 0.950 . S
H349 C373 0.951 . S
H350 C375 0.951 . S
H351 C377 0.950 . S
H352 C378 0.950 . S
H353 C380 0.950 . S
H354 C383 0.950 . S
H355 C384 0.950 . S
H356 C386 0.950 . S
H357 C387 0.950 . S
C358 H340 0.951 . S
C358 C359 1.366 . S
C358 C360 1.388 . S
C359 C358 1.366 . S
C359 C363 1.385 . S
C360 H341 0.951 . S
C360 C358 1.388 . S
C360 C361 1.366 . S
C361 C360 1.366 . S
C361 C362 1.414 . S
C361 C364 1.499 . S
C362 H342 0.950 . S
C362 C361 1.414 . S
C362 C363 1.374 . S
C363 H343 0.950 . S
C363 C359 1.385 . S
C363 C362 1.374 . S
C364 C361 1.499 . S
C364 C365 1.373 . S
C364 C366 1.389 . S
C365 H344 0.950 . S
C365 C364 1.373 . S
C365 C381 1.377 . S
C366 C364 1.389 . S
C366 C367 1.524 . S
C366 C380 1.377 . S
C367 C366 1.524 . S
C367 C368 1.397 . S
C367 C372 1.363 . S
C368 H345 0.950 . S
C368 C367 1.397 . S
C368 C369 1.334 . S
C369 H346 0.950 . S
C369 C368 1.334 . S
C369 C370 1.287 . S
C370 C369 1.287 . S
C370 C371 1.524 . S
C370 H389 0.913 . S
C371 H347 0.950 . S
C371 C370 1.524 . S
C371 C372 1.415 . S
C372 H348 0.950 . S
C372 C367 1.363 . S
C372 C371 1.415 . S
C373 H349 0.951 . S
C373 C374 1.366 . S
C373 C375 1.388 . S
C374 C373 1.366 . S
C374 C378 1.385 . S
C375 H350 0.951 . S
C375 C373 1.388 . S
C375 C376 1.366 . S
C376 C375 1.366 . S
C376 C377 1.414 . S
C376 C379 1.499 . S
C377 H351 0.950 . S
C377 C376 1.414 . S
C377 C378 1.374 . S
C378 H352 0.950 . S
C378 C374 1.385 . S
C378 C377 1.374 . S
C379 C376 1.499 . S
C379 C380 1.373 . S
C379 C381 1.389 . S
C380 H353 0.950 . S
C380 C366 1.377 . S
C380 C379 1.373 . S
C381 C365 1.377 . S
C381 C379 1.389 . S
C381 C382 1.524 . S
C382 C381 1.524 . S
C382 C383 1.397 . S
C382 C387 1.363 . S
C383 H354 0.950 . S
C383 C382 1.397 . S
C383 C384 1.334 . S
C384 H355 0.950 . S
C384 C383 1.334 . S
C384 C385 1.287 . S
C385 C384 1.287 . S
C385 C386 1.524 . S
C385 H388 0.999 . S
C386 H356 0.950 . S
C386 C385 1.524 . S
C386 C387 1.415 . S
C387 H357 0.950 . S
C387 C382 1.363 . S
C387 C386 1.415 . S
H388 C385 0.999 . S
H389 C370 0.913 . S
H390 C408 0.951 . S
H391 C410 0.951 . S
H392 C412 0.950 . S
H393 C413 0.950 . S
H394 C415 0.952 . S
H395 C418 0.950 . S
H396 C419 0.950 . S
H397 C421 0.950 . S
H398 C422 0.950 . S
H399 C423 0.951 . S
H400 C425 0.951 . S
H401 C427 0.950 . S
H402 C428 0.950 . S
H403 C430 0.950 . S
H404 C433 0.950 . S
H405 C434 0.950 . S
H406 C436 0.950 . S
H407 C437 0.950 . S
C408 H390 0.951 . S
C408 C409 1.366 . S
C408 C410 1.388 . S
C409 C408 1.366 . S
C409 C413 1.385 . S
C410 H391 0.951 . S
C410 C408 1.388 . S
C410 C411 1.366 . S
C411 C410 1.366 . S
C411 C412 1.414 . S
C411 C414 1.499 . S
C412 H392 0.950 . S
C412 C411 1.414 . S
C412 C413 1.374 . S
C413 H393 0.950 . S
C413 C409 1.385 . S
C413 C412 1.374 . S
C414 C411 1.499 . S
C414 C415 1.356 1_554 S
C414 C416 1.389 . S
C415 H394 0.952 . S
C415 C414 1.356 1_556 S
C415 C431 1.392 . S
C416 C414 1.389 . S
C416 C417 1.524 . S
C416 C430 1.377 . S
C417 C416 1.524 . S
C417 C418 1.397 . S
C417 C422 1.363 . S
C418 H395 0.950 . S
C418 C417 1.397 . S
C418 C419 1.334 . S
C419 H396 0.950 . S
C419 C418 1.334 . S
C419 C420 1.287 . S
C420 C419 1.287 . S
C420 C421 1.524 . S
C420 H439 0.913 . S
C421 H397 0.950 . S
C421 C420 1.524 . S
C421 C422 1.415 . S
C422 H398 0.950 . S
C422 C417 1.363 . S
C422 C421 1.415 . S
C423 H399 0.951 . S
C423 C424 1.366 . S
C423 C425 1.388 . S
C424 C423 1.366 . S
C424 C428 1.385 . S
C425 H400 0.951 . S
C425 C423 1.388 . S
C425 C426 1.366 . S
C426 C425 1.366 . S
C426 C427 1.414 . S
C426 C429 1.499 . S
C427 H401 0.950 . S
C427 C426 1.414 . S
C427 C428 1.374 . S
C428 H402 0.950 . S
C428 C424 1.385 . S
C428 C427 1.374 . S
C429 C426 1.499 . S
C429 C430 1.373 1_556 S
C429 C431 1.389 . S
C430 H403 0.950 . S
C430 C416 1.377 . S
C430 C429 1.373 1_554 S
C431 C415 1.392 . S
C431 C429 1.389 . S
C431 C432 1.524 . S
C432 C431 1.524 . S
C432 C433 1.397 . S
C432 C437 1.363 . S
C433 H404 0.950 . S
C433 C432 1.397 . S
C433 C434 1.334 . S
C434 H405 0.950 . S
C434 C433 1.334 . S
C434 C435 1.287 . S
C435 C434 1.287 . S
C435 C436 1.524 . S
C435 H438 0.999 . S
C436 H406 0.950 . S
C436 C435 1.524 . S
C436 C437 1.415 . S
C437 H407 0.950 . S
C437 C432 1.363 . S
C437 C436 1.415 . S
H438 C435 0.999 . S
H439 C420 0.913 . S
H440 C458 0.951 . S
H441 C460 0.951 . S
H442 C462 0.950 . S
H443 C463 0.950 . S
H444 C465 0.950 . S
H445 C468 0.950 . S
H446 C469 0.950 . S
H447 C471 0.950 . S
H448 C472 0.950 . S
H449 C473 0.951 . S
H450 C475 0.951 . S
H451 C477 0.950 . S
H452 C478 0.950 . S
H453 C480 0.950 . S
H454 C483 0.950 . S
H455 C484 0.950 . S
H456 C486 0.950 . S
H457 C487 0.950 . S
C458 H440 0.951 . S
C458 C459 1.366 . S
C458 C460 1.388 . S
C459 C458 1.366 . S
C459 C463 1.385 . S
C460 H441 0.951 . S
C460 C458 1.388 . S
C460 C461 1.366 . S
C461 C460 1.366 . S
C461 C462 1.414 . S
C461 C464 1.499 . S
C462 H442 0.950 . S
C462 C461 1.414 . S
C462 C463 1.374 . S
C463 H443 0.950 . S
C463 C459 1.385 . S
C463 C462 1.374 . S
C464 C461 1.499 . S
C464 C465 1.373 . S
C464 C466 1.389 . S
C465 H444 0.950 . S
C465 C464 1.373 . S
C465 C481 1.377 . S
C466 C464 1.389 . S
C466 C467 1.524 . S
C466 C480 1.377 . S
C467 C466 1.524 . S
C467 C468 1.397 . S
C467 C472 1.363 . S
C468 H445 0.950 . S
C468 C467 1.397 . S
C468 C469 1.334 . S
C469 H446 0.950 . S
C469 C468 1.334 . S
C469 C470 1.287 . S
C470 C469 1.287 . S
C470 C471 1.524 . S
C470 H489 0.913 . S
C471 H447 0.950 . S
C471 C470 1.524 . S
C471 C472 1.415 . S
C472 H448 0.950 . S
C472 C467 1.363 . S
C472 C471 1.415 . S
C473 H449 0.951 . S
C473 C474 1.366 . S
C473 C475 1.388 . S
C474 C473 1.366 . S
C474 C478 1.385 . S
C475 H450 0.951 . S
C475 C473 1.388 . S
C475 C476 1.366 . S
C476 C475 1.366 . S
C476 C477 1.414 . S
C476 C479 1.499 . S
C477 H451 0.950 . S
C477 C476 1.414 . S
C477 C478 1.374 . S
C478 H452 0.950 . S
C478 C474 1.385 . S
C478 C477 1.374 . S
C479 C476 1.499 . S
C479 C480 1.373 . S
C479 C481 1.389 . S
C480 H453 0.950 . S
C480 C466 1.377 . S
C480 C479 1.373 . S
C481 C465 1.377 . S
C481 C479 1.389 . S
C481 C482 1.524 . S
C482 C481 1.524 . S
C482 C483 1.397 . S
C482 C487 1.363 . S
C483 H454 0.950 . S
C483 C482 1.397 . S
C483 C484 1.334 . S
C484 H455 0.950 . S
C484 C483 1.334 . S
C484 C485 1.287 . S
C485 C484 1.287 . S
C485 C486 1.524 . S
C485 H488 0.999 . S
C486 H456 0.950 . S
C486 C485 1.524 . S
C486 C487 1.415 . S
C487 H457 0.950 . S
C487 C482 1.363 . S
C487 C486 1.415 . S
H488 C485 0.999 . S
H489 C470 0.913 . S
H490 C508 0.951 . S
H491 C510 0.951 . S
H492 C512 0.950 . S
H493 C513 0.950 . S
H494 C515 0.950 . S
H495 C518 0.950 . S
H496 C519 0.950 . S
H497 C521 0.950 . S
H498 C522 0.950 . S
H499 C523 0.951 . S
H500 C525 0.951 . S
H501 C527 0.950 . S
H502 C528 0.950 . S
H503 C530 0.950 . S
H504 C533 0.950 . S
H505 C534 0.950 . S
H506 C536 0.950 . S
H507 C537 0.950 . S
C508 H490 0.951 . S
C508 C509 1.366 . S
C508 C510 1.388 . S
C509 C508 1.366 . S
C509 C513 1.385 . S
C510 H491 0.951 . S
C510 C508 1.388 . S
C510 C511 1.366 . S
C511 C510 1.366 . S
C511 C512 1.414 . S
C511 C514 1.499 . S
C512 H492 0.950 . S
C512 C511 1.414 . S
C512 C513 1.374 . S
C513 H493 0.950 . S
C513 C509 1.385 . S
C513 C512 1.374 . S
C514 C511 1.499 . S
C514 C515 1.373 . S
C514 C516 1.389 . S
C515 H494 0.950 . S
C515 C514 1.373 . S
C515 C531 1.377 . S
C516 C514 1.389 . S
C516 C517 1.524 . S
C516 C530 1.377 . S
C517 C516 1.524 . S
C517 C518 1.397 . S
C517 C522 1.363 . S
C518 H495 0.950 . S
C518 C517 1.397 . S
C518 C519 1.334 . S
C519 H496 0.950 . S
C519 C518 1.334 . S
C519 C520 1.287 . S
C520 C519 1.287 . S
C520 C521 1.524 . S
C520 H539 0.913 . S
C521 H497 0.950 . S
C521 C520 1.524 . S
C521 C522 1.415 . S
C522 H498 0.950 . S
C522 C517 1.363 . S
C522 C521 1.415 . S
C523 H499 0.951 . S
C523 C524 1.366 . S
C523 C525 1.388 . S
C524 C523 1.366 . S
C524 C528 1.385 . S
C525 H500 0.951 . S
C525 C523 1.388 . S
C525 C526 1.366 . S
C526 C525 1.366 . S
C526 C527 1.414 . S
C526 C529 1.499 . S
C527 H501 0.950 . S
C527 C526 1.414 . S
C527 C528 1.374 . S
C528 H502 0.950 . S
C528 C524 1.385 . S
C528 C527 1.374 . S
C529 C526 1.499 . S
C529 C530 1.373 . S
C529 C531 1.389 . S
C530 H503 0.950 . S
C530 C516 1.377 . S
C530 C529 1.373 . S
C531 C515 1.377 . S
C531 C529 1.389 . S
C531 C532 1.524 . S
C532 C531 1.524 . S
C532 C533 1.397 . S
C532 C537 1.363 . S
C533 H504 0.950 . S
C533 C532 1.397 . S
C533 C534 1.334 . S
C534 H505 0.950 . S
C534 C533 1.334 . S
C534 C535 1.287 . S
C535 C534 1.287 . S
C535 C536 1.524 . S
C535 H538 0.999 . S
C536 H506 0.950 . S
C536 C535 1.524 . S
C536 C537 1.415 . S
C537 H507 0.950 . S
C537 C532 1.363 . S
C537 C536 1.415 . S
H538 C535 0.999 . S
H539 C520 0.913 . S
H540 C558 0.951 . S
H541 C560 0.951 . S
H542 C562 0.950 . S
H543 C563 0.950 . S
H544 C565 0.950 . S
H545 C568 0.950 . S
H546 C569 0.950 . S
H547 C571 0.950 . S
H548 C572 0.950 . S
H549 C573 0.951 . S
H550 C575 0.951 . S
H551 C577 0.950 . S
H552 C578 0.950 . S
H553 C580 0.950 . S
H554 C583 0.950 . S
H555 C584 0.950 . S
H556 C586 0.950 . S
H557 C587 0.950 . S
C558 H540 0.951 . S
C558 C559 1.366 . S
C558 C560 1.388 . S
C559 C558 1.366 . S
C559 C563 1.385 . S
C560 H541 0.951 . S
C560 C558 1.388 . S
C560 C561 1.366 . S
C561 C560 1.366 . S
C561 C562 1.414 . S
C561 C564 1.499 . S
C562 H542 0.950 . S
C562 C561 1.414 . S
C562 C563 1.374 . S
C563 H543 0.950 . S
C563 C559 1.385 . S
C563 C562 1.374 . S
C564 C561 1.499 . S
C564 C565 1.373 . S
C564 C566 1.389 . S
C565 H544 0.950 . S
C565 C564 1.373 . S
C565 C581 1.377 1_455 S
C566 C564 1.389 . S
C566 C567 1.524 . S
C566 C580 1.377 1_455 S
C567 C566 1.524 . S
C567 C568 1.397 . S
C567 C572 1.363 . S
C568 H545 0.950 . S
C568 C567 1.397 . S
C568 C569 1.334 . S
C569 H546 0.950 . S
C569 C568 1.334 . S
C569 C570 1.287 . S
C570 C569 1.287 . S
C570 C571 1.524 . S
C570 H589 0.913 . S
C571 H547 0.950 . S
C571 C570 1.524 . S
C571 C572 1.415 . S
C572 H548 0.950 . S
C572 C567 1.363 . S
C572 C571 1.415 . S
C573 H549 0.951 . S
C573 C574 1.366 . S
C573 C575 1.388 . S
C574 C573 1.366 . S
C574 C578 1.385 . S
C575 H550 0.951 . S
C575 C573 1.388 . S
C575 C576 1.366 . S
C576 C575 1.366 . S
C576 C577 1.414 . S
C576 C579 1.499 . S
C577 H551 0.950 . S
C577 C576 1.414 . S
C577 C578 1.374 . S
C578 H552 0.950 . S
C578 C574 1.385 . S
C578 C577 1.374 . S
C579 C576 1.499 . S
C579 C580 1.373 . S
C579 C581 1.389 . S
C580 H553 0.950 . S
C580 C566 1.377 1_655 S
C580 C579 1.373 . S
C581 C565 1.377 1_655 S
C581 C579 1.389 . S
C581 C582 1.524 . S
C582 C581 1.524 . S
C582 C583 1.397 . S
C582 C587 1.363 . S
C583 H554 0.950 . S
C583 C582 1.397 . S
C583 C584 1.334 . S
C584 H555 0.950 . S
C584 C583 1.334 . S
C584 C585 1.287 . S
C585 C584 1.287 . S
C585 C586 1.524 . S
C585 H588 0.999 . S
C586 H556 0.950 . S
C586 C585 1.524 . S
C586 C587 1.415 . S
C587 H557 0.950 . S
C587 C582 1.363 . S
C587 C586 1.415 . S
H588 C585 0.999 . S
H589 C570 0.913 . S
H590 C608 0.951 . S
H591 C610 0.951 . S
H592 C612 0.950 . S
H593 C613 0.950 . S
H594 C615 0.950 . S
H595 C618 0.950 . S
H596 C619 0.950 . S
H597 C621 0.950 . S
H598 C622 0.950 . S
H599 C623 0.951 . S
H600 C625 0.951 . S
H601 C627 0.950 . S
H602 C628 0.950 . S
H603 C630 0.950 . S
H604 C633 0.950 . S
H605 C634 0.950 . S
H606 C636 0.950 . S
H607 C637 0.950 . S
C608 H590 0.951 . S
C608 C609 1.366 . S
C608 C610 1.388 . S
C609 C608 1.366 . S
C609 C613 1.385 . S
C610 H591 0.951 . S
C610 C608 1.388 . S
C610 C611 1.366 . S
C611 C610 1.366 . S
C611 C612 1.414 . S
C611 C614 1.499 . S
C612 H592 0.950 . S
C612 C611 1.414 . S
C612 C613 1.374 . S
C613 H593 0.950 . S
C613 C609 1.385 . S
C613 C612 1.374 . S
C614 C611 1.499 . S
C614 C615 1.373 . S
C614 C616 1.389 . S
C615 H594 0.950 . S
C615 C614 1.373 . S
C615 C631 1.377 1_545 S
C616 C614 1.389 . S
C616 C617 1.524 . S
C616 C630 1.377 1_545 S
C617 C616 1.524 . S
C617 C618 1.397 . S
C617 C622 1.363 . S
C618 H595 0.950 . S
C618 C617 1.397 . S
C618 C619 1.334 . S
C619 H596 0.950 . S
C619 C618 1.334 . S
C619 C620 1.287 . S
C620 C619 1.287 . S
C620 C621 1.524 . S
C620 H639 0.913 . S
C621 H597 0.950 . S
C621 C620 1.524 . S
C621 C622 1.415 . S
C622 H598 0.950 . S
C622 C617 1.363 . S
C622 C621 1.415 . S
C623 H599 0.951 . S
C623 C624 1.366 . S
C623 C625 1.388 . S
C624 C623 1.366 . S
C624 C628 1.385 . S
C625 H600 0.951 . S
C625 C623 1.388 . S
C625 C626 1.366 . S
C626 C625 1.366 . S
C626 C627 1.414 . S
C626 C629 1.499 . S
C627 H601 0.950 . S
C627 C626 1.414 . S
C627 C628 1.374 . S
C628 H602 0.950 . S
C628 C624 1.385 . S
C628 C627 1.374 . S
C629 C626 1.499 . S
C629 C630 1.373 . S
C629 C631 1.389 . S
C630 H603 0.950 . S
C630 C616 1.377 1_565 S
C630 C629 1.373 . S
C631 C615 1.377 1_565 S
C631 C629 1.389 . S
C631 C632 1.524 . S
C632 C631 1.524 . S
C632 C633 1.397 . S
C632 C637 1.363 . S
C633 H604 0.950 . S
C633 C632 1.397 . S
C633 C634 1.334 . S
C634 H605 0.950 . S
C634 C633 1.334 . S
C634 C635 1.287 . S
C635 C634 1.287 . S
C635 C636 1.524 . S
C635 H638 0.999 . S
C636 H606 0.950 . S
C636 C635 1.524 . S
C636 C637 1.415 . S
C637 H607 0.950 . S
C637 C632 1.363 . S
C637 C636 1.415 . S
H638 C635 0.999 . S
H639 C620 0.913 . S
H640 C658 0.951 . S
H641 C660 0.951 . S
H642 C662 0.950 . S
H643 C663 0.950 . S
H644 C665 0.950 . S
H645 C668 0.950 . S
H646 C669 0.950 . S
H647 C671 0.950 . S
H648 C672 0.950 . S
H649 C673 0.951 . S
H650 C675 0.951 . S
H651 C677 0.950 . S
H652 C678 0.950 . S
H653 C680 0.950 . S
H654 C683 0.950 . S
H655 C684 0.950 . S
H656 C686 0.950 . S
H657 C687 0.950 . S
C658 H640 0.951 . S
C658 C659 1.366 . S
C658 C660 1.388 . S
C659 C658 1.366 . S
C659 C663 1.385 . S
C660 H641 0.951 . S
C660 C658 1.388 . S
C660 C661 1.366 . S
C661 C660 1.366 . S
C661 C662 1.414 . S
C661 C664 1.499 . S
C662 H642 0.950 . S
C662 C661 1.414 . S
C662 C663 1.374 . S
C663 H643 0.950 . S
C663 C659 1.385 . S
C663 C662 1.374 . S
C664 C661 1.499 . S
C664 C665 1.373 . S
C664 C666 1.389 . S
C665 H644 0.950 . S
C665 C664 1.373 . S
C665 C681 1.377 . S
C666 C664 1.389 . S
C666 C667 1.524 . S
C666 C680 1.377 . S
C667 C666 1.524 . S
C667 C668 1.397 . S
C667 C672 1.363 . S
C668 H645 0.950 . S
C668 C667 1.397 . S
C668 C669 1.334 . S
C669 H646 0.950 . S
C669 C668 1.334 . S
C669 C670 1.287 . S
C670 C669 1.287 . S
C670 C671 1.524 . S
C670 H689 0.913 . S
C671 H647 0.950 . S
C671 C670 1.524 . S
C671 C672 1.415 . S
C672 H648 0.950 . S
C672 C667 1.363 . S
C672 C671 1.415 . S
C673 H649 0.951 . S
C673 C674 1.366 . S
C673 C675 1.388 . S
C674 C673 1.366 . S
C674 C678 1.385 . S
C675 H650 0.951 . S
C675 C673 1.388 . S
C675 C676 1.366 . S
C676 C675 1.366 . S
C676 C677 1.414 . S
C676 C679 1.499 . S
C677 H651 0.950 . S
C677 C676 1.414 . S
C677 C678 1.374 . S
C678 H652 0.950 . S
C678 C674 1.385 . S
C678 C677 1.374 . S
C679 C676 1.499 . S
C679 C680 1.373 . S
C679 C681 1.389 . S
C680 H653 0.950 . S
C680 C666 1.377 . S
C680 C679 1.373 . S
C681 C665 1.377 . S
C681 C679 1.389 . S
C681 C682 1.524 . S
C682 C681 1.524 . S
C682 C683 1.397 . S
C682 C687 1.363 . S
C683 H654 0.950 . S
C683 C682 1.397 . S
C683 C684 1.334 . S
C684 H655 0.950 . S
C684 C683 1.334 . S
C684 C685 1.287 . S
C685 C684 1.287 . S
C685 C686 1.524 . S
C685 H688 0.999 . S
C686 H656 0.950 . S
C686 C685 1.524 . S
C686 C687 1.415 . S
C687 H657 0.950 . S
C687 C682 1.363 . S
C687 C686 1.415 . S
H688 C685 0.999 . S
H689 C670 0.913 . S
C259 C101 1.488 . S
C274 C2 1.488 . S
C309 C61 1.490 . S
C324 C141 1.487 . S
C359 C82 1.486 . S
C374 C181 1.490 . S
C409 C122 1.488 . S
C424 C221 1.489 . S
C459 C162 1.489 . S
C474 C21 1.487 . S
C509 C202 1.486 . S
C524 C42 1.488 . S
C559 C15 1.503 . S
C574 C135 1.503 . S
C609 C55 1.500 . S
C624 C175 1.500 . S
C659 C95 1.503 . S
C674 C215 1.503 . S
