# Generated by pormake.
# Topology vmc, (5)-cn, num edge types: 1
# Building blocks:
#     Node 0, Type 0, BuildingBlock: XOMCOT_clean_sbu_1, # of connection points: 5
#     Node 1, Type 0, BuildingBlock: XOMCOT_clean_sbu_1, # of connection points: 5
#     Node 2, Type 0, BuildingBlock: XOMCOT_clean_sbu_1, # of connection points: 5
#     Node 3, Type 0, BuildingBlock: XOMCOT_clean_sbu_1, # of connection points: 5
#     Node 4, Type 0, BuildingBlock: XOMCOT_clean_sbu_1, # of connection points: 5
#     Node 5, Type 0, BuildingBlock: XOMCOT_clean_sbu_1, # of connection points: 5
#     Node 6, Type 0, BuildingBlock: XOMCOT_clean_sbu_1, # of connection points: 5
#     Node 7, Type 0, BuildingBlock: XOMCOT_clean_sbu_1, # of connection points: 5
#     Edge 8, Type (0, 0), BuildingBlock: TEMPAE_clean_linker_10, # of connection points: 2
#     Edge 9, Type (0, 0), BuildingBlock: TEMPAE_clean_linker_10, # of connection points: 2
#     Edge 10, Type (0, 0), BuildingBlock: TEMPAE_clean_linker_10, # of connection points: 2
#     Edge 11, Type (0, 0), BuildingBlock: TEMPAE_clean_linker_10, # of connection points: 2
#     Edge 12, Type (0, 0), BuildingBlock: TEMPAE_clean_linker_10, # of connection points: 2
#     Edge 13, Type (0, 0), BuildingBlock: TEMPAE_clean_linker_10, # of connection points: 2
#     Edge 14, Type (0, 0), BuildingBlock: TEMPAE_clean_linker_10, # of connection points: 2
#     Edge 15, Type (0, 0), BuildingBlock: TEMPAE_clean_linker_10, # of connection points: 2
#     Edge 16, Type (0, 0), BuildingBlock: TEMPAE_clean_linker_10, # of connection points: 2
#     Edge 17, Type (0, 0), BuildingBlock: TEMPAE_clean_linker_10, # of connection points: 2
#     Edge 18, Type (0, 0), BuildingBlock: TEMPAE_clean_linker_10, # of connection points: 2
#     Edge 19, Type (0, 0), BuildingBlock: TEMPAE_clean_linker_10, # of connection points: 2
#     Edge 20, Type (0, 0), BuildingBlock: TEMPAE_clean_linker_10, # of connection points: 2
#     Edge 21, Type (0, 0), BuildingBlock: TEMPAE_clean_linker_10, # of connection points: 2
#     Edge 22, Type (0, 0), BuildingBlock: TEMPAE_clean_linker_10, # of connection points: 2
#     Edge 23, Type (0, 0), BuildingBlock: TEMPAE_clean_linker_10, # of connection points: 2
#     Edge 24, Type (0, 0), BuildingBlock: TEMPAE_clean_linker_10, # of connection points: 2
#     Edge 25, Type (0, 0), BuildingBlock: TEMPAE_clean_linker_10, # of connection points: 2
#     Edge 26, Type (0, 0), BuildingBlock: TEMPAE_clean_linker_10, # of connection points: 2
#     Edge 27, Type (0, 0), BuildingBlock: TEMPAE_clean_linker_10, # of connection points: 2
# Relax obj value: 0.404
# Max RMSD: 0.211
# Mean RMSD: 0.211
data_MOF--net-vmc--node1-XOMCOT_clean_sbu_1--edge1-TEMPAE_clean_linker_10
_symmetry_space_group_name_H-M    P1
_symmetry_Int_Tables_number       1
_symmetry_cell_setting            triclinic
loop_
_symmetry_equiv_pos_as_xyz
'x, y, z'
_cell_length_a     29.590693
_cell_length_b     49.437778
_cell_length_c     29.180418
_cell_angle_alpha  89.973161
_cell_angle_beta   98.468219
_cell_angle_gamma 90.021292
loop_
_atom_site_label
_atom_site_type_symbol
_atom_site_fract_x
_atom_site_fract_y
_atom_site_fract_z
_atom_type_partial_charge
C0 C 0.32071 0.39185 0.07441 0.0
C1 C 0.3551 0.38542 0.10991 0.0
N2 N 0.36618 0.40796 0.13485 0.0
N3 N 0.30945 0.41818 0.07787 0.0
C4 C 0.33833 0.4275 0.1147 0.0
H5 H 0.30536 0.3783 0.04745 0.0
Co6 Co 0.26709 0.43865 0.03791 0.0
C7 C 0.20969 0.45907 0.10658 0.0
O8 O 0.17228 0.45049 0.0807 0.0
N9 N 0.22673 0.46006 0.99652 0.0
C10 C 0.18927 0.49578 0.96331 0.0
C11 C 0.20348 0.48274 1.00441 0.0
C12 C 0.22711 0.46044 0.95012 0.0
N13 N 0.20468 0.48195 0.9291 0.0
O14 O 0.31286 0.4649 0.03489 0.0
H15 H 0.20092 0.49138 0.03777 0.0
H16 H 0.24739 0.44668 0.93274 0.0
O17 O 0.24836 0.45623 0.09246 0.0
C18 C 0.33846 0.45606 1.00678 0.0
O19 O 0.32722 0.43331 0.98467 0.0
N20 N 0.22394 0.41062 0.03799 0.0
C21 C 0.20137 0.35594 0.0357 0.0
C22 C 0.20503 0.37047 0.07735 0.0
C23 C 0.21695 0.39778 0.07792 0.0
C24 C 0.21452 0.39761 0.9965 0.0
C25 C 0.20297 0.37024 0.99452 0.0
H26 H 0.22713 0.40712 0.11126 0.0
H27 H 0.22215 0.40712 0.96533 0.0
H28 H 0.33947 0.44836 0.12611 0.0
H29 H 0.37181 0.366 0.11598 0.0
H30 H 0.17172 0.51504 0.95952 0.0
H31 H 0.20371 0.36018 0.10992 0.0
H32 H 0.20086 0.35982 0.96163 0.0
C33 C 0.66946 0.39199 0.45566 0.0
C34 C 0.63646 0.38595 0.41872 0.0
N35 N 0.6274 0.40857 0.39347 0.0
N36 N 0.68194 0.41817 0.45291 0.0
C37 C 0.65508 0.42783 0.41492 0.0
H38 H 0.68281 0.37833 0.48333 0.0
Co39 Co 0.72255 0.43773 0.49624 0.0
C40 C 0.78441 0.45781 0.43085 0.0
O41 O 0.82035 0.44663 0.45549 0.0
N42 N 0.76102 0.45793 0.54122 0.0
C43 C 0.80391 0.48952 0.58124 0.0
C44 C 0.79175 0.47789 0.5383 0.0
C45 C 0.75446 0.45845 0.58617 0.0
N46 N 0.78006 0.47739 0.6113 0.0
O47 O 0.67675 0.46427 0.49739 0.0
H48 H 0.80233 0.48539 0.50692 0.0
H49 H 0.72992 0.44571 0.59988 0.0
O50 O 0.74534 0.45639 0.44458 0.0
C51 C 0.64804 0.45485 0.52176 0.0
O52 O 0.65678 0.43146 0.54266 0.0
N53 N 0.76537 0.40936 0.49776 0.0
C54 C 0.78792 0.35465 0.50131 0.0
C55 C 0.78522 0.369 0.45954 0.0
C56 C 0.77338 0.39634 0.45835 0.0
C57 C 0.77356 0.39644 0.53947 0.0
C58 C 0.78512 0.36909 0.54208 0.0
H59 H 0.76429 0.40568 0.4248 0.0
H60 H 0.76515 0.40607 0.57023 0.0
H61 H 0.65497 0.44874 0.40386 0.0
H62 H 0.61901 0.36678 0.412 0.0
H63 H 0.82612 0.50684 0.58893 0.0
H64 H 0.78744 0.3586 0.42728 0.0
H65 H 0.78642 0.35879 0.57502 0.0
C66 C 0.6474 0.6071 0.97826 0.0
C67 C 0.61242 0.61322 0.94338 0.0
N68 N 0.61325 0.59533 0.90858 0.0
N69 N 0.67045 0.58558 0.96551 0.0
C70 C 0.64891 0.5788 0.92303 0.0
H71 H 0.65468 0.6171 1.01149 0.0
Co72 Co 0.71629 0.56735 1.00361 0.0
C73 C 0.75207 0.5311 0.93895 0.0
O74 O 0.74943 0.51145 0.96879 0.0
N75 N 0.76144 0.54902 0.04369 0.0
C76 C 0.82693 0.53728 0.08687 0.0
C77 C 0.80739 0.54959 0.04618 0.0
C78 C 0.75399 0.53601 0.08258 0.0
N79 N 0.79301 0.52868 0.10937 0.0
O80 O 0.67754 0.53687 0.99982 0.0
H81 H 0.82548 0.55968 0.02143 0.0
H82 H 0.72076 0.53351 0.09306 0.0
O83 O 0.74186 0.5552 0.94936 0.0
C84 C 0.6478 0.53884 0.0269 0.0
O85 O 0.65017 0.55912 0.05626 0.0
N86 N 0.75133 0.59866 1.00892 0.0
C87 C 0.76558 0.65386 1.02029 0.0
C88 C 0.76567 0.64182 0.97668 0.0
C89 C 0.75862 0.61392 0.9717 0.0
C90 C 0.75613 0.60955 0.0522 0.0
C91 C 0.76403 0.63709 0.05878 0.0
H92 H 0.75341 0.60531 0.93728 0.0
H93 H 0.74901 0.59739 0.08112 0.0
H94 H 0.6586 0.56162 0.90371 0.0
H95 H 0.58723 0.62896 0.94458 0.0
H96 H 0.86306 0.53557 0.09963 0.0
H97 H 0.76659 0.65404 0.94603 0.0
H98 H 0.76484 0.64549 0.09317 0.0
C99 C 0.3432 0.60638 0.55457 0.0
C100 C 0.38074 0.61192 0.58705 0.0
N101 N 0.38208 0.59365 0.62151 0.0
N102 N 0.32101 0.58484 0.56876 0.0
C103 C 0.34558 0.57748 0.60951 0.0
H104 H 0.33341 0.61683 0.52205 0.0
Co105 Co 0.27316 0.5664 0.534 0.0
C106 C 0.2158 0.55298 0.60738 0.0
O107 O 0.17893 0.56329 0.58299 0.0
N108 N 0.22702 0.54687 0.49662 0.0
C109 C 0.1829 0.51304 0.46555 0.0
C110 C 0.20092 0.52573 0.5062 0.0
C111 C 0.22494 0.54603 0.45004 0.0
N112 N 0.19837 0.52583 0.43022 0.0
O113 O 0.31204 0.53636 0.53408 0.0
H114 H 0.19866 0.51792 0.54029 0.0
H115 H 0.24641 0.55825 0.43133 0.0
O116 O 0.25352 0.55308 0.591 0.0
C117 C 0.33692 0.5371 0.50215 0.0
O118 O 0.32979 0.55607 0.4704 0.0
N119 N 0.23694 0.59787 0.53266 0.0
C120 C 0.22303 0.65352 0.52565 0.0
C121 C 0.22921 0.64089 0.56912 0.0
C122 C 0.23623 0.61294 0.57192 0.0
C123 C 0.22598 0.60961 0.49018 0.0
C124 C 0.21828 0.63732 0.48592 0.0
H125 H 0.2472 0.60425 0.60569 0.0
H126 H 0.22857 0.59845 0.45913 0.0
H127 H 0.33844 0.55967 0.62871 0.0
H128 H 0.40539 0.62792 0.58522 0.0
H129 H 0.16263 0.49473 0.46266 0.0
H130 H 0.23356 0.65272 0.60069 0.0
H131 H 0.21302 0.64632 0.45167 0.0
C132 C 0.83685 0.90281 0.06603 0.0
C133 C 0.8739 0.89786 0.09925 0.0
N134 N 0.87522 0.91703 0.13222 0.0
N135 N 0.81473 0.92493 0.07805 0.0
C136 C 0.83887 0.93318 0.11863 0.0
H137 H 0.8274 0.89157 0.03427 0.0
Co138 Co 0.76761 0.94191 0.03915 0.0
C139 C 0.70727 0.95731 0.10876 0.0
O140 O 0.67219 0.94484 0.08495 0.0
N141 N 0.72243 0.95971 0.99729 0.0
C142 C 0.67879 0.992 0.96 0.0
C143 C 0.69359 0.98032 1.00259 0.0
C144 C 0.72474 0.95966 0.95132 0.0
N145 N 0.69914 0.97917 0.92788 0.0
O146 O 0.80654 0.97168 0.03571 0.0
H147 H 0.68732 0.98855 0.03528 0.0
H148 H 0.74757 0.94672 0.93564 0.0
O149 O 0.74558 0.958 0.09339 0.0
C150 C 0.83224 0.96782 1.00502 0.0
O151 O 0.82666 0.94582 0.97958 0.0
N152 N 0.73159 0.91056 0.04071 0.0
C153 C 0.71474 0.85504 0.0399 0.0
C154 C 0.72058 0.86949 0.08169 0.0
C155 C 0.72956 0.89718 0.08143 0.0
C156 C 0.72166 0.8972 0.99957 0.0
C157 C 0.71283 0.86949 0.99835 0.0
H158 H 0.74011 0.90703 0.1143 0.0
H159 H 0.72579 0.90706 0.9676 0.0
H160 H 0.83144 0.95145 0.13655 0.0
H161 H 0.89843 0.88165 0.09885 0.0
H162 H 0.65829 0.01014 0.95397 0.0
H163 H 0.72204 0.85912 0.11459 0.0
H164 H 0.70923 0.85914 0.9653 0.0
C165 C 0.15675 0.89583 0.47679 0.0
C166 C 0.12087 0.89033 0.44254 0.0
N167 N 0.11621 0.91106 0.412 0.0
N168 N 0.17512 0.91985 0.46809 0.0
C169 C 0.14978 0.92869 0.42857 0.0
H170 H 0.16775 0.88358 0.50711 0.0
Co171 Co 0.21949 0.93827 0.50884 0.0
C172 C 0.2777 0.95748 0.43971 0.0
O173 O 0.31385 0.94548 0.46246 0.0
N174 N 0.26177 0.95735 0.55195 0.0
C175 C 0.30514 0.98927 0.59056 0.0
C176 C 0.29139 0.97773 0.54772 0.0
C177 C 0.2578 0.95736 0.59757 0.0
N178 N 0.28341 0.9766 0.62182 0.0
O179 O 0.17601 0.9656 0.51401 0.0
H180 H 0.29954 0.98572 0.51557 0.0
H181 H 0.23454 0.94428 0.61244 0.0
O182 O 0.23966 0.95685 0.45564 0.0
C183 C 0.14971 0.95673 0.54146 0.0
O184 O 0.15947 0.93341 0.56222 0.0
N185 N 0.25988 0.90901 0.50633 0.0
C186 C 0.2798 0.85398 0.50664 0.0
C187 C 0.27309 0.86851 0.46494 0.0
C188 C 0.26279 0.89602 0.46545 0.0
C189 C 0.27151 0.89576 0.54738 0.0
C190 C 0.28193 0.86824 0.54834 0.0
H191 H 0.25125 0.90579 0.4327 0.0
H192 H 0.2671 0.90536 0.57953 0.0
H193 H 0.15526 0.9481 0.41325 0.0
H194 H 0.09895 0.87279 0.44167 0.0
H195 H 0.32639 0.00707 0.59737 0.0
H196 H 0.2714 0.85821 0.43197 0.0
H197 H 0.28641 0.85775 0.5813 0.0
C198 C 0.1508 0.1119 0.97885 0.0
C199 C 0.11444 0.11664 0.94466 0.0
N200 N 0.11283 0.09654 0.91332 0.0
N201 N 0.17194 0.08891 0.96904 0.0
C202 C 0.1482 0.0801 0.92868 0.0
H203 H 0.15975 0.12361 1.01017 0.0
Co204 Co 0.21559 0.07027 1.0099 0.0
C205 C 0.25075 0.03189 0.9475 0.0
O206 O 0.24606 0.01247 0.9772 0.0
N207 N 0.25815 0.05152 0.05218 0.0
C208 C 0.32128 0.03811 0.09757 0.0
C209 C 0.30416 0.05046 0.05612 0.0
C210 C 0.24818 0.03946 0.09102 0.0
N211 N 0.28578 0.03115 0.11917 0.0
O212 O 0.17418 0.04094 1.00752 0.0
H213 H 0.32402 0.05933 0.03166 0.0
H214 H 0.21415 0.03823 0.10015 0.0
O215 O 0.24159 0.05623 0.95737 0.0
C216 C 0.14313 0.04764 0.03117 0.0
O217 O 0.14869 0.06971 0.0565 0.0
N218 N 0.25309 0.1006 1.01435 0.0
C219 C 0.26569 0.15599 0.02301 0.0
C220 C 0.26728 0.14324 0.98025 0.0
C221 C 0.26116 0.11519 0.97666 0.0
C222 C 0.25736 0.11218 0.05708 0.0
C223 C 0.26442 0.13986 0.06231 0.0
H224 H 0.25651 0.10601 0.94267 0.0
H225 H 0.24968 0.10057 0.08639 0.0
H226 H 0.1546 0.06099 0.9127 0.0
H227 H 0.09015 0.13307 0.94366 0.0
H228 H 0.35694 0.03511 0.1113 0.0
H229 H 0.2682 0.15499 0.94907 0.0
H230 H 0.26414 0.14888 0.0961 0.0
C231 C 0.84018 0.10741 0.56324 0.0
C232 C 0.87544 0.11332 0.59791 0.0
N233 N 0.87488 0.09525 0.6325 0.0
N234 N 0.81713 0.08584 0.57587 0.0
C235 C 0.83901 0.07881 0.61814 0.0
H236 H 0.83286 0.11751 0.53009 0.0
Co237 Co 0.77151 0.0677 0.53705 0.0
C238 C 0.73304 0.03221 0.6015 0.0
O239 O 0.73583 0.01223 0.57238 0.0
N240 N 0.72677 0.04942 0.49611 0.0
C241 C 0.66199 0.03765 0.45167 0.0
C242 C 0.68075 0.05005 0.49257 0.0
C243 C 0.735 0.03633 0.45754 0.0
N244 N 0.69643 0.02897 0.42997 0.0
O245 O 0.80973 0.03702 0.54193 0.0
H246 H 0.6621 0.06018 0.51679 0.0
H247 H 0.76854 0.03376 0.44787 0.0
O248 O 0.74447 0.05605 0.59081 0.0
C249 C 0.83991 0.03903 0.51534 0.0
O250 O 0.83794 0.05935 0.48607 0.0
N251 N 0.73703 0.09922 0.53064 0.0
C252 C 0.72612 0.15462 0.51912 0.0
C253 C 0.72381 0.14265 0.5624 0.0
C254 C 0.72923 0.11464 0.56747 0.0
C255 C 0.73398 0.11009 0.48744 0.0
C256 C 0.7279 0.13778 0.48078 0.0
H257 H 0.73304 0.10602 0.60188 0.0
H258 H 0.74147 0.09777 0.45889 0.0
H259 H 0.82957 0.06145 0.63722 0.0
H260 H 0.90076 0.12898 0.59658 0.0
H261 H 0.626 0.03588 0.43827 0.0
H262 H 0.72259 0.15495 0.59289 0.0
H263 H 0.72886 0.14618 0.44664 0.0
C264 C 0.25394 0.53476 0.68353 0.0
C265 C 0.21365 0.54094 0.65361 0.0
C266 C 0.25255 0.52408 0.7279 0.0
C267 C 0.20979 0.51905 0.74257 0.0
C268 C 0.16898 0.52469 0.71219 0.0
C269 C 0.1714 0.53573 0.66822 0.0
C270 C 0.29689 0.51874 0.75942 0.0
C271 C 0.12273 0.51945 0.72643 0.0
C272 C 0.20642 0.47241 0.84611 0.0
C273 C 0.20493 0.49105 0.88207 0.0
C274 C 0.20768 0.48116 0.80041 0.0
C275 C 0.20777 0.50923 0.79055 0.0
C276 C 0.20632 0.52811 0.82672 0.0
C277 C 0.20488 0.51882 0.8719 0.0
C278 C 0.20898 0.46041 0.76271 0.0
C279 C 0.20683 0.55821 0.81781 0.0
H280 H 0.28674 0.5387 0.67266 0.0
H281 H 0.14008 0.54025 0.64525 0.0
H282 H 0.29878 0.53149 0.79093 0.0
H283 H 0.29838 0.49732 0.77093 0.0
H284 H 0.32727 0.52307 0.74233 0.0
H285 H 0.0943 0.52358 0.69794 0.0
H286 H 0.12033 0.49811 0.73762 0.0
H287 H 0.11819 0.53242 0.75644 0.0
H288 H 0.20622 0.45096 0.85369 0.0
H289 H 0.20476 0.53342 0.8995 0.0
H290 H 0.24044 0.46306 0.74668 0.0
H291 H 0.17946 0.46336 0.73497 0.0
H292 H 0.20814 0.43936 0.77593 0.0
H293 H 0.23837 0.56383 0.80368 0.0
H294 H 0.20527 0.57024 0.84969 0.0
H295 H 0.17739 0.56391 0.7915 0.0
C296 C 0.81673 0.49635 0.68606 0.0
C297 C 0.77817 0.48534 0.65864 0.0
C298 C 0.81516 0.50465 0.7319 0.0
C299 C 0.77391 0.50209 0.75076 0.0
C300 C 0.73478 0.49116 0.72314 0.0
C301 C 0.73743 0.48284 0.67756 0.0
C302 C 0.85772 0.51601 0.76025 0.0
C303 C 0.68999 0.4883 0.74172 0.0
C304 C 0.77563 0.49844 0.88126 0.0
C305 C 0.76172 0.5246 0.89162 0.0
C306 C 0.78084 0.49109 0.83584 0.0
C307 C 0.77174 0.5103 0.79965 0.0
C308 C 0.75884 0.53695 0.81002 0.0
C309 C 0.75412 0.54381 0.85587 0.0
C310 C 0.79492 0.46251 0.82638 0.0
C311 C 0.74868 0.55801 0.77244 0.0
H312 H 0.84837 0.49816 0.67176 0.0
H313 H 0.70724 0.47486 0.6564 0.0
H314 H 0.85092 0.53666 0.77242 0.0
H315 H 0.86769 0.50333 0.79148 0.0
H316 H 0.88694 0.51697 0.74036 0.0
H317 H 0.66255 0.47979 0.71561 0.0
H318 H 0.69447 0.47492 0.77258 0.0
H319 H 0.6787 0.50832 0.75296 0.0
H320 H 0.78174 0.48346 0.90861 0.0
H321 H 0.74317 0.56404 0.86343 0.0
H322 H 0.82528 0.4627 0.80815 0.0
H323 H 0.76694 0.45226 0.8033 0.0
H324 H 0.80307 0.45041 0.85863 0.0
H325 H 0.77798 0.55996 0.75292 0.0
H326 H 0.7414 0.57817 0.78649 0.0
H327 H 0.71866 0.55163 0.74741 0.0
C328 C 0.75813 0.48949 0.36521 0.0
C329 C 0.78846 0.46946 0.38489 0.0
C330 C 0.76101 0.49989 0.32085 0.0
C331 C 0.79401 0.48936 0.29501 0.0
C332 C 0.82459 0.46907 0.31476 0.0
C333 C 0.82188 0.45967 0.3597 0.0
C334 C 0.72853 0.52201 0.30151 0.0
C335 C 0.8593 0.45669 0.28792 0.0
C336 C 0.76724 0.49634 0.16402 0.0
C337 C 0.79631 0.51747 0.15525 0.0
C338 C 0.76693 0.48659 0.20916 0.0
C339 C 0.79549 0.49883 0.24669 0.0
C340 C 0.82512 0.52016 0.23794 0.0
C341 C 0.82561 0.52899 0.19217 0.0
C342 C 0.73573 0.46333 0.21671 0.0
C343 C 0.85523 0.5342 0.27705 0.0
H344 H 0.73235 0.49715 0.38465 0.0
H345 H 0.84504 0.44392 0.37453 0.0
H346 H 0.74793 0.53935 0.29005 0.0
H347 H 0.70559 0.51447 0.27067 0.0
H348 H 0.70719 0.52936 0.32723 0.0
H349 H 0.88076 0.44118 0.30833 0.0
H350 H 0.84154 0.44709 0.25586 0.0
H351 H 0.88199 0.47261 0.27717 0.0
H352 H 0.74464 0.4875 0.13532 0.0
H353 H 0.84748 0.54565 0.18536 0.0
H354 H 0.7099 0.47007 0.23819 0.0
H355 H 0.75569 0.4468 0.23585 0.0
H356 H 0.71761 0.4551 0.1836 0.0
H357 H 0.83379 0.54322 0.30123 0.0
H358 H 0.87627 0.55044 0.26445 0.0
H359 H 0.87834 0.51938 0.29712 0.0
C360 C 0.16447 0.47672 0.16617 0.0
C361 C 0.20706 0.47074 0.15291 0.0
C362 C 0.16113 0.4865 0.21071 0.0
C363 C 0.20131 0.49019 0.24296 0.0
C364 C 0.24447 0.48451 0.22963 0.0
C365 C 0.24684 0.47495 0.18471 0.0
C366 C 0.11452 0.49252 0.22348 0.0
C367 C 0.28811 0.48807 0.2631 0.0
C368 C 0.19876 0.53581 0.34742 0.0
C369 C 0.19551 0.51696 0.38276 0.0
C370 C 0.20005 0.52743 0.30166 0.0
C371 C 0.19816 0.4995 0.29093 0.0
C372 C 0.19392 0.48039 0.32622 0.0
C373 C 0.19254 0.48935 0.37167 0.0
C374 C 0.20418 0.54846 0.26495 0.0
C375 C 0.19196 0.45041 0.3162 0.0
H376 H 0.13356 0.47363 0.14179 0.0
H377 H 0.27987 0.47028 0.17485 0.0
H378 H 0.108 0.47925 0.25246 0.0
H379 H 0.11316 0.51373 0.23563 0.0
H380 H 0.08673 0.48945 0.19393 0.0
H381 H 0.31895 0.48312 0.24715 0.0
H382 H 0.29101 0.50924 0.27578 0.0
H383 H 0.28753 0.47484 0.29373 0.0
H384 H 0.20059 0.55717 0.35572 0.0
H385 H 0.19072 0.47463 0.39881 0.0
H386 H 0.17569 0.54626 0.2359 0.0
H387 H 0.23645 0.54538 0.25052 0.0
H388 H 0.20385 0.5694 0.27867 0.0
H389 H 0.16332 0.44589 0.28824 0.0
H390 H 0.18747 0.43822 0.3472 0.0
H391 H 0.22393 0.44391 0.30376 0.0
C392 C 0.74167 0.98526 0.86177 0.0
C393 C 0.70102 0.98788 0.88089 0.0
C394 C 0.74446 0.99379 0.81637 0.0
C395 C 0.70559 0.00516 0.78902 0.0
C396 C 0.66454 0.00813 0.8082 0.0
C397 C 0.66283 0.99959 0.85399 0.0
C398 C 0.7891 0.99051 0.79764 0.0
C399 C 0.62232 0.02007 0.78017 0.0
C400 C 0.72884 0.04582 0.68382 0.0
C401 C 0.72141 0.0264 0.64842 0.0
C402 C 0.7224 0.0395 0.72947 0.0
C403 C 0.70793 0.01318 0.74 0.0
C404 C 0.6987 0.99385 0.70403 0.0
C405 C 0.70566 1.00065 0.65882 0.0
C406 C 0.73283 0.06069 0.76677 0.0
C407 C 0.68303 0.9656 0.71362 0.0
H408 H 0.77172 0.97692 0.88264 0.0
H409 H 0.63141 1.00166 0.8686 0.0
H410 H 0.78424 0.9769 0.7671 0.0
H411 H 0.80068 0.01035 0.78588 0.0
H412 H 0.81652 0.98204 0.82381 0.0
H413 H 0.59343 0.0216 0.80041 0.0
H414 H 0.62993 0.04054 0.7677 0.0
H415 H 0.61147 0.00739 0.74913 0.0
H416 H 0.74115 0.06575 0.67624 0.0
H417 H 0.69958 0.98552 0.63174 0.0
H418 H 0.7629 0.0543 0.79174 0.0
H419 H 0.70367 0.06282 0.78643 0.0
H420 H 0.74025 0.08075 0.75242 0.0
H421 H 0.71051 0.95488 0.73659 0.0
H422 H 0.67409 0.95358 0.6814 0.0
H423 H 0.65279 0.96643 0.73198 0.0
C424 C 0.2542 0.04404 0.86452 0.0
C425 C 0.26172 0.02511 0.90075 0.0
C426 C 0.26016 0.03701 0.81909 0.0
C427 C 0.27443 0.01049 0.80962 0.0
C428 C 0.28363 0.99162 0.84636 0.0
C429 C 0.27696 0.9991 0.89136 0.0
C430 C 0.24954 0.05768 0.78092 0.0
C431 C 0.29919 0.96321 0.83787 0.0
C432 C 0.24104 0.98196 0.68823 0.0
C433 C 0.2816 0.98483 0.66905 0.0
C434 C 0.23824 0.99042 0.73367 0.0
C435 C 0.27703 1.00193 0.76096 0.0
C436 C 0.31809 0.00494 0.74185 0.0
C437 C 0.3198 0.99648 0.69606 0.0
C438 C 0.1936 0.98714 0.75239 0.0
C439 C 0.36024 0.01699 0.76984 0.0
H440 H 0.24216 0.06414 0.87132 0.0
H441 H 0.28305 0.98438 0.91911 0.0
H442 H 0.2787 0.05961 0.76122 0.0
H443 H 0.21955 0.05091 0.7562 0.0
H444 H 0.24189 0.07792 0.79443 0.0
H445 H 0.3079 0.95156 0.87054 0.0
H446 H 0.27175 0.9523 0.81515 0.0
H447 H 0.32955 0.96373 0.81966 0.0
H448 H 0.21103 0.97359 0.66734 0.0
H449 H 0.35122 0.99867 0.68148 0.0
H450 H 0.18149 0.0071 0.763 0.0
H451 H 0.19864 0.97409 0.78367 0.0
H452 H 0.16649 0.97804 0.7266 0.0
H453 H 0.35273 0.03768 0.78133 0.0
H454 H 0.38942 0.01806 0.74992 0.0
H455 H 0.3706 0.00471 0.80148 0.0
C456 C 0.3173 0.03023 0.20228 0.0
C457 C 0.28691 0.02003 0.16495 0.0
C458 C 0.3161 0.021 0.24771 0.0
C459 C 0.28464 1.00051 0.25572 0.0
C460 C 0.25459 0.98973 0.21782 0.0
C461 C 0.25564 0.99993 0.17303 0.0
C462 C 0.34783 0.03356 0.28723 0.0
C463 C 0.22146 0.96733 0.22452 0.0
C464 C 0.31148 0.95897 0.36624 0.0
C465 C 0.28016 0.96929 0.39345 0.0
C466 C 0.31303 0.96879 0.32132 0.0
C467 C 0.2835 0.99008 0.3036 0.0
C468 C 0.25243 1.00099 0.33134 0.0
C469 C 0.25059 0.99015 0.37565 0.0
C470 C 0.3456 0.95597 0.29244 0.0
C471 C 0.22117 0.02414 0.31424 0.0
H472 H 0.34094 0.04609 0.19604 0.0
H473 H 0.23224 0.99205 0.14403 0.0
H474 H 0.32768 0.04221 0.31291 0.0
H475 H 0.3706 0.01788 0.30537 0.0
H476 H 0.36932 0.04982 0.27537 0.0
H477 H 0.20165 0.96048 0.19124 0.0
H478 H 0.24022 0.94977 0.2417 0.0
H479 H 0.19712 0.9743 0.24751 0.0
H480 H 0.33399 0.94258 0.37957 0.0
H481 H 0.22639 0.99821 0.39662 0.0
H482 H 0.36965 0.97137 0.28253 0.0
H483 H 0.32624 0.94782 0.2599 0.0
H484 H 0.36572 0.93927 0.311 0.0
H485 H 0.24146 0.04129 0.30352 0.0
H486 H 0.20097 0.03138 0.34103 0.0
H487 H 0.19716 0.01774 0.28332 0.0
C488 C 0.7246 0.99704 0.37596 0.0
C489 C 0.69402 0.01748 0.38429 0.0
C490 C 0.72544 0.98698 0.33107 0.0
C491 C 0.69573 0.99815 0.29327 0.0
C492 C 0.66457 0.01874 0.30155 0.0
C493 C 0.6637 0.02792 0.34708 0.0
C494 C 0.75839 0.96456 0.32407 0.0
C495 C 0.63314 0.03165 0.26216 0.0
C496 C 0.73234 0.9894 0.17417 0.0
C497 C 0.70334 0.96857 0.15511 0.0
C498 C 0.72938 0.99973 0.21857 0.0
C499 C 0.69764 0.98838 0.24513 0.0
C500 C 0.66852 0.9672 0.22609 0.0
C501 C 0.67128 0.95783 0.18111 0.0
C502 C 0.76031 0.02275 0.23709 0.0
C503 C 0.63521 0.95397 0.25367 0.0
H504 H 0.74794 0.98895 0.40481 0.0
H505 H 0.64059 0.04403 0.35342 0.0
H506 H 0.73967 0.94734 0.30568 0.0
H507 H 0.78346 0.97181 0.3021 0.0
H508 H 0.77739 0.95709 0.35735 0.0
H509 H 0.61098 0.04742 0.27435 0.0
H510 H 0.65364 0.04102 0.23742 0.0
H511 H 0.61107 0.01606 0.24283 0.0
H512 H 0.75708 0.99781 0.15416 0.0
H513 H 0.64915 0.9415 0.16679 0.0
H514 H 0.78388 0.01598 0.26808 0.0
H515 H 0.73973 0.03966 0.2481 0.0
H516 H 0.78099 0.03045 0.21103 0.0
H517 H 0.65398 0.94519 0.28599 0.0
H518 H 0.61508 0.93767 0.23396 0.0
H519 H 0.6112 0.96925 0.26399 0.0
C520 C 0.41875 0.45148 0.99333 0.0
C521 C 0.38348 0.46804 1.00451 0.0
C522 C 0.46294 0.46161 0.99401 0.0
C523 C 0.47167 0.48912 1.00503 0.0
C524 C 0.43582 0.50621 1.01471 0.0
C525 C 0.39209 0.49532 1.01502 0.0
C526 C 0.5006 0.44264 0.98481 0.0
C527 C 0.44388 0.53582 0.0256 0.0
C528 C 0.58979 0.51154 0.05832 0.0
C529 C 0.60652 0.52234 1.01993 0.0
C530 C 0.54652 0.49957 0.05346 0.0
C531 C 0.51895 0.49955 1.00948 0.0
C532 C 0.53622 0.51003 0.97034 0.0
C533 C 0.58037 0.52097 0.97597 0.0
C534 C 0.5298 0.48775 0.09564 0.0
C535 C 0.50735 0.51095 0.92315 0.0
H536 H 0.41223 0.43026 0.98567 0.0
H537 H 0.36468 0.50809 0.02342 0.0
H538 H 0.51824 0.45072 0.95671 0.0
H539 H 0.52649 0.44099 1.01633 0.0
H540 H 0.48765 0.42205 0.97491 0.0
H541 H 0.41161 0.54681 0.02818 0.0
H542 H 0.46698 0.53801 0.05895 0.0
H543 H 0.46092 0.54557 0.99843 0.0
H544 H 0.61029 0.51291 0.09226 0.0
H545 H 0.59333 0.52994 0.94657 0.0
H546 H 0.51717 0.46682 0.08842 0.0
H547 H 0.50076 0.4999 0.10444 0.0
H548 H 0.55698 0.48735 0.12628 0.0
H549 H 0.49424 0.49049 0.91285 0.0
H550 H 0.52659 0.51882 0.89601 0.0
H551 H 0.47725 0.52415 0.92451 0.0
C552 C 0.59554 0.49468 0.51227 0.0
C553 C 0.60271 0.46707 0.52093 0.0
C554 C 0.55181 0.50593 0.51091 0.0
C555 C 0.51464 0.48891 0.51712 0.0
C556 C 0.52181 0.461 0.52553 0.0
C557 C 0.56589 0.45048 0.52784 0.0
C558 C 0.54533 0.53592 0.50274 0.0
C559 C 0.48279 0.44214 0.53114 0.0
C560 C 0.4064 0.51911 0.5501 0.0
C561 C 0.37958 0.52174 0.50662 0.0
C562 C 0.45083 0.50874 0.55405 0.0
C563 C 0.46789 0.50007 0.51366 0.0
C564 C 0.44009 0.50169 0.46992 0.0
C565 C 0.3964 0.513 0.46684 0.0
C566 C 0.47995 0.50787 0.60112 0.0
C567 C 0.45671 0.49184 0.42637 0.0
H568 H 0.62412 0.50747 0.50704 0.0
H569 H 0.57127 0.429 0.53392 0.0
H570 H 0.52206 0.53946 0.46986 0.0
H571 H 0.52908 0.54506 0.53099 0.0
H572 H 0.57812 0.54652 0.50089 0.0
H573 H 0.49426 0.42089 0.53739 0.0
H574 H 0.46565 0.44881 0.56053 0.0
H575 H 0.45688 0.44272 0.49951 0.0
H576 H 0.39354 0.52646 0.58072 0.0
H577 H 0.37549 0.51528 0.43327 0.0
H578 H 0.51151 0.51991 0.60051 0.0
H579 H 0.49062 0.48677 0.60996 0.0
H580 H 0.46175 0.51592 0.6289 0.0
H581 H 0.48679 0.50386 0.41988 0.0
H582 H 0.42998 0.49338 0.39547 0.0
H583 H 0.46783 0.47044 0.43062 0.0
C584 C 0.06062 0.05403 1.00816 0.0
C585 C 0.09729 0.03632 1.02042 0.0
C586 C 0.01574 0.04447 1.00072 0.0
C587 C 0.00764 0.01664 1.00685 0.0
C588 C 0.04481 0.9985 1.01776 0.0
C589 C 0.0896 0.0086 0.02387 0.0
C590 C 0.97704 0.06422 0.98758 0.0
C591 C 0.03717 0.96869 0.02485 0.0
C592 C 0.89589 0.99576 0.04449 0.0
C593 C 0.8732 0.98426 1.0037 0.0
C594 C 0.93957 0.00685 0.04572 0.0
C595 C 0.96027 0.00681 1.00493 0.0
C596 C 0.93625 0.99671 0.96297 0.0
C597 C 0.89301 0.98525 0.96299 0.0
C598 C 0.96438 0.01744 0.09111 0.0
C599 C 0.95691 0.99697 0.91862 0.0
H600 H 0.0671 0.07548 1.00469 0.0
H601 H 0.11835 0.9951 0.03323 0.0
H602 H 0.95608 0.05783 0.95468 0.0
H603 H 0.95431 0.0644 1.0146 0.0
H604 H 0.98944 0.08515 0.98323 0.0
H605 H 0.06974 0.95718 0.03106 0.0
H606 H 0.01881 0.96577 0.05502 0.0
H607 H 0.01541 0.96006 0.99413 0.0
H608 H 0.88068 0.99467 0.07606 0.0
H609 H 0.87516 0.97637 0.93143 0.0
H610 H 0.97532 0.03866 0.08697 0.0
H611 H -0.00432 0.00528 0.10183 0.0
H612 H 0.94291 0.01669 0.11928 0.0
H613 H 0.97006 0.01742 0.91212 0.0
H614 H 0.93191 0.99086 0.88817 0.0
H615 H 0.98633 0.98285 0.92179 0.0
C616 C 0.89917 0.01216 0.48519 0.0
C617 C 0.8814 0.02278 0.52313 0.0
C618 C 0.94274 1.00058 0.49091 0.0
C619 C 0.9695 1.00079 0.53534 0.0
C620 C 0.95124 0.01113 0.57397 0.0
C621 C 0.90685 0.02167 0.56745 0.0
C622 C 0.96056 0.98881 0.44925 0.0
C623 C 0.9793 0.01235 0.62157 0.0
C624 C 0.06923 0.95264 0.55414 0.0
C625 C 0.10493 0.96904 0.54346 0.0
C626 C 0.02505 0.96288 0.55248 0.0
C627 C 0.01675 0.99035 0.54097 0.0
C628 C 0.05303 0.00734 0.53202 0.0
C629 C 0.0968 0.99633 0.53269 0.0
C630 C 0.98696 0.94403 0.56107 0.0
C631 C 0.04536 0.03695 0.52076 0.0
H632 H 0.87921 0.01336 0.45095 0.0
H633 H 0.89311 0.03052 0.59647 0.0
H634 H 0.98989 1.00097 0.44118 0.0
H635 H 0.97309 0.96789 0.45681 0.0
H636 H 0.93404 0.98837 0.41805 0.0
H637 H 0.95902 0.01946 0.64838 0.0
H638 H 0.99373 0.99218 0.63188 0.0
H639 H 0.0085 0.02637 0.62091 0.0
H640 H 0.07534 0.93141 0.56204 0.0
H641 H 0.12454 0.00899 0.52468 0.0
H642 H 0.9615 0.94244 0.52921 0.0
H643 H 0.96891 0.9522 0.58879 0.0
H644 H -0.00044 0.92341 0.57123 0.0
H645 H 0.023 0.0391 0.48694 0.0
H646 H 0.07786 0.04787 0.51891 0.0
H647 H 0.02765 0.04678 0.54732 0.0
C648 C 0.23887 0.31373 0.06913 0.0
C649 C 0.20587 0.32603 0.03616 0.0
C650 C 0.2486 0.28609 0.0669 0.0
C651 C 0.22494 0.2703 0.03069 0.0
C652 C 0.19093 0.28238 0.99779 0.0
C653 C 0.18181 0.31015 1.0009 0.0
C654 C 0.28497 0.27391 0.10275 0.0
C655 C 0.1648 0.26607 0.95887 0.0
C656 C 0.28024 0.20424 1.00161 0.0
C657 C 0.2569 0.18548 0.02549 0.0
C658 C 0.26997 0.23198 1.00264 0.0
C659 C 0.23542 0.24101 0.02789 0.0
C660 C 0.21156 0.22213 0.0517 0.0
C661 C 0.22248 0.19465 0.05007 0.0
C662 C 0.29615 0.25164 0.97692 0.0
C663 C 0.17445 0.23093 0.07891 0.0
H664 H 0.25857 0.32595 0.09576 0.0
H665 H 0.15635 0.31955 0.97532 0.0
H666 H 0.27046 0.25691 0.1207 0.0
H667 H 0.31298 0.26555 0.0856 0.0
H668 H 0.29971 0.28892 0.12913 0.0
H669 H 0.13901 0.27842 0.93652 0.0
H670 H 0.18884 0.25736 0.93705 0.0
H671 H 0.14715 0.24891 0.97318 0.0
H672 H 0.30667 0.19723 0.9824 0.0
H673 H 0.20328 0.1802 0.06747 0.0
H674 H 0.31451 0.26641 1.00157 0.0
H675 H 0.27215 0.26328 0.95149 0.0
H676 H 0.32139 0.24133 0.95826 0.0
H677 H 0.18866 0.24522 0.10665 0.0
H678 H 0.15881 0.2136 0.09507 0.0
H679 H 0.14718 0.24181 0.05591 0.0
C680 C 0.80769 0.30915 0.53715 0.0
C681 C 0.78396 0.32471 0.50123 0.0
C682 C 0.79893 0.28135 0.5406 0.0
C683 C 0.76562 0.26892 0.50741 0.0
C684 C 0.74235 0.28439 0.47052 0.0
C685 C 0.75174 0.31207 0.46792 0.0
C686 C 0.82464 0.26539 0.58024 0.0
C687 C 0.70666 0.27185 0.4344 0.0
C688 C 0.76906 0.19304 0.49071 0.0
C689 C 0.73444 0.18409 0.51524 0.0
C690 C 0.77966 0.22054 0.48815 0.0
C691 C 0.75523 0.23965 0.51085 0.0
C692 C 0.72034 0.23083 0.53587 0.0
C693 C 0.71043 0.20308 0.53789 0.0
C694 C 0.81717 0.22912 0.46126 0.0
C695 C 0.69349 0.25072 0.56039 0.0
H696 H 0.83255 0.31882 0.56297 0.0
H697 H 0.73233 0.32405 0.44075 0.0
H698 H 0.80028 0.25687 0.60191 0.0
H699 H 0.84259 0.24811 0.5667 0.0
H700 H 0.85013 0.27795 0.60258 0.0
H701 H 0.69233 0.2866 0.40737 0.0
H702 H 0.72163 0.25469 0.4173 0.0
H703 H 0.67828 0.26363 0.45118 0.0
H704 H 0.78871 0.17842 0.47421 0.0
H705 H 0.68379 0.19625 0.55698 0.0
H706 H 0.84415 0.24019 0.4843 0.0
H707 H 0.80327 0.24317 0.43301 0.0
H708 H 0.83311 0.21166 0.44581 0.0
H709 H 0.71702 0.26259 0.58591 0.0
H710 H 0.66784 0.24058 0.57876 0.0
H711 H 0.67554 0.26527 0.53502 0.0
C712 C 0.69215 0.80956 1.00549 0.0
C713 C 0.71851 0.82508 0.03976 0.0
C714 C 0.69967 0.78166 1.00187 0.0
C715 C 0.73426 0.76902 0.03335 0.0
C716 C 0.76027 0.78443 0.06862 0.0
C717 C 0.75219 0.81227 0.0713 0.0
C718 C 0.67112 0.76578 0.96394 0.0
C719 C 0.79726 0.77163 0.103 0.0
C720 C 0.72745 0.69339 0.05147 0.0
C721 C 0.7596 0.68353 0.02467 0.0
C722 C 0.71897 0.72112 0.05458 0.0
C723 C 0.7429 0.73955 0.02996 0.0
C724 C 0.77533 0.72984 1.00272 0.0
C725 C 0.78329 0.70188 1.00034 0.0
C726 C 0.68412 0.73067 0.08397 0.0
C727 C 0.80148 0.74899 0.97601 0.0
H728 H 0.666 0.81933 0.98113 0.0
H729 H 0.77351 0.82417 0.09718 0.0
H730 H 0.69352 0.75641 0.94105 0.0
H731 H 0.6531 0.74911 0.97918 0.0
H732 H 0.64538 0.7786 0.94246 0.0
H733 H 0.81382 0.78638 0.12891 0.0
H734 H 0.78275 0.75491 0.12164 0.0
H735 H 0.82386 0.76273 0.08448 0.0
H736 H 0.70797 0.67932 0.06932 0.0
H737 H 0.80808 0.69438 0.97956 0.0
H738 H 0.65639 0.7419 0.06222 0.0
H739 H 0.70031 0.74484 0.111 0.0
H740 H 0.66869 0.71369 0.10122 0.0
H741 H 0.77732 0.76108 0.95145 0.0
H742 H 0.82527 0.7382 0.95621 0.0
H743 H 0.82145 0.76341 1.00015 0.0
C744 C 0.23958 0.8118 0.477 0.0
C745 C 0.27544 0.82409 0.50657 0.0
C746 C 0.23066 0.78409 0.48003 0.0
C747 C 0.2583 0.76822 0.51343 0.0
C748 C 0.29514 0.78033 0.54282 0.0
C749 C 0.30318 0.8082 0.53915 0.0
C750 C 0.191 0.77192 0.44816 0.0
C751 C 0.3256 0.76393 0.57853 0.0
C752 C 0.20986 0.70147 0.54916 0.0
C753 C 0.22992 0.68309 0.52167 0.0
C754 C 0.21883 0.72932 0.54696 0.0
C755 C 0.24893 0.73884 0.51695 0.0
C756 C 0.26943 0.72033 0.48939 0.0
C757 C 0.25967 0.69273 0.49208 0.0
C758 C 0.19614 0.74857 0.57663 0.0
C759 C 0.30193 0.72966 0.45724 0.0
H760 H 0.21722 0.82408 0.45256 0.0
H761 H 0.33083 0.81764 0.56212 0.0
H762 H 0.20321 0.75527 0.42765 0.0
H763 H 0.16609 0.76308 0.46888 0.0
H764 H 0.17302 0.78705 0.42384 0.0
H765 H 0.35327 0.77631 0.59815 0.0
H766 H 0.305 0.75485 0.60343 0.0
H767 H 0.34132 0.74703 0.56148 0.0
H768 H 0.18705 0.69405 0.5722 0.0
H769 H 0.27631 0.67854 0.47169 0.0
H770 H 0.17522 0.76348 0.55434 0.0
H771 H 0.22244 0.76008 0.59975 0.0
H772 H 0.1738 0.73792 0.59825 0.0
H773 H 0.28437 0.74405 0.43134 0.0
H774 H 0.3154 0.71259 0.43852 0.0
H775 H 0.33118 0.74058 0.47719 0.0
C776 C 0.59038 0.39496 0.31611 0.0
C777 C 0.59188 0.41185 0.35472 0.0
C778 C 0.55424 0.39665 0.27919 0.0
C779 C 0.51787 0.41495 0.2819 0.0
C780 C 0.51984 0.43247 0.32062 0.0
C781 C 0.55713 0.43085 0.35644 0.0
C782 C 0.55472 0.37863 0.23752 0.0
C783 C 0.4819 0.45216 0.32554 0.0
C784 C 0.4362 0.43071 0.17153 0.0
C785 C 0.40263 0.41088 0.17284 0.0
C786 C 0.47363 0.43266 0.20713 0.0
C787 C 0.47695 0.41463 0.24529 0.0
C788 C 0.44187 0.39535 0.24755 0.0
C789 C 0.40558 0.39337 0.21081 0.0
C790 C 0.51021 0.45336 0.20274 0.0
C791 C 0.44279 0.37672 0.28868 0.0
H792 H 0.61762 0.38044 0.315 0.0
H793 H 0.55831 0.44367 0.38672 0.0
H794 H 0.52636 0.36379 0.23538 0.0
H795 H 0.54928 0.39091 0.20531 0.0
H796 H 0.58738 0.36737 0.2389 0.0
H797 H 0.49456 0.46929 0.34848 0.0
H798 H 0.46612 0.46047 0.29163 0.0
H799 H 0.45486 0.44151 0.34117 0.0
H800 H 0.43388 0.44407 0.1418 0.0
H801 H 0.37917 0.37827 0.21176 0.0
H802 H 0.53833 0.44351 0.18764 0.0
H803 H 0.52487 0.46191 0.23684 0.0
H804 H 0.49666 0.47027 0.17968 0.0
H805 H 0.47232 0.36275 0.29049 0.0
H806 H 0.41108 0.36449 0.28692 0.0
H807 H 0.44719 0.38869 0.32122 0.0
C808 C 0.40413 0.58259 0.70412 0.0
C809 C 0.4163 0.59113 0.66178 0.0
C810 C 0.4367 0.58135 0.74425 0.0
C811 C 0.48264 0.58849 0.74174 0.0
C812 C 0.49544 0.59604 0.69862 0.0
C813 C 0.46202 0.59748 0.65923 0.0
C814 C 0.42156 0.57343 0.78961 0.0
C815 C 0.54426 0.60316 0.69429 0.0
C816 C 0.55523 0.61616 0.84954 0.0
C817 C 0.58108 0.5935 0.86632 0.0
C818 C 0.52289 0.61466 0.80936 0.0
C819 C 0.5166 0.58999 0.78469 0.0
C820 C 0.54285 0.56707 0.80092 0.0
C821 C 0.57453 0.56904 0.8417 0.0
C822 C 0.49538 0.63955 0.79334 0.0
C823 C 0.53738 0.54046 0.77531 0.0
H824 H 0.36876 0.57775 0.70614 0.0
H825 H 0.47163 0.60352 0.62631 0.0
H826 H 0.44339 0.55691 0.80637 0.0
H827 H 0.42548 0.59096 0.81362 0.0
H828 H 0.38536 0.56668 0.7851 0.0
H829 H 0.54924 0.6065 0.65771 0.0
H830 H 0.55435 0.62185 0.71424 0.0
H831 H 0.56759 0.58681 0.70917 0.0
H832 H 0.56042 0.63526 0.86765 0.0
H833 H 0.59365 0.55125 0.85452 0.0
H834 H 0.45833 0.63508 0.79075 0.0
H835 H 0.50204 0.64552 0.7583 0.0
H836 H 0.50354 0.65699 0.81712 0.0
H837 H 0.50213 0.53272 0.7748 0.0
H838 H 0.56179 0.52489 0.79136 0.0
H839 H 0.54262 0.54338 0.73875 0.0
C840 C 0.05363 0.89206 0.35509 0.0
C841 C 0.08118 0.91414 0.37189 0.0
C842 C 0.01914 0.89464 0.31681 0.0
C843 C 0.01227 0.9198 0.29372 0.0
C844 C 0.03982 0.9422 0.31006 0.0
C845 C 0.07362 0.93918 0.34905 0.0
C846 C 0.99034 0.87025 0.30071 0.0
C847 C 0.03397 0.96928 0.28598 0.0
C848 C 0.95561 0.91396 0.16864 0.0
C849 C 0.90999 0.92018 0.17198 0.0
C850 C 0.98957 0.91502 0.20759 0.0
C851 C 0.97756 0.92207 0.25126 0.0
C852 C 0.93176 0.92926 0.25459 0.0
C853 C 0.89856 0.92844 0.21475 0.0
C854 C 0.0381 0.90779 0.20222 0.0
C855 C 0.91742 0.93665 0.30053 0.0
H856 H 0.05907 0.87247 0.3714 0.0
H857 H 0.09391 0.95658 0.36146 0.0
H858 H 0.95354 0.87519 0.29886 0.0
H859 H -0.00383 0.86443 0.26533 0.0
H860 H -0.00182 0.85254 0.32397 0.0
H861 H 0.05784 0.98479 0.30316 0.0
H862 H 0.03988 0.96716 0.24948 0.0
H863 H -0.00155 0.97662 0.28526 0.0
H864 H 0.96466 0.90809 0.1354 0.0
H865 H 0.86328 0.9332 0.21736 0.0
H866 H 0.048 0.88868 0.22101 0.0
H867 H 0.06196 0.92374 0.2177 0.0
H868 H 0.04254 0.90511 0.16534 0.0
H869 H 0.92096 0.91872 0.32368 0.0
H870 H 0.88146 0.9438 0.29671 0.0
H871 H 0.93999 0.95268 0.31786 0.0
C872 C 0.0891 0.08325 0.83197 0.0
C873 C 0.07777 0.09216 0.87438 0.0
C874 C 0.0555 0.08104 0.79272 0.0
C875 C 0.00945 0.08741 0.79641 0.0
C876 C -0.00241 0.09485 0.83997 0.0
C877 C 0.03199 0.09743 0.87828 0.0
C878 C 0.06967 0.07323 0.74689 0.0
C879 C 0.9488 0.10105 0.84579 0.0
C880 C 0.9339 0.1157 0.69092 0.0
C881 C 0.90784 0.0931 0.67419 0.0
C882 C 0.9673 0.11394 0.73022 0.0
C883 C 0.97458 0.08903 0.75409 0.0
C884 C 0.9481 0.06616 0.73795 0.0
C885 C 0.91522 0.06843 0.69806 0.0
C886 C -0.00516 0.13882 0.74621 0.0
C887 C 0.95459 0.03931 0.7627 0.0
H888 H 0.12455 0.07912 0.82913 0.0
H889 H 0.0232 0.10373 0.9114 0.0
H890 H 0.04743 0.05684 0.73026 0.0
H891 H 0.06554 0.09088 0.72313 0.0
H892 H 0.1058 0.06639 0.75072 0.0
H893 H 0.94458 0.10341 0.88279 0.0
H894 H 0.93778 0.12006 0.82724 0.0
H895 H 0.9257 0.08472 0.83036 0.0
H896 H 0.92806 0.13497 0.67346 0.0
H897 H 0.89584 0.05072 0.68529 0.0
H898 H 0.03186 0.13454 0.74789 0.0
H899 H 0.98888 0.14446 0.78162 0.0
H900 H 0.98602 0.15642 0.72292 0.0
H901 H 0.98979 0.0318 0.76198 0.0
H902 H 0.93004 0.02376 0.74681 0.0
H903 H 0.95035 0.04176 0.79963 0.0
loop_
_geom_bond_atom_site_label_1
_geom_bond_atom_site_label_2
_geom_bond_distance
_geom_bond_site_symmetry_2
_ccdc_geom_bond_type
C0 C1 1.351 . S
C0 N3 1.368 . S
C0 H5 0.931 . S
C1 C0 1.351 . S
C1 N2 1.373 . S
C1 H29 0.930 . S
N2 C1 1.373 . S
N2 C4 1.340 . S
N3 C0 1.368 . S
N3 C4 1.321 . S
N3 Co6 2.135 . S
C4 N2 1.340 . S
C4 N3 1.321 . S
C4 H28 0.930 . S
H5 C0 0.931 . S
Co6 N3 2.135 . S
Co6 N9 2.121 1_554 S
Co6 O14 2.055 . S
Co6 O17 2.039 . S
Co6 N20 2.140 . S
C7 O8 1.227 . S
C7 O17 1.265 . S
O8 C7 1.227 . S
N9 Co6 2.121 1_556 S
N9 C11 1.375 . S
N9 C12 1.313 . S
C10 C11 1.338 . S
C10 N13 1.377 . S
C10 H30 0.930 . S
C11 N9 1.375 . S
C11 C10 1.338 . S
C11 H15 0.931 1_556 S
C12 N9 1.313 . S
C12 N13 1.344 . S
C12 H16 0.930 . S
N13 C10 1.377 . S
N13 C12 1.344 . S
O14 Co6 2.055 . S
O14 C18 1.250 1_554 S
H15 C11 0.931 1_554 S
H16 C12 0.930 . S
O17 Co6 2.039 . S
O17 C7 1.265 . S
C18 O14 1.250 1_556 S
C18 O19 1.228 . S
O19 C18 1.228 . S
N20 Co6 2.140 . S
N20 C23 1.346 . S
N20 C24 1.345 1_554 S
C21 C22 1.387 . S
C21 C25 1.391 1_554 S
C22 C21 1.387 . S
C22 C23 1.369 . S
C22 H31 0.929 . S
C23 N20 1.346 . S
C23 C22 1.369 . S
C23 H26 0.928 . S
C24 N20 1.345 1_556 S
C24 C25 1.371 . S
C24 H27 0.931 . S
C25 C21 1.391 1_556 S
C25 C24 1.371 . S
C25 H32 0.930 . S
H26 C23 0.928 . S
H27 C24 0.931 . S
H28 C4 0.930 . S
H29 C1 0.930 . S
H30 C10 0.930 . S
H31 C22 0.929 . S
H32 C25 0.930 . S
C33 C34 1.351 . S
C33 N36 1.368 . S
C33 H38 0.931 . S
C34 C33 1.351 . S
C34 N35 1.373 . S
C34 H62 0.930 . S
N35 C34 1.373 . S
N35 C37 1.340 . S
N36 C33 1.368 . S
N36 C37 1.321 . S
N36 Co39 2.135 . S
C37 N35 1.340 . S
C37 N36 1.321 . S
C37 H61 0.930 . S
H38 C33 0.931 . S
Co39 N36 2.135 . S
Co39 N42 2.121 . S
Co39 O47 2.055 . S
Co39 O50 2.039 . S
Co39 N53 2.140 . S
C40 O41 1.227 . S
C40 O50 1.265 . S
O41 C40 1.227 . S
N42 Co39 2.121 . S
N42 C44 1.375 . S
N42 C45 1.313 . S
C43 C44 1.338 . S
C43 N46 1.377 . S
C43 H63 0.930 . S
C44 N42 1.375 . S
C44 C43 1.338 . S
C44 H48 0.931 . S
C45 N42 1.313 . S
C45 N46 1.344 . S
C45 H49 0.930 . S
N46 C43 1.377 . S
N46 C45 1.344 . S
O47 Co39 2.055 . S
O47 C51 1.253 . S
H48 C44 0.931 . S
H49 C45 0.930 . S
O50 Co39 2.039 . S
O50 C40 1.265 . S
C51 O47 1.253 . S
C51 O52 1.227 . S
O52 C51 1.227 . S
N53 Co39 2.140 . S
N53 C56 1.346 . S
N53 C57 1.345 . S
C54 C55 1.387 . S
C54 C58 1.391 . S
C55 C54 1.387 . S
C55 C56 1.369 . S
C55 H64 0.929 . S
C56 N53 1.346 . S
C56 C55 1.369 . S
C56 H59 0.928 . S
C57 N53 1.345 . S
C57 C58 1.371 . S
C57 H60 0.931 . S
C58 C54 1.391 . S
C58 C57 1.371 . S
C58 H65 0.930 . S
H59 C56 0.928 . S
H60 C57 0.931 . S
H61 C37 0.930 . S
H62 C34 0.930 . S
H63 C43 0.930 . S
H64 C55 0.929 . S
H65 C58 0.930 . S
C66 C67 1.351 . S
C66 N69 1.368 . S
C66 H71 0.931 . S
C67 C66 1.351 . S
C67 N68 1.373 . S
C67 H95 0.930 . S
N68 C67 1.373 . S
N68 C70 1.340 . S
N69 C66 1.368 . S
N69 C70 1.321 . S
N69 Co72 2.135 . S
C70 N68 1.340 . S
C70 N69 1.321 . S
C70 H94 0.930 . S
H71 C66 0.931 . S
Co72 N69 2.135 . S
Co72 N75 2.121 1_556 S
Co72 O80 2.055 . S
Co72 O83 2.039 . S
Co72 N86 2.140 . S
C73 O74 1.227 . S
C73 O83 1.265 . S
O74 C73 1.227 . S
N75 Co72 2.121 1_554 S
N75 C77 1.375 . S
N75 C78 1.313 . S
C76 C77 1.338 . S
C76 N79 1.377 . S
C76 H96 0.930 . S
C77 N75 1.375 . S
C77 C76 1.338 . S
C77 H81 0.931 1_554 S
C78 N75 1.313 . S
C78 N79 1.344 . S
C78 H82 0.930 . S
N79 C76 1.377 . S
N79 C78 1.344 . S
O80 Co72 2.055 . S
O80 C84 1.250 1_556 S
H81 C77 0.931 1_556 S
H82 C78 0.930 . S
O83 Co72 2.039 . S
O83 C73 1.265 . S
C84 O80 1.250 1_554 S
C84 O85 1.228 . S
O85 C84 1.228 . S
N86 Co72 2.140 . S
N86 C89 1.346 . S
N86 C90 1.345 1_556 S
C87 C88 1.387 . S
C87 C91 1.391 1_556 S
C88 C87 1.387 . S
C88 C89 1.369 . S
C88 H97 0.929 . S
C89 N86 1.346 . S
C89 C88 1.369 . S
C89 H92 0.928 . S
C90 N86 1.345 1_554 S
C90 C91 1.371 . S
C90 H93 0.931 . S
C91 C87 1.391 1_554 S
C91 C90 1.371 . S
C91 H98 0.930 . S
H92 C89 0.928 . S
H93 C90 0.931 . S
H94 C70 0.930 . S
H95 C67 0.930 . S
H96 C76 0.930 . S
H97 C88 0.929 . S
H98 C91 0.930 . S
C99 C100 1.351 . S
C99 N102 1.368 . S
C99 H104 0.931 . S
C100 C99 1.351 . S
C100 N101 1.373 . S
C100 H128 0.930 . S
N101 C100 1.373 . S
N101 C103 1.340 . S
N102 C99 1.368 . S
N102 C103 1.321 . S
N102 Co105 2.135 . S
C103 N101 1.340 . S
C103 N102 1.321 . S
C103 H127 0.930 . S
H104 C99 0.931 . S
Co105 N102 2.135 . S
Co105 N108 2.121 . S
Co105 O113 2.055 . S
Co105 O116 2.039 . S
Co105 N119 2.140 . S
C106 O107 1.227 . S
C106 O116 1.265 . S
O107 C106 1.227 . S
N108 Co105 2.121 . S
N108 C110 1.375 . S
N108 C111 1.313 . S
C109 C110 1.338 . S
C109 N112 1.377 . S
C109 H129 0.930 . S
C110 N108 1.375 . S
C110 C109 1.338 . S
C110 H114 0.931 . S
C111 N108 1.313 . S
C111 N112 1.344 . S
C111 H115 0.930 . S
N112 C109 1.377 . S
N112 C111 1.344 . S
O113 Co105 2.055 . S
O113 C117 1.253 . S
H114 C110 0.931 . S
H115 C111 0.930 . S
O116 Co105 2.039 . S
O116 C106 1.265 . S
C117 O113 1.253 . S
C117 O118 1.227 . S
O118 C117 1.227 . S
N119 Co105 2.140 . S
N119 C122 1.346 . S
N119 C123 1.345 . S
C120 C121 1.387 . S
C120 C124 1.391 . S
C121 C120 1.387 . S
C121 C122 1.369 . S
C121 H130 0.929 . S
C122 N119 1.346 . S
C122 C121 1.369 . S
C122 H125 0.928 . S
C123 N119 1.345 . S
C123 C124 1.371 . S
C123 H126 0.931 . S
C124 C120 1.391 . S
C124 C123 1.371 . S
C124 H131 0.930 . S
H125 C122 0.928 . S
H126 C123 0.931 . S
H127 C103 0.930 . S
H128 C100 0.930 . S
H129 C109 0.930 . S
H130 C121 0.929 . S
H131 C124 0.930 . S
C132 C133 1.351 . S
C132 N135 1.368 . S
C132 H137 0.931 . S
C133 C132 1.351 . S
C133 N134 1.373 . S
C133 H161 0.930 . S
N134 C133 1.373 . S
N134 C136 1.340 . S
N135 C132 1.368 . S
N135 C136 1.321 . S
N135 Co138 2.135 . S
C136 N134 1.340 . S
C136 N135 1.321 . S
C136 H160 0.930 . S
H137 C132 0.931 . S
Co138 N135 2.135 . S
Co138 N141 2.121 1_554 S
Co138 O146 2.055 . S
Co138 O149 2.039 . S
Co138 N152 2.140 . S
C139 O140 1.227 . S
C139 O149 1.265 . S
O140 C139 1.227 . S
N141 Co138 2.121 1_556 S
N141 C143 1.375 . S
N141 C144 1.313 . S
C142 C143 1.338 . S
C142 N145 1.377 . S
C142 H162 0.930 . S
C143 N141 1.375 . S
C143 C142 1.338 . S
C143 H147 0.931 1_556 S
C144 N141 1.313 . S
C144 N145 1.344 . S
C144 H148 0.930 . S
N145 C142 1.377 . S
N145 C144 1.344 . S
O146 Co138 2.055 . S
O146 C150 1.250 1_554 S
H147 C143 0.931 1_554 S
H148 C144 0.930 . S
O149 Co138 2.039 . S
O149 C139 1.265 . S
C150 O146 1.250 1_556 S
C150 O151 1.228 . S
O151 C150 1.228 . S
N152 Co138 2.140 . S
N152 C155 1.346 . S
N152 C156 1.345 1_554 S
C153 C154 1.387 . S
C153 C157 1.391 1_554 S
C154 C153 1.387 . S
C154 C155 1.369 . S
C154 H163 0.929 . S
C155 N152 1.346 . S
C155 C154 1.369 . S
C155 H158 0.928 . S
C156 N152 1.345 1_556 S
C156 C157 1.371 . S
C156 H159 0.931 . S
C157 C153 1.391 1_556 S
C157 C156 1.371 . S
C157 H164 0.930 . S
H158 C155 0.928 . S
H159 C156 0.931 . S
H160 C136 0.930 . S
H161 C133 0.930 . S
H162 C142 0.930 . S
H163 C154 0.929 . S
H164 C157 0.930 . S
C165 C166 1.351 . S
C165 N168 1.368 . S
C165 H170 0.931 . S
C166 C165 1.351 . S
C166 N167 1.373 . S
C166 H194 0.930 . S
N167 C166 1.373 . S
N167 C169 1.340 . S
N168 C165 1.368 . S
N168 C169 1.321 . S
N168 Co171 2.135 . S
C169 N167 1.340 . S
C169 N168 1.321 . S
C169 H193 0.930 . S
H170 C165 0.931 . S
Co171 N168 2.135 . S
Co171 N174 2.121 . S
Co171 O179 2.055 . S
Co171 O182 2.039 . S
Co171 N185 2.140 . S
C172 O173 1.227 . S
C172 O182 1.265 . S
O173 C172 1.227 . S
N174 Co171 2.121 . S
N174 C176 1.375 . S
N174 C177 1.313 . S
C175 C176 1.338 . S
C175 N178 1.377 . S
C175 H195 0.930 . S
C176 N174 1.375 . S
C176 C175 1.338 . S
C176 H180 0.931 . S
C177 N174 1.313 . S
C177 N178 1.344 . S
C177 H181 0.930 . S
N178 C175 1.377 . S
N178 C177 1.344 . S
O179 Co171 2.055 . S
O179 C183 1.253 . S
H180 C176 0.931 . S
H181 C177 0.930 . S
O182 Co171 2.039 . S
O182 C172 1.265 . S
C183 O179 1.253 . S
C183 O184 1.227 . S
O184 C183 1.227 . S
N185 Co171 2.140 . S
N185 C188 1.346 . S
N185 C189 1.345 . S
C186 C187 1.387 . S
C186 C190 1.391 . S
C187 C186 1.387 . S
C187 C188 1.369 . S
C187 H196 0.929 . S
C188 N185 1.346 . S
C188 C187 1.369 . S
C188 H191 0.928 . S
C189 N185 1.345 . S
C189 C190 1.371 . S
C189 H192 0.931 . S
C190 C186 1.391 . S
C190 C189 1.371 . S
C190 H197 0.930 . S
H191 C188 0.928 . S
H192 C189 0.931 . S
H193 C169 0.930 . S
H194 C166 0.930 . S
H195 C175 0.930 . S
H196 C187 0.929 . S
H197 C190 0.930 . S
C198 C199 1.351 . S
C198 N201 1.368 . S
C198 H203 0.931 . S
C199 C198 1.351 . S
C199 N200 1.373 . S
C199 H227 0.930 . S
N200 C199 1.373 . S
N200 C202 1.340 . S
N201 C198 1.368 . S
N201 C202 1.321 . S
N201 Co204 2.135 . S
C202 N200 1.340 . S
C202 N201 1.321 . S
C202 H226 0.930 . S
H203 C198 0.931 . S
Co204 N201 2.135 . S
Co204 N207 2.121 1_556 S
Co204 O212 2.055 . S
Co204 O215 2.039 . S
Co204 N218 2.140 . S
C205 O206 1.227 . S
C205 O215 1.265 . S
O206 C205 1.227 . S
N207 Co204 2.121 1_554 S
N207 C209 1.375 . S
N207 C210 1.313 . S
C208 C209 1.338 . S
C208 N211 1.377 . S
C208 H228 0.930 . S
C209 N207 1.375 . S
C209 C208 1.338 . S
C209 H213 0.931 1_554 S
C210 N207 1.313 . S
C210 N211 1.344 . S
C210 H214 0.930 . S
N211 C208 1.377 . S
N211 C210 1.344 . S
O212 Co204 2.055 . S
O212 C216 1.250 1_556 S
H213 C209 0.931 1_556 S
H214 C210 0.930 . S
O215 Co204 2.039 . S
O215 C205 1.265 . S
C216 O212 1.250 1_554 S
C216 O217 1.228 . S
O217 C216 1.228 . S
N218 Co204 2.140 . S
N218 C221 1.346 . S
N218 C222 1.345 1_556 S
C219 C220 1.387 . S
C219 C223 1.391 1_556 S
C220 C219 1.387 . S
C220 C221 1.369 . S
C220 H229 0.929 . S
C221 N218 1.346 . S
C221 C220 1.369 . S
C221 H224 0.928 . S
C222 N218 1.345 1_554 S
C222 C223 1.371 . S
C222 H225 0.931 . S
C223 C219 1.391 1_554 S
C223 C222 1.371 . S
C223 H230 0.930 . S
H224 C221 0.928 . S
H225 C222 0.931 . S
H226 C202 0.930 . S
H227 C199 0.930 . S
H228 C208 0.930 . S
H229 C220 0.929 . S
H230 C223 0.930 . S
C231 C232 1.351 . S
C231 N234 1.368 . S
C231 H236 0.931 . S
C232 C231 1.351 . S
C232 N233 1.373 . S
C232 H260 0.930 . S
N233 C232 1.373 . S
N233 C235 1.340 . S
N234 C231 1.368 . S
N234 C235 1.321 . S
N234 Co237 2.135 . S
C235 N233 1.340 . S
C235 N234 1.321 . S
C235 H259 0.930 . S
H236 C231 0.931 . S
Co237 N234 2.135 . S
Co237 N240 2.121 . S
Co237 O245 2.055 . S
Co237 O248 2.039 . S
Co237 N251 2.140 . S
C238 O239 1.227 . S
C238 O248 1.265 . S
O239 C238 1.227 . S
N240 Co237 2.121 . S
N240 C242 1.375 . S
N240 C243 1.313 . S
C241 C242 1.338 . S
C241 N244 1.377 . S
C241 H261 0.930 . S
C242 N240 1.375 . S
C242 C241 1.338 . S
C242 H246 0.931 . S
C243 N240 1.313 . S
C243 N244 1.344 . S
C243 H247 0.930 . S
N244 C241 1.377 . S
N244 C243 1.344 . S
O245 Co237 2.055 . S
O245 C249 1.253 . S
H246 C242 0.931 . S
H247 C243 0.930 . S
O248 Co237 2.039 . S
O248 C238 1.265 . S
C249 O245 1.253 . S
C249 O250 1.227 . S
O250 C249 1.227 . S
N251 Co237 2.140 . S
N251 C254 1.346 . S
N251 C255 1.345 . S
C252 C253 1.387 . S
C252 C256 1.391 . S
C253 C252 1.387 . S
C253 C254 1.369 . S
C253 H262 0.929 . S
C254 N251 1.346 . S
C254 C253 1.369 . S
C254 H257 0.928 . S
C255 N251 1.345 . S
C255 C256 1.371 . S
C255 H258 0.931 . S
C256 C252 1.391 . S
C256 C255 1.371 . S
C256 H263 0.930 . S
H257 C254 0.928 . S
H258 C255 0.931 . S
H259 C235 0.930 . S
H260 C232 0.930 . S
H261 C241 0.930 . S
H262 C253 0.929 . S
H263 C256 0.930 . S
C264 C265 1.391 . S
C264 C266 1.394 . S
C264 H280 0.931 . S
C265 C264 1.391 . S
C265 C269 1.376 . S
C266 C264 1.394 . S
C266 C267 1.369 . S
C266 C270 1.531 . S
C267 C266 1.369 . S
C267 C268 1.410 . S
C267 C275 1.503 . S
C268 C267 1.410 . S
C268 C269 1.392 . S
C268 C271 1.511 . S
C269 C265 1.376 . S
C269 C268 1.392 . S
C269 H281 0.929 . S
C270 C266 1.531 . S
C270 H282 0.960 . S
C270 H283 0.962 . S
C270 H284 0.960 . S
C271 C268 1.511 . S
C271 H285 0.961 . S
C271 H286 0.961 . S
C271 H287 0.961 . S
C272 C273 1.370 . S
C272 C274 1.363 . S
C272 H288 0.931 . S
C273 C272 1.370 . S
C273 C277 1.408 . S
C274 C272 1.363 . S
C274 C275 1.370 . S
C274 C278 1.524 . S
C275 C267 1.503 . S
C275 C274 1.370 . S
C275 C276 1.403 . S
C276 C275 1.403 . S
C276 C277 1.404 . S
C276 C279 1.539 . S
C277 C273 1.408 . S
C277 C276 1.404 . S
C277 H289 0.930 . S
C278 C274 1.524 . S
C278 H290 0.956 . S
C278 H291 0.961 . S
C278 H292 0.961 . S
C279 C276 1.539 . S
C279 H293 0.958 . S
C279 H294 0.961 . S
C279 H295 0.960 . S
H280 C264 0.931 . S
H281 C269 0.929 . S
H282 C270 0.960 . S
H283 C270 0.962 . S
H284 C270 0.960 . S
H285 C271 0.961 . S
H286 C271 0.961 . S
H287 C271 0.961 . S
H288 C272 0.931 . S
H289 C277 0.930 . S
H290 C278 0.956 . S
H291 C278 0.961 . S
H292 C278 0.961 . S
H293 C279 0.958 . S
H294 C279 0.961 . S
H295 C279 0.960 . S
C296 C297 1.391 . S
C296 C298 1.394 . S
C296 H312 0.931 . S
C297 C296 1.391 . S
C297 C301 1.376 . S
C298 C296 1.394 . S
C298 C299 1.369 . S
C298 C302 1.531 . S
C299 C298 1.369 . S
C299 C300 1.410 . S
C299 C307 1.503 . S
C300 C299 1.410 . S
C300 C301 1.392 . S
C300 C303 1.511 . S
C301 C297 1.376 . S
C301 C300 1.392 . S
C301 H313 0.929 . S
C302 C298 1.531 . S
C302 H314 0.960 . S
C302 H315 0.962 . S
C302 H316 0.960 . S
C303 C300 1.511 . S
C303 H317 0.961 . S
C303 H318 0.961 . S
C303 H319 0.961 . S
C304 C305 1.370 . S
C304 C306 1.363 . S
C304 H320 0.931 . S
C305 C304 1.370 . S
C305 C309 1.408 . S
C306 C304 1.363 . S
C306 C307 1.370 . S
C306 C310 1.524 . S
C307 C299 1.503 . S
C307 C306 1.370 . S
C307 C308 1.403 . S
C308 C307 1.403 . S
C308 C309 1.404 . S
C308 C311 1.539 . S
C309 C305 1.408 . S
C309 C308 1.404 . S
C309 H321 0.930 . S
C310 C306 1.524 . S
C310 H322 0.956 . S
C310 H323 0.961 . S
C310 H324 0.961 . S
C311 C308 1.539 . S
C311 H325 0.958 . S
C311 H326 0.961 . S
C311 H327 0.960 . S
H312 C296 0.931 . S
H313 C301 0.929 . S
H314 C302 0.960 . S
H315 C302 0.962 . S
H316 C302 0.960 . S
H317 C303 0.961 . S
H318 C303 0.961 . S
H319 C303 0.961 . S
H320 C304 0.931 . S
H321 C309 0.930 . S
H322 C310 0.956 . S
H323 C310 0.961 . S
H324 C310 0.961 . S
H325 C311 0.958 . S
H326 C311 0.961 . S
H327 C311 0.960 . S
C328 C329 1.391 . S
C328 C330 1.394 . S
C328 H344 0.931 . S
C329 C328 1.391 . S
C329 C333 1.376 . S
C330 C328 1.394 . S
C330 C331 1.369 . S
C330 C334 1.531 . S
C331 C330 1.369 . S
C331 C332 1.410 . S
C331 C339 1.503 . S
C332 C331 1.410 . S
C332 C333 1.392 . S
C332 C335 1.511 . S
C333 C329 1.376 . S
C333 C332 1.392 . S
C333 H345 0.929 . S
C334 C330 1.531 . S
C334 H346 0.960 . S
C334 H347 0.962 . S
C334 H348 0.960 . S
C335 C332 1.511 . S
C335 H349 0.961 . S
C335 H350 0.961 . S
C335 H351 0.961 . S
C336 C337 1.370 . S
C336 C338 1.363 . S
C336 H352 0.931 . S
C337 C336 1.370 . S
C337 C341 1.408 . S
C338 C336 1.363 . S
C338 C339 1.370 . S
C338 C342 1.524 . S
C339 C331 1.503 . S
C339 C338 1.370 . S
C339 C340 1.403 . S
C340 C339 1.403 . S
C340 C341 1.404 . S
C340 C343 1.539 . S
C341 C337 1.408 . S
C341 C340 1.404 . S
C341 H353 0.930 . S
C342 C338 1.524 . S
C342 H354 0.956 . S
C342 H355 0.961 . S
C342 H356 0.961 . S
C343 C340 1.539 . S
C343 H357 0.958 . S
C343 H358 0.961 . S
C343 H359 0.960 . S
H344 C328 0.931 . S
H345 C333 0.929 . S
H346 C334 0.960 . S
H347 C334 0.962 . S
H348 C334 0.960 . S
H349 C335 0.961 . S
H350 C335 0.961 . S
H351 C335 0.961 . S
H352 C336 0.931 . S
H353 C341 0.930 . S
H354 C342 0.956 . S
H355 C342 0.961 . S
H356 C342 0.961 . S
H357 C343 0.958 . S
H358 C343 0.961 . S
H359 C343 0.960 . S
C360 C361 1.391 . S
C360 C362 1.394 . S
C360 H376 0.931 . S
C361 C360 1.391 . S
C361 C365 1.376 . S
C362 C360 1.394 . S
C362 C363 1.369 . S
C362 C366 1.531 . S
C363 C362 1.369 . S
C363 C364 1.410 . S
C363 C371 1.503 . S
C364 C363 1.410 . S
C364 C365 1.392 . S
C364 C367 1.511 . S
C365 C361 1.376 . S
C365 C364 1.392 . S
C365 H377 0.929 . S
C366 C362 1.531 . S
C366 H378 0.960 . S
C366 H379 0.962 . S
C366 H380 0.960 . S
C367 C364 1.511 . S
C367 H381 0.961 . S
C367 H382 0.961 . S
C367 H383 0.961 . S
C368 C369 1.370 . S
C368 C370 1.363 . S
C368 H384 0.931 . S
C369 C368 1.370 . S
C369 C373 1.408 . S
C370 C368 1.363 . S
C370 C371 1.370 . S
C370 C374 1.524 . S
C371 C363 1.503 . S
C371 C370 1.370 . S
C371 C372 1.403 . S
C372 C371 1.403 . S
C372 C373 1.404 . S
C372 C375 1.539 . S
C373 C369 1.408 . S
C373 C372 1.404 . S
C373 H385 0.930 . S
C374 C370 1.524 . S
C374 H386 0.956 . S
C374 H387 0.961 . S
C374 H388 0.961 . S
C375 C372 1.539 . S
C375 H389 0.958 . S
C375 H390 0.961 . S
C375 H391 0.960 . S
H376 C360 0.931 . S
H377 C365 0.929 . S
H378 C366 0.960 . S
H379 C366 0.962 . S
H380 C366 0.960 . S
H381 C367 0.961 . S
H382 C367 0.961 . S
H383 C367 0.961 . S
H384 C368 0.931 . S
H385 C373 0.930 . S
H386 C374 0.956 . S
H387 C374 0.961 . S
H388 C374 0.961 . S
H389 C375 0.958 . S
H390 C375 0.961 . S
H391 C375 0.960 . S
C392 C393 1.391 . S
C392 C394 1.394 . S
C392 H408 0.931 . S
C393 C392 1.391 . S
C393 C397 1.376 . S
C394 C392 1.394 . S
C394 C395 1.369 . S
C394 C398 1.531 . S
C395 C394 1.369 . S
C395 C396 1.410 1_565 S
C395 C403 1.503 1_565 S
C396 C395 1.410 1_545 S
C396 C397 1.392 1_545 S
C396 C399 1.511 . S
C397 C393 1.376 . S
C397 C396 1.392 1_565 S
C397 H409 0.929 1_565 S
C398 C394 1.531 . S
C398 H410 0.960 . S
C398 H411 0.962 . S
C398 H412 0.960 . S
C399 C396 1.511 . S
C399 H413 0.961 . S
C399 H414 0.961 . S
C399 H415 0.961 . S
C400 C401 1.370 . S
C400 C402 1.363 . S
C400 H416 0.931 . S
C401 C400 1.370 . S
C401 C405 1.408 . S
C402 C400 1.363 . S
C402 C403 1.370 . S
C402 C406 1.524 . S
C403 C395 1.503 1_545 S
C403 C402 1.370 . S
C403 C404 1.403 1_545 S
C404 C403 1.403 1_565 S
C404 C405 1.404 1_565 S
C404 C407 1.539 . S
C405 C401 1.408 . S
C405 C404 1.404 1_545 S
C405 H417 0.930 1_545 S
C406 C402 1.524 . S
C406 H418 0.956 . S
C406 H419 0.961 . S
C406 H420 0.961 . S
C407 C404 1.539 . S
C407 H421 0.958 . S
C407 H422 0.961 . S
C407 H423 0.960 . S
H408 C392 0.931 . S
H409 C397 0.929 1_545 S
H410 C398 0.960 . S
H411 C398 0.962 . S
H412 C398 0.960 . S
H413 C399 0.961 . S
H414 C399 0.961 . S
H415 C399 0.961 . S
H416 C400 0.931 . S
H417 C405 0.930 1_565 S
H418 C406 0.956 . S
H419 C406 0.961 . S
H420 C406 0.961 . S
H421 C407 0.958 . S
H422 C407 0.961 . S
H423 C407 0.960 . S
C424 C425 1.391 . S
C424 C426 1.394 . S
C424 H440 0.931 . S
C425 C424 1.391 . S
C425 C429 1.376 . S
C426 C424 1.394 . S
C426 C427 1.369 . S
C426 C430 1.531 . S
C427 C426 1.369 . S
C427 C428 1.426 . S
C427 C435 1.503 . S
C428 C427 1.426 . S
C428 C429 1.403 . S
C428 C431 1.485 1_545 S
C429 C425 1.376 . S
C429 C428 1.403 . S
C429 H441 0.936 . S
C430 C426 1.531 . S
C430 H442 0.960 . S
C430 H443 0.962 . S
C430 H444 0.960 . S
C431 C428 1.485 1_565 S
C431 H445 0.961 . S
C431 H446 0.961 . S
C431 H447 0.961 . S
C432 C433 1.370 . S
C432 C434 1.363 . S
C432 H448 0.931 . S
C433 C432 1.370 . S
C433 C437 1.408 1_565 S
C434 C432 1.363 . S
C434 C435 1.370 1_565 S
C434 C438 1.524 . S
C435 C427 1.503 . S
C435 C434 1.370 1_545 S
C435 C436 1.403 . S
C436 C435 1.403 . S
C436 C437 1.404 . S
C436 C439 1.539 . S
C437 C433 1.408 1_545 S
C437 C436 1.404 . S
C437 H449 0.930 . S
C438 C434 1.524 . S
C438 H450 0.956 . S
C438 H451 0.961 . S
C438 H452 0.961 . S
C439 C436 1.539 . S
C439 H453 0.958 . S
C439 H454 0.961 . S
C439 H455 0.960 . S
H440 C424 0.931 . S
H441 C429 0.936 . S
H442 C430 0.960 . S
H443 C430 0.962 . S
H444 C430 0.960 . S
H445 C431 0.961 . S
H446 C431 0.961 . S
H447 C431 0.961 . S
H448 C432 0.931 . S
H449 C437 0.930 . S
H450 C438 0.956 . S
H451 C438 0.961 . S
H452 C438 0.961 . S
H453 C439 0.958 . S
H454 C439 0.961 . S
H455 C439 0.960 . S
C456 C457 1.391 . S
C456 C458 1.394 . S
C456 H472 0.931 . S
C457 C456 1.391 . S
C457 C461 1.376 . S
C458 C456 1.394 . S
C458 C459 1.369 . S
C458 C462 1.531 . S
C459 C458 1.369 . S
C459 C460 1.410 . S
C459 C467 1.503 1_545 S
C460 C459 1.410 . S
C460 C461 1.392 . S
C460 C463 1.511 1_545 S
C461 C457 1.376 . S
C461 C460 1.392 . S
C461 H473 0.929 . S
C462 C458 1.531 . S
C462 H474 0.960 . S
C462 H475 0.924 1_545 S
C462 H476 0.960 . S
C463 C460 1.511 1_565 S
C463 H477 0.961 . S
C463 H478 0.961 . S
C463 H479 0.961 1_565 S
C464 C465 1.370 . S
C464 C466 1.363 . S
C464 H480 0.931 . S
C465 C464 1.370 . S
C465 C469 1.408 1_565 S
C466 C464 1.363 . S
C466 C467 1.370 . S
C466 C470 1.524 . S
C467 C459 1.503 1_565 S
C467 C466 1.370 . S
C467 C468 1.403 1_565 S
C468 C467 1.403 1_545 S
C468 C469 1.404 . S
C468 C471 1.539 . S
C469 C465 1.408 1_545 S
C469 C468 1.404 . S
C469 H481 0.930 . S
C470 C466 1.524 . S
C470 H482 0.956 . S
C470 H483 0.961 . S
C470 H484 0.961 . S
C471 C468 1.539 . S
C471 H485 0.958 . S
C471 H486 0.961 . S
C471 H487 0.960 . S
H472 C456 0.931 . S
H473 C461 0.929 . S
H474 C462 0.960 . S
H475 C462 0.924 1_565 S
H476 C462 0.960 . S
H477 C463 0.961 . S
H478 C463 0.961 . S
H479 C463 0.961 1_545 S
H480 C464 0.931 . S
H481 C469 0.930 . S
H482 C470 0.956 . S
H483 C470 0.961 . S
H484 C470 0.961 . S
H485 C471 0.958 . S
H486 C471 0.961 . S
H487 C471 0.960 . S
C488 C489 1.391 . S
C488 C490 1.394 1_545 S
C488 H504 0.928 1_545 S
C489 C488 1.391 . S
C489 C493 1.376 . S
C490 C488 1.394 1_565 S
C490 C491 1.369 . S
C490 C494 1.531 . S
C491 C490 1.369 . S
C491 C492 1.410 1_565 S
C491 C499 1.503 . S
C492 C491 1.410 1_545 S
C492 C493 1.392 . S
C492 C495 1.511 . S
C493 C489 1.376 . S
C493 C492 1.392 . S
C493 H505 0.929 . S
C494 C490 1.531 . S
C494 H506 0.960 . S
C494 H507 0.962 . S
C494 H508 0.960 . S
C495 C492 1.511 . S
C495 H509 0.961 . S
C495 H510 0.961 . S
C495 H511 0.961 1_545 S
C496 C497 1.370 . S
C496 C498 1.363 1_565 S
C496 H512 0.931 1_565 S
C497 C496 1.370 . S
C497 C501 1.408 . S
C498 C496 1.363 1_545 S
C498 C499 1.370 1_545 S
C498 C502 1.524 . S
C499 C491 1.503 . S
C499 C498 1.370 1_565 S
C499 C500 1.403 . S
C500 C499 1.403 . S
C500 C501 1.404 . S
C500 C503 1.539 . S
C501 C497 1.408 . S
C501 C500 1.404 . S
C501 H513 0.930 . S
C502 C498 1.524 . S
C502 H514 0.956 . S
C502 H515 0.961 . S
C502 H516 0.961 . S
C503 C500 1.539 . S
C503 H517 0.958 . S
C503 H518 0.961 . S
C503 H519 0.960 . S
H504 C488 0.928 1_565 S
H505 C493 0.929 . S
H506 C494 0.960 . S
H507 C494 0.962 . S
H508 C494 0.960 . S
H509 C495 0.961 . S
H510 C495 0.961 . S
H511 C495 0.961 1_565 S
H512 C496 0.931 1_545 S
H513 C501 0.930 . S
H514 C502 0.956 . S
H515 C502 0.961 . S
H516 C502 0.961 . S
H517 C503 0.958 . S
H518 C503 0.961 . S
H519 C503 0.960 . S
C520 C521 1.391 . S
C520 C522 1.394 . S
C520 H536 0.931 . S
C521 C520 1.391 . S
C521 C525 1.376 1_556 S
C522 C520 1.394 . S
C522 C523 1.369 . S
C522 C526 1.531 . S
C523 C522 1.369 . S
C523 C524 1.410 1_556 S
C523 C531 1.503 . S
C524 C523 1.410 1_554 S
C524 C525 1.392 . S
C524 C527 1.511 . S
C525 C521 1.376 1_554 S
C525 C524 1.392 . S
C525 H537 0.929 . S
C526 C522 1.531 . S
C526 H538 0.960 . S
C526 H539 0.962 . S
C526 H540 0.960 . S
C527 C524 1.511 . S
C527 H541 0.961 . S
C527 H542 0.961 . S
C527 H543 0.943 1_554 S
C528 C529 1.370 . S
C528 C530 1.363 . S
C528 H544 0.931 . S
C529 C528 1.370 . S
C529 C533 1.408 1_554 S
C530 C528 1.363 . S
C530 C531 1.370 1_554 S
C530 C534 1.524 . S
C531 C523 1.503 . S
C531 C530 1.370 1_556 S
C531 C532 1.403 . S
C532 C531 1.403 . S
C532 C533 1.404 . S
C532 C535 1.539 . S
C533 C529 1.408 1_556 S
C533 C532 1.404 . S
C533 H545 0.930 . S
C534 C530 1.524 . S
C534 H546 0.956 . S
C534 H547 0.961 . S
C534 H548 0.961 . S
C535 C532 1.539 . S
C535 H549 0.958 . S
C535 H550 0.961 . S
C535 H551 0.960 . S
H536 C520 0.931 . S
H537 C525 0.929 . S
H538 C526 0.960 . S
H539 C526 0.962 . S
H540 C526 0.960 . S
H541 C527 0.961 . S
H542 C527 0.961 . S
H543 C527 0.943 1_556 S
H544 C528 0.931 . S
H545 C533 0.930 . S
H546 C534 0.956 . S
H547 C534 0.961 . S
H548 C534 0.961 . S
H549 C535 0.958 . S
H550 C535 0.961 . S
H551 C535 0.960 . S
C552 C553 1.391 . S
C552 C554 1.394 . S
C552 H568 0.931 . S
C553 C552 1.391 . S
C553 C557 1.376 . S
C554 C552 1.394 . S
C554 C555 1.369 . S
C554 C558 1.531 . S
C555 C554 1.369 . S
C555 C556 1.410 . S
C555 C563 1.503 . S
C556 C555 1.410 . S
C556 C557 1.392 . S
C556 C559 1.511 . S
C557 C553 1.376 . S
C557 C556 1.392 . S
C557 H569 0.929 . S
C558 C554 1.531 . S
C558 H570 0.960 . S
C558 H571 0.962 . S
C558 H572 0.960 . S
C559 C556 1.511 . S
C559 H573 0.961 . S
C559 H574 0.961 . S
C559 H575 0.961 . S
C560 C561 1.370 . S
C560 C562 1.363 . S
C560 H576 0.931 . S
C561 C560 1.370 . S
C561 C565 1.408 . S
C562 C560 1.363 . S
C562 C563 1.370 . S
C562 C566 1.524 . S
C563 C555 1.503 . S
C563 C562 1.370 . S
C563 C564 1.403 . S
C564 C563 1.403 . S
C564 C565 1.404 . S
C564 C567 1.539 . S
C565 C561 1.408 . S
C565 C564 1.404 . S
C565 H577 0.930 . S
C566 C562 1.524 . S
C566 H578 0.956 . S
C566 H579 0.961 . S
C566 H580 0.961 . S
C567 C564 1.539 . S
C567 H581 0.958 . S
C567 H582 0.961 . S
C567 H583 0.960 . S
H568 C552 0.931 . S
H569 C557 0.929 . S
H570 C558 0.960 . S
H571 C558 0.962 . S
H572 C558 0.960 . S
H573 C559 0.961 . S
H574 C559 0.961 . S
H575 C559 0.961 . S
H576 C560 0.931 . S
H577 C565 0.930 . S
H578 C566 0.956 . S
H579 C566 0.961 . S
H580 C566 0.961 . S
H581 C567 0.958 . S
H582 C567 0.961 . S
H583 C567 0.960 . S
C584 C585 1.391 1_556 S
C584 C586 1.394 . S
C584 H600 0.931 . S
C585 C584 1.391 1_554 S
C585 C589 1.376 . S
C586 C584 1.394 . S
C586 C587 1.369 . S
C586 C590 1.531 1_455 S
C587 C586 1.369 . S
C587 C588 1.410 1_546 S
C587 C595 1.503 1_445 S
C588 C587 1.410 1_564 S
C588 C589 1.392 1_565 S
C588 C591 1.511 . S
C589 C585 1.376 . S
C589 C588 1.392 1_545 S
C589 H601 0.922 1_545 S
C590 C586 1.531 1_655 S
C590 H602 0.960 . S
C590 H603 0.962 . S
C590 H604 0.960 . S
C591 C588 1.511 . S
C591 H605 0.961 . S
C591 H606 0.961 . S
C591 H607 0.961 . S
C592 C593 1.370 1_554 S
C592 C594 1.363 . S
C592 H608 0.931 . S
C593 C592 1.370 1_556 S
C593 C597 1.408 . S
C594 C592 1.363 . S
C594 C595 1.370 1_554 S
C594 C598 1.524 1_565 S
C595 C587 1.503 1_665 S
C595 C594 1.370 1_556 S
C595 C596 1.403 . S
C596 C595 1.403 . S
C596 C597 1.404 . S
C596 C599 1.539 . S
C597 C593 1.408 . S
C597 C596 1.404 . S
C597 H609 0.930 . S
C598 C594 1.524 1_545 S
C598 H610 0.956 . S
C598 H611 0.943 1_655 S
C598 H612 0.961 . S
C599 C596 1.539 . S
C599 H613 0.958 . S
C599 H614 0.961 . S
C599 H615 0.960 1_655 S
H600 C584 0.931 . S
H601 C589 0.922 1_565 S
H602 C590 0.960 . S
H603 C590 0.962 . S
H604 C590 0.960 . S
H605 C591 0.961 . S
H606 C591 0.961 . S
H607 C591 0.961 . S
H608 C592 0.931 . S
H609 C597 0.930 . S
H610 C598 0.956 . S
H611 C598 0.943 1_455 S
H612 C598 0.961 . S
H613 C599 0.958 . S
H614 C599 0.961 . S
H615 C599 0.960 1_455 S
C616 C617 1.391 . S
C616 C618 1.394 . S
C616 H632 0.931 . S
C617 C616 1.391 . S
C617 C621 1.376 . S
C618 C616 1.394 . S
C618 C619 1.369 . S
C618 C622 1.531 1_545 S
C619 C618 1.369 . S
C619 C620 1.410 . S
C619 C627 1.503 1_645 S
C620 C619 1.410 . S
C620 C621 1.392 . S
C620 C623 1.511 1_655 S
C621 C617 1.376 . S
C621 C620 1.392 . S
C621 H633 0.929 . S
C622 C618 1.531 1_565 S
C622 H634 0.960 . S
C622 H635 0.962 . S
C622 H636 0.960 . S
C623 C620 1.511 1_455 S
C623 H637 0.961 1_455 S
C623 H638 0.961 . S
C623 H639 0.961 . S
C624 C625 1.370 . S
C624 C626 1.363 . S
C624 H640 0.931 . S
C625 C624 1.370 . S
C625 C629 1.408 . S
C626 C624 1.363 . S
C626 C627 1.370 . S
C626 C630 1.524 1_455 S
C627 C619 1.503 1_465 S
C627 C626 1.370 . S
C627 C628 1.403 1_565 S
C628 C627 1.403 1_545 S
C628 C629 1.404 1_545 S
C628 C631 1.539 . S
C629 C625 1.408 . S
C629 C628 1.404 1_565 S
C629 H641 0.930 . S
C630 C626 1.524 1_655 S
C630 H642 0.956 . S
C630 H643 0.961 . S
C630 H644 0.961 . S
C631 C628 1.539 . S
C631 H645 0.958 . S
C631 H646 0.961 . S
C631 H647 0.960 . S
H632 C616 0.931 . S
H633 C621 0.929 . S
H634 C622 0.960 . S
H635 C622 0.962 . S
H636 C622 0.960 . S
H637 C623 0.961 1_655 S
H638 C623 0.961 . S
H639 C623 0.961 . S
H640 C624 0.931 . S
H641 C629 0.930 . S
H642 C630 0.956 . S
H643 C630 0.961 . S
H644 C630 0.961 . S
H645 C631 0.958 . S
H646 C631 0.961 . S
H647 C631 0.960 . S
C648 C649 1.391 . S
C648 C650 1.394 . S
C648 H664 0.931 . S
C649 C648 1.391 . S
C649 C653 1.376 1_554 S
C650 C648 1.394 . S
C650 C651 1.369 . S
C650 C654 1.531 . S
C651 C650 1.369 . S
C651 C652 1.410 1_554 S
C651 C659 1.503 . S
C652 C651 1.410 1_556 S
C652 C653 1.392 . S
C652 C655 1.511 . S
C653 C649 1.376 1_556 S
C653 C652 1.392 . S
C653 H665 0.929 . S
C654 C650 1.531 . S
C654 H666 0.960 . S
C654 H667 0.962 . S
C654 H668 0.960 . S
C655 C652 1.511 . S
C655 H669 0.961 . S
C655 H670 0.961 . S
C655 H671 0.961 . S
C656 C657 1.370 . S
C656 C658 1.363 . S
C656 H672 0.931 . S
C657 C656 1.370 . S
C657 C661 1.408 1_556 S
C658 C656 1.363 . S
C658 C659 1.370 1_556 S
C658 C662 1.524 . S
C659 C651 1.503 . S
C659 C658 1.370 1_554 S
C659 C660 1.403 . S
C660 C659 1.403 . S
C660 C661 1.404 . S
C660 C663 1.539 . S
C661 C657 1.408 1_554 S
C661 C660 1.404 . S
C661 H673 0.930 . S
C662 C658 1.524 . S
C662 H674 0.956 . S
C662 H675 0.961 . S
C662 H676 0.961 . S
C663 C660 1.539 . S
C663 H677 0.958 . S
C663 H678 0.961 . S
C663 H679 0.960 . S
H664 C648 0.931 . S
H665 C653 0.929 . S
H666 C654 0.960 . S
H667 C654 0.962 . S
H668 C654 0.960 . S
H669 C655 0.961 . S
H670 C655 0.961 . S
H671 C655 0.961 . S
H672 C656 0.931 . S
H673 C661 0.930 . S
H674 C662 0.956 . S
H675 C662 0.961 . S
H676 C662 0.961 . S
H677 C663 0.958 . S
H678 C663 0.961 . S
H679 C663 0.960 . S
C680 C681 1.391 . S
C680 C682 1.394 . S
C680 H696 0.931 . S
C681 C680 1.391 . S
C681 C685 1.376 . S
C682 C680 1.394 . S
C682 C683 1.369 . S
C682 C686 1.531 . S
C683 C682 1.369 . S
C683 C684 1.410 . S
C683 C691 1.503 . S
C684 C683 1.410 . S
C684 C685 1.392 . S
C684 C687 1.511 . S
C685 C681 1.376 . S
C685 C684 1.392 . S
C685 H697 0.929 . S
C686 C682 1.531 . S
C686 H698 0.960 . S
C686 H699 0.962 . S
C686 H700 0.960 . S
C687 C684 1.511 . S
C687 H701 0.961 . S
C687 H702 0.961 . S
C687 H703 0.961 . S
C688 C689 1.370 . S
C688 C690 1.363 . S
C688 H704 0.931 . S
C689 C688 1.370 . S
C689 C693 1.408 . S
C690 C688 1.363 . S
C690 C691 1.370 . S
C690 C694 1.524 . S
C691 C683 1.503 . S
C691 C690 1.370 . S
C691 C692 1.403 . S
C692 C691 1.403 . S
C692 C693 1.404 . S
C692 C695 1.539 . S
C693 C689 1.408 . S
C693 C692 1.404 . S
C693 H705 0.930 . S
C694 C690 1.524 . S
C694 H706 0.956 . S
C694 H707 0.961 . S
C694 H708 0.961 . S
C695 C692 1.539 . S
C695 H709 0.958 . S
C695 H710 0.961 . S
C695 H711 0.960 . S
H696 C680 0.931 . S
H697 C685 0.929 . S
H698 C686 0.960 . S
H699 C686 0.962 . S
H700 C686 0.960 . S
H701 C687 0.961 . S
H702 C687 0.961 . S
H703 C687 0.961 . S
H704 C688 0.931 . S
H705 C693 0.930 . S
H706 C694 0.956 . S
H707 C694 0.961 . S
H708 C694 0.961 . S
H709 C695 0.958 . S
H710 C695 0.961 . S
H711 C695 0.960 . S
C712 C713 1.391 1_556 S
C712 C714 1.394 . S
C712 H728 0.931 . S
C713 C712 1.391 1_554 S
C713 C717 1.376 . S
C714 C712 1.394 . S
C714 C715 1.369 . S
C714 C718 1.531 . S
C715 C714 1.369 . S
C715 C716 1.410 1_556 S
C715 C723 1.503 . S
C716 C715 1.410 1_554 S
C716 C717 1.392 . S
C716 C719 1.511 . S
C717 C713 1.376 . S
C717 C716 1.392 . S
C717 H729 0.929 . S
C718 C714 1.531 . S
C718 H730 0.960 . S
C718 H731 0.962 . S
C718 H732 0.960 . S
C719 C716 1.511 . S
C719 H733 0.961 . S
C719 H734 0.961 . S
C719 H735 0.961 . S
C720 C721 1.370 1_554 S
C720 C722 1.363 . S
C720 H736 0.931 . S
C721 C720 1.370 1_556 S
C721 C725 1.408 . S
C722 C720 1.363 . S
C722 C723 1.370 1_554 S
C722 C726 1.524 . S
C723 C715 1.503 . S
C723 C722 1.370 1_556 S
C723 C724 1.403 . S
C724 C723 1.403 . S
C724 C725 1.404 . S
C724 C727 1.539 . S
C725 C721 1.408 . S
C725 C724 1.404 . S
C725 H737 0.930 . S
C726 C722 1.524 . S
C726 H738 0.956 . S
C726 H739 0.961 . S
C726 H740 0.961 . S
C727 C724 1.539 . S
C727 H741 0.958 . S
C727 H742 0.961 . S
C727 H743 0.960 . S
H728 C712 0.931 . S
H729 C717 0.929 . S
H730 C718 0.960 . S
H731 C718 0.962 . S
H732 C718 0.960 . S
H733 C719 0.961 . S
H734 C719 0.961 . S
H735 C719 0.961 . S
H736 C720 0.931 . S
H737 C725 0.930 . S
H738 C726 0.956 . S
H739 C726 0.961 . S
H740 C726 0.961 . S
H741 C727 0.958 . S
H742 C727 0.961 . S
H743 C727 0.960 . S
C744 C745 1.391 . S
C744 C746 1.394 . S
C744 H760 0.931 . S
C745 C744 1.391 . S
C745 C749 1.376 . S
C746 C744 1.394 . S
C746 C747 1.369 . S
C746 C750 1.531 . S
C747 C746 1.369 . S
C747 C748 1.410 . S
C747 C755 1.503 . S
C748 C747 1.410 . S
C748 C749 1.392 . S
C748 C751 1.511 . S
C749 C745 1.376 . S
C749 C748 1.392 . S
C749 H761 0.929 . S
C750 C746 1.531 . S
C750 H762 0.960 . S
C750 H763 0.962 . S
C750 H764 0.960 . S
C751 C748 1.511 . S
C751 H765 0.961 . S
C751 H766 0.961 . S
C751 H767 0.961 . S
C752 C753 1.370 . S
C752 C754 1.363 . S
C752 H768 0.931 . S
C753 C752 1.370 . S
C753 C757 1.408 . S
C754 C752 1.363 . S
C754 C755 1.370 . S
C754 C758 1.524 . S
C755 C747 1.503 . S
C755 C754 1.370 . S
C755 C756 1.403 . S
C756 C755 1.403 . S
C756 C757 1.404 . S
C756 C759 1.539 . S
C757 C753 1.408 . S
C757 C756 1.404 . S
C757 H769 0.930 . S
C758 C754 1.524 . S
C758 H770 0.956 . S
C758 H771 0.961 . S
C758 H772 0.961 . S
C759 C756 1.539 . S
C759 H773 0.958 . S
C759 H774 0.961 . S
C759 H775 0.960 . S
H760 C744 0.931 . S
H761 C749 0.929 . S
H762 C750 0.960 . S
H763 C750 0.962 . S
H764 C750 0.960 . S
H765 C751 0.961 . S
H766 C751 0.961 . S
H767 C751 0.961 . S
H768 C752 0.931 . S
H769 C757 0.930 . S
H770 C758 0.956 . S
H771 C758 0.961 . S
H772 C758 0.961 . S
H773 C759 0.958 . S
H774 C759 0.961 . S
H775 C759 0.960 . S
C776 C777 1.391 . S
C776 C778 1.394 . S
C776 H792 0.931 . S
C777 C776 1.391 . S
C777 C781 1.376 . S
C778 C776 1.394 . S
C778 C779 1.369 . S
C778 C782 1.531 . S
C779 C778 1.369 . S
C779 C780 1.410 . S
C779 C787 1.503 . S
C780 C779 1.410 . S
C780 C781 1.392 . S
C780 C783 1.511 . S
C781 C777 1.376 . S
C781 C780 1.392 . S
C781 H793 0.929 . S
C782 C778 1.531 . S
C782 H794 0.960 . S
C782 H795 0.962 . S
C782 H796 0.960 . S
C783 C780 1.511 . S
C783 H797 0.961 . S
C783 H798 0.961 . S
C783 H799 0.961 . S
C784 C785 1.370 . S
C784 C786 1.363 . S
C784 H800 0.931 . S
C785 C784 1.370 . S
C785 C789 1.408 . S
C786 C784 1.363 . S
C786 C787 1.370 . S
C786 C790 1.524 . S
C787 C779 1.503 . S
C787 C786 1.370 . S
C787 C788 1.403 . S
C788 C787 1.403 . S
C788 C789 1.404 . S
C788 C791 1.539 . S
C789 C785 1.408 . S
C789 C788 1.404 . S
C789 H801 0.930 . S
C790 C786 1.524 . S
C790 H802 0.956 . S
C790 H803 0.961 . S
C790 H804 0.961 . S
C791 C788 1.539 . S
C791 H805 0.958 . S
C791 H806 0.961 . S
C791 H807 0.960 . S
H792 C776 0.931 . S
H793 C781 0.929 . S
H794 C782 0.960 . S
H795 C782 0.962 . S
H796 C782 0.960 . S
H797 C783 0.961 . S
H798 C783 0.961 . S
H799 C783 0.961 . S
H800 C784 0.931 . S
H801 C789 0.930 . S
H802 C790 0.956 . S
H803 C790 0.961 . S
H804 C790 0.961 . S
H805 C791 0.958 . S
H806 C791 0.961 . S
H807 C791 0.960 . S
C808 C809 1.391 . S
C808 C810 1.394 . S
C808 H824 0.931 . S
C809 C808 1.391 . S
C809 C813 1.376 . S
C810 C808 1.394 . S
C810 C811 1.369 . S
C810 C814 1.531 . S
C811 C810 1.369 . S
C811 C812 1.410 . S
C811 C819 1.503 . S
C812 C811 1.410 . S
C812 C813 1.392 . S
C812 C815 1.511 . S
C813 C809 1.376 . S
C813 C812 1.392 . S
C813 H825 0.929 . S
C814 C810 1.531 . S
C814 H826 0.960 . S
C814 H827 0.962 . S
C814 H828 0.960 . S
C815 C812 1.511 . S
C815 H829 0.961 . S
C815 H830 0.961 . S
C815 H831 0.961 . S
C816 C817 1.370 . S
C816 C818 1.363 . S
C816 H832 0.931 . S
C817 C816 1.370 . S
C817 C821 1.408 . S
C818 C816 1.363 . S
C818 C819 1.370 . S
C818 C822 1.524 . S
C819 C811 1.503 . S
C819 C818 1.370 . S
C819 C820 1.403 . S
C820 C819 1.403 . S
C820 C821 1.404 . S
C820 C823 1.539 . S
C821 C817 1.408 . S
C821 C820 1.404 . S
C821 H833 0.930 . S
C822 C818 1.524 . S
C822 H834 0.956 . S
C822 H835 0.961 . S
C822 H836 0.961 . S
C823 C820 1.539 . S
C823 H837 0.958 . S
C823 H838 0.961 . S
C823 H839 0.960 . S
H824 C808 0.931 . S
H825 C813 0.929 . S
H826 C814 0.960 . S
H827 C814 0.962 . S
H828 C814 0.960 . S
H829 C815 0.961 . S
H830 C815 0.961 . S
H831 C815 0.961 . S
H832 C816 0.931 . S
H833 C821 0.930 . S
H834 C822 0.956 . S
H835 C822 0.961 . S
H836 C822 0.961 . S
H837 C823 0.958 . S
H838 C823 0.961 . S
H839 C823 0.960 . S
C840 C841 1.391 . S
C840 C842 1.394 . S
C840 H856 0.931 . S
C841 C840 1.391 . S
C841 C845 1.376 . S
C842 C840 1.394 . S
C842 C843 1.369 . S
C842 C846 1.531 . S
C843 C842 1.369 . S
C843 C844 1.410 . S
C843 C851 1.503 1_455 S
C844 C843 1.410 . S
C844 C845 1.392 . S
C844 C847 1.511 . S
C845 C841 1.376 . S
C845 C844 1.392 . S
C845 H857 0.929 . S
C846 C842 1.531 . S
C846 H858 0.960 1_455 S
C846 H859 0.962 . S
C846 H860 0.960 . S
C847 C844 1.511 . S
C847 H861 0.961 . S
C847 H862 0.961 1_455 S
C847 H863 0.961 1_455 S
C848 C849 1.370 . S
C848 C850 1.363 . S
C848 H864 0.931 . S
C849 C848 1.370 . S
C849 C853 1.408 . S
C850 C848 1.363 . S
C850 C851 1.370 . S
C850 C854 1.524 1_655 S
C851 C843 1.503 1_655 S
C851 C850 1.370 . S
C851 C852 1.403 . S
C852 C851 1.403 . S
C852 C853 1.404 . S
C852 C855 1.539 . S
C853 C849 1.408 . S
C853 C852 1.404 . S
C853 H865 0.930 . S
C854 C850 1.524 1_455 S
C854 H866 0.956 . S
C854 H867 0.961 . S
C854 H868 0.961 . S
C855 C852 1.539 . S
C855 H869 0.958 . S
C855 H870 0.961 . S
C855 H871 0.960 . S
H856 C840 0.931 . S
H857 C845 0.929 . S
H858 C846 0.960 1_655 S
H859 C846 0.962 . S
H860 C846 0.960 . S
H861 C847 0.961 . S
H862 C847 0.961 1_655 S
H863 C847 0.961 1_655 S
H864 C848 0.931 . S
H865 C853 0.930 . S
H866 C854 0.956 . S
H867 C854 0.961 . S
H868 C854 0.961 . S
H869 C855 0.958 . S
H870 C855 0.961 . S
H871 C855 0.960 . S
C872 C873 1.391 . S
C872 C874 1.394 . S
C872 H888 0.931 . S
C873 C872 1.391 . S
C873 C877 1.376 . S
C874 C872 1.394 . S
C874 C875 1.369 . S
C874 C878 1.531 . S
C875 C874 1.369 . S
C875 C876 1.410 . S
C875 C883 1.503 1_455 S
C876 C875 1.410 . S
C876 C877 1.392 . S
C876 C879 1.511 1_455 S
C877 C873 1.376 . S
C877 C876 1.392 . S
C877 H889 0.929 . S
C878 C874 1.531 . S
C878 H890 0.960 . S
C878 H891 0.962 . S
C878 H892 0.960 . S
C879 C876 1.511 1_655 S
C879 H893 0.961 . S
C879 H894 0.961 . S
C879 H895 0.961 . S
C880 C881 1.370 . S
C880 C882 1.363 . S
C880 H896 0.931 . S
C881 C880 1.370 . S
C881 C885 1.408 . S
C882 C880 1.363 . S
C882 C883 1.370 . S
C882 C886 1.524 . S
C883 C875 1.503 1_655 S
C883 C882 1.370 . S
C883 C884 1.403 . S
C884 C883 1.403 . S
C884 C885 1.404 . S
C884 C887 1.539 . S
C885 C881 1.408 . S
C885 C884 1.404 . S
C885 H897 0.930 . S
C886 C882 1.524 . S
C886 H898 0.956 1_655 S
C886 H899 0.961 . S
C886 H900 0.961 . S
C887 C884 1.539 . S
C887 H901 0.958 . S
C887 H902 0.961 . S
C887 H903 0.960 . S
H888 C872 0.931 . S
H889 C877 0.929 . S
H890 C878 0.960 . S
H891 C878 0.962 . S
H892 C878 0.960 . S
H893 C879 0.961 . S
H894 C879 0.961 . S
H895 C879 0.961 . S
H896 C880 0.931 . S
H897 C885 0.930 . S
H898 C886 0.956 1_455 S
H899 C886 0.961 . S
H900 C886 0.961 . S
H901 C887 0.958 . S
H902 C887 0.961 . S
H903 C887 0.960 . S
C265 C106 1.771 . S
C273 N13 1.873 . S
C297 N46 1.861 . S
C305 C73 1.770 . S
C329 C40 1.807 . S
C337 N79 1.874 . S
C361 C7 1.766 . S
C369 N112 1.871 . S
C393 N145 1.873 . S
C401 C238 1.795 . S
C425 C205 1.784 . S
C433 N178 1.874 . S
C457 N211 1.864 . S
C465 C172 1.785 . S
C489 N244 1.870 . S
C497 C139 1.782 . S
C521 C18 1.052 . S
C529 C84 1.006 . S
C553 C51 0.979 . S
C561 C117 1.032 . S
C585 C216 0.983 . S
C593 C150 1.032 . S
C617 C249 1.038 . S
C625 C183 1.012 . S
C649 C21 1.490 . S
C657 C219 1.485 . S
C681 C54 1.481 . S
C689 C252 1.491 . S
C713 C153 1.480 . S
C721 C87 1.492 . S
C745 C186 1.493 . S
C753 C120 1.484 . S
C777 N35 0.680 . S
C785 N2 0.759 . S
C809 N101 0.693 . S
C817 N68 0.703 . S
C841 N167 0.617 . S
C849 N134 0.755 . S
C873 N200 0.677 . S
C881 N233 0.710 . S
