# Generated by pormake.
# Topology umb, (4)-cn, num edge types: 1
# Building blocks:
#     Node 0, Type 0, BuildingBlock: QUQFOY_clean_sbu_1, # of connection points: 4
#     Node 1, Type 0, BuildingBlock: QUQFOY_clean_sbu_1, # of connection points: 4
#     Node 2, Type 0, BuildingBlock: QUQFOY_clean_sbu_1, # of connection points: 4
#     Node 3, Type 0, BuildingBlock: QUQFOY_clean_sbu_1, # of connection points: 4
#     Node 4, Type 0, BuildingBlock: QUQFOY_clean_sbu_1, # of connection points: 4
#     Node 5, Type 0, BuildingBlock: QUQFOY_clean_sbu_1, # of connection points: 4
#     Node 6, Type 0, BuildingBlock: QUQFOY_clean_sbu_1, # of connection points: 4
#     Node 7, Type 0, BuildingBlock: QUQFOY_clean_sbu_1, # of connection points: 4
#     Node 8, Type 0, BuildingBlock: QUQFOY_clean_sbu_1, # of connection points: 4
#     Node 9, Type 0, BuildingBlock: QUQFOY_clean_sbu_1, # of connection points: 4
#     Node 10, Type 0, BuildingBlock: QUQFOY_clean_sbu_1, # of connection points: 4
#     Node 11, Type 0, BuildingBlock: QUQFOY_clean_sbu_1, # of connection points: 4
#     Edge 12, Type (0, 0), BuildingBlock: KIFKEQ_clean_linker_1, # of connection points: 2
#     Edge 13, Type (0, 0), BuildingBlock: KIFKEQ_clean_linker_1, # of connection points: 2
#     Edge 14, Type (0, 0), BuildingBlock: KIFKEQ_clean_linker_1, # of connection points: 2
#     Edge 15, Type (0, 0), BuildingBlock: KIFKEQ_clean_linker_1, # of connection points: 2
#     Edge 16, Type (0, 0), BuildingBlock: KIFKEQ_clean_linker_1, # of connection points: 2
#     Edge 17, Type (0, 0), BuildingBlock: KIFKEQ_clean_linker_1, # of connection points: 2
#     Edge 18, Type (0, 0), BuildingBlock: KIFKEQ_clean_linker_1, # of connection points: 2
#     Edge 19, Type (0, 0), BuildingBlock: KIFKEQ_clean_linker_1, # of connection points: 2
#     Edge 20, Type (0, 0), BuildingBlock: KIFKEQ_clean_linker_1, # of connection points: 2
#     Edge 21, Type (0, 0), BuildingBlock: KIFKEQ_clean_linker_1, # of connection points: 2
#     Edge 22, Type (0, 0), BuildingBlock: KIFKEQ_clean_linker_1, # of connection points: 2
#     Edge 23, Type (0, 0), BuildingBlock: KIFKEQ_clean_linker_1, # of connection points: 2
#     Edge 24, Type (0, 0), BuildingBlock: KIFKEQ_clean_linker_1, # of connection points: 2
#     Edge 25, Type (0, 0), BuildingBlock: KIFKEQ_clean_linker_1, # of connection points: 2
#     Edge 26, Type (0, 0), BuildingBlock: KIFKEQ_clean_linker_1, # of connection points: 2
#     Edge 27, Type (0, 0), BuildingBlock: KIFKEQ_clean_linker_1, # of connection points: 2
#     Edge 28, Type (0, 0), BuildingBlock: KIFKEQ_clean_linker_1, # of connection points: 2
#     Edge 29, Type (0, 0), BuildingBlock: KIFKEQ_clean_linker_1, # of connection points: 2
#     Edge 30, Type (0, 0), BuildingBlock: KIFKEQ_clean_linker_1, # of connection points: 2
#     Edge 31, Type (0, 0), BuildingBlock: KIFKEQ_clean_linker_1, # of connection points: 2
#     Edge 32, Type (0, 0), BuildingBlock: KIFKEQ_clean_linker_1, # of connection points: 2
#     Edge 33, Type (0, 0), BuildingBlock: KIFKEQ_clean_linker_1, # of connection points: 2
#     Edge 34, Type (0, 0), BuildingBlock: KIFKEQ_clean_linker_1, # of connection points: 2
#     Edge 35, Type (0, 0), BuildingBlock: KIFKEQ_clean_linker_1, # of connection points: 2
# Relax obj value: 0.093
# Max RMSD: 0.160
# Mean RMSD: 0.160
data_MOF--net-umb--node1-QUQFOY_clean_sbu_1--edge1-KIFKEQ_clean_linker_1
_symmetry_space_group_name_H-M    P1
_symmetry_Int_Tables_number       1
_symmetry_cell_setting            triclinic
loop_
_symmetry_equiv_pos_as_xyz
'x, y, z'
_cell_length_a     53.098168
_cell_length_b     53.174584
_cell_length_c     39.585128
_cell_angle_alpha  90.109014
_cell_angle_beta   89.606734
_cell_angle_gamma 120.047
loop_
_atom_site_label
_atom_site_type_symbol
_atom_site_fract_x
_atom_site_fract_y
_atom_site_fract_z
_atom_type_partial_charge
O0 O 0.55881 0.1605 0.3839 0.0
Cd1 Cd 0.56453 0.14961 0.33566 0.0
Cd2 Cd 0.5845 0.20875 0.32498 0.0
O3 O 0.57792 0.20786 0.37716 0.0
O4 O 0.55237 0.10808 0.34236 0.0
O5 O 0.53106 0.12217 0.30545 0.0
C6 C 0.53335 0.10141 0.31911 0.0
C7 C 0.56898 0.23204 0.28677 0.0
C8 C 0.56737 0.18556 0.39628 0.0
C9 C 0.62712 0.1881 0.31462 0.0
O10 O 0.62229 0.20912 0.31188 0.0
O11 O 0.60697 0.16316 0.32355 0.0
O12 O 0.58969 0.24655 0.30786 0.0
O13 O 0.55608 0.20401 0.28823 0.0
O14 O 0.38014 0.5524 0.73543 0.0
Cd15 Cd 0.4005 0.5604 0.68908 0.0
Cd16 Cd 0.36379 0.58153 0.67445 0.0
O17 O 0.3549 0.57439 0.72611 0.0
O18 O 0.42802 0.5461 0.6965 0.0
O19 O 0.39554 0.5292 0.65577 0.0
C20 C 0.4172 0.5295 0.67071 0.0
C21 C 0.32726 0.56639 0.63348 0.0
C22 C 0.36394 0.56199 0.74623 0.0
C23 C 0.4275 0.62331 0.66938 0.0
O24 O 0.40217 0.61891 0.66312 0.0
O25 O 0.43097 0.60299 0.68065 0.0
O26 O 0.33235 0.58699 0.6544 0.0
O27 O 0.34219 0.5534 0.63664 0.0
O28 O 0.8205 0.39825 0.05939 0.0
Cd29 Cd 0.8322 0.42064 1.01435 0.0
Cd30 Cd 0.77377 0.37772 0.999 0.0
O31 O 0.77358 0.36892 0.05038 0.0
O32 O 0.8708 0.45275 0.0282 0.0
O33 O 0.86569 0.42494 0.98462 0.0
C34 C 0.8825 0.44673 1.0034 0.0
C35 C 0.75365 0.34112 0.95768 0.0
C36 C 0.79531 0.37977 0.07018 0.0
C37 C 0.78925 0.43997 0.99582 0.0
O38 O 0.7703 0.41383 0.98929 0.0
O39 O 0.8142 0.44633 1.0064 0.0
O40 O 0.73758 0.34443 0.97974 0.0
O41 O 0.78151 0.35787 0.95987 0.0
O42 O 0.39435 0.83638 0.39112 0.0
Cd43 Cd 0.38215 0.84183 0.3438 0.0
Cd44 Cd 0.37481 0.78553 0.33619 0.0
O45 O 0.38941 0.79274 0.38611 0.0
O46 O 0.38919 0.88213 0.34637 0.0
O47 O 0.41151 0.86889 0.30925 0.0
C48 C 0.40729 0.88895 0.32168 0.0
C49 C 0.38973 0.76266 0.29615 0.0
C50 C 0.39526 0.81497 0.40397 0.0
C51 C 0.32203 0.7933 0.33138 0.0
O52 O 0.33251 0.77643 0.33012 0.0
O53 O 0.33826 0.8203 0.33621 0.0
O54 O 0.37361 0.74876 0.32171 0.0
O55 O 0.39871 0.79013 0.29406 0.0
O56 O 0.54004 0.3853 0.71651 0.0
Cd57 Cd 0.52785 0.37983 0.66667 0.0
Cd58 Cd 0.57945 0.37836 0.66143 0.0
O59 O 0.58473 0.39275 0.71153 0.0
O60 O 0.49305 0.38447 0.66842 0.0
O61 O 0.53207 0.41328 0.63815 0.0
C62 C 0.5062 0.40624 0.64827 0.0
C63 C 0.61723 0.39644 0.62107 0.0
C64 C 0.56404 0.391 0.7298 0.0
C65 C 0.52155 0.32316 0.64969 0.0
O66 O 0.5488 0.335 0.65465 0.0
O67 O 0.50891 0.33798 0.65056 0.0
O68 O 0.61751 0.38201 0.64704 0.0
O69 O 0.59629 0.40209 0.6188 0.0
O70 O 0.16385 0.58898 0.058 0.0
Cd71 Cd 0.14926 0.56659 1.01334 0.0
Cd72 Cd 0.2092 0.60084 0.99844 0.0
O73 O 0.21123 0.60917 0.05015 0.0
O74 O 0.10884 0.54085 0.02929 0.0
O75 O 0.11857 0.56776 0.98365 0.0
C76 C 0.09955 0.54906 1.00426 0.0
C77 C 0.23368 0.63829 0.95859 0.0
C78 C 0.18956 0.60261 0.0695 0.0
C79 C 0.1829 0.53644 0.99449 0.0
O80 O 0.20475 0.561 0.98705 0.0
O81 O 0.15974 0.53472 1.00597 0.0
O82 O 0.24757 0.63061 0.97881 0.0
O83 O 0.20567 0.62516 0.96149 0.0
O84 O 0.81583 0.39945 0.33558 0.0
Cd85 Cd 0.8242 0.3899 0.3831 0.0
Cd86 Cd 0.76608 0.37701 0.39359 0.0
O87 O 0.76975 0.38738 0.34229 0.0
O88 O 0.86455 0.39749 0.37656 0.0
O89 O 0.85354 0.42099 0.41434 0.0
C90 C 0.87288 0.41648 0.40021 0.0
C91 C 0.74473 0.39377 0.43337 0.0
C92 C 0.79206 0.3956 0.32342 0.0
C93 C 0.77885 0.32819 0.40002 0.0
O94 O 0.76004 0.33624 0.40266 0.0
O95 O 0.80515 0.34633 0.39297 0.0
O96 O 0.72962 0.37602 0.40971 0.0
O97 O 0.77234 0.40302 0.43389 0.0
O98 O 0.43042 0.83475 0.67252 0.0
Cd99 Cd 0.44598 0.83998 0.72091 0.0
Cd100 Cd 0.39535 0.78525 0.72754 0.0
O101 O 0.38946 0.7928 0.67717 0.0
O102 O 0.48002 0.87988 0.71915 0.0
O103 O 0.44273 0.86755 0.75356 0.0
C104 C 0.46777 0.88723 0.74217 0.0
C105 C 0.35703 0.76432 0.76722 0.0
C106 C 0.40755 0.81432 0.65929 0.0
C107 C 0.45459 0.79025 0.73609 0.0
O108 O 0.42705 0.77431 0.73534 0.0
O109 O 0.46673 0.81743 0.73163 0.0
O110 O 0.35851 0.74966 0.74209 0.0
O111 O 0.37653 0.79153 0.76892 0.0
O112 O 0.57265 0.42686 0.99699 0.0
Cd113 Cd 0.57855 0.44076 0.04626 0.0
Cd114 Cd 0.58283 0.3911 0.05444 0.0
O115 O 0.57027 0.38447 1.00367 0.0
O116 O 0.56966 0.4728 0.04529 0.0
O117 O 0.54524 0.43375 0.07719 0.0
C118 C 0.54932 0.45861 0.06709 0.0
C119 C 0.5657 0.35316 0.09446 0.0
C120 C 0.56964 0.40346 0.98461 0.0
C121 C 0.63643 0.45082 0.06466 0.0
O122 O 0.62534 0.4234 0.06268 0.0
O123 O 0.62099 0.46254 0.06056 0.0
O124 O 0.58234 0.35487 0.06966 0.0
O125 O 0.55732 0.37216 0.09562 0.0
O126 O 0.14954 0.56287 0.33054 0.0
Cd127 Cd 0.13632 0.56848 0.37759 0.0
Cd128 Cd 0.19407 0.58577 0.39292 0.0
O129 O 0.19607 0.57961 0.34111 0.0
O130 O 0.09516 0.55693 0.36894 0.0
O131 O 0.10757 0.53534 0.40748 0.0
C132 C 0.08747 0.53802 0.39267 0.0
C133 C 0.21436 0.56889 0.43333 0.0
C134 C 0.17509 0.57031 0.3203 0.0
C135 C 0.17517 0.62997 0.40077 0.0
O136 O 0.19528 0.624 0.40519 0.0
O137 O 0.15053 0.61088 0.38988 0.0
O138 O 0.23043 0.58951 0.41259 0.0
O139 O 0.18646 0.55681 0.43026 0.0
O140 O 0.58395 0.15651 0.65753 0.0
Cd141 Cd 0.56564 0.14482 0.70498 0.0
Cd142 Cd 0.60178 0.20258 0.71822 0.0
O143 O 0.60911 0.20385 0.66616 0.0
O144 O 0.53859 0.10266 0.69919 0.0
O145 O 0.57272 0.11993 0.73808 0.0
C146 C 0.55076 0.09791 0.72438 0.0
C147 C 0.63913 0.22473 0.75818 0.0
C148 C 0.59942 0.1822 0.64618 0.0
C149 C 0.53814 0.18011 0.72523 0.0
O150 O 0.56349 0.20135 0.73069 0.0
O151 O 0.53475 0.1562 0.71443 0.0
O152 O 0.63341 0.23987 0.73748 0.0
O153 O 0.62444 0.19677 0.75527 0.0
O154 O 0.38898 0.56824 1.01111 0.0
Cd155 Cd 0.38234 0.5514 0.05922 0.0
Cd156 Cd 0.365 0.59292 0.06949 0.0
O157 O 0.37261 0.59885 1.01751 0.0
O158 O 0.39394 0.52155 0.05286 0.0
O159 O 0.41574 0.55738 0.0893 0.0
C160 C 0.41335 0.53424 0.07567 0.0
C161 C 0.3811 0.63215 0.10736 0.0
C162 C 0.38231 0.58612 0.99864 0.0
C163 C 0.32029 0.5299 0.08013 0.0
O164 O 0.32639 0.55623 0.08226 0.0
O165 O 0.33959 0.52373 0.07154 0.0
O166 O 0.36067 0.62625 0.086 0.0
O167 O 0.39332 0.61637 0.10649 0.0
H168 H 0.53663 0.14411 0.44378 0.0
H169 H 0.60416 0.23379 0.43323 0.0
H170 H 0.54701 0.14585 0.50372 0.0
H171 H 0.61532 0.23533 0.49326 0.0
H172 H 0.60949 0.23091 0.61115 0.0
H173 H 0.6008 0.23395 0.55117 0.0
H174 H 0.58412 0.14632 0.53708 0.0
H175 H 0.59181 0.14302 0.59701 0.0
C176 C 0.55347 0.16435 0.45438 0.0
C177 C 0.56959 0.18877 0.43362 0.0
C178 C 0.55975 0.16526 0.48874 0.0
C179 C 0.58261 0.19049 0.50333 0.0
C180 C 0.59761 0.21549 0.483 0.0
C181 C 0.59111 0.21466 0.44855 0.0
C182 C 0.60462 0.21254 0.59508 0.0
C183 C 0.60119 0.18664 0.60898 0.0
C184 C 0.59949 0.21423 0.56064 0.0
C185 C 0.59099 0.19012 0.53928 0.0
C186 C 0.58962 0.16501 0.55287 0.0
C187 C 0.59446 0.16323 0.58723 0.0
H188 H 0.35292 0.59972 0.78197 0.0
H189 H 0.36787 0.5276 0.79445 0.0
H190 H 0.35814 0.60849 0.8428 0.0
H191 H 0.37196 0.53556 0.85515 0.0
H192 H 0.41435 0.57567 0.95274 0.0
H193 H 0.40726 0.56978 0.89204 0.0
H194 H 0.34031 0.59318 0.89918 0.0
H195 H 0.34829 0.60014 0.96008 0.0
C196 C 0.35644 0.58518 0.79781 0.0
C197 C 0.36017 0.56306 0.78331 0.0
C198 C 0.35956 0.59029 0.83274 0.0
C199 C 0.36624 0.57323 0.85396 0.0
C200 C 0.36785 0.54983 0.83958 0.0
C201 C 0.36508 0.54496 0.80475 0.0
C202 C 0.3985 0.5801 0.94129 0.0
C203 C 0.38185 0.5883 0.96129 0.0
C204 C 0.3941 0.57631 0.90647 0.0
C205 C 0.37259 0.58017 0.89065 0.0
C206 C 0.35703 0.58996 0.91039 0.0
C207 C 0.36169 0.59409 0.94533 0.0
H208 H 0.74367 0.36389 0.28474 0.0
H209 H 0.83522 0.42704 0.27782 0.0
H210 H 0.74226 0.35638 0.22378 0.0
H211 H 0.83366 0.42078 0.21687 0.0
H212 H 0.83452 0.38344 0.1168 0.0
H213 H 0.83161 0.38708 0.17779 0.0
H214 H 0.74449 0.37328 0.16839 0.0
H215 H 0.74704 0.36815 0.10739 0.0
C216 C 0.76329 0.37686 0.27004 0.0
C217 C 0.78958 0.39602 0.28613 0.0
C218 C 0.76254 0.37247 0.235 0.0
C219 C 0.788 0.38742 0.2152 0.0
C220 C 0.81381 0.40802 0.23123 0.0
C221 C 0.81464 0.41202 0.2662 0.0
C222 C 0.81448 0.38047 0.12787 0.0
C223 C 0.79102 0.37547 0.10724 0.0
C224 C 0.81294 0.38306 0.16288 0.0
C225 C 0.78811 0.38136 0.17823 0.0
C226 C 0.76398 0.3747 0.1577 0.0
C227 C 0.76537 0.3716 0.12263 0.0
H228 H 0.41103 0.86002 0.44764 0.0
H229 H 0.38886 0.76999 0.44459 0.0
H230 H 0.41226 0.85924 0.50876 0.0
H231 H 0.39095 0.76948 0.50636 0.0
H232 H 0.36652 0.77137 0.61849 0.0
H233 H 0.36457 0.77114 0.55666 0.0
H234 H 0.44 0.8573 0.55428 0.0
H235 H 0.44143 0.85791 0.61541 0.0
C236 C 0.40688 0.84012 0.45996 0.0
C237 C 0.3999 0.81508 0.44101 0.0
C238 C 0.40766 0.83971 0.49519 0.0
C239 C 0.40163 0.81428 0.51266 0.0
C240 C 0.39529 0.78933 0.49377 0.0
C241 C 0.39448 0.78974 0.45833 0.0
C242 C 0.38239 0.79041 0.60473 0.0
C243 C 0.40402 0.8147 0.62206 0.0
C244 C 0.38152 0.79013 0.56927 0.0
C245 C 0.4022 0.81417 0.55038 0.0
C246 C 0.42347 0.83854 0.56785 0.0
C247 C 0.42432 0.83884 0.60309 0.0
H248 H 0.59087 0.44678 0.93799 0.0
H249 H 0.54717 0.35328 0.94674 0.0
H250 H 0.59154 0.44291 0.87665 0.0
H251 H 0.54713 0.34951 0.88476 0.0
H252 H 0.51969 0.36513 0.77508 0.0
H253 H 0.52203 0.36638 0.8366 0.0
H254 H 0.61523 0.4217 0.83126 0.0
H255 H 0.61312 0.4198 0.76915 0.0
C256 C 0.58116 0.42534 0.92681 0.0
C257 C 0.56869 0.40028 0.94728 0.0
C258 C 0.58186 0.42322 0.89168 0.0
C259 C 0.56955 0.39597 0.87604 0.0
C260 C 0.55683 0.3708 0.89631 0.0
C261 C 0.55678 0.37294 0.93167 0.0
C262 C 0.54076 0.3776 0.78691 0.0
C263 C 0.56624 0.39262 0.76719 0.0
C264 C 0.54205 0.37803 0.82215 0.0
C265 C 0.56877 0.39401 0.83861 0.0
C266 C 0.59434 0.40917 0.81908 0.0
C267 C 0.59314 0.40813 0.78363 0.0
H268 H 0.22712 0.60284 0.28672 0.0
H269 H 0.13563 0.54387 0.26999 0.0
H270 H 0.23397 0.61454 0.22639 0.0
H271 H 0.14255 0.55498 0.20998 0.0
H272 H 0.15203 0.60389 0.1157 0.0
H273 H 0.15128 0.59619 0.1763 0.0
H274 H 0.23314 0.59755 0.16849 0.0
H275 H 0.23421 0.60603 0.1076 0.0
C276 C 0.20863 0.59179 0.27009 0.0
C277 C 0.18076 0.57258 0.28329 0.0
C278 C 0.21254 0.59861 0.23549 0.0
C279 C 0.18867 0.58631 0.2134 0.0
C280 C 0.16126 0.56563 0.22637 0.0
C281 C 0.15734 0.55895 0.2608 0.0
C282 C 0.17023 0.60325 0.12697 0.0
C283 C 0.19308 0.60542 0.10673 0.0
C284 C 0.16963 0.59842 0.16171 0.0
C285 C 0.19171 0.59534 0.1772 0.0
C286 C 0.21569 0.59966 0.15741 0.0
C287 C 0.2164 0.60472 0.12251 0.0
H288 H 0.80109 0.30355 0.35826 0.0
H289 H 0.73248 0.28276 0.43113 0.0
H290 H 0.77207 0.25594 0.33238 0.0
H291 H 0.7042 0.23473 0.40628 0.0
H292 H 0.64804 0.16038 0.35297 0.0
H293 H 0.69663 0.18437 0.37706 0.0
H294 H 0.72364 0.25453 0.30555 0.0
H295 H 0.67477 0.23133 0.28248 0.0
C296 C 0.78066 0.28815 0.37016 0.0
C297 C 0.76853 0.29701 0.39607 0.0
C298 C 0.76415 0.26086 0.35532 0.0
C299 C 0.73583 0.24198 0.36702 0.0
C300 C 0.72605 0.24892 0.39681 0.0
C301 C 0.74214 0.2765 0.41098 0.0
C302 C 0.66473 0.18014 0.34112 0.0
C303 C 0.65749 0.1946 0.31662 0.0
C304 C 0.6926 0.19375 0.35492 0.0
C305 C 0.71357 0.22144 0.34356 0.0
C306 C 0.70778 0.23313 0.31478 0.0
C307 C 0.67973 0.21997 0.30164 0.0
H308 H 0.49973 0.80356 0.69373 0.0
H309 H 0.44749 0.74405 0.77276 0.0
H310 H 0.51327 0.76845 0.67353 0.0
H311 H 0.46216 0.70971 0.75372 0.0
H312 H 0.43516 0.66993 0.63256 0.0
H313 H 0.46357 0.72024 0.65079 0.0
H314 H 0.50176 0.6948 0.72999 0.0
H315 H 0.47428 0.64455 0.71091 0.0
C316 C 0.49271 0.7838 0.70812 0.0
C317 C 0.47215 0.77606 0.73434 0.0
C318 C 0.50055 0.76381 0.69657 0.0
C319 C 0.48852 0.7364 0.71188 0.0
C320 C 0.47188 0.73081 0.7416 0.0
C321 C 0.46331 0.75035 0.75244 0.0
C322 C 0.45083 0.67531 0.65262 0.0
C323 C 0.45194 0.65336 0.67093 0.0
C324 C 0.46734 0.70416 0.6629 0.0
C325 C 0.48444 0.71115 0.69213 0.0
C326 C 0.48874 0.68984 0.70738 0.0
C327 C 0.47283 0.66107 0.69649 0.0
H328 H 0.67586 0.44309 0.09968 0.0
H329 H 0.66808 0.49805 0.02531 0.0
H330 H 0.72583 0.46054 0.08137 0.0
H331 H 0.71768 0.51434 1.00578 0.0
H332 H 0.80923 0.48475 0.04023 0.0
H333 H 0.78103 0.50633 0.06119 0.0
H334 H 0.71995 0.46582 0.98 0.0
H335 H 0.74728 0.44308 0.95987 0.0
C336 C 0.68537 0.45997 0.0806 0.0
C337 C 0.66821 0.46899 0.0636 0.0
C338 C 0.71398 0.47009 0.0702 0.0
C339 C 0.72533 0.48856 0.042 0.0
C340 C 0.70938 0.50029 0.02772 0.0
C341 C 0.68103 0.4909 0.0389 0.0
C342 C 0.79059 0.4816 0.02583 0.0
C343 C 0.7799 0.46165 0.99893 0.0
C344 C 0.77459 0.4941 0.03783 0.0
C345 C 0.74835 0.48748 1.02233 0.0
C346 C 0.74029 0.47136 0.99222 0.0
C347 C 0.75577 0.45817 0.98081 0.0
H348 H 0.29328 0.80874 0.37588 0.0
H349 H 0.28009 0.74769 0.29646 0.0
H350 H 0.24442 0.7758 0.39777 0.0
H351 H 0.23089 0.71555 0.31726 0.0
H352 H 0.1517 0.65457 0.36125 0.0
H353 H 0.17776 0.70499 0.34239 0.0
H354 H 0.24189 0.72522 0.41984 0.0
H355 H 0.21663 0.67463 0.43782 0.0
C356 C 0.27927 0.78915 0.36186 0.0
C357 C 0.29041 0.78032 0.3349 0.0
C358 C 0.25134 0.77041 0.37438 0.0
C359 C 0.23412 0.74319 0.35932 0.0
C360 C 0.2437 0.73657 0.32916 0.0
C361 C 0.2719 0.75482 0.31733 0.0
C362 C 0.17052 0.67007 0.37543 0.0
C363 C 0.18276 0.66065 0.40032 0.0
C364 C 0.1853 0.69895 0.36464 0.0
C365 C 0.21193 0.71871 0.37936 0.0
C366 C 0.22131 0.71034 0.40814 0.0
C367 C 0.207 0.68133 0.4183 0.0
H368 H 0.53233 0.28378 0.61893 0.0
H369 H 0.47233 0.29166 0.68619 0.0
H370 H 0.51455 0.23441 0.63907 0.0
H371 H 0.45572 0.24275 0.70779 0.0
H372 H 0.52986 0.21945 0.76068 0.0
H373 H 0.50421 0.24301 0.73852 0.0
H374 H 0.46805 0.17905 0.65924 0.0
H375 H 0.49244 0.15451 0.68233 0.0
C376 C 0.51434 0.27438 0.63677 0.0
C377 C 0.5039 0.29142 0.65133 0.0
C378 C 0.504 0.24609 0.64819 0.0
C379 C 0.48393 0.23503 0.67513 0.0
C380 C 0.47096 0.2508 0.6868 0.0
C381 C 0.48058 0.27876 0.67448 0.0
C382 C 0.51496 0.20936 0.73987 0.0
C383 C 0.5138 0.18577 0.72261 0.0
C384 C 0.50009 0.2227 0.72728 0.0
C385 C 0.4847 0.21303 0.69683 0.0
C386 C 0.47979 0.18678 0.68276 0.0
C387 C 0.49393 0.17289 0.69598 0.0
H388 H 0.22245 0.52622 0.96207 0.0
H389 H 0.15389 0.49041 0.03721 0.0
H390 H 0.24408 0.50007 0.98741 0.0
H391 H 0.17624 0.46504 0.06331 0.0
H392 H 0.27429 0.52853 0.11289 0.0
H393 H 0.22548 0.50552 0.09006 0.0
H394 H 0.24796 0.4583 1.01873 0.0
H395 H 0.29662 0.48051 0.04252 0.0
C396 C 0.21116 0.51156 0.98289 0.0
C397 C 0.18725 0.5113 0.99849 0.0
C398 C 0.22342 0.49631 0.99736 0.0
C399 C 0.21229 0.48129 0.02802 0.0
C400 C 0.18537 0.47674 0.03991 0.0
C401 C 0.1727 0.49147 0.02495 0.0
C402 C 0.26828 0.51188 0.09381 0.0
C403 C 0.28943 0.50708 0.07867 0.0
C404 C 0.24018 0.49846 0.08078 0.0
C405 C 0.23329 0.48078 0.0519 0.0
C406 C 0.25287 0.47204 0.04078 0.0
C407 C 0.2808 0.48491 0.05442 0.0
H408 H 0.54563 0.05829 0.32774 0.0
H409 H 0.48018 0.07544 0.28783 0.0
H410 H 0.51415 0.0067 0.31763 0.0
H411 H 0.44827 0.02321 0.27774 0.0
H412 H 0.45811 0.91558 0.28514 0.0
H413 H 0.48848 0.96775 0.27406 0.0
H414 H 0.42321 0.9826 0.32045 0.0
H415 H 0.39305 0.93082 0.33144 0.0
C416 C 0.5246 0.05102 0.31635 0.0
C417 C 0.51514 0.07078 0.30899 0.0
C418 C 0.5067 0.02147 0.31019 0.0
C419 C 0.47878 0.01094 0.29686 0.0
C420 C 0.46972 0.03081 0.2881 0.0
C421 C 0.48791 0.06061 0.29383 0.0
C422 C 0.45003 0.92995 0.29222 0.0
C423 C 0.42349 0.91927 0.30963 0.0
C424 C 0.46738 0.95976 0.28594 0.0
C425 C 0.45825 0.97921 0.2966 0.0
C426 C 0.43072 0.96815 0.31169 0.0
C427 C 0.41358 0.93851 0.31829 0.0
H428 H 0.47088 0.53874 0.685 0.0
H429 H 0.39325 0.48177 0.62903 0.0
H430 H 0.49224 0.50941 0.66892 0.0
H431 H 0.41486 0.45197 0.61293 0.0
H432 H 0.53232 0.46185 0.62379 0.0
H433 H 0.51036 0.4927 0.61965 0.0
H434 H 0.4271 0.42012 0.64902 0.0
H435 H 0.44888 0.38942 0.65309 0.0
C436 C 0.45845 0.52002 0.66899 0.0
C437 C 0.43023 0.51229 0.65862 0.0
C438 C 0.47088 0.50343 0.65941 0.0
C439 C 0.45528 0.47852 0.63953 0.0
C440 C 0.42733 0.47114 0.62828 0.0
C441 C 0.41498 0.48809 0.6375 0.0
C442 C 0.5092 0.45236 0.6285 0.0
C443 C 0.4924 0.42343 0.63932 0.0
C444 C 0.49667 0.46999 0.62621 0.0
C445 C 0.4671 0.45882 0.63432 0.0
C446 C 0.44987 0.42926 0.64241 0.0
C447 C 0.46243 0.41177 0.64504 0.0
H448 H 0.91665 0.438 0.95742 0.0
H449 H 0.92001 0.49599 0.03628 0.0
H450 H 0.97006 0.46595 0.95293 0.0
H451 H 0.97263 0.52342 0.03164 0.0
H452 H 0.05878 0.52546 0.05323 0.0
H453 H 0.00641 0.50279 0.04791 0.0
H454 H 0.01584 0.52161 0.94104 0.0
H455 H 0.06915 0.54495 0.94639 0.0
C456 C 0.92868 0.45683 0.97339 0.0
C457 C 0.9142 0.46446 0.99763 0.0
C458 C 0.95911 0.47288 0.97063 0.0
C459 C 0.97526 0.49661 0.99214 0.0
C460 C 0.96062 0.50504 1.015 0.0
C461 C 0.93047 0.48919 1.0177 0.0
C462 C 0.04983 0.52496 0.02856 0.0
C463 C 0.06801 0.53702 1.00022 0.0
C464 C 0.01984 0.51204 0.02557 0.0
C465 C 0.00723 0.51058 0.99411 0.0
C466 C 0.02521 0.5225 0.96554 0.0
C467 C 0.05555 0.53598 0.96865 0.0
H468 H 0.04514 0.55094 0.38044 0.0
H469 H 0.05998 0.48607 0.42691 0.0
H470 H -0.00668 0.52123 0.39183 0.0
H471 H 0.00755 0.45596 0.43815 0.0
H472 H 0.91337 0.4005 0.38941 0.0
H473 H 0.96578 0.42997 0.39654 0.0
H474 H 0.95521 0.49917 0.4385 0.0
H475 H 0.90236 0.46943 0.43149 0.0
C476 C 0.03732 0.53039 0.3934 0.0
C477 C 0.05652 0.52061 0.40242 0.0
C478 C 0.00766 0.51355 0.40028 0.0
C479 C -0.00356 0.48636 0.41596 0.0
C480 C 0.01571 0.47688 0.426 0.0
C481 C 0.04561 0.49404 0.41958 0.0
C482 C 0.92216 0.42181 0.40073 0.0
C483 C 0.90388 0.43289 0.40948 0.0
C484 C 0.95215 0.43855 0.40511 0.0
C485 C 0.96453 0.46686 0.41794 0.0
C486 C 0.94615 0.47741 0.4284 0.0
C487 C 0.91598 0.46043 0.42446 0.0
H488 H 0.49651 0.05277 0.71475 0.0
H489 H 0.57804 0.07568 0.7628 0.0
H490 H 0.47717 0.00238 0.73083 0.0
H491 H 0.55849 0.02457 0.7789 0.0
H492 H 0.52448 0.9288 0.73501 0.0
H493 H 0.5453 0.98099 0.7414 0.0
H494 H 0.46292 0.96732 0.7794 0.0
H495 H 0.44193 0.91478 0.77291 0.0
C496 C 0.51022 0.04704 0.7291 0.0
C497 C 0.53893 0.06803 0.73711 0.0
C498 C 0.49897 0.0182 0.73871 0.0
C499 C 0.51627 0.00958 0.75624 0.0
C500 C 0.54471 0.03072 0.76539 0.0
C501 C 0.55588 0.05985 0.75617 0.0
C502 C 0.51098 0.93687 0.74549 0.0
C503 C 0.48145 0.91782 0.75288 0.0
C504 C 0.52301 0.96676 0.74946 0.0
C505 C 0.50564 0.97819 0.76058 0.0
C506 C 0.4767 0.95901 0.7705 0.0
C507 C 0.46471 0.92899 0.76687 0.0
H508 H 0.40343 0.47984 0.06402 0.0
H509 H 0.4662 0.56214 0.10749 0.0
H510 H 0.43684 0.46168 0.07161 0.0
H511 H 0.49993 0.54376 0.11522 0.0
H512 H 0.55993 0.51385 0.05991 0.0
H513 H 0.52694 0.53206 0.07171 0.0
H514 H 0.46378 0.44837 0.11244 0.0
H515 H 0.49693 0.42995 0.1004 0.0
C516 C 0.42425 0.49392 0.07571 0.0
C517 C 0.43241 0.52255 0.08475 0.0
C518 C 0.44328 0.48337 0.08039 0.0
C519 C 0.47101 0.50131 0.09395 0.0
C520 C 0.4787 0.52953 0.10454 0.0
C521 C 0.45943 0.54002 0.1002 0.0
C522 C 0.53919 0.49942 0.07187 0.0
C523 C 0.53079 0.47033 0.07876 0.0
C524 C 0.52042 0.50998 0.07897 0.0
C525 C 0.49274 0.49161 0.09286 0.0
C526 C 0.48494 0.46293 0.10148 0.0
C527 C 0.50389 0.45242 0.09465 0.0
H528 H 0.53798 0.20955 0.22849 0.0
H529 H 0.58457 0.28938 0.28488 0.0
H530 H 0.53171 0.23626 0.18203 0.0
H531 H 0.57815 0.31592 0.23868 0.0
H532 H 0.54527 0.3532 0.15829 0.0
H533 H 0.54088 0.32177 0.20578 0.0
H534 H 0.56688 0.27349 0.14059 0.0
H535 H 0.57143 0.3049 0.0933 0.0
C536 C 0.54644 0.23268 0.23123 0.0
C537 C 0.56188 0.24734 0.26036 0.0
C538 C 0.543 0.24801 0.20454 0.0
C539 C 0.5545 0.27825 0.20659 0.0
C540 C 0.56878 0.29262 0.23637 0.0
C541 C 0.57259 0.27741 0.2628 0.0
C542 C 0.54953 0.33555 0.15396 0.0
C543 C 0.55881 0.33165 0.12201 0.0
C544 C 0.5472 0.31766 0.18123 0.0
C545 C 0.55366 0.29519 0.17703 0.0
C546 C 0.56151 0.29042 0.14466 0.0
C547 C 0.56424 0.30853 0.11757 0.0
H548 H 0.18921 0.54155 0.49303 0.0
H549 H 0.27017 0.57964 0.43715 0.0
H550 H 0.21356 0.53542 0.5421 0.0
H551 H 0.29428 0.5731 0.48588 0.0
H552 H 0.32443 0.53908 0.57367 0.0
H553 H 0.29444 0.53411 0.52452 0.0
H554 H 0.25339 0.57371 0.58061 0.0
H555 H 0.28357 0.57909 0.62942 0.0
C556 C 0.21202 0.54804 0.49097 0.0
C557 C 0.22779 0.56119 0.46125 0.0
C558 C 0.22598 0.54467 0.51911 0.0
C559 C 0.25585 0.55385 0.51786 0.0
C560 C 0.27122 0.5656 0.48755 0.0
C561 C 0.25742 0.56946 0.45968 0.0
C562 C 0.30865 0.54626 0.57568 0.0
C563 C 0.30646 0.55959 0.60539 0.0
C564 C 0.2916 0.54355 0.54749 0.0
C565 C 0.2716 0.55357 0.5487 0.0
C566 C 0.26842 0.56556 0.57898 0.0
C567 C 0.28581 0.56877 0.60689 0.0
H568 H 0.69841 0.29489 0.95456 0.0
H569 H 0.77805 0.34058 0.89661 0.0
H570 H 0.67403 0.26433 0.90577 0.0
H571 H 0.75342 0.31014 0.84753 0.0
H572 H 0.6818 0.28164 0.76206 0.0
H573 H 0.71243 0.30696 0.81042 0.0
H574 H 0.67434 0.22628 0.86601 0.0
H575 H 0.64386 0.20075 0.81734 0.0
C576 C 0.71083 0.29814 0.93154 0.0
C577 C 0.74015 0.32023 0.92945 0.0
C578 C 0.69688 0.28052 0.90363 0.0
C579 C 0.71176 0.28489 0.87276 0.0
C580 C 0.74135 0.30637 0.87094 0.0
C581 C 0.75548 0.32368 0.89909 0.0
C582 C 0.6803 0.26918 0.78437 0.0
C583 C 0.66032 0.23918 0.78588 0.0
C584 C 0.69796 0.28368 0.81203 0.0
C585 C 0.69573 0.26864 0.84208 0.0
C586 C 0.67642 0.23847 0.84325 0.0
C587 C 0.6591 0.22384 0.81532 0.0
H588 H 0.36678 0.67482 0.10805 0.0
H589 H 0.41209 0.64103 0.16571 0.0
H590 H 0.3743 0.70902 0.15332 0.0
H591 H 0.41949 0.6753 0.21123 0.0
H592 H 0.3823 0.70803 0.29886 0.0
H593 H 0.3854 0.67946 0.25242 0.0
H594 H 0.41244 0.75238 0.185 0.0
H595 H 0.40948 0.78114 0.23163 0.0
C596 C 0.37869 0.67494 0.13021 0.0
C597 C 0.38873 0.65508 0.13329 0.0
C598 C 0.38314 0.69469 0.1561 0.0
C599 C 0.39742 0.69485 0.18595 0.0
C600 C 0.40823 0.67557 0.18865 0.0
C601 C 0.40412 0.65606 0.16249 0.0
C602 C 0.38937 0.71817 0.27427 0.0
C603 C 0.39552 0.74686 0.26896 0.0
C604 C 0.39128 0.70181 0.24766 0.0
C605 C 0.39902 0.71357 0.21494 0.0
C606 C 0.40617 0.74261 0.20985 0.0
C607 C 0.40465 0.75914 0.23662 0.0
H608 H 0.60697 0.39199 0.55361 0.0
H609 H 0.67529 0.41546 0.6261 0.0
H610 H 0.63935 0.39485 0.50847 0.0
H611 H 0.70907 0.4215 0.58082 0.0
H612 H 0.75365 0.3953 0.50104 0.0
H613 H 0.72467 0.39961 0.54586 0.0
H614 H 0.67506 0.41556 0.47099 0.0
H615 H 0.70238 0.40803 0.42651 0.0
C616 C 0.62936 0.39879 0.55965 0.0
C617 C 0.6386 0.40344 0.59332 0.0
C618 C 0.64824 0.40065 0.53361 0.0
C619 C 0.67731 0.40822 0.54033 0.0
C620 C 0.68683 0.4146 0.57414 0.0
C621 C 0.66757 0.41162 0.6003 0.0
C622 C 0.73667 0.4 0.49437 0.0
C623 C 0.73017 0.40123 0.46037 0.0
C624 C 0.71997 0.40271 0.52018 0.0
C625 C 0.69685 0.40775 0.51272 0.0
C626 C 0.69171 0.41067 0.47836 0.0
C627 C 0.7077 0.40681 0.4526 0.0
H628 H 0.21165 0.64883 0.90124 0.0
H629 H 0.29178 0.67762 0.95548 0.0
H630 H 0.23896 0.68218 0.85491 0.0
H631 H 0.31888 0.711 0.90951 0.0
H632 H 0.35752 0.78358 0.83162 0.0
H633 H 0.32562 0.75588 0.87881 0.0
H634 H 0.27572 0.68361 0.81208 0.0
H635 H 0.30765 0.71109 0.76505 0.0
C636 C 0.235 0.66257 0.90351 0.0
C637 C 0.24955 0.66048 0.93199 0.0
C638 C 0.25064 0.68155 0.87692 0.0
C639 C 0.28109 0.69923 0.87853 0.0
C640 C 0.29543 0.69791 0.90762 0.0
C641 C 0.27989 0.67864 0.93389 0.0
C642 C 0.33942 0.76199 0.82688 0.0
C643 C 0.33522 0.7495 0.79459 0.0
C644 C 0.32126 0.74607 0.85396 0.0
C645 C 0.29823 0.71749 0.84922 0.0
C646 C 0.29312 0.70562 0.81654 0.0
C647 C 0.31151 0.72135 0.78961 0.0
loop_
_geom_bond_atom_site_label_1
_geom_bond_atom_site_label_2
_geom_bond_distance
_geom_bond_site_symmetry_2
_ccdc_geom_bond_type
O0 Cd1 2.223 . S
O0 C8 1.315 . S
Cd1 O0 2.223 . S
Cd1 O4 2.297 . S
Cd1 O5 2.439 . S
Cd1 O11 2.240 . S
Cd2 O3 2.240 . S
Cd2 O10 2.223 . S
Cd2 O12 2.297 . S
Cd2 O13 2.439 . S
O3 Cd2 2.240 . S
O3 C8 1.279 . S
O4 Cd1 2.297 . S
O4 C6 1.247 . S
O5 Cd1 2.439 . S
O5 C6 1.208 . S
C6 O4 1.247 . S
C6 O5 1.208 . S
C7 O12 1.247 . S
C7 O13 1.208 . S
C8 O0 1.315 . S
C8 O3 1.279 . S
C9 O10 1.315 . S
C9 O11 1.279 . S
O10 Cd2 2.223 . S
O10 C9 1.315 . S
O11 Cd1 2.240 . S
O11 C9 1.279 . S
O12 Cd2 2.297 . S
O12 C7 1.247 . S
O13 Cd2 2.439 . S
O13 C7 1.208 . S
O14 Cd15 2.223 . S
O14 C22 1.315 . S
Cd15 O14 2.223 . S
Cd15 O18 2.297 . S
Cd15 O19 2.439 . S
Cd15 O25 2.240 . S
Cd16 O17 2.240 . S
Cd16 O24 2.223 . S
Cd16 O26 2.297 . S
Cd16 O27 2.439 . S
O17 Cd16 2.240 . S
O17 C22 1.279 . S
O18 Cd15 2.297 . S
O18 C20 1.247 . S
O19 Cd15 2.439 . S
O19 C20 1.208 . S
C20 O18 1.247 . S
C20 O19 1.208 . S
C21 O26 1.247 . S
C21 O27 1.208 . S
C22 O14 1.315 . S
C22 O17 1.279 . S
C23 O24 1.315 . S
C23 O25 1.279 . S
O24 Cd16 2.223 . S
O24 C23 1.315 . S
O25 Cd15 2.240 . S
O25 C23 1.279 . S
O26 Cd16 2.297 . S
O26 C21 1.247 . S
O27 Cd16 2.439 . S
O27 C21 1.208 . S
O28 Cd29 2.223 . S
O28 C36 1.315 . S
Cd29 O28 2.223 . S
Cd29 O32 2.297 . S
Cd29 O33 2.439 1_554 S
Cd29 O39 2.240 1_554 S
Cd30 O31 2.240 . S
Cd30 O38 2.223 . S
Cd30 O40 2.297 1_554 S
Cd30 O41 2.439 1_554 S
O31 Cd30 2.240 . S
O31 C36 1.279 . S
O32 Cd29 2.297 . S
O32 C34 1.247 1_554 S
O33 Cd29 2.439 1_556 S
O33 C34 1.208 . S
C34 O32 1.247 1_556 S
C34 O33 1.208 . S
C35 O40 1.247 . S
C35 O41 1.208 . S
C36 O28 1.315 . S
C36 O31 1.279 . S
C37 O38 1.315 . S
C37 O39 1.279 1_554 S
O38 Cd30 2.223 . S
O38 C37 1.315 . S
O39 Cd29 2.240 1_556 S
O39 C37 1.279 1_556 S
O40 Cd30 2.297 1_556 S
O40 C35 1.247 . S
O41 Cd30 2.439 1_556 S
O41 C35 1.208 . S
O42 Cd43 2.223 . S
O42 C50 1.315 . S
Cd43 O42 2.223 . S
Cd43 O46 2.297 . S
Cd43 O47 2.439 . S
Cd43 O53 2.240 . S
Cd44 O45 2.240 . S
Cd44 O52 2.223 . S
Cd44 O54 2.297 . S
Cd44 O55 2.439 . S
O45 Cd44 2.240 . S
O45 C50 1.279 . S
O46 Cd43 2.297 . S
O46 C48 1.247 . S
O47 Cd43 2.439 . S
O47 C48 1.208 . S
C48 O46 1.247 . S
C48 O47 1.208 . S
C49 O54 1.247 . S
C49 O55 1.208 . S
C50 O42 1.315 . S
C50 O45 1.279 . S
C51 O52 1.315 . S
C51 O53 1.279 . S
O52 Cd44 2.223 . S
O52 C51 1.315 . S
O53 Cd43 2.240 . S
O53 C51 1.279 . S
O54 Cd44 2.297 . S
O54 C49 1.247 . S
O55 Cd44 2.439 . S
O55 C49 1.208 . S
O56 Cd57 2.223 . S
O56 C64 1.315 . S
Cd57 O56 2.223 . S
Cd57 O60 2.297 . S
Cd57 O61 2.439 . S
Cd57 O67 2.240 . S
Cd58 O59 2.240 . S
Cd58 O66 2.223 . S
Cd58 O68 2.297 . S
Cd58 O69 2.439 . S
O59 Cd58 2.240 . S
O59 C64 1.279 . S
O60 Cd57 2.297 . S
O60 C62 1.247 . S
O61 Cd57 2.439 . S
O61 C62 1.208 . S
C62 O60 1.247 . S
C62 O61 1.208 . S
C63 O68 1.247 . S
C63 O69 1.208 . S
C64 O56 1.315 . S
C64 O59 1.279 . S
C65 O66 1.315 . S
C65 O67 1.279 . S
O66 Cd58 2.223 . S
O66 C65 1.315 . S
O67 Cd57 2.240 . S
O67 C65 1.279 . S
O68 Cd58 2.297 . S
O68 C63 1.247 . S
O69 Cd58 2.439 . S
O69 C63 1.208 . S
O70 Cd71 2.223 . S
O70 C78 1.315 . S
Cd71 O70 2.223 . S
Cd71 O74 2.297 . S
Cd71 O75 2.439 1_554 S
Cd71 O81 2.240 1_554 S
Cd72 O73 2.240 . S
Cd72 O80 2.223 . S
Cd72 O82 2.297 1_554 S
Cd72 O83 2.439 1_554 S
O73 Cd72 2.240 . S
O73 C78 1.279 . S
O74 Cd71 2.297 . S
O74 C76 1.247 1_554 S
O75 Cd71 2.439 1_556 S
O75 C76 1.208 . S
C76 O74 1.247 1_556 S
C76 O75 1.208 . S
C77 O82 1.247 . S
C77 O83 1.208 . S
C78 O70 1.315 . S
C78 O73 1.279 . S
C79 O80 1.315 . S
C79 O81 1.279 1_554 S
O80 Cd72 2.223 . S
O80 C79 1.315 . S
O81 Cd71 2.240 1_556 S
O81 C79 1.279 1_556 S
O82 Cd72 2.297 1_556 S
O82 C77 1.247 . S
O83 Cd72 2.439 1_556 S
O83 C77 1.208 . S
O84 Cd85 2.223 . S
O84 C92 1.315 . S
Cd85 O84 2.223 . S
Cd85 O88 2.297 . S
Cd85 O89 2.439 . S
Cd85 O95 2.240 . S
Cd86 O87 2.240 . S
Cd86 O94 2.223 . S
Cd86 O96 2.297 . S
Cd86 O97 2.439 . S
O87 Cd86 2.240 . S
O87 C92 1.279 . S
O88 Cd85 2.297 . S
O88 C90 1.247 . S
O89 Cd85 2.439 . S
O89 C90 1.208 . S
C90 O88 1.247 . S
C90 O89 1.208 . S
C91 O96 1.247 . S
C91 O97 1.208 . S
C92 O84 1.315 . S
C92 O87 1.279 . S
C93 O94 1.315 . S
C93 O95 1.279 . S
O94 Cd86 2.223 . S
O94 C93 1.315 . S
O95 Cd85 2.240 . S
O95 C93 1.279 . S
O96 Cd86 2.297 . S
O96 C91 1.247 . S
O97 Cd86 2.439 . S
O97 C91 1.208 . S
O98 Cd99 2.223 . S
O98 C106 1.315 . S
Cd99 O98 2.223 . S
Cd99 O102 2.297 . S
Cd99 O103 2.439 . S
Cd99 O109 2.240 . S
Cd100 O101 2.240 . S
Cd100 O108 2.223 . S
Cd100 O110 2.297 . S
Cd100 O111 2.439 . S
O101 Cd100 2.240 . S
O101 C106 1.279 . S
O102 Cd99 2.297 . S
O102 C104 1.247 . S
O103 Cd99 2.439 . S
O103 C104 1.208 . S
C104 O102 1.247 . S
C104 O103 1.208 . S
C105 O110 1.247 . S
C105 O111 1.208 . S
C106 O98 1.315 . S
C106 O101 1.279 . S
C107 O108 1.315 . S
C107 O109 1.279 . S
O108 Cd100 2.223 . S
O108 C107 1.315 . S
O109 Cd99 2.240 . S
O109 C107 1.279 . S
O110 Cd100 2.297 . S
O110 C105 1.247 . S
O111 Cd100 2.439 . S
O111 C105 1.208 . S
O112 Cd113 2.223 1_556 S
O112 C120 1.315 . S
Cd113 O112 2.223 1_554 S
Cd113 O116 2.297 . S
Cd113 O117 2.439 . S
Cd113 O123 2.240 . S
Cd114 O115 2.240 1_554 S
Cd114 O122 2.222 1_554 S
Cd114 O124 2.297 . S
Cd114 O125 2.439 . S
O115 Cd114 2.240 1_556 S
O115 C120 1.279 . S
O116 Cd113 2.297 . S
O116 C118 1.247 . S
O117 Cd113 2.439 . S
O117 C118 1.208 . S
C118 O116 1.247 . S
C118 O117 1.208 . S
C119 O124 1.247 . S
C119 O125 1.208 . S
C120 O112 1.315 . S
C120 O115 1.279 . S
C121 O122 1.313 1_554 S
C121 O123 1.279 . S
O122 Cd114 2.222 1_556 S
O122 C121 1.313 1_556 S
O123 Cd113 2.240 . S
O123 C121 1.279 . S
O124 Cd114 2.297 . S
O124 C119 1.247 . S
O125 Cd114 2.439 . S
O125 C119 1.208 . S
O126 Cd127 2.223 . S
O126 C134 1.315 . S
Cd127 O126 2.223 . S
Cd127 O130 2.297 . S
Cd127 O131 2.439 . S
Cd127 O137 2.240 . S
Cd128 O129 2.240 . S
Cd128 O136 2.223 . S
Cd128 O138 2.297 . S
Cd128 O139 2.439 . S
O129 Cd128 2.240 . S
O129 C134 1.279 . S
O130 Cd127 2.297 . S
O130 C132 1.247 . S
O131 Cd127 2.439 . S
O131 C132 1.208 . S
C132 O130 1.247 . S
C132 O131 1.208 . S
C133 O138 1.247 . S
C133 O139 1.208 . S
C134 O126 1.315 . S
C134 O129 1.279 . S
C135 O136 1.315 . S
C135 O137 1.279 . S
O136 Cd128 2.223 . S
O136 C135 1.315 . S
O137 Cd127 2.240 . S
O137 C135 1.279 . S
O138 Cd128 2.297 . S
O138 C133 1.247 . S
O139 Cd128 2.439 . S
O139 C133 1.208 . S
O140 Cd141 2.223 . S
O140 C148 1.315 . S
Cd141 O140 2.223 . S
Cd141 O144 2.297 . S
Cd141 O145 2.439 . S
Cd141 O151 2.240 . S
Cd142 O143 2.240 . S
Cd142 O150 2.223 . S
Cd142 O152 2.297 . S
Cd142 O153 2.439 . S
O143 Cd142 2.240 . S
O143 C148 1.279 . S
O144 Cd141 2.297 . S
O144 C146 1.247 . S
O145 Cd141 2.439 . S
O145 C146 1.208 . S
C146 O144 1.247 . S
C146 O145 1.208 . S
C147 O152 1.247 . S
C147 O153 1.208 . S
C148 O140 1.315 . S
C148 O143 1.279 . S
C149 O150 1.315 . S
C149 O151 1.279 . S
O150 Cd142 2.223 . S
O150 C149 1.315 . S
O151 Cd141 2.240 . S
O151 C149 1.279 . S
O152 Cd142 2.297 . S
O152 C147 1.247 . S
O153 Cd142 2.439 . S
O153 C147 1.208 . S
O154 Cd155 2.223 1_556 S
O154 C162 1.315 . S
Cd155 O154 2.223 1_554 S
Cd155 O158 2.297 . S
Cd155 O159 2.439 . S
Cd155 O165 2.240 . S
Cd156 O157 2.240 1_554 S
Cd156 O164 2.222 1_554 S
Cd156 O166 2.297 . S
Cd156 O167 2.439 . S
O157 Cd156 2.240 1_556 S
O157 C162 1.279 . S
O158 Cd155 2.297 . S
O158 C160 1.247 . S
O159 Cd155 2.439 . S
O159 C160 1.208 . S
C160 O158 1.247 . S
C160 O159 1.208 . S
C161 O166 1.247 . S
C161 O167 1.208 . S
C162 O154 1.315 . S
C162 O157 1.279 . S
C163 O164 1.313 1_554 S
C163 O165 1.279 . S
O164 Cd156 2.222 1_556 S
O164 C163 1.313 1_556 S
O165 Cd155 2.240 . S
O165 C163 1.279 . S
O166 Cd156 2.297 . S
O166 C161 1.247 . S
O167 Cd156 2.439 . S
O167 C161 1.208 . S
H168 C176 0.950 . S
H169 C181 0.950 . S
H170 C178 0.950 . S
H171 C180 0.950 . S
H172 C182 0.950 . S
H173 C184 0.950 . S
H174 C186 0.950 . S
H175 C187 0.950 . S
C176 H168 0.950 . S
C176 C177 1.386 . S
C176 C178 1.391 . S
C177 C176 1.386 . S
C177 C181 1.393 . S
C178 H170 0.950 . S
C178 C176 1.391 . S
C178 C179 1.400 . S
C179 C178 1.400 . S
C179 C180 1.398 . S
C179 C185 1.491 . S
C180 H171 0.950 . S
C180 C179 1.398 . S
C180 C181 1.391 . S
C181 H169 0.950 . S
C181 C177 1.393 . S
C181 C180 1.391 . S
C182 H172 0.950 . S
C182 C183 1.386 . S
C182 C184 1.391 . S
C183 C182 1.386 . S
C183 C187 1.393 . S
C184 H173 0.950 . S
C184 C182 1.391 . S
C184 C185 1.400 . S
C185 C179 1.491 . S
C185 C184 1.400 . S
C185 C186 1.398 . S
C186 H174 0.950 . S
C186 C185 1.398 . S
C186 C187 1.391 . S
C187 H175 0.950 . S
C187 C183 1.393 . S
C187 C186 1.391 . S
H188 C196 0.950 . S
H189 C201 0.950 . S
H190 C198 0.950 . S
H191 C200 0.950 . S
H192 C202 0.950 . S
H193 C204 0.950 . S
H194 C206 0.950 . S
H195 C207 0.950 . S
C196 H188 0.950 . S
C196 C197 1.386 . S
C196 C198 1.391 . S
C197 C196 1.386 . S
C197 C201 1.393 . S
C198 H190 0.950 . S
C198 C196 1.391 . S
C198 C199 1.400 . S
C199 C198 1.400 . S
C199 C200 1.398 . S
C199 C205 1.491 . S
C200 H191 0.950 . S
C200 C199 1.398 . S
C200 C201 1.391 . S
C201 H189 0.950 . S
C201 C197 1.393 . S
C201 C200 1.391 . S
C202 H192 0.950 . S
C202 C203 1.386 . S
C202 C204 1.391 . S
C203 C202 1.386 . S
C203 C207 1.393 . S
C204 H193 0.950 . S
C204 C202 1.391 . S
C204 C205 1.400 . S
C205 C199 1.491 . S
C205 C204 1.400 . S
C205 C206 1.398 . S
C206 H194 0.950 . S
C206 C205 1.398 . S
C206 C207 1.391 . S
C207 H195 0.950 . S
C207 C203 1.393 . S
C207 C206 1.391 . S
H208 C216 0.950 . S
H209 C221 0.950 . S
H210 C218 0.950 . S
H211 C220 0.950 . S
H212 C222 0.950 . S
H213 C224 0.950 . S
H214 C226 0.950 . S
H215 C227 0.950 . S
C216 H208 0.950 . S
C216 C217 1.386 . S
C216 C218 1.391 . S
C217 C216 1.386 . S
C217 C221 1.393 . S
C218 H210 0.950 . S
C218 C216 1.391 . S
C218 C219 1.400 . S
C219 C218 1.400 . S
C219 C220 1.398 . S
C219 C225 1.491 . S
C220 H211 0.950 . S
C220 C219 1.398 . S
C220 C221 1.391 . S
C221 H209 0.950 . S
C221 C217 1.393 . S
C221 C220 1.391 . S
C222 H212 0.950 . S
C222 C223 1.386 . S
C222 C224 1.391 . S
C223 C222 1.386 . S
C223 C227 1.393 . S
C224 H213 0.950 . S
C224 C222 1.391 . S
C224 C225 1.400 . S
C225 C219 1.491 . S
C225 C224 1.400 . S
C225 C226 1.398 . S
C226 H214 0.950 . S
C226 C225 1.398 . S
C226 C227 1.391 . S
C227 H215 0.950 . S
C227 C223 1.393 . S
C227 C226 1.391 . S
H228 C236 0.950 . S
H229 C241 0.950 . S
H230 C238 0.950 . S
H231 C240 0.950 . S
H232 C242 0.950 . S
H233 C244 0.950 . S
H234 C246 0.950 . S
H235 C247 0.950 . S
C236 H228 0.950 . S
C236 C237 1.386 . S
C236 C238 1.391 . S
C237 C236 1.386 . S
C237 C241 1.393 . S
C238 H230 0.950 . S
C238 C236 1.391 . S
C238 C239 1.400 . S
C239 C238 1.400 . S
C239 C240 1.398 . S
C239 C245 1.491 . S
C240 H231 0.950 . S
C240 C239 1.398 . S
C240 C241 1.391 . S
C241 H229 0.950 . S
C241 C237 1.393 . S
C241 C240 1.391 . S
C242 H232 0.950 . S
C242 C243 1.386 . S
C242 C244 1.391 . S
C243 C242 1.386 . S
C243 C247 1.393 . S
C244 H233 0.950 . S
C244 C242 1.391 . S
C244 C245 1.400 . S
C245 C239 1.491 . S
C245 C244 1.400 . S
C245 C246 1.398 . S
C246 H234 0.950 . S
C246 C245 1.398 . S
C246 C247 1.391 . S
C247 H235 0.950 . S
C247 C243 1.393 . S
C247 C246 1.391 . S
H248 C256 0.950 . S
H249 C261 0.950 . S
H250 C258 0.950 . S
H251 C260 0.950 . S
H252 C262 0.950 . S
H253 C264 0.950 . S
H254 C266 0.950 . S
H255 C267 0.950 . S
C256 H248 0.950 . S
C256 C257 1.386 . S
C256 C258 1.391 . S
C257 C256 1.386 . S
C257 C261 1.393 . S
C258 H250 0.950 . S
C258 C256 1.391 . S
C258 C259 1.400 . S
C259 C258 1.400 . S
C259 C260 1.398 . S
C259 C265 1.491 . S
C260 H251 0.950 . S
C260 C259 1.398 . S
C260 C261 1.391 . S
C261 H249 0.950 . S
C261 C257 1.393 . S
C261 C260 1.391 . S
C262 H252 0.950 . S
C262 C263 1.386 . S
C262 C264 1.391 . S
C263 C262 1.386 . S
C263 C267 1.393 . S
C264 H253 0.950 . S
C264 C262 1.391 . S
C264 C265 1.400 . S
C265 C259 1.491 . S
C265 C264 1.400 . S
C265 C266 1.398 . S
C266 H254 0.950 . S
C266 C265 1.398 . S
C266 C267 1.391 . S
C267 H255 0.950 . S
C267 C263 1.393 . S
C267 C266 1.391 . S
H268 C276 0.950 . S
H269 C281 0.950 . S
H270 C278 0.950 . S
H271 C280 0.950 . S
H272 C282 0.950 . S
H273 C284 0.950 . S
H274 C286 0.950 . S
H275 C287 0.950 . S
C276 H268 0.950 . S
C276 C277 1.386 . S
C276 C278 1.391 . S
C277 C276 1.386 . S
C277 C281 1.393 . S
C278 H270 0.950 . S
C278 C276 1.391 . S
C278 C279 1.400 . S
C279 C278 1.400 . S
C279 C280 1.398 . S
C279 C285 1.491 . S
C280 H271 0.950 . S
C280 C279 1.398 . S
C280 C281 1.391 . S
C281 H269 0.950 . S
C281 C277 1.393 . S
C281 C280 1.391 . S
C282 H272 0.950 . S
C282 C283 1.386 . S
C282 C284 1.391 . S
C283 C282 1.386 . S
C283 C287 1.393 . S
C284 H273 0.950 . S
C284 C282 1.391 . S
C284 C285 1.400 . S
C285 C279 1.491 . S
C285 C284 1.400 . S
C285 C286 1.398 . S
C286 H274 0.950 . S
C286 C285 1.398 . S
C286 C287 1.391 . S
C287 H275 0.950 . S
C287 C283 1.393 . S
C287 C286 1.391 . S
H288 C296 0.950 . S
H289 C301 0.950 . S
H290 C298 0.950 . S
H291 C300 0.950 . S
H292 C302 0.950 . S
H293 C304 0.950 . S
H294 C306 0.950 . S
H295 C307 0.950 . S
C296 H288 0.950 . S
C296 C297 1.386 . S
C296 C298 1.391 . S
C297 C296 1.386 . S
C297 C301 1.393 . S
C298 H290 0.950 . S
C298 C296 1.391 . S
C298 C299 1.400 . S
C299 C298 1.400 . S
C299 C300 1.398 . S
C299 C305 1.491 . S
C300 H291 0.950 . S
C300 C299 1.398 . S
C300 C301 1.391 . S
C301 H289 0.950 . S
C301 C297 1.393 . S
C301 C300 1.391 . S
C302 H292 0.950 . S
C302 C303 1.386 . S
C302 C304 1.391 . S
C303 C302 1.386 . S
C303 C307 1.393 . S
C304 H293 0.950 . S
C304 C302 1.391 . S
C304 C305 1.400 . S
C305 C299 1.491 . S
C305 C304 1.400 . S
C305 C306 1.398 . S
C306 H294 0.950 . S
C306 C305 1.398 . S
C306 C307 1.391 . S
C307 H295 0.950 . S
C307 C303 1.393 . S
C307 C306 1.391 . S
H308 C316 0.950 . S
H309 C321 0.950 . S
H310 C318 0.950 . S
H311 C320 0.950 . S
H312 C322 0.950 . S
H313 C324 0.950 . S
H314 C326 0.950 . S
H315 C327 0.950 . S
C316 H308 0.950 . S
C316 C317 1.386 . S
C316 C318 1.391 . S
C317 C316 1.386 . S
C317 C321 1.393 . S
C318 H310 0.950 . S
C318 C316 1.391 . S
C318 C319 1.400 . S
C319 C318 1.400 . S
C319 C320 1.398 . S
C319 C325 1.491 . S
C320 H311 0.950 . S
C320 C319 1.398 . S
C320 C321 1.391 . S
C321 H309 0.950 . S
C321 C317 1.393 . S
C321 C320 1.391 . S
C322 H312 0.950 . S
C322 C323 1.386 . S
C322 C324 1.391 . S
C323 C322 1.386 . S
C323 C327 1.393 . S
C324 H313 0.950 . S
C324 C322 1.391 . S
C324 C325 1.400 . S
C325 C319 1.491 . S
C325 C324 1.400 . S
C325 C326 1.398 . S
C326 H314 0.950 . S
C326 C325 1.398 . S
C326 C327 1.391 . S
C327 H315 0.950 . S
C327 C323 1.393 . S
C327 C326 1.391 . S
H328 C336 0.950 . S
H329 C341 0.950 . S
H330 C338 0.950 . S
H331 C340 0.950 . S
H332 C342 0.950 . S
H333 C344 0.950 . S
H334 C346 0.950 . S
H335 C347 0.950 . S
C336 H328 0.950 . S
C336 C337 1.386 . S
C336 C338 1.391 . S
C337 C336 1.386 . S
C337 C341 1.393 . S
C338 H330 0.950 . S
C338 C336 1.391 . S
C338 C339 1.400 . S
C339 C338 1.400 . S
C339 C340 1.398 . S
C339 C345 1.491 . S
C340 H331 0.950 . S
C340 C339 1.398 . S
C340 C341 1.391 . S
C341 H329 0.950 . S
C341 C337 1.393 . S
C341 C340 1.391 . S
C342 H332 0.950 . S
C342 C343 1.386 . S
C342 C344 1.391 . S
C343 C342 1.386 . S
C343 C347 1.393 . S
C344 H333 0.950 . S
C344 C342 1.391 . S
C344 C345 1.400 . S
C345 C339 1.491 . S
C345 C344 1.400 . S
C345 C346 1.398 . S
C346 H334 0.950 . S
C346 C345 1.398 . S
C346 C347 1.391 . S
C347 H335 0.950 . S
C347 C343 1.393 . S
C347 C346 1.391 . S
H348 C356 0.950 . S
H349 C361 0.950 . S
H350 C358 0.950 . S
H351 C360 0.950 . S
H352 C362 0.950 . S
H353 C364 0.950 . S
H354 C366 0.950 . S
H355 C367 0.950 . S
C356 H348 0.950 . S
C356 C357 1.386 . S
C356 C358 1.391 . S
C357 C356 1.386 . S
C357 C361 1.393 . S
C358 H350 0.950 . S
C358 C356 1.391 . S
C358 C359 1.400 . S
C359 C358 1.400 . S
C359 C360 1.398 . S
C359 C365 1.491 . S
C360 H351 0.950 . S
C360 C359 1.398 . S
C360 C361 1.391 . S
C361 H349 0.950 . S
C361 C357 1.393 . S
C361 C360 1.391 . S
C362 H352 0.950 . S
C362 C363 1.386 . S
C362 C364 1.391 . S
C363 C362 1.386 . S
C363 C367 1.393 . S
C364 H353 0.950 . S
C364 C362 1.391 . S
C364 C365 1.400 . S
C365 C359 1.491 . S
C365 C364 1.400 . S
C365 C366 1.398 . S
C366 H354 0.950 . S
C366 C365 1.398 . S
C366 C367 1.391 . S
C367 H355 0.950 . S
C367 C363 1.393 . S
C367 C366 1.391 . S
H368 C376 0.950 . S
H369 C381 0.950 . S
H370 C378 0.950 . S
H371 C380 0.950 . S
H372 C382 0.950 . S
H373 C384 0.950 . S
H374 C386 0.950 . S
H375 C387 0.950 . S
C376 H368 0.950 . S
C376 C377 1.386 . S
C376 C378 1.391 . S
C377 C376 1.386 . S
C377 C381 1.393 . S
C378 H370 0.950 . S
C378 C376 1.391 . S
C378 C379 1.400 . S
C379 C378 1.400 . S
C379 C380 1.398 . S
C379 C385 1.491 . S
C380 H371 0.950 . S
C380 C379 1.398 . S
C380 C381 1.391 . S
C381 H369 0.950 . S
C381 C377 1.393 . S
C381 C380 1.391 . S
C382 H372 0.950 . S
C382 C383 1.386 . S
C382 C384 1.391 . S
C383 C382 1.386 . S
C383 C387 1.393 . S
C384 H373 0.950 . S
C384 C382 1.391 . S
C384 C385 1.400 . S
C385 C379 1.491 . S
C385 C384 1.400 . S
C385 C386 1.398 . S
C386 H374 0.950 . S
C386 C385 1.398 . S
C386 C387 1.391 . S
C387 H375 0.950 . S
C387 C383 1.393 . S
C387 C386 1.391 . S
H388 C396 0.950 . S
H389 C401 0.950 . S
H390 C398 0.950 . S
H391 C400 0.950 . S
H392 C402 0.950 . S
H393 C404 0.950 . S
H394 C406 0.950 . S
H395 C407 0.950 . S
C396 H388 0.950 . S
C396 C397 1.386 1_556 S
C396 C398 1.391 . S
C397 C396 1.386 1_554 S
C397 C401 1.393 . S
C398 H390 0.950 . S
C398 C396 1.391 . S
C398 C399 1.400 1_556 S
C399 C398 1.400 1_554 S
C399 C400 1.398 . S
C399 C405 1.491 . S
C400 H391 0.950 . S
C400 C399 1.398 . S
C400 C401 1.391 . S
C401 H389 0.950 . S
C401 C397 1.393 . S
C401 C400 1.391 . S
C402 H392 0.950 . S
C402 C403 1.386 . S
C402 C404 1.391 . S
C403 C402 1.386 . S
C403 C407 1.393 1_554 S
C404 H393 0.950 . S
C404 C402 1.391 . S
C404 C405 1.400 . S
C405 C399 1.491 . S
C405 C404 1.400 . S
C405 C406 1.398 1_554 S
C406 H394 0.950 . S
C406 C405 1.398 1_556 S
C406 C407 1.391 . S
C407 H395 0.950 . S
C407 C403 1.393 1_556 S
C407 C406 1.391 . S
H408 C416 0.950 . S
H409 C421 0.950 . S
H410 C418 0.950 . S
H411 C420 0.950 . S
H412 C422 0.950 . S
H413 C424 0.950 . S
H414 C426 0.950 . S
H415 C427 0.950 . S
C416 H408 0.950 . S
C416 C417 1.386 . S
C416 C418 1.391 . S
C417 C416 1.386 . S
C417 C421 1.393 . S
C418 H410 0.950 . S
C418 C416 1.391 . S
C418 C419 1.400 . S
C419 C418 1.400 . S
C419 C420 1.398 . S
C419 C425 1.491 1_545 S
C420 H411 0.950 . S
C420 C419 1.398 . S
C420 C421 1.391 . S
C421 H409 0.950 . S
C421 C417 1.393 . S
C421 C420 1.391 . S
C422 H412 0.950 . S
C422 C423 1.386 . S
C422 C424 1.391 . S
C423 C422 1.386 . S
C423 C427 1.393 . S
C424 H413 0.950 . S
C424 C422 1.391 . S
C424 C425 1.400 . S
C425 C419 1.491 1_565 S
C425 C424 1.400 . S
C425 C426 1.398 . S
C426 H414 0.950 . S
C426 C425 1.398 . S
C426 C427 1.391 . S
C427 H415 0.950 . S
C427 C423 1.393 . S
C427 C426 1.391 . S
H428 C436 0.950 . S
H429 C441 0.950 . S
H430 C438 0.950 . S
H431 C440 0.950 . S
H432 C442 0.950 . S
H433 C444 0.950 . S
H434 C446 0.950 . S
H435 C447 0.950 . S
C436 H428 0.950 . S
C436 C437 1.386 . S
C436 C438 1.391 . S
C437 C436 1.386 . S
C437 C441 1.393 . S
C438 H430 0.950 . S
C438 C436 1.391 . S
C438 C439 1.400 . S
C439 C438 1.400 . S
C439 C440 1.398 . S
C439 C445 1.491 . S
C440 H431 0.950 . S
C440 C439 1.398 . S
C440 C441 1.391 . S
C441 H429 0.950 . S
C441 C437 1.393 . S
C441 C440 1.391 . S
C442 H432 0.950 . S
C442 C443 1.386 . S
C442 C444 1.391 . S
C443 C442 1.386 . S
C443 C447 1.393 . S
C444 H433 0.950 . S
C444 C442 1.391 . S
C444 C445 1.400 . S
C445 C439 1.491 . S
C445 C444 1.400 . S
C445 C446 1.398 . S
C446 H434 0.950 . S
C446 C445 1.398 . S
C446 C447 1.391 . S
C447 H435 0.950 . S
C447 C443 1.393 . S
C447 C446 1.391 . S
H448 C456 0.950 . S
H449 C461 0.950 . S
H450 C458 0.950 . S
H451 C460 0.950 . S
H452 C462 0.950 . S
H453 C464 0.950 . S
H454 C466 0.950 . S
H455 C467 0.950 . S
C456 H448 0.950 . S
C456 C457 1.386 . S
C456 C458 1.391 . S
C457 C456 1.386 . S
C457 C461 1.393 . S
C458 H450 0.950 . S
C458 C456 1.391 . S
C458 C459 1.400 . S
C459 C458 1.400 . S
C459 C460 1.398 . S
C459 C465 1.491 1_655 S
C460 H451 0.950 . S
C460 C459 1.398 . S
C460 C461 1.391 . S
C461 H449 0.950 . S
C461 C457 1.393 . S
C461 C460 1.391 . S
C462 H452 0.950 . S
C462 C463 1.386 . S
C462 C464 1.391 . S
C463 C462 1.386 . S
C463 C467 1.393 . S
C464 H453 0.950 . S
C464 C462 1.391 . S
C464 C465 1.400 . S
C465 C459 1.491 1_455 S
C465 C464 1.400 . S
C465 C466 1.398 . S
C466 H454 0.950 . S
C466 C465 1.398 . S
C466 C467 1.391 . S
C467 H455 0.950 . S
C467 C463 1.393 . S
C467 C466 1.391 . S
H468 C476 0.950 . S
H469 C481 0.950 . S
H470 C478 0.950 . S
H471 C480 0.950 . S
H472 C482 0.950 . S
H473 C484 0.950 . S
H474 C486 0.950 . S
H475 C487 0.950 . S
C476 H468 0.950 . S
C476 C477 1.386 . S
C476 C478 1.391 . S
C477 C476 1.386 . S
C477 C481 1.393 . S
C478 H470 0.950 . S
C478 C476 1.391 . S
C478 C479 1.400 . S
C479 C478 1.400 . S
C479 C480 1.398 . S
C479 C485 1.491 1_455 S
C480 H471 0.950 . S
C480 C479 1.398 . S
C480 C481 1.391 . S
C481 H469 0.950 . S
C481 C477 1.393 . S
C481 C480 1.391 . S
C482 H472 0.950 . S
C482 C483 1.386 . S
C482 C484 1.391 . S
C483 C482 1.386 . S
C483 C487 1.393 . S
C484 H473 0.950 . S
C484 C482 1.391 . S
C484 C485 1.400 . S
C485 C479 1.491 1_655 S
C485 C484 1.400 . S
C485 C486 1.398 . S
C486 H474 0.950 . S
C486 C485 1.398 . S
C486 C487 1.391 . S
C487 H475 0.950 . S
C487 C483 1.393 . S
C487 C486 1.391 . S
H488 C496 0.950 . S
H489 C501 0.950 . S
H490 C498 0.950 . S
H491 C500 0.950 . S
H492 C502 0.950 . S
H493 C504 0.950 . S
H494 C506 0.950 . S
H495 C507 0.950 . S
C496 H488 0.950 . S
C496 C497 1.386 . S
C496 C498 1.391 . S
C497 C496 1.386 . S
C497 C501 1.393 . S
C498 H490 0.950 . S
C498 C496 1.391 . S
C498 C499 1.400 . S
C499 C498 1.400 . S
C499 C500 1.398 . S
C499 C505 1.491 1_545 S
C500 H491 0.950 . S
C500 C499 1.398 . S
C500 C501 1.391 . S
C501 H489 0.950 . S
C501 C497 1.393 . S
C501 C500 1.391 . S
C502 H492 0.950 . S
C502 C503 1.386 . S
C502 C504 1.391 . S
C503 C502 1.386 . S
C503 C507 1.393 . S
C504 H493 0.950 . S
C504 C502 1.391 . S
C504 C505 1.400 . S
C505 C499 1.491 1_565 S
C505 C504 1.400 . S
C505 C506 1.398 . S
C506 H494 0.950 . S
C506 C505 1.398 . S
C506 C507 1.391 . S
C507 H495 0.950 . S
C507 C503 1.393 . S
C507 C506 1.391 . S
H508 C516 0.950 1_556 S
H509 C521 0.950 . S
H510 C518 0.950 1_556 S
H511 C520 0.950 . S
H512 C522 0.950 . S
H513 C524 0.950 . S
H514 C526 0.950 1_556 S
H515 C527 0.950 1_556 S
C516 H508 0.950 1_554 S
C516 C517 1.386 . S
C516 C518 1.391 . S
C517 C516 1.386 . S
C517 C521 1.393 . S
C518 H510 0.950 1_554 S
C518 C516 1.391 . S
C518 C519 1.400 . S
C519 C518 1.400 . S
C519 C520 1.398 . S
C519 C525 1.491 . S
C520 H511 0.950 . S
C520 C519 1.398 . S
C520 C521 1.391 . S
C521 H509 0.950 . S
C521 C517 1.393 . S
C521 C520 1.391 . S
C522 H512 0.950 . S
C522 C523 1.386 . S
C522 C524 1.391 . S
C523 C522 1.386 . S
C523 C527 1.393 . S
C524 H513 0.950 . S
C524 C522 1.391 . S
C524 C525 1.400 . S
C525 C519 1.491 . S
C525 C524 1.400 . S
C525 C526 1.398 . S
C526 H514 0.950 1_554 S
C526 C525 1.398 . S
C526 C527 1.391 . S
C527 H515 0.950 1_554 S
C527 C523 1.393 . S
C527 C526 1.391 . S
H528 C536 0.950 . S
H529 C541 0.950 . S
H530 C538 0.950 . S
H531 C540 0.950 . S
H532 C542 0.950 . S
H533 C544 0.950 . S
H534 C546 0.950 . S
H535 C547 0.950 . S
C536 H528 0.950 . S
C536 C537 1.386 . S
C536 C538 1.391 . S
C537 C536 1.386 . S
C537 C541 1.393 . S
C538 H530 0.950 . S
C538 C536 1.391 . S
C538 C539 1.400 . S
C539 C538 1.400 . S
C539 C540 1.398 . S
C539 C545 1.491 . S
C540 H531 0.950 . S
C540 C539 1.398 . S
C540 C541 1.391 . S
C541 H529 0.950 . S
C541 C537 1.393 . S
C541 C540 1.391 . S
C542 H532 0.950 . S
C542 C543 1.386 . S
C542 C544 1.391 . S
C543 C542 1.386 . S
C543 C547 1.393 . S
C544 H533 0.950 . S
C544 C542 1.391 . S
C544 C545 1.400 . S
C545 C539 1.491 . S
C545 C544 1.400 . S
C545 C546 1.398 . S
C546 H534 0.950 . S
C546 C545 1.398 . S
C546 C547 1.391 . S
C547 H535 0.950 . S
C547 C543 1.393 . S
C547 C546 1.391 . S
H548 C556 0.950 . S
H549 C561 0.950 . S
H550 C558 0.950 . S
H551 C560 0.950 . S
H552 C562 0.950 . S
H553 C564 0.950 . S
H554 C566 0.950 . S
H555 C567 0.950 . S
C556 H548 0.950 . S
C556 C557 1.386 . S
C556 C558 1.391 . S
C557 C556 1.386 . S
C557 C561 1.393 . S
C558 H550 0.950 . S
C558 C556 1.391 . S
C558 C559 1.400 . S
C559 C558 1.400 . S
C559 C560 1.398 . S
C559 C565 1.491 . S
C560 H551 0.950 . S
C560 C559 1.398 . S
C560 C561 1.391 . S
C561 H549 0.950 . S
C561 C557 1.393 . S
C561 C560 1.391 . S
C562 H552 0.950 . S
C562 C563 1.386 . S
C562 C564 1.391 . S
C563 C562 1.386 . S
C563 C567 1.393 . S
C564 H553 0.950 . S
C564 C562 1.391 . S
C564 C565 1.400 . S
C565 C559 1.491 . S
C565 C564 1.400 . S
C565 C566 1.398 . S
C566 H554 0.950 . S
C566 C565 1.398 . S
C566 C567 1.391 . S
C567 H555 0.950 . S
C567 C563 1.393 . S
C567 C566 1.391 . S
H568 C576 0.950 . S
H569 C581 0.950 . S
H570 C578 0.950 . S
H571 C580 0.950 . S
H572 C582 0.950 . S
H573 C584 0.950 . S
H574 C586 0.950 . S
H575 C587 0.950 . S
C576 H568 0.950 . S
C576 C577 1.386 . S
C576 C578 1.391 . S
C577 C576 1.386 . S
C577 C581 1.393 . S
C578 H570 0.950 . S
C578 C576 1.391 . S
C578 C579 1.400 . S
C579 C578 1.400 . S
C579 C580 1.398 . S
C579 C585 1.491 . S
C580 H571 0.950 . S
C580 C579 1.398 . S
C580 C581 1.391 . S
C581 H569 0.950 . S
C581 C577 1.393 . S
C581 C580 1.391 . S
C582 H572 0.950 . S
C582 C583 1.386 . S
C582 C584 1.391 . S
C583 C582 1.386 . S
C583 C587 1.393 . S
C584 H573 0.950 . S
C584 C582 1.391 . S
C584 C585 1.400 . S
C585 C579 1.491 . S
C585 C584 1.400 . S
C585 C586 1.398 . S
C586 H574 0.950 . S
C586 C585 1.398 . S
C586 C587 1.391 . S
C587 H575 0.950 . S
C587 C583 1.393 . S
C587 C586 1.391 . S
H588 C596 0.950 . S
H589 C601 0.950 . S
H590 C598 0.950 . S
H591 C600 0.950 . S
H592 C602 0.950 . S
H593 C604 0.950 . S
H594 C606 0.950 . S
H595 C607 0.950 . S
C596 H588 0.950 . S
C596 C597 1.386 . S
C596 C598 1.391 . S
C597 C596 1.386 . S
C597 C601 1.393 . S
C598 H590 0.950 . S
C598 C596 1.391 . S
C598 C599 1.400 . S
C599 C598 1.400 . S
C599 C600 1.398 . S
C599 C605 1.491 . S
C600 H591 0.950 . S
C600 C599 1.398 . S
C600 C601 1.391 . S
C601 H589 0.950 . S
C601 C597 1.393 . S
C601 C600 1.391 . S
C602 H592 0.950 . S
C602 C603 1.386 . S
C602 C604 1.391 . S
C603 C602 1.386 . S
C603 C607 1.393 . S
C604 H593 0.950 . S
C604 C602 1.391 . S
C604 C605 1.400 . S
C605 C599 1.491 . S
C605 C604 1.400 . S
C605 C606 1.398 . S
C606 H594 0.950 . S
C606 C605 1.398 . S
C606 C607 1.391 . S
C607 H595 0.950 . S
C607 C603 1.393 . S
C607 C606 1.391 . S
H608 C616 0.950 . S
H609 C621 0.950 . S
H610 C618 0.950 . S
H611 C620 0.950 . S
H612 C622 0.950 . S
H613 C624 0.950 . S
H614 C626 0.950 . S
H615 C627 0.950 . S
C616 H608 0.950 . S
C616 C617 1.386 . S
C616 C618 1.391 . S
C617 C616 1.386 . S
C617 C621 1.393 . S
C618 H610 0.950 . S
C618 C616 1.391 . S
C618 C619 1.400 . S
C619 C618 1.400 . S
C619 C620 1.398 . S
C619 C625 1.491 . S
C620 H611 0.950 . S
C620 C619 1.398 . S
C620 C621 1.391 . S
C621 H609 0.950 . S
C621 C617 1.393 . S
C621 C620 1.391 . S
C622 H612 0.950 . S
C622 C623 1.386 . S
C622 C624 1.391 . S
C623 C622 1.386 . S
C623 C627 1.393 . S
C624 H613 0.950 . S
C624 C622 1.391 . S
C624 C625 1.400 . S
C625 C619 1.491 . S
C625 C624 1.400 . S
C625 C626 1.398 . S
C626 H614 0.950 . S
C626 C625 1.398 . S
C626 C627 1.391 . S
C627 H615 0.950 . S
C627 C623 1.393 . S
C627 C626 1.391 . S
H628 C636 0.950 . S
H629 C641 0.950 . S
H630 C638 0.950 . S
H631 C640 0.950 . S
H632 C642 0.950 . S
H633 C644 0.950 . S
H634 C646 0.950 . S
H635 C647 0.950 . S
C636 H628 0.950 . S
C636 C637 1.386 . S
C636 C638 1.391 . S
C637 C636 1.386 . S
C637 C641 1.393 . S
C638 H630 0.950 . S
C638 C636 1.391 . S
C638 C639 1.400 . S
C639 C638 1.400 . S
C639 C640 1.398 . S
C639 C645 1.491 . S
C640 H631 0.950 . S
C640 C639 1.398 . S
C640 C641 1.391 . S
C641 H629 0.950 . S
C641 C637 1.393 . S
C641 C640 1.391 . S
C642 H632 0.950 . S
C642 C643 1.386 . S
C642 C644 1.391 . S
C643 C642 1.386 . S
C643 C647 1.393 . S
C644 H633 0.950 . S
C644 C642 1.391 . S
C644 C645 1.400 . S
C645 C639 1.491 . S
C645 C644 1.400 . S
C645 C646 1.398 . S
C646 H634 0.950 . S
C646 C645 1.398 . S
C646 C647 1.391 . S
C647 H635 0.950 . S
C647 C643 1.393 . S
C647 C646 1.391 . S
C177 C8 1.590 . S
C183 C148 1.587 . S
C197 C22 1.618 . S
C203 C162 1.619 . S
C217 C92 1.616 . S
C223 C36 1.619 . S
C237 C50 1.596 . S
C243 C106 1.605 . S
C257 C120 1.598 . S
C263 C64 1.590 . S
C277 C134 1.613 . S
C283 C78 1.618 . S
C297 C93 0.835 . S
C303 C9 0.812 . S
C317 C107 0.826 . S
C323 C23 0.813 . S
C337 C121 0.827 . S
C343 C37 0.821 . S
C357 C51 0.832 . S
C363 C135 0.815 . S
C377 C65 0.805 . S
C383 C149 0.836 . S
C397 C79 0.804 . S
C403 C163 0.839 . S
C417 C6 1.410 . S
C423 C48 1.407 . S
C437 C20 1.411 . S
C443 C62 1.406 . S
C457 C34 1.403 . S
C463 C76 1.392 . S
C477 C132 1.407 . S
C483 C90 1.411 . S
C497 C146 1.400 . S
C503 C104 1.409 . S
C517 C160 1.404 . S
C523 C118 1.410 . S
C537 C7 1.330 . S
C543 C119 1.331 . S
C557 C133 1.333 . S
C563 C21 1.329 . S
C577 C35 1.328 . S
C583 C147 1.337 . S
C597 C161 1.349 . S
C603 C49 1.347 . S
C617 C63 1.337 . S
C623 C91 1.328 . S
C637 C77 1.330 . S
C643 C105 1.330 . S
