# Generated by pormake.
# Topology sxa, (6)-cn, num edge types: 1
# Building blocks:
#     Node 0, Type 0, BuildingBlock: PAMTUU_clean_sbu_0, # of connection points: 6
#     Node 1, Type 0, BuildingBlock: PAMTUU_clean_sbu_0, # of connection points: 6
#     Node 2, Type 0, BuildingBlock: PAMTUU_clean_sbu_0, # of connection points: 6
#     Node 3, Type 0, BuildingBlock: PAMTUU_clean_sbu_0, # of connection points: 6
#     Edge 4, Type (0, 0), BuildingBlock: FUNLAD_clean_linker_1, # of connection points: 2
#     Edge 5, Type (0, 0), BuildingBlock: FUNLAD_clean_linker_1, # of connection points: 2
#     Edge 6, Type (0, 0), BuildingBlock: FUNLAD_clean_linker_1, # of connection points: 2
#     Edge 7, Type (0, 0), BuildingBlock: FUNLAD_clean_linker_1, # of connection points: 2
#     Edge 8, Type (0, 0), BuildingBlock: FUNLAD_clean_linker_1, # of connection points: 2
#     Edge 9, Type (0, 0), BuildingBlock: FUNLAD_clean_linker_1, # of connection points: 2
#     Edge 10, Type (0, 0), BuildingBlock: FUNLAD_clean_linker_1, # of connection points: 2
#     Edge 11, Type (0, 0), BuildingBlock: FUNLAD_clean_linker_1, # of connection points: 2
#     Edge 12, Type (0, 0), BuildingBlock: FUNLAD_clean_linker_1, # of connection points: 2
#     Edge 13, Type (0, 0), BuildingBlock: FUNLAD_clean_linker_1, # of connection points: 2
#     Edge 14, Type (0, 0), BuildingBlock: FUNLAD_clean_linker_1, # of connection points: 2
#     Edge 15, Type (0, 0), BuildingBlock: FUNLAD_clean_linker_1, # of connection points: 2
# Relax obj value: 0.214
# Max RMSD: 0.275
# Mean RMSD: 0.275
data_MOF--net-sxa--node1-PAMTUU_clean_sbu_0--edge1-FUNLAD_clean_linker_1
_symmetry_space_group_name_H-M    P1
_symmetry_Int_Tables_number       1
_symmetry_cell_setting            triclinic
loop_
_symmetry_equiv_pos_as_xyz
'x, y, z'
_cell_length_a     36.67959
_cell_length_b     28.639261
_cell_length_c     17.548247
_cell_angle_alpha  93.961072
_cell_angle_beta   55.52349
_cell_angle_gamma 98.694871
loop_
_atom_site_label
_atom_site_type_symbol
_atom_site_fract_x
_atom_site_fract_y
_atom_site_fract_z
_atom_type_partial_charge
Tb0 Tb 0.09051 0.77366 0.08617 0.0
Tb1 Tb 0.10038 0.78403 0.26163 0.0
C2 C 0.08978 0.68456 0.17577 0.0
C3 C 0.06759 0.80063 0.91578 0.0
C4 C 1.0239 0.85002 0.8641 0.0
C5 C 0.05346 0.81886 0.80249 0.0
C6 C 0.07497 0.79404 0.82845 0.0
C7 C 0.04048 0.83406 0.975 0.0
C8 C 1.01884 0.85864 0.9493 0.0
C9 C 0.08668 0.77145 0.94658 0.0
O10 O 1.02417 0.78728 0.20724 0.0
O11 O 0.02961 0.76489 0.3242 0.0
O12 O 0.07812 0.84979 0.25106 0.0
O13 O 0.11097 0.84683 0.09572 0.0
O14 O 0.09387 0.7553 0.3768 0.0
O15 O 0.12256 0.82768 0.33339 0.0
O16 O 0.16516 0.80333 0.13551 0.0
O17 O 0.15478 0.75227 0.04265 0.0
O18 O 0.06997 0.7043 0.14637 0.0
O19 O 0.10933 0.70999 0.21254 0.0
C20 C 1.00584 0.7747 0.29439 0.0
O21 O 0.12057 0.79248 0.94707 0.0
O22 O 0.05789 0.74677 0.02232 0.0
C23 C 0.09152 0.87013 0.17231 0.0
C24 C 0.14495 0.79048 0.41497 0.0
C25 C 0.20383 0.78483 0.46968 0.0
C26 C 0.1717 0.81604 0.51245 0.0
C27 C 0.14281 0.8189 0.48537 0.0
C28 C 0.17674 0.75886 0.37183 0.0
C29 C 0.20583 0.75589 0.39911 0.0
C30 C 0.11253 0.79415 0.39127 0.0
C31 C 0.1813 0.77567 0.06446 0.0
H32 H 0.05817 0.81194 0.73616 0.0
H33 H 0.09627 0.76872 0.78156 0.0
H34 H 0.03502 0.84009 0.04217 0.0
H35 H 0.99733 0.88344 0.99706 0.0
H36 H 0.16891 0.83856 0.56728 0.0
H37 H 0.11841 0.84332 0.52016 0.0
H38 H 0.17898 0.73642 0.31743 0.0
H39 H 0.22946 0.73078 0.36499 0.0
Tb40 Tb 0.58432 0.25298 0.08067 0.0
Tb41 Tb 0.58672 0.26622 0.26653 0.0
C42 C 0.57226 0.16678 0.18763 0.0
C43 C 0.56472 0.2659 0.89965 0.0
C44 C 0.50628 0.29738 0.86608 0.0
C45 C 0.52479 0.25555 0.82602 0.0
C46 C 0.55386 0.23988 0.84295 0.0
C47 C 0.54934 0.30964 0.93294 0.0
C48 C 0.52074 0.32555 0.91511 0.0
C49 C 0.58673 0.24439 0.93374 0.0
O50 O 0.5179 0.27021 0.19013 0.0
O51 O 0.51509 0.258 0.32356 0.0
O52 O 0.57064 0.33409 0.24696 0.0
O53 O 0.59934 0.32806 0.09179 0.0
O54 O 0.57778 0.23788 0.38544 0.0
O55 O 0.61375 0.30713 0.33225 0.0
O56 O 0.65171 0.2854 0.14194 0.0
O57 O 0.64635 0.2316 0.04738 0.0
O58 O 0.55292 0.18808 0.15944 0.0
O59 O 0.59456 0.19202 0.21839 0.0
C60 C 0.49573 0.26483 0.28102 0.0
O61 O 0.61577 0.27257 0.94159 0.0
O62 O 0.55998 0.21706 1.0065 0.0
C63 C 0.58309 0.35284 0.16729 0.0
C64 C 0.63838 0.26366 0.40423 0.0
C65 C 0.70105 0.24897 0.44644 0.0
C66 C 0.70817 0.28895 0.39455 0.0
C67 C 0.67731 0.29618 0.37408 0.0
C68 C 0.63175 0.22343 0.45469 0.0
C69 C 0.66263 0.21613 0.47482 0.0
C70 C 0.6031 0.27351 0.39061 0.0
C71 C 0.66998 0.25583 0.07479 0.0
H72 H 0.5149 0.2337 0.78609 0.0
H73 H 0.5657 0.20615 0.81642 0.0
H74 H 0.55724 0.33009 0.97726 0.0
H75 H 0.50703 0.35795 0.94611 0.0
H76 H 0.73761 0.31474 0.36908 0.0
H77 H 0.68379 0.32777 0.33542 0.0
H78 H 0.60217 0.19776 0.48009 0.0
H79 H 0.65602 0.18476 0.51422 0.0
Tb80 Tb 0.05871 0.25684 0.79309 0.0
Tb81 Tb 0.05824 0.26852 0.98382 0.0
C82 C 0.06767 0.17292 0.89278 0.0
C83 C 1.0106 0.25528 0.64744 0.0
C84 C 0.94815 0.26556 0.6019 0.0
C85 C 0.94233 0.22593 0.65322 0.0
C86 C 0.9731 0.22086 0.67533 0.0
C87 C 1.01613 0.29487 0.59681 0.0
C88 C 0.9854 0.29999 0.57498 0.0
C89 C 0.04574 0.24847 0.66376 0.0
O90 O 0.99287 0.26719 0.908 0.0
O91 O 0.99118 0.23628 0.02706 0.0
O92 O 0.03379 0.32813 0.96932 0.0
O93 O 0.07666 0.33238 0.81284 0.0
O94 O 0.04103 0.24168 0.11004 0.0
O95 O 0.07256 0.31376 0.06536 0.0
O96 O 0.12777 0.28764 0.86472 0.0
O97 O 0.12848 0.25409 0.73946 0.0
O98 O 0.05066 0.18535 0.8488 0.0
O99 O 0.08525 0.20464 0.92398 0.0
C100 C 0.97108 0.2456 0.98845 0.0
O101 O 0.06748 0.28573 0.67482 0.0
O102 O 0.03692 0.21425 0.71935 0.0
C103 C 0.0582 0.3535 0.89348 0.0
C104 C 0.09556 0.27308 0.13874 0.0
C105 C 0.17397 0.2688 0.12901 0.0
C106 C 0.15282 0.30963 0.16117 0.0
C107 C 0.11377 0.31167 0.16618 0.0
C108 C 0.11477 0.23097 0.11379 0.0
C109 C 0.1535 0.22876 0.1099 0.0
C110 C 0.06112 0.27969 0.12372 0.0
C111 C 0.14932 0.27338 0.77791 0.0
H112 H 0.91388 0.19887 0.6774 0.0
H113 H 0.96755 0.18965 0.71396 0.0
H114 H 0.04468 0.32187 0.57289 0.0
H115 H 0.9911 0.33108 0.53586 0.0
H116 H 0.16744 0.34061 0.17864 0.0
H117 H 0.09927 0.34433 0.18618 0.0
H118 H 0.10146 0.20061 0.09231 0.0
H119 H 0.16916 0.19684 0.08559 0.0
Tb120 Tb 0.55831 0.74244 0.78647 0.0
Tb121 Tb 0.57778 0.76675 0.94692 0.0
C122 C 0.56273 0.66369 0.89916 0.0
C123 C 0.50755 0.73071 0.64417 0.0
C124 C 0.44884 0.73796 0.58984 0.0
C125 C 0.47555 0.70145 0.5576 0.0
C126 C 0.50432 0.69778 0.58463 0.0
C127 C 0.48094 0.76743 0.67717 0.0
C128 C 0.45185 0.77109 0.65021 0.0
C129 C 0.54091 0.72682 0.66515 0.0
O130 O 0.49493 0.72658 0.91664 0.0
O131 O 0.50886 0.77933 1.00376 0.0
O132 O 0.60466 0.82533 0.85185 0.0
O133 O 0.54844 0.81647 0.83311 0.0
O134 O 0.601 0.75105 0.02617 0.0
O135 O 0.57227 0.81518 0.04709 0.0
O136 O 0.64312 0.75363 0.82306 0.0
O137 O 0.63053 0.75586 0.70819 0.0
O138 O 0.57561 0.67813 0.81622 0.0
O139 O 0.5497 0.69327 0.9674 0.0
C140 C 0.48075 0.75444 0.98733 0.0
O141 O 0.56323 0.76572 0.66945 0.0
O142 O 0.53018 0.69608 0.7284 0.0
C143 C 0.57644 0.84456 0.84602 0.0
C144 C 0.63595 0.82026 0.04947 0.0
C145 C 0.71871 0.86469 1.01137 0.0
C146 C 0.68643 0.84199 0.09739 0.0
C147 C 0.64537 0.81984 0.11626 0.0
C148 C 0.66717 0.84451 0.96512 0.0
C149 C 0.70795 0.867 0.94647 0.0
C150 C 0.59545 0.79257 0.06377 0.0
C151 C 0.65741 0.75498 0.73493 0.0
H152 H 0.47422 0.67548 0.511 0.0
H153 H 0.52468 0.66936 0.55773 0.0
H154 H 0.48296 0.79346 0.72289 0.0
H155 H 0.43243 0.80019 0.6757 0.0
H156 H 0.69364 0.83974 0.14887 0.0
H157 H 0.62165 0.80112 0.18162 0.0
H158 H 0.66057 0.84485 0.91235 0.0
H159 H 0.73096 0.88491 0.88027 0.0
H160 H 0.08664 0.42823 0.84163 0.0
C161 C 0.0698 0.40494 0.90191 0.0
H162 H 0.04505 0.39832 0.0435 0.0
H163 H 0.16623 0.58701 0.03169 0.0
H164 H 0.2257 0.53774 0.95713 0.0
H165 H 0.21459 0.45808 0.90417 0.0
H166 H 0.1442 0.4274 0.92372 0.0
C167 C 0.06118 0.42198 0.98388 0.0
C168 C 0.07073 0.47258 1.0021 0.0
C169 C 0.11178 0.48994 0.99144 0.0
C170 C 0.11799 0.53577 0.02348 0.0
C171 C 0.15969 0.55244 1.0095 0.0
C172 C 0.19404 0.5245 0.96692 0.0
C173 C 0.18778 0.47961 0.93708 0.0
C174 C 0.14722 0.46236 0.94894 0.0
H175 H 0.09488 0.61067 0.20065 0.0
C176 C 0.09292 0.63327 0.15625 0.0
H177 H 0.08987 0.639 0.04063 0.0
H178 H 0.98793 0.45029 0.03471 0.0
H179 H 0.92788 0.49863 0.11232 0.0
H180 H 0.93788 0.57703 0.17076 0.0
H181 H 1.00786 0.60752 0.15238 0.0
C182 C 0.09098 0.61521 0.08477 0.0
C183 C 0.08288 0.56401 0.06758 0.0
C184 C 0.0416 0.54622 0.07945 0.0
C185 C 0.03563 0.50076 0.0465 0.0
C186 C 0.99409 0.48434 0.05917 0.0
C187 C 0.95938 0.51177 0.10334 0.0
C188 C 0.96504 0.55594 0.13607 0.0
C189 C 1.00552 0.57312 0.12455 0.0
H190 H 0.565 0.4248 0.22112 0.0
C191 C 0.57672 0.40252 0.16108 0.0
H192 H 0.59322 0.39597 0.0245 0.0
H193 H 0.49106 0.54669 1.01196 0.0
H194 H 0.43676 0.47691 0.04911 0.0
H195 H 0.44466 0.40211 0.0968 0.0
H196 H 0.50698 0.39647 0.10757 0.0
C197 C 0.5832 0.41909 0.08297 0.0
C198 C 0.57426 0.46672 0.07136 0.0
C199 C 0.53798 0.46974 0.06414 0.0
C200 C 0.53339 0.51311 0.03651 0.0
C201 C 0.49634 0.51476 0.0318 0.0
C202 C 0.46488 0.47497 0.05311 0.0
C203 C 0.46934 0.43283 0.07994 0.0
C204 C 0.50539 0.43001 0.08538 0.0
H205 H 0.57604 0.58919 0.8601 0.0
C206 C 0.5657 0.61426 0.91577 0.0
H207 H 0.54958 0.62682 0.05101 0.0
H208 H 0.64768 0.47404 0.07732 0.0
H209 H 0.70116 0.54414 0.0433 0.0
H210 H 0.69293 0.61919 0.99709 0.0
H211 H 0.63145 0.62461 0.98361 0.0
C212 C 0.55812 0.60103 0.99694 0.0
C213 C 0.56513 0.55382 0.01572 0.0
C214 C 0.60091 0.55103 0.02472 0.0
C215 C 0.60559 0.5076 0.052 0.0
C216 C 0.64236 0.50601 0.05768 0.0
C217 C 0.67332 0.54601 0.03831 0.0
C218 C 0.66867 0.58829 1.01235 0.0
C219 C 0.63307 0.59096 1.0053 0.0
H220 H 0.54026 0.90768 0.89014 0.0
C221 C 0.56754 0.89303 0.88351 0.0
H222 H 0.61763 0.90196 0.9101 0.0
H223 H 0.63607 0.11792 0.97877 0.0
H224 H 0.70235 0.11432 0.8241 0.0
H225 H 0.71363 0.04141 0.7345 0.0
H226 H 0.65827 0.97164 0.79869 0.0
C227 C 0.58992 0.91646 0.91841 0.0
C228 C 0.57976 0.96207 0.96952 0.0
C229 C 0.61263 1.00264 0.93215 0.0
C230 C 0.60632 0.04473 0.98452 0.0
C231 C 0.63924 0.08486 0.94328 0.0
C232 C 0.67751 0.08336 0.85424 0.0
C233 C 0.68387 0.04228 0.80379 0.0
C234 C 0.65191 1.00239 0.84172 0.0
H235 H 0.60091 0.0998 0.16671 0.0
C236 C 0.57714 0.11609 0.16274 0.0
H237 H 0.53234 0.10875 0.12163 0.0
H238 H 0.51168 0.89005 0.06742 0.0
H239 H 0.44557 0.89356 0.22262 0.0
H240 H 0.43413 0.96675 0.31162 0.0
H241 H 0.4892 0.03689 0.24623 0.0
C242 C 0.55674 0.09261 0.1237 0.0
C243 C 0.56728 0.04634 0.07535 0.0
C244 C 0.53461 1.00568 0.11308 0.0
C245 C 0.54095 0.9635 0.0608 0.0
C246 C 0.50832 0.92323 0.10259 0.0
C247 C 0.47021 0.92469 0.19197 0.0
C248 C 0.46375 0.9659 0.24212 0.0
C249 C 0.49549 1.00597 0.20361 0.0
H250 H 0.07173 0.94165 0.22611 0.0
C251 C 0.08255 0.91858 0.16738 0.0
H252 H 0.09605 0.90915 0.03327 0.0
H253 H 0.98994 0.06489 0.04287 0.0
H254 H 0.92754 1.00188 0.11787 0.0
H255 H 0.93461 0.92822 0.17024 0.0
H256 H 1.00369 0.91759 0.15161 0.0
C257 C 0.08685 0.93314 0.09029 0.0
C258 C 0.07961 0.98079 0.07534 0.0
C259 C 0.03966 0.98626 0.0838 0.0
C260 C 0.03592 0.02859 0.05145 0.0
C261 C 0.99491 0.03337 0.06455 0.0
C262 C 0.95884 0.99746 0.10738 0.0
C263 C 0.96274 0.956 0.13733 0.0
C264 C 1.00261 0.95025 0.12579 0.0
H265 H 0.06191 0.09447 0.87339 0.0
C266 C 0.06522 0.12258 0.91471 0.0
H267 H 0.07014 0.1414 0.02738 0.0
H268 H 0.15992 0.98315 0.05235 0.0
H269 H 0.22098 0.04774 0.98638 0.0
H270 H 0.21483 0.12096 0.93073 0.0
H271 H 0.14827 0.12969 0.93798 0.0
C272 C 0.06771 0.11261 0.98615 0.0
C273 C 0.07248 0.06544 1.00934 0.0
C274 C 0.11198 0.06046 1.00364 0.0
C275 C 0.11553 1.01824 0.03635 0.0
C276 C 0.15552 1.01436 0.02862 0.0
C277 C 0.19079 0.0512 0.99105 0.0
C278 C 0.18735 0.09242 0.95959 0.0
C279 C 0.14871 0.09707 0.96494 0.0
H280 H 0.42709 0.72041 0.49507 0.0
C281 C 0.41951 0.74025 0.55642 0.0
H282 H 0.37414 0.78302 0.6608 0.0
H283 H 0.30244 0.85317 0.4424 0.0
H284 H 0.34685 0.92455 0.4433 0.0
H285 H 0.39516 0.92304 0.49887 0.0
H286 H 0.39932 0.84997 0.55391 0.0
C287 C 0.38316 0.76288 0.59922 0.0
C288 C 0.35481 0.76278 0.5623 0.0
C289 C 0.35205 0.80584 0.53142 0.0
C290 C 0.32432 0.80664 0.49854 0.0
C291 C 0.32294 0.85024 0.46744 0.0
C292 C 0.34826 0.89162 0.46777 0.0
C293 C 0.37542 0.89078 0.49916 0.0
C294 C 0.37737 0.84857 0.53082 0.0
H295 H 0.22415 0.80117 0.56715 0.0
C296 C 0.23351 0.78358 0.50274 0.0
H297 H 0.28257 0.74585 0.39305 0.0
H298 H 0.34895 0.67431 0.62237 0.0
H299 H 0.30623 0.60263 0.61706 0.0
H300 H 0.26042 0.60367 0.55532 0.0
H301 H 0.25667 0.6767 0.49953 0.0
C302 C 0.27167 0.76399 0.45738 0.0
C303 C 0.29946 0.7642 0.49559 0.0
C304 C 0.30241 0.72111 0.52595 0.0
C305 C 0.32953 0.72042 0.56031 0.0
C306 C 0.32995 0.67699 0.59366 0.0
C307 C 0.30535 0.63547 0.59142 0.0
C308 C 0.27953 0.63605 0.55672 0.0
C309 C 0.27782 0.67824 0.5246 0.0
H310 H 0.21463 0.29417 0.75924 0.0
C311 C 0.19909 0.27867 0.72424 0.0
H312 H 0.21074 0.2494 0.59969 0.0
H313 H 0.41361 0.34269 0.3477 0.0
H314 H 0.37918 0.39036 0.30339 0.0
H315 H 0.2973 0.38252 0.38666 0.0
H316 H 0.2493 0.32721 0.51579 0.0
C317 C 0.2255 0.26383 0.63674 0.0
C318 C 0.27558 0.268 0.58593 0.0
C319 C 0.30361 0.29916 0.50814 0.0
C320 C 0.35116 0.30241 0.45763 0.0
C321 C 0.37766 0.33659 0.38506 0.0
C322 C 0.35826 0.3648 0.35968 0.0
C323 C 0.31216 0.36047 0.40673 0.0
C324 C 0.285 0.32838 0.48047 0.0
H325 H 0.43068 0.25996 0.29845 0.0
C326 C 0.44656 0.26567 0.33572 0.0
H327 H 0.437 0.27966 0.46472 0.0
H328 H 0.23272 0.20329 0.7289 0.0
H329 H 0.26703 0.1552 0.77283 0.0
H330 H 0.34883 0.15945 0.68426 0.0
H331 H 0.39691 0.21164 0.55076 0.0
C332 C 0.42121 0.27399 0.42731 0.0
C333 C 0.37111 0.27269 0.4818 0.0
C334 C 0.34299 0.24185 0.56031 0.0
C335 C 0.29547 0.23954 0.61216 0.0
C336 C 0.26877 0.20747 0.6884 0.0
C337 C 0.28802 0.17933 0.71417 0.0
C338 C 0.33409 0.18166 0.66417 0.0
C339 C 0.36135 0.21207 0.58772 0.0
H340 H 0.91881 0.30888 0.55406 0.0
C341 C 0.9162 0.27342 0.57671 0.0
H342 H 0.88223 0.20394 0.59882 0.0
H343 H 0.70661 0.24473 0.64588 0.0
H344 H 0.67881 0.21763 0.79948 0.0
H345 H 0.73041 0.2057 0.84154 0.0
H346 H 0.81049 0.22052 0.72999 0.0
C347 C 0.88587 0.23971 0.57646 0.0
C348 C 0.85466 0.2493 0.54992 0.0
C349 C 0.80756 0.24026 0.61528 0.0
C350 C 0.77742 0.24683 0.59054 0.0
C351 C 0.73095 0.23907 0.65929 0.0
C352 C 0.71446 0.22397 0.74835 0.0
C353 C 0.74356 0.21723 0.77204 0.0
C354 C 0.7895 0.22554 0.70695 0.0
H355 H 0.7299 0.20357 0.49222 0.0
C356 C 0.73274 0.23949 0.4712 0.0
H357 H 0.7665 0.30878 0.45307 0.0
H358 H 0.94199 0.26536 0.40268 0.0
H359 H 0.96968 0.29218 0.249 0.0
H360 H 0.91809 0.30473 0.20729 0.0
H361 H 0.83803 0.29053 0.31939 0.0
C362 C 0.76288 0.27258 0.47344 0.0
C363 C 0.79398 0.26193 0.49943 0.0
C364 C 0.84105 0.27073 0.43395 0.0
C365 C 0.87119 0.26405 0.4586 0.0
C366 C 0.91763 0.27134 0.38952 0.0
C367 C 0.93408 0.28625 0.30038 0.0
C368 C 0.90498 0.29334 0.2769 0.0
C369 C 0.85906 0.28538 0.34226 0.0
H370 H 0.94644 0.76503 0.43672 0.0
C371 C 0.95727 0.77298 0.36652 0.0
H372 H 0.93484 0.78606 0.28348 0.0
H373 H 0.74158 0.67742 0.59202 0.0
H374 H 0.76898 0.61896 0.47217 0.0
H375 H 0.84595 0.63147 0.33266 0.0
H376 H 0.89619 0.70244 0.31263 0.0
C377 C 0.92593 0.77985 0.35278 0.0
C378 C 0.87766 0.77517 0.43282 0.0
C379 C 0.84794 0.73446 0.44234 0.0
C380 C 0.80296 0.7279 0.52191 0.0
C381 C 0.77527 0.68533 0.53155 0.0
C382 C 0.79074 0.65118 0.46362 0.0
C383 C 0.83411 0.65817 0.38517 0.0
C384 C 0.86258 0.69911 0.3745 0.0
H385 H 0.71448 0.75873 0.5893 0.0
C386 C 0.70564 0.7571 0.65969 0.0
H387 H 0.73115 0.75832 0.74162 0.0
H388 H 0.92466 0.85822 0.43544 0.0
H389 H 0.89734 0.91714 0.55465 0.0
H390 H 0.81936 0.90681 0.69031 0.0
H391 H 0.76832 0.83691 0.7094 0.0
C392 C 0.73878 0.75803 0.67207 0.0
C393 C 0.78692 0.763 0.5909 0.0
C394 C 0.81675 0.80371 0.58137 0.0
C395 C 0.86193 0.80982 0.50249 0.0
C396 C 0.8904 0.85134 0.49443 0.0
C397 C 0.87508 0.88561 0.5621 0.0
C398 C 0.83116 0.87973 0.63866 0.0
C399 C 0.80219 0.8394 0.64861 0.0
H400 H 0.43132 0.80415 0.04371 0.0
C401 C 0.43547 0.76709 0.03 0.0
H402 H 0.40864 0.69905 0.0192 0.0
H403 H 0.24336 0.83345 0.17511 0.0
H404 H 0.25419 0.86013 0.29498 0.0
H405 H 0.3134 0.83405 0.30126 0.0
H406 H 0.36173 0.78085 0.18845 0.0
C407 C 0.4033 0.73586 0.0324 0.0
C408 C 0.36543 0.75027 0.03286 0.0
C409 C 0.33523 0.779 0.10317 0.0
C410 C 0.30049 0.79335 0.09993 0.0
C411 C 0.27115 0.82229 0.17142 0.0
C412 C 0.27664 0.83763 0.24172 0.0
C413 C 0.30985 0.82286 0.24554 0.0
C414 C 0.33807 0.79296 0.17886 0.0
H415 H 0.22939 0.72473 1.01488 0.0
C416 C 0.22555 0.76187 0.02814 0.0
H417 H 0.25231 0.82965 0.04037 0.0
H418 H 0.41669 0.69425 0.88585 0.0
H419 H 0.40595 0.66781 0.76587 0.0
H420 H 0.34763 0.69497 0.75791 0.0
H421 H 0.29936 0.74829 0.87081 0.0
C422 C 0.25737 0.79275 0.02765 0.0
C423 C 0.29502 0.77803 0.02753 0.0
C424 C 0.3253 0.7494 0.95704 0.0
C425 C 0.35991 0.73486 0.96053 0.0
C426 C 0.3891 0.70574 0.88924 0.0
C427 C 0.38371 0.69057 0.81875 0.0
C428 C 0.35089 0.70585 0.8142 0.0
C429 C 0.32273 0.73581 0.88085 0.0
H430 H 0.2291 0.23524 0.10927 0.0
C431 C 0.21946 0.26862 0.10526 0.0
H432 H 0.24307 0.3385 0.05059 0.0
H433 H 0.40927 0.27677 0.05759 0.0
H434 H 0.36064 0.28362 0.22405 0.0
H435 H 0.28313 0.29935 0.29867 0.0
H436 H 0.25396 0.30856 0.20705 0.0
C437 C 0.25096 0.30617 0.06375 0.0
C438 C 0.29852 0.30136 0.01902 0.0
C439 C 0.31518 0.29717 0.07355 0.0
C440 C 0.35991 0.28873 0.03038 0.0
C441 C 0.37563 0.28369 0.08653 0.0
C442 C 0.34806 0.28751 0.18228 0.0
C443 C 0.30444 0.29636 0.2243 0.0
C444 C 0.28803 0.30129 0.17093 0.0
H445 H 0.46061 0.3451 0.8812 0.0
C446 C 0.46688 0.30851 0.87156 0.0
H447 H 0.43739 0.23723 0.88825 0.0
H448 H 0.27681 0.30883 0.89454 0.0
H449 H 0.32595 0.30359 0.72775 0.0
H450 H 0.40416 0.29032 0.65271 0.0
H451 H 0.43356 0.28182 0.74445 0.0
C452 C 0.43366 0.2742 0.88906 0.0
C453 C 0.38786 0.28533 0.93275 0.0
C454 C 0.37159 0.29077 0.87807 0.0
C455 C 0.32672 0.29882 0.92131 0.0
C456 C 0.31081 0.30312 0.86531 0.0
C457 C 0.33864 0.30009 0.76945 0.0
C458 C 0.38266 0.29257 0.72721 0.0
C459 C 0.39911 0.28781 0.78057 0.0
H460 H 0.73164 0.22315 0.98063 0.0
C461 C 0.71497 0.24555 0.04015 0.0
H462 H 0.7165 0.28153 0.14805 0.0
H463 H 0.85266 0.16735 0.13603 0.0
H464 H 0.78358 0.13363 0.27481 0.0
H465 H 0.71104 0.15219 0.31603 0.0
H466 H 0.70709 0.20464 0.21885 0.0
C467 C 0.73408 0.26132 0.08539 0.0
C468 C 0.77769 0.24895 0.05801 0.0
C469 C 0.77939 0.2191 0.11687 0.0
C470 C 0.82124 0.20901 0.094 0.0
C471 C 0.82189 0.17741 0.15167 0.0
C472 C 0.78245 0.15752 0.23122 0.0
C473 C 0.74159 0.16798 0.25445 0.0
C474 C 0.73983 0.19823 0.1981 0.0
H475 H 0.9013 0.24721 0.10773 0.0
C476 C 0.92241 0.23564 0.03713 0.0
H477 H 0.92791 0.20902 0.91702 0.0
H478 H 0.78598 0.30945 0.93267 0.0
H479 H 0.85492 0.34642 0.79853 0.0
H480 H 0.92761 0.33257 0.76334 0.0
H481 H 0.9319 0.28003 0.85904 0.0
C482 C 0.90554 0.22037 0.98753 0.0
C483 C 0.86122 0.23011 1.01392 0.0
C484 C 0.85947 0.26079 0.95602 0.0
C485 C 0.81761 0.26979 0.97759 0.0
C486 C 0.81681 0.30092 0.91926 0.0
C487 C 0.85618 0.32269 0.84217 0.0
C488 C 0.8971 0.31472 0.82209 0.0
C489 C 0.89899 0.2842 0.87781 0.0
H490 H 1.00832 0.87405 0.76922 0.0
C491 C 0.99585 0.86961 0.84151 0.0
H492 H 0.93929 0.86826 0.97954 0.0
H493 H 0.81272 0.97702 0.95819 0.0
H494 H 0.84236 0.03903 0.01874 0.0
H495 H 0.90895 0.03115 0.01659 0.0
H496 H 0.94584 0.96067 0.95595 0.0
C497 C 0.95293 0.87402 0.90706 0.0
C498 C 0.92097 0.88396 0.88576 0.0
C499 C 0.90024 0.92544 0.92052 0.0
C500 C 0.8622 0.93031 0.92086 0.0
C501 C 0.84153 0.97161 0.95733 0.0
C502 C 0.85832 1.00745 0.99175 0.0
C503 C 0.89579 1.00293 0.99075 0.0
C504 C 0.91654 0.96237 0.95604 0.0
H505 H 0.76882 0.87899 0.04524 0.0
C506 C 0.76404 0.8815 0.9899 0.0
H507 H 0.79829 0.89387 0.84552 0.0
H508 H 0.95374 0.80004 0.80868 0.0
H509 H 0.9285 0.74309 0.73452 0.0
H510 H 0.86576 0.75489 0.72559 0.0
H511 H 0.82736 0.82343 0.79303 0.0
C512 C 0.80046 0.89295 0.90428 0.0
C513 C 0.84548 0.89401 0.88526 0.0
C514 C 0.86919 0.85519 0.84073 0.0
C515 C 0.90636 0.84936 0.84304 0.0
C516 C 0.92666 0.80776 0.80579 0.0
C517 C 0.91222 0.77436 0.76345 0.0
C518 C 0.87684 0.78092 0.75862 0.0
C519 C 0.85514 0.82051 0.79755 0.0
loop_
_geom_bond_atom_site_label_1
_geom_bond_atom_site_label_2
_geom_bond_distance
_geom_bond_site_symmetry_2
_ccdc_geom_bond_type
Tb0 C9 2.774 . S
Tb0 O10 2.325 1_455 S
Tb0 O13 2.303 . S
Tb0 O17 2.322 . S
Tb0 O18 2.349 . S
Tb0 O21 2.415 . S
Tb0 O22 2.399 . S
Tb1 O11 2.322 1_455 S
Tb1 O12 2.349 . S
Tb1 O14 2.415 . S
Tb1 O15 2.399 . S
Tb1 O16 2.325 . S
Tb1 O19 2.303 . S
Tb1 C30 2.764 . S
C2 O18 1.261 . S
C2 O19 1.257 . S
C3 C6 1.358 . S
C3 C7 1.332 1_556 S
C3 C9 1.494 1_656 S
C4 C5 1.373 . S
C4 C8 1.308 . S
C5 C4 1.373 . S
C5 C6 1.429 . S
C5 H32 0.932 . S
C6 C3 1.358 . S
C6 C5 1.429 . S
C6 H33 0.930 . S
C7 C3 1.332 1_554 S
C7 C8 1.394 1_554 S
C7 H34 0.932 . S
C8 C4 1.308 . S
C8 C7 1.394 1_556 S
C8 H35 0.929 . S
C9 Tb0 2.774 . S
C9 C3 1.494 1_454 S
C9 O21 1.244 . S
C9 O22 1.268 . S
O10 Tb0 2.325 1_655 S
O10 C20 1.236 . S
O11 Tb1 2.322 1_655 S
O11 C20 1.257 . S
O12 Tb1 2.349 . S
O12 C23 1.261 . S
O13 Tb0 2.303 . S
O13 C23 1.257 . S
O14 Tb1 2.415 . S
O14 C30 1.239 . S
O15 Tb1 2.399 . S
O15 C30 1.263 . S
O16 Tb1 2.325 . S
O16 C31 1.236 . S
O17 Tb0 2.322 . S
O17 C31 1.257 . S
O18 Tb0 2.349 . S
O18 C2 1.261 . S
O19 Tb1 2.303 . S
O19 C2 1.257 . S
C20 O10 1.236 . S
C20 O11 1.257 . S
O21 Tb0 2.415 . S
O21 C9 1.244 . S
O22 Tb0 2.399 . S
O22 C9 1.268 . S
C23 O12 1.261 . S
C23 O13 1.257 . S
C24 C27 1.358 . S
C24 C28 1.332 . S
C24 C30 1.504 . S
C25 C26 1.373 . S
C25 C29 1.308 . S
C26 C25 1.373 . S
C26 C27 1.429 . S
C26 H36 0.932 . S
C27 C24 1.358 . S
C27 C26 1.429 . S
C27 H37 0.930 . S
C28 C24 1.332 . S
C28 C29 1.394 . S
C28 H38 0.932 . S
C29 C25 1.308 . S
C29 C28 1.394 . S
C29 H39 0.929 . S
C30 Tb1 2.764 . S
C30 O14 1.239 . S
C30 O15 1.263 . S
C30 C24 1.504 . S
C31 O16 1.236 . S
C31 O17 1.257 . S
H32 C5 0.932 . S
H33 C6 0.930 . S
H34 C7 0.932 . S
H35 C8 0.929 . S
H36 C26 0.932 . S
H37 C27 0.930 . S
H38 C28 0.932 . S
H39 C29 0.929 . S
Tb40 C49 2.764 . S
Tb40 O50 2.325 . S
Tb40 O53 2.303 . S
Tb40 O57 2.322 . S
Tb40 O58 2.349 . S
Tb40 O61 2.415 . S
Tb40 O62 2.399 . S
Tb41 O51 2.322 . S
Tb41 O52 2.349 . S
Tb41 O54 2.415 . S
Tb41 O55 2.399 . S
Tb41 O56 2.325 . S
Tb41 O59 2.303 . S
Tb41 C70 2.764 . S
C42 O58 1.261 . S
C42 O59 1.257 . S
C43 C46 1.358 . S
C43 C47 1.332 1_556 S
C43 C49 1.504 1_556 S
C44 C45 1.373 . S
C44 C48 1.308 . S
C45 C44 1.373 . S
C45 C46 1.429 . S
C45 H72 0.932 . S
C46 C43 1.358 . S
C46 C45 1.429 . S
C46 H73 0.930 . S
C47 C43 1.332 1_554 S
C47 C48 1.394 1_554 S
C47 H74 0.932 . S
C48 C44 1.308 . S
C48 C47 1.394 1_556 S
C48 H75 0.929 . S
C49 Tb40 2.764 . S
C49 C43 1.504 1_554 S
C49 O61 1.239 . S
C49 O62 1.263 . S
O50 Tb40 2.325 . S
O50 C60 1.236 . S
O51 Tb41 2.322 . S
O51 C60 1.257 . S
O52 Tb41 2.349 . S
O52 C63 1.261 . S
O53 Tb40 2.303 . S
O53 C63 1.257 . S
O54 Tb41 2.415 . S
O54 C70 1.239 . S
O55 Tb41 2.399 . S
O55 C70 1.263 . S
O56 Tb41 2.325 . S
O56 C71 1.236 . S
O57 Tb40 2.322 . S
O57 C71 1.257 . S
O58 Tb40 2.349 . S
O58 C42 1.261 . S
O59 Tb41 2.303 . S
O59 C42 1.257 . S
C60 O50 1.236 . S
C60 O51 1.257 . S
O61 Tb40 2.415 . S
O61 C49 1.239 . S
O62 Tb40 2.399 . S
O62 C49 1.263 . S
C63 O52 1.261 . S
C63 O53 1.257 . S
C64 C67 1.358 . S
C64 C68 1.332 . S
C64 C70 1.504 . S
C65 C66 1.373 . S
C65 C69 1.308 . S
C66 C65 1.373 . S
C66 C67 1.429 . S
C66 H76 0.932 . S
C67 C64 1.358 . S
C67 C66 1.429 . S
C67 H77 0.930 . S
C68 C64 1.332 . S
C68 C69 1.394 . S
C68 H78 0.932 . S
C69 C65 1.308 . S
C69 C68 1.394 . S
C69 H79 0.929 . S
C70 Tb41 2.764 . S
C70 O54 1.239 . S
C70 O55 1.263 . S
C70 C64 1.504 . S
C71 O56 1.236 . S
C71 O57 1.257 . S
H72 C45 0.932 . S
H73 C46 0.930 . S
H74 C47 0.932 . S
H75 C48 0.929 . S
H76 C66 0.932 . S
H77 C67 0.930 . S
H78 C68 0.932 . S
H79 C69 0.929 . S
Tb80 C89 2.764 1_455 S
Tb80 O90 2.325 1_455 S
Tb80 O93 2.303 . S
Tb80 O97 2.322 . S
Tb80 O98 2.349 . S
Tb80 O101 2.415 . S
Tb80 O102 2.426 . S
Tb81 O91 2.322 1_455 S
Tb81 O92 2.349 . S
Tb81 O94 2.415 . S
Tb81 O95 2.399 . S
Tb81 O96 2.325 . S
Tb81 O99 2.303 . S
Tb81 C110 2.764 . S
C82 O98 1.261 . S
C82 O99 1.257 . S
C83 C86 1.358 . S
C83 C87 1.332 . S
C83 C89 1.504 . S
C84 C85 1.373 . S
C84 C88 1.308 . S
C85 C84 1.373 . S
C85 C86 1.429 . S
C85 H112 0.932 . S
C86 C83 1.358 . S
C86 C85 1.429 . S
C86 H113 0.930 . S
C87 C83 1.332 . S
C87 C88 1.394 . S
C87 H114 0.932 . S
C88 C84 1.308 . S
C88 C87 1.394 . S
C88 H115 0.929 . S
C89 Tb80 2.764 1_655 S
C89 C83 1.504 . S
C89 O101 1.239 1_655 S
C89 O102 1.248 1_655 S
O90 Tb80 2.325 1_655 S
O90 C100 1.236 . S
O91 Tb81 2.322 1_655 S
O91 C100 1.257 . S
O92 Tb81 2.349 . S
O92 C103 1.261 . S
O93 Tb80 2.303 . S
O93 C103 1.257 . S
O94 Tb81 2.415 . S
O94 C110 1.239 . S
O95 Tb81 2.399 . S
O95 C110 1.263 . S
O96 Tb81 2.325 . S
O96 C111 1.236 . S
O97 Tb80 2.322 . S
O97 C111 1.257 . S
O98 Tb80 2.349 . S
O98 C82 1.261 . S
O99 Tb81 2.303 . S
O99 C82 1.257 . S
C100 O90 1.236 . S
C100 O91 1.257 . S
O101 Tb80 2.415 . S
O101 C89 1.239 1_455 S
O102 Tb80 2.426 . S
O102 C89 1.248 1_455 S
C103 O92 1.261 . S
C103 O93 1.257 . S
C104 C107 1.358 . S
C104 C108 1.332 1_554 S
C104 C110 1.504 1_554 S
C105 C106 1.373 . S
C105 C109 1.308 . S
C106 C105 1.373 . S
C106 C107 1.429 . S
C106 H116 0.932 . S
C107 C104 1.358 . S
C107 C106 1.429 . S
C107 H117 0.930 . S
C108 C104 1.332 1_556 S
C108 C109 1.394 1_556 S
C108 H118 0.932 . S
C109 C105 1.308 . S
C109 C108 1.394 1_554 S
C109 H119 0.929 . S
C110 Tb81 2.764 . S
C110 O94 1.239 . S
C110 O95 1.263 . S
C110 C104 1.504 1_556 S
C111 O96 1.236 . S
C111 O97 1.257 . S
H112 C85 0.932 . S
H113 C86 0.930 . S
H114 C87 0.932 . S
H115 C88 0.929 . S
H116 C106 0.932 . S
H117 C107 0.930 . S
H118 C108 0.932 . S
H119 C109 0.929 . S
Tb120 C129 2.764 . S
Tb120 O130 2.325 . S
Tb120 O133 2.303 . S
Tb120 O137 2.322 . S
Tb120 O138 2.349 . S
Tb120 O141 2.415 . S
Tb120 O142 2.399 . S
Tb121 O131 2.322 . S
Tb121 O132 2.349 . S
Tb121 O134 2.415 . S
Tb121 O135 2.399 . S
Tb121 O136 2.325 . S
Tb121 O139 2.303 . S
Tb121 C150 2.764 . S
C122 O138 1.261 . S
C122 O139 1.257 . S
C123 C126 1.358 . S
C123 C127 1.332 . S
C123 C129 1.504 . S
C124 C125 1.373 . S
C124 C128 1.308 . S
C125 C124 1.373 . S
C125 C126 1.429 . S
C125 H152 0.932 . S
C126 C123 1.358 . S
C126 C125 1.429 . S
C126 H153 0.930 . S
C127 C123 1.332 . S
C127 C128 1.394 . S
C127 H154 0.932 . S
C128 C124 1.308 . S
C128 C127 1.394 . S
C128 H155 0.929 . S
C129 Tb120 2.764 . S
C129 C123 1.504 . S
C129 O141 1.239 . S
C129 O142 1.263 . S
O130 Tb120 2.325 . S
O130 C140 1.236 . S
O131 Tb121 2.322 . S
O131 C140 1.257 . S
O132 Tb121 2.349 . S
O132 C143 1.261 . S
O133 Tb120 2.303 . S
O133 C143 1.257 . S
O134 Tb121 2.415 . S
O134 C150 1.239 . S
O135 Tb121 2.399 . S
O135 C150 1.263 . S
O136 Tb121 2.325 . S
O136 C151 1.236 . S
O137 Tb120 2.322 . S
O137 C151 1.257 . S
O138 Tb120 2.349 . S
O138 C122 1.261 . S
O139 Tb121 2.303 . S
O139 C122 1.257 . S
C140 O130 1.236 . S
C140 O131 1.257 . S
O141 Tb120 2.415 . S
O141 C129 1.239 . S
O142 Tb120 2.399 . S
O142 C129 1.263 . S
C143 O132 1.261 . S
C143 O133 1.257 . S
C144 C147 1.358 . S
C144 C148 1.332 1_554 S
C144 C150 1.504 1_554 S
C145 C146 1.373 . S
C145 C149 1.308 . S
C146 C145 1.373 . S
C146 C147 1.429 . S
C146 H156 0.932 . S
C147 C144 1.358 . S
C147 C146 1.429 . S
C147 H157 0.930 . S
C148 C144 1.332 1_556 S
C148 C149 1.394 1_556 S
C148 H158 0.932 . S
C149 C145 1.308 . S
C149 C148 1.394 1_554 S
C149 H159 0.929 . S
C150 Tb121 2.764 . S
C150 O134 1.239 . S
C150 O135 1.263 . S
C150 C144 1.504 1_556 S
C151 O136 1.236 . S
C151 O137 1.257 . S
H152 C125 0.932 . S
H153 C126 0.930 . S
H154 C127 0.932 . S
H155 C128 0.929 . S
H156 C146 0.932 . S
H157 C147 0.930 . S
H158 C148 0.932 . S
H159 C149 0.929 . S
H160 C161 0.951 . S
C161 H160 0.951 . S
C161 C167 1.265 . S
H162 C167 0.950 . S
H163 C171 0.949 . S
H164 C172 0.950 . S
H165 C173 0.951 . S
H166 C174 0.951 . S
C167 C161 1.265 . S
C167 H162 0.950 . S
C167 C168 1.478 . S
C168 C167 1.478 . S
C168 C169 1.397 1_556 S
C168 C185 1.394 . S
C169 C168 1.397 1_554 S
C169 C170 1.438 . S
C169 C174 1.429 1_455 S
C170 C169 1.438 . S
C170 C171 1.428 1_455 S
C170 C183 1.394 . S
C171 H163 0.949 . S
C171 C170 1.428 1_655 S
C171 C172 1.345 . S
C172 H164 0.950 . S
C172 C171 1.345 . S
C172 C173 1.424 . S
C173 H165 0.951 . S
C173 C172 1.424 . S
C173 C174 1.347 . S
C174 H166 0.951 . S
C174 C169 1.429 1_655 S
C174 C173 1.347 . S
H175 C176 0.951 . S
C176 H175 0.951 . S
C176 C182 1.265 . S
H177 C182 0.950 . S
H178 C186 0.949 . S
H179 C187 0.950 . S
H180 C188 0.951 . S
H181 C189 0.951 . S
C182 C176 1.265 . S
C182 H177 0.950 . S
C182 C183 1.478 . S
C183 C170 1.394 . S
C183 C182 1.478 . S
C183 C184 1.397 1_554 S
C184 C183 1.397 1_556 S
C184 C185 1.438 . S
C184 C189 1.429 . S
C185 C168 1.394 . S
C185 C184 1.438 . S
C185 C186 1.428 . S
C186 H178 0.949 . S
C186 C185 1.428 . S
C186 C187 1.345 . S
C187 H179 0.950 . S
C187 C186 1.345 . S
C187 C188 1.424 . S
C188 H180 0.951 . S
C188 C187 1.424 . S
C188 C189 1.347 . S
C189 H181 0.951 . S
C189 C184 1.429 . S
C189 C188 1.347 . S
H190 C191 0.951 . S
C191 H190 0.951 . S
C191 C197 1.265 . S
H192 C197 0.950 . S
H193 C201 0.949 . S
H194 C202 0.950 . S
H195 C203 0.951 . S
H196 C204 0.951 . S
C197 C191 1.265 . S
C197 H192 0.950 . S
C197 C198 1.478 . S
C198 C197 1.478 . S
C198 C199 1.397 . S
C198 C215 1.394 . S
C199 C198 1.397 . S
C199 C200 1.438 1_554 S
C199 C204 1.429 . S
C200 C199 1.438 1_556 S
C200 C201 1.428 . S
C200 C213 1.394 . S
C201 H193 0.949 . S
C201 C200 1.428 . S
C201 C202 1.345 . S
C202 H194 0.950 . S
C202 C201 1.345 . S
C202 C203 1.424 . S
C203 H195 0.951 . S
C203 C202 1.424 . S
C203 C204 1.347 1_556 S
C204 H196 0.951 . S
C204 C199 1.429 . S
C204 C203 1.347 1_554 S
H205 C206 0.951 . S
C206 H205 0.951 . S
C206 C212 1.265 . S
H207 C212 0.950 . S
H208 C216 0.949 . S
H209 C217 0.950 . S
H210 C218 0.951 . S
H211 C219 0.951 . S
C212 C206 1.265 . S
C212 H207 0.950 . S
C212 C213 1.478 . S
C213 C200 1.394 . S
C213 C212 1.478 . S
C213 C214 1.397 . S
C214 C213 1.397 . S
C214 C215 1.438 1_556 S
C214 C219 1.429 . S
C215 C198 1.394 . S
C215 C214 1.438 1_554 S
C215 C216 1.428 . S
C216 H208 0.949 . S
C216 C215 1.428 . S
C216 C217 1.345 . S
C217 H209 0.950 . S
C217 C216 1.345 . S
C217 C218 1.424 . S
C218 H210 0.951 . S
C218 C217 1.424 . S
C218 C219 1.347 1_554 S
C219 H211 0.951 . S
C219 C214 1.429 . S
C219 C218 1.347 1_556 S
H220 C221 0.951 . S
C221 H220 0.951 . S
C221 C227 1.265 . S
H222 C227 0.950 . S
H223 C231 0.949 . S
H224 C232 0.950 . S
H225 C233 0.951 . S
H226 C234 0.951 . S
C227 C221 1.265 . S
C227 H222 0.950 . S
C227 C228 1.478 . S
C228 C227 1.478 . S
C228 C229 1.397 1_556 S
C228 C245 1.394 . S
C229 C228 1.397 1_554 S
C229 C230 1.438 1_565 S
C229 C234 1.429 . S
C230 C229 1.438 1_545 S
C230 C231 1.428 . S
C230 C243 1.394 . S
C231 H223 0.949 . S
C231 C230 1.428 . S
C231 C232 1.345 1_545 S
C232 H224 0.950 . S
C232 C231 1.345 1_565 S
C232 C233 1.424 . S
C233 H225 0.951 . S
C233 C232 1.424 . S
C233 C234 1.347 . S
C234 H226 0.951 . S
C234 C229 1.429 . S
C234 C233 1.347 . S
H235 C236 0.951 . S
C236 H235 0.951 . S
C236 C242 1.265 . S
H237 C242 0.950 . S
H238 C246 0.949 . S
H239 C247 0.950 . S
H240 C248 0.951 . S
H241 C249 0.951 . S
C242 C236 1.265 . S
C242 H237 0.950 . S
C242 C243 1.478 . S
C243 C230 1.394 . S
C243 C242 1.478 . S
C243 C244 1.397 1_554 S
C244 C243 1.397 1_556 S
C244 C245 1.438 1_545 S
C244 C249 1.429 . S
C245 C228 1.394 . S
C245 C244 1.438 1_565 S
C245 C246 1.428 . S
C246 H238 0.949 . S
C246 C245 1.428 . S
C246 C247 1.345 1_565 S
C247 H239 0.950 . S
C247 C246 1.345 1_545 S
C247 C248 1.424 . S
C248 H240 0.951 . S
C248 C247 1.424 . S
C248 C249 1.347 . S
C249 H241 0.951 . S
C249 C244 1.429 . S
C249 C248 1.347 . S
H250 C251 0.951 . S
C251 H250 0.951 . S
C251 C257 1.265 . S
H252 C257 0.950 . S
H253 C261 0.949 . S
H254 C262 0.950 . S
H255 C263 0.951 . S
H256 C264 0.951 . S
C257 C251 1.265 . S
C257 H252 0.950 . S
C257 C258 1.478 . S
C258 C257 1.478 . S
C258 C259 1.397 1_565 S
C258 C275 1.394 1_554 S
C259 C258 1.397 1_545 S
C259 C260 1.438 . S
C259 C264 1.429 . S
C260 C259 1.438 . S
C260 C261 1.428 . S
C260 C273 1.394 1_554 S
C261 H253 0.949 . S
C261 C260 1.428 . S
C261 C262 1.345 . S
C262 H254 0.950 . S
C262 C261 1.345 . S
C262 C263 1.424 . S
C263 H255 0.951 . S
C263 C262 1.424 . S
C263 C264 1.347 . S
C264 H256 0.951 . S
C264 C259 1.429 . S
C264 C263 1.347 . S
H265 C266 0.951 . S
C266 H265 0.951 . S
C266 C272 1.265 . S
H267 C272 0.950 . S
H268 C276 0.949 . S
H269 C277 0.950 . S
H270 C278 0.951 . S
H271 C279 0.951 . S
C272 C266 1.265 . S
C272 H267 0.950 . S
C272 C273 1.478 . S
C273 C260 1.394 1_556 S
C273 C272 1.478 . S
C273 C274 1.397 1_545 S
C274 C273 1.397 1_565 S
C274 C275 1.438 . S
C274 C279 1.429 . S
C275 C258 1.394 1_556 S
C275 C274 1.438 . S
C275 C276 1.428 . S
C276 H268 0.949 . S
C276 C275 1.428 . S
C276 C277 1.345 . S
C277 H269 0.950 . S
C277 C276 1.345 . S
C277 C278 1.424 . S
C278 H270 0.951 . S
C278 C277 1.424 . S
C278 C279 1.347 . S
C279 H271 0.951 . S
C279 C274 1.429 . S
C279 C278 1.347 . S
H280 C281 0.951 . S
C281 H280 0.951 . S
C281 C287 1.265 . S
H282 C287 0.950 . S
H283 C291 0.949 . S
H284 C292 0.950 . S
H285 C293 0.951 . S
H286 C294 0.951 . S
C287 C281 1.265 . S
C287 H282 0.950 . S
C287 C288 1.478 . S
C288 C287 1.478 . S
C288 C289 1.397 . S
C288 C305 1.394 . S
C289 C288 1.397 . S
C289 C290 1.438 . S
C289 C294 1.429 . S
C290 C289 1.438 . S
C290 C291 1.428 . S
C290 C303 1.394 . S
C291 H283 0.949 . S
C291 C290 1.428 . S
C291 C292 1.345 . S
C292 H284 0.950 . S
C292 C291 1.345 . S
C292 C293 1.424 . S
C293 H285 0.951 . S
C293 C292 1.424 . S
C293 C294 1.347 . S
C294 H286 0.951 . S
C294 C289 1.429 . S
C294 C293 1.347 . S
H295 C296 0.951 . S
C296 H295 0.951 . S
C296 C302 1.265 . S
H297 C302 0.950 . S
H298 C306 0.949 . S
H299 C307 0.950 . S
H300 C308 0.951 . S
H301 C309 0.951 . S
C302 C296 1.265 . S
C302 H297 0.950 . S
C302 C303 1.478 . S
C303 C290 1.394 . S
C303 C302 1.478 . S
C303 C304 1.397 . S
C304 C303 1.397 . S
C304 C305 1.438 . S
C304 C309 1.429 . S
C305 C288 1.394 . S
C305 C304 1.438 . S
C305 C306 1.428 . S
C306 H298 0.949 . S
C306 C305 1.428 . S
C306 C307 1.345 . S
C307 H299 0.950 . S
C307 C306 1.345 . S
C307 C308 1.424 . S
C308 H300 0.951 . S
C308 C307 1.424 . S
C308 C309 1.347 . S
C309 H301 0.951 . S
C309 C304 1.429 . S
C309 C308 1.347 . S
H310 C311 0.951 . S
C311 H310 0.951 . S
C311 C317 1.265 . S
H312 C317 0.950 . S
H313 C321 0.949 . S
H314 C322 0.950 . S
H315 C323 0.951 . S
H316 C324 0.951 . S
C317 C311 1.265 . S
C317 H312 0.950 . S
C317 C318 1.478 . S
C318 C317 1.478 . S
C318 C319 1.397 . S
C318 C335 1.394 . S
C319 C318 1.397 . S
C319 C320 1.438 . S
C319 C324 1.429 . S
C320 C319 1.438 . S
C320 C321 1.428 . S
C320 C333 1.394 . S
C321 H313 0.949 . S
C321 C320 1.428 . S
C321 C322 1.345 . S
C322 H314 0.950 . S
C322 C321 1.345 . S
C322 C323 1.424 . S
C323 H315 0.951 . S
C323 C322 1.424 . S
C323 C324 1.347 . S
C324 H316 0.951 . S
C324 C319 1.429 . S
C324 C323 1.347 . S
H325 C326 0.951 . S
C326 H325 0.951 . S
C326 C332 1.265 . S
H327 C332 0.950 . S
H328 C336 0.949 . S
H329 C337 0.950 . S
H330 C338 0.951 . S
H331 C339 0.951 . S
C332 C326 1.265 . S
C332 H327 0.950 . S
C332 C333 1.478 . S
C333 C320 1.394 . S
C333 C332 1.478 . S
C333 C334 1.397 . S
C334 C333 1.397 . S
C334 C335 1.438 . S
C334 C339 1.429 . S
C335 C318 1.394 . S
C335 C334 1.438 . S
C335 C336 1.428 . S
C336 H328 0.949 . S
C336 C335 1.428 . S
C336 C337 1.345 . S
C337 H329 0.950 . S
C337 C336 1.345 . S
C337 C338 1.424 . S
C338 H330 0.951 . S
C338 C337 1.424 . S
C338 C339 1.347 . S
C339 H331 0.951 . S
C339 C334 1.429 . S
C339 C338 1.347 . S
H340 C341 0.951 . S
C341 H340 0.951 . S
C341 C347 1.265 . S
H342 C347 0.950 . S
H343 C351 0.949 . S
H344 C352 0.950 . S
H345 C353 0.951 . S
H346 C354 0.951 . S
C347 C341 1.265 . S
C347 H342 0.950 . S
C347 C348 1.478 . S
C348 C347 1.478 . S
C348 C349 1.397 . S
C348 C365 1.394 . S
C349 C348 1.397 . S
C349 C350 1.438 . S
C349 C354 1.429 . S
C350 C349 1.438 . S
C350 C351 1.428 . S
C350 C363 1.394 . S
C351 H343 0.949 . S
C351 C350 1.428 . S
C351 C352 1.345 . S
C352 H344 0.950 . S
C352 C351 1.345 . S
C352 C353 1.424 . S
C353 H345 0.951 . S
C353 C352 1.424 . S
C353 C354 1.347 . S
C354 H346 0.951 . S
C354 C349 1.429 . S
C354 C353 1.347 . S
H355 C356 0.951 . S
C356 H355 0.951 . S
C356 C362 1.265 . S
H357 C362 0.950 . S
H358 C366 0.949 . S
H359 C367 0.950 . S
H360 C368 0.951 . S
H361 C369 0.951 . S
C362 C356 1.265 . S
C362 H357 0.950 . S
C362 C363 1.478 . S
C363 C350 1.394 . S
C363 C362 1.478 . S
C363 C364 1.397 . S
C364 C363 1.397 . S
C364 C365 1.438 . S
C364 C369 1.429 . S
C365 C348 1.394 . S
C365 C364 1.438 . S
C365 C366 1.428 . S
C366 H358 0.949 . S
C366 C365 1.428 . S
C366 C367 1.345 . S
C367 H359 0.950 . S
C367 C366 1.345 . S
C367 C368 1.424 . S
C368 H360 0.951 . S
C368 C367 1.424 . S
C368 C369 1.347 . S
C369 H361 0.951 . S
C369 C364 1.429 . S
C369 C368 1.347 . S
H370 C371 0.951 . S
C371 H370 0.951 . S
C371 C377 1.265 . S
H372 C377 0.950 . S
H373 C381 0.949 . S
H374 C382 0.950 . S
H375 C383 0.951 . S
H376 C384 0.951 . S
C377 C371 1.265 . S
C377 H372 0.950 . S
C377 C378 1.478 . S
C378 C377 1.478 . S
C378 C379 1.397 . S
C378 C395 1.394 . S
C379 C378 1.397 . S
C379 C380 1.438 . S
C379 C384 1.429 . S
C380 C379 1.438 . S
C380 C381 1.428 . S
C380 C393 1.394 . S
C381 H373 0.949 . S
C381 C380 1.428 . S
C381 C382 1.345 . S
C382 H374 0.950 . S
C382 C381 1.345 . S
C382 C383 1.424 . S
C383 H375 0.951 . S
C383 C382 1.424 . S
C383 C384 1.347 . S
C384 H376 0.951 . S
C384 C379 1.429 . S
C384 C383 1.347 . S
H385 C386 0.951 . S
C386 H385 0.951 . S
C386 C392 1.265 . S
H387 C392 0.950 . S
H388 C396 0.949 . S
H389 C397 0.950 . S
H390 C398 0.951 . S
H391 C399 0.951 . S
C392 C386 1.265 . S
C392 H387 0.950 . S
C392 C393 1.478 . S
C393 C380 1.394 . S
C393 C392 1.478 . S
C393 C394 1.397 . S
C394 C393 1.397 . S
C394 C395 1.438 . S
C394 C399 1.429 . S
C395 C378 1.394 . S
C395 C394 1.438 . S
C395 C396 1.428 . S
C396 H388 0.949 . S
C396 C395 1.428 . S
C396 C397 1.345 . S
C397 H389 0.950 . S
C397 C396 1.345 . S
C397 C398 1.424 . S
C398 H390 0.951 . S
C398 C397 1.424 . S
C398 C399 1.347 . S
C399 H391 0.951 . S
C399 C394 1.429 . S
C399 C398 1.347 . S
H400 C401 0.951 . S
C401 H400 0.951 . S
C401 C407 1.265 1_556 S
H402 C407 0.950 . S
H403 C411 0.949 . S
H404 C412 0.950 . S
H405 C413 0.951 . S
H406 C414 0.951 . S
C407 C401 1.265 1_554 S
C407 H402 0.950 . S
C407 C408 1.478 . S
C408 C407 1.478 . S
C408 C409 1.397 . S
C408 C425 1.394 1_554 S
C409 C408 1.397 . S
C409 C410 1.438 . S
C409 C414 1.429 . S
C410 C409 1.438 . S
C410 C411 1.428 . S
C410 C423 1.394 1_554 S
C411 H403 0.949 . S
C411 C410 1.428 . S
C411 C412 1.345 . S
C412 H404 0.950 . S
C412 C411 1.345 . S
C412 C413 1.424 . S
C413 H405 0.951 . S
C413 C412 1.424 . S
C413 C414 1.347 . S
C414 H406 0.951 . S
C414 C409 1.429 . S
C414 C413 1.347 . S
H415 C416 0.951 . S
C416 H415 0.951 . S
C416 C422 1.265 1_554 S
H417 C422 0.950 . S
H418 C426 0.949 . S
H419 C427 0.950 . S
H420 C428 0.951 . S
H421 C429 0.951 . S
C422 C416 1.265 1_556 S
C422 H417 0.950 . S
C422 C423 1.478 . S
C423 C410 1.394 1_556 S
C423 C422 1.478 . S
C423 C424 1.397 . S
C424 C423 1.397 . S
C424 C425 1.438 . S
C424 C429 1.429 . S
C425 C408 1.394 1_556 S
C425 C424 1.438 . S
C425 C426 1.428 . S
C426 H418 0.949 . S
C426 C425 1.428 . S
C426 C427 1.345 . S
C427 H419 0.950 . S
C427 C426 1.345 . S
C427 C428 1.424 . S
C428 H420 0.951 . S
C428 C427 1.424 . S
C428 C429 1.347 . S
C429 H421 0.951 . S
C429 C424 1.429 . S
C429 C428 1.347 . S
H430 C431 0.951 . S
C431 H430 0.951 . S
C431 C437 1.265 . S
H432 C437 0.950 . S
H433 C441 0.949 . S
H434 C442 0.950 . S
H435 C443 0.951 . S
H436 C444 0.951 . S
C437 C431 1.265 . S
C437 H432 0.950 . S
C437 C438 1.478 . S
C438 C437 1.478 . S
C438 C439 1.397 . S
C438 C455 1.394 . S
C439 C438 1.397 . S
C439 C440 1.438 1_554 S
C439 C444 1.429 . S
C440 C439 1.438 1_556 S
C440 C441 1.428 . S
C440 C453 1.394 . S
C441 H433 0.949 . S
C441 C440 1.428 . S
C441 C442 1.345 1_556 S
C442 H434 0.950 . S
C442 C441 1.345 1_554 S
C442 C443 1.424 . S
C443 H435 0.951 . S
C443 C442 1.424 . S
C443 C444 1.347 . S
C444 H436 0.951 . S
C444 C439 1.429 . S
C444 C443 1.347 . S
H445 C446 0.951 . S
C446 H445 0.951 . S
C446 C452 1.265 . S
H447 C452 0.950 . S
H448 C456 0.949 . S
H449 C457 0.950 . S
H450 C458 0.951 . S
H451 C459 0.951 . S
C452 C446 1.265 . S
C452 H447 0.950 . S
C452 C453 1.478 . S
C453 C440 1.394 . S
C453 C452 1.478 . S
C453 C454 1.397 . S
C454 C453 1.397 . S
C454 C455 1.438 1_556 S
C454 C459 1.429 . S
C455 C438 1.394 . S
C455 C454 1.438 1_554 S
C455 C456 1.428 . S
C456 H448 0.949 . S
C456 C455 1.428 . S
C456 C457 1.345 1_554 S
C457 H449 0.950 . S
C457 C456 1.345 1_556 S
C457 C458 1.424 . S
C458 H450 0.951 . S
C458 C457 1.424 . S
C458 C459 1.347 . S
C459 H451 0.951 . S
C459 C454 1.429 . S
C459 C458 1.347 . S
H460 C461 0.951 1_556 S
C461 H460 0.951 1_554 S
C461 C467 1.265 . S
H462 C467 0.950 . S
H463 C471 0.949 . S
H464 C472 0.950 . S
H465 C473 0.951 . S
H466 C474 0.951 . S
C467 C461 1.265 . S
C467 H462 0.950 . S
C467 C468 1.478 . S
C468 C467 1.478 . S
C468 C469 1.397 . S
C468 C485 1.394 1_554 S
C469 C468 1.397 . S
C469 C470 1.438 . S
C469 C474 1.429 . S
C470 C469 1.438 . S
C470 C471 1.428 . S
C470 C483 1.394 1_554 S
C471 H463 0.949 . S
C471 C470 1.428 . S
C471 C472 1.345 . S
C472 H464 0.950 . S
C472 C471 1.345 . S
C472 C473 1.424 . S
C473 H465 0.951 . S
C473 C472 1.424 . S
C473 C474 1.347 . S
C474 H466 0.951 . S
C474 C469 1.429 . S
C474 C473 1.347 . S
H475 C476 0.951 1_554 S
C476 H475 0.951 1_556 S
C476 C482 1.265 . S
H477 C482 0.950 . S
H478 C486 0.949 . S
H479 C487 0.950 . S
H480 C488 0.951 . S
H481 C489 0.951 . S
C482 C476 1.265 . S
C482 H477 0.950 . S
C482 C483 1.478 . S
C483 C470 1.394 1_556 S
C483 C482 1.478 . S
C483 C484 1.397 . S
C484 C483 1.397 . S
C484 C485 1.438 . S
C484 C489 1.429 . S
C485 C468 1.394 1_556 S
C485 C484 1.438 . S
C485 C486 1.428 . S
C486 H478 0.949 . S
C486 C485 1.428 . S
C486 C487 1.345 . S
C487 H479 0.950 . S
C487 C486 1.345 . S
C487 C488 1.424 . S
C488 H480 0.951 . S
C488 C487 1.424 . S
C488 C489 1.347 . S
C489 H481 0.951 . S
C489 C484 1.429 . S
C489 C488 1.347 . S
H490 C491 0.951 . S
C491 H490 0.951 . S
C491 C497 1.265 . S
H492 C497 0.950 1_554 S
H493 C501 0.949 . S
H494 C502 0.950 . S
H495 C503 0.951 . S
H496 C504 0.951 . S
C497 C491 1.265 . S
C497 H492 0.950 1_556 S
C497 C498 1.478 . S
C498 C497 1.478 . S
C498 C499 1.397 1_556 S
C498 C515 1.394 . S
C499 C498 1.397 1_554 S
C499 C500 1.438 . S
C499 C504 1.429 . S
C500 C499 1.438 . S
C500 C501 1.428 . S
C500 C513 1.394 . S
C501 H493 0.949 . S
C501 C500 1.428 . S
C501 C502 1.345 . S
C502 H494 0.950 . S
C502 C501 1.345 . S
C502 C503 1.424 . S
C503 H495 0.951 . S
C503 C502 1.424 . S
C503 C504 1.347 . S
C504 H496 0.951 . S
C504 C499 1.429 . S
C504 C503 1.347 . S
H505 C506 0.951 . S
C506 H505 0.951 . S
C506 C512 1.265 . S
H507 C512 0.950 1_556 S
H508 C516 0.949 . S
H509 C517 0.950 . S
H510 C518 0.951 . S
H511 C519 0.951 . S
C512 C506 1.265 . S
C512 H507 0.950 1_554 S
C512 C513 1.478 . S
C513 C500 1.394 . S
C513 C512 1.478 . S
C513 C514 1.397 1_554 S
C514 C513 1.397 1_556 S
C514 C515 1.438 . S
C514 C519 1.429 . S
C515 C498 1.394 . S
C515 C514 1.438 . S
C515 C516 1.428 . S
C516 H508 0.949 . S
C516 C515 1.428 . S
C516 C517 1.345 . S
C517 H509 0.950 . S
C517 C516 1.345 . S
C517 C518 1.424 . S
C518 H510 0.951 . S
C518 C517 1.424 . S
C518 C519 1.347 . S
C519 H511 0.951 . S
C519 C514 1.429 . S
C519 C518 1.347 . S
C161 C103 1.853 . S
C176 C2 1.853 . S
C191 C63 2.495 . S
C206 C122 2.495 . S
C221 C143 1.920 . S
C236 C42 1.920 . S
C251 C23 2.499 . S
C266 C82 2.499 . S
C281 C124 1.600 . S
C296 C25 1.600 . S
C311 C111 1.577 . S
C326 C60 1.577 . S
C341 C84 1.562 . S
C356 C65 1.562 . S
C371 C20 1.568 . S
C386 C151 1.568 . S
C401 C140 1.862 . S
C416 C31 1.862 . S
C431 C105 0.411 . S
C446 C44 0.411 . S
C461 C71 1.910 . S
C476 C100 1.910 . S
C491 C4 0.756 . S
C506 C145 0.756 . S
