# Generated by pormake.
# Topology zfa, (5)-cn, num edge types: 1
# Building blocks:
#     Node 0, Type 0, BuildingBlock: BEQFEK_clean_sbu_0, # of connection points: 5
#     Node 1, Type 0, BuildingBlock: BEQFEK_clean_sbu_0, # of connection points: 5
#     Node 2, Type 0, BuildingBlock: BEQFEK_clean_sbu_0, # of connection points: 5
#     Node 3, Type 0, BuildingBlock: BEQFEK_clean_sbu_0, # of connection points: 5
#     Node 4, Type 0, BuildingBlock: BEQFEK_clean_sbu_0, # of connection points: 5
#     Node 5, Type 0, BuildingBlock: BEQFEK_clean_sbu_0, # of connection points: 5
#     Node 6, Type 0, BuildingBlock: BEQFEK_clean_sbu_0, # of connection points: 5
#     Node 7, Type 0, BuildingBlock: BEQFEK_clean_sbu_0, # of connection points: 5
#     Edge 8, Type (0, 0), BuildingBlock: KIFKEQ_clean_linker_1, # of connection points: 2
#     Edge 9, Type (0, 0), BuildingBlock: KIFKEQ_clean_linker_1, # of connection points: 2
#     Edge 10, Type (0, 0), BuildingBlock: KIFKEQ_clean_linker_1, # of connection points: 2
#     Edge 11, Type (0, 0), BuildingBlock: KIFKEQ_clean_linker_1, # of connection points: 2
#     Edge 12, Type (0, 0), BuildingBlock: KIFKEQ_clean_linker_1, # of connection points: 2
#     Edge 13, Type (0, 0), BuildingBlock: KIFKEQ_clean_linker_1, # of connection points: 2
#     Edge 14, Type (0, 0), BuildingBlock: KIFKEQ_clean_linker_1, # of connection points: 2
#     Edge 15, Type (0, 0), BuildingBlock: KIFKEQ_clean_linker_1, # of connection points: 2
#     Edge 16, Type (0, 0), BuildingBlock: KIFKEQ_clean_linker_1, # of connection points: 2
#     Edge 17, Type (0, 0), BuildingBlock: KIFKEQ_clean_linker_1, # of connection points: 2
#     Edge 18, Type (0, 0), BuildingBlock: KIFKEQ_clean_linker_1, # of connection points: 2
#     Edge 19, Type (0, 0), BuildingBlock: KIFKEQ_clean_linker_1, # of connection points: 2
#     Edge 20, Type (0, 0), BuildingBlock: KIFKEQ_clean_linker_1, # of connection points: 2
#     Edge 21, Type (0, 0), BuildingBlock: KIFKEQ_clean_linker_1, # of connection points: 2
#     Edge 22, Type (0, 0), BuildingBlock: KIFKEQ_clean_linker_1, # of connection points: 2
#     Edge 23, Type (0, 0), BuildingBlock: KIFKEQ_clean_linker_1, # of connection points: 2
#     Edge 24, Type (0, 0), BuildingBlock: KIFKEQ_clean_linker_1, # of connection points: 2
#     Edge 25, Type (0, 0), BuildingBlock: KIFKEQ_clean_linker_1, # of connection points: 2
#     Edge 26, Type (0, 0), BuildingBlock: KIFKEQ_clean_linker_1, # of connection points: 2
#     Edge 27, Type (0, 0), BuildingBlock: KIFKEQ_clean_linker_1, # of connection points: 2
# Relax obj value: 0.365
# Max RMSD: 0.182
# Mean RMSD: 0.182
data_MOF--net-zfa--node1-BEQFEK_clean_sbu_0--edge1-KIFKEQ_clean_linker_1
_symmetry_space_group_name_H-M    P1
_symmetry_Int_Tables_number       1
_symmetry_cell_setting            triclinic
loop_
_symmetry_equiv_pos_as_xyz
'x, y, z'
_cell_length_a     31.568897
_cell_length_b     31.570329
_cell_length_c     38.106828
_cell_angle_alpha  89.745646
_cell_angle_beta   90.195257
_cell_angle_gamma 89.962693
loop_
_atom_site_label
_atom_site_type_symbol
_atom_site_fract_x
_atom_site_fract_y
_atom_site_fract_z
_atom_type_partial_charge
Co0 Co 0.1776 0.22379 0.32415 0.0
Co1 Co 0.1873 0.32064 0.33722 0.0
C2 C 0.1875 0.26159 0.39696 0.0
O3 O 0.18314 0.23085 0.37586 0.0
O4 O 0.18915 0.29945 0.38579 0.0
C5 C 0.12087 0.16158 0.3384 0.0
O6 O 0.1055 0.19506 0.3543 0.0
C7 C 0.16129 0.40259 0.36164 0.0
C8 C 0.18602 0.44556 0.32077 0.0
C9 C 0.15957 0.44411 0.34979 0.0
N10 N 0.1866 0.38053 0.34018 0.0
N11 N 0.20264 0.40664 0.31656 0.0
C12 C 0.13384 0.38236 0.38906 0.0
H13 H 0.12549 0.34957 0.38139 0.0
H14 H 0.10434 0.4006 0.39351 0.0
H15 H 0.1518 0.3808 0.41412 0.0
C16 C 0.09922 0.25392 0.28644 0.0
N17 N 0.13575 0.26131 0.30414 0.0
N18 N 0.13748 0.30167 0.31245 0.0
C19 C 0.10113 0.32057 0.30151 0.0
C20 C 0.07506 0.29076 0.28561 0.0
C21 C 0.08796 0.21294 0.26918 0.0
H22 H 0.11413 0.18979 0.27087 0.0
H23 H 0.05852 0.20006 0.28076 0.0
H24 H 0.08172 0.21857 0.24092 0.0
O25 O 0.23571 0.23294 0.30379 0.0
O26 O 0.24123 0.30197 0.31459 0.0
H27 H 0.06569 0.3761 0.28582 0.0
H28 H 0.08171 0.37467 0.33102 0.0
C29 C 0.0917 0.36689 0.30399 0.0
H30 H 0.12019 0.38542 0.29708 0.0
H31 H 0.22179 0.39712 0.29575 0.0
O32 O 0.15552 0.16491 0.32154 0.0
C33 C 0.25711 0.26737 0.30333 0.0
Co34 Co 0.34718 0.68132 0.82362 0.0
Co35 Co 0.24962 0.68669 0.83783 0.0
C36 C 0.3128 0.69589 0.89579 0.0
O37 O 0.34357 0.69188 0.87482 0.0
O38 O 0.27494 0.69415 0.88477 0.0
C39 C 0.41791 0.63725 0.84068 0.0
O40 O 0.38997 0.62675 0.86463 0.0
C41 C 0.17821 0.64927 0.87208 0.0
C42 C 0.12247 0.67387 0.84357 0.0
C43 C 0.13466 0.64545 0.86963 0.0
N44 N 0.19132 0.67779 0.84821 0.0
N45 N 0.15779 0.6932 0.83171 0.0
C46 C 0.20748 0.62594 0.89652 0.0
H47 H 0.23489 0.61321 0.88178 0.0
H48 H 0.19136 0.60011 0.91099 0.0
H49 H 0.21987 0.64849 0.91627 0.0
C50 C 0.32082 0.59638 0.79482 0.0
N51 N 0.31214 0.63478 0.80895 0.0
N52 N 0.27106 0.63769 0.81406 0.0
C53 C 0.25253 0.60156 0.80281 0.0
C54 C 0.28335 0.57363 0.79126 0.0
C55 C 0.3644 0.58058 0.78663 0.0
H56 H 0.384 0.60665 0.77595 0.0
H57 H 0.37913 0.56793 0.81095 0.0
H58 H 0.36391 0.55464 0.76724 0.0
O59 O 0.33061 0.7366 0.80045 0.0
O60 O 0.26115 0.74014 0.81112 0.0
H61 H 0.19804 0.57044 0.78061 0.0
H62 H 0.19543 0.58143 0.82656 0.0
C63 C 0.20591 0.59412 0.80108 0.0
H64 H 0.18893 0.62406 0.7953 0.0
H65 H 0.15918 0.71525 0.81122 0.0
O66 O 0.40725 0.66379 0.81694 0.0
C67 C 0.29514 0.75636 0.79869 0.0
Co68 Co 0.87852 0.83909 0.32455 0.0
Co69 Co 0.87038 0.74272 0.34203 0.0
C70 C 0.868 0.80448 0.39891 0.0
O71 O 0.87077 0.83408 0.37632 0.0
O72 O 0.86884 0.76591 0.38972 0.0
C73 C 0.93515 0.90158 0.33761 0.0
O74 O 0.95026 0.8686 0.35467 0.0
C75 C 0.89171 0.65983 0.37035 0.0
C76 C 0.88002 0.61866 0.32479 0.0
C77 C 0.89914 0.6193 0.35767 0.0
N78 N 0.87172 0.68247 0.34536 0.0
N79 N 0.86322 0.65721 0.31874 0.0
C80 C 0.9033 0.67717 0.4056 0.0
H81 H 0.87502 0.69237 0.41724 0.0
H82 H 0.92818 0.70173 0.40269 0.0
H83 H 0.91418 0.65187 0.42381 0.0
C84 C 0.95778 0.8079 0.28953 0.0
N85 N 0.92104 0.80103 0.3069 0.0
N86 N 0.92036 0.76158 0.31804 0.0
C87 C 0.95784 0.74313 0.31007 0.0
C88 C 0.98323 0.77203 0.29222 0.0
C89 C 0.96837 0.84764 0.26989 0.0
H90 H 0.94198 0.87064 0.27041 0.0
H91 H 0.99786 0.86164 0.28053 0.0
H92 H 0.97435 0.83989 0.24201 0.0
O93 O 0.8216 0.82872 0.30315 0.0
O94 O 0.81656 0.76044 0.31747 0.0
H95 H 0.9455 0.6768 0.30816 0.0
H96 H 1.00074 0.68944 0.30837 0.0
C97 C 0.96948 0.69852 0.31918 0.0
H98 H 0.97012 0.69488 0.34808 0.0
H99 H 0.84943 0.66727 0.2952 0.0
O100 O 0.90066 0.89783 0.32041 0.0
C101 C 0.80064 0.79407 0.30397 0.0
Co102 Co 0.72215 0.37822 0.82183 0.0
Co103 Co 0.8176 0.37445 0.84376 0.0
C104 C 0.75157 0.36534 0.89731 0.0
O105 O 0.72349 0.36563 0.87339 0.0
O106 O 0.79032 0.37085 0.88996 0.0
C107 C 0.65907 0.43021 0.83713 0.0
O108 O 0.69083 0.43895 0.85824 0.0
C109 C 0.89392 0.40281 0.87884 0.0
C110 C 0.94501 0.38226 0.84356 0.0
C111 C 0.93713 0.40606 0.87336 0.0
N112 N 0.87689 0.37911 0.85321 0.0
N113 N 0.90779 0.36588 0.83267 0.0
C114 C 0.86882 0.42279 0.90767 0.0
H115 H 0.83927 0.43699 0.89706 0.0
H116 H 0.88727 0.44691 0.92222 0.0
H117 H 0.85978 0.39761 0.92655 0.0
C118 C 0.75067 0.46099 0.79137 0.0
N119 N 0.75892 0.42361 0.80757 0.0
N120 N 0.79857 0.42349 0.8182 0.0
C121 C 0.81626 0.46128 0.80972 0.0
C122 C 0.78624 0.48661 0.79304 0.0
C123 C 0.71001 0.47225 0.77327 0.0
H124 H 0.69291 0.44335 0.76487 0.0
H125 H 0.68985 0.491 0.79119 0.0
H126 H 0.71647 0.49239 0.74993 0.0
O127 O 0.7374 0.32365 0.79897 0.0
O128 O 0.80418 0.32002 0.81826 0.0
H129 H 0.86975 0.50425 0.80762 0.0
H130 H 0.85747 0.48209 0.84965 0.0
C131 C 0.85916 0.47516 0.82131 0.0
H132 H 0.88258 0.44979 0.81656 0.0
H133 H 0.90314 0.348 0.81001 0.0
O134 O 0.66346 0.40012 0.81521 0.0
C135 C 0.77249 0.3036 0.80219 0.0
Co136 Co 0.67752 0.33938 0.22435 0.0
Co137 Co 0.68589 0.24279 0.20898 0.0
C138 C 0.68588 0.3039 0.15063 0.0
O139 O 0.68414 0.33392 0.17267 0.0
O140 O 0.68532 0.26554 0.1607 0.0
C141 C 0.62395 0.40435 0.20971 0.0
O142 O 0.61139 0.37326 0.18937 0.0
C143 C 0.65846 0.16135 0.18383 0.0
C144 C 0.68597 0.11737 0.22286 0.0
C145 C 0.65773 0.11948 0.19489 0.0
N146 N 0.68492 0.18296 0.20479 0.0
N147 N 0.70258 0.15626 0.22724 0.0
C148 C 0.62933 0.18211 0.15774 0.0
H149 H 0.62207 0.21503 0.16578 0.0
H150 H 0.59928 0.16433 0.15467 0.0
H151 H 0.64534 0.18332 0.13188 0.0
C152 C 0.59738 0.30918 0.25915 0.0
N153 N 0.63458 0.30182 0.24255 0.0
N154 N 0.63705 0.26126 0.23495 0.0
C155 C 0.60105 0.24199 0.24596 0.0
C156 C 0.57424 0.27178 0.26079 0.0
C157 C 0.5831 0.35154 0.2721 0.0
H158 H 0.61056 0.3724 0.27722 0.0
H159 H 0.56158 0.36617 0.25244 0.0
H160 H 0.56521 0.34842 0.29687 0.0
O161 O 0.73528 0.32856 0.24512 0.0
O162 O 0.74076 0.2604 0.23117 0.0
H163 H 0.5674 0.1862 0.26311 0.0
H164 H 0.58065 0.18741 0.21746 0.0
C165 C 0.59225 0.19551 0.24403 0.0
H166 H 0.62136 0.17736 0.25004 0.0
H167 H 0.72299 0.16527 0.24749 0.0
O168 O 0.65628 0.39848 0.22928 0.0
C169 C 0.75678 0.29421 0.2439 0.0
Co170 Co 0.22254 0.1816 0.72328 0.0
Co171 Co 0.31919 0.1884 0.70639 0.0
C172 C 0.2577 0.19611 0.64935 0.0
O173 O 0.22812 0.19284 0.67178 0.0
O174 O 0.29634 0.1937 0.65854 0.0
C175 C 0.15752 0.13061 0.70534 0.0
O176 O 0.18836 0.12131 0.68363 0.0
C177 C 0.40292 0.1685 0.67891 0.0
C178 C 0.44248 0.17599 0.72627 0.0
C179 C 0.44311 0.1603 0.6923 0.0
N180 N 0.37934 0.18596 0.70435 0.0
N181 N 0.40361 0.19181 0.73218 0.0
C182 C 0.38677 0.15977 0.64263 0.0
H183 H 0.36214 0.13477 0.64349 0.0
H184 H 0.41271 0.15023 0.62475 0.0
H185 H 0.37175 0.18886 0.63192 0.0
C186 C 0.25063 0.09828 0.75246 0.0
N187 N 0.25921 0.13668 0.73833 0.0
N188 N 0.29907 0.13754 0.72852 0.0
C189 C 0.31658 0.09904 0.735 0.0
C190 C 0.28628 0.0727 0.75013 0.0
C191 C 0.20947 0.08608 0.76906 0.0
H192 H 0.1923 0.11453 0.77835 0.0
H193 H 0.18962 0.06887 0.74981 0.0
H194 H 0.2152 0.06435 0.79157 0.0
O195 O 0.23459 0.23692 0.74701 0.0
O196 O 0.30248 0.24129 0.73191 0.0
H197 H 0.36594 0.05195 0.72745 0.0
H198 H 0.36305 0.09303 0.69491 0.0
C199 C 0.35982 0.08614 0.72322 0.0
H200 H 0.38391 0.10463 0.73776 0.0
H201 H 0.39269 0.20335 0.75612 0.0
O202 O 0.16359 0.15971 0.7279 0.0
C203 C 0.26957 0.25734 0.7461 0.0
Co204 Co 0.37754 0.72177 0.22494 0.0
Co205 Co 0.37001 0.81871 0.20893 0.0
C206 C 0.36704 0.75835 0.15097 0.0
O207 O 0.3704 0.72795 0.17286 0.0
O208 O 0.36714 0.79663 0.16104 0.0
C209 C 0.43217 0.65795 0.21131 0.0
O210 O 0.44435 0.68945 0.19109 0.0
C211 C 0.38957 0.90276 0.18168 0.0
C212 C 0.38402 0.94133 0.22953 0.0
C213 C 0.39896 0.94242 0.19532 0.0
N214 N 0.37231 0.87893 0.2072 0.0
N215 N 0.36754 0.90267 0.23534 0.0
C216 C 0.3974 0.88723 0.14518 0.0
H217 H 0.36812 0.87228 0.13495 0.0
H218 H 0.42264 0.86277 0.14548 0.0
H219 H 0.40633 0.91353 0.12726 0.0
C220 C 0.4585 0.7505 0.25786 0.0
N221 N 0.42076 0.75879 0.24239 0.0
N222 N 0.42017 0.79858 0.23216 0.0
C223 C 0.45843 0.81612 0.23918 0.0
C224 C 0.48417 0.78608 0.25554 0.0
C225 C 0.46966 0.71 0.27628 0.0
H226 H 0.44071 0.69216 0.28349 0.0
H227 H 0.48993 0.69032 0.25919 0.0
H228 H 0.48826 0.7169 0.30036 0.0
O229 O 0.32067 0.73278 0.24649 0.0
O230 O 0.31616 0.80124 0.23283 0.0
H231 H 0.45495 0.88358 0.24138 0.0
H232 H 0.5065 0.86394 0.22947 0.0
C233 C 0.47196 0.85887 0.22644 0.0
H234 H 0.46377 0.86216 0.19834 0.0
H235 H 0.35652 0.89139 0.25942 0.0
O236 O 0.39948 0.66296 0.23041 0.0
C237 C 0.29992 0.7676 0.24583 0.0
Co238 Co 0.84513 0.87944 0.72551 0.0
Co239 Co 0.74778 0.87372 0.71153 0.0
C240 C 0.80733 0.86656 0.65283 0.0
O241 O 0.83778 0.86824 0.67462 0.0
O242 O 0.76922 0.87023 0.66292 0.0
C243 C 0.91268 0.92693 0.70548 0.0
O244 O 0.88256 0.93682 0.68304 0.0
C245 C 0.66643 0.90275 0.68652 0.0
C246 C 0.62283 0.87844 0.72698 0.0
C247 C 0.62491 0.90521 0.69803 0.0
N248 N 0.6879 0.87668 0.7081 0.0
N249 N 0.66138 0.86095 0.73148 0.0
C250 C 0.68716 0.92988 0.65911 0.0
H251 H 0.72069 0.93605 0.66617 0.0
H252 H 0.67039 0.96048 0.65557 0.0
H253 H 0.68654 0.91278 0.63374 0.0
C254 C 0.81897 0.963 0.75605 0.0
N255 N 0.80968 0.92503 0.74147 0.0
N256 N 0.76873 0.92337 0.735 0.0
C257 C 0.751 0.9605 0.74505 0.0
C258 C 0.78227 0.98715 0.75796 0.0
C259 C 0.86258 0.97718 0.76613 0.0
H260 H 0.88205 0.94979 0.77461 0.0
H261 H 0.87755 0.99314 0.74337 0.0
H262 H 0.86176 1.00023 0.78789 0.0
O263 O 0.83286 0.82403 0.74933 0.0
O264 O 0.76416 0.81996 0.73632 0.0
H265 H 0.69697 0.99656 0.76243 0.0
H266 H 0.69574 0.98126 0.71725 0.0
C267 C 0.70471 0.9706 0.74397 0.0
H268 H 0.68601 0.94234 0.75131 0.0
H269 H 0.67039 0.84124 0.75227 0.0
O270 O 0.90498 0.8992 0.72903 0.0
C271 C 0.79776 0.80375 0.74953 0.0
H272 H 0.97467 0.63754 0.391 0.0
H273 H 0.90355 0.53484 0.3446 0.0
H274 H 0.03641 0.59279 0.39512 0.0
H275 H 0.96703 0.49039 0.34736 0.0
H276 H 0.1025 0.46861 0.30114 0.0
H277 H 0.03614 0.50629 0.31072 0.0
H278 H 0.06748 0.5201 0.42046 0.0
H279 H 0.13413 0.48127 0.41087 0.0
C280 C 0.97121 0.6049 0.38325 0.0
C281 C 0.93341 0.58964 0.36811 0.0
C282 C 1.00714 0.57935 0.38527 0.0
C283 C 1.00643 0.53841 0.37139 0.0
C284 C 0.96825 0.52208 0.35811 0.0
C285 C 0.93199 0.54743 0.35665 0.0
C286 C 0.09552 0.48026 0.3272 0.0
C287 C 0.12339 0.47263 0.35526 0.0
C288 C 0.05729 0.5011 0.33278 0.0
C289 C 0.04653 0.51525 0.36643 0.0
C290 C 0.07509 0.50905 0.39435 0.0
C291 C 0.11317 0.48739 0.38886 0.0
H292 H 0.92013 0.48994 0.87518 0.0
H293 H 1.01777 0.39891 0.89926 0.0
H294 H 0.96838 0.54716 0.88502 0.0
H295 H 0.06666 0.45692 0.91233 0.0
H296 H 0.15233 0.56113 0.86835 0.0
H297 H 0.10531 0.50331 0.88009 0.0
H298 H 1.0101 0.59189 0.91585 0.0
H299 H 0.05711 0.65063 0.90072 0.0
C300 C 0.95169 0.48218 0.88386 0.0
C301 C 0.96514 0.43995 0.88633 0.0
C302 C 0.97962 0.51531 0.88998 0.0
C303 C 1.02194 0.50718 0.8993 0.0
C304 C 0.03466 0.46464 0.90428 0.0
C305 C 1.00669 0.43131 0.89716 0.0
C306 C 0.12166 0.56846 0.87906 0.0
C307 C 0.10829 0.61052 0.88325 0.0
C308 C 0.09454 0.53491 0.88636 0.0
C309 C 0.05334 0.54244 0.89865 0.0
C310 C 0.0411 0.58467 0.90541 0.0
C311 C 0.06803 0.61842 0.89707 0.0
H312 H 0.40373 1.02651 0.20935 0.0
H313 H 0.47128 0.92532 0.15773 0.0
H314 H 0.46659 0.07137 0.20424 0.0
H315 H 0.53263 0.97057 0.15145 0.0
H316 H 0.62826 0.08439 0.13398 0.0
H317 H 0.56155 0.04491 0.12634 0.0
H318 H 0.53818 0.05409 0.23762 0.0
H319 H 0.60454 0.09241 0.24523 0.0
C320 C 0.4312 1.01441 0.19567 0.0
C321 C 0.43195 0.97252 0.18345 0.0
C322 C 0.46712 0.03998 0.19287 0.0
C323 C 0.50429 1.02417 0.17756 0.0
C324 C 0.50411 0.98359 0.16291 0.0
C325 C 0.46847 0.9578 0.16618 0.0
C326 C 0.60903 0.07713 0.15672 0.0
C327 C 0.62149 0.09079 0.1902 0.0
C328 C 0.57093 0.05506 0.15235 0.0
C329 C 0.54458 0.04737 0.18133 0.0
C330 C 0.55761 0.0604 0.2148 0.0
C331 C 0.59585 0.08164 0.21923 0.0
H332 H 0.58906 0.93178 0.63622 0.0
H333 H 0.59934 0.96148 0.74636 0.0
H334 H 0.5486 0.99763 0.62648 0.0
H335 H 0.56002 1.02697 0.73667 0.0
H336 H 0.52771 0.15871 0.7051 0.0
H337 H 0.57437 0.09708 0.70097 0.0
H338 H 0.4743 1.02627 0.65106 0.0
H339 H 0.42735 0.08659 0.65627 0.0
C340 C 0.58221 0.9522 0.65826 0.0
C341 C 0.59663 0.94159 0.69206 0.0
C342 C 0.55953 0.9898 0.65269 0.0
C343 C 0.55202 1.01753 0.68074 0.0
C344 C 0.56613 1.00647 0.71452 0.0
C345 C 0.58796 0.96874 0.72016 0.0
C346 C 0.51613 0.13045 0.6922 0.0
C347 C 0.47395 0.12802 0.68059 0.0
C348 C 0.54274 0.09523 0.68997 0.0
C349 C 0.52768 0.05705 0.67585 0.0
C350 C 0.48675 0.05556 0.66162 0.0
C351 C 0.45995 0.09056 0.66429 0.0
H352 H 0.51416 0.23937 0.21704 0.0
H353 H 0.52973 0.29247 0.32036 0.0
H354 H 0.4374 0.2361 0.22583 0.0
H355 H 0.45291 0.29089 0.32862 0.0
H356 H 0.31464 0.33138 0.31079 0.0
H357 H 0.39066 0.32944 0.30099 0.0
H358 H 0.38076 0.2008 0.26417 0.0
H359 H 0.30405 0.20235 0.27437 0.0
C360 C 0.50119 0.25011 0.24173 0.0
C361 C 0.52798 0.26701 0.26773 0.0
C362 C 0.45722 0.2483 0.24672 0.0
C363 C 0.43893 0.26378 0.27772 0.0
C364 C 0.4659 0.27954 0.30412 0.0
C365 C 0.50991 0.28078 0.29931 0.0
C366 C 0.32834 0.30265 0.30032 0.0
C367 C 0.30288 0.26696 0.29344 0.0
C368 C 0.37215 0.30149 0.295 0.0
C369 C 0.39192 0.26483 0.2822 0.0
C370 C 0.36648 0.22955 0.27407 0.0
C371 C 0.32251 0.23046 0.27989 0.0
H372 H 0.23296 1.01281 0.72393 0.0
H373 H 0.34448 1.02703 0.78837 0.0
H374 H 0.23556 0.93621 0.73232 0.0
H375 H 0.34738 0.95006 0.79692 0.0
H376 H 0.36215 0.80751 0.78019 0.0
H377 H 0.36073 0.88327 0.76698 0.0
H378 H 0.22452 0.88329 0.77699 0.0
H379 H 0.2258 0.80769 0.78957 0.0
C380 C 0.25781 0.99952 0.74026 0.0
C381 C 0.28833 1.02596 0.75573 0.0
C382 C 0.2594 0.95552 0.74501 0.0
C383 C 0.29166 0.93668 0.76535 0.0
C384 C 0.32241 0.96326 0.78068 0.0
C385 C 0.3207 1.00738 0.77596 0.0
C386 C 0.33181 0.82348 0.77903 0.0
C387 C 0.29409 0.80119 0.78598 0.0
C388 C 0.33104 0.86713 0.77183 0.0
C389 C 0.29255 0.8897 0.77119 0.0
C390 C 0.25477 0.86709 0.77694 0.0
C391 C 0.25552 0.82355 0.78425 0.0
H392 H 0.54427 0.73181 0.23131 0.0
H393 H 0.52942 0.84519 0.2927 0.0
H394 H 0.62071 0.73435 0.24032 0.0
H395 H 0.60634 0.84807 0.3018 0.0
H396 H 0.74972 0.86122 0.28456 0.0
H397 H 0.67376 0.86011 0.27178 0.0
H398 H 0.67268 0.72434 0.28599 0.0
H399 H 0.74832 0.7253 0.29813 0.0
C400 C 0.55737 0.75699 0.2472 0.0
C401 C 0.53079 0.788 0.2617 0.0
C402 C 0.60128 0.75858 0.25226 0.0
C403 C 0.61994 0.79134 0.2719 0.0
C404 C 0.59326 0.82264 0.28618 0.0
C405 C 0.54918 0.82093 0.28116 0.0
C406 C 0.73341 0.83105 0.28448 0.0
C407 C 0.7554 0.79335 0.29237 0.0
C408 C 0.68969 0.83047 0.27751 0.0
C409 C 0.66684 0.79216 0.27803 0.0
C410 C 0.68912 0.75441 0.28498 0.0
C411 C 0.73267 0.755 0.29208 0.0
H412 H 0.83826 0.24809 0.81226 0.0
H413 H 0.71238 0.25591 0.76776 0.0
H414 H 0.83946 0.17223 0.80111 0.0
H415 H 0.71369 0.17971 0.75674 0.0
H416 H 0.75092 0.04715 0.71347 0.0
H417 H 0.74866 0.12398 0.72165 0.0
H418 H 0.80368 0.10867 0.82484 0.0
H419 H 0.80508 0.03181 0.81676 0.0
C420 C 0.81096 0.23383 0.79972 0.0
C421 C 0.77515 0.25841 0.79101 0.0
C422 C 0.81154 0.19012 0.79365 0.0
C423 C 0.77648 0.16966 0.77844 0.0
C424 C 0.7413 0.19441 0.76842 0.0
C425 C 0.74057 0.23818 0.77475 0.0
C426 C 0.76214 0.06027 0.73802 0.0
C427 C 0.77883 0.03356 0.76426 0.0
C428 C 0.76088 0.10427 0.74271 0.0
C429 C 0.77648 0.12266 0.77373 0.0
C430 C 0.7923 0.09571 0.80029 0.0
C431 C 0.79321 0.05168 0.79568 0.0
H432 H 1.01502 0.32475 0.32835 0.0
H433 H 1.02943 0.26538 0.22735 0.0
H434 H 0.93829 0.32697 0.31986 0.0
H435 H 0.95263 0.26621 0.21937 0.0
H436 H 0.81379 0.22955 0.23639 0.0
H437 H 0.88996 0.23083 0.24608 0.0
H438 H 0.88134 0.35975 0.28253 0.0
H439 H 0.8046 0.3587 0.27271 0.0
C440 C 1.00188 0.31254 0.30414 0.0
C441 C 1.02854 0.29452 0.27867 0.0
C442 C 0.95782 0.31369 0.29935 0.0
C443 C 0.93912 0.29639 0.2691 0.0
C444 C 0.96585 0.27906 0.24332 0.0
C445 C 1.00997 0.27836 0.24796 0.0
C446 C 0.82785 0.25819 0.24678 0.0
C447 C 0.8027 0.29408 0.2537 0.0
C448 C 0.87176 0.25899 0.25202 0.0
C449 C 0.89198 0.29553 0.26469 0.0
C450 C 0.86682 0.33102 0.27279 0.0
C451 C 0.82276 0.33041 0.26717 0.0
H452 H 0.3083 0.52822 0.73353 0.0
H453 H 0.2458 0.5148 0.83338 0.0
H454 H 0.30473 0.45148 0.72516 0.0
H455 H 0.24116 0.4381 0.82473 0.0
H456 H 0.20633 0.30614 0.77554 0.0
H457 H 0.20766 0.38253 0.78663 0.0
H458 H 0.33772 0.38766 0.75244 0.0
H459 H 0.33665 0.31188 0.74149 0.0
C460 C 0.29406 0.50881 0.75379 0.0
C461 C 0.2782 0.52743 0.78443 0.0
C462 C 0.29185 0.46484 0.74899 0.0
C463 C 0.27311 0.43846 0.77449 0.0
C464 C 0.2557 0.45739 0.80452 0.0
C465 C 0.25833 0.50133 0.80946 0.0
C466 C 0.2354 0.32343 0.77086 0.0
C467 C 0.27131 0.30257 0.75749 0.0
C468 C 0.23614 0.36728 0.77718 0.0
C469 C 0.27262 0.39141 0.76993 0.0
C470 C 0.30883 0.37029 0.75766 0.0
C471 C 0.30826 0.32658 0.7517 0.0
H472 H 0.04521 0.74692 0.3379 0.0
H473 H 1.02675 0.79072 0.23155 0.0
H474 H 0.1218 0.74461 0.32842 0.0
H475 H 0.10342 0.79017 0.22254 0.0
H476 H 0.24248 0.83125 0.23501 0.0
H477 H 0.16665 0.8307 0.24627 0.0
H478 H 0.17713 0.7056 0.29148 0.0
H479 H 0.25349 0.70574 0.27984 0.0
C480 C 0.05746 0.75572 0.31237 0.0
C481 C 1.02974 0.76905 0.28548 0.0
C482 C 0.10138 0.75453 0.30701 0.0
C483 C 0.1188 0.76742 0.2748 0.0
C484 C 0.09107 0.7806 0.24785 0.0
C485 C 0.04709 0.78114 0.25305 0.0
C486 C 0.22892 0.80365 0.24766 0.0
C487 C 0.25441 0.76848 0.25648 0.0
C488 C 0.18523 0.80326 0.25383 0.0
C489 C 0.16569 0.76797 0.26944 0.0
C490 C 0.19122 0.73332 0.27943 0.0
C491 C 0.23501 0.73342 0.27277 0.0
H492 H 0.72797 0.75365 0.75913 0.0
H493 H 0.8646 0.75079 0.76538 0.0
H494 H 0.72565 0.67772 0.77001 0.0
H495 H 0.86217 0.67456 0.77684 0.0
H496 H 0.84185 0.53206 0.75236 0.0
H497 H 0.84556 0.60918 0.74506 0.0
H498 H 0.73777 0.62324 0.81358 0.0
H499 H 0.73442 0.54643 0.82081 0.0
C500 C 0.75757 0.737 0.76338 0.0
C501 C 0.7965 0.75861 0.76131 0.0
C502 C 0.7562 0.69329 0.76972 0.0
C503 C 0.79372 0.66974 0.77407 0.0
C504 C 0.83265 0.6915 0.77308 0.0
C505 C 0.83402 0.73538 0.76691 0.0
C506 C 0.81915 0.55179 0.76593 0.0
C507 C 0.78788 0.53327 0.78715 0.0
C508 C 0.82133 0.59596 0.7619 0.0
C509 C 0.79206 0.62264 0.77883 0.0
C510 C 0.76055 0.60384 0.7998 0.0
C511 C 0.75853 0.55977 0.8039 0.0
H512 H 0.16977 0.1884 0.43263 0.0
H513 H 0.22 0.3146 0.44666 0.0
H514 H 0.18574 0.17203 0.49406 0.0
H515 H 0.23632 0.29786 0.50787 0.0
H516 H 0.30851 0.22855 0.59796 0.0
H517 H 0.28906 0.24494 0.53726 0.0
H518 H 0.16268 0.1981 0.55597 0.0
H519 H 0.18181 0.18205 0.61683 0.0
C520 C 0.18396 0.2127 0.44886 0.0
C521 C 0.19376 0.25275 0.43477 0.0
C522 C 0.19297 0.20333 0.48398 0.0
C523 C 0.21255 0.23359 0.5055 0.0
C524 C 0.22163 0.27385 0.49166 0.0
C525 C 0.212 0.28348 0.45672 0.0
C526 C 0.27664 0.22155 0.5891 0.0
C527 C 0.24667 0.20411 0.61218 0.0
C528 C 0.26546 0.23122 0.55447 0.0
C529 C 0.22433 0.22297 0.54211 0.0
C530 C 0.19462 0.20466 0.56489 0.0
C531 C 0.20557 0.19564 0.5997 0.0
H532 H 0.33479 0.81053 0.10028 0.0
H533 H 0.38577 0.68482 0.11656 0.0
H534 H 0.32209 0.79415 0.03862 0.0
H535 H 0.37335 0.66874 0.05457 0.0
H536 H 0.38665 0.68247 0.93188 0.0
H537 H 0.40081 0.69679 0.99386 0.0
H538 H 0.2724 0.74099 1.00655 0.0
H539 H 0.25788 0.72626 0.94481 0.0
C540 C 0.34361 0.77954 0.09065 0.0
C541 C 0.36124 0.74894 0.11329 0.0
C542 C 0.33606 0.77012 0.05543 0.0
C543 C 0.34659 0.73016 0.042 0.0
C544 C 0.36509 0.69983 0.06435 0.0
C545 C 0.37202 0.709 0.09977 0.0
C546 C 0.36141 0.69514 0.94792 0.0
C547 C 0.32118 0.7034 0.93344 0.0
C548 C 0.36949 0.70311 0.98337 0.0
C549 C 0.33774 0.72015 1.00481 0.0
C550 C 0.2975 0.7282 0.99043 0.0
C551 C 0.28919 0.71958 0.95517 0.0
H552 H 0.75492 0.87834 0.59609 0.0
H553 H 0.88145 0.83842 0.62485 0.0
H554 H 0.77114 0.86489 0.53433 0.0
H555 H 0.89723 0.8247 0.56337 0.0
H556 H 0.8835 0.75468 0.45636 0.0
H557 H 0.86921 0.77123 0.51775 0.0
H558 H 0.82303 0.89477 0.4872 0.0
H559 H 0.83757 0.87846 0.42574 0.0
C560 C 0.78611 0.86673 0.58926 0.0
C561 C 0.81685 0.85934 0.61536 0.0
C562 C 0.79543 0.85927 0.55396 0.0
C563 C 0.83538 0.84367 0.54423 0.0
C564 C 0.86609 0.83641 0.57025 0.0
C565 C 0.85705 0.84446 0.60541 0.0
C566 C 0.8704 0.78538 0.46273 0.0
C567 C 0.86154 0.8152 0.43622 0.0
C568 C 0.86243 0.79491 0.49785 0.0
C569 C 0.84486 0.83419 0.50709 0.0
C570 C 0.83624 0.86413 0.48068 0.0
C571 C 0.84486 0.85488 0.44559 0.0
H572 H 0.67779 0.25035 0.09459 0.0
H573 H 0.70508 0.3805 0.12134 0.0
H574 H 0.69057 0.2667 0.03271 0.0
H575 H 0.71802 0.39649 0.05967 0.0
H576 H 0.79526 0.38673 0.95649 0.0
H577 H 0.77584 0.37274 1.01727 0.0
H578 H 0.65997 0.31341 0.98257 0.0
H579 H 0.67935 0.32753 0.92146 0.0
C580 C 0.68623 0.28244 0.08728 0.0
C581 C 0.69068 0.31405 0.11291 0.0
C582 C 0.69331 0.29181 0.05187 0.0
C583 C 0.70549 0.33278 0.04154 0.0
C584 C 0.70905 0.36455 0.06702 0.0
C585 C 0.70145 0.35537 0.1023 0.0
C586 C 0.76571 0.37066 0.96174 0.0
C587 C 0.73901 0.35801 0.93417 0.0
C588 C 0.75443 0.36296 0.99656 0.0
C589 C 0.71643 0.342 1.00455 0.0
C590 C 0.68957 0.32942 0.97706 0.0
C591 C 0.70058 0.33769 0.94217 0.0
H592 H 1.01927 0.90525 0.32602 0.0
H593 H 0.91008 0.98362 0.34506 0.0
H594 H 0.06361 0.96711 0.32166 0.0
H595 H 0.95502 0.0459 0.34636 0.0
H596 H 0.03645 0.15826 0.3277 0.0
H597 H 0.99202 0.09659 0.3228 0.0
H598 H 0.10089 1.017 0.34597 0.0
H599 H 0.14588 0.07927 0.34526 0.0
C600 C 1.00487 0.93608 0.32944 0.0
C601 C 0.96122 0.93994 0.33508 0.0
C602 C 1.03057 0.97187 0.3278 0.0
C603 C 1.01377 1.01253 0.33395 0.0
C604 C 0.96973 1.01592 0.34031 0.0
C605 C 0.94365 0.98011 0.34 0.0
C606 C 0.05088 0.12734 0.33077 0.0
C607 C 0.09462 0.1233 0.33613 0.0
C608 C 1.02513 0.09162 0.32877 0.0
C609 C 0.042 0.05077 0.33424 0.0
C610 C 0.08612 0.04718 0.34042 0.0
C611 C 0.11222 0.08298 0.34048 0.0
H612 H 0.46853 0.62204 0.78329 0.0
H613 H 0.45446 0.59426 0.89377 0.0
H614 H 0.52735 0.57102 0.78033 0.0
H615 H 0.51159 0.54336 0.89067 0.0
H616 H 0.64219 0.4911 0.88441 0.0
H617 H 0.58752 0.54449 0.88235 0.0
H618 H 0.53841 0.49073 0.78644 0.0
H619 H 0.595 0.43708 0.78781 0.0
C620 C 0.47845 0.60563 0.80694 0.0
C621 C 0.45717 0.6122 0.83879 0.0
C622 C 0.51153 0.57606 0.80514 0.0
C623 C 0.52389 0.55318 0.83524 0.0
C624 C 0.50314 0.56078 0.8671 0.0
C625 C 0.47034 0.58997 0.86887 0.0
C626 C 0.61979 0.49031 0.86282 0.0
C627 C 0.62272 0.45958 0.83639 0.0
C628 C 0.58837 0.52102 0.86171 0.0
C629 C 0.5586 0.52169 0.83434 0.0
C630 C 0.56126 0.49107 0.8077 0.0
C631 C 0.59314 0.46009 0.80874 0.0
H632 H 0.51491 0.65256 0.1932 0.0
H633 H 0.41283 0.5795 0.23838 0.0
H634 H 0.56173 0.59159 0.19778 0.0
H635 H 0.4601 0.51782 0.24252 0.0
H636 H 0.54234 0.41218 0.18832 0.0
H637 H 0.49582 0.4731 0.19388 0.0
H638 H 0.59598 0.54271 0.24504 0.0
H639 H 0.64298 0.48099 0.23995 0.0
C640 C 0.50242 0.6234 0.20409 0.0
C641 C 0.45999 0.62058 0.21504 0.0
C642 C 0.52946 0.58868 0.20708 0.0
C643 C 0.51454 0.55016 0.22057 0.0
C644 C 0.47227 0.5473 0.23197 0.0
C645 C 0.44528 0.58243 0.22957 0.0
C646 C 0.55462 0.44039 0.20082 0.0
C647 C 0.59653 0.44198 0.21341 0.0
C648 C 0.52771 0.47508 0.20435 0.0
C649 C 0.54226 0.5124 0.22003 0.0
C650 C 0.58409 0.51414 0.23283 0.0
C651 C 0.61093 0.47899 0.22987 0.0
H652 H 0.09804 0.12117 0.75762 0.0
H653 H 0.13307 0.07621 0.65476 0.0
H654 H 0.03985 0.06947 0.75914 0.0
H655 H 0.07635 1.0247 0.65664 0.0
H656 H 0.9418 0.97619 0.65283 0.0
H657 H 0.99935 1.02684 0.65452 0.0
H658 H 1.02852 0.98928 0.76104 0.0
H659 H 0.96958 0.93847 0.75961 0.0
C660 C 0.09306 0.10064 0.73529 0.0
C661 C 0.11986 0.10295 0.70597 0.0
C662 C 0.06024 0.07073 0.73636 0.0
C663 C 0.05365 0.04306 0.70801 0.0
C664 C 0.08031 0.04585 0.67872 0.0
C665 C 0.1129 0.07541 0.67769 0.0
C666 C 0.96063 0.97833 0.67658 0.0
C667 C 0.95131 0.9532 0.70604 0.0
C668 C 0.99369 1.00738 0.67751 0.0
C669 C 1.01842 1.01206 0.70791 0.0
C670 C 1.00964 0.98656 0.73737 0.0
C671 C 0.9764 0.95713 0.73639 0.0
loop_
_geom_bond_atom_site_label_1
_geom_bond_atom_site_label_2
_geom_bond_distance
_geom_bond_site_symmetry_2
_ccdc_geom_bond_type
Co0 O3 1.970 . S
Co0 N17 1.989 . S
Co0 O25 1.967 . S
Co0 O32 1.920 . S
Co1 O4 1.966 . S
Co1 N10 2.022 . S
Co1 N18 1.993 . S
Co1 O26 1.941 . S
C2 O3 1.258 . S
C2 O4 1.263 . S
O3 Co0 1.970 . S
O3 C2 1.258 . S
O4 Co1 1.966 . S
O4 C2 1.263 . S
C5 O6 1.235 . S
C5 O32 1.289 . S
O6 C5 1.235 . S
C7 C9 1.400 . S
C7 N10 1.351 . S
C7 C12 1.501 . S
C8 C9 1.387 . S
C8 N11 1.341 . S
C9 C7 1.400 . S
C9 C8 1.387 . S
N10 Co1 2.022 . S
N10 C7 1.351 . S
N10 N11 1.365 . S
N11 C8 1.341 . S
N11 N10 1.365 . S
N11 H31 0.862 . S
C12 C7 1.501 . S
C12 H13 0.961 . S
C12 H14 0.961 . S
C12 H15 0.960 . S
H13 C12 0.961 . S
H14 C12 0.961 . S
H15 C12 0.960 . S
C16 N17 1.342 1_655 S
C16 C20 1.401 . S
C16 C21 1.499 . S
N17 Co0 1.989 . S
N17 C16 1.342 1_455 S
N17 N18 1.388 . S
N18 Co1 1.993 . S
N18 N17 1.388 . S
N18 C19 1.346 1_455 S
C19 N18 1.346 1_655 S
C19 C20 1.396 . S
C19 C29 1.510 . S
C20 C16 1.401 . S
C20 C19 1.396 . S
C21 C16 1.499 . S
C21 H22 0.959 . S
C21 H23 0.960 . S
C21 H24 0.961 . S
H22 C21 0.959 . S
H23 C21 0.960 . S
H24 C21 0.961 . S
O25 Co0 1.967 . S
O25 C33 1.258 . S
O26 Co1 1.941 . S
O26 C33 1.266 . S
H27 C29 0.959 . S
H28 C29 0.961 . S
C29 C19 1.510 . S
C29 H27 0.959 . S
C29 H28 0.961 . S
C29 H30 0.960 . S
H30 C29 0.960 . S
H31 N11 0.862 . S
O32 Co0 1.920 . S
O32 C5 1.289 . S
C33 O25 1.258 . S
C33 O26 1.266 . S
Co34 O37 1.970 . S
Co34 N51 1.989 . S
Co34 O59 1.967 . S
Co34 O66 1.920 . S
Co35 O38 1.966 . S
Co35 N44 2.022 . S
Co35 N52 1.993 . S
Co35 O60 1.941 . S
C36 O37 1.258 . S
C36 O38 1.263 . S
O37 Co34 1.970 . S
O37 C36 1.258 . S
O38 Co35 1.966 . S
O38 C36 1.263 . S
C39 O40 1.235 . S
C39 O66 1.289 . S
O40 C39 1.235 . S
C41 C43 1.400 . S
C41 N44 1.351 . S
C41 C46 1.501 . S
C42 C43 1.387 . S
C42 N45 1.341 . S
C43 C41 1.400 . S
C43 C42 1.387 . S
N44 Co35 2.022 . S
N44 C41 1.351 . S
N44 N45 1.365 . S
N45 C42 1.341 . S
N45 N44 1.365 . S
N45 H65 0.862 . S
C46 C41 1.501 . S
C46 H47 0.961 . S
C46 H48 0.961 . S
C46 H49 0.960 . S
H47 C46 0.961 . S
H48 C46 0.961 . S
H49 C46 0.960 . S
C50 N51 1.342 . S
C50 C54 1.401 . S
C50 C55 1.499 . S
N51 Co34 1.989 . S
N51 C50 1.342 . S
N51 N52 1.388 . S
N52 Co35 1.993 . S
N52 N51 1.388 . S
N52 C53 1.346 . S
C53 N52 1.346 . S
C53 C54 1.396 . S
C53 C63 1.510 . S
C54 C50 1.401 . S
C54 C53 1.396 . S
C55 C50 1.499 . S
C55 H56 0.959 . S
C55 H57 0.960 . S
C55 H58 0.961 . S
H56 C55 0.959 . S
H57 C55 0.960 . S
H58 C55 0.961 . S
O59 Co34 1.967 . S
O59 C67 1.258 . S
O60 Co35 1.941 . S
O60 C67 1.266 . S
H61 C63 0.959 . S
H62 C63 0.961 . S
C63 C53 1.510 . S
C63 H61 0.959 . S
C63 H62 0.961 . S
C63 H64 0.960 . S
H64 C63 0.960 . S
H65 N45 0.862 . S
O66 Co34 1.920 . S
O66 C39 1.289 . S
C67 O59 1.258 . S
C67 O60 1.266 . S
Co68 O71 1.970 . S
Co68 N85 1.989 . S
Co68 O93 1.967 . S
Co68 O100 1.920 . S
Co69 O72 1.966 . S
Co69 N78 2.022 . S
Co69 N86 1.993 . S
Co69 O94 1.941 . S
C70 O71 1.258 . S
C70 O72 1.263 . S
O71 Co68 1.970 . S
O71 C70 1.258 . S
O72 Co69 1.966 . S
O72 C70 1.263 . S
C73 O74 1.235 . S
C73 O100 1.289 . S
O74 C73 1.235 . S
C75 C77 1.400 . S
C75 N78 1.351 . S
C75 C80 1.501 . S
C76 C77 1.387 . S
C76 N79 1.341 . S
C77 C75 1.400 . S
C77 C76 1.387 . S
N78 Co69 2.022 . S
N78 C75 1.351 . S
N78 N79 1.365 . S
N79 C76 1.341 . S
N79 N78 1.365 . S
N79 H99 0.862 . S
C80 C75 1.501 . S
C80 H81 0.961 . S
C80 H82 0.961 . S
C80 H83 0.960 . S
H81 C80 0.961 . S
H82 C80 0.961 . S
H83 C80 0.960 . S
C84 N85 1.342 1_455 S
C84 C88 1.401 . S
C84 C89 1.499 . S
N85 Co68 1.989 . S
N85 C84 1.342 1_655 S
N85 N86 1.388 . S
N86 Co69 1.993 . S
N86 N85 1.388 . S
N86 C87 1.346 1_655 S
C87 N86 1.346 1_455 S
C87 C88 1.396 . S
C87 C97 1.510 . S
C88 C84 1.401 . S
C88 C87 1.396 . S
C89 C84 1.499 . S
C89 H90 0.959 . S
C89 H91 0.960 . S
C89 H92 0.961 . S
H90 C89 0.959 . S
H91 C89 0.960 . S
H92 C89 0.961 . S
O93 Co68 1.967 . S
O93 C101 1.258 . S
O94 Co69 1.941 . S
O94 C101 1.266 . S
H95 C97 0.959 . S
H96 C97 0.961 . S
C97 C87 1.510 . S
C97 H95 0.959 . S
C97 H96 0.961 . S
C97 H98 0.960 . S
H98 C97 0.960 . S
H99 N79 0.862 . S
O100 Co68 1.920 . S
O100 C73 1.289 . S
C101 O93 1.258 . S
C101 O94 1.266 . S
Co102 O105 1.970 . S
Co102 N119 1.989 . S
Co102 O127 1.967 . S
Co102 O134 1.920 . S
Co103 O106 1.966 . S
Co103 N112 2.022 . S
Co103 N120 1.993 . S
Co103 O128 1.941 . S
C104 O105 1.258 . S
C104 O106 1.263 . S
O105 Co102 1.970 . S
O105 C104 1.258 . S
O106 Co103 1.966 . S
O106 C104 1.263 . S
C107 O108 1.235 . S
C107 O134 1.289 . S
O108 C107 1.235 . S
C109 C111 1.400 . S
C109 N112 1.351 . S
C109 C114 1.501 . S
C110 C111 1.387 . S
C110 N113 1.341 . S
C111 C109 1.400 . S
C111 C110 1.387 . S
N112 Co103 2.022 . S
N112 C109 1.351 . S
N112 N113 1.365 . S
N113 C110 1.341 . S
N113 N112 1.365 . S
N113 H133 0.862 . S
C114 C109 1.501 . S
C114 H115 0.961 . S
C114 H116 0.961 . S
C114 H117 0.960 . S
H115 C114 0.961 . S
H116 C114 0.961 . S
H117 C114 0.960 . S
C118 N119 1.342 . S
C118 C122 1.401 . S
C118 C123 1.499 . S
N119 Co102 1.989 . S
N119 C118 1.342 . S
N119 N120 1.388 . S
N120 Co103 1.993 . S
N120 N119 1.388 . S
N120 C121 1.346 . S
C121 N120 1.346 . S
C121 C122 1.396 . S
C121 C131 1.510 . S
C122 C118 1.401 . S
C122 C121 1.396 . S
C123 C118 1.499 . S
C123 H124 0.959 . S
C123 H125 0.960 . S
C123 H126 0.961 . S
H124 C123 0.959 . S
H125 C123 0.960 . S
H126 C123 0.961 . S
O127 Co102 1.967 . S
O127 C135 1.258 . S
O128 Co103 1.941 . S
O128 C135 1.266 . S
H129 C131 0.959 . S
H130 C131 0.961 . S
C131 C121 1.510 . S
C131 H129 0.959 . S
C131 H130 0.961 . S
C131 H132 0.960 . S
H132 C131 0.960 . S
H133 N113 0.862 . S
O134 Co102 1.920 . S
O134 C107 1.289 . S
C135 O127 1.258 . S
C135 O128 1.266 . S
Co136 O139 1.970 . S
Co136 N153 1.989 . S
Co136 O161 1.967 . S
Co136 O168 1.920 . S
Co137 O140 1.966 . S
Co137 N146 2.022 . S
Co137 N154 1.993 . S
Co137 O162 1.941 . S
C138 O139 1.258 . S
C138 O140 1.263 . S
O139 Co136 1.970 . S
O139 C138 1.258 . S
O140 Co137 1.966 . S
O140 C138 1.263 . S
C141 O142 1.235 . S
C141 O168 1.289 . S
O142 C141 1.235 . S
C143 C145 1.400 . S
C143 N146 1.351 . S
C143 C148 1.501 . S
C144 C145 1.387 . S
C144 N147 1.341 . S
C145 C143 1.400 . S
C145 C144 1.387 . S
N146 Co137 2.022 . S
N146 C143 1.351 . S
N146 N147 1.365 . S
N147 C144 1.341 . S
N147 N146 1.365 . S
N147 H167 0.862 . S
C148 C143 1.501 . S
C148 H149 0.961 . S
C148 H150 0.961 . S
C148 H151 0.960 . S
H149 C148 0.961 . S
H150 C148 0.961 . S
H151 C148 0.960 . S
C152 N153 1.342 . S
C152 C156 1.401 . S
C152 C157 1.499 . S
N153 Co136 1.989 . S
N153 C152 1.342 . S
N153 N154 1.388 . S
N154 Co137 1.993 . S
N154 N153 1.388 . S
N154 C155 1.346 . S
C155 N154 1.346 . S
C155 C156 1.396 . S
C155 C165 1.510 . S
C156 C152 1.401 . S
C156 C155 1.396 . S
C157 C152 1.499 . S
C157 H158 0.959 . S
C157 H159 0.960 . S
C157 H160 0.961 . S
H158 C157 0.959 . S
H159 C157 0.960 . S
H160 C157 0.961 . S
O161 Co136 1.967 . S
O161 C169 1.258 . S
O162 Co137 1.941 . S
O162 C169 1.266 . S
H163 C165 0.959 . S
H164 C165 0.961 . S
C165 C155 1.510 . S
C165 H163 0.959 . S
C165 H164 0.961 . S
C165 H166 0.960 . S
H166 C165 0.960 . S
H167 N147 0.862 . S
O168 Co136 1.920 . S
O168 C141 1.289 . S
C169 O161 1.258 . S
C169 O162 1.266 . S
Co170 O173 1.970 . S
Co170 N187 1.989 . S
Co170 O195 1.967 . S
Co170 O202 1.920 . S
Co171 O174 1.966 . S
Co171 N180 2.022 . S
Co171 N188 1.993 . S
Co171 O196 1.941 . S
C172 O173 1.258 . S
C172 O174 1.263 . S
O173 Co170 1.970 . S
O173 C172 1.258 . S
O174 Co171 1.966 . S
O174 C172 1.263 . S
C175 O176 1.235 . S
C175 O202 1.289 . S
O176 C175 1.235 . S
C177 C179 1.400 . S
C177 N180 1.351 . S
C177 C182 1.501 . S
C178 C179 1.387 . S
C178 N181 1.341 . S
C179 C177 1.400 . S
C179 C178 1.387 . S
N180 Co171 2.022 . S
N180 C177 1.351 . S
N180 N181 1.365 . S
N181 C178 1.341 . S
N181 N180 1.365 . S
N181 H201 0.862 . S
C182 C177 1.501 . S
C182 H183 0.961 . S
C182 H184 0.961 . S
C182 H185 0.960 . S
H183 C182 0.961 . S
H184 C182 0.961 . S
H185 C182 0.960 . S
C186 N187 1.342 1_565 S
C186 C190 1.401 . S
C186 C191 1.499 . S
N187 Co170 1.989 . S
N187 C186 1.342 1_545 S
N187 N188 1.388 . S
N188 Co171 1.993 . S
N188 N187 1.388 . S
N188 C189 1.346 1_545 S
C189 N188 1.346 1_565 S
C189 C190 1.396 . S
C189 C199 1.510 . S
C190 C186 1.401 . S
C190 C189 1.396 . S
C191 C186 1.499 . S
C191 H192 0.959 . S
C191 H193 0.960 . S
C191 H194 0.961 . S
H192 C191 0.959 . S
H193 C191 0.960 . S
H194 C191 0.961 . S
O195 Co170 1.967 . S
O195 C203 1.258 . S
O196 Co171 1.941 . S
O196 C203 1.266 . S
H197 C199 0.959 . S
H198 C199 0.961 . S
C199 C189 1.510 . S
C199 H197 0.959 . S
C199 H198 0.961 . S
C199 H200 0.960 . S
H200 C199 0.960 . S
H201 N181 0.862 . S
O202 Co170 1.920 . S
O202 C175 1.289 . S
C203 O195 1.258 . S
C203 O196 1.266 . S
Co204 O207 1.970 . S
Co204 N221 1.989 . S
Co204 O229 1.967 . S
Co204 O236 1.920 . S
Co205 O208 1.966 . S
Co205 N214 2.022 . S
Co205 N222 1.993 . S
Co205 O230 1.941 . S
C206 O207 1.258 . S
C206 O208 1.263 . S
O207 Co204 1.970 . S
O207 C206 1.258 . S
O208 Co205 1.966 . S
O208 C206 1.263 . S
C209 O210 1.235 . S
C209 O236 1.289 . S
O210 C209 1.235 . S
C211 C213 1.400 . S
C211 N214 1.351 . S
C211 C216 1.501 . S
C212 C213 1.387 . S
C212 N215 1.341 . S
C213 C211 1.400 . S
C213 C212 1.387 . S
N214 Co205 2.022 . S
N214 C211 1.351 . S
N214 N215 1.365 . S
N215 C212 1.341 . S
N215 N214 1.365 . S
N215 H235 0.862 . S
C216 C211 1.501 . S
C216 H217 0.961 . S
C216 H218 0.961 . S
C216 H219 0.960 . S
H217 C216 0.961 . S
H218 C216 0.961 . S
H219 C216 0.960 . S
C220 N221 1.342 . S
C220 C224 1.401 . S
C220 C225 1.499 . S
N221 Co204 1.989 . S
N221 C220 1.342 . S
N221 N222 1.388 . S
N222 Co205 1.993 . S
N222 N221 1.388 . S
N222 C223 1.346 . S
C223 N222 1.346 . S
C223 C224 1.396 . S
C223 C233 1.510 . S
C224 C220 1.401 . S
C224 C223 1.396 . S
C225 C220 1.499 . S
C225 H226 0.959 . S
C225 H227 0.960 . S
C225 H228 0.961 . S
H226 C225 0.959 . S
H227 C225 0.960 . S
H228 C225 0.961 . S
O229 Co204 1.967 . S
O229 C237 1.258 . S
O230 Co205 1.941 . S
O230 C237 1.266 . S
H231 C233 0.959 . S
H232 C233 0.961 . S
C233 C223 1.510 . S
C233 H231 0.959 . S
C233 H232 0.961 . S
C233 H234 0.960 . S
H234 C233 0.960 . S
H235 N215 0.862 . S
O236 Co204 1.920 . S
O236 C209 1.289 . S
C237 O229 1.258 . S
C237 O230 1.266 . S
Co238 O241 1.970 . S
Co238 N255 1.989 . S
Co238 O263 1.967 . S
Co238 O270 1.920 . S
Co239 O242 1.966 . S
Co239 N248 2.022 . S
Co239 N256 1.993 . S
Co239 O264 1.941 . S
C240 O241 1.258 . S
C240 O242 1.263 . S
O241 Co238 1.970 . S
O241 C240 1.258 . S
O242 Co239 1.966 . S
O242 C240 1.263 . S
C243 O244 1.235 . S
C243 O270 1.289 . S
O244 C243 1.235 . S
C245 C247 1.400 . S
C245 N248 1.351 . S
C245 C250 1.501 . S
C246 C247 1.387 . S
C246 N249 1.341 . S
C247 C245 1.400 . S
C247 C246 1.387 . S
N248 Co239 2.022 . S
N248 C245 1.351 . S
N248 N249 1.365 . S
N249 C246 1.341 . S
N249 N248 1.365 . S
N249 H269 0.862 . S
C250 C245 1.501 . S
C250 H251 0.961 . S
C250 H252 0.961 . S
C250 H253 0.960 . S
H251 C250 0.961 . S
H252 C250 0.961 . S
H253 C250 0.960 . S
C254 N255 1.342 1_545 S
C254 C258 1.401 . S
C254 C259 1.499 . S
N255 Co238 1.989 . S
N255 C254 1.342 1_565 S
N255 N256 1.388 . S
N256 Co239 1.993 . S
N256 N255 1.388 . S
N256 C257 1.346 1_565 S
C257 N256 1.346 1_545 S
C257 C258 1.396 . S
C257 C267 1.510 . S
C258 C254 1.401 . S
C258 C257 1.396 . S
C259 C254 1.499 . S
C259 H260 0.959 . S
C259 H261 0.960 . S
C259 H262 0.961 . S
H260 C259 0.959 . S
H261 C259 0.960 . S
H262 C259 0.961 . S
O263 Co238 1.967 . S
O263 C271 1.258 . S
O264 Co239 1.941 . S
O264 C271 1.266 . S
H265 C267 0.959 . S
H266 C267 0.961 . S
C267 C257 1.510 . S
C267 H265 0.959 . S
C267 H266 0.961 . S
C267 H268 0.960 . S
H268 C267 0.960 . S
H269 N249 0.862 . S
O270 Co238 1.920 . S
O270 C243 1.289 . S
C271 O263 1.258 . S
C271 O264 1.266 . S
H272 C280 0.950 . S
H273 C285 0.950 . S
H274 C282 0.950 1_455 S
H275 C284 0.950 . S
H276 C286 0.950 . S
H277 C288 0.950 1_655 S
H278 C290 0.950 . S
H279 C291 0.950 . S
C280 H272 0.950 . S
C280 C281 1.386 . S
C280 C282 1.391 . S
C281 C280 1.386 . S
C281 C285 1.393 . S
C282 H274 0.950 1_655 S
C282 C280 1.391 . S
C282 C283 1.400 . S
C283 C282 1.400 . S
C283 C284 1.398 . S
C283 C289 1.491 1_655 S
C284 H275 0.950 . S
C284 C283 1.398 . S
C284 C285 1.391 . S
C285 H273 0.950 . S
C285 C281 1.393 . S
C285 C284 1.391 . S
C286 H276 0.950 . S
C286 C287 1.386 . S
C286 C288 1.391 . S
C287 C286 1.386 . S
C287 C291 1.393 . S
C288 H277 0.950 1_455 S
C288 C286 1.391 . S
C288 C289 1.400 . S
C289 C283 1.491 1_455 S
C289 C288 1.400 . S
C289 C290 1.398 . S
C290 H278 0.950 . S
C290 C289 1.398 . S
C290 C291 1.391 . S
C291 H279 0.950 . S
C291 C287 1.393 . S
C291 C290 1.391 . S
H292 C300 0.950 . S
H293 C305 0.950 . S
H294 C302 0.950 . S
H295 C304 0.950 . S
H296 C306 0.950 . S
H297 C308 0.950 . S
H298 C310 0.950 . S
H299 C311 0.950 . S
C300 H292 0.950 . S
C300 C301 1.386 . S
C300 C302 1.391 . S
C301 C300 1.386 . S
C301 C305 1.393 . S
C302 H294 0.950 . S
C302 C300 1.391 . S
C302 C303 1.400 . S
C303 C302 1.400 . S
C303 C304 1.398 . S
C303 C309 1.491 1_655 S
C304 H295 0.950 . S
C304 C303 1.398 . S
C304 C305 1.391 . S
C305 H293 0.950 . S
C305 C301 1.393 . S
C305 C304 1.391 . S
C306 H296 0.950 . S
C306 C307 1.386 . S
C306 C308 1.391 . S
C307 C306 1.386 . S
C307 C311 1.393 . S
C308 H297 0.950 . S
C308 C306 1.391 . S
C308 C309 1.400 . S
C309 C303 1.491 1_455 S
C309 C308 1.400 . S
C309 C310 1.398 . S
C310 H298 0.950 . S
C310 C309 1.398 . S
C310 C311 1.391 . S
C311 H299 0.950 . S
C311 C307 1.393 . S
C311 C310 1.391 . S
H312 C320 0.950 . S
H313 C325 0.950 . S
H314 C322 0.950 . S
H315 C324 0.950 . S
H316 C326 0.950 . S
H317 C328 0.950 . S
H318 C330 0.950 . S
H319 C331 0.950 . S
C320 H312 0.950 . S
C320 C321 1.386 . S
C320 C322 1.391 . S
C321 C320 1.386 . S
C321 C325 1.393 . S
C322 H314 0.950 . S
C322 C320 1.391 . S
C322 C323 1.400 . S
C323 C322 1.400 . S
C323 C324 1.398 . S
C323 C329 1.491 1_565 S
C324 H315 0.950 . S
C324 C323 1.398 . S
C324 C325 1.391 . S
C325 H313 0.950 . S
C325 C321 1.393 . S
C325 C324 1.391 . S
C326 H316 0.950 . S
C326 C327 1.386 . S
C326 C328 1.391 . S
C327 C326 1.386 . S
C327 C331 1.393 . S
C328 H317 0.950 . S
C328 C326 1.391 . S
C328 C329 1.400 . S
C329 C323 1.491 1_545 S
C329 C328 1.400 . S
C329 C330 1.398 . S
C330 H318 0.950 . S
C330 C329 1.398 . S
C330 C331 1.391 . S
C331 H319 0.950 . S
C331 C327 1.393 . S
C331 C330 1.391 . S
H332 C340 0.950 . S
H333 C345 0.950 . S
H334 C342 0.950 . S
H335 C344 0.950 . S
H336 C346 0.950 . S
H337 C348 0.950 . S
H338 C350 0.950 . S
H339 C351 0.950 . S
C340 H332 0.950 . S
C340 C341 1.386 . S
C340 C342 1.391 . S
C341 C340 1.386 . S
C341 C345 1.393 1_565 S
C342 H334 0.950 . S
C342 C340 1.391 . S
C342 C343 1.400 . S
C343 C342 1.400 . S
C343 C344 1.398 1_565 S
C343 C349 1.491 1_565 S
C344 H335 0.950 . S
C344 C343 1.398 1_545 S
C344 C345 1.391 . S
C345 H333 0.950 . S
C345 C341 1.393 1_545 S
C345 C344 1.391 . S
C346 H336 0.950 . S
C346 C347 1.386 . S
C346 C348 1.391 . S
C347 C346 1.386 . S
C347 C351 1.393 1_545 S
C348 H337 0.950 . S
C348 C346 1.391 . S
C348 C349 1.400 . S
C349 C343 1.491 1_545 S
C349 C348 1.400 . S
C349 C350 1.398 1_545 S
C350 H338 0.950 . S
C350 C349 1.398 1_565 S
C350 C351 1.391 . S
C351 H339 0.950 . S
C351 C347 1.393 1_565 S
C351 C350 1.391 . S
H352 C360 0.950 . S
H353 C365 0.950 . S
H354 C362 0.950 . S
H355 C364 0.950 . S
H356 C366 0.950 . S
H357 C368 0.950 . S
H358 C370 0.950 . S
H359 C371 0.950 . S
C360 H352 0.950 . S
C360 C361 1.386 . S
C360 C362 1.391 . S
C361 C360 1.386 . S
C361 C365 1.393 . S
C362 H354 0.950 . S
C362 C360 1.391 . S
C362 C363 1.400 . S
C363 C362 1.400 . S
C363 C364 1.398 . S
C363 C369 1.491 . S
C364 H355 0.950 . S
C364 C363 1.398 . S
C364 C365 1.391 . S
C365 H353 0.950 . S
C365 C361 1.393 . S
C365 C364 1.391 . S
C366 H356 0.950 . S
C366 C367 1.386 . S
C366 C368 1.391 . S
C367 C366 1.386 . S
C367 C371 1.393 . S
C368 H357 0.950 . S
C368 C366 1.391 . S
C368 C369 1.400 . S
C369 C363 1.491 . S
C369 C368 1.400 . S
C369 C370 1.398 . S
C370 H358 0.950 . S
C370 C369 1.398 . S
C370 C371 1.391 . S
C371 H359 0.950 . S
C371 C367 1.393 . S
C371 C370 1.391 . S
H372 C380 0.950 . S
H373 C385 0.950 . S
H374 C382 0.950 . S
H375 C384 0.950 . S
H376 C386 0.950 . S
H377 C388 0.950 . S
H378 C390 0.950 . S
H379 C391 0.950 . S
C380 H372 0.950 . S
C380 C381 1.386 . S
C380 C382 1.391 . S
C381 C380 1.386 . S
C381 C385 1.393 . S
C382 H374 0.950 . S
C382 C380 1.391 . S
C382 C383 1.400 . S
C383 C382 1.400 . S
C383 C384 1.398 . S
C383 C389 1.491 . S
C384 H375 0.950 . S
C384 C383 1.398 . S
C384 C385 1.391 . S
C385 H373 0.950 . S
C385 C381 1.393 . S
C385 C384 1.391 . S
C386 H376 0.950 . S
C386 C387 1.386 . S
C386 C388 1.391 . S
C387 C386 1.386 . S
C387 C391 1.393 . S
C388 H377 0.950 . S
C388 C386 1.391 . S
C388 C389 1.400 . S
C389 C383 1.491 . S
C389 C388 1.400 . S
C389 C390 1.398 . S
C390 H378 0.950 . S
C390 C389 1.398 . S
C390 C391 1.391 . S
C391 H379 0.950 . S
C391 C387 1.393 . S
C391 C390 1.391 . S
H392 C400 0.950 . S
H393 C405 0.950 . S
H394 C402 0.950 . S
H395 C404 0.950 . S
H396 C406 0.950 . S
H397 C408 0.950 . S
H398 C410 0.950 . S
H399 C411 0.950 . S
C400 H392 0.950 . S
C400 C401 1.386 . S
C400 C402 1.391 . S
C401 C400 1.386 . S
C401 C405 1.393 . S
C402 H394 0.950 . S
C402 C400 1.391 . S
C402 C403 1.400 . S
C403 C402 1.400 . S
C403 C404 1.398 . S
C403 C409 1.491 . S
C404 H395 0.950 . S
C404 C403 1.398 . S
C404 C405 1.391 . S
C405 H393 0.950 . S
C405 C401 1.393 . S
C405 C404 1.391 . S
C406 H396 0.950 . S
C406 C407 1.386 . S
C406 C408 1.391 . S
C407 C406 1.386 . S
C407 C411 1.393 . S
C408 H397 0.950 . S
C408 C406 1.391 . S
C408 C409 1.400 . S
C409 C403 1.491 . S
C409 C408 1.400 . S
C409 C410 1.398 . S
C410 H398 0.950 . S
C410 C409 1.398 . S
C410 C411 1.391 . S
C411 H399 0.950 . S
C411 C407 1.393 . S
C411 C410 1.391 . S
H412 C420 0.950 . S
H413 C425 0.950 . S
H414 C422 0.950 . S
H415 C424 0.950 . S
H416 C426 0.950 . S
H417 C428 0.950 . S
H418 C430 0.950 . S
H419 C431 0.950 . S
C420 H412 0.950 . S
C420 C421 1.386 . S
C420 C422 1.391 . S
C421 C420 1.386 . S
C421 C425 1.393 . S
C422 H414 0.950 . S
C422 C420 1.391 . S
C422 C423 1.400 . S
C423 C422 1.400 . S
C423 C424 1.398 . S
C423 C429 1.491 . S
C424 H415 0.950 . S
C424 C423 1.398 . S
C424 C425 1.391 . S
C425 H413 0.950 . S
C425 C421 1.393 . S
C425 C424 1.391 . S
C426 H416 0.950 . S
C426 C427 1.386 . S
C426 C428 1.391 . S
C427 C426 1.386 . S
C427 C431 1.393 . S
C428 H417 0.950 . S
C428 C426 1.391 . S
C428 C429 1.400 . S
C429 C423 1.491 . S
C429 C428 1.400 . S
C429 C430 1.398 . S
C430 H418 0.950 . S
C430 C429 1.398 . S
C430 C431 1.391 . S
C431 H419 0.950 . S
C431 C427 1.393 . S
C431 C430 1.391 . S
H432 C440 0.950 . S
H433 C445 0.950 . S
H434 C442 0.950 . S
H435 C444 0.950 . S
H436 C446 0.950 . S
H437 C448 0.950 . S
H438 C450 0.950 . S
H439 C451 0.950 . S
C440 H432 0.950 . S
C440 C441 1.386 . S
C440 C442 1.391 . S
C441 C440 1.386 . S
C441 C445 1.393 . S
C442 H434 0.950 . S
C442 C440 1.391 . S
C442 C443 1.400 . S
C443 C442 1.400 . S
C443 C444 1.398 . S
C443 C449 1.491 . S
C444 H435 0.950 . S
C444 C443 1.398 . S
C444 C445 1.391 . S
C445 H433 0.950 . S
C445 C441 1.393 . S
C445 C444 1.391 . S
C446 H436 0.950 . S
C446 C447 1.386 . S
C446 C448 1.391 . S
C447 C446 1.386 . S
C447 C451 1.393 . S
C448 H437 0.950 . S
C448 C446 1.391 . S
C448 C449 1.400 . S
C449 C443 1.491 . S
C449 C448 1.400 . S
C449 C450 1.398 . S
C450 H438 0.950 . S
C450 C449 1.398 . S
C450 C451 1.391 . S
C451 H439 0.950 . S
C451 C447 1.393 . S
C451 C450 1.391 . S
H452 C460 0.950 . S
H453 C465 0.950 . S
H454 C462 0.950 . S
H455 C464 0.950 . S
H456 C466 0.950 . S
H457 C468 0.950 . S
H458 C470 0.950 . S
H459 C471 0.950 . S
C460 H452 0.950 . S
C460 C461 1.386 . S
C460 C462 1.391 . S
C461 C460 1.386 . S
C461 C465 1.393 . S
C462 H454 0.950 . S
C462 C460 1.391 . S
C462 C463 1.400 . S
C463 C462 1.400 . S
C463 C464 1.398 . S
C463 C469 1.491 . S
C464 H455 0.950 . S
C464 C463 1.398 . S
C464 C465 1.391 . S
C465 H453 0.950 . S
C465 C461 1.393 . S
C465 C464 1.391 . S
C466 H456 0.950 . S
C466 C467 1.386 . S
C466 C468 1.391 . S
C467 C466 1.386 . S
C467 C471 1.393 . S
C468 H457 0.950 . S
C468 C466 1.391 . S
C468 C469 1.400 . S
C469 C463 1.491 . S
C469 C468 1.400 . S
C469 C470 1.398 . S
C470 H458 0.950 . S
C470 C469 1.398 . S
C470 C471 1.391 . S
C471 H459 0.950 . S
C471 C467 1.393 . S
C471 C470 1.391 . S
H472 C480 0.950 . S
H473 C485 0.950 . S
H474 C482 0.950 . S
H475 C484 0.950 . S
H476 C486 0.950 . S
H477 C488 0.950 . S
H478 C490 0.950 . S
H479 C491 0.950 . S
C480 H472 0.950 . S
C480 C481 1.386 . S
C480 C482 1.391 . S
C481 C480 1.386 . S
C481 C485 1.393 . S
C482 H474 0.950 . S
C482 C480 1.391 . S
C482 C483 1.400 . S
C483 C482 1.400 . S
C483 C484 1.398 . S
C483 C489 1.491 . S
C484 H475 0.950 . S
C484 C483 1.398 . S
C484 C485 1.391 . S
C485 H473 0.950 . S
C485 C481 1.393 . S
C485 C484 1.391 . S
C486 H476 0.950 . S
C486 C487 1.386 . S
C486 C488 1.391 . S
C487 C486 1.386 . S
C487 C491 1.393 . S
C488 H477 0.950 . S
C488 C486 1.391 . S
C488 C489 1.400 . S
C489 C483 1.491 . S
C489 C488 1.400 . S
C489 C490 1.398 . S
C490 H478 0.950 . S
C490 C489 1.398 . S
C490 C491 1.391 . S
C491 H479 0.950 . S
C491 C487 1.393 . S
C491 C490 1.391 . S
H492 C500 0.950 . S
H493 C505 0.950 . S
H494 C502 0.950 . S
H495 C504 0.950 . S
H496 C506 0.950 . S
H497 C508 0.950 . S
H498 C510 0.950 . S
H499 C511 0.950 . S
C500 H492 0.950 . S
C500 C501 1.386 . S
C500 C502 1.391 . S
C501 C500 1.386 . S
C501 C505 1.393 . S
C502 H494 0.950 . S
C502 C500 1.391 . S
C502 C503 1.400 . S
C503 C502 1.400 . S
C503 C504 1.398 . S
C503 C509 1.491 . S
C504 H495 0.950 . S
C504 C503 1.398 . S
C504 C505 1.391 . S
C505 H493 0.950 . S
C505 C501 1.393 . S
C505 C504 1.391 . S
C506 H496 0.950 . S
C506 C507 1.386 . S
C506 C508 1.391 . S
C507 C506 1.386 . S
C507 C511 1.393 . S
C508 H497 0.950 . S
C508 C506 1.391 . S
C508 C509 1.400 . S
C509 C503 1.491 . S
C509 C508 1.400 . S
C509 C510 1.398 . S
C510 H498 0.950 . S
C510 C509 1.398 . S
C510 C511 1.391 . S
C511 H499 0.950 . S
C511 C507 1.393 . S
C511 C510 1.391 . S
H512 C520 0.950 . S
H513 C525 0.950 . S
H514 C522 0.950 . S
H515 C524 0.950 . S
H516 C526 0.950 . S
H517 C528 0.950 . S
H518 C530 0.950 . S
H519 C531 0.950 . S
C520 H512 0.950 . S
C520 C521 1.386 . S
C520 C522 1.391 . S
C521 C520 1.386 . S
C521 C525 1.393 . S
C522 H514 0.950 . S
C522 C520 1.391 . S
C522 C523 1.400 . S
C523 C522 1.400 . S
C523 C524 1.398 . S
C523 C529 1.491 . S
C524 H515 0.950 . S
C524 C523 1.398 . S
C524 C525 1.391 . S
C525 H513 0.950 . S
C525 C521 1.393 . S
C525 C524 1.391 . S
C526 H516 0.950 . S
C526 C527 1.386 . S
C526 C528 1.391 . S
C527 C526 1.386 . S
C527 C531 1.393 . S
C528 H517 0.950 . S
C528 C526 1.391 . S
C528 C529 1.400 . S
C529 C523 1.491 . S
C529 C528 1.400 . S
C529 C530 1.398 . S
C530 H518 0.950 . S
C530 C529 1.398 . S
C530 C531 1.391 . S
C531 H519 0.950 . S
C531 C527 1.393 . S
C531 C530 1.391 . S
H532 C540 0.950 . S
H533 C545 0.950 . S
H534 C542 0.950 . S
H535 C544 0.950 . S
H536 C546 0.950 . S
H537 C548 0.950 . S
H538 C550 0.950 . S
H539 C551 0.950 . S
C540 H532 0.950 . S
C540 C541 1.386 . S
C540 C542 1.391 . S
C541 C540 1.386 . S
C541 C545 1.393 . S
C542 H534 0.950 . S
C542 C540 1.391 . S
C542 C543 1.400 . S
C543 C542 1.400 . S
C543 C544 1.398 . S
C543 C549 1.491 1_554 S
C544 H535 0.950 . S
C544 C543 1.398 . S
C544 C545 1.391 . S
C545 H533 0.950 . S
C545 C541 1.393 . S
C545 C544 1.391 . S
C546 H536 0.950 . S
C546 C547 1.386 . S
C546 C548 1.391 . S
C547 C546 1.386 . S
C547 C551 1.393 . S
C548 H537 0.950 . S
C548 C546 1.391 . S
C548 C549 1.400 . S
C549 C543 1.491 1_556 S
C549 C548 1.400 . S
C549 C550 1.398 . S
C550 H538 0.950 . S
C550 C549 1.398 . S
C550 C551 1.391 . S
C551 H539 0.950 . S
C551 C547 1.393 . S
C551 C550 1.391 . S
H552 C560 0.950 . S
H553 C565 0.950 . S
H554 C562 0.950 . S
H555 C564 0.950 . S
H556 C566 0.950 . S
H557 C568 0.950 . S
H558 C570 0.950 . S
H559 C571 0.950 . S
C560 H552 0.950 . S
C560 C561 1.386 . S
C560 C562 1.391 . S
C561 C560 1.386 . S
C561 C565 1.393 . S
C562 H554 0.950 . S
C562 C560 1.391 . S
C562 C563 1.400 . S
C563 C562 1.400 . S
C563 C564 1.398 . S
C563 C569 1.491 . S
C564 H555 0.950 . S
C564 C563 1.398 . S
C564 C565 1.391 . S
C565 H553 0.950 . S
C565 C561 1.393 . S
C565 C564 1.391 . S
C566 H556 0.950 . S
C566 C567 1.386 . S
C566 C568 1.391 . S
C567 C566 1.386 . S
C567 C571 1.393 . S
C568 H557 0.950 . S
C568 C566 1.391 . S
C568 C569 1.400 . S
C569 C563 1.491 . S
C569 C568 1.400 . S
C569 C570 1.398 . S
C570 H558 0.950 . S
C570 C569 1.398 . S
C570 C571 1.391 . S
C571 H559 0.950 . S
C571 C567 1.393 . S
C571 C570 1.391 . S
H572 C580 0.950 . S
H573 C585 0.950 . S
H574 C582 0.950 1_556 S
H575 C584 0.950 . S
H576 C586 0.950 . S
H577 C588 0.950 1_554 S
H578 C590 0.950 . S
H579 C591 0.950 . S
C580 H572 0.950 . S
C580 C581 1.386 . S
C580 C582 1.391 . S
C581 C580 1.386 . S
C581 C585 1.393 . S
C582 H574 0.950 1_554 S
C582 C580 1.391 . S
C582 C583 1.400 . S
C583 C582 1.400 . S
C583 C584 1.398 . S
C583 C589 1.491 1_554 S
C584 H575 0.950 . S
C584 C583 1.398 . S
C584 C585 1.391 . S
C585 H573 0.950 . S
C585 C581 1.393 . S
C585 C584 1.391 . S
C586 H576 0.950 . S
C586 C587 1.386 . S
C586 C588 1.391 . S
C587 C586 1.386 . S
C587 C591 1.393 . S
C588 H577 0.950 1_556 S
C588 C586 1.391 . S
C588 C589 1.400 . S
C589 C583 1.491 1_556 S
C589 C588 1.400 . S
C589 C590 1.398 . S
C590 H578 0.950 . S
C590 C589 1.398 . S
C590 C591 1.391 . S
C591 H579 0.950 . S
C591 C587 1.393 . S
C591 C590 1.391 . S
H592 C600 0.950 1_455 S
H593 C605 0.950 . S
H594 C602 0.950 . S
H595 C604 0.950 . S
H596 C606 0.950 1_655 S
H597 C608 0.950 . S
H598 C610 0.950 . S
H599 C611 0.950 . S
C600 H592 0.950 1_655 S
C600 C601 1.386 . S
C600 C602 1.391 1_655 S
C601 C600 1.386 . S
C601 C605 1.393 . S
C602 H594 0.950 . S
C602 C600 1.391 1_455 S
C602 C603 1.400 1_455 S
C603 C602 1.400 1_655 S
C603 C604 1.398 . S
C603 C609 1.491 1_665 S
C604 H595 0.950 . S
C604 C603 1.398 . S
C604 C605 1.391 . S
C605 H593 0.950 . S
C605 C601 1.393 . S
C605 C604 1.391 . S
C606 H596 0.950 1_455 S
C606 C607 1.386 . S
C606 C608 1.391 1_455 S
C607 C606 1.386 . S
C607 C611 1.393 . S
C608 H597 0.950 . S
C608 C606 1.391 1_655 S
C608 C609 1.400 1_655 S
C609 C603 1.491 1_445 S
C609 C608 1.400 1_455 S
C609 C610 1.398 . S
C610 H598 0.950 . S
C610 C609 1.398 . S
C610 C611 1.391 . S
C611 H599 0.950 . S
C611 C607 1.393 . S
C611 C610 1.391 . S
H612 C620 0.950 . S
H613 C625 0.950 . S
H614 C622 0.950 . S
H615 C624 0.950 . S
H616 C626 0.950 . S
H617 C628 0.950 . S
H618 C630 0.950 . S
H619 C631 0.950 . S
C620 H612 0.950 . S
C620 C621 1.386 . S
C620 C622 1.391 . S
C621 C620 1.386 . S
C621 C625 1.393 . S
C622 H614 0.950 . S
C622 C620 1.391 . S
C622 C623 1.400 . S
C623 C622 1.400 . S
C623 C624 1.398 . S
C623 C629 1.491 . S
C624 H615 0.950 . S
C624 C623 1.398 . S
C624 C625 1.391 . S
C625 H613 0.950 . S
C625 C621 1.393 . S
C625 C624 1.391 . S
C626 H616 0.950 . S
C626 C627 1.386 . S
C626 C628 1.391 . S
C627 C626 1.386 . S
C627 C631 1.393 . S
C628 H617 0.950 . S
C628 C626 1.391 . S
C628 C629 1.400 . S
C629 C623 1.491 . S
C629 C628 1.400 . S
C629 C630 1.398 . S
C630 H618 0.950 . S
C630 C629 1.398 . S
C630 C631 1.391 . S
C631 H619 0.950 . S
C631 C627 1.393 . S
C631 C630 1.391 . S
H632 C640 0.950 . S
H633 C645 0.950 . S
H634 C642 0.950 . S
H635 C644 0.950 . S
H636 C646 0.950 . S
H637 C648 0.950 . S
H638 C650 0.950 . S
H639 C651 0.950 . S
C640 H632 0.950 . S
C640 C641 1.386 . S
C640 C642 1.391 . S
C641 C640 1.386 . S
C641 C645 1.393 . S
C642 H634 0.950 . S
C642 C640 1.391 . S
C642 C643 1.400 . S
C643 C642 1.400 . S
C643 C644 1.398 . S
C643 C649 1.491 . S
C644 H635 0.950 . S
C644 C643 1.398 . S
C644 C645 1.391 . S
C645 H633 0.950 . S
C645 C641 1.393 . S
C645 C644 1.391 . S
C646 H636 0.950 . S
C646 C647 1.386 . S
C646 C648 1.391 . S
C647 C646 1.386 . S
C647 C651 1.393 . S
C648 H637 0.950 . S
C648 C646 1.391 . S
C648 C649 1.400 . S
C649 C643 1.491 . S
C649 C648 1.400 . S
C649 C650 1.398 . S
C650 H638 0.950 . S
C650 C649 1.398 . S
C650 C651 1.391 . S
C651 H639 0.950 . S
C651 C647 1.393 . S
C651 C650 1.391 . S
H652 C660 0.950 . S
H653 C665 0.950 . S
H654 C662 0.950 1_565 S
H655 C664 0.950 . S
H656 C666 0.950 . S
H657 C668 0.950 1_545 S
H658 C670 0.950 . S
H659 C671 0.950 . S
C660 H652 0.950 . S
C660 C661 1.386 . S
C660 C662 1.391 . S
C661 C660 1.386 . S
C661 C665 1.393 . S
C662 H654 0.950 1_545 S
C662 C660 1.391 . S
C662 C663 1.400 . S
C663 C662 1.400 . S
C663 C664 1.398 . S
C663 C669 1.491 1_445 S
C664 H655 0.950 . S
C664 C663 1.398 . S
C664 C665 1.391 . S
C665 H653 0.950 . S
C665 C661 1.393 . S
C665 C664 1.391 . S
C666 H656 0.950 . S
C666 C667 1.386 . S
C666 C668 1.391 . S
C667 C666 1.386 . S
C667 C671 1.393 . S
C668 H657 0.950 1_565 S
C668 C666 1.391 . S
C668 C669 1.400 . S
C669 C663 1.491 1_665 S
C669 C668 1.400 . S
C669 C670 1.398 . S
C670 H658 0.950 . S
C670 C669 1.398 . S
C670 C671 1.391 . S
C671 H659 0.950 . S
C671 C667 1.393 . S
C671 C670 1.391 . S
C281 C77 0.475 . S
C287 C9 0.454 . S
C301 C111 0.514 . S
C307 C43 0.418 . S
C321 C213 0.446 . S
C327 C145 0.499 . S
C341 C247 0.418 . S
C347 C179 0.515 . S
C361 C156 2.423 . S
C367 C33 2.417 . S
C381 C190 2.415 . S
C387 C67 2.410 . S
C401 C224 2.414 . S
C407 C101 2.410 . S
C421 C135 2.412 . S
C427 C258 2.414 . S
C441 C20 2.423 . S
C447 C169 2.418 . S
C461 C54 2.415 . S
C467 C203 2.414 . S
C481 C88 2.422 . S
C487 C237 2.415 . S
C501 C271 2.410 . S
C507 C122 2.414 . S
C521 C2 1.726 . S
C527 C172 1.722 . S
C541 C206 1.735 . S
C547 C36 1.741 . S
C561 C240 1.723 . S
C567 C70 1.730 . S
C581 C138 1.722 . S
C587 C104 1.729 . S
C601 C73 0.462 . S
C607 C5 0.423 . S
C621 C39 0.466 . S
C627 C107 0.430 . S
C641 C209 0.456 . S
C647 C141 0.413 . S
C661 C175 0.468 . S
C667 C243 0.463 . S
