# Generated by pormake.
# Topology unf, (4)-cn, num edge types: 1
# Building blocks:
#     Node 0, Type 0, BuildingBlock: AZAVOO_clean_sbu_0, # of connection points: 4
#     Node 1, Type 0, BuildingBlock: AZAVOO_clean_sbu_0, # of connection points: 4
#     Node 2, Type 0, BuildingBlock: AZAVOO_clean_sbu_0, # of connection points: 4
#     Node 3, Type 0, BuildingBlock: AZAVOO_clean_sbu_0, # of connection points: 4
#     Node 4, Type 0, BuildingBlock: AZAVOO_clean_sbu_0, # of connection points: 4
#     Node 5, Type 0, BuildingBlock: AZAVOO_clean_sbu_0, # of connection points: 4
#     Node 6, Type 0, BuildingBlock: AZAVOO_clean_sbu_0, # of connection points: 4
#     Node 7, Type 0, BuildingBlock: AZAVOO_clean_sbu_0, # of connection points: 4
#     Node 8, Type 0, BuildingBlock: AZAVOO_clean_sbu_0, # of connection points: 4
#     Node 9, Type 0, BuildingBlock: AZAVOO_clean_sbu_0, # of connection points: 4
#     Node 10, Type 0, BuildingBlock: AZAVOO_clean_sbu_0, # of connection points: 4
#     Node 11, Type 0, BuildingBlock: AZAVOO_clean_sbu_0, # of connection points: 4
#     Edge 12, Type (0, 0), BuildingBlock: OJICUG_clean_linker_0, # of connection points: 2
#     Edge 13, Type (0, 0), BuildingBlock: OJICUG_clean_linker_0, # of connection points: 2
#     Edge 14, Type (0, 0), BuildingBlock: OJICUG_clean_linker_0, # of connection points: 2
#     Edge 15, Type (0, 0), BuildingBlock: OJICUG_clean_linker_0, # of connection points: 2
#     Edge 16, Type (0, 0), BuildingBlock: OJICUG_clean_linker_0, # of connection points: 2
#     Edge 17, Type (0, 0), BuildingBlock: OJICUG_clean_linker_0, # of connection points: 2
#     Edge 18, Type (0, 0), BuildingBlock: OJICUG_clean_linker_0, # of connection points: 2
#     Edge 19, Type (0, 0), BuildingBlock: OJICUG_clean_linker_0, # of connection points: 2
#     Edge 20, Type (0, 0), BuildingBlock: OJICUG_clean_linker_0, # of connection points: 2
#     Edge 21, Type (0, 0), BuildingBlock: OJICUG_clean_linker_0, # of connection points: 2
#     Edge 22, Type (0, 0), BuildingBlock: OJICUG_clean_linker_0, # of connection points: 2
#     Edge 23, Type (0, 0), BuildingBlock: OJICUG_clean_linker_0, # of connection points: 2
#     Edge 24, Type (0, 0), BuildingBlock: OJICUG_clean_linker_0, # of connection points: 2
#     Edge 25, Type (0, 0), BuildingBlock: OJICUG_clean_linker_0, # of connection points: 2
#     Edge 26, Type (0, 0), BuildingBlock: OJICUG_clean_linker_0, # of connection points: 2
#     Edge 27, Type (0, 0), BuildingBlock: OJICUG_clean_linker_0, # of connection points: 2
#     Edge 28, Type (0, 0), BuildingBlock: OJICUG_clean_linker_0, # of connection points: 2
#     Edge 29, Type (0, 0), BuildingBlock: OJICUG_clean_linker_0, # of connection points: 2
#     Edge 30, Type (0, 0), BuildingBlock: OJICUG_clean_linker_0, # of connection points: 2
#     Edge 31, Type (0, 0), BuildingBlock: OJICUG_clean_linker_0, # of connection points: 2
#     Edge 32, Type (0, 0), BuildingBlock: OJICUG_clean_linker_0, # of connection points: 2
#     Edge 33, Type (0, 0), BuildingBlock: OJICUG_clean_linker_0, # of connection points: 2
#     Edge 34, Type (0, 0), BuildingBlock: OJICUG_clean_linker_0, # of connection points: 2
#     Edge 35, Type (0, 0), BuildingBlock: OJICUG_clean_linker_0, # of connection points: 2
# Relax obj value: 0.239
# Max RMSD: 0.195
# Mean RMSD: 0.195
data_MOF--net-unf--node1-AZAVOO_clean_sbu_0--edge1-OJICUG_clean_linker_0
_symmetry_space_group_name_H-M    P1
_symmetry_Int_Tables_number       1
_symmetry_cell_setting            triclinic
loop_
_symmetry_equiv_pos_as_xyz
'x, y, z'
_cell_length_a     27.437737
_cell_length_b     27.479506
_cell_length_c     28.130066
_cell_angle_alpha  89.881664
_cell_angle_beta   90.074771
_cell_angle_gamma 119.87114
loop_
_atom_site_label
_atom_site_type_symbol
_atom_site_fract_x
_atom_site_fract_y
_atom_site_fract_z
_atom_type_partial_charge
Mg0 Mg 0.10631 0.3936 0.03998 0.0
O1 O 0.0187 0.31443 0.03118 0.0
O2 O 0.01466 0.23551 0.05842 0.0
Mg3 Mg 0.0912 0.27111 0.10651 0.0
C4 C -0.00665 0.26102 0.03613 0.0
C5 C 0.03686 0.43238 0.9751 0.0
O6 O 0.02689 0.38727 0.9513 0.0
O7 O 0.09819 0.41538 0.11821 0.0
O8 O 0.05556 0.32596 0.12629 0.0
O9 O 0.13426 0.36264 0.97788 0.0
O10 O 0.13911 0.33854 0.05217 0.0
C11 C 0.08614 0.37354 0.14477 0.0
C12 C 0.14511 0.33314 0.00751 0.0
O13 O 0.06937 0.44693 0.01112 0.0
Mg14 Mg 0.56001 0.70146 0.08261 0.0
O15 O 0.63943 0.69244 0.08545 0.0
O16 O 0.71849 0.77589 0.08591 0.0
Mg17 Mg 0.68561 0.82896 0.12045 0.0
C18 C 0.69285 0.72246 0.08179 0.0
C19 C 0.52416 0.58398 0.04175 0.0
O20 O 0.56535 0.61745 0.01332 0.0
O21 O 0.54616 0.70088 0.16434 0.0
O22 O 0.63651 0.74954 0.16264 0.0
O23 O 0.58571 0.736 0.00852 0.0
O24 O 0.6108 0.79008 0.07218 0.0
C25 C 0.59141 0.73721 0.18414 0.0
C26 C 0.61286 0.78572 0.02684 0.0
O27 O 0.50937 0.60555 0.07485 0.0
Mg28 Mg 0.22989 0.81229 0.03164 0.0
O29 O 0.23939 0.89556 0.05533 0.0
O30 O 0.15977 0.88491 0.08666 0.0
Mg31 Mg 0.09718 0.78967 0.08445 0.0
C32 C 0.21129 0.9156 0.07486 0.0
C33 C 0.34416 0.89548 -0.01245 0.0
O34 O 0.309 0.9068 0.96502 0.0
O35 O 0.23758 0.79383 0.10982 0.0
O36 O 0.15282 0.77485 0.13639 0.0
O37 O 0.19408 0.81683 0.96061 0.0
O38 O 0.14367 0.78023 0.02554 0.0
C39 C 0.20034 0.77774 0.1425 0.0
C40 C 0.14598 0.79477 0.98187 0.0
O41 O 0.32494 0.85687 0.01892 0.0
Mg42 Mg 0.58597 0.88174 0.42475 0.0
O43 O 0.66473 0.97003 0.43008 0.0
O44 O 0.7428 0.97378 0.40125 0.0
Mg45 Mg 0.70426 0.8972 0.35326 0.0
C46 C 0.71801 -0.0045 0.42387 0.0
C47 C 0.55056 0.94979 0.4935 0.0
O48 O 0.59576 0.95773 0.51626 0.0
O49 O 0.55801 0.88685 0.34776 0.0
O50 O 0.64708 0.93146 0.33692 0.0
O51 O 0.62386 0.85773 0.48476 0.0
O52 O 0.63902 0.84789 0.40904 0.0
C53 C 0.59891 0.89933 0.31991 0.0
C54 C 0.64857 0.84334 0.4531 0.0
O55 O 0.53475 0.91886 0.4566 0.0
Mg56 Mg 0.17906 0.75726 0.45077 0.0
O57 O 0.09517 0.74778 0.42846 0.0
O58 O 0.10553 0.82761 0.39793 0.0
Mg59 Mg 0.20092 0.88998 0.39872 0.0
C60 C 0.07487 0.77615 0.40977 0.0
C61 C 0.09597 0.64237 0.49428 0.0
O62 O 0.08444 0.67686 0.51747 0.0
O63 O 0.19627 0.74988 0.37227 0.0
O64 O 0.21469 0.83456 0.34611 0.0
O65 O 0.17537 0.79278 0.52206 0.0
O66 O 0.21127 0.84326 0.457 0.0
C67 C 0.21175 0.78716 0.33965 0.0
C68 C 0.19705 0.8408 0.50072 0.0
O69 O 0.13471 0.66234 0.46304 0.0
Mg70 Mg 0.28004 0.42249 0.38996 0.0
O71 O 0.29012 0.34385 0.39106 0.0
O72 O 0.20737 0.26382 0.39146 0.0
Mg73 Mg 0.15251 0.29376 0.35569 0.0
C74 C 0.26087 0.29057 0.39587 0.0
C75 C 0.39883 0.46168 0.43009 0.0
O76 O 0.36567 0.42192 0.45977 0.0
O77 O 0.27849 0.43093 0.30789 0.0
O78 O 0.23067 0.34051 0.31136 0.0
O79 O 0.24816 0.40271 0.46488 0.0
O80 O 0.19164 0.36959 0.40264 0.0
C81 C 0.24317 0.3849 0.28859 0.0
C82 C 0.19813 0.37119 0.44805 0.0
O83 O 0.37666 0.47488 0.39618 0.0
Mg84 Mg 0.81817 0.57392 0.91363 0.0
O85 O 0.90182 0.65538 0.91477 0.0
O86 O 0.89266 0.73159 0.91683 0.0
Mg87 Mg 0.79764 0.69734 0.90869 0.0
C88 C 0.92294 0.70835 0.91666 0.0
C89 C 0.9056 0.54145 0.94072 0.0
O90 O 0.91008 0.57878 0.97212 0.0
O91 O 0.81119 0.58549 0.8328 0.0
O92 O 0.79726 0.65906 0.83691 0.0
O93 O 0.8084 0.57823 -0.00674 0.0
O94 O 0.7791 0.61696 0.93995 0.0
C95 C 0.80162 0.622 0.81293 0.0
C96 C 0.78638 0.60911 0.98364 0.0
O97 O 0.86884 0.52743 0.90788 0.0
Mg98 Mg 0.38274 0.22469 0.98039 0.0
O99 O 0.30439 0.23298 0.97578 0.0
O100 O 0.22655 0.15085 0.96279 0.0
Mg101 Mg 0.258 0.08851 0.95068 0.0
C102 C 0.25145 0.20365 0.97003 0.0
C103 C 0.41952 0.34275 0.01889 0.0
O104 O 0.37874 0.3095 0.04773 0.0
O105 O 0.3854 0.22314 0.89863 0.0
O106 O 0.30807 0.13957 0.88654 0.0
O107 O 0.36315 0.194 0.05678 0.0
O108 O 0.33308 0.1395 -0.00659 0.0
C109 C 0.35065 0.18421 0.87105 0.0
C110 C 0.33337 0.14454 0.03859 0.0
O111 O 0.43388 0.32085 0.98576 0.0
Mg112 Mg 0.69345 0.09178 0.8885 0.0
O113 O 0.6887 0.00717 0.9058 0.0
O114 O 0.77224 0.01123 0.90082 0.0
Mg115 Mg 0.81932 0.08703 0.85191 0.0
C116 C 0.72036 0.98594 0.91247 0.0
C117 C 0.58159 0.02165 0.94272 0.0
O118 O 0.61836 0.02084 0.97219 0.0
O119 O 0.68184 0.08152 0.80687 0.0
O120 O 0.73591 0.04647 0.81482 0.0
O121 O 0.73579 0.12147 0.95862 0.0
O122 O 0.78299 0.13285 0.89171 0.0
C123 C 0.72153 0.07566 0.79005 0.0
C124 C 0.78336 0.13905 0.93707 0.0
O125 O 0.59901 0.04906 0.90397 0.0
Mg126 Mg 0.41546 0.17012 0.56522 0.0
O127 O 0.33434 0.08616 0.56406 0.0
O128 O 0.25675 0.09313 0.56385 0.0
Mg129 Mg 0.29033 0.18758 0.574 0.0
C130 C 0.28114 0.06395 0.56298 0.0
C131 C 0.44723 0.08422 0.53473 0.0
O132 O 0.40953 0.08118 0.50424 0.0
O133 O 0.40477 0.17358 0.64617 0.0
O134 O 0.32899 0.18436 0.64481 0.0
O135 O 0.41007 0.18176 0.48625 0.0
O136 O 0.37078 0.2085 0.54107 0.0
C137 C 0.36701 0.17993 0.66741 0.0
C138 C 0.37833 0.20243 0.49703 0.0
O139 O 0.46241 0.12003 0.56832 0.0
Mg140 Mg 0.88996 0.28912 0.5796 0.0
O141 O 0.97564 0.2933 0.56774 0.0
O142 O 0.96447 0.20701 0.56191 0.0
Mg143 Mg 0.88741 0.15857 0.60962 0.0
C144 C -0.006 0.2602 0.55666 0.0
C145 C 0.96671 0.40363 0.53204 0.0
O146 O 0.96901 0.36823 0.50207 0.0
O147 O 0.89383 0.29343 0.66183 0.0
O148 O 0.92774 0.23853 0.65182 0.0
O149 O 0.86404 0.25156 0.5067 0.0
O150 O 0.84607 0.20019 0.57187 0.0
C151 C 0.89861 0.25247 0.67715 0.0
C152 C 0.84259 0.20258 0.52648 0.0
O153 O 0.93607 0.38443 0.56898 0.0
Mg154 Mg 0.75845 0.60623 0.49854 0.0
O155 O 0.74936 0.68375 0.49437 0.0
O156 O 0.82622 0.76176 0.51811 0.0
Mg157 Mg 0.88977 0.7329 0.53555 0.0
C158 C 0.77588 0.73625 0.50257 0.0
C159 C 0.64083 0.56607 0.45328 0.0
O160 O 0.67437 0.60579 0.42375 0.0
O161 O 0.75296 0.60461 0.58053 0.0
O162 O 0.83534 0.68142 0.59747 0.0
O163 O 0.7961 0.62401 0.42461 0.0
O164 O 0.84454 0.65752 0.49102 0.0
C165 C 0.78954 0.63835 0.61027 0.0
C166 C 0.8436 0.65582 0.44554 0.0
O167 O 0.66241 0.55363 0.48815 0.0
C168 C 0.14437 0.24212 0.0112 0.0
C169 C 0.16594 0.29597 -0.00853 0.0
H170 H 0.1538 0.16943 0.01839 0.0
C171 C 0.21222 0.3167 0.96077 0.0
H172 H 0.10859 0.22531 0.03491 0.0
C173 C 0.23897 0.28556 0.9525 0.0
C174 C 0.21859 0.23249 0.97353 0.0
H175 H 0.22979 0.35834 0.94556 0.0
H176 H 0.27649 0.30355 0.93067 0.0
C177 C 0.16998 0.21013 0.00163 0.0
C178 C 0.65795 0.88914 0.0168 0.0
C179 C 0.64433 0.83675 -0.00257 0.0
H180 H 0.6923 0.97713 0.00442 0.0
C181 C 0.65893 0.83411 0.94995 0.0
H182 H 0.6471 0.89266 0.05316 0.0
C183 C 0.68598 0.88311 0.92226 0.0
C184 C 0.6976 0.93485 0.94157 0.0
H185 H 0.64901 0.7943 0.93418 0.0
H186 H 0.69616 0.88037 0.88553 0.0
C187 C 0.68373 0.93752 -0.011 0.0
C188 C 0.0756 0.74925 0.91781 0.0
C189 C 0.09457 0.78476 0.95742 0.0
H190 H 0.00496 0.69647 0.8738 0.0
C191 C 0.05946 0.80233 0.97829 0.0
H192 H 0.10192 0.73479 0.90162 0.0
C193 C 0.00463 0.78174 0.96161 0.0
C194 C 0.98388 0.74202 0.92486 0.0
H195 H 0.07352 0.82977 0.00894 0.0
H196 H 0.97715 0.79317 0.98006 0.0
C197 C 0.02027 0.72732 0.90206 0.0
C198 C 0.72089 0.75796 0.44565 0.0
C199 C 0.74784 0.7681 0.48983 0.0
H200 H 0.66955 0.77486 0.39932 0.0
C201 C 0.74438 0.80547 0.52177 0.0
H202 H 0.72317 0.72937 0.42046 0.0
C203 C 0.71222 0.83065 0.51017 0.0
C204 C 0.68478 0.81986 0.46597 0.0
H205 H 0.7647 0.8135 0.55618 0.0
H206 H 0.70863 0.85822 0.53563 0.0
C207 C 0.69036 0.78413 0.43358 0.0
C208 C 0.24372 0.91252 0.56339 0.0
C209 C 0.20646 0.89196 0.52492 0.0
H210 H 0.29725 0.98449 0.60561 0.0
C211 C 0.18681 0.92559 0.50438 0.0
H212 H 0.25981 0.88737 0.57927 0.0
C213 C 0.20703 0.98058 0.52015 0.0
C214 C 0.24839 0.00292 0.55564 0.0
H215 H 0.15804 0.91031 0.47455 0.0
H216 H 0.19392 0.00693 0.50193 0.0
C217 C 0.26518 0.96796 0.57825 0.0
C218 C 0.0576 0.25768 0.49438 0.0
C219 C 0.04937 0.28489 0.53314 0.0
H220 H 0.11129 0.26417 0.43654 0.0
C221 C 0.09263 0.33858 0.54615 0.0
H222 H 0.02476 0.21648 0.48341 0.0
C223 C 0.14263 0.36523 0.52006 0.0
C224 C 0.14941 0.33943 0.4796 0.0
H225 H 0.08724 0.36047 0.57588 0.0
H226 H 0.17471 0.40724 0.53001 0.0
C227 C 0.10689 0.28512 0.46738 0.0
C228 C 0.69852 0.63526 0.06935 0.0
C229 C 0.72416 0.69416 0.06679 0.0
H230 H 0.69983 0.56177 0.04558 0.0
C231 C 0.77669 0.72466 0.0444 0.0
H232 H 0.65823 0.61055 0.0867 0.0
C233 C 0.80021 0.69651 0.02092 0.0
C234 C 0.77217 0.63767 0.02032 0.0
H235 H 0.79759 0.76998 0.0419 0.0
H236 H 0.83844 0.72062 0.00065 0.0
C237 C 0.7225 0.60724 0.04634 0.0
C238 C 0.24184 0.06444 0.06236 0.0
C239 C 0.30064 0.09367 0.06685 0.0
H240 H 0.16654 0.98401 0.06256 0.0
C241 C 0.3279 0.06527 0.08323 0.0
H242 H 0.22028 0.0855 0.0486 0.0
C243 C 0.2976 0.00721 0.0898 0.0
C244 C 0.2395 0.977 0.08075 0.0
H245 H 0.37334 0.0868 0.08578 0.0
H246 H 0.32026 0.98543 0.09852 0.0
C247 C 0.21124 0.00639 0.0699 0.0
C248 C 0.93572 0.23898 0.96331 0.0
C249 C 0.93968 0.22786 0.01135 0.0
H250 H 0.88317 0.21831 0.90197 0.0
C251 C 0.89231 0.18574 0.03495 0.0
H252 H 0.97202 0.27088 0.94438 0.0
C253 C 0.8409 0.15639 0.01097 0.0
C254 C 0.83707 0.16771 0.96281 0.0
H255 H 0.89477 0.17662 0.07207 0.0
H256 H 0.80437 0.12484 0.02988 0.0
C257 C 0.88508 0.20864 0.93906 0.0
C258 C 0.28947 0.18776 0.4616 0.0
C259 C 0.34839 0.21601 0.46108 0.0
H260 H 0.21506 0.18864 0.44024 0.0
C261 C 0.37796 0.26429 0.43324 0.0
H262 H 0.26605 0.15046 0.48311 0.0
C263 C 0.34902 0.28673 0.40925 0.0
C264 C 0.29007 0.26081 0.41256 0.0
H265 H 0.42351 0.28697 0.43298 0.0
H266 H 0.37304 0.32601 0.39029 0.0
C267 C 0.2604 0.20965 0.43709 0.0
C268 C 0.77163 0.10165 0.52213 0.0
C269 C 0.81292 0.1501 0.4991 0.0
H270 H 0.70922 0.01516 0.51586 0.0
C271 C 0.82396 0.1474 0.45069 0.0
H272 H 0.76208 0.10249 0.55939 0.0
C273 C 0.79407 0.0966 0.42588 0.0
C274 C 0.75182 0.0488 0.44899 0.0
H275 H 0.85576 0.18421 0.43227 0.0
H276 H 0.80298 0.09495 0.38861 0.0
C277 C 0.74102 0.05177 0.49721 0.0
C278 C 0.98477 0.77715 0.41764 0.0
C279 C 0.01328 0.74851 0.40522 0.0
H280 H 0.90629 0.76899 0.43999 0.0
C281 C 0.98219 0.69067 0.39562 0.0
H282 H 0.00786 0.82164 0.4255 0.0
C283 C 0.92407 0.66102 0.40249 0.0
C284 C 0.89656 0.68866 0.41988 0.0
H285 H 0.00332 0.66774 0.38582 0.0
H286 H 0.90171 0.61574 0.39887 0.0
C287 C 0.92676 0.74718 0.42564 0.0
C288 C 0.1561 0.33233 0.24002 0.0
C289 C 0.20394 0.38368 0.25159 0.0
H290 H 0.08115 0.28944 0.1989 0.0
C291 C 0.21219 0.43278 0.22864 0.0
H292 H 0.14805 0.29362 0.25702 0.0
C293 C 0.17356 0.43024 0.19451 0.0
C294 C 0.12595 0.37856 0.18285 0.0
H295 H 0.2485 0.47304 0.2369 0.0
H296 H 0.18133 0.46856 0.17695 0.0
C297 C 0.11751 0.32991 0.20656 0.0
C298 C 0.64126 0.8284 0.2272 0.0
C299 C 0.59101 0.77814 0.21831 0.0
H300 H 0.68221 0.90639 0.26387 0.0
C301 C 0.54169 0.76879 0.24164 0.0
H302 H 0.68018 0.83736 0.21009 0.0
C303 C 0.5432 0.80853 0.27393 0.0
C304 C 0.59397 0.85847 0.28303 0.0
H305 H 0.50226 0.73056 0.23545 0.0
H306 H 0.50497 0.79975 0.29225 0.0
C307 C 0.6425 0.86821 0.25837 0.0
C308 C 0.26129 0.81237 0.21374 0.0
C309 C 0.21384 0.76926 0.19124 0.0
H310 H 0.2977 0.85179 0.28017 0.0
C311 C 0.17263 0.7251 0.21861 0.0
H312 H 0.2932 0.8471 0.19331 0.0
C313 C 0.17588 0.72703 0.26818 0.0
C314 C 0.21957 0.77395 0.29072 0.0
H315 H 0.13555 0.69159 0.20179 0.0
H316 H 0.14113 0.69519 0.28864 0.0
C317 C 0.26374 0.8151 0.26332 0.0
C318 C 0.78332 0.57669 0.73164 0.0
C319 C 0.79429 0.62265 0.76075 0.0
H320 H 0.77087 0.54475 0.66011 0.0
C321 C 0.79683 0.6704 0.73973 0.0
H322 H 0.78054 0.53914 0.74681 0.0
C323 C 0.79095 0.67328 0.6909 0.0
C324 C 0.78159 0.6283 0.66169 0.0
H325 H 0.80504 0.70665 0.76083 0.0
H326 H 0.79585 0.71172 0.67564 0.0
C327 C 0.77671 0.57942 0.68231 0.0
C328 C 0.30983 0.16905 0.79074 0.0
C329 C 0.35798 0.18903 0.81916 0.0
H330 H 0.27516 0.15003 0.72109 0.0
C331 C 0.41031 0.20645 0.79757 0.0
H332 H 0.26895 0.15507 0.80657 0.0
C333 C 0.41386 0.20247 0.74802 0.0
C334 C 0.36524 0.18206 0.71978 0.0
H335 H 0.44786 0.22119 0.81903 0.0
H336 H 0.45439 0.21573 0.73186 0.0
C337 C 0.31344 0.16594 0.74176 0.0
C338 C 0.81181 0.11684 0.74498 0.0
C339 C 0.76522 0.12103 0.76005 0.0
H340 H 0.89036 0.15509 0.70834 0.0
C341 C 0.76281 0.16954 0.74791 0.0
H342 H 0.81506 0.08009 0.7535 0.0
C343 C 0.80639 0.21296 0.72172 0.0
C344 C 0.85304 0.20856 0.70686 0.0
H345 H 0.72763 0.17428 0.75904 0.0
H346 H 0.80329 0.24969 0.71285 0.0
C347 C 0.85513 0.15999 0.71904 0.0
C348 C 0.96484 0.44287 0.92718 0.0
C349 C 0.00638 0.46281 0.96294 0.0
H350 H 0.9003 0.45195 0.8918 0.0
C351 C 0.01637 0.51049 -0.01113 0.0
H352 H 0.95606 0.40621 0.90645 0.0
C353 C 0.98451 0.53648 0.98048 0.0
C354 C 0.94167 0.51556 0.94593 0.0
H355 H 0.04812 0.52723 0.01646 0.0
H356 H -0.00701 0.5726 0.00187 0.0
C357 C 0.93282 0.46902 0.91873 0.0
C358 C 0.5154 0.49934 0.0 0.0
C359 C 0.49703 0.52225 0.03578 0.0
H360 H 0.50562 0.42494 0.96656 0.0
C361 C 0.45326 0.4856 0.06596 0.0
H362 H 0.54919 0.52633 0.97618 0.0
C363 C 0.42842 0.42745 0.06046 0.0
C364 C 0.44673 0.40452 0.02466 0.0
H365 H 0.43816 0.50177 0.09391 0.0
H366 H 0.39469 0.4005 0.08434 0.0
C367 C 0.49052 0.44115 -0.00552 0.0
C368 C 0.42423 0.96494 0.93743 0.0
C369 C 0.40495 0.92757 0.97623 0.0
H370 H 0.49491 0.02371 0.89624 0.0
C371 C 0.44428 0.92161 0.00394 0.0
H372 H 0.39505 0.97051 0.91529 0.0
C373 C 0.50163 0.95249 -0.00682 0.0
C374 C 0.52086 0.98967 0.95424 0.0
H375 H 0.43085 0.89331 0.0341 0.0
H376 H 0.53083 0.94687 0.01526 0.0
C377 C 0.4815 -0.00456 0.92643 0.0
C378 C 0.47332 0.9722 0.4832 0.0
C379 C 0.52163 0.98095 0.50767 0.0
H380 H 0.41206 -0.00262 0.47291 0.0
C381 C 0.54362 0.02197 0.54368 0.0
H382 H 0.45502 0.94082 0.4555 0.0
C383 C 0.51886 0.05484 0.55374 0.0
C384 C 0.47175 0.0473 0.52791 0.0
H385 H 0.58083 0.02975 0.56326 0.0
H386 H 0.53746 0.08702 0.58078 0.0
C387 C 0.44874 0.00488 0.4932 0.0
C388 C -0.00684 0.50303 0.55102 0.0
C389 C 0.0 0.46478 0.52278 0.0
H390 H 0.01789 0.58895 0.56406 0.0
C391 C 0.03917 0.48547 0.48531 0.0
H392 H 0.96337 0.48849 0.58013 0.0
C393 C 0.07071 0.5431 0.47623 0.0
C394 C 0.06354 0.58133 0.50422 0.0
H395 H 0.04567 0.45715 0.46296 0.0
H396 H 0.10041 0.55761 0.44705 0.0
C397 C 0.02442 0.56064 0.54174 0.0
C398 C 0.49759 0.53077 0.40433 0.0
C399 C 0.46081 0.4887 0.43576 0.0
H400 H 0.58298 0.58793 0.38508 0.0
C401 C 0.48382 0.47175 0.47271 0.0
H402 H 0.48139 0.54474 0.37544 0.0
C403 C 0.54209 0.4964 0.47825 0.0
C404 C 0.5789 0.53859 0.44693 0.0
H405 H 0.4568 0.43928 0.49754 0.0
H406 H 0.55824 0.48245 0.5072 0.0
C407 C 0.55592 0.55541 0.40985 0.0
loop_
_geom_bond_atom_site_label_1
_geom_bond_atom_site_label_2
_geom_bond_distance
_geom_bond_site_symmetry_2
_ccdc_geom_bond_type
Mg0 O1 2.028 1_455 S
Mg0 O7 1.986 . S
Mg0 O9 2.114 . S
Mg0 O10 2.251 . S
Mg0 O13 2.010 . S
O1 Mg0 2.028 1_655 S
O1 C4 1.250 . S
O2 Mg3 2.028 1_655 S
O2 C4 1.248 . S
Mg3 O2 2.028 1_455 S
Mg3 O8 2.032 . S
Mg3 O10 2.079 . S
C4 O1 1.250 . S
C4 O2 1.248 . S
C5 O6 1.264 . S
C5 O13 1.249 . S
O6 C5 1.264 . S
O7 Mg0 1.986 . S
O7 C11 1.246 . S
O8 Mg3 2.032 . S
O8 C11 1.259 . S
O9 Mg0 2.114 . S
O9 C12 1.252 . S
O10 Mg0 2.251 . S
O10 Mg3 2.079 . S
O10 C12 1.273 . S
C11 O7 1.246 . S
C11 O8 1.259 . S
C12 O9 1.252 . S
C12 O10 1.273 . S
O13 Mg0 2.010 . S
O13 C5 1.249 . S
Mg14 O15 2.028 . S
Mg14 O21 1.986 . S
Mg14 O23 2.114 . S
Mg14 O24 2.251 . S
Mg14 O27 2.010 . S
O15 Mg14 2.028 . S
O15 C18 1.250 . S
O16 Mg17 2.028 . S
O16 C18 1.248 . S
Mg17 O16 2.028 . S
Mg17 O22 2.032 . S
Mg17 O24 2.079 . S
C18 O15 1.250 . S
C18 O16 1.248 . S
C19 O20 1.264 . S
C19 O27 1.249 . S
O20 C19 1.264 . S
O21 Mg14 1.986 . S
O21 C25 1.246 . S
O22 Mg17 2.032 . S
O22 C25 1.259 . S
O23 Mg14 2.114 . S
O23 C26 1.252 . S
O24 Mg14 2.251 . S
O24 Mg17 2.079 . S
O24 C26 1.273 . S
C25 O21 1.246 . S
C25 O22 1.259 . S
C26 O23 1.252 . S
C26 O24 1.273 . S
O27 Mg14 2.010 . S
O27 C19 1.249 . S
Mg28 O29 2.028 1_565 S
Mg28 O35 1.986 . S
Mg28 O37 2.114 . S
Mg28 O38 2.251 . S
Mg28 O41 2.010 . S
O29 Mg28 2.028 1_545 S
O29 C32 1.250 . S
O30 Mg31 2.028 1_545 S
O30 C32 1.248 . S
Mg31 O30 2.028 1_565 S
Mg31 O36 2.032 . S
Mg31 O38 2.079 . S
C32 O29 1.250 . S
C32 O30 1.248 . S
C33 O34 1.264 . S
C33 O41 1.249 . S
O34 C33 1.264 . S
O35 Mg28 1.986 . S
O35 C39 1.246 . S
O36 Mg31 2.032 . S
O36 C39 1.259 . S
O37 Mg28 2.114 . S
O37 C40 1.252 . S
O38 Mg28 2.251 . S
O38 Mg31 2.079 . S
O38 C40 1.273 . S
C39 O35 1.246 . S
C39 O36 1.259 . S
C40 O37 1.252 . S
C40 O38 1.273 . S
O41 Mg28 2.010 . S
O41 C33 1.249 . S
Mg42 O43 2.028 1_565 S
Mg42 O49 1.986 . S
Mg42 O51 2.114 . S
Mg42 O52 2.251 . S
Mg42 O55 2.010 . S
O43 Mg42 2.028 1_545 S
O43 C46 1.250 . S
O44 Mg45 2.028 1_545 S
O44 C46 1.248 . S
Mg45 O44 2.028 1_565 S
Mg45 O50 2.032 . S
Mg45 O52 2.079 . S
C46 O43 1.250 . S
C46 O44 1.248 . S
C47 O48 1.264 . S
C47 O55 1.249 . S
O48 C47 1.264 . S
O49 Mg42 1.986 . S
O49 C53 1.246 . S
O50 Mg45 2.032 . S
O50 C53 1.259 . S
O51 Mg42 2.114 . S
O51 C54 1.252 . S
O52 Mg42 2.251 . S
O52 Mg45 2.079 . S
O52 C54 1.273 . S
C53 O49 1.246 . S
C53 O50 1.259 . S
C54 O51 1.252 . S
C54 O52 1.273 . S
O55 Mg42 2.010 . S
O55 C47 1.249 . S
Mg56 O57 2.028 1_455 S
Mg56 O63 1.986 . S
Mg56 O65 2.114 . S
Mg56 O66 2.251 . S
Mg56 O69 2.010 . S
O57 Mg56 2.028 1_655 S
O57 C60 1.250 . S
O58 Mg59 2.028 1_655 S
O58 C60 1.248 . S
Mg59 O58 2.028 1_455 S
Mg59 O64 2.032 . S
Mg59 O66 2.079 . S
C60 O57 1.250 . S
C60 O58 1.248 . S
C61 O62 1.264 . S
C61 O69 1.249 . S
O62 C61 1.264 . S
O63 Mg56 1.986 . S
O63 C67 1.246 . S
O64 Mg59 2.032 . S
O64 C67 1.259 . S
O65 Mg56 2.114 . S
O65 C68 1.252 . S
O66 Mg56 2.251 . S
O66 Mg59 2.079 . S
O66 C68 1.273 . S
C67 O63 1.246 . S
C67 O64 1.259 . S
C68 O65 1.252 . S
C68 O66 1.273 . S
O69 Mg56 2.010 . S
O69 C61 1.249 . S
Mg70 O71 2.028 . S
Mg70 O77 1.986 . S
Mg70 O79 2.114 . S
Mg70 O80 2.251 . S
Mg70 O83 2.010 . S
O71 Mg70 2.028 . S
O71 C74 1.250 . S
O72 Mg73 2.028 . S
O72 C74 1.248 . S
Mg73 O72 2.028 . S
Mg73 O78 2.032 . S
Mg73 O80 2.079 . S
C74 O71 1.250 . S
C74 O72 1.248 . S
C75 O76 1.264 . S
C75 O83 1.249 . S
O76 C75 1.264 . S
O77 Mg70 1.986 . S
O77 C81 1.246 . S
O78 Mg73 2.032 . S
O78 C81 1.259 . S
O79 Mg70 2.114 . S
O79 C82 1.252 . S
O80 Mg70 2.251 . S
O80 Mg73 2.079 . S
O80 C82 1.273 . S
C81 O77 1.246 . S
C81 O78 1.259 . S
C82 O79 1.252 . S
C82 O80 1.273 . S
O83 Mg70 2.010 . S
O83 C75 1.249 . S
Mg84 O85 2.028 1_655 S
Mg84 O91 1.986 . S
Mg84 O93 2.114 . S
Mg84 O94 2.251 . S
Mg84 O97 2.010 . S
O85 Mg84 2.028 1_455 S
O85 C88 1.250 . S
O86 Mg87 2.028 1_455 S
O86 C88 1.248 . S
Mg87 O86 2.028 1_655 S
Mg87 O92 2.032 . S
Mg87 O94 2.079 . S
C88 O85 1.250 . S
C88 O86 1.248 . S
C89 O90 1.264 . S
C89 O97 1.249 . S
O90 C89 1.264 . S
O91 Mg84 1.986 . S
O91 C95 1.246 . S
O92 Mg87 2.032 . S
O92 C95 1.259 . S
O93 Mg84 2.114 . S
O93 C96 1.252 . S
O94 Mg84 2.251 . S
O94 Mg87 2.079 . S
O94 C96 1.273 . S
C95 O91 1.246 . S
C95 O92 1.259 . S
C96 O93 1.252 . S
C96 O94 1.273 . S
O97 Mg84 2.010 . S
O97 C89 1.249 . S
Mg98 O99 2.028 . S
Mg98 O105 1.986 . S
Mg98 O107 2.114 . S
Mg98 O108 2.251 . S
Mg98 O111 2.010 . S
O99 Mg98 2.028 . S
O99 C102 1.250 . S
O100 Mg101 2.028 . S
O100 C102 1.248 . S
Mg101 O100 2.028 . S
Mg101 O106 2.032 . S
Mg101 O108 2.079 . S
C102 O99 1.250 . S
C102 O100 1.248 . S
C103 O104 1.264 . S
C103 O111 1.249 . S
O104 C103 1.264 . S
O105 Mg98 1.986 . S
O105 C109 1.246 . S
O106 Mg101 2.032 . S
O106 C109 1.259 . S
O107 Mg98 2.114 . S
O107 C110 1.252 . S
O108 Mg98 2.251 . S
O108 Mg101 2.079 . S
O108 C110 1.273 . S
C109 O105 1.246 . S
C109 O106 1.259 . S
C110 O107 1.252 . S
C110 O108 1.273 . S
O111 Mg98 2.010 . S
O111 C103 1.249 . S
Mg112 O113 2.028 1_545 S
Mg112 O119 1.986 . S
Mg112 O121 2.114 . S
Mg112 O122 2.251 . S
Mg112 O125 2.010 . S
O113 Mg112 2.028 1_565 S
O113 C116 1.250 . S
O114 Mg115 2.028 1_565 S
O114 C116 1.248 . S
Mg115 O114 2.028 1_545 S
Mg115 O120 2.032 . S
Mg115 O122 2.079 . S
C116 O113 1.250 . S
C116 O114 1.248 . S
C117 O118 1.264 . S
C117 O125 1.249 . S
O118 C117 1.264 . S
O119 Mg112 1.986 . S
O119 C123 1.246 . S
O120 Mg115 2.032 . S
O120 C123 1.259 . S
O121 Mg112 2.114 . S
O121 C124 1.252 . S
O122 Mg112 2.251 . S
O122 Mg115 2.079 . S
O122 C124 1.273 . S
C123 O119 1.246 . S
C123 O120 1.259 . S
C124 O121 1.252 . S
C124 O122 1.273 . S
O125 Mg112 2.010 . S
O125 C117 1.249 . S
Mg126 O127 2.028 1_545 S
Mg126 O133 1.986 . S
Mg126 O135 2.114 . S
Mg126 O136 2.251 . S
Mg126 O139 2.010 . S
O127 Mg126 2.028 1_565 S
O127 C130 1.250 . S
O128 Mg129 2.028 1_565 S
O128 C130 1.248 . S
Mg129 O128 2.028 1_545 S
Mg129 O134 2.032 . S
Mg129 O136 2.079 . S
C130 O127 1.250 . S
C130 O128 1.248 . S
C131 O132 1.264 . S
C131 O139 1.249 . S
O132 C131 1.264 . S
O133 Mg126 1.986 . S
O133 C137 1.246 . S
O134 Mg129 2.032 . S
O134 C137 1.259 . S
O135 Mg126 2.114 . S
O135 C138 1.252 . S
O136 Mg126 2.251 . S
O136 Mg129 2.079 . S
O136 C138 1.273 . S
C137 O133 1.246 . S
C137 O134 1.259 . S
C138 O135 1.252 . S
C138 O136 1.273 . S
O139 Mg126 2.010 . S
O139 C131 1.249 . S
Mg140 O141 2.028 1_655 S
Mg140 O147 1.986 . S
Mg140 O149 2.114 . S
Mg140 O150 2.251 . S
Mg140 O153 2.010 . S
O141 Mg140 2.028 1_455 S
O141 C144 1.250 . S
O142 Mg143 2.028 1_455 S
O142 C144 1.248 . S
Mg143 O142 2.028 1_655 S
Mg143 O148 2.032 . S
Mg143 O150 2.079 . S
C144 O141 1.250 . S
C144 O142 1.248 . S
C145 O146 1.264 . S
C145 O153 1.249 . S
O146 C145 1.264 . S
O147 Mg140 1.986 . S
O147 C151 1.246 . S
O148 Mg143 2.032 . S
O148 C151 1.259 . S
O149 Mg140 2.114 . S
O149 C152 1.252 . S
O150 Mg140 2.251 . S
O150 Mg143 2.079 . S
O150 C152 1.273 . S
C151 O147 1.246 . S
C151 O148 1.259 . S
C152 O149 1.252 . S
C152 O150 1.273 . S
O153 Mg140 2.010 . S
O153 C145 1.249 . S
Mg154 O155 2.028 . S
Mg154 O161 1.986 . S
Mg154 O163 2.114 . S
Mg154 O164 2.251 . S
Mg154 O167 2.010 . S
O155 Mg154 2.028 . S
O155 C158 1.250 . S
O156 Mg157 2.028 . S
O156 C158 1.248 . S
Mg157 O156 2.028 . S
Mg157 O162 2.032 . S
Mg157 O164 2.079 . S
C158 O155 1.250 . S
C158 O156 1.248 . S
C159 O160 1.264 . S
C159 O167 1.249 . S
O160 C159 1.264 . S
O161 Mg154 1.986 . S
O161 C165 1.246 . S
O162 Mg157 2.032 . S
O162 C165 1.259 . S
O163 Mg154 2.114 . S
O163 C166 1.252 . S
O164 Mg154 2.251 . S
O164 Mg157 2.079 . S
O164 C166 1.273 . S
C165 O161 1.246 . S
C165 O162 1.259 . S
C166 O163 1.252 . S
C166 O164 1.273 . S
O167 Mg154 2.010 . S
O167 C159 1.249 . S
C168 C169 1.387 . S
C168 H172 0.950 . S
C168 C177 1.390 1_554 S
C169 C168 1.387 . S
C169 C171 1.387 1_554 S
H170 C177 0.950 . S
C171 C169 1.387 1_556 S
C171 C173 1.390 . S
C171 H175 0.950 . S
H172 C168 0.950 . S
C173 C171 1.390 . S
C173 C174 1.387 . S
C173 H176 0.950 . S
C174 C173 1.387 . S
C174 C177 1.387 . S
H175 C171 0.950 . S
H176 C173 0.950 . S
C177 C168 1.390 1_556 S
C177 H170 0.950 . S
C177 C174 1.387 . S
C178 C179 1.387 . S
C178 H182 0.950 . S
C178 C187 1.390 1_554 S
C179 C178 1.387 . S
C179 C181 1.387 1_554 S
H180 C187 0.950 . S
C181 C179 1.387 1_556 S
C181 C183 1.390 . S
C181 H185 0.950 . S
H182 C178 0.950 . S
C183 C181 1.390 . S
C183 C184 1.387 . S
C183 H186 0.950 . S
C184 C183 1.387 . S
C184 C187 1.387 . S
H185 C181 0.950 . S
H186 C183 0.950 . S
C187 C178 1.390 1_556 S
C187 H180 0.950 . S
C187 C184 1.387 . S
C188 C189 1.387 . S
C188 H192 0.950 . S
C188 C197 1.390 1_554 S
C189 C188 1.387 . S
C189 C191 1.387 1_554 S
H190 C197 0.950 . S
C191 C189 1.387 1_556 S
C191 C193 1.390 . S
C191 H195 0.950 . S
H192 C188 0.950 . S
C193 C191 1.390 . S
C193 C194 1.387 . S
C193 H196 0.950 . S
C194 C193 1.387 . S
C194 C197 1.387 . S
H195 C191 0.950 . S
H196 C193 0.950 . S
C197 C188 1.390 1_556 S
C197 H190 0.950 . S
C197 C194 1.387 . S
C198 C199 1.387 . S
C198 H202 0.950 . S
C198 C207 1.390 . S
C199 C198 1.387 . S
C199 C201 1.387 . S
H200 C207 0.950 . S
C201 C199 1.387 . S
C201 C203 1.390 . S
C201 H205 0.950 . S
H202 C198 0.950 . S
C203 C201 1.390 . S
C203 C204 1.387 . S
C203 H206 0.950 . S
C204 C203 1.387 . S
C204 C207 1.387 . S
H205 C201 0.950 . S
H206 C203 0.950 . S
C207 C198 1.390 . S
C207 H200 0.950 . S
C207 C204 1.387 . S
C208 C209 1.387 . S
C208 H212 0.950 . S
C208 C217 1.390 . S
C209 C208 1.387 . S
C209 C211 1.387 . S
H210 C217 0.950 . S
C211 C209 1.387 . S
C211 C213 1.390 . S
C211 H215 0.950 . S
H212 C208 0.950 . S
C213 C211 1.390 . S
C213 C214 1.387 . S
C213 H216 0.950 . S
C214 C213 1.387 . S
C214 C217 1.387 . S
H215 C211 0.950 . S
H216 C213 0.950 . S
C217 C208 1.390 . S
C217 H210 0.950 . S
C217 C214 1.387 . S
C218 C219 1.387 . S
C218 H222 0.950 . S
C218 C227 1.390 . S
C219 C218 1.387 . S
C219 C221 1.387 . S
H220 C227 0.950 . S
C221 C219 1.387 . S
C221 C223 1.390 . S
C221 H225 0.950 . S
H222 C218 0.950 . S
C223 C221 1.390 . S
C223 C224 1.387 . S
C223 H226 0.950 . S
C224 C223 1.387 . S
C224 C227 1.387 . S
H225 C221 0.950 . S
H226 C223 0.950 . S
C227 C218 1.390 . S
C227 H220 0.950 . S
C227 C224 1.387 . S
C228 C229 1.387 . S
C228 H232 0.950 . S
C228 C237 1.390 . S
C229 C228 1.387 . S
C229 C231 1.387 . S
H230 C237 0.950 . S
C231 C229 1.387 . S
C231 C233 1.390 1_554 S
C231 H235 0.950 . S
H232 C228 0.950 . S
C233 C231 1.390 1_556 S
C233 C234 1.387 . S
C233 H236 0.950 . S
C234 C233 1.387 . S
C234 C237 1.387 1_556 S
H235 C231 0.950 . S
H236 C233 0.950 . S
C237 C228 1.390 . S
C237 H230 0.950 . S
C237 C234 1.387 1_554 S
C238 C239 1.387 . S
C238 H242 0.950 . S
C238 C247 1.390 1_556 S
C239 C238 1.387 . S
C239 C241 1.387 1_556 S
H240 C247 0.950 . S
C241 C239 1.387 1_554 S
C241 C243 1.390 . S
C241 H245 0.950 . S
H242 C238 0.950 . S
C243 C241 1.390 . S
C243 C244 1.387 . S
C243 H246 0.950 . S
C244 C243 1.387 . S
C244 C247 1.387 . S
H245 C241 0.950 . S
H246 C243 0.950 . S
C247 C238 1.390 1_554 S
C247 H240 0.950 . S
C247 C244 1.387 . S
C248 C249 1.380 1_556 S
C248 H252 0.953 . S
C248 C257 1.394 . S
C249 C248 1.380 1_554 S
C249 C251 1.387 . S
H250 C257 0.950 . S
C251 C249 1.387 . S
C251 C253 1.390 . S
C251 H255 0.950 . S
H252 C248 0.953 . S
C253 C251 1.390 . S
C253 C254 1.387 1_554 S
C253 H256 0.950 . S
C254 C253 1.387 1_556 S
C254 C257 1.387 . S
H255 C251 0.950 . S
H256 C253 0.950 . S
C257 C248 1.394 . S
C257 H250 0.950 . S
C257 C254 1.387 . S
C258 C259 1.387 . S
C258 H262 0.950 . S
C258 C267 1.390 . S
C259 C258 1.387 . S
C259 C261 1.387 . S
H260 C267 0.950 . S
C261 C259 1.387 . S
C261 C263 1.390 . S
C261 H265 0.950 . S
H262 C258 0.950 . S
C263 C261 1.390 . S
C263 C264 1.387 . S
C263 H266 0.950 . S
C264 C263 1.387 . S
C264 C267 1.387 . S
H265 C261 0.950 . S
H266 C263 0.950 . S
C267 C258 1.390 . S
C267 H260 0.950 . S
C267 C264 1.387 . S
C268 C269 1.387 . S
C268 H272 0.950 . S
C268 C277 1.390 . S
C269 C268 1.387 . S
C269 C271 1.387 . S
H270 C277 0.950 . S
C271 C269 1.387 . S
C271 C273 1.390 . S
C271 H275 0.950 . S
H272 C268 0.950 . S
C273 C271 1.390 . S
C273 C274 1.387 . S
C273 H276 0.950 . S
C274 C273 1.387 . S
C274 C277 1.387 . S
H275 C271 0.950 . S
H276 C273 0.950 . S
C277 C268 1.390 . S
C277 H270 0.950 . S
C277 C274 1.387 . S
C278 C279 1.387 . S
C278 H282 0.950 . S
C278 C287 1.390 . S
C279 C278 1.387 . S
C279 C281 1.387 . S
H280 C287 0.950 . S
C281 C279 1.387 . S
C281 C283 1.390 . S
C281 H285 0.950 . S
H282 C278 0.950 . S
C283 C281 1.390 . S
C283 C284 1.387 . S
C283 H286 0.950 . S
C284 C283 1.387 . S
C284 C287 1.387 . S
H285 C281 0.950 . S
H286 C283 0.950 . S
C287 C278 1.390 . S
C287 H280 0.950 . S
C287 C284 1.387 . S
C288 C289 1.387 . S
C288 H292 0.950 . S
C288 C297 1.390 . S
C289 C288 1.387 . S
C289 C291 1.387 . S
H290 C297 0.950 . S
C291 C289 1.387 . S
C291 C293 1.390 . S
C291 H295 0.950 . S
H292 C288 0.950 . S
C293 C291 1.390 . S
C293 C294 1.387 . S
C293 H296 0.950 . S
C294 C293 1.387 . S
C294 C297 1.387 . S
H295 C291 0.950 . S
H296 C293 0.950 . S
C297 C288 1.390 . S
C297 H290 0.950 . S
C297 C294 1.387 . S
C298 C299 1.387 . S
C298 H302 0.950 . S
C298 C307 1.390 . S
C299 C298 1.387 . S
C299 C301 1.387 . S
H300 C307 0.950 . S
C301 C299 1.387 . S
C301 C303 1.390 . S
C301 H305 0.950 . S
H302 C298 0.950 . S
C303 C301 1.390 . S
C303 C304 1.387 . S
C303 H306 0.950 . S
C304 C303 1.387 . S
C304 C307 1.387 . S
H305 C301 0.950 . S
H306 C303 0.950 . S
C307 C298 1.390 . S
C307 H300 0.950 . S
C307 C304 1.387 . S
C308 C309 1.387 . S
C308 H312 0.950 . S
C308 C317 1.390 . S
C309 C308 1.387 . S
C309 C311 1.387 . S
H310 C317 0.950 . S
C311 C309 1.387 . S
C311 C313 1.390 . S
C311 H315 0.950 . S
H312 C308 0.950 . S
C313 C311 1.390 . S
C313 C314 1.387 . S
C313 H316 0.950 . S
C314 C313 1.387 . S
C314 C317 1.387 . S
H315 C311 0.950 . S
H316 C313 0.950 . S
C317 C308 1.390 . S
C317 H310 0.950 . S
C317 C314 1.387 . S
C318 C319 1.387 . S
C318 H322 0.950 . S
C318 C327 1.390 . S
C319 C318 1.387 . S
C319 C321 1.387 . S
H320 C327 0.950 . S
C321 C319 1.387 . S
C321 C323 1.390 . S
C321 H325 0.950 . S
H322 C318 0.950 . S
C323 C321 1.390 . S
C323 C324 1.387 . S
C323 H326 0.950 . S
C324 C323 1.387 . S
C324 C327 1.387 . S
H325 C321 0.950 . S
H326 C323 0.950 . S
C327 C318 1.390 . S
C327 H320 0.950 . S
C327 C324 1.387 . S
C328 C329 1.387 . S
C328 H332 0.950 . S
C328 C337 1.390 . S
C329 C328 1.387 . S
C329 C331 1.387 . S
H330 C337 0.950 . S
C331 C329 1.387 . S
C331 C333 1.390 . S
C331 H335 0.950 . S
H332 C328 0.950 . S
C333 C331 1.390 . S
C333 C334 1.387 . S
C333 H336 0.950 . S
C334 C333 1.387 . S
C334 C337 1.387 . S
H335 C331 0.950 . S
H336 C333 0.950 . S
C337 C328 1.390 . S
C337 H330 0.950 . S
C337 C334 1.387 . S
C338 C339 1.387 . S
C338 H342 0.950 . S
C338 C347 1.390 . S
C339 C338 1.387 . S
C339 C341 1.387 . S
H340 C347 0.950 . S
C341 C339 1.387 . S
C341 C343 1.390 . S
C341 H345 0.950 . S
H342 C338 0.950 . S
C343 C341 1.390 . S
C343 C344 1.387 . S
C343 H346 0.950 . S
C344 C343 1.387 . S
C344 C347 1.387 . S
H345 C341 0.950 . S
H346 C343 0.950 . S
C347 C338 1.390 . S
C347 H340 0.950 . S
C347 C344 1.387 . S
C348 C349 1.387 . S
C348 H352 0.950 . S
C348 C357 1.392 . S
C349 C348 1.387 . S
C349 C351 1.386 1_454 S
H350 C357 0.950 . S
C351 C349 1.386 1_656 S
C351 C353 1.392 . S
C351 H355 0.950 . S
H352 C348 0.950 . S
C353 C351 1.392 . S
C353 C354 1.387 . S
C353 H356 0.950 . S
C354 C353 1.387 . S
C354 C357 1.386 1_656 S
H355 C351 0.950 . S
H356 C353 0.950 . S
C357 C348 1.392 . S
C357 H350 0.950 . S
C357 C354 1.386 1_454 S
C358 C359 1.387 . S
C358 H362 0.950 . S
C358 C367 1.390 1_554 S
C359 C358 1.387 . S
C359 C361 1.387 . S
H360 C367 0.950 . S
C361 C359 1.387 . S
C361 C363 1.390 1_554 S
C361 H365 0.950 . S
H362 C358 0.950 . S
C363 C361 1.390 1_556 S
C363 C364 1.387 . S
C363 H366 0.950 . S
C364 C363 1.387 . S
C364 C367 1.387 . S
H365 C361 0.950 . S
H366 C363 0.950 . S
C367 C358 1.390 1_556 S
C367 H360 0.950 . S
C367 C364 1.387 . S
C368 C369 1.387 1_556 S
C368 H372 0.950 . S
C368 C377 1.390 . S
C369 C368 1.387 1_554 S
C369 C371 1.387 1_565 S
H370 C377 0.950 . S
C371 C369 1.387 1_545 S
C371 C373 1.390 . S
C371 H375 0.950 . S
H372 C368 0.950 . S
C373 C371 1.390 . S
C373 C374 1.387 1_554 S
C373 H376 0.950 . S
C374 C373 1.387 1_556 S
C374 C377 1.387 1_545 S
H375 C371 0.950 . S
H376 C373 0.950 . S
C377 C368 1.390 . S
C377 H370 0.950 . S
C377 C374 1.387 1_565 S
C378 C379 1.387 . S
C378 H382 0.950 . S
C378 C387 1.390 . S
C379 C378 1.387 . S
C379 C381 1.387 1_565 S
H380 C387 0.950 . S
C381 C379 1.387 1_545 S
C381 C383 1.390 . S
C381 H385 0.950 . S
H382 C378 0.950 . S
C383 C381 1.390 . S
C383 C384 1.387 . S
C383 H386 0.950 . S
C384 C383 1.387 . S
C384 C387 1.387 1_545 S
H385 C381 0.950 . S
H386 C383 0.950 . S
C387 C378 1.390 . S
C387 H380 0.950 . S
C387 C384 1.387 1_565 S
C388 C389 1.387 1_455 S
C388 H392 0.950 . S
C388 C397 1.390 . S
C389 C388 1.387 1_655 S
C389 C391 1.387 . S
H390 C397 0.950 . S
C391 C389 1.387 . S
C391 C393 1.390 . S
C391 H395 0.950 . S
H392 C388 0.950 . S
C393 C391 1.390 . S
C393 C394 1.387 1_655 S
C393 H396 0.950 . S
C394 C393 1.387 1_455 S
C394 C397 1.387 . S
H395 C391 0.950 . S
H396 C393 0.950 . S
C397 C388 1.390 . S
C397 H390 0.950 . S
C397 C394 1.387 . S
C398 C399 1.387 . S
C398 H402 0.950 . S
C398 C407 1.390 . S
C399 C398 1.387 . S
C399 C401 1.387 . S
H400 C407 0.950 . S
C401 C399 1.387 . S
C401 C403 1.390 . S
C401 H405 0.950 . S
H402 C398 0.950 . S
C403 C401 1.390 . S
C403 C404 1.387 . S
C403 H406 0.950 . S
C404 C403 1.387 . S
C404 C407 1.387 . S
H405 C401 0.950 . S
H406 C403 0.950 . S
C407 C398 1.390 . S
C407 H400 0.950 . S
C407 C404 1.387 . S
C169 C12 0.841 . S
C174 C102 0.838 . S
C179 C26 0.841 . S
C184 C116 0.836 . S
C189 C40 0.841 . S
C194 C88 0.836 . S
C199 C158 0.836 . S
C204 C54 0.841 . S
C209 C68 0.840 . S
C214 C130 0.839 . S
C219 C144 0.839 . S
C224 C82 0.840 . S
C229 C18 0.838 . S
C234 C96 0.841 . S
C239 C110 0.841 . S
C244 C32 0.838 . S
C249 C4 0.839 . S
C254 C124 0.840 . S
C259 C138 0.840 . S
C264 C74 0.839 . S
C269 C152 0.840 . S
C274 C46 0.839 . S
C279 C60 0.838 . S
C284 C166 0.841 . S
C289 C81 1.661 . S
C294 C11 1.661 . S
C299 C25 1.658 . S
C304 C53 1.660 . S
C309 C39 1.657 . S
C314 C67 1.658 . S
C319 C95 1.661 . S
C324 C165 1.661 . S
C329 C109 1.658 . S
C334 C137 1.659 . S
C339 C123 1.659 . S
C344 C151 1.660 . S
C349 C5 1.484 . S
C354 C89 1.484 . S
C359 C19 1.484 . S
C364 C103 1.484 . S
C369 C33 1.482 . S
C374 C117 1.482 . S
C379 C47 1.485 . S
C384 C131 1.485 . S
C389 C145 1.483 . S
C394 C61 1.483 . S
C399 C75 1.485 . S
C404 C159 1.485 . S
