# Generated by pormake.
# Topology uof, (4)-cn, num edge types: 1
# Building blocks:
#     Node 0, Type 0, BuildingBlock: KUFVIS_clean_sbu_0, # of connection points: 4
#     Node 1, Type 0, BuildingBlock: KUFVIS_clean_sbu_0, # of connection points: 4
#     Node 2, Type 0, BuildingBlock: KUFVIS_clean_sbu_0, # of connection points: 4
#     Node 3, Type 0, BuildingBlock: KUFVIS_clean_sbu_0, # of connection points: 4
#     Node 4, Type 0, BuildingBlock: KUFVIS_clean_sbu_0, # of connection points: 4
#     Node 5, Type 0, BuildingBlock: KUFVIS_clean_sbu_0, # of connection points: 4
#     Node 6, Type 0, BuildingBlock: KUFVIS_clean_sbu_0, # of connection points: 4
#     Node 7, Type 0, BuildingBlock: KUFVIS_clean_sbu_0, # of connection points: 4
#     Node 8, Type 0, BuildingBlock: KUFVIS_clean_sbu_0, # of connection points: 4
#     Node 9, Type 0, BuildingBlock: KUFVIS_clean_sbu_0, # of connection points: 4
#     Node 10, Type 0, BuildingBlock: KUFVIS_clean_sbu_0, # of connection points: 4
#     Node 11, Type 0, BuildingBlock: KUFVIS_clean_sbu_0, # of connection points: 4
#     Edge 12, Type (0, 0), BuildingBlock: TEMPAE_clean_linker_10, # of connection points: 2
#     Edge 13, Type (0, 0), BuildingBlock: TEMPAE_clean_linker_10, # of connection points: 2
#     Edge 14, Type (0, 0), BuildingBlock: TEMPAE_clean_linker_10, # of connection points: 2
#     Edge 15, Type (0, 0), BuildingBlock: TEMPAE_clean_linker_10, # of connection points: 2
#     Edge 16, Type (0, 0), BuildingBlock: TEMPAE_clean_linker_10, # of connection points: 2
#     Edge 17, Type (0, 0), BuildingBlock: TEMPAE_clean_linker_10, # of connection points: 2
#     Edge 18, Type (0, 0), BuildingBlock: TEMPAE_clean_linker_10, # of connection points: 2
#     Edge 19, Type (0, 0), BuildingBlock: TEMPAE_clean_linker_10, # of connection points: 2
#     Edge 20, Type (0, 0), BuildingBlock: TEMPAE_clean_linker_10, # of connection points: 2
#     Edge 21, Type (0, 0), BuildingBlock: TEMPAE_clean_linker_10, # of connection points: 2
#     Edge 22, Type (0, 0), BuildingBlock: TEMPAE_clean_linker_10, # of connection points: 2
#     Edge 23, Type (0, 0), BuildingBlock: TEMPAE_clean_linker_10, # of connection points: 2
#     Edge 24, Type (0, 0), BuildingBlock: TEMPAE_clean_linker_10, # of connection points: 2
#     Edge 25, Type (0, 0), BuildingBlock: TEMPAE_clean_linker_10, # of connection points: 2
#     Edge 26, Type (0, 0), BuildingBlock: TEMPAE_clean_linker_10, # of connection points: 2
#     Edge 27, Type (0, 0), BuildingBlock: TEMPAE_clean_linker_10, # of connection points: 2
#     Edge 28, Type (0, 0), BuildingBlock: TEMPAE_clean_linker_10, # of connection points: 2
#     Edge 29, Type (0, 0), BuildingBlock: TEMPAE_clean_linker_10, # of connection points: 2
#     Edge 30, Type (0, 0), BuildingBlock: TEMPAE_clean_linker_10, # of connection points: 2
#     Edge 31, Type (0, 0), BuildingBlock: TEMPAE_clean_linker_10, # of connection points: 2
#     Edge 32, Type (0, 0), BuildingBlock: TEMPAE_clean_linker_10, # of connection points: 2
#     Edge 33, Type (0, 0), BuildingBlock: TEMPAE_clean_linker_10, # of connection points: 2
#     Edge 34, Type (0, 0), BuildingBlock: TEMPAE_clean_linker_10, # of connection points: 2
#     Edge 35, Type (0, 0), BuildingBlock: TEMPAE_clean_linker_10, # of connection points: 2
# Relax obj value: 0.180
# Max RMSD: 0.140
# Mean RMSD: 0.140
data_MOF--net-uof--node1-KUFVIS_clean_sbu_0--edge1-TEMPAE_clean_linker_10
_symmetry_space_group_name_H-M    P1
_symmetry_Int_Tables_number       1
_symmetry_cell_setting            triclinic
loop_
_symmetry_equiv_pos_as_xyz
'x, y, z'
_cell_length_a     32.264372
_cell_length_b     32.336149
_cell_length_c     63.173399
_cell_angle_alpha  90.202953
_cell_angle_beta   89.953702
_cell_angle_gamma 120.00361
loop_
_atom_site_label
_atom_site_type_symbol
_atom_site_fract_x
_atom_site_fract_y
_atom_site_fract_z
_atom_type_partial_charge
Mn0 Mn 0.24433 0.32393 0.21469 0.0
Mn1 Mn 0.32121 0.30635 0.24523 0.0
C2 C 0.2847 0.28708 0.20144 0.0
C3 C 0.16638 0.29519 0.2 0.0
C4 C 0.34757 0.40223 0.22599 0.0
O5 O 0.22581 0.33259 0.24509 0.0
O6 O 0.27715 0.31646 0.26277 0.0
C7 C 0.25127 0.21404 0.26451 0.0
N8 N 0.29195 0.24069 0.25312 0.0
C9 C 0.30778 0.17555 0.25136 0.0
C10 C 0.26607 0.14738 0.26308 0.0
C11 C 0.2376 0.16668 0.26961 0.0
C12 C 0.31933 0.22234 0.24657 0.0
H13 H 0.22952 0.22885 0.2697 0.0
C14 C 0.24362 0.32645 0.26218 0.0
O15 O 0.19831 0.34035 0.20017 0.0
O16 O 0.17854 0.26746 0.20952 0.0
N17 N 0.36634 0.2956 0.23008 0.0
C18 C 0.40515 0.32731 0.21868 0.0
C19 C 0.43706 0.31341 0.21077 0.0
C20 C 0.42931 0.26748 0.21504 0.0
C21 C 0.38966 0.23582 0.22717 0.0
C22 C 0.35896 0.25155 0.23453 0.0
H23 H 0.41171 0.36291 0.21561 0.0
O24 O 0.26768 0.30623 0.18867 0.0
O25 O 0.27732 0.28939 0.22136 0.0
O26 O 0.30818 0.38937 0.21608 0.0
O27 O 0.3547 0.37416 0.23759 0.0
C28 C 0.37956 0.18937 0.23237 0.0
C29 C 0.33838 0.15906 0.24424 0.0
H30 H 0.25552 0.1109 0.26712 0.0
H31 H 0.20535 0.14519 0.27866 0.0
H32 H 0.4677 0.33814 0.2015 0.0
H33 H 0.4541 0.25696 0.20896 0.0
H34 H 0.40324 0.17658 0.2273 0.0
H35 H 0.33065 0.12317 0.24786 0.0
Mn36 Mn 0.97147 0.2346 0.54479 0.0
Mn37 Mn 0.05897 0.29974 0.58076 0.0
C38 C 0.05037 0.25379 0.53855 0.0
C39 C 0.9134 0.16029 0.5297 0.0
C40 C 1.01632 0.34344 0.55179 0.0
O41 O 0.93312 0.22414 0.57205 0.0
O42 O 0.99551 0.26708 0.59407 0.0
C43 C 0.05336 0.22311 0.60835 0.0
N44 N 0.07946 0.26282 0.59644 0.0
C45 C 0.15343 0.27116 0.6093 0.0
C46 C 0.12731 0.23069 0.62198 0.0
C47 C 0.07703 0.20622 0.6213 0.0
C48 C 0.1278 0.28568 0.59645 0.0
H49 H 1.01492 0.20486 0.60802 0.0
C50 C 0.95085 0.24021 0.59037 0.0
O51 O 0.91198 0.19928 0.5267 0.0
O52 O 0.94694 0.16407 0.54221 0.0
N53 N 0.12298 0.33342 0.57024 0.0
C54 C 0.1425 0.36981 0.55602 0.0
C55 C 0.19247 0.39799 0.55453 0.0
C56 C 0.22178 0.38847 0.56767 0.0
C57 C 0.20084 0.34997 0.58179 0.0
C58 C 0.15089 0.32337 0.58265 0.0
H59 H 0.1201 0.37797 0.54625 0.0
O60 O 0.02071 0.24554 0.52307 0.0
O61 O 0.03403 0.25294 0.5574 0.0
O62 O 0.98609 0.30532 0.54203 0.0
O63 O 0.0432 0.3432 0.56637 0.0
C64 C 0.22753 0.33713 0.59516 0.0
C65 C 0.20384 0.29748 0.60877 0.0
H66 H 0.14547 0.21784 0.63213 0.0
H67 H 0.0566 0.17481 0.63094 0.0
H68 H 0.20836 0.42762 0.54362 0.0
H69 H 0.26033 0.41056 0.56659 0.0
H70 H 0.26628 0.35706 0.59486 0.0
H71 H 0.22472 0.28737 0.61865 0.0
Mn72 Mn 0.71926 0.93594 0.8913 0.0
Mn73 Mn 0.74088 0.01672 0.9309 0.0
C74 C 0.76929 0.0172 0.88646 0.0
C75 C 0.74064 0.88488 0.87237 0.0
C76 C 0.65218 0.97584 0.90315 0.0
O77 O 0.69629 0.89296 0.9177 0.0
O78 O 0.71168 0.95119 0.94143 0.0
C79 C 0.81705 1.00359 0.95039 0.0
N80 N 0.80198 0.03307 0.94262 0.0
C81 C 0.87989 0.10195 0.94813 0.0
C82 C 0.8957 0.07239 0.95678 0.0
C83 C 0.86419 0.02291 0.95777 0.0
C84 C 0.83253 0.08052 0.94092 0.0
H85 H 0.79339 0.96562 0.95082 0.0
C86 C 0.69637 0.90762 0.93656 0.0
O87 O 0.69821 0.87997 0.87099 0.0
O88 O 0.76952 0.9176 0.88543 0.0
N89 N 0.76988 0.08311 0.92398 0.0
C90 C 0.74762 0.10729 0.91751 0.0
C91 C 0.77371 0.15729 0.91609 0.0
C92 C 0.82213 0.1822 0.92202 0.0
C93 C 0.84339 0.15694 0.9301 0.0
C94 C 0.81527 0.10713 0.93142 0.0
H95 H 0.71002 0.08869 0.91386 0.0
O96 O 0.75095 0.98903 0.87028 0.0
O97 O 0.75941 0.9975 0.90487 0.0
O98 O 0.66045 0.94682 0.89239 0.0
O99 O 0.67938 1.00271 0.91802 0.0
C100 C 0.89104 0.17933 0.93737 0.0
C101 C 0.9094 0.1518 0.94622 0.0
H102 H 0.93206 0.08721 0.96249 0.0
H103 H 0.87626 0.9997 0.96413 0.0
H104 H 0.75645 0.17658 0.91055 0.0
H105 H 0.84228 0.22076 0.92078 0.0
H106 H 0.91378 0.21772 0.93632 0.0
H107 H 0.94618 0.16935 0.95164 0.0
Mn108 Mn 0.78703 0.72865 0.22478 0.0
Mn109 Mn 0.72726 0.76283 0.25814 0.0
C110 C 0.7854 0.79925 0.21867 0.0
C111 C 0.8597 0.73575 0.21187 0.0
C112 C 0.67671 0.68639 0.22501 0.0
O113 O 0.7793 0.68653 0.25073 0.0
O114 O 0.73693 0.71223 0.26903 0.0
C115 C 0.80868 0.80681 0.28802 0.0
N116 N 0.77289 0.80829 0.27731 0.0
C117 C 0.78805 0.88007 0.29523 0.0
C118 C 0.82461 0.87905 0.30682 0.0
C119 C 0.83553 0.84269 0.30288 0.0
C120 C 0.76407 0.8445 0.27998 0.0
H121 H 0.81621 0.77822 0.28532 0.0
C122 C 0.75452 0.68511 0.26682 0.0
O123 O 0.8182 0.7002 0.20641 0.0
O124 O 0.85882 0.76373 0.22631 0.0
N125 N 0.71211 0.81126 0.25132 0.0
C126 C 0.67443 0.80554 0.2394 0.0
C127 C 0.6552 0.83556 0.24282 0.0
C128 C 0.67544 0.87183 0.25818 0.0
C129 C 0.71457 0.87762 0.27009 0.0
C130 C 0.7306 0.84515 0.26669 0.0
H131 H 0.65759 0.77671 0.2281 0.0
O132 O 0.79206 0.7761 0.20359 0.0
O133 O 0.77829 0.78003 0.23729 0.0
O134 O 0.71395 0.68514 0.21864 0.0
O135 O 0.67838 0.71633 0.23873 0.0
C136 C 0.73685 0.9129 0.2859 0.0
C137 C 0.77437 0.9148 0.29814 0.0
H138 H 0.84477 0.90621 0.31859 0.0
H139 H 0.86422 0.84196 0.31131 0.0
H140 H 0.62457 0.83062 0.2338 0.0
H141 H 0.6607 0.8951 0.26064 0.0
H142 H 0.72549 0.9388 0.28874 0.0
H143 H 0.79183 0.94256 0.30999 0.0
Mn144 Mn 0.08622 0.77563 0.52555 0.0
Mn145 Mn 0.97107 0.68802 0.52098 0.0
C146 C 0.05289 0.75024 0.4919 0.0
C147 C 0.1422 0.85943 0.52371 0.0
C148 C 0.05146 0.66918 0.53219 0.0
O149 O 0.0599 0.77601 0.55529 0.0
O150 O 0.98383 0.71783 0.54942 0.0
C151 C 0.91876 0.74084 0.5257 0.0
N152 N 0.92997 0.71258 0.5138 0.0
C153 C 0.86576 0.69484 0.48945 0.0
C154 C 0.85338 0.72348 0.50154 0.0
C155 C 0.87993 0.74647 0.51978 0.0
C156 C 0.90449 0.6901 0.49628 0.0
H157 H 0.93882 0.75841 0.53978 0.0
C158 C 1.01642 0.74944 0.56133 0.0
O159 O 0.15449 0.82964 0.53116 0.0
O160 O 0.09746 0.84135 0.51949 0.0
N161 N 0.9529 0.65577 0.49431 0.0
C162 C 0.96608 0.62533 0.48571 0.0
C163 C 0.94247 0.59894 0.46752 0.0
C164 C 0.90471 0.60307 0.45874 0.0
C165 C 0.8911 0.63382 0.46815 0.0
C166 C 0.91668 0.66008 0.48595 0.0
H167 H 0.99417 0.621 0.49273 0.0
O168 O 0.09816 0.76846 0.49533 0.0
O169 O 0.02729 0.74414 0.50886 0.0
O170 O 0.0863 0.71244 0.53213 0.0
O171 O 1.00832 0.65755 0.52831 0.0
C172 C 0.85252 0.63865 0.46082 0.0
C173 C 0.84003 0.66936 0.47137 0.0
H174 H 0.82345 0.72791 0.49702 0.0
H175 H 0.87058 0.76861 0.52921 0.0
H176 H 0.95287 0.57493 0.46048 0.0
H177 H 0.88616 0.58218 0.44488 0.0
H178 H 0.83165 0.61826 0.44732 0.0
H179 H 0.80996 0.67236 0.4657 0.0
Mn180 Mn 0.30882 0.07299 0.87829 0.0
Mn181 Mn 0.2855 0.97087 0.90372 0.0
C182 C 0.28076 1.00146 0.86025 0.0
C183 C 0.281 0.12396 0.86502 0.0
C184 C 0.38594 0.04918 0.89285 0.0
O185 O 0.30391 0.08857 0.90958 0.0
O186 O 0.28293 0.01633 0.9237 0.0
C187 C 0.18428 0.93427 0.91585 0.0
N188 N 0.21801 0.92798 0.90576 0.0
C189 C 0.1598 0.84682 0.89684 0.0
C190 C 0.1245 0.85248 0.9072 0.0
C191 C 0.13678 0.89652 0.91665 0.0
C192 C 0.20645 0.88591 0.8964 0.0
H193 H 0.1936 0.96774 0.92323 0.0
C194 C 0.29055 0.05906 0.92507 0.0
O195 O 0.32632 0.139 0.86763 0.0
O196 O 0.25219 0.08058 0.871 0.0
N197 N 0.28601 0.9234 0.88563 0.0
C198 C 0.32358 0.92444 0.87527 0.0
C199 C 0.31681 0.88375 0.86424 0.0
C200 C 0.27175 0.84205 0.86435 0.0
C201 C 0.23377 0.8416 0.87534 0.0
C202 C 0.24248 0.88346 0.88578 0.0
H203 H 0.35845 0.95599 0.87541 0.0
O204 O 0.30265 0.04162 0.85012 0.0
O205 O 0.2757 1.00429 0.88036 0.0
O206 O 0.37488 0.0769 0.88288 0.0
O207 O 0.35542 1.01096 0.90206 0.0
C208 C 0.18762 0.80124 0.87637 0.0
C209 C 0.1505 0.80398 0.88689 0.0
H210 H 0.08786 0.82336 0.9079 0.0
H211 H 0.10975 0.90127 0.92464 0.0
H212 H 0.34637 0.8844 0.85584 0.0
H213 H 0.26668 0.81064 0.85591 0.0
H214 H 0.18016 0.76799 0.86894 0.0
H215 H 0.1149 0.77297 0.88717 0.0
Mn216 Mn 0.74961 0.79084 0.42795 0.0
Mn217 Mn 0.78735 0.74868 0.38843 0.0
C218 C 0.82692 0.79974 0.43109 0.0
C219 C 0.74851 0.85944 0.44048 0.0
C220 C 0.71155 0.68639 0.42179 0.0
O221 O 0.69696 0.76886 0.40447 0.0
O222 O 0.75064 0.77985 0.38065 0.0
C223 C 0.84928 0.83842 0.36515 0.0
N224 N 0.84127 0.79608 0.37324 0.0
C225 C 0.91247 0.80471 0.35689 0.0
C226 C 0.92158 0.84844 0.34836 0.0
C227 C 0.89039 0.86583 0.3529 0.0
C228 C 0.87231 0.78021 0.36987 0.0
H229 H 0.82461 0.8512 0.36811 0.0
C230 C 0.70741 0.76475 0.38537 0.0
O231 O 0.71835 0.81704 0.44752 0.0
O232 O 0.77435 0.86073 0.42457 0.0
N233 N 0.8261 0.72053 0.39406 0.0
C234 C 0.81472 0.68011 0.40511 0.0
C235 C 0.84174 0.65744 0.40212 0.0
C236 C 0.8806 0.67686 0.38806 0.0
C237 C 0.89274 0.71938 0.37743 0.0
C238 C 0.86383 0.73974 0.38065 0.0
H239 H 0.78456 0.66452 0.41571 0.0
O240 O 0.80586 0.80723 0.4468 0.0
O241 O 0.80277 0.78827 0.41363 0.0
O242 O 0.71829 0.71939 0.43503 0.0
O243 O 0.7319 0.6952 0.40353 0.0
C244 C 0.93197 0.74198 0.36352 0.0
C245 C 0.94224 0.78501 0.35348 0.0
H246 H 0.95269 0.86922 0.33852 0.0
H247 H 0.89751 0.89982 0.34658 0.0
H248 H 0.83223 0.62461 0.41033 0.0
H249 H 0.90135 0.65925 0.38583 0.0
H250 H 0.95501 0.72707 0.36074 0.0
H251 H 0.97332 0.80284 0.34332 0.0
Mn252 Mn 0.94671 0.72167 0.76004 0.0
Mn253 Mn 0.04778 0.75633 0.73101 0.0
C254 C 0.0216 0.76061 0.77561 0.0
C255 C 0.89084 0.7418 0.77519 0.0
C256 C 0.98598 0.65493 0.74704 0.0
O257 O 0.92206 0.71578 0.72936 0.0
O258 O 0.99277 0.74101 0.71286 0.0
C259 C 0.05718 0.84673 0.7152 0.0
N260 N 0.07642 0.82298 0.72518 0.0
C261 C 0.15285 0.8948 0.72827 0.0
C262 C 0.13394 0.92004 0.71793 0.0
C263 C 0.0858 0.89593 0.71148 0.0
C264 C 0.12237 0.84599 0.73184 0.0
H265 H 1.02033 0.82825 0.71009 0.0
C266 C 0.94805 0.72629 0.71268 0.0
O267 O 0.88106 0.6977 0.77347 0.0
O268 O 0.93099 0.77314 0.7669 0.0
N269 N 0.10545 0.77287 0.74607 0.0
C270 C 0.11819 0.74327 0.75577 0.0
C271 C 0.16536 0.76165 0.76296 0.0
C272 C 0.19924 0.80991 0.7596 0.0
C273 C 0.18551 0.83958 0.74936 0.0
C274 C 0.138 0.81927 0.74256 0.0
H275 H 0.09262 0.70585 0.75791 0.0
O276 O 0.98366 0.73635 0.78701 0.0
O277 O 1.015 0.76327 0.75557 0.0
O278 O 0.95344 0.66065 0.75622 0.0
O279 O 0.02117 0.68826 0.73701 0.0
C280 C 0.21723 0.88836 0.74537 0.0
C281 C 0.20076 0.91609 0.73509 0.0
H282 H 0.15604 0.95791 0.71489 0.0
H283 H 0.07089 0.91515 0.70353 0.0
H284 H 0.17576 0.73852 0.7708 0.0
H285 H 0.23583 0.82367 0.76475 0.0
H286 H 0.25437 0.905 0.75019 0.0
H287 H 0.22533 0.95369 0.73238 0.0
Mn288 Mn 0.24067 0.95176 0.10923 0.0
Mn289 Mn 0.31317 0.05448 0.08276 0.0
C290 C 0.2837 0.02423 0.12693 0.0
C291 C 0.16383 0.89808 0.12375 0.0
C292 C 0.34071 0.97946 0.09214 0.0
O293 O 0.21746 0.93468 0.07824 0.0
O294 O 0.26339 1.00793 0.06388 0.0
C295 C 0.24484 0.08803 0.07343 0.0
N296 N 0.28705 0.096 0.0818 0.0
C297 C 0.31265 0.17878 0.08805 0.0
C298 C 0.26957 0.17156 0.07932 0.0
C299 C 0.23528 0.12582 0.07219 0.0
C300 C 0.31967 0.13951 0.08926 0.0
H301 H 0.21884 0.05318 0.06776 0.0
C302 C 0.22999 0.96435 0.06285 0.0
O303 O 0.19531 0.885 0.12013 0.0
O304 O 0.17619 0.94115 0.11808 0.0
N305 N 0.36312 0.10327 0.09955 0.0
C306 C 0.4012 0.1034 0.10895 0.0
C307 C 0.43772 0.14586 0.1179 0.0
C308 C 0.43535 0.18799 0.11659 0.0
C309 C 0.39594 0.187 0.10672 0.0
C310 C 0.36006 0.1434 0.0986 0.0
H311 H 0.40387 0.07147 0.10952 0.0
O312 O 0.26786 0.98438 0.13713 0.0
O313 O 0.27352 0.02056 0.10703 0.0
O314 O 0.30384 0.95086 0.10307 0.0
O315 O 0.34477 0.01629 0.08296 0.0
C316 C 0.39097 0.22762 0.1045 0.0
C317 C 0.349 0.2234 0.09553 0.0
H318 H 0.26233 0.20076 0.07815 0.0
H319 H 0.20182 0.11984 0.06554 0.0
H320 H 0.46799 0.1463 0.12549 0.0
H321 H 0.4639 0.22084 0.12326 0.0
H322 H 0.41903 0.26222 0.1099 0.0
H323 H 0.34504 0.25468 0.09446 0.0
Mn324 Mn 0.33916 0.26305 0.44527 0.0
Mn325 Mn 0.32693 0.36065 0.44865 0.0
C326 C 0.33419 0.29213 0.4786 0.0
C327 C 0.3024 0.17827 0.44773 0.0
C328 C 0.42011 0.36467 0.43652 0.0
O329 O 0.31416 0.26571 0.41537 0.0
O330 O 0.30205 0.32792 0.42115 0.0
C331 C 0.22274 0.32341 0.44668 0.0
N332 N 0.26481 0.34741 0.45747 0.0
C333 C 0.231 0.38042 0.48157 0.0
C334 C 0.18755 0.35655 0.47052 0.0
C335 C 0.18359 0.32834 0.45284 0.0
C336 C 0.26921 0.37529 0.47429 0.0
H337 H 0.21909 0.3006 0.43355 0.0
C338 C 0.29912 0.29402 0.40952 0.0
O339 O 0.34538 0.2041 0.44017 0.0
O340 O 0.27963 0.20083 0.45138 0.0
N341 N 0.34924 0.39546 0.47459 0.0
C342 C 0.39457 0.41887 0.48257 0.0
C343 C 0.40458 0.44838 0.50043 0.0
C344 C 0.36822 0.45444 0.50956 0.0
C345 C 0.32201 0.43048 0.50088 0.0
C346 C 0.31386 0.40053 0.48343 0.0
H347 H 0.42291 0.4153 0.47529 0.0
O348 O 0.35665 0.26883 0.47577 0.0
O349 O 0.31843 0.30131 0.46127 0.0
O350 O 0.40689 0.32037 0.43851 0.0
O351 O 0.39224 0.38127 0.43944 0.0
C352 C 0.28381 0.43538 0.50876 0.0
C353 C 0.2384 0.41057 0.49903 0.0
H354 H 0.15708 0.35975 0.4754 0.0
H355 H 0.15015 0.30965 0.44424 0.0
H356 H 0.44041 0.46699 0.50695 0.0
H357 H 0.37623 0.47774 0.52316 0.0
H358 H 0.28906 0.4584 0.5222 0.0
H359 H 0.20948 0.41523 0.50494 0.0
Mn360 Mn 0.05113 0.29125 0.77851 0.0
Mn361 Mn 0.93363 0.25238 0.77016 0.0
C362 C 0.99837 0.27419 0.8067 0.0
C363 C 0.11008 0.26901 0.78586 0.0
C364 C 1.0114 0.35623 0.76496 0.0
O365 O 0.04206 0.27002 0.74697 0.0
O366 O 0.96212 0.23955 0.7456 0.0
C367 C 0.89872 0.14846 0.76834 0.0
N368 N 0.89562 0.18596 0.77633 0.0
C369 C 0.82165 0.13342 0.79394 0.0
C370 C 0.82341 0.0941 0.78556 0.0
C371 C 0.86253 0.10167 0.77296 0.0
C372 C 0.85946 0.17909 0.78928 0.0
H373 H 0.9287 0.15433 0.75864 0.0
C374 C 1.00143 0.24703 0.73749 0.0
O375 O 0.12214 0.31191 0.77964 0.0
O376 O 0.06476 0.23909 0.78642 0.0
N377 N 0.9003 0.26181 0.79296 0.0
C378 C 0.90569 0.30351 0.8008 0.0
C379 C 0.87041 0.30235 0.81422 0.0
C380 C 0.82934 0.25851 0.81887 0.0
C381 C 0.82461 0.21606 0.81057 0.0
C382 C 0.8616 0.21935 0.79786 0.0
H383 H 0.93617 0.33741 0.79648 0.0
O384 O 0.04395 0.30153 0.80951 0.0
O385 O 0.98547 0.25829 0.78769 0.0
O386 O 0.04765 0.35249 0.77079 0.0
O387 O 0.96894 0.32072 0.76368 0.0
C388 C 0.7847 0.17056 0.81444 0.0
C389 C 0.78373 0.12921 0.80656 0.0
H390 H 0.7952 0.058 0.78884 0.0
H391 H 0.86451 0.07155 0.76666 0.0
H392 H 0.8743 0.33525 0.82055 0.0
H393 H 0.80182 0.25781 0.82895 0.0
H394 H 0.75495 0.16693 0.82381 0.0
H395 H 0.75352 0.0944 0.81017 0.0
Mn396 Mn 0.77422 0.05204 0.11573 0.0
Mn397 Mn 0.69075 0.93657 0.12359 0.0
C398 C 0.7521 0.02359 0.15021 0.0
C399 C 0.85753 0.11068 0.11653 0.0
C400 C 0.66626 1.01119 0.10911 0.0
O401 O 0.77384 0.02185 0.08678 0.0
O402 O 0.719 0.94617 0.09514 0.0
C403 C 0.74676 0.88742 0.12059 0.0
N404 N 0.71826 0.89896 0.13214 0.0
C405 C 0.70166 0.83691 0.15732 0.0
C406 C 0.7306 0.82424 0.14562 0.0
C407 C 0.75333 0.84969 0.12719 0.0
C408 C 0.69635 0.87482 0.14994 0.0
H409 H 0.76345 0.90611 0.10615 0.0
C410 C 0.74843 0.97726 0.08219 0.0
O411 O 0.82606 0.12022 0.1086 0.0
O412 O 0.84141 0.06682 0.12166 0.0
N413 N 0.65962 0.92114 0.15047 0.0
C414 C 0.62734 0.93292 0.15812 0.0
C415 C 0.60084 0.91007 0.17633 0.0
C416 C 0.60639 0.87403 0.18595 0.0
C417 C 0.63876 0.86151 0.17741 0.0
C418 C 0.66543 0.88668 0.15969 0.0
H419 H 0.62161 0.9593 0.15031 0.0
O420 O 0.76862 0.06794 0.1456 0.0
O421 O 0.74606 0.9959 0.13405 0.0
O422 O 0.70869 0.0477 0.10862 0.0
O423 O 0.65744 0.96988 0.11475 0.0
C424 C 0.64426 0.82385 0.18531 0.0
C425 C 0.67597 0.8118 0.1754 0.0
H426 H 0.73533 0.7948 0.15054 0.0
H427 H 0.77558 0.84003 0.11803 0.0
H428 H 0.57545 0.91946 0.18265 0.0
H429 H 0.58514 0.85576 0.19972 0.0
H430 H 0.62319 0.80296 0.19861 0.0
H431 H 0.67927 0.78227 0.18146 0.0
C432 C 0.94469 0.13897 0.12265 0.0
C433 C 0.90627 0.14769 0.12404 0.0
C434 C 0.98799 0.16731 0.13375 0.0
C435 C 0.99272 0.20426 0.14752 0.0
C436 C 0.95434 0.21392 0.1486 0.0
C437 C 0.91206 0.18609 0.13665 0.0
C438 C 0.02801 0.1563 0.13136 0.0
C439 C 0.95653 0.2515 0.16351 0.0
C440 C 0.08029 0.23173 0.19379 0.0
C441 C 0.12039 0.27504 0.18773 0.0
C442 C 0.03817 0.20967 0.18137 0.0
C443 C 0.03618 0.23012 0.1618 0.0
C444 C 0.07655 0.27409 0.15566 0.0
C445 C 0.11766 0.2963 0.1688 0.0
C446 C 0.99597 0.16381 0.18908 0.0
C447 C 0.07718 0.29665 0.13471 0.0
H448 H 0.94035 0.10889 0.11328 0.0
H449 H 0.88212 0.1922 0.13842 0.0
H450 H 0.06261 0.18965 0.12882 0.0
H451 H 0.03139 0.13962 0.14608 0.0
H452 H 0.0217 0.13151 0.11795 0.0
H453 H 0.92568 0.25738 0.16141 0.0
H454 H 0.95658 0.24026 0.18009 0.0
H455 H 0.99012 0.28589 0.16116 0.0
H456 H 0.08191 0.21485 0.20832 0.0
H457 H 0.14862 0.32931 0.16374 0.0
H458 H 0.99077 0.13383 0.17872 0.0
H459 H 0.96278 0.16605 0.18826 0.0
H460 H 1.00086 0.15536 0.2056 0.0
H461 H 0.07419 0.27229 0.12163 0.0
H462 H 0.11043 0.33153 0.13245 0.0
H463 H 0.04598 0.30213 0.13345 0.0
C464 C 0.89063 0.07661 0.51864 0.0
C465 C 0.8813 0.11465 0.51809 0.0
C466 C 0.86393 0.03498 0.50635 0.0
C467 C 0.82617 0.03044 0.49324 0.0
C468 C 0.81537 0.06797 0.49321 0.0
C469 C 0.8432 0.10964 0.50545 0.0
C470 C 0.87739 0.99649 0.50682 0.0
C471 C 0.77509 0.06461 0.47982 0.0
C472 C 0.79887 0.94833 0.4452 0.0
C473 C 0.76119 0.90445 0.45245 0.0
C474 C 0.8189 0.98974 0.45795 0.0
C475 C 0.80067 0.98802 0.47855 0.0
C476 C 0.76065 0.94464 0.48549 0.0
C477 C 0.74163 0.9034 0.47247 0.0
C478 C 0.86157 0.03473 0.44976 0.0
C479 C 0.73928 0.94114 0.50711 0.0
H480 H 0.91996 0.0799 0.52824 0.0
H481 H 0.83547 0.1386 0.50488 0.0
H482 H 0.84575 0.96164 0.51092 0.0
H483 H 0.88959 0.99261 0.49089 0.0
H484 H 0.90635 1.00441 0.5184 0.0
H485 H 0.76812 0.09439 0.48304 0.0
H486 H 0.78403 0.06537 0.46282 0.0
H487 H 0.74176 0.03025 0.48275 0.0
H488 H 0.81454 0.9499 0.42983 0.0
H489 H 0.71276 0.86987 0.47837 0.0
H490 H 0.89355 0.04319 0.45945 0.0
H491 H 0.85534 0.06538 0.45121 0.0
H492 H 0.86959 0.03133 0.43295 0.0
H493 H 0.76462 0.94293 0.51942 0.0
H494 H 0.70482 0.9073 0.50914 0.0
H495 H 0.73324 0.97163 0.50986 0.0
C496 C 0.80088 0.85946 0.8628 0.0
C497 C 0.75704 0.85743 0.85871 0.0
C498 C 0.81896 0.83717 0.8493 0.0
C499 C 0.79326 0.81251 0.83084 0.0
C500 C 0.74853 0.80961 0.82681 0.0
C501 C 0.7309 0.83168 0.84078 0.0
C502 C 0.86634 0.84094 0.85462 0.0
C503 C 0.71991 0.78444 0.80732 0.0
C504 C 0.86925 0.80399 0.78591 0.0
C505 C 0.86118 0.75719 0.78783 0.0
C506 C 0.84623 0.8216 0.7992 0.0
C507 C 0.81458 0.79227 0.81531 0.0
C508 C 0.8054 0.74456 0.81705 0.0
C509 C 0.82841 0.72756 0.80327 0.0
C510 C 0.85686 0.8723 0.7963 0.0
C511 C 0.77258 0.71193 0.83404 0.0
H512 H 0.82154 0.87906 0.87655 0.0
H513 H 0.69721 0.82997 0.83728 0.0
H514 H 0.86259 0.80491 0.8548 0.0
H515 H 0.89306 0.86201 0.84228 0.0
H516 H 0.8804 0.85831 0.87022 0.0
H517 H 0.68484 0.78309 0.80687 0.0
H518 H 0.74049 0.80318 0.79296 0.0
H519 H 0.71355 0.74743 0.8066 0.0
H520 H 0.89438 0.8274 0.77412 0.0
H521 H 0.82212 0.69158 0.80515 0.0
H522 H 0.87574 0.89386 0.81048 0.0
H523 H 0.82302 0.87309 0.79468 0.0
H524 H 0.87944 0.88948 0.78217 0.0
H525 H 0.78806 0.72653 0.84985 0.0
H526 H 0.76688 0.67518 0.83268 0.0
H527 H 0.73735 0.71009 0.83322 0.0
C528 C 0.90387 0.73173 0.17943 0.0
C529 C 0.905 0.74949 0.19989 0.0
C530 C 0.9453 0.75122 0.16653 0.0
C531 C 0.98939 0.78921 0.17425 0.0
C532 C 0.99117 0.80544 0.19531 0.0
C533 C 0.9492 0.78573 0.20773 0.0
C534 C 0.94125 0.73278 0.14423 0.0
C535 C 0.03713 0.84524 0.20449 0.0
C536 C 0.10894 0.82602 0.14613 0.0
C537 C 0.1175 0.86733 0.13517 0.0
C538 C 0.06721 0.79972 0.15854 0.0
C539 C 0.03262 0.81456 0.15996 0.0
C540 C 0.04049 0.85539 0.14838 0.0
C541 C 0.08265 0.88124 0.13633 0.0
C542 C 0.06086 0.75684 0.17067 0.0
C543 C 1.00476 0.87257 0.14908 0.0
H544 H 0.87002 0.70418 0.17304 0.0
H545 H 0.95075 0.79993 0.22346 0.0
H546 H 0.94603 0.76091 0.13286 0.0
H547 H 0.96993 0.72418 0.14104 0.0
H548 H 0.90601 0.70041 0.14117 0.0
H549 H 0.03389 0.85083 0.22163 0.0
H550 H 0.06665 0.83744 0.20225 0.0
H551 H 0.04728 0.87902 0.19604 0.0
H552 H 0.13557 0.81496 0.14553 0.0
H553 H 0.08857 0.91294 0.12796 0.0
H554 H 0.0256 0.72522 0.16696 0.0
H555 H 0.06139 0.76375 0.18792 0.0
H556 H 0.08938 0.74818 0.16706 0.0
H557 H 0.96865 0.84309 0.14469 0.0
H558 H 1.01454 0.9031 0.13826 0.0
H559 H 1.0024 0.88387 0.16543 0.0
C560 C 0.31325 0.11342 0.46462 0.0
C561 C 0.28288 0.12843 0.45594 0.0
C562 C 0.29481 0.07038 0.47626 0.0
C563 C 0.24459 0.04062 0.4789 0.0
C564 C 0.21382 0.05482 0.46938 0.0
C565 C 0.23324 0.09862 0.45844 0.0
C566 C 0.32923 0.05784 0.48657 0.0
C567 C 0.16015 0.02431 0.47116 0.0
C568 C 0.19138 0.90825 0.49331 0.0
C569 C 0.17685 0.90676 0.51439 0.0
C570 C 0.21408 0.95135 0.48177 0.0
C571 C 0.22401 0.99488 0.49162 0.0
C572 C 0.21134 0.99385 0.51328 0.0
C573 C 0.18703 0.94979 0.52422 0.0
C574 C 0.22468 0.94973 0.45861 0.0
C575 C 0.22179 0.03909 0.52471 0.0
H576 H 0.35164 0.13663 0.46333 0.0
H577 H 0.20937 0.11003 0.4521 0.0
H578 H 0.32438 0.0564 0.504 0.0
H579 H 0.32162 0.02195 0.48133 0.0
H580 H 0.36714 0.08412 0.48287 0.0
H581 H 0.1412 0.0363 0.4603 0.0
H582 H 0.14862 0.98649 0.46757 0.0
H583 H 0.14894 0.02587 0.4876 0.0
H584 H 0.18237 0.87497 0.4854 0.0
H585 H 0.17479 0.94887 0.54029 0.0
H586 H 0.26295 0.97509 0.45529 0.0
H587 H 0.2033 0.96097 0.44896 0.0
H588 H 0.21617 0.91347 0.4534 0.0
H589 H 0.25903 0.06787 0.52156 0.0
H590 H 0.21672 0.03372 0.54208 0.0
H591 H 0.19748 0.05148 0.51882 0.0
C592 C 0.28727 0.18313 0.83724 0.0
C593 C 0.2624 0.1527 0.8542 0.0
C594 C 0.26694 0.20544 0.82519 0.0
C595 C 0.22119 0.19873 0.83057 0.0
C596 C 0.19702 0.16971 0.8483 0.0
C597 C 0.21734 0.14642 0.85954 0.0
C598 C 0.29352 0.23445 0.80607 0.0
C599 C 0.14908 0.1625 0.85525 0.0
C600 C 0.17941 0.28376 0.80948 0.0
C601 C 0.14452 0.25498 0.79453 0.0
C602 C 0.20524 0.26647 0.82104 0.0
C603 C 0.1973 0.2197 0.81715 0.0
C604 C 0.16398 0.19167 0.80118 0.0
C605 C 0.13741 0.20914 0.79048 0.0
C606 C 0.23894 0.29725 0.83831 0.0
C607 C 0.15516 0.14241 0.79578 0.0
H608 H 0.32173 0.18768 0.83275 0.0
H609 H 0.19777 0.12304 0.87258 0.0
H610 H 0.27239 0.21719 0.79157 0.0
H611 H 0.29793 0.27068 0.80704 0.0
H612 H 0.32941 0.23794 0.80439 0.0
H613 H 0.13727 0.14325 0.87056 0.0
H614 H 0.15074 0.19748 0.85689 0.0
H615 H 0.12163 0.14164 0.84309 0.0
H616 H 0.18438 0.31875 0.81311 0.0
H617 H 0.11027 0.18644 0.77912 0.0
H618 H 0.27449 0.30024 0.83635 0.0
H619 H 0.2247 0.28029 0.8539 0.0
H620 H 0.24366 0.33371 0.83854 0.0
H621 H 0.18965 0.14329 0.7933 0.0
H622 H 0.13283 0.12759 0.78134 0.0
H623 H 0.13664 0.11781 0.80914 0.0
C624 C 0.61794 0.60253 0.21306 0.0
C625 C 0.6279 0.64889 0.21812 0.0
C626 C 0.5703 0.56459 0.21126 0.0
C627 C 0.53169 0.57322 0.21446 0.0
C628 C 0.54173 0.62063 0.21787 0.0
C629 C 0.58949 0.65768 0.21971 0.0
C630 C 0.56134 0.51468 0.20748 0.0
C631 C 0.50205 0.63186 0.22118 0.0
C632 C 0.4037 0.47195 0.20326 0.0
C633 C 0.38975 0.45082 0.22329 0.0
C634 C 0.44941 0.51245 0.20009 0.0
C635 C 0.48169 0.53232 0.21737 0.0
C636 C 0.46658 0.51242 0.23779 0.0
C637 C 0.42111 0.47203 0.24044 0.0
C638 C 0.464 0.53251 0.17809 0.0
C639 C 0.4992 0.53263 0.2568 0.0
H640 H 0.64718 0.59521 0.21188 0.0
H641 H 0.59662 0.69339 0.22341 0.0
H642 H 0.5479 0.49364 0.22226 0.0
H643 H 0.53348 0.49636 0.19515 0.0
H644 H 0.59433 0.51457 0.20252 0.0
H645 H 0.51529 0.67083 0.22043 0.0
H646 H 0.47351 0.61346 0.20914 0.0
H647 H 0.48561 0.61871 0.23695 0.0
H648 H 0.38008 0.45524 0.18986 0.0
H649 H 0.41063 0.4558 0.25596 0.0
H650 H 0.49214 0.52527 0.17215 0.0
H651 H 0.47948 0.57182 0.17829 0.0
H652 H 0.43341 0.51656 0.16684 0.0
H653 H 0.53145 0.52919 0.2545 0.0
H654 H 0.48138 0.51422 0.27172 0.0
H655 H 0.51155 0.57123 0.25859 0.0
C656 C 0.07763 0.61208 0.52037 0.0
C657 C 0.05888 0.62835 0.53626 0.0
C658 C 0.07141 0.56566 0.5211 0.0
C659 C 0.04573 0.53479 0.53811 0.0
C660 C 0.0282 0.55189 0.55453 0.0
C661 C 0.03464 0.59816 0.55329 0.0
C662 C 0.09073 0.54902 0.50328 0.0
C663 C 1.00133 0.52079 0.57314 0.0
C664 C 0.99039 0.39846 0.53475 0.0
C665 C 0.02368 0.39176 0.5463 0.0
C666 C 0.99759 0.44492 0.53134 0.0
C667 C 0.03919 0.48553 0.53951 0.0
C668 C 0.07355 0.47889 0.55043 0.0
C669 C 0.06535 0.43257 0.55372 0.0
C670 C 0.96009 0.45051 0.51955 0.0
C671 C 0.11851 0.52075 0.55934 0.0
H672 H 0.09466 0.6346 0.50675 0.0
H673 H 1.01877 0.61013 0.56524 0.0
H674 H 0.11441 0.5363 0.50965 0.0
H675 H 0.06071 0.5184 0.49499 0.0
H676 H 0.11118 0.57769 0.49158 0.0
H677 H 0.99033 0.53952 0.58467 0.0
H678 H 0.96884 0.48816 0.56749 0.0
H679 H 0.02395 0.50911 0.58147 0.0
H680 H 0.95821 0.36753 0.52889 0.0
H681 H 0.0919 0.42856 0.56254 0.0
H682 H 0.97684 0.47656 0.50649 0.0
H683 H 0.94326 0.46489 0.53041 0.0
H684 H 0.93164 0.41613 0.51286 0.0
H685 H 0.13777 0.54761 0.54683 0.0
H686 H 0.1433 0.50985 0.56618 0.0
H687 H 0.10891 0.53849 0.57193 0.0
C688 C 0.44712 0.04107 0.87225 0.0
C689 C 0.43441 0.05495 0.89111 0.0
C690 C 0.48298 0.02821 0.87192 0.0
C691 C 0.50797 0.03076 0.8908 0.0
C692 C 0.49767 0.04834 0.90952 0.0
C693 C 0.46037 0.05911 0.90955 0.0
C694 C 0.49132 1.00829 0.85176 0.0
C695 C 0.52444 0.0535 0.92984 0.0
C696 C 0.56508 0.95303 0.90072 0.0
C697 C 0.6134 0.98519 0.89653 0.0
C698 C 0.52998 0.96659 0.89791 0.0
C699 C 0.54373 0.01376 0.89129 0.0
C700 C 0.59233 0.04547 0.88625 0.0
C701 C 0.62618 0.0305 0.88858 0.0
C702 C 0.47839 0.93098 0.90277 0.0
C703 C 0.60913 0.09613 0.87942 0.0
H704 H 0.42595 0.036 0.85813 0.0
H705 H 0.44985 0.06853 0.92429 0.0
H706 H 0.53009 0.02536 0.84822 0.0
H707 H 0.47767 0.9695 0.85375 0.0
H708 H 0.47288 0.01325 0.83798 0.0
H709 H 0.51591 0.07242 0.9423 0.0
H710 H 0.51503 0.01767 0.93585 0.0
H711 H 0.56362 0.07339 0.92696 0.0
H712 H 0.55501 0.91803 0.90692 0.0
H713 H 0.66333 0.055 0.88477 0.0
H714 H 0.45494 0.92962 0.88962 0.0
H715 H 0.46711 0.9423 0.91722 0.0
H716 H 0.47264 0.89452 0.90538 0.0
H717 H 0.5885 0.09641 0.86545 0.0
H718 H 0.64784 0.11587 0.87542 0.0
H719 H 0.60265 0.11554 0.89235 0.0
C720 C 0.63763 0.62352 0.44057 0.0
C721 C 0.67575 0.63544 0.42658 0.0
C722 C 0.60002 0.57587 0.44262 0.0
C723 C 0.60067 0.53898 0.4306 0.0
C724 C 0.64049 0.55049 0.41745 0.0
C725 C 0.67721 0.59835 0.41552 0.0
C726 C 0.55807 0.56547 0.45666 0.0
C727 C 0.64323 0.51266 0.40446 0.0
C728 C 0.50756 0.4105 0.4456 0.0
C729 C 0.4702 0.40125 0.43158 0.0
C730 C 0.55124 0.45435 0.44492 0.0
C731 C 0.55742 0.48979 0.43001 0.0
C732 C 0.52067 0.47912 0.41504 0.0
C733 C 0.47783 0.43512 0.416 0.0
C734 C 0.58962 0.46384 0.46096 0.0
C735 C 0.52561 0.51483 0.39845 0.0
H736 H 0.63588 0.6517 0.44914 0.0
H737 H 0.70639 0.6068 0.4047 0.0
H738 H 0.52584 0.55458 0.44673 0.0
H739 H 0.55001 0.53534 0.46743 0.0
H740 H 0.56463 0.59696 0.46632 0.0
H741 H 0.63362 0.48063 0.41421 0.0
H742 H 0.6172 0.50137 0.39123 0.0
H743 H 0.67947 0.52583 0.39768 0.0
H744 H 0.50143 0.38502 0.45802 0.0
H745 H 0.44879 0.42825 0.40528 0.0
H746 H 0.59205 0.49071 0.47261 0.0
H747 H 0.62501 0.47883 0.45312 0.0
H748 H 0.58212 0.43098 0.46963 0.0
H749 H 0.53834 0.55059 0.40561 0.0
H750 H 0.49136 0.50382 0.39007 0.0
H751 H 0.55241 0.51829 0.38656 0.0
C752 C 1.01986 0.60292 0.73658 0.0
C753 C 0.98701 0.60921 0.74895 0.0
C754 C 0.02688 0.56381 0.73939 0.0
C755 C 1.00003 0.52901 0.75481 0.0
C756 C 0.96602 0.53428 0.76712 0.0
C757 C 0.95998 0.57433 0.7641 0.0
C758 C 0.06333 0.55987 0.7258 0.0
C759 C 0.93621 0.49766 0.78357 0.0
C760 C 0.9831 0.40488 0.74597 0.0
C761 C 1.01548 0.40337 0.76042 0.0
C762 C 0.97778 0.44522 0.74412 0.0
C763 C 1.00568 0.48581 0.75694 0.0
C764 C 0.03989 0.48544 0.771 0.0
C765 C 0.04441 0.4442 0.77259 0.0
C766 C 0.9413 0.44387 0.72872 0.0
C767 C 0.07079 0.52816 0.78477 0.0
H768 H 0.04106 0.62921 0.72472 0.0
H769 H 0.9349 0.57879 0.7739 0.0
H770 H 0.08996 0.55725 0.73596 0.0
H771 H 0.04541 0.52685 0.71607 0.0
H772 H 0.08266 0.59086 0.71504 0.0
H773 H 0.91176 0.50697 0.79203 0.0
H774 H 0.91454 0.46216 0.77596 0.0
H775 H 0.9599 0.49433 0.79532 0.0
H776 H 0.96055 0.37354 0.73646 0.0
H777 H 0.06887 0.44314 0.78403 0.0
H778 H 0.95899 0.47334 0.71713 0.0
H779 H 0.91436 0.44923 0.73734 0.0
H780 H 0.92238 0.40954 0.71989 0.0
H781 H 0.09099 0.56042 0.77483 0.0
H782 H 0.09661 0.52296 0.7944 0.0
H783 H 0.04784 0.53515 0.79558 0.0
C784 C 0.41945 0.99992 0.07614 0.0
C785 C 0.38507 0.97585 0.09201 0.0
C786 C 0.4664 1.00824 0.07788 0.0
C787 C 0.47969 0.99147 0.09581 0.0
C788 C 0.44463 0.96495 0.11141 0.0
C789 C 0.39777 0.95758 0.10938 0.0
C790 C 0.50224 0.03643 0.06081 0.0
C791 C 0.45707 0.9456 0.13058 0.0
C792 C 0.58767 0.97434 0.09106 0.0
C793 C 0.62316 0.01335 0.10253 0.0
C794 C 0.54135 0.9672 0.08864 0.0
C795 C 0.52979 1.00017 0.09771 0.0
C796 C 0.56611 0.04117 0.10836 0.0
C797 C 0.61247 0.04725 0.11073 0.0
C798 C 0.50422 0.92313 0.07711 0.0
C799 C 0.55544 0.07764 0.11793 0.0
H800 H 0.41019 0.01425 0.06262 0.0
H801 H 0.37192 0.93966 0.12189 0.0
H802 H 0.53239 0.06932 0.06773 0.0
H803 H 0.51745 0.01524 0.05399 0.0
H804 H 0.48617 0.04681 0.04779 0.0
H805 H 0.42558 0.92443 0.14092 0.0
H806 H 0.47186 0.92264 0.12557 0.0
H807 H 0.48518 0.97554 0.13997 0.0
H808 H 0.59568 0.9479 0.08471 0.0
H809 H 0.63936 0.07695 0.1199 0.0
H810 H 0.48832 0.93326 0.06397 0.0
H811 H 0.47474 0.90035 0.0881 0.0
H812 H 0.51933 0.90159 0.07049 0.0
H813 H 0.53949 0.09036 0.10584 0.0
H814 H 0.58799 0.10889 0.12452 0.0
H815 H 0.52877 0.06091 0.1308 0.0
C816 C 0.33373 0.08566 0.15384 0.0
C817 C 0.29838 0.06889 0.13821 0.0
C818 C 0.34513 0.1274 0.16521 0.0
C819 C 0.31939 0.15142 0.1611 0.0
C820 C 0.28503 0.13528 0.14464 0.0
C821 C 0.27438 0.09368 0.13369 0.0
C822 C 0.38302 0.14405 0.1821 0.0
C823 C 0.25768 0.16054 0.13924 0.0
C824 C 0.27546 0.20702 0.20019 0.0
C825 C 0.29985 0.25447 0.19348 0.0
C826 C 0.28636 0.17374 0.19163 0.0
C827 C 0.3216 0.18836 0.17563 0.0
C828 C 0.34918 0.2373 0.1703 0.0
C829 C 0.33695 0.26973 0.17885 0.0
C830 C 0.2574 0.12226 0.19845 0.0
C831 C 0.39003 0.25587 0.15492 0.0
H832 H 0.35215 0.06611 0.15723 0.0
H833 H 0.24624 0.07978 0.12186 0.0
H834 H 0.36637 0.12436 0.1969 0.0
H835 H 0.41154 0.13601 0.17756 0.0
H836 H 0.39962 0.18291 0.18518 0.0
H837 H 0.23451 0.14495 0.12508 0.0
H838 H 0.23468 0.15825 0.15277 0.0
H839 H 0.28301 0.19891 0.13618 0.0
H840 H 0.24672 0.1956 0.21162 0.0
H841 H 0.35631 0.3069 0.17408 0.0
H842 H 0.28118 0.10719 0.2012 0.0
H843 H 0.23183 0.10098 0.1857 0.0
H844 H 0.23676 0.11821 0.21314 0.0
H845 H 0.42219 0.28646 0.16213 0.0
H846 H 0.3806 0.26987 0.14084 0.0
H847 H 0.39932 0.22851 0.15013 0.0
C848 C 0.11192 0.23335 0.55072 0.0
C849 C 0.09353 0.25001 0.53485 0.0
C850 C 0.1535 0.2306 0.54735 0.0
C851 C 0.1743 0.24075 0.52706 0.0
C852 C 0.15029 0.24835 0.51013 0.0
C853 C 0.11184 0.25558 0.51436 0.0
C854 C 0.17411 0.21536 0.56507 0.0
C855 C 0.16403 0.24673 0.48752 0.0
C856 C 0.30165 0.3103 0.511 0.0
C857 C 0.3029 0.27732 0.49727 0.0
C858 C 0.26181 0.29659 0.52405 0.0
C859 C 0.22317 0.24893 0.52326 0.0
C860 C 0.22938 0.21383 0.51276 0.0
C861 C 0.26949 0.22858 0.49982 0.0
C862 C 0.25894 0.33383 0.53716 0.0
C863 C 0.19195 0.16152 0.51304 0.0
H864 H 0.09329 0.22142 0.56556 0.0
H865 H 0.09524 0.26415 0.50148 0.0
H866 H 0.18307 0.18829 0.55936 0.0
H867 H 0.20782 0.24645 0.57076 0.0
H868 H 0.149 0.20026 0.57861 0.0
H869 H 0.13973 0.25023 0.47621 0.0
H870 H 0.20161 0.27489 0.48487 0.0
H871 H 0.16177 0.21197 0.48425 0.0
H872 H 0.33044 0.34686 0.51088 0.0
H873 H 0.27248 0.20204 0.49052 0.0
H874 H 0.2487 0.32044 0.55349 0.0
H875 H 0.23085 0.34042 0.53065 0.0
H876 H 0.29347 0.368 0.53775 0.0
H877 H 0.16141 0.15338 0.52364 0.0
H878 H 0.2087 0.14047 0.51825 0.0
H879 H 0.17827 0.14934 0.49675 0.0
C880 C 0.94416 0.19757 0.82277 0.0
C881 C 0.96813 0.24718 0.82445 0.0
C882 C 0.91495 0.1689 0.83892 0.0
C883 C 0.91141 0.19054 0.85788 0.0
C884 C 0.93775 0.24087 0.86023 0.0
C885 C 0.96595 0.26894 0.84327 0.0
C886 C 0.88747 0.11539 0.83531 0.0
C887 C 0.93535 0.2652 0.88021 0.0
C888 C 0.79327 0.09912 0.87517 0.0
C889 C 0.80546 0.06694 0.88372 0.0
C890 C 0.82887 0.14632 0.87143 0.0
C891 C 0.87729 0.15915 0.87404 0.0
C892 C 0.8889 0.12877 0.88538 0.0
C893 C 0.85262 0.08228 0.88987 0.0
C894 C 0.81514 0.18225 0.86446 0.0
C895 C 0.94007 0.14354 0.8905 0.0
H896 H 0.94842 0.18094 0.80864 0.0
H897 H 0.98583 0.30753 0.84464 0.0
H898 H 0.89913 0.09736 0.84676 0.0
H899 H 0.84858 0.10127 0.83752 0.0
H900 H 0.89296 0.10528 0.81917 0.0
H901 H 0.96913 0.29952 0.88274 0.0
H902 H 0.90593 0.27336 0.87871 0.0
H903 H 0.92828 0.24231 0.89433 0.0
H904 H 0.75612 0.08754 0.87169 0.0
H905 H 0.86139 0.0574 0.89727 0.0
H906 H 0.77681 0.16517 0.85996 0.0
H907 H 0.83813 0.20415 0.85134 0.0
H908 H 0.82147 0.20732 0.87769 0.0
H909 H 0.95678 0.13662 0.87659 0.0
H910 H 0.94219 0.12301 0.90411 0.0
H911 H 0.96094 0.18231 0.8942 0.0
C912 C 0.73923 0.98504 0.18549 0.0
C913 C 0.77004 0.01534 0.17012 0.0
C914 C 0.75654 0.9671 0.2011 0.0
C915 C 0.80556 0.98033 0.20123 0.0
C916 C 0.83796 0.01999 0.18911 0.0
C917 C 0.8197 0.03667 0.17326 0.0
C918 C 0.7217 0.93028 0.21601 0.0
C919 C 0.89136 0.04166 0.1913 0.0
C920 C 0.81208 0.88311 0.23105 0.0
C921 C 0.79698 0.84891 0.21482 0.0
C922 C 0.82054 0.92946 0.22701 0.0
C923 C 0.81678 0.94209 0.20602 0.0
C924 C 0.81265 0.9111 0.1893 0.0
C925 C 0.80034 0.86417 0.19388 0.0
C926 C 0.83456 0.96494 0.24488 0.0
C927 C 0.82141 0.92746 0.16659 0.0
H928 H 0.70163 0.97354 0.18473 0.0
H929 H 0.84428 0.06393 0.16249 0.0
H930 H 0.7347 0.94158 0.23235 0.0
H931 H 0.68531 0.92567 0.21474 0.0
H932 H 0.7197 0.89558 0.21283 0.0
H933 H 0.90576 0.07666 0.19941 0.0
H934 H 0.90156 0.01927 0.20076 0.0
H935 H 0.90857 0.04845 0.17548 0.0
H936 H 0.81795 0.87399 0.24669 0.0
H937 H 0.79402 0.83958 0.18096 0.0
H938 H 0.80232 0.96399 0.25147 0.0
H939 H 0.85908 1.00181 0.23924 0.0
H940 H 0.85212 0.9564 0.25792 0.0
H941 H 0.82254 0.90073 0.15595 0.0
H942 H 0.8565 0.96062 0.16513 0.0
H943 H 0.79347 0.93536 0.1612 0.0
C944 C 0.8905 0.80503 0.45441 0.0
C945 C 0.87551 0.80725 0.43389 0.0
C946 C 0.9366 0.81333 0.45816 0.0
C947 C 0.96642 0.81867 0.44078 0.0
C948 C 0.95431 0.82738 0.42052 0.0
C949 C 0.90926 0.82336 0.41752 0.0
C950 C 0.95352 0.8168 0.48066 0.0
C951 C 0.98923 0.84199 0.40243 0.0
C952 C 0.06398 0.81764 0.46963 0.0
C953 C 0.0417 0.76803 0.47265 0.0
C954 C 0.04566 0.83689 0.45511 0.0
C955 C 1.00374 0.80548 0.44392 0.0
C956 C 0.98857 0.7561 0.44349 0.0
C957 C 1.00789 0.73772 0.45802 0.0
C958 C 0.06777 0.89038 0.454 0.0
C959 C 0.94862 0.72235 0.42922 0.0
H960 H 0.86638 0.79733 0.46767 0.0
H961 H 0.90116 0.83414 0.40278 0.0
H962 H 0.95933 0.78658 0.4842 0.0
H963 H 0.98812 0.8502 0.48292 0.0
H964 H 0.92806 0.81776 0.49214 0.0
H965 H 0.98036 0.85986 0.3897 0.0
H966 H 0.02627 0.86649 0.40799 0.0
H967 H 0.98862 0.81003 0.39572 0.0
H968 H 0.09334 0.84169 0.4797 0.0
H969 H 0.99514 0.69995 0.45848 0.0
H970 H 0.06956 0.90517 0.47009 0.0
H971 H 0.04814 0.90181 0.44332 0.0
H972 H 0.10517 0.90608 0.44827 0.0
H973 H 0.91466 0.72049 0.43406 0.0
H974 H 0.94368 0.68582 0.42934 0.0
H975 H 0.95685 0.7362 0.41286 0.0
C976 C 0.26793 0.94115 0.83271 0.0
C977 C 0.25006 0.95731 0.84888 0.0
C978 C 0.23671 0.90111 0.82063 0.0
C979 C 0.18685 0.87873 0.82439 0.0
C980 C 0.16934 0.8934 0.84167 0.0
C981 C 0.20121 0.93307 0.85351 0.0
C982 C 0.25686 0.88448 0.80328 0.0
C983 C 0.11659 0.86929 0.8468 0.0
C984 C 0.09335 0.83848 0.78219 0.0
C985 C 0.06794 0.78936 0.78572 0.0
C986 C 0.13579 0.8676 0.79314 0.0
C987 C 0.15208 0.84693 0.80838 0.0
C988 C 0.12778 0.79679 0.81102 0.0
C989 C 0.08516 0.76854 0.79993 0.0
C990 C 0.16111 0.92086 0.78951 0.0
C991 C 0.14441 0.77274 0.82641 0.0
H992 H 0.306 0.9601 0.82939 0.0
H993 H 0.18767 0.94627 0.86597 0.0
H994 H 0.29546 0.89711 0.80582 0.0
H995 H 0.23713 0.84494 0.80221 0.0
H996 H 0.25299 0.89899 0.78805 0.0
H997 H 0.10961 0.88252 0.86188 0.0
H998 H 0.09731 0.87586 0.83389 0.0
H999 H 0.10148 0.83013 0.84804 0.0
H1000 H 0.07919 0.85426 0.77132 0.0
H1001 H 0.06509 0.73027 0.80251 0.0
H1002 H 0.2001 0.93519 0.7875 0.0
H1003 H 0.15608 0.93873 0.80351 0.0
H1004 H 0.14731 0.93031 0.77532 0.0
H1005 H 0.18282 0.79527 0.83048 0.0
H1006 H 0.13846 0.73831 0.81979 0.0
H1007 H 0.12269 0.76446 0.84105 0.0
C1008 C 0.29322 0.27644 0.37022 0.0
C1009 C 0.2771 0.28945 0.38828 0.0
C1010 C 0.27784 0.28084 0.34983 0.0
C1011 C 0.24483 0.29755 0.34758 0.0
C1012 C 0.22597 0.30728 0.36583 0.0
C1013 C 0.24288 0.30394 0.38579 0.0
C1014 C 0.29888 0.27016 0.33066 0.0
C1015 C 0.18971 0.32374 0.3643 0.0
C1016 C 0.25796 0.36484 0.29661 0.0
C1017 C 0.22561 0.3281 0.28329 0.0
C1018 C 0.26292 0.35598 0.31793 0.0
C1019 C 0.23381 0.30952 0.32625 0.0
C1020 C 0.1964 0.27432 0.31365 0.0
C1021 C 0.19264 0.28415 0.29227 0.0
C1022 C 0.30289 0.39493 0.33081 0.0
C1023 C 0.16347 0.2248 0.322 0.0
H1024 H 0.31984 0.26558 0.37191 0.0
H1025 H 0.23017 0.31441 0.39944 0.0
H1026 H 0.26995 0.24482 0.31997 0.0
H1027 H 0.32088 0.30355 0.32162 0.0
H1028 H 0.32173 0.25478 0.335 0.0
H1029 H 0.17348 0.32312 0.3799 0.0
H1030 H 0.2073 0.36077 0.35816 0.0
H1031 H 0.1607 0.30088 0.35307 0.0
H1032 H 0.28403 0.39858 0.28962 0.0
H1033 H 0.16807 0.25537 0.28197 0.0
H1034 H 0.33089 0.38525 0.33376 0.0
H1035 H 0.28945 0.39877 0.34643 0.0
H1036 H 0.31966 0.42999 0.32265 0.0
H1037 H 0.1825 0.20418 0.32191 0.0
H1038 H 0.13078 0.20533 0.31209 0.0
H1039 H 0.15267 0.22613 0.33855 0.0
C1040 C 0.92259 0.2499 0.62478 0.0
C1041 C 0.92303 0.21866 0.60954 0.0
C1042 C 0.93072 0.24486 0.64618 0.0
C1043 C 0.94188 0.20924 0.65206 0.0
C1044 C 0.93503 0.17346 0.63717 0.0
C1045 C 0.92269 0.17726 0.61624 0.0
C1046 C 0.93146 0.28028 0.66201 0.0
C1047 C 0.94448 0.1334 0.64249 0.0
C1048 C 0.0263 0.25741 0.69928 0.0
C1049 C 0.99612 0.22907 0.71551 0.0
C1050 C 1.01069 0.24827 0.67805 0.0
C1051 C 0.96304 0.21166 0.6733 0.0
C1052 C 0.93449 0.18042 0.68951 0.0
C1053 C 0.95231 0.18843 0.71016 0.0
C1054 C 0.04452 0.28011 0.66112 0.0
C1055 C 0.88388 0.14021 0.68578 0.0
H1056 H 0.92193 0.28157 0.6197 0.0
H1057 H 0.92206 0.15254 0.6044 0.0
H1058 H 0.91838 0.26347 0.67772 0.0
H1059 H 0.96863 0.31027 0.6639 0.0
H1060 H 0.90904 0.29539 0.65657 0.0
H1061 H 0.95743 0.12249 0.62841 0.0
H1062 H 0.97116 0.14313 0.65537 0.0
H1063 H 0.91047 0.10183 0.64755 0.0
H1064 H 0.06037 0.28857 0.70318 0.0
H1065 H 0.92926 0.16541 0.72256 0.0
H1066 H 0.04539 0.31484 0.66125 0.0
H1067 H 0.03404 0.2642 0.64508 0.0
H1068 H 0.08147 0.28764 0.66444 0.0
H1069 H 0.86116 0.13447 0.69993 0.0
H1070 H 0.88458 0.10667 0.68302 0.0
H1071 H 0.8665 0.14652 0.67201 0.0
C1072 C 0.73011 0.90913 0.0579 0.0
C1073 C 0.74864 0.9586 0.06062 0.0
C1074 C 0.71979 0.88786 0.03778 0.0
C1075 C 0.72845 0.91661 0.01973 0.0
C1076 C 0.75036 0.96698 0.02219 0.0
C1077 C 0.76025 0.98744 0.04263 0.0
C1078 C 0.6965 0.8342 0.03605 0.0
C1079 C 0.76153 0.99907 0.00323 0.0
C1080 C 0.72773 0.87639 0.96307 0.0
C1081 C 0.68759 0.87735 0.95521 0.0
C1082 C 0.74066 0.88647 0.98454 0.0
C1083 C 0.7107 0.89402 -0.00149 0.0
C1084 C 0.66524 0.88474 0.99132 0.0
C1085 C 0.65405 0.87612 0.96968 0.0
C1086 C 0.7891 0.89515 0.9915 0.0
C1087 C 0.63098 0.89 0.00584 0.0
H1088 H 0.72136 0.88631 0.07164 0.0
H1089 H 0.77456 0.02553 0.04451 0.0
H1090 H 0.65801 0.81891 0.0322 0.0
H1091 H 0.71278 0.82386 0.02311 0.0
H1092 H 0.69933 0.81789 0.05103 0.0
H1093 H 0.77958 0.03746 0.00768 0.0
H1094 H 0.78508 0.99344 0.99227 0.0
H1095 H 0.7281 0.9898 0.99454 0.0
H1096 H 0.75348 0.87667 0.95193 0.0
H1097 H 0.62262 0.87627 0.96369 0.0
H1098 H 0.78726 0.88008 0.00744 0.0
H1099 H 0.81426 0.9342 0.99247 0.0
H1100 H 0.80395 0.87954 0.98018 0.0
H1101 H 0.62798 0.87228 0.02122 0.0
H1102 H 0.59471 0.87465 -0.00125 0.0
H1103 H 0.64475 0.92847 0.00908 0.0
C1104 C 0.76749 0.67029 0.30293 0.0
C1105 C 0.74124 0.65088 0.28431 0.0
C1106 C 0.74435 0.67175 0.3216 0.0
C1107 C 0.69387 0.65201 0.32164 0.0
C1108 C 0.66712 0.6226 0.30443 0.0
C1109 C 0.69148 0.62039 0.2863 0.0
C1110 C 0.7747 0.70099 0.33999 0.0
C1111 C 0.61333 0.59913 0.30358 0.0
C1112 C 0.65546 0.68142 0.37361 0.0
C1113 C 0.67231 0.73015 0.37011 0.0
C1114 C 0.65751 0.65247 0.35733 0.0
C1115 C 0.67239 0.67187 0.33686 0.0
C1116 C 0.67644 0.71668 0.33238 0.0
C1117 C 0.67718 0.74572 0.34913 0.0
C1118 C 0.64944 0.60366 0.36267 0.0
C1119 C 0.68702 0.73681 0.31036 0.0
H1120 H 0.8061 0.69235 0.30185 0.0
H1121 H 0.67078 0.6035 0.27213 0.0
H1122 H 0.77821 0.73694 0.33952 0.0
H1123 H 0.7579 0.68414 0.35528 0.0
H1124 H 0.81111 0.70547 0.33928 0.0
H1125 H 0.59777 0.56408 0.29535 0.0
H1126 H 0.59712 0.59382 0.31953 0.0
H1127 H 0.6034 0.62198 0.2943 0.0
H1128 H 0.64765 0.66785 0.38959 0.0
H1129 H 0.68862 0.78291 0.34611 0.0
H1130 H 0.63329 0.57851 0.3492 0.0
H1131 H 0.62589 0.58885 0.37669 0.0
H1132 H 0.68436 0.60643 0.36634 0.0
H1133 H 0.72333 0.74447 0.30604 0.0
H1134 H 0.68537 0.77022 0.30908 0.0
H1135 H 0.66154 0.71022 0.29889 0.0
C1136 C 0.03303 0.76799 0.60036 0.0
C1137 C 1.00112 0.75288 0.58324 0.0
C1138 C 1.0163 0.764 0.62134 0.0
C1139 C 0.96666 0.74517 0.62522 0.0
C1140 C 0.93487 0.73256 0.60792 0.0
C1141 C 0.95233 0.73615 0.58727 0.0
C1142 C 0.05143 0.77789 0.6394 0.0
C1143 C 0.88197 0.71329 0.61123 0.0
C1144 C 0.92508 0.68467 0.67866 0.0
C1145 C 0.92866 0.72208 0.69125 0.0
C1146 C 0.9346 0.69076 0.65684 0.0
C1147 C 0.94763 0.73528 0.64735 0.0
C1148 C 0.94578 0.77117 0.65956 0.0
C1149 C 0.93633 0.76411 0.68141 0.0
C1150 C 0.93554 0.65121 0.64445 0.0
C1151 C 0.95832 0.81877 0.65007 0.0
H1152 H 0.07062 0.78071 0.59747 0.0
H1153 H 0.92717 0.72451 0.57423 0.0
H1154 H 0.04827 0.80344 0.65011 0.0
H1155 H 0.04301 0.74576 0.64886 0.0
H1156 H 0.08901 0.79437 0.6338 0.0
H1157 H 0.86295 0.71027 0.59614 0.0
H1158 H 0.86572 0.67737 0.61852 0.0
H1159 H 0.87606 0.73662 0.62225 0.0
H1160 H 0.92047 0.65265 0.68631 0.0
H1161 H 0.94026 0.79354 0.69115 0.0
H1162 H 0.9731 0.66208 0.6404 0.0
H1163 H 0.91554 0.6445 0.62938 0.0
H1164 H 0.91994 0.61733 0.65353 0.0
H1165 H 0.99765 0.84034 0.64789 0.0
H1166 H 0.94694 0.83916 0.66041 0.0
H1167 H 0.94146 0.81404 0.63428 0.0
C1168 C 0.22313 0.93918 0.02577 0.0
C1169 C 0.20391 0.95213 0.04266 0.0
C1170 C 0.22598 0.95821 0.00549 0.0
C1171 C 0.21294 0.99382 0.00268 0.0
C1172 C 0.18711 1.00127 0.01893 0.0
C1173 C 0.18001 0.97735 0.03828 0.0
C1174 C 0.24702 0.94337 0.98768 0.0
C1175 C 0.17016 0.03697 0.01694 0.0
C1176 C 0.30299 0.07811 0.96305 0.0
C1177 C 0.27419 0.06894 0.94515 0.0
C1178 C 0.28236 0.05902 0.98281 0.0
C1179 C 0.23231 0.02665 0.98412 0.0
C1180 C 0.2029 0.02248 0.96668 0.0
C1181 C 0.22445 0.04643 0.94778 0.0
C1182 C 0.31478 0.07042 0.00178 0.0
C1183 C 0.14924 0.99019 0.96706 0.0
H1184 H 0.24073 0.91869 0.02884 0.0
H1185 H 0.1628 0.98519 0.05117 0.0
H1186 H 0.23223 0.94555 0.97211 0.0
H1187 H 0.28639 0.9672 0.9873 0.0
H1188 H 0.23977 0.90629 0.99 0.0
H1189 H 0.17022 0.05291 0.03255 0.0
H1190 H 0.19235 0.06635 0.00584 0.0
H1191 H 0.13272 0.0182 0.01109 0.0
H1192 H 0.34156 0.09615 0.96125 0.0
H1193 H 0.20218 0.0408 0.93399 0.0
H1194 H 0.32663 0.04372 0.00308 0.0
H1195 H 0.29607 0.06971 0.01666 0.0
H1196 H 0.3473 0.10614 0.00017 0.0
H1197 H 0.13792 0.95928 0.97778 0.0
H1198 H 0.13499 0.97642 0.95098 0.0
H1199 H 0.13252 1.01107 0.97255 0.0
loop_
_geom_bond_atom_site_label_1
_geom_bond_atom_site_label_2
_geom_bond_distance
_geom_bond_site_symmetry_2
_ccdc_geom_bond_type
Mn0 O5 2.095 . S
Mn0 O15 2.162 . S
Mn0 O16 2.297 . S
Mn0 O24 2.385 . S
Mn0 O25 2.209 . S
Mn0 O26 2.094 . S
Mn1 O6 2.121 . S
Mn1 N8 2.257 . S
Mn1 N17 2.282 . S
Mn1 O25 2.215 . S
Mn1 O27 2.117 . S
C2 O24 1.234 . S
C2 O25 1.283 . S
C3 O15 1.281 . S
C3 O16 1.236 . S
C4 O26 1.240 . S
C4 O27 1.264 . S
O5 Mn0 2.095 . S
O5 C14 1.250 . S
O6 Mn1 2.121 . S
O6 C14 1.258 . S
C7 N8 1.326 . S
C7 C11 1.460 . S
C7 H13 0.929 . S
N8 Mn1 2.257 . S
N8 C7 1.326 . S
N8 C12 1.362 . S
C9 C10 1.258 . S
C9 C12 1.431 . S
C9 C29 1.449 . S
C10 C9 1.258 . S
C10 C11 1.477 . S
C10 H30 0.931 . S
C11 C7 1.460 . S
C11 C10 1.477 . S
C11 H31 0.930 . S
C12 N8 1.362 . S
C12 C9 1.431 . S
C12 C22 1.476 . S
H13 C7 0.929 . S
C14 O5 1.250 . S
C14 O6 1.258 . S
O15 Mn0 2.162 . S
O15 C3 1.281 . S
O16 Mn0 2.297 . S
O16 C3 1.236 . S
N17 Mn1 2.282 . S
N17 C18 1.328 . S
N17 C22 1.318 . S
C18 N17 1.328 . S
C18 C19 1.457 . S
C18 H23 0.929 . S
C19 C18 1.457 . S
C19 C20 1.291 . S
C19 H32 0.931 . S
C20 C19 1.291 . S
C20 C21 1.373 . S
C20 H33 0.929 . S
C21 C20 1.373 . S
C21 C22 1.396 . S
C21 C28 1.403 . S
C22 C12 1.476 . S
C22 N17 1.318 . S
C22 C21 1.396 . S
H23 C18 0.929 . S
O24 Mn0 2.385 . S
O24 C2 1.234 . S
O25 Mn0 2.209 . S
O25 Mn1 2.215 . S
O25 C2 1.283 . S
O26 Mn0 2.094 . S
O26 C4 1.240 . S
O27 Mn1 2.117 . S
O27 C4 1.264 . S
C28 C21 1.403 . S
C28 C29 1.399 . S
C28 H34 0.929 . S
C29 C9 1.449 . S
C29 C28 1.399 . S
C29 H35 0.930 . S
H30 C10 0.931 . S
H31 C11 0.930 . S
H32 C19 0.931 . S
H33 C20 0.929 . S
H34 C28 0.929 . S
H35 C29 0.930 . S
Mn36 O41 2.095 . S
Mn36 O51 2.162 . S
Mn36 O52 2.297 . S
Mn36 O60 2.385 . S
Mn36 O61 2.209 1_655 S
Mn36 O62 2.094 . S
Mn37 O42 2.121 . S
Mn37 N44 2.257 . S
Mn37 N53 2.282 . S
Mn37 O61 2.215 . S
Mn37 O63 2.117 . S
C38 O60 1.234 1_455 S
C38 O61 1.283 . S
C39 O51 1.281 . S
C39 O52 1.236 . S
C40 O62 1.240 . S
C40 O63 1.264 1_655 S
O41 Mn36 2.095 . S
O41 C50 1.250 . S
O42 Mn37 2.121 . S
O42 C50 1.258 1_455 S
C43 N44 1.326 . S
C43 C47 1.460 . S
C43 H49 0.929 . S
N44 Mn37 2.257 . S
N44 C43 1.326 . S
N44 C48 1.362 . S
C45 C46 1.258 . S
C45 C48 1.431 . S
C45 C65 1.449 . S
C46 C45 1.258 . S
C46 C47 1.477 . S
C46 H66 0.931 . S
C47 C43 1.460 . S
C47 C46 1.477 . S
C47 H67 0.930 . S
C48 N44 1.362 . S
C48 C45 1.431 . S
C48 C58 1.476 . S
H49 C43 0.929 . S
C50 O41 1.250 . S
C50 O42 1.258 1_655 S
O51 Mn36 2.162 . S
O51 C39 1.281 . S
O52 Mn36 2.297 . S
O52 C39 1.236 . S
N53 Mn37 2.282 . S
N53 C54 1.328 . S
N53 C58 1.318 . S
C54 N53 1.328 . S
C54 C55 1.457 . S
C54 H59 0.929 . S
C55 C54 1.457 . S
C55 C56 1.291 . S
C55 H68 0.931 . S
C56 C55 1.291 . S
C56 C57 1.373 . S
C56 H69 0.929 . S
C57 C56 1.373 . S
C57 C58 1.396 . S
C57 C64 1.403 . S
C58 C48 1.476 . S
C58 N53 1.318 . S
C58 C57 1.396 . S
H59 C54 0.929 . S
O60 Mn36 2.385 . S
O60 C38 1.234 1_655 S
O61 Mn36 2.209 1_455 S
O61 Mn37 2.215 . S
O61 C38 1.283 . S
O62 Mn36 2.094 . S
O62 C40 1.240 . S
O63 Mn37 2.117 . S
O63 C40 1.264 1_455 S
C64 C57 1.403 . S
C64 C65 1.399 . S
C64 H70 0.929 . S
C65 C45 1.449 . S
C65 C64 1.399 . S
C65 H71 0.930 . S
H66 C46 0.931 . S
H67 C47 0.930 . S
H68 C55 0.931 . S
H69 C56 0.929 . S
H70 C64 0.929 . S
H71 C65 0.930 . S
Mn72 O77 2.095 . S
Mn72 O87 2.162 . S
Mn72 O88 2.297 . S
Mn72 O96 2.385 . S
Mn72 O97 2.209 1_565 S
Mn72 O98 2.094 . S
Mn73 O78 2.121 . S
Mn73 N80 2.257 . S
Mn73 N89 2.282 . S
Mn73 O97 2.215 . S
Mn73 O99 2.117 . S
C74 O96 1.234 1_545 S
C74 O97 1.283 . S
C75 O87 1.281 . S
C75 O88 1.236 . S
C76 O98 1.240 . S
C76 O99 1.264 1_565 S
O77 Mn72 2.095 . S
O77 C86 1.250 . S
O78 Mn73 2.121 . S
O78 C86 1.258 1_545 S
C79 N80 1.326 . S
C79 C83 1.460 . S
C79 H85 0.929 . S
N80 Mn73 2.257 . S
N80 C79 1.326 . S
N80 C84 1.362 . S
C81 C82 1.258 . S
C81 C84 1.431 . S
C81 C101 1.449 . S
C82 C81 1.258 . S
C82 C83 1.477 . S
C82 H102 0.931 . S
C83 C79 1.460 . S
C83 C82 1.477 . S
C83 H103 0.930 . S
C84 N80 1.362 . S
C84 C81 1.431 . S
C84 C94 1.476 . S
H85 C79 0.929 . S
C86 O77 1.250 . S
C86 O78 1.258 1_565 S
O87 Mn72 2.162 . S
O87 C75 1.281 . S
O88 Mn72 2.297 . S
O88 C75 1.236 . S
N89 Mn73 2.282 . S
N89 C90 1.328 . S
N89 C94 1.318 . S
C90 N89 1.328 . S
C90 C91 1.457 . S
C90 H95 0.929 . S
C91 C90 1.457 . S
C91 C92 1.291 . S
C91 H104 0.931 . S
C92 C91 1.291 . S
C92 C93 1.373 . S
C92 H105 0.929 . S
C93 C92 1.373 . S
C93 C94 1.396 . S
C93 C100 1.403 . S
C94 C84 1.476 . S
C94 N89 1.318 . S
C94 C93 1.396 . S
H95 C90 0.929 . S
O96 Mn72 2.385 . S
O96 C74 1.234 1_565 S
O97 Mn72 2.209 1_545 S
O97 Mn73 2.215 . S
O97 C74 1.283 . S
O98 Mn72 2.094 . S
O98 C76 1.240 . S
O99 Mn73 2.117 . S
O99 C76 1.264 1_545 S
C100 C93 1.403 . S
C100 C101 1.399 . S
C100 H106 0.929 . S
C101 C81 1.449 . S
C101 C100 1.399 . S
C101 H107 0.930 . S
H102 C82 0.931 . S
H103 C83 0.930 . S
H104 C91 0.931 . S
H105 C92 0.929 . S
H106 C100 0.929 . S
H107 C101 0.930 . S
Mn108 O113 2.095 . S
Mn108 O123 2.162 . S
Mn108 O124 2.297 . S
Mn108 O132 2.385 . S
Mn108 O133 2.209 . S
Mn108 O134 2.094 . S
Mn109 O114 2.121 . S
Mn109 N116 2.257 . S
Mn109 N125 2.282 . S
Mn109 O133 2.215 . S
Mn109 O135 2.117 . S
C110 O132 1.234 . S
C110 O133 1.283 . S
C111 O123 1.281 . S
C111 O124 1.236 . S
C112 O134 1.240 . S
C112 O135 1.264 . S
O113 Mn108 2.095 . S
O113 C122 1.250 . S
O114 Mn109 2.121 . S
O114 C122 1.258 . S
C115 N116 1.326 . S
C115 C119 1.460 . S
C115 H121 0.929 . S
N116 Mn109 2.257 . S
N116 C115 1.326 . S
N116 C120 1.362 . S
C117 C118 1.258 . S
C117 C120 1.431 . S
C117 C137 1.449 . S
C118 C117 1.258 . S
C118 C119 1.477 . S
C118 H138 0.931 . S
C119 C115 1.460 . S
C119 C118 1.477 . S
C119 H139 0.930 . S
C120 N116 1.362 . S
C120 C117 1.431 . S
C120 C130 1.476 . S
H121 C115 0.929 . S
C122 O113 1.250 . S
C122 O114 1.258 . S
O123 Mn108 2.162 . S
O123 C111 1.281 . S
O124 Mn108 2.297 . S
O124 C111 1.236 . S
N125 Mn109 2.282 . S
N125 C126 1.328 . S
N125 C130 1.318 . S
C126 N125 1.328 . S
C126 C127 1.457 . S
C126 H131 0.929 . S
C127 C126 1.457 . S
C127 C128 1.291 . S
C127 H140 0.931 . S
C128 C127 1.291 . S
C128 C129 1.373 . S
C128 H141 0.929 . S
C129 C128 1.373 . S
C129 C130 1.396 . S
C129 C136 1.403 . S
C130 C120 1.476 . S
C130 N125 1.318 . S
C130 C129 1.396 . S
H131 C126 0.929 . S
O132 Mn108 2.385 . S
O132 C110 1.234 . S
O133 Mn108 2.209 . S
O133 Mn109 2.215 . S
O133 C110 1.283 . S
O134 Mn108 2.094 . S
O134 C112 1.240 . S
O135 Mn109 2.117 . S
O135 C112 1.264 . S
C136 C129 1.403 . S
C136 C137 1.399 . S
C136 H142 0.929 . S
C137 C117 1.449 . S
C137 C136 1.399 . S
C137 H143 0.930 . S
H138 C118 0.931 . S
H139 C119 0.930 . S
H140 C127 0.931 . S
H141 C128 0.929 . S
H142 C136 0.929 . S
H143 C137 0.930 . S
Mn144 O149 2.095 . S
Mn144 O159 2.162 . S
Mn144 O160 2.297 . S
Mn144 O168 2.385 . S
Mn144 O169 2.209 1_455 S
Mn144 O170 2.094 . S
Mn145 O150 2.121 . S
Mn145 N152 2.257 . S
Mn145 N161 2.282 . S
Mn145 O169 2.215 . S
Mn145 O171 2.117 . S
C146 O168 1.234 1_655 S
C146 O169 1.283 . S
C147 O159 1.281 . S
C147 O160 1.236 . S
C148 O170 1.240 . S
C148 O171 1.264 1_455 S
O149 Mn144 2.095 . S
O149 C158 1.250 . S
O150 Mn145 2.121 . S
O150 C158 1.258 1_655 S
C151 N152 1.326 . S
C151 C155 1.460 . S
C151 H157 0.929 . S
N152 Mn145 2.257 . S
N152 C151 1.326 . S
N152 C156 1.362 . S
C153 C154 1.258 . S
C153 C156 1.431 . S
C153 C173 1.449 . S
C154 C153 1.258 . S
C154 C155 1.477 . S
C154 H174 0.931 . S
C155 C151 1.460 . S
C155 C154 1.477 . S
C155 H175 0.930 . S
C156 N152 1.362 . S
C156 C153 1.431 . S
C156 C166 1.476 . S
H157 C151 0.929 . S
C158 O149 1.250 . S
C158 O150 1.258 1_455 S
O159 Mn144 2.162 . S
O159 C147 1.281 . S
O160 Mn144 2.297 . S
O160 C147 1.236 . S
N161 Mn145 2.282 . S
N161 C162 1.328 . S
N161 C166 1.318 . S
C162 N161 1.328 . S
C162 C163 1.457 . S
C162 H167 0.929 . S
C163 C162 1.457 . S
C163 C164 1.291 . S
C163 H176 0.931 . S
C164 C163 1.291 . S
C164 C165 1.373 . S
C164 H177 0.929 . S
C165 C164 1.373 . S
C165 C166 1.396 . S
C165 C172 1.403 . S
C166 C156 1.476 . S
C166 N161 1.318 . S
C166 C165 1.396 . S
H167 C162 0.929 . S
O168 Mn144 2.385 . S
O168 C146 1.234 1_455 S
O169 Mn144 2.209 1_655 S
O169 Mn145 2.215 . S
O169 C146 1.283 . S
O170 Mn144 2.094 . S
O170 C148 1.240 . S
O171 Mn145 2.117 . S
O171 C148 1.264 1_655 S
C172 C165 1.403 . S
C172 C173 1.399 . S
C172 H178 0.929 . S
C173 C153 1.449 . S
C173 C172 1.399 . S
C173 H179 0.930 . S
H174 C154 0.931 . S
H175 C155 0.930 . S
H176 C163 0.931 . S
H177 C164 0.929 . S
H178 C172 0.929 . S
H179 C173 0.930 . S
Mn180 O185 2.095 . S
Mn180 O195 2.162 . S
Mn180 O196 2.297 . S
Mn180 O204 2.385 . S
Mn180 O205 2.209 1_545 S
Mn180 O206 2.094 . S
Mn181 O186 2.121 . S
Mn181 N188 2.257 . S
Mn181 N197 2.282 . S
Mn181 O205 2.215 . S
Mn181 O207 2.117 . S
C182 O204 1.234 1_565 S
C182 O205 1.283 . S
C183 O195 1.281 . S
C183 O196 1.236 . S
C184 O206 1.240 . S
C184 O207 1.264 1_545 S
O185 Mn180 2.095 . S
O185 C194 1.250 . S
O186 Mn181 2.121 . S
O186 C194 1.258 1_565 S
C187 N188 1.326 . S
C187 C191 1.460 . S
C187 H193 0.929 . S
N188 Mn181 2.257 . S
N188 C187 1.326 . S
N188 C192 1.362 . S
C189 C190 1.258 . S
C189 C192 1.431 . S
C189 C209 1.449 . S
C190 C189 1.258 . S
C190 C191 1.477 . S
C190 H210 0.931 . S
C191 C187 1.460 . S
C191 C190 1.477 . S
C191 H211 0.930 . S
C192 N188 1.362 . S
C192 C189 1.431 . S
C192 C202 1.476 . S
H193 C187 0.929 . S
C194 O185 1.250 . S
C194 O186 1.258 1_545 S
O195 Mn180 2.162 . S
O195 C183 1.281 . S
O196 Mn180 2.297 . S
O196 C183 1.236 . S
N197 Mn181 2.282 . S
N197 C198 1.328 . S
N197 C202 1.318 . S
C198 N197 1.328 . S
C198 C199 1.457 . S
C198 H203 0.929 . S
C199 C198 1.457 . S
C199 C200 1.291 . S
C199 H212 0.931 . S
C200 C199 1.291 . S
C200 C201 1.373 . S
C200 H213 0.929 . S
C201 C200 1.373 . S
C201 C202 1.396 . S
C201 C208 1.403 . S
C202 C192 1.476 . S
C202 N197 1.318 . S
C202 C201 1.396 . S
H203 C198 0.929 . S
O204 Mn180 2.385 . S
O204 C182 1.234 1_545 S
O205 Mn180 2.209 1_565 S
O205 Mn181 2.215 . S
O205 C182 1.283 . S
O206 Mn180 2.094 . S
O206 C184 1.240 . S
O207 Mn181 2.117 . S
O207 C184 1.264 1_565 S
C208 C201 1.403 . S
C208 C209 1.399 . S
C208 H214 0.929 . S
C209 C189 1.449 . S
C209 C208 1.399 . S
C209 H215 0.930 . S
H210 C190 0.931 . S
H211 C191 0.930 . S
H212 C199 0.931 . S
H213 C200 0.929 . S
H214 C208 0.929 . S
H215 C209 0.930 . S
Mn216 O221 2.095 . S
Mn216 O231 2.162 . S
Mn216 O232 2.297 . S
Mn216 O240 2.385 . S
Mn216 O241 2.209 . S
Mn216 O242 2.094 . S
Mn217 O222 2.121 . S
Mn217 N224 2.257 . S
Mn217 N233 2.282 . S
Mn217 O241 2.215 . S
Mn217 O243 2.117 . S
C218 O240 1.234 . S
C218 O241 1.283 . S
C219 O231 1.281 . S
C219 O232 1.236 . S
C220 O242 1.240 . S
C220 O243 1.264 . S
O221 Mn216 2.095 . S
O221 C230 1.250 . S
O222 Mn217 2.121 . S
O222 C230 1.258 . S
C223 N224 1.326 . S
C223 C227 1.460 . S
C223 H229 0.929 . S
N224 Mn217 2.257 . S
N224 C223 1.326 . S
N224 C228 1.362 . S
C225 C226 1.258 . S
C225 C228 1.431 . S
C225 C245 1.449 . S
C226 C225 1.258 . S
C226 C227 1.477 . S
C226 H246 0.931 . S
C227 C223 1.460 . S
C227 C226 1.477 . S
C227 H247 0.930 . S
C228 N224 1.362 . S
C228 C225 1.431 . S
C228 C238 1.476 . S
H229 C223 0.929 . S
C230 O221 1.250 . S
C230 O222 1.258 . S
O231 Mn216 2.162 . S
O231 C219 1.281 . S
O232 Mn216 2.297 . S
O232 C219 1.236 . S
N233 Mn217 2.282 . S
N233 C234 1.328 . S
N233 C238 1.318 . S
C234 N233 1.328 . S
C234 C235 1.457 . S
C234 H239 0.929 . S
C235 C234 1.457 . S
C235 C236 1.291 . S
C235 H248 0.931 . S
C236 C235 1.291 . S
C236 C237 1.373 . S
C236 H249 0.929 . S
C237 C236 1.373 . S
C237 C238 1.396 . S
C237 C244 1.403 . S
C238 C228 1.476 . S
C238 N233 1.318 . S
C238 C237 1.396 . S
H239 C234 0.929 . S
O240 Mn216 2.385 . S
O240 C218 1.234 . S
O241 Mn216 2.209 . S
O241 Mn217 2.215 . S
O241 C218 1.283 . S
O242 Mn216 2.094 . S
O242 C220 1.240 . S
O243 Mn217 2.117 . S
O243 C220 1.264 . S
C244 C237 1.403 . S
C244 C245 1.399 . S
C244 H250 0.929 . S
C245 C225 1.449 . S
C245 C244 1.399 . S
C245 H251 0.930 . S
H246 C226 0.931 . S
H247 C227 0.930 . S
H248 C235 0.931 . S
H249 C236 0.929 . S
H250 C244 0.929 . S
H251 C245 0.930 . S
Mn252 O257 2.095 . S
Mn252 O267 2.162 . S
Mn252 O268 2.297 . S
Mn252 O276 2.385 . S
Mn252 O277 2.209 1_655 S
Mn252 O278 2.094 . S
Mn253 O258 2.121 . S
Mn253 N260 2.257 . S
Mn253 N269 2.282 . S
Mn253 O277 2.215 . S
Mn253 O279 2.117 . S
C254 O276 1.234 1_455 S
C254 O277 1.283 . S
C255 O267 1.281 . S
C255 O268 1.236 . S
C256 O278 1.240 . S
C256 O279 1.264 1_655 S
O257 Mn252 2.095 . S
O257 C266 1.250 . S
O258 Mn253 2.121 . S
O258 C266 1.258 1_455 S
C259 N260 1.326 . S
C259 C263 1.460 . S
C259 H265 0.929 . S
N260 Mn253 2.257 . S
N260 C259 1.326 . S
N260 C264 1.362 . S
C261 C262 1.258 . S
C261 C264 1.431 . S
C261 C281 1.449 . S
C262 C261 1.258 . S
C262 C263 1.477 . S
C262 H282 0.931 . S
C263 C259 1.460 . S
C263 C262 1.477 . S
C263 H283 0.930 . S
C264 N260 1.362 . S
C264 C261 1.431 . S
C264 C274 1.476 . S
H265 C259 0.929 . S
C266 O257 1.250 . S
C266 O258 1.258 1_655 S
O267 Mn252 2.162 . S
O267 C255 1.281 . S
O268 Mn252 2.297 . S
O268 C255 1.236 . S
N269 Mn253 2.282 . S
N269 C270 1.328 . S
N269 C274 1.318 . S
C270 N269 1.328 . S
C270 C271 1.457 . S
C270 H275 0.929 . S
C271 C270 1.457 . S
C271 C272 1.291 . S
C271 H284 0.931 . S
C272 C271 1.291 . S
C272 C273 1.373 . S
C272 H285 0.929 . S
C273 C272 1.373 . S
C273 C274 1.396 . S
C273 C280 1.403 . S
C274 C264 1.476 . S
C274 N269 1.318 . S
C274 C273 1.396 . S
H275 C270 0.929 . S
O276 Mn252 2.385 . S
O276 C254 1.234 1_655 S
O277 Mn252 2.209 1_455 S
O277 Mn253 2.215 . S
O277 C254 1.283 . S
O278 Mn252 2.094 . S
O278 C256 1.240 . S
O279 Mn253 2.117 . S
O279 C256 1.264 1_455 S
C280 C273 1.403 . S
C280 C281 1.399 . S
C280 H286 0.929 . S
C281 C261 1.449 . S
C281 C280 1.399 . S
C281 H287 0.930 . S
H282 C262 0.931 . S
H283 C263 0.930 . S
H284 C271 0.931 . S
H285 C272 0.929 . S
H286 C280 0.929 . S
H287 C281 0.930 . S
Mn288 O293 2.095 . S
Mn288 O303 2.162 . S
Mn288 O304 2.297 . S
Mn288 O312 2.385 . S
Mn288 O313 2.209 1_565 S
Mn288 O314 2.094 . S
Mn289 O294 2.121 . S
Mn289 N296 2.257 . S
Mn289 N305 2.282 . S
Mn289 O313 2.215 . S
Mn289 O315 2.117 . S
C290 O312 1.234 1_545 S
C290 O313 1.283 . S
C291 O303 1.281 . S
C291 O304 1.236 . S
C292 O314 1.240 . S
C292 O315 1.264 1_565 S
O293 Mn288 2.095 . S
O293 C302 1.250 . S
O294 Mn289 2.121 . S
O294 C302 1.258 1_545 S
C295 N296 1.326 . S
C295 C299 1.460 . S
C295 H301 0.929 . S
N296 Mn289 2.257 . S
N296 C295 1.326 . S
N296 C300 1.362 . S
C297 C298 1.258 . S
C297 C300 1.431 . S
C297 C317 1.449 . S
C298 C297 1.258 . S
C298 C299 1.477 . S
C298 H318 0.931 . S
C299 C295 1.460 . S
C299 C298 1.477 . S
C299 H319 0.930 . S
C300 N296 1.362 . S
C300 C297 1.431 . S
C300 C310 1.476 . S
H301 C295 0.929 . S
C302 O293 1.250 . S
C302 O294 1.258 1_565 S
O303 Mn288 2.162 . S
O303 C291 1.281 . S
O304 Mn288 2.297 . S
O304 C291 1.236 . S
N305 Mn289 2.282 . S
N305 C306 1.328 . S
N305 C310 1.318 . S
C306 N305 1.328 . S
C306 C307 1.457 . S
C306 H311 0.929 . S
C307 C306 1.457 . S
C307 C308 1.291 . S
C307 H320 0.931 . S
C308 C307 1.291 . S
C308 C309 1.373 . S
C308 H321 0.929 . S
C309 C308 1.373 . S
C309 C310 1.396 . S
C309 C316 1.403 . S
C310 C300 1.476 . S
C310 N305 1.318 . S
C310 C309 1.396 . S
H311 C306 0.929 . S
O312 Mn288 2.385 . S
O312 C290 1.234 1_565 S
O313 Mn288 2.209 1_545 S
O313 Mn289 2.215 . S
O313 C290 1.283 . S
O314 Mn288 2.094 . S
O314 C292 1.240 . S
O315 Mn289 2.117 . S
O315 C292 1.264 1_545 S
C316 C309 1.403 . S
C316 C317 1.399 . S
C316 H322 0.929 . S
C317 C297 1.449 . S
C317 C316 1.399 . S
C317 H323 0.930 . S
H318 C298 0.931 . S
H319 C299 0.930 . S
H320 C307 0.931 . S
H321 C308 0.929 . S
H322 C316 0.929 . S
H323 C317 0.930 . S
Mn324 O329 2.095 . S
Mn324 O339 2.162 . S
Mn324 O340 2.297 . S
Mn324 O348 2.385 . S
Mn324 O349 2.209 . S
Mn324 O350 2.094 . S
Mn325 O330 2.121 . S
Mn325 N332 2.257 . S
Mn325 N341 2.282 . S
Mn325 O349 2.215 . S
Mn325 O351 2.117 . S
C326 O348 1.234 . S
C326 O349 1.283 . S
C327 O339 1.281 . S
C327 O340 1.236 . S
C328 O350 1.240 . S
C328 O351 1.264 . S
O329 Mn324 2.095 . S
O329 C338 1.250 . S
O330 Mn325 2.121 . S
O330 C338 1.258 . S
C331 N332 1.326 . S
C331 C335 1.460 . S
C331 H337 0.929 . S
N332 Mn325 2.257 . S
N332 C331 1.326 . S
N332 C336 1.362 . S
C333 C334 1.258 . S
C333 C336 1.431 . S
C333 C353 1.449 . S
C334 C333 1.258 . S
C334 C335 1.477 . S
C334 H354 0.931 . S
C335 C331 1.460 . S
C335 C334 1.477 . S
C335 H355 0.930 . S
C336 N332 1.362 . S
C336 C333 1.431 . S
C336 C346 1.476 . S
H337 C331 0.929 . S
C338 O329 1.250 . S
C338 O330 1.258 . S
O339 Mn324 2.162 . S
O339 C327 1.281 . S
O340 Mn324 2.297 . S
O340 C327 1.236 . S
N341 Mn325 2.282 . S
N341 C342 1.328 . S
N341 C346 1.318 . S
C342 N341 1.328 . S
C342 C343 1.457 . S
C342 H347 0.929 . S
C343 C342 1.457 . S
C343 C344 1.291 . S
C343 H356 0.931 . S
C344 C343 1.291 . S
C344 C345 1.373 . S
C344 H357 0.929 . S
C345 C344 1.373 . S
C345 C346 1.396 . S
C345 C352 1.403 . S
C346 C336 1.476 . S
C346 N341 1.318 . S
C346 C345 1.396 . S
H347 C342 0.929 . S
O348 Mn324 2.385 . S
O348 C326 1.234 . S
O349 Mn324 2.209 . S
O349 Mn325 2.215 . S
O349 C326 1.283 . S
O350 Mn324 2.094 . S
O350 C328 1.240 . S
O351 Mn325 2.117 . S
O351 C328 1.264 . S
C352 C345 1.403 . S
C352 C353 1.399 . S
C352 H358 0.929 . S
C353 C333 1.449 . S
C353 C352 1.399 . S
C353 H359 0.930 . S
H354 C334 0.931 . S
H355 C335 0.930 . S
H356 C343 0.931 . S
H357 C344 0.929 . S
H358 C352 0.929 . S
H359 C353 0.930 . S
Mn360 O365 2.095 . S
Mn360 O375 2.162 . S
Mn360 O376 2.297 . S
Mn360 O384 2.385 . S
Mn360 O385 2.209 1_455 S
Mn360 O386 2.094 . S
Mn361 O366 2.121 . S
Mn361 N368 2.257 . S
Mn361 N377 2.282 . S
Mn361 O385 2.215 . S
Mn361 O387 2.117 . S
C362 O384 1.234 1_655 S
C362 O385 1.283 . S
C363 O375 1.281 . S
C363 O376 1.236 . S
C364 O386 1.240 . S
C364 O387 1.264 1_455 S
O365 Mn360 2.095 . S
O365 C374 1.250 . S
O366 Mn361 2.121 . S
O366 C374 1.258 1_655 S
C367 N368 1.326 . S
C367 C371 1.460 . S
C367 H373 0.929 . S
N368 Mn361 2.257 . S
N368 C367 1.326 . S
N368 C372 1.362 . S
C369 C370 1.258 . S
C369 C372 1.431 . S
C369 C389 1.449 . S
C370 C369 1.258 . S
C370 C371 1.477 . S
C370 H390 0.931 . S
C371 C367 1.460 . S
C371 C370 1.477 . S
C371 H391 0.930 . S
C372 N368 1.362 . S
C372 C369 1.431 . S
C372 C382 1.476 . S
H373 C367 0.929 . S
C374 O365 1.250 . S
C374 O366 1.258 1_455 S
O375 Mn360 2.162 . S
O375 C363 1.281 . S
O376 Mn360 2.297 . S
O376 C363 1.236 . S
N377 Mn361 2.282 . S
N377 C378 1.328 . S
N377 C382 1.318 . S
C378 N377 1.328 . S
C378 C379 1.457 . S
C378 H383 0.929 . S
C379 C378 1.457 . S
C379 C380 1.291 . S
C379 H392 0.931 . S
C380 C379 1.291 . S
C380 C381 1.373 . S
C380 H393 0.929 . S
C381 C380 1.373 . S
C381 C382 1.396 . S
C381 C388 1.403 . S
C382 C372 1.476 . S
C382 N377 1.318 . S
C382 C381 1.396 . S
H383 C378 0.929 . S
O384 Mn360 2.385 . S
O384 C362 1.234 1_455 S
O385 Mn360 2.209 1_655 S
O385 Mn361 2.215 . S
O385 C362 1.283 . S
O386 Mn360 2.094 . S
O386 C364 1.240 . S
O387 Mn361 2.117 . S
O387 C364 1.264 1_655 S
C388 C381 1.403 . S
C388 C389 1.399 . S
C388 H394 0.929 . S
C389 C369 1.449 . S
C389 C388 1.399 . S
C389 H395 0.930 . S
H390 C370 0.931 . S
H391 C371 0.930 . S
H392 C379 0.931 . S
H393 C380 0.929 . S
H394 C388 0.929 . S
H395 C389 0.930 . S
Mn396 O401 2.095 . S
Mn396 O411 2.162 . S
Mn396 O412 2.297 . S
Mn396 O420 2.385 . S
Mn396 O421 2.209 1_545 S
Mn396 O422 2.094 . S
Mn397 O402 2.121 . S
Mn397 N404 2.257 . S
Mn397 N413 2.282 . S
Mn397 O421 2.215 . S
Mn397 O423 2.117 . S
C398 O420 1.234 1_565 S
C398 O421 1.283 . S
C399 O411 1.281 . S
C399 O412 1.236 . S
C400 O422 1.240 . S
C400 O423 1.264 1_545 S
O401 Mn396 2.095 . S
O401 C410 1.250 . S
O402 Mn397 2.121 . S
O402 C410 1.258 1_565 S
C403 N404 1.326 . S
C403 C407 1.460 . S
C403 H409 0.929 . S
N404 Mn397 2.257 . S
N404 C403 1.326 . S
N404 C408 1.362 . S
C405 C406 1.258 . S
C405 C408 1.431 . S
C405 C425 1.449 . S
C406 C405 1.258 . S
C406 C407 1.477 . S
C406 H426 0.931 . S
C407 C403 1.460 . S
C407 C406 1.477 . S
C407 H427 0.930 . S
C408 N404 1.362 . S
C408 C405 1.431 . S
C408 C418 1.476 . S
H409 C403 0.929 . S
C410 O401 1.250 . S
C410 O402 1.258 1_545 S
O411 Mn396 2.162 . S
O411 C399 1.281 . S
O412 Mn396 2.297 . S
O412 C399 1.236 . S
N413 Mn397 2.282 . S
N413 C414 1.328 . S
N413 C418 1.318 . S
C414 N413 1.328 . S
C414 C415 1.457 . S
C414 H419 0.929 . S
C415 C414 1.457 . S
C415 C416 1.291 . S
C415 H428 0.931 . S
C416 C415 1.291 . S
C416 C417 1.373 . S
C416 H429 0.929 . S
C417 C416 1.373 . S
C417 C418 1.396 . S
C417 C424 1.403 . S
C418 C408 1.476 . S
C418 N413 1.318 . S
C418 C417 1.396 . S
H419 C414 0.929 . S
O420 Mn396 2.385 . S
O420 C398 1.234 1_545 S
O421 Mn396 2.209 1_565 S
O421 Mn397 2.215 . S
O421 C398 1.283 . S
O422 Mn396 2.094 . S
O422 C400 1.240 . S
O423 Mn397 2.117 . S
O423 C400 1.264 1_565 S
C424 C417 1.403 . S
C424 C425 1.399 . S
C424 H430 0.929 . S
C425 C405 1.449 . S
C425 C424 1.399 . S
C425 H431 0.930 . S
H426 C406 0.931 . S
H427 C407 0.930 . S
H428 C415 0.931 . S
H429 C416 0.929 . S
H430 C424 0.929 . S
H431 C425 0.930 . S
C432 C433 1.391 . S
C432 C434 1.394 . S
C432 H448 0.931 . S
C433 C432 1.391 . S
C433 C437 1.376 . S
C434 C432 1.394 . S
C434 C435 1.369 . S
C434 C438 1.531 1_655 S
C435 C434 1.369 . S
C435 C436 1.410 . S
C435 C443 1.503 1_655 S
C436 C435 1.410 . S
C436 C437 1.392 . S
C436 C439 1.511 . S
C437 C433 1.376 . S
C437 C436 1.392 . S
C437 H449 0.929 . S
C438 C434 1.531 1_455 S
C438 H450 0.960 . S
C438 H451 0.962 . S
C438 H452 0.960 . S
C439 C436 1.511 . S
C439 H453 0.961 . S
C439 H454 0.961 . S
C439 H455 0.961 . S
C440 C441 1.370 . S
C440 C442 1.363 . S
C440 H456 0.931 . S
C441 C440 1.370 . S
C441 C445 1.408 . S
C442 C440 1.363 . S
C442 C443 1.370 . S
C442 C446 1.524 1_455 S
C443 C435 1.503 1_455 S
C443 C442 1.370 . S
C443 C444 1.403 . S
C444 C443 1.403 . S
C444 C445 1.404 . S
C444 C447 1.539 . S
C445 C441 1.408 . S
C445 C444 1.404 . S
C445 H457 0.930 . S
C446 C442 1.524 1_655 S
C446 H458 0.956 . S
C446 H459 0.961 . S
C446 H460 0.961 1_655 S
C447 C444 1.539 . S
C447 H461 0.958 . S
C447 H462 0.961 . S
C447 H463 0.960 . S
H448 C432 0.931 . S
H449 C437 0.929 . S
H450 C438 0.960 . S
H451 C438 0.962 . S
H452 C438 0.960 . S
H453 C439 0.961 . S
H454 C439 0.961 . S
H455 C439 0.961 . S
H456 C440 0.931 . S
H457 C445 0.930 . S
H458 C446 0.956 . S
H459 C446 0.961 . S
H460 C446 0.961 1_455 S
H461 C447 0.958 . S
H462 C447 0.961 . S
H463 C447 0.960 . S
C464 C465 1.391 . S
C464 C466 1.394 . S
C464 H480 0.931 . S
C465 C464 1.391 . S
C465 C469 1.376 . S
C466 C464 1.394 . S
C466 C467 1.369 . S
C466 C470 1.528 . S
C467 C466 1.369 . S
C467 C468 1.410 . S
C467 C475 1.503 1_545 S
C468 C467 1.410 . S
C468 C469 1.392 . S
C468 C471 1.511 . S
C469 C465 1.376 . S
C469 C468 1.392 . S
C469 H481 0.929 . S
C470 C466 1.528 . S
C470 H482 0.962 1_545 S
C470 H483 0.962 . S
C470 H484 0.961 . S
C471 C468 1.511 . S
C471 H485 0.961 . S
C471 H486 0.961 . S
C471 H487 0.961 . S
C472 C473 1.370 . S
C472 C474 1.363 . S
C472 H488 0.931 . S
C473 C472 1.370 . S
C473 C477 1.408 . S
C474 C472 1.363 . S
C474 C475 1.370 . S
C474 C478 1.524 1_565 S
C475 C467 1.503 1_565 S
C475 C474 1.370 . S
C475 C476 1.403 . S
C476 C475 1.403 . S
C476 C477 1.404 . S
C476 C479 1.539 . S
C477 C473 1.408 . S
C477 C476 1.404 . S
C477 H489 0.930 . S
C478 C474 1.524 1_545 S
C478 H490 0.956 . S
C478 H491 0.961 . S
C478 H492 0.961 . S
C479 C476 1.539 . S
C479 H493 0.958 . S
C479 H494 0.961 . S
C479 H495 0.960 . S
H480 C464 0.931 . S
H481 C469 0.929 . S
H482 C470 0.962 1_565 S
H483 C470 0.962 . S
H484 C470 0.961 . S
H485 C471 0.961 . S
H486 C471 0.961 . S
H487 C471 0.961 . S
H488 C472 0.931 . S
H489 C477 0.930 . S
H490 C478 0.956 . S
H491 C478 0.961 . S
H492 C478 0.961 . S
H493 C479 0.958 . S
H494 C479 0.961 . S
H495 C479 0.960 . S
C496 C497 1.391 . S
C496 C498 1.394 . S
C496 H512 0.931 . S
C497 C496 1.391 . S
C497 C501 1.376 . S
C498 C496 1.394 . S
C498 C499 1.369 . S
C498 C502 1.531 . S
C499 C498 1.369 . S
C499 C500 1.410 . S
C499 C507 1.503 . S
C500 C499 1.410 . S
C500 C501 1.392 . S
C500 C503 1.511 . S
C501 C497 1.376 . S
C501 C500 1.392 . S
C501 H513 0.929 . S
C502 C498 1.531 . S
C502 H514 0.960 . S
C502 H515 0.962 . S
C502 H516 0.960 . S
C503 C500 1.511 . S
C503 H517 0.961 . S
C503 H518 0.961 . S
C503 H519 0.961 . S
C504 C505 1.370 . S
C504 C506 1.363 . S
C504 H520 0.931 . S
C505 C504 1.370 . S
C505 C509 1.408 . S
C506 C504 1.363 . S
C506 C507 1.370 . S
C506 C510 1.524 . S
C507 C499 1.503 . S
C507 C506 1.370 . S
C507 C508 1.403 . S
C508 C507 1.403 . S
C508 C509 1.404 . S
C508 C511 1.539 . S
C509 C505 1.408 . S
C509 C508 1.404 . S
C509 H521 0.930 . S
C510 C506 1.524 . S
C510 H522 0.956 . S
C510 H523 0.961 . S
C510 H524 0.961 . S
C511 C508 1.539 . S
C511 H525 0.958 . S
C511 H526 0.961 . S
C511 H527 0.960 . S
H512 C496 0.931 . S
H513 C501 0.929 . S
H514 C502 0.960 . S
H515 C502 0.962 . S
H516 C502 0.960 . S
H517 C503 0.961 . S
H518 C503 0.961 . S
H519 C503 0.961 . S
H520 C504 0.931 . S
H521 C509 0.930 . S
H522 C510 0.956 . S
H523 C510 0.961 . S
H524 C510 0.961 . S
H525 C511 0.958 . S
H526 C511 0.961 . S
H527 C511 0.960 . S
C528 C529 1.391 . S
C528 C530 1.394 . S
C528 H544 0.931 . S
C529 C528 1.391 . S
C529 C533 1.376 . S
C530 C528 1.394 . S
C530 C531 1.369 . S
C530 C534 1.531 . S
C531 C530 1.369 . S
C531 C532 1.410 . S
C531 C539 1.503 1_655 S
C532 C531 1.410 . S
C532 C533 1.392 . S
C532 C535 1.511 . S
C533 C529 1.376 . S
C533 C532 1.392 . S
C533 H545 0.929 . S
C534 C530 1.531 . S
C534 H546 0.960 . S
C534 H547 0.962 1_655 S
C534 H548 0.960 . S
C535 C532 1.511 . S
C535 H549 0.961 . S
C535 H550 0.961 . S
C535 H551 0.961 . S
C536 C537 1.370 . S
C536 C538 1.363 . S
C536 H552 0.931 . S
C537 C536 1.370 . S
C537 C541 1.408 . S
C538 C536 1.363 . S
C538 C539 1.370 . S
C538 C542 1.524 . S
C539 C531 1.503 1_455 S
C539 C538 1.370 . S
C539 C540 1.403 . S
C540 C539 1.403 . S
C540 C541 1.404 . S
C540 C543 1.539 1_455 S
C541 C537 1.408 . S
C541 C540 1.404 . S
C541 H553 0.930 . S
C542 C538 1.524 . S
C542 H554 0.956 . S
C542 H555 0.961 . S
C542 H556 0.961 . S
C543 C540 1.539 1_655 S
C543 H557 0.958 . S
C543 H558 0.961 . S
C543 H559 0.960 . S
H544 C528 0.931 . S
H545 C533 0.929 . S
H546 C534 0.960 . S
H547 C534 0.962 1_455 S
H548 C534 0.960 . S
H549 C535 0.961 . S
H550 C535 0.961 . S
H551 C535 0.961 . S
H552 C536 0.931 . S
H553 C541 0.930 . S
H554 C542 0.956 . S
H555 C542 0.961 . S
H556 C542 0.961 . S
H557 C543 0.958 . S
H558 C543 0.961 . S
H559 C543 0.960 . S
C560 C561 1.391 . S
C560 C562 1.394 . S
C560 H576 0.931 . S
C561 C560 1.391 . S
C561 C565 1.376 . S
C562 C560 1.394 . S
C562 C563 1.369 . S
C562 C566 1.531 . S
C563 C562 1.369 . S
C563 C564 1.410 . S
C563 C571 1.503 1_545 S
C564 C563 1.410 . S
C564 C565 1.392 . S
C564 C567 1.511 . S
C565 C561 1.376 . S
C565 C564 1.392 . S
C565 H577 0.929 . S
C566 C562 1.531 . S
C566 H578 0.960 . S
C566 H579 0.962 . S
C566 H580 0.960 . S
C567 C564 1.511 . S
C567 H581 0.961 . S
C567 H582 0.961 1_545 S
C567 H583 0.961 . S
C568 C569 1.370 . S
C568 C570 1.363 . S
C568 H584 0.931 . S
C569 C568 1.370 . S
C569 C573 1.408 . S
C570 C568 1.363 . S
C570 C571 1.370 . S
C570 C574 1.524 . S
C571 C563 1.503 1_565 S
C571 C570 1.370 . S
C571 C572 1.403 . S
C572 C571 1.403 . S
C572 C573 1.404 . S
C572 C575 1.539 1_565 S
C573 C569 1.408 . S
C573 C572 1.404 . S
C573 H585 0.930 . S
C574 C570 1.524 . S
C574 H586 0.956 . S
C574 H587 0.961 . S
C574 H588 0.961 . S
C575 C572 1.539 1_545 S
C575 H589 0.958 . S
C575 H590 0.961 1_545 S
C575 H591 0.960 . S
H576 C560 0.931 . S
H577 C565 0.929 . S
H578 C566 0.960 . S
H579 C566 0.962 . S
H580 C566 0.960 . S
H581 C567 0.961 . S
H582 C567 0.961 1_565 S
H583 C567 0.961 . S
H584 C568 0.931 . S
H585 C573 0.930 . S
H586 C574 0.956 . S
H587 C574 0.961 . S
H588 C574 0.961 . S
H589 C575 0.958 . S
H590 C575 0.961 1_565 S
H591 C575 0.960 . S
C592 C593 1.391 . S
C592 C594 1.394 . S
C592 H608 0.931 . S
C593 C592 1.391 . S
C593 C597 1.376 . S
C594 C592 1.394 . S
C594 C595 1.369 . S
C594 C598 1.531 . S
C595 C594 1.369 . S
C595 C596 1.410 . S
C595 C603 1.503 . S
C596 C595 1.410 . S
C596 C597 1.392 . S
C596 C599 1.511 . S
C597 C593 1.376 . S
C597 C596 1.392 . S
C597 H609 0.929 . S
C598 C594 1.531 . S
C598 H610 0.960 . S
C598 H611 0.962 . S
C598 H612 0.960 . S
C599 C596 1.511 . S
C599 H613 0.961 . S
C599 H614 0.961 . S
C599 H615 0.961 . S
C600 C601 1.370 . S
C600 C602 1.363 . S
C600 H616 0.931 . S
C601 C600 1.370 . S
C601 C605 1.408 . S
C602 C600 1.363 . S
C602 C603 1.370 . S
C602 C606 1.524 . S
C603 C595 1.503 . S
C603 C602 1.370 . S
C603 C604 1.403 . S
C604 C603 1.403 . S
C604 C605 1.404 . S
C604 C607 1.539 . S
C605 C601 1.408 . S
C605 C604 1.404 . S
C605 H617 0.930 . S
C606 C602 1.524 . S
C606 H618 0.956 . S
C606 H619 0.961 . S
C606 H620 0.961 . S
C607 C604 1.539 . S
C607 H621 0.958 . S
C607 H622 0.961 . S
C607 H623 0.960 . S
H608 C592 0.931 . S
H609 C597 0.929 . S
H610 C598 0.960 . S
H611 C598 0.962 . S
H612 C598 0.960 . S
H613 C599 0.961 . S
H614 C599 0.961 . S
H615 C599 0.961 . S
H616 C600 0.931 . S
H617 C605 0.930 . S
H618 C606 0.956 . S
H619 C606 0.961 . S
H620 C606 0.961 . S
H621 C607 0.958 . S
H622 C607 0.961 . S
H623 C607 0.960 . S
C624 C625 1.391 . S
C624 C626 1.394 . S
C624 H640 0.931 . S
C625 C624 1.391 . S
C625 C629 1.376 . S
C626 C624 1.394 . S
C626 C627 1.369 . S
C626 C630 1.531 . S
C627 C626 1.369 . S
C627 C628 1.410 . S
C627 C635 1.503 . S
C628 C627 1.410 . S
C628 C629 1.392 . S
C628 C631 1.511 . S
C629 C625 1.376 . S
C629 C628 1.392 . S
C629 H641 0.929 . S
C630 C626 1.531 . S
C630 H642 0.960 . S
C630 H643 0.962 . S
C630 H644 0.960 . S
C631 C628 1.511 . S
C631 H645 0.961 . S
C631 H646 0.961 . S
C631 H647 0.961 . S
C632 C633 1.370 . S
C632 C634 1.363 . S
C632 H648 0.931 . S
C633 C632 1.370 . S
C633 C637 1.408 . S
C634 C632 1.363 . S
C634 C635 1.370 . S
C634 C638 1.524 . S
C635 C627 1.503 . S
C635 C634 1.370 . S
C635 C636 1.403 . S
C636 C635 1.403 . S
C636 C637 1.404 . S
C636 C639 1.539 . S
C637 C633 1.408 . S
C637 C636 1.404 . S
C637 H649 0.930 . S
C638 C634 1.524 . S
C638 H650 0.956 . S
C638 H651 0.961 . S
C638 H652 0.961 . S
C639 C636 1.539 . S
C639 H653 0.958 . S
C639 H654 0.961 . S
C639 H655 0.960 . S
H640 C624 0.931 . S
H641 C629 0.929 . S
H642 C630 0.960 . S
H643 C630 0.962 . S
H644 C630 0.960 . S
H645 C631 0.961 . S
H646 C631 0.961 . S
H647 C631 0.961 . S
H648 C632 0.931 . S
H649 C637 0.930 . S
H650 C638 0.956 . S
H651 C638 0.961 . S
H652 C638 0.961 . S
H653 C639 0.958 . S
H654 C639 0.961 . S
H655 C639 0.960 . S
C656 C657 1.391 1_655 S
C656 C658 1.394 . S
C656 H672 0.931 . S
C657 C656 1.391 1_455 S
C657 C661 1.376 . S
C658 C656 1.394 . S
C658 C659 1.369 1_655 S
C658 C662 1.531 . S
C659 C658 1.369 1_455 S
C659 C660 1.410 . S
C659 C667 1.503 1_455 S
C660 C659 1.410 . S
C660 C661 1.392 . S
C660 C663 1.511 . S
C661 C657 1.376 . S
C661 C660 1.392 . S
C661 H673 0.929 . S
C662 C658 1.531 . S
C662 H674 0.960 . S
C662 H675 0.962 . S
C662 H676 0.960 . S
C663 C660 1.511 . S
C663 H677 0.961 . S
C663 H678 0.961 . S
C663 H679 0.961 . S
C664 C665 1.370 . S
C664 C666 1.363 . S
C664 H680 0.931 . S
C665 C664 1.370 . S
C665 C669 1.408 . S
C666 C664 1.363 . S
C666 C667 1.370 . S
C666 C670 1.524 . S
C667 C659 1.503 1_655 S
C667 C666 1.370 . S
C667 C668 1.403 1_655 S
C668 C667 1.403 1_455 S
C668 C669 1.404 1_455 S
C668 C671 1.539 . S
C669 C665 1.408 . S
C669 C668 1.404 1_655 S
C669 H681 0.930 1_655 S
C670 C666 1.524 . S
C670 H682 0.956 . S
C670 H683 0.961 . S
C670 H684 0.961 . S
C671 C668 1.539 . S
C671 H685 0.958 . S
C671 H686 0.961 . S
C671 H687 0.960 . S
H672 C656 0.931 . S
H673 C661 0.929 . S
H674 C662 0.960 . S
H675 C662 0.962 . S
H676 C662 0.960 . S
H677 C663 0.961 . S
H678 C663 0.961 . S
H679 C663 0.961 . S
H680 C664 0.931 . S
H681 C669 0.930 1_455 S
H682 C670 0.956 . S
H683 C670 0.961 . S
H684 C670 0.961 . S
H685 C671 0.958 . S
H686 C671 0.961 . S
H687 C671 0.960 . S
C688 C689 1.391 1_565 S
C688 C690 1.394 . S
C688 H704 0.931 . S
C689 C688 1.391 1_545 S
C689 C693 1.376 . S
C690 C688 1.394 . S
C690 C691 1.369 1_565 S
C690 C694 1.531 . S
C691 C690 1.369 1_545 S
C691 C692 1.410 . S
C691 C699 1.503 1_545 S
C692 C691 1.410 . S
C692 C693 1.392 . S
C692 C695 1.511 . S
C693 C689 1.376 . S
C693 C692 1.392 . S
C693 H705 0.929 . S
C694 C690 1.531 . S
C694 H706 0.960 . S
C694 H707 0.962 . S
C694 H708 0.960 . S
C695 C692 1.511 . S
C695 H709 0.961 . S
C695 H710 0.961 . S
C695 H711 0.961 . S
C696 C697 1.370 . S
C696 C698 1.363 . S
C696 H712 0.931 . S
C697 C696 1.370 . S
C697 C701 1.408 . S
C698 C696 1.363 . S
C698 C699 1.370 . S
C698 C702 1.524 . S
C699 C691 1.503 1_565 S
C699 C698 1.370 . S
C699 C700 1.403 1_565 S
C700 C699 1.403 1_545 S
C700 C701 1.404 1_545 S
C700 C703 1.539 . S
C701 C697 1.408 . S
C701 C700 1.404 1_565 S
C701 H713 0.930 . S
C702 C698 1.524 . S
C702 H714 0.956 . S
C702 H715 0.961 . S
C702 H716 0.961 . S
C703 C700 1.539 . S
C703 H717 0.958 . S
C703 H718 0.961 . S
C703 H719 0.960 . S
H704 C688 0.931 . S
H705 C693 0.929 . S
H706 C694 0.960 . S
H707 C694 0.962 . S
H708 C694 0.960 . S
H709 C695 0.961 . S
H710 C695 0.961 . S
H711 C695 0.961 . S
H712 C696 0.931 . S
H713 C701 0.930 . S
H714 C702 0.956 . S
H715 C702 0.961 . S
H716 C702 0.961 . S
H717 C703 0.958 . S
H718 C703 0.961 . S
H719 C703 0.960 . S
C720 C721 1.391 . S
C720 C722 1.394 . S
C720 H736 0.931 . S
C721 C720 1.391 . S
C721 C725 1.376 . S
C722 C720 1.394 . S
C722 C723 1.369 . S
C722 C726 1.531 . S
C723 C722 1.369 . S
C723 C724 1.410 . S
C723 C731 1.503 . S
C724 C723 1.410 . S
C724 C725 1.392 . S
C724 C727 1.511 . S
C725 C721 1.376 . S
C725 C724 1.392 . S
C725 H737 0.929 . S
C726 C722 1.531 . S
C726 H738 0.960 . S
C726 H739 0.962 . S
C726 H740 0.960 . S
C727 C724 1.511 . S
C727 H741 0.961 . S
C727 H742 0.961 . S
C727 H743 0.961 . S
C728 C729 1.370 . S
C728 C730 1.363 . S
C728 H744 0.931 . S
C729 C728 1.370 . S
C729 C733 1.408 . S
C730 C728 1.363 . S
C730 C731 1.370 . S
C730 C734 1.524 . S
C731 C723 1.503 . S
C731 C730 1.370 . S
C731 C732 1.403 . S
C732 C731 1.403 . S
C732 C733 1.404 . S
C732 C735 1.539 . S
C733 C729 1.408 . S
C733 C732 1.404 . S
C733 H745 0.930 . S
C734 C730 1.524 . S
C734 H746 0.956 . S
C734 H747 0.961 . S
C734 H748 0.961 . S
C735 C732 1.539 . S
C735 H749 0.958 . S
C735 H750 0.961 . S
C735 H751 0.960 . S
H736 C720 0.931 . S
H737 C725 0.929 . S
H738 C726 0.960 . S
H739 C726 0.962 . S
H740 C726 0.960 . S
H741 C727 0.961 . S
H742 C727 0.961 . S
H743 C727 0.961 . S
H744 C728 0.931 . S
H745 C733 0.930 . S
H746 C734 0.956 . S
H747 C734 0.961 . S
H748 C734 0.961 . S
H749 C735 0.958 . S
H750 C735 0.961 . S
H751 C735 0.960 . S
C752 C753 1.391 . S
C752 C754 1.394 1_655 S
C752 H768 0.931 1_655 S
C753 C752 1.391 . S
C753 C757 1.376 . S
C754 C752 1.394 1_455 S
C754 C755 1.369 . S
C754 C758 1.531 . S
C755 C754 1.369 . S
C755 C756 1.410 1_455 S
C755 C763 1.503 . S
C756 C755 1.410 1_655 S
C756 C757 1.392 . S
C756 C759 1.511 . S
C757 C753 1.376 . S
C757 C756 1.392 . S
C757 H769 0.929 . S
C758 C754 1.531 . S
C758 H770 0.960 . S
C758 H771 0.962 . S
C758 H772 0.960 . S
C759 C756 1.511 . S
C759 H773 0.961 . S
C759 H774 0.961 . S
C759 H775 0.961 . S
C760 C761 1.370 1_655 S
C760 C762 1.363 . S
C760 H776 0.931 . S
C761 C760 1.370 1_455 S
C761 C765 1.408 . S
C762 C760 1.363 . S
C762 C763 1.370 1_655 S
C762 C766 1.524 . S
C763 C755 1.503 . S
C763 C762 1.370 1_455 S
C763 C764 1.403 . S
C764 C763 1.403 . S
C764 C765 1.404 . S
C764 C767 1.539 . S
C765 C761 1.408 . S
C765 C764 1.404 . S
C765 H777 0.930 . S
C766 C762 1.524 . S
C766 H778 0.956 . S
C766 H779 0.961 . S
C766 H780 0.961 . S
C767 C764 1.539 . S
C767 H781 0.958 . S
C767 H782 0.961 . S
C767 H783 0.960 . S
H768 C752 0.931 1_455 S
H769 C757 0.929 . S
H770 C758 0.960 . S
H771 C758 0.962 . S
H772 C758 0.960 . S
H773 C759 0.961 . S
H774 C759 0.961 . S
H775 C759 0.961 . S
H776 C760 0.931 . S
H777 C765 0.930 . S
H778 C766 0.956 . S
H779 C766 0.961 . S
H780 C766 0.961 . S
H781 C767 0.958 . S
H782 C767 0.961 . S
H783 C767 0.960 . S
C784 C785 1.391 . S
C784 C786 1.394 1_565 S
C784 H800 0.931 1_565 S
C785 C784 1.391 . S
C785 C789 1.376 . S
C786 C784 1.394 1_545 S
C786 C787 1.369 . S
C786 C790 1.531 . S
C787 C786 1.369 . S
C787 C788 1.410 1_545 S
C787 C795 1.503 . S
C788 C787 1.410 1_565 S
C788 C789 1.392 . S
C788 C791 1.511 . S
C789 C785 1.376 . S
C789 C788 1.392 . S
C789 H801 0.929 . S
C790 C786 1.531 . S
C790 H802 0.960 . S
C790 H803 0.962 . S
C790 H804 0.960 . S
C791 C788 1.511 . S
C791 H805 0.961 . S
C791 H806 0.961 . S
C791 H807 0.961 . S
C792 C793 1.370 1_565 S
C792 C794 1.363 . S
C792 H808 0.931 . S
C793 C792 1.370 1_545 S
C793 C797 1.408 . S
C794 C792 1.363 . S
C794 C795 1.370 1_565 S
C794 C798 1.524 . S
C795 C787 1.503 . S
C795 C794 1.370 1_545 S
C795 C796 1.403 . S
C796 C795 1.403 . S
C796 C797 1.404 . S
C796 C799 1.539 . S
C797 C793 1.408 . S
C797 C796 1.404 . S
C797 H809 0.930 . S
C798 C794 1.524 . S
C798 H810 0.956 . S
C798 H811 0.961 . S
C798 H812 0.961 . S
C799 C796 1.539 . S
C799 H813 0.958 . S
C799 H814 0.961 . S
C799 H815 0.960 . S
H800 C784 0.931 1_545 S
H801 C789 0.929 . S
H802 C790 0.960 . S
H803 C790 0.962 . S
H804 C790 0.960 . S
H805 C791 0.961 . S
H806 C791 0.961 . S
H807 C791 0.961 . S
H808 C792 0.931 . S
H809 C797 0.930 . S
H810 C798 0.956 . S
H811 C798 0.961 . S
H812 C798 0.961 . S
H813 C799 0.958 . S
H814 C799 0.961 . S
H815 C799 0.960 . S
C816 C817 1.391 . S
C816 C818 1.394 . S
C816 H832 0.931 . S
C817 C816 1.391 . S
C817 C821 1.376 . S
C818 C816 1.394 . S
C818 C819 1.369 . S
C818 C822 1.531 . S
C819 C818 1.369 . S
C819 C820 1.410 . S
C819 C827 1.503 . S
C820 C819 1.410 . S
C820 C821 1.392 . S
C820 C823 1.511 . S
C821 C817 1.376 . S
C821 C820 1.392 . S
C821 H833 0.929 . S
C822 C818 1.531 . S
C822 H834 0.960 . S
C822 H835 0.962 . S
C822 H836 0.960 . S
C823 C820 1.511 . S
C823 H837 0.961 . S
C823 H838 0.961 . S
C823 H839 0.961 . S
C824 C825 1.370 . S
C824 C826 1.363 . S
C824 H840 0.931 . S
C825 C824 1.370 . S
C825 C829 1.408 . S
C826 C824 1.363 . S
C826 C827 1.370 . S
C826 C830 1.524 . S
C827 C819 1.503 . S
C827 C826 1.370 . S
C827 C828 1.403 . S
C828 C827 1.403 . S
C828 C829 1.404 . S
C828 C831 1.539 . S
C829 C825 1.408 . S
C829 C828 1.404 . S
C829 H841 0.930 . S
C830 C826 1.524 . S
C830 H842 0.956 . S
C830 H843 0.961 . S
C830 H844 0.961 . S
C831 C828 1.539 . S
C831 H845 0.958 . S
C831 H846 0.961 . S
C831 H847 0.960 . S
H832 C816 0.931 . S
H833 C821 0.929 . S
H834 C822 0.960 . S
H835 C822 0.962 . S
H836 C822 0.960 . S
H837 C823 0.961 . S
H838 C823 0.961 . S
H839 C823 0.961 . S
H840 C824 0.931 . S
H841 C829 0.930 . S
H842 C830 0.956 . S
H843 C830 0.961 . S
H844 C830 0.961 . S
H845 C831 0.958 . S
H846 C831 0.961 . S
H847 C831 0.960 . S
C848 C849 1.391 . S
C848 C850 1.394 . S
C848 H864 0.931 . S
C849 C848 1.391 . S
C849 C853 1.376 . S
C850 C848 1.394 . S
C850 C851 1.369 . S
C850 C854 1.531 . S
C851 C850 1.369 . S
C851 C852 1.410 . S
C851 C859 1.503 . S
C852 C851 1.410 . S
C852 C853 1.392 . S
C852 C855 1.511 . S
C853 C849 1.376 . S
C853 C852 1.392 . S
C853 H865 0.929 . S
C854 C850 1.531 . S
C854 H866 0.960 . S
C854 H867 0.962 . S
C854 H868 0.960 . S
C855 C852 1.511 . S
C855 H869 0.961 . S
C855 H870 0.961 . S
C855 H871 0.961 . S
C856 C857 1.370 . S
C856 C858 1.363 . S
C856 H872 0.931 . S
C857 C856 1.370 . S
C857 C861 1.408 . S
C858 C856 1.363 . S
C858 C859 1.370 . S
C858 C862 1.524 . S
C859 C851 1.503 . S
C859 C858 1.370 . S
C859 C860 1.403 . S
C860 C859 1.403 . S
C860 C861 1.404 . S
C860 C863 1.539 . S
C861 C857 1.408 . S
C861 C860 1.404 . S
C861 H873 0.930 . S
C862 C858 1.524 . S
C862 H874 0.956 . S
C862 H875 0.961 . S
C862 H876 0.961 . S
C863 C860 1.539 . S
C863 H877 0.958 . S
C863 H878 0.961 . S
C863 H879 0.960 . S
H864 C848 0.931 . S
H865 C853 0.929 . S
H866 C854 0.960 . S
H867 C854 0.962 . S
H868 C854 0.960 . S
H869 C855 0.961 . S
H870 C855 0.961 . S
H871 C855 0.961 . S
H872 C856 0.931 . S
H873 C861 0.930 . S
H874 C862 0.956 . S
H875 C862 0.961 . S
H876 C862 0.961 . S
H877 C863 0.958 . S
H878 C863 0.961 . S
H879 C863 0.960 . S
C880 C881 1.391 . S
C880 C882 1.394 . S
C880 H896 0.931 . S
C881 C880 1.391 . S
C881 C885 1.376 . S
C882 C880 1.394 . S
C882 C883 1.369 . S
C882 C886 1.531 . S
C883 C882 1.369 . S
C883 C884 1.410 . S
C883 C891 1.503 . S
C884 C883 1.410 . S
C884 C885 1.392 . S
C884 C887 1.511 . S
C885 C881 1.376 . S
C885 C884 1.392 . S
C885 H897 0.929 . S
C886 C882 1.531 . S
C886 H898 0.960 . S
C886 H899 0.962 . S
C886 H900 0.960 . S
C887 C884 1.511 . S
C887 H901 0.961 . S
C887 H902 0.961 . S
C887 H903 0.961 . S
C888 C889 1.370 . S
C888 C890 1.363 . S
C888 H904 0.931 . S
C889 C888 1.370 . S
C889 C893 1.408 . S
C890 C888 1.363 . S
C890 C891 1.370 . S
C890 C894 1.524 . S
C891 C883 1.503 . S
C891 C890 1.370 . S
C891 C892 1.403 . S
C892 C891 1.403 . S
C892 C893 1.404 . S
C892 C895 1.539 . S
C893 C889 1.408 . S
C893 C892 1.404 . S
C893 H905 0.930 1_545 S
C894 C890 1.524 . S
C894 H906 0.956 . S
C894 H907 0.961 . S
C894 H908 0.961 . S
C895 C892 1.539 . S
C895 H909 0.958 . S
C895 H910 0.961 . S
C895 H911 0.960 . S
H896 C880 0.931 . S
H897 C885 0.929 . S
H898 C886 0.960 . S
H899 C886 0.962 . S
H900 C886 0.960 . S
H901 C887 0.961 . S
H902 C887 0.961 . S
H903 C887 0.961 . S
H904 C888 0.931 . S
H905 C893 0.930 1_565 S
H906 C894 0.956 . S
H907 C894 0.961 . S
H908 C894 0.961 . S
H909 C895 0.958 . S
H910 C895 0.961 . S
H911 C895 0.960 . S
C912 C913 1.391 . S
C912 C914 1.394 . S
C912 H928 0.931 . S
C913 C912 1.391 . S
C913 C917 1.376 . S
C914 C912 1.394 . S
C914 C915 1.369 . S
C914 C918 1.531 . S
C915 C914 1.369 . S
C915 C916 1.410 . S
C915 C923 1.503 . S
C916 C915 1.410 . S
C916 C917 1.392 . S
C916 C919 1.511 . S
C917 C913 1.376 . S
C917 C916 1.392 . S
C917 H929 0.929 . S
C918 C914 1.531 . S
C918 H930 0.960 . S
C918 H931 0.962 . S
C918 H932 0.960 . S
C919 C916 1.511 . S
C919 H933 0.961 . S
C919 H934 0.961 . S
C919 H935 0.961 . S
C920 C921 1.370 . S
C920 C922 1.363 . S
C920 H936 0.931 . S
C921 C920 1.370 . S
C921 C925 1.408 . S
C922 C920 1.363 . S
C922 C923 1.370 . S
C922 C926 1.524 . S
C923 C915 1.503 . S
C923 C922 1.370 . S
C923 C924 1.403 . S
C924 C923 1.403 . S
C924 C925 1.404 . S
C924 C927 1.539 . S
C925 C921 1.408 . S
C925 C924 1.404 . S
C925 H937 0.930 . S
C926 C922 1.524 . S
C926 H938 0.956 . S
C926 H939 0.961 . S
C926 H940 0.961 . S
C927 C924 1.539 . S
C927 H941 0.958 . S
C927 H942 0.961 . S
C927 H943 0.960 . S
H928 C912 0.931 . S
H929 C917 0.929 . S
H930 C918 0.960 . S
H931 C918 0.962 . S
H932 C918 0.960 . S
H933 C919 0.961 . S
H934 C919 0.961 . S
H935 C919 0.961 . S
H936 C920 0.931 . S
H937 C925 0.930 . S
H938 C926 0.956 . S
H939 C926 0.961 . S
H940 C926 0.961 . S
H941 C927 0.958 . S
H942 C927 0.961 . S
H943 C927 0.960 . S
C944 C945 1.391 . S
C944 C946 1.394 . S
C944 H960 0.931 . S
C945 C944 1.391 . S
C945 C949 1.376 . S
C946 C944 1.394 . S
C946 C947 1.369 . S
C946 C950 1.531 . S
C947 C946 1.369 . S
C947 C948 1.410 . S
C947 C955 1.503 . S
C948 C947 1.410 . S
C948 C949 1.392 . S
C948 C951 1.511 . S
C949 C945 1.376 . S
C949 C948 1.392 . S
C949 H961 0.929 . S
C950 C946 1.531 . S
C950 H962 0.960 . S
C950 H963 0.962 . S
C950 H964 0.960 . S
C951 C948 1.511 . S
C951 H965 0.961 . S
C951 H966 0.961 . S
C951 H967 0.961 . S
C952 C953 1.370 . S
C952 C954 1.363 . S
C952 H968 0.931 . S
C953 C952 1.370 . S
C953 C957 1.408 . S
C954 C952 1.363 . S
C954 C955 1.370 . S
C954 C958 1.524 . S
C955 C947 1.503 . S
C955 C954 1.370 . S
C955 C956 1.403 . S
C956 C955 1.403 . S
C956 C957 1.404 . S
C956 C959 1.539 . S
C957 C953 1.408 . S
C957 C956 1.404 . S
C957 H969 0.930 . S
C958 C954 1.524 . S
C958 H970 0.956 . S
C958 H971 0.961 . S
C958 H972 0.961 . S
C959 C956 1.539 . S
C959 H973 0.958 . S
C959 H974 0.961 . S
C959 H975 0.960 . S
H960 C944 0.931 . S
H961 C949 0.929 . S
H962 C950 0.960 . S
H963 C950 0.962 . S
H964 C950 0.960 . S
H965 C951 0.961 . S
H966 C951 0.961 . S
H967 C951 0.961 . S
H968 C952 0.931 . S
H969 C957 0.930 . S
H970 C958 0.956 . S
H971 C958 0.961 . S
H972 C958 0.961 . S
H973 C959 0.958 . S
H974 C959 0.961 . S
H975 C959 0.960 . S
C976 C977 1.391 . S
C976 C978 1.394 . S
C976 H992 0.931 . S
C977 C976 1.391 . S
C977 C981 1.376 . S
C978 C976 1.394 . S
C978 C979 1.369 . S
C978 C982 1.531 . S
C979 C978 1.369 . S
C979 C980 1.410 . S
C979 C987 1.503 . S
C980 C979 1.410 . S
C980 C981 1.392 . S
C980 C983 1.511 . S
C981 C977 1.376 . S
C981 C980 1.392 . S
C981 H993 0.929 . S
C982 C978 1.531 . S
C982 H994 0.960 . S
C982 H995 0.962 . S
C982 H996 0.960 . S
C983 C980 1.511 . S
C983 H997 0.961 . S
C983 H998 0.961 . S
C983 H999 0.961 . S
C984 C985 1.370 . S
C984 C986 1.363 . S
C984 H1000 0.931 . S
C985 C984 1.370 . S
C985 C989 1.408 . S
C986 C984 1.363 . S
C986 C987 1.370 . S
C986 C990 1.524 . S
C987 C979 1.503 . S
C987 C986 1.370 . S
C987 C988 1.403 . S
C988 C987 1.403 . S
C988 C989 1.404 . S
C988 C991 1.539 . S
C989 C985 1.408 . S
C989 C988 1.404 . S
C989 H1001 0.930 . S
C990 C986 1.524 . S
C990 H1002 0.956 . S
C990 H1003 0.961 . S
C990 H1004 0.961 . S
C991 C988 1.539 . S
C991 H1005 0.958 . S
C991 H1006 0.961 . S
C991 H1007 0.960 . S
H992 C976 0.931 . S
H993 C981 0.929 . S
H994 C982 0.960 . S
H995 C982 0.962 . S
H996 C982 0.960 . S
H997 C983 0.961 . S
H998 C983 0.961 . S
H999 C983 0.961 . S
H1000 C984 0.931 . S
H1001 C989 0.930 . S
H1002 C990 0.956 . S
H1003 C990 0.961 . S
H1004 C990 0.961 . S
H1005 C991 0.958 . S
H1006 C991 0.961 . S
H1007 C991 0.960 . S
C1008 C1009 1.391 . S
C1008 C1010 1.394 . S
C1008 H1024 0.931 . S
C1009 C1008 1.391 . S
C1009 C1013 1.376 . S
C1010 C1008 1.394 . S
C1010 C1011 1.369 . S
C1010 C1014 1.531 . S
C1011 C1010 1.369 . S
C1011 C1012 1.410 . S
C1011 C1019 1.503 . S
C1012 C1011 1.410 . S
C1012 C1013 1.392 . S
C1012 C1015 1.511 . S
C1013 C1009 1.376 . S
C1013 C1012 1.392 . S
C1013 H1025 0.929 . S
C1014 C1010 1.531 . S
C1014 H1026 0.960 . S
C1014 H1027 0.962 . S
C1014 H1028 0.960 . S
C1015 C1012 1.511 . S
C1015 H1029 0.961 . S
C1015 H1030 0.961 . S
C1015 H1031 0.961 . S
C1016 C1017 1.370 . S
C1016 C1018 1.363 . S
C1016 H1032 0.931 . S
C1017 C1016 1.370 . S
C1017 C1021 1.408 . S
C1018 C1016 1.363 . S
C1018 C1019 1.370 . S
C1018 C1022 1.524 . S
C1019 C1011 1.503 . S
C1019 C1018 1.370 . S
C1019 C1020 1.403 . S
C1020 C1019 1.403 . S
C1020 C1021 1.404 . S
C1020 C1023 1.539 . S
C1021 C1017 1.408 . S
C1021 C1020 1.404 . S
C1021 H1033 0.930 . S
C1022 C1018 1.524 . S
C1022 H1034 0.956 . S
C1022 H1035 0.961 . S
C1022 H1036 0.961 . S
C1023 C1020 1.539 . S
C1023 H1037 0.958 . S
C1023 H1038 0.961 . S
C1023 H1039 0.960 . S
H1024 C1008 0.931 . S
H1025 C1013 0.929 . S
H1026 C1014 0.960 . S
H1027 C1014 0.962 . S
H1028 C1014 0.960 . S
H1029 C1015 0.961 . S
H1030 C1015 0.961 . S
H1031 C1015 0.961 . S
H1032 C1016 0.931 . S
H1033 C1021 0.930 . S
H1034 C1022 0.956 . S
H1035 C1022 0.961 . S
H1036 C1022 0.961 . S
H1037 C1023 0.958 . S
H1038 C1023 0.961 . S
H1039 C1023 0.960 . S
C1040 C1041 1.391 . S
C1040 C1042 1.394 . S
C1040 H1056 0.931 . S
C1041 C1040 1.391 . S
C1041 C1045 1.376 . S
C1042 C1040 1.394 . S
C1042 C1043 1.369 . S
C1042 C1046 1.531 . S
C1043 C1042 1.369 . S
C1043 C1044 1.410 . S
C1043 C1051 1.496 1_655 S
C1044 C1043 1.410 . S
C1044 C1045 1.392 . S
C1044 C1047 1.511 1_655 S
C1045 C1041 1.376 . S
C1045 C1044 1.392 . S
C1045 H1057 0.929 . S
C1046 C1042 1.531 . S
C1046 H1058 0.960 . S
C1046 H1059 0.962 . S
C1046 H1060 0.960 . S
C1047 C1044 1.511 1_455 S
C1047 H1061 0.961 . S
C1047 H1062 0.961 . S
C1047 H1063 0.961 . S
C1048 C1049 1.370 . S
C1048 C1050 1.363 . S
C1048 H1064 0.931 . S
C1049 C1048 1.370 . S
C1049 C1053 1.408 1_455 S
C1050 C1048 1.363 . S
C1050 C1051 1.384 . S
C1050 C1054 1.524 . S
C1051 C1043 1.496 1_455 S
C1051 C1050 1.384 . S
C1051 C1052 1.396 1_455 S
C1052 C1051 1.396 1_655 S
C1052 C1053 1.404 . S
C1052 C1055 1.539 . S
C1053 C1049 1.408 1_655 S
C1053 C1052 1.404 . S
C1053 H1065 0.930 . S
C1054 C1050 1.524 . S
C1054 H1066 0.956 . S
C1054 H1067 0.961 . S
C1054 H1068 0.961 . S
C1055 C1052 1.539 . S
C1055 H1069 0.958 . S
C1055 H1070 0.961 . S
C1055 H1071 0.960 . S
H1056 C1040 0.931 . S
H1057 C1045 0.929 . S
H1058 C1046 0.960 . S
H1059 C1046 0.962 . S
H1060 C1046 0.960 . S
H1061 C1047 0.961 . S
H1062 C1047 0.961 . S
H1063 C1047 0.961 . S
H1064 C1048 0.931 . S
H1065 C1053 0.930 . S
H1066 C1054 0.956 . S
H1067 C1054 0.961 . S
H1068 C1054 0.961 . S
H1069 C1055 0.958 . S
H1070 C1055 0.961 . S
H1071 C1055 0.960 . S
C1072 C1073 1.391 . S
C1072 C1074 1.394 1_545 S
C1072 H1088 0.934 . S
C1073 C1072 1.391 . S
C1073 C1077 1.376 . S
C1074 C1072 1.394 1_565 S
C1074 C1075 1.369 . S
C1074 C1078 1.531 . S
C1075 C1074 1.369 . S
C1075 C1076 1.410 1_565 S
C1075 C1083 1.503 1_554 S
C1076 C1075 1.410 1_545 S
C1076 C1077 1.392 . S
C1076 C1079 1.511 . S
C1077 C1073 1.376 . S
C1077 C1076 1.392 . S
C1077 H1089 0.929 . S
C1078 C1074 1.531 . S
C1078 H1090 0.960 . S
C1078 H1091 0.962 . S
C1078 H1092 0.960 . S
C1079 C1076 1.511 . S
C1079 H1093 0.961 . S
C1079 H1094 0.961 1_554 S
C1079 H1095 0.961 . S
C1080 C1081 1.370 1_545 S
C1080 C1082 1.363 . S
C1080 H1096 0.931 . S
C1081 C1080 1.370 1_565 S
C1081 C1085 1.408 . S
C1082 C1080 1.363 . S
C1082 C1083 1.370 1_545 S
C1082 C1086 1.524 . S
C1083 C1075 1.503 1_556 S
C1083 C1082 1.370 1_565 S
C1083 C1084 1.403 . S
C1084 C1083 1.403 . S
C1084 C1085 1.404 . S
C1084 C1087 1.539 . S
C1085 C1081 1.408 . S
C1085 C1084 1.404 . S
C1085 H1097 0.930 . S
C1086 C1082 1.524 . S
C1086 H1098 0.956 . S
C1086 H1099 0.961 . S
C1086 H1100 0.961 . S
C1087 C1084 1.539 . S
C1087 H1101 0.958 1_556 S
C1087 H1102 0.961 . S
C1087 H1103 0.960 1_556 S
H1088 C1072 0.934 . S
H1089 C1077 0.929 . S
H1090 C1078 0.960 . S
H1091 C1078 0.962 . S
H1092 C1078 0.960 . S
H1093 C1079 0.961 . S
H1094 C1079 0.961 1_556 S
H1095 C1079 0.961 . S
H1096 C1080 0.931 . S
H1097 C1085 0.930 . S
H1098 C1086 0.956 . S
H1099 C1086 0.961 . S
H1100 C1086 0.961 . S
H1101 C1087 0.958 1_554 S
H1102 C1087 0.961 . S
H1103 C1087 0.960 1_554 S
C1104 C1105 1.391 . S
C1104 C1106 1.394 . S
C1104 H1120 0.931 . S
C1105 C1104 1.391 . S
C1105 C1109 1.376 . S
C1106 C1104 1.394 . S
C1106 C1107 1.369 . S
C1106 C1110 1.531 . S
C1107 C1106 1.369 . S
C1107 C1108 1.410 . S
C1107 C1115 1.503 . S
C1108 C1107 1.410 . S
C1108 C1109 1.392 . S
C1108 C1111 1.511 . S
C1109 C1105 1.376 . S
C1109 C1108 1.392 . S
C1109 H1121 0.929 . S
C1110 C1106 1.531 . S
C1110 H1122 0.960 . S
C1110 H1123 0.962 . S
C1110 H1124 0.960 . S
C1111 C1108 1.511 . S
C1111 H1125 0.961 . S
C1111 H1126 0.961 . S
C1111 H1127 0.961 . S
C1112 C1113 1.370 . S
C1112 C1114 1.363 . S
C1112 H1128 0.931 . S
C1113 C1112 1.370 . S
C1113 C1117 1.408 . S
C1114 C1112 1.363 . S
C1114 C1115 1.370 . S
C1114 C1118 1.524 . S
C1115 C1107 1.503 . S
C1115 C1114 1.370 . S
C1115 C1116 1.403 . S
C1116 C1115 1.403 . S
C1116 C1117 1.404 . S
C1116 C1119 1.539 . S
C1117 C1113 1.408 . S
C1117 C1116 1.404 . S
C1117 H1129 0.930 . S
C1118 C1114 1.524 . S
C1118 H1130 0.956 . S
C1118 H1131 0.961 . S
C1118 H1132 0.961 . S
C1119 C1116 1.539 . S
C1119 H1133 0.958 . S
C1119 H1134 0.961 . S
C1119 H1135 0.960 . S
H1120 C1104 0.931 . S
H1121 C1109 0.929 . S
H1122 C1110 0.960 . S
H1123 C1110 0.962 . S
H1124 C1110 0.960 . S
H1125 C1111 0.961 . S
H1126 C1111 0.961 . S
H1127 C1111 0.961 . S
H1128 C1112 0.931 . S
H1129 C1117 0.930 . S
H1130 C1118 0.956 . S
H1131 C1118 0.961 . S
H1132 C1118 0.961 . S
H1133 C1119 0.958 . S
H1134 C1119 0.961 . S
H1135 C1119 0.960 . S
C1136 C1137 1.391 . S
C1136 C1138 1.394 . S
C1136 H1152 0.931 . S
C1137 C1136 1.391 . S
C1137 C1141 1.376 1_455 S
C1138 C1136 1.394 . S
C1138 C1139 1.369 . S
C1138 C1142 1.531 . S
C1139 C1138 1.369 . S
C1139 C1140 1.410 1_455 S
C1139 C1147 1.503 1_455 S
C1140 C1139 1.410 1_655 S
C1140 C1141 1.392 . S
C1140 C1143 1.511 . S
C1141 C1137 1.376 1_655 S
C1141 C1140 1.392 . S
C1141 H1153 0.929 . S
C1142 C1138 1.531 . S
C1142 H1154 0.960 . S
C1142 H1155 0.962 . S
C1142 H1156 0.960 . S
C1143 C1140 1.511 . S
C1143 H1157 0.961 . S
C1143 H1158 0.961 . S
C1143 H1159 0.961 . S
C1144 C1145 1.370 . S
C1144 C1146 1.363 . S
C1144 H1160 0.931 . S
C1145 C1144 1.370 . S
C1145 C1149 1.408 . S
C1146 C1144 1.363 . S
C1146 C1147 1.370 . S
C1146 C1150 1.524 . S
C1147 C1139 1.503 1_655 S
C1147 C1146 1.370 . S
C1147 C1148 1.403 . S
C1148 C1147 1.403 . S
C1148 C1149 1.404 . S
C1148 C1151 1.539 . S
C1149 C1145 1.408 . S
C1149 C1148 1.404 . S
C1149 H1161 0.930 . S
C1150 C1146 1.524 . S
C1150 H1162 0.956 1_655 S
C1150 H1163 0.961 . S
C1150 H1164 0.961 . S
C1151 C1148 1.539 . S
C1151 H1165 0.958 1_655 S
C1151 H1166 0.961 . S
C1151 H1167 0.960 . S
H1152 C1136 0.931 . S
H1153 C1141 0.929 . S
H1154 C1142 0.960 . S
H1155 C1142 0.962 . S
H1156 C1142 0.960 . S
H1157 C1143 0.961 . S
H1158 C1143 0.961 . S
H1159 C1143 0.961 . S
H1160 C1144 0.931 . S
H1161 C1149 0.930 . S
H1162 C1150 0.956 1_455 S
H1163 C1150 0.961 . S
H1164 C1150 0.961 . S
H1165 C1151 0.958 1_455 S
H1166 C1151 0.961 . S
H1167 C1151 0.960 . S
C1168 C1169 1.391 . S
C1168 C1170 1.394 . S
C1168 H1184 0.931 . S
C1169 C1168 1.391 . S
C1169 C1173 1.376 . S
C1170 C1168 1.394 . S
C1170 C1171 1.369 . S
C1170 C1174 1.531 . S
C1171 C1170 1.369 . S
C1171 C1172 1.410 . S
C1171 C1179 1.495 1_564 S
C1172 C1171 1.410 . S
C1172 C1173 1.392 . S
C1172 C1175 1.511 1_565 S
C1173 C1169 1.376 . S
C1173 C1172 1.392 . S
C1173 H1185 0.929 . S
C1174 C1170 1.531 . S
C1174 H1186 0.960 1_554 S
C1174 H1187 0.962 . S
C1174 H1188 0.960 . S
C1175 C1172 1.511 1_545 S
C1175 H1189 0.961 . S
C1175 H1190 0.961 . S
C1175 H1191 0.961 . S
C1176 C1177 1.370 . S
C1176 C1178 1.363 . S
C1176 H1192 0.931 . S
C1177 C1176 1.370 . S
C1177 C1181 1.408 1_545 S
C1178 C1176 1.363 . S
C1178 C1179 1.385 . S
C1178 C1182 1.494 1_556 S
C1179 C1171 1.495 1_546 S
C1179 C1178 1.385 . S
C1179 C1180 1.396 1_545 S
C1180 C1179 1.396 1_565 S
C1180 C1181 1.404 . S
C1180 C1183 1.539 . S
C1181 C1177 1.408 1_565 S
C1181 C1180 1.404 . S
C1181 H1193 0.930 . S
C1182 C1178 1.494 1_554 S
C1182 H1194 0.973 . S
C1182 H1195 0.992 . S
C1182 H1196 0.946 1_554 S
C1183 C1180 1.539 . S
C1183 H1197 0.958 . S
C1183 H1198 0.961 . S
C1183 H1199 0.960 . S
H1184 C1168 0.931 . S
H1185 C1173 0.929 . S
H1186 C1174 0.960 1_556 S
H1187 C1174 0.962 . S
H1188 C1174 0.960 . S
H1189 C1175 0.961 . S
H1190 C1175 0.961 . S
H1191 C1175 0.961 . S
H1192 C1176 0.931 . S
H1193 C1181 0.930 . S
H1194 C1182 0.973 . S
H1195 C1182 0.992 . S
H1196 C1182 0.946 1_556 S
H1197 C1183 0.958 . S
H1198 C1183 0.961 . S
H1199 C1183 0.960 . S
C433 C399 1.615 . S
C441 C3 1.609 . S
C465 C39 1.613 . S
C473 C219 1.607 . S
C497 C75 1.609 . S
C505 C255 1.611 . S
C529 C111 1.597 . S
C537 C291 1.609 . S
C561 C327 1.590 . S
C569 C147 1.605 . S
C593 C183 1.596 . S
C601 C363 1.601 . S
C625 C112 1.208 . S
C633 C4 1.207 . S
C657 C148 1.238 . S
C665 C40 1.209 . S
C689 C184 1.235 . S
C697 C76 1.211 . S
C721 C220 1.184 . S
C729 C328 1.218 . S
C753 C256 1.189 . S
C761 C364 1.227 . S
C785 C292 1.189 . S
C793 C400 1.227 . S
C817 C290 0.510 . S
C825 C2 0.498 . S
C849 C38 0.475 . S
C857 C326 0.483 . S
C881 C362 0.479 . S
C889 C74 0.483 . S
C913 C398 0.493 . S
C921 C110 0.486 . S
C945 C218 0.512 . S
C953 C146 0.496 . S
C977 C182 0.508 . S
C985 C254 0.494 . S
C1009 C338 1.505 . S
C1017 C14 1.513 . S
C1041 C50 1.537 . S
C1049 C374 1.493 . S
C1073 C410 1.453 . S
C1081 C86 1.506 . S
C1105 C122 1.458 . S
C1113 C230 1.512 . S
C1137 C158 1.518 . S
C1145 C266 1.510 . S
C1169 C302 1.537 . S
C1177 C194 1.493 . S
