# Generated by pormake.
# Topology wna, (6)-cn, num edge types: 1
# Building blocks:
#     Node 0, Type 0, BuildingBlock: BETDEL_clean_sbu_0, # of connection points: 6
#     Node 1, Type 0, BuildingBlock: BETDEL_clean_sbu_0, # of connection points: 6
#     Node 2, Type 0, BuildingBlock: BETDEL_clean_sbu_0, # of connection points: 6
#     Node 3, Type 0, BuildingBlock: BETDEL_clean_sbu_0, # of connection points: 6
#     Node 4, Type 0, BuildingBlock: BETDEL_clean_sbu_0, # of connection points: 6
#     Node 5, Type 0, BuildingBlock: BETDEL_clean_sbu_0, # of connection points: 6
#     Node 6, Type 0, BuildingBlock: BETDEL_clean_sbu_0, # of connection points: 6
#     Node 7, Type 0, BuildingBlock: BETDEL_clean_sbu_0, # of connection points: 6
#     Node 8, Type 0, BuildingBlock: BETDEL_clean_sbu_0, # of connection points: 6
#     Node 9, Type 0, BuildingBlock: BETDEL_clean_sbu_0, # of connection points: 6
#     Node 10, Type 0, BuildingBlock: BETDEL_clean_sbu_0, # of connection points: 6
#     Node 11, Type 0, BuildingBlock: BETDEL_clean_sbu_0, # of connection points: 6
#     Node 12, Type 0, BuildingBlock: BETDEL_clean_sbu_0, # of connection points: 6
#     Node 13, Type 0, BuildingBlock: BETDEL_clean_sbu_0, # of connection points: 6
#     Node 14, Type 0, BuildingBlock: BETDEL_clean_sbu_0, # of connection points: 6
#     Node 15, Type 0, BuildingBlock: BETDEL_clean_sbu_0, # of connection points: 6
#     Node 16, Type 0, BuildingBlock: BETDEL_clean_sbu_0, # of connection points: 6
#     Node 17, Type 0, BuildingBlock: BETDEL_clean_sbu_0, # of connection points: 6
#     Node 18, Type 0, BuildingBlock: BETDEL_clean_sbu_0, # of connection points: 6
#     Node 19, Type 0, BuildingBlock: BETDEL_clean_sbu_0, # of connection points: 6
#     Node 20, Type 0, BuildingBlock: BETDEL_clean_sbu_0, # of connection points: 6
#     Node 21, Type 0, BuildingBlock: BETDEL_clean_sbu_0, # of connection points: 6
#     Node 22, Type 0, BuildingBlock: BETDEL_clean_sbu_0, # of connection points: 6
#     Node 23, Type 0, BuildingBlock: BETDEL_clean_sbu_0, # of connection points: 6
#     Node 24, Type 0, BuildingBlock: BETDEL_clean_sbu_0, # of connection points: 6
#     Node 25, Type 0, BuildingBlock: BETDEL_clean_sbu_0, # of connection points: 6
#     Node 26, Type 0, BuildingBlock: BETDEL_clean_sbu_0, # of connection points: 6
#     Node 27, Type 0, BuildingBlock: BETDEL_clean_sbu_0, # of connection points: 6
#     Node 28, Type 0, BuildingBlock: BETDEL_clean_sbu_0, # of connection points: 6
#     Node 29, Type 0, BuildingBlock: BETDEL_clean_sbu_0, # of connection points: 6
#     Node 30, Type 0, BuildingBlock: BETDEL_clean_sbu_0, # of connection points: 6
#     Node 31, Type 0, BuildingBlock: BETDEL_clean_sbu_0, # of connection points: 6
#     Node 32, Type 0, BuildingBlock: BETDEL_clean_sbu_0, # of connection points: 6
#     Node 33, Type 0, BuildingBlock: BETDEL_clean_sbu_0, # of connection points: 6
#     Node 34, Type 0, BuildingBlock: BETDEL_clean_sbu_0, # of connection points: 6
#     Node 35, Type 0, BuildingBlock: BETDEL_clean_sbu_0, # of connection points: 6
#     Edge 36, Type (0, 0), BuildingBlock: XIVTED_clean_linker_0, # of connection points: 2
#     Edge 37, Type (0, 0), BuildingBlock: XIVTED_clean_linker_0, # of connection points: 2
#     Edge 38, Type (0, 0), BuildingBlock: XIVTED_clean_linker_0, # of connection points: 2
#     Edge 39, Type (0, 0), BuildingBlock: XIVTED_clean_linker_0, # of connection points: 2
#     Edge 40, Type (0, 0), BuildingBlock: XIVTED_clean_linker_0, # of connection points: 2
#     Edge 41, Type (0, 0), BuildingBlock: XIVTED_clean_linker_0, # of connection points: 2
#     Edge 42, Type (0, 0), BuildingBlock: XIVTED_clean_linker_0, # of connection points: 2
#     Edge 43, Type (0, 0), BuildingBlock: XIVTED_clean_linker_0, # of connection points: 2
#     Edge 44, Type (0, 0), BuildingBlock: XIVTED_clean_linker_0, # of connection points: 2
#     Edge 45, Type (0, 0), BuildingBlock: XIVTED_clean_linker_0, # of connection points: 2
#     Edge 46, Type (0, 0), BuildingBlock: XIVTED_clean_linker_0, # of connection points: 2
#     Edge 47, Type (0, 0), BuildingBlock: XIVTED_clean_linker_0, # of connection points: 2
#     Edge 48, Type (0, 0), BuildingBlock: XIVTED_clean_linker_0, # of connection points: 2
#     Edge 49, Type (0, 0), BuildingBlock: XIVTED_clean_linker_0, # of connection points: 2
#     Edge 50, Type (0, 0), BuildingBlock: XIVTED_clean_linker_0, # of connection points: 2
#     Edge 51, Type (0, 0), BuildingBlock: XIVTED_clean_linker_0, # of connection points: 2
#     Edge 52, Type (0, 0), BuildingBlock: XIVTED_clean_linker_0, # of connection points: 2
#     Edge 53, Type (0, 0), BuildingBlock: XIVTED_clean_linker_0, # of connection points: 2
#     Edge 54, Type (0, 0), BuildingBlock: XIVTED_clean_linker_0, # of connection points: 2
#     Edge 55, Type (0, 0), BuildingBlock: XIVTED_clean_linker_0, # of connection points: 2
#     Edge 56, Type (0, 0), BuildingBlock: XIVTED_clean_linker_0, # of connection points: 2
#     Edge 57, Type (0, 0), BuildingBlock: XIVTED_clean_linker_0, # of connection points: 2
#     Edge 58, Type (0, 0), BuildingBlock: XIVTED_clean_linker_0, # of connection points: 2
#     Edge 59, Type (0, 0), BuildingBlock: XIVTED_clean_linker_0, # of connection points: 2
#     Edge 60, Type (0, 0), BuildingBlock: XIVTED_clean_linker_0, # of connection points: 2
#     Edge 61, Type (0, 0), BuildingBlock: XIVTED_clean_linker_0, # of connection points: 2
#     Edge 62, Type (0, 0), BuildingBlock: XIVTED_clean_linker_0, # of connection points: 2
#     Edge 63, Type (0, 0), BuildingBlock: XIVTED_clean_linker_0, # of connection points: 2
#     Edge 64, Type (0, 0), BuildingBlock: XIVTED_clean_linker_0, # of connection points: 2
#     Edge 65, Type (0, 0), BuildingBlock: XIVTED_clean_linker_0, # of connection points: 2
#     Edge 66, Type (0, 0), BuildingBlock: XIVTED_clean_linker_0, # of connection points: 2
#     Edge 67, Type (0, 0), BuildingBlock: XIVTED_clean_linker_0, # of connection points: 2
#     Edge 68, Type (0, 0), BuildingBlock: XIVTED_clean_linker_0, # of connection points: 2
#     Edge 69, Type (0, 0), BuildingBlock: XIVTED_clean_linker_0, # of connection points: 2
#     Edge 70, Type (0, 0), BuildingBlock: XIVTED_clean_linker_0, # of connection points: 2
#     Edge 71, Type (0, 0), BuildingBlock: XIVTED_clean_linker_0, # of connection points: 2
#     Edge 72, Type (0, 0), BuildingBlock: XIVTED_clean_linker_0, # of connection points: 2
#     Edge 73, Type (0, 0), BuildingBlock: XIVTED_clean_linker_0, # of connection points: 2
#     Edge 74, Type (0, 0), BuildingBlock: XIVTED_clean_linker_0, # of connection points: 2
#     Edge 75, Type (0, 0), BuildingBlock: XIVTED_clean_linker_0, # of connection points: 2
#     Edge 76, Type (0, 0), BuildingBlock: XIVTED_clean_linker_0, # of connection points: 2
#     Edge 77, Type (0, 0), BuildingBlock: XIVTED_clean_linker_0, # of connection points: 2
#     Edge 78, Type (0, 0), BuildingBlock: XIVTED_clean_linker_0, # of connection points: 2
#     Edge 79, Type (0, 0), BuildingBlock: XIVTED_clean_linker_0, # of connection points: 2
#     Edge 80, Type (0, 0), BuildingBlock: XIVTED_clean_linker_0, # of connection points: 2
#     Edge 81, Type (0, 0), BuildingBlock: XIVTED_clean_linker_0, # of connection points: 2
#     Edge 82, Type (0, 0), BuildingBlock: XIVTED_clean_linker_0, # of connection points: 2
#     Edge 83, Type (0, 0), BuildingBlock: XIVTED_clean_linker_0, # of connection points: 2
#     Edge 84, Type (0, 0), BuildingBlock: XIVTED_clean_linker_0, # of connection points: 2
#     Edge 85, Type (0, 0), BuildingBlock: XIVTED_clean_linker_0, # of connection points: 2
#     Edge 86, Type (0, 0), BuildingBlock: XIVTED_clean_linker_0, # of connection points: 2
#     Edge 87, Type (0, 0), BuildingBlock: XIVTED_clean_linker_0, # of connection points: 2
#     Edge 88, Type (0, 0), BuildingBlock: XIVTED_clean_linker_0, # of connection points: 2
#     Edge 89, Type (0, 0), BuildingBlock: XIVTED_clean_linker_0, # of connection points: 2
#     Edge 90, Type (0, 0), BuildingBlock: XIVTED_clean_linker_0, # of connection points: 2
#     Edge 91, Type (0, 0), BuildingBlock: XIVTED_clean_linker_0, # of connection points: 2
#     Edge 92, Type (0, 0), BuildingBlock: XIVTED_clean_linker_0, # of connection points: 2
#     Edge 93, Type (0, 0), BuildingBlock: XIVTED_clean_linker_0, # of connection points: 2
#     Edge 94, Type (0, 0), BuildingBlock: XIVTED_clean_linker_0, # of connection points: 2
#     Edge 95, Type (0, 0), BuildingBlock: XIVTED_clean_linker_0, # of connection points: 2
#     Edge 96, Type (0, 0), BuildingBlock: XIVTED_clean_linker_0, # of connection points: 2
#     Edge 97, Type (0, 0), BuildingBlock: XIVTED_clean_linker_0, # of connection points: 2
#     Edge 98, Type (0, 0), BuildingBlock: XIVTED_clean_linker_0, # of connection points: 2
#     Edge 99, Type (0, 0), BuildingBlock: XIVTED_clean_linker_0, # of connection points: 2
#     Edge 100, Type (0, 0), BuildingBlock: XIVTED_clean_linker_0, # of connection points: 2
#     Edge 101, Type (0, 0), BuildingBlock: XIVTED_clean_linker_0, # of connection points: 2
#     Edge 102, Type (0, 0), BuildingBlock: XIVTED_clean_linker_0, # of connection points: 2
#     Edge 103, Type (0, 0), BuildingBlock: XIVTED_clean_linker_0, # of connection points: 2
#     Edge 104, Type (0, 0), BuildingBlock: XIVTED_clean_linker_0, # of connection points: 2
#     Edge 105, Type (0, 0), BuildingBlock: XIVTED_clean_linker_0, # of connection points: 2
#     Edge 106, Type (0, 0), BuildingBlock: XIVTED_clean_linker_0, # of connection points: 2
#     Edge 107, Type (0, 0), BuildingBlock: XIVTED_clean_linker_0, # of connection points: 2
#     Edge 108, Type (0, 0), BuildingBlock: XIVTED_clean_linker_0, # of connection points: 2
#     Edge 109, Type (0, 0), BuildingBlock: XIVTED_clean_linker_0, # of connection points: 2
#     Edge 110, Type (0, 0), BuildingBlock: XIVTED_clean_linker_0, # of connection points: 2
#     Edge 111, Type (0, 0), BuildingBlock: XIVTED_clean_linker_0, # of connection points: 2
#     Edge 112, Type (0, 0), BuildingBlock: XIVTED_clean_linker_0, # of connection points: 2
#     Edge 113, Type (0, 0), BuildingBlock: XIVTED_clean_linker_0, # of connection points: 2
#     Edge 114, Type (0, 0), BuildingBlock: XIVTED_clean_linker_0, # of connection points: 2
#     Edge 115, Type (0, 0), BuildingBlock: XIVTED_clean_linker_0, # of connection points: 2
#     Edge 116, Type (0, 0), BuildingBlock: XIVTED_clean_linker_0, # of connection points: 2
#     Edge 117, Type (0, 0), BuildingBlock: XIVTED_clean_linker_0, # of connection points: 2
#     Edge 118, Type (0, 0), BuildingBlock: XIVTED_clean_linker_0, # of connection points: 2
#     Edge 119, Type (0, 0), BuildingBlock: XIVTED_clean_linker_0, # of connection points: 2
#     Edge 120, Type (0, 0), BuildingBlock: XIVTED_clean_linker_0, # of connection points: 2
#     Edge 121, Type (0, 0), BuildingBlock: XIVTED_clean_linker_0, # of connection points: 2
#     Edge 122, Type (0, 0), BuildingBlock: XIVTED_clean_linker_0, # of connection points: 2
#     Edge 123, Type (0, 0), BuildingBlock: XIVTED_clean_linker_0, # of connection points: 2
#     Edge 124, Type (0, 0), BuildingBlock: XIVTED_clean_linker_0, # of connection points: 2
#     Edge 125, Type (0, 0), BuildingBlock: XIVTED_clean_linker_0, # of connection points: 2
#     Edge 126, Type (0, 0), BuildingBlock: XIVTED_clean_linker_0, # of connection points: 2
#     Edge 127, Type (0, 0), BuildingBlock: XIVTED_clean_linker_0, # of connection points: 2
#     Edge 128, Type (0, 0), BuildingBlock: XIVTED_clean_linker_0, # of connection points: 2
#     Edge 129, Type (0, 0), BuildingBlock: XIVTED_clean_linker_0, # of connection points: 2
#     Edge 130, Type (0, 0), BuildingBlock: XIVTED_clean_linker_0, # of connection points: 2
#     Edge 131, Type (0, 0), BuildingBlock: XIVTED_clean_linker_0, # of connection points: 2
#     Edge 132, Type (0, 0), BuildingBlock: XIVTED_clean_linker_0, # of connection points: 2
#     Edge 133, Type (0, 0), BuildingBlock: XIVTED_clean_linker_0, # of connection points: 2
#     Edge 134, Type (0, 0), BuildingBlock: XIVTED_clean_linker_0, # of connection points: 2
#     Edge 135, Type (0, 0), BuildingBlock: XIVTED_clean_linker_0, # of connection points: 2
#     Edge 136, Type (0, 0), BuildingBlock: XIVTED_clean_linker_0, # of connection points: 2
#     Edge 137, Type (0, 0), BuildingBlock: XIVTED_clean_linker_0, # of connection points: 2
#     Edge 138, Type (0, 0), BuildingBlock: XIVTED_clean_linker_0, # of connection points: 2
#     Edge 139, Type (0, 0), BuildingBlock: XIVTED_clean_linker_0, # of connection points: 2
#     Edge 140, Type (0, 0), BuildingBlock: XIVTED_clean_linker_0, # of connection points: 2
#     Edge 141, Type (0, 0), BuildingBlock: XIVTED_clean_linker_0, # of connection points: 2
#     Edge 142, Type (0, 0), BuildingBlock: XIVTED_clean_linker_0, # of connection points: 2
#     Edge 143, Type (0, 0), BuildingBlock: XIVTED_clean_linker_0, # of connection points: 2
# Relax obj value: 0.167
# Max RMSD: 0.207
# Mean RMSD: 0.200
data_MOF--net-wna--node1-BETDEL_clean_sbu_0--edge1-XIVTED_clean_linker_0
_symmetry_space_group_name_H-M    P1
_symmetry_Int_Tables_number       1
_symmetry_cell_setting            triclinic
loop_
_symmetry_equiv_pos_as_xyz
'x, y, z'
_cell_length_a     40.028207
_cell_length_b     40.014924
_cell_length_c     103.71975
_cell_angle_alpha  89.973725
_cell_angle_beta   90.056769
_cell_angle_gamma 120.03815
loop_
_atom_site_label
_atom_site_type_symbol
_atom_site_fract_x
_atom_site_fract_y
_atom_site_fract_z
_atom_type_partial_charge
Dy0 Dy 0.072 0.24582 0.15928 0.0
C1 C 0.05964 0.20495 0.21272 0.0
C2 C 0.07745 0.27719 0.13534 0.0
Dy3 Dy 0.07182 0.23195 0.18784 0.0
O4 O 0.07023 0.24235 0.13761 0.0
O5 O 0.08162 0.29513 0.14618 0.0
O6 O 0.06576 0.18899 0.15444 0.0
O7 O 0.09617 0.21734 0.17122 0.0
C8 C 0.08277 0.18648 0.16474 0.0
C9 C 0.0598 0.29004 0.18123 0.0
O10 O 0.13522 0.26176 0.18456 0.0
O11 O 0.13328 0.28936 0.16516 0.0
O12 O 0.08447 0.23983 0.20916 0.0
O13 O 0.04242 0.18441 0.20261 0.0
O14 O 0.07764 0.28994 0.1916 0.0
O15 O 0.04633 0.25807 0.17562 0.0
O16 O 0.00877 0.20461 0.16185 0.0
O17 O 0.01539 0.18225 0.18177 0.0
C18 C 0.15273 0.28744 0.17527 0.0
C19 C 0.99487 0.1792 0.1714 0.0
Dy20 Dy 0.74943 0.83033 0.15984 0.0
C21 C 0.79074 0.85472 0.21304 0.0
C22 C 0.71996 0.81131 0.13537 0.0
Dy23 Dy 0.76265 0.8408 0.18834 0.0
O24 O 0.73597 0.84549 0.14042 0.0
O25 O 0.71987 0.78701 0.14372 0.0
O26 O 0.80721 0.88094 0.15572 0.0
O27 O 0.77753 0.88164 0.17234 0.0
C28 C 0.80873 0.89982 0.1661 0.0
C29 C 0.70376 0.77148 0.18137 0.0
O30 O 0.73314 0.87464 0.18533 0.0
O31 O 0.70184 0.84051 0.16706 0.0
O32 O 0.75628 0.84679 0.20969 0.0
O33 O 0.81013 0.85623 0.20286 0.0
O34 O 0.70468 0.78873 0.192 0.0
O35 O 0.73564 0.79002 0.17568 0.0
O36 O 0.79524 0.81382 0.16113 0.0
O37 O 0.81307 0.83561 0.18208 0.0
C38 C 0.70537 0.86402 0.17666 0.0
C39 C 0.81883 0.82244 0.17113 0.0
Dy40 Dy 0.16893 0.91968 0.15725 0.0
C41 C 0.15001 0.94862 0.21109 0.0
C42 C 0.20198 0.91974 0.1342 0.0
Dy43 Dy 0.15528 0.92361 0.1871 0.0
O44 O 0.18307 0.93764 0.13652 0.0
O45 O 0.20356 0.90232 0.14459 0.0
O46 O 0.10836 0.89623 0.15002 0.0
O47 O 0.1207 0.9069 0.16963 0.0
C48 C 0.09397 0.89484 0.16137 0.0
C49 C 0.22257 0.92948 0.18001 0.0
O50 O 0.12238 0.86015 0.1844 0.0
O51 O 0.15171 0.86019 0.1649 0.0
O52 O 0.17496 0.96905 0.20232 0.0
O53 O 0.12729 0.91367 0.20682 0.0
O54 O 0.20473 0.91338 0.19063 0.0
O55 O 0.20519 0.94397 0.17422 0.0
O56 O 0.18218 0.981 0.15926 0.0
O57 O 0.15175 0.97315 0.17908 0.0
C58 C 0.12945 0.84194 0.17504 0.0
C59 C 0.16835 0.99341 0.16858 0.0
Dy60 Dy 0.2435 0.07358 0.35392 0.0
C61 C 0.19783 0.0475 0.30125 0.0
C62 C 0.27581 0.08045 0.3778 0.0
Dy63 Dy 0.22869 0.07036 0.32544 0.0
O64 O 0.24004 0.07009 0.37559 0.0
O65 O 0.29415 0.08699 0.36693 0.0
O66 O 0.1874 0.06893 0.35902 0.0
O67 O 0.21434 0.09636 0.3417 0.0
C68 C 0.18411 0.08438 0.34844 0.0
C69 C 0.28873 0.06172 0.3322 0.0
O70 O 0.26139 0.13434 0.32718 0.0
O71 O 0.28573 0.13474 0.34755 0.0
O72 O 0.21727 0.08326 0.30508 0.0
O73 O 0.19533 0.02499 0.31059 0.0
O74 O 0.28762 0.07876 0.32173 0.0
O75 O 0.25681 0.04749 0.33791 0.0
O76 O 0.20244 0.01021 0.35141 0.0
O77 O 0.17572 0.0198 0.33306 0.0
C78 C 0.2852 0.1529 0.33686 0.0
C79 C 0.17466 0.99767 0.34265 0.0
Dy80 Dy 0.91475 0.16902 0.35453 0.0
C81 C 0.94943 0.15967 0.30152 0.0
C82 C 0.91565 0.19668 0.37868 0.0
Dy83 Dy 0.9229 0.16037 0.32576 0.0
O84 O 0.92352 0.16964 0.376 0.0
O85 O 0.90772 0.20892 0.36814 0.0
O86 O 0.87088 0.10699 0.35696 0.0
O87 O 0.91362 0.1232 0.34263 0.0
C88 C 0.88316 0.0953 0.34734 0.0
C89 C 0.92555 0.22608 0.33312 0.0
O90 O 0.85902 0.128 0.32719 0.0
O91 O 0.85844 0.15891 0.34604 0.0
O92 O 0.96535 0.18768 0.30976 0.0
O93 O 0.91799 0.13127 0.30645 0.0
O94 O 0.90904 0.20764 0.32264 0.0
O95 O 0.94104 0.20953 0.33882 0.0
O96 O 0.97519 0.17874 0.35457 0.0
O97 O 0.97643 0.16297 0.33308 0.0
C98 C 0.84041 0.1365 0.33595 0.0
C99 C 0.99235 0.17258 0.34465 0.0
Dy100 Dy 0.82732 0.74746 0.35386 0.0
C101 C 0.83771 0.78937 0.30142 0.0
C102 C 0.80721 0.71622 0.37806 0.0
Dy103 Dy 0.83617 0.76112 0.32553 0.0
O104 O 0.84028 0.72803 0.37255 0.0
O105 O 0.7846 0.7214 0.37033 0.0
O106 O 0.87948 0.80283 0.35868 0.0
O107 O 0.87841 0.77481 0.34129 0.0
C108 C 0.89777 0.80485 0.34811 0.0
C109 C 0.76812 0.70133 0.33288 0.0
O110 O 0.86415 0.72571 0.32627 0.0
O111 O 0.83665 0.69959 0.34607 0.0
O112 O 0.81302 0.7837 0.3104 0.0
O113 O 0.86219 0.77923 0.3055 0.0
O114 O 0.78601 0.7016 0.32246 0.0
O115 O 0.78607 0.73359 0.33843 0.0
O116 O 0.81578 0.7972 0.35272 0.0
O117 O 0.84548 0.81689 0.33293 0.0
C118 C 0.85615 0.70022 0.33557 0.0
C119 C 0.83072 0.8232 0.34334 0.0
Dy120 Dy 0.92585 0.76699 0.82507 0.0
C121 C 0.92351 0.72815 0.87801 0.0
C122 C 0.93726 0.79266 0.80007 0.0
Dy123 Dy 0.92724 0.75639 0.85362 0.0
O124 O 0.91265 0.75789 0.80379 0.0
O125 O 0.95467 0.8137 0.81005 0.0
O126 O 0.91951 0.70874 0.82184 0.0
O127 O 0.95207 0.74175 0.83752 0.0
C128 C 0.93799 0.70929 0.83213 0.0
C129 C 0.91571 0.8149 0.84734 0.0
O130 O 0.99031 0.79833 0.8506 0.0
O131 O 0.98219 0.81791 0.83043 0.0
O132 O 0.92663 0.76118 0.87524 0.0
O133 O 0.92244 0.71029 0.86742 0.0
O134 O 0.93408 0.81417 0.85756 0.0
O135 O 0.90204 0.78312 0.8414 0.0
O136 O 0.86264 0.73772 0.82858 0.0
O137 O 0.86539 0.71216 0.8483 0.0
C138 C 0.00349 0.82266 0.84073 0.0
C139 C 0.84544 0.71309 0.83816 0.0
Dy140 Dy 0.23362 0.16017 0.82595 0.0
C141 C 0.28397 0.20638 0.87887 0.0
C142 C 0.20327 0.15371 0.80187 0.0
Dy143 Dy 0.25115 0.17314 0.85579 0.0
O144 O 0.21645 0.13192 0.80624 0.0
O145 O 0.20684 0.17843 0.8106 0.0
O146 O 0.29242 0.21121 0.8225 0.0
O147 O 0.26184 0.20981 0.83905 0.0
C148 C 0.29354 0.22833 0.83322 0.0
C149 C 0.20318 0.09776 0.85147 0.0
O150 O 0.20165 0.18437 0.85395 0.0
O151 O 0.17982 0.15471 0.83397 0.0
O152 O 0.24713 0.18575 0.87668 0.0
O153 O 0.30302 0.20951 0.86835 0.0
O154 O 0.21601 0.11221 0.86283 0.0
O155 O 0.21684 0.12466 0.84324 0.0
O156 O 0.26622 0.12932 0.82836 0.0
O157 O 0.29503 0.1584 0.84796 0.0
C158 C 0.17555 0.17046 0.84457 0.0
C159 C 0.29183 0.13696 0.83767 0.0
Dy160 Dy 0.83704 0.07322 0.82563 0.0
C161 C 0.81006 0.09155 0.87828 0.0
C162 C 0.83922 0.0478 0.80133 0.0
Dy163 Dy 0.82861 0.07928 0.85407 0.0
O164 O 0.81242 0.0297 0.8098 0.0
O165 O 0.86557 0.08081 0.80604 0.0
O166 O 0.78867 0.08523 0.82235 0.0
O167 O 0.78736 0.05335 0.83856 0.0
C168 C 0.7705 0.06855 0.83286 0.0
C169 C 0.89683 0.08648 0.84811 0.0
O170 O 0.8119 0.01684 0.85332 0.0
O171 O 0.83863 0.02193 0.83314 0.0
O172 O 0.84361 0.11118 0.87288 0.0
O173 O 0.7862 0.06497 0.87043 0.0
O174 O 0.87809 0.07116 0.8587 0.0
O175 O 0.87934 0.09961 0.84145 0.0
O176 O 0.86726 0.13718 0.8266 0.0
O177 O 0.84 0.13695 0.84633 0.0
C178 C 0.8231 0.00249 0.84385 0.0
C179 C 0.86007 0.15538 0.8359 0.0
Dy180 Dy 0.76555 0.92488 0.68755 0.0
C181 C 0.7188 0.90691 0.63486 0.0
C182 C 0.79394 0.94 0.71223 0.0
Dy183 Dy 0.75011 0.91935 0.6591 0.0
O184 O 0.75972 0.91291 0.70891 0.0
O185 O 0.81308 0.9581 0.70202 0.0
O186 O 0.70725 0.91766 0.69154 0.0
O187 O 0.73648 0.94632 0.67483 0.0
C188 C 0.70506 0.9329 0.68081 0.0
C189 C 0.81147 0.91233 0.66515 0.0
O190 O 0.79516 0.98201 0.65967 0.0
O191 O 0.81392 0.98126 0.68081 0.0
O192 O 0.73466 0.88872 0.64 0.0
O193 O 0.71982 0.93213 0.64299 0.0
O194 O 0.80834 0.92821 0.65464 0.0
O195 O 0.78057 0.89875 0.6716 0.0
O196 O 0.7375 0.86143 0.68504 0.0
O197 O 0.7041 0.86166 0.66696 0.0
C198 C 0.81867 0.99869 0.66959 0.0
C199 C 0.70909 0.84296 0.67668 0.0
Dy200 Dy 0.07303 0.83684 0.68697 0.0
C201 C 0.09277 0.81117 0.6341 0.0
C202 C 0.04653 0.83746 0.71121 0.0
Dy203 Dy 0.08049 0.82997 0.65831 0.0
O204 O 0.07891 0.86502 0.70653 0.0
O205 O 0.02966 0.81029 0.70275 0.0
O206 O 0.08503 0.78842 0.68997 0.0
O207 O 0.05391 0.78814 0.67365 0.0
C208 C 0.0689 0.77098 0.67929 0.0
C209 C 0.08883 0.89836 0.66488 0.0
O210 O 0.01836 0.81441 0.65879 0.0
O211 O 0.02244 0.83932 0.67925 0.0
O212 O 0.11254 0.84475 0.63951 0.0
O213 O 0.0661 0.78748 0.64195 0.0
O214 O 0.0743 0.88097 0.65401 0.0
O215 O 0.10058 0.87946 0.67139 0.0
O216 O 0.13696 0.86695 0.68632 0.0
O217 O 0.13781 0.84112 0.66637 0.0
C218 C 0.0037 0.825 0.66834 0.0
C219 C 0.15564 0.86049 0.67701 0.0
Dy220 Dy 0.15693 0.23131 0.68772 0.0
C221 C 0.19389 0.27746 0.63524 0.0
C222 C 0.14976 0.20131 0.71199 0.0
Dy223 Dy 0.16851 0.24595 0.65921 0.0
O224 O 0.17204 0.20141 0.70296 0.0
O225 O 0.13074 0.2177 0.70781 0.0
O226 O 0.20753 0.29018 0.69137 0.0
O227 O 0.20787 0.25903 0.67521 0.0
C228 C 0.22567 0.29094 0.68095 0.0
C229 C 0.09798 0.18721 0.66477 0.0
O230 O 0.18952 0.2039 0.6617 0.0
O231 O 0.1532 0.17774 0.68008 0.0
O232 O 0.1673 0.24219 0.63754 0.0
O233 O 0.20689 0.29579 0.64607 0.0
O234 O 0.11663 0.18999 0.65423 0.0
O235 O 0.11665 0.21756 0.67143 0.0
O236 O 0.12727 0.26555 0.68609 0.0
O237 O 0.15044 0.2888 0.66556 0.0
C238 C 0.17375 0.17609 0.67044 0.0
C239 C 0.13243 0.28902 0.67632 0.0
Dy240 Dy 0.74267 0.58053 0.49249 0.0
C241 C 0.71145 0.5445 0.5457 0.0
C242 C 0.75279 0.60972 0.46802 0.0
Dy243 Dy 0.7373 0.56898 0.52115 0.0
O244 O 0.77215 0.59514 0.4732 0.0
O245 O 0.72771 0.60852 0.47623 0.0
O246 O 0.73608 0.52307 0.48861 0.0
O247 O 0.76392 0.55221 0.5057 0.0
C248 C 0.75173 0.52113 0.49936 0.0
C249 C 0.7326 0.63006 0.51288 0.0
O250 O 0.80129 0.60288 0.52007 0.0
O251 O 0.80084 0.62727 0.4998 0.0
O252 O 0.69488 0.55471 0.5371 0.0
O253 O 0.74329 0.54802 0.54099 0.0
O254 O 0.74999 0.62995 0.52341 0.0
O255 O 0.71697 0.5972 0.50769 0.0
O256 O 0.68064 0.53385 0.49357 0.0
O257 O 0.68634 0.51482 0.51413 0.0
C258 C 0.8194 0.62693 0.51041 0.0
C259 C 0.66676 0.50928 0.50334 0.0
Dy260 Dy 0.41859 0.15916 0.49116 0.0
C261 C 0.45532 0.16811 0.54444 0.0
C262 C 0.3875 0.13565 0.46703 0.0
Dy263 Dy 0.43039 0.16755 0.51978 0.0
O264 O 0.42229 0.16311 0.46949 0.0
O265 O 0.36951 0.12082 0.47777 0.0
O266 O 0.47556 0.21036 0.48691 0.0
O267 O 0.44685 0.20982 0.50396 0.0
C268 C 0.47783 0.22838 0.49757 0.0
C269 C 0.36984 0.1009 0.51183 0.0
O270 O 0.39622 0.19732 0.51857 0.0
O271 O 0.37655 0.17844 0.4974 0.0
O272 O 0.44488 0.14061 0.53611 0.0
O273 O 0.45186 0.19609 0.53939 0.0
O274 O 0.36953 0.11927 0.52207 0.0
O275 O 0.40277 0.1179 0.50669 0.0
O276 O 0.46036 0.13771 0.4935 0.0
O277 O 0.48403 0.17015 0.51271 0.0
C278 C 0.3748 0.19459 0.50842 0.0
C279 C 0.48694 0.15156 0.50268 0.0
Dy280 Dy 0.83727 0.25668 0.49223 0.0
C281 C 0.82694 0.28583 0.54498 0.0
C282 C 0.8623 0.25028 0.46827 0.0
Dy283 Dy 0.82788 0.25998 0.52066 0.0
O284 O 0.83592 0.25921 0.47057 0.0
O285 O 0.87523 0.24482 0.47909 0.0
O286 O 0.78453 0.25939 0.48756 0.0
O287 O 0.78614 0.23267 0.5048 0.0
C288 C 0.76667 0.2436 0.49822 0.0
C289 C 0.89561 0.26805 0.51318 0.0
O290 O 0.79973 0.19611 0.51965 0.0
O291 O 0.81946 0.1957 0.49858 0.0
O292 O 0.85332 0.30368 0.53636 0.0
O293 O 0.80029 0.2527 0.54043 0.0
O294 O 0.87706 0.24915 0.52336 0.0
O295 O 0.8782 0.28328 0.50782 0.0
O296 O 0.857 0.31964 0.49455 0.0
O297 O 0.82258 0.30927 0.51335 0.0
C298 C 0.8034 0.17768 0.50961 0.0
C299 C 0.8417 0.33143 0.50352 0.0
Dy300 Dy 0.91513 0.41397 0.68721 0.0
C301 C 0.87134 0.39278 0.63415 0.0
C302 C 0.94639 0.42631 0.71143 0.0
Dy303 Dy 0.8999 0.408 0.6588 0.0
O304 O 0.93229 0.44583 0.70606 0.0
O305 O 0.94359 0.39978 0.70355 0.0
O306 O 0.85826 0.40853 0.69159 0.0
O307 O 0.88667 0.43631 0.67447 0.0
C308 C 0.85605 0.42447 0.68096 0.0
C309 C 0.95878 0.39767 0.66577 0.0
O310 O 0.93069 0.47172 0.66105 0.0
O311 O 0.96312 0.47023 0.6792 0.0
O312 O 0.90618 0.41868 0.63737 0.0
O313 O 0.85173 0.376 0.64444 0.0
O314 O 0.95728 0.41292 0.65496 0.0
O315 O 0.92736 0.38523 0.67169 0.0
O316 O 0.86804 0.35209 0.68693 0.0
O317 O 0.84999 0.35286 0.66571 0.0
C318 C 0.95935 0.48937 0.66938 0.0
C319 C 0.84436 0.33574 0.67704 0.0
Dy320 Dy 0.58891 0.50252 0.6884 0.0
C321 C 0.60251 0.47776 0.63481 0.0
C322 C 0.58339 0.52648 0.71269 0.0
Dy323 Dy 0.58957 0.49089 0.6598 0.0
O324 O 0.58918 0.49813 0.71004 0.0
O325 O 0.58065 0.54202 0.70203 0.0
O326 O 0.59393 0.45068 0.69264 0.0
O327 O 0.56417 0.45079 0.67601 0.0
C328 C 0.57673 0.43215 0.68221 0.0
C329 C 0.6013 0.56051 0.66684 0.0
O330 O 0.52603 0.45755 0.66291 0.0
O331 O 0.52804 0.48618 0.6825 0.0
O332 O 0.5786 0.48892 0.63841 0.0
O333 O 0.61829 0.47233 0.64492 0.0
O334 O 0.58344 0.54281 0.65644 0.0
O335 O 0.61505 0.54203 0.67234 0.0
O336 O 0.65206 0.52411 0.686 0.0
O337 O 0.64581 0.49697 0.6658 0.0
C338 C 0.50858 0.46549 0.67228 0.0
C339 C 0.66609 0.51331 0.67632 0.0
Dy340 Dy 0.49469 0.0859 0.68757 0.0
C341 C 0.51827 0.12441 0.63395 0.0
C342 C 0.47001 0.05466 0.71159 0.0
Dy343 Dy 0.50567 0.09845 0.65896 0.0
O344 O 0.49736 0.0896 0.70925 0.0
O345 O 0.45588 0.03661 0.70079 0.0
O346 O 0.54626 0.1427 0.69197 0.0
O347 O 0.54625 0.11363 0.67513 0.0
C348 C 0.56467 0.14469 0.68145 0.0
C349 C 0.43615 0.04046 0.6662 0.0
O350 O 0.53969 0.06886 0.6619 0.0
O351 O 0.5121 0.04224 0.6816 0.0
O352 O 0.50949 0.08997 0.63763 0.0
O353 O 0.52147 0.14509 0.64399 0.0
O354 O 0.45337 0.04026 0.6557 0.0
O355 O 0.45496 0.0727 0.67164 0.0
O356 O 0.47304 0.12747 0.68527 0.0
O357 O 0.50041 0.14894 0.66513 0.0
C358 C 0.53255 0.0437 0.6713 0.0
C359 C 0.48402 0.15262 0.67566 0.0
Dy360 Dy 0.58686 0.0977 0.15892 0.0
C361 C 0.58004 0.05279 0.2114 0.0
C362 C 0.59978 0.1249 0.13408 0.0
Dy363 Dy 0.58571 0.08408 0.18743 0.0
O364 O 0.57538 0.08979 0.13754 0.0
O365 O 0.61615 0.14552 0.14425 0.0
O366 O 0.58199 0.04019 0.15522 0.0
O367 O 0.61253 0.07202 0.17135 0.0
C368 C 0.59961 0.04019 0.16566 0.0
C369 C 0.57387 0.14265 0.18165 0.0
O370 O 0.64887 0.12629 0.18517 0.0
O371 O 0.64268 0.14807 0.16511 0.0
O372 O 0.58647 0.08736 0.2091 0.0
O373 O 0.57671 0.03508 0.20056 0.0
O374 O 0.59077 0.14064 0.19206 0.0
O375 O 0.56117 0.1117 0.17527 0.0
O376 O 0.52326 0.067 0.16182 0.0
O377 O 0.52473 0.03994 0.18138 0.0
C378 C 0.66288 0.15165 0.17561 0.0
C379 C 0.50556 0.04138 0.17111 0.0
Dy380 Dy 0.8966 0.48927 0.15745 0.0
C381 C 0.93861 0.52643 0.2103 0.0
C382 C 0.8692 0.47398 0.13264 0.0
Dy383 Dy 0.90903 0.50188 0.18607 0.0
O384 O 0.90433 0.48478 0.1361 0.0
O385 O 0.84872 0.47023 0.14278 0.0
O386 O 0.95416 0.54166 0.15381 0.0
O387 O 0.92211 0.54076 0.16984 0.0
C388 C 0.95411 0.5594 0.16422 0.0
C389 C 0.85109 0.43108 0.17996 0.0
O390 O 0.86793 0.52388 0.18336 0.0
O391 O 0.84641 0.49536 0.16336 0.0
O392 O 0.90394 0.49897 0.2077 0.0
O393 O 0.95735 0.5408 0.19963 0.0
O394 O 0.85229 0.44966 0.19036 0.0
O395 O 0.88235 0.44991 0.17385 0.0
O396 O 0.92736 0.45658 0.16083 0.0
O397 O 0.95386 0.48588 0.18036 0.0
C398 C 0.84286 0.51251 0.17372 0.0
C399 C 0.95277 0.46496 0.17025 0.0
Dy400 Dy 0.50318 0.40682 0.15912 0.0
C401 C 0.47182 0.41716 0.21212 0.0
C402 C 0.50374 0.38171 0.13463 0.0
Dy403 Dy 0.49483 0.41024 0.18786 0.0
O404 O 0.47576 0.36557 0.14283 0.0
O405 O 0.53221 0.41279 0.1397 0.0
O406 O 0.45429 0.41824 0.15673 0.0
O407 O 0.45378 0.38435 0.17229 0.0
C408 C 0.43629 0.39964 0.16703 0.0
C409 C 0.56435 0.42152 0.18118 0.0
O410 O 0.4732 0.34702 0.18548 0.0
O411 O 0.50593 0.35594 0.16633 0.0
O412 O 0.49869 0.40915 0.2095 0.0
O413 O 0.45732 0.42145 0.20146 0.0
O414 O 0.547 0.40578 0.19192 0.0
O415 O 0.54499 0.43325 0.17497 0.0
O416 O 0.53184 0.47076 0.16031 0.0
O417 O 0.51301 0.47128 0.18152 0.0
C418 C 0.48708 0.33433 0.17632 0.0
C419 C 0.52886 0.48925 0.17046 0.0
Dy420 Dy 0.43272 0.25812 0.02128 0.0
C421 C 0.39149 0.2563 0.96853 0.0
C422 C 0.45951 0.26971 0.04616 0.0
Dy423 Dy 0.4207 0.25968 0.99274 0.0
O424 O 0.42468 0.24482 0.04256 0.0
O425 O 0.48004 0.28724 0.0361 0.0
O426 O 0.37502 0.25263 0.02491 0.0
O427 O 0.40741 0.2848 0.00911 0.0
C428 C 0.37532 0.27122 0.01468 0.0
C429 C 0.47912 0.24763 0.9986 0.0
O430 O 0.46278 0.32268 0.99579 0.0
O431 O 0.48361 0.3142 0.0157 0.0
O432 O 0.42481 0.25984 0.97109 0.0
O433 O 0.37386 0.25461 0.97923 0.0
O434 O 0.47801 0.26585 0.9884 0.0
O435 O 0.44768 0.23424 1.00469 0.0
O436 O 0.4029 0.19486 0.01767 0.0
O437 O 0.37649 0.19792 0.99815 0.0
C438 C 0.48772 0.33566 1.0055 0.0
C439 C 0.37783 0.17781 0.00818 0.0
Dy440 Dy 0.73587 0.16774 0.02095 0.0
C441 C 0.75628 0.14263 0.96827 0.0
C442 C 0.70844 0.16758 0.04514 0.0
Dy443 Dy 0.74397 0.16149 0.99244 0.0
O444 O 0.69165 0.14098 0.03649 0.0
O445 O 0.74126 0.19499 0.04068 0.0
O446 O 0.74817 0.1193 0.02386 0.0
O447 O 0.71719 0.11928 0.00759 0.0
C448 C 0.73213 0.102 0.01316 0.0
C449 C 0.75048 0.2292 0.99883 0.0
O450 O 0.68152 0.14468 0.9928 0.0
O451 O 0.685 0.16963 0.0132 0.0
O452 O 0.77535 0.17654 0.9735 0.0
O453 O 0.73038 0.1187 0.97627 0.0
O454 O 0.73602 0.21122 0.98804 0.0
O455 O 0.76306 0.21116 1.00547 0.0
O456 O 0.79985 0.19878 0.02051 0.0
O457 O 0.80171 0.17392 1.00049 0.0
C458 C 0.66642 0.15498 1.00229 0.0
C459 C 0.8191 0.19317 0.01119 0.0
Dy460 Dy 0.82423 0.56603 0.01993 0.0
C461 C 0.87099 0.6167 0.96711 0.0
C462 C 0.82148 0.53636 0.04386 0.0
Dy463 Dy 0.83757 0.58365 0.99013 0.0
O464 O 0.8479 0.54463 0.03524 0.0
O465 O 0.79576 0.54452 0.03948 0.0
O466 O 0.87343 0.62581 0.02333 0.0
O467 O 0.87411 0.59535 0.00698 0.0
C468 C 0.89148 0.62725 0.0128 0.0
C469 C 0.76244 0.53467 0.99428 0.0
O470 O 0.84945 0.53456 0.992 0.0
O471 O 0.81945 0.51247 0.01189 0.0
O472 O 0.85125 0.57984 0.96935 0.0
O473 O 0.87313 0.63571 0.97756 0.0
O474 O 0.77689 0.54764 0.98293 0.0
O475 O 0.78923 0.54871 1.00254 0.0
O476 O 0.79278 0.59804 0.01765 0.0
O477 O 0.82108 0.62642 0.99789 0.0
C478 C 0.83547 0.50835 1.00134 0.0
C479 C 0.79974 0.62317 0.00823 0.0
Dy480 Dy 0.40856 0.9129 0.82496 0.0
C481 C 0.38085 0.879 0.87838 0.0
C482 C 0.41559 0.94376 0.80084 0.0
Dy483 Dy 0.40575 0.90209 0.85369 0.0
O484 O 0.40741 0.90869 0.80329 0.0
O485 O 0.41992 0.96212 0.81159 0.0
O486 O 0.40398 0.85631 0.82092 0.0
O487 O 0.4317 0.88583 0.83792 0.0
C488 C 0.4198 0.85471 0.83167 0.0
C489 C 0.39931 0.96198 0.84543 0.0
O490 O 0.46961 0.93716 0.85248 0.0
O491 O 0.46983 0.95565 0.83116 0.0
O492 O 0.36657 0.8929 0.87022 0.0
O493 O 0.41001 0.87802 0.87317 0.0
O494 O 0.41864 0.96304 0.8556 0.0
O495 O 0.38321 0.92878 0.84045 0.0
O496 O 0.3454 0.87103 0.82744 0.0
O497 O 0.35441 0.8483 0.84683 0.0
C498 C 0.48794 0.95828 0.84224 0.0
C499 C 0.33277 0.84497 0.83678 0.0
Dy500 Dy 0.08331 0.49738 0.82576 0.0
C501 C 0.12075 0.50256 0.87901 0.0
C502 C 0.05324 0.47859 0.80138 0.0
Dy503 Dy 0.09585 0.50317 0.85443 0.0
O504 O 0.06836 0.51258 0.80656 0.0
O505 O 0.05438 0.45454 0.80954 0.0
O506 O 0.14107 0.54741 0.82174 0.0
O507 O 0.11289 0.54681 0.83898 0.0
C508 C 0.1438 0.5652 0.83251 0.0
C509 C 0.03443 0.43748 0.84612 0.0
O510 O 0.06306 0.53433 0.85357 0.0
O511 O 0.03768 0.51002 0.83336 0.0
O512 O 0.11128 0.47587 0.87042 0.0
O513 O 0.11641 0.53033 0.87425 0.0
O514 O 0.03479 0.45462 0.85676 0.0
O515 O 0.06715 0.45498 0.8409 0.0
O516 O 0.12921 0.48093 0.82664 0.0
O517 O 0.14933 0.50554 0.84717 0.0
C518 C 0.03893 0.52912 0.84402 0.0
C519 C 0.15411 0.49124 0.83632 0.0
Dy520 Dy 0.50422 0.58994 0.82591 0.0
C521 C 0.48498 0.61445 0.87866 0.0
C522 C 0.52967 0.58448 0.80187 0.0
Dy523 Dy 0.49245 0.59227 0.85435 0.0
O524 O 0.50464 0.59515 0.80429 0.0
O525 O 0.54117 0.5769 0.81263 0.0
O526 O 0.45158 0.59245 0.82079 0.0
O527 O 0.45218 0.5656 0.8381 0.0
C528 C 0.4332 0.57677 0.83138 0.0
C529 C 0.56155 0.60204 0.84765 0.0
O530 O 0.46335 0.52835 0.85264 0.0
O531 O 0.48686 0.52903 0.83211 0.0
O532 O 0.4661 0.57909 0.87441 0.0
O533 O 0.50731 0.63692 0.86969 0.0
O534 O 0.54305 0.58412 0.85796 0.0
O535 O 0.5438 0.6163 0.84194 0.0
O536 O 0.52444 0.65286 0.82856 0.0
O537 O 0.48771 0.64169 0.84685 0.0
C538 C 0.46891 0.51043 0.84284 0.0
C539 C 0.50813 0.66431 0.83727 0.0
Dy540 Dy 0.58066 0.74529 0.02137 0.0
C541 C 0.53577 0.71498 0.96859 0.0
C542 C 0.61235 0.7564 0.0455 0.0
Dy543 Dy 0.56517 0.73903 0.99283 0.0
O544 O 0.59986 0.77736 0.04015 0.0
O545 O 0.6077 0.72911 0.03763 0.0
O546 O 0.52447 0.74081 0.02613 0.0
O547 O 0.55167 0.76703 0.00865 0.0
C548 C 0.52152 0.75584 0.01538 0.0
C549 C 0.62607 0.73234 0.99986 0.0
O550 O 0.6 0.80294 0.99399 0.0
O551 O 0.62807 0.80203 0.01344 0.0
O552 O 0.53868 0.69386 0.97747 0.0
O553 O 0.54912 0.75 0.97289 0.0
O554 O 0.62434 0.74829 0.98921 0.0
O555 O 0.59431 0.71821 1.00571 0.0
O556 O 0.53299 0.68358 0.02074 0.0
O557 O 0.51143 0.68935 1.00059 0.0
C558 C 0.62633 0.82071 1.00309 0.0
C559 C 0.50717 0.66987 0.01132 0.0
Dy560 Dy 0.25393 0.83482 0.02033 0.0
C561 C 0.26818 0.81022 0.9669 0.0
C562 C 0.24884 0.85825 0.04475 0.0
Dy563 Dy 0.25539 0.82362 0.99185 0.0
O564 O 0.24883 0.82676 0.04185 0.0
O565 O 0.25146 0.87719 0.03425 0.0
O566 O 0.25942 0.78327 0.02444 0.0
O567 O 0.22899 0.78307 0.00792 0.0
C568 C 0.24152 0.7644 0.01414 0.0
C569 C 0.26823 0.89375 0.99884 0.0
O570 O 0.19179 0.791 0.99469 0.0
O571 O 0.19352 0.81979 0.0142 0.0
O572 O 0.24513 0.82247 0.97047 0.0
O573 O 0.28323 0.80389 0.97703 0.0
O574 O 0.25036 0.87617 0.98842 0.0
O575 O 0.28123 0.87471 1.00442 0.0
O576 O 0.31686 0.85462 0.01832 0.0
O577 O 0.31136 0.82913 0.99788 0.0
C578 C 0.17424 0.79922 1.00394 0.0
C579 C 0.33115 0.84439 0.00856 0.0
Dy580 Dy 0.15784 0.41892 0.02207 0.0
C581 C 0.18232 0.45658 0.96847 0.0
C582 C 0.13285 0.38799 0.04612 0.0
Dy583 Dy 0.16961 0.43096 0.99353 0.0
O584 O 0.16058 0.42272 0.04375 0.0
O585 O 0.11854 0.36995 0.03533 0.0
O586 O 0.2079 0.4767 0.02648 0.0
O587 O 0.20983 0.44769 0.00987 0.0
C588 C 0.22713 0.479 0.01613 0.0
C589 C 0.10048 0.37187 1.00062 0.0
O590 O 0.20528 0.40328 0.99682 0.0
O591 O 0.17747 0.37658 0.01648 0.0
O592 O 0.17294 0.42201 0.97219 0.0
O593 O 0.1861 0.47755 0.97849 0.0
O594 O 0.11858 0.37187 0.99032 0.0
O595 O 0.11835 0.40435 1.00598 0.0
O596 O 0.13524 0.45965 0.01949 0.0
O597 O 0.16213 0.48044 0.99925 0.0
C598 C 0.19866 0.37859 1.00632 0.0
C599 C 0.14559 0.48422 0.00972 0.0
Dy600 Dy 0.26151 0.43223 0.49328 0.0
C601 C 0.25095 0.38735 0.54583 0.0
C602 C 0.28481 0.46129 0.46894 0.0
Dy603 Dy 0.25793 0.41866 0.52176 0.0
O604 O 0.3067 0.4608 0.47802 0.0
O605 O 0.24943 0.44573 0.47309 0.0
O606 O 0.25227 0.3729 0.49 0.0
O607 O 0.28422 0.40443 0.50605 0.0
C608 C 0.2697 0.37227 0.50043 0.0
C609 C 0.24721 0.4778 0.51585 0.0
O610 O 0.32115 0.46088 0.51943 0.0
O611 O 0.31151 0.48602 0.5007 0.0
O612 O 0.25967 0.42259 0.54343 0.0
O613 O 0.24608 0.36897 0.53504 0.0
O614 O 0.26279 0.47507 0.52648 0.0
O615 O 0.23517 0.4472 0.50929 0.0
O616 O 0.19755 0.39885 0.49469 0.0
O617 O 0.19665 0.37638 0.51541 0.0
C618 C 0.33347 0.4882 0.5105 0.0
C619 C 0.17875 0.37599 0.50453 0.0
Dy620 Dy 0.56811 0.82949 0.4918 0.0
C621 C 0.61224 0.85525 0.54478 0.0
C622 C 0.54185 0.82986 0.46743 0.0
Dy623 Dy 0.58169 0.8362 0.52044 0.0
O624 O 0.5516 0.85651 0.47606 0.0
O625 O 0.54673 0.80223 0.47202 0.0
O626 O 0.62865 0.87794 0.48901 0.0
O627 O 0.59737 0.87827 0.50516 0.0
C628 C 0.62969 0.89549 0.49962 0.0
C629 C 0.52181 0.76763 0.51383 0.0
O630 O 0.53484 0.85144 0.51969 0.0
O631 O 0.51454 0.82637 0.49923 0.0
O632 O 0.59845 0.82161 0.53943 0.0
O633 O 0.60953 0.87885 0.53681 0.0
O634 O 0.52439 0.78532 0.52461 0.0
O635 O 0.55258 0.78653 0.50736 0.0
O636 O 0.60198 0.79946 0.49253 0.0
O637 O 0.62791 0.82468 0.51263 0.0
C638 C 0.50976 0.8407 0.51006 0.0
C639 C 0.62676 0.80562 0.50196 0.0
Dy640 Dy 0.16774 0.73643 0.49132 0.0
C641 C 0.14262 0.75543 0.54411 0.0
C642 C 0.17251 0.71309 0.46688 0.0
Dy643 Dy 0.16119 0.74363 0.5198 0.0
O644 O 0.15057 0.69108 0.47603 0.0
O645 O 0.19232 0.74847 0.47103 0.0
O646 O 0.11733 0.74557 0.48818 0.0
O647 O 0.11885 0.71621 0.50462 0.0
C648 C 0.10064 0.73004 0.499 0.0
C649 C 0.22966 0.75188 0.51334 0.0
O650 O 0.14562 0.68145 0.51917 0.0
O651 O 0.17115 0.68613 0.4988 0.0
O652 O 0.17631 0.77484 0.53878 0.0
O653 O 0.11869 0.72937 0.53613 0.0
O654 O 0.21175 0.73685 0.52409 0.0
O655 O 0.21114 0.76405 0.50678 0.0
O656 O 0.19914 0.8004 0.49235 0.0
O657 O 0.17215 0.80114 0.51199 0.0
C658 C 0.15653 0.66703 0.50962 0.0
C659 C 0.19224 0.81915 0.50151 0.0
Dy660 Dy 0.09528 0.59143 0.3522 0.0
C661 C 0.05099 0.5818 0.29941 0.0
C662 C 0.12361 0.61429 0.37662 0.0
Dy663 Dy 0.08171 0.58791 0.32353 0.0
O664 O 0.11058 0.57952 0.37214 0.0
O665 O 0.12101 0.6358 0.36783 0.0
O666 O 0.03614 0.58238 0.35544 0.0
O667 O 0.06775 0.61416 0.33933 0.0
C668 C 0.03557 0.5996 0.34495 0.0
C669 C 0.13957 0.57535 0.32968 0.0
O670 O 0.12449 0.65095 0.32595 0.0
O671 O 0.14934 0.641 0.34471 0.0
O672 O 0.0864 0.59132 0.30188 0.0
O673 O 0.03209 0.57561 0.31015 0.0
O674 O 0.13721 0.59047 0.31889 0.0
O675 O 0.1091 0.5644 0.33617 0.0
O676 O 0.05985 0.52753 0.35079 0.0
O677 O 0.03835 0.52709 0.3299 0.0
C678 C 0.1518 0.66298 0.33488 0.0
C679 C 0.037 0.50913 0.34088 0.0
Dy680 Dy 0.40332 0.50426 0.35395 0.0
C681 C 0.41367 0.47058 0.30128 0.0
C682 C 0.37999 0.50994 0.37828 0.0
Dy683 Dy 0.40718 0.49454 0.32544 0.0
O684 O 0.41535 0.52999 0.37411 0.0
O685 O 0.35815 0.4874 0.36921 0.0
O686 O 0.41122 0.45343 0.35722 0.0
O687 O 0.37985 0.45385 0.34109 0.0
C688 C 0.39376 0.43569 0.34675 0.0
C689 C 0.42091 0.56549 0.33156 0.0
O690 O 0.34425 0.47447 0.32773 0.0
O691 O 0.35456 0.50994 0.3463 0.0
O692 O 0.40386 0.49621 0.3038 0.0
O693 O 0.41988 0.45772 0.31199 0.0
O694 O 0.40539 0.54795 0.32082 0.0
O695 O 0.43131 0.54554 0.33807 0.0
O696 O 0.46728 0.53287 0.35266 0.0
O697 O 0.46763 0.51106 0.33193 0.0
C698 C 0.33245 0.49029 0.33651 0.0
C699 C 0.48567 0.52804 0.34285 0.0
Dy700 Dy 0.4896 0.89809 0.3531 0.0
C701 C 0.5267 0.94164 0.30054 0.0
C702 C 0.47635 0.87184 0.37808 0.0
Dy703 Dy 0.50163 0.91063 0.32457 0.0
O704 O 0.48702 0.90683 0.37448 0.0
O705 O 0.47148 0.8508 0.36798 0.0
O706 O 0.54166 0.9563 0.35653 0.0
O707 O 0.54084 0.92391 0.34064 0.0
C708 C 0.55939 0.95608 0.34616 0.0
C709 C 0.43144 0.85171 0.33049 0.0
O710 O 0.52384 0.86958 0.32711 0.0
O711 O 0.49592 0.84805 0.34717 0.0
O712 O 0.49941 0.90668 0.3029 0.0
O713 O 0.54055 0.95984 0.31134 0.0
O714 O 0.45046 0.85355 0.32014 0.0
O715 O 0.44954 0.88292 0.33676 0.0
O716 O 0.45579 0.92779 0.34998 0.0
O717 O 0.48411 0.95438 0.33036 0.0
C718 C 0.5128 0.84451 0.33674 0.0
C719 C 0.46332 0.95296 0.34056 0.0
H720 H 0.0721 0.13161 0.14722 0.0
H721 H 0.17829 0.0445 0.18737 0.0
H722 H 0.12943 0.1818 0.18323 0.0
H723 H 0.15479 0.02313 0.14671 0.0
H724 H 0.16197 0.09563 0.18618 0.0
H725 H 0.10111 0.09066 0.14719 0.0
C726 C 0.09074 0.13391 0.15516 0.0
C727 C 0.09837 0.16007 0.16527 0.0
C728 C 0.16108 0.08033 0.17746 0.0
C729 C 0.13177 0.1133 0.16525 0.0
C730 C 0.17049 0.05126 0.17812 0.0
C731 C 0.16769 0.02961 0.16712 0.0
C732 C 0.14795 0.08718 0.16577 0.0
C733 C 0.15748 0.03936 0.15538 0.0
C734 C 0.10756 0.11076 0.15507 0.0
C735 C 0.12275 0.16189 0.17529 0.0
N736 N 0.14724 0.06705 0.15506 0.0
N737 N 0.13845 0.13859 0.17507 0.0
H738 H 0.94448 0.13667 0.19032 0.0
H739 H 0.86241 0.94687 0.14863 0.0
H740 H 0.9632 0.13827 0.14934 0.0
H741 H 0.81185 0.94872 0.18516 0.0
H742 H 0.90062 0.01716 0.14907 0.0
H743 H 0.89456 0.0687 0.18881 0.0
C744 C 0.93724 0.12292 0.18094 0.0
C745 C 0.95797 0.14295 0.16993 0.0
C746 C 0.88103 0.00226 0.15697 0.0
C747 C 0.902 0.06504 0.16821 0.0
C748 C 0.8595 0.9621 0.15679 0.0
C749 C 0.83403 0.942 0.1669 0.0
C750 C 0.87754 0.02252 0.16742 0.0
C751 C 0.8313 0.9632 0.1772 0.0
C752 C 0.90893 0.0841 0.18009 0.0
C753 C 0.94769 0.12388 0.15803 0.0
N754 N 0.85302 0.0024 0.17724 0.0
N755 N 0.92091 0.08568 0.15751 0.0
H756 H 0.05614 0.88699 0.18438 0.0
H757 H 0.85317 0.81547 0.14911 0.0
H758 H 0.03748 0.86646 0.14348 0.0
H759 H 0.86895 0.8303 0.19034 0.0
H760 H 0.91928 0.82775 0.14718 0.0
H761 H 0.98645 0.86154 0.18715 0.0
C762 C 0.03736 0.87703 0.17603 0.0
C763 C 0.05245 0.87907 0.16369 0.0
C764 C 0.9081 0.82787 0.15667 0.0
C765 C 0.97321 0.84994 0.16672 0.0
C766 C 0.87022 0.82058 0.15777 0.0
C767 C 0.8556 0.82232 0.16987 0.0
C768 C 0.93152 0.83713 0.16773 0.0
C769 C 0.87914 0.82918 0.18077 0.0
C770 C 0.99766 0.86242 0.17759 0.0
C771 C 0.02701 0.86563 0.15316 0.0
N772 N 0.91603 0.83678 0.17943 0.0
N773 N 0.98875 0.85184 0.1549 0.0
H774 H 0.18021 0.13046 0.32957 0.0
H775 H 0.01745 0.15407 0.36669 0.0
H776 H 0.1291 0.07505 0.36571 0.0
H777 H 0.04685 0.18468 0.32674 0.0
H778 H 0.0677 0.13622 0.36797 0.0
H779 H 0.13876 0.1595 0.32949 0.0
C780 C 0.16016 0.1243 0.33744 0.0
C781 C 0.15792 0.10025 0.34763 0.0
C782 C 0.06347 0.14736 0.35898 0.0
C783 C 0.11116 0.13378 0.34775 0.0
C784 C 0.03514 0.15799 0.3583 0.0
C785 C 0.02781 0.17053 0.34657 0.0
C786 C 0.08467 0.14959 0.34787 0.0
C787 C 0.05133 0.17472 0.33594 0.0
C788 C 0.13671 0.141 0.33743 0.0
C789 C 0.13167 0.09336 0.35764 0.0
N790 N 0.07848 0.16396 0.33681 0.0
N791 N 0.1094 0.1101 0.35747 0.0
H792 H 0.79764 0.85103 0.36083 0.0
H793 H 0.91375 0.06456 0.33087 0.0
H794 H 0.87525 0.88495 0.32828 0.0
H795 H 0.82736 0.03333 0.36044 0.0
H796 H 0.89892 0.99755 0.33003 0.0
H797 H 0.80761 0.91711 0.36144 0.0
C798 C 0.81665 0.87216 0.35386 0.0
C799 C 0.83539 0.86223 0.34448 0.0
C800 C 0.88297 0.0052 0.33667 0.0
C801 C 0.84694 0.9373 0.3451 0.0
C802 C 0.89141 0.04346 0.3371 0.0
C803 C 0.87191 0.05441 0.34576 0.0
C804 C 0.85492 0.9777 0.34502 0.0
C805 C 0.84318 0.02597 0.35365 0.0
C806 C 0.82224 0.90974 0.35417 0.0
C807 C 0.85975 0.89081 0.33566 0.0
N808 N 0.8357 0.98889 0.35316 0.0
N809 N 0.86478 0.92677 0.33622 0.0
H810 H 0.94493 0.85556 0.36616 0.0
H811 H 0.13227 0.94908 0.32345 0.0
H812 H 0.94665 0.81041 0.32853 0.0
H813 H 0.13543 0.96267 0.36475 0.0
H814 H 0.0655 0.89648 0.32497 0.0
H815 H 0.0149 0.89492 0.36561 0.0
C816 C 0.96008 0.85398 0.35774 0.0
C817 C 0.93998 0.82981 0.34733 0.0
C818 C 0.08099 0.91031 0.33374 0.0
C819 C 0.02033 0.8749 0.34667 0.0
C820 C 0.1191 0.94021 0.33289 0.0
C821 C 0.13912 0.96019 0.344 0.0
C822 C 0.06257 0.90101 0.34576 0.0
C823 C 0.12093 0.94779 0.35597 0.0
C824 C 0.00011 0.87623 0.3575 0.0
C825 C 0.96113 0.82885 0.33672 0.0
N826 N 0.0833 0.91942 0.35652 0.0
N827 N 0.00027 0.85141 0.3366 0.0
H828 H 0.86773 0.81638 0.82875 0.0
H829 H 0.8381 0.97517 0.86601 0.0
H830 H 0.9245 0.87019 0.86447 0.0
H831 H 0.81371 0.95016 0.82553 0.0
H832 H 0.85669 0.92536 0.86725 0.0
H833 H 0.83683 0.85617 0.82873 0.0
C834 C 0.87378 0.83666 0.83654 0.0
C835 C 0.89881 0.8402 0.84658 0.0
C836 C 0.84661 0.93037 0.85815 0.0
C837 C 0.86309 0.88494 0.84679 0.0
C838 C 0.83552 0.95837 0.8575 0.0
C839 C 0.82455 0.96675 0.84565 0.0
C840 C 0.84633 0.91058 0.8469 0.0
C841 C 0.82227 0.94462 0.83484 0.0
C842 C 0.85603 0.85915 0.83657 0.0
C843 C 0.90552 0.86669 0.85651 0.0
N844 N 0.83338 0.91773 0.83569 0.0
N845 N 0.88768 0.88795 0.85638 0.0
H846 H 0.1806 0.0411 0.86914 0.0
H847 H 0.04373 0.87185 0.82109 0.0
H848 H 0.17084 0.05936 0.82864 0.0
H849 H 0.04791 0.85729 0.8622 0.0
H850 H 0.09722 0.93786 0.82302 0.0
H851 H 0.13869 0.97207 0.86609 0.0
C852 C 0.16964 0.03049 0.85955 0.0
C853 C 0.17885 0.05598 0.84913 0.0
C854 C 0.08682 0.92011 0.8316 0.0
C855 C 0.13062 0.97659 0.84557 0.0
C856 C 0.05632 0.88229 0.83052 0.0
C857 C 0.04092 0.85907 0.84155 0.0
C858 C 0.10207 0.93499 0.8438 0.0
C859 C 0.05873 0.87411 0.85345 0.0
C860 C 0.14574 0.99097 0.85782 0.0
C861 C 0.16415 0.04062 0.83693 0.0
N862 N 0.08805 0.9113 0.85428 0.0
N863 N 0.14045 0.0018 0.83549 0.0
H864 H 0.9402 0.07308 0.86513 0.0
H865 H 0.13481 0.1809 0.82575 0.0
H866 H 0.94858 0.13328 0.82967 0.0
H867 H 0.13125 0.15518 0.86627 0.0
H868 H 0.06724 0.16429 0.82672 0.0
H869 H 0.00998 0.10103 0.86518 0.0
C870 C 0.95677 0.09212 0.8573 0.0
C871 C 0.93863 0.10096 0.84737 0.0
C872 C 0.08136 0.16294 0.83545 0.0
C873 C 0.01869 0.13316 0.84742 0.0
C874 C 0.1199 0.17251 0.83493 0.0
C875 C 0.1384 0.16923 0.84595 0.0
C876 C 0.06097 0.14918 0.84703 0.0
C877 C 0.11799 0.15826 0.85759 0.0
C878 C 0.99666 0.10833 0.85741 0.0
C879 C 0.9615 0.12569 0.83748 0.0
N880 N 0.08004 0.14793 0.85778 0.0
N881 N 0.00046 0.14086 0.83772 0.0
H882 H 0.81611 0.86669 0.68397 0.0
H883 H 0.97705 0.84153 0.64628 0.0
H884 H 0.86689 0.9226 0.64785 0.0
H885 H 0.95081 0.81434 0.68656 0.0
H886 H 0.92681 0.85957 0.64517 0.0
H887 H 0.85764 0.8378 0.68391 0.0
C888 C 0.83613 0.87303 0.67608 0.0
C889 C 0.83821 0.89713 0.66593 0.0
C890 C 0.93169 0.84906 0.65419 0.0
C891 C 0.88503 0.86371 0.66564 0.0
C892 C 0.95994 0.83829 0.65477 0.0
C893 C 0.96806 0.82663 0.66653 0.0
C894 C 0.9114 0.84779 0.66543 0.0
C895 C 0.94551 0.82347 0.67732 0.0
C896 C 0.85962 0.8564 0.676 0.0
C897 C 0.86445 0.90425 0.65589 0.0
N898 N 0.91839 0.83426 0.67655 0.0
N899 N 0.88674 0.88752 0.65598 0.0
H900 H 0.1696 0.13779 0.64811 0.0
H901 H 0.1302 0.94541 0.68503 0.0
H902 H 0.1768 0.13135 0.68945 0.0
H903 H 0.08482 0.94673 0.64738 0.0
H904 H 0.1601 0.01607 0.68592 0.0
H905 H 0.15366 0.07013 0.64658 0.0
C906 C 0.16899 0.12247 0.6568 0.0
C907 C 0.17423 0.13983 0.66891 0.0
C908 C 0.14364 0.00075 0.67747 0.0
C909 C 0.15553 0.06285 0.6673 0.0
C910 C 0.12644 0.96055 0.677 0.0
C911 C 0.1049 0.94031 0.66616 0.0
C912 C 0.13959 0.02063 0.66695 0.0
C913 C 0.10108 0.96122 0.65596 0.0
C914 C 0.15943 0.08382 0.65596 0.0
C915 C 0.17263 0.1187 0.67993 0.0
N916 N 0.11836 0.00023 0.65658 0.0
N917 N 0.1631 0.08116 0.67888 0.0
H918 H 0.85968 0.05268 0.68787 0.0
H919 H 0.05208 0.13254 0.64746 0.0
H920 H 0.86148 0.02669 0.64761 0.0
H921 H 0.04791 0.18456 0.68341 0.0
H922 H 0.98198 0.09347 0.64759 0.0
H923 H 0.92746 0.10301 0.68642 0.0
C924 C 0.87413 0.0583 0.67863 0.0
C925 C 0.85508 0.03538 0.66785 0.0
C926 C 0.99627 0.11354 0.65543 0.0
C927 C 0.93282 0.09206 0.66623 0.0
C928 C 0.03636 0.13564 0.65543 0.0
C929 C 0.05579 0.16177 0.66547 0.0
C930 C 0.97533 0.11712 0.66564 0.0
C931 C 0.03396 0.1646 0.67553 0.0
C932 C 0.91285 0.08689 0.67783 0.0
C933 C 0.87505 0.0438 0.65613 0.0
N934 N 0.99479 0.14234 0.6754 0.0
N935 N 0.91312 0.07101 0.65569 0.0
H936 H 0.83397 0.36428 0.48138 0.0
H937 H 0.79568 0.51699 0.51902 0.0
H938 H 0.8453 0.37924 0.52263 0.0
H939 H 0.74611 0.46771 0.48202 0.0
H940 H 0.82613 0.47667 0.51955 0.0
H941 H 0.81626 0.41479 0.48024 0.0
C942 C 0.83388 0.37904 0.49012 0.0
C943 C 0.84088 0.36762 0.50211 0.0
C944 C 0.80861 0.47486 0.51132 0.0
C945 C 0.82015 0.42459 0.50094 0.0
C946 C 0.79111 0.49762 0.51106 0.0
C947 C 0.76824 0.49552 0.5005 0.0
C948 C 0.80358 0.45039 0.50086 0.0
C949 C 0.76341 0.47017 0.49038 0.0
C950 C 0.8233 0.40743 0.48951 0.0
C951 C 0.83982 0.38717 0.5132 0.0
N952 N 0.78105 0.44875 0.49078 0.0
N953 N 0.82933 0.41454 0.51237 0.0
H954 H 0.5339 0.27461 0.48072 0.0
H955 H 0.61623 0.4658 0.52209 0.0
H956 H 0.48123 0.27789 0.51663 0.0
H957 H 0.63829 0.46602 0.48139 0.0
H958 H 0.56683 0.39759 0.52065 0.0
H959 H 0.57427 0.3446 0.48138 0.0
C960 C 0.53094 0.29009 0.4888 0.0
C961 C 0.50415 0.27042 0.49865 0.0
C962 C 0.58194 0.4127 0.51199 0.0
C963 C 0.55037 0.3508 0.49943 0.0
C964 C 0.61003 0.45163 0.51279 0.0
C965 C 0.63138 0.47147 0.50184 0.0
C966 C 0.57573 0.39328 0.50021 0.0
C967 C 0.62231 0.45184 0.49004 0.0
C968 C 0.5538 0.33013 0.4891 0.0
C969 C 0.50161 0.29199 0.50886 0.0
N970 N 0.59558 0.41358 0.48957 0.0
N971 N 0.52462 0.33111 0.50903 0.0
H972 H 0.52685 0.15884 0.48045 0.0
H973 H 0.71911 0.20016 0.518 0.0
H974 H 0.53147 0.14769 0.52168 0.0
H975 H 0.71808 0.24632 0.48049 0.0
H976 H 0.64829 0.1687 0.51856 0.0
H977 H 0.59499 0.1765 0.47913 0.0
C978 C 0.54188 0.15894 0.48915 0.0
C979 C 0.52376 0.15204 0.50118 0.0
C980 C 0.6637 0.18566 0.51021 0.0
C981 C 0.60143 0.17278 0.49981 0.0
C982 C 0.704 0.20373 0.50993 0.0
C983 C 0.7244 0.22601 0.49923 0.0
C984 C 0.64386 0.18959 0.49965 0.0
C985 C 0.7035 0.22954 0.48896 0.0
C986 C 0.58082 0.16949 0.48843 0.0
C987 C 0.54463 0.15309 0.51222 0.0
N988 N 0.6644 0.21145 0.48941 0.0
N989 N 0.58247 0.16364 0.51129 0.0
H990 H 0.8508 0.46666 0.66103 0.0
H991 H 0.69984 0.50746 0.69849 0.0
H992 H 0.80455 0.42135 0.69869 0.0
H993 H 0.71472 0.51779 0.65721 0.0
H994 H 0.75072 0.49053 0.69982 0.0
H995 H 0.81101 0.49756 0.66036 0.0
C996 C 0.8322 0.46314 0.66911 0.0
C997 C 0.83074 0.44129 0.67989 0.0
C998 C 0.74327 0.49718 0.6905 0.0
C999 C 0.78613 0.4771 0.67934 0.0
C1000 C 0.71463 0.50735 0.68976 0.0
C1001 C 0.70293 0.51371 0.67772 0.0
C1002 C 0.76039 0.49372 0.67912 0.0
C1003 C 0.72272 0.51272 0.66668 0.0
C1004 C 0.80973 0.4809 0.66876 0.0
C1005 C 0.8064 0.43778 0.69016 0.0
N1006 N 0.75026 0.5025 0.66762 0.0
N1007 N 0.78515 0.4556 0.68965 0.0
H1008 H 0.4776 0.19638 0.65681 0.0
H1009 H 0.58251 0.38439 0.69959 0.0
H1010 H 0.49303 0.19303 0.69786 0.0
H1011 H 0.53159 0.38391 0.66285 0.0
H1012 H 0.55091 0.31417 0.69876 0.0
H1013 H 0.49547 0.26424 0.65861 0.0
C1014 C 0.48378 0.20972 0.66626 0.0
C1015 C 0.484 0.18919 0.67721 0.0
C1016 C 0.54643 0.32934 0.69091 0.0
C1017 C 0.50564 0.26701 0.67926 0.0
C1018 C 0.56477 0.36947 0.69131 0.0
C1019 C 0.5597 0.38995 0.68124 0.0
C1020 C 0.5233 0.30947 0.68027 0.0
C1021 C 0.53631 0.36914 0.67078 0.0
C1022 C 0.49415 0.24848 0.66727 0.0
C1023 C 0.49231 0.20778 0.6892 0.0
N1024 N 0.51913 0.32996 0.67052 0.0
N1025 N 0.50357 0.24592 0.68987 0.0
H1026 H 0.80236 0.30793 0.69923 0.0
H1027 H 0.61357 0.14783 0.66234 0.0
H1028 H 0.80113 0.28284 0.65872 0.0
H1029 H 0.61157 0.19959 0.69861 0.0
H1030 H 0.6842 0.18866 0.66198 0.0
H1031 H 0.73437 0.25745 0.70061 0.0
C1032 C 0.78811 0.29108 0.69072 0.0
C1033 C 0.80724 0.29972 0.67883 0.0
C1034 C 0.6682 0.19095 0.67002 0.0
C1035 C 0.72954 0.24263 0.68027 0.0
C1036 C 0.62798 0.16786 0.67018 0.0
C1037 C 0.60678 0.1705 0.68048 0.0
C1038 C 0.68718 0.21644 0.6803 0.0
C1039 C 0.6268 0.19672 0.69045 0.0
C1040 C 0.7492 0.26263 0.69147 0.0
C1041 C 0.78727 0.27728 0.66806 0.0
N1042 N 0.66586 0.21857 0.69013 0.0
N1043 N 0.7494 0.24998 0.669 0.0
H1044 H 0.58095 0.19596 0.19929 0.0
H1045 H 0.48053 0.28508 0.15727 0.0
H1046 H 0.52902 0.14739 0.16248 0.0
H1047 H 0.49561 0.30186 0.19838 0.0
H1048 H 0.49668 0.23383 0.15876 0.0
H1049 H 0.55098 0.23603 0.19879 0.0
C1050 C 0.56329 0.19382 0.19106 0.0
C1051 C 0.55749 0.1684 0.18088 0.0
C1052 C 0.49568 0.24812 0.1675 0.0
C1053 C 0.52299 0.2142 0.18028 0.0
C1054 C 0.48633 0.27723 0.16667 0.0
C1055 C 0.48685 0.29765 0.17773 0.0
C1056 C 0.50651 0.24004 0.17944 0.0
C1057 C 0.49466 0.28657 0.18965 0.0
C1058 C 0.5459 0.21646 0.19085 0.0
C1059 C 0.53428 0.16675 0.17049 0.0
N1060 N 0.50494 0.25894 0.19016 0.0
N1061 N 0.51805 0.1896 0.17041 0.0
H1062 H 0.84774 0.38327 0.16047 0.0
H1063 H 0.69545 0.19157 0.19783 0.0
H1064 H 0.79891 0.38278 0.19759 0.0
H1065 H 0.7124 0.19564 0.15667 0.0
H1066 H 0.74609 0.25959 0.19918 0.0
H1067 H 0.80853 0.31245 0.15998 0.0
C1068 C 0.82871 0.36825 0.16847 0.0
C1069 C 0.82632 0.38881 0.17903 0.0
C1070 C 0.73917 0.24533 0.18989 0.0
C1071 C 0.78235 0.30825 0.1787 0.0
C1072 C 0.71068 0.20642 0.18915 0.0
C1073 C 0.69964 0.18816 0.17712 0.0
C1074 C 0.75681 0.26581 0.17854 0.0
C1075 C 0.71992 0.20886 0.16613 0.0
C1076 C 0.80657 0.32796 0.16823 0.0
C1077 C 0.80145 0.36805 0.18922 0.0
N1078 N 0.74731 0.24671 0.16708 0.0
N1079 N 0.78053 0.32893 0.18881 0.0
H1080 H 0.79829 0.51615 0.15454 0.0
H1081 H 0.61321 0.4172 0.19836 0.0
H1082 H 0.80389 0.50781 0.19587 0.0
H1083 H 0.61121 0.46513 0.16127 0.0
H1084 H 0.68325 0.44885 0.19711 0.0
H1085 H 0.73067 0.4991 0.1564 0.0
C1086 C 0.78551 0.51171 0.16404 0.0
C1087 C 0.80655 0.51312 0.17507 0.0
C1088 C 0.6676 0.45269 0.18927 0.0
C1089 C 0.72911 0.49252 0.17721 0.0
C1090 C 0.62755 0.4343 0.18991 0.0
C1091 C 0.60643 0.43853 0.17988 0.0
C1092 C 0.68676 0.47498 0.17842 0.0
C1093 C 0.62652 0.46109 0.16918 0.0
C1094 C 0.74692 0.50184 0.16508 0.0
C1095 C 0.78872 0.50713 0.18713 0.0
N1096 N 0.66569 0.47831 0.16868 0.0
N1097 N 0.75072 0.49629 0.18787 0.0
H1098 H 0.64041 0.17125 0.98007 0.0
H1099 H 0.4806 0.19955 0.01711 0.0
H1100 H 0.61291 0.14421 0.02029 0.0
H1101 H 0.53421 0.25638 0.98139 0.0
H1102 H 0.52021 0.16854 0.01706 0.0
H1103 H 0.59059 0.18978 0.97869 0.0
C1104 C 0.62307 0.1681 0.98849 0.0
C1105 C 0.63076 0.15642 1.00032 0.0
C1106 C 0.5232 0.18777 0.00923 0.0
C1107 C 0.5746 0.17813 0.99891 0.0
C1108 C 0.50081 0.20559 0.00931 0.0
C1109 C 0.50435 0.23068 0.99929 0.0
C1110 C 0.54896 0.19487 0.99901 0.0
C1111 C 0.53074 0.23737 0.98934 0.0
C1112 C 0.59506 0.17914 0.98776 0.0
C1113 C 0.60793 0.15335 0.01101 0.0
N1114 N 0.55197 0.2195 0.98944 0.0
N1115 N 0.58108 0.16447 0.01009 0.0
H1116 H 0.79581 0.27946 0.01785 0.0
H1117 H 0.8225 0.4653 0.97941 0.0
H1118 H 0.74015 0.27434 0.98165 0.0
H1119 H 0.84355 0.46621 0.02024 0.0
H1120 H 0.80549 0.39721 0.97864 0.0
H1121 H 0.82436 0.35006 0.0178 0.0
C1122 C 0.78946 0.29316 0.00996 0.0
C1123 C 0.76555 0.27112 0.99977 0.0
C1124 C 0.81442 0.41257 0.98772 0.0
C1125 C 0.79865 0.35137 0.99947 0.0
C1126 C 0.82455 0.45145 0.98812 0.0
C1127 C 0.83411 0.4711 0.99991 0.0
C1128 C 0.81428 0.39361 0.99918 0.0
C1129 C 0.83594 0.45181 0.01097 0.0
C1130 C 0.8059 0.33333 0.00988 0.0
C1131 C 0.75841 0.29023 0.98971 0.0
N1132 N 0.82583 0.41403 0.01036 0.0
N1133 N 0.77501 0.32923 0.98979 0.0
H1134 H 0.53715 0.37635 0.02502 0.0
H1135 H 0.70581 0.51075 0.97653 0.0
H1136 H 0.52177 0.37955 0.98393 0.0
H1137 H 0.72421 0.50352 0.01718 0.0
H1138 H 0.63679 0.46911 0.97966 0.0
H1139 H 0.60312 0.42977 0.02292 0.0
C1140 C 0.54742 0.38874 0.01556 0.0
C1141 C 0.52401 0.37309 1.00458 0.0
C1142 C 0.65573 0.47666 0.98794 0.0
C1143 C 0.59984 0.43407 1.00214 0.0
C1144 C 0.69523 0.50038 0.98616 0.0
C1145 C 0.72073 0.51023 0.99661 0.0
C1146 C 0.64141 0.46238 1.00027 0.0
C1147 C 0.70544 0.4963 0.00887 0.0
C1148 C 0.5852 0.41918 0.01438 0.0
C1149 C 0.53877 0.3906 0.99263 0.0
N1150 N 0.66666 0.47277 0.01036 0.0
N1151 N 0.57595 0.41984 0.9917 0.0
H1152 H 0.46209 0.85015 0.85176 0.0
H1153 H 0.50386 0.69864 0.81498 0.0
H1154 H 0.41653 0.80255 0.81422 0.0
H1155 H 0.50958 0.71121 0.85634 0.0
H1156 H 0.48706 0.74975 0.81346 0.0
H1157 H 0.49254 0.80989 0.85272 0.0
C1158 C 0.45844 0.83119 0.84376 0.0
C1159 C 0.43663 0.82945 0.83294 0.0
C1160 C 0.4927 0.74173 0.82285 0.0
C1161 C 0.47197 0.78441 0.83381 0.0
C1162 C 0.50274 0.71299 0.82369 0.0
C1163 C 0.50786 0.70073 0.83579 0.0
C1164 C 0.48823 0.75839 0.83419 0.0
C1165 C 0.50555 0.71979 0.84683 0.0
C1166 C 0.47594 0.80846 0.84428 0.0
C1167 C 0.43296 0.80465 0.82278 0.0
N1168 N 0.49561 0.74751 0.84578 0.0
N1169 N 0.45055 0.78322 0.82344 0.0
H1170 H 0.19981 0.61101 0.8156 0.0
H1171 H 0.28327 0.80324 0.85592 0.0
H1172 H 0.14698 0.61518 0.85137 0.0
H1173 H 0.30115 0.80225 0.81498 0.0
H1174 H 0.23314 0.73518 0.85487 0.0
H1175 H 0.23921 0.68107 0.81586 0.0
C1176 C 0.19663 0.62669 0.82357 0.0
C1177 C 0.17005 0.60725 0.83349 0.0
C1178 C 0.24739 0.75002 0.84607 0.0
C1179 C 0.21514 0.68772 0.83379 0.0
C1180 C 0.27583 0.78886 0.84664 0.0
C1181 C 0.29628 0.80821 0.83551 0.0
C1182 C 0.24007 0.73024 0.83432 0.0
C1183 C 0.28581 0.78839 0.82375 0.0
C1184 C 0.21891 0.66677 0.82363 0.0
C1185 C 0.16724 0.6291 0.84356 0.0
N1186 N 0.25889 0.75018 0.8235 0.0
N1187 N 0.18972 0.66828 0.8435 0.0
H1188 H 0.38487 0.53407 0.85111 0.0
H1189 H 0.19501 0.50194 0.81402 0.0
H1190 H 0.38581 0.58181 0.81371 0.0
H1191 H 0.19851 0.48538 0.855 0.0
H1192 H 0.26273 0.51839 0.81255 0.0
H1193 H 0.31433 0.50526 0.85174 0.0
C1194 C 0.37023 0.53852 0.84307 0.0
C1195 C 0.39111 0.56045 0.83238 0.0
C1196 C 0.24845 0.5106 0.82183 0.0
C1197 C 0.31084 0.52717 0.8329 0.0
C1198 C 0.20972 0.50078 0.82263 0.0
C1199 C 0.19134 0.49259 0.83465 0.0
C1200 C 0.26863 0.51187 0.83311 0.0
C1201 C 0.21184 0.49191 0.84556 0.0
C1202 C 0.33008 0.52199 0.8434 0.0
C1203 C 0.37083 0.56521 0.82216 0.0
N1204 N 0.24947 0.50173 0.84455 0.0
N1205 N 0.33185 0.54865 0.82266 0.0
H1206 H 0.46869 0.75058 0.03288 0.0
H1207 H 0.38056 0.84994 0.98955 0.0
H1208 H 0.51599 0.79837 0.99554 0.0
H1209 H 0.36352 0.8362 0.0307 0.0
H1210 H 0.43105 0.8328 0.9913 0.0
H1211 H 0.42883 0.7807 0.03186 0.0
C1212 C 0.47058 0.76734 0.02442 0.0
C1213 C 0.49563 0.77198 0.01426 0.0
C1214 C 0.41684 0.83428 0.99998 0.0
C1215 C 0.45007 0.8067 0.01306 0.0
C1216 C 0.38814 0.84422 0.99901 0.0
C1217 C 0.36774 0.84429 0.01 0.0
C1218 C 0.42461 0.8236 0.012 0.0
C1219 C 0.37864 0.83665 0.022 0.0
C1220 C 0.44804 0.78483 0.02391 0.0
C1221 C 0.49692 0.79403 1.00356 0.0
N1222 N 0.40588 0.82588 0.02265 0.0
N1223 N 0.47423 0.81044 1.00319 0.0
H1224 H 0.24794 0.71733 0.03164 0.0
H1225 H 0.13752 0.5264 0.99066 0.0
H1226 H 0.19421 0.71512 0.99531 0.0
H1227 H 0.15564 0.52604 0.03164 0.0
H1228 H 0.15604 0.59454 0.99194 0.0
H1229 H 0.21517 0.64704 0.0314 0.0
C1230 C 0.22933 0.70202 0.02357 0.0
C1231 C 0.22383 0.72206 0.01345 0.0
C1232 C 0.15511 0.57937 1.0007 0.0
C1233 C 0.18605 0.64143 0.01316 0.0
C1234 C 0.14433 0.54044 0.99999 0.0
C1235 C 0.14519 0.52067 0.01106 0.0
C1236 C 0.16765 0.59881 0.01251 0.0
C1237 C 0.15438 0.54017 0.0229 0.0
C1238 C 0.21033 0.66184 0.02351 0.0
C1239 C 0.19931 0.70071 1.00327 0.0
N1240 N 0.16606 0.57845 0.02327 0.0
N1241 N 0.18148 0.66146 1.00333 0.0
H1242 H 0.27168 0.53586 0.0331 0.0
H1243 H 0.4652 0.61701 0.99304 0.0
H1244 H 0.27813 0.48248 0.99777 0.0
H1245 H 0.46339 0.64363 0.03322 0.0
H1246 H 0.39724 0.56717 0.99445 0.0
H1247 H 0.34173 0.5769 0.03293 0.0
C1248 C 0.28787 0.5329 0.02526 0.0
C1249 C 0.26911 0.50576 0.01541 0.0
C1250 C 0.41181 0.58336 1.00303 0.0
C1251 C 0.34939 0.55259 0.0152 0.0
C1252 C 0.45061 0.61166 1.00225 0.0
C1253 C 0.46977 0.63434 0.01305 0.0
C1254 C 0.39182 0.57829 0.01462 0.0
C1255 C 0.44967 0.62649 0.02472 0.0
C1256 C 0.3279 0.55612 0.02524 0.0
C1257 C 0.29151 0.50314 1.00551 0.0
N1258 N 0.41148 0.59949 0.02515 0.0
N1259 N 0.33054 0.52643 1.00562 0.0
H1260 H 0.2565 0.53322 0.53291 0.0
H1261 H 0.14739 0.61484 0.49128 0.0
H1262 H 0.20119 0.48129 0.49681 0.0
H1263 H 0.1719 0.6398 0.53175 0.0
H1264 H 0.16552 0.56508 0.49297 0.0
H1265 H 0.22678 0.57348 0.53229 0.0
C1266 C 0.23816 0.53039 0.52481 0.0
C1267 C 0.23129 0.50391 0.51488 0.0
C1268 C 0.16626 0.58089 0.50154 0.0
C1269 C 0.19702 0.54993 0.51415 0.0
C1270 C 0.15578 0.60917 0.5006 0.0
C1271 C 0.15827 0.63143 0.5114 0.0
C1272 C 0.18009 0.5754 0.51331 0.0
C1273 C 0.16935 0.62307 0.52323 0.0
C1274 C 0.22094 0.55319 0.52453 0.0
C1275 C 0.2073 0.50147 0.50463 0.0
N1276 N 0.18053 0.59611 0.52382 0.0
N1277 N 0.19113 0.52438 0.5045 0.0
H1278 H 0.51823 0.71911 0.49445 0.0
H1279 H 0.36576 0.52906 0.53261 0.0
H1280 H 0.4685 0.72017 0.53124 0.0
H1281 H 0.38255 0.53111 0.4915 0.0
H1282 H 0.4163 0.59732 0.53362 0.0
H1283 H 0.47878 0.64824 0.49426 0.0
C1284 C 0.49892 0.70446 0.50243 0.0
C1285 C 0.49645 0.72545 0.51283 0.0
C1286 C 0.40939 0.58255 0.52442 0.0
C1287 C 0.45233 0.6449 0.51286 0.0
C1288 C 0.381 0.54355 0.52389 0.0
C1289 C 0.37006 0.52472 0.51196 0.0
C1290 C 0.42693 0.60246 0.51296 0.0
C1291 C 0.39016 0.54487 0.50088 0.0
C1292 C 0.47668 0.66414 0.50236 0.0
C1293 C 0.47122 0.70512 0.523 0.0
N1294 N 0.41744 0.58278 0.50161 0.0
N1295 N 0.45028 0.66601 0.52278 0.0
H1296 H 0.46666 0.82564 0.53206 0.0
H1297 H 0.27932 0.79788 0.49431 0.0
H1298 H 0.46708 0.84965 0.4915 0.0
H1299 H 0.27568 0.74231 0.53037 0.0
H1300 H 0.34997 0.8272 0.49419 0.0
H1301 H 0.39837 0.80756 0.53304 0.0
C1302 C 0.45267 0.82815 0.52347 0.0
C1303 C 0.47232 0.83892 0.51168 0.0
C1304 C 0.33358 0.80859 0.50212 0.0
C1305 C 0.39444 0.81772 0.51264 0.0
C1306 C 0.29335 0.79172 0.50214 0.0
C1307 C 0.27169 0.7676 0.51234 0.0
C1308 C 0.35208 0.80155 0.51244 0.0
C1309 C 0.29126 0.76071 0.52231 0.0
C1310 C 0.41363 0.81737 0.52397 0.0
C1311 C 0.45275 0.84119 0.50076 0.0
N1312 N 0.33029 0.77771 0.52213 0.0
N1313 N 0.4148 0.83039 0.50147 0.0
H1314 H 0.14591 0.53558 0.35021 0.0
H1315 H 0.29777 0.49307 0.31406 0.0
H1316 H 0.19023 0.5766 0.31201 0.0
H1317 H 0.28583 0.49026 0.35543 0.0
H1318 H 0.24602 0.50885 0.31222 0.0
H1319 H 0.18695 0.50609 0.3515 0.0
C1320 C 0.16429 0.53839 0.34213 0.0
C1321 C 0.16493 0.5587 0.33103 0.0
C1322 C 0.25437 0.50414 0.32168 0.0
C1323 C 0.21097 0.52454 0.3323 0.0
C1324 C 0.28351 0.49471 0.32271 0.0
C1325 C 0.29611 0.49068 0.33491 0.0
C1326 C 0.23766 0.50909 0.33292 0.0
C1327 C 0.27707 0.49353 0.34585 0.0
C1328 C 0.18749 0.52147 0.34284 0.0
C1329 C 0.18902 0.56135 0.32078 0.0
N1330 N 0.24895 0.50284 0.34461 0.0
N1331 N 0.211 0.54439 0.32165 0.0
H1332 H 0.46336 0.61193 0.3517 0.0
H1333 H 0.50869 0.8058 0.31454 0.0
H1334 H 0.42045 0.61516 0.3138 0.0
H1335 H 0.51629 0.79978 0.35589 0.0
H1336 H 0.49182 0.73801 0.31309 0.0
H1337 H 0.49569 0.68282 0.35255 0.0
C1338 C 0.4607 0.62755 0.3436 0.0
C1339 C 0.43904 0.60776 0.33271 0.0
C1340 C 0.49789 0.7518 0.32246 0.0
C1341 C 0.47647 0.68833 0.33347 0.0
C1342 C 0.50801 0.79059 0.32326 0.0
C1343 C 0.51351 0.80821 0.33535 0.0
C1344 C 0.49358 0.73077 0.33381 0.0
C1345 C 0.51185 0.78705 0.34638 0.0
C1346 C 0.47927 0.66788 0.34405 0.0
C1347 C 0.43669 0.62927 0.32242 0.0
N1348 N 0.50163 0.74928 0.34537 0.0
N1349 N 0.45524 0.66836 0.32304 0.0
H1350 H 0.19403 0.71288 0.35381 0.0
H1351 H 0.38551 0.79754 0.31298 0.0
H1352 H 0.19382 0.69397 0.3129 0.0
H1353 H 0.38128 0.84824 0.34922 0.0
H1354 H 0.31534 0.75821 0.31314 0.0
H1355 H 0.26186 0.76327 0.35252 0.0
C1356 C 0.20812 0.72015 0.34449 0.0
C1357 C 0.18848 0.69941 0.33343 0.0
C1358 C 0.32968 0.77807 0.32103 0.0
C1359 C 0.26627 0.75593 0.33196 0.0
C1360 C 0.36979 0.80029 0.32101 0.0
C1361 C 0.38922 0.82613 0.33113 0.0
C1362 C 0.30875 0.78118 0.33133 0.0
C1363 C 0.36736 0.82854 0.34126 0.0
C1364 C 0.24683 0.74874 0.34377 0.0
C1365 C 0.20793 0.70961 0.32161 0.0
N1366 N 0.32821 0.80612 0.34116 0.0
N1367 N 0.24609 0.73672 0.32122 0.0
H1368 H 0.20027 0.34214 0.15777 0.0
H1369 H 0.39106 0.35511 0.1869 0.0
H1370 H 0.20241 0.28564 0.19301 0.0
H1371 H 0.39084 0.42085 0.15395 0.0
H1372 H 0.32264 0.33322 0.19029 0.0
H1373 H 0.2707 0.37515 0.15711 0.0
C1374 C 0.21551 0.33692 0.16543 0.0
C1375 C 0.19533 0.31074 0.17538 0.0
C1376 C 0.33762 0.35272 0.18238 0.0
C1377 C 0.27594 0.34825 0.17464 0.0
C1378 C 0.37664 0.36519 0.18046 0.0
C1379 C 0.39636 0.38942 0.17005 0.0
C1380 C 0.31824 0.36438 0.17377 0.0
C1381 C 0.37652 0.40187 0.16203 0.0
C1382 C 0.25576 0.3558 0.16505 0.0
C1383 C 0.21668 0.30533 0.18509 0.0
N1384 N 0.33842 0.38889 0.16398 0.0
N1385 N 0.25577 0.32361 0.1844 0.0
H1386 H 0.64255 0.03902 0.186 0.0
H1387 H 0.6499 0.8555 0.15926 0.0
H1388 H 0.57961 0.97393 0.15253 0.0
H1389 H 0.70824 0.91714 0.19387 0.0
H1390 H 0.6188 0.89461 0.15781 0.0
H1391 H 0.66238 0.99119 0.19017 0.0
C1392 C 0.63274 0.0145 0.17959 0.0
C1393 C 0.60979 0.01052 0.16884 0.0
C1394 C 0.6381 0.89929 0.1658 0.0
C1395 C 0.63235 0.95586 0.17348 0.0
C1396 C 0.6558 0.87688 0.16665 0.0
C1397 C 0.68206 0.88331 0.17662 0.0
C1398 C 0.64688 0.92847 0.17494 0.0
C1399 C 0.68846 0.91136 0.18595 0.0
C1400 C 0.644 0.9872 0.18196 0.0
C1401 C 0.59763 0.97818 0.16086 0.0
N1402 N 0.67133 0.93315 0.1848 0.0
N1403 N 0.60931 0.95224 0.16328 0.0
H1404 H 0.07598 0.79343 0.19261 0.0
H1405 H 0.02152 0.60389 0.15155 0.0
H1406 H 0.13565 0.79289 0.158 0.0
H1407 H 0.95446 0.60545 0.18383 0.0
H1408 H 0.06873 0.67157 0.15559 0.0
H1409 H 0.03675 0.72326 0.19138 0.0
C1410 C 0.08122 0.7786 0.18483 0.0
C1411 C 0.10898 0.79924 0.17531 0.0
C1412 C 0.04384 0.65713 0.16185 0.0
C1413 C 0.06387 0.71879 0.17383 0.0
C1414 C 0.01688 0.61851 0.15954 0.0
C1415 C 0.98389 0.59932 0.16728 0.0
C1416 C 0.03774 0.67677 0.17196 0.0
C1417 C 0.97941 0.61941 0.17758 0.0
C1418 C 0.05866 0.73848 0.18412 0.0
C1419 C 0.11442 0.77831 0.1655 0.0
N1420 N 0.00594 0.65721 0.17957 0.0
N1421 N 0.09187 0.73929 0.16496 0.0
H1422 H 0.28328 0.20135 0.31854 0.0
H1423 H 0.41651 0.39148 0.35972 0.0
H1424 H 0.33863 0.20187 0.35437 0.0
H1425 H 0.34908 0.38947 0.32695 0.0
H1426 H 0.39597 0.32369 0.35591 0.0
H1427 H 0.31497 0.27166 0.31952 0.0
C1428 C 0.30246 0.21621 0.32654 0.0
C1429 C 0.30796 0.19556 0.33647 0.0
C1430 C 0.38581 0.33806 0.3495 0.0
C1431 C 0.34416 0.27612 0.33765 0.0
C1432 C 0.39754 0.37676 0.35166 0.0
C1433 C 0.38402 0.39584 0.34373 0.0
C1434 C 0.36034 0.31825 0.33932 0.0
C1435 C 0.35983 0.37561 0.33336 0.0
C1436 C 0.32043 0.2564 0.3271 0.0
C1437 C 0.33322 0.21649 0.34656 0.0
N1438 N 0.34849 0.33774 0.3315 0.0
N1439 N 0.35015 0.25558 0.34693 0.0
H1440 H 0.60427 0.95672 0.32614 0.0
H1441 H 0.79136 0.14632 0.35188 0.0
H1442 H 0.6041 0.02411 0.35856 0.0
H1443 H 0.79211 0.0808 0.31891 0.0
H1444 H 0.72127 0.10619 0.35284 0.0
H1445 H 0.67157 0.0056 0.32183 0.0
C1446 C 0.61837 0.98195 0.33229 0.0
C1447 C 0.5989 0.98627 0.34281 0.0
C1448 C 0.73671 0.10084 0.34531 0.0
C1449 C 0.67563 0.04214 0.33798 0.0
C1450 C 0.77679 0.12385 0.34473 0.0
C1451 C 0.79777 0.11669 0.33539 0.0
C1452 C 0.71742 0.07024 0.33654 0.0
C1453 C 0.77721 0.08726 0.32634 0.0
C1454 C 0.65672 0.00985 0.32983 0.0
C1455 C 0.61828 0.01954 0.35043 0.0
N1456 N 0.73823 0.06483 0.32724 0.0
N1457 N 0.65566 0.04605 0.34793 0.0
H1458 H 0.8498 0.64592 0.35311 0.0
H1459 H 0.03163 0.64065 0.32444 0.0
H1460 H 0.90395 0.69902 0.31698 0.0
H1461 H 0.9686 0.57617 0.35797 0.0
H1462 H 0.98155 0.65753 0.32038 0.0
H1463 H 0.88869 0.61454 0.35386 0.0
C1464 C 0.86938 0.65052 0.34523 0.0
C1465 C 0.87397 0.67559 0.33506 0.0
C1466 C 0.97847 0.63937 0.32856 0.0
C1467 C 0.91901 0.64022 0.33595 0.0
C1468 C 0.00707 0.62982 0.33088 0.0
C1469 C 0.00439 0.60746 0.34164 0.0
C1470 C 0.94722 0.62665 0.33714 0.0
C1471 C 0.97192 0.59387 0.34964 0.0
C1472 C 0.89168 0.63265 0.34567 0.0
C1473 C 0.89968 0.68025 0.32508 0.0
N1474 N 0.9448 0.60401 0.3473 0.0
N1475 N 0.92162 0.6632 0.32587 0.0
H1476 H 0.60645 0.5822 0.86169 0.0
H1477 H 0.79578 0.71147 0.81974 0.0
H1478 H 0.60824 0.64583 0.82787 0.0
H1479 H 0.79758 0.66342 0.85686 0.0
H1480 H 0.72571 0.67979 0.82099 0.0
H1481 H 0.67483 0.60402 0.85846 0.0
C1482 C 0.62123 0.60058 0.85353 0.0
C1483 C 0.60188 0.61262 0.8451 0.0
C1484 C 0.74138 0.67595 0.82883 0.0
C1485 C 0.68004 0.63765 0.84134 0.0
C1486 C 0.78147 0.69398 0.82812 0.0
C1487 C 0.80274 0.69045 0.83828 0.0
C1488 C 0.72224 0.65412 0.83976 0.0
C1489 C 0.78244 0.66717 0.84884 0.0
C1490 C 0.66026 0.61306 0.8517 0.0
C1491 C 0.62225 0.63618 0.83463 0.0
N1492 N 0.74332 0.65008 0.84934 0.0
N1493 N 0.66034 0.64812 0.83309 0.0
H1494 H 0.34874 0.14494 0.85433 0.0
H1495 H 0.3532 0.96209 0.82595 0.0
H1496 H 0.28809 0.08489 0.81978 0.0
H1497 H 0.42418 0.03049 0.8577 0.0
H1498 H 0.33302 0.00993 0.82239 0.0
H1499 H 0.3809 0.10676 0.85464 0.0
C1500 C 0.34248 0.12408 0.84673 0.0
C1501 C 0.31532 0.11787 0.8371 0.0
C1502 C 0.35332 0.01469 0.83005 0.0
C1503 C 0.35179 0.07378 0.83746 0.0
C1504 C 0.36479 0.98739 0.83208 0.0
C1505 C 0.38996 0.99221 0.84222 0.0
C1506 C 0.36695 0.04679 0.8383 0.0
C1507 C 0.4044 0.02555 0.84984 0.0
C1508 C 0.36087 0.10225 0.84691 0.0
C1509 C 0.30859 0.09055 0.82746 0.0
N1510 N 0.39236 0.05137 0.84782 0.0
N1511 N 0.32635 0.06922 0.82797 0.0
H1512 H 0.84998 0.2029 0.85249 0.0
H1513 H 0.03415 0.39299 0.82609 0.0
H1514 H 0.91284 0.20515 0.81838 0.0
H1515 H 0.96592 0.39223 0.85836 0.0
H1516 H 0.98631 0.3255 0.82178 0.0
H1517 H 0.88789 0.27321 0.85344 0.0
C1518 C 0.87139 0.21816 0.84509 0.0
C1519 C 0.87849 0.19797 0.83542 0.0
C1520 C 0.98154 0.34017 0.82973 0.0
C1521 C 0.92238 0.27862 0.83655 0.0
C1522 C 0.00883 0.37872 0.83217 0.0
C1523 C 0.00406 0.39806 0.84265 0.0
C1524 C 0.94942 0.32075 0.83789 0.0
C1525 C 0.9708 0.37824 0.85024 0.0
C1526 C 0.8931 0.25838 0.84566 0.0
C1527 C 0.90648 0.21941 0.82606 0.0
N1528 N 0.94492 0.34055 0.84779 0.0
N1529 N 0.92771 0.25852 0.82695 0.0
H1530 H 0.57695 0.60414 0.6544 0.0
H1531 H 0.71447 0.7952 0.69439 0.0
H1532 H 0.64792 0.60724 0.68622 0.0
H1533 H 0.65233 0.79348 0.6601 0.0
H1534 H 0.68312 0.72499 0.69351 0.0
H1535 H 0.59722 0.67181 0.6583 0.0
C1536 C 0.59667 0.61908 0.66227 0.0
C1537 C 0.61122 0.60035 0.66991 0.0
C1538 C 0.67607 0.73993 0.68625 0.0
C1539 C 0.63458 0.67779 0.67442 0.0
C1540 C 0.69388 0.78007 0.68675 0.0
C1541 C 0.68635 0.80035 0.6772 0.0
C1542 C 0.65052 0.71986 0.67613 0.0
C1543 C 0.65924 0.77911 0.6676 0.0
C1544 C 0.60822 0.65771 0.66449 0.0
C1545 C 0.63634 0.62084 0.68005 0.0
N1546 N 0.64256 0.74003 0.66725 0.0
N1547 N 0.6475 0.65864 0.68196 0.0
H1548 H 0.39185 0.03982 0.68644 0.0
H1549 H 0.20415 0.85115 0.66071 0.0
H1550 H 0.39126 0.97229 0.65395 0.0
H1551 H 0.20435 0.91448 0.69444 0.0
H1552 H 0.27421 0.89102 0.65966 0.0
H1553 H 0.32472 0.99074 0.69098 0.0
C1554 C 0.37762 0.01452 0.68033 0.0
C1555 C 0.39681 0.01022 0.66972 0.0
C1556 C 0.25902 0.89593 0.66739 0.0
C1557 C 0.32032 0.95414 0.67481 0.0
C1558 C 0.21895 0.87307 0.66801 0.0
C1559 C 0.19823 0.87973 0.67759 0.0
C1560 C 0.27858 0.92596 0.67633 0.0
C1561 C 0.21907 0.90842 0.68684 0.0
C1562 C 0.33939 0.9865 0.68292 0.0
C1563 C 0.3773 0.97686 0.66215 0.0
N1564 N 0.25805 0.93082 0.68588 0.0
N1565 N 0.34005 0.95027 0.66477 0.0
H1566 H 0.02518 0.41934 0.65266 0.0
H1567 H 0.0828 0.28825 0.69468 0.0
H1568 H 0.96063 0.35392 0.68584 0.0
H1569 H 0.1371 0.34214 0.65865 0.0
H1570 H 0.04434 0.32004 0.69354 0.0
H1571 H 0.0725 0.39906 0.65665 0.0
C1572 C 0.02113 0.40086 0.66085 0.0
C1573 C 0.98879 0.38788 0.66885 0.0
C1574 C 0.06494 0.32518 0.68595 0.0
C1575 C 0.04279 0.3645 0.67348 0.0
C1576 C 0.08707 0.30716 0.68661 0.0
C1577 C 0.11297 0.31217 0.67666 0.0
C1578 C 0.0688 0.34846 0.67529 0.0
C1579 C 0.11725 0.3371 0.66648 0.0
C1580 C 0.04816 0.3893 0.66312 0.0
C1581 C 0.9851 0.36433 0.67939 0.0
N1582 N 0.09517 0.35406 0.66601 0.0
N1583 N 0.01166 0.35311 0.68135 0.0
H1584 H 0.86672 0.68268 0.49323 0.0
H1585 H 0.05679 0.68785 0.51949 0.0
H1586 H 0.86954 0.62444 0.52793 0.0
H1587 H 0.05491 0.75175 0.48627 0.0
H1588 H 0.98964 0.66924 0.52397 0.0
H1589 H 0.93682 0.71355 0.49183 0.0
C1590 C 0.88209 0.67676 0.50067 0.0
C1591 C 0.86208 0.65057 0.51064 0.0
C1592 C 0.004 0.68764 0.51577 0.0
C1593 C 0.94251 0.68556 0.50899 0.0
C1594 C 0.04233 0.69829 0.51322 0.0
C1595 C 0.06126 0.72112 0.50245 0.0
C1596 C 0.98441 0.69975 0.50743 0.0
C1597 C 0.04123 0.73385 0.49463 0.0
C1598 C 0.92219 0.69438 0.49984 0.0
C1599 C 0.88366 0.64427 0.52003 0.0
N1600 N 0.0038 0.72272 0.49721 0.0
N1601 N 0.92265 0.66125 0.51888 0.0
H1602 H 0.32203 0.19047 0.49073 0.0
H1603 H 0.31275 0.36949 0.52051 0.0
H1604 H 0.37585 0.24429 0.52683 0.0
H1605 H 0.24846 0.3063 0.48695 0.0
H1606 H 0.33269 0.32135 0.52393 0.0
H1607 H 0.29103 0.22965 0.49009 0.0
C1608 C 0.32703 0.21023 0.4986 0.0
C1609 C 0.35189 0.21432 0.50878 0.0
C1610 C 0.31394 0.31783 0.51588 0.0
C1611 C 0.31675 0.25967 0.50805 0.0
C1612 C 0.30261 0.3453 0.51393 0.0
C1613 C 0.27932 0.34201 0.50336 0.0
C1614 C 0.30204 0.28706 0.50714 0.0
C1615 C 0.26674 0.31006 0.49516 0.0
C1616 C 0.3093 0.23264 0.49823 0.0
C1617 C 0.35703 0.24024 0.51876 0.0
N1618 N 0.27854 0.28403 0.49716 0.0
N1619 N 0.33998 0.26225 0.51806 0.0
H1620 H 0.6972 0.93905 0.48677 0.0
H1621 H 0.75598 0.1288 0.52841 0.0
H1622 H 0.63218 0.94165 0.51951 0.0
H1623 H 0.80726 0.12927 0.49174 0.0
H1624 H 0.71816 0.05842 0.52749 0.0
H1625 H 0.74509 0.00673 0.49067 0.0
C1626 C 0.69323 0.95382 0.49486 0.0
C1627 C 0.66054 0.93496 0.50276 0.0
C1628 C 0.73798 0.07393 0.51971 0.0
C1629 C 0.71513 0.01233 0.50727 0.0
C1630 C 0.75975 0.11415 0.52025 0.0
C1631 C 0.78456 0.13508 0.51006 0.0
C1632 C 0.74113 0.05446 0.50894 0.0
C1633 C 0.78822 0.11441 0.49975 0.0
C1634 C 0.72054 0.99244 0.49707 0.0
C1635 C 0.65691 0.95527 0.51316 0.0
N1636 N 0.76651 0.07528 0.49941 0.0
N1637 N 0.68375 0.99301 0.51507 0.0
H1638 H 0.09327 0.72759 0.69209 0.0
H1639 H 0.95843 0.53802 0.65105 0.0
H1640 H 0.02575 0.72518 0.65929 0.0
H1641 H 0.01555 0.53766 0.68635 0.0
H1642 H 0.99184 0.60832 0.65182 0.0
H1643 H 0.07379 0.66003 0.68806 0.0
C1644 C 0.07464 0.7129 0.68396 0.0
C1645 C 0.0607 0.73173 0.67609 0.0
C1646 C 0.99739 0.5929 0.65933 0.0
C1647 C 0.03826 0.65457 0.67144 0.0
C1648 C 0.97837 0.55271 0.65889 0.0
C1649 C 0.98378 0.53184 0.66876 0.0
C1650 C 0.02195 0.61245 0.66972 0.0
C1651 C 0.01024 0.55252 0.6786 0.0
C1652 C 0.06353 0.67436 0.68167 0.0
C1653 C 0.03693 0.71157 0.66563 0.0
N1654 N 0.02803 0.59169 0.67891 0.0
N1655 N 0.02616 0.67393 0.66367 0.0
H1656 H 0.27056 0.29398 0.66066 0.0
H1657 H 0.46123 0.47144 0.69013 0.0
H1658 H 0.2713 0.35617 0.69472 0.0
H1659 H 0.45873 0.41509 0.65434 0.0
H1660 H 0.39087 0.43324 0.69101 0.0
H1661 H 0.33866 0.34154 0.65718 0.0
C1662 C 0.28504 0.31785 0.66734 0.0
C1663 C 0.26556 0.32102 0.67807 0.0
C1664 C 0.40571 0.42951 0.6829 0.0
C1665 C 0.3433 0.37532 0.67422 0.0
C1666 C 0.44591 0.45135 0.68239 0.0
C1667 C 0.46598 0.44616 0.67222 0.0
C1668 C 0.38546 0.40214 0.67322 0.0
C1669 C 0.44455 0.41986 0.66242 0.0
C1670 C 0.32387 0.345 0.66536 0.0
C1671 C 0.28546 0.35256 0.68639 0.0
N1672 N 0.4055 0.39857 0.66323 0.0
N1673 N 0.32337 0.37831 0.68436 0.0
H1674 H 0.63986 0.91248 0.69462 0.0
H1675 H 0.58215 0.04433 0.65303 0.0
H1676 H 0.70208 0.97614 0.66086 0.0
H1677 H 0.52865 0.99145 0.68926 0.0
H1678 H 0.62018 0.01216 0.65409 0.0
H1679 H 0.59305 0.93385 0.69114 0.0
C1680 C 0.64346 0.93074 0.68641 0.0
C1681 C 0.67502 0.94292 0.67808 0.0
C1682 C 0.59991 0.00735 0.66176 0.0
C1683 C 0.62169 0.96752 0.67405 0.0
C1684 C 0.57807 0.02565 0.66115 0.0
C1685 C 0.55242 0.02094 0.67115 0.0
C1686 C 0.5961 0.98411 0.67243 0.0
C1687 C 0.54828 0.9962 0.68139 0.0
C1688 C 0.61677 0.94295 0.68443 0.0
C1689 C 0.67823 0.9663 0.66754 0.0
N1690 N 0.57012 0.97895 0.68181 0.0
N1691 N 0.65202 0.97809 0.66587 0.0
H1692 H 0.26673 0.90801 0.19373 0.0
H1693 H 0.4566 0.04013 0.15245 0.0
H1694 H 0.26838 0.97113 0.15978 0.0
H1695 H 0.45724 0.98905 0.18908 0.0
H1696 H 0.38633 0.00672 0.15318 0.0
H1697 H 0.33483 0.92898 0.1903 0.0
C1698 C 0.28139 0.92599 0.18547 0.0
C1699 C 0.26217 0.93831 0.17711 0.0
C1700 C 0.40181 0.00256 0.16101 0.0
C1701 C 0.34003 0.96251 0.17315 0.0
C1702 C 0.442 0.0216 0.1606 0.0
C1703 C 0.46296 0.01779 0.17081 0.0
C1704 C 0.38231 0.9795 0.1717 0.0
C1705 C 0.44234 0.99313 0.18105 0.0
C1706 C 0.32026 0.938 0.18353 0.0
C1707 C 0.28234 0.96131 0.16651 0.0
N1708 N 0.40316 0.97516 0.18128 0.0
N1709 N 0.32032 0.97297 0.16489 0.0
H1710 H 0.00638 0.47215 0.18819 0.0
H1711 H 0.01709 0.2913 0.16088 0.0
H1712 H 0.95164 0.41314 0.15281 0.0
H1713 H 0.0796 0.35613 0.19445 0.0
H1714 H 0.99692 0.33885 0.15678 0.0
H1715 H 0.03796 0.43354 0.18966 0.0
C1716 C 0.00131 0.45139 0.18066 0.0
C1717 C 0.97594 0.44557 0.17045 0.0
C1718 C 0.0153 0.34287 0.16499 0.0
C1719 C 0.01175 0.40105 0.17213 0.0
C1720 C 0.02676 0.31573 0.16733 0.0
C1721 C 0.04967 0.31971 0.17808 0.0
C1722 C 0.02666 0.374 0.17354 0.0
C1723 C 0.06163 0.35191 0.18611 0.0
C1724 C 0.01934 0.42932 0.18151 0.0
C1725 C 0.9707 0.41843 0.16092 0.0
N1726 N 0.0497 0.37767 0.18374 0.0
N1727 N 0.98811 0.3969 0.16207 0.0
H1728 H 0.57794 0.5383 0.15199 0.0
H1729 H 0.63671 0.727 0.19423 0.0
H1730 H 0.52489 0.53757 0.1883 0.0
H1731 H 0.70239 0.72559 0.16151 0.0
H1732 H 0.58907 0.65945 0.19014 0.0
H1733 H 0.61684 0.60862 0.15324 0.0
C1734 C 0.574 0.5529 0.16013 0.0
C1735 C 0.54835 0.5319 0.17013 0.0
C1736 C 0.61375 0.67392 0.18379 0.0
C1737 C 0.59302 0.61238 0.17164 0.0
C1738 C 0.64094 0.71247 0.18612 0.0
C1739 C 0.67366 0.73167 0.17827 0.0
C1740 C 0.6193 0.65439 0.17351 0.0
C1741 C 0.67761 0.71167 0.16783 0.0
C1742 C 0.5964 0.59307 0.16086 0.0
C1743 C 0.54455 0.55247 0.18043 0.0
N1744 N 0.65084 0.67396 0.1658 0.0
N1745 N 0.56684 0.59152 0.18096 0.0
H1746 H 0.31356 0.93929 0.01863 0.0
H1747 H 0.32561 0.13057 0.98995 0.0
H1748 H 0.24906 0.94006 0.9854 0.0
H1749 H 0.37921 0.12758 0.02576 0.0
H1750 H 0.29454 0.06024 0.98871 0.0
H1751 H 0.33556 0.00786 0.02205 0.0
C1752 C 0.30386 0.95387 0.01212 0.0
C1753 C 0.27978 0.93421 1.00167 0.0
C1754 C 0.31284 0.07497 0.9969 0.0
C1755 C 0.30485 0.01244 1.00542 0.0
C1756 C 0.33057 0.11515 0.99761 0.0
C1757 C 0.35534 0.13511 0.00791 0.0
C1758 C 0.32015 0.05463 0.0065 0.0
C1759 C 0.36055 0.11353 0.01759 0.0
C1760 C 0.31636 0.99296 0.01406 0.0
C1761 C 0.26788 0.9543 0.99353 0.0
N1762 N 0.34342 0.07454 0.01658 0.0
N1763 N 0.28077 0.99238 0.99552 0.0
H1764 H 0.05742 0.30324 0.98839 0.0
H1765 H 0.86671 0.24558 0.02923 0.0
H1766 H 0.05379 0.37102 0.02012 0.0
H1767 H 0.8689 0.18683 0.9946 0.0
H1768 H 0.93694 0.28554 0.02821 0.0
H1769 H 0.9903 0.2547 0.99263 0.0
C1770 C 0.04249 0.30777 0.99631 0.0
C1771 C 0.06093 0.34134 1.00382 0.0
C1772 C 0.92207 0.26361 0.02092 0.0
C1773 C 0.98407 0.28592 0.00874 0.0
C1774 C 0.88194 0.2406 0.02153 0.0
C1775 C 0.86175 0.21302 0.01191 0.0
C1776 C 0.94218 0.25898 0.01064 0.0
C1777 C 0.88314 0.20793 1.00217 0.0
C1778 C 0.00417 0.28004 0.99873 0.0
C1779 C 0.04043 0.34562 0.01403 0.0
N1780 N 0.92211 0.23092 1.00173 0.0
N1781 N 0.00294 0.31833 0.01614 0.0
H1782 H 0.75029 0.62161 0.02677 0.0
H1783 H 0.69254 0.75552 0.98652 0.0
H1784 H 0.80423 0.67714 0.99088 0.0
H1785 H 0.62892 0.68814 0.01952 0.0
H1786 H 0.74006 0.73507 0.98992 0.0
H1787 H 0.71233 0.65386 0.02618 0.0
C1788 C 0.75454 0.64092 0.01883 0.0
C1789 C 0.78027 0.64631 0.00878 0.0
C1790 C 0.71589 0.72497 0.99649 0.0
C1791 C 0.7366 0.6832 0.00804 0.0
C1792 C 0.68878 0.73665 0.99456 0.0
C1793 C 0.6566 0.7231 1.00268 0.0
C1794 C 0.71075 0.69954 0.00661 0.0
C1795 C 0.65324 0.69901 0.013 0.0
C1796 C 0.73272 0.65926 0.0185 0.0
C1797 C 0.78456 0.67184 0.99879 0.0
N1798 N 0.67986 0.68773 0.01462 0.0
N1799 N 0.76271 0.68909 0.99863 0.0
H1800 H 0.72657 0.09086 0.81933 0.0
H1801 H 0.53706 0.96141 0.86126 0.0
H1802 H 0.72432 0.0259 0.85284 0.0
H1803 H 0.53605 0.0091 0.82399 0.0
H1804 H 0.60743 0.99445 0.86036 0.0
H1805 H 0.65864 0.07051 0.82295 0.0
C1806 C 0.71183 0.07261 0.82753 0.0
C1807 C 0.73085 0.05967 0.83573 0.0
C1808 C 0.5918 0.99795 0.85243 0.0
C1809 C 0.65328 0.03629 0.83993 0.0
C1810 C 0.55159 0.97922 0.85295 0.0
C1811 C 0.53052 0.98209 0.84261 0.0
C1812 C 0.61111 0.01985 0.84151 0.0
C1813 C 0.55103 0.00569 0.83213 0.0
C1814 C 0.67308 0.06097 0.82958 0.0
C1815 C 0.71058 0.03631 0.84625 0.0
N1816 N 0.59016 0.02341 0.83181 0.0
N1817 N 0.67276 0.02511 0.84801 0.0
H1818 H 0.91283 0.64066 0.81999 0.0
H1819 H 0.04359 0.58195 0.86185 0.0
H1820 H 0.98427 0.70901 0.85166 0.0
H1821 H 0.98411 0.52368 0.82694 0.0
H1822 H 0.01431 0.62272 0.86037 0.0
H1823 H 0.93134 0.5922 0.82442 0.0
C1824 C 0.93231 0.64535 0.82793 0.0
C1825 C 0.9474 0.67904 0.83539 0.0
C1826 C 0.00736 0.60073 0.85311 0.0
C1827 C 0.96872 0.62363 0.84054 0.0
C1828 C 0.02389 0.57724 0.85399 0.0
C1829 C 0.0166 0.5495 0.84443 0.0
C1830 C 0.98328 0.59642 0.84264 0.0
C1831 C 0.99085 0.54485 0.83447 0.0
C1832 C 0.94285 0.61765 0.83046 0.0
C1833 C 0.97223 0.68352 0.84563 0.0
N1834 N 0.97538 0.56826 0.83379 0.0
N1835 N 0.98234 0.65621 0.84786 0.0
H1836 H 0.29699 0.27206 0.85403 0.0
H1837 H 0.4756 0.46294 0.82528 0.0
H1838 H 0.35957 0.27401 0.81994 0.0
H1839 H 0.41877 0.46062 0.86092 0.0
H1840 H 0.43761 0.39264 0.82442 0.0
H1841 H 0.34517 0.33984 0.85799 0.0
C1842 C 0.3211 0.28669 0.84746 0.0
C1843 C 0.32416 0.26769 0.83657 0.0
C1844 C 0.43372 0.40746 0.83251 0.0
C1845 C 0.37912 0.34504 0.84095 0.0
C1846 C 0.45545 0.44767 0.83301 0.0
C1847 C 0.45009 0.46781 0.84311 0.0
C1848 C 0.40614 0.38719 0.84211 0.0
C1849 C 0.42374 0.44637 0.8529 0.0
C1850 C 0.34858 0.32534 0.84972 0.0
C1851 C 0.35599 0.28778 0.82839 0.0
N1852 N 0.40243 0.40727 0.85207 0.0
N1853 N 0.38203 0.32547 0.83068 0.0
H1854 H 0.68335 0.86805 0.01996 0.0
H1855 H 0.69021 0.05769 0.99276 0.0
H1856 H 0.62503 0.87052 0.98522 0.0
H1857 H 0.75493 0.05713 0.02595 0.0
H1858 H 0.67178 0.99057 0.98847 0.0
H1859 H 0.71585 0.93839 0.0209 0.0
C1860 C 0.67777 0.88336 0.01242 0.0
C1861 C 0.651 0.86323 1.00258 0.0
C1862 C 0.69036 0.0052 0.99662 0.0
C1863 C 0.68784 0.94385 1.00369 0.0
C1864 C 0.70093 0.04354 0.99905 0.0
C1865 C 0.72388 0.06281 0.00977 0.0
C1866 C 0.70257 0.98589 1.00504 0.0
C1867 C 0.73693 0.04316 0.01763 0.0
C1868 C 0.69632 0.92358 0.01297 0.0
C1869 C 0.64518 0.88472 0.99304 0.0
N1870 N 0.72576 0.00562 0.01519 0.0
N1871 N 0.66305 0.92381 0.99393 0.0
H1872 H 0.93531 0.69314 0.02644 0.0
H1873 H 0.12534 0.75224 0.98514 0.0
H1874 H 0.93749 0.63157 0.99261 0.0
H1875 H 0.1259 0.8029 0.02196 0.0
H1876 H 0.05508 0.71522 0.98586 0.0
H1877 H 0.00332 0.74065 0.023 0.0
C1878 C 0.95007 0.68987 0.0182 0.0
C1879 C 0.93102 0.65819 0.00988 0.0
C1880 C 0.07054 0.73467 0.99373 0.0
C1881 C 0.00877 0.71231 1.00591 0.0
C1882 C 0.11072 0.75593 0.99333 0.0
C1883 C 0.13166 0.78041 1.0036 0.0
C1884 C 0.05103 0.73787 1.00447 0.0
C1885 C 0.11102 0.78416 0.01389 0.0
C1886 C 0.98888 0.71696 0.01626 0.0
C1887 C 0.95131 0.65544 0.99931 0.0
N1888 N 0.07184 0.76284 0.01411 0.0
N1889 N 0.98924 0.68201 0.99769 0.0
H1890 H 0.19397 0.32545 0.02405 0.0
H1891 H 0.37513 0.31746 0.99523 0.0
H1892 H 0.25202 0.38296 0.98889 0.0
H1893 H 0.30963 0.25108 0.02812 0.0
H1894 H 0.32842 0.33936 0.99205 0.0
H1895 H 0.23395 0.29524 0.02505 0.0
C1896 C 0.21487 0.33149 0.01648 0.0
C1897 C 0.2198 0.35703 0.00643 0.0
C1898 C 0.32412 0.31979 0.99991 0.0
C1899 C 0.26592 0.32276 0.00756 0.0
C1900 C 0.35077 0.30733 1.00172 0.0
C1901 C 0.34632 0.28274 0.01201 0.0
C1902 C 0.293 0.30768 0.00851 0.0
C1903 C 0.31423 0.27029 0.02012 0.0
C1904 C 0.23772 0.31423 0.01706 0.0
C1905 C 0.24727 0.36362 0.99686 0.0
N1906 N 0.28896 0.28312 0.01826 0.0
N1907 N 0.2695 0.34687 0.99773 0.0
H1908 H 0.13093 0.37742 0.48587 0.0
H1909 H 0.93878 0.24373 0.52602 0.0
H1910 H 0.1291 0.3234 0.52213 0.0
H1911 H 0.94315 0.31434 0.4939 0.0
H1912 H 0.00673 0.26431 0.52257 0.0
H1913 H 0.06064 0.34608 0.48657 0.0
C1914 C 0.11578 0.35859 0.4939 0.0
C1915 C 0.13607 0.35335 0.50403 0.0
C1916 C 0.99283 0.27515 0.51622 0.0
C1917 C 0.05551 0.31752 0.50488 0.0
C1918 C 0.95403 0.26339 0.51817 0.0
C1919 C 0.93555 0.27777 0.51032 0.0
C1920 C 0.01332 0.30146 0.50633 0.0
C1921 C 0.95651 0.30288 0.50023 0.0
C1922 C 0.07561 0.34084 0.49431 0.0
C1923 C 0.11477 0.32857 0.51416 0.0
N1924 N 0.99443 0.31416 0.49857 0.0
N1925 N 0.07568 0.31178 0.51436 0.0
H1926 H 0.62443 0.75484 0.48374 0.0
H1927 H 0.75891 0.69935 0.52483 0.0
H1928 H 0.68239 0.81234 0.51894 0.0
H1929 H 0.68688 0.6307 0.49331 0.0
H1930 H 0.73984 0.74755 0.52052 0.0
H1931 H 0.6561 0.71625 0.48479 0.0
C1932 C 0.64427 0.75984 0.49159 0.0
C1933 C 0.6504 0.78665 0.50135 0.0
C1934 C 0.72844 0.72212 0.51447 0.0
C1935 C 0.68653 0.74224 0.50264 0.0
C1936 C 0.73933 0.69462 0.51692 0.0
C1937 C 0.72412 0.66086 0.50949 0.0
C1938 C 0.70212 0.71583 0.50451 0.0
C1939 C 0.69911 0.65628 0.4993 0.0
C1940 C 0.66221 0.73762 0.4922 0.0
C1941 C 0.67649 0.7918 0.51126 0.0
N1942 N 0.68863 0.68334 0.49717 0.0
N1943 N 0.69332 0.76957 0.5117 0.0
H1944 H 0.24341 0.86713 0.48331 0.0
H1945 H 0.30094 0.05824 0.524 0.0
H1946 H 0.18636 0.86866 0.51844 0.0
H1947 H 0.36858 0.05398 0.49237 0.0
H1948 H 0.25248 0.99089 0.51991 0.0
H1949 H 0.2827 0.93739 0.48427 0.0
C1950 C 0.23868 0.88222 0.49113 0.0
C1951 C 0.21175 0.86182 0.50089 0.0
C1952 C 0.27776 0.00471 0.51379 0.0
C1953 C 0.25697 0.94238 0.50207 0.0
C1954 C 0.30542 0.04316 0.51612 0.0
C1955 C 0.33898 0.06147 0.5086 0.0
C1956 C 0.28367 0.9844 0.50386 0.0
C1957 C 0.34322 0.04075 0.49845 0.0
C1958 C 0.2613 0.92238 0.49169 0.0
C1959 C 0.20694 0.88307 0.51075 0.0
N1960 N 0.31599 0.00318 0.49643 0.0
N1961 N 0.22956 0.92213 0.51115 0.0
H1962 H 0.03379 0.46086 0.3602 0.0
H1963 H 0.9029 0.2693 0.31936 0.0
H1964 H 0.98543 0.46016 0.32289 0.0
H1965 H 0.96776 0.27291 0.35309 0.0
H1966 H 0.92337 0.33743 0.32259 0.0
H1967 H 0.00018 0.39047 0.35977 0.0
C1968 C 0.01575 0.44596 0.35197 0.0
C1969 C 0.01285 0.46657 0.34148 0.0
C1970 C 0.93285 0.32325 0.32936 0.0
C1971 C 0.97439 0.38585 0.34093 0.0
C1972 C 0.92113 0.28438 0.32753 0.0
C1973 C 0.93408 0.2657 0.33589 0.0
C1974 C 0.95764 0.34354 0.33963 0.0
C1975 C 0.95741 0.28641 0.34637 0.0
C1976 C 0.99665 0.40572 0.35173 0.0
C1977 C 0.98886 0.44556 0.33113 0.0
N1978 N 0.96872 0.32436 0.34789 0.0
N1979 N 0.9708 0.40637 0.33108 0.0
H1980 H 0.72413 0.63384 0.32009 0.0
H1981 H 0.53444 0.57679 0.36144 0.0
H1982 H 0.7218 0.70007 0.35253 0.0
H1983 H 0.53416 0.52326 0.32525 0.0
H1984 H 0.60477 0.61494 0.36047 0.0
H1985 H 0.6564 0.58634 0.32399 0.0
C1986 C 0.70938 0.6382 0.32811 0.0
C1987 C 0.72836 0.67107 0.33593 0.0
C1988 C 0.58932 0.59456 0.35281 0.0
C1989 C 0.65091 0.61689 0.34044 0.0
C1990 C 0.54913 0.5726 0.35337 0.0
C1991 C 0.52826 0.54704 0.34333 0.0
C1992 C 0.60881 0.59087 0.34215 0.0
C1993 C 0.54897 0.54286 0.33315 0.0
C1994 C 0.67073 0.61109 0.33032 0.0
C1995 C 0.70807 0.67519 0.34624 0.0
N1996 N 0.58807 0.56478 0.33278 0.0
N1997 N 0.67029 0.64852 0.34815 0.0
H1998 H 0.29194 0.01971 0.35246 0.0
H1999 H 0.46867 0.00598 0.32265 0.0
H2000 H 0.35345 0.08078 0.31825 0.0
H2001 H 0.41262 0.95189 0.35846 0.0
H2002 H 0.43025 0.03789 0.32178 0.0
H2003 H 0.33917 0.99867 0.35577 0.0
C2004 C 0.31559 0.0289 0.34571 0.0
C2005 C 0.31866 0.05161 0.33499 0.0
C2006 C 0.42662 0.01931 0.32989 0.0
C2007 C 0.37259 0.02758 0.33865 0.0
C2008 C 0.44858 0.00108 0.3304 0.0
C2009 C 0.4436 0.97587 0.34057 0.0
C2010 C 0.39932 0.01211 0.33959 0.0
C2011 C 0.41727 0.97083 0.35037 0.0
C2012 C 0.34254 0.01692 0.34759 0.0
C2013 C 0.34992 0.06298 0.32658 0.0
N2014 N 0.39587 0.98848 0.34957 0.0
N2015 N 0.37549 0.05055 0.32851 0.0
H2016 H 0.08324 0.31271 0.05267 0.0
H2017 H 0.10419 0.35278 0.12886 0.0
H2018 H 0.15545 0.42551 0.06917 0.0
H2019 H 0.06141 0.23977 0.11227 0.0
H2020 H 0.11492 0.38013 0.10705 0.0
H2021 H 0.06663 0.28554 0.0745 0.0
C2022 C 0.09538 0.33175 0.0609 0.0
C2023 C 0.12087 0.37133 0.05915 0.0
C2024 C 0.10305 0.34933 0.10819 0.0
C2025 C 0.10194 0.34063 0.08409 0.0
C2026 C 0.09682 0.33374 0.12062 0.0
C2027 C 0.08208 0.29404 0.12233 0.0
C2028 C 0.09406 0.32493 0.09742 0.0
C2029 C 0.073 0.27059 0.11135 0.0
C2030 C 0.08601 0.31626 0.07334 0.0
C2031 C 0.13581 0.39478 0.07012 0.0
N2032 N 0.07913 0.28636 0.09937 0.0
N2033 N 0.12613 0.37909 0.08212 0.0
H2034 H 0.63251 0.71082 0.05956 0.0
H2035 H 0.71316 0.85953 0.11863 0.0
H2036 H 0.62945 0.81694 0.06127 0.0
H2037 H 0.69138 0.74288 0.12201 0.0
H2038 H 0.68761 0.84559 0.09674 0.0
H2039 H 0.6589 0.723 0.08162 0.0
C2040 C 0.63748 0.73667 0.06457 0.0
C2041 C 0.62882 0.76294 0.05862 0.0
C2042 C 0.68829 0.82291 0.10224 0.0
C2043 C 0.65899 0.77708 0.08368 0.0
C2044 C 0.70296 0.8309 0.11474 0.0
C2045 C 0.70428 0.80228 0.12213 0.0
C2046 C 0.67502 0.78603 0.09698 0.0
C2047 C 0.69072 0.7657 0.11661 0.0
C2048 C 0.6524 0.74354 0.07714 0.0
C2049 C 0.63569 0.79592 0.0655 0.0
N2050 N 0.6767 0.75859 0.10432 0.0
N2051 N 0.65043 0.80208 0.07762 0.0
H2052 H 0.20188 0.95634 0.112 0.0
H2053 H 0.2496 0.82329 0.06715 0.0
H2054 H 0.23061 0.87323 0.1269 0.0
H2055 H 0.24134 0.91977 0.05251 0.0
H2056 H 0.24281 0.84138 0.08909 0.0
H2057 H 0.21689 0.94425 0.09021 0.0
C2058 C 0.21175 0.93583 0.11069 0.0
C2059 C 0.21493 0.91566 0.12125 0.0
C2060 C 0.24268 0.85877 0.08111 0.0
C2061 C 0.23166 0.90128 0.09633 0.0
C2062 C 0.24645 0.84839 0.06857 0.0
C2063 C 0.24588 0.87 0.05802 0.0
C2064 C 0.23793 0.89086 0.08313 0.0
C2065 C 0.24184 0.9023 0.0604 0.0
C2066 C 0.22026 0.9289 0.09825 0.0
C2067 C 0.22779 0.88939 0.11901 0.0
N2068 N 0.23777 0.91163 0.07271 0.0
N2069 N 0.23536 0.88271 0.10679 0.0
H2070 H 0.31251 0.08517 0.46039 0.0
H2071 H 0.35211 0.11179 0.3842 0.0
H2072 H 0.42465 0.16045 0.44398 0.0
H2073 H 0.23844 0.06115 0.40091 0.0
H2074 H 0.37976 0.12296 0.40598 0.0
H2075 H 0.28527 0.06909 0.43857 0.0
C2076 C 0.33139 0.09814 0.45218 0.0
C2077 C 0.37081 0.12428 0.45396 0.0
C2078 C 0.34876 0.1093 0.40487 0.0
C2079 C 0.34001 0.10599 0.42901 0.0
C2080 C 0.333 0.10283 0.39246 0.0
C2081 C 0.29299 0.08568 0.39079 0.0
C2082 C 0.32426 0.09819 0.41567 0.0
C2083 C 0.26948 0.0746 0.40179 0.0
C2084 C 0.31586 0.08905 0.43974 0.0
C2085 C 0.39405 0.14027 0.44302 0.0
N2086 N 0.28544 0.08104 0.41376 0.0
N2087 N 0.37832 0.13088 0.43101 0.0
H2088 H 0.89042 0.246 0.3857 0.0
H2089 H 0.90985 0.22211 0.46168 0.0
H2090 H 0.93352 0.17513 0.40151 0.0
H2091 H 0.84207 0.268 0.4453 0.0
H2092 H 0.92675 0.21218 0.43981 0.0
H2093 H 0.88076 0.26224 0.40762 0.0
C2094 C 0.89815 0.23413 0.3938 0.0
C2095 C 0.9126 0.20907 0.39182 0.0
C2096 C 0.9083 0.22455 0.44102 0.0
C2097 C 0.90162 0.22742 0.41691 0.0
C2098 C 0.89874 0.23029 0.45348 0.0
C2099 C 0.87441 0.24571 0.45526 0.0
C2100 C 0.89367 0.23466 0.4303 0.0
C2101 C 0.86078 0.25585 0.44433 0.0
C2102 C 0.89251 0.24328 0.4063 0.0
C2103 C 0.92217 0.19447 0.40264 0.0
N2104 N 0.87058 0.25015 0.43233 0.0
N2105 N 0.91643 0.2038 0.41473 0.0
H2106 H 0.85085 0.69831 0.39335 0.0
H2107 H 0.71152 0.63676 0.45481 0.0
H2108 H 0.74241 0.69688 0.39259 0.0
H2109 H 0.80799 0.61767 0.45112 0.0
H2110 H 0.72319 0.66217 0.43265 0.0
H2111 H 0.83666 0.67218 0.41514 0.0
C2112 C 0.82395 0.69243 0.3978 0.0
C2113 C 0.79774 0.69974 0.39118 0.0
C2114 C 0.74169 0.65233 0.4367 0.0
C2115 C 0.78126 0.66986 0.41624 0.0
C2116 C 0.73511 0.63794 0.44933 0.0
C2117 C 0.75888 0.62517 0.45477 0.0
C2118 C 0.77243 0.65417 0.42957 0.0
C2119 C 0.78899 0.62723 0.4473 0.0
C2120 C 0.81581 0.67743 0.41025 0.0
C2121 C 0.76333 0.69155 0.39739 0.0
N2122 N 0.79496 0.64153 0.43512 0.0
N2123 N 0.75609 0.67715 0.40962 0.0
H2124 H 0.92945 0.76537 0.9006 0.0
H2125 H 0.86895 0.57977 0.94476 0.0
H2126 H 0.91001 0.65668 0.8855 0.0
H2127 H 0.90308 0.69257 0.96007 0.0
H2128 H 0.88553 0.60753 0.92308 0.0
H2129 H 0.92123 0.73952 0.92246 0.0
C2130 C 0.9236 0.73606 0.90191 0.0
C2131 C 0.92025 0.71305 0.89124 0.0
C2132 C 0.88972 0.62631 0.93118 0.0
C2133 C 0.91061 0.68312 0.91626 0.0
C2134 C 0.88031 0.61048 0.94356 0.0
C2135 C 0.88456 0.63392 0.9542 0.0
C2136 C 0.90318 0.66586 0.9294 0.0
C2137 C 0.89936 0.67349 0.95211 0.0
C2138 C 0.91896 0.72132 0.9144 0.0
C2139 C 0.91274 0.67534 0.89348 0.0
N2140 N 0.90785 0.68816 0.93995 0.0
N2141 N 0.90792 0.66145 0.90574 0.0
H2142 H 0.36022 0.24123 0.88563 0.0
H2143 H 0.31944 0.24191 0.96144 0.0
H2144 H 0.24691 0.20143 0.90149 0.0
H2145 H 0.4282 0.26365 0.94571 0.0
H2146 H 0.29383 0.23411 0.93944 0.0
H2147 H 0.3873 0.25727 0.90745 0.0
C2148 C 0.34112 0.23627 0.8937 0.0
C2149 C 0.30128 0.21985 0.89178 0.0
C2150 C 0.32335 0.24074 0.9408 0.0
C2151 C 0.33193 0.23789 0.91677 0.0
C2152 C 0.33795 0.24523 0.95335 0.0
C2153 C 0.37589 0.25324 0.95537 0.0
C2154 C 0.34696 0.24449 0.93022 0.0
C2155 C 0.39871 0.25732 0.94457 0.0
C2156 C 0.35653 0.24526 0.90616 0.0
C2157 C 0.2778 0.21395 0.90257 0.0
N2158 N 0.3839 0.25284 0.93248 0.0
N2159 N 0.29344 0.22281 0.9146 0.0
H2160 H 0.85647 0.1507 0.89411 0.0
H2161 H 0.71407 0.07523 0.95477 0.0
H2162 H 0.74399 0.04843 0.89239 0.0
H2163 H 0.81375 0.18925 0.9519 0.0
H2164 H 0.72605 0.06179 0.93264 0.0
H2165 H 0.84293 0.16234 0.91604 0.0
C2166 C 0.82884 0.13069 0.89837 0.0
C2167 C 0.80126 0.09861 0.89145 0.0
C2168 C 0.74522 0.08973 0.93687 0.0
C2169 C 0.78556 0.11161 0.91662 0.0
C2170 C 0.73848 0.09735 0.94948 0.0
C2171 C 0.76299 0.13338 0.95512 0.0
C2172 C 0.7769 0.11829 0.92997 0.0
C2173 C 0.79415 0.1611 0.9479 0.0
C2174 C 0.82109 0.13738 0.91089 0.0
C2175 C 0.76595 0.07358 0.89743 0.0
N2176 N 0.80026 0.15294 0.93573 0.0
N2177 N 0.75911 0.08053 0.90972 0.0
H2178 H 0.63505 0.92174 0.55867 0.0
H2179 H 0.7088 0.8496 0.61856 0.0
H2180 H 0.62548 0.80967 0.56093 0.0
H2181 H 0.69234 0.94797 0.62116 0.0
H2182 H 0.68305 0.8378 0.59667 0.0
H2183 H 0.6607 0.93524 0.5808 0.0
C2184 C 0.63842 0.90006 0.56382 0.0
C2185 C 0.62817 0.86455 0.55799 0.0
C2186 C 0.68493 0.86194 0.602 0.0
C2187 C 0.65752 0.87976 0.58317 0.0
C2188 C 0.6997 0.86873 0.6145 0.0
C2189 C 0.70262 0.89976 0.62167 0.0
C2190 C 0.67324 0.88657 0.59652 0.0
C2191 C 0.69044 0.92364 0.61594 0.0
C2192 C 0.65292 0.90771 0.57644 0.0
C2193 C 0.633 0.8374 0.56507 0.0
N2194 N 0.67638 0.91665 0.60366 0.0
N2195 N 0.64742 0.84562 0.57724 0.0
H2196 H 0.07554 0.71318 0.5578 0.0
H2197 H 0.1519 0.85714 0.61818 0.0
H2198 H 0.18938 0.81324 0.56037 0.0
H2199 H 0.04939 0.7449 0.62008 0.0
H2200 H 0.16328 0.84303 0.59628 0.0
H2201 H 0.06247 0.72564 0.57993 0.0
C2202 C 0.0977 0.73775 0.56302 0.0
C2203 C 0.13358 0.76224 0.5573 0.0
C2204 C 0.13831 0.82137 0.60146 0.0
C2205 C 0.11889 0.77672 0.58245 0.0
C2206 C 0.13179 0.82945 0.61397 0.0
C2207 C 0.09971 0.8021 0.62093 0.0
C2208 C 0.1124 0.78574 0.59579 0.0
C2209 C 0.07453 0.7667 0.61501 0.0
C2210 C 0.09029 0.74479 0.57563 0.0
C2211 C 0.16134 0.79364 0.56444 0.0
N2212 N 0.08133 0.75954 0.60274 0.0
N2213 N 0.15338 0.80002 0.57661 0.0
H2214 H 0.22301 0.31171 0.5525 0.0
H2215 H 0.24201 0.35313 0.62865 0.0
H2216 H 0.26694 0.42522 0.56882 0.0
H2217 H 0.17298 0.23968 0.61221 0.0
H2218 H 0.25881 0.38015 0.60681 0.0
H2219 H 0.21175 0.28473 0.57437 0.0
C2220 C 0.23048 0.33094 0.56069 0.0
C2221 C 0.24575 0.37068 0.55888 0.0
C2222 C 0.24008 0.34932 0.60799 0.0
C2223 C 0.23313 0.34019 0.58387 0.0
C2224 C 0.2306 0.33393 0.62044 0.0
C2225 C 0.20597 0.29419 0.62221 0.0
C2226 C 0.22507 0.32471 0.59725 0.0
C2227 C 0.19195 0.27053 0.61126 0.0
C2228 C 0.22397 0.31556 0.57316 0.0
C2229 C 0.25495 0.39436 0.56981 0.0
N2230 N 0.20168 0.28613 0.59925 0.0
N2231 N 0.24851 0.37878 0.58184 0.0
H2232 H 0.96007 0.48591 0.72719 0.0
H2233 H 0.02707 0.41075 0.78801 0.0
H2234 H 0.96938 0.38319 0.72559 0.0
H2235 H 0.04355 0.52549 0.78475 0.0
H2236 H 0.00135 0.39707 0.76589 0.0
H2237 H 0.98601 0.49794 0.74905 0.0
C2238 C 0.96764 0.46587 0.73146 0.0
C2239 C 0.96266 0.43355 0.72459 0.0
C2240 C 0.01068 0.42523 0.77003 0.0
C2241 C 0.99224 0.447 0.7497 0.0
C2242 C 0.02522 0.43299 0.78264 0.0
C2243 C 0.0374 0.46929 0.78818 0.0
C2244 C 0.008 0.4539 0.76303 0.0
C2245 C 0.03449 0.49713 0.78084 0.0
C2246 C 0.98252 0.47278 0.74395 0.0
C2247 C 0.97292 0.40851 0.73059 0.0
N2248 N 0.01998 0.48882 0.76868 0.0
N2249 N 0.98712 0.41567 0.74285 0.0
H2250 H 0.59564 0.50024 0.73544 0.0
H2251 H 0.51252 0.60634 0.77908 0.0
H2252 H 0.56111 0.57834 0.7199 0.0
H2253 H 0.5725 0.55127 0.79487 0.0
H2254 H 0.52843 0.59504 0.75734 0.0
H2255 H 0.58575 0.51701 0.75725 0.0
C2256 C 0.58611 0.52106 0.73664 0.0
C2257 C 0.57909 0.53789 0.72587 0.0
C2258 C 0.53836 0.58563 0.76554 0.0
C2259 C 0.56741 0.55701 0.7508 0.0
C2260 C 0.52924 0.59203 0.77796 0.0
C2261 C 0.54118 0.57964 0.78877 0.0
C2262 C 0.55919 0.56626 0.7639 0.0
C2263 C 0.56278 0.56128 0.78677 0.0
C2264 C 0.58054 0.53068 0.74909 0.0
C2265 C 0.56684 0.56471 0.72796 0.0
N2266 N 0.57085 0.55487 0.77458 0.0
N2267 N 0.56112 0.57325 0.74018 0.0
H2268 H 0.42161 0.97904 0.7181 0.0
H2269 H 0.44218 0.01912 0.79426 0.0
H2270 H 0.49216 0.09207 0.73467 0.0
H2271 H 0.40044 0.90614 0.77778 0.0
H2272 H 0.45281 0.0463 0.77245 0.0
H2273 H 0.40559 0.95164 0.73991 0.0
C2274 C 0.4335 0.99808 0.72634 0.0
C2275 C 0.45834 0.0378 0.72461 0.0
C2276 C 0.44123 0.01555 0.77361 0.0
C2277 C 0.44011 0.00683 0.74952 0.0
C2278 C 0.43508 5e-05 0.78604 0.0
C2279 C 0.4206 0.9604 0.78779 0.0
C2280 C 0.43247 0.99114 0.76286 0.0
C2281 C 0.41182 0.93691 0.77683 0.0
C2282 C 0.42448 0.98245 0.73876 0.0
C2283 C 0.47301 0.06123 0.73559 0.0
N2284 N 0.41787 0.95262 0.76483 0.0
N2285 N 0.46366 0.04542 0.74758 0.0
H2286 H 0.55534 0.97759 0.21784 0.0
H2287 H 0.57484 0.01726 0.29403 0.0
H2288 H 0.59456 0.08995 0.23449 0.0
H2289 H 0.50516 0.90407 0.27747 0.0
H2290 H 0.59092 0.04462 0.27223 0.0
H2291 H 0.54521 0.95024 0.23964 0.0
C2292 C 0.56203 0.9965 0.22609 0.0
C2293 C 0.57561 0.036 0.2244 0.0
C2294 C 0.57222 0.01378 0.27337 0.0
C2295 C 0.56434 0.00511 0.24929 0.0
C2296 C 0.56316 0.99818 0.2858 0.0
C2297 C 0.53852 0.95842 0.28752 0.0
C2298 C 0.55683 0.98935 0.26261 0.0
C2299 C 0.52414 0.93493 0.27655 0.0
C2300 C 0.55615 0.9809 0.23851 0.0
C2301 C 0.58386 0.05928 0.23539 0.0
N2302 N 0.53351 0.95073 0.26456 0.0
N2303 N 0.57812 0.04351 0.24737 0.0
H2304 H 0.08989 0.60105 0.2766 0.0
H2305 H 0.89979 0.50261 0.23307 0.0
H2306 H 0.97525 0.55187 0.29242 0.0
H2307 H 0.01355 0.57567 0.21744 0.0
H2308 H 0.92679 0.51879 0.25486 0.0
H2309 H 0.06264 0.59059 0.25486 0.0
C2310 C 0.05895 0.58818 0.27548 0.0
C2311 C 0.03473 0.5772 0.2863 0.0
C2312 C 0.94585 0.5315 0.24668 0.0
C2313 C 0.00329 0.56484 0.26145 0.0
C2314 C 0.93047 0.52223 0.23424 0.0
C2315 C 0.95453 0.53779 0.22346 0.0
C2316 C 0.9857 0.55618 0.24836 0.0
C2317 C 0.99403 0.56307 0.22551 0.0
C2318 C 0.04342 0.58228 0.26307 0.0
C2319 C 0.9949 0.56072 0.28432 0.0
N2320 N 0.00844 0.57126 0.23772 0.0
N2321 N 0.98037 0.55476 0.27213 0.0
H2322 H 0.49563 0.40205 0.23489 0.0
H2323 H 0.39489 0.49093 0.2785 0.0
H2324 H 0.42284 0.44307 0.21925 0.0
H2325 H 0.44443 0.42562 0.29421 0.0
H2326 H 0.40643 0.47542 0.25674 0.0
H2327 H 0.47897 0.41217 0.25668 0.0
C2328 C 0.47601 0.41308 0.23606 0.0
C2329 C 0.46063 0.42184 0.22527 0.0
C2330 C 0.41458 0.46426 0.26493 0.0
C2331 C 0.44163 0.43375 0.25017 0.0
C2332 C 0.40805 0.47315 0.27735 0.0
C2333 C 0.41881 0.45957 0.28815 0.0
C2334 C 0.43242 0.44197 0.26327 0.0
C2335 C 0.43571 0.43664 0.28612 0.0
C2336 C 0.46645 0.41877 0.24849 0.0
C2337 C 0.43533 0.43598 0.22732 0.0
N2338 N 0.44226 0.42878 0.27392 0.0
N2339 N 0.42681 0.44175 0.23953 0.0
H2340 H 0.91892 0.10773 0.28129 0.0
H2341 H 0.09432 0.24511 0.23453 0.0
H2342 H 0.01814 0.21562 0.29253 0.0
H2343 H 0.99637 0.13887 0.22147 0.0
H2344 H 0.06893 0.23047 0.25644 0.0
H2345 H 0.94807 0.11463 0.2598 0.0
C2346 C 0.94683 0.13267 0.27926 0.0
C2347 C 0.96602 0.16128 0.28865 0.0
C2348 C 0.05303 0.21006 0.24884 0.0
C2349 C -0.0005 0.16931 0.26428 0.0
C2350 C 0.06769 0.21839 0.23633 0.0
C2351 C 0.04737 0.19324 0.22619 0.0
C2352 C 0.0175 0.17646 0.25126 0.0
C2353 C 0.01294 0.159 0.22905 0.0
C2354 C 0.96346 0.13662 0.26703 0.0
C2355 C 0.00216 0.19299 0.28556 0.0
N2356 N -0.00117 0.15176 0.24131 0.0
N2357 N 0.01757 0.19617 0.27368 0.0
H2358 H 0.88302 0.79958 0.28002 0.0
H2359 H 0.75379 0.85345 0.23522 0.0
H2360 H 0.78921 0.81393 0.29368 0.0
H2361 H 0.85491 0.85304 0.22114 0.0
H2362 H 0.76941 0.84275 0.25704 0.0
H2363 H 0.87615 0.82207 0.25858 0.0
C2364 C 0.86122 0.80767 0.27852 0.0
C2365 C 0.83644 0.8046 0.28857 0.0
C2366 C 0.78851 0.8454 0.24923 0.0
C2367 C 0.8284 0.83021 0.26426 0.0
C2368 C 0.77961 0.85164 0.23677 0.0
C2369 C 0.80303 0.85402 0.2264 0.0
C2370 C 0.82083 0.84098 0.25131 0.0
C2371 C 0.83613 0.8514 0.22892 0.0
C2372 C 0.85732 0.82053 0.26633 0.0
C2373 C 0.80874 0.81554 0.28618 0.0
N2374 N 0.84385 0.84457 0.24112 0.0
N2375 N 0.80535 0.8276 0.27429 0.0
H2376 H 0.15146 0.97333 0.29361 0.0
H2377 H 0.18815 0.0233 0.21881 0.0
H2378 H 0.21253 0.08977 0.27895 0.0
H2379 H 0.11271 0.90812 0.23299 0.0
H2380 H 0.19427 0.04832 0.24065 0.0
H2381 H 0.13382 0.94914 0.27159 0.0
C2382 C 0.16082 0.99386 0.28573 0.0
C2383 C 0.1837 0.03362 0.28807 0.0
C2384 C 0.17606 0.01762 0.23902 0.0
C2385 C 0.1639 0.00606 0.2628 0.0
C2386 C 0.17257 0.00327 0.22654 0.0
C2387 C 0.15008 0.96353 0.22413 0.0
C2388 C 0.15729 0.99201 0.24924 0.0
C2389 C 0.13038 0.93895 0.23446 0.0
C2390 C 0.15071 0.98 0.27316 0.0
C2391 C 0.19492 0.0589 0.27755 0.0
N2392 N 0.13478 0.95355 0.24662 0.0
N2393 N 0.18524 0.04466 0.26535 0.0
H2394 H 0.90257 0.75165 0.77836 0.0
H2395 H 0.07818 0.88824 0.73167 0.0
H2396 H -0.00015 0.85881 0.79117 0.0
H2397 H 0.97687 0.7827 0.71996 0.0
H2398 H 0.04911 0.88135 0.75316 0.0
H2399 H 0.9277 0.76614 0.75641 0.0
C2400 C 0.92898 0.77852 0.7765 0.0
C2401 C 0.94921 0.804 0.78657 0.0
C2402 C 0.03324 0.85989 0.74583 0.0
C2403 C 0.97876 0.8206 0.76147 0.0
C2404 C 0.04984 0.86382 0.7336 0.0
C2405 C 0.03002 0.83585 0.72409 0.0
C2406 C 0.99666 0.82781 0.74846 0.0
C2407 C 0.99333 0.8048 0.72704 0.0
C2408 C 0.94348 0.78678 0.76396 0.0
C2409 C 0.98336 0.83842 0.78363 0.0
N2410 N 0.97799 0.80157 0.73893 0.0
N2411 N 0.99733 0.84556 0.77136 0.0
H2412 H 0.11774 0.21225 0.73389 0.0
H2413 H 0.20767 0.11622 0.78026 0.0
H2414 H 0.18195 0.15932 0.72012 0.0
H2415 H 0.16563 0.1904 0.7937 0.0
H2416 H 0.18833 0.12199 0.75823 0.0
H2417 H 0.12482 0.19466 0.75603 0.0
C2418 C 0.13286 0.19651 0.73553 0.0
C2419 C 0.14955 0.18749 0.72522 0.0
C2420 C 0.18305 0.13672 0.76604 0.0
C2421 C 0.15786 0.16736 0.7504 0.0
C2422 C 0.19396 0.13329 0.77859 0.0
C2423 C 0.18852 0.15312 0.78875 0.0
C2424 C 0.16636 0.15988 0.76371 0.0
C2425 C 0.17066 0.17491 0.78609 0.0
C2426 C 0.13706 0.18661 0.74814 0.0
C2427 C 0.16891 0.16709 0.72783 0.0
N2428 N 0.16037 0.17784 0.77384 0.0
N2429 N 0.1727 0.15789 0.74015 0.0
H2430 H 0.88769 0.08274 0.78052 0.0
H2431 H 0.75731 0.90313 0.73427 0.0
H2432 H 0.78817 0.97646 0.79274 0.0
H2433 H 0.85759 0.00634 0.72059 0.0
H2434 H 0.7725 0.9283 0.7562 0.0
H2435 H 0.88123 0.05471 0.75886 0.0
C2436 C 0.86473 0.05352 0.77866 0.0
C2437 C 0.83825 0.03198 0.78837 0.0
C2438 C 0.79151 0.94543 0.74846 0.0
C2439 C 0.8307 -0.00017 0.76381 0.0
C2440 C 0.78286 0.93093 0.73593 0.0
C2441 C 0.80615 0.95274 0.72563 0.0
C2442 C 0.82351 0.98229 0.75072 0.0
C2443 C 0.83892 0.98863 0.72831 0.0
C2444 C 0.86103 0.03753 0.76634 0.0
C2445 C 0.80905 0.99424 0.78551 0.0
N2446 N 0.84644 0.00252 0.7406 0.0
N2447 N 0.80601 0.97951 0.77352 0.0
H2448 H 0.66434 0.47221 0.62618 0.0
H2449 H 0.64285 0.53259 0.55437 0.0
H2450 H 0.57119 0.48834 0.613 0.0
H2451 H 0.74147 0.524 0.56638 0.0
H2452 H 0.61429 0.51078 0.57552 0.0
H2453 H 0.6906 0.4847 0.60417 0.0
C2454 C 0.64907 0.47771 0.61861 0.0
C2455 C 0.61557 0.47931 0.62139 0.0
C2456 C 0.64214 0.51351 0.57361 0.0
C2457 C 0.64558 0.494 0.59631 0.0
C2458 C 0.65857 0.52607 0.5615 0.0
C2459 C 0.69475 0.53038 0.55863 0.0
C2460 C 0.66196 0.5052 0.58309 0.0
C2461 C 0.71358 0.5212 0.56824 0.0
C2462 C 0.6642 0.48507 0.60608 0.0
C2463 C 0.59709 0.48686 0.61128 0.0
N2464 N 0.69702 0.50919 0.5801 0.0
N2465 N 0.61243 0.4941 0.59924 0.0
H2466 H 0.51296 0.08389 0.61226 0.0
H2467 H 0.4743 0.2195 0.56475 0.0
H2468 H 0.5196 0.1896 0.625 0.0
H2469 H 0.46821 0.11263 0.55379 0.0
H2470 H 0.49537 0.21273 0.58648 0.0
H2471 H 0.50206 0.09789 0.59027 0.0
C2472 C 0.51261 0.11034 0.61037 0.0
C2473 C 0.5171 0.13556 0.62044 0.0
C2474 C 0.48958 0.19093 0.57927 0.0
C2475 C 0.50388 0.15163 0.59527 0.0
C2476 C 0.47755 0.1948 0.5669 0.0
C2477 C 0.46927 0.16646 0.55751 0.0
C2478 C 0.49338 0.15858 0.58216 0.0
C2479 C 0.47402 0.13505 0.56075 0.0
C2480 C 0.50621 0.11832 0.59782 0.0
C2481 C 0.51633 0.16943 0.61747 0.0
N2482 N 0.4856 0.13195 0.57276 0.0
N2483 N 0.50944 0.17635 0.60516 0.0
H2484 H 0.80546 0.32805 0.62612 0.0
H2485 H 0.87821 0.35767 0.55298 0.0
H2486 H 0.90917 0.42681 0.61195 0.0
H2487 H 0.7797 0.25206 0.5662 0.0
H2488 H 0.88462 0.38559 0.57422 0.0
H2489 H 0.7902 0.30227 0.60406 0.0
C2490 C 0.82465 0.34459 0.61833 0.0
C2491 C 0.85869 0.37955 0.62083 0.0
C2492 C 0.86146 0.35635 0.57255 0.0
C2493 C 0.84166 0.35021 0.5957 0.0
C2494 C 0.85777 0.3403 0.56039 0.0
C2495 C 0.82856 0.30233 0.55786 0.0
C2496 C 0.83587 0.33432 0.5824 0.0
C2497 C 0.80273 0.28139 0.5678 0.0
C2498 C 0.81604 0.32977 0.60577 0.0
C2499 C 0.88269 0.39972 0.61044 0.0
N2500 N 0.80714 0.2976 0.57971 0.0
N2501 N 0.87381 0.38467 0.59837 0.0
H2502 H 0.63767 0.1136 0.05326 0.0
H2503 H 0.66253 0.1919 0.12567 0.0
H2504 H 0.73984 0.21665 0.06606 0.0
H2505 H 0.56704 0.08457 0.11211 0.0
H2506 H 0.68842 0.20626 0.10362 0.0
H2507 H 0.60894 0.10721 0.07438 0.0
C2508 C 0.6541 0.13502 0.06055 0.0
C2509 C 0.69135 0.16555 0.05794 0.0
C2510 C 0.66159 0.1798 0.10546 0.0
C2511 C 0.65845 0.15832 0.08233 0.0
C2512 C 0.64668 0.17171 0.118 0.0
C2513 C 0.61264 0.13694 0.12069 0.0
C2514 C 0.6422 0.15294 0.09556 0.0
C2515 C 0.59339 0.11166 0.11046 0.0
C2516 C 0.6376 0.13135 0.07264 0.0
C2517 C 0.7111 0.19259 0.06773 0.0
N2518 N 0.60853 0.12006 0.0984 0.0
N2519 N 0.69448 0.18822 0.07956 0.0
H2520 H 0.90794 0.47787 0.11065 0.0
H2521 H 0.77397 0.52299 0.06493 0.0
H2522 H 0.80325 0.4718 0.1242 0.0
H2523 H 0.87192 0.5147 0.05196 0.0
H2524 H 0.78115 0.50117 0.08647 0.0
H2525 H 0.89216 0.4876 0.08875 0.0
C2526 C 0.88132 0.47804 0.10896 0.0
C2527 C 0.85691 0.47409 0.11922 0.0
C2528 C 0.80081 0.50386 0.07885 0.0
C2529 C 0.83886 0.48604 0.09418 0.0
C2530 C 0.79671 0.51631 0.06659 0.0
C2531 C 0.82258 0.52096 0.05671 0.0
C2532 C 0.83101 0.49617 0.08115 0.0
C2533 C 0.85151 0.51186 0.05933 0.0
C2534 C 0.87231 0.48373 0.09645 0.0
C2535 C 0.82279 0.47465 0.11651 0.0
N2536 N 0.85504 0.50017 0.07126 0.0
N2537 N 0.81496 0.481 0.10426 0.0
H2538 H 0.55614 0.41183 0.11451 0.0
H2539 H 0.41922 0.23529 0.06797 0.0
H2540 H 0.44753 0.31332 0.12558 0.0
H2541 H 0.52551 0.33303 0.05486 0.0
H2542 H 0.43365 0.26125 0.08982 0.0
H2543 H 0.54955 0.38214 0.09311 0.0
C2544 C 0.53109 0.384 0.11245 0.0
C2545 C 0.5022 0.36514 0.12176 0.0
C2546 C 0.45412 0.27697 0.08222 0.0
C2547 C 0.49457 0.33104 0.09753 0.0
C2548 C 0.44592 0.26198 0.06975 0.0
C2549 C 0.47113 0.2821 0.05962 0.0
C2550 C 0.48765 0.31263 0.0846 0.0
C2551 C 0.50533 0.31662 0.06245 0.0
C2552 C 0.52734 0.36705 0.10028 0.0
C2553 C 0.47038 0.32907 0.11867 0.0
N2554 N 0.51244 0.33106 0.07467 0.0
N2555 N 0.46741 0.31335 0.10686 0.0
H2556 H 0.31754 0.87731 0.88795 0.0
H2557 H 0.32813 0.80133 0.95827 0.0
H2558 H 0.40497 0.84899 0.89813 0.0
H2559 H 0.2391 0.82402 0.94519 0.0
H2560 H 0.35532 0.81445 0.93636 0.0
H2561 H 0.28791 0.85504 0.90888 0.0
C2562 C 0.33059 0.86635 0.89463 0.0
C2563 C 0.36392 0.86518 0.8913 0.0
C2564 C 0.32957 0.81607 0.93827 0.0
C2565 C 0.32978 0.83932 0.91553 0.0
C2566 C 0.31393 0.80837 0.95073 0.0
C2567 C 0.28139 0.81172 0.95352 0.0
C2568 C 0.31251 0.82723 0.9286 0.0
C2569 C 0.26426 0.8212 0.94347 0.0
C2570 C 0.31349 0.85346 0.90662 0.0
C2571 C 0.37936 0.85051 0.90036 0.0
N2572 N 0.28016 0.82886 0.93152 0.0
N2573 N 0.36222 0.83826 0.91214 0.0
H2574 H 0.17556 0.41542 0.94679 0.0
H2575 H 0.13894 0.55292 0.89955 0.0
H2576 H 0.18504 0.5224 0.95952 0.0
H2577 H 0.13362 0.44674 0.88812 0.0
H2578 H 0.15949 0.54535 0.92126 0.0
H2579 H 0.16476 0.42972 0.92481 0.0
C2580 C 0.17586 0.44221 0.9449 0.0
C2581 C 0.18114 0.46772 0.95496 0.0
C2582 C 0.15399 0.52387 0.91395 0.0
C2583 C 0.16806 0.48414 0.92981 0.0
C2584 C 0.14224 0.52819 0.9016 0.0
C2585 C 0.13435 0.50031 0.89207 0.0
C2586 C 0.15783 0.49148 0.91671 0.0
C2587 C 0.13916 0.46884 0.89519 0.0
C2588 C 0.16953 0.45035 0.93235 0.0
C2589 C 0.18116 0.502 0.952 0.0
N2590 N 0.15042 0.46526 0.9072 0.0
N2591 N 0.17434 0.50908 0.9397 0.0
H2592 H 0.45312 0.57105 0.90052 0.0
H2593 H 0.54049 0.75681 0.94693 0.0
H2594 H 0.5162 0.68849 0.88683 0.0
H2595 H 0.49897 0.64062 0.96042 0.0
H2596 H 0.5218 0.7317 0.92489 0.0
H2597 H 0.45959 0.59547 0.92266 0.0
C2598 C 0.46786 0.60191 0.90217 0.0
C2599 C 0.48442 0.6278 0.89189 0.0
C2600 C 0.5165 0.71169 0.9327 0.0
C2601 C 0.49202 0.65594 0.91707 0.0
C2602 C 0.52705 0.72602 0.94526 0.0
C2603 C 0.52154 0.70077 0.95545 0.0
C2604 C 0.50013 0.67185 0.93038 0.0
C2605 C 0.50402 0.66112 0.95279 0.0
C2606 C 0.47171 0.61587 0.91478 0.0
C2607 C 0.50328 0.66755 0.89453 0.0
N2608 N 0.49409 0.6479 0.94053 0.0
N2609 N 0.50674 0.6804 0.90684 0.0
H2610 H 0.35919 0.50206 0.46095 0.0
H2611 H 0.30562 0.47616 0.38626 0.0
H2612 H 0.24236 0.45176 0.44696 0.0
H2613 H 0.42245 0.54257 0.40027 0.0
H2614 H 0.28194 0.46969 0.40832 0.0
H2615 H 0.38288 0.51984 0.43891 0.0
C2616 C 0.3385 0.49505 0.45322 0.0
C2617 C 0.29873 0.47519 0.45575 0.0
C2618 C 0.31274 0.48601 0.4066 0.0
C2619 C 0.32568 0.49518 0.43043 0.0
C2620 C 0.32631 0.4897 0.39401 0.0
C2621 C 0.36608 0.50974 0.39147 0.0
C2622 C 0.33913 0.50211 0.41681 0.0
C2623 C 0.39157 0.52684 0.40183 0.0
C2624 C 0.35208 0.50526 0.44063 0.0
C2625 C 0.27324 0.46699 0.4454 0.0
N2626 N 0.37767 0.52229 0.41408 0.0
N2627 N 0.28715 0.47668 0.43316 0.0
H2628 H 0.47165 0.80481 0.38673 0.0
H2629 H 0.52695 0.88484 0.45894 0.0
H2630 H 0.4855 0.91321 0.39992 0.0
H2631 H 0.52358 0.78028 0.4466 0.0
H2632 H 0.50529 0.8914 0.43772 0.0
H2633 H 0.48353 0.79092 0.40882 0.0
C2634 C 0.47653 0.82536 0.39432 0.0
C2635 C 0.47766 0.86026 0.39152 0.0
C2636 C 0.50912 0.86689 0.43957 0.0
C2637 C 0.49162 0.84478 0.4167 0.0
C2638 C 0.52157 0.86312 0.45173 0.0
C2639 C 0.52736 0.83209 0.45452 0.0
C2640 C 0.50242 0.83951 0.42998 0.0
C2641 C 0.51962 0.80473 0.44481 0.0
C2642 C 0.48355 0.81753 0.40689 0.0
C2643 C 0.48441 0.886 0.40166 0.0
N2644 N 0.50771 0.80917 0.43291 0.0
N2645 N 0.4913 0.87783 0.41375 0.0
H2646 H 0.20593 0.75613 0.44513 0.0
H2647 H 0.1165 0.57137 0.39825 0.0
H2648 H 0.13812 0.63879 0.45857 0.0
H2649 H 0.16119 0.68833 0.38506 0.0
H2650 H 0.13395 0.59566 0.42045 0.0
H2651 H 0.19952 0.73185 0.423 0.0
C2652 C 0.19007 0.72528 0.44343 0.0
C2653 C 0.17228 0.69943 0.45364 0.0
C2654 C 0.14021 0.61599 0.41266 0.0
C2655 C 0.1648 0.67143 0.42844 0.0
C2656 C 0.13039 0.60213 0.40002 0.0
C2657 C 0.13716 0.62787 0.38987 0.0
C2658 C 0.15717 0.65584 0.41509 0.0
C2659 C 0.15519 0.66748 0.39265 0.0
C2660 C 0.18629 0.71141 0.43081 0.0
C2661 C 0.15204 0.65972 0.45093 0.0
N2662 N 0.16443 0.68023 0.40498 0.0
N2663 N 0.14872 0.64693 0.4386 0.0
loop_
_geom_bond_atom_site_label_1
_geom_bond_atom_site_label_2
_geom_bond_distance
_geom_bond_site_symmetry_2
_ccdc_geom_bond_type
Dy0 O4 2.398 . S
Dy0 O5 2.491 . S
Dy0 O6 2.403 . S
Dy0 O7 2.664 . S
Dy0 O11 2.326 . S
Dy0 O15 2.310 . S
Dy0 O16 2.351 . S
C1 O12 1.185 . S
C1 O13 1.355 . S
C2 O4 1.185 . S
C2 O5 1.355 . S
Dy3 O7 2.310 . S
Dy3 O10 2.351 . S
Dy3 O12 2.398 . S
Dy3 O13 2.491 . S
Dy3 O14 2.403 . S
Dy3 O15 2.664 . S
Dy3 O17 2.326 . S
O4 Dy0 2.398 . S
O4 C2 1.185 . S
O5 Dy0 2.491 . S
O5 C2 1.355 . S
O6 Dy0 2.403 . S
O6 C8 1.254 . S
O7 Dy0 2.664 . S
O7 Dy3 2.310 . S
O7 C8 1.268 . S
C8 O6 1.254 . S
C8 O7 1.268 . S
C9 O14 1.254 . S
C9 O15 1.268 . S
O10 Dy3 2.351 . S
O10 C18 1.249 . S
O11 Dy0 2.326 . S
O11 C18 1.267 . S
O12 C1 1.185 . S
O12 Dy3 2.398 . S
O13 C1 1.355 . S
O13 Dy3 2.491 . S
O14 Dy3 2.403 . S
O14 C9 1.254 . S
O15 Dy0 2.310 . S
O15 Dy3 2.664 . S
O15 C9 1.268 . S
O16 Dy0 2.351 . S
O16 C19 1.249 . S
O17 Dy3 2.326 . S
O17 C19 1.267 . S
C18 O10 1.249 . S
C18 O11 1.267 . S
C19 O16 1.249 . S
C19 O17 1.267 . S
Dy20 O24 2.398 . S
Dy20 O25 2.491 . S
Dy20 O26 2.403 . S
Dy20 O27 2.664 . S
Dy20 O31 2.326 . S
Dy20 O35 2.310 . S
Dy20 O36 2.351 . S
C21 O32 1.185 . S
C21 O33 1.355 . S
C22 O24 1.185 . S
C22 O25 1.355 . S
Dy23 O27 2.310 . S
Dy23 O30 2.351 . S
Dy23 O32 2.398 . S
Dy23 O33 2.491 . S
Dy23 O34 2.403 . S
Dy23 O35 2.664 . S
Dy23 O37 2.326 . S
O24 Dy20 2.398 . S
O24 C22 1.185 . S
O25 Dy20 2.491 . S
O25 C22 1.355 . S
O26 Dy20 2.403 . S
O26 C28 1.254 . S
O27 Dy20 2.664 . S
O27 Dy23 2.310 . S
O27 C28 1.268 . S
C28 O26 1.254 . S
C28 O27 1.268 . S
C29 O34 1.254 . S
C29 O35 1.268 . S
O30 Dy23 2.351 . S
O30 C38 1.249 . S
O31 Dy20 2.326 . S
O31 C38 1.267 . S
O32 C21 1.185 . S
O32 Dy23 2.398 . S
O33 C21 1.355 . S
O33 Dy23 2.491 . S
O34 Dy23 2.403 . S
O34 C29 1.254 . S
O35 Dy20 2.310 . S
O35 Dy23 2.664 . S
O35 C29 1.268 . S
O36 Dy20 2.351 . S
O36 C39 1.249 . S
O37 Dy23 2.326 . S
O37 C39 1.267 . S
C38 O30 1.249 . S
C38 O31 1.267 . S
C39 O36 1.249 . S
C39 O37 1.267 . S
Dy40 O44 2.398 . S
Dy40 O45 2.491 . S
Dy40 O46 2.403 . S
Dy40 O47 2.664 . S
Dy40 O51 2.326 . S
Dy40 O55 2.310 . S
Dy40 O56 2.351 . S
C41 O52 1.185 . S
C41 O53 1.355 . S
C42 O44 1.185 . S
C42 O45 1.355 . S
Dy43 O47 2.310 . S
Dy43 O50 2.351 . S
Dy43 O52 2.398 . S
Dy43 O53 2.491 . S
Dy43 O54 2.403 . S
Dy43 O55 2.664 . S
Dy43 O57 2.326 . S
O44 Dy40 2.398 . S
O44 C42 1.185 . S
O45 Dy40 2.491 . S
O45 C42 1.355 . S
O46 Dy40 2.403 . S
O46 C48 1.254 . S
O47 Dy40 2.664 . S
O47 Dy43 2.310 . S
O47 C48 1.268 . S
C48 O46 1.254 . S
C48 O47 1.268 . S
C49 O54 1.254 . S
C49 O55 1.268 . S
O50 Dy43 2.351 . S
O50 C58 1.249 . S
O51 Dy40 2.326 . S
O51 C58 1.267 . S
O52 C41 1.185 . S
O52 Dy43 2.398 . S
O53 C41 1.355 . S
O53 Dy43 2.491 . S
O54 Dy43 2.403 . S
O54 C49 1.254 . S
O55 Dy40 2.310 . S
O55 Dy43 2.664 . S
O55 C49 1.268 . S
O56 Dy40 2.351 . S
O56 C59 1.249 . S
O57 Dy43 2.326 . S
O57 C59 1.267 . S
C58 O50 1.249 . S
C58 O51 1.267 . S
C59 O56 1.249 . S
C59 O57 1.267 . S
Dy60 O64 2.398 . S
Dy60 O65 2.491 . S
Dy60 O66 2.403 . S
Dy60 O67 2.664 . S
Dy60 O71 2.326 . S
Dy60 O75 2.310 . S
Dy60 O76 2.351 . S
C61 O72 1.185 . S
C61 O73 1.355 . S
C62 O64 1.185 . S
C62 O65 1.355 . S
Dy63 O67 2.310 . S
Dy63 O70 2.351 . S
Dy63 O72 2.398 . S
Dy63 O73 2.491 . S
Dy63 O74 2.403 . S
Dy63 O75 2.664 . S
Dy63 O77 2.326 . S
O64 Dy60 2.398 . S
O64 C62 1.185 . S
O65 Dy60 2.491 . S
O65 C62 1.355 . S
O66 Dy60 2.403 . S
O66 C68 1.254 . S
O67 Dy60 2.664 . S
O67 Dy63 2.310 . S
O67 C68 1.268 . S
C68 O66 1.254 . S
C68 O67 1.268 . S
C69 O74 1.254 . S
C69 O75 1.268 . S
O70 Dy63 2.351 . S
O70 C78 1.249 . S
O71 Dy60 2.326 . S
O71 C78 1.267 . S
O72 C61 1.185 . S
O72 Dy63 2.398 . S
O73 C61 1.355 . S
O73 Dy63 2.491 . S
O74 Dy63 2.403 . S
O74 C69 1.254 . S
O75 Dy60 2.310 . S
O75 Dy63 2.664 . S
O75 C69 1.268 . S
O76 Dy60 2.351 . S
O76 C79 1.249 . S
O77 Dy63 2.326 . S
O77 C79 1.267 . S
C78 O70 1.249 . S
C78 O71 1.267 . S
C79 O76 1.249 . S
C79 O77 1.267 . S
Dy80 O84 2.398 . S
Dy80 O85 2.491 . S
Dy80 O86 2.403 . S
Dy80 O87 2.664 . S
Dy80 O91 2.326 . S
Dy80 O95 2.310 . S
Dy80 O96 2.351 . S
C81 O92 1.185 . S
C81 O93 1.355 . S
C82 O84 1.185 . S
C82 O85 1.355 . S
Dy83 O87 2.310 . S
Dy83 O90 2.351 . S
Dy83 O92 2.398 . S
Dy83 O93 2.491 . S
Dy83 O94 2.403 . S
Dy83 O95 2.664 . S
Dy83 O97 2.326 . S
O84 Dy80 2.398 . S
O84 C82 1.185 . S
O85 Dy80 2.491 . S
O85 C82 1.355 . S
O86 Dy80 2.403 . S
O86 C88 1.254 . S
O87 Dy80 2.664 . S
O87 Dy83 2.310 . S
O87 C88 1.268 . S
C88 O86 1.254 . S
C88 O87 1.268 . S
C89 O94 1.254 . S
C89 O95 1.268 . S
O90 Dy83 2.351 . S
O90 C98 1.249 . S
O91 Dy80 2.326 . S
O91 C98 1.267 . S
O92 C81 1.185 . S
O92 Dy83 2.398 . S
O93 C81 1.355 . S
O93 Dy83 2.491 . S
O94 Dy83 2.403 . S
O94 C89 1.254 . S
O95 Dy80 2.310 . S
O95 Dy83 2.664 . S
O95 C89 1.268 . S
O96 Dy80 2.351 . S
O96 C99 1.249 . S
O97 Dy83 2.326 . S
O97 C99 1.267 . S
C98 O90 1.249 . S
C98 O91 1.267 . S
C99 O96 1.249 . S
C99 O97 1.267 . S
Dy100 O104 2.398 . S
Dy100 O105 2.491 . S
Dy100 O106 2.403 . S
Dy100 O107 2.664 . S
Dy100 O111 2.326 . S
Dy100 O115 2.310 . S
Dy100 O116 2.351 . S
C101 O112 1.185 . S
C101 O113 1.355 . S
C102 O104 1.185 . S
C102 O105 1.355 . S
Dy103 O107 2.310 . S
Dy103 O110 2.351 . S
Dy103 O112 2.398 . S
Dy103 O113 2.491 . S
Dy103 O114 2.403 . S
Dy103 O115 2.664 . S
Dy103 O117 2.326 . S
O104 Dy100 2.398 . S
O104 C102 1.185 . S
O105 Dy100 2.491 . S
O105 C102 1.355 . S
O106 Dy100 2.403 . S
O106 C108 1.254 . S
O107 Dy100 2.664 . S
O107 Dy103 2.310 . S
O107 C108 1.268 . S
C108 O106 1.254 . S
C108 O107 1.268 . S
C109 O114 1.254 . S
C109 O115 1.268 . S
O110 Dy103 2.351 . S
O110 C118 1.249 . S
O111 Dy100 2.326 . S
O111 C118 1.267 . S
O112 C101 1.185 . S
O112 Dy103 2.398 . S
O113 C101 1.355 . S
O113 Dy103 2.491 . S
O114 Dy103 2.403 . S
O114 C109 1.254 . S
O115 Dy100 2.310 . S
O115 Dy103 2.664 . S
O115 C109 1.268 . S
O116 Dy100 2.351 . S
O116 C119 1.249 . S
O117 Dy103 2.326 . S
O117 C119 1.267 . S
C118 O110 1.249 . S
C118 O111 1.267 . S
C119 O116 1.249 . S
C119 O117 1.267 . S
Dy120 O124 2.398 . S
Dy120 O125 2.491 . S
Dy120 O126 2.403 . S
Dy120 O127 2.664 . S
Dy120 O131 2.326 . S
Dy120 O135 2.310 . S
Dy120 O136 2.351 . S
C121 O132 1.185 . S
C121 O133 1.355 . S
C122 O124 1.185 . S
C122 O125 1.355 . S
Dy123 O127 2.310 . S
Dy123 O130 2.351 . S
Dy123 O132 2.398 . S
Dy123 O133 2.491 . S
Dy123 O134 2.403 . S
Dy123 O135 2.664 . S
Dy123 O137 2.326 . S
O124 Dy120 2.398 . S
O124 C122 1.185 . S
O125 Dy120 2.491 . S
O125 C122 1.355 . S
O126 Dy120 2.403 . S
O126 C128 1.254 . S
O127 Dy120 2.664 . S
O127 Dy123 2.310 . S
O127 C128 1.268 . S
C128 O126 1.254 . S
C128 O127 1.268 . S
C129 O134 1.254 . S
C129 O135 1.268 . S
O130 Dy123 2.351 . S
O130 C138 1.249 . S
O131 Dy120 2.326 . S
O131 C138 1.267 . S
O132 C121 1.185 . S
O132 Dy123 2.398 . S
O133 C121 1.355 . S
O133 Dy123 2.491 . S
O134 Dy123 2.403 . S
O134 C129 1.254 . S
O135 Dy120 2.310 . S
O135 Dy123 2.664 . S
O135 C129 1.268 . S
O136 Dy120 2.351 . S
O136 C139 1.249 . S
O137 Dy123 2.326 . S
O137 C139 1.267 . S
C138 O130 1.249 . S
C138 O131 1.267 . S
C139 O136 1.249 . S
C139 O137 1.267 . S
Dy140 O144 2.398 . S
Dy140 O145 2.491 . S
Dy140 O146 2.403 . S
Dy140 O147 2.664 . S
Dy140 O151 2.326 . S
Dy140 O155 2.310 . S
Dy140 O156 2.351 . S
C141 O152 1.185 . S
C141 O153 1.355 . S
C142 O144 1.185 . S
C142 O145 1.355 . S
Dy143 O147 2.310 . S
Dy143 O150 2.351 . S
Dy143 O152 2.398 . S
Dy143 O153 2.491 . S
Dy143 O154 2.403 . S
Dy143 O155 2.664 . S
Dy143 O157 2.326 . S
O144 Dy140 2.398 . S
O144 C142 1.185 . S
O145 Dy140 2.491 . S
O145 C142 1.355 . S
O146 Dy140 2.403 . S
O146 C148 1.254 . S
O147 Dy140 2.664 . S
O147 Dy143 2.310 . S
O147 C148 1.268 . S
C148 O146 1.254 . S
C148 O147 1.268 . S
C149 O154 1.254 . S
C149 O155 1.268 . S
O150 Dy143 2.351 . S
O150 C158 1.249 . S
O151 Dy140 2.326 . S
O151 C158 1.267 . S
O152 C141 1.185 . S
O152 Dy143 2.398 . S
O153 C141 1.355 . S
O153 Dy143 2.491 . S
O154 Dy143 2.403 . S
O154 C149 1.254 . S
O155 Dy140 2.310 . S
O155 Dy143 2.664 . S
O155 C149 1.268 . S
O156 Dy140 2.351 . S
O156 C159 1.249 . S
O157 Dy143 2.326 . S
O157 C159 1.267 . S
C158 O150 1.249 . S
C158 O151 1.267 . S
C159 O156 1.249 . S
C159 O157 1.267 . S
Dy160 O164 2.398 . S
Dy160 O165 2.491 . S
Dy160 O166 2.403 . S
Dy160 O167 2.664 . S
Dy160 O171 2.326 . S
Dy160 O175 2.310 . S
Dy160 O176 2.351 . S
C161 O172 1.185 . S
C161 O173 1.355 . S
C162 O164 1.185 . S
C162 O165 1.355 . S
Dy163 O167 2.310 . S
Dy163 O170 2.351 . S
Dy163 O172 2.398 . S
Dy163 O173 2.491 . S
Dy163 O174 2.403 . S
Dy163 O175 2.664 . S
Dy163 O177 2.326 . S
O164 Dy160 2.398 . S
O164 C162 1.185 . S
O165 Dy160 2.491 . S
O165 C162 1.355 . S
O166 Dy160 2.403 . S
O166 C168 1.254 . S
O167 Dy160 2.664 . S
O167 Dy163 2.310 . S
O167 C168 1.268 . S
C168 O166 1.254 . S
C168 O167 1.268 . S
C169 O174 1.254 . S
C169 O175 1.268 . S
O170 Dy163 2.351 . S
O170 C178 1.249 . S
O171 Dy160 2.326 . S
O171 C178 1.267 . S
O172 C161 1.185 . S
O172 Dy163 2.398 . S
O173 C161 1.355 . S
O173 Dy163 2.491 . S
O174 Dy163 2.403 . S
O174 C169 1.254 . S
O175 Dy160 2.310 . S
O175 Dy163 2.664 . S
O175 C169 1.268 . S
O176 Dy160 2.351 . S
O176 C179 1.249 . S
O177 Dy163 2.326 . S
O177 C179 1.267 . S
C178 O170 1.249 . S
C178 O171 1.267 . S
C179 O176 1.249 . S
C179 O177 1.267 . S
Dy180 O184 2.398 . S
Dy180 O185 2.491 . S
Dy180 O186 2.403 . S
Dy180 O187 2.664 . S
Dy180 O191 2.326 . S
Dy180 O195 2.310 . S
Dy180 O196 2.351 . S
C181 O192 1.185 . S
C181 O193 1.355 . S
C182 O184 1.185 . S
C182 O185 1.355 . S
Dy183 O187 2.310 . S
Dy183 O190 2.351 . S
Dy183 O192 2.398 . S
Dy183 O193 2.491 . S
Dy183 O194 2.403 . S
Dy183 O195 2.664 . S
Dy183 O197 2.326 . S
O184 Dy180 2.398 . S
O184 C182 1.185 . S
O185 Dy180 2.491 . S
O185 C182 1.355 . S
O186 Dy180 2.403 . S
O186 C188 1.254 . S
O187 Dy180 2.664 . S
O187 Dy183 2.310 . S
O187 C188 1.268 . S
C188 O186 1.254 . S
C188 O187 1.268 . S
C189 O194 1.254 . S
C189 O195 1.268 . S
O190 Dy183 2.351 . S
O190 C198 1.249 . S
O191 Dy180 2.326 . S
O191 C198 1.267 . S
O192 C181 1.185 . S
O192 Dy183 2.398 . S
O193 C181 1.355 . S
O193 Dy183 2.491 . S
O194 Dy183 2.403 . S
O194 C189 1.254 . S
O195 Dy180 2.310 . S
O195 Dy183 2.664 . S
O195 C189 1.268 . S
O196 Dy180 2.351 . S
O196 C199 1.249 . S
O197 Dy183 2.326 . S
O197 C199 1.267 . S
C198 O190 1.249 . S
C198 O191 1.267 . S
C199 O196 1.249 . S
C199 O197 1.267 . S
Dy200 O204 2.398 . S
Dy200 O205 2.491 . S
Dy200 O206 2.403 . S
Dy200 O207 2.664 . S
Dy200 O211 2.326 . S
Dy200 O215 2.310 . S
Dy200 O216 2.351 . S
C201 O212 1.185 . S
C201 O213 1.355 . S
C202 O204 1.185 . S
C202 O205 1.355 . S
Dy203 O207 2.310 . S
Dy203 O210 2.351 . S
Dy203 O212 2.398 . S
Dy203 O213 2.491 . S
Dy203 O214 2.403 . S
Dy203 O215 2.664 . S
Dy203 O217 2.326 . S
O204 Dy200 2.398 . S
O204 C202 1.185 . S
O205 Dy200 2.491 . S
O205 C202 1.355 . S
O206 Dy200 2.403 . S
O206 C208 1.254 . S
O207 Dy200 2.664 . S
O207 Dy203 2.310 . S
O207 C208 1.268 . S
C208 O206 1.254 . S
C208 O207 1.268 . S
C209 O214 1.254 . S
C209 O215 1.268 . S
O210 Dy203 2.351 . S
O210 C218 1.249 . S
O211 Dy200 2.326 . S
O211 C218 1.267 . S
O212 C201 1.185 . S
O212 Dy203 2.398 . S
O213 C201 1.355 . S
O213 Dy203 2.491 . S
O214 Dy203 2.403 . S
O214 C209 1.254 . S
O215 Dy200 2.310 . S
O215 Dy203 2.664 . S
O215 C209 1.268 . S
O216 Dy200 2.351 . S
O216 C219 1.249 . S
O217 Dy203 2.326 . S
O217 C219 1.267 . S
C218 O210 1.249 . S
C218 O211 1.267 . S
C219 O216 1.249 . S
C219 O217 1.267 . S
Dy220 O224 2.398 . S
Dy220 O225 2.491 . S
Dy220 O226 2.403 . S
Dy220 O227 2.664 . S
Dy220 O231 2.326 . S
Dy220 O235 2.310 . S
Dy220 O236 2.351 . S
C221 O232 1.185 . S
C221 O233 1.355 . S
C222 O224 1.185 . S
C222 O225 1.355 . S
Dy223 O227 2.310 . S
Dy223 O230 2.351 . S
Dy223 O232 2.398 . S
Dy223 O233 2.491 . S
Dy223 O234 2.403 . S
Dy223 O235 2.664 . S
Dy223 O237 2.326 . S
O224 Dy220 2.398 . S
O224 C222 1.185 . S
O225 Dy220 2.491 . S
O225 C222 1.355 . S
O226 Dy220 2.403 . S
O226 C228 1.254 . S
O227 Dy220 2.664 . S
O227 Dy223 2.310 . S
O227 C228 1.268 . S
C228 O226 1.254 . S
C228 O227 1.268 . S
C229 O234 1.254 . S
C229 O235 1.268 . S
O230 Dy223 2.351 . S
O230 C238 1.249 . S
O231 Dy220 2.326 . S
O231 C238 1.267 . S
O232 C221 1.185 . S
O232 Dy223 2.398 . S
O233 C221 1.355 . S
O233 Dy223 2.491 . S
O234 Dy223 2.403 . S
O234 C229 1.254 . S
O235 Dy220 2.310 . S
O235 Dy223 2.664 . S
O235 C229 1.268 . S
O236 Dy220 2.351 . S
O236 C239 1.249 . S
O237 Dy223 2.326 . S
O237 C239 1.267 . S
C238 O230 1.249 . S
C238 O231 1.267 . S
C239 O236 1.249 . S
C239 O237 1.267 . S
Dy240 O244 2.398 . S
Dy240 O245 2.491 . S
Dy240 O246 2.403 . S
Dy240 O247 2.664 . S
Dy240 O251 2.326 . S
Dy240 O255 2.310 . S
Dy240 O256 2.351 . S
C241 O252 1.185 . S
C241 O253 1.355 . S
C242 O244 1.185 . S
C242 O245 1.355 . S
Dy243 O247 2.310 . S
Dy243 O250 2.351 . S
Dy243 O252 2.398 . S
Dy243 O253 2.491 . S
Dy243 O254 2.403 . S
Dy243 O255 2.664 . S
Dy243 O257 2.326 . S
O244 Dy240 2.398 . S
O244 C242 1.185 . S
O245 Dy240 2.491 . S
O245 C242 1.355 . S
O246 Dy240 2.403 . S
O246 C248 1.254 . S
O247 Dy240 2.664 . S
O247 Dy243 2.310 . S
O247 C248 1.268 . S
C248 O246 1.254 . S
C248 O247 1.268 . S
C249 O254 1.254 . S
C249 O255 1.268 . S
O250 Dy243 2.351 . S
O250 C258 1.249 . S
O251 Dy240 2.326 . S
O251 C258 1.267 . S
O252 C241 1.185 . S
O252 Dy243 2.398 . S
O253 C241 1.355 . S
O253 Dy243 2.491 . S
O254 Dy243 2.403 . S
O254 C249 1.254 . S
O255 Dy240 2.310 . S
O255 Dy243 2.664 . S
O255 C249 1.268 . S
O256 Dy240 2.351 . S
O256 C259 1.249 . S
O257 Dy243 2.326 . S
O257 C259 1.267 . S
C258 O250 1.249 . S
C258 O251 1.267 . S
C259 O256 1.249 . S
C259 O257 1.267 . S
Dy260 O264 2.398 . S
Dy260 O265 2.491 . S
Dy260 O266 2.403 . S
Dy260 O267 2.664 . S
Dy260 O271 2.326 . S
Dy260 O275 2.310 . S
Dy260 O276 2.351 . S
C261 O272 1.185 . S
C261 O273 1.355 . S
C262 O264 1.185 . S
C262 O265 1.355 . S
Dy263 O267 2.310 . S
Dy263 O270 2.351 . S
Dy263 O272 2.398 . S
Dy263 O273 2.491 . S
Dy263 O274 2.403 . S
Dy263 O275 2.664 . S
Dy263 O277 2.326 . S
O264 Dy260 2.398 . S
O264 C262 1.185 . S
O265 Dy260 2.491 . S
O265 C262 1.355 . S
O266 Dy260 2.403 . S
O266 C268 1.254 . S
O267 Dy260 2.664 . S
O267 Dy263 2.310 . S
O267 C268 1.268 . S
C268 O266 1.254 . S
C268 O267 1.268 . S
C269 O274 1.254 . S
C269 O275 1.268 . S
O270 Dy263 2.351 . S
O270 C278 1.249 . S
O271 Dy260 2.326 . S
O271 C278 1.267 . S
O272 C261 1.185 . S
O272 Dy263 2.398 . S
O273 C261 1.355 . S
O273 Dy263 2.491 . S
O274 Dy263 2.403 . S
O274 C269 1.254 . S
O275 Dy260 2.310 . S
O275 Dy263 2.664 . S
O275 C269 1.268 . S
O276 Dy260 2.351 . S
O276 C279 1.249 . S
O277 Dy263 2.326 . S
O277 C279 1.267 . S
C278 O270 1.249 . S
C278 O271 1.267 . S
C279 O276 1.249 . S
C279 O277 1.267 . S
Dy280 O284 2.398 . S
Dy280 O285 2.491 . S
Dy280 O286 2.403 . S
Dy280 O287 2.664 . S
Dy280 O291 2.326 . S
Dy280 O295 2.310 . S
Dy280 O296 2.351 . S
C281 O292 1.185 . S
C281 O293 1.355 . S
C282 O284 1.185 . S
C282 O285 1.355 . S
Dy283 O287 2.310 . S
Dy283 O290 2.351 . S
Dy283 O292 2.398 . S
Dy283 O293 2.491 . S
Dy283 O294 2.403 . S
Dy283 O295 2.664 . S
Dy283 O297 2.326 . S
O284 Dy280 2.398 . S
O284 C282 1.185 . S
O285 Dy280 2.491 . S
O285 C282 1.355 . S
O286 Dy280 2.403 . S
O286 C288 1.254 . S
O287 Dy280 2.664 . S
O287 Dy283 2.310 . S
O287 C288 1.268 . S
C288 O286 1.254 . S
C288 O287 1.268 . S
C289 O294 1.254 . S
C289 O295 1.268 . S
O290 Dy283 2.351 . S
O290 C298 1.249 . S
O291 Dy280 2.326 . S
O291 C298 1.267 . S
O292 C281 1.185 . S
O292 Dy283 2.398 . S
O293 C281 1.355 . S
O293 Dy283 2.491 . S
O294 Dy283 2.403 . S
O294 C289 1.254 . S
O295 Dy280 2.310 . S
O295 Dy283 2.664 . S
O295 C289 1.268 . S
O296 Dy280 2.351 . S
O296 C299 1.249 . S
O297 Dy283 2.326 . S
O297 C299 1.267 . S
C298 O290 1.249 . S
C298 O291 1.267 . S
C299 O296 1.249 . S
C299 O297 1.267 . S
Dy300 O304 2.398 . S
Dy300 O305 2.491 . S
Dy300 O306 2.403 . S
Dy300 O307 2.664 . S
Dy300 O311 2.326 . S
Dy300 O315 2.310 . S
Dy300 O316 2.351 . S
C301 O312 1.185 . S
C301 O313 1.355 . S
C302 O304 1.185 . S
C302 O305 1.355 . S
Dy303 O307 2.310 . S
Dy303 O310 2.351 . S
Dy303 O312 2.398 . S
Dy303 O313 2.491 . S
Dy303 O314 2.403 . S
Dy303 O315 2.664 . S
Dy303 O317 2.326 . S
O304 Dy300 2.398 . S
O304 C302 1.185 . S
O305 Dy300 2.491 . S
O305 C302 1.355 . S
O306 Dy300 2.403 . S
O306 C308 1.254 . S
O307 Dy300 2.664 . S
O307 Dy303 2.310 . S
O307 C308 1.268 . S
C308 O306 1.254 . S
C308 O307 1.268 . S
C309 O314 1.254 . S
C309 O315 1.268 . S
O310 Dy303 2.351 . S
O310 C318 1.249 . S
O311 Dy300 2.326 . S
O311 C318 1.267 . S
O312 C301 1.185 . S
O312 Dy303 2.398 . S
O313 C301 1.355 . S
O313 Dy303 2.491 . S
O314 Dy303 2.403 . S
O314 C309 1.254 . S
O315 Dy300 2.310 . S
O315 Dy303 2.664 . S
O315 C309 1.268 . S
O316 Dy300 2.351 . S
O316 C319 1.249 . S
O317 Dy303 2.326 . S
O317 C319 1.267 . S
C318 O310 1.249 . S
C318 O311 1.267 . S
C319 O316 1.249 . S
C319 O317 1.267 . S
Dy320 O324 2.398 . S
Dy320 O325 2.491 . S
Dy320 O326 2.403 . S
Dy320 O327 2.664 . S
Dy320 O331 2.326 . S
Dy320 O335 2.310 . S
Dy320 O336 2.351 . S
C321 O332 1.185 . S
C321 O333 1.355 . S
C322 O324 1.185 . S
C322 O325 1.355 . S
Dy323 O327 2.310 . S
Dy323 O330 2.351 . S
Dy323 O332 2.398 . S
Dy323 O333 2.491 . S
Dy323 O334 2.403 . S
Dy323 O335 2.664 . S
Dy323 O337 2.326 . S
O324 Dy320 2.398 . S
O324 C322 1.185 . S
O325 Dy320 2.491 . S
O325 C322 1.355 . S
O326 Dy320 2.403 . S
O326 C328 1.254 . S
O327 Dy320 2.664 . S
O327 Dy323 2.310 . S
O327 C328 1.268 . S
C328 O326 1.254 . S
C328 O327 1.268 . S
C329 O334 1.254 . S
C329 O335 1.268 . S
O330 Dy323 2.351 . S
O330 C338 1.249 . S
O331 Dy320 2.326 . S
O331 C338 1.267 . S
O332 C321 1.185 . S
O332 Dy323 2.398 . S
O333 C321 1.355 . S
O333 Dy323 2.491 . S
O334 Dy323 2.403 . S
O334 C329 1.254 . S
O335 Dy320 2.310 . S
O335 Dy323 2.664 . S
O335 C329 1.268 . S
O336 Dy320 2.351 . S
O336 C339 1.249 . S
O337 Dy323 2.326 . S
O337 C339 1.267 . S
C338 O330 1.249 . S
C338 O331 1.267 . S
C339 O336 1.249 . S
C339 O337 1.267 . S
Dy340 O344 2.398 . S
Dy340 O345 2.491 . S
Dy340 O346 2.403 . S
Dy340 O347 2.664 . S
Dy340 O351 2.326 . S
Dy340 O355 2.310 . S
Dy340 O356 2.351 . S
C341 O352 1.185 . S
C341 O353 1.355 . S
C342 O344 1.185 . S
C342 O345 1.355 . S
Dy343 O347 2.310 . S
Dy343 O350 2.351 . S
Dy343 O352 2.398 . S
Dy343 O353 2.491 . S
Dy343 O354 2.403 . S
Dy343 O355 2.664 . S
Dy343 O357 2.326 . S
O344 Dy340 2.398 . S
O344 C342 1.185 . S
O345 Dy340 2.491 . S
O345 C342 1.355 . S
O346 Dy340 2.403 . S
O346 C348 1.254 . S
O347 Dy340 2.664 . S
O347 Dy343 2.310 . S
O347 C348 1.268 . S
C348 O346 1.254 . S
C348 O347 1.268 . S
C349 O354 1.254 . S
C349 O355 1.268 . S
O350 Dy343 2.351 . S
O350 C358 1.249 . S
O351 Dy340 2.326 . S
O351 C358 1.267 . S
O352 C341 1.185 . S
O352 Dy343 2.398 . S
O353 C341 1.355 . S
O353 Dy343 2.491 . S
O354 Dy343 2.403 . S
O354 C349 1.254 . S
O355 Dy340 2.310 . S
O355 Dy343 2.664 . S
O355 C349 1.268 . S
O356 Dy340 2.351 . S
O356 C359 1.249 . S
O357 Dy343 2.326 . S
O357 C359 1.267 . S
C358 O350 1.249 . S
C358 O351 1.267 . S
C359 O356 1.249 . S
C359 O357 1.267 . S
Dy360 O364 2.398 . S
Dy360 O365 2.491 . S
Dy360 O366 2.403 . S
Dy360 O367 2.664 . S
Dy360 O371 2.326 . S
Dy360 O375 2.310 . S
Dy360 O376 2.351 . S
C361 O372 1.185 . S
C361 O373 1.355 . S
C362 O364 1.185 . S
C362 O365 1.355 . S
Dy363 O367 2.310 . S
Dy363 O370 2.351 . S
Dy363 O372 2.398 . S
Dy363 O373 2.491 . S
Dy363 O374 2.403 . S
Dy363 O375 2.664 . S
Dy363 O377 2.326 . S
O364 Dy360 2.398 . S
O364 C362 1.185 . S
O365 Dy360 2.491 . S
O365 C362 1.355 . S
O366 Dy360 2.403 . S
O366 C368 1.254 . S
O367 Dy360 2.664 . S
O367 Dy363 2.310 . S
O367 C368 1.268 . S
C368 O366 1.254 . S
C368 O367 1.268 . S
C369 O374 1.254 . S
C369 O375 1.268 . S
O370 Dy363 2.351 . S
O370 C378 1.249 . S
O371 Dy360 2.326 . S
O371 C378 1.267 . S
O372 C361 1.185 . S
O372 Dy363 2.398 . S
O373 C361 1.355 . S
O373 Dy363 2.491 . S
O374 Dy363 2.403 . S
O374 C369 1.254 . S
O375 Dy360 2.310 . S
O375 Dy363 2.664 . S
O375 C369 1.268 . S
O376 Dy360 2.351 . S
O376 C379 1.249 . S
O377 Dy363 2.326 . S
O377 C379 1.267 . S
C378 O370 1.249 . S
C378 O371 1.267 . S
C379 O376 1.249 . S
C379 O377 1.267 . S
Dy380 O384 2.398 . S
Dy380 O385 2.491 . S
Dy380 O386 2.403 . S
Dy380 O387 2.664 . S
Dy380 O391 2.326 . S
Dy380 O395 2.310 . S
Dy380 O396 2.351 . S
C381 O392 1.185 . S
C381 O393 1.355 . S
C382 O384 1.185 . S
C382 O385 1.355 . S
Dy383 O387 2.310 . S
Dy383 O390 2.351 . S
Dy383 O392 2.398 . S
Dy383 O393 2.491 . S
Dy383 O394 2.403 . S
Dy383 O395 2.664 . S
Dy383 O397 2.326 . S
O384 Dy380 2.398 . S
O384 C382 1.185 . S
O385 Dy380 2.491 . S
O385 C382 1.355 . S
O386 Dy380 2.403 . S
O386 C388 1.254 . S
O387 Dy380 2.664 . S
O387 Dy383 2.310 . S
O387 C388 1.268 . S
C388 O386 1.254 . S
C388 O387 1.268 . S
C389 O394 1.254 . S
C389 O395 1.268 . S
O390 Dy383 2.351 . S
O390 C398 1.249 . S
O391 Dy380 2.326 . S
O391 C398 1.267 . S
O392 C381 1.185 . S
O392 Dy383 2.398 . S
O393 C381 1.355 . S
O393 Dy383 2.491 . S
O394 Dy383 2.403 . S
O394 C389 1.254 . S
O395 Dy380 2.310 . S
O395 Dy383 2.664 . S
O395 C389 1.268 . S
O396 Dy380 2.351 . S
O396 C399 1.249 . S
O397 Dy383 2.326 . S
O397 C399 1.267 . S
C398 O390 1.249 . S
C398 O391 1.267 . S
C399 O396 1.249 . S
C399 O397 1.267 . S
Dy400 O404 2.398 . S
Dy400 O405 2.491 . S
Dy400 O406 2.403 . S
Dy400 O407 2.664 . S
Dy400 O411 2.326 . S
Dy400 O415 2.310 . S
Dy400 O416 2.351 . S
C401 O412 1.185 . S
C401 O413 1.355 . S
C402 O404 1.185 . S
C402 O405 1.355 . S
Dy403 O407 2.310 . S
Dy403 O410 2.351 . S
Dy403 O412 2.398 . S
Dy403 O413 2.491 . S
Dy403 O414 2.403 . S
Dy403 O415 2.664 . S
Dy403 O417 2.326 . S
O404 Dy400 2.398 . S
O404 C402 1.185 . S
O405 Dy400 2.491 . S
O405 C402 1.355 . S
O406 Dy400 2.403 . S
O406 C408 1.254 . S
O407 Dy400 2.664 . S
O407 Dy403 2.310 . S
O407 C408 1.268 . S
C408 O406 1.254 . S
C408 O407 1.268 . S
C409 O414 1.254 . S
C409 O415 1.268 . S
O410 Dy403 2.351 . S
O410 C418 1.249 . S
O411 Dy400 2.326 . S
O411 C418 1.267 . S
O412 C401 1.185 . S
O412 Dy403 2.398 . S
O413 C401 1.355 . S
O413 Dy403 2.491 . S
O414 Dy403 2.403 . S
O414 C409 1.254 . S
O415 Dy400 2.310 . S
O415 Dy403 2.664 . S
O415 C409 1.268 . S
O416 Dy400 2.351 . S
O416 C419 1.249 . S
O417 Dy403 2.326 . S
O417 C419 1.267 . S
C418 O410 1.249 . S
C418 O411 1.267 . S
C419 O416 1.249 . S
C419 O417 1.267 . S
Dy420 O424 2.398 . S
Dy420 O425 2.491 . S
Dy420 O426 2.403 . S
Dy420 O427 2.664 1_554 S
Dy420 O431 2.326 . S
Dy420 O435 2.310 . S
Dy420 O436 2.351 . S
C421 O432 1.185 . S
C421 O433 1.355 . S
C422 O424 1.185 . S
C422 O425 1.355 . S
Dy423 O427 2.310 . S
Dy423 O430 2.351 . S
Dy423 O432 2.398 . S
Dy423 O433 2.491 . S
Dy423 O434 2.403 . S
Dy423 O435 2.664 1_556 S
Dy423 O437 2.326 . S
O424 Dy420 2.398 . S
O424 C422 1.185 . S
O425 Dy420 2.491 . S
O425 C422 1.355 . S
O426 Dy420 2.403 . S
O426 C428 1.254 . S
O427 Dy420 2.664 1_556 S
O427 Dy423 2.310 . S
O427 C428 1.268 1_556 S
C428 O426 1.254 . S
C428 O427 1.268 1_554 S
C429 O434 1.254 . S
C429 O435 1.268 1_556 S
O430 Dy423 2.351 . S
O430 C438 1.249 1_556 S
O431 Dy420 2.326 . S
O431 C438 1.267 . S
O432 C421 1.185 . S
O432 Dy423 2.398 . S
O433 C421 1.355 . S
O433 Dy423 2.491 . S
O434 Dy423 2.403 . S
O434 C429 1.254 . S
O435 Dy420 2.310 . S
O435 Dy423 2.664 1_554 S
O435 C429 1.268 1_554 S
O436 Dy420 2.351 . S
O436 C439 1.249 1_554 S
O437 Dy423 2.326 . S
O437 C439 1.267 . S
C438 O430 1.249 1_554 S
C438 O431 1.267 . S
C439 O436 1.249 1_556 S
C439 O437 1.267 . S
Dy440 O444 2.398 . S
Dy440 O445 2.491 . S
Dy440 O446 2.403 . S
Dy440 O447 2.664 1_554 S
Dy440 O451 2.326 . S
Dy440 O455 2.310 . S
Dy440 O456 2.351 . S
C441 O452 1.185 . S
C441 O453 1.355 . S
C442 O444 1.185 . S
C442 O445 1.355 . S
Dy443 O447 2.310 . S
Dy443 O450 2.351 . S
Dy443 O452 2.398 . S
Dy443 O453 2.491 . S
Dy443 O454 2.403 . S
Dy443 O455 2.664 1_556 S
Dy443 O457 2.326 . S
O444 Dy440 2.398 . S
O444 C442 1.185 . S
O445 Dy440 2.491 . S
O445 C442 1.355 . S
O446 Dy440 2.403 . S
O446 C448 1.254 . S
O447 Dy440 2.664 1_556 S
O447 Dy443 2.310 . S
O447 C448 1.268 1_556 S
C448 O446 1.254 . S
C448 O447 1.268 1_554 S
C449 O454 1.254 . S
C449 O455 1.268 1_556 S
O450 Dy443 2.351 . S
O450 C458 1.249 1_556 S
O451 Dy440 2.326 . S
O451 C458 1.267 . S
O452 C441 1.185 . S
O452 Dy443 2.398 . S
O453 C441 1.355 . S
O453 Dy443 2.491 . S
O454 Dy443 2.403 . S
O454 C449 1.254 . S
O455 Dy440 2.310 . S
O455 Dy443 2.664 1_554 S
O455 C449 1.268 1_554 S
O456 Dy440 2.351 . S
O456 C459 1.249 1_554 S
O457 Dy443 2.326 . S
O457 C459 1.267 . S
C458 O450 1.249 1_554 S
C458 O451 1.267 . S
C459 O456 1.249 1_556 S
C459 O457 1.267 . S
Dy460 O464 2.398 . S
Dy460 O465 2.491 . S
Dy460 O466 2.403 . S
Dy460 O467 2.664 1_554 S
Dy460 O471 2.326 . S
Dy460 O475 2.310 . S
Dy460 O476 2.351 . S
C461 O472 1.185 . S
C461 O473 1.355 . S
C462 O464 1.185 . S
C462 O465 1.355 . S
Dy463 O467 2.310 . S
Dy463 O470 2.351 . S
Dy463 O472 2.398 . S
Dy463 O473 2.491 . S
Dy463 O474 2.403 . S
Dy463 O475 2.664 1_556 S
Dy463 O477 2.326 . S
O464 Dy460 2.398 . S
O464 C462 1.185 . S
O465 Dy460 2.491 . S
O465 C462 1.355 . S
O466 Dy460 2.403 . S
O466 C468 1.254 . S
O467 Dy460 2.664 1_556 S
O467 Dy463 2.310 . S
O467 C468 1.268 1_556 S
C468 O466 1.254 . S
C468 O467 1.268 1_554 S
C469 O474 1.254 . S
C469 O475 1.268 1_556 S
O470 Dy463 2.351 . S
O470 C478 1.249 1_556 S
O471 Dy460 2.326 . S
O471 C478 1.267 . S
O472 C461 1.185 . S
O472 Dy463 2.398 . S
O473 C461 1.355 . S
O473 Dy463 2.491 . S
O474 Dy463 2.403 . S
O474 C469 1.254 . S
O475 Dy460 2.310 . S
O475 Dy463 2.664 1_554 S
O475 C469 1.268 1_554 S
O476 Dy460 2.351 . S
O476 C479 1.249 1_554 S
O477 Dy463 2.326 . S
O477 C479 1.267 . S
C478 O470 1.249 1_554 S
C478 O471 1.267 . S
C479 O476 1.249 1_556 S
C479 O477 1.267 . S
Dy480 O484 2.398 . S
Dy480 O485 2.491 . S
Dy480 O486 2.403 . S
Dy480 O487 2.664 . S
Dy480 O491 2.326 . S
Dy480 O495 2.310 . S
Dy480 O496 2.351 . S
C481 O492 1.185 . S
C481 O493 1.355 . S
C482 O484 1.185 . S
C482 O485 1.355 . S
Dy483 O487 2.310 . S
Dy483 O490 2.351 . S
Dy483 O492 2.398 . S
Dy483 O493 2.491 . S
Dy483 O494 2.403 . S
Dy483 O495 2.664 . S
Dy483 O497 2.326 . S
O484 Dy480 2.398 . S
O484 C482 1.185 . S
O485 Dy480 2.491 . S
O485 C482 1.355 . S
O486 Dy480 2.403 . S
O486 C488 1.254 . S
O487 Dy480 2.664 . S
O487 Dy483 2.310 . S
O487 C488 1.268 . S
C488 O486 1.254 . S
C488 O487 1.268 . S
C489 O494 1.254 . S
C489 O495 1.268 . S
O490 Dy483 2.351 . S
O490 C498 1.249 . S
O491 Dy480 2.326 . S
O491 C498 1.267 . S
O492 C481 1.185 . S
O492 Dy483 2.398 . S
O493 C481 1.355 . S
O493 Dy483 2.491 . S
O494 Dy483 2.403 . S
O494 C489 1.254 . S
O495 Dy480 2.310 . S
O495 Dy483 2.664 . S
O495 C489 1.268 . S
O496 Dy480 2.351 . S
O496 C499 1.249 . S
O497 Dy483 2.326 . S
O497 C499 1.267 . S
C498 O490 1.249 . S
C498 O491 1.267 . S
C499 O496 1.249 . S
C499 O497 1.267 . S
Dy500 O504 2.398 . S
Dy500 O505 2.491 . S
Dy500 O506 2.403 . S
Dy500 O507 2.664 . S
Dy500 O511 2.326 . S
Dy500 O515 2.310 . S
Dy500 O516 2.351 . S
C501 O512 1.185 . S
C501 O513 1.355 . S
C502 O504 1.185 . S
C502 O505 1.355 . S
Dy503 O507 2.310 . S
Dy503 O510 2.351 . S
Dy503 O512 2.398 . S
Dy503 O513 2.491 . S
Dy503 O514 2.403 . S
Dy503 O515 2.664 . S
Dy503 O517 2.326 . S
O504 Dy500 2.398 . S
O504 C502 1.185 . S
O505 Dy500 2.491 . S
O505 C502 1.355 . S
O506 Dy500 2.403 . S
O506 C508 1.254 . S
O507 Dy500 2.664 . S
O507 Dy503 2.310 . S
O507 C508 1.268 . S
C508 O506 1.254 . S
C508 O507 1.268 . S
C509 O514 1.254 . S
C509 O515 1.268 . S
O510 Dy503 2.351 . S
O510 C518 1.249 . S
O511 Dy500 2.326 . S
O511 C518 1.267 . S
O512 C501 1.185 . S
O512 Dy503 2.398 . S
O513 C501 1.355 . S
O513 Dy503 2.491 . S
O514 Dy503 2.403 . S
O514 C509 1.254 . S
O515 Dy500 2.310 . S
O515 Dy503 2.664 . S
O515 C509 1.268 . S
O516 Dy500 2.351 . S
O516 C519 1.249 . S
O517 Dy503 2.326 . S
O517 C519 1.267 . S
C518 O510 1.249 . S
C518 O511 1.267 . S
C519 O516 1.249 . S
C519 O517 1.267 . S
Dy520 O524 2.398 . S
Dy520 O525 2.491 . S
Dy520 O526 2.403 . S
Dy520 O527 2.664 . S
Dy520 O531 2.326 . S
Dy520 O535 2.310 . S
Dy520 O536 2.351 . S
C521 O532 1.185 . S
C521 O533 1.355 . S
C522 O524 1.185 . S
C522 O525 1.355 . S
Dy523 O527 2.310 . S
Dy523 O530 2.351 . S
Dy523 O532 2.398 . S
Dy523 O533 2.491 . S
Dy523 O534 2.403 . S
Dy523 O535 2.664 . S
Dy523 O537 2.326 . S
O524 Dy520 2.398 . S
O524 C522 1.185 . S
O525 Dy520 2.491 . S
O525 C522 1.355 . S
O526 Dy520 2.403 . S
O526 C528 1.254 . S
O527 Dy520 2.664 . S
O527 Dy523 2.310 . S
O527 C528 1.268 . S
C528 O526 1.254 . S
C528 O527 1.268 . S
C529 O534 1.254 . S
C529 O535 1.268 . S
O530 Dy523 2.351 . S
O530 C538 1.249 . S
O531 Dy520 2.326 . S
O531 C538 1.267 . S
O532 C521 1.185 . S
O532 Dy523 2.398 . S
O533 C521 1.355 . S
O533 Dy523 2.491 . S
O534 Dy523 2.403 . S
O534 C529 1.254 . S
O535 Dy520 2.310 . S
O535 Dy523 2.664 . S
O535 C529 1.268 . S
O536 Dy520 2.351 . S
O536 C539 1.249 . S
O537 Dy523 2.326 . S
O537 C539 1.267 . S
C538 O530 1.249 . S
C538 O531 1.267 . S
C539 O536 1.249 . S
C539 O537 1.267 . S
Dy540 O544 2.398 . S
Dy540 O545 2.491 . S
Dy540 O546 2.403 . S
Dy540 O547 2.664 1_554 S
Dy540 O551 2.326 . S
Dy540 O555 2.310 . S
Dy540 O556 2.351 . S
C541 O552 1.185 . S
C541 O553 1.355 . S
C542 O544 1.185 . S
C542 O545 1.355 . S
Dy543 O547 2.310 . S
Dy543 O550 2.351 . S
Dy543 O552 2.398 . S
Dy543 O553 2.491 . S
Dy543 O554 2.403 . S
Dy543 O555 2.664 1_556 S
Dy543 O557 2.326 . S
O544 Dy540 2.398 . S
O544 C542 1.185 . S
O545 Dy540 2.491 . S
O545 C542 1.355 . S
O546 Dy540 2.403 . S
O546 C548 1.254 . S
O547 Dy540 2.664 1_556 S
O547 Dy543 2.310 . S
O547 C548 1.268 1_556 S
C548 O546 1.254 . S
C548 O547 1.268 1_554 S
C549 O554 1.254 . S
C549 O555 1.268 1_556 S
O550 Dy543 2.351 . S
O550 C558 1.249 1_556 S
O551 Dy540 2.326 . S
O551 C558 1.267 . S
O552 C541 1.185 . S
O552 Dy543 2.398 . S
O553 C541 1.355 . S
O553 Dy543 2.491 . S
O554 Dy543 2.403 . S
O554 C549 1.254 . S
O555 Dy540 2.310 . S
O555 Dy543 2.664 1_554 S
O555 C549 1.268 1_554 S
O556 Dy540 2.351 . S
O556 C559 1.249 1_554 S
O557 Dy543 2.326 . S
O557 C559 1.267 . S
C558 O550 1.249 1_554 S
C558 O551 1.267 . S
C559 O556 1.249 1_556 S
C559 O557 1.267 . S
Dy560 O564 2.398 . S
Dy560 O565 2.491 . S
Dy560 O566 2.403 . S
Dy560 O567 2.664 1_554 S
Dy560 O571 2.326 . S
Dy560 O575 2.310 . S
Dy560 O576 2.351 . S
C561 O572 1.185 . S
C561 O573 1.355 . S
C562 O564 1.185 . S
C562 O565 1.355 . S
Dy563 O567 2.310 . S
Dy563 O570 2.351 . S
Dy563 O572 2.398 . S
Dy563 O573 2.491 . S
Dy563 O574 2.403 . S
Dy563 O575 2.664 1_556 S
Dy563 O577 2.326 . S
O564 Dy560 2.398 . S
O564 C562 1.185 . S
O565 Dy560 2.491 . S
O565 C562 1.355 . S
O566 Dy560 2.403 . S
O566 C568 1.254 . S
O567 Dy560 2.664 1_556 S
O567 Dy563 2.310 . S
O567 C568 1.268 1_556 S
C568 O566 1.254 . S
C568 O567 1.268 1_554 S
C569 O574 1.254 . S
C569 O575 1.268 1_556 S
O570 Dy563 2.351 . S
O570 C578 1.249 1_556 S
O571 Dy560 2.326 . S
O571 C578 1.267 . S
O572 C561 1.185 . S
O572 Dy563 2.398 . S
O573 C561 1.355 . S
O573 Dy563 2.491 . S
O574 Dy563 2.403 . S
O574 C569 1.254 . S
O575 Dy560 2.310 . S
O575 Dy563 2.664 1_554 S
O575 C569 1.268 1_554 S
O576 Dy560 2.351 . S
O576 C579 1.249 1_554 S
O577 Dy563 2.326 . S
O577 C579 1.267 . S
C578 O570 1.249 1_554 S
C578 O571 1.267 . S
C579 O576 1.249 1_556 S
C579 O577 1.267 . S
Dy580 O584 2.398 . S
Dy580 O585 2.491 . S
Dy580 O586 2.403 . S
Dy580 O587 2.664 1_554 S
Dy580 O591 2.326 . S
Dy580 O595 2.310 . S
Dy580 O596 2.351 . S
C581 O592 1.185 . S
C581 O593 1.355 . S
C582 O584 1.185 . S
C582 O585 1.355 . S
Dy583 O587 2.310 . S
Dy583 O590 2.351 . S
Dy583 O592 2.398 . S
Dy583 O593 2.491 . S
Dy583 O594 2.403 . S
Dy583 O595 2.664 1_556 S
Dy583 O597 2.326 . S
O584 Dy580 2.398 . S
O584 C582 1.185 . S
O585 Dy580 2.491 . S
O585 C582 1.355 . S
O586 Dy580 2.403 . S
O586 C588 1.254 . S
O587 Dy580 2.664 1_556 S
O587 Dy583 2.310 . S
O587 C588 1.268 1_556 S
C588 O586 1.254 . S
C588 O587 1.268 1_554 S
C589 O594 1.254 . S
C589 O595 1.268 1_556 S
O590 Dy583 2.351 . S
O590 C598 1.249 1_556 S
O591 Dy580 2.326 . S
O591 C598 1.267 . S
O592 C581 1.185 . S
O592 Dy583 2.398 . S
O593 C581 1.355 . S
O593 Dy583 2.491 . S
O594 Dy583 2.403 . S
O594 C589 1.254 . S
O595 Dy580 2.310 . S
O595 Dy583 2.664 1_554 S
O595 C589 1.268 1_554 S
O596 Dy580 2.351 . S
O596 C599 1.249 1_554 S
O597 Dy583 2.326 . S
O597 C599 1.267 . S
C598 O590 1.249 1_554 S
C598 O591 1.267 . S
C599 O596 1.249 1_556 S
C599 O597 1.267 . S
Dy600 O604 2.398 . S
Dy600 O605 2.491 . S
Dy600 O606 2.403 . S
Dy600 O607 2.664 . S
Dy600 O611 2.326 . S
Dy600 O615 2.310 . S
Dy600 O616 2.351 . S
C601 O612 1.185 . S
C601 O613 1.355 . S
C602 O604 1.185 . S
C602 O605 1.355 . S
Dy603 O607 2.310 . S
Dy603 O610 2.351 . S
Dy603 O612 2.398 . S
Dy603 O613 2.491 . S
Dy603 O614 2.403 . S
Dy603 O615 2.664 . S
Dy603 O617 2.326 . S
O604 Dy600 2.398 . S
O604 C602 1.185 . S
O605 Dy600 2.491 . S
O605 C602 1.355 . S
O606 Dy600 2.403 . S
O606 C608 1.254 . S
O607 Dy600 2.664 . S
O607 Dy603 2.310 . S
O607 C608 1.268 . S
C608 O606 1.254 . S
C608 O607 1.268 . S
C609 O614 1.254 . S
C609 O615 1.268 . S
O610 Dy603 2.351 . S
O610 C618 1.249 . S
O611 Dy600 2.326 . S
O611 C618 1.267 . S
O612 C601 1.185 . S
O612 Dy603 2.398 . S
O613 C601 1.355 . S
O613 Dy603 2.491 . S
O614 Dy603 2.403 . S
O614 C609 1.254 . S
O615 Dy600 2.310 . S
O615 Dy603 2.664 . S
O615 C609 1.268 . S
O616 Dy600 2.351 . S
O616 C619 1.249 . S
O617 Dy603 2.326 . S
O617 C619 1.267 . S
C618 O610 1.249 . S
C618 O611 1.267 . S
C619 O616 1.249 . S
C619 O617 1.267 . S
Dy620 O624 2.398 . S
Dy620 O625 2.491 . S
Dy620 O626 2.403 . S
Dy620 O627 2.664 . S
Dy620 O631 2.326 . S
Dy620 O635 2.310 . S
Dy620 O636 2.351 . S
C621 O632 1.185 . S
C621 O633 1.355 . S
C622 O624 1.185 . S
C622 O625 1.355 . S
Dy623 O627 2.310 . S
Dy623 O630 2.351 . S
Dy623 O632 2.398 . S
Dy623 O633 2.491 . S
Dy623 O634 2.403 . S
Dy623 O635 2.664 . S
Dy623 O637 2.326 . S
O624 Dy620 2.398 . S
O624 C622 1.185 . S
O625 Dy620 2.491 . S
O625 C622 1.355 . S
O626 Dy620 2.403 . S
O626 C628 1.254 . S
O627 Dy620 2.664 . S
O627 Dy623 2.310 . S
O627 C628 1.268 . S
C628 O626 1.254 . S
C628 O627 1.268 . S
C629 O634 1.254 . S
C629 O635 1.268 . S
O630 Dy623 2.351 . S
O630 C638 1.249 . S
O631 Dy620 2.326 . S
O631 C638 1.267 . S
O632 C621 1.185 . S
O632 Dy623 2.398 . S
O633 C621 1.355 . S
O633 Dy623 2.491 . S
O634 Dy623 2.403 . S
O634 C629 1.254 . S
O635 Dy620 2.310 . S
O635 Dy623 2.664 . S
O635 C629 1.268 . S
O636 Dy620 2.351 . S
O636 C639 1.249 . S
O637 Dy623 2.326 . S
O637 C639 1.267 . S
C638 O630 1.249 . S
C638 O631 1.267 . S
C639 O636 1.249 . S
C639 O637 1.267 . S
Dy640 O644 2.398 . S
Dy640 O645 2.491 . S
Dy640 O646 2.403 . S
Dy640 O647 2.664 . S
Dy640 O651 2.326 . S
Dy640 O655 2.310 . S
Dy640 O656 2.351 . S
C641 O652 1.185 . S
C641 O653 1.355 . S
C642 O644 1.185 . S
C642 O645 1.355 . S
Dy643 O647 2.310 . S
Dy643 O650 2.351 . S
Dy643 O652 2.398 . S
Dy643 O653 2.491 . S
Dy643 O654 2.403 . S
Dy643 O655 2.664 . S
Dy643 O657 2.326 . S
O644 Dy640 2.398 . S
O644 C642 1.185 . S
O645 Dy640 2.491 . S
O645 C642 1.355 . S
O646 Dy640 2.403 . S
O646 C648 1.254 . S
O647 Dy640 2.664 . S
O647 Dy643 2.310 . S
O647 C648 1.268 . S
C648 O646 1.254 . S
C648 O647 1.268 . S
C649 O654 1.254 . S
C649 O655 1.268 . S
O650 Dy643 2.351 . S
O650 C658 1.249 . S
O651 Dy640 2.326 . S
O651 C658 1.267 . S
O652 C641 1.185 . S
O652 Dy643 2.398 . S
O653 C641 1.355 . S
O653 Dy643 2.491 . S
O654 Dy643 2.403 . S
O654 C649 1.254 . S
O655 Dy640 2.310 . S
O655 Dy643 2.664 . S
O655 C649 1.268 . S
O656 Dy640 2.351 . S
O656 C659 1.249 . S
O657 Dy643 2.326 . S
O657 C659 1.267 . S
C658 O650 1.249 . S
C658 O651 1.267 . S
C659 O656 1.249 . S
C659 O657 1.267 . S
Dy660 O664 2.398 . S
Dy660 O665 2.491 . S
Dy660 O666 2.403 . S
Dy660 O667 2.664 . S
Dy660 O671 2.326 . S
Dy660 O675 2.310 . S
Dy660 O676 2.351 . S
C661 O672 1.185 . S
C661 O673 1.355 . S
C662 O664 1.185 . S
C662 O665 1.355 . S
Dy663 O667 2.310 . S
Dy663 O670 2.351 . S
Dy663 O672 2.398 . S
Dy663 O673 2.491 . S
Dy663 O674 2.403 . S
Dy663 O675 2.664 . S
Dy663 O677 2.326 . S
O664 Dy660 2.398 . S
O664 C662 1.185 . S
O665 Dy660 2.491 . S
O665 C662 1.355 . S
O666 Dy660 2.403 . S
O666 C668 1.254 . S
O667 Dy660 2.664 . S
O667 Dy663 2.310 . S
O667 C668 1.268 . S
C668 O666 1.254 . S
C668 O667 1.268 . S
C669 O674 1.254 . S
C669 O675 1.268 . S
O670 Dy663 2.351 . S
O670 C678 1.249 . S
O671 Dy660 2.326 . S
O671 C678 1.267 . S
O672 C661 1.185 . S
O672 Dy663 2.398 . S
O673 C661 1.355 . S
O673 Dy663 2.491 . S
O674 Dy663 2.403 . S
O674 C669 1.254 . S
O675 Dy660 2.310 . S
O675 Dy663 2.664 . S
O675 C669 1.268 . S
O676 Dy660 2.351 . S
O676 C679 1.249 . S
O677 Dy663 2.326 . S
O677 C679 1.267 . S
C678 O670 1.249 . S
C678 O671 1.267 . S
C679 O676 1.249 . S
C679 O677 1.267 . S
Dy680 O684 2.398 . S
Dy680 O685 2.491 . S
Dy680 O686 2.403 . S
Dy680 O687 2.664 . S
Dy680 O691 2.326 . S
Dy680 O695 2.310 . S
Dy680 O696 2.351 . S
C681 O692 1.185 . S
C681 O693 1.355 . S
C682 O684 1.185 . S
C682 O685 1.355 . S
Dy683 O687 2.310 . S
Dy683 O690 2.351 . S
Dy683 O692 2.398 . S
Dy683 O693 2.491 . S
Dy683 O694 2.403 . S
Dy683 O695 2.664 . S
Dy683 O697 2.326 . S
O684 Dy680 2.398 . S
O684 C682 1.185 . S
O685 Dy680 2.491 . S
O685 C682 1.355 . S
O686 Dy680 2.403 . S
O686 C688 1.254 . S
O687 Dy680 2.664 . S
O687 Dy683 2.310 . S
O687 C688 1.268 . S
C688 O686 1.254 . S
C688 O687 1.268 . S
C689 O694 1.254 . S
C689 O695 1.268 . S
O690 Dy683 2.351 . S
O690 C698 1.249 . S
O691 Dy680 2.326 . S
O691 C698 1.267 . S
O692 C681 1.185 . S
O692 Dy683 2.398 . S
O693 C681 1.355 . S
O693 Dy683 2.491 . S
O694 Dy683 2.403 . S
O694 C689 1.254 . S
O695 Dy680 2.310 . S
O695 Dy683 2.664 . S
O695 C689 1.268 . S
O696 Dy680 2.351 . S
O696 C699 1.249 . S
O697 Dy683 2.326 . S
O697 C699 1.267 . S
C698 O690 1.249 . S
C698 O691 1.267 . S
C699 O696 1.249 . S
C699 O697 1.267 . S
Dy700 O704 2.398 . S
Dy700 O705 2.491 . S
Dy700 O706 2.403 . S
Dy700 O707 2.664 . S
Dy700 O711 2.326 . S
Dy700 O715 2.310 . S
Dy700 O716 2.351 . S
C701 O712 1.185 . S
C701 O713 1.355 . S
C702 O704 1.185 . S
C702 O705 1.355 . S
Dy703 O707 2.310 . S
Dy703 O710 2.351 . S
Dy703 O712 2.398 . S
Dy703 O713 2.491 . S
Dy703 O714 2.403 . S
Dy703 O715 2.664 . S
Dy703 O717 2.326 . S
O704 Dy700 2.398 . S
O704 C702 1.185 . S
O705 Dy700 2.491 . S
O705 C702 1.355 . S
O706 Dy700 2.403 . S
O706 C708 1.254 . S
O707 Dy700 2.664 . S
O707 Dy703 2.310 . S
O707 C708 1.268 . S
C708 O706 1.254 . S
C708 O707 1.268 . S
C709 O714 1.254 . S
C709 O715 1.268 . S
O710 Dy703 2.351 . S
O710 C718 1.249 . S
O711 Dy700 2.326 . S
O711 C718 1.267 . S
O712 C701 1.185 . S
O712 Dy703 2.398 . S
O713 C701 1.355 . S
O713 Dy703 2.491 . S
O714 Dy703 2.403 . S
O714 C709 1.254 . S
O715 Dy700 2.310 . S
O715 Dy703 2.664 . S
O715 C709 1.268 . S
O716 Dy700 2.351 . S
O716 C719 1.249 . S
O717 Dy703 2.326 . S
O717 C719 1.267 . S
C718 O710 1.249 . S
C718 O711 1.267 . S
C719 O716 1.249 . S
C719 O717 1.267 . S
H720 C726 0.930 . S
H721 C730 0.930 . S
H722 C735 0.929 . S
H723 C733 0.929 . S
H724 C728 0.929 . S
H725 C734 0.929 . S
C726 H720 0.930 . S
C726 C727 1.367 . S
C726 C734 1.378 . S
C727 C726 1.367 . S
C727 C735 1.433 . S
C728 H724 0.929 . S
C728 C730 1.378 1_545 S
C728 C732 1.350 . S
C729 C732 1.463 . S
C729 C734 1.350 . S
C729 N737 1.427 . S
C730 H721 0.930 . S
C730 C728 1.378 1_565 S
C730 C731 1.367 . S
C731 C730 1.367 . S
C731 C733 1.433 1_565 S
C732 C728 1.350 . S
C732 C729 1.463 . S
C732 N736 1.427 . S
C733 H723 0.929 . S
C733 C731 1.433 1_545 S
C733 N736 1.384 . S
C734 H725 0.929 . S
C734 C726 1.378 . S
C734 C729 1.350 . S
C735 H722 0.929 . S
C735 C727 1.433 . S
C735 N737 1.384 . S
N736 C732 1.427 . S
N736 C733 1.384 . S
N737 C729 1.427 . S
N737 C735 1.384 . S
H738 C744 0.930 . S
H739 C748 0.930 . S
H740 C753 0.929 . S
H741 C751 0.929 . S
H742 C746 0.929 . S
H743 C752 0.929 . S
C744 H738 0.930 . S
C744 C745 1.367 . S
C744 C752 1.378 1_455 S
C745 C744 1.367 . S
C745 C753 1.433 1_455 S
C746 H742 0.929 . S
C746 C748 1.378 . S
C746 C750 1.350 . S
C747 C750 1.463 . S
C747 C752 1.350 . S
C747 N755 1.427 . S
C748 H739 0.930 . S
C748 C746 1.378 . S
C748 C749 1.367 1_545 S
C749 C748 1.367 1_565 S
C749 C751 1.433 . S
C750 C746 1.350 . S
C750 C747 1.463 . S
C750 N754 1.427 . S
C751 H741 0.929 . S
C751 C749 1.433 . S
C751 N754 1.384 1_565 S
C752 H743 0.929 . S
C752 C744 1.378 1_655 S
C752 C747 1.350 . S
C753 H740 0.929 . S
C753 C745 1.433 1_655 S
C753 N755 1.384 . S
N754 C750 1.427 . S
N754 C751 1.384 1_545 S
N755 C747 1.427 . S
N755 C753 1.384 . S
H756 C762 0.930 1_455 S
H757 C766 0.930 . S
H758 C771 0.929 1_455 S
H759 C769 0.929 . S
H760 C764 0.929 . S
H761 C770 0.929 . S
C762 H756 0.930 1_655 S
C762 C763 1.367 1_655 S
C762 C770 1.378 . S
C763 C762 1.367 1_455 S
C763 C771 1.433 1_455 S
C764 H760 0.929 . S
C764 C766 1.378 . S
C764 C768 1.350 . S
C765 C768 1.463 . S
C765 C770 1.350 . S
C765 N773 1.427 . S
C766 H757 0.930 . S
C766 C764 1.378 . S
C766 C767 1.367 . S
C767 C766 1.367 . S
C767 C769 1.433 . S
C768 C764 1.350 . S
C768 C765 1.463 . S
C768 N772 1.427 . S
C769 H759 0.929 . S
C769 C767 1.433 . S
C769 N772 1.384 . S
C770 H761 0.929 . S
C770 C762 1.378 . S
C770 C765 1.350 . S
C771 H758 0.929 1_655 S
C771 C763 1.433 1_655 S
C771 N773 1.384 . S
N772 C768 1.427 . S
N772 C769 1.384 . S
N773 C765 1.427 . S
N773 C771 1.384 . S
H774 C780 0.930 . S
H775 C784 0.930 . S
H776 C789 0.929 . S
H777 C787 0.929 . S
H778 C782 0.929 . S
H779 C788 0.929 . S
C780 H774 0.930 . S
C780 C781 1.367 . S
C780 C788 1.378 . S
C781 C780 1.367 . S
C781 C789 1.433 . S
C782 H778 0.929 . S
C782 C784 1.378 1_455 S
C782 C786 1.350 . S
C783 C786 1.463 . S
C783 C788 1.350 . S
C783 N791 1.427 . S
C784 H775 0.930 . S
C784 C782 1.378 1_655 S
C784 C785 1.367 . S
C785 C784 1.367 . S
C785 C787 1.433 1_655 S
C786 C782 1.350 . S
C786 C783 1.463 . S
C786 N790 1.427 . S
C787 H777 0.929 . S
C787 C785 1.433 1_455 S
C787 N790 1.384 . S
C788 H779 0.929 . S
C788 C780 1.378 . S
C788 C783 1.350 . S
C789 H776 0.929 . S
C789 C781 1.433 . S
C789 N791 1.384 . S
N790 C786 1.427 . S
N790 C787 1.384 . S
N791 C783 1.427 . S
N791 C789 1.384 . S
H792 C798 0.930 . S
H793 C802 0.930 . S
H794 C807 0.929 . S
H795 C805 0.929 . S
H796 C800 0.929 . S
H797 C806 0.929 . S
C798 H792 0.930 . S
C798 C799 1.367 . S
C798 C806 1.378 . S
C799 C798 1.367 . S
C799 C807 1.433 . S
C800 H796 0.929 . S
C800 C802 1.378 1_565 S
C800 C804 1.350 . S
C801 C804 1.463 . S
C801 C806 1.350 . S
C801 N809 1.427 . S
C802 H793 0.930 . S
C802 C800 1.378 1_545 S
C802 C803 1.367 . S
C803 C802 1.367 . S
C803 C805 1.433 1_545 S
C804 C800 1.350 . S
C804 C801 1.463 . S
C804 N808 1.427 . S
C805 H795 0.929 . S
C805 C803 1.433 1_565 S
C805 N808 1.384 . S
C806 H797 0.929 . S
C806 C798 1.378 . S
C806 C801 1.350 . S
C807 H794 0.929 . S
C807 C799 1.433 . S
C807 N809 1.384 . S
N808 C804 1.427 . S
N808 C805 1.384 . S
N809 C801 1.427 . S
N809 C807 1.384 . S
H810 C816 0.930 . S
H811 C820 0.930 . S
H812 C825 0.929 . S
H813 C823 0.929 . S
H814 C818 0.929 . S
H815 C824 0.929 . S
C816 H810 0.930 . S
C816 C817 1.367 1_455 S
C816 C824 1.378 . S
C817 C816 1.367 1_655 S
C817 C825 1.433 . S
C818 H814 0.929 . S
C818 C820 1.378 1_565 S
C818 C822 1.350 . S
C819 C822 1.463 . S
C819 C824 1.350 . S
C819 N827 1.427 . S
C820 H811 0.930 . S
C820 C818 1.378 1_545 S
C820 C821 1.367 . S
C821 C820 1.367 . S
C821 C823 1.433 1_545 S
C822 C818 1.350 . S
C822 C819 1.463 . S
C822 N826 1.427 . S
C823 H813 0.929 . S
C823 C821 1.433 1_565 S
C823 N826 1.384 . S
C824 H815 0.929 . S
C824 C816 1.378 . S
C824 C819 1.350 . S
C825 H812 0.929 . S
C825 C817 1.433 . S
C825 N827 1.384 1_655 S
N826 C822 1.427 . S
N826 C823 1.384 . S
N827 C819 1.427 . S
N827 C825 1.384 1_455 S
H828 C834 0.930 . S
H829 C838 0.930 . S
H830 C843 0.929 . S
H831 C841 0.929 . S
H832 C836 0.929 . S
H833 C842 0.929 . S
C834 H828 0.930 . S
C834 C835 1.367 . S
C834 C842 1.378 . S
C835 C834 1.367 . S
C835 C843 1.433 . S
C836 H832 0.929 . S
C836 C838 1.378 1_565 S
C836 C840 1.350 . S
C837 C840 1.463 . S
C837 C842 1.350 . S
C837 N845 1.427 . S
C838 H829 0.930 . S
C838 C836 1.378 1_545 S
C838 C839 1.367 . S
C839 C838 1.367 . S
C839 C841 1.433 1_545 S
C840 C836 1.350 . S
C840 C837 1.463 . S
C840 N844 1.427 . S
C841 H831 0.929 . S
C841 C839 1.433 1_565 S
C841 N844 1.384 . S
C842 H833 0.929 . S
C842 C834 1.378 . S
C842 C837 1.350 . S
C843 H830 0.929 . S
C843 C835 1.433 . S
C843 N845 1.384 . S
N844 C840 1.427 . S
N844 C841 1.384 . S
N845 C837 1.427 . S
N845 C843 1.384 . S
H846 C852 0.930 1_545 S
H847 C856 0.930 1_655 S
H848 C861 0.929 1_545 S
H849 C859 0.929 1_655 S
H850 C854 0.929 . S
H851 C860 0.929 . S
C852 H846 0.930 1_565 S
C852 C853 1.367 1_565 S
C852 C860 1.378 . S
C853 C852 1.367 1_545 S
C853 C861 1.433 1_545 S
C854 H850 0.929 . S
C854 C856 1.378 . S
C854 C858 1.350 . S
C855 C858 1.463 . S
C855 C860 1.350 . S
C855 N863 1.427 . S
C856 H847 0.930 1_455 S
C856 C854 1.378 . S
C856 C857 1.367 1_455 S
C857 C856 1.367 1_655 S
C857 C859 1.433 1_655 S
C858 C854 1.350 . S
C858 C855 1.463 . S
C858 N862 1.427 . S
C859 H849 0.929 1_455 S
C859 C857 1.433 1_455 S
C859 N862 1.384 . S
C860 H851 0.929 . S
C860 C852 1.378 . S
C860 C855 1.350 . S
C861 H848 0.929 1_565 S
C861 C853 1.433 1_565 S
C861 N863 1.384 . S
N862 C858 1.427 . S
N862 C859 1.384 . S
N863 C855 1.427 . S
N863 C861 1.384 . S
H864 C870 0.930 . S
H865 C874 0.930 . S
H866 C879 0.929 . S
H867 C877 0.929 . S
H868 C872 0.929 . S
H869 C878 0.929 . S
C870 H864 0.930 . S
C870 C871 1.367 . S
C870 C878 1.378 1_655 S
C871 C870 1.367 . S
C871 C879 1.433 1_655 S
C872 H868 0.929 . S
C872 C874 1.378 . S
C872 C876 1.350 . S
C873 C876 1.463 . S
C873 C878 1.350 . S
C873 N881 1.427 . S
C874 H865 0.930 . S
C874 C872 1.378 . S
C874 C875 1.367 . S
C875 C874 1.367 . S
C875 C877 1.433 . S
C876 C872 1.350 . S
C876 C873 1.463 . S
C876 N880 1.427 . S
C877 H867 0.929 . S
C877 C875 1.433 . S
C877 N880 1.384 . S
C878 H869 0.929 . S
C878 C870 1.378 1_455 S
C878 C873 1.350 . S
C879 H866 0.929 . S
C879 C871 1.433 1_455 S
C879 N881 1.384 . S
N880 C876 1.427 . S
N880 C877 1.384 . S
N881 C873 1.427 . S
N881 C879 1.384 . S
H882 C888 0.930 . S
H883 C892 0.930 . S
H884 C897 0.929 . S
H885 C895 0.929 . S
H886 C890 0.929 . S
H887 C896 0.929 . S
C888 H882 0.930 . S
C888 C889 1.367 . S
C888 C896 1.378 . S
C889 C888 1.367 . S
C889 C897 1.433 . S
C890 H886 0.929 . S
C890 C892 1.378 1_655 S
C890 C894 1.350 . S
C891 C894 1.463 . S
C891 C896 1.350 . S
C891 N899 1.427 . S
C892 H883 0.930 . S
C892 C890 1.378 1_455 S
C892 C893 1.367 . S
C893 C892 1.367 . S
C893 C895 1.433 1_455 S
C894 C890 1.350 . S
C894 C891 1.463 . S
C894 N898 1.427 . S
C895 H885 0.929 . S
C895 C893 1.433 1_655 S
C895 N898 1.384 . S
C896 H887 0.929 . S
C896 C888 1.378 . S
C896 C891 1.350 . S
C897 H884 0.929 . S
C897 C889 1.433 . S
C897 N899 1.384 . S
N898 C894 1.427 . S
N898 C895 1.384 . S
N899 C891 1.427 . S
N899 C897 1.384 . S
H900 C906 0.930 . S
H901 C910 0.930 . S
H902 C915 0.929 . S
H903 C913 0.929 1_565 S
H904 C908 0.929 . S
H905 C914 0.929 . S
C906 H900 0.930 . S
C906 C907 1.367 . S
C906 C914 1.378 . S
C907 C906 1.367 . S
C907 C915 1.433 . S
C908 H904 0.929 . S
C908 C910 1.378 1_545 S
C908 C912 1.350 . S
C909 C912 1.463 . S
C909 C914 1.350 . S
C909 N917 1.427 . S
C910 H901 0.930 . S
C910 C908 1.378 1_565 S
C910 C911 1.367 . S
C911 C910 1.367 . S
C911 C913 1.433 1_565 S
C912 C908 1.350 . S
C912 C909 1.463 . S
C912 N916 1.427 . S
C913 H903 0.929 1_545 S
C913 C911 1.433 1_545 S
C913 N916 1.384 . S
C914 H905 0.929 . S
C914 C906 1.378 . S
C914 C909 1.350 . S
C915 H902 0.929 . S
C915 C907 1.433 . S
C915 N917 1.384 . S
N916 C912 1.427 . S
N916 C913 1.384 . S
N917 C909 1.427 . S
N917 C915 1.384 . S
H918 C924 0.930 . S
H919 C928 0.930 . S
H920 C933 0.929 . S
H921 C931 0.929 . S
H922 C926 0.929 . S
H923 C932 0.929 . S
C924 H918 0.930 . S
C924 C925 1.367 . S
C924 C932 1.378 1_565 S
C925 C924 1.367 . S
C925 C933 1.433 1_565 S
C926 H922 0.929 . S
C926 C928 1.378 . S
C926 C930 1.350 . S
C927 C930 1.463 . S
C927 C932 1.350 . S
C927 N935 1.427 . S
C928 H919 0.930 . S
C928 C926 1.378 . S
C928 C929 1.367 1_655 S
C929 C928 1.367 1_455 S
C929 C931 1.433 . S
C930 C926 1.350 . S
C930 C927 1.463 . S
C930 N934 1.427 . S
C931 H921 0.929 . S
C931 C929 1.433 . S
C931 N934 1.384 1_455 S
C932 H923 0.929 . S
C932 C924 1.378 1_545 S
C932 C927 1.350 . S
C933 H920 0.929 . S
C933 C925 1.433 1_545 S
C933 N935 1.384 . S
N934 C930 1.427 . S
N934 C931 1.384 1_655 S
N935 C927 1.427 . S
N935 C933 1.384 . S
H936 C942 0.930 . S
H937 C946 0.930 . S
H938 C951 0.929 . S
H939 C949 0.929 . S
H940 C944 0.929 . S
H941 C950 0.929 . S
C942 H936 0.930 . S
C942 C943 1.367 . S
C942 C950 1.378 . S
C943 C942 1.367 . S
C943 C951 1.433 . S
C944 H940 0.929 . S
C944 C946 1.378 . S
C944 C948 1.350 . S
C945 C948 1.463 . S
C945 C950 1.350 . S
C945 N953 1.427 . S
C946 H937 0.930 . S
C946 C944 1.378 . S
C946 C947 1.367 . S
C947 C946 1.367 . S
C947 C949 1.433 . S
C948 C944 1.350 . S
C948 C945 1.463 . S
C948 N952 1.427 . S
C949 H939 0.929 . S
C949 C947 1.433 . S
C949 N952 1.384 . S
C950 H941 0.929 . S
C950 C942 1.378 . S
C950 C945 1.350 . S
C951 H938 0.929 . S
C951 C943 1.433 . S
C951 N953 1.384 . S
N952 C948 1.427 . S
N952 C949 1.384 . S
N953 C945 1.427 . S
N953 C951 1.384 . S
H954 C960 0.930 . S
H955 C964 0.930 . S
H956 C969 0.929 . S
H957 C967 0.929 . S
H958 C962 0.929 . S
H959 C968 0.929 . S
C960 H954 0.930 . S
C960 C961 1.367 . S
C960 C968 1.378 . S
C961 C960 1.367 . S
C961 C969 1.433 . S
C962 H958 0.929 . S
C962 C964 1.378 . S
C962 C966 1.350 . S
C963 C966 1.463 . S
C963 C968 1.350 . S
C963 N971 1.427 . S
C964 H955 0.930 . S
C964 C962 1.378 . S
C964 C965 1.367 . S
C965 C964 1.367 . S
C965 C967 1.433 . S
C966 C962 1.350 . S
C966 C963 1.463 . S
C966 N970 1.427 . S
C967 H957 0.929 . S
C967 C965 1.433 . S
C967 N970 1.384 . S
C968 H959 0.929 . S
C968 C960 1.378 . S
C968 C963 1.350 . S
C969 H956 0.929 . S
C969 C961 1.433 . S
C969 N971 1.384 . S
N970 C966 1.427 . S
N970 C967 1.384 . S
N971 C963 1.427 . S
N971 C969 1.384 . S
H972 C978 0.930 . S
H973 C982 0.930 . S
H974 C987 0.929 . S
H975 C985 0.929 . S
H976 C980 0.929 . S
H977 C986 0.929 . S
C978 H972 0.930 . S
C978 C979 1.367 . S
C978 C986 1.378 . S
C979 C978 1.367 . S
C979 C987 1.433 . S
C980 H976 0.929 . S
C980 C982 1.378 . S
C980 C984 1.350 . S
C981 C984 1.463 . S
C981 C986 1.350 . S
C981 N989 1.427 . S
C982 H973 0.930 . S
C982 C980 1.378 . S
C982 C983 1.367 . S
C983 C982 1.367 . S
C983 C985 1.433 . S
C984 C980 1.350 . S
C984 C981 1.463 . S
C984 N988 1.427 . S
C985 H975 0.929 . S
C985 C983 1.433 . S
C985 N988 1.384 . S
C986 H977 0.929 . S
C986 C978 1.378 . S
C986 C981 1.350 . S
C987 H974 0.929 . S
C987 C979 1.433 . S
C987 N989 1.384 . S
N988 C984 1.427 . S
N988 C985 1.384 . S
N989 C981 1.427 . S
N989 C987 1.384 . S
H990 C996 0.930 . S
H991 C1000 0.930 . S
H992 C1005 0.929 . S
H993 C1003 0.929 . S
H994 C998 0.929 . S
H995 C1004 0.929 . S
C996 H990 0.930 . S
C996 C997 1.367 . S
C996 C1004 1.378 . S
C997 C996 1.367 . S
C997 C1005 1.433 . S
C998 H994 0.929 . S
C998 C1000 1.378 . S
C998 C1002 1.350 . S
C999 C1002 1.463 . S
C999 C1004 1.350 . S
C999 N1007 1.427 . S
C1000 H991 0.930 . S
C1000 C998 1.378 . S
C1000 C1001 1.367 . S
C1001 C1000 1.367 . S
C1001 C1003 1.433 . S
C1002 C998 1.350 . S
C1002 C999 1.463 . S
C1002 N1006 1.427 . S
C1003 H993 0.929 . S
C1003 C1001 1.433 . S
C1003 N1006 1.384 . S
C1004 H995 0.929 . S
C1004 C996 1.378 . S
C1004 C999 1.350 . S
C1005 H992 0.929 . S
C1005 C997 1.433 . S
C1005 N1007 1.384 . S
N1006 C1002 1.427 . S
N1006 C1003 1.384 . S
N1007 C999 1.427 . S
N1007 C1005 1.384 . S
H1008 C1014 0.930 . S
H1009 C1018 0.930 . S
H1010 C1023 0.929 . S
H1011 C1021 0.929 . S
H1012 C1016 0.929 . S
H1013 C1022 0.929 . S
C1014 H1008 0.930 . S
C1014 C1015 1.367 . S
C1014 C1022 1.378 . S
C1015 C1014 1.367 . S
C1015 C1023 1.433 . S
C1016 H1012 0.929 . S
C1016 C1018 1.378 . S
C1016 C1020 1.350 . S
C1017 C1020 1.463 . S
C1017 C1022 1.350 . S
C1017 N1025 1.427 . S
C1018 H1009 0.930 . S
C1018 C1016 1.378 . S
C1018 C1019 1.367 . S
C1019 C1018 1.367 . S
C1019 C1021 1.433 . S
C1020 C1016 1.350 . S
C1020 C1017 1.463 . S
C1020 N1024 1.427 . S
C1021 H1011 0.929 . S
C1021 C1019 1.433 . S
C1021 N1024 1.384 . S
C1022 H1013 0.929 . S
C1022 C1014 1.378 . S
C1022 C1017 1.350 . S
C1023 H1010 0.929 . S
C1023 C1015 1.433 . S
C1023 N1025 1.384 . S
N1024 C1020 1.427 . S
N1024 C1021 1.384 . S
N1025 C1017 1.427 . S
N1025 C1023 1.384 . S
H1026 C1032 0.930 . S
H1027 C1036 0.930 . S
H1028 C1041 0.929 . S
H1029 C1039 0.929 . S
H1030 C1034 0.929 . S
H1031 C1040 0.929 . S
C1032 H1026 0.930 . S
C1032 C1033 1.367 . S
C1032 C1040 1.378 . S
C1033 C1032 1.367 . S
C1033 C1041 1.433 . S
C1034 H1030 0.929 . S
C1034 C1036 1.378 . S
C1034 C1038 1.350 . S
C1035 C1038 1.463 . S
C1035 C1040 1.350 . S
C1035 N1043 1.427 . S
C1036 H1027 0.930 . S
C1036 C1034 1.378 . S
C1036 C1037 1.367 . S
C1037 C1036 1.367 . S
C1037 C1039 1.433 . S
C1038 C1034 1.350 . S
C1038 C1035 1.463 . S
C1038 N1042 1.427 . S
C1039 H1029 0.929 . S
C1039 C1037 1.433 . S
C1039 N1042 1.384 . S
C1040 H1031 0.929 . S
C1040 C1032 1.378 . S
C1040 C1035 1.350 . S
C1041 H1028 0.929 . S
C1041 C1033 1.433 . S
C1041 N1043 1.384 . S
N1042 C1038 1.427 . S
N1042 C1039 1.384 . S
N1043 C1035 1.427 . S
N1043 C1041 1.384 . S
H1044 C1050 0.930 . S
H1045 C1054 0.930 . S
H1046 C1059 0.929 . S
H1047 C1057 0.929 . S
H1048 C1052 0.929 . S
H1049 C1058 0.929 . S
C1050 H1044 0.930 . S
C1050 C1051 1.367 . S
C1050 C1058 1.378 . S
C1051 C1050 1.367 . S
C1051 C1059 1.433 . S
C1052 H1048 0.929 . S
C1052 C1054 1.378 . S
C1052 C1056 1.350 . S
C1053 C1056 1.463 . S
C1053 C1058 1.350 . S
C1053 N1061 1.427 . S
C1054 H1045 0.930 . S
C1054 C1052 1.378 . S
C1054 C1055 1.367 . S
C1055 C1054 1.367 . S
C1055 C1057 1.433 . S
C1056 C1052 1.350 . S
C1056 C1053 1.463 . S
C1056 N1060 1.427 . S
C1057 H1047 0.929 . S
C1057 C1055 1.433 . S
C1057 N1060 1.384 . S
C1058 H1049 0.929 . S
C1058 C1050 1.378 . S
C1058 C1053 1.350 . S
C1059 H1046 0.929 . S
C1059 C1051 1.433 . S
C1059 N1061 1.384 . S
N1060 C1056 1.427 . S
N1060 C1057 1.384 . S
N1061 C1053 1.427 . S
N1061 C1059 1.384 . S
H1062 C1068 0.930 . S
H1063 C1072 0.930 . S
H1064 C1077 0.929 . S
H1065 C1075 0.929 . S
H1066 C1070 0.929 . S
H1067 C1076 0.929 . S
C1068 H1062 0.930 . S
C1068 C1069 1.367 . S
C1068 C1076 1.378 . S
C1069 C1068 1.367 . S
C1069 C1077 1.433 . S
C1070 H1066 0.929 . S
C1070 C1072 1.378 . S
C1070 C1074 1.350 . S
C1071 C1074 1.463 . S
C1071 C1076 1.350 . S
C1071 N1079 1.427 . S
C1072 H1063 0.930 . S
C1072 C1070 1.378 . S
C1072 C1073 1.367 . S
C1073 C1072 1.367 . S
C1073 C1075 1.433 . S
C1074 C1070 1.350 . S
C1074 C1071 1.463 . S
C1074 N1078 1.427 . S
C1075 H1065 0.929 . S
C1075 C1073 1.433 . S
C1075 N1078 1.384 . S
C1076 H1067 0.929 . S
C1076 C1068 1.378 . S
C1076 C1071 1.350 . S
C1077 H1064 0.929 . S
C1077 C1069 1.433 . S
C1077 N1079 1.384 . S
N1078 C1074 1.427 . S
N1078 C1075 1.384 . S
N1079 C1071 1.427 . S
N1079 C1077 1.384 . S
H1080 C1086 0.930 . S
H1081 C1090 0.930 . S
H1082 C1095 0.929 . S
H1083 C1093 0.929 . S
H1084 C1088 0.929 . S
H1085 C1094 0.929 . S
C1086 H1080 0.930 . S
C1086 C1087 1.367 . S
C1086 C1094 1.378 . S
C1087 C1086 1.367 . S
C1087 C1095 1.433 . S
C1088 H1084 0.929 . S
C1088 C1090 1.378 . S
C1088 C1092 1.350 . S
C1089 C1092 1.463 . S
C1089 C1094 1.350 . S
C1089 N1097 1.427 . S
C1090 H1081 0.930 . S
C1090 C1088 1.378 . S
C1090 C1091 1.367 . S
C1091 C1090 1.367 . S
C1091 C1093 1.433 . S
C1092 C1088 1.350 . S
C1092 C1089 1.463 . S
C1092 N1096 1.427 . S
C1093 H1083 0.929 . S
C1093 C1091 1.433 . S
C1093 N1096 1.384 . S
C1094 H1085 0.929 . S
C1094 C1086 1.378 . S
C1094 C1089 1.350 . S
C1095 H1082 0.929 . S
C1095 C1087 1.433 . S
C1095 N1097 1.384 . S
N1096 C1092 1.427 . S
N1096 C1093 1.384 . S
N1097 C1089 1.427 . S
N1097 C1095 1.384 . S
H1098 C1104 0.930 . S
H1099 C1108 0.930 . S
H1100 C1113 0.929 . S
H1101 C1111 0.929 . S
H1102 C1106 0.929 . S
H1103 C1112 0.929 . S
C1104 H1098 0.930 . S
C1104 C1105 1.367 1_556 S
C1104 C1112 1.378 . S
C1105 C1104 1.367 1_554 S
C1105 C1113 1.433 . S
C1106 H1102 0.929 . S
C1106 C1108 1.378 . S
C1106 C1110 1.350 . S
C1107 C1110 1.463 . S
C1107 C1112 1.350 1_554 S
C1107 N1115 1.427 . S
C1108 H1099 0.930 . S
C1108 C1106 1.378 . S
C1108 C1109 1.400 . S
C1109 C1108 1.400 . S
C1109 C1111 1.403 1_554 S
C1110 C1106 1.350 . S
C1110 C1107 1.463 . S
C1110 N1114 1.427 1_554 S
C1111 H1101 0.929 . S
C1111 C1109 1.403 1_556 S
C1111 N1114 1.384 . S
C1112 H1103 0.929 . S
C1112 C1104 1.378 . S
C1112 C1107 1.350 1_556 S
C1113 H1100 0.929 . S
C1113 C1105 1.433 . S
C1113 N1115 1.384 . S
N1114 C1110 1.427 1_556 S
N1114 C1111 1.384 . S
N1115 C1107 1.427 . S
N1115 C1113 1.384 . S
H1116 C1122 0.930 . S
H1117 C1126 0.930 . S
H1118 C1131 0.929 . S
H1119 C1129 0.929 . S
H1120 C1124 0.929 . S
H1121 C1130 0.929 . S
C1122 H1116 0.930 . S
C1122 C1123 1.428 . S
C1122 C1130 1.378 . S
C1123 C1122 1.428 . S
C1123 C1131 1.374 1_554 S
C1124 H1120 0.929 . S
C1124 C1126 1.378 . S
C1124 C1128 1.350 1_556 S
C1125 C1128 1.463 . S
C1125 C1130 1.350 . S
C1125 N1133 1.427 1_554 S
C1126 H1117 0.930 . S
C1126 C1124 1.378 . S
C1126 C1127 1.367 1_556 S
C1127 C1126 1.367 1_554 S
C1127 C1129 1.433 . S
C1128 C1124 1.350 1_554 S
C1128 C1125 1.463 . S
C1128 N1132 1.427 . S
C1129 H1119 0.929 . S
C1129 C1127 1.433 . S
C1129 N1132 1.384 . S
C1130 H1121 0.929 . S
C1130 C1122 1.378 . S
C1130 C1125 1.350 . S
C1131 H1118 0.929 . S
C1131 C1123 1.374 1_556 S
C1131 N1133 1.384 . S
N1132 C1128 1.427 . S
N1132 C1129 1.384 . S
N1133 C1125 1.427 1_556 S
N1133 C1131 1.384 . S
H1134 C1140 0.930 . S
H1135 C1144 0.930 . S
H1136 C1149 0.929 . S
H1137 C1147 0.929 . S
H1138 C1142 0.929 . S
H1139 C1148 0.929 . S
C1140 H1134 0.930 . S
C1140 C1141 1.367 . S
C1140 C1148 1.378 . S
C1141 C1140 1.367 . S
C1141 C1149 1.433 1_554 S
C1142 H1138 0.929 . S
C1142 C1144 1.378 . S
C1142 C1146 1.275 1_556 S
C1143 C1146 1.473 . S
C1143 C1148 1.350 . S
C1143 N1151 1.427 1_554 S
C1144 H1135 0.930 . S
C1144 C1142 1.378 . S
C1144 C1145 1.355 1_556 S
C1145 C1144 1.355 1_554 S
C1145 C1147 1.446 . S
C1146 C1142 1.275 1_554 S
C1146 C1143 1.473 . S
C1146 N1150 1.503 . S
C1147 H1137 0.929 . S
C1147 C1145 1.446 . S
C1147 N1150 1.384 . S
C1148 H1139 0.929 . S
C1148 C1140 1.378 . S
C1148 C1143 1.350 . S
C1149 H1136 0.929 . S
C1149 C1141 1.433 1_556 S
C1149 N1151 1.384 . S
N1150 C1146 1.503 . S
N1150 C1147 1.384 . S
N1151 C1143 1.427 1_556 S
N1151 C1149 1.384 . S
H1152 C1158 0.930 . S
H1153 C1162 0.930 . S
H1154 C1167 0.929 . S
H1155 C1165 0.929 . S
H1156 C1160 0.929 . S
H1157 C1166 0.929 . S
C1158 H1152 0.930 . S
C1158 C1159 1.367 . S
C1158 C1166 1.378 . S
C1159 C1158 1.367 . S
C1159 C1167 1.433 . S
C1160 H1156 0.929 . S
C1160 C1162 1.378 . S
C1160 C1164 1.350 . S
C1161 C1164 1.463 . S
C1161 C1166 1.350 . S
C1161 N1169 1.427 . S
C1162 H1153 0.930 . S
C1162 C1160 1.378 . S
C1162 C1163 1.367 . S
C1163 C1162 1.367 . S
C1163 C1165 1.433 . S
C1164 C1160 1.350 . S
C1164 C1161 1.463 . S
C1164 N1168 1.427 . S
C1165 H1155 0.929 . S
C1165 C1163 1.433 . S
C1165 N1168 1.384 . S
C1166 H1157 0.929 . S
C1166 C1158 1.378 . S
C1166 C1161 1.350 . S
C1167 H1154 0.929 . S
C1167 C1159 1.433 . S
C1167 N1169 1.384 . S
N1168 C1164 1.427 . S
N1168 C1165 1.384 . S
N1169 C1161 1.427 . S
N1169 C1167 1.384 . S
H1170 C1176 0.930 . S
H1171 C1180 0.930 . S
H1172 C1185 0.929 . S
H1173 C1183 0.929 . S
H1174 C1178 0.929 . S
H1175 C1184 0.929 . S
C1176 H1170 0.930 . S
C1176 C1177 1.367 . S
C1176 C1184 1.378 . S
C1177 C1176 1.367 . S
C1177 C1185 1.433 . S
C1178 H1174 0.929 . S
C1178 C1180 1.378 . S
C1178 C1182 1.350 . S
C1179 C1182 1.463 . S
C1179 C1184 1.350 . S
C1179 N1187 1.427 . S
C1180 H1171 0.930 . S
C1180 C1178 1.378 . S
C1180 C1181 1.367 . S
C1181 C1180 1.367 . S
C1181 C1183 1.433 . S
C1182 C1178 1.350 . S
C1182 C1179 1.463 . S
C1182 N1186 1.427 . S
C1183 H1173 0.929 . S
C1183 C1181 1.433 . S
C1183 N1186 1.384 . S
C1184 H1175 0.929 . S
C1184 C1176 1.378 . S
C1184 C1179 1.350 . S
C1185 H1172 0.929 . S
C1185 C1177 1.433 . S
C1185 N1187 1.384 . S
N1186 C1182 1.427 . S
N1186 C1183 1.384 . S
N1187 C1179 1.427 . S
N1187 C1185 1.384 . S
H1188 C1194 0.930 . S
H1189 C1198 0.930 . S
H1190 C1203 0.929 . S
H1191 C1201 0.929 . S
H1192 C1196 0.929 . S
H1193 C1202 0.929 . S
C1194 H1188 0.930 . S
C1194 C1195 1.367 . S
C1194 C1202 1.378 . S
C1195 C1194 1.367 . S
C1195 C1203 1.433 . S
C1196 H1192 0.929 . S
C1196 C1198 1.378 . S
C1196 C1200 1.350 . S
C1197 C1200 1.463 . S
C1197 C1202 1.350 . S
C1197 N1205 1.427 . S
C1198 H1189 0.930 . S
C1198 C1196 1.378 . S
C1198 C1199 1.367 . S
C1199 C1198 1.367 . S
C1199 C1201 1.433 . S
C1200 C1196 1.350 . S
C1200 C1197 1.463 . S
C1200 N1204 1.427 . S
C1201 H1191 0.929 . S
C1201 C1199 1.433 . S
C1201 N1204 1.384 . S
C1202 H1193 0.929 . S
C1202 C1194 1.378 . S
C1202 C1197 1.350 . S
C1203 H1190 0.929 . S
C1203 C1195 1.433 . S
C1203 N1205 1.384 . S
N1204 C1200 1.427 . S
N1204 C1201 1.384 . S
N1205 C1197 1.427 . S
N1205 C1203 1.384 . S
H1206 C1212 0.930 . S
H1207 C1216 0.930 . S
H1208 C1221 0.929 . S
H1209 C1219 0.929 . S
H1210 C1214 0.929 . S
H1211 C1220 0.929 . S
C1212 H1206 0.930 . S
C1212 C1213 1.355 1_554 S
C1212 C1220 1.378 . S
C1213 C1212 1.355 1_556 S
C1213 C1221 1.445 . S
C1214 H1210 0.929 . S
C1214 C1216 1.378 . S
C1214 C1218 1.350 . S
C1215 C1218 1.473 . S
C1215 C1220 1.274 1_556 S
C1215 N1223 1.504 . S
C1216 H1207 0.930 . S
C1216 C1214 1.378 . S
C1216 C1217 1.367 . S
C1217 C1216 1.367 . S
C1217 C1219 1.433 1_556 S
C1218 C1214 1.350 . S
C1218 C1215 1.473 . S
C1218 N1222 1.427 1_556 S
C1219 H1209 0.929 . S
C1219 C1217 1.433 1_554 S
C1219 N1222 1.384 . S
C1220 H1211 0.929 . S
C1220 C1212 1.378 . S
C1220 C1215 1.274 1_554 S
C1221 H1208 0.929 . S
C1221 C1213 1.445 . S
C1221 N1223 1.384 . S
N1222 C1218 1.427 1_554 S
N1222 C1219 1.384 . S
N1223 C1215 1.504 . S
N1223 C1221 1.384 . S
H1224 C1230 0.930 . S
H1225 C1234 0.930 . S
H1226 C1239 0.929 . S
H1227 C1237 0.929 . S
H1228 C1232 0.929 . S
H1229 C1238 0.929 . S
C1230 H1224 0.930 . S
C1230 C1231 1.358 1_554 S
C1230 C1238 1.378 . S
C1231 C1230 1.358 1_556 S
C1231 C1239 1.444 . S
C1232 H1228 0.929 . S
C1232 C1234 1.378 . S
C1232 C1236 1.350 . S
C1233 C1236 1.463 . S
C1233 C1238 1.350 1_556 S
C1233 N1241 1.427 . S
C1234 H1225 0.930 . S
C1234 C1232 1.378 . S
C1234 C1235 1.367 . S
C1235 C1234 1.367 . S
C1235 C1237 1.433 1_556 S
C1236 C1232 1.350 . S
C1236 C1233 1.463 . S
C1236 N1240 1.427 1_556 S
C1237 H1227 0.929 . S
C1237 C1235 1.433 1_554 S
C1237 N1240 1.384 . S
C1238 H1229 0.929 . S
C1238 C1230 1.378 . S
C1238 C1233 1.350 1_554 S
C1239 H1226 0.929 . S
C1239 C1231 1.444 . S
C1239 N1241 1.384 . S
N1240 C1236 1.427 1_554 S
N1240 C1237 1.384 . S
N1241 C1233 1.427 . S
N1241 C1239 1.384 . S
H1242 C1248 0.930 . S
H1243 C1252 0.930 . S
H1244 C1257 0.929 . S
H1245 C1255 0.929 . S
H1246 C1250 0.929 . S
H1247 C1256 0.929 . S
C1248 H1242 0.930 . S
C1248 C1249 1.355 1_554 S
C1248 C1256 1.378 . S
C1249 C1248 1.355 1_556 S
C1249 C1257 1.446 . S
C1250 H1246 0.929 . S
C1250 C1252 1.378 . S
C1250 C1254 1.350 . S
C1251 C1254 1.463 . S
C1251 C1256 1.350 1_556 S
C1251 N1259 1.427 . S
C1252 H1243 0.930 . S
C1252 C1250 1.378 . S
C1252 C1253 1.367 . S
C1253 C1252 1.367 . S
C1253 C1255 1.433 1_556 S
C1254 C1250 1.350 . S
C1254 C1251 1.463 . S
C1254 N1258 1.427 1_556 S
C1255 H1245 0.929 . S
C1255 C1253 1.433 1_554 S
C1255 N1258 1.384 . S
C1256 H1247 0.929 . S
C1256 C1248 1.378 . S
C1256 C1251 1.350 1_554 S
C1257 H1244 0.929 . S
C1257 C1249 1.446 . S
C1257 N1259 1.384 . S
N1258 C1254 1.427 1_554 S
N1258 C1255 1.384 . S
N1259 C1251 1.427 . S
N1259 C1257 1.384 . S
H1260 C1266 0.930 . S
H1261 C1270 0.930 . S
H1262 C1275 0.929 . S
H1263 C1273 0.929 . S
H1264 C1268 0.929 . S
H1265 C1274 0.929 . S
C1266 H1260 0.930 . S
C1266 C1267 1.367 . S
C1266 C1274 1.378 . S
C1267 C1266 1.367 . S
C1267 C1275 1.433 . S
C1268 H1264 0.929 . S
C1268 C1270 1.378 . S
C1268 C1272 1.350 . S
C1269 C1272 1.463 . S
C1269 C1274 1.350 . S
C1269 N1277 1.427 . S
C1270 H1261 0.930 . S
C1270 C1268 1.378 . S
C1270 C1271 1.367 . S
C1271 C1270 1.367 . S
C1271 C1273 1.433 . S
C1272 C1268 1.350 . S
C1272 C1269 1.463 . S
C1272 N1276 1.427 . S
C1273 H1263 0.929 . S
C1273 C1271 1.433 . S
C1273 N1276 1.384 . S
C1274 H1265 0.929 . S
C1274 C1266 1.378 . S
C1274 C1269 1.350 . S
C1275 H1262 0.929 . S
C1275 C1267 1.433 . S
C1275 N1277 1.384 . S
N1276 C1272 1.427 . S
N1276 C1273 1.384 . S
N1277 C1269 1.427 . S
N1277 C1275 1.384 . S
H1278 C1284 0.930 . S
H1279 C1288 0.930 . S
H1280 C1293 0.929 . S
H1281 C1291 0.929 . S
H1282 C1286 0.929 . S
H1283 C1292 0.929 . S
C1284 H1278 0.930 . S
C1284 C1285 1.367 . S
C1284 C1292 1.378 . S
C1285 C1284 1.367 . S
C1285 C1293 1.433 . S
C1286 H1282 0.929 . S
C1286 C1288 1.378 . S
C1286 C1290 1.350 . S
C1287 C1290 1.463 . S
C1287 C1292 1.350 . S
C1287 N1295 1.427 . S
C1288 H1279 0.930 . S
C1288 C1286 1.378 . S
C1288 C1289 1.367 . S
C1289 C1288 1.367 . S
C1289 C1291 1.433 . S
C1290 C1286 1.350 . S
C1290 C1287 1.463 . S
C1290 N1294 1.427 . S
C1291 H1281 0.929 . S
C1291 C1289 1.433 . S
C1291 N1294 1.384 . S
C1292 H1283 0.929 . S
C1292 C1284 1.378 . S
C1292 C1287 1.350 . S
C1293 H1280 0.929 . S
C1293 C1285 1.433 . S
C1293 N1295 1.384 . S
N1294 C1290 1.427 . S
N1294 C1291 1.384 . S
N1295 C1287 1.427 . S
N1295 C1293 1.384 . S
H1296 C1302 0.930 . S
H1297 C1306 0.930 . S
H1298 C1311 0.929 . S
H1299 C1309 0.929 . S
H1300 C1304 0.929 . S
H1301 C1310 0.929 . S
C1302 H1296 0.930 . S
C1302 C1303 1.367 . S
C1302 C1310 1.378 . S
C1303 C1302 1.367 . S
C1303 C1311 1.433 . S
C1304 H1300 0.929 . S
C1304 C1306 1.378 . S
C1304 C1308 1.350 . S
C1305 C1308 1.463 . S
C1305 C1310 1.350 . S
C1305 N1313 1.427 . S
C1306 H1297 0.930 . S
C1306 C1304 1.378 . S
C1306 C1307 1.367 . S
C1307 C1306 1.367 . S
C1307 C1309 1.433 . S
C1308 C1304 1.350 . S
C1308 C1305 1.463 . S
C1308 N1312 1.427 . S
C1309 H1299 0.929 . S
C1309 C1307 1.433 . S
C1309 N1312 1.384 . S
C1310 H1301 0.929 . S
C1310 C1302 1.378 . S
C1310 C1305 1.350 . S
C1311 H1298 0.929 . S
C1311 C1303 1.433 . S
C1311 N1313 1.384 . S
N1312 C1308 1.427 . S
N1312 C1309 1.384 . S
N1313 C1305 1.427 . S
N1313 C1311 1.384 . S
H1314 C1320 0.930 . S
H1315 C1324 0.930 . S
H1316 C1329 0.929 . S
H1317 C1327 0.929 . S
H1318 C1322 0.929 . S
H1319 C1328 0.929 . S
C1320 H1314 0.930 . S
C1320 C1321 1.367 . S
C1320 C1328 1.378 . S
C1321 C1320 1.367 . S
C1321 C1329 1.433 . S
C1322 H1318 0.929 . S
C1322 C1324 1.378 . S
C1322 C1326 1.350 . S
C1323 C1326 1.463 . S
C1323 C1328 1.350 . S
C1323 N1331 1.427 . S
C1324 H1315 0.930 . S
C1324 C1322 1.378 . S
C1324 C1325 1.367 . S
C1325 C1324 1.367 . S
C1325 C1327 1.433 . S
C1326 C1322 1.350 . S
C1326 C1323 1.463 . S
C1326 N1330 1.427 . S
C1327 H1317 0.929 . S
C1327 C1325 1.433 . S
C1327 N1330 1.384 . S
C1328 H1319 0.929 . S
C1328 C1320 1.378 . S
C1328 C1323 1.350 . S
C1329 H1316 0.929 . S
C1329 C1321 1.433 . S
C1329 N1331 1.384 . S
N1330 C1326 1.427 . S
N1330 C1327 1.384 . S
N1331 C1323 1.427 . S
N1331 C1329 1.384 . S
H1332 C1338 0.930 . S
H1333 C1342 0.930 . S
H1334 C1347 0.929 . S
H1335 C1345 0.929 . S
H1336 C1340 0.929 . S
H1337 C1346 0.929 . S
C1338 H1332 0.930 . S
C1338 C1339 1.367 . S
C1338 C1346 1.378 . S
C1339 C1338 1.367 . S
C1339 C1347 1.433 . S
C1340 H1336 0.929 . S
C1340 C1342 1.378 . S
C1340 C1344 1.350 . S
C1341 C1344 1.463 . S
C1341 C1346 1.350 . S
C1341 N1349 1.427 . S
C1342 H1333 0.930 . S
C1342 C1340 1.378 . S
C1342 C1343 1.367 . S
C1343 C1342 1.367 . S
C1343 C1345 1.433 . S
C1344 C1340 1.350 . S
C1344 C1341 1.463 . S
C1344 N1348 1.427 . S
C1345 H1335 0.929 . S
C1345 C1343 1.433 . S
C1345 N1348 1.384 . S
C1346 H1337 0.929 . S
C1346 C1338 1.378 . S
C1346 C1341 1.350 . S
C1347 H1334 0.929 . S
C1347 C1339 1.433 . S
C1347 N1349 1.384 . S
N1348 C1344 1.427 . S
N1348 C1345 1.384 . S
N1349 C1341 1.427 . S
N1349 C1347 1.384 . S
H1350 C1356 0.930 . S
H1351 C1360 0.930 . S
H1352 C1365 0.929 . S
H1353 C1363 0.929 . S
H1354 C1358 0.929 . S
H1355 C1364 0.929 . S
C1356 H1350 0.930 . S
C1356 C1357 1.367 . S
C1356 C1364 1.378 . S
C1357 C1356 1.367 . S
C1357 C1365 1.433 . S
C1358 H1354 0.929 . S
C1358 C1360 1.378 . S
C1358 C1362 1.350 . S
C1359 C1362 1.463 . S
C1359 C1364 1.350 . S
C1359 N1367 1.427 . S
C1360 H1351 0.930 . S
C1360 C1358 1.378 . S
C1360 C1361 1.367 . S
C1361 C1360 1.367 . S
C1361 C1363 1.433 . S
C1362 C1358 1.350 . S
C1362 C1359 1.463 . S
C1362 N1366 1.427 . S
C1363 H1353 0.929 . S
C1363 C1361 1.433 . S
C1363 N1366 1.384 . S
C1364 H1355 0.929 . S
C1364 C1356 1.378 . S
C1364 C1359 1.350 . S
C1365 H1352 0.929 . S
C1365 C1357 1.433 . S
C1365 N1367 1.384 . S
N1366 C1362 1.427 . S
N1366 C1363 1.384 . S
N1367 C1359 1.427 . S
N1367 C1365 1.384 . S
H1368 C1374 0.930 . S
H1369 C1378 0.930 . S
H1370 C1383 0.929 . S
H1371 C1381 0.929 . S
H1372 C1376 0.929 . S
H1373 C1382 0.929 . S
C1374 H1368 0.930 . S
C1374 C1375 1.367 . S
C1374 C1382 1.378 . S
C1375 C1374 1.367 . S
C1375 C1383 1.433 . S
C1376 H1372 0.929 . S
C1376 C1378 1.378 . S
C1376 C1380 1.350 . S
C1377 C1380 1.463 . S
C1377 C1382 1.350 . S
C1377 N1385 1.427 . S
C1378 H1369 0.930 . S
C1378 C1376 1.378 . S
C1378 C1379 1.367 . S
C1379 C1378 1.367 . S
C1379 C1381 1.433 . S
C1380 C1376 1.350 . S
C1380 C1377 1.463 . S
C1380 N1384 1.427 . S
C1381 H1371 0.929 . S
C1381 C1379 1.433 . S
C1381 N1384 1.384 . S
C1382 H1373 0.929 . S
C1382 C1374 1.378 . S
C1382 C1377 1.350 . S
C1383 H1370 0.929 . S
C1383 C1375 1.433 . S
C1383 N1385 1.384 . S
N1384 C1380 1.427 . S
N1384 C1381 1.384 . S
N1385 C1377 1.427 . S
N1385 C1383 1.384 . S
H1386 C1392 0.930 . S
H1387 C1396 0.930 . S
H1388 C1401 0.929 . S
H1389 C1399 0.929 . S
H1390 C1394 0.929 . S
H1391 C1400 0.929 . S
C1392 H1386 0.930 . S
C1392 C1393 1.367 . S
C1392 C1400 1.378 . S
C1393 C1392 1.367 . S
C1393 C1401 1.433 1_545 S
C1394 H1390 0.929 . S
C1394 C1396 1.378 . S
C1394 C1398 1.350 . S
C1395 C1398 1.463 . S
C1395 C1400 1.350 1_565 S
C1395 N1403 1.427 . S
C1396 H1387 0.930 . S
C1396 C1394 1.378 . S
C1396 C1397 1.367 . S
C1397 C1396 1.367 . S
C1397 C1399 1.433 . S
C1398 C1394 1.350 . S
C1398 C1395 1.463 . S
C1398 N1402 1.427 . S
C1399 H1389 0.929 . S
C1399 C1397 1.433 . S
C1399 N1402 1.384 . S
C1400 H1391 0.929 . S
C1400 C1392 1.378 . S
C1400 C1395 1.350 1_545 S
C1401 H1388 0.929 . S
C1401 C1393 1.433 1_565 S
C1401 N1403 1.384 . S
N1402 C1398 1.427 . S
N1402 C1399 1.384 . S
N1403 C1395 1.427 . S
N1403 C1401 1.384 . S
H1404 C1410 0.930 . S
H1405 C1414 0.930 . S
H1406 C1419 0.929 . S
H1407 C1417 0.929 . S
H1408 C1412 0.929 . S
H1409 C1418 0.929 . S
C1410 H1404 0.930 . S
C1410 C1411 1.367 . S
C1410 C1418 1.378 . S
C1411 C1410 1.367 . S
C1411 C1419 1.433 . S
C1412 H1408 0.929 . S
C1412 C1414 1.378 . S
C1412 C1416 1.350 . S
C1413 C1416 1.463 . S
C1413 C1418 1.350 . S
C1413 N1421 1.427 . S
C1414 H1405 0.930 . S
C1414 C1412 1.378 . S
C1414 C1415 1.367 1_455 S
C1415 C1414 1.367 1_655 S
C1415 C1417 1.433 . S
C1416 C1412 1.350 . S
C1416 C1413 1.463 . S
C1416 N1420 1.427 . S
C1417 H1407 0.929 . S
C1417 C1415 1.433 . S
C1417 N1420 1.384 1_655 S
C1418 H1409 0.929 . S
C1418 C1410 1.378 . S
C1418 C1413 1.350 . S
C1419 H1406 0.929 . S
C1419 C1411 1.433 . S
C1419 N1421 1.384 . S
N1420 C1416 1.427 . S
N1420 C1417 1.384 1_455 S
N1421 C1413 1.427 . S
N1421 C1419 1.384 . S
H1422 C1428 0.930 . S
H1423 C1432 0.930 . S
H1424 C1437 0.929 . S
H1425 C1435 0.929 . S
H1426 C1430 0.929 . S
H1427 C1436 0.929 . S
C1428 H1422 0.930 . S
C1428 C1429 1.367 . S
C1428 C1436 1.378 . S
C1429 C1428 1.367 . S
C1429 C1437 1.433 . S
C1430 H1426 0.929 . S
C1430 C1432 1.378 . S
C1430 C1434 1.350 . S
C1431 C1434 1.463 . S
C1431 C1436 1.350 . S
C1431 N1439 1.427 . S
C1432 H1423 0.930 . S
C1432 C1430 1.378 . S
C1432 C1433 1.367 . S
C1433 C1432 1.367 . S
C1433 C1435 1.433 . S
C1434 C1430 1.350 . S
C1434 C1431 1.463 . S
C1434 N1438 1.427 . S
C1435 H1425 0.929 . S
C1435 C1433 1.433 . S
C1435 N1438 1.384 . S
C1436 H1427 0.929 . S
C1436 C1428 1.378 . S
C1436 C1431 1.350 . S
C1437 H1424 0.929 . S
C1437 C1429 1.433 . S
C1437 N1439 1.384 . S
N1438 C1434 1.427 . S
N1438 C1435 1.384 . S
N1439 C1431 1.427 . S
N1439 C1437 1.384 . S
H1440 C1446 0.930 . S
H1441 C1450 0.930 . S
H1442 C1455 0.929 . S
H1443 C1453 0.929 . S
H1444 C1448 0.929 . S
H1445 C1454 0.929 . S
C1446 H1440 0.930 . S
C1446 C1447 1.367 . S
C1446 C1454 1.378 . S
C1447 C1446 1.367 . S
C1447 C1455 1.433 1_565 S
C1448 H1444 0.929 . S
C1448 C1450 1.378 . S
C1448 C1452 1.350 . S
C1449 C1452 1.463 . S
C1449 C1454 1.350 1_545 S
C1449 N1457 1.427 . S
C1450 H1441 0.930 . S
C1450 C1448 1.378 . S
C1450 C1451 1.367 . S
C1451 C1450 1.367 . S
C1451 C1453 1.433 . S
C1452 C1448 1.350 . S
C1452 C1449 1.463 . S
C1452 N1456 1.427 . S
C1453 H1443 0.929 . S
C1453 C1451 1.433 . S
C1453 N1456 1.384 . S
C1454 H1445 0.929 . S
C1454 C1446 1.378 . S
C1454 C1449 1.350 1_565 S
C1455 H1442 0.929 . S
C1455 C1447 1.433 1_545 S
C1455 N1457 1.384 . S
N1456 C1452 1.427 . S
N1456 C1453 1.384 . S
N1457 C1449 1.427 . S
N1457 C1455 1.384 . S
H1458 C1464 0.930 . S
H1459 C1468 0.930 . S
H1460 C1473 0.929 . S
H1461 C1471 0.929 . S
H1462 C1466 0.929 . S
H1463 C1472 0.929 . S
C1464 H1458 0.930 . S
C1464 C1465 1.367 . S
C1464 C1472 1.378 . S
C1465 C1464 1.367 . S
C1465 C1473 1.433 . S
C1466 H1462 0.929 . S
C1466 C1468 1.378 1_655 S
C1466 C1470 1.350 . S
C1467 C1470 1.463 . S
C1467 C1472 1.350 . S
C1467 N1475 1.427 . S
C1468 H1459 0.930 . S
C1468 C1466 1.378 1_455 S
C1468 C1469 1.367 . S
C1469 C1468 1.367 . S
C1469 C1471 1.433 1_455 S
C1470 C1466 1.350 . S
C1470 C1467 1.463 . S
C1470 N1474 1.427 . S
C1471 H1461 0.929 . S
C1471 C1469 1.433 1_655 S
C1471 N1474 1.384 . S
C1472 H1463 0.929 . S
C1472 C1464 1.378 . S
C1472 C1467 1.350 . S
C1473 H1460 0.929 . S
C1473 C1465 1.433 . S
C1473 N1475 1.384 . S
N1474 C1470 1.427 . S
N1474 C1471 1.384 . S
N1475 C1467 1.427 . S
N1475 C1473 1.384 . S
H1476 C1482 0.930 . S
H1477 C1486 0.930 . S
H1478 C1491 0.929 . S
H1479 C1489 0.929 . S
H1480 C1484 0.929 . S
H1481 C1490 0.929 . S
C1482 H1476 0.930 . S
C1482 C1483 1.367 . S
C1482 C1490 1.378 . S
C1483 C1482 1.367 . S
C1483 C1491 1.433 . S
C1484 H1480 0.929 . S
C1484 C1486 1.378 . S
C1484 C1488 1.350 . S
C1485 C1488 1.463 . S
C1485 C1490 1.350 . S
C1485 N1493 1.427 . S
C1486 H1477 0.930 . S
C1486 C1484 1.378 . S
C1486 C1487 1.367 . S
C1487 C1486 1.367 . S
C1487 C1489 1.433 . S
C1488 C1484 1.350 . S
C1488 C1485 1.463 . S
C1488 N1492 1.427 . S
C1489 H1479 0.929 . S
C1489 C1487 1.433 . S
C1489 N1492 1.384 . S
C1490 H1481 0.929 . S
C1490 C1482 1.378 . S
C1490 C1485 1.350 . S
C1491 H1478 0.929 . S
C1491 C1483 1.433 . S
C1491 N1493 1.384 . S
N1492 C1488 1.427 . S
N1492 C1489 1.384 . S
N1493 C1485 1.427 . S
N1493 C1491 1.384 . S
H1494 C1500 0.930 . S
H1495 C1504 0.930 . S
H1496 C1509 0.929 . S
H1497 C1507 0.929 . S
H1498 C1502 0.929 . S
H1499 C1508 0.929 . S
C1500 H1494 0.930 . S
C1500 C1501 1.367 . S
C1500 C1508 1.378 . S
C1501 C1500 1.367 . S
C1501 C1509 1.433 . S
C1502 H1498 0.929 . S
C1502 C1504 1.378 . S
C1502 C1506 1.350 1_565 S
C1503 C1506 1.463 . S
C1503 C1508 1.350 . S
C1503 N1511 1.427 . S
C1504 H1495 0.930 . S
C1504 C1502 1.378 . S
C1504 C1505 1.367 . S
C1505 C1504 1.367 . S
C1505 C1507 1.433 1_565 S
C1506 C1502 1.350 1_545 S
C1506 C1503 1.463 . S
C1506 N1510 1.427 . S
C1507 H1497 0.929 . S
C1507 C1505 1.433 1_545 S
C1507 N1510 1.384 . S
C1508 H1499 0.929 . S
C1508 C1500 1.378 . S
C1508 C1503 1.350 . S
C1509 H1496 0.929 . S
C1509 C1501 1.433 . S
C1509 N1511 1.384 . S
N1510 C1506 1.427 . S
N1510 C1507 1.384 . S
N1511 C1503 1.427 . S
N1511 C1509 1.384 . S
H1512 C1518 0.930 . S
H1513 C1522 0.930 . S
H1514 C1527 0.929 . S
H1515 C1525 0.929 . S
H1516 C1520 0.929 . S
H1517 C1526 0.929 . S
C1518 H1512 0.930 . S
C1518 C1519 1.367 . S
C1518 C1526 1.378 . S
C1519 C1518 1.367 . S
C1519 C1527 1.433 . S
C1520 H1516 0.929 . S
C1520 C1522 1.378 . S
C1520 C1524 1.350 . S
C1521 C1524 1.463 . S
C1521 C1526 1.350 . S
C1521 N1529 1.427 . S
C1522 H1513 0.930 . S
C1522 C1520 1.378 . S
C1522 C1523 1.367 1_655 S
C1523 C1522 1.367 1_455 S
C1523 C1525 1.433 . S
C1524 C1520 1.350 . S
C1524 C1521 1.463 . S
C1524 N1528 1.427 . S
C1525 H1515 0.929 . S
C1525 C1523 1.433 . S
C1525 N1528 1.384 1_455 S
C1526 H1517 0.929 . S
C1526 C1518 1.378 . S
C1526 C1521 1.350 . S
C1527 H1514 0.929 . S
C1527 C1519 1.433 . S
C1527 N1529 1.384 . S
N1528 C1524 1.427 . S
N1528 C1525 1.384 1_655 S
N1529 C1521 1.427 . S
N1529 C1527 1.384 . S
H1530 C1536 0.930 . S
H1531 C1540 0.930 . S
H1532 C1545 0.929 . S
H1533 C1543 0.929 . S
H1534 C1538 0.929 . S
H1535 C1544 0.929 . S
C1536 H1530 0.930 . S
C1536 C1537 1.367 . S
C1536 C1544 1.378 . S
C1537 C1536 1.367 . S
C1537 C1545 1.433 . S
C1538 H1534 0.929 . S
C1538 C1540 1.378 . S
C1538 C1542 1.350 . S
C1539 C1542 1.463 . S
C1539 C1544 1.350 . S
C1539 N1547 1.427 . S
C1540 H1531 0.930 . S
C1540 C1538 1.378 . S
C1540 C1541 1.367 . S
C1541 C1540 1.367 . S
C1541 C1543 1.433 . S
C1542 C1538 1.350 . S
C1542 C1539 1.463 . S
C1542 N1546 1.427 . S
C1543 H1533 0.929 . S
C1543 C1541 1.433 . S
C1543 N1546 1.384 . S
C1544 H1535 0.929 . S
C1544 C1536 1.378 . S
C1544 C1539 1.350 . S
C1545 H1532 0.929 . S
C1545 C1537 1.433 . S
C1545 N1547 1.384 . S
N1546 C1542 1.427 . S
N1546 C1543 1.384 . S
N1547 C1539 1.427 . S
N1547 C1545 1.384 . S
H1548 C1554 0.930 . S
H1549 C1558 0.930 . S
H1550 C1563 0.929 . S
H1551 C1561 0.929 . S
H1552 C1556 0.929 . S
H1553 C1562 0.929 . S
C1554 H1548 0.930 . S
C1554 C1555 1.367 . S
C1554 C1562 1.378 . S
C1555 C1554 1.367 . S
C1555 C1563 1.433 1_545 S
C1556 H1552 0.929 . S
C1556 C1558 1.378 . S
C1556 C1560 1.350 . S
C1557 C1560 1.463 . S
C1557 C1562 1.350 1_565 S
C1557 N1565 1.427 . S
C1558 H1549 0.930 . S
C1558 C1556 1.378 . S
C1558 C1559 1.367 . S
C1559 C1558 1.367 . S
C1559 C1561 1.433 . S
C1560 C1556 1.350 . S
C1560 C1557 1.463 . S
C1560 N1564 1.427 . S
C1561 H1551 0.929 . S
C1561 C1559 1.433 . S
C1561 N1564 1.384 . S
C1562 H1553 0.929 . S
C1562 C1554 1.378 . S
C1562 C1557 1.350 1_545 S
C1563 H1550 0.929 . S
C1563 C1555 1.433 1_565 S
C1563 N1565 1.384 . S
N1564 C1560 1.427 . S
N1564 C1561 1.384 . S
N1565 C1557 1.427 . S
N1565 C1563 1.384 . S
H1566 C1572 0.930 . S
H1567 C1576 0.930 . S
H1568 C1581 0.929 . S
H1569 C1579 0.929 . S
H1570 C1574 0.929 . S
H1571 C1580 0.929 . S
C1572 H1566 0.930 . S
C1572 C1573 1.367 1_455 S
C1572 C1580 1.378 . S
C1573 C1572 1.367 1_655 S
C1573 C1581 1.433 . S
C1574 H1570 0.929 . S
C1574 C1576 1.378 . S
C1574 C1578 1.350 . S
C1575 C1578 1.463 . S
C1575 C1580 1.350 . S
C1575 N1583 1.427 . S
C1576 H1567 0.930 . S
C1576 C1574 1.378 . S
C1576 C1577 1.367 . S
C1577 C1576 1.367 . S
C1577 C1579 1.433 . S
C1578 C1574 1.350 . S
C1578 C1575 1.463 . S
C1578 N1582 1.427 . S
C1579 H1569 0.929 . S
C1579 C1577 1.433 . S
C1579 N1582 1.384 . S
C1580 H1571 0.929 . S
C1580 C1572 1.378 . S
C1580 C1575 1.350 . S
C1581 H1568 0.929 . S
C1581 C1573 1.433 . S
C1581 N1583 1.384 1_655 S
N1582 C1578 1.427 . S
N1582 C1579 1.384 . S
N1583 C1575 1.427 . S
N1583 C1581 1.384 1_455 S
H1584 C1590 0.930 . S
H1585 C1594 0.930 . S
H1586 C1599 0.929 . S
H1587 C1597 0.929 . S
H1588 C1592 0.929 . S
H1589 C1598 0.929 . S
C1590 H1584 0.930 . S
C1590 C1591 1.367 . S
C1590 C1598 1.378 . S
C1591 C1590 1.367 . S
C1591 C1599 1.433 . S
C1592 H1588 0.929 . S
C1592 C1594 1.378 . S
C1592 C1596 1.350 . S
C1593 C1596 1.463 1_655 S
C1593 C1598 1.350 . S
C1593 N1601 1.427 . S
C1594 H1585 0.930 . S
C1594 C1592 1.378 . S
C1594 C1595 1.367 . S
C1595 C1594 1.367 . S
C1595 C1597 1.433 . S
C1596 C1592 1.350 . S
C1596 C1593 1.463 1_455 S
C1596 N1600 1.427 . S
C1597 H1587 0.929 . S
C1597 C1595 1.433 . S
C1597 N1600 1.384 . S
C1598 H1589 0.929 . S
C1598 C1590 1.378 . S
C1598 C1593 1.350 . S
C1599 H1586 0.929 . S
C1599 C1591 1.433 . S
C1599 N1601 1.384 . S
N1600 C1596 1.427 . S
N1600 C1597 1.384 . S
N1601 C1593 1.427 . S
N1601 C1599 1.384 . S
H1602 C1608 0.930 . S
H1603 C1612 0.930 . S
H1604 C1617 0.929 . S
H1605 C1615 0.929 . S
H1606 C1610 0.929 . S
H1607 C1616 0.929 . S
C1608 H1602 0.930 . S
C1608 C1609 1.367 . S
C1608 C1616 1.378 . S
C1609 C1608 1.367 . S
C1609 C1617 1.433 . S
C1610 H1606 0.929 . S
C1610 C1612 1.378 . S
C1610 C1614 1.350 . S
C1611 C1614 1.463 . S
C1611 C1616 1.350 . S
C1611 N1619 1.427 . S
C1612 H1603 0.930 . S
C1612 C1610 1.378 . S
C1612 C1613 1.367 . S
C1613 C1612 1.367 . S
C1613 C1615 1.433 . S
C1614 C1610 1.350 . S
C1614 C1611 1.463 . S
C1614 N1618 1.427 . S
C1615 H1605 0.929 . S
C1615 C1613 1.433 . S
C1615 N1618 1.384 . S
C1616 H1607 0.929 . S
C1616 C1608 1.378 . S
C1616 C1611 1.350 . S
C1617 H1604 0.929 . S
C1617 C1609 1.433 . S
C1617 N1619 1.384 . S
N1618 C1614 1.427 . S
N1618 C1615 1.384 . S
N1619 C1611 1.427 . S
N1619 C1617 1.384 . S
H1620 C1626 0.930 . S
H1621 C1630 0.930 . S
H1622 C1635 0.929 . S
H1623 C1633 0.929 . S
H1624 C1628 0.929 . S
H1625 C1634 0.929 . S
C1626 H1620 0.930 . S
C1626 C1627 1.367 . S
C1626 C1634 1.378 . S
C1627 C1626 1.367 . S
C1627 C1635 1.433 . S
C1628 H1624 0.929 . S
C1628 C1630 1.378 . S
C1628 C1632 1.350 . S
C1629 C1632 1.463 1_565 S
C1629 C1634 1.350 . S
C1629 N1637 1.427 . S
C1630 H1621 0.930 . S
C1630 C1628 1.378 . S
C1630 C1631 1.367 . S
C1631 C1630 1.367 . S
C1631 C1633 1.433 . S
C1632 C1628 1.350 . S
C1632 C1629 1.463 1_545 S
C1632 N1636 1.427 . S
C1633 H1623 0.929 . S
C1633 C1631 1.433 . S
C1633 N1636 1.384 . S
C1634 H1625 0.929 . S
C1634 C1626 1.378 . S
C1634 C1629 1.350 . S
C1635 H1622 0.929 . S
C1635 C1627 1.433 . S
C1635 N1637 1.384 . S
N1636 C1632 1.427 . S
N1636 C1633 1.384 . S
N1637 C1629 1.427 . S
N1637 C1635 1.384 . S
H1638 C1644 0.930 . S
H1639 C1648 0.930 . S
H1640 C1653 0.929 . S
H1641 C1651 0.929 . S
H1642 C1646 0.929 . S
H1643 C1652 0.929 . S
C1644 H1638 0.930 . S
C1644 C1645 1.367 . S
C1644 C1652 1.378 . S
C1645 C1644 1.367 . S
C1645 C1653 1.433 . S
C1646 H1642 0.929 . S
C1646 C1648 1.378 . S
C1646 C1650 1.350 . S
C1647 C1650 1.463 . S
C1647 C1652 1.350 . S
C1647 N1655 1.427 . S
C1648 H1639 0.930 . S
C1648 C1646 1.378 . S
C1648 C1649 1.367 1_455 S
C1649 C1648 1.367 1_655 S
C1649 C1651 1.433 . S
C1650 C1646 1.350 . S
C1650 C1647 1.463 . S
C1650 N1654 1.427 . S
C1651 H1641 0.929 . S
C1651 C1649 1.433 . S
C1651 N1654 1.384 1_655 S
C1652 H1643 0.929 . S
C1652 C1644 1.378 . S
C1652 C1647 1.350 . S
C1653 H1640 0.929 . S
C1653 C1645 1.433 . S
C1653 N1655 1.384 . S
N1654 C1650 1.427 . S
N1654 C1651 1.384 1_455 S
N1655 C1647 1.427 . S
N1655 C1653 1.384 . S
H1656 C1662 0.930 . S
H1657 C1666 0.930 . S
H1658 C1671 0.929 . S
H1659 C1669 0.929 . S
H1660 C1664 0.929 . S
H1661 C1670 0.929 . S
C1662 H1656 0.930 . S
C1662 C1663 1.367 . S
C1662 C1670 1.378 . S
C1663 C1662 1.367 . S
C1663 C1671 1.433 . S
C1664 H1660 0.929 . S
C1664 C1666 1.378 . S
C1664 C1668 1.350 . S
C1665 C1668 1.463 . S
C1665 C1670 1.350 . S
C1665 N1673 1.427 . S
C1666 H1657 0.930 . S
C1666 C1664 1.378 . S
C1666 C1667 1.367 . S
C1667 C1666 1.367 . S
C1667 C1669 1.433 . S
C1668 C1664 1.350 . S
C1668 C1665 1.463 . S
C1668 N1672 1.427 . S
C1669 H1659 0.929 . S
C1669 C1667 1.433 . S
C1669 N1672 1.384 . S
C1670 H1661 0.929 . S
C1670 C1662 1.378 . S
C1670 C1665 1.350 . S
C1671 H1658 0.929 . S
C1671 C1663 1.433 . S
C1671 N1673 1.384 . S
N1672 C1668 1.427 . S
N1672 C1669 1.384 . S
N1673 C1665 1.427 . S
N1673 C1671 1.384 . S
H1674 C1680 0.930 . S
H1675 C1684 0.930 . S
H1676 C1689 0.929 . S
H1677 C1687 0.929 . S
H1678 C1682 0.928 . S
H1679 C1688 0.929 . S
C1680 H1674 0.930 . S
C1680 C1681 1.367 . S
C1680 C1688 1.378 . S
C1681 C1680 1.367 . S
C1681 C1689 1.433 . S
C1682 H1678 0.928 . S
C1682 C1684 1.393 . S
C1682 C1686 1.335 1_545 S
C1683 C1686 1.463 . S
C1683 C1688 1.350 . S
C1683 N1691 1.427 . S
C1684 H1675 0.930 . S
C1684 C1682 1.393 . S
C1684 C1685 1.367 . S
C1685 C1684 1.367 . S
C1685 C1687 1.433 1_545 S
C1686 C1682 1.335 1_565 S
C1686 C1683 1.463 . S
C1686 N1690 1.427 . S
C1687 H1677 0.929 . S
C1687 C1685 1.433 1_565 S
C1687 N1690 1.384 . S
C1688 H1679 0.929 . S
C1688 C1680 1.378 . S
C1688 C1683 1.350 . S
C1689 H1676 0.929 . S
C1689 C1681 1.433 . S
C1689 N1691 1.384 . S
N1690 C1686 1.427 . S
N1690 C1687 1.384 . S
N1691 C1683 1.427 . S
N1691 C1689 1.384 . S
H1692 C1698 0.930 . S
H1693 C1702 0.930 . S
H1694 C1707 0.929 . S
H1695 C1705 0.929 . S
H1696 C1700 0.929 . S
H1697 C1706 0.929 . S
C1698 H1692 0.930 . S
C1698 C1699 1.367 . S
C1698 C1706 1.378 . S
C1699 C1698 1.367 . S
C1699 C1707 1.433 . S
C1700 H1696 0.929 . S
C1700 C1702 1.378 . S
C1700 C1704 1.350 . S
C1701 C1704 1.463 . S
C1701 C1706 1.350 . S
C1701 N1709 1.427 . S
C1702 H1693 0.930 . S
C1702 C1700 1.378 . S
C1702 C1703 1.367 1_565 S
C1703 C1702 1.367 1_545 S
C1703 C1705 1.433 . S
C1704 C1700 1.350 . S
C1704 C1701 1.463 . S
C1704 N1708 1.427 . S
C1705 H1695 0.929 . S
C1705 C1703 1.433 . S
C1705 N1708 1.384 1_545 S
C1706 H1697 0.929 . S
C1706 C1698 1.378 . S
C1706 C1701 1.350 . S
C1707 H1694 0.929 . S
C1707 C1699 1.433 . S
C1707 N1709 1.384 . S
N1708 C1704 1.427 . S
N1708 C1705 1.384 1_565 S
N1709 C1701 1.427 . S
N1709 C1707 1.384 . S
H1710 C1716 0.930 . S
H1711 C1720 0.930 . S
H1712 C1725 0.929 . S
H1713 C1723 0.929 . S
H1714 C1718 0.929 . S
H1715 C1724 0.929 . S
C1716 H1710 0.930 . S
C1716 C1717 1.367 . S
C1716 C1724 1.378 1_655 S
C1717 C1716 1.367 . S
C1717 C1725 1.433 1_655 S
C1718 H1714 0.929 . S
C1718 C1720 1.378 . S
C1718 C1722 1.350 . S
C1719 C1722 1.463 . S
C1719 C1724 1.350 . S
C1719 N1727 1.427 . S
C1720 H1711 0.930 . S
C1720 C1718 1.378 . S
C1720 C1721 1.367 . S
C1721 C1720 1.367 . S
C1721 C1723 1.433 . S
C1722 C1718 1.350 . S
C1722 C1719 1.463 . S
C1722 N1726 1.427 . S
C1723 H1713 0.929 . S
C1723 C1721 1.433 . S
C1723 N1726 1.384 . S
C1724 H1715 0.929 . S
C1724 C1716 1.378 1_455 S
C1724 C1719 1.350 . S
C1725 H1712 0.929 . S
C1725 C1717 1.433 1_455 S
C1725 N1727 1.384 . S
N1726 C1722 1.427 . S
N1726 C1723 1.384 . S
N1727 C1719 1.427 . S
N1727 C1725 1.384 . S
H1728 C1734 0.930 . S
H1729 C1738 0.930 . S
H1730 C1743 0.929 . S
H1731 C1741 0.929 . S
H1732 C1736 0.929 . S
H1733 C1742 0.929 . S
C1734 H1728 0.930 . S
C1734 C1735 1.367 . S
C1734 C1742 1.378 . S
C1735 C1734 1.367 . S
C1735 C1743 1.433 . S
C1736 H1732 0.929 . S
C1736 C1738 1.378 . S
C1736 C1740 1.350 . S
C1737 C1740 1.463 . S
C1737 C1742 1.350 . S
C1737 N1745 1.427 . S
C1738 H1729 0.930 . S
C1738 C1736 1.378 . S
C1738 C1739 1.367 . S
C1739 C1738 1.367 . S
C1739 C1741 1.433 . S
C1740 C1736 1.350 . S
C1740 C1737 1.463 . S
C1740 N1744 1.427 . S
C1741 H1731 0.929 . S
C1741 C1739 1.433 . S
C1741 N1744 1.384 . S
C1742 H1733 0.929 . S
C1742 C1734 1.378 . S
C1742 C1737 1.350 . S
C1743 H1730 0.929 . S
C1743 C1735 1.433 . S
C1743 N1745 1.384 . S
N1744 C1740 1.427 . S
N1744 C1741 1.384 . S
N1745 C1737 1.427 . S
N1745 C1743 1.384 . S
H1746 C1752 0.930 . S
H1747 C1756 0.930 . S
H1748 C1761 0.929 . S
H1749 C1759 0.929 . S
H1750 C1754 0.929 . S
H1751 C1760 0.929 . S
C1752 H1746 0.930 . S
C1752 C1753 1.385 . S
C1752 C1760 1.378 . S
C1753 C1752 1.385 . S
C1753 C1761 1.414 1_554 S
C1754 H1750 0.929 . S
C1754 C1756 1.378 . S
C1754 C1758 1.350 . S
C1755 C1758 1.468 1_565 S
C1755 C1760 1.316 1_556 S
C1755 N1763 1.461 . S
C1756 H1747 0.930 . S
C1756 C1754 1.378 . S
C1756 C1757 1.367 . S
C1757 C1756 1.367 . S
C1757 C1759 1.433 1_556 S
C1758 C1754 1.350 . S
C1758 C1755 1.468 1_545 S
C1758 N1762 1.427 1_556 S
C1759 H1749 0.929 . S
C1759 C1757 1.433 1_554 S
C1759 N1762 1.384 . S
C1760 H1751 0.929 . S
C1760 C1752 1.378 . S
C1760 C1755 1.316 1_554 S
C1761 H1748 0.929 . S
C1761 C1753 1.414 1_556 S
C1761 N1763 1.384 . S
N1762 C1758 1.427 1_554 S
N1762 C1759 1.384 . S
N1763 C1755 1.461 . S
N1763 C1761 1.384 . S
H1764 C1770 0.930 . S
H1765 C1774 0.930 . S
H1766 C1779 0.929 . S
H1767 C1777 0.929 . S
H1768 C1772 0.929 . S
H1769 C1778 0.929 . S
C1770 H1764 0.930 . S
C1770 C1771 1.363 . S
C1770 C1778 1.378 . S
C1771 C1770 1.363 . S
C1771 C1779 1.437 1_556 S
C1772 H1768 0.929 . S
C1772 C1774 1.378 . S
C1772 C1776 1.350 1_554 S
C1773 C1776 1.463 1_455 S
C1773 C1778 1.350 . S
C1773 N1781 1.427 1_556 S
C1774 H1765 0.930 . S
C1774 C1772 1.378 . S
C1774 C1775 1.367 1_554 S
C1775 C1774 1.367 1_556 S
C1775 C1777 1.433 . S
C1776 C1772 1.350 1_556 S
C1776 C1773 1.463 1_655 S
C1776 N1780 1.427 . S
C1777 H1767 0.929 . S
C1777 C1775 1.433 . S
C1777 N1780 1.384 . S
C1778 H1769 0.929 . S
C1778 C1770 1.378 . S
C1778 C1773 1.350 . S
C1779 H1766 0.929 . S
C1779 C1771 1.437 1_554 S
C1779 N1781 1.384 . S
N1780 C1776 1.427 . S
N1780 C1777 1.384 . S
N1781 C1773 1.427 1_554 S
N1781 C1779 1.384 . S
H1782 C1788 0.930 . S
H1783 C1792 0.930 . S
H1784 C1797 0.929 . S
H1785 C1795 0.929 . S
H1786 C1790 0.929 . S
H1787 C1796 0.929 . S
C1788 H1782 0.930 . S
C1788 C1789 1.367 1_554 S
C1788 C1796 1.378 . S
C1789 C1788 1.367 1_556 S
C1789 C1797 1.433 . S
C1790 H1786 0.929 . S
C1790 C1792 1.378 . S
C1790 C1794 1.350 . S
C1791 C1794 1.463 . S
C1791 C1796 1.350 1_556 S
C1791 N1799 1.427 . S
C1792 H1783 0.930 . S
C1792 C1790 1.378 . S
C1792 C1793 1.379 . S
C1793 C1792 1.379 . S
C1793 C1795 1.421 1_556 S
C1794 C1790 1.350 . S
C1794 C1791 1.463 . S
C1794 N1798 1.427 1_556 S
C1795 H1785 0.929 . S
C1795 C1793 1.421 1_554 S
C1795 N1798 1.384 . S
C1796 H1787 0.929 . S
C1796 C1788 1.378 . S
C1796 C1791 1.350 1_554 S
C1797 H1784 0.929 . S
C1797 C1789 1.433 . S
C1797 N1799 1.384 . S
N1798 C1794 1.427 1_554 S
N1798 C1795 1.384 . S
N1799 C1791 1.427 . S
N1799 C1797 1.384 . S
H1800 C1806 0.930 . S
H1801 C1810 0.930 . S
H1802 C1815 0.929 . S
H1803 C1813 0.929 1_565 S
H1804 C1808 0.929 . S
H1805 C1814 0.929 . S
C1806 H1800 0.930 . S
C1806 C1807 1.367 . S
C1806 C1814 1.378 . S
C1807 C1806 1.367 . S
C1807 C1815 1.433 . S
C1808 H1804 0.929 . S
C1808 C1810 1.378 . S
C1808 C1812 1.350 . S
C1809 C1812 1.463 . S
C1809 C1814 1.350 . S
C1809 N1817 1.427 . S
C1810 H1801 0.930 . S
C1810 C1808 1.378 . S
C1810 C1811 1.367 1_545 S
C1811 C1810 1.367 1_565 S
C1811 C1813 1.433 1_565 S
C1812 C1808 1.350 . S
C1812 C1809 1.463 . S
C1812 N1816 1.427 . S
C1813 H1803 0.929 1_545 S
C1813 C1811 1.433 1_545 S
C1813 N1816 1.384 . S
C1814 H1805 0.929 . S
C1814 C1806 1.378 . S
C1814 C1809 1.350 . S
C1815 H1802 0.929 . S
C1815 C1807 1.433 . S
C1815 N1817 1.384 . S
N1816 C1812 1.427 . S
N1816 C1813 1.384 . S
N1817 C1809 1.427 . S
N1817 C1815 1.384 . S
H1818 C1824 0.930 . S
H1819 C1828 0.930 . S
H1820 C1833 0.929 . S
H1821 C1831 0.929 . S
H1822 C1826 0.929 . S
H1823 C1832 0.929 . S
C1824 H1818 0.930 . S
C1824 C1825 1.367 . S
C1824 C1832 1.378 . S
C1825 C1824 1.367 . S
C1825 C1833 1.433 . S
C1826 H1822 0.929 . S
C1826 C1828 1.378 . S
C1826 C1830 1.350 . S
C1827 C1830 1.463 . S
C1827 C1832 1.350 . S
C1827 N1835 1.427 . S
C1828 H1819 0.930 . S
C1828 C1826 1.378 . S
C1828 C1829 1.367 1_655 S
C1829 C1828 1.367 1_455 S
C1829 C1831 1.433 . S
C1830 C1826 1.350 . S
C1830 C1827 1.463 . S
C1830 N1834 1.427 . S
C1831 H1821 0.929 . S
C1831 C1829 1.433 . S
C1831 N1834 1.384 1_455 S
C1832 H1823 0.929 . S
C1832 C1824 1.378 . S
C1832 C1827 1.350 . S
C1833 H1820 0.929 . S
C1833 C1825 1.433 . S
C1833 N1835 1.384 . S
N1834 C1830 1.427 . S
N1834 C1831 1.384 1_655 S
N1835 C1827 1.427 . S
N1835 C1833 1.384 . S
H1836 C1842 0.930 . S
H1837 C1846 0.930 . S
H1838 C1851 0.929 . S
H1839 C1849 0.929 . S
H1840 C1844 0.929 . S
H1841 C1850 0.929 . S
C1842 H1836 0.930 . S
C1842 C1843 1.367 . S
C1842 C1850 1.378 . S
C1843 C1842 1.367 . S
C1843 C1851 1.433 . S
C1844 H1840 0.929 . S
C1844 C1846 1.378 . S
C1844 C1848 1.350 . S
C1845 C1848 1.463 . S
C1845 C1850 1.350 . S
C1845 N1853 1.427 . S
C1846 H1837 0.930 . S
C1846 C1844 1.378 . S
C1846 C1847 1.367 . S
C1847 C1846 1.367 . S
C1847 C1849 1.433 . S
C1848 C1844 1.350 . S
C1848 C1845 1.463 . S
C1848 N1852 1.427 . S
C1849 H1839 0.929 . S
C1849 C1847 1.433 . S
C1849 N1852 1.384 . S
C1850 H1841 0.929 . S
C1850 C1842 1.378 . S
C1850 C1845 1.350 . S
C1851 H1838 0.929 . S
C1851 C1843 1.433 . S
C1851 N1853 1.384 . S
N1852 C1848 1.427 . S
N1852 C1849 1.384 . S
N1853 C1845 1.427 . S
N1853 C1851 1.384 . S
H1854 C1860 0.930 . S
H1855 C1864 0.930 . S
H1856 C1869 0.929 . S
H1857 C1867 0.929 . S
H1858 C1862 0.929 . S
H1859 C1868 0.929 . S
C1860 H1854 0.930 . S
C1860 C1861 1.367 . S
C1860 C1868 1.378 . S
C1861 C1860 1.367 . S
C1861 C1869 1.433 1_554 S
C1862 H1858 0.929 . S
C1862 C1864 1.378 . S
C1862 C1866 1.294 1_556 S
C1863 C1866 1.470 1_565 S
C1863 C1868 1.350 . S
C1863 N1871 1.427 1_554 S
C1864 H1855 0.930 . S
C1864 C1862 1.378 . S
C1864 C1865 1.381 . S
C1865 C1864 1.381 . S
C1865 C1867 1.418 1_556 S
C1866 C1862 1.294 1_554 S
C1866 C1863 1.470 1_545 S
C1866 N1870 1.482 . S
C1867 H1857 0.929 . S
C1867 C1865 1.418 1_554 S
C1867 N1870 1.384 . S
C1868 H1859 0.929 . S
C1868 C1860 1.378 . S
C1868 C1863 1.350 . S
C1869 H1856 0.929 . S
C1869 C1861 1.433 1_556 S
C1869 N1871 1.384 . S
N1870 C1866 1.482 . S
N1870 C1867 1.384 . S
N1871 C1863 1.427 1_556 S
N1871 C1869 1.384 . S
H1872 C1878 0.930 . S
H1873 C1882 0.930 . S
H1874 C1887 0.929 . S
H1875 C1885 0.929 . S
H1876 C1880 0.929 . S
H1877 C1886 0.929 . S
C1878 H1872 0.930 . S
C1878 C1879 1.368 1_554 S
C1878 C1886 1.378 . S
C1879 C1878 1.368 1_556 S
C1879 C1887 1.432 . S
C1880 H1876 0.929 . S
C1880 C1882 1.378 . S
C1880 C1884 1.350 1_556 S
C1881 C1884 1.463 1_655 S
C1881 C1886 1.350 . S
C1881 N1889 1.427 1_554 S
C1882 H1873 0.930 . S
C1882 C1880 1.378 . S
C1882 C1883 1.367 1_556 S
C1883 C1882 1.367 1_554 S
C1883 C1885 1.433 . S
C1884 C1880 1.350 1_554 S
C1884 C1881 1.463 1_455 S
C1884 N1888 1.427 . S
C1885 H1875 0.929 . S
C1885 C1883 1.433 . S
C1885 N1888 1.384 . S
C1886 H1877 0.929 . S
C1886 C1878 1.378 . S
C1886 C1881 1.350 . S
C1887 H1874 0.929 . S
C1887 C1879 1.432 . S
C1887 N1889 1.384 . S
N1888 C1884 1.427 . S
N1888 C1885 1.384 . S
N1889 C1881 1.427 1_556 S
N1889 C1887 1.384 . S
H1890 C1896 0.930 . S
H1891 C1900 0.930 . S
H1892 C1905 0.929 . S
H1893 C1903 0.929 . S
H1894 C1898 0.929 . S
H1895 C1904 0.929 . S
C1896 H1890 0.930 . S
C1896 C1897 1.367 . S
C1896 C1904 1.378 . S
C1897 C1896 1.367 . S
C1897 C1905 1.433 1_554 S
C1898 H1894 0.929 . S
C1898 C1900 1.378 . S
C1898 C1902 1.296 1_556 S
C1899 C1902 1.470 . S
C1899 C1904 1.350 . S
C1899 N1907 1.427 1_554 S
C1900 H1891 0.930 . S
C1900 C1898 1.378 . S
C1900 C1901 1.378 . S
C1901 C1900 1.378 . S
C1901 C1903 1.421 1_556 S
C1902 C1898 1.296 1_554 S
C1902 C1899 1.470 . S
C1902 N1906 1.480 . S
C1903 H1893 0.929 . S
C1903 C1901 1.421 1_554 S
C1903 N1906 1.384 . S
C1904 H1895 0.929 . S
C1904 C1896 1.378 . S
C1904 C1899 1.350 . S
C1905 H1892 0.929 . S
C1905 C1897 1.433 1_556 S
C1905 N1907 1.384 . S
N1906 C1902 1.480 . S
N1906 C1903 1.384 . S
N1907 C1899 1.427 1_556 S
N1907 C1905 1.384 . S
H1908 C1914 0.930 . S
H1909 C1918 0.930 . S
H1910 C1923 0.929 . S
H1911 C1921 0.929 . S
H1912 C1916 0.929 . S
H1913 C1922 0.929 . S
C1914 H1908 0.930 . S
C1914 C1915 1.367 . S
C1914 C1922 1.378 . S
C1915 C1914 1.367 . S
C1915 C1923 1.433 . S
C1916 H1912 0.929 . S
C1916 C1918 1.378 . S
C1916 C1920 1.350 . S
C1917 C1920 1.463 1_455 S
C1917 C1922 1.350 . S
C1917 N1925 1.427 . S
C1918 H1909 0.930 . S
C1918 C1916 1.378 . S
C1918 C1919 1.367 . S
C1919 C1918 1.367 . S
C1919 C1921 1.433 . S
C1920 C1916 1.350 . S
C1920 C1917 1.463 1_655 S
C1920 N1924 1.427 . S
C1921 H1911 0.929 . S
C1921 C1919 1.433 . S
C1921 N1924 1.384 . S
C1922 H1913 0.929 . S
C1922 C1914 1.378 . S
C1922 C1917 1.350 . S
C1923 H1910 0.929 . S
C1923 C1915 1.433 . S
C1923 N1925 1.384 . S
N1924 C1920 1.427 . S
N1924 C1921 1.384 . S
N1925 C1917 1.427 . S
N1925 C1923 1.384 . S
H1926 C1932 0.930 . S
H1927 C1936 0.930 . S
H1928 C1941 0.929 . S
H1929 C1939 0.929 . S
H1930 C1934 0.929 . S
H1931 C1940 0.929 . S
C1932 H1926 0.930 . S
C1932 C1933 1.367 . S
C1932 C1940 1.378 . S
C1933 C1932 1.367 . S
C1933 C1941 1.433 . S
C1934 H1930 0.929 . S
C1934 C1936 1.378 . S
C1934 C1938 1.350 . S
C1935 C1938 1.463 . S
C1935 C1940 1.350 . S
C1935 N1943 1.427 . S
C1936 H1927 0.930 . S
C1936 C1934 1.378 . S
C1936 C1937 1.367 . S
C1937 C1936 1.367 . S
C1937 C1939 1.433 . S
C1938 C1934 1.350 . S
C1938 C1935 1.463 . S
C1938 N1942 1.427 . S
C1939 H1929 0.929 . S
C1939 C1937 1.433 . S
C1939 N1942 1.384 . S
C1940 H1931 0.929 . S
C1940 C1932 1.378 . S
C1940 C1935 1.350 . S
C1941 H1928 0.929 . S
C1941 C1933 1.433 . S
C1941 N1943 1.384 . S
N1942 C1938 1.427 . S
N1942 C1939 1.384 . S
N1943 C1935 1.427 . S
N1943 C1941 1.384 . S
H1944 C1950 0.930 . S
H1945 C1954 0.930 . S
H1946 C1959 0.929 . S
H1947 C1957 0.929 . S
H1948 C1952 0.929 . S
H1949 C1958 0.929 . S
C1950 H1944 0.930 . S
C1950 C1951 1.367 . S
C1950 C1958 1.378 . S
C1951 C1950 1.367 . S
C1951 C1959 1.433 . S
C1952 H1948 0.929 . S
C1952 C1954 1.378 . S
C1952 C1956 1.350 . S
C1953 C1956 1.463 1_565 S
C1953 C1958 1.350 . S
C1953 N1961 1.427 . S
C1954 H1945 0.930 . S
C1954 C1952 1.378 . S
C1954 C1955 1.367 . S
C1955 C1954 1.367 . S
C1955 C1957 1.433 . S
C1956 C1952 1.350 . S
C1956 C1953 1.463 1_545 S
C1956 N1960 1.427 . S
C1957 H1947 0.929 . S
C1957 C1955 1.433 . S
C1957 N1960 1.384 . S
C1958 H1949 0.929 . S
C1958 C1950 1.378 . S
C1958 C1953 1.350 . S
C1959 H1946 0.929 . S
C1959 C1951 1.433 . S
C1959 N1961 1.384 . S
N1960 C1956 1.427 . S
N1960 C1957 1.384 . S
N1961 C1953 1.427 . S
N1961 C1959 1.384 . S
H1962 C1968 0.930 . S
H1963 C1972 0.930 . S
H1964 C1977 0.929 . S
H1965 C1975 0.929 . S
H1966 C1970 0.929 . S
H1967 C1976 0.929 . S
C1968 H1962 0.930 . S
C1968 C1969 1.367 1_655 S
C1968 C1976 1.378 . S
C1969 C1968 1.367 1_455 S
C1969 C1977 1.433 . S
C1970 H1966 0.929 . S
C1970 C1972 1.378 . S
C1970 C1974 1.350 . S
C1971 C1974 1.463 . S
C1971 C1976 1.350 . S
C1971 N1979 1.427 . S
C1972 H1963 0.930 . S
C1972 C1970 1.378 . S
C1972 C1973 1.367 . S
C1973 C1972 1.367 . S
C1973 C1975 1.433 . S
C1974 C1970 1.350 . S
C1974 C1971 1.463 . S
C1974 N1978 1.427 . S
C1975 H1965 0.929 . S
C1975 C1973 1.433 . S
C1975 N1978 1.384 . S
C1976 H1967 0.929 . S
C1976 C1968 1.378 . S
C1976 C1971 1.350 . S
C1977 H1964 0.929 . S
C1977 C1969 1.433 . S
C1977 N1979 1.384 1_455 S
N1978 C1974 1.427 . S
N1978 C1975 1.384 . S
N1979 C1971 1.427 . S
N1979 C1977 1.384 1_655 S
H1980 C1986 0.930 . S
H1981 C1990 0.930 . S
H1982 C1995 0.929 . S
H1983 C1993 0.929 . S
H1984 C1988 0.929 . S
H1985 C1994 0.929 . S
C1986 H1980 0.930 . S
C1986 C1987 1.367 . S
C1986 C1994 1.378 . S
C1987 C1986 1.367 . S
C1987 C1995 1.433 . S
C1988 H1984 0.929 . S
C1988 C1990 1.378 . S
C1988 C1992 1.350 . S
C1989 C1992 1.463 . S
C1989 C1994 1.350 . S
C1989 N1997 1.427 . S
C1990 H1981 0.930 . S
C1990 C1988 1.378 . S
C1990 C1991 1.367 . S
C1991 C1990 1.367 . S
C1991 C1993 1.433 . S
C1992 C1988 1.350 . S
C1992 C1989 1.463 . S
C1992 N1996 1.427 . S
C1993 H1983 0.929 . S
C1993 C1991 1.433 . S
C1993 N1996 1.384 . S
C1994 H1985 0.929 . S
C1994 C1986 1.378 . S
C1994 C1989 1.350 . S
C1995 H1982 0.929 . S
C1995 C1987 1.433 . S
C1995 N1997 1.384 . S
N1996 C1992 1.427 . S
N1996 C1993 1.384 . S
N1997 C1989 1.427 . S
N1997 C1995 1.384 . S
H1998 C2004 0.930 . S
H1999 C2008 0.930 . S
H2000 C2013 0.929 . S
H2001 C2011 0.929 . S
H2002 C2006 0.929 . S
H2003 C2012 0.929 . S
C2004 H1998 0.930 . S
C2004 C2005 1.367 . S
C2004 C2012 1.378 . S
C2005 C2004 1.367 . S
C2005 C2013 1.433 . S
C2006 H2002 0.929 . S
C2006 C2008 1.378 . S
C2006 C2010 1.350 . S
C2007 C2010 1.463 . S
C2007 C2012 1.350 . S
C2007 N2015 1.427 . S
C2008 H1999 0.930 . S
C2008 C2006 1.378 . S
C2008 C2009 1.367 1_545 S
C2009 C2008 1.367 1_565 S
C2009 C2011 1.433 . S
C2010 C2006 1.350 . S
C2010 C2007 1.463 . S
C2010 N2014 1.427 1_545 S
C2011 H2001 0.929 . S
C2011 C2009 1.433 . S
C2011 N2014 1.384 . S
C2012 H2003 0.929 . S
C2012 C2004 1.378 . S
C2012 C2007 1.350 . S
C2013 H2000 0.929 . S
C2013 C2005 1.433 . S
C2013 N2015 1.384 . S
N2014 C2010 1.427 1_565 S
N2014 C2011 1.384 . S
N2015 C2007 1.427 . S
N2015 C2013 1.384 . S
H2016 C2022 0.930 . S
H2017 C2026 0.930 . S
H2018 C2031 0.929 . S
H2019 C2029 0.929 . S
H2020 C2024 0.929 . S
H2021 C2030 0.929 . S
C2022 H2016 0.930 . S
C2022 C2023 1.367 . S
C2022 C2030 1.378 . S
C2023 C2022 1.367 . S
C2023 C2031 1.433 . S
C2024 H2020 0.929 . S
C2024 C2026 1.378 . S
C2024 C2028 1.350 . S
C2025 C2028 1.463 . S
C2025 C2030 1.350 . S
C2025 N2033 1.427 . S
C2026 H2017 0.930 . S
C2026 C2024 1.378 . S
C2026 C2027 1.367 . S
C2027 C2026 1.367 . S
C2027 C2029 1.433 . S
C2028 C2024 1.350 . S
C2028 C2025 1.463 . S
C2028 N2032 1.427 . S
C2029 H2019 0.929 . S
C2029 C2027 1.433 . S
C2029 N2032 1.384 . S
C2030 H2021 0.929 . S
C2030 C2022 1.378 . S
C2030 C2025 1.350 . S
C2031 H2018 0.929 . S
C2031 C2023 1.433 . S
C2031 N2033 1.384 . S
N2032 C2028 1.427 . S
N2032 C2029 1.384 . S
N2033 C2025 1.427 . S
N2033 C2031 1.384 . S
H2034 C2040 0.930 . S
H2035 C2044 0.930 . S
H2036 C2049 0.929 . S
H2037 C2047 0.929 . S
H2038 C2042 0.929 . S
H2039 C2048 0.929 . S
C2040 H2034 0.930 . S
C2040 C2041 1.367 . S
C2040 C2048 1.378 . S
C2041 C2040 1.367 . S
C2041 C2049 1.433 . S
C2042 H2038 0.929 . S
C2042 C2044 1.378 . S
C2042 C2046 1.350 . S
C2043 C2046 1.463 . S
C2043 C2048 1.350 . S
C2043 N2051 1.427 . S
C2044 H2035 0.930 . S
C2044 C2042 1.378 . S
C2044 C2045 1.367 . S
C2045 C2044 1.367 . S
C2045 C2047 1.433 . S
C2046 C2042 1.350 . S
C2046 C2043 1.463 . S
C2046 N2050 1.427 . S
C2047 H2037 0.929 . S
C2047 C2045 1.433 . S
C2047 N2050 1.384 . S
C2048 H2039 0.929 . S
C2048 C2040 1.378 . S
C2048 C2043 1.350 . S
C2049 H2036 0.929 . S
C2049 C2041 1.433 . S
C2049 N2051 1.384 . S
N2050 C2046 1.427 . S
N2050 C2047 1.384 . S
N2051 C2043 1.427 . S
N2051 C2049 1.384 . S
H2052 C2058 0.930 . S
H2053 C2062 0.930 . S
H2054 C2067 0.929 . S
H2055 C2065 0.929 . S
H2056 C2060 0.929 . S
H2057 C2066 0.929 . S
C2058 H2052 0.930 . S
C2058 C2059 1.367 . S
C2058 C2066 1.378 . S
C2059 C2058 1.367 . S
C2059 C2067 1.433 . S
C2060 H2056 0.929 . S
C2060 C2062 1.378 . S
C2060 C2064 1.350 . S
C2061 C2064 1.463 . S
C2061 C2066 1.350 . S
C2061 N2069 1.427 . S
C2062 H2053 0.930 . S
C2062 C2060 1.378 . S
C2062 C2063 1.367 . S
C2063 C2062 1.367 . S
C2063 C2065 1.433 . S
C2064 C2060 1.350 . S
C2064 C2061 1.463 . S
C2064 N2068 1.427 . S
C2065 H2055 0.929 . S
C2065 C2063 1.433 . S
C2065 N2068 1.384 . S
C2066 H2057 0.929 . S
C2066 C2058 1.378 . S
C2066 C2061 1.350 . S
C2067 H2054 0.929 . S
C2067 C2059 1.433 . S
C2067 N2069 1.384 . S
N2068 C2064 1.427 . S
N2068 C2065 1.384 . S
N2069 C2061 1.427 . S
N2069 C2067 1.384 . S
H2070 C2076 0.930 . S
H2071 C2080 0.930 . S
H2072 C2085 0.929 . S
H2073 C2083 0.929 . S
H2074 C2078 0.929 . S
H2075 C2084 0.929 . S
C2076 H2070 0.930 . S
C2076 C2077 1.367 . S
C2076 C2084 1.378 . S
C2077 C2076 1.367 . S
C2077 C2085 1.433 . S
C2078 H2074 0.929 . S
C2078 C2080 1.378 . S
C2078 C2082 1.350 . S
C2079 C2082 1.463 . S
C2079 C2084 1.350 . S
C2079 N2087 1.427 . S
C2080 H2071 0.930 . S
C2080 C2078 1.378 . S
C2080 C2081 1.367 . S
C2081 C2080 1.367 . S
C2081 C2083 1.433 . S
C2082 C2078 1.350 . S
C2082 C2079 1.463 . S
C2082 N2086 1.427 . S
C2083 H2073 0.929 . S
C2083 C2081 1.433 . S
C2083 N2086 1.384 . S
C2084 H2075 0.929 . S
C2084 C2076 1.378 . S
C2084 C2079 1.350 . S
C2085 H2072 0.929 . S
C2085 C2077 1.433 . S
C2085 N2087 1.384 . S
N2086 C2082 1.427 . S
N2086 C2083 1.384 . S
N2087 C2079 1.427 . S
N2087 C2085 1.384 . S
H2088 C2094 0.930 . S
H2089 C2098 0.930 . S
H2090 C2103 0.929 . S
H2091 C2101 0.929 . S
H2092 C2096 0.929 . S
H2093 C2102 0.929 . S
C2094 H2088 0.930 . S
C2094 C2095 1.367 . S
C2094 C2102 1.378 . S
C2095 C2094 1.367 . S
C2095 C2103 1.433 . S
C2096 H2092 0.929 . S
C2096 C2098 1.378 . S
C2096 C2100 1.350 . S
C2097 C2100 1.463 . S
C2097 C2102 1.350 . S
C2097 N2105 1.427 . S
C2098 H2089 0.930 . S
C2098 C2096 1.378 . S
C2098 C2099 1.367 . S
C2099 C2098 1.367 . S
C2099 C2101 1.433 . S
C2100 C2096 1.350 . S
C2100 C2097 1.463 . S
C2100 N2104 1.427 . S
C2101 H2091 0.929 . S
C2101 C2099 1.433 . S
C2101 N2104 1.384 . S
C2102 H2093 0.929 . S
C2102 C2094 1.378 . S
C2102 C2097 1.350 . S
C2103 H2090 0.929 . S
C2103 C2095 1.433 . S
C2103 N2105 1.384 . S
N2104 C2100 1.427 . S
N2104 C2101 1.384 . S
N2105 C2097 1.427 . S
N2105 C2103 1.384 . S
H2106 C2112 0.930 . S
H2107 C2116 0.930 . S
H2108 C2121 0.929 . S
H2109 C2119 0.929 . S
H2110 C2114 0.929 . S
H2111 C2120 0.929 . S
C2112 H2106 0.930 . S
C2112 C2113 1.367 . S
C2112 C2120 1.378 . S
C2113 C2112 1.367 . S
C2113 C2121 1.433 . S
C2114 H2110 0.929 . S
C2114 C2116 1.378 . S
C2114 C2118 1.350 . S
C2115 C2118 1.463 . S
C2115 C2120 1.350 . S
C2115 N2123 1.427 . S
C2116 H2107 0.930 . S
C2116 C2114 1.378 . S
C2116 C2117 1.367 . S
C2117 C2116 1.367 . S
C2117 C2119 1.433 . S
C2118 C2114 1.350 . S
C2118 C2115 1.463 . S
C2118 N2122 1.427 . S
C2119 H2109 0.929 . S
C2119 C2117 1.433 . S
C2119 N2122 1.384 . S
C2120 H2111 0.929 . S
C2120 C2112 1.378 . S
C2120 C2115 1.350 . S
C2121 H2108 0.929 . S
C2121 C2113 1.433 . S
C2121 N2123 1.384 . S
N2122 C2118 1.427 . S
N2122 C2119 1.384 . S
N2123 C2115 1.427 . S
N2123 C2121 1.384 . S
H2124 C2130 0.930 . S
H2125 C2134 0.930 . S
H2126 C2139 0.929 . S
H2127 C2137 0.929 . S
H2128 C2132 0.929 . S
H2129 C2138 0.929 . S
C2130 H2124 0.930 . S
C2130 C2131 1.367 . S
C2130 C2138 1.378 . S
C2131 C2130 1.367 . S
C2131 C2139 1.433 . S
C2132 H2128 0.929 . S
C2132 C2134 1.378 . S
C2132 C2136 1.350 . S
C2133 C2136 1.463 . S
C2133 C2138 1.350 . S
C2133 N2141 1.427 . S
C2134 H2125 0.930 . S
C2134 C2132 1.378 . S
C2134 C2135 1.367 . S
C2135 C2134 1.367 . S
C2135 C2137 1.433 . S
C2136 C2132 1.350 . S
C2136 C2133 1.463 . S
C2136 N2140 1.427 . S
C2137 H2127 0.929 . S
C2137 C2135 1.433 . S
C2137 N2140 1.384 . S
C2138 H2129 0.929 . S
C2138 C2130 1.378 . S
C2138 C2133 1.350 . S
C2139 H2126 0.929 . S
C2139 C2131 1.433 . S
C2139 N2141 1.384 . S
N2140 C2136 1.427 . S
N2140 C2137 1.384 . S
N2141 C2133 1.427 . S
N2141 C2139 1.384 . S
H2142 C2148 0.930 . S
H2143 C2152 0.930 . S
H2144 C2157 0.929 . S
H2145 C2155 0.929 . S
H2146 C2150 0.929 . S
H2147 C2156 0.929 . S
C2148 H2142 0.930 . S
C2148 C2149 1.367 . S
C2148 C2156 1.378 . S
C2149 C2148 1.367 . S
C2149 C2157 1.433 . S
C2150 H2146 0.929 . S
C2150 C2152 1.378 . S
C2150 C2154 1.350 . S
C2151 C2154 1.463 . S
C2151 C2156 1.350 . S
C2151 N2159 1.427 . S
C2152 H2143 0.930 . S
C2152 C2150 1.378 . S
C2152 C2153 1.367 . S
C2153 C2152 1.367 . S
C2153 C2155 1.433 . S
C2154 C2150 1.350 . S
C2154 C2151 1.463 . S
C2154 N2158 1.427 . S
C2155 H2145 0.929 . S
C2155 C2153 1.433 . S
C2155 N2158 1.384 . S
C2156 H2147 0.929 . S
C2156 C2148 1.378 . S
C2156 C2151 1.350 . S
C2157 H2144 0.929 . S
C2157 C2149 1.433 . S
C2157 N2159 1.384 . S
N2158 C2154 1.427 . S
N2158 C2155 1.384 . S
N2159 C2151 1.427 . S
N2159 C2157 1.384 . S
H2160 C2166 0.930 . S
H2161 C2170 0.930 . S
H2162 C2175 0.929 . S
H2163 C2173 0.929 . S
H2164 C2168 0.929 . S
H2165 C2174 0.929 . S
C2166 H2160 0.930 . S
C2166 C2167 1.367 . S
C2166 C2174 1.378 . S
C2167 C2166 1.367 . S
C2167 C2175 1.433 . S
C2168 H2164 0.929 . S
C2168 C2170 1.378 . S
C2168 C2172 1.350 . S
C2169 C2172 1.463 . S
C2169 C2174 1.350 . S
C2169 N2177 1.427 . S
C2170 H2161 0.930 . S
C2170 C2168 1.378 . S
C2170 C2171 1.367 . S
C2171 C2170 1.367 . S
C2171 C2173 1.433 . S
C2172 C2168 1.350 . S
C2172 C2169 1.463 . S
C2172 N2176 1.427 . S
C2173 H2163 0.929 . S
C2173 C2171 1.433 . S
C2173 N2176 1.384 . S
C2174 H2165 0.929 . S
C2174 C2166 1.378 . S
C2174 C2169 1.350 . S
C2175 H2162 0.929 . S
C2175 C2167 1.433 . S
C2175 N2177 1.384 . S
N2176 C2172 1.427 . S
N2176 C2173 1.384 . S
N2177 C2169 1.427 . S
N2177 C2175 1.384 . S
H2178 C2184 0.930 . S
H2179 C2188 0.930 . S
H2180 C2193 0.929 . S
H2181 C2191 0.929 . S
H2182 C2186 0.929 . S
H2183 C2192 0.929 . S
C2184 H2178 0.930 . S
C2184 C2185 1.367 . S
C2184 C2192 1.378 . S
C2185 C2184 1.367 . S
C2185 C2193 1.433 . S
C2186 H2182 0.929 . S
C2186 C2188 1.378 . S
C2186 C2190 1.350 . S
C2187 C2190 1.463 . S
C2187 C2192 1.350 . S
C2187 N2195 1.427 . S
C2188 H2179 0.930 . S
C2188 C2186 1.378 . S
C2188 C2189 1.367 . S
C2189 C2188 1.367 . S
C2189 C2191 1.433 . S
C2190 C2186 1.350 . S
C2190 C2187 1.463 . S
C2190 N2194 1.427 . S
C2191 H2181 0.929 . S
C2191 C2189 1.433 . S
C2191 N2194 1.384 . S
C2192 H2183 0.929 . S
C2192 C2184 1.378 . S
C2192 C2187 1.350 . S
C2193 H2180 0.929 . S
C2193 C2185 1.433 . S
C2193 N2195 1.384 . S
N2194 C2190 1.427 . S
N2194 C2191 1.384 . S
N2195 C2187 1.427 . S
N2195 C2193 1.384 . S
H2196 C2202 0.930 . S
H2197 C2206 0.930 . S
H2198 C2211 0.929 . S
H2199 C2209 0.929 . S
H2200 C2204 0.929 . S
H2201 C2210 0.929 . S
C2202 H2196 0.930 . S
C2202 C2203 1.367 . S
C2202 C2210 1.378 . S
C2203 C2202 1.367 . S
C2203 C2211 1.433 . S
C2204 H2200 0.929 . S
C2204 C2206 1.378 . S
C2204 C2208 1.350 . S
C2205 C2208 1.463 . S
C2205 C2210 1.350 . S
C2205 N2213 1.427 . S
C2206 H2197 0.930 . S
C2206 C2204 1.378 . S
C2206 C2207 1.367 . S
C2207 C2206 1.367 . S
C2207 C2209 1.433 . S
C2208 C2204 1.350 . S
C2208 C2205 1.463 . S
C2208 N2212 1.427 . S
C2209 H2199 0.929 . S
C2209 C2207 1.433 . S
C2209 N2212 1.384 . S
C2210 H2201 0.929 . S
C2210 C2202 1.378 . S
C2210 C2205 1.350 . S
C2211 H2198 0.929 . S
C2211 C2203 1.433 . S
C2211 N2213 1.384 . S
N2212 C2208 1.427 . S
N2212 C2209 1.384 . S
N2213 C2205 1.427 . S
N2213 C2211 1.384 . S
H2214 C2220 0.930 . S
H2215 C2224 0.930 . S
H2216 C2229 0.929 . S
H2217 C2227 0.929 . S
H2218 C2222 0.929 . S
H2219 C2228 0.929 . S
C2220 H2214 0.930 . S
C2220 C2221 1.367 . S
C2220 C2228 1.378 . S
C2221 C2220 1.367 . S
C2221 C2229 1.433 . S
C2222 H2218 0.929 . S
C2222 C2224 1.378 . S
C2222 C2226 1.350 . S
C2223 C2226 1.463 . S
C2223 C2228 1.350 . S
C2223 N2231 1.427 . S
C2224 H2215 0.930 . S
C2224 C2222 1.378 . S
C2224 C2225 1.367 . S
C2225 C2224 1.367 . S
C2225 C2227 1.433 . S
C2226 C2222 1.350 . S
C2226 C2223 1.463 . S
C2226 N2230 1.427 . S
C2227 H2217 0.929 . S
C2227 C2225 1.433 . S
C2227 N2230 1.384 . S
C2228 H2219 0.929 . S
C2228 C2220 1.378 . S
C2228 C2223 1.350 . S
C2229 H2216 0.929 . S
C2229 C2221 1.433 . S
C2229 N2231 1.384 . S
N2230 C2226 1.427 . S
N2230 C2227 1.384 . S
N2231 C2223 1.427 . S
N2231 C2229 1.384 . S
H2232 C2238 0.930 . S
H2233 C2242 0.930 . S
H2234 C2247 0.929 . S
H2235 C2245 0.929 . S
H2236 C2240 0.929 1_655 S
H2237 C2246 0.928 . S
C2238 H2232 0.930 . S
C2238 C2239 1.367 . S
C2238 C2246 1.375 1_655 S
C2239 C2238 1.367 . S
C2239 C2247 1.433 . S
C2240 H2236 0.929 1_455 S
C2240 C2242 1.378 . S
C2240 C2244 1.350 . S
C2241 C2244 1.463 1_655 S
C2241 C2246 1.353 1_655 S
C2241 N2249 1.427 . S
C2242 H2233 0.930 . S
C2242 C2240 1.378 . S
C2242 C2243 1.367 . S
C2243 C2242 1.367 . S
C2243 C2245 1.433 . S
C2244 C2240 1.350 . S
C2244 C2241 1.463 1_455 S
C2244 N2248 1.427 . S
C2245 H2235 0.929 . S
C2245 C2243 1.433 . S
C2245 N2248 1.384 . S
C2246 H2237 0.928 . S
C2246 C2238 1.375 1_455 S
C2246 C2241 1.353 1_455 S
C2247 H2234 0.929 . S
C2247 C2239 1.433 . S
C2247 N2249 1.384 . S
N2248 C2244 1.427 . S
N2248 C2245 1.384 . S
N2249 C2241 1.427 . S
N2249 C2247 1.384 . S
H2250 C2256 0.930 . S
H2251 C2260 0.930 . S
H2252 C2265 0.929 . S
H2253 C2263 0.929 . S
H2254 C2258 0.929 . S
H2255 C2264 0.929 . S
C2256 H2250 0.930 . S
C2256 C2257 1.367 . S
C2256 C2264 1.378 . S
C2257 C2256 1.367 . S
C2257 C2265 1.433 . S
C2258 H2254 0.929 . S
C2258 C2260 1.378 . S
C2258 C2262 1.350 . S
C2259 C2262 1.463 . S
C2259 C2264 1.350 . S
C2259 N2267 1.427 . S
C2260 H2251 0.930 . S
C2260 C2258 1.378 . S
C2260 C2261 1.367 . S
C2261 C2260 1.367 . S
C2261 C2263 1.433 . S
C2262 C2258 1.350 . S
C2262 C2259 1.463 . S
C2262 N2266 1.427 . S
C2263 H2253 0.929 . S
C2263 C2261 1.433 . S
C2263 N2266 1.384 . S
C2264 H2255 0.929 . S
C2264 C2256 1.378 . S
C2264 C2259 1.350 . S
C2265 H2252 0.929 . S
C2265 C2257 1.433 . S
C2265 N2267 1.384 . S
N2266 C2262 1.427 . S
N2266 C2263 1.384 . S
N2267 C2259 1.427 . S
N2267 C2265 1.384 . S
H2268 C2274 0.930 . S
H2269 C2278 0.930 . S
H2270 C2283 0.929 . S
H2271 C2281 0.929 . S
H2272 C2276 0.929 . S
H2273 C2282 0.929 . S
C2274 H2268 0.930 . S
C2274 C2275 1.367 1_565 S
C2274 C2282 1.378 . S
C2275 C2274 1.367 1_545 S
C2275 C2283 1.433 . S
C2276 H2272 0.929 . S
C2276 C2278 1.378 . S
C2276 C2280 1.350 1_545 S
C2277 C2280 1.463 1_545 S
C2277 C2282 1.350 1_545 S
C2277 N2285 1.427 . S
C2278 H2269 0.930 . S
C2278 C2276 1.378 . S
C2278 C2279 1.367 1_545 S
C2279 C2278 1.367 1_565 S
C2279 C2281 1.433 . S
C2280 C2276 1.350 1_565 S
C2280 C2277 1.463 1_565 S
C2280 N2284 1.427 . S
C2281 H2271 0.929 . S
C2281 C2279 1.433 . S
C2281 N2284 1.384 . S
C2282 H2273 0.929 . S
C2282 C2274 1.378 . S
C2282 C2277 1.350 1_565 S
C2283 H2270 0.929 . S
C2283 C2275 1.433 . S
C2283 N2285 1.384 . S
N2284 C2280 1.427 . S
N2284 C2281 1.384 . S
N2285 C2277 1.427 . S
N2285 C2283 1.384 . S
H2286 C2292 0.930 . S
H2287 C2296 0.930 . S
H2288 C2301 0.929 . S
H2289 C2299 0.929 . S
H2290 C2294 0.929 . S
H2291 C2300 0.929 . S
C2292 H2286 0.930 . S
C2292 C2293 1.367 1_565 S
C2292 C2300 1.378 . S
C2293 C2292 1.367 1_545 S
C2293 C2301 1.433 . S
C2294 H2290 0.929 . S
C2294 C2296 1.378 . S
C2294 C2298 1.350 1_545 S
C2295 C2298 1.463 1_545 S
C2295 C2300 1.350 1_545 S
C2295 N2303 1.427 . S
C2296 H2287 0.930 . S
C2296 C2294 1.378 . S
C2296 C2297 1.367 1_545 S
C2297 C2296 1.367 1_565 S
C2297 C2299 1.433 . S
C2298 C2294 1.350 1_565 S
C2298 C2295 1.463 1_565 S
C2298 N2302 1.427 . S
C2299 H2289 0.929 . S
C2299 C2297 1.433 . S
C2299 N2302 1.384 . S
C2300 H2291 0.929 . S
C2300 C2292 1.378 . S
C2300 C2295 1.350 1_565 S
C2301 H2288 0.929 . S
C2301 C2293 1.433 . S
C2301 N2303 1.384 . S
N2302 C2298 1.427 . S
N2302 C2299 1.384 . S
N2303 C2295 1.427 . S
N2303 C2301 1.384 . S
H2304 C2310 0.930 . S
H2305 C2314 0.930 . S
H2306 C2319 0.929 . S
H2307 C2317 0.929 . S
H2308 C2312 0.929 . S
H2309 C2318 0.929 . S
C2310 H2304 0.930 . S
C2310 C2311 1.367 . S
C2310 C2318 1.378 . S
C2311 C2310 1.367 . S
C2311 C2319 1.433 1_455 S
C2312 H2308 0.929 . S
C2312 C2314 1.378 . S
C2312 C2316 1.350 . S
C2313 C2316 1.463 1_455 S
C2313 C2318 1.350 . S
C2313 N2321 1.427 1_455 S
C2314 H2305 0.930 . S
C2314 C2312 1.378 . S
C2314 C2315 1.367 . S
C2315 C2314 1.367 . S
C2315 C2317 1.433 1_655 S
C2316 C2312 1.350 . S
C2316 C2313 1.463 1_655 S
C2316 N2320 1.427 1_655 S
C2317 H2307 0.929 . S
C2317 C2315 1.433 1_455 S
C2317 N2320 1.384 . S
C2318 H2309 0.929 . S
C2318 C2310 1.378 . S
C2318 C2313 1.350 . S
C2319 H2306 0.929 . S
C2319 C2311 1.433 1_655 S
C2319 N2321 1.384 . S
N2320 C2316 1.427 1_455 S
N2320 C2317 1.384 . S
N2321 C2313 1.427 1_655 S
N2321 C2319 1.384 . S
H2322 C2328 0.930 . S
H2323 C2332 0.930 . S
H2324 C2337 0.929 . S
H2325 C2335 0.929 . S
H2326 C2330 0.929 . S
H2327 C2336 0.929 . S
C2328 H2322 0.930 . S
C2328 C2329 1.367 . S
C2328 C2336 1.378 . S
C2329 C2328 1.367 . S
C2329 C2337 1.433 . S
C2330 H2326 0.929 . S
C2330 C2332 1.378 . S
C2330 C2334 1.350 . S
C2331 C2334 1.463 . S
C2331 C2336 1.350 . S
C2331 N2339 1.427 . S
C2332 H2323 0.930 . S
C2332 C2330 1.378 . S
C2332 C2333 1.367 . S
C2333 C2332 1.367 . S
C2333 C2335 1.433 . S
C2334 C2330 1.350 . S
C2334 C2331 1.463 . S
C2334 N2338 1.427 . S
C2335 H2325 0.929 . S
C2335 C2333 1.433 . S
C2335 N2338 1.384 . S
C2336 H2327 0.929 . S
C2336 C2328 1.378 . S
C2336 C2331 1.350 . S
C2337 H2324 0.929 . S
C2337 C2329 1.433 . S
C2337 N2339 1.384 . S
N2338 C2334 1.427 . S
N2338 C2335 1.384 . S
N2339 C2331 1.427 . S
N2339 C2337 1.384 . S
H2340 C2346 0.930 . S
H2341 C2350 0.930 . S
H2342 C2355 0.929 . S
H2343 C2353 0.929 . S
H2344 C2348 0.929 . S
H2345 C2354 0.929 . S
C2346 H2340 0.930 . S
C2346 C2347 1.367 . S
C2346 C2354 1.378 . S
C2347 C2346 1.367 . S
C2347 C2355 1.433 . S
C2348 H2344 0.929 . S
C2348 C2350 1.378 . S
C2348 C2352 1.350 . S
C2349 C2352 1.463 1_655 S
C2349 C2354 1.350 . S
C2349 N2357 1.427 . S
C2350 H2341 0.930 . S
C2350 C2348 1.378 . S
C2350 C2351 1.367 . S
C2351 C2350 1.367 . S
C2351 C2353 1.433 . S
C2352 C2348 1.350 . S
C2352 C2349 1.463 1_455 S
C2352 N2356 1.427 . S
C2353 H2343 0.929 . S
C2353 C2351 1.433 . S
C2353 N2356 1.384 . S
C2354 H2345 0.929 . S
C2354 C2346 1.378 . S
C2354 C2349 1.350 . S
C2355 H2342 0.929 . S
C2355 C2347 1.433 . S
C2355 N2357 1.384 . S
N2356 C2352 1.427 . S
N2356 C2353 1.384 . S
N2357 C2349 1.427 . S
N2357 C2355 1.384 . S
H2358 C2364 0.930 . S
H2359 C2368 0.930 . S
H2360 C2373 0.929 . S
H2361 C2371 0.929 . S
H2362 C2366 0.929 . S
H2363 C2372 0.929 . S
C2364 H2358 0.930 . S
C2364 C2365 1.367 . S
C2364 C2372 1.378 . S
C2365 C2364 1.367 . S
C2365 C2373 1.433 . S
C2366 H2362 0.929 . S
C2366 C2368 1.378 . S
C2366 C2370 1.350 . S
C2367 C2370 1.463 . S
C2367 C2372 1.350 . S
C2367 N2375 1.427 . S
C2368 H2359 0.930 . S
C2368 C2366 1.378 . S
C2368 C2369 1.367 . S
C2369 C2368 1.367 . S
C2369 C2371 1.433 . S
C2370 C2366 1.350 . S
C2370 C2367 1.463 . S
C2370 N2374 1.427 . S
C2371 H2361 0.929 . S
C2371 C2369 1.433 . S
C2371 N2374 1.384 . S
C2372 H2363 0.929 . S
C2372 C2364 1.378 . S
C2372 C2367 1.350 . S
C2373 H2360 0.929 . S
C2373 C2365 1.433 . S
C2373 N2375 1.384 . S
N2374 C2370 1.427 . S
N2374 C2371 1.384 . S
N2375 C2367 1.427 . S
N2375 C2373 1.384 . S
H2376 C2382 0.930 . S
H2377 C2386 0.930 . S
H2378 C2391 0.929 . S
H2379 C2389 0.929 . S
H2380 C2384 0.929 . S
H2381 C2390 0.929 . S
C2382 H2376 0.930 . S
C2382 C2383 1.367 . S
C2382 C2390 1.378 1_545 S
C2383 C2382 1.367 . S
C2383 C2391 1.433 . S
C2384 H2380 0.929 . S
C2384 C2386 1.378 1_545 S
C2384 C2388 1.350 1_545 S
C2385 C2388 1.463 1_545 S
C2385 C2390 1.350 1_545 S
C2385 N2393 1.427 . S
C2386 H2377 0.930 . S
C2386 C2384 1.378 1_565 S
C2386 C2387 1.367 . S
C2387 C2386 1.367 . S
C2387 C2389 1.433 . S
C2388 C2384 1.350 1_565 S
C2388 C2385 1.463 1_565 S
C2388 N2392 1.427 . S
C2389 H2379 0.929 . S
C2389 C2387 1.433 . S
C2389 N2392 1.384 . S
C2390 H2381 0.929 . S
C2390 C2382 1.378 1_565 S
C2390 C2385 1.350 1_565 S
C2391 H2378 0.929 . S
C2391 C2383 1.433 . S
C2391 N2393 1.384 . S
N2392 C2388 1.427 . S
N2392 C2389 1.384 . S
N2393 C2385 1.427 . S
N2393 C2391 1.384 . S
H2394 C2400 0.930 . S
H2395 C2404 0.930 . S
H2396 C2409 0.929 . S
H2397 C2407 0.929 . S
H2398 C2402 0.929 . S
H2399 C2408 0.929 . S
C2400 H2394 0.930 . S
C2400 C2401 1.367 . S
C2400 C2408 1.378 . S
C2401 C2400 1.367 . S
C2401 C2409 1.433 . S
C2402 H2398 0.929 . S
C2402 C2404 1.378 . S
C2402 C2406 1.350 . S
C2403 C2406 1.463 1_655 S
C2403 C2408 1.350 . S
C2403 N2411 1.427 1_655 S
C2404 H2395 0.930 . S
C2404 C2402 1.378 . S
C2404 C2405 1.367 . S
C2405 C2404 1.367 . S
C2405 C2407 1.433 . S
C2406 C2402 1.350 . S
C2406 C2403 1.463 1_455 S
C2406 N2410 1.427 1_455 S
C2407 H2397 0.929 . S
C2407 C2405 1.433 . S
C2407 N2410 1.384 1_455 S
C2408 H2399 0.929 . S
C2408 C2400 1.378 . S
C2408 C2403 1.350 . S
C2409 H2396 0.929 . S
C2409 C2401 1.433 . S
C2409 N2411 1.384 1_655 S
N2410 C2406 1.427 1_655 S
N2410 C2407 1.384 1_655 S
N2411 C2403 1.427 1_455 S
N2411 C2409 1.384 1_455 S
H2412 C2418 0.930 . S
H2413 C2422 0.930 . S
H2414 C2427 0.929 . S
H2415 C2425 0.929 . S
H2416 C2420 0.929 . S
H2417 C2426 0.929 . S
C2418 H2412 0.930 . S
C2418 C2419 1.367 . S
C2418 C2426 1.378 . S
C2419 C2418 1.367 . S
C2419 C2427 1.433 . S
C2420 H2416 0.929 . S
C2420 C2422 1.378 . S
C2420 C2424 1.350 . S
C2421 C2424 1.463 . S
C2421 C2426 1.350 . S
C2421 N2429 1.427 . S
C2422 H2413 0.930 . S
C2422 C2420 1.378 . S
C2422 C2423 1.367 . S
C2423 C2422 1.367 . S
C2423 C2425 1.433 . S
C2424 C2420 1.350 . S
C2424 C2421 1.463 . S
C2424 N2428 1.427 . S
C2425 H2415 0.929 . S
C2425 C2423 1.433 . S
C2425 N2428 1.384 . S
C2426 H2417 0.929 . S
C2426 C2418 1.378 . S
C2426 C2421 1.350 . S
C2427 H2414 0.929 . S
C2427 C2419 1.433 . S
C2427 N2429 1.384 . S
N2428 C2424 1.427 . S
N2428 C2425 1.384 . S
N2429 C2421 1.427 . S
N2429 C2427 1.384 . S
H2430 C2436 0.930 . S
H2431 C2440 0.930 . S
H2432 C2445 0.929 . S
H2433 C2443 0.929 . S
H2434 C2438 0.929 . S
H2435 C2444 0.929 . S
C2436 H2430 0.930 . S
C2436 C2437 1.367 . S
C2436 C2444 1.378 . S
C2437 C2436 1.367 . S
C2437 C2445 1.433 . S
C2438 H2434 0.929 . S
C2438 C2440 1.378 . S
C2438 C2442 1.350 . S
C2439 C2442 1.463 1_545 S
C2439 C2444 1.350 . S
C2439 N2447 1.427 . S
C2440 H2431 0.930 . S
C2440 C2438 1.378 . S
C2440 C2441 1.367 . S
C2441 C2440 1.367 . S
C2441 C2443 1.433 . S
C2442 C2438 1.350 . S
C2442 C2439 1.463 1_565 S
C2442 N2446 1.427 . S
C2443 H2433 0.929 . S
C2443 C2441 1.433 . S
C2443 N2446 1.384 . S
C2444 H2435 0.929 . S
C2444 C2436 1.378 . S
C2444 C2439 1.350 . S
C2445 H2432 0.929 . S
C2445 C2437 1.433 . S
C2445 N2447 1.384 . S
N2446 C2442 1.427 . S
N2446 C2443 1.384 . S
N2447 C2439 1.427 . S
N2447 C2445 1.384 . S
H2448 C2454 0.930 . S
H2449 C2458 0.930 . S
H2450 C2463 0.929 . S
H2451 C2461 0.929 . S
H2452 C2456 0.929 . S
H2453 C2462 0.929 . S
C2454 H2448 0.930 . S
C2454 C2455 1.367 . S
C2454 C2462 1.378 . S
C2455 C2454 1.367 . S
C2455 C2463 1.433 . S
C2456 H2452 0.929 . S
C2456 C2458 1.378 . S
C2456 C2460 1.350 . S
C2457 C2460 1.463 . S
C2457 C2462 1.350 . S
C2457 N2465 1.427 . S
C2458 H2449 0.930 . S
C2458 C2456 1.378 . S
C2458 C2459 1.367 . S
C2459 C2458 1.367 . S
C2459 C2461 1.433 . S
C2460 C2456 1.350 . S
C2460 C2457 1.463 . S
C2460 N2464 1.427 . S
C2461 H2451 0.929 . S
C2461 C2459 1.433 . S
C2461 N2464 1.384 . S
C2462 H2453 0.929 . S
C2462 C2454 1.378 . S
C2462 C2457 1.350 . S
C2463 H2450 0.929 . S
C2463 C2455 1.433 . S
C2463 N2465 1.384 . S
N2464 C2460 1.427 . S
N2464 C2461 1.384 . S
N2465 C2457 1.427 . S
N2465 C2463 1.384 . S
H2466 C2472 0.930 . S
H2467 C2476 0.930 . S
H2468 C2481 0.929 . S
H2469 C2479 0.929 . S
H2470 C2474 0.929 . S
H2471 C2480 0.929 . S
C2472 H2466 0.930 . S
C2472 C2473 1.367 . S
C2472 C2480 1.378 . S
C2473 C2472 1.367 . S
C2473 C2481 1.433 . S
C2474 H2470 0.929 . S
C2474 C2476 1.378 . S
C2474 C2478 1.350 . S
C2475 C2478 1.463 . S
C2475 C2480 1.350 . S
C2475 N2483 1.427 . S
C2476 H2467 0.930 . S
C2476 C2474 1.378 . S
C2476 C2477 1.367 . S
C2477 C2476 1.367 . S
C2477 C2479 1.433 . S
C2478 C2474 1.350 . S
C2478 C2475 1.463 . S
C2478 N2482 1.427 . S
C2479 H2469 0.929 . S
C2479 C2477 1.433 . S
C2479 N2482 1.384 . S
C2480 H2471 0.929 . S
C2480 C2472 1.378 . S
C2480 C2475 1.350 . S
C2481 H2468 0.929 . S
C2481 C2473 1.433 . S
C2481 N2483 1.384 . S
N2482 C2478 1.427 . S
N2482 C2479 1.384 . S
N2483 C2475 1.427 . S
N2483 C2481 1.384 . S
H2484 C2490 0.930 . S
H2485 C2494 0.930 . S
H2486 C2499 0.929 . S
H2487 C2497 0.929 . S
H2488 C2492 0.929 . S
H2489 C2498 0.929 . S
C2490 H2484 0.930 . S
C2490 C2491 1.367 . S
C2490 C2498 1.378 . S
C2491 C2490 1.367 . S
C2491 C2499 1.433 . S
C2492 H2488 0.929 . S
C2492 C2494 1.378 . S
C2492 C2496 1.350 . S
C2493 C2496 1.463 . S
C2493 C2498 1.350 . S
C2493 N2501 1.427 . S
C2494 H2485 0.930 . S
C2494 C2492 1.378 . S
C2494 C2495 1.367 . S
C2495 C2494 1.367 . S
C2495 C2497 1.433 . S
C2496 C2492 1.350 . S
C2496 C2493 1.463 . S
C2496 N2500 1.427 . S
C2497 H2487 0.929 . S
C2497 C2495 1.433 . S
C2497 N2500 1.384 . S
C2498 H2489 0.929 . S
C2498 C2490 1.378 . S
C2498 C2493 1.350 . S
C2499 H2486 0.929 . S
C2499 C2491 1.433 . S
C2499 N2501 1.384 . S
N2500 C2496 1.427 . S
N2500 C2497 1.384 . S
N2501 C2493 1.427 . S
N2501 C2499 1.384 . S
H2502 C2508 0.930 . S
H2503 C2512 0.930 . S
H2504 C2517 0.929 . S
H2505 C2515 0.929 . S
H2506 C2510 0.929 . S
H2507 C2516 0.929 . S
C2508 H2502 0.930 . S
C2508 C2509 1.367 . S
C2508 C2516 1.378 . S
C2509 C2508 1.367 . S
C2509 C2517 1.433 . S
C2510 H2506 0.929 . S
C2510 C2512 1.378 . S
C2510 C2514 1.350 . S
C2511 C2514 1.463 . S
C2511 C2516 1.350 . S
C2511 N2519 1.427 . S
C2512 H2503 0.930 . S
C2512 C2510 1.378 . S
C2512 C2513 1.367 . S
C2513 C2512 1.367 . S
C2513 C2515 1.433 . S
C2514 C2510 1.350 . S
C2514 C2511 1.463 . S
C2514 N2518 1.427 . S
C2515 H2505 0.929 . S
C2515 C2513 1.433 . S
C2515 N2518 1.384 . S
C2516 H2507 0.929 . S
C2516 C2508 1.378 . S
C2516 C2511 1.350 . S
C2517 H2504 0.929 . S
C2517 C2509 1.433 . S
C2517 N2519 1.384 . S
N2518 C2514 1.427 . S
N2518 C2515 1.384 . S
N2519 C2511 1.427 . S
N2519 C2517 1.384 . S
H2520 C2526 0.930 . S
H2521 C2530 0.930 . S
H2522 C2535 0.929 . S
H2523 C2533 0.929 . S
H2524 C2528 0.929 . S
H2525 C2534 0.929 . S
C2526 H2520 0.930 . S
C2526 C2527 1.367 . S
C2526 C2534 1.378 . S
C2527 C2526 1.367 . S
C2527 C2535 1.433 . S
C2528 H2524 0.929 . S
C2528 C2530 1.378 . S
C2528 C2532 1.350 . S
C2529 C2532 1.463 . S
C2529 C2534 1.350 . S
C2529 N2537 1.427 . S
C2530 H2521 0.930 . S
C2530 C2528 1.378 . S
C2530 C2531 1.367 . S
C2531 C2530 1.367 . S
C2531 C2533 1.433 . S
C2532 C2528 1.350 . S
C2532 C2529 1.463 . S
C2532 N2536 1.427 . S
C2533 H2523 0.929 . S
C2533 C2531 1.433 . S
C2533 N2536 1.384 . S
C2534 H2525 0.929 . S
C2534 C2526 1.378 . S
C2534 C2529 1.350 . S
C2535 H2522 0.929 . S
C2535 C2527 1.433 . S
C2535 N2537 1.384 . S
N2536 C2532 1.427 . S
N2536 C2533 1.384 . S
N2537 C2529 1.427 . S
N2537 C2535 1.384 . S
H2538 C2544 0.930 . S
H2539 C2548 0.930 . S
H2540 C2553 0.929 . S
H2541 C2551 0.929 . S
H2542 C2546 0.929 . S
H2543 C2552 0.929 . S
C2544 H2538 0.930 . S
C2544 C2545 1.367 . S
C2544 C2552 1.378 . S
C2545 C2544 1.367 . S
C2545 C2553 1.433 . S
C2546 H2542 0.929 . S
C2546 C2548 1.378 . S
C2546 C2550 1.350 . S
C2547 C2550 1.463 . S
C2547 C2552 1.350 . S
C2547 N2555 1.427 . S
C2548 H2539 0.930 . S
C2548 C2546 1.378 . S
C2548 C2549 1.367 . S
C2549 C2548 1.367 . S
C2549 C2551 1.433 . S
C2550 C2546 1.350 . S
C2550 C2547 1.463 . S
C2550 N2554 1.427 . S
C2551 H2541 0.929 . S
C2551 C2549 1.433 . S
C2551 N2554 1.384 . S
C2552 H2543 0.929 . S
C2552 C2544 1.378 . S
C2552 C2547 1.350 . S
C2553 H2540 0.929 . S
C2553 C2545 1.433 . S
C2553 N2555 1.384 . S
N2554 C2550 1.427 . S
N2554 C2551 1.384 . S
N2555 C2547 1.427 . S
N2555 C2553 1.384 . S
H2556 C2562 0.930 . S
H2557 C2566 0.930 . S
H2558 C2571 0.929 . S
H2559 C2569 0.929 . S
H2560 C2564 0.929 . S
H2561 C2570 0.929 . S
C2562 H2556 0.930 . S
C2562 C2563 1.367 . S
C2562 C2570 1.378 . S
C2563 C2562 1.367 . S
C2563 C2571 1.433 . S
C2564 H2560 0.929 . S
C2564 C2566 1.378 . S
C2564 C2568 1.350 . S
C2565 C2568 1.463 . S
C2565 C2570 1.350 . S
C2565 N2573 1.427 . S
C2566 H2557 0.930 . S
C2566 C2564 1.378 . S
C2566 C2567 1.367 . S
C2567 C2566 1.367 . S
C2567 C2569 1.433 . S
C2568 C2564 1.350 . S
C2568 C2565 1.463 . S
C2568 N2572 1.427 . S
C2569 H2559 0.929 . S
C2569 C2567 1.433 . S
C2569 N2572 1.384 . S
C2570 H2561 0.929 . S
C2570 C2562 1.378 . S
C2570 C2565 1.350 . S
C2571 H2558 0.929 . S
C2571 C2563 1.433 . S
C2571 N2573 1.384 . S
N2572 C2568 1.427 . S
N2572 C2569 1.384 . S
N2573 C2565 1.427 . S
N2573 C2571 1.384 . S
H2574 C2580 0.930 . S
H2575 C2584 0.930 . S
H2576 C2589 0.929 . S
H2577 C2587 0.929 . S
H2578 C2582 0.929 . S
H2579 C2588 0.929 . S
C2580 H2574 0.930 . S
C2580 C2581 1.367 . S
C2580 C2588 1.378 . S
C2581 C2580 1.367 . S
C2581 C2589 1.433 . S
C2582 H2578 0.929 . S
C2582 C2584 1.378 . S
C2582 C2586 1.350 . S
C2583 C2586 1.463 . S
C2583 C2588 1.350 . S
C2583 N2591 1.427 . S
C2584 H2575 0.930 . S
C2584 C2582 1.378 . S
C2584 C2585 1.367 . S
C2585 C2584 1.367 . S
C2585 C2587 1.433 . S
C2586 C2582 1.350 . S
C2586 C2583 1.463 . S
C2586 N2590 1.427 . S
C2587 H2577 0.929 . S
C2587 C2585 1.433 . S
C2587 N2590 1.384 . S
C2588 H2579 0.929 . S
C2588 C2580 1.378 . S
C2588 C2583 1.350 . S
C2589 H2576 0.929 . S
C2589 C2581 1.433 . S
C2589 N2591 1.384 . S
N2590 C2586 1.427 . S
N2590 C2587 1.384 . S
N2591 C2583 1.427 . S
N2591 C2589 1.384 . S
H2592 C2598 0.930 . S
H2593 C2602 0.930 . S
H2594 C2607 0.929 . S
H2595 C2605 0.929 . S
H2596 C2600 0.929 . S
H2597 C2606 0.929 . S
C2598 H2592 0.930 . S
C2598 C2599 1.367 . S
C2598 C2606 1.378 . S
C2599 C2598 1.367 . S
C2599 C2607 1.433 . S
C2600 H2596 0.929 . S
C2600 C2602 1.378 . S
C2600 C2604 1.350 . S
C2601 C2604 1.463 . S
C2601 C2606 1.350 . S
C2601 N2609 1.427 . S
C2602 H2593 0.930 . S
C2602 C2600 1.378 . S
C2602 C2603 1.367 . S
C2603 C2602 1.367 . S
C2603 C2605 1.433 . S
C2604 C2600 1.350 . S
C2604 C2601 1.463 . S
C2604 N2608 1.427 . S
C2605 H2595 0.929 . S
C2605 C2603 1.433 . S
C2605 N2608 1.384 . S
C2606 H2597 0.929 . S
C2606 C2598 1.378 . S
C2606 C2601 1.350 . S
C2607 H2594 0.929 . S
C2607 C2599 1.433 . S
C2607 N2609 1.384 . S
N2608 C2604 1.427 . S
N2608 C2605 1.384 . S
N2609 C2601 1.427 . S
N2609 C2607 1.384 . S
H2610 C2616 0.930 . S
H2611 C2620 0.930 . S
H2612 C2625 0.929 . S
H2613 C2623 0.929 . S
H2614 C2618 0.929 . S
H2615 C2624 0.929 . S
C2616 H2610 0.930 . S
C2616 C2617 1.367 . S
C2616 C2624 1.378 . S
C2617 C2616 1.367 . S
C2617 C2625 1.433 . S
C2618 H2614 0.929 . S
C2618 C2620 1.378 . S
C2618 C2622 1.350 . S
C2619 C2622 1.463 . S
C2619 C2624 1.350 . S
C2619 N2627 1.427 . S
C2620 H2611 0.930 . S
C2620 C2618 1.378 . S
C2620 C2621 1.367 . S
C2621 C2620 1.367 . S
C2621 C2623 1.433 . S
C2622 C2618 1.350 . S
C2622 C2619 1.463 . S
C2622 N2626 1.427 . S
C2623 H2613 0.929 . S
C2623 C2621 1.433 . S
C2623 N2626 1.384 . S
C2624 H2615 0.929 . S
C2624 C2616 1.378 . S
C2624 C2619 1.350 . S
C2625 H2612 0.929 . S
C2625 C2617 1.433 . S
C2625 N2627 1.384 . S
N2626 C2622 1.427 . S
N2626 C2623 1.384 . S
N2627 C2619 1.427 . S
N2627 C2625 1.384 . S
H2628 C2634 0.930 . S
H2629 C2638 0.930 . S
H2630 C2643 0.929 . S
H2631 C2641 0.929 . S
H2632 C2636 0.929 . S
H2633 C2642 0.929 . S
C2634 H2628 0.930 . S
C2634 C2635 1.367 . S
C2634 C2642 1.378 . S
C2635 C2634 1.367 . S
C2635 C2643 1.433 . S
C2636 H2632 0.929 . S
C2636 C2638 1.378 . S
C2636 C2640 1.350 . S
C2637 C2640 1.463 . S
C2637 C2642 1.350 . S
C2637 N2645 1.427 . S
C2638 H2629 0.930 . S
C2638 C2636 1.378 . S
C2638 C2639 1.367 . S
C2639 C2638 1.367 . S
C2639 C2641 1.433 . S
C2640 C2636 1.350 . S
C2640 C2637 1.463 . S
C2640 N2644 1.427 . S
C2641 H2631 0.929 . S
C2641 C2639 1.433 . S
C2641 N2644 1.384 . S
C2642 H2633 0.929 . S
C2642 C2634 1.378 . S
C2642 C2637 1.350 . S
C2643 H2630 0.929 . S
C2643 C2635 1.433 . S
C2643 N2645 1.384 . S
N2644 C2640 1.427 . S
N2644 C2641 1.384 . S
N2645 C2637 1.427 . S
N2645 C2643 1.384 . S
H2646 C2652 0.930 . S
H2647 C2656 0.930 . S
H2648 C2661 0.929 . S
H2649 C2659 0.929 . S
H2650 C2654 0.929 . S
H2651 C2660 0.929 . S
C2652 H2646 0.930 . S
C2652 C2653 1.367 . S
C2652 C2660 1.378 . S
C2653 C2652 1.367 . S
C2653 C2661 1.433 . S
C2654 H2650 0.929 . S
C2654 C2656 1.378 . S
C2654 C2658 1.350 . S
C2655 C2658 1.463 . S
C2655 C2660 1.350 . S
C2655 N2663 1.427 . S
C2656 H2647 0.930 . S
C2656 C2654 1.378 . S
C2656 C2657 1.367 . S
C2657 C2656 1.367 . S
C2657 C2659 1.433 . S
C2658 C2654 1.350 . S
C2658 C2655 1.463 . S
C2658 N2662 1.427 . S
C2659 H2649 0.929 . S
C2659 C2657 1.433 . S
C2659 N2662 1.384 . S
C2660 H2651 0.929 . S
C2660 C2652 1.378 . S
C2660 C2655 1.350 . S
C2661 H2648 0.929 . S
C2661 C2653 1.433 . S
C2661 N2663 1.384 . S
N2662 C2658 1.427 . S
N2662 C2659 1.384 . S
N2663 C2655 1.427 . S
N2663 C2661 1.384 . S
C727 C8 1.452 . S
C731 C59 1.514 . S
C745 C19 1.513 . S
C749 C28 1.454 . S
C763 C48 1.461 . S
C767 C39 1.509 . S
C781 C68 1.498 . S
C785 C99 1.550 . S
C799 C119 1.553 . S
C803 C88 1.485 . S
C817 C108 1.490 . S
C821 C79 1.553 . S
C835 C129 1.462 . S
C839 C178 1.509 . S
C853 C149 1.446 . S
C857 C138 1.514 . S
C871 C169 1.448 . S
C875 C158 1.512 . S
C889 C189 1.500 . S
C893 C218 1.549 . S
C907 C238 1.548 . S
C911 C209 1.499 . S
C925 C198 1.552 . S
C929 C229 1.495 . S
C943 C299 1.543 . S
C947 C248 1.496 . S
C961 C268 1.484 . S
C965 C259 1.548 . S
C979 C279 1.547 . S
C983 C288 1.490 . S
C997 C308 1.508 . S
C1001 C339 1.559 . S
C1015 C359 1.562 . S
C1019 C328 1.499 . S
C1033 C319 1.559 . S
C1037 C348 1.512 . S
C1051 C369 1.468 . S
C1055 C418 1.535 . S
C1069 C389 1.480 . S
C1073 C378 1.535 . S
C1087 C398 1.535 . S
C1091 C409 1.468 . S
C1105 C458 1.480 . S
C1109 C429 1.418 1_554 S
C1123 C449 1.422 1_554 S
C1127 C478 1.479 . S
C1141 C438 1.484 . S
C1145 C469 1.422 1_554 S
C1159 C488 1.479 . S
C1163 C539 1.535 . S
C1177 C508 1.468 . S
C1181 C499 1.536 . S
C1195 C528 1.479 . S
C1199 C519 1.531 . S
C1213 C548 1.424 1_556 S
C1217 C579 1.484 . S
C1231 C568 1.419 1_556 S
C1235 C599 1.483 . S
C1249 C588 1.426 1_556 S
C1253 C559 1.483 . S
C1267 C609 1.483 . S
C1271 C658 1.549 . S
C1285 C629 1.492 . S
C1289 C618 1.543 . S
C1303 C638 1.545 . S
C1307 C649 1.495 . S
C1321 C669 1.501 . S
C1325 C698 1.562 . S
C1339 C689 1.502 . S
C1343 C718 1.561 . S
C1357 C678 1.562 . S
C1361 C709 1.508 . S
C1375 C18 1.391 . S
C1379 C408 1.411 . S
C1393 C368 1.404 . S
C1397 C38 1.395 . S
C1411 C58 1.383 . S
C1415 C388 1.402 . S
C1429 C78 1.323 . S
C1433 C688 1.334 . S
C1447 C708 1.335 . S
C1451 C98 1.334 . S
C1465 C118 1.332 . S
C1469 C668 1.345 . S
C1483 C529 1.403 . S
C1487 C139 1.382 . S
C1501 C159 1.395 . S
C1505 C489 1.405 . S
C1519 C179 1.386 . S
C1523 C509 1.412 . S
C1537 C329 1.334 . S
C1541 C199 1.322 . S
C1555 C349 1.335 . S
C1559 C219 1.334 . S
C1573 C309 1.333 . S
C1577 C239 1.324 . S
C1591 C258 1.361 . S
C1595 C648 1.377 . S
C1609 C278 1.352 . S
C1613 C608 1.378 . S
C1627 C628 1.377 . S
C1631 C298 1.351 . S
C1645 C208 1.352 . S
C1649 C318 1.347 . S
C1663 C228 1.361 . S
C1667 C338 1.354 . S
C1681 C188 1.365 . S
C1685 C358 1.341 . S
C1699 C49 1.397 . S
C1703 C379 1.387 . S
C1717 C399 1.381 . S
C1721 C9 1.409 . S
C1735 C419 1.381 . S
C1739 C29 1.398 . S
C1753 C569 1.359 1_554 S
C1757 C439 1.364 . S
C1771 C589 1.354 . S
C1775 C459 1.353 . S
C1789 C479 1.353 . S
C1793 C549 1.355 . S
C1807 C168 1.397 . S
C1811 C498 1.382 . S
C1825 C128 1.397 . S
C1829 C518 1.385 . S
C1843 C148 1.408 . S
C1847 C538 1.380 . S
C1861 C558 1.362 . S
C1865 C448 1.360 1_556 S
C1879 C468 1.361 1_556 S
C1883 C578 1.349 . S
C1897 C598 1.358 . S
C1901 C428 1.362 1_556 S
C1915 C619 1.361 . S
C1919 C289 1.367 . S
C1933 C639 1.350 . S
C1937 C249 1.372 . S
C1951 C659 1.358 . S
C1955 C269 1.366 . S
C1969 C679 1.350 . S
C1973 C89 1.353 . S
C1987 C109 1.363 . S
C1991 C699 1.340 . S
C2005 C69 1.358 . S
C2009 C719 1.354 . S
C2023 C582 1.888 . S
C2027 C2 1.876 . S
C2041 C542 1.879 . S
C2045 C22 1.879 . S
C2059 C42 1.885 . S
C2063 C562 1.868 . S
C2077 C262 2.056 . S
C2081 C62 2.060 . S
C2095 C82 2.056 . S
C2099 C282 2.061 . S
C2113 C102 2.060 . S
C2117 C242 2.054 . S
C2131 C121 1.884 . S
C2135 C461 1.868 . S
C2149 C141 1.890 . S
C2153 C421 1.872 . S
C2167 C161 1.890 . S
C2171 C441 1.871 . S
C2185 C621 2.053 . S
C2189 C181 2.059 . S
C2203 C641 2.051 . S
C2207 C201 2.057 . S
C2221 C601 2.059 . S
C2225 C221 2.059 . S
C2239 C302 2.109 . S
C2243 C502 2.104 . S
C2257 C322 2.103 . S
C2261 C522 2.102 . S
C2275 C342 2.109 . S
C2279 C482 2.107 . S
C2293 C361 2.108 . S
C2297 C701 2.109 . S
C2311 C661 2.100 . S
C2315 C381 2.105 . S
C2329 C401 2.102 . S
C2333 C681 2.105 . S
C2347 C81 1.372 . S
C2351 C1 1.364 . S
C2365 C101 1.371 . S
C2369 C21 1.365 . S
C2383 C61 1.369 . S
C2387 C41 1.368 . S
C2401 C122 1.368 . S
C2405 C202 1.367 . S
C2419 C222 1.372 . S
C2423 C142 1.364 . S
C2437 C162 1.371 . S
C2441 C182 1.364 . S
C2455 C321 1.433 . S
C2459 C241 1.425 . S
C2473 C341 1.424 . S
C2477 C261 1.432 . S
C2491 C301 1.431 . S
C2495 C281 1.427 . S
C2509 C442 1.572 . S
C2513 C362 1.597 . S
C2527 C382 1.582 . S
C2531 C462 1.589 . S
C2545 C402 1.588 . S
C2549 C422 1.580 . S
C2563 C481 1.582 . S
C2567 C561 1.589 . S
C2581 C581 1.571 . S
C2585 C501 1.597 . S
C2599 C521 1.582 . S
C2603 C541 1.587 . S
C2617 C602 1.429 . S
C2621 C682 1.429 . S
C2635 C702 1.431 . S
C2639 C622 1.428 . S
C2653 C642 1.429 . S
C2657 C662 1.427 . S
