# Generated by pormake.
# Topology wjm, (5)-cn, num edge types: 1
# Building blocks:
#     Node 0, Type 0, BuildingBlock: BEQFEK_clean_sbu_0, # of connection points: 5
#     Node 1, Type 0, BuildingBlock: BEQFEK_clean_sbu_0, # of connection points: 5
#     Node 2, Type 0, BuildingBlock: BEQFEK_clean_sbu_0, # of connection points: 5
#     Node 3, Type 0, BuildingBlock: BEQFEK_clean_sbu_0, # of connection points: 5
#     Node 4, Type 0, BuildingBlock: BEQFEK_clean_sbu_0, # of connection points: 5
#     Node 5, Type 0, BuildingBlock: BEQFEK_clean_sbu_0, # of connection points: 5
#     Node 6, Type 0, BuildingBlock: BEQFEK_clean_sbu_0, # of connection points: 5
#     Node 7, Type 0, BuildingBlock: BEQFEK_clean_sbu_0, # of connection points: 5
#     Node 8, Type 0, BuildingBlock: BEQFEK_clean_sbu_0, # of connection points: 5
#     Node 9, Type 0, BuildingBlock: BEQFEK_clean_sbu_0, # of connection points: 5
#     Node 10, Type 0, BuildingBlock: BEQFEK_clean_sbu_0, # of connection points: 5
#     Node 11, Type 0, BuildingBlock: BEQFEK_clean_sbu_0, # of connection points: 5
#     Edge 12, Type (0, 0), BuildingBlock: MIFKUJ_clean_linker_0, # of connection points: 2
#     Edge 13, Type (0, 0), BuildingBlock: MIFKUJ_clean_linker_0, # of connection points: 2
#     Edge 14, Type (0, 0), BuildingBlock: MIFKUJ_clean_linker_0, # of connection points: 2
#     Edge 15, Type (0, 0), BuildingBlock: MIFKUJ_clean_linker_0, # of connection points: 2
#     Edge 16, Type (0, 0), BuildingBlock: MIFKUJ_clean_linker_0, # of connection points: 2
#     Edge 17, Type (0, 0), BuildingBlock: MIFKUJ_clean_linker_0, # of connection points: 2
#     Edge 18, Type (0, 0), BuildingBlock: MIFKUJ_clean_linker_0, # of connection points: 2
#     Edge 19, Type (0, 0), BuildingBlock: MIFKUJ_clean_linker_0, # of connection points: 2
#     Edge 20, Type (0, 0), BuildingBlock: MIFKUJ_clean_linker_0, # of connection points: 2
#     Edge 21, Type (0, 0), BuildingBlock: MIFKUJ_clean_linker_0, # of connection points: 2
#     Edge 22, Type (0, 0), BuildingBlock: MIFKUJ_clean_linker_0, # of connection points: 2
#     Edge 23, Type (0, 0), BuildingBlock: MIFKUJ_clean_linker_0, # of connection points: 2
#     Edge 24, Type (0, 0), BuildingBlock: MIFKUJ_clean_linker_0, # of connection points: 2
#     Edge 25, Type (0, 0), BuildingBlock: MIFKUJ_clean_linker_0, # of connection points: 2
#     Edge 26, Type (0, 0), BuildingBlock: MIFKUJ_clean_linker_0, # of connection points: 2
#     Edge 27, Type (0, 0), BuildingBlock: MIFKUJ_clean_linker_0, # of connection points: 2
#     Edge 28, Type (0, 0), BuildingBlock: MIFKUJ_clean_linker_0, # of connection points: 2
#     Edge 29, Type (0, 0), BuildingBlock: MIFKUJ_clean_linker_0, # of connection points: 2
#     Edge 30, Type (0, 0), BuildingBlock: MIFKUJ_clean_linker_0, # of connection points: 2
#     Edge 31, Type (0, 0), BuildingBlock: MIFKUJ_clean_linker_0, # of connection points: 2
#     Edge 32, Type (0, 0), BuildingBlock: MIFKUJ_clean_linker_0, # of connection points: 2
#     Edge 33, Type (0, 0), BuildingBlock: MIFKUJ_clean_linker_0, # of connection points: 2
#     Edge 34, Type (0, 0), BuildingBlock: MIFKUJ_clean_linker_0, # of connection points: 2
#     Edge 35, Type (0, 0), BuildingBlock: MIFKUJ_clean_linker_0, # of connection points: 2
#     Edge 36, Type (0, 0), BuildingBlock: MIFKUJ_clean_linker_0, # of connection points: 2
#     Edge 37, Type (0, 0), BuildingBlock: MIFKUJ_clean_linker_0, # of connection points: 2
#     Edge 38, Type (0, 0), BuildingBlock: MIFKUJ_clean_linker_0, # of connection points: 2
#     Edge 39, Type (0, 0), BuildingBlock: MIFKUJ_clean_linker_0, # of connection points: 2
#     Edge 40, Type (0, 0), BuildingBlock: MIFKUJ_clean_linker_0, # of connection points: 2
#     Edge 41, Type (0, 0), BuildingBlock: MIFKUJ_clean_linker_0, # of connection points: 2
# Relax obj value: 0.654
# Max RMSD: 0.238
# Mean RMSD: 0.238
data_MOF--net-wjm--node1-BEQFEK_clean_sbu_0--edge1-MIFKUJ_clean_linker_0
_symmetry_space_group_name_H-M    P1
_symmetry_Int_Tables_number       1
_symmetry_cell_setting            triclinic
loop_
_symmetry_equiv_pos_as_xyz
'x, y, z'
_cell_length_a     46.378531
_cell_length_b     46.378376
_cell_length_c     54.484181
_cell_angle_alpha  90.014992
_cell_angle_beta   89.936071
_cell_angle_gamma 119.97021
loop_
_atom_site_label
_atom_site_type_symbol
_atom_site_fract_x
_atom_site_fract_y
_atom_site_fract_z
_atom_type_partial_charge
Co0 Co 0.26462 0.41855 0.24331 0.0
Co1 Co 0.25094 0.38777 0.19116 0.0
C2 C 0.23141 0.34574 0.23723 0.0
O3 O 0.23992 0.37161 0.25002 0.0
O4 O 0.23459 0.34728 0.21382 0.0
C5 C 0.26635 0.45004 0.2946 0.0
O6 O 0.23536 0.43701 0.30202 0.0
C7 C 0.22051 0.35359 0.14324 0.0
C8 C 0.26134 0.38794 0.11873 0.0
C9 C 0.23032 0.35954 0.11868 0.0
N10 N 0.24489 0.37757 0.15695 0.0
N11 N 0.26908 0.39786 0.14206 0.0
C12 C 0.18918 0.32555 0.15362 0.0
H13 H 0.19303 0.32093 0.173 0.0
H14 H 0.16941 0.33236 0.15318 0.0
H15 H 0.18084 0.30263 0.14256 0.0
C16 C 0.2387 0.45868 0.22166 0.0
N17 N 0.2435 0.4324 0.22093 0.0
N18 N 0.23582 0.4186 0.19908 0.0
C19 C 0.22521 0.43564 0.18517 0.0
C20 C 0.22667 0.46164 0.19906 0.0
C21 C 0.25123 0.48372 0.24206 0.0
H22 H 0.27629 0.48886 0.24781 0.0
H23 H 0.23418 0.47333 0.25801 0.0
H24 H 0.25309 0.5076 0.23661 0.0
O25 O 0.30947 0.43045 0.23196 0.0
O26 O 0.30004 0.41199 0.19369 0.0
H27 H 0.23895 0.43827 0.14748 0.0
H28 H 0.20169 0.44065 0.15251 0.0
C29 C 0.21596 0.42862 0.15867 0.0
H30 H 0.20079 0.40138 0.15573 0.0
H31 H 0.29088 0.41893 0.1478 0.0
O32 O 0.27312 0.44201 0.2741 0.0
C33 C 0.31986 0.42697 0.21126 0.0
Co34 Co 0.84665 0.26908 0.57679 0.0
Co35 Co 0.86443 0.25433 0.52488 0.0
C36 C 0.88806 0.23762 0.57134 0.0
O37 O 0.86975 0.24489 0.58415 0.0
O38 O 0.88908 0.24028 0.54801 0.0
C39 C 0.81096 0.26258 0.62409 0.0
O40 O 0.78955 0.23086 0.62078 0.0
C41 C 0.86322 0.21767 0.47932 0.0
C42 C 0.88645 0.25993 0.45339 0.0
C43 C 0.8731 0.22589 0.45503 0.0
N44 N 0.87045 0.2458 0.49145 0.0
N45 N 0.88447 0.27088 0.47578 0.0
C46 C 0.84882 0.18411 0.491 0.0
H47 H 0.84607 0.18583 0.51111 0.0
H48 H 0.82416 0.16695 0.48288 0.0
H49 H 0.86523 0.17355 0.48725 0.0
C50 C 0.7813 0.2444 0.55397 0.0
N51 N 0.81184 0.24774 0.55415 0.0
N52 N 0.81821 0.23933 0.53258 0.0
C53 C 0.79101 0.22909 0.51822 0.0
C54 C 0.76663 0.23178 0.53141 0.0
C55 C 0.7696 0.26015 0.57259 0.0
H56 H 0.79107 0.28208 0.581 0.0
H57 H 0.75515 0.2417 0.58705 0.0
H58 H 0.7533 0.26856 0.56414 0.0
O59 O 0.8785 0.31333 0.56429 0.0
O60 O 0.8895 0.30355 0.52667 0.0
H61 H 0.80644 0.24145 0.48087 0.0
H62 H 0.76374 0.20815 0.4845 0.0
C63 C 0.78937 0.21928 0.49189 0.0
H64 H 0.79765 0.20077 0.49023 0.0
H65 H 0.89249 0.29561 0.48026 0.0
O66 O 0.83303 0.27894 0.60809 0.0
C67 C 0.8933 0.32366 0.54386 0.0
Co68 Co 0.57232 0.8408 0.9079 0.0
Co69 Co 0.60645 0.86499 0.85676 0.0
C70 C 0.64537 0.88564 0.90449 0.0
O71 O 0.61931 0.86722 0.91692 0.0
O72 O 0.64456 0.88748 0.88108 0.0
C73 C 0.55184 0.81609 0.95871 0.0
O74 O 0.58293 0.83026 0.96593 0.0
C75 C 0.64212 0.86849 0.80992 0.0
C76 C 0.61799 0.88825 0.78556 0.0
C77 C 0.6409 0.87741 0.78563 0.0
N78 N 0.62066 0.87371 0.82327 0.0
N79 N 0.60659 0.8857 0.80852 0.0
C80 C 0.66356 0.85601 0.82054 0.0
H81 H 0.66732 0.86164 0.84047 0.0
H82 H 0.65102 0.82861 0.81825 0.0
H83 H 0.68794 0.86741 0.81096 0.0
C84 C 0.53962 0.77663 0.88322 0.0
N85 N 0.56403 0.80864 0.88385 0.0
N86 N 0.57676 0.81813 0.86177 0.0
C87 C 0.55993 0.79224 0.84619 0.0
C88 C 0.5357 0.76515 0.85935 0.0
C89 C 0.51741 0.75858 0.90448 0.0
H90 H 0.50104 0.76916 0.90827 0.0
H91 H 0.53275 0.76189 0.92097 0.0
H92 H 0.50168 0.73155 0.9007 0.0
O93 O 0.55665 0.87153 0.89682 0.0
O94 O 0.58114 0.88836 0.86066 0.0
H95 H 0.55902 0.8155 0.81255 0.0
H96 H 0.54488 0.77151 0.80973 0.0
C97 C 0.56305 0.79505 0.81887 0.0
H98 H 0.58856 0.80128 0.81349 0.0
H99 H 0.58851 0.8915 0.81397 0.0
O100 O 0.54494 0.81876 0.93662 0.0
C101 C 0.56248 0.88895 0.87746 0.0
Co102 Co 0.72565 0.57468 0.24111 0.0
Co103 Co 0.74202 0.60998 0.19044 0.0
C104 C 0.76004 0.64827 0.23807 0.0
O105 O 0.74941 0.62127 0.24982 0.0
O106 O 0.75877 0.64858 0.21464 0.0
C107 C 0.73035 0.54725 0.28971 0.0
O108 O 0.76294 0.56148 0.28941 0.0
C109 C 0.78163 0.64616 0.14616 0.0
C110 C 0.74092 0.63113 0.11929 0.0
C111 C 0.77507 0.64981 0.12187 0.0
N112 N 0.75246 0.62616 0.15747 0.0
N113 N 0.72832 0.6174 0.14123 0.0
C114 C 0.81475 0.66251 0.15861 0.0
H115 H 0.81213 0.65478 0.17815 0.0
H116 H 0.8318 0.65593 0.14904 0.0
H117 H 0.82595 0.68994 0.15745 0.0
C118 C 0.75389 0.53691 0.21862 0.0
N119 N 0.74848 0.56283 0.21865 0.0
N120 N 0.75578 0.57731 0.19696 0.0
C121 C 0.76633 0.56074 0.18237 0.0
C122 C 0.76584 0.53484 0.19576 0.0
C123 C 0.74203 0.51106 0.23846 0.0
H124 H 0.71774 0.50644 0.24569 0.0
H125 H 0.76037 0.52018 0.25363 0.0
H126 H 0.73899 0.48712 0.23172 0.0
O127 O 0.68184 0.5625 0.22786 0.0
O128 O 0.69252 0.58716 0.19159 0.0
H129 H 0.75267 0.56678 0.14604 0.0
H130 H 0.78078 0.55024 0.14711 0.0
C131 C 0.77428 0.56794 0.15569 0.0
H132 H 0.79569 0.59345 0.1536 0.0
H133 H 0.70312 0.60174 0.14503 0.0
O134 O 0.71468 0.5502 0.27175 0.0
C135 C 0.67195 0.56892 0.20798 0.0
Co136 Co 0.14816 0.72732 0.57475 0.0
Co137 Co 0.13209 0.74473 0.52338 0.0
C138 C 0.11066 0.76235 0.57114 0.0
O139 O 0.12885 0.75451 0.58347 0.0
O140 O 0.10834 0.75901 0.54781 0.0
C141 C 0.18317 0.7318 0.62146 0.0
O142 O 0.20379 0.76382 0.61867 0.0
C143 C 0.13791 0.78294 0.47719 0.0
C144 C 0.11491 0.74043 0.45151 0.0
C145 C 0.13128 0.77476 0.4525 0.0
N146 N 0.12656 0.75446 0.49009 0.0
N147 N 0.11209 0.72928 0.47455 0.0
C148 C 0.15643 0.81708 0.48802 0.0
H149 H 0.16373 0.81602 0.50725 0.0
H150 H 0.1787 0.83326 0.47673 0.0
H151 H 0.1401 0.82821 0.48782 0.0
C152 C 0.21372 0.7505 0.55181 0.0
N153 N 0.18336 0.74764 0.5519 0.0
N154 N 0.17787 0.75733 0.53055 0.0
C155 C 0.20527 0.76737 0.51632 0.0
C156 C 0.22905 0.76373 0.52951 0.0
C157 C 0.22527 0.7349 0.57058 0.0
H158 H 0.20379 0.71251 0.57855 0.0
H159 H 0.23884 0.7532 0.58531 0.0
H160 H 0.24239 0.72731 0.5624 0.0
O161 O 0.11303 0.68414 0.56226 0.0
O162 O 0.10645 0.69567 0.52395 0.0
H163 H 0.18749 0.75848 0.47929 0.0
H164 H 0.23222 0.78487 0.4819 0.0
C165 C 0.20791 0.77837 0.49021 0.0
H166 H 0.20535 0.80079 0.48954 0.0
H167 H 0.10166 0.7043 0.47941 0.0
O168 O 0.16131 0.71548 0.60535 0.0
C169 C 0.09985 0.67497 0.54123 0.0
Co170 Co 0.41434 0.15024 0.90835 0.0
Co171 Co 0.38521 0.13435 0.85539 0.0
C172 C 0.34166 0.1108 0.90009 0.0
O173 O 0.36694 0.1284 0.91324 0.0
O174 O 0.34412 0.10921 0.87683 0.0
C175 C 0.44343 0.1778 0.96225 0.0
O176 O 0.42898 0.19025 0.97595 0.0
C177 C 0.35133 0.13205 0.80774 0.0
C178 C 0.38399 0.1237 0.78272 0.0
C179 C 0.35623 0.12745 0.78314 0.0
N180 N 0.3752 0.13086 0.82109 0.0
N181 N 0.39456 0.12596 0.8059 0.0
C182 C 0.32414 0.13654 0.81842 0.0
H183 H 0.32021 0.12909 0.83803 0.0
H184 H 0.33135 0.16319 0.81723 0.0
H185 H 0.3007 0.1218 0.80795 0.0
C186 C 0.45803 0.21466 0.88628 0.0
N187 N 0.42995 0.18495 0.88575 0.0
N188 N 0.4159 0.17996 0.86407 0.0
C189 C 0.43414 0.20746 0.85027 0.0
C190 C 0.46169 0.23044 0.86387 0.0
C191 C 0.48384 0.2242 0.90592 0.0
H192 H 0.48313 0.20161 0.91337 0.0
H193 H 0.47841 0.23674 0.92109 0.0
H194 H 0.50928 0.24109 0.89885 0.0
O195 O 0.42634 0.11702 0.8978 0.0
O196 O 0.40954 0.10939 0.85889 0.0
H197 H 0.43538 0.19842 0.81194 0.0
H198 H 0.43765 0.23759 0.81897 0.0
C199 C 0.42604 0.21099 0.82427 0.0
H200 H 0.3987 0.19895 0.82199 0.0
H201 H 0.41522 0.12427 0.81137 0.0
O202 O 0.43204 0.16694 0.94105 0.0
C203 C 0.42353 0.1037 0.87684 0.0
Co204 Co 0.57464 0.72452 0.4257 0.0
Co205 Co 0.61145 0.74626 0.47598 0.0
C206 C 0.64874 0.76347 0.42828 0.0
O207 O 0.6211 0.75081 0.41717 0.0
O208 O 0.65016 0.7636 0.45174 0.0
C209 C 0.54675 0.7342 0.3803 0.0
O210 O 0.55808 0.76548 0.38625 0.0
C211 C 0.64703 0.78404 0.52157 0.0
C212 C 0.62584 0.74229 0.548 0.0
C213 C 0.64758 0.77608 0.54609 0.0
N214 N 0.62583 0.75594 0.5095 0.0
N215 N 0.61344 0.7312 0.52554 0.0
C216 C 0.66721 0.81738 0.50976 0.0
H217 H 0.66227 0.81583 0.48973 0.0
H218 H 0.66117 0.83546 0.51826 0.0
H219 H 0.69405 0.82662 0.51304 0.0
C220 C 0.5324 0.74687 0.44905 0.0
N221 N 0.56049 0.74523 0.44846 0.0
N222 N 0.57753 0.7579 0.46874 0.0
C223 C 0.56138 0.7699 0.48237 0.0
C224 C 0.53212 0.76344 0.47024 0.0
C225 C 0.50354 0.72703 0.43228 0.0
H226 H 0.50485 0.70565 0.42446 0.0
H227 H 0.5041 0.74323 0.41716 0.0
H228 H 0.47955 0.71734 0.4422 0.0
O229 O 0.56627 0.68187 0.43842 0.0
O230 O 0.58971 0.69666 0.47515 0.0
H231 H 0.5669 0.76726 0.52109 0.0
H232 H 0.56241 0.80218 0.5114 0.0
C233 C 0.57345 0.78649 0.5067 0.0
H234 H 0.60083 0.80243 0.50622 0.0
H235 H 0.59606 0.7066 0.52127 0.0
O236 O 0.5507 0.71493 0.39465 0.0
C237 C 0.57342 0.67453 0.45909 0.0
Co238 Co 0.84373 0.57567 0.75756 0.0
Co239 Co 0.8584 0.6074 0.80992 0.0
C240 C 0.88653 0.64936 0.76508 0.0
O241 O 0.87078 0.62333 0.75209 0.0
O242 O 0.88439 0.64821 0.78851 0.0
C243 C 0.81524 0.54786 0.70678 0.0
O244 O 0.79369 0.55831 0.70529 0.0
C245 C 0.8606 0.64051 0.85834 0.0
C246 C 0.86175 0.6029 0.88259 0.0
C247 C 0.8617 0.63271 0.88298 0.0
N248 N 0.86003 0.61621 0.84436 0.0
N249 N 0.86076 0.59399 0.85911 0.0
C250 C 0.86099 0.67061 0.84814 0.0
H251 H 0.86961 0.67472 0.82878 0.0
H252 H 0.83535 0.66667 0.8486 0.0
H253 H 0.87731 0.69289 0.85933 0.0
C254 C 0.77654 0.53654 0.77743 0.0
N255 N 0.80737 0.56323 0.77835 0.0
N256 N 0.81274 0.57713 0.80019 0.0
C257 C 0.78463 0.56008 0.81364 0.0
C258 C 0.76085 0.53366 0.79973 0.0
C259 C 0.76527 0.51057 0.75773 0.0
H260 H 0.78659 0.50826 0.75102 0.0
H261 H 0.75502 0.51805 0.74219 0.0
H262 H 0.74579 0.48582 0.7644 0.0
O263 O 0.87176 0.55979 0.77168 0.0
O264 O 0.88435 0.58381 0.8082 0.0
H265 H 0.793 0.55693 0.85183 0.0
H266 H 0.75459 0.55618 0.84511 0.0
C267 C 0.78119 0.56743 0.83986 0.0
H268 H 0.79383 0.59471 0.84276 0.0
H269 H 0.86024 0.57237 0.85311 0.0
O270 O 0.83299 0.55352 0.72578 0.0
C271 C 0.8868 0.56541 0.79204 0.0
Co272 Co 0.27234 0.84982 0.09289 0.0
Co273 Co 0.25505 0.86768 0.1426 0.0
C274 C 0.2358 0.88479 0.09377 0.0
O275 O 0.24173 0.86396 0.08328 0.0
O276 O 0.24056 0.89016 0.11685 0.0
C277 C 0.27557 0.82353 0.04277 0.0
O278 O 0.24377 0.80864 0.03728 0.0
C279 C 0.21449 0.8652 0.18642 0.0
C280 C 0.25412 0.88419 0.21447 0.0
C281 C 0.22047 0.87198 0.21128 0.0
N282 N 0.24358 0.87319 0.17536 0.0
N283 N 0.26712 0.88498 0.1923 0.0
C284 C 0.18159 0.85023 0.17372 0.0
H285 H 0.18406 0.84499 0.15417 0.0
H286 H 0.16342 0.82697 0.18322 0.0
H287 H 0.17192 0.86777 0.17482 0.0
C288 C 0.2539 0.7871 0.11665 0.0
N289 N 0.25493 0.81646 0.1161 0.0
N290 N 0.24284 0.82126 0.13648 0.0
C291 C 0.23115 0.79321 0.15021 0.0
C292 C 0.23773 0.77031 0.13805 0.0
C293 C 0.27379 0.77887 0.09915 0.0
H294 H 0.29615 0.80201 0.09294 0.0
H295 H 0.25846 0.76611 0.08279 0.0
H296 H 0.28237 0.76287 0.10786 0.0
O297 O 0.31413 0.88655 0.1042 0.0
O298 O 0.30498 0.89532 0.14248 0.0
H299 H 0.2325 0.79769 0.1893 0.0
H300 H 0.19532 0.76193 0.17743 0.0
C301 C 0.21387 0.78852 0.17428 0.0
H302 H 0.20072 0.80281 0.17455 0.0
H303 H 0.29203 0.89245 0.18893 0.0
O304 O 0.28613 0.83753 0.06335 0.0
C305 C 0.32476 0.90129 0.12453 0.0
Co306 Co 0.42296 0.27407 0.42316 0.0
Co307 Co 0.38732 0.25189 0.47368 0.0
C308 C 0.34868 0.23624 0.42704 0.0
O309 O 0.37608 0.2495 0.41554 0.0
O310 O 0.34774 0.23506 0.45049 0.0
C311 C 0.4517 0.26864 0.37589 0.0
O312 O 0.44235 0.23721 0.37972 0.0
C313 C 0.35167 0.21396 0.51911 0.0
C314 C 0.37514 0.25492 0.54608 0.0
C315 C 0.35175 0.22161 0.54377 0.0
N316 N 0.37399 0.24182 0.50732 0.0
N317 N 0.38784 0.26607 0.52367 0.0
C318 C 0.33002 0.1812 0.50695 0.0
H319 H 0.33418 0.18321 0.4868 0.0
H320 H 0.33559 0.1623 0.51449 0.0
H321 H 0.30352 0.17274 0.51103 0.0
C322 C 0.46547 0.25154 0.44475 0.0
N323 N 0.43682 0.25208 0.44457 0.0
N324 N 0.42036 0.23937 0.46507 0.0
C325 C 0.4372 0.22784 0.47831 0.0
C326 C 0.46664 0.23522 0.46586 0.0
C327 C 0.49409 0.27325 0.42818 0.0
H328 H 0.49182 0.29463 0.42157 0.0
H329 H 0.49413 0.25863 0.41209 0.0
H330 H 0.51824 0.28323 0.43788 0.0
O331 O 0.43466 0.3166 0.43736 0.0
O332 O 0.40989 0.30176 0.47356 0.0
H333 H 0.43386 0.23001 0.51732 0.0
H334 H 0.43554 0.19405 0.50625 0.0
C335 C 0.42557 0.21096 0.50262 0.0
H336 H 0.39807 0.19623 0.50291 0.0
H337 H 0.40623 0.29039 0.51962 0.0
O338 O 0.44598 0.2851 0.39181 0.0
C339 C 0.42803 0.32414 0.45813 0.0
Co340 Co 0.1503 0.41954 0.76124 0.0
Co341 Co 0.13308 0.39173 0.81356 0.0
C342 C 0.10853 0.34957 0.76666 0.0
O343 O 0.12979 0.37285 0.7533 0.0
O344 O 0.106 0.35411 0.7895 0.0
C345 C 0.17766 0.44824 0.71081 0.0
O346 O 0.19367 0.43206 0.70659 0.0
C347 C 0.13721 0.35498 0.85679 0.0
C348 C 0.10793 0.36562 0.8836 0.0
C349 C 0.12535 0.34886 0.8807 0.0
N350 N 0.12698 0.37438 0.84598 0.0
N351 N 0.10942 0.38051 0.86214 0.0
C352 C 0.15631 0.34123 0.84407 0.0
H353 H 0.16014 0.3486 0.82442 0.0
H354 H 0.18079 0.35048 0.8531 0.0
H355 H 0.14255 0.31368 0.84565 0.0
C356 C 0.21754 0.4585 0.78203 0.0
N357 N 0.18593 0.43324 0.78319 0.0
N358 N 0.17915 0.42125 0.80566 0.0
C359 C 0.20637 0.43923 0.81973 0.0
C360 C 0.23172 0.46313 0.8051 0.0
C361 C 0.23176 0.48133 0.76041 0.0
H362 H 0.21478 0.49062 0.75509 0.0
H363 H 0.23374 0.46723 0.7447 0.0
H364 H 0.25672 0.50291 0.76433 0.0
O365 O 0.11625 0.42976 0.7741 0.0
O366 O 0.11149 0.41876 0.81393 0.0
H367 H 0.18501 0.43706 0.85502 0.0
H368 H 0.23007 0.45658 0.85515 0.0
C369 C 0.20671 0.43641 0.84707 0.0
H370 H 0.20441 0.41216 0.85193 0.0
H371 H 0.09852 0.39504 0.85859 0.0
O372 O 0.1625 0.4448 0.7309 0.0
C373 C 0.10475 0.43036 0.79514 0.0
Co374 Co 0.74135 0.16054 0.09553 0.0
Co375 Co 0.74305 0.13352 0.14647 0.0
C376 C 0.7621 0.11273 0.0978 0.0
O377 O 0.7644 0.1375 0.08628 0.0
O378 O 0.75343 0.10789 0.12041 0.0
C379 C 0.72753 0.1701 0.04619 0.0
O380 O 0.72641 0.14175 0.04154 0.0
C381 C 0.77738 0.13243 0.19196 0.0
C382 C 0.734 0.10035 0.21528 0.0
C383 C 0.76845 0.11928 0.21561 0.0
N384 N 0.74942 0.12197 0.17874 0.0
N385 N 0.72366 0.10255 0.19274 0.0
C386 C 0.81146 0.15351 0.18147 0.0
H387 H 0.8108 0.15072 0.1612 0.0
H388 H 0.82034 0.18004 0.18567 0.0
H389 H 0.82909 0.14649 0.18949 0.0
C390 C 0.77149 0.22389 0.12099 0.0
N391 N 0.76339 0.19176 0.12042 0.0
N392 N 0.76242 0.18097 0.14284 0.0
C393 C 0.76812 0.20587 0.15865 0.0
C394 C 0.77384 0.23393 0.14521 0.0
C395 C 0.77374 0.24377 0.09868 0.0
H396 H 0.78582 0.23779 0.08347 0.0
H397 H 0.78825 0.27087 0.10256 0.0
H398 H 0.74833 0.23734 0.09284 0.0
O399 O 0.69381 0.12731 0.10456 0.0
O400 O 0.69518 0.11485 0.14366 0.0
H401 H 0.75415 0.21833 0.19322 0.0
H402 H 0.7853 0.20614 0.19499 0.0
C403 C 0.76194 0.20103 0.1857 0.0
H404 H 0.74257 0.175 0.18974 0.0
H405 H 0.6989 0.0914 0.18711 0.0
O406 O 0.73686 0.18326 0.06719 0.0
C407 C 0.67901 0.11258 0.12432 0.0
H408 H 0.62195 0.51705 0.23258 0.0
H409 H 0.56219 0.49362 0.22735 0.0
H410 H 0.57986 0.56467 0.17001 0.0
H411 H 0.64023 0.58824 0.17487 0.0
H412 H 0.53264 0.55783 0.20947 0.0
H413 H 0.55281 0.49215 0.15119 0.0
H414 H 0.57647 0.45764 0.13743 0.0
H415 H 0.52057 0.38508 0.19285 0.0
H416 H 0.4969 0.41937 0.20717 0.0
H417 H 0.35819 0.46754 0.17451 0.0
H418 H 0.41883 0.49261 0.16979 0.0
H419 H 0.42183 0.44054 0.23446 0.0
H420 H 0.36155 0.41688 0.23991 0.0
H421 H 0.45863 0.43966 0.18599 0.0
H422 H 0.44664 0.50645 0.24869 0.0
H423 H 0.42421 0.54011 0.26643 0.0
H424 H 0.46571 0.60942 0.20669 0.0
H425 H 0.4879 0.57573 0.18834 0.0
C426 C 0.61324 0.52772 0.21878 0.0
C427 C 0.63581 0.55454 0.20414 0.0
C428 C 0.57908 0.5142 0.21578 0.0
C429 C 0.56677 0.52735 0.19824 0.0
C430 C 0.58906 0.55421 0.18361 0.0
C431 C 0.62342 0.56752 0.18635 0.0
C432 C 0.53045 0.51313 0.1959 0.0
C433 C 0.51645 0.53227 0.20374 0.0
C434 C 0.50949 0.47946 0.18918 0.0
C435 C 0.52324 0.45846 0.18036 0.0
C436 C 0.54572 0.46894 0.16055 0.0
C437 C 0.5591 0.44939 0.15263 0.0
C438 C 0.55008 0.41921 0.16429 0.0
C439 C 0.52754 0.40846 0.18384 0.0
C440 C 0.51409 0.42792 0.19184 0.0
C441 C 0.37193 0.46148 0.18761 0.0
C442 C 0.35564 0.44055 0.20762 0.0
C443 C 0.40635 0.47572 0.18491 0.0
C444 C 0.42453 0.46831 0.20179 0.0
C445 C 0.40805 0.44646 0.2213 0.0
C446 C 0.37385 0.43313 0.22445 0.0
C447 C 0.46098 0.48433 0.19965 0.0
C448 C 0.47489 0.46545 0.19112 0.0
C449 C 0.48188 0.51806 0.20611 0.0
C450 C 0.46836 0.53824 0.21689 0.0
C451 C 0.45052 0.52857 0.23912 0.0
C452 C 0.43796 0.54772 0.24934 0.0
C453 C 0.44336 0.57679 0.23762 0.0
C454 C 0.46143 0.58681 0.21569 0.0
C455 C 0.47399 0.56769 0.20536 0.0
H456 H 0.43368 0.59163 0.24559 0.0
H457 H 0.5605 0.40414 0.15815 0.0
H458 H 0.94134 0.35521 0.50871 0.0
H459 H 0.9776 0.41545 0.50327 0.0
H460 H 0.93035 0.43339 0.56499 0.0
H461 H 0.89447 0.3736 0.57076 0.0
H462 H 0.93566 0.47092 0.5229 0.0
H463 H 0.00089 0.43927 0.57266 0.0
H464 H 0.03071 0.40944 0.58321 0.0
H465 H 0.09596 0.45395 0.52163 0.0
H466 H 0.0657 0.48306 0.51008 0.0
H467 H 0.05252 0.63092 0.57211 0.0
H468 H 0.01607 0.57099 0.56564 0.0
H469 H 0.06028 0.57909 0.49446 0.0
H470 H 0.0959 0.63945 0.50041 0.0
H471 H 0.05805 0.5287 0.53453 0.0
H472 H 0.99383 0.5628 0.48641 0.0
H473 H 0.96418 0.59323 0.47729 0.0
H474 H 0.89817 0.54532 0.538 0.0
H475 H 0.92787 0.51507 0.54781 0.0
C476 C 0.9387 0.37204 0.52108 0.0
C477 C 0.91509 0.35974 0.54016 0.0
C478 C 0.95946 0.40633 0.518 0.0
C479 C 0.95655 0.42865 0.53376 0.0
C480 C 0.93284 0.41643 0.55264 0.0
C481 C 0.91248 0.38229 0.55594 0.0
C482 C 0.97789 0.4649 0.53069 0.0
C483 C 0.96243 0.48359 0.52546 0.0
C484 C 0.01286 0.48111 0.53356 0.0
C485 C 0.03053 0.46288 0.54019 0.0
C486 C 0.02113 0.4422 0.56104 0.0
C487 C 0.03819 0.42547 0.56725 0.0
C488 C 0.06515 0.42974 0.55308 0.0
C489 C 0.075 0.45059 0.53256 0.0
C490 C 0.0578 0.46709 0.5261 0.0
C491 C 0.05414 0.6199 0.555 0.0
C492 C 0.07689 0.6395 0.53675 0.0
C493 C 0.03334 0.58586 0.5513 0.0
C494 C 0.03562 0.57093 0.52958 0.0
C495 C 0.05819 0.59043 0.51125 0.0
C496 C 0.07836 0.62471 0.51464 0.0
C497 C 0.01572 0.53455 0.527 0.0
C498 C 0.03139 0.51587 0.53139 0.0
C499 C 0.98095 0.51832 0.52355 0.0
C500 C 0.96342 0.537 0.51805 0.0
C501 C 0.97334 0.55912 0.49806 0.0
C502 C 0.95642 0.57625 0.4927 0.0
C503 C 0.92938 0.57131 0.50711 0.0
C504 C 0.91918 0.5492 0.52689 0.0
C505 C 0.93605 0.53205 0.53236 0.0
H506 H 0.91627 0.58453 0.50289 0.0
H507 H 0.0785 0.417 0.55805 0.0
H508 H 0.45802 0.09986 0.83766 0.0
H509 H 0.48366 0.06491 0.83391 0.0
H510 H 0.44147 0.01968 0.90396 0.0
H511 H 0.41811 0.0563 0.90841 0.0
H512 H 0.50185 0.03561 0.90382 0.0
H513 H 0.41382 0.98022 0.84227 0.0
H514 H 0.38394 0.97806 0.80423 0.0
H515 H 0.47416 0.01327 0.76275 0.0
H516 H 0.50461 0.01587 0.80056 0.0
H517 H 0.51494 0.8913 0.90577 0.0
H518 H 0.49452 0.93056 0.90263 0.0
H519 H 0.5569 0.97577 0.83928 0.0
H520 H 0.57803 0.93703 0.84259 0.0
H521 H 0.49358 0.9652 0.83266 0.0
H522 H 0.58088 0.01901 0.89137 0.0
H523 H 0.6143 0.02564 0.92835 0.0
H524 H 0.52842 0.99668 0.97382 0.0
H525 H 0.49441 0.98945 0.93707 0.0
C526 C 0.45419 0.08225 0.85211 0.0
C527 C 0.43651 0.08087 0.87344 0.0
C528 C 0.46856 0.06208 0.84989 0.0
C529 C 0.46432 0.03934 0.86856 0.0
C530 C 0.44539 0.03717 0.88938 0.0
C531 C 0.43202 0.05804 0.89195 0.0
C532 C 0.48126 0.01934 0.86761 0.0
C533 C 0.49945 0.01981 0.88836 0.0
C534 C 0.47992 0.00012 0.84694 0.0
C535 C 0.46152 0.99853 0.82427 0.0
C536 C 0.4273 0.98769 0.82506 0.0
C537 C 0.41027 0.98634 0.80353 0.0
C538 C 0.42716 0.9956 0.7811 0.0
C539 C 0.46111 0.00613 0.78013 0.0
C540 C 0.47825 0.0075 0.80159 0.0
C541 C 0.52465 0.90984 0.89138 0.0
C542 C 0.54854 0.91137 0.87475 0.0
C543 C 0.51288 0.93218 0.88953 0.0
C544 C 0.52458 0.95634 0.87092 0.0
C545 C 0.54769 0.95738 0.85383 0.0
C546 C 0.55968 0.93518 0.85577 0.0
C547 C 0.51233 0.98027 0.86935 0.0
C548 C 0.49562 0.98091 0.84809 0.0
C549 C 0.51513 0.00074 0.88944 0.0
C550 C 0.5351 0.00356 0.91148 0.0
C551 C 0.56906 0.01371 0.90924 0.0
C552 C 0.58813 0.01768 0.93016 0.0
C553 C 0.57351 0.01164 0.95342 0.0
C554 C 0.53973 0.0014 0.9558 0.0
C555 C 0.52055 0.99735 0.93493 0.0
H556 H 0.58833 0.01484 0.9696 0.0
H557 H 0.41393 0.99455 0.76446 0.0
H558 H 0.54827 0.64134 0.5022 0.0
H559 H 0.52177 0.58103 0.50873 0.0
H560 H 0.54748 0.56915 0.43464 0.0
H561 H 0.57204 0.6288 0.42775 0.0
H562 H 0.48641 0.52772 0.44148 0.0
H563 H 0.58616 0.56005 0.48879 0.0
H564 H 0.62739 0.58979 0.52139 0.0
H565 H 0.55096 0.54363 0.57613 0.0
H566 H 0.50921 0.51388 0.5438 0.0
H567 H 0.47776 0.37628 0.43386 0.0
H568 H 0.50074 0.4352 0.44194 0.0
H569 H 0.43532 0.4124 0.50418 0.0
H570 H 0.41213 0.3525 0.49644 0.0
H571 H 0.50739 0.46907 0.50925 0.0
H572 H 0.40866 0.43354 0.45807 0.0
H573 H 0.37346 0.39988 0.42357 0.0
H574 H 0.45595 0.45083 0.37406 0.0
H575 H 0.49146 0.48499 0.40821 0.0
C576 C 0.54855 0.62573 0.48751 0.0
C577 C 0.56183 0.6394 0.46443 0.0
C578 C 0.53354 0.59136 0.49125 0.0
C579 C 0.53256 0.5705 0.47216 0.0
C580 C 0.54752 0.58464 0.44955 0.0
C581 C 0.56165 0.61869 0.44563 0.0
C582 C 0.51416 0.53377 0.47477 0.0
C583 C 0.49114 0.5151 0.45636 0.0
C584 C 0.51949 0.51703 0.49448 0.0
C585 C 0.54451 0.53509 0.51387 0.0
C586 C 0.5781 0.55649 0.50776 0.0
C587 C 0.60158 0.57328 0.52619 0.0
C588 C 0.59178 0.56869 0.55081 0.0
C589 C 0.5585 0.54722 0.55705 0.0
C590 C 0.53493 0.53037 0.53869 0.0
C591 C 0.46822 0.38358 0.44938 0.0
C592 C 0.44269 0.35971 0.46429 0.0
C593 C 0.48157 0.41729 0.45403 0.0
C594 C 0.46943 0.42795 0.47347 0.0
C595 C 0.44491 0.40443 0.4891 0.0
C596 C 0.43161 0.37037 0.48455 0.0
C597 C 0.48086 0.46374 0.47565 0.0
C598 C 0.50228 0.48206 0.49485 0.0
C599 C 0.47467 0.48038 0.45648 0.0
C600 C 0.45262 0.46183 0.43565 0.0
C601 C 0.41915 0.43772 0.43977 0.0
C602 C 0.39917 0.41854 0.42029 0.0
C603 C 0.41245 0.42319 0.39665 0.0
C604 C 0.44564 0.44731 0.39237 0.0
C605 C 0.46563 0.46677 0.41173 0.0
H606 H 0.39702 0.4081 0.38163 0.0
H607 H 0.60999 0.5817 0.56505 0.0
H608 H 0.11495 0.4839 0.82198 0.0
H609 H 0.07916 0.5088 0.82369 0.0
H610 H 0.00801 0.43078 0.77645 0.0
H611 H 0.04517 0.4077 0.77328 0.0
H612 H 0.01446 0.4847 0.76157 0.0
H613 H 0.99869 0.43738 0.84341 0.0
H614 H 0.01745 0.42956 0.88396 0.0
H615 H 0.06208 0.53424 0.89846 0.0
H616 H 0.04384 0.5427 0.85791 0.0
H617 H 0.87722 0.50641 0.77506 0.0
H618 H 0.91461 0.48393 0.7789 0.0
H619 H 0.98285 0.56985 0.8213 0.0
H620 H 0.94437 0.5916 0.81861 0.0
H621 H 0.98101 0.51633 0.83899 0.0
H622 H 0.99476 0.5628 0.75767 0.0
H623 H 0.97483 0.57019 0.71747 0.0
H624 H 0.93302 0.46599 0.70225 0.0
H625 H 0.95243 0.45793 0.74245 0.0
C626 C 0.09156 0.4722 0.81209 0.0
C627 C 0.08253 0.44407 0.79752 0.0
C628 C 0.07099 0.48619 0.81322 0.0
C629 C 0.04049 0.47138 0.80055 0.0
C630 C 0.03139 0.44277 0.78635 0.0
C631 C 0.05246 0.4295 0.78458 0.0
C632 C 0.01859 0.48625 0.80105 0.0
C633 C 0.00682 0.49112 0.77858 0.0
C634 C 0.00948 0.49588 0.82311 0.0
C635 C 0.02014 0.49069 0.84757 0.0
C636 C 0.01264 0.45873 0.85521 0.0
C637 C 0.02316 0.45419 0.8782 0.0
C638 C 0.04101 0.4814 0.89375 0.0
C639 C 0.04828 0.51319 0.88639 0.0
C640 C 0.03781 0.51787 0.86343 0.0
C641 C 0.90006 0.52033 0.78541 0.0
C642 C 0.90814 0.55084 0.79636 0.0
C643 C 0.92151 0.50759 0.78745 0.0
C644 C 0.95202 0.52571 0.79974 0.0
C645 C 0.95956 0.5556 0.81157 0.0
C646 C 0.93762 0.56798 0.81003 0.0
C647 C 0.97626 0.51373 0.79962 0.0
C648 C 0.98868 0.50977 0.82206 0.0
C649 C 0.98592 0.50478 0.77754 0.0
C650 C 0.97494 0.50976 0.75311 0.0
C651 C 0.98126 0.54147 0.74576 0.0
C652 C 0.97004 0.54576 0.72299 0.0
C653 C 0.95262 0.51856 0.70734 0.0
C654 C 0.94651 0.48703 0.71439 0.0
C655 C 0.95769 0.4826 0.73714 0.0
H656 H 0.94387 0.52192 0.68975 0.0
H657 H 0.04916 0.47783 0.91153 0.0
H658 H 0.37268 0.90989 0.09187 0.0
H659 H 0.4325 0.94531 0.09558 0.0
H660 H 0.41995 0.98032 0.16589 0.0
H661 H 0.35917 0.94411 0.16258 0.0
H662 H 0.46503 0.03144 0.13095 0.0
H663 H 0.44681 0.9309 0.16857 0.0
H664 H 0.42335 0.87027 0.17219 0.0
H665 H 0.47531 0.87033 0.10692 0.0
H666 H 0.49868 0.93095 0.10265 0.0
H667 H 0.63782 0.10359 0.16258 0.0
H668 H 0.5773 0.06707 0.16436 0.0
H669 H 0.57747 0.03595 0.08981 0.0
H670 H 0.63808 0.07345 0.0876 0.0
H671 H 0.53882 0.98237 0.13037 0.0
H672 H 0.55129 0.08078 0.09026 0.0
H673 H 0.57458 0.14132 0.08589 0.0
H674 H 0.53287 0.1444 0.1556 0.0
H675 H 0.5098 0.08387 0.16055 0.0
C676 C 0.38238 0.92505 0.10821 0.0
C677 C 0.36105 0.92406 0.12703 0.0
C678 C 0.41669 0.94521 0.11028 0.0
C679 C 0.43055 0.96509 0.13108 0.0
C680 C 0.40954 0.96492 0.14974 0.0
C681 C 0.37495 0.94427 0.14784 0.0
C682 C 0.46712 0.98614 0.13276 0.0
C683 C 0.48118 0.02076 0.13135 0.0
C684 C 0.48803 0.97199 0.1326 0.0
C685 C 0.4743 0.93551 0.13518 0.0
C686 C 0.45303 0.91798 0.15486 0.0
C687 C 0.43978 0.88361 0.15705 0.0
C688 C 0.44778 0.86645 0.13977 0.0
C689 C 0.46912 0.88366 0.12028 0.0
C690 C 0.48242 0.91805 0.11798 0.0
C691 C 0.62491 0.08909 0.14653 0.0
C692 C 0.64246 0.09152 0.12487 0.0
C693 C 0.59046 0.06821 0.14761 0.0
C694 C 0.57312 0.04883 0.12726 0.0
C695 C 0.59058 0.05074 0.1057 0.0
C696 C 0.62501 0.07232 0.10439 0.0
C697 C 0.53655 0.02756 0.12838 0.0
C698 C 0.52259 0.99296 0.13026 0.0
C699 C 0.51567 0.04163 0.12891 0.0
C700 C 0.52923 0.07792 0.12593 0.0
C701 C 0.54741 0.09443 0.10478 0.0
C702 C 0.5605 0.12872 0.10217 0.0
C703 C 0.55533 0.14673 0.12051 0.0
C704 C 0.53693 0.13043 0.14144 0.0
C705 C 0.52383 0.09614 0.14416 0.0
H706 H 0.56548 0.17328 0.11846 0.0
H707 H 0.43749 0.83984 0.1415 0.0
H708 H 0.16305 0.32887 0.10801 0.0
H709 H 0.13778 0.31134 0.06721 0.0
H710 H 0.23349 0.33726 0.03673 0.0
H711 H 0.25863 0.35352 0.07723 0.0
H712 H 0.18498 0.3713 0.0232 0.0
H713 H 0.20418 0.27499 0.02699 0.0
H714 H 0.19456 0.22287 0.04637 0.0
H715 H 0.08903 0.181 0.03799 0.0
H716 H 0.09809 0.23323 0.01898 0.0
H717 H 0.18644 0.36391 0.89724 0.0
H718 H 0.19867 0.35084 0.9381 0.0
H719 H 0.09371 0.28703 0.95162 0.0
H720 H 0.08139 0.30047 0.91084 0.0
H721 H 0.13845 0.26628 0.9754 0.0
H722 H 0.11818 0.35756 0.96639 0.0
H723 H 0.12532 0.40892 0.94737 0.0
H724 H 0.22859 0.46058 0.96757 0.0
H725 H 0.2223 0.40917 0.98605 0.0
C726 C 0.1784 0.32934 0.09289 0.0
C727 C 0.21283 0.34233 0.09591 0.0
C728 C 0.16396 0.31954 0.06956 0.0
C729 C 0.1838 0.32266 0.04915 0.0
C730 C 0.21773 0.33413 0.05237 0.0
C731 C 0.23204 0.34358 0.07553 0.0
C732 C 0.17098 0.31952 0.02397 0.0
C733 C 0.17485 0.34839 0.01271 0.0
C734 C 0.15715 0.28943 0.01064 0.0
C735 C 0.15179 0.25818 0.02201 0.0
C736 C 0.17893 0.25487 0.02963 0.0
C737 C 0.17358 0.22526 0.04045 0.0
C738 C 0.14119 0.19869 0.04352 0.0
C739 C 0.1141 0.20164 0.03569 0.0
C740 C 0.11932 0.23124 0.02491 0.0
C741 C 0.16613 0.34581 0.90844 0.0
C742 C 0.13302 0.33298 0.901 0.0
C743 C 0.1731 0.33853 0.93181 0.0
C744 C 0.14702 0.31823 0.94786 0.0
C745 C 0.11411 0.30263 0.93944 0.0
C746 C 0.10711 0.31034 0.91622 0.0
C747 C 0.15372 0.31845 0.97437 0.0
C748 C 0.14842 0.28915 0.98591 0.0
C749 C 0.16607 0.3482 0.98813 0.0
C750 C 0.16987 0.37932 0.97728 0.0
C751 C 0.14252 0.37972 0.96649 0.0
C752 C 0.14641 0.40887 0.95583 0.0
C753 C 0.17742 0.43797 0.95618 0.0
C754 C 0.2046 0.43798 0.96724 0.0
C755 C 0.2009 0.40882 0.97777 0.0
H756 H 0.18037 0.46053 0.94796 0.0
H757 H 0.1371 0.17578 0.05188 0.0
H758 H 0.75214 0.07973 0.25578 0.0
H759 H 0.77796 0.09432 0.2962 0.0
H760 H 0.85624 0.18735 0.26771 0.0
H761 H 0.82954 0.17426 0.22761 0.0
H762 H 0.85862 0.12805 0.31202 0.0
H763 H 0.83695 0.2208 0.29023 0.0
H764 H 0.80179 0.23995 0.27021 0.0
H765 H 0.71699 0.16794 0.3111 0.0
H766 H 0.75161 0.14786 0.33089 0.0
H767 H 0.91785 0.23212 0.42057 0.0
H768 H 0.9054 0.20659 0.37974 0.0
H769 H 0.80168 0.14801 0.3994 0.0
H770 H 0.81412 0.17335 0.4403 0.0
H771 H 0.81505 0.19026 0.35858 0.0
H772 H 0.84035 0.10718 0.38689 0.0
H773 H 0.87443 0.08665 0.40675 0.0
H774 H 0.95282 0.14042 0.35458 0.0
H775 H 0.91928 0.16148 0.33451 0.0
C776 C 0.77516 0.10313 0.25789 0.0
C777 C 0.78865 0.12572 0.23821 0.0
C778 C 0.78997 0.11126 0.281 0.0
C779 C 0.8188 0.14193 0.28485 0.0
C780 C 0.83389 0.16354 0.26498 0.0
C781 C 0.81871 0.15572 0.24187 0.0
C782 C 0.82993 0.15287 0.31022 0.0
C783 C 0.84973 0.14221 0.32217 0.0
C784 C 0.8175 0.17051 0.32346 0.0
C785 C 0.79667 0.18245 0.31164 0.0
C786 C 0.8107 0.20876 0.29467 0.0
C787 C 0.79091 0.21982 0.28341 0.0
C788 C 0.75713 0.20506 0.28929 0.0
C789 C 0.74312 0.17924 0.30647 0.0
C790 C 0.76279 0.16796 0.31766 0.0
C791 C 0.89263 0.21283 0.41643 0.0
C792 C 0.86701 0.20427 0.43361 0.0
C793 C 0.88555 0.19831 0.39315 0.0
C794 C 0.85264 0.17544 0.38661 0.0
C795 C 0.82727 0.16546 0.40422 0.0
C796 C 0.83444 0.17963 0.42765 0.0
C797 C 0.84418 0.16581 0.3606 0.0
C798 C 0.82449 0.1765 0.34851 0.0
C799 C 0.85716 0.14863 0.34729 0.0
C800 C 0.87743 0.13614 0.35934 0.0
C801 C 0.86497 0.11485 0.37978 0.0
C802 C 0.88415 0.10304 0.39103 0.0
C803 C 0.9158 0.11229 0.38197 0.0
C804 C 0.9283 0.13329 0.36158 0.0
C805 C 0.90919 0.14511 0.35023 0.0
H806 H 0.93061 0.10313 0.39071 0.0
H807 H 0.74185 0.21371 0.28061 0.0
H808 H 0.65884 0.83019 0.77413 0.0
H809 H 0.67413 0.81958 0.73344 0.0
H810 H 0.67019 0.90393 0.70445 0.0
H811 H 0.65647 0.9157 0.74501 0.0
H812 H 0.62187 0.82439 0.68779 0.0
H813 H 0.73339 0.92264 0.69844 0.0
H814 H 0.78729 0.95358 0.71973 0.0
H815 H 0.80562 0.87264 0.7076 0.0
H816 H 0.75141 0.84089 0.6867 0.0
H817 H 0.63987 0.82773 0.56113 0.0
H818 H 0.65115 0.85174 0.60249 0.0
H819 H 0.69865 0.79509 0.62138 0.0
H820 H 0.68708 0.77084 0.58012 0.0
H821 H 0.72843 0.85834 0.64461 0.0
H822 H 0.62271 0.76147 0.63254 0.0
H823 H 0.56846 0.72556 0.61289 0.0
H824 H 0.53763 0.79644 0.63022 0.0
H825 H 0.59211 0.83326 0.64942 0.0
C826 C 0.6628 0.84747 0.75946 0.0
C827 C 0.6567 0.87403 0.76296 0.0
C828 C 0.67128 0.84117 0.73614 0.0
C829 C 0.67357 0.86121 0.7161 0.0
C830 C 0.66899 0.8885 0.71979 0.0
C831 C 0.66099 0.89505 0.74299 0.0
C832 C 0.67526 0.85097 0.69074 0.0
C833 C 0.64514 0.83205 0.67823 0.0
C834 C 0.70564 0.86012 0.67873 0.0
C835 C 0.73806 0.87914 0.69143 0.0
C836 C 0.74862 0.91119 0.70068 0.0
C837 C 0.77931 0.92894 0.71259 0.0
C838 C 0.7998 0.91502 0.71513 0.0
C839 C 0.78967 0.88334 0.70571 0.0
C840 C 0.75896 0.86546 0.69385 0.0
C841 C 0.65408 0.82165 0.57374 0.0
C842 C 0.66299 0.79779 0.56748 0.0
C843 C 0.66022 0.83508 0.59742 0.0
C844 C 0.67542 0.82487 0.61503 0.0
C845 C 0.68697 0.80332 0.60806 0.0
C846 C 0.68041 0.78954 0.58452 0.0
C847 C 0.67499 0.83285 0.64131 0.0
C848 C 0.70515 0.85085 0.65408 0.0
C849 C 0.64453 0.82238 0.65379 0.0
C850 C 0.61176 0.80042 0.64208 0.0
C851 C 0.60458 0.76966 0.63186 0.0
C852 C 0.57374 0.74909 0.62084 0.0
C853 C 0.54966 0.75878 0.62022 0.0
C854 C 0.55636 0.78904 0.63063 0.0
C855 C 0.58725 0.80979 0.64155 0.0
H856 H 0.52576 0.74278 0.61174 0.0
H857 H 0.82357 0.92882 0.72431 0.0
H858 H 0.82316 0.63767 0.1049 0.0
H859 H 0.84923 0.65266 0.06432 0.0
H860 H 0.8033 0.71244 0.05126 0.0
H861 H 0.77632 0.69639 0.09149 0.0
H862 H 0.78642 0.66715 0.0174 0.0
H863 H 0.89154 0.74563 0.05468 0.0
H864 H 0.93847 0.76318 0.0834 0.0
H865 H 0.9598 0.69054 0.05279 0.0
H866 H 0.91275 0.67218 0.02418 0.0
H867 H 0.83433 0.67299 0.89299 0.0
H868 H 0.83016 0.6941 0.93324 0.0
H869 H 0.8829 0.64895 0.96581 0.0
H870 H 0.88934 0.63029 0.92583 0.0
H871 H 0.90041 0.7011 0.98876 0.0
H872 H 0.79335 0.61179 0.96241 0.0
H873 H 0.74274 0.5828 0.93703 0.0
H874 H 0.72124 0.66144 0.95016 0.0
H875 H 0.77204 0.69115 0.97533 0.0
C876 C 0.8199 0.65517 0.09377 0.0
C877 C 0.79811 0.66623 0.10128 0.0
C878 C 0.83476 0.66374 0.07054 0.0
C879 C 0.82841 0.68389 0.05471 0.0
C880 C 0.80862 0.69694 0.06312 0.0
C881 C 0.79335 0.68792 0.08611 0.0
C882 C 0.8375 0.68666 0.0283 0.0
C883 C 0.81156 0.67541 0.01108 0.0
C884 C 0.87001 0.69617 0.02012 0.0
C885 C 0.89847 0.70746 0.03731 0.0
C886 C 0.9061 0.73326 0.05417 0.0
C887 C 0.93276 0.74336 0.07043 0.0
C888 C 0.95209 0.72797 0.06993 0.0
C889 C 0.94484 0.70246 0.05316 0.0
C890 C 0.9182 0.69224 0.0369 0.0
C891 C 0.84614 0.66868 0.90854 0.0
C892 C 0.8623 0.64999 0.90607 0.0
C893 C 0.84323 0.68029 0.93169 0.0
C894 C 0.85569 0.67267 0.95277 0.0
C895 C 0.87308 0.65535 0.94999 0.0
C896 C 0.87649 0.64437 0.92701 0.0
C897 C 0.84908 0.68029 0.97804 0.0
C898 C 0.87543 0.69365 0.99503 0.0
C899 C 0.81664 0.67118 0.98627 0.0
C900 C 0.78684 0.654 0.97034 0.0
C901 C 0.77808 0.62312 0.9596 0.0
C902 C 0.74931 0.60651 0.94531 0.0
C903 C 0.72888 0.62035 0.94188 0.0
C904 C 0.73718 0.65083 0.95273 0.0
C905 C 0.76599 0.6676 0.96697 0.0
H906 H 0.70654 0.60738 0.9309 0.0
H907 H 0.9727 0.73583 0.08253 0.0
H908 H 0.16692 0.76722 0.41698 0.0
H909 H 0.18088 0.7935 0.37687 0.0
H910 H 0.14029 0.85586 0.39776 0.0
H911 H 0.12556 0.82868 0.43841 0.0
H912 H 0.11476 0.82423 0.35469 0.0
H913 H 0.22511 0.89086 0.38591 0.0
H914 H 0.27625 0.90243 0.40791 0.0
H915 H 0.29045 0.83862 0.35834 0.0
H916 H 0.23927 0.82639 0.33617 0.0
H917 H 0.19736 0.90748 0.23565 0.0
H918 H 0.17541 0.89622 0.27783 0.0
H919 H 0.173 0.80211 0.27649 0.0
H920 H 0.1941 0.81296 0.23429 0.0
H921 H 0.22152 0.86176 0.31095 0.0
H922 H 0.10783 0.78705 0.28558 0.0
H923 H 0.05496 0.77102 0.26443 0.0
H924 H 0.04675 0.8472 0.30323 0.0
H925 H 0.09986 0.86397 0.3244 0.0
C926 C 0.16161 0.78705 0.41323 0.0
C927 C 0.14514 0.79595 0.43064 0.0
C928 C 0.16983 0.80226 0.39034 0.0
C929 C 0.16197 0.82693 0.38433 0.0
C930 C 0.14675 0.837 0.4021 0.0
C931 C 0.13857 0.82172 0.42528 0.0
C932 C 0.16661 0.83898 0.35863 0.0
C933 C 0.13836 0.83341 0.34525 0.0
C934 C 0.19721 0.85016 0.34619 0.0
C935 C 0.22824 0.85767 0.35939 0.0
C936 C 0.23904 0.87918 0.37976 0.0
C937 C 0.26807 0.88587 0.39225 0.0
C938 C 0.28657 0.87125 0.38454 0.0
C939 C 0.27613 0.84997 0.36427 0.0
C940 C 0.24716 0.84322 0.35169 0.0
C941 C 0.19036 0.88366 0.24398 0.0
C942 C 0.19686 0.86083 0.23183 0.0
C943 C 0.17803 0.87732 0.26803 0.0
C944 C 0.1726 0.84834 0.28014 0.0
C945 C 0.17668 0.82441 0.26728 0.0
C946 C 0.18853 0.83052 0.2432 0.0
C947 C 0.16955 0.84603 0.30713 0.0
C948 C 0.19821 0.85355 0.3206 0.0
C949 C 0.13937 0.8364 0.31955 0.0
C950 C 0.10815 0.8272 0.3062 0.0
C951 C 0.09507 0.80078 0.28928 0.0
C952 C 0.06496 0.79143 0.27739 0.0
C953 C 0.04759 0.8082 0.28238 0.0
C954 C 0.06029 0.83432 0.29931 0.0
C955 C 0.09039 0.84376 0.31125 0.0
H956 H 0.02424 0.80086 0.27322 0.0
H957 H 0.309 0.87643 0.39426 0.0
H958 H 0.3309 0.16845 0.77154 0.0
H959 H 0.31403 0.17625 0.73043 0.0
H960 H 0.32676 0.09621 0.70286 0.0
H961 H 0.3429 0.08787 0.74365 0.0
H962 H 0.37102 0.16928 0.68476 0.0
H963 H 0.25788 0.07856 0.69887 0.0
H964 H 0.20396 0.05141 0.72049 0.0
H965 H 0.1903 0.13419 0.70344 0.0
H966 H 0.24447 0.16212 0.68208 0.0
H967 H 0.35403 0.16675 0.55847 0.0
H968 H 0.34034 0.14221 0.59967 0.0
H969 H 0.29958 0.20505 0.6184 0.0
H970 H 0.31354 0.22978 0.57732 0.0
H971 H 0.26605 0.14242 0.64207 0.0
H972 H 0.37521 0.23374 0.62907 0.0
H973 H 0.43017 0.26635 0.60947 0.0
H974 H 0.45359 0.19025 0.6275 0.0
H975 H 0.39833 0.1567 0.64663 0.0
C976 C 0.32863 0.15157 0.75698 0.0
C977 C 0.33824 0.12755 0.76077 0.0
C978 C 0.31913 0.15615 0.7335 0.0
C979 C 0.31914 0.13672 0.71373 0.0
C980 C 0.32642 0.11127 0.71795 0.0
C981 C 0.33575 0.10665 0.74124 0.0
C982 C 0.31783 0.14643 0.68812 0.0
C983 C 0.34803 0.16306 0.67531 0.0
C984 C 0.28794 0.13941 0.67627 0.0
C985 C 0.25549 0.12266 0.68921 0.0
C986 C 0.24363 0.0912 0.70003 0.0
C987 C 0.21294 0.07561 0.71216 0.0
C988 C 0.19378 0.09113 0.71343 0.0
C989 C 0.20521 0.12224 0.7025 0.0
C990 C 0.2359 0.13795 0.69038 0.0
C991 C 0.34074 0.17413 0.57101 0.0
C992 C 0.33456 0.1999 0.56482 0.0
C993 C 0.33319 0.16036 0.59458 0.0
C994 C 0.31932 0.17215 0.61213 0.0
C995 C 0.31022 0.19559 0.60513 0.0
C996 C 0.31818 0.20967 0.58171 0.0
C997 C 0.31918 0.16408 0.63844 0.0
C998 C 0.28898 0.14835 0.65146 0.0
C999 C 0.34923 0.17253 0.65078 0.0
C1000 C 0.38233 0.1924 0.63891 0.0
C1001 C 0.39184 0.22368 0.62852 0.0
C1002 C 0.42309 0.24239 0.61754 0.0
C1003 C 0.44531 0.23032 0.61714 0.0
C1004 C 0.4363 0.1995 0.62773 0.0
C1005 C 0.40497 0.18059 0.63859 0.0
H1006 H 0.46955 0.24489 0.60871 0.0
H1007 H 0.17002 0.07901 0.72282 0.0
H1008 H 0.30349 0.25681 0.43439 0.0
H1009 H 0.27258 0.26541 0.40128 0.0
H1010 H 0.30045 0.21137 0.35137 0.0
H1011 H 0.3309 0.20248 0.38429 0.0
H1012 H 0.32222 0.28217 0.33912 0.0
H1013 H 0.22167 0.1772 0.3638 0.0
H1014 H 0.18137 0.14371 0.39609 0.0
H1015 H 0.15888 0.22189 0.40821 0.0
H1016 H 0.19918 0.25585 0.37609 0.0
H1017 H 0.25909 0.30648 0.22972 0.0
H1018 H 0.26986 0.27683 0.26246 0.0
H1019 H 0.20624 0.29356 0.31123 0.0
H1020 H 0.19446 0.32163 0.27838 0.0
H1021 H 0.2023 0.24174 0.32561 0.0
H1022 H 0.29357 0.34675 0.30747 0.0
H1023 H 0.33923 0.39392 0.28546 0.0
H1024 H 0.38569 0.33542 0.27136 0.0
H1025 H 0.34001 0.28765 0.29296 0.0
C1026 C 0.30137 0.24514 0.41675 0.0
C1027 C 0.31932 0.22869 0.41196 0.0
C1028 C 0.28419 0.25055 0.39772 0.0
C1029 C 0.28471 0.23944 0.37379 0.0
C1030 C 0.29997 0.22035 0.36964 0.0
C1031 C 0.31692 0.21485 0.38856 0.0
C1032 C 0.27253 0.25044 0.35254 0.0
C1033 C 0.29597 0.2729 0.33577 0.0
C1034 C 0.23859 0.24008 0.3492 0.0
C1035 C 0.21336 0.21898 0.3676 0.0
C1036 C 0.20807 0.18717 0.37336 0.0
C1037 C 0.18527 0.16814 0.39163 0.0
C1038 C 0.16758 0.18066 0.4042 0.0
C1039 C 0.17253 0.21218 0.39843 0.0
C1040 C 0.19526 0.23128 0.38015 0.0
C1041 C 0.24592 0.30207 0.24698 0.0
C1042 C 0.22581 0.31626 0.25145 0.0
C1043 C 0.25277 0.28589 0.26595 0.0
C1044 C 0.23988 0.28394 0.28973 0.0
C1045 C 0.21685 0.29485 0.29326 0.0
C1046 C 0.20979 0.31065 0.27433 0.0
C1047 C 0.25193 0.2729 0.31127 0.0
C1048 C 0.22859 0.25077 0.3284 0.0
C1049 C 0.28634 0.28529 0.31573 0.0
C1050 C 0.31297 0.31334 0.30148 0.0
C1051 C 0.3132 0.34371 0.29932 0.0
C1052 C 0.33918 0.37063 0.28701 0.0
C1053 C 0.36527 0.36762 0.27694 0.0
C1054 C 0.36539 0.33766 0.27909 0.0
C1055 C 0.33943 0.31064 0.29135 0.0
H1056 H 0.38549 0.38854 0.26757 0.0
H1057 H 0.15004 0.16594 0.41841 0.0
H1058 H 0.94154 0.29467 0.58191 0.0
H1059 H 0.97939 0.30521 0.61549 0.0
H1060 H 0.93875 0.19939 0.62522 0.0
H1061 H 0.89729 0.18898 0.59311 0.0
H1062 H 0.94248 0.22328 0.6665 0.0
H1063 H 0.02721 0.26421 0.60216 0.0
H1064 H 0.05468 0.29799 0.56538 0.0
H1065 H 0.07608 0.38694 0.60443 0.0
H1066 H 0.04864 0.35373 0.64136 0.0
H1067 H 0.10293 0.29422 0.74398 0.0
H1068 H 0.06389 0.26392 0.71032 0.0
H1069 H 0.01558 0.32157 0.72217 0.0
H1070 H 0.05266 0.34988 0.75657 0.0
H1071 H 0.05985 0.31476 0.67001 0.0
H1072 H 0.9616 0.27496 0.7261 0.0
H1073 H 0.93219 0.24545 0.76376 0.0
H1074 H 0.93492 0.15852 0.74007 0.0
H1075 H 0.96549 0.1881 0.70261 0.0
C1076 C 0.94158 0.27362 0.59055 0.0
C1077 C 0.91715 0.24102 0.58453 0.0
C1078 C 0.96354 0.27968 0.6098 0.0
C1079 C 0.96311 0.25323 0.62267 0.0
C1080 C 0.93996 0.22035 0.61553 0.0
C1081 C 0.91665 0.21427 0.59689 0.0
C1082 C 0.98395 0.26016 0.64521 0.0
C1083 C 0.96839 0.24276 0.66691 0.0
C1084 C 0.01766 0.28633 0.64637 0.0
C1085 C 0.03587 0.30641 0.62454 0.0
C1086 C 0.0379 0.29097 0.60292 0.0
C1087 C 0.05342 0.31003 0.58204 0.0
C1088 C 0.06711 0.34458 0.58258 0.0
C1089 C 0.06556 0.36019 0.60406 0.0
C1090 C 0.05016 0.34127 0.625 0.0
C1091 C 0.08259 0.29875 0.7403 0.0
C1092 C 0.07992 0.32341 0.75335 0.0
C1093 C 0.06061 0.28181 0.72096 0.0
C1094 C 0.03639 0.29002 0.71412 0.0
C1095 C 0.03309 0.31383 0.72775 0.0
C1096 C 0.05424 0.32991 0.74748 0.0
C1097 C 0.01817 0.27794 0.69066 0.0
C1098 C 0.03426 0.29457 0.66905 0.0
C1099 C 0.98492 0.25175 0.68959 0.0
C1100 C 0.9666 0.234 0.71196 0.0
C1101 C 0.95659 0.24982 0.72919 0.0
C1102 C 0.93959 0.23305 0.75044 0.0
C1103 C 0.93191 0.2002 0.7544 0.0
C1104 C 0.94112 0.18405 0.73706 0.0
C1105 C 0.95839 0.20085 0.71587 0.0
H1106 H 0.91865 0.1872 0.77083 0.0
H1107 H 0.07892 0.35924 0.56635 0.0
H1108 H 0.68642 0.8781 0.93671 0.0
H1109 H 0.71981 0.91784 0.96883 0.0
H1110 H 0.69451 0.98873 0.93899 0.0
H1111 H 0.66473 0.95055 0.90565 0.0
H1112 H 0.74496 0.02339 0.95916 0.0
H1113 H 0.6495 0.92924 0.99139 0.0
H1114 H 0.60896 0.87117 0.00173 0.0
H1115 H 0.68534 0.86036 0.03763 0.0
H1116 H 0.72634 0.91896 0.0281 0.0
H1117 H 0.70922 0.07957 0.06932 0.0
H1118 H 0.70141 0.04109 0.03609 0.0
H1119 H 0.79252 0.04375 0.05643 0.0
H1120 H 0.80103 0.08358 0.08977 0.0
H1121 H 0.72025 0.97431 0.04269 0.0
H1122 H 0.80672 0.08648 0.01448 0.0
H1123 H 0.82471 0.14607 0.01002 0.0
H1124 H 0.73676 0.12106 0.96835 0.0
H1125 H 0.71799 0.06134 0.97289 0.0
C1126 C 0.68961 0.90288 0.93643 0.0
C1127 C 0.67361 0.91156 0.91848 0.0
C1128 C 0.70797 0.92537 0.95516 0.0
C1129 C 0.70885 0.95613 0.9572 0.0
C1130 C 0.69459 0.96544 0.93819 0.0
C1131 C 0.67759 0.94359 0.9189 0.0
C1132 C 0.72204 0.97741 0.97978 0.0
C1133 C 0.73955 0.01233 0.9773 0.0
C1134 C 0.71491 0.96373 0.00387 0.0
C1135 C 0.69106 0.92816 0.0086 0.0
C1136 C 0.65773 0.91434 0.00123 0.0
C1137 C 0.63464 0.88137 0.00702 0.0
C1138 C 0.64459 0.86182 0.01996 0.0
C1139 C 0.67769 0.87543 0.02743 0.0
C1140 C 0.70085 0.90858 0.02196 0.0
C1141 C 0.72728 0.0714 0.06706 0.0
C1142 C 0.75565 0.08431 0.08209 0.0
C1143 C 0.72283 0.04957 0.04802 0.0
C1144 C 0.74654 0.03992 0.04369 0.0
C1145 C 0.77405 0.05113 0.05953 0.0
C1146 C 0.77879 0.07357 0.0786 0.0
C1147 C 0.74268 0.01948 0.02171 0.0
C1148 C 0.72663 0.9849 0.02438 0.0
C1149 C 0.74861 0.03339 0.99788 0.0
C1150 C 0.76096 0.06941 0.99407 0.0
C1151 C 0.7912 0.09368 0.00442 0.0
C1152 C 0.80152 0.12749 0.00188 0.0
C1153 C 0.78189 0.13734 0.98892 0.0
C1154 C 0.75197 0.11341 0.97835 0.0
C1155 C 0.74153 0.07959 0.98086 0.0
H1156 H 0.78986 0.16351 0.98706 0.0
H1157 H 0.62661 0.83625 0.02438 0.0
H1158 H 0.69511 0.74428 0.43535 0.0
H1159 H 0.72522 0.73479 0.40205 0.0
H1160 H 0.69386 0.78505 0.35137 0.0
H1161 H 0.66428 0.79494 0.38447 0.0
H1162 H 0.67368 0.71519 0.33983 0.0
H1163 H 0.77286 0.82097 0.36277 0.0
H1164 H 0.81353 0.85668 0.39405 0.0
H1165 H 0.83963 0.78134 0.40761 0.0
H1166 H 0.79891 0.74511 0.37653 0.0
H1167 H 0.73744 0.69179 0.23063 0.0
H1168 H 0.72887 0.72319 0.26326 0.0
H1169 H 0.78576 0.69883 0.31312 0.0
H1170 H 0.79472 0.66808 0.28055 0.0
H1171 H 0.79368 0.75556 0.32621 0.0
H1172 H 0.70254 0.6504 0.30825 0.0
H1173 H 0.65872 0.6043 0.28428 0.0
H1174 H 0.6124 0.66282 0.26985 0.0
H1175 H 0.65646 0.70968 0.29325 0.0
C1176 C 0.69624 0.75494 0.41744 0.0
C1177 C 0.67757 0.77061 0.41257 0.0
C1178 C 0.71296 0.74899 0.39831 0.0
C1179 C 0.71126 0.75874 0.37415 0.0
C1180 C 0.69522 0.77705 0.3698 0.0
C1181 C 0.67877 0.78315 0.38883 0.0
C1182 C 0.72341 0.74743 0.35302 0.0
C1183 C 0.69994 0.72448 0.33649 0.0
C1184 C 0.75744 0.75801 0.34958 0.0
C1185 C 0.78285 0.78037 0.36741 0.0
C1186 C 0.78729 0.81206 0.37245 0.0
C1187 C 0.81032 0.83237 0.39014 0.0
C1188 C 0.82914 0.82128 0.40282 0.0
C1189 C 0.82508 0.78992 0.39775 0.0
C1190 C 0.8021 0.76954 0.38006 0.0
C1191 C 0.7496 0.69469 0.24816 0.0
C1192 C 0.76681 0.67756 0.25305 0.0
C1193 C 0.74416 0.7121 0.26697 0.0
C1194 C 0.75583 0.71257 0.29092 0.0
C1195 C 0.77625 0.69868 0.29495 0.0
C1196 C 0.78159 0.68129 0.27622 0.0
C1197 C 0.74403 0.72417 0.31222 0.0
C1198 C 0.76741 0.74668 0.32908 0.0
C1199 C 0.70963 0.71183 0.31664 0.0
C1200 C 0.68324 0.68387 0.30217 0.0
C1201 C 0.6833 0.65368 0.29969 0.0
C1202 C 0.65837 0.62735 0.28624 0.0
C1203 C 0.63288 0.63069 0.27545 0.0
C1204 C 0.63226 0.66034 0.27813 0.0
C1205 C 0.65726 0.68683 0.29145 0.0
H1206 H 0.61355 0.61025 0.26509 0.0
H1207 H 0.84687 0.83699 0.41658 0.0
H1208 H 0.89641 0.70896 0.7456 0.0
H1209 H 0.93871 0.74207 0.71447 0.0
H1210 H 0.97989 0.67691 0.72201 0.0
H1211 H 0.94114 0.64757 0.75475 0.0
H1212 H 0.02572 0.72618 0.70973 0.0
H1213 H 0.91468 0.67202 0.67535 0.0
H1214 H 0.85697 0.66014 0.66962 0.0
H1215 H 0.89288 0.76259 0.65124 0.0
H1216 H 0.95077 0.77511 0.65713 0.0
H1217 H 0.04701 0.71414 0.5752 0.0
H1218 H 0.01107 0.70563 0.61063 0.0
H1219 H 0.08031 0.80434 0.63646 0.0
H1220 H 0.11754 0.81203 0.60181 0.0
H1221 H 0.98331 0.74722 0.6323 0.0
H1222 H 0.10101 0.78953 0.67073 0.0
H1223 H 0.15096 0.78386 0.67426 0.0
H1224 H 0.08931 0.67793 0.68143 0.0
H1225 H 0.03903 0.6829 0.67684 0.0
C1226 C 0.91579 0.70317 0.74139 0.0
C1227 C 0.91602 0.67619 0.75282 0.0
C1228 C 0.93943 0.72143 0.72309 0.0
C1229 C 0.96217 0.71156 0.71495 0.0
C1230 C 0.9632 0.68569 0.72764 0.0
C1231 C 0.94094 0.66878 0.74656 0.0
C1232 C 0.98366 0.7261 0.69258 0.0
C1233 C 0.01608 0.73076 0.69295 0.0
C1234 C 0.97173 0.73203 0.67019 0.0
C1235 C 0.93696 0.72459 0.66702 0.0
C1236 C 0.91022 0.69204 0.67027 0.0
C1237 C 0.8775 0.68519 0.66697 0.0
C1238 C 0.87126 0.71063 0.66017 0.0
C1239 C 0.89774 0.74294 0.6566 0.0
C1240 C 0.93049 0.74993 0.65992 0.0
C1241 C 0.05386 0.73458 0.58787 0.0
C1242 C 0.08469 0.76406 0.58551 0.0
C1243 C 0.03357 0.72947 0.60832 0.0
C1244 C 0.04356 0.75397 0.62655 0.0
C1245 C 0.07273 0.78471 0.62299 0.0
C1246 C 0.09355 0.78946 0.60289 0.0
C1247 C 0.02441 0.74648 0.64981 0.0
C1248 C 0.99262 0.74305 0.64941 0.0
C1249 C 0.03589 0.73938 0.67176 0.0
C1250 C 0.06632 0.73656 0.67268 0.0
C1251 C 0.09812 0.76498 0.67226 0.0
C1252 C 0.12649 0.76189 0.67461 0.0
C1253 C 0.12332 0.73057 0.67797 0.0
C1254 C 0.09176 0.70217 0.67866 0.0
C1255 C 0.06335 0.7051 0.676 0.0
H1256 H 0.14532 0.7284 0.68029 0.0
H1257 H 0.84592 0.70527 0.65759 0.0
H1258 H 0.21659 0.87426 0.04612 0.0
H1259 H 0.23227 0.91689 0.01483 0.0
H1260 H 0.26535 0.99241 0.07078 0.0
H1261 H 0.25155 0.94974 0.10264 0.0
H1262 H 0.21705 0.98419 0.02089 0.0
H1263 H 0.32236 0.00404 0.05342 0.0
H1264 H 0.36295 0.98827 0.0678 0.0
H1265 H 0.36214 0.94736 0.99697 0.0
H1266 H 0.32066 0.96189 0.98237 0.0
H1267 H 0.30786 0.11999 0.93701 0.0
H1268 H 0.28341 0.08175 0.97164 0.0
H1269 H 0.2918 0.0062 0.9314 0.0
H1270 H 0.31585 0.04437 0.89657 0.0
H1271 H 0.32313 0.01929 0.97671 0.0
H1272 H 0.21667 0.99303 0.94514 0.0
H1273 H 0.17436 0.00526 0.92884 0.0
H1274 H 0.17721 0.05541 0.99586 0.0
H1275 H 0.21989 0.0438 0.01244 0.0
C1276 C 0.22647 0.89982 0.052 0.0
C1277 C 0.2331 0.90854 0.07699 0.0
C1278 C 0.23577 0.92418 0.03399 0.0
C1279 C 0.25089 0.95776 0.0405 0.0
C1280 C 0.25434 0.96654 0.06546 0.0
C1281 C 0.24582 0.94208 0.08365 0.0
C1282 C 0.2628 0.98301 0.02071 0.0
C1283 C 0.24064 0.99263 0.0116 0.0
C1284 C 0.29305 0.99274 0.00807 0.0
C1285 C 0.31768 0.98342 0.01695 0.0
C1286 C 0.3302 0.99102 0.04105 0.0
C1287 C 0.35354 0.98245 0.04921 0.0
C1288 C 0.36497 0.96665 0.03335 0.0
C1289 C 0.35313 0.95945 0.00928 0.0
C1290 C 0.32964 0.9678 0.00107 0.0
C1291 C 0.30256 0.09456 0.93499 0.0
C1292 C 0.3131 0.08495 0.91387 0.0
C1293 C 0.28919 0.07289 0.95498 0.0
C1294 C 0.28625 0.04126 0.95428 0.0
C1295 C 0.29407 0.03058 0.93242 0.0
C1296 C 0.307 0.05212 0.91226 0.0
C1297 C 0.27724 0.02044 0.97686 0.0
C1298 C 0.29984 0.0114 0.98629 0.0
C1299 C 0.24732 0.01091 0.98973 0.0
C1300 C 0.22167 0.01786 0.97991 0.0
C1301 C 0.20845 0.0069 0.95632 0.0
C1302 C 0.18437 0.01367 0.94705 0.0
C1303 C 0.17316 0.03118 0.96128 0.0
C1304 C 0.18595 0.04188 0.98484 0.0
C1305 C 0.21006 0.03519 0.9942 0.0
H1306 H 0.15451 0.0364 0.95407 0.0
H1307 H 0.38309 0.96011 0.03968 0.0
H1308 H 0.33141 0.47138 0.28763 0.0
H1309 H 0.37812 0.52301 0.30133 0.0
H1310 H 0.31267 0.54301 0.34542 0.0
H1311 H 0.2645 0.49142 0.33017 0.0
H1312 H 0.35451 0.5955 0.31615 0.0
H1313 H 0.36897 0.52062 0.37177 0.0
H1314 H 0.36989 0.46818 0.3769 0.0
H1315 H 0.45247 0.50334 0.32712 0.0
H1316 H 0.45194 0.55581 0.32154 0.0
H1317 H 0.48837 0.73349 0.37551 0.0
H1318 H 0.43871 0.68661 0.35828 0.0
H1319 H 0.49939 0.65122 0.32413 0.0
H1320 H 0.54872 0.6966 0.3434 0.0
H1321 H 0.45804 0.60554 0.35063 0.0
H1322 H 0.44637 0.67339 0.291 0.0
H1323 H 0.44452 0.72191 0.27448 0.0
H1324 H 0.36008 0.69887 0.32003 0.0
H1325 H 0.36168 0.6504 0.33707 0.0
C1326 C 0.32674 0.48642 0.3005 0.0
C1327 C 0.2942 0.47756 0.30765 0.0
C1328 C 0.35367 0.51587 0.30851 0.0
C1329 C 0.34895 0.53658 0.32469 0.0
C1330 C 0.3167 0.52712 0.33299 0.0
C1331 C 0.28934 0.49762 0.32451 0.0
C1332 C 0.37774 0.56917 0.33114 0.0
C1333 C 0.37696 0.59791 0.32427 0.0
C1334 C 0.4075 0.57193 0.34039 0.0
C1335 C 0.41035 0.54214 0.34621 0.0
C1336 C 0.38754 0.5173 0.36213 0.0
C1337 C 0.38791 0.48752 0.36503 0.0
C1338 C 0.41105 0.48239 0.35218 0.0
C1339 C 0.43452 0.50736 0.337 0.0
C1340 C 0.43431 0.53718 0.33406 0.0
C1341 C 0.49119 0.71649 0.36347 0.0
C1342 C 0.52204 0.71816 0.36096 0.0
C1343 C 0.46274 0.68962 0.35355 0.0
C1344 C 0.46519 0.66499 0.34018 0.0
C1345 C 0.49682 0.66956 0.33475 0.0
C1346 C 0.52505 0.69575 0.34539 0.0
C1347 C 0.43512 0.63233 0.33548 0.0
C1348 C 0.4356 0.60349 0.34279 0.0
C1349 C 0.40554 0.62943 0.32572 0.0
C1350 C 0.40435 0.65845 0.31549 0.0
C1351 C 0.42756 0.67881 0.29764 0.0
C1352 C 0.42653 0.70628 0.28815 0.0
C1353 C 0.40225 0.71352 0.29625 0.0
C1354 C 0.37889 0.69325 0.3138 0.0
C1355 C 0.37982 0.66574 0.32335 0.0
H1356 H 0.4015 0.73481 0.28888 0.0
H1357 H 0.41061 0.45896 0.35376 0.0
H1358 H 0.85714 0.31093 0.65243 0.0
H1359 H 0.85349 0.35796 0.6686 0.0
H1360 H 0.74898 0.3083 0.65043 0.0
H1361 H 0.75277 0.26106 0.63395 0.0
H1362 H 0.78546 0.3689 0.62762 0.0
H1363 H 0.77604 0.32644 0.71014 0.0
H1364 H 0.79332 0.30442 0.74483 0.0
H1365 H 0.88826 0.39432 0.74683 0.0
H1366 H 0.87177 0.41667 0.71191 0.0
H1367 H 0.76194 0.4984 0.68225 0.0
H1368 H 0.75918 0.44746 0.66647 0.0
H1369 H 0.86455 0.49005 0.67896 0.0
H1370 H 0.86756 0.54089 0.6942 0.0
H1371 H 0.8248 0.43175 0.70563 0.0
H1372 H 0.84271 0.47307 0.62487 0.0
H1373 H 0.83481 0.49886 0.58788 0.0
H1374 H 0.73553 0.41631 0.57982 0.0
H1375 H 0.74266 0.39023 0.61707 0.0
C1376 C 0.83303 0.30936 0.65307 0.0
C1377 C 0.80518 0.28248 0.64216 0.0
C1378 C 0.83098 0.3363 0.66218 0.0
C1379 C 0.80098 0.33664 0.66061 0.0
C1380 C 0.77233 0.3084 0.65179 0.0
C1381 C 0.77437 0.28126 0.64275 0.0
C1382 C 0.80102 0.36813 0.66482 0.0
C1383 C 0.79316 0.38225 0.6449 0.0
C1384 C 0.81304 0.38634 0.68688 0.0
C1385 C 0.82269 0.37315 0.70828 0.0
C1386 C 0.80066 0.34144 0.71788 0.0
C1387 C 0.81032 0.3289 0.7376 0.0
C1388 C 0.84188 0.34792 0.748 0.0
C1389 C 0.86382 0.37959 0.73876 0.0
C1390 C 0.8543 0.39223 0.71902 0.0
C1391 C 0.7847 0.49742 0.68048 0.0
C1392 C 0.81486 0.52326 0.68963 0.0
C1393 C 0.78308 0.46828 0.67171 0.0
C1394 C 0.81158 0.46496 0.67207 0.0
C1395 C 0.84227 0.4921 0.67884 0.0
C1396 C 0.84395 0.52114 0.68737 0.0
C1397 C 0.80873 0.43212 0.66859 0.0
C1398 C 0.81638 0.418 0.68854 0.0
C1399 C 0.79762 0.41441 0.64635 0.0
C1400 C 0.79301 0.42994 0.624 0.0
C1401 C 0.81902 0.4606 0.61541 0.0
C1402 C 0.81473 0.47524 0.59435 0.0
C1403 C 0.78462 0.45932 0.58158 0.0
C1404 C 0.7588 0.42866 0.58979 0.0
C1405 C 0.76295 0.41393 0.61088 0.0
H1406 H 0.78134 0.47068 0.56527 0.0
H1407 H 0.84931 0.33814 0.76324 0.0
H1408 H 0.26815 0.77899 0.00626 0.0
H1409 H 0.31409 0.77463 0.98745 0.0
H1410 H 0.38486 0.86431 0.02535 0.0
H1411 H 0.34003 0.87034 0.04169 0.0
H1412 H 0.41308 0.86217 0.9889 0.0
H1413 H 0.34627 0.77691 0.05011 0.0
H1414 H 0.29387 0.72914 0.0651 0.0
H1415 H 0.28931 0.67298 0.00105 0.0
H1416 H 0.34154 0.72055 0.98563 0.0
H1417 H 0.55024 0.84367 0.00264 0.0
H1418 H 0.49952 0.83916 0.02004 0.0
H1419 H 0.44043 0.75907 0.96984 0.0
H1420 H 0.49074 0.76247 0.9534 0.0
H1421 H 0.40523 0.75429 0.00948 0.0
H1422 H 0.48229 0.84516 0.95418 0.0
H1423 H 0.53672 0.89506 0.94578 0.0
H1424 H 0.52296 0.94543 0.00681 0.0
H1425 H 0.46932 0.89534 0.01642 0.0
C1426 C 0.29359 0.79832 0.00962 0.0
C1427 C 0.30069 0.82429 0.02604 0.0
C1428 C 0.3198 0.79563 0.99922 0.0
C1429 C 0.35294 0.81827 0.00592 0.0
C1430 C 0.35967 0.84616 0.02006 0.0
C1431 C 0.33385 0.8494 0.02967 0.0
C1432 C 0.38064 0.81179 0.0011 0.0
C1433 C 0.41132 0.83859 0.99355 0.0
C1434 C 0.37851 0.78106 0.00711 0.0
C1435 C 0.34759 0.75228 0.01666 0.0
C1436 C 0.33405 0.75435 0.03926 0.0
C1437 C 0.30438 0.72735 0.0478 0.0
C1438 C 0.28825 0.69807 0.03401 0.0
C1439 C 0.30182 0.69568 0.0117 0.0
C1440 C 0.33145 0.72263 0.00306 0.0
C1441 C 0.5264 0.82379 0.99642 0.0
C1442 C 0.52426 0.80398 0.97627 0.0
C1443 C 0.49742 0.82153 0.00612 0.0
C1444 C 0.46645 0.79986 0.99535 0.0
C1445 C 0.46414 0.77646 0.97805 0.0
C1446 C 0.49293 0.77842 0.96865 0.0
C1447 C 0.43775 0.80509 0.99838 0.0
C1448 C 0.40691 0.7779 0.00507 0.0
C1449 C 0.44003 0.83597 0.99259 0.0
C1450 C 0.47193 0.8663 0.98618 0.0
C1451 C 0.49093 0.86679 0.96588 0.0
C1452 C 0.52165 0.89511 0.96092 0.0
C1453 C 0.53316 0.92339 0.97565 0.0
C1454 C 0.51404 0.92347 0.99544 0.0
C1455 C 0.48358 0.89506 0.00074 0.0
H1456 H 0.55698 0.94519 0.97178 0.0
H1457 H 0.26527 0.6772 0.04064 0.0
H1458 H 0.67588 0.54247 0.3105 0.0
H1459 H 0.63049 0.49221 0.32803 0.0
H1460 H 0.69227 0.44684 0.32835 0.0
H1461 H 0.73772 0.4973 0.30958 0.0
H1462 H 0.63761 0.41128 0.30239 0.0
H1463 H 0.6587 0.46251 0.38258 0.0
H1464 H 0.66926 0.50744 0.41171 0.0
H1465 H 0.57533 0.49889 0.39321 0.0
H1466 H 0.56441 0.45431 0.36368 0.0
H1467 H 0.50585 0.26452 0.36176 0.0
H1468 H 0.5569 0.31169 0.34537 0.0
H1469 H 0.5047 0.36568 0.33348 0.0
H1470 H 0.45378 0.31867 0.3496 0.0
H1471 H 0.55638 0.39497 0.36775 0.0
H1472 H 0.5362 0.35312 0.28656 0.0
H1473 H 0.52204 0.31133 0.25396 0.0
H1474 H 0.60971 0.30593 0.27057 0.0
H1475 H 0.62415 0.3474 0.30358 0.0
C1476 C 0.68025 0.5223 0.31535 0.0
C1477 C 0.71004 0.52347 0.3087 0.0
C1478 C 0.65428 0.49354 0.32545 0.0
C1479 C 0.65794 0.4657 0.32955 0.0
C1480 C 0.68901 0.46812 0.32531 0.0
C1481 C 0.71507 0.497 0.31493 0.0
C1482 C 0.62797 0.43305 0.33418 0.0
C1483 C 0.62031 0.40739 0.31714 0.0
C1484 C 0.60454 0.42869 0.35258 0.0
C1485 C 0.6108 0.45505 0.37083 0.0
C1486 C 0.64035 0.47028 0.38464 0.0
C1487 C 0.6464 0.49572 0.40123 0.0
C1488 C 0.623 0.50603 0.40429 0.0
C1489 C 0.59344 0.49087 0.39083 0.0
C1490 C 0.58728 0.46546 0.3742 0.0
C1491 C 0.50489 0.28569 0.35433 0.0
C1492 C 0.47622 0.28832 0.35708 0.0
C1493 C 0.53408 0.31272 0.34524 0.0
C1494 C 0.5345 0.34225 0.3388 0.0
C1495 C 0.50479 0.34317 0.33867 0.0
C1496 C 0.47574 0.31624 0.34764 0.0
C1497 C 0.56639 0.3735 0.33609 0.0
C1498 C 0.57416 0.39877 0.35337 0.0
C1499 C 0.58948 0.37788 0.31761 0.0
C1500 C 0.58105 0.35304 0.29775 0.0
C1501 C 0.5523 0.34278 0.28344 0.0
C1502 C 0.54425 0.31921 0.26485 0.0
C1503 C 0.5649 0.30589 0.26025 0.0
C1504 C 0.5937 0.31623 0.27419 0.0
C1505 C 0.60185 0.33978 0.29283 0.0
H1506 H 0.55862 0.28764 0.24585 0.0
H1507 H 0.62777 0.52576 0.41711 0.0
H1508 H 0.12931 0.46328 0.70477 0.0
H1509 H 0.13453 0.51281 0.68591 0.0
H1510 H 0.23208 0.53878 0.65873 0.0
H1511 H 0.2275 0.48922 0.67901 0.0
H1512 H 0.23337 0.58809 0.68467 0.0
H1513 H 0.16161 0.51683 0.61951 0.0
H1514 H 0.11142 0.46702 0.60401 0.0
H1515 H 0.04925 0.4977 0.64072 0.0
H1516 H 0.09888 0.5474 0.65665 0.0
H1517 H 0.24139 0.73248 0.62857 0.0
H1518 H 0.24498 0.68438 0.64283 0.0
H1519 H 0.14264 0.63735 0.66697 0.0
H1520 H 0.13845 0.68406 0.65091 0.0
H1521 H 0.14858 0.5991 0.63681 0.0
H1522 H 0.21069 0.66054 0.70687 0.0
H1523 H 0.25542 0.70783 0.72938 0.0
H1524 H 0.32877 0.69356 0.69179 0.0
H1525 H 0.28445 0.64643 0.66878 0.0
C1526 C 0.15159 0.47906 0.69424 0.0
C1527 C 0.17821 0.47275 0.69353 0.0
C1528 C 0.15439 0.50727 0.68322 0.0
C1529 C 0.18354 0.52938 0.67065 0.0
C1530 C 0.2093 0.52186 0.66828 0.0
C1531 C 0.2066 0.49352 0.67963 0.0
C1532 C 0.18842 0.56218 0.66326 0.0
C1533 C 0.21533 0.59067 0.67363 0.0
C1534 C 0.16393 0.56522 0.64988 0.0
C1535 C 0.13409 0.53591 0.63931 0.0
C1536 C 0.13725 0.51297 0.62428 0.0
C1537 C 0.10887 0.48472 0.61543 0.0
C1538 C 0.07721 0.4792 0.62143 0.0
C1539 C 0.0738 0.50204 0.63607 0.0
C1540 C 0.10205 0.5303 0.64494 0.0
C1541 C 0.22025 0.71255 0.638 0.0
C1542 C 0.18974 0.71194 0.63895 0.0
C1543 C 0.22222 0.68496 0.64603 0.0
C1544 C 0.19392 0.65705 0.6557 0.0
C1545 C 0.16466 0.65841 0.6593 0.0
C1546 C 0.16243 0.68539 0.65061 0.0
C1547 C 0.19302 0.6249 0.65881 0.0
C1548 C 0.16698 0.59666 0.64749 0.0
C1549 C 0.21755 0.6219 0.67206 0.0
C1550 C 0.24427 0.65021 0.68587 0.0
C1551 C 0.23637 0.66767 0.70323 0.0
C1552 C 0.26165 0.6944 0.71612 0.0
C1553 C 0.29493 0.70376 0.71196 0.0
C1554 C 0.30298 0.68632 0.69496 0.0
C1555 C 0.27779 0.65958 0.682 0.0
H1556 H 0.31446 0.72447 0.72195 0.0
H1557 H 0.05527 0.4572 0.61483 0.0
H1558 H 0.47544 0.14971 0.93922 0.0
H1559 H 0.52608 0.15068 0.95216 0.0
H1560 H 0.52835 0.20328 0.01815 0.0
H1561 H 0.47774 0.20306 0.00503 0.0
H1562 H 0.58762 0.23252 0.99494 0.0
H1563 H 0.50964 0.12173 0.02256 0.0
H1564 H 0.46096 0.06538 0.01805 0.0
H1565 H 0.50796 0.04646 0.95716 0.0
H1566 H 0.55707 0.10249 0.96147 0.0
H1567 H 0.70867 0.21483 0.05884 0.0
H1568 H 0.66343 0.21919 0.04146 0.0
H1569 H 0.65703 0.15536 0.98144 0.0
H1570 H 0.7011 0.14836 0.0003 0.0
H1571 H 0.59981 0.13238 0.0004 0.0
H1572 H 0.68109 0.2445 0.97594 0.0
H1573 H 0.72882 0.30091 0.98253 0.0
H1574 H 0.67481 0.31831 0.03912 0.0
H1575 H 0.62689 0.26195 0.03302 0.0
C1576 C 0.48656 0.16137 0.95656 0.0
C1577 C 0.4728 0.17658 0.97104 0.0
C1578 C 0.51536 0.16165 0.96401 0.0
C1579 C 0.53072 0.1768 0.98619 0.0
C1580 C 0.51674 0.19144 0.00097 0.0
C1581 C 0.48787 0.19125 0.99348 0.0
C1582 C 0.56249 0.17902 0.99306 0.0
C1583 C 0.59035 0.21067 0.99643 0.0
C1584 C 0.56595 0.15049 0.99438 0.0
C1585 C 0.53692 0.11636 0.99224 0.0
C1586 C 0.50958 0.10551 0.00821 0.0
C1587 C 0.48197 0.07359 0.00575 0.0
C1588 C 0.4814 0.05231 0.98735 0.0
C1589 C 0.50854 0.06284 0.9715 0.0
C1590 C 0.53632 0.09463 0.97401 0.0
C1591 C 0.69842 0.20233 0.04159 0.0
C1592 C 0.7081 0.1807 0.03118 0.0
C1593 C 0.67254 0.20518 0.03146 0.0
C1594 C 0.65685 0.18788 0.00996 0.0
C1595 C 0.66868 0.16883 0.99814 0.0
C1596 C 0.694 0.16503 0.00879 0.0
C1597 C 0.62549 0.1861 0.00202 0.0
C1598 C 0.59745 0.15441 0.9986 0.0
C1599 C 0.62188 0.21467 0.00084 0.0
C1600 C 0.65042 0.24894 0.00404 0.0
C1601 C 0.67942 0.26034 0.98981 0.0
C1602 C 0.70651 0.29231 0.99346 0.0
C1603 C 0.70486 0.31316 0.01124 0.0
C1604 C 0.67605 0.30216 0.02533 0.0
C1605 C 0.64888 0.27024 0.02173 0.0
H1606 H 0.72589 0.33786 0.01408 0.0
H1607 H 0.45993 0.02768 0.98537 0.0
H1608 H 0.23293 0.7442 0.18511 0.0
H1609 H 0.22259 0.68928 0.19594 0.0
H1610 H 0.22658 0.66814 0.11906 0.0
H1611 H 0.22568 0.71779 0.10843 0.0
H1612 H 0.19567 0.6166 0.13284 0.0
H1613 H 0.29677 0.6976 0.17435 0.0
H1614 H 0.33084 0.74408 0.20251 0.0
H1615 H 0.26807 0.6884 0.2629 0.0
H1616 H 0.23351 0.64173 0.23507 0.0
H1617 H 0.25446 0.50154 0.15884 0.0
H1618 H 0.25366 0.55271 0.14864 0.0
H1619 H 0.19169 0.53833 0.21176 0.0
H1620 H 0.19178 0.48678 0.22165 0.0
H1621 H 0.25092 0.60458 0.20667 0.0
H1622 H 0.15705 0.52082 0.1569 0.0
H1623 H 0.13601 0.47727 0.12496 0.0
H1624 H 0.20676 0.54671 0.07345 0.0
H1625 H 0.22844 0.59052 0.10515 0.0
C1626 C 0.22985 0.72725 0.17044 0.0
C1627 C 0.23104 0.73643 0.14569 0.0
C1628 C 0.22549 0.69598 0.17675 0.0
C1629 C 0.22579 0.67437 0.15861 0.0
C1630 C 0.22637 0.68352 0.1339 0.0
C1631 C 0.22717 0.71305 0.12767 0.0
C1632 C 0.2252 0.64235 0.16484 0.0
C1633 C 0.20874 0.61496 0.14875 0.0
C1634 C 0.24132 0.63849 0.18583 0.0
C1635 C 0.26241 0.66634 0.2026 0.0
C1636 C 0.29023 0.69533 0.19363 0.0
C1637 C 0.3096 0.7217 0.20953 0.0
C1638 C 0.30157 0.71922 0.23446 0.0
C1639 C 0.27424 0.6903 0.24358 0.0
C1640 C 0.25479 0.66388 0.22777 0.0
C1641 C 0.23999 0.50888 0.17015 0.0
C1642 C 0.22294 0.49012 0.19092 0.0
C1643 C 0.23985 0.53826 0.16447 0.0
C1644 C 0.22273 0.54935 0.17953 0.0
C1645 C 0.2052 0.5303 0.2 0.0
C1646 C 0.20508 0.50081 0.20552 0.0
C1647 C 0.22307 0.58088 0.1741 0.0
C1648 C 0.2389 0.60752 0.19055 0.0
C1649 C 0.20861 0.58498 0.15261 0.0
C1650 C 0.19439 0.55888 0.13341 0.0
C1651 C 0.16811 0.52676 0.13877 0.0
C1652 C 0.1561 0.50204 0.12071 0.0
C1653 C 0.17006 0.50921 0.0972 0.0
C1654 C 0.19595 0.54118 0.09165 0.0
C1655 C 0.20805 0.56597 0.10964 0.0
H1656 H 0.16079 0.49001 0.08327 0.0
H1657 H 0.31655 0.73968 0.24672 0.0
H1658 H 0.5076 0.22417 0.43628 0.0
H1659 H 0.55937 0.2271 0.44667 0.0
H1660 H 0.53896 0.23057 0.52368 0.0
H1661 H 0.49129 0.23646 0.5127 0.0
H1662 H 0.59744 0.26302 0.52159 0.0
H1663 H 0.5305 0.1548 0.4836 0.0
H1664 H 0.49635 0.11598 0.45082 0.0
H1665 H 0.57782 0.16472 0.40019 0.0
H1666 H 0.6123 0.20396 0.43258 0.0
H1667 H 0.70757 0.20187 0.5556 0.0
H1668 H 0.65657 0.20254 0.54497 0.0
H1669 H 0.70207 0.25413 0.47764 0.0
H1670 H 0.75388 0.25525 0.48885 0.0
H1671 H 0.63274 0.1935 0.4757 0.0
H1672 H 0.69959 0.29905 0.51689 0.0
H1673 H 0.73274 0.33441 0.55143 0.0
H1674 H 0.64834 0.28399 0.59931 0.0
H1675 H 0.61483 0.24789 0.56515 0.0
C1676 C 0.51448 0.22662 0.45543 0.0
C1677 C 0.49505 0.23056 0.4735 0.0
C1678 C 0.54383 0.22697 0.46152 0.0
C1679 C 0.55299 0.22744 0.48616 0.0
C1680 C 0.5328 0.22994 0.50446 0.0
C1681 C 0.50472 0.23236 0.49818 0.0
C1682 C 0.58402 0.22652 0.49269 0.0
C1683 C 0.60448 0.24714 0.51176 0.0
C1684 C 0.59442 0.20658 0.47973 0.0
C1685 C 0.57388 0.18239 0.46048 0.0
C1686 C 0.54109 0.15721 0.46547 0.0
C1687 C 0.52167 0.13517 0.44695 0.0
C1688 C 0.53489 0.13792 0.42343 0.0
C1689 C 0.5676 0.16261 0.41841 0.0
C1690 C 0.58711 0.1847 0.43684 0.0
C1691 C 0.70663 0.21322 0.53847 0.0
C1692 C 0.73458 0.2282 0.52293 0.0
C1693 C 0.67757 0.21367 0.53249 0.0
C1694 C 0.67573 0.22859 0.51064 0.0
C1695 C 0.70311 0.2425 0.49461 0.0
C1696 C 0.7325 0.24271 0.50085 0.0
C1697 C 0.64502 0.22934 0.50448 0.0
C1698 C 0.62496 0.20883 0.48553 0.0
C1699 C 0.63461 0.24857 0.51796 0.0
C1700 C 0.65478 0.27046 0.53848 0.0
C1701 C 0.68818 0.29522 0.53483 0.0
C1702 C 0.70703 0.31547 0.55434 0.0
C1703 C 0.69269 0.31139 0.57757 0.0
C1704 C 0.65944 0.2871 0.58132 0.0
C1705 C 0.64051 0.26675 0.56188 0.0
H1706 H 0.70732 0.32711 0.59264 0.0
H1707 H 0.51979 0.12089 0.40911 0.0
H1708 H 0.23977 0.51529 0.833 0.0
H1709 H 0.29197 0.56749 0.84092 0.0
H1710 H 0.34649 0.52947 0.8013 0.0
H1711 H 0.29425 0.47754 0.79307 0.0
H1712 H 0.37522 0.56101 0.84773 0.0
H1713 H 0.33088 0.58075 0.77312 0.0
H1714 H 0.28885 0.5844 0.74772 0.0
H1715 H 0.28952 0.65694 0.79705 0.0
H1716 H 0.33116 0.65331 0.82299 0.0
H1717 H 0.53063 0.70997 0.83704 0.0
H1718 H 0.47902 0.65829 0.8267 0.0
H1719 H 0.42128 0.70242 0.85141 0.0
H1720 H 0.47266 0.75397 0.86111 0.0
H1721 H 0.39355 0.6674 0.81229 0.0
H1722 H 0.43227 0.64821 0.88784 0.0
H1723 H 0.47112 0.64518 0.91716 0.0
H1724 H 0.4771 0.57272 0.87167 0.0
H1725 H 0.43859 0.57565 0.84189 0.0
C1726 C 0.26305 0.51799 0.82642 0.0
C1727 C 0.26332 0.49242 0.81281 0.0
C1728 C 0.29271 0.54781 0.83072 0.0
C1729 C 0.32304 0.55237 0.82156 0.0
C1730 C 0.32336 0.5264 0.80855 0.0
C1731 C 0.29366 0.49678 0.80398 0.0
C1732 C 0.35444 0.58429 0.82534 0.0
C1733 C 0.37949 0.58422 0.83969 0.0
C1734 C 0.35938 0.61472 0.81558 0.0
C1735 C 0.33391 0.61647 0.80016 0.0
C1736 C 0.32179 0.59718 0.77872 0.0
C1737 C 0.29809 0.59932 0.76418 0.0
C1738 C 0.28648 0.62085 0.77078 0.0
C1739 C 0.29851 0.64025 0.79196 0.0
C1740 C 0.32216 0.63816 0.80659 0.0
C1741 C 0.50686 0.70865 0.83976 0.0
C1742 C 0.50542 0.73571 0.84983 0.0
C1743 C 0.47741 0.67911 0.83412 0.0
C1744 C 0.44616 0.67621 0.83865 0.0
C1745 C 0.44496 0.70391 0.84777 0.0
C1746 C 0.47429 0.73333 0.85332 0.0
C1747 C 0.41466 0.6442 0.83456 0.0
C1748 C 0.38947 0.64422 0.82024 0.0
C1749 C 0.40919 0.61383 0.84489 0.0
C1750 C 0.43289 0.61248 0.86247 0.0
C1751 C 0.44216 0.6319 0.88395 0.0
C1752 C 0.46405 0.63014 0.90069 0.0
C1753 C 0.47665 0.60884 0.89624 0.0
C1754 C 0.46737 0.58925 0.87506 0.0
C1755 C 0.44551 0.59095 0.85824 0.0
H1756 H 0.49354 0.60745 0.90925 0.0
H1757 H 0.26822 0.62255 0.75945 0.0
H1758 H 0.73429 0.49086 0.15825 0.0
H1759 H 0.7361 0.43981 0.14938 0.0
H1760 H 0.80839 0.4643 0.20703 0.0
H1761 H 0.80693 0.51543 0.21558 0.0
H1762 H 0.82359 0.43962 0.16669 0.0
H1763 H 0.72577 0.40937 0.21675 0.0
H1764 H 0.67198 0.40564 0.22628 0.0
H1765 H 0.63022 0.35057 0.15986 0.0
H1766 H 0.68387 0.35429 0.14981 0.0
H1767 H 0.81297 0.28209 0.17868 0.0
H1768 H 0.81195 0.33346 0.18825 0.0
H1769 H 0.72878 0.30305 0.13906 0.0
H1770 H 0.72865 0.25139 0.13076 0.0
H1771 H 0.71912 0.3313 0.17505 0.0
H1772 H 0.81296 0.36172 0.12272 0.0
H1773 H 0.86586 0.36621 0.10931 0.0
H1774 H 0.91403 0.42157 0.1744 0.0
H1775 H 0.86128 0.41711 0.18832 0.0
C1776 C 0.75121 0.48571 0.16851 0.0
C1777 C 0.7708 0.50719 0.18738 0.0
C1778 C 0.75191 0.45636 0.16368 0.0
C1779 C 0.77205 0.44795 0.17778 0.0
C1780 C 0.79265 0.47019 0.19593 0.0
C1781 C 0.7919 0.49942 0.20075 0.0
C1782 C 0.77108 0.4156 0.17429 0.0
C1783 C 0.80082 0.41591 0.1688 0.0
C1784 C 0.7412 0.38463 0.17633 0.0
C1785 C 0.70893 0.38237 0.18243 0.0
C1786 C 0.70518 0.39667 0.2041 0.0
C1787 C 0.6747 0.39451 0.20961 0.0
C1788 C 0.64772 0.37793 0.19366 0.0
C1789 C 0.65114 0.36342 0.17219 0.0
C1790 C 0.68157 0.36552 0.16659 0.0
C1791 C 0.79425 0.28631 0.17029 0.0
C1792 C 0.77141 0.26318 0.15357 0.0
C1793 C 0.79385 0.3158 0.1755 0.0
C1794 C 0.77084 0.32275 0.16387 0.0
C1795 C 0.74701 0.29867 0.14815 0.0
C1796 C 0.74715 0.26921 0.14322 0.0
C1797 C 0.77174 0.35518 0.16745 0.0
C1798 C 0.74197 0.35494 0.17296 0.0
C1799 C 0.80145 0.38626 0.16488 0.0
C1800 C 0.83311 0.38875 0.15669 0.0
C1801 C 0.83478 0.37462 0.13427 0.0
C1802 C 0.86474 0.37721 0.12655 0.0
C1803 C 0.89327 0.39408 0.14103 0.0
C1804 C 0.8919 0.40846 0.16323 0.0
C1805 C 0.86199 0.40593 0.17103 0.0
H1806 H 0.91645 0.39609 0.13502 0.0
H1807 H 0.62414 0.37628 0.19797 0.0
H1808 H 0.506 0.75953 0.51681 0.0
H1809 H 0.45846 0.76576 0.52785 0.0
H1810 H 0.44477 0.78084 0.45143 0.0
H1811 H 0.49574 0.78123 0.44133 0.0
H1812 H 0.42522 0.81211 0.47122 0.0
H1813 H 0.3976 0.69984 0.49033 0.0
H1814 H 0.40339 0.65514 0.51012 0.0
H1815 H 0.3957 0.69085 0.58117 0.0
H1816 H 0.39017 0.73594 0.5618 0.0
H1817 H 0.24456 0.74104 0.4876 0.0
H1818 H 0.29807 0.74486 0.4775 0.0
H1819 H 0.33981 0.79776 0.54503 0.0
H1820 H 0.28716 0.7957 0.55453 0.0
H1821 H 0.34315 0.73233 0.53065 0.0
H1822 H 0.36758 0.84436 0.50457 0.0
H1823 H 0.35358 0.88019 0.47978 0.0
H1824 H 0.35796 0.83146 0.41402 0.0
H1825 H 0.37154 0.79504 0.43848 0.0
C1826 C 0.49368 0.76552 0.50252 0.0
C1827 C 0.50467 0.76945 0.47805 0.0
C1828 C 0.46561 0.76802 0.50874 0.0
C1829 C 0.44657 0.77232 0.49044 0.0
C1830 C 0.45835 0.77726 0.46614 0.0
C1831 C 0.48739 0.77679 0.46021 0.0
C1832 C 0.41451 0.77163 0.49619 0.0
C1833 C 0.40734 0.79416 0.484 0.0
C1834 C 0.39051 0.74855 0.51295 0.0
C1835 C 0.39383 0.72146 0.52462 0.0
C1836 C 0.39732 0.69825 0.51017 0.0
C1837 C 0.40053 0.67284 0.52132 0.0
C1838 C 0.40001 0.67022 0.54688 0.0
C1839 C 0.39616 0.69294 0.56137 0.0
C1840 C 0.39295 0.71841 0.55032 0.0
C1841 C 0.26548 0.75445 0.49986 0.0
C1842 C 0.2619 0.76863 0.52164 0.0
C1843 C 0.29583 0.75618 0.49425 0.0
C1844 C 0.32275 0.77148 0.5106 0.0
C1845 C 0.31928 0.78578 0.53224 0.0
C1846 C 0.28927 0.78468 0.53758 0.0
C1847 C 0.35449 0.7722 0.50542 0.0
C1848 C 0.36138 0.74985 0.5178 0.0
C1849 C 0.37744 0.79421 0.48803 0.0
C1850 C 0.37031 0.81683 0.47336 0.0
C1851 C 0.36536 0.84116 0.48484 0.0
C1852 C 0.35753 0.8616 0.47085 0.0
C1853 C 0.3548 0.85805 0.44534 0.0
C1854 C 0.36006 0.83417 0.43377 0.0
C1855 C 0.36787 0.81367 0.44769 0.0
H1856 H 0.34867 0.87385 0.43455 0.0
H1857 H 0.40251 0.65054 0.55547 0.0
H1858 H 0.70112 0.50493 0.7765 0.0
H1859 H 0.65067 0.45293 0.78715 0.0
H1860 H 0.69902 0.44411 0.85202 0.0
H1861 H 0.75001 0.49552 0.8408 0.0
H1862 H 0.66587 0.38532 0.82956 0.0
H1863 H 0.64058 0.46847 0.85579 0.0
H1864 H 0.63562 0.51875 0.85165 0.0
H1865 H 0.56416 0.47219 0.79383 0.0
H1866 H 0.56907 0.42178 0.79738 0.0
H1867 H 0.49551 0.28781 0.89005 0.0
H1868 H 0.54751 0.33803 0.87907 0.0
H1869 H 0.54553 0.2962 0.80804 0.0
H1870 H 0.4952 0.24464 0.81972 0.0
H1871 H 0.55616 0.37931 0.83473 0.0
H1872 H 0.59851 0.30121 0.80477 0.0
H1873 H 0.60511 0.25256 0.81326 0.0
H1874 H 0.64581 0.29243 0.88419 0.0
H1875 H 0.63837 0.34078 0.87635 0.0
C1876 C 0.70079 0.49203 0.79316 0.0
C1877 C 0.72925 0.50447 0.80801 0.0
C1878 C 0.672 0.46234 0.79925 0.0
C1879 C 0.67088 0.4447 0.82054 0.0
C1880 C 0.69924 0.45728 0.83554 0.0
C1881 C 0.72818 0.48693 0.82934 0.0
C1882 C 0.64008 0.41314 0.82698 0.0
C1883 C 0.64193 0.38411 0.83066 0.0
C1884 C 0.60876 0.41137 0.82867 0.0
C1885 C 0.6054 0.44146 0.82672 0.0
C1886 C 0.62396 0.46903 0.84209 0.0
C1887 C 0.62114 0.49755 0.83986 0.0
C1888 C 0.59964 0.49869 0.82245 0.0
C1889 C 0.58083 0.47128 0.80729 0.0
C1890 C 0.58359 0.44272 0.80942 0.0
C1891 C 0.50639 0.28909 0.8722 0.0
C1892 C 0.49122 0.26212 0.85582 0.0
C1893 C 0.53607 0.31781 0.86596 0.0
C1894 C 0.55093 0.32044 0.84304 0.0
C1895 C 0.53519 0.2942 0.82619 0.0
C1896 C 0.50587 0.26505 0.83266 0.0
C1897 C 0.58188 0.35153 0.83649 0.0
C1898 C 0.58009 0.38058 0.83318 0.0
C1899 C 0.61322 0.35336 0.83539 0.0
C1900 C 0.61701 0.32405 0.84025 0.0
C1901 C 0.60816 0.29921 0.82237 0.0
C1902 C 0.61219 0.27177 0.82703 0.0
C1903 C 0.62564 0.26927 0.84933 0.0
C1904 C 0.63513 0.29424 0.86701 0.0
C1905 C 0.63087 0.32158 0.86251 0.0
H1906 H 0.6289 0.2481 0.85285 0.0
H1907 H 0.59751 0.5208 0.82074 0.0
loop_
_geom_bond_atom_site_label_1
_geom_bond_atom_site_label_2
_geom_bond_distance
_geom_bond_site_symmetry_2
_ccdc_geom_bond_type
Co0 O3 1.970 . S
Co0 N17 1.989 . S
Co0 O25 1.967 . S
Co0 O32 1.920 . S
Co1 O4 1.966 . S
Co1 N10 2.022 . S
Co1 N18 1.993 . S
Co1 O26 1.941 . S
C2 O3 1.258 . S
C2 O4 1.263 . S
O3 Co0 1.970 . S
O3 C2 1.258 . S
O4 Co1 1.966 . S
O4 C2 1.263 . S
C5 O6 1.235 . S
C5 O32 1.289 . S
O6 C5 1.235 . S
C7 C9 1.400 . S
C7 N10 1.351 . S
C7 C12 1.501 . S
C8 C9 1.387 . S
C8 N11 1.341 . S
C9 C7 1.400 . S
C9 C8 1.387 . S
N10 Co1 2.022 . S
N10 C7 1.351 . S
N10 N11 1.365 . S
N11 C8 1.341 . S
N11 N10 1.365 . S
N11 H31 0.862 . S
C12 C7 1.501 . S
C12 H13 0.961 . S
C12 H14 0.961 . S
C12 H15 0.960 . S
H13 C12 0.961 . S
H14 C12 0.961 . S
H15 C12 0.960 . S
C16 N17 1.342 . S
C16 C20 1.401 . S
C16 C21 1.499 . S
N17 Co0 1.989 . S
N17 C16 1.342 . S
N17 N18 1.388 . S
N18 Co1 1.993 . S
N18 N17 1.388 . S
N18 C19 1.346 . S
C19 N18 1.346 . S
C19 C20 1.396 . S
C19 C29 1.510 . S
C20 C16 1.401 . S
C20 C19 1.396 . S
C21 C16 1.499 . S
C21 H22 0.959 . S
C21 H23 0.960 . S
C21 H24 0.961 . S
H22 C21 0.959 . S
H23 C21 0.960 . S
H24 C21 0.961 . S
O25 Co0 1.967 . S
O25 C33 1.258 . S
O26 Co1 1.941 . S
O26 C33 1.266 . S
H27 C29 0.959 . S
H28 C29 0.961 . S
C29 C19 1.510 . S
C29 H27 0.959 . S
C29 H28 0.961 . S
C29 H30 0.960 . S
H30 C29 0.960 . S
H31 N11 0.862 . S
O32 Co0 1.920 . S
O32 C5 1.289 . S
C33 O25 1.258 . S
C33 O26 1.266 . S
Co34 O37 1.970 . S
Co34 N51 1.989 . S
Co34 O59 1.967 . S
Co34 O66 1.920 . S
Co35 O38 1.966 . S
Co35 N44 2.022 . S
Co35 N52 1.993 . S
Co35 O60 1.941 . S
C36 O37 1.258 . S
C36 O38 1.263 . S
O37 Co34 1.970 . S
O37 C36 1.258 . S
O38 Co35 1.966 . S
O38 C36 1.263 . S
C39 O40 1.235 . S
C39 O66 1.289 . S
O40 C39 1.235 . S
C41 C43 1.400 . S
C41 N44 1.351 . S
C41 C46 1.501 . S
C42 C43 1.387 . S
C42 N45 1.341 . S
C43 C41 1.400 . S
C43 C42 1.387 . S
N44 Co35 2.022 . S
N44 C41 1.351 . S
N44 N45 1.365 . S
N45 C42 1.341 . S
N45 N44 1.365 . S
N45 H65 0.862 . S
C46 C41 1.501 . S
C46 H47 0.961 . S
C46 H48 0.961 . S
C46 H49 0.960 . S
H47 C46 0.961 . S
H48 C46 0.961 . S
H49 C46 0.960 . S
C50 N51 1.342 . S
C50 C54 1.401 . S
C50 C55 1.499 . S
N51 Co34 1.989 . S
N51 C50 1.342 . S
N51 N52 1.388 . S
N52 Co35 1.993 . S
N52 N51 1.388 . S
N52 C53 1.346 . S
C53 N52 1.346 . S
C53 C54 1.396 . S
C53 C63 1.510 . S
C54 C50 1.401 . S
C54 C53 1.396 . S
C55 C50 1.499 . S
C55 H56 0.959 . S
C55 H57 0.960 . S
C55 H58 0.961 . S
H56 C55 0.959 . S
H57 C55 0.960 . S
H58 C55 0.961 . S
O59 Co34 1.967 . S
O59 C67 1.258 . S
O60 Co35 1.941 . S
O60 C67 1.266 . S
H61 C63 0.959 . S
H62 C63 0.961 . S
C63 C53 1.510 . S
C63 H61 0.959 . S
C63 H62 0.961 . S
C63 H64 0.960 . S
H64 C63 0.960 . S
H65 N45 0.862 . S
O66 Co34 1.920 . S
O66 C39 1.289 . S
C67 O59 1.258 . S
C67 O60 1.266 . S
Co68 O71 1.970 . S
Co68 N85 1.989 . S
Co68 O93 1.967 . S
Co68 O100 1.920 . S
Co69 O72 1.966 . S
Co69 N78 2.022 . S
Co69 N86 1.993 . S
Co69 O94 1.941 . S
C70 O71 1.258 . S
C70 O72 1.263 . S
O71 Co68 1.970 . S
O71 C70 1.258 . S
O72 Co69 1.966 . S
O72 C70 1.263 . S
C73 O74 1.235 . S
C73 O100 1.289 . S
O74 C73 1.235 . S
C75 C77 1.400 . S
C75 N78 1.351 . S
C75 C80 1.501 . S
C76 C77 1.387 . S
C76 N79 1.341 . S
C77 C75 1.400 . S
C77 C76 1.387 . S
N78 Co69 2.022 . S
N78 C75 1.351 . S
N78 N79 1.365 . S
N79 C76 1.341 . S
N79 N78 1.365 . S
N79 H99 0.862 . S
C80 C75 1.501 . S
C80 H81 0.961 . S
C80 H82 0.961 . S
C80 H83 0.960 . S
H81 C80 0.961 . S
H82 C80 0.961 . S
H83 C80 0.960 . S
C84 N85 1.342 . S
C84 C88 1.401 . S
C84 C89 1.499 . S
N85 Co68 1.989 . S
N85 C84 1.342 . S
N85 N86 1.388 . S
N86 Co69 1.993 . S
N86 N85 1.388 . S
N86 C87 1.346 . S
C87 N86 1.346 . S
C87 C88 1.396 . S
C87 C97 1.510 . S
C88 C84 1.401 . S
C88 C87 1.396 . S
C89 C84 1.499 . S
C89 H90 0.959 . S
C89 H91 0.960 . S
C89 H92 0.961 . S
H90 C89 0.959 . S
H91 C89 0.960 . S
H92 C89 0.961 . S
O93 Co68 1.967 . S
O93 C101 1.258 . S
O94 Co69 1.941 . S
O94 C101 1.266 . S
H95 C97 0.959 . S
H96 C97 0.961 . S
C97 C87 1.510 . S
C97 H95 0.959 . S
C97 H96 0.961 . S
C97 H98 0.960 . S
H98 C97 0.960 . S
H99 N79 0.862 . S
O100 Co68 1.920 . S
O100 C73 1.289 . S
C101 O93 1.258 . S
C101 O94 1.266 . S
Co102 O105 1.970 . S
Co102 N119 1.989 . S
Co102 O127 1.967 . S
Co102 O134 1.920 . S
Co103 O106 1.966 . S
Co103 N112 2.022 . S
Co103 N120 1.993 . S
Co103 O128 1.941 . S
C104 O105 1.258 . S
C104 O106 1.263 . S
O105 Co102 1.970 . S
O105 C104 1.258 . S
O106 Co103 1.966 . S
O106 C104 1.263 . S
C107 O108 1.235 . S
C107 O134 1.289 . S
O108 C107 1.235 . S
C109 C111 1.400 . S
C109 N112 1.351 . S
C109 C114 1.501 . S
C110 C111 1.387 . S
C110 N113 1.341 . S
C111 C109 1.400 . S
C111 C110 1.387 . S
N112 Co103 2.022 . S
N112 C109 1.351 . S
N112 N113 1.365 . S
N113 C110 1.341 . S
N113 N112 1.365 . S
N113 H133 0.862 . S
C114 C109 1.501 . S
C114 H115 0.961 . S
C114 H116 0.961 . S
C114 H117 0.960 . S
H115 C114 0.961 . S
H116 C114 0.961 . S
H117 C114 0.960 . S
C118 N119 1.342 . S
C118 C122 1.401 . S
C118 C123 1.499 . S
N119 Co102 1.989 . S
N119 C118 1.342 . S
N119 N120 1.388 . S
N120 Co103 1.993 . S
N120 N119 1.388 . S
N120 C121 1.346 . S
C121 N120 1.346 . S
C121 C122 1.396 . S
C121 C131 1.510 . S
C122 C118 1.401 . S
C122 C121 1.396 . S
C123 C118 1.499 . S
C123 H124 0.959 . S
C123 H125 0.960 . S
C123 H126 0.961 . S
H124 C123 0.959 . S
H125 C123 0.960 . S
H126 C123 0.961 . S
O127 Co102 1.967 . S
O127 C135 1.258 . S
O128 Co103 1.941 . S
O128 C135 1.266 . S
H129 C131 0.959 . S
H130 C131 0.961 . S
C131 C121 1.510 . S
C131 H129 0.959 . S
C131 H130 0.961 . S
C131 H132 0.960 . S
H132 C131 0.960 . S
H133 N113 0.862 . S
O134 Co102 1.920 . S
O134 C107 1.289 . S
C135 O127 1.258 . S
C135 O128 1.266 . S
Co136 O139 1.970 . S
Co136 N153 1.989 . S
Co136 O161 1.967 . S
Co136 O168 1.920 . S
Co137 O140 1.966 . S
Co137 N146 2.022 . S
Co137 N154 1.993 . S
Co137 O162 1.941 . S
C138 O139 1.258 . S
C138 O140 1.263 . S
O139 Co136 1.970 . S
O139 C138 1.258 . S
O140 Co137 1.966 . S
O140 C138 1.263 . S
C141 O142 1.235 . S
C141 O168 1.289 . S
O142 C141 1.235 . S
C143 C145 1.400 . S
C143 N146 1.351 . S
C143 C148 1.501 . S
C144 C145 1.387 . S
C144 N147 1.341 . S
C145 C143 1.400 . S
C145 C144 1.387 . S
N146 Co137 2.022 . S
N146 C143 1.351 . S
N146 N147 1.365 . S
N147 C144 1.341 . S
N147 N146 1.365 . S
N147 H167 0.862 . S
C148 C143 1.501 . S
C148 H149 0.961 . S
C148 H150 0.961 . S
C148 H151 0.960 . S
H149 C148 0.961 . S
H150 C148 0.961 . S
H151 C148 0.960 . S
C152 N153 1.342 . S
C152 C156 1.401 . S
C152 C157 1.499 . S
N153 Co136 1.989 . S
N153 C152 1.342 . S
N153 N154 1.388 . S
N154 Co137 1.993 . S
N154 N153 1.388 . S
N154 C155 1.346 . S
C155 N154 1.346 . S
C155 C156 1.396 . S
C155 C165 1.510 . S
C156 C152 1.401 . S
C156 C155 1.396 . S
C157 C152 1.499 . S
C157 H158 0.959 . S
C157 H159 0.960 . S
C157 H160 0.961 . S
H158 C157 0.959 . S
H159 C157 0.960 . S
H160 C157 0.961 . S
O161 Co136 1.967 . S
O161 C169 1.258 . S
O162 Co137 1.941 . S
O162 C169 1.266 . S
H163 C165 0.959 . S
H164 C165 0.961 . S
C165 C155 1.510 . S
C165 H163 0.959 . S
C165 H164 0.961 . S
C165 H166 0.960 . S
H166 C165 0.960 . S
H167 N147 0.862 . S
O168 Co136 1.920 . S
O168 C141 1.289 . S
C169 O161 1.258 . S
C169 O162 1.266 . S
Co170 O173 1.970 . S
Co170 N187 1.989 . S
Co170 O195 1.967 . S
Co170 O202 1.920 . S
Co171 O174 1.966 . S
Co171 N180 2.022 . S
Co171 N188 1.993 . S
Co171 O196 1.941 . S
C172 O173 1.258 . S
C172 O174 1.263 . S
O173 Co170 1.970 . S
O173 C172 1.258 . S
O174 Co171 1.966 . S
O174 C172 1.263 . S
C175 O176 1.235 . S
C175 O202 1.289 . S
O176 C175 1.235 . S
C177 C179 1.400 . S
C177 N180 1.351 . S
C177 C182 1.501 . S
C178 C179 1.387 . S
C178 N181 1.341 . S
C179 C177 1.400 . S
C179 C178 1.387 . S
N180 Co171 2.022 . S
N180 C177 1.351 . S
N180 N181 1.365 . S
N181 C178 1.341 . S
N181 N180 1.365 . S
N181 H201 0.862 . S
C182 C177 1.501 . S
C182 H183 0.961 . S
C182 H184 0.961 . S
C182 H185 0.960 . S
H183 C182 0.961 . S
H184 C182 0.961 . S
H185 C182 0.960 . S
C186 N187 1.342 . S
C186 C190 1.401 . S
C186 C191 1.499 . S
N187 Co170 1.989 . S
N187 C186 1.342 . S
N187 N188 1.388 . S
N188 Co171 1.993 . S
N188 N187 1.388 . S
N188 C189 1.346 . S
C189 N188 1.346 . S
C189 C190 1.396 . S
C189 C199 1.510 . S
C190 C186 1.401 . S
C190 C189 1.396 . S
C191 C186 1.499 . S
C191 H192 0.959 . S
C191 H193 0.960 . S
C191 H194 0.961 . S
H192 C191 0.959 . S
H193 C191 0.960 . S
H194 C191 0.961 . S
O195 Co170 1.967 . S
O195 C203 1.258 . S
O196 Co171 1.941 . S
O196 C203 1.266 . S
H197 C199 0.959 . S
H198 C199 0.961 . S
C199 C189 1.510 . S
C199 H197 0.959 . S
C199 H198 0.961 . S
C199 H200 0.960 . S
H200 C199 0.960 . S
H201 N181 0.862 . S
O202 Co170 1.920 . S
O202 C175 1.289 . S
C203 O195 1.258 . S
C203 O196 1.266 . S
Co204 O207 1.970 . S
Co204 N221 1.989 . S
Co204 O229 1.967 . S
Co204 O236 1.920 . S
Co205 O208 1.966 . S
Co205 N214 2.022 . S
Co205 N222 1.993 . S
Co205 O230 1.941 . S
C206 O207 1.258 . S
C206 O208 1.263 . S
O207 Co204 1.970 . S
O207 C206 1.258 . S
O208 Co205 1.966 . S
O208 C206 1.263 . S
C209 O210 1.235 . S
C209 O236 1.289 . S
O210 C209 1.235 . S
C211 C213 1.400 . S
C211 N214 1.351 . S
C211 C216 1.501 . S
C212 C213 1.387 . S
C212 N215 1.341 . S
C213 C211 1.400 . S
C213 C212 1.387 . S
N214 Co205 2.022 . S
N214 C211 1.351 . S
N214 N215 1.365 . S
N215 C212 1.341 . S
N215 N214 1.365 . S
N215 H235 0.862 . S
C216 C211 1.501 . S
C216 H217 0.961 . S
C216 H218 0.961 . S
C216 H219 0.960 . S
H217 C216 0.961 . S
H218 C216 0.961 . S
H219 C216 0.960 . S
C220 N221 1.342 . S
C220 C224 1.401 . S
C220 C225 1.499 . S
N221 Co204 1.989 . S
N221 C220 1.342 . S
N221 N222 1.388 . S
N222 Co205 1.993 . S
N222 N221 1.388 . S
N222 C223 1.346 . S
C223 N222 1.346 . S
C223 C224 1.396 . S
C223 C233 1.510 . S
C224 C220 1.401 . S
C224 C223 1.396 . S
C225 C220 1.499 . S
C225 H226 0.959 . S
C225 H227 0.960 . S
C225 H228 0.961 . S
H226 C225 0.959 . S
H227 C225 0.960 . S
H228 C225 0.961 . S
O229 Co204 1.967 . S
O229 C237 1.258 . S
O230 Co205 1.941 . S
O230 C237 1.266 . S
H231 C233 0.959 . S
H232 C233 0.961 . S
C233 C223 1.510 . S
C233 H231 0.959 . S
C233 H232 0.961 . S
C233 H234 0.960 . S
H234 C233 0.960 . S
H235 N215 0.862 . S
O236 Co204 1.920 . S
O236 C209 1.289 . S
C237 O229 1.258 . S
C237 O230 1.266 . S
Co238 O241 1.970 . S
Co238 N255 1.989 . S
Co238 O263 1.967 . S
Co238 O270 1.920 . S
Co239 O242 1.966 . S
Co239 N248 2.022 . S
Co239 N256 1.993 . S
Co239 O264 1.941 . S
C240 O241 1.258 . S
C240 O242 1.263 . S
O241 Co238 1.970 . S
O241 C240 1.258 . S
O242 Co239 1.966 . S
O242 C240 1.263 . S
C243 O244 1.235 . S
C243 O270 1.289 . S
O244 C243 1.235 . S
C245 C247 1.400 . S
C245 N248 1.351 . S
C245 C250 1.501 . S
C246 C247 1.387 . S
C246 N249 1.341 . S
C247 C245 1.400 . S
C247 C246 1.387 . S
N248 Co239 2.022 . S
N248 C245 1.351 . S
N248 N249 1.365 . S
N249 C246 1.341 . S
N249 N248 1.365 . S
N249 H269 0.862 . S
C250 C245 1.501 . S
C250 H251 0.961 . S
C250 H252 0.961 . S
C250 H253 0.960 . S
H251 C250 0.961 . S
H252 C250 0.961 . S
H253 C250 0.960 . S
C254 N255 1.342 . S
C254 C258 1.401 . S
C254 C259 1.499 . S
N255 Co238 1.989 . S
N255 C254 1.342 . S
N255 N256 1.388 . S
N256 Co239 1.993 . S
N256 N255 1.388 . S
N256 C257 1.346 . S
C257 N256 1.346 . S
C257 C258 1.396 . S
C257 C267 1.510 . S
C258 C254 1.401 . S
C258 C257 1.396 . S
C259 C254 1.499 . S
C259 H260 0.959 . S
C259 H261 0.960 . S
C259 H262 0.961 . S
H260 C259 0.959 . S
H261 C259 0.960 . S
H262 C259 0.961 . S
O263 Co238 1.967 . S
O263 C271 1.258 . S
O264 Co239 1.941 . S
O264 C271 1.266 . S
H265 C267 0.959 . S
H266 C267 0.961 . S
C267 C257 1.510 . S
C267 H265 0.959 . S
C267 H266 0.961 . S
C267 H268 0.960 . S
H268 C267 0.960 . S
H269 N249 0.862 . S
O270 Co238 1.920 . S
O270 C243 1.289 . S
C271 O263 1.258 . S
C271 O264 1.266 . S
Co272 O275 1.970 . S
Co272 N289 1.989 . S
Co272 O297 1.967 . S
Co272 O304 1.920 . S
Co273 O276 1.966 . S
Co273 N282 2.022 . S
Co273 N290 1.993 . S
Co273 O298 1.941 . S
C274 O275 1.258 . S
C274 O276 1.263 . S
O275 Co272 1.970 . S
O275 C274 1.258 . S
O276 Co273 1.966 . S
O276 C274 1.263 . S
C277 O278 1.235 . S
C277 O304 1.289 . S
O278 C277 1.235 . S
C279 C281 1.400 . S
C279 N282 1.351 . S
C279 C284 1.501 . S
C280 C281 1.387 . S
C280 N283 1.341 . S
C281 C279 1.400 . S
C281 C280 1.387 . S
N282 Co273 2.022 . S
N282 C279 1.351 . S
N282 N283 1.365 . S
N283 C280 1.341 . S
N283 N282 1.365 . S
N283 H303 0.862 . S
C284 C279 1.501 . S
C284 H285 0.961 . S
C284 H286 0.961 . S
C284 H287 0.960 . S
H285 C284 0.961 . S
H286 C284 0.961 . S
H287 C284 0.960 . S
C288 N289 1.342 . S
C288 C292 1.401 . S
C288 C293 1.499 . S
N289 Co272 1.989 . S
N289 C288 1.342 . S
N289 N290 1.388 . S
N290 Co273 1.993 . S
N290 N289 1.388 . S
N290 C291 1.346 . S
C291 N290 1.346 . S
C291 C292 1.396 . S
C291 C301 1.510 . S
C292 C288 1.401 . S
C292 C291 1.396 . S
C293 C288 1.499 . S
C293 H294 0.959 . S
C293 H295 0.960 . S
C293 H296 0.961 . S
H294 C293 0.959 . S
H295 C293 0.960 . S
H296 C293 0.961 . S
O297 Co272 1.967 . S
O297 C305 1.258 . S
O298 Co273 1.941 . S
O298 C305 1.266 . S
H299 C301 0.959 . S
H300 C301 0.961 . S
C301 C291 1.510 . S
C301 H299 0.959 . S
C301 H300 0.961 . S
C301 H302 0.960 . S
H302 C301 0.960 . S
H303 N283 0.862 . S
O304 Co272 1.920 . S
O304 C277 1.289 . S
C305 O297 1.258 . S
C305 O298 1.266 . S
Co306 O309 1.970 . S
Co306 N323 1.989 . S
Co306 O331 1.967 . S
Co306 O338 1.920 . S
Co307 O310 1.966 . S
Co307 N316 2.022 . S
Co307 N324 1.993 . S
Co307 O332 1.941 . S
C308 O309 1.258 . S
C308 O310 1.263 . S
O309 Co306 1.970 . S
O309 C308 1.258 . S
O310 Co307 1.966 . S
O310 C308 1.263 . S
C311 O312 1.235 . S
C311 O338 1.289 . S
O312 C311 1.235 . S
C313 C315 1.400 . S
C313 N316 1.351 . S
C313 C318 1.501 . S
C314 C315 1.387 . S
C314 N317 1.341 . S
C315 C313 1.400 . S
C315 C314 1.387 . S
N316 Co307 2.022 . S
N316 C313 1.351 . S
N316 N317 1.365 . S
N317 C314 1.341 . S
N317 N316 1.365 . S
N317 H337 0.862 . S
C318 C313 1.501 . S
C318 H319 0.961 . S
C318 H320 0.961 . S
C318 H321 0.960 . S
H319 C318 0.961 . S
H320 C318 0.961 . S
H321 C318 0.960 . S
C322 N323 1.342 . S
C322 C326 1.401 . S
C322 C327 1.499 . S
N323 Co306 1.989 . S
N323 C322 1.342 . S
N323 N324 1.388 . S
N324 Co307 1.993 . S
N324 N323 1.388 . S
N324 C325 1.346 . S
C325 N324 1.346 . S
C325 C326 1.396 . S
C325 C335 1.510 . S
C326 C322 1.401 . S
C326 C325 1.396 . S
C327 C322 1.499 . S
C327 H328 0.959 . S
C327 H329 0.960 . S
C327 H330 0.961 . S
H328 C327 0.959 . S
H329 C327 0.960 . S
H330 C327 0.961 . S
O331 Co306 1.967 . S
O331 C339 1.258 . S
O332 Co307 1.941 . S
O332 C339 1.266 . S
H333 C335 0.959 . S
H334 C335 0.961 . S
C335 C325 1.510 . S
C335 H333 0.959 . S
C335 H334 0.961 . S
C335 H336 0.960 . S
H336 C335 0.960 . S
H337 N317 0.862 . S
O338 Co306 1.920 . S
O338 C311 1.289 . S
C339 O331 1.258 . S
C339 O332 1.266 . S
Co340 O343 1.970 . S
Co340 N357 1.989 . S
Co340 O365 1.967 . S
Co340 O372 1.920 . S
Co341 O344 1.966 . S
Co341 N350 2.022 . S
Co341 N358 1.993 . S
Co341 O366 1.941 . S
C342 O343 1.258 . S
C342 O344 1.263 . S
O343 Co340 1.970 . S
O343 C342 1.258 . S
O344 Co341 1.966 . S
O344 C342 1.263 . S
C345 O346 1.235 . S
C345 O372 1.289 . S
O346 C345 1.235 . S
C347 C349 1.400 . S
C347 N350 1.351 . S
C347 C352 1.501 . S
C348 C349 1.387 . S
C348 N351 1.341 . S
C349 C347 1.400 . S
C349 C348 1.387 . S
N350 Co341 2.022 . S
N350 C347 1.351 . S
N350 N351 1.365 . S
N351 C348 1.341 . S
N351 N350 1.365 . S
N351 H371 0.862 . S
C352 C347 1.501 . S
C352 H353 0.961 . S
C352 H354 0.961 . S
C352 H355 0.960 . S
H353 C352 0.961 . S
H354 C352 0.961 . S
H355 C352 0.960 . S
C356 N357 1.342 . S
C356 C360 1.401 . S
C356 C361 1.499 . S
N357 Co340 1.989 . S
N357 C356 1.342 . S
N357 N358 1.388 . S
N358 Co341 1.993 . S
N358 N357 1.388 . S
N358 C359 1.346 . S
C359 N358 1.346 . S
C359 C360 1.396 . S
C359 C369 1.510 . S
C360 C356 1.401 . S
C360 C359 1.396 . S
C361 C356 1.499 . S
C361 H362 0.959 . S
C361 H363 0.960 . S
C361 H364 0.961 . S
H362 C361 0.959 . S
H363 C361 0.960 . S
H364 C361 0.961 . S
O365 Co340 1.967 . S
O365 C373 1.258 . S
O366 Co341 1.941 . S
O366 C373 1.266 . S
H367 C369 0.959 . S
H368 C369 0.961 . S
C369 C359 1.510 . S
C369 H367 0.959 . S
C369 H368 0.961 . S
C369 H370 0.960 . S
H370 C369 0.960 . S
H371 N351 0.862 . S
O372 Co340 1.920 . S
O372 C345 1.289 . S
C373 O365 1.258 . S
C373 O366 1.266 . S
Co374 O377 1.970 . S
Co374 N391 1.989 . S
Co374 O399 1.967 . S
Co374 O406 1.920 . S
Co375 O378 1.966 . S
Co375 N384 2.022 . S
Co375 N392 1.993 . S
Co375 O400 1.941 . S
C376 O377 1.258 . S
C376 O378 1.263 . S
O377 Co374 1.970 . S
O377 C376 1.258 . S
O378 Co375 1.966 . S
O378 C376 1.263 . S
C379 O380 1.235 . S
C379 O406 1.289 . S
O380 C379 1.235 . S
C381 C383 1.400 . S
C381 N384 1.351 . S
C381 C386 1.501 . S
C382 C383 1.387 . S
C382 N385 1.341 . S
C383 C381 1.400 . S
C383 C382 1.387 . S
N384 Co375 2.022 . S
N384 C381 1.351 . S
N384 N385 1.365 . S
N385 C382 1.341 . S
N385 N384 1.365 . S
N385 H405 0.862 . S
C386 C381 1.501 . S
C386 H387 0.961 . S
C386 H388 0.961 . S
C386 H389 0.960 . S
H387 C386 0.961 . S
H388 C386 0.961 . S
H389 C386 0.960 . S
C390 N391 1.342 . S
C390 C394 1.401 . S
C390 C395 1.499 . S
N391 Co374 1.989 . S
N391 C390 1.342 . S
N391 N392 1.388 . S
N392 Co375 1.993 . S
N392 N391 1.388 . S
N392 C393 1.346 . S
C393 N392 1.346 . S
C393 C394 1.396 . S
C393 C403 1.510 . S
C394 C390 1.401 . S
C394 C393 1.396 . S
C395 C390 1.499 . S
C395 H396 0.959 . S
C395 H397 0.960 . S
C395 H398 0.961 . S
H396 C395 0.959 . S
H397 C395 0.960 . S
H398 C395 0.961 . S
O399 Co374 1.967 . S
O399 C407 1.258 . S
O400 Co375 1.941 . S
O400 C407 1.266 . S
H401 C403 0.959 . S
H402 C403 0.961 . S
C403 C393 1.510 . S
C403 H401 0.959 . S
C403 H402 0.961 . S
C403 H404 0.960 . S
H404 C403 0.960 . S
H405 N385 0.862 . S
O406 Co374 1.920 . S
O406 C379 1.289 . S
C407 O399 1.258 . S
C407 O400 1.266 . S
H408 C426 0.951 . S
H409 C428 0.951 . S
H410 C430 0.950 . S
H411 C431 0.950 . S
H412 C433 0.950 . S
H413 C436 0.950 . S
H414 C437 0.950 . S
H415 C439 0.950 . S
H416 C440 0.950 . S
H417 C441 0.951 . S
H418 C443 0.951 . S
H419 C445 0.950 . S
H420 C446 0.950 . S
H421 C448 0.950 . S
H422 C451 0.950 . S
H423 C452 0.950 . S
H424 C454 0.950 . S
H425 C455 0.950 . S
C426 H408 0.951 . S
C426 C427 1.366 . S
C426 C428 1.388 . S
C427 C426 1.366 . S
C427 C431 1.385 . S
C428 H409 0.951 . S
C428 C426 1.388 . S
C428 C429 1.366 . S
C429 C428 1.366 . S
C429 C430 1.414 . S
C429 C432 1.499 . S
C430 H410 0.950 . S
C430 C429 1.414 . S
C430 C431 1.374 . S
C431 H411 0.950 . S
C431 C427 1.385 . S
C431 C430 1.374 . S
C432 C429 1.499 . S
C432 C433 1.373 . S
C432 C434 1.389 . S
C433 H412 0.950 . S
C433 C432 1.373 . S
C433 C449 1.377 . S
C434 C432 1.389 . S
C434 C435 1.524 . S
C434 C448 1.377 . S
C435 C434 1.524 . S
C435 C436 1.397 . S
C435 C440 1.363 . S
C436 H413 0.950 . S
C436 C435 1.397 . S
C436 C437 1.334 . S
C437 H414 0.950 . S
C437 C436 1.334 . S
C437 C438 1.287 . S
C438 C437 1.287 . S
C438 C439 1.524 . S
C438 H457 0.913 . S
C439 H415 0.950 . S
C439 C438 1.524 . S
C439 C440 1.415 . S
C440 H416 0.950 . S
C440 C435 1.363 . S
C440 C439 1.415 . S
C441 H417 0.951 . S
C441 C442 1.366 . S
C441 C443 1.388 . S
C442 C441 1.366 . S
C442 C446 1.385 . S
C443 H418 0.951 . S
C443 C441 1.388 . S
C443 C444 1.366 . S
C444 C443 1.366 . S
C444 C445 1.414 . S
C444 C447 1.499 . S
C445 H419 0.950 . S
C445 C444 1.414 . S
C445 C446 1.374 . S
C446 H420 0.950 . S
C446 C442 1.385 . S
C446 C445 1.374 . S
C447 C444 1.499 . S
C447 C448 1.373 . S
C447 C449 1.389 . S
C448 H421 0.950 . S
C448 C434 1.377 . S
C448 C447 1.373 . S
C449 C433 1.377 . S
C449 C447 1.389 . S
C449 C450 1.524 . S
C450 C449 1.524 . S
C450 C451 1.397 . S
C450 C455 1.363 . S
C451 H422 0.950 . S
C451 C450 1.397 . S
C451 C452 1.334 . S
C452 H423 0.950 . S
C452 C451 1.334 . S
C452 C453 1.287 . S
C453 C452 1.287 . S
C453 C454 1.524 . S
C453 H456 0.999 . S
C454 H424 0.950 . S
C454 C453 1.524 . S
C454 C455 1.415 . S
C455 H425 0.950 . S
C455 C450 1.363 . S
C455 C454 1.415 . S
H456 C453 0.999 . S
H457 C438 0.913 . S
H458 C476 0.951 . S
H459 C478 0.951 . S
H460 C480 0.950 . S
H461 C481 0.950 . S
H462 C483 0.950 . S
H463 C486 0.950 . S
H464 C487 0.950 . S
H465 C489 0.950 . S
H466 C490 0.950 . S
H467 C491 0.951 . S
H468 C493 0.951 . S
H469 C495 0.950 . S
H470 C496 0.950 . S
H471 C498 0.950 . S
H472 C501 0.950 . S
H473 C502 0.950 . S
H474 C504 0.950 . S
H475 C505 0.950 . S
C476 H458 0.951 . S
C476 C477 1.366 . S
C476 C478 1.388 . S
C477 C476 1.366 . S
C477 C481 1.385 . S
C478 H459 0.951 . S
C478 C476 1.388 . S
C478 C479 1.366 . S
C479 C478 1.366 . S
C479 C480 1.414 . S
C479 C482 1.499 . S
C480 H460 0.950 . S
C480 C479 1.414 . S
C480 C481 1.374 . S
C481 H461 0.950 . S
C481 C477 1.385 . S
C481 C480 1.374 . S
C482 C479 1.499 . S
C482 C483 1.373 . S
C482 C484 1.389 1_655 S
C483 H462 0.950 . S
C483 C482 1.373 . S
C483 C499 1.377 . S
C484 C482 1.389 1_455 S
C484 C485 1.524 . S
C484 C498 1.377 . S
C485 C484 1.524 . S
C485 C486 1.397 . S
C485 C490 1.363 . S
C486 H463 0.950 . S
C486 C485 1.397 . S
C486 C487 1.334 . S
C487 H464 0.950 . S
C487 C486 1.334 . S
C487 C488 1.287 . S
C488 C487 1.287 . S
C488 C489 1.524 . S
C488 H507 0.913 . S
C489 H465 0.950 . S
C489 C488 1.524 . S
C489 C490 1.415 . S
C490 H466 0.950 . S
C490 C485 1.363 . S
C490 C489 1.415 . S
C491 H467 0.951 . S
C491 C492 1.366 . S
C491 C493 1.388 . S
C492 C491 1.366 . S
C492 C496 1.385 . S
C493 H468 0.951 . S
C493 C491 1.388 . S
C493 C494 1.366 . S
C494 C493 1.366 . S
C494 C495 1.414 . S
C494 C497 1.499 . S
C495 H469 0.950 . S
C495 C494 1.414 . S
C495 C496 1.374 . S
C496 H470 0.950 . S
C496 C492 1.385 . S
C496 C495 1.374 . S
C497 C494 1.499 . S
C497 C498 1.373 . S
C497 C499 1.389 1_455 S
C498 H471 0.950 . S
C498 C484 1.377 . S
C498 C497 1.373 . S
C499 C483 1.377 . S
C499 C497 1.389 1_655 S
C499 C500 1.524 . S
C500 C499 1.524 . S
C500 C501 1.397 . S
C500 C505 1.363 . S
C501 H472 0.950 . S
C501 C500 1.397 . S
C501 C502 1.334 . S
C502 H473 0.950 . S
C502 C501 1.334 . S
C502 C503 1.287 . S
C503 C502 1.287 . S
C503 C504 1.524 . S
C503 H506 0.999 . S
C504 H474 0.950 . S
C504 C503 1.524 . S
C504 C505 1.415 . S
C505 H475 0.950 . S
C505 C500 1.363 . S
C505 C504 1.415 . S
H506 C503 0.999 . S
H507 C488 0.913 . S
H508 C526 0.951 . S
H509 C528 0.951 . S
H510 C530 0.950 . S
H511 C531 0.950 . S
H512 C533 0.950 . S
H513 C536 0.950 . S
H514 C537 0.950 . S
H515 C539 0.950 . S
H516 C540 0.950 . S
H517 C541 0.951 . S
H518 C543 0.951 . S
H519 C545 0.950 . S
H520 C546 0.950 . S
H521 C548 0.950 . S
H522 C551 0.950 . S
H523 C552 0.950 . S
H524 C554 0.950 . S
H525 C555 0.950 . S
C526 H508 0.951 . S
C526 C527 1.366 . S
C526 C528 1.388 . S
C527 C526 1.366 . S
C527 C531 1.385 . S
C528 H509 0.951 . S
C528 C526 1.388 . S
C528 C529 1.366 . S
C529 C528 1.366 . S
C529 C530 1.414 . S
C529 C532 1.499 . S
C530 H510 0.950 . S
C530 C529 1.414 . S
C530 C531 1.374 . S
C531 H511 0.950 . S
C531 C527 1.385 . S
C531 C530 1.374 . S
C532 C529 1.499 . S
C532 C533 1.373 . S
C532 C534 1.389 . S
C533 H512 0.950 . S
C533 C532 1.373 . S
C533 C549 1.377 1_545 S
C534 C532 1.389 . S
C534 C535 1.524 . S
C534 C548 1.377 1_545 S
C535 C534 1.524 . S
C535 C536 1.397 1_545 S
C535 C540 1.363 . S
C536 H513 0.950 . S
C536 C535 1.397 1_565 S
C536 C537 1.334 . S
C537 H514 0.950 . S
C537 C536 1.334 . S
C537 C538 1.287 . S
C538 C537 1.287 . S
C538 C539 1.524 1_565 S
C538 H557 0.913 . S
C539 H515 0.950 . S
C539 C538 1.524 1_545 S
C539 C540 1.415 . S
C540 H516 0.950 . S
C540 C535 1.363 . S
C540 C539 1.415 . S
C541 H517 0.951 . S
C541 C542 1.366 . S
C541 C543 1.388 . S
C542 C541 1.366 . S
C542 C546 1.385 . S
C543 H518 0.951 . S
C543 C541 1.388 . S
C543 C544 1.366 . S
C544 C543 1.366 . S
C544 C545 1.414 . S
C544 C547 1.499 . S
C545 H519 0.950 . S
C545 C544 1.414 . S
C545 C546 1.374 . S
C546 H520 0.950 . S
C546 C542 1.385 . S
C546 C545 1.374 . S
C547 C544 1.499 . S
C547 C548 1.373 . S
C547 C549 1.389 . S
C548 H521 0.950 . S
C548 C534 1.377 1_565 S
C548 C547 1.373 . S
C549 C533 1.377 1_565 S
C549 C547 1.389 . S
C549 C550 1.524 . S
C550 C549 1.524 . S
C550 C551 1.397 1_565 S
C550 C555 1.363 . S
C551 H522 0.950 . S
C551 C550 1.397 1_545 S
C551 C552 1.334 . S
C552 H523 0.950 . S
C552 C551 1.334 . S
C552 C553 1.287 . S
C553 C552 1.287 . S
C553 C554 1.524 1_545 S
C553 H556 0.999 . S
C554 H524 0.950 . S
C554 C553 1.524 1_565 S
C554 C555 1.415 . S
C555 H525 0.950 . S
C555 C550 1.363 . S
C555 C554 1.415 . S
H556 C553 0.999 . S
H557 C538 0.913 . S
H558 C576 0.951 . S
H559 C578 0.951 . S
H560 C580 0.950 . S
H561 C581 0.950 . S
H562 C583 0.950 . S
H563 C586 0.950 . S
H564 C587 0.950 . S
H565 C589 0.950 . S
H566 C590 0.950 . S
H567 C591 0.951 . S
H568 C593 0.951 . S
H569 C595 0.950 . S
H570 C596 0.950 . S
H571 C598 0.950 . S
H572 C601 0.950 . S
H573 C602 0.950 . S
H574 C604 0.950 . S
H575 C605 0.950 . S
C576 H558 0.951 . S
C576 C577 1.366 . S
C576 C578 1.388 . S
C577 C576 1.366 . S
C577 C581 1.385 . S
C578 H559 0.951 . S
C578 C576 1.388 . S
C578 C579 1.366 . S
C579 C578 1.366 . S
C579 C580 1.414 . S
C579 C582 1.499 . S
C580 H560 0.950 . S
C580 C579 1.414 . S
C580 C581 1.374 . S
C581 H561 0.950 . S
C581 C577 1.385 . S
C581 C580 1.374 . S
C582 C579 1.499 . S
C582 C583 1.373 . S
C582 C584 1.389 . S
C583 H562 0.950 . S
C583 C582 1.373 . S
C583 C599 1.377 . S
C584 C582 1.389 . S
C584 C585 1.524 . S
C584 C598 1.377 . S
C585 C584 1.524 . S
C585 C586 1.397 . S
C585 C590 1.363 . S
C586 H563 0.950 . S
C586 C585 1.397 . S
C586 C587 1.334 . S
C587 H564 0.950 . S
C587 C586 1.334 . S
C587 C588 1.287 . S
C588 C587 1.287 . S
C588 C589 1.524 . S
C588 H607 0.913 . S
C589 H565 0.950 . S
C589 C588 1.524 . S
C589 C590 1.415 . S
C590 H566 0.950 . S
C590 C585 1.363 . S
C590 C589 1.415 . S
C591 H567 0.951 . S
C591 C592 1.366 . S
C591 C593 1.388 . S
C592 C591 1.366 . S
C592 C596 1.385 . S
C593 H568 0.951 . S
C593 C591 1.388 . S
C593 C594 1.366 . S
C594 C593 1.366 . S
C594 C595 1.414 . S
C594 C597 1.499 . S
C595 H569 0.950 . S
C595 C594 1.414 . S
C595 C596 1.374 . S
C596 H570 0.950 . S
C596 C592 1.385 . S
C596 C595 1.374 . S
C597 C594 1.499 . S
C597 C598 1.373 . S
C597 C599 1.389 . S
C598 H571 0.950 . S
C598 C584 1.377 . S
C598 C597 1.373 . S
C599 C583 1.377 . S
C599 C597 1.389 . S
C599 C600 1.524 . S
C600 C599 1.524 . S
C600 C601 1.397 . S
C600 C605 1.363 . S
C601 H572 0.950 . S
C601 C600 1.397 . S
C601 C602 1.334 . S
C602 H573 0.950 . S
C602 C601 1.334 . S
C602 C603 1.287 . S
C603 C602 1.287 . S
C603 C604 1.524 . S
C603 H606 0.999 . S
C604 H574 0.950 . S
C604 C603 1.524 . S
C604 C605 1.415 . S
C605 H575 0.950 . S
C605 C600 1.363 . S
C605 C604 1.415 . S
H606 C603 0.999 . S
H607 C588 0.913 . S
H608 C626 0.951 . S
H609 C628 0.951 . S
H610 C630 0.950 . S
H611 C631 0.950 . S
H612 C633 0.950 . S
H613 C636 0.950 . S
H614 C637 0.950 . S
H615 C639 0.950 . S
H616 C640 0.950 . S
H617 C641 0.951 . S
H618 C643 0.951 . S
H619 C645 0.950 . S
H620 C646 0.950 . S
H621 C648 0.950 . S
H622 C651 0.950 . S
H623 C652 0.950 . S
H624 C654 0.950 . S
H625 C655 0.950 . S
C626 H608 0.951 . S
C626 C627 1.366 . S
C626 C628 1.388 . S
C627 C626 1.366 . S
C627 C631 1.385 . S
C628 H609 0.951 . S
C628 C626 1.388 . S
C628 C629 1.366 . S
C629 C628 1.366 . S
C629 C630 1.414 . S
C629 C632 1.499 . S
C630 H610 0.950 . S
C630 C629 1.414 . S
C630 C631 1.374 . S
C631 H611 0.950 . S
C631 C627 1.385 . S
C631 C630 1.374 . S
C632 C629 1.499 . S
C632 C633 1.373 . S
C632 C634 1.389 . S
C633 H612 0.950 . S
C633 C632 1.373 . S
C633 C649 1.377 1_455 S
C634 C632 1.389 . S
C634 C635 1.524 . S
C634 C648 1.377 1_455 S
C635 C634 1.524 . S
C635 C636 1.397 . S
C635 C640 1.363 . S
C636 H613 0.950 . S
C636 C635 1.397 . S
C636 C637 1.334 . S
C637 H614 0.950 . S
C637 C636 1.334 . S
C637 C638 1.287 . S
C638 C637 1.287 . S
C638 C639 1.524 . S
C638 H657 0.913 . S
C639 H615 0.950 . S
C639 C638 1.524 . S
C639 C640 1.415 . S
C640 H616 0.950 . S
C640 C635 1.363 . S
C640 C639 1.415 . S
C641 H617 0.951 . S
C641 C642 1.366 . S
C641 C643 1.388 . S
C642 C641 1.366 . S
C642 C646 1.385 . S
C643 H618 0.951 . S
C643 C641 1.388 . S
C643 C644 1.366 . S
C644 C643 1.366 . S
C644 C645 1.414 . S
C644 C647 1.499 . S
C645 H619 0.950 . S
C645 C644 1.414 . S
C645 C646 1.374 . S
C646 H620 0.950 . S
C646 C642 1.385 . S
C646 C645 1.374 . S
C647 C644 1.499 . S
C647 C648 1.373 . S
C647 C649 1.389 . S
C648 H621 0.950 . S
C648 C634 1.377 1_655 S
C648 C647 1.373 . S
C649 C633 1.377 1_655 S
C649 C647 1.389 . S
C649 C650 1.524 . S
C650 C649 1.524 . S
C650 C651 1.397 . S
C650 C655 1.363 . S
C651 H622 0.950 . S
C651 C650 1.397 . S
C651 C652 1.334 . S
C652 H623 0.950 . S
C652 C651 1.334 . S
C652 C653 1.287 . S
C653 C652 1.287 . S
C653 C654 1.524 . S
C653 H656 0.999 . S
C654 H624 0.950 . S
C654 C653 1.524 . S
C654 C655 1.415 . S
C655 H625 0.950 . S
C655 C650 1.363 . S
C655 C654 1.415 . S
H656 C653 0.999 . S
H657 C638 0.913 . S
H658 C676 0.951 . S
H659 C678 0.951 . S
H660 C680 0.950 . S
H661 C681 0.950 . S
H662 C683 0.950 . S
H663 C686 0.950 . S
H664 C687 0.950 . S
H665 C689 0.950 . S
H666 C690 0.950 . S
H667 C691 0.951 . S
H668 C693 0.951 . S
H669 C695 0.950 . S
H670 C696 0.950 . S
H671 C698 0.950 . S
H672 C701 0.950 . S
H673 C702 0.950 . S
H674 C704 0.950 . S
H675 C705 0.950 . S
C676 H658 0.951 . S
C676 C677 1.366 . S
C676 C678 1.388 . S
C677 C676 1.366 . S
C677 C681 1.385 . S
C678 H659 0.951 . S
C678 C676 1.388 . S
C678 C679 1.366 . S
C679 C678 1.366 . S
C679 C680 1.414 . S
C679 C682 1.499 . S
C680 H660 0.950 . S
C680 C679 1.414 . S
C680 C681 1.374 . S
C681 H661 0.950 . S
C681 C677 1.385 . S
C681 C680 1.374 . S
C682 C679 1.499 . S
C682 C683 1.373 1_565 S
C682 C684 1.389 . S
C683 H662 0.950 . S
C683 C682 1.373 1_545 S
C683 C699 1.377 . S
C684 C682 1.389 . S
C684 C685 1.524 . S
C684 C698 1.377 . S
C685 C684 1.524 . S
C685 C686 1.397 . S
C685 C690 1.363 . S
C686 H663 0.950 . S
C686 C685 1.397 . S
C686 C687 1.334 . S
C687 H664 0.950 . S
C687 C686 1.334 . S
C687 C688 1.287 . S
C688 C687 1.287 . S
C688 C689 1.524 . S
C688 H707 0.913 . S
C689 H665 0.950 . S
C689 C688 1.524 . S
C689 C690 1.415 . S
C690 H666 0.950 . S
C690 C685 1.363 . S
C690 C689 1.415 . S
C691 H667 0.951 . S
C691 C692 1.366 . S
C691 C693 1.388 . S
C692 C691 1.366 . S
C692 C696 1.385 . S
C693 H668 0.951 . S
C693 C691 1.388 . S
C693 C694 1.366 . S
C694 C693 1.366 . S
C694 C695 1.414 . S
C694 C697 1.499 . S
C695 H669 0.950 . S
C695 C694 1.414 . S
C695 C696 1.374 . S
C696 H670 0.950 . S
C696 C692 1.385 . S
C696 C695 1.374 . S
C697 C694 1.499 . S
C697 C698 1.373 1_545 S
C697 C699 1.389 . S
C698 H671 0.950 . S
C698 C684 1.377 . S
C698 C697 1.373 1_565 S
C699 C683 1.377 . S
C699 C697 1.389 . S
C699 C700 1.524 . S
C700 C699 1.524 . S
C700 C701 1.397 . S
C700 C705 1.363 . S
C701 H672 0.950 . S
C701 C700 1.397 . S
C701 C702 1.334 . S
C702 H673 0.950 . S
C702 C701 1.334 . S
C702 C703 1.287 . S
C703 C702 1.287 . S
C703 C704 1.524 . S
C703 H706 0.999 . S
C704 H674 0.950 . S
C704 C703 1.524 . S
C704 C705 1.415 . S
C705 H675 0.950 . S
C705 C700 1.363 . S
C705 C704 1.415 . S
H706 C703 0.999 . S
H707 C688 0.913 . S
H708 C726 0.951 . S
H709 C728 0.951 . S
H710 C730 0.950 . S
H711 C731 0.950 . S
H712 C733 0.950 . S
H713 C736 0.950 . S
H714 C737 0.950 . S
H715 C739 0.950 . S
H716 C740 0.950 . S
H717 C741 0.951 . S
H718 C743 0.951 . S
H719 C745 0.950 . S
H720 C746 0.950 . S
H721 C748 0.950 . S
H722 C751 0.950 . S
H723 C752 0.950 . S
H724 C754 0.950 . S
H725 C755 0.950 . S
C726 H708 0.951 . S
C726 C727 1.366 . S
C726 C728 1.388 . S
C727 C726 1.366 . S
C727 C731 1.385 . S
C728 H709 0.951 . S
C728 C726 1.388 . S
C728 C729 1.366 . S
C729 C728 1.366 . S
C729 C730 1.414 . S
C729 C732 1.499 . S
C730 H710 0.950 . S
C730 C729 1.414 . S
C730 C731 1.374 . S
C731 H711 0.950 . S
C731 C727 1.385 . S
C731 C730 1.374 . S
C732 C729 1.499 . S
C732 C733 1.373 . S
C732 C734 1.389 . S
C733 H712 0.950 . S
C733 C732 1.373 . S
C733 C749 1.377 1_554 S
C734 C732 1.389 . S
C734 C735 1.524 . S
C734 C748 1.377 1_554 S
C735 C734 1.524 . S
C735 C736 1.397 . S
C735 C740 1.363 . S
C736 H713 0.950 . S
C736 C735 1.397 . S
C736 C737 1.334 . S
C737 H714 0.950 . S
C737 C736 1.334 . S
C737 C738 1.287 . S
C738 C737 1.287 . S
C738 C739 1.524 . S
C738 H757 0.913 . S
C739 H715 0.950 . S
C739 C738 1.524 . S
C739 C740 1.415 . S
C740 H716 0.950 . S
C740 C735 1.363 . S
C740 C739 1.415 . S
C741 H717 0.951 . S
C741 C742 1.366 . S
C741 C743 1.388 . S
C742 C741 1.366 . S
C742 C746 1.385 . S
C743 H718 0.951 . S
C743 C741 1.388 . S
C743 C744 1.366 . S
C744 C743 1.366 . S
C744 C745 1.414 . S
C744 C747 1.499 . S
C745 H719 0.950 . S
C745 C744 1.414 . S
C745 C746 1.374 . S
C746 H720 0.950 . S
C746 C742 1.385 . S
C746 C745 1.374 . S
C747 C744 1.499 . S
C747 C748 1.373 . S
C747 C749 1.389 . S
C748 H721 0.950 . S
C748 C734 1.377 1_556 S
C748 C747 1.373 . S
C749 C733 1.377 1_556 S
C749 C747 1.389 . S
C749 C750 1.524 . S
C750 C749 1.524 . S
C750 C751 1.397 . S
C750 C755 1.363 . S
C751 H722 0.950 . S
C751 C750 1.397 . S
C751 C752 1.334 . S
C752 H723 0.950 . S
C752 C751 1.334 . S
C752 C753 1.287 . S
C753 C752 1.287 . S
C753 C754 1.524 . S
C753 H756 0.999 . S
C754 H724 0.950 . S
C754 C753 1.524 . S
C754 C755 1.415 . S
C755 H725 0.950 . S
C755 C750 1.363 . S
C755 C754 1.415 . S
H756 C753 0.999 . S
H757 C738 0.913 . S
H758 C776 0.951 . S
H759 C778 0.951 . S
H760 C780 0.950 . S
H761 C781 0.950 . S
H762 C783 0.950 . S
H763 C786 0.950 . S
H764 C787 0.950 . S
H765 C789 0.950 . S
H766 C790 0.950 . S
H767 C791 0.951 . S
H768 C793 0.951 . S
H769 C795 0.950 . S
H770 C796 0.950 . S
H771 C798 0.950 . S
H772 C801 0.950 . S
H773 C802 0.950 . S
H774 C804 0.950 . S
H775 C805 0.950 . S
C776 H758 0.951 . S
C776 C777 1.366 . S
C776 C778 1.388 . S
C777 C776 1.366 . S
C777 C781 1.385 . S
C778 H759 0.951 . S
C778 C776 1.388 . S
C778 C779 1.366 . S
C779 C778 1.366 . S
C779 C780 1.414 . S
C779 C782 1.499 . S
C780 H760 0.950 . S
C780 C779 1.414 . S
C780 C781 1.374 . S
C781 H761 0.950 . S
C781 C777 1.385 . S
C781 C780 1.374 . S
C782 C779 1.499 . S
C782 C783 1.373 . S
C782 C784 1.389 . S
C783 H762 0.950 . S
C783 C782 1.373 . S
C783 C799 1.377 . S
C784 C782 1.389 . S
C784 C785 1.524 . S
C784 C798 1.377 . S
C785 C784 1.524 . S
C785 C786 1.397 . S
C785 C790 1.363 . S
C786 H763 0.950 . S
C786 C785 1.397 . S
C786 C787 1.334 . S
C787 H764 0.950 . S
C787 C786 1.334 . S
C787 C788 1.287 . S
C788 C787 1.287 . S
C788 C789 1.524 . S
C788 H807 0.913 . S
C789 H765 0.950 . S
C789 C788 1.524 . S
C789 C790 1.415 . S
C790 H766 0.950 . S
C790 C785 1.363 . S
C790 C789 1.415 . S
C791 H767 0.951 . S
C791 C792 1.366 . S
C791 C793 1.388 . S
C792 C791 1.366 . S
C792 C796 1.385 . S
C793 H768 0.951 . S
C793 C791 1.388 . S
C793 C794 1.366 . S
C794 C793 1.366 . S
C794 C795 1.414 . S
C794 C797 1.499 . S
C795 H769 0.950 . S
C795 C794 1.414 . S
C795 C796 1.374 . S
C796 H770 0.950 . S
C796 C792 1.385 . S
C796 C795 1.374 . S
C797 C794 1.499 . S
C797 C798 1.373 . S
C797 C799 1.389 . S
C798 H771 0.950 . S
C798 C784 1.377 . S
C798 C797 1.373 . S
C799 C783 1.377 . S
C799 C797 1.389 . S
C799 C800 1.524 . S
C800 C799 1.524 . S
C800 C801 1.397 . S
C800 C805 1.363 . S
C801 H772 0.950 . S
C801 C800 1.397 . S
C801 C802 1.334 . S
C802 H773 0.950 . S
C802 C801 1.334 . S
C802 C803 1.287 . S
C803 C802 1.287 . S
C803 C804 1.524 . S
C803 H806 0.999 . S
C804 H774 0.950 . S
C804 C803 1.524 . S
C804 C805 1.415 . S
C805 H775 0.950 . S
C805 C800 1.363 . S
C805 C804 1.415 . S
H806 C803 0.999 . S
H807 C788 0.913 . S
H808 C826 0.951 . S
H809 C828 0.951 . S
H810 C830 0.950 . S
H811 C831 0.950 . S
H812 C833 0.950 . S
H813 C836 0.950 . S
H814 C837 0.950 . S
H815 C839 0.950 . S
H816 C840 0.950 . S
H817 C841 0.951 . S
H818 C843 0.951 . S
H819 C845 0.950 . S
H820 C846 0.950 . S
H821 C848 0.950 . S
H822 C851 0.950 . S
H823 C852 0.950 . S
H824 C854 0.950 . S
H825 C855 0.950 . S
C826 H808 0.951 . S
C826 C827 1.366 . S
C826 C828 1.388 . S
C827 C826 1.366 . S
C827 C831 1.385 . S
C828 H809 0.951 . S
C828 C826 1.388 . S
C828 C829 1.366 . S
C829 C828 1.366 . S
C829 C830 1.414 . S
C829 C832 1.499 . S
C830 H810 0.950 . S
C830 C829 1.414 . S
C830 C831 1.374 . S
C831 H811 0.950 . S
C831 C827 1.385 . S
C831 C830 1.374 . S
C832 C829 1.499 . S
C832 C833 1.373 . S
C832 C834 1.389 . S
C833 H812 0.950 . S
C833 C832 1.373 . S
C833 C849 1.377 . S
C834 C832 1.389 . S
C834 C835 1.524 . S
C834 C848 1.377 . S
C835 C834 1.524 . S
C835 C836 1.397 . S
C835 C840 1.363 . S
C836 H813 0.950 . S
C836 C835 1.397 . S
C836 C837 1.334 . S
C837 H814 0.950 . S
C837 C836 1.334 . S
C837 C838 1.287 . S
C838 C837 1.287 . S
C838 C839 1.524 . S
C838 H857 0.913 . S
C839 H815 0.950 . S
C839 C838 1.524 . S
C839 C840 1.415 . S
C840 H816 0.950 . S
C840 C835 1.363 . S
C840 C839 1.415 . S
C841 H817 0.951 . S
C841 C842 1.366 . S
C841 C843 1.388 . S
C842 C841 1.366 . S
C842 C846 1.385 . S
C843 H818 0.951 . S
C843 C841 1.388 . S
C843 C844 1.366 . S
C844 C843 1.366 . S
C844 C845 1.414 . S
C844 C847 1.499 . S
C845 H819 0.950 . S
C845 C844 1.414 . S
C845 C846 1.374 . S
C846 H820 0.950 . S
C846 C842 1.385 . S
C846 C845 1.374 . S
C847 C844 1.499 . S
C847 C848 1.373 . S
C847 C849 1.389 . S
C848 H821 0.950 . S
C848 C834 1.377 . S
C848 C847 1.373 . S
C849 C833 1.377 . S
C849 C847 1.389 . S
C849 C850 1.524 . S
C850 C849 1.524 . S
C850 C851 1.397 . S
C850 C855 1.363 . S
C851 H822 0.950 . S
C851 C850 1.397 . S
C851 C852 1.334 . S
C852 H823 0.950 . S
C852 C851 1.334 . S
C852 C853 1.287 . S
C853 C852 1.287 . S
C853 C854 1.524 . S
C853 H856 0.999 . S
C854 H824 0.950 . S
C854 C853 1.524 . S
C854 C855 1.415 . S
C855 H825 0.950 . S
C855 C850 1.363 . S
C855 C854 1.415 . S
H856 C853 0.999 . S
H857 C838 0.913 . S
H858 C876 0.951 . S
H859 C878 0.951 . S
H860 C880 0.950 . S
H861 C881 0.950 . S
H862 C883 0.950 . S
H863 C886 0.950 . S
H864 C887 0.950 . S
H865 C889 0.950 . S
H866 C890 0.950 . S
H867 C891 0.951 . S
H868 C893 0.951 . S
H869 C895 0.950 . S
H870 C896 0.950 . S
H871 C898 0.950 . S
H872 C901 0.950 . S
H873 C902 0.950 . S
H874 C904 0.950 . S
H875 C905 0.950 . S
C876 H858 0.951 . S
C876 C877 1.366 . S
C876 C878 1.388 . S
C877 C876 1.366 . S
C877 C881 1.385 . S
C878 H859 0.951 . S
C878 C876 1.388 . S
C878 C879 1.366 . S
C879 C878 1.366 . S
C879 C880 1.414 . S
C879 C882 1.499 . S
C880 H860 0.950 . S
C880 C879 1.414 . S
C880 C881 1.374 . S
C881 H861 0.950 . S
C881 C877 1.385 . S
C881 C880 1.374 . S
C882 C879 1.499 . S
C882 C883 1.373 . S
C882 C884 1.389 . S
C883 H862 0.950 . S
C883 C882 1.373 . S
C883 C899 1.377 1_554 S
C884 C882 1.389 . S
C884 C885 1.524 . S
C884 C898 1.377 1_554 S
C885 C884 1.524 . S
C885 C886 1.397 . S
C885 C890 1.363 . S
C886 H863 0.950 . S
C886 C885 1.397 . S
C886 C887 1.334 . S
C887 H864 0.950 . S
C887 C886 1.334 . S
C887 C888 1.287 . S
C888 C887 1.287 . S
C888 C889 1.524 . S
C888 H907 0.913 . S
C889 H865 0.950 . S
C889 C888 1.524 . S
C889 C890 1.415 . S
C890 H866 0.950 . S
C890 C885 1.363 . S
C890 C889 1.415 . S
C891 H867 0.951 . S
C891 C892 1.366 . S
C891 C893 1.388 . S
C892 C891 1.366 . S
C892 C896 1.385 . S
C893 H868 0.951 . S
C893 C891 1.388 . S
C893 C894 1.366 . S
C894 C893 1.366 . S
C894 C895 1.414 . S
C894 C897 1.499 . S
C895 H869 0.950 . S
C895 C894 1.414 . S
C895 C896 1.374 . S
C896 H870 0.950 . S
C896 C892 1.385 . S
C896 C895 1.374 . S
C897 C894 1.499 . S
C897 C898 1.373 . S
C897 C899 1.389 . S
C898 H871 0.950 . S
C898 C884 1.377 1_556 S
C898 C897 1.373 . S
C899 C883 1.377 1_556 S
C899 C897 1.389 . S
C899 C900 1.524 . S
C900 C899 1.524 . S
C900 C901 1.397 . S
C900 C905 1.363 . S
C901 H872 0.950 . S
C901 C900 1.397 . S
C901 C902 1.334 . S
C902 H873 0.950 . S
C902 C901 1.334 . S
C902 C903 1.287 . S
C903 C902 1.287 . S
C903 C904 1.524 . S
C903 H906 0.999 . S
C904 H874 0.950 . S
C904 C903 1.524 . S
C904 C905 1.415 . S
C905 H875 0.950 . S
C905 C900 1.363 . S
C905 C904 1.415 . S
H906 C903 0.999 . S
H907 C888 0.913 . S
H908 C926 0.951 . S
H909 C928 0.951 . S
H910 C930 0.950 . S
H911 C931 0.950 . S
H912 C933 0.950 . S
H913 C936 0.950 . S
H914 C937 0.950 . S
H915 C939 0.950 . S
H916 C940 0.950 . S
H917 C941 0.951 . S
H918 C943 0.951 . S
H919 C945 0.950 . S
H920 C946 0.950 . S
H921 C948 0.950 . S
H922 C951 0.950 . S
H923 C952 0.950 . S
H924 C954 0.950 . S
H925 C955 0.950 . S
C926 H908 0.951 . S
C926 C927 1.366 . S
C926 C928 1.388 . S
C927 C926 1.366 . S
C927 C931 1.385 . S
C928 H909 0.951 . S
C928 C926 1.388 . S
C928 C929 1.366 . S
C929 C928 1.366 . S
C929 C930 1.414 . S
C929 C932 1.499 . S
C930 H910 0.950 . S
C930 C929 1.414 . S
C930 C931 1.374 . S
C931 H911 0.950 . S
C931 C927 1.385 . S
C931 C930 1.374 . S
C932 C929 1.499 . S
C932 C933 1.373 . S
C932 C934 1.389 . S
C933 H912 0.950 . S
C933 C932 1.373 . S
C933 C949 1.377 . S
C934 C932 1.389 . S
C934 C935 1.524 . S
C934 C948 1.377 . S
C935 C934 1.524 . S
C935 C936 1.397 . S
C935 C940 1.363 . S
C936 H913 0.950 . S
C936 C935 1.397 . S
C936 C937 1.334 . S
C937 H914 0.950 . S
C937 C936 1.334 . S
C937 C938 1.287 . S
C938 C937 1.287 . S
C938 C939 1.524 . S
C938 H957 0.913 . S
C939 H915 0.950 . S
C939 C938 1.524 . S
C939 C940 1.415 . S
C940 H916 0.950 . S
C940 C935 1.363 . S
C940 C939 1.415 . S
C941 H917 0.951 . S
C941 C942 1.366 . S
C941 C943 1.388 . S
C942 C941 1.366 . S
C942 C946 1.385 . S
C943 H918 0.951 . S
C943 C941 1.388 . S
C943 C944 1.366 . S
C944 C943 1.366 . S
C944 C945 1.414 . S
C944 C947 1.499 . S
C945 H919 0.950 . S
C945 C944 1.414 . S
C945 C946 1.374 . S
C946 H920 0.950 . S
C946 C942 1.385 . S
C946 C945 1.374 . S
C947 C944 1.499 . S
C947 C948 1.373 . S
C947 C949 1.389 . S
C948 H921 0.950 . S
C948 C934 1.377 . S
C948 C947 1.373 . S
C949 C933 1.377 . S
C949 C947 1.389 . S
C949 C950 1.524 . S
C950 C949 1.524 . S
C950 C951 1.397 . S
C950 C955 1.363 . S
C951 H922 0.950 . S
C951 C950 1.397 . S
C951 C952 1.334 . S
C952 H923 0.950 . S
C952 C951 1.334 . S
C952 C953 1.287 . S
C953 C952 1.287 . S
C953 C954 1.524 . S
C953 H956 0.999 . S
C954 H924 0.950 . S
C954 C953 1.524 . S
C954 C955 1.415 . S
C955 H925 0.950 . S
C955 C950 1.363 . S
C955 C954 1.415 . S
H956 C953 0.999 . S
H957 C938 0.913 . S
H958 C976 0.951 . S
H959 C978 0.951 . S
H960 C980 0.950 . S
H961 C981 0.950 . S
H962 C983 0.950 . S
H963 C986 0.950 . S
H964 C987 0.950 . S
H965 C989 0.950 . S
H966 C990 0.950 . S
H967 C991 0.951 . S
H968 C993 0.951 . S
H969 C995 0.950 . S
H970 C996 0.950 . S
H971 C998 0.950 . S
H972 C1001 0.950 . S
H973 C1002 0.950 . S
H974 C1004 0.950 . S
H975 C1005 0.950 . S
C976 H958 0.951 . S
C976 C977 1.366 . S
C976 C978 1.388 . S
C977 C976 1.366 . S
C977 C981 1.385 . S
C978 H959 0.951 . S
C978 C976 1.388 . S
C978 C979 1.366 . S
C979 C978 1.366 . S
C979 C980 1.414 . S
C979 C982 1.499 . S
C980 H960 0.950 . S
C980 C979 1.414 . S
C980 C981 1.374 . S
C981 H961 0.950 . S
C981 C977 1.385 . S
C981 C980 1.374 . S
C982 C979 1.499 . S
C982 C983 1.373 . S
C982 C984 1.389 . S
C983 H962 0.950 . S
C983 C982 1.373 . S
C983 C999 1.377 . S
C984 C982 1.389 . S
C984 C985 1.524 . S
C984 C998 1.377 . S
C985 C984 1.524 . S
C985 C986 1.397 . S
C985 C990 1.363 . S
C986 H963 0.950 . S
C986 C985 1.397 . S
C986 C987 1.334 . S
C987 H964 0.950 . S
C987 C986 1.334 . S
C987 C988 1.287 . S
C988 C987 1.287 . S
C988 C989 1.524 . S
C988 H1007 0.913 . S
C989 H965 0.950 . S
C989 C988 1.524 . S
C989 C990 1.415 . S
C990 H966 0.950 . S
C990 C985 1.363 . S
C990 C989 1.415 . S
C991 H967 0.951 . S
C991 C992 1.366 . S
C991 C993 1.388 . S
C992 C991 1.366 . S
C992 C996 1.385 . S
C993 H968 0.951 . S
C993 C991 1.388 . S
C993 C994 1.366 . S
C994 C993 1.366 . S
C994 C995 1.414 . S
C994 C997 1.499 . S
C995 H969 0.950 . S
C995 C994 1.414 . S
C995 C996 1.374 . S
C996 H970 0.950 . S
C996 C992 1.385 . S
C996 C995 1.374 . S
C997 C994 1.499 . S
C997 C998 1.373 . S
C997 C999 1.389 . S
C998 H971 0.950 . S
C998 C984 1.377 . S
C998 C997 1.373 . S
C999 C983 1.377 . S
C999 C997 1.389 . S
C999 C1000 1.524 . S
C1000 C999 1.524 . S
C1000 C1001 1.397 . S
C1000 C1005 1.363 . S
C1001 H972 0.950 . S
C1001 C1000 1.397 . S
C1001 C1002 1.334 . S
C1002 H973 0.950 . S
C1002 C1001 1.334 . S
C1002 C1003 1.287 . S
C1003 C1002 1.287 . S
C1003 C1004 1.524 . S
C1003 H1006 0.999 . S
C1004 H974 0.950 . S
C1004 C1003 1.524 . S
C1004 C1005 1.415 . S
C1005 H975 0.950 . S
C1005 C1000 1.363 . S
C1005 C1004 1.415 . S
H1006 C1003 0.999 . S
H1007 C988 0.913 . S
H1008 C1026 0.951 . S
H1009 C1028 0.951 . S
H1010 C1030 0.950 . S
H1011 C1031 0.950 . S
H1012 C1033 0.950 . S
H1013 C1036 0.950 . S
H1014 C1037 0.950 . S
H1015 C1039 0.950 . S
H1016 C1040 0.950 . S
H1017 C1041 0.951 . S
H1018 C1043 0.951 . S
H1019 C1045 0.950 . S
H1020 C1046 0.950 . S
H1021 C1048 0.950 . S
H1022 C1051 0.950 . S
H1023 C1052 0.950 . S
H1024 C1054 0.950 . S
H1025 C1055 0.950 . S
C1026 H1008 0.951 . S
C1026 C1027 1.366 . S
C1026 C1028 1.388 . S
C1027 C1026 1.366 . S
C1027 C1031 1.385 . S
C1028 H1009 0.951 . S
C1028 C1026 1.388 . S
C1028 C1029 1.366 . S
C1029 C1028 1.366 . S
C1029 C1030 1.414 . S
C1029 C1032 1.499 . S
C1030 H1010 0.950 . S
C1030 C1029 1.414 . S
C1030 C1031 1.374 . S
C1031 H1011 0.950 . S
C1031 C1027 1.385 . S
C1031 C1030 1.374 . S
C1032 C1029 1.499 . S
C1032 C1033 1.373 . S
C1032 C1034 1.389 . S
C1033 H1012 0.950 . S
C1033 C1032 1.373 . S
C1033 C1049 1.377 . S
C1034 C1032 1.389 . S
C1034 C1035 1.524 . S
C1034 C1048 1.377 . S
C1035 C1034 1.524 . S
C1035 C1036 1.397 . S
C1035 C1040 1.363 . S
C1036 H1013 0.950 . S
C1036 C1035 1.397 . S
C1036 C1037 1.334 . S
C1037 H1014 0.950 . S
C1037 C1036 1.334 . S
C1037 C1038 1.287 . S
C1038 C1037 1.287 . S
C1038 C1039 1.524 . S
C1038 H1057 0.913 . S
C1039 H1015 0.950 . S
C1039 C1038 1.524 . S
C1039 C1040 1.415 . S
C1040 H1016 0.950 . S
C1040 C1035 1.363 . S
C1040 C1039 1.415 . S
C1041 H1017 0.951 . S
C1041 C1042 1.366 . S
C1041 C1043 1.388 . S
C1042 C1041 1.366 . S
C1042 C1046 1.385 . S
C1043 H1018 0.951 . S
C1043 C1041 1.388 . S
C1043 C1044 1.366 . S
C1044 C1043 1.366 . S
C1044 C1045 1.414 . S
C1044 C1047 1.499 . S
C1045 H1019 0.950 . S
C1045 C1044 1.414 . S
C1045 C1046 1.374 . S
C1046 H1020 0.950 . S
C1046 C1042 1.385 . S
C1046 C1045 1.374 . S
C1047 C1044 1.499 . S
C1047 C1048 1.373 . S
C1047 C1049 1.389 . S
C1048 H1021 0.950 . S
C1048 C1034 1.377 . S
C1048 C1047 1.373 . S
C1049 C1033 1.377 . S
C1049 C1047 1.389 . S
C1049 C1050 1.524 . S
C1050 C1049 1.524 . S
C1050 C1051 1.397 . S
C1050 C1055 1.363 . S
C1051 H1022 0.950 . S
C1051 C1050 1.397 . S
C1051 C1052 1.334 . S
C1052 H1023 0.950 . S
C1052 C1051 1.334 . S
C1052 C1053 1.287 . S
C1053 C1052 1.287 . S
C1053 C1054 1.524 . S
C1053 H1056 0.999 . S
C1054 H1024 0.950 . S
C1054 C1053 1.524 . S
C1054 C1055 1.415 . S
C1055 H1025 0.950 . S
C1055 C1050 1.363 . S
C1055 C1054 1.415 . S
H1056 C1053 0.999 . S
H1057 C1038 0.913 . S
H1058 C1076 0.951 . S
H1059 C1078 0.951 . S
H1060 C1080 0.950 . S
H1061 C1081 0.950 . S
H1062 C1083 0.950 . S
H1063 C1086 0.950 . S
H1064 C1087 0.950 . S
H1065 C1089 0.950 . S
H1066 C1090 0.950 . S
H1067 C1091 0.951 . S
H1068 C1093 0.951 . S
H1069 C1095 0.950 . S
H1070 C1096 0.950 . S
H1071 C1098 0.950 . S
H1072 C1101 0.950 . S
H1073 C1102 0.950 . S
H1074 C1104 0.950 . S
H1075 C1105 0.950 . S
C1076 H1058 0.951 . S
C1076 C1077 1.366 . S
C1076 C1078 1.388 . S
C1077 C1076 1.366 . S
C1077 C1081 1.385 . S
C1078 H1059 0.951 . S
C1078 C1076 1.388 . S
C1078 C1079 1.366 . S
C1079 C1078 1.366 . S
C1079 C1080 1.414 . S
C1079 C1082 1.499 . S
C1080 H1060 0.950 . S
C1080 C1079 1.414 . S
C1080 C1081 1.374 . S
C1081 H1061 0.950 . S
C1081 C1077 1.385 . S
C1081 C1080 1.374 . S
C1082 C1079 1.499 . S
C1082 C1083 1.373 . S
C1082 C1084 1.389 1_655 S
C1083 H1062 0.950 . S
C1083 C1082 1.373 . S
C1083 C1099 1.377 . S
C1084 C1082 1.389 1_455 S
C1084 C1085 1.524 . S
C1084 C1098 1.377 . S
C1085 C1084 1.524 . S
C1085 C1086 1.397 . S
C1085 C1090 1.363 . S
C1086 H1063 0.950 . S
C1086 C1085 1.397 . S
C1086 C1087 1.334 . S
C1087 H1064 0.950 . S
C1087 C1086 1.334 . S
C1087 C1088 1.287 . S
C1088 C1087 1.287 . S
C1088 C1089 1.524 . S
C1088 H1107 0.913 . S
C1089 H1065 0.950 . S
C1089 C1088 1.524 . S
C1089 C1090 1.415 . S
C1090 H1066 0.950 . S
C1090 C1085 1.363 . S
C1090 C1089 1.415 . S
C1091 H1067 0.951 . S
C1091 C1092 1.366 . S
C1091 C1093 1.388 . S
C1092 C1091 1.366 . S
C1092 C1096 1.385 . S
C1093 H1068 0.951 . S
C1093 C1091 1.388 . S
C1093 C1094 1.366 . S
C1094 C1093 1.366 . S
C1094 C1095 1.414 . S
C1094 C1097 1.499 . S
C1095 H1069 0.950 . S
C1095 C1094 1.414 . S
C1095 C1096 1.374 . S
C1096 H1070 0.950 . S
C1096 C1092 1.385 . S
C1096 C1095 1.374 . S
C1097 C1094 1.499 . S
C1097 C1098 1.373 . S
C1097 C1099 1.389 1_455 S
C1098 H1071 0.950 . S
C1098 C1084 1.377 . S
C1098 C1097 1.373 . S
C1099 C1083 1.377 . S
C1099 C1097 1.389 1_655 S
C1099 C1100 1.524 . S
C1100 C1099 1.524 . S
C1100 C1101 1.397 . S
C1100 C1105 1.363 . S
C1101 H1072 0.950 . S
C1101 C1100 1.397 . S
C1101 C1102 1.334 . S
C1102 H1073 0.950 . S
C1102 C1101 1.334 . S
C1102 C1103 1.287 . S
C1103 C1102 1.287 . S
C1103 C1104 1.524 . S
C1103 H1106 0.999 . S
C1104 H1074 0.950 . S
C1104 C1103 1.524 . S
C1104 C1105 1.415 . S
C1105 H1075 0.950 . S
C1105 C1100 1.363 . S
C1105 C1104 1.415 . S
H1106 C1103 0.999 . S
H1107 C1088 0.913 . S
H1108 C1126 0.951 . S
H1109 C1128 0.951 . S
H1110 C1130 0.950 . S
H1111 C1131 0.950 . S
H1112 C1133 0.950 . S
H1113 C1136 0.950 1_556 S
H1114 C1137 0.950 . S
H1115 C1139 0.950 . S
H1116 C1140 0.950 . S
H1117 C1141 0.951 . S
H1118 C1143 0.951 . S
H1119 C1145 0.950 . S
H1120 C1146 0.950 . S
H1121 C1148 0.950 . S
H1122 C1151 0.950 1_554 S
H1123 C1152 0.950 . S
H1124 C1154 0.950 . S
H1125 C1155 0.950 . S
C1126 H1108 0.951 . S
C1126 C1127 1.366 . S
C1126 C1128 1.388 . S
C1127 C1126 1.366 . S
C1127 C1131 1.385 . S
C1128 H1109 0.951 . S
C1128 C1126 1.388 . S
C1128 C1129 1.366 . S
C1129 C1128 1.366 . S
C1129 C1130 1.414 . S
C1129 C1132 1.499 . S
C1130 H1110 0.950 . S
C1130 C1129 1.414 . S
C1130 C1131 1.374 . S
C1131 H1111 0.950 . S
C1131 C1127 1.385 . S
C1131 C1130 1.374 . S
C1132 C1129 1.499 . S
C1132 C1133 1.373 1_565 S
C1132 C1134 1.389 1_556 S
C1133 H1112 0.950 . S
C1133 C1132 1.373 1_545 S
C1133 C1149 1.377 . S
C1134 C1132 1.389 1_554 S
C1134 C1135 1.524 . S
C1134 C1148 1.377 . S
C1135 C1134 1.524 . S
C1135 C1136 1.397 . S
C1135 C1140 1.363 . S
C1136 H1113 0.950 1_554 S
C1136 C1135 1.397 . S
C1136 C1137 1.334 . S
C1137 H1114 0.950 . S
C1137 C1136 1.334 . S
C1137 C1138 1.287 . S
C1138 C1137 1.287 . S
C1138 C1139 1.524 . S
C1138 H1157 0.913 . S
C1139 H1115 0.950 . S
C1139 C1138 1.524 . S
C1139 C1140 1.415 . S
C1140 H1116 0.950 . S
C1140 C1135 1.363 . S
C1140 C1139 1.415 . S
C1141 H1117 0.951 . S
C1141 C1142 1.366 . S
C1141 C1143 1.388 . S
C1142 C1141 1.366 . S
C1142 C1146 1.385 . S
C1143 H1118 0.951 . S
C1143 C1141 1.388 . S
C1143 C1144 1.366 . S
C1144 C1143 1.366 . S
C1144 C1145 1.414 . S
C1144 C1147 1.499 . S
C1145 H1119 0.950 . S
C1145 C1144 1.414 . S
C1145 C1146 1.374 . S
C1146 H1120 0.950 . S
C1146 C1142 1.385 . S
C1146 C1145 1.374 . S
C1147 C1144 1.499 . S
C1147 C1148 1.373 1_545 S
C1147 C1149 1.389 1_554 S
C1148 H1121 0.950 . S
C1148 C1134 1.377 . S
C1148 C1147 1.373 1_565 S
C1149 C1133 1.377 . S
C1149 C1147 1.389 1_556 S
C1149 C1150 1.524 . S
C1150 C1149 1.524 . S
C1150 C1151 1.397 . S
C1150 C1155 1.363 . S
C1151 H1122 0.950 1_556 S
C1151 C1150 1.397 . S
C1151 C1152 1.334 . S
C1152 H1123 0.950 . S
C1152 C1151 1.334 . S
C1152 C1153 1.287 . S
C1153 C1152 1.287 . S
C1153 C1154 1.524 . S
C1153 H1156 0.999 . S
C1154 H1124 0.950 . S
C1154 C1153 1.524 . S
C1154 C1155 1.415 . S
C1155 H1125 0.950 . S
C1155 C1150 1.363 . S
C1155 C1154 1.415 . S
H1156 C1153 0.999 . S
H1157 C1138 0.913 . S
H1158 C1176 0.951 . S
H1159 C1178 0.951 . S
H1160 C1180 0.950 . S
H1161 C1181 0.950 . S
H1162 C1183 0.950 . S
H1163 C1186 0.950 . S
H1164 C1187 0.950 . S
H1165 C1189 0.950 . S
H1166 C1190 0.950 . S
H1167 C1191 0.951 . S
H1168 C1193 0.951 . S
H1169 C1195 0.950 . S
H1170 C1196 0.950 . S
H1171 C1198 0.950 . S
H1172 C1201 0.950 . S
H1173 C1202 0.950 . S
H1174 C1204 0.950 . S
H1175 C1205 0.950 . S
C1176 H1158 0.951 . S
C1176 C1177 1.366 . S
C1176 C1178 1.388 . S
C1177 C1176 1.366 . S
C1177 C1181 1.385 . S
C1178 H1159 0.951 . S
C1178 C1176 1.388 . S
C1178 C1179 1.366 . S
C1179 C1178 1.366 . S
C1179 C1180 1.414 . S
C1179 C1182 1.499 . S
C1180 H1160 0.950 . S
C1180 C1179 1.414 . S
C1180 C1181 1.374 . S
C1181 H1161 0.950 . S
C1181 C1177 1.385 . S
C1181 C1180 1.374 . S
C1182 C1179 1.499 . S
C1182 C1183 1.373 . S
C1182 C1184 1.389 . S
C1183 H1162 0.950 . S
C1183 C1182 1.373 . S
C1183 C1199 1.377 . S
C1184 C1182 1.389 . S
C1184 C1185 1.524 . S
C1184 C1198 1.377 . S
C1185 C1184 1.524 . S
C1185 C1186 1.397 . S
C1185 C1190 1.363 . S
C1186 H1163 0.950 . S
C1186 C1185 1.397 . S
C1186 C1187 1.334 . S
C1187 H1164 0.950 . S
C1187 C1186 1.334 . S
C1187 C1188 1.287 . S
C1188 C1187 1.287 . S
C1188 C1189 1.524 . S
C1188 H1207 0.913 . S
C1189 H1165 0.950 . S
C1189 C1188 1.524 . S
C1189 C1190 1.415 . S
C1190 H1166 0.950 . S
C1190 C1185 1.363 . S
C1190 C1189 1.415 . S
C1191 H1167 0.951 . S
C1191 C1192 1.366 . S
C1191 C1193 1.388 . S
C1192 C1191 1.366 . S
C1192 C1196 1.385 . S
C1193 H1168 0.951 . S
C1193 C1191 1.388 . S
C1193 C1194 1.366 . S
C1194 C1193 1.366 . S
C1194 C1195 1.414 . S
C1194 C1197 1.499 . S
C1195 H1169 0.950 . S
C1195 C1194 1.414 . S
C1195 C1196 1.374 . S
C1196 H1170 0.950 . S
C1196 C1192 1.385 . S
C1196 C1195 1.374 . S
C1197 C1194 1.499 . S
C1197 C1198 1.373 . S
C1197 C1199 1.389 . S
C1198 H1171 0.950 . S
C1198 C1184 1.377 . S
C1198 C1197 1.373 . S
C1199 C1183 1.377 . S
C1199 C1197 1.389 . S
C1199 C1200 1.524 . S
C1200 C1199 1.524 . S
C1200 C1201 1.397 . S
C1200 C1205 1.363 . S
C1201 H1172 0.950 . S
C1201 C1200 1.397 . S
C1201 C1202 1.334 . S
C1202 H1173 0.950 . S
C1202 C1201 1.334 . S
C1202 C1203 1.287 . S
C1203 C1202 1.287 . S
C1203 C1204 1.524 . S
C1203 H1206 0.999 . S
C1204 H1174 0.950 . S
C1204 C1203 1.524 . S
C1204 C1205 1.415 . S
C1205 H1175 0.950 . S
C1205 C1200 1.363 . S
C1205 C1204 1.415 . S
H1206 C1203 0.999 . S
H1207 C1188 0.913 . S
H1208 C1226 0.951 . S
H1209 C1228 0.951 . S
H1210 C1230 0.950 . S
H1211 C1231 0.950 . S
H1212 C1233 0.950 . S
H1213 C1236 0.950 . S
H1214 C1237 0.950 . S
H1215 C1239 0.950 . S
H1216 C1240 0.950 . S
H1217 C1241 0.951 . S
H1218 C1243 0.951 . S
H1219 C1245 0.950 . S
H1220 C1246 0.950 . S
H1221 C1248 0.950 . S
H1222 C1251 0.950 . S
H1223 C1252 0.950 . S
H1224 C1254 0.950 . S
H1225 C1255 0.950 . S
C1226 H1208 0.951 . S
C1226 C1227 1.366 . S
C1226 C1228 1.388 . S
C1227 C1226 1.366 . S
C1227 C1231 1.385 . S
C1228 H1209 0.951 . S
C1228 C1226 1.388 . S
C1228 C1229 1.366 . S
C1229 C1228 1.366 . S
C1229 C1230 1.414 . S
C1229 C1232 1.499 . S
C1230 H1210 0.950 . S
C1230 C1229 1.414 . S
C1230 C1231 1.374 . S
C1231 H1211 0.950 . S
C1231 C1227 1.385 . S
C1231 C1230 1.374 . S
C1232 C1229 1.499 . S
C1232 C1233 1.373 1_655 S
C1232 C1234 1.389 . S
C1233 H1212 0.950 . S
C1233 C1232 1.373 1_455 S
C1233 C1249 1.377 . S
C1234 C1232 1.389 . S
C1234 C1235 1.524 . S
C1234 C1248 1.377 . S
C1235 C1234 1.524 . S
C1235 C1236 1.397 . S
C1235 C1240 1.363 . S
C1236 H1213 0.950 . S
C1236 C1235 1.397 . S
C1236 C1237 1.334 . S
C1237 H1214 0.950 . S
C1237 C1236 1.334 . S
C1237 C1238 1.287 . S
C1238 C1237 1.287 . S
C1238 C1239 1.524 . S
C1238 H1257 0.913 . S
C1239 H1215 0.950 . S
C1239 C1238 1.524 . S
C1239 C1240 1.415 . S
C1240 H1216 0.950 . S
C1240 C1235 1.363 . S
C1240 C1239 1.415 . S
C1241 H1217 0.951 . S
C1241 C1242 1.366 . S
C1241 C1243 1.388 . S
C1242 C1241 1.366 . S
C1242 C1246 1.385 . S
C1243 H1218 0.951 . S
C1243 C1241 1.388 . S
C1243 C1244 1.366 . S
C1244 C1243 1.366 . S
C1244 C1245 1.414 . S
C1244 C1247 1.499 . S
C1245 H1219 0.950 . S
C1245 C1244 1.414 . S
C1245 C1246 1.374 . S
C1246 H1220 0.950 . S
C1246 C1242 1.385 . S
C1246 C1245 1.374 . S
C1247 C1244 1.499 . S
C1247 C1248 1.373 1_455 S
C1247 C1249 1.389 . S
C1248 H1221 0.950 . S
C1248 C1234 1.377 . S
C1248 C1247 1.373 1_655 S
C1249 C1233 1.377 . S
C1249 C1247 1.389 . S
C1249 C1250 1.524 . S
C1250 C1249 1.524 . S
C1250 C1251 1.397 . S
C1250 C1255 1.363 . S
C1251 H1222 0.950 . S
C1251 C1250 1.397 . S
C1251 C1252 1.334 . S
C1252 H1223 0.950 . S
C1252 C1251 1.334 . S
C1252 C1253 1.287 . S
C1253 C1252 1.287 . S
C1253 C1254 1.524 . S
C1253 H1256 0.999 . S
C1254 H1224 0.950 . S
C1254 C1253 1.524 . S
C1254 C1255 1.415 . S
C1255 H1225 0.950 . S
C1255 C1250 1.363 . S
C1255 C1254 1.415 . S
H1256 C1253 0.999 . S
H1257 C1238 0.913 . S
H1258 C1276 0.951 . S
H1259 C1278 0.951 . S
H1260 C1280 0.950 . S
H1261 C1281 0.950 . S
H1262 C1283 0.950 . S
H1263 C1286 0.950 . S
H1264 C1287 0.950 . S
H1265 C1289 0.950 . S
H1266 C1290 0.950 1_556 S
H1267 C1291 0.951 . S
H1268 C1293 0.951 . S
H1269 C1295 0.950 . S
H1270 C1296 0.950 . S
H1271 C1298 0.950 . S
H1272 C1301 0.950 . S
H1273 C1302 0.950 . S
H1274 C1304 0.950 . S
H1275 C1305 0.950 1_554 S
C1276 H1258 0.951 . S
C1276 C1277 1.366 . S
C1276 C1278 1.388 . S
C1277 C1276 1.366 . S
C1277 C1281 1.385 . S
C1278 H1259 0.951 . S
C1278 C1276 1.388 . S
C1278 C1279 1.366 . S
C1279 C1278 1.366 . S
C1279 C1280 1.414 . S
C1279 C1282 1.499 . S
C1280 H1260 0.950 . S
C1280 C1279 1.414 . S
C1280 C1281 1.374 . S
C1281 H1261 0.950 . S
C1281 C1277 1.385 . S
C1281 C1280 1.374 . S
C1282 C1279 1.499 . S
C1282 C1283 1.373 . S
C1282 C1284 1.389 . S
C1283 H1262 0.950 . S
C1283 C1282 1.373 . S
C1283 C1299 1.377 1_564 S
C1284 C1282 1.389 . S
C1284 C1285 1.524 . S
C1284 C1298 1.377 1_564 S
C1285 C1284 1.524 . S
C1285 C1286 1.397 . S
C1285 C1290 1.363 . S
C1286 H1263 0.950 . S
C1286 C1285 1.397 . S
C1286 C1287 1.334 . S
C1287 H1264 0.950 . S
C1287 C1286 1.334 . S
C1287 C1288 1.287 . S
C1288 C1287 1.287 . S
C1288 C1289 1.524 . S
C1288 H1307 0.913 . S
C1289 H1265 0.950 . S
C1289 C1288 1.524 . S
C1289 C1290 1.415 . S
C1290 H1266 0.950 1_554 S
C1290 C1285 1.363 . S
C1290 C1289 1.415 . S
C1291 H1267 0.951 . S
C1291 C1292 1.366 . S
C1291 C1293 1.388 . S
C1292 C1291 1.366 . S
C1292 C1296 1.385 . S
C1293 H1268 0.951 . S
C1293 C1291 1.388 . S
C1293 C1294 1.366 . S
C1294 C1293 1.366 . S
C1294 C1295 1.414 . S
C1294 C1297 1.499 . S
C1295 H1269 0.950 . S
C1295 C1294 1.414 . S
C1295 C1296 1.374 . S
C1296 H1270 0.950 . S
C1296 C1292 1.385 . S
C1296 C1295 1.374 . S
C1297 C1294 1.499 . S
C1297 C1298 1.373 . S
C1297 C1299 1.389 . S
C1298 H1271 0.950 . S
C1298 C1284 1.377 1_546 S
C1298 C1297 1.373 . S
C1299 C1283 1.377 1_546 S
C1299 C1297 1.389 . S
C1299 C1300 1.524 . S
C1300 C1299 1.524 . S
C1300 C1301 1.397 . S
C1300 C1305 1.363 . S
C1301 H1272 0.950 . S
C1301 C1300 1.397 . S
C1301 C1302 1.334 . S
C1302 H1273 0.950 . S
C1302 C1301 1.334 . S
C1302 C1303 1.287 . S
C1303 C1302 1.287 . S
C1303 C1304 1.524 . S
C1303 H1306 0.999 . S
C1304 H1274 0.950 . S
C1304 C1303 1.524 . S
C1304 C1305 1.415 . S
C1305 H1275 0.950 1_556 S
C1305 C1300 1.363 . S
C1305 C1304 1.415 . S
H1306 C1303 0.999 . S
H1307 C1288 0.913 . S
H1308 C1326 0.951 . S
H1309 C1328 0.951 . S
H1310 C1330 0.950 . S
H1311 C1331 0.950 . S
H1312 C1333 0.950 . S
H1313 C1336 0.950 . S
H1314 C1337 0.950 . S
H1315 C1339 0.950 . S
H1316 C1340 0.950 . S
H1317 C1341 0.951 . S
H1318 C1343 0.951 . S
H1319 C1345 0.950 . S
H1320 C1346 0.950 . S
H1321 C1348 0.950 . S
H1322 C1351 0.950 . S
H1323 C1352 0.950 . S
H1324 C1354 0.950 . S
H1325 C1355 0.950 . S
C1326 H1308 0.951 . S
C1326 C1327 1.366 . S
C1326 C1328 1.388 . S
C1327 C1326 1.366 . S
C1327 C1331 1.385 . S
C1328 H1309 0.951 . S
C1328 C1326 1.388 . S
C1328 C1329 1.366 . S
C1329 C1328 1.366 . S
C1329 C1330 1.414 . S
C1329 C1332 1.499 . S
C1330 H1310 0.950 . S
C1330 C1329 1.414 . S
C1330 C1331 1.374 . S
C1331 H1311 0.950 . S
C1331 C1327 1.385 . S
C1331 C1330 1.374 . S
C1332 C1329 1.499 . S
C1332 C1333 1.373 . S
C1332 C1334 1.389 . S
C1333 H1312 0.950 . S
C1333 C1332 1.373 . S
C1333 C1349 1.377 . S
C1334 C1332 1.389 . S
C1334 C1335 1.524 . S
C1334 C1348 1.377 . S
C1335 C1334 1.524 . S
C1335 C1336 1.397 . S
C1335 C1340 1.363 . S
C1336 H1313 0.950 . S
C1336 C1335 1.397 . S
C1336 C1337 1.334 . S
C1337 H1314 0.950 . S
C1337 C1336 1.334 . S
C1337 C1338 1.287 . S
C1338 C1337 1.287 . S
C1338 C1339 1.524 . S
C1338 H1357 0.913 . S
C1339 H1315 0.950 . S
C1339 C1338 1.524 . S
C1339 C1340 1.415 . S
C1340 H1316 0.950 . S
C1340 C1335 1.363 . S
C1340 C1339 1.415 . S
C1341 H1317 0.951 . S
C1341 C1342 1.366 . S
C1341 C1343 1.388 . S
C1342 C1341 1.366 . S
C1342 C1346 1.385 . S
C1343 H1318 0.951 . S
C1343 C1341 1.388 . S
C1343 C1344 1.366 . S
C1344 C1343 1.366 . S
C1344 C1345 1.414 . S
C1344 C1347 1.499 . S
C1345 H1319 0.950 . S
C1345 C1344 1.414 . S
C1345 C1346 1.374 . S
C1346 H1320 0.950 . S
C1346 C1342 1.385 . S
C1346 C1345 1.374 . S
C1347 C1344 1.499 . S
C1347 C1348 1.373 . S
C1347 C1349 1.389 . S
C1348 H1321 0.950 . S
C1348 C1334 1.377 . S
C1348 C1347 1.373 . S
C1349 C1333 1.377 . S
C1349 C1347 1.389 . S
C1349 C1350 1.524 . S
C1350 C1349 1.524 . S
C1350 C1351 1.397 . S
C1350 C1355 1.363 . S
C1351 H1322 0.950 . S
C1351 C1350 1.397 . S
C1351 C1352 1.334 . S
C1352 H1323 0.950 . S
C1352 C1351 1.334 . S
C1352 C1353 1.287 . S
C1353 C1352 1.287 . S
C1353 C1354 1.524 . S
C1353 H1356 0.999 . S
C1354 H1324 0.950 . S
C1354 C1353 1.524 . S
C1354 C1355 1.415 . S
C1355 H1325 0.950 . S
C1355 C1350 1.363 . S
C1355 C1354 1.415 . S
H1356 C1353 0.999 . S
H1357 C1338 0.913 . S
H1358 C1376 0.951 . S
H1359 C1378 0.951 . S
H1360 C1380 0.950 . S
H1361 C1381 0.950 . S
H1362 C1383 0.950 . S
H1363 C1386 0.950 . S
H1364 C1387 0.950 . S
H1365 C1389 0.950 . S
H1366 C1390 0.950 . S
H1367 C1391 0.951 . S
H1368 C1393 0.951 . S
H1369 C1395 0.950 . S
H1370 C1396 0.950 . S
H1371 C1398 0.950 . S
H1372 C1401 0.950 . S
H1373 C1402 0.950 . S
H1374 C1404 0.950 . S
H1375 C1405 0.950 . S
C1376 H1358 0.951 . S
C1376 C1377 1.366 . S
C1376 C1378 1.388 . S
C1377 C1376 1.366 . S
C1377 C1381 1.385 . S
C1378 H1359 0.951 . S
C1378 C1376 1.388 . S
C1378 C1379 1.366 . S
C1379 C1378 1.366 . S
C1379 C1380 1.414 . S
C1379 C1382 1.499 . S
C1380 H1360 0.950 . S
C1380 C1379 1.414 . S
C1380 C1381 1.374 . S
C1381 H1361 0.950 . S
C1381 C1377 1.385 . S
C1381 C1380 1.374 . S
C1382 C1379 1.499 . S
C1382 C1383 1.373 . S
C1382 C1384 1.389 . S
C1383 H1362 0.950 . S
C1383 C1382 1.373 . S
C1383 C1399 1.377 . S
C1384 C1382 1.389 . S
C1384 C1385 1.524 . S
C1384 C1398 1.377 . S
C1385 C1384 1.524 . S
C1385 C1386 1.397 . S
C1385 C1390 1.363 . S
C1386 H1363 0.950 . S
C1386 C1385 1.397 . S
C1386 C1387 1.334 . S
C1387 H1364 0.950 . S
C1387 C1386 1.334 . S
C1387 C1388 1.287 . S
C1388 C1387 1.287 . S
C1388 C1389 1.524 . S
C1388 H1407 0.913 . S
C1389 H1365 0.950 . S
C1389 C1388 1.524 . S
C1389 C1390 1.415 . S
C1390 H1366 0.950 . S
C1390 C1385 1.363 . S
C1390 C1389 1.415 . S
C1391 H1367 0.951 . S
C1391 C1392 1.366 . S
C1391 C1393 1.388 . S
C1392 C1391 1.366 . S
C1392 C1396 1.385 . S
C1393 H1368 0.951 . S
C1393 C1391 1.388 . S
C1393 C1394 1.366 . S
C1394 C1393 1.366 . S
C1394 C1395 1.414 . S
C1394 C1397 1.499 . S
C1395 H1369 0.950 . S
C1395 C1394 1.414 . S
C1395 C1396 1.374 . S
C1396 H1370 0.950 . S
C1396 C1392 1.385 . S
C1396 C1395 1.374 . S
C1397 C1394 1.499 . S
C1397 C1398 1.373 . S
C1397 C1399 1.389 . S
C1398 H1371 0.950 . S
C1398 C1384 1.377 . S
C1398 C1397 1.373 . S
C1399 C1383 1.377 . S
C1399 C1397 1.389 . S
C1399 C1400 1.524 . S
C1400 C1399 1.524 . S
C1400 C1401 1.397 . S
C1400 C1405 1.363 . S
C1401 H1372 0.950 . S
C1401 C1400 1.397 . S
C1401 C1402 1.334 . S
C1402 H1373 0.950 . S
C1402 C1401 1.334 . S
C1402 C1403 1.287 . S
C1403 C1402 1.287 . S
C1403 C1404 1.524 . S
C1403 H1406 0.999 . S
C1404 H1374 0.950 . S
C1404 C1403 1.524 . S
C1404 C1405 1.415 . S
C1405 H1375 0.950 . S
C1405 C1400 1.363 . S
C1405 C1404 1.415 . S
H1406 C1403 0.999 . S
H1407 C1388 0.913 . S
H1408 C1426 0.951 . S
H1409 C1428 0.951 1_556 S
H1410 C1430 0.950 . S
H1411 C1431 0.950 . S
H1412 C1433 0.950 . S
H1413 C1436 0.950 . S
H1414 C1437 0.950 . S
H1415 C1439 0.950 . S
H1416 C1440 0.950 . S
H1417 C1441 0.951 . S
H1418 C1443 0.951 1_554 S
H1419 C1445 0.950 . S
H1420 C1446 0.950 . S
H1421 C1448 0.950 . S
H1422 C1451 0.950 . S
H1423 C1452 0.950 . S
H1424 C1454 0.950 . S
H1425 C1455 0.950 . S
C1426 H1408 0.951 . S
C1426 C1427 1.366 . S
C1426 C1428 1.388 . S
C1427 C1426 1.366 . S
C1427 C1431 1.385 . S
C1428 H1409 0.951 1_554 S
C1428 C1426 1.388 . S
C1428 C1429 1.366 . S
C1429 C1428 1.366 . S
C1429 C1430 1.414 . S
C1429 C1432 1.499 . S
C1430 H1410 0.950 . S
C1430 C1429 1.414 . S
C1430 C1431 1.374 . S
C1431 H1411 0.950 . S
C1431 C1427 1.385 . S
C1431 C1430 1.374 . S
C1432 C1429 1.499 . S
C1432 C1433 1.373 . S
C1432 C1434 1.389 . S
C1433 H1412 0.950 . S
C1433 C1432 1.373 . S
C1433 C1449 1.377 1_554 S
C1434 C1432 1.389 . S
C1434 C1435 1.524 . S
C1434 C1448 1.377 1_554 S
C1435 C1434 1.524 . S
C1435 C1436 1.397 . S
C1435 C1440 1.363 1_554 S
C1436 H1413 0.950 . S
C1436 C1435 1.397 . S
C1436 C1437 1.334 . S
C1437 H1414 0.950 . S
C1437 C1436 1.334 . S
C1437 C1438 1.287 . S
C1438 C1437 1.287 . S
C1438 C1439 1.524 1_554 S
C1438 H1457 0.913 . S
C1439 H1415 0.950 . S
C1439 C1438 1.524 1_556 S
C1439 C1440 1.415 . S
C1440 H1416 0.950 . S
C1440 C1435 1.363 1_556 S
C1440 C1439 1.415 . S
C1441 H1417 0.951 . S
C1441 C1442 1.366 . S
C1441 C1443 1.388 . S
C1442 C1441 1.366 . S
C1442 C1446 1.385 . S
C1443 H1418 0.951 1_556 S
C1443 C1441 1.388 . S
C1443 C1444 1.366 . S
C1444 C1443 1.366 . S
C1444 C1445 1.414 . S
C1444 C1447 1.499 . S
C1445 H1419 0.950 . S
C1445 C1444 1.414 . S
C1445 C1446 1.374 . S
C1446 H1420 0.950 . S
C1446 C1442 1.385 . S
C1446 C1445 1.374 . S
C1447 C1444 1.499 . S
C1447 C1448 1.373 . S
C1447 C1449 1.389 . S
C1448 H1421 0.950 . S
C1448 C1434 1.377 1_556 S
C1448 C1447 1.373 . S
C1449 C1433 1.377 1_556 S
C1449 C1447 1.389 . S
C1449 C1450 1.524 . S
C1450 C1449 1.524 . S
C1450 C1451 1.397 . S
C1450 C1455 1.363 1_556 S
C1451 H1422 0.950 . S
C1451 C1450 1.397 . S
C1451 C1452 1.334 . S
C1452 H1423 0.950 . S
C1452 C1451 1.334 . S
C1452 C1453 1.287 . S
C1453 C1452 1.287 . S
C1453 C1454 1.524 1_556 S
C1453 H1456 0.999 . S
C1454 H1424 0.950 . S
C1454 C1453 1.524 1_554 S
C1454 C1455 1.415 . S
C1455 H1425 0.950 . S
C1455 C1450 1.363 1_554 S
C1455 C1454 1.415 . S
H1456 C1453 0.999 . S
H1457 C1438 0.913 . S
H1458 C1476 0.951 . S
H1459 C1478 0.951 . S
H1460 C1480 0.950 . S
H1461 C1481 0.950 . S
H1462 C1483 0.950 . S
H1463 C1486 0.950 . S
H1464 C1487 0.950 . S
H1465 C1489 0.950 . S
H1466 C1490 0.950 . S
H1467 C1491 0.951 . S
H1468 C1493 0.951 . S
H1469 C1495 0.950 . S
H1470 C1496 0.950 . S
H1471 C1498 0.950 . S
H1472 C1501 0.950 . S
H1473 C1502 0.950 . S
H1474 C1504 0.950 . S
H1475 C1505 0.950 . S
C1476 H1458 0.951 . S
C1476 C1477 1.366 . S
C1476 C1478 1.388 . S
C1477 C1476 1.366 . S
C1477 C1481 1.385 . S
C1478 H1459 0.951 . S
C1478 C1476 1.388 . S
C1478 C1479 1.366 . S
C1479 C1478 1.366 . S
C1479 C1480 1.414 . S
C1479 C1482 1.499 . S
C1480 H1460 0.950 . S
C1480 C1479 1.414 . S
C1480 C1481 1.374 . S
C1481 H1461 0.950 . S
C1481 C1477 1.385 . S
C1481 C1480 1.374 . S
C1482 C1479 1.499 . S
C1482 C1483 1.373 . S
C1482 C1484 1.389 . S
C1483 H1462 0.950 . S
C1483 C1482 1.373 . S
C1483 C1499 1.377 . S
C1484 C1482 1.389 . S
C1484 C1485 1.524 . S
C1484 C1498 1.377 . S
C1485 C1484 1.524 . S
C1485 C1486 1.397 . S
C1485 C1490 1.363 . S
C1486 H1463 0.950 . S
C1486 C1485 1.397 . S
C1486 C1487 1.334 . S
C1487 H1464 0.950 . S
C1487 C1486 1.334 . S
C1487 C1488 1.287 . S
C1488 C1487 1.287 . S
C1488 C1489 1.524 . S
C1488 H1507 0.913 . S
C1489 H1465 0.950 . S
C1489 C1488 1.524 . S
C1489 C1490 1.415 . S
C1490 H1466 0.950 . S
C1490 C1485 1.363 . S
C1490 C1489 1.415 . S
C1491 H1467 0.951 . S
C1491 C1492 1.366 . S
C1491 C1493 1.388 . S
C1492 C1491 1.366 . S
C1492 C1496 1.385 . S
C1493 H1468 0.951 . S
C1493 C1491 1.388 . S
C1493 C1494 1.366 . S
C1494 C1493 1.366 . S
C1494 C1495 1.414 . S
C1494 C1497 1.499 . S
C1495 H1469 0.950 . S
C1495 C1494 1.414 . S
C1495 C1496 1.374 . S
C1496 H1470 0.950 . S
C1496 C1492 1.385 . S
C1496 C1495 1.374 . S
C1497 C1494 1.499 . S
C1497 C1498 1.373 . S
C1497 C1499 1.389 . S
C1498 H1471 0.950 . S
C1498 C1484 1.377 . S
C1498 C1497 1.373 . S
C1499 C1483 1.377 . S
C1499 C1497 1.389 . S
C1499 C1500 1.524 . S
C1500 C1499 1.524 . S
C1500 C1501 1.397 . S
C1500 C1505 1.363 . S
C1501 H1472 0.950 . S
C1501 C1500 1.397 . S
C1501 C1502 1.334 . S
C1502 H1473 0.950 . S
C1502 C1501 1.334 . S
C1502 C1503 1.287 . S
C1503 C1502 1.287 . S
C1503 C1504 1.524 . S
C1503 H1506 0.999 . S
C1504 H1474 0.950 . S
C1504 C1503 1.524 . S
C1504 C1505 1.415 . S
C1505 H1475 0.950 . S
C1505 C1500 1.363 . S
C1505 C1504 1.415 . S
H1506 C1503 0.999 . S
H1507 C1488 0.913 . S
H1508 C1526 0.951 . S
H1509 C1528 0.951 . S
H1510 C1530 0.950 . S
H1511 C1531 0.950 . S
H1512 C1533 0.950 . S
H1513 C1536 0.950 . S
H1514 C1537 0.950 . S
H1515 C1539 0.950 . S
H1516 C1540 0.950 . S
H1517 C1541 0.951 . S
H1518 C1543 0.951 . S
H1519 C1545 0.950 . S
H1520 C1546 0.950 . S
H1521 C1548 0.950 . S
H1522 C1551 0.950 . S
H1523 C1552 0.950 . S
H1524 C1554 0.950 . S
H1525 C1555 0.950 . S
C1526 H1508 0.951 . S
C1526 C1527 1.366 . S
C1526 C1528 1.388 . S
C1527 C1526 1.366 . S
C1527 C1531 1.385 . S
C1528 H1509 0.951 . S
C1528 C1526 1.388 . S
C1528 C1529 1.366 . S
C1529 C1528 1.366 . S
C1529 C1530 1.414 . S
C1529 C1532 1.499 . S
C1530 H1510 0.950 . S
C1530 C1529 1.414 . S
C1530 C1531 1.374 . S
C1531 H1511 0.950 . S
C1531 C1527 1.385 . S
C1531 C1530 1.374 . S
C1532 C1529 1.499 . S
C1532 C1533 1.373 . S
C1532 C1534 1.389 . S
C1533 H1512 0.950 . S
C1533 C1532 1.373 . S
C1533 C1549 1.377 . S
C1534 C1532 1.389 . S
C1534 C1535 1.524 . S
C1534 C1548 1.377 . S
C1535 C1534 1.524 . S
C1535 C1536 1.397 . S
C1535 C1540 1.363 . S
C1536 H1513 0.950 . S
C1536 C1535 1.397 . S
C1536 C1537 1.334 . S
C1537 H1514 0.950 . S
C1537 C1536 1.334 . S
C1537 C1538 1.287 . S
C1538 C1537 1.287 . S
C1538 C1539 1.524 . S
C1538 H1557 0.913 . S
C1539 H1515 0.950 . S
C1539 C1538 1.524 . S
C1539 C1540 1.415 . S
C1540 H1516 0.950 . S
C1540 C1535 1.363 . S
C1540 C1539 1.415 . S
C1541 H1517 0.951 . S
C1541 C1542 1.366 . S
C1541 C1543 1.388 . S
C1542 C1541 1.366 . S
C1542 C1546 1.385 . S
C1543 H1518 0.951 . S
C1543 C1541 1.388 . S
C1543 C1544 1.366 . S
C1544 C1543 1.366 . S
C1544 C1545 1.414 . S
C1544 C1547 1.499 . S
C1545 H1519 0.950 . S
C1545 C1544 1.414 . S
C1545 C1546 1.374 . S
C1546 H1520 0.950 . S
C1546 C1542 1.385 . S
C1546 C1545 1.374 . S
C1547 C1544 1.499 . S
C1547 C1548 1.373 . S
C1547 C1549 1.389 . S
C1548 H1521 0.950 . S
C1548 C1534 1.377 . S
C1548 C1547 1.373 . S
C1549 C1533 1.377 . S
C1549 C1547 1.389 . S
C1549 C1550 1.524 . S
C1550 C1549 1.524 . S
C1550 C1551 1.397 . S
C1550 C1555 1.363 . S
C1551 H1522 0.950 . S
C1551 C1550 1.397 . S
C1551 C1552 1.334 . S
C1552 H1523 0.950 . S
C1552 C1551 1.334 . S
C1552 C1553 1.287 . S
C1553 C1552 1.287 . S
C1553 C1554 1.524 . S
C1553 H1556 0.999 . S
C1554 H1524 0.950 . S
C1554 C1553 1.524 . S
C1554 C1555 1.415 . S
C1555 H1525 0.950 . S
C1555 C1550 1.363 . S
C1555 C1554 1.415 . S
H1556 C1553 0.999 . S
H1557 C1538 0.913 . S
H1558 C1576 0.951 . S
H1559 C1578 0.951 . S
H1560 C1580 0.950 1_554 S
H1561 C1581 0.950 . S
H1562 C1583 0.950 . S
H1563 C1586 0.950 1_554 S
H1564 C1587 0.950 1_554 S
H1565 C1589 0.950 . S
H1566 C1590 0.950 . S
H1567 C1591 0.951 . S
H1568 C1593 0.951 . S
H1569 C1595 0.950 1_556 S
H1570 C1596 0.950 . S
H1571 C1598 0.950 . S
H1572 C1601 0.950 1_556 S
H1573 C1602 0.950 1_556 S
H1574 C1604 0.950 . S
H1575 C1605 0.950 . S
C1576 H1558 0.951 . S
C1576 C1577 1.366 . S
C1576 C1578 1.388 . S
C1577 C1576 1.366 . S
C1577 C1581 1.385 . S
C1578 H1559 0.951 . S
C1578 C1576 1.388 . S
C1578 C1579 1.366 . S
C1579 C1578 1.366 . S
C1579 C1580 1.414 . S
C1579 C1582 1.499 . S
C1580 H1560 0.950 1_556 S
C1580 C1579 1.414 . S
C1580 C1581 1.374 . S
C1581 H1561 0.950 . S
C1581 C1577 1.385 . S
C1581 C1580 1.374 . S
C1582 C1579 1.499 . S
C1582 C1583 1.373 1_556 S
C1582 C1584 1.389 . S
C1583 H1562 0.950 . S
C1583 C1582 1.373 1_554 S
C1583 C1599 1.377 . S
C1584 C1582 1.389 . S
C1584 C1585 1.524 . S
C1584 C1598 1.377 . S
C1585 C1584 1.524 . S
C1585 C1586 1.397 . S
C1585 C1590 1.363 . S
C1586 H1563 0.950 1_556 S
C1586 C1585 1.397 . S
C1586 C1587 1.334 . S
C1587 H1564 0.950 1_556 S
C1587 C1586 1.334 . S
C1587 C1588 1.287 . S
C1588 C1587 1.287 . S
C1588 C1589 1.524 . S
C1588 H1607 0.913 . S
C1589 H1565 0.950 . S
C1589 C1588 1.524 . S
C1589 C1590 1.415 . S
C1590 H1566 0.950 . S
C1590 C1585 1.363 . S
C1590 C1589 1.415 . S
C1591 H1567 0.951 . S
C1591 C1592 1.366 . S
C1591 C1593 1.388 . S
C1592 C1591 1.366 . S
C1592 C1596 1.385 . S
C1593 H1568 0.951 . S
C1593 C1591 1.388 . S
C1593 C1594 1.366 . S
C1594 C1593 1.366 . S
C1594 C1595 1.414 . S
C1594 C1597 1.499 . S
C1595 H1569 0.950 1_554 S
C1595 C1594 1.414 . S
C1595 C1596 1.374 . S
C1596 H1570 0.950 . S
C1596 C1592 1.385 . S
C1596 C1595 1.374 . S
C1597 C1594 1.499 . S
C1597 C1598 1.373 1_554 S
C1597 C1599 1.389 . S
C1598 H1571 0.950 . S
C1598 C1584 1.377 . S
C1598 C1597 1.373 1_556 S
C1599 C1583 1.377 . S
C1599 C1597 1.389 . S
C1599 C1600 1.524 . S
C1600 C1599 1.524 . S
C1600 C1601 1.397 . S
C1600 C1605 1.363 . S
C1601 H1572 0.950 1_554 S
C1601 C1600 1.397 . S
C1601 C1602 1.334 . S
C1602 H1573 0.950 1_554 S
C1602 C1601 1.334 . S
C1602 C1603 1.287 . S
C1603 C1602 1.287 . S
C1603 C1604 1.524 . S
C1603 H1606 0.999 . S
C1604 H1574 0.950 . S
C1604 C1603 1.524 . S
C1604 C1605 1.415 . S
C1605 H1575 0.950 . S
C1605 C1600 1.363 . S
C1605 C1604 1.415 . S
H1606 C1603 0.999 . S
H1607 C1588 0.913 . S
H1608 C1626 0.951 . S
H1609 C1628 0.951 . S
H1610 C1630 0.950 . S
H1611 C1631 0.950 . S
H1612 C1633 0.950 . S
H1613 C1636 0.950 . S
H1614 C1637 0.950 . S
H1615 C1639 0.950 . S
H1616 C1640 0.950 . S
H1617 C1641 0.951 . S
H1618 C1643 0.951 . S
H1619 C1645 0.950 . S
H1620 C1646 0.950 . S
H1621 C1648 0.950 . S
H1622 C1651 0.950 . S
H1623 C1652 0.950 . S
H1624 C1654 0.950 . S
H1625 C1655 0.950 . S
C1626 H1608 0.951 . S
C1626 C1627 1.366 . S
C1626 C1628 1.388 . S
C1627 C1626 1.366 . S
C1627 C1631 1.385 . S
C1628 H1609 0.951 . S
C1628 C1626 1.388 . S
C1628 C1629 1.366 . S
C1629 C1628 1.366 . S
C1629 C1630 1.414 . S
C1629 C1632 1.499 . S
C1630 H1610 0.950 . S
C1630 C1629 1.414 . S
C1630 C1631 1.374 . S
C1631 H1611 0.950 . S
C1631 C1627 1.385 . S
C1631 C1630 1.374 . S
C1632 C1629 1.499 . S
C1632 C1633 1.373 . S
C1632 C1634 1.389 . S
C1633 H1612 0.950 . S
C1633 C1632 1.373 . S
C1633 C1649 1.377 . S
C1634 C1632 1.389 . S
C1634 C1635 1.524 . S
C1634 C1648 1.377 . S
C1635 C1634 1.524 . S
C1635 C1636 1.397 . S
C1635 C1640 1.363 . S
C1636 H1613 0.950 . S
C1636 C1635 1.397 . S
C1636 C1637 1.334 . S
C1637 H1614 0.950 . S
C1637 C1636 1.334 . S
C1637 C1638 1.287 . S
C1638 C1637 1.287 . S
C1638 C1639 1.524 . S
C1638 H1657 0.913 . S
C1639 H1615 0.950 . S
C1639 C1638 1.524 . S
C1639 C1640 1.415 . S
C1640 H1616 0.950 . S
C1640 C1635 1.363 . S
C1640 C1639 1.415 . S
C1641 H1617 0.951 . S
C1641 C1642 1.366 . S
C1641 C1643 1.388 . S
C1642 C1641 1.366 . S
C1642 C1646 1.385 . S
C1643 H1618 0.951 . S
C1643 C1641 1.388 . S
C1643 C1644 1.366 . S
C1644 C1643 1.366 . S
C1644 C1645 1.414 . S
C1644 C1647 1.499 . S
C1645 H1619 0.950 . S
C1645 C1644 1.414 . S
C1645 C1646 1.374 . S
C1646 H1620 0.950 . S
C1646 C1642 1.385 . S
C1646 C1645 1.374 . S
C1647 C1644 1.499 . S
C1647 C1648 1.373 . S
C1647 C1649 1.389 . S
C1648 H1621 0.950 . S
C1648 C1634 1.377 . S
C1648 C1647 1.373 . S
C1649 C1633 1.377 . S
C1649 C1647 1.389 . S
C1649 C1650 1.524 . S
C1650 C1649 1.524 . S
C1650 C1651 1.397 . S
C1650 C1655 1.363 . S
C1651 H1622 0.950 . S
C1651 C1650 1.397 . S
C1651 C1652 1.334 . S
C1652 H1623 0.950 . S
C1652 C1651 1.334 . S
C1652 C1653 1.287 . S
C1653 C1652 1.287 . S
C1653 C1654 1.524 . S
C1653 H1656 0.999 . S
C1654 H1624 0.950 . S
C1654 C1653 1.524 . S
C1654 C1655 1.415 . S
C1655 H1625 0.950 . S
C1655 C1650 1.363 . S
C1655 C1654 1.415 . S
H1656 C1653 0.999 . S
H1657 C1638 0.913 . S
H1658 C1676 0.951 . S
H1659 C1678 0.951 . S
H1660 C1680 0.950 . S
H1661 C1681 0.950 . S
H1662 C1683 0.950 . S
H1663 C1686 0.950 . S
H1664 C1687 0.950 . S
H1665 C1689 0.950 . S
H1666 C1690 0.950 . S
H1667 C1691 0.951 . S
H1668 C1693 0.951 . S
H1669 C1695 0.950 . S
H1670 C1696 0.950 . S
H1671 C1698 0.950 . S
H1672 C1701 0.950 . S
H1673 C1702 0.950 . S
H1674 C1704 0.950 . S
H1675 C1705 0.950 . S
C1676 H1658 0.951 . S
C1676 C1677 1.366 . S
C1676 C1678 1.388 . S
C1677 C1676 1.366 . S
C1677 C1681 1.385 . S
C1678 H1659 0.951 . S
C1678 C1676 1.388 . S
C1678 C1679 1.366 . S
C1679 C1678 1.366 . S
C1679 C1680 1.414 . S
C1679 C1682 1.499 . S
C1680 H1660 0.950 . S
C1680 C1679 1.414 . S
C1680 C1681 1.374 . S
C1681 H1661 0.950 . S
C1681 C1677 1.385 . S
C1681 C1680 1.374 . S
C1682 C1679 1.499 . S
C1682 C1683 1.373 . S
C1682 C1684 1.389 . S
C1683 H1662 0.950 . S
C1683 C1682 1.373 . S
C1683 C1699 1.377 . S
C1684 C1682 1.389 . S
C1684 C1685 1.524 . S
C1684 C1698 1.377 . S
C1685 C1684 1.524 . S
C1685 C1686 1.397 . S
C1685 C1690 1.363 . S
C1686 H1663 0.950 . S
C1686 C1685 1.397 . S
C1686 C1687 1.334 . S
C1687 H1664 0.950 . S
C1687 C1686 1.334 . S
C1687 C1688 1.287 . S
C1688 C1687 1.287 . S
C1688 C1689 1.524 . S
C1688 H1707 0.913 . S
C1689 H1665 0.950 . S
C1689 C1688 1.524 . S
C1689 C1690 1.415 . S
C1690 H1666 0.950 . S
C1690 C1685 1.363 . S
C1690 C1689 1.415 . S
C1691 H1667 0.951 . S
C1691 C1692 1.366 . S
C1691 C1693 1.388 . S
C1692 C1691 1.366 . S
C1692 C1696 1.385 . S
C1693 H1668 0.951 . S
C1693 C1691 1.388 . S
C1693 C1694 1.366 . S
C1694 C1693 1.366 . S
C1694 C1695 1.414 . S
C1694 C1697 1.499 . S
C1695 H1669 0.950 . S
C1695 C1694 1.414 . S
C1695 C1696 1.374 . S
C1696 H1670 0.950 . S
C1696 C1692 1.385 . S
C1696 C1695 1.374 . S
C1697 C1694 1.499 . S
C1697 C1698 1.373 . S
C1697 C1699 1.389 . S
C1698 H1671 0.950 . S
C1698 C1684 1.377 . S
C1698 C1697 1.373 . S
C1699 C1683 1.377 . S
C1699 C1697 1.389 . S
C1699 C1700 1.524 . S
C1700 C1699 1.524 . S
C1700 C1701 1.397 . S
C1700 C1705 1.363 . S
C1701 H1672 0.950 . S
C1701 C1700 1.397 . S
C1701 C1702 1.334 . S
C1702 H1673 0.950 . S
C1702 C1701 1.334 . S
C1702 C1703 1.287 . S
C1703 C1702 1.287 . S
C1703 C1704 1.524 . S
C1703 H1706 0.999 . S
C1704 H1674 0.950 . S
C1704 C1703 1.524 . S
C1704 C1705 1.415 . S
C1705 H1675 0.950 . S
C1705 C1700 1.363 . S
C1705 C1704 1.415 . S
H1706 C1703 0.999 . S
H1707 C1688 0.913 . S
H1708 C1726 0.951 . S
H1709 C1728 0.951 . S
H1710 C1730 0.950 . S
H1711 C1731 0.950 . S
H1712 C1733 0.950 . S
H1713 C1736 0.950 . S
H1714 C1737 0.950 . S
H1715 C1739 0.950 . S
H1716 C1740 0.950 . S
H1717 C1741 0.951 . S
H1718 C1743 0.951 . S
H1719 C1745 0.950 . S
H1720 C1746 0.950 . S
H1721 C1748 0.950 . S
H1722 C1751 0.950 . S
H1723 C1752 0.950 . S
H1724 C1754 0.950 . S
H1725 C1755 0.950 . S
C1726 H1708 0.951 . S
C1726 C1727 1.366 . S
C1726 C1728 1.388 . S
C1727 C1726 1.366 . S
C1727 C1731 1.385 . S
C1728 H1709 0.951 . S
C1728 C1726 1.388 . S
C1728 C1729 1.366 . S
C1729 C1728 1.366 . S
C1729 C1730 1.414 . S
C1729 C1732 1.499 . S
C1730 H1710 0.950 . S
C1730 C1729 1.414 . S
C1730 C1731 1.374 . S
C1731 H1711 0.950 . S
C1731 C1727 1.385 . S
C1731 C1730 1.374 . S
C1732 C1729 1.499 . S
C1732 C1733 1.373 . S
C1732 C1734 1.389 . S
C1733 H1712 0.950 . S
C1733 C1732 1.373 . S
C1733 C1749 1.377 . S
C1734 C1732 1.389 . S
C1734 C1735 1.524 . S
C1734 C1748 1.377 . S
C1735 C1734 1.524 . S
C1735 C1736 1.397 . S
C1735 C1740 1.363 . S
C1736 H1713 0.950 . S
C1736 C1735 1.397 . S
C1736 C1737 1.334 . S
C1737 H1714 0.950 . S
C1737 C1736 1.334 . S
C1737 C1738 1.287 . S
C1738 C1737 1.287 . S
C1738 C1739 1.524 . S
C1738 H1757 0.913 . S
C1739 H1715 0.950 . S
C1739 C1738 1.524 . S
C1739 C1740 1.415 . S
C1740 H1716 0.950 . S
C1740 C1735 1.363 . S
C1740 C1739 1.415 . S
C1741 H1717 0.951 . S
C1741 C1742 1.366 . S
C1741 C1743 1.388 . S
C1742 C1741 1.366 . S
C1742 C1746 1.385 . S
C1743 H1718 0.951 . S
C1743 C1741 1.388 . S
C1743 C1744 1.366 . S
C1744 C1743 1.366 . S
C1744 C1745 1.414 . S
C1744 C1747 1.499 . S
C1745 H1719 0.950 . S
C1745 C1744 1.414 . S
C1745 C1746 1.374 . S
C1746 H1720 0.950 . S
C1746 C1742 1.385 . S
C1746 C1745 1.374 . S
C1747 C1744 1.499 . S
C1747 C1748 1.373 . S
C1747 C1749 1.389 . S
C1748 H1721 0.950 . S
C1748 C1734 1.377 . S
C1748 C1747 1.373 . S
C1749 C1733 1.377 . S
C1749 C1747 1.389 . S
C1749 C1750 1.524 . S
C1750 C1749 1.524 . S
C1750 C1751 1.397 . S
C1750 C1755 1.363 . S
C1751 H1722 0.950 . S
C1751 C1750 1.397 . S
C1751 C1752 1.334 . S
C1752 H1723 0.950 . S
C1752 C1751 1.334 . S
C1752 C1753 1.287 . S
C1753 C1752 1.287 . S
C1753 C1754 1.524 . S
C1753 H1756 0.999 . S
C1754 H1724 0.950 . S
C1754 C1753 1.524 . S
C1754 C1755 1.415 . S
C1755 H1725 0.950 . S
C1755 C1750 1.363 . S
C1755 C1754 1.415 . S
H1756 C1753 0.999 . S
H1757 C1738 0.913 . S
H1758 C1776 0.951 . S
H1759 C1778 0.951 . S
H1760 C1780 0.950 . S
H1761 C1781 0.950 . S
H1762 C1783 0.950 . S
H1763 C1786 0.950 . S
H1764 C1787 0.950 . S
H1765 C1789 0.950 . S
H1766 C1790 0.950 . S
H1767 C1791 0.951 . S
H1768 C1793 0.951 . S
H1769 C1795 0.950 . S
H1770 C1796 0.950 . S
H1771 C1798 0.950 . S
H1772 C1801 0.950 . S
H1773 C1802 0.950 . S
H1774 C1804 0.950 . S
H1775 C1805 0.950 . S
C1776 H1758 0.951 . S
C1776 C1777 1.366 . S
C1776 C1778 1.388 . S
C1777 C1776 1.366 . S
C1777 C1781 1.385 . S
C1778 H1759 0.951 . S
C1778 C1776 1.388 . S
C1778 C1779 1.366 . S
C1779 C1778 1.366 . S
C1779 C1780 1.414 . S
C1779 C1782 1.499 . S
C1780 H1760 0.950 . S
C1780 C1779 1.414 . S
C1780 C1781 1.374 . S
C1781 H1761 0.950 . S
C1781 C1777 1.385 . S
C1781 C1780 1.374 . S
C1782 C1779 1.499 . S
C1782 C1783 1.373 . S
C1782 C1784 1.389 . S
C1783 H1762 0.950 . S
C1783 C1782 1.373 . S
C1783 C1799 1.377 . S
C1784 C1782 1.389 . S
C1784 C1785 1.524 . S
C1784 C1798 1.377 . S
C1785 C1784 1.524 . S
C1785 C1786 1.397 . S
C1785 C1790 1.363 . S
C1786 H1763 0.950 . S
C1786 C1785 1.397 . S
C1786 C1787 1.334 . S
C1787 H1764 0.950 . S
C1787 C1786 1.334 . S
C1787 C1788 1.287 . S
C1788 C1787 1.287 . S
C1788 C1789 1.524 . S
C1788 H1807 0.913 . S
C1789 H1765 0.950 . S
C1789 C1788 1.524 . S
C1789 C1790 1.415 . S
C1790 H1766 0.950 . S
C1790 C1785 1.363 . S
C1790 C1789 1.415 . S
C1791 H1767 0.951 . S
C1791 C1792 1.366 . S
C1791 C1793 1.388 . S
C1792 C1791 1.366 . S
C1792 C1796 1.385 . S
C1793 H1768 0.951 . S
C1793 C1791 1.388 . S
C1793 C1794 1.366 . S
C1794 C1793 1.366 . S
C1794 C1795 1.414 . S
C1794 C1797 1.499 . S
C1795 H1769 0.950 . S
C1795 C1794 1.414 . S
C1795 C1796 1.374 . S
C1796 H1770 0.950 . S
C1796 C1792 1.385 . S
C1796 C1795 1.374 . S
C1797 C1794 1.499 . S
C1797 C1798 1.373 . S
C1797 C1799 1.389 . S
C1798 H1771 0.950 . S
C1798 C1784 1.377 . S
C1798 C1797 1.373 . S
C1799 C1783 1.377 . S
C1799 C1797 1.389 . S
C1799 C1800 1.524 . S
C1800 C1799 1.524 . S
C1800 C1801 1.397 . S
C1800 C1805 1.363 . S
C1801 H1772 0.950 . S
C1801 C1800 1.397 . S
C1801 C1802 1.334 . S
C1802 H1773 0.950 . S
C1802 C1801 1.334 . S
C1802 C1803 1.287 . S
C1803 C1802 1.287 . S
C1803 C1804 1.524 . S
C1803 H1806 0.999 . S
C1804 H1774 0.950 . S
C1804 C1803 1.524 . S
C1804 C1805 1.415 . S
C1805 H1775 0.950 . S
C1805 C1800 1.363 . S
C1805 C1804 1.415 . S
H1806 C1803 0.999 . S
H1807 C1788 0.913 . S
H1808 C1826 0.951 . S
H1809 C1828 0.951 . S
H1810 C1830 0.950 . S
H1811 C1831 0.950 . S
H1812 C1833 0.950 . S
H1813 C1836 0.950 . S
H1814 C1837 0.950 . S
H1815 C1839 0.950 . S
H1816 C1840 0.950 . S
H1817 C1841 0.951 . S
H1818 C1843 0.951 . S
H1819 C1845 0.950 . S
H1820 C1846 0.950 . S
H1821 C1848 0.950 . S
H1822 C1851 0.950 . S
H1823 C1852 0.950 . S
H1824 C1854 0.950 . S
H1825 C1855 0.950 . S
C1826 H1808 0.951 . S
C1826 C1827 1.366 . S
C1826 C1828 1.388 . S
C1827 C1826 1.366 . S
C1827 C1831 1.385 . S
C1828 H1809 0.951 . S
C1828 C1826 1.388 . S
C1828 C1829 1.366 . S
C1829 C1828 1.366 . S
C1829 C1830 1.414 . S
C1829 C1832 1.499 . S
C1830 H1810 0.950 . S
C1830 C1829 1.414 . S
C1830 C1831 1.374 . S
C1831 H1811 0.950 . S
C1831 C1827 1.385 . S
C1831 C1830 1.374 . S
C1832 C1829 1.499 . S
C1832 C1833 1.373 . S
C1832 C1834 1.389 . S
C1833 H1812 0.950 . S
C1833 C1832 1.373 . S
C1833 C1849 1.377 . S
C1834 C1832 1.389 . S
C1834 C1835 1.524 . S
C1834 C1848 1.377 . S
C1835 C1834 1.524 . S
C1835 C1836 1.397 . S
C1835 C1840 1.363 . S
C1836 H1813 0.950 . S
C1836 C1835 1.397 . S
C1836 C1837 1.334 . S
C1837 H1814 0.950 . S
C1837 C1836 1.334 . S
C1837 C1838 1.287 . S
C1838 C1837 1.287 . S
C1838 C1839 1.524 . S
C1838 H1857 0.913 . S
C1839 H1815 0.950 . S
C1839 C1838 1.524 . S
C1839 C1840 1.415 . S
C1840 H1816 0.950 . S
C1840 C1835 1.363 . S
C1840 C1839 1.415 . S
C1841 H1817 0.951 . S
C1841 C1842 1.366 . S
C1841 C1843 1.388 . S
C1842 C1841 1.366 . S
C1842 C1846 1.385 . S
C1843 H1818 0.951 . S
C1843 C1841 1.388 . S
C1843 C1844 1.366 . S
C1844 C1843 1.366 . S
C1844 C1845 1.414 . S
C1844 C1847 1.499 . S
C1845 H1819 0.950 . S
C1845 C1844 1.414 . S
C1845 C1846 1.374 . S
C1846 H1820 0.950 . S
C1846 C1842 1.385 . S
C1846 C1845 1.374 . S
C1847 C1844 1.499 . S
C1847 C1848 1.373 . S
C1847 C1849 1.389 . S
C1848 H1821 0.950 . S
C1848 C1834 1.377 . S
C1848 C1847 1.373 . S
C1849 C1833 1.377 . S
C1849 C1847 1.389 . S
C1849 C1850 1.524 . S
C1850 C1849 1.524 . S
C1850 C1851 1.397 . S
C1850 C1855 1.363 . S
C1851 H1822 0.950 . S
C1851 C1850 1.397 . S
C1851 C1852 1.334 . S
C1852 H1823 0.950 . S
C1852 C1851 1.334 . S
C1852 C1853 1.287 . S
C1853 C1852 1.287 . S
C1853 C1854 1.524 . S
C1853 H1856 0.999 . S
C1854 H1824 0.950 . S
C1854 C1853 1.524 . S
C1854 C1855 1.415 . S
C1855 H1825 0.950 . S
C1855 C1850 1.363 . S
C1855 C1854 1.415 . S
H1856 C1853 0.999 . S
H1857 C1838 0.913 . S
H1858 C1876 0.951 . S
H1859 C1878 0.951 . S
H1860 C1880 0.950 . S
H1861 C1881 0.950 . S
H1862 C1883 0.950 . S
H1863 C1886 0.950 . S
H1864 C1887 0.950 . S
H1865 C1889 0.950 . S
H1866 C1890 0.950 . S
H1867 C1891 0.951 . S
H1868 C1893 0.951 . S
H1869 C1895 0.950 . S
H1870 C1896 0.950 . S
H1871 C1898 0.950 . S
H1872 C1901 0.950 . S
H1873 C1902 0.950 . S
H1874 C1904 0.950 . S
H1875 C1905 0.950 . S
C1876 H1858 0.951 . S
C1876 C1877 1.366 . S
C1876 C1878 1.388 . S
C1877 C1876 1.366 . S
C1877 C1881 1.385 . S
C1878 H1859 0.951 . S
C1878 C1876 1.388 . S
C1878 C1879 1.366 . S
C1879 C1878 1.366 . S
C1879 C1880 1.414 . S
C1879 C1882 1.499 . S
C1880 H1860 0.950 . S
C1880 C1879 1.414 . S
C1880 C1881 1.374 . S
C1881 H1861 0.950 . S
C1881 C1877 1.385 . S
C1881 C1880 1.374 . S
C1882 C1879 1.499 . S
C1882 C1883 1.373 . S
C1882 C1884 1.389 . S
C1883 H1862 0.950 . S
C1883 C1882 1.373 . S
C1883 C1899 1.377 . S
C1884 C1882 1.389 . S
C1884 C1885 1.524 . S
C1884 C1898 1.377 . S
C1885 C1884 1.524 . S
C1885 C1886 1.397 . S
C1885 C1890 1.363 . S
C1886 H1863 0.950 . S
C1886 C1885 1.397 . S
C1886 C1887 1.334 . S
C1887 H1864 0.950 . S
C1887 C1886 1.334 . S
C1887 C1888 1.287 . S
C1888 C1887 1.287 . S
C1888 C1889 1.524 . S
C1888 H1907 0.913 . S
C1889 H1865 0.950 . S
C1889 C1888 1.524 . S
C1889 C1890 1.415 . S
C1890 H1866 0.950 . S
C1890 C1885 1.363 . S
C1890 C1889 1.415 . S
C1891 H1867 0.951 . S
C1891 C1892 1.366 . S
C1891 C1893 1.388 . S
C1892 C1891 1.366 . S
C1892 C1896 1.385 . S
C1893 H1868 0.951 . S
C1893 C1891 1.388 . S
C1893 C1894 1.366 . S
C1894 C1893 1.366 . S
C1894 C1895 1.414 . S
C1894 C1897 1.499 . S
C1895 H1869 0.950 . S
C1895 C1894 1.414 . S
C1895 C1896 1.374 . S
C1896 H1870 0.950 . S
C1896 C1892 1.385 . S
C1896 C1895 1.374 . S
C1897 C1894 1.499 . S
C1897 C1898 1.373 . S
C1897 C1899 1.389 . S
C1898 H1871 0.950 . S
C1898 C1884 1.377 . S
C1898 C1897 1.373 . S
C1899 C1883 1.377 . S
C1899 C1897 1.389 . S
C1899 C1900 1.524 . S
C1900 C1899 1.524 . S
C1900 C1901 1.397 . S
C1900 C1905 1.363 . S
C1901 H1872 0.950 . S
C1901 C1900 1.397 . S
C1901 C1902 1.334 . S
C1902 H1873 0.950 . S
C1902 C1901 1.334 . S
C1902 C1903 1.287 . S
C1903 C1902 1.287 . S
C1903 C1904 1.524 . S
C1903 H1906 0.999 . S
C1904 H1874 0.950 . S
C1904 C1903 1.524 . S
C1904 C1905 1.415 . S
C1905 H1875 0.950 . S
C1905 C1900 1.363 . S
C1905 C1904 1.415 . S
H1906 C1903 0.999 . S
H1907 C1888 0.913 . S
C427 C135 1.206 . S
C442 C33 1.206 . S
C477 C67 1.206 . S
C492 C169 1.205 . S
C527 C203 1.205 . S
C542 C101 1.206 . S
C577 C237 1.205 . S
C592 C339 1.206 . S
C627 C373 1.206 . S
C642 C271 1.206 . S
C677 C305 1.206 . S
C692 C407 1.206 . S
C727 C9 1.566 . S
C742 C349 1.567 . S
C777 C383 1.566 . S
C792 C43 1.565 . S
C827 C77 1.566 . S
C842 C213 1.567 . S
C877 C111 1.565 . S
C892 C247 1.566 . S
C927 C145 1.566 . S
C942 C281 1.565 . S
C977 C179 1.565 . S
C992 C315 1.567 . S
C1027 C308 1.506 . S
C1042 C2 1.508 . S
C1077 C36 1.507 . S
C1092 C342 1.506 . S
C1127 C70 1.507 . S
C1142 C376 1.507 . S
C1177 C206 1.506 . S
C1192 C104 1.508 . S
C1227 C240 1.506 . S
C1242 C138 1.507 . S
C1277 C274 1.507 . S
C1292 C172 1.506 . S
C1327 C5 0.617 . S
C1342 C209 0.617 . S
C1377 C39 0.617 . S
C1392 C243 0.617 . S
C1427 C277 0.618 . S
C1442 C73 0.618 . S
C1477 C107 0.617 . S
C1492 C311 0.617 . S
C1527 C345 0.617 . S
C1542 C141 0.617 . S
C1577 C175 0.618 . S
C1592 C379 0.617 . S
C1627 C292 1.082 . S
C1642 C20 1.082 . S
C1677 C326 1.082 . S
C1692 C54 1.083 . S
C1727 C360 1.082 . S
C1742 C88 1.082 . S
C1777 C122 1.082 . S
C1792 C394 1.082 . S
C1827 C224 1.083 . S
C1842 C156 1.082 . S
C1877 C258 1.082 . S
C1892 C190 1.082 . S
