# Generated by pormake.
# Topology wjl, (5)-cn, num edge types: 1
# Building blocks:
#     Node 0, Type 0, BuildingBlock: XOMCOT_clean_sbu_1, # of connection points: 5
#     Node 1, Type 0, BuildingBlock: XOMCOT_clean_sbu_1, # of connection points: 5
#     Node 2, Type 0, BuildingBlock: XOMCOT_clean_sbu_1, # of connection points: 5
#     Node 3, Type 0, BuildingBlock: XOMCOT_clean_sbu_1, # of connection points: 5
#     Node 4, Type 0, BuildingBlock: XOMCOT_clean_sbu_1, # of connection points: 5
#     Node 5, Type 0, BuildingBlock: XOMCOT_clean_sbu_1, # of connection points: 5
#     Node 6, Type 0, BuildingBlock: XOMCOT_clean_sbu_1, # of connection points: 5
#     Node 7, Type 0, BuildingBlock: XOMCOT_clean_sbu_1, # of connection points: 5
#     Node 8, Type 0, BuildingBlock: XOMCOT_clean_sbu_1, # of connection points: 5
#     Node 9, Type 0, BuildingBlock: XOMCOT_clean_sbu_1, # of connection points: 5
#     Node 10, Type 0, BuildingBlock: XOMCOT_clean_sbu_1, # of connection points: 5
#     Node 11, Type 0, BuildingBlock: XOMCOT_clean_sbu_1, # of connection points: 5
#     Edge 12, Type (0, 0), BuildingBlock: XUDNAN_clean_linker_2, # of connection points: 2
#     Edge 13, Type (0, 0), BuildingBlock: XUDNAN_clean_linker_2, # of connection points: 2
#     Edge 14, Type (0, 0), BuildingBlock: XUDNAN_clean_linker_2, # of connection points: 2
#     Edge 15, Type (0, 0), BuildingBlock: XUDNAN_clean_linker_2, # of connection points: 2
#     Edge 16, Type (0, 0), BuildingBlock: XUDNAN_clean_linker_2, # of connection points: 2
#     Edge 17, Type (0, 0), BuildingBlock: XUDNAN_clean_linker_2, # of connection points: 2
#     Edge 18, Type (0, 0), BuildingBlock: XUDNAN_clean_linker_2, # of connection points: 2
#     Edge 19, Type (0, 0), BuildingBlock: XUDNAN_clean_linker_2, # of connection points: 2
#     Edge 20, Type (0, 0), BuildingBlock: XUDNAN_clean_linker_2, # of connection points: 2
#     Edge 21, Type (0, 0), BuildingBlock: XUDNAN_clean_linker_2, # of connection points: 2
#     Edge 22, Type (0, 0), BuildingBlock: XUDNAN_clean_linker_2, # of connection points: 2
#     Edge 23, Type (0, 0), BuildingBlock: XUDNAN_clean_linker_2, # of connection points: 2
#     Edge 24, Type (0, 0), BuildingBlock: XUDNAN_clean_linker_2, # of connection points: 2
#     Edge 25, Type (0, 0), BuildingBlock: XUDNAN_clean_linker_2, # of connection points: 2
#     Edge 26, Type (0, 0), BuildingBlock: XUDNAN_clean_linker_2, # of connection points: 2
#     Edge 27, Type (0, 0), BuildingBlock: XUDNAN_clean_linker_2, # of connection points: 2
#     Edge 28, Type (0, 0), BuildingBlock: XUDNAN_clean_linker_2, # of connection points: 2
#     Edge 29, Type (0, 0), BuildingBlock: XUDNAN_clean_linker_2, # of connection points: 2
#     Edge 30, Type (0, 0), BuildingBlock: XUDNAN_clean_linker_2, # of connection points: 2
#     Edge 31, Type (0, 0), BuildingBlock: XUDNAN_clean_linker_2, # of connection points: 2
#     Edge 32, Type (0, 0), BuildingBlock: XUDNAN_clean_linker_2, # of connection points: 2
#     Edge 33, Type (0, 0), BuildingBlock: XUDNAN_clean_linker_2, # of connection points: 2
#     Edge 34, Type (0, 0), BuildingBlock: XUDNAN_clean_linker_2, # of connection points: 2
#     Edge 35, Type (0, 0), BuildingBlock: XUDNAN_clean_linker_2, # of connection points: 2
#     Edge 36, Type (0, 0), BuildingBlock: XUDNAN_clean_linker_2, # of connection points: 2
#     Edge 37, Type (0, 0), BuildingBlock: XUDNAN_clean_linker_2, # of connection points: 2
#     Edge 38, Type (0, 0), BuildingBlock: XUDNAN_clean_linker_2, # of connection points: 2
#     Edge 39, Type (0, 0), BuildingBlock: XUDNAN_clean_linker_2, # of connection points: 2
#     Edge 40, Type (0, 0), BuildingBlock: XUDNAN_clean_linker_2, # of connection points: 2
#     Edge 41, Type (0, 0), BuildingBlock: XUDNAN_clean_linker_2, # of connection points: 2
# Relax obj value: 0.437
# Max RMSD: 0.223
# Mean RMSD: 0.222
data_MOF--net-wjl--node1-XOMCOT_clean_sbu_1--edge1-XUDNAN_clean_linker_2
_symmetry_space_group_name_H-M    P1
_symmetry_Int_Tables_number       1
_symmetry_cell_setting            triclinic
loop_
_symmetry_equiv_pos_as_xyz
'x, y, z'
_cell_length_a     26.375449
_cell_length_b     26.401719
_cell_length_c     86.081652
_cell_angle_alpha  90.042882
_cell_angle_beta   89.982496
_cell_angle_gamma 120.05979
loop_
_atom_site_label
_atom_site_type_symbol
_atom_site_fract_x
_atom_site_fract_y
_atom_site_fract_z
_atom_type_partial_charge
C0 C 0.36698 0.22734 0.3527 0.0
C1 C 0.39027 0.23852 0.36747 0.0
N2 N 0.39542 0.28936 0.37224 0.0
N3 N 0.35893 0.27176 0.34813 0.0
C4 C 0.37607 0.30846 0.36042 0.0
H5 H 0.35684 0.18922 0.34582 0.0
Co6 Co 0.3316 0.28183 0.32906 0.0
C7 C 0.41721 0.40687 0.32314 0.0
O8 O 0.43457 0.39188 0.31053 0.0
N9 N 0.30354 0.29228 0.31005 0.0
C10 C 0.27494 0.33016 0.29117 0.0
C11 C 0.29424 0.33673 0.30626 0.0
C12 C 0.28748 0.25815 0.29724 0.0
N13 N 0.27045 0.28057 0.28564 0.0
O14 O 0.39596 0.27987 0.31907 0.0
H15 H 0.30115 0.37203 0.31395 0.0
H16 H 0.28888 0.21811 0.29622 0.0
O17 O 0.37786 0.36707 0.33169 0.0
C18 C 0.38629 0.22885 0.31544 0.0
O19 O 0.33244 0.18466 0.31654 0.0
N20 N 0.26721 0.27756 0.33911 0.0
C21 C 0.17685 0.25114 0.36001 0.0
C22 C 0.21949 0.3096 0.35697 0.0
C23 C 0.26432 0.32198 0.34638 0.0
C24 C 0.22367 0.22109 0.34089 0.0
C25 C 0.17783 0.20681 0.35125 0.0
H26 H 0.29827 0.36686 0.34489 0.0
H27 H 0.22681 0.18658 0.33498 0.0
H28 H 0.37551 0.34915 0.36066 0.0
H29 H 0.402 0.21133 0.37422 0.0
H30 H 0.26459 0.35912 0.28477 0.0
H31 H 0.22084 0.34535 0.36348 0.0
H32 H 0.14519 0.16124 0.35295 0.0
C33 C 0.1291 0.36518 0.52779 0.0
C34 C 0.13521 0.38596 0.54278 0.0
N35 N 0.08619 0.38709 0.54655 0.0
N36 N 0.0771 0.35467 0.52209 0.0
C37 C 0.05144 0.36672 0.53395 0.0
H38 H 0.16188 0.36133 0.52118 0.0
Co39 Co 0.05129 0.33826 0.50165 0.0
C40 C 0.01747 0.42967 0.50727 0.0
O41 O 0.07192 0.47139 0.50944 0.0
N42 N 0.02531 0.32175 0.48112 0.0
C43 C 0.99129 0.32406 0.45768 0.0
C44 C 0.99853 0.34462 0.47263 0.0
C45 C 0.03321 0.28693 0.47111 0.0
N46 N 0.01356 0.28812 0.4567 0.0
O47 O 0.11969 0.4098 0.49547 0.0
H48 H 0.98659 0.37591 0.47672 0.0
H49 H 0.05578 0.26359 0.47416 0.0
O50 O 0.00614 0.37765 0.50436 0.0
C51 C 0.16179 0.40442 0.49005 0.0
O52 O 0.15131 0.35204 0.48606 0.0
N53 N 0.98864 0.26691 0.50814 0.0
C54 C 0.92466 0.17085 0.52736 0.0
C55 C 0.90523 0.21066 0.52439 0.0
C56 C 0.93787 0.25851 0.51469 0.0
C57 C 0.00438 0.22524 0.5094 0.0
C58 C 0.9728 0.17655 0.51892 0.0
H59 H 0.92494 0.29108 0.51382 0.0
H60 H 0.04495 0.2328 0.5042 0.0
H61 H 0.00965 0.36477 0.53302 0.0
H62 H 0.17373 0.40164 0.55002 0.0
H63 H 0.97261 0.3361 0.44817 0.0
H64 H 0.86853 0.20838 0.53066 0.0
H65 H 0.98866 0.14622 0.52059 0.0
C66 C 0.7716 0.0676 0.70159 0.0
C67 C 0.76252 0.08233 0.71624 0.0
N68 N 0.71461 0.08819 0.71583 0.0
N69 N 0.72938 0.06376 0.69203 0.0
C70 C 0.69591 0.07735 0.70096 0.0
H71 H 0.80585 0.05868 0.69819 0.0
Co72 Co 0.72041 0.04158 0.67131 0.0
C73 C 0.59534 0.02016 0.67124 0.0
O74 O 0.60905 0.07406 0.66787 0.0
N75 N 0.71237 0.01954 0.65053 0.0
C76 C 0.67887 0.97754 0.62754 0.0
C77 C 0.66421 0.97978 0.64276 0.0
C78 C 0.75577 0.04002 0.63991 0.0
N79 N 0.73652 0.01527 0.62583 0.0
O80 O 0.73351 0.11784 0.66557 0.0
H81 H 0.62119 0.95341 0.64777 0.0
H82 H 0.80063 0.07283 0.64243 0.0
O83 O 0.63558 0.0072 0.67275 0.0
C84 C 0.7885 0.1544 0.6661 0.0
O85 O 0.82392 0.13424 0.66926 0.0
N86 N 0.71337 0.97029 0.6772 0.0
C87 C 0.72581 0.88294 0.69176 0.0
C88 C 0.67648 0.88863 0.69456 0.0
C89 C 0.6713 0.93288 0.68729 0.0
C90 C 0.75996 0.96348 0.67361 0.0
C91 C 0.76707 0.91992 0.68077 0.0
H92 H 0.63609 0.93986 0.69089 0.0
H93 H 0.79394 0.99462 0.66601 0.0
H94 H 0.6584 0.0791 0.69667 0.0
H95 H 0.78797 0.08614 0.72648 0.0
H96 H 0.6497 0.94966 0.61849 0.0
H97 H 0.64437 0.86227 0.70327 0.0
H98 H 0.80583 0.91707 0.67831 0.0
C99 C 0.70762 0.71365 0.85923 0.0
C100 C 0.68938 0.70834 0.87441 0.0
N101 N 0.63496 0.66144 0.87549 0.0
N102 N 0.66534 0.66979 0.85081 0.0
C103 C 0.62155 0.63923 0.86094 0.0
H104 H 0.749 0.74746 0.85466 0.0
Co105 Co 0.66592 0.65569 0.82975 0.0
C106 C 0.62252 0.52788 0.82739 0.0
O107 O 0.66332 0.53981 0.81693 0.0
N108 N 0.66507 0.64281 0.80827 0.0
C109 C 0.62737 0.60939 0.78488 0.0
C110 C 0.61749 0.60207 0.80052 0.0
C111 C 0.7024 0.67621 0.79692 0.0
N112 N 0.68058 0.65664 0.78252 0.0
O113 O 0.59716 0.66219 0.82736 0.0
H114 H 0.57661 0.57055 0.80588 0.0
H115 H 0.74239 0.71679 0.7991 0.0
O116 O 0.61778 0.56984 0.83344 0.0
C117 C 0.60854 0.71477 0.8254 0.0
O118 O 0.66364 0.75621 0.82417 0.0
N119 N 0.73658 0.65495 0.8328 0.0
C120 C 0.84078 0.6856 0.84827 0.0
C121 C 0.79183 0.63029 0.8503 0.0
C122 C 0.73969 0.61656 0.84293 0.0
C123 C 0.78591 0.70692 0.82952 0.0
C124 C 0.83864 0.72352 0.8373 0.0
H125 H 0.70109 0.57908 0.84738 0.0
H126 H 0.78252 0.73955 0.82279 0.0
H127 H 0.5801 0.6022 0.85751 0.0
H128 H 0.71463 0.73692 0.88385 0.0
H129 H 0.59619 0.58329 0.77598 0.0
H130 H 0.79149 0.60114 0.85922 0.0
H131 H 0.8752 0.7676 0.83597 0.0
C132 C 0.85278 0.6741 0.02294 0.0
C133 C 0.83526 0.64989 0.03752 0.0
N134 N 0.85811 0.61505 0.04021 0.0
N135 N 0.88647 0.65461 0.01655 0.0
C136 C 0.88876 0.61877 0.0273 0.0
H137 H 0.84231 0.70452 0.01743 0.0
Co138 Co 0.92266 0.67499 0.99734 0.0
C139 C 0.96132 0.58747 0.99323 0.0
O140 O 0.92874 0.56732 0.98071 0.0
N141 N 0.95991 0.69608 0.97797 0.0
C142 C 0.03046 0.72464 0.96028 0.0
C143 C 0.01727 0.71436 0.97576 0.0
C144 C 0.93923 0.69616 0.9636 0.0
N145 N 0.98138 0.7131 0.95261 0.0
O146 O 0.85389 0.60858 0.98875 0.0
H147 H 0.04767 0.71924 0.98486 0.0
H148 H 0.89397 0.68266 0.96118 0.0
O149 O 0.96104 0.62861 0.00097 0.0
C150 C 0.81136 0.61757 0.98602 0.0
O151 O 0.82224 0.67189 0.98579 0.0
N152 N 0.98546 0.74111 0.0064 0.0
C153 C 0.06212 0.84114 0.02303 0.0
C154 C 0.06 0.78782 0.02578 0.0
C155 C 0.02072 0.7381 0.01752 0.0
C156 C 0.98824 0.79296 0.00315 0.0
C157 C 0.02624 0.8437 0.0114 0.0
H158 H 0.01642 0.69683 0.02083 0.0
H159 H 0.95878 0.79424 0.99462 0.0
H160 H 0.9143 0.59744 0.02596 0.0
H161 H 0.80824 0.65775 0.04549 0.0
H162 H 0.07299 0.73959 0.95507 0.0
H163 H 0.08573 0.78364 0.03497 0.0
H164 H 0.02634 0.88404 0.00905 0.0
C165 C 0.25135 0.97705 0.183 0.0
C166 C 0.25762 0.96037 0.19769 0.0
N167 N 0.31481 0.97884 0.20001 0.0
N168 N 0.30425 0.00588 0.17611 0.0
C169 C 0.34201 0.00667 0.1868 0.0
H170 H 0.21061 0.96743 0.1775 0.0
Co171 Co 0.31547 0.03094 0.15562 0.0
C172 C 0.44209 0.06128 0.1582 0.0
O173 O 0.43 0.00688 0.15657 0.0
N174 N 0.32466 0.05477 0.13492 0.0
C175 C 0.35789 0.08422 0.11095 0.0
C176 C 0.37354 0.08266 0.12612 0.0
C177 C 0.28016 0.04081 0.12492 0.0
N178 N 0.29917 0.05804 0.11029 0.0
O179 O 0.31332 0.95991 0.14981 0.0
H180 H 0.41779 0.09894 0.13016 0.0
H181 H 0.23442 0.01545 0.12812 0.0
O182 O 0.40075 0.07316 0.15813 0.0
C183 C 0.26146 0.91736 0.14754 0.0
O184 O 0.21837 0.92866 0.14673 0.0
N185 N 0.31169 0.09657 0.16188 0.0
C186 C 0.27695 0.15794 0.18124 0.0
C187 C 0.33535 0.17054 0.18117 0.0
C188 C 0.35187 0.13901 0.17145 0.0
C189 C 0.25685 0.08887 0.16043 0.0
C190 C 0.23853 0.11936 0.16999 0.0
H191 H 0.39482 0.14445 0.17309 0.0
H192 H 0.22496 0.05393 0.1532 0.0
H193 H 0.38856 0.02695 0.185 0.0
H194 H 0.22248 0.93482 0.20576 0.0
H195 H 0.38716 0.10154 0.10109 0.0
H196 H 0.36635 0.19947 0.18977 0.0
H197 H 0.1932 0.10873 0.16959 0.0
C198 C 0.7219 0.59147 0.46733 0.0
C199 C 0.695 0.55308 0.45519 0.0
N200 N 0.63749 0.52045 0.45847 0.0
N201 N 0.68142 0.5828 0.47817 0.0
C202 C 0.63077 0.5386 0.47254 0.0
H203 H 0.76725 0.62591 0.4678 0.0
Co204 Co 0.69257 0.63042 0.49528 0.0
C205 C 0.57769 0.57233 0.51176 0.0
O206 O 0.60271 0.57929 0.52539 0.0
N207 N 0.70401 0.67908 0.51251 0.0
C208 C 0.68946 0.73196 0.53029 0.0
C209 C 0.67566 0.70882 0.51552 0.0
C210 C 0.73589 0.68628 0.52546 0.0
N211 N 0.72741 0.71761 0.53646 0.0
O212 O 0.70528 0.57751 0.50765 0.0
H213 H 0.64416 0.71061 0.50784 0.0
H214 H 0.76198 0.66586 0.52736 0.0
O215 O 0.60884 0.58889 0.49948 0.0
C216 C 0.75952 0.59322 0.50668 0.0
O217 O 0.79502 0.6431 0.49978 0.0
N218 N 0.68518 0.6824 0.48217 0.0
C219 C 0.6954 0.74368 0.45514 0.0
C220 C 0.64103 0.69672 0.45959 0.0
C221 C 0.63662 0.66667 0.47327 0.0
C222 C 0.7372 0.73103 0.4787 0.0
C223 C 0.74321 0.7629 0.46521 0.0
H224 H 0.59564 0.62743 0.47573 0.0
H225 H 0.77548 0.74184 0.48566 0.0
H226 H 0.58891 0.52175 0.47821 0.0
H227 H 0.71529 0.55222 0.44433 0.0
H228 H 0.67149 0.75563 0.53622 0.0
H229 H 0.6033 0.68093 0.45201 0.0
H230 H 0.7859 0.79883 0.46201 0.0
C231 C 0.14115 0.74412 0.63681 0.0
C232 C 0.14543 0.72006 0.62299 0.0
N233 N 0.09557 0.66863 0.62094 0.0
N234 N 0.08918 0.70746 0.64355 0.0
C235 C 0.06214 0.66283 0.63339 0.0
H236 H 0.17468 0.78491 0.64173 0.0
Co237 Co 0.05917 0.71013 0.6631 0.0
C238 C 0.03265 0.58511 0.66564 0.0
O239 O 0.08778 0.60055 0.6679 0.0
N240 N 0.02787 0.71093 0.68267 0.0
C241 C 0.9761 0.68039 0.70456 0.0
C242 C 0.98234 0.66489 0.6898 0.0
C243 C 0.04765 0.75436 0.69335 0.0
N244 N 0.0172 0.73658 0.70676 0.0
O245 O 0.12961 0.71919 0.67271 0.0
H246 H 0.95619 0.62163 0.68494 0.0
H247 H 0.08555 0.79724 0.69174 0.0
O248 O 0.0184 0.62437 0.66386 0.0
C249 C 0.16692 0.77397 0.67353 0.0
O250 O 0.14986 0.81079 0.66915 0.0
N251 N 0.99552 0.70902 0.65334 0.0
C252 C 0.91706 0.71748 0.63349 0.0
C253 C 0.89841 0.66809 0.64297 0.0
C254 C 0.93867 0.66463 0.65288 0.0
C255 C 0.01279 0.75917 0.64515 0.0
C256 C 0.97449 0.76405 0.63498 0.0
H257 H 0.92447 0.62588 0.65977 0.0
H258 H 0.05774 0.7944 0.64591 0.0
H259 H 0.01942 0.62514 0.63543 0.0
H260 H 0.18284 0.7384 0.61527 0.0
H261 H 0.9452 0.65199 0.71324 0.0
H262 H 0.85411 0.63145 0.64215 0.0
H263 H 0.99012 0.80317 0.62798 0.0
C264 C 0.35912 0.04948 0.80469 0.0
C265 C 0.39536 0.06929 0.79191 0.0
N266 N 0.44416 0.06726 0.79526 0.0
N267 N 0.3847 0.03394 0.81582 0.0
C268 C 0.43668 0.0459 0.80981 0.0
H269 H 0.3169 0.04658 0.80581 0.0
Co270 Co 0.35687 0.00619 0.83554 0.0
C271 C 0.3672 0.9005 0.83857 0.0
O272 O 0.31342 0.87524 0.84403 0.0
N273 N 0.33061 0.981 0.85605 0.0
C274 C 0.33794 0.9667 0.88127 0.0
C275 C 0.35955 0.96752 0.86675 0.0
C276 C 0.29305 0.99041 0.8646 0.0
N277 N 0.29663 0.98204 0.87995 0.0
O278 O 0.42614 0.07157 0.84391 0.0
H279 H 0.39803 0.96412 0.86448 0.0
H280 H 0.26925 0.01053 0.86005 0.0
O281 O 0.39284 0.95492 0.83478 0.0
C282 C 0.41216 0.11059 0.84662 0.0
O283 O 0.35778 0.09757 0.8442 0.0
N284 N 0.28644 0.94727 0.82649 0.0
C285 C 0.19166 0.89267 0.80612 0.0
C286 C 0.23883 0.88269 0.80493 0.0
C287 C 0.28647 0.91166 0.81491 0.0
C288 C 0.23947 0.95529 0.82816 0.0
C289 C 0.19148 0.92823 0.81814 0.0
H290 H 0.32556 0.91007 0.81216 0.0
H291 H 0.24172 0.98801 0.83603 0.0
H292 H 0.46833 0.03869 0.81595 0.0
H293 H 0.38696 0.08473 0.78111 0.0
H294 H 0.35498 0.96022 0.89205 0.0
H295 H 0.24167 0.85754 0.79535 0.0
H296 H 0.15656 0.93837 0.81908 0.0
C297 C 0.25214 0.37797 0.9619 0.0
C298 C 0.28174 0.41237 0.94934 0.0
N299 N 0.33587 0.45268 0.95407 0.0
N300 N 0.28785 0.39617 0.97437 0.0
C301 C 0.33819 0.44231 0.96929 0.0
H302 H 0.20822 0.34065 0.96181 0.0
Co303 Co 0.27148 0.35919 0.99352 0.0
C304 C 0.38619 0.37945 0.00528 0.0
O305 O 0.35801 0.32655 0.01122 0.0
N306 N 0.25374 0.32164 0.01322 0.0
C307 C 0.22188 0.25823 0.03291 0.0
C308 C 0.22612 0.26416 0.01706 0.0
C309 C 0.26601 0.34947 0.02712 0.0
N310 N 0.24689 0.31192 0.03924 0.0
O311 O 0.26118 0.42128 0.00199 0.0
H312 H 0.20987 0.22781 0.00914 0.0
H313 H 0.28764 0.39654 0.02833 0.0
O314 O 0.35693 0.39978 -0.00156 0.0
C315 C 0.20743 0.40456 -0.00087 0.0
O316 O 0.17478 0.35213 0.99314 0.0
N317 N 0.2736 0.29663 0.98384 0.0
C318 C 0.25653 0.2078 0.96318 0.0
C319 C 0.31308 0.25467 0.96622 0.0
C320 C 0.32062 0.29924 0.97639 0.0
C321 C 0.21846 0.25216 0.98068 0.0
C322 C 0.20902 0.20651 0.97082 0.0
H323 H 0.36349 0.33762 0.97717 0.0
H324 H 0.18113 0.25314 0.98554 0.0
H325 H 0.37695 0.46621 0.97636 0.0
H326 H 0.26527 0.40729 0.93759 0.0
H327 H 0.20189 0.2174 0.03928 0.0
H328 H 0.35081 0.259 0.96004 0.0
H329 H 0.16455 0.17158 0.96881 0.0
C330 C 0.95238 0.34512 0.13229 0.0
C331 C 0.93313 0.36112 0.11934 0.0
N332 N 0.9303 0.40951 0.12282 0.0
N333 N 0.96215 0.38364 0.14376 0.0
C334 C 0.9483 0.42214 0.1377 0.0
H335 H 0.95716 0.30694 0.13346 0.0
Co336 Co 0.97997 0.379 0.16419 0.0
C337 C 0.07081 0.49837 0.17289 0.0
O338 O 0.09554 0.47244 0.18012 0.0
N339 N 0.99449 0.3729 0.18536 0.0
C340 C 0.99071 0.38608 0.21073 0.0
C341 C 0.9874 0.40549 0.19629 0.0
C342 C 0.99975 0.33212 0.19362 0.0
N343 N 0.99808 0.33933 0.20919 0.0
O344 O 0.90453 0.36843 0.16988 0.0
H345 H 0.97704 0.43951 0.19391 0.0
H346 H 1.00005 0.29528 0.18837 0.0
O347 O 0.02102 0.46667 0.16617 0.0
C348 C 0.86805 0.31344 0.17021 0.0
O349 O 0.88857 0.27758 0.16831 0.0
N350 N 0.0505 0.38315 0.15739 0.0
C351 C 0.13595 0.37368 0.1404 0.0
C352 C 0.13268 0.4249 0.1399 0.0
C353 C 0.08881 0.42805 0.14803 0.0
C354 C 0.05332 0.33298 0.1581 0.0
C355 C 0.09614 0.32753 0.14985 0.0
H356 H 0.08277 0.46471 0.14554 0.0
H357 H 0.01898 0.29482 0.16378 0.0
H358 H 0.95029 0.45803 0.14426 0.0
H359 H 0.92018 0.33761 0.10843 0.0
H360 H 0.98378 0.40319 0.22142 0.0
H361 H 0.16022 0.46034 0.1321 0.0
H362 H 0.09576 0.28633 0.1501 0.0
C363 C 0.63328 0.91845 0.28381 0.0
C364 C 0.59872 0.91363 0.27124 0.0
N365 N 0.55443 0.92106 0.27629 0.0
N366 N 0.61105 0.92939 0.29664 0.0
C367 C 0.56284 0.92995 0.29172 0.0
H368 H 0.67262 0.9153 0.28359 0.0
Co369 Co 0.64003 0.94281 0.31684 0.0
C370 C 0.6306 0.04708 0.3253 0.0
O371 O 0.68466 0.07132 0.33051 0.0
N372 N 0.66702 0.95383 0.33754 0.0
C373 C 0.66677 0.96017 0.36335 0.0
C374 C 0.64601 0.96988 0.34979 0.0
C375 C 0.69779 0.93115 0.34421 0.0
N376 N 0.69895 0.93525 0.35987 0.0
O377 O 0.57083 0.8723 0.32343 0.0
H378 H 0.61238 0.98168 0.34928 0.0
H379 H 0.71432 0.90714 0.33784 0.0
O380 O 0.60526 0.99407 0.32032 0.0
C381 C 0.58333 0.83264 0.31997 0.0
O382 O 0.6347 0.84911 0.31366 0.0
N383 N 0.71084 0.00668 0.30948 0.0
C384 C 0.81231 0.08129 0.29297 0.0
C385 C 0.76257 0.08715 0.29188 0.0
C386 C 0.7118 0.0484 0.29986 0.0
C387 C 0.75934 1.00097 0.31075 0.0
C388 C 0.81065 0.03791 0.30261 0.0
H389 H 0.67227 0.04965 0.29744 0.0
H390 H 0.75723 0.96484 0.31708 0.0
H391 H 0.53525 0.93836 0.29931 0.0
H392 H 0.60595 0.90557 0.25935 0.0
H393 H 0.65342 0.96465 0.37493 0.0
H394 H 0.76153 0.11864 0.28401 0.0
H395 H 0.84777 0.03102 0.30331 0.0
H396 H 0.37865 0.12449 0.30772 0.0
H397 H 0.50339 0.30334 0.32095 0.0
H398 H 0.58014 0.27639 0.32366 0.0
H399 H 0.42314 0.05618 0.33415 0.0
H400 H 0.41403 0.99752 0.3216 0.0
H401 H 0.37054 0.03172 0.31854 0.0
H402 H 0.40712 0.0558 0.29012 0.0
H403 H 0.45007 0.0208 0.29301 0.0
H404 H 0.48472 0.09535 0.28624 0.0
H405 H 0.63937 0.22777 0.32812 0.0
H406 H 0.6809 0.16351 0.33164 0.0
H407 H 0.51843 0.01522 0.31522 0.0
C408 C 0.42252 0.15846 0.31077 0.0
C409 C 0.43502 0.21623 0.31406 0.0
C410 C 0.49283 0.25906 0.31821 0.0
C411 C 0.53665 0.24404 0.31986 0.0
C412 C 0.52218 0.18619 0.31713 0.0
C413 C 0.46681 0.14424 0.31239 0.0
C414 C 0.46194 0.08453 0.311 0.0
C415 C 0.41461 0.03988 0.32198 0.0
C416 C 0.45028 0.06286 0.29409 0.0
C417 C 0.52274 0.09912 0.31618 0.0
C418 C 0.55671 0.15807 0.31959 0.0
C419 C 0.61347 0.18176 0.32527 0.0
C420 C 0.63651 0.14458 0.32732 0.0
C421 C 0.60306 0.08407 0.3237 0.0
C422 C 0.54526 0.06119 0.31805 0.0
H423 H 0.25862 0.42139 0.4742 0.0
H424 H 0.204 0.48618 0.51332 0.0
H425 H 0.30621 0.53992 0.52274 0.0
H426 H 0.35628 0.39477 0.49293 0.0
H427 H 0.41117 0.41992 0.47789 0.0
H428 H 0.33581 0.39343 0.47289 0.0
H429 H 0.36427 0.49087 0.45891 0.0
H430 H 0.44004 0.51732 0.4636 0.0
H431 H 0.40601 0.55912 0.46918 0.0
H432 H 0.41035 0.57048 0.5304 0.0
H433 H 0.51281 0.59228 0.53305 0.0
H434 H 0.50133 0.51433 0.48789 0.0
C435 C 0.26864 0.44879 0.48441 0.0
C436 C 0.22344 0.44976 0.493 0.0
C437 C 0.23798 0.48541 0.50643 0.0
C438 C 0.2959 0.51567 0.51195 0.0
C439 C 0.33896 0.5112 0.50364 0.0
C440 C 0.3264 0.48034 0.48985 0.0
C441 C 0.38022 0.48096 0.48338 0.0
C442 C 0.37023 0.41856 0.48169 0.0
C443 C 0.39873 0.51405 0.46785 0.0
C444 C 0.42427 0.51451 0.49606 0.0
C445 C 0.39961 0.53138 0.50769 0.0
C446 C 0.43048 0.55871 0.52119 0.0
C447 C 0.48839 0.57028 0.52269 0.0
C448 C 0.51506 0.55515 0.51067 0.0
C449 C 0.48238 0.52697 0.4972 0.0
H450 H 0.04373 0.48835 0.67153 0.0
H451 H 0.91766 0.53824 0.65671 0.0
H452 H 0.84132 0.43451 0.65507 0.0
H453 H 0.99133 0.36228 0.64646 0.0
H454 H 0.00402 0.31938 0.66056 0.0
H455 H 0.04868 0.39796 0.6607 0.0
H456 H 0.02121 0.40008 0.68952 0.0
H457 H 0.97652 0.32152 0.68946 0.0
H458 H 0.94508 0.36579 0.69496 0.0
H459 H 0.77695 0.32314 0.65555 0.0
H460 H 0.73264 0.2153 0.65757 0.0
H461 H 0.90175 0.23939 0.67121 0.0
C462 C 1.00012 0.4776 0.66794 0.0
C463 C 0.98685 0.52206 0.66448 0.0
C464 C 0.92907 0.50557 0.65974 0.0
C465 C 0.88523 0.44645 0.65867 0.0
C466 C 0.89966 0.40381 0.66228 0.0
C467 C 0.95583 0.4187 0.66675 0.0
C468 C 0.9601 0.36455 0.66993 0.0
C469 C 1.0036 0.36084 0.65874 0.0
C470 C 0.9767 0.36291 0.68698 0.0
C471 C 0.89767 0.31703 0.66659 0.0
C472 C 0.86323 0.34031 0.66223 0.0
C473 C 0.80367 0.30445 0.65889 0.0
C474 C 0.7788 0.24327 0.66006 0.0
C475 C 0.81358 0.21866 0.66445 0.0
C476 C 0.87379 0.25646 0.66769 0.0
H477 H 0.48223 0.93463 0.83053 0.0
H478 H 0.31342 0.78213 0.84093 0.0
H479 H 0.35536 0.71845 0.83726 0.0
H480 H 0.52641 0.86444 0.80104 0.0
H481 H 0.60202 0.90157 0.80706 0.0
H482 H 0.55848 0.93604 0.80977 0.0
H483 H 0.58316 0.94806 0.83914 0.0
H484 H 0.62685 0.91379 0.83652 0.0
H485 H 0.56806 0.88465 0.85049 0.0
H486 H 0.41505 0.67031 0.83336 0.0
H487 H 0.49072 0.64202 0.8302 0.0
H488 H 0.62146 0.82424 0.82248 0.0
C489 C 0.45413 0.88785 0.83194 0.0
C490 C 0.39446 0.86367 0.83604 0.0
C491 C 0.35929 0.80211 0.83785 0.0
C492 C 0.3826 0.76526 0.83573 0.0
C493 C 0.44139 0.79027 0.83179 0.0
C494 C 0.47687 0.85008 0.82993 0.0
C495 C 0.53923 0.8654 0.82623 0.0
C496 C 0.5576 0.89352 0.81006 0.0
C497 C 0.58183 0.90533 0.83885 0.0
C498 C 0.53308 0.80499 0.8265 0.0
C499 C 0.47613 0.76227 0.82961 0.0
C500 C 0.45983 0.70332 0.83083 0.0
C501 C 0.50308 0.68761 0.829 0.0
C502 C 0.562 0.7307 0.82605 0.0
C503 C 0.57677 0.79007 0.82464 0.0
H504 H 0.71184 0.62146 0.97869 0.0
H505 H 0.77024 0.50595 0.99689 0.0
H506 H 0.66794 0.43314 0.00347 0.0
H507 H 0.60622 0.59416 0.00698 0.0
H508 H 0.55295 0.5952 0.99407 0.0
H509 H 0.62967 0.63633 0.9893 0.0
H510 H 0.60924 0.58281 0.96286 0.0
H511 H 0.53228 0.54194 0.96747 0.0
H512 H 0.57078 0.50394 0.9624 0.0
H513 H 0.56156 0.37784 0.01068 0.0
H514 H 0.45626 0.33729 0.01513 0.0
H515 H 0.46425 0.48677 0.99167 0.0
C516 C 0.70298 0.58023 0.98372 0.0
C517 C 0.74934 0.5694 0.98719 0.0
C518 C 0.73573 0.51511 0.99392 0.0
C519 C 0.67767 0.47361 -0.00219 0.0
C520 C 0.63344 0.48659 0.99473 0.0
C521 C 0.64512 0.53803 0.98753 0.0
C522 C 0.58954 0.54165 0.98585 0.0
C523 C 0.59495 0.59501 0.99457 0.0
C524 C 0.57459 0.54263 0.96862 0.0
C525 C 0.54502 0.48483 0.99358 0.0
C526 C 0.57151 0.45395 -0.00138 0.0
C527 C 0.54026 0.40127 0.00657 0.0
C528 C 0.48023 0.37876 0.00913 0.0
C529 C 0.45126 0.40845 0.0037 0.0
C530 C 0.48462 0.46267 0.99593 0.0
H531 H 0.15761 0.81779 0.14086 0.0
H532 H 0.3312 0.87775 0.15976 0.0
H533 H 0.30051 0.77667 0.16778 0.0
H534 H 0.07831 0.71819 0.17019 0.0
H535 H 0.02357 0.66289 0.15775 0.0
H536 H 0.05996 0.73856 0.15195 0.0
H537 H 0.09296 0.71295 0.12623 0.0
H538 H 0.05572 0.63695 0.13182 0.0
H539 H 0.13238 0.67354 0.12684 0.0
H540 H 0.24849 0.67305 0.17648 0.0
H541 H 0.18293 0.56952 0.18242 0.0
H542 H 0.04213 0.57295 0.15708 0.0
C543 C 0.18964 0.80943 0.14634 0.0
C544 C 0.24703 0.85578 0.14961 0.0
C545 C 0.28737 0.84305 0.15695 0.0
C546 C 0.27015 0.78577 0.16165 0.0
C547 C 0.2127 0.7416 0.15875 0.0
C548 C 0.17332 0.75235 0.15098 0.0
C549 C 0.11371 0.69703 0.14972 0.0
C550 C 0.06609 0.70466 0.15789 0.0
C551 C 0.09777 0.67905 0.13263 0.0
C552 C 0.1254 0.65376 0.15833 0.0
C553 C 0.18279 0.68077 0.16346 0.0
C554 C 0.20378 0.65121 0.17229 0.0
C555 C 0.16575 0.59218 0.17568 0.0
C556 C 0.10708 0.56251 0.17017 0.0
C557 C 0.08662 0.59411 0.16143 0.0
H558 H 0.02303 0.53349 0.51526 0.0
H559 H 0.90051 0.35389 0.50218 0.0
H560 H 0.81866 0.37268 0.50505 0.0
H561 H 0.92664 0.55311 0.54281 0.0
H562 H 0.95157 0.62698 0.5365 0.0
H563 H 1.00029 0.59766 0.53564 0.0
H564 H 0.0174 0.62192 0.50625 0.0
H565 H 0.96955 0.65198 0.50709 0.0
H566 H 0.95521 0.59464 0.49339 0.0
H567 H 0.74989 0.41237 0.50764 0.0
H568 H 0.70287 0.47334 0.5063 0.0
H569 H 0.8701 0.62766 0.51626 0.0
C570 C 0.97893 0.49784 0.51322 0.0
C571 C 0.96837 0.44171 0.5089 0.0
C572 C 0.90995 0.39676 0.50599 0.0
C573 C 0.86292 0.40701 0.50757 0.0
C574 C 0.87477 0.46264 0.51196 0.0
C575 C 0.93144 0.50753 0.51456 0.0
C576 C 0.93293 0.56481 0.51752 0.0
C577 C 0.95411 0.58693 0.5341 0.0
C578 C 0.97099 0.61103 0.50533 0.0
C579 C 0.86861 0.54549 0.51562 0.0
C580 C 0.83546 0.48609 0.51284 0.0
C581 C 0.77529 0.45884 0.50998 0.0
C582 C 0.7488 0.49363 0.50935 0.0
C583 C 0.78283 0.55496 0.51127 0.0
C584 C 0.843 0.58071 0.51489 0.0
H585 H 0.24984 0.88812 0.6779 0.0
H586 H 0.2284 0.71437 0.67515 0.0
H587 H 0.3365 0.75839 0.67602 0.0
H588 H 0.36766 0.95598 0.65282 0.0
H589 H 0.40466 0.02447 0.66319 0.0
H590 H 0.32636 0.9792 0.66456 0.0
H591 H 0.33344 0.97739 0.69458 0.0
H592 H 0.41187 0.02339 0.69332 0.0
H593 H 0.38062 0.95431 0.70334 0.0
H594 H 0.44799 0.82336 0.67482 0.0
H595 H 0.55109 0.90146 0.67208 0.0
H596 H 0.49813 0.03256 0.67483 0.0
C597 C 0.26759 0.85897 0.67781 0.0
C598 C 0.23043 0.79758 0.67654 0.0
C599 C 0.2558 0.76136 0.67631 0.0
C600 C 0.3172 0.7861 0.67673 0.0
C601 C 0.3525 0.84704 0.67748 0.0
C602 C 0.32838 0.88286 0.67816 0.0
C603 C 0.37532 0.94704 0.67793 0.0
C604 C 0.36805 0.97849 0.66378 0.0
C605 C 0.3753 0.9773 0.6932 0.0
C606 C 0.42988 0.9421 0.67652 0.0
C607 C 0.41596 0.88412 0.67651 0.0
C608 C 0.45917 0.86879 0.67498 0.0
C609 C 0.5178 0.91366 0.67343 0.0
C610 C 0.53304 0.97343 0.67326 0.0
C611 C 0.48816 0.98748 0.67489 0.0
H612 H 0.61804 0.42931 0.81573 0.0
H613 H 0.55362 0.4902 0.85365 0.0
H614 H 0.50461 0.39066 0.86494 0.0
H615 H 0.48963 0.29128 0.81113 0.0
H616 H 0.5286 0.25334 0.8065 0.0
H617 H 0.56092 0.33 0.80217 0.0
H618 H 0.6526 0.35071 0.81819 0.0
H619 H 0.61976 0.27406 0.82282 0.0
H620 H 0.64415 0.32763 0.83819 0.0
H621 H 0.45787 0.28338 0.87115 0.0
H622 H 0.40884 0.17542 0.87037 0.0
H623 H 0.5057 0.18466 0.82885 0.0
C624 C 0.59385 0.42191 0.82646 0.0
C625 C 0.58979 0.46771 0.83382 0.0
C626 C 0.5572 0.45587 0.84775 0.0
C627 C 0.5297 0.39956 0.85433 0.0
C628 C 0.53537 0.35567 0.84686 0.0
C629 C 0.5662 0.36612 0.83315 0.0
C630 C 0.56261 0.31069 0.82688 0.0
C631 C 0.5337 0.29543 0.81072 0.0
C632 C 0.62341 0.31612 0.82651 0.0
C633 C 0.52378 0.26689 0.83904 0.0
C634 C 0.50925 0.29395 0.85059 0.0
C635 C 0.46988 0.26196 0.86236 0.0
C636 C 0.44268 0.20074 0.86192 0.0
C637 C 0.45521 0.17216 0.84988 0.0
C638 C 0.49762 0.2057 0.83858 0.0
H639 H 0.1144 0.39473 0.98328 0.0
H640 H 0.24082 0.50039 0.01856 0.0
H641 H 0.19029 0.55818 0.02158 0.0
H642 H 0.10355 0.5119 0.96538 0.0
H643 H 0.02664 0.46632 0.96116 0.0
H644 H 0.07311 0.43456 0.96212 0.0
H645 H 0.00444 0.36082 0.98283 0.0
H646 H 0.958 0.39264 0.98204 0.0
H647 H 0.98851 0.38778 0.00033 0.0
H648 H 0.12118 0.60145 0.02104 0.0
H649 H 0.04791 0.63124 0.01564 0.0
H650 H 0.97016 0.4975 0.98001 0.0
C651 C 0.13167 0.42997 0.9917 0.0
C652 C 0.18133 0.44276 0.00081 0.0
C653 C 0.2029 0.48989 0.01147 0.0
C654 C 0.17425 0.52265 0.01328 0.0
C655 C 0.1247 0.50806 0.0042 0.0
C656 C 0.10426 0.46317 0.99348 0.0
C657 C 0.05132 0.45647 0.9848 0.0
C658 C 0.06446 0.46802 0.96733 0.0
C659 C 0.99739 0.39583 0.98768 0.0
C660 C 0.04431 0.5043 0.99236 0.0
C661 C 0.08669 0.53348 0.00359 0.0
C662 C 0.08819 0.57898 0.01219 0.0
C663 C 0.04608 0.59552 0.00906 0.0
C664 C 1.00306 0.56701 0.99734 0.0
C665 C 1.0023 0.52046 0.98902 0.0
H666 H 0.78461 0.19869 0.1736 0.0
H667 H 0.80516 0.37102 0.16728 0.0
H668 H 0.69731 0.3256 0.16476 0.0
H669 H 0.67571 0.12649 0.14581 0.0
H670 H 0.63589 0.05922 0.15658 0.0
H671 H 0.71339 0.10556 0.15958 0.0
H672 H 0.69618 0.11059 0.18906 0.0
H673 H 0.61856 0.06364 0.18617 0.0
H674 H 0.64586 0.13379 0.19543 0.0
H675 H 0.58692 0.25932 0.16093 0.0
H676 H 0.48506 0.17977 0.1568 0.0
H677 H 0.53847 0.05123 0.16529 0.0
C678 C 0.76657 0.22722 0.17196 0.0
C679 C 0.8035 0.28862 0.17071 0.0
C680 C 0.77784 0.32404 0.16844 0.0
C681 C 0.71661 0.29852 0.16694 0.0
C682 C 0.68171 0.23761 0.16783 0.0
C683 C 0.70591 0.20255 0.17044 0.0
C684 C 0.65962 0.13818 0.17021 0.0
C685 C 0.67191 0.10547 0.15727 0.0
C686 C 0.65478 0.1099 0.18616 0.0
C687 C 0.6055 0.14213 0.16667 0.0
C688 C 0.61892 0.1998 0.1655 0.0
C689 C 0.57603 0.21413 0.16198 0.0
C690 C 0.51817 0.16851 0.15966 0.0
C691 C 0.50349 0.10906 0.16076 0.0
C692 C 0.54806 0.09607 0.16433 0.0
H693 H 0.48822 0.50101 0.30486 0.0
H694 H 0.38906 0.45518 0.34783 0.0
H695 H 0.41388 0.55821 0.35107 0.0
H696 H 0.60506 0.63992 0.31784 0.0
H697 H 0.61394 0.67391 0.29912 0.0
H698 H 0.58692 0.5965 0.30038 0.0
H699 H 0.49514 0.57667 0.28453 0.0
H700 H 0.5215 0.65406 0.28344 0.0
H701 H 0.4499 0.60542 0.29134 0.0
H702 H 0.45034 0.6694 0.34918 0.0
H703 H 0.50243 0.77634 0.34355 0.0
H704 H 0.57697 0.74571 0.3022 0.0
C705 C 0.47181 0.51242 0.31501 0.0
C706 C 0.43604 0.46952 0.32598 0.0
C707 C 0.41587 0.48687 0.33912 0.0
C708 C 0.42973 0.54543 0.34107 0.0
C709 C 0.4641 0.58636 0.32981 0.0
C710 C 0.48533 0.57044 0.31714 0.0
C711 C 0.52272 0.62242 0.30687 0.0
C712 C 0.58589 0.63386 0.30601 0.0
C713 C 0.49567 0.61412 0.29058 0.0
C714 C 0.51962 0.67028 0.31573 0.0
C715 C 0.48526 0.64904 0.32887 0.0
C716 C 0.47723 0.68631 0.33888 0.0
C717 C 0.50645 0.74685 0.33556 0.0
C718 C 0.5435 0.76917 0.32244 0.0
C719 C 0.54888 0.72994 0.31233 0.0
H720 H 0.64051 0.44804 0.43653 0.0
H721 H 0.53045 0.51031 0.45634 0.0
H722 H 0.45302 0.45168 0.43737 0.0
H723 H 0.60359 0.45139 0.39736 0.0
H724 H 0.60338 0.3855 0.39176 0.0
H725 H 0.64865 0.42899 0.40764 0.0
H726 H 0.59951 0.3385 0.42574 0.0
H727 H 0.55408 0.29464 0.40988 0.0
H728 H 0.52091 0.29889 0.42778 0.0
H729 H 0.39234 0.39543 0.4146 0.0
H730 H 0.3492 0.33877 0.39047 0.0
H731 H 0.49539 0.30844 0.38609 0.0
C732 C 0.59984 0.44872 0.43692 0.0
C733 C 0.59126 0.48326 0.44797 0.0
C734 C 0.53751 0.48327 0.44817 0.0
C735 C 0.49339 0.45038 0.43738 0.0
C736 C 0.50342 0.41721 0.42656 0.0
C737 C 0.55497 0.41552 0.42633 0.0
C738 C 0.55508 0.37735 0.4132 0.0
C739 C 0.60567 0.41295 0.40182 0.0
C740 C 0.55752 0.32418 0.41953 0.0
C741 C 0.4962 0.35911 0.40586 0.0
C742 C 0.46719 0.38274 0.41373 0.0
C743 C 0.41405 0.37575 0.4085 0.0
C744 C 0.39002 0.34386 0.39482 0.0
C745 C 0.41877 0.3189 0.38669 0.0
C746 C 0.47211 0.32606 0.39238 0.0
H747 H 0.16934 0.48188 0.56227 0.0
H748 H 0.98231 0.36056 0.55945 0.0
H749 H 0.9645 0.42146 0.57792 0.0
H750 H 0.17141 0.51578 0.60402 0.0
H751 H 0.22703 0.59126 0.60133 0.0
H752 H 0.22479 0.53567 0.58872 0.0
H753 H 0.22027 0.5931 0.56486 0.0
H754 H 0.22106 0.64813 0.57739 0.0
H755 H 0.16249 0.61056 0.56357 0.0
H756 H 0.96638 0.49951 0.59461 0.0
H757 H 0.98819 0.58347 0.61142 0.0
H758 H 0.17446 0.65205 0.60446 0.0
C759 C 0.12481 0.46717 0.5659 0.0
C760 C 0.07713 0.41655 0.55939 0.0
C761 C 0.01937 0.3995 0.56419 0.0
C762 C 0.00883 0.43377 0.57465 0.0
C763 C 0.05662 0.48466 0.58034 0.0
C764 C 0.11352 0.50079 0.57639 0.0
C765 C 0.15689 0.55822 0.58398 0.0
C766 C 0.19741 0.54971 0.59518 0.0
C767 C 0.19225 0.60526 0.57172 0.0
C768 C 0.11535 0.57207 0.59265 0.0
C769 C 0.05774 0.5292 0.5903 0.0
C770 C 0.01136 0.53288 0.59677 0.0
C771 C 0.02425 0.58075 0.60633 0.0
C772 C 0.08309 0.6241 0.60947 0.0
C773 C 0.12907 0.62002 0.60226 0.0
H774 H 0.59976 0.05802 0.71787 0.0
H775 H 0.76381 0.13966 0.74344 0.0
H776 H 0.71277 0.14893 0.76633 0.0
H777 H 0.54242 0.14771 0.73458 0.0
H778 H 0.46827 0.08714 0.73486 0.0
H779 H 0.51861 0.09065 0.72017 0.0
H780 H 0.49888 0.98797 0.72822 0.0
H781 H 0.44877 0.98403 0.74299 0.0
H782 H 0.5098 0.97467 0.74815 0.0
H783 H 0.6424 0.14126 0.78705 0.0
H784 H 0.5579 0.12032 0.80384 0.0
H785 H 0.44132 0.04782 0.76436 0.0
C786 C 0.62554 0.07926 0.7281 0.0
C787 C 0.68602 0.09809 0.72879 0.0
C788 C 0.7174 0.12424 0.74264 0.0
C789 C 0.68887 0.13011 0.75567 0.0
C790 C 0.6291 0.11022 0.75462 0.0
C791 C 0.59791 0.08583 0.74114 0.0
C792 C 0.53352 0.06548 0.74323 0.0
C793 C 0.51462 0.09982 0.73258 0.0
C794 C 0.49555 0.99911 0.74049 0.0
C795 C 0.53315 0.08108 0.76012 0.0
C796 C 0.58874 0.10698 0.76648 0.0
C797 C 0.59881 0.12178 0.78216 0.0
C798 C 0.5507 0.10945 0.79161 0.0
C799 C 0.49348 0.08288 0.78531 0.0
C800 C 0.48485 0.06927 0.76934 0.0
H801 H 0.53531 0.5554 0.87908 0.0
H802 H 0.65004 0.71838 0.90316 0.0
H803 H 0.58615 0.68202 0.92611 0.0
H804 H 0.40152 0.54086 0.89318 0.0
H805 H 0.3655 0.46229 0.89469 0.0
H806 H 0.42204 0.49997 0.8804 0.0
H807 H 0.47956 0.45219 0.89145 0.0
H808 H 0.42313 0.41414 0.90575 0.0
H809 H 0.49808 0.46011 0.91181 0.0
H810 H 0.50916 0.62753 0.94657 0.0
H811 H 0.42365 0.55987 0.96252 0.0
H812 H 0.35788 0.43606 0.92435 0.0
C813 C 0.54723 0.58409 0.88903 0.0
C814 C 0.59817 0.6401 0.88911 0.0
C815 C 0.61189 0.67512 0.9027 0.0
C816 C 0.57562 0.65497 0.91583 0.0
C817 C 0.52556 0.59989 0.9152 0.0
C818 C 0.5113 0.56507 0.90213 0.0
C819 C 0.45443 0.50809 0.90424 0.0
C820 C 0.40815 0.50252 0.89243 0.0
C821 C 0.46443 0.45554 0.90326 0.0
C822 C 0.43867 0.51643 0.92055 0.0
C823 C 0.48046 0.56941 0.92675 0.0
C824 C 0.47597 0.5861 0.94181 0.0
C825 C 0.42745 0.54747 0.95077 0.0
C826 C 0.38399 0.4932 0.94458 0.0
C827 C 0.38978 0.47781 0.92926 0.0
H828 H 0.92658 0.40837 0.09124 0.0
H829 H 0.88848 0.48071 0.13198 0.0
H830 H 0.85902 0.53665 0.11511 0.0
H831 H 0.98658 0.53493 0.06845 0.0
H832 H 0.95511 0.49741 0.05044 0.0
H833 H 0.97019 0.4605 0.06576 0.0
H834 H 0.86182 0.37683 0.06536 0.0
H835 H 0.84643 0.4135 0.05 0.0
H836 H 0.80419 0.39408 0.06768 0.0
H837 H 0.84027 0.59019 0.09372 0.0
H838 H 0.83419 0.63678 0.0695 0.0
H839 H 0.87736 0.52338 0.04299 0.0
C840 C 0.91104 0.43501 0.09666 0.0
C841 C 0.91033 0.44017 0.11298 0.0
C842 C 0.89059 0.47661 0.11954 0.0
C843 C 0.87313 0.50821 0.11004 0.0
C844 C 0.87493 0.50244 0.09402 0.0
C845 C 0.89302 0.46645 0.08738 0.0
C846 C 0.89298 0.46953 0.06985 0.0
C847 C 0.95489 0.49194 0.06325 0.0
C848 C 0.8487 0.40994 0.06281 0.0
C849 C 0.87328 0.51387 0.06769 0.0
C850 C 0.8628 0.53219 0.08173 0.0
C851 C 0.84751 0.57557 0.08262 0.0
C852 C 0.84388 0.60161 0.06877 0.0
C853 C 0.85554 0.58415 0.05426 0.0
C854 C 0.86896 0.5386 0.05382 0.0
H855 H 0.55799 0.94446 0.24531 0.0
H856 H 0.44923 0.90399 0.28651 0.0
H857 H 0.37647 0.91554 0.27146 0.0
H858 H 0.52973 0.05235 0.22976 0.0
H859 H 0.5274 0.03031 0.20983 0.0
H860 H 0.5712 0.01835 0.22377 0.0
H861 H 0.5166 0.90775 0.21705 0.0
H862 H 0.47305 0.91955 0.20298 0.0
H863 H 0.43777 0.86636 0.21821 0.0
H864 H 0.31633 0.93383 0.25209 0.0
H865 H 0.27196 0.95447 0.22951 0.0
H866 H 0.41769 0.97786 0.20081 0.0
C867 C 0.51858 0.9371 0.25116 0.0
C868 C 0.50987 0.92367 0.26718 0.0
C869 C 0.45774 0.91529 0.27435 0.0
C870 C 0.41582 0.92142 0.26587 0.0
C871 C 0.42626 0.93543 0.25019 0.0
C872 C 0.4761 0.94271 0.24286 0.0
C873 C 0.47673 0.95765 0.22586 0.0
C874 C 0.52938 0.01827 0.2221 0.0
C875 C 0.47597 0.90997 0.21541 0.0
C876 C 0.4196 0.95793 0.22483 0.0
C877 C 0.39117 0.94511 0.23898 0.0
C878 C 0.33795 0.9435 0.24091 0.0
C879 C 0.31295 0.95504 0.22799 0.0
C880 C 0.34112 0.96787 0.21332 0.0
C881 C 0.39519 0.96917 0.21184 0.0
H882 H 0.32734 0.26361 0.19665 0.0
H883 H 0.17742 0.08757 0.19748 0.0
H884 H 0.15156 0.1054 0.22352 0.0
H885 H 0.37161 0.26452 0.23339 0.0
H886 H 0.39402 0.33938 0.23811 0.0
H887 H 0.39407 0.31866 0.21822 0.0
H888 H 0.32591 0.35892 0.21057 0.0
H889 H 0.32642 0.38084 0.23044 0.0
H890 H 0.25783 0.33391 0.22081 0.0
H891 H 0.15504 0.133 0.25123 0.0
H892 H 0.18082 0.17488 0.2778 0.0
H893 H 0.32471 0.33426 0.25916 0.0
C894 C 0.28785 0.22968 0.2021 0.0
C895 C 0.25412 0.17447 0.19493 0.0
C896 C 0.20322 0.13073 0.20252 0.0
C897 C 0.18834 0.14028 0.21741 0.0
C898 C 0.22419 0.19409 0.22448 0.0
C899 C 0.27212 0.23867 0.21695 0.0
C900 C 0.30655 0.2903 0.22769 0.0
C901 C 0.3703 0.30396 0.22945 0.0
C902 C 0.304 0.34418 0.22204 0.0
C903 C 0.27239 0.26643 0.24262 0.0
C904 C 0.22482 0.21094 0.2405 0.0
C905 C 0.19093 0.17714 0.25296 0.0
C906 C 0.20595 0.20083 0.26795 0.0
C907 C 0.25381 0.25776 0.27026 0.0
C908 C 0.28692 0.29119 0.25746 0.0
H909 H 0.12185 0.30997 0.37045 0.0
H910 H 0.14368 0.16096 0.38063 0.0
H911 H 0.09041 0.14553 0.40522 0.0
H912 H 0.15417 0.36769 0.40707 0.0
H913 H 0.10271 0.39371 0.40738 0.0
H914 H 0.13146 0.38591 0.38918 0.0
H915 H 0.02599 0.31811 0.37899 0.0
H916 H 0.99679 0.32594 0.3972 0.0
H917 H 0.97639 0.25409 0.38999 0.0
H918 H 0.04958 0.15583 0.43049 0.0
H919 H 0.02198 0.19006 0.45406 0.0
H920 H 0.0298 0.33375 0.4277 0.0
C921 C 0.11432 0.2733 0.37767 0.0
C922 C 0.13659 0.23644 0.37348 0.0
C923 C 0.12592 0.18905 0.38334 0.0
C924 C 0.0959 0.18004 0.39741 0.0
C925 C 0.07646 0.21852 0.40145 0.0
C926 C 0.08475 0.2639 0.3918 0.0
C927 C 0.06534 0.30281 0.39955 0.0
C928 C 0.11647 0.36624 0.40088 0.0
C929 C 0.013 0.30004 0.39092 0.0
C930 C 0.04727 0.27372 0.41529 0.0
C931 C 0.05313 0.22465 0.41611 0.0
C932 C 0.04374 0.19353 0.42991 0.0
C933 C 0.02855 0.21351 0.44326 0.0
C934 C 0.02326 0.26426 0.44271 0.0
C935 C 0.03185 0.29392 0.42844 0.0
H936 H 0.70144 0.02115 0.59669 0.0
H937 H 0.8484 0.03862 0.62348 0.0
H938 H 0.9086 0.06536 0.59961 0.0
H939 H 0.73285 0.96596 0.56006 0.0
H940 H 0.71131 0.00796 0.54808 0.0
H941 H 0.67709 0.98127 0.56673 0.0
H942 H 0.70614 0.08688 0.57497 0.0
H943 H 0.74013 0.11374 0.55638 0.0
H944 H 0.78192 0.14378 0.57393 0.0
H945 H 0.95513 0.09969 0.57374 0.0
H946 H 0.98794 0.14759 0.54837 0.0
H947 H 0.81071 0.10816 0.53797 0.0
C948 C 0.7458 0.02908 0.5974 0.0
C949 C 0.77033 0.0274 0.61183 0.0
C950 C 0.82906 0.03985 0.61249 0.0
C951 C 0.86326 0.05446 0.599 0.0
C952 C 0.83802 0.05648 0.58496 0.0
C953 C 0.78069 0.04439 0.58406 0.0
C954 C 0.76622 0.05625 0.56792 0.0
C955 C 0.71907 0.99947 0.56025 0.0
C956 C 0.74754 0.10294 0.56834 0.0
C957 C 0.825 0.07897 0.56003 0.0
C958 C 0.86535 0.07741 0.56997 0.0
C959 C 0.9237 0.1001 0.56574 0.0
C960 C 0.94181 0.12687 0.55119 0.0
C961 C 0.90183 0.13125 0.54103 0.0
C962 C 0.84228 0.10529 0.5454 0.0
H963 H 0.61912 0.644 0.756 0.0
H964 H 0.79403 0.73778 0.7757 0.0
H965 H 0.82981 0.7961 0.75162 0.0
H966 H 0.66485 0.64521 0.71462 0.0
H967 H 0.6057 0.65474 0.70767 0.0
H968 H 0.59678 0.61376 0.7252 0.0
H969 H 0.56898 0.68158 0.74021 0.0
H970 H 0.57794 0.72269 0.72283 0.0
H971 H 0.61866 0.75954 0.74005 0.0
H972 H 0.84224 0.85418 0.72724 0.0
H973 H 0.82933 0.90818 0.70567 0.0
H974 H 0.64717 0.77246 0.7016 0.0
C975 C 0.66543 0.67505 0.75518 0.0
C976 C 0.70363 0.68594 0.76787 0.0
C977 C 0.76363 0.72879 0.76625 0.0
C978 C 0.78451 0.76173 0.75253 0.0
C979 C 0.74506 0.75068 0.74044 0.0
C980 C 0.68684 0.70789 0.74163 0.0
C981 C 0.65162 0.70867 0.72787 0.0
C982 C 0.62839 0.65224 0.71827 0.0
C983 C 0.60141 0.71876 0.73306 0.0
C984 C 0.6984 0.7607 0.71911 0.0
C985 C 0.75235 0.78369 0.72633 0.0
C986 C 0.80061 0.83568 0.72127 0.0
C987 C 0.79293 0.86592 0.70893 0.0
C988 C 0.73724 0.84432 0.7019 0.0
C989 C 0.69027 0.78984 0.70669 0.0
H990 H 0.90689 0.73861 0.93725 0.0
H991 H 0.04224 0.69328 0.93041 0.0
H992 H 0.03174 0.69649 0.90203 0.0
H993 H 0.81467 0.65189 0.90719 0.0
H994 H 0.79196 0.70321 0.90151 0.0
H995 H 0.81462 0.70275 0.92117 0.0
H996 H 0.89207 0.81302 0.91879 0.0
H997 H 0.87003 0.8133 0.89898 0.0
H998 H 0.94554 0.83725 0.9034 0.0
H999 H 0.99772 0.69205 0.87455 0.0
H1000 H 0.94128 0.67954 0.85036 0.0
H1001 H 0.83282 0.73334 0.87489 0.0
C1002 C 0.93452 0.72977 0.92976 0.0
C1003 C 0.97557 0.71601 0.93604 0.0
C1004 C 0.01113 0.70482 0.92587 0.0
C1005 C 0.0055 0.70654 0.90971 0.0
C1006 C 0.96464 0.72028 0.90388 0.0
C1007 C 0.92991 0.73194 0.9136 0.0
C1008 C 0.88697 0.74216 0.90441 0.0
C1009 C 0.82332 0.69732 0.90883 0.0
C1010 C 0.89943 0.8052 0.90652 0.0
C1011 C 0.90148 0.73222 0.88808 0.0
C1012 C 0.94678 0.72015 0.88796 0.0
C1013 C 0.96337 0.70311 0.8744 0.0
C1014 C 0.93156 0.69648 0.86071 0.0
C1015 C 0.88451 0.70759 0.86079 0.0
C1016 C 0.87045 0.72715 0.8745 0.0
H1017 H 0.31553 0.01331 0.08388 0.0
H1018 H 0.2009 0.06424 0.10624 0.0
H1019 H 0.13414 0.02793 0.08352 0.0
H1020 H 0.28965 0.04 0.04271 0.0
H1021 H 0.29022 0.97561 0.03599 0.0
H1022 H 0.33406 0.01569 0.0525 0.0
H1023 H 0.28403 0.92101 0.06907 0.0
H1024 H 0.24022 0.8808 0.05266 0.0
H1025 H 0.20527 0.8808 0.07066 0.0
H1026 H 0.07548 0.9769 0.05973 0.0
H1027 H 0.0248 0.90711 0.03831 0.0
H1028 H 0.1759 0.88532 0.03216 0.0
C1029 C 0.27737 0.01854 0.08369 0.0
C1030 C 0.26358 0.04245 0.09656 0.0
C1031 C 0.21212 0.04647 0.09634 0.0
C1032 C 0.17435 0.02634 0.08347 0.0
C1033 C 0.18861 1.0019 0.07103 0.0
C1034 C 0.23878 0.99761 0.07109 0.0
C1035 C 0.24021 0.96248 0.05737 0.0
C1036 C 0.29159 1.00075 0.0465 0.0
C1037 C 0.24253 0.90806 0.06277 0.0
C1038 C 0.18209 0.94591 0.04985 0.0
C1039 C 0.15367 0.97034 0.05764 0.0
C1040 C 0.09769 0.95826 0.05339 0.0
C1041 C 0.06936 0.91883 0.04117 0.0
C1042 C 0.09669 0.89126 0.03355 0.0
C1043 C 0.1543 0.90623 0.03772 0.0
H1044 H 0.83319 0.73743 0.54603 0.0
H1045 H 0.66704 0.7126 0.5625 0.0
H1046 H 0.69814 0.7128 0.58968 0.0
H1047 H 0.84639 0.64467 0.57275 0.0
H1048 H 0.92448 0.68984 0.5752 0.0
H1049 H 0.89071 0.69215 0.55726 0.0
H1050 H 0.93568 0.80437 0.56013 0.0
H1051 H 0.97012 0.80252 0.57803 0.0
H1052 H 0.92294 0.83364 0.57768 0.0
H1053 H 0.74442 0.7054 0.61493 0.0
H1054 H 0.80624 0.70164 0.63618 0.0
H1055 H 0.94252 0.735 0.60281 0.0
C1056 C 0.80375 0.73283 0.55539 0.0
C1057 C 0.74785 0.7251 0.55224 0.0
C1058 C 0.71039 0.71936 0.56473 0.0
C1059 C 0.72752 0.71899 0.58017 0.0
C1060 C 0.78251 0.72522 0.58285 0.0
C1061 C 0.8204 0.73301 0.57079 0.0
C1062 C 0.87662 0.73772 0.57665 0.0
C1063 C 0.885 0.68814 0.57007 0.0
C1064 C 0.92945 0.79817 0.5729 0.0
C1065 C 0.86418 0.73039 0.59388 0.0
C1066 C 0.80961 0.72288 0.59729 0.0
C1067 C 0.7876 0.71218 0.61242 0.0
C1068 C 0.82268 0.70982 0.62438 0.0
C1069 C 0.87914 0.71885 0.62107 0.0
C1070 C 0.89986 0.72911 0.60564 0.0
H1071 H 0.12713 0.78397 0.79326 0.0
H1072 H 0.1656 0.96334 0.78911 0.0
H1073 H 0.11411 0.93997 0.76388 0.0
H1074 H 0.15393 0.76517 0.75595 0.0
H1075 H 0.09563 0.69051 0.75374 0.0
H1076 H 0.12547 0.718 0.77267 0.0
H1077 H 0.02224 0.6893 0.78304 0.0
H1078 H 0.99172 0.66072 0.76415 0.0
H1079 H 0.97935 0.71525 0.77316 0.0
H1080 H 0.07733 0.90231 0.737 0.0
H1081 H 0.04578 0.84889 0.71189 0.0
H1082 H 0.02598 0.69321 0.73423 0.0
C1083 C 0.12262 0.81758 0.78728 0.0
C1084 C 0.14956 0.87515 0.79313 0.0
C1085 C 0.1441 0.91863 0.78492 0.0
C1086 C 0.11525 0.90584 0.77056 0.0
C1087 C 0.09117 0.84913 0.76476 0.0
C1088 C 0.0932 0.80529 0.77306 0.0
C1089 C 0.0679 0.74916 0.76378 0.0
C1090 C 0.11346 0.72962 0.76139 0.0
C1091 C 0.01197 0.70075 0.77149 0.0
C1092 C 0.05411 0.76909 0.7487 0.0
C1093 C 0.06764 0.82683 0.74947 0.0
C1094 C 0.06482 0.85656 0.73639 0.0
C1095 C 0.04738 0.82628 0.7222 0.0
C1096 C 0.0325 0.76697 0.72134 0.0
C1097 C 0.0354 0.73808 0.73478 0.0
H1098 H 0.34825 0.02723 0.90778 0.0
H1099 H 0.19464 0.98371 0.87993 0.0
H1100 H 0.16216 0.02934 0.89973 0.0
H1101 H 0.2772 0.00585 0.94642 0.0
H1102 H 0.342 0.06666 0.95464 0.0
H1103 H 0.34856 0.02381 0.93929 0.0
H1104 H 0.40883 0.11818 0.92309 0.0
H1105 H 0.40186 0.16122 0.93823 0.0
H1106 H 0.37798 0.16403 0.9188 0.0
H1107 H 0.15335 0.08988 0.92086 0.0
H1108 H 0.16689 0.15847 0.94195 0.0
H1109 H 0.32475 0.15883 0.95651 0.0
C1110 C 0.30672 0.02528 0.90604 0.0
C1111 C 0.2737 1.00145 0.89233 0.0
C1112 C 0.22063 1.00187 0.89033 0.0
C1113 C 0.20175 0.02738 0.90154 0.0
C1114 C 0.23627 0.05182 0.91472 0.0
C1115 C 0.28735 0.05046 0.91708 0.0
C1116 C 0.31899 0.08377 0.93158 0.0
C1117 C 0.32183 0.04255 0.9437 0.0
C1118 C 0.38053 0.13481 0.92768 0.0
C1119 C 0.27863 0.10567 0.93677 0.0
C1120 C 0.2309 0.08632 0.92699 0.0
C1121 C 0.18978 0.10418 0.92881 0.0
C1122 C 0.19777 0.143 0.94091 0.0
C1123 C 0.24654 0.16358 0.95108 0.0
C1124 C 0.28701 0.14396 0.94899 0.0
H1125 H 0.16668 0.24629 0.06102 0.0
H1126 H 0.32921 0.40944 0.05415 0.0
H1127 H 0.32731 0.43548 0.08169 0.0
H1128 H 0.09916 0.30282 0.08313 0.0
H1129 H 0.06124 0.24041 0.09577 0.0
H1130 H 0.0811 0.2309 0.07648 0.0
H1131 H 0.1372 0.18199 0.08784 0.0
H1132 H 0.11778 0.19188 0.10724 0.0
H1133 H 0.19361 0.22043 0.10216 0.0
H1134 H 0.30142 0.4485 0.10889 0.0
H1135 H 0.24991 0.45142 0.13256 0.0
H1136 H 0.10394 0.27985 0.12137 0.0
C1137 C 0.20287 0.28664 0.06542 0.0
C1138 C 0.2484 0.32563 0.05549 0.0
C1139 C 0.29384 0.37904 0.06156 0.0
C1140 C 0.29342 0.39383 0.07721 0.0
C1141 C 0.24738 0.3546 0.08664 0.0
C1142 C 0.20288 0.30209 0.08094 0.0
C1143 C 0.15483 0.27072 0.09284 0.0
C1144 C 0.09564 0.26069 0.08669 0.0
C1145 C 0.15064 0.21283 0.09781 0.0
C1146 C 0.1779 0.31496 0.10592 0.0
C1147 C 0.23203 0.36241 0.10228 0.0
C1148 C 0.25955 0.41117 0.11197 0.0
C1149 C 0.22997 0.41249 0.12537 0.0
C1150 C 0.17316 0.36566 0.12886 0.0
C1151 C 0.14799 0.3155 0.11928 0.0
H1152 H 0.98948 0.35316 0.24043 0.0
H1153 H 0.99487 0.23378 0.20651 0.0
H1154 H 0.96819 0.16011 0.22698 0.0
H1155 H 0.03354 0.29911 0.27557 0.0
H1156 H 0.9823 0.30793 0.28749 0.0
H1157 H 0.01795 0.35685 0.27142 0.0
H1158 H 0.91658 0.33116 0.2602 0.0
H1159 H 0.88084 0.28235 0.27612 0.0
H1160 H 0.86309 0.25561 0.25646 0.0
H1161 H 0.92237 0.09292 0.24967 0.0
H1162 H 0.85702 0.03836 0.27157 0.0
H1163 H 0.8754 0.19954 0.28983 0.0
C1164 C 0.98625 0.31224 0.23712 0.0
C1165 C 0.99322 0.29972 0.22153 0.0
C1166 C 0.98932 0.24519 0.21818 0.0
C1167 C 0.97454 0.20283 0.22983 0.0
C1168 C 0.96436 0.21564 0.24483 0.0
C1169 C 0.97045 0.26933 0.24849 0.0
C1170 C 0.94803 0.26957 0.26466 0.0
C1171 C 0.99848 0.31081 0.27542 0.0
C1172 C 0.89925 0.28556 0.26432 0.0
C1173 C 0.92451 0.20638 0.26914 0.0
C1174 C 0.93637 0.17644 0.25783 0.0
C1175 C 0.91409 0.1162 0.25875 0.0
C1176 C 0.87716 0.08558 0.27123 0.0
C1177 C 0.86198 0.11517 0.28237 0.0
C1178 C 0.88739 0.1764 0.28155 0.0
H1179 H 0.73871 0.97057 0.38898 0.0
H1180 H 0.69162 0.82978 0.356 0.0
H1181 H 0.69775 0.76886 0.3768 0.0
H1182 H 0.8375 0.93899 0.41417 0.0
H1183 H 0.81217 0.95753 0.43155 0.0
H1184 H 0.81613 0.99399 0.41351 0.0
H1185 H 0.70663 0.96321 0.41633 0.0
H1186 H 0.70189 0.92577 0.43417 0.0
H1187 H 0.65274 0.88677 0.41838 0.0
H1188 H 0.68943 0.71737 0.40165 0.0
H1189 H 0.67756 0.68172 0.42869 0.0
H1190 H 0.73176 0.85599 0.44579 0.0
C1191 C 0.73173 0.92763 0.38608 0.0
C1192 C 0.71514 0.905 0.3709 0.0
C1193 C 0.70554 0.84841 0.36748 0.0
C1194 C 0.70857 0.81337 0.37925 0.0
C1195 C 0.72213 0.836 0.39428 0.0
C1196 C 0.73479 0.89231 0.39768 0.0
C1197 C 0.74259 0.9042 0.415 0.0
C1198 C 0.80587 0.95148 0.41878 0.0
C1199 C 0.69832 0.92095 0.42133 0.0
C1200 C 0.72943 0.84486 0.42088 0.0
C1201 C 0.71821 0.80631 0.40871 0.0
C1202 C 0.69951 0.74745 0.41124 0.0
C1203 C 0.69235 0.72752 0.42659 0.0
C1204 C 0.70398 0.76637 0.43916 0.0
C1205 C 0.72346 0.82586 0.43629 0.0
loop_
_geom_bond_atom_site_label_1
_geom_bond_atom_site_label_2
_geom_bond_distance
_geom_bond_site_symmetry_2
_ccdc_geom_bond_type
C0 C1 1.351 . S
C0 N3 1.368 . S
C0 H5 0.931 . S
C1 C0 1.351 . S
C1 N2 1.373 . S
C1 H29 0.930 . S
N2 C1 1.373 . S
N2 C4 1.340 . S
N3 C0 1.368 . S
N3 C4 1.321 . S
N3 Co6 2.135 . S
C4 N2 1.340 . S
C4 N3 1.321 . S
C4 H28 0.930 . S
H5 C0 0.931 . S
Co6 N3 2.135 . S
Co6 N9 2.121 . S
Co6 O14 2.055 . S
Co6 O17 2.039 . S
Co6 N20 2.140 . S
C7 O8 1.227 . S
C7 O17 1.265 . S
O8 C7 1.227 . S
N9 Co6 2.121 . S
N9 C11 1.375 . S
N9 C12 1.313 . S
C10 C11 1.338 . S
C10 N13 1.377 . S
C10 H30 0.930 . S
C11 N9 1.375 . S
C11 C10 1.338 . S
C11 H15 0.931 . S
C12 N9 1.313 . S
C12 N13 1.344 . S
C12 H16 0.930 . S
N13 C10 1.377 . S
N13 C12 1.344 . S
O14 Co6 2.055 . S
O14 C18 1.253 . S
H15 C11 0.931 . S
H16 C12 0.930 . S
O17 Co6 2.039 . S
O17 C7 1.265 . S
C18 O14 1.253 . S
C18 O19 1.227 . S
O19 C18 1.227 . S
N20 Co6 2.140 . S
N20 C23 1.346 . S
N20 C24 1.345 . S
C21 C22 1.387 . S
C21 C25 1.391 . S
C22 C21 1.387 . S
C22 C23 1.369 . S
C22 H31 0.929 . S
C23 N20 1.346 . S
C23 C22 1.369 . S
C23 H26 0.928 . S
C24 N20 1.345 . S
C24 C25 1.371 . S
C24 H27 0.931 . S
C25 C21 1.391 . S
C25 C24 1.371 . S
C25 H32 0.930 . S
H26 C23 0.928 . S
H27 C24 0.931 . S
H28 C4 0.930 . S
H29 C1 0.930 . S
H30 C10 0.930 . S
H31 C22 0.929 . S
H32 C25 0.930 . S
C33 C34 1.351 . S
C33 N36 1.368 . S
C33 H38 0.931 . S
C34 C33 1.351 . S
C34 N35 1.373 . S
C34 H62 0.930 . S
N35 C34 1.373 . S
N35 C37 1.340 . S
N36 C33 1.368 . S
N36 C37 1.321 . S
N36 Co39 2.135 . S
C37 N35 1.340 . S
C37 N36 1.321 . S
C37 H61 0.930 1_455 S
H38 C33 0.931 . S
Co39 N36 2.135 . S
Co39 N42 2.121 . S
Co39 O47 2.055 . S
Co39 O50 2.039 1_455 S
Co39 N53 2.140 1_455 S
C40 O41 1.227 . S
C40 O50 1.265 . S
O41 C40 1.227 . S
N42 Co39 2.121 . S
N42 C44 1.375 1_455 S
N42 C45 1.313 . S
C43 C44 1.338 . S
C43 N46 1.377 1_655 S
C43 H63 0.930 . S
C44 N42 1.375 1_655 S
C44 C43 1.338 . S
C44 H48 0.931 . S
C45 N42 1.313 . S
C45 N46 1.344 . S
C45 H49 0.930 . S
N46 C43 1.377 1_455 S
N46 C45 1.344 . S
O47 Co39 2.055 . S
O47 C51 1.253 . S
H48 C44 0.931 . S
H49 C45 0.930 . S
O50 Co39 2.039 1_655 S
O50 C40 1.265 . S
C51 O47 1.253 . S
C51 O52 1.227 . S
O52 C51 1.227 . S
N53 Co39 2.140 1_655 S
N53 C56 1.346 . S
N53 C57 1.345 . S
C54 C55 1.387 . S
C54 C58 1.391 . S
C55 C54 1.387 . S
C55 C56 1.369 . S
C55 H64 0.929 . S
C56 N53 1.346 . S
C56 C55 1.369 . S
C56 H59 0.928 . S
C57 N53 1.345 . S
C57 C58 1.371 . S
C57 H60 0.931 1_655 S
C58 C54 1.391 . S
C58 C57 1.371 . S
C58 H65 0.930 . S
H59 C56 0.928 . S
H60 C57 0.931 1_455 S
H61 C37 0.930 1_655 S
H62 C34 0.930 . S
H63 C43 0.930 . S
H64 C55 0.929 . S
H65 C58 0.930 . S
C66 C67 1.351 . S
C66 N69 1.368 . S
C66 H71 0.931 . S
C67 C66 1.351 . S
C67 N68 1.373 . S
C67 H95 0.930 . S
N68 C67 1.373 . S
N68 C70 1.340 . S
N69 C66 1.368 . S
N69 C70 1.321 . S
N69 Co72 2.135 . S
C70 N68 1.340 . S
C70 N69 1.321 . S
C70 H94 0.930 1_545 S
H71 C66 0.931 . S
Co72 N69 2.135 . S
Co72 N75 2.121 . S
Co72 O80 2.055 . S
Co72 O83 2.039 1_545 S
Co72 N86 2.140 1_545 S
C73 O74 1.227 . S
C73 O83 1.265 . S
O74 C73 1.227 . S
N75 Co72 2.121 . S
N75 C77 1.375 1_545 S
N75 C78 1.313 . S
C76 C77 1.338 . S
C76 N79 1.377 1_565 S
C76 H96 0.930 . S
C77 N75 1.375 1_565 S
C77 C76 1.338 . S
C77 H81 0.931 . S
C78 N75 1.313 . S
C78 N79 1.344 . S
C78 H82 0.930 . S
N79 C76 1.377 1_545 S
N79 C78 1.344 . S
O80 Co72 2.055 . S
O80 C84 1.253 . S
H81 C77 0.931 . S
H82 C78 0.930 . S
O83 Co72 2.039 1_565 S
O83 C73 1.265 . S
C84 O80 1.253 . S
C84 O85 1.227 . S
O85 C84 1.227 . S
N86 Co72 2.140 1_565 S
N86 C89 1.346 . S
N86 C90 1.345 . S
C87 C88 1.387 . S
C87 C91 1.391 . S
C88 C87 1.387 . S
C88 C89 1.369 . S
C88 H97 0.929 . S
C89 N86 1.346 . S
C89 C88 1.369 . S
C89 H92 0.928 . S
C90 N86 1.345 . S
C90 C91 1.371 . S
C90 H93 0.931 1_565 S
C91 C87 1.391 . S
C91 C90 1.371 . S
C91 H98 0.930 . S
H92 C89 0.928 . S
H93 C90 0.931 1_545 S
H94 C70 0.930 1_565 S
H95 C67 0.930 . S
H96 C76 0.930 . S
H97 C88 0.929 . S
H98 C91 0.930 . S
C99 C100 1.351 . S
C99 N102 1.368 . S
C99 H104 0.931 . S
C100 C99 1.351 . S
C100 N101 1.373 . S
C100 H128 0.930 . S
N101 C100 1.373 . S
N101 C103 1.340 . S
N102 C99 1.368 . S
N102 C103 1.321 . S
N102 Co105 2.135 . S
C103 N101 1.340 . S
C103 N102 1.321 . S
C103 H127 0.930 . S
H104 C99 0.931 . S
Co105 N102 2.135 . S
Co105 N108 2.121 . S
Co105 O113 2.055 . S
Co105 O116 2.039 . S
Co105 N119 2.140 . S
C106 O107 1.227 . S
C106 O116 1.265 . S
O107 C106 1.227 . S
N108 Co105 2.121 . S
N108 C110 1.375 . S
N108 C111 1.313 . S
C109 C110 1.338 . S
C109 N112 1.377 . S
C109 H129 0.930 . S
C110 N108 1.375 . S
C110 C109 1.338 . S
C110 H114 0.931 . S
C111 N108 1.313 . S
C111 N112 1.344 . S
C111 H115 0.930 . S
N112 C109 1.377 . S
N112 C111 1.344 . S
O113 Co105 2.055 . S
O113 C117 1.253 . S
H114 C110 0.931 . S
H115 C111 0.930 . S
O116 Co105 2.039 . S
O116 C106 1.265 . S
C117 O113 1.253 . S
C117 O118 1.227 . S
O118 C117 1.227 . S
N119 Co105 2.140 . S
N119 C122 1.346 . S
N119 C123 1.345 . S
C120 C121 1.387 . S
C120 C124 1.391 . S
C121 C120 1.387 . S
C121 C122 1.369 . S
C121 H130 0.929 . S
C122 N119 1.346 . S
C122 C121 1.369 . S
C122 H125 0.928 . S
C123 N119 1.345 . S
C123 C124 1.371 . S
C123 H126 0.931 . S
C124 C120 1.391 . S
C124 C123 1.371 . S
C124 H131 0.930 . S
H125 C122 0.928 . S
H126 C123 0.931 . S
H127 C103 0.930 . S
H128 C100 0.930 . S
H129 C109 0.930 . S
H130 C121 0.929 . S
H131 C124 0.930 . S
C132 C133 1.351 . S
C132 N135 1.368 . S
C132 H137 0.931 . S
C133 C132 1.351 . S
C133 N134 1.373 . S
C133 H161 0.930 . S
N134 C133 1.373 . S
N134 C136 1.340 . S
N135 C132 1.368 . S
N135 C136 1.321 . S
N135 Co138 2.135 . S
C136 N134 1.340 . S
C136 N135 1.321 . S
C136 H160 0.930 1_655 S
H137 C132 0.931 . S
Co138 N135 2.135 . S
Co138 N141 2.121 1_554 S
Co138 O146 2.055 . S
Co138 O149 2.017 1_654 S
Co138 N152 2.140 1_655 S
C139 O140 1.227 . S
C139 O149 1.257 1_554 S
O140 C139 1.227 . S
N141 Co138 2.121 1_556 S
N141 C143 1.375 1_655 S
N141 C144 1.313 . S
C142 C143 1.338 . S
C142 N145 1.377 1_455 S
C142 H162 0.930 . S
C143 N141 1.375 1_455 S
C143 C142 1.338 . S
C143 H147 0.931 . S
C144 N141 1.313 . S
C144 N145 1.344 . S
C144 H148 0.930 . S
N145 C142 1.377 1_655 S
N145 C144 1.344 . S
O146 Co138 2.055 . S
O146 C150 1.253 . S
H147 C143 0.931 . S
H148 C144 0.930 . S
O149 Co138 2.017 1_456 S
O149 C139 1.257 1_556 S
C150 O146 1.253 . S
C150 O151 1.227 . S
O151 C150 1.227 . S
N152 Co138 2.140 1_455 S
N152 C155 1.346 . S
N152 C156 1.345 . S
C153 C154 1.387 . S
C153 C157 1.391 . S
C154 C153 1.387 . S
C154 C155 1.369 . S
C154 H163 0.929 . S
C155 N152 1.346 . S
C155 C154 1.369 . S
C155 H158 0.928 . S
C156 N152 1.345 . S
C156 C157 1.371 . S
C156 H159 0.931 1_455 S
C157 C153 1.391 . S
C157 C156 1.371 . S
C157 H164 0.930 . S
H158 C155 0.928 . S
H159 C156 0.931 1_655 S
H160 C136 0.930 1_455 S
H161 C133 0.930 . S
H162 C142 0.930 . S
H163 C154 0.929 . S
H164 C157 0.930 . S
C165 C166 1.351 . S
C165 N168 1.368 . S
C165 H170 0.931 . S
C166 C165 1.351 . S
C166 N167 1.373 . S
C166 H194 0.930 . S
N167 C166 1.373 . S
N167 C169 1.340 . S
N168 C165 1.368 . S
N168 C169 1.321 . S
N168 Co171 2.135 . S
C169 N167 1.340 . S
C169 N168 1.321 . S
C169 H193 0.930 1_565 S
H170 C165 0.931 . S
Co171 N168 2.135 . S
Co171 N174 2.121 . S
Co171 O179 2.055 . S
Co171 O182 2.039 1_565 S
Co171 N185 2.140 1_565 S
C172 O173 1.227 . S
C172 O182 1.265 . S
O173 C172 1.227 . S
N174 Co171 2.121 . S
N174 C176 1.375 1_565 S
N174 C177 1.313 . S
C175 C176 1.338 . S
C175 N178 1.377 1_545 S
C175 H195 0.930 . S
C176 N174 1.375 1_545 S
C176 C175 1.338 . S
C176 H180 0.931 . S
C177 N174 1.313 . S
C177 N178 1.344 . S
C177 H181 0.930 . S
N178 C175 1.377 1_565 S
N178 C177 1.344 . S
O179 Co171 2.055 . S
O179 C183 1.253 . S
H180 C176 0.931 . S
H181 C177 0.930 . S
O182 Co171 2.039 1_545 S
O182 C172 1.265 . S
C183 O179 1.253 . S
C183 O184 1.227 . S
O184 C183 1.227 . S
N185 Co171 2.140 1_545 S
N185 C188 1.346 . S
N185 C189 1.345 . S
C186 C187 1.387 . S
C186 C190 1.391 . S
C187 C186 1.387 . S
C187 C188 1.369 . S
C187 H196 0.929 . S
C188 N185 1.346 . S
C188 C187 1.369 . S
C188 H191 0.928 . S
C189 N185 1.345 . S
C189 C190 1.371 . S
C189 H192 0.931 1_545 S
C190 C186 1.391 . S
C190 C189 1.371 . S
C190 H197 0.930 . S
H191 C188 0.928 . S
H192 C189 0.931 1_565 S
H193 C169 0.930 1_545 S
H194 C166 0.930 . S
H195 C175 0.930 . S
H196 C187 0.929 . S
H197 C190 0.930 . S
C198 C199 1.351 . S
C198 N201 1.368 . S
C198 H203 0.931 . S
C199 C198 1.351 . S
C199 N200 1.373 . S
C199 H227 0.930 . S
N200 C199 1.373 . S
N200 C202 1.340 . S
N201 C198 1.368 . S
N201 C202 1.321 . S
N201 Co204 2.135 . S
C202 N200 1.340 . S
C202 N201 1.321 . S
C202 H226 0.930 . S
H203 C198 0.931 . S
Co204 N201 2.135 . S
Co204 N207 2.121 . S
Co204 O212 2.055 . S
Co204 O215 2.039 . S
Co204 N218 2.140 . S
C205 O206 1.227 . S
C205 O215 1.265 . S
O206 C205 1.227 . S
N207 Co204 2.121 . S
N207 C209 1.375 . S
N207 C210 1.313 . S
C208 C209 1.338 . S
C208 N211 1.377 . S
C208 H228 0.930 . S
C209 N207 1.375 . S
C209 C208 1.338 . S
C209 H213 0.931 . S
C210 N207 1.313 . S
C210 N211 1.344 . S
C210 H214 0.930 . S
N211 C208 1.377 . S
N211 C210 1.344 . S
O212 Co204 2.055 . S
O212 C216 1.253 . S
H213 C209 0.931 . S
H214 C210 0.930 . S
O215 Co204 2.039 . S
O215 C205 1.265 . S
C216 O212 1.253 . S
C216 O217 1.227 . S
O217 C216 1.227 . S
N218 Co204 2.140 . S
N218 C221 1.346 . S
N218 C222 1.345 . S
C219 C220 1.387 . S
C219 C223 1.391 . S
C220 C219 1.387 . S
C220 C221 1.369 . S
C220 H229 0.929 . S
C221 N218 1.346 . S
C221 C220 1.369 . S
C221 H224 0.928 . S
C222 N218 1.345 . S
C222 C223 1.371 . S
C222 H225 0.931 . S
C223 C219 1.391 . S
C223 C222 1.371 . S
C223 H230 0.930 . S
H224 C221 0.928 . S
H225 C222 0.931 . S
H226 C202 0.930 . S
H227 C199 0.930 . S
H228 C208 0.930 . S
H229 C220 0.929 . S
H230 C223 0.930 . S
C231 C232 1.351 . S
C231 N234 1.368 . S
C231 H236 0.931 . S
C232 C231 1.351 . S
C232 N233 1.373 . S
C232 H260 0.930 . S
N233 C232 1.373 . S
N233 C235 1.340 . S
N234 C231 1.368 . S
N234 C235 1.321 . S
N234 Co237 2.135 . S
C235 N233 1.340 . S
C235 N234 1.321 . S
C235 H259 0.930 1_455 S
H236 C231 0.931 . S
Co237 N234 2.135 . S
Co237 N240 2.121 . S
Co237 O245 2.055 . S
Co237 O248 2.039 1_455 S
Co237 N251 2.140 1_455 S
C238 O239 1.227 . S
C238 O248 1.265 . S
O239 C238 1.227 . S
N240 Co237 2.121 . S
N240 C242 1.375 1_455 S
N240 C243 1.313 . S
C241 C242 1.338 . S
C241 N244 1.377 1_655 S
C241 H261 0.930 . S
C242 N240 1.375 1_655 S
C242 C241 1.338 . S
C242 H246 0.931 . S
C243 N240 1.313 . S
C243 N244 1.344 . S
C243 H247 0.930 . S
N244 C241 1.377 1_455 S
N244 C243 1.344 . S
O245 Co237 2.055 . S
O245 C249 1.253 . S
H246 C242 0.931 . S
H247 C243 0.930 . S
O248 Co237 2.039 1_655 S
O248 C238 1.265 . S
C249 O245 1.253 . S
C249 O250 1.227 . S
O250 C249 1.227 . S
N251 Co237 2.140 1_655 S
N251 C254 1.346 . S
N251 C255 1.345 . S
C252 C253 1.387 . S
C252 C256 1.391 . S
C253 C252 1.387 . S
C253 C254 1.369 . S
C253 H262 0.929 . S
C254 N251 1.346 . S
C254 C253 1.369 . S
C254 H257 0.928 . S
C255 N251 1.345 . S
C255 C256 1.371 . S
C255 H258 0.931 1_655 S
C256 C252 1.391 . S
C256 C255 1.371 . S
C256 H263 0.930 . S
H257 C254 0.928 . S
H258 C255 0.931 1_455 S
H259 C235 0.930 1_655 S
H260 C232 0.930 . S
H261 C241 0.930 . S
H262 C253 0.929 . S
H263 C256 0.930 . S
C264 C265 1.351 . S
C264 N267 1.368 . S
C264 H269 0.931 . S
C265 C264 1.351 . S
C265 N266 1.373 . S
C265 H293 0.930 . S
N266 C265 1.373 . S
N266 C268 1.340 . S
N267 C264 1.368 . S
N267 C268 1.321 . S
N267 Co270 2.135 . S
C268 N266 1.340 . S
C268 N267 1.321 . S
C268 H292 0.930 1_545 S
H269 C264 0.931 . S
Co270 N267 2.135 . S
Co270 N273 2.121 . S
Co270 O278 2.055 . S
Co270 O281 2.039 1_545 S
Co270 N284 2.140 1_545 S
C271 O272 1.227 . S
C271 O281 1.265 . S
O272 C271 1.227 . S
N273 Co270 2.121 . S
N273 C275 1.375 1_545 S
N273 C276 1.313 . S
C274 C275 1.338 . S
C274 N277 1.377 1_565 S
C274 H294 0.930 . S
C275 N273 1.375 1_565 S
C275 C274 1.338 . S
C275 H279 0.931 . S
C276 N273 1.313 . S
C276 N277 1.344 . S
C276 H280 0.930 . S
N277 C274 1.377 1_545 S
N277 C276 1.344 . S
O278 Co270 2.055 . S
O278 C282 1.253 . S
H279 C275 0.931 . S
H280 C276 0.930 . S
O281 Co270 2.039 1_565 S
O281 C271 1.265 . S
C282 O278 1.253 . S
C282 O283 1.227 . S
O283 C282 1.227 . S
N284 Co270 2.140 1_565 S
N284 C287 1.346 . S
N284 C288 1.345 . S
C285 C286 1.387 . S
C285 C289 1.391 . S
C286 C285 1.387 . S
C286 C287 1.369 . S
C286 H295 0.929 . S
C287 N284 1.346 . S
C287 C286 1.369 . S
C287 H290 0.928 . S
C288 N284 1.345 . S
C288 C289 1.371 . S
C288 H291 0.931 1_565 S
C289 C285 1.391 . S
C289 C288 1.371 . S
C289 H296 0.930 . S
H290 C287 0.928 . S
H291 C288 0.931 1_545 S
H292 C268 0.930 1_565 S
H293 C265 0.930 . S
H294 C274 0.930 . S
H295 C286 0.929 . S
H296 C289 0.930 . S
C297 C298 1.351 . S
C297 N300 1.368 . S
C297 H302 0.931 . S
C298 C297 1.351 . S
C298 N299 1.373 . S
C298 H326 0.930 . S
N299 C298 1.373 . S
N299 C301 1.340 . S
N300 C297 1.368 . S
N300 C301 1.321 . S
N300 Co303 2.135 . S
C301 N299 1.340 . S
C301 N300 1.321 . S
C301 H325 0.930 . S
H302 C297 0.931 . S
Co303 N300 2.135 . S
Co303 N306 2.121 1_556 S
Co303 O311 2.055 . S
Co303 O314 2.069 . S
Co303 N317 2.140 . S
C304 O305 1.227 . S
C304 O314 1.280 . S
O305 C304 1.227 . S
N306 Co303 2.121 1_554 S
N306 C308 1.375 . S
N306 C309 1.313 . S
C307 C308 1.338 . S
C307 N310 1.377 . S
C307 H327 0.930 . S
C308 N306 1.375 . S
C308 C307 1.338 . S
C308 H312 0.931 . S
C309 N306 1.313 . S
C309 N310 1.344 . S
C309 H313 0.930 . S
N310 C307 1.377 . S
N310 C309 1.344 . S
O311 Co303 2.055 . S
O311 C315 1.253 . S
H312 C308 0.931 . S
H313 C309 0.930 . S
O314 Co303 2.069 . S
O314 C304 1.280 . S
C315 O311 1.253 . S
C315 O316 1.227 . S
O316 C315 1.227 . S
N317 Co303 2.140 . S
N317 C320 1.346 . S
N317 C321 1.345 . S
C318 C319 1.387 . S
C318 C322 1.391 . S
C319 C318 1.387 . S
C319 C320 1.369 . S
C319 H328 0.929 . S
C320 N317 1.346 . S
C320 C319 1.369 . S
C320 H323 0.928 . S
C321 N317 1.345 . S
C321 C322 1.371 . S
C321 H324 0.931 . S
C322 C318 1.391 . S
C322 C321 1.371 . S
C322 H329 0.930 . S
H323 C320 0.928 . S
H324 C321 0.931 . S
H325 C301 0.930 . S
H326 C298 0.930 . S
H327 C307 0.930 . S
H328 C319 0.929 . S
H329 C322 0.930 . S
C330 C331 1.351 . S
C330 N333 1.368 . S
C330 H335 0.931 . S
C331 C330 1.351 . S
C331 N332 1.373 . S
C331 H359 0.930 . S
N332 C331 1.373 . S
N332 C334 1.340 . S
N333 C330 1.368 . S
N333 C334 1.321 . S
N333 Co336 2.135 . S
C334 N332 1.340 . S
C334 N333 1.321 . S
C334 H358 0.930 1_655 S
H335 C330 0.931 . S
Co336 N333 2.135 . S
Co336 N339 2.121 . S
Co336 O344 2.055 . S
Co336 O347 2.039 1_655 S
Co336 N350 2.140 1_655 S
C337 O338 1.227 . S
C337 O347 1.265 . S
O338 C337 1.227 . S
N339 Co336 2.121 . S
N339 C341 1.375 1_655 S
N339 C342 1.313 . S
C340 C341 1.338 . S
C340 N343 1.377 1_455 S
C340 H360 0.930 . S
C341 N339 1.375 1_455 S
C341 C340 1.338 . S
C341 H345 0.931 . S
C342 N339 1.313 . S
C342 N343 1.344 . S
C342 H346 0.930 . S
N343 C340 1.377 1_655 S
N343 C342 1.344 . S
O344 Co336 2.055 . S
O344 C348 1.253 . S
H345 C341 0.931 . S
H346 C342 0.930 . S
O347 Co336 2.039 1_455 S
O347 C337 1.265 . S
C348 O344 1.253 . S
C348 O349 1.227 . S
O349 C348 1.227 . S
N350 Co336 2.140 1_455 S
N350 C353 1.346 . S
N350 C354 1.345 . S
C351 C352 1.387 . S
C351 C355 1.391 . S
C352 C351 1.387 . S
C352 C353 1.369 . S
C352 H361 0.929 . S
C353 N350 1.346 . S
C353 C352 1.369 . S
C353 H356 0.928 . S
C354 N350 1.345 . S
C354 C355 1.371 . S
C354 H357 0.931 1_455 S
C355 C351 1.391 . S
C355 C354 1.371 . S
C355 H362 0.930 . S
H356 C353 0.928 . S
H357 C354 0.931 1_655 S
H358 C334 0.930 1_455 S
H359 C331 0.930 . S
H360 C340 0.930 . S
H361 C352 0.929 . S
H362 C355 0.930 . S
C363 C364 1.351 . S
C363 N366 1.368 . S
C363 H368 0.931 . S
C364 C363 1.351 . S
C364 N365 1.373 . S
C364 H392 0.930 . S
N365 C364 1.373 . S
N365 C367 1.340 . S
N366 C363 1.368 . S
N366 C367 1.321 . S
N366 Co369 2.135 . S
C367 N365 1.340 . S
C367 N366 1.321 . S
C367 H391 0.930 1_565 S
H368 C363 0.931 . S
Co369 N366 2.135 . S
Co369 N372 2.121 . S
Co369 O377 2.055 . S
Co369 O380 2.039 1_565 S
Co369 N383 2.140 1_565 S
C370 O371 1.227 . S
C370 O380 1.265 . S
O371 C370 1.227 . S
N372 Co369 2.121 . S
N372 C374 1.375 1_565 S
N372 C375 1.313 . S
C373 C374 1.338 . S
C373 N376 1.377 1_545 S
C373 H393 0.930 . S
C374 N372 1.375 1_545 S
C374 C373 1.338 . S
C374 H378 0.931 . S
C375 N372 1.313 . S
C375 N376 1.344 . S
C375 H379 0.930 . S
N376 C373 1.377 1_565 S
N376 C375 1.344 . S
O377 Co369 2.055 . S
O377 C381 1.253 . S
H378 C374 0.931 . S
H379 C375 0.930 . S
O380 Co369 2.039 1_545 S
O380 C370 1.265 . S
C381 O377 1.253 . S
C381 O382 1.227 . S
O382 C381 1.227 . S
N383 Co369 2.140 1_545 S
N383 C386 1.346 . S
N383 C387 1.345 . S
C384 C385 1.387 . S
C384 C388 1.391 . S
C385 C384 1.387 . S
C385 C386 1.369 . S
C385 H394 0.929 . S
C386 N383 1.346 . S
C386 C385 1.369 . S
C386 H389 0.928 . S
C387 N383 1.345 . S
C387 C388 1.371 . S
C387 H390 0.931 1_545 S
C388 C384 1.391 . S
C388 C387 1.371 . S
C388 H395 0.930 . S
H389 C386 0.928 . S
H390 C387 0.931 1_565 S
H391 C367 0.930 1_545 S
H392 C364 0.930 . S
H393 C373 0.930 . S
H394 C385 0.929 . S
H395 C388 0.930 . S
H396 C408 0.930 . S
H397 C410 0.930 . S
H398 C411 0.930 . S
H399 C415 0.959 . S
H400 C415 0.959 . S
H401 C415 0.961 . S
H402 C416 0.960 . S
H403 C416 0.961 . S
H404 C416 0.959 . S
H405 C419 0.929 . S
H406 C420 0.931 . S
H407 C422 0.930 . S
C408 H396 0.930 . S
C408 C409 1.399 . S
C408 C413 1.399 . S
C409 C408 1.399 . S
C409 C410 1.376 . S
C410 H397 0.930 . S
C410 C409 1.376 . S
C410 C411 1.388 . S
C411 H398 0.930 . S
C411 C410 1.388 . S
C411 C412 1.390 . S
C412 C411 1.390 . S
C412 C413 1.394 . S
C412 C418 1.465 . S
C413 C408 1.399 . S
C413 C412 1.394 . S
C413 C414 1.516 . S
C414 C413 1.516 . S
C414 C415 1.502 . S
C414 C416 1.561 . S
C414 C417 1.526 . S
C415 H399 0.959 . S
C415 H400 0.959 . S
C415 H401 0.961 . S
C415 C414 1.502 . S
C416 H402 0.960 . S
C416 H403 0.961 . S
C416 H404 0.959 . S
C416 C414 1.561 . S
C417 C414 1.526 . S
C417 C418 1.396 . S
C417 C422 1.390 . S
C418 C412 1.465 . S
C418 C417 1.396 . S
C418 C419 1.399 . S
C419 H405 0.929 . S
C419 C418 1.399 . S
C419 C420 1.385 . S
C420 H406 0.931 . S
C420 C419 1.385 . S
C420 C421 1.389 . S
C421 C420 1.389 . S
C421 C422 1.387 . S
C422 H407 0.930 . S
C422 C417 1.390 . S
C422 C421 1.387 . S
H423 C435 0.930 . S
H424 C437 0.930 . S
H425 C438 0.930 . S
H426 C442 0.959 . S
H427 C442 0.959 . S
H428 C442 0.961 . S
H429 C443 0.960 . S
H430 C443 0.961 . S
H431 C443 0.959 . S
H432 C446 0.929 . S
H433 C447 0.931 . S
H434 C449 0.930 . S
C435 H423 0.930 . S
C435 C436 1.399 . S
C435 C440 1.399 . S
C436 C435 1.399 . S
C436 C437 1.376 . S
C437 H424 0.930 . S
C437 C436 1.376 . S
C437 C438 1.388 . S
C438 H425 0.930 . S
C438 C437 1.388 . S
C438 C439 1.390 . S
C439 C438 1.390 . S
C439 C440 1.394 . S
C439 C445 1.465 . S
C440 C435 1.399 . S
C440 C439 1.394 . S
C440 C441 1.516 . S
C441 C440 1.516 . S
C441 C442 1.502 . S
C441 C443 1.561 . S
C441 C444 1.526 . S
C442 H426 0.959 . S
C442 H427 0.959 . S
C442 H428 0.961 . S
C442 C441 1.502 . S
C443 H429 0.960 . S
C443 H430 0.961 . S
C443 H431 0.959 . S
C443 C441 1.561 . S
C444 C441 1.526 . S
C444 C445 1.396 . S
C444 C449 1.390 . S
C445 C439 1.465 . S
C445 C444 1.396 . S
C445 C446 1.399 . S
C446 H432 0.929 . S
C446 C445 1.399 . S
C446 C447 1.385 . S
C447 H433 0.931 . S
C447 C446 1.385 . S
C447 C448 1.389 . S
C448 C447 1.389 . S
C448 C449 1.387 . S
C449 H434 0.930 . S
C449 C444 1.390 . S
C449 C448 1.387 . S
H450 C462 0.930 . S
H451 C464 0.930 . S
H452 C465 0.930 . S
H453 C469 0.959 . S
H454 C469 0.959 . S
H455 C469 0.961 . S
H456 C470 0.960 . S
H457 C470 0.961 . S
H458 C470 0.959 . S
H459 C473 0.929 . S
H460 C474 0.931 . S
H461 C476 0.930 . S
C462 H450 0.930 . S
C462 C463 1.399 . S
C462 C467 1.399 . S
C463 C462 1.399 . S
C463 C464 1.376 . S
C464 H451 0.930 . S
C464 C463 1.376 . S
C464 C465 1.388 . S
C465 H452 0.930 . S
C465 C464 1.388 . S
C465 C466 1.390 . S
C466 C465 1.390 . S
C466 C467 1.394 . S
C466 C472 1.465 . S
C467 C462 1.399 . S
C467 C466 1.394 . S
C467 C468 1.516 . S
C468 C467 1.516 . S
C468 C469 1.502 . S
C468 C470 1.561 . S
C468 C471 1.526 . S
C469 H453 0.959 . S
C469 H454 0.959 . S
C469 H455 0.961 . S
C469 C468 1.502 . S
C470 H456 0.960 . S
C470 H457 0.961 . S
C470 H458 0.959 . S
C470 C468 1.561 . S
C471 C468 1.526 . S
C471 C472 1.396 . S
C471 C476 1.390 . S
C472 C466 1.465 . S
C472 C471 1.396 . S
C472 C473 1.399 . S
C473 H459 0.929 . S
C473 C472 1.399 . S
C473 C474 1.385 . S
C474 H460 0.931 . S
C474 C473 1.385 . S
C474 C475 1.389 . S
C475 C474 1.389 . S
C475 C476 1.387 . S
C476 H461 0.930 . S
C476 C471 1.390 . S
C476 C475 1.387 . S
H477 C489 0.930 . S
H478 C491 0.930 . S
H479 C492 0.930 . S
H480 C496 0.959 . S
H481 C496 0.959 . S
H482 C496 0.961 1_545 S
H483 C497 0.960 . S
H484 C497 0.961 . S
H485 C497 0.959 . S
H486 C500 0.929 . S
H487 C501 0.931 . S
H488 C503 0.930 . S
C489 H477 0.930 . S
C489 C490 1.399 . S
C489 C494 1.399 . S
C490 C489 1.399 . S
C490 C491 1.376 . S
C491 H478 0.930 . S
C491 C490 1.376 . S
C491 C492 1.388 . S
C492 H479 0.930 . S
C492 C491 1.388 . S
C492 C493 1.390 . S
C493 C492 1.390 . S
C493 C494 1.394 . S
C493 C499 1.465 . S
C494 C489 1.399 . S
C494 C493 1.394 . S
C494 C495 1.516 . S
C495 C494 1.516 . S
C495 C496 1.502 . S
C495 C497 1.561 . S
C495 C498 1.526 . S
C496 H480 0.959 . S
C496 H481 0.959 . S
C496 H482 0.961 1_565 S
C496 C495 1.502 . S
C497 H483 0.960 . S
C497 H484 0.961 . S
C497 H485 0.959 . S
C497 C495 1.561 . S
C498 C495 1.526 . S
C498 C499 1.396 . S
C498 C503 1.390 . S
C499 C493 1.465 . S
C499 C498 1.396 . S
C499 C500 1.399 . S
C500 H486 0.929 . S
C500 C499 1.399 . S
C500 C501 1.385 . S
C501 H487 0.931 . S
C501 C500 1.385 . S
C501 C502 1.389 . S
C502 C501 1.389 . S
C502 C503 1.387 . S
C503 H488 0.930 . S
C503 C498 1.390 . S
C503 C502 1.387 . S
H504 C516 0.930 . S
H505 C518 0.930 . S
H506 C519 0.930 . S
H507 C523 0.959 . S
H508 C523 0.959 . S
H509 C523 0.961 . S
H510 C524 0.960 . S
H511 C524 0.961 . S
H512 C524 0.959 . S
H513 C527 0.929 . S
H514 C528 0.931 . S
H515 C530 0.930 . S
C516 H504 0.930 . S
C516 C517 1.399 1_556 S
C516 C521 1.399 . S
C517 C516 1.399 1_554 S
C517 C518 1.376 . S
C518 H505 0.930 . S
C518 C517 1.376 . S
C518 C519 1.388 . S
C519 H506 0.930 . S
C519 C518 1.388 . S
C519 C520 1.390 . S
C520 C519 1.390 . S
C520 C521 1.394 1_554 S
C520 C526 1.465 . S
C521 C516 1.399 . S
C521 C520 1.394 1_556 S
C521 C522 1.516 . S
C522 C521 1.516 . S
C522 C523 1.502 . S
C522 C524 1.561 . S
C522 C525 1.526 . S
C523 H507 0.959 . S
C523 H508 0.959 . S
C523 H509 0.961 . S
C523 C522 1.502 . S
C524 H510 0.960 . S
C524 H511 0.961 . S
C524 H512 0.959 . S
C524 C522 1.561 . S
C525 C522 1.526 . S
C525 C526 1.396 1_556 S
C525 C530 1.390 . S
C526 C520 1.465 . S
C526 C525 1.396 1_554 S
C526 C527 1.399 . S
C527 H513 0.929 . S
C527 C526 1.399 . S
C527 C528 1.385 . S
C528 H514 0.931 . S
C528 C527 1.385 . S
C528 C529 1.389 . S
C529 C528 1.389 . S
C529 C530 1.387 1_554 S
C530 H515 0.930 . S
C530 C525 1.390 . S
C530 C529 1.387 1_556 S
H531 C543 0.930 . S
H532 C545 0.930 . S
H533 C546 0.930 . S
H534 C550 0.959 . S
H535 C550 0.959 . S
H536 C550 0.961 . S
H537 C551 0.960 . S
H538 C551 0.961 . S
H539 C551 0.959 . S
H540 C554 0.929 . S
H541 C555 0.931 . S
H542 C557 0.930 . S
C543 H531 0.930 . S
C543 C544 1.399 . S
C543 C548 1.399 . S
C544 C543 1.399 . S
C544 C545 1.376 . S
C545 H532 0.930 . S
C545 C544 1.376 . S
C545 C546 1.388 . S
C546 H533 0.930 . S
C546 C545 1.388 . S
C546 C547 1.390 . S
C547 C546 1.390 . S
C547 C548 1.394 . S
C547 C553 1.465 . S
C548 C543 1.399 . S
C548 C547 1.394 . S
C548 C549 1.516 . S
C549 C548 1.516 . S
C549 C550 1.502 . S
C549 C551 1.561 . S
C549 C552 1.526 . S
C550 H534 0.959 . S
C550 H535 0.959 . S
C550 H536 0.961 . S
C550 C549 1.502 . S
C551 H537 0.960 . S
C551 H538 0.961 . S
C551 H539 0.959 . S
C551 C549 1.561 . S
C552 C549 1.526 . S
C552 C553 1.396 . S
C552 C557 1.390 . S
C553 C547 1.465 . S
C553 C552 1.396 . S
C553 C554 1.399 . S
C554 H540 0.929 . S
C554 C553 1.399 . S
C554 C555 1.385 . S
C555 H541 0.931 . S
C555 C554 1.385 . S
C555 C556 1.389 . S
C556 C555 1.389 . S
C556 C557 1.387 . S
C557 H542 0.930 . S
C557 C552 1.390 . S
C557 C556 1.387 . S
H558 C570 0.930 . S
H559 C572 0.930 . S
H560 C573 0.930 . S
H561 C577 0.959 . S
H562 C577 0.959 . S
H563 C577 0.961 . S
H564 C578 0.960 . S
H565 C578 0.961 . S
H566 C578 0.959 . S
H567 C581 0.929 . S
H568 C582 0.931 . S
H569 C584 0.930 . S
C570 H558 0.930 . S
C570 C571 1.399 . S
C570 C575 1.399 . S
C571 C570 1.399 . S
C571 C572 1.376 . S
C572 H559 0.930 . S
C572 C571 1.376 . S
C572 C573 1.388 . S
C573 H560 0.930 . S
C573 C572 1.388 . S
C573 C574 1.390 . S
C574 C573 1.390 . S
C574 C575 1.394 . S
C574 C580 1.465 . S
C575 C570 1.399 . S
C575 C574 1.394 . S
C575 C576 1.516 . S
C576 C575 1.516 . S
C576 C577 1.502 . S
C576 C578 1.561 . S
C576 C579 1.526 . S
C577 H561 0.959 . S
C577 H562 0.959 . S
C577 H563 0.961 . S
C577 C576 1.502 . S
C578 H564 0.960 . S
C578 H565 0.961 . S
C578 H566 0.959 . S
C578 C576 1.561 . S
C579 C576 1.526 . S
C579 C580 1.396 . S
C579 C584 1.390 . S
C580 C574 1.465 . S
C580 C579 1.396 . S
C580 C581 1.399 . S
C581 H567 0.929 . S
C581 C580 1.399 . S
C581 C582 1.385 . S
C582 H568 0.931 . S
C582 C581 1.385 . S
C582 C583 1.389 . S
C583 C582 1.389 . S
C583 C584 1.387 . S
C584 H569 0.930 . S
C584 C579 1.390 . S
C584 C583 1.387 . S
H585 C597 0.930 . S
H586 C599 0.930 . S
H587 C600 0.930 . S
H588 C604 0.959 . S
H589 C604 0.959 . S
H590 C604 0.961 . S
H591 C605 0.960 . S
H592 C605 0.961 . S
H593 C605 0.959 . S
H594 C608 0.929 . S
H595 C609 0.931 . S
H596 C611 0.930 . S
C597 H585 0.930 . S
C597 C598 1.399 . S
C597 C602 1.399 . S
C598 C597 1.399 . S
C598 C599 1.376 . S
C599 H586 0.930 . S
C599 C598 1.376 . S
C599 C600 1.388 . S
C600 H587 0.930 . S
C600 C599 1.388 . S
C600 C601 1.390 . S
C601 C600 1.390 . S
C601 C602 1.394 . S
C601 C607 1.465 . S
C602 C597 1.399 . S
C602 C601 1.394 . S
C602 C603 1.516 . S
C603 C602 1.516 . S
C603 C604 1.502 . S
C603 C605 1.561 . S
C603 C606 1.526 . S
C604 H588 0.959 . S
C604 H589 0.959 . S
C604 H590 0.961 . S
C604 C603 1.502 . S
C605 H591 0.960 . S
C605 H592 0.961 . S
C605 H593 0.959 . S
C605 C603 1.561 . S
C606 C603 1.526 . S
C606 C607 1.396 . S
C606 C611 1.390 . S
C607 C601 1.465 . S
C607 C606 1.396 . S
C607 C608 1.399 . S
C608 H594 0.929 . S
C608 C607 1.399 . S
C608 C609 1.385 . S
C609 H595 0.931 . S
C609 C608 1.385 . S
C609 C610 1.389 . S
C610 C609 1.389 . S
C610 C611 1.387 . S
C611 H596 0.930 . S
C611 C606 1.390 . S
C611 C610 1.387 . S
H612 C624 0.930 . S
H613 C626 0.930 . S
H614 C627 0.930 . S
H615 C631 0.959 . S
H616 C631 0.959 . S
H617 C631 0.961 . S
H618 C632 0.960 . S
H619 C632 0.961 . S
H620 C632 0.959 . S
H621 C635 0.929 . S
H622 C636 0.931 . S
H623 C638 0.930 . S
C624 H612 0.930 . S
C624 C625 1.399 . S
C624 C629 1.399 . S
C625 C624 1.399 . S
C625 C626 1.376 . S
C626 H613 0.930 . S
C626 C625 1.376 . S
C626 C627 1.388 . S
C627 H614 0.930 . S
C627 C626 1.388 . S
C627 C628 1.390 . S
C628 C627 1.390 . S
C628 C629 1.394 . S
C628 C634 1.465 . S
C629 C624 1.399 . S
C629 C628 1.394 . S
C629 C630 1.516 . S
C630 C629 1.516 . S
C630 C631 1.502 . S
C630 C632 1.561 . S
C630 C633 1.526 . S
C631 H615 0.959 . S
C631 H616 0.959 . S
C631 H617 0.961 . S
C631 C630 1.502 . S
C632 H618 0.960 . S
C632 H619 0.961 . S
C632 H620 0.959 . S
C632 C630 1.561 . S
C633 C630 1.526 . S
C633 C634 1.396 . S
C633 C638 1.390 . S
C634 C628 1.465 . S
C634 C633 1.396 . S
C634 C635 1.399 . S
C635 H621 0.929 . S
C635 C634 1.399 . S
C635 C636 1.385 . S
C636 H622 0.931 . S
C636 C635 1.385 . S
C636 C637 1.389 . S
C637 C636 1.389 . S
C637 C638 1.387 . S
C638 H623 0.930 . S
C638 C633 1.390 . S
C638 C637 1.387 . S
H639 C651 0.930 . S
H640 C653 0.930 . S
H641 C654 0.930 . S
H642 C658 0.959 . S
H643 C658 0.959 . S
H644 C658 0.961 . S
H645 C659 0.960 . S
H646 C659 0.961 . S
H647 C659 0.959 . S
H648 C662 0.929 . S
H649 C663 0.931 . S
H650 C665 0.930 . S
C651 H639 0.930 . S
C651 C652 1.399 . S
C651 C656 1.399 . S
C652 C651 1.399 . S
C652 C653 1.376 1_556 S
C653 H640 0.930 . S
C653 C652 1.376 1_554 S
C653 C654 1.388 . S
C654 H641 0.930 . S
C654 C653 1.388 . S
C654 C655 1.355 1_554 S
C655 C654 1.355 1_556 S
C655 C656 1.443 . S
C655 C661 1.461 1_556 S
C656 C651 1.399 . S
C656 C655 1.443 . S
C656 C657 1.516 . S
C657 C656 1.516 . S
C657 C658 1.502 . S
C657 C659 1.561 . S
C657 C660 1.526 . S
C658 H642 0.959 . S
C658 H643 0.959 . S
C658 H644 0.961 . S
C658 C657 1.502 . S
C659 H645 0.960 . S
C659 H646 0.961 . S
C659 H647 0.959 . S
C659 C657 1.561 . S
C660 C657 1.526 . S
C660 C661 1.373 1_556 S
C660 C665 1.390 . S
C661 C655 1.461 1_554 S
C661 C660 1.373 1_554 S
C661 C662 1.419 . S
C662 H648 0.929 . S
C662 C661 1.419 . S
C662 C663 1.385 . S
C663 H649 0.931 . S
C663 C662 1.385 . S
C663 C664 1.389 1_554 S
C664 C663 1.389 1_556 S
C664 C665 1.387 . S
C665 H650 0.930 . S
C665 C660 1.390 . S
C665 C664 1.387 . S
H666 C678 0.930 . S
H667 C680 0.930 . S
H668 C681 0.930 . S
H669 C685 0.959 . S
H670 C685 0.959 . S
H671 C685 0.961 . S
H672 C686 0.960 . S
H673 C686 0.961 . S
H674 C686 0.959 . S
H675 C689 0.929 . S
H676 C690 0.931 . S
H677 C692 0.930 . S
C678 H666 0.930 . S
C678 C679 1.399 . S
C678 C683 1.399 . S
C679 C678 1.399 . S
C679 C680 1.376 . S
C680 H667 0.930 . S
C680 C679 1.376 . S
C680 C681 1.388 . S
C681 H668 0.930 . S
C681 C680 1.388 . S
C681 C682 1.390 . S
C682 C681 1.390 . S
C682 C683 1.394 . S
C682 C688 1.465 . S
C683 C678 1.399 . S
C683 C682 1.394 . S
C683 C684 1.516 . S
C684 C683 1.516 . S
C684 C685 1.502 . S
C684 C686 1.561 . S
C684 C687 1.526 . S
C685 H669 0.959 . S
C685 H670 0.959 . S
C685 H671 0.961 . S
C685 C684 1.502 . S
C686 H672 0.960 . S
C686 H673 0.961 . S
C686 H674 0.959 . S
C686 C684 1.561 . S
C687 C684 1.526 . S
C687 C688 1.396 . S
C687 C692 1.390 . S
C688 C682 1.465 . S
C688 C687 1.396 . S
C688 C689 1.399 . S
C689 H675 0.929 . S
C689 C688 1.399 . S
C689 C690 1.385 . S
C690 H676 0.931 . S
C690 C689 1.385 . S
C690 C691 1.389 . S
C691 C690 1.389 . S
C691 C692 1.387 . S
C692 H677 0.930 . S
C692 C687 1.390 . S
C692 C691 1.387 . S
H693 C705 0.930 . S
H694 C707 0.930 . S
H695 C708 0.930 . S
H696 C712 0.959 . S
H697 C712 0.959 . S
H698 C712 0.961 . S
H699 C713 0.960 . S
H700 C713 0.961 . S
H701 C713 0.959 . S
H702 C716 0.929 . S
H703 C717 0.931 . S
H704 C719 0.930 . S
C705 H693 0.930 . S
C705 C706 1.399 . S
C705 C710 1.399 . S
C706 C705 1.399 . S
C706 C707 1.376 . S
C707 H694 0.930 . S
C707 C706 1.376 . S
C707 C708 1.388 . S
C708 H695 0.930 . S
C708 C707 1.388 . S
C708 C709 1.390 . S
C709 C708 1.390 . S
C709 C710 1.394 . S
C709 C715 1.465 . S
C710 C705 1.399 . S
C710 C709 1.394 . S
C710 C711 1.516 . S
C711 C710 1.516 . S
C711 C712 1.502 . S
C711 C713 1.561 . S
C711 C714 1.526 . S
C712 H696 0.959 . S
C712 H697 0.959 . S
C712 H698 0.961 . S
C712 C711 1.502 . S
C713 H699 0.960 . S
C713 H700 0.961 . S
C713 H701 0.959 . S
C713 C711 1.561 . S
C714 C711 1.526 . S
C714 C715 1.396 . S
C714 C719 1.390 . S
C715 C709 1.465 . S
C715 C714 1.396 . S
C715 C716 1.399 . S
C716 H702 0.929 . S
C716 C715 1.399 . S
C716 C717 1.385 . S
C717 H703 0.931 . S
C717 C716 1.385 . S
C717 C718 1.389 . S
C718 C717 1.389 . S
C718 C719 1.387 . S
C719 H704 0.930 . S
C719 C714 1.390 . S
C719 C718 1.387 . S
H720 C732 0.930 . S
H721 C734 0.930 . S
H722 C735 0.930 . S
H723 C739 0.959 . S
H724 C739 0.959 . S
H725 C739 0.961 . S
H726 C740 0.960 . S
H727 C740 0.961 . S
H728 C740 0.959 . S
H729 C743 0.929 . S
H730 C744 0.931 . S
H731 C746 0.930 . S
C732 H720 0.930 . S
C732 C733 1.399 . S
C732 C737 1.399 . S
C733 C732 1.399 . S
C733 C734 1.376 . S
C734 H721 0.930 . S
C734 C733 1.376 . S
C734 C735 1.388 . S
C735 H722 0.930 . S
C735 C734 1.388 . S
C735 C736 1.390 . S
C736 C735 1.390 . S
C736 C737 1.394 . S
C736 C742 1.465 . S
C737 C732 1.399 . S
C737 C736 1.394 . S
C737 C738 1.516 . S
C738 C737 1.516 . S
C738 C739 1.502 . S
C738 C740 1.561 . S
C738 C741 1.526 . S
C739 H723 0.959 . S
C739 H724 0.959 . S
C739 H725 0.961 . S
C739 C738 1.502 . S
C740 H726 0.960 . S
C740 H727 0.961 . S
C740 H728 0.959 . S
C740 C738 1.561 . S
C741 C738 1.526 . S
C741 C742 1.396 . S
C741 C746 1.390 . S
C742 C736 1.465 . S
C742 C741 1.396 . S
C742 C743 1.399 . S
C743 H729 0.929 . S
C743 C742 1.399 . S
C743 C744 1.385 . S
C744 H730 0.931 . S
C744 C743 1.385 . S
C744 C745 1.389 . S
C745 C744 1.389 . S
C745 C746 1.387 . S
C746 H731 0.930 . S
C746 C741 1.390 . S
C746 C745 1.387 . S
H747 C759 0.930 . S
H748 C761 0.930 . S
H749 C762 0.930 . S
H750 C766 0.959 . S
H751 C766 0.959 . S
H752 C766 0.961 . S
H753 C767 0.960 . S
H754 C767 0.961 . S
H755 C767 0.959 . S
H756 C770 0.929 . S
H757 C771 0.931 . S
H758 C773 0.930 . S
C759 H747 0.930 . S
C759 C760 1.399 . S
C759 C764 1.399 . S
C760 C759 1.399 . S
C760 C761 1.376 1_455 S
C761 H748 0.930 . S
C761 C760 1.376 1_655 S
C761 C762 1.388 . S
C762 H749 0.930 . S
C762 C761 1.388 . S
C762 C763 1.390 . S
C763 C762 1.390 . S
C763 C764 1.394 1_655 S
C763 C769 1.465 . S
C764 C759 1.399 . S
C764 C763 1.394 1_455 S
C764 C765 1.516 . S
C765 C764 1.516 . S
C765 C766 1.502 . S
C765 C767 1.561 . S
C765 C768 1.526 . S
C766 H750 0.959 . S
C766 H751 0.959 . S
C766 H752 0.961 . S
C766 C765 1.502 . S
C767 H753 0.960 . S
C767 H754 0.961 . S
C767 H755 0.959 . S
C767 C765 1.561 . S
C768 C765 1.526 . S
C768 C769 1.396 1_455 S
C768 C773 1.390 . S
C769 C763 1.465 . S
C769 C768 1.396 1_655 S
C769 C770 1.399 . S
C770 H756 0.929 . S
C770 C769 1.399 . S
C770 C771 1.385 . S
C771 H757 0.931 . S
C771 C770 1.385 . S
C771 C772 1.389 1_655 S
C772 C771 1.389 1_455 S
C772 C773 1.387 . S
C773 H758 0.930 . S
C773 C768 1.390 . S
C773 C772 1.387 . S
H774 C786 0.930 . S
H775 C788 0.930 . S
H776 C789 0.930 . S
H777 C793 0.959 . S
H778 C793 0.959 . S
H779 C793 0.961 . S
H780 C794 0.960 . S
H781 C794 0.961 . S
H782 C794 0.959 . S
H783 C797 0.929 . S
H784 C798 0.931 . S
H785 C800 0.930 . S
C786 H774 0.930 . S
C786 C787 1.399 1_565 S
C786 C791 1.399 . S
C787 C786 1.399 1_545 S
C787 C788 1.376 . S
C788 H775 0.930 . S
C788 C787 1.376 . S
C788 C789 1.388 . S
C789 H776 0.930 . S
C789 C788 1.388 . S
C789 C790 1.390 . S
C790 C789 1.390 . S
C790 C791 1.394 1_545 S
C790 C796 1.465 . S
C791 C786 1.399 . S
C791 C790 1.394 1_565 S
C791 C792 1.516 . S
C792 C791 1.516 . S
C792 C793 1.502 . S
C792 C794 1.561 . S
C792 C795 1.526 . S
C793 H777 0.959 . S
C793 H778 0.959 . S
C793 H779 0.961 . S
C793 C792 1.502 . S
C794 H780 0.960 . S
C794 H781 0.961 . S
C794 H782 0.959 . S
C794 C792 1.561 . S
C795 C792 1.526 . S
C795 C796 1.396 1_565 S
C795 C800 1.390 . S
C796 C790 1.465 . S
C796 C795 1.396 1_545 S
C796 C797 1.399 . S
C797 H783 0.929 . S
C797 C796 1.399 . S
C797 C798 1.385 . S
C798 H784 0.931 . S
C798 C797 1.385 . S
C798 C799 1.389 . S
C799 C798 1.389 . S
C799 C800 1.387 1_545 S
C800 H785 0.930 . S
C800 C795 1.390 . S
C800 C799 1.387 1_565 S
H801 C813 0.930 . S
H802 C815 0.930 . S
H803 C816 0.930 . S
H804 C820 0.959 . S
H805 C820 0.959 . S
H806 C820 0.961 . S
H807 C821 0.960 . S
H808 C821 0.961 . S
H809 C821 0.959 . S
H810 C824 0.929 . S
H811 C825 0.931 . S
H812 C827 0.930 . S
C813 H801 0.930 . S
C813 C814 1.399 . S
C813 C818 1.399 . S
C814 C813 1.399 . S
C814 C815 1.376 . S
C815 H802 0.930 . S
C815 C814 1.376 . S
C815 C816 1.388 . S
C816 H803 0.930 . S
C816 C815 1.388 . S
C816 C817 1.390 . S
C817 C816 1.390 . S
C817 C818 1.394 . S
C817 C823 1.465 . S
C818 C813 1.399 . S
C818 C817 1.394 . S
C818 C819 1.516 . S
C819 C818 1.516 . S
C819 C820 1.502 . S
C819 C821 1.561 . S
C819 C822 1.526 . S
C820 H804 0.959 . S
C820 H805 0.959 . S
C820 H806 0.961 . S
C820 C819 1.502 . S
C821 H807 0.960 . S
C821 H808 0.961 . S
C821 H809 0.959 . S
C821 C819 1.561 . S
C822 C819 1.526 . S
C822 C823 1.396 . S
C822 C827 1.390 . S
C823 C817 1.465 . S
C823 C822 1.396 . S
C823 C824 1.399 . S
C824 H810 0.929 . S
C824 C823 1.399 . S
C824 C825 1.385 . S
C825 H811 0.931 . S
C825 C824 1.385 . S
C825 C826 1.389 . S
C826 C825 1.389 . S
C826 C827 1.387 . S
C827 H812 0.930 . S
C827 C822 1.390 . S
C827 C826 1.387 . S
H828 C840 0.930 . S
H829 C842 0.930 1_455 S
H830 C843 0.932 1_455 S
H831 C847 0.959 1_455 S
H832 C847 0.959 . S
H833 C847 0.961 . S
H834 C848 0.960 . S
H835 C848 0.961 . S
H836 C848 0.959 . S
H837 C851 0.929 . S
H838 C852 0.933 1_455 S
H839 C854 0.930 . S
C840 H828 0.930 . S
C840 C841 1.399 . S
C840 C845 1.399 . S
C841 C840 1.399 . S
C841 C842 1.376 . S
C842 H829 0.930 1_655 S
C842 C841 1.376 . S
C842 C843 1.384 . S
C843 H830 0.932 1_655 S
C843 C842 1.384 . S
C843 C844 1.393 . S
C844 C843 1.393 . S
C844 C845 1.394 . S
C844 C850 1.465 . S
C845 C840 1.399 . S
C845 C844 1.394 . S
C845 C846 1.516 . S
C846 C845 1.516 . S
C846 C847 1.502 . S
C846 C848 1.561 . S
C846 C849 1.526 . S
C847 H831 0.959 1_655 S
C847 H832 0.959 . S
C847 H833 0.961 . S
C847 C846 1.502 . S
C848 H834 0.960 . S
C848 H835 0.961 . S
C848 H836 0.959 . S
C848 C846 1.561 . S
C849 C846 1.526 . S
C849 C850 1.396 . S
C849 C854 1.390 . S
C850 C844 1.465 . S
C850 C849 1.396 . S
C850 C851 1.399 1_655 S
C851 H837 0.929 . S
C851 C850 1.399 1_455 S
C851 C852 1.383 1_455 S
C852 H838 0.933 1_655 S
C852 C851 1.383 1_655 S
C852 C853 1.390 . S
C853 C852 1.390 . S
C853 C854 1.387 . S
C854 H839 0.930 . S
C854 C849 1.390 . S
C854 C853 1.387 . S
H855 C867 0.930 . S
H856 C869 0.930 . S
H857 C870 0.930 . S
H858 C874 0.959 . S
H859 C874 0.959 . S
H860 C874 0.961 . S
H861 C875 0.960 . S
H862 C875 0.961 . S
H863 C875 0.959 . S
H864 C878 0.929 . S
H865 C879 0.931 . S
H866 C881 0.930 . S
C867 H855 0.930 . S
C867 C868 1.399 . S
C867 C872 1.399 . S
C868 C867 1.399 . S
C868 C869 1.376 1_565 S
C869 H856 0.930 . S
C869 C868 1.376 1_545 S
C869 C870 1.388 . S
C870 H857 0.930 . S
C870 C869 1.388 . S
C870 C871 1.390 . S
C871 C870 1.390 . S
C871 C872 1.394 1_545 S
C871 C877 1.465 . S
C872 C867 1.399 . S
C872 C871 1.394 1_565 S
C872 C873 1.516 . S
C873 C872 1.516 . S
C873 C874 1.502 . S
C873 C875 1.561 . S
C873 C876 1.526 . S
C874 H858 0.959 . S
C874 H859 0.959 . S
C874 H860 0.961 . S
C874 C873 1.502 . S
C875 H861 0.960 . S
C875 H862 0.961 . S
C875 H863 0.959 . S
C875 C873 1.561 . S
C876 C873 1.526 . S
C876 C877 1.396 1_565 S
C876 C881 1.390 . S
C877 C871 1.465 . S
C877 C876 1.396 1_545 S
C877 C878 1.399 . S
C878 H864 0.929 . S
C878 C877 1.399 . S
C878 C879 1.385 . S
C879 H865 0.931 . S
C879 C878 1.385 . S
C879 C880 1.389 1_545 S
C880 C879 1.389 1_565 S
C880 C881 1.387 . S
C881 H866 0.930 . S
C881 C876 1.390 . S
C881 C880 1.387 . S
H882 C894 0.930 . S
H883 C896 0.930 . S
H884 C897 0.930 . S
H885 C901 0.959 . S
H886 C901 0.959 . S
H887 C901 0.961 . S
H888 C902 0.960 . S
H889 C902 0.961 . S
H890 C902 0.959 . S
H891 C905 0.929 . S
H892 C906 0.931 . S
H893 C908 0.930 . S
C894 H882 0.930 . S
C894 C895 1.399 . S
C894 C899 1.399 . S
C895 C894 1.399 . S
C895 C896 1.376 . S
C896 H883 0.930 . S
C896 C895 1.376 . S
C896 C897 1.388 . S
C897 H884 0.930 . S
C897 C896 1.388 . S
C897 C898 1.390 . S
C898 C897 1.390 . S
C898 C899 1.394 . S
C898 C904 1.465 . S
C899 C894 1.399 . S
C899 C898 1.394 . S
C899 C900 1.516 . S
C900 C899 1.516 . S
C900 C901 1.502 . S
C900 C902 1.561 . S
C900 C903 1.526 . S
C901 H885 0.959 . S
C901 H886 0.959 . S
C901 H887 0.961 . S
C901 C900 1.502 . S
C902 H888 0.960 . S
C902 H889 0.961 . S
C902 H890 0.959 . S
C902 C900 1.561 . S
C903 C900 1.526 . S
C903 C904 1.396 . S
C903 C908 1.390 . S
C904 C898 1.465 . S
C904 C903 1.396 . S
C904 C905 1.399 . S
C905 H891 0.929 . S
C905 C904 1.399 . S
C905 C906 1.385 . S
C906 H892 0.931 . S
C906 C905 1.385 . S
C906 C907 1.389 . S
C907 C906 1.389 . S
C907 C908 1.387 . S
C908 H893 0.930 . S
C908 C903 1.390 . S
C908 C907 1.387 . S
H909 C921 0.930 . S
H910 C923 0.930 . S
H911 C924 0.930 . S
H912 C928 0.959 . S
H913 C928 0.959 . S
H914 C928 0.961 . S
H915 C929 0.960 . S
H916 C929 0.961 . S
H917 C929 0.959 . S
H918 C932 0.929 . S
H919 C933 0.931 . S
H920 C935 0.930 1_655 S
C921 H909 0.930 . S
C921 C922 1.399 . S
C921 C926 1.399 . S
C922 C921 1.399 . S
C922 C923 1.376 . S
C923 H910 0.930 . S
C923 C922 1.376 . S
C923 C924 1.388 . S
C924 H911 0.930 . S
C924 C923 1.388 . S
C924 C925 1.390 . S
C925 C924 1.390 . S
C925 C926 1.394 . S
C925 C931 1.465 . S
C926 C921 1.399 . S
C926 C925 1.394 . S
C926 C927 1.516 . S
C927 C926 1.516 . S
C927 C928 1.502 1_455 S
C927 C929 1.561 . S
C927 C930 1.526 . S
C928 H912 0.959 . S
C928 H913 0.959 . S
C928 H914 0.961 . S
C928 C927 1.502 1_655 S
C929 H915 0.960 . S
C929 H916 0.961 . S
C929 H917 0.959 . S
C929 C927 1.561 . S
C930 C927 1.526 . S
C930 C931 1.396 . S
C930 C935 1.390 . S
C931 C925 1.465 . S
C931 C930 1.396 . S
C931 C932 1.399 . S
C932 H918 0.929 . S
C932 C931 1.399 . S
C932 C933 1.385 . S
C933 H919 0.931 . S
C933 C932 1.385 . S
C933 C934 1.389 . S
C934 C933 1.389 . S
C934 C935 1.387 . S
C935 H920 0.930 1_455 S
C935 C930 1.390 . S
C935 C934 1.387 . S
H936 C948 0.930 1_565 S
H937 C950 0.930 . S
H938 C951 0.930 . S
H939 C955 0.959 1_545 S
H940 C955 0.959 . S
H941 C955 0.961 . S
H942 C956 0.960 . S
H943 C956 0.961 . S
H944 C956 0.959 . S
H945 C959 0.929 . S
H946 C960 0.931 . S
H947 C962 0.930 . S
C948 H936 0.930 1_545 S
C948 C949 1.399 . S
C948 C953 1.399 . S
C949 C948 1.399 . S
C949 C950 1.376 . S
C950 H937 0.930 . S
C950 C949 1.376 . S
C950 C951 1.388 . S
C951 H938 0.930 . S
C951 C950 1.388 . S
C951 C952 1.390 . S
C952 C951 1.390 . S
C952 C953 1.394 . S
C952 C958 1.465 . S
C953 C948 1.399 . S
C953 C952 1.394 . S
C953 C954 1.516 . S
C954 C953 1.516 . S
C954 C955 1.502 1_545 S
C954 C956 1.561 1_545 S
C954 C957 1.526 . S
C955 H939 0.959 1_565 S
C955 H940 0.959 . S
C955 H941 0.961 . S
C955 C954 1.502 1_565 S
C956 H942 0.960 . S
C956 H943 0.961 . S
C956 H944 0.959 . S
C956 C954 1.561 1_565 S
C957 C954 1.526 . S
C957 C958 1.396 . S
C957 C962 1.390 . S
C958 C952 1.465 . S
C958 C957 1.396 . S
C958 C959 1.399 . S
C959 H945 0.929 . S
C959 C958 1.399 . S
C959 C960 1.385 . S
C960 H946 0.931 . S
C960 C959 1.385 . S
C960 C961 1.389 . S
C961 C960 1.389 . S
C961 C962 1.387 . S
C962 H947 0.930 . S
C962 C957 1.390 . S
C962 C961 1.387 . S
H963 C975 0.930 . S
H964 C977 0.930 . S
H965 C978 0.930 . S
H966 C982 0.959 . S
H967 C982 0.959 . S
H968 C982 0.961 . S
H969 C983 0.960 . S
H970 C983 0.961 . S
H971 C983 0.959 . S
H972 C986 0.929 . S
H973 C987 0.931 . S
H974 C989 0.930 . S
C975 H963 0.930 . S
C975 C976 1.399 . S
C975 C980 1.399 . S
C976 C975 1.399 . S
C976 C977 1.376 . S
C977 H964 0.930 . S
C977 C976 1.376 . S
C977 C978 1.388 . S
C978 H965 0.930 . S
C978 C977 1.388 . S
C978 C979 1.390 . S
C979 C978 1.390 . S
C979 C980 1.394 . S
C979 C985 1.465 . S
C980 C975 1.399 . S
C980 C979 1.394 . S
C980 C981 1.516 . S
C981 C980 1.516 . S
C981 C982 1.502 . S
C981 C983 1.561 . S
C981 C984 1.526 . S
C982 H966 0.959 . S
C982 H967 0.959 . S
C982 H968 0.961 . S
C982 C981 1.502 . S
C983 H969 0.960 . S
C983 H970 0.961 . S
C983 H971 0.959 . S
C983 C981 1.561 . S
C984 C981 1.526 . S
C984 C985 1.396 . S
C984 C989 1.390 . S
C985 C979 1.465 . S
C985 C984 1.396 . S
C985 C986 1.399 . S
C986 H972 0.929 . S
C986 C985 1.399 . S
C986 C987 1.385 . S
C987 H973 0.931 . S
C987 C986 1.385 . S
C987 C988 1.389 . S
C988 C987 1.389 . S
C988 C989 1.387 . S
C989 H974 0.930 . S
C989 C984 1.390 . S
C989 C988 1.387 . S
H990 C1002 0.930 . S
H991 C1004 0.930 . S
H992 C1005 0.930 . S
H993 C1009 0.959 . S
H994 C1009 0.959 . S
H995 C1009 0.961 . S
H996 C1010 0.960 1_455 S
H997 C1010 0.961 . S
H998 C1010 0.959 1_455 S
H999 C1013 0.929 . S
H1000 C1014 0.931 . S
H1001 C1016 0.930 . S
C1002 H990 0.930 . S
C1002 C1003 1.399 . S
C1002 C1007 1.399 . S
C1003 C1002 1.399 . S
C1003 C1004 1.376 . S
C1004 H991 0.930 . S
C1004 C1003 1.376 . S
C1004 C1005 1.388 . S
C1005 H992 0.930 . S
C1005 C1004 1.388 . S
C1005 C1006 1.390 . S
C1006 C1005 1.390 . S
C1006 C1007 1.394 . S
C1006 C1012 1.465 . S
C1007 C1002 1.399 . S
C1007 C1006 1.394 . S
C1007 C1008 1.516 . S
C1008 C1007 1.516 . S
C1008 C1009 1.502 . S
C1008 C1010 1.561 . S
C1008 C1011 1.526 . S
C1009 H993 0.959 . S
C1009 H994 0.959 . S
C1009 H995 0.961 . S
C1009 C1008 1.502 . S
C1010 H996 0.960 1_655 S
C1010 H997 0.961 . S
C1010 H998 0.959 1_655 S
C1010 C1008 1.561 . S
C1011 C1008 1.526 . S
C1011 C1012 1.396 . S
C1011 C1016 1.390 . S
C1012 C1006 1.465 . S
C1012 C1011 1.396 . S
C1012 C1013 1.399 . S
C1013 H999 0.929 . S
C1013 C1012 1.399 . S
C1013 C1014 1.385 . S
C1014 H1000 0.931 . S
C1014 C1013 1.385 . S
C1014 C1015 1.389 . S
C1015 C1014 1.389 . S
C1015 C1016 1.387 . S
C1016 H1001 0.930 . S
C1016 C1011 1.390 . S
C1016 C1015 1.387 . S
H1017 C1029 0.930 1_545 S
H1018 C1031 0.930 . S
H1019 C1032 0.930 . S
H1020 C1036 0.959 . S
H1021 C1036 0.959 . S
H1022 C1036 0.961 . S
H1023 C1037 0.960 . S
H1024 C1037 0.961 . S
H1025 C1037 0.959 . S
H1026 C1040 0.929 . S
H1027 C1041 0.931 . S
H1028 C1043 0.930 . S
C1029 H1017 0.930 1_565 S
C1029 C1030 1.399 . S
C1029 C1034 1.399 . S
C1030 C1029 1.399 . S
C1030 C1031 1.376 . S
C1031 H1018 0.930 . S
C1031 C1030 1.376 . S
C1031 C1032 1.388 . S
C1032 H1019 0.930 . S
C1032 C1031 1.388 . S
C1032 C1033 1.390 . S
C1033 C1032 1.390 . S
C1033 C1034 1.394 . S
C1033 C1039 1.465 . S
C1034 C1029 1.399 . S
C1034 C1033 1.394 . S
C1034 C1035 1.516 . S
C1035 C1034 1.516 . S
C1035 C1036 1.502 1_565 S
C1035 C1037 1.561 . S
C1035 C1038 1.526 . S
C1036 H1020 0.959 . S
C1036 H1021 0.959 . S
C1036 H1022 0.961 . S
C1036 C1035 1.502 1_545 S
C1037 H1023 0.960 . S
C1037 H1024 0.961 . S
C1037 H1025 0.959 . S
C1037 C1035 1.561 . S
C1038 C1035 1.526 . S
C1038 C1039 1.396 . S
C1038 C1043 1.390 . S
C1039 C1033 1.465 . S
C1039 C1038 1.396 . S
C1039 C1040 1.399 . S
C1040 H1026 0.929 . S
C1040 C1039 1.399 . S
C1040 C1041 1.385 . S
C1041 H1027 0.931 . S
C1041 C1040 1.385 . S
C1041 C1042 1.389 . S
C1042 C1041 1.389 . S
C1042 C1043 1.387 . S
C1043 H1028 0.930 . S
C1043 C1038 1.390 . S
C1043 C1042 1.387 . S
H1044 C1056 0.930 . S
H1045 C1058 0.930 . S
H1046 C1059 0.930 . S
H1047 C1063 0.959 . S
H1048 C1063 0.959 . S
H1049 C1063 0.961 . S
H1050 C1064 0.960 . S
H1051 C1064 0.961 . S
H1052 C1064 0.959 . S
H1053 C1067 0.929 . S
H1054 C1068 0.931 . S
H1055 C1070 0.930 . S
C1056 H1044 0.930 . S
C1056 C1057 1.399 . S
C1056 C1061 1.399 . S
C1057 C1056 1.399 . S
C1057 C1058 1.376 . S
C1058 H1045 0.930 . S
C1058 C1057 1.376 . S
C1058 C1059 1.388 . S
C1059 H1046 0.930 . S
C1059 C1058 1.388 . S
C1059 C1060 1.390 . S
C1060 C1059 1.390 . S
C1060 C1061 1.394 . S
C1060 C1066 1.465 . S
C1061 C1056 1.399 . S
C1061 C1060 1.394 . S
C1061 C1062 1.516 . S
C1062 C1061 1.516 . S
C1062 C1063 1.502 . S
C1062 C1064 1.561 . S
C1062 C1065 1.526 . S
C1063 H1047 0.959 . S
C1063 H1048 0.959 . S
C1063 H1049 0.961 . S
C1063 C1062 1.502 . S
C1064 H1050 0.960 . S
C1064 H1051 0.961 . S
C1064 H1052 0.959 . S
C1064 C1062 1.561 . S
C1065 C1062 1.526 . S
C1065 C1066 1.396 . S
C1065 C1070 1.390 . S
C1066 C1060 1.465 . S
C1066 C1065 1.396 . S
C1066 C1067 1.399 . S
C1067 H1053 0.929 . S
C1067 C1066 1.399 . S
C1067 C1068 1.385 . S
C1068 H1054 0.931 . S
C1068 C1067 1.385 . S
C1068 C1069 1.389 . S
C1069 C1068 1.389 . S
C1069 C1070 1.387 . S
C1070 H1055 0.930 . S
C1070 C1065 1.390 . S
C1070 C1069 1.387 . S
H1071 C1083 0.930 . S
H1072 C1085 0.930 . S
H1073 C1086 0.930 . S
H1074 C1090 0.959 . S
H1075 C1090 0.959 . S
H1076 C1090 0.961 . S
H1077 C1091 0.960 . S
H1078 C1091 0.961 1_655 S
H1079 C1091 0.959 1_655 S
H1080 C1094 0.929 . S
H1081 C1095 0.931 . S
H1082 C1097 0.930 . S
C1083 H1071 0.930 . S
C1083 C1084 1.399 . S
C1083 C1088 1.399 . S
C1084 C1083 1.399 . S
C1084 C1085 1.376 . S
C1085 H1072 0.930 . S
C1085 C1084 1.376 . S
C1085 C1086 1.388 . S
C1086 H1073 0.930 . S
C1086 C1085 1.388 . S
C1086 C1087 1.390 . S
C1087 C1086 1.390 . S
C1087 C1088 1.394 . S
C1087 C1093 1.465 . S
C1088 C1083 1.399 . S
C1088 C1087 1.394 . S
C1088 C1089 1.516 . S
C1089 C1088 1.516 . S
C1089 C1090 1.502 . S
C1089 C1091 1.561 . S
C1089 C1092 1.526 . S
C1090 H1074 0.959 . S
C1090 H1075 0.959 . S
C1090 H1076 0.961 . S
C1090 C1089 1.502 . S
C1091 H1077 0.960 . S
C1091 H1078 0.961 1_455 S
C1091 H1079 0.959 1_455 S
C1091 C1089 1.561 . S
C1092 C1089 1.526 . S
C1092 C1093 1.396 . S
C1092 C1097 1.390 . S
C1093 C1087 1.465 . S
C1093 C1092 1.396 . S
C1093 C1094 1.399 . S
C1094 H1080 0.929 . S
C1094 C1093 1.399 . S
C1094 C1095 1.385 . S
C1095 H1081 0.931 . S
C1095 C1094 1.385 . S
C1095 C1096 1.389 . S
C1096 C1095 1.389 . S
C1096 C1097 1.387 . S
C1097 H1082 0.930 . S
C1097 C1092 1.390 . S
C1097 C1096 1.387 . S
H1098 C1110 0.930 1_565 S
H1099 C1112 0.930 . S
H1100 C1113 0.930 . S
H1101 C1117 0.959 1_545 S
H1102 C1117 0.959 . S
H1103 C1117 0.961 . S
H1104 C1118 0.960 . S
H1105 C1118 0.961 . S
H1106 C1118 0.959 . S
H1107 C1121 0.929 . S
H1108 C1122 0.931 . S
H1109 C1124 0.930 . S
C1110 H1098 0.930 1_545 S
C1110 C1111 1.399 . S
C1110 C1115 1.399 . S
C1111 C1110 1.399 . S
C1111 C1112 1.376 . S
C1112 H1099 0.930 . S
C1112 C1111 1.376 . S
C1112 C1113 1.388 . S
C1113 H1100 0.930 . S
C1113 C1112 1.388 . S
C1113 C1114 1.390 . S
C1114 C1113 1.390 . S
C1114 C1115 1.394 . S
C1114 C1120 1.465 . S
C1115 C1110 1.399 . S
C1115 C1114 1.394 . S
C1115 C1116 1.516 . S
C1116 C1115 1.516 . S
C1116 C1117 1.502 1_545 S
C1116 C1118 1.561 1_545 S
C1116 C1119 1.526 . S
C1117 H1101 0.959 1_565 S
C1117 H1102 0.959 . S
C1117 H1103 0.961 . S
C1117 C1116 1.502 1_565 S
C1118 H1104 0.960 . S
C1118 H1105 0.961 . S
C1118 H1106 0.959 . S
C1118 C1116 1.561 1_565 S
C1119 C1116 1.526 . S
C1119 C1120 1.396 . S
C1119 C1124 1.390 . S
C1120 C1114 1.465 . S
C1120 C1119 1.396 . S
C1120 C1121 1.399 . S
C1121 H1107 0.929 . S
C1121 C1120 1.399 . S
C1121 C1122 1.385 . S
C1122 H1108 0.931 . S
C1122 C1121 1.385 . S
C1122 C1123 1.389 . S
C1123 C1122 1.389 . S
C1123 C1124 1.387 . S
C1124 H1109 0.930 . S
C1124 C1119 1.390 . S
C1124 C1123 1.387 . S
H1125 C1137 0.930 . S
H1126 C1139 0.930 . S
H1127 C1140 0.930 . S
H1128 C1144 0.959 . S
H1129 C1144 0.956 1_655 S
H1130 C1144 0.961 . S
H1131 C1145 0.960 . S
H1132 C1145 0.961 . S
H1133 C1145 0.959 . S
H1134 C1148 0.929 . S
H1135 C1149 0.931 . S
H1136 C1151 0.930 . S
C1137 H1125 0.930 . S
C1137 C1138 1.399 . S
C1137 C1142 1.399 . S
C1138 C1137 1.399 . S
C1138 C1139 1.376 . S
C1139 H1126 0.930 . S
C1139 C1138 1.376 . S
C1139 C1140 1.388 . S
C1140 H1127 0.930 . S
C1140 C1139 1.388 . S
C1140 C1141 1.390 . S
C1141 C1140 1.390 . S
C1141 C1142 1.394 . S
C1141 C1147 1.465 . S
C1142 C1137 1.399 . S
C1142 C1141 1.394 . S
C1142 C1143 1.516 . S
C1143 C1142 1.516 . S
C1143 C1144 1.502 . S
C1143 C1145 1.561 . S
C1143 C1146 1.526 . S
C1144 H1128 0.959 . S
C1144 H1129 0.956 1_455 S
C1144 H1130 0.961 . S
C1144 C1143 1.502 . S
C1145 H1131 0.960 . S
C1145 H1132 0.961 . S
C1145 H1133 0.959 . S
C1145 C1143 1.561 . S
C1146 C1143 1.526 . S
C1146 C1147 1.396 . S
C1146 C1151 1.390 . S
C1147 C1141 1.465 . S
C1147 C1146 1.396 . S
C1147 C1148 1.399 . S
C1148 H1134 0.929 . S
C1148 C1147 1.399 . S
C1148 C1149 1.385 . S
C1149 H1135 0.931 . S
C1149 C1148 1.385 . S
C1149 C1150 1.389 . S
C1150 C1149 1.389 . S
C1150 C1151 1.387 . S
C1151 H1136 0.930 . S
C1151 C1146 1.390 . S
C1151 C1150 1.387 . S
H1152 C1164 0.930 1_455 S
H1153 C1166 0.930 . S
H1154 C1167 0.930 . S
H1155 C1171 0.959 . S
H1156 C1171 0.959 . S
H1157 C1171 0.961 . S
H1158 C1172 0.960 . S
H1159 C1172 0.961 . S
H1160 C1172 0.959 . S
H1161 C1175 0.929 . S
H1162 C1176 0.931 . S
H1163 C1178 0.930 . S
C1164 H1152 0.930 1_655 S
C1164 C1165 1.399 . S
C1164 C1169 1.399 . S
C1165 C1164 1.399 . S
C1165 C1166 1.376 . S
C1166 H1153 0.930 . S
C1166 C1165 1.376 . S
C1166 C1167 1.388 . S
C1167 H1154 0.930 . S
C1167 C1166 1.388 . S
C1167 C1168 1.390 . S
C1168 C1167 1.390 . S
C1168 C1169 1.394 . S
C1168 C1174 1.465 . S
C1169 C1164 1.399 . S
C1169 C1168 1.394 . S
C1169 C1170 1.516 . S
C1170 C1169 1.516 . S
C1170 C1171 1.502 1_655 S
C1170 C1172 1.561 . S
C1170 C1173 1.526 . S
C1171 H1155 0.959 . S
C1171 H1156 0.959 . S
C1171 H1157 0.961 . S
C1171 C1170 1.502 1_455 S
C1172 H1158 0.960 . S
C1172 H1159 0.961 . S
C1172 H1160 0.959 . S
C1172 C1170 1.561 . S
C1173 C1170 1.526 . S
C1173 C1174 1.396 . S
C1173 C1178 1.390 . S
C1174 C1168 1.465 . S
C1174 C1173 1.396 . S
C1174 C1175 1.399 . S
C1175 H1161 0.929 . S
C1175 C1174 1.399 . S
C1175 C1176 1.385 . S
C1176 H1162 0.931 . S
C1176 C1175 1.385 . S
C1176 C1177 1.389 . S
C1177 C1176 1.389 . S
C1177 C1178 1.387 . S
C1178 H1163 0.930 . S
C1178 C1173 1.390 . S
C1178 C1177 1.387 . S
H1179 C1191 0.930 1_545 S
H1180 C1193 0.930 . S
H1181 C1194 0.930 . S
H1182 C1198 0.959 1_565 S
H1183 C1198 0.959 . S
H1184 C1198 0.961 . S
H1185 C1199 0.960 . S
H1186 C1199 0.961 . S
H1187 C1199 0.959 . S
H1188 C1202 0.929 . S
H1189 C1203 0.931 . S
H1190 C1205 0.930 . S
C1191 H1179 0.930 1_565 S
C1191 C1192 1.399 . S
C1191 C1196 1.399 . S
C1192 C1191 1.399 . S
C1192 C1193 1.376 . S
C1193 H1180 0.930 . S
C1193 C1192 1.376 . S
C1193 C1194 1.388 . S
C1194 H1181 0.930 . S
C1194 C1193 1.388 . S
C1194 C1195 1.390 . S
C1195 C1194 1.390 . S
C1195 C1196 1.394 . S
C1195 C1201 1.465 . S
C1196 C1191 1.399 . S
C1196 C1195 1.394 . S
C1196 C1197 1.516 . S
C1197 C1196 1.516 . S
C1197 C1198 1.502 1_565 S
C1197 C1199 1.561 1_565 S
C1197 C1200 1.526 . S
C1198 H1182 0.959 1_545 S
C1198 H1183 0.959 . S
C1198 H1184 0.961 . S
C1198 C1197 1.502 1_545 S
C1199 H1185 0.960 . S
C1199 H1186 0.961 . S
C1199 H1187 0.959 . S
C1199 C1197 1.561 1_545 S
C1200 C1197 1.526 . S
C1200 C1201 1.396 . S
C1200 C1205 1.390 . S
C1201 C1195 1.465 . S
C1201 C1200 1.396 . S
C1201 C1202 1.399 . S
C1202 H1188 0.929 . S
C1202 C1201 1.399 . S
C1202 C1203 1.385 . S
C1203 H1189 0.931 . S
C1203 C1202 1.385 . S
C1203 C1204 1.389 . S
C1204 C1203 1.389 . S
C1204 C1205 1.387 . S
C1205 H1190 0.930 . S
C1205 C1200 1.390 . S
C1205 C1204 1.387 . S
C409 C18 1.828 . S
C421 C370 1.808 . S
C436 C51 1.826 . S
C448 C205 1.808 . S
C463 C238 1.769 . S
C475 C84 1.834 . S
C490 C271 1.792 . S
C502 C117 1.827 . S
C517 C150 1.826 . S
C529 C304 1.808 1_554 S
C544 C183 1.828 . S
C556 C337 1.808 . S
C571 C40 1.757 . S
C583 C216 1.840 . S
C598 C249 1.848 . S
C610 C73 1.744 . S
C625 C106 1.789 . S
C637 C282 1.841 . S
C652 C315 1.853 . S
C664 C139 1.742 1_556 S
C679 C348 1.850 . S
C691 C172 1.741 . S
C706 C7 1.760 . S
C718 C381 1.838 . S
C733 N200 0.499 . S
C745 N2 0.499 . S
C760 N35 0.501 . S
C772 N233 0.496 . S
C787 N68 0.319 . S
C799 N266 0.306 . S
C814 N101 0.290 . S
C826 N299 0.281 . S
C841 N332 0.404 . S
C853 N134 0.416 . S
C868 N365 0.484 . S
C880 N167 0.488 . S
C895 C186 1.114 . S
C907 N13 1.162 . S
C922 C21 1.023 . S
C934 N46 1.100 . S
C949 N79 1.091 . S
C961 C54 1.028 . S
C976 N112 1.133 . S
C988 C87 1.027 . S
C1003 N145 1.056 . S
C1015 C120 1.092 . S
C1030 N178 1.138 . S
C1042 C153 1.030 . S
C1057 N211 1.056 . S
C1069 C252 1.092 . S
C1084 C285 1.118 . S
C1096 N244 1.161 . S
C1111 N277 1.093 . S
C1123 C318 1.027 . S
C1138 N310 1.056 . S
C1150 C351 1.093 . S
C1165 N343 1.149 . S
C1177 C384 1.040 . S
C1192 N376 1.080 . S
C1204 C219 1.036 . S
