# Generated by pormake.
# Topology neb, (4)-cn, num edge types: 1
# Building blocks:
#     Node 0, Type 0, BuildingBlock: QUQFOY_clean_sbu_1, # of connection points: 4
#     Node 1, Type 0, BuildingBlock: QUQFOY_clean_sbu_1, # of connection points: 4
#     Node 2, Type 0, BuildingBlock: QUQFOY_clean_sbu_1, # of connection points: 4
#     Node 3, Type 0, BuildingBlock: QUQFOY_clean_sbu_1, # of connection points: 4
#     Node 4, Type 0, BuildingBlock: QUQFOY_clean_sbu_1, # of connection points: 4
#     Node 5, Type 0, BuildingBlock: QUQFOY_clean_sbu_1, # of connection points: 4
#     Node 6, Type 0, BuildingBlock: QUQFOY_clean_sbu_1, # of connection points: 4
#     Node 7, Type 0, BuildingBlock: QUQFOY_clean_sbu_1, # of connection points: 4
#     Node 8, Type 0, BuildingBlock: QUQFOY_clean_sbu_1, # of connection points: 4
#     Node 9, Type 0, BuildingBlock: QUQFOY_clean_sbu_1, # of connection points: 4
#     Node 10, Type 0, BuildingBlock: QUQFOY_clean_sbu_1, # of connection points: 4
#     Node 11, Type 0, BuildingBlock: QUQFOY_clean_sbu_1, # of connection points: 4
#     Node 12, Type 0, BuildingBlock: QUQFOY_clean_sbu_1, # of connection points: 4
#     Node 13, Type 0, BuildingBlock: QUQFOY_clean_sbu_1, # of connection points: 4
#     Node 14, Type 0, BuildingBlock: QUQFOY_clean_sbu_1, # of connection points: 4
#     Node 15, Type 0, BuildingBlock: QUQFOY_clean_sbu_1, # of connection points: 4
#     Edge 16, Type (0, 0), BuildingBlock: EYOCIG_clean_linker_4, # of connection points: 2
#     Edge 17, Type (0, 0), BuildingBlock: EYOCIG_clean_linker_4, # of connection points: 2
#     Edge 18, Type (0, 0), BuildingBlock: EYOCIG_clean_linker_4, # of connection points: 2
#     Edge 19, Type (0, 0), BuildingBlock: EYOCIG_clean_linker_4, # of connection points: 2
#     Edge 20, Type (0, 0), BuildingBlock: EYOCIG_clean_linker_4, # of connection points: 2
#     Edge 21, Type (0, 0), BuildingBlock: EYOCIG_clean_linker_4, # of connection points: 2
#     Edge 22, Type (0, 0), BuildingBlock: EYOCIG_clean_linker_4, # of connection points: 2
#     Edge 23, Type (0, 0), BuildingBlock: EYOCIG_clean_linker_4, # of connection points: 2
#     Edge 24, Type (0, 0), BuildingBlock: EYOCIG_clean_linker_4, # of connection points: 2
#     Edge 25, Type (0, 0), BuildingBlock: EYOCIG_clean_linker_4, # of connection points: 2
#     Edge 26, Type (0, 0), BuildingBlock: EYOCIG_clean_linker_4, # of connection points: 2
#     Edge 27, Type (0, 0), BuildingBlock: EYOCIG_clean_linker_4, # of connection points: 2
#     Edge 28, Type (0, 0), BuildingBlock: EYOCIG_clean_linker_4, # of connection points: 2
#     Edge 29, Type (0, 0), BuildingBlock: EYOCIG_clean_linker_4, # of connection points: 2
#     Edge 30, Type (0, 0), BuildingBlock: EYOCIG_clean_linker_4, # of connection points: 2
#     Edge 31, Type (0, 0), BuildingBlock: EYOCIG_clean_linker_4, # of connection points: 2
#     Edge 32, Type (0, 0), BuildingBlock: EYOCIG_clean_linker_4, # of connection points: 2
#     Edge 33, Type (0, 0), BuildingBlock: EYOCIG_clean_linker_4, # of connection points: 2
#     Edge 34, Type (0, 0), BuildingBlock: EYOCIG_clean_linker_4, # of connection points: 2
#     Edge 35, Type (0, 0), BuildingBlock: EYOCIG_clean_linker_4, # of connection points: 2
#     Edge 36, Type (0, 0), BuildingBlock: EYOCIG_clean_linker_4, # of connection points: 2
#     Edge 37, Type (0, 0), BuildingBlock: EYOCIG_clean_linker_4, # of connection points: 2
#     Edge 38, Type (0, 0), BuildingBlock: EYOCIG_clean_linker_4, # of connection points: 2
#     Edge 39, Type (0, 0), BuildingBlock: EYOCIG_clean_linker_4, # of connection points: 2
#     Edge 40, Type (0, 0), BuildingBlock: EYOCIG_clean_linker_4, # of connection points: 2
#     Edge 41, Type (0, 0), BuildingBlock: EYOCIG_clean_linker_4, # of connection points: 2
#     Edge 42, Type (0, 0), BuildingBlock: EYOCIG_clean_linker_4, # of connection points: 2
#     Edge 43, Type (0, 0), BuildingBlock: EYOCIG_clean_linker_4, # of connection points: 2
#     Edge 44, Type (0, 0), BuildingBlock: EYOCIG_clean_linker_4, # of connection points: 2
#     Edge 45, Type (0, 0), BuildingBlock: EYOCIG_clean_linker_4, # of connection points: 2
#     Edge 46, Type (0, 0), BuildingBlock: EYOCIG_clean_linker_4, # of connection points: 2
#     Edge 47, Type (0, 0), BuildingBlock: EYOCIG_clean_linker_4, # of connection points: 2
# Relax obj value: 0.021
# Max RMSD: 0.098
# Mean RMSD: 0.098
data_MOF--net-neb--node1-QUQFOY_clean_sbu_1--edge1-EYOCIG_clean_linker_4
_symmetry_space_group_name_H-M    P1
_symmetry_Int_Tables_number       1
_symmetry_cell_setting            triclinic
loop_
_symmetry_equiv_pos_as_xyz
'x, y, z'
_cell_length_a     38.508351
_cell_length_b     18.615754
_cell_length_c     60.293932
_cell_angle_alpha  90.00565
_cell_angle_beta   89.98912
_cell_angle_gamma 89.989704
loop_
_atom_site_label
_atom_site_type_symbol
_atom_site_fract_x
_atom_site_fract_y
_atom_site_fract_z
_atom_type_partial_charge
O0 O 0.15594 -0.01705 0.44075 0.0
Cd1 Cd 0.13271 0.06237 0.45938 0.0
Cd2 Cd 0.20097 0.11282 0.45939 0.0
O3 O 0.21083 0.01761 0.44307 0.0
O4 O 0.08643 0.02217 0.46772 0.0
O5 O 0.12684 0.05066 0.4924 0.0
C6 C 0.09638 0.02531 0.48807 0.0
C7 C 0.23735 0.14977 0.48805 0.0
C8 C 0.18786 -0.02605 0.43629 0.0
C9 C 0.14583 0.20133 0.43634 0.0
O10 O 0.17775 0.1923 0.4408 0.0
O11 O 0.12285 0.15765 0.4431 0.0
O12 O 0.24726 0.15297 0.46769 0.0
O13 O 0.20689 0.12443 0.4924 0.0
O14 O 0.17761 -0.01797 0.86279 0.0
Cd15 Cd 0.20084 0.06144 0.84417 0.0
Cd16 Cd 0.13259 0.11197 0.84419 0.0
O17 O 0.12272 0.01674 0.8605 0.0
O18 O 0.24711 0.0212 0.83586 0.0
O19 O 0.20674 0.04974 0.81116 0.0
C20 C 0.2372 0.02436 0.8155 0.0
C21 C 0.09625 0.14901 0.81551 0.0
C22 C 0.1457 -0.02695 0.86727 0.0
C23 C 0.18777 0.20037 0.86724 0.0
O24 O 0.15584 0.19141 0.86279 0.0
O25 O 0.21073 0.15667 0.86046 0.0
O26 O 0.08632 0.15221 0.83587 0.0
O27 O 0.12671 0.12361 0.81118 0.0
O28 O 0.92774 0.94233 0.61289 0.0
Cd29 Cd 0.95115 0.86294 0.59434 0.0
Cd30 Cd 0.88294 0.81197 0.59433 0.0
O31 O 0.8729 0.90725 0.61058 0.0
O32 O 0.99737 0.90344 0.58603 0.0
O33 O 0.95708 0.87447 0.56133 0.0
C34 C 0.98748 0.90009 0.56567 0.0
C35 C 0.84663 0.77456 0.56568 0.0
C36 C 0.8958 0.95114 0.61733 0.0
C37 C 0.93823 0.72401 0.61746 0.0
O38 O 0.9063 0.73277 0.61297 0.0
O39 O 0.96114 0.76784 0.6107 0.0
O40 O 0.83672 0.77142 0.58604 0.0
O41 O 0.87705 0.8001 0.56132 0.0
O42 O 0.90583 0.94192 0.19085 0.0
Cd43 Cd 0.88266 0.86245 0.20948 0.0
Cd44 Cd 0.95093 0.81217 0.20948 0.0
O45 O 0.96075 0.90742 0.19318 0.0
O46 O 0.83637 0.90256 0.21782 0.0
O47 O 0.8768 0.87416 0.24249 0.0
C48 C 0.84633 0.89946 0.23817 0.0
C49 C 0.98728 0.77518 0.23815 0.0
C50 C 0.93774 0.95101 0.18639 0.0
C51 C 0.89586 0.72359 0.1864 0.0
O52 O 0.92777 0.73269 0.19085 0.0
O53 O 0.87285 0.76718 0.19318 0.0
O54 O 0.99722 0.77206 0.21779 0.0
O55 O 0.95681 0.80047 0.24249 0.0
O56 O 0.1561 0.48207 0.94075 0.0
Cd57 Cd 0.13285 0.56147 0.95937 0.0
Cd58 Cd 0.20114 0.61203 0.95933 0.0
O59 O 0.21099 0.51676 0.94302 0.0
O60 O 0.08657 0.52122 0.96765 0.0
O61 O 0.1269 0.54972 0.99238 0.0
C62 C 0.09646 0.52434 0.98802 0.0
C63 C 0.23755 0.64913 0.98797 0.0
C64 C 0.18801 0.47308 0.93627 0.0
C65 C 0.14592 0.7004 0.93629 0.0
O66 O 0.17784 0.69143 0.94073 0.0
O67 O 0.12296 0.65671 0.94308 0.0
O68 O 0.24742 0.65228 0.9676 0.0
O69 O 0.2071 0.62375 0.99234 0.0
O70 O 0.17786 0.48299 0.36284 0.0
Cd71 Cd 0.20108 0.56233 0.34419 0.0
Cd72 Cd 0.13282 0.61288 0.34422 0.0
O73 O 0.12296 0.51765 0.36053 0.0
O74 O 0.24733 0.522 0.33585 0.0
O75 O 0.20692 0.55048 0.31117 0.0
C76 C 0.23737 0.52505 0.31549 0.0
C77 C 0.0964 0.65002 0.3156 0.0
C78 C 0.14594 0.474 0.36731 0.0
C79 C 0.18802 0.70129 0.36725 0.0
O80 O 0.15609 0.69227 0.36282 0.0
O81 O 0.21099 0.65763 0.36045 0.0
O82 O 0.08653 0.65316 0.33597 0.0
O83 O 0.12684 0.62462 0.31122 0.0
O84 O 0.92787 0.4419 0.11285 0.0
Cd85 Cd 0.95104 0.36241 0.09423 0.0
Cd86 Cd 0.88279 0.31218 0.0942 0.0
O87 O 0.87295 0.40744 0.1105 0.0
O88 O 0.99734 0.40247 0.08589 0.0
O89 O 0.95692 0.37407 0.06121 0.0
C90 C 0.98739 0.39935 0.06554 0.0
C91 C 0.84649 0.27523 0.06549 0.0
C92 C 0.89595 0.45101 0.1173 0.0
C93 C 0.93783 0.22356 0.1173 0.0
O94 O 0.90593 0.23268 0.11283 0.0
O95 O 0.96085 0.26714 0.11052 0.0
O96 O 0.83651 0.27212 0.08585 0.0
O97 O 0.87697 0.30051 0.06118 0.0
O98 O 0.90615 0.44241 0.69082 0.0
Cd99 Cd 0.88271 0.36301 0.70934 0.0
Cd100 Cd 0.95097 0.31198 0.70936 0.0
O101 O 0.96098 0.40726 0.69311 0.0
O102 O 0.83645 0.40346 0.7176 0.0
O103 O 0.87668 0.37449 0.74235 0.0
C104 C 0.84627 0.40007 0.73798 0.0
C105 C 0.98731 0.27453 0.738 0.0
C106 C 0.93809 0.45118 0.68637 0.0
C107 C 0.89568 0.22405 0.68622 0.0
O108 O 0.9276 0.23278 0.69073 0.0
O109 O 0.87276 0.26791 0.69297 0.0
O110 O 0.9972 0.27141 0.71763 0.0
O111 O 0.9569 0.30008 0.74237 0.0
O112 O 0.65619 -0.01757 0.94083 0.0
Cd113 Cd 0.63286 0.06174 0.95945 0.0
Cd114 Cd 0.7011 0.11259 0.95939 0.0
O115 O 0.71105 0.01735 0.9431 0.0
O116 O 0.58664 0.02127 0.96777 0.0
O117 O 0.62698 0.04998 0.99246 0.0
C118 C 0.59656 0.02444 0.98813 0.0
C119 C 0.7375 0.1499 0.988 0.0
C120 C 0.68811 -0.02644 0.93635 0.0
C121 C 0.64578 0.20073 0.93636 0.0
O122 O 0.67771 0.19187 0.9408 0.0
O123 O 0.62286 0.15696 0.94316 0.0
O124 O 0.74735 0.15306 0.96763 0.0
O125 O 0.70709 0.12439 0.99239 0.0
O126 O 0.67768 -0.01781 0.363 0.0
Cd127 Cd 0.7009 0.06161 0.34438 0.0
Cd128 Cd 0.63261 0.11215 0.34444 0.0
O129 O 0.62278 0.01687 0.36073 0.0
O130 O 0.74719 0.02139 0.33609 0.0
O131 O 0.70683 0.04989 0.31137 0.0
C132 C 0.73729 0.02452 0.31572 0.0
C133 C 0.59619 0.14926 0.31581 0.0
C134 C 0.64577 -0.02681 0.36748 0.0
C135 C 0.68781 0.20052 0.36748 0.0
O136 O 0.65588 0.19154 0.36304 0.0
O137 O 0.71078 0.15685 0.36069 0.0
O138 O 0.58631 0.15238 0.33617 0.0
O139 O 0.62664 0.12389 0.31143 0.0
O140 O 0.42803 0.9406 0.11293 0.0
Cd141 Cd 0.45128 0.8613 0.09426 0.0
Cd142 Cd 0.38299 0.8109 0.09418 0.0
O143 O 0.37313 0.90606 0.11054 0.0
O144 O 0.49757 0.90154 0.08598 0.0
O145 O 0.4572 0.87326 0.06126 0.0
C146 C 0.48766 0.89858 0.06562 0.0
C147 C 0.34663 0.77401 0.06549 0.0
C148 C 0.3961 0.94963 0.11737 0.0
C149 C 0.43809 0.72223 0.11723 0.0
O150 O 0.40618 0.73133 0.11276 0.0
O151 O 0.4611 0.7659 0.11049 0.0
O152 O 0.33671 0.77078 0.08585 0.0
O153 O 0.37709 0.79937 0.06116 0.0
O154 O 0.40597 0.94094 0.69074 0.0
Cd155 Cd 0.38268 0.86171 0.7094 0.0
Cd156 Cd 0.45091 0.81113 0.7095 0.0
O157 O 0.46084 0.90616 0.69311 0.0
O158 O 0.3364 0.90205 0.71767 0.0
O159 O 0.37675 0.87367 0.7424 0.0
C160 C 0.3463 0.89903 0.73803 0.0
C161 C 0.48722 0.77437 0.73823 0.0
C162 C 0.43789 0.94983 0.68629 0.0
C163 C 0.39578 0.72253 0.68648 0.0
O164 O 0.4277 0.73151 0.69096 0.0
O165 O 0.37281 0.76633 0.69319 0.0
O166 O 0.49716 0.77095 0.71787 0.0
O167 O 0.45676 0.79982 0.74253 0.0
O168 O 0.65608 0.48224 0.441 0.0
Cd169 Cd 0.63286 0.56169 0.45962 0.0
Cd170 Cd 0.70116 0.61214 0.45958 0.0
O171 O 0.71098 0.51686 0.44328 0.0
O172 O 0.58657 0.5215 0.4679 0.0
O173 O 0.62692 0.54996 0.49263 0.0
C174 C 0.59647 0.52461 0.48827 0.0
C175 C 0.73758 0.6492 0.48821 0.0
C176 C 0.68799 0.4732 0.43652 0.0
C177 C 0.64597 0.70057 0.43653 0.0
O178 O 0.6779 0.69156 0.44097 0.0
O179 O 0.623 0.65692 0.44332 0.0
O180 O 0.74746 0.65232 0.46784 0.0
O181 O 0.70713 0.62386 0.49258 0.0
O182 O 0.67765 0.48234 0.8629 0.0
Cd183 Cd 0.70092 0.56176 0.8443 0.0
Cd184 Cd 0.6327 0.61258 0.84441 0.0
O185 O 0.62279 0.51737 0.86071 0.0
O186 O 0.74715 0.52142 0.83593 0.0
O187 O 0.70675 0.55022 0.81128 0.0
C188 C 0.7372 0.52474 0.81558 0.0
C189 C 0.59629 0.64973 0.81578 0.0
C190 C 0.64574 0.47352 0.86742 0.0
C191 C 0.688 0.70074 0.86742 0.0
O192 O 0.65607 0.69192 0.86298 0.0
O193 O 0.71091 0.65692 0.86062 0.0
O194 O 0.58643 0.65297 0.83616 0.0
O195 O 0.62671 0.62424 0.81141 0.0
O196 O 0.4278 0.44085 0.61302 0.0
Cd197 Cd 0.45107 0.36162 0.59434 0.0
Cd198 Cd 0.38283 0.31104 0.5943 0.0
O199 O 0.37292 0.40612 0.61068 0.0
O200 O 0.49733 0.40198 0.58606 0.0
O201 O 0.45697 0.37363 0.56134 0.0
C202 C 0.48741 0.39901 0.5657 0.0
C203 C 0.34647 0.27422 0.56561 0.0
C204 C 0.39588 0.44976 0.61749 0.0
C205 C 0.43802 0.22248 0.61728 0.0
O206 O 0.4061 0.23148 0.61283 0.0
O207 O 0.46098 0.26624 0.61055 0.0
O208 O 0.33657 0.27085 0.58597 0.0
O209 O 0.37692 0.29966 0.56128 0.0
O210 O 0.40588 0.44065 0.19071 0.0
Cd211 Cd 0.3826 0.36142 0.20938 0.0
Cd212 Cd 0.45087 0.31097 0.20952 0.0
O213 O 0.46078 0.40609 0.19316 0.0
O214 O 0.33631 0.40175 0.21764 0.0
O215 O 0.37667 0.37349 0.24238 0.0
C216 C 0.34622 0.39884 0.238 0.0
C217 C 0.48717 0.27411 0.23824 0.0
C218 C 0.43781 0.44965 0.18629 0.0
C219 C 0.39581 0.2223 0.18644 0.0
O220 O 0.42771 0.23139 0.19093 0.0
O221 O 0.3728 0.26599 0.19316 0.0
O222 O 0.49714 0.27083 0.21789 0.0
O223 O 0.4567 0.2995 0.24254 0.0
C224 C 0.30392 0.22581 0.53462 0.0
C225 C 0.32405 0.24841 0.54829 0.0
C226 C 0.27992 0.1983 0.51902 0.0
C227 C 0.25978 0.17565 0.50536 0.0
C228 C 1.02996 0.94889 0.53468 0.0
C229 C 1.00987 0.92611 0.54835 0.0
C230 C 0.0539 -0.02344 0.51907 0.0
C231 C 0.074 -0.00069 0.50539 0.0
C232 C 0.30373 0.94794 0.76895 0.0
C233 C 0.32387 0.92512 0.75531 0.0
C234 C 0.27974 -0.02438 0.78454 0.0
C235 C 0.25961 -0.00163 0.79819 0.0
C236 C 0.05376 0.19777 0.78453 0.0
C237 C 0.07387 0.17501 0.79819 0.0
C238 C 1.02981 0.2255 0.76893 0.0
C239 C 1.00971 0.24838 0.75528 0.0
C240 C 0.80413 0.72562 0.53473 0.0
C241 C 0.82424 0.74846 0.54838 0.0
C242 C 0.78016 0.69792 0.51914 0.0
C243 C 0.76002 0.67518 0.5055 0.0
C244 C 0.77984 -0.02422 0.28476 0.0
C245 C 0.75971 -0.00147 0.29842 0.0
C246 C 0.80381 0.94814 0.26916 0.0
C247 C 0.82393 0.92542 0.2555 0.0
C248 C 1.02982 0.72648 0.26911 0.0
C249 C 1.00969 0.74921 0.25546 0.0
C250 C 0.05382 0.69882 0.28469 0.0
C251 C 0.07396 0.67605 0.29832 0.0
C252 C 0.3041 0.72544 0.03451 0.0
C253 C 0.32422 0.74811 0.04817 0.0
C254 C 0.28012 0.69784 1.01891 0.0
C255 C 0.25998 0.67511 1.00526 0.0
C256 C 0.0539 0.47559 1.01896 0.0
C257 C 0.07403 0.49834 1.00531 0.0
C258 C 1.02992 0.44796 0.03456 0.0
C259 C 1.00979 0.42527 0.04822 0.0
C260 C 0.30372 0.44807 0.26892 0.0
C261 C 0.32382 0.42511 0.25528 0.0
C262 C 0.27979 0.47595 0.28452 0.0
C263 C 0.25972 0.49887 0.29818 0.0
C264 C 0.78005 0.19884 1.01891 0.0
C265 C 0.75993 0.17601 1.00527 0.0
C266 C 0.80401 0.22654 0.0345 0.0
C267 C 0.82412 0.24926 0.04817 0.0
C268 C 0.77968 0.47619 0.78455 0.0
C269 C 0.75957 0.49886 0.79823 0.0
C270 C 0.80366 0.44864 0.76893 0.0
C271 C 0.82381 0.42597 0.75527 0.0
C272 C 0.5541 -0.02459 1.01909 0.0
C273 C 0.57419 -0.00171 1.00544 0.0
C274 C 0.53016 0.9476 0.03469 0.0
C275 C 0.51006 0.92474 0.04833 0.0
C276 C 0.52965 0.22558 0.26926 0.0
C277 C 0.50954 0.24824 0.25558 0.0
C278 C 0.55362 0.19798 0.28487 0.0
C279 C 0.57375 0.17525 0.29852 0.0
C280 C 0.52972 0.72597 0.76925 0.0
C281 C 0.5096 0.74857 0.75557 0.0
C282 C 0.5537 0.69841 0.78485 0.0
C283 C 0.57384 0.6757 0.7985 0.0
C284 C 0.52993 0.44804 0.53478 0.0
C285 C 0.50981 0.42517 0.54842 0.0
C286 C 0.55391 0.4758 0.5192 0.0
C287 C 0.57404 0.49858 0.50556 0.0
C288 C 0.2017 0.80877 0.39421 0.0
C289 C 0.19755 0.75875 0.38183 0.0
C290 C 0.20164 0.86653 0.40932 0.0
C291 C 0.1974 0.91652 0.42169 0.0
C292 C 0.13217 0.30883 0.40939 0.0
C293 C 0.13633 0.2588 0.42175 0.0
C294 C 0.13221 0.36659 0.39428 0.0
C295 C 0.13642 0.41658 0.3819 0.0
C296 C 0.20157 0.30782 0.89419 0.0
C297 C 0.19732 0.25782 0.88182 0.0
C298 C 0.20165 0.36559 0.9093 0.0
C299 C 0.19751 0.41563 0.92167 0.0
C300 C 0.13211 0.80784 0.90934 0.0
C301 C 0.13636 0.75784 0.92171 0.0
C302 C 0.13205 0.8656 0.89424 0.0
C303 C 0.1362 0.91562 0.88186 0.0
C304 C 0.88188 0.11661 0.65927 0.0
C305 C 0.8861 0.16664 0.67164 0.0
C306 C 0.88191 0.05875 0.6442 0.0
C307 C 0.88616 0.00865 0.63187 0.0
C308 C 0.95198 0.55877 0.6595 0.0
C309 C 0.94772 0.50868 0.67183 0.0
C310 C 0.95202 0.61661 0.64442 0.0
C311 C 0.94781 0.66662 0.63205 0.0
C312 C 0.88226 0.55843 0.14429 0.0
C313 C 0.88645 0.50845 0.1319 0.0
C314 C 0.88223 0.61615 0.15941 0.0
C315 C 0.88638 0.66614 0.1718 0.0
C316 C 0.95142 0.05841 0.15941 0.0
C317 C 0.94723 0.00843 0.17179 0.0
C318 C 0.95145 0.11612 0.14429 0.0
C319 C 0.94729 0.16612 0.1319 0.0
C320 C 0.70187 0.80822 0.89433 0.0
C321 C 0.69762 0.75818 0.88198 0.0
C322 C 0.70189 0.86604 0.90942 0.0
C323 C 0.69768 0.9161 0.92178 0.0
C324 C 0.63196 0.3082 0.90944 0.0
C325 C 0.63617 0.25816 0.9218 0.0
C326 C 0.63197 0.36601 0.89435 0.0
C327 C 0.6362 0.41606 0.882 0.0
C328 C 0.70158 0.30794 0.39445 0.0
C329 C 0.69735 0.25795 0.38207 0.0
C330 C 0.70163 0.3657 0.40955 0.0
C331 C 0.69748 0.41573 0.42193 0.0
C332 C 0.6322 0.80799 0.40957 0.0
C333 C 0.63643 0.758 0.42194 0.0
C334 C 0.63214 0.86573 0.39446 0.0
C335 C 0.63628 0.91575 0.38208 0.0
C336 C 0.38225 0.1147 0.1595 0.0
C337 C 0.38637 0.16477 0.17186 0.0
C338 C 0.38233 0.05695 0.14438 0.0
C339 C 0.38656 0.00701 0.13199 0.0
C340 C 0.45162 0.55692 0.15928 0.0
C341 C 0.44738 0.507 0.17168 0.0
C342 C 0.45169 0.61466 0.14417 0.0
C343 C 0.44756 0.66472 0.13181 0.0
C344 C 0.38209 0.61488 0.65959 0.0
C345 C 0.38628 0.66498 0.67193 0.0
C346 C 0.38211 0.55709 0.6445 0.0
C347 C 0.38632 0.50713 0.6321 0.0
C348 C 0.45174 0.11486 0.64418 0.0
C349 C 0.44755 0.16495 0.63184 0.0
C350 C 0.4517 0.0571 0.65928 0.0
C351 C 0.44747 0.00716 0.67167 0.0
loop_
_geom_bond_atom_site_label_1
_geom_bond_atom_site_label_2
_geom_bond_distance
_geom_bond_site_symmetry_2
_ccdc_geom_bond_type
O0 Cd1 2.223 . S
O0 C8 1.315 . S
Cd1 O0 2.223 . S
Cd1 O4 2.297 . S
Cd1 O5 2.439 . S
Cd1 O11 2.240 . S
Cd2 O3 2.240 . S
Cd2 O10 2.223 . S
Cd2 O12 2.297 . S
Cd2 O13 2.439 . S
O3 Cd2 2.240 . S
O3 C8 1.279 . S
O4 Cd1 2.297 . S
O4 C6 1.247 . S
O5 Cd1 2.439 . S
O5 C6 1.208 . S
C6 O4 1.247 . S
C6 O5 1.208 . S
C7 O12 1.247 . S
C7 O13 1.208 . S
C8 O0 1.315 . S
C8 O3 1.279 . S
C9 O10 1.315 . S
C9 O11 1.279 . S
O10 Cd2 2.223 . S
O10 C9 1.315 . S
O11 Cd1 2.240 . S
O11 C9 1.279 . S
O12 Cd2 2.297 . S
O12 C7 1.247 . S
O13 Cd2 2.439 . S
O13 C7 1.208 . S
O14 Cd15 2.223 . S
O14 C22 1.315 . S
Cd15 O14 2.223 . S
Cd15 O18 2.297 . S
Cd15 O19 2.439 . S
Cd15 O25 2.240 . S
Cd16 O17 2.240 . S
Cd16 O24 2.223 . S
Cd16 O26 2.297 . S
Cd16 O27 2.439 . S
O17 Cd16 2.240 . S
O17 C22 1.279 . S
O18 Cd15 2.297 . S
O18 C20 1.247 . S
O19 Cd15 2.439 . S
O19 C20 1.208 . S
C20 O18 1.247 . S
C20 O19 1.208 . S
C21 O26 1.247 . S
C21 O27 1.208 . S
C22 O14 1.315 . S
C22 O17 1.279 . S
C23 O24 1.315 . S
C23 O25 1.279 . S
O24 Cd16 2.223 . S
O24 C23 1.315 . S
O25 Cd15 2.240 . S
O25 C23 1.279 . S
O26 Cd16 2.297 . S
O26 C21 1.247 . S
O27 Cd16 2.439 . S
O27 C21 1.208 . S
O28 Cd29 2.223 . S
O28 C36 1.315 . S
Cd29 O28 2.223 . S
Cd29 O32 2.297 . S
Cd29 O33 2.439 . S
Cd29 O39 2.240 . S
Cd30 O31 2.240 . S
Cd30 O38 2.223 . S
Cd30 O40 2.297 . S
Cd30 O41 2.439 . S
O31 Cd30 2.240 . S
O31 C36 1.279 . S
O32 Cd29 2.297 . S
O32 C34 1.247 . S
O33 Cd29 2.439 . S
O33 C34 1.208 . S
C34 O32 1.247 . S
C34 O33 1.208 . S
C35 O40 1.247 . S
C35 O41 1.208 . S
C36 O28 1.315 . S
C36 O31 1.279 . S
C37 O38 1.315 . S
C37 O39 1.279 . S
O38 Cd30 2.223 . S
O38 C37 1.315 . S
O39 Cd29 2.240 . S
O39 C37 1.279 . S
O40 Cd30 2.297 . S
O40 C35 1.247 . S
O41 Cd30 2.439 . S
O41 C35 1.208 . S
O42 Cd43 2.223 . S
O42 C50 1.315 . S
Cd43 O42 2.223 . S
Cd43 O46 2.297 . S
Cd43 O47 2.439 . S
Cd43 O53 2.240 . S
Cd44 O45 2.240 . S
Cd44 O52 2.223 . S
Cd44 O54 2.297 . S
Cd44 O55 2.439 . S
O45 Cd44 2.240 . S
O45 C50 1.279 . S
O46 Cd43 2.297 . S
O46 C48 1.247 . S
O47 Cd43 2.439 . S
O47 C48 1.208 . S
C48 O46 1.247 . S
C48 O47 1.208 . S
C49 O54 1.247 . S
C49 O55 1.208 . S
C50 O42 1.315 . S
C50 O45 1.279 . S
C51 O52 1.315 . S
C51 O53 1.279 . S
O52 Cd44 2.223 . S
O52 C51 1.315 . S
O53 Cd43 2.240 . S
O53 C51 1.279 . S
O54 Cd44 2.297 . S
O54 C49 1.247 . S
O55 Cd44 2.439 . S
O55 C49 1.208 . S
O56 Cd57 2.223 . S
O56 C64 1.315 . S
Cd57 O56 2.223 . S
Cd57 O60 2.297 . S
Cd57 O61 2.439 . S
Cd57 O67 2.240 . S
Cd58 O59 2.240 . S
Cd58 O66 2.223 . S
Cd58 O68 2.297 . S
Cd58 O69 2.439 . S
O59 Cd58 2.240 . S
O59 C64 1.279 . S
O60 Cd57 2.297 . S
O60 C62 1.247 . S
O61 Cd57 2.439 . S
O61 C62 1.208 . S
C62 O60 1.247 . S
C62 O61 1.208 . S
C63 O68 1.247 . S
C63 O69 1.208 . S
C64 O56 1.315 . S
C64 O59 1.279 . S
C65 O66 1.315 . S
C65 O67 1.279 . S
O66 Cd58 2.223 . S
O66 C65 1.315 . S
O67 Cd57 2.240 . S
O67 C65 1.279 . S
O68 Cd58 2.297 . S
O68 C63 1.247 . S
O69 Cd58 2.439 . S
O69 C63 1.208 . S
O70 Cd71 2.223 . S
O70 C78 1.315 . S
Cd71 O70 2.223 . S
Cd71 O74 2.297 . S
Cd71 O75 2.439 . S
Cd71 O81 2.240 . S
Cd72 O73 2.240 . S
Cd72 O80 2.223 . S
Cd72 O82 2.297 . S
Cd72 O83 2.439 . S
O73 Cd72 2.240 . S
O73 C78 1.279 . S
O74 Cd71 2.297 . S
O74 C76 1.247 . S
O75 Cd71 2.439 . S
O75 C76 1.208 . S
C76 O74 1.247 . S
C76 O75 1.208 . S
C77 O82 1.247 . S
C77 O83 1.208 . S
C78 O70 1.315 . S
C78 O73 1.279 . S
C79 O80 1.315 . S
C79 O81 1.279 . S
O80 Cd72 2.223 . S
O80 C79 1.315 . S
O81 Cd71 2.240 . S
O81 C79 1.279 . S
O82 Cd72 2.297 . S
O82 C77 1.247 . S
O83 Cd72 2.439 . S
O83 C77 1.208 . S
O84 Cd85 2.223 . S
O84 C92 1.315 . S
Cd85 O84 2.223 . S
Cd85 O88 2.297 . S
Cd85 O89 2.439 . S
Cd85 O95 2.240 . S
Cd86 O87 2.240 . S
Cd86 O94 2.223 . S
Cd86 O96 2.297 . S
Cd86 O97 2.439 . S
O87 Cd86 2.240 . S
O87 C92 1.279 . S
O88 Cd85 2.297 . S
O88 C90 1.247 . S
O89 Cd85 2.439 . S
O89 C90 1.208 . S
C90 O88 1.247 . S
C90 O89 1.208 . S
C91 O96 1.247 . S
C91 O97 1.208 . S
C92 O84 1.315 . S
C92 O87 1.279 . S
C93 O94 1.315 . S
C93 O95 1.279 . S
O94 Cd86 2.223 . S
O94 C93 1.315 . S
O95 Cd85 2.240 . S
O95 C93 1.279 . S
O96 Cd86 2.297 . S
O96 C91 1.247 . S
O97 Cd86 2.439 . S
O97 C91 1.208 . S
O98 Cd99 2.223 . S
O98 C106 1.315 . S
Cd99 O98 2.223 . S
Cd99 O102 2.297 . S
Cd99 O103 2.439 . S
Cd99 O109 2.240 . S
Cd100 O101 2.240 . S
Cd100 O108 2.223 . S
Cd100 O110 2.297 . S
Cd100 O111 2.439 . S
O101 Cd100 2.240 . S
O101 C106 1.279 . S
O102 Cd99 2.297 . S
O102 C104 1.247 . S
O103 Cd99 2.439 . S
O103 C104 1.208 . S
C104 O102 1.247 . S
C104 O103 1.208 . S
C105 O110 1.247 . S
C105 O111 1.208 . S
C106 O98 1.315 . S
C106 O101 1.279 . S
C107 O108 1.315 . S
C107 O109 1.279 . S
O108 Cd100 2.223 . S
O108 C107 1.315 . S
O109 Cd99 2.240 . S
O109 C107 1.279 . S
O110 Cd100 2.297 . S
O110 C105 1.247 . S
O111 Cd100 2.439 . S
O111 C105 1.208 . S
O112 Cd113 2.223 . S
O112 C120 1.315 . S
Cd113 O112 2.223 . S
Cd113 O116 2.297 . S
Cd113 O117 2.439 . S
Cd113 O123 2.240 . S
Cd114 O115 2.240 . S
Cd114 O122 2.223 . S
Cd114 O124 2.297 . S
Cd114 O125 2.439 . S
O115 Cd114 2.240 . S
O115 C120 1.279 . S
O116 Cd113 2.297 . S
O116 C118 1.247 . S
O117 Cd113 2.439 . S
O117 C118 1.208 . S
C118 O116 1.247 . S
C118 O117 1.208 . S
C119 O124 1.247 . S
C119 O125 1.208 . S
C120 O112 1.315 . S
C120 O115 1.279 . S
C121 O122 1.315 . S
C121 O123 1.279 . S
O122 Cd114 2.223 . S
O122 C121 1.315 . S
O123 Cd113 2.240 . S
O123 C121 1.279 . S
O124 Cd114 2.297 . S
O124 C119 1.247 . S
O125 Cd114 2.439 . S
O125 C119 1.208 . S
O126 Cd127 2.223 . S
O126 C134 1.315 . S
Cd127 O126 2.223 . S
Cd127 O130 2.297 . S
Cd127 O131 2.439 . S
Cd127 O137 2.240 . S
Cd128 O129 2.240 . S
Cd128 O136 2.223 . S
Cd128 O138 2.297 . S
Cd128 O139 2.439 . S
O129 Cd128 2.240 . S
O129 C134 1.279 . S
O130 Cd127 2.297 . S
O130 C132 1.247 . S
O131 Cd127 2.439 . S
O131 C132 1.208 . S
C132 O130 1.247 . S
C132 O131 1.208 . S
C133 O138 1.247 . S
C133 O139 1.208 . S
C134 O126 1.315 . S
C134 O129 1.279 . S
C135 O136 1.315 . S
C135 O137 1.279 . S
O136 Cd128 2.223 . S
O136 C135 1.315 . S
O137 Cd127 2.240 . S
O137 C135 1.279 . S
O138 Cd128 2.297 . S
O138 C133 1.247 . S
O139 Cd128 2.439 . S
O139 C133 1.208 . S
O140 Cd141 2.223 . S
O140 C148 1.315 . S
Cd141 O140 2.223 . S
Cd141 O144 2.297 . S
Cd141 O145 2.439 . S
Cd141 O151 2.240 . S
Cd142 O143 2.240 . S
Cd142 O150 2.223 . S
Cd142 O152 2.297 . S
Cd142 O153 2.439 . S
O143 Cd142 2.240 . S
O143 C148 1.279 . S
O144 Cd141 2.297 . S
O144 C146 1.247 . S
O145 Cd141 2.439 . S
O145 C146 1.208 . S
C146 O144 1.247 . S
C146 O145 1.208 . S
C147 O152 1.247 . S
C147 O153 1.208 . S
C148 O140 1.315 . S
C148 O143 1.279 . S
C149 O150 1.315 . S
C149 O151 1.279 . S
O150 Cd142 2.223 . S
O150 C149 1.315 . S
O151 Cd141 2.240 . S
O151 C149 1.279 . S
O152 Cd142 2.297 . S
O152 C147 1.247 . S
O153 Cd142 2.439 . S
O153 C147 1.208 . S
O154 Cd155 2.223 . S
O154 C162 1.315 . S
Cd155 O154 2.223 . S
Cd155 O158 2.297 . S
Cd155 O159 2.439 . S
Cd155 O165 2.240 . S
Cd156 O157 2.240 . S
Cd156 O164 2.223 . S
Cd156 O166 2.297 . S
Cd156 O167 2.439 . S
O157 Cd156 2.240 . S
O157 C162 1.279 . S
O158 Cd155 2.297 . S
O158 C160 1.247 . S
O159 Cd155 2.439 . S
O159 C160 1.208 . S
C160 O158 1.247 . S
C160 O159 1.208 . S
C161 O166 1.247 . S
C161 O167 1.208 . S
C162 O154 1.315 . S
C162 O157 1.279 . S
C163 O164 1.315 . S
C163 O165 1.279 . S
O164 Cd156 2.223 . S
O164 C163 1.315 . S
O165 Cd155 2.240 . S
O165 C163 1.279 . S
O166 Cd156 2.297 . S
O166 C161 1.247 . S
O167 Cd156 2.439 . S
O167 C161 1.208 . S
O168 Cd169 2.223 . S
O168 C176 1.315 . S
Cd169 O168 2.223 . S
Cd169 O172 2.297 . S
Cd169 O173 2.439 . S
Cd169 O179 2.240 . S
Cd170 O171 2.240 . S
Cd170 O178 2.223 . S
Cd170 O180 2.297 . S
Cd170 O181 2.439 . S
O171 Cd170 2.240 . S
O171 C176 1.279 . S
O172 Cd169 2.297 . S
O172 C174 1.247 . S
O173 Cd169 2.439 . S
O173 C174 1.208 . S
C174 O172 1.247 . S
C174 O173 1.208 . S
C175 O180 1.247 . S
C175 O181 1.208 . S
C176 O168 1.315 . S
C176 O171 1.279 . S
C177 O178 1.315 . S
C177 O179 1.279 . S
O178 Cd170 2.223 . S
O178 C177 1.315 . S
O179 Cd169 2.240 . S
O179 C177 1.279 . S
O180 Cd170 2.297 . S
O180 C175 1.247 . S
O181 Cd170 2.439 . S
O181 C175 1.208 . S
O182 Cd183 2.223 . S
O182 C190 1.315 . S
Cd183 O182 2.223 . S
Cd183 O186 2.297 . S
Cd183 O187 2.439 . S
Cd183 O193 2.240 . S
Cd184 O185 2.240 . S
Cd184 O192 2.223 . S
Cd184 O194 2.297 . S
Cd184 O195 2.439 . S
O185 Cd184 2.240 . S
O185 C190 1.279 . S
O186 Cd183 2.297 . S
O186 C188 1.247 . S
O187 Cd183 2.439 . S
O187 C188 1.208 . S
C188 O186 1.247 . S
C188 O187 1.208 . S
C189 O194 1.247 . S
C189 O195 1.208 . S
C190 O182 1.315 . S
C190 O185 1.279 . S
C191 O192 1.315 . S
C191 O193 1.279 . S
O192 Cd184 2.223 . S
O192 C191 1.315 . S
O193 Cd183 2.240 . S
O193 C191 1.279 . S
O194 Cd184 2.297 . S
O194 C189 1.247 . S
O195 Cd184 2.439 . S
O195 C189 1.208 . S
O196 Cd197 2.223 . S
O196 C204 1.315 . S
Cd197 O196 2.223 . S
Cd197 O200 2.297 . S
Cd197 O201 2.439 . S
Cd197 O207 2.240 . S
Cd198 O199 2.240 . S
Cd198 O206 2.223 . S
Cd198 O208 2.297 . S
Cd198 O209 2.439 . S
O199 Cd198 2.240 . S
O199 C204 1.279 . S
O200 Cd197 2.297 . S
O200 C202 1.247 . S
O201 Cd197 2.439 . S
O201 C202 1.208 . S
C202 O200 1.247 . S
C202 O201 1.208 . S
C203 O208 1.247 . S
C203 O209 1.208 . S
C204 O196 1.315 . S
C204 O199 1.279 . S
C205 O206 1.315 . S
C205 O207 1.279 . S
O206 Cd198 2.223 . S
O206 C205 1.315 . S
O207 Cd197 2.240 . S
O207 C205 1.279 . S
O208 Cd198 2.297 . S
O208 C203 1.247 . S
O209 Cd198 2.439 . S
O209 C203 1.208 . S
O210 Cd211 2.223 . S
O210 C218 1.315 . S
Cd211 O210 2.223 . S
Cd211 O214 2.297 . S
Cd211 O215 2.439 . S
Cd211 O221 2.240 . S
Cd212 O213 2.240 . S
Cd212 O220 2.223 . S
Cd212 O222 2.297 . S
Cd212 O223 2.439 . S
O213 Cd212 2.240 . S
O213 C218 1.279 . S
O214 Cd211 2.297 . S
O214 C216 1.247 . S
O215 Cd211 2.439 . S
O215 C216 1.208 . S
C216 O214 1.247 . S
C216 O215 1.208 . S
C217 O222 1.247 . S
C217 O223 1.208 . S
C218 O210 1.315 . S
C218 O213 1.279 . S
C219 O220 1.315 . S
C219 O221 1.279 . S
O220 Cd212 2.223 . S
O220 C219 1.315 . S
O221 Cd211 2.240 . S
O221 C219 1.279 . S
O222 Cd212 2.297 . S
O222 C217 1.247 . S
O223 Cd212 2.439 . S
O223 C217 1.208 . S
C224 C225 1.170 . S
C224 C226 1.380 . S
C225 C224 1.170 . S
C226 C224 1.380 . S
C226 C227 1.170 . S
C227 C226 1.170 . S
C228 C229 1.170 . S
C228 C230 1.380 1_665 S
C229 C228 1.170 . S
C230 C228 1.380 1_445 S
C230 C231 1.170 . S
C231 C230 1.170 . S
C232 C233 1.170 . S
C232 C234 1.380 1_565 S
C233 C232 1.170 . S
C234 C232 1.380 1_545 S
C234 C235 1.170 . S
C235 C234 1.170 . S
C236 C237 1.170 . S
C236 C238 1.380 1_455 S
C237 C236 1.170 . S
C238 C236 1.380 1_655 S
C238 C239 1.170 . S
C239 C238 1.170 . S
C240 C241 1.170 . S
C240 C242 1.380 . S
C241 C240 1.170 . S
C242 C240 1.380 . S
C242 C243 1.170 . S
C243 C242 1.170 . S
C244 C245 1.170 . S
C244 C246 1.380 1_545 S
C245 C244 1.170 . S
C246 C244 1.380 1_565 S
C246 C247 1.170 . S
C247 C246 1.170 . S
C248 C249 1.170 . S
C248 C250 1.380 1_655 S
C249 C248 1.170 . S
C250 C248 1.380 1_455 S
C250 C251 1.170 . S
C251 C250 1.170 . S
C252 C253 1.170 . S
C252 C254 1.380 1_554 S
C253 C252 1.170 . S
C254 C252 1.380 1_556 S
C254 C255 1.170 . S
C255 C254 1.170 . S
C256 C257 1.170 . S
C256 C258 1.380 1_456 S
C257 C256 1.170 . S
C258 C256 1.380 1_654 S
C258 C259 1.170 . S
C259 C258 1.170 . S
C260 C261 1.170 . S
C260 C262 1.380 . S
C261 C260 1.170 . S
C262 C260 1.380 . S
C262 C263 1.170 . S
C263 C262 1.170 . S
C264 C265 1.170 . S
C264 C266 1.380 1_556 S
C265 C264 1.170 . S
C266 C264 1.380 1_554 S
C266 C267 1.170 . S
C267 C266 1.170 . S
C268 C269 1.170 . S
C268 C270 1.380 . S
C269 C268 1.170 . S
C270 C268 1.380 . S
C270 C271 1.170 . S
C271 C270 1.170 . S
C272 C273 1.170 . S
C272 C274 1.380 1_546 S
C273 C272 1.170 . S
C274 C272 1.380 1_564 S
C274 C275 1.170 . S
C275 C274 1.170 . S
C276 C277 1.170 . S
C276 C278 1.380 . S
C277 C276 1.170 . S
C278 C276 1.380 . S
C278 C279 1.170 . S
C279 C278 1.170 . S
C280 C281 1.170 . S
C280 C282 1.380 . S
C281 C280 1.170 . S
C282 C280 1.380 . S
C282 C283 1.170 . S
C283 C282 1.170 . S
C284 C285 1.170 . S
C284 C286 1.380 . S
C285 C284 1.170 . S
C286 C284 1.380 . S
C286 C287 1.170 . S
C287 C286 1.170 . S
C288 C289 1.170 . S
C288 C290 1.380 . S
C289 C288 1.170 . S
C290 C288 1.380 . S
C290 C291 1.170 . S
C291 C290 1.170 . S
C292 C293 1.170 . S
C292 C294 1.380 . S
C293 C292 1.170 . S
C294 C292 1.380 . S
C294 C295 1.170 . S
C295 C294 1.170 . S
C296 C297 1.170 . S
C296 C298 1.380 . S
C297 C296 1.170 . S
C298 C296 1.380 . S
C298 C299 1.170 . S
C299 C298 1.170 . S
C300 C301 1.170 . S
C300 C302 1.380 . S
C301 C300 1.170 . S
C302 C300 1.380 . S
C302 C303 1.170 . S
C303 C302 1.170 . S
C304 C305 1.170 . S
C304 C306 1.380 . S
C305 C304 1.170 . S
C306 C304 1.380 . S
C306 C307 1.170 . S
C307 C306 1.170 . S
C308 C309 1.170 . S
C308 C310 1.380 . S
C309 C308 1.170 . S
C310 C308 1.380 . S
C310 C311 1.170 . S
C311 C310 1.170 . S
C312 C313 1.170 . S
C312 C314 1.380 . S
C313 C312 1.170 . S
C314 C312 1.380 . S
C314 C315 1.170 . S
C315 C314 1.170 . S
C316 C317 1.170 . S
C316 C318 1.380 . S
C317 C316 1.170 . S
C318 C316 1.380 . S
C318 C319 1.170 . S
C319 C318 1.170 . S
C320 C321 1.170 . S
C320 C322 1.380 . S
C321 C320 1.170 . S
C322 C320 1.380 . S
C322 C323 1.170 . S
C323 C322 1.170 . S
C324 C325 1.170 . S
C324 C326 1.380 . S
C325 C324 1.170 . S
C326 C324 1.380 . S
C326 C327 1.170 . S
C327 C326 1.170 . S
C328 C329 1.170 . S
C328 C330 1.380 . S
C329 C328 1.170 . S
C330 C328 1.380 . S
C330 C331 1.170 . S
C331 C330 1.170 . S
C332 C333 1.170 . S
C332 C334 1.380 . S
C333 C332 1.170 . S
C334 C332 1.380 . S
C334 C335 1.170 . S
C335 C334 1.170 . S
C336 C337 1.170 . S
C336 C338 1.380 . S
C337 C336 1.170 . S
C338 C336 1.380 . S
C338 C339 1.170 . S
C339 C338 1.170 . S
C340 C341 1.170 . S
C340 C342 1.380 . S
C341 C340 1.170 . S
C342 C340 1.380 . S
C342 C343 1.170 . S
C343 C342 1.170 . S
C344 C345 1.170 . S
C344 C346 1.380 . S
C345 C344 1.170 . S
C346 C344 1.380 . S
C346 C347 1.170 . S
C347 C346 1.170 . S
C348 C349 1.170 . S
C348 C350 1.380 . S
C349 C348 1.170 . S
C350 C348 1.380 . S
C350 C351 1.170 . S
C351 C350 1.170 . S
C225 C203 1.504 . S
C227 C7 1.469 . S
C229 C34 1.504 . S
C231 C6 1.469 . S
C233 C160 1.477 . S
C235 C20 1.489 . S
C237 C21 1.483 . S
C239 C105 1.482 . S
C241 C35 1.507 . S
C243 C175 1.472 . S
C245 C132 1.470 . S
C247 C48 1.500 . S
C249 C49 1.487 . S
C251 C77 1.500 . S
C253 C147 1.507 . S
C255 C63 1.473 . S
C257 C62 1.487 . S
C259 C90 1.500 . S
C261 C216 1.487 . S
C263 C76 1.479 . S
C265 C119 1.479 . S
C267 C91 1.505 . S
C269 C188 1.493 . S
C271 C104 1.474 . S
C273 C118 1.505 . S
C275 C146 1.479 . S
C277 C217 1.507 . S
C279 C133 1.475 . S
C281 C161 1.491 . S
C283 C189 1.497 . S
C285 C202 1.494 . S
C287 C174 1.473 . S
C289 C79 1.659 . S
C291 C8 1.670 1_565 S
C293 C9 1.656 . S
C295 C78 1.657 . S
C297 C23 1.672 . S
C299 C64 1.673 . S
C301 C65 1.660 . S
C303 C22 1.655 1_565 S
C305 C107 1.670 . S
C307 C36 1.670 1_545 S
C309 C106 1.673 . S
C311 C37 1.673 . S
C313 C92 1.655 . S
C315 C51 1.655 . S
C317 C50 1.655 1_545 S
C319 C93 1.655 . S
C321 C191 1.655 . S
C323 C120 1.658 1_565 S
C325 C121 1.670 . S
C327 C190 1.674 . S
C329 C135 1.661 . S
C331 C176 1.654 . S
C333 C177 1.672 . S
C335 C134 1.672 1_565 S
C337 C219 1.657 . S
C339 C148 1.657 1_545 S
C341 C218 1.661 . S
C343 C149 1.661 . S
C345 C163 1.659 . S
C347 C204 1.659 . S
C349 C205 1.658 . S
C351 C162 1.658 1_545 S
