# Generated by pormake.
# Topology qtz-e, (6)-cn, num edge types: 1
# Building blocks:
#     Node 0, Type 0, BuildingBlock: HISSIN_clean_sbu_0, # of connection points: 6
#     Node 1, Type 0, BuildingBlock: HISSIN_clean_sbu_0, # of connection points: 6
#     Node 2, Type 0, BuildingBlock: HISSIN_clean_sbu_0, # of connection points: 6
#     Node 3, Type 0, BuildingBlock: HISSIN_clean_sbu_0, # of connection points: 6
#     Node 4, Type 0, BuildingBlock: HISSIN_clean_sbu_0, # of connection points: 6
#     Node 5, Type 0, BuildingBlock: HISSIN_clean_sbu_0, # of connection points: 6
#     Edge 6, Type (0, 0), BuildingBlock: MIFKUJ_clean_linker_0, # of connection points: 2
#     Edge 7, Type (0, 0), BuildingBlock: MIFKUJ_clean_linker_0, # of connection points: 2
#     Edge 8, Type (0, 0), BuildingBlock: MIFKUJ_clean_linker_0, # of connection points: 2
#     Edge 9, Type (0, 0), BuildingBlock: MIFKUJ_clean_linker_0, # of connection points: 2
#     Edge 10, Type (0, 0), BuildingBlock: MIFKUJ_clean_linker_0, # of connection points: 2
#     Edge 11, Type (0, 0), BuildingBlock: MIFKUJ_clean_linker_0, # of connection points: 2
#     Edge 12, Type (0, 0), BuildingBlock: MIFKUJ_clean_linker_0, # of connection points: 2
#     Edge 13, Type (0, 0), BuildingBlock: MIFKUJ_clean_linker_0, # of connection points: 2
#     Edge 14, Type (0, 0), BuildingBlock: MIFKUJ_clean_linker_0, # of connection points: 2
#     Edge 15, Type (0, 0), BuildingBlock: MIFKUJ_clean_linker_0, # of connection points: 2
#     Edge 16, Type (0, 0), BuildingBlock: MIFKUJ_clean_linker_0, # of connection points: 2
#     Edge 17, Type (0, 0), BuildingBlock: MIFKUJ_clean_linker_0, # of connection points: 2
#     Edge 18, Type (0, 0), BuildingBlock: MIFKUJ_clean_linker_0, # of connection points: 2
#     Edge 19, Type (0, 0), BuildingBlock: MIFKUJ_clean_linker_0, # of connection points: 2
#     Edge 20, Type (0, 0), BuildingBlock: MIFKUJ_clean_linker_0, # of connection points: 2
#     Edge 21, Type (0, 0), BuildingBlock: MIFKUJ_clean_linker_0, # of connection points: 2
#     Edge 22, Type (0, 0), BuildingBlock: MIFKUJ_clean_linker_0, # of connection points: 2
#     Edge 23, Type (0, 0), BuildingBlock: MIFKUJ_clean_linker_0, # of connection points: 2
# Relax obj value: 0.140
# Max RMSD: 0.198
# Mean RMSD: 0.198
data_MOF--net-qtz-e--node1-HISSIN_clean_sbu_0--edge1-MIFKUJ_clean_linker_0
_symmetry_space_group_name_H-M    P1
_symmetry_Int_Tables_number       1
_symmetry_cell_setting            triclinic
loop_
_symmetry_equiv_pos_as_xyz
'x, y, z'
_cell_length_a     32.419672
_cell_length_b     32.263154
_cell_length_c     63.430138
_cell_angle_alpha  90.090395
_cell_angle_beta   89.900869
_cell_angle_gamma 119.9152
loop_
_atom_site_label
_atom_site_type_symbol
_atom_site_fract_x
_atom_site_fract_y
_atom_site_fract_z
_atom_type_partial_charge
Eu0 Eu 0.17968 0.44218 0.04668 0.0
Eu1 Eu 0.15097 0.33503 0.0271 0.0
C2 C 0.09593 0.38888 0.01339 0.0
C3 C 0.20928 0.54352 0.08659 0.0
C4 C 0.19389 0.5136 0.10434 0.0
C5 C 0.23109 0.61207 0.10934 0.0
C6 C 0.19684 0.53285 0.1245 0.0
C7 C 0.22789 0.59277 0.08924 0.0
C8 C 0.21527 0.5824 0.12728 0.0
C9 C 0.20575 0.52421 0.06518 0.0
O10 O 0.18497 0.38542 0.9998 0.0
O11 O 0.22335 0.45878 0.01668 0.0
C12 C 0.21543 0.43172 0.99982 0.0
O13 O 0.21543 0.40731 0.06308 0.0
O14 O 0.10551 0.27316 1.0076 0.0
O15 O 0.16376 0.27474 0.02496 0.0
O16 O 0.22946 0.37798 0.03375 0.0
C17 C 0.24485 0.40029 0.05171 0.0
O18 O 0.11661 0.38815 0.06537 0.0
O19 O 0.12708 0.32323 0.06116 0.0
O20 O 0.09026 0.34822 0.02057 0.0
O21 O 0.23522 0.50905 0.06044 0.0
O22 O 0.16288 0.49574 0.05813 0.0
O23 O 0.13255 0.43011 0.01884 0.0
C24 C 0.14787 0.24176 0.99052 0.0
C25 C 0.19309 0.2731 0.98217 0.0
C26 C 0.12879 0.19314 0.95885 0.0
C27 C 0.20608 0.26446 0.96233 0.0
C28 C 0.11597 0.20156 0.9788 0.0
C29 C 0.17384 0.22472 0.95035 0.0
C30 C 0.13188 0.25357 1.01021 0.0
C31 C 0.10922 0.3461 0.07154 0.0
H32 H 0.17923 0.47538 0.10258 0.0
H33 H 0.2464 0.6504 0.1108 0.0
H34 H 0.1838 0.50876 0.13785 0.0
H35 H 0.24018 0.61646 0.07573 0.0
H36 H 0.21793 0.30496 0.99074 0.0
H37 H 0.10337 0.16208 0.95002 0.0
H38 H 0.24079 0.28976 0.95607 0.0
H39 H 0.08071 0.17734 0.98487 0.0
Eu40 Eu 0.73493 0.17529 0.38732 0.0
Eu41 Eu 0.8096 0.14574 0.36454 0.0
C42 C 0.7054 0.07216 0.37549 0.0
C43 C 0.65722 0.18744 0.42899 0.0
C44 C 0.66581 0.16205 0.44473 0.0
C45 C 0.62295 0.21586 0.4555 0.0
C46 C 0.65259 0.16315 0.46564 0.0
C47 C 0.63612 0.21465 0.43459 0.0
C48 C 0.63085 0.19 0.47133 0.0
C49 C 0.66906 0.18488 0.40672 0.0
O50 O 0.77168 0.16272 0.3388 0.0
O51 O 0.7501 0.2119 0.35588 0.0
C52 C 0.75988 0.19633 0.33848 0.0
O53 O 0.80774 0.23343 0.39625 0.0
O54 O 0.81637 0.09975 0.34119 0.0
O55 O 0.8794 0.1551 0.35696 0.0
O56 O 0.84841 0.22586 0.36815 0.0
C57 C 0.84518 0.25067 0.3839 0.0
O58 O 0.7619 0.14926 0.41381 0.0
O59 O 0.82222 0.13953 0.39922 0.0
O60 O 0.74829 0.07982 0.37876 0.0
O61 O 0.70812 0.22109 0.39943 0.0
O62 O 0.66363 0.14386 0.40048 0.0
O63 O 0.70184 0.1079 0.36805 0.0
C64 C 0.88454 0.14364 0.32033 0.0
C65 C 0.90074 0.19155 0.3149 0.0
C66 C 0.90134 0.12889 0.28461 0.0
C67 C 0.91738 0.20806 0.29454 0.0
C68 C 0.88509 0.11252 0.30505 0.0
C69 C 0.91758 0.17689 0.27903 0.0
C70 C 0.86282 0.12503 0.34116 0.0
C71 C 0.79705 0.1401 0.4155 0.0
H72 H 0.68214 0.14079 0.44081 0.0
H73 H 0.6071 0.23759 0.4593 0.0
H74 H 0.65878 0.14236 0.47729 0.0
H75 H 0.62965 0.23489 0.42274 0.0
H76 H 0.89992 0.21617 0.3263 0.0
H77 H 0.90007 0.10355 0.27305 0.0
H78 H 0.93018 0.24535 0.29102 0.0
H79 H 0.87191 0.07523 0.30879 0.0
Eu80 Eu 0.53511 0.71387 0.71356 0.0
Eu81 Eu 0.63827 0.8018 0.69661 0.0
C82 C 0.59525 0.69719 0.67912 0.0
C83 C 0.44076 0.63087 0.75199 0.0
C84 C 0.40959 0.5832 0.7576 0.0
C85 C 0.44227 0.65448 0.78856 0.0
C86 C 0.39501 0.57113 0.77857 0.0
C87 C 0.45706 0.66646 0.76761 0.0
C88 C 0.41133 0.60659 0.79432 0.0
C89 C 0.45886 0.64267 0.73023 0.0
O90 O 0.58147 0.8044 0.67685 0.0
O91 O 0.52058 0.7265 0.68 0.0
C92 C 0.54123 0.76794 0.67009 0.0
O93 O 0.53557 0.78158 0.72218 0.0
O94 O 0.70737 0.8248 0.68169 0.0
O95 O 0.68836 0.87736 0.69173 0.0
O96 O 0.61622 0.83352 0.72293 0.0
C97 C 0.57249 0.8225 0.72775 0.0
O98 O 0.58406 0.741 0.74131 0.0
O99 O 0.65434 0.76639 0.72388 0.0
O100 O 0.61321 0.74161 0.67322 0.0
O101 O 0.45959 0.6798 0.72166 0.0
O102 O 0.49796 0.64174 0.72661 0.0
O103 O 0.57737 0.6841 0.69805 0.0
C104 C 0.73188 0.89287 0.66012 0.0
C105 C 0.69933 0.89968 0.64814 0.0
C106 C 0.79109 0.93172 0.63251 0.0
C107 C 0.71283 0.92314 0.62876 0.0
C108 C 0.77771 0.90867 0.6521 0.0
C109 C 0.75893 0.93972 0.62081 0.0
C110 C 0.71809 0.86952 0.68091 0.0
C111 C 0.62878 0.752 0.74127 0.0
H112 H 0.39699 0.5552 0.7458 0.0
H113 H 0.45595 0.68255 0.80034 0.0
H114 H 0.37079 0.53401 0.78244 0.0
H115 H 0.48181 0.70343 0.76366 0.0
H116 H 0.66351 0.88717 0.65384 0.0
H117 H 0.82683 0.94417 0.62672 0.0
H118 H 0.68706 0.92809 0.6199 0.0
H119 H 0.8032 0.90348 0.66105 0.0
Eu120 Eu 0.73937 0.54573 0.06516 0.0
Eu121 Eu 0.79222 0.65015 0.03897 0.0
C122 C 0.82049 0.5698 0.03244 0.0
C123 C 0.71281 0.44904 0.10704 0.0
C124 C 0.75789 0.45373 0.11028 0.0
C125 C 0.68708 0.40881 0.1409 0.0
C126 C 0.76731 0.43577 0.12868 0.0
C127 C 0.67761 0.42637 0.12251 0.0
C128 C 0.73201 0.41328 0.14425 0.0
C129 C 0.70143 0.46753 0.08789 0.0
O130 O 0.72559 0.60034 0.02107 0.0
O131 O 0.71182 0.52636 0.0318 0.0
C132 C 0.70743 0.55418 0.01789 0.0
O133 O 0.69065 0.57611 0.06482 0.0
O134 O 0.84693 0.70134 0.0175 0.0
O135 O 0.79176 0.71457 0.02914 0.0
O136 O 0.74684 0.65556 0.0644 0.0
C137 C 0.70388 0.62092 0.06881 0.0
O138 O 0.78862 0.60182 0.08799 0.0
O139 O 0.84194 0.66166 0.06606 0.0
O140 O 0.81087 0.5998 0.02281 0.0
O141 O 0.69243 0.50228 0.09071 0.0
O142 O 0.72691 0.47362 0.07101 0.0
O143 O 0.80847 0.55763 0.05214 0.0
C144 C 0.81248 0.7307 0.99319 0.0
C145 C 0.76475 0.7059 0.98656 0.0
C146 C 0.83624 0.76005 0.95739 0.0
C147 C 0.75291 0.70785 0.96558 0.0
C148 C 0.84811 0.75789 0.97845 0.0
C149 C 0.78846 0.73489 0.95069 0.0
C150 C 0.82506 0.72574 0.01507 0.0
C151 C 0.82959 0.64093 0.08468 0.0
H152 H 0.78586 0.47138 0.09866 0.0
H153 H 0.65891 0.39114 0.15243 0.0
H154 H 0.80238 0.44013 0.13087 0.0
H155 H 0.6426 0.42224 0.12035 0.0
H156 H 0.73646 0.68421 0.99752 0.0
H157 H 0.86446 0.78167 0.9464 0.0
H158 H 0.71587 0.68731 0.96096 0.0
H159 H 0.88513 0.77712 0.98318 0.0
Eu160 Eu 0.28072 0.8232 0.37899 0.0
Eu161 Eu 0.20524 0.85517 0.35882 0.0
C162 C 0.31189 0.92749 0.36704 0.0
C163 C 0.35707 0.80347 0.41851 0.0
C164 C 0.35873 0.83551 0.43398 0.0
C165 C 0.38161 0.76551 0.44495 0.0
C166 C 0.37281 0.83328 0.45458 0.0
C167 C 0.36806 0.76811 0.42424 0.0
C168 C 0.3847 0.79847 0.46032 0.0
C169 C 0.34406 0.80674 0.39648 0.0
O170 O 0.23926 0.83704 0.33169 0.0
O171 O 0.25959 0.78583 0.34759 0.0
C172 C 0.24913 0.80211 0.33063 0.0
O173 O 0.20802 0.77023 0.39074 0.0
O174 O 0.19544 0.90085 0.33652 0.0
O175 O 0.13506 0.84746 0.35443 0.0
O176 O 0.16556 0.77533 0.36301 0.0
C177 C 0.16944 0.75206 0.37915 0.0
O178 O 0.26374 0.85677 0.40608 0.0
O179 O 0.20072 0.86519 0.39403 0.0
O180 O 0.26952 0.92109 0.37058 0.0
O181 O 0.30264 0.77275 0.39002 0.0
O182 O 0.35304 0.84892 0.3901 0.0
O183 O 0.31528 0.89114 0.36004 0.0
C184 C 0.12291 0.85864 0.31866 0.0
C185 C 0.10785 0.81149 0.3123 0.0
C186 C 0.09593 0.87299 0.2852 0.0
C187 C 0.08674 0.79513 0.2926 0.0
C188 C 0.11668 0.88922 0.30503 0.0
C189 C 0.08093 0.82582 0.27878 0.0
C190 C 0.14918 0.87719 0.33851 0.0
C191 C 0.22952 0.86678 0.40913 0.0
H192 H 0.34933 0.86247 0.43015 0.0
H193 H 0.39077 0.73841 0.44881 0.0
H194 H 0.37375 0.85842 0.4661 0.0
H195 H 0.36679 0.74287 0.41261 0.0
H196 H 0.1133 0.78756 0.32239 0.0
H197 H 0.0916 0.89728 0.27488 0.0
H198 H 0.0761 0.75884 0.28795 0.0
H199 H 0.12867 0.92589 0.30956 0.0
Eu200 Eu 0.46072 0.26505 0.72266 0.0
Eu201 Eu 0.36814 0.16797 0.70313 0.0
C202 C 0.39415 0.27102 0.68805 0.0
C203 C 0.54327 0.35662 0.76255 0.0
C204 C 0.58578 0.39882 0.76703 0.0
C205 C 0.52611 0.34452 0.80009 0.0
C206 C 0.59838 0.41394 0.78793 0.0
C207 C 0.51366 0.32941 0.77922 0.0
C208 C 0.56856 0.38713 0.80475 0.0
C209 C 0.52904 0.34196 0.74052 0.0
O210 O 0.4334 0.17773 0.68602 0.0
O211 O 0.48208 0.25897 0.68929 0.0
C212 C 0.46999 0.21823 0.67971 0.0
O213 O 0.47054 0.20315 0.73151 0.0
O214 O 0.29717 0.13394 0.68921 0.0
O215 O 0.33334 0.0933 0.69318 0.0
O216 O 0.393 0.14165 0.73043 0.0
C217 C 0.43749 0.15939 0.73637 0.0
O218 O 0.40952 0.23064 0.74935 0.0
O219 O 0.34019 0.19241 0.73045 0.0
O220 O 0.38478 0.22901 0.68119 0.0
O221 O 0.53454 0.30706 0.73342 0.0
O222 O 0.48812 0.3371 0.73505 0.0
O223 O 0.41039 0.28464 0.70719 0.0
C224 C 0.28708 0.07824 0.66268 0.0
C225 C 0.25461 0.03023 0.65817 0.0
C226 C 0.30341 0.09362 0.6252 0.0
C227 C 0.24679 0.01386 0.63732 0.0
C228 C 0.31141 0.10988 0.64607 0.0
C229 C 0.27128 0.04531 0.6206 0.0
C230 C 0.29733 0.0945 0.68471 0.0
C231 C 0.36305 0.21015 0.74827 0.0
H232 H 0.6091 0.42026 0.75436 0.0
H233 H 0.50192 0.32326 0.81255 0.0
H234 H 0.63164 0.44652 0.79091 0.0
H235 H 0.48056 0.29678 0.77607 0.0
H236 H 0.23572 0.00527 0.6708 0.0
H237 H 0.32329 0.11858 0.61272 0.0
H238 H 0.22152 0.97656 0.63427 0.0
H239 H 0.33712 0.147 0.64926 0.0
H240 H 0.26299 0.72649 0.32209 0.0
H241 H 0.25675 0.68811 0.2881 0.0
H242 H 0.22537 0.78889 0.25788 0.0
H243 H 0.23053 0.82687 0.29189 0.0
H244 H 0.16707 0.70166 0.24381 0.0
H245 H 0.33642 0.79632 0.25365 0.0
H246 H 0.41222 0.82486 0.2726 0.0
H247 H 0.391 0.68243 0.2729 0.0
H248 H 0.31473 0.65292 0.25418 0.0
H249 H 0.19906 0.65571 0.13779 0.0
H250 H 0.20513 0.69147 0.1723 0.0
H251 H 0.2402 0.59106 0.20015 0.0
H252 H 0.23681 0.55669 0.16535 0.0
H253 H 0.29567 0.67602 0.21592 0.0
H254 H 0.12663 0.58103 0.20614 0.0
H255 H 0.05036 0.5519 0.18746 0.0
H256 H 0.07086 0.69405 0.18701 0.0
H257 H 0.14721 0.72403 0.20569 0.0
C258 C 0.2551 0.7408 0.30821 0.0
C259 C 0.24766 0.78012 0.30978 0.0
C260 C 0.25166 0.71882 0.28872 0.0
C261 C 0.24118 0.73589 0.27028 0.0
C262 C 0.23361 0.77505 0.27182 0.0
C263 C 0.23683 0.79693 0.29132 0.0
C264 C 0.23727 0.7125 0.24947 0.0
C265 C 0.19548 0.69663 0.2376 0.0
C266 C 0.27369 0.70461 0.24153 0.0
C267 C 0.31965 0.72234 0.25269 0.0
C268 C 0.34775 0.77103 0.25789 0.0
C269 C 0.39083 0.78739 0.26857 0.0
C270 C 0.40635 0.75546 0.274 0.0
C271 C 0.3789 0.70711 0.26871 0.0
C272 C 0.33577 0.69056 0.25805 0.0
C273 C 0.20858 0.64141 0.15117 0.0
C274 C 0.21751 0.6032 0.14864 0.0
C275 C 0.21135 0.66155 0.17103 0.0
C276 C 0.22233 0.64356 0.18902 0.0
C277 C 0.23138 0.60549 0.18658 0.0
C278 C 0.22898 0.58552 0.16665 0.0
C279 C 0.22553 0.66529 0.2102 0.0
C280 C 0.26718 0.68088 0.22215 0.0
C281 C 0.18893 0.67282 0.21824 0.0
C282 C 0.14282 0.65482 0.20716 0.0
C283 C 0.11495 0.6061 0.20198 0.0
C284 C 0.07165 0.58942 0.19144 0.0
C285 C 0.0558 0.62111 0.18606 0.0
C286 C 0.0831 0.66952 0.19126 0.0
C287 C 0.12634 0.68635 0.20186 0.0
H288 H 0.02239 0.60814 0.17787 0.0
H289 H 0.43971 0.76819 0.28227 0.0
H290 H 0.47316 0.142 0.66318 0.0
H291 H 0.50745 0.13729 0.62966 0.0
H292 H 0.55569 0.28647 0.61823 0.0
H293 H 0.52294 0.29176 0.65232 0.0
H294 H 0.4832 0.14465 0.59263 0.0
H295 H 0.64915 0.33423 0.58445 0.0
H296 H 0.71043 0.39647 0.60723 0.0
H297 H 0.68973 0.29001 0.6531 0.0
H298 H 0.6288 0.2271 0.6305 0.0
H299 H 0.55094 0.19001 0.48574 0.0
H300 H 0.52906 0.19458 0.52214 0.0
H301 H 0.65535 0.19538 0.54404 0.0
H302 H 0.67862 0.19294 0.50758 0.0
H303 H 0.64429 0.25854 0.56549 0.0
H304 H 0.54457 0.09495 0.54768 0.0
H305 H 0.48581 0.02422 0.52783 0.0
H306 H 0.38032 0.06566 0.53778 0.0
H307 H 0.4386 0.13707 0.55738 0.0
C308 C 0.49182 0.17406 0.65371 0.0
C309 C 0.49545 0.21731 0.66044 0.0
C310 C 0.51124 0.17126 0.63446 0.0
C311 C 0.5343 0.21147 0.6213 0.0
C312 C 0.53887 0.25507 0.6282 0.0
C313 C 0.52005 0.25808 0.64769 0.0
C314 C 0.55071 0.20672 0.5999 0.0
C315 C 0.51848 0.16961 0.58674 0.0
C316 C 0.59706 0.2385 0.59226 0.0
C317 C 0.63408 0.27604 0.60585 0.0
C318 C 0.65782 0.32409 0.59936 0.0
C319 C 0.69247 0.35949 0.61225 0.0
C320 C 0.70387 0.34722 0.63162 0.0
C321 C 0.68075 0.2995 0.63812 0.0
C322 C 0.64611 0.26397 0.62529 0.0
C323 C 0.5744 0.19167 0.49825 0.0
C324 C 0.61669 0.19127 0.49363 0.0
C325 C 0.56152 0.19373 0.51913 0.0
C326 C 0.59029 0.19489 0.53592 0.0
C327 C 0.63251 0.1945 0.53139 0.0
C328 C 0.64553 0.19261 0.5105 0.0
C329 C 0.57644 0.19695 0.55817 0.0
C330 C 0.60907 0.2336 0.57143 0.0
C331 C 0.53091 0.1638 0.56618 0.0
C332 C 0.49614 0.12166 0.55383 0.0
C333 C 0.50903 0.08932 0.54542 0.0
C334 C 0.47579 0.04907 0.53425 0.0
C335 C 0.42946 0.04056 0.53157 0.0
C336 C 0.41625 0.07235 0.5399 0.0
C337 C 0.44938 0.11273 0.55102 0.0
H338 H 0.40376 0.00921 0.52316 0.0
H339 H 0.73068 0.37468 0.64158 0.0
H340 H 0.29379 0.52086 0.99406 0.0
H341 H 0.33405 0.55719 0.96068 0.0
H342 H 0.23534 0.42915 0.92736 0.0
H343 H 0.1953 0.3925 0.96042 0.0
H344 H 0.37652 0.52437 0.92863 0.0
H345 H 0.20213 0.46792 0.88348 0.0
H346 H 0.12016 0.44989 0.89111 0.0
H347 H 0.17002 0.54383 0.94466 0.0
H348 H 0.25235 0.56312 0.93712 0.0
H349 H 0.40544 0.53138 0.81682 0.0
H350 H 0.37908 0.50908 0.85332 0.0
H351 H 0.35765 0.63024 0.85901 0.0
H352 H 0.38337 0.6524 0.82242 0.0
H353 H 0.28191 0.54893 0.87371 0.0
H354 H 0.45092 0.63158 0.8823 0.0
H355 H 0.53302 0.64953 0.87528 0.0
H356 H 0.4973 0.50893 0.89605 0.0
H357 H 0.41464 0.4897 0.90279 0.0
C358 C 0.28075 0.50041 0.97963 0.0
C359 C 0.24107 0.45389 0.97992 0.0
C360 C 0.304 0.5211 0.96061 0.0
C361 C 0.28748 0.49592 0.94157 0.0
C362 C 0.24849 0.44926 0.94188 0.0
C363 C 0.22564 0.4284 0.96083 0.0
C364 C 0.30921 0.51875 0.92113 0.0
C365 C 0.35604 0.52995 0.91661 0.0
C366 C 0.28255 0.52658 0.90562 0.0
C367 C 0.23337 0.51662 0.90983 0.0
C368 C 0.19565 0.485 0.89679 0.0
C369 C 0.14911 0.47452 0.90112 0.0
C370 C 0.13987 0.49558 0.9184 0.0
C371 C 0.1772 0.52742 0.93132 0.0
C372 C 0.2238 0.53812 0.92703 0.0
C373 C 0.39498 0.55321 0.82582 0.0
C374 C 0.39639 0.59362 0.81669 0.0
C375 C 0.38037 0.54067 0.84675 0.0
C376 C 0.36677 0.56822 0.85897 0.0
C377 C 0.36816 0.60858 0.84991 0.0
C378 C 0.3831 0.62134 0.82903 0.0
C379 C 0.3491 0.5537 0.88089 0.0
C380 C 0.30277 0.54383 0.88571 0.0
C381 C 0.37645 0.54742 0.89667 0.0
C382 C 0.42631 0.55899 0.8928 0.0
C383 C 0.46038 0.60428 0.88517 0.0
C384 C 0.50705 0.6147 0.88125 0.0
C385 C 0.52024 0.58025 0.88505 0.0
C386 C 0.48691 0.53545 0.89298 0.0
C387 C 0.44015 0.52479 0.89686 0.0
H388 H 0.55636 0.58837 0.88196 0.0
H389 H 0.1038 0.48729 0.92177 0.0
H390 H 0.72824 0.25933 0.33071 0.0
H391 H 0.72708 0.29548 0.29709 0.0
H392 H 0.78622 0.21786 0.26599 0.0
H393 H 0.78798 0.18177 0.29965 0.0
H394 H 0.82949 0.31069 0.25305 0.0
H395 H 0.66944 0.18174 0.26063 0.0
H396 H 0.59279 0.13288 0.27882 0.0
H397 H 0.57237 0.25436 0.28239 0.0
H398 H 0.64925 0.30415 0.26447 0.0
H399 H 0.77681 0.36046 0.14861 0.0
H400 H 0.78611 0.32416 0.18089 0.0
H401 H 0.71817 0.38743 0.21666 0.0
H402 H 0.70832 0.42308 0.18453 0.0
H403 H 0.67979 0.29739 0.22622 0.0
H404 H 0.83988 0.42654 0.21761 0.0
H405 H 0.91775 0.4756 0.20045 0.0
H406 H 0.94035 0.35537 0.1996 0.0
H407 H 0.86219 0.30521 0.21636 0.0
C408 C 0.74082 0.24969 0.31674 0.0
C409 C 0.75774 0.2172 0.31791 0.0
C410 C 0.74005 0.27037 0.29749 0.0
C411 C 0.75604 0.259 0.27893 0.0
C412 C 0.77353 0.22706 0.28007 0.0
C413 C 0.77419 0.2062 0.29933 0.0
C414 C 0.75437 0.28049 0.25841 0.0
C415 C 0.79669 0.30727 0.24695 0.0
C416 C 0.71171 0.27669 0.25069 0.0
C417 C 0.66531 0.24677 0.26137 0.0
C418 C 0.64877 0.19812 0.26543 0.0
C419 C 0.60526 0.17025 0.27567 0.0
C420 C 0.57778 0.19053 0.2818 0.0
C421 C 0.59371 0.23871 0.27765 0.0
C422 C 0.63723 0.26676 0.26743 0.0
C423 C 0.76447 0.36713 0.16342 0.0
C424 C 0.74147 0.39435 0.16397 0.0
C425 C 0.76984 0.34638 0.18188 0.0
C426 C 0.75294 0.35305 0.20131 0.0
C427 C 0.73122 0.38138 0.2019 0.0
C428 C 0.72552 0.40172 0.18349 0.0
C429 C 0.7552 0.32863 0.22087 0.0
C430 C 0.71276 0.30093 0.23216 0.0
C431 C 0.79787 0.33173 0.22837 0.0
C432 C 0.84455 0.36175 0.21786 0.0
C433 C 0.86101 0.41026 0.21345 0.0
C434 C 0.90529 0.43834 0.20382 0.0
C435 C 0.93374 0.4185 0.19874 0.0
C436 C 0.91807 0.37058 0.20335 0.0
C437 C 0.87375 0.34229 0.2129 0.0
H438 H 0.96807 0.44035 0.19136 0.0
H439 H 0.5441 0.16889 0.28973 0.0
H440 H 0.46858 0.69746 0.64693 0.0
H441 H 0.44125 0.70445 0.6119 0.0
H442 H 0.54253 0.85561 0.61155 0.0
H443 H 0.56981 0.8491 0.64663 0.0
H444 H 0.4573 0.83736 0.5956 0.0
H445 H 0.56588 0.77934 0.5853 0.0
H446 H 0.59851 0.7255 0.59042 0.0
H447 H 0.46908 0.60742 0.56676 0.0
H448 H 0.43528 0.66039 0.56185 0.0
H449 H 0.44715 0.87308 0.48517 0.0
H450 H 0.47249 0.8698 0.52113 0.0
H451 H 0.38207 0.71637 0.52118 0.0
H452 H 0.35726 0.7195 0.4851 0.0
H453 H 0.46362 0.73769 0.53745 0.0
H454 H 0.35279 0.79405 0.55051 0.0
H455 H 0.31859 0.84691 0.54697 0.0
H456 H 0.4521 0.96776 0.56517 0.0
H457 H 0.48694 0.9154 0.56905 0.0
C458 C 0.4847 0.73234 0.63955 0.0
C459 C 0.5215 0.77269 0.64966 0.0
C460 C 0.46922 0.73621 0.61942 0.0
C461 C 0.49023 0.78047 0.60894 0.0
C462 C 0.52583 0.82108 0.61928 0.0
C463 C 0.54146 0.81722 0.63936 0.0
C464 C 0.47594 0.7842 0.58701 0.0
C465 C 0.45921 0.81598 0.58283 0.0
C466 C 0.4777 0.7558 0.57036 0.0
C467 C 0.49789 0.72379 0.57336 0.0
C468 C 0.5442 0.74181 0.58135 0.0
C469 C 0.56295 0.71147 0.58417 0.0
C470 C 0.53594 0.66311 0.57886 0.0
C471 C 0.49001 0.64493 0.57082 0.0
C472 C 0.47103 0.67509 0.56801 0.0
C473 C 0.4324 0.83868 0.49291 0.0
C474 C 0.40008 0.79655 0.48227 0.0
C475 C 0.4468 0.83684 0.51354 0.0
C476 C 0.42873 0.79286 0.52412 0.0
C477 C 0.39661 0.75076 0.51344 0.0
C478 C 0.38252 0.75256 0.49276 0.0
C479 C 0.44419 0.79037 0.54603 0.0
C480 C 0.4615 0.759 0.55021 0.0
C481 C 0.44296 0.81914 0.56267 0.0
C482 C 0.42254 0.8509 0.55987 0.0
C483 C 0.37493 0.83196 0.5536 0.0
C484 C 0.35539 0.86181 0.55162 0.0
C485 C 0.38323 0.91076 0.55572 0.0
C486 C 0.43061 0.92989 0.56194 0.0
C487 C 0.4502 0.9001 0.56413 0.0
H488 H 0.36806 0.93384 0.55411 0.0
H489 H 0.55057 0.6397 0.58101 0.0
H490 H 0.71498 0.60429 0.98225 0.0
H491 H 0.6867 0.57385 0.94704 0.0
H492 H 0.62515 0.4293 0.97014 0.0
H493 H 0.65393 0.45991 1.00576 0.0
H494 H 0.67708 0.44324 0.93453 0.0
H495 H 0.55307 0.47598 0.95601 0.0
H496 H 0.52418 0.5273 0.97121 0.0
H497 H 0.59621 0.63141 0.92257 0.0
H498 H 0.62535 0.58065 0.90707 0.0
H499 H 0.55654 0.33287 0.83998 0.0
H500 H 0.57585 0.35975 0.87646 0.0
H501 H 0.63009 0.50569 0.85657 0.0
H502 H 0.60914 0.47887 0.82011 0.0
H503 H 0.57962 0.48995 0.89113 0.0
H504 H 0.70416 0.46086 0.86956 0.0
H505 H 0.7414 0.4162 0.85534 0.0
H506 H 0.6769 0.31175 0.9045 0.0
H507 H 0.63875 0.35548 0.91887 0.0
C508 C 0.69458 0.56601 0.98004 0.0
C509 C 0.6861 0.5346 0.99697 0.0
C510 C 0.67842 0.54861 0.95981 0.0
C511 C 0.65313 0.49925 0.95596 0.0
C512 C 0.64436 0.46757 0.97279 0.0
C513 C 0.66067 0.48508 0.99313 0.0
C514 C 0.63812 0.48112 0.93414 0.0
C515 C 0.65489 0.45254 0.92517 0.0
C516 C 0.61083 0.49495 0.92167 0.0
C517 C 0.5916 0.52459 0.93043 0.0
C518 C 0.56269 0.50979 0.94855 0.0
C519 C 0.54619 0.53874 0.9572 0.0
C520 C 0.55833 0.58257 0.94786 0.0
C521 C 0.58679 0.59743 0.92979 0.0
C522 C 0.60313 0.56847 0.921 0.0
C523 C 0.57221 0.37067 0.84334 0.0
C524 C 0.58136 0.40366 0.82701 0.0
C525 C 0.58372 0.38608 0.86423 0.0
C526 C 0.60513 0.43489 0.86931 0.0
C527 C 0.61391 0.46789 0.85309 0.0
C528 C 0.60229 0.4525 0.83218 0.0
C529 C 0.61813 0.4514 0.89151 0.0
C530 C 0.60123 0.47996 0.90053 0.0
C531 C 0.64588 0.43805 0.90398 0.0
C532 C 0.66812 0.41119 0.89514 0.0
C533 C 0.69751 0.42813 0.87722 0.0
C534 C 0.71887 0.40301 0.86915 0.0
C535 C 0.71136 0.36105 0.87896 0.0
C536 C 0.68253 0.34415 0.89687 0.0
C537 C 0.66107 0.36912 0.90499 0.0
H538 H 0.72802 0.34173 0.87272 0.0
H539 H 0.54571 0.60503 0.95464 0.0
H540 H 0.29849 0.42327 0.08721 0.0
H541 H 0.37956 0.48997 0.09166 0.0
H542 H 0.38138 0.52849 0.02621 0.0
H543 H 0.30388 0.4581 0.02125 0.0
H544 H 0.45834 0.54322 0.0321 0.0
H545 H 0.37309 0.59575 0.07257 0.0
H546 H 0.31486 0.59357 0.09814 0.0
H547 H 0.39072 0.57327 0.14872 0.0
H548 H 0.44929 0.57475 0.12344 0.0
H549 H 0.69241 0.69463 0.0552 0.0
H550 H 0.61706 0.69514 0.05612 0.0
H551 H 0.55743 0.57223 0.09717 0.0
H552 H 0.63203 0.57132 0.09611 0.0
H553 H 0.51152 0.63382 0.09921 0.0
H554 H 0.55291 0.53577 0.04316 0.0
H555 H 0.60792 0.54143 0.01489 0.0
H556 H 0.61228 0.66815 0.99116 0.0
H557 H 0.55674 0.66273 0.01921 0.0
C558 C 0.31706 0.44547 0.07375 0.0
C559 C 0.2954 0.43552 0.05389 0.0
C560 C 0.3628 0.48442 0.07638 0.0
C561 C 0.38634 0.51577 0.05948 0.0
C562 C 0.36438 0.50529 0.03959 0.0
C563 C 0.31993 0.46491 0.03672 0.0
C564 C 0.43535 0.55691 0.06207 0.0
C565 C 0.46908 0.56425 0.04647 0.0
C566 C 0.4503 0.58559 0.08056 0.0
C567 C 0.41563 0.58528 0.09603 0.0
C568 C 0.37732 0.59063 0.08913 0.0
C569 C 0.34419 0.58949 0.10359 0.0
C570 C 0.34896 0.58319 0.12504 0.0
C571 C 0.38707 0.57819 0.13209 0.0
C572 C 0.42036 0.57933 0.1177 0.0
C573 C 0.66394 0.66934 0.06527 0.0
C574 C 0.66717 0.63219 0.07521 0.0
C575 C 0.62106 0.6698 0.06585 0.0
C576 C 0.58165 0.63326 0.07643 0.0
C577 C 0.58751 0.60077 0.08894 0.0
C578 C 0.62992 0.5999 0.08814 0.0
C579 C 0.5329 0.61832 0.0695 0.0
C580 C 0.49929 0.61493 0.08434 0.0
C581 C 0.51738 0.59538 0.0498 0.0
C582 C 0.55111 0.59899 0.03322 0.0
C583 C 0.56573 0.5648 0.0319 0.0
C584 C 0.59701 0.56803 0.01594 0.0
C585 C 0.61386 0.60535 1.00131 0.0
C586 C 0.59934 0.63941 1.00256 0.0
C587 C 0.56791 0.63623 0.01843 0.0
H588 H 0.63784 0.60777 0.98889 0.0
H589 H 0.32317 0.58223 0.13619 0.0
H590 H 0.16372 0.69416 0.41172 0.0
H591 H 0.10679 0.60907 0.41573 0.0
H592 H 0.03363 0.61233 0.35955 0.0
H593 H 0.08995 0.69762 0.35553 0.0
H594 H 0.97178 0.55518 0.38948 0.0
H595 H 0.11482 0.57838 0.35604 0.0
H596 H 0.20148 0.61149 0.35285 0.0
H597 H 0.2017 0.5408 0.41012 0.0
H598 H 0.11507 0.50785 0.41381 0.0
H599 H 0.92035 0.30417 0.35779 0.0
H600 H 0.97606 0.38995 0.36008 0.0
H601 H 0.91079 0.39664 0.41836 0.0
H602 H 0.85437 0.31104 0.41607 0.0
H603 H 0.04178 0.44895 0.3878 0.0
H604 H 0.90307 0.49818 0.41768 0.0
H605 H 0.81611 0.46526 0.41698 0.0
H606 H 0.80655 0.39058 0.35947 0.0
H607 H 0.89347 0.42361 0.35967 0.0
C608 C 0.13516 0.67698 0.40036 0.0
C609 C 0.13171 0.70244 0.38313 0.0
C610 C 0.10273 0.62839 0.40268 0.0
C611 C 0.06664 0.60447 0.38773 0.0
C612 C 0.06141 0.63028 0.37121 0.0
C613 C 0.09372 0.67895 0.36891 0.0
C614 C 0.03654 0.55197 0.3884 0.0
C615 C 0.98701 0.53191 0.38926 0.0
C616 C 0.0566 0.52182 0.38764 0.0
C617 C 0.10857 0.54106 0.38531 0.0
C618 C 0.13341 0.57017 0.36803 0.0
C619 C 0.18251 0.58888 0.36612 0.0
C620 C 0.2071 0.57836 0.3813 0.0
C621 C 0.18261 0.54898 0.39839 0.0
C622 C 0.13351 0.53026 0.40039 0.0
C623 C 0.91818 0.32373 0.37124 0.0
C624 C 0.88254 0.30098 0.3866 0.0
C625 C 0.95012 0.37269 0.37254 0.0
C626 C 0.94693 0.39958 0.3892 0.0
C627 C 0.91319 0.37652 0.40519 0.0
C628 C 0.88107 0.32762 0.40386 0.0
C629 C 0.97701 0.45211 0.38913 0.0
C630 C 0.02654 0.4722 0.38831 0.0
C631 C 0.95689 0.48226 0.38935 0.0
C632 C 0.90469 0.46296 0.38884 0.0
C633 C 0.88241 0.47489 0.40485 0.0
C634 C 0.83313 0.4562 0.40454 0.0
C635 C 0.8058 0.42572 0.38823 0.0
C636 C 0.82773 0.41405 0.37214 0.0
C637 C 0.87699 0.43272 0.37235 0.0
H638 H 0.76766 0.41122 0.38805 0.0
H639 H 0.24512 0.59288 0.3798 0.0
H640 H 0.52335 0.18546 0.75448 0.0
H641 H 0.55248 0.13235 0.76564 0.0
H642 H 0.4143 0.00992 0.7537 0.0
H643 H 0.38456 0.06272 0.74265 0.0
H644 H 0.46437 0.99627 0.78769 0.0
H645 H 0.4872 0.04865 0.71442 0.0
H646 H 0.515 0.1104 0.68673 0.0
H647 H 0.6577 0.1734 0.71048 0.0
H648 H 0.63052 0.11223 0.73851 0.0
H649 H 0.48726 0.81323 0.73947 0.0
H650 H 0.47279 0.87527 0.75316 0.0
H651 H 0.62402 0.97389 0.75534 0.0
H652 H 0.63894 0.91207 0.74118 0.0
H653 H 0.58019 0.00901 0.73319 0.0
H654 H 0.55697 0.93934 0.80089 0.0
H655 H 0.52632 0.8748 0.82731 0.0
H656 H 0.38322 0.84131 0.81381 0.0
H657 H 0.4129 0.90515 0.78705 0.0
C658 C 0.49876 0.14729 0.75469 0.0
C659 C 0.45198 0.12818 0.74715 0.0
C660 C 0.51543 0.11706 0.76122 0.0
C661 C 0.48569 0.06734 0.76016 0.0
C662 C 0.43773 0.04827 0.75463 0.0
C663 C 0.42093 0.07851 0.74815 0.0
C664 C 0.50632 0.03565 0.76089 0.0
C665 C 0.48981 -0.00111 0.77589 0.0
C666 C 0.54022 0.03999 0.7457 0.0
C667 C 0.55677 0.07629 0.72868 0.0
C668 C 0.52445 0.07587 0.71381 0.0
C669 C 0.54008 0.11074 0.69805 0.0
C670 C 0.58805 0.14593 0.69689 0.0
C671 C 0.62053 0.14619 0.71143 0.0
C672 C 0.60504 0.11143 0.72725 0.0
C673 C 0.51757 0.84782 0.74319 0.0
C674 C 0.56424 0.85795 0.73889 0.0
C675 C 0.50922 0.88317 0.75126 0.0
C676 C 0.54734 0.92914 0.75541 0.0
C677 C 0.59411 0.93858 0.75228 0.0
C678 C 0.60253 0.90324 0.74412 0.0
C679 C 0.53779 0.96862 0.75982 0.0
C680 C 0.55608 0.00693 0.74557 0.0
C681 C 0.50537 0.96529 0.77563 0.0
C682 C 0.48722 0.92701 0.79186 0.0
C683 C 0.51893 0.91804 0.80344 0.0
C684 C 0.50173 0.88158 0.8185 0.0
C685 C 0.45285 0.85394 0.82222 0.0
C686 C 0.42108 0.86277 0.81092 0.0
C687 C 0.43809 0.89917 0.79582 0.0
H688 H 0.4396 0.82571 0.83388 0.0
H689 H 0.60008 0.17291 0.68468 0.0
H690 H 0.60504 0.61931 0.68345 0.0
H691 H 0.56616 0.54688 0.66213 0.0
H692 H 0.51571 0.61574 0.61938 0.0
H693 H 0.55671 0.6894 0.64032 0.0
H694 H 0.44403 0.53796 0.63689 0.0
H695 H 0.57306 0.56443 0.59693 0.0
H696 H 0.65616 0.59197 0.58682 0.0
H697 H 0.66015 0.4904 0.62919 0.0
H698 H 0.57743 0.46277 0.6399 0.0
H699 H 0.39968 0.27217 0.64494 0.0
H700 H 0.41891 0.34058 0.62198 0.0
H701 H 0.41058 0.41872 0.6756 0.0
H702 H 0.391 0.35095 0.69828 0.0
H703 H 0.49812 0.42045 0.62571 0.0
H704 H 0.38905 0.50131 0.66576 0.0
H705 H 0.30539 0.47351 0.67477 0.0
H706 H 0.25947 0.36087 0.62903 0.0
H707 H 0.34288 0.38839 0.61943 0.0
C708 C 0.58762 0.61965 0.66894 0.0
C709 C 0.58388 0.65962 0.66343 0.0
C710 C 0.56556 0.57839 0.65666 0.0
C711 C 0.53842 0.57606 0.63897 0.0
C712 C 0.53727 0.61715 0.63267 0.0
C713 C 0.56061 0.65906 0.64466 0.0
C714 C 0.50396 0.5283 0.63055 0.0
C715 C 0.45548 0.51214 0.63391 0.0
C716 C 0.51862 0.49503 0.62536 0.0
C717 C 0.56868 0.51128 0.61914 0.0
C718 C 0.59166 0.54805 0.60419 0.0
C719 C 0.63876 0.56371 0.59835 0.0
C720 C 0.66338 0.54288 0.60733 0.0
C721 C 0.64096 0.50638 0.62219 0.0
C722 C 0.59386 0.4906 0.62811 0.0
C723 C 0.40023 0.30337 0.65161 0.0
C724 C 0.39441 0.30659 0.67343 0.0
C725 C 0.41126 0.3424 0.63847 0.0
C726 C 0.41586 0.38474 0.64696 0.0
C727 C 0.40621 0.38623 0.66848 0.0
C728 C 0.39555 0.34758 0.68155 0.0
C729 C 0.43965 0.43034 0.63506 0.0
C730 C 0.48599 0.44604 0.62765 0.0
C731 C 0.42285 0.46319 0.63626 0.0
C732 C 0.37245 0.44717 0.64176 0.0
C733 C 0.36121 0.47101 0.65738 0.0
C734 C 0.31376 0.45515 0.66267 0.0
C735 C 0.27713 0.4155 0.65246 0.0
C736 C 0.28788 0.39159 0.63693 0.0
C737 C 0.33526 0.40728 0.63157 0.0
H738 H 0.24043 0.40326 0.65661 0.0
H739 H 0.69986 0.55505 0.60278 0.0
H740 H 0.10743 0.45712 0.98535 0.0
H741 H 0.04468 0.47067 0.97216 0.0
H742 H 0.93865 0.3358 0.99826 0.0
H743 H 0.00143 0.3217 1.01149 0.0
H744 H 0.92147 0.40288 0.95742 0.0
H745 H 0.94137 0.38086 0.03559 0.0
H746 H 0.99278 0.384 0.06498 0.0
H747 H 0.09859 0.52614 0.04673 0.0
H748 H 0.04804 0.52328 0.01702 0.0
H749 H 0.79105 0.47573 0.03488 0.0
H750 H 0.82403 0.4324 0.01625 0.0
H751 H 0.92374 0.56217 0.98426 0.0
H752 H 0.88898 0.60531 1.00208 0.0
H753 H 0.93867 0.49318 0.02347 0.0
H754 H 0.89928 0.51701 0.95105 0.0
H755 H 0.84077 0.50939 0.9243 0.0
H756 H 0.76299 0.3573 0.93341 0.0
H757 H 0.8207 0.36421 0.96054 0.0
C758 C 0.0707 0.42944 0.98756 0.0
C759 C 0.05901 0.38939 1.00021 0.0
C760 C 0.03489 0.43674 0.97958 0.0
C761 C 0.98727 0.40451 0.98453 0.0
C762 C 0.97532 0.36086 0.99421 0.0
C763 C 0.01124 0.35327 1.00207 0.0
C764 C 0.95592 0.42462 0.9877 0.0
C765 C 0.92469 0.42231 0.97185 0.0
C766 C 0.96049 0.44997 1.00652 0.0
C767 C 0.99128 0.4517 0.02409 0.0
C768 C 0.97577 0.4126 0.03782 0.0
C769 C 0.00472 0.41429 0.05449 0.0
C770 C 0.04894 0.4552 0.05771 0.0
C771 C 0.06441 0.4944 0.04419 0.0
C772 C 0.03568 0.49274 0.02742 0.0
C773 C 0.81932 0.49469 0.0235 0.0
C774 C 0.83847 0.54386 0.02014 0.0
C775 C 0.83736 0.46977 0.0126 0.0
C776 C 0.87533 0.49393 0.99853 0.0
C777 C 0.89324 0.54269 0.9945 0.0
C778 C 0.87413 0.5674 1.00495 0.0
C779 C 0.90398 0.47182 0.99325 0.0
C780 C 0.93511 0.47382 1.00893 0.0
C781 C 0.89805 0.44555 0.97456 0.0
C782 C 0.86387 0.44124 0.95805 0.0
C783 C 0.86936 0.48204 0.94756 0.0
C784 C 0.83645 0.47783 0.93228 0.0
C785 C 0.79806 0.43292 0.92724 0.0
C786 C 0.79268 0.39208 0.93738 0.0
C787 C 0.8255 0.39613 0.9527 0.0
H788 H 0.77262 0.42981 0.91543 0.0
H789 H 0.07106 0.45654 0.07075 0.0
H790 H 0.30858 0.96302 0.40567 0.0
H791 H 0.37422 -0.00281 0.43086 0.0
H792 H 0.47118 0.00895 0.38151 0.0
H793 H 0.40517 0.97166 0.35664 0.0
H794 H 0.42941 0.93455 0.42831 0.0
H795 H 0.561 0.12215 0.39523 0.0
H796 H 0.56272 0.19815 0.3883 0.0
H797 H 0.45748 0.16523 0.4364 0.0
H798 H 0.45517 0.08901 0.44364 0.0
H799 H 0.61466 0.01134 0.36383 0.0
H800 H 0.54588 0.98307 0.38717 0.0
H801 H 0.6394 0.03941 0.44068 0.0
H802 H 0.70753 0.06005 0.41789 0.0
H803 H 0.58286 0.08619 0.42518 0.0
H804 H 0.5384 0.93674 0.46272 0.0
H805 H 0.53739 0.85992 0.46551 0.0
H806 H 0.46876 0.81711 0.40518 0.0
H807 H 0.46869 0.8934 0.4023 0.0
C808 C 0.34418 0.9744 0.40004 0.0
C809 C 0.35194 0.96387 0.37934 0.0
C810 C 0.38162 0.99403 0.4145 0.0
C811 C 0.42729 0.00527 0.40803 0.0
C812 C 0.436 0.00069 0.38669 0.0
C813 C 0.39842 0.97943 0.37249 0.0
C814 C 0.46371 0.01055 0.42326 0.0
C815 C 0.46282 0.96801 0.42875 0.0
C816 C 0.50679 0.05426 0.42446 0.0
C817 C 0.50823 0.10008 0.42011 0.0
C818 C 0.53849 0.13127 0.40444 0.0
C819 C 0.53936 0.17427 0.40037 0.0
C820 C 0.51032 0.18658 0.41194 0.0
C821 C 0.48003 0.1557 0.42748 0.0
C822 C 0.47878 0.11251 0.43151 0.0
C823 C 0.62021 0.01411 0.38074 0.0
C824 C 0.66629 0.03846 0.38905 0.0
C825 C 0.58101 -0.00181 0.3941 0.0
C826 C 0.58761 0.00853 0.41578 0.0
C827 C 0.6334 0.02924 0.42427 0.0
C828 C 0.67241 0.04211 0.41105 0.0
C829 C 0.54872 0.0096 0.42732 0.0
C830 C 0.54926 0.05333 0.42691 0.0
C831 C 0.50533 0.96701 0.43048 0.0
C832 C 0.50386 0.92068 0.43228 0.0
C833 C 0.52331 0.91094 0.45005 0.0
C834 C 0.5227 0.86744 0.45169 0.0
C835 C 0.50315 0.83369 0.43549 0.0
C836 C 0.48391 0.84328 0.4177 0.0
C837 C 0.48381 0.88645 0.41615 0.0
H838 H 0.50274 0.80004 0.43676 0.0
H839 H 0.51123 0.22 0.40883 0.0
H840 H 0.27048 0.19035 0.75279 0.0
H841 H 0.22909 0.18642 0.7859 0.0
H842 H 0.35484 0.21664 0.82104 0.0
H843 H 0.39623 0.22092 0.78837 0.0
H844 H 0.27229 0.14171 0.83796 0.0
H845 H 0.33216 0.30324 0.81316 0.0
H846 H 0.34147 0.36494 0.78766 0.0
H847 H 0.19054 0.31014 0.78849 0.0
H848 H 0.18029 0.24765 0.81381 0.0
H849 H 0.25693 0.23027 0.93758 0.0
H850 H 0.27942 0.22056 0.90185 0.0
H851 H 0.14299 0.19289 0.87867 0.0
H852 H 0.12034 0.20289 0.91445 0.0
H853 H 0.21907 0.25835 0.85397 0.0
H854 H 0.16122 0.10225 0.88245 0.0
H855 H 0.15384 0.04253 0.90863 0.0
H856 H 0.30207 0.08785 0.90124 0.0
H857 H 0.31053 0.14838 0.87523 0.0
C858 C 0.28914 0.19595 0.7676 0.0
C859 C 0.33666 0.20612 0.76794 0.0
C860 C 0.26554 0.19384 0.78646 0.0
C861 C 0.28901 0.20135 0.80589 0.0
C862 C 0.33607 0.21063 0.80623 0.0
C863 C 0.35973 0.2133 0.78748 0.0
C864 C 0.26534 0.20038 0.82604 0.0
C865 C 0.26076 0.16728 0.8415 0.0
C866 C 0.24933 0.23304 0.83044 0.0
C867 C 0.25538 0.27037 0.81514 0.0
C868 C 0.3009 0.30402 0.80773 0.0
C869 C 0.30637 0.33921 0.79336 0.0
C870 C 0.2666 0.34135 0.7864 0.0
C871 C 0.2213 0.30836 0.79385 0.0
C872 C 0.21564 0.27306 0.80822 0.0
C873 C 0.23174 0.22212 0.92487 0.0
C874 C 0.18683 0.21718 0.92881 0.0
C875 C 0.2445 0.21631 0.9045 0.0
C876 C 0.2127 0.20563 0.88765 0.0
C877 C 0.16794 0.20095 0.89148 0.0
C878 C 0.15495 0.20631 0.91192 0.0
C879 C 0.22688 0.20025 0.86603 0.0
C880 C 0.22975 0.23218 0.85032 0.0
C881 C 0.24148 0.16659 0.8614 0.0
C882 C 0.23657 0.13013 0.877 0.0
C883 C 0.19234 0.09976 0.88652 0.0
C884 C 0.18795 0.06571 0.90131 0.0
C885 C 0.22748 0.06146 0.90663 0.0
C886 C 0.27148 0.09121 0.89712 0.0
C887 C 0.27608 0.12536 0.88233 0.0
H888 H 0.22401 0.03507 0.91808 0.0
H889 H 0.2709 0.36865 0.77528 0.0
H890 H 0.90583 0.2425 0.25588 0.0
H891 H 0.93546 0.27223 0.22052 0.0
H892 H -0.0055 0.17858 0.21662 0.0
H893 H 0.9679 0.15109 0.25245 0.0
H894 H 0.05583 0.2616 0.20219 0.0
H895 H 0.88716 0.15759 0.19214 0.0
H896 H 0.80198 0.12928 0.19794 0.0
H897 H 0.82099 0.26315 0.17543 0.0
H898 H 0.90644 0.29256 0.1698 0.0
H899 H 0.09859 0.26787 0.0931 0.0
H900 H 0.06189 0.23937 0.12766 0.0
H901 H 0.02446 0.35014 0.13008 0.0
H902 H 0.06099 0.37895 0.09547 0.0
H903 H 0.95202 0.26256 0.14505 0.0
H904 H 0.11862 0.36742 0.15597 0.0
H905 H 0.20422 0.39809 0.1501 0.0
H906 H 0.18849 0.26426 0.17076 0.0
H907 H 0.10257 0.23251 0.17645 0.0
C908 C 0.92567 0.22862 0.24765 0.0
C909 C 0.93442 0.19428 0.25716 0.0
C910 C 0.94201 0.24521 0.22724 0.0
C911 C 0.96666 0.22718 0.21569 0.0
C912 C 0.97541 0.19296 0.22513 0.0
C913 C 0.95966 0.17683 0.2456 0.0
C914 C 0.98456 0.24458 0.19399 0.0
C915 C 0.03282 0.26109 0.18967 0.0
C916 C 0.95506 0.24559 0.17772 0.0
C917 C 0.90346 0.2276 0.18088 0.0
C918 C 0.87331 0.18118 0.18861 0.0
C919 C 0.82493 0.1649 0.19184 0.0
C920 C 0.80613 0.19448 0.18716 0.0
C921 C 0.83561 0.2403 0.1791 0.0
C922 C 0.88403 0.25681 0.17592 0.0
C923 C 0.08212 0.28591 0.10084 0.0
C924 C 0.08309 0.32594 0.09155 0.0
C925 C 0.06128 0.26965 0.12064 0.0
C926 C 0.04095 0.293 0.13154 0.0
C927 C 0.04003 0.33168 0.12195 0.0
C928 C 0.06111 0.34817 0.10219 0.0
C929 C 0.02272 0.27836 0.15334 0.0
C930 C 0.97471 0.26279 0.15765 0.0
C931 C 0.05233 0.27834 0.16967 0.0
C932 C 0.10407 0.29743 0.16645 0.0
C933 C 0.13333 0.3444 0.15911 0.0
C934 C 0.18192 0.362 0.15584 0.0
C935 C 0.20176 0.3331 0.16 0.0
C936 C 0.17306 0.28658 0.16751 0.0
C937 C 0.12442 0.26877 0.17078 0.0
H938 H 0.23939 0.34679 0.15746 0.0
H939 H 0.76869 0.18184 0.18969 0.0
H940 H 0.80265 0.92418 0.58717 0.0
H941 H 0.81863 0.96239 0.5524 0.0
H942 H 0.76364 0.05237 0.57407 0.0
H943 H 0.74661 0.01349 0.60851 0.0
H944 H 0.72382 0.01248 0.53876 0.0
H945 H 0.88546 0.09498 0.56374 0.0
H946 H 0.95884 0.10141 0.5784 0.0
H947 H 0.96904 0.02413 0.52535 0.0
H948 H 0.89533 0.01669 0.51051 0.0
H949 H 0.77676 0.16559 0.4532 0.0
H950 H 0.77835 0.13446 0.48791 0.0
H951 H 0.83351 0.04923 0.46071 0.0
H952 H 0.8334 0.08173 0.4257 0.0
H953 H 0.87435 0.08366 0.49789 0.0
H954 H 0.70695 0.98769 0.47729 0.0
H955 H 0.62906 0.97257 0.46422 0.0
H956 H 0.63037 0.07348 0.50888 0.0
H957 H 0.70754 0.08769 0.52275 0.0
C958 C 0.79469 0.95262 0.58454 0.0
C959 C 0.77303 0.96564 0.60043 0.0
C960 C 0.80399 0.97457 0.56471 0.0
C961 C 0.79257 0.01049 0.5606 0.0
C962 C 0.77258 0.02463 0.57679 0.0
C963 C 0.76276 0.00235 0.59645 0.0
C964 C 0.79744 0.0307 0.53908 0.0
C965 C 0.75708 0.02874 0.53004 0.0
C966 C 0.84021 0.05027 0.52725 0.0
C967 C 0.8846 0.05487 0.53612 0.0
C968 C 0.90313 0.07903 0.55529 0.0
C969 C 0.94483 0.08292 0.56361 0.0
C970 C 0.96851 0.06308 0.55284 0.0
C971 C 0.95062 0.03943 0.53369 0.0
C972 C 0.90891 0.0354 0.52531 0.0
C973 C 0.78978 0.14061 0.45458 0.0
C974 C 0.80474 0.1259 0.43667 0.0
C975 C 0.79021 0.12245 0.47446 0.0
C976 C 0.80464 0.08832 0.47689 0.0
C977 C 0.8218 0.0752 0.4592 0.0
C978 C 0.82195 0.09394 0.43922 0.0
C979 C 0.80094 0.06617 0.49789 0.0
C980 C 0.8413 0.06751 0.50674 0.0
C981 C 0.75816 0.04579 0.50967 0.0
C982 C 0.71306 0.03912 0.50083 0.0
C983 C 0.69066 0.00678 0.48422 0.0
C984 C 0.64646 -0.00197 0.47683 0.0
C985 C 0.62488 0.02231 0.48561 0.0
C986 C 0.64714 0.05479 0.50206 0.0
C987 C 0.69089 0.06287 0.50982 0.0
H988 H 0.59095 0.016 0.47967 0.0
H989 H 0.00078 0.06613 0.55931 0.0
H990 H 0.58814 0.73638 0.78013 0.0
H991 H 0.62202 0.73387 0.81391 0.0
H992 H 0.75095 0.75883 0.78302 0.0
H993 H 0.71721 0.76181 0.74867 0.0
H994 H 0.71076 0.68229 0.81633 0.0
H995 H 0.75914 0.84851 0.80564 0.0
H996 H 0.74497 0.91454 0.79629 0.0
H997 H 0.64435 0.87524 0.84698 0.0
H998 H 0.65742 0.80852 0.85644 0.0
H999 H 0.83516 0.73302 0.91481 0.0
H1000 H 0.8134 0.73608 0.87814 0.0
H1001 H 0.6899 0.74203 0.89924 0.0
H1002 H 0.71221 0.74066 0.93584 0.0
H1003 H 0.73501 0.80611 0.86914 0.0
H1004 H 0.68175 0.64063 0.87989 0.0
H1005 H 0.68894 0.57047 0.88956 0.0
H1006 H 0.78917 0.60175 0.83939 0.0
H1007 H 0.78385 0.67303 0.82981 0.0
C1008 C 0.6237 0.74123 0.78034 0.0
C1009 C 0.65009 0.74959 0.76161 0.0
C1010 C 0.64296 0.73975 0.79975 0.0
C1011 C 0.689 0.74638 0.80097 0.0
C1012 C 0.71528 0.7536 0.78235 0.0
C1013 C 0.69608 0.75555 0.76279 0.0
C1014 C 0.70956 0.74746 0.82197 0.0
C1015 C 0.71719 0.70987 0.82779 0.0
C1016 C 0.71625 0.78261 0.83704 0.0
C1017 C 0.70905 0.82333 0.83166 0.0
C1018 C 0.73379 0.85378 0.81471 0.0
C1019 C 0.72598 0.89135 0.8094 0.0
C1020 C 0.69372 0.89903 0.82101 0.0
C1021 C 0.66933 0.86925 0.838 0.0
C1022 C 0.67698 0.83159 0.84336 0.0
C1023 C 0.80363 0.73547 0.91165 0.0
C1024 C 0.77549 0.73665 0.92832 0.0
C1025 C 0.79097 0.7367 0.89067 0.0
C1026 C 0.74982 0.73894 0.88592 0.0
C1027 C 0.7218 0.74029 0.90251 0.0
C1028 C 0.73442 0.7391 0.92345 0.0
C1029 C 0.73617 0.74075 0.86371 0.0
C1030 C 0.72951 0.77885 0.85767 0.0
C1031 C 0.72969 0.70558 0.84859 0.0
C1032 C 0.73291 0.66264 0.85431 0.0
C1033 C 0.70577 0.63292 0.87107 0.0
C1034 C 0.70945 0.59291 0.87653 0.0
C1035 C 0.73948 0.58171 0.86512 0.0
C1036 C 0.76597 0.61053 0.84824 0.0
C1037 C 0.76274 0.65083 0.84282 0.0
H1038 H 0.74218 0.55067 0.86935 0.0
H1039 H 0.68767 0.92809 0.81685 0.0
H1040 H 0.11395 0.87073 0.24092 0.0
H1041 H 0.07962 0.84177 0.20595 0.0
H1042 H 0.96603 0.71368 0.23404 0.0
H1043 H 0.0009 0.74202 0.26891 0.0
H1044 H -0.00496 0.69093 0.20007 0.0
H1045 H 0.95189 0.80944 0.21749 0.0
H1046 H 0.96618 0.8892 0.22795 0.0
H1047 H 0.05252 0.9508 0.17285 0.0
H1048 H 0.03924 0.87143 0.16221 0.0
H1049 H 0.81366 0.60829 0.12513 0.0
H1050 H 0.865 0.64257 0.15553 0.0
H1051 H 0.97066 0.75525 0.11666 0.0
H1052 H 0.9186 0.72145 0.08583 0.0
H1053 H 0.95542 0.78929 0.15333 0.0
H1054 H 0.98953 0.66507 0.13459 0.0
H1055 H 0.96841 0.58289 0.12458 0.0
H1056 H 0.89236 0.52977 0.18282 0.0
H1057 H 0.91297 0.61159 0.19316 0.0
C1058 C 0.0815 0.83653 0.2396 0.0
C1059 C 0.05989 0.80872 0.25762 0.0
C1060 C 0.06193 0.82 0.21963 0.0
C1061 C 0.01988 0.77579 0.21736 0.0
C1062 C -0.00146 0.74784 0.23536 0.0
C1063 C 0.01841 0.76408 0.25528 0.0
C1064 C -0.00234 0.75858 0.19634 0.0
C1065 C 0.9863 0.71243 0.18989 0.0
C1066 C 0.987 0.7869 0.18282 0.0
C1067 C -0.00495 0.83462 0.1892 0.0
C1068 C 0.97425 0.84007 0.2077 0.0
C1069 C 0.98211 0.88518 0.21364 0.0
C1070 C 0.01037 0.92507 0.20111 0.0
C1071 C 0.03073 0.91989 0.18257 0.0
C1072 C 0.02303 0.87485 0.17657 0.0
C1073 C 0.84784 0.64029 0.12287 0.0
C1074 C 0.86198 0.66207 0.10294 0.0
C1075 C 0.87736 0.65967 0.14033 0.0
C1076 C 0.92205 0.70095 0.13831 0.0
C1077 C 0.9364 0.72312 0.11851 0.0
C1078 C 0.90665 0.70375 0.10093 0.0
C1079 C 0.95243 0.72156 0.15723 0.0
C1080 C 0.9652 0.76827 0.16331 0.0
C1081 C 0.96394 0.69358 0.17052 0.0
C1082 C 0.95264 0.64446 0.1646 0.0
C1083 C 0.96823 0.63584 0.14524 0.0
C1084 C 0.95639 0.58932 0.13952 0.0
C1085 C 0.92905 0.55111 0.15306 0.0
C1086 C 0.91367 0.55939 0.17238 0.0
C1087 C 0.92556 0.60585 0.17821 0.0
H1088 H 0.91982 0.51511 0.14859 0.0
H1089 H 0.0164 0.95996 0.20573 0.0
H1090 H 0.26039 0.08721 0.58507 0.0
H1091 H 0.2507 0.05833 0.54865 0.0
H1092 H 0.25686 0.93456 0.56982 0.0
H1093 H 0.26718 0.9635 0.60617 0.0
H1094 H 0.31378 0.97682 0.53572 0.0
H1095 H 0.15198 0.92521 0.55619 0.0
H1096 H 0.08661 0.93613 0.56965 0.0
H1097 H 0.1082 0.03289 0.51891 0.0
H1098 H 0.17418 0.02306 0.50531 0.0
H1099 H 0.24373 0.83395 0.44598 0.0
H1100 H 0.24834 0.86604 0.4812 0.0
H1101 H 0.2169 0.97127 0.45577 0.0
H1102 H 0.20951 0.93703 0.42039 0.0
H1103 H 0.17465 0.94356 0.49139 0.0
H1104 H 0.34337 0.00898 0.47453 0.0
H1105 H 0.41654 0.00908 0.4634 0.0
H1106 H 0.38521 0.89414 0.50615 0.0
H1107 H 0.31245 0.89414 0.51784 0.0
C1108 C 0.25976 0.05389 0.58194 0.0
C1109 C 0.26434 0.02752 0.59852 0.0
C1110 C 0.25386 0.03726 0.56116 0.0
C1111 C 0.25256 0.99404 0.55655 0.0
C1112 C 0.2575 0.96787 0.57304 0.0
C1113 C 0.26306 0.98428 0.59381 0.0
C1114 C 0.2473 0.97652 0.53451 0.0
C1115 C 0.2832 0.96928 0.52608 0.0
C1116 C 0.20807 0.96794 0.52171 0.0
C1117 C 0.16836 0.97379 0.52987 0.0
C1118 C 0.14307 0.94914 0.54801 0.0
C1119 C 0.10585 0.95507 0.55564 0.0
C1120 C 0.09335 0.98529 0.54518 0.0
C1121 C 0.11797 0.00956 0.52702 0.0
C1122 C 0.15526 0.00379 0.51934 0.0
C1123 C 0.23721 0.86358 0.44794 0.0
C1124 C 0.22623 0.88304 0.4305 0.0
C1125 C 0.24061 0.88244 0.46806 0.0
C1126 C 0.23477 0.92233 0.47114 0.0
C1127 C 0.22207 0.94081 0.45381 0.0
C1128 C 0.21754 0.9211 0.43363 0.0
C1129 C 0.24127 0.94387 0.49253 0.0
C1130 C 0.20559 0.95176 0.5009 0.0
C1131 C 0.28116 0.954 0.50521 0.0
C1132 C 0.32252 0.95134 0.49696 0.0
C1133 C 0.35186 0.98337 0.48135 0.0
C1134 C 0.3933 0.98355 0.475 0.0
C1135 C 0.40529 0.95138 0.4839 0.0
C1136 C 0.3759 0.919 0.49923 0.0
C1137 C 0.33472 0.91902 0.5058 0.0
H1138 H 0.43738 0.95163 0.47895 0.0
H1139 H 0.06452 0.98982 0.5511 0.0
loop_
_geom_bond_atom_site_label_1
_geom_bond_atom_site_label_2
_geom_bond_distance
_geom_bond_site_symmetry_2
_ccdc_geom_bond_type
Eu0 C9 2.828 . S
Eu0 O11 2.392 . S
Eu0 O13 2.418 . S
Eu0 O18 2.373 . S
Eu0 O21 2.488 . S
Eu0 O22 2.471 . S
Eu0 O23 2.349 . S
Eu1 O10 2.373 1_554 S
Eu1 O14 2.488 1_554 S
Eu1 O15 2.471 1_554 S
Eu1 O16 2.349 . S
Eu1 O19 2.392 . S
Eu1 O20 2.418 . S
Eu1 C30 2.828 1_554 S
C2 O20 1.244 . S
C2 O23 1.265 . S
C3 C4 1.379 . S
C3 C7 1.373 . S
C3 C9 1.505 . S
C4 C3 1.379 . S
C4 C6 1.369 . S
C4 H32 0.930 . S
C5 C7 1.383 . S
C5 C8 1.382 . S
C5 H33 0.930 . S
C6 C4 1.369 . S
C6 C8 1.392 . S
C6 H34 0.930 . S
C7 C3 1.373 . S
C7 C5 1.383 . S
C7 H35 0.931 . S
C8 C5 1.382 . S
C8 C6 1.392 . S
C9 Eu0 2.828 . S
C9 C3 1.505 . S
C9 O21 1.249 . S
C9 O22 1.244 . S
O10 Eu1 2.373 1_556 S
O10 C12 1.258 . S
O11 Eu0 2.392 . S
O11 C12 1.242 1_554 S
C12 O10 1.258 . S
C12 O11 1.242 1_556 S
O13 Eu0 2.418 . S
O13 C17 1.244 . S
O14 Eu1 2.488 1_556 S
O14 C30 1.249 . S
O15 Eu1 2.471 1_556 S
O15 C30 1.244 . S
O16 Eu1 2.349 . S
O16 C17 1.265 . S
C17 O13 1.244 . S
C17 O16 1.265 . S
O18 Eu0 2.373 . S
O18 C31 1.258 . S
O19 Eu1 2.392 . S
O19 C31 1.242 . S
O20 Eu1 2.418 . S
O20 C2 1.244 . S
O21 Eu0 2.488 . S
O21 C9 1.249 . S
O22 Eu0 2.471 . S
O22 C9 1.244 . S
O23 Eu0 2.349 . S
O23 C2 1.265 . S
C24 C25 1.379 . S
C24 C28 1.373 . S
C24 C30 1.505 . S
C25 C24 1.379 . S
C25 C27 1.369 . S
C25 H36 0.930 . S
C26 C28 1.383 . S
C26 C29 1.382 . S
C26 H37 0.930 . S
C27 C25 1.369 . S
C27 C29 1.392 . S
C27 H38 0.930 . S
C28 C24 1.373 . S
C28 C26 1.383 . S
C28 H39 0.931 . S
C29 C26 1.382 . S
C29 C27 1.392 . S
C30 Eu1 2.828 1_556 S
C30 O14 1.249 . S
C30 O15 1.244 . S
C30 C24 1.505 . S
C31 O18 1.258 . S
C31 O19 1.242 . S
H32 C4 0.930 . S
H33 C5 0.930 . S
H34 C6 0.930 . S
H35 C7 0.931 . S
H36 C25 0.930 . S
H37 C26 0.930 . S
H38 C27 0.930 . S
H39 C28 0.931 . S
Eu40 C49 2.828 . S
Eu40 O51 2.392 . S
Eu40 O53 2.418 . S
Eu40 O58 2.373 . S
Eu40 O61 2.488 . S
Eu40 O62 2.471 . S
Eu40 O63 2.349 . S
Eu41 O50 2.373 . S
Eu41 O54 2.488 . S
Eu41 O55 2.471 . S
Eu41 O56 2.349 . S
Eu41 O59 2.392 . S
Eu41 O60 2.418 . S
Eu41 C70 2.828 . S
C42 O60 1.244 . S
C42 O63 1.265 . S
C43 C44 1.379 . S
C43 C47 1.373 . S
C43 C49 1.505 . S
C44 C43 1.379 . S
C44 C46 1.369 . S
C44 H72 0.930 . S
C45 C47 1.383 . S
C45 C48 1.382 . S
C45 H73 0.930 . S
C46 C44 1.369 . S
C46 C48 1.392 . S
C46 H74 0.930 . S
C47 C43 1.373 . S
C47 C45 1.383 . S
C47 H75 0.931 . S
C48 C45 1.382 . S
C48 C46 1.392 . S
C49 Eu40 2.828 . S
C49 C43 1.505 . S
C49 O61 1.249 . S
C49 O62 1.244 . S
O50 Eu41 2.373 . S
O50 C52 1.258 . S
O51 Eu40 2.392 . S
O51 C52 1.242 . S
C52 O50 1.258 . S
C52 O51 1.242 . S
O53 Eu40 2.418 . S
O53 C57 1.244 . S
O54 Eu41 2.488 . S
O54 C70 1.249 . S
O55 Eu41 2.471 . S
O55 C70 1.244 . S
O56 Eu41 2.349 . S
O56 C57 1.265 . S
C57 O53 1.244 . S
C57 O56 1.265 . S
O58 Eu40 2.373 . S
O58 C71 1.258 . S
O59 Eu41 2.392 . S
O59 C71 1.242 . S
O60 Eu41 2.418 . S
O60 C42 1.244 . S
O61 Eu40 2.488 . S
O61 C49 1.249 . S
O62 Eu40 2.471 . S
O62 C49 1.244 . S
O63 Eu40 2.349 . S
O63 C42 1.265 . S
C64 C65 1.379 . S
C64 C68 1.373 . S
C64 C70 1.505 . S
C65 C64 1.379 . S
C65 C67 1.369 . S
C65 H76 0.930 . S
C66 C68 1.383 . S
C66 C69 1.382 . S
C66 H77 0.930 . S
C67 C65 1.369 . S
C67 C69 1.392 . S
C67 H78 0.930 . S
C68 C64 1.373 . S
C68 C66 1.383 . S
C68 H79 0.931 . S
C69 C66 1.382 . S
C69 C67 1.392 . S
C70 Eu41 2.828 . S
C70 O54 1.249 . S
C70 O55 1.244 . S
C70 C64 1.505 . S
C71 O58 1.258 . S
C71 O59 1.242 . S
H72 C44 0.930 . S
H73 C45 0.930 . S
H74 C46 0.930 . S
H75 C47 0.931 . S
H76 C65 0.930 . S
H77 C66 0.930 . S
H78 C67 0.930 . S
H79 C68 0.931 . S
Eu80 C89 2.828 . S
Eu80 O91 2.392 . S
Eu80 O93 2.418 . S
Eu80 O98 2.373 . S
Eu80 O101 2.488 . S
Eu80 O102 2.471 . S
Eu80 O103 2.349 . S
Eu81 O90 2.373 . S
Eu81 O94 2.488 . S
Eu81 O95 2.471 . S
Eu81 O96 2.349 . S
Eu81 O99 2.392 . S
Eu81 O100 2.418 . S
Eu81 C110 2.828 . S
C82 O100 1.244 . S
C82 O103 1.265 . S
C83 C84 1.379 . S
C83 C87 1.373 . S
C83 C89 1.505 . S
C84 C83 1.379 . S
C84 C86 1.369 . S
C84 H112 0.930 . S
C85 C87 1.383 . S
C85 C88 1.382 . S
C85 H113 0.930 . S
C86 C84 1.369 . S
C86 C88 1.392 . S
C86 H114 0.930 . S
C87 C83 1.373 . S
C87 C85 1.383 . S
C87 H115 0.931 . S
C88 C85 1.382 . S
C88 C86 1.392 . S
C89 Eu80 2.828 . S
C89 C83 1.505 . S
C89 O101 1.249 . S
C89 O102 1.244 . S
O90 Eu81 2.373 . S
O90 C92 1.258 . S
O91 Eu80 2.392 . S
O91 C92 1.242 . S
C92 O90 1.258 . S
C92 O91 1.242 . S
O93 Eu80 2.418 . S
O93 C97 1.244 . S
O94 Eu81 2.488 . S
O94 C110 1.249 . S
O95 Eu81 2.471 . S
O95 C110 1.244 . S
O96 Eu81 2.349 . S
O96 C97 1.265 . S
C97 O93 1.244 . S
C97 O96 1.265 . S
O98 Eu80 2.373 . S
O98 C111 1.258 . S
O99 Eu81 2.392 . S
O99 C111 1.242 . S
O100 Eu81 2.418 . S
O100 C82 1.244 . S
O101 Eu80 2.488 . S
O101 C89 1.249 . S
O102 Eu80 2.471 . S
O102 C89 1.244 . S
O103 Eu80 2.349 . S
O103 C82 1.265 . S
C104 C105 1.379 . S
C104 C108 1.373 . S
C104 C110 1.505 . S
C105 C104 1.379 . S
C105 C107 1.369 . S
C105 H116 0.930 . S
C106 C108 1.383 . S
C106 C109 1.382 . S
C106 H117 0.930 . S
C107 C105 1.369 . S
C107 C109 1.392 . S
C107 H118 0.930 . S
C108 C104 1.373 . S
C108 C106 1.383 . S
C108 H119 0.931 . S
C109 C106 1.382 . S
C109 C107 1.392 . S
C110 Eu81 2.828 . S
C110 O94 1.249 . S
C110 O95 1.244 . S
C110 C104 1.505 . S
C111 O98 1.258 . S
C111 O99 1.242 . S
H112 C84 0.930 . S
H113 C85 0.930 . S
H114 C86 0.930 . S
H115 C87 0.931 . S
H116 C105 0.930 . S
H117 C106 0.930 . S
H118 C107 0.930 . S
H119 C108 0.931 . S
Eu120 C129 2.828 . S
Eu120 O131 2.392 . S
Eu120 O133 2.418 . S
Eu120 O138 2.373 . S
Eu120 O141 2.488 . S
Eu120 O142 2.471 . S
Eu120 O143 2.349 . S
Eu121 O130 2.373 1_554 S
Eu121 O134 2.488 1_554 S
Eu121 O135 2.471 1_554 S
Eu121 O136 2.349 . S
Eu121 O139 2.392 . S
Eu121 O140 2.418 . S
Eu121 C150 2.828 1_554 S
C122 O140 1.244 . S
C122 O143 1.265 . S
C123 C124 1.379 . S
C123 C127 1.373 . S
C123 C129 1.505 . S
C124 C123 1.379 . S
C124 C126 1.369 . S
C124 H152 0.930 . S
C125 C127 1.383 . S
C125 C128 1.382 . S
C125 H153 0.930 . S
C126 C124 1.369 . S
C126 C128 1.392 . S
C126 H154 0.930 . S
C127 C123 1.373 . S
C127 C125 1.383 . S
C127 H155 0.931 . S
C128 C125 1.382 . S
C128 C126 1.392 . S
C129 Eu120 2.828 . S
C129 C123 1.505 . S
C129 O141 1.249 . S
C129 O142 1.244 . S
O130 Eu121 2.373 1_556 S
O130 C132 1.258 . S
O131 Eu120 2.392 . S
O131 C132 1.242 1_554 S
C132 O130 1.258 . S
C132 O131 1.242 1_556 S
O133 Eu120 2.418 . S
O133 C137 1.244 . S
O134 Eu121 2.488 1_556 S
O134 C150 1.249 . S
O135 Eu121 2.471 1_556 S
O135 C150 1.244 . S
O136 Eu121 2.349 . S
O136 C137 1.265 . S
C137 O133 1.244 . S
C137 O136 1.265 . S
O138 Eu120 2.373 . S
O138 C151 1.258 . S
O139 Eu121 2.392 . S
O139 C151 1.242 . S
O140 Eu121 2.418 . S
O140 C122 1.244 . S
O141 Eu120 2.488 . S
O141 C129 1.249 . S
O142 Eu120 2.471 . S
O142 C129 1.244 . S
O143 Eu120 2.349 . S
O143 C122 1.265 . S
C144 C145 1.379 . S
C144 C148 1.373 . S
C144 C150 1.505 . S
C145 C144 1.379 . S
C145 C147 1.369 . S
C145 H156 0.930 . S
C146 C148 1.383 . S
C146 C149 1.382 . S
C146 H157 0.930 . S
C147 C145 1.369 . S
C147 C149 1.392 . S
C147 H158 0.930 . S
C148 C144 1.373 . S
C148 C146 1.383 . S
C148 H159 0.931 . S
C149 C146 1.382 . S
C149 C147 1.392 . S
C150 Eu121 2.828 1_556 S
C150 O134 1.249 . S
C150 O135 1.244 . S
C150 C144 1.505 . S
C151 O138 1.258 . S
C151 O139 1.242 . S
H152 C124 0.930 . S
H153 C125 0.930 . S
H154 C126 0.930 . S
H155 C127 0.931 . S
H156 C145 0.930 . S
H157 C146 0.930 . S
H158 C147 0.930 . S
H159 C148 0.931 . S
Eu160 C169 2.828 . S
Eu160 O171 2.392 . S
Eu160 O173 2.418 . S
Eu160 O178 2.373 . S
Eu160 O181 2.488 . S
Eu160 O182 2.471 . S
Eu160 O183 2.349 . S
Eu161 O170 2.373 . S
Eu161 O174 2.488 . S
Eu161 O175 2.471 . S
Eu161 O176 2.349 . S
Eu161 O179 2.392 . S
Eu161 O180 2.418 . S
Eu161 C190 2.828 . S
C162 O180 1.244 . S
C162 O183 1.265 . S
C163 C164 1.379 . S
C163 C167 1.373 . S
C163 C169 1.505 . S
C164 C163 1.379 . S
C164 C166 1.369 . S
C164 H192 0.930 . S
C165 C167 1.383 . S
C165 C168 1.382 . S
C165 H193 0.930 . S
C166 C164 1.369 . S
C166 C168 1.392 . S
C166 H194 0.930 . S
C167 C163 1.373 . S
C167 C165 1.383 . S
C167 H195 0.931 . S
C168 C165 1.382 . S
C168 C166 1.392 . S
C169 Eu160 2.828 . S
C169 C163 1.505 . S
C169 O181 1.249 . S
C169 O182 1.244 . S
O170 Eu161 2.373 . S
O170 C172 1.258 . S
O171 Eu160 2.392 . S
O171 C172 1.242 . S
C172 O170 1.258 . S
C172 O171 1.242 . S
O173 Eu160 2.418 . S
O173 C177 1.244 . S
O174 Eu161 2.488 . S
O174 C190 1.249 . S
O175 Eu161 2.471 . S
O175 C190 1.244 . S
O176 Eu161 2.349 . S
O176 C177 1.265 . S
C177 O173 1.244 . S
C177 O176 1.265 . S
O178 Eu160 2.373 . S
O178 C191 1.258 . S
O179 Eu161 2.392 . S
O179 C191 1.242 . S
O180 Eu161 2.418 . S
O180 C162 1.244 . S
O181 Eu160 2.488 . S
O181 C169 1.249 . S
O182 Eu160 2.471 . S
O182 C169 1.244 . S
O183 Eu160 2.349 . S
O183 C162 1.265 . S
C184 C185 1.379 . S
C184 C188 1.373 . S
C184 C190 1.505 . S
C185 C184 1.379 . S
C185 C187 1.369 . S
C185 H196 0.930 . S
C186 C188 1.383 . S
C186 C189 1.382 . S
C186 H197 0.930 . S
C187 C185 1.369 . S
C187 C189 1.392 . S
C187 H198 0.930 . S
C188 C184 1.373 . S
C188 C186 1.383 . S
C188 H199 0.931 . S
C189 C186 1.382 . S
C189 C187 1.392 . S
C190 Eu161 2.828 . S
C190 O174 1.249 . S
C190 O175 1.244 . S
C190 C184 1.505 . S
C191 O178 1.258 . S
C191 O179 1.242 . S
H192 C164 0.930 . S
H193 C165 0.930 . S
H194 C166 0.930 . S
H195 C167 0.931 . S
H196 C185 0.930 . S
H197 C186 0.930 . S
H198 C187 0.930 . S
H199 C188 0.931 . S
Eu200 C209 2.828 . S
Eu200 O211 2.392 . S
Eu200 O213 2.418 . S
Eu200 O218 2.373 . S
Eu200 O221 2.488 . S
Eu200 O222 2.471 . S
Eu200 O223 2.349 . S
Eu201 O210 2.373 . S
Eu201 O214 2.488 . S
Eu201 O215 2.471 . S
Eu201 O216 2.349 . S
Eu201 O219 2.392 . S
Eu201 O220 2.418 . S
Eu201 C230 2.828 . S
C202 O220 1.244 . S
C202 O223 1.265 . S
C203 C204 1.379 . S
C203 C207 1.373 . S
C203 C209 1.505 . S
C204 C203 1.379 . S
C204 C206 1.369 . S
C204 H232 0.930 . S
C205 C207 1.383 . S
C205 C208 1.382 . S
C205 H233 0.930 . S
C206 C204 1.369 . S
C206 C208 1.392 . S
C206 H234 0.930 . S
C207 C203 1.373 . S
C207 C205 1.383 . S
C207 H235 0.931 . S
C208 C205 1.382 . S
C208 C206 1.392 . S
C209 Eu200 2.828 . S
C209 C203 1.505 . S
C209 O221 1.249 . S
C209 O222 1.244 . S
O210 Eu201 2.373 . S
O210 C212 1.258 . S
O211 Eu200 2.392 . S
O211 C212 1.242 . S
C212 O210 1.258 . S
C212 O211 1.242 . S
O213 Eu200 2.418 . S
O213 C217 1.244 . S
O214 Eu201 2.488 . S
O214 C230 1.249 . S
O215 Eu201 2.471 . S
O215 C230 1.244 . S
O216 Eu201 2.349 . S
O216 C217 1.265 . S
C217 O213 1.244 . S
C217 O216 1.265 . S
O218 Eu200 2.373 . S
O218 C231 1.258 . S
O219 Eu201 2.392 . S
O219 C231 1.242 . S
O220 Eu201 2.418 . S
O220 C202 1.244 . S
O221 Eu200 2.488 . S
O221 C209 1.249 . S
O222 Eu200 2.471 . S
O222 C209 1.244 . S
O223 Eu200 2.349 . S
O223 C202 1.265 . S
C224 C225 1.379 . S
C224 C228 1.373 . S
C224 C230 1.505 . S
C225 C224 1.379 . S
C225 C227 1.369 . S
C225 H236 0.930 . S
C226 C228 1.383 . S
C226 C229 1.382 . S
C226 H237 0.930 . S
C227 C225 1.369 . S
C227 C229 1.392 . S
C227 H238 0.930 . S
C228 C224 1.373 . S
C228 C226 1.383 . S
C228 H239 0.931 . S
C229 C226 1.382 . S
C229 C227 1.392 . S
C230 Eu201 2.828 . S
C230 O214 1.249 . S
C230 O215 1.244 . S
C230 C224 1.505 . S
C231 O218 1.258 . S
C231 O219 1.242 . S
H232 C204 0.930 . S
H233 C205 0.930 . S
H234 C206 0.930 . S
H235 C207 0.931 . S
H236 C225 0.930 . S
H237 C226 0.930 . S
H238 C227 0.930 . S
H239 C228 0.931 . S
H240 C258 0.951 . S
H241 C260 0.951 . S
H242 C262 0.950 . S
H243 C263 0.950 . S
H244 C265 0.950 . S
H245 C268 0.950 . S
H246 C269 0.950 . S
H247 C271 0.950 . S
H248 C272 0.950 . S
H249 C273 0.951 . S
H250 C275 0.951 . S
H251 C277 0.950 . S
H252 C278 0.950 . S
H253 C280 0.950 . S
H254 C283 0.950 . S
H255 C284 0.950 . S
H256 C286 0.950 . S
H257 C287 0.950 . S
C258 H240 0.951 . S
C258 C259 1.366 . S
C258 C260 1.388 . S
C259 C258 1.366 . S
C259 C263 1.385 . S
C260 H241 0.951 . S
C260 C258 1.388 . S
C260 C261 1.366 . S
C261 C260 1.366 . S
C261 C262 1.414 . S
C261 C264 1.499 . S
C262 H242 0.950 . S
C262 C261 1.414 . S
C262 C263 1.374 . S
C263 H243 0.950 . S
C263 C259 1.385 . S
C263 C262 1.374 . S
C264 C261 1.499 . S
C264 C265 1.373 . S
C264 C266 1.389 . S
C265 H244 0.950 . S
C265 C264 1.373 . S
C265 C281 1.377 . S
C266 C264 1.389 . S
C266 C267 1.524 . S
C266 C280 1.377 . S
C267 C266 1.524 . S
C267 C268 1.397 . S
C267 C272 1.363 . S
C268 H245 0.950 . S
C268 C267 1.397 . S
C268 C269 1.334 . S
C269 H246 0.950 . S
C269 C268 1.334 . S
C269 C270 1.287 . S
C270 C269 1.287 . S
C270 C271 1.524 . S
C270 H289 0.913 . S
C271 H247 0.950 . S
C271 C270 1.524 . S
C271 C272 1.415 . S
C272 H248 0.950 . S
C272 C267 1.363 . S
C272 C271 1.415 . S
C273 H249 0.951 . S
C273 C274 1.366 . S
C273 C275 1.388 . S
C274 C273 1.366 . S
C274 C278 1.385 . S
C275 H250 0.951 . S
C275 C273 1.388 . S
C275 C276 1.366 . S
C276 C275 1.366 . S
C276 C277 1.414 . S
C276 C279 1.499 . S
C277 H251 0.950 . S
C277 C276 1.414 . S
C277 C278 1.374 . S
C278 H252 0.950 . S
C278 C274 1.385 . S
C278 C277 1.374 . S
C279 C276 1.499 . S
C279 C280 1.373 . S
C279 C281 1.389 . S
C280 H253 0.950 . S
C280 C266 1.377 . S
C280 C279 1.373 . S
C281 C265 1.377 . S
C281 C279 1.389 . S
C281 C282 1.524 . S
C282 C281 1.524 . S
C282 C283 1.397 . S
C282 C287 1.363 . S
C283 H254 0.950 . S
C283 C282 1.397 . S
C283 C284 1.334 . S
C284 H255 0.950 . S
C284 C283 1.334 . S
C284 C285 1.287 . S
C285 C284 1.287 . S
C285 C286 1.524 . S
C285 H288 0.999 . S
C286 H256 0.950 . S
C286 C285 1.524 . S
C286 C287 1.415 . S
C287 H257 0.950 . S
C287 C282 1.363 . S
C287 C286 1.415 . S
H288 C285 0.999 . S
H289 C270 0.913 . S
H290 C308 0.951 . S
H291 C310 0.951 . S
H292 C312 0.950 . S
H293 C313 0.950 . S
H294 C315 0.950 . S
H295 C318 0.950 . S
H296 C319 0.950 . S
H297 C321 0.950 . S
H298 C322 0.950 . S
H299 C323 0.951 . S
H300 C325 0.951 . S
H301 C327 0.950 . S
H302 C328 0.950 . S
H303 C330 0.950 . S
H304 C333 0.950 . S
H305 C334 0.950 . S
H306 C336 0.950 . S
H307 C337 0.950 . S
C308 H290 0.951 . S
C308 C309 1.366 . S
C308 C310 1.388 . S
C309 C308 1.366 . S
C309 C313 1.385 . S
C310 H291 0.951 . S
C310 C308 1.388 . S
C310 C311 1.366 . S
C311 C310 1.366 . S
C311 C312 1.414 . S
C311 C314 1.499 . S
C312 H292 0.950 . S
C312 C311 1.414 . S
C312 C313 1.374 . S
C313 H293 0.950 . S
C313 C309 1.385 . S
C313 C312 1.374 . S
C314 C311 1.499 . S
C314 C315 1.373 . S
C314 C316 1.389 . S
C315 H294 0.950 . S
C315 C314 1.373 . S
C315 C331 1.377 . S
C316 C314 1.389 . S
C316 C317 1.524 . S
C316 C330 1.377 . S
C317 C316 1.524 . S
C317 C318 1.397 . S
C317 C322 1.363 . S
C318 H295 0.950 . S
C318 C317 1.397 . S
C318 C319 1.334 . S
C319 H296 0.950 . S
C319 C318 1.334 . S
C319 C320 1.287 . S
C320 C319 1.287 . S
C320 C321 1.524 . S
C320 H339 0.913 . S
C321 H297 0.950 . S
C321 C320 1.524 . S
C321 C322 1.415 . S
C322 H298 0.950 . S
C322 C317 1.363 . S
C322 C321 1.415 . S
C323 H299 0.951 . S
C323 C324 1.366 . S
C323 C325 1.388 . S
C324 C323 1.366 . S
C324 C328 1.385 . S
C325 H300 0.951 . S
C325 C323 1.388 . S
C325 C326 1.366 . S
C326 C325 1.366 . S
C326 C327 1.414 . S
C326 C329 1.499 . S
C327 H301 0.950 . S
C327 C326 1.414 . S
C327 C328 1.374 . S
C328 H302 0.950 . S
C328 C324 1.385 . S
C328 C327 1.374 . S
C329 C326 1.499 . S
C329 C330 1.373 . S
C329 C331 1.389 . S
C330 H303 0.950 . S
C330 C316 1.377 . S
C330 C329 1.373 . S
C331 C315 1.377 . S
C331 C329 1.389 . S
C331 C332 1.524 . S
C332 C331 1.524 . S
C332 C333 1.397 . S
C332 C337 1.363 . S
C333 H304 0.950 . S
C333 C332 1.397 . S
C333 C334 1.334 . S
C334 H305 0.950 . S
C334 C333 1.334 . S
C334 C335 1.287 . S
C335 C334 1.287 . S
C335 C336 1.524 . S
C335 H338 0.999 . S
C336 H306 0.950 . S
C336 C335 1.524 . S
C336 C337 1.415 . S
C337 H307 0.950 . S
C337 C332 1.363 . S
C337 C336 1.415 . S
H338 C335 0.999 . S
H339 C320 0.913 . S
H340 C358 0.951 . S
H341 C360 0.951 . S
H342 C362 0.950 . S
H343 C363 0.950 . S
H344 C365 0.950 . S
H345 C368 0.950 . S
H346 C369 0.950 . S
H347 C371 0.950 . S
H348 C372 0.950 . S
H349 C373 0.951 . S
H350 C375 0.951 . S
H351 C377 0.950 . S
H352 C378 0.950 . S
H353 C380 0.950 . S
H354 C383 0.950 . S
H355 C384 0.950 . S
H356 C386 0.950 . S
H357 C387 0.950 . S
C358 H340 0.951 . S
C358 C359 1.366 . S
C358 C360 1.388 . S
C359 C358 1.366 . S
C359 C363 1.385 . S
C360 H341 0.951 . S
C360 C358 1.388 . S
C360 C361 1.366 . S
C361 C360 1.366 . S
C361 C362 1.414 . S
C361 C364 1.499 . S
C362 H342 0.950 . S
C362 C361 1.414 . S
C362 C363 1.374 . S
C363 H343 0.950 . S
C363 C359 1.385 . S
C363 C362 1.374 . S
C364 C361 1.499 . S
C364 C365 1.373 . S
C364 C366 1.389 . S
C365 H344 0.950 . S
C365 C364 1.373 . S
C365 C381 1.377 . S
C366 C364 1.389 . S
C366 C367 1.524 . S
C366 C380 1.377 . S
C367 C366 1.524 . S
C367 C368 1.397 . S
C367 C372 1.363 . S
C368 H345 0.950 . S
C368 C367 1.397 . S
C368 C369 1.334 . S
C369 H346 0.950 . S
C369 C368 1.334 . S
C369 C370 1.287 . S
C370 C369 1.287 . S
C370 C371 1.524 . S
C370 H389 0.913 . S
C371 H347 0.950 . S
C371 C370 1.524 . S
C371 C372 1.415 . S
C372 H348 0.950 . S
C372 C367 1.363 . S
C372 C371 1.415 . S
C373 H349 0.951 . S
C373 C374 1.366 . S
C373 C375 1.388 . S
C374 C373 1.366 . S
C374 C378 1.385 . S
C375 H350 0.951 . S
C375 C373 1.388 . S
C375 C376 1.366 . S
C376 C375 1.366 . S
C376 C377 1.414 . S
C376 C379 1.499 . S
C377 H351 0.950 . S
C377 C376 1.414 . S
C377 C378 1.374 . S
C378 H352 0.950 . S
C378 C374 1.385 . S
C378 C377 1.374 . S
C379 C376 1.499 . S
C379 C380 1.373 . S
C379 C381 1.389 . S
C380 H353 0.950 . S
C380 C366 1.377 . S
C380 C379 1.373 . S
C381 C365 1.377 . S
C381 C379 1.389 . S
C381 C382 1.524 . S
C382 C381 1.524 . S
C382 C383 1.397 . S
C382 C387 1.363 . S
C383 H354 0.950 . S
C383 C382 1.397 . S
C383 C384 1.334 . S
C384 H355 0.950 . S
C384 C383 1.334 . S
C384 C385 1.287 . S
C385 C384 1.287 . S
C385 C386 1.524 . S
C385 H388 0.999 . S
C386 H356 0.950 . S
C386 C385 1.524 . S
C386 C387 1.415 . S
C387 H357 0.950 . S
C387 C382 1.363 . S
C387 C386 1.415 . S
H388 C385 0.999 . S
H389 C370 0.913 . S
H390 C408 0.951 . S
H391 C410 0.951 . S
H392 C412 0.950 . S
H393 C413 0.950 . S
H394 C415 0.950 . S
H395 C418 0.950 . S
H396 C419 0.950 . S
H397 C421 0.950 . S
H398 C422 0.950 . S
H399 C423 0.951 . S
H400 C425 0.951 . S
H401 C427 0.950 . S
H402 C428 0.950 . S
H403 C430 0.950 . S
H404 C433 0.950 . S
H405 C434 0.950 . S
H406 C436 0.950 . S
H407 C437 0.950 . S
C408 H390 0.951 . S
C408 C409 1.366 . S
C408 C410 1.388 . S
C409 C408 1.366 . S
C409 C413 1.385 . S
C410 H391 0.951 . S
C410 C408 1.388 . S
C410 C411 1.366 . S
C411 C410 1.366 . S
C411 C412 1.414 . S
C411 C414 1.499 . S
C412 H392 0.950 . S
C412 C411 1.414 . S
C412 C413 1.374 . S
C413 H393 0.950 . S
C413 C409 1.385 . S
C413 C412 1.374 . S
C414 C411 1.499 . S
C414 C415 1.373 . S
C414 C416 1.389 . S
C415 H394 0.950 . S
C415 C414 1.373 . S
C415 C431 1.377 . S
C416 C414 1.389 . S
C416 C417 1.524 . S
C416 C430 1.377 . S
C417 C416 1.524 . S
C417 C418 1.397 . S
C417 C422 1.363 . S
C418 H395 0.950 . S
C418 C417 1.397 . S
C418 C419 1.334 . S
C419 H396 0.950 . S
C419 C418 1.334 . S
C419 C420 1.287 . S
C420 C419 1.287 . S
C420 C421 1.524 . S
C420 H439 0.913 . S
C421 H397 0.950 . S
C421 C420 1.524 . S
C421 C422 1.415 . S
C422 H398 0.950 . S
C422 C417 1.363 . S
C422 C421 1.415 . S
C423 H399 0.951 . S
C423 C424 1.366 . S
C423 C425 1.388 . S
C424 C423 1.366 . S
C424 C428 1.385 . S
C425 H400 0.951 . S
C425 C423 1.388 . S
C425 C426 1.366 . S
C426 C425 1.366 . S
C426 C427 1.414 . S
C426 C429 1.499 . S
C427 H401 0.950 . S
C427 C426 1.414 . S
C427 C428 1.374 . S
C428 H402 0.950 . S
C428 C424 1.385 . S
C428 C427 1.374 . S
C429 C426 1.499 . S
C429 C430 1.373 . S
C429 C431 1.389 . S
C430 H403 0.950 . S
C430 C416 1.377 . S
C430 C429 1.373 . S
C431 C415 1.377 . S
C431 C429 1.389 . S
C431 C432 1.524 . S
C432 C431 1.524 . S
C432 C433 1.397 . S
C432 C437 1.363 . S
C433 H404 0.950 . S
C433 C432 1.397 . S
C433 C434 1.334 . S
C434 H405 0.950 . S
C434 C433 1.334 . S
C434 C435 1.287 . S
C435 C434 1.287 . S
C435 C436 1.524 . S
C435 H438 0.999 . S
C436 H406 0.950 . S
C436 C435 1.524 . S
C436 C437 1.415 . S
C437 H407 0.950 . S
C437 C432 1.363 . S
C437 C436 1.415 . S
H438 C435 0.999 . S
H439 C420 0.913 . S
H440 C458 0.951 . S
H441 C460 0.951 . S
H442 C462 0.950 . S
H443 C463 0.950 . S
H444 C465 0.950 . S
H445 C468 0.950 . S
H446 C469 0.950 . S
H447 C471 0.950 . S
H448 C472 0.950 . S
H449 C473 0.951 . S
H450 C475 0.951 . S
H451 C477 0.950 . S
H452 C478 0.950 . S
H453 C480 0.950 . S
H454 C483 0.950 . S
H455 C484 0.950 . S
H456 C486 0.950 . S
H457 C487 0.950 . S
C458 H440 0.951 . S
C458 C459 1.366 . S
C458 C460 1.388 . S
C459 C458 1.366 . S
C459 C463 1.385 . S
C460 H441 0.951 . S
C460 C458 1.388 . S
C460 C461 1.366 . S
C461 C460 1.366 . S
C461 C462 1.414 . S
C461 C464 1.499 . S
C462 H442 0.950 . S
C462 C461 1.414 . S
C462 C463 1.374 . S
C463 H443 0.950 . S
C463 C459 1.385 . S
C463 C462 1.374 . S
C464 C461 1.499 . S
C464 C465 1.373 . S
C464 C466 1.389 . S
C465 H444 0.950 . S
C465 C464 1.373 . S
C465 C481 1.377 . S
C466 C464 1.389 . S
C466 C467 1.524 . S
C466 C480 1.377 . S
C467 C466 1.524 . S
C467 C468 1.397 . S
C467 C472 1.363 . S
C468 H445 0.950 . S
C468 C467 1.397 . S
C468 C469 1.334 . S
C469 H446 0.950 . S
C469 C468 1.334 . S
C469 C470 1.287 . S
C470 C469 1.287 . S
C470 C471 1.524 . S
C470 H489 0.913 . S
C471 H447 0.950 . S
C471 C470 1.524 . S
C471 C472 1.415 . S
C472 H448 0.950 . S
C472 C467 1.363 . S
C472 C471 1.415 . S
C473 H449 0.951 . S
C473 C474 1.366 . S
C473 C475 1.388 . S
C474 C473 1.366 . S
C474 C478 1.385 . S
C475 H450 0.951 . S
C475 C473 1.388 . S
C475 C476 1.366 . S
C476 C475 1.366 . S
C476 C477 1.414 . S
C476 C479 1.499 . S
C477 H451 0.950 . S
C477 C476 1.414 . S
C477 C478 1.374 . S
C478 H452 0.950 . S
C478 C474 1.385 . S
C478 C477 1.374 . S
C479 C476 1.499 . S
C479 C480 1.373 . S
C479 C481 1.389 . S
C480 H453 0.950 . S
C480 C466 1.377 . S
C480 C479 1.373 . S
C481 C465 1.377 . S
C481 C479 1.389 . S
C481 C482 1.524 . S
C482 C481 1.524 . S
C482 C483 1.397 . S
C482 C487 1.363 . S
C483 H454 0.950 . S
C483 C482 1.397 . S
C483 C484 1.334 . S
C484 H455 0.950 . S
C484 C483 1.334 . S
C484 C485 1.287 . S
C485 C484 1.287 . S
C485 C486 1.524 . S
C485 H488 0.999 1_565 S
C486 H456 0.950 . S
C486 C485 1.524 . S
C486 C487 1.415 . S
C487 H457 0.950 . S
C487 C482 1.363 . S
C487 C486 1.415 . S
H488 C485 0.999 1_545 S
H489 C470 0.913 . S
H490 C508 0.951 . S
H491 C510 0.951 . S
H492 C512 0.950 . S
H493 C513 0.950 . S
H494 C515 0.950 . S
H495 C518 0.950 . S
H496 C519 0.950 . S
H497 C521 0.950 . S
H498 C522 0.950 . S
H499 C523 0.951 . S
H500 C525 0.951 . S
H501 C527 0.950 . S
H502 C528 0.950 . S
H503 C530 0.950 . S
H504 C533 0.950 . S
H505 C534 0.950 . S
H506 C536 0.950 . S
H507 C537 0.950 . S
C508 H490 0.951 . S
C508 C509 1.366 . S
C508 C510 1.388 . S
C509 C508 1.366 . S
C509 C513 1.385 . S
C510 H491 0.951 . S
C510 C508 1.388 . S
C510 C511 1.366 . S
C511 C510 1.366 . S
C511 C512 1.414 . S
C511 C514 1.499 . S
C512 H492 0.950 . S
C512 C511 1.414 . S
C512 C513 1.374 . S
C513 H493 0.950 . S
C513 C509 1.385 . S
C513 C512 1.374 . S
C514 C511 1.499 . S
C514 C515 1.373 . S
C514 C516 1.389 . S
C515 H494 0.950 . S
C515 C514 1.373 . S
C515 C531 1.377 . S
C516 C514 1.389 . S
C516 C517 1.524 . S
C516 C530 1.377 . S
C517 C516 1.524 . S
C517 C518 1.397 . S
C517 C522 1.363 . S
C518 H495 0.950 . S
C518 C517 1.397 . S
C518 C519 1.334 . S
C519 H496 0.950 . S
C519 C518 1.334 . S
C519 C520 1.287 . S
C520 C519 1.287 . S
C520 C521 1.524 . S
C520 H539 0.913 . S
C521 H497 0.950 . S
C521 C520 1.524 . S
C521 C522 1.415 . S
C522 H498 0.950 . S
C522 C517 1.363 . S
C522 C521 1.415 . S
C523 H499 0.951 . S
C523 C524 1.366 . S
C523 C525 1.388 . S
C524 C523 1.366 . S
C524 C528 1.385 . S
C525 H500 0.951 . S
C525 C523 1.388 . S
C525 C526 1.366 . S
C526 C525 1.366 . S
C526 C527 1.414 . S
C526 C529 1.499 . S
C527 H501 0.950 . S
C527 C526 1.414 . S
C527 C528 1.374 . S
C528 H502 0.950 . S
C528 C524 1.385 . S
C528 C527 1.374 . S
C529 C526 1.499 . S
C529 C530 1.373 . S
C529 C531 1.389 . S
C530 H503 0.950 . S
C530 C516 1.377 . S
C530 C529 1.373 . S
C531 C515 1.377 . S
C531 C529 1.389 . S
C531 C532 1.524 . S
C532 C531 1.524 . S
C532 C533 1.397 . S
C532 C537 1.363 . S
C533 H504 0.950 . S
C533 C532 1.397 . S
C533 C534 1.334 . S
C534 H505 0.950 . S
C534 C533 1.334 . S
C534 C535 1.287 . S
C535 C534 1.287 . S
C535 C536 1.524 . S
C535 H538 0.999 . S
C536 H506 0.950 . S
C536 C535 1.524 . S
C536 C537 1.415 . S
C537 H507 0.950 . S
C537 C532 1.363 . S
C537 C536 1.415 . S
H538 C535 0.999 . S
H539 C520 0.913 . S
H540 C558 0.951 . S
H541 C560 0.951 . S
H542 C562 0.950 . S
H543 C563 0.950 . S
H544 C565 0.950 . S
H545 C568 0.950 . S
H546 C569 0.950 . S
H547 C571 0.950 . S
H548 C572 0.950 . S
H549 C573 0.951 . S
H550 C575 0.951 . S
H551 C577 0.950 . S
H552 C578 0.950 . S
H553 C580 0.950 . S
H554 C583 0.950 . S
H555 C584 0.950 . S
H556 C586 0.950 . S
H557 C587 0.950 . S
C558 H540 0.951 . S
C558 C559 1.366 . S
C558 C560 1.388 . S
C559 C558 1.366 . S
C559 C563 1.385 . S
C560 H541 0.951 . S
C560 C558 1.388 . S
C560 C561 1.366 . S
C561 C560 1.366 . S
C561 C562 1.414 . S
C561 C564 1.499 . S
C562 H542 0.950 . S
C562 C561 1.414 . S
C562 C563 1.374 . S
C563 H543 0.950 . S
C563 C559 1.385 . S
C563 C562 1.374 . S
C564 C561 1.499 . S
C564 C565 1.373 . S
C564 C566 1.389 . S
C565 H544 0.950 . S
C565 C564 1.373 . S
C565 C581 1.377 . S
C566 C564 1.389 . S
C566 C567 1.524 . S
C566 C580 1.377 . S
C567 C566 1.524 . S
C567 C568 1.397 . S
C567 C572 1.363 . S
C568 H545 0.950 . S
C568 C567 1.397 . S
C568 C569 1.334 . S
C569 H546 0.950 . S
C569 C568 1.334 . S
C569 C570 1.287 . S
C570 C569 1.287 . S
C570 C571 1.524 . S
C570 H589 0.913 . S
C571 H547 0.950 . S
C571 C570 1.524 . S
C571 C572 1.415 . S
C572 H548 0.950 . S
C572 C567 1.363 . S
C572 C571 1.415 . S
C573 H549 0.951 . S
C573 C574 1.366 . S
C573 C575 1.388 . S
C574 C573 1.366 . S
C574 C578 1.385 . S
C575 H550 0.951 . S
C575 C573 1.388 . S
C575 C576 1.366 . S
C576 C575 1.366 . S
C576 C577 1.414 . S
C576 C579 1.499 . S
C577 H551 0.950 . S
C577 C576 1.414 . S
C577 C578 1.374 . S
C578 H552 0.950 . S
C578 C574 1.385 . S
C578 C577 1.374 . S
C579 C576 1.499 . S
C579 C580 1.373 . S
C579 C581 1.389 . S
C580 H553 0.950 . S
C580 C566 1.377 . S
C580 C579 1.373 . S
C581 C565 1.377 . S
C581 C579 1.389 . S
C581 C582 1.524 . S
C582 C581 1.524 . S
C582 C583 1.397 1_554 S
C582 C587 1.363 1_554 S
C583 H554 0.950 . S
C583 C582 1.397 1_556 S
C583 C584 1.334 . S
C584 H555 0.950 . S
C584 C583 1.334 . S
C584 C585 1.287 . S
C585 C584 1.287 . S
C585 C586 1.524 . S
C585 H588 0.999 . S
C586 H556 0.950 . S
C586 C585 1.524 . S
C586 C587 1.415 . S
C587 H557 0.950 . S
C587 C582 1.363 1_556 S
C587 C586 1.415 . S
H588 C585 0.999 . S
H589 C570 0.913 . S
H590 C608 0.951 . S
H591 C610 0.951 . S
H592 C612 0.950 1_655 S
H593 C613 0.950 . S
H594 C615 0.950 . S
H595 C618 0.950 . S
H596 C619 0.950 . S
H597 C621 0.950 . S
H598 C622 0.950 . S
H599 C623 0.951 . S
H600 C625 0.951 . S
H601 C627 0.950 1_455 S
H602 C628 0.950 . S
H603 C630 0.950 . S
H604 C633 0.950 . S
H605 C634 0.950 . S
H606 C636 0.950 . S
H607 C637 0.950 . S
C608 H590 0.951 . S
C608 C609 1.366 . S
C608 C610 1.388 . S
C609 C608 1.366 . S
C609 C613 1.385 . S
C610 H591 0.951 . S
C610 C608 1.388 . S
C610 C611 1.366 . S
C611 C610 1.366 . S
C611 C612 1.414 . S
C611 C614 1.499 . S
C612 H592 0.950 1_455 S
C612 C611 1.414 . S
C612 C613 1.374 . S
C613 H593 0.950 . S
C613 C609 1.385 . S
C613 C612 1.374 . S
C614 C611 1.499 . S
C614 C615 1.373 1_455 S
C614 C616 1.389 . S
C615 H594 0.950 . S
C615 C614 1.373 1_655 S
C615 C631 1.377 . S
C616 C614 1.389 . S
C616 C617 1.524 . S
C616 C630 1.377 . S
C617 C616 1.524 . S
C617 C618 1.397 . S
C617 C622 1.363 . S
C618 H595 0.950 . S
C618 C617 1.397 . S
C618 C619 1.334 . S
C619 H596 0.950 . S
C619 C618 1.334 . S
C619 C620 1.287 . S
C620 C619 1.287 . S
C620 C621 1.524 . S
C620 H639 0.913 . S
C621 H597 0.950 . S
C621 C620 1.524 . S
C621 C622 1.415 . S
C622 H598 0.950 . S
C622 C617 1.363 . S
C622 C621 1.415 . S
C623 H599 0.951 . S
C623 C624 1.366 . S
C623 C625 1.388 . S
C624 C623 1.366 . S
C624 C628 1.385 . S
C625 H600 0.951 . S
C625 C623 1.388 . S
C625 C626 1.366 . S
C626 C625 1.366 . S
C626 C627 1.414 . S
C626 C629 1.499 . S
C627 H601 0.950 1_655 S
C627 C626 1.414 . S
C627 C628 1.374 . S
C628 H602 0.950 . S
C628 C624 1.385 . S
C628 C627 1.374 . S
C629 C626 1.499 . S
C629 C630 1.373 1_655 S
C629 C631 1.389 . S
C630 H603 0.950 . S
C630 C616 1.377 . S
C630 C629 1.373 1_455 S
C631 C615 1.377 . S
C631 C629 1.389 . S
C631 C632 1.524 . S
C632 C631 1.524 . S
C632 C633 1.397 . S
C632 C637 1.363 . S
C633 H604 0.950 . S
C633 C632 1.397 . S
C633 C634 1.334 . S
C634 H605 0.950 . S
C634 C633 1.334 . S
C634 C635 1.287 . S
C635 C634 1.287 . S
C635 C636 1.524 . S
C635 H638 0.999 . S
C636 H606 0.950 . S
C636 C635 1.524 . S
C636 C637 1.415 . S
C637 H607 0.950 . S
C637 C632 1.363 . S
C637 C636 1.415 . S
H638 C635 0.999 . S
H639 C620 0.913 . S
H640 C658 0.951 . S
H641 C660 0.951 . S
H642 C662 0.950 . S
H643 C663 0.950 . S
H644 C665 0.950 . S
H645 C668 0.950 . S
H646 C669 0.950 . S
H647 C671 0.950 . S
H648 C672 0.950 . S
H649 C673 0.951 . S
H650 C675 0.951 . S
H651 C677 0.950 . S
H652 C678 0.950 . S
H653 C680 0.950 . S
H654 C683 0.950 . S
H655 C684 0.950 . S
H656 C686 0.950 . S
H657 C687 0.950 . S
C658 H640 0.951 . S
C658 C659 1.366 . S
C658 C660 1.388 . S
C659 C658 1.366 . S
C659 C663 1.385 . S
C660 H641 0.951 . S
C660 C658 1.388 . S
C660 C661 1.366 . S
C661 C660 1.366 . S
C661 C662 1.414 . S
C661 C664 1.499 . S
C662 H642 0.950 . S
C662 C661 1.414 . S
C662 C663 1.374 . S
C663 H643 0.950 . S
C663 C659 1.385 . S
C663 C662 1.374 . S
C664 C661 1.499 . S
C664 C665 1.373 1_545 S
C664 C666 1.389 . S
C665 H644 0.950 . S
C665 C664 1.373 1_565 S
C665 C681 1.377 . S
C666 C664 1.389 . S
C666 C667 1.524 . S
C666 C680 1.377 . S
C667 C666 1.524 . S
C667 C668 1.397 . S
C667 C672 1.363 . S
C668 H645 0.950 . S
C668 C667 1.397 . S
C668 C669 1.334 . S
C669 H646 0.950 . S
C669 C668 1.334 . S
C669 C670 1.287 . S
C670 C669 1.287 . S
C670 C671 1.524 . S
C670 H689 0.913 . S
C671 H647 0.950 . S
C671 C670 1.524 . S
C671 C672 1.415 . S
C672 H648 0.950 . S
C672 C667 1.363 . S
C672 C671 1.415 . S
C673 H649 0.951 . S
C673 C674 1.366 . S
C673 C675 1.388 . S
C674 C673 1.366 . S
C674 C678 1.385 . S
C675 H650 0.951 . S
C675 C673 1.388 . S
C675 C676 1.366 . S
C676 C675 1.366 . S
C676 C677 1.414 . S
C676 C679 1.499 . S
C677 H651 0.950 . S
C677 C676 1.414 . S
C677 C678 1.374 . S
C678 H652 0.950 . S
C678 C674 1.385 . S
C678 C677 1.374 . S
C679 C676 1.499 . S
C679 C680 1.373 1_565 S
C679 C681 1.389 . S
C680 H653 0.950 . S
C680 C666 1.377 . S
C680 C679 1.373 1_545 S
C681 C665 1.377 . S
C681 C679 1.389 . S
C681 C682 1.524 . S
C682 C681 1.524 . S
C682 C683 1.397 . S
C682 C687 1.363 . S
C683 H654 0.950 . S
C683 C682 1.397 . S
C683 C684 1.334 . S
C684 H655 0.950 . S
C684 C683 1.334 . S
C684 C685 1.287 . S
C685 C684 1.287 . S
C685 C686 1.524 . S
C685 H688 0.999 . S
C686 H656 0.950 . S
C686 C685 1.524 . S
C686 C687 1.415 . S
C687 H657 0.950 . S
C687 C682 1.363 . S
C687 C686 1.415 . S
H688 C685 0.999 . S
H689 C670 0.913 . S
H690 C708 0.951 . S
H691 C710 0.951 . S
H692 C712 0.950 . S
H693 C713 0.950 . S
H694 C715 0.950 . S
H695 C718 0.950 . S
H696 C719 0.950 . S
H697 C721 0.950 . S
H698 C722 0.950 . S
H699 C723 0.951 . S
H700 C725 0.951 . S
H701 C727 0.950 . S
H702 C728 0.950 . S
H703 C730 0.950 . S
H704 C733 0.950 . S
H705 C734 0.950 . S
H706 C736 0.950 . S
H707 C737 0.950 . S
C708 H690 0.951 . S
C708 C709 1.366 . S
C708 C710 1.388 . S
C709 C708 1.366 . S
C709 C713 1.385 . S
C710 H691 0.951 . S
C710 C708 1.388 . S
C710 C711 1.366 . S
C711 C710 1.366 . S
C711 C712 1.414 . S
C711 C714 1.499 . S
C712 H692 0.950 . S
C712 C711 1.414 . S
C712 C713 1.374 . S
C713 H693 0.950 . S
C713 C709 1.385 . S
C713 C712 1.374 . S
C714 C711 1.499 . S
C714 C715 1.373 . S
C714 C716 1.389 . S
C715 H694 0.950 . S
C715 C714 1.373 . S
C715 C731 1.377 . S
C716 C714 1.389 . S
C716 C717 1.524 . S
C716 C730 1.377 . S
C717 C716 1.524 . S
C717 C718 1.397 . S
C717 C722 1.363 . S
C718 H695 0.950 . S
C718 C717 1.397 . S
C718 C719 1.334 . S
C719 H696 0.950 . S
C719 C718 1.334 . S
C719 C720 1.287 . S
C720 C719 1.287 . S
C720 C721 1.524 . S
C720 H739 0.913 . S
C721 H697 0.950 . S
C721 C720 1.524 . S
C721 C722 1.415 . S
C722 H698 0.950 . S
C722 C717 1.363 . S
C722 C721 1.415 . S
C723 H699 0.951 . S
C723 C724 1.366 . S
C723 C725 1.388 . S
C724 C723 1.366 . S
C724 C728 1.385 . S
C725 H700 0.951 . S
C725 C723 1.388 . S
C725 C726 1.366 . S
C726 C725 1.366 . S
C726 C727 1.414 . S
C726 C729 1.499 . S
C727 H701 0.950 . S
C727 C726 1.414 . S
C727 C728 1.374 . S
C728 H702 0.950 . S
C728 C724 1.385 . S
C728 C727 1.374 . S
C729 C726 1.499 . S
C729 C730 1.373 . S
C729 C731 1.389 . S
C730 H703 0.950 . S
C730 C716 1.377 . S
C730 C729 1.373 . S
C731 C715 1.377 . S
C731 C729 1.389 . S
C731 C732 1.524 . S
C732 C731 1.524 . S
C732 C733 1.397 . S
C732 C737 1.363 . S
C733 H704 0.950 . S
C733 C732 1.397 . S
C733 C734 1.334 . S
C734 H705 0.950 . S
C734 C733 1.334 . S
C734 C735 1.287 . S
C735 C734 1.287 . S
C735 C736 1.524 . S
C735 H738 0.999 . S
C736 H706 0.950 . S
C736 C735 1.524 . S
C736 C737 1.415 . S
C737 H707 0.950 . S
C737 C732 1.363 . S
C737 C736 1.415 . S
H738 C735 0.999 . S
H739 C720 0.913 . S
H740 C758 0.951 . S
H741 C760 0.951 . S
H742 C762 0.950 . S
H743 C763 0.950 . S
H744 C765 0.950 . S
H745 C768 0.950 . S
H746 C769 0.950 . S
H747 C771 0.950 . S
H748 C772 0.950 . S
H749 C773 0.951 . S
H750 C775 0.951 . S
H751 C777 0.950 . S
H752 C778 0.950 . S
H753 C780 0.950 . S
H754 C783 0.950 . S
H755 C784 0.950 . S
H756 C786 0.950 . S
H757 C787 0.946 . S
C758 H740 0.951 . S
C758 C759 1.366 . S
C758 C760 1.388 . S
C759 C758 1.366 . S
C759 C763 1.385 . S
C760 H741 0.951 . S
C760 C758 1.388 . S
C760 C761 1.366 . S
C761 C760 1.366 . S
C761 C762 1.414 . S
C761 C764 1.499 . S
C762 H742 0.950 . S
C762 C761 1.414 . S
C762 C763 1.374 . S
C763 H743 0.950 . S
C763 C759 1.385 . S
C763 C762 1.374 . S
C764 C761 1.499 . S
C764 C765 1.373 1_455 S
C764 C766 1.389 . S
C765 H744 0.950 . S
C765 C764 1.373 1_655 S
C765 C781 1.377 . S
C766 C764 1.389 . S
C766 C767 1.524 . S
C766 C780 1.377 . S
C767 C766 1.524 . S
C767 C768 1.397 . S
C767 C772 1.363 . S
C768 H745 0.950 . S
C768 C767 1.397 . S
C768 C769 1.334 . S
C769 H746 0.950 . S
C769 C768 1.334 . S
C769 C770 1.287 . S
C770 C769 1.287 . S
C770 C771 1.524 . S
C770 H789 0.913 . S
C771 H747 0.950 . S
C771 C770 1.524 . S
C771 C772 1.415 . S
C772 H748 0.950 . S
C772 C767 1.363 . S
C772 C771 1.415 . S
C773 H749 0.951 . S
C773 C774 1.366 . S
C773 C775 1.388 . S
C774 C773 1.366 . S
C774 C778 1.385 . S
C775 H750 0.951 . S
C775 C773 1.388 . S
C775 C776 1.366 . S
C776 C775 1.366 . S
C776 C777 1.414 . S
C776 C779 1.499 . S
C777 H751 0.950 . S
C777 C776 1.414 . S
C777 C778 1.374 . S
C778 H752 0.950 . S
C778 C774 1.385 . S
C778 C777 1.374 . S
C779 C776 1.499 . S
C779 C780 1.373 1_655 S
C779 C781 1.389 . S
C780 H753 0.950 . S
C780 C766 1.377 . S
C780 C779 1.373 1_455 S
C781 C765 1.377 . S
C781 C779 1.389 . S
C781 C782 1.524 1_554 S
C782 C781 1.524 1_556 S
C782 C783 1.397 . S
C782 C787 1.363 1_556 S
C783 H754 0.950 . S
C783 C782 1.397 . S
C783 C784 1.334 . S
C784 H755 0.950 . S
C784 C783 1.334 . S
C784 C785 1.287 . S
C785 C784 1.287 . S
C785 C786 1.524 . S
C785 H788 0.999 . S
C786 H756 0.950 . S
C786 C785 1.524 . S
C786 C787 1.418 1_556 S
C787 H757 0.946 . S
C787 C782 1.363 1_554 S
C787 C786 1.418 1_554 S
H788 C785 0.999 . S
H789 C770 0.913 . S
H790 C808 0.951 . S
H791 C810 0.951 . S
H792 C812 0.950 . S
H793 C813 0.950 . S
H794 C815 0.950 . S
H795 C818 0.950 . S
H796 C819 0.950 . S
H797 C821 0.950 . S
H798 C822 0.950 . S
H799 C823 0.951 . S
H800 C825 0.951 . S
H801 C827 0.950 . S
H802 C828 0.950 . S
H803 C830 0.950 . S
H804 C833 0.950 . S
H805 C834 0.950 . S
H806 C836 0.950 . S
H807 C837 0.950 . S
C808 H790 0.951 . S
C808 C809 1.366 . S
C808 C810 1.388 . S
C809 C808 1.366 . S
C809 C813 1.385 . S
C810 H791 0.951 . S
C810 C808 1.388 . S
C810 C811 1.366 . S
C811 C810 1.366 . S
C811 C812 1.414 . S
C811 C814 1.499 . S
C812 H792 0.950 . S
C812 C811 1.414 . S
C812 C813 1.374 . S
C813 H793 0.950 . S
C813 C809 1.385 . S
C813 C812 1.374 . S
C814 C811 1.499 . S
C814 C815 1.373 . S
C814 C816 1.389 1_565 S
C815 H794 0.950 . S
C815 C814 1.373 . S
C815 C831 1.377 . S
C816 C814 1.389 1_545 S
C816 C817 1.524 . S
C816 C830 1.377 . S
C817 C816 1.524 . S
C817 C818 1.397 . S
C817 C822 1.363 . S
C818 H795 0.950 . S
C818 C817 1.397 . S
C818 C819 1.334 . S
C819 H796 0.950 . S
C819 C818 1.334 . S
C819 C820 1.287 . S
C820 C819 1.287 . S
C820 C821 1.524 . S
C820 H839 0.913 . S
C821 H797 0.950 . S
C821 C820 1.524 . S
C821 C822 1.415 . S
C822 H798 0.950 . S
C822 C817 1.363 . S
C822 C821 1.415 . S
C823 H799 0.951 . S
C823 C824 1.366 . S
C823 C825 1.388 . S
C824 C823 1.366 . S
C824 C828 1.385 . S
C825 H800 0.951 . S
C825 C823 1.388 . S
C825 C826 1.366 . S
C826 C825 1.366 . S
C826 C827 1.414 . S
C826 C829 1.499 . S
C827 H801 0.950 . S
C827 C826 1.414 . S
C827 C828 1.374 . S
C828 H802 0.950 . S
C828 C824 1.385 . S
C828 C827 1.374 . S
C829 C826 1.499 . S
C829 C830 1.373 . S
C829 C831 1.389 1_545 S
C830 H803 0.950 . S
C830 C816 1.377 . S
C830 C829 1.373 . S
C831 C815 1.377 . S
C831 C829 1.389 1_565 S
C831 C832 1.524 . S
C832 C831 1.524 . S
C832 C833 1.397 . S
C832 C837 1.363 . S
C833 H804 0.950 . S
C833 C832 1.397 . S
C833 C834 1.334 . S
C834 H805 0.950 . S
C834 C833 1.334 . S
C834 C835 1.287 . S
C835 C834 1.287 . S
C835 C836 1.524 . S
C835 H838 0.999 . S
C836 H806 0.950 . S
C836 C835 1.524 . S
C836 C837 1.415 . S
C837 H807 0.950 . S
C837 C832 1.363 . S
C837 C836 1.415 . S
H838 C835 0.999 . S
H839 C820 0.913 . S
H840 C858 0.951 . S
H841 C860 0.951 . S
H842 C862 0.950 . S
H843 C863 0.950 . S
H844 C865 0.950 . S
H845 C868 0.950 . S
H846 C869 0.950 . S
H847 C871 0.950 . S
H848 C872 0.950 . S
H849 C873 0.951 . S
H850 C875 0.951 . S
H851 C877 0.950 . S
H852 C878 0.950 . S
H853 C880 0.950 . S
H854 C883 0.950 . S
H855 C884 0.950 . S
H856 C886 0.950 . S
H857 C887 0.950 . S
C858 H840 0.951 . S
C858 C859 1.366 . S
C858 C860 1.388 . S
C859 C858 1.366 . S
C859 C863 1.385 . S
C860 H841 0.951 . S
C860 C858 1.388 . S
C860 C861 1.366 . S
C861 C860 1.366 . S
C861 C862 1.414 . S
C861 C864 1.499 . S
C862 H842 0.950 . S
C862 C861 1.414 . S
C862 C863 1.374 . S
C863 H843 0.950 . S
C863 C859 1.385 . S
C863 C862 1.374 . S
C864 C861 1.499 . S
C864 C865 1.373 . S
C864 C866 1.389 . S
C865 H844 0.950 . S
C865 C864 1.373 . S
C865 C881 1.377 . S
C866 C864 1.389 . S
C866 C867 1.524 . S
C866 C880 1.377 . S
C867 C866 1.524 . S
C867 C868 1.397 . S
C867 C872 1.363 . S
C868 H845 0.950 . S
C868 C867 1.397 . S
C868 C869 1.334 . S
C869 H846 0.950 . S
C869 C868 1.334 . S
C869 C870 1.287 . S
C870 C869 1.287 . S
C870 C871 1.524 . S
C870 H889 0.913 . S
C871 H847 0.950 . S
C871 C870 1.524 . S
C871 C872 1.415 . S
C872 H848 0.950 . S
C872 C867 1.363 . S
C872 C871 1.415 . S
C873 H849 0.951 . S
C873 C874 1.366 . S
C873 C875 1.388 . S
C874 C873 1.366 . S
C874 C878 1.385 . S
C875 H850 0.951 . S
C875 C873 1.388 . S
C875 C876 1.366 . S
C876 C875 1.366 . S
C876 C877 1.414 . S
C876 C879 1.499 . S
C877 H851 0.950 . S
C877 C876 1.414 . S
C877 C878 1.374 . S
C878 H852 0.950 . S
C878 C874 1.385 . S
C878 C877 1.374 . S
C879 C876 1.499 . S
C879 C880 1.373 . S
C879 C881 1.389 . S
C880 H853 0.950 . S
C880 C866 1.377 . S
C880 C879 1.373 . S
C881 C865 1.377 . S
C881 C879 1.389 . S
C881 C882 1.524 . S
C882 C881 1.524 . S
C882 C883 1.397 . S
C882 C887 1.363 . S
C883 H854 0.950 . S
C883 C882 1.397 . S
C883 C884 1.334 . S
C884 H855 0.950 . S
C884 C883 1.334 . S
C884 C885 1.287 . S
C885 C884 1.287 . S
C885 C886 1.524 . S
C885 H888 0.999 . S
C886 H856 0.950 . S
C886 C885 1.524 . S
C886 C887 1.415 . S
C887 H857 0.950 . S
C887 C882 1.363 . S
C887 C886 1.415 . S
H888 C885 0.999 . S
H889 C870 0.913 . S
H890 C908 0.951 . S
H891 C910 0.951 . S
H892 C912 0.953 . S
H893 C913 0.950 . S
H894 C915 0.950 . S
H895 C918 0.950 . S
H896 C919 0.950 . S
H897 C921 0.950 . S
H898 C922 0.950 1_455 S
H899 C923 0.951 . S
H900 C925 0.951 . S
H901 C927 0.950 . S
H902 C928 0.950 . S
H903 C930 0.950 . S
H904 C933 0.950 . S
H905 C934 0.950 . S
H906 C936 0.950 . S
H907 C937 0.950 . S
C908 H890 0.951 . S
C908 C909 1.366 . S
C908 C910 1.388 1_655 S
C909 C908 1.366 . S
C909 C913 1.385 . S
C910 H891 0.951 . S
C910 C908 1.388 1_455 S
C910 C911 1.366 . S
C911 C910 1.366 . S
C911 C912 1.414 1_455 S
C911 C914 1.499 . S
C912 H892 0.953 . S
C912 C911 1.414 1_655 S
C912 C913 1.374 . S
C913 H893 0.950 . S
C913 C909 1.385 . S
C913 C912 1.374 . S
C914 C911 1.499 . S
C914 C915 1.373 . S
C914 C916 1.389 . S
C915 H894 0.950 . S
C915 C914 1.373 . S
C915 C931 1.377 . S
C916 C914 1.389 . S
C916 C917 1.524 1_455 S
C916 C930 1.377 . S
C917 C916 1.524 1_655 S
C917 C918 1.397 . S
C917 C922 1.363 . S
C918 H895 0.950 . S
C918 C917 1.397 . S
C918 C919 1.334 . S
C919 H896 0.950 . S
C919 C918 1.334 . S
C919 C920 1.287 . S
C920 C919 1.287 . S
C920 C921 1.524 . S
C920 H939 0.913 . S
C921 H897 0.950 . S
C921 C920 1.524 . S
C921 C922 1.415 . S
C922 H898 0.950 1_655 S
C922 C917 1.363 . S
C922 C921 1.415 . S
C923 H899 0.951 . S
C923 C924 1.366 . S
C923 C925 1.388 . S
C924 C923 1.366 . S
C924 C928 1.385 . S
C925 H900 0.951 . S
C925 C923 1.388 . S
C925 C926 1.366 . S
C926 C925 1.366 . S
C926 C927 1.414 . S
C926 C929 1.499 . S
C927 H901 0.950 . S
C927 C926 1.414 . S
C927 C928 1.374 . S
C928 H902 0.950 . S
C928 C924 1.385 . S
C928 C927 1.374 . S
C929 C926 1.499 . S
C929 C930 1.373 . S
C929 C931 1.389 . S
C930 H903 0.950 . S
C930 C916 1.377 . S
C930 C929 1.373 . S
C931 C915 1.377 . S
C931 C929 1.389 . S
C931 C932 1.524 . S
C932 C931 1.524 . S
C932 C933 1.397 . S
C932 C937 1.363 . S
C933 H904 0.950 . S
C933 C932 1.397 . S
C933 C934 1.334 . S
C934 H905 0.950 . S
C934 C933 1.334 . S
C934 C935 1.287 . S
C935 C934 1.287 . S
C935 C936 1.524 . S
C935 H938 0.999 . S
C936 H906 0.950 . S
C936 C935 1.524 . S
C936 C937 1.415 . S
C937 H907 0.950 . S
C937 C932 1.363 . S
C937 C936 1.415 . S
H938 C935 0.999 . S
H939 C920 0.913 . S
H940 C958 0.951 . S
H941 C960 0.951 . S
H942 C962 0.950 . S
H943 C963 0.950 . S
H944 C965 0.950 . S
H945 C968 0.950 . S
H946 C969 0.950 . S
H947 C971 0.950 . S
H948 C972 0.950 1_565 S
H949 C973 0.951 . S
H950 C975 0.951 . S
H951 C977 0.950 . S
H952 C978 0.950 . S
H953 C980 0.950 . S
H954 C983 0.950 . S
H955 C984 0.950 . S
H956 C986 0.950 . S
H957 C987 0.950 . S
C958 H940 0.951 . S
C958 C959 1.366 . S
C958 C960 1.388 . S
C959 C958 1.366 . S
C959 C963 1.385 1_565 S
C960 H941 0.951 . S
C960 C958 1.388 . S
C960 C961 1.366 1_565 S
C961 C960 1.366 1_545 S
C961 C962 1.414 . S
C961 C964 1.499 . S
C962 H942 0.950 . S
C962 C961 1.414 . S
C962 C963 1.374 . S
C963 H943 0.950 . S
C963 C959 1.385 1_545 S
C963 C962 1.374 . S
C964 C961 1.499 . S
C964 C965 1.373 . S
C964 C966 1.389 . S
C965 H944 0.950 . S
C965 C964 1.373 . S
C965 C981 1.377 . S
C966 C964 1.389 . S
C966 C967 1.524 . S
C966 C980 1.377 . S
C967 C966 1.524 . S
C967 C968 1.397 . S
C967 C972 1.363 . S
C968 H945 0.950 . S
C968 C967 1.397 . S
C968 C969 1.334 . S
C969 H946 0.950 . S
C969 C968 1.334 . S
C969 C970 1.287 . S
C970 C969 1.287 . S
C970 C971 1.524 1_545 S
C970 H989 0.913 . S
C971 H947 0.950 . S
C971 C970 1.524 1_565 S
C971 C972 1.415 1_565 S
C972 H948 0.950 1_545 S
C972 C967 1.363 . S
C972 C971 1.415 1_545 S
C973 H949 0.951 . S
C973 C974 1.366 . S
C973 C975 1.388 . S
C974 C973 1.366 . S
C974 C978 1.385 . S
C975 H950 0.951 . S
C975 C973 1.388 . S
C975 C976 1.366 . S
C976 C975 1.366 . S
C976 C977 1.414 . S
C976 C979 1.499 . S
C977 H951 0.950 . S
C977 C976 1.414 . S
C977 C978 1.374 . S
C978 H952 0.950 . S
C978 C974 1.385 . S
C978 C977 1.374 . S
C979 C976 1.499 . S
C979 C980 1.373 . S
C979 C981 1.389 . S
C980 H953 0.950 . S
C980 C966 1.377 . S
C980 C979 1.373 . S
C981 C965 1.377 . S
C981 C979 1.389 . S
C981 C982 1.524 . S
C982 C981 1.524 . S
C982 C983 1.397 . S
C982 C987 1.363 . S
C983 H954 0.950 . S
C983 C982 1.397 . S
C983 C984 1.334 . S
C984 H955 0.950 . S
C984 C983 1.334 . S
C984 C985 1.287 . S
C985 C984 1.287 . S
C985 C986 1.524 . S
C985 H988 0.999 . S
C986 H956 0.950 . S
C986 C985 1.524 . S
C986 C987 1.415 . S
C987 H957 0.950 . S
C987 C982 1.363 . S
C987 C986 1.415 . S
H988 C985 0.999 . S
H989 C970 0.913 . S
H990 C1008 0.951 . S
H991 C1010 0.951 . S
H992 C1012 0.950 . S
H993 C1013 0.950 . S
H994 C1015 0.950 . S
H995 C1018 0.950 . S
H996 C1019 0.950 . S
H997 C1021 0.950 . S
H998 C1022 0.950 . S
H999 C1023 0.951 . S
H1000 C1025 0.951 . S
H1001 C1027 0.950 . S
H1002 C1028 0.950 . S
H1003 C1030 0.950 . S
H1004 C1033 0.950 . S
H1005 C1034 0.950 . S
H1006 C1036 0.950 . S
H1007 C1037 0.950 . S
C1008 H990 0.951 . S
C1008 C1009 1.366 . S
C1008 C1010 1.388 . S
C1009 C1008 1.366 . S
C1009 C1013 1.385 . S
C1010 H991 0.951 . S
C1010 C1008 1.388 . S
C1010 C1011 1.366 . S
C1011 C1010 1.366 . S
C1011 C1012 1.414 . S
C1011 C1014 1.499 . S
C1012 H992 0.950 . S
C1012 C1011 1.414 . S
C1012 C1013 1.374 . S
C1013 H993 0.950 . S
C1013 C1009 1.385 . S
C1013 C1012 1.374 . S
C1014 C1011 1.499 . S
C1014 C1015 1.373 . S
C1014 C1016 1.389 . S
C1015 H994 0.950 . S
C1015 C1014 1.373 . S
C1015 C1031 1.377 . S
C1016 C1014 1.389 . S
C1016 C1017 1.524 . S
C1016 C1030 1.377 . S
C1017 C1016 1.524 . S
C1017 C1018 1.397 . S
C1017 C1022 1.363 . S
C1018 H995 0.950 . S
C1018 C1017 1.397 . S
C1018 C1019 1.334 . S
C1019 H996 0.950 . S
C1019 C1018 1.334 . S
C1019 C1020 1.287 . S
C1020 C1019 1.287 . S
C1020 C1021 1.524 . S
C1020 H1039 0.913 . S
C1021 H997 0.950 . S
C1021 C1020 1.524 . S
C1021 C1022 1.415 . S
C1022 H998 0.950 . S
C1022 C1017 1.363 . S
C1022 C1021 1.415 . S
C1023 H999 0.951 . S
C1023 C1024 1.366 . S
C1023 C1025 1.388 . S
C1024 C1023 1.366 . S
C1024 C1028 1.385 . S
C1025 H1000 0.951 . S
C1025 C1023 1.388 . S
C1025 C1026 1.366 . S
C1026 C1025 1.366 . S
C1026 C1027 1.414 . S
C1026 C1029 1.499 . S
C1027 H1001 0.950 . S
C1027 C1026 1.414 . S
C1027 C1028 1.374 . S
C1028 H1002 0.950 . S
C1028 C1024 1.385 . S
C1028 C1027 1.374 . S
C1029 C1026 1.499 . S
C1029 C1030 1.373 . S
C1029 C1031 1.389 . S
C1030 H1003 0.950 . S
C1030 C1016 1.377 . S
C1030 C1029 1.373 . S
C1031 C1015 1.377 . S
C1031 C1029 1.389 . S
C1031 C1032 1.524 . S
C1032 C1031 1.524 . S
C1032 C1033 1.397 . S
C1032 C1037 1.363 . S
C1033 H1004 0.950 . S
C1033 C1032 1.397 . S
C1033 C1034 1.334 . S
C1034 H1005 0.950 . S
C1034 C1033 1.334 . S
C1034 C1035 1.287 . S
C1035 C1034 1.287 . S
C1035 C1036 1.524 . S
C1035 H1038 0.999 . S
C1036 H1006 0.950 . S
C1036 C1035 1.524 . S
C1036 C1037 1.415 . S
C1037 H1007 0.950 . S
C1037 C1032 1.363 . S
C1037 C1036 1.415 . S
H1038 C1035 0.999 . S
H1039 C1020 0.913 . S
H1040 C1058 0.951 . S
H1041 C1060 0.951 . S
H1042 C1062 0.950 . S
H1043 C1063 0.950 1_655 S
H1044 C1065 0.950 . S
H1045 C1068 0.950 . S
H1046 C1069 0.950 . S
H1047 C1071 0.950 . S
H1048 C1072 0.950 . S
H1049 C1073 0.951 . S
H1050 C1075 0.951 . S
H1051 C1077 0.950 . S
H1052 C1078 0.950 . S
H1053 C1080 0.950 . S
H1054 C1083 0.950 . S
H1055 C1084 0.950 . S
H1056 C1086 0.950 . S
H1057 C1087 0.950 . S
C1058 H1040 0.951 . S
C1058 C1059 1.366 . S
C1058 C1060 1.388 . S
C1059 C1058 1.366 . S
C1059 C1063 1.385 . S
C1060 H1041 0.951 . S
C1060 C1058 1.388 . S
C1060 C1061 1.366 1_455 S
C1061 C1060 1.366 1_655 S
C1061 C1062 1.414 . S
C1061 C1064 1.499 . S
C1062 H1042 0.950 . S
C1062 C1061 1.414 . S
C1062 C1063 1.374 1_655 S
C1063 H1043 0.950 1_455 S
C1063 C1059 1.385 . S
C1063 C1062 1.374 1_455 S
C1064 C1061 1.499 . S
C1064 C1065 1.373 . S
C1064 C1066 1.389 . S
C1065 H1044 0.950 . S
C1065 C1064 1.373 . S
C1065 C1081 1.377 . S
C1066 C1064 1.389 . S
C1066 C1067 1.524 . S
C1066 C1080 1.377 . S
C1067 C1066 1.524 . S
C1067 C1068 1.397 . S
C1067 C1072 1.363 . S
C1068 H1045 0.950 . S
C1068 C1067 1.397 . S
C1068 C1069 1.334 . S
C1069 H1046 0.950 . S
C1069 C1068 1.334 . S
C1069 C1070 1.287 . S
C1070 C1069 1.287 . S
C1070 C1071 1.524 . S
C1070 H1089 0.913 . S
C1071 H1047 0.950 . S
C1071 C1070 1.524 . S
C1071 C1072 1.415 . S
C1072 H1048 0.950 . S
C1072 C1067 1.363 . S
C1072 C1071 1.415 . S
C1073 H1049 0.951 . S
C1073 C1074 1.366 . S
C1073 C1075 1.388 . S
C1074 C1073 1.366 . S
C1074 C1078 1.385 . S
C1075 H1050 0.951 . S
C1075 C1073 1.388 . S
C1075 C1076 1.366 . S
C1076 C1075 1.366 . S
C1076 C1077 1.414 . S
C1076 C1079 1.499 . S
C1077 H1051 0.950 . S
C1077 C1076 1.414 . S
C1077 C1078 1.374 . S
C1078 H1052 0.950 . S
C1078 C1074 1.385 . S
C1078 C1077 1.374 . S
C1079 C1076 1.499 . S
C1079 C1080 1.373 . S
C1079 C1081 1.389 . S
C1080 H1053 0.950 . S
C1080 C1066 1.377 . S
C1080 C1079 1.373 . S
C1081 C1065 1.377 . S
C1081 C1079 1.389 . S
C1081 C1082 1.524 . S
C1082 C1081 1.524 . S
C1082 C1083 1.397 . S
C1082 C1087 1.363 . S
C1083 H1054 0.950 . S
C1083 C1082 1.397 . S
C1083 C1084 1.334 . S
C1084 H1055 0.950 . S
C1084 C1083 1.334 . S
C1084 C1085 1.287 . S
C1085 C1084 1.287 . S
C1085 C1086 1.524 . S
C1085 H1088 0.999 . S
C1086 H1056 0.950 . S
C1086 C1085 1.524 . S
C1086 C1087 1.415 . S
C1087 H1057 0.950 . S
C1087 C1082 1.363 . S
C1087 C1086 1.415 . S
H1088 C1085 0.999 . S
H1089 C1070 0.913 . S
H1090 C1108 0.951 . S
H1091 C1110 0.951 1_565 S
H1092 C1112 0.950 . S
H1093 C1113 0.950 . S
H1094 C1115 0.950 1_545 S
H1095 C1118 0.950 . S
H1096 C1119 0.950 . S
H1097 C1121 0.950 . S
H1098 C1122 0.950 . S
H1099 C1123 0.951 . S
H1100 C1125 0.951 . S
H1101 C1127 0.950 . S
H1102 C1128 0.950 . S
H1103 C1130 0.950 . S
H1104 C1133 0.950 . S
H1105 C1134 0.950 . S
H1106 C1136 0.950 . S
H1107 C1137 0.950 . S
C1108 H1090 0.951 . S
C1108 C1109 1.366 . S
C1108 C1110 1.388 . S
C1109 C1108 1.366 . S
C1109 C1113 1.385 . S
C1110 H1091 0.951 1_545 S
C1110 C1108 1.388 . S
C1110 C1111 1.366 1_545 S
C1111 C1110 1.366 1_565 S
C1111 C1112 1.414 . S
C1111 C1114 1.499 . S
C1112 H1092 0.950 . S
C1112 C1111 1.414 . S
C1112 C1113 1.374 1_565 S
C1113 H1093 0.950 . S
C1113 C1109 1.385 . S
C1113 C1112 1.374 1_545 S
C1114 C1111 1.499 . S
C1114 C1115 1.373 . S
C1114 C1116 1.389 . S
C1115 H1094 0.950 1_565 S
C1115 C1114 1.373 . S
C1115 C1131 1.377 . S
C1116 C1114 1.389 . S
C1116 C1117 1.524 . S
C1116 C1130 1.377 . S
C1117 C1116 1.524 . S
C1117 C1118 1.397 . S
C1117 C1122 1.363 . S
C1118 H1095 0.950 . S
C1118 C1117 1.397 . S
C1118 C1119 1.334 . S
C1119 H1096 0.950 . S
C1119 C1118 1.334 . S
C1119 C1120 1.287 . S
C1120 C1119 1.287 . S
C1120 C1121 1.524 . S
C1120 H1139 0.913 . S
C1121 H1097 0.950 . S
C1121 C1120 1.524 . S
C1121 C1122 1.415 . S
C1122 H1098 0.950 . S
C1122 C1117 1.363 . S
C1122 C1121 1.415 . S
C1123 H1099 0.951 . S
C1123 C1124 1.366 . S
C1123 C1125 1.388 . S
C1124 C1123 1.366 . S
C1124 C1128 1.385 . S
C1125 H1100 0.951 . S
C1125 C1123 1.388 . S
C1125 C1126 1.366 . S
C1126 C1125 1.366 . S
C1126 C1127 1.414 . S
C1126 C1129 1.499 . S
C1127 H1101 0.950 . S
C1127 C1126 1.414 . S
C1127 C1128 1.374 . S
C1128 H1102 0.950 . S
C1128 C1124 1.385 . S
C1128 C1127 1.374 . S
C1129 C1126 1.499 . S
C1129 C1130 1.373 . S
C1129 C1131 1.389 . S
C1130 H1103 0.950 . S
C1130 C1116 1.377 . S
C1130 C1129 1.373 . S
C1131 C1115 1.377 . S
C1131 C1129 1.389 . S
C1131 C1132 1.524 . S
C1132 C1131 1.524 . S
C1132 C1133 1.397 . S
C1132 C1137 1.363 . S
C1133 H1104 0.950 . S
C1133 C1132 1.397 . S
C1133 C1134 1.334 1_565 S
C1134 H1105 0.950 . S
C1134 C1133 1.334 1_545 S
C1134 C1135 1.287 . S
C1135 C1134 1.287 . S
C1135 C1136 1.524 . S
C1135 H1138 0.999 . S
C1136 H1106 0.950 . S
C1136 C1135 1.524 . S
C1136 C1137 1.415 1_545 S
C1137 H1107 0.950 . S
C1137 C1132 1.363 . S
C1137 C1136 1.415 1_565 S
H1138 C1135 0.999 . S
H1139 C1120 0.913 . S
C259 C172 1.132 . S
C274 C8 1.129 . S
C309 C212 1.132 . S
C324 C48 1.129 . S
C359 C12 1.133 . S
C374 C88 1.129 . S
C409 C52 1.132 . S
C424 C128 1.129 . S
C459 C92 1.132 . S
C474 C168 1.129 . S
C509 C132 1.133 . S
C524 C208 1.129 . S
C559 C17 0.611 . S
C574 C137 0.611 . S
C609 C177 0.612 . S
C624 C57 0.612 . S
C659 C217 0.613 . S
C674 C97 0.613 . S
C709 C82 0.572 . S
C724 C202 0.571 . S
C759 C2 0.572 . S
C774 C122 0.572 . S
C809 C162 0.572 . S
C824 C42 0.572 . S
C859 C231 1.135 . S
C874 C29 1.137 . S
C909 C69 1.137 . S
C924 C31 1.134 . S
C959 C109 1.137 . S
C974 C71 1.134 . S
C1009 C111 1.134 . S
C1024 C149 1.138 . S
C1059 C189 1.137 . S
C1074 C151 1.134 . S
C1109 C229 1.137 . S
C1124 C191 1.134 . S
