# Generated by pormake.
# Topology ske, (6)-cn, num edge types: 1
# Building blocks:
#     Node 0, Type 0, BuildingBlock: JUFBIX_clean_sbu_0, # of connection points: 6
#     Node 1, Type 0, BuildingBlock: JUFBIX_clean_sbu_0, # of connection points: 6
#     Node 2, Type 0, BuildingBlock: JUFBIX_clean_sbu_0, # of connection points: 6
#     Node 3, Type 0, BuildingBlock: JUFBIX_clean_sbu_0, # of connection points: 6
#     Node 4, Type 0, BuildingBlock: JUFBIX_clean_sbu_0, # of connection points: 6
#     Node 5, Type 0, BuildingBlock: JUFBIX_clean_sbu_0, # of connection points: 6
#     Node 6, Type 0, BuildingBlock: JUFBIX_clean_sbu_0, # of connection points: 6
#     Node 7, Type 0, BuildingBlock: JUFBIX_clean_sbu_0, # of connection points: 6
#     Edge 8, Type (0, 0), BuildingBlock: KIFKEQ_clean_linker_1, # of connection points: 2
#     Edge 9, Type (0, 0), BuildingBlock: KIFKEQ_clean_linker_1, # of connection points: 2
#     Edge 10, Type (0, 0), BuildingBlock: KIFKEQ_clean_linker_1, # of connection points: 2
#     Edge 11, Type (0, 0), BuildingBlock: KIFKEQ_clean_linker_1, # of connection points: 2
#     Edge 12, Type (0, 0), BuildingBlock: KIFKEQ_clean_linker_1, # of connection points: 2
#     Edge 13, Type (0, 0), BuildingBlock: KIFKEQ_clean_linker_1, # of connection points: 2
#     Edge 14, Type (0, 0), BuildingBlock: KIFKEQ_clean_linker_1, # of connection points: 2
#     Edge 15, Type (0, 0), BuildingBlock: KIFKEQ_clean_linker_1, # of connection points: 2
#     Edge 16, Type (0, 0), BuildingBlock: KIFKEQ_clean_linker_1, # of connection points: 2
#     Edge 17, Type (0, 0), BuildingBlock: KIFKEQ_clean_linker_1, # of connection points: 2
#     Edge 18, Type (0, 0), BuildingBlock: KIFKEQ_clean_linker_1, # of connection points: 2
#     Edge 19, Type (0, 0), BuildingBlock: KIFKEQ_clean_linker_1, # of connection points: 2
#     Edge 20, Type (0, 0), BuildingBlock: KIFKEQ_clean_linker_1, # of connection points: 2
#     Edge 21, Type (0, 0), BuildingBlock: KIFKEQ_clean_linker_1, # of connection points: 2
#     Edge 22, Type (0, 0), BuildingBlock: KIFKEQ_clean_linker_1, # of connection points: 2
#     Edge 23, Type (0, 0), BuildingBlock: KIFKEQ_clean_linker_1, # of connection points: 2
#     Edge 24, Type (0, 0), BuildingBlock: KIFKEQ_clean_linker_1, # of connection points: 2
#     Edge 25, Type (0, 0), BuildingBlock: KIFKEQ_clean_linker_1, # of connection points: 2
#     Edge 26, Type (0, 0), BuildingBlock: KIFKEQ_clean_linker_1, # of connection points: 2
#     Edge 27, Type (0, 0), BuildingBlock: KIFKEQ_clean_linker_1, # of connection points: 2
#     Edge 28, Type (0, 0), BuildingBlock: KIFKEQ_clean_linker_1, # of connection points: 2
#     Edge 29, Type (0, 0), BuildingBlock: KIFKEQ_clean_linker_1, # of connection points: 2
#     Edge 30, Type (0, 0), BuildingBlock: KIFKEQ_clean_linker_1, # of connection points: 2
#     Edge 31, Type (0, 0), BuildingBlock: KIFKEQ_clean_linker_1, # of connection points: 2
# Relax obj value: 0.257
# Max RMSD: 0.149
# Mean RMSD: 0.140
data_MOF--net-ske--node1-JUFBIX_clean_sbu_0--edge1-KIFKEQ_clean_linker_1
_symmetry_space_group_name_H-M    P1
_symmetry_Int_Tables_number       1
_symmetry_cell_setting            triclinic
loop_
_symmetry_equiv_pos_as_xyz
'x, y, z'
_cell_length_a     67.95322
_cell_length_b     29.999605
_cell_length_c     15.987331
_cell_angle_alpha  89.81259
_cell_angle_beta   92.412916
_cell_angle_gamma 92.544535
loop_
_atom_site_label
_atom_site_type_symbol
_atom_site_fract_x
_atom_site_fract_y
_atom_site_fract_z
_atom_type_partial_charge
Co0 Co 0.1625 0.25348 0.71647 0.0
C1 C 0.16771 0.33704 0.64166 0.0
Co2 Co 0.17071 0.25122 0.58564 0.0
C3 C 0.15762 0.22224 0.87809 0.0
C4 C 0.13583 0.26938 0.84683 0.0
N5 N 0.15322 0.25449 0.82299 0.0
N6 N 0.14298 0.21334 0.9304 0.0
C7 C 0.12947 0.24392 0.91335 0.0
H8 H 0.17038 0.20217 0.8735 0.0
H9 H 0.12712 0.29284 0.81155 0.0
C10 C 0.16388 0.16713 0.6557 0.0
N11 N 0.17971 0.24596 0.47933 0.0
C12 C 0.17241 0.21348 0.42779 0.0
C13 C 0.19785 0.25665 0.45188 0.0
N14 N 0.18565 0.20088 0.37339 0.0
C15 C 0.20153 0.2289 0.38619 0.0
C16 C 0.20302 0.25356 0.70723 0.0
O17 O 0.16148 0.18905 0.72157 0.0
O18 O 0.16849 0.18814 0.59052 0.0
O19 O 0.19786 0.25052 0.62986 0.0
O20 O 0.18953 0.25595 0.75977 0.0
O21 O 0.17238 0.31396 0.5795 0.0
H22 H 0.2085 0.27944 0.48319 0.0
H23 H 0.15822 0.19653 0.43558 0.0
O24 O 0.16311 0.31742 0.70951 0.0
O25 O 0.13583 0.25074 0.67395 0.0
O26 O 0.1434 0.25191 0.54261 0.0
C27 C 0.13026 0.25045 0.59728 0.0
H28 H 0.11527 0.24507 0.9414 0.0
H29 H 0.21528 0.22734 0.35475 0.0
Co30 Co 0.92342 0.26863 0.56431 0.0
C31 C 0.90362 0.35027 0.5562 0.0
Co32 Co 0.8906 0.26329 0.56123 0.0
C33 C 0.96661 0.25739 0.53815 0.0
C34 C 0.95986 0.31318 0.61312 0.0
N35 N 0.95123 0.27834 0.57019 0.0
N36 N 0.98424 0.27879 0.55834 0.0
C37 C 0.97988 0.31377 0.60536 0.0
H38 H 0.96494 0.22758 0.50008 0.0
H39 H 0.95209 0.33691 0.64864 0.0
C40 C 0.90907 0.18139 0.56191 0.0
N41 N 0.863 0.25485 0.56153 0.0
C42 C 0.85094 0.26627 0.62273 0.0
C43 C 0.85114 0.23145 0.50637 0.0
N44 N 0.8321 0.25036 0.60889 0.0
C45 C 0.83224 0.22869 0.53503 0.0
C46 C 0.90668 0.26541 0.39453 0.0
O47 O 0.92538 0.20438 0.56322 0.0
O48 O 0.89299 0.20135 0.56368 0.0
O49 O 0.89059 0.26207 0.43452 0.0
O50 O 0.92288 0.2689 0.43901 0.0
O51 O 0.88812 0.32518 0.55689 0.0
H52 H 0.85602 0.21592 0.45038 0.0
H53 H 0.85608 0.28432 0.67842 0.0
O54 O 0.92038 0.33276 0.56217 0.0
O55 O 0.92355 0.26817 0.69103 0.0
O56 O 0.89146 0.2646 0.68678 0.0
C57 C 0.90758 0.26645 0.73129 0.0
H58 H 0.99055 0.33771 0.63355 0.0
H59 H 0.8197 0.21128 0.50414 0.0
Co60 Co 0.16464 0.75538 0.57022 0.0
C61 C 0.14526 0.83566 0.57505 0.0
Co62 Co 0.13185 0.74798 0.56658 0.0
C63 C 0.20346 0.75197 0.50205 0.0
C64 C 0.20426 0.79072 0.61423 0.0
N65 N 0.19203 0.76505 0.5642 0.0
N66 N 0.22226 0.76889 0.5104 0.0
C67 C 0.22278 0.79307 0.5816 0.0
H68 H 0.19793 0.73104 0.45056 0.0
H69 H 0.19982 0.80816 0.66897 0.0
C70 C 0.15246 0.66779 0.56799 0.0
N71 N 0.10421 0.73683 0.57396 0.0
C72 C 0.08782 0.75986 0.55364 0.0
C73 C 0.09717 0.70095 0.61637 0.0
N74 N 0.0711 0.73947 0.58252 0.0
C75 C 0.07717 0.70228 0.6211 0.0
C76 C 0.14618 0.75256 0.3999 0.0
O77 O 0.16771 0.69371 0.57115 0.0
O78 O 0.13552 0.68437 0.56263 0.0
O79 O 0.13013 0.7497 0.44002 0.0
O80 O 0.16234 0.75519 0.44447 0.0
O81 O 0.12924 0.81167 0.57145 0.0
H82 H 0.1061 0.67579 0.64545 0.0
H83 H 0.08824 0.7917 0.52158 0.0
O84 O 0.16164 0.81709 0.57145 0.0
O85 O 0.16615 0.75551 0.69688 0.0
O86 O 0.13406 0.74646 0.69228 0.0
C87 C 0.15015 0.75085 0.73693 0.0
H88 H 0.23537 0.81282 0.60663 0.0
H89 H 0.0678 0.67763 0.6516 0.0
Co90 Co 0.88331 0.76441 0.51674 0.0
C91 C 0.88816 0.85011 0.45166 0.0
Co92 Co 0.89113 0.76471 0.38565 0.0
C93 C 0.88222 0.80056 0.67568 0.0
C94 C 0.85747 0.75502 0.65447 0.0
N95 N 0.87524 0.76735 0.62505 0.0
N96 N 0.869 0.81226 0.73094 0.0
C97 C 0.85359 0.78271 0.71994 0.0
H98 H 0.89595 0.81904 0.66563 0.0
H99 H 0.84703 0.73135 0.62426 0.0
C100 C 0.88767 0.67971 0.45741 0.0
N101 N 0.89944 0.76614 0.27762 0.0
C102 C 0.89478 0.7999 0.22631 0.0
C103 C 0.91641 0.75132 0.2493 0.0
N104 N 0.90892 0.80966 0.17199 0.0
C105 C 0.92231 0.77822 0.18403 0.0
C106 C 0.92398 0.76798 0.49895 0.0
O107 O 0.88409 0.70217 0.52187 0.0
O108 O 0.89025 0.69993 0.3879 0.0
O109 O 0.91782 0.76534 0.42332 0.0
O110 O 0.91124 0.76888 0.55527 0.0
O111 O 0.89272 0.82983 0.38642 0.0
H112 H 0.92519 0.72654 0.28058 0.0
H113 H 0.88216 0.8199 0.23479 0.0
O114 O 0.88266 0.82706 0.51303 0.0
O115 O 0.85584 0.75986 0.47683 0.0
O116 O 0.86381 0.76423 0.34608 0.0
C117 C 0.85046 0.7612 0.39964 0.0
H118 H 0.83989 0.78329 0.75193 0.0
H119 H 0.93613 0.77699 0.15302 0.0
Co120 Co 0.66262 0.74982 0.23241 0.0
C121 C 0.66746 0.83485 0.16141 0.0
Co122 Co 0.6709 0.74966 0.10169 0.0
C123 C 0.65827 0.71505 0.39177 0.0
C124 C 0.63705 0.76437 0.36719 0.0
N125 N 0.65398 0.74882 0.33988 0.0
N126 N 0.64393 0.70601 0.44549 0.0
C127 C 0.63079 0.7379 0.43249 0.0
H128 H 0.67079 0.69459 0.38428 0.0
H129 H 0.62853 0.78939 0.33524 0.0
C130 C 0.6649 0.66406 0.16617 0.0
N131 N 0.67922 0.7463 0.99378 0.0
C132 C 0.67165 0.71412 0.94213 0.0
C133 C 0.69732 0.75664 0.96562 0.0
N134 N 0.68474 0.70106 0.8875 0.0
C135 C 0.70076 0.72874 0.89988 0.0
C136 C 0.70338 0.75108 0.22041 0.0
O137 O 0.66115 0.68449 0.23244 0.0
O138 O 0.67004 0.68695 0.10406 0.0
O139 O 0.6982 0.75056 0.14297 0.0
O140 O 0.6899 0.7509 0.27344 0.0
O141 O 0.67175 0.8123 0.098 0.0
H142 H 0.70819 0.77891 0.99693 0.0
H143 H 0.65751 0.69717 0.95104 0.0
O144 O 0.66335 0.81447 0.22928 0.0
O145 O 0.63608 0.74883 0.19347 0.0
O146 O 0.64305 0.74859 0.06168 0.0
C147 C 0.63015 0.74828 0.11748 0.0
H148 H 0.61692 0.73974 0.46288 0.0
H149 H 0.71451 0.72657 0.86874 0.0
Co150 Co 0.42239 0.77046 1.04657 0.0
C151 C 0.40218 0.85144 1.0443 0.0
Co152 Co 0.38958 0.76444 1.04501 0.0
C153 C 0.46641 0.7579 0.06015 0.0
C154 C 0.45715 0.81602 0.99452 0.0
N155 N 0.45007 0.78085 1.03878 0.0
N156 N 0.48315 0.77768 1.03014 0.0
C157 C 0.47714 0.81438 0.98977 0.0
H158 H 0.46595 0.72653 0.09379 0.0
H159 H 0.44827 0.84083 0.96409 0.0
C160 C 0.4084 0.68326 1.04362 0.0
N161 N 0.36212 0.75539 1.05075 0.0
C162 C 0.35063 0.76714 0.11375 0.0
C163 C 0.34981 0.73155 0.99795 0.0
N164 N 0.33173 0.75108 0.10321 0.0
C165 C 0.33123 0.7289 1.02973 0.0
C166 C 0.40407 0.76744 0.87724 0.0
O167 O 0.42463 0.70646 1.04391 0.0
O168 O 0.39226 0.70288 1.04575 0.0
O169 O 0.3881 0.76382 0.91779 0.0
O170 O 0.42023 0.77098 0.9214 0.0
O171 O 0.38681 0.82596 1.04356 0.0
H172 H 0.35419 0.7158 0.94131 0.0
H173 H 0.35625 0.78568 0.16818 0.0
O174 O 0.41902 0.83432 1.04793 0.0
O175 O 0.42409 0.76974 0.17364 0.0
O176 O 0.39188 0.76514 0.17024 0.0
C177 C 0.40809 0.76743 0.21429 0.0
H178 H 0.48652 0.83849 0.95801 0.0
H179 H 0.31845 0.71133 1.00106 0.0
Co180 Co 0.66156 0.25118 1.05329 0.0
C181 C 0.64302 0.33292 1.05446 0.0
Co182 Co 0.62877 0.24542 1.05146 0.0
C183 C 0.701 0.24694 0.99177 0.0
C184 C 0.70103 0.28473 0.1049 0.0
N185 N 0.6891 0.25971 1.0525 0.0
N186 N 0.7198 0.2635 1.00315 0.0
C187 C 0.71983 0.28704 0.075 0.0
H188 H 0.6958 0.22665 0.93888 0.0
H189 H 0.6962 0.30193 0.1592 0.0
C190 C 0.64877 0.16387 0.05704 0.0
N191 N 0.60095 0.23553 1.04602 0.0
C192 C 0.58552 0.25707 0.0764 0.0
C193 C 0.59234 0.20005 1.0049 0.0
N194 N 0.5679 0.23545 0.05698 0.0
C195 C 0.57231 0.1997 1.01212 0.0
C196 C 0.6445 0.24827 0.88385 0.0
O197 O 0.6641 0.18933 1.05346 0.0
O198 O 0.63194 0.18115 1.05571 0.0
O199 O 0.62859 0.24466 0.92443 0.0
O200 O 0.66062 0.2519 0.92805 0.0
O201 O 0.62672 0.30984 1.05086 0.0
H202 H 0.60013 0.17578 0.97079 0.0
H203 H 0.58716 0.28753 0.1126 0.0
O204 O 0.65912 0.31303 1.05428 0.0
O205 O 0.66171 0.25046 0.18032 0.0
O206 O 0.62938 0.24632 0.17646 0.0
C207 C 0.64564 0.24845 0.22063 0.0
H208 H 0.73227 0.30646 0.10217 0.0
H209 H 0.56167 0.1754 0.98482 0.0
Co210 Co 0.38123 0.26536 1.01775 0.0
C211 C 0.38749 0.35127 0.95371 0.0
Co212 Co 0.39069 0.26658 0.88851 0.0
C213 C 0.37939 0.30039 0.1771 0.0
C214 C 0.3539 0.2577 0.15104 0.0
N215 N 0.3721 0.26846 0.12434 0.0
N216 N 0.36608 0.3128 0.23127 0.0
C217 C 0.35016 0.28504 0.21731 0.0
H218 H 0.39355 0.31757 0.16966 0.0
H219 H 0.34322 0.23541 0.11866 0.0
C220 C 0.38545 0.18124 0.95742 0.0
N221 N 0.40011 0.26811 0.78235 0.0
C222 C 0.39516 0.30078 0.72903 0.0
C223 C 0.41769 0.25497 0.75736 0.0
N224 N 0.40955 0.31144 0.67647 0.0
C225 C 0.42355 0.28172 0.69176 0.0
C226 C 0.4222 0.26847 1.00879 0.0
O227 O 0.38046 0.203 1.02067 0.0
O228 O 0.39027 0.20227 0.89119 0.0
O229 O 0.41716 0.26867 0.93167 0.0
O230 O 0.40867 0.26637 0.06173 0.0
O231 O 0.39173 0.33099 0.88818 0.0
H232 H 0.42677 0.23158 0.79102 0.0
H233 H 0.38206 0.31958 0.73485 0.0
O234 O 0.38204 0.32841 1.01551 0.0
O235 O 0.3543 0.26401 0.97319 0.0
O236 O 0.36351 0.26492 0.84395 0.0
C237 C 0.34964 0.26384 0.89529 0.0
H238 H 0.33631 0.28677 0.24789 0.0
H239 H 0.43765 0.28174 0.66271 0.0
H240 H 0.22006 0.27466 0.86245 0.0
H241 H 0.23488 0.23541 0.61446 0.0
H242 H 0.25491 0.27846 0.90571 0.0
H243 H 0.26967 0.23694 0.65826 0.0
H244 H 0.33331 0.27904 0.73687 0.0
H245 H 0.29847 0.27772 0.69207 0.0
H246 H 0.28264 0.24103 0.94294 0.0
H247 H 0.31727 0.24459 0.9878 0.0
C248 C 0.23074 0.26636 0.81722 0.0
C249 C 0.22448 0.25473 0.73481 0.0
C250 C 0.2509 0.26821 0.84223 0.0
C251 C 0.26557 0.2579 0.78607 0.0
C252 C 0.25917 0.246 0.70363 0.0
C253 C 0.23904 0.24471 0.6784 0.0
C254 C 0.32237 0.27076 0.78244 0.0
C255 C 0.32828 0.26209 0.86617 0.0
C256 C 0.30224 0.26967 0.75662 0.0
C257 C 0.28728 0.2593 0.8134 0.0
C258 C 0.29335 0.25017 0.897 0.0
C259 C 0.31341 0.25185 0.92291 0.0
H260 H 0.75916 0.27528 1.04099 0.0
H261 H 0.71737 0.24513 0.83577 0.0
H262 H 0.78614 0.27254 0.94567 0.0
H263 H 0.74432 0.24229 0.74075 0.0
H264 H 0.79876 0.19618 0.61043 0.0
H265 H 0.77183 0.19899 0.70529 0.0
H266 H 0.80103 0.31233 0.83076 0.0
H267 H 0.82803 0.3097 0.73557 0.0
C268 C 0.75565 0.26827 0.97561 0.0
C269 C 0.73592 0.26038 0.94677 0.0
C270 C 0.77119 0.26678 0.92066 0.0
C271 C 0.76753 0.25726 0.83507 0.0
C272 C 0.74783 0.24906 0.80631 0.0
C273 C 0.73228 0.25063 0.86119 0.0
C274 C 0.79945 0.22212 0.65739 0.0
C275 C 0.81578 0.25275 0.66453 0.0
C276 C 0.7839 0.22369 0.71218 0.0
C277 C 0.78414 0.25586 0.77616 0.0
C278 C 0.80041 0.28659 0.78328 0.0
C279 C 0.81596 0.2851 0.72832 0.0
H280 H 0.29846 0.69704 0.11086 0.0
H281 H 0.32866 0.81156 0.22885 0.0
H282 H 0.27223 0.70103 0.20884 0.0
H283 H 0.30235 0.81539 0.32718 0.0
H284 H 0.26181 0.781 0.54338 0.0
H285 H 0.28813 0.7771 0.44511 0.0
H286 H 0.24505 0.74484 0.24583 0.0
H287 H 0.21875 0.7488 0.34386 0.0
C288 C 0.2995 0.72344 0.15691 0.0
C289 C 0.31587 0.75402 0.16107 0.0
C290 C 0.28435 0.7257 0.2135 0.0
C291 C 0.28504 0.75854 0.27636 0.0
C292 C 0.30138 0.78917 0.2806 0.0
C293 C 0.31653 0.78699 0.22384 0.0
C294 C 0.25788 0.77332 0.4786 0.0
C295 C 0.23799 0.7652 0.45223 0.0
C296 C 0.27304 0.77115 0.42195 0.0
C297 C 0.26883 0.76072 0.33708 0.0
C298 C 0.24897 0.75232 0.31078 0.0
C299 C 0.2338 0.75454 0.36738 0.0
H300 H 0.72054 0.76817 0.37721 0.0
H301 H 0.73514 0.73631 0.12506 0.0
H302 H 0.75548 0.77168 0.41955 0.0
H303 H 0.76995 0.73748 0.16765 0.0
H304 H 0.83327 0.7799 0.24502 0.0
H305 H 0.79834 0.77856 0.20325 0.0
H306 H 0.78378 0.73491 0.45197 0.0
H307 H 0.81865 0.73856 0.49423 0.0
C308 C 0.73119 0.76145 0.33083 0.0
C309 C 0.72485 0.75207 0.24753 0.0
C310 C 0.75139 0.76314 0.35527 0.0
C311 C 0.766 0.75489 0.29752 0.0
C312 C 0.75951 0.74504 0.21428 0.0
C313 C 0.73936 0.74396 0.1897 0.0
C314 C 0.82261 0.77005 0.29084 0.0
C315 C 0.82895 0.7594 0.37317 0.0
C316 C 0.80241 0.76893 0.26669 0.0
C317 C 0.78777 0.75649 0.32368 0.0
C318 C 0.79425 0.74554 0.40601 0.0
C319 C 0.81443 0.74727 0.43038 0.0
H320 H 0.11599 0.89562 0.54461 0.0
H321 H 0.17569 0.88548 0.64477 0.0
H322 H 0.11837 0.9766 0.57118 0.0
H323 H 0.17787 0.96504 0.67192 0.0
H324 H 0.16963 0.10348 0.77689 0.0
H325 H 0.16244 0.02274 0.76382 0.0
H326 H 0.13995 0.04171 0.51016 0.0
H327 H 0.147 0.12194 0.52365 0.0
C328 C 0.1295 0.91053 0.57259 0.0
C329 C 0.1457 0.88426 0.5916 0.0
C330 C 0.13087 0.95671 0.58779 0.0
C331 C 0.14829 0.97697 0.62413 0.0
C332 C 0.1642 0.95036 0.6449 0.0
C333 C 0.16298 0.90476 0.62836 0.0
C334 C 0.16299 0.09028 0.71888 0.0
C335 C 0.15921 0.11866 0.65079 0.0
C336 C 0.1589 0.04423 0.71122 0.0
C337 C 0.15062 0.02601 0.63589 0.0
C338 C 0.14618 0.05477 0.56907 0.0
C339 C 0.15053 0.10055 0.57634 0.0
H340 H 0.87219 0.39202 0.48631 0.0
H341 H 0.93134 0.41809 0.58958 0.0
H342 H 0.86937 0.47135 0.45582 0.0
H343 H 0.92822 0.498 0.56074 0.0
H344 H 0.89895 0.63658 0.59933 0.0
H345 H 0.90399 0.5573 0.61937 0.0
H346 H 0.88776 0.53306 0.3592 0.0
H347 H 0.88317 0.61336 0.33806 0.0
C348 C 0.88456 0.41473 0.50306 0.0
C349 C 0.90196 0.3988 0.54105 0.0
C350 C 0.88298 0.46007 0.48474 0.0
C351 C 0.8986 0.49069 0.5055 0.0
C352 C 0.91597 0.47498 0.54404 0.0
C353 C 0.91773 0.42936 0.56069 0.0
C354 C 0.89644 0.61446 0.54612 0.0
C355 C 0.8905 0.6312 0.4671 0.0
C356 C 0.89951 0.56912 0.55765 0.0
C357 C 0.89632 0.53914 0.49091 0.0
C358 C 0.89031 0.5556 0.41172 0.0
C359 C 0.88769 0.60141 0.3996 0.0
H360 H 0.87449 0.90004 0.5754 0.0
H361 H 0.90829 0.9112 0.3529 0.0
H362 H 0.88175 0.97803 0.60595 0.0
H363 H 0.91491 0.9911 0.38175 0.0
H364 H 0.93756 0.12483 0.51164 0.0
H365 H 0.93294 0.04454 0.4811 0.0
H366 H 0.8725 0.04808 0.55352 0.0
H367 H 0.8772 0.12636 0.58603 0.0
C368 C 0.88333 0.91934 0.53228 0.0
C369 C 0.89081 0.89924 0.46169 0.0
C370 C 0.88743 0.96436 0.54965 0.0
C371 C 0.89889 0.99113 0.49628 0.0
C372 C 0.90622 0.97134 0.42471 0.0
C373 C 0.90218 0.92578 0.40747 0.0
C374 C 0.92345 0.10806 0.5224 0.0
C375 C 0.90782 0.13207 0.55183 0.0
C376 C 0.9207 0.06227 0.50382 0.0
C377 C 0.90233 0.03971 0.51486 0.0
C378 C 0.88693 0.06389 0.5454 0.0
C379 C 0.88965 0.10912 0.56386 0.0
H380 H 0.12587 0.60016 0.52041 0.0
H381 H 0.18376 0.62554 0.63724 0.0
H382 H 0.12963 0.5196 0.53896 0.0
H383 H 0.18715 0.54547 0.65775 0.0
H384 H 0.16967 0.40102 0.76427 0.0
H385 H 0.16577 0.48156 0.74611 0.0
H386 H 0.15705 0.46294 0.47951 0.0
H387 H 0.1615 0.38299 0.49685 0.0
C388 C 0.13934 0.58857 0.55001 0.0
C389 C 0.15456 0.6191 0.5768 0.0
C390 C 0.14148 0.54263 0.5606 0.0
C391 C 0.15864 0.52661 0.60012 0.0
C392 C 0.17375 0.5571 0.62761 0.0
C393 C 0.17183 0.60284 0.61525 0.0
C394 C 0.16705 0.41423 0.70184 0.0
C395 C 0.16604 0.3858 0.63198 0.0
C396 C 0.16481 0.46015 0.69151 0.0
C397 C 0.16101 0.47815 0.61146 0.0
C398 C 0.15984 0.44973 0.54183 0.0
C399 C 0.16255 0.40411 0.55185 0.0
H400 H 0.64464 0.60321 0.26549 0.0
H401 H 0.678 0.61389 1.04172 0.0
H402 H 0.63764 0.52338 0.23642 0.0
H403 H 0.67034 0.53611 1.01093 0.0
H404 H 0.67481 0.38796 1.03003 0.0
H405 H 0.67963 0.4661 0.0632 0.0
H406 H 0.61931 0.46978 0.13705 0.0
H407 H 0.61457 0.38951 0.10582 0.0
C408 C 0.65056 0.58855 0.2106 0.0
C409 C 0.66193 0.61494 0.15609 0.0
C410 C 0.64631 0.54304 0.19322 0.0
C411 C 0.65341 0.52316 0.12124 0.0
C412 C 0.66483 0.54982 0.06755 0.0
C413 C 0.66915 0.59474 0.08505 0.0
C414 C 0.66241 0.40519 1.05265 0.0
C415 C 0.64424 0.38226 0.06483 0.0
C416 C 0.66519 0.45036 0.0715 0.0
C417 C 0.64986 0.47457 0.10258 0.0
C418 C 0.63149 0.45204 0.11386 0.0
C419 C 0.62868 0.40627 0.09486 0.0
H420 H 0.43082 0.91555 1.00925 0.0
H421 H 0.36881 0.89743 1.0563 0.0
H422 H 0.42643 0.99517 0.98392 0.0
H423 H 0.36447 0.97635 1.03042 0.0
H424 H 0.36971 0.12699 0.076 0.0
H425 H 0.37435 0.04788 0.09773 0.0
H426 H 0.40927 0.04498 0.87844 0.0
H427 H 0.40475 0.12493 0.85678 0.0
C428 C 0.41632 0.92856 1.0148 0.0
C429 C 0.40019 0.90019 1.03509 0.0
C430 C 0.41377 0.97401 0.99941 0.0
C431 C 0.39509 0.99197 1.00489 0.0
C432 C 0.37907 0.96363 1.02636 0.0
C433 C 0.38157 0.91834 1.04107 0.0
C434 C 0.37826 0.10953 1.03187 0.0
C435 C 0.38683 0.13226 0.9645 0.0
C436 C 0.38088 0.06411 1.04429 0.0
C437 C 0.39222 0.04021 0.98998 0.0
C438 C 0.40062 0.06268 0.92184 0.0
C439 C 0.39786 0.10828 0.90891 0.0
H440 H 0.37453 0.40253 0.07713 0.0
H441 H 0.40746 0.41054 0.85195 0.0
H442 H 0.38211 0.48092 0.10394 0.0
H443 H 0.41429 0.49062 0.87663 0.0
H444 H 0.43703 0.62636 0.99645 0.0
H445 H 0.43267 0.54539 0.9725 0.0
H446 H 0.37232 0.54965 1.04598 0.0
H447 H 0.37675 0.62856 0.07204 0.0
C448 C 0.38331 0.4212 1.03291 0.0
C449 C 0.39044 0.40024 0.9626 0.0
C450 C 0.38756 0.46635 1.04799 0.0
C451 C 0.39879 0.49223 0.99236 0.0
C452 C 0.40581 0.4715 0.92123 0.0
C453 C 0.40164 0.42586 0.90641 0.0
C454 C 0.42299 0.60963 1.00872 0.0
C455 C 0.40729 0.63394 1.03641 0.0
C456 C 0.42041 0.56347 0.99406 0.0
C457 C 0.40214 0.54099 1.00746 0.0
C458 C 0.38667 0.5655 1.03626 0.0
C459 C 0.38923 0.61107 1.05084 0.0
H460 H 0.68199 0.11754 1.04189 0.0
H461 H 0.62072 0.10002 0.10166 0.0
H462 H 0.68682 0.03926 0.07225 0.0
H463 H 0.62559 0.0209 0.13154 0.0
H464 H 0.6486 0.89268 0.26144 0.0
H465 H 0.64352 0.97216 0.23575 0.0
H466 H 0.67705 0.96639 1.01285 0.0
H467 H 0.68223 0.88784 1.03859 0.0
C468 C 0.66947 0.09688 0.06083 0.0
C469 C 0.65093 0.11513 0.06897 0.0
C470 C 0.67225 0.05187 0.07816 0.0
C471 C 0.65661 0.02374 0.10454 0.0
C472 C 0.638 0.04179 0.11226 0.0
C473 C 0.63515 0.08698 0.09424 0.0
C474 C 0.65509 0.90863 0.20768 0.0
C475 C 0.66589 0.88391 0.15232 0.0
C476 C 0.65199 0.95399 0.1924 0.0
C477 C 0.65982 0.97564 0.12205 0.0
C478 C 0.67095 0.95099 0.06799 0.0
C479 C 0.67389 0.90581 0.08275 0.0
H480 H 0.20398 0.18956 0.2283 0.0
H481 H 0.16205 0.12597 0.39096 0.0
H482 H 0.19002 0.14547 0.11239 0.0
H483 H 0.14696 0.0845 0.27291 0.0
H484 H 0.12395 0.20696 0.07527 0.0
H485 H 0.13252 0.15625 0.18793 0.0
H486 H 0.16781 0.08319 1.02201 0.0
H487 H 0.15806 0.13221 0.90761 0.0
C488 C 0.19231 0.16491 0.24021 0.0
C489 C 0.18301 0.16387 0.31665 0.0
C490 C 0.18441 0.13895 0.1739 0.0
C491 C 0.16663 0.11369 0.18312 0.0
C492 C 0.16027 0.10486 0.26384 0.0
C493 C 0.16854 0.12985 0.33073 0.0
C494 C 0.13258 0.17859 0.06163 0.0
C495 C 0.14162 0.17541 0.98504 0.0
C496 C 0.13731 0.14892 0.12584 0.0
C497 C 0.15175 0.11742 0.11426 0.0
C498 C 0.1571 0.10802 1.03284 0.0
C499 C 0.15201 0.13706 0.96819 0.0
H500 H 0.93791 0.28128 0.28829 0.0
H501 H 0.87553 0.2496 0.27559 0.0
H502 H 0.93823 0.28242 0.13598 0.0
H503 H 0.87574 0.24888 0.12297 0.0
H504 H 0.87607 0.27163 0.83741 0.0
H505 H 0.87571 0.27215 0.98974 0.0
H506 H 0.93882 0.25976 1.00294 0.0
H507 H 0.93901 0.26106 0.85034 0.0
C508 C 0.92414 0.27419 0.25333 0.0
C509 C 0.90669 0.26543 0.29731 0.0
C510 C 0.9243 0.27451 0.16392 0.0
C511 C 0.90702 0.26568 0.11206 0.0
C512 C 0.88956 0.2567 0.15674 0.0
C513 C 0.8894 0.25678 0.24625 0.0
C514 C 0.88997 0.26912 0.87242 0.0
C515 C 0.90757 0.26641 0.82851 0.0
C516 C 0.8898 0.26908 0.96184 0.0
C517 C 0.90723 0.2659 1.01376 0.0
C518 C 0.92485 0.26301 0.96913 0.0
C519 C 0.92502 0.26345 0.87963 0.0
H520 H 0.11506 0.7554 0.27789 0.0
H521 H 0.17819 0.74943 0.2965 0.0
H522 H 0.11602 0.75593 0.12527 0.0
H523 H 0.17932 0.74822 0.14457 0.0
H524 H 0.1807 0.76922 0.85826 0.0
H525 H 0.1797 0.77071 1.01081 0.0
H526 H 0.11769 0.73244 0.99292 0.0
H527 H 0.11877 0.73273 0.84089 0.0
C528 C 0.12925 0.75391 0.24993 0.0
C529 C 0.1465 0.75245 0.30265 0.0
C530 C 0.12988 0.7539 0.16044 0.0
C531 C 0.14781 0.75203 0.1175 0.0
C532 C 0.16503 0.75042 0.17105 0.0
C533 C 0.16439 0.7508 0.26031 0.0
C534 C 0.16678 0.76108 0.88652 0.0
C535 C 0.14985 0.75085 0.83416 0.0
C536 C 0.16615 0.76166 0.97599 0.0
C537 C 0.14855 0.75167 1.01928 0.0
C538 C 0.13167 0.7412 0.9661 0.0
C539 C 0.13229 0.741 0.87683 0.0
H540 H 0.84936 0.82575 0.87211 0.0
H541 H 0.89217 0.88809 0.71142 0.0
H542 H 0.86131 0.87419 0.98505 0.0
H543 H 0.90492 0.93465 0.8266 0.0
H544 H 0.92931 0.8197 1.0307 0.0
H545 H 0.92067 0.86951 0.91756 0.0
H546 H 0.88155 0.9366 0.07624 0.0
H547 H 0.89146 0.88889 0.19225 0.0
C548 C 0.86079 0.85086 0.85971 0.0
C549 C 0.8709 0.85047 0.78523 0.0
C550 C 0.86751 0.87943 0.92427 0.0
C551 C 0.88495 0.90598 0.91575 0.0
C552 C 0.89192 0.91322 0.83546 0.0
C553 C 0.88498 0.88527 0.7703 0.0
C554 C 0.91971 0.84653 1.04307 0.0
C555 C 0.90973 0.84793 0.11774 0.0
C556 C 0.91493 0.87582 0.9784 0.0
C557 C 0.8994 0.90488 0.98702 0.0
C558 C 0.89302 0.91331 0.06736 0.0
C559 C 0.89819 0.88478 0.13282 0.0
H560 H 0.66043 0.62571 0.42554 0.0
H561 H 0.62365 0.69769 0.58725 0.0
H562 H 0.66998 0.57783 0.54181 0.0
H563 H 0.63194 0.64781 0.70089 0.0
H564 H 0.6604 0.62719 0.90682 0.0
H565 H 0.64682 0.58171 0.79158 0.0
H566 H 0.69109 0.63897 0.63252 0.0
H567 H 0.70394 0.6863 0.74581 0.0
C568 C 0.65383 0.63038 0.48511 0.0
C569 C 0.64273 0.66794 0.50006 0.0
C570 C 0.6588 0.60181 0.55077 0.0
C571 C 0.65266 0.6109 0.63122 0.0
C572 C 0.6375 0.64094 0.63992 0.0
C573 C 0.63291 0.67022 0.57498 0.0
C574 C 0.66757 0.62943 0.84782 0.0
C575 C 0.68217 0.66308 0.8329 0.0
C576 C 0.66013 0.60211 0.7826 0.0
C577 C 0.66713 0.60886 0.70224 0.0
C578 C 0.68491 0.63413 0.69346 0.0
C579 C 0.69216 0.66203 0.75817 0.0
H580 H 0.37334 0.75085 0.75559 0.0
H581 H 0.43556 0.78417 0.77359 0.0
H582 H 0.37438 0.74979 0.60297 0.0
H583 H 0.4367 0.78491 0.62167 0.0
H584 H 0.43922 0.76306 0.3363 0.0
H585 H 0.43822 0.76205 0.48895 0.0
H586 H 0.37505 0.77263 0.46958 0.0
H587 H 0.37621 0.77188 0.31774 0.0
C588 C 0.38733 0.75834 0.72747 0.0
C589 C 0.40433 0.76755 0.78 0.0
C590 C 0.388 0.75804 0.63799 0.0
C591 C 0.40569 0.76731 0.5949 0.0
C592 C 0.42264 0.77674 0.64828 0.0
C593 C 0.42198 0.77665 0.73752 0.0
C594 C 0.42505 0.76512 0.36427 0.0
C595 C 0.40784 0.76751 0.31156 0.0
C596 C 0.4244 0.76483 0.45377 0.0
C597 C 0.40649 0.7673 0.49669 0.0
C598 C 0.38932 0.7699 0.44313 0.0
C599 C 0.38998 0.7698 0.3539 0.0
H600 H 0.67708 0.24335 0.33992 0.0
H601 H 0.61414 0.25381 0.32655 0.0
H602 H 0.67683 0.24235 0.49256 0.0
H603 H 0.61372 0.25463 0.47877 0.0
H604 H 0.61334 0.23271 0.76467 0.0
H605 H 0.61364 0.23182 0.61205 0.0
H606 H 0.67617 0.26488 0.62562 0.0
H607 H 0.67576 0.26389 0.77788 0.0
C608 C 0.66308 0.24576 0.3691 0.0
C609 C 0.64565 0.24856 0.31785 0.0
C610 C 0.66288 0.24549 0.45863 0.0
C611 C 0.64523 0.24843 0.50311 0.0
C612 C 0.62782 0.2515 0.45103 0.0
C613 C 0.62803 0.25136 0.36165 0.0
C614 C 0.62723 0.23976 0.73544 0.0
C615 C 0.6445 0.24834 0.78663 0.0
C616 C 0.62745 0.23958 0.64593 0.0
C617 C 0.64496 0.24836 0.6014 0.0
C618 C 0.66221 0.25713 0.65342 0.0
C619 C 0.66199 0.25691 0.74281 0.0
H620 H 0.38958 0.38786 0.21253 0.0
H621 H 0.34743 0.32484 0.37518 0.0
H622 H 0.40318 0.43308 0.32805 0.0
H623 H 0.36039 0.37166 0.48931 0.0
H624 H 0.39161 0.38991 0.69536 0.0
H625 H 0.38056 0.43556 0.57809 0.0
H626 H 0.41934 0.36811 0.41833 0.0
H627 H 0.4292 0.32041 0.53338 0.0
C628 C 0.38267 0.3848 0.27203 0.0
C629 C 0.36846 0.35033 0.28696 0.0
C630 C 0.39015 0.41183 0.33754 0.0
C631 C 0.38356 0.4041 0.41826 0.0
C632 C 0.36617 0.37749 0.42791 0.0
C633 C 0.35887 0.34994 0.36272 0.0
C634 C 0.39809 0.38551 0.63544 0.0
C635 C 0.40993 0.34912 0.62095 0.0
C636 C 0.39221 0.41275 0.56913 0.0
C637 C 0.39825 0.4036 0.48858 0.0
C638 C 0.41395 0.37503 0.47958 0.0
C639 C 0.41947 0.34705 0.54531 0.0
H640 H 0.10102 0.21692 0.69299 0.0
H641 H 0.11041 0.27852 0.45281 0.0
H642 H 0.06551 0.21774 0.6666 0.0
H643 H 0.07447 0.27993 0.42662 0.0
H644 H 1.01218 0.33458 0.49709 0.0
H645 H 0.04744 0.32221 0.49172 0.0
H646 H 0.03696 0.18674 0.57605 0.0
H647 H 1.00146 0.1994 0.58028 0.0
C648 C 0.0955 0.23032 0.63395 0.0
C649 C 0.10865 0.24788 0.57517 0.0
C650 C 0.07506 0.23044 0.61856 0.0
C651 C 0.06702 0.2488 0.54442 0.0
C652 C 0.08014 0.2656 0.48454 0.0
C653 C 0.10074 0.26467 0.49932 0.0
C654 C 1.01738 0.30179 0.51215 0.0
C655 C 1.00406 0.2679 0.53874 0.0
C656 C 0.03759 0.29463 0.50895 0.0
C657 C 0.04515 0.25356 0.53391 0.0
C658 C 0.03168 0.2189 0.55684 0.0
C659 C 1.01133 0.22588 0.55852 0.0
H660 H 0.95275 0.76153 0.38689 0.0
H661 H 0.94498 0.7782 0.65146 0.0
H662 H 0.98804 0.7616 0.41119 0.0
H663 H 0.98091 0.77979 0.67602 0.0
H664 H 0.04297 0.72189 0.69488 0.0
H665 H 1.00798 0.7335 0.67836 0.0
H666 H 1.01764 0.80209 0.44458 0.0
H667 H 0.05289 0.78814 0.45959 0.0
C668 C 0.95856 0.76567 0.45064 0.0
C669 C 0.9458 0.76956 0.51734 0.0
C670 C 0.97903 0.76622 0.46446 0.0
C671 C 0.98765 0.77097 0.54555 0.0
C672 C 0.97493 0.77555 0.61258 0.0
C673 C 0.95427 0.77479 0.59866 0.0
C674 C 0.03771 0.73939 0.63965 0.0
C675 C 0.05083 0.75312 0.57752 0.0
C676 C 1.01751 0.74667 0.63076 0.0
C677 C 1.00965 0.76829 0.55959 0.0
C678 C 1.02295 0.78438 0.49953 0.0
C679 C 0.04326 0.77691 0.50841 0.0
H680 H 0.60129 0.75681 0.22823 0.0
H681 H 0.60935 0.73789 0.96444 0.0
H682 H 0.56605 0.75701 0.20309 0.0
H683 H 0.57345 0.73653 0.93905 0.0
H684 H 0.51129 0.79371 0.91714 0.0
H685 H 0.54627 0.78231 0.93449 0.0
H686 H 0.53654 0.71636 0.17083 0.0
H687 H 0.50131 0.73027 0.15503 0.0
C688 C 0.59555 0.75224 0.16447 0.0
C689 C 0.60838 0.74757 0.09825 0.0
C690 C 0.57511 0.75184 0.15019 0.0
C691 C 0.56656 0.74643 0.06909 0.0
C692 C 0.57936 0.74127 1.00248 0.0
C693 C 0.6 0.74193 1.01685 0.0
C694 C 0.51654 0.77687 0.97314 0.0
C695 C 0.50341 0.76392 1.03575 0.0
C696 C 0.53673 0.76969 0.98252 0.0
C697 C 0.54458 0.74891 1.05464 0.0
C698 C 0.53125 0.73348 0.11516 0.0
C699 C 0.51095 0.7409 0.10584 0.0
H700 H 0.44127 0.23792 0.15327 0.0
H701 H 0.45199 0.30387 0.91823 0.0
H702 H 0.47709 0.23535 0.18193 0.0
H703 H 0.48737 0.3018 0.94695 0.0
H704 H 0.55128 0.31574 1.03637 0.0
H705 H 0.51589 0.32972 1.03914 0.0
H706 H 0.50409 0.19372 0.11772 0.0
H707 H 0.53924 0.18009 0.11417 0.0
C708 C 0.45121 0.25253 0.10851 0.0
C709 C 0.4437 0.27084 1.03327 0.0
C710 C 0.47175 0.25091 0.12465 0.0
C711 C 0.48522 0.26846 0.0668 0.0
C712 C 0.47757 0.28846 0.99349 0.0
C713 C 0.45719 0.28931 0.97675 0.0
C714 C 0.54114 0.28937 1.05648 0.0
C715 C 0.54803 0.24686 0.0751 0.0
C716 C 0.52085 0.29714 0.05733 0.0
C717 C 0.50703 0.26274 0.07821 0.0
C718 C 0.51419 0.22111 0.10203 0.0
C719 C 0.53435 0.21322 0.09977 0.0
loop_
_geom_bond_atom_site_label_1
_geom_bond_atom_site_label_2
_geom_bond_distance
_geom_bond_site_symmetry_2
_ccdc_geom_bond_type
Co0 N5 2.057 . S
Co0 O17 2.021 . S
Co0 O20 2.062 . S
Co0 O24 2.117 . S
Co0 O25 2.020 . S
C1 O21 1.259 . S
C1 O24 1.258 . S
Co2 N11 2.057 . S
Co2 O18 2.117 . S
Co2 O19 2.020 . S
Co2 O21 2.021 . S
Co2 O26 2.062 . S
C3 N5 1.316 . S
C3 N6 1.347 . S
C3 H8 0.931 . S
C4 N5 1.375 . S
C4 C7 1.350 . S
C4 H9 0.930 . S
N5 Co0 2.057 . S
N5 C3 1.316 . S
N5 C4 1.375 . S
N6 C3 1.347 . S
N6 C7 1.373 . S
C7 C4 1.350 . S
C7 N6 1.373 . S
C7 H28 0.931 . S
H8 C3 0.931 . S
H9 C4 0.930 . S
C10 O17 1.259 . S
C10 O18 1.258 . S
N11 Co2 2.057 . S
N11 C12 1.316 . S
N11 C13 1.375 . S
C12 N11 1.316 . S
C12 N14 1.347 . S
C12 H23 0.931 . S
C13 N11 1.375 . S
C13 C15 1.350 . S
C13 H22 0.930 . S
N14 C12 1.347 . S
N14 C15 1.373 . S
C15 C13 1.350 . S
C15 N14 1.373 . S
C15 H29 0.931 . S
C16 O19 1.256 . S
C16 O20 1.255 . S
O17 Co0 2.021 . S
O17 C10 1.259 . S
O18 Co2 2.117 . S
O18 C10 1.258 . S
O19 Co2 2.020 . S
O19 C16 1.256 . S
O20 Co0 2.062 . S
O20 C16 1.255 . S
O21 C1 1.259 . S
O21 Co2 2.021 . S
H22 C13 0.930 . S
H23 C12 0.931 . S
O24 Co0 2.117 . S
O24 C1 1.258 . S
O25 Co0 2.020 . S
O25 C27 1.256 . S
O26 Co2 2.062 . S
O26 C27 1.255 . S
C27 O25 1.256 . S
C27 O26 1.255 . S
H28 C7 0.931 . S
H29 C15 0.931 . S
Co30 N35 2.057 . S
Co30 O47 2.021 . S
Co30 O50 2.062 . S
Co30 O54 2.117 . S
Co30 O55 2.020 . S
C31 O51 1.259 . S
C31 O54 1.258 . S
Co32 N41 2.057 . S
Co32 O48 2.117 . S
Co32 O49 2.020 . S
Co32 O51 2.021 . S
Co32 O56 2.062 . S
C33 N35 1.316 . S
C33 N36 1.347 . S
C33 H38 0.931 . S
C34 N35 1.375 . S
C34 C37 1.350 . S
C34 H39 0.930 . S
N35 Co30 2.057 . S
N35 C33 1.316 . S
N35 C34 1.375 . S
N36 C33 1.347 . S
N36 C37 1.373 . S
C37 C34 1.350 . S
C37 N36 1.373 . S
C37 H58 0.931 . S
H38 C33 0.931 . S
H39 C34 0.930 . S
C40 O47 1.259 . S
C40 O48 1.258 . S
N41 Co32 2.057 . S
N41 C42 1.316 . S
N41 C43 1.375 . S
C42 N41 1.316 . S
C42 N44 1.347 . S
C42 H53 0.931 . S
C43 N41 1.375 . S
C43 C45 1.350 . S
C43 H52 0.930 . S
N44 C42 1.347 . S
N44 C45 1.373 . S
C45 C43 1.350 . S
C45 N44 1.373 . S
C45 H59 0.931 . S
C46 O49 1.256 . S
C46 O50 1.255 . S
O47 Co30 2.021 . S
O47 C40 1.259 . S
O48 Co32 2.117 . S
O48 C40 1.258 . S
O49 Co32 2.020 . S
O49 C46 1.256 . S
O50 Co30 2.062 . S
O50 C46 1.255 . S
O51 C31 1.259 . S
O51 Co32 2.021 . S
H52 C43 0.930 . S
H53 C42 0.931 . S
O54 Co30 2.117 . S
O54 C31 1.258 . S
O55 Co30 2.020 . S
O55 C57 1.256 . S
O56 Co32 2.062 . S
O56 C57 1.255 . S
C57 O55 1.256 . S
C57 O56 1.255 . S
H58 C37 0.931 . S
H59 C45 0.931 . S
Co60 N65 2.057 . S
Co60 O77 2.021 . S
Co60 O80 2.062 . S
Co60 O84 2.117 . S
Co60 O85 2.020 . S
C61 O81 1.259 . S
C61 O84 1.258 . S
Co62 N71 2.057 . S
Co62 O78 2.117 . S
Co62 O79 2.020 . S
Co62 O81 2.021 . S
Co62 O86 2.062 . S
C63 N65 1.316 . S
C63 N66 1.347 . S
C63 H68 0.931 . S
C64 N65 1.375 . S
C64 C67 1.350 . S
C64 H69 0.930 . S
N65 Co60 2.057 . S
N65 C63 1.316 . S
N65 C64 1.375 . S
N66 C63 1.347 . S
N66 C67 1.373 . S
C67 C64 1.350 . S
C67 N66 1.373 . S
C67 H88 0.931 . S
H68 C63 0.931 . S
H69 C64 0.930 . S
C70 O77 1.259 . S
C70 O78 1.258 . S
N71 Co62 2.057 . S
N71 C72 1.316 . S
N71 C73 1.375 . S
C72 N71 1.316 . S
C72 N74 1.347 . S
C72 H83 0.931 . S
C73 N71 1.375 . S
C73 C75 1.350 . S
C73 H82 0.930 . S
N74 C72 1.347 . S
N74 C75 1.373 . S
C75 C73 1.350 . S
C75 N74 1.373 . S
C75 H89 0.931 . S
C76 O79 1.256 . S
C76 O80 1.255 . S
O77 Co60 2.021 . S
O77 C70 1.259 . S
O78 Co62 2.117 . S
O78 C70 1.258 . S
O79 Co62 2.020 . S
O79 C76 1.256 . S
O80 Co60 2.062 . S
O80 C76 1.255 . S
O81 C61 1.259 . S
O81 Co62 2.021 . S
H82 C73 0.930 . S
H83 C72 0.931 . S
O84 Co60 2.117 . S
O84 C61 1.258 . S
O85 Co60 2.020 . S
O85 C87 1.256 . S
O86 Co62 2.062 . S
O86 C87 1.255 . S
C87 O85 1.256 . S
C87 O86 1.255 . S
H88 C67 0.931 . S
H89 C75 0.931 . S
Co90 N95 2.057 . S
Co90 O107 2.021 . S
Co90 O110 2.062 . S
Co90 O114 2.117 . S
Co90 O115 2.020 . S
C91 O111 1.259 . S
C91 O114 1.258 . S
Co92 N101 2.057 . S
Co92 O108 2.117 . S
Co92 O109 2.020 . S
Co92 O111 2.021 . S
Co92 O116 2.062 . S
C93 N95 1.316 . S
C93 N96 1.347 . S
C93 H98 0.931 . S
C94 N95 1.375 . S
C94 C97 1.350 . S
C94 H99 0.930 . S
N95 Co90 2.057 . S
N95 C93 1.316 . S
N95 C94 1.375 . S
N96 C93 1.347 . S
N96 C97 1.373 . S
C97 C94 1.350 . S
C97 N96 1.373 . S
C97 H118 0.931 . S
H98 C93 0.931 . S
H99 C94 0.930 . S
C100 O107 1.259 . S
C100 O108 1.258 . S
N101 Co92 2.057 . S
N101 C102 1.316 . S
N101 C103 1.375 . S
C102 N101 1.316 . S
C102 N104 1.347 . S
C102 H113 0.931 . S
C103 N101 1.375 . S
C103 C105 1.350 . S
C103 H112 0.930 . S
N104 C102 1.347 . S
N104 C105 1.373 . S
C105 C103 1.350 . S
C105 N104 1.373 . S
C105 H119 0.931 . S
C106 O109 1.256 . S
C106 O110 1.255 . S
O107 Co90 2.021 . S
O107 C100 1.259 . S
O108 Co92 2.117 . S
O108 C100 1.258 . S
O109 Co92 2.020 . S
O109 C106 1.256 . S
O110 Co90 2.062 . S
O110 C106 1.255 . S
O111 C91 1.259 . S
O111 Co92 2.021 . S
H112 C103 0.930 . S
H113 C102 0.931 . S
O114 Co90 2.117 . S
O114 C91 1.258 . S
O115 Co90 2.020 . S
O115 C117 1.256 . S
O116 Co92 2.062 . S
O116 C117 1.255 . S
C117 O115 1.256 . S
C117 O116 1.255 . S
H118 C97 0.931 . S
H119 C105 0.931 . S
Co120 N125 2.057 . S
Co120 O137 2.021 . S
Co120 O140 2.062 . S
Co120 O144 2.117 . S
Co120 O145 2.020 . S
C121 O141 1.259 1_554 S
C121 O144 1.258 . S
Co122 N131 2.057 . S
Co122 O138 2.117 1_556 S
Co122 O139 2.020 1_556 S
Co122 O141 2.021 . S
Co122 O146 2.062 . S
C123 N125 1.316 . S
C123 N126 1.347 . S
C123 H128 0.931 . S
C124 N125 1.375 . S
C124 C127 1.350 . S
C124 H129 0.930 . S
N125 Co120 2.057 . S
N125 C123 1.316 . S
N125 C124 1.375 . S
N126 C123 1.347 . S
N126 C127 1.373 . S
C127 C124 1.350 . S
C127 N126 1.373 . S
C127 H148 0.931 . S
H128 C123 0.931 . S
H129 C124 0.930 . S
C130 O137 1.259 . S
C130 O138 1.258 . S
N131 Co122 2.057 . S
N131 C132 1.316 . S
N131 C133 1.375 . S
C132 N131 1.316 . S
C132 N134 1.347 . S
C132 H143 0.931 . S
C133 N131 1.375 . S
C133 C135 1.350 . S
C133 H142 0.930 . S
N134 C132 1.347 . S
N134 C135 1.373 . S
C135 C133 1.350 . S
C135 N134 1.373 . S
C135 H149 0.931 . S
C136 O139 1.256 . S
C136 O140 1.255 . S
O137 Co120 2.021 . S
O137 C130 1.259 . S
O138 Co122 2.117 1_554 S
O138 C130 1.258 . S
O139 Co122 2.020 1_554 S
O139 C136 1.256 . S
O140 Co120 2.062 . S
O140 C136 1.255 . S
O141 C121 1.259 1_556 S
O141 Co122 2.021 . S
H142 C133 0.930 . S
H143 C132 0.931 . S
O144 Co120 2.117 . S
O144 C121 1.258 . S
O145 Co120 2.020 . S
O145 C147 1.256 . S
O146 Co122 2.062 . S
O146 C147 1.255 1_556 S
C147 O145 1.256 . S
C147 O146 1.255 1_554 S
H148 C127 0.931 . S
H149 C135 0.931 . S
Co150 N155 2.057 . S
Co150 O167 2.021 . S
Co150 O170 2.062 1_554 S
Co150 O174 2.117 . S
Co150 O175 2.020 . S
C151 O171 1.259 . S
C151 O174 1.258 . S
Co152 N161 2.057 . S
Co152 O168 2.117 . S
Co152 O169 2.020 1_554 S
Co152 O171 2.021 . S
Co152 O176 2.062 . S
C153 N155 1.316 . S
C153 N156 1.347 . S
C153 H158 0.931 . S
C154 N155 1.375 . S
C154 C157 1.350 . S
C154 H159 0.930 . S
N155 Co150 2.057 . S
N155 C153 1.316 . S
N155 C154 1.375 . S
N156 C153 1.347 . S
N156 C157 1.373 . S
C157 C154 1.350 . S
C157 N156 1.373 . S
C157 H178 0.931 . S
H158 C153 0.931 . S
H159 C154 0.930 . S
C160 O167 1.259 . S
C160 O168 1.258 . S
N161 Co152 2.057 . S
N161 C162 1.316 . S
N161 C163 1.375 . S
C162 N161 1.316 . S
C162 N164 1.347 . S
C162 H173 0.931 . S
C163 N161 1.375 . S
C163 C165 1.350 . S
C163 H172 0.930 . S
N164 C162 1.347 . S
N164 C165 1.373 . S
C165 C163 1.350 . S
C165 N164 1.373 . S
C165 H179 0.931 . S
C166 O169 1.256 . S
C166 O170 1.255 . S
O167 Co150 2.021 . S
O167 C160 1.259 . S
O168 Co152 2.117 . S
O168 C160 1.258 . S
O169 Co152 2.020 1_556 S
O169 C166 1.256 . S
O170 Co150 2.062 1_556 S
O170 C166 1.255 . S
O171 C151 1.259 . S
O171 Co152 2.021 . S
H172 C163 0.930 . S
H173 C162 0.931 . S
O174 Co150 2.117 . S
O174 C151 1.258 . S
O175 Co150 2.020 . S
O175 C177 1.256 . S
O176 Co152 2.062 . S
O176 C177 1.255 . S
C177 O175 1.256 . S
C177 O176 1.255 . S
H178 C157 0.931 . S
H179 C165 0.931 . S
Co180 N185 2.057 . S
Co180 O197 2.021 . S
Co180 O200 2.062 . S
Co180 O204 2.117 . S
Co180 O205 2.020 1_556 S
C181 O201 1.259 . S
C181 O204 1.258 . S
Co182 N191 2.057 . S
Co182 O198 2.117 . S
Co182 O199 2.020 . S
Co182 O201 2.021 . S
Co182 O206 2.062 1_556 S
C183 N185 1.316 . S
C183 N186 1.347 . S
C183 H188 0.931 . S
C184 N185 1.375 . S
C184 C187 1.350 . S
C184 H189 0.930 . S
N185 Co180 2.057 . S
N185 C183 1.316 . S
N185 C184 1.375 . S
N186 C183 1.347 . S
N186 C187 1.373 . S
C187 C184 1.350 . S
C187 N186 1.373 . S
C187 H208 0.931 . S
H188 C183 0.931 . S
H189 C184 0.930 . S
C190 O197 1.259 . S
C190 O198 1.258 . S
N191 Co182 2.057 . S
N191 C192 1.316 . S
N191 C193 1.375 . S
C192 N191 1.316 . S
C192 N194 1.347 . S
C192 H203 0.931 . S
C193 N191 1.375 . S
C193 C195 1.350 . S
C193 H202 0.930 . S
N194 C192 1.347 . S
N194 C195 1.373 . S
C195 C193 1.350 . S
C195 N194 1.373 . S
C195 H209 0.931 . S
C196 O199 1.256 . S
C196 O200 1.255 . S
O197 Co180 2.021 . S
O197 C190 1.259 . S
O198 Co182 2.117 . S
O198 C190 1.258 . S
O199 Co182 2.020 . S
O199 C196 1.256 . S
O200 Co180 2.062 . S
O200 C196 1.255 . S
O201 C181 1.259 . S
O201 Co182 2.021 . S
H202 C193 0.930 . S
H203 C192 0.931 . S
O204 Co180 2.117 . S
O204 C181 1.258 . S
O205 Co180 2.020 1_554 S
O205 C207 1.256 . S
O206 Co182 2.062 1_554 S
O206 C207 1.255 . S
C207 O205 1.256 . S
C207 O206 1.255 . S
H208 C187 0.931 . S
H209 C195 0.931 . S
Co210 N215 2.057 . S
Co210 O227 2.021 . S
Co210 O230 2.062 . S
Co210 O234 2.117 1_554 S
Co210 O235 2.020 1_554 S
C211 O231 1.259 . S
C211 O234 1.258 . S
Co212 N221 2.057 . S
Co212 O228 2.117 . S
Co212 O229 2.020 . S
Co212 O231 2.021 . S
Co212 O236 2.062 . S
C213 N215 1.316 . S
C213 N216 1.347 . S
C213 H218 0.931 . S
C214 N215 1.375 . S
C214 C217 1.350 . S
C214 H219 0.930 . S
N215 Co210 2.057 . S
N215 C213 1.316 . S
N215 C214 1.375 . S
N216 C213 1.347 . S
N216 C217 1.373 . S
C217 C214 1.350 . S
C217 N216 1.373 . S
C217 H238 0.931 . S
H218 C213 0.931 . S
H219 C214 0.930 . S
C220 O227 1.259 1_556 S
C220 O228 1.258 . S
N221 Co212 2.057 . S
N221 C222 1.316 . S
N221 C223 1.375 . S
C222 N221 1.316 . S
C222 N224 1.347 . S
C222 H233 0.931 . S
C223 N221 1.375 . S
C223 C225 1.350 . S
C223 H232 0.930 . S
N224 C222 1.347 . S
N224 C225 1.373 . S
C225 C223 1.350 . S
C225 N224 1.373 . S
C225 H239 0.931 . S
C226 O229 1.256 . S
C226 O230 1.255 1_556 S
O227 Co210 2.021 . S
O227 C220 1.259 1_554 S
O228 Co212 2.117 . S
O228 C220 1.258 . S
O229 Co212 2.020 . S
O229 C226 1.256 . S
O230 Co210 2.062 . S
O230 C226 1.255 1_554 S
O231 C211 1.259 . S
O231 Co212 2.021 . S
H232 C223 0.930 . S
H233 C222 0.931 . S
O234 Co210 2.117 1_556 S
O234 C211 1.258 . S
O235 Co210 2.020 1_556 S
O235 C237 1.256 . S
O236 Co212 2.062 . S
O236 C237 1.255 . S
C237 O235 1.256 . S
C237 O236 1.255 . S
H238 C217 0.931 . S
H239 C225 0.931 . S
H240 C248 0.950 . S
H241 C253 0.950 . S
H242 C250 0.950 . S
H243 C252 0.950 . S
H244 C254 0.950 . S
H245 C256 0.950 . S
H246 C258 0.950 . S
H247 C259 0.950 . S
C248 H240 0.950 . S
C248 C249 1.386 . S
C248 C250 1.391 . S
C249 C248 1.386 . S
C249 C253 1.393 . S
C250 H242 0.950 . S
C250 C248 1.391 . S
C250 C251 1.400 . S
C251 C250 1.400 . S
C251 C252 1.398 . S
C251 C257 1.491 . S
C252 H243 0.950 . S
C252 C251 1.398 . S
C252 C253 1.391 . S
C253 H241 0.950 . S
C253 C249 1.393 . S
C253 C252 1.391 . S
C254 H244 0.950 . S
C254 C255 1.386 . S
C254 C256 1.391 . S
C255 C254 1.386 . S
C255 C259 1.393 . S
C256 H245 0.950 . S
C256 C254 1.391 . S
C256 C257 1.400 . S
C257 C251 1.491 . S
C257 C256 1.400 . S
C257 C258 1.398 . S
C258 H246 0.950 . S
C258 C257 1.398 . S
C258 C259 1.391 . S
C259 H247 0.950 . S
C259 C255 1.393 . S
C259 C258 1.391 . S
H260 C268 0.950 . S
H261 C273 0.950 . S
H262 C270 0.950 . S
H263 C272 0.950 . S
H264 C274 0.950 . S
H265 C276 0.950 . S
H266 C278 0.950 . S
H267 C279 0.950 . S
C268 H260 0.950 . S
C268 C269 1.386 . S
C268 C270 1.391 . S
C269 C268 1.386 . S
C269 C273 1.393 . S
C270 H262 0.950 . S
C270 C268 1.391 . S
C270 C271 1.400 . S
C271 C270 1.400 . S
C271 C272 1.398 . S
C271 C277 1.491 . S
C272 H263 0.950 . S
C272 C271 1.398 . S
C272 C273 1.391 . S
C273 H261 0.950 . S
C273 C269 1.393 . S
C273 C272 1.391 . S
C274 H264 0.950 . S
C274 C275 1.386 . S
C274 C276 1.391 . S
C275 C274 1.386 . S
C275 C279 1.393 . S
C276 H265 0.950 . S
C276 C274 1.391 . S
C276 C277 1.400 . S
C277 C271 1.491 . S
C277 C276 1.400 . S
C277 C278 1.398 . S
C278 H266 0.950 . S
C278 C277 1.398 . S
C278 C279 1.391 . S
C279 H267 0.950 . S
C279 C275 1.393 . S
C279 C278 1.391 . S
H280 C288 0.950 . S
H281 C293 0.950 . S
H282 C290 0.950 . S
H283 C292 0.950 . S
H284 C294 0.950 . S
H285 C296 0.950 . S
H286 C298 0.950 . S
H287 C299 0.950 . S
C288 H280 0.950 . S
C288 C289 1.386 . S
C288 C290 1.391 . S
C289 C288 1.386 . S
C289 C293 1.393 . S
C290 H282 0.950 . S
C290 C288 1.391 . S
C290 C291 1.400 . S
C291 C290 1.400 . S
C291 C292 1.398 . S
C291 C297 1.491 . S
C292 H283 0.950 . S
C292 C291 1.398 . S
C292 C293 1.391 . S
C293 H281 0.950 . S
C293 C289 1.393 . S
C293 C292 1.391 . S
C294 H284 0.950 . S
C294 C295 1.386 . S
C294 C296 1.391 . S
C295 C294 1.386 . S
C295 C299 1.393 . S
C296 H285 0.950 . S
C296 C294 1.391 . S
C296 C297 1.400 . S
C297 C291 1.491 . S
C297 C296 1.400 . S
C297 C298 1.398 . S
C298 H286 0.950 . S
C298 C297 1.398 . S
C298 C299 1.391 . S
C299 H287 0.950 . S
C299 C295 1.393 . S
C299 C298 1.391 . S
H300 C308 0.950 . S
H301 C313 0.950 . S
H302 C310 0.950 . S
H303 C312 0.950 . S
H304 C314 0.950 . S
H305 C316 0.950 . S
H306 C318 0.950 . S
H307 C319 0.950 . S
C308 H300 0.950 . S
C308 C309 1.386 . S
C308 C310 1.391 . S
C309 C308 1.386 . S
C309 C313 1.393 . S
C310 H302 0.950 . S
C310 C308 1.391 . S
C310 C311 1.400 . S
C311 C310 1.400 . S
C311 C312 1.398 . S
C311 C317 1.491 . S
C312 H303 0.950 . S
C312 C311 1.398 . S
C312 C313 1.391 . S
C313 H301 0.950 . S
C313 C309 1.393 . S
C313 C312 1.391 . S
C314 H304 0.950 . S
C314 C315 1.386 . S
C314 C316 1.391 . S
C315 C314 1.386 . S
C315 C319 1.393 . S
C316 H305 0.950 . S
C316 C314 1.391 . S
C316 C317 1.400 . S
C317 C311 1.491 . S
C317 C316 1.400 . S
C317 C318 1.398 . S
C318 H306 0.950 . S
C318 C317 1.398 . S
C318 C319 1.391 . S
C319 H307 0.950 . S
C319 C315 1.393 . S
C319 C318 1.391 . S
H320 C328 0.950 . S
H321 C333 0.950 . S
H322 C330 0.950 . S
H323 C332 0.950 . S
H324 C334 0.950 . S
H325 C336 0.950 . S
H326 C338 0.950 . S
H327 C339 0.950 . S
C328 H320 0.950 . S
C328 C329 1.386 . S
C328 C330 1.391 . S
C329 C328 1.386 . S
C329 C333 1.393 . S
C330 H322 0.950 . S
C330 C328 1.391 . S
C330 C331 1.400 . S
C331 C330 1.400 . S
C331 C332 1.398 . S
C331 C337 1.491 1_565 S
C332 H323 0.950 . S
C332 C331 1.398 . S
C332 C333 1.391 . S
C333 H321 0.950 . S
C333 C329 1.393 . S
C333 C332 1.391 . S
C334 H324 0.950 . S
C334 C335 1.386 . S
C334 C336 1.391 . S
C335 C334 1.386 . S
C335 C339 1.393 . S
C336 H325 0.950 . S
C336 C334 1.391 . S
C336 C337 1.400 . S
C337 C331 1.491 1_545 S
C337 C336 1.400 . S
C337 C338 1.398 . S
C338 H326 0.950 . S
C338 C337 1.398 . S
C338 C339 1.391 . S
C339 H327 0.950 . S
C339 C335 1.393 . S
C339 C338 1.391 . S
H340 C348 0.950 . S
H341 C353 0.950 . S
H342 C350 0.950 . S
H343 C352 0.950 . S
H344 C354 0.950 . S
H345 C356 0.950 . S
H346 C358 0.950 . S
H347 C359 0.950 . S
C348 H340 0.950 . S
C348 C349 1.386 . S
C348 C350 1.391 . S
C349 C348 1.386 . S
C349 C353 1.393 . S
C350 H342 0.950 . S
C350 C348 1.391 . S
C350 C351 1.400 . S
C351 C350 1.400 . S
C351 C352 1.398 . S
C351 C357 1.491 . S
C352 H343 0.950 . S
C352 C351 1.398 . S
C352 C353 1.391 . S
C353 H341 0.950 . S
C353 C349 1.393 . S
C353 C352 1.391 . S
C354 H344 0.950 . S
C354 C355 1.386 . S
C354 C356 1.391 . S
C355 C354 1.386 . S
C355 C359 1.393 . S
C356 H345 0.950 . S
C356 C354 1.391 . S
C356 C357 1.400 . S
C357 C351 1.491 . S
C357 C356 1.400 . S
C357 C358 1.398 . S
C358 H346 0.950 . S
C358 C357 1.398 . S
C358 C359 1.391 . S
C359 H347 0.950 . S
C359 C355 1.393 . S
C359 C358 1.391 . S
H360 C368 0.950 . S
H361 C373 0.950 . S
H362 C370 0.950 . S
H363 C372 0.950 . S
H364 C374 0.950 . S
H365 C376 0.950 . S
H366 C378 0.950 . S
H367 C379 0.950 . S
C368 H360 0.950 . S
C368 C369 1.386 . S
C368 C370 1.391 . S
C369 C368 1.386 . S
C369 C373 1.393 . S
C370 H362 0.950 . S
C370 C368 1.391 . S
C370 C371 1.400 . S
C371 C370 1.400 . S
C371 C372 1.398 . S
C371 C377 1.491 1_565 S
C372 H363 0.950 . S
C372 C371 1.398 . S
C372 C373 1.391 . S
C373 H361 0.950 . S
C373 C369 1.393 . S
C373 C372 1.391 . S
C374 H364 0.950 . S
C374 C375 1.386 . S
C374 C376 1.391 . S
C375 C374 1.386 . S
C375 C379 1.393 . S
C376 H365 0.950 . S
C376 C374 1.391 . S
C376 C377 1.400 . S
C377 C371 1.491 1_545 S
C377 C376 1.400 . S
C377 C378 1.398 . S
C378 H366 0.950 . S
C378 C377 1.398 . S
C378 C379 1.391 . S
C379 H367 0.950 . S
C379 C375 1.393 . S
C379 C378 1.391 . S
H380 C388 0.950 . S
H381 C393 0.950 . S
H382 C390 0.950 . S
H383 C392 0.950 . S
H384 C394 0.950 . S
H385 C396 0.950 . S
H386 C398 0.950 . S
H387 C399 0.950 . S
C388 H380 0.950 . S
C388 C389 1.386 . S
C388 C390 1.391 . S
C389 C388 1.386 . S
C389 C393 1.393 . S
C390 H382 0.950 . S
C390 C388 1.391 . S
C390 C391 1.400 . S
C391 C390 1.400 . S
C391 C392 1.398 . S
C391 C397 1.491 . S
C392 H383 0.950 . S
C392 C391 1.398 . S
C392 C393 1.391 . S
C393 H381 0.950 . S
C393 C389 1.393 . S
C393 C392 1.391 . S
C394 H384 0.950 . S
C394 C395 1.386 . S
C394 C396 1.391 . S
C395 C394 1.386 . S
C395 C399 1.393 . S
C396 H385 0.950 . S
C396 C394 1.391 . S
C396 C397 1.400 . S
C397 C391 1.491 . S
C397 C396 1.400 . S
C397 C398 1.398 . S
C398 H386 0.950 . S
C398 C397 1.398 . S
C398 C399 1.391 . S
C399 H387 0.950 . S
C399 C395 1.393 . S
C399 C398 1.391 . S
H400 C408 0.950 . S
H401 C413 0.950 . S
H402 C410 0.950 . S
H403 C412 0.950 . S
H404 C414 0.949 1_554 S
H405 C416 0.950 . S
H406 C418 0.950 . S
H407 C419 0.950 . S
C408 H400 0.950 . S
C408 C409 1.386 . S
C408 C410 1.391 . S
C409 C408 1.386 . S
C409 C413 1.393 . S
C410 H402 0.950 . S
C410 C408 1.391 . S
C410 C411 1.400 . S
C411 C410 1.400 . S
C411 C412 1.398 . S
C411 C417 1.491 . S
C412 H403 0.950 . S
C412 C411 1.398 . S
C412 C413 1.391 . S
C413 H401 0.950 . S
C413 C409 1.393 . S
C413 C412 1.391 . S
C414 H404 0.949 1_556 S
C414 C415 1.386 . S
C414 C416 1.391 1_556 S
C415 C414 1.386 . S
C415 C419 1.393 . S
C416 H405 0.950 . S
C416 C414 1.391 1_554 S
C416 C417 1.400 . S
C417 C411 1.491 . S
C417 C416 1.400 . S
C417 C418 1.398 1_554 S
C418 H406 0.950 . S
C418 C417 1.398 1_556 S
C418 C419 1.391 . S
C419 H407 0.950 . S
C419 C415 1.393 . S
C419 C418 1.391 . S
H420 C428 0.950 . S
H421 C433 0.950 . S
H422 C430 0.950 . S
H423 C432 0.950 . S
H424 C434 0.950 . S
H425 C436 0.950 1_554 S
H426 C438 0.950 . S
H427 C439 0.950 . S
C428 H420 0.950 . S
C428 C429 1.386 . S
C428 C430 1.391 1_554 S
C429 C428 1.386 . S
C429 C433 1.393 . S
C430 H422 0.950 . S
C430 C428 1.391 1_556 S
C430 C431 1.400 . S
C431 C430 1.400 . S
C431 C432 1.398 1_556 S
C431 C437 1.491 1_565 S
C432 H423 0.950 . S
C432 C431 1.398 1_554 S
C432 C433 1.391 . S
C433 H421 0.950 . S
C433 C429 1.393 . S
C433 C432 1.391 . S
C434 H424 0.950 . S
C434 C435 1.386 . S
C434 C436 1.391 . S
C435 C434 1.386 . S
C435 C439 1.393 . S
C436 H425 0.950 1_556 S
C436 C434 1.391 . S
C436 C437 1.400 . S
C437 C431 1.491 1_545 S
C437 C436 1.400 . S
C437 C438 1.398 . S
C438 H426 0.950 . S
C438 C437 1.398 . S
C438 C439 1.391 . S
C439 H427 0.950 . S
C439 C435 1.393 . S
C439 C438 1.391 . S
H440 C448 0.950 . S
H441 C453 0.950 . S
H442 C450 0.950 . S
H443 C452 0.950 . S
H444 C454 0.950 . S
H445 C456 0.950 . S
H446 C458 0.950 . S
H447 C459 0.950 . S
C448 H440 0.950 . S
C448 C449 1.386 1_554 S
C448 C450 1.391 . S
C449 C448 1.386 1_556 S
C449 C453 1.393 . S
C450 H442 0.950 . S
C450 C448 1.391 . S
C450 C451 1.400 1_554 S
C451 C450 1.400 1_556 S
C451 C452 1.398 . S
C451 C457 1.491 . S
C452 H443 0.950 . S
C452 C451 1.398 . S
C452 C453 1.391 . S
C453 H441 0.950 . S
C453 C449 1.393 . S
C453 C452 1.391 . S
C454 H444 0.950 . S
C454 C455 1.386 1_556 S
C454 C456 1.391 . S
C455 C454 1.386 1_554 S
C455 C459 1.393 . S
C456 H445 0.950 . S
C456 C454 1.391 . S
C456 C457 1.400 . S
C457 C451 1.491 . S
C457 C456 1.400 . S
C457 C458 1.398 1_556 S
C458 H446 0.950 . S
C458 C457 1.398 1_554 S
C458 C459 1.391 . S
C459 H447 0.950 . S
C459 C455 1.393 . S
C459 C458 1.391 . S
H460 C468 0.950 . S
H461 C473 0.950 . S
H462 C470 0.950 1_554 S
H463 C472 0.950 . S
H464 C474 0.950 . S
H465 C476 0.950 . S
H466 C478 0.950 . S
H467 C479 0.950 . S
C468 H460 0.950 . S
C468 C469 1.386 . S
C468 C470 1.391 . S
C469 C468 1.386 . S
C469 C473 1.393 . S
C470 H462 0.950 1_556 S
C470 C468 1.391 . S
C470 C471 1.400 1_556 S
C471 C470 1.400 1_554 S
C471 C472 1.398 1_554 S
C471 C477 1.491 1_545 S
C472 H463 0.950 . S
C472 C471 1.398 1_556 S
C472 C473 1.391 . S
C473 H461 0.950 . S
C473 C469 1.393 . S
C473 C472 1.391 . S
C474 H464 0.950 . S
C474 C475 1.386 . S
C474 C476 1.391 . S
C475 C474 1.386 . S
C475 C479 1.393 . S
C476 H465 0.950 . S
C476 C474 1.391 . S
C476 C477 1.400 . S
C477 C471 1.491 1_565 S
C477 C476 1.400 . S
C477 C478 1.398 . S
C478 H466 0.950 . S
C478 C477 1.398 . S
C478 C479 1.391 . S
C479 H467 0.950 . S
C479 C475 1.393 . S
C479 C478 1.391 . S
H480 C488 0.950 . S
H481 C493 0.950 . S
H482 C490 0.950 . S
H483 C492 0.950 . S
H484 C494 0.950 . S
H485 C496 0.950 1_554 S
H486 C498 0.950 1_554 S
H487 C499 0.950 . S
C488 H480 0.950 . S
C488 C489 1.386 . S
C488 C490 1.391 . S
C489 C488 1.386 . S
C489 C493 1.393 . S
C490 H482 0.950 . S
C490 C488 1.391 . S
C490 C491 1.400 . S
C491 C490 1.400 . S
C491 C492 1.398 . S
C491 C497 1.491 . S
C492 H483 0.950 . S
C492 C491 1.398 . S
C492 C493 1.391 . S
C493 H481 0.950 . S
C493 C489 1.393 . S
C493 C492 1.391 . S
C494 H484 0.950 . S
C494 C495 1.386 . S
C494 C496 1.391 . S
C495 C494 1.386 . S
C495 C499 1.393 . S
C496 H485 0.950 1_556 S
C496 C494 1.391 . S
C496 C497 1.400 1_556 S
C497 C491 1.491 . S
C497 C496 1.400 1_554 S
C497 C498 1.398 1_554 S
C498 H486 0.950 1_556 S
C498 C497 1.398 1_556 S
C498 C499 1.391 . S
C499 H487 0.950 . S
C499 C495 1.393 . S
C499 C498 1.391 . S
H500 C508 0.950 . S
H501 C513 0.950 . S
H502 C510 0.950 . S
H503 C512 0.950 . S
H504 C514 0.950 . S
H505 C516 0.950 . S
H506 C518 0.950 . S
H507 C519 0.950 . S
C508 H500 0.950 . S
C508 C509 1.386 . S
C508 C510 1.391 . S
C509 C508 1.386 . S
C509 C513 1.393 . S
C510 H502 0.950 . S
C510 C508 1.391 . S
C510 C511 1.400 . S
C511 C510 1.400 . S
C511 C512 1.398 . S
C511 C517 1.491 . S
C512 H503 0.950 . S
C512 C511 1.398 . S
C512 C513 1.391 . S
C513 H501 0.950 . S
C513 C509 1.393 . S
C513 C512 1.391 . S
C514 H504 0.950 . S
C514 C515 1.386 . S
C514 C516 1.391 . S
C515 C514 1.386 . S
C515 C519 1.393 . S
C516 H505 0.950 . S
C516 C514 1.391 . S
C516 C517 1.400 1_556 S
C517 C511 1.491 . S
C517 C516 1.400 1_554 S
C517 C518 1.398 1_554 S
C518 H506 0.950 . S
C518 C517 1.398 1_556 S
C518 C519 1.391 . S
C519 H507 0.950 . S
C519 C515 1.393 . S
C519 C518 1.391 . S
H520 C528 0.950 . S
H521 C533 0.950 . S
H522 C530 0.950 . S
H523 C532 0.950 . S
H524 C534 0.950 . S
H525 C536 0.950 . S
H526 C538 0.950 . S
H527 C539 0.950 . S
C528 H520 0.950 . S
C528 C529 1.386 . S
C528 C530 1.391 . S
C529 C528 1.386 . S
C529 C533 1.393 . S
C530 H522 0.950 . S
C530 C528 1.391 . S
C530 C531 1.400 1_554 S
C531 C530 1.400 1_556 S
C531 C532 1.398 1_556 S
C531 C537 1.491 . S
C532 H523 0.950 . S
C532 C531 1.398 1_554 S
C532 C533 1.391 . S
C533 H521 0.950 . S
C533 C529 1.393 . S
C533 C532 1.391 . S
C534 H524 0.950 . S
C534 C535 1.386 . S
C534 C536 1.391 . S
C535 C534 1.386 . S
C535 C539 1.393 . S
C536 H525 0.950 . S
C536 C534 1.391 . S
C536 C537 1.400 . S
C537 C531 1.491 . S
C537 C536 1.400 . S
C537 C538 1.398 . S
C538 H526 0.950 . S
C538 C537 1.398 . S
C538 C539 1.391 . S
C539 H527 0.950 . S
C539 C535 1.393 . S
C539 C538 1.391 . S
H540 C548 0.950 . S
H541 C553 0.950 . S
H542 C550 0.950 . S
H543 C552 0.950 . S
H544 C554 0.950 . S
H545 C556 0.950 1_556 S
H546 C558 0.950 1_556 S
H547 C559 0.950 . S
C548 H540 0.950 . S
C548 C549 1.386 . S
C548 C550 1.391 . S
C549 C548 1.386 . S
C549 C553 1.393 . S
C550 H542 0.950 . S
C550 C548 1.391 . S
C550 C551 1.400 . S
C551 C550 1.400 . S
C551 C552 1.398 . S
C551 C557 1.491 . S
C552 H543 0.950 . S
C552 C551 1.398 . S
C552 C553 1.391 . S
C553 H541 0.950 . S
C553 C549 1.393 . S
C553 C552 1.391 . S
C554 H544 0.950 . S
C554 C555 1.386 . S
C554 C556 1.391 . S
C555 C554 1.386 . S
C555 C559 1.393 . S
C556 H545 0.950 1_554 S
C556 C554 1.391 . S
C556 C557 1.400 1_554 S
C557 C551 1.491 . S
C557 C556 1.400 1_556 S
C557 C558 1.398 1_556 S
C558 H546 0.950 1_554 S
C558 C557 1.398 1_554 S
C558 C559 1.391 . S
C559 H547 0.950 . S
C559 C555 1.393 . S
C559 C558 1.391 . S
H560 C568 0.950 . S
H561 C573 0.950 . S
H562 C570 0.950 . S
H563 C572 0.950 . S
H564 C574 0.950 . S
H565 C576 0.950 . S
H566 C578 0.950 . S
H567 C579 0.950 . S
C568 H560 0.950 . S
C568 C569 1.386 . S
C568 C570 1.391 . S
C569 C568 1.386 . S
C569 C573 1.393 . S
C570 H562 0.950 . S
C570 C568 1.391 . S
C570 C571 1.400 . S
C571 C570 1.400 . S
C571 C572 1.398 . S
C571 C577 1.491 . S
C572 H563 0.950 . S
C572 C571 1.398 . S
C572 C573 1.391 . S
C573 H561 0.950 . S
C573 C569 1.393 . S
C573 C572 1.391 . S
C574 H564 0.950 . S
C574 C575 1.386 . S
C574 C576 1.391 . S
C575 C574 1.386 . S
C575 C579 1.393 . S
C576 H565 0.950 . S
C576 C574 1.391 . S
C576 C577 1.400 . S
C577 C571 1.491 . S
C577 C576 1.400 . S
C577 C578 1.398 . S
C578 H566 0.950 . S
C578 C577 1.398 . S
C578 C579 1.391 . S
C579 H567 0.950 . S
C579 C575 1.393 . S
C579 C578 1.391 . S
H580 C588 0.950 . S
H581 C593 0.950 . S
H582 C590 0.950 . S
H583 C592 0.950 . S
H584 C594 0.950 . S
H585 C596 0.950 . S
H586 C598 0.950 . S
H587 C599 0.950 . S
C588 H580 0.950 . S
C588 C589 1.386 . S
C588 C590 1.391 . S
C589 C588 1.386 . S
C589 C593 1.393 . S
C590 H582 0.950 . S
C590 C588 1.391 . S
C590 C591 1.400 . S
C591 C590 1.400 . S
C591 C592 1.398 . S
C591 C597 1.491 . S
C592 H583 0.950 . S
C592 C591 1.398 . S
C592 C593 1.391 . S
C593 H581 0.950 . S
C593 C589 1.393 . S
C593 C592 1.391 . S
C594 H584 0.950 . S
C594 C595 1.386 . S
C594 C596 1.391 . S
C595 C594 1.386 . S
C595 C599 1.393 . S
C596 H585 0.950 . S
C596 C594 1.391 . S
C596 C597 1.400 . S
C597 C591 1.491 . S
C597 C596 1.400 . S
C597 C598 1.398 . S
C598 H586 0.950 . S
C598 C597 1.398 . S
C598 C599 1.391 . S
C599 H587 0.950 . S
C599 C595 1.393 . S
C599 C598 1.391 . S
H600 C608 0.950 . S
H601 C613 0.950 . S
H602 C610 0.950 . S
H603 C612 0.950 . S
H604 C614 0.950 . S
H605 C616 0.950 . S
H606 C618 0.950 . S
H607 C619 0.950 . S
C608 H600 0.950 . S
C608 C609 1.386 . S
C608 C610 1.391 . S
C609 C608 1.386 . S
C609 C613 1.393 . S
C610 H602 0.950 . S
C610 C608 1.391 . S
C610 C611 1.400 . S
C611 C610 1.400 . S
C611 C612 1.398 . S
C611 C617 1.491 . S
C612 H603 0.950 . S
C612 C611 1.398 . S
C612 C613 1.391 . S
C613 H601 0.950 . S
C613 C609 1.393 . S
C613 C612 1.391 . S
C614 H604 0.950 . S
C614 C615 1.386 . S
C614 C616 1.391 . S
C615 C614 1.386 . S
C615 C619 1.393 . S
C616 H605 0.950 . S
C616 C614 1.391 . S
C616 C617 1.400 . S
C617 C611 1.491 . S
C617 C616 1.400 . S
C617 C618 1.398 . S
C618 H606 0.950 . S
C618 C617 1.398 . S
C618 C619 1.391 . S
C619 H607 0.950 . S
C619 C615 1.393 . S
C619 C618 1.391 . S
H620 C628 0.950 . S
H621 C633 0.950 . S
H622 C630 0.950 . S
H623 C632 0.950 . S
H624 C634 0.950 . S
H625 C636 0.950 . S
H626 C638 0.950 . S
H627 C639 0.950 . S
C628 H620 0.950 . S
C628 C629 1.386 . S
C628 C630 1.391 . S
C629 C628 1.386 . S
C629 C633 1.393 . S
C630 H622 0.950 . S
C630 C628 1.391 . S
C630 C631 1.400 . S
C631 C630 1.400 . S
C631 C632 1.398 . S
C631 C637 1.491 . S
C632 H623 0.950 . S
C632 C631 1.398 . S
C632 C633 1.391 . S
C633 H621 0.950 . S
C633 C629 1.393 . S
C633 C632 1.391 . S
C634 H624 0.950 . S
C634 C635 1.386 . S
C634 C636 1.391 . S
C635 C634 1.386 . S
C635 C639 1.393 . S
C636 H625 0.950 . S
C636 C634 1.391 . S
C636 C637 1.400 . S
C637 C631 1.491 . S
C637 C636 1.400 . S
C637 C638 1.398 . S
C638 H626 0.950 . S
C638 C637 1.398 . S
C638 C639 1.391 . S
C639 H627 0.950 . S
C639 C635 1.393 . S
C639 C638 1.391 . S
H640 C648 0.950 . S
H641 C653 0.950 . S
H642 C650 0.950 . S
H643 C652 0.950 . S
H644 C654 0.950 . S
H645 C656 0.950 . S
H646 C658 0.950 . S
H647 C659 0.950 . S
C648 H640 0.950 . S
C648 C649 1.386 . S
C648 C650 1.391 . S
C649 C648 1.386 . S
C649 C653 1.393 . S
C650 H642 0.950 . S
C650 C648 1.391 . S
C650 C651 1.400 . S
C651 C650 1.400 . S
C651 C652 1.398 . S
C651 C657 1.491 . S
C652 H643 0.950 . S
C652 C651 1.398 . S
C652 C653 1.391 . S
C653 H641 0.950 . S
C653 C649 1.393 . S
C653 C652 1.391 . S
C654 H644 0.950 . S
C654 C655 1.386 . S
C654 C656 1.391 1_655 S
C655 C654 1.386 . S
C655 C659 1.393 . S
C656 H645 0.950 . S
C656 C654 1.391 1_455 S
C656 C657 1.400 . S
C657 C651 1.491 . S
C657 C656 1.400 . S
C657 C658 1.398 . S
C658 H646 0.950 . S
C658 C657 1.398 . S
C658 C659 1.391 1_455 S
C659 H647 0.950 . S
C659 C655 1.393 . S
C659 C658 1.391 1_655 S
H660 C668 0.950 . S
H661 C673 0.950 . S
H662 C670 0.950 . S
H663 C672 0.950 . S
H664 C674 0.950 . S
H665 C676 0.950 . S
H666 C678 0.950 . S
H667 C679 0.950 . S
C668 H660 0.950 . S
C668 C669 1.386 . S
C668 C670 1.391 . S
C669 C668 1.386 . S
C669 C673 1.393 . S
C670 H662 0.950 . S
C670 C668 1.391 . S
C670 C671 1.400 . S
C671 C670 1.400 . S
C671 C672 1.398 . S
C671 C677 1.491 . S
C672 H663 0.950 . S
C672 C671 1.398 . S
C672 C673 1.391 . S
C673 H661 0.950 . S
C673 C669 1.393 . S
C673 C672 1.391 . S
C674 H664 0.950 . S
C674 C675 1.386 . S
C674 C676 1.391 1_455 S
C675 C674 1.386 . S
C675 C679 1.393 . S
C676 H665 0.950 . S
C676 C674 1.391 1_655 S
C676 C677 1.400 . S
C677 C671 1.491 . S
C677 C676 1.400 . S
C677 C678 1.398 . S
C678 H666 0.950 . S
C678 C677 1.398 . S
C678 C679 1.391 1_655 S
C679 H667 0.950 . S
C679 C675 1.393 . S
C679 C678 1.391 1_455 S
H680 C688 0.950 . S
H681 C693 0.950 . S
H682 C690 0.950 . S
H683 C692 0.950 . S
H684 C694 0.950 . S
H685 C696 0.950 . S
H686 C698 0.950 . S
H687 C699 0.950 . S
C688 H680 0.950 . S
C688 C689 1.386 . S
C688 C690 1.391 . S
C689 C688 1.386 . S
C689 C693 1.393 1_554 S
C690 H682 0.950 . S
C690 C688 1.391 . S
C690 C691 1.400 . S
C691 C690 1.400 . S
C691 C692 1.398 1_554 S
C691 C697 1.491 . S
C692 H683 0.950 . S
C692 C691 1.398 1_556 S
C692 C693 1.391 . S
C693 H681 0.950 . S
C693 C689 1.393 1_556 S
C693 C692 1.391 . S
C694 H684 0.950 . S
C694 C695 1.386 . S
C694 C696 1.391 . S
C695 C694 1.386 . S
C695 C699 1.393 1_556 S
C696 H685 0.950 . S
C696 C694 1.391 . S
C696 C697 1.400 1_556 S
C697 C691 1.491 . S
C697 C696 1.400 1_554 S
C697 C698 1.398 . S
C698 H686 0.950 . S
C698 C697 1.398 . S
C698 C699 1.391 . S
C699 H687 0.950 . S
C699 C695 1.393 1_554 S
C699 C698 1.391 . S
H700 C708 0.950 . S
H701 C713 0.950 . S
H702 C710 0.950 . S
H703 C712 0.950 . S
H704 C714 0.950 . S
H705 C716 0.950 . S
H706 C718 0.950 . S
H707 C719 0.950 . S
C708 H700 0.950 . S
C708 C709 1.386 1_554 S
C708 C710 1.391 . S
C709 C708 1.386 1_556 S
C709 C713 1.393 . S
C710 H702 0.950 . S
C710 C708 1.391 . S
C710 C711 1.400 1_554 S
C711 C710 1.400 1_556 S
C711 C712 1.398 . S
C711 C717 1.491 . S
C712 H703 0.950 . S
C712 C711 1.398 . S
C712 C713 1.391 . S
C713 H701 0.950 . S
C713 C709 1.393 . S
C713 C712 1.391 . S
C714 H704 0.950 . S
C714 C715 1.386 1_556 S
C714 C716 1.391 . S
C715 C714 1.386 1_554 S
C715 C719 1.393 . S
C716 H705 0.950 . S
C716 C714 1.391 . S
C716 C717 1.400 . S
C717 C711 1.491 . S
C717 C716 1.400 . S
C717 C718 1.398 1_556 S
C718 H706 0.950 . S
C718 C717 1.398 1_554 S
C718 C719 1.391 . S
C719 H707 0.950 . S
C719 C715 1.393 . S
C719 C718 1.391 . S
C249 C16 2.359 . S
C255 C237 2.359 . S
C269 N186 1.456 . S
C275 N44 1.456 . S
C289 N164 1.440 . S
C295 N66 1.440 . S
C309 C136 2.357 . S
C315 C117 2.357 . S
C329 C61 1.619 . S
C335 C10 1.613 . S
C349 C31 1.625 . S
C355 C100 1.644 . S
C369 C91 1.605 . S
C375 C40 1.619 . S
C389 C70 1.627 . S
C395 C1 1.645 . S
C409 C130 1.610 . S
C415 C181 1.618 . S
C429 C151 1.619 . S
C435 C220 1.634 . S
C449 C211 1.605 . S
C455 C160 1.620 . S
C469 C190 1.622 . S
C475 C121 1.635 . S
C489 N14 0.417 . S
C495 N6 0.417 . S
C509 C46 2.748 . S
C515 C57 2.748 . S
C529 C76 2.747 . S
C535 C87 2.747 . S
C549 N96 0.484 . S
C555 N104 0.484 . S
C569 N126 0.427 . S
C575 N134 0.427 . S
C589 C166 2.747 . S
C595 C177 2.747 . S
C609 C207 2.748 . S
C615 C196 2.748 . S
C629 N216 0.426 . S
C635 N224 0.426 . S
C649 C27 1.654 . S
C655 N36 1.583 . S
C669 C106 1.653 . S
C675 N74 1.576 . S
C689 C147 1.653 . S
C695 N156 1.590 1_556 S
C709 C226 1.650 . S
C715 N194 1.597 1_554 S
