# Generated by pormake.
# Topology reo, (8)-cn, num edge types: 1
# Building blocks:
#     Node 0, Type 0, BuildingBlock: LIZSOE_clean_sbu_0, # of connection points: 8
#     Node 1, Type 0, BuildingBlock: LIZSOE_clean_sbu_0, # of connection points: 8
#     Node 2, Type 0, BuildingBlock: LIZSOE_clean_sbu_0, # of connection points: 8
#     Edge 3, Type (0, 0), BuildingBlock: UVAHIK_clean_linker_0, # of connection points: 2
#     Edge 4, Type (0, 0), BuildingBlock: UVAHIK_clean_linker_0, # of connection points: 2
#     Edge 5, Type (0, 0), BuildingBlock: UVAHIK_clean_linker_0, # of connection points: 2
#     Edge 6, Type (0, 0), BuildingBlock: UVAHIK_clean_linker_0, # of connection points: 2
#     Edge 7, Type (0, 0), BuildingBlock: UVAHIK_clean_linker_0, # of connection points: 2
#     Edge 8, Type (0, 0), BuildingBlock: UVAHIK_clean_linker_0, # of connection points: 2
#     Edge 9, Type (0, 0), BuildingBlock: UVAHIK_clean_linker_0, # of connection points: 2
#     Edge 10, Type (0, 0), BuildingBlock: UVAHIK_clean_linker_0, # of connection points: 2
#     Edge 11, Type (0, 0), BuildingBlock: UVAHIK_clean_linker_0, # of connection points: 2
#     Edge 12, Type (0, 0), BuildingBlock: UVAHIK_clean_linker_0, # of connection points: 2
#     Edge 13, Type (0, 0), BuildingBlock: UVAHIK_clean_linker_0, # of connection points: 2
#     Edge 14, Type (0, 0), BuildingBlock: UVAHIK_clean_linker_0, # of connection points: 2
# Relax obj value: 0.274
# Max RMSD: 0.268
# Mean RMSD: 0.233
data_MOF--net-reo--node1-LIZSOE_clean_sbu_0--edge1-UVAHIK_clean_linker_0
_symmetry_space_group_name_H-M    P1
_symmetry_Int_Tables_number       1
_symmetry_cell_setting            triclinic
loop_
_symmetry_equiv_pos_as_xyz
'x, y, z'
_cell_length_a     33.720172
_cell_length_b     30.077955
_cell_length_c     26.305608
_cell_angle_alpha  90.859436
_cell_angle_beta   101.32818
_cell_angle_gamma 113.32189
loop_
_atom_site_label
_atom_site_type_symbol
_atom_site_fract_x
_atom_site_fract_y
_atom_site_fract_z
_atom_type_partial_charge
Co0 Co 0.09107 0.02998 0.45014 0.0
N1 N 0.14359 0.06089 0.42747 0.0
C2 C 0.17321 0.10744 0.4407 0.0
N3 N 0.20138 0.07408 0.39014 0.0
C4 C 0.16145 0.04156 0.39615 0.0
C5 C 0.20853 0.11563 0.41777 0.0
Co6 Co 0.95341 0.02054 0.6045 0.0
N7 N 0.90127 0.99213 0.62832 0.0
N8 N 0.84583 0.98417 0.66794 0.0
C9 C 0.83315 0.94384 0.63513 0.0
C10 C 0.86739 0.94852 0.6114 0.0
C11 C 0.88749 0.0127 0.66352 0.0
Co12 Co 0.02176 0.02335 0.52752 0.0
C13 C 0.98776 0.08826 0.58656 0.0
H14 H 0.86715 0.9223 0.58263 0.0
O15 O 0.04068 0.99348 0.46976 0.0
O16 O 0.96221 0.99684 0.48075 0.0
O17 O 0.03386 0.08588 0.49236 0.0
O18 O 0.08125 0.04987 0.5744 0.0
O19 O 0.12342 0.0566 0.51793 0.0
O20 O 0.92016 0.99467 0.53636 0.0
O21 O 1.00342 0.0542 0.58457 0.0
O22 O 0.96507 0.96512 0.61533 0.0
O23 O 0.07729 0.08433 0.43854 0.0
O24 O 0.09946 0.97723 0.46368 0.0
O25 O 0.00886 0.96043 0.56333 0.0
O26 O 0.94719 0.07474 0.5917 0.0
C27 C 0.05504 0.10391 0.45676 0.0
C28 C 0.91453 0.06271 0.69132 0.0
H29 H 0.90361 0.08905 0.67038 0.0
H30 H 0.90983 0.06452 0.73169 0.0
H31 H 0.9502 0.07336 0.69233 0.0
C32 C 0.9246 0.9871 0.4908 0.0
C33 C 0.11898 0.06254 0.56378 0.0
H34 H 0.16966 0.13359 0.46611 0.0
H35 H 0.14787 0.96575 0.39378 0.0
H36 H 0.14722 0.98894 0.33107 0.0
H37 H 0.10165 0.9788 0.36282 0.0
C38 C 0.13807 0.99088 0.36908 0.0
C39 C 0.05839 0.96123 0.46751 0.0
C40 C 0.98673 0.94376 0.59874 0.0
H41 H 0.23777 0.14928 0.42199 0.0
H42 H 0.80111 0.91345 0.62832 0.0
Co43 Co 0.51067 0.11028 0.02948 0.0
N44 N 0.51897 0.17184 1.01229 0.0
C45 C 0.55177 0.20877 0.99753 0.0
N46 N 0.4985 0.23403 0.99933 0.0
C47 C 0.48728 0.18822 0.01333 0.0
C48 C 0.5393 0.24718 0.98978 0.0
Co49 Co 0.50439 0.88818 0.01755 0.0
N50 N 0.49998 0.82952 0.04319 0.0
N51 N 0.51565 0.76363 0.05253 0.0
C52 C 0.51129 0.77877 0.09881 0.0
C53 C 0.50104 0.81868 0.09283 0.0
C54 C 0.50739 0.79438 0.01918 0.0
Co55 Co 0.50916 1.00104 0.02113 0.0
C56 C 0.54773 0.93656 0.97945 0.0
H57 H 0.49889 0.84108 0.12381 0.0
O58 O 0.50141 0.05623 0.05113 0.0
O59 O 0.54603 0.99846 0.08935 0.0
O60 O 0.56398 0.04418 1.00096 0.0
O61 O 0.47329 1.00551 0.95285 0.0
O62 O 0.48613 0.08508 0.95908 0.0
O63 O 0.54151 0.92218 0.08233 0.0
O64 O 0.51395 0.94358 0.98944 0.0
O65 O 0.45496 0.88476 0.04365 0.0
O66 O 0.56738 0.11889 0.01871 0.0
O67 O 0.53137 0.12727 0.09963 0.0
O68 O 0.45474 0.95915 0.04272 0.0
O69 O 0.55217 0.89715 0.99272 0.0
C70 C 0.58379 0.0903 1.00479 0.0
C71 C 0.51096 0.79336 0.96324 0.0
H72 H 0.54622 0.80514 0.96136 0.0
H73 H 0.49251 0.75586 0.94359 0.0
H74 H 0.49709 0.81744 0.94208 0.0
C75 C 0.55564 0.96397 0.10738 0.0
C76 C 0.4706 0.04325 0.93321 0.0
H77 H 0.58274 0.20816 0.99311 0.0
H78 H 0.41886 0.13939 0.99749 0.0
H79 H 0.43603 0.18284 0.05402 0.0
H80 H 0.45116 0.13127 0.05643 0.0
C81 C 0.44604 0.15895 0.03172 0.0
C82 C 0.51255 0.07985 0.097 0.0
C83 C 0.43862 0.91503 0.05208 0.0
H84 H 0.55865 0.28204 0.97787 0.0
H85 H 0.51916 0.76484 0.13541 0.0
Co86 Co 0.10447 0.49312 0.02289 0.0
N87 N 0.15965 0.49379 0.05019 0.0
C88 C 0.18733 0.51399 0.09672 0.0
N89 N 0.21874 0.47533 0.05775 0.0
C90 C 0.17942 0.47021 0.02737 0.0
C91 C 0.22383 0.50311 0.10121 0.0
Co92 Co 0.9225 0.53132 0.017 0.0
N93 N 0.86673 0.52831 0.98406 0.0
N94 N 0.80697 0.54628 0.96347 0.0
C95 C 0.79305 0.49801 0.96588 0.0
C96 C 0.82946 0.48722 0.97883 0.0
C97 C 0.85185 0.56385 0.97366 0.0
Co98 Co 0.01742 0.51759 0.0237 0.0
C99 C 0.9753 0.58182 0.07013 0.0
H100 H 0.8286 0.45205 0.98836 0.0
O101 O 0.05434 0.49069 0.99121 0.0
O102 O 0.01248 0.55648 0.96205 0.0
O103 O 0.06788 0.57598 0.06233 0.0
O104 O 0.02309 0.47871 0.08583 0.0
O105 O 0.08429 0.46676 0.08213 0.0
O106 O 0.94685 0.55979 0.95934 0.0
O107 O 0.97649 0.53979 0.05561 0.0
O108 O 0.90698 0.46862 0.98441 0.0
O109 O 0.12393 0.55666 0.05595 0.0
O110 O 0.11744 0.51732 0.96333 0.0
O111 O 0.96864 0.45832 0.98546 0.0
O112 O 0.94058 0.58923 0.04945 0.0
C113 C 0.10902 0.5858 0.07164 0.0
C114 C 0.88154 0.61651 0.97365 0.0
H115 H 0.91149 0.62019 0.95964 0.0
H116 H 0.86381 0.6351 0.94837 0.0
H117 H 0.89219 0.63498 0.01382 0.0
C118 C 0.98146 0.56947 0.94117 0.0
C119 C 0.05215 0.46165 0.10372 0.0
H120 H 0.181 0.53448 0.12593 0.0
H121 H 0.12381 0.42393 0.96797 0.0
H122 H 0.1751 0.41928 0.96412 0.0
H123 H 0.166 0.47171 0.94477 0.0
C124 C 0.16015 0.44428 0.9733 0.0
C125 C 0.07428 0.49811 0.95181 0.0
C126 C 0.92701 0.44337 0.97293 0.0
H127 H 0.25152 0.51371 0.13442 0.0
H128 H 0.75903 0.47294 0.96341 0.0
C129 C 0.00916 0.41041 0.16717 0.0
C130 C 0.04887 0.43296 0.15001 0.0
C131 C 1.00648 0.37937 0.20735 0.0
C132 C 0.07831 0.34501 0.31394 0.0
H133 H 0.97611 0.22225 0.29935 0.0
C134 C 0.08757 0.17785 0.41069 0.0
C135 C 0.05291 0.1481 0.43331 0.0
C136 C 0.08443 0.21617 0.38307 0.0
C137 C 1.00466 0.25669 0.30448 0.0
H138 H 0.11723 0.44133 0.16345 0.0
H139 H 0.11248 0.38799 0.23173 0.0
H140 H 0.97502 0.28277 0.23832 0.0
H141 H 0.98771 0.1361 0.44484 0.0
H142 H 0.98186 0.20303 0.39547 0.0
H143 H 0.10861 0.31829 0.37864 0.0
C144 C 0.08333 0.39421 0.21508 0.0
C145 C 1.00403 0.29154 0.26946 0.0
C146 C 0.08594 0.42477 0.17522 0.0
C147 C 0.01519 0.15852 0.42834 0.0
C148 C 0.01167 0.19656 0.39965 0.0
C149 C 0.07906 0.31015 0.34846 0.0
C150 C 0.04357 0.37054 0.23169 0.0
C151 C 0.04136 0.33579 0.2728 0.0
C152 C 0.04623 0.22572 0.37634 0.0
C153 C 0.0427 0.26501 0.34357 0.0
H154 H 0.97987 0.41558 0.14862 0.0
H155 H 0.97532 0.36217 0.2192 0.0
H156 H 0.10729 0.37902 0.31901 0.0
H157 H 0.11708 0.17097 0.41353 0.0
H158 H 0.11153 0.23739 0.36537 0.0
C159 C 0.84299 0.94858 0.45624 0.0
C160 C 0.88567 0.97441 0.44769 0.0
C161 C 0.80584 0.94508 0.41916 0.0
C162 C 0.77189 0.01602 0.32757 0.0
H163 H 0.67103 0.89686 0.26674 0.0
C164 C 0.6303 0.01207 0.16173 0.0
C165 C 0.58858 0.97369 0.15612 0.0
C166 C 0.66547 0.01418 0.20132 0.0
C167 C 0.69842 0.93059 0.28425 0.0
H168 H 0.9231 0.01511 0.39297 0.0
H169 H 0.85786 0.00978 0.32848 0.0
H170 H 0.73504 0.89268 0.32482 0.0
H171 H 0.54919 0.91012 0.18928 0.0
H172 H 0.60971 0.91536 0.2606 0.0
H173 H 0.73512 0.05428 0.28898 0.0
C174 C 0.85339 0.99197 0.36371 0.0
C175 C 0.73522 0.928 0.31694 0.0
C176 C 0.89053 0.99457 0.40029 0.0
C177 C 0.58137 0.93979 0.1929 0.0
C178 C 0.61618 0.94254 0.23323 0.0
C179 C 0.73474 0.01871 0.29575 0.0
C180 C 0.81094 0.96821 0.37354 0.0
C181 C 0.77232 0.97066 0.33834 0.0
C182 C 0.65915 0.9784 0.23649 0.0
C183 C 0.69762 0.976 0.27332 0.0
H184 H 0.83838 0.93274 0.49245 0.0
H185 H 0.77329 0.92661 0.4274 0.0
H186 H 0.80005 0.04941 0.34453 0.0
H187 H 0.63655 0.03815 0.13313 0.0
H188 H 0.69804 0.04208 0.20215 0.0
C189 C 0.05034 0.87523 0.45337 0.0
C190 C 0.03294 0.9103 0.44037 0.0
C191 C 0.04292 0.83612 0.41711 0.0
C192 C 1.00815 0.79846 0.27079 0.0
H193 H 0.02632 0.68371 0.3121 0.0
C194 C 0.01737 0.66626 0.11362 0.0
C195 C 1.00207 0.61587 0.11853 0.0
C196 C 0.024 0.70038 0.15525 0.0
C197 C 0.02076 0.71515 0.29919 0.0
H198 H 0.99149 0.92873 0.3783 0.0
H199 H 0.97584 0.85921 0.3165 0.0
H200 H 0.0254 0.74089 0.37762 0.0
H201 H 0.98116 0.56287 0.17299 0.0
H202 H 0.99222 0.62157 0.24539 0.0
H203 H 1.00143 0.77183 0.19229 0.0
C204 C 0.9968 0.86265 0.35447 0.0
C205 C 0.0208 0.74888 0.33749 0.0
C206 C 1.00459 0.90215 0.39082 0.0
C207 C 0.9952 0.60129 0.16794 0.0
C208 C 1.00091 0.63544 0.2096 0.0
C209 C 1.00765 0.76456 0.23255 0.0
C210 C 0.01741 0.82985 0.3659 0.0
C211 C 0.01481 0.79169 0.32437 0.0
C212 C 0.01383 0.68573 0.20361 0.0
C213 C 0.0144 0.72219 0.24565 0.0
H214 H 0.0734 0.8807 0.49033 0.0
H215 H 0.06 0.81288 0.42861 0.0
H216 H 1.00402 0.83063 0.25786 0.0
H217 H 0.02162 0.67917 0.07599 0.0
H218 H 0.03551 0.73831 0.14833 0.0
C219 C 0.49914 0.07916 0.18777 0.0
C220 C 0.48483 0.05922 0.13535 0.0
C221 C 0.46852 0.0714 0.21964 0.0
C222 C 0.35282 0.05346 0.20213 0.0
H223 H 0.36639 0.03666 0.34942 0.0
C224 C 0.24405 0.0279 0.36988 0.0
C225 C 0.23154 0.06709 0.3621 0.0
C226 C 0.27508 0.02274 0.3444 0.0
C227 C 0.36205 0.04107 0.30818 0.0
H228 H 0.42667 0.01542 0.07593 0.0
H229 H 0.37462 0.99944 0.13167 0.0
H230 H 0.42107 0.03144 0.30278 0.0
H231 H 0.2419 0.13181 0.3224 0.0
H232 H 0.29546 0.12254 0.27704 0.0
H233 H 0.29452 0.06397 0.20734 0.0
C234 C 0.40936 0.0211 0.14835 0.0
C235 C 0.39348 0.03837 0.28162 0.0
C236 C 0.43969 0.02905 0.11666 0.0
C237 C 0.25075 0.10109 0.3286 0.0
C238 C 0.28124 0.09564 0.30261 0.0
C239 C 0.3219 0.05675 0.22869 0.0
C240 C 0.42298 0.04401 0.19941 0.0
C241 C 0.38919 0.04455 0.22822 0.0
C242 C 0.29386 0.05645 0.31024 0.0
C243 C 0.3262 0.0509 0.28207 0.0
H244 H 0.53343 0.10357 0.20297 0.0
H245 H 0.48008 0.08983 0.25877 0.0
H246 H 0.34879 0.05916 0.1612 0.0
H247 H 0.23045 1.00183 0.39645 0.0
H248 H 0.28404 0.99214 0.35099 0.0
C249 C 0.96213 0.88374 0.66344 0.0
C250 C 0.98691 0.89957 0.62482 0.0
C251 C 0.96328 0.84513 0.69163 0.0
C252 C 0.02708 0.76874 0.7294 0.0
H253 H 0.9211 0.69288 0.77762 0.0
C254 C 0.02612 0.63768 0.89329 0.0
C255 C 0.9858 0.59945 0.89608 0.0
C256 C 0.02776 0.67069 0.85533 0.0
C257 C 0.95101 0.71265 0.7641 0.0
H258 H 0.03238 0.88557 0.58585 0.0
H259 H 0.03344 0.81649 0.63447 0.0
H260 H 0.92006 0.75315 0.71891 0.0
H261 H 0.91623 0.56424 0.85896 0.0
H262 H 0.91937 0.61869 0.79132 0.0
H263 H 0.0574 0.72638 0.77337 0.0
C264 C 0.01354 0.83508 0.64331 0.0
C265 C 0.95065 0.74845 0.73078 0.0
C266 C 0.01265 0.8745 0.61498 0.0
C267 C 0.94781 0.59347 0.85825 0.0
C268 C 0.94961 0.62549 0.81969 0.0
C269 C 0.02728 0.73214 0.76238 0.0
C270 C 0.98872 0.81972 0.6822 0.0
C271 C 0.98885 0.77803 0.71363 0.0
C272 C 0.98923 0.66587 0.81844 0.0
C273 C 0.9893 0.70369 0.78091 0.0
H274 H 0.942 0.9018 0.67299 0.0
H275 H 0.94463 0.836 0.7219 0.0
H276 H 0.05732 0.79057 0.71745 0.0
H277 H 0.05593 0.64369 0.92219 0.0
H278 H 0.05898 0.70112 0.85651 0.0
C279 C 0.40061 0.99983 0.86789 0.0
C280 C 0.44282 0.0379 0.88126 0.0
C281 C 0.36885 1.00265 0.82672 0.0
C282 C 0.345 0.09915 0.75973 0.0
H283 H 0.24106 0.98938 0.68444 0.0
C284 C 0.20062 0.10136 0.59685 0.0
C285 C 0.15829 0.07486 0.60616 0.0
C286 C 0.23811 0.10182 0.63099 0.0
C287 C 0.26998 0.02023 0.7055 0.0
H288 H 0.48711 0.10562 0.85919 0.0
H289 H 0.43266 0.10908 0.785 0.0
H290 H 0.30368 0.97556 0.73388 0.0
H291 H 0.12199 0.03093 0.66001 0.0
H292 H 0.18774 0.03106 0.71921 0.0
H293 H 0.31122 0.14369 0.72965 0.0
C294 C 0.42311 0.0783 0.80767 0.0
C295 C 0.30578 0.01242 0.73379 0.0
C296 C 0.45448 0.07605 0.8496 0.0
C297 C 0.15426 0.05197 0.65216 0.0
C298 C 0.19167 0.05159 0.68568 0.0
C299 C 0.30953 0.10698 0.7305 0.0
C300 C 0.3792 0.04316 0.7977 0.0
C301 C 0.34345 0.05169 0.7621 0.0
C302 C 0.23353 0.07508 0.67423 0.0
C303 C 0.27153 0.06747 0.70415 0.0
H304 H 0.39086 0.97029 0.8922 0.0
H305 H 0.33542 0.97496 0.82052 0.0
H306 H 0.37292 0.13025 0.78188 0.0
H307 H 0.20451 0.11927 0.56161 0.0
H308 H 0.27026 0.12021 0.62172 0.0
C309 C 0.0746 0.4706 0.86032 0.0
C310 C 0.05598 0.46055 0.90467 0.0
C311 C 0.06861 0.43307 0.82272 0.0
C312 C 0.0382 0.29716 0.80622 0.0
H313 H 0.04171 0.31863 0.6621 0.0
C314 C 0.0409 0.14735 0.6628 0.0
C315 C 0.01552 0.13952 0.61143 0.0
C316 C 0.04972 0.18895 0.69656 0.0
C317 C 0.04042 0.31144 0.70206 0.0
H318 H 0.01618 0.4015 0.94288 0.0
H319 H 1.00358 0.3366 0.87673 0.0
H320 H 0.04398 0.38273 0.72174 0.0
H321 H 0.98135 0.17157 0.55561 0.0
H322 H 0.99764 0.24392 0.61279 0.0
H323 H 0.0335 0.22543 0.78623 0.0
C324 C 0.02349 0.37372 0.871 0.0
C325 C 0.04221 0.3489 0.73688 0.0
C326 C 0.02955 0.41138 0.90861 0.0
C327 C 1.00229 0.17675 0.59407 0.0
C328 C 0.01121 0.21834 0.62759 0.0
C329 C 0.03645 0.25971 0.77142 0.0
C330 C 0.04388 0.38353 0.82783 0.0
C331 C 0.04105 0.3427 0.78984 0.0
C332 C 0.03355 0.22451 0.68033 0.0
C333 C 0.03744 0.26585 0.71842 0.0
H334 H 0.09622 0.5076 0.85623 0.0
H335 H 0.08551 0.44305 0.79099 0.0
H336 H 0.03787 0.29033 0.84644 0.0
H337 H 0.05044 0.11909 0.6786 0.0
H338 H 0.06784 0.19212 0.73621 0.0
C339 C 0.56783 0.98551 0.90454 0.0
C340 C 0.58067 0.96921 0.9522 0.0
C341 C 0.5978 1.00309 0.87172 0.0
C342 C 0.71633 0.04288 0.86531 0.0
H343 H 0.67017 0.96616 0.73083 0.0
C344 C 0.82967 1.00138 0.75183 0.0
C345 C 0.81834 0.99504 0.69723 0.0
C346 C 0.80148 0.00904 0.78023 0.0
C347 C 0.68369 0.98886 0.76764 0.0
H348 H 0.63528 0.96144 1.00444 0.0
H349 H 0.68723 0.99251 0.94822 0.0
H350 H 0.61961 0.96558 0.7856 0.0
H351 H 0.76919 0.99185 0.62923 0.0
H352 H 0.72011 1.00637 0.67841 0.0
H353 H 0.78049 0.0655 0.84804 0.0
C354 C 0.65442 0.99194 0.93578 0.0
C355 C 0.65452 0.98856 0.79905 0.0
C356 C 0.6246 0.97409 0.96804 0.0
C357 C 0.77851 0.99682 0.6714 0.0
C358 C 0.75041 1.00486 0.69967 0.0
C359 C 0.74546 0.04366 0.8337 0.0
C360 C 0.64105 1.00504 0.88644 0.0
C361 C 0.67064 0.01428 0.84897 0.0
C362 C 0.76123 0.01059 0.75459 0.0
C363 C 0.72974 0.0153 0.78513 0.0
H364 H 0.53392 0.98125 0.89101 0.0
H365 H 0.58661 0.01302 0.83388 0.0
H366 H 0.72979 0.06329 0.90345 0.0
H367 H 0.85977 0.99899 0.77246 0.0
H368 H 0.81063 0.0121 0.82236 0.0
C369 C 0.23396 0.4045 0.0353 0.0
C370 C 0.2489 0.45476 0.04826 0.0
C371 C 0.26327 0.38463 0.02594 0.0
C372 C 0.37888 0.40268 0.05801 0.0
H373 H 0.34735 0.31474 0.9333 0.0
C374 C 0.42782 0.24347 0.97533 0.0
C375 C 0.47348 0.26358 0.99703 0.0
C376 C 0.40275 0.27062 0.97761 0.0
C377 C 0.35654 0.33871 0.96868 0.0
H378 H 0.30636 0.52328 0.06498 0.0
H379 H 0.35829 0.48835 0.04988 0.0
H380 H 0.29866 0.3536 0.94719 0.0
H381 H 0.52942 0.32912 0.03424 0.0
H382 H 0.48615 0.37769 0.03622 0.0
H383 H 0.43561 0.38631 0.08099 0.0
C384 C 0.32365 0.46457 0.04564 0.0
C385 C 0.32867 0.36116 0.97642 0.0
C386 C 0.2941 0.48453 0.05418 0.0
C387 C 0.49414 0.31258 0.01787 0.0
C388 C 0.46917 0.34012 0.01952 0.0
C389 C 0.40645 0.3796 0.05074 0.0
C390 C 0.30838 0.41448 0.03086 0.0
C391 C 0.33932 0.39296 0.02139 0.0
C392 C 0.42291 0.31917 1.00047 0.0
C393 C 0.39541 0.34678 1.00624 0.0
H394 H 0.19961 0.38058 0.03281 0.0
H395 H 0.25081 0.34574 0.0158 0.0
H396 H 0.38772 0.42681 0.09322 0.0
H397 H 0.41128 0.20641 0.95716 0.0
H398 H 0.36731 0.25285 0.96274 0.0
C399 C 0.12549 0.66253 0.12637 0.0
C400 C 0.14055 0.63123 0.10393 0.0
C401 C 0.15535 0.7062 0.15558 0.0
C402 C 0.2266 0.80828 0.15978 0.0
H403 H 0.34475 0.81911 0.2203 0.0
C404 C 0.3606 0.8897 0.05841 0.0
C405 C 0.40475 0.90179 0.08249 0.0
C406 C 0.3287 0.87757 0.08835 0.0
C407 C 0.31215 0.81816 0.20512 0.0
H408 H 0.19912 0.62011 0.09691 0.0
H409 H 0.25106 0.69595 0.14667 0.0
H410 H 0.28154 0.74807 0.23081 0.0
H411 H 0.45206 0.91676 0.15601 0.0
H412 H 0.3963 0.89589 0.20896 0.0
H413 H 0.2573 0.877 0.13123 0.0
C414 C 0.21603 0.68664 0.1428 0.0
C415 C 0.27578 0.77699 0.21097 0.0
C416 C 0.18619 0.64332 0.11342 0.0
C417 C 0.41753 0.9055 0.13692 0.0
C418 C 0.38579 0.89417 0.16707 0.0
C419 C 0.26299 0.84998 0.15481 0.0
C420 C 0.20101 0.7191 0.16324 0.0
C421 C 0.2333 0.76926 0.18282 0.0
C422 C 0.34072 0.87814 0.14298 0.0
C423 C 0.30598 0.85214 0.17179 0.0
H424 H 0.09069 0.65369 0.12045 0.0
H425 H 0.14283 0.73057 0.17061 0.0
H426 H 0.19403 0.80401 0.13892 0.0
H427 H 0.35065 0.88818 0.01645 0.0
H428 H 0.29437 0.86477 0.06806 0.0
C429 C 0.65744 0.09283 1.00029 0.0
C430 C 0.62466 0.11064 0.98601 0.0
C431 C 0.69479 0.1095 0.9788 0.0
C432 C 0.78198 0.18288 0.96291 0.0
H433 H 0.7782 0.24048 0.83211 0.0
C434 C 0.85775 0.37961 0.9187 0.0
C435 C 0.90138 0.39368 0.94691 0.0
C436 C 0.83174 0.33084 0.90064 0.0
C437 C 0.78007 0.22367 0.86813 0.0
H438 H 0.60364 0.15807 0.93731 0.0
H439 H 0.66948 0.18901 0.90139 0.0
H440 H 0.71226 0.17318 0.84624 0.0
H441 H 0.95303 0.36857 0.97532 0.0
H442 H 0.90778 0.28366 0.94323 0.0
H443 H 0.84846 0.23523 0.98648 0.0
C444 C 0.66631 0.16134 0.92805 0.0
C445 C 0.74233 0.18547 0.87642 0.0
C446 C 0.62917 0.14476 0.94965 0.0
C447 C 0.91967 0.35891 0.95307 0.0
C448 C 0.89376 0.31023 0.93485 0.0
C449 C 0.81975 0.22055 0.9544 0.0
C450 C 0.69969 0.14408 0.9425 0.0
C451 C 0.74194 0.16803 0.92572 0.0
C452 C 0.84894 0.29539 0.91081 0.0
C453 C 0.81782 0.24409 0.90882 0.0
H454 H 0.65422 0.06626 0.0283 0.0
H455 H 0.71995 0.09566 0.99092 0.0
H456 H 0.78308 0.16994 1.00113 0.0
H457 H 0.84307 0.40582 0.91274 0.0
H458 H 0.79711 0.3205 0.8828 0.0
C459 C 0.73747 0.55619 0.93081 0.0
C460 C 0.77936 0.57248 0.96464 0.0
C461 C 0.70783 0.5769 0.93671 0.0
C462 C 0.70118 0.68431 0.99929 0.0
H463 H 0.57932 0.59671 0.99423 0.0
C464 C 0.584 0.75034 0.07623 0.0
C465 C 0.54095 0.73588 0.04589 0.0
C466 C 0.61149 0.72855 0.0654 0.0
C467 C 0.61308 0.62172 0.99521 0.0
H468 H 0.82233 0.62206 0.03233 0.0
H469 H 0.7715 0.65907 0.04188 0.0
H470 H 0.63097 0.56431 0.97377 0.0
H471 H 0.49171 0.68536 0.98273 0.0
H472 H 0.54 0.64737 0.96287 0.0
H473 H 0.68355 0.74168 0.0209 0.0
C474 C 0.76179 0.63113 1.00991 0.0
C475 C 0.64268 0.60318 0.98335 0.0
C476 C 0.79122 0.61027 1.00413 0.0
C477 C 0.52505 0.69752 1.00607 0.0
C478 C 0.5526 0.67564 0.99509 0.0
C479 C 0.67165 0.70282 1.01105 0.0
C480 C 0.71948 0.61426 0.97677 0.0
C481 C 0.68721 0.63422 0.9858 0.0
C482 C 0.59655 0.69175 0.02386 0.0
C483 C 0.62736 0.67173 1.00978 0.0
H484 H 0.72738 0.52663 0.90056 0.0
H485 H 0.67563 0.56332 0.91028 0.0
H486 H 0.73504 0.70933 1.00072 0.0
H487 H 0.59697 0.77996 0.10705 0.0
H488 H 0.64477 0.74113 0.08911 0.0
loop_
_geom_bond_atom_site_label_1
_geom_bond_atom_site_label_2
_geom_bond_distance
_geom_bond_site_symmetry_2
_ccdc_geom_bond_type
Co0 N1 2.034 . S
Co0 O15 2.262 1_545 S
Co0 O19 1.958 . S
Co0 O23 1.950 . S
Co0 O24 2.057 1_545 S
N1 Co0 2.034 . S
N1 C2 1.366 . S
N1 C4 1.332 . S
C2 N1 1.366 . S
C2 C5 1.377 . S
C2 H34 0.931 . S
N3 C4 1.346 . S
N3 C5 1.337 . S
C4 N1 1.332 . S
C4 N3 1.346 . S
C4 C38 1.361 . S
C5 C2 1.377 . S
C5 N3 1.337 . S
C5 H41 0.930 . S
Co6 N7 2.034 . S
Co6 O20 1.950 . S
Co6 O21 2.262 1_565 S
Co6 O22 1.958 . S
Co6 O26 2.057 1_565 S
N7 Co6 2.034 . S
N7 C10 1.366 . S
N7 C11 1.332 . S
N8 C9 1.337 . S
N8 C11 1.346 . S
C9 N8 1.337 . S
C9 C10 1.377 . S
C9 H42 0.930 . S
C10 N7 1.366 . S
C10 C9 1.377 . S
C10 H14 0.931 . S
C11 N7 1.332 . S
C11 N8 1.346 . S
C11 C28 1.361 1_565 S
Co12 O15 2.097 1_545 S
Co12 O16 2.065 1_445 S
Co12 O17 2.065 . S
Co12 O18 2.042 . S
Co12 O21 2.097 1_455 S
Co12 O25 2.042 1_445 S
C13 O21 1.253 . S
C13 O26 1.263 . S
H14 C10 0.931 . S
O15 Co0 2.262 1_565 S
O15 Co12 2.097 1_565 S
O15 C39 1.253 . S
O16 Co12 2.065 1_665 S
O16 C32 1.221 . S
O17 Co12 2.065 . S
O17 C27 1.221 . S
O18 Co12 2.042 . S
O18 C33 1.237 . S
O19 Co0 1.958 . S
O19 C33 1.278 . S
O20 Co6 1.950 . S
O20 C32 1.277 . S
O21 Co6 2.262 1_545 S
O21 Co12 2.097 1_655 S
O21 C13 1.253 . S
O22 Co6 1.958 . S
O22 C40 1.278 . S
O23 Co0 1.950 . S
O23 C27 1.277 . S
O24 Co0 2.057 1_565 S
O24 C39 1.263 . S
O25 Co12 2.042 1_665 S
O25 C40 1.237 . S
O26 Co6 2.057 1_545 S
O26 C13 1.263 . S
C27 O17 1.221 . S
C27 O23 1.277 . S
C28 C11 1.361 1_545 S
C28 H29 0.960 . S
C28 H30 0.961 . S
C28 H31 0.961 . S
H29 C28 0.960 . S
H30 C28 0.961 . S
H31 C28 0.961 . S
C32 O16 1.221 . S
C32 O20 1.277 . S
C33 O18 1.237 . S
C33 O19 1.278 . S
H34 C2 0.931 . S
H35 C38 0.961 . S
H36 C38 0.961 . S
H37 C38 0.960 . S
C38 C4 1.361 . S
C38 H35 0.961 . S
C38 H36 0.961 . S
C38 H37 0.960 . S
C39 O15 1.253 . S
C39 O24 1.263 . S
C40 O22 1.278 . S
C40 O25 1.237 . S
H41 C5 0.930 . S
H42 C9 0.930 . S
Co43 N44 2.034 1_554 S
Co43 O58 2.262 . S
Co43 O62 1.958 1_554 S
Co43 O66 1.950 . S
Co43 O67 2.057 . S
N44 Co43 2.034 1_556 S
N44 C45 1.366 . S
N44 C47 1.332 1_556 S
C45 N44 1.366 . S
C45 C48 1.377 . S
C45 H77 0.931 . S
N46 C47 1.346 . S
N46 C48 1.337 1_554 S
C47 N44 1.332 1_554 S
C47 N46 1.346 . S
C47 C81 1.361 . S
C48 C45 1.377 . S
C48 N46 1.337 1_556 S
C48 H84 0.930 . S
Co49 N50 2.034 . S
Co49 O63 1.950 . S
Co49 O64 2.262 1_554 S
Co49 O65 1.958 1_554 S
Co49 O69 2.057 1_554 S
N50 Co49 2.034 . S
N50 C53 1.366 . S
N50 C54 1.332 . S
N51 C52 1.337 . S
N51 C54 1.346 . S
C52 N51 1.337 . S
C52 C53 1.377 . S
C52 H85 0.930 . S
C53 N50 1.366 . S
C53 C52 1.377 . S
C53 H57 0.931 . S
C54 N50 1.332 . S
C54 N51 1.346 . S
C54 C71 1.361 . S
Co55 O58 2.097 . S
Co55 O59 2.065 . S
Co55 O60 2.065 . S
Co55 O61 2.042 1_554 S
Co55 O64 2.097 1_544 S
Co55 O68 2.042 1_545 S
C56 O64 1.253 . S
C56 O69 1.263 . S
H57 C53 0.931 . S
O58 Co43 2.262 . S
O58 Co55 2.097 . S
O58 C82 1.253 . S
O59 Co55 2.065 . S
O59 C75 1.221 1_545 S
O60 Co55 2.065 . S
O60 C70 1.221 . S
O61 Co55 2.042 1_556 S
O61 C76 1.237 . S
O62 Co43 1.958 1_556 S
O62 C76 1.278 . S
O63 Co49 1.950 . S
O63 C75 1.277 . S
O64 Co49 2.262 1_556 S
O64 Co55 2.097 1_566 S
O64 C56 1.253 . S
O65 Co49 1.958 1_556 S
O65 C83 1.278 1_556 S
O66 Co43 1.950 . S
O66 C70 1.277 . S
O67 Co43 2.057 . S
O67 C82 1.263 . S
O68 Co55 2.042 1_565 S
O68 C83 1.237 . S
O69 Co49 2.057 1_556 S
O69 C56 1.263 . S
C70 O60 1.221 . S
C70 O66 1.277 . S
C71 C54 1.361 . S
C71 H72 0.960 . S
C71 H73 0.961 . S
C71 H74 0.961 . S
H72 C71 0.960 . S
H73 C71 0.961 . S
H74 C71 0.961 . S
C75 O59 1.221 1_565 S
C75 O63 1.277 . S
C76 O61 1.237 . S
C76 O62 1.278 . S
H77 C45 0.931 . S
H78 C81 0.961 . S
H79 C81 0.961 . S
H80 C81 0.960 . S
C81 C47 1.361 . S
C81 H78 0.961 . S
C81 H79 0.961 . S
C81 H80 0.960 . S
C82 O58 1.253 . S
C82 O67 1.263 . S
C83 O65 1.278 1_554 S
C83 O68 1.237 . S
H84 C48 0.930 . S
H85 C52 0.930 . S
Co86 N87 2.034 . S
Co86 O101 2.262 1_554 S
Co86 O105 1.958 . S
Co86 O109 1.950 . S
Co86 O110 2.057 1_554 S
N87 Co86 2.034 . S
N87 C88 1.366 . S
N87 C90 1.332 . S
C88 N87 1.366 . S
C88 C91 1.377 . S
C88 H120 0.931 . S
N89 C90 1.346 . S
N89 C91 1.337 . S
C90 N87 1.332 . S
C90 N89 1.346 . S
C90 C124 1.361 1_554 S
C91 C88 1.377 . S
C91 N89 1.337 . S
C91 H127 0.930 . S
Co92 N93 2.034 1_554 S
Co92 O106 1.950 1_554 S
Co92 O107 2.262 . S
Co92 O108 1.958 . S
Co92 O112 2.057 . S
N93 Co92 2.034 1_556 S
N93 C96 1.366 . S
N93 C97 1.332 . S
N94 C95 1.337 . S
N94 C97 1.346 . S
C95 N94 1.337 . S
C95 C96 1.377 . S
C95 H128 0.930 . S
C96 N93 1.366 . S
C96 C95 1.377 . S
C96 H100 0.931 . S
C97 N93 1.332 . S
C97 N94 1.346 . S
C97 C114 1.361 . S
Co98 O101 2.097 1_554 S
Co98 O102 2.068 1_554 S
Co98 O103 2.065 . S
Co98 O104 2.042 . S
Co98 O107 2.097 1_455 S
Co98 O111 2.042 1_455 S
C99 O107 1.253 . S
C99 O112 1.263 . S
H100 C96 0.931 . S
O101 Co86 2.262 1_556 S
O101 Co98 2.097 1_556 S
O101 C125 1.253 . S
O102 Co98 2.068 1_556 S
O102 C118 1.211 1_455 S
O103 Co98 2.065 . S
O103 C113 1.221 . S
O104 Co98 2.042 . S
O104 C119 1.237 . S
O105 Co86 1.958 . S
O105 C119 1.278 . S
O106 Co92 1.950 1_556 S
O106 C118 1.277 . S
O107 Co92 2.262 . S
O107 Co98 2.097 1_655 S
O107 C99 1.253 . S
O108 Co92 1.958 . S
O108 C126 1.278 . S
O109 Co86 1.950 . S
O109 C113 1.277 . S
O110 Co86 2.057 1_556 S
O110 C125 1.263 . S
O111 Co98 2.042 1_655 S
O111 C126 1.239 . S
O112 Co92 2.057 . S
O112 C99 1.263 . S
C113 O103 1.221 . S
C113 O109 1.277 . S
C114 C97 1.361 . S
C114 H115 0.960 . S
C114 H116 0.961 . S
C114 H117 0.961 1_556 S
H115 C114 0.960 . S
H116 C114 0.961 . S
H117 C114 0.961 1_554 S
C118 O102 1.211 1_655 S
C118 O106 1.277 . S
C119 O104 1.237 . S
C119 O105 1.278 . S
H120 C88 0.931 . S
H121 C124 0.961 . S
H122 C124 0.961 . S
H123 C124 0.960 . S
C124 C90 1.361 1_556 S
C124 H121 0.961 . S
C124 H122 0.961 . S
C124 H123 0.960 . S
C125 O101 1.253 . S
C125 O110 1.263 . S
C126 O108 1.278 . S
C126 O111 1.239 . S
H127 C91 0.930 . S
H128 C95 0.930 . S
C129 C130 1.349 . S
C129 C131 1.327 . S
C129 H154 0.950 1_455 S
C130 C129 1.349 . S
C130 C146 1.349 . S
C131 C129 1.327 . S
C131 C150 1.429 . S
C131 H155 0.950 1_455 S
C132 C149 1.574 . S
C132 C151 1.368 . S
C132 H156 0.949 . S
H133 C137 0.949 . S
C134 C135 1.349 . S
C134 C136 1.327 . S
C134 H157 0.950 . S
C135 C134 1.349 . S
C135 C147 1.349 . S
C136 C134 1.327 . S
C136 C152 1.429 . S
C136 H158 0.950 . S
C137 H133 0.949 . S
C137 C145 1.574 . S
C137 C153 1.368 . S
H138 C146 0.950 . S
H139 C144 0.950 . S
H140 C145 0.950 1_655 S
H141 C147 0.950 . S
H142 C148 0.950 . S
H143 C149 0.949 . S
C144 H139 0.950 . S
C144 C146 1.327 . S
C144 C150 1.429 . S
C145 C137 1.574 . S
C145 H140 0.950 1_455 S
C145 C151 1.368 . S
C146 C130 1.349 . S
C146 H138 0.950 . S
C146 C144 1.327 . S
C147 C135 1.349 . S
C147 H141 0.950 . S
C147 C148 1.327 . S
C148 H142 0.950 . S
C148 C147 1.327 . S
C148 C152 1.429 . S
C149 C132 1.574 . S
C149 H143 0.949 . S
C149 C153 1.368 . S
C150 C131 1.429 . S
C150 C144 1.429 . S
C150 C151 1.523 . S
C151 C132 1.368 . S
C151 C145 1.368 . S
C151 C150 1.523 . S
C152 C136 1.429 . S
C152 C148 1.429 . S
C152 C153 1.523 . S
C153 C137 1.368 . S
C153 C149 1.368 . S
C153 C152 1.523 . S
H154 C129 0.950 1_655 S
H155 C131 0.950 1_655 S
H156 C132 0.949 . S
H157 C134 0.950 . S
H158 C136 0.950 . S
C159 C160 1.349 . S
C159 C161 1.327 . S
C159 H184 0.950 . S
C160 C159 1.349 . S
C160 C176 1.349 1_565 S
C161 C159 1.327 . S
C161 C180 1.429 . S
C161 H185 0.950 . S
C162 C179 1.574 . S
C162 C181 1.368 1_545 S
C162 H186 0.949 . S
H163 C167 0.949 . S
C164 C165 1.349 . S
C164 C166 1.327 . S
C164 H187 0.950 . S
C165 C164 1.349 . S
C165 C177 1.349 1_545 S
C166 C164 1.327 . S
C166 C182 1.429 1_545 S
C166 H188 0.950 . S
C167 H163 0.949 . S
C167 C175 1.574 . S
C167 C183 1.368 . S
H168 C176 0.950 . S
H169 C174 0.950 . S
H170 C175 0.949 . S
H171 C177 0.950 . S
H172 C178 0.950 . S
H173 C179 0.949 . S
C174 H169 0.950 . S
C174 C176 1.327 . S
C174 C180 1.429 1_545 S
C175 C167 1.574 . S
C175 H170 0.949 . S
C175 C181 1.368 . S
C176 C160 1.349 1_545 S
C176 H168 0.950 . S
C176 C174 1.327 . S
C177 C165 1.349 1_565 S
C177 H171 0.950 . S
C177 C178 1.327 . S
C178 H172 0.950 . S
C178 C177 1.327 . S
C178 C182 1.429 . S
C179 C162 1.574 . S
C179 H173 0.949 . S
C179 C183 1.368 1_545 S
C180 C161 1.429 . S
C180 C174 1.429 1_565 S
C180 C181 1.523 . S
C181 C162 1.368 1_565 S
C181 C175 1.368 . S
C181 C180 1.523 . S
C182 C166 1.429 1_565 S
C182 C178 1.429 . S
C182 C183 1.523 . S
C183 C167 1.368 . S
C183 C179 1.368 1_565 S
C183 C182 1.523 . S
H184 C159 0.950 . S
H185 C161 0.950 . S
H186 C162 0.949 . S
H187 C164 0.950 . S
H188 C166 0.950 . S
C189 C190 1.349 1_655 S
C189 C191 1.327 . S
C189 H214 0.950 . S
C190 C189 1.349 1_455 S
C190 C206 1.349 . S
C191 C189 1.327 . S
C191 C210 1.429 1_655 S
C191 H215 0.950 . S
C192 C209 1.574 . S
C192 C211 1.368 . S
C192 H216 0.949 . S
H193 C197 0.949 . S
C194 C195 1.349 . S
C194 C196 1.327 . S
C194 H217 0.950 . S
C195 C194 1.349 . S
C195 C207 1.349 1_455 S
C196 C194 1.327 . S
C196 C212 1.429 . S
C196 H218 0.950 . S
C197 H193 0.949 . S
C197 C205 1.574 . S
C197 C213 1.368 1_655 S
H198 C206 0.950 . S
H199 C204 0.950 . S
H200 C205 0.949 . S
H201 C207 0.950 . S
H202 C208 0.950 . S
H203 C209 0.949 . S
C204 H199 0.950 . S
C204 C206 1.327 . S
C204 C210 1.429 . S
C205 C197 1.574 . S
C205 H200 0.949 . S
C205 C211 1.368 1_655 S
C206 C190 1.349 . S
C206 H198 0.950 . S
C206 C204 1.327 . S
C207 C195 1.349 1_655 S
C207 H201 0.950 . S
C207 C208 1.327 . S
C208 H202 0.950 . S
C208 C207 1.327 . S
C208 C212 1.429 1_655 S
C209 C192 1.574 . S
C209 H203 0.949 . S
C209 C213 1.368 . S
C210 C191 1.429 1_455 S
C210 C204 1.429 . S
C210 C211 1.523 . S
C211 C192 1.368 . S
C211 C205 1.368 1_455 S
C211 C210 1.523 . S
C212 C196 1.429 . S
C212 C208 1.429 1_455 S
C212 C213 1.523 . S
C213 C197 1.368 1_455 S
C213 C209 1.368 . S
C213 C212 1.523 . S
H214 C189 0.950 . S
H215 C191 0.950 . S
H216 C192 0.949 . S
H217 C194 0.950 . S
H218 C196 0.950 . S
C219 C220 1.349 . S
C219 C221 1.327 . S
C219 H244 0.950 . S
C220 C219 1.349 . S
C220 C236 1.349 . S
C221 C219 1.327 . S
C221 C240 1.429 . S
C221 H245 0.950 . S
C222 C239 1.574 . S
C222 C241 1.368 . S
C222 H246 0.949 . S
H223 C227 0.949 . S
C224 C225 1.349 . S
C224 C226 1.327 . S
C224 H247 0.950 . S
C225 C224 1.349 . S
C225 C237 1.349 . S
C226 C224 1.327 . S
C226 C242 1.429 . S
C226 H248 0.950 . S
C227 H223 0.949 . S
C227 C235 1.574 . S
C227 C243 1.368 . S
H228 C236 0.950 . S
H229 C234 0.950 . S
H230 C235 0.949 . S
H231 C237 0.950 . S
H232 C238 0.950 . S
H233 C239 0.949 . S
C234 H229 0.950 . S
C234 C236 1.327 . S
C234 C240 1.429 . S
C235 C227 1.574 . S
C235 H230 0.949 . S
C235 C241 1.368 . S
C236 C220 1.349 . S
C236 H228 0.950 . S
C236 C234 1.327 . S
C237 C225 1.349 . S
C237 H231 0.950 . S
C237 C238 1.327 . S
C238 H232 0.950 . S
C238 C237 1.327 . S
C238 C242 1.429 . S
C239 C222 1.574 . S
C239 H233 0.949 . S
C239 C243 1.368 . S
C240 C221 1.429 . S
C240 C234 1.429 . S
C240 C241 1.523 . S
C241 C222 1.368 . S
C241 C235 1.368 . S
C241 C240 1.523 . S
C242 C226 1.429 . S
C242 C238 1.429 . S
C242 C243 1.523 . S
C243 C227 1.368 . S
C243 C239 1.368 . S
C243 C242 1.523 . S
H244 C219 0.950 . S
H245 C221 0.950 . S
H246 C222 0.949 . S
H247 C224 0.950 . S
H248 C226 0.950 . S
C249 C250 1.349 . S
C249 C251 1.327 . S
C249 H274 0.950 . S
C250 C249 1.349 . S
C250 C266 1.349 . S
C251 C249 1.327 . S
C251 C270 1.429 . S
C251 H275 0.950 . S
C252 C269 1.574 . S
C252 C271 1.368 1_455 S
C252 H276 0.949 . S
H253 C257 0.949 . S
C254 C255 1.349 1_455 S
C254 C256 1.327 . S
C254 H277 0.950 . S
C255 C254 1.349 1_655 S
C255 C267 1.349 . S
C256 C254 1.327 . S
C256 C272 1.429 1_455 S
C256 H278 0.950 . S
C257 H253 0.949 . S
C257 C265 1.574 . S
C257 C273 1.368 . S
H258 C266 0.950 1_455 S
H259 C264 0.939 1_455 S
H260 C265 0.949 . S
H261 C267 0.950 . S
H262 C268 0.950 . S
H263 C269 0.949 . S
C264 H259 0.939 1_655 S
C264 C266 1.330 . S
C264 C270 1.436 . S
C265 C257 1.574 . S
C265 H260 0.949 . S
C265 C271 1.368 . S
C266 C250 1.349 . S
C266 H258 0.950 1_655 S
C266 C264 1.330 . S
C267 C255 1.349 . S
C267 H261 0.950 . S
C267 C268 1.327 . S
C268 H262 0.950 . S
C268 C267 1.327 . S
C268 C272 1.429 . S
C269 C252 1.574 . S
C269 H263 0.949 . S
C269 C273 1.368 1_455 S
C270 C251 1.429 . S
C270 C264 1.436 . S
C270 C271 1.523 . S
C271 C252 1.368 1_655 S
C271 C265 1.368 . S
C271 C270 1.523 . S
C272 C256 1.429 1_655 S
C272 C268 1.429 . S
C272 C273 1.523 . S
C273 C257 1.368 . S
C273 C269 1.368 1_655 S
C273 C272 1.523 . S
H274 C249 0.950 . S
H275 C251 0.950 . S
H276 C252 0.949 . S
H277 C254 0.950 . S
H278 C256 0.950 . S
C279 C280 1.349 1_565 S
C279 C281 1.327 . S
C279 H304 0.950 . S
C280 C279 1.349 1_545 S
C280 C296 1.349 . S
C281 C279 1.327 . S
C281 C300 1.429 1_565 S
C281 H305 0.950 . S
C282 C299 1.574 . S
C282 C301 1.368 . S
C282 H306 0.949 . S
H283 C287 0.949 . S
C284 C285 1.349 . S
C284 C286 1.327 . S
C284 H307 0.950 . S
C285 C284 1.349 . S
C285 C297 1.349 1_545 S
C286 C284 1.327 . S
C286 C302 1.429 . S
C286 H308 0.950 . S
C287 H283 0.949 . S
C287 C295 1.574 . S
C287 C303 1.368 1_565 S
H288 C296 0.950 . S
H289 C294 0.950 . S
H290 C295 0.949 . S
H291 C297 0.950 . S
H292 C298 0.950 . S
H293 C299 0.949 . S
C294 H289 0.950 . S
C294 C296 1.327 . S
C294 C300 1.429 . S
C295 C287 1.574 . S
C295 H290 0.949 . S
C295 C301 1.368 1_565 S
C296 C280 1.349 . S
C296 H288 0.950 . S
C296 C294 1.327 . S
C297 C285 1.349 1_565 S
C297 H291 0.950 . S
C297 C298 1.327 . S
C298 H292 0.950 . S
C298 C297 1.327 . S
C298 C302 1.429 1_565 S
C299 C282 1.574 . S
C299 H293 0.949 . S
C299 C303 1.368 . S
C300 C281 1.429 1_545 S
C300 C294 1.429 . S
C300 C301 1.523 . S
C301 C282 1.368 . S
C301 C295 1.368 1_545 S
C301 C300 1.523 . S
C302 C286 1.429 . S
C302 C298 1.429 1_545 S
C302 C303 1.523 . S
C303 C287 1.368 1_545 S
C303 C299 1.368 . S
C303 C302 1.523 . S
H304 C279 0.950 . S
H305 C281 0.950 . S
H306 C282 0.949 . S
H307 C284 0.950 . S
H308 C286 0.950 . S
C309 C310 1.349 . S
C309 C311 1.327 . S
C309 H334 0.950 . S
C310 C309 1.349 . S
C310 C326 1.349 1_455 S
C311 C309 1.327 . S
C311 C330 1.429 . S
C311 H335 0.950 . S
C312 C329 1.574 . S
C312 C331 1.368 1_655 S
C312 H336 0.949 . S
H313 C317 0.949 . S
C314 C315 1.349 1_655 S
C314 C316 1.327 . S
C314 H337 0.950 . S
C315 C314 1.349 1_455 S
C315 C327 1.349 . S
C316 C314 1.327 . S
C316 C332 1.429 1_655 S
C316 H338 0.950 . S
C317 H313 0.949 . S
C317 C325 1.574 . S
C317 C333 1.368 . S
H318 C326 0.950 . S
H319 C324 0.950 . S
H320 C325 0.949 . S
H321 C327 0.950 . S
H322 C328 0.950 . S
H323 C329 0.949 . S
C324 H319 0.950 . S
C324 C326 1.327 . S
C324 C330 1.429 1_655 S
C325 C317 1.574 . S
C325 H320 0.949 . S
C325 C331 1.368 . S
C326 C310 1.349 1_655 S
C326 H318 0.950 . S
C326 C324 1.327 . S
C327 C315 1.349 . S
C327 H321 0.950 . S
C327 C328 1.327 . S
C328 H322 0.950 . S
C328 C327 1.327 . S
C328 C332 1.429 . S
C329 C312 1.574 . S
C329 H323 0.949 . S
C329 C333 1.368 1_655 S
C330 C311 1.429 . S
C330 C324 1.429 1_455 S
C330 C331 1.523 . S
C331 C312 1.368 1_455 S
C331 C325 1.368 . S
C331 C330 1.523 . S
C332 C316 1.429 1_455 S
C332 C328 1.429 . S
C332 C333 1.523 . S
C333 C317 1.368 . S
C333 C329 1.368 1_455 S
C333 C332 1.523 . S
H334 C309 0.950 . S
H335 C311 0.950 . S
H336 C312 0.949 . S
H337 C314 0.950 . S
H338 C316 0.950 . S
C339 C340 1.349 . S
C339 C341 1.327 . S
C339 H364 0.950 . S
C340 C339 1.349 . S
C340 C356 1.349 1_565 S
C341 C339 1.327 . S
C341 C360 1.429 . S
C341 H365 0.950 . S
C342 C359 1.574 . S
C342 C361 1.368 1_545 S
C342 H366 0.949 . S
H343 C347 0.949 . S
C344 C345 1.349 1_545 S
C344 C346 1.327 . S
C344 H367 0.950 . S
C345 C344 1.349 1_565 S
C345 C357 1.349 . S
C346 C344 1.327 . S
C346 C362 1.429 1_545 S
C346 H368 0.950 . S
C347 H343 0.949 . S
C347 C355 1.574 . S
C347 C363 1.368 . S
H348 C356 0.950 . S
H349 C354 0.950 . S
H350 C355 0.949 . S
H351 C357 0.950 . S
H352 C358 0.950 . S
H353 C359 0.949 . S
C354 H349 0.950 . S
C354 C356 1.327 . S
C354 C360 1.429 1_545 S
C355 C347 1.574 . S
C355 H350 0.949 . S
C355 C361 1.368 . S
C356 C340 1.349 1_545 S
C356 H348 0.950 . S
C356 C354 1.327 . S
C357 C345 1.349 . S
C357 H351 0.950 . S
C357 C358 1.327 . S
C358 H352 0.950 . S
C358 C357 1.327 . S
C358 C362 1.429 . S
C359 C342 1.574 . S
C359 H353 0.949 . S
C359 C363 1.368 1_545 S
C360 C341 1.429 . S
C360 C354 1.429 1_565 S
C360 C361 1.523 . S
C361 C342 1.368 1_565 S
C361 C355 1.368 . S
C361 C360 1.523 . S
C362 C346 1.429 1_565 S
C362 C358 1.429 . S
C362 C363 1.523 . S
C363 C347 1.368 . S
C363 C359 1.368 1_565 S
C363 C362 1.523 . S
H364 C339 0.950 . S
H365 C341 0.950 . S
H366 C342 0.949 . S
H367 C344 0.950 . S
H368 C346 0.950 . S
C369 C370 1.349 1_556 S
C369 C371 1.327 . S
C369 H394 0.950 . S
C370 C369 1.349 1_554 S
C370 C386 1.349 . S
C371 C369 1.327 . S
C371 C390 1.429 1_556 S
C371 H395 0.950 . S
C372 C389 1.574 . S
C372 C391 1.368 . S
C372 H396 0.949 . S
H373 C377 0.949 . S
C374 C375 1.349 . S
C374 C376 1.327 . S
C374 H397 0.950 . S
C375 C374 1.349 . S
C375 C387 1.349 1_554 S
C376 C374 1.327 . S
C376 C392 1.429 . S
C376 H398 0.950 . S
C377 H373 0.949 . S
C377 C385 1.574 . S
C377 C393 1.368 1_556 S
H378 C386 0.950 . S
H379 C384 0.950 . S
H380 C385 0.949 . S
H381 C387 0.950 . S
H382 C388 0.950 . S
H383 C389 0.949 . S
C384 H379 0.950 . S
C384 C386 1.327 . S
C384 C390 1.429 . S
C385 C377 1.574 . S
C385 H380 0.949 . S
C385 C391 1.368 1_556 S
C386 C370 1.349 . S
C386 H378 0.950 . S
C386 C384 1.327 . S
C387 C375 1.349 1_556 S
C387 H381 0.950 . S
C387 C388 1.327 . S
C388 H382 0.950 . S
C388 C387 1.327 . S
C388 C392 1.429 1_556 S
C389 C372 1.574 . S
C389 H383 0.949 . S
C389 C393 1.368 . S
C390 C371 1.429 1_554 S
C390 C384 1.429 . S
C390 C391 1.523 . S
C391 C372 1.368 . S
C391 C385 1.368 1_554 S
C391 C390 1.523 . S
C392 C376 1.429 . S
C392 C388 1.429 1_554 S
C392 C393 1.523 . S
C393 C377 1.368 1_554 S
C393 C389 1.368 . S
C393 C392 1.523 . S
H394 C369 0.950 . S
H395 C371 0.950 . S
H396 C372 0.949 . S
H397 C374 0.950 . S
H398 C376 0.950 . S
C399 C400 1.349 . S
C399 C401 1.327 . S
C399 H424 0.950 . S
C400 C399 1.349 . S
C400 C416 1.349 1_554 S
C401 C399 1.327 . S
C401 C420 1.429 . S
C401 H425 0.950 . S
C402 C419 1.574 . S
C402 C421 1.368 1_556 S
C402 H426 0.949 . S
H403 C407 0.949 . S
C404 C405 1.349 1_556 S
C404 C406 1.327 . S
C404 H427 0.950 . S
C405 C404 1.349 1_554 S
C405 C417 1.349 . S
C406 C404 1.327 . S
C406 C422 1.429 1_556 S
C406 H428 0.950 . S
C407 H403 0.949 . S
C407 C415 1.574 . S
C407 C423 1.368 . S
H408 C416 0.950 . S
H409 C414 0.950 . S
H410 C415 0.949 . S
H411 C417 0.950 . S
H412 C418 0.950 . S
H413 C419 0.949 . S
C414 H409 0.950 . S
C414 C416 1.327 . S
C414 C420 1.429 1_556 S
C415 C407 1.574 . S
C415 H410 0.949 . S
C415 C421 1.368 . S
C416 C400 1.349 1_556 S
C416 H408 0.950 . S
C416 C414 1.327 . S
C417 C405 1.349 . S
C417 H411 0.950 . S
C417 C418 1.327 . S
C418 H412 0.950 . S
C418 C417 1.327 . S
C418 C422 1.429 . S
C419 C402 1.574 . S
C419 H413 0.949 . S
C419 C423 1.368 1_556 S
C420 C401 1.429 . S
C420 C414 1.429 1_554 S
C420 C421 1.523 . S
C421 C402 1.368 1_554 S
C421 C415 1.368 . S
C421 C420 1.523 . S
C422 C406 1.429 1_554 S
C422 C418 1.429 . S
C422 C423 1.523 . S
C423 C407 1.368 . S
C423 C419 1.368 1_554 S
C423 C422 1.523 . S
H424 C399 0.950 . S
H425 C401 0.950 . S
H426 C402 0.949 . S
H427 C404 0.950 . S
H428 C406 0.950 . S
C429 C430 1.349 . S
C429 C431 1.327 . S
C429 H454 0.950 . S
C430 C429 1.349 . S
C430 C446 1.349 1_554 S
C431 C429 1.327 . S
C431 C450 1.429 . S
C431 H455 0.950 . S
C432 C449 1.574 . S
C432 C451 1.368 1_556 S
C432 H456 0.949 . S
H433 C437 0.949 . S
C434 C435 1.349 . S
C434 C436 1.327 . S
C434 H457 0.950 . S
C435 C434 1.349 . S
C435 C447 1.349 1_556 S
C436 C434 1.327 . S
C436 C452 1.429 1_556 S
C436 H458 0.950 . S
C437 H433 0.949 . S
C437 C445 1.574 . S
C437 C453 1.368 . S
H438 C446 0.950 . S
H439 C444 0.950 . S
H440 C445 0.949 . S
H441 C447 0.950 . S
H442 C448 0.950 . S
H443 C449 0.949 . S
C444 H439 0.950 . S
C444 C446 1.327 . S
C444 C450 1.429 1_556 S
C445 C437 1.574 . S
C445 H440 0.949 . S
C445 C451 1.368 . S
C446 C430 1.349 1_556 S
C446 H438 0.950 . S
C446 C444 1.327 . S
C447 C435 1.349 1_554 S
C447 H441 0.950 . S
C447 C448 1.327 . S
C448 H442 0.950 . S
C448 C447 1.327 . S
C448 C452 1.429 . S
C449 C432 1.574 . S
C449 H443 0.949 . S
C449 C453 1.368 1_556 S
C450 C431 1.429 . S
C450 C444 1.429 1_554 S
C450 C451 1.523 . S
C451 C432 1.368 1_554 S
C451 C445 1.368 . S
C451 C450 1.523 . S
C452 C436 1.429 1_554 S
C452 C448 1.429 . S
C452 C453 1.523 . S
C453 C437 1.368 . S
C453 C449 1.368 1_554 S
C453 C452 1.523 . S
H454 C429 0.950 . S
H455 C431 0.950 . S
H456 C432 0.949 . S
H457 C434 0.950 . S
H458 C436 0.950 . S
C459 C460 1.349 . S
C459 C461 1.327 . S
C459 H484 0.950 . S
C460 C459 1.349 . S
C460 C476 1.349 1_556 S
C461 C459 1.327 . S
C461 C480 1.436 . S
C461 H485 0.950 . S
C462 C479 1.574 . S
C462 C481 1.368 . S
C462 H486 0.949 . S
H463 C467 0.949 . S
C464 C465 1.349 . S
C464 C466 1.327 . S
C464 H487 0.950 . S
C465 C464 1.349 . S
C465 C477 1.349 1_554 S
C466 C464 1.327 . S
C466 C482 1.429 . S
C466 H488 0.950 . S
C467 H463 0.949 . S
C467 C475 1.574 . S
C467 C483 1.368 1_556 S
H468 C476 0.950 . S
H469 C474 0.950 . S
H470 C475 0.949 . S
H471 C477 0.950 . S
H472 C478 0.950 . S
H473 C479 0.949 . S
C474 H469 0.950 . S
C474 C476 1.327 . S
C474 C480 1.423 1_554 S
C475 C467 1.574 . S
C475 H470 0.949 . S
C475 C481 1.368 1_556 S
C476 C460 1.349 1_554 S
C476 H468 0.950 . S
C476 C474 1.327 . S
C477 C465 1.349 1_556 S
C477 H471 0.950 . S
C477 C478 1.327 . S
C478 H472 0.950 . S
C478 C477 1.327 . S
C478 C482 1.429 1_556 S
C479 C462 1.574 . S
C479 H473 0.949 . S
C479 C483 1.368 . S
C480 C461 1.436 . S
C480 C474 1.423 1_556 S
C480 C481 1.521 1_556 S
C481 C462 1.368 . S
C481 C475 1.368 1_554 S
C481 C480 1.521 1_554 S
C482 C466 1.429 . S
C482 C478 1.429 1_554 S
C482 C483 1.523 . S
C483 C467 1.368 1_554 S
C483 C479 1.368 . S
C483 C482 1.523 . S
H484 C459 0.950 . S
H485 C461 0.950 . S
H486 C462 0.949 . S
H487 C464 0.950 . S
H488 C466 0.950 . S
C130 C119 1.598 . S
C135 C27 1.665 . S
C160 C32 1.210 . S
C165 C75 1.168 1_545 S
C190 C39 1.676 . S
C195 C99 1.652 1_455 S
C220 C82 1.106 . S
C225 N3 1.261 . S
C250 C40 1.652 . S
C255 C118 1.612 . S
C280 C76 0.950 . S
C285 C33 0.974 . S
C310 C125 1.726 . S
C315 C13 1.759 1_455 S
C340 C56 1.071 . S
C345 N8 1.195 . S
C370 N89 0.735 . S
C375 N46 0.736 . S
C400 C113 0.400 . S
C405 C83 0.375 . S
C430 C70 0.383 . S
C435 C126 0.416 1_556 S
C460 N94 0.660 . S
C465 N51 0.655 . S
