# Generated by pormake.
# Topology unj, (4)-cn, num edge types: 1
# Building blocks:
#     Node 0, Type 0, BuildingBlock: GALJAG_clean_sbu_0, # of connection points: 4
#     Node 1, Type 0, BuildingBlock: GALJAG_clean_sbu_0, # of connection points: 4
#     Node 2, Type 0, BuildingBlock: GALJAG_clean_sbu_0, # of connection points: 4
#     Node 3, Type 0, BuildingBlock: GALJAG_clean_sbu_0, # of connection points: 4
#     Node 4, Type 0, BuildingBlock: GALJAG_clean_sbu_0, # of connection points: 4
#     Node 5, Type 0, BuildingBlock: GALJAG_clean_sbu_0, # of connection points: 4
#     Edge 6, Type (0, 0), BuildingBlock: ZUJKAS_clean_linker_0, # of connection points: 2
#     Edge 7, Type (0, 0), BuildingBlock: ZUJKAS_clean_linker_0, # of connection points: 2
#     Edge 8, Type (0, 0), BuildingBlock: ZUJKAS_clean_linker_0, # of connection points: 2
#     Edge 9, Type (0, 0), BuildingBlock: ZUJKAS_clean_linker_0, # of connection points: 2
#     Edge 10, Type (0, 0), BuildingBlock: ZUJKAS_clean_linker_0, # of connection points: 2
#     Edge 11, Type (0, 0), BuildingBlock: ZUJKAS_clean_linker_0, # of connection points: 2
#     Edge 12, Type (0, 0), BuildingBlock: ZUJKAS_clean_linker_0, # of connection points: 2
#     Edge 13, Type (0, 0), BuildingBlock: ZUJKAS_clean_linker_0, # of connection points: 2
#     Edge 14, Type (0, 0), BuildingBlock: ZUJKAS_clean_linker_0, # of connection points: 2
#     Edge 15, Type (0, 0), BuildingBlock: ZUJKAS_clean_linker_0, # of connection points: 2
#     Edge 16, Type (0, 0), BuildingBlock: ZUJKAS_clean_linker_0, # of connection points: 2
#     Edge 17, Type (0, 0), BuildingBlock: ZUJKAS_clean_linker_0, # of connection points: 2
# Relax obj value: 0.013
# Max RMSD: 0.059
# Mean RMSD: 0.059
data_MOF--net-unj--node1-GALJAG_clean_sbu_0--edge1-ZUJKAS_clean_linker_0
_symmetry_space_group_name_H-M    P1
_symmetry_Int_Tables_number       1
_symmetry_cell_setting            triclinic
loop_
_symmetry_equiv_pos_as_xyz
'x, y, z'
_cell_length_a     40.058285
_cell_length_b     40.062357
_cell_length_c     52.153479
_cell_angle_alpha  90.015045
_cell_angle_beta   90.014538
_cell_angle_gamma 120.00579
loop_
_atom_site_label
_atom_site_type_symbol
_atom_site_fract_x
_atom_site_fract_y
_atom_site_fract_z
_atom_type_partial_charge
In0 In 0.50671 0.25338 0.58382 0.0
O1 O 0.55941 0.28878 0.55829 0.0
O2 O 0.50418 0.27377 0.54357 0.0
C3 C 0.54197 0.25051 0.62724 0.0
C4 C 0.47174 0.181 0.56511 0.0
C5 C 0.47046 0.28952 0.60281 0.0
O6 O 0.55987 0.27433 0.60953 0.0
O7 O 0.50674 0.22785 0.62275 0.0
O8 O 0.45314 0.25386 0.59812 0.0
O9 O 0.50593 0.30706 0.59752 0.0
C10 C 0.54 0.29022 0.53968 0.0
O11 O 0.45356 0.19821 0.57071 0.0
O12 O 0.50755 0.2001 0.56934 0.0
In13 In 0.25489 0.51234 0.75046 0.0
O14 O 0.2546 0.45856 0.73582 0.0
O15 O 0.30773 0.51155 0.73512 0.0
C16 C 0.18312 0.47505 0.7702 0.0
C17 C 0.25153 0.54765 0.70719 0.0
C18 C 0.29273 0.54699 0.79412 0.0
O19 O 0.20118 0.45791 0.76408 0.0
O20 O 0.20111 0.5109 0.76608 0.0
O21 O 0.28407 0.56428 0.77747 0.0
O22 O 0.28301 0.51272 0.78845 0.0
C23 C 0.28997 0.47595 0.73016 0.0
O24 O 0.27803 0.56445 0.72357 0.0
O25 O 0.22653 0.5136 0.71296 0.0
In26 In 0.74373 0.25566 0.91639 0.0
O27 O 0.71699 0.28072 0.88914 0.0
O28 O 0.71227 0.22708 0.87937 0.0
C29 C 0.74529 0.29304 0.95989 0.0
C30 C 0.8152 0.28956 0.89612 0.0
C31 C 0.71043 0.18434 0.93677 0.0
O32 O 0.71907 0.28312 0.94329 0.0
O33 O 0.77101 0.28492 0.95423 0.0
O34 O 0.7459 0.20335 0.93147 0.0
O35 O 0.69173 0.2011 0.93144 0.0
C36 C 0.70527 0.2534 0.87322 0.0
O37 O 0.79562 0.25375 0.90019 0.0
O38 O 0.79892 0.30828 0.9026 0.0
In39 In 0.49009 0.74582 0.08377 0.0
O40 O 0.43747 0.71619 0.05733 0.0
O41 O 0.48875 0.71711 0.04582 0.0
C42 C 0.45637 0.74997 0.12755 0.0
C43 C 0.52809 0.81798 0.06443 0.0
C44 C 0.52432 0.70834 0.1035 0.0
O45 O 0.43721 0.72836 0.10913 0.0
O46 O 0.49216 0.76977 0.12363 0.0
O47 O 0.54284 0.74356 0.09749 0.0
O48 O 0.48854 0.69182 0.09917 0.0
C49 C 0.45433 0.70727 0.04053 0.0
O50 O 0.5444 0.79859 0.06881 0.0
O51 O 0.49279 0.80119 0.07012 0.0
In52 In 0.74206 0.48705 0.25036 0.0
O53 O 0.71964 0.43415 0.22427 0.0
O54 O 0.76837 0.48629 0.2119 0.0
C55 C 0.70512 0.45373 0.29446 0.0
C56 C 0.70662 0.52363 0.23081 0.0
C57 C 0.81416 0.52211 0.26959 0.0
O58 O 0.70816 0.4345 0.27633 0.0
O59 O 0.71996 0.48929 0.29006 0.0
O60 O 0.79658 0.5401 0.26447 0.0
O61 O 0.79561 0.48652 0.26457 0.0
C62 C 0.74446 0.45152 0.20697 0.0
O63 O 0.74238 0.54062 0.23516 0.0
O64 O 0.68868 0.4884 0.23672 0.0
In65 In 0.25309 0.7434 0.41659 0.0
O66 O 0.19777 0.74128 0.40368 0.0
O67 O 0.2005 0.68971 0.40101 0.0
C68 C 0.289 0.81541 0.43618 0.0
C69 C 0.29034 0.74793 0.37247 0.0
C70 C 0.2496 0.70465 0.45982 0.0
O71 O 0.25342 0.79727 0.43118 0.0
O72 O 0.30654 0.79748 0.43091 0.0
O73 O 0.2745 0.7119 0.44262 0.0
O74 O 0.22621 0.71616 0.4549 0.0
C75 C 0.18109 0.7062 0.39724 0.0
O76 O 0.28787 0.72589 0.39059 0.0
O77 O 0.27477 0.76799 0.37689 0.0
H78 H 0.39579 0.13595 0.55276 0.0
H79 H 0.36502 0.07311 0.53141 0.0
H80 H 0.47414 0.07616 0.52911 0.0
H81 H 0.50508 0.13886 0.55067 0.0
H82 H 0.38467 0.05696 0.48279 0.0
H83 H 0.40004 0.96927 0.55944 0.0
H84 H 0.40541 0.01609 0.56548 0.0
H85 H 0.44393 0.01222 0.55085 0.0
C86 C 0.41315 0.12306 0.54794 0.0
C87 C 0.45281 0.14223 0.55344 0.0
C88 C 0.39556 0.08723 0.53571 0.0
C89 C 0.41724 0.06986 0.52895 0.0
C90 C 0.45678 0.08879 0.53459 0.0
H91 H 0.36483 0.859 0.44935 0.0
H92 H 0.39627 0.92171 0.47091 0.0
C93 C 0.47443 0.12466 0.54679 0.0
C94 C 0.39876 0.03271 0.51502 0.0
H95 H 0.3777 0.93914 0.519 0.0
C96 C 0.38296 0.03112 0.49072 0.0
C97 C 0.3968 -0.0008 0.52542 0.0
C98 C 0.41213 -0.001 0.55182 0.0
C99 C 0.36566 0.99694 0.47635 0.0
C100 C 0.36355 0.96337 0.48679 0.0
C101 C 0.37944 0.96498 0.51106 0.0
C102 C 0.34467 0.92612 0.47294 0.0
C103 C 0.3505 0.99724 0.44991 0.0
C104 C 0.30523 0.90784 0.46705 0.0
C105 C 0.28722 0.8721 0.4547 0.0
C106 C 0.30834 0.85395 0.44819 0.0
C107 C 0.34786 0.87237 0.45406 0.0
C108 C 0.36583 0.90811 0.4664 0.0
H109 H 0.36321 0.02697 0.44216 0.0
H110 H 0.35666 0.97963 0.43634 0.0
H111 H 0.31879 0.98475 0.45089 0.0
H112 H 0.28823 0.92093 0.47239 0.0
H113 H 0.25668 0.85846 0.45057 0.0
H114 H 0.50253 0.36542 0.61577 0.0
H115 H 0.47123 0.39669 0.6375 0.0
H116 H 0.36371 0.28888 0.63809 0.0
H117 H 0.39487 0.25729 0.61663 0.0
H118 H 0.40684 0.4027 0.6222 0.0
H119 H 0.37986 0.32232 0.71375 0.0
H120 H 0.41273 0.32329 0.6897 0.0
H121 H 0.36163 0.2925 0.6857 0.0
C122 C 0.4722 0.3484 0.62048 0.0
C123 C 0.45117 0.30887 0.61465 0.0
C124 C 0.45439 0.36629 0.63288 0.0
C125 C 0.41536 0.34492 0.63976 0.0
C126 C 0.39406 0.30567 0.63339 0.0
H127 H 0.25721 0.40014 0.71673 0.0
H128 H 0.28794 0.36868 0.69449 0.0
C129 C 0.41184 0.28775 0.621 0.0
C130 C 0.39693 0.3638 0.6535 0.0
H131 H 0.35223 0.36234 0.70956 0.0
C132 C 0.39501 0.39402 0.64134 0.0
C133 C 0.38156 0.35231 0.67844 0.0
C134 C 0.38427 0.32106 0.69282 0.0
C135 C 0.37749 0.41271 0.65331 0.0
C136 C 0.36213 0.40123 0.67826 0.0
C137 C 0.36402 0.37099 0.69041 0.0
C138 C 0.34393 0.42026 0.69209 0.0
C139 C 0.37487 0.44403 0.63897 0.0
C140 C 0.36548 0.45947 0.6985 0.0
C141 C 0.34804 0.4775 0.71118 0.0
C142 C 0.30879 0.45651 0.71779 0.0
C143 C 0.28748 0.41704 0.71183 0.0
C144 C 0.30496 0.39905 0.69914 0.0
H145 H 0.37915 0.44271 0.61802 0.0
H146 H 0.34648 0.44195 0.64216 0.0
H147 H 0.39763 0.47256 0.64604 0.0
H148 H 0.3958 0.47614 0.69368 0.0
H149 H 0.36523 0.50791 0.71564 0.0
H150 H 0.85483 0.25479 0.87916 0.0
H151 H 0.91743 0.28517 0.85751 0.0
H152 H 0.92483 0.39601 0.86398 0.0
H153 H 0.86205 0.36581 0.88536 0.0
H154 H 0.94093 0.37938 0.81462 0.0
H155 H 0.02438 0.35354 0.88931 0.0
H156 H 0.98085 0.31132 0.87921 0.0
H157 H 0.9781 0.34927 0.89569 0.0
C158 C 0.86993 0.28567 0.87614 0.0
C159 C 0.85364 0.30797 0.88401 0.0
C160 C 0.90574 0.30299 0.86388 0.0
C161 C 0.92593 0.34288 0.85946 0.0
C162 C 0.90974 0.36519 0.86733 0.0
H163 H 0.14039 0.50665 0.78663 0.0
H164 H 0.07725 0.47374 0.80744 0.0
C165 C 0.87394 0.34792 0.87957 0.0
C166 C 0.96334 0.36125 0.84583 0.0
H167 H 0.05589 0.37908 0.84974 0.0
C168 C 0.96613 0.37944 0.8223 0.0
C169 C 0.99602 0.36106 0.8559 0.0
C170 C 0.99496 0.34305 0.88152 0.0
C171 C 0.00073 0.3972 0.80839 0.0
C172 C 0.03352 0.39732 0.81856 0.0
C173 C 0.03065 0.37887 0.842 0.0
C174 C 0.07132 0.41705 0.80542 0.0
C175 C 0.00168 0.41509 0.78274 0.0
C176 C 0.08924 0.3962 0.79785 0.0
C177 C 0.12544 0.41497 0.78611 0.0
C178 C 0.14438 0.45496 0.78188 0.0
C179 C 0.12637 0.47577 0.78949 0.0
C180 C 0.09022 0.45699 0.80125 0.0
H181 H 0.97229 0.40344 0.77459 0.0
H182 H 0.01435 0.44666 0.78519 0.0
H183 H 0.01968 0.4101 0.7688 0.0
H184 H 0.07518 0.36538 0.80104 0.0
H185 H 0.13868 0.39821 0.78052 0.0
H186 H 0.60355 0.85918 0.04981 0.0
H187 H 0.63636 0.9225 0.02905 0.0
H188 H 0.53103 0.92696 0.03134 0.0
H189 H 0.49819 0.86397 0.05236 0.0
H190 H 0.61727 0.9428 0.98229 0.0
H191 H 0.61027 0.03091 0.06197 0.0
H192 H 0.60182 0.98263 0.06664 0.0
H193 H 0.56448 0.99012 0.05367 0.0
C194 C 0.5875 0.87383 0.04609 0.0
C195 C 0.54836 0.85674 0.05279 0.0
C196 C 0.60625 0.90992 0.03421 0.0
C197 C 0.58625 0.92959 0.02899 0.0
C198 C 0.54719 0.9126 0.03568 0.0
H199 H 0.63552 0.13983 0.9516 0.0
H200 H 0.60616 0.07738 0.97336 0.0
C201 C 0.52843 0.87654 0.04757 0.0
C202 C 0.60577 0.96719 0.01561 0.0
H203 H 0.62932 0.06137 0.0212 0.0
C204 C 0.62021 0.96882 0.99084 0.0
C205 C 0.60946 0.001 0.02686 0.0
C206 C 0.59602 0.00131 0.05384 0.0
C207 C 0.63742 0.00325 0.97672 0.0
C208 C 0.6407 0.03694 0.98787 0.0
C209 C 0.62658 0.03539 0.01271 0.0
C210 C 0.65845 0.07411 0.974 0.0
C211 C 0.65104 0.0031 0.94977 0.0
C212 C 0.69759 0.09292 0.96727 0.0
C213 C 0.71444 0.12858 0.95483 0.0
C214 C 0.69241 0.14602 0.94903 0.0
C215 C 0.65318 0.12703 0.95574 0.0
C216 C 0.63639 0.09143 0.96821 0.0
H217 H 0.6385 0.97339 0.942 0.0
H218 H 0.6434 0.02019 0.93675 0.0
H219 H 0.68288 0.01641 0.94979 0.0
H220 H 0.71523 0.08029 0.97197 0.0
H221 H 0.74478 0.14265 0.95001 0.0
H222 H 0.63051 0.49222 0.21866 0.0
H223 H 0.5995 0.52353 0.19664 0.0
H224 H 0.70827 0.62993 0.19386 0.0
H225 H 0.73961 0.59872 0.21561 0.0
H226 H 0.59522 0.58914 0.21114 0.0
H227 H 0.67242 0.61153 0.11869 0.0
H228 H 0.67162 0.57925 0.14315 0.0
H229 H 0.70324 0.63037 0.14625 0.0
C230 C 0.64781 0.5223 0.21339 0.0
C231 C 0.68752 0.543 0.21871 0.0
C232 C 0.63006 0.54012 0.20083 0.0
C233 C 0.65174 0.57882 0.19327 0.0
C234 C 0.69121 0.5998 0.19908 0.0
H235 H 0.60024 0.73871 0.11578 0.0
H236 H 0.63044 0.70654 0.13771 0.0
C237 C 0.709 0.58201 0.21164 0.0
C238 C 0.63297 0.59728 0.17945 0.0
H239 H 0.63382 0.64076 0.12297 0.0
C240 C 0.60349 0.60029 0.19183 0.0
C241 C 0.64389 0.61174 0.15425 0.0
C242 C 0.67428 0.60783 0.13966 0.0
C243 C 0.58511 0.61813 0.17985 0.0
C244 C 0.59611 0.63268 0.15468 0.0
C245 C 0.62552 0.62958 0.14228 0.0
C246 C 0.57773 0.65163 0.14097 0.0
C247 C 0.55473 0.62205 0.19445 0.0
C248 C 0.53824 0.63115 0.13514 0.0
C249 C 0.52091 0.64944 0.12263 0.0
C250 C 0.54287 0.68845 0.11563 0.0
C251 C 0.58258 0.70864 0.12099 0.0
C252 C 0.59987 0.69034 0.1335 0.0
H253 H 0.55644 0.61812 0.21541 0.0
H254 H 0.55757 0.65073 0.19109 0.0
H255 H 0.52577 0.59968 0.18775 0.0
H256 H 0.52083 0.60103 0.14028 0.0
H257 H 0.49029 0.63312 0.11864 0.0
H258 H 0.14051 0.63166 0.38067 0.0
H259 H 0.07818 0.60015 0.35859 0.0
H260 H 0.07235 0.70448 0.36464 0.0
H261 H 0.13481 0.73631 0.38649 0.0
H262 H 0.00589 0.58892 0.37533 0.0
H263 H 0.05722 0.67913 0.28748 0.0
H264 H 0.08978 0.67722 0.31061 0.0
H265 H 0.06754 0.70576 0.31694 0.0
C266 C 0.1259 0.64785 0.37735 0.0
C267 C 0.14259 0.6865 0.38517 0.0
C268 C 0.09034 0.62982 0.36474 0.0
C269 C 0.07105 0.65021 0.35963 0.0
C270 C 0.0872 0.68851 0.36796 0.0
H271 H 0.85709 0.59696 0.28505 0.0
H272 H 0.91946 0.62724 0.30699 0.0
C273 C 0.12273 0.70656 0.38057 0.0
C274 C 0.03389 0.63134 0.34568 0.0
H275 H 0.98986 0.63666 0.29104 0.0
C276 C 0.00235 0.59918 0.35684 0.0
C277 C 0.0295 0.6449 0.3216 0.0
C278 C 0.06285 0.67844 0.30828 0.0
C279 C 0.96618 0.58065 0.34478 0.0
C280 C 0.96176 0.59425 0.3207 0.0
C281 C 0.99337 0.62633 0.30951 0.0
C282 C 0.92443 0.57588 0.30693 0.0
C283 C 0.93281 0.54732 0.35824 0.0
C284 C 0.90698 0.5372 0.29918 0.0
C285 C 0.87131 0.5198 0.28671 0.0
C286 C 0.85271 0.54094 0.28158 0.0
C287 C 0.87073 0.57994 0.28877 0.0
C288 C 0.90632 0.59727 0.30131 0.0
H289 H 0.93844 0.54694 0.37907 0.0
H290 H 0.90588 0.54849 0.3558 0.0
H291 H 0.92815 0.51987 0.34983 0.0
H292 H 0.92091 0.52044 0.30282 0.0
H293 H 0.85822 0.48976 0.28125 0.0
H294 H 0.61656 0.33492 0.52812 0.0
H295 H 0.64488 0.3642 0.48666 0.0
H296 H 0.53106 0.3142 0.4537 0.0
H297 H 0.50266 0.28601 0.49515 0.0
H298 H 0.64138 0.33127 0.44116 0.0
H299 H 0.57658 0.42457 0.43172 0.0
H300 H 0.57537 0.40076 0.46135 0.0
H301 H 0.54098 0.37488 0.43634 0.0
C302 C 0.59762 0.3305 0.51206 0.0
C303 C 0.55741 0.3085 0.51491 0.0
C304 C 0.61381 0.34715 0.48839 0.0
C305 C 0.59007 0.34198 0.46717 0.0
C306 C 0.54993 0.31951 0.46994 0.0
H307 H 0.66477 0.37729 0.3074 0.0
H308 H 0.63656 0.34962 0.3492 0.0
C309 C 0.53374 0.30323 0.49362 0.0
C310 C 0.60726 0.35911 0.44196 0.0
H311 H 0.60557 0.41638 0.39412 0.0
C312 C 0.63374 0.35007 0.43093 0.0
C313 C 0.59765 0.38404 0.42877 0.0
C314 C 0.5714 0.39697 0.44027 0.0
C315 C 0.65046 0.36482 0.40691 0.0
C316 C 0.63958 0.38841 0.39324 0.0
C317 C 0.61351 0.39788 0.40444 0.0
C318 C 0.65581 0.40472 0.36768 0.0
C319 C 0.68024 0.35566 0.39673 0.0
C320 C 0.67473 0.44474 0.3639 0.0
C321 C 0.6902 0.46051 0.33998 0.0
C322 C 0.68717 0.43656 0.31936 0.0
C323 C 0.66776 0.39645 0.32301 0.0
C324 C 0.65193 0.38064 0.34693 0.0
H325 H 0.69319 0.34694 0.41233 0.0
H326 H 0.66628 0.33131 0.38299 0.0
H327 H 0.70371 0.38079 0.38655 0.0
H328 H 0.67792 0.46387 0.37957 0.0
H329 H 0.70503 0.49154 0.33776 0.0
H330 H 0.30115 0.68394 0.47722 0.0
H331 H 0.30187 0.65708 0.51929 0.0
H332 H 0.19744 0.65673 0.53998 0.0
H333 H 0.19691 0.68416 0.49823 0.0
H334 H 0.25322 0.68866 0.57729 0.0
H335 H 0.23344 0.54756 0.54563 0.0
H336 H 0.27327 0.58851 0.53073 0.0
H337 H 0.22491 0.57839 0.52469 0.0
C338 C 0.27815 0.67776 0.49066 0.0
C339 C 0.24892 0.68604 0.48442 0.0
C340 C 0.27852 0.66229 0.51464 0.0
C341 C 0.24946 0.65451 0.53265 0.0
C342 C 0.22009 0.66245 0.52634 0.0
H343 H 0.19565 0.5175 0.67055 0.0
H344 H 0.19562 0.54504 0.62874 0.0
C345 C 0.21978 0.67802 0.50245 0.0
C346 C 0.25025 0.6394 0.55845 0.0
H347 H 0.24781 0.5633 0.58961 0.0
C348 C 0.252 0.66123 0.58001 0.0
C349 C 0.24826 0.60344 0.56193 0.0
C350 C 0.2445 0.57789 0.53955 0.0
C351 C 0.25196 0.64815 0.60498 0.0
C352 C 0.25086 0.6126 0.60845 0.0
C353 C 0.24895 0.59069 0.58689 0.0
C354 C 0.2506 0.59701 0.63427 0.0
C355 C 0.25219 0.67207 0.62741 0.0
C356 C 0.28152 0.61715 0.65128 0.0
C357 C 0.2815 0.60158 0.6753 0.0
C358 C 0.25071 0.56543 0.68256 0.0
C359 C 0.21974 0.54545 0.66552 0.0
C360 C 0.21972 0.56108 0.6416 0.0
H361 H 0.24302 0.69299 0.62167 0.0
H362 H 0.23288 0.65349 0.64294 0.0
H363 H 0.28187 0.68863 0.63523 0.0
H364 H 0.306 0.64457 0.64581 0.0
H365 H 0.3059 0.61747 0.68795 0.0
H366 H 0.69431 0.31023 0.85307 0.0
H367 H 0.66672 0.3105 0.81119 0.0
H368 H 0.64648 0.19593 0.79624 0.0
H369 H 0.67466 0.19576 0.83779 0.0
H370 H 0.68127 0.24514 0.75585 0.0
H371 H 0.55404 0.25339 0.78934 0.0
H372 H 0.59923 0.29086 0.80166 0.0
H373 H 0.58227 0.24157 0.81051 0.0
C374 C 0.68364 0.28498 0.84095 0.0
C375 C 0.68652 0.25292 0.84872 0.0
C376 C 0.66775 0.28511 0.81708 0.0
C377 C 0.65412 0.25305 0.80074 0.0
C378 C 0.65675 0.22094 0.80858 0.0
H379 H 0.50876 0.20081 0.66712 0.0
H380 H 0.53748 0.2018 0.70868 0.0
C381 C 0.67276 0.22085 0.83235 0.0
C382 C 0.63828 0.25327 0.77508 0.0
H383 H 0.56658 0.26027 0.74464 0.0
C384 C 0.65616 0.24841 0.75338 0.0
C385 C 0.60532 0.25718 0.77195 0.0
C386 C 0.58382 0.26069 0.79459 0.0
C387 C 0.64206 0.24747 0.72859 0.0
C388 C 0.60961 0.25221 0.72542 0.0
C389 C 0.59164 0.25694 0.74713 0.0
C390 C 0.59306 0.25121 0.69982 0.0
C391 C 0.66145 0.2405 0.70608 0.0
C392 C 0.61482 0.27868 0.68104 0.0
C393 C 0.59852 0.27806 0.65718 0.0
C394 C 0.5601 0.25014 0.65183 0.0
C395 C 0.53847 0.22262 0.67065 0.0
C396 C 0.55478 0.22321 0.69443 0.0
H397 H 0.67941 0.22793 0.71217 0.0
H398 H 0.63985 0.22084 0.69191 0.0
H399 H 0.68056 0.26833 0.69639 0.0
H400 H 0.64418 0.30098 0.68498 0.0
H401 H 0.61579 0.2998 0.64312 0.0
H402 H 0.3119 0.61845 0.81227 0.0
H403 H 0.33924 0.64589 0.8543 0.0
H404 H 0.34226 0.5428 0.87376 0.0
H405 H 0.31443 0.51499 0.83202 0.0
H406 H 0.3105 0.56604 0.91199 0.0
H407 H 0.45009 0.68817 0.87891 0.0
H408 H 0.40844 0.68635 0.86457 0.0
H409 H 0.419 0.64847 0.85826 0.0
C410 C 0.3187 0.6018 0.82544 0.0
C411 C 0.31116 0.56464 0.81883 0.0
C412 C 0.33445 0.61755 0.84939 0.0
C413 C 0.34319 0.59654 0.86702 0.0
C414 C 0.33581 0.55952 0.8604 0.0
H415 H 0.48421 0.68221 0.00328 0.0
H416 H 0.45565 0.654 0.96178 0.0
C417 C 0.32002 0.54373 0.83652 0.0
C418 C 0.35897 0.61254 0.8927 0.0
H419 H 0.43558 0.6868 0.92311 0.0
C420 C 0.33788 0.59242 0.91446 0.0
C421 C 0.39486 0.64673 0.89582 0.0
C422 C 0.41965 0.66856 0.87319 0.0
C423 C 0.35161 0.60568 0.93931 0.0
C424 C 0.38707 0.64037 0.94243 0.0
C425 C 0.40826 0.66036 0.92066 0.0
C426 C 0.40329 0.65602 0.9681 0.0
C427 C 0.32844 0.58198 0.96195 0.0
C428 C 0.3833 0.66647 0.98546 0.0
C429 C 0.39946 0.68236 0.0093 0.0
C430 C 0.43606 0.68843 0.01604 0.0
C431 C 0.45593 0.67781 0.99865 0.0
C432 C 0.4397 0.66179 0.97491 0.0
H433 H 0.3077 0.55175 0.95637 0.0
H434 H 0.34756 0.58168 0.97726 0.0
H435 H 0.31173 0.59478 0.97 0.0
H436 H 0.35552 0.663 0.98039 0.0
H437 H 0.38364 0.69057 0.02223 0.0
H438 H 0.79983 0.31827 0.99748 0.0
H439 H 0.79771 0.3441 0.03953 0.0
H440 H 0.68766 0.33282 0.02075 0.0
H441 H 0.68988 0.3075 0.97838 0.0
H442 H 0.73735 0.40229 0.04388 0.0
H443 H 0.73013 0.28081 0.09934 0.0
H444 H 0.77052 0.30284 0.07789 0.0
H445 H 0.72232 0.27847 0.06514 0.0
C446 C 0.77523 0.32141 0.00226 0.0
C447 C 0.74492 0.31069 0.98469 0.0
C448 C 0.77393 0.33589 0.02637 0.0
C449 C 0.74214 0.33959 0.03346 0.0
C450 C 0.7123 0.32989 0.01571 0.0
H451 H 0.69205 0.37941 0.1898 0.0
H452 H 0.69004 0.35167 0.14752 0.0
C453 C 0.71363 0.31548 0.99153 0.0
C454 C 0.74031 0.35399 0.0593 0.0
H455 H 0.74236 0.33658 0.12323 0.0
C456 C 0.73823 0.38783 0.06124 0.0
C457 C 0.7408 0.3347 0.08191 0.0
C458 C 0.74067 0.29698 0.08106 0.0
C459 C 0.73771 0.40352 0.0852 0.0
C460 C 0.74008 0.38524 0.1078 0.0
C461 C 0.74104 0.3508 0.10587 0.0
C462 C 0.74186 0.40158 0.1336 0.0
C463 C 0.73424 0.43932 0.0861 0.0
C464 C 0.77215 0.4384 0.13997 0.0
C465 C 0.77332 0.4543 0.16401 0.0
C466 C 0.7444 0.43349 0.18224 0.0
C467 C 0.71471 0.39613 0.17613 0.0
C468 C 0.7135 0.38028 0.152 0.0
H469 H 0.72181 0.44321 0.06806 0.0
H470 H 0.71594 0.43828 0.10241 0.0
H471 H 0.76333 0.46492 0.0886 0.0
H472 H 0.79485 0.45495 0.12628 0.0
H473 H 0.79671 0.48305 0.16822 0.0
H474 H 0.28919 0.78511 0.32912 0.0
H475 H 0.31634 0.78494 0.28723 0.0
H476 H 0.36042 0.71438 0.31765 0.0
H477 H 0.33218 0.71344 0.35952 0.0
H478 H 0.38874 0.81112 0.27227 0.0
H479 H 0.30384 0.65366 0.25496 0.0
H480 H 0.29292 0.67675 0.28069 0.0
H481 H 0.3311 0.66575 0.28417 0.0
C482 C 0.30463 0.76951 0.3269 0.0
C483 C 0.3084 0.7491 0.34755 0.0
C484 C 0.32013 0.76943 0.30294 0.0
C485 C 0.33981 0.74907 0.29915 0.0
C486 C 0.34446 0.72944 0.31993 0.0
H487 H 0.49337 0.78493 0.1718 0.0
H488 H 0.46464 0.78501 0.21306 0.0
C489 C 0.3286 0.72918 0.34389 0.0
C490 C 0.35595 0.74909 0.27353 0.0
H491 H 0.35534 0.69019 0.22597 0.0
C492 C 0.38132 0.78467 0.2621 0.0
C493 C 0.3457 0.7146 0.26005 0.0
C494 C 0.31659 0.67554 0.27046 0.0
C495 C 0.39718 0.78673 0.23777 0.0
C496 C 0.3883 0.75221 0.2248 0.0
C497 C 0.36244 0.71663 0.23603 0.0
C498 C 0.40568 0.75232 0.19965 0.0
C499 C 0.42266 0.82591 0.22603 0.0
C500 C 0.38211 0.73289 0.17854 0.0
C501 C 0.39849 0.73226 0.15498 0.0
C502 C 0.43874 0.75115 0.15215 0.0
C503 C 0.46226 0.7705 0.17331 0.0
C504 C 0.44588 0.77077 0.19689 0.0
H505 H 0.41676 0.84797 0.23436 0.0
H506 H 0.45327 0.83506 0.23001 0.0
H507 H 0.41864 0.82529 0.20494 0.0
H508 H 0.35101 0.71826 0.18028 0.0
H509 H 0.37968 0.71701 0.13902 0.0
loop_
_geom_bond_atom_site_label_1
_geom_bond_atom_site_label_2
_geom_bond_distance
_geom_bond_site_symmetry_2
_ccdc_geom_bond_type
In0 O1 2.294 . S
In0 O2 2.326 . S
In0 O6 2.266 . S
In0 O7 2.326 . S
In0 O8 2.266 . S
In0 O9 2.326 . S
In0 O11 2.294 . S
In0 O12 2.326 . S
O1 In0 2.294 . S
O1 C10 1.240 . S
O2 In0 2.326 . S
O2 C10 1.252 . S
C3 O6 1.252 . S
C3 O7 1.260 . S
C4 O11 1.240 . S
C4 O12 1.252 . S
C5 O8 1.252 . S
C5 O9 1.260 . S
O6 In0 2.266 . S
O6 C3 1.252 . S
O7 In0 2.326 . S
O7 C3 1.260 . S
O8 In0 2.266 . S
O8 C5 1.252 . S
O9 In0 2.326 . S
O9 C5 1.260 . S
C10 O1 1.240 . S
C10 O2 1.252 . S
O11 In0 2.294 . S
O11 C4 1.240 . S
O12 In0 2.326 . S
O12 C4 1.252 . S
In13 O14 2.294 . S
In13 O15 2.326 . S
In13 O19 2.266 . S
In13 O20 2.326 . S
In13 O21 2.266 . S
In13 O22 2.326 . S
In13 O24 2.294 . S
In13 O25 2.326 . S
O14 In13 2.294 . S
O14 C23 1.240 . S
O15 In13 2.326 . S
O15 C23 1.252 . S
C16 O19 1.252 . S
C16 O20 1.260 . S
C17 O24 1.240 . S
C17 O25 1.252 . S
C18 O21 1.252 . S
C18 O22 1.260 . S
O19 In13 2.266 . S
O19 C16 1.252 . S
O20 In13 2.326 . S
O20 C16 1.260 . S
O21 In13 2.266 . S
O21 C18 1.252 . S
O22 In13 2.326 . S
O22 C18 1.260 . S
C23 O14 1.240 . S
C23 O15 1.252 . S
O24 In13 2.294 . S
O24 C17 1.240 . S
O25 In13 2.326 . S
O25 C17 1.252 . S
In26 O27 2.294 . S
In26 O28 2.326 . S
In26 O32 2.266 . S
In26 O33 2.326 . S
In26 O34 2.266 . S
In26 O35 2.326 . S
In26 O37 2.294 . S
In26 O38 2.326 . S
O27 In26 2.294 . S
O27 C36 1.240 . S
O28 In26 2.326 . S
O28 C36 1.252 . S
C29 O32 1.252 . S
C29 O33 1.260 . S
C30 O37 1.240 . S
C30 O38 1.252 . S
C31 O34 1.252 . S
C31 O35 1.260 . S
O32 In26 2.266 . S
O32 C29 1.252 . S
O33 In26 2.326 . S
O33 C29 1.260 . S
O34 In26 2.266 . S
O34 C31 1.252 . S
O35 In26 2.326 . S
O35 C31 1.260 . S
C36 O27 1.240 . S
C36 O28 1.252 . S
O37 In26 2.294 . S
O37 C30 1.240 . S
O38 In26 2.326 . S
O38 C30 1.252 . S
In39 O40 2.294 . S
In39 O41 2.326 . S
In39 O45 2.266 . S
In39 O46 2.326 . S
In39 O47 2.266 . S
In39 O48 2.326 . S
In39 O50 2.294 . S
In39 O51 2.326 . S
O40 In39 2.294 . S
O40 C49 1.240 . S
O41 In39 2.326 . S
O41 C49 1.252 . S
C42 O45 1.252 . S
C42 O46 1.260 . S
C43 O50 1.240 . S
C43 O51 1.252 . S
C44 O47 1.252 . S
C44 O48 1.260 . S
O45 In39 2.266 . S
O45 C42 1.252 . S
O46 In39 2.326 . S
O46 C42 1.260 . S
O47 In39 2.266 . S
O47 C44 1.252 . S
O48 In39 2.326 . S
O48 C44 1.260 . S
C49 O40 1.240 . S
C49 O41 1.252 . S
O50 In39 2.294 . S
O50 C43 1.240 . S
O51 In39 2.326 . S
O51 C43 1.252 . S
In52 O53 2.294 . S
In52 O54 2.326 . S
In52 O58 2.266 . S
In52 O59 2.326 . S
In52 O60 2.266 . S
In52 O61 2.326 . S
In52 O63 2.294 . S
In52 O64 2.326 . S
O53 In52 2.294 . S
O53 C62 1.240 . S
O54 In52 2.326 . S
O54 C62 1.252 . S
C55 O58 1.252 . S
C55 O59 1.260 . S
C56 O63 1.240 . S
C56 O64 1.252 . S
C57 O60 1.252 . S
C57 O61 1.260 . S
O58 In52 2.266 . S
O58 C55 1.252 . S
O59 In52 2.326 . S
O59 C55 1.260 . S
O60 In52 2.266 . S
O60 C57 1.252 . S
O61 In52 2.326 . S
O61 C57 1.260 . S
C62 O53 1.240 . S
C62 O54 1.252 . S
O63 In52 2.294 . S
O63 C56 1.240 . S
O64 In52 2.326 . S
O64 C56 1.252 . S
In65 O66 2.294 . S
In65 O67 2.326 . S
In65 O71 2.266 . S
In65 O72 2.326 . S
In65 O73 2.266 . S
In65 O74 2.326 . S
In65 O76 2.294 . S
In65 O77 2.326 . S
O66 In65 2.294 . S
O66 C75 1.240 . S
O67 In65 2.326 . S
O67 C75 1.252 . S
C68 O71 1.252 . S
C68 O72 1.260 . S
C69 O76 1.240 . S
C69 O77 1.252 . S
C70 O73 1.252 . S
C70 O74 1.260 . S
O71 In65 2.266 . S
O71 C68 1.252 . S
O72 In65 2.326 . S
O72 C68 1.260 . S
O73 In65 2.266 . S
O73 C70 1.252 . S
O74 In65 2.326 . S
O74 C70 1.260 . S
C75 O66 1.240 . S
C75 O67 1.252 . S
O76 In65 2.294 . S
O76 C69 1.240 . S
O77 In65 2.326 . S
O77 C69 1.252 . S
H78 C86 0.929 . S
H79 C88 0.930 . S
H80 C90 0.930 . S
H81 C93 0.929 . S
H82 C96 0.930 . S
H83 C98 0.960 1_565 S
H84 C98 0.960 . S
H85 C98 0.960 . S
C86 H78 0.929 . S
C86 C87 1.377 . S
C86 C88 1.384 . S
C87 C86 1.377 . S
C87 C93 1.390 . S
C88 H79 0.930 . S
C88 C86 1.384 . S
C88 C89 1.372 . S
C89 C88 1.372 . S
C89 C90 1.400 . S
C89 C94 1.490 . S
C90 H80 0.930 . S
C90 C89 1.400 . S
C90 C93 1.386 . S
H91 C107 0.930 . S
H92 C108 0.931 . S
C93 H81 0.929 . S
C93 C87 1.390 . S
C93 C90 1.386 . S
C94 C89 1.490 . S
C94 C96 1.395 . S
C94 C97 1.403 . S
H95 C101 0.930 . S
C96 H82 0.930 . S
C96 C94 1.395 . S
C96 C99 1.403 1_545 S
C97 C94 1.403 . S
C97 C98 1.524 . S
C97 C101 1.400 1_545 S
C98 H83 0.960 1_545 S
C98 H84 0.960 . S
C98 H85 0.960 . S
C98 C97 1.524 . S
C99 C96 1.403 1_565 S
C99 C100 1.392 . S
C99 C103 1.495 . S
C100 C99 1.392 . S
C100 C101 1.385 . S
C100 C102 1.478 . S
C101 H95 0.930 . S
C101 C97 1.400 1_565 S
C101 C100 1.385 . S
C102 C100 1.478 . S
C102 C104 1.381 . S
C102 C108 1.383 . S
C103 C99 1.495 . S
C103 H109 0.959 1_565 S
C103 H110 0.961 . S
C103 H111 0.960 . S
C104 C102 1.381 . S
C104 C105 1.394 . S
C104 H112 0.930 . S
C105 C104 1.394 . S
C105 C106 1.383 . S
C105 H113 0.929 . S
C106 C105 1.383 . S
C106 C107 1.377 . S
C107 H91 0.930 . S
C107 C106 1.377 . S
C107 C108 1.379 . S
C108 H92 0.931 . S
C108 C102 1.383 . S
C108 C107 1.379 . S
H109 C103 0.959 1_545 S
H110 C103 0.961 . S
H111 C103 0.960 . S
H112 C104 0.930 . S
H113 C105 0.929 . S
H114 C122 0.929 . S
H115 C124 0.930 . S
H116 C126 0.930 . S
H117 C129 0.929 . S
H118 C132 0.930 . S
H119 C134 0.960 . S
H120 C134 0.960 . S
H121 C134 0.960 . S
C122 H114 0.929 . S
C122 C123 1.377 . S
C122 C124 1.384 . S
C123 C122 1.377 . S
C123 C129 1.390 . S
C124 H115 0.930 . S
C124 C122 1.384 . S
C124 C125 1.372 . S
C125 C124 1.372 . S
C125 C126 1.400 . S
C125 C130 1.490 . S
C126 H116 0.930 . S
C126 C125 1.400 . S
C126 C129 1.386 . S
H127 C143 0.930 . S
H128 C144 0.931 . S
C129 H117 0.929 . S
C129 C123 1.390 . S
C129 C126 1.386 . S
C130 C125 1.490 . S
C130 C132 1.395 . S
C130 C133 1.403 . S
H131 C137 0.930 . S
C132 H118 0.930 . S
C132 C130 1.395 . S
C132 C135 1.403 . S
C133 C130 1.403 . S
C133 C134 1.524 . S
C133 C137 1.400 . S
C134 H119 0.960 . S
C134 H120 0.960 . S
C134 H121 0.960 . S
C134 C133 1.524 . S
C135 C132 1.403 . S
C135 C136 1.392 . S
C135 C139 1.495 . S
C136 C135 1.392 . S
C136 C137 1.385 . S
C136 C138 1.478 . S
C137 H131 0.930 . S
C137 C133 1.400 . S
C137 C136 1.385 . S
C138 C136 1.478 . S
C138 C140 1.381 . S
C138 C144 1.383 . S
C139 C135 1.495 . S
C139 H145 0.959 . S
C139 H146 0.961 . S
C139 H147 0.960 . S
C140 C138 1.381 . S
C140 C141 1.394 . S
C140 H148 0.930 . S
C141 C140 1.394 . S
C141 C142 1.383 . S
C141 H149 0.929 . S
C142 C141 1.383 . S
C142 C143 1.377 . S
C143 H127 0.930 . S
C143 C142 1.377 . S
C143 C144 1.379 . S
C144 H128 0.931 . S
C144 C138 1.383 . S
C144 C143 1.379 . S
H145 C139 0.959 . S
H146 C139 0.961 . S
H147 C139 0.960 . S
H148 C140 0.930 . S
H149 C141 0.929 . S
H150 C158 0.929 . S
H151 C160 0.930 . S
H152 C162 0.930 . S
H153 C165 0.929 . S
H154 C168 0.930 . S
H155 C170 0.960 1_455 S
H156 C170 0.960 . S
H157 C170 0.960 . S
C158 H150 0.929 . S
C158 C159 1.377 . S
C158 C160 1.384 . S
C159 C158 1.377 . S
C159 C165 1.390 . S
C160 H151 0.930 . S
C160 C158 1.384 . S
C160 C161 1.372 . S
C161 C160 1.372 . S
C161 C162 1.400 . S
C161 C166 1.490 . S
C162 H152 0.930 . S
C162 C161 1.400 . S
C162 C165 1.386 . S
H163 C179 0.930 . S
H164 C180 0.931 . S
C165 H153 0.929 . S
C165 C159 1.390 . S
C165 C162 1.386 . S
C166 C161 1.490 . S
C166 C168 1.395 . S
C166 C169 1.403 . S
H167 C173 0.930 . S
C168 H154 0.930 . S
C168 C166 1.395 . S
C168 C171 1.403 1_655 S
C169 C166 1.403 . S
C169 C170 1.524 . S
C169 C173 1.400 1_655 S
C170 H155 0.960 1_655 S
C170 H156 0.960 . S
C170 H157 0.960 . S
C170 C169 1.524 . S
C171 C168 1.403 1_455 S
C171 C172 1.392 . S
C171 C175 1.495 . S
C172 C171 1.392 . S
C172 C173 1.385 . S
C172 C174 1.478 . S
C173 H167 0.930 . S
C173 C169 1.400 1_455 S
C173 C172 1.385 . S
C174 C172 1.478 . S
C174 C176 1.381 . S
C174 C180 1.383 . S
C175 C171 1.495 . S
C175 H181 0.959 1_455 S
C175 H182 0.961 . S
C175 H183 0.960 . S
C176 C174 1.381 . S
C176 C177 1.394 . S
C176 H184 0.930 . S
C177 C176 1.394 . S
C177 C178 1.383 . S
C177 H185 0.929 . S
C178 C177 1.383 . S
C178 C179 1.377 . S
C179 H163 0.930 . S
C179 C178 1.377 . S
C179 C180 1.379 . S
C180 H164 0.931 . S
C180 C174 1.383 . S
C180 C179 1.379 . S
H181 C175 0.959 1_655 S
H182 C175 0.961 . S
H183 C175 0.960 . S
H184 C176 0.930 . S
H185 C177 0.929 . S
H186 C194 0.929 . S
H187 C196 0.930 . S
H188 C198 0.930 . S
H189 C201 0.929 . S
H190 C204 0.930 . S
H191 C206 0.960 1_545 S
H192 C206 0.960 . S
H193 C206 0.960 . S
C194 H186 0.929 . S
C194 C195 1.377 . S
C194 C196 1.384 . S
C195 C194 1.377 . S
C195 C201 1.390 . S
C196 H187 0.930 . S
C196 C194 1.384 . S
C196 C197 1.372 . S
C197 C196 1.372 . S
C197 C198 1.400 . S
C197 C202 1.490 . S
C198 H188 0.930 . S
C198 C197 1.400 . S
C198 C201 1.386 . S
H199 C215 0.930 . S
H200 C216 0.931 . S
C201 H189 0.929 . S
C201 C195 1.390 . S
C201 C198 1.386 . S
C202 C197 1.490 . S
C202 C204 1.395 1_554 S
C202 C205 1.403 . S
H203 C209 0.930 . S
C204 H190 0.930 . S
C204 C202 1.395 1_556 S
C204 C207 1.403 1_565 S
C205 C202 1.403 . S
C205 C206 1.524 . S
C205 C209 1.400 1_565 S
C206 H191 0.960 1_565 S
C206 H192 0.960 . S
C206 H193 0.960 . S
C206 C205 1.524 . S
C207 C204 1.403 1_545 S
C207 C208 1.392 . S
C207 C211 1.495 . S
C208 C207 1.392 . S
C208 C209 1.385 1_556 S
C208 C210 1.478 . S
C209 H203 0.930 . S
C209 C205 1.400 1_545 S
C209 C208 1.385 1_554 S
C210 C208 1.478 . S
C210 C212 1.381 . S
C210 C216 1.383 . S
C211 C207 1.495 . S
C211 H217 0.959 1_545 S
C211 H218 0.961 . S
C211 H219 0.960 . S
C212 C210 1.381 . S
C212 C213 1.394 . S
C212 H220 0.930 . S
C213 C212 1.394 . S
C213 C214 1.383 . S
C213 H221 0.929 . S
C214 C213 1.383 . S
C214 C215 1.377 . S
C215 H199 0.930 . S
C215 C214 1.377 . S
C215 C216 1.379 . S
C216 H200 0.931 . S
C216 C210 1.383 . S
C216 C215 1.379 . S
H217 C211 0.959 1_565 S
H218 C211 0.961 . S
H219 C211 0.960 . S
H220 C212 0.930 . S
H221 C213 0.929 . S
H222 C230 0.929 . S
H223 C232 0.930 . S
H224 C234 0.930 . S
H225 C237 0.929 . S
H226 C240 0.930 . S
H227 C242 0.960 . S
H228 C242 0.960 . S
H229 C242 0.960 . S
C230 H222 0.929 . S
C230 C231 1.377 . S
C230 C232 1.384 . S
C231 C230 1.377 . S
C231 C237 1.390 . S
C232 H223 0.930 . S
C232 C230 1.384 . S
C232 C233 1.372 . S
C233 C232 1.372 . S
C233 C234 1.400 . S
C233 C238 1.490 . S
C234 H224 0.930 . S
C234 C233 1.400 . S
C234 C237 1.386 . S
H235 C251 0.930 . S
H236 C252 0.931 . S
C237 H225 0.929 . S
C237 C231 1.390 . S
C237 C234 1.386 . S
C238 C233 1.490 . S
C238 C240 1.395 . S
C238 C241 1.403 . S
H239 C245 0.930 . S
C240 H226 0.930 . S
C240 C238 1.395 . S
C240 C243 1.403 . S
C241 C238 1.403 . S
C241 C242 1.524 . S
C241 C245 1.400 . S
C242 H227 0.960 . S
C242 H228 0.960 . S
C242 H229 0.960 . S
C242 C241 1.524 . S
C243 C240 1.403 . S
C243 C244 1.392 . S
C243 C247 1.495 . S
C244 C243 1.392 . S
C244 C245 1.385 . S
C244 C246 1.478 . S
C245 H239 0.930 . S
C245 C241 1.400 . S
C245 C244 1.385 . S
C246 C244 1.478 . S
C246 C248 1.381 . S
C246 C252 1.383 . S
C247 C243 1.495 . S
C247 H253 0.959 . S
C247 H254 0.961 . S
C247 H255 0.960 . S
C248 C246 1.381 . S
C248 C249 1.394 . S
C248 H256 0.930 . S
C249 C248 1.394 . S
C249 C250 1.383 . S
C249 H257 0.929 . S
C250 C249 1.383 . S
C250 C251 1.377 . S
C251 H235 0.930 . S
C251 C250 1.377 . S
C251 C252 1.379 . S
C252 H236 0.931 . S
C252 C246 1.383 . S
C252 C251 1.379 . S
H253 C247 0.959 . S
H254 C247 0.961 . S
H255 C247 0.960 . S
H256 C248 0.930 . S
H257 C249 0.929 . S
H258 C266 0.929 . S
H259 C268 0.930 . S
H260 C270 0.930 . S
H261 C273 0.929 . S
H262 C276 0.930 . S
H263 C278 0.960 . S
H264 C278 0.960 . S
H265 C278 0.960 . S
C266 H258 0.929 . S
C266 C267 1.377 . S
C266 C268 1.384 . S
C267 C266 1.377 . S
C267 C273 1.390 . S
C268 H259 0.930 . S
C268 C266 1.384 . S
C268 C269 1.372 . S
C269 C268 1.372 . S
C269 C270 1.400 . S
C269 C274 1.490 . S
C270 H260 0.930 . S
C270 C269 1.400 . S
C270 C273 1.386 . S
H271 C287 0.930 . S
H272 C288 0.931 . S
C273 H261 0.929 . S
C273 C267 1.390 . S
C273 C270 1.386 . S
C274 C269 1.490 . S
C274 C276 1.395 . S
C274 C277 1.403 . S
H275 C281 0.930 . S
C276 H262 0.930 . S
C276 C274 1.395 . S
C276 C279 1.403 1_455 S
C277 C274 1.403 . S
C277 C278 1.524 . S
C277 C281 1.400 1_455 S
C278 H263 0.960 . S
C278 H264 0.960 . S
C278 H265 0.960 . S
C278 C277 1.524 . S
C279 C276 1.403 1_655 S
C279 C280 1.392 . S
C279 C283 1.495 . S
C280 C279 1.392 . S
C280 C281 1.385 . S
C280 C282 1.478 . S
C281 H275 0.930 . S
C281 C277 1.400 1_655 S
C281 C280 1.385 . S
C282 C280 1.478 . S
C282 C284 1.381 . S
C282 C288 1.383 . S
C283 C279 1.495 . S
C283 H289 0.959 . S
C283 H290 0.961 . S
C283 H291 0.960 . S
C284 C282 1.381 . S
C284 C285 1.394 . S
C284 H292 0.930 . S
C285 C284 1.394 . S
C285 C286 1.383 . S
C285 H293 0.929 . S
C286 C285 1.383 . S
C286 C287 1.377 . S
C287 H271 0.930 . S
C287 C286 1.377 . S
C287 C288 1.379 . S
C288 H272 0.931 . S
C288 C282 1.383 . S
C288 C287 1.379 . S
H289 C283 0.959 . S
H290 C283 0.961 . S
H291 C283 0.960 . S
H292 C284 0.930 . S
H293 C285 0.929 . S
H294 C302 0.929 . S
H295 C304 0.930 . S
H296 C306 0.930 . S
H297 C309 0.929 . S
H298 C312 0.930 . S
H299 C314 0.960 . S
H300 C314 0.960 . S
H301 C314 0.960 . S
C302 H294 0.929 . S
C302 C303 1.377 . S
C302 C304 1.384 . S
C303 C302 1.377 . S
C303 C309 1.390 . S
C304 H295 0.930 . S
C304 C302 1.384 . S
C304 C305 1.372 . S
C305 C304 1.372 . S
C305 C306 1.400 . S
C305 C310 1.490 . S
C306 H296 0.930 . S
C306 C305 1.400 . S
C306 C309 1.386 . S
H307 C323 0.930 . S
H308 C324 0.931 . S
C309 H297 0.929 . S
C309 C303 1.390 . S
C309 C306 1.386 . S
C310 C305 1.490 . S
C310 C312 1.395 . S
C310 C313 1.403 . S
H311 C317 0.930 . S
C312 H298 0.930 . S
C312 C310 1.395 . S
C312 C315 1.403 . S
C313 C310 1.403 . S
C313 C314 1.524 . S
C313 C317 1.400 . S
C314 H299 0.960 . S
C314 H300 0.960 . S
C314 H301 0.960 . S
C314 C313 1.524 . S
C315 C312 1.403 . S
C315 C316 1.392 . S
C315 C319 1.495 . S
C316 C315 1.392 . S
C316 C317 1.385 . S
C316 C318 1.478 . S
C317 H311 0.930 . S
C317 C313 1.400 . S
C317 C316 1.385 . S
C318 C316 1.478 . S
C318 C320 1.381 . S
C318 C324 1.383 . S
C319 C315 1.495 . S
C319 H325 0.959 . S
C319 H326 0.961 . S
C319 H327 0.960 . S
C320 C318 1.381 . S
C320 C321 1.394 . S
C320 H328 0.930 . S
C321 C320 1.394 . S
C321 C322 1.383 . S
C321 H329 0.929 . S
C322 C321 1.383 . S
C322 C323 1.377 . S
C323 H307 0.930 . S
C323 C322 1.377 . S
C323 C324 1.379 . S
C324 H308 0.931 . S
C324 C318 1.383 . S
C324 C323 1.379 . S
H325 C319 0.959 . S
H326 C319 0.961 . S
H327 C319 0.960 . S
H328 C320 0.930 . S
H329 C321 0.929 . S
H330 C338 0.929 . S
H331 C340 0.930 . S
H332 C342 0.930 . S
H333 C345 0.929 . S
H334 C348 0.930 . S
H335 C350 0.960 . S
H336 C350 0.960 . S
H337 C350 0.960 . S
C338 H330 0.929 . S
C338 C339 1.377 . S
C338 C340 1.384 . S
C339 C338 1.377 . S
C339 C345 1.390 . S
C340 H331 0.930 . S
C340 C338 1.384 . S
C340 C341 1.372 . S
C341 C340 1.372 . S
C341 C342 1.400 . S
C341 C346 1.490 . S
C342 H332 0.930 . S
C342 C341 1.400 . S
C342 C345 1.386 . S
H343 C359 0.930 . S
H344 C360 0.931 . S
C345 H333 0.929 . S
C345 C339 1.390 . S
C345 C342 1.386 . S
C346 C341 1.490 . S
C346 C348 1.395 . S
C346 C349 1.403 . S
H347 C353 0.930 . S
C348 H334 0.930 . S
C348 C346 1.395 . S
C348 C351 1.403 . S
C349 C346 1.403 . S
C349 C350 1.524 . S
C349 C353 1.400 . S
C350 H335 0.960 . S
C350 H336 0.960 . S
C350 H337 0.960 . S
C350 C349 1.524 . S
C351 C348 1.403 . S
C351 C352 1.392 . S
C351 C355 1.495 . S
C352 C351 1.392 . S
C352 C353 1.385 . S
C352 C354 1.478 . S
C353 H347 0.930 . S
C353 C349 1.400 . S
C353 C352 1.385 . S
C354 C352 1.478 . S
C354 C356 1.381 . S
C354 C360 1.383 . S
C355 C351 1.495 . S
C355 H361 0.959 . S
C355 H362 0.961 . S
C355 H363 0.960 . S
C356 C354 1.381 . S
C356 C357 1.394 . S
C356 H364 0.930 . S
C357 C356 1.394 . S
C357 C358 1.383 . S
C357 H365 0.929 . S
C358 C357 1.383 . S
C358 C359 1.377 . S
C359 H343 0.930 . S
C359 C358 1.377 . S
C359 C360 1.379 . S
C360 H344 0.931 . S
C360 C354 1.383 . S
C360 C359 1.379 . S
H361 C355 0.959 . S
H362 C355 0.961 . S
H363 C355 0.960 . S
H364 C356 0.930 . S
H365 C357 0.929 . S
H366 C374 0.929 . S
H367 C376 0.930 . S
H368 C378 0.930 . S
H369 C381 0.929 . S
H370 C384 0.930 . S
H371 C386 0.960 . S
H372 C386 0.960 . S
H373 C386 0.960 . S
C374 H366 0.929 . S
C374 C375 1.377 . S
C374 C376 1.384 . S
C375 C374 1.377 . S
C375 C381 1.390 . S
C376 H367 0.930 . S
C376 C374 1.384 . S
C376 C377 1.372 . S
C377 C376 1.372 . S
C377 C378 1.400 . S
C377 C382 1.490 . S
C378 H368 0.930 . S
C378 C377 1.400 . S
C378 C381 1.386 . S
H379 C395 0.930 . S
H380 C396 0.931 . S
C381 H369 0.929 . S
C381 C375 1.390 . S
C381 C378 1.386 . S
C382 C377 1.490 . S
C382 C384 1.395 . S
C382 C385 1.403 . S
H383 C389 0.930 . S
C384 H370 0.930 . S
C384 C382 1.395 . S
C384 C387 1.403 . S
C385 C382 1.403 . S
C385 C386 1.524 . S
C385 C389 1.400 . S
C386 H371 0.960 . S
C386 H372 0.960 . S
C386 H373 0.960 . S
C386 C385 1.524 . S
C387 C384 1.403 . S
C387 C388 1.392 . S
C387 C391 1.495 . S
C388 C387 1.392 . S
C388 C389 1.385 . S
C388 C390 1.478 . S
C389 H383 0.930 . S
C389 C385 1.400 . S
C389 C388 1.385 . S
C390 C388 1.478 . S
C390 C392 1.381 . S
C390 C396 1.383 . S
C391 C387 1.495 . S
C391 H397 0.959 . S
C391 H398 0.961 . S
C391 H399 0.960 . S
C392 C390 1.381 . S
C392 C393 1.394 . S
C392 H400 0.930 . S
C393 C392 1.394 . S
C393 C394 1.383 . S
C393 H401 0.929 . S
C394 C393 1.383 . S
C394 C395 1.377 . S
C395 H379 0.930 . S
C395 C394 1.377 . S
C395 C396 1.379 . S
C396 H380 0.931 . S
C396 C390 1.383 . S
C396 C395 1.379 . S
H397 C391 0.959 . S
H398 C391 0.961 . S
H399 C391 0.960 . S
H400 C392 0.930 . S
H401 C393 0.929 . S
H402 C410 0.929 . S
H403 C412 0.930 . S
H404 C414 0.930 . S
H405 C417 0.929 . S
H406 C420 0.930 . S
H407 C422 0.960 . S
H408 C422 0.960 . S
H409 C422 0.960 . S
C410 H402 0.929 . S
C410 C411 1.377 . S
C410 C412 1.384 . S
C411 C410 1.377 . S
C411 C417 1.390 . S
C412 H403 0.930 . S
C412 C410 1.384 . S
C412 C413 1.372 . S
C413 C412 1.372 . S
C413 C414 1.400 . S
C413 C418 1.490 . S
C414 H404 0.930 . S
C414 C413 1.400 . S
C414 C417 1.386 . S
H415 C431 0.930 . S
H416 C432 0.931 . S
C417 H405 0.929 . S
C417 C411 1.390 . S
C417 C414 1.386 . S
C418 C413 1.490 . S
C418 C420 1.395 . S
C418 C421 1.403 . S
H419 C425 0.930 . S
C420 H406 0.930 . S
C420 C418 1.395 . S
C420 C423 1.403 . S
C421 C418 1.403 . S
C421 C422 1.524 . S
C421 C425 1.400 . S
C422 H407 0.960 . S
C422 H408 0.960 . S
C422 H409 0.960 . S
C422 C421 1.524 . S
C423 C420 1.403 . S
C423 C424 1.392 . S
C423 C427 1.495 . S
C424 C423 1.392 . S
C424 C425 1.385 . S
C424 C426 1.478 . S
C425 H419 0.930 . S
C425 C421 1.400 . S
C425 C424 1.385 . S
C426 C424 1.478 . S
C426 C428 1.381 . S
C426 C432 1.383 . S
C427 C423 1.495 . S
C427 H433 0.959 . S
C427 H434 0.961 . S
C427 H435 0.960 . S
C428 C426 1.381 . S
C428 C429 1.394 1_556 S
C428 H436 0.930 . S
C429 C428 1.394 1_554 S
C429 C430 1.383 . S
C429 H437 0.929 . S
C430 C429 1.383 . S
C430 C431 1.377 . S
C431 H415 0.930 . S
C431 C430 1.377 . S
C431 C432 1.379 1_554 S
C432 H416 0.931 . S
C432 C426 1.383 . S
C432 C431 1.379 1_556 S
H433 C427 0.959 . S
H434 C427 0.961 . S
H435 C427 0.960 . S
H436 C428 0.930 . S
H437 C429 0.929 . S
H438 C446 0.929 . S
H439 C448 0.930 . S
H440 C450 0.930 . S
H441 C453 0.929 1_556 S
H442 C456 0.930 . S
H443 C458 0.960 . S
H444 C458 0.960 . S
H445 C458 0.960 . S
C446 H438 0.929 . S
C446 C447 1.377 . S
C446 C448 1.384 1_556 S
C447 C446 1.377 . S
C447 C453 1.390 1_556 S
C448 H439 0.930 . S
C448 C446 1.384 1_554 S
C448 C449 1.372 . S
C449 C448 1.372 . S
C449 C450 1.400 . S
C449 C454 1.490 . S
C450 H440 0.930 . S
C450 C449 1.400 . S
C450 C453 1.386 . S
H451 C467 0.930 . S
H452 C468 0.931 . S
C453 H441 0.929 1_554 S
C453 C447 1.390 1_554 S
C453 C450 1.386 . S
C454 C449 1.490 . S
C454 C456 1.395 . S
C454 C457 1.403 . S
H455 C461 0.930 . S
C456 H442 0.930 . S
C456 C454 1.395 . S
C456 C459 1.403 . S
C457 C454 1.403 . S
C457 C458 1.524 . S
C457 C461 1.400 . S
C458 H443 0.960 . S
C458 H444 0.960 . S
C458 H445 0.960 . S
C458 C457 1.524 . S
C459 C456 1.403 . S
C459 C460 1.392 . S
C459 C463 1.495 . S
C460 C459 1.392 . S
C460 C461 1.385 . S
C460 C462 1.478 . S
C461 H455 0.930 . S
C461 C457 1.400 . S
C461 C460 1.385 . S
C462 C460 1.478 . S
C462 C464 1.381 . S
C462 C468 1.383 . S
C463 C459 1.495 . S
C463 H469 0.959 . S
C463 H470 0.961 . S
C463 H471 0.960 . S
C464 C462 1.381 . S
C464 C465 1.394 . S
C464 H472 0.930 . S
C465 C464 1.394 . S
C465 C466 1.383 . S
C465 H473 0.929 . S
C466 C465 1.383 . S
C466 C467 1.377 . S
C467 H451 0.930 . S
C467 C466 1.377 . S
C467 C468 1.379 . S
C468 H452 0.931 . S
C468 C462 1.383 . S
C468 C467 1.379 . S
H469 C463 0.959 . S
H470 C463 0.961 . S
H471 C463 0.960 . S
H472 C464 0.930 . S
H473 C465 0.929 . S
H474 C482 0.929 . S
H475 C484 0.930 . S
H476 C486 0.930 . S
H477 C489 0.929 . S
H478 C492 0.930 . S
H479 C494 0.960 . S
H480 C494 0.960 . S
H481 C494 0.960 . S
C482 H474 0.929 . S
C482 C483 1.377 . S
C482 C484 1.384 . S
C483 C482 1.377 . S
C483 C489 1.390 . S
C484 H475 0.930 . S
C484 C482 1.384 . S
C484 C485 1.372 . S
C485 C484 1.372 . S
C485 C486 1.400 . S
C485 C490 1.490 . S
C486 H476 0.930 . S
C486 C485 1.400 . S
C486 C489 1.386 . S
H487 C503 0.930 . S
H488 C504 0.931 . S
C489 H477 0.929 . S
C489 C483 1.390 . S
C489 C486 1.386 . S
C490 C485 1.490 . S
C490 C492 1.395 . S
C490 C493 1.403 . S
H491 C497 0.930 . S
C492 H478 0.930 . S
C492 C490 1.395 . S
C492 C495 1.403 . S
C493 C490 1.403 . S
C493 C494 1.524 . S
C493 C497 1.400 . S
C494 H479 0.960 . S
C494 H480 0.960 . S
C494 H481 0.960 . S
C494 C493 1.524 . S
C495 C492 1.403 . S
C495 C496 1.392 . S
C495 C499 1.495 . S
C496 C495 1.392 . S
C496 C497 1.385 . S
C496 C498 1.478 . S
C497 H491 0.930 . S
C497 C493 1.400 . S
C497 C496 1.385 . S
C498 C496 1.478 . S
C498 C500 1.381 . S
C498 C504 1.383 . S
C499 C495 1.495 . S
C499 H505 0.959 . S
C499 H506 0.961 . S
C499 H507 0.960 . S
C500 C498 1.381 . S
C500 C501 1.394 . S
C500 H508 0.930 . S
C501 C500 1.394 . S
C501 C502 1.383 . S
C501 H509 0.929 . S
C502 C501 1.383 . S
C502 C503 1.377 . S
C503 H487 0.930 . S
C503 C502 1.377 . S
C503 C504 1.379 . S
C504 H488 0.931 . S
C504 C498 1.383 . S
C504 C503 1.379 . S
H505 C499 0.959 . S
H506 C499 0.961 . S
H507 C499 0.960 . S
H508 C500 0.930 . S
H509 C501 0.929 . S
C87 C4 1.642 . S
C106 C68 1.641 . S
C123 C5 1.644 . S
C142 C23 1.638 . S
C159 C30 1.641 . S
C178 C16 1.643 . S
C195 C43 1.642 . S
C214 C31 1.640 . S
C231 C56 1.642 . S
C250 C44 1.641 . S
C267 C75 1.642 . S
C286 C57 1.642 . S
C303 C10 1.447 . S
C322 C55 1.442 . S
C339 C70 1.447 . S
C358 C17 1.445 . S
C375 C36 1.445 . S
C394 C3 1.446 . S
C411 C18 1.447 . S
C430 C49 1.443 . S
C447 C29 1.447 . S
C466 C62 1.441 . S
C483 C69 1.445 . S
C502 C42 1.444 . S
