# Generated by pormake.
# Topology mdf, (4)-cn, num edge types: 1
# Building blocks:
#     Node 0, Type 0, BuildingBlock: GALJAG_clean_sbu_0, # of connection points: 4
#     Node 1, Type 0, BuildingBlock: GALJAG_clean_sbu_0, # of connection points: 4
#     Node 2, Type 0, BuildingBlock: GALJAG_clean_sbu_0, # of connection points: 4
#     Node 3, Type 0, BuildingBlock: GALJAG_clean_sbu_0, # of connection points: 4
#     Node 4, Type 0, BuildingBlock: GALJAG_clean_sbu_0, # of connection points: 4
#     Node 5, Type 0, BuildingBlock: GALJAG_clean_sbu_0, # of connection points: 4
#     Node 6, Type 0, BuildingBlock: GALJAG_clean_sbu_0, # of connection points: 4
#     Node 7, Type 0, BuildingBlock: GALJAG_clean_sbu_0, # of connection points: 4
#     Edge 8, Type (0, 0), BuildingBlock: UVAHIK_clean_linker_0, # of connection points: 2
#     Edge 9, Type (0, 0), BuildingBlock: UVAHIK_clean_linker_0, # of connection points: 2
#     Edge 10, Type (0, 0), BuildingBlock: UVAHIK_clean_linker_0, # of connection points: 2
#     Edge 11, Type (0, 0), BuildingBlock: UVAHIK_clean_linker_0, # of connection points: 2
#     Edge 12, Type (0, 0), BuildingBlock: UVAHIK_clean_linker_0, # of connection points: 2
#     Edge 13, Type (0, 0), BuildingBlock: UVAHIK_clean_linker_0, # of connection points: 2
#     Edge 14, Type (0, 0), BuildingBlock: UVAHIK_clean_linker_0, # of connection points: 2
#     Edge 15, Type (0, 0), BuildingBlock: UVAHIK_clean_linker_0, # of connection points: 2
#     Edge 16, Type (0, 0), BuildingBlock: UVAHIK_clean_linker_0, # of connection points: 2
#     Edge 17, Type (0, 0), BuildingBlock: UVAHIK_clean_linker_0, # of connection points: 2
#     Edge 18, Type (0, 0), BuildingBlock: UVAHIK_clean_linker_0, # of connection points: 2
#     Edge 19, Type (0, 0), BuildingBlock: UVAHIK_clean_linker_0, # of connection points: 2
#     Edge 20, Type (0, 0), BuildingBlock: UVAHIK_clean_linker_0, # of connection points: 2
#     Edge 21, Type (0, 0), BuildingBlock: UVAHIK_clean_linker_0, # of connection points: 2
#     Edge 22, Type (0, 0), BuildingBlock: UVAHIK_clean_linker_0, # of connection points: 2
#     Edge 23, Type (0, 0), BuildingBlock: UVAHIK_clean_linker_0, # of connection points: 2
# Relax obj value: 0.054
# Max RMSD: 0.086
# Mean RMSD: 0.086
data_MOF--net-mdf--node1-GALJAG_clean_sbu_0--edge1-UVAHIK_clean_linker_0
_symmetry_space_group_name_H-M    P1
_symmetry_Int_Tables_number       1
_symmetry_cell_setting            triclinic
loop_
_symmetry_equiv_pos_as_xyz
'x, y, z'
_cell_length_a     51.076909
_cell_length_b     51.004979
_cell_length_c     13.940878
_cell_angle_alpha  90.169909
_cell_angle_beta   90.153022
_cell_angle_gamma 90.007287
loop_
_atom_site_label
_atom_site_type_symbol
_atom_site_fract_x
_atom_site_fract_y
_atom_site_fract_z
_atom_type_partial_charge
In0 In 0.24454 0.51413 0.37652 0.0
O1 O 0.25325 0.53328 0.23218 0.0
O2 O 0.27358 0.54703 0.3563 0.0
C3 C 0.20669 0.47887 0.33867 0.0
C4 C 0.28457 0.48177 0.41778 0.0
C5 C 0.21686 0.54817 0.48285 0.0
O6 O 0.21676 0.49278 0.27348 0.0
O7 O 0.21582 0.4828 0.4216 0.0
O8 O 0.23458 0.53392 0.51902 0.0
O9 O 0.21329 0.54512 0.39393 0.0
C10 C 0.26988 0.54906 0.26709 0.0
O11 O 0.27324 0.49517 0.48187 0.0
O12 O 0.27567 0.48481 0.33408 0.0
In13 In 0.47371 0.7437 0.62076 0.0
O14 O 0.45427 0.73337 0.7633 0.0
O15 O 0.44075 0.71461 0.63541 0.0
C16 C 0.50918 0.78122 0.65967 0.0
C17 C 0.50593 0.70378 0.57712 0.0
C18 C 0.43933 0.77242 0.52033 0.0
O19 O 0.49544 0.77091 0.72491 0.0
O20 O 0.50496 0.77248 0.57632 0.0
O21 O 0.45309 0.75477 0.48105 0.0
O22 O 0.44319 0.77548 0.60911 0.0
C23 C 0.4385 0.71725 0.72504 0.0
O24 O 0.49283 0.71563 0.51341 0.0
O25 O 0.5027 0.71219 0.66145 0.0
In26 In 0.24403 0.976 0.87343 0.0
O27 O 0.25348 0.95817 0.01962 0.0
O28 O 0.27199 0.94229 0.89544 0.0
C29 C 0.20673 0.01193 0.90928 0.0
C30 C 0.2847 0.00714 0.82887 0.0
C31 C 0.21558 0.94156 0.77116 0.0
O32 O 0.21652 -0.00205 0.97501 0.0
O33 O 0.21588 0.00778 0.82671 0.0
O34 O 0.23337 0.95528 0.73311 0.0
O35 O 0.21226 0.94544 0.85973 0.0
C36 C 0.26915 0.94139 0.98526 0.0
O37 O 0.2728 0.99372 0.76597 0.0
O38 O 0.27597 0.00479 0.91293 0.0
In39 In 0.01174 0.74356 0.1294 0.0
O40 O 0.99132 0.71562 0.23323 0.0
O41 O 0.98067 0.71426 0.08551 0.0
C42 C 0.0467 0.76971 0.23713 0.0
C43 C 0.04578 0.71598 0.02308 0.0
C44 C 0.97881 0.78334 0.09111 0.0
O45 O 0.03109 0.75317 0.27303 0.0
O46 O 0.04453 0.77287 0.14769 0.0
O47 O 0.99199 0.77226 0.02583 0.0
O48 O 0.98231 0.77425 0.17416 0.0
C49 C 0.97727 0.70524 0.16867 0.0
O50 O 0.03101 0.7332 0.98638 0.0
O51 O 0.04317 0.71286 0.11231 0.0
In52 In 0.74398 0.01281 0.86801 0.0
O53 O 0.75487 0.03201 0.72559 0.0
O54 O 0.77432 0.04462 0.85326 0.0
C55 C 0.70544 0.97854 0.82789 0.0
C56 C 0.78279 0.97935 0.91227 0.0
C57 C 0.71639 0.04809 0.96873 0.0
O58 O 0.71655 0.99173 0.76293 0.0
O59 O 0.71384 0.98273 0.9117 0.0
O60 O 0.73303 0.03321 0.00833 0.0
O61 O 0.71376 0.04491 0.8794 0.0
C62 C 0.77167 0.04708 0.76372 0.0
O63 O 0.77166 0.99324 0.97552 0.0
O64 O 0.7742 0.98239 0.82814 0.0
In65 In 0.97462 0.24514 0.12419 0.0
O66 O 0.95528 0.23517 0.26707 0.0
O67 O 0.94287 0.21469 0.14136 0.0
C68 C 0.0086 0.28385 0.16584 0.0
C69 C 0.0085 0.20649 0.08128 0.0
C70 C 0.93986 0.2721 0.01872 0.0
O71 O -0.00475 0.27268 0.23013 0.0
O72 O 0.00469 0.27547 0.08185 0.0
O73 O 0.95462 0.25487 0.98206 0.0
O74 O 0.94279 0.27558 0.10777 0.0
C75 C 0.94035 0.218 0.2306 0.0
O76 O -0.00499 0.21778 0.0174 0.0
O77 O 0.00477 0.21473 0.16551 0.0
In78 In 0.74207 0.47452 0.37219 0.0
O79 O 0.75219 0.45531 0.51561 0.0
O80 O 0.77249 0.4429 0.38988 0.0
C81 C 0.70222 0.50758 0.40756 0.0
C82 C 0.7805 0.50906 0.33556 0.0
C83 C 0.71633 0.43936 0.26405 0.0
O84 O 0.71272 0.49417 0.4735 0.0
O85 O 0.71193 0.50426 0.32536 0.0
O86 O 0.73326 0.45466 0.22876 0.0
O87 O 0.71255 0.44198 0.353 0.0
C88 C 0.76931 0.44038 0.47911 0.0
O89 O 0.77022 0.49527 0.26999 0.0
O90 O 0.77132 0.50537 0.41832 0.0
In91 In 0.51245 0.24343 0.6143 0.0
O92 O 0.49335 0.21399 0.71617 0.0
O93 O 0.48268 0.21311 0.56837 0.0
C94 C 0.54735 0.27015 0.72029 0.0
C95 C 0.54697 0.21783 0.5038 0.0
C96 C 0.47814 0.28236 0.58084 0.0
O97 O 0.5325 0.25305 0.75699 0.0
O98 O 0.54435 0.27361 0.63135 0.0
O99 O 0.49163 0.27225 0.51438 0.0
O100 O 0.48192 0.27267 0.66284 0.0
C101 C 0.47978 0.20336 0.65069 0.0
O102 O 0.53135 0.23465 0.4694 0.0
O103 O 0.54494 0.21407 0.59292 0.0
C104 C 0.41822 0.70345 0.88045 0.0
C105 C 0.41895 0.70223 0.77989 0.0
C106 C 0.40014 0.68836 0.93143 0.0
C107 C 0.35953 0.62888 0.90634 0.0
H108 H 0.32465 0.65569 0.133 0.0
C109 C 0.28154 0.5688 0.1085 0.0
C110 C 0.28434 0.56827 0.20869 0.0
C111 C 0.2961 0.58648 0.05377 0.0
C112 C 0.33436 0.64791 0.07006 0.0
H113 H 0.40095 0.6849 0.6536 0.0
H114 H 0.36927 0.65897 0.74218 0.0
H115 H 0.35386 0.68427 0.04251 0.0
H116 H 0.3041 0.58609 0.33044 0.0
H117 H 0.32956 0.61674 0.23508 0.0
H118 H 0.34022 0.59249 0.93421 0.0
C119 C 0.38292 0.67111 0.78196 0.0
C120 C 0.35112 0.66424 0.01843 0.0
C121 C 0.401 0.68609 0.7312 0.0
C122 C 0.30155 0.58603 0.25328 0.0
C123 C 0.316 0.60373 0.19873 0.0
C124 C 0.34274 0.61259 0.95778 0.0
C125 C 0.38245 0.67184 0.88267 0.0
C126 C 0.36403 0.65485 0.93635 0.0
C127 C 0.31361 0.604 0.09837 0.0
C128 C 0.33014 0.62186 0.04063 0.0
H129 H 0.43185 0.71573 0.91977 0.0
H130 H 0.40044 0.68915 0.00906 0.0
H131 H 0.36949 0.6209 0.8443 0.0
H132 H 0.26834 0.55538 0.07232 0.0
H133 H 0.29368 0.58643 0.97656 0.0
C134 C 0.40452 0.80663 0.51722 0.0
C135 C 0.42002 0.78836 0.46757 0.0
C136 C 0.38633 0.82202 0.46829 0.0
C137 C 0.34908 0.82641 0.24134 0.0
H138 H 0.34404 0.90007 0.30896 0.0
C139 C 0.29885 0.90291 0.00064 0.0
C140 C 0.28356 0.92237 0.04477 0.0
C141 C 0.31342 0.88541 0.05583 0.0
C142 C 0.34493 0.87946 0.29024 0.0
H143 H 0.42856 0.77169 0.32796 0.0
H144 H 0.397 0.79895 0.24179 0.0
H145 H 0.37396 0.87176 0.39718 0.0
H146 H 0.27106 0.93851 0.18116 0.0
H147 H 0.2967 0.90784 0.27814 0.0
H148 H 0.32037 0.83431 0.13308 0.0
C149 C 0.39866 0.80109 0.31887 0.0
C150 C 0.36209 0.86323 0.34068 0.0
C151 C 0.41685 0.78561 0.36801 0.0
C152 C 0.28275 0.92374 0.14532 0.0
C153 C 0.29748 0.90628 0.20069 0.0
C154 C 0.33198 0.84267 0.19067 0.0
C155 C 0.38329 0.81955 0.3685 0.0
C156 C 0.3645 0.83656 0.31638 0.0
C157 C 0.3131 0.88706 0.15638 0.0
C158 C 0.32989 0.8694 0.21412 0.0
H159 H 0.4064 0.80906 0.59415 0.0
H160 H 0.37453 0.83574 0.50884 0.0
H161 H 0.35015 0.80585 0.22198 0.0
H162 H 0.29983 0.90136 0.92321 0.0
H163 H 0.3255 0.87103 0.01962 0.0
C164 C 0.08406 0.80099 0.24899 0.0
C165 C 0.06576 0.78474 0.29475 0.0
C166 C 0.10154 0.8161 0.30273 0.0
C167 C 0.10879 0.84706 0.53784 0.0
H168 H 0.18163 0.85428 0.46433 0.0
C169 C 0.18181 0.90634 0.76595 0.0
C170 C 0.19972 0.92235 0.7172 0.0
C171 C 0.16641 0.88833 0.71583 0.0
C172 C 0.16128 0.85268 0.48513 0.0
H173 H 0.05165 0.77116 0.43244 0.0
H174 H 0.08224 0.79776 0.52677 0.0
H175 H 0.15316 0.8244 0.37513 0.0
H176 H 0.21575 0.932 0.57794 0.0
H177 H 0.18843 0.90079 0.48967 0.0
H178 H 0.11664 0.87565 0.64648 0.0
C179 C 0.08292 0.79886 0.44924 0.0
C180 C 0.14502 0.83552 0.43428 0.0
C181 C 0.06552 0.78357 0.39535 0.0
C182 C 0.20212 0.91986 0.61731 0.0
C183 C 0.18659 0.90188 0.56695 0.0
C184 C 0.12499 0.8643 0.58835 0.0
C185 C 0.10099 0.81539 0.40337 0.0
C186 C 0.11859 0.83262 0.45993 0.0
C187 C 0.16846 0.886 0.61568 0.0
C188 C 0.15141 0.86738 0.56243 0.0
H189 H 0.08472 0.80227 0.17148 0.0
H190 H 0.11503 0.82887 0.26544 0.0
H191 H 0.0884 0.84555 0.55822 0.0
H192 H 0.17966 0.90769 0.8431 0.0
H193 H 0.15299 0.87609 0.75577 0.0
C194 C 0.06521 0.70178 0.8664 0.0
C195 C 0.06463 0.70037 0.96692 0.0
C196 C 0.0827 0.68625 0.81415 0.0
C197 C 0.12261 0.626 0.83605 0.0
H198 H 0.15776 0.6529 0.61067 0.0
C199 C 0.20341 0.56789 0.63987 0.0
C200 C 0.20114 0.56683 0.53955 0.0
C201 C 0.18776 0.58507 0.69301 0.0
C202 C 0.14795 0.6451 0.67319 0.0
H203 H 0.08225 0.68216 0.09182 0.0
H204 H 0.11301 0.65555 0.00117 0.0
H205 H 0.12829 0.68138 0.70099 0.0
H206 H 0.18111 0.58315 0.41593 0.0
H207 H 0.15386 0.61307 0.50862 0.0
H208 H 0.14233 0.58977 0.80837 0.0
C209 C 0.09963 0.66814 0.96227 0.0
C210 C 0.13102 0.66137 0.72472 0.0
C211 C 0.0821 0.68351 0.01428 0.0
C212 C 0.18328 0.58352 0.49324 0.0
C213 C 0.16779 0.60078 0.54621 0.0
C214 C 0.13963 0.60981 0.78486 0.0
C215 C 0.1 0.66912 0.86157 0.0
C216 C 0.11811 0.65198 0.80666 0.0
C217 C 0.16972 0.6016 0.64665 0.0
C218 C 0.1524 0.61915 0.70275 0.0
H219 H 0.05191 0.71459 0.82809 0.0
H220 H 0.0823 0.68727 0.73658 0.0
H221 H 0.11262 0.61799 0.89779 0.0
H222 H 0.21706 0.55528 0.67737 0.0
H223 H 0.18982 0.58548 0.77035 0.0
C224 C 0.80404 0.08354 0.75752 0.0
C225 C 0.78731 0.06613 0.70885 0.0
C226 C 0.81943 0.10128 0.70678 0.0
C227 C 0.82636 0.13349 0.47106 0.0
H228 H 0.89804 0.14395 0.55571 0.0
C229 C 0.90432 0.18518 0.24084 0.0
C230 C 0.92153 0.20259 0.28729 0.0
C231 C 0.88691 0.16994 0.29371 0.0
C232 C 0.87797 0.14151 0.53198 0.0
H233 H 0.7733 0.05377 0.56901 0.0
H234 H 0.8006 0.08455 0.47973 0.0
H235 H 0.86965 0.11425 0.6439 0.0
H236 H 0.93382 0.218 0.4253 0.0
H237 H 0.90331 0.19123 0.51813 0.0
H238 H 0.83495 0.16049 0.35808 0.0
C239 C 0.80154 0.08472 0.55735 0.0
C240 C 0.86169 0.12449 0.58244 0.0
C241 C 0.78602 0.067 0.60832 0.0
C242 C 0.9208 0.20469 0.38769 0.0
C243 C 0.90345 0.18931 0.44074 0.0
C244 C 0.84271 0.15045 0.42033 0.0
C245 C 0.81855 0.10194 0.60609 0.0
C246 C 0.83571 0.12023 0.5525 0.0
C247 C 0.88641 0.17169 0.39422 0.0
C248 C 0.8687 0.15456 0.45012 0.0
H249 H 0.80531 0.08347 0.8351 0.0
H250 H 0.83194 0.11458 0.74662 0.0
H251 H 0.80634 0.13096 0.447 0.0
H252 H 0.90442 0.18315 0.16347 0.0
H253 H 0.87424 0.15633 0.25594 0.0
C254 C 0.90383 0.30498 0.00887 0.0
C255 C 0.92076 0.28737 0.96238 0.0
C256 C 0.88616 0.32006 0.95613 0.0
C257 C 0.87617 0.34758 0.7168 0.0
H258 H 0.80482 0.35835 0.80307 0.0
C259 C 0.80153 0.40385 0.48815 0.0
C260 C 0.78485 0.42151 0.53546 0.0
C261 C 0.81701 0.38643 0.54023 0.0
C262 C 0.82476 0.35576 0.77864 0.0
H263 H 0.93228 0.27143 0.82452 0.0
H264 H 0.90136 0.2979 0.73198 0.0
H265 H 0.83386 0.3294 0.89333 0.0
H266 H 0.77096 0.4346 0.6743 0.0
H267 H 0.79847 0.40439 0.76597 0.0
H268 H 0.86737 0.3742 0.6032 0.0
C269 C 0.9019 0.30012 0.80926 0.0
C270 C 0.84135 0.33914 0.83014 0.0
C271 C 0.9195 0.2849 0.86216 0.0
C272 C 0.78364 0.42116 0.63604 0.0
C273 C 0.79928 0.40377 0.68838 0.0
C274 C 0.85965 0.36427 0.66561 0.0
C275 C 0.88515 0.31795 0.85574 0.0
C276 C 0.86723 0.3349 0.79974 0.0
C277 C 0.81631 0.38637 0.64096 0.0
C278 C 0.83375 0.36856 0.69586 0.0
H279 H 0.90435 0.30729 0.08612 0.0
H280 H 0.87372 0.33383 0.99382 0.0
H281 H 0.89615 0.34506 0.6926 0.0
H282 H 0.80271 0.4035 0.41057 0.0
H283 H 0.8295 0.37295 0.50138 0.0
C284 C 0.68446 0.4025 0.2515 0.0
C285 C 0.70163 0.42005 0.20631 0.0
C286 C 0.66975 0.38474 0.19749 0.0
C287 C 0.64201 0.37566 0.95784 0.0
H288 H 0.63178 0.3038 0.04019 0.0
C289 C 0.5842 0.30204 0.72839 0.0
C290 C 0.56671 0.28533 0.77608 0.0
C291 C 0.60209 0.31717 0.78004 0.0
C292 C 0.63424 0.32388 0.01683 0.0
H293 H 0.71728 0.43251 0.06944 0.0
H294 H 0.69143 0.40141 0.97462 0.0
H295 H 0.66101 0.33256 0.1311 0.0
H296 H 0.55444 0.271 0.91505 0.0
H297 H 0.58547 0.29791 0.00599 0.0
H298 H 0.61493 0.36729 0.84483 0.0
C299 C 0.68927 0.40155 0.05189 0.0
C300 C 0.65103 0.34031 0.06868 0.0
C301 C 0.70413 0.41925 0.10608 0.0
C302 C 0.56772 0.28372 0.87652 0.0
C303 C 0.58558 0.29901 0.92843 0.0
C304 C 0.62516 0.35931 0.9063 0.0
C305 C 0.67181 0.38424 0.0971 0.0
C306 C 0.655 0.36639 0.03985 0.0
C307 C 0.6028 0.31608 0.88068 0.0
C308 C 0.62102 0.33324 0.93527 0.0
H309 H 0.68215 0.40265 0.32873 0.0
H310 H 0.65624 0.37186 0.23423 0.0
H311 H 0.64433 0.3958 0.93488 0.0
H312 H 0.58404 0.30352 0.65089 0.0
H313 H 0.6154 0.32972 0.74094 0.0
C314 C 0.70225 0.06933 0.12231 0.0
C315 C 0.70093 0.06773 0.02188 0.0
C316 C 0.68693 0.08758 0.17188 0.0
C317 C 0.62702 0.12736 0.14444 0.0
H318 H 0.65369 0.16396 0.36842 0.0
C319 C 0.5665 0.20585 0.34491 0.0
C320 C 0.56611 0.20331 0.44515 0.0
C321 C 0.5842 0.19125 0.29011 0.0
C322 C 0.64596 0.15378 0.30619 0.0
H323 H 0.68314 0.08433 0.89429 0.0
H324 H 0.65682 0.11637 0.98042 0.0
H325 H 0.68245 0.13455 0.27906 0.0
H326 H 0.58417 0.18395 0.5669 0.0
H327 H 0.61488 0.15848 0.47146 0.0
H328 H 0.59049 0.14645 0.17197 0.0
C329 C 0.66922 0.10324 0.02122 0.0
C330 C 0.66239 0.1369 0.25521 0.0
C331 C 0.68441 0.08496 0.97185 0.0
C332 C 0.584 0.1863 0.48969 0.0
C333 C 0.60173 0.17185 0.43512 0.0
C334 C 0.61063 0.1443 0.1952 0.0
C335 C 0.67011 0.10462 0.12183 0.0
C336 C 0.65303 0.12331 0.17425 0.0
C337 C 0.6019 0.174 0.33474 0.0
C338 C 0.61985 0.15748 0.27715 0.0
H339 H 0.71481 0.05625 0.16266 0.0
H340 H 0.68785 0.08794 0.24949 0.0
H341 H 0.61906 0.1169 0.08326 0.0
H342 H 0.55297 0.21888 0.30878 0.0
H343 H 0.58406 0.19345 0.21285 0.0
C344 C 0.31364 0.45775 0.53296 0.0
C345 C 0.30626 0.46348 0.43822 0.0
C346 C 0.33348 0.43952 0.55127 0.0
C347 C 0.38984 0.40606 0.43967 0.0
H348 H 0.37679 0.35245 0.63021 0.0
C349 C 0.45407 0.31324 0.47242 0.0
C350 C 0.45946 0.30402 0.56516 0.0
C351 C 0.43617 0.33365 0.4586 0.0
C352 C 0.38094 0.36748 0.5777 0.0
H353 H 0.31415 0.45512 0.28839 0.0
H354 H 0.3487 0.42341 0.32034 0.0
H355 H 0.34466 0.38708 0.60524 0.0
H356 H 0.45071 0.30911 0.71626 0.0
H357 H 0.41993 0.3449 0.6924 0.0
H358 H 0.42612 0.38649 0.41204 0.0
C359 C 0.33931 0.43304 0.38045 0.0
C360 C 0.36251 0.38732 0.56347 0.0
C361 C 0.3194 0.45108 0.36222 0.0
C362 C 0.44682 0.31569 0.64379 0.0
C363 C 0.42906 0.33612 0.63008 0.0
C364 C 0.40834 0.38628 0.45421 0.0
C365 C 0.34642 0.42689 0.47512 0.0
C366 C 0.36668 0.4067 0.49382 0.0
C367 C 0.42341 0.34528 0.53733 0.0
C368 C 0.40403 0.36665 0.52297 0.0
H369 H 0.30386 0.46707 0.5929 0.0
H370 H 0.33873 0.43533 0.62497 0.0
H371 H 0.39372 0.42094 0.38627 0.0
H372 H 0.46351 0.30456 0.4105 0.0
H373 H 0.43202 0.34 0.38609 0.0
C374 C 0.67158 0.94711 0.88532 0.0
C375 C 0.68436 0.95943 0.80854 0.0
C376 C 0.65196 0.92863 0.86828 0.0
C377 C 0.62829 0.88221 0.68666 0.0
H378 H 0.56477 0.88238 0.8386 0.0
C379 C 0.54188 0.81362 0.60075 0.0
C380 C 0.52869 0.802 0.67802 0.0
C381 C 0.56045 0.83322 0.61669 0.0
C382 C 0.58253 0.88187 0.79638 0.0
H383 H 0.68653 0.96223 0.65368 0.0
H384 H 0.65215 0.92976 0.62368 0.0
H385 H 0.59773 0.91631 0.86486 0.0
H386 H 0.52453 0.80177 0.83265 0.0
H387 H 0.55739 0.83584 0.86093 0.0
H388 H 0.61334 0.84764 0.61896 0.0
C389 C 0.65746 0.93436 0.6971 0.0
C390 C 0.60136 0.90134 0.81122 0.0
C391 C 0.67703 0.95301 0.7142 0.0
C392 C 0.53438 0.81043 0.77174 0.0
C393 C 0.55307 0.83003 0.7878 0.0
C394 C 0.60952 0.86268 0.6721 0.0
C395 C 0.64477 0.92195 0.77405 0.0
C396 C 0.62445 0.90171 0.75655 0.0
C397 C 0.56637 0.8416 0.71036 0.0
C398 C 0.5864 0.86228 0.72673 0.0
H399 H 0.67681 0.95165 0.95888 0.0
H400 H 0.64277 0.91919 0.929 0.0
H401 H 0.64607 0.88173 0.64453 0.0
H402 H 0.53781 0.80765 0.52758 0.0
H403 H 0.56997 0.842 0.55534 0.0
C404 C 0.03381 0.17876 0.96529 0.0
C405 C 0.02749 0.18547 0.06021 0.0
C406 C 0.05245 0.15932 0.94659 0.0
C407 C 0.08546 0.10244 0.05585 0.0
H408 H 0.13965 0.11617 0.8684 0.0
C409 C 0.17693 0.03668 0.0196 0.0
C410 C 0.18594 0.03146 0.92644 0.0
C411 C 0.15715 0.05517 0.03481 0.0
C412 C 0.12447 0.11186 0.92009 0.0
H413 H 0.03538 0.17693 0.20989 0.0
H414 H 0.06779 0.14308 0.17725 0.0
H415 H 0.10524 0.1485 0.89471 0.0
H416 H 0.18124 0.0413 0.7761 0.0
H417 H 0.14652 0.07316 0.80237 0.0
H418 H 0.10457 0.06578 0.08114 0.0
C419 C 0.0583 0.15267 0.11729 0.0
C420 C 0.10476 0.1304 0.93508 0.0
C421 C 0.03985 0.17218 0.13593 0.0
C422 C 0.17479 0.04501 0.84885 0.0
C423 C 0.15498 0.06338 0.86395 0.0
C424 C 0.10509 0.08385 0.04056 0.0
C425 C 0.06491 0.14612 0.0225 0.0
C426 C 0.08515 0.12595 0.00352 0.0
C427 C 0.14593 0.06873 0.95709 0.0
C428 C 0.12491 0.08839 0.97284 0.0
H429 H 0.02456 0.18869 0.90557 0.0
H430 H 0.05702 0.15451 0.87278 0.0
H431 H 0.07039 0.09834 0.10823 0.0
H432 H 0.18523 0.02658 0.08077 0.0
H433 H 0.15087 0.05908 0.10761 0.0
C434 C 0.94498 0.67202 0.11122 0.0
C435 C 0.95818 0.68419 0.18785 0.0
C436 C 0.92666 0.6523 0.12833 0.0
C437 C 0.88221 0.62742 0.31235 0.0
H438 H 0.88117 0.56458 0.15491 0.0
C439 C 0.81376 0.54093 0.39566 0.0
C440 C 0.80161 0.52819 0.31796 0.0
C441 C 0.83348 0.55934 0.38017 0.0
C442 C 0.88099 0.58215 0.19873 0.0
H443 H 0.9627 0.68525 0.34245 0.0
H444 H 0.93048 0.65073 0.37255 0.0
H445 H 0.91472 0.59781 0.12821 0.0
H446 H 0.80058 0.52463 0.16308 0.0
H447 H 0.83477 0.55726 0.13561 0.0
H448 H 0.84829 0.61208 0.38191 0.0
C449 C 0.93428 0.65657 0.29925 0.0
C450 C 0.90025 0.60113 0.18363 0.0
C451 C 0.95278 0.67621 0.28206 0.0
C452 C 0.80967 0.53411 0.22431 0.0
C453 C 0.82935 0.55268 0.20871 0.0
C454 C 0.86287 0.60852 0.32712 0.0
C455 C 0.92103 0.64444 0.22249 0.0
C456 C 0.90104 0.62396 0.24021 0.0
C457 C 0.84141 0.56558 0.28653 0.0
C458 C 0.86201 0.58566 0.2705 0.0
H459 H 0.94873 0.67776 0.03779 0.0
H460 H 0.91654 0.64354 0.06785 0.0
H461 H 0.88209 0.64501 0.35606 0.0
H462 H 0.80808 0.53663 0.46876 0.0
H463 H 0.84266 0.56853 0.44179 0.0
C464 C 0.32049 0.03716 0.88163 0.0
C465 C 0.30689 0.0246 0.80676 0.0
C466 C 0.34092 0.05445 0.86177 0.0
C467 C 0.36491 0.09819 0.67437 0.0
H468 H 0.4285 0.09925 0.82711 0.0
C469 C 0.44939 0.16886 0.58983 0.0
C470 C 0.46179 0.18123 0.66778 0.0
C471 C 0.43189 0.14828 0.60478 0.0
C472 C 0.41075 0.09937 0.78447 0.0
H473 H 0.30427 0.01989 0.65248 0.0
H474 H 0.34005 0.05032 0.61755 0.0
H475 H 0.3956 0.06544 0.85551 0.0
H476 H 0.46588 0.18162 0.82251 0.0
H477 H 0.43482 0.14592 0.8491 0.0
H478 H 0.37966 0.13236 0.60467 0.0
C479 C 0.33475 0.04683 0.69161 0.0
C480 C 0.39196 0.07996 0.80052 0.0
C481 C 0.31438 0.02937 0.71155 0.0
C482 C 0.4566 0.17241 0.76111 0.0
C483 C 0.43895 0.15187 0.77619 0.0
C484 C 0.38362 0.11764 0.65862 0.0
C485 C 0.34811 0.05967 0.76658 0.0
C486 C 0.36877 0.07928 0.74602 0.0
C487 C 0.42625 0.13969 0.69814 0.0
C488 C 0.40671 0.11856 0.71378 0.0
H489 H 0.31519 0.03384 0.95579 0.0
H490 H 0.35063 0.06426 0.921 0.0
H491 H 0.34705 0.09841 0.63229 0.0
H492 H 0.45317 0.17507 0.51693 0.0
H493 H 0.42285 0.13905 0.54298 0.0
C494 C 0.8168 0.94755 0.85855 0.0
C495 C 0.80423 0.96087 0.93379 0.0
C496 C 0.83687 0.92976 0.87765 0.0
C497 C 0.86232 0.88675 0.0658 0.0
H498 H 0.92464 0.88501 0.90737 0.0
C499 C 0.94842 0.81794 0.15049 0.0
C500 C 0.96042 0.80508 0.07295 0.0
C501 C 0.93044 0.83804 0.13466 0.0
C502 C 0.90723 0.88506 0.95159 0.0
H503 H 0.80289 0.96621 0.08798 0.0
H504 H 0.83807 0.93493 0.1216 0.0
H505 H 0.89132 0.91841 0.879 0.0
H506 H 0.96325 0.80333 0.91803 0.0
H507 H 0.93135 0.83824 0.88999 0.0
H508 H 0.87791 0.85319 0.13737 0.0
C509 C 0.83225 0.93821 0.04784 0.0
C510 C 0.8882 0.90423 0.93551 0.0
C511 C 0.81221 0.95617 0.02864 0.0
C512 C 0.95432 0.81295 0.97911 0.0
C513 C 0.93617 0.83303 0.96319 0.0
C514 C 0.88129 0.86752 0.08162 0.0
C515 C 0.84474 0.9248 0.97245 0.0
C516 C 0.86549 0.9052 0.99219 0.0
C517 C 0.92388 0.84567 0.04087 0.0
C518 C 0.90393 0.86639 0.02452 0.0
H519 H 0.81107 0.95075 0.78465 0.0
H520 H 0.84588 0.91948 0.81817 0.0
H521 H 0.84485 0.88676 0.10965 0.0
H522 H 0.95289 0.81245 0.22373 0.0
H523 H 0.92173 0.84768 0.19612 0.0
C524 C 0.04003 0.31791 0.11006 0.0
C525 C 0.02765 0.30491 0.18621 0.0
C526 C 0.05852 0.33745 0.12808 0.0
C527 C 0.10495 0.36035 0.31048 0.0
H528 H 0.10488 0.4245 0.16173 0.0
C529 C 0.17435 0.44612 0.39783 0.0
C530 C 0.18578 0.45949 0.3206 0.0
C531 C 0.15461 0.42771 0.38196 0.0
C532 C 0.10537 0.40656 0.20306 0.0
H533 H 0.02474 0.30225 0.34094 0.0
H534 H 0.05725 0.3365 0.37265 0.0
H535 H 0.07081 0.39177 0.13453 0.0
H536 H 0.18557 0.4641 0.16613 0.0
H537 H 0.15127 0.43152 0.13797 0.0
H538 H 0.13967 0.37487 0.37811 0.0
C539 C 0.05268 0.33142 0.29898 0.0
C540 C 0.0858 0.38787 0.18769 0.0
C541 C 0.034 0.31195 0.2809 0.0
C542 C 0.17705 0.45413 0.22702 0.0
C543 C 0.15731 0.43559 0.21104 0.0
C544 C 0.12458 0.37898 0.32555 0.0
C545 C 0.06515 0.34433 0.22267 0.0
C546 C 0.08542 0.36455 0.24113 0.0
C547 C 0.1459 0.42213 0.28841 0.0
C548 C 0.12504 0.4023 0.27198 0.0
H549 H 0.03554 0.3129 0.03625 0.0
H550 H 0.06802 0.34682 0.06784 0.0
H551 H 0.10539 0.34238 0.35167 0.0
H552 H 0.18058 0.44994 0.47088 0.0
H553 H 0.14596 0.41804 0.44328 0.0
C554 C 0.53611 0.66837 0.63135 0.0
C555 C 0.52394 0.68192 0.5558 0.0
C556 C 0.55372 0.64813 0.61248 0.0
C557 C 0.59869 0.62412 0.42827 0.0
H558 H 0.59843 0.56036 0.57932 0.0
C559 C 0.66851 0.53858 0.34573 0.0
C560 C 0.68037 0.52597 0.42403 0.0
C561 C 0.64824 0.55647 0.36006 0.0
C562 C 0.59892 0.57817 0.53722 0.0
H563 H 0.5204 0.68473 0.40122 0.0
H564 H 0.55139 0.64925 0.368 0.0
H565 H 0.56473 0.59351 0.60595 0.0
H566 H 0.68018 0.52195 0.5787 0.0
H567 H 0.64496 0.55365 0.60418 0.0
H568 H 0.6331 0.60911 0.36068 0.0
C569 C 0.54733 0.65444 0.44187 0.0
C570 C 0.57959 0.5971 0.55226 0.0
C571 C 0.52953 0.67465 0.46082 0.0
C572 C 0.67136 0.53137 0.51704 0.0
C573 C 0.6511 0.5494 0.53148 0.0
C574 C 0.61808 0.60525 0.41348 0.0
C575 C 0.55968 0.64106 0.5176 0.0
C576 C 0.57936 0.62034 0.4983 0.0
C577 C 0.63943 0.56229 0.45309 0.0
C578 C 0.6185 0.5821 0.46804 0.0
H579 H 0.53218 0.67353 0.70536 0.0
H580 H 0.56316 0.63842 0.6723 0.0
H581 H 0.59927 0.64201 0.38664 0.0
H582 H 0.6749 0.53467 0.27305 0.0
H583 H 0.63939 0.56567 0.29801 0.0
loop_
_geom_bond_atom_site_label_1
_geom_bond_atom_site_label_2
_geom_bond_distance
_geom_bond_site_symmetry_2
_ccdc_geom_bond_type
In0 O1 2.294 . S
In0 O2 2.326 . S
In0 O6 2.266 . S
In0 O7 2.326 . S
In0 O8 2.266 . S
In0 O9 2.326 . S
In0 O11 2.294 . S
In0 O12 2.326 . S
O1 In0 2.294 . S
O1 C10 1.240 . S
O2 In0 2.326 . S
O2 C10 1.252 . S
C3 O6 1.252 . S
C3 O7 1.260 . S
C4 O11 1.240 . S
C4 O12 1.252 . S
C5 O8 1.252 . S
C5 O9 1.260 . S
O6 In0 2.266 . S
O6 C3 1.252 . S
O7 In0 2.326 . S
O7 C3 1.260 . S
O8 In0 2.266 . S
O8 C5 1.252 . S
O9 In0 2.326 . S
O9 C5 1.260 . S
C10 O1 1.240 . S
C10 O2 1.252 . S
O11 In0 2.294 . S
O11 C4 1.240 . S
O12 In0 2.326 . S
O12 C4 1.252 . S
In13 O14 2.294 . S
In13 O15 2.326 . S
In13 O19 2.266 . S
In13 O20 2.326 . S
In13 O21 2.266 . S
In13 O22 2.326 . S
In13 O24 2.294 . S
In13 O25 2.326 . S
O14 In13 2.294 . S
O14 C23 1.240 . S
O15 In13 2.326 . S
O15 C23 1.252 . S
C16 O19 1.252 . S
C16 O20 1.260 . S
C17 O24 1.240 . S
C17 O25 1.252 . S
C18 O21 1.252 . S
C18 O22 1.260 . S
O19 In13 2.266 . S
O19 C16 1.252 . S
O20 In13 2.326 . S
O20 C16 1.260 . S
O21 In13 2.266 . S
O21 C18 1.252 . S
O22 In13 2.326 . S
O22 C18 1.260 . S
C23 O14 1.240 . S
C23 O15 1.252 . S
O24 In13 2.294 . S
O24 C17 1.240 . S
O25 In13 2.326 . S
O25 C17 1.252 . S
In26 O27 2.294 1_556 S
In26 O28 2.326 . S
In26 O32 2.266 . S
In26 O33 2.326 1_565 S
In26 O34 2.266 . S
In26 O35 2.326 . S
In26 O37 2.294 . S
In26 O38 2.326 1_565 S
O27 In26 2.294 1_554 S
O27 C36 1.240 1_554 S
O28 In26 2.326 . S
O28 C36 1.252 . S
C29 O32 1.252 1_545 S
C29 O33 1.260 . S
C30 O37 1.240 1_545 S
C30 O38 1.252 . S
C31 O34 1.252 . S
C31 O35 1.260 . S
O32 In26 2.266 . S
O32 C29 1.252 1_565 S
O33 In26 2.326 1_545 S
O33 C29 1.260 . S
O34 In26 2.266 . S
O34 C31 1.252 . S
O35 In26 2.326 . S
O35 C31 1.260 . S
C36 O27 1.240 1_556 S
C36 O28 1.252 . S
O37 In26 2.294 . S
O37 C30 1.240 1_565 S
O38 In26 2.326 1_545 S
O38 C30 1.252 . S
In39 O40 2.294 . S
In39 O41 2.326 1_455 S
In39 O45 2.266 . S
In39 O46 2.326 . S
In39 O47 2.266 . S
In39 O48 2.326 1_455 S
In39 O50 2.294 1_554 S
In39 O51 2.326 . S
O40 In39 2.294 . S
O40 C49 1.240 1_455 S
O41 In39 2.326 1_655 S
O41 C49 1.252 . S
C42 O45 1.252 . S
C42 O46 1.260 . S
C43 O50 1.240 1_554 S
C43 O51 1.252 . S
C44 O47 1.252 1_655 S
C44 O48 1.260 . S
O45 In39 2.266 . S
O45 C42 1.252 . S
O46 In39 2.326 . S
O46 C42 1.260 . S
O47 In39 2.266 . S
O47 C44 1.252 1_455 S
O48 In39 2.326 1_655 S
O48 C44 1.260 . S
C49 O40 1.240 1_655 S
C49 O41 1.252 . S
O50 In39 2.294 1_556 S
O50 C43 1.240 1_556 S
O51 In39 2.326 . S
O51 C43 1.252 . S
In52 O53 2.294 . S
In52 O54 2.326 . S
In52 O58 2.266 . S
In52 O59 2.326 1_545 S
In52 O60 2.266 1_556 S
In52 O61 2.326 . S
In52 O63 2.294 . S
In52 O64 2.326 1_545 S
O53 In52 2.294 . S
O53 C62 1.240 . S
O54 In52 2.326 . S
O54 C62 1.252 . S
C55 O58 1.252 1_565 S
C55 O59 1.260 . S
C56 O63 1.240 1_565 S
C56 O64 1.252 . S
C57 O60 1.252 1_556 S
C57 O61 1.260 . S
O58 In52 2.266 . S
O58 C55 1.252 1_545 S
O59 In52 2.326 1_565 S
O59 C55 1.260 . S
O60 In52 2.266 1_554 S
O60 C57 1.252 1_554 S
O61 In52 2.326 . S
O61 C57 1.260 . S
C62 O53 1.240 . S
C62 O54 1.252 . S
O63 In52 2.294 . S
O63 C56 1.240 1_545 S
O64 In52 2.326 1_565 S
O64 C56 1.252 . S
In65 O66 2.294 . S
In65 O67 2.326 . S
In65 O71 2.266 . S
In65 O72 2.326 1_655 S
In65 O73 2.266 1_554 S
In65 O74 2.326 . S
In65 O76 2.294 . S
In65 O77 2.326 1_655 S
O66 In65 2.294 . S
O66 C75 1.240 . S
O67 In65 2.326 . S
O67 C75 1.252 . S
C68 O71 1.252 1_455 S
C68 O72 1.260 . S
C69 O76 1.240 1_455 S
C69 O77 1.252 . S
C70 O73 1.252 1_554 S
C70 O74 1.260 . S
O71 In65 2.266 . S
O71 C68 1.252 1_655 S
O72 In65 2.326 1_455 S
O72 C68 1.260 . S
O73 In65 2.266 1_556 S
O73 C70 1.252 1_556 S
O74 In65 2.326 . S
O74 C70 1.260 . S
C75 O66 1.240 . S
C75 O67 1.252 . S
O76 In65 2.294 . S
O76 C69 1.240 1_655 S
O77 In65 2.326 1_455 S
O77 C69 1.252 . S
In78 O79 2.294 . S
In78 O80 2.326 . S
In78 O84 2.266 . S
In78 O85 2.326 . S
In78 O86 2.266 . S
In78 O87 2.326 . S
In78 O89 2.294 . S
In78 O90 2.326 . S
O79 In78 2.294 . S
O79 C88 1.240 . S
O80 In78 2.326 . S
O80 C88 1.252 . S
C81 O84 1.252 . S
C81 O85 1.260 . S
C82 O89 1.240 . S
C82 O90 1.252 . S
C83 O86 1.252 . S
C83 O87 1.260 . S
O84 In78 2.266 . S
O84 C81 1.252 . S
O85 In78 2.326 . S
O85 C81 1.260 . S
O86 In78 2.266 . S
O86 C83 1.252 . S
O87 In78 2.326 . S
O87 C83 1.260 . S
C88 O79 1.240 . S
C88 O80 1.252 . S
O89 In78 2.294 . S
O89 C82 1.240 . S
O90 In78 2.326 . S
O90 C82 1.252 . S
In91 O92 2.294 . S
In91 O93 2.326 . S
In91 O97 2.266 . S
In91 O98 2.326 . S
In91 O99 2.266 . S
In91 O100 2.326 . S
In91 O102 2.294 . S
In91 O103 2.326 . S
O92 In91 2.294 . S
O92 C101 1.240 . S
O93 In91 2.326 . S
O93 C101 1.252 . S
C94 O97 1.252 . S
C94 O98 1.260 . S
C95 O102 1.240 . S
C95 O103 1.252 . S
C96 O99 1.252 . S
C96 O100 1.260 . S
O97 In91 2.266 . S
O97 C94 1.252 . S
O98 In91 2.326 . S
O98 C94 1.260 . S
O99 In91 2.266 . S
O99 C96 1.252 . S
O100 In91 2.326 . S
O100 C96 1.260 . S
C101 O92 1.240 . S
C101 O93 1.252 . S
O102 In91 2.294 . S
O102 C95 1.240 . S
O103 In91 2.326 . S
O103 C95 1.252 . S
C104 C105 1.349 . S
C104 C106 1.327 . S
C104 H129 0.950 . S
C105 C104 1.349 . S
C105 C121 1.349 . S
C106 C104 1.327 . S
C106 C125 1.429 . S
C106 H130 0.950 . S
C107 C124 1.574 1_556 S
C107 C126 1.368 . S
C107 H131 0.949 . S
H108 C112 0.949 . S
C109 C110 1.349 . S
C109 C111 1.327 . S
C109 H132 0.950 . S
C110 C109 1.349 . S
C110 C122 1.349 . S
C111 C109 1.327 . S
C111 C127 1.429 . S
C111 H133 0.950 . S
C112 H108 0.949 . S
C112 C120 1.574 1_554 S
C112 C128 1.368 . S
H113 C121 0.950 . S
H114 C119 0.950 . S
H115 C120 0.949 . S
H116 C122 0.950 . S
H117 C123 0.950 . S
H118 C124 0.949 . S
C119 H114 0.950 . S
C119 C121 1.327 . S
C119 C125 1.429 . S
C120 C112 1.574 1_556 S
C120 H115 0.949 . S
C120 C126 1.368 . S
C121 C105 1.349 . S
C121 H113 0.950 . S
C121 C119 1.327 . S
C122 C110 1.349 . S
C122 H116 0.950 . S
C122 C123 1.327 . S
C123 H117 0.950 . S
C123 C122 1.327 . S
C123 C127 1.429 . S
C124 C107 1.574 1_554 S
C124 H118 0.949 . S
C124 C128 1.368 . S
C125 C106 1.429 . S
C125 C119 1.429 . S
C125 C126 1.523 . S
C126 C107 1.368 . S
C126 C120 1.368 . S
C126 C125 1.523 . S
C127 C111 1.429 . S
C127 C123 1.429 . S
C127 C128 1.523 . S
C128 C112 1.368 . S
C128 C124 1.368 . S
C128 C127 1.523 . S
H129 C104 0.950 . S
H130 C106 0.950 . S
H131 C107 0.949 . S
H132 C109 0.950 . S
H133 C111 0.950 . S
C134 C135 1.349 . S
C134 C136 1.327 . S
C134 H159 0.950 . S
C135 C134 1.349 . S
C135 C151 1.349 . S
C136 C134 1.327 . S
C136 C155 1.429 . S
C136 H160 0.950 . S
C137 C154 1.574 . S
C137 C156 1.368 . S
C137 H161 0.949 . S
H138 C142 0.949 . S
C139 C140 1.349 . S
C139 C141 1.327 . S
C139 H162 0.950 . S
C140 C139 1.349 . S
C140 C152 1.349 . S
C141 C139 1.327 . S
C141 C157 1.429 . S
C141 H163 0.950 . S
C142 H138 0.949 . S
C142 C150 1.574 . S
C142 C158 1.368 . S
H143 C151 0.950 . S
H144 C149 0.950 . S
H145 C150 0.949 . S
H146 C152 0.950 . S
H147 C153 0.950 . S
H148 C154 0.949 . S
C149 H144 0.950 . S
C149 C151 1.327 . S
C149 C155 1.429 . S
C150 C142 1.574 . S
C150 H145 0.949 . S
C150 C156 1.368 . S
C151 C135 1.349 . S
C151 H143 0.950 . S
C151 C149 1.327 . S
C152 C140 1.349 . S
C152 H146 0.950 . S
C152 C153 1.327 . S
C153 H147 0.950 . S
C153 C152 1.327 . S
C153 C157 1.429 . S
C154 C137 1.574 . S
C154 H148 0.949 . S
C154 C158 1.368 . S
C155 C136 1.429 . S
C155 C149 1.429 . S
C155 C156 1.523 . S
C156 C137 1.368 . S
C156 C150 1.368 . S
C156 C155 1.523 . S
C157 C141 1.429 . S
C157 C153 1.429 . S
C157 C158 1.523 . S
C158 C142 1.368 . S
C158 C154 1.368 . S
C158 C157 1.523 . S
H159 C134 0.950 . S
H160 C136 0.950 . S
H161 C137 0.949 . S
H162 C139 0.950 . S
H163 C141 0.950 . S
C164 C165 1.349 . S
C164 C166 1.327 . S
C164 H189 0.950 . S
C165 C164 1.349 . S
C165 C181 1.349 . S
C166 C164 1.327 . S
C166 C185 1.429 . S
C166 H190 0.950 . S
C167 C184 1.574 . S
C167 C186 1.368 . S
C167 H191 0.949 . S
H168 C172 0.949 . S
C169 C170 1.349 . S
C169 C171 1.327 . S
C169 H192 0.950 . S
C170 C169 1.349 . S
C170 C182 1.349 . S
C171 C169 1.327 . S
C171 C187 1.429 . S
C171 H193 0.950 . S
C172 H168 0.949 . S
C172 C180 1.574 . S
C172 C188 1.368 . S
H173 C181 0.950 . S
H174 C179 0.950 . S
H175 C180 0.949 . S
H176 C182 0.950 . S
H177 C183 0.950 . S
H178 C184 0.949 . S
C179 H174 0.950 . S
C179 C181 1.327 . S
C179 C185 1.429 . S
C180 C172 1.574 . S
C180 H175 0.949 . S
C180 C186 1.368 . S
C181 C165 1.349 . S
C181 H173 0.950 . S
C181 C179 1.327 . S
C182 C170 1.349 . S
C182 H176 0.950 . S
C182 C183 1.327 . S
C183 H177 0.950 . S
C183 C182 1.327 . S
C183 C187 1.429 . S
C184 C167 1.574 . S
C184 H178 0.949 . S
C184 C188 1.368 . S
C185 C166 1.429 . S
C185 C179 1.429 . S
C185 C186 1.523 . S
C186 C167 1.368 . S
C186 C180 1.368 . S
C186 C185 1.523 . S
C187 C171 1.429 . S
C187 C183 1.429 . S
C187 C188 1.523 . S
C188 C172 1.368 . S
C188 C184 1.368 . S
C188 C187 1.523 . S
H189 C164 0.950 . S
H190 C166 0.950 . S
H191 C167 0.949 . S
H192 C169 0.950 . S
H193 C171 0.950 . S
C194 C195 1.349 . S
C194 C196 1.327 . S
C194 H219 0.950 . S
C195 C194 1.349 . S
C195 C211 1.349 . S
C196 C194 1.327 . S
C196 C215 1.429 . S
C196 H220 0.950 . S
C197 C214 1.574 . S
C197 C216 1.368 . S
C197 H221 0.949 . S
H198 C202 0.949 . S
C199 C200 1.349 . S
C199 C201 1.327 . S
C199 H222 0.950 . S
C200 C199 1.349 . S
C200 C212 1.349 . S
C201 C199 1.327 . S
C201 C217 1.429 . S
C201 H223 0.950 . S
C202 H198 0.949 . S
C202 C210 1.574 . S
C202 C218 1.368 . S
H203 C211 0.950 1_554 S
H204 C209 0.950 . S
H205 C210 0.949 . S
H206 C212 0.950 . S
H207 C213 0.950 . S
H208 C214 0.949 . S
C209 H204 0.950 . S
C209 C211 1.327 . S
C209 C215 1.429 . S
C210 C202 1.574 . S
C210 H205 0.949 . S
C210 C216 1.368 . S
C211 C195 1.349 . S
C211 H203 0.950 1_556 S
C211 C209 1.327 . S
C212 C200 1.349 . S
C212 H206 0.950 . S
C212 C213 1.327 . S
C213 H207 0.950 . S
C213 C212 1.327 . S
C213 C217 1.429 . S
C214 C197 1.574 . S
C214 H208 0.949 . S
C214 C218 1.368 . S
C215 C196 1.429 . S
C215 C209 1.429 . S
C215 C216 1.523 . S
C216 C197 1.368 . S
C216 C210 1.368 . S
C216 C215 1.523 . S
C217 C201 1.429 . S
C217 C213 1.429 . S
C217 C218 1.523 . S
C218 C202 1.368 . S
C218 C214 1.368 . S
C218 C217 1.523 . S
H219 C194 0.950 . S
H220 C196 0.950 . S
H221 C197 0.949 . S
H222 C199 0.950 . S
H223 C201 0.950 . S
C224 C225 1.349 . S
C224 C226 1.327 . S
C224 H249 0.950 . S
C225 C224 1.349 . S
C225 C241 1.349 . S
C226 C224 1.327 . S
C226 C245 1.429 . S
C226 H250 0.950 . S
C227 C244 1.574 . S
C227 C246 1.368 . S
C227 H251 0.949 . S
H228 C232 0.949 . S
C229 C230 1.349 . S
C229 C231 1.327 . S
C229 H252 0.950 . S
C230 C229 1.349 . S
C230 C242 1.349 . S
C231 C229 1.327 . S
C231 C247 1.429 . S
C231 H253 0.950 . S
C232 H228 0.949 . S
C232 C240 1.574 . S
C232 C248 1.368 . S
H233 C241 0.950 . S
H234 C239 0.950 . S
H235 C240 0.949 . S
H236 C242 0.950 . S
H237 C243 0.950 . S
H238 C244 0.949 . S
C239 H234 0.950 . S
C239 C241 1.327 . S
C239 C245 1.429 . S
C240 C232 1.574 . S
C240 H235 0.949 . S
C240 C246 1.368 . S
C241 C225 1.349 . S
C241 H233 0.950 . S
C241 C239 1.327 . S
C242 C230 1.349 . S
C242 H236 0.950 . S
C242 C243 1.327 . S
C243 H237 0.950 . S
C243 C242 1.327 . S
C243 C247 1.429 . S
C244 C227 1.574 . S
C244 H238 0.949 . S
C244 C248 1.368 . S
C245 C226 1.429 . S
C245 C239 1.429 . S
C245 C246 1.523 . S
C246 C227 1.368 . S
C246 C240 1.368 . S
C246 C245 1.523 . S
C247 C231 1.429 . S
C247 C243 1.429 . S
C247 C248 1.523 . S
C248 C232 1.368 . S
C248 C244 1.368 . S
C248 C247 1.523 . S
H249 C224 0.950 . S
H250 C226 0.950 . S
H251 C227 0.949 . S
H252 C229 0.950 . S
H253 C231 0.950 . S
C254 C255 1.349 1_554 S
C254 C256 1.327 1_554 S
C254 H279 0.950 . S
C255 C254 1.349 1_556 S
C255 C271 1.349 . S
C256 C254 1.327 1_556 S
C256 C275 1.429 . S
C256 H280 0.950 . S
C257 C274 1.574 . S
C257 C276 1.368 . S
C257 H281 0.949 . S
H258 C262 0.949 . S
C259 C260 1.349 . S
C259 C261 1.327 . S
C259 H282 0.950 . S
C260 C259 1.349 . S
C260 C272 1.349 . S
C261 C259 1.327 . S
C261 C277 1.429 . S
C261 H283 0.950 . S
C262 H258 0.949 . S
C262 C270 1.574 . S
C262 C278 1.368 . S
H263 C271 0.950 . S
H264 C269 0.950 . S
H265 C270 0.949 . S
H266 C272 0.950 . S
H267 C273 0.950 . S
H268 C274 0.949 . S
C269 H264 0.950 . S
C269 C271 1.327 . S
C269 C275 1.429 . S
C270 C262 1.574 . S
C270 H265 0.949 . S
C270 C276 1.368 . S
C271 C255 1.349 . S
C271 H263 0.950 . S
C271 C269 1.327 . S
C272 C260 1.349 . S
C272 H266 0.950 . S
C272 C273 1.327 . S
C273 H267 0.950 . S
C273 C272 1.327 . S
C273 C277 1.429 . S
C274 C257 1.574 . S
C274 H268 0.949 . S
C274 C278 1.368 . S
C275 C256 1.429 . S
C275 C269 1.429 . S
C275 C276 1.523 . S
C276 C257 1.368 . S
C276 C270 1.368 . S
C276 C275 1.523 . S
C277 C261 1.429 . S
C277 C273 1.429 . S
C277 C278 1.523 . S
C278 C262 1.368 . S
C278 C274 1.368 . S
C278 C277 1.523 . S
H279 C254 0.950 . S
H280 C256 0.950 . S
H281 C257 0.949 . S
H282 C259 0.950 . S
H283 C261 0.950 . S
C284 C285 1.349 . S
C284 C286 1.327 . S
C284 H309 0.950 . S
C285 C284 1.349 . S
C285 C301 1.349 . S
C286 C284 1.327 . S
C286 C305 1.429 . S
C286 H310 0.950 . S
C287 C304 1.574 . S
C287 C306 1.368 1_556 S
C287 H311 0.949 . S
H288 C292 0.949 . S
C289 C290 1.349 . S
C289 C291 1.327 . S
C289 H312 0.950 . S
C290 C289 1.349 . S
C290 C302 1.349 . S
C291 C289 1.327 . S
C291 C307 1.429 . S
C291 H313 0.950 . S
C292 H288 0.949 . S
C292 C300 1.574 . S
C292 C308 1.368 1_554 S
H293 C301 0.950 . S
H294 C299 0.950 . S
H295 C300 0.949 . S
H296 C302 0.950 . S
H297 C303 0.950 . S
H298 C304 0.949 . S
C299 H294 0.950 . S
C299 C301 1.327 . S
C299 C305 1.429 . S
C300 C292 1.574 . S
C300 H295 0.949 . S
C300 C306 1.368 . S
C301 C285 1.349 . S
C301 H293 0.950 . S
C301 C299 1.327 . S
C302 C290 1.349 . S
C302 H296 0.950 . S
C302 C303 1.327 . S
C303 H297 0.950 . S
C303 C302 1.327 . S
C303 C307 1.429 . S
C304 C287 1.574 . S
C304 H298 0.949 . S
C304 C308 1.368 . S
C305 C286 1.429 . S
C305 C299 1.429 . S
C305 C306 1.523 . S
C306 C287 1.368 1_554 S
C306 C300 1.368 . S
C306 C305 1.523 . S
C307 C291 1.429 . S
C307 C303 1.429 . S
C307 C308 1.523 . S
C308 C292 1.368 1_556 S
C308 C304 1.368 . S
C308 C307 1.523 . S
H309 C284 0.950 . S
H310 C286 0.950 . S
H311 C287 0.949 . S
H312 C289 0.950 . S
H313 C291 0.950 . S
C314 C315 1.349 . S
C314 C316 1.327 . S
C314 H339 0.950 . S
C315 C314 1.349 . S
C315 C331 1.349 1_554 S
C316 C314 1.327 . S
C316 C335 1.429 . S
C316 H340 0.950 . S
C317 C334 1.574 . S
C317 C336 1.368 . S
C317 H341 0.949 . S
H318 C322 0.949 . S
C319 C320 1.349 . S
C319 C321 1.327 . S
C319 H342 0.950 . S
C320 C319 1.349 . S
C320 C332 1.349 . S
C321 C319 1.327 . S
C321 C337 1.429 . S
C321 H343 0.950 . S
C322 H318 0.949 . S
C322 C330 1.574 . S
C322 C338 1.368 . S
H323 C331 0.950 . S
H324 C329 0.950 . S
H325 C330 0.949 . S
H326 C332 0.950 . S
H327 C333 0.950 . S
H328 C334 0.949 . S
C329 H324 0.950 . S
C329 C331 1.327 1_554 S
C329 C335 1.429 . S
C330 C322 1.574 . S
C330 H325 0.949 . S
C330 C336 1.368 . S
C331 C315 1.349 1_556 S
C331 H323 0.950 . S
C331 C329 1.327 1_556 S
C332 C320 1.349 . S
C332 H326 0.950 . S
C332 C333 1.327 . S
C333 H327 0.950 . S
C333 C332 1.327 . S
C333 C337 1.429 . S
C334 C317 1.574 . S
C334 H328 0.949 . S
C334 C338 1.368 . S
C335 C316 1.429 . S
C335 C329 1.429 . S
C335 C336 1.523 . S
C336 C317 1.368 . S
C336 C330 1.368 . S
C336 C335 1.523 . S
C337 C321 1.429 . S
C337 C333 1.429 . S
C337 C338 1.523 . S
C338 C322 1.368 . S
C338 C334 1.368 . S
C338 C337 1.523 . S
H339 C314 0.950 . S
H340 C316 0.950 . S
H341 C317 0.949 . S
H342 C319 0.950 . S
H343 C321 0.950 . S
C344 C345 1.349 . S
C344 C346 1.327 . S
C344 H369 0.950 . S
C345 C344 1.349 . S
C345 C361 1.349 . S
C346 C344 1.327 . S
C346 C365 1.429 . S
C346 H370 0.950 . S
C347 C364 1.574 . S
C347 C366 1.368 . S
C347 H371 0.949 . S
H348 C352 0.949 . S
C349 C350 1.349 . S
C349 C351 1.327 . S
C349 H372 0.950 . S
C350 C349 1.349 . S
C350 C362 1.349 . S
C351 C349 1.327 . S
C351 C367 1.429 . S
C351 H373 0.950 . S
C352 H348 0.949 . S
C352 C360 1.574 . S
C352 C368 1.368 . S
H353 C361 0.950 . S
H354 C359 0.950 . S
H355 C360 0.949 . S
H356 C362 0.950 . S
H357 C363 0.950 . S
H358 C364 0.949 . S
C359 H354 0.950 . S
C359 C361 1.327 . S
C359 C365 1.429 . S
C360 C352 1.574 . S
C360 H355 0.949 . S
C360 C366 1.368 . S
C361 C345 1.349 . S
C361 H353 0.950 . S
C361 C359 1.327 . S
C362 C350 1.349 . S
C362 H356 0.950 . S
C362 C363 1.327 . S
C363 H357 0.950 . S
C363 C362 1.327 . S
C363 C367 1.429 . S
C364 C347 1.574 . S
C364 H358 0.949 . S
C364 C368 1.368 . S
C365 C346 1.429 . S
C365 C359 1.429 . S
C365 C366 1.523 . S
C366 C347 1.368 . S
C366 C360 1.368 . S
C366 C365 1.523 . S
C367 C351 1.429 . S
C367 C363 1.429 . S
C367 C368 1.523 . S
C368 C352 1.368 . S
C368 C364 1.368 . S
C368 C367 1.523 . S
H369 C344 0.950 . S
H370 C346 0.950 . S
H371 C347 0.949 . S
H372 C349 0.950 . S
H373 C351 0.950 . S
C374 C375 1.349 . S
C374 C376 1.327 . S
C374 H399 0.950 . S
C375 C374 1.349 . S
C375 C391 1.349 . S
C376 C374 1.327 . S
C376 C395 1.429 . S
C376 H400 0.950 . S
C377 C394 1.574 . S
C377 C396 1.368 . S
C377 H401 0.949 . S
H378 C382 0.949 . S
C379 C380 1.349 . S
C379 C381 1.327 . S
C379 H402 0.950 . S
C380 C379 1.349 . S
C380 C392 1.349 . S
C381 C379 1.327 . S
C381 C397 1.429 . S
C381 H403 0.950 . S
C382 H378 0.949 . S
C382 C390 1.574 . S
C382 C398 1.368 . S
H383 C391 0.950 . S
H384 C389 0.950 . S
H385 C390 0.949 . S
H386 C392 0.950 . S
H387 C393 0.950 . S
H388 C394 0.949 . S
C389 H384 0.950 . S
C389 C391 1.327 . S
C389 C395 1.429 . S
C390 C382 1.574 . S
C390 H385 0.949 . S
C390 C396 1.368 . S
C391 C375 1.349 . S
C391 H383 0.950 . S
C391 C389 1.327 . S
C392 C380 1.349 . S
C392 H386 0.950 . S
C392 C393 1.327 . S
C393 H387 0.950 . S
C393 C392 1.327 . S
C393 C397 1.429 . S
C394 C377 1.574 . S
C394 H388 0.949 . S
C394 C398 1.368 . S
C395 C376 1.429 . S
C395 C389 1.429 . S
C395 C396 1.523 . S
C396 C377 1.368 . S
C396 C390 1.368 . S
C396 C395 1.523 . S
C397 C381 1.429 . S
C397 C393 1.429 . S
C397 C398 1.523 . S
C398 C382 1.368 . S
C398 C394 1.368 . S
C398 C397 1.523 . S
H399 C374 0.950 . S
H400 C376 0.950 . S
H401 C377 0.949 . S
H402 C379 0.950 . S
H403 C381 0.950 . S
C404 C405 1.349 . S
C404 C406 1.327 1_554 S
C404 H429 0.950 1_554 S
C405 C404 1.349 . S
C405 C421 1.349 . S
C406 C404 1.327 1_556 S
C406 C425 1.429 1_556 S
C406 H430 0.950 . S
C407 C424 1.574 . S
C407 C426 1.368 . S
C407 H431 0.949 . S
H408 C412 0.949 . S
C409 C410 1.356 . S
C409 C411 1.325 1_556 S
C409 H432 0.944 1_556 S
C410 C409 1.356 . S
C410 C422 1.349 . S
C411 C409 1.325 1_554 S
C411 C427 1.429 1_554 S
C411 H433 0.950 . S
C412 H408 0.949 . S
C412 C420 1.574 . S
C412 C428 1.368 . S
H413 C421 0.950 . S
H414 C419 0.950 . S
H415 C420 0.949 . S
H416 C422 0.950 . S
H417 C423 0.950 . S
H418 C424 0.949 . S
C419 H414 0.950 . S
C419 C421 1.327 . S
C419 C425 1.429 . S
C420 C412 1.574 . S
C420 H415 0.949 . S
C420 C426 1.368 1_556 S
C421 C405 1.349 . S
C421 H413 0.950 . S
C421 C419 1.327 . S
C422 C410 1.349 . S
C422 H416 0.950 . S
C422 C423 1.327 . S
C423 H417 0.950 . S
C423 C422 1.327 . S
C423 C427 1.429 . S
C424 C407 1.574 . S
C424 H418 0.949 . S
C424 C428 1.368 1_554 S
C425 C406 1.429 1_554 S
C425 C419 1.429 . S
C425 C426 1.523 . S
C426 C407 1.368 . S
C426 C420 1.368 1_554 S
C426 C425 1.523 . S
C427 C411 1.429 1_556 S
C427 C423 1.429 . S
C427 C428 1.523 . S
C428 C412 1.368 . S
C428 C424 1.368 1_556 S
C428 C427 1.523 . S
H429 C404 0.950 1_556 S
H430 C406 0.950 . S
H431 C407 0.949 . S
H432 C409 0.944 1_554 S
H433 C411 0.950 . S
C434 C435 1.349 . S
C434 C436 1.327 . S
C434 H459 0.950 . S
C435 C434 1.349 . S
C435 C451 1.349 . S
C436 C434 1.327 . S
C436 C455 1.429 . S
C436 H460 0.950 . S
C437 C454 1.574 . S
C437 C456 1.368 . S
C437 H461 0.949 . S
H438 C442 0.949 . S
C439 C440 1.349 . S
C439 C441 1.327 . S
C439 H462 0.950 . S
C440 C439 1.349 . S
C440 C452 1.349 . S
C441 C439 1.327 . S
C441 C457 1.429 . S
C441 H463 0.950 . S
C442 H438 0.949 . S
C442 C450 1.574 . S
C442 C458 1.368 . S
H443 C451 0.950 . S
H444 C449 0.950 . S
H445 C450 0.949 . S
H446 C452 0.950 . S
H447 C453 0.950 . S
H448 C454 0.949 . S
C449 H444 0.950 . S
C449 C451 1.327 . S
C449 C455 1.429 . S
C450 C442 1.574 . S
C450 H445 0.949 . S
C450 C456 1.368 . S
C451 C435 1.349 . S
C451 H443 0.950 . S
C451 C449 1.327 . S
C452 C440 1.349 . S
C452 H446 0.950 . S
C452 C453 1.327 . S
C453 H447 0.950 . S
C453 C452 1.327 . S
C453 C457 1.429 . S
C454 C437 1.574 . S
C454 H448 0.949 . S
C454 C458 1.368 . S
C455 C436 1.429 . S
C455 C449 1.429 . S
C455 C456 1.523 . S
C456 C437 1.368 . S
C456 C450 1.368 . S
C456 C455 1.523 . S
C457 C441 1.429 . S
C457 C453 1.429 . S
C457 C458 1.523 . S
C458 C442 1.368 . S
C458 C454 1.368 . S
C458 C457 1.523 . S
H459 C434 0.950 . S
H460 C436 0.950 . S
H461 C437 0.949 . S
H462 C439 0.950 . S
H463 C441 0.950 . S
C464 C465 1.349 . S
C464 C466 1.327 . S
C464 H489 0.950 . S
C465 C464 1.349 . S
C465 C481 1.349 . S
C466 C464 1.327 . S
C466 C485 1.429 . S
C466 H490 0.950 . S
C467 C484 1.574 . S
C467 C486 1.368 . S
C467 H491 0.949 . S
H468 C472 0.949 . S
C469 C470 1.349 . S
C469 C471 1.327 . S
C469 H492 0.950 . S
C470 C469 1.349 . S
C470 C482 1.349 . S
C471 C469 1.327 . S
C471 C487 1.429 . S
C471 H493 0.950 . S
C472 H468 0.949 . S
C472 C480 1.574 . S
C472 C488 1.368 . S
H473 C481 0.950 . S
H474 C479 0.950 . S
H475 C480 0.949 . S
H476 C482 0.950 . S
H477 C483 0.950 . S
H478 C484 0.949 . S
C479 H474 0.950 . S
C479 C481 1.327 . S
C479 C485 1.429 . S
C480 C472 1.574 . S
C480 H475 0.949 . S
C480 C486 1.368 . S
C481 C465 1.349 . S
C481 H473 0.950 . S
C481 C479 1.327 . S
C482 C470 1.349 . S
C482 H476 0.950 . S
C482 C483 1.327 . S
C483 H477 0.950 . S
C483 C482 1.327 . S
C483 C487 1.429 . S
C484 C467 1.574 . S
C484 H478 0.949 . S
C484 C488 1.368 . S
C485 C466 1.429 . S
C485 C479 1.429 . S
C485 C486 1.523 . S
C486 C467 1.368 . S
C486 C480 1.368 . S
C486 C485 1.523 . S
C487 C471 1.429 . S
C487 C483 1.429 . S
C487 C488 1.523 . S
C488 C472 1.368 . S
C488 C484 1.368 . S
C488 C487 1.523 . S
H489 C464 0.950 . S
H490 C466 0.950 . S
H491 C467 0.949 . S
H492 C469 0.950 . S
H493 C471 0.950 . S
C494 C495 1.349 . S
C494 C496 1.327 . S
C494 H519 0.950 . S
C495 C494 1.349 . S
C495 C511 1.349 1_556 S
C496 C494 1.327 . S
C496 C515 1.429 . S
C496 H520 0.950 . S
C497 C514 1.574 . S
C497 C516 1.368 1_554 S
C497 H521 0.949 . S
H498 C502 0.949 . S
C499 C500 1.349 . S
C499 C501 1.327 . S
C499 H522 0.950 . S
C500 C499 1.349 . S
C500 C512 1.349 1_554 S
C501 C499 1.327 . S
C501 C517 1.429 . S
C501 H523 0.950 . S
C502 H498 0.949 . S
C502 C510 1.574 . S
C502 C518 1.368 1_556 S
H503 C511 0.950 . S
H504 C509 0.950 . S
H505 C510 0.949 . S
H506 C512 0.950 . S
H507 C513 0.950 . S
H508 C514 0.949 . S
C509 H504 0.950 . S
C509 C511 1.327 . S
C509 C515 1.429 1_554 S
C510 C502 1.574 . S
C510 H505 0.949 . S
C510 C516 1.368 . S
C511 C495 1.349 1_554 S
C511 H503 0.950 . S
C511 C509 1.327 . S
C512 C500 1.349 1_556 S
C512 H506 0.950 . S
C512 C513 1.327 . S
C513 H507 0.950 . S
C513 C512 1.327 . S
C513 C517 1.429 1_556 S
C514 C497 1.574 . S
C514 H508 0.949 . S
C514 C518 1.368 . S
C515 C496 1.429 . S
C515 C509 1.429 1_556 S
C515 C516 1.523 . S
C516 C497 1.368 1_556 S
C516 C510 1.368 . S
C516 C515 1.523 . S
C517 C501 1.429 . S
C517 C513 1.429 1_554 S
C517 C518 1.523 . S
C518 C502 1.368 1_554 S
C518 C514 1.368 . S
C518 C517 1.523 . S
H519 C494 0.950 . S
H520 C496 0.950 . S
H521 C497 0.949 . S
H522 C499 0.950 . S
H523 C501 0.950 . S
C524 C525 1.349 . S
C524 C526 1.327 . S
C524 H549 0.950 . S
C525 C524 1.349 . S
C525 C541 1.349 . S
C526 C524 1.327 . S
C526 C545 1.429 . S
C526 H550 0.950 . S
C527 C544 1.574 . S
C527 C546 1.368 . S
C527 H551 0.949 . S
H528 C532 0.949 . S
C529 C530 1.349 . S
C529 C531 1.327 . S
C529 H552 0.950 . S
C530 C529 1.349 . S
C530 C542 1.349 . S
C531 C529 1.327 . S
C531 C547 1.429 . S
C531 H553 0.950 . S
C532 H528 0.949 . S
C532 C540 1.574 . S
C532 C548 1.368 . S
H533 C541 0.950 . S
H534 C539 0.950 . S
H535 C540 0.949 . S
H536 C542 0.950 . S
H537 C543 0.950 . S
H538 C544 0.949 . S
C539 H534 0.950 . S
C539 C541 1.327 . S
C539 C545 1.429 . S
C540 C532 1.574 . S
C540 H535 0.949 . S
C540 C546 1.368 . S
C541 C525 1.349 . S
C541 H533 0.950 . S
C541 C539 1.327 . S
C542 C530 1.349 . S
C542 H536 0.950 . S
C542 C543 1.327 . S
C543 H537 0.950 . S
C543 C542 1.327 . S
C543 C547 1.429 . S
C544 C527 1.574 . S
C544 H538 0.949 . S
C544 C548 1.368 . S
C545 C526 1.429 . S
C545 C539 1.429 . S
C545 C546 1.523 . S
C546 C527 1.368 . S
C546 C540 1.368 . S
C546 C545 1.523 . S
C547 C531 1.429 . S
C547 C543 1.429 . S
C547 C548 1.523 . S
C548 C532 1.368 . S
C548 C544 1.368 . S
C548 C547 1.523 . S
H549 C524 0.950 . S
H550 C526 0.950 . S
H551 C527 0.949 . S
H552 C529 0.950 . S
H553 C531 0.950 . S
C554 C555 1.349 . S
C554 C556 1.327 . S
C554 H579 0.950 . S
C555 C554 1.349 . S
C555 C571 1.349 . S
C556 C554 1.327 . S
C556 C575 1.429 . S
C556 H580 0.950 . S
C557 C574 1.574 . S
C557 C576 1.368 . S
C557 H581 0.949 . S
H558 C562 0.949 . S
C559 C560 1.349 . S
C559 C561 1.327 . S
C559 H582 0.950 . S
C560 C559 1.349 . S
C560 C572 1.349 . S
C561 C559 1.327 . S
C561 C577 1.429 . S
C561 H583 0.950 . S
C562 H558 0.949 . S
C562 C570 1.574 . S
C562 C578 1.368 . S
H563 C571 0.950 . S
H564 C569 0.950 . S
H565 C570 0.949 . S
H566 C572 0.950 . S
H567 C573 0.950 . S
H568 C574 0.949 . S
C569 H564 0.950 . S
C569 C571 1.327 . S
C569 C575 1.429 . S
C570 C562 1.574 . S
C570 H565 0.949 . S
C570 C576 1.368 . S
C571 C555 1.349 . S
C571 H563 0.950 . S
C571 C569 1.327 . S
C572 C560 1.349 . S
C572 H566 0.950 . S
C572 C573 1.327 . S
C573 H567 0.950 . S
C573 C572 1.327 . S
C573 C577 1.429 . S
C574 C557 1.574 . S
C574 H568 0.949 . S
C574 C578 1.368 . S
C575 C556 1.429 . S
C575 C569 1.429 . S
C575 C576 1.523 . S
C576 C557 1.368 . S
C576 C570 1.368 . S
C576 C575 1.523 . S
C577 C561 1.429 . S
C577 C573 1.429 . S
C577 C578 1.523 . S
C578 C562 1.368 . S
C578 C574 1.368 . S
C578 C577 1.523 . S
H579 C554 0.950 . S
H580 C556 0.950 . S
H581 C557 0.949 . S
H582 C559 0.950 . S
H583 C561 0.950 . S
C105 C23 1.466 . S
C110 C10 1.466 . S
C135 C18 1.466 . S
C140 C36 1.466 1_554 S
C165 C42 1.466 . S
C170 C31 1.466 . S
C195 C43 1.466 1_556 S
C200 C5 1.466 . S
C225 C62 1.466 . S
C230 C75 1.466 . S
C255 C70 1.466 1_556 S
C260 C88 1.466 . S
C285 C83 1.466 . S
C290 C94 1.466 . S
C315 C57 1.466 1_554 S
C320 C95 1.466 . S
C345 C4 1.509 . S
C350 C96 1.507 . S
C375 C55 1.515 . S
C380 C16 1.515 . S
C405 C69 1.509 . S
C410 C29 1.507 . S
C435 C49 1.500 . S
C440 C82 1.500 . S
C465 C30 1.500 . S
C470 C101 1.500 . S
C495 C56 1.509 . S
C500 C44 1.507 . S
C525 C68 1.515 . S
C530 C3 1.515 . S
C555 C17 1.509 . S
C560 C81 1.507 . S
