# Generated by pormake.
# Topology atn, (4)-cn, num edge types: 1
# Building blocks:
#     Node 0, Type 0, BuildingBlock: QUQFOY_clean_sbu_3, # of connection points: 4
#     Node 1, Type 0, BuildingBlock: QUQFOY_clean_sbu_3, # of connection points: 4
#     Node 2, Type 0, BuildingBlock: QUQFOY_clean_sbu_3, # of connection points: 4
#     Node 3, Type 0, BuildingBlock: QUQFOY_clean_sbu_3, # of connection points: 4
#     Node 4, Type 0, BuildingBlock: QUQFOY_clean_sbu_3, # of connection points: 4
#     Node 5, Type 0, BuildingBlock: QUQFOY_clean_sbu_3, # of connection points: 4
#     Node 6, Type 0, BuildingBlock: QUQFOY_clean_sbu_3, # of connection points: 4
#     Node 7, Type 0, BuildingBlock: QUQFOY_clean_sbu_3, # of connection points: 4
#     Node 8, Type 0, BuildingBlock: QUQFOY_clean_sbu_3, # of connection points: 4
#     Node 9, Type 0, BuildingBlock: QUQFOY_clean_sbu_3, # of connection points: 4
#     Node 10, Type 0, BuildingBlock: QUQFOY_clean_sbu_3, # of connection points: 4
#     Node 11, Type 0, BuildingBlock: QUQFOY_clean_sbu_3, # of connection points: 4
#     Node 12, Type 0, BuildingBlock: QUQFOY_clean_sbu_3, # of connection points: 4
#     Node 13, Type 0, BuildingBlock: QUQFOY_clean_sbu_3, # of connection points: 4
#     Node 14, Type 0, BuildingBlock: QUQFOY_clean_sbu_3, # of connection points: 4
#     Node 15, Type 0, BuildingBlock: QUQFOY_clean_sbu_3, # of connection points: 4
#     Edge 16, Type (0, 0), BuildingBlock: OJICUG_clean_linker_0, # of connection points: 2
#     Edge 17, Type (0, 0), BuildingBlock: OJICUG_clean_linker_0, # of connection points: 2
#     Edge 18, Type (0, 0), BuildingBlock: OJICUG_clean_linker_0, # of connection points: 2
#     Edge 19, Type (0, 0), BuildingBlock: OJICUG_clean_linker_0, # of connection points: 2
#     Edge 20, Type (0, 0), BuildingBlock: OJICUG_clean_linker_0, # of connection points: 2
#     Edge 21, Type (0, 0), BuildingBlock: OJICUG_clean_linker_0, # of connection points: 2
#     Edge 22, Type (0, 0), BuildingBlock: OJICUG_clean_linker_0, # of connection points: 2
#     Edge 23, Type (0, 0), BuildingBlock: OJICUG_clean_linker_0, # of connection points: 2
#     Edge 24, Type (0, 0), BuildingBlock: OJICUG_clean_linker_0, # of connection points: 2
#     Edge 25, Type (0, 0), BuildingBlock: OJICUG_clean_linker_0, # of connection points: 2
#     Edge 26, Type (0, 0), BuildingBlock: OJICUG_clean_linker_0, # of connection points: 2
#     Edge 27, Type (0, 0), BuildingBlock: OJICUG_clean_linker_0, # of connection points: 2
#     Edge 28, Type (0, 0), BuildingBlock: OJICUG_clean_linker_0, # of connection points: 2
#     Edge 29, Type (0, 0), BuildingBlock: OJICUG_clean_linker_0, # of connection points: 2
#     Edge 30, Type (0, 0), BuildingBlock: OJICUG_clean_linker_0, # of connection points: 2
#     Edge 31, Type (0, 0), BuildingBlock: OJICUG_clean_linker_0, # of connection points: 2
#     Edge 32, Type (0, 0), BuildingBlock: OJICUG_clean_linker_0, # of connection points: 2
#     Edge 33, Type (0, 0), BuildingBlock: OJICUG_clean_linker_0, # of connection points: 2
#     Edge 34, Type (0, 0), BuildingBlock: OJICUG_clean_linker_0, # of connection points: 2
#     Edge 35, Type (0, 0), BuildingBlock: OJICUG_clean_linker_0, # of connection points: 2
#     Edge 36, Type (0, 0), BuildingBlock: OJICUG_clean_linker_0, # of connection points: 2
#     Edge 37, Type (0, 0), BuildingBlock: OJICUG_clean_linker_0, # of connection points: 2
#     Edge 38, Type (0, 0), BuildingBlock: OJICUG_clean_linker_0, # of connection points: 2
#     Edge 39, Type (0, 0), BuildingBlock: OJICUG_clean_linker_0, # of connection points: 2
#     Edge 40, Type (0, 0), BuildingBlock: OJICUG_clean_linker_0, # of connection points: 2
#     Edge 41, Type (0, 0), BuildingBlock: OJICUG_clean_linker_0, # of connection points: 2
#     Edge 42, Type (0, 0), BuildingBlock: OJICUG_clean_linker_0, # of connection points: 2
#     Edge 43, Type (0, 0), BuildingBlock: OJICUG_clean_linker_0, # of connection points: 2
#     Edge 44, Type (0, 0), BuildingBlock: OJICUG_clean_linker_0, # of connection points: 2
#     Edge 45, Type (0, 0), BuildingBlock: OJICUG_clean_linker_0, # of connection points: 2
#     Edge 46, Type (0, 0), BuildingBlock: OJICUG_clean_linker_0, # of connection points: 2
#     Edge 47, Type (0, 0), BuildingBlock: OJICUG_clean_linker_0, # of connection points: 2
# Relax obj value: 0.028
# Max RMSD: 0.059
# Mean RMSD: 0.059
data_MOF--net-atn--node1-QUQFOY_clean_sbu_3--edge1-OJICUG_clean_linker_0
_symmetry_space_group_name_H-M    P1
_symmetry_Int_Tables_number       1
_symmetry_cell_setting            triclinic
loop_
_symmetry_equiv_pos_as_xyz
'x, y, z'
_cell_length_a     47.356621
_cell_length_b     46.750551
_cell_length_c     21.150964
_cell_angle_alpha  89.903068
_cell_angle_beta   90.076532
_cell_angle_gamma 90.177246
loop_
_atom_site_label
_atom_site_type_symbol
_atom_site_fract_x
_atom_site_fract_y
_atom_site_fract_z
_atom_type_partial_charge
C0 C 0.12921 0.32783 0.88064 0.0
O1 O 0.11643 0.30939 0.91435 0.0
Cd2 Cd 0.12787 0.30092 0.02313 0.0
O3 O 0.14703 0.34495 0.9055 0.0
Cd4 Cd 0.16654 0.35831 0.01042 0.0
C5 C 0.20107 0.29595 0.00687 0.0
O6 O 0.12675 0.34521 0.07682 0.0
O7 O 0.16602 0.35393 0.12532 0.0
O8 O 0.15085 0.40588 -0.00913 0.0
C9 C 0.14006 0.3474 0.12865 0.0
O10 O 0.17662 0.28537 0.01667 0.0
C11 C 0.17435 0.41828 4e-05 0.0
O12 O 0.20452 0.32287 0.00039 0.0
O13 O 0.19557 0.40243 0.01146 0.0
C14 C 0.61973 0.14322 0.87988 0.0
O15 O 0.63696 0.12899 0.91347 0.0
Cd16 Cd 0.64796 0.14078 0.0207 0.0
O17 O 0.60501 0.16313 0.9043 0.0
Cd18 Cd 0.59505 0.18516 0.00868 0.0
C19 C 0.65964 0.21414 0.00066 0.0
O20 O 0.60498 0.14456 0.07616 0.0
O21 O 0.60108 0.18536 0.12323 0.0
O22 O 0.5469 0.17203 -0.00223 0.0
C23 C 0.60481 0.15857 0.12739 0.0
O24 O 0.66764 0.18852 0.01057 0.0
C25 C 0.53644 0.19677 0.00422 0.0
O26 O 0.63348 0.22025 -0.00417 0.0
O27 O 0.5536 0.21768 0.00905 0.0
C28 C 0.82015 0.63424 0.88427 0.0
O29 O 0.83309 0.6525 0.9181 0.0
Cd30 Cd 0.82147 0.66094 0.02667 0.0
O31 O 0.80212 0.61728 0.90894 0.0
Cd32 Cd 0.7823 0.60368 0.01335 0.0
C33 C 0.74821 0.66623 0.0091 0.0
O34 O 0.82199 0.61654 0.08007 0.0
O35 O 0.78271 0.6078 0.12833 0.0
O36 O 0.79851 0.55643 -0.00656 0.0
C37 C 0.80867 0.61434 0.13181 0.0
O38 O 0.77276 0.67652 0.01912 0.0
C39 C 0.77518 0.54369 0.00228 0.0
O40 O 0.74446 0.63935 0.00273 0.0
O41 O 0.75373 0.55921 0.01362 0.0
C42 C 0.3279 0.82024 0.88149 0.0
O43 O 0.31083 0.83448 0.91525 0.0
Cd44 Cd 0.30149 0.82342 0.0238 0.0
O45 O 0.34326 0.80085 0.90618 0.0
Cd46 Cd 0.35505 0.7799 0.01086 0.0
C47 C 0.29096 0.74966 0.00751 0.0
O48 O 0.34519 0.82091 0.07704 0.0
O49 O 0.35071 0.78066 0.12581 0.0
O50 O 0.40247 0.79411 -0.00727 0.0
C51 C 0.34632 0.80737 0.12894 0.0
O52 O 0.28273 0.77521 0.01715 0.0
C53 C 0.41387 0.76996 0.0018 0.0
O54 O 0.31714 0.74397 0.0009 0.0
O55 O 0.3975 0.74877 0.01173 0.0
C56 C 0.12996 0.63321 0.11012 0.0
O57 O 0.11712 0.65116 0.07535 0.0
Cd58 Cd 0.12892 0.65874 0.96627 0.0
O59 O 0.14812 0.61624 0.08653 0.0
Cd60 Cd 0.16921 0.60131 -0.01526 0.0
C61 C 0.20233 0.66478 -0.01452 0.0
O62 O 0.13002 0.61355 0.91712 0.0
O63 O 0.1689 0.60318 0.86933 0.0
O64 O 0.15298 0.55464 0.01157 0.0
C65 C 0.14324 0.61064 0.86549 0.0
O66 O 0.1777 0.67449 -0.02584 0.0
C67 C 0.17605 0.54161 0.00228 0.0
O68 O 0.20638 0.63807 -0.00596 0.0
O69 O 0.19739 0.55679 -0.01277 0.0
C70 C 0.32844 0.14495 0.11076 0.0
O71 O 0.31218 0.13002 0.07609 0.0
Cd72 Cd 0.30457 0.14093 0.96634 0.0
O73 O 0.34358 0.16477 0.08678 0.0
Cd74 Cd 0.35749 0.18719 -0.01477 0.0
C75 C 0.29221 0.21454 -0.01597 0.0
O76 O 0.3495 0.14587 0.91934 0.0
O77 O 0.35771 0.18534 0.86963 0.0
O78 O 0.40317 0.1753 0.02291 0.0
C79 C 0.35213 0.15883 0.86701 0.0
O80 O 0.2849 0.18875 0.97302 0.0
C81 C 0.4153 0.19873 0.00936 0.0
O82 O 0.31808 0.2212 -0.00706 0.0
O83 O 0.39996 0.21845 -0.01399 0.0
C84 C 0.82139 0.32799 0.11006 0.0
O85 O 0.83398 0.3099 0.07537 0.0
Cd86 Cd 0.82303 0.30322 0.96543 0.0
O87 O 0.80366 0.34543 0.08623 0.0
Cd88 Cd 0.78317 0.36087 -0.01597 0.0
C89 C 0.74954 0.29758 -0.01987 0.0
O90 O 0.82278 0.34884 0.91761 0.0
O91 O 0.78436 0.36004 0.86864 0.0
O92 O 0.7987 0.40764 0.01213 0.0
C93 C 0.80995 0.35232 0.86555 0.0
O94 O 0.7741 0.28764 0.96935 0.0
C95 C 0.77547 0.42036 0.00253 0.0
O96 O 0.74584 0.32422 -0.00969 0.0
O97 O 0.75442 0.40496 -0.01342 0.0
C98 C 0.62347 0.81928 0.11168 0.0
O99 O 0.64 0.83395 0.07709 0.0
Cd100 Cd 0.64766 0.82307 0.96756 0.0
O101 O 0.60796 0.7998 0.08764 0.0
Cd102 Cd 0.59384 0.77816 -0.01454 0.0
C103 C 0.65838 0.74916 -0.0147 0.0
O104 O 0.60295 0.81919 0.91906 0.0
O105 O 0.59477 0.7796 0.86993 0.0
O106 O 0.54801 0.79194 0.01813 0.0
C107 C 0.6005 0.80608 0.86694 0.0
O108 O 0.66621 0.77482 -0.02558 0.0
C109 C 0.53546 0.76857 0.00618 0.0
O110 O 0.63237 0.74303 -0.00606 0.0
O111 O 0.55062 0.74794 -0.01339 0.0
C112 C 0.63118 0.82803 0.38343 0.0
O113 O 0.61815 0.80991 0.4175 0.0
Cd114 Cd 0.6293 0.80212 0.52675 0.0
O115 O 0.64907 0.84515 0.40803 0.0
Cd116 Cd 0.66856 0.85938 0.51232 0.0
C117 C 0.70265 0.79679 0.5112 0.0
O118 O 0.62862 0.84684 0.5785 0.0
O119 O 0.66764 0.8561 0.62745 0.0
O120 O 0.65243 0.90634 0.48842 0.0
C121 C 0.64171 0.8494 0.63051 0.0
O122 O 0.67807 0.78657 0.52119 0.0
C123 C 0.67556 0.9193 0.49852 0.0
O124 O 0.7064 0.82362 0.50359 0.0
O125 O 0.69687 0.90401 0.51258 0.0
C126 C 0.12244 0.64266 0.38139 0.0
O127 O 0.13965 0.62852 0.41522 0.0
Cd128 Cd 0.14958 0.64012 0.52314 0.0
O129 O 0.10722 0.66217 0.40583 0.0
Cd130 Cd 0.09587 0.68349 0.51019 0.0
C131 C 0.15985 0.71383 0.50427 0.0
O132 O 0.10612 0.64274 0.57709 0.0
O133 O 0.10081 0.68313 0.62507 0.0
O134 O 0.04835 0.66916 0.49358 0.0
C135 C 0.10522 0.65643 0.62869 0.0
O136 O 0.16821 0.68833 0.51423 0.0
C137 C 0.03699 0.69336 0.50213 0.0
O138 O 0.13362 0.71948 0.4986 0.0
O139 O 0.05341 0.7146 0.51102 0.0
C140 C 0.32131 0.1359 0.38256 0.0
O141 O 0.3341 0.15429 0.41633 0.0
Cd142 Cd 0.323 0.16229 0.52538 0.0
O143 O 0.30362 0.11865 0.40741 0.0
Cd144 Cd 0.28437 0.10495 0.51234 0.0
C145 C 0.24976 0.1673 0.51008 0.0
O146 O 0.32434 0.11781 0.57863 0.0
O147 O 0.28521 0.10888 0.6273 0.0
O148 O 0.30002 0.05745 0.4922 0.0
C149 C 0.31117 0.11541 0.63054 0.0
O150 O 0.27422 0.17785 0.51991 0.0
C151 C 0.27653 0.04502 0.50128 0.0
O152 O 0.24634 0.14042 0.50297 0.0
O153 O 0.25534 0.06082 0.51297 0.0
C154 C 0.82914 0.31868 0.3816 0.0
O155 O 0.81229 0.33321 0.41532 0.0
Cd156 Cd 0.80285 0.32275 0.52412 0.0
O157 O 0.84423 0.29909 0.40638 0.0
Cd158 Cd 0.85544 0.27826 0.51148 0.0
C159 C 0.79075 0.24924 0.50977 0.0
O160 O 0.84647 0.31955 0.57754 0.0
O161 O 0.85086 0.27914 0.62628 0.0
O162 O 0.90327 0.29146 0.49588 0.0
C163 C 0.84724 0.30597 0.62942 0.0
O164 O 0.78299 0.27496 0.51917 0.0
C165 C 0.91403 0.26694 0.50409 0.0
O166 O 0.81678 0.2431 0.50252 0.0
O167 O 0.89712 0.24602 0.51209 0.0
C168 C 0.62738 0.13378 0.60894 0.0
O169 O 0.61506 0.15212 0.57426 0.0
Cd170 Cd 0.62766 0.16029 0.4659 0.0
O171 O 0.64556 0.11675 0.58557 0.0
Cd172 Cd 0.66739 0.10242 0.48411 0.0
C173 C 0.70091 0.16572 0.48751 0.0
O174 O 0.62868 0.11529 0.4158 0.0
O175 O 0.66776 0.10494 0.36875 0.0
O176 O 0.65135 0.05524 0.50722 0.0
C177 C 0.64215 0.11255 0.36446 0.0
O178 O 0.67646 0.17579 0.47585 0.0
C179 C 0.67478 0.04267 0.49941 0.0
O180 O 0.70465 0.13891 0.49516 0.0
O181 O 0.69613 0.05831 0.48699 0.0
C182 C 0.82779 0.64311 0.61267 0.0
O183 O 0.81114 0.62858 0.57808 0.0
Cd184 Cd 0.80308 0.64002 0.46888 0.0
O185 O 0.8432 0.66272 0.58872 0.0
Cd186 Cd 0.85705 0.68495 0.48689 0.0
C187 C 0.79247 0.71386 0.48827 0.0
O188 O 0.8477 0.64416 0.42034 0.0
O189 O 0.85594 0.68383 0.37132 0.0
O190 O 0.90297 0.67122 0.51958 0.0
C191 C 0.85007 0.65739 0.36827 0.0
O192 O 0.78459 0.68824 0.47721 0.0
C193 C 0.91544 0.69463 0.50754 0.0
O194 O 0.81853 0.71999 0.49625 0.0
O195 O 0.90021 0.71523 0.48789 0.0
C196 C 0.32034 0.82966 0.60995 0.0
O197 O 0.33323 0.81177 0.57534 0.0
Cd198 Cd 0.322 0.80468 0.46572 0.0
O199 O 0.30235 0.84679 0.58604 0.0
Cd200 Cd 0.28175 0.86206 0.48378 0.0
C201 C 0.24851 0.79863 0.48217 0.0
O202 O 0.32122 0.85005 0.41696 0.0
O203 O 0.28252 0.86064 0.36837 0.0
O204 O 0.29791 0.90863 0.51137 0.0
C205 C 0.30819 0.85317 0.36504 0.0
O206 O 0.27317 0.78894 0.47132 0.0
C207 C 0.27486 0.92168 0.50181 0.0
O208 O 0.2445 0.82529 0.4915 0.0
O209 O 0.25356 0.90657 0.48617 0.0
C210 C 0.12216 0.31877 0.60898 0.0
O211 O 0.1385 0.33362 0.57431 0.0
Cd212 Cd 0.14647 0.32223 0.4651 0.0
O213 O 0.1071 0.29887 0.58515 0.0
Cd214 Cd 0.09332 0.27606 0.48403 0.0
C215 C 0.15856 0.24863 0.48552 0.0
O216 O 0.10169 0.31706 0.41738 0.0
O217 O 0.09348 0.27747 0.36834 0.0
O218 O 0.04765 0.28867 0.51993 0.0
C219 C 0.09918 0.30395 0.36528 0.0
O220 O 0.16594 0.27438 0.47411 0.0
C221 C 0.03535 0.26522 0.50745 0.0
O222 O 0.13264 0.24199 0.49358 0.0
O223 O 0.05058 0.24512 0.4856 0.0
C224 C 0.20215 0.49467 -0.00084 0.0
C225 C 0.17679 0.51006 0.00445 0.0
H226 H 0.22144 0.45312 -0.00596 0.0
C227 C 0.15118 0.495 0.00876 0.0
H228 H 0.2222 0.50577 -0.00439 0.0
C229 C 0.15072 0.46533 0.00667 0.0
C230 C 0.17589 0.44979 0.0011 0.0
H231 H 0.13123 0.50613 0.01267 0.0
H232 H 0.13048 0.45456 0.00986 0.0
C233 C 0.20172 0.46464 -0.00193 0.0
C234 C 0.46143 0.22476 -0.00853 0.0
C235 C 0.44629 0.20113 0.01532 0.0
H236 H 0.50247 0.24217 0.96951 0.0
C237 C 0.46124 0.17775 0.03996 0.0
H238 H 0.45042 0.24308 0.97223 0.0
C239 C 0.49049 0.17704 0.03721 0.0
C240 C 0.50568 0.19987 0.01075 0.0
H241 H 0.45034 0.15932 0.05936 0.0
H242 H 0.50124 0.15825 0.05506 0.0
C243 C 0.49109 0.22422 -0.0103 0.0
C244 C 0.74861 0.46687 -0.00053 0.0
C245 C 0.77419 0.45188 0.00537 0.0
H246 H 0.72867 0.50812 -0.00571 0.0
C247 C 0.79952 0.46734 0.01094 0.0
H248 H 0.72877 0.45546 -0.00503 0.0
C249 C 0.79949 0.49702 0.00936 0.0
C250 C 0.77411 0.51216 0.00306 0.0
H251 H 0.81963 0.45652 0.01539 0.0
H252 H 0.81954 0.50811 0.01345 0.0
C253 C 0.74855 0.4969 -0.00111 0.0
C254 C 0.48944 0.79224 0.02325 0.0
C255 C 0.50435 0.76707 0.00988 0.0
H256 H 0.44954 0.8127 0.03035 0.0
C257 C 0.48915 0.74191 -0.00389 0.0
H258 H 0.50036 0.81201 0.03425 0.0
C259 C 0.45948 0.74227 -0.00546 0.0
C260 C 0.44488 0.76792 0.00545 0.0
H261 H 0.50013 0.7222 -0.01441 0.0
H262 H 0.44806 0.72283 -0.01681 0.0
C263 C 0.46019 0.79271 0.02056 0.0
C264 C 0.65066 -0.00441 0.49955 0.0
C265 C 0.67605 0.01114 0.50058 0.0
H266 H 0.63077 0.95477 0.49707 0.0
C267 C 0.70182 -0.00375 0.50032 0.0
H268 H 0.63043 0.00634 0.49928 0.0
C269 C 0.70201 0.96623 0.49956 0.0
C270 C 0.67645 0.95085 0.49791 0.0
H271 H 0.7217 0.00776 0.5009 0.0
H272 H 0.72204 0.9551 0.4999 0.0
C273 C 0.65086 0.96591 0.4978 0.0
C274 C 0.96168 0.7213 0.49626 0.0
C275 C 0.94655 0.69623 0.51126 0.0
H276 H 0.0027 0.74031 0.48199 0.0
C277 C 0.96153 0.67119 0.52574 0.0
H278 H 0.95065 0.7409 0.48487 0.0
C279 C -0.00922 0.67074 0.52281 0.0
C280 C 0.00601 0.69541 0.50632 0.0
H281 H 0.95067 0.6515 0.53777 0.0
H282 H 0.00149 0.65085 0.53342 0.0
C283 C -0.00865 0.72096 0.49441 0.0
C284 C 0.30017 -0.00205 0.50742 0.0
C285 C 0.275 0.01351 0.50192 0.0
H286 H 0.31967 0.95713 0.51295 0.0
C287 C 0.24917 -0.00133 0.49849 0.0
H288 H 0.32041 0.00872 0.5109 0.0
C289 C 0.24874 0.96864 0.49912 0.0
C290 C 0.27411 0.95323 0.50435 0.0
H291 H 0.22945 0.01021 0.49448 0.0
H292 H 0.22871 0.95755 0.49527 0.0
C293 C 0.29972 0.96827 0.50907 0.0
C294 C -0.0109 0.23888 0.493 0.0
C295 C 0.00433 0.26314 0.5131 0.0
H296 H 0.94797 0.22078 0.47473 0.0
C297 C -0.01055 0.28725 0.53404 0.0
H298 H 5e-05 0.21999 0.47666 0.0
C299 C 0.9602 0.28785 0.53168 0.0
C300 C 0.9449 0.26423 0.50934 0.0
H301 H 0.0004 0.30623 0.5504 0.0
H302 H 0.94953 0.30713 0.54687 0.0
C303 C 0.95942 0.23933 0.4917 0.0
C304 C 0.21947 0.2466 -0.0052 0.0
C305 C 0.22509 0.27598 0.00065 0.0
H306 H 0.23587 0.20466 -0.01529 0.0
C307 C 0.25334 0.28543 0.00022 0.0
H308 H 0.19803 0.23846 -0.00552 0.0
C309 C 0.27548 0.26566 -0.0052 0.0
C310 C 0.26961 0.23624 -0.01096 0.0
H311 H 0.25831 0.30797 0.00461 0.0
H312 H 0.29707 0.27336 -0.00497 0.0
C313 C 0.24133 0.22709 -0.01111 0.0
C314 C 0.73121 0.24774 -0.02287 0.0
C315 C 0.72564 0.27711 -0.01694 0.0
H316 H 0.71502 0.20531 -0.02219 0.0
C317 C 0.69761 0.28601 -0.00707 0.0
H318 H 0.75244 0.23996 0.96927 0.0
C319 C 0.67574 0.26574 -0.00239 0.0
C320 C 0.6817 0.23635 -0.00689 0.0
H321 H 0.69264 0.3085 -0.00248 0.0
H322 H 0.65437 0.27301 0.0059 0.0
C323 C 0.70964 0.22772 -0.01774 0.0
C324 C 0.69606 0.67756 0.00222 0.0
C325 C 0.72446 0.68653 0.00246 0.0
H326 H 0.65251 0.69039 -0.00296 0.0
C327 C 0.73054 0.7158 -0.00386 0.0
H328 H 0.69073 0.65512 0.00698 0.0
C329 C 0.70901 0.73567 -0.00995 0.0
C330 C 0.68058 0.72702 -0.00953 0.0
H331 H 0.75211 0.72359 -0.00439 0.0
H332 H 0.71486 0.758 -0.01446 0.0
C333 C 0.67423 0.69771 -0.00339 0.0
C334 C 0.25424 0.67715 -0.00462 0.0
C335 C 0.22581 0.68563 -0.00916 0.0
H336 H 0.29753 0.69081 0.00382 0.0
C337 C 0.21943 0.71494 -0.00823 0.0
H338 H 0.25982 0.65471 -0.00525 0.0
C339 C 0.24067 0.73528 -0.00269 0.0
C340 C 0.26911 0.72709 0.00176 0.0
H341 H 0.19784 0.72241 -0.01138 0.0
H342 H 0.23461 0.75761 -0.00223 0.0
C343 C 0.27579 0.69778 0.00047 0.0
C344 C 0.77659 0.76536 0.49717 0.0
C345 C 0.7703 0.73595 0.4943 0.0
H346 H 0.76004 0.80805 0.50437 0.0
C347 C 0.74195 0.72716 0.49753 0.0
H348 H 0.79825 0.77278 0.4948 0.0
C349 C 0.72042 0.74703 0.50341 0.0
C350 C 0.72642 0.77644 0.50587 0.0
H351 H 0.73618 0.70473 0.49585 0.0
H352 H 0.69892 0.73913 0.50555 0.0
C353 C 0.75476 0.78551 0.50256 0.0
C354 C 0.23107 0.74848 0.48281 0.0
C355 C 0.22494 0.77781 0.48622 0.0
H356 H 0.21567 0.7058 0.48568 0.0
C357 C 0.19668 0.78632 0.4944 0.0
H358 H 0.2525 0.74096 0.47646 0.0
C359 C 0.17511 0.76572 0.4995 0.0
C360 C 0.18161 0.73639 0.49716 0.0
H361 H 0.19127 0.80878 0.49708 0.0
H362 H 0.15354 0.7727 0.50618 0.0
C363 C 0.20982 0.72815 0.48837 0.0
C364 C 0.23121 0.21678 0.50139 0.0
C365 C 0.22569 0.18728 0.50437 0.0
H366 H 0.21472 0.25879 0.493 0.0
C367 C 0.19751 0.17772 0.50115 0.0
H368 H 0.25259 0.22503 0.50346 0.0
C369 C 0.17534 0.19747 0.49532 0.0
C370 C 0.18114 0.22698 0.49193 0.0
H371 H 0.19259 0.15511 0.50334 0.0
H372 H 0.15381 0.18967 0.49304 0.0
C373 C 0.20934 0.23627 0.49507 0.0
C374 C 0.77484 0.19767 0.50063 0.0
C375 C 0.76851 0.227 0.50507 0.0
H376 H 0.75833 0.15492 0.49198 0.0
C377 C 0.7401 0.23552 0.50435 0.0
H378 H 0.79654 0.19043 0.50114 0.0
C379 C 0.71856 0.2155 0.49876 0.0
C380 C 0.72463 0.18621 0.49408 0.0
H381 H 0.73428 0.25786 0.50757 0.0
H382 H 0.69699 0.22317 0.49832 0.0
C383 C 0.75301 0.17737 0.4955 0.0
C384 C 0.12742 0.33938 0.30376 0.0
C385 C 0.10726 0.31731 0.30496 0.0
H386 H 0.154 0.36593 0.2463 0.0
C387 C 0.09644 0.30669 0.24778 0.0
H388 H 0.13617 0.34783 0.34727 0.0
C389 C 0.10614 0.31751 0.19017 0.0
C390 C 0.12736 0.33853 0.18899 0.0
H391 H 0.08082 0.2897 0.24764 0.0
H392 H 0.09793 0.30855 0.14663 0.0
C393 C 0.13769 0.34963 0.24616 0.0
C394 C 0.61095 0.14498 0.30255 0.0
C395 C 0.63045 0.12244 0.30397 0.0
H396 H 0.58792 0.17454 0.24475 0.0
C397 C 0.64016 0.11074 0.24697 0.0
H398 H 0.6033 0.15443 0.34598 0.0
C399 C 0.63084 0.12175 0.18926 0.0
C400 C 0.61235 0.14515 0.18787 0.0
H401 H 0.65519 0.09332 0.24708 0.0
H402 H 0.63896 0.1127 0.14583 0.0
C403 C 0.60228 0.15654 0.24485 0.0
C404 C 0.85257 0.65477 0.2508 0.0
C405 C 0.84174 0.64419 0.30801 0.0
H406 H 0.85099 0.65296 0.14968 0.0
C407 C 0.82141 0.62229 0.30692 0.0
H408 H 0.86832 0.67163 0.25059 0.0
C409 C 0.81101 0.61213 0.24936 0.0
C410 C 0.82139 0.62317 0.19215 0.0
H411 H 0.81265 0.61387 0.35047 0.0
H412 H 0.79459 0.59594 0.24956 0.0
C413 C 0.84275 0.64405 0.19325 0.0
C414 C 0.34022 0.82141 0.30386 0.0
C415 C 0.32033 0.84361 0.30482 0.0
H416 H 0.3637 0.79212 0.24669 0.0
C417 C 0.31055 0.85512 0.24754 0.0
H418 H 0.34796 0.8121 0.34747 0.0
C419 C 0.32005 0.84416 0.19005 0.0
C420 C 0.33884 0.82101 0.18913 0.0
H421 H 0.29524 0.87229 0.24725 0.0
H422 H 0.31177 0.853 0.14644 0.0
C423 C 0.3491 0.80992 0.24638 0.0
C424 C 0.10254 0.65403 0.74615 0.0
C425 C 0.11281 0.64291 0.68908 0.0
H426 H 0.10361 0.65183 0.84727 0.0
C427 C 0.13162 0.61977 0.69033 0.0
H428 H 0.08793 0.67182 0.74619 0.0
C429 C 0.14109 0.60882 0.74798 0.0
C430 C 0.13125 0.62031 0.80507 0.0
H431 H 0.13989 0.61092 0.64685 0.0
H432 H 0.15638 0.59163 0.74795 0.0
C433 C 0.11139 0.64253 0.80378 0.0
C434 C 0.31369 0.11304 0.74808 0.0
C435 C 0.32399 0.12415 0.69087 0.0
H436 H 0.31522 0.11485 0.8492 0.0
C437 C 0.34527 0.14512 0.692 0.0
H438 H 0.29734 0.09678 0.74827 0.0
C439 C 0.35499 0.15592 0.74959 0.0
C440 C 0.34415 0.14534 0.8068 0.0
H441 H 0.35346 0.15409 0.64845 0.0
H442 H 0.37062 0.1729 0.74939 0.0
C443 C 0.32398 0.12328 0.80567 0.0
C444 C 0.84149 0.32006 0.80436 0.0
C445 C 0.82209 0.3427 0.80537 0.0
H446 H 0.86432 0.29028 0.74711 0.0
C447 C 0.81263 0.35451 0.74813 0.0
H448 H 0.84896 0.31051 0.84795 0.0
C449 C 0.82191 0.3434 0.69061 0.0
C450 C 0.84014 0.3198 0.68963 0.0
H451 H 0.79769 0.37202 0.74788 0.0
H452 H 0.81386 0.35247 0.64702 0.0
C453 C 0.85014 0.30842 0.74685 0.0
C454 C 0.59792 0.80878 0.74945 0.0
C455 C 0.60866 0.81943 0.80667 0.0
H456 H 0.59954 0.81059 0.64832 0.0
C457 C 0.62881 0.84151 0.80557 0.0
H458 H 0.58231 0.79179 0.74923 0.0
C459 C 0.63914 0.85175 0.74801 0.0
C460 C 0.6289 0.84061 0.69079 0.0
H461 H 0.63749 0.84998 0.84912 0.0
H462 H 0.65545 0.86806 0.74822 0.0
C463 C 0.60768 0.81958 0.69188 0.0
C464 C 0.80998 0.61833 0.71014 0.0
C465 C 0.8281 0.6385 0.68196 0.0
H466 H 0.7934 0.60097 0.79609 0.0
C467 C 0.84533 0.65553 0.72099 0.0
H468 H 0.79652 0.60476 0.68149 0.0
C469 C 0.84353 0.65338 0.78672 0.0
C470 C 0.82448 0.63411 0.81495 0.0
H471 H 0.85967 0.67118 0.70089 0.0
H472 H 0.85651 0.66743 0.81532 0.0
C473 C 0.8082 0.61614 0.77592 0.0
C474 C 0.30931 0.84789 0.71838 0.0
C475 C 0.32478 0.82939 0.67926 0.0
H476 H 0.29828 0.85966 0.81275 0.0
C477 C 0.34311 0.80947 0.70736 0.0
H478 H 0.29511 0.86361 0.69836 0.0
C479 C 0.34496 0.80723 0.77313 0.0
C480 C 0.32849 0.82483 0.81221 0.0
H481 H 0.35545 0.79499 0.67864 0.0
H482 H 0.35866 0.79107 0.79322 0.0
C483 C 0.31113 0.84562 0.78409 0.0
C484 C 0.10455 0.30625 0.71717 0.0
C485 C 0.12171 0.3234 0.67823 0.0
H486 H 0.09326 0.29433 0.81143 0.0
C487 C 0.1396 0.34376 0.70649 0.0
H488 H 0.09038 0.29048 0.69702 0.0
C489 C 0.14122 0.34601 0.77229 0.0
C490 C 0.125 0.32793 0.81124 0.0
H491 H 0.153 0.35742 0.6779 0.0
H492 H 0.15585 0.36132 0.79254 0.0
C493 C 0.10619 0.30848 0.7829 0.0
C494 C 0.63539 0.11698 0.78304 0.0
C495 C 0.61857 0.13823 0.81083 0.0
H496 H 0.65117 0.09871 0.69761 0.0
C497 C 0.60243 0.15614 0.77149 0.0
H498 H 0.64793 0.10267 0.81192 0.0
C499 C 0.60431 0.15388 0.70576 0.0
C500 C 0.62235 0.13366 0.67801 0.0
H501 H 0.58912 0.17264 0.79133 0.0
H502 H 0.59239 0.1687 0.67682 0.0
C503 C 0.63725 0.1147 0.71738 0.0
C504 C 0.81273 0.34426 0.28419 0.0
C505 C 0.82972 0.32317 0.3123 0.0
H506 H 0.79694 0.36249 0.1985 0.0
C507 C 0.84578 0.30518 0.27319 0.0
H508 H 0.80021 0.3586 0.31287 0.0
C509 C 0.84387 0.30739 0.20742 0.0
C510 C 0.82589 0.32765 0.17935 0.0
H511 H 0.85918 0.28877 0.29327 0.0
H512 H 0.85587 0.29263 0.17867 0.0
C513 C 0.81085 0.3465 0.21849 0.0
C514 C 0.60628 0.80644 0.22007 0.0
C515 C 0.62333 0.82366 0.18102 0.0
H516 H 0.59523 0.79441 0.31443 0.0
C517 C 0.64136 0.8439 0.2092 0.0
H518 H 0.59203 0.79072 0.19999 0.0
C519 C 0.64316 0.84605 0.27497 0.0
C520 C 0.62699 0.82797 0.31403 0.0
H521 H 0.65469 0.85761 0.18054 0.0
H522 H 0.65785 0.86134 0.29512 0.0
C523 C 0.60811 0.80856 0.28581 0.0
C524 C 0.13894 0.61705 0.28436 0.0
C525 C 0.12165 0.6379 0.31222 0.0
H526 H 0.15494 0.59904 0.19887 0.0
C527 C 0.10516 0.6555 0.27292 0.0
H528 H 0.15178 0.60301 0.31321 0.0
C529 C 0.107 0.65324 0.20718 0.0
C530 C 0.12534 0.63332 0.17934 0.0
H531 H 0.09151 0.67169 0.2928 0.0
H532 H 0.09471 0.66776 0.17827 0.0
C533 C 0.14075 0.61477 0.21869 0.0
C534 C 0.34413 0.15552 0.28478 0.0
C535 C 0.32543 0.13595 0.31315 0.0
H536 H 0.35989 0.17357 0.19888 0.0
C537 C 0.30931 0.11779 0.27421 0.0
H538 H 0.35697 0.16973 0.31331 0.0
C539 C 0.31094 0.12004 0.2084 0.0
C540 C 0.32876 0.14046 0.1801 0.0
H541 H 0.29476 0.10239 0.29447 0.0
H542 H 0.29764 0.10628 0.17982 0.0
C543 C 0.34578 0.15773 0.21905 0.0
loop_
_geom_bond_atom_site_label_1
_geom_bond_atom_site_label_2
_geom_bond_distance
_geom_bond_site_symmetry_2
_ccdc_geom_bond_type
C0 O1 1.306 . S
C0 O3 1.160 . S
O1 C0 1.306 . S
O1 Cd2 2.228 1_556 S
Cd2 O1 2.228 1_554 S
Cd2 O6 2.273 . S
Cd2 O10 2.277 . S
O3 C0 1.160 . S
O3 Cd4 2.203 1_556 S
Cd4 O3 2.203 1_554 S
Cd4 O6 2.411 . S
Cd4 O7 2.333 . S
Cd4 O8 2.352 . S
Cd4 O12 2.277 . S
Cd4 O13 2.356 . S
C5 O10 1.209 . S
C5 O12 1.226 . S
O6 Cd2 2.273 . S
O6 Cd4 2.411 . S
O6 C9 1.320 . S
O7 Cd4 2.333 . S
O7 C9 1.214 . S
O8 Cd4 2.352 . S
O8 C11 1.258 . S
C9 O6 1.320 . S
C9 O7 1.214 . S
O10 Cd2 2.277 . S
O10 C5 1.209 . S
C11 O8 1.258 . S
C11 O13 1.282 . S
O12 Cd4 2.277 . S
O12 C5 1.226 . S
O13 Cd4 2.356 . S
O13 C11 1.282 . S
C14 O15 1.306 . S
C14 O17 1.160 . S
O15 C14 1.306 . S
O15 Cd16 2.228 1_556 S
Cd16 O15 2.228 1_554 S
Cd16 O20 2.273 . S
Cd16 O24 2.277 . S
O17 C14 1.160 . S
O17 Cd18 2.203 1_556 S
Cd18 O17 2.203 1_554 S
Cd18 O20 2.411 . S
Cd18 O21 2.333 . S
Cd18 O22 2.352 . S
Cd18 O26 2.277 . S
Cd18 O27 2.356 . S
C19 O24 1.209 . S
C19 O26 1.226 . S
O20 Cd16 2.273 . S
O20 Cd18 2.411 . S
O20 C23 1.320 . S
O21 Cd18 2.333 . S
O21 C23 1.214 . S
O22 Cd18 2.352 . S
O22 C25 1.258 . S
C23 O20 1.320 . S
C23 O21 1.214 . S
O24 Cd16 2.277 . S
O24 C19 1.209 . S
C25 O22 1.258 . S
C25 O27 1.282 . S
O26 Cd18 2.277 . S
O26 C19 1.226 . S
O27 Cd18 2.356 . S
O27 C25 1.282 . S
C28 O29 1.306 . S
C28 O31 1.160 . S
O29 C28 1.306 . S
O29 Cd30 2.228 1_556 S
Cd30 O29 2.228 1_554 S
Cd30 O34 2.273 . S
Cd30 O38 2.277 . S
O31 C28 1.160 . S
O31 Cd32 2.203 1_556 S
Cd32 O31 2.203 1_554 S
Cd32 O34 2.411 . S
Cd32 O35 2.333 . S
Cd32 O36 2.352 . S
Cd32 O40 2.277 . S
Cd32 O41 2.356 . S
C33 O38 1.209 . S
C33 O40 1.226 . S
O34 Cd30 2.273 . S
O34 Cd32 2.411 . S
O34 C37 1.320 . S
O35 Cd32 2.333 . S
O35 C37 1.214 . S
O36 Cd32 2.352 . S
O36 C39 1.258 . S
C37 O34 1.320 . S
C37 O35 1.214 . S
O38 Cd30 2.277 . S
O38 C33 1.209 . S
C39 O36 1.258 . S
C39 O41 1.282 . S
O40 Cd32 2.277 . S
O40 C33 1.226 . S
O41 Cd32 2.356 . S
O41 C39 1.282 . S
C42 O43 1.306 . S
C42 O45 1.160 . S
O43 C42 1.306 . S
O43 Cd44 2.228 1_556 S
Cd44 O43 2.228 1_554 S
Cd44 O48 2.273 . S
Cd44 O52 2.277 . S
O45 C42 1.160 . S
O45 Cd46 2.203 1_556 S
Cd46 O45 2.203 1_554 S
Cd46 O48 2.411 . S
Cd46 O49 2.333 . S
Cd46 O50 2.352 . S
Cd46 O54 2.277 . S
Cd46 O55 2.356 . S
C47 O52 1.209 . S
C47 O54 1.226 . S
O48 Cd44 2.273 . S
O48 Cd46 2.411 . S
O48 C51 1.320 . S
O49 Cd46 2.333 . S
O49 C51 1.214 . S
O50 Cd46 2.352 . S
O50 C53 1.258 . S
C51 O48 1.320 . S
C51 O49 1.214 . S
O52 Cd44 2.277 . S
O52 C47 1.209 . S
C53 O50 1.258 . S
C53 O55 1.282 . S
O54 Cd46 2.277 . S
O54 C47 1.226 . S
O55 Cd46 2.356 . S
O55 C53 1.282 . S
C56 O57 1.306 . S
C56 O59 1.160 . S
O57 C56 1.306 . S
O57 Cd58 2.228 . S
Cd58 O57 2.228 . S
Cd58 O62 2.273 1_554 S
Cd58 O66 2.277 . S
O59 C56 1.160 . S
O59 Cd60 2.203 . S
Cd60 O59 2.203 . S
Cd60 O62 2.411 1_554 S
Cd60 O63 2.333 1_554 S
Cd60 O64 2.352 . S
Cd60 O68 2.277 . S
Cd60 O69 2.356 . S
C61 O66 1.209 . S
C61 O68 1.226 . S
O62 Cd58 2.273 1_556 S
O62 Cd60 2.411 1_556 S
O62 C65 1.320 . S
O63 Cd60 2.333 1_556 S
O63 C65 1.214 . S
O64 Cd60 2.352 . S
O64 C67 1.258 . S
C65 O62 1.320 . S
C65 O63 1.214 . S
O66 Cd58 2.277 . S
O66 C61 1.209 . S
C67 O64 1.258 . S
C67 O69 1.282 . S
O68 Cd60 2.277 . S
O68 C61 1.226 . S
O69 Cd60 2.356 . S
O69 C67 1.282 . S
C70 O71 1.306 . S
C70 O73 1.160 . S
O71 C70 1.306 . S
O71 Cd72 2.228 . S
Cd72 O71 2.228 . S
Cd72 O76 2.273 1_554 S
Cd72 O80 2.277 . S
O73 C70 1.160 . S
O73 Cd74 2.203 . S
Cd74 O73 2.203 . S
Cd74 O76 2.411 1_554 S
Cd74 O77 2.333 1_554 S
Cd74 O78 2.352 . S
Cd74 O82 2.277 . S
Cd74 O83 2.356 . S
C75 O80 1.209 . S
C75 O82 1.226 . S
O76 Cd72 2.273 1_556 S
O76 Cd74 2.411 1_556 S
O76 C79 1.320 . S
O77 Cd74 2.333 1_556 S
O77 C79 1.214 . S
O78 Cd74 2.352 . S
O78 C81 1.258 . S
C79 O76 1.320 . S
C79 O77 1.214 . S
O80 Cd72 2.277 . S
O80 C75 1.209 . S
C81 O78 1.258 . S
C81 O83 1.282 . S
O82 Cd74 2.277 . S
O82 C75 1.226 . S
O83 Cd74 2.356 . S
O83 C81 1.282 . S
C84 O85 1.306 . S
C84 O87 1.160 . S
O85 C84 1.306 . S
O85 Cd86 2.228 . S
Cd86 O85 2.228 . S
Cd86 O90 2.273 1_554 S
Cd86 O94 2.277 . S
O87 C84 1.160 . S
O87 Cd88 2.203 . S
Cd88 O87 2.203 . S
Cd88 O90 2.411 1_554 S
Cd88 O91 2.333 1_554 S
Cd88 O92 2.352 . S
Cd88 O96 2.277 . S
Cd88 O97 2.356 . S
C89 O94 1.209 . S
C89 O96 1.226 . S
O90 Cd86 2.273 1_556 S
O90 Cd88 2.411 1_556 S
O90 C93 1.320 . S
O91 Cd88 2.333 1_556 S
O91 C93 1.214 . S
O92 Cd88 2.352 . S
O92 C95 1.258 . S
C93 O90 1.320 . S
C93 O91 1.214 . S
O94 Cd86 2.277 . S
O94 C89 1.209 . S
C95 O92 1.258 . S
C95 O97 1.282 . S
O96 Cd88 2.277 . S
O96 C89 1.226 . S
O97 Cd88 2.356 . S
O97 C95 1.282 . S
C98 O99 1.306 . S
C98 O101 1.160 . S
O99 C98 1.306 . S
O99 Cd100 2.228 . S
Cd100 O99 2.228 . S
Cd100 O104 2.273 1_554 S
Cd100 O108 2.277 . S
O101 C98 1.160 . S
O101 Cd102 2.203 . S
Cd102 O101 2.203 . S
Cd102 O104 2.411 1_554 S
Cd102 O105 2.333 1_554 S
Cd102 O106 2.352 . S
Cd102 O110 2.277 . S
Cd102 O111 2.356 . S
C103 O108 1.209 . S
C103 O110 1.226 . S
O104 Cd100 2.273 1_556 S
O104 Cd102 2.411 1_556 S
O104 C107 1.320 . S
O105 Cd102 2.333 1_556 S
O105 C107 1.214 . S
O106 Cd102 2.352 . S
O106 C109 1.258 . S
C107 O104 1.320 . S
C107 O105 1.214 . S
O108 Cd100 2.277 . S
O108 C103 1.209 . S
C109 O106 1.258 . S
C109 O111 1.282 . S
O110 Cd102 2.277 . S
O110 C103 1.226 . S
O111 Cd102 2.356 . S
O111 C109 1.282 . S
C112 O113 1.306 . S
C112 O115 1.160 . S
O113 C112 1.306 . S
O113 Cd114 2.228 . S
Cd114 O113 2.228 . S
Cd114 O118 2.273 . S
Cd114 O122 2.277 . S
O115 C112 1.160 . S
O115 Cd116 2.203 . S
Cd116 O115 2.203 . S
Cd116 O118 2.411 . S
Cd116 O119 2.333 . S
Cd116 O120 2.352 . S
Cd116 O124 2.277 . S
Cd116 O125 2.356 . S
C117 O122 1.209 . S
C117 O124 1.226 . S
O118 Cd114 2.273 . S
O118 Cd116 2.411 . S
O118 C121 1.320 . S
O119 Cd116 2.333 . S
O119 C121 1.214 . S
O120 Cd116 2.352 . S
O120 C123 1.258 . S
C121 O118 1.320 . S
C121 O119 1.214 . S
O122 Cd114 2.277 . S
O122 C117 1.209 . S
C123 O120 1.258 . S
C123 O125 1.282 . S
O124 Cd116 2.277 . S
O124 C117 1.226 . S
O125 Cd116 2.356 . S
O125 C123 1.282 . S
C126 O127 1.306 . S
C126 O129 1.160 . S
O127 C126 1.306 . S
O127 Cd128 2.228 . S
Cd128 O127 2.228 . S
Cd128 O132 2.273 . S
Cd128 O136 2.277 . S
O129 C126 1.160 . S
O129 Cd130 2.203 . S
Cd130 O129 2.203 . S
Cd130 O132 2.411 . S
Cd130 O133 2.333 . S
Cd130 O134 2.352 . S
Cd130 O138 2.277 . S
Cd130 O139 2.356 . S
C131 O136 1.209 . S
C131 O138 1.226 . S
O132 Cd128 2.273 . S
O132 Cd130 2.411 . S
O132 C135 1.320 . S
O133 Cd130 2.333 . S
O133 C135 1.214 . S
O134 Cd130 2.352 . S
O134 C137 1.258 . S
C135 O132 1.320 . S
C135 O133 1.214 . S
O136 Cd128 2.277 . S
O136 C131 1.209 . S
C137 O134 1.258 . S
C137 O139 1.282 . S
O138 Cd130 2.277 . S
O138 C131 1.226 . S
O139 Cd130 2.356 . S
O139 C137 1.282 . S
C140 O141 1.306 . S
C140 O143 1.160 . S
O141 C140 1.306 . S
O141 Cd142 2.228 . S
Cd142 O141 2.228 . S
Cd142 O146 2.273 . S
Cd142 O150 2.277 . S
O143 C140 1.160 . S
O143 Cd144 2.203 . S
Cd144 O143 2.203 . S
Cd144 O146 2.411 . S
Cd144 O147 2.333 . S
Cd144 O148 2.352 . S
Cd144 O152 2.277 . S
Cd144 O153 2.356 . S
C145 O150 1.209 . S
C145 O152 1.226 . S
O146 Cd142 2.273 . S
O146 Cd144 2.411 . S
O146 C149 1.320 . S
O147 Cd144 2.333 . S
O147 C149 1.214 . S
O148 Cd144 2.352 . S
O148 C151 1.258 . S
C149 O146 1.320 . S
C149 O147 1.214 . S
O150 Cd142 2.277 . S
O150 C145 1.209 . S
C151 O148 1.258 . S
C151 O153 1.282 . S
O152 Cd144 2.277 . S
O152 C145 1.226 . S
O153 Cd144 2.356 . S
O153 C151 1.282 . S
C154 O155 1.306 . S
C154 O157 1.160 . S
O155 C154 1.306 . S
O155 Cd156 2.228 . S
Cd156 O155 2.228 . S
Cd156 O160 2.273 . S
Cd156 O164 2.277 . S
O157 C154 1.160 . S
O157 Cd158 2.203 . S
Cd158 O157 2.203 . S
Cd158 O160 2.411 . S
Cd158 O161 2.333 . S
Cd158 O162 2.352 . S
Cd158 O166 2.277 . S
Cd158 O167 2.356 . S
C159 O164 1.209 . S
C159 O166 1.226 . S
O160 Cd156 2.273 . S
O160 Cd158 2.411 . S
O160 C163 1.320 . S
O161 Cd158 2.333 . S
O161 C163 1.214 . S
O162 Cd158 2.352 . S
O162 C165 1.258 . S
C163 O160 1.320 . S
C163 O161 1.214 . S
O164 Cd156 2.277 . S
O164 C159 1.209 . S
C165 O162 1.258 . S
C165 O167 1.282 . S
O166 Cd158 2.277 . S
O166 C159 1.226 . S
O167 Cd158 2.356 . S
O167 C165 1.282 . S
C168 O169 1.306 . S
C168 O171 1.160 . S
O169 C168 1.306 . S
O169 Cd170 2.228 . S
Cd170 O169 2.228 . S
Cd170 O174 2.273 . S
Cd170 O178 2.277 . S
O171 C168 1.160 . S
O171 Cd172 2.203 . S
Cd172 O171 2.203 . S
Cd172 O174 2.411 . S
Cd172 O175 2.333 . S
Cd172 O176 2.352 . S
Cd172 O180 2.277 . S
Cd172 O181 2.356 . S
C173 O178 1.209 . S
C173 O180 1.226 . S
O174 Cd170 2.273 . S
O174 Cd172 2.411 . S
O174 C177 1.320 . S
O175 Cd172 2.333 . S
O175 C177 1.214 . S
O176 Cd172 2.352 . S
O176 C179 1.258 . S
C177 O174 1.320 . S
C177 O175 1.214 . S
O178 Cd170 2.277 . S
O178 C173 1.209 . S
C179 O176 1.258 . S
C179 O181 1.282 . S
O180 Cd172 2.277 . S
O180 C173 1.226 . S
O181 Cd172 2.356 . S
O181 C179 1.282 . S
C182 O183 1.306 . S
C182 O185 1.160 . S
O183 C182 1.306 . S
O183 Cd184 2.228 . S
Cd184 O183 2.228 . S
Cd184 O188 2.273 . S
Cd184 O192 2.277 . S
O185 C182 1.160 . S
O185 Cd186 2.203 . S
Cd186 O185 2.203 . S
Cd186 O188 2.411 . S
Cd186 O189 2.333 . S
Cd186 O190 2.352 . S
Cd186 O194 2.277 . S
Cd186 O195 2.356 . S
C187 O192 1.209 . S
C187 O194 1.226 . S
O188 Cd184 2.273 . S
O188 Cd186 2.411 . S
O188 C191 1.320 . S
O189 Cd186 2.333 . S
O189 C191 1.214 . S
O190 Cd186 2.352 . S
O190 C193 1.258 . S
C191 O188 1.320 . S
C191 O189 1.214 . S
O192 Cd184 2.277 . S
O192 C187 1.209 . S
C193 O190 1.258 . S
C193 O195 1.282 . S
O194 Cd186 2.277 . S
O194 C187 1.226 . S
O195 Cd186 2.356 . S
O195 C193 1.282 . S
C196 O197 1.306 . S
C196 O199 1.160 . S
O197 C196 1.306 . S
O197 Cd198 2.228 . S
Cd198 O197 2.228 . S
Cd198 O202 2.273 . S
Cd198 O206 2.277 . S
O199 C196 1.160 . S
O199 Cd200 2.203 . S
Cd200 O199 2.203 . S
Cd200 O202 2.411 . S
Cd200 O203 2.333 . S
Cd200 O204 2.352 . S
Cd200 O208 2.277 . S
Cd200 O209 2.356 . S
C201 O206 1.209 . S
C201 O208 1.226 . S
O202 Cd198 2.273 . S
O202 Cd200 2.411 . S
O202 C205 1.320 . S
O203 Cd200 2.333 . S
O203 C205 1.214 . S
O204 Cd200 2.352 . S
O204 C207 1.258 . S
C205 O202 1.320 . S
C205 O203 1.214 . S
O206 Cd198 2.277 . S
O206 C201 1.209 . S
C207 O204 1.258 . S
C207 O209 1.282 . S
O208 Cd200 2.277 . S
O208 C201 1.226 . S
O209 Cd200 2.356 . S
O209 C207 1.282 . S
C210 O211 1.306 . S
C210 O213 1.160 . S
O211 C210 1.306 . S
O211 Cd212 2.228 . S
Cd212 O211 2.228 . S
Cd212 O216 2.273 . S
Cd212 O220 2.277 . S
O213 C210 1.160 . S
O213 Cd214 2.203 . S
Cd214 O213 2.203 . S
Cd214 O216 2.411 . S
Cd214 O217 2.333 . S
Cd214 O218 2.352 . S
Cd214 O222 2.277 . S
Cd214 O223 2.356 . S
C215 O220 1.209 . S
C215 O222 1.226 . S
O216 Cd212 2.273 . S
O216 Cd214 2.411 . S
O216 C219 1.320 . S
O217 Cd214 2.333 . S
O217 C219 1.214 . S
O218 Cd214 2.352 . S
O218 C221 1.258 . S
C219 O216 1.320 . S
C219 O217 1.214 . S
O220 Cd212 2.277 . S
O220 C215 1.209 . S
C221 O218 1.258 . S
C221 O223 1.282 . S
O222 Cd214 2.277 . S
O222 C215 1.226 . S
O223 Cd214 2.356 . S
O223 C221 1.282 . S
C224 C225 1.387 . S
C224 H228 0.950 . S
C224 C233 1.390 . S
C225 C224 1.387 . S
C225 C227 1.387 . S
H226 C233 0.950 . S
C227 C225 1.387 . S
C227 C229 1.390 . S
C227 H231 0.950 . S
H228 C224 0.950 . S
C229 C227 1.390 . S
C229 C230 1.387 . S
C229 H232 0.950 . S
C230 C229 1.387 . S
C230 C233 1.387 . S
H231 C227 0.950 . S
H232 C229 0.950 . S
C233 C224 1.390 . S
C233 H226 0.950 . S
C233 C230 1.387 . S
C234 C235 1.387 . S
C234 H238 0.950 . S
C234 C243 1.390 . S
C235 C234 1.387 . S
C235 C237 1.387 . S
H236 C243 0.950 . S
C237 C235 1.387 . S
C237 C239 1.390 . S
C237 H241 0.950 . S
H238 C234 0.950 . S
C239 C237 1.390 . S
C239 C240 1.387 . S
C239 H242 0.950 . S
C240 C239 1.387 . S
C240 C243 1.387 . S
H241 C237 0.950 . S
H242 C239 0.950 . S
C243 C234 1.390 . S
C243 H236 0.950 . S
C243 C240 1.387 . S
C244 C245 1.387 . S
C244 H248 0.950 . S
C244 C253 1.390 . S
C245 C244 1.387 . S
C245 C247 1.387 . S
H246 C253 0.950 . S
C247 C245 1.387 . S
C247 C249 1.390 . S
C247 H251 0.950 . S
H248 C244 0.950 . S
C249 C247 1.390 . S
C249 C250 1.387 . S
C249 H252 0.950 . S
C250 C249 1.387 . S
C250 C253 1.387 . S
H251 C247 0.950 . S
H252 C249 0.950 . S
C253 C244 1.390 . S
C253 H246 0.950 . S
C253 C250 1.387 . S
C254 C255 1.387 . S
C254 H258 0.950 . S
C254 C263 1.390 . S
C255 C254 1.387 . S
C255 C257 1.387 . S
H256 C263 0.950 . S
C257 C255 1.387 . S
C257 C259 1.390 . S
C257 H261 0.950 . S
H258 C254 0.950 . S
C259 C257 1.390 . S
C259 C260 1.387 . S
C259 H262 0.950 . S
C260 C259 1.387 . S
C260 C263 1.387 . S
H261 C257 0.950 . S
H262 C259 0.950 . S
C263 C254 1.390 . S
C263 H256 0.950 . S
C263 C260 1.387 . S
C264 C265 1.387 . S
C264 H268 0.950 . S
C264 C273 1.390 1_545 S
C265 C264 1.387 . S
C265 C267 1.387 . S
H266 C273 0.950 . S
C267 C265 1.387 . S
C267 C269 1.390 1_545 S
C267 H271 0.950 . S
H268 C264 0.950 . S
C269 C267 1.390 1_565 S
C269 C270 1.387 . S
C269 H272 0.950 . S
C270 C269 1.387 . S
C270 C273 1.387 . S
H271 C267 0.950 . S
H272 C269 0.950 . S
C273 C264 1.390 1_565 S
C273 H266 0.950 . S
C273 C270 1.387 . S
C274 C275 1.387 . S
C274 H278 0.950 . S
C274 C283 1.390 1_655 S
C275 C274 1.387 . S
C275 C277 1.387 . S
H276 C283 0.950 . S
C277 C275 1.387 . S
C277 C279 1.390 1_655 S
C277 H281 0.950 . S
H278 C274 0.950 . S
C279 C277 1.390 1_455 S
C279 C280 1.387 . S
C279 H282 0.950 . S
C280 C279 1.387 . S
C280 C283 1.387 . S
H281 C277 0.950 . S
H282 C279 0.950 . S
C283 C274 1.390 1_455 S
C283 H276 0.950 . S
C283 C280 1.387 . S
C284 C285 1.387 . S
C284 H288 0.950 . S
C284 C293 1.390 1_545 S
C285 C284 1.387 . S
C285 C287 1.387 . S
H286 C293 0.950 . S
C287 C285 1.387 . S
C287 C289 1.390 1_545 S
C287 H291 0.950 . S
H288 C284 0.950 . S
C289 C287 1.390 1_565 S
C289 C290 1.387 . S
C289 H292 0.950 . S
C290 C289 1.387 . S
C290 C293 1.387 . S
H291 C287 0.950 . S
H292 C289 0.950 . S
C293 C284 1.390 1_565 S
C293 H286 0.950 . S
C293 C290 1.387 . S
C294 C295 1.387 . S
C294 H298 0.950 . S
C294 C303 1.390 1_455 S
C295 C294 1.387 . S
C295 C297 1.387 . S
H296 C303 0.950 . S
C297 C295 1.387 . S
C297 C299 1.390 1_455 S
C297 H301 0.950 . S
H298 C294 0.950 . S
C299 C297 1.390 1_655 S
C299 C300 1.387 . S
C299 H302 0.950 . S
C300 C299 1.387 . S
C300 C303 1.387 . S
H301 C297 0.950 . S
H302 C299 0.950 . S
C303 C294 1.390 1_655 S
C303 H296 0.950 . S
C303 C300 1.387 . S
C304 C305 1.387 . S
C304 H308 0.950 . S
C304 C313 1.390 . S
C305 C304 1.387 . S
C305 C307 1.387 1_554 S
H306 C313 0.950 . S
C307 C305 1.387 1_556 S
C307 C309 1.390 . S
C307 H311 0.950 . S
H308 C304 0.950 . S
C309 C307 1.390 . S
C309 C310 1.387 1_556 S
C309 H312 0.950 . S
C310 C309 1.387 1_554 S
C310 C313 1.387 . S
H311 C307 0.950 . S
H312 C309 0.950 . S
C313 C304 1.390 . S
C313 H306 0.950 . S
C313 C310 1.387 . S
C314 C315 1.387 1_556 S
C314 H318 0.950 . S
C314 C323 1.390 . S
C315 C314 1.387 1_554 S
C315 C317 1.387 . S
H316 C323 0.950 . S
C317 C315 1.387 . S
C317 C319 1.390 . S
C317 H321 0.950 . S
H318 C314 0.950 . S
C319 C317 1.390 . S
C319 C320 1.387 . S
C319 H322 0.950 . S
C320 C319 1.387 . S
C320 C323 1.387 1_554 S
H321 C317 0.950 . S
H322 C319 0.950 . S
C323 C314 1.390 . S
C323 H316 0.950 . S
C323 C320 1.387 1_556 S
C324 C325 1.387 1_556 S
C324 H328 0.950 . S
C324 C333 1.390 . S
C325 C324 1.387 1_554 S
C325 C327 1.387 . S
H326 C333 0.950 . S
C327 C325 1.387 . S
C327 C329 1.390 . S
C327 H331 0.950 . S
H328 C324 0.950 . S
C329 C327 1.390 . S
C329 C330 1.387 . S
C329 H332 0.950 . S
C330 C329 1.387 . S
C330 C333 1.387 1_554 S
H331 C327 0.950 . S
H332 C329 0.950 . S
C333 C324 1.390 . S
C333 H326 0.950 . S
C333 C330 1.387 1_556 S
C334 C335 1.387 . S
C334 H338 0.950 . S
C334 C343 1.390 . S
C335 C334 1.387 . S
C335 C337 1.387 1_554 S
H336 C343 0.950 . S
C337 C335 1.387 1_556 S
C337 C339 1.390 . S
C337 H341 0.950 . S
H338 C334 0.950 . S
C339 C337 1.390 . S
C339 C340 1.387 1_556 S
C339 H342 0.950 . S
C340 C339 1.387 1_554 S
C340 C343 1.387 . S
H341 C337 0.950 . S
H342 C339 0.950 . S
C343 C334 1.390 . S
C343 H336 0.950 . S
C343 C340 1.387 . S
C344 C345 1.387 . S
C344 H348 0.950 . S
C344 C353 1.390 . S
C345 C344 1.387 . S
C345 C347 1.387 . S
H346 C353 0.950 . S
C347 C345 1.387 . S
C347 C349 1.390 . S
C347 H351 0.950 . S
H348 C344 0.950 . S
C349 C347 1.390 . S
C349 C350 1.387 . S
C349 H352 0.950 . S
C350 C349 1.387 . S
C350 C353 1.387 . S
H351 C347 0.950 . S
H352 C349 0.950 . S
C353 C344 1.390 . S
C353 H346 0.950 . S
C353 C350 1.387 . S
C354 C355 1.387 . S
C354 H358 0.950 . S
C354 C363 1.390 . S
C355 C354 1.387 . S
C355 C357 1.387 . S
H356 C363 0.950 . S
C357 C355 1.387 . S
C357 C359 1.390 . S
C357 H361 0.950 . S
H358 C354 0.950 . S
C359 C357 1.390 . S
C359 C360 1.387 . S
C359 H362 0.950 . S
C360 C359 1.387 . S
C360 C363 1.387 . S
H361 C357 0.950 . S
H362 C359 0.950 . S
C363 C354 1.390 . S
C363 H356 0.950 . S
C363 C360 1.387 . S
C364 C365 1.387 . S
C364 H368 0.950 . S
C364 C373 1.390 . S
C365 C364 1.387 . S
C365 C367 1.387 . S
H366 C373 0.950 . S
C367 C365 1.387 . S
C367 C369 1.390 . S
C367 H371 0.950 . S
H368 C364 0.950 . S
C369 C367 1.390 . S
C369 C370 1.387 . S
C369 H372 0.950 . S
C370 C369 1.387 . S
C370 C373 1.387 . S
H371 C367 0.950 . S
H372 C369 0.950 . S
C373 C364 1.390 . S
C373 H366 0.950 . S
C373 C370 1.387 . S
C374 C375 1.387 . S
C374 H378 0.950 . S
C374 C383 1.390 . S
C375 C374 1.387 . S
C375 C377 1.387 . S
H376 C383 0.950 . S
C377 C375 1.387 . S
C377 C379 1.390 . S
C377 H381 0.950 . S
H378 C374 0.950 . S
C379 C377 1.390 . S
C379 C380 1.387 . S
C379 H382 0.950 . S
C380 C379 1.387 . S
C380 C383 1.387 . S
H381 C377 0.950 . S
H382 C379 0.950 . S
C383 C374 1.390 . S
C383 H376 0.950 . S
C383 C380 1.387 . S
C384 C385 1.387 . S
C384 H388 0.950 . S
C384 C393 1.390 . S
C385 C384 1.387 . S
C385 C387 1.387 . S
H386 C393 0.950 . S
C387 C385 1.387 . S
C387 C389 1.390 . S
C387 H391 0.950 . S
H388 C384 0.950 . S
C389 C387 1.390 . S
C389 C390 1.387 . S
C389 H392 0.950 . S
C390 C389 1.387 . S
C390 C393 1.387 . S
H391 C387 0.950 . S
H392 C389 0.950 . S
C393 C384 1.390 . S
C393 H386 0.950 . S
C393 C390 1.387 . S
C394 C395 1.387 . S
C394 H398 0.950 . S
C394 C403 1.390 . S
C395 C394 1.387 . S
C395 C397 1.387 . S
H396 C403 0.950 . S
C397 C395 1.387 . S
C397 C399 1.390 . S
C397 H401 0.950 . S
H398 C394 0.950 . S
C399 C397 1.390 . S
C399 C400 1.387 . S
C399 H402 0.950 . S
C400 C399 1.387 . S
C400 C403 1.387 . S
H401 C397 0.950 . S
H402 C399 0.950 . S
C403 C394 1.390 . S
C403 H396 0.950 . S
C403 C400 1.387 . S
C404 C405 1.387 . S
C404 H408 0.950 . S
C404 C413 1.390 . S
C405 C404 1.387 . S
C405 C407 1.387 . S
H406 C413 0.950 . S
C407 C405 1.387 . S
C407 C409 1.390 . S
C407 H411 0.950 . S
H408 C404 0.950 . S
C409 C407 1.390 . S
C409 C410 1.387 . S
C409 H412 0.950 . S
C410 C409 1.387 . S
C410 C413 1.387 . S
H411 C407 0.950 . S
H412 C409 0.950 . S
C413 C404 1.390 . S
C413 H406 0.950 . S
C413 C410 1.387 . S
C414 C415 1.387 . S
C414 H418 0.950 . S
C414 C423 1.390 . S
C415 C414 1.387 . S
C415 C417 1.387 . S
H416 C423 0.950 . S
C417 C415 1.387 . S
C417 C419 1.390 . S
C417 H421 0.950 . S
H418 C414 0.950 . S
C419 C417 1.390 . S
C419 C420 1.387 . S
C419 H422 0.950 . S
C420 C419 1.387 . S
C420 C423 1.387 . S
H421 C417 0.950 . S
H422 C419 0.950 . S
C423 C414 1.390 . S
C423 H416 0.950 . S
C423 C420 1.387 . S
C424 C425 1.387 . S
C424 H428 0.950 . S
C424 C433 1.390 . S
C425 C424 1.387 . S
C425 C427 1.387 . S
H426 C433 0.950 . S
C427 C425 1.387 . S
C427 C429 1.390 . S
C427 H431 0.950 . S
H428 C424 0.950 . S
C429 C427 1.390 . S
C429 C430 1.387 . S
C429 H432 0.950 . S
C430 C429 1.387 . S
C430 C433 1.387 . S
H431 C427 0.950 . S
H432 C429 0.950 . S
C433 C424 1.390 . S
C433 H426 0.950 . S
C433 C430 1.387 . S
C434 C435 1.387 . S
C434 H438 0.950 . S
C434 C443 1.390 . S
C435 C434 1.387 . S
C435 C437 1.387 . S
H436 C443 0.950 . S
C437 C435 1.387 . S
C437 C439 1.390 . S
C437 H441 0.950 . S
H438 C434 0.950 . S
C439 C437 1.390 . S
C439 C440 1.387 . S
C439 H442 0.950 . S
C440 C439 1.387 . S
C440 C443 1.387 . S
H441 C437 0.950 . S
H442 C439 0.950 . S
C443 C434 1.390 . S
C443 H436 0.950 . S
C443 C440 1.387 . S
C444 C445 1.387 . S
C444 H448 0.950 . S
C444 C453 1.390 . S
C445 C444 1.387 . S
C445 C447 1.387 . S
H446 C453 0.950 . S
C447 C445 1.387 . S
C447 C449 1.390 . S
C447 H451 0.950 . S
H448 C444 0.950 . S
C449 C447 1.390 . S
C449 C450 1.387 . S
C449 H452 0.950 . S
C450 C449 1.387 . S
C450 C453 1.387 . S
H451 C447 0.950 . S
H452 C449 0.950 . S
C453 C444 1.390 . S
C453 H446 0.950 . S
C453 C450 1.387 . S
C454 C455 1.387 . S
C454 H458 0.950 . S
C454 C463 1.390 . S
C455 C454 1.387 . S
C455 C457 1.387 . S
H456 C463 0.950 . S
C457 C455 1.387 . S
C457 C459 1.390 . S
C457 H461 0.950 . S
H458 C454 0.950 . S
C459 C457 1.390 . S
C459 C460 1.387 . S
C459 H462 0.950 . S
C460 C459 1.387 . S
C460 C463 1.387 . S
H461 C457 0.950 . S
H462 C459 0.950 . S
C463 C454 1.390 . S
C463 H456 0.950 . S
C463 C460 1.387 . S
C464 C465 1.387 . S
C464 H468 0.950 . S
C464 C473 1.390 . S
C465 C464 1.387 . S
C465 C467 1.387 . S
H466 C473 0.950 . S
C467 C465 1.387 . S
C467 C469 1.390 . S
C467 H471 0.950 . S
H468 C464 0.950 . S
C469 C467 1.390 . S
C469 C470 1.387 . S
C469 H472 0.950 . S
C470 C469 1.387 . S
C470 C473 1.387 . S
H471 C467 0.950 . S
H472 C469 0.950 . S
C473 C464 1.390 . S
C473 H466 0.950 . S
C473 C470 1.387 . S
C474 C475 1.387 . S
C474 H478 0.950 . S
C474 C483 1.390 . S
C475 C474 1.387 . S
C475 C477 1.387 . S
H476 C483 0.950 . S
C477 C475 1.387 . S
C477 C479 1.390 . S
C477 H481 0.950 . S
H478 C474 0.950 . S
C479 C477 1.390 . S
C479 C480 1.387 . S
C479 H482 0.950 . S
C480 C479 1.387 . S
C480 C483 1.387 . S
H481 C477 0.950 . S
H482 C479 0.950 . S
C483 C474 1.390 . S
C483 H476 0.950 . S
C483 C480 1.387 . S
C484 C485 1.387 . S
C484 H488 0.950 . S
C484 C493 1.390 . S
C485 C484 1.387 . S
C485 C487 1.387 . S
H486 C493 0.950 . S
C487 C485 1.387 . S
C487 C489 1.390 . S
C487 H491 0.950 . S
H488 C484 0.950 . S
C489 C487 1.390 . S
C489 C490 1.387 . S
C489 H492 0.950 . S
C490 C489 1.387 . S
C490 C493 1.387 . S
H491 C487 0.950 . S
H492 C489 0.950 . S
C493 C484 1.390 . S
C493 H486 0.950 . S
C493 C490 1.387 . S
C494 C495 1.387 . S
C494 H498 0.950 . S
C494 C503 1.390 . S
C495 C494 1.387 . S
C495 C497 1.387 . S
H496 C503 0.950 . S
C497 C495 1.387 . S
C497 C499 1.390 . S
C497 H501 0.950 . S
H498 C494 0.950 . S
C499 C497 1.390 . S
C499 C500 1.387 . S
C499 H502 0.950 . S
C500 C499 1.387 . S
C500 C503 1.387 . S
H501 C497 0.950 . S
H502 C499 0.950 . S
C503 C494 1.390 . S
C503 H496 0.950 . S
C503 C500 1.387 . S
C504 C505 1.387 . S
C504 H508 0.950 . S
C504 C513 1.390 . S
C505 C504 1.387 . S
C505 C507 1.387 . S
H506 C513 0.950 . S
C507 C505 1.387 . S
C507 C509 1.390 . S
C507 H511 0.950 . S
H508 C504 0.950 . S
C509 C507 1.390 . S
C509 C510 1.387 . S
C509 H512 0.950 . S
C510 C509 1.387 . S
C510 C513 1.387 . S
H511 C507 0.950 . S
H512 C509 0.950 . S
C513 C504 1.390 . S
C513 H506 0.950 . S
C513 C510 1.387 . S
C514 C515 1.387 . S
C514 H518 0.950 . S
C514 C523 1.390 . S
C515 C514 1.387 . S
C515 C517 1.387 . S
H516 C523 0.950 . S
C517 C515 1.387 . S
C517 C519 1.390 . S
C517 H521 0.950 . S
H518 C514 0.950 . S
C519 C517 1.390 . S
C519 C520 1.387 . S
C519 H522 0.950 . S
C520 C519 1.387 . S
C520 C523 1.387 . S
H521 C517 0.950 . S
H522 C519 0.950 . S
C523 C514 1.390 . S
C523 H516 0.950 . S
C523 C520 1.387 . S
C524 C525 1.387 . S
C524 H528 0.950 . S
C524 C533 1.390 . S
C525 C524 1.387 . S
C525 C527 1.387 . S
H526 C533 0.950 . S
C527 C525 1.387 . S
C527 C529 1.390 . S
C527 H531 0.950 . S
H528 C524 0.950 . S
C529 C527 1.390 . S
C529 C530 1.387 . S
C529 H532 0.950 . S
C530 C529 1.387 . S
C530 C533 1.387 . S
H531 C527 0.950 . S
H532 C529 0.950 . S
C533 C524 1.390 . S
C533 H526 0.950 . S
C533 C530 1.387 . S
C534 C535 1.387 . S
C534 H538 0.950 . S
C534 C543 1.390 . S
C535 C534 1.387 . S
C535 C537 1.387 . S
H536 C543 0.950 . S
C537 C535 1.387 . S
C537 C539 1.390 . S
C537 H541 0.950 . S
H538 C534 0.950 . S
C539 C537 1.390 . S
C539 C540 1.387 . S
C539 H542 0.950 . S
C540 C539 1.387 . S
C540 C543 1.387 . S
H541 C537 0.950 . S
H542 C539 0.950 . S
C543 C534 1.390 . S
C543 H536 0.950 . S
C543 C540 1.387 . S
C225 C67 1.434 . S
C230 C11 1.434 . S
C235 C81 1.434 . S
C240 C25 1.434 . S
C245 C95 1.434 . S
C250 C39 1.434 . S
C255 C109 1.434 . S
C260 C53 1.434 . S
C265 C179 1.434 . S
C270 C123 1.434 . S
C275 C193 1.434 . S
C280 C137 1.434 . S
C285 C151 1.434 . S
C290 C207 1.434 . S
C295 C221 1.434 . S
C300 C165 1.434 . S
C305 C5 1.477 . S
C310 C75 1.477 . S
C315 C89 1.477 . S
C320 C19 1.477 . S
C325 C33 1.477 . S
C330 C103 1.477 . S
C335 C61 1.477 . S
C340 C47 1.477 . S
C345 C187 1.477 . S
C350 C117 1.477 . S
C355 C201 1.477 . S
C360 C131 1.477 . S
C365 C145 1.477 . S
C370 C215 1.477 . S
C375 C159 1.477 . S
C380 C173 1.477 . S
C385 C219 1.468 . S
C390 C9 1.468 . S
C395 C177 1.469 . S
C400 C23 1.469 . S
C405 C191 1.469 . S
C410 C37 1.469 . S
C415 C205 1.469 . S
C420 C51 1.469 . S
C425 C135 1.469 . S
C430 C65 1.469 . S
C435 C149 1.468 . S
C440 C79 1.468 . S
C445 C93 1.469 . S
C450 C163 1.469 . S
C455 C107 1.468 . S
C460 C121 1.469 . S
C465 C182 1.404 . S
C470 C28 1.406 . S
C475 C196 1.405 . S
C480 C42 1.404 . S
C485 C210 1.405 . S
C490 C0 1.404 . S
C495 C14 1.404 . S
C500 C168 1.405 . S
C505 C154 1.404 . S
C510 C84 1.405 . S
C515 C98 1.405 . S
C520 C112 1.404 . S
C525 C126 1.404 . S
C530 C56 1.405 . S
C535 C140 1.404 . S
C540 C70 1.405 . S
