# Generated by pormake.
# Topology zfd, (5)-cn, num edge types: 1
# Building blocks:
#     Node 0, Type 0, BuildingBlock: BEQFEK_clean_sbu_0, # of connection points: 5
#     Node 1, Type 0, BuildingBlock: BEQFEK_clean_sbu_0, # of connection points: 5
#     Node 2, Type 0, BuildingBlock: BEQFEK_clean_sbu_0, # of connection points: 5
#     Node 3, Type 0, BuildingBlock: BEQFEK_clean_sbu_0, # of connection points: 5
#     Node 4, Type 0, BuildingBlock: BEQFEK_clean_sbu_0, # of connection points: 5
#     Node 5, Type 0, BuildingBlock: BEQFEK_clean_sbu_0, # of connection points: 5
#     Node 6, Type 0, BuildingBlock: BEQFEK_clean_sbu_0, # of connection points: 5
#     Node 7, Type 0, BuildingBlock: BEQFEK_clean_sbu_0, # of connection points: 5
#     Node 8, Type 0, BuildingBlock: BEQFEK_clean_sbu_0, # of connection points: 5
#     Node 9, Type 0, BuildingBlock: BEQFEK_clean_sbu_0, # of connection points: 5
#     Node 10, Type 0, BuildingBlock: BEQFEK_clean_sbu_0, # of connection points: 5
#     Node 11, Type 0, BuildingBlock: BEQFEK_clean_sbu_0, # of connection points: 5
#     Node 12, Type 0, BuildingBlock: BEQFEK_clean_sbu_0, # of connection points: 5
#     Node 13, Type 0, BuildingBlock: BEQFEK_clean_sbu_0, # of connection points: 5
#     Node 14, Type 0, BuildingBlock: BEQFEK_clean_sbu_0, # of connection points: 5
#     Node 15, Type 0, BuildingBlock: BEQFEK_clean_sbu_0, # of connection points: 5
#     Edge 16, Type (0, 0), BuildingBlock: XIVTED_clean_linker_0, # of connection points: 2
#     Edge 17, Type (0, 0), BuildingBlock: XIVTED_clean_linker_0, # of connection points: 2
#     Edge 18, Type (0, 0), BuildingBlock: XIVTED_clean_linker_0, # of connection points: 2
#     Edge 19, Type (0, 0), BuildingBlock: XIVTED_clean_linker_0, # of connection points: 2
#     Edge 20, Type (0, 0), BuildingBlock: XIVTED_clean_linker_0, # of connection points: 2
#     Edge 21, Type (0, 0), BuildingBlock: XIVTED_clean_linker_0, # of connection points: 2
#     Edge 22, Type (0, 0), BuildingBlock: XIVTED_clean_linker_0, # of connection points: 2
#     Edge 23, Type (0, 0), BuildingBlock: XIVTED_clean_linker_0, # of connection points: 2
#     Edge 24, Type (0, 0), BuildingBlock: XIVTED_clean_linker_0, # of connection points: 2
#     Edge 25, Type (0, 0), BuildingBlock: XIVTED_clean_linker_0, # of connection points: 2
#     Edge 26, Type (0, 0), BuildingBlock: XIVTED_clean_linker_0, # of connection points: 2
#     Edge 27, Type (0, 0), BuildingBlock: XIVTED_clean_linker_0, # of connection points: 2
#     Edge 28, Type (0, 0), BuildingBlock: XIVTED_clean_linker_0, # of connection points: 2
#     Edge 29, Type (0, 0), BuildingBlock: XIVTED_clean_linker_0, # of connection points: 2
#     Edge 30, Type (0, 0), BuildingBlock: XIVTED_clean_linker_0, # of connection points: 2
#     Edge 31, Type (0, 0), BuildingBlock: XIVTED_clean_linker_0, # of connection points: 2
#     Edge 32, Type (0, 0), BuildingBlock: XIVTED_clean_linker_0, # of connection points: 2
#     Edge 33, Type (0, 0), BuildingBlock: XIVTED_clean_linker_0, # of connection points: 2
#     Edge 34, Type (0, 0), BuildingBlock: XIVTED_clean_linker_0, # of connection points: 2
#     Edge 35, Type (0, 0), BuildingBlock: XIVTED_clean_linker_0, # of connection points: 2
#     Edge 36, Type (0, 0), BuildingBlock: XIVTED_clean_linker_0, # of connection points: 2
#     Edge 37, Type (0, 0), BuildingBlock: XIVTED_clean_linker_0, # of connection points: 2
#     Edge 38, Type (0, 0), BuildingBlock: XIVTED_clean_linker_0, # of connection points: 2
#     Edge 39, Type (0, 0), BuildingBlock: XIVTED_clean_linker_0, # of connection points: 2
#     Edge 40, Type (0, 0), BuildingBlock: XIVTED_clean_linker_0, # of connection points: 2
#     Edge 41, Type (0, 0), BuildingBlock: XIVTED_clean_linker_0, # of connection points: 2
#     Edge 42, Type (0, 0), BuildingBlock: XIVTED_clean_linker_0, # of connection points: 2
#     Edge 43, Type (0, 0), BuildingBlock: XIVTED_clean_linker_0, # of connection points: 2
#     Edge 44, Type (0, 0), BuildingBlock: XIVTED_clean_linker_0, # of connection points: 2
#     Edge 45, Type (0, 0), BuildingBlock: XIVTED_clean_linker_0, # of connection points: 2
#     Edge 46, Type (0, 0), BuildingBlock: XIVTED_clean_linker_0, # of connection points: 2
#     Edge 47, Type (0, 0), BuildingBlock: XIVTED_clean_linker_0, # of connection points: 2
#     Edge 48, Type (0, 0), BuildingBlock: XIVTED_clean_linker_0, # of connection points: 2
#     Edge 49, Type (0, 0), BuildingBlock: XIVTED_clean_linker_0, # of connection points: 2
#     Edge 50, Type (0, 0), BuildingBlock: XIVTED_clean_linker_0, # of connection points: 2
#     Edge 51, Type (0, 0), BuildingBlock: XIVTED_clean_linker_0, # of connection points: 2
#     Edge 52, Type (0, 0), BuildingBlock: XIVTED_clean_linker_0, # of connection points: 2
#     Edge 53, Type (0, 0), BuildingBlock: XIVTED_clean_linker_0, # of connection points: 2
#     Edge 54, Type (0, 0), BuildingBlock: XIVTED_clean_linker_0, # of connection points: 2
#     Edge 55, Type (0, 0), BuildingBlock: XIVTED_clean_linker_0, # of connection points: 2
# Relax obj value: 0.182
# Max RMSD: 0.095
# Mean RMSD: 0.095
data_MOF--net-zfd--node1-BEQFEK_clean_sbu_0--edge1-XIVTED_clean_linker_0
_symmetry_space_group_name_H-M    P1
_symmetry_Int_Tables_number       1
_symmetry_cell_setting            triclinic
loop_
_symmetry_equiv_pos_as_xyz
'x, y, z'
_cell_length_a     62.718699
_cell_length_b     62.809918
_cell_length_c     23.201239
_cell_angle_alpha  90.166751
_cell_angle_beta   90.089502
_cell_angle_gamma 90.042449
loop_
_atom_site_label
_atom_site_type_symbol
_atom_site_fract_x
_atom_site_fract_y
_atom_site_fract_z
_atom_type_partial_charge
Co0 Co 0.15929 0.23139 0.97474 0.0
Co1 Co 0.13678 0.26141 0.05624 0.0
C2 C 0.15631 0.22335 0.10674 0.0
O3 O 0.163 0.22015 0.05571 0.0
O4 O 0.14334 0.23862 0.11621 0.0
C5 C 0.15083 0.19102 0.94187 0.0
O6 O 0.13574 0.19497 0.97958 0.0
C7 C 0.10557 0.2853 0.12226 0.0
C8 C 0.11591 0.31854 0.10704 0.0
C9 C 0.10027 0.30632 0.13258 0.0
N10 N 0.12346 0.28501 0.09105 0.0
N11 N 0.12976 0.30488 0.08268 0.0
C12 C 0.094 0.26576 0.14179 0.0
H13 H 0.07672 0.26701 0.13235 0.0
H14 H 0.09578 0.26424 0.1892 0.0
H15 H 0.10061 0.25135 0.12061 0.0
C16 C 0.11947 0.23903 0.90203 0.0
N17 N 0.131 0.24092 0.95153 0.0
N18 N 0.12036 0.25275 0.98826 0.0
C19 C 0.10145 0.25836 0.96352 0.0
C20 C 0.09995 0.24963 0.90784 0.0
C21 C 0.12758 0.22885 0.84788 0.0
H22 H 0.14175 0.21895 0.85569 0.0
H23 H 0.11483 0.2192 0.82723 0.0
H24 H 0.13246 0.24148 0.81731 0.0
O25 O 0.18076 0.25494 0.96456 0.0
O26 O 0.1647 0.27368 0.03288 0.0
H27 H 0.07439 0.27972 0.95726 0.0
H28 H 0.07776 0.26657 1.02565 0.0
C29 C 0.08627 0.2741 0.9892 0.0
H30 H 0.09518 0.28809 1.00552 0.0
H31 H 0.14313 0.30916 0.05863 0.0
O32 O 0.16473 0.20531 0.9313 0.0
C33 C 0.18011 0.27113 0.99796 0.0
Co34 Co 0.81753 0.15286 1.00573 0.0
Co35 Co 0.79144 0.12755 0.08943 0.0
C36 C 0.83232 0.14804 0.12945 0.0
O37 O 0.83436 0.15497 0.07821 0.0
O38 O 0.81658 0.13589 0.14238 0.0
C39 C 0.83356 0.18772 0.95756 0.0
O40 O 0.8302 0.19486 1.01002 0.0
C41 C 0.77018 0.09909 0.1724 0.0
C42 C 0.73744 0.09989 0.13631 0.0
C43 C 0.74949 0.09186 0.18113 0.0
N44 N 0.77018 0.11108 0.12481 0.0
N45 N 0.75061 0.11157 0.10365 0.0
C46 C 0.78983 0.09395 0.2062 0.0
H47 H 0.8042 0.09568 0.17872 0.0
H48 H 0.78901 0.07751 0.22351 0.0
H49 H 0.79123 0.10525 0.24287 0.0
C50 C 0.81529 0.11292 0.93369 0.0
N51 N 0.81122 0.12451 0.98169 0.0
N52 N 0.79965 0.11322 1.01736 0.0
C53 C 0.79589 0.09388 0.99277 0.0
C54 C 0.80565 0.09287 0.93817 0.0
C55 C 0.82874 0.12084 0.88503 0.0
H56 H 0.84184 0.13096 0.90196 0.0
H57 H 0.83561 0.10746 0.85988 0.0
H58 H 0.81875 0.13074 0.85608 0.0
O59 O 0.79184 0.17116 1.01159 0.0
O60 O 0.77449 0.15426 0.07929 0.0
H61 H 0.78105 0.06257 0.99372 0.0
H62 H 0.78758 0.07383 0.0637 0.0
C63 C 0.78181 0.0774 1.01953 0.0
H64 H 0.76544 0.08388 1.02328 0.0
H65 H 0.74624 0.11996 0.06671 0.0
O66 O 0.8324 0.16792 0.94707 0.0
C67 C 0.77629 0.17013 0.0461 0.0
Co68 Co 0.90739 0.8241 0.98257 0.0
Co69 Co 0.93188 0.79901 0.07185 0.0
C70 C 0.90782 0.83733 0.11092 0.0
O71 O 0.9014 0.83906 0.0589 0.0
O72 O 0.92148 0.82301 0.12387 0.0
C73 C 0.90808 0.86213 0.92383 0.0
O74 O 0.92039 0.8674 0.96748 0.0
C75 C 0.95022 0.77543 0.16914 0.0
C76 C 0.96725 0.74983 0.12259 0.0
C77 C 0.9629 0.7575 0.17739 0.0
N78 N 0.94794 0.77845 0.11222 0.0
N79 N 0.95762 0.76277 0.08476 0.0
C80 C 0.93811 0.78788 0.21341 0.0
H81 H 0.92234 0.79255 0.19593 0.0
H82 H 0.94706 0.80261 0.2242 0.0
H83 H 0.93555 0.77839 0.25306 0.0
C84 C 0.94904 0.82005 0.91723 0.0
N85 N 0.93688 0.81761 0.96514 0.0
N86 N 0.94828 0.80825 1.00514 0.0
C87 C 0.96842 0.80538 0.98455 0.0
C88 C 0.96967 0.81269 0.92758 0.0
C89 C 0.9405 0.82671 0.85985 0.0
H90 H 0.92323 0.82318 0.8568 0.0
H91 H 0.94324 0.84401 0.85423 0.0
H92 H 0.94891 0.81826 0.82447 0.0
O93 O 0.88945 0.79796 0.97765 0.0
O94 O 0.9063 0.78181 0.04896 0.0
H95 H 0.98891 0.77968 1.00831 0.0
H96 H 1.00153 0.80525 1.00823 0.0
C97 C 0.98657 0.79672 1.01914 0.0
H98 H 0.98334 0.79834 0.06593 0.0
H99 H 0.95745 0.76079 0.0401 0.0
O100 O 0.89879 0.84416 0.92387 0.0
C101 C 0.89127 0.78231 1.01205 0.0
Co102 Co 0.24196 0.90232 0.97739 0.0
Co103 Co 0.26672 0.92574 0.06956 0.0
C104 C 0.22653 0.90379 0.10316 0.0
O105 O 0.22537 0.89743 0.051 0.0
O106 O 0.2414 0.91657 0.11834 0.0
C107 C 0.20469 0.90333 0.91513 0.0
O108 O 0.199 0.91545 0.95872 0.0
C109 C 0.28797 0.94452 0.16987 0.0
C110 C 0.3142 0.96221 0.12816 0.0
C111 C 0.30506 0.95806 0.18133 0.0
N112 N 0.28674 0.94163 0.1127 0.0
N113 N 0.30284 0.95166 0.08817 0.0
C114 C 0.27445 0.93252 0.21187 0.0
H115 H 0.27098 0.91638 0.19479 0.0
H116 H 0.25907 0.94097 0.21773 0.0
H117 H 0.28262 0.93088 0.25409 0.0
C118 C 0.24681 0.9443 0.91425 0.0
N119 N 0.24951 0.93156 0.96088 0.0
N120 N 0.25877 0.94253 1.00207 0.0
C121 C 0.26132 0.96296 0.98352 0.0
C122 C 0.25385 0.96488 0.92675 0.0
C123 C 0.23969 0.93662 0.85631 0.0
H124 H 0.24335 0.91947 0.85104 0.0
H125 H 0.2223 0.93927 0.85189 0.0
H126 H 0.24776 0.94567 0.82157 0.0
O127 O 0.26724 0.8831 0.97761 0.0
O128 O 0.28337 0.89918 0.05048 0.0
H129 H 0.28663 0.98335 1.01113 0.0
H130 H 0.26094 0.9958 1.00975 0.0
C131 C 0.26946 0.98081 1.02023 0.0
H132 H 0.26738 0.9771 0.06658 0.0
H133 H 0.30591 0.95147 0.04399 0.0
O134 O 0.22267 0.89407 0.91633 0.0
C135 C 0.2824 0.88396 1.01411 0.0
Co136 Co 0.14514 0.82606 0.54785 0.0
Co137 Co 0.12276 0.79272 0.47436 0.0
C138 C 0.14075 0.83045 0.41615 0.0
O139 O 0.14704 0.83542 0.46642 0.0
O140 O 0.12895 0.81403 0.40918 0.0
C141 C 0.14004 0.86856 0.57627 0.0
O142 O 0.12249 0.86624 0.54596 0.0
C143 C 0.09017 0.7677 0.41617 0.0
C144 C 0.09807 0.73499 0.44421 0.0
C145 C 0.08314 0.74682 0.41445 0.0
N146 N 0.10833 0.76833 0.4464 0.0
N147 N 0.11322 0.7487 0.46224 0.0
C148 C 0.07968 0.78689 0.39057 0.0
H149 H 0.0823 0.78677 0.34328 0.0
H150 H 0.0866 0.80171 0.40891 0.0
H151 H 0.06223 0.78663 0.39796 0.0
C152 C 0.10603 0.82168 0.62185 0.0
N153 N 0.11749 0.8173 0.57377 0.0
N154 N 0.10717 0.80332 0.54214 0.0
C155 C 0.08862 0.7984 0.56973 0.0
C156 C 0.08708 0.81005 0.62128 0.0
C157 C 0.11386 0.8353 0.67044 0.0
H158 H 0.13152 0.83599 0.67077 0.0
H159 H 0.10743 0.85159 0.66508 0.0
H160 H 0.1081 0.82908 0.71238 0.0
O161 O 0.16723 0.80317 0.5583 0.0
O162 O 0.1513 0.78135 0.49653 0.0
H163 H 0.08024 0.76721 0.54019 0.0
H164 H 0.05889 0.78095 0.5771 0.0
C165 C 0.07254 0.78288 0.5473 0.0
H166 H 0.06636 0.78871 0.50554 0.0
H167 H 0.12633 0.74479 0.48782 0.0
O168 O 0.15211 0.85266 0.58592 0.0
C169 C 0.16708 0.78596 0.52888 0.0
Co170 Co 0.23452 0.14686 0.56866 0.0
Co171 Co 0.26728 0.12437 0.49313 0.0
C172 C 0.22949 0.14512 0.43718 0.0
O173 O 0.2241 0.15056 0.48787 0.0
O174 O 0.24599 0.13348 0.42998 0.0
C175 C 0.19304 0.1416 0.60175 0.0
O176 O 0.1954 0.12534 0.56663 0.0
C177 C 0.28836 0.09183 0.42537 0.0
C178 C 0.32192 0.09507 0.45363 0.0
C179 C 0.30831 0.0825 0.4212 0.0
N180 N 0.28996 0.1088 0.46005 0.0
N181 N 0.31012 0.111 0.4758 0.0
C182 C 0.26788 0.0848 0.39786 0.0
H183 H 0.26155 0.09801 0.37122 0.0
H184 H 0.25581 0.0815 0.43153 0.0
H185 H 0.27008 0.07059 0.37002 0.0
C186 C 0.23906 0.10651 0.63944 0.0
N187 N 0.24274 0.11833 0.59148 0.0
N188 N 0.25616 0.10807 0.55807 0.0
C189 C 0.26135 0.08933 0.58401 0.0
C190 C 0.25049 0.08747 0.63651 0.0
C191 C 0.22707 0.11432 0.69099 0.0
H192 H 0.21077 0.10757 0.69005 0.0
H193 H 0.23487 0.1088 0.73126 0.0
H194 H 0.22614 0.13193 0.69132 0.0
O195 O 0.2587 0.16765 0.58035 0.0
O196 O 0.28138 0.15045 0.52351 0.0
H197 H 0.29275 0.08125 0.55573 0.0
H198 H 0.27829 0.05923 0.58717 0.0
C199 C 0.27688 0.07363 0.55996 0.0
H200 H 0.27142 0.06863 0.51674 0.0
H201 H 0.31561 0.12266 0.50432 0.0
O202 O 0.20874 0.15396 0.61151 0.0
C203 C 0.27701 0.16606 0.55657 0.0
Co204 Co 0.91648 0.2415 0.55255 0.0
Co205 Co 0.93971 0.26938 0.46856 0.0
C206 C 0.91919 0.22833 0.42779 0.0
O207 O 0.91345 0.22517 0.47966 0.0
O208 O 0.93061 0.24462 0.41516 0.0
C209 C 0.88303 0.22494 0.60481 0.0
O210 O 0.87515 0.22795 0.55297 0.0
C211 C 0.96864 0.28905 0.38507 0.0
C212 C 0.96626 0.32286 0.41191 0.0
C213 C 0.97565 0.30944 0.37211 0.0
N214 N 0.95546 0.29046 0.43017 0.0
N215 N 0.95399 0.31066 0.44583 0.0
C216 C 0.97526 0.26843 0.35814 0.0
H217 H 0.97302 0.25515 0.38902 0.0
H218 H 0.99217 0.26912 0.34422 0.0
H219 H 0.96515 0.26531 0.31973 0.0
C220 C 0.95738 0.24408 0.62015 0.0
N221 N 0.94505 0.24842 0.57372 0.0
N222 N 0.95542 0.26101 0.53854 0.0
C223 C 0.97485 0.2653 0.56217 0.0
C224 C 0.97694 0.25471 0.61542 0.0
C225 C 0.95065 0.22931 0.66726 0.0
H226 H 0.94084 0.21619 0.6492 0.0
H227 H 0.96465 0.22244 0.68984 0.0
H228 H 0.94077 0.23822 0.69877 0.0
O229 O 0.89723 0.26681 0.5498 0.0
O230 O 0.913 0.28578 0.48316 0.0
H231 H 1.00377 0.28428 0.56564 0.0
H232 H 0.99683 0.27345 0.49553 0.0
C233 C 0.99045 0.28046 0.53594 0.0
H234 H 0.98218 0.29545 0.52458 0.0
H235 H 0.94472 0.31611 0.48015 0.0
O236 O 0.90303 0.22573 0.61245 0.0
C237 C 0.89747 0.28292 0.51711 0.0
Co238 Co 0.82777 0.91498 0.56405 0.0
Co239 Co 0.79263 0.93553 0.494 0.0
C240 C 0.82972 0.91652 0.43189 0.0
O241 O 0.83606 0.91147 0.48191 0.0
O242 O 0.81268 0.92751 0.42661 0.0
C243 C 0.87092 0.92026 0.58318 0.0
O244 O 0.86784 0.93666 0.54925 0.0
C245 C 0.76664 0.96673 0.43471 0.0
C246 C 0.7339 0.95592 0.45522 0.0
C247 C 0.74535 0.97185 0.42856 0.0
N248 N 0.76788 0.94866 0.46476 0.0
N249 N 0.7483 0.94209 0.47636 0.0
C250 C 0.78555 0.97864 0.41223 0.0
H251 H 0.80058 0.97176 0.42929 0.0
H252 H 0.78455 0.99572 0.42406 0.0
H253 H 0.78562 0.97766 0.36447 0.0
C254 C 0.82278 0.95517 0.63646 0.0
N255 N 0.81891 0.94326 0.58852 0.0
N256 N 0.80431 0.95279 0.55716 0.0
C257 C 0.7985 0.97114 0.58445 0.0
C258 C 0.81019 0.97355 0.63569 0.0
C259 C 0.8369 0.94835 0.68511 0.0
H260 H 0.84914 0.93703 0.67067 0.0
H261 H 0.84474 0.96234 0.70538 0.0
H262 H 0.82708 0.94021 0.71813 0.0
O263 O 0.80515 0.89297 0.58118 0.0
O264 O 0.78086 0.90901 0.52718 0.0
H265 H 0.77457 0.99514 0.6025 0.0
H266 H 0.78427 0.99435 0.52953 0.0
C267 C 0.77981 0.98448 0.5671 0.0
H268 H 0.76624 0.97412 0.55497 0.0
H269 H 0.74472 0.92851 0.50024 0.0
O270 O 0.85522 0.90877 0.59882 0.0
C271 C 0.78635 0.89381 0.56002 0.0
Co272 Co 0.65701 0.74126 0.49841 0.0
Co273 Co 0.62899 0.76441 0.58309 0.0
C274 C 0.65221 0.72396 0.61873 0.0
O275 O 0.65935 0.72257 0.56745 0.0
O276 O 0.63947 0.73912 0.63245 0.0
C277 C 0.69362 0.7294 0.44795 0.0
O278 O 0.70068 0.73217 0.50077 0.0
C279 C 0.60726 0.78587 0.67904 0.0
C280 C 0.59072 0.81142 0.63118 0.0
C281 C 0.5946 0.80389 0.68621 0.0
N282 N 0.61014 0.78278 0.62228 0.0
N283 N 0.60062 0.79836 0.59415 0.0
C284 C 0.61928 0.77389 0.72431 0.0
H285 H 0.63495 0.7687 0.70727 0.0
H286 H 0.6101 0.75948 0.7365 0.0
H287 H 0.62199 0.78389 0.76314 0.0
C288 C 0.61791 0.74315 0.42219 0.0
N289 N 0.6285 0.74674 0.4723 0.0
N290 N 0.61566 0.75594 0.50939 0.0
C291 C 0.5961 0.75783 0.48415 0.0
C292 C 0.5968 0.75011 0.42735 0.0
C293 C 0.62827 0.73419 0.3694 0.0
H294 H 0.64455 0.74085 0.36477 0.0
H295 H 0.6297 0.71667 0.37406 0.0
H296 H 0.61893 0.7378 0.32999 0.0
O297 O 0.67375 0.76734 0.5126 0.0
O298 O 0.65381 0.78455 0.57455 0.0
H299 H 0.57326 0.78191 0.50498 0.0
H300 H 0.5624 0.75561 0.49979 0.0
C301 C 0.57639 0.76494 0.51491 0.0
H302 H 0.5782 0.76295 0.56213 0.0
H303 H 0.60175 0.80066 0.54976 0.0
O304 O 0.67373 0.72925 0.43784 0.0
C305 C 0.6708 0.78322 0.54515 0.0
Co306 Co 0.32583 0.65984 0.46953 0.0
Co307 Co 0.30084 0.63664 0.56004 0.0
C308 C 0.34021 0.65823 0.5977 0.0
O309 O 0.34145 0.66458 0.54554 0.0
O310 O 0.32549 0.64519 0.61228 0.0
C311 C 0.36315 0.65676 0.4086 0.0
O312 O 0.36787 0.64401 0.45156 0.0
C313 C 0.27804 0.60986 0.64384 0.0
C314 C 0.24616 0.60935 0.60249 0.0
C315 C 0.25761 0.60167 0.64882 0.0
N316 N 0.27856 0.62207 0.59668 0.0
N317 N 0.25942 0.62196 0.57268 0.0
C318 C 0.29723 0.60432 0.6791 0.0
H319 H 0.31207 0.60794 0.65509 0.0
H320 H 0.29694 0.58721 0.69097 0.0
H321 H 0.29704 0.61385 0.71944 0.0
C322 C 0.31952 0.61822 0.40422 0.0
N323 N 0.31782 0.63076 0.45175 0.0
N324 N 0.30876 0.61984 0.49292 0.0
C325 C 0.30533 0.5996 0.47373 0.0
C326 C 0.3122 0.59761 0.41617 0.0
C327 C 0.3251 0.62656 0.34588 0.0
H328 H 0.32215 0.64394 0.34376 0.0
H329 H 0.34213 0.6233 0.33707 0.0
H330 H 0.31548 0.61849 0.31207 0.0
O331 O 0.30099 0.67949 0.46656 0.0
O332 O 0.28555 0.66377 0.5404 0.0
H333 H 0.27835 0.58264 0.50565 0.0
H334 H 0.30197 0.56656 0.49702 0.0
C335 C 0.29596 0.58243 0.51032 0.0
H336 H 0.29996 0.58525 0.55627 0.0
H337 H 0.25564 0.62993 0.53461 0.0
O338 O 0.34598 0.66744 0.4104 0.0
C339 C 0.2862 0.67883 0.50393 0.0
Co340 Co 0.411 0.317 0.51282 0.0
Co341 Co 0.43794 0.29002 0.59182 0.0
C342 C 0.41729 0.33073 0.63623 0.0
O343 O 0.41022 0.33361 0.58542 0.0
O344 O 0.42911 0.31454 0.64729 0.0
C345 C 0.37515 0.33313 0.47018 0.0
O346 O 0.36927 0.32994 0.52377 0.0
C347 C 0.47353 0.27107 0.65806 0.0
C348 C 0.46809 0.23701 0.6375 0.0
C349 C 0.48168 0.25076 0.66588 0.0
N350 N 0.45595 0.26939 0.62546 0.0
N351 N 0.45274 0.249 0.61374 0.0
C352 C 0.48183 0.29155 0.68251 0.0
H353 H 0.49638 0.2965 0.65906 0.0
H354 H 0.48627 0.28931 0.72843 0.0
H355 H 0.46972 0.30432 0.67857 0.0
C356 C 0.44997 0.31533 0.43618 0.0
N357 N 0.43911 0.31085 0.48515 0.0
N358 N 0.45101 0.29902 0.51883 0.0
C359 C 0.46989 0.29539 0.49168 0.0
C360 C 0.47009 0.3057 0.43804 0.0
C361 C 0.44066 0.32766 0.38716 0.0
H362 H 0.42415 0.32214 0.37867 0.0
H363 H 0.43988 0.34474 0.39936 0.0
H364 H 0.45029 0.32591 0.34736 0.0
O365 O 0.39263 0.29131 0.52104 0.0
O366 O 0.41195 0.27213 0.58005 0.0
H367 H 0.48221 0.26623 0.52537 0.0
H368 H 0.50197 0.28243 0.48925 0.0
C369 C 0.4877 0.28274 0.51734 0.0
H370 H 0.49225 0.28991 0.55917 0.0
H371 H 0.44037 0.24321 0.58801 0.0
O372 O 0.39472 0.33205 0.45663 0.0
C373 C 0.39505 0.27466 0.55088 0.0
Co374 Co 0.73317 0.4054 0.48176 0.0
Co375 Co 0.76517 0.42664 0.56139 0.0
C376 C 0.72684 0.40794 0.61424 0.0
O377 O 0.72238 0.40171 0.56333 0.0
O378 O 0.743 0.41994 0.62257 0.0
C379 C 0.69263 0.41437 0.44796 0.0
O380 O 0.69636 0.42959 0.48561 0.0
C381 C 0.79188 0.44944 0.64358 0.0
C382 C 0.82347 0.4476 0.60133 0.0
C383 C 0.81319 0.45471 0.65042 0.0
N384 N 0.78973 0.43921 0.59331 0.0
N385 N 0.80863 0.43803 0.56829 0.0
C386 C 0.77349 0.45554 0.68123 0.0
H387 H 0.75867 0.4567 0.65528 0.0
H388 H 0.77649 0.47101 0.70303 0.0
H389 H 0.77122 0.44313 0.71459 0.0
C390 C 0.74002 0.44588 0.41341 0.0
N391 N 0.74287 0.4336 0.46081 0.0
N392 N 0.75563 0.44353 0.49674 0.0
C393 C 0.76095 0.4627 0.47383 0.0
C394 C 0.7511 0.46508 0.4198 0.0
C395 C 0.72924 0.43827 0.35956 0.0
H396 H 0.72839 0.42065 0.35856 0.0
H397 H 0.71289 0.44484 0.35778 0.0
H398 H 0.73794 0.44401 0.32096 0.0
O399 O 0.75634 0.38364 0.46871 0.0
O400 O 0.77668 0.39883 0.53527 0.0
H401 H 0.79217 0.47435 0.49231 0.0
H402 H 0.77204 0.4948 0.48827 0.0
C403 C 0.7754 0.47833 0.50295 0.0
H404 H 0.77346 0.47737 0.55038 0.0
H405 H 0.81135 0.43077 0.52846 0.0
O406 O 0.70707 0.40063 0.43751 0.0
C407 C 0.77313 0.38373 0.49994 0.0
Co408 Co 0.64994 0.33126 0.07826 0.0
Co409 Co 0.62953 0.29824 0.99991 0.0
C410 C 0.64858 0.33607 0.94536 0.0
O411 O 0.65422 0.34122 0.9963 0.0
O412 O 0.63674 0.31977 0.93758 0.0
C413 C 0.64141 0.37246 0.11151 0.0
O414 O 0.62535 0.36905 0.07628 0.0
C415 C 0.60762 0.27094 0.91773 0.0
C416 C 0.60961 0.23954 0.96058 0.0
C417 C 0.60276 0.24956 0.91089 0.0
N418 N 0.6174 0.27338 0.96853 0.0
N419 N 0.61867 0.25461 0.99394 0.0
C420 C 0.60156 0.28911 0.87941 0.0
H421 H 0.60002 0.30398 0.90501 0.0
H422 H 0.58627 0.28586 0.85692 0.0
H423 H 0.61421 0.29144 0.84663 0.0
C424 C 0.60906 0.32456 0.1454 0.0
N425 N 0.62163 0.32151 0.09859 0.0
N426 N 0.61212 0.30823 0.06323 0.0
C427 C 0.5929 0.30277 0.0859 0.0
C428 C 0.59006 0.31307 0.13916 0.0
C429 C 0.61622 0.33586 0.19886 0.0
H430 H 0.63384 0.33729 0.20002 0.0
H431 H 0.60909 0.35196 0.19992 0.0
H432 H 0.61068 0.32722 0.23773 0.0
O433 O 0.67187 0.3085 0.09339 0.0
O434 O 0.65727 0.28728 0.02786 0.0
H435 H 0.58207 0.27116 0.0692 0.0
H436 H 0.56109 0.29077 0.07157 0.0
C437 C 0.5777 0.2877 0.05742 0.0
H438 H 0.57878 0.28922 1.00989 0.0
H439 H 0.62568 0.25211 0.03417 0.0
O440 O 0.65481 0.35764 0.12102 0.0
C441 C 0.67213 0.29141 0.06348 0.0
Co442 Co 0.74379 0.64407 0.05183 0.0
Co443 Co 0.77128 0.61905 0.96954 0.0
C444 C 0.73129 0.64037 0.92576 0.0
O445 O 0.72838 0.64688 0.97717 0.0
O446 O 0.74709 0.62813 0.91416 0.0
C447 C 0.72748 0.67859 0.09879 0.0
O448 O 0.731 0.68526 0.04605 0.0
C449 C 0.79094 0.58443 0.90201 0.0
C450 C 0.82507 0.5911 0.91918 0.0
C451 C 0.81142 0.57696 0.89243 0.0
N452 N 0.79242 0.60214 0.93408 0.0
N453 N 0.81285 0.60612 0.94373 0.0
C454 C 0.77044 0.5755 0.8793 0.0
H455 H 0.75703 0.58657 0.88795 0.0
H456 H 0.76696 0.56 0.89991 0.0
H457 H 0.77188 0.57259 0.83225 0.0
C458 C 0.74518 0.60416 0.12278 0.0
N459 N 0.74968 0.61563 0.07499 0.0
N460 N 0.76217 0.60457 0.04089 0.0
C461 C 0.76623 0.58555 0.0668 0.0
C462 C 0.75546 0.58445 0.11982 0.0
C463 C 0.73253 0.61275 0.17227 0.0
H464 H 0.73875 0.62867 0.1845 0.0
H465 H 0.7157 0.61478 0.15857 0.0
H466 H 0.73322 0.60212 0.21033 0.0
O467 O 0.77 0.662 0.05131 0.0
O468 O 0.7882 0.64551 0.98402 0.0
H469 H 0.79583 0.57523 0.03053 0.0
H470 H 0.78179 0.55472 0.06998 0.0
C471 C 0.77992 0.56856 0.04094 0.0
H472 H 0.77249 0.56298 1.00036 0.0
H473 H 0.81852 0.61877 0.96863 0.0
O474 O 0.72761 0.65877 0.10918 0.0
C475 C 0.78614 0.66098 1.01872 0.0
Co476 Co 0.42251 0.73387 0.04307 0.0
Co477 Co 0.44273 0.77007 0.97456 0.0
C478 C 0.4266 0.73249 0.91009 0.0
O479 O 0.42102 0.72577 0.95948 0.0
O480 O 0.43706 0.74993 0.90605 0.0
C481 C 0.4105 0.69012 0.0586 0.0
O482 O 0.40159 0.69115 1.00752 0.0
C483 C 0.47224 0.7994 0.91857 0.0
C484 C 0.46431 0.8297 0.96241 0.0
C485 C 0.47835 0.82048 0.92403 0.0
N486 N 0.45529 0.79618 0.95235 0.0
N487 N 0.45031 0.81444 0.97751 0.0
C488 C 0.4834 0.78218 0.88561 0.0
H489 H 0.48029 0.7844 0.83892 0.0
H490 H 0.47753 0.76626 0.89883 0.0
H491 H 0.50089 0.78317 0.89227 0.0
C492 C 0.46198 0.73888 0.1158 0.0
N493 N 0.44988 0.7437 0.06911 0.0
N494 N 0.45925 0.7588 0.0395 0.0
C495 C 0.47776 0.76406 0.06696 0.0
C496 C 0.48031 0.75151 0.11651 0.0
C497 C 0.45528 0.72361 0.16169 0.0
H498 H 0.43771 0.72388 0.16686 0.0
H499 H 0.46021 0.70734 0.14883 0.0
H500 H 0.46291 0.72752 0.2036 0.0
O501 O 0.39917 0.75557 0.05748 0.0
O502 O 0.41391 0.77926 0.99927 0.0
H503 H 0.48499 0.7965 0.04763 0.0
H504 H 0.50771 0.78123 0.07204 0.0
C505 C 0.49288 0.78072 0.04603 0.0
H506 H 0.49716 0.77725 1.00072 0.0
H507 H 0.43814 0.81619 1.00778 0.0
O508 O 0.41794 0.70681 0.08234 0.0
C509 C 0.3985 0.77337 0.03095 0.0
Co510 Co 0.32276 0.41203 0.06675 0.0
Co511 Co 0.29811 0.43698 0.9792 0.0
C512 C 0.3382 0.41499 0.94218 0.0
O513 O 0.3398 0.40857 0.99414 0.0
O514 O 0.32306 0.42766 0.92782 0.0
C515 C 0.3368 0.37775 0.12066 0.0
O516 O 0.33383 0.3699 0.06872 0.0
C517 C 0.27809 0.46712 0.89822 0.0
C518 C 0.24564 0.46797 0.93588 0.0
C519 C 0.25813 0.47629 0.89252 0.0
N520 N 0.27737 0.45379 0.94306 0.0
N521 N 0.2579 0.45416 0.96485 0.0
C522 C 0.29794 0.47235 0.86554 0.0
H523 H 0.31228 0.46778 0.8907 0.0
H524 H 0.29849 0.4896 0.85534 0.0
H525 H 0.29792 0.46335 0.82431 0.0
C526 C 0.31963 0.45249 0.13705 0.0
N527 N 0.31655 0.44066 0.08878 0.0
N528 N 0.3063 0.45201 0.05037 0.0
C529 C 0.30299 0.47179 0.0728 0.0
C530 C 0.31118 0.47287 0.12912 0.0
C531 C 0.3305 0.4443 0.18993 0.0
H532 H 0.32015 0.4322 0.21058 0.0
H533 H 0.34562 0.43635 0.17768 0.0
H534 H 0.33385 0.45728 0.22122 0.0
O535 O 0.29674 0.39413 0.0611 0.0
O536 O 0.28067 0.41049 0.99003 0.0
H537 H 0.27404 0.48525 0.04129 0.0
H538 H 0.29351 0.50473 0.06354 0.0
C539 C 0.2913 0.4891 0.04197 0.0
H540 H 0.29691 0.49004 0.99674 0.0
H541 H 0.25318 0.44541 1.00081 0.0
O542 O 0.33721 0.39777 0.1279 0.0
C543 C 0.28173 0.39498 1.02472 0.0
H544 H 0.19748 0.28896 0.09305 0.0
H545 H 0.25562 0.38443 0.93348 0.0
H546 H 0.20135 0.29072 0.90768 0.0
H547 H 0.27355 0.36367 0.1039 0.0
H548 H 0.23254 0.35296 0.92413 0.0
H549 H 0.22258 0.31862 0.09873 0.0
C550 C 0.20384 0.29548 0.05343 0.0
C551 C 0.19743 0.28725 0.9998 0.0
C552 C 0.24155 0.35534 0.96349 0.0
C553 C 0.22585 0.32177 1.00601 0.0
C554 C 0.25457 0.3734 0.96916 0.0
C555 C 0.26649 0.37683 1.01977 0.0
C556 C 0.2401 0.34077 1.00914 0.0
C557 C 0.26464 0.36179 0.0642 0.0
C558 C 0.21816 0.31244 0.05675 0.0
C559 C 0.20609 0.29642 0.94988 0.0
N560 N 0.25162 0.34457 0.05801 0.0
N561 N 0.21966 0.31341 0.95414 0.0
H562 H 0.69498 0.27777 0.97253 0.0
H563 H 0.74749 0.17896 0.13234 0.0
H564 H 0.68959 0.27001 0.15633 0.0
H565 H 0.77077 0.20309 0.97023 0.0
H566 H 0.72402 0.21012 0.14041 0.0
H567 H 0.72106 0.24892 0.96958 0.0
C568 C 0.69962 0.27017 1.01251 0.0
C569 C 0.69034 0.27643 0.06484 0.0
C570 C 0.73431 0.20857 0.10319 0.0
C571 C 0.71974 0.2428 0.0616 0.0
C572 C 0.74757 0.1907 0.09823 0.0
C573 C 0.76108 0.18828 0.0503 0.0
C574 C 0.73426 0.224 0.05949 0.0
C575 C 0.76063 0.20418 1.00784 0.0
C576 C 0.71445 0.25365 1.01077 0.0
C577 C 0.69665 0.26586 0.11527 0.0
N578 N 0.74737 0.22122 1.01325 0.0
N579 N 0.71079 0.24934 0.11234 0.0
H580 H 0.79546 0.68902 0.10615 0.0
H581 H 0.86745 0.76711 0.92077 0.0
H582 H 0.81271 0.67329 0.93121 0.0
H583 H 0.87917 0.75719 0.10195 0.0
H584 H 0.84203 0.73717 0.92196 0.0
H585 H 0.82104 0.71865 0.10402 0.0
C586 C 0.80464 0.69177 0.06735 0.0
C587 C 0.80205 0.67854 1.01894 0.0
C588 C 0.85021 0.74162 0.96134 0.0
C589 C 0.83089 0.71273 1.01579 0.0
C590 C 0.86461 0.75873 0.96076 0.0
C591 C 0.87551 0.76461 1.01127 0.0
C592 C 0.84627 0.73074 1.01312 0.0
C593 C 0.87125 0.75312 0.06191 0.0
C594 C 0.81923 0.70865 0.06622 0.0
C595 C 0.81434 0.68295 0.96971 0.0
N596 N 0.85684 0.73691 0.06168 0.0
N597 N 0.82806 0.69978 0.96917 0.0
H598 H 0.37295 0.78557 0.123 0.0
H599 H 0.29385 0.85563 0.92892 0.0
H600 H 0.38053 0.79298 0.93955 0.0
H601 H 0.3077 0.87238 0.10549 0.0
H602 H 0.32051 0.82711 0.9348 0.0
H603 H 0.34361 0.81188 0.12027 0.0
C604 C 0.36823 0.79245 0.08218 0.0
C605 C 0.37921 0.78714 0.03147 0.0
C606 C 0.31766 0.83702 0.97228 0.0
C607 C 0.34574 0.81692 0.02787 0.0
C608 C 0.30244 0.8533 0.96894 0.0
C609 C 0.29863 0.86661 1.01656 0.0
C610 C 0.32887 0.83362 1.02399 0.0
C611 C 0.31026 0.86271 0.06744 0.0
C612 C 0.35165 0.80755 0.08067 0.0
C613 C 0.37258 0.7967 0.97973 0.0
N614 N 0.32475 0.84654 0.06993 0.0
N615 N 0.3563 0.81098 0.97922 0.0
H616 H 0.19635 0.77713 0.61521 0.0
H617 H 0.27147 0.70483 0.41711 0.0
H618 H 0.18071 0.76195 0.43872 0.0
H619 H 0.26355 0.69183 0.59827 0.0
H620 H 0.24342 0.73208 0.42411 0.0
H621 H 0.22644 0.75183 0.60978 0.0
C622 C 0.19932 0.76862 0.57535 0.0
C623 C 0.18589 0.77152 0.52755 0.0
C624 C 0.24793 0.72328 0.4623 0.0
C625 C 0.22039 0.74309 0.52064 0.0
C626 C 0.26396 0.70779 0.45836 0.0
C627 C 0.26976 0.69589 0.50703 0.0
C628 C 0.23802 0.72732 0.51558 0.0
C629 C 0.25944 0.70045 0.55948 0.0
C630 C 0.21639 0.75417 0.57233 0.0
C631 C 0.19048 0.76005 0.47688 0.0
N632 N 0.24419 0.71586 0.56247 0.0
N633 N 0.20737 0.74651 0.47464 0.0
H634 H 0.39762 0.23313 0.58654 0.0
H635 H 0.27221 0.20942 0.57203 0.0
H636 H 0.35267 0.27955 0.5234 0.0
H637 H 0.31997 0.16034 0.55797 0.0
H638 H 0.30083 0.23638 0.57279 0.0
H639 H 0.3686 0.20714 0.59361 0.0
C640 C 0.38166 0.23788 0.57415 0.0
C641 C 0.37766 0.25855 0.55394 0.0
C642 C 0.30497 0.21967 0.57 0.0
C643 C 0.34422 0.22892 0.56308 0.0
C644 C 0.28868 0.2043 0.57013 0.0
C645 C 0.29371 0.1826 0.56485 0.0
C646 C 0.32641 0.21323 0.56582 0.0
C647 C 0.31535 0.17689 0.56181 0.0
C648 C 0.3651 0.22303 0.57822 0.0
C649 C 0.35657 0.26376 0.5387 0.0
N650 N 0.33084 0.19204 0.5625 0.0
N651 N 0.34063 0.2491 0.54388 0.0
H652 H 0.79178 0.36388 0.40602 0.0
H653 H 0.86583 0.28787 0.59778 0.0
H654 H 0.79095 0.36425 0.59174 0.0
H655 H 0.8858 0.31053 0.43097 0.0
H656 H 0.83413 0.31056 0.59127 0.0
H657 H 0.82191 0.33855 0.40891 0.0
C658 C 0.79763 0.35829 0.44722 0.0
C659 C 0.78885 0.36609 0.4987 0.0
C660 C 0.84548 0.31057 0.55613 0.0
C661 C 0.8231 0.3373 0.50241 0.0
C662 C 0.86362 0.29766 0.55987 0.0
C663 C 0.87869 0.29743 0.51517 0.0
C664 C 0.84205 0.32305 0.50678 0.0
C665 C 0.87478 0.31037 0.46683 0.0
C666 C 0.81492 0.34405 0.44891 0.0
C667 C 0.79726 0.35861 0.55104 0.0
N668 N 0.85681 0.32254 0.46374 0.0
N669 N 0.8138 0.34464 0.55157 0.0
H670 H 0.74417 0.89949 0.58032 0.0
H671 H 0.71244 0.77984 0.51104 0.0
H672 H 0.79141 0.85016 0.56216 0.0
H673 H 0.66893 0.82327 0.59439 0.0
H674 H 0.74112 0.80583 0.52357 0.0
H675 H 0.71619 0.87237 0.5819 0.0
C676 C 0.74867 0.88287 0.57756 0.0
C677 C 0.77017 0.87707 0.5713 0.0
C678 C 0.72533 0.80965 0.53932 0.0
C679 C 0.73806 0.84587 0.57145 0.0
C680 C 0.70884 0.79489 0.53178 0.0
C681 C 0.6881 0.79937 0.55139 0.0
C682 C 0.7211 0.8293 0.56582 0.0
C683 C 0.68459 0.81911 0.57842 0.0
C684 C 0.73267 0.8674 0.57839 0.0
C685 C 0.77507 0.85531 0.56768 0.0
N686 N 0.70085 0.83339 0.58436 0.0
N687 N 0.75911 0.8405 0.56689 0.0
H688 H 1.00783 0.33801 0.38417 0.0
H689 H 0.0606 0.2998 0.09101 0.0
H690 H 0.97806 0.29605 0.26048 0.0
H691 H 0.09516 0.33102 0.22787 0.0
H692 H 1.02712 0.30792 0.14005 0.0
H693 H 0.03649 0.34491 0.31514 0.0
C694 C 1.00724 0.33048 0.34212 0.0
C695 C 0.99116 0.31583 0.3284 0.0
C696 C 0.04198 0.31327 0.15908 0.0
C697 C 1.02349 0.32368 0.24977 0.0
C698 C 0.06099 0.30855 0.13132 0.0
C699 C 0.08038 0.31419 0.15693 0.0
C700 C 0.04255 0.32348 0.21294 0.0
C701 C 0.08034 0.3261 0.20784 0.0
C702 C 1.02353 0.33441 0.30289 0.0
C703 C 0.99075 0.30675 0.27334 0.0
N704 N 0.06161 0.33003 0.23506 0.0
N705 N 1.0069 0.3106 0.23616 0.0
H706 H 0.7511 1.01155 0.47042 0.0
H707 H 0.7201 0.06051 0.16838 0.0
H708 H 0.72041 0.97645 0.33376 0.0
H709 H 0.75968 0.09141 0.29581 0.0
H710 H 0.71001 0.03387 0.2399 0.0
H711 H 0.74378 0.04472 0.41929 0.0
C712 C 0.74244 1.011 0.42998 0.0
C713 C 0.73681 0.99153 0.40493 0.0
C714 C 0.72071 0.04663 0.25239 0.0
C715 C 0.72869 1.02895 0.34622 0.0
C716 C 0.72649 0.06177 0.21166 0.0
C717 C 0.74148 0.0775 0.22581 0.0
C718 C 0.72997 0.04739 0.30742 0.0
C719 C 0.74893 0.07884 0.28254 0.0
C720 C 0.73825 1.02983 0.40092 0.0
C721 C 0.72524 0.99134 0.3535 0.0
N722 N 0.74335 0.06372 0.32119 0.0
N723 N 0.72194 1.00985 0.32491 0.0
H724 H 0.07322 0.71954 0.32701 0.0
H725 H 0.97125 0.77914 0.27881 0.0
H726 H 0.04541 0.75758 0.46204 0.0
H727 H 0.97984 0.71812 0.19545 0.0
H728 H 0.99512 0.76824 0.35423 0.0
H729 H 0.0376 0.71453 0.285 0.0
C730 C 0.05947 0.72633 0.34846 0.0
C731 C 0.06201 0.73956 0.39649 0.0
C732 C 0.99127 0.75689 0.32052 0.0
C733 C 1.02173 0.73415 0.34936 0.0
C734 C 0.97726 0.76306 0.2773 0.0
C735 C 0.97325 0.74952 0.23038 0.0
C736 C 1.00216 0.73749 0.31549 0.0
C737 C 0.98268 0.72921 0.23042 0.0
C738 C 0.0392 0.72343 0.32483 0.0
C739 C 0.04393 0.74785 0.42367 0.0
N740 N 0.99722 0.72402 0.27143 0.0
N741 N 1.02452 0.74545 0.39891 0.0
H742 H 0.34042 0.07016 0.34903 0.0
H743 H 0.27901 0.96687 0.27422 0.0
H744 H 0.28774 0.04608 0.44849 0.0
H745 H 0.34246 0.97798 0.20828 0.0
H746 H 0.28542 0.99239 0.34912 0.0
H747 H 0.34506 0.03457 0.30635 0.0
C748 C 0.33004 0.05727 0.36223 0.0
C749 C 0.31312 0.06104 0.40014 0.0
C750 C 0.29825 0.98891 0.31935 0.0
C751 C 0.3184 1.02068 0.35301 0.0
C752 C 0.29469 0.97385 0.27657 0.0
C753 C 0.31029 0.96989 0.23468 0.0
C754 C 0.31713 1.00087 0.31891 0.0
C755 C 0.32988 0.98066 0.23936 0.0
C756 C 0.33274 0.03701 0.33835 0.0
C757 C 0.30041 0.04393 0.41748 0.0
N758 N 0.33257 0.9961 0.27984 0.0
N759 N 0.30308 1.02455 0.39309 0.0
H760 H 0.06573 0.8445 0.6661 0.0
H761 H 0.99727 0.77938 0.90189 0.0
H762 H 0.0689 0.77629 0.68111 0.0
H763 H 0.98415 0.8444 0.85553 0.0
H764 H 1.02562 0.77837 0.8285 0.0
H765 H 0.0381 0.84518 0.74104 0.0
C766 C 0.0606 0.82962 0.68507 0.0
C767 C 0.06962 0.81029 0.66639 0.0
C768 C 1.01659 0.79289 0.83444 0.0
C769 C 0.03783 0.81095 0.75382 0.0
C770 C 1.00046 0.79355 0.87687 0.0
C771 C 0.98812 0.81202 0.8854 0.0
C772 C 1.0208 0.81095 0.80028 0.0
C773 C 0.99299 0.82972 0.85054 0.0
C774 C 0.04473 0.83001 0.72797 0.0
C775 C 0.06224 0.79156 0.69314 0.0
N776 N 1.00883 0.82876 0.81007 0.0
N777 N 0.04695 0.79235 0.73535 0.0
H778 H 0.22029 0.97945 0.86122 0.0
H779 H 0.28588 0.06966 0.68979 0.0
H780 H 0.28567 0.99432 0.9013 0.0
H781 H 0.21741 0.0653 0.68644 0.0
H782 H 0.28686 0.0409 0.76184 0.0
H783 H 0.21955 1.00919 0.79291 0.0
C784 C 0.23455 0.98895 0.85575 0.0
C785 C 0.25309 0.98414 0.88744 0.0
C786 C 0.2716 0.0462 0.74541 0.0
C787 C 0.25241 1.01861 0.8079 0.0
C788 C 0.27103 0.06258 0.70384 0.0
C789 C 0.25153 0.0699 0.68114 0.0
C790 C 0.25251 0.0367 0.76454 0.0
C791 C 0.23283 0.06026 0.70231 0.0
C792 C 0.23408 1.00607 0.81667 0.0
C793 C 0.27094 0.99738 0.87846 0.0
N794 N 0.2338 0.04419 0.74206 0.0
N795 N 0.27022 1.01377 0.83942 0.0
H796 H 0.9751 0.25832 0.73424 0.0
H797 H 0.10186 0.25844 0.79009 0.0
H798 H 1.02075 0.25174 0.59684 0.0
H799 H 0.05636 0.24563 0.92449 0.0
H800 H 0.07269 0.25948 0.71994 0.0
H801 H 1.00438 0.25721 0.80443 0.0
C802 C 0.99125 0.25658 0.71854 0.0
C803 C 0.99518 0.25507 0.65883 0.0
C804 C 0.06903 0.25638 0.76473 0.0
C805 C 1.02932 0.25425 0.74022 0.0
C806 C 0.08583 0.25556 0.80516 0.0
C807 C 0.08192 0.25155 0.864 0.0
C808 C 0.0478 0.25353 0.78265 0.0
C809 C 0.06039 0.2489 0.88005 0.0
C810 C 1.00806 0.25604 0.75895 0.0
C811 C 1.01672 0.25331 0.64198 0.0
N812 N 0.0443 0.24996 0.84001 0.0
N813 N 0.03282 0.25301 0.6821 0.0
H814 H 0.79814 0.09561 0.82106 0.0
H815 H 0.80787 0.96989 0.75506 0.0
H816 H 0.813 0.04949 0.95207 0.0
H817 H 0.8084 1.01729 0.62129 0.0
H818 H 0.80693 0.99829 0.82757 0.0
H819 H 0.79903 0.06716 0.74828 0.0
C820 C 0.80158 0.07951 0.83476 0.0
C821 C 0.80537 0.07515 0.89345 0.0
C822 C 0.8073 1.00255 0.78239 0.0
C823 C 0.80614 0.04201 0.80932 0.0
C824 C 0.80802 0.98623 0.7406 0.0
C825 C 0.80857 0.99094 0.68124 0.0
C826 C 0.80682 1.02405 0.76542 0.0
C827 C 0.80792 1.01268 0.66618 0.0
C828 C 0.80202 0.06319 0.79294 0.0
C829 C 0.8095 0.05375 0.90791 0.0
N830 N 0.80706 1.02827 0.70762 0.0
N831 N 0.80972 0.03812 0.86651 0.0
H832 H 0.58578 0.78408 0.78949 0.0
H833 H 0.48724 0.84507 0.83111 0.0
H834 H 0.58052 0.84448 0.70187 0.0
H835 H 0.51598 0.81437 0.97759 0.0
H836 H 0.5227 0.84941 0.78845 0.0
H837 H 0.56332 0.79766 0.86561 0.0
C838 C 0.58078 0.8005 0.78718 0.0
C839 C 0.58517 0.81312 0.73891 0.0
C840 C 0.52136 0.84248 0.83099 0.0
C841 C 0.55822 0.82833 0.8248 0.0
C842 C 0.50117 0.84001 0.85508 0.0
C843 C 0.49899 0.82909 0.90704 0.0
C844 C 0.53906 0.8333 0.85858 0.0
C845 C 0.51727 0.82263 0.93686 0.0
C846 C 0.56771 0.80824 0.83079 0.0
C847 C 0.57725 0.83406 0.73787 0.0
N848 N 0.53662 0.82426 0.91137 0.0
N849 N 0.5636 0.84082 0.77933 0.0
H850 H 0.26263 0.47863 0.77631 0.0
H851 H 0.26039 0.60035 0.76566 0.0
H852 H 0.23995 0.51348 0.92441 0.0
H853 H 0.23971 0.56429 0.6173 0.0
H854 H 0.25403 0.56905 0.8263 0.0
H855 H 0.25568 0.50991 0.71612 0.0
C856 C 0.256 0.49285 0.79577 0.0
C857 C 0.25205 0.49383 0.85496 0.0
C858 C 0.25044 0.5682 0.78067 0.0
C859 C 0.24433 0.52926 0.78754 0.0
C860 C 0.25417 0.5859 0.74629 0.0
C861 C 0.25074 0.58456 0.68687 0.0
C862 C 0.24385 0.54909 0.75472 0.0
C863 C 0.24255 0.56573 0.6632 0.0
C864 C 0.25186 0.51052 0.76162 0.0
C865 C 0.24323 0.51234 0.87869 0.0
N866 N 0.23983 0.54843 0.69713 0.0
N867 N 0.24006 0.52963 0.84498 0.0
H868 H 0.6075 0.25519 0.79538 0.0
H869 H 0.48795 0.2186 0.74183 0.0
H870 H 0.56941 0.22226 0.92142 0.0
H871 H 0.5209 0.26778 0.64812 0.0
H872 H 0.52153 0.20939 0.79028 0.0
H873 H 0.58014 0.24805 0.72272 0.0
C874 C 0.59352 0.24606 0.80727 0.0
C875 C 0.59007 0.24006 0.86451 0.0
C876 C 0.52139 0.22204 0.75867 0.0
C877 C 0.55898 0.23194 0.78257 0.0
C878 C 0.50232 0.22737 0.73151 0.0
C879 C 0.50171 0.24454 0.6932 0.0
C880 C 0.53985 0.23381 0.74639 0.0
C881 C 0.52064 0.25512 0.67966 0.0
C882 C 0.57799 0.24197 0.76596 0.0
C883 C 0.57227 0.22757 0.87775 0.0
N884 N 0.53898 0.24972 0.70673 0.0
N885 N 0.55699 0.22436 0.83723 0.0
H886 H 0.84232 0.5712 0.81213 0.0
H887 H 0.80744 0.45093 0.76614 0.0
H888 H 0.79639 0.53738 0.91524 0.0
H889 H 0.83999 0.48834 0.63799 0.0
H890 H 0.81455 0.47872 0.83752 0.0
H891 H 0.85166 0.53765 0.76386 0.0
C892 C 0.83428 0.55665 0.82451 0.0
C893 C 0.81791 0.55697 0.86541 0.0
C894 C 0.82053 0.48066 0.79408 0.0
C895 C 0.82876 0.51887 0.81226 0.0
C896 C 0.81645 0.46487 0.7535 0.0
C897 C 0.82241 0.46795 0.69607 0.0
C898 C 0.83047 0.49959 0.77654 0.0
C899 C 0.83473 0.48575 0.68185 0.0
C900 C 0.83968 0.53758 0.79742 0.0
C901 C 0.80831 0.53782 0.88161 0.0
N902 N 0.83792 0.50128 0.72165 0.0
N903 N 0.81372 0.51951 0.85447 0.0
H904 H 0.57026 0.34585 0.19721 0.0
H905 H 0.49198 0.27214 0.38786 0.0
H906 H 0.56764 0.27767 0.17857 0.0
H907 H 0.48812 0.34054 0.38433 0.0
H908 H 0.52045 0.27356 0.31497 0.0
H909 H 0.54143 0.34402 0.26832 0.0
C910 C 0.56371 0.33043 0.2081 0.0
C911 C 0.57164 0.3119 0.18139 0.0
C912 C 0.51341 0.28829 0.33004 0.0
C913 C 0.53811 0.30964 0.26393 0.0
C914 C 0.49717 0.2875 0.37205 0.0
C915 C 0.48757 0.30626 0.39295 0.0
C916 C 0.52044 0.30804 0.30846 0.0
C917 C 0.4949 0.32563 0.36974 0.0
C918 C 0.54707 0.32941 0.24873 0.0
C919 C 0.56205 0.29245 0.19721 0.0
N920 N 0.51083 0.32602 0.32935 0.0
N921 N 0.54601 0.29183 0.23736 0.0
H922 H 0.72054 0.56477 0.16775 0.0
H923 H 0.78651 0.48806 0.3832 0.0
H924 H 0.78912 0.56359 0.17341 0.0
H925 H 0.71862 0.4838 0.35775 0.0
H926 H 0.78791 0.51678 0.31122 0.0
H927 H 0.7196 0.53643 0.2405 0.0
C928 C 0.73544 0.55853 0.18421 0.0
C929 C 0.75493 0.56661 0.1637 0.0
C930 C 0.77269 0.50959 0.32135 0.0
C931 C 0.75403 0.53388 0.24831 0.0
C932 C 0.77185 0.49322 0.36295 0.0
C933 C 0.7524 0.48328 0.37704 0.0
C934 C 0.75391 0.5164 0.29344 0.0
C935 C 0.73404 0.49065 0.34819 0.0
C936 C 0.7349 0.54226 0.22586 0.0
C937 C 0.7737 0.55776 0.18706 0.0
N938 N 0.73524 0.50663 0.30831 0.0
N939 N 0.77278 0.54204 0.22792 0.0
H940 H 0.58426 0.71734 0.35465 0.0
H941 H 0.49727 0.78582 0.17671 0.0
H942 H 0.56912 0.78245 0.396 0.0
H943 H 0.50327 0.71779 0.16086 0.0
H944 H 0.52504 0.78555 0.25191 0.0
H945 H 0.55646 0.71771 0.27975 0.0
C946 C 0.57515 0.73177 0.348 0.0
C947 C 0.57925 0.7499 0.38215 0.0
C948 C 0.52036 0.77065 0.23197 0.0
C949 C 0.54705 0.75049 0.2953 0.0
C950 C 0.50455 0.77082 0.18854 0.0
C951 C 0.49788 0.75182 0.16164 0.0
C952 C 0.52993 0.75133 0.24888 0.0
C953 C 0.50777 0.73286 0.18009 0.0
C954 C 0.55915 0.73194 0.30518 0.0
C955 C 0.56656 0.768 0.37145 0.0
N956 N 0.52322 0.73312 0.22195 0.0
N957 N 0.55127 0.76788 0.32909 0.0
H958 H 0.3422 0.58598 0.33459 0.0
H959 H 0.29056 0.47503 0.23411 0.0
H960 H 0.2822 0.56466 0.404 0.0
H961 H 0.33052 0.51234 0.12267 0.0
H962 H 0.29022 0.50472 0.30418 0.0
H963 H 0.34118 0.55672 0.26496 0.0
C964 C 0.32863 0.57536 0.33519 0.0
C965 C 0.31207 0.57843 0.3755 0.0
C966 C 0.29902 0.50647 0.26436 0.0
C967 C 0.31132 0.54366 0.29582 0.0
C968 C 0.29925 0.48948 0.22428 0.0
C969 C 0.31047 0.49114 0.17193 0.0
C970 C 0.31056 0.52526 0.25314 0.0
C971 C 0.32151 0.51031 0.16202 0.0
C972 C 0.32819 0.55841 0.29533 0.0
C973 C 0.29551 0.56315 0.3747 0.0
N974 N 0.32144 0.5264 0.20214 0.0
N975 N 0.29561 0.54654 0.33598 0.0
H976 H 0.19381 0.17042 0.44113 0.0
H977 H 0.18549 0.19073 0.09953 0.0
H978 H 0.23669 0.1416 0.31853 0.0
H979 H 0.14832 0.22528 0.22492 0.0
H980 H 0.20226 0.17068 0.17757 0.0
H981 H 0.17529 0.18816 0.36218 0.0
C982 C 0.19932 0.1676 0.39757 0.0
C983 C 0.21705 0.15431 0.38717 0.0
C984 C 0.19038 0.18255 0.18818 0.0
C985 C 0.19552 0.17505 0.29516 0.0
C986 C 0.18065 0.19407 0.14342 0.0
C987 C 0.16528 0.20992 0.15502 0.0
C988 C 0.18483 0.18665 0.24581 0.0
C989 C 0.15995 0.2133 0.21331 0.0
C990 C 0.18866 0.1779 0.35227 0.0
C991 C 0.22317 0.15155 0.3292 0.0
N992 N 0.16967 0.20185 0.25616 0.0
N993 N 0.2125 0.16181 0.2857 0.0
H994 H 0.83234 0.14197 0.2484 0.0
H995 H 0.92251 0.23097 0.30836 0.0
H996 H 0.86695 0.17411 0.1136 0.0
H997 H 0.89388 0.19305 0.44238 0.0
H998 H 0.90318 0.20958 0.23627 0.0
H999 H 0.85537 0.15963 0.32001 0.0
C1000 C 0.84488 0.15248 0.23366 0.0
C1001 C 0.84752 0.15643 0.17445 0.0
C1002 C 0.90129 0.20582 0.28149 0.0
C1003 C 0.87393 0.1771 0.25671 0.0
C1004 C 0.91245 0.21802 0.32277 0.0
C1005 C 0.90997 0.21397 0.38197 0.0
C1006 C 0.88733 0.18947 0.2992 0.0
C1007 C 0.89643 0.19695 0.3975 0.0
C1008 C 0.85803 0.16267 0.27468 0.0
C1009 C 0.86411 0.17045 0.1585 0.0
N1010 N 0.8856 0.18555 0.35673 0.0
N1011 N 0.87645 0.18029 0.19907 0.0
H1012 H 0.81999 0.9174 0.31389 0.0
H1013 H 0.91728 0.83926 0.22753 0.0
H1014 H 0.86764 0.89487 0.43326 0.0
H1015 H 0.87504 0.86661 0.10105 0.0
H1016 H 0.89912 0.85987 0.30269 0.0
H1017 H 0.83957 0.89963 0.235 0.0
C1018 C 0.8346 0.90897 0.32365 0.0
C1019 C 0.84198 0.90776 0.38094 0.0
C1020 C 0.89385 0.8615 0.25846 0.0
C1021 C 0.8645 0.88702 0.29035 0.0
C1022 C 0.90431 0.84969 0.21527 0.0
C1023 C 0.89788 0.85108 0.15726 0.0
C1024 C 0.87654 0.87484 0.24431 0.0
C1025 C 0.88075 0.86495 0.14484 0.0
C1026 C 0.84577 0.89871 0.27848 0.0
C1027 C 0.86107 0.89635 0.39028 0.0
N1028 N 0.87069 0.8761 0.1877 0.0
N1029 N 0.87145 0.88646 0.34602 0.0
H1030 H 0.19557 0.87305 0.08752 0.0
H1031 H 0.16141 0.86877 0.42118 0.0
H1032 H 0.22283 0.91314 0.2197 0.0
H1033 H 0.14125 0.82128 0.29793 0.0
H1034 H 0.18048 0.88734 0.34509 0.0
H1035 H 0.17282 0.85631 0.16032 0.0
C1036 C 0.1967 0.87854 0.13171 0.0
C1037 C 0.21132 0.89469 0.147 0.0
C1038 C 0.17181 0.87296 0.33429 0.0
C1039 C 0.185 0.8753 0.23136 0.0
C1040 C 0.16073 0.86227 0.37791 0.0
C1041 C 0.14958 0.84319 0.36659 0.0
C1042 C 0.17194 0.86476 0.27794 0.0
C1043 C 0.14945 0.83588 0.30911 0.0
C1044 C 0.18368 0.86884 0.17341 0.0
C1045 C 0.21191 0.90086 0.20537 0.0
N1046 N 0.16052 0.84658 0.26719 0.0
N1047 N 0.19904 0.89121 0.24506 0.0
H1048 H 0.92455 0.90218 0.90515 0.0
H1049 H 0.89734 0.88659 0.57644 0.0
H1050 H 0.89551 0.84851 0.81831 0.0
H1051 H 0.88907 0.94727 0.66027 0.0
H1052 H 0.91888 0.87465 0.65778 0.0
H1053 H 0.92872 0.9198 0.81086 0.0
C1054 C 0.91915 0.89411 0.86648 0.0
C1055 C 0.90942 0.87399 0.86952 0.0
C1056 C 0.91315 0.89093 0.65729 0.0
C1057 C 0.91539 0.89324 0.76293 0.0
C1058 C 0.901 0.89772 0.61084 0.0
C1059 C 0.89107 0.91758 0.61325 0.0
C1060 C 0.91425 0.90377 0.70684 0.0
C1061 C 0.89623 0.9316 0.65814 0.0
C1062 C 0.92187 0.90399 0.81304 0.0
C1063 C 0.90288 0.8641 0.81831 0.0
N1064 N 0.90685 0.92412 0.70488 0.0
N1065 N 0.90608 0.87379 0.76728 0.0
H1066 H 0.11513 0.88847 0.6557 0.0
H1067 H 0.21917 0.89091 0.81046 0.0
H1068 H 0.1753 0.8928 0.56744 0.0
H1069 H 0.16491 0.91999 0.89391 0.0
H1070 H 0.20236 0.89619 0.71829 0.0
H1071 H 0.13056 0.90766 0.7376 0.0
C1072 C 0.13128 0.89445 0.65249 0.0
C1073 C 0.14445 0.88833 0.60676 0.0
C1074 C 0.19413 0.90174 0.75648 0.0
C1075 C 0.16203 0.90982 0.69897 0.0
C1076 C 0.20358 0.89833 0.80944 0.0
C1077 C 0.1933 0.90481 0.86002 0.0
C1078 C 0.17376 0.9109 0.75374 0.0
C1079 C 0.17322 0.91455 0.85577 0.0
C1080 C 0.14008 0.9054 0.69917 0.0
C1081 C 0.16499 0.89674 0.60334 0.0
N1082 N 0.16381 0.91692 0.80333 0.0
N1083 N 0.17343 0.90665 0.64984 0.0
H1084 H 0.17017 0.1767 0.62927 0.0
H1085 H 0.11494 0.18186 0.88204 0.0
H1086 H 0.17438 0.10921 0.66038 0.0
H1087 H 0.18023 0.16231 0.90572 0.0
H1088 H 0.11394 0.16221 0.79033 0.0
H1089 H 0.14762 0.18031 0.71466 0.0
C1090 C 0.16568 0.16257 0.65306 0.0
C1091 C 0.17444 0.14277 0.6393 0.0
C1092 C 0.12801 0.16133 0.81738 0.0
C1093 C 0.14963 0.14685 0.737 0.0
C1094 C 0.12867 0.17251 0.8693 0.0
C1095 C 0.14787 0.17387 0.90017 0.0
C1096 C 0.14649 0.1511 0.79806 0.0
C1097 C 0.16529 0.16176 0.88227 0.0
C1098 C 0.15272 0.16456 0.70128 0.0
C1099 C 0.1682 0.12483 0.6709 0.0
N1100 N 0.16429 0.15102 0.83164 0.0
N1101 N 0.15701 0.12744 0.72045 0.0
H1102 H 0.85187 0.22702 0.94906 0.0
H1103 H 0.84065 0.21564 0.61397 0.0
H1104 H 0.8119 0.18208 0.85851 0.0
H1105 H 0.89386 0.24273 0.70702 0.0
H1106 H 0.81903 0.21845 0.70172 0.0
H1107 H 0.855 0.24783 0.86 0.0
C1108 C 0.84349 0.22182 0.91063 0.0
C1109 C 0.83276 0.20234 0.90925 0.0
C1110 C 0.83532 0.22421 0.70227 0.0
C1111 C 0.83582 0.2258 0.80924 0.0
C1112 C 0.84767 0.22229 0.65274 0.0
C1113 C 0.86927 0.22777 0.65477 0.0
C1114 C 0.84482 0.23163 0.75343 0.0
C1115 C 0.87752 0.23719 0.70486 0.0
C1116 C 0.84504 0.23372 0.86028 0.0
C1117 C 0.82137 0.1965 0.85977 0.0
N1118 N 0.86536 0.2385 0.75265 0.0
N1119 N 0.82354 0.208 0.8111 0.0
H1120 H 0.69566 0.66525 0.93917 0.0
H1121 H 0.67961 0.6903 0.60242 0.0
H1122 H 0.73449 0.63704 0.80603 0.0
H1123 H 0.64573 0.72327 0.73747 0.0
H1124 H 0.69717 0.66832 0.67502 0.0
H1125 H 0.67502 0.68371 0.86556 0.0
C1126 C 0.69979 0.66267 0.89438 0.0
C1127 C 0.71707 0.6494 0.87935 0.0
C1128 C 0.68579 0.68023 0.68892 0.0
C1129 C 0.69314 0.67101 0.79369 0.0
C1130 C 0.6756 0.69284 0.64731 0.0
C1131 C 0.66099 0.70887 0.66331 0.0
C1132 C 0.6815 0.68343 0.7477 0.0
C1133 C 0.65672 0.71118 0.72258 0.0
C1134 C 0.68793 0.67339 0.85219 0.0
C1135 C 0.72138 0.64695 0.82014 0.0
N1136 N 0.66695 0.69873 0.76234 0.0
N1137 N 0.70961 0.65768 0.77975 0.0
H1138 H 0.34681 0.6462 0.71141 0.0
H1139 H 0.41999 0.74672 0.7976 0.0
H1140 H 0.3677 0.69225 0.58606 0.0
H1141 H 0.41355 0.69086 0.90348 0.0
H1142 H 0.40054 0.72802 0.71996 0.0
H1143 H 0.36997 0.66333 0.78342 0.0
C1144 C 0.35631 0.6598 0.69876 0.0
C1145 C 0.3552 0.6676 0.64204 0.0
C1146 C 0.40351 0.71982 0.76016 0.0
C1147 C 0.38176 0.68771 0.7253 0.0
C1148 C 0.41481 0.73047 0.80446 0.0
C1149 C 0.41829 0.72058 0.85805 0.0
C1150 C 0.39541 0.69913 0.76938 0.0
C1151 C 0.41089 0.69947 0.86392 0.0
C1152 C 0.3696 0.66963 0.74005 0.0
C1153 C 0.36799 0.68547 0.62889 0.0
N1154 N 0.39972 0.68966 0.82086 0.0
N1155 N 0.38049 0.69493 0.66999 0.0
H1156 H 0.37081 0.38639 0.95919 0.0
H1157 H 0.39477 0.36777 0.62273 0.0
H1158 H 0.339 0.42072 0.8232 0.0
H1159 H 0.4207 0.32764 0.75611 0.0
H1160 H 0.37756 0.38957 0.69613 0.0
H1161 H 0.39194 0.36749 0.88698 0.0
C1162 C 0.36837 0.39022 0.91418 0.0
C1163 C 0.3529 0.40537 0.89779 0.0
C1164 C 0.38712 0.37613 0.70962 0.0
C1165 C 0.37735 0.3833 0.81391 0.0
C1166 C 0.39712 0.36359 0.66754 0.0
C1167 C 0.40934 0.34559 0.68268 0.0
C1168 C 0.38917 0.3709 0.76815 0.0
C1169 C 0.41159 0.34129 0.74193 0.0
C1170 C 0.38048 0.37925 0.87281 0.0
C1171 C 0.35066 0.40934 0.83839 0.0
N1172 N 0.40155 0.35373 0.78225 0.0
N1173 N 0.36263 0.39838 0.7989 0.0
H1174 H 0.73119 0.41588 0.73165 0.0
H1175 H 0.64257 0.32972 0.82777 0.0
H1176 H 0.69273 0.3803 0.61085 0.0
H1177 H 0.67616 0.37022 0.94785 0.0
H1178 H 0.66035 0.34826 0.74795 0.0
H1179 H 0.71105 0.3997 0.81112 0.0
C1180 C 0.71844 0.40483 0.72162 0.0
C1181 C 0.71379 0.39959 0.66391 0.0
C1182 C 0.66374 0.35319 0.79177 0.0
C1183 C 0.6906 0.38064 0.75552 0.0
C1184 C 0.65349 0.3426 0.83755 0.0
C1185 C 0.65771 0.34829 0.89519 0.0
C1186 C 0.67853 0.3696 0.80322 0.0
C1187 C 0.67224 0.36514 0.90449 0.0
C1188 C 0.70692 0.39551 0.7672 0.0
C1189 C 0.69703 0.38497 0.65428 0.0
N1190 N 0.68211 0.37502 0.85939 0.0
N1191 N 0.68623 0.37603 0.69923 0.0
H1192 H 0.34425 0.33513 0.13185 0.0
H1193 H 0.33589 0.35175 0.46389 0.0
H1194 H 0.3182 0.38965 0.22074 0.0
H1195 H 0.37827 0.3088 0.37501 0.0
H1196 H 0.31344 0.35322 0.37716 0.0
H1197 H 0.34047 0.31433 0.22059 0.0
C1198 C 0.33759 0.3426 0.16992 0.0
C1199 C 0.33283 0.36435 0.17067 0.0
C1200 C 0.32733 0.34297 0.37739 0.0
C1201 C 0.32796 0.34087 0.27053 0.0
C1202 C 0.34017 0.34237 0.42639 0.0
C1203 C 0.35945 0.3313 0.42434 0.0
C1204 C 0.33417 0.33255 0.32694 0.0
C1205 C 0.36406 0.31858 0.37637 0.0
C1206 C 0.3351 0.33072 0.22003 0.0
C1207 C 0.3233 0.37319 0.21975 0.0
N1208 N 0.35171 0.31989 0.32885 0.0
N1209 N 0.32154 0.3615 0.26822 0.0
H1210 H 0.67708 0.45027 0.39801 0.0
H1211 H 0.67471 0.39821 0.1372 0.0
H1212 H 0.66754 0.3824 0.40821 0.0
H1213 H 0.60809 0.38811 0.17319 0.0
H1214 H 0.67747 0.42001 0.22436 0.0
H1215 H 0.65573 0.4509 0.30903 0.0
C1216 C 0.66965 0.4357 0.38297 0.0
C1217 C 0.67449 0.4161 0.40874 0.0
C1218 C 0.66201 0.41381 0.21173 0.0
C1219 C 0.64952 0.417 0.31039 0.0
C1220 C 0.66051 0.40128 0.16245 0.0
C1221 C 0.64133 0.39099 0.14957 0.0
C1222 C 0.64457 0.41488 0.24938 0.0
C1223 C 0.62329 0.39542 0.18309 0.0
C1224 C 0.65744 0.43616 0.33271 0.0
C1225 C 0.66448 0.39769 0.38841 0.0
N1226 N 0.62559 0.40615 0.23361 0.0
N1227 N 0.65263 0.39853 0.33966 0.0
H1228 H 0.71745 0.72081 0.10494 0.0
H1229 H 0.73386 0.71325 0.43795 0.0
H1230 H 0.74784 0.66991 0.19867 0.0
H1231 H 0.68676 0.75117 0.34987 0.0
H1232 H 0.75413 0.71068 0.34777 0.0
H1233 H 0.72139 0.7438 0.19008 0.0
C1234 C 0.72506 0.7146 0.14332 0.0
C1235 C 0.73109 0.69321 0.14666 0.0
C1236 C 0.73968 0.72012 0.3488 0.0
C1237 C 0.73625 0.7192 0.24222 0.0
C1238 C 0.72809 0.72137 0.39985 0.0
C1239 C 0.70815 0.73124 0.39948 0.0
C1240 C 0.73093 0.72869 0.29803 0.0
C1241 C 0.70157 0.74231 0.35035 0.0
C1242 C 0.72763 0.72773 0.1913 0.0
C1243 C 0.74179 0.68602 0.1959 0.0
N1244 N 0.71274 0.74036 0.30095 0.0
N1245 N 0.74371 0.6989 0.24227 0.0
H1246 H 0.40099 0.63634 0.38479 0.0
H1247 H 0.37884 0.66037 0.05803 0.0
H1248 H 0.34884 0.67031 0.30493 0.0
H1249 H 0.43937 0.67551 0.1363 0.0
H1250 H 0.37029 0.63818 0.1412 0.0
H1251 H 0.41607 0.62987 0.28802 0.0
C1252 C 0.3927 0.64229 0.34716 0.0
C1253 C 0.37381 0.65412 0.35281 0.0
C1254 C 0.38591 0.64551 0.13867 0.0
C1255 C 0.38988 0.64532 0.2438 0.0
C1256 C 0.39072 0.65825 0.09149 0.0
C1257 C 0.40919 0.67069 0.09279 0.0
C1258 C 0.39954 0.64583 0.18677 0.0
C1259 C 0.42436 0.66702 0.13603 0.0
C1260 C 0.40104 0.6382 0.29241 0.0
C1261 C 0.36355 0.66133 0.3029 0.0
N1262 N 0.41893 0.65536 0.18274 0.0
N1263 N 0.37167 0.6567 0.25061 0.0
loop_
_geom_bond_atom_site_label_1
_geom_bond_atom_site_label_2
_geom_bond_distance
_geom_bond_site_symmetry_2
_ccdc_geom_bond_type
Co0 O3 1.970 1_556 S
Co0 N17 1.989 . S
Co0 O25 1.967 . S
Co0 O32 1.920 . S
Co1 O4 1.966 . S
Co1 N10 2.022 . S
Co1 N18 1.993 1_554 S
Co1 O26 1.941 . S
C2 O3 1.258 . S
C2 O4 1.263 . S
O3 Co0 1.970 1_554 S
O3 C2 1.258 . S
O4 Co1 1.966 . S
O4 C2 1.263 . S
C5 O6 1.235 . S
C5 O32 1.289 . S
O6 C5 1.235 . S
C7 C9 1.400 . S
C7 N10 1.351 . S
C7 C12 1.501 . S
C8 C9 1.387 . S
C8 N11 1.341 . S
C9 C7 1.400 . S
C9 C8 1.387 . S
N10 Co1 2.022 . S
N10 C7 1.351 . S
N10 N11 1.365 . S
N11 C8 1.341 . S
N11 N10 1.365 . S
N11 H31 0.862 . S
C12 C7 1.501 . S
C12 H13 0.961 . S
C12 H14 0.961 . S
C12 H15 0.960 . S
H13 C12 0.961 . S
H14 C12 0.961 . S
H15 C12 0.960 . S
C16 N17 1.342 . S
C16 C20 1.401 . S
C16 C21 1.499 . S
N17 Co0 1.989 . S
N17 C16 1.342 . S
N17 N18 1.388 . S
N18 Co1 1.993 1_556 S
N18 N17 1.388 . S
N18 C19 1.346 . S
C19 N18 1.346 . S
C19 C20 1.396 . S
C19 C29 1.510 . S
C20 C16 1.401 . S
C20 C19 1.396 . S
C21 C16 1.499 . S
C21 H22 0.959 . S
C21 H23 0.960 . S
C21 H24 0.961 . S
H22 C21 0.959 . S
H23 C21 0.960 . S
H24 C21 0.961 . S
O25 Co0 1.967 . S
O25 C33 1.258 1_556 S
O26 Co1 1.941 . S
O26 C33 1.266 . S
H27 C29 0.959 . S
H28 C29 0.961 . S
C29 C19 1.510 . S
C29 H27 0.959 . S
C29 H28 0.961 . S
C29 H30 0.960 1_556 S
H30 C29 0.960 1_554 S
H31 N11 0.862 . S
O32 Co0 1.920 . S
O32 C5 1.289 . S
C33 O25 1.258 1_554 S
C33 O26 1.266 . S
Co34 O37 1.970 1_556 S
Co34 N51 1.989 . S
Co34 O59 1.967 . S
Co34 O66 1.920 . S
Co35 O38 1.966 . S
Co35 N44 2.022 . S
Co35 N52 1.993 1_554 S
Co35 O60 1.941 . S
C36 O37 1.258 . S
C36 O38 1.263 . S
O37 Co34 1.970 1_554 S
O37 C36 1.258 . S
O38 Co35 1.966 . S
O38 C36 1.263 . S
C39 O40 1.235 . S
C39 O66 1.289 . S
O40 C39 1.235 . S
C41 C43 1.400 . S
C41 N44 1.351 . S
C41 C46 1.501 . S
C42 C43 1.387 . S
C42 N45 1.341 . S
C43 C41 1.400 . S
C43 C42 1.387 . S
N44 Co35 2.022 . S
N44 C41 1.351 . S
N44 N45 1.365 . S
N45 C42 1.341 . S
N45 N44 1.365 . S
N45 H65 0.862 . S
C46 C41 1.501 . S
C46 H47 0.961 . S
C46 H48 0.961 . S
C46 H49 0.960 . S
H47 C46 0.961 . S
H48 C46 0.961 . S
H49 C46 0.960 . S
C50 N51 1.342 . S
C50 C54 1.401 . S
C50 C55 1.499 . S
N51 Co34 1.989 . S
N51 C50 1.342 . S
N51 N52 1.388 . S
N52 Co35 1.993 1_556 S
N52 N51 1.388 . S
N52 C53 1.346 . S
C53 N52 1.346 . S
C53 C54 1.396 . S
C53 C63 1.510 . S
C54 C50 1.401 . S
C54 C53 1.396 . S
C55 C50 1.499 . S
C55 H56 0.959 . S
C55 H57 0.960 . S
C55 H58 0.961 . S
H56 C55 0.959 . S
H57 C55 0.960 . S
H58 C55 0.961 . S
O59 Co34 1.967 . S
O59 C67 1.258 1_556 S
O60 Co35 1.941 . S
O60 C67 1.266 . S
H61 C63 0.959 . S
H62 C63 0.961 . S
C63 C53 1.510 . S
C63 H61 0.959 . S
C63 H62 0.961 . S
C63 H64 0.960 1_556 S
H64 C63 0.960 1_554 S
H65 N45 0.862 . S
O66 Co34 1.920 . S
O66 C39 1.289 . S
C67 O59 1.258 1_554 S
C67 O60 1.266 . S
Co68 O71 1.970 1_556 S
Co68 N85 1.989 . S
Co68 O93 1.967 . S
Co68 O100 1.920 . S
Co69 O72 1.966 . S
Co69 N78 2.022 . S
Co69 N86 1.993 1_554 S
Co69 O94 1.941 . S
C70 O71 1.258 . S
C70 O72 1.263 . S
O71 Co68 1.970 1_554 S
O71 C70 1.258 . S
O72 Co69 1.966 . S
O72 C70 1.263 . S
C73 O74 1.235 . S
C73 O100 1.289 . S
O74 C73 1.235 . S
C75 C77 1.400 . S
C75 N78 1.351 . S
C75 C80 1.501 . S
C76 C77 1.387 . S
C76 N79 1.341 . S
C77 C75 1.400 . S
C77 C76 1.387 . S
N78 Co69 2.022 . S
N78 C75 1.351 . S
N78 N79 1.365 . S
N79 C76 1.341 . S
N79 N78 1.365 . S
N79 H99 0.862 . S
C80 C75 1.501 . S
C80 H81 0.961 . S
C80 H82 0.961 . S
C80 H83 0.960 . S
H81 C80 0.961 . S
H82 C80 0.961 . S
H83 C80 0.960 . S
C84 N85 1.342 . S
C84 C88 1.401 . S
C84 C89 1.499 . S
N85 Co68 1.989 . S
N85 C84 1.342 . S
N85 N86 1.388 . S
N86 Co69 1.993 1_556 S
N86 N85 1.388 . S
N86 C87 1.346 . S
C87 N86 1.346 . S
C87 C88 1.396 . S
C87 C97 1.510 . S
C88 C84 1.401 . S
C88 C87 1.396 . S
C89 C84 1.499 . S
C89 H90 0.959 . S
C89 H91 0.960 . S
C89 H92 0.961 . S
H90 C89 0.959 . S
H91 C89 0.960 . S
H92 C89 0.961 . S
O93 Co68 1.967 . S
O93 C101 1.258 1_556 S
O94 Co69 1.941 . S
O94 C101 1.266 . S
H95 C97 0.959 . S
H96 C97 0.961 . S
C97 C87 1.510 . S
C97 H95 0.959 . S
C97 H96 0.961 . S
C97 H98 0.960 1_556 S
H98 C97 0.960 1_554 S
H99 N79 0.862 . S
O100 Co68 1.920 . S
O100 C73 1.289 . S
C101 O93 1.258 1_554 S
C101 O94 1.266 . S
Co102 O105 1.970 1_556 S
Co102 N119 1.989 . S
Co102 O127 1.967 . S
Co102 O134 1.920 . S
Co103 O106 1.966 . S
Co103 N112 2.022 . S
Co103 N120 1.993 1_554 S
Co103 O128 1.941 . S
C104 O105 1.258 . S
C104 O106 1.263 . S
O105 Co102 1.970 1_554 S
O105 C104 1.258 . S
O106 Co103 1.966 . S
O106 C104 1.263 . S
C107 O108 1.235 . S
C107 O134 1.289 . S
O108 C107 1.235 . S
C109 C111 1.400 . S
C109 N112 1.351 . S
C109 C114 1.501 . S
C110 C111 1.387 . S
C110 N113 1.341 . S
C111 C109 1.400 . S
C111 C110 1.387 . S
N112 Co103 2.022 . S
N112 C109 1.351 . S
N112 N113 1.365 . S
N113 C110 1.341 . S
N113 N112 1.365 . S
N113 H133 0.862 . S
C114 C109 1.501 . S
C114 H115 0.961 . S
C114 H116 0.961 . S
C114 H117 0.960 . S
H115 C114 0.961 . S
H116 C114 0.961 . S
H117 C114 0.960 . S
C118 N119 1.342 . S
C118 C122 1.401 . S
C118 C123 1.499 . S
N119 Co102 1.989 . S
N119 C118 1.342 . S
N119 N120 1.388 . S
N120 Co103 1.993 1_556 S
N120 N119 1.388 . S
N120 C121 1.346 . S
C121 N120 1.346 . S
C121 C122 1.396 . S
C121 C131 1.510 . S
C122 C118 1.401 . S
C122 C121 1.396 . S
C123 C118 1.499 . S
C123 H124 0.959 . S
C123 H125 0.960 . S
C123 H126 0.961 . S
H124 C123 0.959 . S
H125 C123 0.960 . S
H126 C123 0.961 . S
O127 Co102 1.967 . S
O127 C135 1.258 1_556 S
O128 Co103 1.941 . S
O128 C135 1.266 . S
H129 C131 0.959 . S
H130 C131 0.961 . S
C131 C121 1.510 . S
C131 H129 0.959 . S
C131 H130 0.961 . S
C131 H132 0.960 1_556 S
H132 C131 0.960 1_554 S
H133 N113 0.862 . S
O134 Co102 1.920 . S
O134 C107 1.289 . S
C135 O127 1.258 1_554 S
C135 O128 1.266 . S
Co136 O139 1.970 . S
Co136 N153 1.989 . S
Co136 O161 1.967 . S
Co136 O168 1.920 . S
Co137 O140 1.966 . S
Co137 N146 2.022 . S
Co137 N154 1.993 . S
Co137 O162 1.941 . S
C138 O139 1.258 . S
C138 O140 1.263 . S
O139 Co136 1.970 . S
O139 C138 1.258 . S
O140 Co137 1.966 . S
O140 C138 1.263 . S
C141 O142 1.235 . S
C141 O168 1.289 . S
O142 C141 1.235 . S
C143 C145 1.400 . S
C143 N146 1.351 . S
C143 C148 1.501 . S
C144 C145 1.387 . S
C144 N147 1.341 . S
C145 C143 1.400 . S
C145 C144 1.387 . S
N146 Co137 2.022 . S
N146 C143 1.351 . S
N146 N147 1.365 . S
N147 C144 1.341 . S
N147 N146 1.365 . S
N147 H167 0.862 . S
C148 C143 1.501 . S
C148 H149 0.961 . S
C148 H150 0.961 . S
C148 H151 0.960 . S
H149 C148 0.961 . S
H150 C148 0.961 . S
H151 C148 0.960 . S
C152 N153 1.342 . S
C152 C156 1.401 . S
C152 C157 1.499 . S
N153 Co136 1.989 . S
N153 C152 1.342 . S
N153 N154 1.388 . S
N154 Co137 1.993 . S
N154 N153 1.388 . S
N154 C155 1.346 . S
C155 N154 1.346 . S
C155 C156 1.396 . S
C155 C165 1.510 . S
C156 C152 1.401 . S
C156 C155 1.396 . S
C157 C152 1.499 . S
C157 H158 0.959 . S
C157 H159 0.960 . S
C157 H160 0.961 . S
H158 C157 0.959 . S
H159 C157 0.960 . S
H160 C157 0.961 . S
O161 Co136 1.967 . S
O161 C169 1.258 . S
O162 Co137 1.941 . S
O162 C169 1.266 . S
H163 C165 0.959 . S
H164 C165 0.961 . S
C165 C155 1.510 . S
C165 H163 0.959 . S
C165 H164 0.961 . S
C165 H166 0.960 . S
H166 C165 0.960 . S
H167 N147 0.862 . S
O168 Co136 1.920 . S
O168 C141 1.289 . S
C169 O161 1.258 . S
C169 O162 1.266 . S
Co170 O173 1.970 . S
Co170 N187 1.989 . S
Co170 O195 1.967 . S
Co170 O202 1.920 . S
Co171 O174 1.966 . S
Co171 N180 2.022 . S
Co171 N188 1.993 . S
Co171 O196 1.941 . S
C172 O173 1.258 . S
C172 O174 1.263 . S
O173 Co170 1.970 . S
O173 C172 1.258 . S
O174 Co171 1.966 . S
O174 C172 1.263 . S
C175 O176 1.235 . S
C175 O202 1.289 . S
O176 C175 1.235 . S
C177 C179 1.400 . S
C177 N180 1.351 . S
C177 C182 1.501 . S
C178 C179 1.387 . S
C178 N181 1.341 . S
C179 C177 1.400 . S
C179 C178 1.387 . S
N180 Co171 2.022 . S
N180 C177 1.351 . S
N180 N181 1.365 . S
N181 C178 1.341 . S
N181 N180 1.365 . S
N181 H201 0.862 . S
C182 C177 1.501 . S
C182 H183 0.961 . S
C182 H184 0.961 . S
C182 H185 0.960 . S
H183 C182 0.961 . S
H184 C182 0.961 . S
H185 C182 0.960 . S
C186 N187 1.342 . S
C186 C190 1.401 . S
C186 C191 1.499 . S
N187 Co170 1.989 . S
N187 C186 1.342 . S
N187 N188 1.388 . S
N188 Co171 1.993 . S
N188 N187 1.388 . S
N188 C189 1.346 . S
C189 N188 1.346 . S
C189 C190 1.396 . S
C189 C199 1.510 . S
C190 C186 1.401 . S
C190 C189 1.396 . S
C191 C186 1.499 . S
C191 H192 0.959 . S
C191 H193 0.960 . S
C191 H194 0.961 . S
H192 C191 0.959 . S
H193 C191 0.960 . S
H194 C191 0.961 . S
O195 Co170 1.967 . S
O195 C203 1.258 . S
O196 Co171 1.941 . S
O196 C203 1.266 . S
H197 C199 0.959 . S
H198 C199 0.961 . S
C199 C189 1.510 . S
C199 H197 0.959 . S
C199 H198 0.961 . S
C199 H200 0.960 . S
H200 C199 0.960 . S
H201 N181 0.862 . S
O202 Co170 1.920 . S
O202 C175 1.289 . S
C203 O195 1.258 . S
C203 O196 1.266 . S
Co204 O207 1.970 . S
Co204 N221 1.989 . S
Co204 O229 1.967 . S
Co204 O236 1.920 . S
Co205 O208 1.966 . S
Co205 N214 2.022 . S
Co205 N222 1.993 . S
Co205 O230 1.941 . S
C206 O207 1.258 . S
C206 O208 1.263 . S
O207 Co204 1.970 . S
O207 C206 1.258 . S
O208 Co205 1.966 . S
O208 C206 1.263 . S
C209 O210 1.235 . S
C209 O236 1.289 . S
O210 C209 1.235 . S
C211 C213 1.400 . S
C211 N214 1.351 . S
C211 C216 1.501 . S
C212 C213 1.387 . S
C212 N215 1.341 . S
C213 C211 1.400 . S
C213 C212 1.387 . S
N214 Co205 2.022 . S
N214 C211 1.351 . S
N214 N215 1.365 . S
N215 C212 1.341 . S
N215 N214 1.365 . S
N215 H235 0.862 . S
C216 C211 1.501 . S
C216 H217 0.961 . S
C216 H218 0.961 . S
C216 H219 0.960 . S
H217 C216 0.961 . S
H218 C216 0.961 . S
H219 C216 0.960 . S
C220 N221 1.342 . S
C220 C224 1.401 . S
C220 C225 1.499 . S
N221 Co204 1.989 . S
N221 C220 1.342 . S
N221 N222 1.388 . S
N222 Co205 1.993 . S
N222 N221 1.388 . S
N222 C223 1.346 . S
C223 N222 1.346 . S
C223 C224 1.396 . S
C223 C233 1.510 . S
C224 C220 1.401 . S
C224 C223 1.396 . S
C225 C220 1.499 . S
C225 H226 0.959 . S
C225 H227 0.960 . S
C225 H228 0.961 . S
H226 C225 0.959 . S
H227 C225 0.960 . S
H228 C225 0.961 . S
O229 Co204 1.967 . S
O229 C237 1.258 . S
O230 Co205 1.941 . S
O230 C237 1.266 . S
H231 C233 0.959 . S
H232 C233 0.961 . S
C233 C223 1.510 . S
C233 H231 0.959 . S
C233 H232 0.961 . S
C233 H234 0.960 . S
H234 C233 0.960 . S
H235 N215 0.862 . S
O236 Co204 1.920 . S
O236 C209 1.289 . S
C237 O229 1.258 . S
C237 O230 1.266 . S
Co238 O241 1.970 . S
Co238 N255 1.989 . S
Co238 O263 1.967 . S
Co238 O270 1.920 . S
Co239 O242 1.966 . S
Co239 N248 2.022 . S
Co239 N256 1.993 . S
Co239 O264 1.941 . S
C240 O241 1.258 . S
C240 O242 1.263 . S
O241 Co238 1.970 . S
O241 C240 1.258 . S
O242 Co239 1.966 . S
O242 C240 1.263 . S
C243 O244 1.235 . S
C243 O270 1.289 . S
O244 C243 1.235 . S
C245 C247 1.400 . S
C245 N248 1.351 . S
C245 C250 1.501 . S
C246 C247 1.387 . S
C246 N249 1.341 . S
C247 C245 1.400 . S
C247 C246 1.387 . S
N248 Co239 2.022 . S
N248 C245 1.351 . S
N248 N249 1.365 . S
N249 C246 1.341 . S
N249 N248 1.365 . S
N249 H269 0.862 . S
C250 C245 1.501 . S
C250 H251 0.961 . S
C250 H252 0.961 . S
C250 H253 0.960 . S
H251 C250 0.961 . S
H252 C250 0.961 . S
H253 C250 0.960 . S
C254 N255 1.342 . S
C254 C258 1.401 . S
C254 C259 1.499 . S
N255 Co238 1.989 . S
N255 C254 1.342 . S
N255 N256 1.388 . S
N256 Co239 1.993 . S
N256 N255 1.388 . S
N256 C257 1.346 . S
C257 N256 1.346 . S
C257 C258 1.396 . S
C257 C267 1.510 . S
C258 C254 1.401 . S
C258 C257 1.396 . S
C259 C254 1.499 . S
C259 H260 0.959 . S
C259 H261 0.960 . S
C259 H262 0.961 . S
H260 C259 0.959 . S
H261 C259 0.960 . S
H262 C259 0.961 . S
O263 Co238 1.967 . S
O263 C271 1.258 . S
O264 Co239 1.941 . S
O264 C271 1.266 . S
H265 C267 0.959 . S
H266 C267 0.961 . S
C267 C257 1.510 . S
C267 H265 0.959 . S
C267 H266 0.961 . S
C267 H268 0.960 . S
H268 C267 0.960 . S
H269 N249 0.862 . S
O270 Co238 1.920 . S
O270 C243 1.289 . S
C271 O263 1.258 . S
C271 O264 1.266 . S
Co272 O275 1.970 . S
Co272 N289 1.989 . S
Co272 O297 1.967 . S
Co272 O304 1.920 . S
Co273 O276 1.966 . S
Co273 N282 2.022 . S
Co273 N290 1.993 . S
Co273 O298 1.941 . S
C274 O275 1.258 . S
C274 O276 1.263 . S
O275 Co272 1.970 . S
O275 C274 1.258 . S
O276 Co273 1.966 . S
O276 C274 1.263 . S
C277 O278 1.235 . S
C277 O304 1.289 . S
O278 C277 1.235 . S
C279 C281 1.400 . S
C279 N282 1.351 . S
C279 C284 1.501 . S
C280 C281 1.387 . S
C280 N283 1.341 . S
C281 C279 1.400 . S
C281 C280 1.387 . S
N282 Co273 2.022 . S
N282 C279 1.351 . S
N282 N283 1.365 . S
N283 C280 1.341 . S
N283 N282 1.365 . S
N283 H303 0.862 . S
C284 C279 1.501 . S
C284 H285 0.961 . S
C284 H286 0.961 . S
C284 H287 0.960 . S
H285 C284 0.961 . S
H286 C284 0.961 . S
H287 C284 0.960 . S
C288 N289 1.342 . S
C288 C292 1.401 . S
C288 C293 1.499 . S
N289 Co272 1.989 . S
N289 C288 1.342 . S
N289 N290 1.388 . S
N290 Co273 1.993 . S
N290 N289 1.388 . S
N290 C291 1.346 . S
C291 N290 1.346 . S
C291 C292 1.396 . S
C291 C301 1.510 . S
C292 C288 1.401 . S
C292 C291 1.396 . S
C293 C288 1.499 . S
C293 H294 0.959 . S
C293 H295 0.960 . S
C293 H296 0.961 . S
H294 C293 0.959 . S
H295 C293 0.960 . S
H296 C293 0.961 . S
O297 Co272 1.967 . S
O297 C305 1.258 . S
O298 Co273 1.941 . S
O298 C305 1.266 . S
H299 C301 0.959 . S
H300 C301 0.961 . S
C301 C291 1.510 . S
C301 H299 0.959 . S
C301 H300 0.961 . S
C301 H302 0.960 . S
H302 C301 0.960 . S
H303 N283 0.862 . S
O304 Co272 1.920 . S
O304 C277 1.289 . S
C305 O297 1.258 . S
C305 O298 1.266 . S
Co306 O309 1.970 . S
Co306 N323 1.989 . S
Co306 O331 1.967 . S
Co306 O338 1.920 . S
Co307 O310 1.966 . S
Co307 N316 2.022 . S
Co307 N324 1.993 . S
Co307 O332 1.941 . S
C308 O309 1.258 . S
C308 O310 1.263 . S
O309 Co306 1.970 . S
O309 C308 1.258 . S
O310 Co307 1.966 . S
O310 C308 1.263 . S
C311 O312 1.235 . S
C311 O338 1.289 . S
O312 C311 1.235 . S
C313 C315 1.400 . S
C313 N316 1.351 . S
C313 C318 1.501 . S
C314 C315 1.387 . S
C314 N317 1.341 . S
C315 C313 1.400 . S
C315 C314 1.387 . S
N316 Co307 2.022 . S
N316 C313 1.351 . S
N316 N317 1.365 . S
N317 C314 1.341 . S
N317 N316 1.365 . S
N317 H337 0.862 . S
C318 C313 1.501 . S
C318 H319 0.961 . S
C318 H320 0.961 . S
C318 H321 0.960 . S
H319 C318 0.961 . S
H320 C318 0.961 . S
H321 C318 0.960 . S
C322 N323 1.342 . S
C322 C326 1.401 . S
C322 C327 1.499 . S
N323 Co306 1.989 . S
N323 C322 1.342 . S
N323 N324 1.388 . S
N324 Co307 1.993 . S
N324 N323 1.388 . S
N324 C325 1.346 . S
C325 N324 1.346 . S
C325 C326 1.396 . S
C325 C335 1.510 . S
C326 C322 1.401 . S
C326 C325 1.396 . S
C327 C322 1.499 . S
C327 H328 0.959 . S
C327 H329 0.960 . S
C327 H330 0.961 . S
H328 C327 0.959 . S
H329 C327 0.960 . S
H330 C327 0.961 . S
O331 Co306 1.967 . S
O331 C339 1.258 . S
O332 Co307 1.941 . S
O332 C339 1.266 . S
H333 C335 0.959 . S
H334 C335 0.961 . S
C335 C325 1.510 . S
C335 H333 0.959 . S
C335 H334 0.961 . S
C335 H336 0.960 . S
H336 C335 0.960 . S
H337 N317 0.862 . S
O338 Co306 1.920 . S
O338 C311 1.289 . S
C339 O331 1.258 . S
C339 O332 1.266 . S
Co340 O343 1.970 . S
Co340 N357 1.989 . S
Co340 O365 1.967 . S
Co340 O372 1.920 . S
Co341 O344 1.966 . S
Co341 N350 2.022 . S
Co341 N358 1.993 . S
Co341 O366 1.941 . S
C342 O343 1.258 . S
C342 O344 1.263 . S
O343 Co340 1.970 . S
O343 C342 1.258 . S
O344 Co341 1.966 . S
O344 C342 1.263 . S
C345 O346 1.235 . S
C345 O372 1.289 . S
O346 C345 1.235 . S
C347 C349 1.400 . S
C347 N350 1.351 . S
C347 C352 1.501 . S
C348 C349 1.387 . S
C348 N351 1.341 . S
C349 C347 1.400 . S
C349 C348 1.387 . S
N350 Co341 2.022 . S
N350 C347 1.351 . S
N350 N351 1.365 . S
N351 C348 1.341 . S
N351 N350 1.365 . S
N351 H371 0.862 . S
C352 C347 1.501 . S
C352 H353 0.961 . S
C352 H354 0.961 . S
C352 H355 0.960 . S
H353 C352 0.961 . S
H354 C352 0.961 . S
H355 C352 0.960 . S
C356 N357 1.342 . S
C356 C360 1.401 . S
C356 C361 1.499 . S
N357 Co340 1.989 . S
N357 C356 1.342 . S
N357 N358 1.388 . S
N358 Co341 1.993 . S
N358 N357 1.388 . S
N358 C359 1.346 . S
C359 N358 1.346 . S
C359 C360 1.396 . S
C359 C369 1.510 . S
C360 C356 1.401 . S
C360 C359 1.396 . S
C361 C356 1.499 . S
C361 H362 0.959 . S
C361 H363 0.960 . S
C361 H364 0.961 . S
H362 C361 0.959 . S
H363 C361 0.960 . S
H364 C361 0.961 . S
O365 Co340 1.967 . S
O365 C373 1.258 . S
O366 Co341 1.941 . S
O366 C373 1.266 . S
H367 C369 0.959 . S
H368 C369 0.961 . S
C369 C359 1.510 . S
C369 H367 0.959 . S
C369 H368 0.961 . S
C369 H370 0.960 . S
H370 C369 0.960 . S
H371 N351 0.862 . S
O372 Co340 1.920 . S
O372 C345 1.289 . S
C373 O365 1.258 . S
C373 O366 1.266 . S
Co374 O377 1.970 . S
Co374 N391 1.989 . S
Co374 O399 1.967 . S
Co374 O406 1.920 . S
Co375 O378 1.966 . S
Co375 N384 2.022 . S
Co375 N392 1.993 . S
Co375 O400 1.941 . S
C376 O377 1.258 . S
C376 O378 1.263 . S
O377 Co374 1.970 . S
O377 C376 1.258 . S
O378 Co375 1.966 . S
O378 C376 1.263 . S
C379 O380 1.235 . S
C379 O406 1.289 . S
O380 C379 1.235 . S
C381 C383 1.400 . S
C381 N384 1.351 . S
C381 C386 1.501 . S
C382 C383 1.387 . S
C382 N385 1.341 . S
C383 C381 1.400 . S
C383 C382 1.387 . S
N384 Co375 2.022 . S
N384 C381 1.351 . S
N384 N385 1.365 . S
N385 C382 1.341 . S
N385 N384 1.365 . S
N385 H405 0.862 . S
C386 C381 1.501 . S
C386 H387 0.961 . S
C386 H388 0.961 . S
C386 H389 0.960 . S
H387 C386 0.961 . S
H388 C386 0.961 . S
H389 C386 0.960 . S
C390 N391 1.342 . S
C390 C394 1.401 . S
C390 C395 1.499 . S
N391 Co374 1.989 . S
N391 C390 1.342 . S
N391 N392 1.388 . S
N392 Co375 1.993 . S
N392 N391 1.388 . S
N392 C393 1.346 . S
C393 N392 1.346 . S
C393 C394 1.396 . S
C393 C403 1.510 . S
C394 C390 1.401 . S
C394 C393 1.396 . S
C395 C390 1.499 . S
C395 H396 0.959 . S
C395 H397 0.960 . S
C395 H398 0.961 . S
H396 C395 0.959 . S
H397 C395 0.960 . S
H398 C395 0.961 . S
O399 Co374 1.967 . S
O399 C407 1.258 . S
O400 Co375 1.941 . S
O400 C407 1.266 . S
H401 C403 0.959 . S
H402 C403 0.961 . S
C403 C393 1.510 . S
C403 H401 0.959 . S
C403 H402 0.961 . S
C403 H404 0.960 . S
H404 C403 0.960 . S
H405 N385 0.862 . S
O406 Co374 1.920 . S
O406 C379 1.289 . S
C407 O399 1.258 . S
C407 O400 1.266 . S
Co408 O411 1.970 1_554 S
Co408 N425 1.989 . S
Co408 O433 1.967 . S
Co408 O440 1.920 . S
Co409 O412 1.966 . S
Co409 N418 2.022 . S
Co409 N426 1.993 1_556 S
Co409 O434 1.941 . S
C410 O411 1.258 . S
C410 O412 1.263 . S
O411 Co408 1.970 1_556 S
O411 C410 1.258 . S
O412 Co409 1.966 . S
O412 C410 1.263 . S
C413 O414 1.235 . S
C413 O440 1.289 . S
O414 C413 1.235 . S
C415 C417 1.400 . S
C415 N418 1.351 . S
C415 C420 1.501 . S
C416 C417 1.387 . S
C416 N419 1.341 . S
C417 C415 1.400 . S
C417 C416 1.387 . S
N418 Co409 2.022 . S
N418 C415 1.351 . S
N418 N419 1.365 . S
N419 C416 1.341 . S
N419 N418 1.365 . S
N419 H439 0.862 . S
C420 C415 1.501 . S
C420 H421 0.961 . S
C420 H422 0.961 . S
C420 H423 0.960 . S
H421 C420 0.961 . S
H422 C420 0.961 . S
H423 C420 0.960 . S
C424 N425 1.342 . S
C424 C428 1.401 . S
C424 C429 1.499 . S
N425 Co408 1.989 . S
N425 C424 1.342 . S
N425 N426 1.388 . S
N426 Co409 1.993 1_554 S
N426 N425 1.388 . S
N426 C427 1.346 . S
C427 N426 1.346 . S
C427 C428 1.396 . S
C427 C437 1.510 . S
C428 C424 1.401 . S
C428 C427 1.396 . S
C429 C424 1.499 . S
C429 H430 0.959 . S
C429 H431 0.960 . S
C429 H432 0.961 . S
H430 C429 0.959 . S
H431 C429 0.960 . S
H432 C429 0.961 . S
O433 Co408 1.967 . S
O433 C441 1.258 1_554 S
O434 Co409 1.941 . S
O434 C441 1.266 . S
H435 C437 0.959 . S
H436 C437 0.961 . S
C437 C427 1.510 . S
C437 H435 0.959 . S
C437 H436 0.961 . S
C437 H438 0.960 1_554 S
H438 C437 0.960 1_556 S
H439 N419 0.862 . S
O440 Co408 1.920 . S
O440 C413 1.289 . S
C441 O433 1.258 1_556 S
C441 O434 1.266 . S
Co442 O445 1.970 1_554 S
Co442 N459 1.989 . S
Co442 O467 1.967 . S
Co442 O474 1.920 . S
Co443 O446 1.966 . S
Co443 N452 2.022 . S
Co443 N460 1.993 1_556 S
Co443 O468 1.941 . S
C444 O445 1.258 . S
C444 O446 1.263 . S
O445 Co442 1.970 1_556 S
O445 C444 1.258 . S
O446 Co443 1.966 . S
O446 C444 1.263 . S
C447 O448 1.235 . S
C447 O474 1.289 . S
O448 C447 1.235 . S
C449 C451 1.400 . S
C449 N452 1.351 . S
C449 C454 1.501 . S
C450 C451 1.387 . S
C450 N453 1.341 . S
C451 C449 1.400 . S
C451 C450 1.387 . S
N452 Co443 2.022 . S
N452 C449 1.351 . S
N452 N453 1.365 . S
N453 C450 1.341 . S
N453 N452 1.365 . S
N453 H473 0.862 . S
C454 C449 1.501 . S
C454 H455 0.961 . S
C454 H456 0.961 . S
C454 H457 0.960 . S
H455 C454 0.961 . S
H456 C454 0.961 . S
H457 C454 0.960 . S
C458 N459 1.342 . S
C458 C462 1.401 . S
C458 C463 1.499 . S
N459 Co442 1.989 . S
N459 C458 1.342 . S
N459 N460 1.388 . S
N460 Co443 1.993 1_554 S
N460 N459 1.388 . S
N460 C461 1.346 . S
C461 N460 1.346 . S
C461 C462 1.396 . S
C461 C471 1.510 . S
C462 C458 1.401 . S
C462 C461 1.396 . S
C463 C458 1.499 . S
C463 H464 0.959 . S
C463 H465 0.960 . S
C463 H466 0.961 . S
H464 C463 0.959 . S
H465 C463 0.960 . S
H466 C463 0.961 . S
O467 Co442 1.967 . S
O467 C475 1.258 1_554 S
O468 Co443 1.941 . S
O468 C475 1.266 . S
H469 C471 0.959 . S
H470 C471 0.961 . S
C471 C461 1.510 . S
C471 H469 0.959 . S
C471 H470 0.961 . S
C471 H472 0.960 1_554 S
H472 C471 0.960 1_556 S
H473 N453 0.862 . S
O474 Co442 1.920 . S
O474 C447 1.289 . S
C475 O467 1.258 1_556 S
C475 O468 1.266 . S
Co476 O479 1.970 1_554 S
Co476 N493 1.989 . S
Co476 O501 1.967 . S
Co476 O508 1.920 . S
Co477 O480 1.966 . S
Co477 N486 2.022 . S
Co477 N494 1.993 1_556 S
Co477 O502 1.941 . S
C478 O479 1.258 . S
C478 O480 1.263 . S
O479 Co476 1.970 1_556 S
O479 C478 1.258 . S
O480 Co477 1.966 . S
O480 C478 1.263 . S
C481 O482 1.235 . S
C481 O508 1.289 . S
O482 C481 1.235 . S
C483 C485 1.400 . S
C483 N486 1.351 . S
C483 C488 1.501 . S
C484 C485 1.387 . S
C484 N487 1.341 . S
C485 C483 1.400 . S
C485 C484 1.387 . S
N486 Co477 2.022 . S
N486 C483 1.351 . S
N486 N487 1.365 . S
N487 C484 1.341 . S
N487 N486 1.365 . S
N487 H507 0.862 . S
C488 C483 1.501 . S
C488 H489 0.961 . S
C488 H490 0.961 . S
C488 H491 0.960 . S
H489 C488 0.961 . S
H490 C488 0.961 . S
H491 C488 0.960 . S
C492 N493 1.342 . S
C492 C496 1.401 . S
C492 C497 1.499 . S
N493 Co476 1.989 . S
N493 C492 1.342 . S
N493 N494 1.388 . S
N494 Co477 1.993 1_554 S
N494 N493 1.388 . S
N494 C495 1.346 . S
C495 N494 1.346 . S
C495 C496 1.396 . S
C495 C505 1.510 . S
C496 C492 1.401 . S
C496 C495 1.396 . S
C497 C492 1.499 . S
C497 H498 0.959 . S
C497 H499 0.960 . S
C497 H500 0.961 . S
H498 C497 0.959 . S
H499 C497 0.960 . S
H500 C497 0.961 . S
O501 Co476 1.967 . S
O501 C509 1.258 1_554 S
O502 Co477 1.941 . S
O502 C509 1.266 . S
H503 C505 0.959 . S
H504 C505 0.961 . S
C505 C495 1.510 . S
C505 H503 0.959 . S
C505 H504 0.961 . S
C505 H506 0.960 1_554 S
H506 C505 0.960 1_556 S
H507 N487 0.862 . S
O508 Co476 1.920 . S
O508 C481 1.289 . S
C509 O501 1.258 1_556 S
C509 O502 1.266 . S
Co510 O513 1.970 1_554 S
Co510 N527 1.989 . S
Co510 O535 1.967 . S
Co510 O542 1.920 . S
Co511 O514 1.966 . S
Co511 N520 2.022 . S
Co511 N528 1.993 1_556 S
Co511 O536 1.941 . S
C512 O513 1.258 . S
C512 O514 1.263 . S
O513 Co510 1.970 1_556 S
O513 C512 1.258 . S
O514 Co511 1.966 . S
O514 C512 1.263 . S
C515 O516 1.235 . S
C515 O542 1.289 . S
O516 C515 1.235 . S
C517 C519 1.400 . S
C517 N520 1.351 . S
C517 C522 1.501 . S
C518 C519 1.387 . S
C518 N521 1.341 . S
C519 C517 1.400 . S
C519 C518 1.387 . S
N520 Co511 2.022 . S
N520 C517 1.351 . S
N520 N521 1.365 . S
N521 C518 1.341 . S
N521 N520 1.365 . S
N521 H541 0.862 . S
C522 C517 1.501 . S
C522 H523 0.961 . S
C522 H524 0.961 . S
C522 H525 0.960 . S
H523 C522 0.961 . S
H524 C522 0.961 . S
H525 C522 0.960 . S
C526 N527 1.342 . S
C526 C530 1.401 . S
C526 C531 1.499 . S
N527 Co510 1.989 . S
N527 C526 1.342 . S
N527 N528 1.388 . S
N528 Co511 1.993 1_554 S
N528 N527 1.388 . S
N528 C529 1.346 . S
C529 N528 1.346 . S
C529 C530 1.396 . S
C529 C539 1.510 . S
C530 C526 1.401 . S
C530 C529 1.396 . S
C531 C526 1.499 . S
C531 H532 0.959 . S
C531 H533 0.960 . S
C531 H534 0.961 . S
H532 C531 0.959 . S
H533 C531 0.960 . S
H534 C531 0.961 . S
O535 Co510 1.967 . S
O535 C543 1.258 1_554 S
O536 Co511 1.941 . S
O536 C543 1.266 . S
H537 C539 0.959 . S
H538 C539 0.961 . S
C539 C529 1.510 . S
C539 H537 0.959 . S
C539 H538 0.961 . S
C539 H540 0.960 1_554 S
H540 C539 0.960 1_556 S
H541 N521 0.862 . S
O542 Co510 1.920 . S
O542 C515 1.289 . S
C543 O535 1.258 1_556 S
C543 O536 1.266 . S
H544 C550 0.930 . S
H545 C554 0.930 . S
H546 C559 0.929 . S
H547 C557 0.929 . S
H548 C552 0.929 . S
H549 C558 0.929 . S
C550 H544 0.930 . S
C550 C551 1.367 . S
C550 C558 1.378 . S
C551 C550 1.367 . S
C551 C559 1.433 1_554 S
C552 H548 0.929 . S
C552 C554 1.378 . S
C552 C556 1.350 . S
C553 C556 1.463 1_554 S
C553 C558 1.350 . S
C553 N561 1.427 1_554 S
C554 H545 0.930 . S
C554 C552 1.378 . S
C554 C555 1.367 . S
C555 C554 1.367 . S
C555 C557 1.433 1_556 S
C556 C552 1.350 . S
C556 C553 1.463 1_556 S
C556 N560 1.427 1_556 S
C557 H547 0.929 . S
C557 C555 1.433 1_554 S
C557 N560 1.384 . S
C558 H549 0.929 . S
C558 C550 1.378 . S
C558 C553 1.350 . S
C559 H546 0.929 . S
C559 C551 1.433 1_556 S
C559 N561 1.384 . S
N560 C556 1.427 1_554 S
N560 C557 1.384 . S
N561 C553 1.427 1_556 S
N561 C559 1.384 . S
H562 C568 0.930 . S
H563 C572 0.930 . S
H564 C577 0.929 . S
H565 C575 0.929 . S
H566 C570 0.929 . S
H567 C576 0.929 . S
C568 H562 0.930 . S
C568 C569 1.367 . S
C568 C576 1.378 . S
C569 C568 1.367 . S
C569 C577 1.433 1_556 S
C570 H566 0.929 . S
C570 C572 1.378 . S
C570 C574 1.350 . S
C571 C574 1.463 1_556 S
C571 C576 1.350 . S
C571 N579 1.427 1_556 S
C572 H563 0.930 . S
C572 C570 1.378 . S
C572 C573 1.367 . S
C573 C572 1.367 . S
C573 C575 1.433 1_554 S
C574 C570 1.350 . S
C574 C571 1.463 1_554 S
C574 N578 1.427 1_554 S
C575 H565 0.929 . S
C575 C573 1.433 1_556 S
C575 N578 1.384 . S
C576 H567 0.929 . S
C576 C568 1.378 . S
C576 C571 1.350 . S
C577 H564 0.929 . S
C577 C569 1.433 1_554 S
C577 N579 1.384 . S
N578 C574 1.427 1_556 S
N578 C575 1.384 . S
N579 C571 1.427 1_554 S
N579 C577 1.384 . S
H580 C586 0.930 . S
H581 C590 0.930 . S
H582 C595 0.929 . S
H583 C593 0.929 . S
H584 C588 0.929 . S
H585 C594 0.929 . S
C586 H580 0.930 . S
C586 C587 1.367 1_554 S
C586 C594 1.378 . S
C587 C586 1.367 1_556 S
C587 C595 1.433 . S
C588 H584 0.929 . S
C588 C590 1.378 . S
C588 C592 1.351 . S
C589 C592 1.462 1_554 S
C589 C594 1.368 . S
C589 N597 1.408 1_554 S
C590 H581 0.930 . S
C590 C588 1.378 . S
C590 C591 1.367 1_556 S
C591 C590 1.367 1_554 S
C591 C593 1.433 . S
C592 C588 1.351 . S
C592 C589 1.462 1_556 S
C592 N596 1.426 1_556 S
C593 H583 0.929 . S
C593 C591 1.433 . S
C593 N596 1.384 . S
C594 H585 0.929 . S
C594 C586 1.378 . S
C594 C589 1.368 . S
C595 H582 0.929 . S
C595 C587 1.433 . S
C595 N597 1.384 . S
N596 C592 1.426 1_554 S
N596 C593 1.384 . S
N597 C589 1.408 1_556 S
N597 C595 1.384 . S
H598 C604 0.930 . S
H599 C608 0.930 . S
H600 C613 0.929 . S
H601 C611 0.929 . S
H602 C606 0.929 . S
H603 C612 0.929 . S
C604 H598 0.930 . S
C604 C605 1.367 1_554 S
C604 C612 1.378 . S
C605 C604 1.367 1_556 S
C605 C613 1.433 . S
C606 H602 0.929 . S
C606 C608 1.378 . S
C606 C610 1.351 1_556 S
C607 C610 1.462 . S
C607 C612 1.362 . S
C607 N615 1.414 1_554 S
C608 H599 0.930 . S
C608 C606 1.378 . S
C608 C609 1.367 1_556 S
C609 C608 1.367 1_554 S
C609 C611 1.433 . S
C610 C606 1.351 1_554 S
C610 C607 1.462 . S
C610 N614 1.426 . S
C611 H601 0.929 . S
C611 C609 1.433 . S
C611 N614 1.384 . S
C612 H603 0.929 . S
C612 C604 1.378 . S
C612 C607 1.362 . S
C613 H600 0.929 . S
C613 C605 1.433 . S
C613 N615 1.384 . S
N614 C610 1.426 . S
N614 C611 1.384 . S
N615 C607 1.414 1_556 S
N615 C613 1.384 . S
H616 C622 0.930 . S
H617 C626 0.930 . S
H618 C631 0.929 . S
H619 C629 0.929 . S
H620 C624 0.929 . S
H621 C630 0.929 . S
C622 H616 0.930 . S
C622 C623 1.367 . S
C622 C630 1.378 . S
C623 C622 1.367 . S
C623 C631 1.433 . S
C624 H620 0.929 . S
C624 C626 1.378 . S
C624 C628 1.350 . S
C625 C628 1.463 . S
C625 C630 1.350 . S
C625 N633 1.427 . S
C626 H617 0.930 . S
C626 C624 1.378 . S
C626 C627 1.367 . S
C627 C626 1.367 . S
C627 C629 1.433 . S
C628 C624 1.350 . S
C628 C625 1.463 . S
C628 N632 1.427 . S
C629 H619 0.929 . S
C629 C627 1.433 . S
C629 N632 1.384 . S
C630 H621 0.929 . S
C630 C622 1.378 . S
C630 C625 1.350 . S
C631 H618 0.929 . S
C631 C623 1.433 . S
C631 N633 1.384 . S
N632 C628 1.427 . S
N632 C629 1.384 . S
N633 C625 1.427 . S
N633 C631 1.384 . S
H634 C640 0.930 . S
H635 C644 0.930 . S
H636 C649 0.929 . S
H637 C647 0.929 . S
H638 C642 0.929 . S
H639 C648 0.929 . S
C640 H634 0.930 . S
C640 C641 1.367 . S
C640 C648 1.378 . S
C641 C640 1.367 . S
C641 C649 1.433 . S
C642 H638 0.929 . S
C642 C644 1.378 . S
C642 C646 1.350 . S
C643 C646 1.463 . S
C643 C648 1.350 . S
C643 N651 1.427 . S
C644 H635 0.930 . S
C644 C642 1.378 . S
C644 C645 1.367 . S
C645 C644 1.367 . S
C645 C647 1.433 . S
C646 C642 1.350 . S
C646 C643 1.463 . S
C646 N650 1.427 . S
C647 H637 0.929 . S
C647 C645 1.433 . S
C647 N650 1.384 . S
C648 H639 0.929 . S
C648 C640 1.378 . S
C648 C643 1.350 . S
C649 H636 0.929 . S
C649 C641 1.433 . S
C649 N651 1.384 . S
N650 C646 1.427 . S
N650 C647 1.384 . S
N651 C643 1.427 . S
N651 C649 1.384 . S
H652 C658 0.930 . S
H653 C662 0.930 . S
H654 C667 0.929 . S
H655 C665 0.929 . S
H656 C660 0.929 . S
H657 C666 0.929 . S
C658 H652 0.930 . S
C658 C659 1.367 . S
C658 C666 1.378 . S
C659 C658 1.367 . S
C659 C667 1.433 . S
C660 H656 0.929 . S
C660 C662 1.378 . S
C660 C664 1.350 . S
C661 C664 1.463 . S
C661 C666 1.350 . S
C661 N669 1.427 . S
C662 H653 0.930 . S
C662 C660 1.378 . S
C662 C663 1.367 . S
C663 C662 1.367 . S
C663 C665 1.433 . S
C664 C660 1.350 . S
C664 C661 1.463 . S
C664 N668 1.427 . S
C665 H655 0.929 . S
C665 C663 1.433 . S
C665 N668 1.384 . S
C666 H657 0.929 . S
C666 C658 1.378 . S
C666 C661 1.350 . S
C667 H654 0.929 . S
C667 C659 1.433 . S
C667 N669 1.384 . S
N668 C664 1.427 . S
N668 C665 1.384 . S
N669 C661 1.427 . S
N669 C667 1.384 . S
H670 C676 0.930 . S
H671 C680 0.930 . S
H672 C685 0.929 . S
H673 C683 0.929 . S
H674 C678 0.929 . S
H675 C684 0.929 . S
C676 H670 0.930 . S
C676 C677 1.367 . S
C676 C684 1.378 . S
C677 C676 1.367 . S
C677 C685 1.433 . S
C678 H674 0.929 . S
C678 C680 1.378 . S
C678 C682 1.350 . S
C679 C682 1.463 . S
C679 C684 1.350 . S
C679 N687 1.427 . S
C680 H671 0.930 . S
C680 C678 1.378 . S
C680 C681 1.367 . S
C681 C680 1.367 . S
C681 C683 1.433 . S
C682 C678 1.350 . S
C682 C679 1.463 . S
C682 N686 1.427 . S
C683 H673 0.929 . S
C683 C681 1.433 . S
C683 N686 1.384 . S
C684 H675 0.929 . S
C684 C676 1.378 . S
C684 C679 1.350 . S
C685 H672 0.929 . S
C685 C677 1.433 . S
C685 N687 1.384 . S
N686 C682 1.427 . S
N686 C683 1.384 . S
N687 C679 1.427 . S
N687 C685 1.384 . S
H688 C694 0.930 . S
H689 C698 0.930 . S
H690 C703 0.929 . S
H691 C701 0.929 . S
H692 C696 0.929 1_655 S
H693 C702 0.929 1_455 S
C694 H688 0.930 . S
C694 C695 1.367 . S
C694 C702 1.378 . S
C695 C694 1.367 . S
C695 C703 1.433 . S
C696 H692 0.929 1_455 S
C696 C698 1.378 . S
C696 C700 1.350 . S
C697 C700 1.463 1_655 S
C697 C702 1.350 . S
C697 N705 1.427 . S
C698 H689 0.930 . S
C698 C696 1.378 . S
C698 C699 1.367 . S
C699 C698 1.367 . S
C699 C701 1.433 . S
C700 C696 1.350 . S
C700 C697 1.463 1_455 S
C700 N704 1.427 . S
C701 H691 0.929 . S
C701 C699 1.433 . S
C701 N704 1.384 . S
C702 H693 0.929 1_655 S
C702 C694 1.378 . S
C702 C697 1.350 . S
C703 H690 0.929 . S
C703 C695 1.433 . S
C703 N705 1.384 . S
N704 C700 1.427 . S
N704 C701 1.384 . S
N705 C697 1.427 . S
N705 C703 1.384 . S
H706 C712 0.930 . S
H707 C716 0.930 . S
H708 C721 0.929 . S
H709 C719 0.929 . S
H710 C714 0.929 1_565 S
H711 C720 0.929 1_545 S
C712 H706 0.930 . S
C712 C713 1.367 . S
C712 C720 1.378 . S
C713 C712 1.367 . S
C713 C721 1.433 . S
C714 H710 0.929 1_545 S
C714 C716 1.378 . S
C714 C718 1.350 . S
C715 C718 1.463 1_565 S
C715 C720 1.350 . S
C715 N723 1.427 . S
C716 H707 0.930 . S
C716 C714 1.378 . S
C716 C717 1.367 . S
C717 C716 1.367 . S
C717 C719 1.433 . S
C718 C714 1.350 . S
C718 C715 1.463 1_545 S
C718 N722 1.427 . S
C719 H709 0.929 . S
C719 C717 1.433 . S
C719 N722 1.384 . S
C720 H711 0.929 1_565 S
C720 C712 1.378 . S
C720 C715 1.350 . S
C721 H708 0.929 . S
C721 C713 1.433 . S
C721 N723 1.384 . S
N722 C718 1.427 . S
N722 C719 1.384 . S
N723 C715 1.427 . S
N723 C721 1.384 . S
H724 C730 0.930 . S
H725 C734 0.930 . S
H726 C739 0.929 . S
H727 C737 0.929 . S
H728 C732 0.929 . S
H729 C738 0.929 . S
C730 H724 0.930 . S
C730 C731 1.367 . S
C730 C738 1.378 . S
C731 C730 1.367 . S
C731 C739 1.433 . S
C732 H728 0.929 . S
C732 C734 1.378 . S
C732 C736 1.350 . S
C733 C736 1.463 1_455 S
C733 C738 1.350 . S
C733 N741 1.427 . S
C734 H725 0.930 . S
C734 C732 1.378 . S
C734 C735 1.367 . S
C735 C734 1.367 . S
C735 C737 1.433 . S
C736 C732 1.350 . S
C736 C733 1.463 1_655 S
C736 N740 1.427 . S
C737 H727 0.929 . S
C737 C735 1.433 . S
C737 N740 1.384 . S
C738 H729 0.929 . S
C738 C730 1.378 . S
C738 C733 1.350 . S
C739 H726 0.929 . S
C739 C731 1.433 . S
C739 N741 1.384 . S
N740 C736 1.427 . S
N740 C737 1.384 . S
N741 C733 1.427 . S
N741 C739 1.384 . S
H742 C748 0.930 . S
H743 C752 0.930 . S
H744 C757 0.929 . S
H745 C755 0.929 . S
H746 C750 0.929 . S
H747 C756 0.929 . S
C748 H742 0.930 . S
C748 C749 1.367 . S
C748 C756 1.378 . S
C749 C748 1.367 . S
C749 C757 1.433 . S
C750 H746 0.929 . S
C750 C752 1.378 . S
C750 C754 1.350 . S
C751 C754 1.463 1_545 S
C751 C756 1.350 . S
C751 N759 1.427 . S
C752 H743 0.930 . S
C752 C750 1.378 . S
C752 C753 1.367 . S
C753 C752 1.367 . S
C753 C755 1.433 . S
C754 C750 1.350 . S
C754 C751 1.463 1_565 S
C754 N758 1.427 . S
C755 H745 0.929 . S
C755 C753 1.433 . S
C755 N758 1.384 . S
C756 H747 0.929 . S
C756 C748 1.378 . S
C756 C751 1.350 . S
C757 H744 0.929 . S
C757 C749 1.433 . S
C757 N759 1.384 . S
N758 C754 1.427 . S
N758 C755 1.384 . S
N759 C751 1.427 . S
N759 C757 1.384 . S
H760 C766 0.930 . S
H761 C770 0.930 . S
H762 C775 0.929 . S
H763 C773 0.929 . S
H764 C768 0.929 1_455 S
H765 C774 0.929 1_655 S
C766 H760 0.930 . S
C766 C767 1.367 . S
C766 C774 1.378 . S
C767 C766 1.367 . S
C767 C775 1.433 . S
C768 H764 0.929 1_655 S
C768 C770 1.378 . S
C768 C772 1.350 . S
C769 C772 1.463 1_455 S
C769 C774 1.350 . S
C769 N777 1.427 . S
C770 H761 0.930 . S
C770 C768 1.378 . S
C770 C771 1.367 . S
C771 C770 1.367 . S
C771 C773 1.433 . S
C772 C768 1.350 . S
C772 C769 1.463 1_655 S
C772 N776 1.427 . S
C773 H763 0.929 . S
C773 C771 1.433 . S
C773 N776 1.384 . S
C774 H765 0.929 1_455 S
C774 C766 1.378 . S
C774 C769 1.350 . S
C775 H762 0.929 . S
C775 C767 1.433 . S
C775 N777 1.384 . S
N776 C772 1.427 . S
N776 C773 1.384 . S
N777 C769 1.427 . S
N777 C775 1.384 . S
H778 C784 0.930 . S
H779 C788 0.930 . S
H780 C793 0.929 . S
H781 C791 0.929 . S
H782 C786 0.929 . S
H783 C792 0.929 . S
C784 H778 0.930 . S
C784 C785 1.367 . S
C784 C792 1.378 . S
C785 C784 1.367 . S
C785 C793 1.433 . S
C786 H782 0.929 . S
C786 C788 1.378 . S
C786 C790 1.350 . S
C787 C790 1.463 1_565 S
C787 C792 1.350 . S
C787 N795 1.427 . S
C788 H779 0.930 . S
C788 C786 1.378 . S
C788 C789 1.367 . S
C789 C788 1.367 . S
C789 C791 1.433 . S
C790 C786 1.350 . S
C790 C787 1.463 1_545 S
C790 N794 1.427 . S
C791 H781 0.929 . S
C791 C789 1.433 . S
C791 N794 1.384 . S
C792 H783 0.929 . S
C792 C784 1.378 . S
C792 C787 1.350 . S
C793 H780 0.929 . S
C793 C785 1.433 . S
C793 N795 1.384 . S
N794 C790 1.427 . S
N794 C791 1.384 . S
N795 C787 1.427 . S
N795 C793 1.384 . S
H796 C802 0.930 . S
H797 C806 0.930 . S
H798 C811 0.929 . S
H799 C809 0.929 . S
H800 C804 0.929 . S
H801 C810 0.929 . S
C802 H796 0.930 . S
C802 C803 1.367 . S
C802 C810 1.378 . S
C803 C802 1.367 . S
C803 C811 1.433 . S
C804 H800 0.929 . S
C804 C806 1.378 . S
C804 C808 1.350 . S
C805 C808 1.463 1_655 S
C805 C810 1.350 . S
C805 N813 1.427 . S
C806 H797 0.930 . S
C806 C804 1.378 . S
C806 C807 1.367 . S
C807 C806 1.367 . S
C807 C809 1.433 . S
C808 C804 1.350 . S
C808 C805 1.463 1_455 S
C808 N812 1.427 . S
C809 H799 0.929 . S
C809 C807 1.433 . S
C809 N812 1.384 . S
C810 H801 0.929 . S
C810 C802 1.378 . S
C810 C805 1.350 . S
C811 H798 0.929 . S
C811 C803 1.433 . S
C811 N813 1.384 . S
N812 C808 1.427 . S
N812 C809 1.384 . S
N813 C805 1.427 . S
N813 C811 1.384 . S
H814 C820 0.930 . S
H815 C824 0.930 . S
H816 C829 0.929 . S
H817 C827 0.929 . S
H818 C822 0.929 . S
H819 C828 0.929 . S
C820 H814 0.930 . S
C820 C821 1.367 . S
C820 C828 1.378 . S
C821 C820 1.367 . S
C821 C829 1.433 . S
C822 H818 0.929 . S
C822 C824 1.378 . S
C822 C826 1.350 . S
C823 C826 1.463 1_545 S
C823 C828 1.350 . S
C823 N831 1.427 . S
C824 H815 0.930 . S
C824 C822 1.378 . S
C824 C825 1.367 . S
C825 C824 1.367 . S
C825 C827 1.433 . S
C826 C822 1.350 . S
C826 C823 1.463 1_565 S
C826 N830 1.427 . S
C827 H817 0.929 . S
C827 C825 1.433 . S
C827 N830 1.384 . S
C828 H819 0.929 . S
C828 C820 1.378 . S
C828 C823 1.350 . S
C829 H816 0.929 . S
C829 C821 1.433 . S
C829 N831 1.384 . S
N830 C826 1.427 . S
N830 C827 1.384 . S
N831 C823 1.427 . S
N831 C829 1.384 . S
H832 C838 0.930 . S
H833 C842 0.930 . S
H834 C847 0.929 . S
H835 C845 0.929 . S
H836 C840 0.929 . S
H837 C846 0.929 . S
C838 H832 0.930 . S
C838 C839 1.367 . S
C838 C846 1.378 . S
C839 C838 1.367 . S
C839 C847 1.433 . S
C840 H836 0.929 . S
C840 C842 1.378 . S
C840 C844 1.350 . S
C841 C844 1.463 . S
C841 C846 1.350 . S
C841 N849 1.427 . S
C842 H833 0.930 . S
C842 C840 1.378 . S
C842 C843 1.367 . S
C843 C842 1.367 . S
C843 C845 1.433 . S
C844 C840 1.350 . S
C844 C841 1.463 . S
C844 N848 1.427 . S
C845 H835 0.929 . S
C845 C843 1.433 . S
C845 N848 1.384 . S
C846 H837 0.929 . S
C846 C838 1.378 . S
C846 C841 1.350 . S
C847 H834 0.929 . S
C847 C839 1.433 . S
C847 N849 1.384 . S
N848 C844 1.427 . S
N848 C845 1.384 . S
N849 C841 1.427 . S
N849 C847 1.384 . S
H850 C856 0.930 . S
H851 C860 0.930 . S
H852 C865 0.929 . S
H853 C863 0.929 . S
H854 C858 0.929 . S
H855 C864 0.929 . S
C856 H850 0.930 . S
C856 C857 1.367 . S
C856 C864 1.378 . S
C857 C856 1.367 . S
C857 C865 1.433 . S
C858 H854 0.929 . S
C858 C860 1.378 . S
C858 C862 1.350 . S
C859 C862 1.463 . S
C859 C864 1.350 . S
C859 N867 1.427 . S
C860 H851 0.930 . S
C860 C858 1.378 . S
C860 C861 1.367 . S
C861 C860 1.367 . S
C861 C863 1.433 . S
C862 C858 1.350 . S
C862 C859 1.463 . S
C862 N866 1.427 . S
C863 H853 0.929 . S
C863 C861 1.433 . S
C863 N866 1.384 . S
C864 H855 0.929 . S
C864 C856 1.378 . S
C864 C859 1.350 . S
C865 H852 0.929 . S
C865 C857 1.433 . S
C865 N867 1.384 . S
N866 C862 1.427 . S
N866 C863 1.384 . S
N867 C859 1.427 . S
N867 C865 1.384 . S
H868 C874 0.930 . S
H869 C878 0.930 . S
H870 C883 0.929 . S
H871 C881 0.929 . S
H872 C876 0.929 . S
H873 C882 0.929 . S
C874 H868 0.930 . S
C874 C875 1.367 . S
C874 C882 1.378 . S
C875 C874 1.367 . S
C875 C883 1.433 . S
C876 H872 0.929 . S
C876 C878 1.378 . S
C876 C880 1.350 . S
C877 C880 1.463 . S
C877 C882 1.350 . S
C877 N885 1.427 . S
C878 H869 0.930 . S
C878 C876 1.378 . S
C878 C879 1.367 . S
C879 C878 1.367 . S
C879 C881 1.433 . S
C880 C876 1.350 . S
C880 C877 1.463 . S
C880 N884 1.427 . S
C881 H871 0.929 . S
C881 C879 1.433 . S
C881 N884 1.384 . S
C882 H873 0.929 . S
C882 C874 1.378 . S
C882 C877 1.350 . S
C883 H870 0.929 . S
C883 C875 1.433 . S
C883 N885 1.384 . S
N884 C880 1.427 . S
N884 C881 1.384 . S
N885 C877 1.427 . S
N885 C883 1.384 . S
H886 C892 0.930 . S
H887 C896 0.930 . S
H888 C901 0.929 . S
H889 C899 0.929 . S
H890 C894 0.929 . S
H891 C900 0.929 . S
C892 H886 0.930 . S
C892 C893 1.367 . S
C892 C900 1.378 . S
C893 C892 1.367 . S
C893 C901 1.433 . S
C894 H890 0.929 . S
C894 C896 1.378 . S
C894 C898 1.350 . S
C895 C898 1.463 . S
C895 C900 1.350 . S
C895 N903 1.427 . S
C896 H887 0.930 . S
C896 C894 1.378 . S
C896 C897 1.367 . S
C897 C896 1.367 . S
C897 C899 1.433 . S
C898 C894 1.350 . S
C898 C895 1.463 . S
C898 N902 1.427 . S
C899 H889 0.929 . S
C899 C897 1.433 . S
C899 N902 1.384 . S
C900 H891 0.929 . S
C900 C892 1.378 . S
C900 C895 1.350 . S
C901 H888 0.929 . S
C901 C893 1.433 . S
C901 N903 1.384 . S
N902 C898 1.427 . S
N902 C899 1.384 . S
N903 C895 1.427 . S
N903 C901 1.384 . S
H904 C910 0.930 . S
H905 C914 0.930 . S
H906 C919 0.929 . S
H907 C917 0.929 . S
H908 C912 0.929 . S
H909 C918 0.929 . S
C910 H904 0.930 . S
C910 C911 1.367 . S
C910 C918 1.378 . S
C911 C910 1.367 . S
C911 C919 1.433 . S
C912 H908 0.929 . S
C912 C914 1.378 . S
C912 C916 1.350 . S
C913 C916 1.463 . S
C913 C918 1.350 . S
C913 N921 1.427 . S
C914 H905 0.930 . S
C914 C912 1.378 . S
C914 C915 1.367 . S
C915 C914 1.367 . S
C915 C917 1.433 . S
C916 C912 1.350 . S
C916 C913 1.463 . S
C916 N920 1.427 . S
C917 H907 0.929 . S
C917 C915 1.433 . S
C917 N920 1.384 . S
C918 H909 0.929 . S
C918 C910 1.378 . S
C918 C913 1.350 . S
C919 H906 0.929 . S
C919 C911 1.433 . S
C919 N921 1.384 . S
N920 C916 1.427 . S
N920 C917 1.384 . S
N921 C913 1.427 . S
N921 C919 1.384 . S
H922 C928 0.930 . S
H923 C932 0.930 . S
H924 C937 0.929 . S
H925 C935 0.929 . S
H926 C930 0.929 . S
H927 C936 0.929 . S
C928 H922 0.930 . S
C928 C929 1.367 . S
C928 C936 1.378 . S
C929 C928 1.367 . S
C929 C937 1.433 . S
C930 H926 0.929 . S
C930 C932 1.378 . S
C930 C934 1.350 . S
C931 C934 1.463 . S
C931 C936 1.350 . S
C931 N939 1.427 . S
C932 H923 0.930 . S
C932 C930 1.378 . S
C932 C933 1.367 . S
C933 C932 1.367 . S
C933 C935 1.433 . S
C934 C930 1.350 . S
C934 C931 1.463 . S
C934 N938 1.427 . S
C935 H925 0.929 . S
C935 C933 1.433 . S
C935 N938 1.384 . S
C936 H927 0.929 . S
C936 C928 1.378 . S
C936 C931 1.350 . S
C937 H924 0.929 . S
C937 C929 1.433 . S
C937 N939 1.384 . S
N938 C934 1.427 . S
N938 C935 1.384 . S
N939 C931 1.427 . S
N939 C937 1.384 . S
H940 C946 0.930 . S
H941 C950 0.930 . S
H942 C955 0.929 . S
H943 C953 0.929 . S
H944 C948 0.929 . S
H945 C954 0.929 . S
C946 H940 0.930 . S
C946 C947 1.367 . S
C946 C954 1.378 . S
C947 C946 1.367 . S
C947 C955 1.433 . S
C948 H944 0.929 . S
C948 C950 1.378 . S
C948 C952 1.350 . S
C949 C952 1.463 . S
C949 C954 1.350 . S
C949 N957 1.427 . S
C950 H941 0.930 . S
C950 C948 1.378 . S
C950 C951 1.367 . S
C951 C950 1.367 . S
C951 C953 1.433 . S
C952 C948 1.350 . S
C952 C949 1.463 . S
C952 N956 1.427 . S
C953 H943 0.929 . S
C953 C951 1.433 . S
C953 N956 1.384 . S
C954 H945 0.929 . S
C954 C946 1.378 . S
C954 C949 1.350 . S
C955 H942 0.929 . S
C955 C947 1.433 . S
C955 N957 1.384 . S
N956 C952 1.427 . S
N956 C953 1.384 . S
N957 C949 1.427 . S
N957 C955 1.384 . S
H958 C964 0.930 . S
H959 C968 0.930 . S
H960 C973 0.929 . S
H961 C971 0.929 . S
H962 C966 0.929 . S
H963 C972 0.929 . S
C964 H958 0.930 . S
C964 C965 1.367 . S
C964 C972 1.378 . S
C965 C964 1.367 . S
C965 C973 1.433 . S
C966 H962 0.929 . S
C966 C968 1.378 . S
C966 C970 1.350 . S
C967 C970 1.463 . S
C967 C972 1.350 . S
C967 N975 1.427 . S
C968 H959 0.930 . S
C968 C966 1.378 . S
C968 C969 1.367 . S
C969 C968 1.367 . S
C969 C971 1.433 . S
C970 C966 1.350 . S
C970 C967 1.463 . S
C970 N974 1.427 . S
C971 H961 0.929 . S
C971 C969 1.433 . S
C971 N974 1.384 . S
C972 H963 0.929 . S
C972 C964 1.378 . S
C972 C967 1.350 . S
C973 H960 0.929 . S
C973 C965 1.433 . S
C973 N975 1.384 . S
N974 C970 1.427 . S
N974 C971 1.384 . S
N975 C967 1.427 . S
N975 C973 1.384 . S
H976 C982 0.930 . S
H977 C986 0.930 . S
H978 C991 0.929 . S
H979 C989 0.929 . S
H980 C984 0.929 . S
H981 C990 0.929 . S
C982 H976 0.930 . S
C982 C983 1.367 . S
C982 C990 1.378 . S
C983 C982 1.367 . S
C983 C991 1.433 . S
C984 H980 0.929 . S
C984 C986 1.378 . S
C984 C988 1.350 . S
C985 C988 1.463 . S
C985 C990 1.350 . S
C985 N993 1.427 . S
C986 H977 0.930 . S
C986 C984 1.378 . S
C986 C987 1.367 . S
C987 C986 1.367 . S
C987 C989 1.433 . S
C988 C984 1.350 . S
C988 C985 1.463 . S
C988 N992 1.427 . S
C989 H979 0.929 . S
C989 C987 1.433 . S
C989 N992 1.384 . S
C990 H981 0.929 . S
C990 C982 1.378 . S
C990 C985 1.350 . S
C991 H978 0.929 . S
C991 C983 1.433 . S
C991 N993 1.384 . S
N992 C988 1.427 . S
N992 C989 1.384 . S
N993 C985 1.427 . S
N993 C991 1.384 . S
H994 C1000 0.930 . S
H995 C1004 0.930 . S
H996 C1009 0.929 . S
H997 C1007 0.929 . S
H998 C1002 0.929 . S
H999 C1008 0.929 . S
C1000 H994 0.930 . S
C1000 C1001 1.367 . S
C1000 C1008 1.378 . S
C1001 C1000 1.367 . S
C1001 C1009 1.433 . S
C1002 H998 0.929 . S
C1002 C1004 1.378 . S
C1002 C1006 1.350 . S
C1003 C1006 1.463 . S
C1003 C1008 1.350 . S
C1003 N1011 1.427 . S
C1004 H995 0.930 . S
C1004 C1002 1.378 . S
C1004 C1005 1.367 . S
C1005 C1004 1.367 . S
C1005 C1007 1.433 . S
C1006 C1002 1.350 . S
C1006 C1003 1.463 . S
C1006 N1010 1.427 . S
C1007 H997 0.929 . S
C1007 C1005 1.433 . S
C1007 N1010 1.384 . S
C1008 H999 0.929 . S
C1008 C1000 1.378 . S
C1008 C1003 1.350 . S
C1009 H996 0.929 . S
C1009 C1001 1.433 . S
C1009 N1011 1.384 . S
N1010 C1006 1.427 . S
N1010 C1007 1.384 . S
N1011 C1003 1.427 . S
N1011 C1009 1.384 . S
H1012 C1018 0.930 . S
H1013 C1022 0.930 . S
H1014 C1027 0.929 . S
H1015 C1025 0.929 . S
H1016 C1020 0.929 . S
H1017 C1026 0.929 . S
C1018 H1012 0.930 . S
C1018 C1019 1.367 . S
C1018 C1026 1.378 . S
C1019 C1018 1.367 . S
C1019 C1027 1.433 . S
C1020 H1016 0.929 . S
C1020 C1022 1.378 . S
C1020 C1024 1.350 . S
C1021 C1024 1.463 . S
C1021 C1026 1.350 . S
C1021 N1029 1.427 . S
C1022 H1013 0.930 . S
C1022 C1020 1.378 . S
C1022 C1023 1.367 . S
C1023 C1022 1.367 . S
C1023 C1025 1.433 . S
C1024 C1020 1.350 . S
C1024 C1021 1.463 . S
C1024 N1028 1.427 . S
C1025 H1015 0.929 . S
C1025 C1023 1.433 . S
C1025 N1028 1.384 . S
C1026 H1017 0.929 . S
C1026 C1018 1.378 . S
C1026 C1021 1.350 . S
C1027 H1014 0.929 . S
C1027 C1019 1.433 . S
C1027 N1029 1.384 . S
N1028 C1024 1.427 . S
N1028 C1025 1.384 . S
N1029 C1021 1.427 . S
N1029 C1027 1.384 . S
H1030 C1036 0.930 . S
H1031 C1040 0.930 . S
H1032 C1045 0.929 . S
H1033 C1043 0.929 . S
H1034 C1038 0.929 . S
H1035 C1044 0.929 . S
C1036 H1030 0.930 . S
C1036 C1037 1.367 . S
C1036 C1044 1.378 . S
C1037 C1036 1.367 . S
C1037 C1045 1.433 . S
C1038 H1034 0.929 . S
C1038 C1040 1.378 . S
C1038 C1042 1.350 . S
C1039 C1042 1.463 . S
C1039 C1044 1.350 . S
C1039 N1047 1.427 . S
C1040 H1031 0.930 . S
C1040 C1038 1.378 . S
C1040 C1041 1.367 . S
C1041 C1040 1.367 . S
C1041 C1043 1.433 . S
C1042 C1038 1.350 . S
C1042 C1039 1.463 . S
C1042 N1046 1.427 . S
C1043 H1033 0.929 . S
C1043 C1041 1.433 . S
C1043 N1046 1.384 . S
C1044 H1035 0.929 . S
C1044 C1036 1.378 . S
C1044 C1039 1.350 . S
C1045 H1032 0.929 . S
C1045 C1037 1.433 . S
C1045 N1047 1.384 . S
N1046 C1042 1.427 . S
N1046 C1043 1.384 . S
N1047 C1039 1.427 . S
N1047 C1045 1.384 . S
H1048 C1054 0.930 . S
H1049 C1058 0.930 . S
H1050 C1063 0.929 . S
H1051 C1061 0.929 . S
H1052 C1056 0.929 . S
H1053 C1062 0.929 . S
C1054 H1048 0.930 . S
C1054 C1055 1.367 . S
C1054 C1062 1.378 . S
C1055 C1054 1.367 . S
C1055 C1063 1.433 . S
C1056 H1052 0.929 . S
C1056 C1058 1.378 . S
C1056 C1060 1.350 . S
C1057 C1060 1.463 . S
C1057 C1062 1.350 . S
C1057 N1065 1.427 . S
C1058 H1049 0.930 . S
C1058 C1056 1.378 . S
C1058 C1059 1.367 . S
C1059 C1058 1.367 . S
C1059 C1061 1.433 . S
C1060 C1056 1.350 . S
C1060 C1057 1.463 . S
C1060 N1064 1.427 . S
C1061 H1051 0.929 . S
C1061 C1059 1.433 . S
C1061 N1064 1.384 . S
C1062 H1053 0.929 . S
C1062 C1054 1.378 . S
C1062 C1057 1.350 . S
C1063 H1050 0.929 . S
C1063 C1055 1.433 . S
C1063 N1065 1.384 . S
N1064 C1060 1.427 . S
N1064 C1061 1.384 . S
N1065 C1057 1.427 . S
N1065 C1063 1.384 . S
H1066 C1072 0.930 . S
H1067 C1076 0.930 . S
H1068 C1081 0.929 . S
H1069 C1079 0.929 . S
H1070 C1074 0.929 . S
H1071 C1080 0.929 . S
C1072 H1066 0.930 . S
C1072 C1073 1.367 . S
C1072 C1080 1.378 . S
C1073 C1072 1.367 . S
C1073 C1081 1.433 . S
C1074 H1070 0.929 . S
C1074 C1076 1.378 . S
C1074 C1078 1.350 . S
C1075 C1078 1.463 . S
C1075 C1080 1.350 . S
C1075 N1083 1.427 . S
C1076 H1067 0.930 . S
C1076 C1074 1.378 . S
C1076 C1077 1.367 . S
C1077 C1076 1.367 . S
C1077 C1079 1.433 . S
C1078 C1074 1.350 . S
C1078 C1075 1.463 . S
C1078 N1082 1.427 . S
C1079 H1069 0.929 . S
C1079 C1077 1.433 . S
C1079 N1082 1.384 . S
C1080 H1071 0.929 . S
C1080 C1072 1.378 . S
C1080 C1075 1.350 . S
C1081 H1068 0.929 . S
C1081 C1073 1.433 . S
C1081 N1083 1.384 . S
N1082 C1078 1.427 . S
N1082 C1079 1.384 . S
N1083 C1075 1.427 . S
N1083 C1081 1.384 . S
H1084 C1090 0.930 . S
H1085 C1094 0.930 . S
H1086 C1099 0.929 . S
H1087 C1097 0.929 . S
H1088 C1092 0.929 . S
H1089 C1098 0.929 . S
C1090 H1084 0.930 . S
C1090 C1091 1.367 . S
C1090 C1098 1.378 . S
C1091 C1090 1.367 . S
C1091 C1099 1.433 . S
C1092 H1088 0.929 . S
C1092 C1094 1.378 . S
C1092 C1096 1.350 . S
C1093 C1096 1.463 . S
C1093 C1098 1.350 . S
C1093 N1101 1.427 . S
C1094 H1085 0.930 . S
C1094 C1092 1.378 . S
C1094 C1095 1.367 . S
C1095 C1094 1.367 . S
C1095 C1097 1.433 . S
C1096 C1092 1.350 . S
C1096 C1093 1.463 . S
C1096 N1100 1.427 . S
C1097 H1087 0.929 . S
C1097 C1095 1.433 . S
C1097 N1100 1.384 . S
C1098 H1089 0.929 . S
C1098 C1090 1.378 . S
C1098 C1093 1.350 . S
C1099 H1086 0.929 . S
C1099 C1091 1.433 . S
C1099 N1101 1.384 . S
N1100 C1096 1.427 . S
N1100 C1097 1.384 . S
N1101 C1093 1.427 . S
N1101 C1099 1.384 . S
H1102 C1108 0.930 . S
H1103 C1112 0.930 . S
H1104 C1117 0.929 . S
H1105 C1115 0.929 . S
H1106 C1110 0.929 . S
H1107 C1116 0.929 . S
C1108 H1102 0.930 . S
C1108 C1109 1.367 . S
C1108 C1116 1.378 . S
C1109 C1108 1.367 . S
C1109 C1117 1.433 . S
C1110 H1106 0.929 . S
C1110 C1112 1.378 . S
C1110 C1114 1.350 . S
C1111 C1114 1.463 . S
C1111 C1116 1.350 . S
C1111 N1119 1.427 . S
C1112 H1103 0.930 . S
C1112 C1110 1.378 . S
C1112 C1113 1.367 . S
C1113 C1112 1.367 . S
C1113 C1115 1.433 . S
C1114 C1110 1.350 . S
C1114 C1111 1.463 . S
C1114 N1118 1.427 . S
C1115 H1105 0.929 . S
C1115 C1113 1.433 . S
C1115 N1118 1.384 . S
C1116 H1107 0.929 . S
C1116 C1108 1.378 . S
C1116 C1111 1.350 . S
C1117 H1104 0.929 . S
C1117 C1109 1.433 . S
C1117 N1119 1.384 . S
N1118 C1114 1.427 . S
N1118 C1115 1.384 . S
N1119 C1111 1.427 . S
N1119 C1117 1.384 . S
H1120 C1126 0.930 . S
H1121 C1130 0.930 . S
H1122 C1135 0.929 . S
H1123 C1133 0.929 . S
H1124 C1128 0.929 . S
H1125 C1134 0.929 . S
C1126 H1120 0.930 . S
C1126 C1127 1.367 . S
C1126 C1134 1.378 . S
C1127 C1126 1.367 . S
C1127 C1135 1.433 . S
C1128 H1124 0.929 . S
C1128 C1130 1.378 . S
C1128 C1132 1.350 . S
C1129 C1132 1.463 . S
C1129 C1134 1.350 . S
C1129 N1137 1.427 . S
C1130 H1121 0.930 . S
C1130 C1128 1.378 . S
C1130 C1131 1.367 . S
C1131 C1130 1.367 . S
C1131 C1133 1.433 . S
C1132 C1128 1.350 . S
C1132 C1129 1.463 . S
C1132 N1136 1.427 . S
C1133 H1123 0.929 . S
C1133 C1131 1.433 . S
C1133 N1136 1.384 . S
C1134 H1125 0.929 . S
C1134 C1126 1.378 . S
C1134 C1129 1.350 . S
C1135 H1122 0.929 . S
C1135 C1127 1.433 . S
C1135 N1137 1.384 . S
N1136 C1132 1.427 . S
N1136 C1133 1.384 . S
N1137 C1129 1.427 . S
N1137 C1135 1.384 . S
H1138 C1144 0.930 . S
H1139 C1148 0.930 . S
H1140 C1153 0.929 . S
H1141 C1151 0.929 . S
H1142 C1146 0.929 . S
H1143 C1152 0.929 . S
C1144 H1138 0.930 . S
C1144 C1145 1.367 . S
C1144 C1152 1.378 . S
C1145 C1144 1.367 . S
C1145 C1153 1.433 . S
C1146 H1142 0.929 . S
C1146 C1148 1.378 . S
C1146 C1150 1.350 . S
C1147 C1150 1.463 . S
C1147 C1152 1.350 . S
C1147 N1155 1.427 . S
C1148 H1139 0.930 . S
C1148 C1146 1.378 . S
C1148 C1149 1.367 . S
C1149 C1148 1.367 . S
C1149 C1151 1.433 . S
C1150 C1146 1.350 . S
C1150 C1147 1.463 . S
C1150 N1154 1.427 . S
C1151 H1141 0.929 . S
C1151 C1149 1.433 . S
C1151 N1154 1.384 . S
C1152 H1143 0.929 . S
C1152 C1144 1.378 . S
C1152 C1147 1.350 . S
C1153 H1140 0.929 . S
C1153 C1145 1.433 . S
C1153 N1155 1.384 . S
N1154 C1150 1.427 . S
N1154 C1151 1.384 . S
N1155 C1147 1.427 . S
N1155 C1153 1.384 . S
H1156 C1162 0.930 . S
H1157 C1166 0.930 . S
H1158 C1171 0.929 . S
H1159 C1169 0.929 . S
H1160 C1164 0.929 . S
H1161 C1170 0.929 . S
C1162 H1156 0.930 . S
C1162 C1163 1.367 . S
C1162 C1170 1.378 . S
C1163 C1162 1.367 . S
C1163 C1171 1.433 . S
C1164 H1160 0.929 . S
C1164 C1166 1.378 . S
C1164 C1168 1.350 . S
C1165 C1168 1.463 . S
C1165 C1170 1.350 . S
C1165 N1173 1.427 . S
C1166 H1157 0.930 . S
C1166 C1164 1.378 . S
C1166 C1167 1.367 . S
C1167 C1166 1.367 . S
C1167 C1169 1.433 . S
C1168 C1164 1.350 . S
C1168 C1165 1.463 . S
C1168 N1172 1.427 . S
C1169 H1159 0.929 . S
C1169 C1167 1.433 . S
C1169 N1172 1.384 . S
C1170 H1161 0.929 . S
C1170 C1162 1.378 . S
C1170 C1165 1.350 . S
C1171 H1158 0.929 . S
C1171 C1163 1.433 . S
C1171 N1173 1.384 . S
N1172 C1168 1.427 . S
N1172 C1169 1.384 . S
N1173 C1165 1.427 . S
N1173 C1171 1.384 . S
H1174 C1180 0.930 . S
H1175 C1184 0.930 . S
H1176 C1189 0.929 . S
H1177 C1187 0.929 . S
H1178 C1182 0.929 . S
H1179 C1188 0.929 . S
C1180 H1174 0.930 . S
C1180 C1181 1.367 . S
C1180 C1188 1.378 . S
C1181 C1180 1.367 . S
C1181 C1189 1.433 . S
C1182 H1178 0.929 . S
C1182 C1184 1.378 . S
C1182 C1186 1.350 . S
C1183 C1186 1.463 . S
C1183 C1188 1.350 . S
C1183 N1191 1.427 . S
C1184 H1175 0.930 . S
C1184 C1182 1.378 . S
C1184 C1185 1.367 . S
C1185 C1184 1.367 . S
C1185 C1187 1.433 . S
C1186 C1182 1.350 . S
C1186 C1183 1.463 . S
C1186 N1190 1.427 . S
C1187 H1177 0.929 . S
C1187 C1185 1.433 . S
C1187 N1190 1.384 . S
C1188 H1179 0.929 . S
C1188 C1180 1.378 . S
C1188 C1183 1.350 . S
C1189 H1176 0.929 . S
C1189 C1181 1.433 . S
C1189 N1191 1.384 . S
N1190 C1186 1.427 . S
N1190 C1187 1.384 . S
N1191 C1183 1.427 . S
N1191 C1189 1.384 . S
H1192 C1198 0.930 . S
H1193 C1202 0.930 . S
H1194 C1207 0.929 . S
H1195 C1205 0.929 . S
H1196 C1200 0.929 . S
H1197 C1206 0.929 . S
C1198 H1192 0.930 . S
C1198 C1199 1.367 . S
C1198 C1206 1.378 . S
C1199 C1198 1.367 . S
C1199 C1207 1.433 . S
C1200 H1196 0.929 . S
C1200 C1202 1.378 . S
C1200 C1204 1.350 . S
C1201 C1204 1.463 . S
C1201 C1206 1.350 . S
C1201 N1209 1.427 . S
C1202 H1193 0.930 . S
C1202 C1200 1.378 . S
C1202 C1203 1.367 . S
C1203 C1202 1.367 . S
C1203 C1205 1.433 . S
C1204 C1200 1.350 . S
C1204 C1201 1.463 . S
C1204 N1208 1.427 . S
C1205 H1195 0.929 . S
C1205 C1203 1.433 . S
C1205 N1208 1.384 . S
C1206 H1197 0.929 . S
C1206 C1198 1.378 . S
C1206 C1201 1.350 . S
C1207 H1194 0.929 . S
C1207 C1199 1.433 . S
C1207 N1209 1.384 . S
N1208 C1204 1.427 . S
N1208 C1205 1.384 . S
N1209 C1201 1.427 . S
N1209 C1207 1.384 . S
H1210 C1216 0.930 . S
H1211 C1220 0.930 . S
H1212 C1225 0.929 . S
H1213 C1223 0.929 . S
H1214 C1218 0.929 . S
H1215 C1224 0.929 . S
C1216 H1210 0.930 . S
C1216 C1217 1.367 . S
C1216 C1224 1.378 . S
C1217 C1216 1.367 . S
C1217 C1225 1.433 . S
C1218 H1214 0.929 . S
C1218 C1220 1.378 . S
C1218 C1222 1.350 . S
C1219 C1222 1.463 . S
C1219 C1224 1.350 . S
C1219 N1227 1.427 . S
C1220 H1211 0.930 . S
C1220 C1218 1.378 . S
C1220 C1221 1.367 . S
C1221 C1220 1.367 . S
C1221 C1223 1.433 . S
C1222 C1218 1.350 . S
C1222 C1219 1.463 . S
C1222 N1226 1.427 . S
C1223 H1213 0.929 . S
C1223 C1221 1.433 . S
C1223 N1226 1.384 . S
C1224 H1215 0.929 . S
C1224 C1216 1.378 . S
C1224 C1219 1.350 . S
C1225 H1212 0.929 . S
C1225 C1217 1.433 . S
C1225 N1227 1.384 . S
N1226 C1222 1.427 . S
N1226 C1223 1.384 . S
N1227 C1219 1.427 . S
N1227 C1225 1.384 . S
H1228 C1234 0.930 . S
H1229 C1238 0.930 . S
H1230 C1243 0.929 . S
H1231 C1241 0.929 . S
H1232 C1236 0.929 . S
H1233 C1242 0.929 . S
C1234 H1228 0.930 . S
C1234 C1235 1.367 . S
C1234 C1242 1.378 . S
C1235 C1234 1.367 . S
C1235 C1243 1.433 . S
C1236 H1232 0.929 . S
C1236 C1238 1.378 . S
C1236 C1240 1.350 . S
C1237 C1240 1.463 . S
C1237 C1242 1.350 . S
C1237 N1245 1.427 . S
C1238 H1229 0.930 . S
C1238 C1236 1.378 . S
C1238 C1239 1.367 . S
C1239 C1238 1.367 . S
C1239 C1241 1.433 . S
C1240 C1236 1.350 . S
C1240 C1237 1.463 . S
C1240 N1244 1.427 . S
C1241 H1231 0.929 . S
C1241 C1239 1.433 . S
C1241 N1244 1.384 . S
C1242 H1233 0.929 . S
C1242 C1234 1.378 . S
C1242 C1237 1.350 . S
C1243 H1230 0.929 . S
C1243 C1235 1.433 . S
C1243 N1245 1.384 . S
N1244 C1240 1.427 . S
N1244 C1241 1.384 . S
N1245 C1237 1.427 . S
N1245 C1243 1.384 . S
H1246 C1252 0.930 . S
H1247 C1256 0.930 . S
H1248 C1261 0.929 . S
H1249 C1259 0.929 . S
H1250 C1254 0.929 . S
H1251 C1260 0.929 . S
C1252 H1246 0.930 . S
C1252 C1253 1.367 . S
C1252 C1260 1.378 . S
C1253 C1252 1.367 . S
C1253 C1261 1.433 . S
C1254 H1250 0.929 . S
C1254 C1256 1.378 . S
C1254 C1258 1.350 . S
C1255 C1258 1.463 . S
C1255 C1260 1.350 . S
C1255 N1263 1.427 . S
C1256 H1247 0.930 . S
C1256 C1254 1.378 . S
C1256 C1257 1.367 . S
C1257 C1256 1.367 . S
C1257 C1259 1.433 . S
C1258 C1254 1.350 . S
C1258 C1255 1.463 . S
C1258 N1262 1.427 . S
C1259 H1249 0.929 . S
C1259 C1257 1.433 . S
C1259 N1262 1.384 . S
C1260 H1251 0.929 . S
C1260 C1252 1.378 . S
C1260 C1255 1.350 . S
C1261 H1248 0.929 . S
C1261 C1253 1.433 . S
C1261 N1263 1.384 . S
N1262 C1258 1.427 . S
N1262 C1259 1.384 . S
N1263 C1255 1.427 . S
N1263 C1261 1.384 . S
C551 C33 1.126 . S
C555 C543 1.127 . S
C569 C441 1.126 . S
C573 C67 1.127 . S
C587 C475 1.126 . S
C591 C101 1.126 . S
C605 C509 1.127 . S
C609 C135 1.125 . S
C623 C169 1.128 . S
C627 C339 1.125 . S
C641 C373 1.128 . S
C645 C203 1.124 . S
C659 C407 1.128 . S
C663 C237 1.125 . S
C677 C271 1.128 . S
C681 C305 1.124 . S
C695 C213 0.584 . S
C699 C9 0.601 . S
C713 C247 0.593 . S
C717 C43 0.589 . S
C731 C145 0.587 . S
C735 C77 0.610 . S
C749 C179 0.587 . S
C753 C111 0.610 . S
C767 C156 2.241 . S
C771 C88 2.242 . S
C785 C122 2.242 . S
C789 C190 2.242 . S
C803 C224 2.241 . S
C807 C20 2.242 . S
C821 C54 2.242 . S
C825 C258 2.242 . S
C839 C281 0.609 . S
C843 C485 0.585 . S
C857 C519 0.596 . S
C861 C315 0.608 . S
C875 C417 0.610 . S
C879 C349 0.590 . S
C893 C451 0.590 . S
C897 C383 0.610 . S
C911 C428 2.241 . S
C915 C360 2.243 . S
C929 C462 2.241 . S
C933 C394 2.242 . S
C947 C292 2.241 . S
C951 C496 2.242 . S
C965 C326 2.241 . S
C969 C530 2.242 . S
C983 C172 2.833 . S
C987 C2 2.834 . S
C1001 C36 2.834 . S
C1005 C206 2.833 . S
C1019 C240 2.833 . S
C1023 C70 2.834 . S
C1037 C104 2.834 . S
C1041 C138 2.834 . S
C1055 C73 0.932 . S
C1059 C243 0.945 . S
C1073 C141 0.932 . S
C1077 C107 0.947 . S
C1091 C175 0.946 . S
C1095 C5 0.940 . S
C1109 C39 0.940 . S
C1113 C209 0.935 . S
C1127 C444 2.834 . S
C1131 C274 2.833 . S
C1145 C308 2.834 . S
C1149 C478 2.834 . S
C1163 C512 2.833 . S
C1167 C342 2.834 . S
C1181 C376 2.834 . S
C1185 C410 2.834 . S
C1199 C515 0.936 . S
C1203 C345 0.939 . S
C1217 C379 0.941 . S
C1221 C413 0.945 . S
C1235 C447 0.936 . S
C1239 C277 0.939 . S
C1253 C311 0.939 . S
C1257 C481 0.946 . S
