# Generated by pormake.
# Topology sst, (4)-cn, num edge types: 1
# Building blocks:
#     Node 0, Type 0, BuildingBlock: NAWXER_clean_sbu_0, # of connection points: 4
#     Node 1, Type 0, BuildingBlock: NAWXER_clean_sbu_0, # of connection points: 4
#     Node 2, Type 0, BuildingBlock: NAWXER_clean_sbu_0, # of connection points: 4
#     Node 3, Type 0, BuildingBlock: NAWXER_clean_sbu_0, # of connection points: 4
#     Node 4, Type 0, BuildingBlock: NAWXER_clean_sbu_0, # of connection points: 4
#     Node 5, Type 0, BuildingBlock: NAWXER_clean_sbu_0, # of connection points: 4
#     Node 6, Type 0, BuildingBlock: NAWXER_clean_sbu_0, # of connection points: 4
#     Node 7, Type 0, BuildingBlock: NAWXER_clean_sbu_0, # of connection points: 4
#     Node 8, Type 0, BuildingBlock: NAWXER_clean_sbu_0, # of connection points: 4
#     Node 9, Type 0, BuildingBlock: NAWXER_clean_sbu_0, # of connection points: 4
#     Node 10, Type 0, BuildingBlock: NAWXER_clean_sbu_0, # of connection points: 4
#     Node 11, Type 0, BuildingBlock: NAWXER_clean_sbu_0, # of connection points: 4
#     Node 12, Type 0, BuildingBlock: NAWXER_clean_sbu_0, # of connection points: 4
#     Node 13, Type 0, BuildingBlock: NAWXER_clean_sbu_0, # of connection points: 4
#     Node 14, Type 0, BuildingBlock: NAWXER_clean_sbu_0, # of connection points: 4
#     Node 15, Type 0, BuildingBlock: NAWXER_clean_sbu_0, # of connection points: 4
#     Node 16, Type 0, BuildingBlock: NAWXER_clean_sbu_0, # of connection points: 4
#     Node 17, Type 0, BuildingBlock: NAWXER_clean_sbu_0, # of connection points: 4
#     Node 18, Type 0, BuildingBlock: NAWXER_clean_sbu_0, # of connection points: 4
#     Node 19, Type 0, BuildingBlock: NAWXER_clean_sbu_0, # of connection points: 4
#     Node 20, Type 0, BuildingBlock: NAWXER_clean_sbu_0, # of connection points: 4
#     Node 21, Type 0, BuildingBlock: NAWXER_clean_sbu_0, # of connection points: 4
#     Node 22, Type 0, BuildingBlock: NAWXER_clean_sbu_0, # of connection points: 4
#     Node 23, Type 0, BuildingBlock: NAWXER_clean_sbu_0, # of connection points: 4
#     Node 24, Type 0, BuildingBlock: NAWXER_clean_sbu_0, # of connection points: 4
#     Node 25, Type 0, BuildingBlock: NAWXER_clean_sbu_0, # of connection points: 4
#     Node 26, Type 0, BuildingBlock: NAWXER_clean_sbu_0, # of connection points: 4
#     Node 27, Type 0, BuildingBlock: NAWXER_clean_sbu_0, # of connection points: 4
#     Node 28, Type 0, BuildingBlock: NAWXER_clean_sbu_0, # of connection points: 4
#     Node 29, Type 0, BuildingBlock: NAWXER_clean_sbu_0, # of connection points: 4
#     Node 30, Type 0, BuildingBlock: NAWXER_clean_sbu_0, # of connection points: 4
#     Node 31, Type 0, BuildingBlock: NAWXER_clean_sbu_0, # of connection points: 4
#     Node 32, Type 0, BuildingBlock: NAWXER_clean_sbu_0, # of connection points: 4
#     Node 33, Type 0, BuildingBlock: NAWXER_clean_sbu_0, # of connection points: 4
#     Node 34, Type 0, BuildingBlock: NAWXER_clean_sbu_0, # of connection points: 4
#     Node 35, Type 0, BuildingBlock: NAWXER_clean_sbu_0, # of connection points: 4
#     Node 36, Type 0, BuildingBlock: NAWXER_clean_sbu_0, # of connection points: 4
#     Node 37, Type 0, BuildingBlock: NAWXER_clean_sbu_0, # of connection points: 4
#     Node 38, Type 0, BuildingBlock: NAWXER_clean_sbu_0, # of connection points: 4
#     Node 39, Type 0, BuildingBlock: NAWXER_clean_sbu_0, # of connection points: 4
#     Node 40, Type 0, BuildingBlock: NAWXER_clean_sbu_0, # of connection points: 4
#     Node 41, Type 0, BuildingBlock: NAWXER_clean_sbu_0, # of connection points: 4
#     Node 42, Type 0, BuildingBlock: NAWXER_clean_sbu_0, # of connection points: 4
#     Node 43, Type 0, BuildingBlock: NAWXER_clean_sbu_0, # of connection points: 4
#     Node 44, Type 0, BuildingBlock: NAWXER_clean_sbu_0, # of connection points: 4
#     Node 45, Type 0, BuildingBlock: NAWXER_clean_sbu_0, # of connection points: 4
#     Node 46, Type 0, BuildingBlock: NAWXER_clean_sbu_0, # of connection points: 4
#     Node 47, Type 0, BuildingBlock: NAWXER_clean_sbu_0, # of connection points: 4
#     Edge 48, Type (0, 0), None
#     Edge 49, Type (0, 0), None
#     Edge 50, Type (0, 0), None
#     Edge 51, Type (0, 0), None
#     Edge 52, Type (0, 0), None
#     Edge 53, Type (0, 0), None
#     Edge 54, Type (0, 0), None
#     Edge 55, Type (0, 0), None
#     Edge 56, Type (0, 0), None
#     Edge 57, Type (0, 0), None
#     Edge 58, Type (0, 0), None
#     Edge 59, Type (0, 0), None
#     Edge 60, Type (0, 0), None
#     Edge 61, Type (0, 0), None
#     Edge 62, Type (0, 0), None
#     Edge 63, Type (0, 0), None
#     Edge 64, Type (0, 0), None
#     Edge 65, Type (0, 0), None
#     Edge 66, Type (0, 0), None
#     Edge 67, Type (0, 0), None
#     Edge 68, Type (0, 0), None
#     Edge 69, Type (0, 0), None
#     Edge 70, Type (0, 0), None
#     Edge 71, Type (0, 0), None
#     Edge 72, Type (0, 0), None
#     Edge 73, Type (0, 0), None
#     Edge 74, Type (0, 0), None
#     Edge 75, Type (0, 0), None
#     Edge 76, Type (0, 0), None
#     Edge 77, Type (0, 0), None
#     Edge 78, Type (0, 0), None
#     Edge 79, Type (0, 0), None
#     Edge 80, Type (0, 0), None
#     Edge 81, Type (0, 0), None
#     Edge 82, Type (0, 0), None
#     Edge 83, Type (0, 0), None
#     Edge 84, Type (0, 0), None
#     Edge 85, Type (0, 0), None
#     Edge 86, Type (0, 0), None
#     Edge 87, Type (0, 0), None
#     Edge 88, Type (0, 0), None
#     Edge 89, Type (0, 0), None
#     Edge 90, Type (0, 0), None
#     Edge 91, Type (0, 0), None
#     Edge 92, Type (0, 0), None
#     Edge 93, Type (0, 0), None
#     Edge 94, Type (0, 0), None
#     Edge 95, Type (0, 0), None
#     Edge 96, Type (0, 0), None
#     Edge 97, Type (0, 0), None
#     Edge 98, Type (0, 0), None
#     Edge 99, Type (0, 0), None
#     Edge 100, Type (0, 0), None
#     Edge 101, Type (0, 0), None
#     Edge 102, Type (0, 0), None
#     Edge 103, Type (0, 0), None
#     Edge 104, Type (0, 0), None
#     Edge 105, Type (0, 0), None
#     Edge 106, Type (0, 0), None
#     Edge 107, Type (0, 0), None
#     Edge 108, Type (0, 0), None
#     Edge 109, Type (0, 0), None
#     Edge 110, Type (0, 0), None
#     Edge 111, Type (0, 0), None
#     Edge 112, Type (0, 0), None
#     Edge 113, Type (0, 0), None
#     Edge 114, Type (0, 0), None
#     Edge 115, Type (0, 0), None
#     Edge 116, Type (0, 0), None
#     Edge 117, Type (0, 0), None
#     Edge 118, Type (0, 0), None
#     Edge 119, Type (0, 0), None
#     Edge 120, Type (0, 0), None
#     Edge 121, Type (0, 0), None
#     Edge 122, Type (0, 0), None
#     Edge 123, Type (0, 0), None
#     Edge 124, Type (0, 0), None
#     Edge 125, Type (0, 0), None
#     Edge 126, Type (0, 0), None
#     Edge 127, Type (0, 0), None
#     Edge 128, Type (0, 0), None
#     Edge 129, Type (0, 0), None
#     Edge 130, Type (0, 0), None
#     Edge 131, Type (0, 0), None
#     Edge 132, Type (0, 0), None
#     Edge 133, Type (0, 0), None
#     Edge 134, Type (0, 0), None
#     Edge 135, Type (0, 0), None
#     Edge 136, Type (0, 0), None
#     Edge 137, Type (0, 0), None
#     Edge 138, Type (0, 0), None
#     Edge 139, Type (0, 0), None
#     Edge 140, Type (0, 0), None
#     Edge 141, Type (0, 0), None
#     Edge 142, Type (0, 0), None
#     Edge 143, Type (0, 0), None
# Relax obj value: 0.000
# Max RMSD: 0.000
# Mean RMSD: 0.000
data_MOF--net-sst--node1-NAWXER_clean_sbu_0--edge1-none
_symmetry_space_group_name_H-M    P1
_symmetry_Int_Tables_number       1
_symmetry_cell_setting            triclinic
loop_
_symmetry_equiv_pos_as_xyz
'x, y, z'
_cell_length_a     25.134675
_cell_length_b     25.134663
_cell_length_c     25.134679
_cell_angle_alpha  97.550408
_cell_angle_beta   97.550217
_cell_angle_gamma 97.550315
loop_
_atom_site_label
_atom_site_type_symbol
_atom_site_fract_x
_atom_site_fract_y
_atom_site_fract_z
_atom_type_partial_charge
C0 C 0.11311 0.27999 0.36024 0.0
C1 C 0.11203 0.08464 0.37384 0.0
O2 O 0.10652 0.24155 0.32051 0.0
Zn3 Zn 0.11481 0.18062 0.36206 0.0
O4 O 0.12246 0.26948 0.40878 0.0
Zn5 Zn 0.12888 0.20119 0.45008 0.0
O6 O 0.20535 0.21477 0.48588 0.0
O7 O 0.19856 0.19232 0.39715 0.0
O8 O 0.1212 0.11686 0.41895 0.0
O9 O 0.10648 0.10376 0.32912 0.0
O10 O 0.04415 0.17417 0.39976 0.0
O11 O 0.06468 0.19683 0.48874 0.0
C12 C 0.22799 0.20523 0.44385 0.0
C13 C 1.02933 0.17945 0.44666 0.0
C14 C 0.84401 0.19178 0.35576 0.0
C15 C 0.86764 1.01309 0.40138 0.0
O16 O 0.8404 0.14902 0.32136 0.0
Zn17 Zn 0.85873 0.10362 0.37598 0.0
O18 O 0.85805 0.19092 0.40644 0.0
Zn19 Zn 0.87595 0.13403 0.46064 0.0
O20 O 0.9512 0.16581 0.49248 0.0
O21 O 0.94157 0.13749 0.40464 0.0
O22 O 0.87507 0.04773 0.4448 0.0
O23 O 0.85911 1.02875 0.35542 0.0
O24 O 0.78866 0.10553 0.41407 0.0
O25 O 0.81555 0.14037 0.50012 0.0
C26 C 0.97165 0.16062 0.4489 0.0
C27 C 0.77738 0.1214 0.461 0.0
C28 C 0.86607 0.95478 0.40263 0.0
C29 C 0.84872 0.75701 0.40557 0.0
O30 O 0.85483 0.92417 0.35677 0.0
Zn31 Zn 0.84383 0.84214 0.32102 0.0
O32 O 0.87404 0.93414 0.44635 0.0
Zn33 Zn 0.86303 0.8579 0.41001 0.0
O34 O 0.92987 0.86425 0.3672 0.0
O35 O 0.90599 0.84633 0.27823 0.0
O36 O 0.86598 0.79334 0.44671 0.0
O37 O 0.84131 0.77096 0.35849 0.0
O38 O 0.76835 0.83789 0.2907 0.0
O39 O 0.77993 0.85124 0.38013 0.0
C40 C 0.94271 0.86189 0.3194 0.0
C41 C 0.74859 0.84366 0.33476 0.0
C42 C 0.10739 1.02602 0.37636 0.0
C43 C 0.09887 0.84146 0.42028 0.0
O44 O 0.10309 0.99091 0.33344 0.0
Zn45 Zn 0.09916 0.90356 0.31657 0.0
O46 O 0.1088 1.01038 0.42254 0.0
Zn47 Zn 0.10673 0.93448 0.40211 0.0
O48 O 0.18329 0.93021 0.37843 0.0
O49 O 0.16971 0.89458 0.29204 0.0
O50 O 0.10671 0.88461 0.45473 0.0
O51 O 0.0981 0.8443 0.36987 0.0
O52 O 1.02404 0.87491 0.27554 0.0
O53 O 1.02721 0.9068 0.36221 0.0
C54 C 0.20232 0.91397 0.33568 0.0
C55 C 0.99999 0.88295 0.31697 0.0
C56 C 0.2015 0.04874 0.652 0.0
C57 C 0.22513 0.87005 0.69762 0.0
O58 O 0.19407 1.0141 0.60858 0.0
Zn59 Zn 0.19319 0.9278 0.59274 0.0
O60 O 0.21003 0.03308 0.69796 0.0
Zn61 Zn 0.21041 0.95821 0.6774 0.0
O62 O 0.28048 0.9563 0.63931 0.0
O63 O 0.25359 0.92146 0.55326 0.0
O64 O 0.22875 0.91281 0.73202 0.0
O65 O 0.21109 0.87091 0.64694 0.0
O66 O 0.11794 0.89603 0.5609 0.0
O67 O 0.12757 0.92434 0.64874 0.0
C68 C 0.29176 0.94043 0.59238 0.0
C69 C 0.09749 0.90122 0.60448 0.0
C70 C 0.22042 0.30483 0.64781 0.0
C71 C 0.20307 0.10706 0.65075 0.0
O72 O 0.20316 0.2685 0.60667 0.0
Zn73 Zn 0.20611 0.20394 0.64337 0.0
O74 O 0.22783 0.29088 0.69489 0.0
Zn75 Zn 0.22531 0.2197 0.73236 0.0
O76 O 0.30079 0.22395 0.76268 0.0
O77 O 0.28922 0.2106 0.67325 0.0
O78 O 0.21431 0.13766 0.69662 0.0
O79 O 0.1951 0.12769 0.60703 0.0
O80 O 0.13927 0.19758 0.68618 0.0
O81 O 0.16315 0.2155 0.77515 0.0
C82 C 0.32055 0.21818 0.71862 0.0
C83 C 0.12643 0.19994 0.73398 0.0
C84 C 0.97027 0.22037 0.6331 0.0
C85 C 0.96175 0.03581 0.67702 0.0
O86 O 0.96243 0.17722 0.59865 0.0
Zn87 Zn 0.96241 0.12735 0.65127 0.0
O88 O 0.97104 0.21753 0.68351 0.0
Zn89 Zn 0.96998 0.15828 0.73681 0.0
O90 O 0.0451 0.18692 0.77784 0.0
O91 O 0.04193 0.15503 0.69117 0.0
O92 O 0.96605 0.07092 0.71994 0.0
O93 O 0.96034 0.05145 0.63084 0.0
O94 O 0.88585 0.13162 0.67495 0.0
O95 O 0.89943 0.16725 0.76134 0.0
C96 C 0.06915 0.17888 0.73641 0.0
C97 C 0.86683 0.14787 0.7177 0.0
C98 C 0.95711 0.97719 0.67954 0.0
C99 C 0.95603 0.78185 0.69314 0.0
O100 O 0.94794 0.94497 0.63443 0.0
Zn101 Zn 0.94026 0.86065 0.6033 0.0
O102 O 0.96266 0.95807 0.72426 0.0
Zn103 Zn 0.95433 0.88121 0.69132 0.0
O104 O 1.02499 0.88766 0.65362 0.0
O105 O 1.00446 0.865 0.56464 0.0
O106 O 0.96262 0.82029 0.73287 0.0
O107 O 0.94668 0.79235 0.6446 0.0
O108 O 0.86379 0.84707 0.5675 0.0
O109 O 0.87058 0.86951 0.65623 0.0
C110 C 0.03981 0.88239 0.60672 0.0
C111 C 0.84115 0.8566 0.60953 0.0
C112 C 0.45173 0.22434 0.20101 0.0
C113 C 0.45454 1.02568 0.17522 0.0
O114 O 0.49376 0.2017 0.21054 0.0
Zn115 Zn 0.45796 0.12523 0.19696 0.0
O116 O 0.40503 0.19491 0.18809 0.0
Zn117 Zn 0.36994 0.11115 0.17639 0.0
O118 O 0.32839 0.10287 0.23732 0.0
O119 O 0.41666 0.11881 0.26525 0.0
O120 O 0.40764 0.0405 0.16995 0.0
O121 O 0.49662 0.06103 0.1926 0.0
O122 O 0.42683 0.11755 0.11263 0.0
O123 O 0.337 0.10283 0.09953 0.0
C124 C 0.36812 0.10946 0.27576 0.0
C125 C 0.38172 0.10838 0.08041 0.0
C126 C 1.02968 0.38059 0.09951 0.0
C127 C 0.84511 0.4245 0.09099 0.0
O128 O 0.99457 0.33767 0.09521 0.0
Zn129 Zn 0.90721 0.32079 0.09128 0.0
O130 O 1.01403 0.42677 0.10092 0.0
Zn131 Zn 0.93813 0.40633 0.09885 0.0
O132 O 0.93386 0.38265 0.17541 0.0
O133 O 0.89823 0.29627 0.16183 0.0
O134 O 0.88826 0.45895 0.09883 0.0
O135 O 0.84796 0.37409 0.09021 0.0
O136 O 0.87856 0.27977 1.01615 0.0
O137 O 0.91046 0.36643 1.01933 0.0
C138 C 0.91762 0.33991 0.19443 0.0
C139 C 0.88661 0.32119 0.99211 0.0
C140 C 0.74429 0.0655 0.17465 0.0
C141 C 0.72558 0.86317 0.14364 0.0
O142 O 0.78572 0.04145 0.18269 0.0
Zn143 Zn 0.74469 0.96632 0.15405 0.0
O144 O 0.69905 0.03828 0.1508 0.0
Zn145 Zn 0.65915 0.95875 0.12312 0.0
O146 O 0.60654 0.95877 0.173 0.0
O147 O 0.69139 0.96739 0.2133 0.0
O148 O 0.68284 0.88219 0.1274 0.0
O149 O 0.76922 0.89577 0.16302 0.0
O150 O 0.72782 0.96239 0.06669 0.0
O151 O 0.63872 0.95669 0.04722 0.0
C152 C 0.64098 0.96662 0.21615 0.0
C153 C 0.6849 0.95809 0.03158 0.0
C154 C 0.30848 0.65204 0.21254 0.0
C155 C 0.11071 0.65497 0.19519 0.0
O156 O 0.27215 0.6109 0.19528 0.0
Zn157 Zn 0.20759 0.6476 0.19823 0.0
O158 O 0.29453 0.69912 0.21995 0.0
Zn159 Zn 0.22335 0.73658 0.21743 0.0
O160 O 0.2276 0.76691 0.29291 0.0
O161 O 0.21425 0.67748 0.28134 0.0
O162 O 0.14131 0.70084 0.20643 0.0
O163 O 0.13135 0.61126 0.18722 0.0
O164 O 0.20123 0.69041 0.13139 0.0
O165 O 0.21915 0.77937 0.15528 0.0
C166 C 0.22183 0.72284 0.31267 0.0
C167 C 0.2036 0.7382 0.11855 0.0
C168 C 0.32729 0.93906 0.85766 0.0
C169 C 0.34265 0.74493 0.83943 0.0
O170 O 0.37508 0.92622 0.86003 0.0
Zn171 Zn 0.41789 0.85937 0.85367 0.0
O172 O 0.28612 0.90233 0.84211 0.0
Zn173 Zn 0.3289 0.84018 0.83791 0.0
O174 O 0.36465 0.85118 0.91995 0.0
O175 O 0.45423 0.87039 0.92992 0.0
O176 O 0.29858 0.76469 0.83366 0.0
O177 O 0.38801 0.77627 0.84701 0.0
O178 O 0.45459 0.86233 0.78911 0.0
O179 O 0.36637 0.83766 0.76673 0.0
C180 C 0.41051 0.86242 0.95055 0.0
C181 C 0.41345 0.84507 0.75278 0.0
C182 C 0.19544 0.35999 0.83613 0.0
C183 C 1.01674 0.4056 0.85976 0.0
O184 O 0.15268 0.32559 0.83252 0.0
Zn185 Zn 0.10728 0.38021 0.85085 0.0
O186 O 0.19458 0.41067 0.85017 0.0
Zn187 Zn 0.13768 0.46487 0.86807 0.0
O188 O 0.16946 0.4967 0.94332 0.0
O189 O 0.14114 0.40886 0.9337 0.0
O190 O 0.05139 0.44903 0.8672 0.0
O191 O 1.0324 0.35964 0.85123 0.0
O192 O 0.10919 0.4183 0.78078 0.0
O193 O 0.14403 0.50435 0.80768 0.0
C194 C 0.16427 0.45313 0.96377 0.0
C195 C 0.12506 0.46523 0.7695 0.0
C196 C 0.60026 0.28811 0.9362 0.0
C197 C 0.61236 0.09384 0.89699 0.0
O198 O 0.64719 0.27682 0.95207 0.0
Zn199 Zn 0.68528 0.20676 0.95398 0.0
O200 O 0.56114 0.24993 0.91723 0.0
Zn201 Zn 0.60062 0.18954 0.92358 0.0
O202 O 0.61646 0.19041 1.00987 0.0
O203 O 0.70584 0.20637 0.02886 0.0
O204 O 0.56878 0.11429 0.8918 0.0
O205 O 0.65662 0.12391 0.92012 0.0
O206 O 0.7399 0.22509 0.90858 0.0
O207 O 0.65482 0.20744 0.86668 0.0
C208 C 0.65988 0.19785 0.04452 0.0
C209 C 0.7055 0.22148 0.86582 0.0
C210 C 0.98085 0.68377 0.94923 0.0
C211 C 0.7855 0.69737 0.94815 0.0
O212 O 0.94863 0.63865 0.94006 0.0
Zn213 Zn 0.8643 0.60752 0.93238 0.0
O214 O 0.96173 0.72849 0.95478 0.0
Zn215 Zn 0.88487 0.69554 0.94645 0.0
O216 O 0.89132 0.65785 1.01711 0.0
O217 O 0.86866 0.56886 0.99658 0.0
O218 O 0.82394 0.73709 0.95474 0.0
O219 O 0.79601 0.64882 0.9388 0.0
O220 O 0.85072 0.57173 0.85591 0.0
O221 O 0.87317 0.66046 0.8627 0.0
C222 C 0.88604 0.61095 0.03192 0.0
C223 C 0.86026 0.61375 0.83327 0.0
C224 C 0.28364 0.36447 0.10523 0.0
C225 C 0.08829 0.37806 0.10415 0.0
O226 O 0.2452 0.32474 0.09865 0.0
Zn227 Zn 0.18427 0.36629 0.10693 0.0
O228 O 0.27313 0.41301 0.11458 0.0
Zn229 Zn 0.20484 0.45431 0.121 0.0
O230 O 0.21842 0.4901 0.19747 0.0
O231 O 0.19597 0.40138 0.19068 0.0
O232 O 0.12051 0.42318 0.11332 0.0
O233 O 0.10741 0.33334 0.0986 0.0
O234 O 0.17782 0.40398 0.03627 0.0
O235 O 0.20048 0.49297 0.0568 0.0
C236 C 0.20889 0.44808 0.22011 0.0
C237 C 0.1831 0.45088 1.02146 0.0
C238 C 0.22403 0.63733 0.96239 0.0
C239 C 0.03946 0.68125 0.95387 0.0
O240 O 0.18088 0.60288 0.95455 0.0
Zn241 Zn 0.13101 0.6555 0.95453 0.0
O242 O 0.22118 0.68774 0.96317 0.0
Zn243 Zn 0.16193 0.74104 0.9621 0.0
O244 O 0.19058 0.78206 0.03723 0.0
O245 O 0.15869 0.6954 0.03405 0.0
O246 O 0.07457 0.72417 0.95817 0.0
O247 O 0.05511 0.63507 0.95246 0.0
O248 O 0.13528 0.67918 0.87797 0.0
O249 O 0.17091 0.76557 0.89155 0.0
C250 C 0.18254 0.74064 0.06127 0.0
C251 C 0.15152 0.72193 0.85895 0.0
C252 C 0.34356 0.19866 0.90974 0.0
C253 C 0.32485 0.99634 0.87873 0.0
O254 O 0.38631 0.17964 0.92598 0.0
Zn255 Zn 0.40999 0.10308 0.93026 0.0
O256 O 0.29992 0.16606 0.89036 0.0
Zn257 Zn 0.32445 0.09551 0.89933 0.0
O258 O 0.34132 0.09944 0.98669 0.0
O259 O 0.43042 0.10515 1.00616 0.0
O260 O 0.28342 1.02038 0.87069 0.0
O261 O 0.37009 1.02356 0.90258 0.0
O262 O 0.46261 0.10306 0.88038 0.0
O263 O 0.37775 0.09444 0.84008 0.0
C264 C 0.38424 0.10374 1.0218 0.0
C265 C 0.42816 0.09522 0.83723 0.0
C266 C 0.95843 0.40686 0.85819 0.0
C267 C 0.76066 0.4098 0.84084 0.0
O268 O 0.92783 0.36099 0.84695 0.0
Zn269 Zn 0.84579 0.32525 0.83595 0.0
O270 O 0.9378 0.45057 0.86616 0.0
Zn271 Zn 0.86155 0.41423 0.85515 0.0
O272 O 0.86791 0.37143 0.92199 0.0
O273 O 0.84999 0.28246 0.8981 0.0
O274 O 0.79699 0.45093 0.8581 0.0
O275 O 0.77461 0.36271 0.83343 0.0
O276 O 0.84154 0.29493 0.76047 0.0
O277 O 0.85489 0.38436 0.77204 0.0
C278 C 0.86555 0.32363 0.93483 0.0
C279 C 0.84731 0.33899 0.74071 0.0
C280 C 0.6146 0.03615 0.87816 0.0
C281 C 0.61741 0.8375 0.85237 0.0
O282 O 0.6615 1.02134 0.88344 0.0
Zn283 Zn 0.6992 0.95068 0.87699 0.0
O284 O 0.57252 1.0008 0.86078 0.0
Zn285 Zn 0.61118 0.9366 0.85642 0.0
O286 O 0.64231 0.94428 0.94075 0.0
O287 O 0.73214 0.959 0.95385 0.0
O288 O 0.57539 0.86014 0.84284 0.0
O289 O 0.66411 0.86693 0.86529 0.0
O290 O 0.74075 0.95896 0.81606 0.0
O291 O 0.65248 0.94303 0.78813 0.0
C292 C 0.68742 0.95345 0.97297 0.0
C293 C 0.70102 0.95237 0.77762 0.0
C294 C 0.0524 0.65623 0.19362 0.0
C295 C 0.8737 0.70184 0.21725 0.0
O296 O 1.01775 0.6128 0.18618 0.0
Zn297 Zn 0.93146 0.59697 0.18531 0.0
O298 O 0.03674 0.70219 0.20215 0.0
Zn299 Zn 0.96186 0.68162 0.20253 0.0
O300 O 0.95995 0.64354 0.2726 0.0
O301 O 0.92511 0.55749 0.2457 0.0
O302 O 0.91647 0.73624 0.22086 0.0
O303 O 0.87456 0.65117 0.20321 0.0
O304 O 0.89968 0.56513 0.11006 0.0
O305 O 0.928 0.65297 0.11968 0.0
C306 C 0.94408 0.59661 0.28388 0.0
C307 C 0.90487 0.6087 0.08961 0.0
C308 C 0.45678 0.968 0.15639 0.0
C309 C 0.46888 0.77373 0.11718 0.0
O310 O 0.50036 0.94755 0.16158 0.0
Zn311 Zn 0.46852 0.8723 0.12981 0.0
O312 O 0.41252 0.93792 0.13326 0.0
Zn313 Zn 0.38386 0.85508 0.0994 0.0
O314 O 0.32924 0.83674 0.1448 0.0
O315 O 0.41432 0.85439 0.1867 0.0
O316 O 0.42195 0.78501 0.10131 0.0
O317 O 0.508 0.8119 0.13615 0.0
O318 O 0.45269 0.87142 0.04351 0.0
O319 O 0.3633 0.85546 1.02453 0.0
C320 C 0.36364 0.84036 0.18756 0.0
C321 C 0.40926 0.86399 1.00886 0.0
C322 C 0.72649 0.3169 0.21395 0.0
C323 C 0.74186 0.12277 0.19571 0.0
O324 O 0.77056 0.29714 0.21972 0.0
Zn325 Zn 0.74024 0.22165 0.21547 0.0
O326 O 0.68113 0.28556 0.20637 0.0
Zn327 Zn 0.65125 0.20246 0.19971 0.0
O328 O 0.61455 0.1995 0.26427 0.0
O329 O 0.70277 0.22417 0.28665 0.0
O330 O 0.69406 0.13562 0.19335 0.0
O331 O 0.78303 0.1595 0.21127 0.0
O332 O 0.70449 0.21066 0.13343 0.0
O333 O 0.61491 0.19145 0.12346 0.0
C334 C 0.65569 0.21676 0.3006 0.0
C335 C 0.65863 0.19941 0.10283 0.0
C336 C 0.61311 0.77998 0.86024 0.0
C337 C 0.61203 0.58464 0.87384 0.0
O338 O 0.60652 0.74154 0.82051 0.0
Zn339 Zn 0.6148 0.68062 0.86207 0.0
O340 O 0.62246 0.76947 0.90878 0.0
Zn341 Zn 0.62888 0.70118 0.95009 0.0
O342 O 0.70535 0.71476 0.98588 0.0
O343 O 0.69856 0.69231 0.89715 0.0
O344 O 0.62119 0.61686 0.91896 0.0
O345 O 0.60647 0.60376 0.82912 0.0
O346 O 0.54414 0.67417 0.89976 0.0
O347 O 0.56467 0.69683 0.98875 0.0
C348 C 0.72798 0.70523 0.94385 0.0
C349 C 0.52933 0.67945 0.94666 0.0
C350 C 0.34399 0.69178 0.85577 0.0
C351 C 0.36764 0.5131 0.90138 0.0
O352 O 0.34039 0.64903 0.82136 0.0
Zn353 Zn 0.35872 0.60363 0.87598 0.0
O354 O 0.35802 0.69093 0.90645 0.0
Zn355 Zn 0.37593 0.63404 0.96065 0.0
O356 O 0.45119 0.66582 0.99248 0.0
O357 O 0.44157 0.6375 0.90464 0.0
O358 O 0.37506 0.54774 0.9448 0.0
O359 O 0.35911 0.52876 0.85542 0.0
O360 O 0.28865 0.60552 0.91406 0.0
O361 O 0.31554 0.64038 1.00013 0.0
C362 C 0.47164 0.66063 0.94891 0.0
C363 C 0.27738 0.62138 0.961 0.0
C364 C 0.36607 0.45479 0.90263 0.0
C365 C 0.34873 0.25702 0.90557 0.0
O366 O 0.35482 0.42418 0.85677 0.0
Zn367 Zn 0.34382 0.34215 0.82102 0.0
O368 O 0.37404 0.43415 0.94635 0.0
Zn369 Zn 0.36303 0.35791 0.91001 0.0
O370 O 0.42986 0.36427 0.8672 0.0
O371 O 0.40597 0.34635 0.77823 0.0
O372 O 0.36599 0.29335 0.94671 0.0
O373 O 0.34131 0.27097 0.85849 0.0
O374 O 0.26833 0.3379 0.79071 0.0
O375 O 0.27992 0.35124 0.88015 0.0
C376 C 0.4427 0.3619 0.8194 0.0
C377 C 0.24858 0.34365 0.83478 0.0
C378 C 0.60739 0.52602 0.87636 0.0
C379 C 0.59886 0.34146 0.92026 0.0
O380 O 0.60308 0.49092 0.83344 0.0
Zn381 Zn 0.59915 0.40356 0.81656 0.0
O382 O 0.60879 0.51038 0.92254 0.0
Zn383 Zn 0.60672 0.43448 0.9021 0.0
O384 O 0.68328 0.43021 0.87842 0.0
O385 O 0.6697 0.39459 0.79203 0.0
O386 O 0.6067 0.3846 0.95472 0.0
O387 O 0.59808 0.34431 0.86985 0.0
O388 O 0.52402 0.37492 0.77553 0.0
O389 O 0.5272 0.40681 0.8622 0.0
C390 C 0.7023 0.41396 0.83567 0.0
C391 C 0.49998 0.38296 0.81696 0.0
C392 C 0.7015 0.54873 0.152 0.0
C393 C 0.72515 0.37005 0.19761 0.0
O394 O 0.69408 0.51409 0.10858 0.0
Zn395 Zn 0.69321 0.42779 0.09274 0.0
O396 O 0.71003 0.53307 0.19796 0.0
Zn397 Zn 0.71042 0.4582 0.1774 0.0
O398 O 0.78049 0.45631 0.13932 0.0
O399 O 0.7536 0.42145 0.05325 0.0
O400 O 0.72875 0.4128 0.23202 0.0
O401 O 0.71112 0.37091 0.14694 0.0
O402 O 0.61795 0.39602 0.0609 0.0
O403 O 0.62758 0.42433 0.14874 0.0
C404 C 0.79176 0.44046 0.09238 0.0
C405 C 0.5975 0.40121 0.10448 0.0
C406 C 0.72041 0.80481 0.14781 0.0
C407 C 0.70307 0.60705 0.15075 0.0
O408 O 0.70315 0.76848 0.10667 0.0
Zn409 Zn 0.70612 0.70392 0.14337 0.0
O410 O 0.72783 0.79086 0.19489 0.0
Zn411 Zn 0.72532 0.71969 0.23236 0.0
O412 O 0.80081 0.72394 0.26267 0.0
O413 O 0.78922 0.7106 0.17323 0.0
O414 O 0.71432 0.63765 0.19661 0.0
O415 O 0.6951 0.62768 0.10703 0.0
O416 O 0.63928 0.69757 0.18618 0.0
O417 O 0.66317 0.71549 0.27515 0.0
C418 C 0.82056 0.71819 0.2186 0.0
C419 C 0.62644 0.69993 0.23398 0.0
C420 C 0.47028 0.72037 0.13312 0.0
C421 C 0.46176 0.53581 0.17702 0.0
O422 O 0.46244 0.67723 0.09866 0.0
Zn423 Zn 0.46242 0.62735 0.15128 0.0
O424 O 0.47106 0.71753 0.18353 0.0
Zn425 Zn 0.46999 0.65827 0.23682 0.0
O426 O 0.54512 0.68691 0.27785 0.0
O427 O 0.54194 0.65503 0.19118 0.0
O428 O 0.46606 0.57092 0.21994 0.0
O429 O 0.46035 0.55145 0.13084 0.0
O430 O 0.38586 0.63163 0.17496 0.0
O431 O 0.39944 0.66725 0.26135 0.0
C432 C 0.56916 0.67887 0.23642 0.0
C433 C 0.36684 0.64787 0.21771 0.0
C434 C 0.45712 0.4772 0.17954 0.0
C435 C 0.45603 0.28186 0.19314 0.0
O436 O 0.44795 0.44498 0.13442 0.0
Zn437 Zn 0.44026 0.36065 0.10329 0.0
O438 O 0.46267 0.45807 0.22426 0.0
Zn439 Zn 0.45434 0.38122 0.19132 0.0
O440 O 0.525 0.38766 0.15362 0.0
O441 O 0.50447 0.365 0.06463 0.0
O442 O 0.46262 0.3203 0.23287 0.0
O443 O 0.44668 0.29236 0.1446 0.0
O444 O 0.36379 0.34707 0.0675 0.0
O445 O 0.37058 0.36952 0.15623 0.0
C446 C 0.53981 0.38238 0.10672 0.0
C447 C 0.34116 0.3566 0.10953 0.0
C448 C 0.95173 0.72433 0.701 0.0
C449 C 0.95454 0.52567 0.67522 0.0
O450 O 0.99376 0.70169 0.71054 0.0
Zn451 Zn 0.95797 0.62522 0.69696 0.0
O452 O 0.90503 0.6949 0.68809 0.0
Zn453 Zn 0.86995 0.61115 0.67639 0.0
O454 O 0.82839 0.60286 0.73731 0.0
O455 O 0.91666 0.6188 0.76525 0.0
O456 O 0.90764 0.54049 0.66995 0.0
O457 O 0.99663 0.56102 0.6926 0.0
O458 O 0.92684 0.61754 0.61263 0.0
O459 O 0.837 0.60282 0.59953 0.0
C460 C 0.86812 0.60946 0.77575 0.0
C461 C 0.88172 0.60837 0.58041 0.0
C462 C 0.52968 0.88059 0.59951 0.0
C463 C 0.34511 0.92449 0.59098 0.0
O464 O 0.49457 0.83767 0.5952 0.0
Zn465 Zn 0.40722 0.82079 0.59127 0.0
O466 O 0.51403 0.92677 0.60091 0.0
Zn467 Zn 0.43814 0.90633 0.59884 0.0
O468 O 0.43386 0.88265 0.6754 0.0
O469 O 0.39824 0.79626 0.66182 0.0
O470 O 0.38826 0.95895 0.59882 0.0
O471 O 0.34796 0.87408 0.5902 0.0
O472 O 0.37858 0.77976 0.51614 0.0
O473 O 0.41046 0.86643 0.51932 0.0
C474 C 0.41762 0.8399 0.69442 0.0
C475 C 0.38662 0.82119 0.4921 0.0
C476 C 0.2443 0.56551 0.67464 0.0
C477 C 0.22559 0.36319 0.64364 0.0
O478 O 0.28573 0.54147 0.68269 0.0
Zn479 Zn 0.2447 0.46634 0.65404 0.0
O480 O 0.19906 0.53829 0.6508 0.0
Zn481 Zn 0.15916 0.45876 0.62313 0.0
O482 O 0.10654 0.45878 0.673 0.0
O483 O 0.19141 0.4674 0.7133 0.0
O484 O 0.18284 0.3822 0.6274 0.0
O485 O 0.26923 0.39579 0.66302 0.0
O486 O 0.22782 0.4624 0.56669 0.0
O487 O 0.13872 0.4567 0.54723 0.0
C488 C 0.141 0.46663 0.71615 0.0
C489 C 0.1849 0.4581 0.53158 0.0
C490 C 0.80846 0.15203 0.71253 0.0
C491 C 0.6107 0.15497 0.69519 0.0
O492 O 0.77214 0.11089 0.69527 0.0
Zn493 Zn 0.70758 0.14759 0.69823 0.0
O494 O 0.79452 0.19912 0.71995 0.0
Zn495 Zn 0.72334 0.23658 0.71744 0.0
O496 O 0.72759 0.2669 0.79293 0.0
O497 O 0.71425 0.17746 0.78134 0.0
O498 O 0.64131 0.20084 0.70644 0.0
O499 O 0.63133 0.11126 0.68722 0.0
O500 O 0.70122 0.19041 0.6314 0.0
O501 O 0.71914 0.27938 0.65529 0.0
C502 C 0.72184 0.22283 0.81268 0.0
C503 C 0.70359 0.23821 0.61856 0.0
C504 C 0.82728 0.43904 0.35767 0.0
C505 C 0.84266 0.24493 0.33942 0.0
O506 O 0.87508 0.4262 0.36004 0.0
Zn507 Zn 0.91789 0.35937 0.35368 0.0
O508 O 0.78611 0.40232 0.34212 0.0
Zn509 Zn 0.8289 0.34016 0.33792 0.0
O510 O 0.86465 0.35116 0.41995 0.0
O511 O 0.95423 0.37038 0.42993 0.0
O512 O 0.79858 0.26467 0.33367 0.0
O513 O 0.88803 0.27626 0.34701 0.0
O514 O 0.95459 0.36234 0.28912 0.0
O515 O 0.86637 0.33766 0.26674 0.0
C516 C 0.91051 0.36241 0.45056 0.0
C517 C 0.91345 0.34508 0.25279 0.0
C518 C 0.69544 0.85999 0.3361 0.0
C519 C 0.51675 0.9056 0.35975 0.0
O520 O 0.65268 0.82559 0.3325 0.0
Zn521 Zn 0.60728 0.88021 0.35084 0.0
O522 O 0.69458 0.91067 0.35014 0.0
Zn523 Zn 0.63769 0.96487 0.36805 0.0
O524 O 0.66947 0.99671 0.44331 0.0
O525 O 0.64115 0.90887 0.43368 0.0
O526 O 0.5514 0.94903 0.36718 0.0
O527 O 0.53241 0.85964 0.35123 0.0
O528 O 0.60917 0.91829 0.28077 0.0
O529 O 0.64403 1.00435 0.30766 0.0
C530 C 0.66428 0.95313 0.46376 0.0
C531 C 0.62503 0.96522 0.2695 0.0
C532 C 0.10026 0.78811 0.43623 0.0
C533 C 0.11236 0.59385 0.39698 0.0
O534 O 0.1472 0.77684 0.45209 0.0
Zn535 Zn 0.18528 0.70677 0.45398 0.0
O536 O 0.06113 0.74995 0.41723 0.0
Zn537 Zn 0.10062 0.68955 0.42357 0.0
O538 O 0.11646 0.69043 0.50987 0.0
O539 O 0.20585 0.70638 0.52885 0.0
O540 O 0.06878 0.6143 0.39179 0.0
O541 O 0.15662 0.62392 0.42011 0.0
O542 O 0.2399 0.7251 0.40858 0.0
O543 O 0.15482 0.70746 0.36668 0.0
C544 C 0.15988 0.69785 0.54451 0.0
C545 C 0.20549 0.7215 0.36582 0.0
C546 C 0.48085 0.18377 0.44924 0.0
C547 C 0.28551 0.19737 0.44815 0.0
O548 O 0.44863 0.13865 0.44007 0.0
Zn549 Zn 0.3643 0.10752 0.43238 0.0
O550 O 0.46173 0.22848 0.45479 0.0
Zn551 Zn 0.38487 0.19554 0.44646 0.0
O552 O 0.39131 0.15785 0.51712 0.0
O553 O 0.36865 0.06886 0.49659 0.0
O554 O 0.32395 0.2371 0.45474 0.0
O555 O 0.29601 0.14882 0.4388 0.0
O556 O 0.35072 0.07173 0.35592 0.0
O557 O 0.37317 0.16046 0.36271 0.0
C558 C 0.38604 0.11095 0.53193 0.0
C559 C 0.36026 0.11375 0.33328 0.0
C560 C 0.78363 0.86446 0.60523 0.0
C561 C 0.58829 0.87807 0.60414 0.0
O562 O 0.74519 0.82474 0.59864 0.0
Zn563 Zn 0.68427 0.86629 0.60692 0.0
O564 O 0.77313 0.91301 0.61458 0.0
Zn565 Zn 0.70484 0.95431 0.621 0.0
O566 O 0.71842 0.99011 0.69746 0.0
O567 O 0.69597 0.90137 0.69067 0.0
O568 O 0.62051 0.92318 0.61331 0.0
O569 O 0.60741 0.83335 0.59859 0.0
O570 O 0.67783 0.90399 0.53626 0.0
O571 O 0.70049 0.99297 0.55679 0.0
C572 C 0.70888 0.94808 0.7201 0.0
C573 C 0.6831 0.95088 0.52145 0.0
C574 C 0.72403 0.13734 0.4624 0.0
C575 C 0.53946 0.18124 0.45388 0.0
O576 O 0.68088 0.10289 0.45456 0.0
Zn577 Zn 0.631 0.1555 0.45454 0.0
O578 O 0.72118 0.18775 0.46318 0.0
Zn579 Zn 0.66192 0.24105 0.46211 0.0
O580 O 0.69056 0.28207 0.53724 0.0
O581 O 0.65868 0.1954 0.53406 0.0
O582 O 0.57457 0.22416 0.45818 0.0
O583 O 0.55511 0.13506 0.45247 0.0
O584 O 0.63528 0.17918 0.37798 0.0
O585 O 0.6709 0.26558 0.39156 0.0
C586 C 0.68253 0.24064 0.56128 0.0
C587 C 0.65152 0.22193 0.35896 0.0
C588 C 0.84355 0.69865 0.40974 0.0
C589 C 0.82484 0.49632 0.37873 0.0
O590 O 0.8863 0.67963 0.42598 0.0
Zn591 Zn 0.90998 0.60307 0.43025 0.0
O592 O 0.79991 0.66605 0.39036 0.0
Zn593 Zn 0.82444 0.59549 0.39934 0.0
O594 O 0.84132 0.59943 0.48669 0.0
O595 O 0.93042 0.60514 0.50615 0.0
O596 O 0.78341 0.52037 0.37069 0.0
O597 O 0.87008 0.52355 0.40258 0.0
O598 O 0.9626 0.60305 0.38038 0.0
O599 O 0.87773 0.59443 0.34008 0.0
C600 C 0.88424 0.60373 0.5218 0.0
C601 C 0.92814 0.5952 0.33723 0.0
C602 C 0.45844 0.90686 0.35819 0.0
C603 C 0.26068 0.9098 0.34085 0.0
O604 O 0.42783 0.86099 0.34694 0.0
Zn605 Zn 0.3458 0.82525 0.33594 0.0
O606 O 0.43781 0.95057 0.36616 0.0
Zn607 Zn 0.36156 0.91424 0.35515 0.0
O608 O 0.36792 0.87142 0.42198 0.0
O609 O 0.35 0.78246 0.39809 0.0
O610 O 0.297 0.95094 0.35812 0.0
O611 O 0.27462 0.86272 0.33343 0.0
O612 O 0.34155 0.79493 0.26045 0.0
O613 O 0.35489 0.88438 0.27204 0.0
C614 C 0.36556 0.82363 0.43482 0.0
C615 C 0.3473 0.83901 0.2407 0.0
C616 C 0.1146 0.53616 0.37816 0.0
C617 C 0.11741 0.33751 0.35238 0.0
O618 O 0.1615 0.52135 0.38344 0.0
Zn619 Zn 0.19919 0.45069 0.37699 0.0
O620 O 0.07251 0.50082 0.36078 0.0
Zn621 Zn 0.11117 0.43661 0.35642 0.0
O622 O 0.1423 0.44429 0.44075 0.0
O623 O 0.23214 0.45901 0.45385 0.0
O624 O 0.07538 0.36014 0.34284 0.0
O625 O 0.16411 0.36693 0.36529 0.0
O626 O 0.24075 0.45897 0.31607 0.0
O627 O 0.15248 0.44303 0.28813 0.0
C628 C 0.18742 0.45346 0.47297 0.0
C629 C 0.20102 0.45237 0.27763 0.0
C630 C 0.55239 0.15623 0.69363 0.0
C631 C 0.3737 0.20184 0.71728 0.0
O632 O 0.51775 0.1128 0.6862 0.0
Zn633 Zn 0.43145 0.09696 0.68533 0.0
O634 O 0.53673 0.20219 0.70215 0.0
Zn635 Zn 0.46186 0.18163 0.70254 0.0
O636 O 0.45997 0.14355 0.77261 0.0
O637 O 0.42511 0.05748 0.74572 0.0
O638 O 0.41646 0.23625 0.72088 0.0
O639 O 0.37456 0.15116 0.70324 0.0
O640 O 0.39967 0.06513 0.61007 0.0
O641 O 0.42799 0.15297 0.6197 0.0
C642 C 0.44411 0.09661 0.78388 0.0
C643 C 0.40486 0.1087 0.58962 0.0
C644 C 0.95679 0.46798 0.6564 0.0
C645 C 0.96888 0.27372 0.61715 0.0
O646 O 1.00036 0.44753 0.66159 0.0
Zn647 Zn 0.96852 0.37228 0.62981 0.0
O648 O 0.91252 0.43791 0.63327 0.0
Zn649 Zn 0.88386 0.35507 0.5994 0.0
O650 O 0.82924 0.33673 0.6448 0.0
O651 O 0.91433 0.35437 0.6867 0.0
O652 O 0.92194 0.285 0.60129 0.0
O653 O 1.00801 0.31188 0.63615 0.0
O654 O 0.95268 0.37141 0.54351 0.0
O655 O 0.8633 0.35546 0.52453 0.0
C656 C 0.86365 0.34033 0.68756 0.0
C657 C 0.90926 0.36398 0.50887 0.0
C658 C 0.22648 0.8169 0.71396 0.0
C659 C 0.24186 0.62279 0.6957 0.0
O660 O 0.27056 0.79716 0.71971 0.0
Zn661 Zn 0.24024 0.72167 0.71546 0.0
O662 O 0.18111 0.78557 0.70637 0.0
Zn663 Zn 0.15125 0.70246 0.6997 0.0
O664 O 0.11455 0.69949 0.76426 0.0
O665 O 0.20277 0.72418 0.78664 0.0
O666 O 0.19407 0.63563 0.69334 0.0
O667 O 0.28303 0.65952 0.71126 0.0
O668 O 0.20449 0.71067 0.63343 0.0
O669 O 0.11491 0.69145 0.62346 0.0
C670 C 0.15569 0.71676 0.80059 0.0
C671 C 0.15863 0.69942 0.60282 0.0
loop_
_geom_bond_atom_site_label_1
_geom_bond_atom_site_label_2
_geom_bond_distance
_geom_bond_site_symmetry_2
_ccdc_geom_bond_type
C0 O2 1.247 . S
C0 O4 1.258 . S
C1 O8 1.247 . S
C1 O9 1.258 . S
O2 C0 1.247 . S
O2 Zn3 2.028 . S
Zn3 O2 2.028 . S
Zn3 O7 2.035 . S
Zn3 O9 2.035 . S
Zn3 O10 2.028 . S
O4 C0 1.258 . S
O4 Zn5 2.035 . S
Zn5 O4 2.035 . S
Zn5 O6 2.028 . S
Zn5 O8 2.028 . S
Zn5 O11 2.035 . S
O6 Zn5 2.028 . S
O6 C12 1.247 . S
O7 Zn3 2.035 . S
O7 C12 1.258 . S
O8 C1 1.247 . S
O8 Zn5 2.028 . S
O9 C1 1.258 . S
O9 Zn3 2.035 . S
O10 Zn3 2.028 . S
O10 C13 1.247 . S
O11 Zn5 2.035 . S
O11 C13 1.258 . S
C12 O6 1.247 . S
C12 O7 1.258 . S
C13 O10 1.247 . S
C13 O11 1.258 . S
C14 O16 1.247 . S
C14 O18 1.258 . S
C15 O22 1.247 . S
C15 O23 1.258 . S
O16 C14 1.247 . S
O16 Zn17 2.028 . S
Zn17 O16 2.028 . S
Zn17 O21 2.035 . S
Zn17 O23 2.035 . S
Zn17 O24 2.028 . S
O18 C14 1.258 . S
O18 Zn19 2.035 . S
Zn19 O18 2.035 . S
Zn19 O20 2.028 . S
Zn19 O22 2.028 . S
Zn19 O25 2.035 . S
O20 Zn19 2.028 . S
O20 C26 1.247 . S
O21 Zn17 2.035 . S
O21 C26 1.258 . S
O22 C15 1.247 . S
O22 Zn19 2.028 . S
O23 C15 1.258 . S
O23 Zn17 2.035 . S
O24 Zn17 2.028 . S
O24 C27 1.247 . S
O25 Zn19 2.035 . S
O25 C27 1.258 . S
C26 O20 1.247 . S
C26 O21 1.258 . S
C27 O24 1.247 . S
C27 O25 1.258 . S
C28 O30 1.247 . S
C28 O32 1.258 . S
C29 O36 1.247 . S
C29 O37 1.258 . S
O30 C28 1.247 . S
O30 Zn31 2.028 . S
Zn31 O30 2.028 . S
Zn31 O35 2.035 . S
Zn31 O37 2.035 . S
Zn31 O38 2.028 . S
O32 C28 1.258 . S
O32 Zn33 2.035 . S
Zn33 O32 2.035 . S
Zn33 O34 2.028 . S
Zn33 O36 2.028 . S
Zn33 O39 2.035 . S
O34 Zn33 2.028 . S
O34 C40 1.247 . S
O35 Zn31 2.035 . S
O35 C40 1.258 . S
O36 C29 1.247 . S
O36 Zn33 2.028 . S
O37 C29 1.258 . S
O37 Zn31 2.035 . S
O38 Zn31 2.028 . S
O38 C41 1.247 . S
O39 Zn33 2.035 . S
O39 C41 1.258 . S
C40 O34 1.247 . S
C40 O35 1.258 . S
C41 O38 1.247 . S
C41 O39 1.258 . S
C42 O44 1.247 . S
C42 O46 1.258 . S
C43 O50 1.247 . S
C43 O51 1.258 . S
O44 C42 1.247 . S
O44 Zn45 2.028 . S
Zn45 O44 2.028 . S
Zn45 O49 2.035 . S
Zn45 O51 2.035 . S
Zn45 O52 2.028 . S
O46 C42 1.258 . S
O46 Zn47 2.035 . S
Zn47 O46 2.035 . S
Zn47 O48 2.028 . S
Zn47 O50 2.028 . S
Zn47 O53 2.035 . S
O48 Zn47 2.028 . S
O48 C54 1.247 . S
O49 Zn45 2.035 . S
O49 C54 1.258 . S
O50 C43 1.247 . S
O50 Zn47 2.028 . S
O51 C43 1.258 . S
O51 Zn45 2.035 . S
O52 Zn45 2.028 . S
O52 C55 1.247 . S
O53 Zn47 2.035 . S
O53 C55 1.258 . S
C54 O48 1.247 . S
C54 O49 1.258 . S
C55 O52 1.247 . S
C55 O53 1.258 . S
C56 O58 1.247 . S
C56 O60 1.258 . S
C57 O64 1.247 . S
C57 O65 1.258 . S
O58 C56 1.247 . S
O58 Zn59 2.028 . S
Zn59 O58 2.028 . S
Zn59 O63 2.035 . S
Zn59 O65 2.035 . S
Zn59 O66 2.028 . S
O60 C56 1.258 . S
O60 Zn61 2.035 . S
Zn61 O60 2.035 . S
Zn61 O62 2.028 . S
Zn61 O64 2.028 . S
Zn61 O67 2.035 . S
O62 Zn61 2.028 . S
O62 C68 1.247 . S
O63 Zn59 2.035 . S
O63 C68 1.258 . S
O64 C57 1.247 . S
O64 Zn61 2.028 . S
O65 C57 1.258 . S
O65 Zn59 2.035 . S
O66 Zn59 2.028 . S
O66 C69 1.247 . S
O67 Zn61 2.035 . S
O67 C69 1.258 . S
C68 O62 1.247 . S
C68 O63 1.258 . S
C69 O66 1.247 . S
C69 O67 1.258 . S
C70 O72 1.247 . S
C70 O74 1.258 . S
C71 O78 1.247 . S
C71 O79 1.258 . S
O72 C70 1.247 . S
O72 Zn73 2.028 . S
Zn73 O72 2.028 . S
Zn73 O77 2.035 . S
Zn73 O79 2.035 . S
Zn73 O80 2.028 . S
O74 C70 1.258 . S
O74 Zn75 2.035 . S
Zn75 O74 2.035 . S
Zn75 O76 2.028 . S
Zn75 O78 2.028 . S
Zn75 O81 2.035 . S
O76 Zn75 2.028 . S
O76 C82 1.247 . S
O77 Zn73 2.035 . S
O77 C82 1.258 . S
O78 C71 1.247 . S
O78 Zn75 2.028 . S
O79 C71 1.258 . S
O79 Zn73 2.035 . S
O80 Zn73 2.028 . S
O80 C83 1.247 . S
O81 Zn75 2.035 . S
O81 C83 1.258 . S
C82 O76 1.247 . S
C82 O77 1.258 . S
C83 O80 1.247 . S
C83 O81 1.258 . S
C84 O86 1.247 . S
C84 O88 1.258 . S
C85 O92 1.247 . S
C85 O93 1.258 . S
O86 C84 1.247 . S
O86 Zn87 2.028 . S
Zn87 O86 2.028 . S
Zn87 O91 2.035 . S
Zn87 O93 2.035 . S
Zn87 O94 2.028 . S
O88 C84 1.258 . S
O88 Zn89 2.035 . S
Zn89 O88 2.035 . S
Zn89 O90 2.028 . S
Zn89 O92 2.028 . S
Zn89 O95 2.035 . S
O90 Zn89 2.028 . S
O90 C96 1.247 . S
O91 Zn87 2.035 . S
O91 C96 1.258 . S
O92 C85 1.247 . S
O92 Zn89 2.028 . S
O93 C85 1.258 . S
O93 Zn87 2.035 . S
O94 Zn87 2.028 . S
O94 C97 1.247 . S
O95 Zn89 2.035 . S
O95 C97 1.258 . S
C96 O90 1.247 . S
C96 O91 1.258 . S
C97 O94 1.247 . S
C97 O95 1.258 . S
C98 O100 1.247 . S
C98 O102 1.258 . S
C99 O106 1.247 . S
C99 O107 1.258 . S
O100 C98 1.247 . S
O100 Zn101 2.028 . S
Zn101 O100 2.028 . S
Zn101 O105 2.035 . S
Zn101 O107 2.035 . S
Zn101 O108 2.028 . S
O102 C98 1.258 . S
O102 Zn103 2.035 . S
Zn103 O102 2.035 . S
Zn103 O104 2.028 . S
Zn103 O106 2.028 . S
Zn103 O109 2.035 . S
O104 Zn103 2.028 . S
O104 C110 1.247 . S
O105 Zn101 2.035 . S
O105 C110 1.258 . S
O106 C99 1.247 . S
O106 Zn103 2.028 . S
O107 C99 1.258 . S
O107 Zn101 2.035 . S
O108 Zn101 2.028 . S
O108 C111 1.247 . S
O109 Zn103 2.035 . S
O109 C111 1.258 . S
C110 O104 1.247 . S
C110 O105 1.258 . S
C111 O108 1.247 . S
C111 O109 1.258 . S
C112 O114 1.247 . S
C112 O116 1.258 . S
C113 O120 1.247 . S
C113 O121 1.258 . S
O114 C112 1.247 . S
O114 Zn115 2.028 . S
Zn115 O114 2.028 . S
Zn115 O119 2.035 . S
Zn115 O121 2.035 . S
Zn115 O122 2.028 . S
O116 C112 1.258 . S
O116 Zn117 2.035 . S
Zn117 O116 2.035 . S
Zn117 O118 2.028 . S
Zn117 O120 2.028 . S
Zn117 O123 2.035 . S
O118 Zn117 2.028 . S
O118 C124 1.247 . S
O119 Zn115 2.035 . S
O119 C124 1.258 . S
O120 C113 1.247 . S
O120 Zn117 2.028 . S
O121 C113 1.258 . S
O121 Zn115 2.035 . S
O122 Zn115 2.028 . S
O122 C125 1.247 . S
O123 Zn117 2.035 . S
O123 C125 1.258 . S
C124 O118 1.247 . S
C124 O119 1.258 . S
C125 O122 1.247 . S
C125 O123 1.258 . S
C126 O128 1.247 . S
C126 O130 1.258 . S
C127 O134 1.247 . S
C127 O135 1.258 . S
O128 C126 1.247 . S
O128 Zn129 2.028 . S
Zn129 O128 2.028 . S
Zn129 O133 2.035 . S
Zn129 O135 2.035 . S
Zn129 O136 2.028 . S
O130 C126 1.258 . S
O130 Zn131 2.035 . S
Zn131 O130 2.035 . S
Zn131 O132 2.028 . S
Zn131 O134 2.028 . S
Zn131 O137 2.035 . S
O132 Zn131 2.028 . S
O132 C138 1.247 . S
O133 Zn129 2.035 . S
O133 C138 1.258 . S
O134 C127 1.247 . S
O134 Zn131 2.028 . S
O135 C127 1.258 . S
O135 Zn129 2.035 . S
O136 Zn129 2.028 . S
O136 C139 1.247 . S
O137 Zn131 2.035 . S
O137 C139 1.258 . S
C138 O132 1.247 . S
C138 O133 1.258 . S
C139 O136 1.247 . S
C139 O137 1.258 . S
C140 O142 1.247 . S
C140 O144 1.258 . S
C141 O148 1.247 . S
C141 O149 1.258 . S
O142 C140 1.247 . S
O142 Zn143 2.028 . S
Zn143 O142 2.028 . S
Zn143 O147 2.035 . S
Zn143 O149 2.035 . S
Zn143 O150 2.028 . S
O144 C140 1.258 . S
O144 Zn145 2.035 . S
Zn145 O144 2.035 . S
Zn145 O146 2.028 . S
Zn145 O148 2.028 . S
Zn145 O151 2.035 . S
O146 Zn145 2.028 . S
O146 C152 1.247 . S
O147 Zn143 2.035 . S
O147 C152 1.258 . S
O148 C141 1.247 . S
O148 Zn145 2.028 . S
O149 C141 1.258 . S
O149 Zn143 2.035 . S
O150 Zn143 2.028 . S
O150 C153 1.247 . S
O151 Zn145 2.035 . S
O151 C153 1.258 . S
C152 O146 1.247 . S
C152 O147 1.258 . S
C153 O150 1.247 . S
C153 O151 1.258 . S
C154 O156 1.247 . S
C154 O158 1.258 . S
C155 O162 1.247 . S
C155 O163 1.258 . S
O156 C154 1.247 . S
O156 Zn157 2.028 . S
Zn157 O156 2.028 . S
Zn157 O161 2.035 . S
Zn157 O163 2.035 . S
Zn157 O164 2.028 . S
O158 C154 1.258 . S
O158 Zn159 2.035 . S
Zn159 O158 2.035 . S
Zn159 O160 2.028 . S
Zn159 O162 2.028 . S
Zn159 O165 2.035 . S
O160 Zn159 2.028 . S
O160 C166 1.247 . S
O161 Zn157 2.035 . S
O161 C166 1.258 . S
O162 C155 1.247 . S
O162 Zn159 2.028 . S
O163 C155 1.258 . S
O163 Zn157 2.035 . S
O164 Zn157 2.028 . S
O164 C167 1.247 . S
O165 Zn159 2.035 . S
O165 C167 1.258 . S
C166 O160 1.247 . S
C166 O161 1.258 . S
C167 O164 1.247 . S
C167 O165 1.258 . S
C168 O170 1.247 . S
C168 O172 1.258 . S
C169 O176 1.247 . S
C169 O177 1.258 . S
O170 C168 1.247 . S
O170 Zn171 2.028 . S
Zn171 O170 2.028 . S
Zn171 O175 2.035 . S
Zn171 O177 2.035 . S
Zn171 O178 2.028 . S
O172 C168 1.258 . S
O172 Zn173 2.035 . S
Zn173 O172 2.035 . S
Zn173 O174 2.028 . S
Zn173 O176 2.028 . S
Zn173 O179 2.035 . S
O174 Zn173 2.028 . S
O174 C180 1.247 . S
O175 Zn171 2.035 . S
O175 C180 1.258 . S
O176 C169 1.247 . S
O176 Zn173 2.028 . S
O177 C169 1.258 . S
O177 Zn171 2.035 . S
O178 Zn171 2.028 . S
O178 C181 1.247 . S
O179 Zn173 2.035 . S
O179 C181 1.258 . S
C180 O174 1.247 . S
C180 O175 1.258 . S
C181 O178 1.247 . S
C181 O179 1.258 . S
C182 O184 1.247 . S
C182 O186 1.258 . S
C183 O190 1.247 . S
C183 O191 1.258 . S
O184 C182 1.247 . S
O184 Zn185 2.028 . S
Zn185 O184 2.028 . S
Zn185 O189 2.035 . S
Zn185 O191 2.035 . S
Zn185 O192 2.028 . S
O186 C182 1.258 . S
O186 Zn187 2.035 . S
Zn187 O186 2.035 . S
Zn187 O188 2.028 . S
Zn187 O190 2.028 . S
Zn187 O193 2.035 . S
O188 Zn187 2.028 . S
O188 C194 1.247 . S
O189 Zn185 2.035 . S
O189 C194 1.258 . S
O190 C183 1.247 . S
O190 Zn187 2.028 . S
O191 C183 1.258 . S
O191 Zn185 2.035 . S
O192 Zn185 2.028 . S
O192 C195 1.247 . S
O193 Zn187 2.035 . S
O193 C195 1.258 . S
C194 O188 1.247 . S
C194 O189 1.258 . S
C195 O192 1.247 . S
C195 O193 1.258 . S
C196 O198 1.247 . S
C196 O200 1.258 . S
C197 O204 1.247 . S
C197 O205 1.258 . S
O198 C196 1.247 . S
O198 Zn199 2.028 . S
Zn199 O198 2.028 . S
Zn199 O203 2.035 . S
Zn199 O205 2.035 . S
Zn199 O206 2.028 . S
O200 C196 1.258 . S
O200 Zn201 2.035 . S
Zn201 O200 2.035 . S
Zn201 O202 2.028 . S
Zn201 O204 2.028 . S
Zn201 O207 2.035 . S
O202 Zn201 2.028 . S
O202 C208 1.247 . S
O203 Zn199 2.035 . S
O203 C208 1.258 . S
O204 C197 1.247 . S
O204 Zn201 2.028 . S
O205 C197 1.258 . S
O205 Zn199 2.035 . S
O206 Zn199 2.028 . S
O206 C209 1.247 . S
O207 Zn201 2.035 . S
O207 C209 1.258 . S
C208 O202 1.247 . S
C208 O203 1.258 . S
C209 O206 1.247 . S
C209 O207 1.258 . S
C210 O212 1.247 . S
C210 O214 1.258 . S
C211 O218 1.247 . S
C211 O219 1.258 . S
O212 C210 1.247 . S
O212 Zn213 2.028 . S
Zn213 O212 2.028 . S
Zn213 O217 2.035 . S
Zn213 O219 2.035 . S
Zn213 O220 2.028 . S
O214 C210 1.258 . S
O214 Zn215 2.035 . S
Zn215 O214 2.035 . S
Zn215 O216 2.028 . S
Zn215 O218 2.028 . S
Zn215 O221 2.035 . S
O216 Zn215 2.028 . S
O216 C222 1.247 . S
O217 Zn213 2.035 . S
O217 C222 1.258 . S
O218 C211 1.247 . S
O218 Zn215 2.028 . S
O219 C211 1.258 . S
O219 Zn213 2.035 . S
O220 Zn213 2.028 . S
O220 C223 1.247 . S
O221 Zn215 2.035 . S
O221 C223 1.258 . S
C222 O216 1.247 . S
C222 O217 1.258 . S
C223 O220 1.247 . S
C223 O221 1.258 . S
C224 O226 1.247 . S
C224 O228 1.258 . S
C225 O232 1.247 . S
C225 O233 1.258 . S
O226 C224 1.247 . S
O226 Zn227 2.028 . S
Zn227 O226 2.028 . S
Zn227 O231 2.035 . S
Zn227 O233 2.035 . S
Zn227 O234 2.028 . S
O228 C224 1.258 . S
O228 Zn229 2.035 . S
Zn229 O228 2.035 . S
Zn229 O230 2.028 . S
Zn229 O232 2.028 . S
Zn229 O235 2.035 . S
O230 Zn229 2.028 . S
O230 C236 1.247 . S
O231 Zn227 2.035 . S
O231 C236 1.258 . S
O232 C225 1.247 . S
O232 Zn229 2.028 . S
O233 C225 1.258 . S
O233 Zn227 2.035 . S
O234 Zn227 2.028 . S
O234 C237 1.247 . S
O235 Zn229 2.035 . S
O235 C237 1.258 . S
C236 O230 1.247 . S
C236 O231 1.258 . S
C237 O234 1.247 . S
C237 O235 1.258 . S
C238 O240 1.247 . S
C238 O242 1.258 . S
C239 O246 1.247 . S
C239 O247 1.258 . S
O240 C238 1.247 . S
O240 Zn241 2.028 . S
Zn241 O240 2.028 . S
Zn241 O245 2.035 . S
Zn241 O247 2.035 . S
Zn241 O248 2.028 . S
O242 C238 1.258 . S
O242 Zn243 2.035 . S
Zn243 O242 2.035 . S
Zn243 O244 2.028 . S
Zn243 O246 2.028 . S
Zn243 O249 2.035 . S
O244 Zn243 2.028 . S
O244 C250 1.247 . S
O245 Zn241 2.035 . S
O245 C250 1.258 . S
O246 C239 1.247 . S
O246 Zn243 2.028 . S
O247 C239 1.258 . S
O247 Zn241 2.035 . S
O248 Zn241 2.028 . S
O248 C251 1.247 . S
O249 Zn243 2.035 . S
O249 C251 1.258 . S
C250 O244 1.247 . S
C250 O245 1.258 . S
C251 O248 1.247 . S
C251 O249 1.258 . S
C252 O254 1.247 . S
C252 O256 1.258 . S
C253 O260 1.247 . S
C253 O261 1.258 . S
O254 C252 1.247 . S
O254 Zn255 2.028 . S
Zn255 O254 2.028 . S
Zn255 O259 2.035 . S
Zn255 O261 2.035 . S
Zn255 O262 2.028 . S
O256 C252 1.258 . S
O256 Zn257 2.035 . S
Zn257 O256 2.035 . S
Zn257 O258 2.028 . S
Zn257 O260 2.028 . S
Zn257 O263 2.035 . S
O258 Zn257 2.028 . S
O258 C264 1.247 . S
O259 Zn255 2.035 . S
O259 C264 1.258 . S
O260 C253 1.247 . S
O260 Zn257 2.028 . S
O261 C253 1.258 . S
O261 Zn255 2.035 . S
O262 Zn255 2.028 . S
O262 C265 1.247 . S
O263 Zn257 2.035 . S
O263 C265 1.258 . S
C264 O258 1.247 . S
C264 O259 1.258 . S
C265 O262 1.247 . S
C265 O263 1.258 . S
C266 O268 1.247 . S
C266 O270 1.258 . S
C267 O274 1.247 . S
C267 O275 1.258 . S
O268 C266 1.247 . S
O268 Zn269 2.028 . S
Zn269 O268 2.028 . S
Zn269 O273 2.035 . S
Zn269 O275 2.035 . S
Zn269 O276 2.028 . S
O270 C266 1.258 . S
O270 Zn271 2.035 . S
Zn271 O270 2.035 . S
Zn271 O272 2.028 . S
Zn271 O274 2.028 . S
Zn271 O277 2.035 . S
O272 Zn271 2.028 . S
O272 C278 1.247 . S
O273 Zn269 2.035 . S
O273 C278 1.258 . S
O274 C267 1.247 . S
O274 Zn271 2.028 . S
O275 C267 1.258 . S
O275 Zn269 2.035 . S
O276 Zn269 2.028 . S
O276 C279 1.247 . S
O277 Zn271 2.035 . S
O277 C279 1.258 . S
C278 O272 1.247 . S
C278 O273 1.258 . S
C279 O276 1.247 . S
C279 O277 1.258 . S
C280 O282 1.247 . S
C280 O284 1.258 . S
C281 O288 1.247 . S
C281 O289 1.258 . S
O282 C280 1.247 . S
O282 Zn283 2.028 . S
Zn283 O282 2.028 . S
Zn283 O287 2.035 . S
Zn283 O289 2.035 . S
Zn283 O290 2.028 . S
O284 C280 1.258 . S
O284 Zn285 2.035 . S
Zn285 O284 2.035 . S
Zn285 O286 2.028 . S
Zn285 O288 2.028 . S
Zn285 O291 2.035 . S
O286 Zn285 2.028 . S
O286 C292 1.247 . S
O287 Zn283 2.035 . S
O287 C292 1.258 . S
O288 C281 1.247 . S
O288 Zn285 2.028 . S
O289 C281 1.258 . S
O289 Zn283 2.035 . S
O290 Zn283 2.028 . S
O290 C293 1.247 . S
O291 Zn285 2.035 . S
O291 C293 1.258 . S
C292 O286 1.247 . S
C292 O287 1.258 . S
C293 O290 1.247 . S
C293 O291 1.258 . S
C294 O296 1.247 . S
C294 O298 1.258 . S
C295 O302 1.247 . S
C295 O303 1.258 . S
O296 C294 1.247 . S
O296 Zn297 2.028 . S
Zn297 O296 2.028 . S
Zn297 O301 2.035 . S
Zn297 O303 2.035 . S
Zn297 O304 2.028 . S
O298 C294 1.258 . S
O298 Zn299 2.035 . S
Zn299 O298 2.035 . S
Zn299 O300 2.028 . S
Zn299 O302 2.028 . S
Zn299 O305 2.035 . S
O300 Zn299 2.028 . S
O300 C306 1.247 . S
O301 Zn297 2.035 . S
O301 C306 1.258 . S
O302 C295 1.247 . S
O302 Zn299 2.028 . S
O303 C295 1.258 . S
O303 Zn297 2.035 . S
O304 Zn297 2.028 . S
O304 C307 1.247 . S
O305 Zn299 2.035 . S
O305 C307 1.258 . S
C306 O300 1.247 . S
C306 O301 1.258 . S
C307 O304 1.247 . S
C307 O305 1.258 . S
C308 O310 1.247 . S
C308 O312 1.258 . S
C309 O316 1.247 . S
C309 O317 1.258 . S
O310 C308 1.247 . S
O310 Zn311 2.028 . S
Zn311 O310 2.028 . S
Zn311 O315 2.035 . S
Zn311 O317 2.035 . S
Zn311 O318 2.028 . S
O312 C308 1.258 . S
O312 Zn313 2.035 . S
Zn313 O312 2.035 . S
Zn313 O314 2.028 . S
Zn313 O316 2.028 . S
Zn313 O319 2.035 . S
O314 Zn313 2.028 . S
O314 C320 1.247 . S
O315 Zn311 2.035 . S
O315 C320 1.258 . S
O316 C309 1.247 . S
O316 Zn313 2.028 . S
O317 C309 1.258 . S
O317 Zn311 2.035 . S
O318 Zn311 2.028 . S
O318 C321 1.247 . S
O319 Zn313 2.035 . S
O319 C321 1.258 . S
C320 O314 1.247 . S
C320 O315 1.258 . S
C321 O318 1.247 . S
C321 O319 1.258 . S
C322 O324 1.247 . S
C322 O326 1.258 . S
C323 O330 1.247 . S
C323 O331 1.258 . S
O324 C322 1.247 . S
O324 Zn325 2.028 . S
Zn325 O324 2.028 . S
Zn325 O329 2.035 . S
Zn325 O331 2.035 . S
Zn325 O332 2.028 . S
O326 C322 1.258 . S
O326 Zn327 2.035 . S
Zn327 O326 2.035 . S
Zn327 O328 2.028 . S
Zn327 O330 2.028 . S
Zn327 O333 2.035 . S
O328 Zn327 2.028 . S
O328 C334 1.247 . S
O329 Zn325 2.035 . S
O329 C334 1.258 . S
O330 C323 1.247 . S
O330 Zn327 2.028 . S
O331 C323 1.258 . S
O331 Zn325 2.035 . S
O332 Zn325 2.028 . S
O332 C335 1.247 . S
O333 Zn327 2.035 . S
O333 C335 1.258 . S
C334 O328 1.247 . S
C334 O329 1.258 . S
C335 O332 1.247 . S
C335 O333 1.258 . S
C336 O338 1.247 . S
C336 O340 1.258 . S
C337 O344 1.247 . S
C337 O345 1.258 . S
O338 C336 1.247 . S
O338 Zn339 2.028 . S
Zn339 O338 2.028 . S
Zn339 O343 2.035 . S
Zn339 O345 2.035 . S
Zn339 O346 2.028 . S
O340 C336 1.258 . S
O340 Zn341 2.035 . S
Zn341 O340 2.035 . S
Zn341 O342 2.028 . S
Zn341 O344 2.028 . S
Zn341 O347 2.035 . S
O342 Zn341 2.028 . S
O342 C348 1.247 . S
O343 Zn339 2.035 . S
O343 C348 1.258 . S
O344 C337 1.247 . S
O344 Zn341 2.028 . S
O345 C337 1.258 . S
O345 Zn339 2.035 . S
O346 Zn339 2.028 . S
O346 C349 1.247 . S
O347 Zn341 2.035 . S
O347 C349 1.258 . S
C348 O342 1.247 . S
C348 O343 1.258 . S
C349 O346 1.247 . S
C349 O347 1.258 . S
C350 O352 1.247 . S
C350 O354 1.258 . S
C351 O358 1.247 . S
C351 O359 1.258 . S
O352 C350 1.247 . S
O352 Zn353 2.028 . S
Zn353 O352 2.028 . S
Zn353 O357 2.035 . S
Zn353 O359 2.035 . S
Zn353 O360 2.028 . S
O354 C350 1.258 . S
O354 Zn355 2.035 . S
Zn355 O354 2.035 . S
Zn355 O356 2.028 . S
Zn355 O358 2.028 . S
Zn355 O361 2.035 . S
O356 Zn355 2.028 . S
O356 C362 1.247 . S
O357 Zn353 2.035 . S
O357 C362 1.258 . S
O358 C351 1.247 . S
O358 Zn355 2.028 . S
O359 C351 1.258 . S
O359 Zn353 2.035 . S
O360 Zn353 2.028 . S
O360 C363 1.247 . S
O361 Zn355 2.035 . S
O361 C363 1.258 . S
C362 O356 1.247 . S
C362 O357 1.258 . S
C363 O360 1.247 . S
C363 O361 1.258 . S
C364 O366 1.247 . S
C364 O368 1.258 . S
C365 O372 1.247 . S
C365 O373 1.258 . S
O366 C364 1.247 . S
O366 Zn367 2.028 . S
Zn367 O366 2.028 . S
Zn367 O371 2.035 . S
Zn367 O373 2.035 . S
Zn367 O374 2.028 . S
O368 C364 1.258 . S
O368 Zn369 2.035 . S
Zn369 O368 2.035 . S
Zn369 O370 2.028 . S
Zn369 O372 2.028 . S
Zn369 O375 2.035 . S
O370 Zn369 2.028 . S
O370 C376 1.247 . S
O371 Zn367 2.035 . S
O371 C376 1.258 . S
O372 C365 1.247 . S
O372 Zn369 2.028 . S
O373 C365 1.258 . S
O373 Zn367 2.035 . S
O374 Zn367 2.028 . S
O374 C377 1.247 . S
O375 Zn369 2.035 . S
O375 C377 1.258 . S
C376 O370 1.247 . S
C376 O371 1.258 . S
C377 O374 1.247 . S
C377 O375 1.258 . S
C378 O380 1.247 . S
C378 O382 1.258 . S
C379 O386 1.247 . S
C379 O387 1.258 . S
O380 C378 1.247 . S
O380 Zn381 2.028 . S
Zn381 O380 2.028 . S
Zn381 O385 2.035 . S
Zn381 O387 2.035 . S
Zn381 O388 2.028 . S
O382 C378 1.258 . S
O382 Zn383 2.035 . S
Zn383 O382 2.035 . S
Zn383 O384 2.028 . S
Zn383 O386 2.028 . S
Zn383 O389 2.035 . S
O384 Zn383 2.028 . S
O384 C390 1.247 . S
O385 Zn381 2.035 . S
O385 C390 1.258 . S
O386 C379 1.247 . S
O386 Zn383 2.028 . S
O387 C379 1.258 . S
O387 Zn381 2.035 . S
O388 Zn381 2.028 . S
O388 C391 1.247 . S
O389 Zn383 2.035 . S
O389 C391 1.258 . S
C390 O384 1.247 . S
C390 O385 1.258 . S
C391 O388 1.247 . S
C391 O389 1.258 . S
C392 O394 1.247 . S
C392 O396 1.258 . S
C393 O400 1.247 . S
C393 O401 1.258 . S
O394 C392 1.247 . S
O394 Zn395 2.028 . S
Zn395 O394 2.028 . S
Zn395 O399 2.035 . S
Zn395 O401 2.035 . S
Zn395 O402 2.028 . S
O396 C392 1.258 . S
O396 Zn397 2.035 . S
Zn397 O396 2.035 . S
Zn397 O398 2.028 . S
Zn397 O400 2.028 . S
Zn397 O403 2.035 . S
O398 Zn397 2.028 . S
O398 C404 1.247 . S
O399 Zn395 2.035 . S
O399 C404 1.258 . S
O400 C393 1.247 . S
O400 Zn397 2.028 . S
O401 C393 1.258 . S
O401 Zn395 2.035 . S
O402 Zn395 2.028 . S
O402 C405 1.247 . S
O403 Zn397 2.035 . S
O403 C405 1.258 . S
C404 O398 1.247 . S
C404 O399 1.258 . S
C405 O402 1.247 . S
C405 O403 1.258 . S
C406 O408 1.247 . S
C406 O410 1.258 . S
C407 O414 1.247 . S
C407 O415 1.258 . S
O408 C406 1.247 . S
O408 Zn409 2.028 . S
Zn409 O408 2.028 . S
Zn409 O413 2.035 . S
Zn409 O415 2.035 . S
Zn409 O416 2.028 . S
O410 C406 1.258 . S
O410 Zn411 2.035 . S
Zn411 O410 2.035 . S
Zn411 O412 2.028 . S
Zn411 O414 2.028 . S
Zn411 O417 2.035 . S
O412 Zn411 2.028 . S
O412 C418 1.247 . S
O413 Zn409 2.035 . S
O413 C418 1.258 . S
O414 C407 1.247 . S
O414 Zn411 2.028 . S
O415 C407 1.258 . S
O415 Zn409 2.035 . S
O416 Zn409 2.028 . S
O416 C419 1.247 . S
O417 Zn411 2.035 . S
O417 C419 1.258 . S
C418 O412 1.247 . S
C418 O413 1.258 . S
C419 O416 1.247 . S
C419 O417 1.258 . S
C420 O422 1.247 . S
C420 O424 1.258 . S
C421 O428 1.247 . S
C421 O429 1.258 . S
O422 C420 1.247 . S
O422 Zn423 2.028 . S
Zn423 O422 2.028 . S
Zn423 O427 2.035 . S
Zn423 O429 2.035 . S
Zn423 O430 2.028 . S
O424 C420 1.258 . S
O424 Zn425 2.035 . S
Zn425 O424 2.035 . S
Zn425 O426 2.028 . S
Zn425 O428 2.028 . S
Zn425 O431 2.035 . S
O426 Zn425 2.028 . S
O426 C432 1.247 . S
O427 Zn423 2.035 . S
O427 C432 1.258 . S
O428 C421 1.247 . S
O428 Zn425 2.028 . S
O429 C421 1.258 . S
O429 Zn423 2.035 . S
O430 Zn423 2.028 . S
O430 C433 1.247 . S
O431 Zn425 2.035 . S
O431 C433 1.258 . S
C432 O426 1.247 . S
C432 O427 1.258 . S
C433 O430 1.247 . S
C433 O431 1.258 . S
C434 O436 1.247 . S
C434 O438 1.258 . S
C435 O442 1.247 . S
C435 O443 1.258 . S
O436 C434 1.247 . S
O436 Zn437 2.028 . S
Zn437 O436 2.028 . S
Zn437 O441 2.035 . S
Zn437 O443 2.035 . S
Zn437 O444 2.028 . S
O438 C434 1.258 . S
O438 Zn439 2.035 . S
Zn439 O438 2.035 . S
Zn439 O440 2.028 . S
Zn439 O442 2.028 . S
Zn439 O445 2.035 . S
O440 Zn439 2.028 . S
O440 C446 1.247 . S
O441 Zn437 2.035 . S
O441 C446 1.258 . S
O442 C435 1.247 . S
O442 Zn439 2.028 . S
O443 C435 1.258 . S
O443 Zn437 2.035 . S
O444 Zn437 2.028 . S
O444 C447 1.247 . S
O445 Zn439 2.035 . S
O445 C447 1.258 . S
C446 O440 1.247 . S
C446 O441 1.258 . S
C447 O444 1.247 . S
C447 O445 1.258 . S
C448 O450 1.247 . S
C448 O452 1.258 . S
C449 O456 1.247 . S
C449 O457 1.258 . S
O450 C448 1.247 . S
O450 Zn451 2.028 . S
Zn451 O450 2.028 . S
Zn451 O455 2.035 . S
Zn451 O457 2.035 . S
Zn451 O458 2.028 . S
O452 C448 1.258 . S
O452 Zn453 2.035 . S
Zn453 O452 2.035 . S
Zn453 O454 2.028 . S
Zn453 O456 2.028 . S
Zn453 O459 2.035 . S
O454 Zn453 2.028 . S
O454 C460 1.247 . S
O455 Zn451 2.035 . S
O455 C460 1.258 . S
O456 C449 1.247 . S
O456 Zn453 2.028 . S
O457 C449 1.258 . S
O457 Zn451 2.035 . S
O458 Zn451 2.028 . S
O458 C461 1.247 . S
O459 Zn453 2.035 . S
O459 C461 1.258 . S
C460 O454 1.247 . S
C460 O455 1.258 . S
C461 O458 1.247 . S
C461 O459 1.258 . S
C462 O464 1.247 . S
C462 O466 1.258 . S
C463 O470 1.247 . S
C463 O471 1.258 . S
O464 C462 1.247 . S
O464 Zn465 2.028 . S
Zn465 O464 2.028 . S
Zn465 O469 2.035 . S
Zn465 O471 2.035 . S
Zn465 O472 2.028 . S
O466 C462 1.258 . S
O466 Zn467 2.035 . S
Zn467 O466 2.035 . S
Zn467 O468 2.028 . S
Zn467 O470 2.028 . S
Zn467 O473 2.035 . S
O468 Zn467 2.028 . S
O468 C474 1.247 . S
O469 Zn465 2.035 . S
O469 C474 1.258 . S
O470 C463 1.247 . S
O470 Zn467 2.028 . S
O471 C463 1.258 . S
O471 Zn465 2.035 . S
O472 Zn465 2.028 . S
O472 C475 1.247 . S
O473 Zn467 2.035 . S
O473 C475 1.258 . S
C474 O468 1.247 . S
C474 O469 1.258 . S
C475 O472 1.247 . S
C475 O473 1.258 . S
C476 O478 1.247 . S
C476 O480 1.258 . S
C477 O484 1.247 . S
C477 O485 1.258 . S
O478 C476 1.247 . S
O478 Zn479 2.028 . S
Zn479 O478 2.028 . S
Zn479 O483 2.035 . S
Zn479 O485 2.035 . S
Zn479 O486 2.028 . S
O480 C476 1.258 . S
O480 Zn481 2.035 . S
Zn481 O480 2.035 . S
Zn481 O482 2.028 . S
Zn481 O484 2.028 . S
Zn481 O487 2.035 . S
O482 Zn481 2.028 . S
O482 C488 1.247 . S
O483 Zn479 2.035 . S
O483 C488 1.258 . S
O484 C477 1.247 . S
O484 Zn481 2.028 . S
O485 C477 1.258 . S
O485 Zn479 2.035 . S
O486 Zn479 2.028 . S
O486 C489 1.247 . S
O487 Zn481 2.035 . S
O487 C489 1.258 . S
C488 O482 1.247 . S
C488 O483 1.258 . S
C489 O486 1.247 . S
C489 O487 1.258 . S
C490 O492 1.247 . S
C490 O494 1.258 . S
C491 O498 1.247 . S
C491 O499 1.258 . S
O492 C490 1.247 . S
O492 Zn493 2.028 . S
Zn493 O492 2.028 . S
Zn493 O497 2.035 . S
Zn493 O499 2.035 . S
Zn493 O500 2.028 . S
O494 C490 1.258 . S
O494 Zn495 2.035 . S
Zn495 O494 2.035 . S
Zn495 O496 2.028 . S
Zn495 O498 2.028 . S
Zn495 O501 2.035 . S
O496 Zn495 2.028 . S
O496 C502 1.247 . S
O497 Zn493 2.035 . S
O497 C502 1.258 . S
O498 C491 1.247 . S
O498 Zn495 2.028 . S
O499 C491 1.258 . S
O499 Zn493 2.035 . S
O500 Zn493 2.028 . S
O500 C503 1.247 . S
O501 Zn495 2.035 . S
O501 C503 1.258 . S
C502 O496 1.247 . S
C502 O497 1.258 . S
C503 O500 1.247 . S
C503 O501 1.258 . S
C504 O506 1.247 . S
C504 O508 1.258 . S
C505 O512 1.247 . S
C505 O513 1.258 . S
O506 C504 1.247 . S
O506 Zn507 2.028 . S
Zn507 O506 2.028 . S
Zn507 O511 2.035 . S
Zn507 O513 2.035 . S
Zn507 O514 2.028 . S
O508 C504 1.258 . S
O508 Zn509 2.035 . S
Zn509 O508 2.035 . S
Zn509 O510 2.028 . S
Zn509 O512 2.028 . S
Zn509 O515 2.035 . S
O510 Zn509 2.028 . S
O510 C516 1.247 . S
O511 Zn507 2.035 . S
O511 C516 1.258 . S
O512 C505 1.247 . S
O512 Zn509 2.028 . S
O513 C505 1.258 . S
O513 Zn507 2.035 . S
O514 Zn507 2.028 . S
O514 C517 1.247 . S
O515 Zn509 2.035 . S
O515 C517 1.258 . S
C516 O510 1.247 . S
C516 O511 1.258 . S
C517 O514 1.247 . S
C517 O515 1.258 . S
C518 O520 1.247 . S
C518 O522 1.258 . S
C519 O526 1.247 . S
C519 O527 1.258 . S
O520 C518 1.247 . S
O520 Zn521 2.028 . S
Zn521 O520 2.028 . S
Zn521 O525 2.035 . S
Zn521 O527 2.035 . S
Zn521 O528 2.028 . S
O522 C518 1.258 . S
O522 Zn523 2.035 . S
Zn523 O522 2.035 . S
Zn523 O524 2.028 . S
Zn523 O526 2.028 . S
Zn523 O529 2.035 . S
O524 Zn523 2.028 . S
O524 C530 1.247 . S
O525 Zn521 2.035 . S
O525 C530 1.258 . S
O526 C519 1.247 . S
O526 Zn523 2.028 . S
O527 C519 1.258 . S
O527 Zn521 2.035 . S
O528 Zn521 2.028 . S
O528 C531 1.247 . S
O529 Zn523 2.035 . S
O529 C531 1.258 . S
C530 O524 1.247 . S
C530 O525 1.258 . S
C531 O528 1.247 . S
C531 O529 1.258 . S
C532 O534 1.247 . S
C532 O536 1.258 . S
C533 O540 1.247 . S
C533 O541 1.258 . S
O534 C532 1.247 . S
O534 Zn535 2.028 . S
Zn535 O534 2.028 . S
Zn535 O539 2.035 . S
Zn535 O541 2.035 . S
Zn535 O542 2.028 . S
O536 C532 1.258 . S
O536 Zn537 2.035 . S
Zn537 O536 2.035 . S
Zn537 O538 2.028 . S
Zn537 O540 2.028 . S
Zn537 O543 2.035 . S
O538 Zn537 2.028 . S
O538 C544 1.247 . S
O539 Zn535 2.035 . S
O539 C544 1.258 . S
O540 C533 1.247 . S
O540 Zn537 2.028 . S
O541 C533 1.258 . S
O541 Zn535 2.035 . S
O542 Zn535 2.028 . S
O542 C545 1.247 . S
O543 Zn537 2.035 . S
O543 C545 1.258 . S
C544 O538 1.247 . S
C544 O539 1.258 . S
C545 O542 1.247 . S
C545 O543 1.258 . S
C546 O548 1.247 . S
C546 O550 1.258 . S
C547 O554 1.247 . S
C547 O555 1.258 . S
O548 C546 1.247 . S
O548 Zn549 2.028 . S
Zn549 O548 2.028 . S
Zn549 O553 2.035 . S
Zn549 O555 2.035 . S
Zn549 O556 2.028 . S
O550 C546 1.258 . S
O550 Zn551 2.035 . S
Zn551 O550 2.035 . S
Zn551 O552 2.028 . S
Zn551 O554 2.028 . S
Zn551 O557 2.035 . S
O552 Zn551 2.028 . S
O552 C558 1.247 . S
O553 Zn549 2.035 . S
O553 C558 1.258 . S
O554 C547 1.247 . S
O554 Zn551 2.028 . S
O555 C547 1.258 . S
O555 Zn549 2.035 . S
O556 Zn549 2.028 . S
O556 C559 1.247 . S
O557 Zn551 2.035 . S
O557 C559 1.258 . S
C558 O552 1.247 . S
C558 O553 1.258 . S
C559 O556 1.247 . S
C559 O557 1.258 . S
C560 O562 1.247 . S
C560 O564 1.258 . S
C561 O568 1.247 . S
C561 O569 1.258 . S
O562 C560 1.247 . S
O562 Zn563 2.028 . S
Zn563 O562 2.028 . S
Zn563 O567 2.035 . S
Zn563 O569 2.035 . S
Zn563 O570 2.028 . S
O564 C560 1.258 . S
O564 Zn565 2.035 . S
Zn565 O564 2.035 . S
Zn565 O566 2.028 . S
Zn565 O568 2.028 . S
Zn565 O571 2.035 . S
O566 Zn565 2.028 . S
O566 C572 1.247 . S
O567 Zn563 2.035 . S
O567 C572 1.258 . S
O568 C561 1.247 . S
O568 Zn565 2.028 . S
O569 C561 1.258 . S
O569 Zn563 2.035 . S
O570 Zn563 2.028 . S
O570 C573 1.247 . S
O571 Zn565 2.035 . S
O571 C573 1.258 . S
C572 O566 1.247 . S
C572 O567 1.258 . S
C573 O570 1.247 . S
C573 O571 1.258 . S
C574 O576 1.247 . S
C574 O578 1.258 . S
C575 O582 1.247 . S
C575 O583 1.258 . S
O576 C574 1.247 . S
O576 Zn577 2.028 . S
Zn577 O576 2.028 . S
Zn577 O581 2.035 . S
Zn577 O583 2.035 . S
Zn577 O584 2.028 . S
O578 C574 1.258 . S
O578 Zn579 2.035 . S
Zn579 O578 2.035 . S
Zn579 O580 2.028 . S
Zn579 O582 2.028 . S
Zn579 O585 2.035 . S
O580 Zn579 2.028 . S
O580 C586 1.247 . S
O581 Zn577 2.035 . S
O581 C586 1.258 . S
O582 C575 1.247 . S
O582 Zn579 2.028 . S
O583 C575 1.258 . S
O583 Zn577 2.035 . S
O584 Zn577 2.028 . S
O584 C587 1.247 . S
O585 Zn579 2.035 . S
O585 C587 1.258 . S
C586 O580 1.247 . S
C586 O581 1.258 . S
C587 O584 1.247 . S
C587 O585 1.258 . S
C588 O590 1.247 . S
C588 O592 1.258 . S
C589 O596 1.247 . S
C589 O597 1.258 . S
O590 C588 1.247 . S
O590 Zn591 2.028 . S
Zn591 O590 2.028 . S
Zn591 O595 2.035 . S
Zn591 O597 2.035 . S
Zn591 O598 2.028 . S
O592 C588 1.258 . S
O592 Zn593 2.035 . S
Zn593 O592 2.035 . S
Zn593 O594 2.028 . S
Zn593 O596 2.028 . S
Zn593 O599 2.035 . S
O594 Zn593 2.028 . S
O594 C600 1.247 . S
O595 Zn591 2.035 . S
O595 C600 1.258 . S
O596 C589 1.247 . S
O596 Zn593 2.028 . S
O597 C589 1.258 . S
O597 Zn591 2.035 . S
O598 Zn591 2.028 . S
O598 C601 1.247 . S
O599 Zn593 2.035 . S
O599 C601 1.258 . S
C600 O594 1.247 . S
C600 O595 1.258 . S
C601 O598 1.247 . S
C601 O599 1.258 . S
C602 O604 1.247 . S
C602 O606 1.258 . S
C603 O610 1.247 . S
C603 O611 1.258 . S
O604 C602 1.247 . S
O604 Zn605 2.028 . S
Zn605 O604 2.028 . S
Zn605 O609 2.035 . S
Zn605 O611 2.035 . S
Zn605 O612 2.028 . S
O606 C602 1.258 . S
O606 Zn607 2.035 . S
Zn607 O606 2.035 . S
Zn607 O608 2.028 . S
Zn607 O610 2.028 . S
Zn607 O613 2.035 . S
O608 Zn607 2.028 . S
O608 C614 1.247 . S
O609 Zn605 2.035 . S
O609 C614 1.258 . S
O610 C603 1.247 . S
O610 Zn607 2.028 . S
O611 C603 1.258 . S
O611 Zn605 2.035 . S
O612 Zn605 2.028 . S
O612 C615 1.247 . S
O613 Zn607 2.035 . S
O613 C615 1.258 . S
C614 O608 1.247 . S
C614 O609 1.258 . S
C615 O612 1.247 . S
C615 O613 1.258 . S
C616 O618 1.247 . S
C616 O620 1.258 . S
C617 O624 1.247 . S
C617 O625 1.258 . S
O618 C616 1.247 . S
O618 Zn619 2.028 . S
Zn619 O618 2.028 . S
Zn619 O623 2.035 . S
Zn619 O625 2.035 . S
Zn619 O626 2.028 . S
O620 C616 1.258 . S
O620 Zn621 2.035 . S
Zn621 O620 2.035 . S
Zn621 O622 2.028 . S
Zn621 O624 2.028 . S
Zn621 O627 2.035 . S
O622 Zn621 2.028 . S
O622 C628 1.247 . S
O623 Zn619 2.035 . S
O623 C628 1.258 . S
O624 C617 1.247 . S
O624 Zn621 2.028 . S
O625 C617 1.258 . S
O625 Zn619 2.035 . S
O626 Zn619 2.028 . S
O626 C629 1.247 . S
O627 Zn621 2.035 . S
O627 C629 1.258 . S
C628 O622 1.247 . S
C628 O623 1.258 . S
C629 O626 1.247 . S
C629 O627 1.258 . S
C630 O632 1.247 . S
C630 O634 1.258 . S
C631 O638 1.247 . S
C631 O639 1.258 . S
O632 C630 1.247 . S
O632 Zn633 2.028 . S
Zn633 O632 2.028 . S
Zn633 O637 2.035 . S
Zn633 O639 2.035 . S
Zn633 O640 2.028 . S
O634 C630 1.258 . S
O634 Zn635 2.035 . S
Zn635 O634 2.035 . S
Zn635 O636 2.028 . S
Zn635 O638 2.028 . S
Zn635 O641 2.035 . S
O636 Zn635 2.028 . S
O636 C642 1.247 . S
O637 Zn633 2.035 . S
O637 C642 1.258 . S
O638 C631 1.247 . S
O638 Zn635 2.028 . S
O639 C631 1.258 . S
O639 Zn633 2.035 . S
O640 Zn633 2.028 . S
O640 C643 1.247 . S
O641 Zn635 2.035 . S
O641 C643 1.258 . S
C642 O636 1.247 . S
C642 O637 1.258 . S
C643 O640 1.247 . S
C643 O641 1.258 . S
C644 O646 1.247 . S
C644 O648 1.258 . S
C645 O652 1.247 . S
C645 O653 1.258 . S
O646 C644 1.247 . S
O646 Zn647 2.028 . S
Zn647 O646 2.028 . S
Zn647 O651 2.035 . S
Zn647 O653 2.035 . S
Zn647 O654 2.028 . S
O648 C644 1.258 . S
O648 Zn649 2.035 . S
Zn649 O648 2.035 . S
Zn649 O650 2.028 . S
Zn649 O652 2.028 . S
Zn649 O655 2.035 . S
O650 Zn649 2.028 . S
O650 C656 1.247 . S
O651 Zn647 2.035 . S
O651 C656 1.258 . S
O652 C645 1.247 . S
O652 Zn649 2.028 . S
O653 C645 1.258 . S
O653 Zn647 2.035 . S
O654 Zn647 2.028 . S
O654 C657 1.247 . S
O655 Zn649 2.035 . S
O655 C657 1.258 . S
C656 O650 1.247 . S
C656 O651 1.258 . S
C657 O654 1.247 . S
C657 O655 1.258 . S
C658 O660 1.247 . S
C658 O662 1.258 . S
C659 O666 1.247 . S
C659 O667 1.258 . S
O660 C658 1.247 . S
O660 Zn661 2.028 . S
Zn661 O660 2.028 . S
Zn661 O665 2.035 . S
Zn661 O667 2.035 . S
Zn661 O668 2.028 . S
O662 C658 1.258 . S
O662 Zn663 2.035 . S
Zn663 O662 2.035 . S
Zn663 O664 2.028 . S
Zn663 O666 2.028 . S
Zn663 O669 2.035 . S
O664 Zn663 2.028 . S
O664 C670 1.247 . S
O665 Zn661 2.035 . S
O665 C670 1.258 . S
O666 C659 1.247 . S
O666 Zn663 2.028 . S
O667 C659 1.258 . S
O667 Zn661 2.035 . S
O668 Zn661 2.028 . S
O668 C671 1.247 . S
O669 Zn663 2.035 . S
O669 C671 1.258 . S
C670 O664 1.247 . S
C670 O665 1.258 . S
C671 O668 1.247 . S
C671 O669 1.258 . S
C42 C1 1.500 1_565 S
C13 C26 1.500 1_455 S
C28 C15 1.500 1_565 S
C40 C55 1.500 1_655 S
C56 C71 1.500 1_565 S
C96 C83 1.500 1_655 S
C85 C98 1.500 1_545 S
C69 C110 1.500 1_455 S
C125 C264 1.500 1_554 S
C278 C139 1.500 1_556 S
C292 C153 1.500 1_556 S
C250 C167 1.500 1_556 S
C321 C180 1.500 1_554 S
C194 C237 1.500 1_556 S
C335 C208 1.500 1_554 S
C222 C307 1.500 1_556 S
C225 C126 1.500 1_455 S
C239 C210 1.500 1_455 S
C168 C253 1.500 1_565 S
C183 C266 1.500 1_455 S
C197 C280 1.500 1_545 S
C155 C294 1.500 1_455 S
C113 C308 1.500 1_545 S
C323 C140 1.500 1_545 S
C378 C337 1.500 . S
C349 C362 1.500 . S
C364 C351 1.500 . S
C376 C391 1.500 . S
C407 C392 1.500 . S
C419 C432 1.500 . S
C434 C421 1.500 . S
C405 C446 1.500 . S
C600 C461 1.500 . S
C475 C614 1.500 . S
C628 C489 1.500 . S
C503 C586 1.500 . S
C516 C657 1.500 . S
C573 C530 1.500 . S
C671 C544 1.500 . S
C643 C558 1.500 . S
C462 C561 1.500 . S
C546 C575 1.500 . S
C589 C504 1.500 . S
C602 C519 1.500 . S
C533 C616 1.500 . S
C630 C491 1.500 . S
C644 C449 1.500 . S
C659 C476 1.500 . S
C0 C617 1.497 . S
C27 C574 1.496 . S
C29 C588 1.496 . S
C54 C603 1.497 . S
C57 C658 1.497 . S
C82 C631 1.497 . S
C84 C645 1.496 . S
C560 C111 1.497 . S
C124 C559 1.497 . S
C517 C138 1.497 . S
C152 C531 1.496 . S
C166 C545 1.496 . S
C181 C474 1.497 . S
C195 C488 1.496 . S
C502 C209 1.497 . S
C223 C460 1.497 . S
C224 C447 1.497 . S
C238 C363 1.496 . S
C252 C365 1.497 . S
C267 C390 1.496 . S
C336 C281 1.497 . S
C295 C418 1.497 . S
C420 C309 1.496 . S
C393 C322 1.496 . S
C448 C99 1.497 . S
C68 C463 1.496 . S
C477 C70 1.496 . S
C490 C97 1.497 . S
C505 C14 1.497 . S
C41 C518 1.497 . S
C532 C43 1.496 . S
C547 C12 1.497 . S
C572 C293 1.497 . S
C251 C670 1.497 . S
C265 C642 1.496 . S
C656 C279 1.496 . S
C587 C334 1.497 . S
C601 C306 1.496 . S
C320 C615 1.497 . S
C629 C236 1.497 . S
C348 C211 1.497 . S
C404 C127 1.496 . S
C406 C141 1.497 . S
C154 C433 1.496 . S
C112 C435 1.497 . S
C377 C182 1.497 . S
C196 C379 1.496 . S
C350 C169 1.496 . S
