# Generated by pormake.
# Topology snp, (6)-cn, num edge types: 1
# Building blocks:
#     Node 0, Type 0, BuildingBlock: BETGAK_clean_sbu_0, # of connection points: 6
#     Node 1, Type 0, BuildingBlock: BETGAK_clean_sbu_0, # of connection points: 6
#     Node 2, Type 0, BuildingBlock: BETGAK_clean_sbu_0, # of connection points: 6
#     Node 3, Type 0, BuildingBlock: BETGAK_clean_sbu_0, # of connection points: 6
#     Edge 4, Type (0, 0), BuildingBlock: CIFDUS_clean_linker_0, # of connection points: 2
#     Edge 5, Type (0, 0), BuildingBlock: CIFDUS_clean_linker_0, # of connection points: 2
#     Edge 6, Type (0, 0), BuildingBlock: CIFDUS_clean_linker_0, # of connection points: 2
#     Edge 7, Type (0, 0), BuildingBlock: CIFDUS_clean_linker_0, # of connection points: 2
#     Edge 8, Type (0, 0), BuildingBlock: CIFDUS_clean_linker_0, # of connection points: 2
#     Edge 9, Type (0, 0), BuildingBlock: CIFDUS_clean_linker_0, # of connection points: 2
#     Edge 10, Type (0, 0), BuildingBlock: CIFDUS_clean_linker_0, # of connection points: 2
#     Edge 11, Type (0, 0), BuildingBlock: CIFDUS_clean_linker_0, # of connection points: 2
#     Edge 12, Type (0, 0), BuildingBlock: CIFDUS_clean_linker_0, # of connection points: 2
#     Edge 13, Type (0, 0), BuildingBlock: CIFDUS_clean_linker_0, # of connection points: 2
#     Edge 14, Type (0, 0), BuildingBlock: CIFDUS_clean_linker_0, # of connection points: 2
#     Edge 15, Type (0, 0), BuildingBlock: CIFDUS_clean_linker_0, # of connection points: 2
# Relax obj value: 0.872
# Max RMSD: 0.175
# Mean RMSD: 0.175
data_MOF--net-snp--node1-BETGAK_clean_sbu_0--edge1-CIFDUS_clean_linker_0
_symmetry_space_group_name_H-M    P1
_symmetry_Int_Tables_number       1
_symmetry_cell_setting            triclinic
loop_
_symmetry_equiv_pos_as_xyz
'x, y, z'
_cell_length_a     22.815753
_cell_length_b     22.720663
_cell_length_c     24.330112
_cell_angle_alpha  89.343712
_cell_angle_beta   90.132787
_cell_angle_gamma 89.283496
loop_
_atom_site_label
_atom_site_type_symbol
_atom_site_fract_x
_atom_site_fract_y
_atom_site_fract_z
_atom_type_partial_charge
La0 La 0.2335 0.06255 0.27251 0.0
La1 La 0.29372 0.95628 0.2517 0.0
C2 C 0.18341 0.155 0.30448 0.0
C3 C 0.20747 0.21468 0.30955 0.0
C4 C 0.17805 0.26376 0.2867 0.0
C5 C 0.20085 0.32039 0.29275 0.0
C6 C 0.2532 0.32896 0.32244 0.0
C7 C 0.2838 0.27881 0.34248 0.0
C8 C 0.26154 0.22267 0.33575 0.0
C9 C 0.3507 0.06393 0.28915 0.0
C10 C 0.20723 0.95745 0.35791 0.0
C11 C 0.38321 0.89288 1.23144 0.0
C12 C 0.41817 0.87455 1.18343 0.0
C13 C 0.39917 0.82931 1.14924 0.0
C14 C 0.42847 0.81767 1.10027 0.0
C15 C 0.47741 0.85102 1.08442 0.0
C16 C 0.49966 0.89237 1.12125 0.0
C17 C 0.47042 0.90386 1.17045 0.0
C18 C 0.18807 0.94014 1.22614 0.0
C19 C 0.26012 0.05527 1.14778 0.0
O20 O 0.17852 0.13547 0.25444 0.0
O21 O 0.20537 0.11493 0.33795 0.0
O22 O 0.32152 0.10303 0.26155 0.0
O23 O 0.31446 0.02587 0.30436 0.0
O24 O 0.18521 0.00397 0.33084 0.0
O25 O 0.25741 0.93409 0.33782 0.0
O26 O 0.33017 0.87239 0.23639 0.0
O27 O 0.38478 0.94873 0.24285 0.0
O28 O 0.22115 0.89812 0.24595 0.0
O29 O 0.21434 0.98872 1.21978 0.0
O30 O 0.28765 0.00414 1.1647 0.0
O31 O 0.23209 0.08566 1.18531 0.0
H32 H 0.13698 0.2584 0.26498 0.0
H33 H 0.17641 0.35742 0.27567 0.0
H34 H 0.32349 0.28245 0.36654 0.0
H35 H 0.28618 0.18559 0.35266 0.0
H36 H 0.3599 0.80494 1.15873 0.0
H37 H 0.40952 0.7859 1.07276 0.0
H38 H 0.53746 0.91841 1.11041 0.0
H39 H 0.48706 0.93783 1.197 0.0
La40 La 0.03871 0.24307 0.77811 0.0
La41 La 0.14797 0.28249 0.72859 0.0
C42 C 0.93784 0.20833 0.8026 0.0
C43 C 0.88301 0.24171 0.8116 0.0
C44 C 0.88313 0.29246 0.84377 0.0
C45 C 0.83107 0.32242 0.85488 0.0
C46 C 0.77719 0.30293 0.83367 0.0
C47 C 0.77796 0.25456 0.79784 0.0
C48 C 0.83042 0.22402 0.78721 0.0
C49 C 0.05282 0.36145 0.7751 0.0
C50 C 0.14853 0.22259 0.85699 0.0
C51 C 0.22848 0.3534 0.70479 0.0
C52 C 0.23105 0.39715 0.66 0.0
C53 C 0.18641 0.39795 0.62058 0.0
C54 C 0.18872 0.43591 0.57567 0.0
C55 C 0.2369 0.47318 0.56782 0.0
C56 C 0.28109 0.4738 0.60838 0.0
C57 C 0.2779 0.43621 0.65454 0.0
C58 C 0.13824 0.17184 0.72038 0.0
C59 C 0.04304 0.24224 0.64641 0.0
O60 O 0.95773 0.20949 0.75235 0.0
O61 O 0.97959 0.2158 0.83881 0.0
O62 O 0.02978 0.3323 0.81514 0.0
O63 O 0.06519 0.32446 0.73876 0.0
O64 O 0.09459 0.20484 0.84535 0.0
O65 O 0.17524 0.25763 0.81894 0.0
O66 O 0.22777 0.29861 0.68877 0.0
O67 O 0.18849 0.36371 0.74209 0.0
O68 O 0.16726 0.202 0.68413 0.0
O69 O 0.12123 0.20264 0.76004 0.0
O70 O 0.09023 0.27707 0.65174 0.0
O71 O 0.02091 0.21813 0.6916 0.0
H72 H 0.92321 0.30802 0.86222 0.0
H73 H 0.83325 0.35854 0.88337 0.0
H74 H 0.73781 0.23875 0.77976 0.0
H75 H 0.8297 0.1858 0.761 0.0
H76 H 0.1503 0.36771 0.62358 0.0
H77 H 0.15461 0.43234 0.5449 0.0
H78 H 0.31913 0.50132 0.60315 0.0
H79 H 0.3129 0.43605 0.6847 0.0
La80 La 0.81812 0.01144 0.29083 0.0
La81 La 0.81035 0.13161 0.24349 0.0
C82 C 0.84306 0.90526 0.31197 0.0
C83 C 0.81801 0.84635 0.30448 0.0
C84 C 0.76734 0.82924 0.33264 0.0
C85 C 0.75243 0.76996 0.33587 0.0
C86 C 0.78813 0.72655 0.31126 0.0
C87 C 0.83389 0.74498 0.27667 0.0
C88 C 0.84916 0.80434 0.2739 0.0
C89 C 0.70763 0.05231 0.28458 0.0
C90 C 0.85665 0.11801 0.37367 0.0
C91 C 0.75908 0.22771 1.22183 0.0
C92 C 0.71685 0.2426 1.17822 0.0
C93 C 0.70471 0.20054 1.13845 0.0
C94 C 0.66837 0.21448 1.09421 0.0
C95 C 0.64352 0.27133 1.08816 0.0
C96 C 0.65286 0.31241 1.13022 0.0
C97 C 0.68941 0.29808 1.175 0.0
C98 C 0.91419 0.08673 0.24636 0.0
C99 C 0.83196 0.02674 1.15625 0.0
O100 O 0.86002 0.93278 0.26753 0.0
O101 O 0.81722 0.94059 0.34676 0.0
O102 O 0.72836 0.017 0.32187 0.0
O103 O 0.7481 0.06037 0.24945 0.0
O104 O 0.85361 0.05972 0.36498 0.0
O105 O 0.84062 0.15438 0.33163 0.0
O106 O 0.81217 0.2146 1.20487 0.0
O107 O 0.74013 0.18963 0.25835 0.0
O108 O 0.89889 0.12534 1.20866 0.0
O109 O 0.87433 0.08149 0.28074 0.0
O110 O 0.81659 0.08367 1.16264 0.0
O111 O 0.83475 0.9918 1.20088 0.0
H112 H 0.74169 0.86082 0.35574 0.0
H113 H 0.71674 0.75806 0.36288 0.0
H114 H 0.86147 0.71298 0.25611 0.0
H115 H 0.88789 0.81673 0.25104 0.0
H116 H 0.72515 0.15729 1.14055 0.0
H117 H 0.66379 0.1816 1.0627 0.0
H118 H 0.63424 0.3564 1.12723 0.0
H119 H 0.6978 0.33083 1.20596 0.0
La120 La 0.05965 0.83712 0.78565 0.0
La121 La 0.94414 0.80155 0.74462 0.0
C122 C 0.15331 0.87287 0.82693 0.0
C123 C 0.21489 0.8524 0.82376 0.0
C124 C 0.25712 0.88732 0.79767 0.0
C125 C 0.3165 0.87121 0.79995 0.0
C126 C 0.33484 0.82054 0.82952 0.0
C127 C 0.29159 0.7832 0.85129 0.0
C128 C 0.23248 0.79888 0.84837 0.0
C129 C 0.04419 0.72028 0.77602 0.0
C130 C 0.94811 0.85882 0.86716 0.0
C131 C 0.86738 0.73166 0.71075 0.0
C132 C 0.85966 0.68895 0.66639 0.0
C133 C 0.80934 0.69331 0.63365 0.0
C134 C 0.8031 0.65758 0.58795 0.0
C135 C 0.84705 0.61617 0.57403 0.0
C136 C 0.89529 0.60859 0.60975 0.0
C137 C 0.90179 0.64496 0.65534 0.0
C138 C 0.95148 0.91276 0.7517 0.0
C139 C 0.05327 0.83537 0.65501 0.0
O140 O 0.1306 0.89514 0.78174 0.0
O141 O 0.11679 0.83837 0.85295 0.0
O142 O 0.09177 0.74756 0.76373 0.0
O143 O 0.00882 0.75833 0.79412 0.0
O144 O 0.00297 0.87287 0.85386 0.0
O145 O 0.91791 0.82454 0.83244 0.0
O146 O 0.86936 0.78723 0.69605 0.0
O147 O 0.90635 0.71814 0.74847 0.0
O148 O 0.90104 0.8868 0.75483 0.0
O149 O 0.99208 0.87768 0.7384 0.0
O150 O -0.00025 0.81055 0.66373 0.0
O151 O 0.08383 0.85139 0.69867 0.0
H152 H 0.2445 0.92829 0.77744 0.0
H153 H 0.34825 0.90042 0.78157 0.0
H154 H 0.30316 0.74409 0.8749 0.0
H155 H 0.20099 0.77025 0.868 0.0
H156 H 0.77599 0.7264 0.64194 0.0
H157 H 0.76573 0.66596 0.5614 0.0
H158 H 0.92958 0.57674 0.60088 0.0
H159 H 0.94072 0.63999 0.68063 0.0
H160 H 0.9777 0.06088 1.156 0.0
H161 H 0.94383 0.0074 0.32376 0.0
H162 H 0.01172 0.92577 0.3162 0.0
H163 H 0.09884 0.88999 0.27326 0.0
H164 H 0.15501 0.96677 1.12064 0.0
H165 H 0.05879 0.01293 1.10659 0.0
C166 C 0.98541 0.03103 1.19047 0.0
C167 C 0.95718 0.04021 0.24041 0.0
C168 C 0.02763 0.98651 1.18719 0.0
C169 C 0.96616 0.00133 0.28503 0.0
C170 C 0.00426 0.95408 0.2806 0.0
C171 C 0.08831 0.91427 0.23567 0.0
C172 C 0.13293 0.92874 1.19974 0.0
C173 C 0.03771 0.94849 1.23318 0.0
C174 C 0.12042 0.9577 1.14978 0.0
C175 C 0.06618 0.98523 1.14259 0.0
H176 H 0.01215 0.97455 0.82093 0.0
H177 H 0.91594 0.98475 0.66881 0.0
H178 H 0.98315 0.0595 0.63383 0.0
H179 H 0.07332 0.11673 0.64645 0.0
H180 H 0.17549 0.09236 0.79413 0.0
H181 H 0.10619 0.02025 0.82869 0.0
C182 C 0.00496 -0.00543 0.78084 0.0
C183 C 0.9602 0.97484 0.74717 0.0
C184 C 0.04746 0.03055 0.7589 0.0
C185 C 0.94996 0.00104 0.69561 0.0
C186 C 0.98954 0.04178 0.67494 0.0
C187 C 0.08136 0.09343 0.68495 0.0
C188 C 0.12731 0.11011 0.71902 0.0
C189 C 0.03973 0.0549 0.70553 0.0
C190 C 0.13939 0.07949 0.76802 0.0
C191 C 0.09884 0.04035 0.78858 0.0
H192 H 0.6187 0.00798 0.34683 0.0
H193 H 0.6482 0.11875 1.2052 0.0
H194 H 0.54189 0.13484 1.19509 0.0
H195 H 0.43867 0.11604 1.22658 0.0
H196 H 0.41186 -0.0001 0.36536 0.0
H197 H 0.51778 0.98739 0.37637 0.0
C198 C 0.60215 0.03578 0.31362 0.0
C199 C 0.64235 0.06252 0.27699 0.0
C200 C 0.54066 0.04385 0.30762 0.0
C201 C 0.61908 0.09792 1.23421 0.0
C202 C 0.55793 0.107 1.22846 0.0
C203 C 0.45606 0.08835 0.25948 0.0
C204 C 0.41657 0.05935 0.2955 0.0
C205 C 0.51799 0.0802 0.26496 0.0
C206 C 0.44051 0.02301 0.33724 0.0
C207 C 0.5014 0.01571 0.34349 0.0
H208 H 0.00461 0.44924 0.84097 0.0
H209 H 0.10124 0.42427 0.69153 0.0
H210 H 0.11068 0.5306 0.67953 0.0
H211 H 0.09178 0.63269 0.71182 0.0
H212 H 0.98308 0.65876 0.85412 0.0
H213 H 0.97724 0.55191 0.86821 0.0
C214 C 0.02782 0.46704 0.80583 0.0
C215 C 0.05442 0.4278 0.76812 0.0
C216 C 0.0305 0.52931 0.7978 0.0
C217 C 0.08258 0.45261 0.72219 0.0
C218 C 0.08739 0.51385 0.71507 0.0
C219 C 0.06675 0.615 0.74591 0.0
C220 C 0.03855 0.65436 0.78226 0.0
C221 C 0.06188 0.55292 0.75275 0.0
C222 C 0.00545 0.63006 0.82553 0.0
C223 C 0.00219 0.56864 0.8337 0.0
H224 H 0.33673 0.47233 0.50651 0.0
H225 H 0.15672 0.53151 0.50149 0.0
H226 H 0.14935 0.50312 0.40556 0.0
H227 H 0.18236 0.42511 0.34339 0.0
H228 H 0.36435 0.37057 0.3449 0.0
H229 H 0.38294 0.43519 0.4219 0.0
C230 C 0.29697 0.48266 0.48366 0.0
C231 C 0.24566 0.49882 0.51198 0.0
C232 C 0.29267 0.46463 0.42884 0.0
C233 C 0.19584 0.51555 0.48102 0.0
C234 C 0.1913 0.4985 0.42626 0.0
C235 C 0.22694 0.42919 0.35811 0.0
C236 C 0.27059 0.38844 0.34209 0.0
C237 C 0.23752 0.46682 0.40227 0.0
C238 C 0.32859 0.39774 0.35984 0.0
C239 C 0.3395 0.43503 0.40379 0.0
H240 H 0.67533 0.24275 0.85288 0.0
H241 H 0.75027 0.4151 0.87021 0.0
H242 H 0.69374 0.43035 0.95365 0.0
H243 H 0.65725 0.37719 1.03506 0.0
H244 H 0.57706 0.20783 1.01516 0.0
H245 H 0.59919 0.21065 0.91732 0.0
C246 C 0.67738 0.2851 0.87274 0.0
C247 C 0.72149 0.32535 0.85848 0.0
C248 C 0.64475 0.2936 0.92085 0.0
C249 C 0.72016 0.3812 0.88312 0.0
C250 C 0.68768 0.39013 0.9309 0.0
C251 C 0.64136 0.34226 1.0092 0.0
C252 C 0.62066 0.28973 1.03305 0.0
C253 C 0.65499 0.34382 0.95302 0.0
C254 C 0.59713 0.24695 0.99814 0.0
C255 C 0.61003 0.24834 0.94211 0.0
H256 H 0.75456 0.57998 0.5108 0.0
H257 H 0.94267 0.59838 0.50778 0.0
H258 H 0.94012 0.61166 0.40912 0.0
H259 H 0.88324 0.65846 0.33631 0.0
H260 H 0.69434 0.65738 0.34214 0.0
H261 H 0.69826 0.59663 0.42547 0.0
C262 C 0.79518 0.58508 0.48825 0.0
C263 C 0.84813 0.59223 0.51726 0.0
C264 C 0.79298 0.59808 0.43177 0.0
C265 C 0.90076 0.5947 0.48725 0.0
C266 C 0.89936 0.60321 0.43044 0.0
C267 C 0.84266 0.6426 0.35382 0.0
C268 C 0.78855 0.66593 0.33529 0.0
C269 C 0.84538 0.61139 0.4037 0.0
C270 C 0.73672 0.64251 0.35737 0.0
C271 C 0.73896 0.60817 0.40541 0.0
H272 H 0.41101 0.90767 0.85515 0.0
H273 H 0.39914 0.71839 0.85049 0.0
H274 H 0.46583 0.70987 0.92868 0.0
H275 H 0.49378 0.75812 1.01517 0.0
H276 H 0.4977 0.94775 1.02051 0.0
H277 H 0.47156 0.95389 0.92404 0.0
C278 C 0.42507 0.86422 0.86894 0.0
C279 C 0.39633 0.81389 0.84986 0.0
C280 C 0.46161 0.85982 0.91515 0.0
C281 C 0.41773 0.75816 0.86691 0.0
C282 C 0.4558 0.75321 0.91183 0.0
C283 C 0.49149 0.80063 0.99444 0.0
C284 C 0.4944 0.85234 1.02558 0.0
C285 C 0.4728 0.80402 0.93951 0.0
C286 C 0.4941 0.9071 0.998 0.0
C287 C 0.47824 0.91077 0.94272 0.0
H288 H 0.82828 0.9113 1.10793 0.0
H289 H 0.8866 0.08704 1.07157 0.0
H290 H 0.9279 0.05318 0.98446 0.0
H291 H 0.95062 0.97283 0.91585 0.0
H292 H 0.88211 0.79987 0.94628 0.0
H293 H 0.84315 0.8328 1.035 0.0
C294 C 0.84946 0.94278 1.08103 0.0
C295 C 0.85314 0.00304 1.09874 0.0
C296 C 0.87228 0.92291 1.02828 0.0
C297 C 0.88149 0.04119 1.06108 0.0
C298 C 0.90584 0.02142 1.01043 0.0
C299 C 0.92698 0.94193 0.94146 0.0
C300 C 0.92063 0.88257 0.9222 0.0
C301 C 0.90199 0.96226 0.99307 0.0
C302 C 0.88859 0.84522 0.9578 0.0
C303 C 0.86605 0.86438 1.00952 0.0
H304 H 0.23708 0.87756 0.45019 0.0
H305 H 0.09282 0.98202 0.38627 0.0
H306 H 0.03269 0.95313 0.46435 0.0
H307 H 0.01826 0.90075 0.55617 0.0
H308 H 0.16303 0.79943 0.62247 0.0
H309 H 0.22193 0.82358 0.54154 0.0
C310 C 0.19241 0.89399 0.45253 0.0
C311 C 0.17147 0.93309 0.40935 0.0
C312 C 0.15625 0.87713 0.49986 0.0
C313 C 0.11251 0.95265 0.41663 0.0
C314 C 0.07706 0.93577 0.46232 0.0
C315 C 0.06211 0.88236 0.55279 0.0
C316 C 0.08387 0.84561 0.59728 0.0
C317 C 0.09787 0.89812 0.50497 0.0
C318 C 0.14273 0.82601 0.59028 0.0
C319 C 0.17738 0.84048 0.54323 0.0
H320 H 0.16654 0.1053 0.89712 0.0
H321 H 0.19861 0.28479 0.9423 0.0
H322 H 0.23578 0.25059 1.0321 0.0
H323 H 0.25532 0.1697 1.10217 0.0
H324 H 0.23556 0.98943 1.05357 0.0
H325 H 0.19925 0.02323 0.9631 0.0
C326 C 0.18254 0.13731 0.92598 0.0
C327 C 0.17907 0.19881 0.91077 0.0
C328 C 0.20656 0.11666 0.97828 0.0
C329 C 0.20045 0.23789 0.95066 0.0
C330 C 0.22176 0.21797 1.0029 0.0
C331 C 0.2445 0.13725 1.07161 0.0
C332 C 0.24947 0.0759 1.08679 0.0
C333 C 0.22475 0.15747 1.01783 0.0
C334 C 0.23387 0.03627 1.04495 0.0
C335 C 0.21227 0.05602 0.99255 0.0
H336 H 0.93988 0.20992 0.39563 0.0
H337 H 0.84213 0.07402 0.47795 0.0
H338 H 0.8874 0.0999 0.56543 0.0
H339 H 0.95537 0.16063 0.62164 0.0
H340 H 0.06131 0.29057 0.54055 0.0
H341 H 0.01313 0.26835 0.45263 0.0
C342 C 0.92768 0.18619 0.43265 0.0
C343 C 0.88524 0.13995 0.42834 0.0
C344 C 0.95625 0.20037 0.48444 0.0
C345 C 0.87304 0.10982 0.47814 0.0
C346 C 0.89946 0.12472 0.52898 0.0
C347 C 0.96885 0.18406 0.58491 0.0
C348 C 0.01347 0.22777 0.58988 0.0
C349 C 0.94139 0.16975 0.53313 0.0
C350 C 0.02813 0.25693 0.5401 0.0
C351 C 4e-05 0.24401 0.48902 0.0
loop_
_geom_bond_atom_site_label_1
_geom_bond_atom_site_label_2
_geom_bond_distance
_geom_bond_site_symmetry_2
_ccdc_geom_bond_type
La0 C2 2.928 . S
La0 O20 2.521 . S
La0 O21 2.628 . S
La0 O22 2.554 . S
La0 O23 2.757 1_554 S
La0 O24 2.470 . S
La0 O29 2.482 . S
La0 O31 2.503 1_554 S
La1 C11 2.928 1_545 S
La1 O23 2.482 . S
La1 O25 2.503 1_556 S
La1 O26 2.521 1_545 S
La1 O27 2.628 . S
La1 O28 2.554 . S
La1 O29 2.757 1_556 S
La1 O30 2.470 . S
C2 La0 2.928 . S
C2 C3 1.503 . S
C2 O20 1.261 . S
C2 O21 1.243 . S
C3 C2 1.503 . S
C3 C4 1.394 . S
C3 C8 1.373 . S
C4 C3 1.394 . S
C4 C5 1.380 . S
C4 H32 0.930 . S
C5 C4 1.380 . S
C5 C6 1.376 . S
C5 H33 0.930 . S
C6 C5 1.376 . S
C6 C7 1.370 . S
C7 C6 1.370 . S
C7 C8 1.396 . S
C7 H34 0.929 . S
C8 C3 1.373 . S
C8 C7 1.396 . S
C8 H35 0.929 . S
C9 O22 1.240 . S
C9 O23 1.289 1_554 S
C10 O24 1.258 . S
C10 O25 1.256 . S
C11 La1 2.928 1_565 S
C11 C12 1.503 . S
C11 O26 1.261 . S
C11 O27 1.243 1_565 S
C12 C11 1.503 . S
C12 C13 1.394 . S
C12 C17 1.373 . S
C13 C12 1.394 . S
C13 C14 1.380 . S
C13 H36 0.930 . S
C14 C13 1.380 . S
C14 C15 1.376 . S
C14 H37 0.930 . S
C15 C14 1.376 . S
C15 C16 1.370 . S
C16 C15 1.370 . S
C16 C17 1.396 . S
C16 H38 0.929 . S
C17 C12 1.373 . S
C17 C16 1.396 . S
C17 H39 0.929 . S
C18 O28 1.234 1_554 S
C18 O29 1.293 . S
C19 O30 1.258 . S
C19 O31 1.256 . S
O20 La0 2.521 . S
O20 C2 1.261 . S
O21 La0 2.628 . S
O21 C2 1.243 . S
O22 La0 2.554 . S
O22 C9 1.240 . S
O23 La0 2.757 1_556 S
O23 La1 2.482 . S
O23 C9 1.289 1_556 S
O24 La0 2.470 . S
O24 C10 1.258 . S
O25 La1 2.503 1_554 S
O25 C10 1.256 . S
O26 La1 2.521 1_565 S
O26 C11 1.261 . S
O27 La1 2.628 . S
O27 C11 1.243 1_545 S
O28 La1 2.554 . S
O28 C18 1.234 1_556 S
O29 La0 2.482 . S
O29 La1 2.757 1_554 S
O29 C18 1.293 . S
O30 La1 2.470 . S
O30 C19 1.258 . S
O31 La0 2.503 1_556 S
O31 C19 1.256 . S
H32 C4 0.930 . S
H33 C5 0.930 . S
H34 C7 0.929 . S
H35 C8 0.929 . S
H36 C13 0.930 . S
H37 C14 0.930 . S
H38 C16 0.929 . S
H39 C17 0.929 . S
La40 C42 2.928 . S
La40 O60 2.521 . S
La40 O61 2.628 . S
La40 O62 2.554 . S
La40 O63 2.757 1_655 S
La40 O64 2.470 1_655 S
La40 O69 2.482 . S
La40 O71 2.503 . S
La41 C51 2.928 . S
La41 O63 2.482 . S
La41 O65 2.503 . S
La41 O66 2.521 . S
La41 O67 2.628 . S
La41 O68 2.554 . S
La41 O69 2.757 1_455 S
La41 O70 2.470 1_455 S
C42 La40 2.928 . S
C42 C43 1.503 . S
C42 O60 1.261 . S
C42 O61 1.243 . S
C43 C42 1.503 . S
C43 C44 1.394 . S
C43 C48 1.373 . S
C44 C43 1.394 . S
C44 C45 1.380 . S
C44 H72 0.930 . S
C45 C44 1.380 . S
C45 C46 1.376 . S
C45 H73 0.930 . S
C46 C45 1.376 . S
C46 C47 1.370 . S
C47 C46 1.370 . S
C47 C48 1.396 . S
C47 H74 0.929 . S
C48 C43 1.373 . S
C48 C47 1.396 . S
C48 H75 0.929 . S
C49 O62 1.240 . S
C49 O63 1.289 1_655 S
C50 O64 1.258 . S
C50 O65 1.256 . S
C51 La41 2.928 . S
C51 C52 1.503 . S
C51 O66 1.261 . S
C51 O67 1.243 . S
C52 C51 1.503 . S
C52 C53 1.394 . S
C52 C57 1.373 . S
C53 C52 1.394 . S
C53 C54 1.380 . S
C53 H76 0.930 . S
C54 C53 1.380 . S
C54 C55 1.376 . S
C54 H77 0.930 . S
C55 C54 1.376 . S
C55 C56 1.370 . S
C56 C55 1.370 . S
C56 C57 1.396 . S
C56 H78 0.929 . S
C57 C52 1.373 . S
C57 C56 1.396 . S
C57 H79 0.929 . S
C58 O68 1.240 . S
C58 O69 1.289 1_455 S
C59 O70 1.258 . S
C59 O71 1.256 . S
O60 La40 2.521 . S
O60 C42 1.261 . S
O61 La40 2.628 . S
O61 C42 1.243 . S
O62 La40 2.554 . S
O62 C49 1.240 . S
O63 La40 2.757 1_455 S
O63 La41 2.482 . S
O63 C49 1.289 1_455 S
O64 La40 2.470 1_455 S
O64 C50 1.258 . S
O65 La41 2.503 . S
O65 C50 1.256 . S
O66 La41 2.521 . S
O66 C51 1.261 . S
O67 La41 2.628 . S
O67 C51 1.243 . S
O68 La41 2.554 . S
O68 C58 1.240 . S
O69 La40 2.482 . S
O69 La41 2.757 1_655 S
O69 C58 1.289 1_655 S
O70 La41 2.470 1_655 S
O70 C59 1.258 . S
O71 La40 2.503 . S
O71 C59 1.256 . S
H72 C44 0.930 . S
H73 C45 0.930 . S
H74 C47 0.929 . S
H75 C48 0.929 . S
H76 C53 0.930 . S
H77 C54 0.930 . S
H78 C56 0.929 . S
H79 C57 0.929 . S
La80 C82 2.928 . S
La80 O100 2.521 . S
La80 O101 2.628 . S
La80 O102 2.554 . S
La80 O103 2.757 1_564 S
La80 O104 2.470 1_565 S
La80 O109 2.482 . S
La80 O111 2.503 1_554 S
La81 C91 2.928 . S
La81 O103 2.482 . S
La81 O105 2.503 1_556 S
La81 O106 2.521 . S
La81 O107 2.628 . S
La81 O108 2.554 . S
La81 O109 2.757 1_546 S
La81 O110 2.470 1_545 S
C82 La80 2.928 . S
C82 C83 1.503 . S
C82 O100 1.261 . S
C82 O101 1.243 . S
C83 C82 1.503 . S
C83 C84 1.394 . S
C83 C88 1.373 . S
C84 C83 1.394 . S
C84 C85 1.380 . S
C84 H112 0.930 . S
C85 C84 1.380 . S
C85 C86 1.376 . S
C85 H113 0.930 . S
C86 C85 1.376 . S
C86 C87 1.370 . S
C87 C86 1.370 . S
C87 C88 1.396 . S
C87 H114 0.929 . S
C88 C83 1.373 . S
C88 C87 1.396 . S
C88 H115 0.929 . S
C89 O102 1.240 . S
C89 O103 1.289 1_564 S
C90 O104 1.258 . S
C90 O105 1.256 . S
C91 La81 2.928 . S
C91 C92 1.503 . S
C91 O106 1.261 . S
C91 O107 1.243 . S
C92 C91 1.503 . S
C92 C93 1.394 . S
C92 C97 1.373 . S
C93 C92 1.394 . S
C93 C94 1.380 . S
C93 H116 0.930 . S
C94 C93 1.380 . S
C94 C95 1.376 . S
C94 H117 0.930 . S
C95 C94 1.376 . S
C95 C96 1.370 . S
C96 C95 1.370 . S
C96 C97 1.396 . S
C96 H118 0.929 . S
C97 C92 1.373 . S
C97 C96 1.396 . S
C97 H119 0.929 . S
C98 O108 1.234 1_554 S
C98 O109 1.293 1_545 S
C99 O110 1.258 . S
C99 O111 1.256 . S
O100 La80 2.521 . S
O100 C82 1.261 . S
O101 La80 2.628 . S
O101 C82 1.243 . S
O102 La80 2.554 . S
O102 C89 1.240 . S
O103 La80 2.757 1_546 S
O103 La81 2.482 . S
O103 C89 1.289 1_546 S
O104 La80 2.470 1_545 S
O104 C90 1.258 . S
O105 La81 2.503 1_554 S
O105 C90 1.256 . S
O106 La81 2.521 . S
O106 C91 1.261 . S
O107 La81 2.628 . S
O107 C91 1.243 . S
O108 La81 2.554 . S
O108 C98 1.234 1_556 S
O109 La80 2.482 . S
O109 La81 2.757 1_564 S
O109 C98 1.293 1_565 S
O110 La81 2.470 1_565 S
O110 C99 1.258 . S
O111 La80 2.503 1_556 S
O111 C99 1.256 . S
H112 C84 0.930 . S
H113 C85 0.930 . S
H114 C87 0.929 . S
H115 C88 0.929 . S
H116 C93 0.930 . S
H117 C94 0.930 . S
H118 C96 0.929 . S
H119 C97 0.929 . S
La120 C122 2.928 . S
La120 O140 2.521 . S
La120 O141 2.628 . S
La120 O142 2.554 . S
La120 O143 2.757 . S
La120 O144 2.470 . S
La120 O149 2.482 . S
La120 O151 2.503 . S
La121 C131 2.928 1_455 S
La121 O143 2.482 . S
La121 O145 2.503 . S
La121 O146 2.521 1_455 S
La121 O147 2.628 . S
La121 O148 2.554 . S
La121 O149 2.757 . S
La121 O150 2.470 . S
C122 La120 2.928 . S
C122 C123 1.503 . S
C122 O140 1.261 . S
C122 O141 1.243 . S
C123 C122 1.503 . S
C123 C124 1.394 . S
C123 C128 1.373 . S
C124 C123 1.394 . S
C124 C125 1.380 . S
C124 H152 0.930 . S
C125 C124 1.380 . S
C125 C126 1.376 . S
C125 H153 0.930 . S
C126 C125 1.376 . S
C126 C127 1.370 . S
C127 C126 1.370 . S
C127 C128 1.396 . S
C127 H154 0.929 . S
C128 C123 1.373 . S
C128 C127 1.396 . S
C128 H155 0.929 . S
C129 O142 1.240 . S
C129 O143 1.289 . S
C130 O144 1.258 . S
C130 O145 1.256 . S
C131 La121 2.928 1_655 S
C131 C132 1.503 . S
C131 O146 1.261 . S
C131 O147 1.243 1_655 S
C132 C131 1.503 . S
C132 C133 1.394 . S
C132 C137 1.373 . S
C133 C132 1.394 . S
C133 C134 1.380 . S
C133 H156 0.930 . S
C134 C133 1.380 . S
C134 C135 1.376 . S
C134 H157 0.930 . S
C135 C134 1.376 . S
C135 C136 1.370 . S
C136 C135 1.370 . S
C136 C137 1.396 . S
C136 H158 0.929 . S
C137 C132 1.373 . S
C137 C136 1.396 . S
C137 H159 0.929 . S
C138 O148 1.240 . S
C138 O149 1.289 . S
C139 O150 1.258 . S
C139 O151 1.256 . S
O140 La120 2.521 . S
O140 C122 1.261 . S
O141 La120 2.628 . S
O141 C122 1.243 . S
O142 La120 2.554 . S
O142 C129 1.240 . S
O143 La120 2.757 . S
O143 La121 2.482 . S
O143 C129 1.289 . S
O144 La120 2.470 . S
O144 C130 1.258 . S
O145 La121 2.503 . S
O145 C130 1.256 . S
O146 La121 2.521 1_655 S
O146 C131 1.261 . S
O147 La121 2.628 . S
O147 C131 1.243 1_455 S
O148 La121 2.554 . S
O148 C138 1.240 . S
O149 La120 2.482 . S
O149 La121 2.757 . S
O149 C138 1.289 . S
O150 La121 2.470 . S
O150 C139 1.258 . S
O151 La120 2.503 . S
O151 C139 1.256 . S
H152 C124 0.930 . S
H153 C125 0.930 . S
H154 C127 0.929 . S
H155 C128 0.929 . S
H156 C133 0.930 . S
H157 C134 0.930 . S
H158 C136 0.929 . S
H159 C137 0.929 . S
H160 C166 0.930 . S
H161 C169 0.930 . S
H162 C170 0.930 1_455 S
H163 C171 0.930 . S
H164 C174 0.930 . S
H165 C175 0.930 1_565 S
C166 H160 0.930 . S
C166 C167 1.355 1_566 S
C166 C168 1.415 1_665 S
C167 C166 1.355 1_544 S
C167 C169 1.419 . S
C168 C166 1.415 1_445 S
C168 C173 1.425 1_556 S
C168 C175 1.409 . S
C169 H161 0.930 . S
C169 C167 1.419 . S
C169 C170 1.360 . S
C170 H162 0.930 1_655 S
C170 C169 1.360 . S
C170 C173 1.411 1_655 S
C171 H163 0.930 . S
C171 C172 1.355 . S
C171 C173 1.415 . S
C172 C171 1.355 . S
C172 C174 1.419 1_554 S
C173 C168 1.425 1_554 S
C173 C170 1.411 1_455 S
C173 C171 1.415 . S
C174 H164 0.930 . S
C174 C172 1.419 1_556 S
C174 C175 1.362 . S
C175 H165 0.930 1_545 S
C175 C168 1.409 . S
C175 C174 1.362 . S
H176 C182 0.930 . S
H177 C185 0.930 . S
H178 C186 0.930 . S
H179 C187 0.930 . S
H180 C190 0.930 . S
H181 C191 0.930 . S
C182 H176 0.930 . S
C182 C183 1.355 . S
C182 C184 1.415 1_565 S
C183 C182 1.355 . S
C183 C185 1.419 . S
C184 C182 1.415 1_545 S
C184 C189 1.425 . S
C184 C191 1.409 1_455 S
C185 H177 0.930 . S
C185 C183 1.419 . S
C185 C186 1.362 1_565 S
C186 H178 0.930 . S
C186 C185 1.362 1_545 S
C186 C189 1.409 . S
C187 H179 0.930 . S
C187 C188 1.355 . S
C187 C189 1.415 . S
C188 C187 1.355 . S
C188 C190 1.419 1_455 S
C189 C184 1.425 . S
C189 C186 1.409 . S
C189 C187 1.415 . S
C190 H180 0.930 . S
C190 C188 1.419 1_655 S
C190 C191 1.362 . S
C191 H181 0.930 . S
C191 C184 1.409 1_655 S
C191 C190 1.362 . S
H192 C198 0.930 . S
H193 C201 0.930 . S
H194 C202 0.930 . S
H195 C203 0.930 . S
H196 C206 0.930 . S
H197 C207 0.930 1_565 S
C198 H192 0.930 . S
C198 C199 1.355 1_565 S
C198 C200 1.415 1_565 S
C199 C198 1.355 1_545 S
C199 C201 1.419 1_556 S
C200 C198 1.415 1_545 S
C200 C205 1.425 1_556 S
C200 C207 1.409 . S
C201 H193 0.930 . S
C201 C199 1.419 1_554 S
C201 C202 1.362 . S
C202 H194 0.930 . S
C202 C201 1.362 . S
C202 C205 1.409 . S
C203 H195 0.930 . S
C203 C204 1.355 1_554 S
C203 C205 1.415 . S
C204 C203 1.355 1_556 S
C204 C206 1.419 . S
C205 C200 1.425 1_554 S
C205 C202 1.409 . S
C205 C203 1.415 . S
C206 H196 0.930 . S
C206 C204 1.419 . S
C206 C207 1.362 . S
C207 H197 0.930 1_545 S
C207 C200 1.409 . S
C207 C206 1.362 . S
H208 C214 0.930 . S
H209 C217 0.930 . S
H210 C218 0.930 . S
H211 C219 0.930 . S
H212 C222 0.930 . S
H213 C223 0.930 1_655 S
C214 H208 0.930 . S
C214 C215 1.349 1_655 S
C214 C216 1.415 1_655 S
C215 C214 1.349 1_455 S
C215 C217 1.437 . S
C216 C214 1.415 1_455 S
C216 C221 1.425 . S
C216 C223 1.409 . S
C217 H209 0.930 . S
C217 C215 1.437 . S
C217 C218 1.362 . S
C218 H210 0.930 . S
C218 C217 1.362 . S
C218 C221 1.409 . S
C219 H211 0.930 . S
C219 C220 1.355 . S
C219 C221 1.415 . S
C220 C219 1.355 . S
C220 C222 1.419 . S
C221 C216 1.425 . S
C221 C218 1.409 . S
C221 C219 1.415 . S
C222 H212 0.930 . S
C222 C220 1.419 . S
C222 C223 1.362 . S
C223 H213 0.930 1_455 S
C223 C216 1.409 . S
C223 C222 1.362 . S
H224 C230 0.930 . S
H225 C233 0.930 . S
H226 C234 0.930 . S
H227 C235 0.930 . S
H228 C238 0.930 . S
H229 C239 0.930 . S
C230 H224 0.930 . S
C230 C231 1.355 . S
C230 C232 1.415 . S
C231 C230 1.355 . S
C231 C233 1.419 . S
C232 C230 1.415 . S
C232 C237 1.425 . S
C232 C239 1.409 . S
C233 H225 0.930 . S
C233 C231 1.419 . S
C233 C234 1.362 . S
C234 H226 0.930 . S
C234 C233 1.362 . S
C234 C237 1.409 . S
C235 H227 0.930 . S
C235 C236 1.355 . S
C235 C237 1.415 . S
C236 C235 1.355 . S
C236 C238 1.419 . S
C237 C232 1.425 . S
C237 C234 1.409 . S
C237 C235 1.415 . S
C238 H228 0.930 . S
C238 C236 1.419 . S
C238 C239 1.362 . S
C239 H229 0.930 . S
C239 C232 1.409 . S
C239 C238 1.362 . S
H240 C246 0.930 . S
H241 C249 0.930 . S
H242 C250 0.930 . S
H243 C251 0.930 . S
H244 C254 0.930 . S
H245 C255 0.930 . S
C246 H240 0.930 . S
C246 C247 1.355 . S
C246 C248 1.415 . S
C247 C246 1.355 . S
C247 C249 1.419 . S
C248 C246 1.415 . S
C248 C253 1.425 . S
C248 C255 1.409 . S
C249 H241 0.930 . S
C249 C247 1.419 . S
C249 C250 1.362 . S
C250 H242 0.930 . S
C250 C249 1.362 . S
C250 C253 1.409 . S
C251 H243 0.930 . S
C251 C252 1.355 . S
C251 C253 1.415 . S
C252 C251 1.355 . S
C252 C254 1.419 . S
C253 C248 1.425 . S
C253 C250 1.409 . S
C253 C251 1.415 . S
C254 H244 0.930 . S
C254 C252 1.419 . S
C254 C255 1.362 . S
C255 H245 0.930 . S
C255 C248 1.409 . S
C255 C254 1.362 . S
H256 C262 0.930 . S
H257 C265 0.930 . S
H258 C266 0.930 . S
H259 C267 0.930 . S
H260 C270 0.930 . S
H261 C271 0.930 . S
C262 H256 0.930 . S
C262 C263 1.355 . S
C262 C264 1.415 . S
C263 C262 1.355 . S
C263 C265 1.419 . S
C264 C262 1.415 . S
C264 C269 1.425 . S
C264 C271 1.409 . S
C265 H257 0.930 . S
C265 C263 1.419 . S
C265 C266 1.362 . S
C266 H258 0.930 . S
C266 C265 1.362 . S
C266 C269 1.409 . S
C267 H259 0.930 . S
C267 C268 1.355 . S
C267 C269 1.415 . S
C268 C267 1.355 . S
C268 C270 1.419 . S
C269 C264 1.425 . S
C269 C266 1.409 . S
C269 C267 1.415 . S
C270 H260 0.930 . S
C270 C268 1.419 . S
C270 C271 1.362 . S
C271 H261 0.930 . S
C271 C264 1.409 . S
C271 C270 1.362 . S
H272 C278 0.930 . S
H273 C281 0.930 . S
H274 C282 0.930 . S
H275 C283 0.930 . S
H276 C286 0.930 . S
H277 C287 0.930 . S
C278 H272 0.930 . S
C278 C279 1.355 . S
C278 C280 1.415 . S
C279 C278 1.355 . S
C279 C281 1.419 . S
C280 C278 1.415 . S
C280 C285 1.425 . S
C280 C287 1.409 . S
C281 H273 0.930 . S
C281 C279 1.419 . S
C281 C282 1.362 . S
C282 H274 0.930 . S
C282 C281 1.362 . S
C282 C285 1.409 . S
C283 H275 0.930 . S
C283 C284 1.355 . S
C283 C285 1.415 . S
C284 C283 1.355 . S
C284 C286 1.419 . S
C285 C280 1.425 . S
C285 C282 1.409 . S
C285 C283 1.415 . S
C286 H276 0.930 . S
C286 C284 1.419 . S
C286 C287 1.362 . S
C287 H277 0.930 . S
C287 C280 1.409 . S
C287 C286 1.362 . S
H288 C294 0.930 . S
H289 C297 0.930 . S
H290 C298 0.930 . S
H291 C299 0.930 . S
H292 C302 0.920 1_455 S
H293 C303 0.930 1_455 S
C294 H288 0.930 . S
C294 C295 1.355 . S
C294 C296 1.415 . S
C295 C294 1.355 . S
C295 C297 1.419 . S
C296 C294 1.415 . S
C296 C301 1.425 . S
C296 C303 1.409 . S
C297 H289 0.930 . S
C297 C295 1.419 . S
C297 C298 1.362 . S
C298 H290 0.930 . S
C298 C297 1.362 . S
C298 C301 1.409 . S
C299 H291 0.930 . S
C299 C300 1.355 . S
C299 C301 1.415 . S
C300 C299 1.355 . S
C300 C302 1.426 . S
C301 C296 1.425 . S
C301 C298 1.409 . S
C301 C299 1.415 . S
C302 H292 0.920 1_655 S
C302 C300 1.426 . S
C302 C303 1.365 . S
C303 H293 0.930 1_655 S
C303 C296 1.409 . S
C303 C302 1.365 . S
H304 C310 0.930 . S
H305 C313 0.930 . S
H306 C314 0.930 1_545 S
H307 C315 0.930 . S
H308 C318 0.930 . S
H309 C319 0.930 . S
C310 H304 0.930 . S
C310 C311 1.355 . S
C310 C312 1.415 . S
C311 C310 1.355 . S
C311 C313 1.419 1_565 S
C312 C310 1.415 . S
C312 C317 1.425 . S
C312 C319 1.409 . S
C313 H305 0.930 . S
C313 C311 1.419 1_545 S
C313 C314 1.362 1_545 S
C314 H306 0.930 1_565 S
C314 C313 1.362 1_565 S
C314 C317 1.409 . S
C315 H307 0.930 . S
C315 C316 1.355 . S
C315 C317 1.415 . S
C316 C315 1.355 . S
C316 C318 1.419 . S
C317 C312 1.425 . S
C317 C314 1.409 . S
C317 C315 1.415 . S
C318 H308 0.930 . S
C318 C316 1.419 . S
C318 C319 1.362 . S
C319 H309 0.930 . S
C319 C312 1.409 . S
C319 C318 1.362 . S
H320 C326 0.930 . S
H321 C329 0.930 . S
H322 C330 0.930 . S
H323 C331 0.930 . S
H324 C334 0.930 . S
H325 C335 0.930 . S
C326 H320 0.930 . S
C326 C327 1.355 . S
C326 C328 1.415 . S
C327 C326 1.355 . S
C327 C329 1.419 . S
C328 C326 1.415 . S
C328 C333 1.425 . S
C328 C335 1.409 . S
C329 H321 0.930 . S
C329 C327 1.419 . S
C329 C330 1.362 . S
C330 H322 0.930 . S
C330 C329 1.362 . S
C330 C333 1.409 . S
C331 H323 0.930 . S
C331 C332 1.355 . S
C331 C333 1.415 . S
C332 C331 1.355 . S
C332 C334 1.419 . S
C333 C328 1.425 . S
C333 C330 1.409 . S
C333 C331 1.415 . S
C334 H324 0.930 . S
C334 C332 1.419 . S
C334 C335 1.362 . S
C335 H325 0.930 . S
C335 C328 1.409 . S
C335 C334 1.362 . S
H336 C342 0.930 . S
H337 C345 0.930 . S
H338 C346 0.930 . S
H339 C347 0.930 . S
H340 C350 0.930 . S
H341 C351 0.930 . S
C342 H336 0.930 . S
C342 C343 1.355 . S
C342 C344 1.415 . S
C343 C342 1.355 . S
C343 C345 1.419 . S
C344 C342 1.415 . S
C344 C349 1.425 . S
C344 C351 1.409 . S
C345 H337 0.930 . S
C345 C343 1.419 . S
C345 C346 1.362 . S
C346 H338 0.930 . S
C346 C345 1.362 . S
C346 C349 1.409 . S
C347 H339 0.930 . S
C347 C348 1.355 . S
C347 C349 1.415 . S
C348 C347 1.355 . S
C348 C350 1.419 . S
C349 C344 1.425 . S
C349 C346 1.409 . S
C349 C347 1.415 . S
C350 H340 0.930 . S
C350 C348 1.419 . S
C350 C351 1.362 . S
C351 H341 0.930 . S
C351 C344 1.409 . S
C351 C350 1.362 . S
C167 C98 0.719 . S
C172 C18 0.643 . S
C183 C138 0.824 . S
C188 C58 0.800 . S
C199 C89 0.932 1_546 S
C204 C9 0.946 1_556 S
C215 C49 0.951 1_455 S
C220 C129 0.921 . S
C231 C55 1.163 . S
C236 C6 1.203 . S
C247 C46 1.201 . S
C252 C95 1.074 . S
C263 C135 1.074 . S
C268 C86 1.201 . S
C279 C126 1.235 . S
C284 C15 1.167 . S
C295 C99 4.592 . S
C300 C130 4.722 1_655 S
C311 C10 4.723 1_565 S
C316 C139 4.598 . S
C327 C50 4.723 . S
C332 C19 4.596 . S
C343 C90 4.723 . S
C348 C59 4.597 . S
