# Generated by pormake.
# Topology sth, (5)-cn, num edge types: 1
# Building blocks:
#     Node 0, Type 0, BuildingBlock: XOMCOT_clean_sbu_1, # of connection points: 5
#     Node 1, Type 0, BuildingBlock: XOMCOT_clean_sbu_1, # of connection points: 5
#     Node 2, Type 0, BuildingBlock: XOMCOT_clean_sbu_1, # of connection points: 5
#     Node 3, Type 0, BuildingBlock: XOMCOT_clean_sbu_1, # of connection points: 5
#     Node 4, Type 0, BuildingBlock: XOMCOT_clean_sbu_1, # of connection points: 5
#     Node 5, Type 0, BuildingBlock: XOMCOT_clean_sbu_1, # of connection points: 5
#     Node 6, Type 0, BuildingBlock: XOMCOT_clean_sbu_1, # of connection points: 5
#     Node 7, Type 0, BuildingBlock: XOMCOT_clean_sbu_1, # of connection points: 5
#     Node 8, Type 0, BuildingBlock: XOMCOT_clean_sbu_1, # of connection points: 5
#     Node 9, Type 0, BuildingBlock: XOMCOT_clean_sbu_1, # of connection points: 5
#     Node 10, Type 0, BuildingBlock: XOMCOT_clean_sbu_1, # of connection points: 5
#     Node 11, Type 0, BuildingBlock: XOMCOT_clean_sbu_1, # of connection points: 5
#     Node 12, Type 0, BuildingBlock: XOMCOT_clean_sbu_1, # of connection points: 5
#     Node 13, Type 0, BuildingBlock: XOMCOT_clean_sbu_1, # of connection points: 5
#     Node 14, Type 0, BuildingBlock: XOMCOT_clean_sbu_1, # of connection points: 5
#     Node 15, Type 0, BuildingBlock: XOMCOT_clean_sbu_1, # of connection points: 5
#     Node 16, Type 0, BuildingBlock: XOMCOT_clean_sbu_1, # of connection points: 5
#     Node 17, Type 0, BuildingBlock: XOMCOT_clean_sbu_1, # of connection points: 5
#     Edge 18, Type (0, 0), BuildingBlock: EZIPEK_clean_linker_0, # of connection points: 2
#     Edge 19, Type (0, 0), BuildingBlock: EZIPEK_clean_linker_0, # of connection points: 2
#     Edge 20, Type (0, 0), BuildingBlock: EZIPEK_clean_linker_0, # of connection points: 2
#     Edge 21, Type (0, 0), BuildingBlock: EZIPEK_clean_linker_0, # of connection points: 2
#     Edge 22, Type (0, 0), BuildingBlock: EZIPEK_clean_linker_0, # of connection points: 2
#     Edge 23, Type (0, 0), BuildingBlock: EZIPEK_clean_linker_0, # of connection points: 2
#     Edge 24, Type (0, 0), BuildingBlock: EZIPEK_clean_linker_0, # of connection points: 2
#     Edge 25, Type (0, 0), BuildingBlock: EZIPEK_clean_linker_0, # of connection points: 2
#     Edge 26, Type (0, 0), BuildingBlock: EZIPEK_clean_linker_0, # of connection points: 2
#     Edge 27, Type (0, 0), BuildingBlock: EZIPEK_clean_linker_0, # of connection points: 2
#     Edge 28, Type (0, 0), BuildingBlock: EZIPEK_clean_linker_0, # of connection points: 2
#     Edge 29, Type (0, 0), BuildingBlock: EZIPEK_clean_linker_0, # of connection points: 2
#     Edge 30, Type (0, 0), BuildingBlock: EZIPEK_clean_linker_0, # of connection points: 2
#     Edge 31, Type (0, 0), BuildingBlock: EZIPEK_clean_linker_0, # of connection points: 2
#     Edge 32, Type (0, 0), BuildingBlock: EZIPEK_clean_linker_0, # of connection points: 2
#     Edge 33, Type (0, 0), BuildingBlock: EZIPEK_clean_linker_0, # of connection points: 2
#     Edge 34, Type (0, 0), BuildingBlock: EZIPEK_clean_linker_0, # of connection points: 2
#     Edge 35, Type (0, 0), BuildingBlock: EZIPEK_clean_linker_0, # of connection points: 2
#     Edge 36, Type (0, 0), BuildingBlock: EZIPEK_clean_linker_0, # of connection points: 2
#     Edge 37, Type (0, 0), BuildingBlock: EZIPEK_clean_linker_0, # of connection points: 2
#     Edge 38, Type (0, 0), BuildingBlock: EZIPEK_clean_linker_0, # of connection points: 2
#     Edge 39, Type (0, 0), BuildingBlock: EZIPEK_clean_linker_0, # of connection points: 2
#     Edge 40, Type (0, 0), BuildingBlock: EZIPEK_clean_linker_0, # of connection points: 2
#     Edge 41, Type (0, 0), BuildingBlock: EZIPEK_clean_linker_0, # of connection points: 2
#     Edge 42, Type (0, 0), BuildingBlock: EZIPEK_clean_linker_0, # of connection points: 2
#     Edge 43, Type (0, 0), BuildingBlock: EZIPEK_clean_linker_0, # of connection points: 2
#     Edge 44, Type (0, 0), BuildingBlock: EZIPEK_clean_linker_0, # of connection points: 2
#     Edge 45, Type (0, 0), BuildingBlock: EZIPEK_clean_linker_0, # of connection points: 2
#     Edge 46, Type (0, 0), BuildingBlock: EZIPEK_clean_linker_0, # of connection points: 2
#     Edge 47, Type (0, 0), BuildingBlock: EZIPEK_clean_linker_0, # of connection points: 2
#     Edge 48, Type (0, 0), BuildingBlock: EZIPEK_clean_linker_0, # of connection points: 2
#     Edge 49, Type (0, 0), BuildingBlock: EZIPEK_clean_linker_0, # of connection points: 2
#     Edge 50, Type (0, 0), BuildingBlock: EZIPEK_clean_linker_0, # of connection points: 2
#     Edge 51, Type (0, 0), BuildingBlock: EZIPEK_clean_linker_0, # of connection points: 2
#     Edge 52, Type (0, 0), BuildingBlock: EZIPEK_clean_linker_0, # of connection points: 2
#     Edge 53, Type (0, 0), BuildingBlock: EZIPEK_clean_linker_0, # of connection points: 2
#     Edge 54, Type (0, 0), BuildingBlock: EZIPEK_clean_linker_0, # of connection points: 2
#     Edge 55, Type (0, 0), BuildingBlock: EZIPEK_clean_linker_0, # of connection points: 2
#     Edge 56, Type (0, 0), BuildingBlock: EZIPEK_clean_linker_0, # of connection points: 2
#     Edge 57, Type (0, 0), BuildingBlock: EZIPEK_clean_linker_0, # of connection points: 2
#     Edge 58, Type (0, 0), BuildingBlock: EZIPEK_clean_linker_0, # of connection points: 2
#     Edge 59, Type (0, 0), BuildingBlock: EZIPEK_clean_linker_0, # of connection points: 2
#     Edge 60, Type (0, 0), BuildingBlock: EZIPEK_clean_linker_0, # of connection points: 2
#     Edge 61, Type (0, 0), BuildingBlock: EZIPEK_clean_linker_0, # of connection points: 2
#     Edge 62, Type (0, 0), BuildingBlock: EZIPEK_clean_linker_0, # of connection points: 2
# Relax obj value: 0.169
# Max RMSD: 0.183
# Mean RMSD: 0.183
data_MOF--net-sth--node1-XOMCOT_clean_sbu_1--edge1-EZIPEK_clean_linker_0
_symmetry_space_group_name_H-M    P1
_symmetry_Int_Tables_number       1
_symmetry_cell_setting            triclinic
loop_
_symmetry_equiv_pos_as_xyz
'x, y, z'
_cell_length_a     30.987818
_cell_length_b     31.010374
_cell_length_c     58.303457
_cell_angle_alpha  90.215724
_cell_angle_beta   89.516914
_cell_angle_gamma 119.86961
loop_
_atom_site_label
_atom_site_type_symbol
_atom_site_fract_x
_atom_site_fract_y
_atom_site_fract_z
_atom_type_partial_charge
C0 C 0.24209 0.31896 0.2459 0.0
C1 C 0.29006 0.34693 0.23779 0.0
N2 N 0.28981 0.37038 0.21831 0.0
N3 N 0.21101 0.32417 0.2317 0.0
C4 C 0.24124 0.35735 0.21569 0.0
H5 H 0.23014 0.29248 0.25985 0.0
Co6 Co 0.14191 0.27883 0.23006 0.0
C7 C 0.11426 0.35687 0.21672 0.0
O8 O 0.10202 0.36005 0.23794 0.0
N9 N 0.07216 0.2321 0.22709 0.0
C10 C 0.99014 0.19989 0.22337 0.0
C11 C 1.03406 0.2415 0.2289 0.0
C12 C 0.04932 0.1831 0.22138 0.0
N13 N 0.99966 0.16297 0.21883 0.0
O14 O 0.15577 0.2494 0.20339 0.0
H15 H 0.03693 0.27585 0.23444 0.0
H16 H 0.06804 0.16177 0.21969 0.0
O17 O 0.13114 0.32757 0.21131 0.0
C18 C 0.16526 0.21791 0.21309 0.0
O19 O 0.15898 0.21214 0.23542 0.0
N20 N 0.13181 0.30204 0.25894 0.0
C21 C 0.12902 0.32475 0.30523 0.0
C22 C 0.16074 0.3617 0.28983 0.0
C23 C 0.16217 0.34945 0.26682 0.0
C24 C 0.1014 0.26571 0.2741 0.0
C25 C 0.09866 0.27648 0.29715 0.0
H26 H 0.18821 0.37814 0.25536 0.0
H27 H 0.08103 0.22727 0.26884 0.0
H28 H 0.22723 0.3683 0.20123 0.0
H29 H 0.32187 0.34551 0.2444 0.0
H30 H 0.95346 0.19608 0.22403 0.0
H31 H 0.18557 0.3992 0.29574 0.0
H32 H 0.07508 0.24676 0.30885 0.0
C33 C 0.72844 0.90752 0.24546 0.0
C34 C 0.70126 0.92862 0.23744 0.0
N35 N 0.70243 0.92817 0.21437 0.0
N36 N 0.74647 0.89348 0.22749 0.0
C37 C 0.73003 0.90697 0.20881 0.0
H38 H 0.73682 0.90526 0.26323 0.0
Co39 Co 0.79339 0.87067 0.22617 0.0
C40 C 0.70469 0.78922 0.19928 0.0
O41 O 0.67146 0.80061 0.20656 0.0
N42 N 0.84059 0.84782 0.2228 0.0
C43 C 0.86969 0.7984 0.21116 0.0
C44 C 0.82807 0.80047 0.21759 0.0
C45 C 0.89098 0.8734 0.22031 0.0
N46 N 0.90952 0.84417 0.21311 0.0
O47 O 0.82948 0.92146 0.20334 0.0
H48 H 0.79064 0.76927 0.21738 0.0
H49 H 0.91382 0.91309 0.22272 0.0
O50 O 0.75058 0.81608 0.2047 0.0
C51 C 0.85662 0.95586 0.21774 0.0
O52 O 0.85508 0.94307 0.23937 0.0
N53 N 0.76447 0.82951 0.25249 0.0
C54 C 0.73619 0.80447 0.29835 0.0
C55 C 0.70023 0.79296 0.28145 0.0
C56 C 0.71517 0.80587 0.25856 0.0
C57 C 0.79935 0.83821 0.26882 0.0
C58 C 0.78597 0.82537 0.29173 0.0
H59 H 0.68733 0.80101 0.24638 0.0
H60 H 0.83853 0.85958 0.26474 0.0
H61 H 0.7396 0.90289 0.19135 0.0
H62 H 0.68368 0.94481 0.24771 0.0
H63 H 0.87058 0.76574 0.2052 0.0
H64 H 0.6614 0.77749 0.28614 0.0
H65 H 0.81472 0.83556 0.30447 0.0
C66 C 0.13793 0.8356 0.24079 0.0
C67 C 0.11898 0.78719 0.23362 0.0
N68 N 0.14402 0.7865 0.21465 0.0
N69 N 0.17463 0.866 0.22637 0.0
C70 C 0.17892 0.83497 0.21124 0.0
H71 H 0.12279 0.84813 0.25435 0.0
Co72 Co 0.19937 0.93527 0.224 0.0
C73 C 0.30211 0.95787 0.2064 0.0
O74 O 0.31998 0.96686 0.22722 0.0
N75 N 0.22345 1.0054 0.22031 0.0
C76 C 0.27515 0.08565 0.21271 0.0
C77 C 0.27172 0.04145 0.21885 0.0
C78 C 0.19827 0.03011 0.21612 0.0
N79 N 0.22897 0.07908 0.21149 0.0
O80 O 0.15293 0.92082 0.19888 0.0
H81 H 0.3032 0.03671 0.222 0.0
H82 H 0.15819 1.01287 0.21638 0.0
O83 O 0.25579 0.94376 0.20306 0.0
C84 C 0.11299 0.9125 0.20951 0.0
O85 O 0.11548 0.9204 0.23175 0.0
N86 N 0.23619 0.94608 0.2517 0.0
C87 C 0.25982 0.94489 0.29785 0.0
C88 C 0.26417 0.9133 0.28201 0.0
C89 C 0.2516 0.914 0.25909 0.0
C90 C 0.2326 0.97753 0.26716 0.0
C91 C 0.24507 0.97814 0.29017 0.0
H92 H 0.25269 0.88735 0.24744 0.0
H93 H 0.21625 0.99977 0.26232 0.0
H94 H 0.20471 0.8481 0.19692 0.0
H95 H 0.08604 0.75546 0.24061 0.0
H96 H 0.30928 0.12048 0.2099 0.0
H97 H 0.27462 0.88648 0.28756 0.0
H98 H 0.23994 1.00197 0.30219 0.0
C99 C 0.34514 0.21884 0.7866 0.0
C100 C 0.37276 0.26573 0.79587 0.0
N101 N 0.37008 0.26147 0.81885 0.0
N102 N 0.3255 0.18493 0.80368 0.0
C103 C 0.34137 0.21229 0.82318 0.0
H104 H 0.33768 0.21036 0.76857 0.0
Co105 Co 0.2766 0.11647 0.80124 0.0
C106 C 0.33207 0.07035 0.82153 0.0
O107 O 0.32904 0.04898 0.80175 0.0
N108 N 0.22624 0.04637 0.80014 0.0
C109 C 0.18319 0.96436 0.79332 0.0
C110 C 0.22669 1.00802 0.78905 0.0
C111 C 0.18147 0.02384 0.81127 0.0
N112 N 0.15469 0.97444 0.80725 0.0
O113 O 0.23628 0.12725 0.82348 0.0
H114 H 0.25561 1.01109 0.77759 0.0
H115 H 0.16701 0.04319 0.82134 0.0
O116 O 0.31317 0.09884 0.82424 0.0
C117 C 0.21639 0.14517 0.80999 0.0
O118 O 0.23196 0.15418 0.78856 0.0
N119 N 0.31062 0.1104 0.77553 0.0
C120 C 0.349 0.11719 0.73141 0.0
C121 C 0.38067 0.13221 0.75046 0.0
C122 C 0.3607 0.12917 0.77253 0.0
C123 C 0.28018 0.09722 0.75692 0.0
C124 C 0.29827 0.099 0.73486 0.0
H125 H 0.38551 0.14411 0.78699 0.0
H126 H 0.24151 0.08679 0.75913 0.0
H127 H 0.32981 0.1968 0.84021 0.0
H128 H 0.39124 0.30051 0.78652 0.0
H129 H 0.17175 0.92866 0.78541 0.0
H130 H 0.42045 0.14822 0.74817 0.0
H131 H 0.27321 0.08882 0.72044 0.0
C132 C 0.81783 0.11088 0.78376 0.0
C133 C 0.77005 0.08658 0.79258 0.0
N134 N 0.77083 0.10104 0.81453 0.0
N135 N 0.84953 0.13979 0.80016 0.0
C136 C 0.81971 0.13307 0.81856 0.0
H137 H 0.82917 0.10444 0.76709 0.0
Co138 Co 0.91948 0.16454 0.80061 0.0
C139 C 0.91568 0.2476 0.82888 0.0
O140 O 0.86948 0.23613 0.82511 0.0
N141 N 0.98962 0.18956 0.80287 0.0
C142 C 0.07214 0.23996 0.80251 0.0
C143 C 1.02678 0.23601 0.79776 0.0
C144 C 1.01371 0.16719 0.81189 0.0
N145 N 0.06362 0.19649 0.81141 0.0
O146 O 0.90819 0.1148 0.82356 0.0
H147 H 1.02138 0.26513 0.79065 0.0
H148 H 0.99568 0.12969 0.81842 0.0
O149 O 0.93233 0.2201 0.82096 0.0
C150 C 0.89914 0.0795 0.80917 0.0
O151 O 0.89797 0.0887 0.78725 0.0
N152 N 0.92898 0.20386 0.77448 0.0
C153 C 0.93372 0.23832 0.72988 0.0
C154 C 0.91017 0.25039 0.74742 0.0
C155 C 0.90817 0.23264 0.76979 0.0
C156 C 0.95216 0.19239 0.75748 0.0
C157 C 0.95622 0.21035 0.73533 0.0
H158 H 0.88697 0.239 0.78272 0.0
H159 H 0.96594 0.16716 0.76086 0.0
H160 H 0.83419 0.14886 0.83519 0.0
H161 H 0.7375 0.05846 0.78375 0.0
H162 H 0.10853 0.27139 0.79877 0.0
H163 H 0.89127 0.27092 0.74358 0.0
H164 H 0.97374 0.19946 0.72213 0.0
C165 C 0.91731 0.70982 0.77744 0.0
C166 C 0.94167 0.68611 0.78561 0.0
N167 N 0.92912 0.67421 0.80785 0.0
N168 N 0.89025 0.71433 0.79453 0.0
C169 C 0.89781 0.69182 0.8127 0.0
H170 H 0.92251 0.72658 0.76067 0.0
Co171 Co 0.86618 0.75995 0.79492 0.0
C172 C 0.78163 0.67191 0.82147 0.0
O173 O 0.79349 0.63829 0.8155 0.0
N174 N 0.84202 0.80602 0.79668 0.0
C175 C 0.79496 0.84199 0.79477 0.0
C176 C 0.79805 0.80021 0.78937 0.0
C177 C 0.86355 0.8508 0.8074 0.0
N178 N 0.83632 0.87361 0.80618 0.0
O179 O 0.91447 0.79782 0.8186 0.0
H180 H 0.77034 0.76826 0.78011 0.0
H181 H 0.89953 0.86801 0.81546 0.0
O182 O 0.80901 0.71758 0.81555 0.0
C183 C 0.95247 0.82417 0.8055 0.0
O184 O 0.94791 0.81341 0.78351 0.0
N185 N 0.82868 0.73043 0.7682 0.0
C186 C 0.80046 0.69968 0.72305 0.0
C187 C 0.7842 0.66486 0.7409 0.0
C188 C 0.79939 0.68099 0.76339 0.0
C189 C 0.84411 0.76454 0.75084 0.0
C190 C 0.82987 0.75008 0.72823 0.0
H191 H 0.79 0.65333 0.77636 0.0
H192 H 0.86992 0.80329 0.75438 0.0
H193 H 0.88316 0.69135 0.82967 0.0
H194 H 0.96863 0.68038 0.77617 0.0
H195 H 0.76604 0.84975 0.7896 0.0
H196 H 0.7625 0.62543 0.73728 0.0
H197 H 0.84403 0.77779 0.71473 0.0
C198 C 0.89872 0.62833 0.567 0.0
C199 C 0.94677 0.653 0.55871 0.0
N200 N 0.94979 0.68311 0.54135 0.0
N201 N 0.87052 0.64137 0.55461 0.0
C202 C 0.90301 0.67584 0.53962 0.0
H203 H 0.88435 0.59907 0.57972 0.0
Co204 Co 0.80059 0.6014 0.55209 0.0
C205 C 0.80819 0.69798 0.53349 0.0
O206 O 0.84225 0.72857 0.54771 0.0
N207 N 0.73056 0.5601 0.54765 0.0
C208 C 0.6518 0.53588 0.53862 0.0
C209 C 0.69791 0.5759 0.54303 0.0
C210 C 0.70262 0.50981 0.54627 0.0
N211 N 0.65488 0.4944 0.54067 0.0
O212 O 0.81248 0.56877 0.52631 0.0
H213 H 0.70649 0.61413 0.54314 0.0
H214 H 0.71635 0.48463 0.54979 0.0
O215 O 0.79492 0.6516 0.53303 0.0
C216 C 0.81704 0.53447 0.53636 0.0
O217 O 0.80907 0.52872 0.55859 0.0
N218 N 0.79001 0.62799 0.58038 0.0
C219 C 0.78305 0.65247 0.62618 0.0
C220 C 0.82215 0.68563 0.61212 0.0
C221 C 0.82539 0.67246 0.58949 0.0
C222 C 0.75135 0.59563 0.59422 0.0
C223 C 0.74676 0.60748 0.61693 0.0
H224 H 0.85906 0.69678 0.58033 0.0
H225 H 0.7254 0.55846 0.58867 0.0
H226 H 0.89185 0.69239 0.52639 0.0
H227 H 0.97635 0.64634 0.56401 0.0
H228 H 0.61807 0.53689 0.53509 0.0
H229 H 0.85184 0.72004 0.61905 0.0
H230 H 0.71694 0.58025 0.62764 0.0
C231 C 0.38134 0.2464 0.57962 0.0
C232 C 0.3543 0.26716 0.57102 0.0
N233 N 0.35068 0.26022 0.54815 0.0
N234 N 0.39437 0.22627 0.56219 0.0
C235 C 0.37486 0.23523 0.5433 0.0
H236 H 0.39396 0.24929 0.59709 0.0
Co237 Co 0.44301 0.20659 0.5608 0.0
C238 C 0.355 0.11858 0.53694 0.0
O239 O 0.32042 0.12704 0.54523 0.0
N240 N 0.49134 0.18662 0.55732 0.0
C241 C 0.5262 0.13909 0.55309 0.0
C242 C 0.483 0.13948 0.55843 0.0
C243 C 0.53963 0.21391 0.55086 0.0
N244 N 0.56147 0.18598 0.54824 0.0
O245 O 0.47489 0.25464 0.53649 0.0
H246 H 0.44767 0.10735 0.56293 0.0
H247 H 0.55953 0.25377 0.54875 0.0
O248 O 0.40102 0.14865 0.54103 0.0
C249 C 0.50194 0.29201 0.54955 0.0
O250 O 0.50189 0.28364 0.57167 0.0
N251 N 0.41855 0.16868 0.58836 0.0
C252 C 0.39651 0.14126 0.63451 0.0
C253 C 0.35831 0.12995 0.61884 0.0
C254 C 0.37017 0.14433 0.59582 0.0
C255 C 0.4558 0.17928 0.60369 0.0
C256 C 0.44557 0.16489 0.6266 0.0
H257 H 0.34063 0.13956 0.58474 0.0
H258 H 0.49433 0.20235 0.59874 0.0
H259 H 0.38143 0.22685 0.52601 0.0
H260 H 0.34093 0.28824 0.58056 0.0
H261 H 0.53171 0.10726 0.55329 0.0
H262 H 0.32 0.11299 0.62463 0.0
H263 H 0.47602 0.17553 0.63843 0.0
C264 C 0.80079 0.15021 0.57464 0.0
C265 C 0.78094 0.10394 0.56486 0.0
N266 N 0.79603 0.10881 0.54281 0.0
N267 N 0.82778 0.1855 0.55887 0.0
C268 C 0.82492 0.15883 0.53975 0.0
H269 H 0.79149 0.15708 0.59161 0.0
Co270 Co 0.84601 0.2547 0.56081 0.0
C271 C 0.93639 0.2606 0.53978 0.0
O272 O 0.93033 0.22399 0.55319 0.0
N273 N 0.86258 0.32252 0.56165 0.0
C274 C 0.8693 0.39463 0.57242 0.0
C275 C 0.86874 0.35218 0.57983 0.0
C276 C 0.86144 0.34895 0.54333 0.0
N277 N 0.86376 0.39213 0.5495 0.0
O278 O 0.79938 0.2443 0.53654 0.0
H279 H 0.86926 0.34253 0.59755 0.0
H280 H 0.85546 0.33523 0.52588 0.0
O281 O 0.90389 0.27466 0.54006 0.0
C282 C 0.75834 0.22627 0.54791 0.0
O283 O 0.75771 0.2119 0.56906 0.0
N284 N 0.8832 0.26359 0.58795 0.0
C285 C 0.9127 0.26706 0.63342 0.0
C286 C 0.94817 0.28462 0.61559 0.0
C287 C 0.93273 0.28392 0.59286 0.0
C288 C 0.84948 0.24959 0.60549 0.0
C289 C 0.8632 0.25084 0.62815 0.0
H290 H 0.96078 0.30003 0.57967 0.0
H291 H 0.81115 0.23778 0.60197 0.0
H292 H 0.84116 0.17606 0.52345 0.0
H293 H 0.7549 0.06923 0.5731 0.0
H294 H 0.8708 0.42386 0.58319 0.0
H295 H 0.98713 0.29858 0.6192 0.0
H296 H 0.83495 0.23812 0.64151 0.0
C297 C 1.02582 0.57544 0.1225 0.0
C298 C 0.04912 0.62154 0.13243 0.0
N299 N 0.06447 0.61791 0.15347 0.0
N300 N 1.02363 0.5409 0.13733 0.0
C301 C 0.0491 0.56873 0.15585 0.0
H302 H 1.01006 0.56828 0.10556 0.0
Co303 Co 0.98211 0.46877 0.13535 0.0
C304 C 0.0362 0.45771 0.16415 0.0
O305 O 0.05788 0.46722 0.14388 0.0
N306 N 0.94052 0.3988 0.13468 0.0
C307 C 0.91563 0.31794 0.13511 0.0
C308 C 0.95526 0.36506 0.13118 0.0
C309 C 0.89155 0.37109 0.14038 0.0
N310 N 0.87526 0.32174 0.14058 0.0
O311 O 0.92319 0.47652 0.14362 0.0
H312 H 0.99285 0.37421 0.1268 0.0
H313 H 0.86805 0.38645 0.14475 0.0
O314 O 0.99714 0.46183 0.16661 0.0
C315 C 0.90397 0.49879 0.13271 0.0
O316 O 0.92305 0.52093 0.11316 0.0
N317 N 0.97389 0.47097 0.1033 0.0
C318 C 0.97439 0.46711 0.05547 0.0
C319 C 1.01902 0.49136 0.06756 0.0
C320 C 1.01793 0.49163 0.09147 0.0
C321 C 0.93012 0.44443 0.09173 0.0
C322 C 0.92944 0.44282 0.06772 0.0
H323 H 0.05268 0.50841 0.1007 0.0
H324 H 0.8957 0.42363 0.10098 0.0
H325 H 0.05474 0.5532 0.1713 0.0
H326 H 0.05356 0.65531 0.1248 0.0
H327 H 0.91619 0.2834 0.13374 0.0
H328 H 0.05446 0.50894 0.05858 0.0
H329 H 0.89439 0.42213 0.05882 0.0
C330 C 0.49549 0.44904 0.12179 0.0
C331 C 0.4494 0.4275 0.13218 0.0
N332 N 0.4541 0.44588 0.15362 0.0
N333 N 0.53024 0.47988 0.13671 0.0
C334 C 0.5038 0.47751 0.15585 0.0
H335 H 0.50357 0.44002 0.10494 0.0
Co336 Co 0.60002 0.50507 0.13309 0.0
C337 C 0.60174 0.59378 0.15822 0.0
O338 O 0.55638 0.58332 0.15321 0.0
N339 N 0.67058 0.53124 0.13091 0.0
C340 C 0.75189 0.58084 0.12388 0.0
C341 C 0.70503 0.575 0.12146 0.0
C342 C 0.6983 0.51295 0.1401 0.0
N343 N 0.74729 0.54158 0.13562 0.0
O344 O 0.59723 0.46141 0.15746 0.0
H345 H 0.69672 0.6009 0.11295 0.0
H346 H 0.68336 0.47863 0.1496 0.0
O347 O 0.61806 0.56461 0.15231 0.0
C348 C 0.58293 0.42107 0.14581 0.0
O349 O 0.56837 0.41969 0.12461 0.0
N350 N 0.60062 0.53743 0.1056 0.0
C351 C 0.59612 0.56272 0.06017 0.0
C352 C 0.57724 0.5793 0.07793 0.0
C353 C 0.57922 0.56558 0.10062 0.0
C354 C 0.61749 0.51993 0.08819 0.0
C355 C 0.61667 0.53301 0.06548 0.0
H356 H 0.5614 0.57565 0.11368 0.0
H357 H 0.63071 0.49436 0.09189 0.0
H358 H 0.52107 0.49719 0.17149 0.0
H359 H 0.41505 0.39907 0.12467 0.0
H360 H 0.78634 0.61046 0.11682 0.0
H361 H 0.5594 0.60088 0.07416 0.0
H362 H 0.63002 0.51824 0.05205 0.0
C363 C 0.61246 0.04137 0.11871 0.0
C364 C 0.62868 1.01166 0.12863 0.0
N365 N 0.62449 1.01367 0.15154 0.0
N366 N 0.59806 0.06209 0.13533 0.0
C367 C 0.60574 0.04427 0.15518 0.0
H368 H 0.61368 0.0494 0.10061 0.0
Co369 Co 0.58127 0.11256 0.13255 0.0
C370 C 0.47868 0.06636 0.15048 0.0
O371 O 0.46906 0.08173 0.13128 0.0
N372 N 0.56434 0.16492 0.13122 0.0
C373 C 0.53813 0.21784 0.12183 0.0
C374 C 0.53989 0.17622 0.11527 0.0
C375 C 0.5758 0.20041 0.14759 0.0
N376 N 0.56078 0.23313 0.14214 0.0
O377 O 0.6321 0.15037 0.15547 0.0
H378 H 0.52357 0.15588 0.09973 0.0
H379 H 0.59666 0.20386 0.16288 0.0
O380 O 0.52356 0.07603 0.15447 0.0
C381 C 0.66819 0.17916 0.14199 0.0
O382 O 0.65807 0.17953 0.12019 0.0
N383 N 0.54252 0.0798 0.10644 0.0
C384 C 0.50832 0.03965 0.063 0.0
C385 C 0.4872 1.01062 0.08274 0.0
C386 C 0.50566 0.0312 0.10443 0.0
C387 C 0.56474 0.10699 0.08716 0.0
C388 C 0.54743 0.08826 0.06541 0.0
H389 H 0.49169 1.0077 0.11942 0.0
H390 H 0.59646 0.1439 0.08862 0.0
H391 H 0.60031 0.05567 0.17202 0.0
H392 H 0.64449 0.99193 0.11979 0.0
H393 H 0.52354 0.23706 0.11186 0.0
H394 H 0.45821 0.9721 0.08131 0.0
H395 H 0.56563 0.11107 0.05049 0.0
C396 C 0.55953 0.96292 0.90562 0.0
C397 C 0.6065 0.9912 0.89664 0.0
N398 N 0.60426 1.01543 0.87787 0.0
N399 N 0.52701 0.96852 0.89265 0.0
C400 C 0.55534 1.00198 0.87632 0.0
H401 H 0.54906 0.93586 0.91924 0.0
Co402 Co 0.45925 0.92128 0.89372 0.0
C403 C 0.40627 0.97455 0.88124 0.0
O404 O 0.38113 0.95705 0.90043 0.0
N405 N 0.38955 0.87111 0.89427 0.0
C406 C 0.31203 0.81407 0.90455 0.0
C407 C 0.35486 0.85594 0.91129 0.0
C408 C 0.36517 0.83859 0.87701 0.0
N409 N 0.31894 0.80295 0.88309 0.0
O410 O 0.46993 0.89083 0.86655 0.0
H411 H 0.3597 0.87313 0.92788 0.0
H412 H 0.38142 0.83915 0.86051 0.0
O413 O 0.44107 0.96498 0.87591 0.0
C414 C 0.47464 0.85502 0.87471 0.0
O415 O 0.46646 0.84548 0.89675 0.0
N416 N 0.455 0.94719 0.9224 0.0
C417 C 0.46634 0.9779 0.96807 0.0
C418 C 0.47337 1.01129 0.95032 0.0
C419 C 0.46856 0.99541 0.92743 0.0
C420 C 0.45048 0.9154 0.93958 0.0
C421 C 0.45457 0.92946 0.9625 0.0
H422 H 0.47779 1.02226 0.91385 0.0
H423 H 0.4443 0.87878 0.93538 0.0
H424 H 0.53977 1.01302 0.86252 0.0
H425 H 0.63916 0.99017 0.90229 0.0
H426 H 0.27921 0.79203 0.91499 0.0
H427 H 0.48457 0.04966 0.95411 0.0
H428 H 0.45066 0.90334 0.97576 0.0
C429 C 0.08061 0.61183 0.8946 0.0
C430 C 0.05636 0.63354 0.88458 0.0
N431 N 1.02541 0.60259 0.86843 0.0
N432 N 0.06648 0.56766 0.88458 0.0
C433 C 1.03201 0.56242 0.86895 0.0
H434 H 0.10952 0.62882 0.90732 0.0
Co435 Co 0.10481 0.53733 0.88938 0.0
C436 C 0.04542 0.4328 0.87611 0.0
O437 O 0.05611 0.42297 0.89647 0.0
N438 N 0.14713 0.50857 0.89402 0.0
C439 C 0.19547 0.48194 0.90944 0.0
C440 C 0.1541 0.4868 0.91266 0.0
C441 C 0.18372 0.51364 0.87933 0.0
N442 N 0.21467 0.49975 0.88859 0.0
O443 O 0.14521 0.57467 0.86348 0.0
H444 H 0.13235 0.47677 0.92825 0.0
H445 H 0.19034 0.53077 0.86268 0.0
O446 O 0.06064 0.47823 0.87035 0.0
C447 C 0.18136 0.61302 0.87271 0.0
O448 O 0.18437 0.61498 0.89519 0.0
N449 N 0.06816 0.50923 0.91652 0.0
C450 C 1.02212 0.48659 0.9595 0.0
C451 C 0.99394 0.46629 0.93963 0.0
C452 C 1.01766 0.47902 0.91814 0.0
C453 C 0.09495 0.53215 0.93565 0.0
C454 C 0.07301 0.52031 0.95736 0.0
H455 H 0.99535 0.46554 0.90287 0.0
H456 H 0.13396 0.55967 0.934 0.0
H457 H 1.01449 0.53143 0.85725 0.0
H458 H 0.06262 0.67047 0.88825 0.0
H459 H 0.21291 0.47071 0.92231 0.0
H460 H 0.95408 0.44167 0.94075 0.0
H461 H 0.09541 0.53798 0.97235 0.0
C462 C 0.46293 0.47483 0.91085 0.0
C463 C 0.44268 0.42659 0.90299 0.0
N464 N 0.4463 0.42791 0.87997 0.0
N465 N 0.4801 0.50658 0.89286 0.0
C466 C 0.46856 0.47653 0.87424 0.0
H467 H 0.46346 0.48592 0.9285 0.0
Co468 Co 0.50463 0.57663 0.89217 0.0
C469 C 0.58703 0.57048 0.86477 0.0
O470 O 0.57783 0.52725 0.87277 0.0
N471 N 0.52998 0.64667 0.88922 0.0
C472 C 0.58467 0.72469 0.87924 0.0
C473 C 0.57893 0.68034 0.88699 0.0
C474 C 0.50699 0.67245 0.8832 0.0
N475 N 0.53935 0.72024 0.87736 0.0
O476 O 0.45387 0.56545 0.87021 0.0
H477 H 0.6088 0.6724 0.88953 0.0
H478 H 0.46738 0.65598 0.88132 0.0
O479 O 0.55846 0.588 0.86993 0.0
C480 C 0.41728 0.55224 0.88447 0.0
O481 O 0.42417 0.54531 0.90606 0.0
N482 N 0.5457 0.58687 0.91811 0.0
C483 C 0.5755 0.58822 0.96337 0.0
C484 C 0.58271 0.55973 0.94673 0.0
C485 C 0.56703 0.55915 0.9242 0.0
C486 C 0.53955 0.61539 0.93436 0.0
C487 C 0.55506 0.61739 0.95688 0.0
H488 H 0.56845 0.53321 0.91244 0.0
H489 H 0.5186 0.63374 0.93058 0.0
H490 H 0.47502 0.48997 0.85674 0.0
H491 H 0.42515 0.39306 0.91326 0.0
H492 H 0.61962 0.75761 0.875 0.0
H493 H 0.59709 0.53555 0.95146 0.0
H494 H 0.54753 0.63852 0.96953 0.0
C495 C 0.64164 0.89079 0.45792 0.0
C496 C 0.66712 0.93792 0.46689 0.0
N497 N 0.70072 0.94012 0.48211 0.0
N498 N 0.65754 0.86206 0.46777 0.0
C499 C 0.6946 0.89346 0.48197 0.0
H500 H 0.61041 0.87729 0.4464 0.0
Co501 Co 0.61831 0.79189 0.4672 0.0
C502 C 0.68633 0.75573 0.48163 0.0
O503 O 0.67361 0.72939 0.46274 0.0
N504 N 0.57615 0.71939 0.46756 0.0
C505 C 0.53187 0.63871 0.45816 0.0
C506 C 0.5725 0.68392 0.4527 0.0
C507 C 0.53799 0.69299 0.48255 0.0
N508 N 0.50944 0.64465 0.47672 0.0
O509 O 0.58138 0.79739 0.49307 0.0
H510 H 0.59608 0.69005 0.43794 0.0
H511 H 0.52907 0.70901 0.49695 0.0
O512 O 0.66819 0.78437 0.48616 0.0
C513 C 0.54581 0.79815 0.48218 0.0
O514 O 0.54247 0.78946 0.46 0.0
N515 N 0.64869 0.79116 0.43923 0.0
C516 C 0.68342 0.79657 0.39448 0.0
C517 C 0.71702 0.81749 0.41266 0.0
C518 C 0.69874 0.81544 0.43498 0.0
C519 C 0.61616 0.77449 0.42136 0.0
C520 C 0.63255 0.77539 0.39896 0.0
H521 H 0.72447 0.83458 0.44871 0.0
H522 H 0.57688 0.7599 0.42455 0.0
H523 H 0.71438 0.88153 0.49313 0.0
H524 H 0.65951 0.96774 0.46337 0.0
H525 H 0.51699 0.60525 0.44788 0.0
H526 H 0.75678 0.83636 0.40952 0.0
H527 H 0.60583 0.76084 0.38516 0.0
C528 C 0.16657 0.80015 0.44913 0.0
C529 C 0.11873 0.77538 0.45771 0.0
N530 N 0.11987 0.78315 0.48055 0.0
N531 N 0.19866 0.82235 0.4665 0.0
C532 C 0.169 0.81198 0.48531 0.0
H533 H 0.17751 0.79763 0.43173 0.0
Co534 Co 0.26758 0.8418 0.46551 0.0
C535 C 0.26815 0.92645 0.49296 0.0
O536 O 0.2229 0.91528 0.48726 0.0
N537 N 0.33706 0.86108 0.46555 0.0
C538 C 0.42005 0.90331 0.4616 0.0
C539 C 0.3762 0.90271 0.45676 0.0
C540 C 0.35887 0.83808 0.4763 0.0
N541 N 0.40902 0.86268 0.47407 0.0
O542 O 0.25582 0.7932 0.48927 0.0
H543 H 0.3734 0.9311 0.4473 0.0
H544 H 0.33876 0.80332 0.48548 0.0
O545 O 0.2863 0.89915 0.48645 0.0
C546 C 0.23708 0.7529 0.47734 0.0
O547 O 0.2242 0.75485 0.45613 0.0
N548 N 0.27658 0.88022 0.43898 0.0
C549 C 0.27741 0.91212 0.39421 0.0
C550 C 0.26422 0.93251 0.41261 0.0
C551 C 0.26375 0.91578 0.43496 0.0
C552 C 0.28946 0.8603 0.42106 0.0
C553 C 0.29095 0.87627 0.39863 0.0
H554 H 0.25081 0.92992 0.44853 0.0
H555 H 0.29695 0.83029 0.42416 0.0
H556 H 0.18361 0.82309 0.50244 0.0
H557 H 0.08577 0.75114 0.44798 0.0
H558 H 0.4571 0.93108 0.45614 0.0
H559 H 0.25245 0.95954 0.40959 0.0
H560 H 0.30023 0.85901 0.38471 0.0
C561 C 0.25043 0.36851 0.45387 0.0
C562 C 0.2707 0.34059 0.46182 0.0
N563 N 0.27397 0.34514 0.48477 0.0
N564 N 0.24025 0.38984 0.47181 0.0
C565 C 0.25641 0.37577 0.49032 0.0
H566 H 0.24491 0.37403 0.43609 0.0
Co567 Co 0.21759 0.43673 0.47236 0.0
C568 C 0.13798 0.35159 0.50306 0.0
O569 O 0.15901 0.32402 0.50426 0.0
N570 N 0.19442 0.48316 0.47457 0.0
C571 C 0.14672 0.51831 0.4732 0.0
C572 C 0.14926 0.47602 0.4685 0.0
C573 C 0.2172 0.52909 0.48418 0.0
N574 N 0.18968 0.55164 0.48301 0.0
O575 O 0.26804 0.47492 0.49504 0.0
H576 H 0.12026 0.44262 0.46059 0.0
H577 H 0.25408 0.54701 0.49137 0.0
O578 O 0.16021 0.39386 0.49282 0.0
C579 C 0.30492 0.49797 0.48084 0.0
O580 O 0.29751 0.48525 0.45907 0.0
N581 N 0.17835 0.4075 0.44632 0.0
C582 C 0.14724 0.37391 0.40187 0.0
C583 C 0.13003 0.34048 0.42037 0.0
C584 C 0.14606 0.35824 0.44264 0.0
C585 C 0.19389 0.44039 0.4285 0.0
C586 C 0.17818 0.42451 0.4062 0.0
H587 H 0.13648 0.33222 0.45643 0.0
H588 H 0.22098 0.47906 0.43142 0.0
H589 H 0.25552 0.38794 0.50766 0.0
H590 H 0.2829 0.31938 0.4516 0.0
H591 H 0.11698 0.52522 0.46849 0.0
H592 H 0.10692 0.30091 0.41743 0.0
H593 H 0.19272 0.45109 0.39224 0.0
C594 C 0.36516 0.41865 0.16294 0.0
C595 C 0.41381 0.43194 0.17038 0.0
C596 C 0.38119 0.42001 0.20977 0.0
C597 C 0.33118 0.39438 0.20189 0.0
N598 N 0.27978 0.35595 0.16822 0.0
N599 N 0.4618 0.42908 0.20248 0.0
C600 C 0.32389 0.39005 0.17766 0.0
C601 C 0.42049 0.42854 0.19432 0.0
N602 N 0.35789 0.43385 0.14215 0.0
N603 N 0.39167 0.43705 0.23173 0.0
H604 H 0.48755 0.42667 0.19179 0.0
H605 H 0.466 0.42402 0.21983 0.0
H606 H 0.36449 0.43577 0.24284 0.0
H607 H 0.42813 0.45802 0.2376 0.0
H608 H 0.32276 0.42638 0.13682 0.0
H609 H 0.38741 0.45924 0.13194 0.0
H610 H 0.27517 0.35127 0.1505 0.0
H611 H 0.25122 0.32737 0.17758 0.0
C612 C 0.63132 0.92339 0.19291 0.0
C613 C 0.6824 0.95015 0.19887 0.0
C614 C 0.69358 1.02093 0.17543 0.0
C615 C 0.64327 0.99311 0.16842 0.0
N616 N 0.56438 0.91789 0.16908 0.0
N617 N 0.76354 1.02206 0.1946 0.0
C618 C 0.61209 0.94429 0.17688 0.0
C619 C 0.71391 0.99838 0.18978 0.0
N620 N 0.60149 0.878 0.20274 0.0
N621 N 0.72145 0.06934 0.1686 0.0
H622 H 0.77898 1.0069 0.20549 0.0
H623 H 0.78996 0.05507 0.18691 0.0
H624 H 0.70743 0.08633 0.15796 0.0
H625 H 0.75701 0.09373 0.17455 0.0
H626 H 0.56308 0.85757 0.20085 0.0
H627 H 0.61531 0.86139 0.21378 0.0
H628 H 0.54012 0.88066 0.17282 0.0
H629 H 0.54949 0.9332 0.15788 0.0
C630 C 0.12339 0.70743 0.16136 0.0
C631 C 0.08972 0.65896 0.16967 0.0
C632 C 0.10686 0.6948 0.20838 0.0
C633 C 0.12922 0.74394 0.19934 0.0
N634 N 0.14156 0.79191 0.16444 0.0
N635 N 0.03959 0.61134 0.20231 0.0
C636 C 0.13326 0.74927 0.17501 0.0
C637 C 0.07877 0.65356 0.19361 0.0
N638 N 0.14633 0.71391 0.14059 0.0
N639 N 0.113 0.68705 0.23081 0.0
H640 H 1.01331 0.58318 0.19202 0.0
H641 H 1.0294 0.60798 0.2196 0.0
H642 H 0.13708 0.71591 0.24155 0.0
H643 H 0.09928 0.65145 0.2376 0.0
H644 H 0.17293 0.74898 0.1346 0.0
H645 H 0.14344 0.68407 0.13105 0.0
H646 H 0.14211 0.79506 0.14661 0.0
H647 H 0.13965 0.82043 0.17297 0.0
C648 C 0.37757 0.36485 0.85634 0.0
C649 C 0.42683 0.38565 0.86465 0.0
C650 C 0.43669 0.32138 0.8443 0.0
C651 C 0.38839 0.3021 0.83508 0.0
N652 N 0.31367 0.3063 0.8305 0.0
N653 N 0.50495 0.38734 0.86579 0.0
C654 C 0.35897 0.32408 0.84067 0.0
C655 C 0.45684 0.36476 0.85843 0.0
N656 N 0.34856 0.38383 0.8639 0.0
N657 N 0.46275 0.29749 0.83962 0.0
H658 H 0.51991 0.41852 0.87645 0.0
H659 H 0.5308 0.37715 0.86059 0.0
H660 H 0.44879 0.26625 0.82902 0.0
H661 H 0.49665 0.30657 0.84701 0.0
H662 H 0.31094 0.36841 0.86025 0.0
H663 H 0.36186 0.41422 0.87499 0.0
H664 H 0.29165 0.3228 0.832 0.0
H665 H 0.2988 0.27565 0.81953 0.0
C666 C 0.67993 0.06833 0.82278 0.0
C667 C 0.72873 0.08285 0.83059 0.0
C668 C 0.6948 0.06869 0.86969 0.0
C669 C 0.64518 0.04217 0.86155 0.0
N670 N 0.59436 1.00496 0.82766 0.0
N671 N 0.7753 0.07795 0.86279 0.0
C672 C 0.63836 0.03872 0.8373 0.0
C673 C 0.73453 0.07824 0.8545 0.0
N674 N 0.67278 0.08374 0.80202 0.0
N675 N 0.7044 0.08492 0.8918 0.0
H676 H 0.80068 0.0751 0.85205 0.0
H677 H 0.77895 0.07217 0.88012 0.0
H678 H 0.67654 0.08229 0.90287 0.0
H679 H 0.74064 0.10628 0.89789 0.0
H680 H 0.63755 0.07552 0.79648 0.0
H681 H 0.70219 0.11011 0.7921 0.0
H682 H 0.59002 1.00058 0.80993 0.0
H683 H 0.56537 0.97661 0.83692 0.0
C684 C 0.99188 0.60413 0.82929 0.0
C685 C 0.99542 0.61415 0.85326 0.0
C686 C 0.96033 0.66825 0.84667 0.0
C687 C 0.94952 0.65234 0.82349 0.0
N688 N 0.94041 0.58964 0.79604 0.0
N689 N 0.96383 0.64115 0.88492 0.0
C690 C 0.96059 0.61528 0.81578 0.0
C691 C 0.97305 0.64118 0.86202 0.0
N692 N 1.02059 0.58774 0.81887 0.0
N693 N 0.96332 0.71151 0.85378 0.0
H694 H 0.96912 0.61856 0.89645 0.0
H695 H 0.94528 0.65873 0.89168 0.0
H696 H 0.96324 0.73698 0.84227 0.0
H697 H 0.97386 0.72524 0.87039 0.0
H698 H 1.02079 0.58329 0.80113 0.0
H699 H 0.04884 0.5854 0.82725 0.0
H700 H 0.94554 0.56035 0.79067 0.0
H701 H 0.91359 0.59323 0.78691 0.0
C702 C 0.6897 0.64307 0.82014 0.0
C703 C 0.73278 0.65465 0.83322 0.0
C704 C 0.68045 0.62286 0.86763 0.0
C705 C 0.63684 0.60366 0.85398 0.0
N706 N 0.59956 0.59409 0.81695 0.0
N707 N 0.76916 0.65301 0.86927 0.0
C708 C 0.64135 0.61386 0.83015 0.0
C709 C 0.72811 0.64388 0.85694 0.0
N710 N 0.69505 0.6604 0.79823 0.0
N711 N 0.67649 0.62326 0.89092 0.0
H712 H 0.80507 0.67091 0.86232 0.0
H713 H 0.76725 0.64021 0.88594 0.0
H714 H 0.64263 0.61173 0.89907 0.0
H715 H 0.70689 0.64064 0.90184 0.0
H716 H 0.66572 0.65732 0.78843 0.0
H717 H 0.72974 0.6822 0.79061 0.0
H718 H 0.60035 0.59509 0.7991 0.0
H719 H 0.56375 0.57378 0.82386 0.0
C720 C 0.42185 0.05109 0.85848 0.0
C721 C 0.3894 1.00116 0.8655 0.0
C722 C 0.31817 1.00619 0.85029 0.0
C723 C 0.35094 0.05346 0.84086 0.0
N724 N 0.43431 0.12042 0.83438 0.0
N725 N 0.30793 0.92802 0.8638 0.0
C726 C 0.40296 0.07591 0.84461 0.0
C727 C 0.33781 0.97798 0.86033 0.0
N728 N 0.47015 0.07533 0.86562 0.0
N729 N 0.26798 0.98809 0.84946 0.0
H730 H 0.32141 0.90545 0.86989 0.0
H731 H 0.2712 0.90805 0.85829 0.0
H732 H 0.25271 1.00826 0.84231 0.0
H733 H 0.24203 0.95582 0.85789 0.0
H734 H 0.49419 0.11322 0.86317 0.0
H735 H 0.4854 0.05821 0.87538 0.0
H736 H 0.47285 0.13614 0.83397 0.0
H737 H 0.42124 0.14065 0.82542 0.0
C738 C 0.97351 0.38284 0.84882 0.0
C739 C 1.01625 0.38957 0.86062 0.0
C740 C 0.99119 0.30228 0.8532 0.0
C741 C 0.95108 0.2968 0.83945 0.0
N742 N 0.91824 0.34033 0.81745 0.0
N743 N 0.07401 0.35976 0.86658 0.0
C744 C 0.94633 0.33954 0.83519 0.0
C745 C 1.0278 0.35059 0.86034 0.0
N746 N 0.95697 0.41594 0.85135 0.0
N747 N 0.99334 0.26167 0.86065 0.0
H748 H 0.10267 0.39532 0.87074 0.0
H749 H 0.08534 0.33337 0.86487 0.0
H750 H 0.96522 0.22523 0.85776 0.0
H751 H 1.02013 0.26432 0.87216 0.0
H752 H 0.92327 0.4097 0.84461 0.0
H753 H 0.97388 0.44659 0.86216 0.0
H754 H 0.91707 0.37223 0.81292 0.0
H755 H 0.90203 0.31197 0.80537 0.0
C756 C 0.67046 0.69663 0.20223 0.0
C757 C 0.68675 0.73963 0.18825 0.0
C758 C 0.65943 0.68607 0.15417 0.0
C759 C 0.63589 0.64327 0.16849 0.0
N760 N 0.61644 0.6074 0.20628 0.0
N761 N 0.69545 0.77565 0.15086 0.0
C762 C 0.64097 0.64843 0.19257 0.0
C763 C 0.68117 0.73445 0.16415 0.0
N764 N 0.68436 0.70181 0.22465 0.0
N765 N 0.66198 0.68038 0.13106 0.0
H766 H 0.71333 0.81165 0.15755 0.0
H767 H 0.68711 0.77406 0.13351 0.0
H768 H 0.64791 0.64559 0.12345 0.0
H769 H 0.68231 0.70979 0.11982 0.0
H770 H 0.67753 0.67212 0.23528 0.0
H771 H 0.70794 0.73628 0.23183 0.0
H772 H 0.61348 0.60927 0.22401 0.0
H773 H 0.59624 0.57137 0.19974 0.0
C774 C 0.35073 1.02059 0.17594 0.0
C775 C 0.34038 0.97649 0.18758 0.0
C776 C 0.4221 0.98908 0.17445 0.0
C777 C 0.43513 0.03728 0.16625 0.0
N778 N 0.41489 0.10305 0.16502 0.0
N779 N 0.36733 0.91904 0.19876 0.0
C780 C 0.40024 0.05415 0.16875 0.0
C781 C 0.37653 0.96085 0.18703 0.0
N782 N 0.31339 0.03043 0.17134 0.0
N783 N 0.45179 0.96923 0.16955 0.0
H784 H 0.33294 0.89557 0.2065 0.0
H785 H 0.39425 0.9089 0.20157 0.0
H786 H 0.48549 0.98848 0.16075 0.0
H787 H 0.44132 0.93228 0.17283 0.0
H788 H 0.31874 0.06066 0.16146 0.0
H789 H 0.27614 1.00511 0.17478 0.0
H790 H 0.39211 0.11816 0.1686 0.0
H791 H 0.45158 0.12953 0.161 0.0
C792 C 0.0514 0.3568 0.19061 0.0
C793 C 0.10018 0.38284 0.19949 0.0
C794 C 0.10545 0.46145 0.18773 0.0
C795 C 0.05433 0.43522 0.18145 0.0
N796 N 0.97574 0.35886 0.1835 0.0
N797 N 0.17279 0.46078 0.20858 0.0
C798 C 1.02633 0.38317 0.18503 0.0
C799 C 0.127 0.43555 0.19863 0.0
N800 N 1.02951 0.30689 0.18686 0.0
N801 N 0.13353 0.51106 0.183 0.0
H802 H 0.19066 0.44266 0.2153 0.0
H803 H 0.19192 0.49914 0.211 0.0
H804 H 0.11821 0.53173 0.17652 0.0
H805 H 0.17209 0.5311 0.18459 0.0
H806 H 0.99505 0.28628 0.17898 0.0
H807 H 0.04918 0.28796 0.18877 0.0
H808 H 0.95334 0.32134 0.18756 0.0
H809 H 0.95607 0.37754 0.18086 0.0
C810 C 0.08179 0.7462 0.51899 0.0
C811 C 0.0775 0.76083 0.49641 0.0
C812 C 0.98716 0.71734 0.50232 0.0
C813 C 0.9926 0.71135 0.52619 0.0
N814 N 0.0511 0.7397 0.55762 0.0
N815 N 1.02434 0.7748 0.47089 0.0
C816 C 0.04182 0.73208 0.53473 0.0
C817 C 1.02966 0.75115 0.48938 0.0
N818 N 0.12139 0.74125 0.52509 0.0
N819 N 0.94337 0.6885 0.49128 0.0
H820 H 0.05474 0.80383 0.46252 0.0
H821 H 0.9898 0.76994 0.46614 0.0
H822 H 0.91369 0.65727 0.49872 0.0
H823 H 0.93983 0.69114 0.47363 0.0
H824 H 0.12399 0.72836 0.54124 0.0
H825 H 0.14663 0.74201 0.51301 0.0
H826 H 0.08721 0.75686 0.56408 0.0
H827 H 1.02377 0.73517 0.56948 0.0
C828 C 0.261 0.27659 0.51063 0.0
C829 C 0.29353 0.32313 0.50032 0.0
C830 C 0.36444 0.3262 0.52022 0.0
C831 C 0.33146 0.28135 0.53184 0.0
N832 N 0.24868 0.21489 0.53954 0.0
N833 N 0.37451 0.39522 0.49663 0.0
C834 C 0.2797 0.25686 0.52744 0.0
C835 C 0.34486 0.34877 0.5055 0.0
N836 N 0.21249 0.25104 0.50386 0.0
N837 N 0.41454 0.34648 0.5229 0.0
H838 H 0.36113 0.41184 0.48532 0.0
H839 H 0.4112 0.41858 0.50148 0.0
H840 H 0.42975 0.33075 0.53359 0.0
H841 H 0.44111 0.37643 0.51343 0.0
H842 H 0.18718 0.21508 0.5091 0.0
H843 H 0.19822 0.26507 0.49163 0.0
H844 H 0.21009 0.19724 0.53894 0.0
H845 H 0.26195 0.19888 0.55126 0.0
C846 C 0.75161 0.03186 0.48796 0.0
C847 C 0.73144 0.98279 0.49679 0.0
C848 C 0.77063 1.02063 0.53345 0.0
C849 C 0.77895 0.068 0.52626 0.0
N850 N 0.76208 0.11235 0.49666 0.0
N851 N 0.71175 0.93298 0.53143 0.0
C852 C 0.76576 0.07229 0.50339 0.0
C853 C 0.73845 0.97754 0.5205 0.0
N854 N 0.75767 0.04017 0.46491 0.0
N855 N 0.79366 1.01654 0.55245 0.0
H856 H 0.68225 0.90208 0.52382 0.0
H857 H 0.71424 0.92918 0.54906 0.0
H858 H 0.82048 0.04765 0.56123 0.0
H859 H 0.79059 0.98284 0.55746 0.0
H860 H 0.77483 0.07592 0.45795 0.0
H861 H 0.75134 1.01204 0.45326 0.0
H862 H 0.74945 0.11471 0.48044 0.0
H863 H 0.76416 0.13901 0.50813 0.0
C864 C 0.34977 0.06547 0.50282 0.0
C865 C 0.33963 0.06913 0.52628 0.0
C866 C 0.28896 0.97787 0.52874 0.0
C867 C 0.29913 0.97414 0.50534 0.0
N868 N 0.34884 1.01293 0.47162 0.0
N869 N 0.31219 0.02846 0.563 0.0
C870 C 0.33284 1.01755 0.49289 0.0
C871 C 0.31293 0.02516 0.53967 0.0
N872 N 0.3735 0.1076 0.48976 0.0
N873 N 0.25556 0.9362 0.54045 0.0
H874 H 0.33096 0.06219 0.57158 0.0
H875 H 0.29775 0.99779 0.5739 0.0
H876 H 0.23975 0.90056 0.53344 0.0
H877 H 0.24156 0.93719 0.55663 0.0
H878 H 0.37688 0.10727 0.47199 0.0
H879 H 0.38694 0.14317 0.49653 0.0
H880 H 0.37662 0.04261 0.46241 0.0
H881 H 0.33784 0.97852 0.46415 0.0
C882 C 0.07073 0.35762 0.52558 0.0
C883 C 0.08473 0.33008 0.51075 0.0
C884 C 0.99815 0.26005 0.51188 0.0
C885 C 0.98421 0.2878 0.5265 0.0
N886 N 1.00461 0.36768 0.54262 0.0
N887 N 0.0586 0.25826 0.48606 0.0
C888 C 1.01955 0.33818 0.53172 0.0
C889 C 0.04754 0.28223 0.50284 0.0
N890 N 0.10674 0.40092 0.53514 0.0
N891 N 0.96407 0.21169 0.50692 0.0
H892 H 0.0942 0.27047 0.47971 0.0
H893 H 1.03175 0.2275 0.47717 0.0
H894 H 0.92639 0.19573 0.51108 0.0
H895 H 0.97331 0.1867 0.49953 0.0
H896 H 0.09975 0.41971 0.54818 0.0
H897 H 0.1446 0.41584 0.5317 0.0
H898 H 1.02743 0.40592 0.54455 0.0
H899 H 0.96814 0.35531 0.54784 0.0
C900 C 0.74016 0.72002 0.53237 0.0
C901 C 0.7788 0.71615 0.52086 0.0
C902 C 0.76557 0.75348 0.48663 0.0
C903 C 0.72217 0.75051 0.49684 0.0
N904 N 0.6647 0.72476 0.52885 0.0
N905 N 0.82587 0.72516 0.48644 0.0
C906 C 0.70885 0.73276 0.51969 0.0
C907 C 0.79084 0.73179 0.49781 0.0
N908 N 0.73326 0.71148 0.55545 0.0
N909 N 0.78352 0.77843 0.46641 0.0
H910 H 0.84605 0.71067 0.49429 0.0
H911 H 0.83227 0.73041 0.46884 0.0
H912 H 0.76702 0.79608 0.45812 0.0
H913 H 0.81746 0.78621 0.45916 0.0
H914 H 0.7097 0.71929 0.56524 0.0
H915 H 0.75371 0.69988 0.56519 0.0
H916 H 0.65007 0.70598 0.54425 0.0
H917 H 0.64062 0.73347 0.52033 0.0
C918 C 0.1692 0.33296 0.34332 0.0
C919 C 0.13185 0.33504 0.33026 0.0
C920 C 0.09898 0.35361 0.36511 0.0
C921 C 0.13921 0.35626 0.3777 0.0
N922 N 0.21565 0.35351 0.37874 0.0
N923 N 0.0634 0.3508 0.32774 0.0
C924 C 0.17503 0.34706 0.3668 0.0
C925 C 0.09712 0.34608 0.34091 0.0
N926 N 0.1984 0.31637 0.33337 0.0
N927 N 0.0624 0.35777 0.37642 0.0
H928 H 0.06055 0.34465 0.31007 0.0
H929 H 0.04042 0.36385 0.33391 0.0
H930 H 0.06324 0.36399 0.39405 0.0
H931 H 1.02952 0.35149 0.3688 0.0
H932 H 0.22226 0.30839 0.34254 0.0
H933 H 0.19618 0.3068 0.31608 0.0
H934 H 0.24635 0.35394 0.37111 0.0
H935 H 0.2203 0.36163 0.3962 0.0
C936 C 0.71151 0.75938 0.33625 0.0
C937 C 0.72325 0.80232 0.32312 0.0
C938 C 0.71018 0.84205 0.35695 0.0
C939 C 0.70078 0.80011 0.37034 0.0
N940 N 0.69872 0.72181 0.37405 0.0
N941 N 0.74125 0.88747 0.32127 0.0
C942 C 0.70333 0.7596 0.36035 0.0
C943 C 0.72476 0.84453 0.33358 0.0
N944 N 0.70711 0.71811 0.32552 0.0
N945 N 0.70356 0.87881 0.36641 0.0
H946 H 0.75066 0.89047 0.30391 0.0
H947 H 0.74903 0.92128 0.32854 0.0
H948 H 0.69485 0.8794 0.38369 0.0
H949 H 0.7035 0.90715 0.35693 0.0
H950 H 0.69366 0.68377 0.3335 0.0
H951 H 0.7139 0.71723 0.30801 0.0
H952 H 0.70498 0.6935 0.36841 0.0
H953 H 0.69211 0.72066 0.39168 0.0
C954 C 0.30968 0.96881 0.33427 0.0
C955 C 0.26406 0.93848 0.32284 0.0
C956 C 0.22675 0.89223 0.35841 0.0
C957 C 0.27182 0.92364 0.37006 0.0
N958 N 0.35366 0.9959 0.37049 0.0
N959 N 0.17678 0.87692 0.32433 0.0
C960 C 0.31256 0.96329 0.35839 0.0
C961 C 0.22187 0.90181 0.33503 0.0
N962 N 0.35052 1.0018 0.32189 0.0
N963 N 0.18907 0.85232 0.36958 0.0
H964 H 0.17184 0.88186 0.30706 0.0
H965 H 0.14342 0.85401 0.33285 0.0
H966 H 0.19008 0.8454 0.38701 0.0
H967 H 0.15797 0.82428 0.3614 0.0
H968 H 0.38626 1.02137 0.32857 0.0
H969 H 0.3493 1.00742 0.30433 0.0
H970 H 0.38271 0.02849 0.36363 0.0
H971 H 0.35719 0.99221 0.38805 0.0
C972 C 0.37552 0.09053 0.67078 0.0
C973 C 0.3864 0.13549 0.65963 0.0
C974 C 0.37823 0.17049 0.69619 0.0
C975 C 0.36831 0.12591 0.70744 0.0
N976 N 0.36446 0.04654 0.70678 0.0
N977 N 0.40525 0.22089 0.66168 0.0
C978 C 0.36919 0.08684 0.69509 0.0
C979 C 0.38998 0.1763 0.67237 0.0
N980 N 0.37008 0.0511 0.65798 0.0
N981 N 0.37445 0.20651 0.70818 0.0
H982 H 0.41157 0.22609 0.64405 0.0
H983 H 0.41468 0.25377 0.67037 0.0
H984 H 0.36856 0.2049 0.72588 0.0
H985 H 0.3745 0.23683 0.70057 0.0
H986 H 0.35728 1.01559 0.66453 0.0
H987 H 0.37561 0.0531 0.64025 0.0
H988 H 0.36907 1.01854 0.69933 0.0
H989 H 0.35948 0.04287 0.72453 0.0
C990 C 0.95581 0.29627 0.69579 0.0
C991 C 0.92889 0.24767 0.70524 0.0
C992 C 0.90331 0.21293 0.66672 0.0
C993 C 0.92475 0.26162 0.65753 0.0
N994 N 0.96625 0.35027 0.66364 0.0
N995 N 0.86807 0.16087 0.70017 0.0
C996 C 0.94986 0.30362 0.67213 0.0
C997 C 0.90011 0.20629 0.69082 0.0
N998 N 0.98788 0.33507 0.70924 0.0
N999 N 0.88654 0.17295 0.65233 0.0
H1000 H 0.8632 0.1547 0.71782 0.0
H1001 H 0.84258 0.13067 0.69051 0.0
H1002 H 0.88922 0.17654 0.63451 0.0
H1003 H 0.87488 0.13697 0.65805 0.0
H1004 H 1.01242 0.37032 0.7028 0.0
H1005 H 0.99263 0.33103 0.72664 0.0
H1006 H 0.97982 0.38181 0.67394 0.0
H1007 H 0.96307 0.35705 0.6464 0.0
C1008 C 0.75695 0.68827 0.68538 0.0
C1009 C 0.79259 0.68361 0.69866 0.0
C1010 C 0.8162 0.65179 0.66512 0.0
C1011 C 0.78452 0.66153 0.6513 0.0
N1012 N 0.72771 0.69278 0.64738 0.0
N1013 N 0.86126 0.66775 0.70075 0.0
C1014 C 0.75547 0.68061 0.6612 0.0
C1015 C 0.82347 0.66697 0.68844 0.0
N1016 N 0.72404 0.69915 0.696 0.0
N1017 N 0.83858 0.62702 0.65605 0.0
H1018 H 0.86776 0.67814 0.71796 0.0
H1019 H 0.88873 0.66192 0.69346 0.0
H1020 H 0.83473 0.61573 0.63895 0.0
H1021 H 0.85747 0.61383 0.66587 0.0
H1022 H 0.69398 0.69836 0.68778 0.0
H1023 H 0.72447 0.70523 0.71364 0.0
H1024 H 0.70991 0.71182 0.65309 0.0
H1025 H 0.72511 0.6867 0.62971 0.0
C1026 C 0.97227 0.50205 0.01702 0.0
C1027 C 0.97587 0.46539 0.03 0.0
C1028 C 0.99556 0.434 0.99502 0.0
C1029 C 0.99893 0.47498 0.98273 0.0
N1030 N 0.9899 0.54766 0.98113 0.0
N1031 N 0.98936 0.39543 0.03203 0.0
C1032 C 0.98636 0.50851 0.99342 0.0
C1033 C 0.98638 0.43056 0.0191 0.0
N1034 N 0.95548 0.53064 0.02736 0.0
N1035 N 1.00127 0.39857 0.98356 0.0
H1036 H 0.9803 0.39027 0.04946 0.0
H1037 H 1.00263 0.37264 0.0259 0.0
H1038 H 1.00896 0.40065 0.96602 0.0
H1039 H 0.99491 0.36536 0.99088 0.0
H1040 H 0.94744 0.55491 0.01858 0.0
H1041 H 0.94601 0.52753 0.04472 0.0
H1042 H 0.98724 0.577 0.98833 0.0
H1043 H 0.99763 0.55197 0.96357 0.0
C1044 C 0.62853 0.61236 0.02385 0.0
C1045 C 0.58972 0.5713 0.03572 0.0
C1046 C 0.54103 0.54274 1.00038 0.0
C1047 C 0.58142 0.58163 0.98813 0.0
N1048 N 0.66525 0.65062 0.98714 0.0
N1049 N 0.51154 0.49417 0.03533 0.0
C1050 C 0.62568 0.61577 0.99959 0.0
C1051 C 0.54658 0.53564 0.02399 0.0
N1052 N 0.66763 0.64838 0.0359 0.0
N1053 N 0.4968 0.51344 0.98954 0.0
H1054 H 0.51299 0.48859 0.05287 0.0
H1055 H 0.48259 0.46369 0.02717 0.0
H1056 H 0.49153 0.51621 0.97208 0.0
H1057 H 0.46412 0.48861 0.99806 0.0
H1058 H 0.69483 0.68177 0.02879 0.0
H1059 H 0.67105 0.64649 0.05361 0.0
H1060 H 0.70038 0.67354 0.99395 0.0
H1061 H 0.66396 0.65439 0.96942 0.0
C1062 C 0.52692 1.00852 0.02677 0.0
C1063 C 0.49391 1.01889 0.03947 0.0
C1064 C 0.44063 0.99957 1.00563 0.0
C1065 C 0.47643 0.99428 0.99242 0.0
N1066 N 0.55762 1.00188 0.98935 0.0
N1067 N 0.42229 0.02999 0.04074 0.0
C1068 C 0.5207 1.00098 1.00272 0.0
C1069 C 0.45139 1.01581 0.02886 0.0
N1070 N 0.56374 1.00494 0.03786 0.0
N1071 N 0.3959 0.98784 0.99615 0.0
H1072 H 0.42835 0.04081 0.05791 0.0
H1073 H 0.3942 0.03412 0.03323 0.0
H1074 H 0.3872 0.97672 0.97911 0.0
H1075 H 0.36615 0.98566 1.00554 0.0
H1076 H 0.58581 0.99248 0.02999 0.0
H1077 H 0.56919 1.00992 0.05552 0.0
H1078 H 0.59287 1.01194 0.99548 0.0
H1079 H 0.55475 0.99705 0.9716 0.0
C1080 C 0.17814 0.11027 0.19171 0.0
C1081 C 0.21626 0.11763 0.20736 0.0
C1082 C 0.23578 0.20371 0.21074 0.0
C1083 C 0.1892 0.19195 0.20176 0.0
N1084 N 0.11543 0.13249 0.18215 0.0
N1085 N 0.27546 0.17265 0.23555 0.0
C1086 C 0.16013 0.1447 0.19157 0.0
C1087 C 0.24401 0.165 0.21782 0.0
N1088 N 0.16182 0.07289 0.17607 0.0
N1089 N 0.27177 0.252 0.21267 0.0
H1090 H 0.27765 0.1438 0.24352 0.0
H1091 H 0.29403 0.20658 0.24418 0.0
H1092 H 0.2666 0.27953 0.20521 0.0
H1093 H 0.30761 0.26285 0.21835 0.0
H1094 H 0.13679 0.06838 0.16318 0.0
H1095 H 0.17853 0.051 0.17436 0.0
H1096 H 0.09051 0.09667 0.17644 0.0
H1097 H 0.10341 0.15842 0.18089 0.0
C1098 C 0.88433 0.04192 0.2302 0.0
C1099 C 0.88598 1.01044 0.21286 0.0
C1100 C 0.95985 0.08334 0.19671 0.0
C1101 C 0.96262 0.11104 0.21668 0.0
N1102 N 0.93343 0.11122 0.25504 0.0
N1103 N 0.92682 1.00157 0.17928 0.0
C1104 C 0.92637 0.08882 0.23411 0.0
C1105 C 0.92395 0.03129 0.19578 0.0
N1106 N 0.84238 0.02673 0.24316 0.0
N1107 N 0.9906 0.10705 0.17856 0.0
H1108 H 0.89983 0.9643 0.17748 0.0
H1109 H 0.95687 1.01347 0.168 0.0
H1110 H 1.01628 0.14505 0.17881 0.0
H1111 H 0.98783 0.0901 0.16276 0.0
H1112 H 0.83792 0.04996 0.25474 0.0
H1113 H 0.81025 0.99304 0.24024 0.0
H1114 H 0.90981 0.09416 0.26901 0.0
H1115 H 0.96596 0.14388 0.25924 0.0
C1116 C 0.9904 0.89999 0.19317 0.0
C1117 C 0.96072 0.8584 0.20758 0.0
C1118 C 1.02892 0.84027 0.20755 0.0
C1119 C 0.06222 0.8883 0.19937 0.0
N1120 N 0.0741 0.96293 0.18184 0.0
N1121 N 0.95694 0.79289 0.2315 0.0
C1122 C 0.04262 0.91782 0.19122 0.0
C1123 C 0.98113 0.82906 0.21539 0.0
N1124 N 0.96852 0.9207 0.18058 0.0
N1125 N 0.04335 0.80551 0.20774 0.0
H1126 H 0.92446 0.78704 0.23971 0.0
H1127 H 0.97264 0.77314 0.23865 0.0
H1128 H 0.07699 0.81324 0.20011 0.0
H1129 H 1.01957 0.76855 0.21239 0.0
H1130 H 0.98784 0.94882 0.16858 0.0
H1131 H 0.93004 0.9056 0.18019 0.0
H1132 H 0.0635 0.98907 0.1779 0.0
H1133 H 0.1112 0.9735 0.17856 0.0
C1134 C 0.10041 0.14784 0.79634 0.0
C1135 C 0.09932 0.17974 0.81336 0.0
C1136 C 0.17161 0.18242 0.83209 0.0
C1137 C 0.17112 0.1487 0.81539 0.0
N1138 N 0.12602 0.08893 0.78562 0.0
N1139 N 0.1278 0.22167 0.84939 0.0
C1140 C 0.13215 0.12774 0.79902 0.0
C1141 C 0.13299 0.19508 0.83197 0.0
N1142 N 0.07373 0.13962 0.77667 0.0
N1143 N 0.21011 0.20422 0.84717 0.0
H1144 H 0.10025 0.2317 0.84929 0.0
H1145 H 0.14821 0.23066 0.86448 0.0
H1146 H 0.23797 0.19476 0.84796 0.0
H1147 H 0.21575 0.23323 0.85806 0.0
H1148 H 0.07719 0.12091 0.76252 0.0
H1149 H 0.05197 0.1559 0.77346 0.0
H1150 H 0.09504 0.06867 0.77527 0.0
H1151 H 0.14966 0.07424 0.78643 0.0
C1152 C 0.86041 0.99688 0.83111 0.0
C1153 C 0.89444 0.02998 0.81444 0.0
C1154 C 0.88971 0.95944 0.79315 0.0
C1155 C 0.85552 0.92619 0.80937 0.0
N1156 N 0.81424 0.91181 0.84581 0.0
N1157 N 0.95553 0.0425 0.78522 0.0
C1158 C 0.8428 0.94456 0.8291 0.0
C1159 C 0.91392 1.01099 0.79749 0.0
N1160 N 0.84435 1.01516 0.84841 0.0
N1161 N 0.89689 0.94191 0.77278 0.0
H1162 H 0.97402 0.08078 0.7875 0.0
H1163 H 0.97424 0.03019 0.77446 0.0
H1164 H 0.87846 0.90424 0.76857 0.0
H1165 H 0.91744 0.96504 0.75922 0.0
H1166 H 0.81506 0.99305 0.85947 0.0
H1167 H 0.86102 0.0531 0.85172 0.0
H1168 H 0.80643 0.92241 0.86156 0.0
H1169 H 0.8006 0.87363 0.84425 0.0
C1170 C 0.08221 0.91036 0.82945 0.0
C1171 C 0.10164 0.94293 0.81035 0.0
C1172 C 1.01755 0.9106 0.79571 0.0
C1173 C 0.99888 0.87126 0.81207 0.0
N1174 N 1.01117 0.83856 0.84715 0.0
N1175 N 0.08868 0.97135 0.77414 0.0
C1176 C 1.03044 0.873 0.83002 0.0
C1177 C 0.06941 0.94292 0.79341 0.0
N1178 N 0.11372 0.91524 0.84676 0.0
N1179 N 0.98542 0.9167 0.78204 0.0
H1180 H 0.12664 0.99524 0.77159 0.0
H1181 H 0.0675 0.96828 0.7598 0.0
H1182 H 0.9472 0.89274 0.78253 0.0
H1183 H 0.99621 0.94795 0.77179 0.0
H1184 H 0.10258 0.89495 0.86194 0.0
H1185 H 0.15145 0.94202 0.84624 0.0
H1186 H 1.03236 0.83383 0.85956 0.0
H1187 H 0.97301 0.8148 0.84905 0.0
C1188 C 0.79567 0.451 0.52253 0.0
C1189 C 0.8326 0.50127 0.52509 0.0
C1190 C 0.89437 0.47622 0.53359 0.0
C1191 C 0.85543 0.42626 0.53579 0.0
N1192 N 0.77037 0.36399 0.52826 0.0
N1193 N 0.91878 0.56211 0.52422 0.0
C1194 C 0.80661 0.4128 0.52838 0.0
C1195 C 0.88283 0.51383 0.52746 0.0
N1196 N 0.75 0.44073 0.51496 0.0
N1197 N 0.94181 0.48738 0.53851 0.0
H1198 H 0.90947 0.58855 0.51898 0.0
H1199 H 0.95682 0.57513 0.52503 0.0
H1200 H 0.9506 0.45971 0.54216 0.0
H1201 H 0.97208 0.52329 0.53913 0.0
H1202 H 0.72043 0.40522 0.51187 0.0
H1203 H 0.74345 0.46939 0.5102 0.0
H1204 H 0.73291 0.3514 0.52532 0.0
H1205 H 0.77796 0.33539 0.53101 0.0
C1206 C 0.57735 0.42912 0.5582 0.0
C1207 C 0.61358 0.44415 0.54066 0.0
C1208 C 0.57085 0.35939 0.52475 0.0
C1209 C 0.53353 0.34484 0.54206 0.0
N1210 N 0.49368 0.37098 0.57033 0.0
N1211 N 0.63846 0.42816 0.50401 0.0
C1212 C 0.53427 0.38163 0.55702 0.0
C1213 C 0.60831 0.41062 0.52287 0.0
N1214 N 0.58541 0.4592 0.57675 0.0
N1215 N 0.57232 0.32453 0.51093 0.0
H1216 H 0.66523 0.46565 0.50223 0.0
H1217 H 0.63393 0.40672 0.48947 0.0
H1218 H 0.5449 0.28718 0.51115 0.0
H1219 H 0.60219 0.33235 0.50006 0.0
H1220 H 0.56257 0.44789 0.59127 0.0
H1221 H 0.61771 0.49352 0.5787 0.0
H1222 H 0.4904 0.39772 0.57985 0.0
H1223 H 0.4612 0.33661 0.56987 0.0
C1224 C 0.68221 0.20264 0.52397 0.0
C1225 C 0.7151 0.2319 0.54154 0.0
C1226 C 0.6473 0.23446 0.56206 0.0
C1227 C 0.61378 0.20402 0.54503 0.0
N1228 N 0.5996 0.1681 0.50736 0.0
N1229 N 0.73255 0.29024 0.57231 0.0
C1230 C 0.63144 0.19107 0.52509 0.0
C1231 C 0.69868 0.25326 0.55865 0.0
N1232 N 0.69915 0.18465 0.50689 0.0
N1233 N 0.62984 0.24194 0.58244 0.0
H1234 H 0.77051 0.30387 0.57035 0.0
H1235 H 0.7234 0.31058 0.58363 0.0
H1236 H 0.59208 0.22585 0.58637 0.0
H1237 H 0.65261 0.25963 0.59643 0.0
H1238 H 0.67622 0.15833 0.49494 0.0
H1239 H 0.73688 0.19627 0.50503 0.0
H1240 H 0.61055 0.16063 0.49161 0.0
H1241 H 0.56256 0.15978 0.50796 0.0
C1242 C 0.86029 0.53545 0.15505 0.0
C1243 C 0.85758 0.49788 0.14016 0.0
C1244 C 0.78309 0.49052 0.12243 0.0
C1245 C 0.78428 0.52656 0.13768 0.0
N1246 N 0.81824 0.57758 0.17108 0.0
N1247 N 0.80708 0.42847 0.11575 0.0
C1248 C 0.821 0.54703 0.15497 0.0
C1249 C 0.81564 0.4716 0.12594 0.0
N1250 N 0.9014 0.56145 0.16834 0.0
N1251 N 0.7531 0.47673 0.10366 0.0
H1252 H 0.82882 0.41249 0.11944 0.0
H1253 H 0.77523 0.40587 0.1063 0.0
H1254 H 0.73031 0.49165 0.09999 0.0
H1255 H 0.75447 0.45422 0.09069 0.0
H1256 H 0.9085 0.59293 0.17771 0.0
H1257 H 0.92945 0.55219 0.16924 0.0
H1258 H 0.84138 0.59072 0.1853 0.0
H1259 H 0.79022 0.58696 0.1709 0.0
C1260 C 0.62005 0.32193 0.14044 0.0
C1261 C 0.57851 0.28246 0.15118 0.0
C1262 C 0.55737 0.34247 0.16808 0.0
C1263 C 0.59102 0.37925 0.15254 0.0
N1264 N 0.64864 0.39867 0.12046 0.0
N1265 N 0.50855 0.25374 0.17659 0.0
C1266 C 0.62187 0.36813 0.13819 0.0
C1267 C 0.54793 0.29249 0.16585 0.0
N1268 N 0.656 0.31417 0.13094 0.0
N1269 N 0.53309 0.35488 0.18408 0.0
H1270 H 0.50258 0.21755 0.1755 0.0
H1271 H 0.48138 0.25713 0.18572 0.0
H1272 H 0.53989 0.39123 0.18578 0.0
H1273 H 0.50997 0.33057 0.19674 0.0
H1274 H 0.68936 0.34301 0.12442 0.0
H1275 H 0.65467 0.27996 0.13189 0.0
H1276 H 0.66559 0.38819 0.10782 0.0
H1277 H 0.64968 0.43187 0.11673 0.0
C1278 C 0.75459 0.20152 0.13201 0.0
C1279 C 0.72238 0.20645 0.14792 0.0
C1280 C 0.79548 0.28083 0.16323 0.0
C1281 C 0.82438 0.28149 0.14393 0.0
N1282 N 0.82538 0.24638 0.10702 0.0
N1283 N 0.71254 0.25233 0.17892 0.0
C1284 C 0.80258 0.2425 0.12766 0.0
C1285 C 0.74299 0.24627 0.16386 0.0
N1286 N 0.73849 0.15794 0.12039 0.0
N1287 N 0.81836 0.31218 0.18116 0.0
H1288 H 0.67478 0.2264 0.18047 0.0
H1289 H 0.72444 0.28394 0.18905 0.0
H1290 H 0.85679 0.3359 0.18161 0.0
H1291 H 0.80008 0.31087 0.19644 0.0
H1292 H 0.76179 0.15099 0.10992 0.0
H1293 H 0.70343 0.12717 0.12332 0.0
H1294 H 0.80861 0.22061 0.09385 0.0
H1295 H 0.85779 0.27826 0.10186 0.0
C1296 C 0.4698 0.78204 0.85379 0.0
C1297 C 0.49914 0.83071 0.86247 0.0
C1298 C 0.55727 0.80826 0.87851 0.0
C1299 C 0.52799 0.75857 0.8705 0.0
N1300 N 0.46742 0.70534 0.84255 0.0
N1301 N 0.58209 0.89401 0.87067 0.0
C1302 C 0.48748 0.74746 0.85556 0.0
C1303 C 0.54718 0.84504 0.87023 0.0
N1304 N 0.42508 0.769 0.84416 0.0
N1305 N 0.59112 0.81997 0.8956 0.0
H1306 H 0.57454 0.92019 0.86339 0.0
H1307 H 0.61892 0.90672 0.87535 0.0
H1308 H 0.5945 0.79328 0.90495 0.0
H1309 H 0.61067 0.85562 0.90259 0.0
H1310 H 0.39935 0.73268 0.83947 0.0
H1311 H 0.41381 0.79519 0.84155 0.0
H1312 H 0.43976 0.69687 0.83047 0.0
H1313 H 0.48272 0.68206 0.84194 0.0
C1314 C 0.24105 0.74602 0.86288 0.0
C1315 C 0.2878 0.75634 0.87165 0.0
C1316 C 0.26755 0.67138 0.86257 0.0
C1317 C 0.21734 0.65813 0.86004 0.0
N1318 N 0.15733 0.68259 0.85165 0.0
N1319 N 0.34508 0.72762 0.88099 0.0
C1320 C 0.2048 0.69586 0.85761 0.0
C1321 C 0.30163 0.71906 0.87124 0.0
N1322 N 0.23142 0.7841 0.86035 0.0
N1323 N 0.28167 0.6373 0.85746 0.0
H1324 H 0.37003 0.76131 0.8886 0.0
H1325 H 0.3547 0.70011 0.88297 0.0
H1326 H 0.25635 0.60268 0.85068 0.0
H1327 H 0.3186 0.64543 0.8575 0.0
H1328 H 0.19901 0.78026 0.85325 0.0
H1329 H 0.2578 0.82064 0.86439 0.0
H1330 H 0.14324 0.70681 0.85135 0.0
H1331 H 0.13192 0.64611 0.84691 0.0
C1332 C 0.33389 0.51097 0.86474 0.0
C1333 C 0.3688 0.54925 0.87924 0.0
C1334 C 0.3022 0.56377 0.89368 0.0
C1335 C 0.26654 0.51997 0.88262 0.0
N1336 N 0.24641 0.45196 0.85715 0.0
N1337 N 0.38433 0.60962 0.90946 0.0
C1338 C 0.28189 0.49404 0.86765 0.0
C1339 C 0.35263 0.57572 0.89387 0.0
N1340 N 0.35027 0.48986 0.84884 0.0
N1341 N 0.28749 0.59353 0.9045 0.0
H1342 H 0.42171 0.6203 0.91087 0.0
H1343 H 0.37268 0.62442 0.92258 0.0
H1344 H 0.25054 0.58513 0.90535 0.0
H1345 H 0.31223 0.62891 0.91066 0.0
H1346 H 0.32739 0.46405 0.83671 0.0
H1347 H 0.3878 0.50097 0.84668 0.0
H1348 H 0.25402 0.42789 0.84777 0.0
H1349 H 0.20852 0.44001 0.85884 0.0
C1350 C 0.45893 0.77672 0.48541 0.0
C1351 C 0.50824 0.80955 0.49221 0.0
C1352 C 0.48641 0.87582 0.4939 0.0
C1353 C 0.44259 0.84527 0.48109 0.0
N1354 N 0.39773 0.77063 0.45879 0.0
N1355 N 0.56903 0.89169 0.50443 0.0
C1356 C 0.43113 0.79638 0.47553 0.0
C1357 C 0.52186 0.85953 0.49734 0.0
N1358 N 0.43995 0.72677 0.48695 0.0
N1359 N 0.49375 0.91957 0.50291 0.0
H1360 H 0.59426 0.8797 0.50811 0.0
H1361 H 0.58322 0.92991 0.50587 0.0
H1362 H 0.46762 0.9312 0.50122 0.0
H1363 H 0.52322 0.94164 0.51374 0.0
H1364 H 0.40299 0.70139 0.483 0.0
H1365 H 0.45963 0.71203 0.49494 0.0
H1366 H 0.39073 0.73575 0.45318 0.0
H1367 H 0.38368 0.78777 0.44827 0.0
C1368 C 0.20153 0.62684 0.50383 0.0
C1369 C 0.20893 0.60457 0.484 0.0
C1370 C 0.25384 0.68576 0.46547 0.0
C1371 C 0.23886 0.70692 0.4834 0.0
N1372 N 0.20475 0.70007 0.52125 0.0
N1373 N 0.23888 0.61145 0.44525 0.0
C1374 C 0.21517 0.67835 0.5033 0.0
C1375 C 0.2349 0.63384 0.46478 0.0
N1376 N 0.18128 0.59829 0.52295 0.0
N1377 N 0.28602 0.71571 0.44883 0.0
H1378 H 0.22566 0.57338 0.444 0.0
H1379 H 0.25169 0.62978 0.42963 0.0
H1380 H 0.30047 0.75406 0.44863 0.0
H1381 H 0.30214 0.70354 0.43655 0.0
H1382 H 0.17723 0.61192 0.53866 0.0
H1383 H 0.17067 0.56062 0.52327 0.0
H1384 H 0.18303 0.68076 0.53537 0.0
H1385 H 0.21828 0.73825 0.52195 0.0
C1386 C 0.42198 0.61806 0.46805 0.0
C1387 C 0.45696 0.61382 0.48189 0.0
C1388 C 0.389 0.53949 0.50064 0.0
C1389 C 0.35409 0.54275 0.48611 0.0
N1390 N 0.33645 0.59192 0.45965 0.0
N1391 N 0.47485 0.57766 0.514 0.0
C1392 C 0.37043 0.58458 0.47124 0.0
C1393 C 0.4406 0.57693 0.49922 0.0
N1394 N 0.43835 0.65249 0.45078 0.0
N1395 N 0.37335 0.49917 0.51466 0.0
H1396 H 0.51256 0.60428 0.51274 0.0
H1397 H 0.46583 0.55451 0.52823 0.0
H1398 H 0.33595 0.47226 0.51648 0.0
H1399 H 0.39722 0.49134 0.52389 0.0
H1400 H 0.41564 0.65276 0.43779 0.0
H1401 H 0.47544 0.67985 0.44863 0.0
H1402 H 0.34511 0.62517 0.45154 0.0
H1403 H 0.29877 0.56599 0.45921 0.0
loop_
_geom_bond_atom_site_label_1
_geom_bond_atom_site_label_2
_geom_bond_distance
_geom_bond_site_symmetry_2
_ccdc_geom_bond_type
C0 C1 1.351 . S
C0 N3 1.368 . S
C0 H5 0.931 . S
C1 C0 1.351 . S
C1 N2 1.373 . S
C1 H29 0.930 . S
N2 C1 1.373 . S
N2 C4 1.340 . S
N3 C0 1.368 . S
N3 C4 1.321 . S
N3 Co6 2.135 . S
C4 N2 1.340 . S
C4 N3 1.321 . S
C4 H28 0.930 . S
H5 C0 0.931 . S
Co6 N3 2.135 . S
Co6 N9 2.121 . S
Co6 O14 2.055 . S
Co6 O17 2.039 . S
Co6 N20 2.140 . S
C7 O8 1.227 . S
C7 O17 1.265 . S
O8 C7 1.227 . S
N9 Co6 2.121 . S
N9 C11 1.375 1_455 S
N9 C12 1.313 . S
C10 C11 1.338 . S
C10 N13 1.377 . S
C10 H30 0.930 . S
C11 N9 1.375 1_655 S
C11 C10 1.338 . S
C11 H15 0.931 1_655 S
C12 N9 1.313 . S
C12 N13 1.344 1_455 S
C12 H16 0.930 . S
N13 C10 1.377 . S
N13 C12 1.344 1_655 S
O14 Co6 2.055 . S
O14 C18 1.253 . S
H15 C11 0.931 1_455 S
H16 C12 0.930 . S
O17 Co6 2.039 . S
O17 C7 1.265 . S
C18 O14 1.253 . S
C18 O19 1.227 . S
O19 C18 1.227 . S
N20 Co6 2.140 . S
N20 C23 1.346 . S
N20 C24 1.345 . S
C21 C22 1.387 . S
C21 C25 1.391 . S
C22 C21 1.387 . S
C22 C23 1.369 . S
C22 H31 0.929 . S
C23 N20 1.346 . S
C23 C22 1.369 . S
C23 H26 0.928 . S
C24 N20 1.345 . S
C24 C25 1.371 . S
C24 H27 0.931 . S
C25 C21 1.391 . S
C25 C24 1.371 . S
C25 H32 0.930 . S
H26 C23 0.928 . S
H27 C24 0.931 . S
H28 C4 0.930 . S
H29 C1 0.930 . S
H30 C10 0.930 . S
H31 C22 0.929 . S
H32 C25 0.930 . S
C33 C34 1.351 . S
C33 N36 1.368 . S
C33 H38 0.931 . S
C34 C33 1.351 . S
C34 N35 1.373 . S
C34 H62 0.930 . S
N35 C34 1.373 . S
N35 C37 1.340 . S
N36 C33 1.368 . S
N36 C37 1.321 . S
N36 Co39 2.135 . S
C37 N35 1.340 . S
C37 N36 1.321 . S
C37 H61 0.930 . S
H38 C33 0.931 . S
Co39 N36 2.135 . S
Co39 N42 2.121 . S
Co39 O47 2.055 . S
Co39 O50 2.039 . S
Co39 N53 2.140 . S
C40 O41 1.227 . S
C40 O50 1.265 . S
O41 C40 1.227 . S
N42 Co39 2.121 . S
N42 C44 1.375 . S
N42 C45 1.313 . S
C43 C44 1.338 . S
C43 N46 1.377 . S
C43 H63 0.930 . S
C44 N42 1.375 . S
C44 C43 1.338 . S
C44 H48 0.931 . S
C45 N42 1.313 . S
C45 N46 1.344 . S
C45 H49 0.930 . S
N46 C43 1.377 . S
N46 C45 1.344 . S
O47 Co39 2.055 . S
O47 C51 1.253 . S
H48 C44 0.931 . S
H49 C45 0.930 . S
O50 Co39 2.039 . S
O50 C40 1.265 . S
C51 O47 1.253 . S
C51 O52 1.227 . S
O52 C51 1.227 . S
N53 Co39 2.140 . S
N53 C56 1.346 . S
N53 C57 1.345 . S
C54 C55 1.387 . S
C54 C58 1.391 . S
C55 C54 1.387 . S
C55 C56 1.369 . S
C55 H64 0.929 . S
C56 N53 1.346 . S
C56 C55 1.369 . S
C56 H59 0.928 . S
C57 N53 1.345 . S
C57 C58 1.371 . S
C57 H60 0.931 . S
C58 C54 1.391 . S
C58 C57 1.371 . S
C58 H65 0.930 . S
H59 C56 0.928 . S
H60 C57 0.931 . S
H61 C37 0.930 . S
H62 C34 0.930 . S
H63 C43 0.930 . S
H64 C55 0.929 . S
H65 C58 0.930 . S
C66 C67 1.351 . S
C66 N69 1.368 . S
C66 H71 0.931 . S
C67 C66 1.351 . S
C67 N68 1.373 . S
C67 H95 0.930 . S
N68 C67 1.373 . S
N68 C70 1.340 . S
N69 C66 1.368 . S
N69 C70 1.321 . S
N69 Co72 2.135 . S
C70 N68 1.340 . S
C70 N69 1.321 . S
C70 H94 0.930 . S
H71 C66 0.931 . S
Co72 N69 2.135 . S
Co72 N75 2.121 . S
Co72 O80 2.055 . S
Co72 O83 2.039 . S
Co72 N86 2.140 . S
C73 O74 1.227 . S
C73 O83 1.265 . S
O74 C73 1.227 . S
N75 Co72 2.121 . S
N75 C77 1.372 1_565 S
N75 C78 1.313 . S
C76 C77 1.352 . S
C76 N79 1.377 . S
C76 H96 0.930 . S
C77 N75 1.372 1_545 S
C77 C76 1.352 . S
C77 H81 0.921 1_545 S
C78 N75 1.313 . S
C78 N79 1.344 1_565 S
C78 H82 0.930 . S
N79 C76 1.377 . S
N79 C78 1.344 1_545 S
O80 Co72 2.055 . S
O80 C84 1.253 . S
H81 C77 0.921 1_565 S
H82 C78 0.930 . S
O83 Co72 2.039 . S
O83 C73 1.265 . S
C84 O80 1.253 . S
C84 O85 1.227 . S
O85 C84 1.227 . S
N86 Co72 2.140 . S
N86 C89 1.346 . S
N86 C90 1.345 . S
C87 C88 1.387 . S
C87 C91 1.391 . S
C88 C87 1.387 . S
C88 C89 1.369 . S
C88 H97 0.929 . S
C89 N86 1.346 . S
C89 C88 1.369 . S
C89 H92 0.928 . S
C90 N86 1.345 . S
C90 C91 1.371 . S
C90 H93 0.931 . S
C91 C87 1.391 . S
C91 C90 1.371 . S
C91 H98 0.930 . S
H92 C89 0.928 . S
H93 C90 0.931 . S
H94 C70 0.930 . S
H95 C67 0.930 . S
H96 C76 0.930 . S
H97 C88 0.929 . S
H98 C91 0.930 . S
C99 C100 1.351 . S
C99 N102 1.368 . S
C99 H104 0.931 . S
C100 C99 1.351 . S
C100 N101 1.373 . S
C100 H128 0.930 . S
N101 C100 1.373 . S
N101 C103 1.340 . S
N102 C99 1.368 . S
N102 C103 1.321 . S
N102 Co105 2.135 . S
C103 N101 1.340 . S
C103 N102 1.321 . S
C103 H127 0.930 . S
H104 C99 0.931 . S
Co105 N102 2.135 . S
Co105 N108 2.121 . S
Co105 O113 2.055 . S
Co105 O116 2.039 . S
Co105 N119 2.140 . S
C106 O107 1.227 . S
C106 O116 1.265 . S
O107 C106 1.227 . S
N108 Co105 2.121 . S
N108 C110 1.375 1_545 S
N108 C111 1.313 . S
C109 C110 1.338 . S
C109 N112 1.377 . S
C109 H129 0.930 . S
C110 N108 1.375 1_565 S
C110 C109 1.338 . S
C110 H114 0.931 1_565 S
C111 N108 1.313 . S
C111 N112 1.344 1_545 S
C111 H115 0.930 . S
N112 C109 1.377 . S
N112 C111 1.344 1_565 S
O113 Co105 2.055 . S
O113 C117 1.253 . S
H114 C110 0.931 1_545 S
H115 C111 0.930 . S
O116 Co105 2.039 . S
O116 C106 1.265 . S
C117 O113 1.253 . S
C117 O118 1.227 . S
O118 C117 1.227 . S
N119 Co105 2.140 . S
N119 C122 1.346 . S
N119 C123 1.345 . S
C120 C121 1.387 . S
C120 C124 1.391 . S
C121 C120 1.387 . S
C121 C122 1.369 . S
C121 H130 0.929 . S
C122 N119 1.346 . S
C122 C121 1.369 . S
C122 H125 0.928 . S
C123 N119 1.345 . S
C123 C124 1.371 . S
C123 H126 0.931 . S
C124 C120 1.391 . S
C124 C123 1.371 . S
C124 H131 0.930 . S
H125 C122 0.928 . S
H126 C123 0.931 . S
H127 C103 0.930 . S
H128 C100 0.930 . S
H129 C109 0.930 . S
H130 C121 0.929 . S
H131 C124 0.930 . S
C132 C133 1.351 . S
C132 N135 1.368 . S
C132 H137 0.931 . S
C133 C132 1.351 . S
C133 N134 1.373 . S
C133 H161 0.930 . S
N134 C133 1.373 . S
N134 C136 1.340 . S
N135 C132 1.368 . S
N135 C136 1.321 . S
N135 Co138 2.135 . S
C136 N134 1.340 . S
C136 N135 1.321 . S
C136 H160 0.930 . S
H137 C132 0.931 . S
Co138 N135 2.135 . S
Co138 N141 2.121 . S
Co138 O146 2.055 . S
Co138 O149 2.039 . S
Co138 N152 2.140 . S
C139 O140 1.227 . S
C139 O149 1.265 . S
O140 C139 1.227 . S
N141 Co138 2.121 . S
N141 C143 1.372 1_655 S
N141 C144 1.313 . S
C142 C143 1.352 . S
C142 N145 1.377 . S
C142 H162 0.930 . S
C143 N141 1.372 1_455 S
C143 C142 1.352 . S
C143 H147 0.921 1_455 S
C144 N141 1.313 . S
C144 N145 1.344 1_655 S
C144 H148 0.930 . S
N145 C142 1.377 . S
N145 C144 1.344 1_455 S
O146 Co138 2.055 . S
O146 C150 1.253 . S
H147 C143 0.921 1_655 S
H148 C144 0.930 . S
O149 Co138 2.039 . S
O149 C139 1.265 . S
C150 O146 1.253 . S
C150 O151 1.227 . S
O151 C150 1.227 . S
N152 Co138 2.140 . S
N152 C155 1.346 . S
N152 C156 1.345 . S
C153 C154 1.387 . S
C153 C157 1.391 . S
C154 C153 1.387 . S
C154 C155 1.369 . S
C154 H163 0.929 . S
C155 N152 1.346 . S
C155 C154 1.369 . S
C155 H158 0.928 . S
C156 N152 1.345 . S
C156 C157 1.371 . S
C156 H159 0.931 . S
C157 C153 1.391 . S
C157 C156 1.371 . S
C157 H164 0.930 . S
H158 C155 0.928 . S
H159 C156 0.931 . S
H160 C136 0.930 . S
H161 C133 0.930 . S
H162 C142 0.930 . S
H163 C154 0.929 . S
H164 C157 0.930 . S
C165 C166 1.351 . S
C165 N168 1.368 . S
C165 H170 0.931 . S
C166 C165 1.351 . S
C166 N167 1.373 . S
C166 H194 0.930 . S
N167 C166 1.373 . S
N167 C169 1.340 . S
N168 C165 1.368 . S
N168 C169 1.321 . S
N168 Co171 2.135 . S
C169 N167 1.340 . S
C169 N168 1.321 . S
C169 H193 0.930 . S
H170 C165 0.931 . S
Co171 N168 2.135 . S
Co171 N174 2.121 . S
Co171 O179 2.055 . S
Co171 O182 2.039 . S
Co171 N185 2.140 . S
C172 O173 1.227 . S
C172 O182 1.265 . S
O173 C172 1.227 . S
N174 Co171 2.121 . S
N174 C176 1.375 . S
N174 C177 1.313 . S
C175 C176 1.338 . S
C175 N178 1.377 . S
C175 H195 0.930 . S
C176 N174 1.375 . S
C176 C175 1.338 . S
C176 H180 0.931 . S
C177 N174 1.313 . S
C177 N178 1.344 . S
C177 H181 0.930 . S
N178 C175 1.377 . S
N178 C177 1.344 . S
O179 Co171 2.055 . S
O179 C183 1.253 . S
H180 C176 0.931 . S
H181 C177 0.930 . S
O182 Co171 2.039 . S
O182 C172 1.265 . S
C183 O179 1.253 . S
C183 O184 1.227 . S
O184 C183 1.227 . S
N185 Co171 2.140 . S
N185 C188 1.346 . S
N185 C189 1.345 . S
C186 C187 1.387 . S
C186 C190 1.391 . S
C187 C186 1.387 . S
C187 C188 1.369 . S
C187 H196 0.929 . S
C188 N185 1.346 . S
C188 C187 1.369 . S
C188 H191 0.928 . S
C189 N185 1.345 . S
C189 C190 1.371 . S
C189 H192 0.931 . S
C190 C186 1.391 . S
C190 C189 1.371 . S
C190 H197 0.930 . S
H191 C188 0.928 . S
H192 C189 0.931 . S
H193 C169 0.930 . S
H194 C166 0.930 . S
H195 C175 0.930 . S
H196 C187 0.929 . S
H197 C190 0.930 . S
C198 C199 1.351 . S
C198 N201 1.368 . S
C198 H203 0.931 . S
C199 C198 1.351 . S
C199 N200 1.373 . S
C199 H227 0.930 . S
N200 C199 1.373 . S
N200 C202 1.340 . S
N201 C198 1.368 . S
N201 C202 1.321 . S
N201 Co204 2.135 . S
C202 N200 1.340 . S
C202 N201 1.321 . S
C202 H226 0.930 . S
H203 C198 0.931 . S
Co204 N201 2.135 . S
Co204 N207 2.121 . S
Co204 O212 2.055 . S
Co204 O215 2.039 . S
Co204 N218 2.140 . S
C205 O206 1.227 . S
C205 O215 1.265 . S
O206 C205 1.227 . S
N207 Co204 2.121 . S
N207 C209 1.375 . S
N207 C210 1.313 . S
C208 C209 1.338 . S
C208 N211 1.377 . S
C208 H228 0.930 . S
C209 N207 1.375 . S
C209 C208 1.338 . S
C209 H213 0.931 . S
C210 N207 1.313 . S
C210 N211 1.344 . S
C210 H214 0.930 . S
N211 C208 1.377 . S
N211 C210 1.344 . S
O212 Co204 2.055 . S
O212 C216 1.253 . S
H213 C209 0.931 . S
H214 C210 0.930 . S
O215 Co204 2.039 . S
O215 C205 1.265 . S
C216 O212 1.253 . S
C216 O217 1.227 . S
O217 C216 1.227 . S
N218 Co204 2.140 . S
N218 C221 1.346 . S
N218 C222 1.345 . S
C219 C220 1.387 . S
C219 C223 1.391 . S
C220 C219 1.387 . S
C220 C221 1.369 . S
C220 H229 0.929 . S
C221 N218 1.346 . S
C221 C220 1.369 . S
C221 H224 0.928 . S
C222 N218 1.345 . S
C222 C223 1.371 . S
C222 H225 0.931 . S
C223 C219 1.391 . S
C223 C222 1.371 . S
C223 H230 0.930 . S
H224 C221 0.928 . S
H225 C222 0.931 . S
H226 C202 0.930 . S
H227 C199 0.930 . S
H228 C208 0.930 . S
H229 C220 0.929 . S
H230 C223 0.930 . S
C231 C232 1.351 . S
C231 N234 1.368 . S
C231 H236 0.931 . S
C232 C231 1.351 . S
C232 N233 1.373 . S
C232 H260 0.930 . S
N233 C232 1.373 . S
N233 C235 1.340 . S
N234 C231 1.368 . S
N234 C235 1.321 . S
N234 Co237 2.135 . S
C235 N233 1.340 . S
C235 N234 1.321 . S
C235 H259 0.930 . S
H236 C231 0.931 . S
Co237 N234 2.135 . S
Co237 N240 2.121 . S
Co237 O245 2.055 . S
Co237 O248 2.039 . S
Co237 N251 2.140 . S
C238 O239 1.227 . S
C238 O248 1.265 . S
O239 C238 1.227 . S
N240 Co237 2.121 . S
N240 C242 1.375 . S
N240 C243 1.313 . S
C241 C242 1.338 . S
C241 N244 1.377 . S
C241 H261 0.930 . S
C242 N240 1.375 . S
C242 C241 1.338 . S
C242 H246 0.931 . S
C243 N240 1.313 . S
C243 N244 1.344 . S
C243 H247 0.930 . S
N244 C241 1.377 . S
N244 C243 1.344 . S
O245 Co237 2.055 . S
O245 C249 1.253 . S
H246 C242 0.931 . S
H247 C243 0.930 . S
O248 Co237 2.039 . S
O248 C238 1.265 . S
C249 O245 1.253 . S
C249 O250 1.227 . S
O250 C249 1.227 . S
N251 Co237 2.140 . S
N251 C254 1.346 . S
N251 C255 1.345 . S
C252 C253 1.387 . S
C252 C256 1.391 . S
C253 C252 1.387 . S
C253 C254 1.369 . S
C253 H262 0.929 . S
C254 N251 1.346 . S
C254 C253 1.369 . S
C254 H257 0.928 . S
C255 N251 1.345 . S
C255 C256 1.371 . S
C255 H258 0.931 . S
C256 C252 1.391 . S
C256 C255 1.371 . S
C256 H263 0.930 . S
H257 C254 0.928 . S
H258 C255 0.931 . S
H259 C235 0.930 . S
H260 C232 0.930 . S
H261 C241 0.930 . S
H262 C253 0.929 . S
H263 C256 0.930 . S
C264 C265 1.351 . S
C264 N267 1.368 . S
C264 H269 0.931 . S
C265 C264 1.351 . S
C265 N266 1.373 . S
C265 H293 0.930 . S
N266 C265 1.373 . S
N266 C268 1.340 . S
N267 C264 1.368 . S
N267 C268 1.321 . S
N267 Co270 2.135 . S
C268 N266 1.340 . S
C268 N267 1.321 . S
C268 H292 0.930 . S
H269 C264 0.931 . S
Co270 N267 2.135 . S
Co270 N273 2.121 . S
Co270 O278 2.055 . S
Co270 O281 2.039 . S
Co270 N284 2.140 . S
C271 O272 1.227 . S
C271 O281 1.265 . S
O272 C271 1.227 . S
N273 Co270 2.121 . S
N273 C275 1.375 . S
N273 C276 1.313 . S
C274 C275 1.338 . S
C274 N277 1.377 . S
C274 H294 0.930 . S
C275 N273 1.375 . S
C275 C274 1.338 . S
C275 H279 0.931 . S
C276 N273 1.313 . S
C276 N277 1.344 . S
C276 H280 0.930 . S
N277 C274 1.377 . S
N277 C276 1.344 . S
O278 Co270 2.055 . S
O278 C282 1.253 . S
H279 C275 0.931 . S
H280 C276 0.930 . S
O281 Co270 2.039 . S
O281 C271 1.265 . S
C282 O278 1.253 . S
C282 O283 1.227 . S
O283 C282 1.227 . S
N284 Co270 2.140 . S
N284 C287 1.346 . S
N284 C288 1.345 . S
C285 C286 1.387 . S
C285 C289 1.391 . S
C286 C285 1.387 . S
C286 C287 1.369 . S
C286 H295 0.929 . S
C287 N284 1.346 . S
C287 C286 1.369 . S
C287 H290 0.928 . S
C288 N284 1.345 . S
C288 C289 1.371 . S
C288 H291 0.931 . S
C289 C285 1.391 . S
C289 C288 1.371 . S
C289 H296 0.930 . S
H290 C287 0.928 . S
H291 C288 0.931 . S
H292 C268 0.930 . S
H293 C265 0.930 . S
H294 C274 0.930 . S
H295 C286 0.929 . S
H296 C289 0.930 . S
C297 C298 1.351 . S
C297 N300 1.368 . S
C297 H302 0.931 . S
C298 C297 1.351 . S
C298 N299 1.373 1_655 S
C298 H326 0.930 . S
N299 C298 1.373 1_455 S
N299 C301 1.341 1_455 S
N300 C297 1.368 . S
N300 C301 1.327 . S
N300 Co303 2.135 . S
C301 N299 1.341 1_655 S
C301 N300 1.327 . S
C301 H325 0.924 1_655 S
H302 C297 0.931 . S
Co303 N300 2.135 . S
Co303 N306 2.121 . S
Co303 O311 2.055 . S
Co303 O314 2.039 . S
Co303 N317 2.140 . S
C304 O305 1.227 . S
C304 O314 1.265 . S
O305 C304 1.227 . S
N306 Co303 2.121 . S
N306 C308 1.375 . S
N306 C309 1.313 . S
C307 C308 1.338 . S
C307 N310 1.377 . S
C307 H327 0.930 . S
C308 N306 1.375 . S
C308 C307 1.338 . S
C308 H312 0.931 . S
C309 N306 1.313 . S
C309 N310 1.344 . S
C309 H313 0.930 . S
N310 C307 1.377 . S
N310 C309 1.344 . S
O311 Co303 2.055 . S
O311 C315 1.253 . S
H312 C308 0.931 . S
H313 C309 0.930 . S
O314 Co303 2.039 . S
O314 C304 1.265 . S
C315 O311 1.253 . S
C315 O316 1.227 . S
O316 C315 1.227 . S
N317 Co303 2.140 . S
N317 C320 1.346 . S
N317 C321 1.345 . S
C318 C319 1.387 1_655 S
C318 C322 1.391 . S
C319 C318 1.387 1_455 S
C319 C320 1.369 1_455 S
C319 H328 0.929 . S
C320 N317 1.346 . S
C320 C319 1.369 1_655 S
C320 H323 0.928 1_655 S
C321 N317 1.345 . S
C321 C322 1.371 . S
C321 H324 0.931 . S
C322 C318 1.391 . S
C322 C321 1.371 . S
C322 H329 0.930 . S
H323 C320 0.928 1_455 S
H324 C321 0.931 . S
H325 C301 0.924 1_455 S
H326 C298 0.930 . S
H327 C307 0.930 . S
H328 C319 0.929 . S
H329 C322 0.930 . S
C330 C331 1.351 . S
C330 N333 1.368 . S
C330 H335 0.931 . S
C331 C330 1.351 . S
C331 N332 1.373 . S
C331 H359 0.930 . S
N332 C331 1.373 . S
N332 C334 1.340 . S
N333 C330 1.368 . S
N333 C334 1.321 . S
N333 Co336 2.135 . S
C334 N332 1.340 . S
C334 N333 1.321 . S
C334 H358 0.930 . S
H335 C330 0.931 . S
Co336 N333 2.135 . S
Co336 N339 2.121 . S
Co336 O344 2.055 . S
Co336 O347 2.039 . S
Co336 N350 2.140 . S
C337 O338 1.227 . S
C337 O347 1.265 . S
O338 C337 1.227 . S
N339 Co336 2.121 . S
N339 C341 1.375 . S
N339 C342 1.313 . S
C340 C341 1.338 . S
C340 N343 1.377 . S
C340 H360 0.930 . S
C341 N339 1.375 . S
C341 C340 1.338 . S
C341 H345 0.931 . S
C342 N339 1.313 . S
C342 N343 1.344 . S
C342 H346 0.930 . S
N343 C340 1.377 . S
N343 C342 1.344 . S
O344 Co336 2.055 . S
O344 C348 1.253 . S
H345 C341 0.931 . S
H346 C342 0.930 . S
O347 Co336 2.039 . S
O347 C337 1.265 . S
C348 O344 1.253 . S
C348 O349 1.227 . S
O349 C348 1.227 . S
N350 Co336 2.140 . S
N350 C353 1.346 . S
N350 C354 1.345 . S
C351 C352 1.387 . S
C351 C355 1.391 . S
C352 C351 1.387 . S
C352 C353 1.369 . S
C352 H361 0.929 . S
C353 N350 1.346 . S
C353 C352 1.369 . S
C353 H356 0.928 . S
C354 N350 1.345 . S
C354 C355 1.371 . S
C354 H357 0.931 . S
C355 C351 1.391 . S
C355 C354 1.371 . S
C355 H362 0.930 . S
H356 C353 0.928 . S
H357 C354 0.931 . S
H358 C334 0.930 . S
H359 C331 0.930 . S
H360 C340 0.930 . S
H361 C352 0.929 . S
H362 C355 0.930 . S
C363 C364 1.351 . S
C363 N366 1.368 . S
C363 H368 0.931 . S
C364 C363 1.351 . S
C364 N365 1.373 1_545 S
C364 H392 0.945 . S
N365 C364 1.373 1_565 S
N365 C367 1.340 . S
N366 C363 1.368 . S
N366 C367 1.321 1_545 S
N366 Co369 2.135 . S
C367 N365 1.340 . S
C367 N366 1.321 1_565 S
C367 H391 0.930 . S
H368 C363 0.931 . S
Co369 N366 2.135 . S
Co369 N372 2.121 . S
Co369 O377 2.055 . S
Co369 O380 2.039 . S
Co369 N383 2.140 . S
C370 O371 1.227 1_545 S
C370 O380 1.265 . S
O371 C370 1.227 1_565 S
N372 Co369 2.121 . S
N372 C374 1.375 . S
N372 C375 1.313 . S
C373 C374 1.338 . S
C373 N376 1.377 . S
C373 H393 0.930 . S
C374 N372 1.375 . S
C374 C373 1.338 . S
C374 H378 0.931 . S
C375 N372 1.313 . S
C375 N376 1.344 . S
C375 H379 0.930 . S
N376 C373 1.377 . S
N376 C375 1.344 . S
O377 Co369 2.055 . S
O377 C381 1.253 . S
H378 C374 0.931 . S
H379 C375 0.930 . S
O380 Co369 2.039 . S
O380 C370 1.265 . S
C381 O377 1.253 . S
C381 O382 1.227 . S
O382 C381 1.227 . S
N383 Co369 2.140 . S
N383 C386 1.346 . S
N383 C387 1.345 . S
C384 C385 1.387 1_545 S
C384 C388 1.391 . S
C385 C384 1.387 1_565 S
C385 C386 1.369 1_565 S
C385 H394 0.929 . S
C386 N383 1.346 . S
C386 C385 1.369 1_545 S
C386 H389 0.928 1_545 S
C387 N383 1.345 . S
C387 C388 1.371 . S
C387 H390 0.931 . S
C388 C384 1.391 . S
C388 C387 1.371 . S
C388 H395 0.930 . S
H389 C386 0.928 1_565 S
H390 C387 0.931 . S
H391 C367 0.930 . S
H392 C364 0.945 . S
H393 C373 0.930 . S
H394 C385 0.929 . S
H395 C388 0.930 . S
C396 C397 1.351 . S
C396 N399 1.368 . S
C396 H401 0.931 . S
C397 C396 1.351 . S
C397 N398 1.373 1_565 S
C397 H425 0.930 . S
N398 C397 1.373 1_545 S
N398 C400 1.341 1_545 S
N399 C396 1.368 . S
N399 C400 1.327 . S
N399 Co402 2.135 . S
C400 N398 1.341 1_565 S
C400 N399 1.327 . S
C400 H424 0.924 1_565 S
H401 C396 0.931 . S
Co402 N399 2.135 . S
Co402 N405 2.121 . S
Co402 O410 2.055 . S
Co402 O413 2.039 . S
Co402 N416 2.140 . S
C403 O404 1.227 . S
C403 O413 1.265 . S
O404 C403 1.227 . S
N405 Co402 2.121 . S
N405 C407 1.375 . S
N405 C408 1.313 . S
C406 C407 1.338 . S
C406 N409 1.377 . S
C406 H426 0.930 . S
C407 N405 1.375 . S
C407 C406 1.338 . S
C407 H411 0.931 . S
C408 N405 1.313 . S
C408 N409 1.344 . S
C408 H412 0.930 . S
N409 C406 1.377 . S
N409 C408 1.344 . S
O410 Co402 2.055 . S
O410 C414 1.253 . S
H411 C407 0.931 . S
H412 C408 0.930 . S
O413 Co402 2.039 . S
O413 C403 1.265 . S
C414 O410 1.253 . S
C414 O415 1.227 . S
O415 C414 1.227 . S
N416 Co402 2.140 . S
N416 C419 1.346 . S
N416 C420 1.345 . S
C417 C418 1.387 1_565 S
C417 C421 1.391 . S
C418 C417 1.387 1_545 S
C418 C419 1.369 1_545 S
C418 H427 0.929 . S
C419 N416 1.346 . S
C419 C418 1.369 1_565 S
C419 H422 0.928 1_565 S
C420 N416 1.345 . S
C420 C421 1.371 . S
C420 H423 0.931 . S
C421 C417 1.391 . S
C421 C420 1.371 . S
C421 H428 0.930 . S
H422 C419 0.928 1_545 S
H423 C420 0.931 . S
H424 C400 0.924 1_545 S
H425 C397 0.930 . S
H426 C406 0.930 . S
H427 C418 0.929 . S
H428 C421 0.930 . S
C429 C430 1.351 . S
C429 N432 1.368 . S
C429 H434 0.931 . S
C430 C429 1.351 . S
C430 N431 1.373 1_455 S
C430 H458 0.945 . S
N431 C430 1.373 1_655 S
N431 C433 1.340 . S
N432 C429 1.368 . S
N432 C433 1.321 1_455 S
N432 Co435 2.135 . S
C433 N431 1.340 . S
C433 N432 1.321 1_655 S
C433 H457 0.930 . S
H434 C429 0.931 . S
Co435 N432 2.135 . S
Co435 N438 2.121 . S
Co435 O443 2.055 . S
Co435 O446 2.039 . S
Co435 N449 2.140 . S
C436 O437 1.227 1_455 S
C436 O446 1.265 . S
O437 C436 1.227 1_655 S
N438 Co435 2.121 . S
N438 C440 1.375 . S
N438 C441 1.313 . S
C439 C440 1.338 . S
C439 N442 1.377 . S
C439 H459 0.930 . S
C440 N438 1.375 . S
C440 C439 1.338 . S
C440 H444 0.931 . S
C441 N438 1.313 . S
C441 N442 1.344 . S
C441 H445 0.930 . S
N442 C439 1.377 . S
N442 C441 1.344 . S
O443 Co435 2.055 . S
O443 C447 1.253 . S
H444 C440 0.931 . S
H445 C441 0.930 . S
O446 Co435 2.039 . S
O446 C436 1.265 . S
C447 O443 1.253 . S
C447 O448 1.227 . S
O448 C447 1.227 . S
N449 Co435 2.140 . S
N449 C452 1.346 . S
N449 C453 1.345 . S
C450 C451 1.387 1_455 S
C450 C454 1.391 . S
C451 C450 1.387 1_655 S
C451 C452 1.369 1_655 S
C451 H460 0.929 . S
C452 N449 1.346 . S
C452 C451 1.369 1_455 S
C452 H455 0.928 1_455 S
C453 N449 1.345 . S
C453 C454 1.371 . S
C453 H456 0.931 . S
C454 C450 1.391 . S
C454 C453 1.371 . S
C454 H461 0.930 . S
H455 C452 0.928 1_655 S
H456 C453 0.931 . S
H457 C433 0.930 . S
H458 C430 0.945 . S
H459 C439 0.930 . S
H460 C451 0.929 . S
H461 C454 0.930 . S
C462 C463 1.351 . S
C462 N465 1.368 . S
C462 H467 0.931 . S
C463 C462 1.351 . S
C463 N464 1.373 . S
C463 H491 0.930 . S
N464 C463 1.373 . S
N464 C466 1.340 . S
N465 C462 1.368 . S
N465 C466 1.321 . S
N465 Co468 2.135 . S
C466 N464 1.340 . S
C466 N465 1.321 . S
C466 H490 0.930 . S
H467 C462 0.931 . S
Co468 N465 2.135 . S
Co468 N471 2.121 . S
Co468 O476 2.055 . S
Co468 O479 2.039 . S
Co468 N482 2.140 . S
C469 O470 1.227 . S
C469 O479 1.265 . S
O470 C469 1.227 . S
N471 Co468 2.121 . S
N471 C473 1.375 . S
N471 C474 1.313 . S
C472 C473 1.338 . S
C472 N475 1.377 . S
C472 H492 0.930 . S
C473 N471 1.375 . S
C473 C472 1.338 . S
C473 H477 0.931 . S
C474 N471 1.313 . S
C474 N475 1.344 . S
C474 H478 0.930 . S
N475 C472 1.377 . S
N475 C474 1.344 . S
O476 Co468 2.055 . S
O476 C480 1.253 . S
H477 C473 0.931 . S
H478 C474 0.930 . S
O479 Co468 2.039 . S
O479 C469 1.265 . S
C480 O476 1.253 . S
C480 O481 1.227 . S
O481 C480 1.227 . S
N482 Co468 2.140 . S
N482 C485 1.346 . S
N482 C486 1.345 . S
C483 C484 1.387 . S
C483 C487 1.391 . S
C484 C483 1.387 . S
C484 C485 1.369 . S
C484 H493 0.929 . S
C485 N482 1.346 . S
C485 C484 1.369 . S
C485 H488 0.928 . S
C486 N482 1.345 . S
C486 C487 1.371 . S
C486 H489 0.931 . S
C487 C483 1.391 . S
C487 C486 1.371 . S
C487 H494 0.930 . S
H488 C485 0.928 . S
H489 C486 0.931 . S
H490 C466 0.930 . S
H491 C463 0.930 . S
H492 C472 0.930 . S
H493 C484 0.929 . S
H494 C487 0.930 . S
C495 C496 1.351 . S
C495 N498 1.368 . S
C495 H500 0.931 . S
C496 C495 1.351 . S
C496 N497 1.373 . S
C496 H524 0.930 . S
N497 C496 1.373 . S
N497 C499 1.340 . S
N498 C495 1.368 . S
N498 C499 1.321 . S
N498 Co501 2.135 . S
C499 N497 1.340 . S
C499 N498 1.321 . S
C499 H523 0.930 . S
H500 C495 0.931 . S
Co501 N498 2.135 . S
Co501 N504 2.121 . S
Co501 O509 2.055 . S
Co501 O512 2.039 . S
Co501 N515 2.140 . S
C502 O503 1.227 . S
C502 O512 1.265 . S
O503 C502 1.227 . S
N504 Co501 2.121 . S
N504 C506 1.375 . S
N504 C507 1.313 . S
C505 C506 1.338 . S
C505 N508 1.377 . S
C505 H525 0.930 . S
C506 N504 1.375 . S
C506 C505 1.338 . S
C506 H510 0.931 . S
C507 N504 1.313 . S
C507 N508 1.344 . S
C507 H511 0.930 . S
N508 C505 1.377 . S
N508 C507 1.344 . S
O509 Co501 2.055 . S
O509 C513 1.253 . S
H510 C506 0.931 . S
H511 C507 0.930 . S
O512 Co501 2.039 . S
O512 C502 1.265 . S
C513 O509 1.253 . S
C513 O514 1.227 . S
O514 C513 1.227 . S
N515 Co501 2.140 . S
N515 C518 1.346 . S
N515 C519 1.345 . S
C516 C517 1.387 . S
C516 C520 1.391 . S
C517 C516 1.387 . S
C517 C518 1.369 . S
C517 H526 0.929 . S
C518 N515 1.346 . S
C518 C517 1.369 . S
C518 H521 0.928 . S
C519 N515 1.345 . S
C519 C520 1.371 . S
C519 H522 0.931 . S
C520 C516 1.391 . S
C520 C519 1.371 . S
C520 H527 0.930 . S
H521 C518 0.928 . S
H522 C519 0.931 . S
H523 C499 0.930 . S
H524 C496 0.930 . S
H525 C505 0.930 . S
H526 C517 0.929 . S
H527 C520 0.930 . S
C528 C529 1.351 . S
C528 N531 1.368 . S
C528 H533 0.931 . S
C529 C528 1.351 . S
C529 N530 1.373 . S
C529 H557 0.930 . S
N530 C529 1.373 . S
N530 C532 1.340 . S
N531 C528 1.368 . S
N531 C532 1.321 . S
N531 Co534 2.135 . S
C532 N530 1.340 . S
C532 N531 1.321 . S
C532 H556 0.930 . S
H533 C528 0.931 . S
Co534 N531 2.135 . S
Co534 N537 2.121 . S
Co534 O542 2.055 . S
Co534 O545 2.039 . S
Co534 N548 2.140 . S
C535 O536 1.227 . S
C535 O545 1.265 . S
O536 C535 1.227 . S
N537 Co534 2.121 . S
N537 C539 1.375 . S
N537 C540 1.313 . S
C538 C539 1.338 . S
C538 N541 1.377 . S
C538 H558 0.930 . S
C539 N537 1.375 . S
C539 C538 1.338 . S
C539 H543 0.931 . S
C540 N537 1.313 . S
C540 N541 1.344 . S
C540 H544 0.930 . S
N541 C538 1.377 . S
N541 C540 1.344 . S
O542 Co534 2.055 . S
O542 C546 1.253 . S
H543 C539 0.931 . S
H544 C540 0.930 . S
O545 Co534 2.039 . S
O545 C535 1.265 . S
C546 O542 1.253 . S
C546 O547 1.227 . S
O547 C546 1.227 . S
N548 Co534 2.140 . S
N548 C551 1.346 . S
N548 C552 1.345 . S
C549 C550 1.387 . S
C549 C553 1.391 . S
C550 C549 1.387 . S
C550 C551 1.369 . S
C550 H559 0.929 . S
C551 N548 1.346 . S
C551 C550 1.369 . S
C551 H554 0.928 . S
C552 N548 1.345 . S
C552 C553 1.371 . S
C552 H555 0.931 . S
C553 C549 1.391 . S
C553 C552 1.371 . S
C553 H560 0.930 . S
H554 C551 0.928 . S
H555 C552 0.931 . S
H556 C532 0.930 . S
H557 C529 0.930 . S
H558 C538 0.930 . S
H559 C550 0.929 . S
H560 C553 0.930 . S
C561 C562 1.351 . S
C561 N564 1.368 . S
C561 H566 0.931 . S
C562 C561 1.351 . S
C562 N563 1.373 . S
C562 H590 0.930 . S
N563 C562 1.373 . S
N563 C565 1.340 . S
N564 C561 1.368 . S
N564 C565 1.321 . S
N564 Co567 2.135 . S
C565 N563 1.340 . S
C565 N564 1.321 . S
C565 H589 0.930 . S
H566 C561 0.931 . S
Co567 N564 2.135 . S
Co567 N570 2.121 . S
Co567 O575 2.055 . S
Co567 O578 2.039 . S
Co567 N581 2.140 . S
C568 O569 1.227 . S
C568 O578 1.265 . S
O569 C568 1.227 . S
N570 Co567 2.121 . S
N570 C572 1.375 . S
N570 C573 1.313 . S
C571 C572 1.338 . S
C571 N574 1.377 . S
C571 H591 0.930 . S
C572 N570 1.375 . S
C572 C571 1.338 . S
C572 H576 0.931 . S
C573 N570 1.313 . S
C573 N574 1.344 . S
C573 H577 0.930 . S
N574 C571 1.377 . S
N574 C573 1.344 . S
O575 Co567 2.055 . S
O575 C579 1.253 . S
H576 C572 0.931 . S
H577 C573 0.930 . S
O578 Co567 2.039 . S
O578 C568 1.265 . S
C579 O575 1.253 . S
C579 O580 1.227 . S
O580 C579 1.227 . S
N581 Co567 2.140 . S
N581 C584 1.346 . S
N581 C585 1.345 . S
C582 C583 1.387 . S
C582 C586 1.391 . S
C583 C582 1.387 . S
C583 C584 1.369 . S
C583 H592 0.929 . S
C584 N581 1.346 . S
C584 C583 1.369 . S
C584 H587 0.928 . S
C585 N581 1.345 . S
C585 C586 1.371 . S
C585 H588 0.931 . S
C586 C582 1.391 . S
C586 C585 1.371 . S
C586 H593 0.930 . S
H587 C584 0.928 . S
H588 C585 0.931 . S
H589 C565 0.930 . S
H590 C562 0.930 . S
H591 C571 0.930 . S
H592 C583 0.929 . S
H593 C586 0.930 . S
C594 C595 1.363 . S
C594 C600 1.379 . S
C594 N602 1.356 . S
C595 C594 1.363 . S
C595 C601 1.363 . S
C596 C597 1.363 . S
C596 C601 1.379 . S
C596 N603 1.356 . S
C597 C596 1.363 . S
C597 C600 1.363 . S
N598 C600 1.356 . S
N598 H610 0.984 . S
N598 H611 0.985 . S
N599 C601 1.356 . S
N599 H604 0.984 . S
N599 H605 0.985 . S
C600 C594 1.379 . S
C600 C597 1.363 . S
C600 N598 1.356 . S
C601 C595 1.363 . S
C601 C596 1.379 . S
C601 N599 1.356 . S
N602 C594 1.356 . S
N602 H608 0.984 . S
N602 H609 0.984 . S
N603 C596 1.356 . S
N603 H606 0.984 . S
N603 H607 0.985 . S
H604 N599 0.984 . S
H605 N599 0.985 . S
H606 N603 0.984 . S
H607 N603 0.985 . S
H608 N602 0.984 . S
H609 N602 0.984 . S
H610 N598 0.984 . S
H611 N598 0.985 . S
C612 C613 1.363 . S
C612 C618 1.379 . S
C612 N620 1.356 . S
C613 C612 1.363 . S
C613 C619 1.363 . S
C614 C615 1.363 . S
C614 C619 1.379 . S
C614 N621 1.356 . S
C615 C614 1.363 . S
C615 C618 1.363 . S
N616 C618 1.356 . S
N616 H628 0.984 . S
N616 H629 0.985 . S
N617 C619 1.356 . S
N617 H622 0.984 . S
N617 H623 0.985 . S
C618 C612 1.379 . S
C618 C615 1.363 . S
C618 N616 1.356 . S
C619 C613 1.363 . S
C619 C614 1.379 . S
C619 N617 1.356 . S
N620 C612 1.356 . S
N620 H626 0.984 . S
N620 H627 0.984 . S
N621 C614 1.356 . S
N621 H624 0.984 1_565 S
N621 H625 0.985 1_565 S
H622 N617 0.984 . S
H623 N617 0.985 . S
H624 N621 0.984 1_545 S
H625 N621 0.985 1_545 S
H626 N620 0.984 . S
H627 N620 0.984 . S
H628 N616 0.984 . S
H629 N616 0.985 . S
C630 C631 1.363 . S
C630 C636 1.379 . S
C630 N638 1.356 . S
C631 C630 1.363 . S
C631 C637 1.363 . S
C632 C633 1.363 . S
C632 C637 1.379 . S
C632 N639 1.356 . S
C633 C632 1.363 . S
C633 C636 1.363 . S
N634 C636 1.356 . S
N634 H646 0.984 . S
N634 H647 0.985 . S
N635 C637 1.356 1_655 S
N635 H640 0.984 . S
N635 H641 0.985 . S
C636 C630 1.379 . S
C636 C633 1.363 . S
C636 N634 1.356 . S
C637 C631 1.363 . S
C637 C632 1.379 . S
C637 N635 1.356 1_455 S
N638 C630 1.356 . S
N638 H644 0.984 . S
N638 H645 0.984 . S
N639 C632 1.356 . S
N639 H642 0.984 . S
N639 H643 0.985 . S
H640 N635 0.984 . S
H641 N635 0.985 . S
H642 N639 0.984 . S
H643 N639 0.985 . S
H644 N638 0.984 . S
H645 N638 0.984 . S
H646 N634 0.984 . S
H647 N634 0.985 . S
C648 C649 1.363 . S
C648 C654 1.379 . S
C648 N656 1.356 . S
C649 C648 1.363 . S
C649 C655 1.363 . S
C650 C651 1.363 . S
C650 C655 1.379 . S
C650 N657 1.356 . S
C651 C650 1.363 . S
C651 C654 1.363 . S
N652 C654 1.356 . S
N652 H664 0.984 . S
N652 H665 0.985 . S
N653 C655 1.356 . S
N653 H658 0.984 . S
N653 H659 0.985 . S
C654 C648 1.379 . S
C654 C651 1.363 . S
C654 N652 1.356 . S
C655 C649 1.363 . S
C655 C650 1.379 . S
C655 N653 1.356 . S
N656 C648 1.356 . S
N656 H662 0.984 . S
N656 H663 0.984 . S
N657 C650 1.356 . S
N657 H660 0.984 . S
N657 H661 0.985 . S
H658 N653 0.984 . S
H659 N653 0.985 . S
H660 N657 0.984 . S
H661 N657 0.985 . S
H662 N656 0.984 . S
H663 N656 0.984 . S
H664 N652 0.984 . S
H665 N652 0.985 . S
C666 C667 1.363 . S
C666 C672 1.379 . S
C666 N674 1.356 . S
C667 C666 1.363 . S
C667 C673 1.363 . S
C668 C669 1.363 . S
C668 C673 1.379 . S
C668 N675 1.356 . S
C669 C668 1.363 . S
C669 C672 1.363 . S
N670 C672 1.356 . S
N670 H682 0.984 . S
N670 H683 0.985 . S
N671 C673 1.356 . S
N671 H676 0.984 . S
N671 H677 0.985 . S
C672 C666 1.379 . S
C672 C669 1.363 . S
C672 N670 1.356 . S
C673 C667 1.363 . S
C673 C668 1.379 . S
C673 N671 1.356 . S
N674 C666 1.356 . S
N674 H680 0.984 . S
N674 H681 0.984 . S
N675 C668 1.356 . S
N675 H678 0.984 . S
N675 H679 0.985 . S
H676 N671 0.984 . S
H677 N671 0.985 . S
H678 N675 0.984 . S
H679 N675 0.985 . S
H680 N674 0.984 . S
H681 N674 0.984 . S
H682 N670 0.984 . S
H683 N670 0.985 . S
C684 C685 1.363 . S
C684 C690 1.379 . S
C684 N692 1.356 . S
C685 C684 1.363 . S
C685 C691 1.363 . S
C686 C687 1.363 . S
C686 C691 1.379 . S
C686 N693 1.356 . S
C687 C686 1.363 . S
C687 C690 1.363 . S
N688 C690 1.356 . S
N688 H700 0.984 . S
N688 H701 0.985 . S
N689 C691 1.356 . S
N689 H694 0.984 . S
N689 H695 0.985 . S
C690 C684 1.379 . S
C690 C687 1.363 . S
C690 N688 1.356 . S
C691 C685 1.363 . S
C691 C686 1.379 . S
C691 N689 1.356 . S
N692 C684 1.356 . S
N692 H698 0.984 . S
N692 H699 0.984 . S
N693 C686 1.356 . S
N693 H696 0.984 . S
N693 H697 0.985 . S
H694 N689 0.984 . S
H695 N689 0.985 . S
H696 N693 0.984 . S
H697 N693 0.985 . S
H698 N692 0.984 . S
H699 N692 0.984 . S
H700 N688 0.984 . S
H701 N688 0.985 . S
C702 C703 1.363 . S
C702 C708 1.379 . S
C702 N710 1.356 . S
C703 C702 1.363 . S
C703 C709 1.363 . S
C704 C705 1.363 . S
C704 C709 1.379 . S
C704 N711 1.356 . S
C705 C704 1.363 . S
C705 C708 1.363 . S
N706 C708 1.356 . S
N706 H718 0.984 . S
N706 H719 0.985 . S
N707 C709 1.356 . S
N707 H712 0.984 . S
N707 H713 0.985 . S
C708 C702 1.379 . S
C708 C705 1.363 . S
C708 N706 1.356 . S
C709 C703 1.363 . S
C709 C704 1.379 . S
C709 N707 1.356 . S
N710 C702 1.356 . S
N710 H716 0.984 . S
N710 H717 0.984 . S
N711 C704 1.356 . S
N711 H714 0.984 . S
N711 H715 0.985 . S
H712 N707 0.984 . S
H713 N707 0.985 . S
H714 N711 0.984 . S
H715 N711 0.985 . S
H716 N710 0.984 . S
H717 N710 0.984 . S
H718 N706 0.984 . S
H719 N706 0.985 . S
C720 C721 1.363 1_545 S
C720 C726 1.379 . S
C720 N728 1.356 . S
C721 C720 1.363 1_565 S
C721 C727 1.363 . S
C722 C723 1.363 1_565 S
C722 C727 1.379 . S
C722 N729 1.356 . S
C723 C722 1.363 1_545 S
C723 C726 1.363 . S
N724 C726 1.356 . S
N724 H736 0.984 . S
N724 H737 0.985 . S
N725 C727 1.356 . S
N725 H730 0.984 . S
N725 H731 0.985 . S
C726 C720 1.379 . S
C726 C723 1.363 . S
C726 N724 1.356 . S
C727 C721 1.363 . S
C727 C722 1.379 . S
C727 N725 1.356 . S
N728 C720 1.356 . S
N728 H734 0.984 . S
N728 H735 0.984 . S
N729 C722 1.356 . S
N729 H732 0.984 1_565 S
N729 H733 0.985 . S
H730 N725 0.984 . S
H731 N725 0.985 . S
H732 N729 0.984 1_545 S
H733 N729 0.985 . S
H734 N728 0.984 . S
H735 N728 0.984 . S
H736 N724 0.984 . S
H737 N724 0.985 . S
C738 C739 1.363 . S
C738 C744 1.379 . S
C738 N746 1.356 . S
C739 C738 1.363 . S
C739 C745 1.363 . S
C740 C741 1.363 . S
C740 C745 1.379 . S
C740 N747 1.356 . S
C741 C740 1.363 . S
C741 C744 1.363 . S
N742 C744 1.356 . S
N742 H754 0.984 . S
N742 H755 0.985 . S
N743 C745 1.356 1_455 S
N743 H748 0.984 . S
N743 H749 0.985 . S
C744 C738 1.379 . S
C744 C741 1.363 . S
C744 N742 1.356 . S
C745 C739 1.363 . S
C745 C740 1.379 . S
C745 N743 1.356 1_655 S
N746 C738 1.356 . S
N746 H752 0.984 . S
N746 H753 0.984 1_655 S
N747 C740 1.356 . S
N747 H750 0.984 . S
N747 H751 0.985 . S
H748 N743 0.984 . S
H749 N743 0.985 . S
H750 N747 0.984 . S
H751 N747 0.985 . S
H752 N746 0.984 . S
H753 N746 0.984 1_455 S
H754 N742 0.984 . S
H755 N742 0.985 . S
C756 C757 1.363 . S
C756 C762 1.379 . S
C756 N764 1.356 . S
C757 C756 1.363 . S
C757 C763 1.363 . S
C758 C759 1.363 . S
C758 C763 1.379 . S
C758 N765 1.356 . S
C759 C758 1.363 . S
C759 C762 1.363 . S
N760 C762 1.356 . S
N760 H772 0.984 . S
N760 H773 0.985 . S
N761 C763 1.356 . S
N761 H766 0.984 . S
N761 H767 0.985 . S
C762 C756 1.379 . S
C762 C759 1.363 . S
C762 N760 1.356 . S
C763 C757 1.363 . S
C763 C758 1.379 . S
C763 N761 1.356 . S
N764 C756 1.356 . S
N764 H770 0.984 . S
N764 H771 0.984 . S
N765 C758 1.356 . S
N765 H768 0.984 . S
N765 H769 0.985 . S
H766 N761 0.984 . S
H767 N761 0.985 . S
H768 N765 0.984 . S
H769 N765 0.985 . S
H770 N764 0.984 . S
H771 N764 0.984 . S
H772 N760 0.984 . S
H773 N760 0.985 . S
C774 C775 1.363 . S
C774 C780 1.379 1_565 S
C774 N782 1.356 1_565 S
C775 C774 1.363 . S
C775 C781 1.363 . S
C776 C777 1.363 . S
C776 C781 1.379 . S
C776 N783 1.356 . S
C777 C776 1.363 . S
C777 C780 1.363 1_565 S
N778 C780 1.356 . S
N778 H790 0.984 . S
N778 H791 0.985 . S
N779 C781 1.356 . S
N779 H784 0.984 . S
N779 H785 0.985 . S
C780 C774 1.379 1_545 S
C780 C777 1.363 1_545 S
C780 N778 1.356 . S
C781 C775 1.363 . S
C781 C776 1.379 . S
C781 N779 1.356 . S
N782 C774 1.356 1_545 S
N782 H788 0.984 . S
N782 H789 0.984 1_545 S
N783 C776 1.356 . S
N783 H786 0.984 . S
N783 H787 0.985 . S
H784 N779 0.984 . S
H785 N779 0.985 . S
H786 N783 0.984 . S
H787 N783 0.985 . S
H788 N782 0.984 . S
H789 N782 0.984 1_565 S
H790 N778 0.984 . S
H791 N778 0.985 . S
C792 C793 1.363 . S
C792 C798 1.379 1_455 S
C792 N800 1.354 . S
C793 C792 1.363 . S
C793 C799 1.363 . S
C794 C795 1.363 1_455 S
C794 C799 1.379 . S
C794 N801 1.356 . S
C795 C794 1.363 1_655 S
C795 C798 1.363 . S
N796 C798 1.356 . S
N796 H808 0.984 . S
N796 H809 0.985 . S
N797 C799 1.356 . S
N797 H802 0.984 . S
N797 H803 0.985 . S
C798 C792 1.379 1_655 S
C798 C795 1.363 . S
C798 N796 1.356 . S
C799 C793 1.363 . S
C799 C794 1.379 . S
C799 N797 1.356 . S
N800 C792 1.354 . S
N800 H806 0.977 1_455 S
N800 H807 0.995 . S
N801 C794 1.356 . S
N801 H804 0.984 . S
N801 H805 0.985 . S
H802 N797 0.984 . S
H803 N797 0.985 . S
H804 N801 0.984 . S
H805 N801 0.985 . S
H806 N800 0.977 1_655 S
H807 N800 0.995 . S
H808 N796 0.984 . S
H809 N796 0.985 . S
C810 C811 1.363 . S
C810 C816 1.379 . S
C810 N818 1.356 . S
C811 C810 1.363 . S
C811 C817 1.363 1_455 S
C812 C813 1.363 . S
C812 C817 1.379 . S
C812 N819 1.356 . S
C813 C812 1.363 . S
C813 C816 1.363 1_655 S
N814 C816 1.356 1_655 S
N814 H826 0.984 1_655 S
N814 H827 0.985 . S
N815 C817 1.356 1_455 S
N815 H820 0.984 . S
N815 H821 0.985 1_455 S
C816 C810 1.379 . S
C816 C813 1.363 1_455 S
C816 N814 1.356 1_455 S
C817 C811 1.363 1_655 S
C817 C812 1.379 . S
C817 N815 1.356 1_655 S
N818 C810 1.356 . S
N818 H824 0.984 . S
N818 H825 0.984 . S
N819 C812 1.356 . S
N819 H822 0.984 . S
N819 H823 0.985 . S
H820 N815 0.984 . S
H821 N815 0.985 1_655 S
H822 N819 0.984 . S
H823 N819 0.985 . S
H824 N818 0.984 . S
H825 N818 0.984 . S
H826 N814 0.984 1_455 S
H827 N814 0.985 . S
C828 C829 1.363 . S
C828 C834 1.379 . S
C828 N836 1.356 . S
C829 C828 1.363 . S
C829 C835 1.363 . S
C830 C831 1.363 . S
C830 C835 1.379 . S
C830 N837 1.356 . S
C831 C830 1.363 . S
C831 C834 1.363 . S
N832 C834 1.356 . S
N832 H844 0.984 . S
N832 H845 0.985 . S
N833 C835 1.356 . S
N833 H838 0.984 . S
N833 H839 0.985 . S
C834 C828 1.379 . S
C834 C831 1.363 . S
C834 N832 1.356 . S
C835 C829 1.363 . S
C835 C830 1.379 . S
C835 N833 1.356 . S
N836 C828 1.356 . S
N836 H842 0.984 . S
N836 H843 0.984 . S
N837 C830 1.356 . S
N837 H840 0.984 . S
N837 H841 0.985 . S
H838 N833 0.984 . S
H839 N833 0.985 . S
H840 N837 0.984 . S
H841 N837 0.985 . S
H842 N836 0.984 . S
H843 N836 0.984 . S
H844 N832 0.984 . S
H845 N832 0.985 . S
C846 C847 1.363 . S
C846 C852 1.379 1_565 S
C846 N854 1.356 . S
C847 C846 1.363 . S
C847 C853 1.363 . S
C848 C849 1.363 1_565 S
C848 C853 1.379 . S
C848 N855 1.356 1_565 S
C849 C848 1.363 1_545 S
C849 C852 1.363 . S
N850 C852 1.356 . S
N850 H862 0.984 . S
N850 H863 0.985 . S
N851 C853 1.356 . S
N851 H856 0.984 . S
N851 H857 0.985 . S
C852 C846 1.379 1_545 S
C852 C849 1.363 . S
C852 N850 1.356 . S
C853 C847 1.363 . S
C853 C848 1.379 . S
C853 N851 1.356 . S
N854 C846 1.356 . S
N854 H860 0.984 1_565 S
N854 H861 0.984 . S
N855 C848 1.356 1_545 S
N855 H858 0.984 . S
N855 H859 0.985 1_545 S
H856 N851 0.984 . S
H857 N851 0.985 . S
H858 N855 0.984 . S
H859 N855 0.985 1_565 S
H860 N854 0.984 1_545 S
H861 N854 0.984 . S
H862 N850 0.984 . S
H863 N850 0.985 . S
C864 C865 1.363 . S
C864 C870 1.379 1_545 S
C864 N872 1.356 . S
C865 C864 1.363 . S
C865 C871 1.363 . S
C866 C867 1.363 . S
C866 C871 1.379 1_565 S
C866 N873 1.356 . S
C867 C866 1.363 . S
C867 C870 1.363 . S
N868 C870 1.356 . S
N868 H880 0.984 . S
N868 H881 0.985 . S
N869 C871 1.356 . S
N869 H874 0.984 . S
N869 H875 0.985 . S
C870 C864 1.379 1_565 S
C870 C867 1.363 . S
C870 N868 1.356 . S
C871 C865 1.363 . S
C871 C866 1.379 1_545 S
C871 N869 1.356 . S
N872 C864 1.356 . S
N872 H878 0.984 . S
N872 H879 0.984 . S
N873 C866 1.356 . S
N873 H876 0.984 . S
N873 H877 0.985 . S
H874 N869 0.984 . S
H875 N869 0.985 . S
H876 N873 0.984 . S
H877 N873 0.985 . S
H878 N872 0.984 . S
H879 N872 0.984 . S
H880 N868 0.984 . S
H881 N868 0.985 . S
C882 C883 1.363 . S
C882 C888 1.379 1_455 S
C882 N890 1.356 . S
C883 C882 1.363 . S
C883 C889 1.363 . S
C884 C885 1.363 . S
C884 C889 1.379 1_655 S
C884 N891 1.356 . S
C885 C884 1.363 . S
C885 C888 1.363 . S
N886 C888 1.356 . S
N886 H898 0.984 . S
N886 H899 0.985 . S
N887 C889 1.356 . S
N887 H892 0.984 . S
N887 H893 0.985 . S
C888 C882 1.379 1_655 S
C888 C885 1.363 . S
C888 N886 1.356 . S
C889 C883 1.363 . S
C889 C884 1.379 1_455 S
C889 N887 1.356 . S
N890 C882 1.356 . S
N890 H896 0.984 . S
N890 H897 0.984 . S
N891 C884 1.356 . S
N891 H894 0.984 . S
N891 H895 0.985 . S
H892 N887 0.984 . S
H893 N887 0.985 . S
H894 N891 0.984 . S
H895 N891 0.985 . S
H896 N890 0.984 . S
H897 N890 0.984 . S
H898 N886 0.984 . S
H899 N886 0.985 . S
C900 C901 1.363 . S
C900 C906 1.379 . S
C900 N908 1.356 . S
C901 C900 1.363 . S
C901 C907 1.363 . S
C902 C903 1.363 . S
C902 C907 1.379 . S
C902 N909 1.356 . S
C903 C902 1.363 . S
C903 C906 1.363 . S
N904 C906 1.356 . S
N904 H916 0.984 . S
N904 H917 0.985 . S
N905 C907 1.356 . S
N905 H910 0.984 . S
N905 H911 0.985 . S
C906 C900 1.379 . S
C906 C903 1.363 . S
C906 N904 1.356 . S
C907 C901 1.363 . S
C907 C902 1.379 . S
C907 N905 1.356 . S
N908 C900 1.356 . S
N908 H914 0.984 . S
N908 H915 0.984 . S
N909 C902 1.356 . S
N909 H912 0.984 . S
N909 H913 0.985 . S
H910 N905 0.984 . S
H911 N905 0.985 . S
H912 N909 0.984 . S
H913 N909 0.985 . S
H914 N908 0.984 . S
H915 N908 0.984 . S
H916 N904 0.984 . S
H917 N904 0.985 . S
C918 C919 1.363 . S
C918 C924 1.379 . S
C918 N926 1.356 . S
C919 C918 1.363 . S
C919 C925 1.363 . S
C920 C921 1.363 . S
C920 C925 1.379 . S
C920 N927 1.356 . S
C921 C920 1.363 . S
C921 C924 1.363 . S
N922 C924 1.356 . S
N922 H934 0.984 . S
N922 H935 0.985 . S
N923 C925 1.356 . S
N923 H928 0.984 . S
N923 H929 0.985 . S
C924 C918 1.379 . S
C924 C921 1.363 . S
C924 N922 1.356 . S
C925 C919 1.363 . S
C925 C920 1.379 . S
C925 N923 1.356 . S
N926 C918 1.356 . S
N926 H932 0.984 . S
N926 H933 0.984 . S
N927 C920 1.356 . S
N927 H930 0.984 . S
N927 H931 0.985 . S
H928 N923 0.984 . S
H929 N923 0.985 . S
H930 N927 0.984 . S
H931 N927 0.985 . S
H932 N926 0.984 . S
H933 N926 0.984 . S
H934 N922 0.984 . S
H935 N922 0.985 . S
C936 C937 1.363 . S
C936 C942 1.379 . S
C936 N944 1.356 . S
C937 C936 1.363 . S
C937 C943 1.363 . S
C938 C939 1.363 . S
C938 C943 1.379 . S
C938 N945 1.356 . S
C939 C938 1.363 . S
C939 C942 1.363 . S
N940 C942 1.356 . S
N940 H952 0.984 . S
N940 H953 0.985 . S
N941 C943 1.356 . S
N941 H946 0.984 . S
N941 H947 0.985 . S
C942 C936 1.379 . S
C942 C939 1.363 . S
C942 N940 1.356 . S
C943 C937 1.363 . S
C943 C938 1.379 . S
C943 N941 1.356 . S
N944 C936 1.356 . S
N944 H950 0.984 . S
N944 H951 0.984 . S
N945 C938 1.356 . S
N945 H948 0.984 . S
N945 H949 0.985 . S
H946 N941 0.984 . S
H947 N941 0.985 . S
H948 N945 0.984 . S
H949 N945 0.985 . S
H950 N944 0.984 . S
H951 N944 0.984 . S
H952 N940 0.984 . S
H953 N940 0.985 . S
C954 C955 1.363 . S
C954 C960 1.379 . S
C954 N962 1.356 . S
C955 C954 1.363 . S
C955 C961 1.363 . S
C956 C957 1.363 . S
C956 C961 1.379 . S
C956 N963 1.356 . S
C957 C956 1.363 . S
C957 C960 1.363 . S
N958 C960 1.356 . S
N958 H970 0.984 . S
N958 H971 0.985 . S
N959 C961 1.356 . S
N959 H964 0.984 . S
N959 H965 0.985 . S
C960 C954 1.379 . S
C960 C957 1.363 . S
C960 N958 1.356 . S
C961 C955 1.363 . S
C961 C956 1.379 . S
C961 N959 1.356 . S
N962 C954 1.356 . S
N962 H968 0.984 . S
N962 H969 0.984 . S
N963 C956 1.356 . S
N963 H966 0.984 . S
N963 H967 0.985 . S
H964 N959 0.984 . S
H965 N959 0.985 . S
H966 N963 0.984 . S
H967 N963 0.985 . S
H968 N962 0.984 . S
H969 N962 0.984 . S
H970 N958 0.984 . S
H971 N958 0.985 . S
C972 C973 1.363 . S
C972 C978 1.379 . S
C972 N980 1.356 . S
C973 C972 1.363 . S
C973 C979 1.363 . S
C974 C975 1.363 . S
C974 C979 1.379 . S
C974 N981 1.356 . S
C975 C974 1.363 . S
C975 C978 1.363 . S
N976 C978 1.356 . S
N976 H988 0.984 . S
N976 H989 0.985 . S
N977 C979 1.356 . S
N977 H982 0.984 . S
N977 H983 0.985 . S
C978 C972 1.379 . S
C978 C975 1.363 . S
C978 N976 1.356 . S
C979 C973 1.363 . S
C979 C974 1.379 . S
C979 N977 1.356 . S
N980 C972 1.356 . S
N980 H986 0.984 . S
N980 H987 0.984 . S
N981 C974 1.356 . S
N981 H984 0.984 . S
N981 H985 0.985 . S
H982 N977 0.984 . S
H983 N977 0.985 . S
H984 N981 0.984 . S
H985 N981 0.985 . S
H986 N980 0.984 . S
H987 N980 0.984 . S
H988 N976 0.984 . S
H989 N976 0.985 . S
C990 C991 1.363 . S
C990 C996 1.379 . S
C990 N998 1.356 . S
C991 C990 1.363 . S
C991 C997 1.363 . S
C992 C993 1.363 . S
C992 C997 1.379 . S
C992 N999 1.356 . S
C993 C992 1.363 . S
C993 C996 1.363 . S
N994 C996 1.356 . S
N994 H1006 0.984 . S
N994 H1007 0.985 . S
N995 C997 1.356 . S
N995 H1000 0.984 . S
N995 H1001 0.985 . S
C996 C990 1.379 . S
C996 C993 1.363 . S
C996 N994 1.356 . S
C997 C991 1.363 . S
C997 C992 1.379 . S
C997 N995 1.356 . S
N998 C990 1.356 . S
N998 H1004 0.984 . S
N998 H1005 0.984 . S
N999 C992 1.356 . S
N999 H1002 0.984 . S
N999 H1003 0.985 . S
H1000 N995 0.984 . S
H1001 N995 0.985 . S
H1002 N999 0.984 . S
H1003 N999 0.985 . S
H1004 N998 0.984 . S
H1005 N998 0.984 . S
H1006 N994 0.984 . S
H1007 N994 0.985 . S
C1008 C1009 1.363 . S
C1008 C1014 1.379 . S
C1008 N1016 1.356 . S
C1009 C1008 1.363 . S
C1009 C1015 1.363 . S
C1010 C1011 1.363 . S
C1010 C1015 1.379 . S
C1010 N1017 1.356 . S
C1011 C1010 1.363 . S
C1011 C1014 1.363 . S
N1012 C1014 1.356 . S
N1012 H1024 0.984 . S
N1012 H1025 0.985 . S
N1013 C1015 1.356 . S
N1013 H1018 0.984 . S
N1013 H1019 0.985 . S
C1014 C1008 1.379 . S
C1014 C1011 1.363 . S
C1014 N1012 1.356 . S
C1015 C1009 1.363 . S
C1015 C1010 1.379 . S
C1015 N1013 1.356 . S
N1016 C1008 1.356 . S
N1016 H1022 0.984 . S
N1016 H1023 0.984 . S
N1017 C1010 1.356 . S
N1017 H1020 0.984 . S
N1017 H1021 0.985 . S
H1018 N1013 0.984 . S
H1019 N1013 0.985 . S
H1020 N1017 0.984 . S
H1021 N1017 0.985 . S
H1022 N1016 0.984 . S
H1023 N1016 0.984 . S
H1024 N1012 0.984 . S
H1025 N1012 0.985 . S
C1026 C1027 1.363 . S
C1026 C1032 1.379 1_554 S
C1026 N1034 1.356 . S
C1027 C1026 1.363 . S
C1027 C1033 1.363 1_655 S
C1028 C1029 1.351 1_455 S
C1028 C1033 1.379 1_556 S
C1028 N1035 1.356 . S
C1029 C1028 1.351 1_655 S
C1029 C1032 1.376 . S
N1030 C1032 1.356 . S
N1030 H1042 0.984 . S
N1030 H1043 0.985 . S
N1031 C1033 1.356 . S
N1031 H1036 0.984 . S
N1031 H1037 0.985 . S
C1032 C1026 1.379 1_556 S
C1032 C1029 1.376 . S
C1032 N1030 1.356 . S
C1033 C1027 1.363 1_455 S
C1033 C1028 1.379 1_554 S
C1033 N1031 1.356 . S
N1034 C1026 1.356 . S
N1034 H1040 0.984 . S
N1034 H1041 0.984 . S
N1035 C1028 1.356 . S
N1035 H1038 0.984 . S
N1035 H1039 0.985 . S
H1036 N1031 0.984 . S
H1037 N1031 0.985 . S
H1038 N1035 0.984 . S
H1039 N1035 0.985 . S
H1040 N1034 0.984 . S
H1041 N1034 0.984 . S
H1042 N1030 0.984 . S
H1043 N1030 0.985 . S
C1044 C1045 1.363 . S
C1044 C1050 1.379 1_554 S
C1044 N1052 1.356 . S
C1045 C1044 1.363 . S
C1045 C1051 1.363 . S
C1046 C1047 1.363 . S
C1046 C1051 1.379 1_556 S
C1046 N1053 1.356 . S
C1047 C1046 1.363 . S
C1047 C1050 1.363 . S
N1048 C1050 1.356 . S
N1048 H1060 0.984 . S
N1048 H1061 0.985 . S
N1049 C1051 1.356 . S
N1049 H1054 0.984 . S
N1049 H1055 0.985 . S
C1050 C1044 1.379 1_556 S
C1050 C1047 1.363 . S
C1050 N1048 1.356 . S
C1051 C1045 1.363 . S
C1051 C1046 1.379 1_554 S
C1051 N1049 1.356 . S
N1052 C1044 1.356 . S
N1052 H1058 0.984 . S
N1052 H1059 0.984 . S
N1053 C1046 1.356 . S
N1053 H1056 0.984 . S
N1053 H1057 0.985 . S
H1054 N1049 0.984 . S
H1055 N1049 0.985 . S
H1056 N1053 0.984 . S
H1057 N1053 0.985 . S
H1058 N1052 0.984 . S
H1059 N1052 0.984 . S
H1060 N1048 0.984 . S
H1061 N1048 0.985 . S
C1062 C1063 1.385 . S
C1062 C1068 1.379 1_554 S
C1062 N1070 1.356 . S
C1063 C1062 1.385 . S
C1063 C1069 1.342 1_565 S
C1064 C1065 1.363 1_545 S
C1064 C1069 1.379 1_556 S
C1064 N1071 1.356 . S
C1065 C1064 1.363 1_565 S
C1065 C1068 1.363 . S
N1066 C1068 1.356 . S
N1066 H1078 0.984 . S
N1066 H1079 0.985 . S
N1067 C1069 1.356 . S
N1067 H1072 0.984 . S
N1067 H1073 0.985 . S
C1068 C1062 1.379 1_556 S
C1068 C1065 1.363 . S
C1068 N1066 1.356 . S
C1069 C1063 1.342 1_545 S
C1069 C1064 1.379 1_554 S
C1069 N1067 1.356 . S
N1070 C1062 1.356 . S
N1070 H1076 0.984 . S
N1070 H1077 0.984 . S
N1071 C1064 1.356 . S
N1071 H1074 0.984 . S
N1071 H1075 0.985 . S
H1072 N1067 0.984 . S
H1073 N1067 0.985 . S
H1074 N1071 0.984 . S
H1075 N1071 0.985 . S
H1076 N1070 0.984 . S
H1077 N1070 0.984 . S
H1078 N1066 0.984 . S
H1079 N1066 0.985 . S
C1080 C1081 1.363 . S
C1080 C1086 1.379 . S
C1080 N1088 1.356 . S
C1081 C1080 1.363 . S
C1081 C1087 1.363 . S
C1082 C1083 1.363 . S
C1082 C1087 1.379 . S
C1082 N1089 1.356 . S
C1083 C1082 1.363 . S
C1083 C1086 1.363 . S
N1084 C1086 1.356 . S
N1084 H1096 0.984 . S
N1084 H1097 0.985 . S
N1085 C1087 1.356 . S
N1085 H1090 0.984 . S
N1085 H1091 0.985 . S
C1086 C1080 1.379 . S
C1086 C1083 1.363 . S
C1086 N1084 1.356 . S
C1087 C1081 1.363 . S
C1087 C1082 1.379 . S
C1087 N1085 1.356 . S
N1088 C1080 1.356 . S
N1088 H1094 0.984 . S
N1088 H1095 0.984 . S
N1089 C1082 1.356 . S
N1089 H1092 0.984 . S
N1089 H1093 0.985 . S
H1090 N1085 0.984 . S
H1091 N1085 0.985 . S
H1092 N1089 0.984 . S
H1093 N1089 0.985 . S
H1094 N1088 0.984 . S
H1095 N1088 0.984 . S
H1096 N1084 0.984 . S
H1097 N1084 0.985 . S
C1098 C1099 1.363 1_545 S
C1098 C1104 1.379 . S
C1098 N1106 1.356 1_545 S
C1099 C1098 1.363 1_565 S
C1099 C1105 1.363 1_565 S
C1100 C1101 1.363 . S
C1100 C1105 1.379 . S
C1100 N1107 1.356 . S
C1101 C1100 1.363 . S
C1101 C1104 1.363 . S
N1102 C1104 1.356 . S
N1102 H1114 0.984 . S
N1102 H1115 0.985 . S
N1103 C1105 1.355 . S
N1103 H1108 0.986 1_545 S
N1103 H1109 0.984 . S
C1104 C1098 1.379 . S
C1104 C1101 1.363 . S
C1104 N1102 1.356 . S
C1105 C1099 1.363 1_545 S
C1105 C1100 1.379 . S
C1105 N1103 1.355 . S
N1106 C1098 1.356 1_565 S
N1106 H1112 0.984 . S
N1106 H1113 0.984 . S
N1107 C1100 1.356 . S
N1107 H1110 0.984 . S
N1107 H1111 0.985 . S
H1108 N1103 0.986 1_565 S
H1109 N1103 0.984 . S
H1110 N1107 0.984 . S
H1111 N1107 0.985 . S
H1112 N1106 0.984 . S
H1113 N1106 0.984 . S
H1114 N1102 0.984 . S
H1115 N1102 0.985 . S
C1116 C1117 1.363 . S
C1116 C1122 1.379 . S
C1116 N1124 1.356 . S
C1117 C1116 1.363 . S
C1117 C1123 1.363 . S
C1118 C1119 1.363 1_655 S
C1118 C1123 1.379 . S
C1118 N1125 1.356 1_655 S
C1119 C1118 1.363 1_455 S
C1119 C1122 1.363 1_455 S
N1120 C1122 1.356 . S
N1120 H1132 0.984 . S
N1120 H1133 0.985 1_655 S
N1121 C1123 1.356 . S
N1121 H1126 0.984 . S
N1121 H1127 0.985 . S
C1122 C1116 1.379 . S
C1122 C1119 1.363 1_655 S
C1122 N1120 1.356 . S
C1123 C1117 1.363 . S
C1123 C1118 1.379 . S
C1123 N1121 1.356 . S
N1124 C1116 1.356 . S
N1124 H1130 0.984 . S
N1124 H1131 0.984 . S
N1125 C1118 1.356 1_455 S
N1125 H1128 0.984 . S
N1125 H1129 0.985 . S
H1126 N1121 0.984 . S
H1127 N1121 0.985 . S
H1128 N1125 0.984 . S
H1129 N1125 0.985 . S
H1130 N1124 0.984 . S
H1131 N1124 0.984 . S
H1132 N1120 0.984 . S
H1133 N1120 0.985 1_455 S
C1134 C1135 1.363 . S
C1134 C1140 1.379 . S
C1134 N1142 1.356 . S
C1135 C1134 1.363 . S
C1135 C1141 1.363 . S
C1136 C1137 1.363 . S
C1136 C1141 1.379 . S
C1136 N1143 1.356 . S
C1137 C1136 1.363 . S
C1137 C1140 1.363 . S
N1138 C1140 1.356 . S
N1138 H1150 0.984 . S
N1138 H1151 0.985 . S
N1139 C1141 1.356 . S
N1139 H1144 0.984 . S
N1139 H1145 0.985 . S
C1140 C1134 1.379 . S
C1140 C1137 1.363 . S
C1140 N1138 1.356 . S
C1141 C1135 1.363 . S
C1141 C1136 1.379 . S
C1141 N1139 1.356 . S
N1142 C1134 1.356 . S
N1142 H1148 0.984 . S
N1142 H1149 0.984 . S
N1143 C1136 1.356 . S
N1143 H1146 0.984 . S
N1143 H1147 0.985 . S
H1144 N1139 0.984 . S
H1145 N1139 0.985 . S
H1146 N1143 0.984 . S
H1147 N1143 0.985 . S
H1148 N1142 0.984 . S
H1149 N1142 0.984 . S
H1150 N1138 0.984 . S
H1151 N1138 0.985 . S
C1152 C1153 1.363 1_565 S
C1152 C1158 1.379 . S
C1152 N1160 1.356 . S
C1153 C1152 1.363 1_545 S
C1153 C1159 1.363 1_545 S
C1154 C1155 1.363 . S
C1154 C1159 1.379 . S
C1154 N1161 1.356 . S
C1155 C1154 1.363 . S
C1155 C1158 1.363 . S
N1156 C1158 1.356 . S
N1156 H1168 0.984 . S
N1156 H1169 0.985 . S
N1157 C1159 1.356 1_545 S
N1157 H1162 0.984 . S
N1157 H1163 0.985 . S
C1158 C1152 1.379 . S
C1158 C1155 1.363 . S
C1158 N1156 1.356 . S
C1159 C1153 1.363 1_565 S
C1159 C1154 1.379 . S
C1159 N1157 1.356 1_565 S
N1160 C1152 1.356 . S
N1160 H1166 0.984 . S
N1160 H1167 0.984 1_565 S
N1161 C1154 1.356 . S
N1161 H1164 0.984 . S
N1161 H1165 0.985 . S
H1162 N1157 0.984 . S
H1163 N1157 0.985 . S
H1164 N1161 0.984 . S
H1165 N1161 0.985 . S
H1166 N1160 0.984 . S
H1167 N1160 0.984 1_545 S
H1168 N1156 0.984 . S
H1169 N1156 0.985 . S
C1170 C1171 1.363 . S
C1170 C1176 1.379 . S
C1170 N1178 1.356 . S
C1171 C1170 1.363 . S
C1171 C1177 1.363 . S
C1172 C1173 1.363 1_455 S
C1172 C1177 1.379 . S
C1172 N1179 1.356 1_455 S
C1173 C1172 1.363 1_655 S
C1173 C1176 1.363 1_655 S
N1174 C1176 1.356 . S
N1174 H1186 0.984 . S
N1174 H1187 0.985 1_455 S
N1175 C1177 1.356 . S
N1175 H1180 0.984 . S
N1175 H1181 0.985 . S
C1176 C1170 1.379 . S
C1176 C1173 1.363 1_455 S
C1176 N1174 1.356 . S
C1177 C1171 1.363 . S
C1177 C1172 1.379 . S
C1177 N1175 1.356 . S
N1178 C1170 1.356 . S
N1178 H1184 0.984 . S
N1178 H1185 0.984 . S
N1179 C1172 1.356 1_655 S
N1179 H1182 0.984 . S
N1179 H1183 0.985 . S
H1180 N1175 0.984 . S
H1181 N1175 0.985 . S
H1182 N1179 0.984 . S
H1183 N1179 0.985 . S
H1184 N1178 0.984 . S
H1185 N1178 0.984 . S
H1186 N1174 0.984 . S
H1187 N1174 0.985 1_655 S
C1188 C1189 1.363 . S
C1188 C1194 1.379 . S
C1188 N1196 1.356 . S
C1189 C1188 1.363 . S
C1189 C1195 1.363 . S
C1190 C1191 1.363 . S
C1190 C1195 1.379 . S
C1190 N1197 1.356 . S
C1191 C1190 1.363 . S
C1191 C1194 1.363 . S
N1192 C1194 1.356 . S
N1192 H1204 0.984 . S
N1192 H1205 0.985 . S
N1193 C1195 1.356 . S
N1193 H1198 0.984 . S
N1193 H1199 0.985 . S
C1194 C1188 1.379 . S
C1194 C1191 1.363 . S
C1194 N1192 1.356 . S
C1195 C1189 1.363 . S
C1195 C1190 1.379 . S
C1195 N1193 1.356 . S
N1196 C1188 1.356 . S
N1196 H1202 0.984 . S
N1196 H1203 0.984 . S
N1197 C1190 1.356 . S
N1197 H1200 0.984 . S
N1197 H1201 0.985 . S
H1198 N1193 0.984 . S
H1199 N1193 0.985 . S
H1200 N1197 0.984 . S
H1201 N1197 0.985 . S
H1202 N1196 0.984 . S
H1203 N1196 0.984 . S
H1204 N1192 0.984 . S
H1205 N1192 0.985 . S
C1206 C1207 1.363 . S
C1206 C1212 1.379 . S
C1206 N1214 1.356 . S
C1207 C1206 1.363 . S
C1207 C1213 1.363 . S
C1208 C1209 1.363 . S
C1208 C1213 1.379 . S
C1208 N1215 1.356 . S
C1209 C1208 1.363 . S
C1209 C1212 1.363 . S
N1210 C1212 1.356 . S
N1210 H1222 0.984 . S
N1210 H1223 0.985 . S
N1211 C1213 1.356 . S
N1211 H1216 0.984 . S
N1211 H1217 0.985 . S
C1212 C1206 1.379 . S
C1212 C1209 1.363 . S
C1212 N1210 1.356 . S
C1213 C1207 1.363 . S
C1213 C1208 1.379 . S
C1213 N1211 1.356 . S
N1214 C1206 1.356 . S
N1214 H1220 0.984 . S
N1214 H1221 0.984 . S
N1215 C1208 1.356 . S
N1215 H1218 0.984 . S
N1215 H1219 0.985 . S
H1216 N1211 0.984 . S
H1217 N1211 0.985 . S
H1218 N1215 0.984 . S
H1219 N1215 0.985 . S
H1220 N1214 0.984 . S
H1221 N1214 0.984 . S
H1222 N1210 0.984 . S
H1223 N1210 0.985 . S
C1224 C1225 1.363 . S
C1224 C1230 1.379 . S
C1224 N1232 1.356 . S
C1225 C1224 1.363 . S
C1225 C1231 1.363 . S
C1226 C1227 1.363 . S
C1226 C1231 1.379 . S
C1226 N1233 1.356 . S
C1227 C1226 1.363 . S
C1227 C1230 1.363 . S
N1228 C1230 1.356 . S
N1228 H1240 0.984 . S
N1228 H1241 0.985 . S
N1229 C1231 1.356 . S
N1229 H1234 0.984 . S
N1229 H1235 0.985 . S
C1230 C1224 1.379 . S
C1230 C1227 1.363 . S
C1230 N1228 1.356 . S
C1231 C1225 1.363 . S
C1231 C1226 1.379 . S
C1231 N1229 1.356 . S
N1232 C1224 1.356 . S
N1232 H1238 0.984 . S
N1232 H1239 0.984 . S
N1233 C1226 1.356 . S
N1233 H1236 0.984 . S
N1233 H1237 0.985 . S
H1234 N1229 0.984 . S
H1235 N1229 0.985 . S
H1236 N1233 0.984 . S
H1237 N1233 0.985 . S
H1238 N1232 0.984 . S
H1239 N1232 0.984 . S
H1240 N1228 0.984 . S
H1241 N1228 0.985 . S
C1242 C1243 1.363 . S
C1242 C1248 1.379 . S
C1242 N1250 1.356 . S
C1243 C1242 1.363 . S
C1243 C1249 1.363 . S
C1244 C1245 1.363 . S
C1244 C1249 1.379 . S
C1244 N1251 1.356 . S
C1245 C1244 1.363 . S
C1245 C1248 1.363 . S
N1246 C1248 1.356 . S
N1246 H1258 0.984 . S
N1246 H1259 0.985 . S
N1247 C1249 1.356 . S
N1247 H1252 0.984 . S
N1247 H1253 0.985 . S
C1248 C1242 1.379 . S
C1248 C1245 1.363 . S
C1248 N1246 1.356 . S
C1249 C1243 1.363 . S
C1249 C1244 1.379 . S
C1249 N1247 1.356 . S
N1250 C1242 1.356 . S
N1250 H1256 0.984 . S
N1250 H1257 0.984 . S
N1251 C1244 1.356 . S
N1251 H1254 0.984 . S
N1251 H1255 0.985 . S
H1252 N1247 0.984 . S
H1253 N1247 0.985 . S
H1254 N1251 0.984 . S
H1255 N1251 0.985 . S
H1256 N1250 0.984 . S
H1257 N1250 0.984 . S
H1258 N1246 0.984 . S
H1259 N1246 0.985 . S
C1260 C1261 1.363 . S
C1260 C1266 1.379 . S
C1260 N1268 1.356 . S
C1261 C1260 1.363 . S
C1261 C1267 1.363 . S
C1262 C1263 1.363 . S
C1262 C1267 1.379 . S
C1262 N1269 1.356 . S
C1263 C1262 1.363 . S
C1263 C1266 1.363 . S
N1264 C1266 1.356 . S
N1264 H1276 0.984 . S
N1264 H1277 0.985 . S
N1265 C1267 1.356 . S
N1265 H1270 0.984 . S
N1265 H1271 0.985 . S
C1266 C1260 1.379 . S
C1266 C1263 1.363 . S
C1266 N1264 1.356 . S
C1267 C1261 1.363 . S
C1267 C1262 1.379 . S
C1267 N1265 1.356 . S
N1268 C1260 1.356 . S
N1268 H1274 0.984 . S
N1268 H1275 0.984 . S
N1269 C1262 1.356 . S
N1269 H1272 0.984 . S
N1269 H1273 0.985 . S
H1270 N1265 0.984 . S
H1271 N1265 0.985 . S
H1272 N1269 0.984 . S
H1273 N1269 0.985 . S
H1274 N1268 0.984 . S
H1275 N1268 0.984 . S
H1276 N1264 0.984 . S
H1277 N1264 0.985 . S
C1278 C1279 1.363 . S
C1278 C1284 1.379 . S
C1278 N1286 1.356 . S
C1279 C1278 1.363 . S
C1279 C1285 1.363 . S
C1280 C1281 1.363 . S
C1280 C1285 1.379 . S
C1280 N1287 1.356 . S
C1281 C1280 1.363 . S
C1281 C1284 1.363 . S
N1282 C1284 1.356 . S
N1282 H1294 0.984 . S
N1282 H1295 0.985 . S
N1283 C1285 1.356 . S
N1283 H1288 0.984 . S
N1283 H1289 0.985 . S
C1284 C1278 1.379 . S
C1284 C1281 1.363 . S
C1284 N1282 1.356 . S
C1285 C1279 1.363 . S
C1285 C1280 1.379 . S
C1285 N1283 1.356 . S
N1286 C1278 1.356 . S
N1286 H1292 0.984 . S
N1286 H1293 0.984 . S
N1287 C1280 1.356 . S
N1287 H1290 0.984 . S
N1287 H1291 0.985 . S
H1288 N1283 0.984 . S
H1289 N1283 0.985 . S
H1290 N1287 0.984 . S
H1291 N1287 0.985 . S
H1292 N1286 0.984 . S
H1293 N1286 0.984 . S
H1294 N1282 0.984 . S
H1295 N1282 0.985 . S
C1296 C1297 1.363 . S
C1296 C1302 1.379 . S
C1296 N1304 1.356 . S
C1297 C1296 1.363 . S
C1297 C1303 1.363 . S
C1298 C1299 1.363 . S
C1298 C1303 1.379 . S
C1298 N1305 1.356 . S
C1299 C1298 1.363 . S
C1299 C1302 1.363 . S
N1300 C1302 1.356 . S
N1300 H1312 0.984 . S
N1300 H1313 0.985 . S
N1301 C1303 1.356 . S
N1301 H1306 0.984 . S
N1301 H1307 0.985 . S
C1302 C1296 1.379 . S
C1302 C1299 1.363 . S
C1302 N1300 1.356 . S
C1303 C1297 1.363 . S
C1303 C1298 1.379 . S
C1303 N1301 1.356 . S
N1304 C1296 1.356 . S
N1304 H1310 0.984 . S
N1304 H1311 0.984 . S
N1305 C1298 1.356 . S
N1305 H1308 0.984 . S
N1305 H1309 0.985 . S
H1306 N1301 0.984 . S
H1307 N1301 0.985 . S
H1308 N1305 0.984 . S
H1309 N1305 0.985 . S
H1310 N1304 0.984 . S
H1311 N1304 0.984 . S
H1312 N1300 0.984 . S
H1313 N1300 0.985 . S
C1314 C1315 1.363 . S
C1314 C1320 1.379 . S
C1314 N1322 1.356 . S
C1315 C1314 1.363 . S
C1315 C1321 1.363 . S
C1316 C1317 1.363 . S
C1316 C1321 1.379 . S
C1316 N1323 1.356 . S
C1317 C1316 1.363 . S
C1317 C1320 1.363 . S
N1318 C1320 1.356 . S
N1318 H1330 0.984 . S
N1318 H1331 0.985 . S
N1319 C1321 1.356 . S
N1319 H1324 0.984 . S
N1319 H1325 0.985 . S
C1320 C1314 1.379 . S
C1320 C1317 1.363 . S
C1320 N1318 1.356 . S
C1321 C1315 1.363 . S
C1321 C1316 1.379 . S
C1321 N1319 1.356 . S
N1322 C1314 1.356 . S
N1322 H1328 0.984 . S
N1322 H1329 0.984 . S
N1323 C1316 1.356 . S
N1323 H1326 0.984 . S
N1323 H1327 0.985 . S
H1324 N1319 0.984 . S
H1325 N1319 0.985 . S
H1326 N1323 0.984 . S
H1327 N1323 0.985 . S
H1328 N1322 0.984 . S
H1329 N1322 0.984 . S
H1330 N1318 0.984 . S
H1331 N1318 0.985 . S
C1332 C1333 1.363 . S
C1332 C1338 1.379 . S
C1332 N1340 1.356 . S
C1333 C1332 1.363 . S
C1333 C1339 1.363 . S
C1334 C1335 1.363 . S
C1334 C1339 1.379 . S
C1334 N1341 1.356 . S
C1335 C1334 1.363 . S
C1335 C1338 1.363 . S
N1336 C1338 1.356 . S
N1336 H1348 0.984 . S
N1336 H1349 0.985 . S
N1337 C1339 1.356 . S
N1337 H1342 0.984 . S
N1337 H1343 0.985 . S
C1338 C1332 1.379 . S
C1338 C1335 1.363 . S
C1338 N1336 1.356 . S
C1339 C1333 1.363 . S
C1339 C1334 1.379 . S
C1339 N1337 1.356 . S
N1340 C1332 1.356 . S
N1340 H1346 0.984 . S
N1340 H1347 0.984 . S
N1341 C1334 1.356 . S
N1341 H1344 0.984 . S
N1341 H1345 0.985 . S
H1342 N1337 0.984 . S
H1343 N1337 0.985 . S
H1344 N1341 0.984 . S
H1345 N1341 0.985 . S
H1346 N1340 0.984 . S
H1347 N1340 0.984 . S
H1348 N1336 0.984 . S
H1349 N1336 0.985 . S
C1350 C1351 1.363 . S
C1350 C1356 1.379 . S
C1350 N1358 1.356 . S
C1351 C1350 1.363 . S
C1351 C1357 1.363 . S
C1352 C1353 1.363 . S
C1352 C1357 1.379 . S
C1352 N1359 1.356 . S
C1353 C1352 1.363 . S
C1353 C1356 1.363 . S
N1354 C1356 1.356 . S
N1354 H1366 0.984 . S
N1354 H1367 0.985 . S
N1355 C1357 1.356 . S
N1355 H1360 0.984 . S
N1355 H1361 0.985 . S
C1356 C1350 1.379 . S
C1356 C1353 1.363 . S
C1356 N1354 1.356 . S
C1357 C1351 1.363 . S
C1357 C1352 1.379 . S
C1357 N1355 1.356 . S
N1358 C1350 1.356 . S
N1358 H1364 0.984 . S
N1358 H1365 0.984 . S
N1359 C1352 1.356 . S
N1359 H1362 0.984 . S
N1359 H1363 0.985 . S
H1360 N1355 0.984 . S
H1361 N1355 0.985 . S
H1362 N1359 0.984 . S
H1363 N1359 0.985 . S
H1364 N1358 0.984 . S
H1365 N1358 0.984 . S
H1366 N1354 0.984 . S
H1367 N1354 0.985 . S
C1368 C1369 1.363 . S
C1368 C1374 1.379 . S
C1368 N1376 1.356 . S
C1369 C1368 1.363 . S
C1369 C1375 1.363 . S
C1370 C1371 1.363 . S
C1370 C1375 1.379 . S
C1370 N1377 1.356 . S
C1371 C1370 1.363 . S
C1371 C1374 1.363 . S
N1372 C1374 1.356 . S
N1372 H1384 0.984 . S
N1372 H1385 0.985 . S
N1373 C1375 1.356 . S
N1373 H1378 0.984 . S
N1373 H1379 0.985 . S
C1374 C1368 1.379 . S
C1374 C1371 1.363 . S
C1374 N1372 1.356 . S
C1375 C1369 1.363 . S
C1375 C1370 1.379 . S
C1375 N1373 1.356 . S
N1376 C1368 1.356 . S
N1376 H1382 0.984 . S
N1376 H1383 0.984 . S
N1377 C1370 1.356 . S
N1377 H1380 0.984 . S
N1377 H1381 0.985 . S
H1378 N1373 0.984 . S
H1379 N1373 0.985 . S
H1380 N1377 0.984 . S
H1381 N1377 0.985 . S
H1382 N1376 0.984 . S
H1383 N1376 0.984 . S
H1384 N1372 0.984 . S
H1385 N1372 0.985 . S
C1386 C1387 1.363 . S
C1386 C1392 1.379 . S
C1386 N1394 1.356 . S
C1387 C1386 1.363 . S
C1387 C1393 1.363 . S
C1388 C1389 1.363 . S
C1388 C1393 1.379 . S
C1388 N1395 1.356 . S
C1389 C1388 1.363 . S
C1389 C1392 1.363 . S
N1390 C1392 1.356 . S
N1390 H1402 0.984 . S
N1390 H1403 0.985 . S
N1391 C1393 1.356 . S
N1391 H1396 0.984 . S
N1391 H1397 0.985 . S
C1392 C1386 1.379 . S
C1392 C1389 1.363 . S
C1392 N1390 1.356 . S
C1393 C1387 1.363 . S
C1393 C1388 1.379 . S
C1393 N1391 1.356 . S
N1394 C1386 1.356 . S
N1394 H1400 0.984 . S
N1394 H1401 0.984 . S
N1395 C1388 1.356 . S
N1395 H1398 0.984 . S
N1395 H1399 0.985 . S
H1396 N1391 0.984 . S
H1397 N1391 0.985 . S
H1398 N1395 0.984 . S
H1399 N1395 0.985 . S
H1400 N1394 0.984 . S
H1401 N1394 0.984 . S
H1402 N1390 0.984 . S
H1403 N1390 0.985 . S
C595 N332 1.665 . S
C597 N2 1.665 . S
C613 N35 1.665 . S
C615 N365 1.665 . S
C631 N299 1.665 . S
C633 N68 1.665 . S
C649 N464 1.665 . S
C651 N101 1.665 . S
C667 N134 1.665 . S
C669 N398 1.665 . S
C685 N431 1.665 . S
C687 N167 1.665 . S
C703 C172 1.773 . S
C705 C469 1.773 . S
C721 C403 1.773 . S
C723 C106 1.773 . S
C739 C436 1.773 1_655 S
C741 C139 1.773 . S
C757 C40 1.773 . S
C759 C337 1.773 . S
C775 C73 1.773 . S
C777 C370 1.773 1_565 S
C793 C7 1.773 . S
C795 C304 1.773 . S
C811 N530 1.665 . S
C813 N200 1.665 . S
C829 N563 1.665 . S
C831 N233 1.665 . S
C847 N497 1.665 . S
C849 N266 1.665 . S
C865 C238 1.773 . S
C867 C535 1.773 . S
C883 C568 1.773 . S
C885 C271 1.773 . S
C901 C205 1.773 . S
C903 C502 1.773 . S
C919 C21 1.422 . S
C921 C582 1.422 . S
C937 C54 1.422 . S
C939 C516 1.422 . S
C955 C87 1.422 . S
C957 C549 1.422 . S
C973 C252 1.422 . S
C975 C120 1.422 . S
C991 C153 1.422 . S
C993 C285 1.422 . S
C1009 C186 1.422 . S
C1011 C219 1.422 . S
C1027 C318 1.422 . S
C1029 C450 1.417 1_655 S
C1045 C351 1.422 . S
C1047 C483 1.422 . S
C1063 C384 1.417 1_565 S
C1065 C417 1.422 . S
C1081 N79 1.554 . S
C1083 C18 1.565 . S
C1099 C51 1.565 . S
C1101 N13 1.554 . S
C1117 N46 1.554 . S
C1119 C84 1.565 . S
C1135 N145 1.554 . S
C1137 C117 1.565 . S
C1153 C150 1.565 . S
C1155 N178 1.554 . S
C1171 N112 1.554 . S
C1173 C183 1.565 . S
C1189 C216 1.565 . S
C1191 N277 1.554 . S
C1207 N211 1.554 . S
C1209 C249 1.565 . S
C1225 C282 1.565 . S
C1227 N244 1.554 . S
C1243 C315 1.565 . S
C1245 N343 1.554 . S
C1261 N376 1.554 . S
C1263 C348 1.565 . S
C1279 C381 1.565 . S
C1281 N310 1.554 . S
C1297 C414 1.565 . S
C1299 N475 1.554 . S
C1315 N409 1.554 . S
C1317 C447 1.565 . S
C1333 C480 1.565 . S
C1335 N442 1.554 . S
C1351 C513 1.565 . S
C1353 N541 1.554 . S
C1369 N574 1.554 . S
C1371 C546 1.565 . S
C1387 N508 1.554 . S
C1389 C579 1.565 . S
