# Generated by pormake.
# Topology smd, (6)-cn, num edge types: 1
# Building blocks:
#     Node 0, Type 0, BuildingBlock: UKALOJ_clean_sbu_0, # of connection points: 6
#     Node 1, Type 0, BuildingBlock: UKALOJ_clean_sbu_0, # of connection points: 6
#     Node 2, Type 0, BuildingBlock: UKALOJ_clean_sbu_0, # of connection points: 6
#     Node 3, Type 0, BuildingBlock: UKALOJ_clean_sbu_0, # of connection points: 6
#     Node 4, Type 0, BuildingBlock: UKALOJ_clean_sbu_0, # of connection points: 6
#     Node 5, Type 0, BuildingBlock: UKALOJ_clean_sbu_0, # of connection points: 6
#     Node 6, Type 0, BuildingBlock: UKALOJ_clean_sbu_0, # of connection points: 6
#     Node 7, Type 0, BuildingBlock: UKALOJ_clean_sbu_0, # of connection points: 6
#     Node 8, Type 0, BuildingBlock: UKALOJ_clean_sbu_0, # of connection points: 6
#     Node 9, Type 0, BuildingBlock: UKALOJ_clean_sbu_0, # of connection points: 6
#     Node 10, Type 0, BuildingBlock: UKALOJ_clean_sbu_0, # of connection points: 6
#     Node 11, Type 0, BuildingBlock: UKALOJ_clean_sbu_0, # of connection points: 6
#     Node 12, Type 0, BuildingBlock: UKALOJ_clean_sbu_0, # of connection points: 6
#     Node 13, Type 0, BuildingBlock: UKALOJ_clean_sbu_0, # of connection points: 6
#     Node 14, Type 0, BuildingBlock: UKALOJ_clean_sbu_0, # of connection points: 6
#     Node 15, Type 0, BuildingBlock: UKALOJ_clean_sbu_0, # of connection points: 6
#     Node 16, Type 0, BuildingBlock: UKALOJ_clean_sbu_0, # of connection points: 6
#     Node 17, Type 0, BuildingBlock: UKALOJ_clean_sbu_0, # of connection points: 6
#     Edge 18, Type (0, 0), BuildingBlock: CIFDUS_clean_linker_0, # of connection points: 2
#     Edge 19, Type (0, 0), BuildingBlock: CIFDUS_clean_linker_0, # of connection points: 2
#     Edge 20, Type (0, 0), BuildingBlock: CIFDUS_clean_linker_0, # of connection points: 2
#     Edge 21, Type (0, 0), BuildingBlock: CIFDUS_clean_linker_0, # of connection points: 2
#     Edge 22, Type (0, 0), BuildingBlock: CIFDUS_clean_linker_0, # of connection points: 2
#     Edge 23, Type (0, 0), BuildingBlock: CIFDUS_clean_linker_0, # of connection points: 2
#     Edge 24, Type (0, 0), BuildingBlock: CIFDUS_clean_linker_0, # of connection points: 2
#     Edge 25, Type (0, 0), BuildingBlock: CIFDUS_clean_linker_0, # of connection points: 2
#     Edge 26, Type (0, 0), BuildingBlock: CIFDUS_clean_linker_0, # of connection points: 2
#     Edge 27, Type (0, 0), BuildingBlock: CIFDUS_clean_linker_0, # of connection points: 2
#     Edge 28, Type (0, 0), BuildingBlock: CIFDUS_clean_linker_0, # of connection points: 2
#     Edge 29, Type (0, 0), BuildingBlock: CIFDUS_clean_linker_0, # of connection points: 2
#     Edge 30, Type (0, 0), BuildingBlock: CIFDUS_clean_linker_0, # of connection points: 2
#     Edge 31, Type (0, 0), BuildingBlock: CIFDUS_clean_linker_0, # of connection points: 2
#     Edge 32, Type (0, 0), BuildingBlock: CIFDUS_clean_linker_0, # of connection points: 2
#     Edge 33, Type (0, 0), BuildingBlock: CIFDUS_clean_linker_0, # of connection points: 2
#     Edge 34, Type (0, 0), BuildingBlock: CIFDUS_clean_linker_0, # of connection points: 2
#     Edge 35, Type (0, 0), BuildingBlock: CIFDUS_clean_linker_0, # of connection points: 2
#     Edge 36, Type (0, 0), BuildingBlock: CIFDUS_clean_linker_0, # of connection points: 2
#     Edge 37, Type (0, 0), BuildingBlock: CIFDUS_clean_linker_0, # of connection points: 2
#     Edge 38, Type (0, 0), BuildingBlock: CIFDUS_clean_linker_0, # of connection points: 2
#     Edge 39, Type (0, 0), BuildingBlock: CIFDUS_clean_linker_0, # of connection points: 2
#     Edge 40, Type (0, 0), BuildingBlock: CIFDUS_clean_linker_0, # of connection points: 2
#     Edge 41, Type (0, 0), BuildingBlock: CIFDUS_clean_linker_0, # of connection points: 2
#     Edge 42, Type (0, 0), BuildingBlock: CIFDUS_clean_linker_0, # of connection points: 2
#     Edge 43, Type (0, 0), BuildingBlock: CIFDUS_clean_linker_0, # of connection points: 2
#     Edge 44, Type (0, 0), BuildingBlock: CIFDUS_clean_linker_0, # of connection points: 2
#     Edge 45, Type (0, 0), BuildingBlock: CIFDUS_clean_linker_0, # of connection points: 2
#     Edge 46, Type (0, 0), BuildingBlock: CIFDUS_clean_linker_0, # of connection points: 2
#     Edge 47, Type (0, 0), BuildingBlock: CIFDUS_clean_linker_0, # of connection points: 2
#     Edge 48, Type (0, 0), BuildingBlock: CIFDUS_clean_linker_0, # of connection points: 2
#     Edge 49, Type (0, 0), BuildingBlock: CIFDUS_clean_linker_0, # of connection points: 2
#     Edge 50, Type (0, 0), BuildingBlock: CIFDUS_clean_linker_0, # of connection points: 2
#     Edge 51, Type (0, 0), BuildingBlock: CIFDUS_clean_linker_0, # of connection points: 2
#     Edge 52, Type (0, 0), BuildingBlock: CIFDUS_clean_linker_0, # of connection points: 2
#     Edge 53, Type (0, 0), BuildingBlock: CIFDUS_clean_linker_0, # of connection points: 2
#     Edge 54, Type (0, 0), BuildingBlock: CIFDUS_clean_linker_0, # of connection points: 2
#     Edge 55, Type (0, 0), BuildingBlock: CIFDUS_clean_linker_0, # of connection points: 2
#     Edge 56, Type (0, 0), BuildingBlock: CIFDUS_clean_linker_0, # of connection points: 2
#     Edge 57, Type (0, 0), BuildingBlock: CIFDUS_clean_linker_0, # of connection points: 2
#     Edge 58, Type (0, 0), BuildingBlock: CIFDUS_clean_linker_0, # of connection points: 2
#     Edge 59, Type (0, 0), BuildingBlock: CIFDUS_clean_linker_0, # of connection points: 2
#     Edge 60, Type (0, 0), BuildingBlock: CIFDUS_clean_linker_0, # of connection points: 2
#     Edge 61, Type (0, 0), BuildingBlock: CIFDUS_clean_linker_0, # of connection points: 2
#     Edge 62, Type (0, 0), BuildingBlock: CIFDUS_clean_linker_0, # of connection points: 2
#     Edge 63, Type (0, 0), BuildingBlock: CIFDUS_clean_linker_0, # of connection points: 2
#     Edge 64, Type (0, 0), BuildingBlock: CIFDUS_clean_linker_0, # of connection points: 2
#     Edge 65, Type (0, 0), BuildingBlock: CIFDUS_clean_linker_0, # of connection points: 2
#     Edge 66, Type (0, 0), BuildingBlock: CIFDUS_clean_linker_0, # of connection points: 2
#     Edge 67, Type (0, 0), BuildingBlock: CIFDUS_clean_linker_0, # of connection points: 2
#     Edge 68, Type (0, 0), BuildingBlock: CIFDUS_clean_linker_0, # of connection points: 2
#     Edge 69, Type (0, 0), BuildingBlock: CIFDUS_clean_linker_0, # of connection points: 2
#     Edge 70, Type (0, 0), BuildingBlock: CIFDUS_clean_linker_0, # of connection points: 2
#     Edge 71, Type (0, 0), BuildingBlock: CIFDUS_clean_linker_0, # of connection points: 2
# Relax obj value: 0.275
# Max RMSD: 0.246
# Mean RMSD: 0.202
data_MOF--net-smd--node1-UKALOJ_clean_sbu_0--edge1-CIFDUS_clean_linker_0
_symmetry_space_group_name_H-M    P1
_symmetry_Int_Tables_number       1
_symmetry_cell_setting            triclinic
loop_
_symmetry_equiv_pos_as_xyz
'x, y, z'
_cell_length_a     76.229187
_cell_length_b     68.567092
_cell_length_c     13.42737
_cell_angle_alpha  88.755332
_cell_angle_beta   88.585286
_cell_angle_gamma 120.22977
loop_
_atom_site_label
_atom_site_type_symbol
_atom_site_fract_x
_atom_site_fract_y
_atom_site_fract_z
_atom_type_partial_charge
Zn0 Zn 0.04851 0.34515 0.37189 0.0
O1 O 0.03383 0.3103 0.39261 0.0
C2 C 0.06329 0.34969 0.57916 0.0
Zn3 Zn 0.0776 0.34512 0.37966 0.0
C4 C 0.04267 0.29912 0.40689 0.0
O5 O 0.06194 0.30918 0.40497 0.0
C6 C 0.08327 0.39139 0.34172 0.0
O7 O 0.07678 0.34141 0.22403 0.0
O8 O 0.04819 0.34194 0.21519 0.0
N9 N 0.10479 0.34672 0.38643 0.0
C10 C 0.11272 0.33523 0.3426 0.0
C11 C 0.13474 0.35835 0.43988 0.0
N12 N 0.11846 0.36103 0.44681 0.0
N13 N 0.13152 0.34225 0.37519 0.0
C14 C 1.0059 0.3325 0.4485 0.0
C15 C 1.00463 0.3619 0.4085 0.0
N16 N 1.02126 0.34461 0.38077 0.0
N17 N 1.02019 0.36271 0.35464 0.0
N18 N 0.99558 0.34323 0.46922 0.0
H19 H 0.99865 0.29812 0.4374 0.0
H20 H 0.98667 0.30266 0.5429 0.0
H21 H 1.0135 0.31233 0.54313 0.0
C22 C 1.00094 0.31019 0.49618 0.0
C23 C 0.10303 0.31932 0.25993 0.0
H24 H 0.08627 0.31103 0.26653 0.0
H25 H 0.10744 0.30625 0.25768 0.0
H26 H 0.10831 0.32919 0.18807 0.0
O27 O 0.09321 0.38119 0.35251 0.0
O28 O 0.064 0.38015 0.34962 0.0
C29 C 0.06277 0.34085 0.17231 0.0
O30 O 0.04928 0.34879 0.52719 0.0
O31 O 0.07787 0.34879 0.53632 0.0
Zn32 Zn 0.83921 0.91545 0.54274 0.0
O33 O 0.841 0.94659 0.52484 0.0
C34 C 0.8525 0.91801 0.33101 0.0
Zn35 Zn 0.87282 0.93142 0.52462 0.0
C36 C 0.85804 0.96417 0.5044 0.0
O37 O 0.87406 0.96285 0.50084 0.0
C38 C 0.85329 0.88235 0.56362 0.0
O39 O 0.87526 0.93631 0.67893 0.0
O40 O 0.84198 0.91914 0.6991 0.0
N41 N 0.90363 0.94805 0.50302 0.0
C42 C 0.91826 0.94449 0.5376 0.0
C43 C 0.93271 0.97351 0.43854 0.0
N44 N 0.91266 0.96614 0.4419 0.0
N45 N 0.93664 0.9602 0.49784 0.0
C46 C 0.79474 0.90118 0.50292 0.0
C47 C 0.77842 0.86856 0.57482 0.0
N48 N 0.80808 0.89843 0.55667 0.0
N49 N 0.79784 0.87823 0.60233 0.0
N50 N 0.7761 0.88255 0.51156 0.0
H51 H 0.805 0.93625 0.50357 0.0
H52 H 0.78618 0.92189 0.41474 0.0
H53 H 0.81183 0.92738 0.39075 0.0
C54 C 0.79964 0.92277 0.44878 0.0
C55 C 0.9146 0.92641 0.6139 0.0
H56 H 0.92843 0.93133 0.65641 0.0
H57 H 0.91048 0.91056 0.57573 0.0
H58 H 0.90186 0.92309 0.66637 0.0
O59 O 0.87102 0.89948 0.55122 0.0
O60 O 0.83789 0.8847 0.55964 0.0
C61 C 0.85947 0.92865 0.73631 0.0
O62 O 0.83691 0.91174 0.38794 0.0
O63 O 0.86986 0.92637 0.3687 0.0
Zn64 Zn 0.30386 0.14411 0.36351 0.0
O65 O 0.30085 0.1724 0.35169 0.0
C66 C 0.28197 0.13066 0.56409 0.0
Zn67 Zn 0.2703 0.12342 0.35498 0.0
C68 C 0.28429 0.17244 0.34871 0.0
O69 O 0.26762 0.15366 0.35304 0.0
C70 C 0.29169 0.09619 0.36348 0.0
O71 O 0.27444 0.12641 0.19864 0.0
O72 O 0.30779 0.14545 0.20587 0.0
N73 N 0.23948 0.10374 0.34652 0.0
C74 C 0.22734 0.0826 0.31604 0.0
C75 C 0.2082 0.09356 0.38161 0.0
N76 N 0.22753 0.11055 0.38657 0.0
N77 N 0.20764 0.07574 0.33818 0.0
C78 C 0.34301 0.18032 0.45169 0.0
C79 C 0.36357 0.1687 0.41982 0.0
N80 N 0.3343 0.16401 0.3849 0.0
N81 N 0.34726 0.15705 0.36398 0.0
N82 N 0.36119 0.18326 0.47654 0.0
H83 H 0.33175 0.2029 0.42573 0.0
H84 H 0.34465 0.2074 0.53955 0.0
H85 H 0.31942 0.18338 0.53002 0.0
C86 C 0.3342 0.19419 0.4897 0.0
C87 C 0.23471 0.06931 0.25955 0.0
H88 H 0.24842 0.08079 0.21244 0.0
H89 H 0.22271 0.05711 0.21163 0.0
H90 H 0.2387 0.05972 0.31297 0.0
O91 O 0.27419 0.09403 0.35447 0.0
O92 O 0.30694 0.11569 0.37248 0.0
C93 C 0.29192 0.13628 0.15454 0.0
O94 O 0.29929 0.14189 0.51991 0.0
O95 O 0.26635 0.12054 0.5125 0.0
Zn96 Zn 0.0885 0.90088 0.48095 0.0
O97 O 0.11635 0.93201 0.44962 0.0
C98 C 0.07594 0.90351 0.27285 0.0
Zn99 Zn 0.07253 0.92056 0.46963 0.0
C100 C 0.11653 0.95038 0.43078 0.0
O101 O 0.09989 0.95042 0.43357 0.0
C102 C 0.04454 0.87148 0.5294 0.0
O103 O 0.07682 0.92666 0.62387 0.0
O104 O 0.09158 0.90624 0.63693 0.0
N105 N 0.0574 0.93812 0.45841 0.0
C106 C 0.04017 0.93491 0.50408 0.0
C107 C 0.04849 0.96048 0.39016 0.0
N108 N 0.06267 0.95421 0.38823 0.0
N109 N 0.03417 0.94851 0.46216 0.0
C110 C 0.11576 0.88169 0.41108 0.0
C111 C 0.11252 0.85921 0.53136 0.0
N112 N 0.10406 0.88352 0.48322 0.0
N113 N 0.10219 0.86963 0.55822 0.0
N114 N 0.12109 0.86645 0.43909 0.0
H115 H 0.12315 0.91156 0.32016 0.0
H116 H 0.13805 0.89855 0.29078 0.0
H117 H 0.11216 0.88554 0.25568 0.0
C118 C 0.12271 0.89527 0.31434 0.0
C119 C 0.02929 0.91879 0.59053 0.0
H120 H 0.03997 0.9161 0.63496 0.0
H121 H 1.02149 0.92524 0.63908 0.0
H122 H 1.01759 0.90248 0.56174 0.0
O123 O 0.04513 0.89004 0.5095 0.0
O124 O 0.0606 0.87037 0.51675 0.0
C125 C 0.08465 0.91775 0.67772 0.0
O126 O 0.08445 0.89539 0.32596 0.0
O127 O 0.06867 0.91452 0.31442 0.0
Zn128 Zn 0.31552 0.34054 0.32445 0.0
O129 O 0.3045 0.30546 0.33185 0.0
C130 C 0.30077 0.33945 0.53659 0.0
Zn131 Zn 0.28299 0.33082 0.34219 0.0
C132 C 0.28622 0.29002 0.35053 0.0
O133 O 0.27279 0.29554 0.36441 0.0
C134 C 0.31223 0.38144 0.30712 0.0
O135 O 0.28235 0.32698 0.18742 0.0
O136 O 0.31513 0.33922 0.16697 0.0
N137 N 0.2536 0.3234 0.34939 0.0
C138 C 0.24405 0.33305 0.30497 0.0
C139 C 0.22282 0.30778 0.40927 0.0
N140 N 0.24036 0.3076 0.41361 0.0
N141 N 0.22473 0.32369 0.34208 0.0
C142 C 0.35134 0.33685 0.40138 0.0
C143 C 0.37666 0.36951 0.36746 0.0
N144 N 0.34514 0.34717 0.33559 0.0
N145 N 0.36107 0.36741 0.31373 0.0
N146 N 0.37089 0.35058 0.42383 0.0
H147 H 0.33294 0.3012 0.38637 0.0
H148 H 0.34677 0.30857 0.49741 0.0
H149 H 0.32491 0.31197 0.48846 0.0
C150 C 0.33824 0.31342 0.44662 0.0
C151 C 0.25339 0.35089 0.22273 0.0
H152 H 0.26502 0.34931 0.17858 0.0
H153 H 0.2416 0.34976 0.17244 0.0
H154 H 0.26091 0.36776 0.25559 0.0
O155 O 0.29349 0.36639 0.31697 0.0
O156 O 0.32558 0.37557 0.31239 0.0
C157 C 0.29775 0.33214 0.13017 0.0
O158 O 0.3155 0.34228 0.48034 0.0
O159 O 0.28402 0.33449 0.49862 0.0
Zn160 Zn 0.84848 0.1097 0.47541 0.0
O161 O 0.85363 0.08306 0.46342 0.0
C162 C 0.86797 0.12756 0.27584 0.0
Zn163 Zn 0.88168 0.13392 0.48598 0.0
C164 C 0.87146 0.08613 0.46453 0.0
O165 O 0.88642 0.10592 0.47329 0.0
C166 C 0.85733 0.15647 0.50616 0.0
O167 O 0.8795 0.12946 0.64193 0.0
O168 O 0.84672 0.10557 0.6336 0.0
N169 N 0.91264 0.15436 0.48626 0.0
C170 C 0.92592 0.17336 0.53124 0.0
C171 C 0.94305 0.16469 0.43295 0.0
N172 N 0.9234 0.14896 0.4262 0.0
N173 N 0.94534 0.18045 0.49805 0.0
C174 C 0.80645 0.07149 0.40691 0.0
C175 C 0.78592 0.07651 0.49826 0.0
N176 N 0.81772 0.08813 0.46908 0.0
N177 N 0.80488 0.09104 0.52632 0.0
N178 N 0.78648 0.06392 0.42394 0.0
H179 H 0.8316 0.07355 0.31746 0.0
H180 H 0.81021 0.04575 0.33966 0.0
H181 H 0.80842 0.0648 0.25285 0.0
C182 C 0.81487 0.06371 0.32458 0.0
C183 C 0.91951 0.1844 0.60751 0.0
H184 H 0.90282 0.17573 0.61782 0.0
H185 H 0.92538 0.18322 0.68074 0.0
H186 H 0.92553 0.20242 0.58554 0.0
O187 O 0.87582 0.16127 0.50313 0.0
O188 O 0.84345 0.13647 0.49033 0.0
C189 C 0.86231 0.11643 0.68546 0.0
O190 O 0.85085 0.11456 0.31943 0.0
O191 O 0.8835 0.13822 0.32782 0.0
Zn192 Zn 0.73331 0.67271 0.96577 0.0
O193 O 0.73286 0.67051 0.12155 0.0
C194 C 0.70992 0.69935 0.97475 0.0
Zn195 Zn 0.75327 0.71011 0.97207 0.0
C196 C 0.74169 0.68799 0.17312 0.0
O197 O 0.7515 0.70747 0.12961 0.0
C198 C 0.7444 0.69457 0.7645 0.0
O199 O 0.77832 0.70426 0.97327 0.0
O200 O 0.7605 0.66777 0.95852 0.0
N201 N 0.77365 0.74423 0.97051 0.0
C202 C 0.78938 0.75708 0.90552 0.0
C203 C 0.7874 0.77923 0.00803 0.0
N204 N 0.77254 0.75803 0.03456 0.0
N205 N 0.79812 0.7791 0.92694 0.0
C206 C 0.69407 0.62458 -0.00655 0.0
C207 C 0.703 0.60426 0.91381 0.0
N208 N 0.71353 0.63824 0.95995 0.0
N209 N 0.71901 0.6255 0.9108 0.0
N210 N 0.68705 0.60316 0.96479 0.0
H211 H 0.69296 0.64589 0.10598 0.0
H212 H 0.67108 0.61768 0.10781 0.0
H213 H 0.67441 0.63815 0.01181 0.0
C214 C 0.68249 0.63197 0.05905 0.0
C215 C 0.79679 0.74819 0.82301 0.0
H216 H 0.79323 0.73074 0.83878 0.0
H217 H 0.81347 0.75905 0.8098 0.0
H218 H 0.78934 0.7482 0.75335 0.0
O219 O 0.75414 0.71186 0.8158 0.0
O220 O 0.734 0.67529 0.80849 0.0
C221 C 0.77791 0.68561 0.96486 0.0
O222 O 0.70736 0.67939 0.9739 0.0
O223 O 0.72803 0.71603 0.97246 0.0
Zn224 Zn 0.48377 0.21441 0.01793 0.0
O225 O 0.49708 0.24903 0.02301 0.0
C226 C 0.49734 0.21593 0.80346 0.0
Zn227 Zn 0.51388 0.21664 -0.00351 0.0
C228 C 0.51587 0.26255 0.0078 0.0
O229 O 0.52754 0.25446 -0.0078 0.0
C230 C 0.47907 0.16804 0.00773 0.0
O231 O 0.51462 0.2166 0.1528 0.0
O232 O 0.48429 0.21286 0.17424 0.0
N233 N 0.54286 0.22115 -0.01474 0.0
C234 C 0.55178 0.20952 0.0175 0.0
C235 C 0.57498 0.24008 0.94598 0.0
N236 N 0.55737 0.24007 0.94072 0.0
N237 N 0.57197 0.2211 -0.0063 0.0
C238 C 0.45012 0.22306 0.95552 0.0
C239 C 0.42372 0.1911 -0.01315 0.0
N240 N 0.45551 0.21125 0.01678 0.0
N241 N 0.43893 0.19151 0.03773 0.0
N242 N 0.43041 0.21058 0.93306 0.0
H243 H 0.47654 0.24843 0.87053 0.0
H244 H 0.47053 0.25788 0.98376 0.0
H245 H 0.45564 0.2538 0.87727 0.0
C246 C 0.46398 0.2471 0.91902 0.0
C247 C 0.54092 0.18763 0.0769 0.0
H248 H 0.5285 0.18694 0.12449 0.0
H249 H 0.55158 0.18538 0.12399 0.0
H250 H 0.5341 0.17354 0.02495 0.0
O251 O 0.49854 0.17868 0.00057 0.0
O252 O 0.47021 0.17944 0.01545 0.0
C253 C 0.50033 0.21474 0.21064 0.0
O254 O 0.48371 0.21555 0.86087 0.0
O255 O 0.51281 0.21667 0.84052 0.0
Zn256 Zn 0.91405 0.39659 0.01199 0.0
O257 O 0.88319 0.36966 0.00711 0.0
C258 C 0.91197 0.40936 0.80017 0.0
Zn259 Zn 0.90371 0.42164 -0.00277 0.0
C260 C 0.86829 0.37303 0.00139 0.0
O261 O 0.87195 0.39337 -0.00122 0.0
C262 C 0.94994 0.44424 0.00706 0.0
O263 O 0.90199 0.42175 0.1535 0.0
O264 O 0.91141 0.39628 0.16915 0.0
N265 N 0.89329 0.44398 0.98363 0.0
C266 C 0.9004 0.46566 0.00768 0.0
C267 C 0.8738 0.4555 0.92531 0.0
N268 N 0.87668 0.43773 0.93327 0.0
N269 N 0.88841 0.47325 0.97174 0.0
C270 C 0.92036 0.35864 0.94541 0.0
C271 C 0.95054 0.37024 -0.0115 0.0
N272 N 0.92466 0.37446 0.01332 0.0
N273 N 0.94333 0.38134 0.04156 0.0
N274 N 0.93657 0.35615 0.92571 0.0
H275 H 0.88834 0.33711 0.96927 0.0
H276 H 0.89871 0.32965 0.86566 0.0
H277 H 0.89572 0.35421 0.85544 0.0
C278 C 0.89965 0.34409 0.90586 0.0
C279 C 0.91983 0.47974 0.05899 0.0
H280 H 0.92252 0.46909 0.11266 0.0
H281 H 0.91955 0.49359 0.09867 0.0
H282 H 0.93256 0.48738 0.00231 0.0
O283 O 0.93592 0.44907 -0.00424 0.0
O284 O 0.94482 0.42356 0.01658 0.0
C285 C 0.90605 0.40932 0.20868 0.0
O286 O 0.91692 0.3978 0.85523 0.0
O287 O 0.90542 0.42118 0.84026 0.0
Zn288 Zn 0.72392 0.21008 0.97684 0.0
O289 O 0.7265 0.20901 0.13213 0.0
C290 C 0.70575 0.15877 0.9827 0.0
Zn291 Zn 0.74747 0.20006 0.95888 0.0
C292 C 0.73896 0.20418 0.17122 0.0
O293 O 0.75025 0.19986 0.11544 0.0
C294 C 0.73179 0.20554 0.76452 0.0
O295 O 0.7705 0.23367 0.94946 0.0
O296 O 0.74975 0.2466 0.96957 0.0
N297 N 0.769 0.19085 0.93511 0.0
C298 C 0.78309 0.19703 0.85982 0.0
C299 C 0.78336 0.17066 0.94467 0.0
N300 N 0.76938 0.17461 -0.01144 0.0
N301 N 0.79237 0.18478 0.86455 0.0
C302 C 0.68377 0.21237 0.02625 0.0
C303 C 0.69394 0.2459 0.97119 0.0
N304 N 0.70321 0.2211 -0.00876 0.0
N305 N 0.70935 0.2419 0.95708 0.0
N306 N 0.67759 0.22766 0.01418 0.0
H307 H 0.68143 0.1853 0.11972 0.0
H308 H 0.6594 0.18882 0.12723 0.0
H309 H 0.6642 0.17674 0.0192 0.0
C310 C 0.67145 0.18951 0.07668 0.0
C311 C 0.78731 0.21406 0.77699 0.0
H312 H 0.78058 0.22469 0.79215 0.0
H313 H 0.80399 0.22507 0.76435 0.0
H314 H 0.78134 0.20515 0.70708 0.0
O315 O 0.74363 0.19989 0.80373 0.0
O316 O 0.72147 0.21107 0.8204 0.0
C317 C 0.76795 0.25045 0.9566 0.0
O318 O 0.69965 0.17312 -0.01473 0.0
O319 O 0.72469 0.16619 0.97101 0.0
Zn320 Zn 0.91137 0.65868 0.9652 0.0
O321 O 0.91184 0.66214 0.12059 0.0
C322 C 0.9574 0.6811 0.96183 0.0
Zn323 Zn 0.9258 0.69621 0.9454 0.0
C324 C 0.91852 0.6813 0.15861 0.0
O325 O 0.92519 0.69892 0.1019 0.0
C326 C 0.91817 0.6726 0.75188 0.0
O327 O 0.89612 0.69394 0.94066 0.0
O328 O 0.8817 0.65716 0.96373 0.0
N329 N 0.94178 0.73107 0.92597 0.0
C330 C 0.94731 0.74466 0.84298 0.0
C331 C 0.96685 0.76418 0.95622 0.0
N332 N 0.95384 0.74344 -0.00338 0.0
N333 N 0.96309 0.76531 0.85953 0.0
C334 C 0.90236 0.60995 0.0262 0.0
C335 C 0.87585 0.58977 0.94522 0.0
N336 N 0.89705 0.62407 0.9825 0.0
N337 N 0.88045 0.61141 0.93319 0.0
N338 N 0.88931 0.58835 0.0036 0.0
H339 H 0.92605 0.63398 0.11665 0.0
H340 H 0.91878 0.60489 0.14289 0.0
H341 H 0.93354 0.61919 0.03143 0.0
C342 C 0.92123 0.6175 0.08307 0.0
C343 C 0.93763 0.73801 0.74482 0.0
H344 H 0.92134 0.72494 0.75555 0.0
H345 H 0.93891 0.75293 0.70372 0.0
H346 H 0.94591 0.73164 0.6996 0.0
O347 O 0.92576 0.69193 0.78918 0.0
O348 O 0.9109 0.65517 0.80956 0.0
C349 C 0.87989 0.67466 0.95203 0.0
O350 O 0.94137 0.66163 0.96589 0.0
O351 O 0.95529 0.69833 0.95279 0.0
Zn352 Zn 0.52742 0.42912 0.95435 0.0
O353 O 0.52848 0.42705 0.11039 0.0
C354 C 0.49867 0.44675 0.98056 0.0
Zn355 Zn 0.49536 0.40064 0.97546 0.0
C356 C 0.51346 0.41389 0.16855 0.0
O357 O 0.49641 0.40015 0.13262 0.0
C358 C 0.50955 0.41645 0.761 0.0
O359 O 0.50369 0.37564 0.97174 0.0
O360 O 0.53544 0.4022 0.94161 0.0
N361 N 0.46491 0.37688 0.97358 0.0
C362 C 0.45641 0.36278 0.89816 0.0
C363 C 0.43517 0.37206 0.94957 0.0
N364 N 0.45146 0.38225 0.00667 0.0
N365 N 0.43797 0.36006 0.87886 0.0
C366 C 0.56995 0.4736 0.98073 0.0
C367 C 0.58903 0.46604 0.89093 0.0
N368 N 0.55792 0.45322 0.94186 0.0
N369 N 0.56989 0.4487 0.88596 0.0
N370 N 0.58958 0.482 0.9497 0.0
H371 H 0.57455 0.4948 0.10504 0.0
H372 H 0.5587 0.49585 0.01035 0.0
H373 H 0.54872 0.47163 0.09501 0.0
C374 C 0.56257 0.48453 0.05263 0.0
C375 C 0.46523 0.34966 0.85208 0.0
H376 H 0.47117 0.34326 0.9111 0.0
H377 H 0.45351 0.33497 0.81278 0.0
H378 H 0.47799 0.36057 0.79885 0.0
O379 O 0.49501 0.40237 0.81847 0.0
O380 O 0.52612 0.43078 0.79787 0.0
C381 C 0.52212 0.38125 0.95485 0.0
O382 O 0.51785 0.4548 0.96885 0.0
O383 O 0.48712 0.42548 0.98255 0.0
Zn384 Zn 0.36728 0.99321 0.07717 0.0
O385 O 0.34174 0.95968 0.08925 0.0
C386 C 0.38101 0.98685 0.27213 0.0
Zn387 Zn 0.38969 0.98106 0.06036 0.0
C388 C 0.34438 0.94287 0.08118 0.0
O389 O 0.36257 0.94664 0.06858 0.0
C390 C 0.41143 0.0318 0.05431 0.0
O391 O 0.38829 0.98176 0.90407 0.0
O392 O 0.36569 0.99253 0.9211 0.0
N393 N 0.40873 0.96741 0.05373 0.0
C394 C 0.42773 0.97443 0.01581 0.0
C395 C 0.41663 0.94174 0.08355 0.0
N396 N 0.40201 0.94711 0.0958 0.0
N397 N 0.43308 0.9586 0.03397 0.0
C398 C 0.33591 1.00782 0.152 0.0
C399 C 0.33396 0.02429 0.01996 0.0
N400 N 0.34819 1.00652 0.08132 0.0
N401 N 0.34682 0.01672 -0.00057 0.0
N402 N 0.32687 0.01896 0.11532 0.0
H403 H 0.33213 0.98108 0.25283 0.0
H404 H 0.31704 0.99373 0.28632 0.0
H405 H 0.34402 1.00888 0.3032 0.0
C406 C 0.33194 0.99714 0.25455 0.0
C407 C 0.4404 0.9961 0.95659 0.0
H408 H 0.43054 1.0007 0.91484 0.0
H409 H 0.4511 0.9947 0.90376 0.0
H410 H 0.44933 1.00974 0.00833 0.0
O411 O 0.41543 0.01581 0.05302 0.0
O412 O 0.39292 0.02675 0.06327 0.0
C413 C 0.37631 0.98734 0.86529 0.0
O414 O 0.36978 0.99354 0.23339 0.0
O415 O 0.39078 0.98056 0.2163 0.0
Zn416 Zn 0.13671 0.55419 0.05988 0.0
O417 O 0.14345 0.58718 0.03828 0.0
C418 C 0.1553 0.55734 0.86155 0.0
Zn419 Zn 0.17112 0.567 0.07032 0.0
C420 C 0.16102 0.6047 0.03584 0.0
O421 O 0.17664 0.60245 0.04776 0.0
C422 C 0.14404 0.51649 0.1011 0.0
O423 O 0.16972 0.56955 0.22611 0.0
O424 O 0.13692 0.55747 0.21643 0.0
N425 N 0.20307 0.57681 0.06443 0.0
C426 C 0.21481 0.57086 0.11778 0.0
C427 C 0.23259 0.58948 -0.01124 0.0
N428 N 0.21443 0.58841 -0.0154 0.0
N429 N 0.23348 0.57852 0.07146 0.0
C430 C 0.08866 0.52338 0.03147 0.0
C431 C 0.07741 0.5434 0.09379 0.0
N432 N 0.10504 0.54264 0.06095 0.0
N433 N 0.09784 0.55497 0.09935 0.0
N434 N 0.07101 0.52332 0.05187 0.0
H435 H 0.10509 0.51273 0.93564 0.0
H436 H 0.07781 0.49703 0.9251 0.0
H437 H 0.08932 0.49259 0.03256 0.0
C438 C 0.09029 0.50543 0.97752 0.0
C439 C 0.20742 0.5563 0.21147 0.0
H440 H 0.19063 0.54704 0.21915 0.0
H441 H 0.21338 0.56717 0.27644 0.0
H442 H 0.21305 0.54419 0.2127 0.0
O443 O 0.16281 0.53174 0.09521 0.0
O444 O 0.13065 0.52177 0.08391 0.0
C445 C 0.15254 0.56384 0.26852 0.0
O446 O 0.13818 0.55169 0.90401 0.0
O447 O 0.17086 0.56373 0.91373 0.0
Zn448 Zn 0.60567 0.7691 0.00796 0.0
O449 O 0.6086 0.77373 0.85117 0.0
C450 C 0.63634 0.75261 -0.00599 0.0
Zn451 Zn 0.6379 0.79757 0.01506 0.0
C452 C 0.62507 0.78858 0.80676 0.0
O453 O 0.64013 0.8016 0.85784 0.0
C454 C 0.61846 0.77776 0.21642 0.0
O455 O 0.62936 0.82207 0.02582 0.0
O456 O 0.5971 0.79642 0.0202 0.0
N457 N 0.66796 0.82121 0.02329 0.0
C458 C 0.67831 0.83582 0.09422 0.0
C459 C 0.70003 0.834 -0.00197 0.0
N460 N 0.68152 0.82033 0.9629 0.0
N461 N 0.69845 0.84377 0.08112 0.0
C462 C 0.56243 0.7231 0.03351 0.0
C463 C 0.54375 0.73244 0.95432 0.0
N464 N 0.57468 0.74456 -0.00296 0.0
N465 N 0.5629 0.75017 0.94807 0.0
N466 N 0.54281 0.71502 0.00759 0.0
H467 H 0.58363 0.72293 0.1364 0.0
H468 H 0.57349 0.70023 0.05242 0.0
H469 H 0.55771 0.69986 0.15582 0.0
C470 C 0.56968 0.71086 0.099 0.0
C471 C 0.66887 0.84346 0.17187 0.0
H472 H 0.65615 0.84463 0.14106 0.0
H473 H 0.68019 0.86024 0.19866 0.0
H474 H 0.66291 0.8312 0.23601 0.0
O475 O 0.63494 0.79263 0.17219 0.0
O476 O 0.60333 0.76506 0.16512 0.0
C477 C 0.61095 0.8172 0.02741 0.0
O478 O 0.61692 0.74382 -0.00537 0.0
O479 O 0.64712 0.77372 0.00348 0.0
Zn480 Zn 0.41399 0.55352 0.1262 0.0
O481 O 0.43609 0.58708 0.10181 0.0
C482 C 0.39958 0.55287 0.91941 0.0
Zn483 Zn 0.38908 0.56326 0.11887 0.0
C484 C 0.43286 0.60335 0.08837 0.0
O485 O 0.41438 0.59919 0.09015 0.0
C486 C 0.37332 0.51328 0.16598 0.0
O487 O 0.39155 0.5679 0.27315 0.0
O488 O 0.41464 0.55771 0.28337 0.0
N489 N 0.36543 0.57215 0.12105 0.0
C490 C 0.34717 0.56442 0.07792 0.0
C491 C 0.34989 0.58899 0.17975 0.0
N492 N 0.36684 0.58742 0.18407 0.0
N493 N 0.33701 0.57473 0.11372 0.0
C494 C 0.44105 0.5308 0.08035 0.0
C495 C 0.46406 0.54616 0.1861 0.0
N496 N 0.43688 0.54478 0.13286 0.0
N497 N 0.45125 0.55419 0.19855 0.0
N498 N 0.45809 0.53136 0.11238 0.0
H499 H 0.43577 0.53143 0.92657 0.0
H500 H 0.43206 0.50485 0.97056 0.0
H501 H 0.41336 0.51279 0.00233 0.0
C502 C 0.42982 0.51901 -0.00952 0.0
C503 C 0.33893 0.54577 0.006 0.0
H504 H 0.346 0.53516 0.01538 0.0
H505 H 0.32217 0.53518 0.01646 0.0
H506 H 0.34261 0.55322 0.92887 0.0
O507 O 0.36659 0.52691 0.15326 0.0
O508 O 0.39214 0.52046 0.15262 0.0
C509 C 0.40315 0.5639 0.32541 0.0
O510 O 0.41185 0.54969 0.97054 0.0
O511 O 0.38769 0.55842 0.96239 0.0
Zn512 Zn 0.63142 0.98045 0.02749 0.0
O513 O 0.62285 0.94591 0.03672 0.0
C514 C 0.61187 0.97589 0.22571 0.0
Zn515 Zn 0.59929 0.97313 0.01511 0.0
C516 C 0.60446 0.93066 0.02631 0.0
O517 O 0.59112 0.93663 0.01451 0.0
C518 C 0.62891 0.02344 0.01532 0.0
O519 O 0.60184 0.97461 0.8594 0.0
O520 O 0.63272 0.98004 0.86994 0.0
N521 N 0.56864 0.96401 0.01283 0.0
C522 C 0.55872 0.97504 -0.01267 0.0
C523 C 0.53641 0.94242 0.04516 0.0
N524 N 0.55463 0.94374 0.0484 0.0
N525 N 0.53843 0.96188 0.00764 0.0
C526 C 0.67453 0.9924 0.10108 0.0
C527 C 0.69312 1.01179 0.9754 0.0
N528 N 0.66193 0.99058 0.02832 0.0
N529 N 0.67363 1.00235 0.94966 0.0
N530 N 0.69414 1.0057 0.07009 0.0
H531 H 0.65302 0.96712 0.20692 0.0
H532 H 0.67928 0.97976 0.23954 0.0
H533 H 0.66677 0.99588 0.24984 0.0
C534 C 0.66787 0.98307 0.20546 0.0
C535 C 0.5688 0.99801 0.93681 0.0
H536 H 0.58174 1.0005 0.8877 0.0
H537 H 0.55789 1.00024 0.89171 0.0
H538 H 0.57468 1.011 -0.00588 0.0
O539 O 0.60971 1.00992 0.01425 0.0
O540 O 0.64039 0.01502 0.01909 0.0
C541 C 0.61813 0.97752 0.81716 0.0
O542 O 0.62876 0.98066 0.18372 0.0
O543 O 0.59691 0.97167 0.17245 0.0
Zn544 Zn 0.17429 0.77252 0.07079 0.0
O545 O 0.17172 0.76808 0.22667 0.0
C546 C 0.15069 0.79613 0.08795 0.0
Zn547 Zn 0.13981 0.74807 0.0597 0.0
C548 C 0.15433 0.75547 0.26977 0.0
O549 O 0.13864 0.7449 0.21791 0.0
C550 C 0.15984 0.76522 0.8606 0.0
O551 O 0.14545 0.72011 0.04888 0.0
O552 O 0.17842 0.74367 0.05986 0.0
N553 N 0.10736 0.72715 0.05489 0.0
C554 C 0.0932 0.73151 0.01728 0.0
C555 C 0.077 0.699 0.08951 0.0
N556 N 0.09708 0.70683 0.09938 0.0
N557 N 0.07392 0.71418 0.03881 0.0
C558 C 0.21769 0.8162 0.10776 0.0
C559 C 0.23759 0.81002 0.01784 0.0
N560 N 0.20619 0.79546 0.06993 0.0
N561 N 0.21876 0.79177 0.01451 0.0
N562 N 0.23753 0.82591 0.07521 0.0
H563 H 0.1966 0.81253 0.22621 0.0
H564 H 0.22154 0.83736 0.23152 0.0
H565 H 0.20403 0.83611 0.14029 0.0
C566 C 0.20955 0.82612 0.18111 0.0
C567 C 0.09839 0.75226 0.95502 0.0
H568 H 0.08676 0.74845 0.89886 0.0
H569 H 0.09891 0.76534 0.00399 0.0
H570 H 0.11344 0.75921 0.91631 0.0
O571 O 0.1426 0.75221 0.9037 0.0
O572 O 0.17541 0.77602 0.91264 0.0
C573 C 0.16358 0.72353 0.05199 0.0
O574 O 0.16875 0.7997 0.08654 0.0
O575 O 0.13601 0.77643 0.0737 0.0
H576 H 0.10788 0.48917 0.19163 0.0
H577 H 0.16437 0.49239 0.10943 0.0
H578 H 0.15105 0.45402 0.18313 0.0
H579 H 0.12238 0.41903 0.26605 0.0
H580 H 0.06684 0.41825 0.34863 0.0
H581 H 0.08099 0.45649 0.28024 0.0
C582 C 0.11735 0.48152 0.18857 0.0
C583 C 0.13693 0.49342 0.14287 0.0
C584 C 0.10979 0.45997 0.2321 0.0
C585 C 0.14913 0.48344 0.14292 0.0
C586 C 0.14152 0.46157 0.18533 0.0
C587 C 0.11354 0.4274 0.27027 0.0
C588 C 0.09349 0.41568 0.3119 0.0
C589 C 0.12177 0.4496 0.22977 0.0
C590 C 0.08221 0.42674 0.31652 0.0
C591 C 0.09026 0.44862 0.27715 0.0
H592 H 0.77845 0.89036 0.31345 0.0
H593 H 0.73627 0.85786 0.56407 0.0
H594 H 0.70775 0.84339 0.45198 0.0
H595 H 0.69552 0.8384 0.28198 0.0
H596 H 0.73767 0.87332 0.03331 0.0
H597 H 0.76591 0.88896 0.14636 0.0
C598 C 0.76299 0.88092 0.34416 0.0
C599 C 0.75935 0.87582 0.4473 0.0
C600 C 0.74685 0.87312 0.27978 0.0
C601 C 0.7393 0.86228 0.48511 0.0
C602 C 0.72309 0.85405 0.42115 0.0
C603 C 0.7107 0.85023 0.25278 0.0
C604 C 0.71444 0.85526 0.14951 0.0
C605 C 0.72673 0.85928 0.31827 0.0
C606 C 0.73446 0.8695 0.11262 0.0
C607 C 0.75055 0.87835 0.17708 0.0
H608 H 0.27515 0.06321 0.22906 0.0
H609 H 0.31762 0.0878 0.46459 0.0
H610 H 0.33056 0.06306 0.41645 0.0
H611 H 0.33357 0.03922 0.2909 0.0
H612 H 0.29326 0.01707 0.04675 0.0
H613 H 0.27572 0.03595 0.11373 0.0
C614 C 0.28673 0.06251 0.27177 0.0
C615 C 0.29534 0.07716 0.3506 0.0
C616 C 0.29478 0.04899 0.24059 0.0
C617 C 0.31071 0.07656 0.40393 0.0
C618 C 0.31823 0.06256 0.37591 0.0
C619 C 0.3205 0.03789 0.25454 0.0
C620 C 0.31452 0.02657 0.16475 0.0
C621 C 0.31094 0.04937 0.29199 0.0
C622 C 0.29801 0.02563 0.11625 0.0
C623 C 0.28804 0.03646 0.15441 0.0
H624 H 0.40135 0.20609 0.49909 0.0
H625 H 0.34369 0.17816 0.6599 0.0
H626 H 0.36054 0.18715 0.81807 0.0
H627 H 0.39136 0.19831 0.91156 0.0
H628 H 0.44891 0.22545 0.75003 0.0
H629 H 0.43266 0.22147 0.59284 0.0
C630 C 0.39262 0.20243 0.56891 0.0
C631 C 0.37141 0.1918 0.56775 0.0
C632 C 0.40238 0.2072 0.65993 0.0
C633 C 0.36009 0.18681 0.65862 0.0
C634 C 0.36968 0.19167 0.74927 0.0
C635 C 0.40031 0.20383 0.84192 0.0
C636 C 0.4213 0.2123 0.84299 0.0
C637 C 0.39077 0.20125 0.75099 0.0
C638 C 0.43278 0.21919 0.75205 0.0
C639 C 0.42346 0.21674 0.66158 0.0
H640 H 0.9636 0.34247 0.9037 0.0
H641 H 0.92235 0.35549 0.74029 0.0
H642 H 0.93583 0.35053 0.58411 0.0
H643 H 0.96214 0.3466 0.49088 0.0
H644 H 1.00523 0.33691 0.65421 0.0
H645 H 0.98861 0.33662 0.81152 0.0
C646 C 0.95728 0.34368 0.83392 0.0
C647 C 0.94167 0.34886 0.83497 0.0
C648 C 0.96573 0.34173 0.74329 0.0
C649 C 0.93385 0.35078 0.74345 0.0
C650 C 0.94182 0.34831 0.65312 0.0
C651 C 0.96757 0.34407 0.56112 0.0
C652 C 0.98452 0.34122 0.56087 0.0
C653 C 0.95813 0.34438 0.6519 0.0
C654 C 0.99181 0.33844 0.65229 0.0
C655 C 0.9824 0.33844 0.74247 0.0
H656 H 0.86259 0.87422 0.74473 0.0
H657 H 0.83369 0.84225 0.47617 0.0
H658 H 0.81459 0.80583 0.56732 0.0
H659 H 0.80115 0.78567 0.72754 0.0
H660 H 0.82865 0.81714 -0.00069 0.0
H661 H 0.85274 0.85183 0.90374 0.0
C662 C 0.85292 0.85898 0.70562 0.0
C663 C 0.84976 0.86063 0.60384 0.0
C664 C 0.84111 0.83843 0.75995 0.0
C665 C 0.83664 0.84111 0.55402 0.0
C666 C 0.82543 0.82044 0.60658 0.0
C667 C 0.81304 0.7996 0.76567 0.0
C668 C 0.81348 0.79862 0.8702 0.0
C669 C 0.8268 0.81921 0.71027 0.0
C670 C 0.82815 0.81753 0.91881 0.0
C671 C 0.84195 0.83725 0.86417 0.0
H672 H 0.03069 0.82597 0.5342 0.0
H673 H 1.01925 0.87603 0.65927 0.0
H674 H 0.99245 0.84767 0.76894 0.0
H675 H 0.97351 0.80872 0.83953 0.0
H676 H 0.98444 0.75819 0.71755 0.0
H677 H 1.01006 0.78624 0.59797 0.0
C678 C 0.02204 0.83052 0.5842 0.0
C679 C 0.02664 0.8531 0.58584 0.0
C680 C 1.00666 0.81395 0.64911 0.0
C681 C 1.01551 0.85876 0.65247 0.0
C682 C 1.00035 0.84253 0.71708 0.0
C683 C 0.98144 0.80399 0.78591 0.0
C684 C 0.97718 0.78162 0.78629 0.0
C685 C 0.99597 0.82014 0.71717 0.0
C686 C 0.98745 0.7754 0.71716 0.0
C687 C 1.00211 0.79142 0.64927 0.0
H688 H 0.408 0.35539 0.44302 0.0
H689 H 0.3544 0.34383 0.60892 0.0
H690 H 0.36961 0.3431 0.76563 0.0
H691 H 0.39893 0.34777 0.85631 0.0
H692 H 0.45314 0.36063 0.69048 0.0
H693 H 0.43685 0.35787 0.53492 0.0
C694 C 0.39973 0.35259 0.5137 0.0
C695 C 0.38011 0.34958 0.51476 0.0
C696 C 0.40861 0.35207 0.60394 0.0
C697 C 0.36949 0.34607 0.60664 0.0
C698 C 0.37816 0.3456 0.69617 0.0
C699 C 0.40705 0.34956 0.78614 0.0
C700 C 0.42722 0.3541 0.78679 0.0
C701 C 0.39779 0.34876 0.69587 0.0
C702 C 0.43751 0.35654 0.69445 0.0
C703 C 0.42828 0.35537 0.60433 0.0
H704 H 0.83248 0.20048 0.84014 0.0
H705 H 0.77486 0.16121 0.70564 0.0
H706 H 0.79128 0.15339 0.56559 0.0
H707 H 0.82114 0.15406 0.49311 0.0
H708 H 0.87885 0.19117 0.6311 0.0
H709 H 0.8637 0.20457 0.75512 0.0
C710 C 0.82373 0.19032 0.77957 0.0
C711 C 0.80257 0.181 0.78279 0.0
C712 C 0.83334 0.18587 0.69958 0.0
C713 C 0.79115 0.16815 0.70412 0.0
C714 C 0.80054 0.16385 0.62422 0.0
C715 C 0.83057 0.16563 0.54857 0.0
C716 C 0.851 0.17134 0.55365 0.0
C717 C 0.82153 0.1722 0.62238 0.0
C718 C 0.86308 0.18652 0.62526 0.0
C719 C 0.85432 0.19386 0.6974 0.0
H720 H 0.71859 0.9931 0.15622 0.0
H721 H 0.70613 0.0475 0.12527 0.0
H722 H 0.73352 0.07038 0.2363 0.0
H723 H 0.76119 0.07496 0.34082 0.0
H724 H 0.77447 0.02119 0.37174 0.0
H725 H 0.74677 0.99788 0.2622 0.0
C726 C 0.72209 1.01001 0.17394 0.0
C727 C 0.7107 0.01887 0.13281 0.0
C728 C 0.73793 0.02305 0.23753 0.0
C729 C 0.71502 0.04066 0.15592 0.0
C730 C 0.73055 0.05362 0.21944 0.0
C731 C 0.75786 0.05807 0.32378 0.0
C732 C 0.76982 0.04978 0.36311 0.0
C733 C 0.7421 0.045 0.26057 0.0
C734 C 0.76559 0.02798 0.34058 0.0
C735 C 0.74973 0.01466 0.27848 0.0
H736 H 0.11012 0.84904 0.25931 0.0
H737 H 0.15277 0.86168 0.48784 0.0
H738 H 0.16807 0.84376 0.38985 0.0
H739 H 0.16741 0.82204 0.24498 0.0
H740 H 0.12273 0.80665 0.02357 0.0
H741 H 0.11041 0.82875 0.11078 0.0
C742 C 0.12307 0.84831 0.28618 0.0
C743 C 0.13064 0.85695 0.37947 0.0
C744 C 0.13141 0.83762 0.23036 0.0
C745 C 0.14689 0.8552 0.41585 0.0
C746 C 0.1556 0.84503 0.35979 0.0
C747 C 0.1554 0.82413 0.21435 0.0
C748 C 0.14616 0.81309 0.12724 0.0
C749 C 0.14782 0.83595 0.26746 0.0
C750 C 0.13014 0.81521 0.09003 0.0
C751 C 0.12303 0.82769 0.14024 0.0
H752 H 0.33467 0.47791 0.12496 0.0
H753 H 0.38512 0.49714 0.31588 0.0
H754 H 0.37036 0.45852 0.3802 0.0
H755 H 0.34511 0.41855 0.37135 0.0
H756 H 0.29371 0.39797 0.18717 0.0
H757 H 0.30656 0.43739 0.13218 0.0
C758 C 0.3421 0.47364 0.18214 0.0
C759 C 0.36114 0.49037 0.21431 0.0
C760 C 0.33348 0.451 0.21944 0.0
C761 C 0.37061 0.48454 0.28855 0.0
C762 C 0.36222 0.46241 0.32555 0.0
C763 C 0.3366 0.42274 0.32015 0.0
C764 C 0.31855 0.40539 0.28332 0.0
C765 C 0.34401 0.44538 0.28951 0.0
C766 C 0.30757 0.41107 0.21754 0.0
C767 C 0.31501 0.43363 0.18547 0.0
H768 H 0.98245 0.43837 0.03729 0.0
H769 H 0.96762 0.49056 0.98349 0.0
H770 H 1.00365 0.51939 -0.01056 0.0
H771 H 0.03965 0.52998 0.01208 0.0
H772 H 0.05375 0.4775 0.07323 0.0
H773 H 1.01808 0.44886 0.06063 0.0
C774 C 0.98701 0.45604 0.02658 0.0
C775 C 0.97206 0.4621 0.00989 0.0
C776 C 1.00784 0.4726 0.03041 0.0
C777 C 0.97855 0.48521 -0.00345 0.0
C778 C 0.99925 0.50177 -0.00012 0.0
C779 C 0.03494 0.51226 0.0219 0.0
C780 C 0.04979 0.5061 0.04009 0.0
C781 C 1.01407 0.4957 0.01697 0.0
C782 C 0.04315 0.48296 0.05442 0.0
C783 C 0.02255 0.46648 0.04881 0.0
H784 H 0.7068 0.73298 0.88003 0.0
H785 H 0.67314 0.67528 0.08122 0.0
H786 H 0.64613 0.68476 0.10147 0.0
H787 H 0.63313 0.71186 0.07074 0.0
H788 H 0.66693 0.76763 0.85848 0.0
H789 H 0.69213 0.75636 0.83317 0.0
C790 C 0.69346 0.7223 0.92766 0.0
C791 C 0.69226 0.70352 0.97962 0.0
C792 C 0.67775 0.72756 0.93702 0.0
C793 C 0.67462 0.68982 0.04 0.0
C794 C 0.65912 0.69532 0.05185 0.0
C795 C 0.64567 0.72112 0.0169 0.0
C796 C 0.64791 0.74076 0.9668 0.0
C797 C 0.66056 0.71442 0.00171 0.0
C798 C 0.66462 0.75256 0.89848 0.0
C799 C 0.67925 0.7462 0.88411 0.0
H800 H 0.48765 0.13297 0.0433 0.0
H801 H 0.43968 0.14581 0.9631 0.0
H802 H 0.41543 0.10587 0.96974 0.0
H803 H 0.40666 0.06716 0.00406 0.0
H804 H 0.45302 0.05168 0.07957 0.0
H805 H 0.47868 0.09223 0.06863 0.0
C806 C 0.47195 0.12697 0.02639 0.0
C807 C 0.4657 0.14281 0.00411 0.0
C808 C 0.45755 0.10332 0.03012 0.0
C809 C 0.44516 0.13443 0.98218 0.0
C810 C 0.43109 0.11139 -0.0143 0.0
C811 C 0.42237 0.07252 0.01825 0.0
C812 C 0.42773 0.05623 0.04376 0.0
C813 C 0.43697 0.09571 0.01096 0.0
C814 C 0.44833 0.06374 0.06012 0.0
C815 C 0.46304 0.08701 0.05395 0.0
H816 H 0.66331 0.13035 0.96213 0.0
H817 H 0.71765 0.1298 0.04279 0.0
H818 H 0.69881 0.08923 0.06209 0.0
H819 H 0.66791 0.05352 0.05138 0.0
H820 H 0.61237 0.05089 0.97178 0.0
H821 H 0.63046 0.09255 0.95797 0.0
C822 C 0.67094 0.12133 -0.01548 0.0
C823 C 0.69216 0.13358 -0.00054 0.0
C824 C 0.6598 0.09721 -0.0044 0.0
C825 C 0.70157 0.12128 0.02887 0.0
C826 C 0.69076 0.09784 0.04044 0.0
C827 C 0.65956 0.06187 0.03105 0.0
C828 C 0.63872 0.0488 0.01204 0.0
C829 C 0.67002 0.08562 0.02289 0.0
C830 C 0.62838 0.06032 -0.01306 0.0
C831 C 0.6388 0.08424 0.97873 0.0
H832 H 0.03846 0.6759 0.00318 0.0
H833 H 0.06381 0.74722 0.04245 0.0
H834 H 0.0308 0.74356 0.0163 0.0
H835 H 0.99405 0.72001 -0.01295 0.0
H836 H 0.96801 0.64825 0.95733 0.0
H837 H 1.00146 0.65215 0.97589 0.0
C838 C 0.03681 0.69069 0.00534 0.0
C839 C 0.05415 0.71202 0.02097 0.0
C840 C 1.01738 0.68834 -0.00719 0.0
C841 C 0.05135 0.7308 0.02552 0.0
C842 C 0.03222 0.72864 0.01213 0.0
C843 C 0.99564 0.70518 -0.01595 0.0
C844 C 0.97823 0.6838 0.9705 0.0
C845 C 1.01507 0.70751 -0.00424 0.0
C846 C 0.98088 0.66491 0.9678 0.0
C847 C 1.00012 0.66714 0.97837 0.0
H848 H 0.44151 0.48672 0.08133 0.0
H849 H 0.49849 0.54929 0.07792 0.0
H850 H 0.51672 0.5294 0.03475 0.0
H851 H 0.51641 0.49344 0.0009 0.0
H852 H 0.45832 0.43166 -0.00222 0.0
H853 H 0.44089 0.45197 0.03651 0.0
C854 C 0.45782 0.49616 0.06732 0.0
C855 C 0.46849 0.51963 0.07939 0.0
C856 C 0.46817 0.48463 0.04143 0.0
C857 C 0.48984 0.53127 0.06746 0.0
C858 C 0.50029 0.51987 0.04278 0.0
C859 C 0.49996 0.48449 0.00767 0.0
C860 C 0.48892 0.46086 -0.00337 0.0
C861 C 0.48964 0.49644 0.02983 0.0
C862 C 0.46749 0.44972 0.00613 0.0
C863 C 0.45733 0.46134 0.02854 0.0
H864 H 0.17085 0.36854 0.32876 0.0
H865 H 0.12382 0.29921 0.38089 0.0
H866 H 0.14873 0.28693 0.36063 0.0
H867 H 0.18445 0.29647 0.34432 0.0
H868 H 0.23165 0.36646 0.31806 0.0
H869 H 0.20638 0.37802 0.31054 0.0
C870 C 0.16613 0.35074 0.33374 0.0
C871 C 0.14555 0.33471 0.35233 0.0
C872 C 0.18064 0.344 0.3269 0.0
C873 C 0.13946 0.31171 0.36147 0.0
C874 C 0.15375 0.30475 0.35172 0.0
C875 C 0.18911 0.3142 0.33539 0.0
C876 C 0.20991 0.33048 0.32796 0.0
C877 C 0.17444 0.32081 0.3363 0.0
C878 C 0.21584 0.35347 0.31861 0.0
C879 C 0.20135 0.36015 0.31625 0.0
H880 H 0.84421 0.04485 0.4071 0.0
H881 H 0.90476 0.08318 0.51556 0.0
H882 H 0.90665 0.04858 0.53159 0.0
H883 H 0.88953 1.00681 0.52874 0.0
H884 H 0.82873 0.96963 0.42225 0.0
H885 H 0.8284 1.00445 0.39243 0.0
C886 C 0.85791 0.04572 0.43368 0.0
C887 C 0.87419 0.06639 0.46153 0.0
C888 C 0.85869 0.02592 0.44446 0.0
C889 C 0.89198 0.06735 0.49401 0.0
C890 C 0.89301 0.04759 0.50373 0.0
C891 C 0.87631 1.00645 0.4985 0.0
C892 C 0.8589 0.98566 0.48079 0.0
C893 C 0.87623 0.02668 0.48149 0.0
C894 C 0.84196 0.98532 0.44035 0.0
C895 C 0.84185 1.00526 0.42211 0.0
H896 H 0.12112 0.98983 0.35648 0.0
H897 H 0.15531 0.95874 0.45236 0.0
H898 H 0.187 0.99476 0.42449 0.0
H899 H 0.20461 0.03571 0.38582 0.0
H900 H 0.17042 0.06657 0.28916 0.0
H901 H 0.13895 0.02994 0.30507 0.0
C902 C 0.1355 0.99087 0.37087 0.0
C903 C 0.13583 0.97169 0.40759 0.0
C904 C 0.15361 1.01158 0.35465 0.0
C905 C 0.15462 0.97328 0.42457 0.0
C906 C 0.17275 0.99388 0.40875 0.0
C907 C 0.19039 0.03426 0.36488 0.0
C908 C 0.18984 0.0537 0.33439 0.0
C909 C 0.17239 1.0132 0.37512 0.0
C910 C 0.17114 0.05174 0.31191 0.0
C911 C 0.1532 0.03086 0.32133 0.0
H912 H 0.30897 0.27382 0.27344 0.0
H913 H 0.25181 0.25226 0.4311 0.0
H914 H 0.24508 0.21319 0.43976 0.0
H915 H 0.25673 0.18545 0.40911 0.0
H916 H 0.31475 0.20928 0.25446 0.0
H917 H 0.31981 0.24704 0.23857 0.0
C918 C 0.29507 0.26067 0.31051 0.0
C919 C 0.28111 0.26606 0.35311 0.0
C920 C 0.29145 0.23854 0.31577 0.0
C921 C 0.2629 0.2486 0.39818 0.0
C922 C 0.25907 0.22627 0.40326 0.0
C923 C 0.27032 0.1989 0.37116 0.0
C924 C 0.28541 0.19453 0.33389 0.0
C925 C 0.27339 0.22104 0.36319 0.0
C926 C 0.303 0.21217 0.28504 0.0
C927 C 0.30594 0.23383 0.27565 0.0
H928 H 0.97813 0.19802 0.37209 0.0
H929 H 0.95713 0.21019 0.65316 0.0
H930 H 0.98677 0.24754 0.65295 0.0
H931 H 1.0171 0.27842 0.56437 0.0
H932 H 0.03925 0.26577 0.28944 0.0
H933 H 1.01122 0.22643 0.29858 0.0
C934 C 0.97999 0.2086 0.43433 0.0
C935 C 0.96433 0.20142 0.50901 0.0
C936 C 0.99757 0.22994 0.43568 0.0
C937 C 0.96768 0.21539 0.59017 0.0
C938 C 0.98504 0.23681 0.59145 0.0
C939 C 1.016 0.2668 0.508 0.0
C940 C 0.03 0.27471 0.4263 0.0
C941 C 0.99973 0.24449 0.51305 0.0
C942 C 0.02867 0.25977 0.35344 0.0
C943 C 1.01253 0.23745 0.35814 0.0
H944 H 0.02732 0.98277 0.48895 0.0
H945 H 0.99765 0.9109 0.45511 0.0
H946 H 0.9644 0.90785 0.47095 0.0
H947 H 0.94385 0.92592 0.48541 0.0
H948 H 0.97288 0.99783 0.51552 0.0
H949 H 1.00637 1.00085 0.50886 0.0
C950 C 1.01349 0.96652 0.48589 0.0
C951 C 1.01478 0.94702 0.47362 0.0
C952 C 0.99441 0.96498 0.49392 0.0
C953 C 0.99691 0.92599 0.46809 0.0
C954 C 0.97793 0.92429 0.47612 0.0
C955 C 0.95747 0.94211 0.4936 0.0
C956 C 0.95599 0.96155 0.50353 0.0
C957 C 0.97651 0.94366 0.4888 0.0
C958 C 0.97379 0.98265 0.50906 0.0
C959 C 0.99286 0.98436 0.505 0.0
H960 H 0.8703 0.70847 0.94702 0.0
H961 H 0.84208 0.63593 0.96006 0.0
H962 H 0.8084 0.6323 0.96373 0.0
H963 H 0.78631 0.64988 0.96462 0.0
H964 H 0.81573 0.7227 0.9553 0.0
H965 H 0.84878 0.72575 0.94876 0.0
C966 C 0.85684 0.69181 0.95044 0.0
C967 C 0.85908 0.67255 0.95304 0.0
C968 C 0.83732 0.68978 0.95334 0.0
C969 C 0.84115 0.65118 0.95792 0.0
C970 C 0.82172 0.64906 0.96005 0.0
C971 C 0.79992 0.66641 0.96104 0.0
C972 C 0.79803 0.68599 0.96047 0.0
C973 C 0.8195 0.66825 0.95801 0.0
C974 C 0.8162 0.70718 0.95602 0.0
C975 C 0.83538 0.70905 0.95221 0.0
H976 H 0.51612 0.35147 0.10488 0.0
H977 H 0.5393 0.36982 0.80131 0.0
H978 H 0.54219 0.33572 0.79236 0.0
H979 H 0.53406 0.298 0.86671 0.0
H980 H 0.51168 0.28122 0.17253 0.0
H981 H 0.513 0.31732 0.18574 0.0
C982 C 0.52225 0.34825 0.03751 0.0
C983 C 0.52751 0.36316 0.95396 0.0
C984 C 0.52403 0.32875 0.0335 0.0
C985 C 0.53533 0.35873 0.86696 0.0
C986 C 0.53686 0.33912 0.86177 0.0
C987 C 0.53029 0.3027 0.93719 0.0
C988 C 0.52308 0.28699 0.01922 0.0
C989 C 0.5308 0.32366 0.94398 0.0
C990 C 0.5176 0.2931 0.109 0.0
C991 C 0.51813 0.31368 0.1163 0.0
H992 H 0.77546 0.29231 0.02862 0.0
H993 H 0.80341 0.26091 0.8637 0.0
H994 H 0.83585 0.29541 0.86122 0.0
H995 H 0.85736 0.33385 0.91191 0.0
H996 H 0.83152 0.36756 0.07305 0.0
H997 H 0.79762 0.3334 0.06992 0.0
C998 C 0.78858 0.29316 -0.00905 0.0
C999 C 0.78668 0.27357 0.94726 0.0
C1000 C 0.80783 0.31357 -0.01024 0.0
C1001 C 0.80409 0.27529 0.89908 0.0
C1002 C 0.82287 0.29516 0.89749 0.0
C1003 C 0.84439 0.33379 0.94697 0.0
C1004 C 0.8472 0.3532 -0.00567 0.0
C1005 C 0.82506 0.31424 0.94412 0.0
C1006 C 0.82992 0.35287 0.03637 0.0
C1007 C 0.8105 0.33325 0.03477 0.0
H1008 H 0.89323 0.56482 0.85887 0.0
H1009 H 0.88914 0.56759 0.17764 0.0
H1010 H 0.89018 0.53245 0.1979 0.0
H1011 H 0.88996 0.49944 0.12242 0.0
H1012 H 0.89327 0.49694 0.80292 0.0
H1013 H 0.89485 0.53337 0.78434 0.0
C1014 C 0.89274 0.55772 0.93257 0.0
C1015 C 0.8913 0.56869 0.01667 0.0
C1016 C 0.89316 0.53756 0.94306 0.0
C1017 C 0.8906 0.55951 0.11211 0.0
C1018 C 0.89106 0.53939 0.12346 0.0
C1019 C 0.89149 0.50724 0.0492 0.0
C1020 C 0.89174 0.49581 0.96395 0.0
C1021 C 0.89212 0.52811 0.03933 0.0
C1022 C 0.89318 0.50564 0.86913 0.0
C1023 C 0.89402 0.52637 0.85862 0.0
H1024 H 0.59605 0.52471 0.94773 0.0
H1025 H 0.62459 0.4851 0.00016 0.0
H1026 H 0.65735 0.51946 0.01731 0.0
H1027 H 0.67846 0.5608 0.00401 0.0
H1028 H 0.65063 0.60084 0.94485 0.0
H1029 H 0.61712 0.56661 0.94574 0.0
C1030 C 0.60936 0.52368 0.96549 0.0
C1031 C 0.6079 0.50239 0.9735 0.0
C1032 C 0.62832 0.54365 0.9736 0.0
C1033 C 0.62539 0.50131 -0.00613 0.0
C1034 C 0.64411 0.52094 0.00344 0.0
C1035 C 0.66499 0.56198 -0.00727 0.0
C1036 C 0.66703 0.58336 0.9762 0.0
C1037 C 0.64586 0.5422 -0.00868 0.0
C1038 C 0.64947 0.58469 0.96073 0.0
C1039 C 0.6303 0.56506 0.96002 0.0
H1040 H 0.63929 0.19393 0.97858 0.0
H1041 H 0.67336 0.25977 0.10117 0.0
H1042 H 0.64275 0.26257 0.11521 0.0
H1043 H 0.60726 0.24835 0.07481 0.0
H1044 H 0.57247 0.18284 0.95185 0.0
H1045 H 0.60204 0.1775 0.95716 0.0
C1046 C 0.6398 0.20852 0.01117 0.0
C1047 C 0.6586 0.22664 0.03915 0.0
C1048 C 0.62202 0.21014 0.01789 0.0
C1049 C 0.65911 0.24567 0.07915 0.0
C1050 C 0.64162 0.24731 0.08688 0.0
C1051 C 0.60611 0.23273 0.05117 0.0
C1052 C 0.58779 0.216 0.01326 0.0
C1053 C 0.62315 0.22998 0.05376 0.0
C1054 C 0.58637 0.19582 0.98247 0.0
C1055 C 0.60334 0.19289 -0.01525 0.0
H1056 H 0.50056 0.93348 0.95251 0.0
H1057 H 0.5389 1.00064 0.05403 0.0
H1058 H 0.50986 1.00673 0.06173 0.0
H1059 H 0.47251 0.99143 0.05412 0.0
H1060 H 0.43449 0.92363 0.95817 0.0
H1061 H 0.46416 0.91925 0.93403 0.0
C1062 C 0.50259 0.94956 0.97489 0.0
C1063 C 0.522 0.96668 0.00087 0.0
C1064 C 0.48572 0.95275 0.98099 0.0
C1065 C 0.52433 0.98739 0.03074 0.0
C1066 C 0.50762 0.99077 0.03633 0.0
C1067 C 0.47086 0.97596 0.02552 0.0
C1068 C 0.45127 0.95791 0.0071 0.0
C1069 C 0.48812 0.97343 0.0132 0.0
C1070 C 0.44935 0.93774 0.97261 0.0
C1071 C 0.46633 0.93522 0.95902 0.0
H1072 H 0.14036 0.68241 0.97161 0.0
H1073 H 0.19574 0.7211 0.12599 0.0
H1074 H 0.20122 0.6888 0.12977 0.0
H1075 H 0.189 0.64809 0.09708 0.0
H1076 H 0.13423 0.61113 0.93464 0.0
H1077 H 0.13014 0.64391 0.92522 0.0
C1078 C 0.15367 0.68384 0.00583 0.0
C1079 C 0.16745 0.70416 0.04934 0.0
C1080 C 0.15695 0.66531 0.00619 0.0
C1081 C 0.1848 0.70569 0.09198 0.0
C1082 C 0.18796 0.68715 0.09428 0.0
C1083 C 0.17644 0.64739 0.05799 0.0
C1084 C 0.16185 0.62684 0.01779 0.0
C1085 C 0.17402 0.66667 0.05242 0.0
C1086 C 0.14562 0.62644 0.96769 0.0
C1087 C 0.14317 0.64526 0.96222 0.0
H1088 H 0.50406 0.70645 0.0326 0.0
H1089 H 0.53963 0.67361 0.01633 0.0
H1090 H 0.50894 0.63694 0.04181 0.0
H1091 H 0.47217 0.61391 0.06514 0.0
H1092 H 0.4353 0.64529 0.07494 0.0
H1093 H 0.46623 0.68268 0.05349 0.0
C1094 C 0.5051 0.69126 0.03528 0.0
C1095 C 0.52449 0.69312 0.02623 0.0
C1096 C 0.48708 0.66989 0.04746 0.0
C1097 C 0.52534 0.6731 0.02801 0.0
C1098 C 0.50763 0.65196 0.0409 0.0
C1099 C 0.47069 0.62884 0.06278 0.0
C1100 C 0.45118 0.62655 0.07203 0.0
C1101 C 0.48847 0.65015 0.05064 0.0
C1102 C 0.44994 0.64634 0.06795 0.0
C1103 C 0.46769 0.66776 0.05595 0.0
H1104 H 0.58659 0.83138 0.93103 0.0
H1105 H 0.6265 0.84589 0.17539 0.0
H1106 H 0.62741 0.88139 0.19918 0.0
H1107 H 0.61976 0.91037 0.14223 0.0
H1108 H 0.5784 0.89655 0.90599 0.0
H1109 H 0.57496 0.85911 0.88834 0.0
C1110 C 0.59505 0.84205 -0.00906 0.0
C1111 C 0.60678 0.83592 0.05037 0.0
C1112 C 0.59544 0.86287 0.00518 0.0
C1113 C 0.6177 0.85022 0.12714 0.0
C1114 C 0.61822 0.87063 0.14109 0.0
C1115 C 0.60971 0.89904 0.08782 0.0
C1116 C 0.59944 0.90645 0.02532 0.0
C1117 C 0.60765 0.87748 0.079 0.0
C1118 C 0.58641 0.89136 0.95569 0.0
C1119 C 0.58455 0.86993 0.94517 0.0
H1120 H 0.3038 0.92963 0.09393 0.0
H1121 H 0.34397 0.90253 0.07494 0.0
H1122 H 0.31463 0.86417 0.076 0.0
H1123 H 0.27729 0.83804 0.07826 0.0
H1124 H 0.23749 0.86565 0.08822 0.0
H1125 H 0.26667 0.90362 0.09653 0.0
C1126 C 0.30622 0.91538 0.09045 0.0
C1127 C 0.32631 0.91924 0.08436 0.0
C1128 C 0.28917 0.89322 0.09043 0.0
C1129 C 0.32887 0.90032 0.07958 0.0
C1130 C 0.31201 0.87828 0.08022 0.0
C1131 C 0.27497 0.85234 0.08324 0.0
C1132 C 0.25489 0.84855 0.08629 0.0
C1133 C 0.29206 0.87448 0.08512 0.0
C1134 C 0.25242 0.86754 0.09072 0.0
C1135 C 0.26926 0.88948 0.09374 0.0
H1136 H 0.31004 0.57711 0.24249 0.0
H1137 H 0.31957 0.56859 0.93265 0.0
H1138 H 0.28816 0.5681 0.89341 0.0
H1139 H 0.25837 0.57186 0.94529 0.0
H1140 H 0.24904 0.58068 0.25499 0.0
H1141 H 0.27948 0.57919 0.29547 0.0
C1142 C 0.30517 0.5749 0.16638 0.0
C1143 C 0.31731 0.57245 0.09114 0.0
C1144 C 0.28692 0.57475 0.14405 0.0
C1145 C 0.31056 0.56981 -0.00702 0.0
C1146 C 0.29257 0.56981 0.97024 0.0
C1147 C 0.26286 0.57325 0.02193 0.0
C1148 C 0.25087 0.57597 0.09708 0.0
C1149 C 0.28066 0.57245 0.04487 0.0
C1150 C 0.25728 0.57789 0.19569 0.0
C1151 C 0.27497 0.57729 0.21877 0.0
H1152 H 0.04323 0.35205 0.03566 0.0
H1153 H 0.08603 0.32873 0.06271 0.0
H1154 H 0.09065 0.3303 0.88191 0.0
H1155 H 0.08269 0.33846 0.71576 0.0
H1156 H 0.04024 0.36223 0.68798 0.0
H1157 H 0.03534 0.36036 0.86908 0.0
C1158 C 0.05342 0.34712 0.00191 0.0
C1159 C 0.06428 0.34029 0.06262 0.0
C1160 C 0.05618 0.34829 0.8977 0.0
C1161 C 0.07758 0.33417 0.01777 0.0
C1162 C 0.08025 0.33508 0.9143 0.0
C1163 C 0.07252 0.34343 0.74944 0.0
C1164 C 0.06174 0.35032 0.68868 0.0
C1165 C 0.06975 0.34227 0.85355 0.0
C1166 C 0.0485 0.35656 0.73328 0.0
C1167 C 0.04572 0.35555 0.83681 0.0
H1168 H 0.8828 0.93651 0.18717 0.0
H1169 H 0.81749 0.89763 0.22941 0.0
H1170 H 0.81385 0.898 0.04951 0.0
H1171 H 0.82916 0.90969 0.88021 0.0
H1172 H 0.89447 0.94886 0.83814 0.0
H1173 H 0.8981 0.9482 0.01791 0.0
C1174 C 0.86778 0.92796 0.15702 0.0
C1175 C 0.85047 0.91698 0.22171 0.0
C1176 C 0.86576 0.92848 0.0535 0.0
C1177 C 0.83109 0.90616 0.18135 0.0
C1178 C 0.82898 0.90642 0.07843 0.0
C1179 C 0.84419 0.91823 0.91032 0.0
C1180 C 0.86149 0.9294 0.84567 0.0
C1181 C 0.8462 0.91766 0.01384 0.0
C1182 C 0.88086 0.94021 0.88609 0.0
C1183 C 0.88298 0.93978 -0.01104 0.0
H1184 H 0.26114 0.12143 0.02639 0.0
H1185 H 0.32634 0.15201 0.03498 0.0
H1186 H 0.32877 0.15225 0.85314 0.0
H1187 H 0.31251 0.14433 0.69226 0.0
H1188 H 0.24743 0.11419 0.68329 0.0
H1189 H 0.24485 0.11322 0.8654 0.0
C1190 C 0.27592 0.12824 -0.01135 0.0
C1191 C 0.29355 0.13678 0.04436 0.0
C1192 C 0.27725 0.12851 0.88419 0.0
C1193 C 0.31255 0.14547 -0.00596 0.0
C1194 C 0.31396 0.14564 0.89006 0.0
C1195 C 0.29778 0.13774 0.73005 0.0
C1196 C 0.28023 0.12957 0.67424 0.0
C1197 C 0.29644 0.13733 0.83448 0.0
C1198 C 0.26119 0.12062 0.72444 0.0
C1199 C 0.25971 0.12011 0.82853 0.0
H1200 H 0.08853 0.89083 0.81699 0.0
H1201 H 0.07761 0.94656 0.78581 0.0
H1202 H 0.07287 0.94631 0.9665 0.0
H1203 H 0.07172 0.93022 0.1338 0.0
H1204 H 0.08185 0.87393 0.1645 0.0
H1205 H 0.08678 0.8743 -0.01606 0.0
C1206 C 0.08536 0.90311 0.84977 0.0
C1207 C 0.08365 0.91885 0.78781 0.0
C1208 C 0.08226 0.9026 0.95376 0.0
C1209 C 0.07915 0.93435 0.83164 0.0
C1210 C 0.07633 0.93415 0.93503 0.0
C1211 C 0.07476 0.91786 0.10091 0.0
C1212 C 0.07652 0.90214 0.16281 0.0
C1213 C 0.0777 0.91825 -0.00318 0.0
C1214 C 0.08064 0.88637 0.11883 0.0
C1215 C 0.08347 0.88658 0.01546 0.0
H1216 H 0.32718 0.35151 0.9822 0.0
H1217 H 0.26228 0.30992 0.03454 0.0
H1218 H 0.25732 0.30919 0.85585 0.0
H1219 H 0.27134 0.32032 0.68404 0.0
H1220 H 0.33606 0.36282 0.63163 0.0
H1221 H 0.34117 0.36324 0.81046 0.0
C1222 C 0.31199 0.34214 0.95437 0.0
C1223 C 0.29517 0.33072 0.0215 0.0
C1224 C 0.30917 0.34203 0.85141 0.0
C1225 C 0.27552 0.31887 -0.0156 0.0
C1226 C 0.27263 0.31846 0.88219 0.0
C1227 C 0.28651 0.32983 0.71203 0.0
C1228 C 0.30332 0.34124 0.64502 0.0
C1229 C 0.28932 0.33008 0.815 0.0
C1230 C 0.32292 0.35348 0.68201 0.0
C1231 C 0.32585 0.35382 0.78419 0.0
H1232 H 0.83906 0.10229 0.14596 0.0
H1233 H 0.90156 0.15577 0.15824 0.0
H1234 H 0.90542 0.15657 0.97683 0.0
H1235 H 0.89116 0.14191 0.81525 0.0
H1236 H 0.82869 0.08832 0.80312 0.0
H1237 H 0.8248 0.08762 -0.01555 0.0
C1238 C 0.8535 0.11423 0.10905 0.0
C1239 C 0.86998 0.129 0.16568 0.0
C1240 C 0.85568 0.11444 0.0049 0.0
C1241 C 0.88862 0.14425 0.1165 0.0
C1242 C 0.89086 0.14467 0.01278 0.0
C1243 C 0.87672 0.12995 0.8522 0.0
C1244 C 0.86027 0.11511 0.79561 0.0
C1245 C 0.87453 0.12976 0.95634 0.0
C1246 C 0.84162 0.09988 0.8448 0.0
C1247 C 0.83936 0.09951 0.94849 0.0
H1248 H 0.75603 0.72138 0.30602 0.0
H1249 H 0.72442 0.6488 0.28653 0.0
H1250 H 0.72238 0.64442 0.46778 0.0
H1251 H 0.72975 0.66114 0.63178 0.0
H1252 H 0.76062 0.73369 0.65104 0.0
H1253 H 0.76283 0.73807 0.46995 0.0
C1254 C 0.74872 0.70461 0.34138 0.0
C1255 C 0.74047 0.68548 0.28285 0.0
C1256 C 0.7475 0.70217 0.44561 0.0
C1257 C 0.73093 0.66384 0.32985 0.0
C1258 C 0.72975 0.66129 0.43353 0.0
C1259 C 0.73693 0.67791 0.59637 0.0
C1260 C 0.74524 0.69704 0.65484 0.0
C1261 C 0.738 0.68033 0.49212 0.0
C1262 C 0.75443 0.71866 0.60782 0.0
C1263 C 0.7556 0.72121 0.50418 0.0
H1264 H 0.52582 0.22428 0.65748 0.0
H1265 H 0.46259 0.20351 0.70688 0.0
H1266 H 0.45793 0.20198 0.5277 0.0
H1267 H 0.4718 0.20619 0.35685 0.0
H1268 H 0.53467 0.22494 0.30798 0.0
H1269 H 0.53939 0.2272 0.48699 0.0
C1270 C 0.51104 0.21943 0.62893 0.0
C1271 C 0.49471 0.21467 0.69504 0.0
C1272 C 0.50836 0.21801 0.52592 0.0
C1273 C 0.47557 0.20813 0.65716 0.0
C1274 C 0.47283 0.20695 0.55479 0.0
C1275 C 0.48653 0.21077 0.38538 0.0
C1276 C 0.50284 0.21545 0.31923 0.0
C1277 C 0.48914 0.21191 0.48845 0.0
C1278 C 0.52182 0.22121 0.35735 0.0
C1279 C 0.52457 0.22257 0.45972 0.0
H1280 H 0.9226 0.39447 0.34631 0.0
H1281 H 0.88743 0.42755 0.3159 0.0
H1282 H 0.88642 0.43083 0.49622 0.0
H1283 H 0.89543 0.42423 0.66254 0.0
H1284 H 0.93188 0.39274 0.69245 0.0
H1285 H 0.93244 0.38883 0.51241 0.0
C1286 C 0.91462 0.40227 0.37924 0.0
C1287 C 0.90502 0.41063 0.31797 0.0
C1288 C 0.91433 0.4044 0.48282 0.0
C1289 C 0.89494 0.42096 0.36153 0.0
C1290 C 0.89436 0.42287 0.4646 0.0
C1291 C 0.90357 0.41662 0.62957 0.0
C1292 C 0.91329 0.40839 0.69079 0.0
C1293 C 0.90404 0.4147 0.52592 0.0
C1294 C 0.92385 0.39866 0.64701 0.0
C1295 C 0.92429 0.39655 0.54403 0.0
H1296 H 0.71919 0.21562 0.30793 0.0
H1297 H 0.7608 0.19043 0.28098 0.0
H1298 H 0.76174 0.18809 0.46233 0.0
H1299 H 0.75058 0.19292 0.62767 0.0
H1300 H 0.70982 0.21918 0.65498 0.0
H1301 H 0.70845 0.22099 0.47365 0.0
C1302 C 0.7285 0.20963 0.34158 0.0
C1303 C 0.73992 0.20322 0.2809 0.0
C1304 C 0.72903 0.2084 0.44573 0.0
C1305 C 0.75191 0.19554 0.32587 0.0
C1306 C 0.75242 0.19414 0.42955 0.0
C1307 C 0.74154 0.19924 0.59418 0.0
C1308 C 0.73048 0.20609 0.65493 0.0
C1309 C 0.74104 0.20052 0.49008 0.0
C1310 C 0.71852 0.21383 0.61004 0.0
C1311 C 0.71776 0.21492 0.50636 0.0
H1312 H 0.91331 0.64925 0.29758 0.0
H1313 H 0.92427 0.71734 0.26494 0.0
H1314 H 0.9247 0.72033 0.44577 0.0
H1315 H 0.92148 0.70346 0.6117 0.0
H1316 H 0.91222 0.63623 0.64633 0.0
H1317 H 0.91104 0.63276 0.4653 0.0
C1318 C 0.91574 0.66473 0.33004 0.0
C1319 C 0.9187 0.68304 0.26797 0.0
C1320 C 0.91619 0.66643 0.43397 0.0
C1321 C 0.92199 0.70303 0.31107 0.0
C1322 C 0.92221 0.70474 0.41439 0.0
C1323 C 0.91975 0.68829 0.58004 0.0
C1324 C 0.91744 0.6704 0.64256 0.0
C1325 C 0.91939 0.68658 0.47636 0.0
C1326 C 0.91416 0.65035 0.59984 0.0
C1327 C 0.91352 0.64837 0.49639 0.0
H1328 H 0.48387 0.39972 0.31485 0.0
H1329 H 0.54889 0.43212 0.26531 0.0
H1330 H 0.55356 0.43647 0.44414 0.0
H1331 H 0.5392 0.43096 0.61509 0.0
H1332 H 0.4744 0.4002 0.66423 0.0
H1333 H 0.46959 0.3954 0.48528 0.0
C1334 C 0.49903 0.40756 0.34338 0.0
C1335 C 0.51597 0.41543 0.27716 0.0
C1336 C 0.50165 0.41037 0.44619 0.0
C1337 C 0.53557 0.42588 0.31492 0.0
C1338 C 0.53829 0.42842 0.41713 0.0
C1339 C 0.52406 0.42335 0.58636 0.0
C1340 C 0.50712 0.41548 0.65246 0.0
C1341 C 0.52145 0.4208 0.48344 0.0
C1342 C 0.48759 0.40572 0.61457 0.0
C1343 C 0.48484 0.4031 0.5124 0.0
H1344 H 0.3602 0.99578 0.41343 0.0
H1345 H 0.40546 0.97603 0.37602 0.0
H1346 H 0.40794 0.97433 0.55636 0.0
H1347 H 0.39725 0.97842 0.72451 0.0
H1348 H 0.35191 0.99812 0.76114 0.0
H1349 H 0.34951 0.99987 0.58091 0.0
C1350 C 0.37065 0.99118 0.44451 0.0
C1351 C 0.38262 0.9861 0.38126 0.0
C1352 C 0.37198 0.99017 0.54813 0.0
C1353 C 0.39603 0.98003 0.42302 0.0
C1354 C 0.39748 0.97905 0.52616 0.0
C1355 C 0.38683 0.98306 0.6931 0.0
C1356 C 0.37479 0.9881 0.75617 0.0
C1357 C 0.3855 0.98406 0.58939 0.0
C1358 C 0.36136 0.99414 0.71428 0.0
C1359 C 0.35997 0.99516 0.6112 0.0
H1360 H 0.12754 0.55261 0.72649 0.0
H1361 H 0.18843 0.56416 0.74968 0.0
H1362 H 0.1932 0.56795 0.56853 0.0
H1363 H 0.18024 0.56832 0.40352 0.0
H1364 H 0.11939 0.55691 0.38049 0.0
H1365 H 0.11459 0.55297 0.56155 0.0
C1366 C 0.1418 0.55578 0.69194 0.0
C1367 C 0.15756 0.55803 0.75163 0.0
C1368 C 0.14456 0.55821 0.58773 0.0
C1369 C 0.17601 0.56232 0.70556 0.0
C1370 C 0.1788 0.56457 0.60192 0.0
C1371 C 0.16599 0.56516 0.43809 0.0
C1372 C 0.15025 0.56302 0.37845 0.0
C1373 C 0.16323 0.56271 0.54231 0.0
C1374 C 0.1318 0.55869 0.42455 0.0
C1375 C 0.12899 0.55636 0.52815 0.0
H1376 H 0.59565 0.7641 0.67745 0.0
H1377 H 0.65902 0.81526 0.68854 0.0
H1378 H 0.66273 0.81554 0.50736 0.0
H1379 H 0.64812 0.80094 0.34676 0.0
H1380 H 0.58453 0.75078 0.33446 0.0
H1381 H 0.58093 0.74996 0.51595 0.0
C1382 C 0.61026 0.7754 0.64032 0.0
C1383 C 0.62701 0.78968 0.69661 0.0
C1384 C 0.61231 0.77547 0.53617 0.0
C1385 C 0.64584 0.80418 0.64713 0.0
C1386 C 0.64801 0.80428 0.54352 0.0
C1387 C 0.63342 0.79 0.38336 0.0
C1388 C 0.61658 0.77618 0.32668 0.0
C1389 C 0.63136 0.78995 0.48742 0.0
C1390 C 0.59775 0.76165 0.37607 0.0
C1391 C 0.59565 0.76124 0.47987 0.0
H1392 H 0.38753 0.57294 0.7816 0.0
H1393 H 0.41322 0.52974 0.81067 0.0
H1394 H 0.41779 0.53045 0.63021 0.0
H1395 H 0.41478 0.54358 0.46351 0.0
H1396 H 0.38817 0.5859 0.43323 0.0
H1397 H 0.3838 0.58542 0.61422 0.0
C1398 C 0.39395 0.56352 0.74832 0.0
C1399 C 0.40028 0.55155 0.8097 0.0
C1400 C 0.39656 0.56403 0.6441 0.0
C1401 C 0.40862 0.53947 0.7654 0.0
C1402 C 0.41119 0.53981 0.66202 0.0
C1403 C 0.40823 0.55289 0.49659 0.0
C1404 C 0.40198 0.5649 0.43508 0.0
C1405 C 0.40543 0.55223 0.60065 0.0
C1406 C 0.39318 0.57657 0.47901 0.0
C1407 C 0.3906 0.57625 0.5825 0.0
H1408 H 0.58985 0.97207 0.6842 0.0
H1409 H 0.65084 0.98363 0.70395 0.0
H1410 H 0.65408 0.98392 0.52279 0.0
H1411 H 0.6396 0.98068 0.36016 0.0
H1412 H 0.57889 0.96956 0.3384 0.0
H1413 H 0.57545 0.96905 0.51992 0.0
C1414 C 0.60386 0.97466 0.64894 0.0
C1415 C 0.62007 0.97782 0.70752 0.0
C1416 C 0.60565 0.97482 0.54476 0.0
C1417 C 0.63812 0.98115 0.66064 0.0
C1418 C 0.64 0.98131 0.55707 0.0
C1419 C 0.62568 0.97832 0.39461 0.0
C1420 C 0.60964 0.97535 0.33549 0.0
C1421 C 0.62386 0.97816 0.49858 0.0
C1422 C 0.59154 0.97194 0.38208 0.0
C1423 C 0.58955 0.97167 0.48586 0.0
H1424 H 0.18338 0.78004 0.40044 0.0
H1425 H 0.12031 0.72819 0.38636 0.0
H1426 H 0.11634 0.72723 0.56762 0.0
H1427 H 0.13072 0.74105 0.72973 0.0
H1428 H 0.19383 0.79277 0.74404 0.0
H1429 H 0.19774 0.79394 0.56264 0.0
C1430 C 0.16879 0.76841 0.43695 0.0
C1431 C 0.1522 0.75413 0.37984 0.0
C1432 C 0.16656 0.76803 0.54111 0.0
C1433 C 0.13335 0.73932 0.42845 0.0
C1434 C 0.13105 0.7388 0.53212 0.0
C1435 C 0.14532 0.75267 0.69328 0.0
C1436 C 0.16195 0.76681 0.75049 0.0
C1437 C 0.14753 0.75312 0.5891 0.0
C1438 C 0.18077 0.7817 0.70188 0.0
C1439 C 0.18304 0.78235 0.59814 0.0
loop_
_geom_bond_atom_site_label_1
_geom_bond_atom_site_label_2
_geom_bond_distance
_geom_bond_site_symmetry_2
_ccdc_geom_bond_type
Zn0 O1 2.055 . S
Zn0 O8 2.046 . S
Zn0 N16 2.036 1_455 S
Zn0 O28 2.053 . S
Zn0 O30 2.066 . S
O1 Zn0 2.055 . S
O1 C4 1.259 . S
C2 O30 1.256 . S
C2 O31 1.244 . S
Zn3 O5 2.046 . S
Zn3 O7 2.055 . S
Zn3 N9 2.036 . S
Zn3 O27 2.066 . S
Zn3 O31 2.053 . S
C4 O1 1.259 . S
C4 O5 1.254 . S
O5 Zn3 2.046 . S
O5 C4 1.254 . S
C6 O27 1.256 . S
C6 O28 1.244 . S
O7 Zn3 2.055 . S
O7 C29 1.259 . S
O8 Zn0 2.046 . S
O8 C29 1.254 . S
N9 Zn3 2.036 . S
N9 C10 1.298 . S
N9 N12 1.398 . S
C10 N9 1.298 . S
C10 N13 1.367 . S
C10 C23 1.481 . S
C11 N12 1.299 . S
C11 N13 1.379 . S
N12 N9 1.398 . S
N12 C11 1.299 . S
N13 C10 1.367 . S
N13 C11 1.379 . S
C14 N16 1.298 . S
C14 N18 1.367 . S
C14 C22 1.481 . S
C15 N17 1.299 1_655 S
C15 N18 1.379 . S
N16 Zn0 2.036 1_655 S
N16 C14 1.298 . S
N16 N17 1.398 1_655 S
N17 C15 1.299 1_455 S
N17 N16 1.398 1_455 S
N18 C14 1.367 . S
N18 C15 1.379 . S
H19 C22 0.980 . S
H20 C22 0.981 . S
H21 C22 0.981 . S
C22 C14 1.481 . S
C22 H19 0.980 . S
C22 H20 0.981 . S
C22 H21 0.981 . S
C23 C10 1.481 . S
C23 H24 0.980 . S
C23 H25 0.981 . S
C23 H26 0.981 . S
H24 C23 0.980 . S
H25 C23 0.981 . S
H26 C23 0.981 . S
O27 Zn3 2.066 . S
O27 C6 1.256 . S
O28 Zn0 2.053 . S
O28 C6 1.244 . S
C29 O7 1.259 . S
C29 O8 1.254 . S
O30 Zn0 2.066 . S
O30 C2 1.256 . S
O31 C2 1.244 . S
O31 Zn3 2.053 . S
Zn32 O33 2.055 . S
Zn32 O40 2.046 . S
Zn32 N48 2.036 . S
Zn32 O60 2.053 . S
Zn32 O62 2.066 . S
O33 Zn32 2.055 . S
O33 C36 1.259 . S
C34 O62 1.256 . S
C34 O63 1.244 . S
Zn35 O37 2.046 . S
Zn35 O39 2.055 . S
Zn35 N41 2.036 . S
Zn35 O59 2.066 . S
Zn35 O63 2.053 . S
C36 O33 1.259 . S
C36 O37 1.254 . S
O37 Zn35 2.046 . S
O37 C36 1.254 . S
C38 O59 1.256 . S
C38 O60 1.244 . S
O39 Zn35 2.055 . S
O39 C61 1.259 . S
O40 Zn32 2.046 . S
O40 C61 1.254 . S
N41 Zn35 2.036 . S
N41 C42 1.298 . S
N41 N44 1.398 . S
C42 N41 1.298 . S
C42 N45 1.367 . S
C42 C55 1.481 . S
C43 N44 1.299 . S
C43 N45 1.379 . S
N44 N41 1.398 . S
N44 C43 1.299 . S
N45 C42 1.367 . S
N45 C43 1.379 . S
C46 N48 1.298 . S
C46 N50 1.367 . S
C46 C54 1.481 . S
C47 N49 1.299 . S
C47 N50 1.379 . S
N48 Zn32 2.036 . S
N48 C46 1.298 . S
N48 N49 1.398 . S
N49 C47 1.299 . S
N49 N48 1.398 . S
N50 C46 1.367 . S
N50 C47 1.379 . S
H51 C54 0.980 . S
H52 C54 0.981 . S
H53 C54 0.981 . S
C54 C46 1.481 . S
C54 H51 0.980 . S
C54 H52 0.981 . S
C54 H53 0.981 . S
C55 C42 1.481 . S
C55 H56 0.980 . S
C55 H57 0.981 . S
C55 H58 0.981 . S
H56 C55 0.980 . S
H57 C55 0.981 . S
H58 C55 0.981 . S
O59 Zn35 2.066 . S
O59 C38 1.256 . S
O60 Zn32 2.053 . S
O60 C38 1.244 . S
C61 O39 1.259 . S
C61 O40 1.254 . S
O62 Zn32 2.066 . S
O62 C34 1.256 . S
O63 C34 1.244 . S
O63 Zn35 2.053 . S
Zn64 O65 2.055 . S
Zn64 O72 2.046 . S
Zn64 N80 2.036 . S
Zn64 O92 2.053 . S
Zn64 O94 2.066 . S
O65 Zn64 2.055 . S
O65 C68 1.259 . S
C66 O94 1.256 . S
C66 O95 1.244 . S
Zn67 O69 2.046 . S
Zn67 O71 2.055 . S
Zn67 N73 2.036 . S
Zn67 O91 2.066 . S
Zn67 O95 2.053 . S
C68 O65 1.259 . S
C68 O69 1.254 . S
O69 Zn67 2.046 . S
O69 C68 1.254 . S
C70 O91 1.256 . S
C70 O92 1.244 . S
O71 Zn67 2.055 . S
O71 C93 1.259 . S
O72 Zn64 2.046 . S
O72 C93 1.254 . S
N73 Zn67 2.036 . S
N73 C74 1.298 . S
N73 N76 1.398 . S
C74 N73 1.298 . S
C74 N77 1.367 . S
C74 C87 1.481 . S
C75 N76 1.299 . S
C75 N77 1.379 . S
N76 N73 1.398 . S
N76 C75 1.299 . S
N77 C74 1.367 . S
N77 C75 1.379 . S
C78 N80 1.298 . S
C78 N82 1.367 . S
C78 C86 1.481 . S
C79 N81 1.299 . S
C79 N82 1.379 . S
N80 Zn64 2.036 . S
N80 C78 1.298 . S
N80 N81 1.398 . S
N81 C79 1.299 . S
N81 N80 1.398 . S
N82 C78 1.367 . S
N82 C79 1.379 . S
H83 C86 0.980 . S
H84 C86 0.981 . S
H85 C86 0.981 . S
C86 C78 1.481 . S
C86 H83 0.980 . S
C86 H84 0.981 . S
C86 H85 0.981 . S
C87 C74 1.481 . S
C87 H88 0.980 . S
C87 H89 0.981 . S
C87 H90 0.981 . S
H88 C87 0.980 . S
H89 C87 0.981 . S
H90 C87 0.981 . S
O91 Zn67 2.066 . S
O91 C70 1.256 . S
O92 Zn64 2.053 . S
O92 C70 1.244 . S
C93 O71 1.259 . S
C93 O72 1.254 . S
O94 Zn64 2.066 . S
O94 C66 1.256 . S
O95 C66 1.244 . S
O95 Zn67 2.053 . S
Zn96 O97 2.055 . S
Zn96 O104 2.046 . S
Zn96 N112 2.036 . S
Zn96 O124 2.053 . S
Zn96 O126 2.066 . S
O97 Zn96 2.055 . S
O97 C100 1.259 . S
C98 O126 1.256 . S
C98 O127 1.244 . S
Zn99 O101 2.046 . S
Zn99 O103 2.055 . S
Zn99 N105 2.036 . S
Zn99 O123 2.066 . S
Zn99 O127 2.053 . S
C100 O97 1.259 . S
C100 O101 1.254 . S
O101 Zn99 2.046 . S
O101 C100 1.254 . S
C102 O123 1.256 . S
C102 O124 1.244 . S
O103 Zn99 2.055 . S
O103 C125 1.259 . S
O104 Zn96 2.046 . S
O104 C125 1.254 . S
N105 Zn99 2.036 . S
N105 C106 1.298 . S
N105 N108 1.398 . S
C106 N105 1.298 . S
C106 N109 1.367 . S
C106 C119 1.481 . S
C107 N108 1.299 . S
C107 N109 1.379 . S
N108 N105 1.398 . S
N108 C107 1.299 . S
N109 C106 1.367 . S
N109 C107 1.379 . S
C110 N112 1.298 . S
C110 N114 1.367 . S
C110 C118 1.481 . S
C111 N113 1.299 . S
C111 N114 1.379 . S
N112 Zn96 2.036 . S
N112 C110 1.298 . S
N112 N113 1.398 . S
N113 C111 1.299 . S
N113 N112 1.398 . S
N114 C110 1.367 . S
N114 C111 1.379 . S
H115 C118 0.980 . S
H116 C118 0.981 . S
H117 C118 0.981 . S
C118 C110 1.481 . S
C118 H115 0.980 . S
C118 H116 0.981 . S
C118 H117 0.981 . S
C119 C106 1.481 . S
C119 H120 0.980 . S
C119 H121 0.981 . S
C119 H122 0.986 . S
H120 C119 0.980 . S
H121 C119 0.981 . S
H122 C119 0.986 . S
O123 Zn99 2.066 . S
O123 C102 1.256 . S
O124 Zn96 2.053 . S
O124 C102 1.244 . S
C125 O103 1.259 . S
C125 O104 1.254 . S
O126 Zn96 2.066 . S
O126 C98 1.256 . S
O127 C98 1.244 . S
O127 Zn99 2.053 . S
Zn128 O129 2.055 . S
Zn128 O136 2.046 . S
Zn128 N144 2.036 . S
Zn128 O156 2.053 . S
Zn128 O158 2.066 . S
O129 Zn128 2.055 . S
O129 C132 1.259 . S
C130 O158 1.256 . S
C130 O159 1.244 . S
Zn131 O133 2.046 . S
Zn131 O135 2.055 . S
Zn131 N137 2.036 . S
Zn131 O155 2.066 . S
Zn131 O159 2.053 . S
C132 O129 1.259 . S
C132 O133 1.254 . S
O133 Zn131 2.046 . S
O133 C132 1.254 . S
C134 O155 1.256 . S
C134 O156 1.244 . S
O135 Zn131 2.055 . S
O135 C157 1.259 . S
O136 Zn128 2.046 . S
O136 C157 1.254 . S
N137 Zn131 2.036 . S
N137 C138 1.298 . S
N137 N140 1.398 . S
C138 N137 1.298 . S
C138 N141 1.367 . S
C138 C151 1.481 . S
C139 N140 1.299 . S
C139 N141 1.379 . S
N140 N137 1.398 . S
N140 C139 1.299 . S
N141 C138 1.367 . S
N141 C139 1.379 . S
C142 N144 1.298 . S
C142 N146 1.367 . S
C142 C150 1.481 . S
C143 N145 1.299 . S
C143 N146 1.379 . S
N144 Zn128 2.036 . S
N144 C142 1.298 . S
N144 N145 1.398 . S
N145 C143 1.299 . S
N145 N144 1.398 . S
N146 C142 1.367 . S
N146 C143 1.379 . S
H147 C150 0.980 . S
H148 C150 0.981 . S
H149 C150 0.981 . S
C150 C142 1.481 . S
C150 H147 0.980 . S
C150 H148 0.981 . S
C150 H149 0.981 . S
C151 C138 1.481 . S
C151 H152 0.980 . S
C151 H153 0.981 . S
C151 H154 0.981 . S
H152 C151 0.980 . S
H153 C151 0.981 . S
H154 C151 0.981 . S
O155 Zn131 2.066 . S
O155 C134 1.256 . S
O156 Zn128 2.053 . S
O156 C134 1.244 . S
C157 O135 1.259 . S
C157 O136 1.254 . S
O158 Zn128 2.066 . S
O158 C130 1.256 . S
O159 C130 1.244 . S
O159 Zn131 2.053 . S
Zn160 O161 2.055 . S
Zn160 O168 2.046 . S
Zn160 N176 2.036 . S
Zn160 O188 2.053 . S
Zn160 O190 2.066 . S
O161 Zn160 2.055 . S
O161 C164 1.259 . S
C162 O190 1.256 . S
C162 O191 1.244 . S
Zn163 O165 2.046 . S
Zn163 O167 2.055 . S
Zn163 N169 2.036 . S
Zn163 O187 2.066 . S
Zn163 O191 2.053 . S
C164 O161 1.259 . S
C164 O165 1.254 . S
O165 Zn163 2.046 . S
O165 C164 1.254 . S
C166 O187 1.256 . S
C166 O188 1.244 . S
O167 Zn163 2.055 . S
O167 C189 1.259 . S
O168 Zn160 2.046 . S
O168 C189 1.254 . S
N169 Zn163 2.036 . S
N169 C170 1.298 . S
N169 N172 1.398 . S
C170 N169 1.298 . S
C170 N173 1.367 . S
C170 C183 1.481 . S
C171 N172 1.299 . S
C171 N173 1.379 . S
N172 N169 1.398 . S
N172 C171 1.299 . S
N173 C170 1.367 . S
N173 C171 1.379 . S
C174 N176 1.298 . S
C174 N178 1.367 . S
C174 C182 1.481 . S
C175 N177 1.299 . S
C175 N178 1.379 . S
N176 Zn160 2.036 . S
N176 C174 1.298 . S
N176 N177 1.398 . S
N177 C175 1.299 . S
N177 N176 1.398 . S
N178 C174 1.367 . S
N178 C175 1.379 . S
H179 C182 0.980 . S
H180 C182 0.981 . S
H181 C182 0.981 . S
C182 C174 1.481 . S
C182 H179 0.980 . S
C182 H180 0.981 . S
C182 H181 0.981 . S
C183 C170 1.481 . S
C183 H184 0.980 . S
C183 H185 0.981 . S
C183 H186 0.981 . S
H184 C183 0.980 . S
H185 C183 0.981 . S
H186 C183 0.981 . S
O187 Zn163 2.066 . S
O187 C166 1.256 . S
O188 Zn160 2.053 . S
O188 C166 1.244 . S
C189 O167 1.259 . S
C189 O168 1.254 . S
O190 Zn160 2.066 . S
O190 C162 1.256 . S
O191 C162 1.244 . S
O191 Zn163 2.053 . S
Zn192 O193 2.055 1_556 S
Zn192 O200 2.046 . S
Zn192 N208 2.036 . S
Zn192 O220 2.053 . S
Zn192 O222 2.066 . S
O193 Zn192 2.055 1_554 S
O193 C196 1.259 . S
C194 O222 1.256 . S
C194 O223 1.244 . S
Zn195 O197 2.046 1_556 S
Zn195 O199 2.055 . S
Zn195 N201 2.036 . S
Zn195 O219 2.066 . S
Zn195 O223 2.053 . S
C196 O193 1.259 . S
C196 O197 1.254 . S
O197 Zn195 2.046 1_554 S
O197 C196 1.254 . S
C198 O219 1.256 . S
C198 O220 1.244 . S
O199 Zn195 2.055 . S
O199 C221 1.259 . S
O200 Zn192 2.046 . S
O200 C221 1.254 . S
N201 Zn195 2.036 . S
N201 C202 1.298 . S
N201 N204 1.398 . S
C202 N201 1.298 . S
C202 N205 1.367 . S
C202 C215 1.481 . S
C203 N204 1.299 . S
C203 N205 1.379 . S
N204 N201 1.398 . S
N204 C203 1.299 . S
N205 C202 1.367 . S
N205 C203 1.379 . S
C206 N208 1.298 . S
C206 N210 1.367 . S
C206 C214 1.481 1_556 S
C207 N209 1.299 . S
C207 N210 1.379 . S
N208 Zn192 2.036 . S
N208 C206 1.298 . S
N208 N209 1.398 . S
N209 C207 1.299 . S
N209 N208 1.398 . S
N210 C206 1.367 . S
N210 C207 1.379 . S
H211 C214 0.980 . S
H212 C214 0.981 . S
H213 C214 0.981 . S
C214 C206 1.481 1_554 S
C214 H211 0.980 . S
C214 H212 0.981 . S
C214 H213 0.981 . S
C215 C202 1.481 . S
C215 H216 0.980 . S
C215 H217 0.981 . S
C215 H218 0.981 . S
H216 C215 0.980 . S
H217 C215 0.981 . S
H218 C215 0.981 . S
O219 Zn195 2.066 . S
O219 C198 1.256 . S
O220 Zn192 2.053 . S
O220 C198 1.244 . S
C221 O199 1.259 . S
C221 O200 1.254 . S
O222 Zn192 2.066 . S
O222 C194 1.256 . S
O223 C194 1.244 . S
O223 Zn195 2.053 . S
Zn224 O225 2.055 . S
Zn224 O232 2.046 1_556 S
Zn224 N240 2.036 . S
Zn224 O252 2.053 . S
Zn224 O254 2.066 . S
O225 Zn224 2.055 . S
O225 C228 1.259 . S
C226 O254 1.256 . S
C226 O255 1.244 . S
Zn227 O229 2.046 . S
Zn227 O231 2.055 1_556 S
Zn227 N233 2.036 . S
Zn227 O251 2.066 . S
Zn227 O255 2.053 . S
C228 O225 1.259 . S
C228 O229 1.254 . S
O229 Zn227 2.046 . S
O229 C228 1.254 . S
C230 O251 1.256 . S
C230 O252 1.244 . S
O231 Zn227 2.055 1_554 S
O231 C253 1.259 . S
O232 Zn224 2.046 1_554 S
O232 C253 1.254 . S
N233 Zn227 2.036 . S
N233 C234 1.298 . S
N233 N236 1.398 . S
C234 N233 1.298 . S
C234 N237 1.367 . S
C234 C247 1.481 1_556 S
C235 N236 1.299 . S
C235 N237 1.379 . S
N236 N233 1.398 . S
N236 C235 1.299 . S
N237 C234 1.367 . S
N237 C235 1.379 . S
C238 N240 1.298 . S
C238 N242 1.367 . S
C238 C246 1.481 . S
C239 N241 1.299 . S
C239 N242 1.379 . S
N240 Zn224 2.036 . S
N240 C238 1.298 . S
N240 N241 1.398 . S
N241 C239 1.299 . S
N241 N240 1.398 . S
N242 C238 1.367 . S
N242 C239 1.379 . S
H243 C246 0.980 . S
H244 C246 0.981 . S
H245 C246 0.981 . S
C246 C238 1.481 . S
C246 H243 0.980 . S
C246 H244 0.981 . S
C246 H245 0.981 . S
C247 C234 1.481 1_554 S
C247 H248 0.980 . S
C247 H249 0.981 . S
C247 H250 0.981 . S
H248 C247 0.980 . S
H249 C247 0.981 . S
H250 C247 0.981 . S
O251 Zn227 2.066 . S
O251 C230 1.256 . S
O252 Zn224 2.053 . S
O252 C230 1.244 . S
C253 O231 1.259 . S
C253 O232 1.254 . S
O254 Zn224 2.066 . S
O254 C226 1.256 . S
O255 C226 1.244 . S
O255 Zn227 2.053 . S
Zn256 O257 2.055 . S
Zn256 O264 2.046 1_556 S
Zn256 N272 2.036 . S
Zn256 O284 2.053 . S
Zn256 O286 2.066 . S
O257 Zn256 2.055 . S
O257 C260 1.259 . S
C258 O286 1.256 . S
C258 O287 1.244 . S
Zn259 O261 2.046 . S
Zn259 O263 2.055 1_556 S
Zn259 N265 2.036 . S
Zn259 O283 2.066 . S
Zn259 O287 2.053 . S
C260 O257 1.259 . S
C260 O261 1.254 . S
O261 Zn259 2.046 . S
O261 C260 1.254 . S
C262 O283 1.256 . S
C262 O284 1.244 . S
O263 Zn259 2.055 1_554 S
O263 C285 1.259 . S
O264 Zn256 2.046 1_554 S
O264 C285 1.254 . S
N265 Zn259 2.036 . S
N265 C266 1.298 . S
N265 N268 1.398 . S
C266 N265 1.298 . S
C266 N269 1.367 . S
C266 C279 1.481 1_556 S
C267 N268 1.299 . S
C267 N269 1.379 . S
N268 N265 1.398 . S
N268 C267 1.299 . S
N269 C266 1.367 . S
N269 C267 1.379 . S
C270 N272 1.298 . S
C270 N274 1.367 . S
C270 C278 1.481 . S
C271 N273 1.299 . S
C271 N274 1.379 . S
N272 Zn256 2.036 . S
N272 C270 1.298 . S
N272 N273 1.398 . S
N273 C271 1.299 . S
N273 N272 1.398 . S
N274 C270 1.367 . S
N274 C271 1.379 . S
H275 C278 0.980 . S
H276 C278 0.981 . S
H277 C278 0.981 . S
C278 C270 1.481 . S
C278 H275 0.980 . S
C278 H276 0.981 . S
C278 H277 0.981 . S
C279 C266 1.481 1_554 S
C279 H280 0.980 . S
C279 H281 0.981 . S
C279 H282 0.981 . S
H280 C279 0.980 . S
H281 C279 0.981 . S
H282 C279 0.981 . S
O283 Zn259 2.066 . S
O283 C262 1.256 . S
O284 Zn256 2.053 . S
O284 C262 1.244 . S
C285 O263 1.259 . S
C285 O264 1.254 . S
O286 Zn256 2.066 . S
O286 C258 1.256 . S
O287 C258 1.244 . S
O287 Zn259 2.053 . S
Zn288 O289 2.055 1_556 S
Zn288 O296 2.046 . S
Zn288 N304 2.036 . S
Zn288 O316 2.053 . S
Zn288 O318 2.066 . S
O289 Zn288 2.055 1_554 S
O289 C292 1.259 . S
C290 O318 1.256 . S
C290 O319 1.244 . S
Zn291 O293 2.046 1_556 S
Zn291 O295 2.055 . S
Zn291 N297 2.036 . S
Zn291 O315 2.066 . S
Zn291 O319 2.053 . S
C292 O289 1.259 . S
C292 O293 1.254 . S
O293 Zn291 2.046 1_554 S
O293 C292 1.254 . S
C294 O315 1.256 . S
C294 O316 1.244 . S
O295 Zn291 2.055 . S
O295 C317 1.259 . S
O296 Zn288 2.046 . S
O296 C317 1.254 . S
N297 Zn291 2.036 . S
N297 C298 1.298 . S
N297 N300 1.398 . S
C298 N297 1.298 . S
C298 N301 1.367 . S
C298 C311 1.481 . S
C299 N300 1.299 . S
C299 N301 1.379 . S
N300 N297 1.398 . S
N300 C299 1.299 . S
N301 C298 1.367 . S
N301 C299 1.379 . S
C302 N304 1.298 . S
C302 N306 1.367 . S
C302 C310 1.481 1_556 S
C303 N305 1.299 . S
C303 N306 1.379 . S
N304 Zn288 2.036 . S
N304 C302 1.298 . S
N304 N305 1.398 . S
N305 C303 1.299 . S
N305 N304 1.398 . S
N306 C302 1.367 . S
N306 C303 1.379 . S
H307 C310 0.980 . S
H308 C310 0.981 . S
H309 C310 0.981 . S
C310 C302 1.481 1_554 S
C310 H307 0.980 . S
C310 H308 0.981 . S
C310 H309 0.981 . S
C311 C298 1.481 . S
C311 H312 0.980 . S
C311 H313 0.981 . S
C311 H314 0.981 . S
H312 C311 0.980 . S
H313 C311 0.981 . S
H314 C311 0.981 . S
O315 Zn291 2.066 . S
O315 C294 1.256 . S
O316 Zn288 2.053 . S
O316 C294 1.244 . S
C317 O295 1.259 . S
C317 O296 1.254 . S
O318 Zn288 2.066 . S
O318 C290 1.256 . S
O319 C290 1.244 . S
O319 Zn291 2.053 . S
Zn320 O321 2.055 1_556 S
Zn320 O328 2.046 . S
Zn320 N336 2.036 . S
Zn320 O348 2.053 . S
Zn320 O350 2.066 . S
O321 Zn320 2.055 1_554 S
O321 C324 1.259 . S
C322 O350 1.256 . S
C322 O351 1.244 . S
Zn323 O325 2.046 1_556 S
Zn323 O327 2.055 . S
Zn323 N329 2.036 . S
Zn323 O347 2.066 . S
Zn323 O351 2.053 . S
C324 O321 1.259 . S
C324 O325 1.254 . S
O325 Zn323 2.046 1_554 S
O325 C324 1.254 . S
C326 O347 1.256 . S
C326 O348 1.244 . S
O327 Zn323 2.055 . S
O327 C349 1.259 . S
O328 Zn320 2.046 . S
O328 C349 1.254 . S
N329 Zn323 2.036 . S
N329 C330 1.298 . S
N329 N332 1.398 . S
C330 N329 1.298 . S
C330 N333 1.367 . S
C330 C343 1.481 . S
C331 N332 1.299 . S
C331 N333 1.379 . S
N332 N329 1.398 . S
N332 C331 1.299 . S
N333 C330 1.367 . S
N333 C331 1.379 . S
C334 N336 1.298 . S
C334 N338 1.367 . S
C334 C342 1.481 1_556 S
C335 N337 1.299 . S
C335 N338 1.379 . S
N336 Zn320 2.036 . S
N336 C334 1.298 . S
N336 N337 1.398 . S
N337 C335 1.299 . S
N337 N336 1.398 . S
N338 C334 1.367 . S
N338 C335 1.379 . S
H339 C342 0.980 . S
H340 C342 0.981 . S
H341 C342 0.981 . S
C342 C334 1.481 1_554 S
C342 H339 0.980 . S
C342 H340 0.981 . S
C342 H341 0.981 . S
C343 C330 1.481 . S
C343 H344 0.980 . S
C343 H345 0.981 . S
C343 H346 0.981 . S
H344 C343 0.980 . S
H345 C343 0.981 . S
H346 C343 0.981 . S
O347 Zn323 2.066 . S
O347 C326 1.256 . S
O348 Zn320 2.053 . S
O348 C326 1.244 . S
C349 O327 1.259 . S
C349 O328 1.254 . S
O350 Zn320 2.066 . S
O350 C322 1.256 . S
O351 C322 1.244 . S
O351 Zn323 2.053 . S
Zn352 O353 2.055 1_556 S
Zn352 O360 2.046 . S
Zn352 N368 2.036 . S
Zn352 O380 2.053 . S
Zn352 O382 2.066 . S
O353 Zn352 2.055 1_554 S
O353 C356 1.259 . S
C354 O382 1.256 . S
C354 O383 1.244 . S
Zn355 O357 2.046 1_556 S
Zn355 O359 2.055 . S
Zn355 N361 2.036 . S
Zn355 O379 2.066 . S
Zn355 O383 2.053 . S
C356 O353 1.259 . S
C356 O357 1.254 . S
O357 Zn355 2.046 1_554 S
O357 C356 1.254 . S
C358 O379 1.256 . S
C358 O380 1.244 . S
O359 Zn355 2.055 . S
O359 C381 1.259 . S
O360 Zn352 2.046 . S
O360 C381 1.254 . S
N361 Zn355 2.036 . S
N361 C362 1.298 . S
N361 N364 1.398 . S
C362 N361 1.298 . S
C362 N365 1.367 . S
C362 C375 1.481 . S
C363 N364 1.299 . S
C363 N365 1.379 . S
N364 N361 1.398 . S
N364 C363 1.299 . S
N365 C362 1.367 . S
N365 C363 1.379 . S
C366 N368 1.298 . S
C366 N370 1.367 . S
C366 C374 1.481 1_556 S
C367 N369 1.299 . S
C367 N370 1.379 . S
N368 Zn352 2.036 . S
N368 C366 1.298 . S
N368 N369 1.398 . S
N369 C367 1.299 . S
N369 N368 1.398 . S
N370 C366 1.367 . S
N370 C367 1.379 . S
H371 C374 0.980 . S
H372 C374 0.981 . S
H373 C374 0.981 . S
C374 C366 1.481 1_554 S
C374 H371 0.980 . S
C374 H372 0.981 . S
C374 H373 0.981 . S
C375 C362 1.481 . S
C375 H376 0.980 . S
C375 H377 0.981 . S
C375 H378 0.981 . S
H376 C375 0.980 . S
H377 C375 0.981 . S
H378 C375 0.981 . S
O379 Zn355 2.066 . S
O379 C358 1.256 . S
O380 Zn352 2.053 . S
O380 C358 1.244 . S
C381 O359 1.259 . S
C381 O360 1.254 . S
O382 Zn352 2.066 . S
O382 C354 1.256 . S
O383 C354 1.244 . S
O383 Zn355 2.053 . S
Zn384 O385 2.055 . S
Zn384 O392 2.046 1_554 S
Zn384 N400 2.036 1_565 S
Zn384 O412 2.053 1_565 S
Zn384 O414 2.066 . S
O385 Zn384 2.055 . S
O385 C388 1.259 . S
C386 O414 1.256 . S
C386 O415 1.244 . S
Zn387 O389 2.046 . S
Zn387 O391 2.055 1_554 S
Zn387 N393 2.036 . S
Zn387 O411 2.066 1_565 S
Zn387 O415 2.053 . S
C388 O385 1.259 . S
C388 O389 1.254 . S
O389 Zn387 2.046 . S
O389 C388 1.254 . S
C390 O411 1.256 . S
C390 O412 1.244 . S
O391 Zn387 2.055 1_556 S
O391 C413 1.259 . S
O392 Zn384 2.046 1_556 S
O392 C413 1.254 . S
N393 Zn387 2.036 . S
N393 C394 1.298 . S
N393 N396 1.398 . S
C394 N393 1.298 . S
C394 N397 1.367 . S
C394 C407 1.481 1_554 S
C395 N396 1.299 . S
C395 N397 1.379 . S
N396 N393 1.398 . S
N396 C395 1.299 . S
N397 C394 1.367 . S
N397 C395 1.379 . S
C398 N400 1.298 . S
C398 N402 1.367 . S
C398 C406 1.481 1_545 S
C399 N401 1.299 . S
C399 N402 1.379 . S
N400 Zn384 2.036 1_545 S
N400 C398 1.298 . S
N400 N401 1.398 . S
N401 C399 1.299 . S
N401 N400 1.398 . S
N402 C398 1.367 . S
N402 C399 1.379 . S
H403 C406 0.980 . S
H404 C406 0.981 . S
H405 C406 0.981 . S
C406 C398 1.481 1_565 S
C406 H403 0.980 . S
C406 H404 0.981 . S
C406 H405 0.981 . S
C407 C394 1.481 1_556 S
C407 H408 0.980 . S
C407 H409 0.981 . S
C407 H410 0.981 . S
H408 C407 0.980 . S
H409 C407 0.981 . S
H410 C407 0.981 . S
O411 Zn387 2.066 1_545 S
O411 C390 1.256 . S
O412 Zn384 2.053 1_545 S
O412 C390 1.244 . S
C413 O391 1.259 . S
C413 O392 1.254 . S
O414 Zn384 2.066 . S
O414 C386 1.256 . S
O415 C386 1.244 . S
O415 Zn387 2.053 . S
Zn416 O417 2.055 . S
Zn416 O424 2.046 . S
Zn416 N432 2.036 . S
Zn416 O444 2.053 . S
Zn416 O446 2.066 . S
O417 Zn416 2.055 . S
O417 C420 1.259 . S
C418 O446 1.256 1_556 S
C418 O447 1.244 1_556 S
Zn419 O421 2.046 . S
Zn419 O423 2.055 . S
Zn419 N425 2.036 . S
Zn419 O443 2.066 . S
Zn419 O447 2.053 . S
C420 O417 1.259 . S
C420 O421 1.254 . S
O421 Zn419 2.046 . S
O421 C420 1.254 . S
C422 O443 1.256 . S
C422 O444 1.244 . S
O423 Zn419 2.055 . S
O423 C445 1.259 . S
O424 Zn416 2.046 . S
O424 C445 1.254 . S
N425 Zn419 2.036 . S
N425 C426 1.298 . S
N425 N428 1.398 . S
C426 N425 1.298 . S
C426 N429 1.367 . S
C426 C439 1.481 . S
C427 N428 1.299 . S
C427 N429 1.379 . S
N428 N425 1.398 . S
N428 C427 1.299 . S
N429 C426 1.367 . S
N429 C427 1.379 . S
C430 N432 1.298 . S
C430 N434 1.367 . S
C430 C438 1.481 . S
C431 N433 1.299 . S
C431 N434 1.379 . S
N432 Zn416 2.036 . S
N432 C430 1.298 . S
N432 N433 1.398 . S
N433 C431 1.299 . S
N433 N432 1.398 . S
N434 C430 1.367 . S
N434 C431 1.379 . S
H435 C438 0.980 . S
H436 C438 0.981 . S
H437 C438 0.981 . S
C438 C430 1.481 . S
C438 H435 0.980 . S
C438 H436 0.981 . S
C438 H437 0.981 . S
C439 C426 1.481 . S
C439 H440 0.980 . S
C439 H441 0.981 . S
C439 H442 0.981 . S
H440 C439 0.980 . S
H441 C439 0.981 . S
H442 C439 0.981 . S
O443 Zn419 2.066 . S
O443 C422 1.256 . S
O444 Zn416 2.053 . S
O444 C422 1.244 . S
C445 O423 1.259 . S
C445 O424 1.254 . S
O446 Zn416 2.066 . S
O446 C418 1.256 1_554 S
O447 C418 1.244 1_554 S
O447 Zn419 2.053 . S
Zn448 O449 2.055 1_554 S
Zn448 O456 2.046 . S
Zn448 N464 2.036 . S
Zn448 O476 2.053 . S
Zn448 O478 2.066 . S
O449 Zn448 2.055 1_556 S
O449 C452 1.259 . S
C450 O478 1.256 . S
C450 O479 1.244 . S
Zn451 O453 2.046 1_554 S
Zn451 O455 2.055 . S
Zn451 N457 2.036 . S
Zn451 O475 2.066 . S
Zn451 O479 2.053 . S
C452 O449 1.259 . S
C452 O453 1.254 . S
O453 Zn451 2.046 1_556 S
O453 C452 1.254 . S
C454 O475 1.256 . S
C454 O476 1.244 . S
O455 Zn451 2.055 . S
O455 C477 1.259 . S
O456 Zn448 2.046 . S
O456 C477 1.254 . S
N457 Zn451 2.036 . S
N457 C458 1.298 . S
N457 N460 1.398 . S
C458 N457 1.298 . S
C458 N461 1.367 . S
C458 C471 1.481 . S
C459 N460 1.299 . S
C459 N461 1.379 . S
N460 N457 1.398 . S
N460 C459 1.299 . S
N461 C458 1.367 . S
N461 C459 1.379 . S
C462 N464 1.298 . S
C462 N466 1.367 . S
C462 C470 1.481 1_554 S
C463 N465 1.299 . S
C463 N466 1.379 . S
N464 Zn448 2.036 . S
N464 C462 1.298 . S
N464 N465 1.398 . S
N465 C463 1.299 . S
N465 N464 1.398 . S
N466 C462 1.367 . S
N466 C463 1.379 . S
H467 C470 0.980 . S
H468 C470 0.981 . S
H469 C470 0.981 . S
C470 C462 1.481 1_556 S
C470 H467 0.980 . S
C470 H468 0.981 . S
C470 H469 0.981 . S
C471 C458 1.481 . S
C471 H472 0.980 . S
C471 H473 0.981 . S
C471 H474 0.981 . S
H472 C471 0.980 . S
H473 C471 0.981 . S
H474 C471 0.981 . S
O475 Zn451 2.066 . S
O475 C454 1.256 . S
O476 Zn448 2.053 . S
O476 C454 1.244 . S
C477 O455 1.259 . S
C477 O456 1.254 . S
O478 Zn448 2.066 . S
O478 C450 1.256 . S
O479 C450 1.244 . S
O479 Zn451 2.053 . S
Zn480 O481 2.055 . S
Zn480 O488 2.046 . S
Zn480 N496 2.036 . S
Zn480 O508 2.053 . S
Zn480 O510 2.066 . S
O481 Zn480 2.055 . S
O481 C484 1.259 . S
C482 O510 1.256 1_556 S
C482 O511 1.244 1_556 S
Zn483 O485 2.046 . S
Zn483 O487 2.055 . S
Zn483 N489 2.036 . S
Zn483 O507 2.066 . S
Zn483 O511 2.053 . S
C484 O481 1.259 . S
C484 O485 1.254 . S
O485 Zn483 2.046 . S
O485 C484 1.254 . S
C486 O507 1.256 . S
C486 O508 1.244 . S
O487 Zn483 2.055 . S
O487 C509 1.259 . S
O488 Zn480 2.046 . S
O488 C509 1.254 . S
N489 Zn483 2.036 . S
N489 C490 1.298 . S
N489 N492 1.398 . S
C490 N489 1.298 . S
C490 N493 1.367 . S
C490 C503 1.481 . S
C491 N492 1.299 . S
C491 N493 1.379 . S
N492 N489 1.398 . S
N492 C491 1.299 . S
N493 C490 1.367 . S
N493 C491 1.379 . S
C494 N496 1.298 . S
C494 N498 1.367 . S
C494 C502 1.481 . S
C495 N497 1.299 . S
C495 N498 1.379 . S
N496 Zn480 2.036 . S
N496 C494 1.298 . S
N496 N497 1.398 . S
N497 C495 1.299 . S
N497 N496 1.398 . S
N498 C494 1.367 . S
N498 C495 1.379 . S
H499 C502 0.980 . S
H500 C502 0.981 . S
H501 C502 0.981 1_556 S
C502 C494 1.481 . S
C502 H499 0.980 . S
C502 H500 0.981 . S
C502 H501 0.981 1_554 S
C503 C490 1.481 . S
C503 H504 0.980 . S
C503 H505 0.981 . S
C503 H506 0.981 . S
H504 C503 0.980 . S
H505 C503 0.981 . S
H506 C503 0.981 . S
O507 Zn483 2.066 . S
O507 C486 1.256 . S
O508 Zn480 2.053 . S
O508 C486 1.244 . S
C509 O487 1.259 . S
C509 O488 1.254 . S
O510 Zn480 2.066 . S
O510 C482 1.256 1_554 S
O511 C482 1.244 1_554 S
O511 Zn483 2.053 . S
Zn512 O513 2.055 . S
Zn512 O520 2.046 1_554 S
Zn512 N528 2.036 . S
Zn512 O540 2.053 . S
Zn512 O542 2.066 . S
O513 Zn512 2.055 . S
O513 C516 1.259 . S
C514 O542 1.256 . S
C514 O543 1.244 . S
Zn515 O517 2.046 . S
Zn515 O519 2.055 1_554 S
Zn515 N521 2.036 . S
Zn515 O539 2.066 . S
Zn515 O543 2.053 . S
C516 O513 1.259 . S
C516 O517 1.254 . S
O517 Zn515 2.046 . S
O517 C516 1.254 . S
C518 O539 1.256 1_545 S
C518 O540 1.244 1_545 S
O519 Zn515 2.055 1_556 S
O519 C541 1.259 . S
O520 Zn512 2.046 1_556 S
O520 C541 1.254 . S
N521 Zn515 2.036 . S
N521 C522 1.298 . S
N521 N524 1.398 . S
C522 N521 1.298 . S
C522 N525 1.367 . S
C522 C535 1.481 1_554 S
C523 N524 1.299 . S
C523 N525 1.379 . S
N524 N521 1.398 . S
N524 C523 1.299 . S
N525 C522 1.367 . S
N525 C523 1.379 . S
C526 N528 1.298 . S
C526 N530 1.367 . S
C526 C534 1.481 . S
C527 N529 1.318 1_545 S
C527 N530 1.379 1_545 S
N528 Zn512 2.036 . S
N528 C526 1.298 . S
N528 N529 1.435 . S
N529 C527 1.318 1_565 S
N529 N528 1.435 . S
N530 C526 1.367 . S
N530 C527 1.379 1_565 S
H531 C534 0.980 . S
H532 C534 0.981 . S
H533 C534 0.981 . S
C534 C526 1.481 . S
C534 H531 0.980 . S
C534 H532 0.981 . S
C534 H533 0.981 . S
C535 C522 1.481 1_556 S
C535 H536 0.980 . S
C535 H537 0.981 . S
C535 H538 0.981 . S
H536 C535 0.980 . S
H537 C535 0.981 . S
H538 C535 0.981 . S
O539 Zn515 2.066 . S
O539 C518 1.256 1_565 S
O540 Zn512 2.053 . S
O540 C518 1.244 1_565 S
C541 O519 1.259 . S
C541 O520 1.254 . S
O542 Zn512 2.066 . S
O542 C514 1.256 . S
O543 C514 1.244 . S
O543 Zn515 2.053 . S
Zn544 O545 2.055 . S
Zn544 O552 2.046 . S
Zn544 N560 2.036 . S
Zn544 O572 2.053 . S
Zn544 O574 2.066 . S
O545 Zn544 2.055 . S
O545 C548 1.259 . S
C546 O574 1.256 . S
C546 O575 1.244 . S
Zn547 O549 2.046 . S
Zn547 O551 2.055 . S
Zn547 N553 2.036 . S
Zn547 O571 2.066 . S
Zn547 O575 2.053 . S
C548 O545 1.259 . S
C548 O549 1.254 . S
O549 Zn547 2.046 . S
O549 C548 1.254 . S
C550 O571 1.256 1_556 S
C550 O572 1.244 1_556 S
O551 Zn547 2.055 . S
O551 C573 1.259 . S
O552 Zn544 2.046 . S
O552 C573 1.254 . S
N553 Zn547 2.036 . S
N553 C554 1.298 . S
N553 N556 1.398 . S
C554 N553 1.298 . S
C554 N557 1.367 . S
C554 C567 1.481 . S
C555 N556 1.299 . S
C555 N557 1.379 . S
N556 N553 1.398 . S
N556 C555 1.299 . S
N557 C554 1.367 . S
N557 C555 1.379 . S
C558 N560 1.298 . S
C558 N562 1.367 . S
C558 C566 1.481 . S
C559 N561 1.299 . S
C559 N562 1.379 . S
N560 Zn544 2.036 . S
N560 C558 1.298 . S
N560 N561 1.398 . S
N561 C559 1.299 . S
N561 N560 1.398 . S
N562 C558 1.367 . S
N562 C559 1.379 . S
H563 C566 0.980 . S
H564 C566 0.981 . S
H565 C566 0.981 . S
C566 C558 1.481 . S
C566 H563 0.980 . S
C566 H564 0.981 . S
C566 H565 0.981 . S
C567 C554 1.481 . S
C567 H568 0.980 . S
C567 H569 0.981 . S
C567 H570 0.981 . S
H568 C567 0.980 . S
H569 C567 0.981 . S
H570 C567 0.981 . S
O571 Zn547 2.066 . S
O571 C550 1.256 1_554 S
O572 Zn544 2.053 . S
O572 C550 1.244 1_554 S
C573 O551 1.259 . S
C573 O552 1.254 . S
O574 Zn544 2.066 . S
O574 C546 1.256 . S
O575 C546 1.244 . S
O575 Zn547 2.053 . S
H576 C582 0.930 . S
H577 C585 0.930 . S
H578 C586 0.930 . S
H579 C587 0.930 . S
H580 C590 0.930 . S
H581 C591 0.930 . S
C582 H576 0.930 . S
C582 C583 1.355 . S
C582 C584 1.415 . S
C583 C582 1.355 . S
C583 C585 1.419 . S
C584 C582 1.415 . S
C584 C589 1.425 . S
C584 C591 1.409 . S
C585 H577 0.930 . S
C585 C583 1.419 . S
C585 C586 1.362 . S
C586 H578 0.930 . S
C586 C585 1.362 . S
C586 C589 1.409 . S
C587 H579 0.930 . S
C587 C588 1.355 . S
C587 C589 1.415 . S
C588 C587 1.355 . S
C588 C590 1.419 . S
C589 C584 1.425 . S
C589 C586 1.409 . S
C589 C587 1.415 . S
C590 H580 0.930 . S
C590 C588 1.419 . S
C590 C591 1.362 . S
C591 H581 0.930 . S
C591 C584 1.409 . S
C591 C590 1.362 . S
H592 C598 0.930 . S
H593 C601 0.930 . S
H594 C602 0.930 . S
H595 C603 0.930 . S
H596 C606 0.930 . S
H597 C607 0.930 . S
C598 H592 0.930 . S
C598 C599 1.355 . S
C598 C600 1.415 . S
C599 C598 1.355 . S
C599 C601 1.419 . S
C600 C598 1.415 . S
C600 C605 1.425 . S
C600 C607 1.409 . S
C601 H593 0.930 . S
C601 C599 1.419 . S
C601 C602 1.362 . S
C602 H594 0.930 . S
C602 C601 1.362 . S
C602 C605 1.409 . S
C603 H595 0.930 . S
C603 C604 1.355 . S
C603 C605 1.415 . S
C604 C603 1.355 . S
C604 C606 1.419 . S
C605 C600 1.425 . S
C605 C602 1.409 . S
C605 C603 1.415 . S
C606 H596 0.930 . S
C606 C604 1.419 . S
C606 C607 1.362 . S
C607 H597 0.930 . S
C607 C600 1.409 . S
C607 C606 1.362 . S
H608 C614 0.930 . S
H609 C617 0.930 . S
H610 C618 0.930 . S
H611 C619 0.930 . S
H612 C622 0.930 . S
H613 C623 0.930 . S
C614 H608 0.930 . S
C614 C615 1.355 . S
C614 C616 1.415 . S
C615 C614 1.355 . S
C615 C617 1.419 . S
C616 C614 1.415 . S
C616 C621 1.425 . S
C616 C623 1.409 . S
C617 H609 0.930 . S
C617 C615 1.419 . S
C617 C618 1.362 . S
C618 H610 0.930 . S
C618 C617 1.362 . S
C618 C621 1.409 . S
C619 H611 0.930 . S
C619 C620 1.355 . S
C619 C621 1.415 . S
C620 C619 1.355 . S
C620 C622 1.419 . S
C621 C616 1.425 . S
C621 C618 1.409 . S
C621 C619 1.415 . S
C622 H612 0.930 . S
C622 C620 1.419 . S
C622 C623 1.362 . S
C623 H613 0.930 . S
C623 C616 1.409 . S
C623 C622 1.362 . S
H624 C630 0.930 . S
H625 C633 0.930 . S
H626 C634 0.930 . S
H627 C635 0.930 . S
H628 C638 0.930 . S
H629 C639 0.930 . S
C630 H624 0.930 . S
C630 C631 1.355 . S
C630 C632 1.415 . S
C631 C630 1.355 . S
C631 C633 1.419 . S
C632 C630 1.415 . S
C632 C637 1.425 . S
C632 C639 1.409 . S
C633 H625 0.930 . S
C633 C631 1.419 . S
C633 C634 1.362 . S
C634 H626 0.930 . S
C634 C633 1.362 . S
C634 C637 1.409 . S
C635 H627 0.930 . S
C635 C636 1.355 . S
C635 C637 1.415 . S
C636 C635 1.355 . S
C636 C638 1.419 . S
C637 C632 1.425 . S
C637 C634 1.409 . S
C637 C635 1.415 . S
C638 H628 0.930 . S
C638 C636 1.419 . S
C638 C639 1.362 . S
C639 H629 0.930 . S
C639 C632 1.409 . S
C639 C638 1.362 . S
H640 C646 0.930 . S
H641 C649 0.930 . S
H642 C650 0.930 . S
H643 C651 0.930 . S
H644 C654 0.930 . S
H645 C655 0.930 . S
C646 H640 0.930 . S
C646 C647 1.355 . S
C646 C648 1.415 . S
C647 C646 1.355 . S
C647 C649 1.419 . S
C648 C646 1.415 . S
C648 C653 1.425 . S
C648 C655 1.409 . S
C649 H641 0.930 . S
C649 C647 1.419 . S
C649 C650 1.362 . S
C650 H642 0.930 . S
C650 C649 1.362 . S
C650 C653 1.409 . S
C651 H643 0.930 . S
C651 C652 1.355 . S
C651 C653 1.415 . S
C652 C651 1.355 . S
C652 C654 1.419 . S
C653 C648 1.425 . S
C653 C650 1.409 . S
C653 C651 1.415 . S
C654 H644 0.930 . S
C654 C652 1.419 . S
C654 C655 1.362 . S
C655 H645 0.930 . S
C655 C648 1.409 . S
C655 C654 1.362 . S
H656 C662 0.930 . S
H657 C665 0.930 . S
H658 C666 0.930 . S
H659 C667 0.930 . S
H660 C670 0.930 . S
H661 C671 0.930 . S
C662 H656 0.930 . S
C662 C663 1.355 . S
C662 C664 1.415 . S
C663 C662 1.355 . S
C663 C665 1.419 . S
C664 C662 1.415 . S
C664 C669 1.425 . S
C664 C671 1.409 . S
C665 H657 0.930 . S
C665 C663 1.419 . S
C665 C666 1.362 . S
C666 H658 0.930 . S
C666 C665 1.362 . S
C666 C669 1.409 . S
C667 H659 0.930 . S
C667 C668 1.355 . S
C667 C669 1.415 . S
C668 C667 1.355 . S
C668 C670 1.419 . S
C669 C664 1.425 . S
C669 C666 1.409 . S
C669 C667 1.415 . S
C670 H660 0.930 . S
C670 C668 1.419 . S
C670 C671 1.362 . S
C671 H661 0.930 . S
C671 C664 1.409 . S
C671 C670 1.362 . S
H672 C678 0.930 . S
H673 C681 0.930 . S
H674 C682 0.937 . S
H675 C683 0.930 . S
H676 C686 0.930 . S
H677 C687 0.930 . S
C678 H672 0.930 . S
C678 C679 1.355 1_655 S
C678 C680 1.415 . S
C679 C678 1.355 1_455 S
C679 C681 1.419 . S
C680 C678 1.415 . S
C680 C685 1.425 . S
C680 C687 1.409 . S
C681 H673 0.930 . S
C681 C679 1.419 . S
C681 C682 1.375 . S
C682 H674 0.937 . S
C682 C681 1.375 . S
C682 C685 1.391 1_455 S
C683 H675 0.930 . S
C683 C684 1.355 . S
C683 C685 1.415 . S
C684 C683 1.355 . S
C684 C686 1.419 . S
C685 C680 1.425 . S
C685 C682 1.391 1_655 S
C685 C683 1.415 . S
C686 H676 0.930 . S
C686 C684 1.419 . S
C686 C687 1.362 . S
C687 H677 0.930 . S
C687 C680 1.409 . S
C687 C686 1.362 . S
H688 C694 0.930 . S
H689 C697 0.930 . S
H690 C698 0.930 . S
H691 C699 0.930 . S
H692 C702 0.930 . S
H693 C703 0.930 . S
C694 H688 0.930 . S
C694 C695 1.355 . S
C694 C696 1.415 . S
C695 C694 1.355 . S
C695 C697 1.419 . S
C696 C694 1.415 . S
C696 C701 1.425 . S
C696 C703 1.409 . S
C697 H689 0.930 . S
C697 C695 1.419 . S
C697 C698 1.362 . S
C698 H690 0.930 . S
C698 C697 1.362 . S
C698 C701 1.409 . S
C699 H691 0.930 . S
C699 C700 1.355 . S
C699 C701 1.415 . S
C700 C699 1.355 . S
C700 C702 1.419 . S
C701 C696 1.425 . S
C701 C698 1.409 . S
C701 C699 1.415 . S
C702 H692 0.930 . S
C702 C700 1.419 . S
C702 C703 1.362 . S
C703 H693 0.930 . S
C703 C696 1.409 . S
C703 C702 1.362 . S
H704 C710 0.930 . S
H705 C713 0.930 . S
H706 C714 0.930 . S
H707 C715 0.930 . S
H708 C718 0.930 . S
H709 C719 0.930 . S
C710 H704 0.930 . S
C710 C711 1.355 . S
C710 C712 1.415 . S
C711 C710 1.355 . S
C711 C713 1.419 . S
C712 C710 1.415 . S
C712 C717 1.425 . S
C712 C719 1.409 . S
C713 H705 0.930 . S
C713 C711 1.419 . S
C713 C714 1.362 . S
C714 H706 0.930 . S
C714 C713 1.362 . S
C714 C717 1.409 . S
C715 H707 0.930 . S
C715 C716 1.355 . S
C715 C717 1.415 . S
C716 C715 1.355 . S
C716 C718 1.419 . S
C717 C712 1.425 . S
C717 C714 1.409 . S
C717 C715 1.415 . S
C718 H708 0.930 . S
C718 C716 1.419 . S
C718 C719 1.362 . S
C719 H709 0.930 . S
C719 C712 1.409 . S
C719 C718 1.362 . S
H720 C726 0.930 . S
H721 C729 0.960 . S
H722 C730 0.930 . S
H723 C731 0.930 . S
H724 C734 0.930 . S
H725 C735 0.930 . S
C726 H720 0.930 . S
C726 C727 1.355 . S
C726 C728 1.415 . S
C727 C726 1.355 . S
C727 C729 1.387 1_565 S
C728 C726 1.415 . S
C728 C733 1.425 1_565 S
C728 C735 1.409 . S
C729 H721 0.960 . S
C729 C727 1.387 1_545 S
C729 C730 1.365 . S
C730 H722 0.930 . S
C730 C729 1.365 . S
C730 C733 1.409 . S
C731 H723 0.930 . S
C731 C732 1.355 . S
C731 C733 1.415 . S
C732 C731 1.355 . S
C732 C734 1.419 1_545 S
C733 C728 1.425 1_545 S
C733 C730 1.409 . S
C733 C731 1.415 . S
C734 H724 0.930 . S
C734 C732 1.419 1_565 S
C734 C735 1.362 . S
C735 H725 0.930 . S
C735 C728 1.409 . S
C735 C734 1.362 . S
H736 C742 0.930 . S
H737 C745 0.930 . S
H738 C746 0.930 . S
H739 C747 0.930 . S
H740 C750 0.930 . S
H741 C751 0.930 . S
C742 H736 0.930 . S
C742 C743 1.355 . S
C742 C744 1.415 . S
C743 C742 1.355 . S
C743 C745 1.419 . S
C744 C742 1.415 . S
C744 C749 1.425 . S
C744 C751 1.409 . S
C745 H737 0.930 . S
C745 C743 1.419 . S
C745 C746 1.362 . S
C746 H738 0.930 . S
C746 C745 1.362 . S
C746 C749 1.409 . S
C747 H739 0.930 . S
C747 C748 1.355 . S
C747 C749 1.415 . S
C748 C747 1.355 . S
C748 C750 1.419 . S
C749 C744 1.425 . S
C749 C746 1.409 . S
C749 C747 1.415 . S
C750 H740 0.930 . S
C750 C748 1.419 . S
C750 C751 1.362 . S
C751 H741 0.930 . S
C751 C744 1.409 . S
C751 C750 1.362 . S
H752 C758 0.930 . S
H753 C761 0.930 . S
H754 C762 0.930 . S
H755 C763 0.930 . S
H756 C766 0.930 . S
H757 C767 0.930 . S
C758 H752 0.930 . S
C758 C759 1.355 . S
C758 C760 1.415 . S
C759 C758 1.355 . S
C759 C761 1.419 . S
C760 C758 1.415 . S
C760 C765 1.425 . S
C760 C767 1.409 . S
C761 H753 0.930 . S
C761 C759 1.419 . S
C761 C762 1.362 . S
C762 H754 0.930 . S
C762 C761 1.362 . S
C762 C765 1.409 . S
C763 H755 0.930 . S
C763 C764 1.355 . S
C763 C765 1.415 . S
C764 C763 1.355 . S
C764 C766 1.419 . S
C765 C760 1.425 . S
C765 C762 1.409 . S
C765 C763 1.415 . S
C766 H756 0.930 . S
C766 C764 1.419 . S
C766 C767 1.362 . S
C767 H757 0.930 . S
C767 C760 1.409 . S
C767 C766 1.362 . S
H768 C774 0.930 . S
H769 C777 0.930 . S
H770 C778 0.930 . S
H771 C779 0.930 . S
H772 C782 0.930 . S
H773 C783 0.930 . S
C774 H768 0.930 . S
C774 C775 1.355 . S
C774 C776 1.415 1_556 S
C775 C774 1.355 . S
C775 C777 1.419 . S
C776 C774 1.415 1_554 S
C776 C781 1.425 . S
C776 C783 1.409 . S
C777 H769 0.930 . S
C777 C775 1.419 . S
C777 C778 1.362 1_556 S
C778 H770 0.930 . S
C778 C777 1.362 1_554 S
C778 C781 1.409 . S
C779 H771 0.930 . S
C779 C780 1.355 . S
C779 C781 1.415 1_455 S
C780 C779 1.355 . S
C780 C782 1.419 . S
C781 C776 1.425 . S
C781 C778 1.409 . S
C781 C779 1.415 1_655 S
C782 H772 0.930 . S
C782 C780 1.419 . S
C782 C783 1.362 1_455 S
C783 H773 0.930 . S
C783 C776 1.409 . S
C783 C782 1.362 1_655 S
H784 C790 0.930 . S
H785 C793 0.930 . S
H786 C794 0.930 . S
H787 C795 0.930 . S
H788 C798 0.930 . S
H789 C799 0.931 . S
C790 H784 0.930 . S
C790 C791 1.355 . S
C790 C792 1.413 1_556 S
C791 C790 1.355 . S
C791 C793 1.419 1_556 S
C792 C790 1.413 1_554 S
C792 C797 1.427 . S
C792 C799 1.409 1_554 S
C793 H785 0.930 . S
C793 C791 1.419 1_554 S
C793 C794 1.362 . S
C794 H786 0.930 . S
C794 C793 1.362 . S
C794 C797 1.409 . S
C795 H787 0.930 . S
C795 C796 1.355 . S
C795 C797 1.415 . S
C796 C795 1.355 . S
C796 C798 1.419 . S
C797 C792 1.427 . S
C797 C794 1.409 . S
C797 C795 1.415 . S
C798 H788 0.930 . S
C798 C796 1.419 . S
C798 C799 1.362 1_554 S
C799 H789 0.931 . S
C799 C792 1.409 1_556 S
C799 C798 1.362 1_556 S
H800 C806 0.930 1_554 S
H801 C809 0.930 . S
H802 C810 0.930 . S
H803 C811 0.930 . S
H804 C814 0.930 . S
H805 C815 0.930 . S
C806 H800 0.930 1_556 S
C806 C807 1.355 . S
C806 C808 1.415 1_556 S
C807 C806 1.355 . S
C807 C809 1.419 . S
C808 C806 1.415 1_554 S
C808 C813 1.425 1_554 S
C808 C815 1.409 . S
C809 H801 0.930 . S
C809 C807 1.419 . S
C809 C810 1.362 . S
C810 H802 0.930 . S
C810 C809 1.362 . S
C810 C813 1.409 . S
C811 H803 0.930 . S
C811 C812 1.355 1_556 S
C811 C813 1.415 . S
C812 C811 1.355 1_554 S
C812 C814 1.419 . S
C813 C808 1.425 1_556 S
C813 C810 1.409 . S
C813 C811 1.415 . S
C814 H804 0.930 . S
C814 C812 1.419 . S
C814 C815 1.362 . S
C815 H805 0.930 . S
C815 C808 1.409 . S
C815 C814 1.362 . S
H816 C822 0.930 . S
H817 C825 0.930 . S
H818 C826 0.930 . S
H819 C827 0.930 1_556 S
H820 C830 0.930 . S
H821 C831 0.930 . S
C822 H816 0.930 . S
C822 C823 1.355 . S
C822 C824 1.415 . S
C823 C822 1.355 . S
C823 C825 1.419 . S
C824 C822 1.415 . S
C824 C829 1.425 . S
C824 C831 1.409 1_556 S
C825 H817 0.930 . S
C825 C823 1.419 . S
C825 C826 1.362 . S
C826 H818 0.930 . S
C826 C825 1.362 . S
C826 C829 1.409 . S
C827 H819 0.930 1_554 S
C827 C828 1.355 . S
C827 C829 1.415 1_554 S
C828 C827 1.355 . S
C828 C830 1.419 . S
C829 C824 1.425 . S
C829 C826 1.409 . S
C829 C827 1.415 1_556 S
C830 H820 0.930 . S
C830 C828 1.419 . S
C830 C831 1.362 . S
C831 H821 0.930 . S
C831 C824 1.409 1_554 S
C831 C830 1.362 . S
H832 C838 0.930 . S
H833 C841 0.930 . S
H834 C842 0.930 . S
H835 C843 0.930 . S
H836 C846 0.930 . S
H837 C847 0.930 . S
C838 H832 0.930 . S
C838 C839 1.355 . S
C838 C840 1.450 . S
C839 C838 1.355 . S
C839 C841 1.419 1_554 S
C840 C838 1.450 . S
C840 C845 1.422 1_454 S
C840 C847 1.378 1_455 S
C841 H833 0.930 . S
C841 C839 1.419 1_556 S
C841 C842 1.362 . S
C842 H834 0.930 . S
C842 C841 1.362 . S
C842 C845 1.409 1_455 S
C843 H835 0.930 . S
C843 C844 1.355 . S
C843 C845 1.415 . S
C844 C843 1.355 . S
C844 C846 1.419 1_556 S
C845 C840 1.422 1_656 S
C845 C842 1.409 1_655 S
C845 C843 1.415 . S
C846 H836 0.930 . S
C846 C844 1.419 1_554 S
C846 C847 1.362 . S
C847 H837 0.930 . S
C847 C840 1.378 1_655 S
C847 C846 1.362 . S
H848 C854 0.930 . S
H849 C857 0.930 . S
H850 C858 0.930 . S
H851 C859 0.930 . S
H852 C862 0.930 . S
H853 C863 0.930 . S
C854 H848 0.930 . S
C854 C855 1.355 1_556 S
C854 C856 1.415 . S
C855 C854 1.355 1_554 S
C855 C857 1.419 . S
C856 C854 1.415 . S
C856 C861 1.425 1_556 S
C856 C863 1.409 . S
C857 H849 0.930 . S
C857 C855 1.419 . S
C857 C858 1.362 . S
C858 H850 0.930 . S
C858 C857 1.362 . S
C858 C861 1.409 . S
C859 H851 0.930 . S
C859 C860 1.355 1_554 S
C859 C861 1.415 . S
C860 C859 1.355 1_556 S
C860 C862 1.419 . S
C861 C856 1.425 1_554 S
C861 C858 1.409 . S
C861 C859 1.415 . S
C862 H852 0.930 . S
C862 C860 1.419 . S
C862 C863 1.362 . S
C863 H853 0.930 . S
C863 C856 1.409 . S
C863 C862 1.362 . S
H864 C870 0.930 . S
H865 C873 0.930 . S
H866 C874 0.930 . S
H867 C875 0.930 . S
H868 C878 0.930 . S
H869 C879 0.930 . S
C870 H864 0.930 . S
C870 C871 1.355 . S
C870 C872 1.415 . S
C871 C870 1.355 . S
C871 C873 1.419 . S
C872 C870 1.415 . S
C872 C877 1.425 . S
C872 C879 1.409 . S
C873 H865 0.930 . S
C873 C871 1.419 . S
C873 C874 1.362 . S
C874 H866 0.930 . S
C874 C873 1.362 . S
C874 C877 1.409 . S
C875 H867 0.930 . S
C875 C876 1.355 . S
C875 C877 1.415 . S
C876 C875 1.355 . S
C876 C878 1.419 . S
C877 C872 1.425 . S
C877 C874 1.409 . S
C877 C875 1.415 . S
C878 H868 0.930 . S
C878 C876 1.419 . S
C878 C879 1.362 . S
C879 H869 0.930 . S
C879 C872 1.409 . S
C879 C878 1.362 . S
H880 C886 0.930 . S
H881 C889 0.930 . S
H882 C890 0.930 . S
H883 C891 0.930 . S
H884 C894 0.930 . S
H885 C895 0.930 . S
C886 H880 0.930 . S
C886 C887 1.355 . S
C886 C888 1.415 . S
C887 C886 1.355 . S
C887 C889 1.419 . S
C888 C886 1.415 . S
C888 C893 1.425 . S
C888 C895 1.409 . S
C889 H881 0.930 . S
C889 C887 1.419 . S
C889 C890 1.362 . S
C890 H882 0.930 . S
C890 C889 1.362 . S
C890 C893 1.409 . S
C891 H883 0.930 . S
C891 C892 1.355 . S
C891 C893 1.415 1_565 S
C892 C891 1.355 . S
C892 C894 1.419 . S
C893 C888 1.425 . S
C893 C890 1.409 . S
C893 C891 1.415 1_545 S
C894 H884 0.930 . S
C894 C892 1.419 . S
C894 C895 1.362 1_565 S
C895 H885 0.930 . S
C895 C888 1.409 . S
C895 C894 1.362 1_545 S
H896 C902 0.930 . S
H897 C905 0.930 . S
H898 C906 0.930 . S
H899 C907 0.930 . S
H900 C910 0.930 . S
H901 C911 0.930 . S
C902 H896 0.930 . S
C902 C903 1.355 . S
C902 C904 1.415 . S
C903 C902 1.355 . S
C903 C905 1.419 . S
C904 C902 1.415 . S
C904 C909 1.425 . S
C904 C911 1.409 1_565 S
C905 H897 0.930 . S
C905 C903 1.419 . S
C905 C906 1.362 . S
C906 H898 0.930 . S
C906 C905 1.362 . S
C906 C909 1.409 . S
C907 H899 0.930 . S
C907 C908 1.355 . S
C907 C909 1.415 1_545 S
C908 C907 1.355 . S
C908 C910 1.419 . S
C909 C904 1.425 . S
C909 C906 1.409 . S
C909 C907 1.415 1_565 S
C910 H900 0.930 . S
C910 C908 1.419 . S
C910 C911 1.362 . S
C911 H901 0.930 . S
C911 C904 1.409 1_545 S
C911 C910 1.362 . S
H912 C918 0.930 . S
H913 C921 0.930 . S
H914 C922 0.930 . S
H915 C923 0.930 . S
H916 C926 0.930 . S
H917 C927 0.930 . S
C918 H912 0.930 . S
C918 C919 1.355 . S
C918 C920 1.415 . S
C919 C918 1.355 . S
C919 C921 1.419 . S
C920 C918 1.415 . S
C920 C925 1.425 . S
C920 C927 1.409 . S
C921 H913 0.930 . S
C921 C919 1.419 . S
C921 C922 1.362 . S
C922 H914 0.930 . S
C922 C921 1.362 . S
C922 C925 1.409 . S
C923 H915 0.930 . S
C923 C924 1.355 . S
C923 C925 1.415 . S
C924 C923 1.355 . S
C924 C926 1.419 . S
C925 C920 1.425 . S
C925 C922 1.409 . S
C925 C923 1.415 . S
C926 H916 0.930 . S
C926 C924 1.419 . S
C926 C927 1.362 . S
C927 H917 0.930 . S
C927 C920 1.409 . S
C927 C926 1.362 . S
H928 C934 0.930 . S
H929 C937 0.930 . S
H930 C938 0.930 . S
H931 C939 0.930 . S
H932 C942 0.948 . S
H933 C943 0.930 . S
C934 H928 0.930 . S
C934 C935 1.355 . S
C934 C936 1.415 . S
C935 C934 1.355 . S
C935 C937 1.419 . S
C936 C934 1.415 . S
C936 C941 1.425 . S
C936 C943 1.409 . S
C937 H929 0.930 . S
C937 C935 1.419 . S
C937 C938 1.362 . S
C938 H930 0.930 . S
C938 C937 1.362 . S
C938 C941 1.409 . S
C939 H931 0.930 . S
C939 C940 1.355 . S
C939 C941 1.415 . S
C940 C939 1.355 . S
C940 C942 1.419 . S
C941 C936 1.425 . S
C941 C938 1.409 . S
C941 C939 1.415 . S
C942 H932 0.948 . S
C942 C940 1.419 . S
C942 C943 1.362 . S
C943 H933 0.930 . S
C943 C936 1.409 . S
C943 C942 1.362 . S
H944 C950 0.930 . S
H945 C953 0.930 . S
H946 C954 0.930 . S
H947 C955 0.930 . S
H948 C958 0.930 . S
H949 C959 0.930 . S
C950 H944 0.930 . S
C950 C951 1.355 . S
C950 C952 1.415 . S
C951 C950 1.355 . S
C951 C953 1.419 . S
C952 C950 1.415 . S
C952 C957 1.425 . S
C952 C959 1.409 . S
C953 H945 0.930 . S
C953 C951 1.419 . S
C953 C954 1.362 . S
C954 H946 0.930 . S
C954 C953 1.362 . S
C954 C957 1.409 . S
C955 H947 0.930 . S
C955 C956 1.355 . S
C955 C957 1.415 . S
C956 C955 1.355 . S
C956 C958 1.419 . S
C957 C952 1.425 . S
C957 C954 1.409 . S
C957 C955 1.415 . S
C958 H948 0.930 . S
C958 C956 1.419 . S
C958 C959 1.362 . S
C959 H949 0.930 . S
C959 C952 1.409 . S
C959 C958 1.362 . S
H960 C966 0.930 . S
H961 C969 0.930 . S
H962 C970 0.930 . S
H963 C971 0.930 . S
H964 C974 0.930 . S
H965 C975 0.930 . S
C966 H960 0.930 . S
C966 C967 1.355 . S
C966 C968 1.415 . S
C967 C966 1.355 . S
C967 C969 1.419 . S
C968 C966 1.415 . S
C968 C973 1.425 . S
C968 C975 1.409 . S
C969 H961 0.930 . S
C969 C967 1.419 . S
C969 C970 1.362 . S
C970 H962 0.930 . S
C970 C969 1.362 . S
C970 C973 1.409 . S
C971 H963 0.930 . S
C971 C972 1.355 . S
C971 C973 1.415 . S
C972 C971 1.355 . S
C972 C974 1.419 . S
C973 C968 1.425 . S
C973 C970 1.409 . S
C973 C971 1.415 . S
C974 H964 0.930 . S
C974 C972 1.419 . S
C974 C975 1.362 . S
C975 H965 0.930 . S
C975 C968 1.409 . S
C975 C974 1.362 . S
H976 C982 0.930 . S
H977 C985 0.930 . S
H978 C986 0.930 . S
H979 C987 0.930 . S
H980 C990 0.930 . S
H981 C991 0.930 . S
C982 H976 0.930 . S
C982 C983 1.355 . S
C982 C984 1.415 . S
C983 C982 1.355 . S
C983 C985 1.419 . S
C984 C982 1.415 . S
C984 C989 1.425 . S
C984 C991 1.409 . S
C985 H977 0.930 . S
C985 C983 1.419 . S
C985 C986 1.362 . S
C986 H978 0.930 . S
C986 C985 1.362 . S
C986 C989 1.409 . S
C987 H979 0.930 . S
C987 C988 1.355 . S
C987 C989 1.415 . S
C988 C987 1.355 . S
C988 C990 1.419 . S
C989 C984 1.425 . S
C989 C986 1.409 . S
C989 C987 1.415 . S
C990 H980 0.930 . S
C990 C988 1.419 . S
C990 C991 1.362 . S
C991 H981 0.930 . S
C991 C984 1.409 . S
C991 C990 1.362 . S
H992 C998 0.930 . S
H993 C1001 0.930 . S
H994 C1002 0.930 . S
H995 C1003 0.930 . S
H996 C1006 0.930 1_554 S
H997 C1007 0.930 1_554 S
C998 H992 0.930 . S
C998 C999 1.355 . S
C998 C1000 1.415 . S
C999 C998 1.355 . S
C999 C1001 1.419 . S
C1000 C998 1.415 . S
C1000 C1005 1.425 . S
C1000 C1007 1.409 . S
C1001 H993 0.930 . S
C1001 C999 1.419 . S
C1001 C1002 1.362 . S
C1002 H994 0.930 . S
C1002 C1001 1.362 . S
C1002 C1005 1.409 . S
C1003 H995 0.930 . S
C1003 C1004 1.355 . S
C1003 C1005 1.415 . S
C1004 C1003 1.355 . S
C1004 C1006 1.419 . S
C1005 C1000 1.425 . S
C1005 C1002 1.409 . S
C1005 C1003 1.415 . S
C1006 H996 0.930 1_556 S
C1006 C1004 1.419 . S
C1006 C1007 1.362 . S
C1007 H997 0.930 1_556 S
C1007 C1000 1.409 . S
C1007 C1006 1.362 . S
H1008 C1014 0.930 . S
H1009 C1017 0.930 . S
H1010 C1018 0.930 . S
H1011 C1019 0.930 . S
H1012 C1022 0.930 . S
H1013 C1023 0.930 . S
C1014 H1008 0.930 . S
C1014 C1015 1.355 . S
C1014 C1016 1.415 . S
C1015 C1014 1.355 . S
C1015 C1017 1.419 1_556 S
C1016 C1014 1.415 . S
C1016 C1021 1.425 1_556 S
C1016 C1023 1.409 . S
C1017 H1009 0.930 . S
C1017 C1015 1.419 1_554 S
C1017 C1018 1.362 . S
C1018 H1010 0.930 . S
C1018 C1017 1.362 . S
C1018 C1021 1.409 . S
C1019 H1011 0.930 . S
C1019 C1020 1.355 1_554 S
C1019 C1021 1.415 . S
C1020 C1019 1.355 1_556 S
C1020 C1022 1.419 . S
C1021 C1016 1.425 1_554 S
C1021 C1018 1.409 . S
C1021 C1019 1.415 . S
C1022 H1012 0.930 . S
C1022 C1020 1.419 . S
C1022 C1023 1.362 . S
C1023 H1013 0.930 . S
C1023 C1016 1.409 . S
C1023 C1022 1.362 . S
H1024 C1030 0.930 . S
H1025 C1033 0.930 . S
H1026 C1034 0.930 . S
H1027 C1035 0.930 . S
H1028 C1038 0.930 . S
H1029 C1039 0.930 . S
C1030 H1024 0.930 . S
C1030 C1031 1.355 . S
C1030 C1032 1.415 . S
C1031 C1030 1.355 . S
C1031 C1033 1.419 . S
C1032 C1030 1.415 . S
C1032 C1037 1.425 . S
C1032 C1039 1.409 1_556 S
C1033 H1025 0.930 . S
C1033 C1031 1.419 . S
C1033 C1034 1.362 . S
C1034 H1026 0.930 . S
C1034 C1033 1.362 . S
C1034 C1037 1.409 . S
C1035 H1027 0.930 . S
C1035 C1036 1.355 . S
C1035 C1037 1.415 . S
C1036 C1035 1.355 . S
C1036 C1038 1.419 1_556 S
C1037 C1032 1.425 . S
C1037 C1034 1.409 . S
C1037 C1035 1.415 . S
C1038 H1028 0.930 . S
C1038 C1036 1.419 1_554 S
C1038 C1039 1.362 . S
C1039 H1029 0.930 . S
C1039 C1032 1.409 1_554 S
C1039 C1038 1.362 . S
H1040 C1046 0.930 1_554 S
H1041 C1049 0.930 . S
H1042 C1050 0.930 . S
H1043 C1051 0.930 . S
H1044 C1054 0.930 . S
H1045 C1055 0.930 . S
C1046 H1040 0.930 1_556 S
C1046 C1047 1.355 . S
C1046 C1048 1.415 . S
C1047 C1046 1.355 . S
C1047 C1049 1.419 . S
C1048 C1046 1.415 . S
C1048 C1053 1.425 . S
C1048 C1055 1.409 1_556 S
C1049 H1041 0.930 . S
C1049 C1047 1.419 . S
C1049 C1050 1.362 . S
C1050 H1042 0.930 . S
C1050 C1049 1.362 . S
C1050 C1053 1.409 . S
C1051 H1043 0.930 . S
C1051 C1052 1.355 . S
C1051 C1053 1.415 . S
C1052 C1051 1.355 . S
C1052 C1054 1.419 1_556 S
C1053 C1048 1.425 . S
C1053 C1050 1.409 . S
C1053 C1051 1.415 . S
C1054 H1044 0.930 . S
C1054 C1052 1.419 1_554 S
C1054 C1055 1.362 . S
C1055 H1045 0.930 . S
C1055 C1048 1.409 1_554 S
C1055 C1054 1.362 . S
H1056 C1062 0.930 . S
H1057 C1065 0.930 . S
H1058 C1066 0.930 1_546 S
H1059 C1067 0.930 . S
H1060 C1070 0.930 . S
H1061 C1071 0.930 . S
C1062 H1056 0.930 . S
C1062 C1063 1.355 . S
C1062 C1064 1.415 . S
C1063 C1062 1.355 . S
C1063 C1065 1.419 . S
C1064 C1062 1.415 . S
C1064 C1069 1.425 . S
C1064 C1071 1.409 . S
C1065 H1057 0.930 . S
C1065 C1063 1.419 . S
C1065 C1066 1.362 . S
C1066 H1058 0.930 1_564 S
C1066 C1065 1.362 . S
C1066 C1069 1.409 . S
C1067 H1059 0.930 . S
C1067 C1068 1.355 . S
C1067 C1069 1.415 . S
C1068 C1067 1.355 . S
C1068 C1070 1.419 . S
C1069 C1064 1.425 . S
C1069 C1066 1.409 . S
C1069 C1067 1.415 . S
C1070 H1060 0.930 . S
C1070 C1068 1.419 . S
C1070 C1071 1.362 . S
C1071 H1061 0.930 . S
C1071 C1064 1.409 . S
C1071 C1070 1.362 . S
H1072 C1078 0.930 . S
H1073 C1081 0.930 . S
H1074 C1082 0.930 . S
H1075 C1083 0.930 . S
H1076 C1086 0.930 . S
H1077 C1087 0.930 . S
C1078 H1072 0.930 . S
C1078 C1079 1.355 . S
C1078 C1080 1.415 . S
C1079 C1078 1.355 . S
C1079 C1081 1.419 . S
C1080 C1078 1.415 . S
C1080 C1085 1.425 . S
C1080 C1087 1.409 . S
C1081 H1073 0.930 . S
C1081 C1079 1.419 . S
C1081 C1082 1.362 . S
C1082 H1074 0.930 . S
C1082 C1081 1.362 . S
C1082 C1085 1.409 . S
C1083 H1075 0.930 . S
C1083 C1084 1.355 . S
C1083 C1085 1.415 . S
C1084 C1083 1.355 . S
C1084 C1086 1.419 . S
C1085 C1080 1.425 . S
C1085 C1082 1.409 . S
C1085 C1083 1.415 . S
C1086 H1076 0.930 . S
C1086 C1084 1.419 . S
C1086 C1087 1.362 . S
C1087 H1077 0.930 . S
C1087 C1080 1.409 . S
C1087 C1086 1.362 . S
H1088 C1094 0.930 . S
H1089 C1097 0.930 . S
H1090 C1098 0.930 . S
H1091 C1099 0.930 . S
H1092 C1102 0.930 . S
H1093 C1103 0.930 . S
C1094 H1088 0.930 . S
C1094 C1095 1.355 . S
C1094 C1096 1.415 . S
C1095 C1094 1.355 . S
C1095 C1097 1.419 . S
C1096 C1094 1.415 . S
C1096 C1101 1.425 . S
C1096 C1103 1.409 . S
C1097 H1089 0.930 . S
C1097 C1095 1.419 . S
C1097 C1098 1.362 . S
C1098 H1090 0.930 . S
C1098 C1097 1.362 . S
C1098 C1101 1.409 . S
C1099 H1091 0.930 . S
C1099 C1100 1.355 . S
C1099 C1101 1.415 . S
C1100 C1099 1.355 . S
C1100 C1102 1.419 . S
C1101 C1096 1.425 . S
C1101 C1098 1.409 . S
C1101 C1099 1.415 . S
C1102 H1092 0.930 . S
C1102 C1100 1.419 . S
C1102 C1103 1.362 . S
C1103 H1093 0.930 . S
C1103 C1096 1.409 . S
C1103 C1102 1.362 . S
H1104 C1110 0.930 . S
H1105 C1113 0.930 . S
H1106 C1114 0.930 . S
H1107 C1115 0.930 . S
H1108 C1118 0.930 . S
H1109 C1119 0.930 . S
C1110 H1104 0.930 . S
C1110 C1111 1.355 . S
C1110 C1112 1.415 . S
C1111 C1110 1.355 . S
C1111 C1113 1.419 . S
C1112 C1110 1.415 . S
C1112 C1117 1.425 . S
C1112 C1119 1.409 . S
C1113 H1105 0.930 . S
C1113 C1111 1.419 . S
C1113 C1114 1.362 . S
C1114 H1106 0.930 . S
C1114 C1113 1.362 . S
C1114 C1117 1.409 . S
C1115 H1107 0.930 . S
C1115 C1116 1.355 . S
C1115 C1117 1.415 . S
C1116 C1115 1.355 . S
C1116 C1118 1.419 . S
C1117 C1112 1.425 . S
C1117 C1114 1.409 . S
C1117 C1115 1.415 . S
C1118 H1108 0.930 . S
C1118 C1116 1.419 . S
C1118 C1119 1.362 . S
C1119 H1109 0.930 . S
C1119 C1112 1.409 . S
C1119 C1118 1.362 . S
H1120 C1126 0.930 . S
H1121 C1129 0.930 . S
H1122 C1130 0.930 . S
H1123 C1131 0.930 . S
H1124 C1134 0.930 . S
H1125 C1135 0.930 . S
C1126 H1120 0.930 . S
C1126 C1127 1.355 . S
C1126 C1128 1.415 . S
C1127 C1126 1.355 . S
C1127 C1129 1.419 . S
C1128 C1126 1.415 . S
C1128 C1133 1.425 . S
C1128 C1135 1.409 . S
C1129 H1121 0.930 . S
C1129 C1127 1.419 . S
C1129 C1130 1.362 . S
C1130 H1122 0.930 . S
C1130 C1129 1.362 . S
C1130 C1133 1.409 . S
C1131 H1123 0.930 . S
C1131 C1132 1.355 . S
C1131 C1133 1.415 . S
C1132 C1131 1.355 . S
C1132 C1134 1.419 . S
C1133 C1128 1.425 . S
C1133 C1130 1.409 . S
C1133 C1131 1.415 . S
C1134 H1124 0.930 . S
C1134 C1132 1.419 . S
C1134 C1135 1.362 . S
C1135 H1125 0.930 . S
C1135 C1128 1.409 . S
C1135 C1134 1.362 . S
H1136 C1142 0.930 . S
H1137 C1145 0.930 . S
H1138 C1146 0.930 . S
H1139 C1147 0.930 . S
H1140 C1150 0.930 . S
H1141 C1151 0.930 . S
C1142 H1136 0.930 . S
C1142 C1143 1.355 . S
C1142 C1144 1.415 . S
C1143 C1142 1.355 . S
C1143 C1145 1.419 . S
C1144 C1142 1.415 . S
C1144 C1149 1.425 . S
C1144 C1151 1.409 . S
C1145 H1137 0.930 . S
C1145 C1143 1.419 . S
C1145 C1146 1.362 . S
C1146 H1138 0.930 . S
C1146 C1145 1.362 . S
C1146 C1149 1.409 . S
C1147 H1139 0.930 . S
C1147 C1148 1.355 . S
C1147 C1149 1.415 . S
C1148 C1147 1.355 . S
C1148 C1150 1.419 . S
C1149 C1144 1.425 . S
C1149 C1146 1.409 . S
C1149 C1147 1.415 . S
C1150 H1140 0.930 . S
C1150 C1148 1.419 . S
C1150 C1151 1.362 . S
C1151 H1141 0.930 . S
C1151 C1144 1.409 . S
C1151 C1150 1.362 . S
H1152 C1158 0.930 . S
H1153 C1161 0.930 . S
H1154 C1162 0.930 . S
H1155 C1163 0.930 . S
H1156 C1166 0.930 . S
H1157 C1167 0.930 1_655 S
C1158 H1152 0.930 . S
C1158 C1159 1.355 . S
C1158 C1160 1.415 1_554 S
C1159 C1158 1.355 . S
C1159 C1161 1.419 . S
C1160 C1158 1.415 1_556 S
C1160 C1165 1.425 . S
C1160 C1167 1.409 . S
C1161 H1153 0.930 . S
C1161 C1159 1.419 . S
C1161 C1162 1.362 1_554 S
C1162 H1154 0.930 . S
C1162 C1161 1.362 1_556 S
C1162 C1165 1.409 . S
C1163 H1155 0.930 . S
C1163 C1164 1.355 . S
C1163 C1165 1.415 . S
C1164 C1163 1.355 . S
C1164 C1166 1.419 . S
C1165 C1160 1.425 . S
C1165 C1162 1.409 . S
C1165 C1163 1.415 . S
C1166 H1156 0.930 . S
C1166 C1164 1.419 . S
C1166 C1167 1.362 . S
C1167 H1157 0.930 1_455 S
C1167 C1160 1.409 . S
C1167 C1166 1.362 . S
H1168 C1174 0.930 . S
H1169 C1177 0.930 . S
H1170 C1178 0.930 . S
H1171 C1179 0.930 . S
H1172 C1182 0.930 . S
H1173 C1183 0.930 . S
C1174 H1168 0.930 . S
C1174 C1175 1.355 . S
C1174 C1176 1.415 . S
C1175 C1174 1.355 . S
C1175 C1177 1.419 . S
C1176 C1174 1.415 . S
C1176 C1181 1.425 . S
C1176 C1183 1.409 1_554 S
C1177 H1169 0.930 . S
C1177 C1175 1.419 . S
C1177 C1178 1.362 . S
C1178 H1170 0.930 . S
C1178 C1177 1.362 . S
C1178 C1181 1.409 . S
C1179 H1171 0.930 . S
C1179 C1180 1.355 . S
C1179 C1181 1.415 1_556 S
C1180 C1179 1.355 . S
C1180 C1182 1.419 . S
C1181 C1176 1.425 . S
C1181 C1178 1.409 . S
C1181 C1179 1.415 1_554 S
C1182 H1172 0.930 . S
C1182 C1180 1.419 . S
C1182 C1183 1.362 . S
C1183 H1173 0.930 . S
C1183 C1176 1.409 1_556 S
C1183 C1182 1.362 . S
H1184 C1190 0.930 . S
H1185 C1193 0.930 . S
H1186 C1194 0.930 . S
H1187 C1195 0.930 . S
H1188 C1198 0.930 . S
H1189 C1199 0.930 . S
C1190 H1184 0.930 . S
C1190 C1191 1.355 . S
C1190 C1192 1.415 1_554 S
C1191 C1190 1.355 . S
C1191 C1193 1.419 . S
C1192 C1190 1.415 1_556 S
C1192 C1197 1.425 . S
C1192 C1199 1.409 . S
C1193 H1185 0.930 . S
C1193 C1191 1.419 . S
C1193 C1194 1.362 1_554 S
C1194 H1186 0.930 . S
C1194 C1193 1.362 1_556 S
C1194 C1197 1.409 . S
C1195 H1187 0.930 . S
C1195 C1196 1.355 . S
C1195 C1197 1.415 . S
C1196 C1195 1.355 . S
C1196 C1198 1.419 . S
C1197 C1192 1.425 . S
C1197 C1194 1.409 . S
C1197 C1195 1.415 . S
C1198 H1188 0.930 . S
C1198 C1196 1.419 . S
C1198 C1199 1.362 . S
C1199 H1189 0.930 . S
C1199 C1192 1.409 . S
C1199 C1198 1.362 . S
H1200 C1206 0.930 . S
H1201 C1209 0.930 . S
H1202 C1210 0.930 . S
H1203 C1211 0.930 . S
H1204 C1214 0.930 . S
H1205 C1215 0.930 . S
C1206 H1200 0.930 . S
C1206 C1207 1.355 . S
C1206 C1208 1.415 . S
C1207 C1206 1.355 . S
C1207 C1209 1.419 . S
C1208 C1206 1.415 . S
C1208 C1213 1.425 1_556 S
C1208 C1215 1.409 1_556 S
C1209 H1201 0.930 . S
C1209 C1207 1.419 . S
C1209 C1210 1.362 . S
C1210 H1202 0.930 . S
C1210 C1209 1.362 . S
C1210 C1213 1.409 1_556 S
C1211 H1203 0.930 . S
C1211 C1212 1.355 . S
C1211 C1213 1.415 . S
C1212 C1211 1.355 . S
C1212 C1214 1.419 . S
C1213 C1208 1.425 1_554 S
C1213 C1210 1.409 1_554 S
C1213 C1211 1.415 . S
C1214 H1204 0.930 . S
C1214 C1212 1.419 . S
C1214 C1215 1.362 . S
C1215 H1205 0.930 . S
C1215 C1208 1.409 1_554 S
C1215 C1214 1.362 . S
H1216 C1222 0.930 . S
H1217 C1225 0.930 . S
H1218 C1226 0.930 . S
H1219 C1227 0.930 . S
H1220 C1230 0.930 . S
H1221 C1231 0.930 . S
C1222 H1216 0.930 . S
C1222 C1223 1.355 . S
C1222 C1224 1.415 1_554 S
C1223 C1222 1.355 . S
C1223 C1225 1.419 . S
C1224 C1222 1.415 1_556 S
C1224 C1229 1.425 . S
C1224 C1231 1.409 . S
C1225 H1217 0.930 . S
C1225 C1223 1.419 . S
C1225 C1226 1.362 1_554 S
C1226 H1218 0.930 . S
C1226 C1225 1.362 1_556 S
C1226 C1229 1.409 . S
C1227 H1219 0.930 . S
C1227 C1228 1.355 . S
C1227 C1229 1.415 . S
C1228 C1227 1.355 . S
C1228 C1230 1.419 . S
C1229 C1224 1.425 . S
C1229 C1226 1.409 . S
C1229 C1227 1.415 . S
C1230 H1220 0.930 . S
C1230 C1228 1.419 . S
C1230 C1231 1.362 . S
C1231 H1221 0.930 . S
C1231 C1224 1.409 . S
C1231 C1230 1.362 . S
H1232 C1238 0.930 . S
H1233 C1241 0.930 . S
H1234 C1242 0.930 . S
H1235 C1243 0.930 . S
H1236 C1246 0.930 . S
H1237 C1247 0.930 . S
C1238 H1232 0.930 . S
C1238 C1239 1.355 . S
C1238 C1240 1.415 . S
C1239 C1238 1.355 . S
C1239 C1241 1.419 . S
C1240 C1238 1.415 . S
C1240 C1245 1.425 1_554 S
C1240 C1247 1.409 1_554 S
C1241 H1233 0.930 . S
C1241 C1239 1.419 . S
C1241 C1242 1.362 . S
C1242 H1234 0.930 . S
C1242 C1241 1.362 . S
C1242 C1245 1.409 1_554 S
C1243 H1235 0.930 . S
C1243 C1244 1.355 . S
C1243 C1245 1.415 . S
C1244 C1243 1.355 . S
C1244 C1246 1.419 . S
C1245 C1240 1.425 1_556 S
C1245 C1242 1.409 1_556 S
C1245 C1243 1.415 . S
C1246 H1236 0.930 . S
C1246 C1244 1.419 . S
C1246 C1247 1.362 . S
C1247 H1237 0.930 . S
C1247 C1240 1.409 1_556 S
C1247 C1246 1.362 . S
H1248 C1254 0.930 . S
H1249 C1257 0.930 . S
H1250 C1258 0.930 . S
H1251 C1259 0.930 . S
H1252 C1262 0.930 . S
H1253 C1263 0.930 . S
C1254 H1248 0.930 . S
C1254 C1255 1.355 . S
C1254 C1256 1.415 . S
C1255 C1254 1.355 . S
C1255 C1257 1.419 . S
C1256 C1254 1.415 . S
C1256 C1261 1.425 . S
C1256 C1263 1.409 . S
C1257 H1249 0.930 . S
C1257 C1255 1.419 . S
C1257 C1258 1.362 . S
C1258 H1250 0.930 . S
C1258 C1257 1.362 . S
C1258 C1261 1.409 . S
C1259 H1251 0.930 . S
C1259 C1260 1.355 . S
C1259 C1261 1.415 . S
C1260 C1259 1.355 . S
C1260 C1262 1.419 . S
C1261 C1256 1.425 . S
C1261 C1258 1.409 . S
C1261 C1259 1.415 . S
C1262 H1252 0.930 . S
C1262 C1260 1.419 . S
C1262 C1263 1.362 . S
C1263 H1253 0.930 . S
C1263 C1256 1.409 . S
C1263 C1262 1.362 . S
H1264 C1270 0.930 . S
H1265 C1273 0.930 . S
H1266 C1274 0.930 . S
H1267 C1275 0.930 . S
H1268 C1278 0.930 . S
H1269 C1279 0.930 . S
C1270 H1264 0.930 . S
C1270 C1271 1.355 . S
C1270 C1272 1.415 . S
C1271 C1270 1.355 . S
C1271 C1273 1.419 . S
C1272 C1270 1.415 . S
C1272 C1277 1.425 . S
C1272 C1279 1.409 . S
C1273 H1265 0.930 . S
C1273 C1271 1.419 . S
C1273 C1274 1.362 . S
C1274 H1266 0.930 . S
C1274 C1273 1.362 . S
C1274 C1277 1.409 . S
C1275 H1267 0.930 . S
C1275 C1276 1.355 . S
C1275 C1277 1.415 . S
C1276 C1275 1.355 . S
C1276 C1278 1.419 . S
C1277 C1272 1.425 . S
C1277 C1274 1.409 . S
C1277 C1275 1.415 . S
C1278 H1268 0.930 . S
C1278 C1276 1.419 . S
C1278 C1279 1.362 . S
C1279 H1269 0.930 . S
C1279 C1272 1.409 . S
C1279 C1278 1.362 . S
H1280 C1286 0.930 . S
H1281 C1289 0.930 . S
H1282 C1290 0.930 . S
H1283 C1291 0.930 . S
H1284 C1294 0.930 . S
H1285 C1295 0.930 . S
C1286 H1280 0.930 . S
C1286 C1287 1.355 . S
C1286 C1288 1.415 . S
C1287 C1286 1.355 . S
C1287 C1289 1.419 . S
C1288 C1286 1.415 . S
C1288 C1293 1.425 . S
C1288 C1295 1.409 . S
C1289 H1281 0.930 . S
C1289 C1287 1.419 . S
C1289 C1290 1.362 . S
C1290 H1282 0.930 . S
C1290 C1289 1.362 . S
C1290 C1293 1.409 . S
C1291 H1283 0.930 . S
C1291 C1292 1.355 . S
C1291 C1293 1.415 . S
C1292 C1291 1.355 . S
C1292 C1294 1.419 . S
C1293 C1288 1.425 . S
C1293 C1290 1.409 . S
C1293 C1291 1.415 . S
C1294 H1284 0.930 . S
C1294 C1292 1.419 . S
C1294 C1295 1.362 . S
C1295 H1285 0.930 . S
C1295 C1288 1.409 . S
C1295 C1294 1.362 . S
H1296 C1302 0.930 . S
H1297 C1305 0.930 . S
H1298 C1306 0.930 . S
H1299 C1307 0.930 . S
H1300 C1310 0.930 . S
H1301 C1311 0.930 . S
C1302 H1296 0.930 . S
C1302 C1303 1.355 . S
C1302 C1304 1.415 . S
C1303 C1302 1.355 . S
C1303 C1305 1.419 . S
C1304 C1302 1.415 . S
C1304 C1309 1.425 . S
C1304 C1311 1.409 . S
C1305 H1297 0.930 . S
C1305 C1303 1.419 . S
C1305 C1306 1.362 . S
C1306 H1298 0.930 . S
C1306 C1305 1.362 . S
C1306 C1309 1.409 . S
C1307 H1299 0.930 . S
C1307 C1308 1.355 . S
C1307 C1309 1.415 . S
C1308 C1307 1.355 . S
C1308 C1310 1.419 . S
C1309 C1304 1.425 . S
C1309 C1306 1.409 . S
C1309 C1307 1.415 . S
C1310 H1300 0.930 . S
C1310 C1308 1.419 . S
C1310 C1311 1.362 . S
C1311 H1301 0.930 . S
C1311 C1304 1.409 . S
C1311 C1310 1.362 . S
H1312 C1318 0.930 . S
H1313 C1321 0.930 . S
H1314 C1322 0.930 . S
H1315 C1323 0.930 . S
H1316 C1326 0.930 . S
H1317 C1327 0.930 . S
C1318 H1312 0.930 . S
C1318 C1319 1.355 . S
C1318 C1320 1.415 . S
C1319 C1318 1.355 . S
C1319 C1321 1.419 . S
C1320 C1318 1.415 . S
C1320 C1325 1.425 . S
C1320 C1327 1.409 . S
C1321 H1313 0.930 . S
C1321 C1319 1.419 . S
C1321 C1322 1.362 . S
C1322 H1314 0.930 . S
C1322 C1321 1.362 . S
C1322 C1325 1.409 . S
C1323 H1315 0.930 . S
C1323 C1324 1.355 . S
C1323 C1325 1.415 . S
C1324 C1323 1.355 . S
C1324 C1326 1.419 . S
C1325 C1320 1.425 . S
C1325 C1322 1.409 . S
C1325 C1323 1.415 . S
C1326 H1316 0.930 . S
C1326 C1324 1.419 . S
C1326 C1327 1.362 . S
C1327 H1317 0.930 . S
C1327 C1320 1.409 . S
C1327 C1326 1.362 . S
H1328 C1334 0.930 . S
H1329 C1337 0.930 . S
H1330 C1338 0.930 . S
H1331 C1339 0.930 . S
H1332 C1342 0.930 . S
H1333 C1343 0.930 . S
C1334 H1328 0.930 . S
C1334 C1335 1.355 . S
C1334 C1336 1.415 . S
C1335 C1334 1.355 . S
C1335 C1337 1.419 . S
C1336 C1334 1.415 . S
C1336 C1341 1.425 . S
C1336 C1343 1.409 . S
C1337 H1329 0.930 . S
C1337 C1335 1.419 . S
C1337 C1338 1.362 . S
C1338 H1330 0.930 . S
C1338 C1337 1.362 . S
C1338 C1341 1.409 . S
C1339 H1331 0.930 . S
C1339 C1340 1.355 . S
C1339 C1341 1.415 . S
C1340 C1339 1.355 . S
C1340 C1342 1.419 . S
C1341 C1336 1.425 . S
C1341 C1338 1.409 . S
C1341 C1339 1.415 . S
C1342 H1332 0.930 . S
C1342 C1340 1.419 . S
C1342 C1343 1.362 . S
C1343 H1333 0.930 . S
C1343 C1336 1.409 . S
C1343 C1342 1.362 . S
H1344 C1350 0.930 . S
H1345 C1353 0.930 . S
H1346 C1354 0.930 . S
H1347 C1355 0.930 . S
H1348 C1358 0.930 . S
H1349 C1359 0.930 . S
C1350 H1344 0.930 . S
C1350 C1351 1.355 . S
C1350 C1352 1.415 . S
C1351 C1350 1.355 . S
C1351 C1353 1.419 1_565 S
C1352 C1350 1.415 . S
C1352 C1357 1.458 . S
C1352 C1359 1.409 . S
C1353 H1345 0.930 . S
C1353 C1351 1.419 1_545 S
C1353 C1354 1.362 . S
C1354 H1346 0.930 . S
C1354 C1353 1.362 . S
C1354 C1357 1.385 1_545 S
C1355 H1347 0.930 . S
C1355 C1356 1.355 1_545 S
C1355 C1357 1.409 1_545 S
C1356 C1355 1.355 1_565 S
C1356 C1358 1.419 . S
C1357 C1352 1.458 . S
C1357 C1354 1.385 1_565 S
C1357 C1355 1.409 1_565 S
C1358 H1348 0.930 . S
C1358 C1356 1.419 . S
C1358 C1359 1.362 . S
C1359 H1349 0.930 . S
C1359 C1352 1.409 . S
C1359 C1358 1.362 . S
H1360 C1366 0.930 . S
H1361 C1369 0.930 . S
H1362 C1370 0.930 . S
H1363 C1371 0.930 . S
H1364 C1374 0.930 . S
H1365 C1375 0.930 . S
C1366 H1360 0.930 . S
C1366 C1367 1.355 . S
C1366 C1368 1.415 . S
C1367 C1366 1.355 . S
C1367 C1369 1.419 . S
C1368 C1366 1.415 . S
C1368 C1373 1.425 . S
C1368 C1375 1.409 . S
C1369 H1361 0.930 . S
C1369 C1367 1.419 . S
C1369 C1370 1.362 . S
C1370 H1362 0.930 . S
C1370 C1369 1.362 . S
C1370 C1373 1.409 . S
C1371 H1363 0.930 . S
C1371 C1372 1.355 . S
C1371 C1373 1.415 . S
C1372 C1371 1.355 . S
C1372 C1374 1.419 . S
C1373 C1368 1.425 . S
C1373 C1370 1.409 . S
C1373 C1371 1.415 . S
C1374 H1364 0.930 . S
C1374 C1372 1.419 . S
C1374 C1375 1.362 . S
C1375 H1365 0.930 . S
C1375 C1368 1.409 . S
C1375 C1374 1.362 . S
H1376 C1382 0.930 . S
H1377 C1385 0.930 . S
H1378 C1386 0.930 . S
H1379 C1387 0.930 . S
H1380 C1390 0.930 . S
H1381 C1391 0.930 . S
C1382 H1376 0.930 . S
C1382 C1383 1.355 . S
C1382 C1384 1.415 . S
C1383 C1382 1.355 . S
C1383 C1385 1.419 . S
C1384 C1382 1.415 . S
C1384 C1389 1.425 . S
C1384 C1391 1.409 . S
C1385 H1377 0.930 . S
C1385 C1383 1.419 . S
C1385 C1386 1.362 . S
C1386 H1378 0.930 . S
C1386 C1385 1.362 . S
C1386 C1389 1.409 . S
C1387 H1379 0.930 . S
C1387 C1388 1.355 . S
C1387 C1389 1.415 . S
C1388 C1387 1.355 . S
C1388 C1390 1.419 . S
C1389 C1384 1.425 . S
C1389 C1386 1.409 . S
C1389 C1387 1.415 . S
C1390 H1380 0.930 . S
C1390 C1388 1.419 . S
C1390 C1391 1.362 . S
C1391 H1381 0.930 . S
C1391 C1384 1.409 . S
C1391 C1390 1.362 . S
H1392 C1398 0.930 . S
H1393 C1401 0.930 . S
H1394 C1402 0.930 . S
H1395 C1403 0.930 . S
H1396 C1406 0.930 . S
H1397 C1407 0.930 . S
C1398 H1392 0.930 . S
C1398 C1399 1.355 . S
C1398 C1400 1.415 . S
C1399 C1398 1.355 . S
C1399 C1401 1.419 . S
C1400 C1398 1.415 . S
C1400 C1405 1.425 . S
C1400 C1407 1.409 . S
C1401 H1393 0.930 . S
C1401 C1399 1.419 . S
C1401 C1402 1.362 . S
C1402 H1394 0.930 . S
C1402 C1401 1.362 . S
C1402 C1405 1.409 . S
C1403 H1395 0.930 . S
C1403 C1404 1.355 . S
C1403 C1405 1.415 . S
C1404 C1403 1.355 . S
C1404 C1406 1.419 . S
C1405 C1400 1.425 . S
C1405 C1402 1.409 . S
C1405 C1403 1.415 . S
C1406 H1396 0.930 . S
C1406 C1404 1.419 . S
C1406 C1407 1.362 . S
C1407 H1397 0.930 . S
C1407 C1400 1.409 . S
C1407 C1406 1.362 . S
H1408 C1414 0.930 . S
H1409 C1417 0.953 . S
H1410 C1418 0.930 1_545 S
H1411 C1419 0.930 . S
H1412 C1422 0.930 . S
H1413 C1423 0.930 . S
C1414 H1408 0.930 . S
C1414 C1415 1.355 . S
C1414 C1416 1.415 . S
C1415 C1414 1.355 . S
C1415 C1417 1.419 . S
C1416 C1414 1.415 . S
C1416 C1421 1.425 . S
C1416 C1423 1.409 . S
C1417 H1409 0.953 . S
C1417 C1415 1.419 . S
C1417 C1418 1.362 . S
C1418 H1410 0.930 1_565 S
C1418 C1417 1.362 . S
C1418 C1421 1.409 . S
C1419 H1411 0.930 . S
C1419 C1420 1.355 . S
C1419 C1421 1.415 . S
C1420 C1419 1.355 . S
C1420 C1422 1.419 . S
C1421 C1416 1.425 . S
C1421 C1418 1.409 . S
C1421 C1419 1.415 . S
C1422 H1412 0.930 . S
C1422 C1420 1.419 . S
C1422 C1423 1.362 . S
C1423 H1413 0.930 . S
C1423 C1416 1.409 . S
C1423 C1422 1.362 . S
H1424 C1430 0.930 . S
H1425 C1433 0.930 . S
H1426 C1434 0.930 . S
H1427 C1435 0.930 . S
H1428 C1438 0.930 . S
H1429 C1439 0.930 . S
C1430 H1424 0.930 . S
C1430 C1431 1.355 . S
C1430 C1432 1.415 . S
C1431 C1430 1.355 . S
C1431 C1433 1.419 . S
C1432 C1430 1.415 . S
C1432 C1437 1.425 . S
C1432 C1439 1.409 . S
C1433 H1425 0.930 . S
C1433 C1431 1.419 . S
C1433 C1434 1.362 . S
C1434 H1426 0.930 . S
C1434 C1433 1.362 . S
C1434 C1437 1.409 . S
C1435 H1427 0.930 . S
C1435 C1436 1.355 . S
C1435 C1437 1.415 . S
C1436 C1435 1.355 . S
C1436 C1438 1.419 . S
C1437 C1432 1.425 . S
C1437 C1434 1.409 . S
C1437 C1435 1.415 . S
C1438 H1428 0.930 . S
C1438 C1436 1.419 . S
C1438 C1439 1.362 . S
C1439 H1429 0.930 . S
C1439 C1432 1.409 . S
C1439 C1438 1.362 . S
C583 C422 2.132 . S
C588 C6 2.095 . S
C599 N50 1.221 . S
C604 N461 1.206 . S
C615 C70 1.580 . S
C620 N402 1.560 . S
C631 N82 1.090 . S
C636 N242 1.120 . S
C647 N274 0.888 . S
C652 N18 0.943 . S
C663 C38 1.296 . S
C668 N205 1.314 . S
C679 C102 1.434 . S
C684 N333 1.337 . S
C695 N146 1.117 . S
C700 N365 1.053 . S
C711 N301 1.566 . S
C716 C166 1.583 . S
C727 N530 1.201 . S
C732 N178 1.225 . S
C743 N114 1.467 . S
C748 C546 1.567 . S
C759 C486 2.147 . S
C764 C134 2.142 . S
C775 C262 2.038 . S
C780 N434 1.976 . S
C791 C194 2.853 . S
C796 C450 2.782 . S
C807 C230 2.325 . S
C812 C390 2.363 . S
C823 C290 2.453 . S
C828 C518 2.440 . S
C839 N557 2.115 . S
C844 C322 2.262 . S
C855 N498 1.673 . S
C860 C354 1.723 . S
C871 N13 1.158 . S
C876 N141 1.204 . S
C887 C164 0.570 . S
C892 C36 0.664 . S
C903 C100 1.132 . S
C908 N77 1.037 . S
C919 C132 1.162 . S
C924 C68 1.109 . S
C935 N173 1.235 . S
C940 C4 1.203 1_655 S
C951 N109 1.285 1_655 S
C956 N45 1.224 . S
C967 C349 2.055 . S
C972 C221 2.036 . S
C983 C381 1.465 . S
C988 C228 1.437 . S
C999 C317 1.809 . S
C1004 C260 1.774 . S
C1015 N338 1.329 . S
C1020 N269 1.303 . S
C1031 N370 1.420 . S
C1036 N210 1.433 . S
C1047 N306 1.430 . S
C1052 N237 1.502 . S
C1063 N525 1.682 . S
C1068 N397 1.630 . S
C1079 C573 2.113 . S
C1084 C420 2.109 . S
C1095 N466 1.809 . S
C1100 C484 1.824 . S
C1111 C477 1.780 . S
C1116 C516 1.828 . S
C1127 C388 2.090 . S
C1132 N562 2.036 . S
C1143 N493 2.039 . S
C1148 N429 2.057 . S
C1159 C29 1.430 . S
C1164 C2 1.431 . S
C1175 C34 1.431 . S
C1180 C61 1.432 . S
C1191 C93 1.446 . S
C1196 C66 1.440 . S
C1207 C125 1.432 . S
C1212 C98 1.431 . S
C1223 C157 1.422 . S
C1228 C130 1.431 . S
C1239 C162 1.446 . S
C1244 C189 1.439 . S
C1255 C196 1.426 . S
C1260 C198 1.431 . S
C1271 C226 1.429 . S
C1276 C253 1.423 . S
C1287 C285 1.433 . S
C1292 C258 1.436 . S
C1303 C292 1.441 . S
C1308 C294 1.447 . S
C1319 C324 1.429 . S
C1324 C326 1.438 . S
C1335 C356 1.447 . S
C1340 C358 1.442 . S
C1351 C386 1.427 . S
C1356 C413 1.417 . S
C1367 C418 1.436 . S
C1372 C445 1.426 . S
C1383 C452 1.450 . S
C1388 C454 1.447 . S
C1399 C482 1.431 . S
C1404 C509 1.427 . S
C1415 C541 1.449 . S
C1420 C514 1.450 . S
C1431 C548 1.434 . S
C1436 C550 1.441 . S
