# Generated by pormake.
# Topology smd, (6)-cn, num edge types: 1
# Building blocks:
#     Node 0, Type 0, BuildingBlock: CUWYAW_clean_sbu_0, # of connection points: 6
#     Node 1, Type 0, BuildingBlock: CUWYAW_clean_sbu_0, # of connection points: 6
#     Node 2, Type 0, BuildingBlock: CUWYAW_clean_sbu_0, # of connection points: 6
#     Node 3, Type 0, BuildingBlock: CUWYAW_clean_sbu_0, # of connection points: 6
#     Node 4, Type 0, BuildingBlock: CUWYAW_clean_sbu_0, # of connection points: 6
#     Node 5, Type 0, BuildingBlock: CUWYAW_clean_sbu_0, # of connection points: 6
#     Node 6, Type 0, BuildingBlock: CUWYAW_clean_sbu_0, # of connection points: 6
#     Node 7, Type 0, BuildingBlock: CUWYAW_clean_sbu_0, # of connection points: 6
#     Node 8, Type 0, BuildingBlock: CUWYAW_clean_sbu_0, # of connection points: 6
#     Node 9, Type 0, BuildingBlock: CUWYAW_clean_sbu_0, # of connection points: 6
#     Node 10, Type 0, BuildingBlock: CUWYAW_clean_sbu_0, # of connection points: 6
#     Node 11, Type 0, BuildingBlock: CUWYAW_clean_sbu_0, # of connection points: 6
#     Node 12, Type 0, BuildingBlock: CUWYAW_clean_sbu_0, # of connection points: 6
#     Node 13, Type 0, BuildingBlock: CUWYAW_clean_sbu_0, # of connection points: 6
#     Node 14, Type 0, BuildingBlock: CUWYAW_clean_sbu_0, # of connection points: 6
#     Node 15, Type 0, BuildingBlock: CUWYAW_clean_sbu_0, # of connection points: 6
#     Node 16, Type 0, BuildingBlock: CUWYAW_clean_sbu_0, # of connection points: 6
#     Node 17, Type 0, BuildingBlock: CUWYAW_clean_sbu_0, # of connection points: 6
#     Edge 18, Type (0, 0), BuildingBlock: UVAHIK_clean_linker_0, # of connection points: 2
#     Edge 19, Type (0, 0), BuildingBlock: UVAHIK_clean_linker_0, # of connection points: 2
#     Edge 20, Type (0, 0), BuildingBlock: UVAHIK_clean_linker_0, # of connection points: 2
#     Edge 21, Type (0, 0), BuildingBlock: UVAHIK_clean_linker_0, # of connection points: 2
#     Edge 22, Type (0, 0), BuildingBlock: UVAHIK_clean_linker_0, # of connection points: 2
#     Edge 23, Type (0, 0), BuildingBlock: UVAHIK_clean_linker_0, # of connection points: 2
#     Edge 24, Type (0, 0), BuildingBlock: UVAHIK_clean_linker_0, # of connection points: 2
#     Edge 25, Type (0, 0), BuildingBlock: UVAHIK_clean_linker_0, # of connection points: 2
#     Edge 26, Type (0, 0), BuildingBlock: UVAHIK_clean_linker_0, # of connection points: 2
#     Edge 27, Type (0, 0), BuildingBlock: UVAHIK_clean_linker_0, # of connection points: 2
#     Edge 28, Type (0, 0), BuildingBlock: UVAHIK_clean_linker_0, # of connection points: 2
#     Edge 29, Type (0, 0), BuildingBlock: UVAHIK_clean_linker_0, # of connection points: 2
#     Edge 30, Type (0, 0), BuildingBlock: UVAHIK_clean_linker_0, # of connection points: 2
#     Edge 31, Type (0, 0), BuildingBlock: UVAHIK_clean_linker_0, # of connection points: 2
#     Edge 32, Type (0, 0), BuildingBlock: UVAHIK_clean_linker_0, # of connection points: 2
#     Edge 33, Type (0, 0), BuildingBlock: UVAHIK_clean_linker_0, # of connection points: 2
#     Edge 34, Type (0, 0), BuildingBlock: UVAHIK_clean_linker_0, # of connection points: 2
#     Edge 35, Type (0, 0), BuildingBlock: UVAHIK_clean_linker_0, # of connection points: 2
#     Edge 36, Type (0, 0), BuildingBlock: UVAHIK_clean_linker_0, # of connection points: 2
#     Edge 37, Type (0, 0), BuildingBlock: UVAHIK_clean_linker_0, # of connection points: 2
#     Edge 38, Type (0, 0), BuildingBlock: UVAHIK_clean_linker_0, # of connection points: 2
#     Edge 39, Type (0, 0), BuildingBlock: UVAHIK_clean_linker_0, # of connection points: 2
#     Edge 40, Type (0, 0), BuildingBlock: UVAHIK_clean_linker_0, # of connection points: 2
#     Edge 41, Type (0, 0), BuildingBlock: UVAHIK_clean_linker_0, # of connection points: 2
#     Edge 42, Type (0, 0), BuildingBlock: UVAHIK_clean_linker_0, # of connection points: 2
#     Edge 43, Type (0, 0), BuildingBlock: UVAHIK_clean_linker_0, # of connection points: 2
#     Edge 44, Type (0, 0), BuildingBlock: UVAHIK_clean_linker_0, # of connection points: 2
#     Edge 45, Type (0, 0), BuildingBlock: UVAHIK_clean_linker_0, # of connection points: 2
#     Edge 46, Type (0, 0), BuildingBlock: UVAHIK_clean_linker_0, # of connection points: 2
#     Edge 47, Type (0, 0), BuildingBlock: UVAHIK_clean_linker_0, # of connection points: 2
#     Edge 48, Type (0, 0), BuildingBlock: UVAHIK_clean_linker_0, # of connection points: 2
#     Edge 49, Type (0, 0), BuildingBlock: UVAHIK_clean_linker_0, # of connection points: 2
#     Edge 50, Type (0, 0), BuildingBlock: UVAHIK_clean_linker_0, # of connection points: 2
#     Edge 51, Type (0, 0), BuildingBlock: UVAHIK_clean_linker_0, # of connection points: 2
#     Edge 52, Type (0, 0), BuildingBlock: UVAHIK_clean_linker_0, # of connection points: 2
#     Edge 53, Type (0, 0), BuildingBlock: UVAHIK_clean_linker_0, # of connection points: 2
#     Edge 54, Type (0, 0), BuildingBlock: UVAHIK_clean_linker_0, # of connection points: 2
#     Edge 55, Type (0, 0), BuildingBlock: UVAHIK_clean_linker_0, # of connection points: 2
#     Edge 56, Type (0, 0), BuildingBlock: UVAHIK_clean_linker_0, # of connection points: 2
#     Edge 57, Type (0, 0), BuildingBlock: UVAHIK_clean_linker_0, # of connection points: 2
#     Edge 58, Type (0, 0), BuildingBlock: UVAHIK_clean_linker_0, # of connection points: 2
#     Edge 59, Type (0, 0), BuildingBlock: UVAHIK_clean_linker_0, # of connection points: 2
#     Edge 60, Type (0, 0), BuildingBlock: UVAHIK_clean_linker_0, # of connection points: 2
#     Edge 61, Type (0, 0), BuildingBlock: UVAHIK_clean_linker_0, # of connection points: 2
#     Edge 62, Type (0, 0), BuildingBlock: UVAHIK_clean_linker_0, # of connection points: 2
#     Edge 63, Type (0, 0), BuildingBlock: UVAHIK_clean_linker_0, # of connection points: 2
#     Edge 64, Type (0, 0), BuildingBlock: UVAHIK_clean_linker_0, # of connection points: 2
#     Edge 65, Type (0, 0), BuildingBlock: UVAHIK_clean_linker_0, # of connection points: 2
#     Edge 66, Type (0, 0), BuildingBlock: UVAHIK_clean_linker_0, # of connection points: 2
#     Edge 67, Type (0, 0), BuildingBlock: UVAHIK_clean_linker_0, # of connection points: 2
#     Edge 68, Type (0, 0), BuildingBlock: UVAHIK_clean_linker_0, # of connection points: 2
#     Edge 69, Type (0, 0), BuildingBlock: UVAHIK_clean_linker_0, # of connection points: 2
#     Edge 70, Type (0, 0), BuildingBlock: UVAHIK_clean_linker_0, # of connection points: 2
#     Edge 71, Type (0, 0), BuildingBlock: UVAHIK_clean_linker_0, # of connection points: 2
# Relax obj value: 0.253
# Max RMSD: 0.331
# Mean RMSD: 0.303
data_MOF--net-smd--node1-CUWYAW_clean_sbu_0--edge1-UVAHIK_clean_linker_0
_symmetry_space_group_name_H-M    P1
_symmetry_Int_Tables_number       1
_symmetry_cell_setting            triclinic
loop_
_symmetry_equiv_pos_as_xyz
'x, y, z'
_cell_length_a     85.94317
_cell_length_b     86.041182
_cell_length_c     30.287855
_cell_angle_alpha  92.998769
_cell_angle_beta   92.980352
_cell_angle_gamma 119.87214
loop_
_atom_site_label
_atom_site_type_symbol
_atom_site_fract_x
_atom_site_fract_y
_atom_site_fract_z
_atom_type_partial_charge
C0 C 0.99612 0.22504 0.38847 0.0
Eu1 Eu 1.00486 0.23356 0.47324 0.0
C2 C 1.00206 0.23055 0.34429 0.0
C3 C 0.99111 0.23414 0.31569 0.0
C4 C 0.99465 0.23694 0.27159 0.0
C5 C 1.00917 0.23608 0.25491 0.0
C6 C 0.02087 0.23362 0.28424 0.0
C7 C 0.01731 0.23083 0.32867 0.0
C8 C 0.98633 0.24422 0.52516 0.0
C9 C 0.03842 0.27411 0.48946 0.0
C10 C 0.02805 0.25942 0.65089 0.0
Eu11 Eu 0.0206 0.24719 0.5675 0.0
C12 C 0.02526 0.25171 0.69469 0.0
C13 C 0.03836 0.24897 0.71686 0.0
C14 C 0.03631 0.24333 0.75985 0.0
C15 C 0.02119 0.24046 0.78199 0.0
C16 C 1.00772 0.24242 0.75894 0.0
C17 C 0.00973 0.24797 0.71597 0.0
C18 C 0.0332 0.22721 0.52634 0.0
C19 C 0.98867 0.20595 0.544 0.0
O20 O 1.00418 0.21837 0.41245 0.0
O21 O 0.99187 0.23535 0.41195 0.0
O22 O 0.97861 0.22969 0.49835 0.0
O23 O 1.00302 0.25213 0.52328 0.0
O24 O 0.02786 0.26026 0.46084 0.0
O25 O 0.03783 0.27308 0.53319 0.0
O26 O 0.01352 0.25645 0.62705 0.0
O27 O 0.03985 0.25848 0.6267 0.0
O28 O 0.02885 0.22607 0.56681 0.0
O29 O 0.03053 0.23887 0.50952 0.0
O30 O 0.99501 0.22025 0.57307 0.0
O31 O 0.99363 0.20742 0.50342 0.0
H32 H 0.97934 0.2341 0.32704 0.0
H33 H 0.98565 0.23923 0.25012 0.0
H34 H 0.0322 0.23293 0.27235 0.0
H35 H 0.02608 0.22823 0.35019 0.0
H36 H 0.05043 0.25159 0.70146 0.0
H37 H 0.04679 0.24159 0.77609 0.0
H38 H 0.99596 0.24052 0.77477 0.0
H39 H 0.99932 0.2499 0.70002 0.0
C40 C 0.79238 0.79822 0.62999 0.0
Eu41 Eu 0.7901 0.79075 0.54463 0.0
C42 C 0.79067 0.79098 0.67364 0.0
C43 C 0.77638 0.78887 0.69788 0.0
C44 C 0.77618 0.78544 0.74237 0.0
C45 C 0.79032 0.78406 0.76366 0.0
C46 C 0.80405 0.78502 0.73856 0.0
C47 C 0.80427 0.78851 0.69397 0.0
C48 C 0.7592 0.77892 0.49006 0.0
C49 C 0.78039 0.74997 0.52271 0.0
C50 C 0.78904 0.77257 0.36699 0.0
Eu51 Eu 0.79172 0.77909 0.4529 0.0
C52 C 0.79295 0.78192 0.32592 0.0
C53 C 0.80736 0.78367 0.30258 0.0
C54 C 0.80928 0.78937 0.25987 0.0
C55 C 0.79677 0.79338 0.23952 0.0
C56 C 0.78317 0.79295 0.26422 0.0
C57 C 0.78123 0.78722 0.30692 0.0
C58 C 0.82188 0.78851 0.50576 0.0
C59 C 0.80057 0.82037 0.4798 0.0
O60 O 0.80614 0.80081 0.60839 0.0
O61 O 0.77762 0.79252 0.60398 0.0
O62 O 0.76579 0.79288 0.51873 0.0
O63 O 0.76886 0.77178 0.4922 0.0
O64 O 0.78827 0.7641 0.55202 0.0
O65 O 0.77727 0.7517 0.4805 0.0
O66 O 0.77613 0.77208 0.38888 0.0
O67 O 0.80272 0.77478 0.39311 0.0
O68 O 0.81413 0.77459 0.47693 0.0
O69 O 0.81363 0.79731 0.50539 0.0
O70 O 0.79522 0.80721 0.44783 0.0
O71 O 0.80244 0.81787 0.5215 0.0
H72 H 0.7658 0.79084 0.68312 0.0
H73 H 0.76549 0.785 0.76066 0.0
H74 H 0.81496 0.78368 0.75377 0.0
H75 H 0.81547 0.79003 0.67612 0.0
H76 H 0.8166 0.77968 0.31637 0.0
H77 H 0.81985 0.78944 0.24177 0.0
H78 H 0.77353 0.7963 0.2498 0.0
H79 H 0.77004 0.78615 0.32409 0.0
C80 C 0.22091 0.01971 0.36638 0.0
Eu81 Eu 0.22709 0.01418 0.44731 0.0
C82 C 0.2227 0.01438 0.32062 0.0
C83 C 0.23705 0.02661 0.29799 0.0
C84 C 0.2379 0.02285 0.25317 0.0
C85 C 0.22436 1.00679 0.22985 0.0
C86 C 0.21045 0.99412 0.253 0.0
C87 C 0.2096 0.99789 0.29799 0.0
C88 C 0.2597 0.03225 0.49486 0.0
C89 C 0.23841 0.98561 0.46305 0.0
C90 C 0.23201 0.99961 0.62221 0.0
Eu91 Eu 0.22722 1.00557 0.54052 0.0
C92 C 0.22866 1.0043 0.66717 0.0
C93 C 0.21387 0.99161 0.68793 0.0
C94 C 0.21187 0.99496 0.73232 0.0
C95 C 0.22467 0.01106 0.75704 0.0
C96 C 0.23888 0.02419 0.73552 0.0
C97 C 0.24089 0.02084 0.69113 0.0
C98 C 0.19415 0.98755 0.49408 0.0
C99 C 0.2178 0.03607 0.52174 0.0
O100 O 0.20851 0.00747 0.38832 0.0
O101 O 0.2359 0.03022 0.39115 0.0
O102 O 0.25748 0.02556 0.45409 0.0
O103 O 0.24497 0.02939 0.50791 0.0
O104 O 0.22988 0.99019 0.43412 0.0
O105 O 0.24123 0.99177 0.50566 0.0
O106 O 0.24449 0.01254 0.60205 0.0
O107 O 0.21794 0.98851 0.5952 0.0
O108 O 0.1974 0.99541 0.53382 0.0
O109 O 0.20876 0.98999 0.48044 0.0
O110 O 0.22404 0.02991 0.55286 0.0
O111 O 0.21553 0.03003 0.4796 0.0
H112 H 0.2473 0.03946 0.31449 0.0
H113 H 0.24868 0.03302 0.2363 0.0
H114 H 0.19995 0.98151 0.23603 0.0
H115 H 0.19839 0.98813 0.31455 0.0
H116 H 0.20421 0.97874 0.67039 0.0
H117 H 0.20084 0.98449 0.74789 0.0
H118 H 0.24879 0.03686 0.75343 0.0
H119 H 0.25238 0.03099 0.67613 0.0
C120 C 1.00299 0.77128 0.41209 0.0
Eu121 Eu 1.00346 0.77889 0.49616 0.0
C122 C 1.00549 0.78026 0.37058 0.0
C123 C 0.99066 0.77783 0.34299 0.0
C124 C 0.99307 0.78412 0.30079 0.0
C125 C 0.01032 0.79281 0.28548 0.0
C126 C 0.02526 0.79639 0.31434 0.0
C127 C 0.02288 0.79013 0.35633 0.0
C128 C 0.98645 0.79457 0.53526 0.0
C129 C 0.03589 0.82021 0.52868 0.0
C130 C 0.02792 0.79697 0.68008 0.0
Eu131 Eu 0.01942 0.79027 0.59498 0.0
C132 C 0.02221 0.79202 0.72445 0.0
C133 C 0.03488 0.79245 0.75616 0.0
C134 C 0.03095 0.78967 0.79999 0.0
C135 C 0.01416 0.78627 0.81309 0.0
C136 C 1.00117 0.7852 0.78078 0.0
C137 C 1.00518 0.78807 0.73667 0.0
C138 C 0.03611 0.77837 0.53949 0.0
C139 C 0.98471 0.75098 0.56938 0.0
O140 O 0.01738 0.77776 0.44011 0.0
O141 O 0.98817 0.76663 0.43166 0.0
O142 O 0.983 0.78803 0.49415 0.0
O143 O 0.99872 0.79245 0.55386 0.0
O144 O 0.02719 0.80746 0.49564 0.0
O145 O 0.03339 0.8173 0.57053 0.0
O146 O 0.02082 0.80484 0.65738 0.0
O147 O 0.03067 0.78573 0.65562 0.0
O148 O 0.04474 0.79182 0.5695 0.0
O149 O 0.01947 0.77196 0.54095 0.0
O150 O 0.99335 0.76478 0.59969 0.0
O151 O 0.98775 0.75227 0.52678 0.0
H152 H 0.97713 0.77036 0.35311 0.0
H153 H 0.9813 0.78113 0.27915 0.0
H154 H 0.03874 0.80331 0.30365 0.0
H155 H 0.03466 0.79236 0.37677 0.0
H156 H 0.04812 0.79556 0.74728 0.0
H157 H 0.04141 0.79095 0.82394 0.0
H158 H 0.98804 0.7824 0.78972 0.0
H159 H 0.99517 0.78758 0.71248 0.0
C160 C 0.23925 0.25713 0.67134 0.0
Eu161 Eu 0.23197 0.24486 0.58792 0.0
C162 C 0.2352 0.24949 0.71512 0.0
C163 C 0.22074 0.24832 0.73738 0.0
C164 C 0.21827 0.24283 0.78054 0.0
C165 C 0.23024 0.23843 0.80248 0.0
C166 C 0.24408 0.23868 0.77921 0.0
C167 C 0.2466 0.24423 0.73635 0.0
C168 C 0.1982 0.22608 0.54507 0.0
C169 C 0.2209 0.20323 0.56637 0.0
C170 C 0.22736 0.22074 0.40981 0.0
Eu171 Eu 0.23052 0.23002 0.49421 0.0
C172 C 0.2284 0.22788 0.36619 0.0
C173 C 0.24317 0.23134 0.34225 0.0
C174 C 0.24353 0.23566 0.29854 0.0
C175 C 0.22911 0.23667 0.2776 0.0
C176 C 0.21476 0.23421 0.30245 0.0
C177 C 0.21437 0.22978 0.34635 0.0
C178 C 0.26109 0.24002 0.54735 0.0
C179 C 0.24355 0.27221 0.5084 0.0
O180 O 0.24957 0.25321 0.64863 0.0
O181 O 0.22632 0.25704 0.64603 0.0
O182 O 0.20222 0.22502 0.58613 0.0
O183 O 0.21231 0.23713 0.52858 0.0
O184 O 0.23037 0.2177 0.59468 0.0
O185 O 0.21549 0.20454 0.52613 0.0
O186 O 0.21349 0.21725 0.43221 0.0
O187 O 0.24251 0.22775 0.43497 0.0
O188 O 0.25335 0.22551 0.52041 0.0
O189 O 0.25257 0.24822 0.5444 0.0
O190 O 0.2379 0.25784 0.48052 0.0
O191 O 0.24291 0.27117 0.55225 0.0
H192 H 0.21167 0.2522 0.72204 0.0
H193 H 0.20751 0.24289 0.79744 0.0
H194 H 0.25332 0.23501 0.79455 0.0
H195 H 0.25785 0.24485 0.72034 0.0
H196 H 0.25415 0.22993 0.3567 0.0
H197 H 0.2547 0.23721 0.28054 0.0
H198 H 0.2036 0.23523 0.28765 0.0
H199 H 0.20285 0.2273 0.36414 0.0
C200 C 0.79243 0.02343 0.395 0.0
Eu201 Eu 0.79643 0.01883 0.47777 0.0
C202 C 0.79744 0.01948 0.35171 0.0
C203 C 0.81256 0.03273 0.3332 0.0
C204 C 0.81527 0.03017 0.28901 0.0
C205 C 0.80297 0.01431 0.26294 0.0
C206 C 0.78872 1.00044 0.28225 0.0
C207 C 0.78593 1.00302 0.32631 0.0
C208 C 0.82853 0.03434 0.52947 0.0
C209 C 0.8035 0.98708 0.50146 0.0
C210 C 0.79132 1.0021 0.65281 0.0
Eu211 Eu 0.79231 0.00756 0.56934 0.0
C212 C 0.79156 0.00918 0.69817 0.0
C213 C 0.77626 0.99963 0.72119 0.0
C214 C 0.77699 1.00348 0.76669 0.0
C215 C 0.79307 0.01688 0.78976 0.0
C216 C 0.80808 0.02726 0.76661 0.0
C217 C 0.80732 0.02349 0.72084 0.0
C218 C 0.763 0.98767 0.5093 0.0
C219 C 0.78485 0.03953 0.54974 0.0
O220 O 0.78094 0.00942 0.4141 0.0
O221 O 0.80505 0.03614 0.42319 0.0
O222 O 0.82595 0.02761 0.48868 0.0
O223 O 0.81367 0.03195 0.54137 0.0
O224 O 0.79646 0.99251 0.47041 0.0
O225 O 0.80671 0.99404 0.54278 0.0
O226 O 0.80628 0.00916 0.63304 0.0
O227 O 0.77697 0.9974 0.626 0.0
O228 O 0.7686 0.98048 0.53795 0.0
O229 O 0.77291 1.00435 0.51426 0.0
O230 O 0.7883 0.03118 0.58058 0.0
O231 O 0.78594 0.03641 0.50704 0.0
H232 H 0.82169 0.04549 0.35194 0.0
H233 H 0.82626 0.04105 0.27428 0.0
H234 H 0.77895 0.98824 0.26231 0.0
H235 H 0.77411 0.99252 0.33952 0.0
H236 H 0.76402 0.98843 0.70447 0.0
H237 H 0.76539 0.99519 0.78434 0.0
H238 H 0.82062 0.03758 0.78429 0.0
H239 H 0.81932 0.03108 0.70385 0.0
C240 C 0.69461 0.57905 0.93678 0.0
Eu241 Eu 0.68444 0.57502 0.85258 0.0
C242 C 0.68784 0.5771 0.98106 0.0
C243 C 0.69751 0.59118 0.01441 0.0
C244 C 0.69294 0.5891 0.05811 0.0
C245 C 0.67851 0.57284 0.06949 0.0
C246 C 0.66824 0.55902 0.03548 0.0
C247 C 0.67286 0.56112 0.99162 0.0
C248 C 0.70122 0.60215 0.79871 0.0
C249 C 0.64906 0.57869 0.84077 0.0
C250 C 0.65768 0.56869 0.6772 0.0
Eu251 Eu 0.66714 0.56802 0.76018 0.0
C252 C 0.66187 0.56465 0.63224 0.0
C253 C 0.64883 0.54995 0.60356 0.0
C254 C 0.65183 0.54782 0.55901 0.0
C255 C 0.66786 0.56048 0.54212 0.0
C256 C 0.68134 0.57444 0.57158 0.0
C257 C 0.67841 0.5765 0.61595 0.0
C258 C 0.65563 0.53763 0.8035 0.0
C259 C 0.70029 0.5611 0.78073 0.0
O260 O 0.68986 0.56433 0.91119 0.0
O261 O 0.6951 0.59201 0.91504 0.0
O262 O 0.70978 0.59705 0.82517 0.0
O263 O 0.68467 0.59288 0.80204 0.0
O264 O 0.66038 0.57696 0.86806 0.0
O265 O 0.6492 0.57672 0.79675 0.0
O266 O 0.67072 0.5825 0.70162 0.0
O267 O 0.64798 0.5553 0.70064 0.0
O268 O 0.65978 0.53893 0.76281 0.0
O269 O 0.65832 0.55266 0.81972 0.0
O270 O 0.69363 0.56806 0.75259 0.0
O271 O 0.69523 0.55868 0.82117 0.0
H272 H 0.70909 0.60363 1.00695 0.0
H273 H 0.70128 0.59999 0.08327 0.0
H274 H 0.65683 0.54646 0.04286 0.0
H275 H 0.66503 0.55011 0.96632 0.0
H276 H 0.636 0.54052 0.61502 0.0
H277 H 0.64118 0.5369 0.53719 0.0
H278 H 0.69396 0.58423 0.55986 0.0
H279 H 0.68891 0.5879 0.63693 0.0
C280 C 0.46055 0.13506 0.91953 0.0
Eu281 Eu 0.45556 0.1252 0.83486 0.0
C282 C 0.45821 0.12725 0.96274 0.0
C283 C 0.44331 0.12417 0.98577 0.0
C284 C 0.44236 0.11963 0.02952 0.0
C285 C 0.45632 0.11811 0.05135 0.0
C286 C 0.47065 0.12002 0.02727 0.0
C287 C 0.47163 0.1246 0.98348 0.0
C288 C 0.42332 0.11218 0.78652 0.0
C289 C 0.44315 0.08313 0.82617 0.0
C290 C 0.44725 0.09893 0.65992 0.0
Eu291 Eu 0.45278 0.10842 0.74544 0.0
C292 C 0.45091 0.10693 0.61649 0.0
C293 C 0.46598 0.10937 0.59488 0.0
C294 C 0.468 0.11429 0.55122 0.0
C295 C 0.45495 0.11684 0.52792 0.0
C296 C 0.44043 0.11542 0.5505 0.0
C297 C 0.43839 0.11045 0.59406 0.0
C298 C 0.48477 0.12005 0.79169 0.0
C299 C 0.46378 0.15149 0.76277 0.0
O300 O 0.47317 0.13549 0.89635 0.0
O301 O 0.44595 0.13123 0.89481 0.0
O302 O 0.43154 0.12773 0.80923 0.0
O303 O 0.43225 0.10435 0.79013 0.0
O304 O 0.45318 0.09877 0.84933 0.0
O305 O 0.43898 0.08266 0.78289 0.0
O306 O 0.43563 0.10054 0.68311 0.0
O307 O 0.46087 0.10046 0.68499 0.0
O308 O 0.47604 0.10491 0.76726 0.0
O309 O 0.47661 0.12886 0.79001 0.0
O310 O 0.45615 0.13659 0.735 0.0
O311 O 0.46812 0.15104 0.80456 0.0
H312 H 0.43275 0.1261 0.97073 0.0
H313 H 0.43117 0.1184 0.04696 0.0
H314 H 0.48144 0.11854 0.04273 0.0
H315 H 0.48325 0.12675 0.96657 0.0
H316 H 0.47588 0.10674 0.611 0.0
H317 H 0.4793 0.11514 0.53502 0.0
H318 H 0.43032 0.11766 0.53409 0.0
H319 H 0.42663 0.10875 0.60957 0.0
C320 C 0.88821 0.33234 0.93271 0.0
Eu321 Eu 0.89229 0.33856 0.85003 0.0
C322 C 0.89514 0.33915 0.97906 0.0
C323 C 0.89712 0.32759 1.00662 0.0
C324 C 0.90108 0.3321 0.05214 0.0
C325 C 0.90327 0.34841 0.07118 0.0
C326 C 0.90241 0.36055 0.04303 0.0
C327 C 0.89831 0.35593 0.99719 0.0
C328 C 0.90212 0.31927 0.79537 0.0
C329 C 0.93182 0.37123 0.84012 0.0
C330 C 0.90832 0.35548 0.6784 0.0
Eu331 Eu 0.89955 0.35004 0.75945 0.0
C332 C 0.89973 0.35174 0.63237 0.0
C333 C 0.90073 0.36582 0.60892 0.0
C334 C 0.89546 0.36299 0.56334 0.0
C335 C 0.8892 0.34603 0.54024 0.0
C336 C 0.88705 0.33166 0.56431 0.0
C337 C 0.89227 0.33448 0.60979 0.0
C338 C 0.88262 0.36516 0.8038 0.0
C339 C 0.8603 0.31734 0.77706 0.0
O340 O 0.87999 0.3393 0.91062 0.0
O341 O 0.8981 0.32827 0.90869 0.0
O342 O 0.88888 0.31174 0.81996 0.0
O343 O 0.90891 0.33591 0.80051 0.0
O344 O 0.91951 0.36277 0.8676 0.0
O345 O 0.92791 0.36801 0.79627 0.0
O346 O 0.90625 0.34154 0.69841 0.0
O347 O 0.90775 0.36765 0.70515 0.0
O348 O 0.87847 0.35831 0.76287 0.0
O349 O 0.89521 0.363 0.81978 0.0
O350 O 0.87287 0.32298 0.74869 0.0
O351 O 0.86417 0.32496 0.81786 0.0
H352 H 0.89473 0.31459 0.99313 0.0
H353 H 0.90134 0.32226 0.07254 0.0
H354 H 0.90434 0.37336 0.05655 0.0
H355 H 0.89703 0.36515 0.97632 0.0
H356 H 0.90641 0.37925 0.62534 0.0
H357 H 0.89737 0.37437 0.54575 0.0
H358 H 0.88196 0.31836 0.54764 0.0
H359 H 0.89116 0.32324 0.62672 0.0
C360 C 0.65851 0.09609 0.69282 0.0
Eu361 Eu 0.66468 0.10569 0.77832 0.0
C362 C 0.66309 0.10415 0.64961 0.0
C363 C 0.6504 0.10633 0.62347 0.0
C364 C 0.65356 0.11154 0.58023 0.0
C365 C 0.66947 0.11462 0.56187 0.0
C366 C 0.68258 0.11339 0.58895 0.0
C367 C 0.67941 0.10816 0.63212 0.0
C368 C 0.64584 0.11761 0.82288 0.0
C369 C 0.69779 0.14854 0.79578 0.0
C370 C 0.6886 0.13375 0.95347 0.0
Eu371 Eu 0.68141 0.12257 0.86943 0.0
C372 C 0.68323 0.12737 0.99757 0.0
C373 C 0.69503 0.12481 0.02597 0.0
C374 C 0.69151 0.12129 0.06993 0.0
C375 C 0.67608 0.12027 0.08661 0.0
C376 C 0.6638 0.12196 0.05749 0.0
C377 C 0.66735 0.12551 0.01346 0.0
C378 C 0.69931 0.10965 0.82229 0.0
C379 C 0.65067 0.08055 0.86 0.0
O380 O 0.67132 0.09608 0.71802 0.0
O381 O 0.64778 0.09923 0.7159 0.0
O382 O 0.63864 0.10254 0.79812 0.0
O383 O 0.66281 0.12615 0.82244 0.0
O384 O 0.68879 0.13387 0.76743 0.0
O385 O 0.695 0.14807 0.83794 0.0
O386 O 0.67708 0.13552 0.9273 0.0
O387 O 0.69744 0.12747 0.93208 0.0
O388 O 0.70733 0.12471 0.84735 0.0
O389 O 0.6826 0.10202 0.82458 0.0
O390 O 0.65825 0.09604 0.88441 0.0
O391 O 0.65246 0.08003 0.81647 0.0
H392 H 0.63767 0.10331 0.63578 0.0
H393 H 0.64309 0.11221 0.56046 0.0
H394 H 0.69516 0.11603 0.57639 0.0
H395 H 0.68955 0.10671 0.65122 0.0
H396 H 0.70742 0.12626 0.01473 0.0
H397 H 0.70138 0.12026 0.09135 0.0
H398 H 0.65161 0.1209 0.06895 0.0
H399 H 0.65792 0.12734 0.99238 0.0
C400 C 0.91378 0.56374 0.70762 0.0
Eu401 Eu 0.90505 0.56434 0.78839 0.0
C402 C 0.90495 0.56019 0.66209 0.0
C403 C 0.90447 0.54673 0.63287 0.0
C404 C 0.89867 0.54498 0.58796 0.0
C405 C 0.89338 0.55677 0.57143 0.0
C406 C 0.89264 0.5694 0.60128 0.0
C407 C 0.89832 0.57108 0.64621 0.0
C408 C 0.88842 0.53493 0.83505 0.0
C409 C 0.8664 0.56039 0.80547 0.0
C410 C 0.88875 0.57084 0.96673 0.0
Eu411 Eu 0.89709 0.57198 0.88543 0.0
C412 C 0.89519 0.57054 0.01243 0.0
C413 C 0.89762 0.58421 0.04408 0.0
C414 C 0.90181 0.5836 0.08872 0.0
C415 C 0.90363 0.56924 0.10274 0.0
C416 C 0.90217 0.55601 0.07066 0.0
C417 C 0.89798 0.55665 0.02573 0.0
C418 C 0.90916 0.60157 0.83701 0.0
C419 C 0.9367 0.5786 0.87258 0.0
O420 O 0.9165 0.57829 0.73063 0.0
O421 O 0.90872 0.55004 0.73152 0.0
O422 O 0.88395 0.53568 0.79397 0.0
O423 O 0.90101 0.55041 0.85058 0.0
O424 O 0.87894 0.56507 0.777 0.0
O425 O 0.86967 0.55907 0.84779 0.0
O426 O 0.8825 0.55635 0.93896 0.0
O427 O 0.8983 0.58579 0.94838 0.0
O428 O 0.9047 0.60172 0.8771 0.0
O429 O 0.90624 0.58614 0.82701 0.0
O430 O 0.92454 0.57607 0.90045 0.0
O431 O 0.93295 0.57607 0.82846 0.0
H432 H 0.90938 0.53811 0.64436 0.0
H433 H 0.89945 0.53516 0.56572 0.0
H434 H 0.88835 0.57848 0.58954 0.0
H435 H 0.89822 0.58141 0.668 0.0
H436 H 0.89559 0.59508 0.03447 0.0
H437 H 0.9026 0.59389 0.11246 0.0
H438 H 0.90377 0.54492 0.08045 0.0
H439 H 0.89643 0.54607 1.00178 0.0
C440 C 0.45174 0.35652 0.69721 0.0
Eu441 Eu 0.45946 0.35268 0.77855 0.0
C442 C 0.45655 0.35388 0.65223 0.0
C443 C 0.47172 0.36755 0.63477 0.0
C444 C 0.47477 0.36569 0.59042 0.0
C445 C 0.46279 0.35011 0.56288 0.0
C446 C 0.44828 0.33596 0.58091 0.0
C447 C 0.44512 0.33787 0.6251 0.0
C448 C 0.49382 0.36892 0.81826 0.0
C449 C 0.46885 0.32126 0.79425 0.0
C450 C 0.46638 0.33882 0.95339 0.0
Eu451 Eu 0.46147 0.34223 0.86997 0.0
C452 C 0.46373 0.34433 0.99794 0.0
C453 C 0.44794 0.33287 0.01752 0.0
C454 C 0.44666 0.33571 0.06248 0.0
C455 C 0.46108 0.35008 0.0885 0.0
C456 C 0.47631 0.36239 0.0686 0.0
C457 C 0.47767 0.35949 0.02347 0.0
C458 C 0.42973 0.32124 0.81934 0.0
C459 C 0.4484 0.37119 0.86051 0.0
O460 O 0.44244 0.34184 0.71684 0.0
O461 O 0.46385 0.37001 0.72462 0.0
O462 O 0.48908 0.36182 0.77766 0.0
O463 O 0.47999 0.3665 0.83638 0.0
O464 O 0.45973 0.32625 0.76769 0.0
O465 O 0.47478 0.32901 0.83489 0.0
O466 O 0.47913 0.35078 0.93164 0.0
O467 O 0.45179 0.32786 0.92788 0.0
O468 O 0.4372 0.31459 0.84438 0.0
O469 O 0.43908 0.33797 0.82293 0.0
O470 O 0.45327 0.36263 0.88777 0.0
O471 O 0.44886 0.3692 0.81661 0.0
H472 H 0.48086 0.37997 0.65477 0.0
H473 H 0.4861 0.37674 0.57707 0.0
H474 H 0.43877 0.32389 0.56013 0.0
H475 H 0.43328 0.32707 0.63748 0.0
H476 H 0.43696 0.32105 0.99883 0.0
H477 H 0.43486 0.32607 0.07753 0.0
H478 H 0.48761 0.37348 0.08853 0.0
H479 H 0.49001 0.3685 0.0093 0.0
C480 C 0.32462 0.88958 0.03091 0.0
Eu481 Eu 0.33449 0.89872 0.11534 0.0
C482 C 0.33073 0.89449 0.98649 0.0
C483 C 0.31971 0.89727 0.95605 0.0
C484 C 0.32392 0.90019 0.91232 0.0
C485 C 0.33936 0.90049 0.89787 0.0
C486 C 0.35079 0.89834 0.92893 0.0
C487 C 0.34651 0.89536 0.97289 0.0
C488 C 0.31827 0.91217 0.16833 0.0
C489 C 0.36868 0.93906 0.12633 0.0
C490 C 0.3547 0.92549 0.29304 0.0
Eu491 Eu 0.35263 0.91495 0.20964 0.0
C492 C 0.3525 0.91791 0.33685 0.0
C493 C 0.36669 0.91767 0.36158 0.0
C494 C 0.36463 0.9122 0.40485 0.0
C495 C 0.34838 0.90697 0.42424 0.0
C496 C 0.33392 0.90622 0.39839 0.0
C497 C 0.33599 0.91172 0.35552 0.0
C498 C 0.3702 0.89886 0.17575 0.0
C499 C 0.32061 0.87188 0.18885 0.0
O500 O 0.33199 0.88234 0.05508 0.0
O501 O 0.32149 0.90081 0.05416 0.0
O502 O 0.30953 0.89709 0.14349 0.0
O503 O 0.33483 0.91915 0.16402 0.0
O504 O 0.35963 0.92366 0.10147 0.0
O505 O 0.36701 0.94 0.16993 0.0
O506 O 0.34002 0.91854 0.26605 0.0
O507 O 0.36901 0.92899 0.27236 0.0
O508 O 0.3741 0.90728 0.2149 0.0
O509 O 0.35707 0.89926 0.15578 0.0
O510 O 0.32889 0.88643 0.21769 0.0
O511 O 0.32295 0.87284 0.14635 0.0
H512 H 0.30746 0.89663 0.96579 0.0
H513 H 0.31463 0.90151 0.88945 0.0
H514 H 0.36294 0.89879 0.9192 0.0
H515 H 0.35534 0.8934 0.99586 0.0
H516 H 0.37956 0.92224 0.34814 0.0
H517 H 0.37604 0.91295 0.42386 0.0
H518 H 0.3211 0.9019 0.41184 0.0
H519 H 0.32472 0.91162 0.33745 0.0
C520 C 0.11567 0.46126 0.29658 0.0
Eu521 Eu 0.11948 0.45615 0.2135 0.0
C522 C 0.11736 0.45652 0.34164 0.0
C523 C 0.1037 0.45366 0.36885 0.0
C524 C 0.10541 0.45107 0.41337 0.0
C525 C 0.12081 0.45111 0.43168 0.0
C526 C 0.13422 0.45322 0.40373 0.0
C527 C 0.13252 0.45594 0.35894 0.0
C528 C 0.09028 0.44424 0.15207 0.0
C529 C 0.11417 0.41745 0.19851 0.0
C530 C 0.11552 0.43656 0.03629 0.0
Eu531 Eu 0.1235 0.44467 0.12143 0.0
C532 C 0.12116 0.44456 0.99375 0.0
C533 C 0.13506 0.44413 0.97224 0.0
C534 C 0.13832 0.44963 0.92926 0.0
C535 C 0.12767 0.45554 0.90711 0.0
C536 C 0.11461 0.45706 0.9299 0.0
C537 C 0.11132 0.45153 0.97249 0.0
C538 C 0.15685 0.4592 0.16445 0.0
C539 C 0.13289 0.48644 0.15029 0.0
O540 O 0.13042 0.4715 0.27792 0.0
O541 O 0.10285 0.44869 0.26896 0.0
O542 O 0.09634 0.45852 0.17936 0.0
O543 O 0.09999 0.43731 0.15816 0.0
O544 O 0.12264 0.43247 0.22452 0.0
O545 O 0.1111 0.41793 0.15512 0.0
O546 O 0.1086 0.44397 0.0613 0.0
O547 O 0.1256 0.43176 0.05925 0.0
O548 O 0.15266 0.45258 0.12346 0.0
O549 O 0.1432 0.45804 0.18195 0.0
O550 O 0.12771 0.47337 0.1179 0.0
O551 O 0.13397 0.4835 0.19195 0.0
H552 H 0.09192 0.45409 0.356 0.0
H553 H 0.09494 0.44984 0.43377 0.0
H554 H 0.14612 0.45304 0.41659 0.0
H555 H 0.14318 0.45797 0.33823 0.0
H556 H 0.14293 0.43891 0.9878 0.0
H557 H 0.14846 0.44827 0.91248 0.0
H558 H 0.10641 0.46187 0.9141 0.0
H559 H 0.10052 0.45209 0.98809 0.0
C560 C 0.56086 0.69066 0.05837 0.0
Eu561 Eu 0.56402 0.68554 0.1414 0.0
C562 C 0.56303 0.68468 0.01371 0.0
C563 C 0.5766 0.69718 0.98977 0.0
C564 C 0.57741 0.69302 0.94519 0.0
C565 C 0.56462 0.6762 0.92339 0.0
C566 C 0.5517 0.66322 0.94818 0.0
C567 C 0.55088 0.66743 0.99297 0.0
C568 C 0.59546 0.70375 0.19505 0.0
C569 C 0.57327 0.65339 0.14596 0.0
C570 C 0.57572 0.67273 0.3149 0.0
Eu571 Eu 0.5652 0.67193 0.23231 0.0
C572 C 0.57027 0.67463 0.35974 0.0
C573 C 0.55664 0.65986 0.3787 0.0
C574 C 0.55321 0.66158 0.42293 0.0
C575 C 0.56335 0.67808 0.44915 0.0
C576 C 0.5762 0.69305 0.42924 0.0
C577 C 0.57969 0.69133 0.38527 0.0
C578 C 0.5304 0.65255 0.19652 0.0
C579 C 0.55388 0.70329 0.21805 0.0
O580 O 0.54733 0.6793 0.07919 0.0
O581 O 0.57558 0.70046 0.08468 0.0
O582 O 0.58828 0.71175 0.17412 0.0
O583 O 0.58567 0.68703 0.18764 0.0
O584 O 0.56712 0.66183 0.12191 0.0
O585 O 0.57556 0.65616 0.19027 0.0
O586 O 0.58193 0.68699 0.29262 0.0
O587 O 0.56564 0.65766 0.28963 0.0
O588 O 0.53601 0.65068 0.2352 0.0
O589 O 0.5434 0.66485 0.17882 0.0
O590 O 0.56184 0.697 0.24483 0.0
O591 O 0.54991 0.6977 0.17567 0.0
H592 H 0.58612 0.71056 1.00498 0.0
H593 H 0.58743 0.70345 0.92727 0.0
H594 H 0.54187 0.65002 0.93264 0.0
H595 H 0.54035 0.65741 0.01073 0.0
H596 H 0.54905 0.64682 0.35995 0.0
H597 H 0.54325 0.64973 0.43716 0.0
H598 H 0.58398 0.70606 0.44807 0.0
H599 H 0.5902 0.70301 0.37167 0.0
C600 C 0.33456 0.43303 0.05559 0.0
Eu601 Eu 0.3369 0.44179 0.1403 0.0
C602 C 0.33597 0.44074 0.0123 0.0
C603 C 0.3218 0.44209 0.9911 0.0
C604 C 0.32301 0.44768 0.94809 0.0
C605 C 0.33835 0.45191 0.92527 0.0
C606 C 0.35279 0.45133 0.94755 0.0
C607 C 0.3516 0.44582 0.99036 0.0
C608 C 0.31954 0.45698 0.17976 0.0
C609 C 0.36883 0.48401 0.16916 0.0
C610 C 0.36556 0.45913 0.31815 0.0
Eu611 Eu 0.35484 0.45382 0.23378 0.0
C612 C 0.35985 0.45563 0.36335 0.0
C613 C 0.37107 0.45353 0.39469 0.0
C614 C 0.36741 0.45209 0.43907 0.0
C615 C 0.35243 0.45276 0.45324 0.0
C616 C 0.34061 0.45395 0.42135 0.0
C617 C 0.34433 0.45543 0.37665 0.0
C618 C 0.37055 0.44163 0.17438 0.0
C619 C 0.31879 0.41583 0.21794 0.0
O620 O 0.34952 0.44032 0.08165 0.0
O621 O 0.32033 0.42873 0.07736 0.0
O622 O 0.31611 0.45026 0.13888 0.0
O623 O 0.33239 0.45575 0.19895 0.0
O624 O 0.36075 0.47062 0.13716 0.0
O625 O 0.36637 0.48117 0.21101 0.0
O626 O 0.36227 0.47021 0.29693 0.0
O627 O 0.36365 0.44552 0.29235 0.0
O628 O 0.37947 0.45602 0.20153 0.0
O629 O 0.35408 0.43474 0.17982 0.0
O630 O 0.32789 0.4307 0.24445 0.0
O631 O 0.32143 0.41565 0.17497 0.0
H632 H 0.30962 0.4384 1.0072 0.0
H633 H 0.31175 0.4483 0.93236 0.0
H634 H 0.36473 0.45423 0.93118 0.0
H635 H 0.36276 0.4449 1.00572 0.0
H636 H 0.38303 0.45351 0.38502 0.0
H637 H 0.37655 0.45078 0.46254 0.0
H638 H 0.32894 0.45448 0.43121 0.0
H639 H 0.33539 0.4569 0.35287 0.0
C640 C 0.57866 0.92566 0.33663 0.0
Eu641 Eu 0.5686 0.91538 0.25266 0.0
C642 C 0.57374 0.9187 0.38058 0.0
C643 C 0.55829 0.91671 0.39946 0.0
C644 C 0.55519 0.91171 0.44295 0.0
C645 C 0.56751 0.90872 0.46821 0.0
C646 C 0.58233 0.90971 0.44824 0.0
C647 C 0.58544 0.91472 0.40513 0.0
C648 C 0.53429 0.89996 0.21385 0.0
C649 C 0.55699 0.87238 0.2302 0.0
C650 C 0.56707 0.89093 0.07437 0.0
Eu651 Eu 0.56844 0.89982 0.15822 0.0
C652 C 0.56728 0.89775 0.03074 0.0
C653 C 0.58218 0.90229 1.00638 0.0
C654 C 0.58185 0.90636 0.96258 0.0
C655 C 0.56657 0.90591 0.94215 0.0
C656 C 0.55206 0.90241 0.96739 0.0
C657 C 0.5524 0.89835 0.01138 0.0
C658 C 0.59885 0.91216 0.21453 0.0
C659 C 0.57738 0.94107 0.17044 0.0
O660 O 0.58501 0.91757 0.31185 0.0
O661 O 0.56823 0.93004 0.3137 0.0
O662 O 0.53931 0.90776 0.25379 0.0
O663 O 0.54762 0.9005 0.19659 0.0
O664 O 0.5643 0.88674 0.25979 0.0
O665 O 0.5541 0.87376 0.18796 0.0
O666 O 0.55265 0.88571 0.09582 0.0
O667 O 0.58207 0.89949 0.10027 0.0
O668 O 0.59192 0.89732 0.18884 0.0
O669 O 0.5895 0.9195 0.20907 0.0
O670 O 0.57043 0.92605 0.14411 0.0
O671 O 0.57997 0.94111 0.21446 0.0
H672 H 0.54892 0.91952 0.38125 0.0
H673 H 0.54366 0.91107 0.45751 0.0
H674 H 0.59188 0.90716 0.46652 0.0
H675 H 0.59737 0.91599 0.3914 0.0
H676 H 0.59382 0.90193 0.0206 0.0
H677 H 0.59319 0.90884 0.94406 0.0
H678 H 0.54023 0.9023 0.95274 0.0
H679 H 0.54078 0.89508 0.02955 0.0
C680 C 0.11555 0.68418 0.08326 0.0
Eu681 Eu 0.12506 0.68581 0.16663 0.0
C682 C 0.12182 0.68261 0.03982 0.0
C683 C 0.13808 0.69625 0.0264 0.0
C684 C 0.14261 0.69512 0.98319 0.0
C685 C 0.13095 0.68036 0.95274 0.0
C686 C 0.11533 0.66618 0.9673 0.0
C687 C 0.1108 0.66732 0.0104 0.0
C688 C 0.159 0.70569 0.20604 0.0
C689 C 0.13432 0.65377 0.18769 0.0
C690 C 0.12136 0.66611 0.34024 0.0
Eu691 Eu 0.12267 0.67297 0.25754 0.0
C692 C 0.12129 0.67224 0.3864 0.0
C693 C 0.10654 0.66114 0.40945 0.0
C694 C 0.10713 0.66431 0.45514 0.0
C695 C 0.12252 0.67866 0.47871 0.0
C696 C 0.1368 0.69065 0.45535 0.0
C697 C 0.13624 0.68741 0.40932 0.0
C698 C 0.09246 0.65502 0.19852 0.0
C699 C 0.11659 0.70626 0.24627 0.0
O700 O 0.10991 0.66999 0.10562 0.0
O701 O 0.12474 0.69947 0.10831 0.0
O702 O 0.15405 0.70678 0.16585 0.0
O703 O 0.14583 0.69382 0.22476 0.0
O704 O 0.1291 0.66126 0.15752 0.0
O705 O 0.13576 0.65851 0.23016 0.0
O706 O 0.13639 0.67377 0.32097 0.0
O707 O 0.1071 0.66166 0.3134 0.0
O708 O 0.09871 0.64689 0.22223 0.0
O709 O 0.10263 0.67164 0.20647 0.0
O710 O 0.12309 0.69891 0.27308 0.0
O711 O 0.11384 0.70176 0.20273 0.0
H712 H 0.14701 0.70804 0.04871 0.0
H713 H 0.15493 0.70609 0.97311 0.0
H714 H 0.106 0.65467 0.94469 0.0
H715 H 0.09828 0.65654 0.02022 0.0
H716 H 0.09489 0.64938 0.39243 0.0
H717 H 0.09587 0.65503 0.4724 0.0
H718 H 0.1488 0.70181 0.47296 0.0
H719 H 0.14778 0.69622 0.3922 0.0
C720 C 0.10465 0.38481 0.21145 0.0
C721 C 0.10464 0.40088 0.22236 0.0
C722 C 0.09796 0.37091 0.24039 0.0
C723 C 0.08675 0.36393 0.3598 0.0
H724 H 0.06463 0.31344 0.31954 0.0
C725 C 0.05099 0.30705 0.47851 0.0
C726 C 0.05077 0.29079 0.46904 0.0
C727 C 0.05853 0.32089 0.44977 0.0
C728 C 0.07099 0.3275 0.33171 0.0
H729 H 0.09634 0.41428 0.27041 0.0
H730 H 0.0843 0.39037 0.31866 0.0
H731 H 0.07518 0.33571 0.26564 0.0
H732 H 0.05904 0.27665 0.42337 0.0
H733 H 0.07282 0.30073 0.37511 0.0
H734 H 0.08247 0.35575 0.42578 0.0
C735 C 0.09012 0.38848 0.28944 0.0
C736 C 0.07708 0.34036 0.30046 0.0
C737 C 0.09688 0.40223 0.26116 0.0
C738 C 0.05914 0.2891 0.43185 0.0
C739 C 0.06675 0.30285 0.40354 0.0
C740 C 0.08062 0.35109 0.39098 0.0
C741 C 0.09101 0.37276 0.28057 0.0
C742 C 0.08497 0.35883 0.31385 0.0
C743 C 0.06606 0.31876 0.41099 0.0
C744 C 0.07264 0.33262 0.37759 0.0
H745 H 0.11056 0.38334 0.18194 0.0
H746 H 0.09888 0.35903 0.23201 0.0
H747 H 0.09314 0.37797 0.37212 0.0
H748 H 0.04424 0.30859 0.50621 0.0
H749 H 0.05759 0.33284 0.45682 0.0
C750 C 0.73052 0.77843 0.46532 0.0
C751 C 0.7422 0.77155 0.46074 0.0
C752 C 0.71445 0.77132 0.43753 0.0
C753 C 0.69322 0.74667 0.32767 0.0
H754 H 0.64821 0.73589 0.37512 0.0
C755 C 0.625 0.70694 0.22075 0.0
C756 C 0.61229 0.71251 0.22507 0.0
C757 C 0.64074 0.71452 0.24966 0.0
C758 C 0.66069 0.73905 0.36117 0.0
H759 H 0.74595 0.75155 0.42395 0.0
H760 H 0.7184 0.73969 0.37447 0.0
H761 H 0.67583 0.74847 0.42505 0.0
H762 H 0.60559 0.72975 0.26417 0.0
H763 H 0.63299 0.74283 0.31568 0.0
H764 H 0.67826 0.73743 0.26387 0.0
C765 C 0.7216 0.75056 0.39951 0.0
C766 C 0.67654 0.74624 0.38986 0.0
C767 C 0.73743 0.75739 0.42787 0.0
C768 C 0.6154 0.72554 0.25957 0.0
C769 C 0.631 0.73286 0.2893 0.0
C770 C 0.67744 0.73959 0.29901 0.0
C771 C 0.70987 0.7574 0.40396 0.0
C772 C 0.693 0.75006 0.37351 0.0
C773 C 0.644 0.72757 0.28449 0.0
C774 C 0.6609 0.73556 0.3153 0.0
H775 H 0.73376 0.78926 0.49053 0.0
H776 H 0.70577 0.77696 0.44181 0.0
H777 H 0.7057 0.74971 0.31379 0.0
H778 H 0.62279 0.69675 0.19466 0.0
H779 H 0.65023 0.70988 0.24515 0.0
C780 C 0.26389 0.97927 0.45547 0.0
C781 C 0.24595 0.97472 0.4445 0.0
C782 C 0.272 0.9717 0.42941 0.0
C783 C 0.26107 0.93502 0.33867 0.0
H784 H 0.31059 0.96593 0.31551 0.0
C785 C 0.29167 0.9101 0.2045 0.0
C786 C 0.31024 0.91936 0.20026 0.0
C787 C 0.28412 0.91667 0.23507 0.0
C788 C 0.29681 0.95672 0.32133 0.0
H789 H 0.22232 0.95833 0.39875 0.0
H790 H 0.23616 0.94536 0.35377 0.0
H791 H 0.29732 0.97647 0.3685 0.0
H792 H 0.33545 0.94312 0.22443 0.0
H793 H 0.32299 0.95383 0.27954 0.0
H794 H 0.26019 0.91514 0.29294 0.0
C795 C 0.24412 0.95443 0.38254 0.0
C796 C 0.28914 0.96297 0.35243 0.0
C797 C 0.23611 0.96193 0.40842 0.0
C798 C 0.32107 0.93549 0.22715 0.0
C799 C 0.31367 0.94178 0.25886 0.0
C800 C 0.26874 0.92868 0.30801 0.0
C801 C 0.26231 0.95941 0.39189 0.0
C802 C 0.27105 0.95231 0.36126 0.0
C803 C 0.29493 0.93257 0.26374 0.0
C804 C 0.28679 0.9394 0.29796 0.0
H805 H 0.27194 0.98942 0.48246 0.0
H806 H 0.28596 0.97578 0.43818 0.0
H807 H 0.2472 0.92613 0.34492 0.0
H808 H 0.28288 0.89772 0.18392 0.0
H809 H 0.26968 0.90905 0.23528 0.0
C810 C 0.29265 0.04306 0.50792 0.0
C811 C 0.27687 0.04156 0.52314 0.0
C812 C 0.30874 0.05145 0.53562 0.0
C813 C 0.32571 0.065 0.6551 0.0
H814 H 0.37193 0.09188 0.60725 0.0
C815 C 0.39199 0.08828 0.76245 0.0
C816 C 0.40677 0.10512 0.75677 0.0
C817 C 0.37636 0.08103 0.73348 0.0
C818 C 0.35914 0.08462 0.62132 0.0
H819 H 0.26553 0.04801 0.57871 0.0
H820 H 0.2935 0.06292 0.62658 0.0
H821 H 0.34434 0.0791 0.55794 0.0
H822 H 0.41744 0.12738 0.71568 0.0
H823 H 0.39009 0.11475 0.66449 0.0
H824 H 0.34038 0.07115 0.71868 0.0
C825 C 0.29354 0.05729 0.59379 0.0
C826 C 0.34328 0.07702 0.59285 0.0
C827 C 0.27749 0.04884 0.56621 0.0
C828 C 0.40595 0.11452 0.72113 0.0
C829 C 0.39038 0.10716 0.6916 0.0
C830 C 0.34152 0.07278 0.68358 0.0
C831 C 0.30938 0.05858 0.57909 0.0
C832 C 0.32634 0.06701 0.60932 0.0
C833 C 0.3753 0.09037 0.69765 0.0
C834 C 0.35847 0.08257 0.6671 0.0
H835 H 0.2925 0.03753 0.47483 0.0
H836 H 0.32056 0.05196 0.52322 0.0
H837 H 0.313 0.05718 0.66912 0.0
H838 H 0.39251 0.08075 0.78953 0.0
H839 H 0.36522 0.06795 0.73881 0.0
C840 C 0.90143 0.29167 0.76063 0.0
C841 C 0.90957 0.31042 0.76742 0.0
C842 C 0.90906 0.28381 0.73413 0.0
C843 C 0.94558 0.2962 0.65507 0.0
H844 H 0.93615 0.24799 0.67126 0.0
C845 C 0.98699 0.26808 0.57669 0.0
C846 C 0.97724 0.25072 0.55459 0.0
C847 C 0.97848 0.27469 0.60357 0.0
C848 C 0.93886 0.26146 0.66632 0.0
H849 H 0.93215 0.33572 0.75235 0.0
H850 H 0.94597 0.32244 0.70946 0.0
H851 H 0.92201 0.26078 0.71619 0.0
H852 H 0.95117 0.22639 0.54429 0.0
H853 H 0.93618 0.23797 0.59154 0.0
H854 H 0.96317 0.29702 0.60666 0.0
C855 C 0.93331 0.31341 0.72217 0.0
C856 C 0.9306 0.26884 0.69189 0.0
C857 C 0.92548 0.32117 0.74759 0.0
C858 C 0.95892 0.23988 0.56072 0.0
C859 C 0.95041 0.24646 0.58797 0.0
C860 C 0.95418 0.289 0.63053 0.0
C861 C 0.92524 0.29457 0.71456 0.0
C862 C 0.9338 0.28639 0.68678 0.0
C863 C 0.96006 0.26403 0.60915 0.0
C864 C 0.95091 0.27155 0.63577 0.0
H865 H 0.88913 0.28309 0.77554 0.0
H866 H 0.90204 0.2693 0.72883 0.0
H867 H 0.94813 0.30944 0.6483 0.0
H868 H 1.00118 0.27669 0.57276 0.0
H869 H 0.98634 0.28818 0.61996 0.0
C870 C 0.78324 0.73122 0.57762 0.0
C871 C 0.77358 0.73232 0.54048 0.0
C872 C 0.77552 0.71653 0.60272 0.0
C873 C 0.73049 0.67423 0.61574 0.0
H874 H 0.76008 0.67116 0.71161 0.0
C875 C 0.69877 0.62227 0.74551 0.0
C876 C 0.70935 0.61644 0.76812 0.0
C877 C 0.70635 0.6359 0.71682 0.0
C878 C 0.75149 0.67133 0.6845 0.0
H879 H 0.74846 0.7185 0.49887 0.0
H880 H 0.73524 0.69208 0.54006 0.0
H881 H 0.77386 0.69328 0.66143 0.0
H882 H 0.73606 0.61999 0.77779 0.0
H883 H 0.74917 0.64293 0.72635 0.0
H884 H 0.70839 0.65074 0.63707 0.0
C885 C 0.7486 0.70278 0.55182 0.0
C886 C 0.75947 0.68473 0.65559 0.0
C887 C 0.75634 0.71782 0.52705 0.0
C888 C 0.72761 0.62432 0.76104 0.0
C889 C 0.73515 0.6377 0.73169 0.0
C890 C 0.72264 0.66028 0.64362 0.0
C891 C 0.75785 0.70201 0.59116 0.0
C892 C 0.74918 0.68675 0.62075 0.0
C893 C 0.72471 0.64389 0.70929 0.0
C894 C 0.73299 0.65864 0.67878 0.0
H895 H 0.79658 0.7423 0.58884 0.0
H896 H 0.78354 0.71741 0.63227 0.0
H897 H 0.72159 0.67498 0.59059 0.0
H898 H 0.68461 0.61645 0.75044 0.0
H899 H 0.69775 0.64029 0.70135 0.0
C900 C 0.96295 0.7331 0.62213 0.0
C901 C 0.97291 0.73351 0.58651 0.0
C902 C 0.9552 0.71815 0.64659 0.0
C903 C 0.94466 0.67047 0.64966 0.0
H904 H 0.94486 0.68129 0.77572 0.0
C905 C 0.92806 0.61738 0.77638 0.0
C906 C 0.91686 0.6168 0.80908 0.0
C907 C 0.93485 0.63134 0.74853 0.0
C908 C 0.94452 0.67799 0.74055 0.0
H909 H 0.9823 0.71849 0.54775 0.0
H910 H 0.96905 0.69233 0.59103 0.0
H911 H 0.9563 0.7055 0.72735 0.0
H912 H 0.90478 0.63088 0.84031 0.0
H913 H 0.91675 0.65551 0.79201 0.0
H914 H 0.93326 0.64291 0.66352 0.0
C915 C 0.9668 0.70339 0.59955 0.0
C916 C 0.95103 0.6919 0.71257 0.0
C917 C 0.97432 0.71832 0.57446 0.0
C918 C 0.91321 0.63091 0.81492 0.0
C919 C 0.92012 0.64501 0.78732 0.0
C920 C 0.93831 0.65655 0.67781 0.0
C921 C 0.95755 0.70332 0.6368 0.0
C922 C 0.95099 0.68835 0.66657 0.0
C923 C 0.93087 0.64529 0.75342 0.0
C924 C 0.938 0.66012 0.72354 0.0
H925 H 0.96176 0.74471 0.63226 0.0
H926 H 0.94773 0.71849 0.67397 0.0
H927 H 0.94424 0.6671 0.61452 0.0
H928 H 0.93204 0.60732 0.77323 0.0
H929 H 0.94352 0.6314 0.72375 0.0
C930 C 0.28397 0.26238 0.60498 0.0
C931 C 0.27767 0.24659 0.57684 0.0
C932 C 0.29967 0.26901 0.63303 0.0
C933 C 0.33523 0.25837 0.6734 0.0
H934 H 0.36056 0.30966 0.70638 0.0
C935 C 0.40109 0.29286 0.79171 0.0
C936 C 0.41276 0.31136 0.7906 0.0
C937 C 0.38454 0.2842 0.76567 0.0
C938 C 0.35412 0.29539 0.69675 0.0
H939 H 0.28296 0.22547 0.55505 0.0
H940 H 0.31145 0.23793 0.60081 0.0
H941 H 0.33313 0.2964 0.65958 0.0
H942 H 0.41644 0.33531 0.76138 0.0
H943 H 0.38946 0.32015 0.71202 0.0
H944 H 0.35738 0.2578 0.70665 0.0
C945 C 0.30378 0.24474 0.60346 0.0
C946 C 0.3378 0.28756 0.67069 0.0
C947 C 0.28754 0.23765 0.57668 0.0
C948 C 0.40793 0.32092 0.76225 0.0
C949 C 0.392 0.3122 0.73469 0.0
C950 C 0.35205 0.26637 0.69785 0.0
C951 C 0.31017 0.26063 0.6319 0.0
C952 C 0.32789 0.26888 0.65906 0.0
C953 C 0.37967 0.29379 0.73685 0.0
C954 C 0.36176 0.28503 0.71017 0.0
H955 H 0.27681 0.26977 0.60525 0.0
H956 H 0.30352 0.28084 0.65531 0.0
H957 H 0.32802 0.24392 0.66602 0.0
H958 H 0.40448 0.28523 0.81361 0.0
H959 H 0.37549 0.27011 0.76919 0.0
C960 C 0.698 0.08677 0.76555 0.0
C961 C 0.7082 0.10307 0.79225 0.0
C962 C 0.70624 0.08077 0.73599 0.0
C963 C 0.74856 0.09634 0.68003 0.0
H964 H 0.73072 0.04514 0.65965 0.0
C965 C 0.787 0.06598 0.59234 0.0
C966 C 0.77676 0.05018 0.56412 0.0
C967 C 0.77849 0.0735 0.61625 0.0
C968 C 0.73571 0.05947 0.66451 0.0
H969 H 0.73505 0.1257 0.80969 0.0
H970 H 0.74965 0.11487 0.75968 0.0
H971 H 0.71645 0.05585 0.71064 0.0
H972 H 0.74982 0.02969 0.53845 0.0
H973 H 0.73484 0.04282 0.58007 0.0
H974 H 0.76815 0.09988 0.63466 0.0
C975 C 0.73518 0.10696 0.76032 0.0
C976 C 0.72751 0.06564 0.69378 0.0
C977 C 0.72686 0.11311 0.78939 0.0
C978 C 0.75796 0.04224 0.559 0.0
C979 C 0.74942 0.04958 0.5834 0.0
C980 C 0.75686 0.09017 0.65106 0.0
C981 C 0.72497 0.09073 0.73306 0.0
C982 C 0.73379 0.08417 0.70191 0.0
C983 C 0.75958 0.06506 0.6131 0.0
C984 C 0.75049 0.07166 0.64285 0.0
H985 H 0.68359 0.07869 0.76721 0.0
H986 H 0.69785 0.06838 0.71509 0.0
H987 H 0.75361 0.11068 0.68479 0.0
H988 H 0.80149 0.07196 0.59764 0.0
H989 H 0.78668 0.08531 0.63917 0.0
C990 C 0.62424 0.90974 0.25179 0.0
C991 C 0.61476 0.91902 0.24746 0.0
C992 C 0.63952 0.91646 0.28213 0.0
C993 C 0.67257 0.95861 0.35465 0.0
H994 H 0.68922 0.92705 0.39543 0.0
C995 C 0.74222 0.98869 0.45082 0.0
C996 C 0.74596 0.97861 0.48008 0.0
C997 C 0.72609 0.98084 0.42369 0.0
C998 C 0.68473 0.93614 0.38527 0.0
H999 H 0.61365 0.94249 0.27222 0.0
H1000 H 0.63915 0.95344 0.32727 0.0
H1001 H 0.66099 0.91447 0.35021 0.0
H1002 H 0.73552 0.95241 0.50464 0.0
H1003 H 0.70668 0.93883 0.45968 0.0
H1004 H 0.69531 0.98003 0.39298 0.0
C1005 C 0.63558 0.94142 0.30607 0.0
C1006 C 0.66853 0.92889 0.3581 0.0
C1007 C 0.62067 0.93499 0.27475 0.0
C1008 C 0.73305 0.96046 0.48206 0.0
C1009 C 0.71653 0.95267 0.45582 0.0
C1010 C 0.68837 0.96575 0.38307 0.0
C1011 C 0.64553 0.93246 0.3099 0.0
C1012 C 0.6623 0.94002 0.34148 0.0
C1013 C 0.71272 0.96277 0.42619 0.0
C1014 C 0.69504 0.95475 0.3981 0.0
H1015 H 0.62003 0.8974 0.23115 0.0
H1016 H 0.64676 0.90918 0.2828 0.0
H1017 H 0.66872 0.96792 0.34256 0.0
H1018 H 0.75176 1.00282 0.44892 0.0
H1019 H 0.72431 0.98914 0.40068 0.0
C1020 C 0.03379 0.75729 0.47537 0.0
C1021 C 0.04449 0.77135 0.50842 0.0
C1022 C 0.04171 0.75112 0.44498 0.0
C1023 C 0.08159 0.74695 0.43148 0.0
H1024 H 0.069 0.743 0.30499 0.0
C1025 C 0.11931 0.72789 0.30812 0.0
C1026 C 0.11012 0.71757 0.26806 0.0
C1027 C 0.11162 0.73542 0.33513 0.0
C1028 C 0.07253 0.7437 0.34013 0.0
H1029 H 0.07184 0.78923 0.537 0.0
H1030 H 0.08563 0.77782 0.4853 0.0
H1031 H 0.05466 0.75333 0.35717 0.0
H1032 H 0.08567 0.70731 0.22452 0.0
H1033 H 0.07189 0.72003 0.27204 0.0
H1034 H 0.09874 0.73659 0.41543 0.0
C1035 C 0.07113 0.772 0.48202 0.0
C1036 C 0.06433 0.74974 0.37009 0.0
C1037 C 0.06324 0.77855 0.51158 0.0
C1038 C 0.09326 0.71553 0.25473 0.0
C1039 C 0.08534 0.7228 0.28231 0.0
C1040 C 0.0895 0.74056 0.40171 0.0
C1041 C 0.06047 0.75836 0.448 0.0
C1042 C 0.0689 0.75161 0.41609 0.0
C1043 C 0.09421 0.7325 0.32362 0.0
C1044 C 0.08532 0.73902 0.35538 0.0
H1045 H 0.01925 0.75113 0.4727 0.0
H1046 H 0.03311 0.74044 0.41956 0.0
H1047 H 0.08517 0.74794 0.46676 0.0
H1048 H 0.13231 0.72963 0.31943 0.0
H1049 H 0.11932 0.74325 0.36558 0.0
C1050 C 0.30642 0.38302 0.23143 0.0
C1051 C 0.30686 0.39944 0.24029 0.0
C1052 C 0.29891 0.3694 0.26079 0.0
C1053 C 0.28573 0.36309 0.37895 0.0
H1054 H 0.26494 0.31267 0.33948 0.0
C1055 C 0.25078 0.30433 0.4961 0.0
C1056 C 0.2531 0.28945 0.48713 0.0
C1057 C 0.25738 0.31852 0.46792 0.0
C1058 C 0.27085 0.32671 0.35139 0.0
H1059 H 0.29897 0.41399 0.28585 0.0
H1060 H 0.28526 0.39031 0.33502 0.0
H1061 H 0.27556 0.33479 0.28549 0.0
H1062 H 0.26541 0.2786 0.44374 0.0
H1063 H 0.27681 0.30284 0.3963 0.0
H1064 H 0.28081 0.3548 0.44499 0.0
C1065 C 0.29118 0.38792 0.30666 0.0
C1066 C 0.27704 0.33951 0.32012 0.0
C1067 C 0.29879 0.40148 0.27777 0.0
C1068 C 0.26306 0.28968 0.4514 0.0
C1069 C 0.2695 0.30358 0.42363 0.0
C1070 C 0.27942 0.35024 0.41025 0.0
C1071 C 0.29155 0.37182 0.29962 0.0
C1072 C 0.28469 0.35798 0.33321 0.0
C1073 C 0.26632 0.31798 0.43031 0.0
C1074 C 0.27207 0.33184 0.39706 0.0
H1075 H 0.31288 0.38115 0.20352 0.0
H1076 H 0.29968 0.35735 0.25396 0.0
H1077 H 0.29182 0.37712 0.39106 0.0
H1078 H 0.24314 0.30458 0.52319 0.0
H1079 H 0.2548 0.32948 0.47446 0.0
C1080 C 0.96478 0.38073 0.8505 0.0
C1081 C 0.95043 0.38326 0.86121 0.0
C1082 C 0.98078 0.38832 0.87917 0.0
C1083 C 0.99733 0.40758 0.99856 0.0
H1084 H 0.0438 0.41824 0.96116 0.0
C1085 C 0.06333 0.44485 0.11709 0.0
C1086 C 0.0746 0.43736 0.1178 0.0
C1087 C 0.04859 0.43844 0.08492 0.0
C1088 C 0.03088 0.41525 0.97216 0.0
H1089 H 0.94201 0.39652 0.9089 0.0
H1090 H 0.96995 0.41071 0.95664 0.0
H1091 H 0.01817 0.40794 0.90564 0.0
H1092 H 0.07886 0.41688 0.08539 0.0
H1093 H 0.05379 0.40642 0.0278 0.0
H1094 H 0.01025 0.41539 0.0649 0.0
C1095 C 0.96887 0.40228 0.92754 0.0
C1096 C 0.01607 0.40924 0.94024 0.0
C1097 C 0.95288 0.39444 0.8995 0.0
C1098 C 0.07069 0.42322 0.08543 0.0
C1099 C 0.05629 0.41719 0.05238 0.0
C1100 C 0.01218 0.4139 0.03021 0.0
C1101 C 0.98288 0.39879 0.91906 0.0
C1102 C 0.99899 0.40534 0.9528 0.0
C1103 C 0.04495 0.42464 0.05181 0.0
C1104 C 0.02917 0.41784 0.01757 0.0
H1105 H 0.96315 0.37181 0.8218 0.0
H1106 H 0.99105 0.38513 0.87107 0.0
H1107 H 0.98446 0.40421 0.01045 0.0
H1108 H 0.06582 0.45562 0.14168 0.0
H1109 H 0.04016 0.44449 0.08557 0.0
C1110 C 0.63459 0.59783 0.85379 0.0
C1111 C 0.63641 0.58296 0.86316 0.0
C1112 C 0.62706 0.60475 0.884 0.0
C1113 C 0.61623 0.60289 1.00466 0.0
H1114 H 0.59373 0.63 0.96823 0.0
C1115 C 0.59342 0.63973 0.13359 0.0
C1116 C 0.57888 0.64204 0.11955 0.0
C1117 C 0.60043 0.63211 0.10355 0.0
C1118 C 0.59969 0.62222 0.97936 0.0
H1119 H 0.63085 0.56319 0.91042 0.0
H1120 H 0.617 0.57434 0.96097 0.0
H1121 H 0.60422 0.617 0.91278 0.0
H1122 H 0.55975 0.63701 0.06333 0.0
H1123 H 0.57124 0.62347 0.01279 0.0
H1124 H 0.61088 0.60742 0.07109 0.0
C1125 C 0.62191 0.58132 0.93164 0.0
C1126 C 0.60609 0.61497 0.94716 0.0
C1127 C 0.62954 0.5746 0.90192 0.0
C1128 C 0.57105 0.63566 0.07562 0.0
C1129 C 0.5779 0.62806 0.04603 0.0
C1130 C 0.60955 0.6099 0.03682 0.0
C1131 C 0.62107 0.59692 0.92428 0.0
C1132 C 0.61439 0.60502 0.95899 0.0
C1133 C 0.59306 0.62659 0.05874 0.0
C1134 C 0.60097 0.61957 0.0248 0.0
H1135 H 0.64012 0.60486 0.82485 0.0
H1136 H 0.62683 0.6168 0.87662 0.0
H1137 H 0.62296 0.59584 0.01603 0.0
H1138 H 0.59994 0.64463 0.16693 0.0
H1139 H 0.61208 0.63125 0.11511 0.0
C1140 C 0.43275 0.07047 0.89802 0.0
C1141 C 0.43465 0.06718 0.85317 0.0
C1142 C 0.42574 0.05676 0.92642 0.0
C1143 C 0.40576 1.00574 0.93121 0.0
H1144 H 0.41063 0.0201 0.05678 0.0
C1145 C 0.38542 0.95251 0.06036 0.0
C1146 C 0.37959 0.95517 0.10132 0.0
C1147 C 0.39257 0.96608 0.03125 0.0
C1148 C 0.40878 0.01557 0.02193 0.0
H1149 H 0.42992 0.04614 0.80298 0.0
H1150 H 0.41835 0.02203 0.85269 0.0
H1151 H 0.42154 0.04247 1.00576 0.0
H1152 H 0.37718 0.97473 0.14364 0.0
H1153 H 0.38936 0.99842 0.09289 0.0
H1154 H 0.39311 0.97862 0.94866 0.0
C1155 C 0.42207 0.03538 0.86647 0.0
C1156 C 0.41517 0.02874 0.99149 0.0
C1157 C 0.42882 0.0493 0.83735 0.0
C1158 C 0.38177 0.97222 0.11287 0.0
C1159 C 0.38877 0.98585 0.08325 0.0
C1160 C 0.39942 0.99254 0.96185 0.0
C1161 C 0.42055 0.03882 0.91218 0.0
C1162 C 0.41375 0.02428 0.94506 0.0
C1163 C 0.39401 0.98295 0.04128 0.0
C1164 C 0.40076 0.99714 0.00803 0.0
H1165 H 0.43659 0.08391 0.91176 0.0
H1166 H 0.4244 0.06073 0.95968 0.0
H1167 H 0.40403 1.00109 0.89655 0.0
H1168 H 0.38403 0.9396 0.05001 0.0
H1169 H 0.39686 0.96309 1.00059 0.0
C1170 C 0.65281 0.06545 0.92601 0.0
C1171 C 0.64306 0.0643 0.88599 0.0
C1172 C 0.64547 0.05249 0.95649 0.0
C1173 C 0.60124 0.01243 0.98403 0.0
H1174 H 0.6332 0.00995 0.07465 0.0
C1175 C 0.57329 0.95646 0.10683 0.0
C1176 C 0.58325 0.95779 0.14668 0.0
C1177 C 0.58013 0.9698 0.07703 0.0
C1178 C 0.62384 0.01046 0.05037 0.0
H1179 H 0.61766 0.04796 0.84652 0.0
H1180 H 0.60493 0.0246 0.89844 0.0
H1181 H 0.64558 0.03037 0.01855 0.0
H1182 H 0.60836 0.97493 0.18669 0.0
H1183 H 0.62001 0.99886 0.13632 0.0
H1184 H 0.57949 0.99235 0.01586 0.0
C1185 C 0.61832 0.03591 0.90722 0.0
C1186 C 0.63108 0.02248 0.01734 0.0
C1187 C 0.62574 0.04919 0.87658 0.0
C1188 C 0.60008 0.97353 0.15687 0.0
C1189 C 0.60694 0.98713 0.12702 0.0
C1190 C 0.59399 1.00037 0.01706 0.0
C1191 C 0.62796 0.0374 0.9484 0.0
C1192 C 0.62 0.02387 0.98327 0.0
C1193 C 0.59728 0.98536 0.08571 0.0
C1194 C 0.6051 0.99901 0.0511 0.0
H1195 H 0.66618 0.07694 0.93472 0.0
H1196 H 0.65359 0.05496 0.98729 0.0
H1197 H 0.59188 0.01291 0.95966 0.0
H1198 H 0.56035 0.94448 0.0974 0.0
H1199 H 0.57205 0.96725 0.04609 0.0
C1200 C 0.06711 0.62788 0.15284 0.0
C1201 C 0.07688 0.64653 0.16383 0.0
C1202 C 0.05277 0.62018 0.11919 0.0
C1203 C 0.02928 0.63317 0.02861 0.0
H1204 H 0.99676 0.5818 0.01731 0.0
C1205 C 0.97016 0.6003 0.88764 0.0
C1206 C 0.95479 0.58395 0.89426 0.0
C1207 C 0.9858 0.60746 0.91747 0.0
C1208 C 1.0053 0.59626 0.01994 0.0
H1209 H 0.07895 0.67175 0.14856 0.0
H1210 H 0.05383 0.65872 0.09259 0.0
H1211 H 0.02011 0.59492 0.07642 0.0
H1212 H 0.94389 0.56217 0.93666 0.0
H1213 H 0.9702 0.5744 0.98843 0.0
H1214 H 0.01321 0.63458 0.97457 0.0
C1215 C 0.05725 0.64963 0.10787 0.0
C1216 C 0.01938 0.60394 0.05406 0.0
C1217 C 0.07174 0.65728 0.1409 0.0
C1218 C 0.95565 0.57465 0.93015 0.0
C1219 C 0.97102 0.58182 0.96013 0.0
C1220 C 0.01474 0.62555 0.99553 0.0
C1221 C 0.04742 0.63086 0.09574 0.0
C1222 C 0.03189 0.6226 0.0592 0.0
C1223 C 0.9864 0.59859 0.95521 0.0
C1224 C 1.00241 0.60687 0.99019 0.0
H1225 H 0.07071 0.61919 0.16987 0.0
H1226 H 0.04624 0.60581 0.11156 0.0
H1227 H 0.03843 0.64748 0.02944 0.0
H1228 H 0.96975 0.60805 0.861 0.0
H1229 H 0.99721 0.62016 0.91112 0.0
C1230 C 0.3971 0.44336 0.13757 0.0
C1231 C 0.37839 0.43489 0.1402 0.0
C1232 C 0.40449 0.43712 0.10543 0.0
C1233 C 0.39174 0.39814 0.01708 0.0
H1234 H 0.43984 0.43026 0.98508 0.0
C1235 C 0.42263 0.37645 0.87496 0.0
C1236 C 0.44104 0.38195 0.88158 0.0
C1237 C 0.41481 0.38361 0.90353 0.0
C1238 C 0.42642 0.42095 0.99364 0.0
H1239 H 0.3528 0.41295 0.11075 0.0
H1240 H 0.36525 0.40296 0.05309 0.0
H1241 H 0.42693 0.44091 0.03951 0.0
H1242 H 0.46559 0.39928 0.92336 0.0
H1243 H 0.45233 0.41201 0.97212 0.0
H1244 H 0.3913 0.37831 0.97018 0.0
C1245 C 0.37459 0.41403 0.07663 0.0
C1246 C 0.4189 0.42709 0.02557 0.0
C1247 C 0.36728 0.41995 0.10967 0.0
C1248 C 0.45149 0.39513 0.91656 0.0
C1249 C 0.44378 0.4024 0.94476 0.0
C1250 C 0.39921 0.39208 0.98472 0.0
C1251 C 0.39342 0.42239 0.07377 0.0
C1252 C 0.40141 0.41581 0.03846 0.0
C1253 C 0.4252 0.39652 0.93953 0.0
C1254 C 0.41676 0.40331 0.97257 0.0
H1255 H 0.40613 0.45479 0.16075 0.0
H1256 H 0.419 0.44388 0.10619 0.0
H1257 H 0.37845 0.38861 0.02579 0.0
H1258 H 0.41407 0.36587 0.84929 0.0
H1259 H 0.40053 0.37874 0.89779 0.0
C1260 C 0.04735 0.20893 0.50579 0.0
C1261 C 0.04896 0.22569 0.51714 0.0
C1262 C 0.06284 0.20746 0.50401 0.0
C1263 C 0.10907 0.22961 0.55486 0.0
H1264 H 0.11881 0.20506 0.4585 0.0
C1265 C 0.17935 0.24016 0.54067 0.0
C1266 C 0.18086 0.22479 0.53309 0.0
C1267 C 0.16254 0.23888 0.53598 0.0
C1268 C 0.11612 0.21176 0.48583 0.0
H1269 H 0.06754 0.25402 0.5354 0.0
H1270 H 0.09453 0.25149 0.53283 0.0
H1271 H 0.09029 0.20526 0.45485 0.0
H1272 H 0.16644 0.19616 0.51397 0.0
H1273 H 0.13673 0.19391 0.50442 0.0
H1274 H 0.13478 0.23625 0.58584 0.0
C1275 C 0.08146 0.23951 0.52483 0.0
C1276 C 0.09986 0.21187 0.48373 0.0
C1277 C 0.06608 0.241 0.52585 0.0
C1278 C 0.16546 0.20817 0.51942 0.0
C1279 C 0.14857 0.20692 0.51405 0.0
C1280 C 0.12522 0.22948 0.55698 0.0
C1281 C 0.08 0.22269 0.51473 0.0
C1282 C 0.0964 0.22115 0.51784 0.0
C1283 C 0.14694 0.22221 0.52337 0.0
C1284 C 0.12909 0.2209 0.52208 0.0
H1285 H 0.03419 0.19696 0.49955 0.0
H1286 H 0.06138 0.19434 0.49624 0.0
H1287 H 0.10654 0.23648 0.58212 0.0
H1288 H 0.19111 0.25305 0.5519 0.0
H1289 H 0.1617 0.25091 0.54293 0.0
C1290 C 0.81478 0.96945 0.45911 0.0
C1291 C 0.80474 0.97087 0.49249 0.0
C1292 C 0.81646 0.95408 0.45345 0.0
C1293 C 0.81106 0.91582 0.51512 0.0
H1294 H 0.8078 0.89233 0.39938 0.0
C1295 C 0.79147 0.84268 0.4971 0.0
C1296 C 0.80136 0.83735 0.47133 0.0
C1297 C 0.79352 0.85967 0.49523 0.0
C1298 C 0.80898 0.89891 0.43186 0.0
H1299 H 0.78781 0.95741 0.54441 0.0
H1300 H 0.7899 0.93039 0.53332 0.0
H1301 H 0.80851 0.92122 0.40471 0.0
H1302 H 0.82075 0.84515 0.42232 0.0
H1303 H 0.82462 0.8755 0.41925 0.0
H1304 H 0.811 0.89345 0.54237 0.0
C1305 C 0.79722 0.94126 0.51278 0.0
C1306 C 0.8094 0.91543 0.43496 0.0
C1307 C 0.79589 0.95665 0.51897 0.0
C1308 C 0.81289 0.84903 0.44213 0.0
C1309 C 0.81511 0.8663 0.44053 0.0
C1310 C 0.81055 0.8994 0.51202 0.0
C1311 C 0.80785 0.93992 0.48069 0.0
C1312 C 0.80983 0.92373 0.47665 0.0
C1313 C 0.80575 0.87188 0.46802 0.0
C1314 C 0.8089 0.89048 0.47039 0.0
H1315 H 0.82172 0.98039 0.43847 0.0
H1316 H 0.82478 0.95347 0.42856 0.0
H1317 H 0.81201 0.92213 0.54782 0.0
H1318 H 0.78237 0.83378 0.5196 0.0
H1319 H 0.78575 0.86339 0.51588 0.0
C1320 C 0.06663 0.84584 0.54757 0.0
C1321 C 0.05059 0.83792 0.51967 0.0
C1322 C 0.08091 0.86259 0.54031 0.0
C1323 C 0.09887 0.89593 0.45643 0.0
H1324 H 0.13087 0.92549 0.55927 0.0
C1325 C 0.16181 0.96951 0.46463 0.0
C1326 C 0.1774 0.97034 0.48415 0.0
C1327 C 0.14517 0.95354 0.4632 0.0
C1328 C 0.12198 0.91738 0.53031 0.0
H1329 H 0.03666 0.84109 0.46238 0.0
H1330 H 0.06143 0.87113 0.45081 0.0
H1331 H 0.10325 0.89801 0.56966 0.0
H1332 H 0.18823 0.95553 0.51678 0.0
H1333 H 0.15915 0.9278 0.51521 0.0
H1334 H 0.11776 0.916 0.41751 0.0
C1335 C 0.0632 0.86413 0.47757 0.0
C1336 C 0.10623 0.90153 0.5361 0.0
C1337 C 0.04899 0.84701 0.4842 0.0
C1338 C 0.17635 0.95501 0.50094 0.0
C1339 C 0.15977 0.93925 0.50031 0.0
C1340 C 0.11454 0.91211 0.45073 0.0
C1341 C 0.07935 0.87216 0.50572 0.0
C1342 C 0.09476 0.89022 0.49921 0.0
C1343 C 0.14402 0.93852 0.48234 0.0
C1344 C 0.12644 0.92261 0.48762 0.0
H1345 H 0.06829 0.83889 0.57466 0.0
H1346 H 0.09327 0.86787 0.56171 0.0
H1347 H 0.09044 0.88761 0.42721 0.0
H1348 H 0.16241 0.98134 0.45211 0.0
H1349 H 0.13311 0.95322 0.44942 0.0
C1350 C 0.21079 0.17491 0.60483 0.0
C1351 C 0.22086 0.18645 0.57341 0.0
C1352 C 0.209 0.15775 0.60534 0.0
C1353 C 0.20995 0.12424 0.52779 0.0
H1354 H 0.2181 0.10301 0.62982 0.0
C1355 C 0.22205 0.06544 0.50269 0.0
C1356 C 0.21606 0.05202 0.53225 0.0
C1357 C 0.22117 0.08097 0.51181 0.0
C1358 C 0.21547 0.1086 0.60108 0.0
H1359 H 0.23762 0.18977 0.51966 0.0
H1360 H 0.23495 0.16039 0.52128 0.0
H1361 H 0.21927 0.13206 0.6401 0.0
H1362 H 0.20461 0.04428 0.59485 0.0
H1363 H 0.20204 0.07124 0.60996 0.0
H1364 H 0.20595 0.10109 0.48857 0.0
C1365 C 0.22811 0.1642 0.54484 0.0
C1366 C 0.21619 0.12524 0.60704 0.0
C1367 C 0.22976 0.18108 0.54415 0.0
C1368 C 0.20921 0.05445 0.57146 0.0
C1369 C 0.20788 0.06992 0.58016 0.0
C1370 C 0.20902 0.10765 0.52191 0.0
C1371 C 0.21727 0.15211 0.57439 0.0
C1372 C 0.21404 0.13347 0.57017 0.0
C1373 C 0.21376 0.08334 0.5502 0.0
C1374 C 0.21241 0.09987 0.55817 0.0
H1375 H 0.2037 0.1788 0.62739 0.0
H1376 H 0.20056 0.14865 0.62843 0.0
H1377 H 0.20781 0.13006 0.49884 0.0
H1378 H 0.22786 0.06413 0.47278 0.0
H1379 H 0.22651 0.09123 0.48874 0.0
C1380 C 0.8604 0.0524 0.56452 0.0
C1381 C 0.84524 0.05157 0.54218 0.0
C1382 C 0.87682 0.06879 0.57091 0.0
C1383 C 0.90127 0.10988 0.51631 0.0
H1384 H 0.93053 0.13275 0.62751 0.0
C1385 C 0.95663 0.18316 0.52715 0.0
C1386 C 0.97293 0.18881 0.55248 0.0
C1387 C 0.94187 0.16615 0.53012 0.0
C1388 C 0.92266 0.12642 0.59608 0.0
H1389 H 0.83503 0.06691 0.50966 0.0
H1390 H 0.86359 0.09531 0.52005 0.0
H1391 H 0.90318 0.10309 0.62576 0.0
H1392 H 0.98678 0.18141 0.60124 0.0
H1393 H 0.96087 0.15108 0.60585 0.0
H1394 H 0.92054 0.13267 0.48608 0.0
C1395 C 0.86289 0.08349 0.53301 0.0
C1396 C 0.90699 0.10947 0.59516 0.0
C1397 C 0.84654 0.0673 0.5273 0.0
C1398 C 0.9742 0.17731 0.58177 0.0
C1399 C 0.95938 0.16 0.58432 0.0
C1400 C 0.91692 0.12657 0.51707 0.0
C1401 C 0.87829 0.08437 0.5541 0.0
C1402 C 0.8959 0.10131 0.5554 0.0
C1403 C 0.94312 0.15409 0.55773 0.0
C1404 C 0.92755 0.13538 0.55714 0.0
H1405 H 0.85967 0.04035 0.57593 0.0
H1406 H 0.88852 0.06912 0.58717 0.0
H1407 H 0.8932 0.10372 0.48499 0.0
H1408 H 0.95539 0.19188 0.50439 0.0
H1409 H 0.92947 0.16238 0.5102 0.0
C1410 C 0.96057 0.78859 0.57845 0.0
C1411 C 0.9751 0.80067 0.55612 0.0
C1412 C 0.94584 0.79114 0.58361 0.0
C1413 C 0.92348 0.81352 0.52831 0.0
H1414 H 0.89084 0.7941 0.62002 0.0
C1415 C 0.85485 0.81146 0.51845 0.0
C1416 C 0.84019 0.79482 0.52662 0.0
C1417 C 0.87259 0.81532 0.52953 0.0
C1418 C 0.89979 0.79958 0.59407 0.0
H1419 H 0.98614 0.82526 0.52353 0.0
H1420 H 0.96115 0.83046 0.53499 0.0
H1421 H 0.91985 0.79544 0.62734 0.0
H1422 H 0.83238 0.7695 0.5539 0.0
H1423 H 0.86305 0.77627 0.57428 0.0
H1424 H 0.90327 0.81736 0.49471 0.0
C1425 C 0.96071 0.81871 0.54754 0.0
C1426 C 0.91647 0.80031 0.59821 0.0
C1427 C 0.97526 0.81598 0.5418 0.0
C1428 C 0.84349 0.78253 0.54791 0.0
C1429 C 0.86111 0.78646 0.55958 0.0
C1430 C 0.90685 0.81288 0.52432 0.0
C1431 C 0.94538 0.8059 0.56665 0.0
C1432 C 0.92845 0.80695 0.56497 0.0
C1433 C 0.87594 0.80268 0.54949 0.0
C1434 C 0.89459 0.80554 0.55666 0.0
H1435 H 0.95987 0.77635 0.5884 0.0
H1436 H 0.9343 0.78081 0.59801 0.0
H1437 H 0.93206 0.81843 0.50146 0.0
H1438 H 0.85264 0.82099 0.50112 0.0
H1439 H 0.88367 0.82798 0.52143 0.0
C1440 C 0.83313 0.54499 0.81117 0.0
C1441 C 0.8483 0.55749 0.79114 0.0
C1442 C 0.81633 0.54364 0.8022 0.0
C1443 C 0.79664 0.57109 0.76787 0.0
H1444 H 0.75146 0.52582 0.75783 0.0
C1445 C 0.72833 0.56894 0.74287 0.0
C1446 C 0.71511 0.55782 0.76987 0.0
C1447 C 0.74388 0.56765 0.73908 0.0
C1448 C 0.76394 0.5386 0.7608 0.0
H1449 H 0.8577 0.57822 0.74552 0.0
H1450 H 0.82838 0.57608 0.73016 0.0
H1451 H 0.77992 0.52581 0.76311 0.0
H1452 H 0.70734 0.53606 0.81226 0.0
H1453 H 0.73416 0.53362 0.8052 0.0
H1454 H 0.78076 0.58392 0.76672 0.0
C1455 C 0.82945 0.56722 0.75265 0.0
C1456 C 0.78028 0.53859 0.76382 0.0
C1457 C 0.84621 0.56832 0.76104 0.0
C1458 C 0.71731 0.54482 0.79118 0.0
C1459 C 0.73269 0.54337 0.78696 0.0
C1460 C 0.78033 0.57111 0.76495 0.0
C1461 C 0.81434 0.55503 0.7736 0.0
C1462 C 0.79687 0.55485 0.7677 0.0
C1463 C 0.74643 0.55508 0.76178 0.0
C1464 C 0.76374 0.55488 0.7617 0.0
H1465 H 0.83434 0.53645 0.83454 0.0
H1466 H 0.80508 0.53419 0.81916 0.0
H1467 H 0.80911 0.58389 0.77171 0.0
H1468 H 0.7271 0.57921 0.72647 0.0
H1469 H 0.75407 0.57675 0.71899 0.0
C1470 C 0.4595 0.28987 0.80911 0.0
C1471 C 0.46878 0.30424 0.78321 0.0
C1472 C 0.45967 0.27382 0.80141 0.0
C1473 C 0.47125 0.24721 0.72091 0.0
H1474 H 0.46846 0.22197 0.82515 0.0
C1475 C 0.47551 0.18051 0.72554 0.0
C1476 C 0.46324 0.16783 0.75195 0.0
C1477 C 0.47699 0.19758 0.7242 0.0
C1478 C 0.46913 0.22874 0.79554 0.0
H1479 H 0.48545 0.3131 0.72848 0.0
H1480 H 0.48652 0.28515 0.71594 0.0
H1481 H 0.47012 0.25088 0.83318 0.0
H1482 H 0.44259 0.16275 0.79631 0.0
H1483 H 0.44483 0.19193 0.79335 0.0
H1484 H 0.47063 0.22483 0.68367 0.0
C1485 C 0.47866 0.2861 0.74163 0.0
C1486 C 0.46998 0.24539 0.80008 0.0
C1487 C 0.47813 0.30216 0.74883 0.0
C1488 C 0.45206 0.17219 0.77535 0.0
C1489 C 0.4535 0.18904 0.77406 0.0
C1490 C 0.4706 0.23049 0.71643 0.0
C1491 C 0.4696 0.27173 0.76828 0.0
C1492 C 0.47048 0.2547 0.7628 0.0
C1493 C 0.46634 0.2022 0.74965 0.0
C1494 C 0.469 0.22082 0.75363 0.0
H1495 H 0.45199 0.29105 0.83548 0.0
H1496 H 0.45194 0.263 0.8217 0.0
H1497 H 0.47171 0.25391 0.69133 0.0
H1498 H 0.48453 0.1776 0.70788 0.0
H1499 H 0.48703 0.20742 0.7051 0.0
C1500 C 0.72884 0.17402 0.81356 0.0
C1501 C 0.71337 0.16538 0.78341 0.0
C1502 C 0.74334 0.1907 0.80647 0.0
C1503 C 0.76527 0.22375 0.72384 0.0
H1504 H 0.78929 0.25503 0.83175 0.0
C1505 C 0.83039 0.29628 0.73221 0.0
C1506 C 0.84312 0.29997 0.76819 0.0
C1507 C 0.81338 0.28037 0.72878 0.0
C1508 C 0.78286 0.24648 0.80119 0.0
H1509 H 0.70122 0.16732 0.72113 0.0
H1510 H 0.72676 0.19713 0.70884 0.0
H1511 H 0.76172 0.22675 0.83514 0.0
H1512 H 0.84848 0.28959 0.82709 0.0
H1513 H 0.81954 0.262 0.82048 0.0
H1514 H 0.78678 0.24385 0.69016 0.0
C1515 C 0.72762 0.19072 0.73794 0.0
C1516 C 0.76698 0.23015 0.80313 0.0
C1517 C 0.713 0.17366 0.74486 0.0
C1518 C 0.83886 0.28722 0.7993 0.0
C1519 C 0.82217 0.27143 0.79567 0.0
C1520 C 0.78128 0.2403 0.72186 0.0
C1521 C 0.74285 0.19962 0.7693 0.0
C1522 C 0.75827 0.21817 0.76486 0.0
C1523 C 0.80894 0.26793 0.76115 0.0
C1524 C 0.79063 0.25157 0.76088 0.0
H1525 H 0.72971 0.16787 0.84323 0.0
H1526 H 0.75499 0.19667 0.83061 0.0
H1527 H 0.75888 0.21499 0.6936 0.0
H1528 H 0.83329 0.30595 0.70792 0.0
H1529 H 0.80352 0.27812 0.70176 0.0
C1530 C 0.87496 0.50457 0.86457 0.0
C1531 C 0.88892 0.51855 0.84455 0.0
C1532 C 0.87379 0.48768 0.86476 0.0
C1533 C 0.88655 0.45934 0.7986 0.0
H1534 H 0.87712 0.43124 0.90005 0.0
C1535 C 0.89532 0.39754 0.79427 0.0
C1536 C 0.88297 0.38229 0.81398 0.0
C1537 C 0.89529 0.41371 0.80042 0.0
C1538 C 0.87951 0.43879 0.87122 0.0
H1539 H 0.91258 0.52607 0.80928 0.0
H1540 H 0.91058 0.49677 0.80944 0.0
H1541 H 0.8785 0.46041 0.90733 0.0
H1542 H 0.86106 0.37187 0.85615 0.0
H1543 H 0.86081 0.4003 0.86696 0.0
H1544 H 0.88739 0.43788 0.76218 0.0
C1545 C 0.9006 0.49873 0.8253 0.0
C1546 C 0.88034 0.45553 0.87547 0.0
C1547 C 0.9019 0.51557 0.82572 0.0
C1548 C 0.87073 0.38353 0.84077 0.0
C1549 C 0.87067 0.39981 0.84698 0.0
C1550 C 0.8856 0.44264 0.79427 0.0
C1551 C 0.88632 0.48445 0.84394 0.0
C1552 C 0.88423 0.46615 0.8394 0.0
C1553 C 0.88279 0.41505 0.82629 0.0
C1554 C 0.88245 0.43227 0.83071 0.0
H1555 H 0.86461 0.50649 0.87845 0.0
H1556 H 0.86261 0.47693 0.87923 0.0
H1557 H 0.88912 0.46696 0.76983 0.0
H1558 H 0.90492 0.39687 0.77352 0.0
H1559 H 0.9051 0.42519 0.78477 0.0
C1560 C 0.51206 0.40191 0.83945 0.0
C1561 C 0.51142 0.38552 0.82845 0.0
C1562 C 0.52834 0.41819 0.84106 0.0
C1563 C 0.57779 0.43891 0.85084 0.0
H1564 H 0.57615 0.47619 0.7876 0.0
C1565 C 0.64148 0.50462 0.81064 0.0
C1566 C 0.64071 0.52052 0.81564 0.0
C1567 C 0.62628 0.48799 0.81598 0.0
C1568 C 0.57681 0.46602 0.8059 0.0
H1569 H 0.5272 0.37317 0.81185 0.0
H1570 H 0.55595 0.40169 0.81651 0.0
H1571 H 0.54864 0.44745 0.7908 0.0
H1572 H 0.6236 0.53166 0.82992 0.0
H1573 H 0.59703 0.50268 0.83856 0.0
H1574 H 0.60606 0.45757 0.86579 0.0
C1575 C 0.54384 0.40193 0.8235 0.0
C1576 C 0.56104 0.44954 0.80771 0.0
C1577 C 0.52745 0.38564 0.82091 0.0
C1578 C 0.62463 0.5196 0.8267 0.0
C1579 C 0.60936 0.50299 0.8311 0.0
C1580 C 0.59361 0.45545 0.8491 0.0
C1581 C 0.54437 0.41842 0.83242 0.0
C1582 C 0.56131 0.43584 0.83046 0.0
C1583 C 0.60992 0.48696 0.82521 0.0
C1584 C 0.59327 0.46924 0.82687 0.0
H1585 H 0.49983 0.40222 0.84456 0.0
H1586 H 0.52832 0.43064 0.8483 0.0
H1587 H 0.5784 0.42863 0.86878 0.0
H1588 H 0.65371 0.50504 0.80164 0.0
H1589 H 0.62712 0.47588 0.81104 0.0
C1590 C 0.63353 0.13735 0.80367 0.0
C1591 C 0.63497 0.12589 0.83288 0.0
C1592 C 0.61933 0.14092 0.80516 0.0
C1593 C 0.57305 0.11814 0.8375 0.0
H1594 H 0.57322 0.16202 0.81325 0.0
C1595 C 0.50818 0.12009 0.84221 0.0
C1596 C 0.50378 0.12752 0.80708 0.0
C1597 C 0.52572 0.12334 0.85027 0.0
C1598 C 0.57298 0.14966 0.8199 0.0
H1599 H 0.62363 0.10994 0.88766 0.0
H1600 H 0.5994 0.11682 0.89198 0.0
H1601 H 0.60167 0.16175 0.81886 0.0
H1602 H 0.51401 0.14451 0.75333 0.0
H1603 H 0.54481 0.15 0.76672 0.0
H1604 H 0.54457 0.10583 0.83744 0.0
C1605 C 0.60887 0.12277 0.86726 0.0
C1606 C 0.58925 0.14951 0.82313 0.0
C1607 C 0.62286 0.11902 0.86534 0.0
C1608 C 0.51731 0.13899 0.78128 0.0
C1609 C 0.53489 0.14206 0.78891 0.0
C1610 C 0.55692 0.11828 0.83425 0.0
C1611 C 0.60643 0.13306 0.83591 0.0
C1612 C 0.58946 0.13377 0.83254 0.0
C1613 C 0.53911 0.13369 0.82249 0.0
C1614 C 0.55664 0.13406 0.82596 0.0
H1615 H 0.64253 0.14239 0.77762 0.0
H1616 H 0.61778 0.14879 0.78034 0.0
H1617 H 0.57258 0.10559 0.84312 0.0
H1618 H 0.49783 0.11101 0.86206 0.0
H1619 H 0.52858 0.11703 0.87707 0.0
C1620 C 0.51383 0.9053 0.16347 0.0
C1621 C 0.51623 0.89418 0.19197 0.0
C1622 C 0.4966 0.90292 0.15307 0.0
C1623 C 0.45104 0.88185 0.19729 0.0
H1624 H 0.43814 0.89762 0.09107 0.0
C1625 C 0.38224 0.87801 0.17462 0.0
C1626 C 0.38201 0.89273 0.15742 0.0
C1627 C 0.39713 0.87561 0.17118 0.0
C1628 C 0.44151 0.89323 0.12111 0.0
H1629 H 0.50258 0.87161 0.23104 0.0
H1630 H 0.47247 0.86646 0.21051 0.0
H1631 H 0.46665 0.898 0.09892 0.0
H1632 H 0.39712 0.91645 0.12292 0.0
H1633 H 0.42318 0.91247 0.11698 0.0
H1634 H 0.42608 0.87728 0.21976 0.0
C1635 C 0.48378 0.87746 0.19709 0.0
C1636 C 0.458 0.89349 0.12572 0.0
C1637 C 0.50103 0.88012 0.20818 0.0
C1638 C 0.39665 0.90459 0.13494 0.0
C1639 C 0.41168 0.90234 0.13194 0.0
C1640 C 0.43457 0.88152 0.19259 0.0
C1641 C 0.48129 0.88923 0.17066 0.0
C1642 C 0.46316 0.88795 0.1641 0.0
C1643 C 0.41244 0.88816 0.15144 0.0
C1644 C 0.42956 0.88735 0.15461 0.0
H1645 H 0.52542 0.91664 0.15177 0.0
H1646 H 0.49552 0.9125 0.13326 0.0
H1647 H 0.45447 0.87788 0.22794 0.0
H1648 H 0.37136 0.86898 0.19328 0.0
H1649 H 0.3969 0.86429 0.18579 0.0
C1650 C 0.128 0.62326 0.20282 0.0
C1651 C 0.13559 0.63753 0.17569 0.0
C1652 C 0.12941 0.60795 0.19462 0.0
C1653 C 0.13995 0.58203 0.11101 0.0
H1654 H 0.14347 0.55967 0.21601 0.0
C1655 C 0.14451 0.51545 0.11258 0.0
C1656 C 0.13356 0.50361 0.1425 0.0
C1657 C 0.14644 0.53271 0.11166 0.0
C1658 C 0.14246 0.56569 0.18625 0.0
H1659 H 0.1503 0.64676 0.11782 0.0
H1660 H 0.15345 0.61998 0.1041 0.0
H1661 H 0.14433 0.58823 0.22409 0.0
H1662 H 0.11515 0.49994 0.19247 0.0
H1663 H 0.11815 0.52942 0.19023 0.0
H1664 H 0.13816 0.55915 0.07343 0.0
C1665 C 0.14609 0.6206 0.13144 0.0
C1666 C 0.14286 0.5821 0.19085 0.0
C1667 C 0.14435 0.63595 0.13927 0.0
C1668 C 0.12391 0.50889 0.16952 0.0
C1669 C 0.12571 0.52585 0.16844 0.0
C1670 C 0.13971 0.56554 0.10639 0.0
C1671 C 0.13884 0.60649 0.15953 0.0
C1672 C 0.14092 0.59023 0.15342 0.0
C1673 C 0.13739 0.53823 0.14059 0.0
C1674 C 0.14032 0.55689 0.14406 0.0
H1675 H 0.1208 0.62388 0.23057 0.0
H1676 H 0.123 0.5972 0.21603 0.0
H1677 H 0.13854 0.5879 0.08139 0.0
H1678 H 0.15214 0.5117 0.09154 0.0
H1679 H 0.1555 0.54195 0.08973 0.0
C1680 C 0.50944 0.62597 0.14361 0.0
C1681 C 0.5121 0.63962 0.17584 0.0
C1682 C 0.49246 0.61027 0.13506 0.0
C1683 C 0.45183 0.58382 0.19444 0.0
H1684 H 0.43197 0.55414 0.08288 0.0
C1685 C 0.38471 0.51729 0.18703 0.0
C1686 C 0.38234 0.50248 0.15953 0.0
C1687 C 0.3991 0.53458 0.18334 0.0
C1688 C 0.43737 0.56214 0.11447 0.0
H1689 H 0.49904 0.64802 0.22274 0.0
H1690 H 0.46933 0.62135 0.20624 0.0
H1691 H 0.45948 0.58342 0.08535 0.0
H1692 H 0.39305 0.49427 0.1058 0.0
H1693 H 0.4187 0.52436 0.10028 0.0
H1694 H 0.43041 0.56259 0.22419 0.0
C1695 C 0.48031 0.62236 0.18823 0.0
C1696 C 0.45318 0.57903 0.11582 0.0
C1697 C 0.49727 0.63784 0.19715 0.0
C1698 C 0.3944 0.50547 0.12708 0.0
C1699 C 0.40914 0.52279 0.124 0.0
C1700 C 0.43621 0.56698 0.19319 0.0
C1701 C 0.47781 0.60796 0.1586 0.0
C1702 C 0.46062 0.59016 0.15586 0.0
C1703 C 0.41197 0.53759 0.15286 0.0
C1704 C 0.42861 0.55581 0.15322 0.0
H1705 H 0.52079 0.62675 0.12774 0.0
H1706 H 0.49117 0.59949 0.11228 0.0
H1707 H 0.45731 0.59165 0.22623 0.0
H1708 H 0.37557 0.51544 0.21221 0.0
H1709 H 0.40026 0.54554 0.20518 0.0
C1710 C 0.56391 0.7329 0.2634 0.0
C1711 C 0.55132 0.71865 0.23295 0.0
C1712 C 0.5633 0.74896 0.26974 0.0
C1713 C 0.54435 0.77411 0.21066 0.0
H1714 H 0.56173 0.80608 0.3189 0.0
C1715 C 0.54 0.83877 0.2181 0.0
C1716 C 0.55379 0.85447 0.24222 0.0
C1717 C 0.53859 0.82201 0.22258 0.0
C1718 C 0.55695 0.79743 0.28818 0.0
H1719 H 0.52757 0.70976 0.18754 0.0
H1720 H 0.52587 0.73692 0.20013 0.0
H1721 H 0.56124 0.77742 0.31703 0.0
H1722 H 0.57677 0.8647 0.29093 0.0
H1723 H 0.57473 0.8355 0.29797 0.0
H1724 H 0.5404 0.79399 0.18126 0.0
C1725 C 0.53675 0.73627 0.21792 0.0
C1726 C 0.55666 0.78087 0.28712 0.0
C1727 C 0.53755 0.72046 0.21111 0.0
C1728 C 0.5658 0.85283 0.27235 0.0
C1729 C 0.56462 0.836 0.27625 0.0
C1730 C 0.54467 0.79056 0.21167 0.0
C1731 C 0.54997 0.75111 0.24607 0.0
C1732 C 0.55026 0.76885 0.24832 0.0
C1733 C 0.55124 0.82033 0.25047 0.0
C1734 C 0.55088 0.80256 0.25044 0.0
H1735 H 0.57486 0.73207 0.28032 0.0
H1736 H 0.57381 0.75996 0.2916 0.0
H1737 H 0.53983 0.76572 0.17956 0.0
H1738 H 0.53048 0.83952 0.19467 0.0
H1739 H 0.52766 0.81039 0.20325 0.0
C1740 C 0.2959 0.8528 0.23671 0.0
C1741 C 0.30697 0.85412 0.20287 0.0
C1742 C 0.28126 0.83601 0.24469 0.0
C1743 C 0.25353 0.78799 0.19067 0.0
H1744 H 0.22997 0.78008 0.29958 0.0
C1745 C 0.19217 0.71901 0.21032 0.0
C1746 C 0.17722 0.71906 0.22668 0.0
C1747 C 0.20925 0.73456 0.21561 0.0
C1748 C 0.23638 0.78204 0.26889 0.0
H1749 H 0.31198 0.83868 0.15276 0.0
H1750 H 0.28789 0.80968 0.16867 0.0
H1751 H 0.25731 0.80853 0.29309 0.0
H1752 H 0.16853 0.73539 0.26241 0.0
H1753 H 0.19832 0.76262 0.27182 0.0
H1754 H 0.23275 0.76142 0.16683 0.0
C1755 C 0.28944 0.82143 0.18768 0.0
C1756 C 0.25213 0.79855 0.26489 0.0
C1757 C 0.30364 0.83819 0.17889 0.0
C1758 C 0.17993 0.73476 0.25077 0.0
C1759 C 0.19703 0.75044 0.25576 0.0
C1760 C 0.23806 0.77146 0.19502 0.0
C1761 C 0.2775 0.81995 0.21973 0.0
C1762 C 0.261 0.80196 0.22547 0.0
C1763 C 0.2118 0.75079 0.23654 0.0
C1764 C 0.2291 0.7682 0.23399 0.0
H1765 H 0.29798 0.86484 0.25552 0.0
H1766 H 0.27258 0.83589 0.2694 0.0
H1767 H 0.25917 0.78978 0.15902 0.0
H1768 H 0.19041 0.70725 0.1907 0.0
H1769 H 0.22029 0.73408 0.2012 0.0
C1770 C 0.30738 0.47778 0.18435 0.0
C1771 C 0.30783 0.46293 0.2 0.0
C1772 C 0.29278 0.48042 0.19071 0.0
C1773 C 0.24936 0.46287 0.2463 0.0
H1774 H 0.23571 0.48077 0.14547 0.0
C1775 C 0.17711 0.45259 0.21224 0.0
C1776 C 0.1748 0.46462 0.18688 0.0
C1777 C 0.1943 0.4546 0.22106 0.0
C1778 C 0.23934 0.47606 0.17452 0.0
H1779 H 0.29329 0.43917 0.23478 0.0
H1780 H 0.26764 0.44348 0.24554 0.0
H1781 H 0.26366 0.48045 0.14835 0.0
H1782 H 0.18871 0.48845 0.15201 0.0
H1783 H 0.21869 0.49278 0.1697 0.0
H1784 H 0.22471 0.45814 0.27188 0.0
C1785 C 0.27882 0.45357 0.22958 0.0
C1786 C 0.25559 0.47587 0.17619 0.0
C1787 C 0.29363 0.45111 0.22377 0.0
C1788 C 0.19013 0.47921 0.17256 0.0
C1789 C 0.20732 0.48142 0.18194 0.0
C1790 C 0.23305 0.46306 0.24462 0.0
C1791 C 0.27784 0.46794 0.21178 0.0
C1792 C 0.26089 0.46915 0.21191 0.0
C1793 C 0.20967 0.46875 0.2048 0.0
C1794 C 0.22766 0.46953 0.20849 0.0
H1795 H 0.31791 0.48685 0.16492 0.0
H1796 H 0.29294 0.49193 0.17743 0.0
H1797 H 0.25292 0.45781 0.27477 0.0
H1798 H 0.16546 0.44084 0.22234 0.0
H1799 H 0.19529 0.44437 0.23824 0.0
C1800 C 0.99562 0.22626 0.17639 0.0
C1801 C 0.01102 0.23622 0.20644 0.0
C1802 C 0.99702 0.22597 0.13074 0.0
C1803 C 0.02712 0.25075 0.04559 0.0
H1804 H 0.99682 0.20638 0.9709 0.0
C1805 C 0.03588 0.24596 0.85967 0.0
C1806 C 0.02022 0.23712 0.83002 0.0
C1807 C 0.03491 0.2446 0.90532 0.0
C1808 C 1.00526 0.21892 0.99119 0.0
H1809 H 0.04 0.25371 0.21206 0.0
H1810 H 0.04255 0.253 0.13198 0.0
H1811 H 0.99514 0.20684 0.051 0.0
H1812 H 0.99127 0.219 0.82558 0.0
H1813 H 0.98953 0.21709 0.9054 0.0
H1814 H 0.03715 0.26288 0.98592 0.0
C1815 C 0.02932 0.24557 0.14385 0.0
C1816 C 1.0043 0.2192 0.03718 0.0
C1817 C 0.02791 0.24586 0.18972 0.0
C1818 C 1.0036 0.22627 0.84734 0.0
C1819 C 1.00262 0.225 0.89317 0.0
C1820 C 0.02808 0.25047 0.99967 0.0
C1821 C 0.01387 0.23555 0.1138 0.0
C1822 C 0.0152 0.23513 0.06496 0.0
C1823 C 0.01824 0.23449 0.92282 0.0
C1824 C 0.01719 0.23456 0.97182 0.0
H1825 H 0.98243 0.21845 0.18818 0.0
H1826 H 0.98481 0.21834 0.1087 0.0
H1827 H 0.03545 0.26334 0.06579 0.0
H1828 H 0.0489 0.25458 0.84795 0.0
H1829 H 0.04726 0.25176 0.92702 0.0
C1830 C 0.81263 0.80478 0.17067 0.0
C1831 C 0.79653 0.79562 0.19124 0.0
C1832 C 0.81228 0.80446 0.1244 0.0
C1833 C 0.78369 0.77605 0.0253 0.0
H1834 H 0.81471 0.81676 0.96179 0.0
C1835 C 0.77595 0.77396 0.83468 0.0
C1836 C 0.79156 0.78349 0.81257 0.0
C1837 C 0.77689 0.77533 0.88098 0.0
C1838 C 0.80614 0.80518 0.97906 0.0
H1839 H 0.7674 0.77952 0.17918 0.0
H1840 H 0.7668 0.77947 0.09898 0.0
H1841 H 0.81574 0.82049 0.04244 0.0
H1842 H 0.82052 0.80153 0.82205 0.0
H1843 H 0.82226 0.80319 0.90262 0.0
H1844 H 0.77422 0.76064 0.9623 0.0
C1845 C 0.77971 0.78662 0.11852 0.0
C1846 C 0.80669 0.80736 0.02526 0.0
C1847 C 0.78006 0.7869 0.16461 0.0
C1848 C 0.80824 0.79382 0.83789 0.0
C1849 C 0.8092 0.79505 0.88418 0.0
C1850 C 0.78321 0.77384 0.97922 0.0
C1851 C 0.79582 0.79495 0.09785 0.0
C1852 C 0.79539 0.79284 0.04883 0.0
C1853 C 0.7935 0.78611 0.90629 0.0
C1854 C 0.79437 0.78838 0.95548 0.0
H1855 H 0.82553 0.81178 0.19028 0.0
H1856 H 0.82493 0.81101 0.10943 0.0
H1857 H 0.77508 0.76448 0.04259 0.0
H1858 H 0.76292 0.7657 0.81622 0.0
H1859 H 0.76449 0.76836 0.89683 0.0
C1860 C 0.20752 0.99788 0.15448 0.0
C1861 C 0.22384 1.00433 0.18085 0.0
C1862 C 0.20731 0.99816 0.10844 0.0
C1863 C 0.23707 0.02249 0.02312 0.0
H1864 H 0.19874 0.98518 0.94172 0.0
C1865 C 0.24035 0.02014 0.83379 0.0
C1866 C 0.22431 0.01321 0.80593 0.0
C1867 C 0.23998 0.02006 0.87976 0.0
C1868 C 0.20939 0.99587 0.96404 0.0
H1869 H 0.25258 0.01493 0.17935 0.0
H1870 H 0.25221 0.01533 0.09885 0.0
H1871 H 0.1989 0.98149 0.02086 0.0
H1872 H 0.19537 1.00177 0.8048 0.0
H1873 H 0.19474 1.00181 0.88533 0.0
H1874 H 0.24756 0.03689 0.96642 0.0
C1875 C 0.23962 0.01046 0.11391 0.0
C1876 C 0.20952 0.9937 0.0094 0.0
C1877 C 0.23983 0.01017 0.15998 0.0
C1878 C 0.20794 1.00694 0.82531 0.0
C1879 C 0.20758 1.00692 0.87143 0.0
C1880 C 0.23691 0.02468 0.97779 0.0
C1881 C 0.22342 1.00488 0.08775 0.0
C1882 C 0.22342 1.00694 0.03942 0.0
C1883 C 0.22356 0.0131 0.89911 0.0
C1884 C 0.22312 0.01135 0.94765 0.0
H1885 H 0.195 0.99352 0.1695 0.0
H1886 H 0.19463 0.9939 0.08932 0.0
H1887 H 0.24775 0.03313 0.04547 0.0
H1888 H 0.25317 0.02481 0.82004 0.0
H1889 H 0.25253 0.02471 0.89993 0.0
C1890 C 0.01819 0.77724 0.88835 0.0
C1891 C 0.011 0.78524 0.86085 0.0
C1892 C 0.0177 0.77868 0.93425 0.0
C1893 C 0.99574 0.78845 0.02379 0.0
H1894 H 0.0409 0.80325 0.09309 0.0
C1895 C 1.00289 0.80243 0.21417 0.0
C1896 C 0.01248 0.7958 0.23795 0.0
C1897 C 1.00351 0.80315 0.16822 0.0
C1898 C 0.02812 0.79894 0.07437 0.0
H1899 H 0.99681 0.80021 0.86006 0.0
H1900 H 0.99556 0.80229 0.94026 0.0
H1901 H 0.03902 0.79866 0.01268 0.0
H1902 H 0.03036 0.78493 0.23245 0.0
H1903 H 0.03117 0.78582 0.15293 0.0
H1904 H 0.98464 0.78819 0.08544 0.0
C1905 C 1.00168 0.79503 0.92613 0.0
C1906 C 0.02706 0.79631 0.02826 0.0
C1907 C 1.00232 0.79375 0.88016 0.0
C1908 C 0.02309 0.79042 0.2152 0.0
C1909 C 0.02356 0.79096 0.16943 0.0
C1910 C 0.99673 0.79088 0.07003 0.0
C1911 C 0.00981 0.78794 0.95366 0.0
C1912 C 0.01083 0.79089 1.00255 0.0
C1913 C 0.01356 0.79705 0.14519 0.0
C1914 C 0.01289 0.79597 0.09593 0.0
H1915 H 0.0246 0.77022 0.8745 0.0
H1916 H 0.02372 0.77274 0.95465 0.0
H1917 H 0.98304 0.7842 1.00473 0.0
H1918 H 0.99473 0.8068 0.231 0.0
H1919 H 0.99593 0.80825 0.15072 0.0
C1920 C 0.21207 0.22855 0.20221 0.0
C1921 C 0.22841 0.23852 0.22907 0.0
C1922 C 0.21175 0.22834 0.15601 0.0
C1923 C 0.23978 0.25152 0.06461 0.0
H1924 H 0.20662 0.20667 0.99481 0.0
C1925 C 0.24544 0.2426 0.8788 0.0
C1926 C 0.22942 0.23531 0.85057 0.0
C1927 C 0.24494 0.24153 0.92455 0.0
C1928 C 0.21588 0.21931 0.01385 0.0
H1929 H 0.2571 0.25695 0.2282 0.0
H1930 H 0.25672 0.25582 0.14804 0.0
H1931 H 0.20645 0.20861 0.07539 0.0
H1932 H 0.20025 0.22013 0.84855 0.0
H1933 H 0.19941 0.2186 0.92888 0.0
H1934 H 0.24942 0.26211 1.00323 0.0
C1935 C 0.24404 0.24837 0.16243 0.0
C1936 C 0.21574 0.22048 0.06008 0.0
C1937 C 0.2443 0.24883 0.2086 0.0
C1938 C 0.21285 0.22618 0.86931 0.0
C1939 C 0.21237 0.22512 0.9153 0.0
C1940 C 0.24005 0.25028 0.01858 0.0
C1941 C 0.22779 0.23789 0.13542 0.0
C1942 C 0.22769 0.23664 0.08611 0.0
C1943 C 0.22843 0.23324 0.94351 0.0
C1944 C 0.22813 0.23418 0.99261 0.0
H1945 H 0.19956 0.2203 0.21664 0.0
H1946 H 0.19892 0.22046 0.13647 0.0
H1947 H 0.24894 0.2643 0.0832 0.0
H1948 H 0.25847 0.24986 0.86588 0.0
H1949 H 0.25757 0.24759 0.94527 0.0
C1950 C 0.79716 0.02497 0.19376 0.0
C1951 C 0.80249 0.01401 0.21446 0.0
C1952 C 0.79577 0.02466 0.14781 0.0
C1953 C 0.79478 0.99885 0.04376 0.0
H1954 H 0.80499 0.04337 0.99454 0.0
C1955 C 0.80256 0.00833 0.85808 0.0
C1956 C 0.79497 0.01765 0.83823 0.0
C1957 C 0.80328 0.00761 0.9039 0.0
C1958 C 0.8019 0.03078 0.00771 0.0
H1959 H 0.8102 0.99379 0.20438 0.0
H1960 H 0.80903 0.99402 0.12337 0.0
H1961 H 0.80728 0.04257 0.07415 0.0
H1962 H 0.78202 0.03337 0.84931 0.0
H1963 H 0.78333 0.03228 0.93013 0.0
H1964 H 0.78999 0.98734 0.97668 0.0
C1965 C 0.8054 1.00255 0.14242 0.0
C1966 C 0.80313 0.03025 0.05356 0.0
C1967 C 0.80631 1.00253 0.18871 0.0
C1968 C 0.78812 0.02632 0.86444 0.0
C1969 C 0.78891 0.02568 0.91046 0.0
C1970 C 0.79379 0.99947 0.99778 0.0
C1971 C 0.80019 0.01372 0.12139 0.0
C1972 C 0.79943 0.01424 0.07232 0.0
C1973 C 0.79642 0.01622 0.9306 0.0
C1974 C 0.79727 0.01543 0.97931 0.0
H1975 H 0.79374 0.03359 0.21328 0.0
H1976 H 0.79103 0.03292 0.13318 0.0
H1977 H 0.79156 0.9862 0.05672 0.0
H1978 H 0.80767 1.00138 0.83797 0.0
H1979 H 0.80934 1.00042 0.91841 0.0
C1980 C 0.67059 0.55346 0.13349 0.0
C1981 C 0.6751 0.57005 0.11701 0.0
C1982 C 0.66903 0.55134 0.17885 0.0
C1983 C 0.66449 0.57278 0.28401 0.0
H1984 H 0.68224 0.54434 0.3398 0.0
C1985 C 0.67595 0.57669 0.47328 0.0
C1986 C 0.66976 0.56051 0.4934 0.0
C1987 C 0.67662 0.57697 0.42737 0.0
C1988 C 0.67707 0.55219 0.32464 0.0
H1989 H 0.6808 0.59721 0.13548 0.0
H1990 H 0.67876 0.59375 0.21434 0.0
H1991 H 0.68281 0.5465 0.25971 0.0
H1992 H 0.65996 0.53196 0.48086 0.0
H1993 H 0.66123 0.53246 0.40003 0.0
H1994 H 0.65909 0.57875 0.34889 0.0
C1995 C 0.67615 0.58223 0.1923 0.0
C1996 C 0.67734 0.5534 0.27864 0.0
C1997 C 0.67755 0.58431 0.14696 0.0
C1998 C 0.66468 0.54462 0.46635 0.0
C1999 C 0.66553 0.54494 0.42014 0.0
C2000 C 0.66437 0.57168 0.32986 0.0
C2001 C 0.67203 0.56577 0.20902 0.0
C2002 C 0.67116 0.56383 0.25773 0.0
C2003 C 0.67117 0.56109 0.40007 0.0
C2004 C 0.6708 0.56152 0.35087 0.0
H2005 H 0.6688 0.54223 0.11158 0.0
H2006 H 0.66555 0.53837 0.19024 0.0
H2007 H 0.65922 0.58059 0.26919 0.0
H2008 H 0.67978 0.58915 0.49295 0.0
H2009 H 0.6813 0.58969 0.41316 0.0
C2010 C 0.47199 0.1292 0.46052 0.0
C2011 C 0.45554 0.11925 0.47933 0.0
C2012 C 0.47243 0.1298 0.41438 0.0
C2013 C 0.44542 0.10342 0.31038 0.0
H2014 H 0.47767 0.14595 0.25419 0.0
C2015 C 0.44078 0.10606 0.1202 0.0
C2016 C 0.45675 0.11638 0.1 0.0
C2017 C 0.44097 0.10627 0.16642 0.0
C2018 C 0.46875 0.13385 0.26934 0.0
H2019 H 0.42661 0.10253 0.46371 0.0
H2020 H 0.42738 0.10406 0.38408 0.0
H2021 H 0.47745 0.14754 0.33475 0.0
H2022 H 0.48558 0.1346 0.11292 0.0
H2023 H 0.48602 0.13428 0.19311 0.0
H2024 H 0.43683 0.08965 0.2453 0.0
C2025 C 0.43999 0.11113 0.40487 0.0
C2026 C 0.4686 0.13481 0.3156 0.0
C2027 C 0.43954 0.11049 0.4508 0.0
C2028 C 0.47302 0.12632 0.12716 0.0
C2029 C 0.47324 0.1264 0.17334 0.0
C2030 C 0.44563 0.10244 0.26424 0.0
C2031 C 0.45645 0.12043 0.38593 0.0
C2032 C 0.45684 0.11961 0.3367 0.0
C2033 C 0.45717 0.11667 0.19367 0.0
C2034 C 0.45725 0.11765 0.24302 0.0
H2035 H 0.48457 0.13633 0.48139 0.0
H2036 H 0.48537 0.1371 0.40097 0.0
H2037 H 0.43645 0.09134 0.32549 0.0
H2038 H 0.42803 0.09806 0.10033 0.0
H2039 H 0.42829 0.09868 0.18074 0.0
C2040 C 0.91309 0.34505 0.14794 0.0
C2041 C 0.90432 0.3515 0.12023 0.0
C2042 C 0.91115 0.3448 0.19339 0.0
C2043 C 0.89775 0.36341 0.28645 0.0
H2044 H 0.88504 0.3181 0.33462 0.0
C2045 C 0.87956 0.35246 0.46671 0.0
C2046 C 0.88704 0.34389 0.4909 0.0
C2047 C 0.87975 0.35226 0.42052 0.0
C2048 C 0.88874 0.33091 0.3219 0.0
H2049 H 0.88752 0.36378 0.11935 0.0
H2050 H 0.88467 0.36386 0.19881 0.0
H2051 H 0.89128 0.32166 0.25717 0.0
H2052 H 0.90014 0.32795 0.48529 0.0
H2053 H 0.90072 0.3278 0.40544 0.0
H2054 H 0.89567 0.37287 0.35124 0.0
C2055 C 0.89289 0.35883 0.18517 0.0
C2056 C 0.89234 0.33294 0.27751 0.0
C2057 C 0.89464 0.35889 0.13961 0.0
C2058 C 0.89402 0.33449 0.4677 0.0
C2059 C 0.89435 0.3344 0.42171 0.0
C2060 C 0.89433 0.36145 0.33098 0.0
C2061 C 0.90064 0.35126 0.21222 0.0
C2062 C 0.897 0.34925 0.25944 0.0
C2063 C 0.8876 0.34363 0.3976 0.0
C2064 C 0.88989 0.34521 0.34938 0.0
H2065 H 0.92101 0.33965 0.13433 0.0
H2066 H 0.91761 0.33925 0.21368 0.0
H2067 H 0.9014 0.37616 0.27341 0.0
H2068 H 0.87384 0.3596 0.48356 0.0
H2069 H 0.87405 0.35915 0.4029 0.0
C2070 C 0.66707 0.12867 0.15776 0.0
C2071 C 0.67357 0.11873 0.13481 0.0
C2072 C 0.66616 0.12845 0.20372 0.0
C2073 C 0.66751 0.10319 0.29882 0.0
H2074 H 0.67963 0.1474 0.36896 0.0
C2075 C 0.6793 0.10917 0.48866 0.0
C2076 C 0.67165 0.11747 0.51373 0.0
C2077 C 0.67994 0.11029 0.44288 0.0
C2078 C 0.67606 0.13491 0.34984 0.0
H2079 H 0.68359 0.10025 0.14231 0.0
H2080 H 0.68267 0.10039 0.22231 0.0
H2081 H 0.67929 0.14688 0.28829 0.0
H2082 H 0.6594 0.1342 0.50993 0.0
H2083 H 0.66021 0.13585 0.42966 0.0
H2084 H 0.66448 0.09127 0.36022 0.0
C2085 C 0.67799 0.10817 0.20487 0.0
C2086 C 0.6758 0.13457 0.30349 0.0
C2087 C 0.67874 0.10826 0.1589 0.0
C2088 C 0.66517 0.12743 0.49172 0.0
C2089 C 0.66579 0.12853 0.44571 0.0
C2090 C 0.66788 0.10356 0.34503 0.0
C2091 C 0.67183 0.11839 0.22803 0.0
C2092 C 0.67161 0.11872 0.27734 0.0
C2093 C 0.67286 0.11965 0.4206 0.0
C2094 C 0.67227 0.11943 0.37123 0.0
H2095 H 0.66317 0.13707 0.14047 0.0
H2096 H 0.66105 0.13625 0.22016 0.0
H2097 H 0.66382 0.09062 0.27994 0.0
H2098 H 0.68426 0.10121 0.50408 0.0
H2099 H 0.6858 0.10358 0.42479 0.0
C2100 C 0.91516 0.58234 0.18152 0.0
C2101 C 0.90496 0.5672 0.15089 0.0
C2102 C 0.91388 0.58082 0.22702 0.0
C2103 C 0.89813 0.54805 0.3119 0.0
H2104 H 0.89307 0.58494 0.3776 0.0
C2105 C 0.88172 0.54166 0.49405 0.0
C2106 C 0.89104 0.55748 0.52287 0.0
C2107 C 0.88181 0.54248 0.44806 0.0
C2108 C 0.89464 0.5746 0.35998 0.0
H2109 H 0.88606 0.53846 0.1442 0.0
H2110 H 0.88398 0.53579 0.22344 0.0
H2111 H 0.89841 0.58735 0.2996 0.0
H2112 H 0.90739 0.58656 0.52613 0.0
H2113 H 0.90794 0.588 0.44656 0.0
H2114 H 0.8947 0.53543 0.37228 0.0
C2115 C 0.89302 0.54882 0.21236 0.0
C2116 C 0.89775 0.57602 0.3152 0.0
C2117 C 0.89428 0.55034 0.16688 0.0
C2118 C 0.89984 0.57414 0.50479 0.0
C2119 C 0.90014 0.57496 0.45897 0.0
C2120 C 0.89516 0.54669 0.35678 0.0
C2121 C 0.90243 0.56412 0.24285 0.0
C2122 C 0.89958 0.56279 0.2907 0.0
C2123 C 0.89146 0.55912 0.42998 0.0
C2124 C 0.89346 0.56 0.3815 0.0
H2125 H 0.92374 0.59547 0.17025 0.0
H2126 H 0.92162 0.59279 0.24977 0.0
H2127 H 0.89962 0.5377 0.29401 0.0
H2128 H 0.87467 0.52864 0.50711 0.0
H2129 H 0.87458 0.53004 0.42675 0.0
C2130 C 0.46018 0.36346 0.16283 0.0
C2131 C 0.46143 0.35024 0.13694 0.0
C2132 C 0.46037 0.3631 0.20894 0.0
C2133 C 0.45443 0.33303 0.29831 0.0
H2134 H 0.4801 0.37816 0.3722 0.0
C2135 C 0.4642 0.33564 0.48999 0.0
C2136 C 0.46385 0.34977 0.51439 0.0
C2137 C 0.4645 0.33542 0.44375 0.0
C2138 C 0.47264 0.3654 0.3522 0.0
H2139 H 0.46417 0.32659 0.13759 0.0
H2140 H 0.46522 0.32628 0.21805 0.0
H2141 H 0.47879 0.37841 0.29222 0.0
H2142 H 0.46268 0.37419 0.51006 0.0
H2143 H 0.46233 0.37346 0.42994 0.0
H2144 H 0.44813 0.32002 0.35836 0.0
C2145 C 0.4635 0.33658 0.20325 0.0
C2146 C 0.4719 0.36558 0.30618 0.0
C2147 C 0.46304 0.33681 0.15731 0.0
C2148 C 0.46343 0.36341 0.49199 0.0
C2149 C 0.46332 0.363 0.446 0.0
C2150 C 0.45508 0.33286 0.34445 0.0
C2151 C 0.4621 0.34967 0.22967 0.0
C2152 C 0.46273 0.34941 0.27866 0.0
C2153 C 0.46403 0.34913 0.42118 0.0
C2154 C 0.46406 0.34907 0.37203 0.0
H2155 H 0.45884 0.37386 0.14739 0.0
H2156 H 0.45898 0.37322 0.22826 0.0
H2157 H 0.44709 0.32032 0.27807 0.0
H2158 H 0.4644 0.3249 0.50669 0.0
H2159 H 0.46522 0.32461 0.42585 0.0
C2160 C 0.35449 0.89499 0.49377 0.0
C2161 C 0.34695 0.90416 0.47238 0.0
C2162 C 0.35401 0.89363 0.53976 0.0
C2163 C 0.35115 0.91763 0.64057 0.0
H2164 H 0.33942 0.87423 0.69728 0.0
C2165 C 0.33837 0.91286 0.82502 0.0
C2166 C 0.3428 0.90209 0.8501 0.0
C2167 C 0.33978 0.91297 0.77932 0.0
C2168 C 0.34303 0.88657 0.68212 0.0
H2169 H 0.33281 0.91888 0.48276 0.0
H2170 H 0.33174 0.91629 0.56199 0.0
H2171 H 0.33971 0.87389 0.6166 0.0
H2172 H 0.35277 0.88336 0.84647 0.0
H2173 H 0.35616 0.8843 0.76717 0.0
H2174 H 0.3548 0.93049 0.70545 0.0
C2175 C 0.33817 0.91026 0.54351 0.0
C2176 C 0.34312 0.88633 0.63579 0.0
C2177 C 0.33858 0.91154 0.49785 0.0
C2178 C 0.34938 0.89196 0.82841 0.0
C2179 C 0.35102 0.89225 0.78265 0.0
C2180 C 0.35125 0.91794 0.68669 0.0
C2181 C 0.34616 0.90162 0.56523 0.0
C2182 C 0.34691 0.9018 0.61448 0.0
C2183 C 0.346 0.90257 0.75733 0.0
C2184 C 0.34693 0.90236 0.70819 0.0
H2185 H 0.36089 0.88899 0.47506 0.0
H2186 H 0.36027 0.88686 0.55555 0.0
H2187 H 0.35452 0.9299 0.6253 0.0
H2188 H 0.33355 0.92109 0.84058 0.0
H2189 H 0.33553 0.92093 0.76115 0.0
C2190 C 0.145 0.46639 0.83984 0.0
C2191 C 0.12849 0.45794 0.85893 0.0
C2192 C 0.14532 0.46686 0.7937 0.0
C2193 C 0.11736 0.44058 0.69267 0.0
H2194 H 0.14845 0.48203 0.63146 0.0
C2195 C 0.10813 0.43979 0.50357 0.0
C2196 C 0.12315 0.45019 0.48027 0.0
C2197 C 0.10974 0.44085 0.54979 0.0
C2198 C 0.1399 0.47023 0.64802 0.0
H2199 H 0.09941 0.44379 0.84458 0.0
H2200 H 0.10002 0.44484 0.76478 0.0
H2201 H 0.14969 0.48482 0.71242 0.0
H2202 H 0.15192 0.46919 0.48759 0.0
H2203 H 0.15496 0.47011 0.56815 0.0
H2204 H 0.10781 0.42579 0.6291 0.0
C2205 C 0.1127 0.45097 0.78529 0.0
C2206 C 0.14056 0.47189 0.69439 0.0
C2207 C 0.11238 0.45057 0.83112 0.0
C2208 C 0.14006 0.46089 0.50434 0.0
C2209 C 0.14175 0.46169 0.55068 0.0
C2210 C 0.11687 0.43885 0.64656 0.0
C2211 C 0.12912 0.45871 0.766 0.0
C2212 C 0.12911 0.45712 0.71706 0.0
C2213 C 0.12653 0.45198 0.57407 0.0
C2214 C 0.12795 0.45369 0.62349 0.0
H2215 H 0.15762 0.47234 0.86048 0.0
H2216 H 0.15818 0.47294 0.77963 0.0
H2217 H 0.10862 0.42887 0.70933 0.0
H2218 H 0.09495 0.43111 0.48617 0.0
H2219 H 0.09764 0.4333 0.56639 0.0
C2220 C 0.54696 0.66446 0.84878 0.0
C2221 C 0.56372 0.67318 0.87427 0.0
C2222 C 0.54606 0.66424 0.80253 0.0
C2223 C 0.57234 0.69091 0.71536 0.0
H2224 H 0.53875 0.64959 0.63509 0.0
C2225 C 0.57755 0.68912 0.52717 0.0
C2226 C 0.56188 0.67927 0.4979 0.0
C2227 C 0.57669 0.68899 0.57301 0.0
C2228 C 0.54798 0.66137 0.65704 0.0
H2229 H 0.59268 0.68723 0.87067 0.0
H2230 H 0.59107 0.68705 0.79007 0.0
H2231 H 0.53969 0.6469 0.71482 0.0
H2232 H 0.53282 0.66226 0.49434 0.0
H2233 H 0.53129 0.66216 0.57469 0.0
H2234 H 0.58055 0.70549 0.65801 0.0
C2235 C 0.57864 0.68068 0.80601 0.0
C2236 C 0.54859 0.65977 0.70274 0.0
C2237 C 0.57954 0.68077 0.85219 0.0
C2238 C 0.54519 0.66977 0.51587 0.0
C2239 C 0.54432 0.66969 0.56194 0.0
C2240 C 0.57164 0.69256 0.66979 0.0
C2241 C 0.56189 0.67284 0.78079 0.0
C2242 C 0.56097 0.67445 0.7323 0.0
C2243 C 0.56013 0.67905 0.59108 0.0
C2244 C 0.55965 0.67774 0.63992 0.0
H2245 H 0.53449 0.65865 0.86456 0.0
H2246 H 0.53296 0.65813 0.78401 0.0
H2247 H 0.58172 0.7026 0.73741 0.0
H2248 H 0.59068 0.69635 0.51472 0.0
H2249 H 0.58919 0.69612 0.59418 0.0
C2250 C 0.32312 0.44524 0.84785 0.0
C2251 C 0.33873 0.45519 0.87726 0.0
C2252 C 0.32388 0.44633 0.80206 0.0
C2253 C 0.35282 0.47252 0.71514 0.0
H2254 H 0.3249 0.42713 0.64268 0.0
C2255 C 0.36495 0.46407 0.53226 0.0
C2256 C 0.34998 0.45334 0.50149 0.0
C2257 C 0.36299 0.46477 0.57766 0.0
C2258 C 0.33259 0.43997 0.66226 0.0
H2259 H 0.36723 0.47509 0.88119 0.0
H2260 H 0.36868 0.47648 0.80136 0.0
H2261 H 0.32264 0.42816 0.72234 0.0
H2262 H 0.32115 0.43491 0.49448 0.0
H2263 H 0.31764 0.43629 0.57405 0.0
H2264 H 0.36297 0.48424 0.65498 0.0
C2265 C 0.35577 0.46791 0.81372 0.0
C2266 C 0.33129 0.44059 0.70808 0.0
C2267 C 0.35497 0.46694 0.85962 0.0
C2268 C 0.33293 0.44338 0.5173 0.0
C2269 C 0.33097 0.44405 0.56292 0.0
C2270 C 0.35415 0.47189 0.6693 0.0
C2271 C 0.3403 0.45726 0.78425 0.0
C2272 C 0.3414 0.45686 0.7352 0.0
C2273 C 0.346 0.45481 0.59367 0.0
C2274 C 0.34411 0.45558 0.64228 0.0
H2275 H 0.31038 0.43594 0.8599 0.0
H2276 H 0.3116 0.43827 0.78053 0.0
H2277 H 0.36064 0.48533 0.73477 0.0
H2278 H 0.37824 0.47211 0.52121 0.0
H2279 H 0.37491 0.47299 0.60028 0.0
C2280 C 0.58032 0.91942 0.87293 0.0
C2281 C 0.5652 0.90736 0.89373 0.0
C2282 C 0.5796 0.91921 0.82677 0.0
C2283 C 0.55377 0.88981 0.72481 0.0
H2284 H 0.57974 0.93423 0.66901 0.0
C2285 C 0.54971 0.89528 0.53359 0.0
C2286 C 0.56621 0.90654 0.51646 0.0
C2287 C 0.54877 0.89432 0.57954 0.0
C2288 C 0.57252 0.92168 0.68411 0.0
H2289 H 0.53734 0.88586 0.88236 0.0
H2290 H 0.53585 0.88604 0.80197 0.0
H2291 H 0.57947 0.93527 0.74925 0.0
H2292 H 0.59461 0.92547 0.53409 0.0
H2293 H 0.59299 0.92366 0.61352 0.0
H2294 H 0.54674 0.8763 0.65915 0.0
C2295 C 0.5484 0.89538 0.82126 0.0
C2296 C 0.5724 0.92228 0.73015 0.0
C2297 C 0.54916 0.89551 0.86743 0.0
C2298 C 0.58173 0.91652 0.54609 0.0
C2299 C 0.58077 0.91565 0.5917 0.0
C2300 C 0.55379 0.88923 0.67856 0.0
C2301 C 0.56369 0.90704 0.80034 0.0
C2302 C 0.56317 0.90635 0.75114 0.0
C2303 C 0.56427 0.9048 0.60903 0.0
C2304 C 0.56336 0.90517 0.65782 0.0
H2305 H 0.59284 0.92882 0.89231 0.0
H2306 H 0.5917 0.92827 0.81182 0.0
H2307 H 0.54673 0.87725 0.73994 0.0
H2308 H 0.53757 0.88732 0.51152 0.0
H2309 H 0.53586 0.88582 0.59204 0.0
C2310 C 0.1208 0.66406 0.54828 0.0
C2311 C 0.12436 0.67959 0.52763 0.0
C2312 C 0.12256 0.66452 0.59431 0.0
C2313 C 0.12352 0.6901 0.69637 0.0
H2314 H 0.14472 0.66436 0.75115 0.0
C2315 C 0.13879 0.69673 0.88448 0.0
C2316 C 0.13372 0.68079 0.90484 0.0
C2317 C 0.13893 0.6968 0.83856 0.0
C2318 C 0.13864 0.67148 0.7363 0.0
H2319 H 0.13263 0.70782 0.53854 0.0
H2320 H 0.13582 0.70873 0.61973 0.0
H2321 H 0.14241 0.66445 0.67059 0.0
H2322 H 0.12568 0.65258 0.89312 0.0
H2323 H 0.12566 0.65264 0.81243 0.0
H2324 H 0.11965 0.69705 0.762 0.0
C2325 C 0.13151 0.69615 0.60014 0.0
C2326 C 0.13731 0.67154 0.6902 0.0
C2327 C 0.12982 0.69569 0.55383 0.0
C2328 C 0.12951 0.66504 0.87832 0.0
C2329 C 0.12962 0.66511 0.8322 0.0
C2330 C 0.12486 0.69006 0.74243 0.0
C2331 C 0.12795 0.68055 0.62079 0.0
C2332 C 0.12973 0.68085 0.66977 0.0
C2333 C 0.13393 0.68092 0.81184 0.0
C2334 C 0.1325 0.6808 0.76289 0.0
H2335 H 0.11679 0.65153 0.52872 0.0
H2336 H 0.1195 0.65224 0.60915 0.0
H2337 H 0.1173 0.6971 0.68158 0.0
H2338 H 0.14186 0.70903 0.9038 0.0
H2339 H 0.14263 0.70926 0.82388 0.0
loop_
_geom_bond_atom_site_label_1
_geom_bond_atom_site_label_2
_geom_bond_distance
_geom_bond_site_symmetry_2
_ccdc_geom_bond_type
C0 Eu1 2.835 . S
C0 C2 1.500 1_655 S
C0 O20 1.257 1_655 S
C0 O21 1.260 . S
Eu1 C0 2.835 . S
Eu1 O20 2.473 1_655 S
Eu1 O21 2.480 . S
Eu1 O22 2.430 . S
Eu1 O23 2.670 . S
Eu1 O24 2.394 1_655 S
Eu1 O29 2.355 1_655 S
Eu1 O31 2.374 . S
C2 C0 1.500 1_455 S
C2 C3 1.377 1_455 S
C2 C7 1.377 . S
C3 C2 1.377 1_655 S
C3 C4 1.395 . S
C3 H32 0.931 . S
C4 C3 1.395 . S
C4 C5 1.383 1_655 S
C4 H33 0.931 . S
C5 C4 1.383 1_455 S
C5 C6 1.394 . S
C6 C5 1.394 . S
C6 C7 1.378 . S
C6 H34 0.931 . S
C7 C2 1.377 . S
C7 C6 1.378 . S
C7 H35 0.931 . S
C8 O22 1.259 . S
C8 O23 1.270 . S
C9 O24 1.251 . S
C9 O25 1.251 . S
C10 Eu11 2.835 . S
C10 C12 1.500 . S
C10 O26 1.257 1_455 S
C10 O27 1.260 . S
Eu11 C10 2.835 . S
Eu11 O23 2.355 1_455 S
Eu11 O25 2.374 . S
Eu11 O26 2.473 1_455 S
Eu11 O27 2.480 . S
Eu11 O28 2.430 . S
Eu11 O29 2.670 . S
Eu11 O30 2.394 1_455 S
C12 C10 1.500 . S
C12 C13 1.377 . S
C12 C17 1.377 1_455 S
C13 C12 1.377 . S
C13 C14 1.395 . S
C13 H36 0.931 . S
C14 C13 1.395 . S
C14 C15 1.376 1_455 S
C14 H37 0.931 . S
C15 C14 1.376 1_655 S
C15 C16 1.400 . S
C16 C15 1.400 . S
C16 C17 1.378 . S
C16 H38 0.931 . S
C17 C12 1.377 1_655 S
C17 C16 1.378 . S
C17 H39 0.931 . S
C18 O28 1.259 . S
C18 O29 1.270 . S
C19 O30 1.251 . S
C19 O31 1.251 . S
O20 C0 1.257 1_455 S
O20 Eu1 2.473 1_455 S
O21 C0 1.260 . S
O21 Eu1 2.480 . S
O22 Eu1 2.430 . S
O22 C8 1.259 . S
O23 Eu1 2.670 . S
O23 C8 1.270 . S
O23 Eu11 2.355 1_655 S
O24 Eu1 2.394 1_455 S
O24 C9 1.251 . S
O25 C9 1.251 . S
O25 Eu11 2.374 . S
O26 C10 1.257 1_655 S
O26 Eu11 2.473 1_655 S
O27 C10 1.260 . S
O27 Eu11 2.480 . S
O28 Eu11 2.430 . S
O28 C18 1.259 . S
O29 Eu1 2.355 1_455 S
O29 Eu11 2.670 . S
O29 C18 1.270 . S
O30 Eu11 2.394 1_655 S
O30 C19 1.251 . S
O31 Eu1 2.374 . S
O31 C19 1.251 . S
H32 C3 0.931 . S
H33 C4 0.931 . S
H34 C6 0.931 . S
H35 C7 0.931 . S
H36 C13 0.931 . S
H37 C14 0.931 . S
H38 C16 0.931 . S
H39 C17 0.931 . S
C40 Eu41 2.835 . S
C40 C42 1.500 . S
C40 O60 1.257 . S
C40 O61 1.260 . S
Eu41 C40 2.835 . S
Eu41 O60 2.473 . S
Eu41 O61 2.480 . S
Eu41 O62 2.430 . S
Eu41 O63 2.670 . S
Eu41 O64 2.394 . S
Eu41 O69 2.355 . S
Eu41 O71 2.374 . S
C42 C40 1.500 . S
C42 C43 1.377 . S
C42 C47 1.377 . S
C43 C42 1.377 . S
C43 C44 1.395 . S
C43 H72 0.931 . S
C44 C43 1.395 . S
C44 C45 1.383 . S
C44 H73 0.931 . S
C45 C44 1.383 . S
C45 C46 1.394 . S
C46 C45 1.394 . S
C46 C47 1.378 . S
C46 H74 0.931 . S
C47 C42 1.377 . S
C47 C46 1.378 . S
C47 H75 0.931 . S
C48 O62 1.259 . S
C48 O63 1.270 . S
C49 O64 1.251 . S
C49 O65 1.251 . S
C50 Eu51 2.835 . S
C50 C52 1.500 . S
C50 O66 1.257 . S
C50 O67 1.260 . S
Eu51 C50 2.835 . S
Eu51 O63 2.355 . S
Eu51 O65 2.374 . S
Eu51 O66 2.473 . S
Eu51 O67 2.480 . S
Eu51 O68 2.430 . S
Eu51 O69 2.670 . S
Eu51 O70 2.394 . S
C52 C50 1.500 . S
C52 C53 1.377 . S
C52 C57 1.377 . S
C53 C52 1.377 . S
C53 C54 1.395 . S
C53 H76 0.931 . S
C54 C53 1.395 . S
C54 C55 1.383 . S
C54 H77 0.931 . S
C55 C54 1.383 . S
C55 C56 1.394 . S
C56 C55 1.394 . S
C56 C57 1.378 . S
C56 H78 0.931 . S
C57 C52 1.377 . S
C57 C56 1.378 . S
C57 H79 0.931 . S
C58 O68 1.259 . S
C58 O69 1.270 . S
C59 O70 1.251 . S
C59 O71 1.251 . S
O60 C40 1.257 . S
O60 Eu41 2.473 . S
O61 C40 1.260 . S
O61 Eu41 2.480 . S
O62 Eu41 2.430 . S
O62 C48 1.259 . S
O63 Eu41 2.670 . S
O63 C48 1.270 . S
O63 Eu51 2.355 . S
O64 Eu41 2.394 . S
O64 C49 1.251 . S
O65 C49 1.251 . S
O65 Eu51 2.374 . S
O66 C50 1.257 . S
O66 Eu51 2.473 . S
O67 C50 1.260 . S
O67 Eu51 2.480 . S
O68 Eu51 2.430 . S
O68 C58 1.259 . S
O69 Eu41 2.355 . S
O69 Eu51 2.670 . S
O69 C58 1.270 . S
O70 Eu51 2.394 . S
O70 C59 1.251 . S
O71 Eu41 2.374 . S
O71 C59 1.251 . S
H72 C43 0.931 . S
H73 C44 0.931 . S
H74 C46 0.931 . S
H75 C47 0.931 . S
H76 C53 0.931 . S
H77 C54 0.931 . S
H78 C56 0.931 . S
H79 C57 0.931 . S
C80 Eu81 2.835 . S
C80 C82 1.500 1_545 S
C80 O100 1.257 1_545 S
C80 O101 1.260 . S
Eu81 C80 2.835 . S
Eu81 O100 2.473 1_545 S
Eu81 O101 2.480 . S
Eu81 O102 2.430 . S
Eu81 O103 2.670 . S
Eu81 O104 2.394 1_545 S
Eu81 O109 2.355 1_545 S
Eu81 O111 2.374 . S
C82 C80 1.500 1_565 S
C82 C83 1.377 1_565 S
C82 C87 1.377 . S
C83 C82 1.377 1_545 S
C83 C84 1.395 . S
C83 H112 0.931 . S
C84 C83 1.395 . S
C84 C85 1.383 1_545 S
C84 H113 0.931 . S
C85 C84 1.383 1_565 S
C85 C86 1.394 . S
C86 C85 1.394 . S
C86 C87 1.378 . S
C86 H114 0.931 . S
C87 C82 1.377 . S
C87 C86 1.378 . S
C87 H115 0.931 . S
C88 O102 1.259 . S
C88 O103 1.270 . S
C89 O104 1.251 . S
C89 O105 1.251 . S
C90 Eu91 2.835 1_545 S
C90 C92 1.500 . S
C90 O106 1.257 . S
C90 O107 1.260 1_545 S
Eu91 C90 2.835 1_565 S
Eu91 O103 2.355 1_565 S
Eu91 O105 2.374 . S
Eu91 O106 2.473 1_565 S
Eu91 O107 2.480 . S
Eu91 O108 2.430 . S
Eu91 O109 2.670 . S
Eu91 O110 2.394 1_565 S
C92 C90 1.500 . S
C92 C93 1.377 1_545 S
C92 C97 1.377 . S
C93 C92 1.377 1_565 S
C93 C94 1.399 . S
C93 H116 0.931 . S
C94 C93 1.399 . S
C94 C95 1.373 1_565 S
C94 H117 0.939 . S
C95 C94 1.373 1_545 S
C95 C96 1.394 . S
C96 C95 1.394 . S
C96 C97 1.378 . S
C96 H118 0.931 . S
C97 C92 1.377 . S
C97 C96 1.378 . S
C97 H119 0.931 . S
C98 O108 1.259 . S
C98 O109 1.270 . S
C99 O110 1.251 . S
C99 O111 1.251 . S
O100 C80 1.257 1_565 S
O100 Eu81 2.473 1_565 S
O101 C80 1.260 . S
O101 Eu81 2.480 . S
O102 Eu81 2.430 . S
O102 C88 1.259 . S
O103 Eu81 2.670 . S
O103 C88 1.270 . S
O103 Eu91 2.355 1_545 S
O104 Eu81 2.394 1_565 S
O104 C89 1.251 . S
O105 C89 1.251 . S
O105 Eu91 2.374 . S
O106 C90 1.257 . S
O106 Eu91 2.473 1_545 S
O107 C90 1.260 1_565 S
O107 Eu91 2.480 . S
O108 Eu91 2.430 . S
O108 C98 1.259 . S
O109 Eu81 2.355 1_565 S
O109 Eu91 2.670 . S
O109 C98 1.270 . S
O110 Eu91 2.394 1_545 S
O110 C99 1.251 . S
O111 Eu81 2.374 . S
O111 C99 1.251 . S
H112 C83 0.931 . S
H113 C84 0.931 . S
H114 C86 0.931 . S
H115 C87 0.931 . S
H116 C93 0.931 . S
H117 C94 0.939 . S
H118 C96 0.931 . S
H119 C97 0.931 . S
C120 Eu121 2.835 . S
C120 C122 1.500 1_655 S
C120 O140 1.257 1_655 S
C120 O141 1.260 . S
Eu121 C120 2.835 . S
Eu121 O140 2.473 1_655 S
Eu121 O141 2.480 . S
Eu121 O142 2.430 . S
Eu121 O143 2.670 . S
Eu121 O144 2.394 1_655 S
Eu121 O149 2.355 1_655 S
Eu121 O151 2.374 . S
C122 C120 1.500 1_455 S
C122 C123 1.377 1_455 S
C122 C127 1.377 . S
C123 C122 1.377 1_655 S
C123 C124 1.395 . S
C123 H152 0.931 . S
C124 C123 1.395 . S
C124 C125 1.383 1_655 S
C124 H153 0.931 . S
C125 C124 1.383 1_455 S
C125 C126 1.394 . S
C126 C125 1.394 . S
C126 C127 1.378 . S
C126 H154 0.931 . S
C127 C122 1.377 . S
C127 C126 1.378 . S
C127 H155 0.931 . S
C128 O142 1.259 . S
C128 O143 1.270 . S
C129 O144 1.251 . S
C129 O145 1.251 . S
C130 Eu131 2.835 . S
C130 C132 1.500 . S
C130 O146 1.257 1_455 S
C130 O147 1.260 . S
Eu131 C130 2.835 . S
Eu131 O143 2.355 1_455 S
Eu131 O145 2.374 . S
Eu131 O146 2.473 1_455 S
Eu131 O147 2.480 . S
Eu131 O148 2.430 . S
Eu131 O149 2.670 . S
Eu131 O150 2.394 1_455 S
C132 C130 1.500 . S
C132 C133 1.377 . S
C132 C137 1.377 1_455 S
C133 C132 1.377 . S
C133 C134 1.395 . S
C133 H156 0.931 . S
C134 C133 1.395 . S
C134 C135 1.352 1_455 S
C134 H157 0.931 . S
C135 C134 1.352 1_655 S
C135 C136 1.421 . S
C136 C135 1.421 . S
C136 C137 1.378 . S
C136 H158 0.931 . S
C137 C132 1.377 1_655 S
C137 C136 1.378 . S
C137 H159 0.931 . S
C138 O148 1.259 . S
C138 O149 1.270 . S
C139 O150 1.251 . S
C139 O151 1.251 . S
O140 C120 1.257 1_455 S
O140 Eu121 2.473 1_455 S
O141 C120 1.260 . S
O141 Eu121 2.480 . S
O142 Eu121 2.430 . S
O142 C128 1.259 . S
O143 Eu121 2.670 . S
O143 C128 1.270 . S
O143 Eu131 2.355 1_655 S
O144 Eu121 2.394 1_455 S
O144 C129 1.251 . S
O145 C129 1.251 . S
O145 Eu131 2.374 . S
O146 C130 1.257 1_655 S
O146 Eu131 2.473 1_655 S
O147 C130 1.260 . S
O147 Eu131 2.480 . S
O148 Eu131 2.430 . S
O148 C138 1.259 . S
O149 Eu121 2.355 1_455 S
O149 Eu131 2.670 . S
O149 C138 1.270 . S
O150 Eu131 2.394 1_655 S
O150 C139 1.251 . S
O151 Eu121 2.374 . S
O151 C139 1.251 . S
H152 C123 0.931 . S
H153 C124 0.931 . S
H154 C126 0.931 . S
H155 C127 0.931 . S
H156 C133 0.931 . S
H157 C134 0.931 . S
H158 C136 0.931 . S
H159 C137 0.931 . S
C160 Eu161 2.835 . S
C160 C162 1.500 . S
C160 O180 1.257 . S
C160 O181 1.260 . S
Eu161 C160 2.835 . S
Eu161 O180 2.473 . S
Eu161 O181 2.480 . S
Eu161 O182 2.430 . S
Eu161 O183 2.670 . S
Eu161 O184 2.394 . S
Eu161 O189 2.355 . S
Eu161 O191 2.374 . S
C162 C160 1.500 . S
C162 C163 1.377 . S
C162 C167 1.377 . S
C163 C162 1.377 . S
C163 C164 1.395 . S
C163 H192 0.931 . S
C164 C163 1.395 . S
C164 C165 1.383 . S
C164 H193 0.931 . S
C165 C164 1.383 . S
C165 C166 1.394 . S
C166 C165 1.394 . S
C166 C167 1.378 . S
C166 H194 0.931 . S
C167 C162 1.377 . S
C167 C166 1.378 . S
C167 H195 0.931 . S
C168 O182 1.259 . S
C168 O183 1.270 . S
C169 O184 1.251 . S
C169 O185 1.251 . S
C170 Eu171 2.835 . S
C170 C172 1.500 . S
C170 O186 1.257 . S
C170 O187 1.260 . S
Eu171 C170 2.835 . S
Eu171 O183 2.355 . S
Eu171 O185 2.374 . S
Eu171 O186 2.473 . S
Eu171 O187 2.480 . S
Eu171 O188 2.430 . S
Eu171 O189 2.670 . S
Eu171 O190 2.394 . S
C172 C170 1.500 . S
C172 C173 1.377 . S
C172 C177 1.377 . S
C173 C172 1.377 . S
C173 C174 1.395 . S
C173 H196 0.931 . S
C174 C173 1.395 . S
C174 C175 1.383 . S
C174 H197 0.931 . S
C175 C174 1.383 . S
C175 C176 1.394 . S
C176 C175 1.394 . S
C176 C177 1.378 . S
C176 H198 0.931 . S
C177 C172 1.377 . S
C177 C176 1.378 . S
C177 H199 0.931 . S
C178 O188 1.259 . S
C178 O189 1.270 . S
C179 O190 1.251 . S
C179 O191 1.251 . S
O180 C160 1.257 . S
O180 Eu161 2.473 . S
O181 C160 1.260 . S
O181 Eu161 2.480 . S
O182 Eu161 2.430 . S
O182 C168 1.259 . S
O183 Eu161 2.670 . S
O183 C168 1.270 . S
O183 Eu171 2.355 . S
O184 Eu161 2.394 . S
O184 C169 1.251 . S
O185 C169 1.251 . S
O185 Eu171 2.374 . S
O186 C170 1.257 . S
O186 Eu171 2.473 . S
O187 C170 1.260 . S
O187 Eu171 2.480 . S
O188 Eu171 2.430 . S
O188 C178 1.259 . S
O189 Eu161 2.355 . S
O189 Eu171 2.670 . S
O189 C178 1.270 . S
O190 Eu171 2.394 . S
O190 C179 1.251 . S
O191 Eu161 2.374 . S
O191 C179 1.251 . S
H192 C163 0.931 . S
H193 C164 0.931 . S
H194 C166 0.931 . S
H195 C167 0.931 . S
H196 C173 0.931 . S
H197 C174 0.931 . S
H198 C176 0.931 . S
H199 C177 0.931 . S
C200 Eu201 2.835 . S
C200 C202 1.500 . S
C200 O220 1.257 1_545 S
C200 O221 1.260 . S
Eu201 C200 2.835 . S
Eu201 O220 2.473 1_545 S
Eu201 O221 2.480 . S
Eu201 O222 2.430 . S
Eu201 O223 2.670 . S
Eu201 O224 2.394 1_545 S
Eu201 O229 2.355 1_545 S
Eu201 O231 2.374 . S
C202 C200 1.500 . S
C202 C203 1.377 . S
C202 C207 1.377 1_545 S
C203 C202 1.377 . S
C203 C204 1.395 . S
C203 H232 0.931 . S
C204 C203 1.395 . S
C204 C205 1.383 1_545 S
C204 H233 0.931 . S
C205 C204 1.383 1_565 S
C205 C206 1.394 . S
C206 C205 1.394 . S
C206 C207 1.378 . S
C206 H234 0.931 . S
C207 C202 1.377 1_565 S
C207 C206 1.378 . S
C207 H235 0.931 . S
C208 O222 1.259 . S
C208 O223 1.270 . S
C209 O224 1.251 . S
C209 O225 1.251 . S
C210 Eu211 2.835 1_545 S
C210 C212 1.500 . S
C210 O226 1.257 . S
C210 O227 1.260 1_545 S
Eu211 C210 2.835 1_565 S
Eu211 O223 2.355 1_565 S
Eu211 O225 2.374 . S
Eu211 O226 2.473 1_565 S
Eu211 O227 2.480 . S
Eu211 O228 2.430 . S
Eu211 O229 2.670 . S
Eu211 O230 2.394 1_565 S
C212 C210 1.500 . S
C212 C213 1.377 1_545 S
C212 C217 1.377 . S
C213 C212 1.377 1_565 S
C213 C214 1.395 1_565 S
C213 H236 0.931 . S
C214 C213 1.395 1_545 S
C214 C215 1.383 . S
C214 H237 0.931 1_545 S
C215 C214 1.383 . S
C215 C216 1.394 . S
C216 C215 1.394 . S
C216 C217 1.378 . S
C216 H238 0.931 . S
C217 C212 1.377 . S
C217 C216 1.378 . S
C217 H239 0.931 . S
C218 O228 1.259 . S
C218 O229 1.270 . S
C219 O230 1.251 . S
C219 O231 1.251 . S
O220 C200 1.257 1_565 S
O220 Eu201 2.473 1_565 S
O221 C200 1.260 . S
O221 Eu201 2.480 . S
O222 Eu201 2.430 . S
O222 C208 1.259 . S
O223 Eu201 2.670 . S
O223 C208 1.270 . S
O223 Eu211 2.355 1_545 S
O224 Eu201 2.394 1_565 S
O224 C209 1.251 . S
O225 C209 1.251 . S
O225 Eu211 2.374 . S
O226 C210 1.257 . S
O226 Eu211 2.473 1_545 S
O227 C210 1.260 1_565 S
O227 Eu211 2.480 . S
O228 Eu211 2.430 . S
O228 C218 1.259 . S
O229 Eu201 2.355 1_565 S
O229 Eu211 2.670 . S
O229 C218 1.270 . S
O230 Eu211 2.394 1_545 S
O230 C219 1.251 . S
O231 Eu201 2.374 . S
O231 C219 1.251 . S
H232 C203 0.931 . S
H233 C204 0.931 . S
H234 C206 0.931 . S
H235 C207 0.931 . S
H236 C213 0.931 . S
H237 C214 0.931 1_565 S
H238 C216 0.931 . S
H239 C217 0.931 . S
C240 Eu241 2.835 . S
C240 C242 1.500 . S
C240 O260 1.257 . S
C240 O261 1.260 . S
Eu241 C240 2.835 . S
Eu241 O260 2.473 . S
Eu241 O261 2.480 . S
Eu241 O262 2.430 . S
Eu241 O263 2.670 . S
Eu241 O264 2.394 . S
Eu241 O269 2.355 . S
Eu241 O271 2.374 . S
C242 C240 1.500 . S
C242 C243 1.377 1_556 S
C242 C247 1.377 . S
C243 C242 1.377 1_554 S
C243 C244 1.395 . S
C243 H272 0.931 1_554 S
C244 C243 1.395 . S
C244 C245 1.383 . S
C244 H273 0.931 . S
C245 C244 1.383 . S
C245 C246 1.394 . S
C246 C245 1.394 . S
C246 C247 1.378 1_554 S
C246 H274 0.931 . S
C247 C242 1.377 . S
C247 C246 1.378 1_556 S
C247 H275 0.931 . S
C248 O262 1.259 . S
C248 O263 1.270 . S
C249 O264 1.251 . S
C249 O265 1.251 . S
C250 Eu251 2.835 . S
C250 C252 1.500 . S
C250 O266 1.257 . S
C250 O267 1.260 . S
Eu251 C250 2.835 . S
Eu251 O263 2.355 . S
Eu251 O265 2.374 . S
Eu251 O266 2.473 . S
Eu251 O267 2.480 . S
Eu251 O268 2.430 . S
Eu251 O269 2.670 . S
Eu251 O270 2.394 . S
C252 C250 1.500 . S
C252 C253 1.377 . S
C252 C257 1.377 . S
C253 C252 1.377 . S
C253 C254 1.395 . S
C253 H276 0.931 . S
C254 C253 1.395 . S
C254 C255 1.383 . S
C254 H277 0.931 . S
C255 C254 1.383 . S
C255 C256 1.394 . S
C256 C255 1.394 . S
C256 C257 1.378 . S
C256 H278 0.931 . S
C257 C252 1.377 . S
C257 C256 1.378 . S
C257 H279 0.931 . S
C258 O268 1.259 . S
C258 O269 1.270 . S
C259 O270 1.251 . S
C259 O271 1.251 . S
O260 C240 1.257 . S
O260 Eu241 2.473 . S
O261 C240 1.260 . S
O261 Eu241 2.480 . S
O262 Eu241 2.430 . S
O262 C248 1.259 . S
O263 Eu241 2.670 . S
O263 C248 1.270 . S
O263 Eu251 2.355 . S
O264 Eu241 2.394 . S
O264 C249 1.251 . S
O265 C249 1.251 . S
O265 Eu251 2.374 . S
O266 C250 1.257 . S
O266 Eu251 2.473 . S
O267 C250 1.260 . S
O267 Eu251 2.480 . S
O268 Eu251 2.430 . S
O268 C258 1.259 . S
O269 Eu241 2.355 . S
O269 Eu251 2.670 . S
O269 C258 1.270 . S
O270 Eu251 2.394 . S
O270 C259 1.251 . S
O271 Eu241 2.374 . S
O271 C259 1.251 . S
H272 C243 0.931 1_556 S
H273 C244 0.931 . S
H274 C246 0.931 . S
H275 C247 0.931 . S
H276 C253 0.931 . S
H277 C254 0.931 . S
H278 C256 0.931 . S
H279 C257 0.931 . S
C280 Eu281 2.835 . S
C280 C282 1.500 . S
C280 O300 1.257 . S
C280 O301 1.260 . S
Eu281 C280 2.835 . S
Eu281 O300 2.473 . S
Eu281 O301 2.480 . S
Eu281 O302 2.430 . S
Eu281 O303 2.670 . S
Eu281 O304 2.394 . S
Eu281 O309 2.355 . S
Eu281 O311 2.374 . S
C282 C280 1.500 . S
C282 C283 1.377 . S
C282 C287 1.377 . S
C283 C282 1.377 . S
C283 C284 1.395 1_556 S
C283 H312 0.931 . S
C284 C283 1.395 1_554 S
C284 C285 1.383 . S
C284 H313 0.931 . S
C285 C284 1.383 . S
C285 C286 1.394 . S
C286 C285 1.394 . S
C286 C287 1.378 1_554 S
C286 H314 0.931 . S
C287 C282 1.377 . S
C287 C286 1.378 1_556 S
C287 H315 0.931 . S
C288 O302 1.259 . S
C288 O303 1.270 . S
C289 O304 1.251 . S
C289 O305 1.251 . S
C290 Eu291 2.835 . S
C290 C292 1.500 . S
C290 O306 1.257 . S
C290 O307 1.260 . S
Eu291 C290 2.835 . S
Eu291 O303 2.355 . S
Eu291 O305 2.374 . S
Eu291 O306 2.473 . S
Eu291 O307 2.480 . S
Eu291 O308 2.430 . S
Eu291 O309 2.670 . S
Eu291 O310 2.394 . S
C292 C290 1.500 . S
C292 C293 1.377 . S
C292 C297 1.377 . S
C293 C292 1.377 . S
C293 C294 1.395 . S
C293 H316 0.931 . S
C294 C293 1.395 . S
C294 C295 1.383 . S
C294 H317 0.931 . S
C295 C294 1.383 . S
C295 C296 1.394 . S
C296 C295 1.394 . S
C296 C297 1.378 . S
C296 H318 0.931 . S
C297 C292 1.377 . S
C297 C296 1.378 . S
C297 H319 0.931 . S
C298 O308 1.259 . S
C298 O309 1.270 . S
C299 O310 1.251 . S
C299 O311 1.251 . S
O300 C280 1.257 . S
O300 Eu281 2.473 . S
O301 C280 1.260 . S
O301 Eu281 2.480 . S
O302 Eu281 2.430 . S
O302 C288 1.259 . S
O303 Eu281 2.670 . S
O303 C288 1.270 . S
O303 Eu291 2.355 . S
O304 Eu281 2.394 . S
O304 C289 1.251 . S
O305 C289 1.251 . S
O305 Eu291 2.374 . S
O306 C290 1.257 . S
O306 Eu291 2.473 . S
O307 C290 1.260 . S
O307 Eu291 2.480 . S
O308 Eu291 2.430 . S
O308 C298 1.259 . S
O309 Eu281 2.355 . S
O309 Eu291 2.670 . S
O309 C298 1.270 . S
O310 Eu291 2.394 . S
O310 C299 1.251 . S
O311 Eu281 2.374 . S
O311 C299 1.251 . S
H312 C283 0.931 . S
H313 C284 0.931 . S
H314 C286 0.931 . S
H315 C287 0.931 . S
H316 C293 0.931 . S
H317 C294 0.931 . S
H318 C296 0.931 . S
H319 C297 0.931 . S
C320 Eu321 2.835 . S
C320 C322 1.500 . S
C320 O340 1.257 . S
C320 O341 1.260 . S
Eu321 C320 2.835 . S
Eu321 O340 2.473 . S
Eu321 O341 2.480 . S
Eu321 O342 2.430 . S
Eu321 O343 2.670 . S
Eu321 O344 2.394 . S
Eu321 O349 2.355 . S
Eu321 O351 2.374 . S
C322 C320 1.500 . S
C322 C323 1.377 1_556 S
C322 C327 1.377 1_556 S
C323 C322 1.377 1_554 S
C323 C324 1.395 . S
C323 H352 0.931 1_554 S
C324 C323 1.395 . S
C324 C325 1.383 . S
C324 H353 0.931 . S
C325 C324 1.383 . S
C325 C326 1.394 . S
C326 C325 1.394 . S
C326 C327 1.378 . S
C326 H354 0.931 . S
C327 C322 1.377 1_554 S
C327 C326 1.378 . S
C327 H355 0.931 1_554 S
C328 O342 1.259 . S
C328 O343 1.270 . S
C329 O344 1.251 . S
C329 O345 1.251 . S
C330 Eu331 2.835 . S
C330 C332 1.500 . S
C330 O346 1.257 . S
C330 O347 1.260 . S
Eu331 C330 2.835 . S
Eu331 O343 2.355 . S
Eu331 O345 2.374 . S
Eu331 O346 2.473 . S
Eu331 O347 2.480 . S
Eu331 O348 2.430 . S
Eu331 O349 2.670 . S
Eu331 O350 2.394 . S
C332 C330 1.500 . S
C332 C333 1.377 . S
C332 C337 1.377 . S
C333 C332 1.377 . S
C333 C334 1.395 . S
C333 H356 0.931 . S
C334 C333 1.395 . S
C334 C335 1.383 . S
C334 H357 0.931 . S
C335 C334 1.383 . S
C335 C336 1.394 . S
C336 C335 1.394 . S
C336 C337 1.378 . S
C336 H358 0.931 . S
C337 C332 1.377 . S
C337 C336 1.378 . S
C337 H359 0.931 . S
C338 O348 1.259 . S
C338 O349 1.270 . S
C339 O350 1.251 . S
C339 O351 1.251 . S
O340 C320 1.257 . S
O340 Eu321 2.473 . S
O341 C320 1.260 . S
O341 Eu321 2.480 . S
O342 Eu321 2.430 . S
O342 C328 1.259 . S
O343 Eu321 2.670 . S
O343 C328 1.270 . S
O343 Eu331 2.355 . S
O344 Eu321 2.394 . S
O344 C329 1.251 . S
O345 C329 1.251 . S
O345 Eu331 2.374 . S
O346 C330 1.257 . S
O346 Eu331 2.473 . S
O347 C330 1.260 . S
O347 Eu331 2.480 . S
O348 Eu331 2.430 . S
O348 C338 1.259 . S
O349 Eu321 2.355 . S
O349 Eu331 2.670 . S
O349 C338 1.270 . S
O350 Eu331 2.394 . S
O350 C339 1.251 . S
O351 Eu321 2.374 . S
O351 C339 1.251 . S
H352 C323 0.931 1_556 S
H353 C324 0.931 . S
H354 C326 0.931 . S
H355 C327 0.931 1_556 S
H356 C333 0.931 . S
H357 C334 0.931 . S
H358 C336 0.931 . S
H359 C337 0.931 . S
C360 Eu361 2.835 . S
C360 C362 1.500 . S
C360 O380 1.257 . S
C360 O381 1.260 . S
Eu361 C360 2.835 . S
Eu361 O380 2.473 . S
Eu361 O381 2.480 . S
Eu361 O382 2.430 . S
Eu361 O383 2.670 . S
Eu361 O384 2.394 . S
Eu361 O389 2.355 . S
Eu361 O391 2.374 . S
C362 C360 1.500 . S
C362 C363 1.377 . S
C362 C367 1.377 . S
C363 C362 1.377 . S
C363 C364 1.395 . S
C363 H392 0.931 . S
C364 C363 1.395 . S
C364 C365 1.383 . S
C364 H393 0.931 . S
C365 C364 1.383 . S
C365 C366 1.394 . S
C366 C365 1.394 . S
C366 C367 1.378 . S
C366 H394 0.931 . S
C367 C362 1.377 . S
C367 C366 1.378 . S
C367 H395 0.931 . S
C368 O382 1.259 . S
C368 O383 1.270 . S
C369 O384 1.251 . S
C369 O385 1.251 . S
C370 Eu371 2.835 . S
C370 C372 1.500 . S
C370 O386 1.257 . S
C370 O387 1.260 . S
Eu371 C370 2.835 . S
Eu371 O383 2.355 . S
Eu371 O385 2.374 . S
Eu371 O386 2.473 . S
Eu371 O387 2.480 . S
Eu371 O388 2.430 . S
Eu371 O389 2.670 . S
Eu371 O390 2.394 . S
C372 C370 1.500 . S
C372 C373 1.377 1_556 S
C372 C377 1.377 1_556 S
C373 C372 1.377 1_554 S
C373 C374 1.395 . S
C373 H396 0.931 . S
C374 C373 1.395 . S
C374 C375 1.383 . S
C374 H397 0.931 . S
C375 C374 1.383 . S
C375 C376 1.394 . S
C376 C375 1.394 . S
C376 C377 1.378 . S
C376 H398 0.931 . S
C377 C372 1.377 1_554 S
C377 C376 1.378 . S
C377 H399 0.931 1_554 S
C378 O388 1.259 . S
C378 O389 1.270 . S
C379 O390 1.251 . S
C379 O391 1.251 . S
O380 C360 1.257 . S
O380 Eu361 2.473 . S
O381 C360 1.260 . S
O381 Eu361 2.480 . S
O382 Eu361 2.430 . S
O382 C368 1.259 . S
O383 Eu361 2.670 . S
O383 C368 1.270 . S
O383 Eu371 2.355 . S
O384 Eu361 2.394 . S
O384 C369 1.251 . S
O385 C369 1.251 . S
O385 Eu371 2.374 . S
O386 C370 1.257 . S
O386 Eu371 2.473 . S
O387 C370 1.260 . S
O387 Eu371 2.480 . S
O388 Eu371 2.430 . S
O388 C378 1.259 . S
O389 Eu361 2.355 . S
O389 Eu371 2.670 . S
O389 C378 1.270 . S
O390 Eu371 2.394 . S
O390 C379 1.251 . S
O391 Eu361 2.374 . S
O391 C379 1.251 . S
H392 C363 0.931 . S
H393 C364 0.931 . S
H394 C366 0.931 . S
H395 C367 0.931 . S
H396 C373 0.931 . S
H397 C374 0.931 . S
H398 C376 0.931 . S
H399 C377 0.931 1_556 S
C400 Eu401 2.835 . S
C400 C402 1.500 . S
C400 O420 1.257 . S
C400 O421 1.260 . S
Eu401 C400 2.835 . S
Eu401 O420 2.473 . S
Eu401 O421 2.480 . S
Eu401 O422 2.430 . S
Eu401 O423 2.670 . S
Eu401 O424 2.394 . S
Eu401 O429 2.355 . S
Eu401 O431 2.374 . S
C402 C400 1.500 . S
C402 C403 1.377 . S
C402 C407 1.377 . S
C403 C402 1.377 . S
C403 C404 1.395 . S
C403 H432 0.931 . S
C404 C403 1.395 . S
C404 C405 1.383 . S
C404 H433 0.931 . S
C405 C404 1.383 . S
C405 C406 1.394 . S
C406 C405 1.394 . S
C406 C407 1.378 . S
C406 H434 0.931 . S
C407 C402 1.377 . S
C407 C406 1.378 . S
C407 H435 0.931 . S
C408 O422 1.259 . S
C408 O423 1.270 . S
C409 O424 1.251 . S
C409 O425 1.251 . S
C410 Eu411 2.835 . S
C410 C412 1.500 1_556 S
C410 O426 1.257 . S
C410 O427 1.260 . S
Eu411 C410 2.835 . S
Eu411 O423 2.355 . S
Eu411 O425 2.374 . S
Eu411 O426 2.473 . S
Eu411 O427 2.480 . S
Eu411 O428 2.430 . S
Eu411 O429 2.670 . S
Eu411 O430 2.394 . S
C412 C410 1.500 1_554 S
C412 C413 1.377 . S
C412 C417 1.377 . S
C413 C412 1.377 . S
C413 C414 1.395 . S
C413 H436 0.931 . S
C414 C413 1.395 . S
C414 C415 1.383 . S
C414 H437 0.931 . S
C415 C414 1.383 . S
C415 C416 1.394 . S
C416 C415 1.394 . S
C416 C417 1.378 . S
C416 H438 0.931 . S
C417 C412 1.377 . S
C417 C416 1.378 . S
C417 H439 0.931 . S
C418 O428 1.259 . S
C418 O429 1.270 . S
C419 O430 1.251 . S
C419 O431 1.251 . S
O420 C400 1.257 . S
O420 Eu401 2.473 . S
O421 C400 1.260 . S
O421 Eu401 2.480 . S
O422 Eu401 2.430 . S
O422 C408 1.259 . S
O423 Eu401 2.670 . S
O423 C408 1.270 . S
O423 Eu411 2.355 . S
O424 Eu401 2.394 . S
O424 C409 1.251 . S
O425 C409 1.251 . S
O425 Eu411 2.374 . S
O426 C410 1.257 . S
O426 Eu411 2.473 . S
O427 C410 1.260 . S
O427 Eu411 2.480 . S
O428 Eu411 2.430 . S
O428 C418 1.259 . S
O429 Eu401 2.355 . S
O429 Eu411 2.670 . S
O429 C418 1.270 . S
O430 Eu411 2.394 . S
O430 C419 1.251 . S
O431 Eu401 2.374 . S
O431 C419 1.251 . S
H432 C403 0.931 . S
H433 C404 0.931 . S
H434 C406 0.931 . S
H435 C407 0.931 . S
H436 C413 0.931 . S
H437 C414 0.931 . S
H438 C416 0.931 . S
H439 C417 0.931 . S
C440 Eu441 2.835 . S
C440 C442 1.500 . S
C440 O460 1.257 . S
C440 O461 1.260 . S
Eu441 C440 2.835 . S
Eu441 O460 2.473 . S
Eu441 O461 2.480 . S
Eu441 O462 2.430 . S
Eu441 O463 2.670 . S
Eu441 O464 2.394 . S
Eu441 O469 2.355 . S
Eu441 O471 2.374 . S
C442 C440 1.500 . S
C442 C443 1.377 . S
C442 C447 1.377 . S
C443 C442 1.377 . S
C443 C444 1.395 . S
C443 H472 0.931 . S
C444 C443 1.395 . S
C444 C445 1.383 . S
C444 H473 0.931 . S
C445 C444 1.383 . S
C445 C446 1.394 . S
C446 C445 1.394 . S
C446 C447 1.378 . S
C446 H474 0.931 . S
C447 C442 1.377 . S
C447 C446 1.378 . S
C447 H475 0.931 . S
C448 O462 1.259 . S
C448 O463 1.270 . S
C449 O464 1.251 . S
C449 O465 1.251 . S
C450 Eu451 2.835 . S
C450 C452 1.500 . S
C450 O466 1.257 . S
C450 O467 1.260 . S
Eu451 C450 2.835 . S
Eu451 O463 2.355 . S
Eu451 O465 2.374 . S
Eu451 O466 2.473 . S
Eu451 O467 2.480 . S
Eu451 O468 2.430 . S
Eu451 O469 2.670 . S
Eu451 O470 2.394 . S
C452 C450 1.500 . S
C452 C453 1.377 1_556 S
C452 C457 1.377 1_556 S
C453 C452 1.377 1_554 S
C453 C454 1.395 . S
C453 H476 0.931 . S
C454 C453 1.395 . S
C454 C455 1.383 . S
C454 H477 0.931 . S
C455 C454 1.383 . S
C455 C456 1.394 . S
C456 C455 1.394 . S
C456 C457 1.378 . S
C456 H478 0.931 . S
C457 C452 1.377 1_554 S
C457 C456 1.378 . S
C457 H479 0.922 1_554 S
C458 O468 1.259 . S
C458 O469 1.270 . S
C459 O470 1.251 . S
C459 O471 1.251 . S
O460 C440 1.257 . S
O460 Eu441 2.473 . S
O461 C440 1.260 . S
O461 Eu441 2.480 . S
O462 Eu441 2.430 . S
O462 C448 1.259 . S
O463 Eu441 2.670 . S
O463 C448 1.270 . S
O463 Eu451 2.355 . S
O464 Eu441 2.394 . S
O464 C449 1.251 . S
O465 C449 1.251 . S
O465 Eu451 2.374 . S
O466 C450 1.257 . S
O466 Eu451 2.473 . S
O467 C450 1.260 . S
O467 Eu451 2.480 . S
O468 Eu451 2.430 . S
O468 C458 1.259 . S
O469 Eu441 2.355 . S
O469 Eu451 2.670 . S
O469 C458 1.270 . S
O470 Eu451 2.394 . S
O470 C459 1.251 . S
O471 Eu441 2.374 . S
O471 C459 1.251 . S
H472 C443 0.931 . S
H473 C444 0.931 . S
H474 C446 0.931 . S
H475 C447 0.931 . S
H476 C453 0.931 . S
H477 C454 0.931 . S
H478 C456 0.931 . S
H479 C457 0.922 1_556 S
C480 Eu481 2.835 . S
C480 C482 1.500 1_554 S
C480 O500 1.257 . S
C480 O501 1.260 . S
Eu481 C480 2.835 . S
Eu481 O500 2.473 . S
Eu481 O501 2.480 . S
Eu481 O502 2.430 . S
Eu481 O503 2.670 . S
Eu481 O504 2.394 . S
Eu481 O509 2.355 . S
Eu481 O511 2.374 . S
C482 C480 1.500 1_556 S
C482 C483 1.377 . S
C482 C487 1.377 . S
C483 C482 1.377 . S
C483 C484 1.395 . S
C483 H512 0.931 . S
C484 C483 1.395 . S
C484 C485 1.383 . S
C484 H513 0.931 . S
C485 C484 1.383 . S
C485 C486 1.394 . S
C486 C485 1.394 . S
C486 C487 1.378 . S
C486 H514 0.931 . S
C487 C482 1.377 . S
C487 C486 1.378 . S
C487 H515 0.931 . S
C488 O502 1.259 . S
C488 O503 1.270 . S
C489 O504 1.251 . S
C489 O505 1.251 . S
C490 Eu491 2.835 . S
C490 C492 1.500 . S
C490 O506 1.257 . S
C490 O507 1.260 . S
Eu491 C490 2.835 . S
Eu491 O503 2.355 . S
Eu491 O505 2.374 . S
Eu491 O506 2.473 . S
Eu491 O507 2.480 . S
Eu491 O508 2.430 . S
Eu491 O509 2.670 . S
Eu491 O510 2.394 . S
C492 C490 1.500 . S
C492 C493 1.377 . S
C492 C497 1.377 . S
C493 C492 1.377 . S
C493 C494 1.395 . S
C493 H516 0.931 . S
C494 C493 1.395 . S
C494 C495 1.383 . S
C494 H517 0.931 . S
C495 C494 1.383 . S
C495 C496 1.394 . S
C496 C495 1.394 . S
C496 C497 1.378 . S
C496 H518 0.931 . S
C497 C492 1.377 . S
C497 C496 1.378 . S
C497 H519 0.931 . S
C498 O508 1.259 . S
C498 O509 1.270 . S
C499 O510 1.251 . S
C499 O511 1.251 . S
O500 C480 1.257 . S
O500 Eu481 2.473 . S
O501 C480 1.260 . S
O501 Eu481 2.480 . S
O502 Eu481 2.430 . S
O502 C488 1.259 . S
O503 Eu481 2.670 . S
O503 C488 1.270 . S
O503 Eu491 2.355 . S
O504 Eu481 2.394 . S
O504 C489 1.251 . S
O505 C489 1.251 . S
O505 Eu491 2.374 . S
O506 C490 1.257 . S
O506 Eu491 2.473 . S
O507 C490 1.260 . S
O507 Eu491 2.480 . S
O508 Eu491 2.430 . S
O508 C498 1.259 . S
O509 Eu481 2.355 . S
O509 Eu491 2.670 . S
O509 C498 1.270 . S
O510 Eu491 2.394 . S
O510 C499 1.251 . S
O511 Eu481 2.374 . S
O511 C499 1.251 . S
H512 C483 0.931 . S
H513 C484 0.931 . S
H514 C486 0.931 . S
H515 C487 0.931 . S
H516 C493 0.931 . S
H517 C494 0.931 . S
H518 C496 0.931 . S
H519 C497 0.931 . S
C520 Eu521 2.835 . S
C520 C522 1.500 . S
C520 O540 1.257 . S
C520 O541 1.260 . S
Eu521 C520 2.835 . S
Eu521 O540 2.473 . S
Eu521 O541 2.480 . S
Eu521 O542 2.430 . S
Eu521 O543 2.670 . S
Eu521 O544 2.394 . S
Eu521 O549 2.355 . S
Eu521 O551 2.374 . S
C522 C520 1.500 . S
C522 C523 1.377 . S
C522 C527 1.377 . S
C523 C522 1.377 . S
C523 C524 1.395 . S
C523 H552 0.931 . S
C524 C523 1.395 . S
C524 C525 1.383 . S
C524 H553 0.931 . S
C525 C524 1.383 . S
C525 C526 1.394 . S
C526 C525 1.394 . S
C526 C527 1.378 . S
C526 H554 0.931 . S
C527 C522 1.377 . S
C527 C526 1.378 . S
C527 H555 0.931 . S
C528 O542 1.259 . S
C528 O543 1.270 . S
C529 O544 1.251 . S
C529 O545 1.251 . S
C530 Eu531 2.835 . S
C530 C532 1.500 1_554 S
C530 O546 1.257 . S
C530 O547 1.260 . S
Eu531 C530 2.835 . S
Eu531 O543 2.355 . S
Eu531 O545 2.374 . S
Eu531 O546 2.473 . S
Eu531 O547 2.480 . S
Eu531 O548 2.430 . S
Eu531 O549 2.670 . S
Eu531 O550 2.394 . S
C532 C530 1.500 1_556 S
C532 C533 1.377 . S
C532 C537 1.377 . S
C533 C532 1.377 . S
C533 C534 1.395 . S
C533 H556 0.931 . S
C534 C533 1.395 . S
C534 C535 1.383 . S
C534 H557 0.931 . S
C535 C534 1.383 . S
C535 C536 1.394 . S
C536 C535 1.394 . S
C536 C537 1.378 . S
C536 H558 0.931 . S
C537 C532 1.377 . S
C537 C536 1.378 . S
C537 H559 0.931 . S
C538 O548 1.259 . S
C538 O549 1.270 . S
C539 O550 1.251 . S
C539 O551 1.251 . S
O540 C520 1.257 . S
O540 Eu521 2.473 . S
O541 C520 1.260 . S
O541 Eu521 2.480 . S
O542 Eu521 2.430 . S
O542 C528 1.259 . S
O543 Eu521 2.670 . S
O543 C528 1.270 . S
O543 Eu531 2.355 . S
O544 Eu521 2.394 . S
O544 C529 1.251 . S
O545 C529 1.251 . S
O545 Eu531 2.374 . S
O546 C530 1.257 . S
O546 Eu531 2.473 . S
O547 C530 1.260 . S
O547 Eu531 2.480 . S
O548 Eu531 2.430 . S
O548 C538 1.259 . S
O549 Eu521 2.355 . S
O549 Eu531 2.670 . S
O549 C538 1.270 . S
O550 Eu531 2.394 . S
O550 C539 1.251 . S
O551 Eu521 2.374 . S
O551 C539 1.251 . S
H552 C523 0.931 . S
H553 C524 0.931 . S
H554 C526 0.931 . S
H555 C527 0.931 . S
H556 C533 0.931 . S
H557 C534 0.931 . S
H558 C536 0.931 . S
H559 C537 0.931 . S
C560 Eu561 2.835 . S
C560 C562 1.486 1_554 S
C560 O580 1.257 . S
C560 O581 1.260 . S
Eu561 C560 2.835 . S
Eu561 O580 2.473 . S
Eu561 O581 2.480 . S
Eu561 O582 2.430 . S
Eu561 O583 2.670 . S
Eu561 O584 2.394 . S
Eu561 O589 2.355 . S
Eu561 O591 2.374 . S
C562 C560 1.486 1_556 S
C562 C563 1.386 . S
C562 C567 1.384 . S
C563 C562 1.386 . S
C563 C564 1.395 . S
C563 H592 0.931 . S
C564 C563 1.395 . S
C564 C565 1.383 . S
C564 H593 0.931 . S
C565 C564 1.383 . S
C565 C566 1.394 . S
C566 C565 1.394 . S
C566 C567 1.378 . S
C566 H594 0.931 . S
C567 C562 1.384 . S
C567 C566 1.378 . S
C567 H595 0.931 . S
C568 O582 1.259 . S
C568 O583 1.270 . S
C569 O584 1.251 . S
C569 O585 1.251 . S
C570 Eu571 2.835 . S
C570 C572 1.500 . S
C570 O586 1.257 . S
C570 O587 1.260 . S
Eu571 C570 2.835 . S
Eu571 O583 2.355 . S
Eu571 O585 2.374 . S
Eu571 O586 2.473 . S
Eu571 O587 2.480 . S
Eu571 O588 2.430 . S
Eu571 O589 2.670 . S
Eu571 O590 2.394 . S
C572 C570 1.500 . S
C572 C573 1.377 . S
C572 C577 1.377 . S
C573 C572 1.377 . S
C573 C574 1.395 . S
C573 H596 0.931 . S
C574 C573 1.395 . S
C574 C575 1.383 . S
C574 H597 0.931 . S
C575 C574 1.383 . S
C575 C576 1.394 . S
C576 C575 1.394 . S
C576 C577 1.378 . S
C576 H598 0.931 . S
C577 C572 1.377 . S
C577 C576 1.378 . S
C577 H599 0.931 . S
C578 O588 1.259 . S
C578 O589 1.270 . S
C579 O590 1.251 . S
C579 O591 1.251 . S
O580 C560 1.257 . S
O580 Eu561 2.473 . S
O581 C560 1.260 . S
O581 Eu561 2.480 . S
O582 Eu561 2.430 . S
O582 C568 1.259 . S
O583 Eu561 2.670 . S
O583 C568 1.270 . S
O583 Eu571 2.355 . S
O584 Eu561 2.394 . S
O584 C569 1.251 . S
O585 C569 1.251 . S
O585 Eu571 2.374 . S
O586 C570 1.257 . S
O586 Eu571 2.473 . S
O587 C570 1.260 . S
O587 Eu571 2.480 . S
O588 Eu571 2.430 . S
O588 C578 1.259 . S
O589 Eu561 2.355 . S
O589 Eu571 2.670 . S
O589 C578 1.270 . S
O590 Eu571 2.394 . S
O590 C579 1.251 . S
O591 Eu561 2.374 . S
O591 C579 1.251 . S
H592 C563 0.931 . S
H593 C564 0.931 . S
H594 C566 0.931 . S
H595 C567 0.931 . S
H596 C573 0.931 . S
H597 C574 0.931 . S
H598 C576 0.931 . S
H599 C577 0.931 . S
C600 Eu601 2.835 . S
C600 C602 1.500 1_554 S
C600 O620 1.257 . S
C600 O621 1.260 . S
Eu601 C600 2.835 . S
Eu601 O620 2.473 . S
Eu601 O621 2.480 . S
Eu601 O622 2.430 . S
Eu601 O623 2.670 . S
Eu601 O624 2.394 . S
Eu601 O629 2.355 . S
Eu601 O631 2.374 . S
C602 C600 1.500 1_556 S
C602 C603 1.377 . S
C602 C607 1.377 . S
C603 C602 1.377 . S
C603 C604 1.395 . S
C603 H632 0.931 . S
C604 C603 1.395 . S
C604 C605 1.383 . S
C604 H633 0.931 . S
C605 C604 1.383 . S
C605 C606 1.394 . S
C606 C605 1.394 . S
C606 C607 1.378 . S
C606 H634 0.931 . S
C607 C602 1.377 . S
C607 C606 1.378 . S
C607 H635 0.931 . S
C608 O622 1.259 . S
C608 O623 1.270 . S
C609 O624 1.251 . S
C609 O625 1.251 . S
C610 Eu611 2.835 . S
C610 C612 1.500 . S
C610 O626 1.257 . S
C610 O627 1.260 . S
Eu611 C610 2.835 . S
Eu611 O623 2.355 . S
Eu611 O625 2.374 . S
Eu611 O626 2.473 . S
Eu611 O627 2.480 . S
Eu611 O628 2.430 . S
Eu611 O629 2.670 . S
Eu611 O630 2.394 . S
C612 C610 1.500 . S
C612 C613 1.377 . S
C612 C617 1.377 . S
C613 C612 1.377 . S
C613 C614 1.395 . S
C613 H636 0.931 . S
C614 C613 1.395 . S
C614 C615 1.383 . S
C614 H637 0.931 . S
C615 C614 1.383 . S
C615 C616 1.394 . S
C616 C615 1.394 . S
C616 C617 1.378 . S
C616 H638 0.931 . S
C617 C612 1.377 . S
C617 C616 1.378 . S
C617 H639 0.931 . S
C618 O628 1.259 . S
C618 O629 1.270 . S
C619 O630 1.251 . S
C619 O631 1.251 . S
O620 C600 1.257 . S
O620 Eu601 2.473 . S
O621 C600 1.260 . S
O621 Eu601 2.480 . S
O622 Eu601 2.430 . S
O622 C608 1.259 . S
O623 Eu601 2.670 . S
O623 C608 1.270 . S
O623 Eu611 2.355 . S
O624 Eu601 2.394 . S
O624 C609 1.251 . S
O625 C609 1.251 . S
O625 Eu611 2.374 . S
O626 C610 1.257 . S
O626 Eu611 2.473 . S
O627 C610 1.260 . S
O627 Eu611 2.480 . S
O628 Eu611 2.430 . S
O628 C618 1.259 . S
O629 Eu601 2.355 . S
O629 Eu611 2.670 . S
O629 C618 1.270 . S
O630 Eu611 2.394 . S
O630 C619 1.251 . S
O631 Eu601 2.374 . S
O631 C619 1.251 . S
H632 C603 0.931 . S
H633 C604 0.931 . S
H634 C606 0.931 . S
H635 C607 0.931 . S
H636 C613 0.931 . S
H637 C614 0.931 . S
H638 C616 0.931 . S
H639 C617 0.931 . S
C640 Eu641 2.835 . S
C640 C642 1.500 . S
C640 O660 1.257 . S
C640 O661 1.260 . S
Eu641 C640 2.835 . S
Eu641 O660 2.473 . S
Eu641 O661 2.480 . S
Eu641 O662 2.430 . S
Eu641 O663 2.670 . S
Eu641 O664 2.394 . S
Eu641 O669 2.355 . S
Eu641 O671 2.374 . S
C642 C640 1.500 . S
C642 C643 1.377 . S
C642 C647 1.377 . S
C643 C642 1.377 . S
C643 C644 1.395 . S
C643 H672 0.931 . S
C644 C643 1.395 . S
C644 C645 1.383 . S
C644 H673 0.931 . S
C645 C644 1.383 . S
C645 C646 1.394 . S
C646 C645 1.394 . S
C646 C647 1.378 . S
C646 H674 0.931 . S
C647 C642 1.377 . S
C647 C646 1.378 . S
C647 H675 0.931 . S
C648 O662 1.259 . S
C648 O663 1.270 . S
C649 O664 1.251 . S
C649 O665 1.251 . S
C650 Eu651 2.835 . S
C650 C652 1.500 . S
C650 O666 1.257 . S
C650 O667 1.260 . S
Eu651 C650 2.835 . S
Eu651 O663 2.355 . S
Eu651 O665 2.374 . S
Eu651 O666 2.473 . S
Eu651 O667 2.480 . S
Eu651 O668 2.430 . S
Eu651 O669 2.670 . S
Eu651 O670 2.394 . S
C652 C650 1.500 . S
C652 C653 1.377 . S
C652 C657 1.377 . S
C653 C652 1.377 . S
C653 C654 1.395 1_554 S
C653 H676 0.931 . S
C654 C653 1.395 1_556 S
C654 C655 1.383 . S
C654 H677 0.931 . S
C655 C654 1.383 . S
C655 C656 1.394 . S
C656 C655 1.394 . S
C656 C657 1.378 1_556 S
C656 H678 0.931 . S
C657 C652 1.377 . S
C657 C656 1.378 1_554 S
C657 H679 0.931 . S
C658 O668 1.259 . S
C658 O669 1.270 . S
C659 O670 1.251 . S
C659 O671 1.251 . S
O660 C640 1.257 . S
O660 Eu641 2.473 . S
O661 C640 1.260 . S
O661 Eu641 2.480 . S
O662 Eu641 2.430 . S
O662 C648 1.259 . S
O663 Eu641 2.670 . S
O663 C648 1.270 . S
O663 Eu651 2.355 . S
O664 Eu641 2.394 . S
O664 C649 1.251 . S
O665 C649 1.251 . S
O665 Eu651 2.374 . S
O666 C650 1.257 . S
O666 Eu651 2.473 . S
O667 C650 1.260 . S
O667 Eu651 2.480 . S
O668 Eu651 2.430 . S
O668 C658 1.259 . S
O669 Eu641 2.355 . S
O669 Eu651 2.670 . S
O669 C658 1.270 . S
O670 Eu651 2.394 . S
O670 C659 1.251 . S
O671 Eu641 2.374 . S
O671 C659 1.251 . S
H672 C643 0.931 . S
H673 C644 0.931 . S
H674 C646 0.931 . S
H675 C647 0.931 . S
H676 C653 0.931 . S
H677 C654 0.931 . S
H678 C656 0.931 . S
H679 C657 0.931 . S
C680 Eu681 2.835 . S
C680 C682 1.500 . S
C680 O700 1.257 . S
C680 O701 1.260 . S
Eu681 C680 2.835 . S
Eu681 O700 2.473 . S
Eu681 O701 2.480 . S
Eu681 O702 2.430 . S
Eu681 O703 2.670 . S
Eu681 O704 2.394 . S
Eu681 O709 2.355 . S
Eu681 O711 2.374 . S
C682 C680 1.500 . S
C682 C683 1.377 1_554 S
C682 C687 1.377 1_554 S
C683 C682 1.377 1_556 S
C683 C684 1.395 . S
C683 H712 0.931 1_556 S
C684 C683 1.395 . S
C684 C685 1.383 . S
C684 H713 0.931 . S
C685 C684 1.383 . S
C685 C686 1.394 . S
C686 C685 1.394 . S
C686 C687 1.378 . S
C686 H714 0.931 . S
C687 C682 1.377 1_556 S
C687 C686 1.378 . S
C687 H715 0.931 1_556 S
C688 O702 1.259 . S
C688 O703 1.270 . S
C689 O704 1.251 . S
C689 O705 1.251 . S
C690 Eu691 2.835 . S
C690 C692 1.500 . S
C690 O706 1.257 . S
C690 O707 1.260 . S
Eu691 C690 2.835 . S
Eu691 O703 2.355 . S
Eu691 O705 2.374 . S
Eu691 O706 2.473 . S
Eu691 O707 2.480 . S
Eu691 O708 2.430 . S
Eu691 O709 2.670 . S
Eu691 O710 2.394 . S
C692 C690 1.500 . S
C692 C693 1.377 . S
C692 C697 1.377 . S
C693 C692 1.377 . S
C693 C694 1.395 . S
C693 H716 0.931 . S
C694 C693 1.395 . S
C694 C695 1.383 . S
C694 H717 0.931 . S
C695 C694 1.383 . S
C695 C696 1.394 . S
C696 C695 1.394 . S
C696 C697 1.378 . S
C696 H718 0.931 . S
C697 C692 1.377 . S
C697 C696 1.378 . S
C697 H719 0.931 . S
C698 O708 1.259 . S
C698 O709 1.270 . S
C699 O710 1.251 . S
C699 O711 1.251 . S
O700 C680 1.257 . S
O700 Eu681 2.473 . S
O701 C680 1.260 . S
O701 Eu681 2.480 . S
O702 Eu681 2.430 . S
O702 C688 1.259 . S
O703 Eu681 2.670 . S
O703 C688 1.270 . S
O703 Eu691 2.355 . S
O704 Eu681 2.394 . S
O704 C689 1.251 . S
O705 C689 1.251 . S
O705 Eu691 2.374 . S
O706 C690 1.257 . S
O706 Eu691 2.473 . S
O707 C690 1.260 . S
O707 Eu691 2.480 . S
O708 Eu691 2.430 . S
O708 C698 1.259 . S
O709 Eu681 2.355 . S
O709 Eu691 2.670 . S
O709 C698 1.270 . S
O710 Eu691 2.394 . S
O710 C699 1.251 . S
O711 Eu681 2.374 . S
O711 C699 1.251 . S
H712 C683 0.931 1_554 S
H713 C684 0.931 . S
H714 C686 0.931 . S
H715 C687 0.931 1_554 S
H716 C693 0.931 . S
H717 C694 0.931 . S
H718 C696 0.931 . S
H719 C697 0.931 . S
C720 C721 1.349 . S
C720 C722 1.327 . S
C720 H745 0.950 . S
C721 C720 1.349 . S
C721 C737 1.349 . S
C722 C720 1.327 . S
C722 C741 1.429 . S
C722 H746 0.950 . S
C723 C740 1.574 . S
C723 C742 1.368 . S
C723 H747 0.949 . S
H724 C728 0.949 . S
C725 C726 1.349 . S
C725 C727 1.327 . S
C725 H748 0.950 . S
C726 C725 1.349 . S
C726 C738 1.349 . S
C727 C725 1.327 . S
C727 C743 1.429 . S
C727 H749 0.950 . S
C728 H724 0.949 . S
C728 C736 1.574 . S
C728 C744 1.368 . S
H729 C737 0.950 . S
H730 C735 0.950 . S
H731 C736 0.949 . S
H732 C738 0.950 . S
H733 C739 0.950 . S
H734 C740 0.949 . S
C735 H730 0.950 . S
C735 C737 1.327 . S
C735 C741 1.429 . S
C736 C728 1.574 . S
C736 H731 0.949 . S
C736 C742 1.368 . S
C737 C721 1.349 . S
C737 H729 0.950 . S
C737 C735 1.327 . S
C738 C726 1.349 . S
C738 H732 0.950 . S
C738 C739 1.327 . S
C739 H733 0.950 . S
C739 C738 1.327 . S
C739 C743 1.429 . S
C740 C723 1.574 . S
C740 H734 0.949 . S
C740 C744 1.368 . S
C741 C722 1.429 . S
C741 C735 1.429 . S
C741 C742 1.523 . S
C742 C723 1.368 . S
C742 C736 1.368 . S
C742 C741 1.523 . S
C743 C727 1.429 . S
C743 C739 1.429 . S
C743 C744 1.523 . S
C744 C728 1.368 . S
C744 C740 1.368 . S
C744 C743 1.523 . S
H745 C720 0.950 . S
H746 C722 0.950 . S
H747 C723 0.949 . S
H748 C725 0.950 . S
H749 C727 0.950 . S
C750 C751 1.349 . S
C750 C752 1.327 . S
C750 H775 0.950 . S
C751 C750 1.349 . S
C751 C767 1.349 . S
C752 C750 1.327 . S
C752 C771 1.429 . S
C752 H776 0.950 . S
C753 C770 1.574 . S
C753 C772 1.368 . S
C753 H777 0.949 . S
H754 C758 0.949 . S
C755 C756 1.349 . S
C755 C757 1.327 . S
C755 H778 0.950 . S
C756 C755 1.349 . S
C756 C768 1.349 . S
C757 C755 1.327 . S
C757 C773 1.429 . S
C757 H779 0.950 . S
C758 H754 0.949 . S
C758 C766 1.574 . S
C758 C774 1.368 . S
H759 C767 0.950 . S
H760 C765 0.950 . S
H761 C766 0.949 . S
H762 C768 0.950 . S
H763 C769 0.950 . S
H764 C770 0.949 . S
C765 H760 0.950 . S
C765 C767 1.327 . S
C765 C771 1.429 . S
C766 C758 1.574 . S
C766 H761 0.949 . S
C766 C772 1.368 . S
C767 C751 1.349 . S
C767 H759 0.950 . S
C767 C765 1.327 . S
C768 C756 1.349 . S
C768 H762 0.950 . S
C768 C769 1.327 . S
C769 H763 0.950 . S
C769 C768 1.327 . S
C769 C773 1.429 . S
C770 C753 1.574 . S
C770 H764 0.949 . S
C770 C774 1.368 . S
C771 C752 1.429 . S
C771 C765 1.429 . S
C771 C772 1.523 . S
C772 C753 1.368 . S
C772 C766 1.368 . S
C772 C771 1.523 . S
C773 C757 1.429 . S
C773 C769 1.429 . S
C773 C774 1.523 . S
C774 C758 1.368 . S
C774 C770 1.368 . S
C774 C773 1.523 . S
H775 C750 0.950 . S
H776 C752 0.950 . S
H777 C753 0.949 . S
H778 C755 0.950 . S
H779 C757 0.950 . S
C780 C781 1.349 . S
C780 C782 1.327 . S
C780 H805 0.950 . S
C781 C780 1.349 . S
C781 C797 1.349 . S
C782 C780 1.327 . S
C782 C801 1.429 . S
C782 H806 0.950 . S
C783 C800 1.574 . S
C783 C802 1.368 . S
C783 H807 0.949 . S
H784 C788 0.949 . S
C785 C786 1.349 . S
C785 C787 1.327 . S
C785 H808 0.950 . S
C786 C785 1.349 . S
C786 C798 1.349 . S
C787 C785 1.327 . S
C787 C803 1.429 . S
C787 H809 0.950 . S
C788 H784 0.949 . S
C788 C796 1.574 . S
C788 C804 1.368 . S
H789 C797 0.950 . S
H790 C795 0.950 . S
H791 C796 0.949 . S
H792 C798 0.950 . S
H793 C799 0.950 . S
H794 C800 0.949 . S
C795 H790 0.950 . S
C795 C797 1.327 . S
C795 C801 1.429 . S
C796 C788 1.574 . S
C796 H791 0.949 . S
C796 C802 1.368 . S
C797 C781 1.349 . S
C797 H789 0.950 . S
C797 C795 1.327 . S
C798 C786 1.349 . S
C798 H792 0.950 . S
C798 C799 1.327 . S
C799 H793 0.950 . S
C799 C798 1.327 . S
C799 C803 1.429 . S
C800 C783 1.574 . S
C800 H794 0.949 . S
C800 C804 1.368 . S
C801 C782 1.429 . S
C801 C795 1.429 . S
C801 C802 1.523 . S
C802 C783 1.368 . S
C802 C796 1.368 . S
C802 C801 1.523 . S
C803 C787 1.429 . S
C803 C799 1.429 . S
C803 C804 1.523 . S
C804 C788 1.368 . S
C804 C800 1.368 . S
C804 C803 1.523 . S
H805 C780 0.950 . S
H806 C782 0.950 . S
H807 C783 0.949 . S
H808 C785 0.950 . S
H809 C787 0.950 . S
C810 C811 1.349 . S
C810 C812 1.327 . S
C810 H835 0.950 . S
C811 C810 1.349 . S
C811 C827 1.349 . S
C812 C810 1.327 . S
C812 C831 1.429 . S
C812 H836 0.950 . S
C813 C830 1.574 . S
C813 C832 1.368 . S
C813 H837 0.949 . S
H814 C818 0.949 . S
C815 C816 1.349 . S
C815 C817 1.327 . S
C815 H838 0.950 . S
C816 C815 1.349 . S
C816 C828 1.349 . S
C817 C815 1.327 . S
C817 C833 1.429 . S
C817 H839 0.950 . S
C818 H814 0.949 . S
C818 C826 1.574 . S
C818 C834 1.368 . S
H819 C827 0.950 . S
H820 C825 0.950 . S
H821 C826 0.949 . S
H822 C828 0.950 . S
H823 C829 0.950 . S
H824 C830 0.949 . S
C825 H820 0.950 . S
C825 C827 1.327 . S
C825 C831 1.429 . S
C826 C818 1.574 . S
C826 H821 0.949 . S
C826 C832 1.368 . S
C827 C811 1.349 . S
C827 H819 0.950 . S
C827 C825 1.327 . S
C828 C816 1.349 . S
C828 H822 0.950 . S
C828 C829 1.327 . S
C829 H823 0.950 . S
C829 C828 1.327 . S
C829 C833 1.429 . S
C830 C813 1.574 . S
C830 H824 0.949 . S
C830 C834 1.368 . S
C831 C812 1.429 . S
C831 C825 1.429 . S
C831 C832 1.523 . S
C832 C813 1.368 . S
C832 C826 1.368 . S
C832 C831 1.523 . S
C833 C817 1.429 . S
C833 C829 1.429 . S
C833 C834 1.523 . S
C834 C818 1.368 . S
C834 C830 1.368 . S
C834 C833 1.523 . S
H835 C810 0.950 . S
H836 C812 0.950 . S
H837 C813 0.949 . S
H838 C815 0.950 . S
H839 C817 0.950 . S
C840 C841 1.349 . S
C840 C842 1.327 . S
C840 H865 0.950 . S
C841 C840 1.349 . S
C841 C857 1.349 . S
C842 C840 1.327 . S
C842 C861 1.429 . S
C842 H866 0.950 . S
C843 C860 1.574 . S
C843 C862 1.368 . S
C843 H867 0.949 . S
H844 C848 0.949 . S
C845 C846 1.349 . S
C845 C847 1.327 . S
C845 H868 0.950 . S
C846 C845 1.349 . S
C846 C858 1.349 . S
C847 C845 1.327 . S
C847 C863 1.429 . S
C847 H869 0.950 . S
C848 H844 0.949 . S
C848 C856 1.574 . S
C848 C864 1.368 . S
H849 C857 0.950 . S
H850 C855 0.950 . S
H851 C856 0.949 . S
H852 C858 0.950 . S
H853 C859 0.950 . S
H854 C860 0.949 . S
C855 H850 0.950 . S
C855 C857 1.327 . S
C855 C861 1.429 . S
C856 C848 1.574 . S
C856 H851 0.949 . S
C856 C862 1.368 . S
C857 C841 1.349 . S
C857 H849 0.950 . S
C857 C855 1.327 . S
C858 C846 1.349 . S
C858 H852 0.950 . S
C858 C859 1.327 . S
C859 H853 0.950 . S
C859 C858 1.327 . S
C859 C863 1.429 . S
C860 C843 1.574 . S
C860 H854 0.949 . S
C860 C864 1.368 . S
C861 C842 1.429 . S
C861 C855 1.429 . S
C861 C862 1.523 . S
C862 C843 1.368 . S
C862 C856 1.368 . S
C862 C861 1.523 . S
C863 C847 1.429 . S
C863 C859 1.429 . S
C863 C864 1.523 . S
C864 C848 1.368 . S
C864 C860 1.368 . S
C864 C863 1.523 . S
H865 C840 0.950 . S
H866 C842 0.950 . S
H867 C843 0.949 . S
H868 C845 0.950 . S
H869 C847 0.950 . S
C870 C871 1.349 . S
C870 C872 1.327 . S
C870 H895 0.950 . S
C871 C870 1.349 . S
C871 C887 1.349 . S
C872 C870 1.327 . S
C872 C891 1.429 . S
C872 H896 0.950 . S
C873 C890 1.574 . S
C873 C892 1.368 . S
C873 H897 0.949 . S
H874 C878 0.949 . S
C875 C876 1.349 . S
C875 C877 1.327 . S
C875 H898 0.950 . S
C876 C875 1.349 . S
C876 C888 1.349 . S
C877 C875 1.327 . S
C877 C893 1.429 . S
C877 H899 0.950 . S
C878 H874 0.949 . S
C878 C886 1.574 . S
C878 C894 1.368 . S
H879 C887 0.950 . S
H880 C885 0.950 . S
H881 C886 0.949 . S
H882 C888 0.950 . S
H883 C889 0.950 . S
H884 C890 0.949 . S
C885 H880 0.950 . S
C885 C887 1.327 . S
C885 C891 1.429 . S
C886 C878 1.574 . S
C886 H881 0.949 . S
C886 C892 1.368 . S
C887 C871 1.349 . S
C887 H879 0.950 . S
C887 C885 1.327 . S
C888 C876 1.349 . S
C888 H882 0.950 . S
C888 C889 1.327 . S
C889 H883 0.950 . S
C889 C888 1.327 . S
C889 C893 1.429 . S
C890 C873 1.574 . S
C890 H884 0.949 . S
C890 C894 1.368 . S
C891 C872 1.429 . S
C891 C885 1.429 . S
C891 C892 1.523 . S
C892 C873 1.368 . S
C892 C886 1.368 . S
C892 C891 1.523 . S
C893 C877 1.429 . S
C893 C889 1.429 . S
C893 C894 1.523 . S
C894 C878 1.368 . S
C894 C890 1.368 . S
C894 C893 1.523 . S
H895 C870 0.950 . S
H896 C872 0.950 . S
H897 C873 0.949 . S
H898 C875 0.950 . S
H899 C877 0.950 . S
C900 C901 1.349 . S
C900 C902 1.327 . S
C900 H925 0.950 . S
C901 C900 1.349 . S
C901 C917 1.349 . S
C902 C900 1.327 . S
C902 C921 1.429 . S
C902 H926 0.950 . S
C903 C920 1.574 . S
C903 C922 1.368 . S
C903 H927 0.949 . S
H904 C908 0.949 . S
C905 C906 1.349 . S
C905 C907 1.327 . S
C905 H928 0.950 . S
C906 C905 1.349 . S
C906 C918 1.349 . S
C907 C905 1.327 . S
C907 C923 1.429 . S
C907 H929 0.950 . S
C908 H904 0.949 . S
C908 C916 1.574 . S
C908 C924 1.368 . S
H909 C917 0.950 . S
H910 C915 0.950 . S
H911 C916 0.949 . S
H912 C918 0.950 . S
H913 C919 0.950 . S
H914 C920 0.949 . S
C915 H910 0.950 . S
C915 C917 1.327 . S
C915 C921 1.429 . S
C916 C908 1.574 . S
C916 H911 0.949 . S
C916 C922 1.368 . S
C917 C901 1.349 . S
C917 H909 0.950 . S
C917 C915 1.327 . S
C918 C906 1.349 . S
C918 H912 0.950 . S
C918 C919 1.327 . S
C919 H913 0.950 . S
C919 C918 1.327 . S
C919 C923 1.429 . S
C920 C903 1.574 . S
C920 H914 0.949 . S
C920 C924 1.368 . S
C921 C902 1.429 . S
C921 C915 1.429 . S
C921 C922 1.523 . S
C922 C903 1.368 . S
C922 C916 1.368 . S
C922 C921 1.523 . S
C923 C907 1.429 . S
C923 C919 1.429 . S
C923 C924 1.523 . S
C924 C908 1.368 . S
C924 C920 1.368 . S
C924 C923 1.523 . S
H925 C900 0.950 . S
H926 C902 0.950 . S
H927 C903 0.949 . S
H928 C905 0.950 . S
H929 C907 0.950 . S
C930 C931 1.349 . S
C930 C932 1.327 . S
C930 H955 0.950 . S
C931 C930 1.349 . S
C931 C947 1.349 . S
C932 C930 1.327 . S
C932 C951 1.429 . S
C932 H956 0.950 . S
C933 C950 1.574 . S
C933 C952 1.368 . S
C933 H957 0.949 . S
H934 C938 0.949 . S
C935 C936 1.349 . S
C935 C937 1.327 . S
C935 H958 0.950 . S
C936 C935 1.349 . S
C936 C948 1.349 . S
C937 C935 1.327 . S
C937 C953 1.429 . S
C937 H959 0.950 . S
C938 H934 0.949 . S
C938 C946 1.574 . S
C938 C954 1.368 . S
H939 C947 0.950 . S
H940 C945 0.950 . S
H941 C946 0.949 . S
H942 C948 0.950 . S
H943 C949 0.950 . S
H944 C950 0.949 . S
C945 H940 0.950 . S
C945 C947 1.327 . S
C945 C951 1.429 . S
C946 C938 1.574 . S
C946 H941 0.949 . S
C946 C952 1.368 . S
C947 C931 1.349 . S
C947 H939 0.950 . S
C947 C945 1.327 . S
C948 C936 1.349 . S
C948 H942 0.950 . S
C948 C949 1.327 . S
C949 H943 0.950 . S
C949 C948 1.327 . S
C949 C953 1.429 . S
C950 C933 1.574 . S
C950 H944 0.949 . S
C950 C954 1.368 . S
C951 C932 1.429 . S
C951 C945 1.429 . S
C951 C952 1.523 . S
C952 C933 1.368 . S
C952 C946 1.368 . S
C952 C951 1.523 . S
C953 C937 1.429 . S
C953 C949 1.429 . S
C953 C954 1.523 . S
C954 C938 1.368 . S
C954 C950 1.368 . S
C954 C953 1.523 . S
H955 C930 0.950 . S
H956 C932 0.950 . S
H957 C933 0.949 . S
H958 C935 0.950 . S
H959 C937 0.950 . S
C960 C961 1.349 . S
C960 C962 1.327 . S
C960 H985 0.950 . S
C961 C960 1.349 . S
C961 C977 1.349 . S
C962 C960 1.327 . S
C962 C981 1.429 . S
C962 H986 0.950 . S
C963 C980 1.574 . S
C963 C982 1.368 . S
C963 H987 0.949 . S
H964 C968 0.949 . S
C965 C966 1.349 . S
C965 C967 1.327 . S
C965 H988 0.950 . S
C966 C965 1.349 . S
C966 C978 1.349 . S
C967 C965 1.327 . S
C967 C983 1.429 . S
C967 H989 0.950 . S
C968 H964 0.949 . S
C968 C976 1.574 . S
C968 C984 1.368 . S
H969 C977 0.950 . S
H970 C975 0.950 . S
H971 C976 0.949 . S
H972 C978 0.950 . S
H973 C979 0.950 . S
H974 C980 0.949 . S
C975 H970 0.950 . S
C975 C977 1.327 . S
C975 C981 1.429 . S
C976 C968 1.574 . S
C976 H971 0.949 . S
C976 C982 1.368 . S
C977 C961 1.349 . S
C977 H969 0.950 . S
C977 C975 1.327 . S
C978 C966 1.349 . S
C978 H972 0.950 . S
C978 C979 1.327 . S
C979 H973 0.950 . S
C979 C978 1.327 . S
C979 C983 1.429 . S
C980 C963 1.574 . S
C980 H974 0.949 . S
C980 C984 1.368 . S
C981 C962 1.429 . S
C981 C975 1.429 . S
C981 C982 1.523 . S
C982 C963 1.368 . S
C982 C976 1.368 . S
C982 C981 1.523 . S
C983 C967 1.429 . S
C983 C979 1.429 . S
C983 C984 1.523 . S
C984 C968 1.368 . S
C984 C980 1.368 . S
C984 C983 1.523 . S
H985 C960 0.950 . S
H986 C962 0.950 . S
H987 C963 0.949 . S
H988 C965 0.950 . S
H989 C967 0.950 . S
C990 C991 1.349 . S
C990 C992 1.327 . S
C990 H1015 0.950 . S
C991 C990 1.349 . S
C991 C1007 1.349 . S
C992 C990 1.327 . S
C992 C1011 1.429 . S
C992 H1016 0.950 . S
C993 C1010 1.574 . S
C993 C1012 1.368 . S
C993 H1017 0.949 . S
H994 C998 0.949 . S
C995 C996 1.349 . S
C995 C997 1.327 . S
C995 H1018 0.950 . S
C996 C995 1.349 . S
C996 C1008 1.349 . S
C997 C995 1.327 . S
C997 C1013 1.429 . S
C997 H1019 0.950 . S
C998 H994 0.949 . S
C998 C1006 1.574 . S
C998 C1014 1.368 . S
H999 C1007 0.950 . S
H1000 C1005 0.950 . S
H1001 C1006 0.949 . S
H1002 C1008 0.950 . S
H1003 C1009 0.950 . S
H1004 C1010 0.949 . S
C1005 H1000 0.950 . S
C1005 C1007 1.327 . S
C1005 C1011 1.429 . S
C1006 C998 1.574 . S
C1006 H1001 0.949 . S
C1006 C1012 1.368 . S
C1007 C991 1.349 . S
C1007 H999 0.950 . S
C1007 C1005 1.327 . S
C1008 C996 1.349 . S
C1008 H1002 0.950 . S
C1008 C1009 1.327 . S
C1009 H1003 0.950 . S
C1009 C1008 1.327 . S
C1009 C1013 1.429 . S
C1010 C993 1.574 . S
C1010 H1004 0.949 . S
C1010 C1014 1.368 . S
C1011 C992 1.429 . S
C1011 C1005 1.429 . S
C1011 C1012 1.523 . S
C1012 C993 1.368 . S
C1012 C1006 1.368 . S
C1012 C1011 1.523 . S
C1013 C997 1.429 . S
C1013 C1009 1.429 . S
C1013 C1014 1.523 . S
C1014 C998 1.368 . S
C1014 C1010 1.368 . S
C1014 C1013 1.523 . S
H1015 C990 0.950 . S
H1016 C992 0.950 . S
H1017 C993 0.949 . S
H1018 C995 0.950 . S
H1019 C997 0.950 . S
C1020 C1021 1.349 . S
C1020 C1022 1.327 . S
C1020 H1045 0.950 . S
C1021 C1020 1.349 . S
C1021 C1037 1.349 . S
C1022 C1020 1.327 . S
C1022 C1041 1.429 . S
C1022 H1046 0.950 . S
C1023 C1040 1.574 . S
C1023 C1042 1.368 . S
C1023 H1047 0.949 . S
H1024 C1028 0.949 . S
C1025 C1026 1.349 . S
C1025 C1027 1.327 . S
C1025 H1048 0.950 . S
C1026 C1025 1.349 . S
C1026 C1038 1.349 . S
C1027 C1025 1.327 . S
C1027 C1043 1.429 . S
C1027 H1049 0.950 . S
C1028 H1024 0.949 . S
C1028 C1036 1.574 . S
C1028 C1044 1.368 . S
H1029 C1037 0.950 . S
H1030 C1035 0.950 . S
H1031 C1036 0.949 . S
H1032 C1038 0.950 . S
H1033 C1039 0.950 . S
H1034 C1040 0.949 . S
C1035 H1030 0.950 . S
C1035 C1037 1.327 . S
C1035 C1041 1.429 . S
C1036 C1028 1.574 . S
C1036 H1031 0.949 . S
C1036 C1042 1.368 . S
C1037 C1021 1.349 . S
C1037 H1029 0.950 . S
C1037 C1035 1.327 . S
C1038 C1026 1.349 . S
C1038 H1032 0.950 . S
C1038 C1039 1.327 . S
C1039 H1033 0.950 . S
C1039 C1038 1.327 . S
C1039 C1043 1.429 . S
C1040 C1023 1.574 . S
C1040 H1034 0.949 . S
C1040 C1044 1.368 . S
C1041 C1022 1.429 . S
C1041 C1035 1.429 . S
C1041 C1042 1.523 . S
C1042 C1023 1.368 . S
C1042 C1036 1.368 . S
C1042 C1041 1.523 . S
C1043 C1027 1.429 . S
C1043 C1039 1.429 . S
C1043 C1044 1.523 . S
C1044 C1028 1.368 . S
C1044 C1040 1.368 . S
C1044 C1043 1.523 . S
H1045 C1020 0.950 . S
H1046 C1022 0.950 . S
H1047 C1023 0.949 . S
H1048 C1025 0.950 . S
H1049 C1027 0.950 . S
C1050 C1051 1.349 . S
C1050 C1052 1.327 . S
C1050 H1075 0.950 . S
C1051 C1050 1.349 . S
C1051 C1067 1.349 . S
C1052 C1050 1.327 . S
C1052 C1071 1.429 . S
C1052 H1076 0.950 . S
C1053 C1070 1.574 . S
C1053 C1072 1.368 . S
C1053 H1077 0.949 . S
H1054 C1058 0.949 . S
C1055 C1056 1.349 . S
C1055 C1057 1.327 . S
C1055 H1078 0.950 . S
C1056 C1055 1.349 . S
C1056 C1068 1.349 . S
C1057 C1055 1.327 . S
C1057 C1073 1.429 . S
C1057 H1079 0.950 . S
C1058 H1054 0.949 . S
C1058 C1066 1.574 . S
C1058 C1074 1.368 . S
H1059 C1067 0.950 . S
H1060 C1065 0.950 . S
H1061 C1066 0.949 . S
H1062 C1068 0.950 . S
H1063 C1069 0.950 . S
H1064 C1070 0.949 . S
C1065 H1060 0.950 . S
C1065 C1067 1.327 . S
C1065 C1071 1.429 . S
C1066 C1058 1.574 . S
C1066 H1061 0.949 . S
C1066 C1072 1.368 . S
C1067 C1051 1.349 . S
C1067 H1059 0.950 . S
C1067 C1065 1.327 . S
C1068 C1056 1.349 . S
C1068 H1062 0.950 . S
C1068 C1069 1.327 . S
C1069 H1063 0.950 . S
C1069 C1068 1.327 . S
C1069 C1073 1.429 . S
C1070 C1053 1.574 . S
C1070 H1064 0.949 . S
C1070 C1074 1.368 . S
C1071 C1052 1.429 . S
C1071 C1065 1.429 . S
C1071 C1072 1.523 . S
C1072 C1053 1.368 . S
C1072 C1066 1.368 . S
C1072 C1071 1.523 . S
C1073 C1057 1.429 . S
C1073 C1069 1.429 . S
C1073 C1074 1.523 . S
C1074 C1058 1.368 . S
C1074 C1070 1.368 . S
C1074 C1073 1.523 . S
H1075 C1050 0.950 . S
H1076 C1052 0.950 . S
H1077 C1053 0.949 . S
H1078 C1055 0.950 . S
H1079 C1057 0.950 . S
C1080 C1081 1.349 . S
C1080 C1082 1.327 . S
C1080 H1105 0.950 . S
C1081 C1080 1.349 . S
C1081 C1097 1.349 . S
C1082 C1080 1.327 . S
C1082 C1101 1.429 . S
C1082 H1106 0.950 . S
C1083 C1100 1.571 1_656 S
C1083 C1102 1.373 . S
C1083 H1107 0.947 1_556 S
H1084 C1088 0.949 . S
C1085 C1086 1.349 . S
C1085 C1087 1.327 . S
C1085 H1108 0.950 . S
C1086 C1085 1.349 . S
C1086 C1098 1.349 . S
C1087 C1085 1.327 . S
C1087 C1103 1.429 . S
C1087 H1109 0.950 . S
C1088 H1084 0.949 . S
C1088 C1096 1.590 . S
C1088 C1104 1.368 1_556 S
H1089 C1097 0.950 . S
H1090 C1095 0.950 . S
H1091 C1096 0.958 1_655 S
H1092 C1098 0.950 . S
H1093 C1099 0.950 . S
H1094 C1100 0.949 . S
C1095 H1090 0.950 . S
C1095 C1097 1.327 . S
C1095 C1101 1.429 . S
C1096 C1088 1.590 . S
C1096 H1091 0.958 1_455 S
C1096 C1102 1.348 1_455 S
C1097 C1081 1.349 . S
C1097 H1089 0.950 . S
C1097 C1095 1.327 . S
C1098 C1086 1.349 . S
C1098 H1092 0.950 . S
C1098 C1099 1.327 . S
C1099 H1093 0.950 . S
C1099 C1098 1.327 . S
C1099 C1103 1.429 . S
C1100 C1083 1.571 1_454 S
C1100 H1094 0.949 . S
C1100 C1104 1.368 . S
C1101 C1082 1.429 . S
C1101 C1095 1.429 . S
C1101 C1102 1.523 . S
C1102 C1083 1.373 . S
C1102 C1096 1.348 1_655 S
C1102 C1101 1.523 . S
C1103 C1087 1.429 . S
C1103 C1099 1.429 . S
C1103 C1104 1.523 . S
C1104 C1088 1.368 1_554 S
C1104 C1100 1.368 . S
C1104 C1103 1.523 . S
H1105 C1080 0.950 . S
H1106 C1082 0.950 . S
H1107 C1083 0.947 1_554 S
H1108 C1085 0.950 . S
H1109 C1087 0.950 . S
C1110 C1111 1.349 . S
C1110 C1112 1.327 . S
C1110 H1135 0.950 . S
C1111 C1110 1.349 . S
C1111 C1127 1.349 . S
C1112 C1110 1.327 . S
C1112 C1131 1.429 . S
C1112 H1136 0.950 . S
C1113 C1130 1.574 . S
C1113 C1132 1.368 1_554 S
C1113 H1137 0.949 . S
H1114 C1118 0.949 . S
C1115 C1116 1.349 . S
C1115 C1117 1.327 . S
C1115 H1138 0.950 . S
C1116 C1115 1.349 . S
C1116 C1128 1.349 . S
C1117 C1115 1.327 . S
C1117 C1133 1.429 . S
C1117 H1139 0.950 . S
C1118 H1114 0.949 . S
C1118 C1126 1.574 . S
C1118 C1134 1.368 1_556 S
H1119 C1127 0.950 . S
H1120 C1125 0.950 . S
H1121 C1126 0.949 . S
H1122 C1128 0.950 . S
H1123 C1129 0.950 . S
H1124 C1130 0.949 . S
C1125 H1120 0.950 . S
C1125 C1127 1.327 . S
C1125 C1131 1.429 . S
C1126 C1118 1.574 . S
C1126 H1121 0.949 . S
C1126 C1132 1.368 . S
C1127 C1111 1.349 . S
C1127 H1119 0.950 . S
C1127 C1125 1.327 . S
C1128 C1116 1.349 . S
C1128 H1122 0.950 . S
C1128 C1129 1.327 . S
C1129 H1123 0.950 . S
C1129 C1128 1.327 . S
C1129 C1133 1.429 . S
C1130 C1113 1.574 . S
C1130 H1124 0.949 . S
C1130 C1134 1.368 . S
C1131 C1112 1.429 . S
C1131 C1125 1.429 . S
C1131 C1132 1.523 . S
C1132 C1113 1.368 1_556 S
C1132 C1126 1.368 . S
C1132 C1131 1.523 . S
C1133 C1117 1.429 . S
C1133 C1129 1.429 . S
C1133 C1134 1.523 . S
C1134 C1118 1.368 1_554 S
C1134 C1130 1.368 . S
C1134 C1133 1.523 . S
H1135 C1110 0.950 . S
H1136 C1112 0.950 . S
H1137 C1113 0.949 . S
H1138 C1115 0.950 . S
H1139 C1117 0.950 . S
C1140 C1141 1.349 . S
C1140 C1142 1.327 . S
C1140 H1165 0.950 . S
C1141 C1140 1.349 . S
C1141 C1157 1.349 . S
C1142 C1140 1.327 . S
C1142 C1161 1.429 . S
C1142 H1166 0.950 . S
C1143 C1160 1.574 . S
C1143 C1162 1.368 1_565 S
C1143 H1167 0.949 . S
H1144 C1148 0.949 . S
C1145 C1146 1.349 . S
C1145 C1147 1.327 . S
C1145 H1168 0.950 . S
C1146 C1145 1.349 . S
C1146 C1158 1.349 . S
C1147 C1145 1.327 . S
C1147 C1163 1.429 . S
C1147 H1169 0.950 1_554 S
C1148 H1144 0.949 . S
C1148 C1156 1.574 1_554 S
C1148 C1164 1.368 1_544 S
H1149 C1157 0.950 . S
H1150 C1155 0.950 . S
H1151 C1156 0.949 . S
H1152 C1158 0.950 . S
H1153 C1159 0.950 . S
H1154 C1160 0.949 . S
C1155 H1150 0.950 . S
C1155 C1157 1.327 . S
C1155 C1161 1.429 . S
C1156 C1148 1.574 1_556 S
C1156 H1151 0.949 . S
C1156 C1162 1.368 . S
C1157 C1141 1.349 . S
C1157 H1149 0.950 . S
C1157 C1155 1.327 . S
C1158 C1146 1.349 . S
C1158 H1152 0.950 . S
C1158 C1159 1.327 . S
C1159 H1153 0.950 . S
C1159 C1158 1.327 . S
C1159 C1163 1.429 . S
C1160 C1143 1.574 . S
C1160 H1154 0.949 . S
C1160 C1164 1.368 . S
C1161 C1142 1.429 . S
C1161 C1155 1.429 . S
C1161 C1162 1.523 . S
C1162 C1143 1.368 1_545 S
C1162 C1156 1.368 . S
C1162 C1161 1.523 . S
C1163 C1147 1.429 . S
C1163 C1159 1.429 . S
C1163 C1164 1.523 1_554 S
C1164 C1148 1.368 1_566 S
C1164 C1160 1.368 . S
C1164 C1163 1.523 1_556 S
H1165 C1140 0.950 . S
H1166 C1142 0.950 . S
H1167 C1143 0.949 . S
H1168 C1145 0.950 . S
H1169 C1147 0.950 1_556 S
C1170 C1171 1.349 . S
C1170 C1172 1.327 . S
C1170 H1195 0.950 . S
C1171 C1170 1.349 . S
C1171 C1187 1.349 . S
C1172 C1170 1.327 . S
C1172 C1191 1.429 . S
C1172 H1196 0.950 . S
C1173 C1190 1.574 1_546 S
C1173 C1192 1.368 . S
C1173 H1197 0.949 . S
H1174 C1178 0.949 . S
C1175 C1176 1.349 . S
C1175 C1177 1.327 . S
C1175 H1198 0.950 . S
C1176 C1175 1.349 . S
C1176 C1188 1.349 . S
C1177 C1175 1.327 . S
C1177 C1193 1.429 . S
C1177 H1199 0.950 . S
C1178 H1174 0.949 . S
C1178 C1186 1.574 . S
C1178 C1194 1.368 1_545 S
H1179 C1187 0.950 . S
H1180 C1185 0.950 . S
H1181 C1186 0.949 . S
H1182 C1188 0.950 . S
H1183 C1189 0.950 . S
H1184 C1190 0.949 . S
C1185 H1180 0.950 . S
C1185 C1187 1.327 . S
C1185 C1191 1.429 . S
C1186 C1178 1.574 . S
C1186 H1181 0.949 . S
C1186 C1192 1.368 1_554 S
C1187 C1171 1.349 . S
C1187 H1179 0.950 . S
C1187 C1185 1.327 . S
C1188 C1176 1.349 . S
C1188 H1182 0.950 . S
C1188 C1189 1.327 . S
C1189 H1183 0.950 . S
C1189 C1188 1.327 . S
C1189 C1193 1.429 . S
C1190 C1173 1.574 1_564 S
C1190 H1184 0.949 . S
C1190 C1194 1.368 . S
C1191 C1172 1.429 . S
C1191 C1185 1.429 . S
C1191 C1192 1.523 . S
C1192 C1173 1.368 . S
C1192 C1186 1.368 1_556 S
C1192 C1191 1.523 . S
C1193 C1177 1.429 . S
C1193 C1189 1.429 . S
C1193 C1194 1.523 . S
C1194 C1178 1.368 1_565 S
C1194 C1190 1.368 . S
C1194 C1193 1.523 . S
H1195 C1170 0.950 . S
H1196 C1172 0.950 . S
H1197 C1173 0.949 . S
H1198 C1175 0.950 . S
H1199 C1177 0.950 . S
C1200 C1201 1.349 . S
C1200 C1202 1.327 . S
C1200 H1225 0.950 . S
C1201 C1200 1.349 . S
C1201 C1217 1.349 . S
C1202 C1200 1.327 . S
C1202 C1221 1.429 . S
C1202 H1226 0.950 . S
C1203 C1220 1.582 1_554 S
C1203 C1222 1.368 . S
C1203 H1227 0.949 . S
H1204 C1208 0.949 . S
C1205 C1206 1.349 . S
C1205 C1207 1.327 . S
C1205 H1228 0.950 . S
C1206 C1205 1.349 . S
C1206 C1218 1.349 . S
C1207 C1205 1.327 . S
C1207 C1223 1.429 . S
C1207 H1229 0.950 . S
C1208 H1204 0.949 . S
C1208 C1216 1.574 1_655 S
C1208 C1224 1.368 . S
H1209 C1217 0.950 . S
H1210 C1215 0.950 . S
H1211 C1216 0.949 . S
H1212 C1218 0.950 . S
H1213 C1219 0.950 . S
H1214 C1220 0.943 1_655 S
C1215 H1210 0.950 . S
C1215 C1217 1.327 . S
C1215 C1221 1.429 . S
C1216 C1208 1.574 1_455 S
C1216 H1211 0.949 . S
C1216 C1222 1.368 . S
C1217 C1201 1.349 . S
C1217 H1209 0.950 . S
C1217 C1215 1.327 . S
C1218 C1206 1.349 . S
C1218 H1212 0.950 . S
C1218 C1219 1.327 . S
C1219 H1213 0.950 . S
C1219 C1218 1.327 . S
C1219 C1223 1.429 . S
C1220 C1203 1.582 1_556 S
C1220 H1214 0.943 1_455 S
C1220 C1224 1.366 1_456 S
C1221 C1202 1.429 . S
C1221 C1215 1.429 . S
C1221 C1222 1.523 . S
C1222 C1203 1.368 . S
C1222 C1216 1.368 . S
C1222 C1221 1.523 . S
C1223 C1207 1.429 . S
C1223 C1219 1.429 . S
C1223 C1224 1.523 1_556 S
C1224 C1208 1.368 . S
C1224 C1220 1.366 1_654 S
C1224 C1223 1.523 1_554 S
H1225 C1200 0.950 . S
H1226 C1202 0.950 . S
H1227 C1203 0.949 . S
H1228 C1205 0.950 . S
H1229 C1207 0.950 . S
C1230 C1231 1.349 . S
C1230 C1232 1.327 . S
C1230 H1255 0.950 . S
C1231 C1230 1.349 . S
C1231 C1247 1.349 . S
C1232 C1230 1.327 . S
C1232 C1251 1.429 . S
C1232 H1256 0.950 . S
C1233 C1250 1.574 1_554 S
C1233 C1252 1.368 . S
C1233 H1257 0.949 . S
H1234 C1238 0.949 . S
C1235 C1236 1.349 . S
C1235 C1237 1.327 . S
C1235 H1258 0.950 . S
C1236 C1235 1.349 . S
C1236 C1248 1.349 . S
C1237 C1235 1.327 . S
C1237 C1253 1.429 . S
C1237 H1259 0.950 . S
C1238 H1234 0.949 . S
C1238 C1246 1.574 . S
C1238 C1254 1.368 1_554 S
H1239 C1247 0.950 . S
H1240 C1245 0.950 . S
H1241 C1246 0.949 . S
H1242 C1248 0.950 . S
H1243 C1249 0.950 . S
H1244 C1250 0.949 . S
C1245 H1240 0.950 . S
C1245 C1247 1.327 . S
C1245 C1251 1.429 . S
C1246 C1238 1.574 . S
C1246 H1241 0.949 . S
C1246 C1252 1.368 . S
C1247 C1231 1.349 . S
C1247 H1239 0.950 . S
C1247 C1245 1.327 . S
C1248 C1236 1.349 . S
C1248 H1242 0.950 . S
C1248 C1249 1.327 . S
C1249 H1243 0.950 . S
C1249 C1248 1.327 . S
C1249 C1253 1.429 . S
C1250 C1233 1.574 1_556 S
C1250 H1244 0.949 . S
C1250 C1254 1.368 . S
C1251 C1232 1.429 . S
C1251 C1245 1.429 . S
C1251 C1252 1.523 . S
C1252 C1233 1.368 . S
C1252 C1246 1.368 . S
C1252 C1251 1.523 . S
C1253 C1237 1.429 . S
C1253 C1249 1.429 . S
C1253 C1254 1.523 . S
C1254 C1238 1.368 1_556 S
C1254 C1250 1.368 . S
C1254 C1253 1.523 . S
H1255 C1230 0.950 . S
H1256 C1232 0.950 . S
H1257 C1233 0.949 . S
H1258 C1235 0.950 . S
H1259 C1237 0.950 . S
C1260 C1261 1.349 . S
C1260 C1262 1.327 . S
C1260 H1285 0.950 . S
C1261 C1260 1.349 . S
C1261 C1277 1.349 . S
C1262 C1260 1.327 . S
C1262 C1281 1.429 . S
C1262 H1286 0.950 . S
C1263 C1280 1.574 . S
C1263 C1282 1.368 . S
C1263 H1287 0.949 . S
H1264 C1268 0.949 . S
C1265 C1266 1.349 . S
C1265 C1267 1.327 . S
C1265 H1288 0.950 . S
C1266 C1265 1.349 . S
C1266 C1278 1.349 . S
C1267 C1265 1.327 . S
C1267 C1283 1.429 . S
C1267 H1289 0.950 . S
C1268 H1264 0.949 . S
C1268 C1276 1.574 . S
C1268 C1284 1.368 . S
H1269 C1277 0.950 . S
H1270 C1275 0.950 . S
H1271 C1276 0.949 . S
H1272 C1278 0.950 . S
H1273 C1279 0.950 . S
H1274 C1280 0.949 . S
C1275 H1270 0.950 . S
C1275 C1277 1.327 . S
C1275 C1281 1.429 . S
C1276 C1268 1.574 . S
C1276 H1271 0.949 . S
C1276 C1282 1.368 . S
C1277 C1261 1.349 . S
C1277 H1269 0.950 . S
C1277 C1275 1.327 . S
C1278 C1266 1.349 . S
C1278 H1272 0.950 . S
C1278 C1279 1.327 . S
C1279 H1273 0.950 . S
C1279 C1278 1.327 . S
C1279 C1283 1.429 . S
C1280 C1263 1.574 . S
C1280 H1274 0.949 . S
C1280 C1284 1.368 . S
C1281 C1262 1.429 . S
C1281 C1275 1.429 . S
C1281 C1282 1.523 . S
C1282 C1263 1.368 . S
C1282 C1276 1.368 . S
C1282 C1281 1.523 . S
C1283 C1267 1.429 . S
C1283 C1279 1.429 . S
C1283 C1284 1.523 . S
C1284 C1268 1.368 . S
C1284 C1280 1.368 . S
C1284 C1283 1.523 . S
H1285 C1260 0.950 . S
H1286 C1262 0.950 . S
H1287 C1263 0.949 . S
H1288 C1265 0.950 . S
H1289 C1267 0.950 . S
C1290 C1291 1.349 . S
C1290 C1292 1.327 . S
C1290 H1315 0.950 . S
C1291 C1290 1.349 . S
C1291 C1307 1.349 . S
C1292 C1290 1.327 . S
C1292 C1311 1.429 . S
C1292 H1316 0.950 . S
C1293 C1310 1.574 . S
C1293 C1312 1.368 . S
C1293 H1317 0.949 . S
H1294 C1298 0.949 . S
C1295 C1296 1.349 . S
C1295 C1297 1.327 . S
C1295 H1318 0.950 . S
C1296 C1295 1.349 . S
C1296 C1308 1.349 . S
C1297 C1295 1.327 . S
C1297 C1313 1.429 . S
C1297 H1319 0.950 . S
C1298 H1294 0.949 . S
C1298 C1306 1.574 . S
C1298 C1314 1.368 . S
H1299 C1307 0.950 . S
H1300 C1305 0.950 . S
H1301 C1306 0.949 . S
H1302 C1308 0.950 . S
H1303 C1309 0.950 . S
H1304 C1310 0.949 . S
C1305 H1300 0.950 . S
C1305 C1307 1.327 . S
C1305 C1311 1.429 . S
C1306 C1298 1.574 . S
C1306 H1301 0.949 . S
C1306 C1312 1.368 . S
C1307 C1291 1.349 . S
C1307 H1299 0.950 . S
C1307 C1305 1.327 . S
C1308 C1296 1.349 . S
C1308 H1302 0.950 . S
C1308 C1309 1.327 . S
C1309 H1303 0.950 . S
C1309 C1308 1.327 . S
C1309 C1313 1.429 . S
C1310 C1293 1.574 . S
C1310 H1304 0.949 . S
C1310 C1314 1.368 . S
C1311 C1292 1.429 . S
C1311 C1305 1.429 . S
C1311 C1312 1.523 . S
C1312 C1293 1.368 . S
C1312 C1306 1.368 . S
C1312 C1311 1.523 . S
C1313 C1297 1.429 . S
C1313 C1309 1.429 . S
C1313 C1314 1.523 . S
C1314 C1298 1.368 . S
C1314 C1310 1.368 . S
C1314 C1313 1.523 . S
H1315 C1290 0.950 . S
H1316 C1292 0.950 . S
H1317 C1293 0.949 . S
H1318 C1295 0.950 . S
H1319 C1297 0.950 . S
C1320 C1321 1.349 . S
C1320 C1322 1.327 . S
C1320 H1345 0.950 . S
C1321 C1320 1.349 . S
C1321 C1337 1.349 . S
C1322 C1320 1.327 . S
C1322 C1341 1.429 . S
C1322 H1346 0.950 . S
C1323 C1340 1.574 . S
C1323 C1342 1.368 . S
C1323 H1347 0.949 . S
H1324 C1328 0.949 . S
C1325 C1326 1.349 . S
C1325 C1327 1.327 . S
C1325 H1348 0.950 . S
C1326 C1325 1.349 . S
C1326 C1338 1.349 . S
C1327 C1325 1.327 . S
C1327 C1343 1.429 . S
C1327 H1349 0.950 . S
C1328 H1324 0.949 . S
C1328 C1336 1.574 . S
C1328 C1344 1.368 . S
H1329 C1337 0.950 . S
H1330 C1335 0.950 . S
H1331 C1336 0.949 . S
H1332 C1338 0.950 . S
H1333 C1339 0.950 . S
H1334 C1340 0.949 . S
C1335 H1330 0.950 . S
C1335 C1337 1.327 . S
C1335 C1341 1.429 . S
C1336 C1328 1.574 . S
C1336 H1331 0.949 . S
C1336 C1342 1.368 . S
C1337 C1321 1.349 . S
C1337 H1329 0.950 . S
C1337 C1335 1.327 . S
C1338 C1326 1.349 . S
C1338 H1332 0.950 . S
C1338 C1339 1.327 . S
C1339 H1333 0.950 . S
C1339 C1338 1.327 . S
C1339 C1343 1.429 . S
C1340 C1323 1.574 . S
C1340 H1334 0.949 . S
C1340 C1344 1.368 . S
C1341 C1322 1.429 . S
C1341 C1335 1.429 . S
C1341 C1342 1.523 . S
C1342 C1323 1.368 . S
C1342 C1336 1.368 . S
C1342 C1341 1.523 . S
C1343 C1327 1.429 . S
C1343 C1339 1.429 . S
C1343 C1344 1.523 . S
C1344 C1328 1.368 . S
C1344 C1340 1.368 . S
C1344 C1343 1.523 . S
H1345 C1320 0.950 . S
H1346 C1322 0.950 . S
H1347 C1323 0.949 . S
H1348 C1325 0.950 . S
H1349 C1327 0.950 . S
C1350 C1351 1.349 . S
C1350 C1352 1.327 . S
C1350 H1375 0.950 . S
C1351 C1350 1.349 . S
C1351 C1367 1.349 . S
C1352 C1350 1.327 . S
C1352 C1371 1.429 . S
C1352 H1376 0.950 . S
C1353 C1370 1.574 . S
C1353 C1372 1.368 . S
C1353 H1377 0.949 . S
H1354 C1358 0.949 . S
C1355 C1356 1.349 . S
C1355 C1357 1.327 . S
C1355 H1378 0.950 . S
C1356 C1355 1.349 . S
C1356 C1368 1.349 . S
C1357 C1355 1.327 . S
C1357 C1373 1.429 . S
C1357 H1379 0.950 . S
C1358 H1354 0.949 . S
C1358 C1366 1.574 . S
C1358 C1374 1.368 . S
H1359 C1367 0.950 . S
H1360 C1365 0.950 . S
H1361 C1366 0.949 . S
H1362 C1368 0.950 . S
H1363 C1369 0.950 . S
H1364 C1370 0.949 . S
C1365 H1360 0.950 . S
C1365 C1367 1.327 . S
C1365 C1371 1.429 . S
C1366 C1358 1.574 . S
C1366 H1361 0.949 . S
C1366 C1372 1.368 . S
C1367 C1351 1.349 . S
C1367 H1359 0.950 . S
C1367 C1365 1.327 . S
C1368 C1356 1.349 . S
C1368 H1362 0.950 . S
C1368 C1369 1.327 . S
C1369 H1363 0.950 . S
C1369 C1368 1.327 . S
C1369 C1373 1.429 . S
C1370 C1353 1.574 . S
C1370 H1364 0.949 . S
C1370 C1374 1.368 . S
C1371 C1352 1.429 . S
C1371 C1365 1.429 . S
C1371 C1372 1.523 . S
C1372 C1353 1.368 . S
C1372 C1366 1.368 . S
C1372 C1371 1.523 . S
C1373 C1357 1.429 . S
C1373 C1369 1.429 . S
C1373 C1374 1.523 . S
C1374 C1358 1.368 . S
C1374 C1370 1.368 . S
C1374 C1373 1.523 . S
H1375 C1350 0.950 . S
H1376 C1352 0.950 . S
H1377 C1353 0.949 . S
H1378 C1355 0.950 . S
H1379 C1357 0.950 . S
C1380 C1381 1.349 . S
C1380 C1382 1.327 . S
C1380 H1405 0.950 . S
C1381 C1380 1.349 . S
C1381 C1397 1.349 . S
C1382 C1380 1.327 . S
C1382 C1401 1.429 . S
C1382 H1406 0.950 . S
C1383 C1400 1.574 . S
C1383 C1402 1.368 . S
C1383 H1407 0.949 . S
H1384 C1388 0.949 . S
C1385 C1386 1.349 . S
C1385 C1387 1.327 . S
C1385 H1408 0.950 . S
C1386 C1385 1.349 . S
C1386 C1398 1.349 . S
C1387 C1385 1.327 . S
C1387 C1403 1.429 . S
C1387 H1409 0.950 . S
C1388 H1384 0.949 . S
C1388 C1396 1.574 . S
C1388 C1404 1.368 . S
H1389 C1397 0.950 . S
H1390 C1395 0.950 . S
H1391 C1396 0.949 . S
H1392 C1398 0.950 . S
H1393 C1399 0.950 . S
H1394 C1400 0.949 . S
C1395 H1390 0.950 . S
C1395 C1397 1.327 . S
C1395 C1401 1.429 . S
C1396 C1388 1.574 . S
C1396 H1391 0.949 . S
C1396 C1402 1.368 . S
C1397 C1381 1.349 . S
C1397 H1389 0.950 . S
C1397 C1395 1.327 . S
C1398 C1386 1.349 . S
C1398 H1392 0.950 . S
C1398 C1399 1.327 . S
C1399 H1393 0.950 . S
C1399 C1398 1.327 . S
C1399 C1403 1.429 . S
C1400 C1383 1.574 . S
C1400 H1394 0.949 . S
C1400 C1404 1.368 . S
C1401 C1382 1.429 . S
C1401 C1395 1.429 . S
C1401 C1402 1.523 . S
C1402 C1383 1.368 . S
C1402 C1396 1.368 . S
C1402 C1401 1.523 . S
C1403 C1387 1.429 . S
C1403 C1399 1.429 . S
C1403 C1404 1.523 . S
C1404 C1388 1.368 . S
C1404 C1400 1.368 . S
C1404 C1403 1.523 . S
H1405 C1380 0.950 . S
H1406 C1382 0.950 . S
H1407 C1383 0.949 . S
H1408 C1385 0.950 . S
H1409 C1387 0.950 . S
C1410 C1411 1.349 . S
C1410 C1412 1.327 . S
C1410 H1435 0.950 . S
C1411 C1410 1.349 . S
C1411 C1427 1.349 . S
C1412 C1410 1.327 . S
C1412 C1431 1.429 . S
C1412 H1436 0.950 . S
C1413 C1430 1.574 . S
C1413 C1432 1.368 . S
C1413 H1437 0.949 . S
H1414 C1418 0.949 . S
C1415 C1416 1.349 . S
C1415 C1417 1.327 . S
C1415 H1438 0.950 . S
C1416 C1415 1.349 . S
C1416 C1428 1.349 . S
C1417 C1415 1.327 . S
C1417 C1433 1.429 . S
C1417 H1439 0.950 . S
C1418 H1414 0.949 . S
C1418 C1426 1.574 . S
C1418 C1434 1.368 . S
H1419 C1427 0.950 . S
H1420 C1425 0.950 . S
H1421 C1426 0.949 . S
H1422 C1428 0.950 . S
H1423 C1429 0.950 . S
H1424 C1430 0.949 . S
C1425 H1420 0.950 . S
C1425 C1427 1.327 . S
C1425 C1431 1.429 . S
C1426 C1418 1.574 . S
C1426 H1421 0.949 . S
C1426 C1432 1.368 . S
C1427 C1411 1.349 . S
C1427 H1419 0.950 . S
C1427 C1425 1.327 . S
C1428 C1416 1.349 . S
C1428 H1422 0.950 . S
C1428 C1429 1.327 . S
C1429 H1423 0.950 . S
C1429 C1428 1.327 . S
C1429 C1433 1.429 . S
C1430 C1413 1.574 . S
C1430 H1424 0.949 . S
C1430 C1434 1.368 . S
C1431 C1412 1.429 . S
C1431 C1425 1.429 . S
C1431 C1432 1.523 . S
C1432 C1413 1.368 . S
C1432 C1426 1.368 . S
C1432 C1431 1.523 . S
C1433 C1417 1.429 . S
C1433 C1429 1.429 . S
C1433 C1434 1.523 . S
C1434 C1418 1.368 . S
C1434 C1430 1.368 . S
C1434 C1433 1.523 . S
H1435 C1410 0.950 . S
H1436 C1412 0.950 . S
H1437 C1413 0.949 . S
H1438 C1415 0.950 . S
H1439 C1417 0.950 . S
C1440 C1441 1.349 . S
C1440 C1442 1.327 . S
C1440 H1465 0.950 . S
C1441 C1440 1.349 . S
C1441 C1457 1.349 . S
C1442 C1440 1.327 . S
C1442 C1461 1.429 . S
C1442 H1466 0.950 . S
C1443 C1460 1.574 . S
C1443 C1462 1.368 . S
C1443 H1467 0.949 . S
H1444 C1448 0.949 . S
C1445 C1446 1.349 . S
C1445 C1447 1.327 . S
C1445 H1468 0.950 . S
C1446 C1445 1.349 . S
C1446 C1458 1.349 . S
C1447 C1445 1.327 . S
C1447 C1463 1.429 . S
C1447 H1469 0.950 . S
C1448 H1444 0.949 . S
C1448 C1456 1.574 . S
C1448 C1464 1.368 . S
H1449 C1457 0.950 . S
H1450 C1455 0.950 . S
H1451 C1456 0.949 . S
H1452 C1458 0.950 . S
H1453 C1459 0.950 . S
H1454 C1460 0.949 . S
C1455 H1450 0.950 . S
C1455 C1457 1.327 . S
C1455 C1461 1.429 . S
C1456 C1448 1.574 . S
C1456 H1451 0.949 . S
C1456 C1462 1.368 . S
C1457 C1441 1.349 . S
C1457 H1449 0.950 . S
C1457 C1455 1.327 . S
C1458 C1446 1.349 . S
C1458 H1452 0.950 . S
C1458 C1459 1.327 . S
C1459 H1453 0.950 . S
C1459 C1458 1.327 . S
C1459 C1463 1.429 . S
C1460 C1443 1.574 . S
C1460 H1454 0.949 . S
C1460 C1464 1.368 . S
C1461 C1442 1.429 . S
C1461 C1455 1.429 . S
C1461 C1462 1.523 . S
C1462 C1443 1.368 . S
C1462 C1456 1.368 . S
C1462 C1461 1.523 . S
C1463 C1447 1.429 . S
C1463 C1459 1.429 . S
C1463 C1464 1.523 . S
C1464 C1448 1.368 . S
C1464 C1460 1.368 . S
C1464 C1463 1.523 . S
H1465 C1440 0.950 . S
H1466 C1442 0.950 . S
H1467 C1443 0.949 . S
H1468 C1445 0.950 . S
H1469 C1447 0.950 . S
C1470 C1471 1.349 . S
C1470 C1472 1.327 . S
C1470 H1495 0.950 . S
C1471 C1470 1.349 . S
C1471 C1487 1.349 . S
C1472 C1470 1.327 . S
C1472 C1491 1.429 . S
C1472 H1496 0.950 . S
C1473 C1490 1.574 . S
C1473 C1492 1.368 . S
C1473 H1497 0.949 . S
H1474 C1478 0.949 . S
C1475 C1476 1.349 . S
C1475 C1477 1.327 . S
C1475 H1498 0.950 . S
C1476 C1475 1.349 . S
C1476 C1488 1.349 . S
C1477 C1475 1.327 . S
C1477 C1493 1.429 . S
C1477 H1499 0.950 . S
C1478 H1474 0.949 . S
C1478 C1486 1.574 . S
C1478 C1494 1.368 . S
H1479 C1487 0.950 . S
H1480 C1485 0.950 . S
H1481 C1486 0.949 . S
H1482 C1488 0.950 . S
H1483 C1489 0.950 . S
H1484 C1490 0.949 . S
C1485 H1480 0.950 . S
C1485 C1487 1.327 . S
C1485 C1491 1.429 . S
C1486 C1478 1.574 . S
C1486 H1481 0.949 . S
C1486 C1492 1.368 . S
C1487 C1471 1.349 . S
C1487 H1479 0.950 . S
C1487 C1485 1.327 . S
C1488 C1476 1.349 . S
C1488 H1482 0.950 . S
C1488 C1489 1.327 . S
C1489 H1483 0.950 . S
C1489 C1488 1.327 . S
C1489 C1493 1.429 . S
C1490 C1473 1.574 . S
C1490 H1484 0.949 . S
C1490 C1494 1.368 . S
C1491 C1472 1.429 . S
C1491 C1485 1.429 . S
C1491 C1492 1.523 . S
C1492 C1473 1.368 . S
C1492 C1486 1.368 . S
C1492 C1491 1.523 . S
C1493 C1477 1.429 . S
C1493 C1489 1.429 . S
C1493 C1494 1.523 . S
C1494 C1478 1.368 . S
C1494 C1490 1.368 . S
C1494 C1493 1.523 . S
H1495 C1470 0.950 . S
H1496 C1472 0.950 . S
H1497 C1473 0.949 . S
H1498 C1475 0.950 . S
H1499 C1477 0.950 . S
C1500 C1501 1.349 . S
C1500 C1502 1.327 . S
C1500 H1525 0.950 . S
C1501 C1500 1.349 . S
C1501 C1517 1.349 . S
C1502 C1500 1.327 . S
C1502 C1521 1.429 . S
C1502 H1526 0.950 . S
C1503 C1520 1.574 . S
C1503 C1522 1.368 . S
C1503 H1527 0.949 . S
H1504 C1508 0.949 . S
C1505 C1506 1.349 . S
C1505 C1507 1.327 . S
C1505 H1528 0.950 . S
C1506 C1505 1.349 . S
C1506 C1518 1.349 . S
C1507 C1505 1.327 . S
C1507 C1523 1.429 . S
C1507 H1529 0.950 . S
C1508 H1504 0.949 . S
C1508 C1516 1.574 . S
C1508 C1524 1.368 . S
H1509 C1517 0.950 . S
H1510 C1515 0.950 . S
H1511 C1516 0.949 . S
H1512 C1518 0.950 . S
H1513 C1519 0.950 . S
H1514 C1520 0.949 . S
C1515 H1510 0.950 . S
C1515 C1517 1.327 . S
C1515 C1521 1.429 . S
C1516 C1508 1.574 . S
C1516 H1511 0.949 . S
C1516 C1522 1.368 . S
C1517 C1501 1.349 . S
C1517 H1509 0.950 . S
C1517 C1515 1.327 . S
C1518 C1506 1.349 . S
C1518 H1512 0.950 . S
C1518 C1519 1.327 . S
C1519 H1513 0.950 . S
C1519 C1518 1.327 . S
C1519 C1523 1.429 . S
C1520 C1503 1.574 . S
C1520 H1514 0.949 . S
C1520 C1524 1.368 . S
C1521 C1502 1.429 . S
C1521 C1515 1.429 . S
C1521 C1522 1.523 . S
C1522 C1503 1.368 . S
C1522 C1516 1.368 . S
C1522 C1521 1.523 . S
C1523 C1507 1.429 . S
C1523 C1519 1.429 . S
C1523 C1524 1.523 . S
C1524 C1508 1.368 . S
C1524 C1520 1.368 . S
C1524 C1523 1.523 . S
H1525 C1500 0.950 . S
H1526 C1502 0.950 . S
H1527 C1503 0.949 . S
H1528 C1505 0.950 . S
H1529 C1507 0.950 . S
C1530 C1531 1.349 . S
C1530 C1532 1.327 . S
C1530 H1555 0.950 . S
C1531 C1530 1.349 . S
C1531 C1547 1.349 . S
C1532 C1530 1.327 . S
C1532 C1551 1.429 . S
C1532 H1556 0.950 . S
C1533 C1550 1.574 . S
C1533 C1552 1.368 . S
C1533 H1557 0.949 . S
H1534 C1538 0.949 . S
C1535 C1536 1.349 . S
C1535 C1537 1.327 . S
C1535 H1558 0.950 . S
C1536 C1535 1.349 . S
C1536 C1548 1.349 . S
C1537 C1535 1.327 . S
C1537 C1553 1.429 . S
C1537 H1559 0.950 . S
C1538 H1534 0.949 . S
C1538 C1546 1.574 . S
C1538 C1554 1.368 . S
H1539 C1547 0.950 . S
H1540 C1545 0.950 . S
H1541 C1546 0.949 . S
H1542 C1548 0.950 . S
H1543 C1549 0.950 . S
H1544 C1550 0.949 . S
C1545 H1540 0.950 . S
C1545 C1547 1.327 . S
C1545 C1551 1.429 . S
C1546 C1538 1.574 . S
C1546 H1541 0.949 . S
C1546 C1552 1.368 . S
C1547 C1531 1.349 . S
C1547 H1539 0.950 . S
C1547 C1545 1.327 . S
C1548 C1536 1.349 . S
C1548 H1542 0.950 . S
C1548 C1549 1.327 . S
C1549 H1543 0.950 . S
C1549 C1548 1.327 . S
C1549 C1553 1.429 . S
C1550 C1533 1.574 . S
C1550 H1544 0.949 . S
C1550 C1554 1.368 . S
C1551 C1532 1.429 . S
C1551 C1545 1.429 . S
C1551 C1552 1.523 . S
C1552 C1533 1.368 . S
C1552 C1546 1.368 . S
C1552 C1551 1.523 . S
C1553 C1537 1.429 . S
C1553 C1549 1.429 . S
C1553 C1554 1.523 . S
C1554 C1538 1.368 . S
C1554 C1550 1.368 . S
C1554 C1553 1.523 . S
H1555 C1530 0.950 . S
H1556 C1532 0.950 . S
H1557 C1533 0.949 . S
H1558 C1535 0.950 . S
H1559 C1537 0.950 . S
C1560 C1561 1.349 . S
C1560 C1562 1.327 . S
C1560 H1585 0.950 . S
C1561 C1560 1.349 . S
C1561 C1577 1.349 . S
C1562 C1560 1.327 . S
C1562 C1581 1.429 . S
C1562 H1586 0.950 . S
C1563 C1580 1.574 . S
C1563 C1582 1.368 . S
C1563 H1587 0.949 . S
H1564 C1568 0.949 . S
C1565 C1566 1.349 . S
C1565 C1567 1.327 . S
C1565 H1588 0.950 . S
C1566 C1565 1.349 . S
C1566 C1578 1.349 . S
C1567 C1565 1.327 . S
C1567 C1583 1.429 . S
C1567 H1589 0.950 . S
C1568 H1564 0.949 . S
C1568 C1576 1.574 . S
C1568 C1584 1.368 . S
H1569 C1577 0.950 . S
H1570 C1575 0.950 . S
H1571 C1576 0.949 . S
H1572 C1578 0.950 . S
H1573 C1579 0.950 . S
H1574 C1580 0.949 . S
C1575 H1570 0.950 . S
C1575 C1577 1.327 . S
C1575 C1581 1.429 . S
C1576 C1568 1.574 . S
C1576 H1571 0.949 . S
C1576 C1582 1.368 . S
C1577 C1561 1.349 . S
C1577 H1569 0.950 . S
C1577 C1575 1.327 . S
C1578 C1566 1.349 . S
C1578 H1572 0.950 . S
C1578 C1579 1.327 . S
C1579 H1573 0.950 . S
C1579 C1578 1.327 . S
C1579 C1583 1.429 . S
C1580 C1563 1.574 . S
C1580 H1574 0.949 . S
C1580 C1584 1.368 . S
C1581 C1562 1.429 . S
C1581 C1575 1.429 . S
C1581 C1582 1.523 . S
C1582 C1563 1.368 . S
C1582 C1576 1.368 . S
C1582 C1581 1.523 . S
C1583 C1567 1.429 . S
C1583 C1579 1.429 . S
C1583 C1584 1.523 . S
C1584 C1568 1.368 . S
C1584 C1580 1.368 . S
C1584 C1583 1.523 . S
H1585 C1560 0.950 . S
H1586 C1562 0.950 . S
H1587 C1563 0.949 . S
H1588 C1565 0.950 . S
H1589 C1567 0.950 . S
C1590 C1591 1.349 . S
C1590 C1592 1.327 . S
C1590 H1615 0.950 . S
C1591 C1590 1.349 . S
C1591 C1607 1.349 . S
C1592 C1590 1.327 . S
C1592 C1611 1.429 . S
C1592 H1616 0.950 . S
C1593 C1610 1.574 . S
C1593 C1612 1.368 . S
C1593 H1617 0.949 . S
H1594 C1598 0.949 . S
C1595 C1596 1.349 . S
C1595 C1597 1.327 . S
C1595 H1618 0.950 . S
C1596 C1595 1.349 . S
C1596 C1608 1.349 . S
C1597 C1595 1.327 . S
C1597 C1613 1.429 . S
C1597 H1619 0.950 . S
C1598 H1594 0.949 . S
C1598 C1606 1.574 . S
C1598 C1614 1.368 . S
H1599 C1607 0.950 . S
H1600 C1605 0.950 . S
H1601 C1606 0.949 . S
H1602 C1608 0.950 . S
H1603 C1609 0.950 . S
H1604 C1610 0.949 . S
C1605 H1600 0.950 . S
C1605 C1607 1.327 . S
C1605 C1611 1.429 . S
C1606 C1598 1.574 . S
C1606 H1601 0.949 . S
C1606 C1612 1.368 . S
C1607 C1591 1.349 . S
C1607 H1599 0.950 . S
C1607 C1605 1.327 . S
C1608 C1596 1.349 . S
C1608 H1602 0.950 . S
C1608 C1609 1.327 . S
C1609 H1603 0.950 . S
C1609 C1608 1.327 . S
C1609 C1613 1.429 . S
C1610 C1593 1.574 . S
C1610 H1604 0.949 . S
C1610 C1614 1.368 . S
C1611 C1592 1.429 . S
C1611 C1605 1.429 . S
C1611 C1612 1.523 . S
C1612 C1593 1.368 . S
C1612 C1606 1.368 . S
C1612 C1611 1.523 . S
C1613 C1597 1.429 . S
C1613 C1609 1.429 . S
C1613 C1614 1.523 . S
C1614 C1598 1.368 . S
C1614 C1610 1.368 . S
C1614 C1613 1.523 . S
H1615 C1590 0.950 . S
H1616 C1592 0.950 . S
H1617 C1593 0.949 . S
H1618 C1595 0.950 . S
H1619 C1597 0.950 . S
C1620 C1621 1.349 . S
C1620 C1622 1.327 . S
C1620 H1645 0.950 . S
C1621 C1620 1.349 . S
C1621 C1637 1.349 . S
C1622 C1620 1.327 . S
C1622 C1641 1.429 . S
C1622 H1646 0.950 . S
C1623 C1640 1.574 . S
C1623 C1642 1.368 . S
C1623 H1647 0.949 . S
H1624 C1628 0.949 . S
C1625 C1626 1.349 . S
C1625 C1627 1.327 . S
C1625 H1648 0.950 . S
C1626 C1625 1.349 . S
C1626 C1638 1.349 . S
C1627 C1625 1.327 . S
C1627 C1643 1.429 . S
C1627 H1649 0.950 . S
C1628 H1624 0.949 . S
C1628 C1636 1.574 . S
C1628 C1644 1.368 . S
H1629 C1637 0.950 . S
H1630 C1635 0.950 . S
H1631 C1636 0.949 . S
H1632 C1638 0.950 . S
H1633 C1639 0.950 . S
H1634 C1640 0.949 . S
C1635 H1630 0.950 . S
C1635 C1637 1.327 . S
C1635 C1641 1.429 . S
C1636 C1628 1.574 . S
C1636 H1631 0.949 . S
C1636 C1642 1.368 . S
C1637 C1621 1.349 . S
C1637 H1629 0.950 . S
C1637 C1635 1.327 . S
C1638 C1626 1.349 . S
C1638 H1632 0.950 . S
C1638 C1639 1.327 . S
C1639 H1633 0.950 . S
C1639 C1638 1.327 . S
C1639 C1643 1.429 . S
C1640 C1623 1.574 . S
C1640 H1634 0.949 . S
C1640 C1644 1.368 . S
C1641 C1622 1.429 . S
C1641 C1635 1.429 . S
C1641 C1642 1.523 . S
C1642 C1623 1.368 . S
C1642 C1636 1.368 . S
C1642 C1641 1.523 . S
C1643 C1627 1.429 . S
C1643 C1639 1.429 . S
C1643 C1644 1.523 . S
C1644 C1628 1.368 . S
C1644 C1640 1.368 . S
C1644 C1643 1.523 . S
H1645 C1620 0.950 . S
H1646 C1622 0.950 . S
H1647 C1623 0.949 . S
H1648 C1625 0.950 . S
H1649 C1627 0.950 . S
C1650 C1651 1.349 . S
C1650 C1652 1.327 . S
C1650 H1675 0.950 . S
C1651 C1650 1.349 . S
C1651 C1667 1.349 . S
C1652 C1650 1.327 . S
C1652 C1671 1.429 . S
C1652 H1676 0.950 . S
C1653 C1670 1.574 . S
C1653 C1672 1.368 . S
C1653 H1677 0.949 . S
H1654 C1658 0.949 . S
C1655 C1656 1.349 . S
C1655 C1657 1.327 . S
C1655 H1678 0.950 . S
C1656 C1655 1.349 . S
C1656 C1668 1.349 . S
C1657 C1655 1.327 . S
C1657 C1673 1.429 . S
C1657 H1679 0.950 . S
C1658 H1654 0.949 . S
C1658 C1666 1.574 . S
C1658 C1674 1.368 . S
H1659 C1667 0.950 . S
H1660 C1665 0.950 . S
H1661 C1666 0.949 . S
H1662 C1668 0.950 . S
H1663 C1669 0.950 . S
H1664 C1670 0.949 . S
C1665 H1660 0.950 . S
C1665 C1667 1.327 . S
C1665 C1671 1.429 . S
C1666 C1658 1.574 . S
C1666 H1661 0.949 . S
C1666 C1672 1.368 . S
C1667 C1651 1.349 . S
C1667 H1659 0.950 . S
C1667 C1665 1.327 . S
C1668 C1656 1.349 . S
C1668 H1662 0.950 . S
C1668 C1669 1.327 . S
C1669 H1663 0.950 . S
C1669 C1668 1.327 . S
C1669 C1673 1.429 . S
C1670 C1653 1.574 . S
C1670 H1664 0.949 . S
C1670 C1674 1.368 . S
C1671 C1652 1.429 . S
C1671 C1665 1.429 . S
C1671 C1672 1.523 . S
C1672 C1653 1.368 . S
C1672 C1666 1.368 . S
C1672 C1671 1.523 . S
C1673 C1657 1.429 . S
C1673 C1669 1.429 . S
C1673 C1674 1.523 . S
C1674 C1658 1.368 . S
C1674 C1670 1.368 . S
C1674 C1673 1.523 . S
H1675 C1650 0.950 . S
H1676 C1652 0.950 . S
H1677 C1653 0.949 . S
H1678 C1655 0.950 . S
H1679 C1657 0.950 . S
C1680 C1681 1.349 . S
C1680 C1682 1.327 . S
C1680 H1705 0.950 . S
C1681 C1680 1.349 . S
C1681 C1697 1.349 . S
C1682 C1680 1.327 . S
C1682 C1701 1.429 . S
C1682 H1706 0.950 . S
C1683 C1700 1.574 . S
C1683 C1702 1.368 . S
C1683 H1707 0.949 . S
H1684 C1688 0.949 . S
C1685 C1686 1.349 . S
C1685 C1687 1.327 . S
C1685 H1708 0.950 . S
C1686 C1685 1.349 . S
C1686 C1698 1.349 . S
C1687 C1685 1.327 . S
C1687 C1703 1.429 . S
C1687 H1709 0.950 . S
C1688 H1684 0.949 . S
C1688 C1696 1.574 . S
C1688 C1704 1.368 . S
H1689 C1697 0.950 . S
H1690 C1695 0.950 . S
H1691 C1696 0.949 . S
H1692 C1698 0.950 . S
H1693 C1699 0.950 . S
H1694 C1700 0.949 . S
C1695 H1690 0.950 . S
C1695 C1697 1.327 . S
C1695 C1701 1.429 . S
C1696 C1688 1.574 . S
C1696 H1691 0.949 . S
C1696 C1702 1.368 . S
C1697 C1681 1.349 . S
C1697 H1689 0.950 . S
C1697 C1695 1.327 . S
C1698 C1686 1.349 . S
C1698 H1692 0.950 . S
C1698 C1699 1.327 . S
C1699 H1693 0.950 . S
C1699 C1698 1.327 . S
C1699 C1703 1.429 . S
C1700 C1683 1.574 . S
C1700 H1694 0.949 . S
C1700 C1704 1.368 . S
C1701 C1682 1.429 . S
C1701 C1695 1.429 . S
C1701 C1702 1.523 . S
C1702 C1683 1.368 . S
C1702 C1696 1.368 . S
C1702 C1701 1.523 . S
C1703 C1687 1.429 . S
C1703 C1699 1.429 . S
C1703 C1704 1.523 . S
C1704 C1688 1.368 . S
C1704 C1700 1.368 . S
C1704 C1703 1.523 . S
H1705 C1680 0.950 . S
H1706 C1682 0.950 . S
H1707 C1683 0.949 . S
H1708 C1685 0.950 . S
H1709 C1687 0.950 . S
C1710 C1711 1.349 . S
C1710 C1712 1.327 . S
C1710 H1735 0.950 . S
C1711 C1710 1.349 . S
C1711 C1727 1.349 . S
C1712 C1710 1.327 . S
C1712 C1731 1.429 . S
C1712 H1736 0.950 . S
C1713 C1730 1.574 . S
C1713 C1732 1.368 . S
C1713 H1737 0.949 . S
H1714 C1718 0.949 . S
C1715 C1716 1.349 . S
C1715 C1717 1.327 . S
C1715 H1738 0.950 . S
C1716 C1715 1.349 . S
C1716 C1728 1.349 . S
C1717 C1715 1.327 . S
C1717 C1733 1.429 . S
C1717 H1739 0.950 . S
C1718 H1714 0.949 . S
C1718 C1726 1.574 . S
C1718 C1734 1.368 . S
H1719 C1727 0.950 . S
H1720 C1725 0.950 . S
H1721 C1726 0.949 . S
H1722 C1728 0.950 . S
H1723 C1729 0.950 . S
H1724 C1730 0.949 . S
C1725 H1720 0.950 . S
C1725 C1727 1.327 . S
C1725 C1731 1.429 . S
C1726 C1718 1.574 . S
C1726 H1721 0.949 . S
C1726 C1732 1.368 . S
C1727 C1711 1.349 . S
C1727 H1719 0.950 . S
C1727 C1725 1.327 . S
C1728 C1716 1.349 . S
C1728 H1722 0.950 . S
C1728 C1729 1.327 . S
C1729 H1723 0.950 . S
C1729 C1728 1.327 . S
C1729 C1733 1.429 . S
C1730 C1713 1.574 . S
C1730 H1724 0.949 . S
C1730 C1734 1.368 . S
C1731 C1712 1.429 . S
C1731 C1725 1.429 . S
C1731 C1732 1.523 . S
C1732 C1713 1.368 . S
C1732 C1726 1.368 . S
C1732 C1731 1.523 . S
C1733 C1717 1.429 . S
C1733 C1729 1.429 . S
C1733 C1734 1.523 . S
C1734 C1718 1.368 . S
C1734 C1730 1.368 . S
C1734 C1733 1.523 . S
H1735 C1710 0.950 . S
H1736 C1712 0.950 . S
H1737 C1713 0.949 . S
H1738 C1715 0.950 . S
H1739 C1717 0.950 . S
C1740 C1741 1.349 . S
C1740 C1742 1.327 . S
C1740 H1765 0.950 . S
C1741 C1740 1.349 . S
C1741 C1757 1.349 . S
C1742 C1740 1.327 . S
C1742 C1761 1.429 . S
C1742 H1766 0.950 . S
C1743 C1760 1.574 . S
C1743 C1762 1.368 . S
C1743 H1767 0.949 . S
H1744 C1748 0.949 . S
C1745 C1746 1.349 . S
C1745 C1747 1.327 . S
C1745 H1768 0.950 . S
C1746 C1745 1.349 . S
C1746 C1758 1.349 . S
C1747 C1745 1.327 . S
C1747 C1763 1.429 . S
C1747 H1769 0.950 . S
C1748 H1744 0.949 . S
C1748 C1756 1.574 . S
C1748 C1764 1.368 . S
H1749 C1757 0.950 . S
H1750 C1755 0.950 . S
H1751 C1756 0.949 . S
H1752 C1758 0.950 . S
H1753 C1759 0.950 . S
H1754 C1760 0.949 . S
C1755 H1750 0.950 . S
C1755 C1757 1.327 . S
C1755 C1761 1.429 . S
C1756 C1748 1.574 . S
C1756 H1751 0.949 . S
C1756 C1762 1.368 . S
C1757 C1741 1.349 . S
C1757 H1749 0.950 . S
C1757 C1755 1.327 . S
C1758 C1746 1.349 . S
C1758 H1752 0.950 . S
C1758 C1759 1.327 . S
C1759 H1753 0.950 . S
C1759 C1758 1.327 . S
C1759 C1763 1.429 . S
C1760 C1743 1.574 . S
C1760 H1754 0.949 . S
C1760 C1764 1.368 . S
C1761 C1742 1.429 . S
C1761 C1755 1.429 . S
C1761 C1762 1.523 . S
C1762 C1743 1.368 . S
C1762 C1756 1.368 . S
C1762 C1761 1.523 . S
C1763 C1747 1.429 . S
C1763 C1759 1.429 . S
C1763 C1764 1.523 . S
C1764 C1748 1.368 . S
C1764 C1760 1.368 . S
C1764 C1763 1.523 . S
H1765 C1740 0.950 . S
H1766 C1742 0.950 . S
H1767 C1743 0.949 . S
H1768 C1745 0.950 . S
H1769 C1747 0.950 . S
C1770 C1771 1.349 . S
C1770 C1772 1.327 . S
C1770 H1795 0.950 . S
C1771 C1770 1.349 . S
C1771 C1787 1.349 . S
C1772 C1770 1.327 . S
C1772 C1791 1.429 . S
C1772 H1796 0.950 . S
C1773 C1790 1.574 . S
C1773 C1792 1.368 . S
C1773 H1797 0.949 . S
H1774 C1778 0.949 . S
C1775 C1776 1.349 . S
C1775 C1777 1.327 . S
C1775 H1798 0.950 . S
C1776 C1775 1.349 . S
C1776 C1788 1.349 . S
C1777 C1775 1.327 . S
C1777 C1793 1.429 . S
C1777 H1799 0.950 . S
C1778 H1774 0.949 . S
C1778 C1786 1.574 . S
C1778 C1794 1.368 . S
H1779 C1787 0.950 . S
H1780 C1785 0.950 . S
H1781 C1786 0.949 . S
H1782 C1788 0.950 . S
H1783 C1789 0.950 . S
H1784 C1790 0.949 . S
C1785 H1780 0.950 . S
C1785 C1787 1.327 . S
C1785 C1791 1.429 . S
C1786 C1778 1.574 . S
C1786 H1781 0.949 . S
C1786 C1792 1.368 . S
C1787 C1771 1.349 . S
C1787 H1779 0.950 . S
C1787 C1785 1.327 . S
C1788 C1776 1.349 . S
C1788 H1782 0.950 . S
C1788 C1789 1.327 . S
C1789 H1783 0.950 . S
C1789 C1788 1.327 . S
C1789 C1793 1.429 . S
C1790 C1773 1.574 . S
C1790 H1784 0.949 . S
C1790 C1794 1.368 . S
C1791 C1772 1.429 . S
C1791 C1785 1.429 . S
C1791 C1792 1.523 . S
C1792 C1773 1.368 . S
C1792 C1786 1.368 . S
C1792 C1791 1.523 . S
C1793 C1777 1.429 . S
C1793 C1789 1.429 . S
C1793 C1794 1.523 . S
C1794 C1778 1.368 . S
C1794 C1790 1.368 . S
C1794 C1793 1.523 . S
H1795 C1770 0.950 . S
H1796 C1772 0.950 . S
H1797 C1773 0.949 . S
H1798 C1775 0.950 . S
H1799 C1777 0.950 . S
C1800 C1801 1.349 1_655 S
C1800 C1802 1.327 . S
C1800 H1825 0.950 . S
C1801 C1800 1.349 1_455 S
C1801 C1817 1.349 . S
C1802 C1800 1.327 . S
C1802 C1821 1.429 1_655 S
C1802 H1826 0.950 . S
C1803 C1820 1.574 1_554 S
C1803 C1822 1.368 . S
C1803 H1827 0.949 . S
H1804 C1808 0.961 . S
C1805 C1806 1.329 1_455 S
C1805 C1807 1.327 . S
C1805 H1828 0.950 . S
C1806 C1805 1.329 1_655 S
C1806 C1818 1.373 . S
C1807 C1805 1.327 . S
C1807 C1823 1.429 . S
C1807 H1829 0.950 . S
C1808 H1804 0.961 . S
C1808 C1816 1.549 1_556 S
C1808 C1824 1.381 1_655 S
H1809 C1817 0.950 . S
H1810 C1815 0.950 . S
H1811 C1816 0.949 . S
H1812 C1818 0.950 . S
H1813 C1819 0.950 . S
H1814 C1820 0.949 . S
C1815 H1810 0.950 . S
C1815 C1817 1.327 . S
C1815 C1821 1.429 . S
C1816 C1808 1.549 1_554 S
C1816 H1811 0.949 . S
C1816 C1822 1.368 1_655 S
C1817 C1801 1.349 . S
C1817 H1809 0.950 . S
C1817 C1815 1.327 . S
C1818 C1806 1.373 . S
C1818 H1812 0.950 . S
C1818 C1819 1.327 . S
C1819 H1813 0.950 . S
C1819 C1818 1.327 . S
C1819 C1823 1.429 1_655 S
C1820 C1803 1.574 1_556 S
C1820 H1814 0.949 . S
C1820 C1824 1.368 . S
C1821 C1802 1.429 1_455 S
C1821 C1815 1.429 . S
C1821 C1822 1.523 . S
C1822 C1803 1.368 . S
C1822 C1816 1.368 1_455 S
C1822 C1821 1.523 . S
C1823 C1807 1.429 . S
C1823 C1819 1.429 1_455 S
C1823 C1824 1.523 . S
C1824 C1808 1.381 1_455 S
C1824 C1820 1.368 . S
C1824 C1823 1.523 . S
H1825 C1800 0.950 . S
H1826 C1802 0.950 . S
H1827 C1803 0.949 . S
H1828 C1805 0.950 . S
H1829 C1807 0.950 . S
C1830 C1831 1.349 . S
C1830 C1832 1.327 . S
C1830 H1855 0.950 . S
C1831 C1830 1.349 . S
C1831 C1847 1.349 . S
C1832 C1830 1.327 . S
C1832 C1851 1.429 . S
C1832 H1856 0.950 . S
C1833 C1850 1.574 1_554 S
C1833 C1852 1.368 . S
C1833 H1857 0.949 . S
H1834 C1838 0.949 . S
C1835 C1836 1.349 . S
C1835 C1837 1.327 . S
C1835 H1858 0.950 . S
C1836 C1835 1.349 . S
C1836 C1848 1.349 . S
C1837 C1835 1.327 . S
C1837 C1853 1.429 . S
C1837 H1859 0.950 . S
C1838 H1834 0.949 . S
C1838 C1846 1.574 1_556 S
C1838 C1854 1.368 . S
H1839 C1847 0.950 . S
H1840 C1845 0.950 . S
H1841 C1846 0.949 . S
H1842 C1848 0.950 . S
H1843 C1849 0.950 . S
H1844 C1850 0.949 . S
C1845 H1840 0.950 . S
C1845 C1847 1.327 . S
C1845 C1851 1.429 . S
C1846 C1838 1.574 1_554 S
C1846 H1841 0.949 . S
C1846 C1852 1.368 . S
C1847 C1831 1.349 . S
C1847 H1839 0.950 . S
C1847 C1845 1.327 . S
C1848 C1836 1.349 . S
C1848 H1842 0.950 . S
C1848 C1849 1.327 . S
C1849 H1843 0.950 . S
C1849 C1848 1.327 . S
C1849 C1853 1.429 . S
C1850 C1833 1.574 1_556 S
C1850 H1844 0.949 . S
C1850 C1854 1.368 . S
C1851 C1832 1.429 . S
C1851 C1845 1.429 . S
C1851 C1852 1.523 . S
C1852 C1833 1.368 . S
C1852 C1846 1.368 . S
C1852 C1851 1.523 . S
C1853 C1837 1.429 . S
C1853 C1849 1.429 . S
C1853 C1854 1.523 . S
C1854 C1838 1.368 . S
C1854 C1850 1.368 . S
C1854 C1853 1.523 . S
H1855 C1830 0.950 . S
H1856 C1832 0.950 . S
H1857 C1833 0.949 . S
H1858 C1835 0.950 . S
H1859 C1837 0.950 . S
C1860 C1861 1.349 . S
C1860 C1862 1.327 . S
C1860 H1885 0.950 . S
C1861 C1860 1.349 . S
C1861 C1877 1.349 1_565 S
C1862 C1860 1.327 . S
C1862 C1881 1.429 . S
C1862 H1886 0.950 . S
C1863 C1880 1.574 1_554 S
C1863 C1882 1.366 1_545 S
C1863 H1887 0.949 . S
H1864 C1868 0.949 . S
C1865 C1866 1.349 . S
C1865 C1867 1.327 . S
C1865 H1888 0.950 . S
C1866 C1865 1.349 . S
C1866 C1878 1.349 . S
C1867 C1865 1.327 . S
C1867 C1883 1.429 . S
C1867 H1889 0.950 . S
C1868 H1864 0.949 . S
C1868 C1876 1.574 1_556 S
C1868 C1884 1.368 1_565 S
H1869 C1877 0.950 . S
H1870 C1875 0.950 . S
H1871 C1876 0.949 . S
H1872 C1878 0.950 1_565 S
H1873 C1879 0.939 1_565 S
H1874 C1880 0.949 . S
C1875 H1870 0.950 . S
C1875 C1877 1.327 . S
C1875 C1881 1.429 1_545 S
C1876 C1868 1.574 1_554 S
C1876 H1871 0.949 . S
C1876 C1882 1.369 . S
C1877 C1861 1.349 1_545 S
C1877 H1869 0.950 . S
C1877 C1875 1.327 . S
C1878 C1866 1.349 . S
C1878 H1872 0.950 1_545 S
C1878 C1879 1.339 . S
C1879 H1873 0.939 1_545 S
C1879 C1878 1.339 . S
C1879 C1883 1.429 . S
C1880 C1863 1.574 1_556 S
C1880 H1874 0.949 . S
C1880 C1884 1.368 . S
C1881 C1862 1.429 . S
C1881 C1875 1.429 1_565 S
C1881 C1882 1.526 . S
C1882 C1863 1.366 1_565 S
C1882 C1876 1.369 . S
C1882 C1881 1.526 . S
C1883 C1867 1.429 . S
C1883 C1879 1.429 . S
C1883 C1884 1.523 . S
C1884 C1868 1.368 1_545 S
C1884 C1880 1.368 . S
C1884 C1883 1.523 . S
H1885 C1860 0.950 . S
H1886 C1862 0.950 . S
H1887 C1863 0.949 . S
H1888 C1865 0.950 . S
H1889 C1867 0.950 . S
C1890 C1891 1.295 1_455 S
C1890 C1892 1.327 . S
C1890 H1915 0.950 . S
C1891 C1890 1.295 1_655 S
C1891 C1907 1.411 . S
C1892 C1890 1.327 . S
C1892 C1911 1.429 . S
C1892 H1916 0.950 . S
C1893 C1910 1.574 . S
C1893 C1912 1.365 1_654 S
C1893 H1917 0.949 1_554 S
H1894 C1898 0.949 . S
C1895 C1896 1.349 1_655 S
C1895 C1897 1.327 . S
C1895 H1918 0.950 . S
C1896 C1895 1.349 1_455 S
C1896 C1908 1.349 . S
C1897 C1895 1.327 . S
C1897 C1913 1.429 1_655 S
C1897 H1919 0.950 . S
C1898 H1894 0.949 . S
C1898 C1906 1.574 . S
C1898 C1914 1.368 . S
H1899 C1907 0.950 . S
H1900 C1905 0.950 . S
H1901 C1906 0.949 . S
H1902 C1908 0.950 . S
H1903 C1909 0.950 . S
H1904 C1910 0.949 . S
C1905 H1900 0.950 . S
C1905 C1907 1.327 . S
C1905 C1911 1.429 1_655 S
C1906 C1898 1.574 . S
C1906 H1901 0.949 . S
C1906 C1912 1.364 1_554 S
C1907 C1891 1.411 . S
C1907 H1899 0.950 . S
C1907 C1905 1.327 . S
C1908 C1896 1.349 . S
C1908 H1902 0.950 . S
C1908 C1909 1.327 . S
C1909 H1903 0.950 . S
C1909 C1908 1.327 . S
C1909 C1913 1.429 . S
C1910 C1893 1.574 . S
C1910 H1904 0.949 . S
C1910 C1914 1.368 1_655 S
C1911 C1892 1.429 . S
C1911 C1905 1.429 1_455 S
C1911 C1912 1.533 . S
C1912 C1893 1.365 1_456 S
C1912 C1906 1.364 1_556 S
C1912 C1911 1.533 . S
C1913 C1897 1.429 1_455 S
C1913 C1909 1.429 . S
C1913 C1914 1.523 . S
C1914 C1898 1.368 . S
C1914 C1910 1.368 1_455 S
C1914 C1913 1.523 . S
H1915 C1890 0.950 . S
H1916 C1892 0.950 . S
H1917 C1893 0.949 1_556 S
H1918 C1895 0.950 . S
H1919 C1897 0.950 . S
C1920 C1921 1.349 . S
C1920 C1922 1.327 . S
C1920 H1945 0.950 . S
C1921 C1920 1.349 . S
C1921 C1937 1.349 . S
C1922 C1920 1.327 . S
C1922 C1941 1.429 . S
C1922 H1946 0.950 . S
C1923 C1940 1.574 . S
C1923 C1942 1.368 . S
C1923 H1947 0.949 . S
H1924 C1928 0.949 . S
C1925 C1926 1.349 . S
C1925 C1927 1.327 . S
C1925 H1948 0.950 . S
C1926 C1925 1.349 . S
C1926 C1938 1.349 . S
C1927 C1925 1.327 . S
C1927 C1943 1.429 . S
C1927 H1949 0.950 . S
C1928 H1924 0.949 . S
C1928 C1936 1.574 . S
C1928 C1944 1.368 . S
H1929 C1937 0.950 . S
H1930 C1935 0.950 . S
H1931 C1936 0.949 . S
H1932 C1938 0.950 . S
H1933 C1939 0.950 . S
H1934 C1940 0.949 . S
C1935 H1930 0.950 . S
C1935 C1937 1.327 . S
C1935 C1941 1.429 . S
C1936 C1928 1.574 . S
C1936 H1931 0.949 . S
C1936 C1942 1.368 . S
C1937 C1921 1.349 . S
C1937 H1929 0.950 . S
C1937 C1935 1.327 . S
C1938 C1926 1.349 . S
C1938 H1932 0.950 . S
C1938 C1939 1.327 . S
C1939 H1933 0.950 . S
C1939 C1938 1.327 . S
C1939 C1943 1.429 . S
C1940 C1923 1.574 . S
C1940 H1934 0.949 . S
C1940 C1944 1.368 . S
C1941 C1922 1.429 . S
C1941 C1935 1.429 . S
C1941 C1942 1.523 . S
C1942 C1923 1.368 . S
C1942 C1936 1.368 . S
C1942 C1941 1.523 . S
C1943 C1927 1.429 . S
C1943 C1939 1.429 . S
C1943 C1944 1.523 1_556 S
C1944 C1928 1.368 . S
C1944 C1940 1.368 . S
C1944 C1943 1.523 1_554 S
H1945 C1920 0.950 . S
H1946 C1922 0.950 . S
H1947 C1923 0.949 . S
H1948 C1925 0.950 . S
H1949 C1927 0.950 . S
C1950 C1951 1.349 1_545 S
C1950 C1952 1.327 . S
C1950 H1975 0.950 . S
C1951 C1950 1.349 1_565 S
C1951 C1967 1.349 . S
C1952 C1950 1.327 . S
C1952 C1971 1.426 1_545 S
C1952 H1976 0.950 . S
C1953 C1970 1.574 1_554 S
C1953 C1972 1.368 1_565 S
C1953 H1977 0.949 . S
H1954 C1958 0.949 1_556 S
C1955 C1956 1.349 . S
C1955 C1957 1.327 . S
C1955 H1978 0.950 1_545 S
C1956 C1955 1.349 . S
C1956 C1968 1.349 . S
C1957 C1955 1.327 . S
C1957 C1973 1.429 . S
C1957 H1979 0.950 1_545 S
C1958 H1954 0.949 1_554 S
C1958 C1966 1.574 . S
C1958 C1974 1.368 1_554 S
H1959 C1967 0.950 . S
H1960 C1965 0.950 . S
H1961 C1966 0.949 . S
H1962 C1968 0.950 . S
H1963 C1969 0.950 . S
H1964 C1970 0.949 . S
C1965 H1960 0.950 . S
C1965 C1967 1.327 . S
C1965 C1971 1.432 . S
C1966 C1958 1.574 . S
C1966 H1961 0.949 . S
C1966 C1972 1.368 . S
C1967 C1951 1.349 . S
C1967 H1959 0.950 . S
C1967 C1965 1.327 . S
C1968 C1956 1.349 . S
C1968 H1962 0.950 . S
C1968 C1969 1.327 . S
C1969 H1963 0.950 . S
C1969 C1968 1.327 . S
C1969 C1973 1.429 . S
C1970 C1953 1.574 1_556 S
C1970 H1964 0.949 . S
C1970 C1974 1.368 1_565 S
C1971 C1952 1.426 1_565 S
C1971 C1965 1.432 . S
C1971 C1972 1.522 1_565 S
C1972 C1953 1.368 1_545 S
C1972 C1966 1.368 . S
C1972 C1971 1.522 1_545 S
C1973 C1957 1.429 . S
C1973 C1969 1.429 . S
C1973 C1974 1.523 . S
C1974 C1958 1.368 1_556 S
C1974 C1970 1.368 1_545 S
C1974 C1973 1.523 . S
H1975 C1950 0.950 . S
H1976 C1952 0.950 . S
H1977 C1953 0.949 . S
H1978 C1955 0.950 1_565 S
H1979 C1957 0.950 1_565 S
C1980 C1981 1.349 . S
C1980 C1982 1.327 . S
C1980 H2005 0.950 . S
C1981 C1980 1.349 . S
C1981 C1997 1.349 . S
C1982 C1980 1.327 . S
C1982 C2001 1.429 . S
C1982 H2006 0.950 . S
C1983 C2000 1.574 . S
C1983 C2002 1.368 . S
C1983 H2007 0.949 . S
H1984 C1988 0.949 . S
C1985 C1986 1.349 . S
C1985 C1987 1.327 . S
C1985 H2008 0.950 . S
C1986 C1985 1.349 . S
C1986 C1998 1.349 . S
C1987 C1985 1.327 . S
C1987 C2003 1.429 . S
C1987 H2009 0.950 . S
C1988 H1984 0.949 . S
C1988 C1996 1.574 . S
C1988 C2004 1.368 . S
H1989 C1997 0.950 . S
H1990 C1995 0.950 . S
H1991 C1996 0.949 . S
H1992 C1998 0.950 . S
H1993 C1999 0.950 . S
H1994 C2000 0.949 . S
C1995 H1990 0.950 . S
C1995 C1997 1.327 . S
C1995 C2001 1.429 . S
C1996 C1988 1.574 . S
C1996 H1991 0.949 . S
C1996 C2002 1.368 . S
C1997 C1981 1.349 . S
C1997 H1989 0.950 . S
C1997 C1995 1.327 . S
C1998 C1986 1.349 . S
C1998 H1992 0.950 . S
C1998 C1999 1.327 . S
C1999 H1993 0.950 . S
C1999 C1998 1.327 . S
C1999 C2003 1.429 . S
C2000 C1983 1.574 . S
C2000 H1994 0.949 . S
C2000 C2004 1.368 . S
C2001 C1982 1.429 . S
C2001 C1995 1.429 . S
C2001 C2002 1.523 . S
C2002 C1983 1.368 . S
C2002 C1996 1.368 . S
C2002 C2001 1.523 . S
C2003 C1987 1.429 . S
C2003 C1999 1.429 . S
C2003 C2004 1.523 . S
C2004 C1988 1.368 . S
C2004 C2000 1.368 . S
C2004 C2003 1.523 . S
H2005 C1980 0.950 . S
H2006 C1982 0.950 . S
H2007 C1983 0.949 . S
H2008 C1985 0.950 . S
H2009 C1987 0.950 . S
C2010 C2011 1.349 . S
C2010 C2012 1.327 . S
C2010 H2035 0.950 . S
C2011 C2010 1.349 . S
C2011 C2027 1.349 . S
C2012 C2010 1.327 . S
C2012 C2031 1.429 . S
C2012 H2036 0.950 . S
C2013 C2030 1.574 . S
C2013 C2032 1.368 . S
C2013 H2037 0.949 . S
H2014 C2018 0.949 . S
C2015 C2016 1.349 . S
C2015 C2017 1.327 . S
C2015 H2038 0.950 . S
C2016 C2015 1.349 . S
C2016 C2028 1.349 . S
C2017 C2015 1.327 . S
C2017 C2033 1.429 . S
C2017 H2039 0.950 . S
C2018 H2014 0.949 . S
C2018 C2026 1.574 . S
C2018 C2034 1.368 . S
H2019 C2027 0.950 . S
H2020 C2025 0.950 . S
H2021 C2026 0.949 . S
H2022 C2028 0.950 . S
H2023 C2029 0.950 . S
H2024 C2030 0.949 . S
C2025 H2020 0.950 . S
C2025 C2027 1.327 . S
C2025 C2031 1.429 . S
C2026 C2018 1.574 . S
C2026 H2021 0.949 . S
C2026 C2032 1.368 . S
C2027 C2011 1.349 . S
C2027 H2019 0.950 . S
C2027 C2025 1.327 . S
C2028 C2016 1.349 . S
C2028 H2022 0.950 . S
C2028 C2029 1.327 . S
C2029 H2023 0.950 . S
C2029 C2028 1.327 . S
C2029 C2033 1.429 . S
C2030 C2013 1.574 . S
C2030 H2024 0.949 . S
C2030 C2034 1.368 . S
C2031 C2012 1.429 . S
C2031 C2025 1.429 . S
C2031 C2032 1.523 . S
C2032 C2013 1.368 . S
C2032 C2026 1.368 . S
C2032 C2031 1.523 . S
C2033 C2017 1.429 . S
C2033 C2029 1.429 . S
C2033 C2034 1.523 . S
C2034 C2018 1.368 . S
C2034 C2030 1.368 . S
C2034 C2033 1.523 . S
H2035 C2010 0.950 . S
H2036 C2012 0.950 . S
H2037 C2013 0.949 . S
H2038 C2015 0.950 . S
H2039 C2017 0.950 . S
C2040 C2041 1.349 . S
C2040 C2042 1.327 . S
C2040 H2065 0.950 . S
C2041 C2040 1.349 . S
C2041 C2057 1.349 . S
C2042 C2040 1.327 . S
C2042 C2061 1.429 . S
C2042 H2066 0.950 . S
C2043 C2060 1.574 . S
C2043 C2062 1.368 . S
C2043 H2067 0.949 . S
H2044 C2048 0.949 . S
C2045 C2046 1.349 . S
C2045 C2047 1.327 . S
C2045 H2068 0.950 . S
C2046 C2045 1.349 . S
C2046 C2058 1.349 . S
C2047 C2045 1.327 . S
C2047 C2063 1.429 . S
C2047 H2069 0.950 . S
C2048 H2044 0.949 . S
C2048 C2056 1.574 . S
C2048 C2064 1.368 . S
H2049 C2057 0.950 . S
H2050 C2055 0.950 . S
H2051 C2056 0.949 . S
H2052 C2058 0.950 . S
H2053 C2059 0.950 . S
H2054 C2060 0.949 . S
C2055 H2050 0.950 . S
C2055 C2057 1.327 . S
C2055 C2061 1.429 . S
C2056 C2048 1.574 . S
C2056 H2051 0.949 . S
C2056 C2062 1.368 . S
C2057 C2041 1.349 . S
C2057 H2049 0.950 . S
C2057 C2055 1.327 . S
C2058 C2046 1.349 . S
C2058 H2052 0.950 . S
C2058 C2059 1.327 . S
C2059 H2053 0.950 . S
C2059 C2058 1.327 . S
C2059 C2063 1.429 . S
C2060 C2043 1.574 . S
C2060 H2054 0.949 . S
C2060 C2064 1.368 . S
C2061 C2042 1.429 . S
C2061 C2055 1.429 . S
C2061 C2062 1.523 . S
C2062 C2043 1.368 . S
C2062 C2056 1.368 . S
C2062 C2061 1.523 . S
C2063 C2047 1.429 . S
C2063 C2059 1.429 . S
C2063 C2064 1.523 . S
C2064 C2048 1.368 . S
C2064 C2060 1.368 . S
C2064 C2063 1.523 . S
H2065 C2040 0.950 . S
H2066 C2042 0.950 . S
H2067 C2043 0.949 . S
H2068 C2045 0.950 . S
H2069 C2047 0.950 . S
C2070 C2071 1.349 . S
C2070 C2072 1.327 . S
C2070 H2095 0.950 . S
C2071 C2070 1.349 . S
C2071 C2087 1.349 . S
C2072 C2070 1.327 . S
C2072 C2091 1.429 . S
C2072 H2096 0.950 . S
C2073 C2090 1.574 . S
C2073 C2092 1.368 . S
C2073 H2097 0.949 . S
H2074 C2078 0.949 . S
C2075 C2076 1.349 . S
C2075 C2077 1.327 . S
C2075 H2098 0.950 . S
C2076 C2075 1.349 . S
C2076 C2088 1.349 . S
C2077 C2075 1.327 . S
C2077 C2093 1.429 . S
C2077 H2099 0.950 . S
C2078 H2074 0.949 . S
C2078 C2086 1.574 . S
C2078 C2094 1.368 . S
H2079 C2087 0.950 . S
H2080 C2085 0.950 . S
H2081 C2086 0.949 . S
H2082 C2088 0.950 . S
H2083 C2089 0.950 . S
H2084 C2090 0.949 . S
C2085 H2080 0.950 . S
C2085 C2087 1.327 . S
C2085 C2091 1.429 . S
C2086 C2078 1.574 . S
C2086 H2081 0.949 . S
C2086 C2092 1.368 . S
C2087 C2071 1.349 . S
C2087 H2079 0.950 . S
C2087 C2085 1.327 . S
C2088 C2076 1.349 . S
C2088 H2082 0.950 . S
C2088 C2089 1.327 . S
C2089 H2083 0.950 . S
C2089 C2088 1.327 . S
C2089 C2093 1.429 . S
C2090 C2073 1.574 . S
C2090 H2084 0.949 . S
C2090 C2094 1.368 . S
C2091 C2072 1.429 . S
C2091 C2085 1.429 . S
C2091 C2092 1.523 . S
C2092 C2073 1.368 . S
C2092 C2086 1.368 . S
C2092 C2091 1.523 . S
C2093 C2077 1.429 . S
C2093 C2089 1.429 . S
C2093 C2094 1.523 . S
C2094 C2078 1.368 . S
C2094 C2090 1.368 . S
C2094 C2093 1.523 . S
H2095 C2070 0.950 . S
H2096 C2072 0.950 . S
H2097 C2073 0.949 . S
H2098 C2075 0.950 . S
H2099 C2077 0.950 . S
C2100 C2101 1.349 . S
C2100 C2102 1.327 . S
C2100 H2125 0.950 . S
C2101 C2100 1.349 . S
C2101 C2117 1.349 . S
C2102 C2100 1.327 . S
C2102 C2121 1.429 . S
C2102 H2126 0.950 . S
C2103 C2120 1.574 . S
C2103 C2122 1.368 . S
C2103 H2127 0.949 . S
H2104 C2108 0.949 . S
C2105 C2106 1.349 . S
C2105 C2107 1.327 . S
C2105 H2128 0.950 . S
C2106 C2105 1.349 . S
C2106 C2118 1.349 . S
C2107 C2105 1.327 . S
C2107 C2123 1.429 . S
C2107 H2129 0.950 . S
C2108 H2104 0.949 . S
C2108 C2116 1.574 . S
C2108 C2124 1.368 . S
H2109 C2117 0.950 . S
H2110 C2115 0.950 . S
H2111 C2116 0.949 . S
H2112 C2118 0.950 . S
H2113 C2119 0.950 . S
H2114 C2120 0.949 . S
C2115 H2110 0.950 . S
C2115 C2117 1.327 . S
C2115 C2121 1.429 . S
C2116 C2108 1.574 . S
C2116 H2111 0.949 . S
C2116 C2122 1.368 . S
C2117 C2101 1.349 . S
C2117 H2109 0.950 . S
C2117 C2115 1.327 . S
C2118 C2106 1.349 . S
C2118 H2112 0.950 . S
C2118 C2119 1.327 . S
C2119 H2113 0.950 . S
C2119 C2118 1.327 . S
C2119 C2123 1.429 . S
C2120 C2103 1.574 . S
C2120 H2114 0.949 . S
C2120 C2124 1.368 . S
C2121 C2102 1.429 . S
C2121 C2115 1.429 . S
C2121 C2122 1.523 . S
C2122 C2103 1.368 . S
C2122 C2116 1.368 . S
C2122 C2121 1.523 . S
C2123 C2107 1.429 . S
C2123 C2119 1.429 . S
C2123 C2124 1.523 . S
C2124 C2108 1.368 . S
C2124 C2120 1.368 . S
C2124 C2123 1.523 . S
H2125 C2100 0.950 . S
H2126 C2102 0.950 . S
H2127 C2103 0.949 . S
H2128 C2105 0.950 . S
H2129 C2107 0.950 . S
C2130 C2131 1.349 . S
C2130 C2132 1.327 . S
C2130 H2155 0.950 . S
C2131 C2130 1.349 . S
C2131 C2147 1.349 . S
C2132 C2130 1.327 . S
C2132 C2151 1.429 . S
C2132 H2156 0.950 . S
C2133 C2150 1.574 . S
C2133 C2152 1.368 . S
C2133 H2157 0.949 . S
H2134 C2138 0.949 . S
C2135 C2136 1.349 . S
C2135 C2137 1.327 . S
C2135 H2158 0.950 . S
C2136 C2135 1.349 . S
C2136 C2148 1.349 . S
C2137 C2135 1.327 . S
C2137 C2153 1.429 . S
C2137 H2159 0.950 . S
C2138 H2134 0.949 . S
C2138 C2146 1.574 . S
C2138 C2154 1.368 . S
H2139 C2147 0.950 . S
H2140 C2145 0.950 . S
H2141 C2146 0.949 . S
H2142 C2148 0.950 . S
H2143 C2149 0.950 . S
H2144 C2150 0.949 . S
C2145 H2140 0.950 . S
C2145 C2147 1.327 . S
C2145 C2151 1.429 . S
C2146 C2138 1.574 . S
C2146 H2141 0.949 . S
C2146 C2152 1.368 . S
C2147 C2131 1.349 . S
C2147 H2139 0.950 . S
C2147 C2145 1.327 . S
C2148 C2136 1.349 . S
C2148 H2142 0.950 . S
C2148 C2149 1.327 . S
C2149 H2143 0.950 . S
C2149 C2148 1.327 . S
C2149 C2153 1.429 . S
C2150 C2133 1.574 . S
C2150 H2144 0.949 . S
C2150 C2154 1.368 . S
C2151 C2132 1.429 . S
C2151 C2145 1.429 . S
C2151 C2152 1.523 . S
C2152 C2133 1.368 . S
C2152 C2146 1.368 . S
C2152 C2151 1.523 . S
C2153 C2137 1.429 . S
C2153 C2149 1.429 . S
C2153 C2154 1.523 . S
C2154 C2138 1.368 . S
C2154 C2150 1.368 . S
C2154 C2153 1.523 . S
H2155 C2130 0.950 . S
H2156 C2132 0.950 . S
H2157 C2133 0.949 . S
H2158 C2135 0.950 . S
H2159 C2137 0.950 . S
C2160 C2161 1.349 . S
C2160 C2162 1.327 . S
C2160 H2185 0.950 . S
C2161 C2160 1.349 . S
C2161 C2177 1.349 . S
C2162 C2160 1.327 . S
C2162 C2181 1.429 . S
C2162 H2186 0.950 . S
C2163 C2180 1.574 . S
C2163 C2182 1.368 . S
C2163 H2187 0.949 . S
H2164 C2168 0.949 . S
C2165 C2166 1.349 . S
C2165 C2167 1.327 . S
C2165 H2188 0.950 . S
C2166 C2165 1.349 . S
C2166 C2178 1.349 . S
C2167 C2165 1.327 . S
C2167 C2183 1.429 . S
C2167 H2189 0.950 . S
C2168 H2164 0.949 . S
C2168 C2176 1.574 . S
C2168 C2184 1.368 . S
H2169 C2177 0.950 . S
H2170 C2175 0.950 . S
H2171 C2176 0.949 . S
H2172 C2178 0.950 . S
H2173 C2179 0.950 . S
H2174 C2180 0.949 . S
C2175 H2170 0.950 . S
C2175 C2177 1.327 . S
C2175 C2181 1.429 . S
C2176 C2168 1.574 . S
C2176 H2171 0.949 . S
C2176 C2182 1.368 . S
C2177 C2161 1.349 . S
C2177 H2169 0.950 . S
C2177 C2175 1.327 . S
C2178 C2166 1.349 . S
C2178 H2172 0.950 . S
C2178 C2179 1.327 . S
C2179 H2173 0.950 . S
C2179 C2178 1.327 . S
C2179 C2183 1.429 . S
C2180 C2163 1.574 . S
C2180 H2174 0.949 . S
C2180 C2184 1.368 . S
C2181 C2162 1.429 . S
C2181 C2175 1.429 . S
C2181 C2182 1.523 . S
C2182 C2163 1.368 . S
C2182 C2176 1.368 . S
C2182 C2181 1.523 . S
C2183 C2167 1.429 . S
C2183 C2179 1.429 . S
C2183 C2184 1.523 . S
C2184 C2168 1.368 . S
C2184 C2180 1.368 . S
C2184 C2183 1.523 . S
H2185 C2160 0.950 . S
H2186 C2162 0.950 . S
H2187 C2163 0.949 . S
H2188 C2165 0.950 . S
H2189 C2167 0.950 . S
C2190 C2191 1.349 . S
C2190 C2192 1.327 . S
C2190 H2215 0.950 . S
C2191 C2190 1.349 . S
C2191 C2207 1.349 . S
C2192 C2190 1.327 . S
C2192 C2211 1.429 . S
C2192 H2216 0.950 . S
C2193 C2210 1.574 . S
C2193 C2212 1.368 . S
C2193 H2217 0.949 . S
H2194 C2198 0.949 . S
C2195 C2196 1.349 . S
C2195 C2197 1.327 . S
C2195 H2218 0.950 . S
C2196 C2195 1.349 . S
C2196 C2208 1.349 . S
C2197 C2195 1.327 . S
C2197 C2213 1.429 . S
C2197 H2219 0.950 . S
C2198 H2194 0.949 . S
C2198 C2206 1.574 . S
C2198 C2214 1.368 . S
H2199 C2207 0.950 . S
H2200 C2205 0.950 . S
H2201 C2206 0.949 . S
H2202 C2208 0.950 . S
H2203 C2209 0.950 . S
H2204 C2210 0.949 . S
C2205 H2200 0.950 . S
C2205 C2207 1.327 . S
C2205 C2211 1.429 . S
C2206 C2198 1.574 . S
C2206 H2201 0.949 . S
C2206 C2212 1.368 . S
C2207 C2191 1.349 . S
C2207 H2199 0.950 . S
C2207 C2205 1.327 . S
C2208 C2196 1.349 . S
C2208 H2202 0.950 . S
C2208 C2209 1.327 . S
C2209 H2203 0.950 . S
C2209 C2208 1.327 . S
C2209 C2213 1.429 . S
C2210 C2193 1.574 . S
C2210 H2204 0.949 . S
C2210 C2214 1.368 . S
C2211 C2192 1.429 . S
C2211 C2205 1.429 . S
C2211 C2212 1.523 . S
C2212 C2193 1.368 . S
C2212 C2206 1.368 . S
C2212 C2211 1.523 . S
C2213 C2197 1.429 . S
C2213 C2209 1.429 . S
C2213 C2214 1.523 . S
C2214 C2198 1.368 . S
C2214 C2210 1.368 . S
C2214 C2213 1.523 . S
H2215 C2190 0.950 . S
H2216 C2192 0.950 . S
H2217 C2193 0.949 . S
H2218 C2195 0.950 . S
H2219 C2197 0.950 . S
C2220 C2221 1.349 . S
C2220 C2222 1.327 . S
C2220 H2245 0.950 . S
C2221 C2220 1.349 . S
C2221 C2237 1.349 . S
C2222 C2220 1.327 . S
C2222 C2241 1.429 . S
C2222 H2246 0.950 . S
C2223 C2240 1.574 . S
C2223 C2242 1.368 . S
C2223 H2247 0.949 . S
H2224 C2228 0.949 . S
C2225 C2226 1.349 . S
C2225 C2227 1.327 . S
C2225 H2248 0.950 . S
C2226 C2225 1.349 . S
C2226 C2238 1.349 . S
C2227 C2225 1.327 . S
C2227 C2243 1.429 . S
C2227 H2249 0.950 . S
C2228 H2224 0.949 . S
C2228 C2236 1.574 . S
C2228 C2244 1.368 . S
H2229 C2237 0.950 . S
H2230 C2235 0.950 . S
H2231 C2236 0.949 . S
H2232 C2238 0.950 . S
H2233 C2239 0.950 . S
H2234 C2240 0.949 . S
C2235 H2230 0.950 . S
C2235 C2237 1.327 . S
C2235 C2241 1.429 . S
C2236 C2228 1.574 . S
C2236 H2231 0.949 . S
C2236 C2242 1.368 . S
C2237 C2221 1.349 . S
C2237 H2229 0.950 . S
C2237 C2235 1.327 . S
C2238 C2226 1.349 . S
C2238 H2232 0.950 . S
C2238 C2239 1.327 . S
C2239 H2233 0.950 . S
C2239 C2238 1.327 . S
C2239 C2243 1.429 . S
C2240 C2223 1.574 . S
C2240 H2234 0.949 . S
C2240 C2244 1.368 . S
C2241 C2222 1.429 . S
C2241 C2235 1.429 . S
C2241 C2242 1.523 . S
C2242 C2223 1.368 . S
C2242 C2236 1.368 . S
C2242 C2241 1.523 . S
C2243 C2227 1.429 . S
C2243 C2239 1.429 . S
C2243 C2244 1.523 . S
C2244 C2228 1.368 . S
C2244 C2240 1.368 . S
C2244 C2243 1.523 . S
H2245 C2220 0.950 . S
H2246 C2222 0.950 . S
H2247 C2223 0.949 . S
H2248 C2225 0.950 . S
H2249 C2227 0.950 . S
C2250 C2251 1.349 . S
C2250 C2252 1.327 . S
C2250 H2275 0.950 . S
C2251 C2250 1.349 . S
C2251 C2267 1.349 . S
C2252 C2250 1.327 . S
C2252 C2271 1.429 . S
C2252 H2276 0.950 . S
C2253 C2270 1.574 . S
C2253 C2272 1.368 . S
C2253 H2277 0.949 . S
H2254 C2258 0.949 . S
C2255 C2256 1.349 . S
C2255 C2257 1.327 . S
C2255 H2278 0.950 . S
C2256 C2255 1.349 . S
C2256 C2268 1.349 . S
C2257 C2255 1.327 . S
C2257 C2273 1.429 . S
C2257 H2279 0.950 . S
C2258 H2254 0.949 . S
C2258 C2266 1.574 . S
C2258 C2274 1.368 . S
H2259 C2267 0.950 . S
H2260 C2265 0.950 . S
H2261 C2266 0.949 . S
H2262 C2268 0.950 . S
H2263 C2269 0.950 . S
H2264 C2270 0.949 . S
C2265 H2260 0.950 . S
C2265 C2267 1.327 . S
C2265 C2271 1.429 . S
C2266 C2258 1.574 . S
C2266 H2261 0.949 . S
C2266 C2272 1.368 . S
C2267 C2251 1.349 . S
C2267 H2259 0.950 . S
C2267 C2265 1.327 . S
C2268 C2256 1.349 . S
C2268 H2262 0.950 . S
C2268 C2269 1.327 . S
C2269 H2263 0.950 . S
C2269 C2268 1.327 . S
C2269 C2273 1.429 . S
C2270 C2253 1.574 . S
C2270 H2264 0.949 . S
C2270 C2274 1.368 . S
C2271 C2252 1.429 . S
C2271 C2265 1.429 . S
C2271 C2272 1.523 . S
C2272 C2253 1.368 . S
C2272 C2266 1.368 . S
C2272 C2271 1.523 . S
C2273 C2257 1.429 . S
C2273 C2269 1.429 . S
C2273 C2274 1.523 . S
C2274 C2258 1.368 . S
C2274 C2270 1.368 . S
C2274 C2273 1.523 . S
H2275 C2250 0.950 . S
H2276 C2252 0.950 . S
H2277 C2253 0.949 . S
H2278 C2255 0.950 . S
H2279 C2257 0.950 . S
C2280 C2281 1.349 . S
C2280 C2282 1.327 . S
C2280 H2305 0.950 . S
C2281 C2280 1.349 . S
C2281 C2297 1.349 . S
C2282 C2280 1.327 . S
C2282 C2301 1.429 . S
C2282 H2306 0.950 . S
C2283 C2300 1.574 . S
C2283 C2302 1.368 . S
C2283 H2307 0.949 . S
H2284 C2288 0.949 . S
C2285 C2286 1.349 . S
C2285 C2287 1.327 . S
C2285 H2308 0.950 . S
C2286 C2285 1.349 . S
C2286 C2298 1.349 . S
C2287 C2285 1.327 . S
C2287 C2303 1.429 . S
C2287 H2309 0.950 . S
C2288 H2284 0.949 . S
C2288 C2296 1.574 . S
C2288 C2304 1.368 . S
H2289 C2297 0.950 . S
H2290 C2295 0.950 . S
H2291 C2296 0.949 . S
H2292 C2298 0.950 . S
H2293 C2299 0.950 . S
H2294 C2300 0.949 . S
C2295 H2290 0.950 . S
C2295 C2297 1.327 . S
C2295 C2301 1.429 . S
C2296 C2288 1.574 . S
C2296 H2291 0.949 . S
C2296 C2302 1.368 . S
C2297 C2281 1.349 . S
C2297 H2289 0.950 . S
C2297 C2295 1.327 . S
C2298 C2286 1.349 . S
C2298 H2292 0.950 . S
C2298 C2299 1.327 . S
C2299 H2293 0.950 . S
C2299 C2298 1.327 . S
C2299 C2303 1.429 . S
C2300 C2283 1.574 . S
C2300 H2294 0.949 . S
C2300 C2304 1.368 . S
C2301 C2282 1.429 . S
C2301 C2295 1.429 . S
C2301 C2302 1.523 . S
C2302 C2283 1.368 . S
C2302 C2296 1.368 . S
C2302 C2301 1.523 . S
C2303 C2287 1.429 . S
C2303 C2299 1.429 . S
C2303 C2304 1.523 . S
C2304 C2288 1.368 . S
C2304 C2300 1.368 . S
C2304 C2303 1.523 . S
H2305 C2280 0.950 . S
H2306 C2282 0.950 . S
H2307 C2283 0.949 . S
H2308 C2285 0.950 . S
H2309 C2287 0.950 . S
C2310 C2311 1.349 . S
C2310 C2312 1.327 . S
C2310 H2335 0.950 . S
C2311 C2310 1.349 . S
C2311 C2327 1.349 . S
C2312 C2310 1.327 . S
C2312 C2331 1.429 . S
C2312 H2336 0.950 . S
C2313 C2330 1.574 . S
C2313 C2332 1.368 . S
C2313 H2337 0.949 . S
H2314 C2318 0.949 . S
C2315 C2316 1.349 . S
C2315 C2317 1.327 . S
C2315 H2338 0.950 . S
C2316 C2315 1.349 . S
C2316 C2328 1.349 . S
C2317 C2315 1.327 . S
C2317 C2333 1.429 . S
C2317 H2339 0.950 . S
C2318 H2314 0.949 . S
C2318 C2326 1.574 . S
C2318 C2334 1.368 . S
H2319 C2327 0.950 . S
H2320 C2325 0.950 . S
H2321 C2326 0.949 . S
H2322 C2328 0.950 . S
H2323 C2329 0.950 . S
H2324 C2330 0.949 . S
C2325 H2320 0.950 . S
C2325 C2327 1.327 . S
C2325 C2331 1.429 . S
C2326 C2318 1.574 . S
C2326 H2321 0.949 . S
C2326 C2332 1.368 . S
C2327 C2311 1.349 . S
C2327 H2319 0.950 . S
C2327 C2325 1.327 . S
C2328 C2316 1.349 . S
C2328 H2322 0.950 . S
C2328 C2329 1.327 . S
C2329 H2323 0.950 . S
C2329 C2328 1.327 . S
C2329 C2333 1.429 . S
C2330 C2313 1.574 . S
C2330 H2324 0.949 . S
C2330 C2334 1.368 . S
C2331 C2312 1.429 . S
C2331 C2325 1.429 . S
C2331 C2332 1.523 . S
C2332 C2313 1.368 . S
C2332 C2326 1.368 . S
C2332 C2331 1.523 . S
C2333 C2317 1.429 . S
C2333 C2329 1.429 . S
C2333 C2334 1.523 . S
C2334 C2318 1.368 . S
C2334 C2330 1.368 . S
C2334 C2333 1.523 . S
H2335 C2310 0.950 . S
H2336 C2312 0.950 . S
H2337 C2313 0.949 . S
H2338 C2315 0.950 . S
H2339 C2317 0.950 . S
C721 C529 2.413 . S
C726 C9 2.417 . S
C751 C48 1.670 . S
C756 C568 1.672 . S
C781 C89 2.057 . S
C786 C488 2.096 . S
C811 C88 1.511 . S
C816 C288 1.506 . S
C841 C328 1.840 . S
C846 C8 1.836 . S
C871 C49 2.143 . S
C876 C248 2.178 . S
C901 C139 2.063 . S
C906 C418 2.090 . S
C931 C178 1.392 . S
C936 C458 1.394 . S
C961 C378 1.775 . S
C966 C219 1.739 . S
C991 C658 1.678 . S
C996 C218 1.684 . S
C1021 C138 2.090 . S
C1026 C699 2.058 . S
C1051 C619 2.428 . S
C1056 C179 2.410 . S
C1081 C329 1.934 . S
C1086 C528 1.971 . S
C1111 C249 2.301 . S
C1116 C569 2.293 . S
C1141 C289 2.589 . S
C1146 C489 2.602 . S
C1171 C379 2.712 . S
C1176 C659 2.706 . S
C1201 C698 2.104 . S
C1206 C419 2.073 . S
C1231 C618 2.412 . S
C1236 C459 2.372 . S
C1261 C18 1.325 . S
C1266 C168 1.326 . S
C1291 C209 1.706 . S
C1296 C59 1.705 . S
C1321 C129 1.530 . S
C1326 C98 1.386 . S
C1351 C169 1.751 . S
C1356 C99 1.780 . S
C1381 C208 1.506 . S
C1386 C19 1.601 . S
C1411 C128 1.437 . S
C1416 C58 1.468 . S
C1441 C409 1.820 . S
C1446 C259 1.810 . S
C1471 C449 1.892 . S
C1476 C299 1.883 . S
C1501 C369 1.875 . S
C1506 C339 1.818 . S
C1531 C408 1.391 . S
C1536 C338 1.395 . S
C1561 C448 1.340 . S
C1566 C258 1.402 . S
C1591 C368 1.349 . S
C1596 C298 1.357 . S
C1621 C648 1.467 . S
C1626 C498 1.436 . S
C1651 C689 1.772 . S
C1656 C539 1.744 . S
C1681 C578 1.502 . S
C1686 C609 1.598 . S
C1711 C579 1.928 . S
C1716 C649 1.928 . S
C1741 C499 1.718 . S
C1746 C688 1.559 . S
C1771 C608 1.460 . S
C1776 C538 1.461 . S
C1801 C5 1.237 . S
C1806 C15 1.234 . S
C1831 C55 1.336 . S
C1836 C45 1.336 . S
C1861 C85 1.331 . S
C1866 C95 1.331 . S
C1891 C135 1.279 . S
C1896 C125 1.281 . S
C1921 C175 1.277 . S
C1926 C165 1.277 . S
C1951 C205 1.415 . S
C1956 C215 1.415 . S
C1981 C245 1.409 . S
C1986 C255 1.409 . S
C2011 C295 1.246 . S
C2016 C285 1.246 . S
C2041 C325 1.503 . S
C2046 C335 1.503 . S
C2071 C375 1.199 . S
C2076 C365 1.199 . S
C2101 C415 1.421 . S
C2106 C405 1.421 . S
C2131 C455 1.304 . S
C2136 C445 1.304 . S
C2161 C495 1.202 . S
C2166 C485 1.202 . S
C2191 C535 1.311 . S
C2196 C525 1.311 . S
C2221 C565 1.297 . S
C2226 C575 1.297 . S
C2251 C605 1.293 . S
C2256 C615 1.293 . S
C2281 C655 1.236 . S
C2286 C645 1.236 . S
C2311 C695 1.345 . S
C2316 C685 1.345 . S
