# Generated by pormake.
# Topology snp, (6)-cn, num edge types: 1
# Building blocks:
#     Node 0, Type 0, BuildingBlock: BETDIP_clean_sbu_0, # of connection points: 6
#     Node 1, Type 0, BuildingBlock: BETDIP_clean_sbu_0, # of connection points: 6
#     Node 2, Type 0, BuildingBlock: BETDIP_clean_sbu_0, # of connection points: 6
#     Node 3, Type 0, BuildingBlock: BETDIP_clean_sbu_0, # of connection points: 6
#     Edge 4, Type (0, 0), BuildingBlock: XUDNAN_clean_linker_2, # of connection points: 2
#     Edge 5, Type (0, 0), BuildingBlock: XUDNAN_clean_linker_2, # of connection points: 2
#     Edge 6, Type (0, 0), BuildingBlock: XUDNAN_clean_linker_2, # of connection points: 2
#     Edge 7, Type (0, 0), BuildingBlock: XUDNAN_clean_linker_2, # of connection points: 2
#     Edge 8, Type (0, 0), BuildingBlock: XUDNAN_clean_linker_2, # of connection points: 2
#     Edge 9, Type (0, 0), BuildingBlock: XUDNAN_clean_linker_2, # of connection points: 2
#     Edge 10, Type (0, 0), BuildingBlock: XUDNAN_clean_linker_2, # of connection points: 2
#     Edge 11, Type (0, 0), BuildingBlock: XUDNAN_clean_linker_2, # of connection points: 2
#     Edge 12, Type (0, 0), BuildingBlock: XUDNAN_clean_linker_2, # of connection points: 2
#     Edge 13, Type (0, 0), BuildingBlock: XUDNAN_clean_linker_2, # of connection points: 2
#     Edge 14, Type (0, 0), BuildingBlock: XUDNAN_clean_linker_2, # of connection points: 2
#     Edge 15, Type (0, 0), BuildingBlock: XUDNAN_clean_linker_2, # of connection points: 2
# Relax obj value: 0.729
# Max RMSD: 0.181
# Mean RMSD: 0.170
data_MOF--net-snp--node1-BETDIP_clean_sbu_0--edge1-XUDNAN_clean_linker_2
_symmetry_space_group_name_H-M    P1
_symmetry_Int_Tables_number       1
_symmetry_cell_setting            triclinic
loop_
_symmetry_equiv_pos_as_xyz
'x, y, z'
_cell_length_a     25.189651
_cell_length_b     25.364724
_cell_length_c     26.430106
_cell_angle_alpha  93.150152
_cell_angle_beta   90.352306
_cell_angle_gamma 101.8028
loop_
_atom_site_label
_atom_site_type_symbol
_atom_site_fract_x
_atom_site_fract_y
_atom_site_fract_z
_atom_type_partial_charge
Tb0 Tb 0.29062 0.04607 0.27558 0.0
Tb1 Tb 0.27793 0.14561 1.22467 0.0
C2 C 0.33324 0.98172 0.32323 0.0
C3 C 0.37444 0.98223 0.36306 0.0
C4 C 0.41434 0.95167 0.35423 0.0
C5 C 0.45472 0.95155 0.39062 0.0
C6 C 0.45548 0.98135 0.43717 0.0
C7 C 0.41506 0.01186 0.44589 0.0
C8 C 0.37529 0.01274 0.409 0.0
C9 C 0.1954 0.03463 0.23208 0.0
C10 C 0.23914 0.13674 0.33692 0.0
C11 C 0.26291 0.22315 1.17541 0.0
C12 C 0.29616 0.2767 1.16791 0.0
C13 C 0.27091 0.31857 1.15545 0.0
C14 C 0.30206 0.36796 1.14268 0.0
C15 C 0.35909 0.37616 1.14197 0.0
C16 C 0.3843 0.33536 1.15834 0.0
C17 C 0.35304 0.28597 1.17128 0.0
C18 C 0.3749 0.15109 0.2693 0.0
C19 C 0.28181 0.0394 1.15464 0.0
O20 O 0.35199 0.00227 0.28105 0.0
O21 O 0.28739 0.99519 0.33615 0.0
O22 O 0.22398 0.07771 0.25145 0.0
O23 O 0.21664 0.99427 0.24362 0.0
O24 O 0.26992 0.09972 0.3407 0.0
O25 O 0.22976 0.15363 0.29186 0.0
O26 O 0.28126 0.18217 1.15535 0.0
O27 O 0.24532 0.21515 1.22129 0.0
O28 O 0.34588 0.11141 0.24532 0.0
O29 O 0.35118 0.19101 0.265 0.0
O30 O 0.27077 0.08826 1.1584 0.0
O31 O 0.29659 0.01663 1.19531 0.0
H32 H 0.41452 0.92809 0.31879 0.0
H33 H 0.48539 0.92823 0.38211 0.0
H34 H 0.41326 0.03428 0.48166 0.0
H35 H 0.345 0.03676 0.41666 0.0
H36 H 0.22707 0.31223 1.15322 0.0
H37 H 0.28118 0.39804 1.12941 0.0
H38 H 0.42807 0.34049 1.15813 0.0
H39 H 0.37328 0.25422 1.18158 0.0
Tb40 Tb 0.95752 0.28747 0.70353 0.0
Tb41 Tb 0.06856 0.30725 0.75232 0.0
C42 C 0.86594 0.30959 0.68864 0.0
C43 C 0.84241 0.35068 0.66395 0.0
C44 C 0.85309 0.40499 0.68273 0.0
C45 C 0.8343 0.4441 0.65647 0.0
C46 C 0.80267 0.4292 0.61221 0.0
C47 C 0.78836 0.37439 0.5958 0.0
C48 C 0.80822 0.33553 0.62133 0.0
C49 C -0.00163 0.20088 0.70405 0.0
C50 C 0.05502 0.28761 0.63071 0.0
C51 C 0.16771 0.31681 0.77347 0.0
C52 C 0.20979 0.35742 0.80027 0.0
C53 C 0.19681 0.39021 0.84076 0.0
C54 C 0.2377 0.42744 0.86679 0.0
C55 C 0.2923 0.43297 0.85248 0.0
C56 C 0.30451 0.40208 0.80991 0.0
C57 C 0.26356 0.36449 0.78417 0.0
C58 C 0.02416 0.39266 0.74903 0.0
C59 C 0.96989 0.26676 0.8239 0.0
O60 O 0.89677 0.32674 0.72868 0.0
O61 O 0.88569 0.27506 0.65927 0.0
O62 O 0.00498 0.23946 0.73691 0.0
O63 O 0.95943 0.2059 0.67309 0.0
O64 O 0.00563 0.29894 0.63395 0.0
O65 O 0.08354 0.28436 0.67239 0.0
O66 O 0.12881 0.29049 0.80066 0.0
O67 O 0.14946 0.33218 0.73166 0.0
O68 O 0.02195 0.35579 0.71494 0.0
O69 O 0.05571 0.38445 0.78516 0.0
O70 O 0.02373 0.2781 0.82068 0.0
O71 O 0.93862 0.26807 0.78328 0.0
H72 H 0.87742 0.41771 0.7168 0.0
H73 H 0.84618 0.48614 0.66954 0.0
H74 H 0.76477 0.36199 0.56118 0.0
H75 H 0.79827 0.29385 0.60679 0.0
H76 H 0.15531 0.38601 0.85316 0.0
H77 H 0.22667 0.44963 0.89989 0.0
H78 H 0.34596 0.4056 0.79761 0.0
H79 H 0.27403 0.34017 0.75223 0.0
Tb80 Tb 0.86868 0.14626 0.27291 0.0
Tb81 Tb 0.80937 0.03882 0.23411 0.0
C82 C 0.88488 0.2347 0.32321 0.0
C83 C 0.86666 0.28621 0.31899 0.0
C84 C 0.90358 0.33312 0.30699 0.0
C85 C 0.88833 0.38329 0.31017 0.0
C86 C 0.83614 0.38762 0.32638 0.0
C87 C 0.79808 0.33976 0.33406 0.0
C88 C 0.81313 0.28985 0.33043 0.0
C89 C 0.92531 0.09544 1.21437 0.0
C90 C 0.8796 0.04156 0.33502 0.0
C91 C 0.76768 0.94897 1.19091 0.0
C92 C 0.77533 0.89303 1.19175 0.0
C93 C 0.82693 0.88081 1.18701 0.0
C94 C 0.83257 0.82733 1.18098 0.0
C95 C 0.78664 0.78483 1.17953 0.0
C96 C 0.73551 0.79717 1.18897 0.0
C97 C 0.72992 0.85089 1.19478 0.0
C98 C 0.74897 0.09965 0.28282 0.0
C99 C 0.83379 0.13629 1.15821 0.0
O100 O 0.91859 0.22262 0.28901 0.0
O101 O 0.84753 0.19281 0.33405 0.0
O102 O 0.89161 0.0743 0.24603 0.0
O103 O 0.93532 0.14768 1.22116 0.0
O104 O 0.88574 0.09521 0.33592 0.0
O105 O 0.85593 0.01175 0.29498 0.0
O106 O 0.74885 0.96828 0.23225 0.0
O107 O 0.80633 0.98415 1.17126 0.0
O108 O 0.78583 0.11453 0.25178 0.0
O109 O 0.74628 0.04897 0.28814 0.0
O110 O 0.81727 0.08365 1.16387 0.0
O111 O 0.84842 0.17066 1.19795 0.0
H112 H 0.94497 0.33139 0.29744 0.0
H113 H 0.9185 0.41901 0.30306 0.0
H114 H 0.75769 0.34074 0.34726 0.0
H115 H 0.78334 0.25456 0.33949 0.0
H116 H 0.86265 0.91248 1.18511 0.0
H117 H 0.8726 0.81984 1.1731 0.0
H118 H 0.69942 0.76545 1.18851 0.0
H119 H 0.68977 0.85954 1.19923 0.0
Tb120 Tb 0.0375 0.87932 0.74252 0.0
Tb121 Tb 0.13823 0.85453 0.69714 0.0
C122 C 0.94939 0.85958 0.78777 0.0
C123 C 0.93068 0.81984 0.82536 0.0
C124 C 0.95937 0.7789 0.83312 0.0
C125 C 0.94046 0.739 0.86673 0.0
C126 C 0.89296 0.73996 0.89403 0.0
C127 C 0.86452 0.78146 0.88614 0.0
C128 C 0.88303 0.82077 0.85178 0.0
C129 C 0.10938 0.96264 0.71774 0.0
C130 C 0.13901 0.87558 0.81651 0.0
C131 C 0.22423 0.85004 0.65181 0.0
C132 C 0.27955 0.8457 0.66577 0.0
C133 C 0.30884 0.82052 0.63082 0.0
C134 C 0.36424 0.82433 0.63819 0.0
C135 C 0.39195 0.85406 0.68071 0.0
C136 C 0.36074 0.87353 0.71879 0.0
C137 C 0.30495 0.86974 0.7112 0.0
C138 C 0.06966 0.77146 0.7289 0.0
C139 C 0.04405 0.88867 0.62584 0.0
O140 O 0.95699 0.838 0.74297 0.0
O141 O 0.98923 0.89969 0.80218 0.0
O142 O 0.1184 0.921 0.73563 0.0
O143 O 0.05757 0.96239 0.7185 0.0
O144 O 0.08581 0.87265 0.81177 0.0
O145 O 0.16953 0.87388 0.77573 0.0
O146 O 0.18609 0.80759 0.65818 0.0
O147 O 0.20985 0.89541 0.6658 0.0
O148 O 0.05772 0.80932 0.70506 0.0
O149 O 0.12178 0.77888 0.73408 0.0
O150 O 0.09153 0.87292 0.62957 0.0
O151 O 0.014 0.89298 0.66598 0.0
H152 H -0.00356 0.77786 0.81307 0.0
H153 H 0.96335 0.70782 0.87167 0.0
H154 H 0.82873 0.78473 0.90757 0.0
H155 H 0.86043 0.85209 0.84619 0.0
H156 H 0.28959 0.8009 0.59599 0.0
H157 H 0.38549 0.80813 0.60765 0.0
H158 H 0.3799 0.89512 0.75277 0.0
H159 H 0.28243 0.88824 0.73941 0.0
H160 H 0.92889 0.99046 1.20495 0.0
H161 H 0.96268 0.13744 1.12651 0.0
H162 H 0.02433 0.10088 1.07097 0.0
H163 H 0.01268 0.96567 0.24023 0.0
H164 H 0.02741 0.90087 1.22129 0.0
H165 H 0.95965 0.91099 1.21535 0.0
H166 H 0.95964 0.87948 1.12069 0.0
H167 H 0.02869 0.87116 1.12781 0.0
H168 H 0.01132 0.9125 1.07965 0.0
H169 H 0.11141 0.10531 1.10389 0.0
H170 H 0.18098 0.11224 1.16913 0.0
H171 H 0.11483 0.94971 1.20931 0.0
C172 C 0.94695 0.01236 1.17329 0.0
C173 C 0.94367 0.0667 1.17076 0.0
C174 C 0.96637 0.09605 1.12989 0.0
C175 C 0.00097 0.07495 1.09761 0.0
C176 C 0.01537 0.02679 1.10973 0.0
C177 C 0.98375 0.99172 1.14198 0.0
C178 C 0.01458 0.94941 1.15741 0.0
C179 C 0.00295 0.93091 1.21186 0.0
C180 C 0.0029 0.90031 1.11908 0.0
C181 C 0.07161 0.98107 1.15103 0.0
C182 C 0.07132 0.02409 1.12053 0.0
C183 C 0.11305 0.07013 1.12474 0.0
C184 C 0.15256 0.07428 1.16252 0.0
C185 C 0.15396 0.03052 1.19241 0.0
C186 C 0.11495 0.98254 1.18478 0.0
H187 H 0.17747 0.0431 0.76644 0.0
H188 H 0.13167 0.97174 0.61745 0.0
H189 H 0.15234 0.05929 0.58214 0.0
H190 H 0.12131 0.10905 0.79358 0.0
H191 H 0.15436 0.17742 0.81204 0.0
H192 H 0.19179 0.12486 0.81391 0.0
H193 H 0.26351 0.17919 0.75628 0.0
H194 H 0.22373 0.2306 0.75552 0.0
H195 H 0.243 0.20101 0.69686 0.0
H196 H 0.09177 0.11846 0.5836 0.0
H197 H 0.01235 0.15355 0.61161 0.0
H198 H 0.08606 0.1956 0.75992 0.0
C199 C 0.17615 0.04723 0.72594 0.0
C200 C 0.15028 0.00288 0.69493 0.0
C201 C 0.14922 0.00621 0.64219 0.0
C202 C 0.1618 0.05641 0.62176 0.0
C203 C 0.17086 0.10198 0.65529 0.0
C204 C 0.18521 0.0985 0.70619 0.0
C205 C 0.17768 0.14862 0.73691 0.0
C206 C 0.16004 0.13921 0.79229 0.0
C207 C 0.23 0.19242 0.73624 0.0
C208 C 0.13452 0.16335 0.70402 0.0
C209 C 0.13562 0.14077 0.65507 0.0
C210 C 0.09194 0.1376 0.62121 0.0
C211 C 0.04588 0.15542 0.6379 0.0
C212 C 0.04347 0.17606 0.6881 0.0
C213 C 0.08829 0.18067 0.72106 0.0
H214 H 0.65027 0.05313 0.31914 0.0
H215 H 0.73661 0.19939 0.25509 0.0
H216 H 0.65091 0.23301 0.25142 0.0
H217 H 0.53821 0.03358 0.24279 0.0
H218 H 0.488 0.01023 0.28891 0.0
H219 H 0.5561 0.00011 0.29692 0.0
H220 H 0.563 0.04682 0.38434 0.0
H221 H 0.49742 0.06507 0.38058 0.0
H222 H 0.55701 0.1164 0.39281 0.0
H223 H 0.55248 0.24678 0.24917 0.0
H224 H 0.45272 0.23807 0.24583 0.0
H225 H 0.43188 0.08026 0.30668 0.0
C226 C 0.65153 0.09282 0.30544 0.0
C227 C 0.70023 0.12386 0.28775 0.0
C228 C 0.69984 0.17519 0.26932 0.0
C229 C 0.6513 0.19451 0.267 0.0
C230 C 0.60352 0.16195 0.28318 0.0
C231 C 0.60355 0.11229 0.30225 0.0
C232 C 0.54671 0.08333 0.31406 0.0
C233 C 0.5314 0.02857 0.28393 0.0
C234 C 0.54082 0.07739 0.37136 0.0
C235 C 0.51406 0.12284 0.2963 0.0
C236 C 0.5475 0.16875 0.27995 0.0
C237 C 0.52616 0.21098 0.26208 0.0
C238 C 0.46942 0.20572 0.26043 0.0
C239 C 0.43456 0.15814 0.27555 0.0
C240 C 0.45742 0.1166 0.29416 0.0
H241 H 0.04178 0.47964 0.81577 0.0
H242 H 0.97662 0.42475 0.66559 0.0
H243 H 0.96168 0.5164 0.65158 0.0
H244 H 0.95859 0.58619 0.84347 0.0
H245 H 0.01626 0.63036 0.87428 0.0
H246 H 0.00819 0.55828 0.87671 0.0
H247 H 0.10443 0.56455 0.83937 0.0
H248 H 0.11196 0.6362 0.83674 0.0
H249 H 0.11973 0.59577 0.78006 0.0
H250 H 0.96559 0.61652 0.64991 0.0
H251 H -0.00048 0.71561 0.65588 0.0
H252 H 0.06819 0.70467 0.80444 0.0
C253 C 0.02277 0.48656 0.78056 0.0
C254 C 0.00941 0.44514 0.74208 0.0
C255 C 0.98636 0.45594 0.69582 0.0
C256 C 0.97743 0.50776 0.68772 0.0
C257 C 0.99203 0.54821 0.72622 0.0
C258 C 0.01454 0.53809 0.77168 0.0
C259 C 0.0353 0.58961 0.8036 0.0
C260 C 0.00261 0.59118 0.85239 0.0
C261 C 0.09645 0.59694 0.81557 0.0
C262 C 0.02385 0.63064 0.76791 0.0
C263 C -0.00312 0.6061 0.72431 0.0
C264 C 0.98581 0.63614 0.68425 0.0
C265 C 0.00491 0.69234 0.68798 0.0
C266 C 0.03584 0.71718 0.73084 0.0
C267 C 0.04375 0.68628 0.77177 0.0
H268 H 0.15956 0.27372 0.60586 0.0
H269 H -0.00276 0.25451 0.54187 0.0
H270 H 0.02652 0.21107 0.46398 0.0
H271 H 0.22994 0.30435 0.4855 0.0
H272 H 0.28332 0.26932 0.49926 0.0
H273 H 0.25031 0.29932 0.55028 0.0
H274 H 0.22502 0.20656 0.59128 0.0
H275 H 0.26025 0.17837 0.54077 0.0
H276 H 0.19067 0.14864 0.55256 0.0
H277 H 0.07201 0.16669 0.39333 0.0
H278 H 0.13157 0.13205 0.33205 0.0
H279 H 0.26747 0.17967 0.43776 0.0
C280 C 0.13031 0.26126 0.57512 0.0
C281 C 0.0757 0.26848 0.58051 0.0
C282 C 0.03916 0.25066 0.53913 0.0
C283 C 0.05545 0.22529 0.49464 0.0
C284 C 0.10896 0.21813 0.491 0.0
C285 C 0.14622 0.23629 0.5298 0.0
C286 C 0.20173 0.22461 0.51514 0.0
C287 C 0.24383 0.27755 0.51238 0.0
C288 C 0.22053 0.18738 0.55224 0.0
C289 C 0.1896 0.19602 0.46252 0.0
C290 C 0.13562 0.19289 0.4497 0.0
C291 C 0.11424 0.16912 0.40318 0.0
C292 C 0.14861 0.14923 0.3685 0.0
C293 C 0.20442 0.1522 0.37965 0.0
C294 C 0.22497 0.17557 0.42802 0.0
H295 H 0.00208 0.28548 0.92712 0.0
H296 H 0.87405 0.19509 0.82718 0.0
H297 H 0.8252 0.15525 0.90062 0.0
H298 H -0.00218 0.18258 1.01921 0.0
H299 H 0.00834 0.22964 1.0737 0.0
H300 H 0.03515 0.25058 1.01328 0.0
H301 H 0.98405 0.32943 1.01833 0.0
H302 H 0.95692 0.30856 1.07867 0.0
H303 H 0.91174 0.31537 1.02739 0.0
H304 H 0.79143 0.12015 0.98431 0.0
H305 H 0.7729 0.09731 1.07312 0.0
H306 H 0.9156 0.216 1.12279 0.0
C307 C 0.96385 0.25721 0.92076 0.0
C308 C 0.94225 0.24365 0.87069 0.0
C309 C 0.89171 0.20673 0.86462 0.0
C310 C 0.86348 0.18356 0.90633 0.0
C311 C 0.88534 0.19792 0.95488 0.0
C312 C 0.93412 0.23427 0.96259 0.0
C313 C 0.94727 0.24344 1.01936 0.0
C314 C 0.0003 0.2255 1.03213 0.0
C315 C 0.95017 0.30273 1.03697 0.0
C316 C 0.89848 0.2066 1.04194 0.0
C317 C 0.86377 0.18016 1.0038 0.0
C318 C 0.81791 0.14133 1.01452 0.0
C319 C 0.80751 0.12868 1.06524 0.0
C320 C 0.84184 0.15547 1.10541 0.0
C321 C 0.88755 0.19573 1.09329 0.0
H322 H 0.98394 0.96672 0.60931 0.0
H323 H 0.06183 0.85065 0.5287 0.0
H324 H 0.02876 0.8772 0.44718 0.0
H325 H 0.86552 0.95257 0.52857 0.0
H326 H 0.86439 0.02351 0.5318 0.0
H327 H 0.89307 0.99468 0.5836 0.0
H328 H 0.98325 0.06329 0.57654 0.0
H329 H 0.95451 0.09334 0.52548 0.0
H330 H 0.01698 0.07005 0.51657 0.0
H331 H 0.98147 0.91303 0.37381 0.0
H332 H 0.93328 0.96025 0.31516 0.0
H333 H 0.89249 0.0605 0.4412 0.0
C334 C 0.99384 0.94659 0.5745 0.0
C335 C 0.02507 0.90564 0.57591 0.0
C336 C 0.03796 0.88166 0.52912 0.0
C337 C 0.01913 0.89654 0.48247 0.0
C338 C 0.98819 0.93661 0.48253 0.0
C339 C 0.97641 0.96196 0.52738 0.0
C340 C 0.94437 0.00543 0.51677 0.0
C341 C 0.88852 0.99331 0.54167 0.0
C342 C 0.97672 0.06143 0.53485 0.0
C343 C 0.93885 3e-05 0.45904 0.0
C344 C 0.96404 0.95958 0.4402 0.0
C345 C 0.9623 0.94507 0.3884 0.0
C346 C 0.93446 0.97219 0.35521 0.0
C347 C 0.909 0.0146 0.37297 0.0
C348 C 0.91188 0.02887 0.42594 0.0
H349 H 0.12974 0.96019 0.88294 0.0
H350 H 0.21085 0.82568 0.86497 0.0
H351 H 0.25609 0.85137 0.94923 0.0
H352 H 0.24665 0.05236 0.93977 0.0
H353 H 0.20689 0.08752 0.98081 0.0
H354 H 0.1787 0.05633 0.92103 0.0
H355 H 0.09649 -0.00143 0.96637 0.0
H356 H 0.1242 0.03436 1.02412 0.0
H357 H 0.10983 0.96157 1.01978 0.0
H358 H 0.2899 0.89164 1.0397 0.0
H359 H 0.3145 0.9456 1.12081 0.0
H360 H 0.21882 0.0592 1.0745 0.0
C361 C 0.15655 0.93575 0.89707 0.0
C362 C 0.16577 0.89006 0.86773 0.0
C363 C 0.20258 0.86034 0.88691 0.0
C364 C 0.22845 0.87475 0.93485 0.0
C365 C 0.21847 0.92007 0.96293 0.0
C366 C 0.18399 0.95061 0.94412 0.0
C367 C 0.18264 -0.00055 0.9798 0.0
C368 C 0.20505 0.05202 0.95379 0.0
C369 C 0.12484 -0.00172 0.99868 0.0
C370 C 0.22048 0.9911 1.02249 0.0
C371 C 0.24054 0.94489 1.01238 0.0
C372 C 0.27477 0.92819 1.04744 0.0
C373 C 0.28868 0.95921 1.09361 0.0
C374 C 0.26941 0.0073 1.10452 0.0
C375 C 0.23505 0.02317 1.06777 0.0
H376 H 0.71912 0.72418 1.10916 0.0
H377 H 0.86669 0.72744 1.19444 0.0
H378 H 0.89771 0.6721 1.12644 0.0
H379 H 0.72902 0.58432 1.02313 0.0
H380 H 0.70027 0.61304 0.97127 0.0
H381 H 0.67534 0.62054 1.03457 0.0
H382 H 0.69313 0.72349 1.02686 0.0
H383 H 0.71884 0.7167 0.9649 0.0
H384 H 0.76064 0.75937 1.01292 0.0
H385 H 0.93175 0.66642 1.04258 0.0
H386 H 0.95838 0.70168 0.96035 0.0
H387 H 0.79 0.69481 0.92108 0.0
C388 C 0.75599 0.70961 1.11504 0.0
C389 C 0.79128 0.7314 1.15603 0.0
C390 C 0.83949 0.71211 1.16268 0.0
C391 C 0.85727 0.68024 1.1241 0.0
C392 C 0.82577 0.667 1.07975 0.0
C393 C 0.77436 0.67856 1.07605 0.0
C394 C 0.75419 0.67239 1.02137 0.0
C395 C 0.71226 0.61941 1.01205 0.0
C396 C 0.73054 0.72095 1.0057 0.0
C397 C 0.80646 0.66888 0.99468 0.0
C398 C 0.84612 0.66168 1.02877 0.0
C399 C 0.9006 0.66974 1.01527 0.0
C400 C 0.91556 0.69007 0.9681 0.0
C401 C 0.87612 0.70206 0.93472 0.0
C402 C 0.8208 0.68668 0.9465 0.0
H403 H 0.49551 0.89333 0.45994 0.0
H404 H 0.50444 0.06071 0.50761 0.0
H405 H 0.53983 0.04478 0.59055 0.0
H406 H 0.44229 0.83307 0.53512 0.0
H407 H 0.47894 0.78221 0.55239 0.0
H408 H 0.4902 0.81105 0.4926 0.0
H409 H 0.59186 0.84044 0.51133 0.0
H410 H 0.58212 0.81032 0.57174 0.0
H411 H 0.61628 0.87975 0.5687 0.0
H412 H 0.52103 0.00504 0.6693 0.0
H413 H 0.45088 0.95268 0.71864 0.0
H414 H 0.46979 0.80665 0.63515 0.0
C415 C 0.50862 0.92734 0.4867 0.0
C416 C 0.49525 0.97755 0.47811 0.0
C417 C 0.51227 0.02117 0.51402 0.0
C418 C 0.53362 0.01265 0.56112 0.0
C419 C 0.53932 0.9606 0.57141 0.0
C420 C 0.53059 0.91911 0.53388 0.0
C421 C 0.52784 0.86511 0.55683 0.0
C422 C 0.48195 0.8204 0.53297 0.0
C423 C 0.58279 0.84795 0.55188 0.0
C424 C 0.51855 0.88092 0.61183 0.0
C425 C 0.53118 0.93676 0.6204 0.0
C426 C 0.51216 0.96157 0.66314 0.0
C427 C 0.4718 0.93096 0.69166 0.0
C428 C 0.45172 0.87579 0.6777 0.0
C429 C 0.48248 0.84954 0.64396 0.0
H430 H 0.38477 0.4021 0.87918 0.0
H431 H 0.29653 0.52986 0.90646 0.0
H432 H 0.34604 0.55597 0.98712 0.0
H433 H 0.36983 0.34735 0.97361 0.0
H434 H 0.43515 0.33296 0.98909 0.0
H435 H 0.42003 0.34471 0.9255 0.0
H436 H 0.50481 0.42137 0.92443 0.0
H437 H 0.52044 0.4095 0.98901 0.0
H438 H 0.51469 0.47604 0.97227 0.0
H439 H 0.36514 0.53912 1.07297 0.0
H440 H 0.35084 0.48281 1.14622 0.0
H441 H 0.43182 0.36764 1.06955 0.0
C442 C 0.37885 0.43796 0.90053 0.0
C443 C 0.33608 0.46307 0.8873 0.0
C444 C 0.32847 0.50928 0.9164 0.0
C445 C 0.35705 0.52479 0.9622 0.0
C446 C 0.39391 0.49441 0.97795 0.0
C447 C 0.40684 0.4532 0.94671 0.0
C448 C 0.43693 0.41845 0.97618 0.0
C449 C 0.41391 0.35739 0.96554 0.0
C450 C 0.49782 0.4322 0.96481 0.0
C451 C 0.42697 0.43812 1.02978 0.0
C452 C 0.40642 0.48493 1.03007 0.0
C453 C 0.38286 0.50371 1.0734 0.0
C454 C 0.3746 0.47133 1.11503 0.0
C455 C 0.3896 0.42058 1.11287 0.0
C456 C 0.42086 0.40674 1.07211 0.0
H457 H 0.90663 0.46988 0.37616 0.0
H458 H 0.73942 0.42325 0.32542 0.0
H459 H 0.71233 0.47616 0.39724 0.0
H460 H 0.90649 0.44688 0.47821 0.0
H461 H 0.94705 0.50397 0.5139 0.0
H462 H 0.95678 0.49572 0.44769 0.0
H463 H 0.9388 0.59056 0.43533 0.0
H464 H 0.92914 0.59917 0.50265 0.0
H465 H 0.87755 0.6088 0.45861 0.0
H466 H 0.69976 0.47841 0.48676 0.0
H467 H 0.70714 0.44356 0.57075 0.0
H468 H 0.88039 0.50085 0.57134 0.0
C469 C 0.86495 0.47431 0.37803 0.0
C470 C 0.82486 0.44013 0.34706 0.0
C471 C 0.77075 0.44729 0.3501 0.0
C472 C 0.75503 0.47793 0.3908 0.0
C473 C 0.79428 0.50309 0.42677 0.0
C474 C 0.84911 0.50511 0.41878 0.0
C475 C 0.88192 0.52404 0.46715 0.0
C476 C 0.92536 0.49046 0.47729 0.0
C477 C 0.90837 0.58421 0.46585 0.0
C478 C 0.83669 0.51633 0.50529 0.0
C479 C 0.78624 0.50872 0.48119 0.0
C480 C 0.73872 0.48676 0.50628 0.0
C481 C 0.74305 0.46682 0.55416 0.0
C482 C 0.79446 0.47003 0.5769 0.0
C483 C 0.84084 0.49965 0.55455 0.0
loop_
_geom_bond_atom_site_label_1
_geom_bond_atom_site_label_2
_geom_bond_distance
_geom_bond_site_symmetry_2
_ccdc_geom_bond_type
Tb0 C2 2.809 . S
Tb0 O20 2.484 . S
Tb0 O21 2.440 . S
Tb0 O22 2.658 . S
Tb0 O23 2.409 . S
Tb0 O24 2.378 . S
Tb0 O28 2.325 . S
Tb0 O31 2.341 1_554 S
Tb1 C11 2.809 . S
Tb1 O22 2.325 1_556 S
Tb1 O25 2.341 1_556 S
Tb1 O26 2.484 . S
Tb1 O27 2.440 . S
Tb1 O28 2.658 1_556 S
Tb1 O29 2.411 . S
Tb1 O30 2.378 . S
C2 Tb0 2.809 . S
C2 C3 1.514 . S
C2 O20 1.248 . S
C2 O21 1.266 . S
C3 C2 1.514 . S
C3 C4 1.359 . S
C3 C8 1.348 . S
C4 C3 1.359 . S
C4 C5 1.380 . S
C4 H32 0.929 . S
C5 C4 1.380 . S
C5 C6 1.347 . S
C5 H33 0.931 . S
C6 C5 1.347 . S
C6 C7 1.369 . S
C7 C6 1.369 . S
C7 C8 1.408 . S
C7 H34 0.930 1_545 S
C8 C3 1.348 . S
C8 C7 1.408 . S
C8 H35 0.930 . S
C9 O22 1.281 . S
C9 O23 1.254 . S
C10 O24 1.236 . S
C10 O25 1.266 . S
C11 Tb1 2.809 . S
C11 C12 1.514 . S
C11 O26 1.248 . S
C11 O27 1.266 . S
C12 C11 1.514 . S
C12 C13 1.359 . S
C12 C17 1.348 . S
C13 C12 1.359 . S
C13 C14 1.380 . S
C13 H36 0.929 . S
C14 C13 1.380 . S
C14 C15 1.347 . S
C14 H37 0.931 . S
C15 C14 1.347 . S
C15 C16 1.369 . S
C16 C15 1.369 . S
C16 C17 1.408 . S
C16 H38 0.930 . S
C17 C12 1.348 . S
C17 C16 1.408 . S
C17 H39 0.930 . S
C18 O28 1.281 . S
C18 O29 1.240 1_554 S
C19 O30 1.236 . S
C19 O31 1.266 . S
O20 Tb0 2.484 . S
O20 C2 1.248 . S
O21 Tb0 2.440 . S
O21 C2 1.266 . S
O22 Tb0 2.658 . S
O22 Tb1 2.325 1_554 S
O22 C9 1.281 . S
O23 Tb0 2.409 . S
O23 C9 1.254 . S
O24 Tb0 2.378 . S
O24 C10 1.236 . S
O25 Tb1 2.341 1_554 S
O25 C10 1.266 . S
O26 Tb1 2.484 . S
O26 C11 1.248 . S
O27 Tb1 2.440 . S
O27 C11 1.266 . S
O28 Tb0 2.325 . S
O28 Tb1 2.658 1_554 S
O28 C18 1.281 . S
O29 Tb1 2.411 . S
O29 C18 1.240 1_556 S
O30 Tb1 2.378 . S
O30 C19 1.236 . S
O31 Tb0 2.341 1_556 S
O31 C19 1.266 . S
H32 C4 0.929 . S
H33 C5 0.931 . S
H34 C7 0.930 1_565 S
H35 C8 0.930 . S
H36 C13 0.929 . S
H37 C14 0.931 . S
H38 C16 0.930 . S
H39 C17 0.930 . S
Tb40 C42 2.809 1_455 S
Tb40 O60 2.484 . S
Tb40 O61 2.440 1_455 S
Tb40 O62 2.658 . S
Tb40 O63 2.409 . S
Tb40 O64 2.378 . S
Tb40 O68 2.325 . S
Tb40 O71 2.339 1_455 S
Tb41 C51 2.809 . S
Tb41 O62 2.325 . S
Tb41 O65 2.341 . S
Tb41 O66 2.484 . S
Tb41 O67 2.440 . S
Tb41 O68 2.658 . S
Tb41 O69 2.409 . S
Tb41 O70 2.378 . S
C42 Tb40 2.809 1_655 S
C42 C43 1.514 . S
C42 O60 1.249 1_655 S
C42 O61 1.266 . S
C43 C42 1.514 . S
C43 C44 1.359 . S
C43 C48 1.348 . S
C44 C43 1.359 . S
C44 C45 1.380 . S
C44 H72 0.929 . S
C45 C44 1.380 . S
C45 C46 1.347 . S
C45 H73 0.931 . S
C46 C45 1.347 . S
C46 C47 1.369 . S
C47 C46 1.369 . S
C47 C48 1.408 . S
C47 H74 0.930 . S
C48 C43 1.348 . S
C48 C47 1.408 . S
C48 H75 0.930 . S
C49 O62 1.281 . S
C49 O63 1.254 . S
C50 O64 1.236 . S
C50 O65 1.266 . S
C51 Tb41 2.809 . S
C51 C52 1.514 . S
C51 O66 1.248 . S
C51 O67 1.266 . S
C52 C51 1.514 . S
C52 C53 1.359 . S
C52 C57 1.348 . S
C53 C52 1.359 . S
C53 C54 1.380 . S
C53 H76 0.929 . S
C54 C53 1.380 . S
C54 C55 1.347 . S
C54 H77 0.931 . S
C55 C54 1.347 . S
C55 C56 1.369 . S
C56 C55 1.369 . S
C56 C57 1.408 . S
C56 H78 0.930 . S
C57 C52 1.348 . S
C57 C56 1.408 . S
C57 H79 0.930 . S
C58 O68 1.281 . S
C58 O69 1.254 . S
C59 O70 1.236 . S
C59 O71 1.254 1_455 S
O60 Tb40 2.484 . S
O60 C42 1.249 1_455 S
O61 Tb40 2.440 1_655 S
O61 C42 1.266 . S
O62 Tb40 2.658 . S
O62 Tb41 2.325 . S
O62 C49 1.281 . S
O63 Tb40 2.409 . S
O63 C49 1.254 . S
O64 Tb40 2.378 . S
O64 C50 1.236 . S
O65 Tb41 2.341 . S
O65 C50 1.266 . S
O66 Tb41 2.484 . S
O66 C51 1.248 . S
O67 Tb41 2.440 . S
O67 C51 1.266 . S
O68 Tb40 2.325 . S
O68 Tb41 2.658 . S
O68 C58 1.281 . S
O69 Tb41 2.409 . S
O69 C58 1.254 . S
O70 Tb41 2.378 . S
O70 C59 1.236 . S
O71 Tb40 2.339 1_655 S
O71 C59 1.254 1_655 S
H72 C44 0.929 . S
H73 C45 0.931 . S
H74 C47 0.930 . S
H75 C48 0.930 . S
H76 C53 0.929 . S
H77 C54 0.931 . S
H78 C56 0.930 . S
H79 C57 0.930 . S
Tb80 C82 2.809 . S
Tb80 O100 2.484 . S
Tb80 O101 2.440 . S
Tb80 O102 2.644 1_554 S
Tb80 O103 2.409 . S
Tb80 O104 2.378 . S
Tb80 O108 2.325 . S
Tb80 O111 2.341 1_554 S
Tb81 C91 2.809 . S
Tb81 O102 2.331 1_565 S
Tb81 O105 2.341 1_556 S
Tb81 O106 2.484 . S
Tb81 O107 2.440 . S
Tb81 O108 2.658 1_566 S
Tb81 O109 2.409 . S
Tb81 O110 2.378 1_565 S
C82 Tb80 2.809 . S
C82 C83 1.514 . S
C82 O100 1.248 . S
C82 O101 1.266 . S
C83 C82 1.514 . S
C83 C84 1.359 . S
C83 C88 1.348 . S
C84 C83 1.359 . S
C84 C85 1.380 . S
C84 H112 0.929 . S
C85 C84 1.380 . S
C85 C86 1.347 . S
C85 H113 0.931 . S
C86 C85 1.347 . S
C86 C87 1.369 . S
C87 C86 1.369 . S
C87 C88 1.408 . S
C87 H114 0.930 . S
C88 C83 1.348 . S
C88 C87 1.408 . S
C88 H115 0.930 . S
C89 O102 1.271 1_554 S
C89 O103 1.254 . S
C90 O104 1.236 1_565 S
C90 O105 1.266 . S
C91 Tb81 2.809 . S
C91 C92 1.514 . S
C91 O106 1.248 . S
C91 O107 1.266 . S
C92 C91 1.514 . S
C92 C93 1.359 . S
C92 C97 1.348 . S
C93 C92 1.359 . S
C93 C94 1.380 . S
C93 H116 0.929 . S
C94 C93 1.380 . S
C94 C95 1.347 . S
C94 H117 0.931 . S
C95 C94 1.347 . S
C95 C96 1.369 . S
C96 C95 1.369 . S
C96 C97 1.408 . S
C96 H118 0.930 . S
C97 C92 1.348 . S
C97 C96 1.408 . S
C97 H119 0.930 . S
C98 O108 1.281 . S
C98 O109 1.254 1_544 S
C99 O110 1.236 . S
C99 O111 1.266 . S
O100 Tb80 2.484 . S
O100 C82 1.248 . S
O101 Tb80 2.440 . S
O101 C82 1.266 . S
O102 Tb80 2.644 1_556 S
O102 Tb81 2.331 1_545 S
O102 C89 1.271 1_556 S
O103 Tb80 2.409 . S
O103 C89 1.254 . S
O104 Tb80 2.378 . S
O104 C90 1.236 1_545 S
O105 Tb81 2.341 1_554 S
O105 C90 1.266 . S
O106 Tb81 2.484 . S
O106 C91 1.248 . S
O107 Tb81 2.440 . S
O107 C91 1.266 . S
O108 Tb80 2.325 . S
O108 Tb81 2.658 1_544 S
O108 C98 1.281 . S
O109 Tb81 2.409 . S
O109 C98 1.254 1_566 S
O110 Tb81 2.378 1_545 S
O110 C99 1.236 . S
O111 Tb80 2.341 1_556 S
O111 C99 1.266 . S
H112 C84 0.929 . S
H113 C85 0.931 . S
H114 C87 0.930 . S
H115 C88 0.930 . S
H116 C93 0.929 . S
H117 C94 0.931 . S
H118 C96 0.930 . S
H119 C97 0.930 . S
Tb120 C122 2.809 1_455 S
Tb120 O140 2.484 . S
Tb120 O141 2.440 1_455 S
Tb120 O142 2.658 . S
Tb120 O143 2.409 . S
Tb120 O144 2.378 . S
Tb120 O148 2.325 . S
Tb120 O151 2.341 . S
Tb121 C131 2.809 . S
Tb121 O142 2.325 . S
Tb121 O145 2.341 . S
Tb121 O146 2.484 . S
Tb121 O147 2.440 . S
Tb121 O148 2.658 . S
Tb121 O149 2.409 . S
Tb121 O150 2.378 . S
C122 Tb120 2.809 1_655 S
C122 C123 1.514 . S
C122 O140 1.248 1_655 S
C122 O141 1.266 . S
C123 C122 1.514 . S
C123 C124 1.359 . S
C123 C128 1.348 . S
C124 C123 1.359 . S
C124 C125 1.380 . S
C124 H152 0.929 . S
C125 C124 1.380 . S
C125 C126 1.347 . S
C125 H153 0.931 . S
C126 C125 1.347 . S
C126 C127 1.369 . S
C127 C126 1.369 . S
C127 C128 1.408 . S
C127 H154 0.930 . S
C128 C123 1.348 . S
C128 C127 1.408 . S
C128 H155 0.930 . S
C129 O142 1.281 . S
C129 O143 1.254 . S
C130 O144 1.236 . S
C130 O145 1.266 . S
C131 Tb121 2.809 . S
C131 C132 1.514 . S
C131 O146 1.248 . S
C131 O147 1.266 . S
C132 C131 1.514 . S
C132 C133 1.359 . S
C132 C137 1.348 . S
C133 C132 1.359 . S
C133 C134 1.380 . S
C133 H156 0.929 . S
C134 C133 1.380 . S
C134 C135 1.347 . S
C134 H157 0.931 . S
C135 C134 1.347 . S
C135 C136 1.369 . S
C136 C135 1.369 . S
C136 C137 1.408 . S
C136 H158 0.930 . S
C137 C132 1.348 . S
C137 C136 1.408 . S
C137 H159 0.930 . S
C138 O148 1.281 . S
C138 O149 1.254 . S
C139 O150 1.236 . S
C139 O151 1.266 . S
O140 Tb120 2.484 . S
O140 C122 1.248 1_455 S
O141 Tb120 2.440 1_655 S
O141 C122 1.266 . S
O142 Tb120 2.658 . S
O142 Tb121 2.325 . S
O142 C129 1.281 . S
O143 Tb120 2.409 . S
O143 C129 1.254 . S
O144 Tb120 2.378 . S
O144 C130 1.236 . S
O145 Tb121 2.341 . S
O145 C130 1.266 . S
O146 Tb121 2.484 . S
O146 C131 1.248 . S
O147 Tb121 2.440 . S
O147 C131 1.266 . S
O148 Tb120 2.325 . S
O148 Tb121 2.658 . S
O148 C138 1.281 . S
O149 Tb121 2.409 . S
O149 C138 1.254 . S
O150 Tb121 2.378 . S
O150 C139 1.236 . S
O151 Tb120 2.341 . S
O151 C139 1.266 . S
H152 C124 0.929 . S
H153 C125 0.931 . S
H154 C127 0.930 . S
H155 C128 0.930 . S
H156 C133 0.929 . S
H157 C134 0.931 . S
H158 C136 0.930 . S
H159 C137 0.930 . S
H160 C172 0.930 . S
H161 C174 0.930 1_565 S
H162 C175 0.930 . S
H163 C179 0.959 . S
H164 C179 0.959 . S
H165 C179 0.961 . S
H166 C180 0.960 . S
H167 C180 0.961 . S
H168 C180 0.959 . S
H169 C183 0.929 . S
H170 C184 0.931 . S
H171 C186 0.930 . S
C172 H160 0.930 . S
C172 C173 1.399 . S
C172 C177 1.399 1_655 S
C173 C172 1.399 . S
C173 C174 1.376 1_554 S
C174 H161 0.930 1_545 S
C174 C173 1.376 1_556 S
C174 C175 1.388 1_655 S
C175 H162 0.930 . S
C175 C174 1.388 1_455 S
C175 C176 1.390 . S
C176 C175 1.390 . S
C176 C177 1.394 1_556 S
C176 C182 1.465 . S
C177 C172 1.399 1_455 S
C177 C176 1.394 1_554 S
C177 C178 1.516 . S
C178 C177 1.516 . S
C178 C179 1.502 . S
C178 C180 1.561 . S
C178 C181 1.526 . S
C179 H163 0.959 . S
C179 H164 0.959 . S
C179 H165 0.961 . S
C179 C178 1.502 . S
C180 H166 0.960 . S
C180 H167 0.961 . S
C180 H168 0.959 . S
C180 C178 1.561 . S
C181 C178 1.526 . S
C181 C182 1.396 1_554 S
C181 C186 1.390 . S
C182 C176 1.465 . S
C182 C181 1.396 1_556 S
C182 C183 1.399 . S
C183 H169 0.929 . S
C183 C182 1.399 . S
C183 C184 1.385 . S
C184 H170 0.931 . S
C184 C183 1.385 . S
C184 C185 1.389 1_556 S
C185 C184 1.389 1_554 S
C185 C186 1.387 . S
C186 H171 0.930 . S
C186 C181 1.390 . S
C186 C185 1.387 . S
H187 C199 0.930 1_565 S
H188 C201 0.930 . S
H189 C202 0.930 . S
H190 C206 0.959 . S
H191 C206 0.959 . S
H192 C206 0.961 . S
H193 C207 0.960 . S
H194 C207 0.961 . S
H195 C207 0.959 . S
H196 C210 0.929 . S
H197 C211 0.931 . S
H198 C213 0.930 . S
C199 H187 0.930 1_545 S
C199 C200 1.399 1_545 S
C199 C204 1.399 . S
C200 C199 1.399 1_565 S
C200 C201 1.376 . S
C201 H188 0.930 . S
C201 C200 1.376 . S
C201 C202 1.388 1_565 S
C202 H189 0.930 . S
C202 C201 1.388 1_545 S
C202 C203 1.390 . S
C203 C202 1.390 . S
C203 C204 1.394 . S
C203 C209 1.465 . S
C204 C199 1.399 . S
C204 C203 1.394 . S
C204 C205 1.516 . S
C205 C204 1.516 . S
C205 C206 1.502 . S
C205 C207 1.561 . S
C205 C208 1.526 . S
C206 H190 0.959 . S
C206 H191 0.959 . S
C206 H192 0.961 . S
C206 C205 1.502 . S
C207 H193 0.960 . S
C207 H194 0.961 . S
C207 H195 0.959 . S
C207 C205 1.561 . S
C208 C205 1.526 . S
C208 C209 1.396 . S
C208 C213 1.390 . S
C209 C203 1.465 . S
C209 C208 1.396 . S
C209 C210 1.399 . S
C210 H196 0.929 . S
C210 C209 1.399 . S
C210 C211 1.385 . S
C211 H197 0.931 . S
C211 C210 1.385 . S
C211 C212 1.389 . S
C212 C211 1.389 . S
C212 C213 1.387 . S
C213 H198 0.930 . S
C213 C208 1.390 . S
C213 C212 1.387 . S
H214 C226 0.930 . S
H215 C228 0.930 . S
H216 C229 0.930 . S
H217 C233 0.959 . S
H218 C233 0.959 . S
H219 C233 0.961 . S
H220 C234 0.960 . S
H221 C234 0.961 . S
H222 C234 0.959 . S
H223 C237 0.929 . S
H224 C238 0.931 . S
H225 C240 0.930 . S
C226 H214 0.930 . S
C226 C227 1.399 . S
C226 C231 1.399 . S
C227 C226 1.399 . S
C227 C228 1.376 1_554 S
C228 H215 0.930 . S
C228 C227 1.376 1_556 S
C228 C229 1.388 . S
C229 H216 0.930 . S
C229 C228 1.388 . S
C229 C230 1.390 . S
C230 C229 1.390 . S
C230 C231 1.394 1_556 S
C230 C236 1.465 . S
C231 C226 1.399 . S
C231 C230 1.394 1_554 S
C231 C232 1.516 . S
C232 C231 1.516 . S
C232 C233 1.502 . S
C232 C234 1.561 . S
C232 C235 1.526 . S
C233 H217 0.959 . S
C233 H218 0.959 . S
C233 H219 0.961 . S
C233 C232 1.502 . S
C234 H220 0.960 . S
C234 H221 0.961 . S
C234 H222 0.959 . S
C234 C232 1.561 . S
C235 C232 1.526 . S
C235 C236 1.397 1_554 S
C235 C240 1.390 . S
C236 C230 1.465 . S
C236 C235 1.397 1_556 S
C236 C237 1.398 . S
C237 H223 0.929 . S
C237 C236 1.398 . S
C237 C238 1.385 . S
C238 H224 0.931 . S
C238 C237 1.385 . S
C238 C239 1.389 1_556 S
C239 C238 1.389 1_554 S
C239 C240 1.387 . S
C240 H225 0.930 . S
C240 C235 1.390 . S
C240 C239 1.387 . S
H241 C253 0.930 . S
H242 C255 0.930 . S
H243 C256 0.930 . S
H244 C260 0.959 1_655 S
H245 C260 0.959 . S
H246 C260 0.961 . S
H247 C261 0.960 . S
H248 C261 0.961 . S
H249 C261 0.959 . S
H250 C264 0.929 . S
H251 C265 0.931 . S
H252 C267 0.930 . S
C253 H241 0.930 . S
C253 C254 1.399 . S
C253 C258 1.399 . S
C254 C253 1.399 . S
C254 C255 1.376 . S
C255 H242 0.930 . S
C255 C254 1.376 . S
C255 C256 1.388 . S
C256 H243 0.930 . S
C256 C255 1.388 . S
C256 C257 1.390 . S
C257 C256 1.390 . S
C257 C258 1.394 . S
C257 C263 1.465 . S
C258 C253 1.399 . S
C258 C257 1.394 . S
C258 C259 1.516 . S
C259 C258 1.516 . S
C259 C260 1.502 . S
C259 C261 1.561 . S
C259 C262 1.526 . S
C260 H244 0.959 1_455 S
C260 H245 0.959 . S
C260 H246 0.961 . S
C260 C259 1.502 . S
C261 H247 0.960 . S
C261 H248 0.961 . S
C261 H249 0.959 . S
C261 C259 1.561 . S
C262 C259 1.526 . S
C262 C263 1.396 . S
C262 C267 1.390 . S
C263 C257 1.465 . S
C263 C262 1.396 . S
C263 C264 1.399 . S
C264 H250 0.929 . S
C264 C263 1.399 . S
C264 C265 1.385 . S
C265 H251 0.931 . S
C265 C264 1.385 . S
C265 C266 1.389 . S
C266 C265 1.389 . S
C266 C267 1.387 . S
C267 H252 0.930 . S
C267 C262 1.390 . S
C267 C266 1.387 . S
H268 C280 0.930 . S
H269 C282 0.930 . S
H270 C283 0.930 . S
H271 C287 0.959 . S
H272 C287 0.959 . S
H273 C287 0.961 . S
H274 C288 0.960 . S
H275 C288 0.961 . S
H276 C288 0.959 . S
H277 C291 0.929 . S
H278 C292 0.931 . S
H279 C294 0.930 . S
C280 H268 0.930 . S
C280 C281 1.399 . S
C280 C285 1.399 . S
C281 C280 1.399 . S
C281 C282 1.376 . S
C282 H269 0.930 . S
C282 C281 1.376 . S
C282 C283 1.388 . S
C283 H270 0.930 . S
C283 C282 1.388 . S
C283 C284 1.390 . S
C284 C283 1.390 . S
C284 C285 1.394 . S
C284 C290 1.465 . S
C285 C280 1.399 . S
C285 C284 1.394 . S
C285 C286 1.516 . S
C286 C285 1.516 . S
C286 C287 1.502 . S
C286 C288 1.561 . S
C286 C289 1.526 . S
C287 H271 0.959 . S
C287 H272 0.959 . S
C287 H273 0.961 . S
C287 C286 1.502 . S
C288 H274 0.960 . S
C288 H275 0.961 . S
C288 H276 0.959 . S
C288 C286 1.561 . S
C289 C286 1.526 . S
C289 C290 1.396 . S
C289 C294 1.390 . S
C290 C284 1.465 . S
C290 C289 1.396 . S
C290 C291 1.399 . S
C291 H277 0.929 . S
C291 C290 1.399 . S
C291 C292 1.385 . S
C292 H278 0.931 . S
C292 C291 1.385 . S
C292 C293 1.389 . S
C293 C292 1.389 . S
C293 C294 1.387 . S
C294 H279 0.930 . S
C294 C289 1.390 . S
C294 C293 1.387 . S
H295 C307 0.930 . S
H296 C309 0.930 . S
H297 C310 0.930 . S
H298 C314 0.959 1_455 S
H299 C314 0.959 . S
H300 C314 0.961 . S
H301 C315 0.960 . S
H302 C315 0.961 . S
H303 C315 0.959 . S
H304 C318 0.929 . S
H305 C319 0.931 . S
H306 C321 0.930 . S
C307 H295 0.930 . S
C307 C308 1.399 . S
C307 C312 1.399 . S
C308 C307 1.399 . S
C308 C309 1.376 . S
C309 H296 0.930 . S
C309 C308 1.376 . S
C309 C310 1.388 . S
C310 H297 0.930 . S
C310 C309 1.388 . S
C310 C311 1.390 . S
C311 C310 1.390 . S
C311 C312 1.394 . S
C311 C317 1.465 . S
C312 C307 1.399 . S
C312 C311 1.394 . S
C312 C313 1.516 . S
C313 C312 1.516 . S
C313 C314 1.502 . S
C313 C315 1.561 . S
C313 C316 1.526 . S
C314 H298 0.959 1_655 S
C314 H299 0.959 . S
C314 H300 0.961 . S
C314 C313 1.502 . S
C315 H301 0.960 . S
C315 H302 0.961 . S
C315 H303 0.959 . S
C315 C313 1.561 . S
C316 C313 1.526 . S
C316 C317 1.396 . S
C316 C321 1.390 . S
C317 C311 1.465 . S
C317 C316 1.396 . S
C317 C318 1.399 . S
C318 H304 0.929 . S
C318 C317 1.399 . S
C318 C319 1.385 . S
C319 H305 0.931 . S
C319 C318 1.385 . S
C319 C320 1.389 . S
C320 C319 1.389 . S
C320 C321 1.387 . S
C321 H306 0.930 . S
C321 C316 1.390 . S
C321 C320 1.387 . S
H322 C334 0.930 . S
H323 C336 0.930 . S
H324 C337 0.930 . S
H325 C341 0.959 . S
H326 C341 0.959 1_545 S
H327 C341 0.961 1_545 S
H328 C342 0.960 . S
H329 C342 0.961 . S
H330 C342 0.959 1_455 S
H331 C345 0.929 . S
H332 C346 0.931 . S
H333 C348 0.930 . S
C334 H322 0.930 . S
C334 C335 1.399 . S
C334 C339 1.399 . S
C335 C334 1.399 . S
C335 C336 1.376 . S
C336 H323 0.930 . S
C336 C335 1.376 . S
C336 C337 1.388 . S
C337 H324 0.930 . S
C337 C336 1.388 . S
C337 C338 1.390 . S
C338 C337 1.390 . S
C338 C339 1.394 . S
C338 C344 1.465 . S
C339 C334 1.399 . S
C339 C338 1.394 . S
C339 C340 1.516 . S
C340 C339 1.516 . S
C340 C341 1.502 . S
C340 C342 1.561 1_565 S
C340 C343 1.526 . S
C341 H325 0.959 . S
C341 H326 0.959 1_565 S
C341 H327 0.961 1_565 S
C341 C340 1.502 . S
C342 H328 0.960 . S
C342 H329 0.961 . S
C342 H330 0.959 1_655 S
C342 C340 1.561 1_545 S
C343 C340 1.526 . S
C343 C344 1.396 . S
C343 C348 1.390 . S
C344 C338 1.465 . S
C344 C343 1.396 . S
C344 C345 1.399 . S
C345 H331 0.929 . S
C345 C344 1.399 . S
C345 C346 1.385 . S
C346 H332 0.931 . S
C346 C345 1.385 . S
C346 C347 1.389 . S
C347 C346 1.389 . S
C347 C348 1.387 . S
C348 H333 0.930 . S
C348 C343 1.390 . S
C348 C347 1.387 . S
H349 C361 0.937 . S
H350 C363 0.930 . S
H351 C364 0.930 . S
H352 C368 0.959 . S
H353 C368 0.959 . S
H354 C368 0.961 . S
H355 C369 0.960 . S
H356 C369 0.961 . S
H357 C369 0.959 . S
H358 C372 0.929 . S
H359 C373 0.931 . S
H360 C375 0.930 . S
C361 H349 0.937 . S
C361 C362 1.391 1_545 S
C361 C366 1.400 . S
C362 C361 1.391 1_565 S
C362 C363 1.376 . S
C363 H350 0.930 . S
C363 C362 1.376 . S
C363 C364 1.388 . S
C364 H351 0.930 . S
C364 C363 1.388 . S
C364 C365 1.390 . S
C365 C364 1.390 . S
C365 C366 1.394 1_565 S
C365 C371 1.465 . S
C366 C361 1.400 . S
C366 C365 1.394 1_545 S
C366 C367 1.516 . S
C367 C366 1.516 . S
C367 C368 1.502 . S
C367 C369 1.561 . S
C367 C370 1.526 . S
C368 H352 0.959 . S
C368 H353 0.959 . S
C368 H354 0.961 . S
C368 C367 1.502 . S
C369 H355 0.960 . S
C369 H356 0.961 . S
C369 H357 0.959 . S
C369 C367 1.561 . S
C370 C367 1.526 . S
C370 C371 1.396 1_545 S
C370 C375 1.390 . S
C371 C365 1.465 . S
C371 C370 1.396 1_565 S
C371 C372 1.399 . S
C372 H358 0.929 . S
C372 C371 1.399 . S
C372 C373 1.385 . S
C373 H359 0.931 . S
C373 C372 1.385 . S
C373 C374 1.389 1_565 S
C374 C373 1.389 1_545 S
C374 C375 1.387 . S
C375 H360 0.930 . S
C375 C370 1.390 . S
C375 C374 1.387 . S
H376 C388 0.930 . S
H377 C390 0.930 . S
H378 C391 0.930 . S
H379 C395 0.959 . S
H380 C395 0.959 . S
H381 C395 0.961 . S
H382 C396 0.960 . S
H383 C396 0.961 . S
H384 C396 0.959 . S
H385 C399 0.929 . S
H386 C400 0.931 . S
H387 C402 0.930 . S
C388 H376 0.930 . S
C388 C389 1.399 . S
C388 C393 1.399 . S
C389 C388 1.399 . S
C389 C390 1.376 . S
C390 H377 0.930 . S
C390 C389 1.376 . S
C390 C391 1.388 . S
C391 H378 0.930 . S
C391 C390 1.388 . S
C391 C392 1.390 . S
C392 C391 1.390 . S
C392 C393 1.394 . S
C392 C398 1.465 . S
C393 C388 1.399 . S
C393 C392 1.394 . S
C393 C394 1.516 . S
C394 C393 1.516 . S
C394 C395 1.502 . S
C394 C396 1.561 . S
C394 C397 1.526 . S
C395 H379 0.959 . S
C395 H380 0.959 . S
C395 H381 0.961 . S
C395 C394 1.502 . S
C396 H382 0.960 . S
C396 H383 0.961 . S
C396 H384 0.959 . S
C396 C394 1.561 . S
C397 C394 1.526 . S
C397 C398 1.396 . S
C397 C402 1.390 . S
C398 C392 1.465 . S
C398 C397 1.396 . S
C398 C399 1.399 . S
C399 H385 0.929 . S
C399 C398 1.399 . S
C399 C400 1.385 . S
C400 H386 0.931 . S
C400 C399 1.385 . S
C400 C401 1.389 . S
C401 C400 1.389 . S
C401 C402 1.387 . S
C402 H387 0.930 . S
C402 C397 1.390 . S
C402 C401 1.387 . S
H403 C415 0.930 . S
H404 C417 0.930 . S
H405 C418 0.930 . S
H406 C422 0.959 . S
H407 C422 0.959 . S
H408 C422 0.961 . S
H409 C423 0.960 . S
H410 C423 0.961 . S
H411 C423 0.959 . S
H412 C426 0.929 1_545 S
H413 C427 0.931 . S
H414 C429 0.930 . S
C415 H403 0.930 . S
C415 C416 1.399 1_565 S
C415 C420 1.399 . S
C416 C415 1.399 1_545 S
C416 C417 1.376 . S
C417 H404 0.930 . S
C417 C416 1.376 . S
C417 C418 1.388 . S
C418 H405 0.930 . S
C418 C417 1.388 . S
C418 C419 1.390 . S
C419 C418 1.390 . S
C419 C420 1.394 1_545 S
C419 C425 1.465 1_545 S
C420 C415 1.399 . S
C420 C419 1.394 1_565 S
C420 C421 1.516 . S
C421 C420 1.516 . S
C421 C422 1.502 . S
C421 C423 1.561 . S
C421 C424 1.526 . S
C422 H406 0.959 . S
C422 H407 0.959 . S
C422 H408 0.961 . S
C422 C421 1.502 . S
C423 H409 0.960 . S
C423 H410 0.961 . S
C423 H411 0.959 . S
C423 C421 1.561 . S
C424 C421 1.526 . S
C424 C425 1.396 . S
C424 C429 1.390 . S
C425 C419 1.465 1_565 S
C425 C424 1.396 . S
C425 C426 1.399 . S
C426 H412 0.929 1_565 S
C426 C425 1.399 . S
C426 C427 1.385 . S
C427 H413 0.931 . S
C427 C426 1.385 . S
C427 C428 1.389 . S
C428 C427 1.389 . S
C428 C429 1.387 . S
C429 H414 0.930 . S
C429 C424 1.390 . S
C429 C428 1.387 . S
H430 C442 0.930 . S
H431 C444 0.930 . S
H432 C445 0.930 . S
H433 C449 0.959 . S
H434 C449 0.959 . S
H435 C449 0.961 . S
H436 C450 0.960 . S
H437 C450 0.961 . S
H438 C450 0.959 . S
H439 C453 0.929 . S
H440 C454 0.931 . S
H441 C456 0.930 . S
C442 H430 0.930 . S
C442 C443 1.399 . S
C442 C447 1.399 . S
C443 C442 1.399 . S
C443 C444 1.376 . S
C444 H431 0.930 . S
C444 C443 1.376 . S
C444 C445 1.388 . S
C445 H432 0.930 . S
C445 C444 1.388 . S
C445 C446 1.390 . S
C446 C445 1.390 . S
C446 C447 1.394 . S
C446 C452 1.465 . S
C447 C442 1.399 . S
C447 C446 1.394 . S
C447 C448 1.516 . S
C448 C447 1.516 . S
C448 C449 1.502 . S
C448 C450 1.561 . S
C448 C451 1.526 . S
C449 H433 0.959 . S
C449 H434 0.959 . S
C449 H435 0.961 . S
C449 C448 1.502 . S
C450 H436 0.960 . S
C450 H437 0.961 . S
C450 H438 0.959 . S
C450 C448 1.561 . S
C451 C448 1.526 . S
C451 C452 1.396 . S
C451 C456 1.390 . S
C452 C446 1.465 . S
C452 C451 1.396 . S
C452 C453 1.399 . S
C453 H439 0.929 . S
C453 C452 1.399 . S
C453 C454 1.385 . S
C454 H440 0.931 . S
C454 C453 1.385 . S
C454 C455 1.389 . S
C455 C454 1.389 . S
C455 C456 1.387 . S
C456 H441 0.930 . S
C456 C451 1.390 . S
C456 C455 1.387 . S
H457 C469 0.930 . S
H458 C471 0.930 . S
H459 C472 0.930 . S
H460 C476 0.959 . S
H461 C476 0.959 . S
H462 C476 0.961 . S
H463 C477 0.960 . S
H464 C477 0.961 . S
H465 C477 0.959 . S
H466 C480 0.929 . S
H467 C481 0.931 . S
H468 C483 0.930 . S
C469 H457 0.930 . S
C469 C470 1.399 . S
C469 C474 1.399 . S
C470 C469 1.399 . S
C470 C471 1.376 . S
C471 H458 0.930 . S
C471 C470 1.376 . S
C471 C472 1.388 . S
C472 H459 0.930 . S
C472 C471 1.388 . S
C472 C473 1.390 . S
C473 C472 1.390 . S
C473 C474 1.394 . S
C473 C479 1.465 . S
C474 C469 1.399 . S
C474 C473 1.394 . S
C474 C475 1.516 . S
C475 C474 1.516 . S
C475 C476 1.502 . S
C475 C477 1.561 . S
C475 C478 1.526 . S
C476 H460 0.959 . S
C476 H461 0.959 . S
C476 H462 0.961 . S
C476 C475 1.502 . S
C477 H463 0.960 . S
C477 H464 0.961 . S
C477 H465 0.959 . S
C477 C475 1.561 . S
C478 C475 1.526 . S
C478 C479 1.396 . S
C478 C483 1.390 . S
C479 C473 1.465 . S
C479 C478 1.396 . S
C479 C480 1.399 . S
C480 H466 0.929 . S
C480 C479 1.399 . S
C480 C481 1.385 . S
C481 H467 0.931 . S
C481 C480 1.385 . S
C481 C482 1.389 . S
C482 C481 1.389 . S
C482 C483 1.387 . S
C483 H468 0.930 . S
C483 C478 1.390 . S
C483 C482 1.387 . S
C173 C89 0.765 . S
C185 C9 0.594 . S
C200 C129 0.549 . S
C212 C49 0.398 . S
C227 C98 1.156 . S
C239 C18 1.162 . S
C254 C58 0.707 . S
C266 C138 0.696 . S
C281 C50 4.516 . S
C293 C10 4.458 . S
C308 C59 4.646 1_655 S
C320 C99 4.654 . S
C335 C139 4.737 1_655 S
C347 C90 4.625 . S
C362 C130 4.426 . S
C374 C19 4.493 . S
C389 C95 1.029 . S
C401 C126 0.920 . S
C416 C6 1.146 . S
C428 C135 1.000 . S
C443 C55 0.920 . S
C455 C15 1.063 . S
C470 C86 0.997 . S
C482 C46 1.189 . S
