# Generated by pormake.
# Topology smn, (6)-cn, num edge types: 1
# Building blocks:
#     Node 0, Type 0, BuildingBlock: OJICUG_clean_sbu_0, # of connection points: 6
#     Node 1, Type 0, BuildingBlock: OJICUG_clean_sbu_0, # of connection points: 6
#     Node 2, Type 0, BuildingBlock: OJICUG_clean_sbu_0, # of connection points: 6
#     Node 3, Type 0, BuildingBlock: OJICUG_clean_sbu_0, # of connection points: 6
#     Node 4, Type 0, BuildingBlock: OJICUG_clean_sbu_0, # of connection points: 6
#     Node 5, Type 0, BuildingBlock: OJICUG_clean_sbu_0, # of connection points: 6
#     Node 6, Type 0, BuildingBlock: OJICUG_clean_sbu_0, # of connection points: 6
#     Node 7, Type 0, BuildingBlock: OJICUG_clean_sbu_0, # of connection points: 6
#     Node 8, Type 0, BuildingBlock: OJICUG_clean_sbu_0, # of connection points: 6
#     Node 9, Type 0, BuildingBlock: OJICUG_clean_sbu_0, # of connection points: 6
#     Node 10, Type 0, BuildingBlock: OJICUG_clean_sbu_0, # of connection points: 6
#     Node 11, Type 0, BuildingBlock: OJICUG_clean_sbu_0, # of connection points: 6
#     Node 12, Type 0, BuildingBlock: OJICUG_clean_sbu_0, # of connection points: 6
#     Node 13, Type 0, BuildingBlock: OJICUG_clean_sbu_0, # of connection points: 6
#     Node 14, Type 0, BuildingBlock: OJICUG_clean_sbu_0, # of connection points: 6
#     Node 15, Type 0, BuildingBlock: OJICUG_clean_sbu_0, # of connection points: 6
#     Node 16, Type 0, BuildingBlock: OJICUG_clean_sbu_0, # of connection points: 6
#     Node 17, Type 0, BuildingBlock: OJICUG_clean_sbu_0, # of connection points: 6
#     Edge 18, Type (0, 0), BuildingBlock: CIFDUS_clean_linker_0, # of connection points: 2
#     Edge 19, Type (0, 0), BuildingBlock: CIFDUS_clean_linker_0, # of connection points: 2
#     Edge 20, Type (0, 0), BuildingBlock: CIFDUS_clean_linker_0, # of connection points: 2
#     Edge 21, Type (0, 0), BuildingBlock: CIFDUS_clean_linker_0, # of connection points: 2
#     Edge 22, Type (0, 0), BuildingBlock: CIFDUS_clean_linker_0, # of connection points: 2
#     Edge 23, Type (0, 0), BuildingBlock: CIFDUS_clean_linker_0, # of connection points: 2
#     Edge 24, Type (0, 0), BuildingBlock: CIFDUS_clean_linker_0, # of connection points: 2
#     Edge 25, Type (0, 0), BuildingBlock: CIFDUS_clean_linker_0, # of connection points: 2
#     Edge 26, Type (0, 0), BuildingBlock: CIFDUS_clean_linker_0, # of connection points: 2
#     Edge 27, Type (0, 0), BuildingBlock: CIFDUS_clean_linker_0, # of connection points: 2
#     Edge 28, Type (0, 0), BuildingBlock: CIFDUS_clean_linker_0, # of connection points: 2
#     Edge 29, Type (0, 0), BuildingBlock: CIFDUS_clean_linker_0, # of connection points: 2
#     Edge 30, Type (0, 0), BuildingBlock: CIFDUS_clean_linker_0, # of connection points: 2
#     Edge 31, Type (0, 0), BuildingBlock: CIFDUS_clean_linker_0, # of connection points: 2
#     Edge 32, Type (0, 0), BuildingBlock: CIFDUS_clean_linker_0, # of connection points: 2
#     Edge 33, Type (0, 0), BuildingBlock: CIFDUS_clean_linker_0, # of connection points: 2
#     Edge 34, Type (0, 0), BuildingBlock: CIFDUS_clean_linker_0, # of connection points: 2
#     Edge 35, Type (0, 0), BuildingBlock: CIFDUS_clean_linker_0, # of connection points: 2
#     Edge 36, Type (0, 0), BuildingBlock: CIFDUS_clean_linker_0, # of connection points: 2
#     Edge 37, Type (0, 0), BuildingBlock: CIFDUS_clean_linker_0, # of connection points: 2
#     Edge 38, Type (0, 0), BuildingBlock: CIFDUS_clean_linker_0, # of connection points: 2
#     Edge 39, Type (0, 0), BuildingBlock: CIFDUS_clean_linker_0, # of connection points: 2
#     Edge 40, Type (0, 0), BuildingBlock: CIFDUS_clean_linker_0, # of connection points: 2
#     Edge 41, Type (0, 0), BuildingBlock: CIFDUS_clean_linker_0, # of connection points: 2
#     Edge 42, Type (0, 0), BuildingBlock: CIFDUS_clean_linker_0, # of connection points: 2
#     Edge 43, Type (0, 0), BuildingBlock: CIFDUS_clean_linker_0, # of connection points: 2
#     Edge 44, Type (0, 0), BuildingBlock: CIFDUS_clean_linker_0, # of connection points: 2
#     Edge 45, Type (0, 0), BuildingBlock: CIFDUS_clean_linker_0, # of connection points: 2
#     Edge 46, Type (0, 0), BuildingBlock: CIFDUS_clean_linker_0, # of connection points: 2
#     Edge 47, Type (0, 0), BuildingBlock: CIFDUS_clean_linker_0, # of connection points: 2
#     Edge 48, Type (0, 0), BuildingBlock: CIFDUS_clean_linker_0, # of connection points: 2
#     Edge 49, Type (0, 0), BuildingBlock: CIFDUS_clean_linker_0, # of connection points: 2
#     Edge 50, Type (0, 0), BuildingBlock: CIFDUS_clean_linker_0, # of connection points: 2
#     Edge 51, Type (0, 0), BuildingBlock: CIFDUS_clean_linker_0, # of connection points: 2
#     Edge 52, Type (0, 0), BuildingBlock: CIFDUS_clean_linker_0, # of connection points: 2
#     Edge 53, Type (0, 0), BuildingBlock: CIFDUS_clean_linker_0, # of connection points: 2
#     Edge 54, Type (0, 0), BuildingBlock: CIFDUS_clean_linker_0, # of connection points: 2
#     Edge 55, Type (0, 0), BuildingBlock: CIFDUS_clean_linker_0, # of connection points: 2
#     Edge 56, Type (0, 0), BuildingBlock: CIFDUS_clean_linker_0, # of connection points: 2
#     Edge 57, Type (0, 0), BuildingBlock: CIFDUS_clean_linker_0, # of connection points: 2
#     Edge 58, Type (0, 0), BuildingBlock: CIFDUS_clean_linker_0, # of connection points: 2
#     Edge 59, Type (0, 0), BuildingBlock: CIFDUS_clean_linker_0, # of connection points: 2
#     Edge 60, Type (0, 0), BuildingBlock: CIFDUS_clean_linker_0, # of connection points: 2
#     Edge 61, Type (0, 0), BuildingBlock: CIFDUS_clean_linker_0, # of connection points: 2
#     Edge 62, Type (0, 0), BuildingBlock: CIFDUS_clean_linker_0, # of connection points: 2
#     Edge 63, Type (0, 0), BuildingBlock: CIFDUS_clean_linker_0, # of connection points: 2
#     Edge 64, Type (0, 0), BuildingBlock: CIFDUS_clean_linker_0, # of connection points: 2
#     Edge 65, Type (0, 0), BuildingBlock: CIFDUS_clean_linker_0, # of connection points: 2
#     Edge 66, Type (0, 0), BuildingBlock: CIFDUS_clean_linker_0, # of connection points: 2
#     Edge 67, Type (0, 0), BuildingBlock: CIFDUS_clean_linker_0, # of connection points: 2
#     Edge 68, Type (0, 0), BuildingBlock: CIFDUS_clean_linker_0, # of connection points: 2
#     Edge 69, Type (0, 0), BuildingBlock: CIFDUS_clean_linker_0, # of connection points: 2
#     Edge 70, Type (0, 0), BuildingBlock: CIFDUS_clean_linker_0, # of connection points: 2
#     Edge 71, Type (0, 0), BuildingBlock: CIFDUS_clean_linker_0, # of connection points: 2
# Relax obj value: 0.148
# Max RMSD: 0.236
# Mean RMSD: 0.236
data_MOF--net-smn--node1-OJICUG_clean_sbu_0--edge1-CIFDUS_clean_linker_0
_symmetry_space_group_name_H-M    P1
_symmetry_Int_Tables_number       1
_symmetry_cell_setting            triclinic
loop_
_symmetry_equiv_pos_as_xyz
'x, y, z'
_cell_length_a     58.110978
_cell_length_b     58.060534
_cell_length_c     16.127569
_cell_angle_alpha  89.993576
_cell_angle_beta   89.804396
_cell_angle_gamma 119.92639
loop_
_atom_site_label
_atom_site_type_symbol
_atom_site_fract_x
_atom_site_fract_y
_atom_site_fract_z
_atom_type_partial_charge
Sc0 Sc 0.01197 0.17392 0.75084 0.0
Sc1 Sc 0.02155 0.23186 0.84815 0.0
Sc2 Sc 0.99064 0.21397 0.65145 0.0
O3 O 0.00789 0.20655 0.75021 0.0
C4 C 0.02956 0.19666 0.56847 0.0
C5 C 0.06544 0.21386 0.84094 0.0
C6 C 0.04052 0.2715 0.69503 0.0
C7 C 0.99047 0.1748 0.93235 0.0
C8 C 0.95592 0.15045 0.66085 0.0
C9 C 0.9682 0.23268 0.80064 0.0
O10 O 0.02959 0.18315 0.63029 0.0
O11 O 0.05713 0.229 0.8678 0.0
O12 O 0.02095 0.2556 0.6502 0.0
O13 O 0.9949 0.163 0.87315 0.0
O14 O 0.95848 0.17266 0.63809 0.0
O15 O 0.98828 0.23846 0.84554 0.0
O16 O 0.97355 0.14888 0.70213 0.0
O17 O 0.9984 0.19958 0.93276 0.0
O18 O 0.96485 0.22194 0.72943 0.0
O19 O 0.05135 0.19378 0.79674 0.0
O20 O 0.01605 0.2084 0.56509 0.0
O21 O 0.04449 0.26553 0.76767 0.0
Sc22 Sc 0.77871 0.79757 0.85677 0.0
Sc23 Sc 0.79127 0.77755 0.66349 0.0
Sc24 Sc 0.83794 0.83912 0.74848 0.0
O25 O 0.80262 0.80471 0.75625 0.0
C26 C 0.80238 0.85972 0.83888 0.0
C27 C 0.73566 0.77288 0.7132 0.0
C28 C 0.81128 0.83375 0.57219 0.0
C29 C 0.77557 0.74148 0.82646 0.0
C30 C 0.83719 0.82065 0.93311 0.0
C31 C 0.85402 0.80046 0.65652 0.0
O32 O 0.78345 0.8369 0.85887 0.0
O33 O 0.75084 0.76835 0.6681 0.0
O34 O 0.82747 0.84732 0.62933 0.0
O35 O 0.77179 0.75796 0.86756 0.0
O36 O 0.8496 0.83219 0.86714 0.0
O37 O 0.83029 0.78255 0.64171 0.0
O38 O 0.81196 0.80864 0.9404 0.0
O39 O 0.78338 0.74536 0.75077 0.0
O40 O 0.85943 0.8217 0.69412 0.0
O41 O 0.74278 0.78441 0.78334 0.0
O42 O 0.82315 0.86301 0.80228 0.0
O43 O 0.79717 0.80836 0.57368 0.0
Sc44 Sc 0.17533 0.0066 0.75501 0.0
Sc45 Sc 0.21745 0.98974 0.86345 0.0
Sc46 Sc 0.23636 0.02024 0.66686 0.0
O47 O 0.20973 0.00552 0.76177 0.0
C48 C 0.17984 0.98464 0.57824 0.0
C49 C 0.15511 0.95102 0.84809 0.0
C50 C 0.24053 0.96933 0.72104 0.0
C51 C 0.19493 0.02575 0.93852 0.0
C52 C 0.2144 0.06105 0.66192 0.0
C53 C 0.27376 0.04145 0.82591 0.0
O54 O 0.16669 0.98801 0.63552 0.0
O55 O 0.17796 0.95567 0.87053 0.0
O56 O 0.24492 0.98855 0.67375 0.0
O57 O 0.18205 0.02505 0.87409 0.0
O58 O 0.23171 0.0545 0.6446 0.0
O59 O 0.25735 0.02187 0.86954 0.0
O60 O 0.19331 0.04572 0.70144 0.0
O61 O 0.20778 0.01337 0.94503 0.0
O62 O 0.26933 0.04482 0.75045 0.0
O63 O 0.15152 0.96779 0.80818 0.0
O64 O 0.20512 0.99516 0.57925 0.0
O65 O 0.22949 0.9658 0.79185 0.0
Sc66 Sc 1.00198 0.84491 0.249 0.0
Sc67 Sc 0.99237 0.78682 0.15079 0.0
Sc68 Sc 0.02281 0.80427 0.34796 0.0
O69 O 0.00581 0.81199 0.24925 0.0
C70 C 0.05785 0.86753 0.34247 0.0
C71 C 0.02397 0.84471 0.06848 0.0
C72 C 0.04529 0.78538 0.19696 0.0
C73 C 0.94878 0.80495 0.15412 0.0
C74 C 0.98372 0.82226 0.43071 0.0
C75 C 0.97364 0.74662 0.30357 0.0
O76 O 0.03984 0.86959 0.30486 0.0
O77 O 0.01471 0.81965 0.06591 0.0
O78 O 0.04804 0.79485 0.27014 0.0
O79 O 0.96336 0.82597 0.19437 0.0
O80 O 0.99792 0.81117 0.43483 0.0
O81 O 0.97027 0.75224 0.2297 0.0
O82 O 0.98285 0.83485 0.36753 0.0
O83 O 0.95634 0.78857 0.13479 0.0
O84 O 0.99216 0.76307 0.35031 0.0
O85 O 0.02078 0.85667 0.12974 0.0
O86 O 0.05564 0.84508 0.35953 0.0
O87 O 0.02597 0.78114 0.15076 0.0
Sc88 Sc 0.22574 0.20757 0.16097 0.0
Sc89 Sc 0.22135 0.23109 0.35914 0.0
Sc90 Sc 0.16881 0.17136 0.28392 0.0
O91 O 0.20552 0.20328 0.26838 0.0
C92 C 0.16714 0.1942 0.1079 0.0
C93 C 0.23815 0.26695 0.1952 0.0
C94 C 0.16092 0.21491 0.37909 0.0
C95 C 0.27156 0.22689 0.29592 0.0
C96 C 0.19509 0.1448 0.1747 0.0
C97 C 0.19754 0.17429 0.45242 0.0
O98 O 0.19132 0.20187 0.08904 0.0
O99 O 0.23198 0.26411 0.27221 0.0
O100 O 0.15307 0.19213 0.34915 0.0
O101 O 0.26214 0.21602 0.22586 0.0
O102 O 0.17671 0.14419 0.21838 0.0
O103 O 0.2125 0.19962 0.45054 0.0
O104 O 0.21547 0.16633 0.15289 0.0
O105 O 0.25927 0.23396 0.3456 0.0
O106 O 0.18093 0.16096 0.396 0.0
O107 O 0.23827 0.24873 0.15237 0.0
O108 O 0.15616 0.18217 0.17487 0.0
O109 O 0.18533 0.23211 0.38562 0.0
Sc110 Sc 0.84711 0.01111 0.24544 0.0
Sc111 Sc 0.80006 0.02131 0.1412 0.0
Sc112 Sc 0.78437 0.98915 0.33656 0.0
O113 O 0.81041 0.00708 0.24098 0.0
C114 C 0.81397 0.95517 0.33808 0.0
C115 C 0.82794 0.99057 0.06261 0.0
C116 C 0.74662 0.96641 0.17943 0.0
C117 C 0.86126 0.065 0.15199 0.0
C118 C 0.83963 0.02973 0.42374 0.0
C119 C 0.77475 0.03749 0.28945 0.0
O120 O 0.83396 0.97321 0.30026 0.0
O121 O 0.81253 1.00026 0.05764 0.0
O122 O 0.75203 0.96313 0.25372 0.0
O123 O 0.86695 0.04978 0.19188 0.0
O124 O 0.81433 0.0155 0.42489 0.0
O125 O 0.78556 0.04226 0.21782 0.0
O126 O 0.85407 0.02973 0.36428 0.0
O127 O 0.83765 0.05802 0.13078 0.0
O128 O 0.77194 0.01834 0.33473 0.0
O129 O 0.84185 0.99288 0.12614 0.0
O130 O 0.79361 0.95723 0.3543 0.0
O131 O 0.76155 0.98675 0.13616 0.0
Sc132 Sc 0.66597 0.49661 0.07225 0.0
Sc133 Sc 0.68642 0.55742 0.17285 0.0
Sc134 Sc 0.64981 0.54239 0.98754 0.0
O135 O 0.66731 0.53208 0.07785 0.0
C136 C 0.68457 0.52145 0.89257 0.0
C137 C 0.72272 0.53105 0.15629 0.0
C138 C 0.70368 0.59704 0.01944 0.0
C139 C 0.65028 0.5001 0.25832 0.0
C140 C 0.60996 0.47998 0.99033 0.0
C141 C 0.63421 0.56253 0.14962 0.0
O142 O 0.68353 0.50622 0.951 0.0
O143 O 0.7198 0.55056 0.1767 0.0
O144 O 0.6818 0.5824 0.98331 0.0
O145 O 0.64904 0.48673 0.19421 0.0
O146 O 0.61502 0.50347 0.97486 0.0
O147 O 0.65565 0.56736 0.1851 0.0
O148 O 0.62677 0.47517 0.02361 0.0
O149 O 0.66356 0.5255 0.26186 0.0
O150 O 0.62776 0.55208 0.07762 0.0
O151 O 0.7047 0.51077 0.12034 0.0
O152 O 0.67248 0.53478 0.8942 0.0
O153 O 0.70972 0.59085 0.08879 0.0
Sc154 Sc 0.51679 0.17634 0.09566 0.0
Sc155 Sc 0.45419 0.12819 0.17331 0.0
Sc156 Sc 0.4771 0.11774 0.98255 0.0
O157 O 0.48266 0.14082 0.08364 0.0
C158 C 0.5015 0.17646 0.90707 0.0
C159 C 0.47537 0.1908 0.17744 0.0
C160 C 0.41974 0.11205 0.0076 0.0
C161 C 0.50874 0.14917 0.27306 0.0
C162 C 0.53904 0.14158 0.0107 0.0
C163 C 0.45294 0.0741 0.12505 0.0
O164 O 0.51296 0.18845 0.97345 0.0
O165 O 0.45792 0.16682 0.1925 0.0
O166 O 0.4371 0.10929 0.96787 0.0
O167 O 0.52295 0.16603 0.21793 0.0
O168 O 0.51671 0.12365 0.98397 0.0
O169 O 0.44673 0.08818 0.1696 0.0
O170 O 0.54193 0.16174 0.0502 0.0
O171 O 0.48359 0.13437 0.26732 0.0
O172 O 0.46478 0.08198 0.0555 0.0
O173 O 0.49732 0.19698 0.14262 0.0
O174 O 0.48816 0.15125 0.90026 0.0
O175 O 0.42278 0.11962 0.08323 0.0
Sc176 Sc 0.84146 0.34578 0.07025 0.0
Sc177 Sc 0.88268 0.3284 0.18034 0.0
Sc178 Sc 0.90155 0.35782 0.98102 0.0
O179 O 0.87523 0.3439 0.07716 0.0
C180 C 0.84539 0.32414 0.89307 0.0
C181 C 0.81941 0.29178 0.17183 0.0
C182 C 0.90198 0.30468 0.03605 0.0
C183 C 0.86337 0.36751 0.25123 0.0
C184 C 0.88092 0.39943 0.97569 0.0
C185 C 0.94031 0.37765 0.13512 0.0
O186 O 0.83197 0.32633 0.95192 0.0
O187 O 0.84187 0.29565 0.19639 0.0
O188 O 0.90767 0.32425 0.98821 0.0
O189 O 0.84948 0.3655 0.18785 0.0
O190 O 0.89867 0.39336 0.95945 0.0
O191 O 0.92401 0.35873 0.18138 0.0
O192 O 0.85982 0.38384 0.01405 0.0
O193 O 0.87602 0.35492 0.25915 0.0
O194 O 0.93479 0.38107 0.06147 0.0
O195 O 0.81714 0.30818 0.12607 0.0
O196 O 0.87054 0.33473 0.8934 0.0
O197 O 0.89152 0.30218 0.10765 0.0
Sc198 Sc 0.66084 0.1186 0.50282 0.0
Sc199 Sc 0.69435 0.13344 0.69521 0.0
Sc200 Sc 0.68462 0.18145 0.59438 0.0
O201 O 0.67983 0.14441 0.59756 0.0
C202 C 0.70091 0.17355 0.41259 0.0
C203 C 0.70816 0.10701 0.54457 0.0
C204 C 0.73922 0.1941 0.67844 0.0
C205 C 0.63798 0.08128 0.66198 0.0
C206 C 0.62787 0.14938 0.50863 0.0
C207 C 0.66674 0.16337 0.78036 0.0
O208 O 0.68717 0.1482 0.41276 0.0
O209 O 0.71367 0.11794 0.61578 0.0
O210 O 0.72408 0.20023 0.64014 0.0
O211 O 0.6346 0.08687 0.58794 0.0
O212 O 0.64598 0.16888 0.5475 0.0
O213 O 0.67527 0.14698 0.78262 0.0
O214 O 0.62988 0.12926 0.48825 0.0
O215 O 0.65892 0.09556 0.70327 0.0
O216 O 0.66876 0.17733 0.71708 0.0
O217 O 0.68893 0.10469 0.5011 0.0
O218 O 0.70106 0.18794 0.4722 0.0
O219 O 0.73169 0.17049 0.70186 0.0
Sc220 Sc 0.89517 0.55168 0.49642 0.0
Sc221 Sc 0.88181 0.56731 0.69619 0.0
Sc222 Sc 0.83372 0.51028 0.59293 0.0
O223 O 0.87026 0.54312 0.59511 0.0
C224 C 0.8392 0.53634 0.41556 0.0
C225 C 0.90446 0.60919 0.54942 0.0
C226 C 0.81978 0.54875 0.69499 0.0
C227 C 0.93536 0.567 0.64616 0.0
C228 C 0.86573 0.48839 0.49044 0.0
C229 C 0.85641 0.50856 0.77053 0.0
O230 O 0.86445 0.54791 0.41262 0.0
O231 O 0.89404 0.60271 0.62152 0.0
O232 O 0.81408 0.52857 0.65127 0.0
O233 O 0.92809 0.55741 0.57363 0.0
O234 O 0.84623 0.48594 0.53235 0.0
O235 O 0.8718 0.5336 0.77596 0.0
O236 O 0.88587 0.51086 0.474 0.0
O237 O 0.92134 0.57286 0.69279 0.0
O238 O 0.84098 0.49719 0.70959 0.0
O239 O 0.9074 0.59326 0.50239 0.0
O240 O 0.82527 0.52195 0.47593 0.0
O241 O 0.84353 0.56506 0.71645 0.0
Sc242 Sc 0.46251 0.34855 0.49316 0.0
Sc243 Sc 0.44946 0.31385 0.68233 0.0
Sc244 Sc 0.51032 0.33524 0.57947 0.0
O245 O 0.4741 0.33253 0.5848 0.0
C246 C 0.487 0.31676 0.39823 0.0
C247 C 0.40809 0.29485 0.53375 0.0
C248 C 0.47577 0.27773 0.66231 0.0
C249 C 0.44373 0.36548 0.65787 0.0
C250 C 0.52476 0.3906 0.49444 0.0
C251 C 0.50645 0.35013 0.76565 0.0
O252 O 0.47165 0.32667 0.40035 0.0
O253 O 0.41515 0.29061 0.60418 0.0
O254 O 0.49656 0.29601 0.628 0.0
O255 O 0.45217 0.37057 0.5829 0.0
O256 O 0.53077 0.37493 0.53041 0.0
O257 O 0.48122 0.33626 0.76981 0.0
O258 O 0.50088 0.38403 0.47825 0.0
O259 O 0.44023 0.3449 0.69624 0.0
O260 O 0.51988 0.35208 0.70101 0.0
O261 O 0.42263 0.31548 0.49097 0.0
O262 O 0.50229 0.31864 0.45735 0.0
O263 O 0.45623 0.28065 0.68216 0.0
Sc264 Sc 0.34125 0.83606 0.40398 0.0
Sc265 Sc 0.3622 0.89544 0.51468 0.0
Sc266 Sc 0.33161 0.88581 0.31798 0.0
O267 O 0.34523 0.87263 0.41218 0.0
C268 C 0.36377 0.86162 0.22724 0.0
C269 C 0.39584 0.86577 0.50318 0.0
C270 C 0.38598 0.93808 0.36889 0.0
C271 C 0.32084 0.83777 0.58512 0.0
C272 C 0.28765 0.82467 0.31749 0.0
C273 C 0.31386 0.90588 0.47566 0.0
O274 O 0.36127 0.8458 0.28588 0.0
O275 O 0.39414 0.88596 0.52487 0.0
O276 O 0.36623 0.92444 0.32215 0.0
O277 O 0.32069 0.82541 0.51989 0.0
O278 O 0.2947 0.84868 0.3011 0.0
O279 O 0.33244 0.90741 0.5211 0.0
O280 O 0.30312 0.81791 0.34969 0.0
O281 O 0.33602 0.86269 0.59558 0.0
O282 O 0.31032 0.89758 0.40122 0.0
O283 O 0.3781 0.84702 0.46109 0.0
O284 O 0.35308 0.87616 0.22806 0.0
O285 O 0.38841 0.93031 0.44074 0.0
Sc286 Sc 0.12079 0.46416 0.51527 0.0
Sc287 Sc 0.13376 0.45235 0.31049 0.0
Sc288 Sc 0.17947 0.51112 0.41336 0.0
O289 O 0.14472 0.47577 0.41326 0.0
C290 C 0.1416 0.52647 0.515 0.0
C291 C 0.07822 0.44576 0.37021 0.0
C292 C 0.15472 0.5109 0.2372 0.0
C293 C 0.11593 0.40928 0.45559 0.0
C294 C 0.17894 0.48786 0.59208 0.0
C295 C 0.19674 0.47501 0.30996 0.0
O296 O 0.12477 0.50271 0.53485 0.0
O297 O 0.09354 0.44391 0.31779 0.0
O298 O 0.17035 0.52255 0.29729 0.0
O299 O 0.11377 0.42441 0.50799 0.0
O300 O 0.19094 0.50283 0.53064 0.0
O301 O 0.17311 0.45799 0.28946 0.0
O302 O 0.15386 0.47278 0.59603 0.0
O303 O 0.12374 0.41641 0.38103 0.0
O304 O 0.20199 0.49515 0.35422 0.0
O305 O 0.08511 0.45341 0.44459 0.0
O306 O 0.16223 0.53232 0.47238 0.0
O307 O 0.14066 0.48568 0.23178 0.0
Sc308 Sc 0.5042 0.6792 0.40814 0.0
Sc309 Sc 0.54197 0.65327 0.49684 0.0
Sc310 Sc 0.56112 0.68774 0.3055 0.0
O311 O 0.53575 0.67329 0.40345 0.0
C312 C 0.50327 0.65974 0.22368 0.0
C313 C 0.47878 0.62136 0.49199 0.0
C314 C 0.55837 0.63196 0.33758 0.0
C315 C 0.52744 0.69326 0.58986 0.0
C316 C 0.54591 0.73322 0.31903 0.0
C317 C 0.6006 0.70194 0.45845 0.0
O318 O 0.49157 0.66217 0.28719 0.0
O319 O 0.50054 0.62168 0.50512 0.0
O320 O 0.56406 0.65266 0.29605 0.0
O321 O 0.51586 0.69665 0.52826 0.0
O322 O 0.56174 0.72515 0.29798 0.0
O323 O 0.58366 0.68267 0.50247 0.0
O324 O 0.52448 0.71853 0.35758 0.0
O325 O 0.53642 0.6772 0.59017 0.0
O326 O 0.59553 0.70688 0.38578 0.0
O327 O 0.47807 0.64097 0.46032 0.0
O328 O 0.52821 0.6685 0.21981 0.0
O329 O 0.5495 0.62835 0.41179 0.0
Sc330 Sc 0.34239 0.50884 0.91023 0.0
Sc331 Sc 0.32583 0.44635 0.82807 0.0
Sc332 Sc 0.36217 0.46817 0.01334 0.0
O333 O 0.34344 0.47444 0.91731 0.0
C334 C 0.39934 0.53054 0.9936 0.0
C335 C 0.36035 0.50198 0.73039 0.0
C336 C 0.37898 0.44433 0.86146 0.0
C337 C 0.28619 0.46906 0.82935 0.0
C338 C 0.32616 0.4904 0.09621 0.0
C339 C 0.31001 0.41113 0.99241 0.0
O340 O 0.38147 0.53348 0.95889 0.0
O341 O 0.3484 0.47654 0.73329 0.0
O342 O 0.38501 0.45648 0.9311 0.0
O343 O 0.3031 0.49101 0.8608 0.0
O344 O 0.33943 0.47823 0.10126 0.0
O345 O 0.30385 0.41461 0.9192 0.0
O346 O 0.32522 0.50232 0.03129 0.0
O347 O 0.29114 0.45046 0.81613 0.0
O348 O 0.33115 0.42804 0.02815 0.0
O349 O 0.35955 0.5163 0.78882 0.0
O350 O 0.39587 0.50789 0.01358 0.0
O351 O 0.35758 0.43814 0.82398 0.0
Sc352 Sc 0.57042 0.88366 0.81493 0.0
Sc353 Sc 0.54525 0.89667 0.99644 0.0
Sc354 Sc 0.51012 0.83455 0.89865 0.0
O355 O 0.5419 0.87157 0.90358 0.0
C356 C 0.5149 0.85935 0.71887 0.0
C357 C 0.56735 0.9365 0.84494 0.0
C358 C 0.48256 0.86497 0.97934 0.0
C359 C 0.60408 0.90497 0.97893 0.0
C360 C 0.55242 0.822 0.81636 0.0
C361 C 0.52865 0.84095 0.08551 0.0
O362 O 0.54007 0.87493 0.72165 0.0
O363 O 0.5533 0.92909 0.9109 0.0
O364 O 0.48271 0.84548 0.9452 0.0
O365 O 0.60107 0.89383 0.90828 0.0
O366 O 0.5308 0.8155 0.85298 0.0
O367 O 0.53818 0.8661 0.08784 0.0
O368 O 0.56888 0.84595 0.79813 0.0
O369 O 0.58679 0.90978 0.01045 0.0
O370 O 0.51823 0.82671 0.02149 0.0
O371 O 0.57697 0.92325 0.81248 0.0
O372 O 0.50168 0.84261 0.77589 0.0
O373 O 0.50378 0.88618 0.99784 0.0
Sc374 Sc 0.12591 0.68638 0.80375 0.0
Sc375 Sc 0.11779 0.66284 0.01056 0.0
Sc376 Sc 0.17736 0.68234 0.90229 0.0
O377 O 0.14014 0.67689 0.90517 0.0
C378 C 0.15284 0.65362 0.73188 0.0
C379 C 0.07411 0.63397 0.87056 0.0
C380 C 0.1486 0.63058 0.01745 0.0
C381 C 0.10653 0.70926 0.95245 0.0
C382 C 0.18667 0.73104 0.78887 0.0
C383 C 0.17495 0.70805 0.07195 0.0
O384 O 0.13665 0.66242 0.72567 0.0
O385 O 0.08238 0.63421 0.94393 0.0
O386 O 0.16774 0.64804 0.97515 0.0
O387 O 0.11377 0.71026 0.87693 0.0
O388 O 0.19429 0.71796 0.8318 0.0
O389 O 0.15047 0.69174 0.08631 0.0
O390 O 0.16235 0.72265 0.77362 0.0
O391 O 0.10585 0.69239 0.00411 0.0
O392 O 0.18732 0.70705 0.00839 0.0
O393 O 0.08757 0.65178 0.81722 0.0
O394 O 0.16865 0.65873 0.79248 0.0
O395 O 0.12761 0.63165 0.03193 0.0
H396 H 0.08017 0.23382 0.58404 0.0
H397 H 0.0254 0.17253 0.42006 0.0
H398 H 0.06267 0.17608 0.33773 0.0
H399 H 0.11021 0.19172 0.32693 0.0
H400 H 0.16507 0.25072 0.4976 0.0
H401 H 0.12835 0.2535 0.5625 0.0
C402 C 0.07655 0.2219 0.52859 0.0
C403 C 0.05039 0.20312 0.50692 0.0
C404 C 0.098 0.22342 0.4841 0.0
C405 C 0.04551 0.18732 0.43646 0.0
C406 C 0.06678 0.18921 0.39024 0.0
C407 C 0.11421 0.20543 0.3778 0.0
C408 C 0.1402 0.22056 0.4089 0.0
C409 C 0.09303 0.2064 0.4157 0.0
C410 C 0.14521 0.23873 0.47318 0.0
C411 C 0.12422 0.24021 0.51043 0.0
H412 H 0.77446 0.90442 0.38296 0.0
H413 H 0.85965 0.95483 0.36495 0.0
H414 H 0.86608 0.92022 0.4242 0.0
H415 H 0.8483 0.87749 0.49374 0.0
H416 H 0.76375 0.82554 0.51221 0.0
H417 H 0.75633 0.85831 0.43862 0.0
C418 C 0.79437 0.90768 0.39156 0.0
C419 C 0.81646 0.93244 0.37001 0.0
C420 C 0.79814 0.8873 0.42532 0.0
C421 C 0.84216 0.93613 0.3807 0.0
C422 C 0.84598 0.91629 0.41478 0.0
C423 C 0.82825 0.87304 0.47953 0.0
C424 C 0.80666 0.84919 0.50806 0.0
C425 C 0.82421 0.89204 0.43865 0.0
C426 C 0.78074 0.84365 0.48967 0.0
C427 C 0.77651 0.86258 0.44873 0.0
H428 H 0.13609 0.97859 0.50165 0.0
H429 H 0.18719 0.94481 0.51686 0.0
H430 H 0.15424 0.90516 0.44225 0.0
H431 H 0.10829 0.87801 0.38626 0.0
H432 H 0.05883 0.91395 0.3698 0.0
H433 H 0.09355 0.95449 0.43094 0.0
C434 C 0.1403 0.96284 0.48663 0.0
C435 C 0.16398 0.96462 0.51454 0.0
C436 C 0.12125 0.94014 0.4447 0.0
C437 C 0.16922 0.94406 0.49495 0.0
C438 C 0.1502 0.92122 0.45331 0.0
C439 C 0.10527 0.89481 0.39546 0.0
C440 C 0.08074 0.89262 0.37395 0.0
C441 C 0.12571 0.91864 0.43016 0.0
C442 C 0.07736 0.91482 0.38548 0.0
C443 C 0.09724 0.93817 0.42071 0.0
H444 H 0.15732 0.03597 0.99522 0.0
H445 H 0.23988 0.05943 0.02226 0.0
H446 H 0.24765 0.09869 0.10116 0.0
H447 H 0.23162 0.12892 0.14853 0.0
H448 H 0.14835 0.10359 0.12585 0.0
H449 H 0.14018 0.06259 0.05918 0.0
C450 C 0.17684 0.04938 0.02025 0.0
C451 C 0.198 0.04501 0.00294 0.0
C452 C 0.18112 0.07182 0.06502 0.0
C453 C 0.22323 0.06234 0.03569 0.0
C454 C 0.22775 0.08495 0.07984 0.0
C455 C 0.21172 0.11426 0.12949 0.0
C456 C 0.19069 0.11935 0.14096 0.0
C457 C 0.20699 0.09035 0.09251 0.0
C458 C 0.16486 0.10009 0.11747 0.0
C459 C 0.16015 0.07665 0.07925 0.0
H460 H 0.91355 0.08067 0.15855 0.0
H461 H 0.85951 0.10698 0.0789 0.0
H462 H 0.8966 0.14651 0.01571 0.0
H463 H 0.94331 0.17038 0.96835 0.0
H464 H 0.99531 0.1404 0.0344 0.0
H465 H 0.96014 0.10563 0.11944 0.0
C466 C 0.90978 0.09517 0.12854 0.0
C467 C 0.88367 0.09069 0.12291 0.0
C468 C 0.93092 0.11719 0.08999 0.0
C469 C 0.87935 0.1098 0.08359 0.0
C470 C 0.90054 0.13239 0.04742 0.0
C471 C 0.94702 0.15663 0.00351 0.0
C472 C 0.97177 0.15794 0.99667 0.0
C473 C 0.92627 0.13587 0.04824 0.0
C474 C 0.9764 0.13975 0.04002 0.0
C475 C 0.95628 0.11984 0.08791 0.0
H476 H 0.84563 0.77989 0.95594 0.0
H477 H 0.86565 0.85685 0.05174 0.0
H478 H 0.90038 0.85707 0.13834 0.0
H479 H 0.92853 0.83805 0.17131 0.0
H480 H 0.91085 0.76256 0.06609 0.0
H481 H 0.87153 0.75889 0.99909 0.0
C482 C 0.85714 0.79627 0.99791 0.0
C483 C 0.85304 0.81814 0.99916 0.0
C484 C 0.87772 0.79669 0.04439 0.0
C485 C 0.86833 0.83967 0.05147 0.0
C486 C 0.88829 0.83987 0.1001 0.0
C487 C 0.91593 0.82057 0.13473 0.0
C488 C 0.92294 0.80077 0.12297 0.0
C489 C 0.89374 0.8189 0.09476 0.0
C490 C 0.90616 0.77822 0.07568 0.0
C491 C 0.88365 0.77612 0.03723 0.0
H492 H 0.90711 0.83511 0.67295 0.0
H493 H 0.85153 0.75937 0.56512 0.0
H494 H 0.88805 0.75753 0.49621 0.0
H495 H 0.93506 0.78009 0.45251 0.0
H496 H 0.98985 0.85697 0.55271 0.0
H497 H 0.95452 0.85556 0.63995 0.0
C498 C 0.90291 0.81798 0.63529 0.0
C499 C 0.87643 0.79757 0.62354 0.0
C500 C 0.92397 0.81727 0.59456 0.0
C501 C 0.87159 0.77549 0.57491 0.0
C502 C 0.8925 0.77442 0.53531 0.0
C503 C 0.93933 0.79606 0.4957 0.0
C504 C 0.96497 0.81838 0.49791 0.0
C505 C 0.91867 0.79552 0.54288 0.0
C506 C 0.97031 0.83941 0.55171 0.0
C507 C 0.95006 0.83869 0.6007 0.0
H508 H 0.18079 0.08075 0.68127 0.0
H509 H 0.25634 0.09975 0.573 0.0
H510 H 0.25999 0.13977 0.51043 0.0
H511 H 0.23911 0.16639 0.47239 0.0
H512 H 0.16217 0.1451 0.57203 0.0
H513 H 0.16192 0.1094 0.65362 0.0
C514 C 0.19825 0.09374 0.64483 0.0
C515 C 0.21809 0.0869 0.6312 0.0
C516 C 0.20002 0.11649 0.60776 0.0
C517 C 0.24061 0.10425 0.5841 0.0
C518 C 0.24274 0.12721 0.54823 0.0
C519 C 0.2228 0.15449 0.51443 0.0
C520 C 0.20093 0.15859 0.51793 0.0
C521 C 0.22226 0.13318 0.55791 0.0
C522 C 0.17942 0.14256 0.57003 0.0
C523 C 0.17915 0.12197 0.61575 0.0
H524 H 0.88107 0.03667 0.51481 0.0
H525 H 0.83 0.06923 0.47033 0.0
H526 H 0.86113 0.1102 0.54326 0.0
H527 H 0.90607 0.13879 0.60488 0.0
H528 H 0.95531 0.10373 0.65072 0.0
H529 H 0.92187 0.06208 0.59291 0.0
C530 C 0.87639 0.05242 0.52365 0.0
C531 C 0.85336 0.05001 0.48806 0.0
C532 C 0.8944 0.07583 0.56458 0.0
C533 C 0.84749 0.07057 0.49875 0.0
C534 C 0.86549 0.09413 0.5393 0.0
C535 C 0.90929 0.12194 0.60288 0.0
C536 C 0.93345 0.12475 0.63147 0.0
C537 C 0.88955 0.09739 0.57 0.0
C538 C 0.93707 0.10247 0.62931 0.0
C539 C 0.91791 0.07844 0.59603 0.0
H540 H 0.78423 0.94749 0.00608 0.0
H541 H 0.86936 0.99182 0.98044 0.0
H542 H 0.86827 0.95594 0.89765 0.0
H543 H 0.84385 0.90999 0.84985 0.0
H544 H 0.75915 0.86339 0.88938 0.0
H545 H 0.75919 0.90214 0.94924 0.0
C546 C 0.80237 0.94954 0.97988 0.0
C547 C 0.8268 0.97227 0.99778 0.0
C548 C 0.80167 0.92823 0.93647 0.0
C549 C 0.85036 0.97455 0.96624 0.0
C550 C 0.84973 0.95397 0.91966 0.0
C551 C 0.82527 0.90834 0.87017 0.0
C552 C 0.80154 0.88373 0.86559 0.0
C553 C 0.8256 0.93037 0.90699 0.0
C554 C 0.77772 0.88202 0.89281 0.0
C555 C 0.77774 0.90417 0.92701 0.0
H556 H 0.10412 0.94052 0.85268 0.0
H557 H 0.15278 0.90541 0.90546 0.0
H558 H 0.11434 0.86646 0.96538 0.0
H559 H 0.06838 0.84516 0.01841 0.0
H560 H 0.02175 0.8831 0.97925 0.0
H561 H 0.05767 0.9179 0.89649 0.0
C562 C 0.1063 0.92418 0.87597 0.0
C563 C 0.13138 0.92601 0.87513 0.0
C564 C 0.08438 0.90232 0.91269 0.0
C565 C 0.13377 0.90465 0.90604 0.0
C566 C 0.11179 0.88236 0.94025 0.0
C567 C 0.06589 0.86064 0.98937 0.0
C568 C 0.04249 0.86155 0.00348 0.0
C569 C 0.08718 0.88133 0.94598 0.0
C570 C 0.03958 0.882 0.96804 0.0
C571 C 0.06016 0.90196 0.92148 0.0
H572 H 0.08884 0.23195 0.98992 0.0
H573 H 0.09846 0.20138 0.75687 0.0
H574 H 0.13379 0.19527 0.81559 0.0
H575 H 0.15729 0.19235 0.94008 0.0
H576 H 0.14451 0.22014 0.17429 0.0
H577 H 0.11552 0.2337 0.10879 0.0
C578 C 0.09925 0.22475 0.95138 0.0
C579 C 0.09097 0.21698 0.86963 0.0
C580 C 0.11872 0.22022 0.98646 0.0
C581 C 0.10442 0.20734 0.82046 0.0
C582 C 0.12451 0.20367 0.8541 0.0
C583 C 0.14843 0.20175 0.97597 0.0
C584 C 0.15253 0.20477 0.06185 0.0
C585 C 0.13108 0.20898 0.93813 0.0
C586 C 0.14111 0.21711 0.10811 0.0
C587 C 0.12461 0.22498 0.07079 0.0
H588 H 0.7676 0.51781 0.65634 0.0
H589 H 0.8206 0.58581 0.804 0.0
H590 H 0.78233 0.58592 0.86777 0.0
H591 H 0.73395 0.563 0.89438 0.0
H592 H 0.68183 0.49261 0.75614 0.0
H593 H 0.71964 0.49731 0.6745 0.0
C594 C 0.77097 0.53293 0.70181 0.0
C595 C 0.79713 0.5516 0.72604 0.0
C596 C 0.74894 0.53239 0.7397 0.0
C597 C 0.80082 0.57111 0.78445 0.0
C598 C 0.77891 0.57113 0.82108 0.0
C599 C 0.7309 0.54926 0.84438 0.0
C600 C 0.70523 0.5278 0.82959 0.0
C601 C 0.7529 0.55141 0.80086 0.0
C602 C 0.70138 0.50954 0.76693 0.0
C603 C 0.72302 0.5121 0.72114 0.0
H604 H 0.4584 0.17298 0.83367 0.0
H605 H 0.5439 0.2179 0.83359 0.0
H606 H 0.54323 0.25168 0.74439 0.0
H607 H 0.5184 0.27139 0.6853 0.0
H608 H 0.43281 0.22924 0.70003 0.0
H609 H 0.4333 0.19129 0.76406 0.0
C610 C 0.47681 0.18979 0.81172 0.0
C611 C 0.50117 0.19301 0.83887 0.0
C612 C 0.47619 0.2098 0.76452 0.0
C613 C 0.52498 0.21509 0.81243 0.0
C614 C 0.52457 0.23443 0.76211 0.0
C615 C 0.49979 0.2537 0.70085 0.0
C616 C 0.47561 0.25322 0.68848 0.0
C617 C 0.50029 0.23248 0.74055 0.0
C618 C 0.45171 0.23019 0.70962 0.0
C619 C 0.45198 0.20851 0.74627 0.0
H620 H 0.84048 0.27619 0.87337 0.0
H621 H 0.816 0.32922 0.77216 0.0
H622 H 0.78375 0.29361 0.68307 0.0
H623 H 0.75847 0.24657 0.65124 0.0
H624 H 0.77856 0.19172 0.76638 0.0
H625 H 0.8171 0.22899 0.83179 0.0
C626 C 0.82851 0.27996 0.82988 0.0
C627 C 0.83051 0.30507 0.82787 0.0
C628 C 0.80912 0.25905 0.7826 0.0
C629 C 0.81474 0.30996 0.77342 0.0
C630 C 0.79628 0.28961 0.72318 0.0
C631 C 0.77142 0.24262 0.68958 0.0
C632 C 0.7653 0.21626 0.70502 0.0
C633 C 0.79264 0.26389 0.7298 0.0
C634 C 0.78261 0.21175 0.7541 0.0
C635 C 0.80458 0.23304 0.79178 0.0
H636 H 0.90176 0.47101 0.46713 0.0
H637 H 0.82072 0.451 0.42138 0.0
H638 H 0.81208 0.41053 0.35107 0.0
H639 H 0.82769 0.38186 0.29578 0.0
H640 H 0.90789 0.39962 0.3419 0.0
H641 H 0.91651 0.43931 0.42057 0.0
C642 C 0.8823 0.4577 0.44172 0.0
C643 C 0.86196 0.46405 0.44908 0.0
C644 C 0.87718 0.43389 0.40223 0.0
C645 C 0.83668 0.4465 0.41683 0.0
C646 C 0.83167 0.42332 0.37654 0.0
C647 C 0.84693 0.39418 0.32425 0.0
C648 C 0.8671 0.38789 0.31298 0.0
C649 C 0.85176 0.41692 0.36833 0.0
C650 C 0.89191 0.40392 0.35054 0.0
C651 C 0.89695 0.4268 0.39461 0.0
H652 H 0.57794 0.4086 0.5004 0.0
H653 H 0.52112 0.43088 0.41746 0.0
H654 H 0.55663 0.47006 0.34864 0.0
H655 H 0.60272 0.49453 0.29609 0.0
H656 H 0.65831 0.46984 0.3694 0.0
H657 H 0.62461 0.43541 0.45929 0.0
C658 C 0.57328 0.4222 0.46848 0.0
C659 C 0.54671 0.41648 0.46342 0.0
C660 C 0.59369 0.44434 0.42725 0.0
C661 C 0.54126 0.43453 0.42188 0.0
C662 C 0.56159 0.45698 0.38235 0.0
C663 C 0.60758 0.48214 0.33416 0.0
C664 C 0.63295 0.48487 0.32787 0.0
C665 C 0.58772 0.46163 0.38249 0.0
C666 C 0.639 0.4683 0.37495 0.0
C667 C 0.61965 0.44847 0.42546 0.0
H668 H 0.57761 0.11043 0.46039 0.0
H669 H 0.62707 0.19532 0.49164 0.0
H670 H 0.5928 0.2024 0.43325 0.0
H671 H 0.55104 0.18543 0.35872 0.0
H672 H 0.50009 0.10107 0.32851 0.0
H673 H 0.5321 0.09285 0.40265 0.0
C674 C 0.58072 0.1304 0.45511 0.0
C675 C 0.60514 0.15225 0.47961 0.0
C676 C 0.56055 0.13452 0.42194 0.0
C677 C 0.60862 0.17802 0.47333 0.0
C678 C 0.58899 0.18221 0.43973 0.0
C679 C 0.5466 0.16522 0.3707 0.0
C680 C 0.52332 0.14393 0.33842 0.0
C681 C 0.56517 0.16072 0.41215 0.0
C682 C 0.51776 0.11781 0.35391 0.0
C683 C 0.53627 0.11313 0.39518 0.0
H684 H 0.58931 0.18278 0.99691 0.0
H685 H 0.54241 0.0976 0.97065 0.0
H686 H 0.58068 0.09656 0.91143 0.0
H687 H 0.62511 0.12061 0.84824 0.0
H688 H 0.66962 0.20612 0.85867 0.0
H689 H 0.63498 0.20638 0.94481 0.0
C690 C 0.58761 0.16391 0.97994 0.0
C691 C 0.56302 0.14032 0.98752 0.0
C692 C 0.60932 0.16361 0.94291 0.0
C693 C 0.56107 0.11606 0.96461 0.0
C694 C 0.58293 0.11545 0.93078 0.0
C695 C 0.62754 0.13918 0.87196 0.0
C696 C 0.64985 0.1633 0.84836 0.0
C697 C 0.60685 0.1392 0.91702 0.0
C698 C 0.65262 0.18736 0.87703 0.0
C699 C 0.63275 0.18749 0.92554 0.0
H700 H 0.84405 0.41469 0.98921 0.0
H701 H 0.92271 0.44084 0.89218 0.0
H702 H 0.92342 0.47981 0.83044 0.0
H703 H 0.89953 0.50361 0.79202 0.0
H704 H 0.81923 0.47383 0.87741 0.0
H705 H 0.82139 0.43909 0.95733 0.0
C706 C 0.86159 0.42895 0.95533 0.0
C707 C 0.88325 0.42462 0.94482 0.0
C708 C 0.86148 0.45065 0.91818 0.0
C709 C 0.9057 0.44353 0.90085 0.0
C710 C 0.90609 0.46579 0.8655 0.0
C711 C 0.88284 0.48986 0.83007 0.0
C712 C 0.85938 0.49131 0.83059 0.0
C713 C 0.88383 0.46919 0.87221 0.0
C714 C 0.83751 0.47313 0.87759 0.0
C715 C 0.83873 0.45324 0.92252 0.0
H716 H 0.59492 0.42774 0.00358 0.0
H717 H 0.56806 0.48028 0.91239 0.0
H718 H 0.53 0.4426 0.84693 0.0
H719 H 0.50831 0.39611 0.79881 0.0
H720 H 0.53839 0.34532 0.878 0.0
H721 H 0.57108 0.38084 0.96651 0.0
C722 C 0.5806 0.43103 0.97047 0.0
C723 C 0.58465 0.45697 0.9619 0.0
C724 C 0.55934 0.40951 0.93084 0.0
C725 C 0.56564 0.46063 0.91934 0.0
C726 C 0.54388 0.43909 0.88174 0.0
C727 C 0.52153 0.39271 0.83776 0.0
C728 C 0.52092 0.36825 0.83361 0.0
C729 C 0.54106 0.41364 0.88477 0.0
C730 C 0.53843 0.36397 0.88186 0.0
C731 C 0.5572 0.38432 0.93158 0.0
H732 H 0.50956 0.24429 0.16822 0.0
H733 H 0.43091 0.18653 0.25269 0.0
H734 H 0.42566 0.22192 0.31538 0.0
H735 H 0.44572 0.26848 0.3623 0.0
H736 H 0.52555 0.32516 0.28757 0.0
H737 H 0.52782 0.29126 0.20327 0.0
C738 C 0.49108 0.23938 0.19927 0.0
C739 C 0.47082 0.2126 0.20648 0.0
C740 C 0.48838 0.25978 0.23672 0.0
C741 C 0.447 0.20684 0.24673 0.0
C742 C 0.44394 0.22711 0.28267 0.0
C743 C 0.46317 0.27354 0.32484 0.0
C744 C 0.48526 0.29931 0.32941 0.0
C745 C 0.46477 0.25356 0.28007 0.0
C746 C 0.50817 0.30555 0.28332 0.0
C747 C 0.50955 0.28608 0.2361 0.0
H748 H 0.8084 0.24167 0.22334 0.0
H749 H 0.77337 0.29161 0.19304 0.0
H750 H 0.73205 0.25749 0.25239 0.0
H751 H 0.70704 0.21563 0.32645 0.0
H752 H 0.73982 0.16411 0.35696 0.0
H753 H 0.78025 0.19606 0.28238 0.0
C754 C 0.79163 0.2449 0.22932 0.0
C755 C 0.79423 0.26935 0.20431 0.0
C756 C 0.76733 0.2248 0.26297 0.0
C757 C 0.77212 0.27307 0.2115 0.0
C758 C 0.74833 0.25354 0.24558 0.0
C759 C 0.7227 0.21104 0.31418 0.0
C760 C 0.7205 0.18763 0.34634 0.0
C761 C 0.74586 0.22959 0.27287 0.0
C762 C 0.74095 0.18189 0.33121 0.0
C763 C 0.76424 0.20036 0.28983 0.0
H764 H 0.80189 0.50039 0.31539 0.0
H765 H 0.84425 0.58382 0.37353 0.0
H766 H 0.81285 0.59071 0.29058 0.0
H767 H 0.7697 0.57133 0.21775 0.0
H768 H 0.72901 0.48773 0.15652 0.0
H769 H 0.76359 0.48273 0.22284 0.0
C770 C 0.80459 0.52016 0.30764 0.0
C771 C 0.82504 0.54155 0.34998 0.0
C772 C 0.78658 0.52389 0.2602 0.0
C773 C 0.82859 0.56715 0.3404 0.0
C774 C 0.81053 0.57102 0.29377 0.0
C775 C 0.76866 0.55216 0.21775 0.0
C776 C 0.74643 0.52989 0.18374 0.0
C777 C 0.78885 0.5493 0.25586 0.0
C778 C 0.74566 0.50524 0.18294 0.0
C779 C 0.76543 0.50225 0.22112 0.0
H780 H 0.37192 0.82505 0.14995 0.0
H781 H 0.4004 0.90915 0.16221 0.0
H782 H 0.43962 0.91826 0.08051 0.0
H783 H 0.46844 0.90221 0.02076 0.0
H784 H 0.43791 0.81757 0.00399 0.0
H785 H 0.39699 0.80889 0.07104 0.0
C786 C 0.38643 0.8453 0.13286 0.0
C787 C 0.38348 0.86637 0.1622 0.0
C788 C 0.4088 0.85036 0.08586 0.0
C789 C 0.40224 0.89257 0.13958 0.0
C790 C 0.4248 0.89781 0.09364 0.0
C791 C 0.45266 0.88192 0.03072 0.0
C792 C 0.45652 0.86068 0.00844 0.0
C793 C 0.42874 0.87687 0.06881 0.0
C794 C 0.43566 0.83442 0.02064 0.0
C795 C 0.41216 0.82932 0.05938 0.0
H796 H 0.18946 0.56182 0.19724 0.0
H797 H 0.10973 0.49875 0.14869 0.0
H798 H 0.10001 0.53018 0.07705 0.0
H799 H 0.1136 0.57687 0.03699 0.0
H800 H 0.19397 0.63872 0.08614 0.0
H801 H 0.20376 0.60668 0.14996 0.0
C802 C 0.17005 0.55481 0.16986 0.0
C803 C 0.15038 0.52801 0.17846 0.0
C804 C 0.16452 0.57297 0.13027 0.0
C805 C 0.12538 0.51925 0.14217 0.0
C806 C 0.11969 0.5373 0.10217 0.0
C807 C 0.13315 0.58319 0.06204 0.0
C808 C 0.15297 0.61016 0.05746 0.0
C809 C 0.13894 0.56441 0.09759 0.0
C810 C 0.17838 0.61809 0.08888 0.0
C811 C 0.18406 0.59978 0.12527 0.0
H812 H 0.40707 0.58032 0.01015 0.0
H813 H 0.44702 0.53489 0.03599 0.0
H814 H 0.48551 0.57353 0.09615 0.0
H815 H 0.50503 0.61808 0.15825 0.0
H816 H 0.46238 0.66104 0.14709 0.0
H817 H 0.4279 0.62576 0.06253 0.0
C818 C 0.42437 0.57895 0.02741 0.0
C819 C 0.42408 0.55467 0.01909 0.0
C820 C 0.44593 0.60087 0.06468 0.0
C821 C 0.44664 0.55327 0.0424 0.0
C822 C 0.46865 0.57535 0.07678 0.0
C823 C 0.48858 0.62001 0.13486 0.0
C824 C 0.48625 0.64212 0.15759 0.0
C825 C 0.46816 0.59898 0.09049 0.0
C826 C 0.46456 0.64422 0.12938 0.0
C827 C 0.44481 0.62399 0.08175 0.0
H828 H 0.52249 0.76922 0.85046 0.0
H829 H 0.59161 0.82574 0.7121 0.0
H830 H 0.5926 0.7893 0.63971 0.0
H831 H 0.5693 0.74213 0.59924 0.0
H832 H 0.49835 0.68626 0.72954 0.0
H833 H 0.50269 0.72164 0.82263 0.0
C834 C 0.53809 0.77365 0.80549 0.0
C835 C 0.55662 0.80028 0.78555 0.0
C836 C 0.53806 0.75266 0.76241 0.0
C837 C 0.57693 0.80551 0.72814 0.0
C838 C 0.57744 0.78467 0.6864 0.0
C839 C 0.55537 0.73768 0.64999 0.0
C840 C 0.53372 0.71182 0.65882 0.0
C841 C 0.55748 0.75828 0.70065 0.0
C842 C 0.51535 0.70605 0.72304 0.0
C843 C 0.51772 0.72631 0.77544 0.0
H844 H 0.26978 0.81685 0.5482 0.0
H845 H 0.3224 0.826 0.74892 0.0
H846 H 0.2841 0.79578 0.83533 0.0
H847 H 0.23643 0.76304 0.84597 0.0
H848 H 0.18407 0.75396 0.64375 0.0
H849 H 0.22156 0.78863 0.56576 0.0
C850 C 0.27272 0.81246 0.61145 0.0
C851 C 0.2986 0.82311 0.64253 0.0
C852 C 0.25077 0.79523 0.65987 0.0
C853 C 0.30251 0.8178 0.72432 0.0
C854 C 0.28068 0.80053 0.77323 0.0
C855 C 0.23315 0.76898 0.78535 0.0
C856 C 0.20761 0.75569 0.74992 0.0
C857 C 0.25482 0.78857 0.74063 0.0
C858 C 0.20352 0.76386 0.67217 0.0
C859 C 0.22498 0.7835 0.62736 0.0
H860 H 0.18118 0.44488 0.6442 0.0
H861 H 0.21491 0.52903 0.68318 0.0
H862 H 0.2493 0.52964 0.77172 0.0
H863 H 0.27296 0.50764 0.82113 0.0
H864 H 0.24231 0.42433 0.77046 0.0
H865 H 0.20338 0.42185 0.70396 0.0
C866 C 0.19567 0.46311 0.67426 0.0
C867 C 0.19559 0.48685 0.65843 0.0
C868 C 0.21613 0.46351 0.72157 0.0
C869 C 0.21467 0.51056 0.6955 0.0
C870 C 0.23437 0.51092 0.74549 0.0
C871 C 0.25762 0.48878 0.79682 0.0
C872 C 0.26077 0.46628 0.8 0.0
C873 C 0.23582 0.48772 0.7564 0.0
C874 C 0.24056 0.44204 0.76818 0.0
C875 C 0.21829 0.4406 0.73005 0.0
H876 H 0.25027 0.50954 0.32441 0.0
H877 H 0.19378 0.433 0.22343 0.0
H878 H 0.22989 0.42908 0.16072 0.0
H879 H 0.27703 0.44948 0.12113 0.0
H880 H 0.33313 0.52713 0.21292 0.0
H881 H 0.29795 0.52828 0.29425 0.0
C882 C 0.24581 0.49183 0.28955 0.0
C883 C 0.21913 0.47174 0.27818 0.0
C884 C 0.26674 0.48983 0.25238 0.0
C885 C 0.21396 0.44895 0.23279 0.0
C886 C 0.23466 0.44663 0.1969 0.0
C887 C 0.28164 0.46618 0.16153 0.0
C888 C 0.30769 0.48789 0.16311 0.0
C889 C 0.26106 0.46717 0.20473 0.0
C890 C 0.31335 0.50992 0.2128 0.0
C891 C 0.29314 0.5107 0.25823 0.0
H892 H 0.51447 0.75518 0.34168 0.0
H893 H 0.5883 0.77043 0.22858 0.0
H894 H 0.59178 0.80915 0.15746 0.0
H895 H 0.5701 0.8339 0.10973 0.0
H896 H 0.49471 0.81628 0.2137 0.0
H897 H 0.49569 0.78348 0.30734 0.0
C898 C 0.53161 0.76719 0.30271 0.0
C899 C 0.55083 0.75951 0.28932 0.0
C900 C 0.5331 0.78897 0.26013 0.0
C901 C 0.57303 0.77561 0.23931 0.0
C902 C 0.57501 0.79775 0.19837 0.0
C903 C 0.55441 0.82346 0.15513 0.0
C904 C 0.53253 0.8275 0.15629 0.0
C905 C 0.55465 0.80395 0.2058 0.0
C906 C 0.51189 0.81363 0.21331 0.0
C907 C 0.51237 0.79474 0.26596 0.0
H908 H 0.25675 0.82204 0.18739 0.0
H909 H 0.25889 0.7783 0.40048 0.0
H910 H 0.22023 0.73806 0.35004 0.0
H911 H 0.19101 0.71358 0.23281 0.0
H912 H 0.19066 0.75703 0.01686 0.0
H913 H 0.22284 0.79894 0.08084 0.0
C914 C 0.24824 0.80389 0.22373 0.0
C915 C 0.26091 0.80292 0.29627 0.0
C916 C 0.22644 0.78058 0.1932 0.0
C917 C 0.24972 0.7793 0.3432 0.0
C918 C 0.22763 0.75626 0.31447 0.0
C919 C 0.19744 0.73235 0.20141 0.0
C920 C 0.18881 0.73248 0.12068 0.0
C921 C 0.2166 0.75634 0.23761 0.0
C922 C 0.1973 0.75674 0.0794 0.0
C923 C 0.21576 0.78065 0.11566 0.0
H924 H 0.11215 0.60477 0.69691 0.0
H925 H 0.19343 0.66041 0.63318 0.0
H926 H 0.19624 0.62626 0.55198 0.0
H927 H 0.17728 0.57951 0.51341 0.0
H928 H 0.09709 0.52267 0.58751 0.0
H929 H 0.09211 0.5582 0.6503 0.0
C930 C 0.13016 0.60947 0.6631 0.0
C931 C 0.15245 0.635 0.66949 0.0
C932 C 0.13197 0.58938 0.61993 0.0
C933 C 0.17599 0.64089 0.62784 0.0
C934 C 0.17764 0.62133 0.58214 0.0
C935 C 0.15857 0.57488 0.54231 0.0
C936 C 0.1377 0.54835 0.54625 0.0
C937 C 0.15602 0.59531 0.57996 0.0
C938 C 0.11362 0.54283 0.58418 0.0
C939 C 0.11071 0.56316 0.62005 0.0
H940 H 0.36616 0.54463 0.64602 0.0
H941 H 0.39918 0.49317 0.67091 0.0
H942 H 0.43894 0.52494 0.59422 0.0
H943 H 0.46683 0.57051 0.5365 0.0
H944 H 0.43218 0.62096 0.51157 0.0
H945 H 0.39092 0.58667 0.57119 0.0
C946 C 0.3817 0.54001 0.63211 0.0
C947 C 0.37965 0.51649 0.6633 0.0
C948 C 0.40463 0.55859 0.58944 0.0
C949 C 0.40002 0.51083 0.64578 0.0
C950 C 0.42299 0.52927 0.60318 0.0
C951 C 0.45015 0.57385 0.54327 0.0
C952 C 0.45299 0.59859 0.52046 0.0
C953 C 0.42596 0.55372 0.57735 0.0
C954 C 0.4309 0.60231 0.52876 0.0
C955 C 0.40712 0.58266 0.56305 0.0
H956 H 0.44901 0.90193 0.53015 0.0
H957 H 0.38996 0.81876 0.54932 0.0
H958 H 0.42262 0.80875 0.60536 0.0
H959 H 0.46676 0.82356 0.65942 0.0
H960 H 0.52695 0.90608 0.64149 0.0
H961 H 0.4956 0.91619 0.57214 0.0
C962 C 0.44345 0.88169 0.54653 0.0
C963 C 0.41702 0.8612 0.53604 0.0
C964 C 0.46263 0.87581 0.57801 0.0
C965 C 0.41015 0.83495 0.55648 0.0
C966 C 0.42883 0.82911 0.58856 0.0
C967 C 0.47324 0.84366 0.63851 0.0
C968 C 0.49912 0.86402 0.65599 0.0
C969 C 0.45499 0.84937 0.60052 0.0
C970 C 0.50721 0.88995 0.62816 0.0
C971 C 0.48913 0.89582 0.5896 0.0
H972 H 0.04939 0.28693 0.53261 0.0
H973 H 0.07403 0.31628 0.78131 0.0
H974 H 0.10232 0.36108 0.72717 0.0
H975 H 0.1168 0.3925 0.61116 0.0
H976 H 0.09257 0.36379 0.36205 0.0
H977 H 0.06791 0.31803 0.41419 0.0
C978 C 0.06103 0.30312 0.57496 0.0
C979 C 0.05919 0.29828 0.66116 0.0
C980 C 0.07742 0.32889 0.54331 0.0
C981 C 0.07487 0.3194 0.71489 0.0
C982 C 0.09106 0.34506 0.68397 0.0
C983 C 0.10647 0.37618 0.56801 0.0
C984 C 0.10628 0.38155 0.4829 0.0
C985 C 0.09205 0.3501 0.59857 0.0
C986 C 0.09313 0.3602 0.42772 0.0
C987 C 0.07879 0.33406 0.4577 0.0
H988 H 0.72156 0.77114 0.55326 0.0
H989 H 0.68883 0.75259 0.80058 0.0
H990 H 0.64375 0.72965 0.7431 0.0
H991 H 0.61404 0.7116 0.62177 0.0
H992 H 0.64736 0.73134 0.37499 0.0
H993 H 0.69191 0.75711 0.43313 0.0
C994 C 0.70453 0.76234 0.5947 0.0
C995 C 0.70849 0.76329 0.68109 0.0
C996 C 0.67886 0.74914 0.56121 0.0
C997 C 0.68629 0.75219 0.73398 0.0
C998 C 0.66055 0.73888 0.70103 0.0
C999 C 0.63106 0.7216 0.58071 0.0
C1000 C 0.6274 0.71916 0.49398 0.0
C1001 C 0.65665 0.73665 0.61467 0.0
C1002 C 0.6496 0.73274 0.44176 0.0
C1003 C 0.67509 0.74746 0.475 0.0
H1004 H 0.24184 0.95515 0.5632 0.0
H1005 H 0.26128 0.94414 0.8124 0.0
H1006 H 0.28496 0.92218 0.75823 0.0
H1007 H 0.30374 0.91025 0.63873 0.0
H1008 H 0.2835 0.92136 0.39015 0.0
H1009 H 0.25654 0.93921 0.44553 0.0
C1010 C 0.25097 0.94761 0.60576 0.0
C1011 C 0.25012 0.95149 0.69154 0.0
C1012 C 0.26469 0.93538 0.5742 0.0
C1013 C 0.26163 0.9413 0.74612 0.0
C1014 C 0.27537 0.92899 0.71508 0.0
C1015 C 0.29334 0.91649 0.59673 0.0
C1016 C 0.296 0.91486 0.5103 0.0
C1017 C 0.27767 0.92663 0.62906 0.0
C1018 C 0.28195 0.92252 0.4568 0.0
C1019 C 0.26653 0.93276 0.4884 0.0
H1020 H 0.32372 0.0699 0.75858 0.0
H1021 H 0.28035 0.05457 0.98852 0.0
H1022 H 0.32171 0.07779 0.06557 0.0
H1023 H 0.37028 0.09744 0.07011 0.0
H1024 H 0.41368 0.11165 0.84042 0.0
H1025 H 0.3727 0.09433 0.7619 0.0
C1026 C 0.32338 0.07224 0.82521 0.0
C1027 C 0.29899 0.06026 0.8676 0.0
C1028 C 0.3474 0.08512 0.8699 0.0
C1029 C 0.29889 0.06335 0.95428 0.0
C1030 C 0.32257 0.07659 0.99866 0.0
C1031 C 0.37081 0.09719 0.00291 0.0
C1032 C 0.39501 0.10537 0.96171 0.0
C1033 C 0.34698 0.08676 0.95756 0.0
C1034 C 0.39527 0.10497 0.87424 0.0
C1035 C 0.3718 0.09509 0.82892 0.0
H1036 H 0.95598 0.23624 0.96099 0.0
H1037 H 0.93824 0.24782 0.71006 0.0
H1038 H 0.91371 0.26903 0.76196 0.0
H1039 H 0.90203 0.28895 0.87791 0.0
H1040 H 0.91902 0.27669 0.12895 0.0
H1041 H 0.93885 0.25074 0.07786 0.0
C1042 C 0.94641 0.24307 0.91769 0.0
C1043 C 0.94926 0.24082 0.83168 0.0
C1044 C 0.9324 0.25527 0.94802 0.0
C1045 C 0.93637 0.24932 0.77642 0.0
C1046 C 0.9225 0.26162 0.8061 0.0
C1047 C 0.90975 0.28027 0.92149 0.0
C1048 C 0.90944 0.28506 0.00707 0.0
C1049 C 0.92111 0.26542 0.89162 0.0
C1050 C 0.91905 0.27331 0.06291 0.0
C1051 C 0.93055 0.25863 0.03362 0.0
H1052 H 0.75742 0.69127 0.76466 0.0
H1053 H 0.78101 0.7366 0.99127 0.0
H1054 H 0.76409 0.69596 0.07256 0.0
H1055 H 0.73685 0.64704 0.08091 0.0
H1056 H 0.71228 0.60181 0.85435 0.0
H1057 H 0.73547 0.64241 0.7725 0.0
C1058 C 0.7594 0.69224 0.8316 0.0
C1059 C 0.77001 0.71691 0.87162 0.0
C1060 C 0.7491 0.66862 0.87864 0.0
C1061 C 0.77244 0.7178 0.95873 0.0
C1062 C 0.76276 0.69454 0.00556 0.0
C1063 C 0.73718 0.64612 0.01378 0.0
C1064 C 0.72253 0.62152 0.97391 0.0
C1065 C 0.75014 0.66973 0.96652 0.0
C1066 C 0.72306 0.62061 0.88662 0.0
C1067 C 0.73631 0.64383 0.83955 0.0
H1068 H 0.90761 0.62446 0.38919 0.0
H1069 H 0.92366 0.65531 0.63855 0.0
H1070 H 0.94516 0.70079 0.58404 0.0
H1071 H 0.96252 0.7316 0.46524 0.0
H1072 H 0.94548 0.7005 0.21607 0.0
H1073 H 0.92101 0.65522 0.27093 0.0
C1074 C 0.91566 0.64114 0.43169 0.0
C1075 C 0.9144 0.63655 0.51784 0.0
C1076 C 0.9279 0.66714 0.39992 0.0
C1077 C 0.92442 0.65832 0.57208 0.0
C1078 C 0.93683 0.68431 0.54088 0.0
C1079 C 0.95329 0.71492 0.42288 0.0
C1080 C 0.95615 0.71943 0.33655 0.0
C1081 C 0.93919 0.68894 0.45489 0.0
C1082 C 0.94365 0.69762 0.28264 0.0
C1083 C 0.92976 0.67171 0.31401 0.0
H1084 H 0.28699 0.22263 0.44972 0.0
H1085 H 0.31677 0.24711 0.20119 0.0
H1086 H 0.3625 0.26873 0.25311 0.0
H1087 H 0.39334 0.2857 0.37174 0.0
H1088 H 0.36316 0.26096 0.62015 0.0
H1089 H 0.31816 0.23424 0.5657 0.0
C1090 C 0.30355 0.23219 0.40669 0.0
C1091 C 0.29859 0.23351 0.32182 0.0
C1092 C 0.32961 0.24488 0.43723 0.0
C1093 C 0.32011 0.2457 0.26657 0.0
C1094 C 0.34622 0.25832 0.29649 0.0
C1095 C 0.37694 0.27423 0.41391 0.0
C1096 C 0.38153 0.27573 0.50017 0.0
C1097 C 0.35112 0.25888 0.38207 0.0
C1098 C 0.36018 0.2603 0.55374 0.0
C1099 C 0.33443 0.24509 0.5226 0.0
H1100 H 0.77175 0.0487 0.45078 0.0
H1101 H 0.75484 0.0644 0.20359 0.0
H1102 H 0.73358 0.08827 0.26117 0.0
H1103 H 0.71728 0.10201 0.38207 0.0
H1104 H 0.73568 0.08763 0.62901 0.0
H1105 H 0.75906 0.06598 0.57113 0.0
C1106 C 0.76351 0.05746 0.40944 0.0
C1107 C 0.76453 0.05447 0.32297 0.0
C1108 C 0.75152 0.07125 0.44298 0.0
C1109 C 0.75428 0.06639 0.27024 0.0
C1110 C 0.74201 0.07991 0.3032 0.0
C1111 C 0.72649 0.09421 0.42324 0.0
C1112 C 0.72441 0.09608 0.50986 0.0
C1113 C 0.7401 0.08202 0.38948 0.0
C1114 C 0.73692 0.08639 0.56228 0.0
C1115 C 0.75021 0.07393 0.52918 0.0
H1116 H 0.65208 0.91038 0.93077 0.0
H1117 H 0.60968 0.91527 0.14432 0.0
H1118 H 0.64891 0.9302 0.22952 0.0
H1119 H 0.69683 0.94688 0.24098 0.0
H1120 H 0.74018 0.94478 0.02686 0.0
H1121 H 0.69929 0.92322 0.94581 0.0
C1122 C 0.65137 0.91446 0.99605 0.0
C1123 C 0.62801 0.91219 0.03013 0.0
C1124 C 0.6743 0.92345 0.04531 0.0
C1125 C 0.62749 0.91739 0.11537 0.0
C1126 C 0.64993 0.92581 0.16473 0.0
C1127 C 0.69707 0.94082 0.17749 0.0
C1128 C 0.72133 0.94709 0.14016 0.0
C1129 C 0.67365 0.92955 0.13009 0.0
C1130 C 0.72159 0.93984 0.05707 0.0
C1131 C 0.69826 0.92779 0.01041 0.0
H1132 H 0.05561 0.78055 0.03558 0.0
H1133 H 0.07537 0.76931 0.28437 0.0
H1134 H 0.09769 0.74618 0.22933 0.0
H1135 H 0.10725 0.72506 0.11176 0.0
H1136 H 0.08733 0.73627 0.86309 0.0
H1137 H 0.0694 0.76358 0.91702 0.0
C1138 C 0.06512 0.77337 0.07789 0.0
C1139 C 0.06352 0.77642 0.16428 0.0
C1140 C 0.07755 0.75978 0.04582 0.0
C1141 C 0.07632 0.76734 0.21784 0.0
C1142 C 0.08886 0.75387 0.18633 0.0
C1143 C 0.09911 0.73358 0.06915 0.0
C1144 C 0.09821 0.72818 0.98339 0.0
C1145 C 0.08887 0.74928 0.10066 0.0
C1146 C 0.08814 0.73992 0.92917 0.0
C1147 C 0.07783 0.75549 0.96009 0.0
H1148 H 0.26039 0.31811 0.25475 0.0
H1149 H 0.23141 0.27166 0.03122 0.0
H1150 H 0.24829 0.31189 0.94843 0.0
H1151 H 0.27586 0.36059 0.93661 0.0
H1152 H 0.30536 0.4071 0.15971 0.0
H1153 H 0.28363 0.36704 0.24418 0.0
C1154 C 0.25739 0.31683 0.18821 0.0
C1155 C 0.24512 0.29187 0.14951 0.0
C1156 C 0.26752 0.34023 0.14003 0.0
C1157 C 0.24131 0.29063 0.06287 0.0
C1158 C 0.25092 0.31367 0.01508 0.0
C1159 C 0.27705 0.36195 0.00368 0.0
C1160 C 0.29261 0.38679 0.04132 0.0
C1161 C 0.26479 0.33864 0.05252 0.0
C1162 C 0.29392 0.38817 0.12868 0.0
C1163 C 0.28147 0.36523 0.17739 0.0
H1164 H 0.95577 0.38633 0.29671 0.0
H1165 H 0.98548 0.40944 0.0469 0.0
H1166 H 0.03073 0.435 0.09944 0.0
H1167 H 0.06206 0.44709 0.21437 0.0
H1168 H 0.03283 0.42426 0.46444 0.0
H1169 H 0.98705 0.40263 0.41379 0.0
C1170 C 0.97213 0.3971 0.25377 0.0
C1171 C 0.96727 0.39559 0.1678 0.0
C1172 C 0.99813 0.41176 0.2844 0.0
C1173 C 0.98863 0.41012 0.11322 0.0
C1174 C 0.01453 0.42469 0.1432 0.0
C1175 C 0.04566 0.43763 0.25797 0.0
C1176 C 0.05079 0.43691 0.34288 0.0
C1177 C 0.01954 0.42509 0.22836 0.0
C1178 C 0.02939 0.42506 0.39881 0.0
C1179 C 0.00323 0.41252 0.36976 0.0
H1180 H 0.59729 0.57488 0.09078 0.0
H1181 H 0.63128 0.56544 0.31681 0.0
H1182 H 0.60734 0.58217 0.39762 0.0
H1183 H 0.58118 0.60488 0.40318 0.0
H1184 H 0.54896 0.61652 0.1771 0.0
H1185 H 0.56704 0.5932 0.09837 0.0
C1186 C 0.59907 0.57607 0.15776 0.0
C1187 C 0.61648 0.56937 0.19718 0.0
C1188 C 0.58553 0.58624 0.20436 0.0
C1189 C 0.61848 0.57099 0.28434 0.0
C1190 C 0.6047 0.58049 0.33096 0.0
C1191 C 0.57748 0.60157 0.33717 0.0
C1192 C 0.56382 0.61242 0.29609 0.0
C1193 C 0.58879 0.58895 0.29156 0.0
C1194 C 0.55951 0.60837 0.21013 0.0
C1195 C 0.56998 0.59518 0.16488 0.0
H1196 H 0.40081 0.95265 0.20971 0.0
H1197 H 0.41467 0.98362 0.45885 0.0
H1198 H 0.43915 0.02904 0.40417 0.0
H1199 H 0.45125 0.05961 0.28528 0.0
H1200 H 0.43773 0.02862 0.03618 0.0
H1201 H 0.4186 0.98335 0.09112 0.0
C1202 C 0.40963 0.96935 0.2521 0.0
C1203 C 0.40565 0.96485 0.3382 0.0
C1204 C 0.42339 0.9953 0.22015 0.0
C1205 C 0.41748 0.98658 0.39246 0.0
C1206 C 0.43126 0.01253 0.36113 0.0
C1207 C 0.44439 0.04294 0.24302 0.0
C1208 C 0.44541 0.04733 0.15678 0.0
C1209 C 0.43348 0.01709 0.27509 0.0
C1210 C 0.43703 0.0257 0.10268 0.0
C1211 C 0.42599 0.99984 0.13413 0.0
H1212 H 0.57875 0.9852 0.90703 0.0
H1213 H 0.56873 0.94243 0.67917 0.0
H1214 H 0.585 0.98316 0.59936 0.0
H1215 H 0.60888 0.03191 0.5953 0.0
H1216 H 0.62288 0.07549 0.8233 0.0
H1217 H 0.5982 0.03405 0.90107 0.0
C1218 C 0.57952 0.9848 0.83988 0.0
C1219 C 0.57257 0.96081 0.79927 0.0
C1220 C 0.59003 0.00869 0.79399 0.0
C1221 C 0.57395 0.96064 0.71206 0.0
C1222 C 0.58341 0.98398 0.66615 0.0
C1223 C 0.60578 0.03227 0.66155 0.0
C1224 C 0.61774 0.05665 0.70345 0.0
C1225 C 0.59248 0.00829 0.70652 0.0
C1226 C 0.61392 0.05688 0.78968 0.0
C1227 C 0.59992 0.03317 0.83436 0.0
H1228 H 0.05693 0.6143 0.71697 0.0
H1229 H 0.02971 0.60945 0.96889 0.0
H1230 H 0.98354 0.58544 0.92165 0.0
H1231 H 0.95154 0.57168 0.80656 0.0
H1232 H 0.9791 0.57695 0.55463 0.0
H1233 H 0.02455 0.59476 0.60418 0.0
C1234 C 0.04087 0.60751 0.76178 0.0
C1235 C 0.04672 0.61395 0.84623 0.0
C1236 C 0.01448 0.59415 0.73397 0.0
C1237 C 0.02574 0.60471 0.90368 0.0
C1238 C 0.99936 0.59123 0.8765 0.0
C1239 C 0.96745 0.57642 0.76252 0.0
C1240 C 0.96198 0.57346 0.67678 0.0
C1241 C 0.99357 0.58677 0.79147 0.0
C1242 C 0.98273 0.57916 0.62077 0.0
C1243 C 0.00876 0.58946 0.64908 0.0
H1244 H 0.4289 0.401 0.60177 0.0
H1245 H 0.44609 0.37158 0.82503 0.0
H1246 H 0.43133 0.39646 0.90972 0.0
H1247 H 0.40821 0.42241 0.92142 0.0
H1248 H 0.38904 0.4497 0.69768 0.0
H1249 H 0.41026 0.43077 0.61378 0.0
C1250 C 0.42982 0.40041 0.66883 0.0
C1251 C 0.43808 0.38396 0.70648 0.0
C1252 C 0.42085 0.41454 0.71795 0.0
C1253 C 0.43923 0.38358 0.79389 0.0
C1254 C 0.43086 0.39791 0.84281 0.0
C1255 C 0.40942 0.42484 0.85459 0.0
C1256 C 0.39722 0.43767 0.81619 0.0
C1257 C 0.42084 0.41286 0.80574 0.0
C1258 C 0.39853 0.44019 0.72909 0.0
C1259 C 0.41045 0.4291 0.68069 0.0
loop_
_geom_bond_atom_site_label_1
_geom_bond_atom_site_label_2
_geom_bond_distance
_geom_bond_site_symmetry_2
_ccdc_geom_bond_type
Sc0 O3 2.025 . S
Sc0 O10 2.105 . S
Sc0 O13 2.105 1_455 S
Sc0 O16 2.105 1_455 S
Sc0 O19 2.105 . S
Sc1 O3 2.025 . S
Sc1 O11 2.105 . S
Sc1 O15 2.105 1_455 S
Sc1 O17 2.105 1_455 S
Sc1 O21 2.105 . S
Sc2 O3 2.038 . S
Sc2 O12 2.117 . S
Sc2 O14 2.092 1_455 S
Sc2 O18 2.073 1_455 S
Sc2 O20 2.136 . S
O3 Sc0 2.025 . S
O3 Sc1 2.025 . S
O3 Sc2 2.038 . S
C4 O10 1.268 . S
C4 O20 1.268 . S
C5 O11 1.268 . S
C5 O19 1.268 . S
C6 O12 1.268 . S
C6 O21 1.268 . S
C7 O13 1.268 . S
C7 O17 1.268 . S
C8 O14 1.268 . S
C8 O16 1.268 . S
C9 O15 1.268 . S
C9 O18 1.268 . S
O10 Sc0 2.105 . S
O10 C4 1.268 . S
O11 Sc1 2.105 . S
O11 C5 1.268 . S
O12 Sc2 2.117 . S
O12 C6 1.268 . S
O13 Sc0 2.105 1_655 S
O13 C7 1.268 . S
O14 Sc2 2.092 1_655 S
O14 C8 1.268 . S
O15 Sc1 2.105 1_655 S
O15 C9 1.268 . S
O16 Sc0 2.105 1_655 S
O16 C8 1.268 . S
O17 Sc1 2.105 1_655 S
O17 C7 1.268 . S
O18 Sc2 2.073 1_655 S
O18 C9 1.268 . S
O19 Sc0 2.105 . S
O19 C5 1.268 . S
O20 Sc2 2.136 . S
O20 C4 1.268 . S
O21 Sc1 2.105 . S
O21 C6 1.268 . S
Sc22 O25 2.025 . S
Sc22 O32 2.105 . S
Sc22 O35 2.105 . S
Sc22 O38 2.105 . S
Sc22 O41 2.105 . S
Sc23 O25 2.025 . S
Sc23 O33 2.105 . S
Sc23 O37 2.105 . S
Sc23 O39 2.105 . S
Sc23 O43 2.105 . S
Sc24 O25 2.025 . S
Sc24 O34 2.105 . S
Sc24 O36 2.105 . S
Sc24 O40 2.105 . S
Sc24 O42 2.105 . S
O25 Sc22 2.025 . S
O25 Sc23 2.025 . S
O25 Sc24 2.025 . S
C26 O32 1.268 . S
C26 O42 1.268 . S
C27 O33 1.268 . S
C27 O41 1.268 . S
C28 O34 1.268 . S
C28 O43 1.268 . S
C29 O35 1.268 . S
C29 O39 1.268 . S
C30 O36 1.268 . S
C30 O38 1.268 . S
C31 O37 1.268 . S
C31 O40 1.268 . S
O32 Sc22 2.105 . S
O32 C26 1.268 . S
O33 Sc23 2.105 . S
O33 C27 1.268 . S
O34 Sc24 2.105 . S
O34 C28 1.268 . S
O35 Sc22 2.105 . S
O35 C29 1.268 . S
O36 Sc24 2.105 . S
O36 C30 1.268 . S
O37 Sc23 2.105 . S
O37 C31 1.268 . S
O38 Sc22 2.105 . S
O38 C30 1.268 . S
O39 Sc23 2.105 . S
O39 C29 1.268 . S
O40 Sc24 2.105 . S
O40 C31 1.268 . S
O41 Sc22 2.105 . S
O41 C27 1.268 . S
O42 Sc24 2.105 . S
O42 C26 1.268 . S
O43 Sc23 2.105 . S
O43 C28 1.268 . S
Sc44 O47 2.025 . S
Sc44 O54 2.105 1_545 S
Sc44 O57 2.105 . S
Sc44 O60 2.105 . S
Sc44 O63 2.105 1_545 S
Sc45 O47 2.038 . S
Sc45 O55 2.092 1_545 S
Sc45 O59 2.117 . S
Sc45 O61 2.136 . S
Sc45 O65 2.073 1_545 S
Sc46 O47 2.025 . S
Sc46 O56 2.105 1_545 S
Sc46 O58 2.105 . S
Sc46 O62 2.105 . S
Sc46 O64 2.105 1_545 S
O47 Sc44 2.025 . S
O47 Sc45 2.038 . S
O47 Sc46 2.025 . S
C48 O54 1.268 . S
C48 O64 1.268 . S
C49 O55 1.268 . S
C49 O63 1.268 . S
C50 O56 1.268 . S
C50 O65 1.268 . S
C51 O57 1.268 . S
C51 O61 1.268 . S
C52 O58 1.268 . S
C52 O60 1.268 . S
C53 O59 1.268 . S
C53 O62 1.268 . S
O54 Sc44 2.105 1_565 S
O54 C48 1.268 . S
O55 Sc45 2.092 1_565 S
O55 C49 1.268 . S
O56 Sc46 2.105 1_565 S
O56 C50 1.268 . S
O57 Sc44 2.105 . S
O57 C51 1.268 . S
O58 Sc46 2.105 . S
O58 C52 1.268 . S
O59 Sc45 2.117 . S
O59 C53 1.268 . S
O60 Sc44 2.105 . S
O60 C52 1.268 . S
O61 Sc45 2.136 . S
O61 C51 1.268 . S
O62 Sc46 2.105 . S
O62 C53 1.268 . S
O63 Sc44 2.105 1_565 S
O63 C49 1.268 . S
O64 Sc46 2.105 1_565 S
O64 C48 1.268 . S
O65 Sc45 2.073 1_565 S
O65 C50 1.268 . S
Sc66 O69 2.025 . S
Sc66 O76 2.105 . S
Sc66 O79 2.105 1_455 S
Sc66 O82 2.105 1_455 S
Sc66 O85 2.105 . S
Sc67 O69 2.020 . S
Sc67 O77 2.116 . S
Sc67 O81 2.095 1_455 S
Sc67 O83 2.071 1_455 S
Sc67 O87 2.140 . S
Sc68 O69 2.025 . S
Sc68 O78 2.105 . S
Sc68 O80 2.105 1_455 S
Sc68 O84 2.105 1_455 S
Sc68 O86 2.105 . S
O69 Sc66 2.025 . S
O69 Sc67 2.020 . S
O69 Sc68 2.025 . S
C70 O76 1.268 . S
C70 O86 1.268 . S
C71 O77 1.268 . S
C71 O85 1.268 . S
C72 O78 1.268 . S
C72 O87 1.268 . S
C73 O79 1.268 . S
C73 O83 1.268 . S
C74 O80 1.268 . S
C74 O82 1.268 . S
C75 O81 1.268 . S
C75 O84 1.268 . S
O76 Sc66 2.105 . S
O76 C70 1.268 . S
O77 Sc67 2.116 . S
O77 C71 1.268 . S
O78 Sc68 2.105 . S
O78 C72 1.268 . S
O79 Sc66 2.105 1_655 S
O79 C73 1.268 . S
O80 Sc68 2.105 1_655 S
O80 C74 1.268 . S
O81 Sc67 2.095 1_655 S
O81 C75 1.268 . S
O82 Sc66 2.105 1_655 S
O82 C74 1.268 . S
O83 Sc67 2.071 1_655 S
O83 C73 1.268 . S
O84 Sc68 2.105 1_655 S
O84 C75 1.268 . S
O85 Sc66 2.105 . S
O85 C71 1.268 . S
O86 Sc68 2.105 . S
O86 C70 1.268 . S
O87 Sc67 2.140 . S
O87 C72 1.268 . S
Sc88 O91 2.025 . S
Sc88 O98 2.105 . S
Sc88 O101 2.105 . S
Sc88 O104 2.105 . S
Sc88 O107 2.105 . S
Sc89 O91 2.025 . S
Sc89 O99 2.105 . S
Sc89 O103 2.105 . S
Sc89 O105 2.105 . S
Sc89 O109 2.105 . S
Sc90 O91 2.025 . S
Sc90 O100 2.105 . S
Sc90 O102 2.105 . S
Sc90 O106 2.105 . S
Sc90 O108 2.105 . S
O91 Sc88 2.025 . S
O91 Sc89 2.025 . S
O91 Sc90 2.025 . S
C92 O98 1.268 . S
C92 O108 1.268 . S
C93 O99 1.268 . S
C93 O107 1.268 . S
C94 O100 1.268 . S
C94 O109 1.268 . S
C95 O101 1.268 . S
C95 O105 1.268 . S
C96 O102 1.268 . S
C96 O104 1.268 . S
C97 O103 1.268 . S
C97 O106 1.268 . S
O98 Sc88 2.105 . S
O98 C92 1.268 . S
O99 Sc89 2.105 . S
O99 C93 1.268 . S
O100 Sc90 2.105 . S
O100 C94 1.268 . S
O101 Sc88 2.105 . S
O101 C95 1.268 . S
O102 Sc90 2.105 . S
O102 C96 1.268 . S
O103 Sc89 2.105 . S
O103 C97 1.268 . S
O104 Sc88 2.105 . S
O104 C96 1.268 . S
O105 Sc89 2.105 . S
O105 C95 1.268 . S
O106 Sc90 2.105 . S
O106 C97 1.268 . S
O107 Sc88 2.105 . S
O107 C93 1.268 . S
O108 Sc90 2.105 . S
O108 C92 1.268 . S
O109 Sc89 2.105 . S
O109 C94 1.268 . S
Sc110 O113 2.025 . S
Sc110 O120 2.105 1_545 S
Sc110 O123 2.105 . S
Sc110 O126 2.105 . S
Sc110 O129 2.105 1_545 S
Sc111 O113 2.025 . S
Sc111 O121 2.105 1_545 S
Sc111 O125 2.105 . S
Sc111 O127 2.105 . S
Sc111 O131 2.105 1_545 S
Sc112 O113 2.020 . S
Sc112 O122 2.095 1_545 S
Sc112 O124 2.115 . S
Sc112 O128 2.139 . S
Sc112 O130 2.071 1_545 S
O113 Sc110 2.025 . S
O113 Sc111 2.025 . S
O113 Sc112 2.020 . S
C114 O120 1.268 . S
C114 O130 1.268 . S
C115 O121 1.268 . S
C115 O129 1.268 . S
C116 O122 1.268 . S
C116 O131 1.268 . S
C117 O123 1.268 . S
C117 O127 1.268 . S
C118 O124 1.268 . S
C118 O126 1.268 . S
C119 O125 1.268 . S
C119 O128 1.268 . S
O120 Sc110 2.105 1_565 S
O120 C114 1.268 . S
O121 Sc111 2.105 1_565 S
O121 C115 1.268 . S
O122 Sc112 2.095 1_565 S
O122 C116 1.268 . S
O123 Sc110 2.105 . S
O123 C117 1.268 . S
O124 Sc112 2.115 . S
O124 C118 1.268 . S
O125 Sc111 2.105 . S
O125 C119 1.268 . S
O126 Sc110 2.105 . S
O126 C118 1.268 . S
O127 Sc111 2.105 . S
O127 C117 1.268 . S
O128 Sc112 2.139 . S
O128 C119 1.268 . S
O129 Sc110 2.105 1_565 S
O129 C115 1.268 . S
O130 Sc112 2.071 1_565 S
O130 C114 1.268 . S
O131 Sc111 2.105 1_565 S
O131 C116 1.268 . S
Sc132 O135 2.025 . S
Sc132 O142 2.105 1_554 S
Sc132 O145 2.105 . S
Sc132 O148 2.105 . S
Sc132 O151 2.105 . S
Sc133 O135 2.025 . S
Sc133 O143 2.105 . S
Sc133 O147 2.105 . S
Sc133 O149 2.105 . S
Sc133 O153 2.105 . S
Sc134 O135 2.025 1_556 S
Sc134 O144 2.105 1_556 S
Sc134 O146 2.105 . S
Sc134 O150 2.105 1_556 S
Sc134 O152 2.105 . S
O135 Sc132 2.025 . S
O135 Sc133 2.025 . S
O135 Sc134 2.025 1_554 S
C136 O142 1.268 . S
C136 O152 1.268 . S
C137 O143 1.268 . S
C137 O151 1.268 . S
C138 O144 1.268 . S
C138 O153 1.268 . S
C139 O145 1.268 . S
C139 O149 1.268 . S
C140 O146 1.268 . S
C140 O148 1.268 1_556 S
C141 O147 1.268 . S
C141 O150 1.268 . S
O142 Sc132 2.105 1_556 S
O142 C136 1.268 . S
O143 Sc133 2.105 . S
O143 C137 1.268 . S
O144 Sc134 2.105 1_554 S
O144 C138 1.268 . S
O145 Sc132 2.105 . S
O145 C139 1.268 . S
O146 Sc134 2.105 . S
O146 C140 1.268 . S
O147 Sc133 2.105 . S
O147 C141 1.268 . S
O148 Sc132 2.105 . S
O148 C140 1.268 1_554 S
O149 Sc133 2.105 . S
O149 C139 1.268 . S
O150 Sc134 2.105 1_554 S
O150 C141 1.268 . S
O151 Sc132 2.105 . S
O151 C137 1.268 . S
O152 Sc134 2.105 . S
O152 C136 1.268 . S
O153 Sc133 2.105 . S
O153 C138 1.268 . S
Sc154 O157 2.025 . S
Sc154 O164 2.105 1_554 S
Sc154 O167 2.105 . S
Sc154 O170 2.105 . S
Sc154 O173 2.105 . S
Sc155 O157 2.025 . S
Sc155 O165 2.105 . S
Sc155 O169 2.105 . S
Sc155 O171 2.105 . S
Sc155 O175 2.105 . S
Sc156 O157 2.025 1_556 S
Sc156 O166 2.105 1_556 S
Sc156 O168 2.105 . S
Sc156 O172 2.105 1_556 S
Sc156 O174 2.105 . S
O157 Sc154 2.025 . S
O157 Sc155 2.025 . S
O157 Sc156 2.025 1_554 S
C158 O164 1.268 . S
C158 O174 1.268 . S
C159 O165 1.268 . S
C159 O173 1.268 . S
C160 O166 1.268 . S
C160 O175 1.268 . S
C161 O167 1.268 . S
C161 O171 1.268 . S
C162 O168 1.268 . S
C162 O170 1.268 1_556 S
C163 O169 1.268 . S
C163 O172 1.268 . S
O164 Sc154 2.105 1_556 S
O164 C158 1.268 . S
O165 Sc155 2.105 . S
O165 C159 1.268 . S
O166 Sc156 2.105 1_554 S
O166 C160 1.268 . S
O167 Sc154 2.105 . S
O167 C161 1.268 . S
O168 Sc156 2.105 . S
O168 C162 1.268 . S
O169 Sc155 2.105 . S
O169 C163 1.268 . S
O170 Sc154 2.105 . S
O170 C162 1.268 1_554 S
O171 Sc155 2.105 . S
O171 C161 1.268 . S
O172 Sc156 2.105 1_554 S
O172 C163 1.268 . S
O173 Sc154 2.105 . S
O173 C159 1.268 . S
O174 Sc156 2.105 . S
O174 C158 1.268 . S
O175 Sc155 2.105 . S
O175 C160 1.268 . S
Sc176 O179 2.025 . S
Sc176 O186 2.105 1_554 S
Sc176 O189 2.105 . S
Sc176 O192 2.105 . S
Sc176 O195 2.105 . S
Sc177 O179 2.025 . S
Sc177 O187 2.105 . S
Sc177 O191 2.105 . S
Sc177 O193 2.105 . S
Sc177 O197 2.105 . S
Sc178 O179 2.025 1_556 S
Sc178 O188 2.105 1_556 S
Sc178 O190 2.105 . S
Sc178 O194 2.105 1_556 S
Sc178 O196 2.105 . S
O179 Sc176 2.025 . S
O179 Sc177 2.025 . S
O179 Sc178 2.025 1_554 S
C180 O186 1.268 . S
C180 O196 1.268 . S
C181 O187 1.268 . S
C181 O195 1.268 . S
C182 O188 1.268 . S
C182 O197 1.268 . S
C183 O189 1.268 . S
C183 O193 1.268 . S
C184 O190 1.268 . S
C184 O192 1.268 1_556 S
C185 O191 1.268 . S
C185 O194 1.268 . S
O186 Sc176 2.105 1_556 S
O186 C180 1.268 . S
O187 Sc177 2.105 . S
O187 C181 1.268 . S
O188 Sc178 2.105 1_554 S
O188 C182 1.268 . S
O189 Sc176 2.105 . S
O189 C183 1.268 . S
O190 Sc178 2.105 . S
O190 C184 1.268 . S
O191 Sc177 2.105 . S
O191 C185 1.268 . S
O192 Sc176 2.105 . S
O192 C184 1.268 1_554 S
O193 Sc177 2.105 . S
O193 C183 1.268 . S
O194 Sc178 2.105 1_554 S
O194 C185 1.268 . S
O195 Sc176 2.105 . S
O195 C181 1.268 . S
O196 Sc178 2.105 . S
O196 C180 1.268 . S
O197 Sc177 2.105 . S
O197 C182 1.268 . S
Sc198 O201 2.025 . S
Sc198 O208 2.105 . S
Sc198 O211 2.105 . S
Sc198 O214 2.105 . S
Sc198 O217 2.105 . S
Sc199 O201 2.025 . S
Sc199 O209 2.105 . S
Sc199 O213 2.105 . S
Sc199 O215 2.105 . S
Sc199 O219 2.105 . S
Sc200 O201 2.025 . S
Sc200 O210 2.105 . S
Sc200 O212 2.105 . S
Sc200 O216 2.105 . S
Sc200 O218 2.105 . S
O201 Sc198 2.025 . S
O201 Sc199 2.025 . S
O201 Sc200 2.025 . S
C202 O208 1.268 . S
C202 O218 1.268 . S
C203 O209 1.268 . S
C203 O217 1.268 . S
C204 O210 1.268 . S
C204 O219 1.268 . S
C205 O211 1.268 . S
C205 O215 1.268 . S
C206 O212 1.268 . S
C206 O214 1.268 . S
C207 O213 1.268 . S
C207 O216 1.268 . S
O208 Sc198 2.105 . S
O208 C202 1.268 . S
O209 Sc199 2.105 . S
O209 C203 1.268 . S
O210 Sc200 2.105 . S
O210 C204 1.268 . S
O211 Sc198 2.105 . S
O211 C205 1.268 . S
O212 Sc200 2.105 . S
O212 C206 1.268 . S
O213 Sc199 2.105 . S
O213 C207 1.268 . S
O214 Sc198 2.105 . S
O214 C206 1.268 . S
O215 Sc199 2.105 . S
O215 C205 1.268 . S
O216 Sc200 2.105 . S
O216 C207 1.268 . S
O217 Sc198 2.105 . S
O217 C203 1.268 . S
O218 Sc200 2.105 . S
O218 C202 1.268 . S
O219 Sc199 2.105 . S
O219 C204 1.268 . S
Sc220 O223 2.025 . S
Sc220 O230 2.105 . S
Sc220 O233 2.105 . S
Sc220 O236 2.105 . S
Sc220 O239 2.105 . S
Sc221 O223 2.025 . S
Sc221 O231 2.105 . S
Sc221 O235 2.105 . S
Sc221 O237 2.105 . S
Sc221 O241 2.105 . S
Sc222 O223 2.025 . S
Sc222 O232 2.105 . S
Sc222 O234 2.105 . S
Sc222 O238 2.105 . S
Sc222 O240 2.105 . S
O223 Sc220 2.025 . S
O223 Sc221 2.025 . S
O223 Sc222 2.025 . S
C224 O230 1.268 . S
C224 O240 1.268 . S
C225 O231 1.268 . S
C225 O239 1.268 . S
C226 O232 1.268 . S
C226 O241 1.268 . S
C227 O233 1.268 . S
C227 O237 1.268 . S
C228 O234 1.268 . S
C228 O236 1.268 . S
C229 O235 1.268 . S
C229 O238 1.268 . S
O230 Sc220 2.105 . S
O230 C224 1.268 . S
O231 Sc221 2.105 . S
O231 C225 1.268 . S
O232 Sc222 2.105 . S
O232 C226 1.268 . S
O233 Sc220 2.105 . S
O233 C227 1.268 . S
O234 Sc222 2.105 . S
O234 C228 1.268 . S
O235 Sc221 2.105 . S
O235 C229 1.268 . S
O236 Sc220 2.105 . S
O236 C228 1.268 . S
O237 Sc221 2.105 . S
O237 C227 1.268 . S
O238 Sc222 2.105 . S
O238 C229 1.268 . S
O239 Sc220 2.105 . S
O239 C225 1.268 . S
O240 Sc222 2.105 . S
O240 C224 1.268 . S
O241 Sc221 2.105 . S
O241 C226 1.268 . S
Sc242 O245 2.025 . S
Sc242 O252 2.105 . S
Sc242 O255 2.105 . S
Sc242 O258 2.105 . S
Sc242 O261 2.105 . S
Sc243 O245 2.025 . S
Sc243 O253 2.105 . S
Sc243 O257 2.105 . S
Sc243 O259 2.105 . S
Sc243 O263 2.105 . S
Sc244 O245 2.025 . S
Sc244 O254 2.105 . S
Sc244 O256 2.105 . S
Sc244 O260 2.105 . S
Sc244 O262 2.105 . S
O245 Sc242 2.025 . S
O245 Sc243 2.025 . S
O245 Sc244 2.025 . S
C246 O252 1.268 . S
C246 O262 1.268 . S
C247 O253 1.268 . S
C247 O261 1.268 . S
C248 O254 1.268 . S
C248 O263 1.268 . S
C249 O255 1.268 . S
C249 O259 1.268 . S
C250 O256 1.268 . S
C250 O258 1.268 . S
C251 O257 1.268 . S
C251 O260 1.268 . S
O252 Sc242 2.105 . S
O252 C246 1.268 . S
O253 Sc243 2.105 . S
O253 C247 1.268 . S
O254 Sc244 2.105 . S
O254 C248 1.268 . S
O255 Sc242 2.105 . S
O255 C249 1.268 . S
O256 Sc244 2.105 . S
O256 C250 1.268 . S
O257 Sc243 2.105 . S
O257 C251 1.268 . S
O258 Sc242 2.105 . S
O258 C250 1.268 . S
O259 Sc243 2.105 . S
O259 C249 1.268 . S
O260 Sc244 2.105 . S
O260 C251 1.268 . S
O261 Sc242 2.105 . S
O261 C247 1.268 . S
O262 Sc244 2.105 . S
O262 C246 1.268 . S
O263 Sc243 2.105 . S
O263 C248 1.268 . S
Sc264 O267 2.025 . S
Sc264 O274 2.105 . S
Sc264 O277 2.105 . S
Sc264 O280 2.105 . S
Sc264 O283 2.105 . S
Sc265 O267 2.025 . S
Sc265 O275 2.105 . S
Sc265 O279 2.105 . S
Sc265 O281 2.105 . S
Sc265 O285 2.105 . S
Sc266 O267 2.025 . S
Sc266 O276 2.105 . S
Sc266 O278 2.105 . S
Sc266 O282 2.105 . S
Sc266 O284 2.105 . S
O267 Sc264 2.025 . S
O267 Sc265 2.025 . S
O267 Sc266 2.025 . S
C268 O274 1.268 . S
C268 O284 1.268 . S
C269 O275 1.268 . S
C269 O283 1.268 . S
C270 O276 1.268 . S
C270 O285 1.268 . S
C271 O277 1.268 . S
C271 O281 1.268 . S
C272 O278 1.268 . S
C272 O280 1.268 . S
C273 O279 1.268 . S
C273 O282 1.268 . S
O274 Sc264 2.105 . S
O274 C268 1.268 . S
O275 Sc265 2.105 . S
O275 C269 1.268 . S
O276 Sc266 2.105 . S
O276 C270 1.268 . S
O277 Sc264 2.105 . S
O277 C271 1.268 . S
O278 Sc266 2.105 . S
O278 C272 1.268 . S
O279 Sc265 2.105 . S
O279 C273 1.268 . S
O280 Sc264 2.105 . S
O280 C272 1.268 . S
O281 Sc265 2.105 . S
O281 C271 1.268 . S
O282 Sc266 2.105 . S
O282 C273 1.268 . S
O283 Sc264 2.105 . S
O283 C269 1.268 . S
O284 Sc266 2.105 . S
O284 C268 1.268 . S
O285 Sc265 2.105 . S
O285 C270 1.268 . S
Sc286 O289 2.025 . S
Sc286 O296 2.105 . S
Sc286 O299 2.105 . S
Sc286 O302 2.105 . S
Sc286 O305 2.105 . S
Sc287 O289 2.025 . S
Sc287 O297 2.105 . S
Sc287 O301 2.105 . S
Sc287 O303 2.105 . S
Sc287 O307 2.105 . S
Sc288 O289 2.025 . S
Sc288 O298 2.105 . S
Sc288 O300 2.105 . S
Sc288 O304 2.105 . S
Sc288 O306 2.105 . S
O289 Sc286 2.025 . S
O289 Sc287 2.025 . S
O289 Sc288 2.025 . S
C290 O296 1.268 . S
C290 O306 1.268 . S
C291 O297 1.268 . S
C291 O305 1.268 . S
C292 O298 1.268 . S
C292 O307 1.268 . S
C293 O299 1.268 . S
C293 O303 1.268 . S
C294 O300 1.268 . S
C294 O302 1.268 . S
C295 O301 1.268 . S
C295 O304 1.268 . S
O296 Sc286 2.105 . S
O296 C290 1.268 . S
O297 Sc287 2.105 . S
O297 C291 1.268 . S
O298 Sc288 2.105 . S
O298 C292 1.268 . S
O299 Sc286 2.105 . S
O299 C293 1.268 . S
O300 Sc288 2.105 . S
O300 C294 1.268 . S
O301 Sc287 2.105 . S
O301 C295 1.268 . S
O302 Sc286 2.105 . S
O302 C294 1.268 . S
O303 Sc287 2.105 . S
O303 C293 1.268 . S
O304 Sc288 2.105 . S
O304 C295 1.268 . S
O305 Sc286 2.105 . S
O305 C291 1.268 . S
O306 Sc288 2.105 . S
O306 C290 1.268 . S
O307 Sc287 2.105 . S
O307 C292 1.268 . S
Sc308 O311 2.025 . S
Sc308 O318 2.105 . S
Sc308 O321 2.105 . S
Sc308 O324 2.105 . S
Sc308 O327 2.105 . S
Sc309 O311 2.025 . S
Sc309 O319 2.105 . S
Sc309 O323 2.105 . S
Sc309 O325 2.105 . S
Sc309 O329 2.105 . S
Sc310 O311 2.025 . S
Sc310 O320 2.105 . S
Sc310 O322 2.105 . S
Sc310 O326 2.105 . S
Sc310 O328 2.105 . S
O311 Sc308 2.025 . S
O311 Sc309 2.025 . S
O311 Sc310 2.025 . S
C312 O318 1.268 . S
C312 O328 1.268 . S
C313 O319 1.268 . S
C313 O327 1.268 . S
C314 O320 1.268 . S
C314 O329 1.268 . S
C315 O321 1.268 . S
C315 O325 1.268 . S
C316 O322 1.268 . S
C316 O324 1.268 . S
C317 O323 1.268 . S
C317 O326 1.268 . S
O318 Sc308 2.105 . S
O318 C312 1.268 . S
O319 Sc309 2.105 . S
O319 C313 1.268 . S
O320 Sc310 2.105 . S
O320 C314 1.268 . S
O321 Sc308 2.105 . S
O321 C315 1.268 . S
O322 Sc310 2.105 . S
O322 C316 1.268 . S
O323 Sc309 2.105 . S
O323 C317 1.268 . S
O324 Sc308 2.105 . S
O324 C316 1.268 . S
O325 Sc309 2.105 . S
O325 C315 1.268 . S
O326 Sc310 2.105 . S
O326 C317 1.268 . S
O327 Sc308 2.105 . S
O327 C313 1.268 . S
O328 Sc310 2.105 . S
O328 C312 1.268 . S
O329 Sc309 2.105 . S
O329 C314 1.268 . S
Sc330 O333 2.025 . S
Sc330 O340 2.105 . S
Sc330 O343 2.105 . S
Sc330 O346 2.105 1_556 S
Sc330 O349 2.105 . S
Sc331 O333 2.025 . S
Sc331 O341 2.105 . S
Sc331 O345 2.105 . S
Sc331 O347 2.105 . S
Sc331 O351 2.105 . S
Sc332 O333 2.025 1_554 S
Sc332 O342 2.105 1_554 S
Sc332 O344 2.105 . S
Sc332 O348 2.105 1_554 S
Sc332 O350 2.105 . S
O333 Sc330 2.025 . S
O333 Sc331 2.025 . S
O333 Sc332 2.025 1_556 S
C334 O340 1.268 1_554 S
C334 O350 1.268 . S
C335 O341 1.268 . S
C335 O349 1.268 . S
C336 O342 1.268 . S
C336 O351 1.268 . S
C337 O343 1.268 . S
C337 O347 1.268 . S
C338 O344 1.268 . S
C338 O346 1.268 . S
C339 O345 1.268 . S
C339 O348 1.268 . S
O340 Sc330 2.105 . S
O340 C334 1.268 1_556 S
O341 Sc331 2.105 . S
O341 C335 1.268 . S
O342 Sc332 2.105 1_556 S
O342 C336 1.268 . S
O343 Sc330 2.105 . S
O343 C337 1.268 . S
O344 Sc332 2.105 . S
O344 C338 1.268 . S
O345 Sc331 2.105 . S
O345 C339 1.268 . S
O346 Sc330 2.105 1_554 S
O346 C338 1.268 . S
O347 Sc331 2.105 . S
O347 C337 1.268 . S
O348 Sc332 2.105 1_556 S
O348 C339 1.268 . S
O349 Sc330 2.105 . S
O349 C335 1.268 . S
O350 Sc332 2.105 . S
O350 C334 1.268 . S
O351 Sc331 2.105 . S
O351 C336 1.268 . S
Sc352 O355 2.025 . S
Sc352 O362 2.105 . S
Sc352 O365 2.105 . S
Sc352 O368 2.105 . S
Sc352 O371 2.105 . S
Sc353 O355 2.025 1_554 S
Sc353 O363 2.105 1_554 S
Sc353 O367 2.105 . S
Sc353 O369 2.105 1_554 S
Sc353 O373 2.105 . S
Sc354 O355 2.025 . S
Sc354 O364 2.105 . S
Sc354 O366 2.105 . S
Sc354 O370 2.105 1_556 S
Sc354 O372 2.105 . S
O355 Sc352 2.025 . S
O355 Sc353 2.025 1_556 S
O355 Sc354 2.025 . S
C356 O362 1.268 . S
C356 O372 1.268 . S
C357 O363 1.268 . S
C357 O371 1.268 . S
C358 O364 1.268 1_554 S
C358 O373 1.268 . S
C359 O365 1.268 . S
C359 O369 1.268 . S
C360 O366 1.268 . S
C360 O368 1.268 . S
C361 O367 1.268 . S
C361 O370 1.268 . S
O362 Sc352 2.105 . S
O362 C356 1.268 . S
O363 Sc353 2.105 1_556 S
O363 C357 1.268 . S
O364 Sc354 2.105 . S
O364 C358 1.268 1_556 S
O365 Sc352 2.105 . S
O365 C359 1.268 . S
O366 Sc354 2.105 . S
O366 C360 1.268 . S
O367 Sc353 2.105 . S
O367 C361 1.268 . S
O368 Sc352 2.105 . S
O368 C360 1.268 . S
O369 Sc353 2.105 1_556 S
O369 C359 1.268 . S
O370 Sc354 2.105 1_554 S
O370 C361 1.268 . S
O371 Sc352 2.105 . S
O371 C357 1.268 . S
O372 Sc354 2.105 . S
O372 C356 1.268 . S
O373 Sc353 2.105 . S
O373 C358 1.268 . S
Sc374 O377 2.025 . S
Sc374 O384 2.105 . S
Sc374 O387 2.105 . S
Sc374 O390 2.105 . S
Sc374 O393 2.105 . S
Sc375 O377 2.025 1_554 S
Sc375 O385 2.105 1_554 S
Sc375 O389 2.105 . S
Sc375 O391 2.105 1_554 S
Sc375 O395 2.105 . S
Sc376 O377 2.025 . S
Sc376 O386 2.105 . S
Sc376 O388 2.105 . S
Sc376 O392 2.105 1_556 S
Sc376 O394 2.105 . S
O377 Sc374 2.025 . S
O377 Sc375 2.025 1_556 S
O377 Sc376 2.025 . S
C378 O384 1.268 . S
C378 O394 1.268 . S
C379 O385 1.268 . S
C379 O393 1.268 . S
C380 O386 1.268 1_554 S
C380 O395 1.268 . S
C381 O387 1.268 . S
C381 O391 1.268 . S
C382 O388 1.268 . S
C382 O390 1.268 . S
C383 O389 1.268 . S
C383 O392 1.268 . S
O384 Sc374 2.105 . S
O384 C378 1.268 . S
O385 Sc375 2.105 1_556 S
O385 C379 1.268 . S
O386 Sc376 2.105 . S
O386 C380 1.268 1_556 S
O387 Sc374 2.105 . S
O387 C381 1.268 . S
O388 Sc376 2.105 . S
O388 C382 1.268 . S
O389 Sc375 2.105 . S
O389 C383 1.268 . S
O390 Sc374 2.105 . S
O390 C382 1.268 . S
O391 Sc375 2.105 1_556 S
O391 C381 1.268 . S
O392 Sc376 2.105 1_554 S
O392 C383 1.268 . S
O393 Sc374 2.105 . S
O393 C379 1.268 . S
O394 Sc376 2.105 . S
O394 C378 1.268 . S
O395 Sc375 2.105 . S
O395 C380 1.268 . S
H396 C402 0.930 . S
H397 C405 0.930 . S
H398 C406 0.930 . S
H399 C407 0.930 . S
H400 C410 0.930 . S
H401 C411 0.930 . S
C402 H396 0.930 . S
C402 C403 1.355 . S
C402 C404 1.415 . S
C403 C402 1.355 . S
C403 C405 1.419 . S
C404 C402 1.415 . S
C404 C409 1.425 . S
C404 C411 1.409 . S
C405 H397 0.930 . S
C405 C403 1.419 . S
C405 C406 1.362 . S
C406 H398 0.930 . S
C406 C405 1.362 . S
C406 C409 1.409 . S
C407 H399 0.930 . S
C407 C408 1.355 . S
C407 C409 1.415 . S
C408 C407 1.355 . S
C408 C410 1.419 . S
C409 C404 1.425 . S
C409 C406 1.409 . S
C409 C407 1.415 . S
C410 H400 0.930 . S
C410 C408 1.419 . S
C410 C411 1.362 . S
C411 H401 0.930 . S
C411 C404 1.409 . S
C411 C410 1.362 . S
H412 C418 0.930 . S
H413 C421 0.930 . S
H414 C422 0.930 . S
H415 C423 0.930 . S
H416 C426 0.930 . S
H417 C427 0.930 . S
C418 H412 0.930 . S
C418 C419 1.355 . S
C418 C420 1.415 . S
C419 C418 1.355 . S
C419 C421 1.419 . S
C420 C418 1.415 . S
C420 C425 1.425 . S
C420 C427 1.409 . S
C421 H413 0.930 . S
C421 C419 1.419 . S
C421 C422 1.362 . S
C422 H414 0.930 . S
C422 C421 1.362 . S
C422 C425 1.409 . S
C423 H415 0.930 . S
C423 C424 1.355 . S
C423 C425 1.415 . S
C424 C423 1.355 . S
C424 C426 1.419 . S
C425 C420 1.425 . S
C425 C422 1.409 . S
C425 C423 1.415 . S
C426 H416 0.930 . S
C426 C424 1.419 . S
C426 C427 1.362 . S
C427 H417 0.930 . S
C427 C420 1.409 . S
C427 C426 1.362 . S
H428 C434 0.930 . S
H429 C437 0.930 . S
H430 C438 0.930 . S
H431 C439 0.930 . S
H432 C442 0.930 . S
H433 C443 0.930 . S
C434 H428 0.930 . S
C434 C435 1.355 . S
C434 C436 1.415 . S
C435 C434 1.355 . S
C435 C437 1.419 . S
C436 C434 1.415 . S
C436 C441 1.425 . S
C436 C443 1.409 . S
C437 H429 0.930 . S
C437 C435 1.419 . S
C437 C438 1.362 . S
C438 H430 0.930 . S
C438 C437 1.362 . S
C438 C441 1.409 . S
C439 H431 0.930 . S
C439 C440 1.355 . S
C439 C441 1.415 . S
C440 C439 1.355 . S
C440 C442 1.419 . S
C441 C436 1.425 . S
C441 C438 1.409 . S
C441 C439 1.415 . S
C442 H432 0.930 . S
C442 C440 1.419 . S
C442 C443 1.362 . S
C443 H433 0.930 . S
C443 C436 1.409 . S
C443 C442 1.362 . S
H444 C450 0.930 . S
H445 C453 0.930 . S
H446 C454 0.930 . S
H447 C455 0.930 1_556 S
H448 C458 0.930 . S
H449 C459 0.930 . S
C450 H444 0.930 . S
C450 C451 1.355 1_554 S
C450 C452 1.415 . S
C451 C450 1.355 1_556 S
C451 C453 1.419 . S
C452 C450 1.415 . S
C452 C457 1.425 1_554 S
C452 C459 1.409 . S
C453 H445 0.930 . S
C453 C451 1.419 . S
C453 C454 1.362 . S
C454 H446 0.930 . S
C454 C453 1.362 . S
C454 C457 1.409 . S
C455 H447 0.930 1_554 S
C455 C456 1.355 . S
C455 C457 1.415 1_554 S
C456 C455 1.355 . S
C456 C458 1.419 . S
C457 C452 1.425 1_556 S
C457 C454 1.409 . S
C457 C455 1.415 1_556 S
C458 H448 0.930 . S
C458 C456 1.419 . S
C458 C459 1.362 . S
C459 H449 0.930 . S
C459 C452 1.409 . S
C459 C458 1.362 . S
H460 C466 0.930 . S
H461 C469 0.930 . S
H462 C470 0.927 1_556 S
H463 C471 0.930 . S
H464 C474 0.930 . S
H465 C475 0.930 . S
C466 H460 0.930 . S
C466 C467 1.355 . S
C466 C468 1.415 . S
C467 C466 1.355 . S
C467 C469 1.419 . S
C468 C466 1.415 . S
C468 C473 1.425 1_554 S
C468 C475 1.409 . S
C469 H461 0.930 . S
C469 C467 1.419 . S
C469 C470 1.366 . S
C470 H462 0.927 1_554 S
C470 C469 1.366 . S
C470 C473 1.409 1_554 S
C471 H463 0.930 . S
C471 C472 1.355 . S
C471 C473 1.415 . S
C472 C471 1.355 . S
C472 C474 1.419 . S
C473 C468 1.425 1_556 S
C473 C470 1.409 1_556 S
C473 C471 1.415 . S
C474 H464 0.930 . S
C474 C472 1.419 . S
C474 C475 1.362 1_556 S
C475 H465 0.930 . S
C475 C468 1.409 . S
C475 C474 1.362 1_554 S
H476 C482 0.930 . S
H477 C485 0.930 . S
H478 C486 0.930 . S
H479 C487 0.930 . S
H480 C490 0.930 1_556 S
H481 C491 0.930 . S
C482 H476 0.930 . S
C482 C483 1.355 . S
C482 C484 1.415 . S
C483 C482 1.355 . S
C483 C485 1.419 1_556 S
C484 C482 1.415 . S
C484 C489 1.425 1_556 S
C484 C491 1.409 . S
C485 H477 0.930 . S
C485 C483 1.419 1_554 S
C485 C486 1.362 . S
C486 H478 0.930 . S
C486 C485 1.362 . S
C486 C489 1.409 . S
C487 H479 0.930 . S
C487 C488 1.355 . S
C487 C489 1.415 . S
C488 C487 1.355 . S
C488 C490 1.419 . S
C489 C484 1.425 1_554 S
C489 C486 1.409 . S
C489 C487 1.415 . S
C490 H480 0.930 1_554 S
C490 C488 1.419 . S
C490 C491 1.363 1_554 S
C491 H481 0.930 . S
C491 C484 1.409 . S
C491 C490 1.363 1_556 S
H492 C498 0.930 . S
H493 C501 0.930 . S
H494 C502 0.930 . S
H495 C503 0.930 . S
H496 C506 0.930 . S
H497 C507 0.930 . S
C498 H492 0.930 . S
C498 C499 1.355 . S
C498 C500 1.415 . S
C499 C498 1.355 . S
C499 C501 1.419 . S
C500 C498 1.415 . S
C500 C505 1.425 . S
C500 C507 1.409 . S
C501 H493 0.930 . S
C501 C499 1.419 . S
C501 C502 1.362 . S
C502 H494 0.930 . S
C502 C501 1.362 . S
C502 C505 1.409 . S
C503 H495 0.930 . S
C503 C504 1.355 . S
C503 C505 1.415 . S
C504 C503 1.355 . S
C504 C506 1.419 . S
C505 C500 1.425 . S
C505 C502 1.409 . S
C505 C503 1.415 . S
C506 H496 0.930 . S
C506 C504 1.419 . S
C506 C507 1.362 . S
C507 H497 0.930 . S
C507 C500 1.409 . S
C507 C506 1.362 . S
H508 C514 0.930 . S
H509 C517 0.930 . S
H510 C518 0.930 . S
H511 C519 0.930 . S
H512 C522 0.930 . S
H513 C523 0.930 . S
C514 H508 0.930 . S
C514 C515 1.355 . S
C514 C516 1.415 . S
C515 C514 1.355 . S
C515 C517 1.419 . S
C516 C514 1.415 . S
C516 C521 1.425 . S
C516 C523 1.409 . S
C517 H509 0.930 . S
C517 C515 1.419 . S
C517 C518 1.362 . S
C518 H510 0.930 . S
C518 C517 1.362 . S
C518 C521 1.409 . S
C519 H511 0.930 . S
C519 C520 1.355 . S
C519 C521 1.415 . S
C520 C519 1.355 . S
C520 C522 1.419 . S
C521 C516 1.425 . S
C521 C518 1.409 . S
C521 C519 1.415 . S
C522 H512 0.930 . S
C522 C520 1.419 . S
C522 C523 1.362 . S
C523 H513 0.930 . S
C523 C516 1.409 . S
C523 C522 1.362 . S
H524 C530 0.930 . S
H525 C533 0.930 . S
H526 C534 0.930 . S
H527 C535 0.930 . S
H528 C538 0.930 . S
H529 C539 0.930 . S
C530 H524 0.930 . S
C530 C531 1.355 . S
C530 C532 1.415 . S
C531 C530 1.355 . S
C531 C533 1.419 . S
C532 C530 1.415 . S
C532 C537 1.425 . S
C532 C539 1.409 . S
C533 H525 0.930 . S
C533 C531 1.419 . S
C533 C534 1.362 . S
C534 H526 0.930 . S
C534 C533 1.362 . S
C534 C537 1.409 . S
C535 H527 0.930 . S
C535 C536 1.355 . S
C535 C537 1.415 . S
C536 C535 1.355 . S
C536 C538 1.419 . S
C537 C532 1.425 . S
C537 C534 1.409 . S
C537 C535 1.415 . S
C538 H528 0.930 . S
C538 C536 1.419 . S
C538 C539 1.362 . S
C539 H529 0.930 . S
C539 C532 1.409 . S
C539 C538 1.362 . S
H540 C546 0.930 . S
H541 C549 0.930 . S
H542 C550 0.930 . S
H543 C551 0.930 . S
H544 C554 0.930 . S
H545 C555 0.930 . S
C546 H540 0.930 . S
C546 C547 1.355 1_556 S
C546 C548 1.415 . S
C547 C546 1.355 1_554 S
C547 C549 1.419 . S
C548 C546 1.415 . S
C548 C553 1.425 . S
C548 C555 1.409 . S
C549 H541 0.930 . S
C549 C547 1.419 . S
C549 C550 1.362 . S
C550 H542 0.930 . S
C550 C549 1.362 . S
C550 C553 1.409 1_554 S
C551 H543 0.930 . S
C551 C552 1.355 . S
C551 C553 1.415 . S
C552 C551 1.355 . S
C552 C554 1.419 . S
C553 C548 1.425 . S
C553 C550 1.409 1_556 S
C553 C551 1.415 . S
C554 H544 0.930 . S
C554 C552 1.419 . S
C554 C555 1.362 . S
C555 H545 0.930 . S
C555 C548 1.409 . S
C555 C554 1.362 . S
H556 C562 0.930 . S
H557 C565 0.930 . S
H558 C566 0.930 . S
H559 C567 0.930 1_556 S
H560 C570 0.930 . S
H561 C571 0.930 . S
C562 H556 0.930 . S
C562 C563 1.355 . S
C562 C564 1.415 . S
C563 C562 1.355 . S
C563 C565 1.419 . S
C564 C562 1.415 . S
C564 C569 1.425 . S
C564 C571 1.409 1_556 S
C565 H557 0.930 . S
C565 C563 1.419 . S
C565 C566 1.362 . S
C566 H558 0.930 . S
C566 C565 1.362 . S
C566 C569 1.409 . S
C567 H559 0.930 1_554 S
C567 C568 1.355 . S
C567 C569 1.415 1_554 S
C568 C567 1.355 . S
C568 C570 1.419 . S
C569 C564 1.425 . S
C569 C566 1.409 . S
C569 C567 1.415 1_556 S
C570 H560 0.930 . S
C570 C568 1.419 . S
C570 C571 1.362 . S
C571 H561 0.930 . S
C571 C564 1.409 1_554 S
C571 C570 1.362 . S
H572 C578 0.930 1_554 S
H573 C581 0.930 . S
H574 C582 0.930 . S
H575 C583 0.930 . S
H576 C586 0.930 . S
H577 C587 0.930 . S
C578 H572 0.930 1_556 S
C578 C579 1.355 . S
C578 C580 1.415 1_556 S
C579 C578 1.355 . S
C579 C581 1.419 . S
C580 C578 1.415 1_554 S
C580 C585 1.425 1_554 S
C580 C587 1.409 . S
C581 H573 0.930 . S
C581 C579 1.419 . S
C581 C582 1.362 . S
C582 H574 0.930 . S
C582 C581 1.362 . S
C582 C585 1.409 . S
C583 H575 0.930 . S
C583 C584 1.355 1_556 S
C583 C585 1.415 . S
C584 C583 1.355 1_554 S
C584 C586 1.419 . S
C585 C580 1.425 1_556 S
C585 C582 1.409 . S
C585 C583 1.415 . S
C586 H576 0.930 . S
C586 C584 1.419 . S
C586 C587 1.362 . S
C587 H577 0.930 . S
C587 C580 1.409 . S
C587 C586 1.362 . S
H588 C594 0.930 . S
H589 C597 0.930 . S
H590 C598 0.930 . S
H591 C599 0.930 . S
H592 C602 0.930 . S
H593 C603 0.930 . S
C594 H588 0.930 . S
C594 C595 1.355 . S
C594 C596 1.415 . S
C595 C594 1.355 . S
C595 C597 1.419 . S
C596 C594 1.415 . S
C596 C601 1.425 . S
C596 C603 1.409 . S
C597 H589 0.930 . S
C597 C595 1.419 . S
C597 C598 1.362 . S
C598 H590 0.930 . S
C598 C597 1.362 . S
C598 C601 1.409 . S
C599 H591 0.930 . S
C599 C600 1.355 . S
C599 C601 1.415 . S
C600 C599 1.355 . S
C600 C602 1.419 . S
C601 C596 1.425 . S
C601 C598 1.409 . S
C601 C599 1.415 . S
C602 H592 0.930 . S
C602 C600 1.419 . S
C602 C603 1.362 . S
C603 H593 0.930 . S
C603 C596 1.409 . S
C603 C602 1.362 . S
H604 C610 0.930 . S
H605 C613 0.930 . S
H606 C614 0.930 . S
H607 C615 0.930 . S
H608 C618 0.930 . S
H609 C619 0.930 . S
C610 H604 0.930 . S
C610 C611 1.355 . S
C610 C612 1.415 . S
C611 C610 1.355 . S
C611 C613 1.419 . S
C612 C610 1.415 . S
C612 C617 1.425 . S
C612 C619 1.409 . S
C613 H605 0.930 . S
C613 C611 1.419 . S
C613 C614 1.362 . S
C614 H606 0.930 . S
C614 C613 1.362 . S
C614 C617 1.409 . S
C615 H607 0.930 . S
C615 C616 1.355 . S
C615 C617 1.415 . S
C616 C615 1.355 . S
C616 C618 1.419 . S
C617 C612 1.425 . S
C617 C614 1.409 . S
C617 C615 1.415 . S
C618 H608 0.930 . S
C618 C616 1.419 . S
C618 C619 1.362 . S
C619 H609 0.930 . S
C619 C612 1.409 . S
C619 C618 1.362 . S
H620 C626 0.930 . S
H621 C629 0.930 . S
H622 C630 0.930 . S
H623 C631 0.930 . S
H624 C634 0.930 . S
H625 C635 0.930 . S
C626 H620 0.930 . S
C626 C627 1.355 . S
C626 C628 1.415 . S
C627 C626 1.355 . S
C627 C629 1.419 . S
C628 C626 1.415 . S
C628 C633 1.425 . S
C628 C635 1.409 . S
C629 H621 0.930 . S
C629 C627 1.419 . S
C629 C630 1.362 . S
C630 H622 0.930 . S
C630 C629 1.362 . S
C630 C633 1.409 . S
C631 H623 0.930 . S
C631 C632 1.355 . S
C631 C633 1.415 . S
C632 C631 1.355 . S
C632 C634 1.419 . S
C633 C628 1.425 . S
C633 C630 1.409 . S
C633 C631 1.415 . S
C634 H624 0.930 . S
C634 C632 1.419 . S
C634 C635 1.362 . S
C635 H625 0.930 . S
C635 C628 1.409 . S
C635 C634 1.362 . S
H636 C642 0.930 . S
H637 C645 0.930 . S
H638 C646 0.930 . S
H639 C647 0.930 . S
H640 C650 0.930 . S
H641 C651 0.930 . S
C642 H636 0.930 . S
C642 C643 1.355 . S
C642 C644 1.415 . S
C643 C642 1.355 . S
C643 C645 1.419 . S
C644 C642 1.415 . S
C644 C649 1.425 . S
C644 C651 1.409 . S
C645 H637 0.930 . S
C645 C643 1.419 . S
C645 C646 1.362 . S
C646 H638 0.930 . S
C646 C645 1.362 . S
C646 C649 1.409 . S
C647 H639 0.930 . S
C647 C648 1.355 . S
C647 C649 1.415 . S
C648 C647 1.355 . S
C648 C650 1.419 . S
C649 C644 1.425 . S
C649 C646 1.409 . S
C649 C647 1.415 . S
C650 H640 0.930 . S
C650 C648 1.419 . S
C650 C651 1.362 . S
C651 H641 0.930 . S
C651 C644 1.409 . S
C651 C650 1.362 . S
H652 C658 0.930 . S
H653 C661 0.930 . S
H654 C662 0.930 . S
H655 C663 0.930 . S
H656 C666 0.930 . S
H657 C667 0.930 . S
C658 H652 0.930 . S
C658 C659 1.355 . S
C658 C660 1.415 . S
C659 C658 1.355 . S
C659 C661 1.419 . S
C660 C658 1.415 . S
C660 C665 1.425 . S
C660 C667 1.409 . S
C661 H653 0.930 . S
C661 C659 1.419 . S
C661 C662 1.362 . S
C662 H654 0.930 . S
C662 C661 1.362 . S
C662 C665 1.409 . S
C663 H655 0.930 . S
C663 C664 1.355 . S
C663 C665 1.415 . S
C664 C663 1.355 . S
C664 C666 1.419 . S
C665 C660 1.425 . S
C665 C662 1.409 . S
C665 C663 1.415 . S
C666 H656 0.930 . S
C666 C664 1.419 . S
C666 C667 1.362 . S
C667 H657 0.930 . S
C667 C660 1.409 . S
C667 C666 1.362 . S
H668 C674 0.930 . S
H669 C677 0.930 . S
H670 C678 0.930 . S
H671 C679 0.930 . S
H672 C682 0.930 . S
H673 C683 0.930 . S
C674 H668 0.930 . S
C674 C675 1.355 . S
C674 C676 1.415 . S
C675 C674 1.355 . S
C675 C677 1.419 . S
C676 C674 1.415 . S
C676 C681 1.425 . S
C676 C683 1.409 . S
C677 H669 0.930 . S
C677 C675 1.419 . S
C677 C678 1.362 . S
C678 H670 0.930 . S
C678 C677 1.362 . S
C678 C681 1.409 . S
C679 H671 0.930 . S
C679 C680 1.355 . S
C679 C681 1.415 . S
C680 C679 1.355 . S
C680 C682 1.419 . S
C681 C676 1.425 . S
C681 C678 1.409 . S
C681 C679 1.415 . S
C682 H672 0.930 . S
C682 C680 1.419 . S
C682 C683 1.362 . S
C683 H673 0.930 . S
C683 C676 1.409 . S
C683 C682 1.362 . S
H684 C690 0.930 . S
H685 C693 0.930 1_554 S
H686 C694 0.930 . S
H687 C695 0.930 . S
H688 C698 0.930 . S
H689 C699 0.930 . S
C690 H684 0.930 . S
C690 C691 1.355 . S
C690 C692 1.415 . S
C691 C690 1.355 . S
C691 C693 1.419 . S
C692 C690 1.415 . S
C692 C697 1.425 . S
C692 C699 1.409 . S
C693 H685 0.930 1_556 S
C693 C691 1.419 . S
C693 C694 1.362 . S
C694 H686 0.930 . S
C694 C693 1.362 . S
C694 C697 1.409 . S
C695 H687 0.930 . S
C695 C696 1.355 . S
C695 C697 1.415 . S
C696 C695 1.355 . S
C696 C698 1.419 . S
C697 C692 1.425 . S
C697 C694 1.409 . S
C697 C695 1.415 . S
C698 H688 0.930 . S
C698 C696 1.419 . S
C698 C699 1.362 . S
C699 H689 0.930 . S
C699 C692 1.409 . S
C699 C698 1.362 . S
H700 C706 0.930 . S
H701 C709 0.930 1_554 S
H702 C710 0.930 . S
H703 C711 0.930 . S
H704 C714 0.930 . S
H705 C715 0.930 . S
C706 H700 0.930 . S
C706 C707 1.355 . S
C706 C708 1.415 . S
C707 C706 1.355 . S
C707 C709 1.419 . S
C708 C706 1.415 . S
C708 C713 1.425 . S
C708 C715 1.409 . S
C709 H701 0.930 1_556 S
C709 C707 1.419 . S
C709 C710 1.362 . S
C710 H702 0.930 . S
C710 C709 1.362 . S
C710 C713 1.409 . S
C711 H703 0.930 . S
C711 C712 1.355 . S
C711 C713 1.415 . S
C712 C711 1.355 . S
C712 C714 1.419 . S
C713 C708 1.425 . S
C713 C710 1.409 . S
C713 C711 1.415 . S
C714 H704 0.930 . S
C714 C712 1.419 . S
C714 C715 1.362 . S
C715 H705 0.930 . S
C715 C708 1.409 . S
C715 C714 1.362 . S
H716 C722 0.930 . S
H717 C725 0.930 . S
H718 C726 0.930 . S
H719 C727 0.930 . S
H720 C730 0.930 . S
H721 C731 0.930 . S
C722 H716 0.930 . S
C722 C723 1.355 . S
C722 C724 1.415 . S
C723 C722 1.355 . S
C723 C725 1.419 . S
C724 C722 1.415 . S
C724 C729 1.425 . S
C724 C731 1.409 . S
C725 H717 0.930 . S
C725 C723 1.419 . S
C725 C726 1.362 . S
C726 H718 0.930 . S
C726 C725 1.362 . S
C726 C729 1.409 . S
C727 H719 0.930 . S
C727 C728 1.355 . S
C727 C729 1.415 . S
C728 C727 1.355 . S
C728 C730 1.419 . S
C729 C724 1.425 . S
C729 C726 1.409 . S
C729 C727 1.415 . S
C730 H720 0.930 . S
C730 C728 1.419 . S
C730 C731 1.362 . S
C731 H721 0.930 . S
C731 C724 1.409 . S
C731 C730 1.362 . S
H732 C738 0.930 . S
H733 C741 0.930 . S
H734 C742 0.930 . S
H735 C743 0.930 . S
H736 C746 0.930 . S
H737 C747 0.930 . S
C738 H732 0.930 . S
C738 C739 1.355 . S
C738 C740 1.415 . S
C739 C738 1.355 . S
C739 C741 1.419 . S
C740 C738 1.415 . S
C740 C745 1.425 . S
C740 C747 1.409 . S
C741 H733 0.930 . S
C741 C739 1.419 . S
C741 C742 1.362 . S
C742 H734 0.930 . S
C742 C741 1.362 . S
C742 C745 1.409 . S
C743 H735 0.930 . S
C743 C744 1.355 . S
C743 C745 1.415 . S
C744 C743 1.355 . S
C744 C746 1.419 . S
C745 C740 1.425 . S
C745 C742 1.409 . S
C745 C743 1.415 . S
C746 H736 0.930 . S
C746 C744 1.419 . S
C746 C747 1.362 . S
C747 H737 0.930 . S
C747 C740 1.409 . S
C747 C746 1.362 . S
H748 C754 0.930 . S
H749 C757 0.930 . S
H750 C758 0.930 . S
H751 C759 0.930 . S
H752 C762 0.930 . S
H753 C763 0.930 . S
C754 H748 0.930 . S
C754 C755 1.355 . S
C754 C756 1.415 . S
C755 C754 1.355 . S
C755 C757 1.419 . S
C756 C754 1.415 . S
C756 C761 1.425 . S
C756 C763 1.409 . S
C757 H749 0.930 . S
C757 C755 1.419 . S
C757 C758 1.362 . S
C758 H750 0.930 . S
C758 C757 1.362 . S
C758 C761 1.409 . S
C759 H751 0.930 . S
C759 C760 1.355 . S
C759 C761 1.415 . S
C760 C759 1.355 . S
C760 C762 1.419 . S
C761 C756 1.425 . S
C761 C758 1.409 . S
C761 C759 1.415 . S
C762 H752 0.930 . S
C762 C760 1.419 . S
C762 C763 1.362 . S
C763 H753 0.930 . S
C763 C756 1.409 . S
C763 C762 1.362 . S
H764 C770 0.930 . S
H765 C773 0.930 . S
H766 C774 0.930 . S
H767 C775 0.930 . S
H768 C778 0.930 . S
H769 C779 0.930 . S
C770 H764 0.930 . S
C770 C771 1.355 . S
C770 C772 1.415 . S
C771 C770 1.355 . S
C771 C773 1.419 . S
C772 C770 1.415 . S
C772 C777 1.425 . S
C772 C779 1.409 . S
C773 H765 0.930 . S
C773 C771 1.419 . S
C773 C774 1.362 . S
C774 H766 0.930 . S
C774 C773 1.362 . S
C774 C777 1.409 . S
C775 H767 0.930 . S
C775 C776 1.355 . S
C775 C777 1.415 . S
C776 C775 1.355 . S
C776 C778 1.419 . S
C777 C772 1.425 . S
C777 C774 1.409 . S
C777 C775 1.415 . S
C778 H768 0.930 . S
C778 C776 1.419 . S
C778 C779 1.362 . S
C779 H769 0.930 . S
C779 C772 1.409 . S
C779 C778 1.362 . S
H780 C786 0.930 . S
H781 C789 0.930 . S
H782 C790 0.930 . S
H783 C791 0.930 . S
H784 C794 0.930 . S
H785 C795 0.930 . S
C786 H780 0.930 . S
C786 C787 1.355 . S
C786 C788 1.415 . S
C787 C786 1.355 . S
C787 C789 1.419 . S
C788 C786 1.415 . S
C788 C793 1.425 . S
C788 C795 1.409 . S
C789 H781 0.930 . S
C789 C787 1.419 . S
C789 C790 1.362 . S
C790 H782 0.930 . S
C790 C789 1.362 . S
C790 C793 1.409 . S
C791 H783 0.930 . S
C791 C792 1.355 . S
C791 C793 1.415 . S
C792 C791 1.355 . S
C792 C794 1.419 . S
C793 C788 1.425 . S
C793 C790 1.409 . S
C793 C791 1.415 . S
C794 H784 0.930 . S
C794 C792 1.419 . S
C794 C795 1.362 . S
C795 H785 0.930 . S
C795 C788 1.409 . S
C795 C794 1.362 . S
H796 C802 0.930 . S
H797 C805 0.930 . S
H798 C806 0.930 . S
H799 C807 0.930 . S
H800 C810 0.930 1_556 S
H801 C811 0.930 . S
C802 H796 0.930 . S
C802 C803 1.355 . S
C802 C804 1.415 . S
C803 C802 1.355 . S
C803 C805 1.419 . S
C804 C802 1.415 . S
C804 C809 1.425 . S
C804 C811 1.409 . S
C805 H797 0.930 . S
C805 C803 1.419 . S
C805 C806 1.362 . S
C806 H798 0.930 . S
C806 C805 1.362 . S
C806 C809 1.409 . S
C807 H799 0.930 . S
C807 C808 1.355 . S
C807 C809 1.415 . S
C808 C807 1.355 . S
C808 C810 1.419 . S
C809 C804 1.425 . S
C809 C806 1.409 . S
C809 C807 1.415 . S
C810 H800 0.930 1_554 S
C810 C808 1.419 . S
C810 C811 1.362 . S
C811 H801 0.930 . S
C811 C804 1.409 . S
C811 C810 1.362 . S
H812 C818 0.930 1_556 S
H813 C821 0.930 . S
H814 C822 0.930 . S
H815 C823 0.930 . S
H816 C826 0.930 . S
H817 C827 0.930 . S
C818 H812 0.930 1_554 S
C818 C819 1.355 . S
C818 C820 1.415 . S
C819 C818 1.355 . S
C819 C821 1.419 . S
C820 C818 1.415 . S
C820 C825 1.425 . S
C820 C827 1.409 . S
C821 H813 0.930 . S
C821 C819 1.419 . S
C821 C822 1.362 . S
C822 H814 0.930 . S
C822 C821 1.362 . S
C822 C825 1.409 . S
C823 H815 0.930 . S
C823 C824 1.355 . S
C823 C825 1.415 . S
C824 C823 1.355 . S
C824 C826 1.419 . S
C825 C820 1.425 . S
C825 C822 1.409 . S
C825 C823 1.415 . S
C826 H816 0.930 . S
C826 C824 1.419 . S
C826 C827 1.362 . S
C827 H817 0.930 . S
C827 C820 1.409 . S
C827 C826 1.362 . S
H828 C834 0.930 . S
H829 C837 0.930 . S
H830 C838 0.930 . S
H831 C839 0.930 . S
H832 C842 0.930 . S
H833 C843 0.930 . S
C834 H828 0.930 . S
C834 C835 1.355 . S
C834 C836 1.415 . S
C835 C834 1.355 . S
C835 C837 1.419 . S
C836 C834 1.415 . S
C836 C841 1.425 . S
C836 C843 1.409 . S
C837 H829 0.930 . S
C837 C835 1.419 . S
C837 C838 1.362 . S
C838 H830 0.930 . S
C838 C837 1.362 . S
C838 C841 1.409 . S
C839 H831 0.930 . S
C839 C840 1.355 . S
C839 C841 1.415 . S
C840 C839 1.355 . S
C840 C842 1.419 . S
C841 C836 1.425 . S
C841 C838 1.409 . S
C841 C839 1.415 . S
C842 H832 0.930 . S
C842 C840 1.419 . S
C842 C843 1.362 . S
C843 H833 0.930 . S
C843 C836 1.409 . S
C843 C842 1.362 . S
H844 C850 0.930 . S
H845 C853 0.930 . S
H846 C854 0.930 . S
H847 C855 0.930 . S
H848 C858 0.930 . S
H849 C859 0.930 . S
C850 H844 0.930 . S
C850 C851 1.355 . S
C850 C852 1.415 . S
C851 C850 1.355 . S
C851 C853 1.419 . S
C852 C850 1.415 . S
C852 C857 1.425 . S
C852 C859 1.409 . S
C853 H845 0.930 . S
C853 C851 1.419 . S
C853 C854 1.362 . S
C854 H846 0.930 . S
C854 C853 1.362 . S
C854 C857 1.409 . S
C855 H847 0.930 . S
C855 C856 1.355 . S
C855 C857 1.415 . S
C856 C855 1.355 . S
C856 C858 1.419 . S
C857 C852 1.425 . S
C857 C854 1.409 . S
C857 C855 1.415 . S
C858 H848 0.930 . S
C858 C856 1.419 . S
C858 C859 1.362 . S
C859 H849 0.930 . S
C859 C852 1.409 . S
C859 C858 1.362 . S
H860 C866 0.930 . S
H861 C869 0.930 . S
H862 C870 0.930 . S
H863 C871 0.930 . S
H864 C874 0.930 . S
H865 C875 0.930 . S
C866 H860 0.930 . S
C866 C867 1.355 . S
C866 C868 1.415 . S
C867 C866 1.355 . S
C867 C869 1.419 . S
C868 C866 1.415 . S
C868 C873 1.425 . S
C868 C875 1.409 . S
C869 H861 0.930 . S
C869 C867 1.419 . S
C869 C870 1.362 . S
C870 H862 0.930 . S
C870 C869 1.362 . S
C870 C873 1.409 . S
C871 H863 0.930 . S
C871 C872 1.355 . S
C871 C873 1.415 . S
C872 C871 1.355 . S
C872 C874 1.419 . S
C873 C868 1.425 . S
C873 C870 1.409 . S
C873 C871 1.415 . S
C874 H864 0.930 . S
C874 C872 1.419 . S
C874 C875 1.362 . S
C875 H865 0.930 . S
C875 C868 1.409 . S
C875 C874 1.362 . S
H876 C882 0.930 . S
H877 C885 0.930 . S
H878 C886 0.930 . S
H879 C887 0.930 . S
H880 C890 0.930 . S
H881 C891 0.930 . S
C882 H876 0.930 . S
C882 C883 1.355 . S
C882 C884 1.415 . S
C883 C882 1.355 . S
C883 C885 1.419 . S
C884 C882 1.415 . S
C884 C889 1.425 . S
C884 C891 1.409 . S
C885 H877 0.930 . S
C885 C883 1.419 . S
C885 C886 1.362 . S
C886 H878 0.930 . S
C886 C885 1.362 . S
C886 C889 1.409 . S
C887 H879 0.930 . S
C887 C888 1.355 . S
C887 C889 1.415 . S
C888 C887 1.355 . S
C888 C890 1.419 . S
C889 C884 1.425 . S
C889 C886 1.409 . S
C889 C887 1.415 . S
C890 H880 0.930 . S
C890 C888 1.419 . S
C890 C891 1.362 . S
C891 H881 0.930 . S
C891 C884 1.409 . S
C891 C890 1.362 . S
H892 C898 0.930 . S
H893 C901 0.930 . S
H894 C902 0.930 . S
H895 C903 0.930 . S
H896 C906 0.930 . S
H897 C907 0.930 . S
C898 H892 0.930 . S
C898 C899 1.355 . S
C898 C900 1.415 . S
C899 C898 1.355 . S
C899 C901 1.419 . S
C900 C898 1.415 . S
C900 C905 1.425 . S
C900 C907 1.409 . S
C901 H893 0.930 . S
C901 C899 1.419 . S
C901 C902 1.362 . S
C902 H894 0.930 . S
C902 C901 1.362 . S
C902 C905 1.409 . S
C903 H895 0.930 . S
C903 C904 1.355 . S
C903 C905 1.415 . S
C904 C903 1.355 . S
C904 C906 1.419 . S
C905 C900 1.425 . S
C905 C902 1.409 . S
C905 C903 1.415 . S
C906 H896 0.930 . S
C906 C904 1.419 . S
C906 C907 1.362 . S
C907 H897 0.930 . S
C907 C900 1.409 . S
C907 C906 1.362 . S
H908 C914 0.930 . S
H909 C917 0.930 . S
H910 C918 0.930 . S
H911 C919 0.930 . S
H912 C922 0.930 1_556 S
H913 C923 0.930 . S
C914 H908 0.930 . S
C914 C915 1.355 . S
C914 C916 1.415 . S
C915 C914 1.355 . S
C915 C917 1.419 . S
C916 C914 1.415 . S
C916 C921 1.425 . S
C916 C923 1.409 . S
C917 H909 0.930 . S
C917 C915 1.419 . S
C917 C918 1.362 . S
C918 H910 0.930 . S
C918 C917 1.362 . S
C918 C921 1.409 . S
C919 H911 0.930 . S
C919 C920 1.355 . S
C919 C921 1.415 . S
C920 C919 1.355 . S
C920 C922 1.419 . S
C921 C916 1.425 . S
C921 C918 1.409 . S
C921 C919 1.415 . S
C922 H912 0.930 1_554 S
C922 C920 1.419 . S
C922 C923 1.362 . S
C923 H913 0.930 . S
C923 C916 1.409 . S
C923 C922 1.362 . S
H924 C930 0.930 . S
H925 C933 0.930 . S
H926 C934 0.930 . S
H927 C935 0.930 . S
H928 C938 0.930 . S
H929 C939 0.930 . S
C930 H924 0.930 . S
C930 C931 1.355 . S
C930 C932 1.415 . S
C931 C930 1.355 . S
C931 C933 1.419 . S
C932 C930 1.415 . S
C932 C937 1.425 . S
C932 C939 1.409 . S
C933 H925 0.930 . S
C933 C931 1.419 . S
C933 C934 1.362 . S
C934 H926 0.930 . S
C934 C933 1.362 . S
C934 C937 1.409 . S
C935 H927 0.930 . S
C935 C936 1.355 . S
C935 C937 1.415 . S
C936 C935 1.355 . S
C936 C938 1.419 . S
C937 C932 1.425 . S
C937 C934 1.409 . S
C937 C935 1.415 . S
C938 H928 0.930 . S
C938 C936 1.419 . S
C938 C939 1.362 . S
C939 H929 0.930 . S
C939 C932 1.409 . S
C939 C938 1.362 . S
H940 C946 0.930 . S
H941 C949 0.930 . S
H942 C950 0.930 . S
H943 C951 0.930 . S
H944 C954 0.930 . S
H945 C955 0.930 . S
C946 H940 0.930 . S
C946 C947 1.355 . S
C946 C948 1.415 . S
C947 C946 1.355 . S
C947 C949 1.419 . S
C948 C946 1.415 . S
C948 C953 1.425 . S
C948 C955 1.409 . S
C949 H941 0.930 . S
C949 C947 1.419 . S
C949 C950 1.362 . S
C950 H942 0.930 . S
C950 C949 1.362 . S
C950 C953 1.409 . S
C951 H943 0.930 . S
C951 C952 1.355 . S
C951 C953 1.415 . S
C952 C951 1.355 . S
C952 C954 1.419 . S
C953 C948 1.425 . S
C953 C950 1.409 . S
C953 C951 1.415 . S
C954 H944 0.930 . S
C954 C952 1.419 . S
C954 C955 1.362 . S
C955 H945 0.930 . S
C955 C948 1.409 . S
C955 C954 1.362 . S
H956 C962 0.930 . S
H957 C965 0.930 . S
H958 C966 0.930 . S
H959 C967 0.930 . S
H960 C970 0.930 . S
H961 C971 0.930 . S
C962 H956 0.930 . S
C962 C963 1.355 . S
C962 C964 1.415 . S
C963 C962 1.355 . S
C963 C965 1.419 . S
C964 C962 1.415 . S
C964 C969 1.425 . S
C964 C971 1.409 . S
C965 H957 0.930 . S
C965 C963 1.419 . S
C965 C966 1.362 . S
C966 H958 0.930 . S
C966 C965 1.362 . S
C966 C969 1.409 . S
C967 H959 0.930 . S
C967 C968 1.355 . S
C967 C969 1.415 . S
C968 C967 1.355 . S
C968 C970 1.419 . S
C969 C964 1.425 . S
C969 C966 1.409 . S
C969 C967 1.415 . S
C970 H960 0.930 . S
C970 C968 1.419 . S
C970 C971 1.362 . S
C971 H961 0.930 . S
C971 C964 1.409 . S
C971 C970 1.362 . S
H972 C978 0.930 . S
H973 C981 0.930 . S
H974 C982 0.930 . S
H975 C983 0.930 . S
H976 C986 0.930 . S
H977 C987 0.930 . S
C978 H972 0.930 . S
C978 C979 1.355 . S
C978 C980 1.415 . S
C979 C978 1.355 . S
C979 C981 1.419 . S
C980 C978 1.415 . S
C980 C985 1.425 . S
C980 C987 1.409 . S
C981 H973 0.930 . S
C981 C979 1.419 . S
C981 C982 1.362 . S
C982 H974 0.930 . S
C982 C981 1.362 . S
C982 C985 1.409 . S
C983 H975 0.930 . S
C983 C984 1.355 . S
C983 C985 1.415 . S
C984 C983 1.355 . S
C984 C986 1.419 . S
C985 C980 1.425 . S
C985 C982 1.409 . S
C985 C983 1.415 . S
C986 H976 0.930 . S
C986 C984 1.419 . S
C986 C987 1.362 . S
C987 H977 0.930 . S
C987 C980 1.409 . S
C987 C986 1.362 . S
H988 C994 0.930 . S
H989 C997 0.930 . S
H990 C998 0.930 . S
H991 C999 0.930 . S
H992 C1002 0.930 . S
H993 C1003 0.930 . S
C994 H988 0.930 . S
C994 C995 1.355 . S
C994 C996 1.415 . S
C995 C994 1.355 . S
C995 C997 1.419 . S
C996 C994 1.415 . S
C996 C1001 1.425 . S
C996 C1003 1.409 . S
C997 H989 0.930 . S
C997 C995 1.419 . S
C997 C998 1.362 . S
C998 H990 0.930 . S
C998 C997 1.362 . S
C998 C1001 1.409 . S
C999 H991 0.930 . S
C999 C1000 1.355 . S
C999 C1001 1.415 . S
C1000 C999 1.355 . S
C1000 C1002 1.419 . S
C1001 C996 1.425 . S
C1001 C998 1.409 . S
C1001 C999 1.415 . S
C1002 H992 0.930 . S
C1002 C1000 1.419 . S
C1002 C1003 1.362 . S
C1003 H993 0.930 . S
C1003 C996 1.409 . S
C1003 C1002 1.362 . S
H1004 C1010 0.930 . S
H1005 C1013 0.930 . S
H1006 C1014 0.930 . S
H1007 C1015 0.930 . S
H1008 C1018 0.930 . S
H1009 C1019 0.930 . S
C1010 H1004 0.930 . S
C1010 C1011 1.355 . S
C1010 C1012 1.415 . S
C1011 C1010 1.355 . S
C1011 C1013 1.419 . S
C1012 C1010 1.415 . S
C1012 C1017 1.425 . S
C1012 C1019 1.409 . S
C1013 H1005 0.930 . S
C1013 C1011 1.419 . S
C1013 C1014 1.362 . S
C1014 H1006 0.930 . S
C1014 C1013 1.362 . S
C1014 C1017 1.409 . S
C1015 H1007 0.930 . S
C1015 C1016 1.355 . S
C1015 C1017 1.415 . S
C1016 C1015 1.355 . S
C1016 C1018 1.419 . S
C1017 C1012 1.425 . S
C1017 C1014 1.409 . S
C1017 C1015 1.415 . S
C1018 H1008 0.930 . S
C1018 C1016 1.419 . S
C1018 C1019 1.362 . S
C1019 H1009 0.930 . S
C1019 C1012 1.409 . S
C1019 C1018 1.362 . S
H1020 C1026 0.930 . S
H1021 C1029 0.930 . S
H1022 C1030 0.930 1_554 S
H1023 C1031 0.930 . S
H1024 C1034 0.930 . S
H1025 C1035 0.930 . S
C1026 H1020 0.930 . S
C1026 C1027 1.355 . S
C1026 C1028 1.415 . S
C1027 C1026 1.355 . S
C1027 C1029 1.419 . S
C1028 C1026 1.415 . S
C1028 C1033 1.425 . S
C1028 C1035 1.409 . S
C1029 H1021 0.930 . S
C1029 C1027 1.419 . S
C1029 C1030 1.362 . S
C1030 H1022 0.930 1_556 S
C1030 C1029 1.362 . S
C1030 C1033 1.409 . S
C1031 H1023 0.930 . S
C1031 C1032 1.355 . S
C1031 C1033 1.415 1_554 S
C1032 C1031 1.355 . S
C1032 C1034 1.419 1_554 S
C1033 C1028 1.425 . S
C1033 C1030 1.409 . S
C1033 C1031 1.415 1_556 S
C1034 H1024 0.930 . S
C1034 C1032 1.419 1_556 S
C1034 C1035 1.362 . S
C1035 H1025 0.930 . S
C1035 C1028 1.409 . S
C1035 C1034 1.362 . S
H1036 C1042 0.930 . S
H1037 C1045 0.930 . S
H1038 C1046 0.930 . S
H1039 C1047 0.930 1_554 S
H1040 C1050 0.930 . S
H1041 C1051 0.930 . S
C1042 H1036 0.930 . S
C1042 C1043 1.355 . S
C1042 C1044 1.415 . S
C1043 C1042 1.355 . S
C1043 C1045 1.419 . S
C1044 C1042 1.415 . S
C1044 C1049 1.425 . S
C1044 C1051 1.409 . S
C1045 H1037 0.930 . S
C1045 C1043 1.419 . S
C1045 C1046 1.362 . S
C1046 H1038 0.930 . S
C1046 C1045 1.362 . S
C1046 C1049 1.409 . S
C1047 H1039 0.930 1_556 S
C1047 C1048 1.355 1_556 S
C1047 C1049 1.415 . S
C1048 C1047 1.355 1_554 S
C1048 C1050 1.419 1_554 S
C1049 C1044 1.425 . S
C1049 C1046 1.409 . S
C1049 C1047 1.415 . S
C1050 H1040 0.930 . S
C1050 C1048 1.419 1_556 S
C1050 C1051 1.362 . S
C1051 H1041 0.930 . S
C1051 C1044 1.409 . S
C1051 C1050 1.362 . S
H1052 C1058 0.930 . S
H1053 C1061 0.930 . S
H1054 C1062 0.930 1_554 S
H1055 C1063 0.930 . S
H1056 C1066 0.930 . S
H1057 C1067 0.930 . S
C1058 H1052 0.930 . S
C1058 C1059 1.355 . S
C1058 C1060 1.415 . S
C1059 C1058 1.355 . S
C1059 C1061 1.419 . S
C1060 C1058 1.415 . S
C1060 C1065 1.425 . S
C1060 C1067 1.409 . S
C1061 H1053 0.930 . S
C1061 C1059 1.419 . S
C1061 C1062 1.362 . S
C1062 H1054 0.930 1_556 S
C1062 C1061 1.362 . S
C1062 C1065 1.409 . S
C1063 H1055 0.930 . S
C1063 C1064 1.355 . S
C1063 C1065 1.415 1_554 S
C1064 C1063 1.355 . S
C1064 C1066 1.419 1_554 S
C1065 C1060 1.425 . S
C1065 C1062 1.409 . S
C1065 C1063 1.415 1_556 S
C1066 H1056 0.930 . S
C1066 C1064 1.419 1_556 S
C1066 C1067 1.362 . S
C1067 H1057 0.930 . S
C1067 C1060 1.409 . S
C1067 C1066 1.362 . S
H1068 C1074 0.930 . S
H1069 C1077 0.930 . S
H1070 C1078 0.930 . S
H1071 C1079 0.930 . S
H1072 C1082 0.930 . S
H1073 C1083 0.930 . S
C1074 H1068 0.930 . S
C1074 C1075 1.355 . S
C1074 C1076 1.415 . S
C1075 C1074 1.355 . S
C1075 C1077 1.419 . S
C1076 C1074 1.415 . S
C1076 C1081 1.425 . S
C1076 C1083 1.409 . S
C1077 H1069 0.930 . S
C1077 C1075 1.419 . S
C1077 C1078 1.362 . S
C1078 H1070 0.930 . S
C1078 C1077 1.362 . S
C1078 C1081 1.409 . S
C1079 H1071 0.930 . S
C1079 C1080 1.355 . S
C1079 C1081 1.415 . S
C1080 C1079 1.355 . S
C1080 C1082 1.419 . S
C1081 C1076 1.425 . S
C1081 C1078 1.409 . S
C1081 C1079 1.415 . S
C1082 H1072 0.930 . S
C1082 C1080 1.419 . S
C1082 C1083 1.362 . S
C1083 H1073 0.930 . S
C1083 C1076 1.409 . S
C1083 C1082 1.362 . S
H1084 C1090 0.930 . S
H1085 C1093 0.930 . S
H1086 C1094 0.930 . S
H1087 C1095 0.930 . S
H1088 C1098 0.930 . S
H1089 C1099 0.930 . S
C1090 H1084 0.930 . S
C1090 C1091 1.355 . S
C1090 C1092 1.415 . S
C1091 C1090 1.355 . S
C1091 C1093 1.419 . S
C1092 C1090 1.415 . S
C1092 C1097 1.425 . S
C1092 C1099 1.409 . S
C1093 H1085 0.930 . S
C1093 C1091 1.419 . S
C1093 C1094 1.362 . S
C1094 H1086 0.930 . S
C1094 C1093 1.362 . S
C1094 C1097 1.409 . S
C1095 H1087 0.930 . S
C1095 C1096 1.355 . S
C1095 C1097 1.415 . S
C1096 C1095 1.355 . S
C1096 C1098 1.419 . S
C1097 C1092 1.425 . S
C1097 C1094 1.409 . S
C1097 C1095 1.415 . S
C1098 H1088 0.930 . S
C1098 C1096 1.419 . S
C1098 C1099 1.362 . S
C1099 H1089 0.930 . S
C1099 C1092 1.409 . S
C1099 C1098 1.362 . S
H1100 C1106 0.930 . S
H1101 C1109 0.930 . S
H1102 C1110 0.930 . S
H1103 C1111 0.930 . S
H1104 C1114 0.930 . S
H1105 C1115 0.930 . S
C1106 H1100 0.930 . S
C1106 C1107 1.355 . S
C1106 C1108 1.415 . S
C1107 C1106 1.355 . S
C1107 C1109 1.419 . S
C1108 C1106 1.415 . S
C1108 C1113 1.425 . S
C1108 C1115 1.409 . S
C1109 H1101 0.930 . S
C1109 C1107 1.419 . S
C1109 C1110 1.362 . S
C1110 H1102 0.930 . S
C1110 C1109 1.362 . S
C1110 C1113 1.409 . S
C1111 H1103 0.930 . S
C1111 C1112 1.355 . S
C1111 C1113 1.415 . S
C1112 C1111 1.355 . S
C1112 C1114 1.419 . S
C1113 C1108 1.425 . S
C1113 C1110 1.409 . S
C1113 C1111 1.415 . S
C1114 H1104 0.930 . S
C1114 C1112 1.419 . S
C1114 C1115 1.362 . S
C1115 H1105 0.930 . S
C1115 C1108 1.409 . S
C1115 C1114 1.362 . S
H1116 C1122 0.930 . S
H1117 C1125 0.930 . S
H1118 C1126 0.930 . S
H1119 C1127 0.930 . S
H1120 C1130 0.930 . S
H1121 C1131 0.930 1_556 S
C1122 H1116 0.930 . S
C1122 C1123 1.355 . S
C1122 C1124 1.415 1_556 S
C1123 C1122 1.355 . S
C1123 C1125 1.419 1_556 S
C1124 C1122 1.415 1_554 S
C1124 C1129 1.425 . S
C1124 C1131 1.409 . S
C1125 H1117 0.930 . S
C1125 C1123 1.419 1_554 S
C1125 C1126 1.362 . S
C1126 H1118 0.930 . S
C1126 C1125 1.362 . S
C1126 C1129 1.409 . S
C1127 H1119 0.930 . S
C1127 C1128 1.355 . S
C1127 C1129 1.415 . S
C1128 C1127 1.355 . S
C1128 C1130 1.419 . S
C1129 C1124 1.425 . S
C1129 C1126 1.409 . S
C1129 C1127 1.415 . S
C1130 H1120 0.930 . S
C1130 C1128 1.419 . S
C1130 C1131 1.362 . S
C1131 H1121 0.930 1_554 S
C1131 C1124 1.409 . S
C1131 C1130 1.362 . S
H1132 C1138 0.930 . S
H1133 C1141 0.930 . S
H1134 C1142 0.930 . S
H1135 C1143 0.930 . S
H1136 C1146 0.930 . S
H1137 C1147 0.930 . S
C1138 H1132 0.930 . S
C1138 C1139 1.355 . S
C1138 C1140 1.415 . S
C1139 C1138 1.355 . S
C1139 C1141 1.419 . S
C1140 C1138 1.415 . S
C1140 C1145 1.425 . S
C1140 C1147 1.409 1_554 S
C1141 H1133 0.930 . S
C1141 C1139 1.419 . S
C1141 C1142 1.362 . S
C1142 H1134 0.930 . S
C1142 C1141 1.362 . S
C1142 C1145 1.409 . S
C1143 H1135 0.930 . S
C1143 C1144 1.355 1_554 S
C1143 C1145 1.415 . S
C1144 C1143 1.355 1_556 S
C1144 C1146 1.419 . S
C1145 C1140 1.425 . S
C1145 C1142 1.409 . S
C1145 C1143 1.415 . S
C1146 H1136 0.930 . S
C1146 C1144 1.419 . S
C1146 C1147 1.362 . S
C1147 H1137 0.930 . S
C1147 C1140 1.409 1_556 S
C1147 C1146 1.362 . S
H1148 C1154 0.930 . S
H1149 C1157 0.930 . S
H1150 C1158 0.930 1_556 S
H1151 C1159 0.930 . S
H1152 C1162 0.930 . S
H1153 C1163 0.930 . S
C1154 H1148 0.930 . S
C1154 C1155 1.355 . S
C1154 C1156 1.415 . S
C1155 C1154 1.355 . S
C1155 C1157 1.419 . S
C1156 C1154 1.415 . S
C1156 C1161 1.425 . S
C1156 C1163 1.409 . S
C1157 H1149 0.930 . S
C1157 C1155 1.419 . S
C1157 C1158 1.362 . S
C1158 H1150 0.930 1_554 S
C1158 C1157 1.362 . S
C1158 C1161 1.409 . S
C1159 H1151 0.930 . S
C1159 C1160 1.355 . S
C1159 C1161 1.415 1_556 S
C1160 C1159 1.355 . S
C1160 C1162 1.419 1_556 S
C1161 C1156 1.425 . S
C1161 C1158 1.409 . S
C1161 C1159 1.415 1_554 S
C1162 H1152 0.930 . S
C1162 C1160 1.419 1_554 S
C1162 C1163 1.362 . S
C1163 H1153 0.930 . S
C1163 C1156 1.409 . S
C1163 C1162 1.362 . S
H1164 C1170 0.930 . S
H1165 C1173 0.930 . S
H1166 C1174 0.930 . S
H1167 C1175 0.930 . S
H1168 C1178 0.930 . S
H1169 C1179 0.959 . S
C1170 H1164 0.930 . S
C1170 C1171 1.355 . S
C1170 C1172 1.415 . S
C1171 C1170 1.355 . S
C1171 C1173 1.419 . S
C1172 C1170 1.415 . S
C1172 C1177 1.425 1_655 S
C1172 C1179 1.406 . S
C1173 H1165 0.930 . S
C1173 C1171 1.419 . S
C1173 C1174 1.362 1_655 S
C1174 H1166 0.930 . S
C1174 C1173 1.362 1_455 S
C1174 C1177 1.409 . S
C1175 H1167 0.930 . S
C1175 C1176 1.355 . S
C1175 C1177 1.415 . S
C1176 C1175 1.355 . S
C1176 C1178 1.419 . S
C1177 C1172 1.425 1_455 S
C1177 C1174 1.409 . S
C1177 C1175 1.415 . S
C1178 H1168 0.930 . S
C1178 C1176 1.419 . S
C1178 C1179 1.338 1_455 S
C1179 H1169 0.959 . S
C1179 C1172 1.406 . S
C1179 C1178 1.338 1_655 S
H1180 C1186 0.930 . S
H1181 C1189 0.930 . S
H1182 C1190 0.930 . S
H1183 C1191 0.930 . S
H1184 C1194 0.930 . S
H1185 C1195 0.930 . S
C1186 H1180 0.930 . S
C1186 C1187 1.355 . S
C1186 C1188 1.415 . S
C1187 C1186 1.355 . S
C1187 C1189 1.419 . S
C1188 C1186 1.415 . S
C1188 C1193 1.425 . S
C1188 C1195 1.409 . S
C1189 H1181 0.930 . S
C1189 C1187 1.419 . S
C1189 C1190 1.362 . S
C1190 H1182 0.930 . S
C1190 C1189 1.362 . S
C1190 C1193 1.409 . S
C1191 H1183 0.930 . S
C1191 C1192 1.355 . S
C1191 C1193 1.415 . S
C1192 C1191 1.355 . S
C1192 C1194 1.419 . S
C1193 C1188 1.425 . S
C1193 C1190 1.409 . S
C1193 C1191 1.415 . S
C1194 H1184 0.930 . S
C1194 C1192 1.419 . S
C1194 C1195 1.362 . S
C1195 H1185 0.930 . S
C1195 C1188 1.409 . S
C1195 C1194 1.362 . S
H1196 C1202 0.930 . S
H1197 C1205 0.930 . S
H1198 C1206 0.930 . S
H1199 C1207 0.930 . S
H1200 C1210 0.930 . S
H1201 C1211 0.930 . S
C1202 H1196 0.930 . S
C1202 C1203 1.355 . S
C1202 C1204 1.415 . S
C1203 C1202 1.355 . S
C1203 C1205 1.419 . S
C1204 C1202 1.415 . S
C1204 C1209 1.425 1_565 S
C1204 C1211 1.409 . S
C1205 H1197 0.930 . S
C1205 C1203 1.419 . S
C1205 C1206 1.362 1_565 S
C1206 H1198 0.930 . S
C1206 C1205 1.362 1_545 S
C1206 C1209 1.409 . S
C1207 H1199 0.930 . S
C1207 C1208 1.355 . S
C1207 C1209 1.415 . S
C1208 C1207 1.355 . S
C1208 C1210 1.419 . S
C1209 C1204 1.425 1_545 S
C1209 C1206 1.409 . S
C1209 C1207 1.415 . S
C1210 H1200 0.930 . S
C1210 C1208 1.419 . S
C1210 C1211 1.362 1_545 S
C1211 H1201 0.930 . S
C1211 C1204 1.409 . S
C1211 C1210 1.362 1_565 S
H1212 C1218 0.930 . S
H1213 C1221 0.930 . S
H1214 C1222 0.930 . S
H1215 C1223 0.930 . S
H1216 C1226 0.930 . S
H1217 C1227 0.930 . S
C1218 H1212 0.930 . S
C1218 C1219 1.355 . S
C1218 C1220 1.415 1_565 S
C1219 C1218 1.355 . S
C1219 C1221 1.419 . S
C1220 C1218 1.415 1_545 S
C1220 C1225 1.426 . S
C1220 C1227 1.409 . S
C1221 H1213 0.930 . S
C1221 C1219 1.419 . S
C1221 C1222 1.362 . S
C1222 H1214 0.930 . S
C1222 C1221 1.362 . S
C1222 C1225 1.406 1_565 S
C1223 H1215 0.930 . S
C1223 C1224 1.355 . S
C1223 C1225 1.417 . S
C1224 C1223 1.355 . S
C1224 C1226 1.419 . S
C1225 C1220 1.426 . S
C1225 C1222 1.406 1_545 S
C1225 C1223 1.417 . S
C1226 H1216 0.930 . S
C1226 C1224 1.419 . S
C1226 C1227 1.362 . S
C1227 H1217 0.930 . S
C1227 C1220 1.409 . S
C1227 C1226 1.362 . S
H1228 C1234 0.930 . S
H1229 C1237 0.930 . S
H1230 C1238 0.930 . S
H1231 C1239 0.930 . S
H1232 C1242 0.930 . S
H1233 C1243 0.930 . S
C1234 H1228 0.930 . S
C1234 C1235 1.355 . S
C1234 C1236 1.415 . S
C1235 C1234 1.355 . S
C1235 C1237 1.419 . S
C1236 C1234 1.415 . S
C1236 C1241 1.425 1_455 S
C1236 C1243 1.409 . S
C1237 H1229 0.930 . S
C1237 C1235 1.419 . S
C1237 C1238 1.362 1_455 S
C1238 H1230 0.930 . S
C1238 C1237 1.362 1_655 S
C1238 C1241 1.409 . S
C1239 H1231 0.930 . S
C1239 C1240 1.355 . S
C1239 C1241 1.415 . S
C1240 C1239 1.355 . S
C1240 C1242 1.419 . S
C1241 C1236 1.425 1_655 S
C1241 C1238 1.409 . S
C1241 C1239 1.415 . S
C1242 H1232 0.930 . S
C1242 C1240 1.419 . S
C1242 C1243 1.362 1_655 S
C1243 H1233 0.930 . S
C1243 C1236 1.409 . S
C1243 C1242 1.362 1_455 S
H1244 C1250 0.930 . S
H1245 C1253 0.930 . S
H1246 C1254 0.930 . S
H1247 C1255 0.930 . S
H1248 C1258 0.930 . S
H1249 C1259 0.930 . S
C1250 H1244 0.930 . S
C1250 C1251 1.355 . S
C1250 C1252 1.415 . S
C1251 C1250 1.355 . S
C1251 C1253 1.419 . S
C1252 C1250 1.415 . S
C1252 C1257 1.425 . S
C1252 C1259 1.409 . S
C1253 H1245 0.930 . S
C1253 C1251 1.419 . S
C1253 C1254 1.362 . S
C1254 H1246 0.930 . S
C1254 C1253 1.362 . S
C1254 C1257 1.409 . S
C1255 H1247 0.930 . S
C1255 C1256 1.355 . S
C1255 C1257 1.415 . S
C1256 C1255 1.355 . S
C1256 C1258 1.419 . S
C1257 C1252 1.425 . S
C1257 C1254 1.409 . S
C1257 C1255 1.415 . S
C1258 H1248 0.930 . S
C1258 C1256 1.419 . S
C1258 C1259 1.362 . S
C1259 H1249 0.930 . S
C1259 C1252 1.409 . S
C1259 C1258 1.362 . S
C403 C4 1.354 . S
C408 C94 1.339 . S
C419 C114 1.326 . S
C424 C28 1.357 . S
C435 C48 1.350 . S
C440 C70 1.341 . S
C451 C51 1.345 . S
C456 C96 1.350 . S
C467 C117 1.360 . S
C472 C7 1.342 . S
C483 C30 1.363 . S
C488 C73 1.319 . S
C499 C31 1.316 . S
C504 C74 1.364 . S
C515 C52 1.357 . S
C520 C97 1.344 . S
C531 C118 1.365 . S
C536 C8 1.315 . S
C547 C115 1.341 . S
C552 C26 1.358 . S
C563 C49 1.362 . S
C568 C71 1.341 . S
C579 C5 1.350 . S
C584 C92 1.345 . S
C595 C226 1.330 . S
C600 C136 1.358 . S
C611 C158 1.364 . S
C616 C248 1.318 . S
C627 C180 1.364 . S
C632 C204 1.317 . S
C643 C228 1.317 . S
C648 C183 1.362 . S
C659 C250 1.363 . S
C664 C139 1.340 . S
C675 C206 1.318 . S
C680 C161 1.362 . S
C691 C162 1.363 . S
C696 C207 1.340 . S
C707 C184 1.363 . S
C712 C229 1.340 . S
C723 C140 1.314 . S
C728 C251 1.364 . S
C739 C159 1.360 . S
C744 C246 1.342 . S
C755 C181 1.355 . S
C760 C202 1.343 . S
C771 C224 1.361 . S
C776 C137 1.319 . S
C787 C268 1.362 . S
C792 C358 1.318 . S
C803 C292 1.347 . S
C808 C380 1.347 . S
C819 C334 1.343 . S
C824 C312 1.351 . S
C835 C360 1.344 . S
C840 C315 1.351 . S
C851 C271 1.361 . S
C856 C382 1.323 . S
C867 C294 1.364 . S
C872 C337 1.317 . S
C883 C295 1.320 . S
C888 C338 1.362 . S
C899 C316 1.349 . S
C904 C361 1.348 . S
C915 C272 1.352 . S
C920 C383 1.344 . S
C931 C378 1.360 . S
C936 C290 1.326 . S
C947 C335 1.361 . S
C952 C313 1.319 . S
C963 C269 1.314 . S
C968 C356 1.364 . S
C979 C6 1.840 . S
C984 C293 1.863 . S
C995 C27 1.852 . S
C1000 C317 1.857 . S
C1011 C50 1.838 . S
C1016 C273 1.864 . S
C1027 C53 1.807 . S
C1032 C160 1.799 . S
C1043 C9 1.801 . S
C1048 C182 1.857 . S
C1059 C29 1.791 . S
C1064 C138 1.826 . S
C1075 C225 1.860 . S
C1080 C75 1.847 . S
C1091 C95 1.863 . S
C1096 C247 1.842 . S
C1107 C119 1.849 . S
C1112 C203 1.795 . S
C1123 C359 1.801 . S
C1128 C116 1.804 . S
C1139 C72 1.816 . S
C1144 C381 1.865 . S
C1155 C93 1.831 . S
C1160 C339 1.790 . S
C1171 C185 1.842 . S
C1176 C291 1.863 . S
C1187 C141 1.791 . S
C1192 C314 1.835 . S
C1203 C270 1.844 . S
C1208 C163 1.862 . S
C1219 C357 1.817 . S
C1224 C205 1.793 . S
C1235 C379 1.841 . S
C1240 C227 1.863 . S
C1251 C249 1.831 . S
C1256 C336 1.790 . S
