# Generated by pormake.
# Topology mmt, (4)-cn, num edge types: 1
# Building blocks:
#     Node 0, Type 0, BuildingBlock: ICAMEG_clean_sbu_1, # of connection points: 4
#     Node 1, Type 0, BuildingBlock: ICAMEG_clean_sbu_1, # of connection points: 4
#     Node 2, Type 0, BuildingBlock: ICAMEG_clean_sbu_1, # of connection points: 4
#     Node 3, Type 0, BuildingBlock: ICAMEG_clean_sbu_1, # of connection points: 4
#     Node 4, Type 0, BuildingBlock: ICAMEG_clean_sbu_1, # of connection points: 4
#     Node 5, Type 0, BuildingBlock: ICAMEG_clean_sbu_1, # of connection points: 4
#     Node 6, Type 0, BuildingBlock: ICAMEG_clean_sbu_1, # of connection points: 4
#     Node 7, Type 0, BuildingBlock: ICAMEG_clean_sbu_1, # of connection points: 4
#     Edge 8, Type (0, 0), BuildingBlock: KIFKEQ_clean_linker_1, # of connection points: 2
#     Edge 9, Type (0, 0), BuildingBlock: KIFKEQ_clean_linker_1, # of connection points: 2
#     Edge 10, Type (0, 0), BuildingBlock: KIFKEQ_clean_linker_1, # of connection points: 2
#     Edge 11, Type (0, 0), BuildingBlock: KIFKEQ_clean_linker_1, # of connection points: 2
#     Edge 12, Type (0, 0), BuildingBlock: KIFKEQ_clean_linker_1, # of connection points: 2
#     Edge 13, Type (0, 0), BuildingBlock: KIFKEQ_clean_linker_1, # of connection points: 2
#     Edge 14, Type (0, 0), BuildingBlock: KIFKEQ_clean_linker_1, # of connection points: 2
#     Edge 15, Type (0, 0), BuildingBlock: KIFKEQ_clean_linker_1, # of connection points: 2
#     Edge 16, Type (0, 0), BuildingBlock: KIFKEQ_clean_linker_1, # of connection points: 2
#     Edge 17, Type (0, 0), BuildingBlock: KIFKEQ_clean_linker_1, # of connection points: 2
#     Edge 18, Type (0, 0), BuildingBlock: KIFKEQ_clean_linker_1, # of connection points: 2
#     Edge 19, Type (0, 0), BuildingBlock: KIFKEQ_clean_linker_1, # of connection points: 2
#     Edge 20, Type (0, 0), BuildingBlock: KIFKEQ_clean_linker_1, # of connection points: 2
#     Edge 21, Type (0, 0), BuildingBlock: KIFKEQ_clean_linker_1, # of connection points: 2
#     Edge 22, Type (0, 0), BuildingBlock: KIFKEQ_clean_linker_1, # of connection points: 2
#     Edge 23, Type (0, 0), BuildingBlock: KIFKEQ_clean_linker_1, # of connection points: 2
# Relax obj value: 0.087
# Max RMSD: 0.129
# Mean RMSD: 0.129
data_MOF--net-mmt--node1-ICAMEG_clean_sbu_1--edge1-KIFKEQ_clean_linker_1
_symmetry_space_group_name_H-M    P1
_symmetry_Int_Tables_number       1
_symmetry_cell_setting            triclinic
loop_
_symmetry_equiv_pos_as_xyz
'x, y, z'
_cell_length_a     24.185585
_cell_length_b     42.59881
_cell_length_c     43.132182
_cell_angle_alpha  89.990061
_cell_angle_beta   89.979291
_cell_angle_gamma 90.237065
loop_
_atom_site_label
_atom_site_type_symbol
_atom_site_fract_x
_atom_site_fract_y
_atom_site_fract_z
_atom_type_partial_charge
Co0 Co 0.19298 0.54261 0.35542 0.0
Co1 Co 0.12275 0.61258 0.35808 0.0
O2 O 0.19068 0.58845 0.35156 0.0
C3 C 0.25832 0.55622 0.29725 0.0
O4 O 0.22893 0.58136 0.2915 0.0
C5 C 0.15912 0.66356 0.40092 0.0
O6 O 0.11817 0.65558 0.41937 0.0
O7 O 0.11216 0.59298 0.39985 0.0
O8 O 0.13921 0.54362 0.3904 0.0
H9 H 0.92492 0.62745 0.3904 0.0
H10 H 0.2963 0.58018 0.35672 0.0
O11 O 0.24803 0.53927 0.32087 0.0
H12 H 0.29469 0.52141 0.4552 0.0
H13 H 0.2853 0.43678 0.3577 0.0
H14 H 0.10798 0.49309 0.36451 0.0
H15 H 0.21908 0.51495 0.41742 0.0
H16 H 0.28259 0.49449 0.35379 0.0
O17 O 0.16863 0.64749 0.37652 0.0
H18 H 1.0107 0.59763 0.38181 0.0
H19 H 0.09071 0.67966 0.34782 0.0
H20 H 0.1089 0.43538 0.36883 0.0
H21 H 0.37317 0.5871 0.39366 0.0
H22 H 0.19804 0.40683 0.36541 0.0
H23 H 0.37264 0.55763 0.44335 0.0
O24 O 0.13066 0.5382 0.32532 0.0
H25 H 0.23041 0.66743 0.27412 0.0
H26 H 0.05018 0.62129 0.30267 0.0
H27 H 0.06261 0.64431 0.25073 0.0
H28 H 0.15316 0.66778 0.2362 0.0
H29 H 0.2166 0.64352 0.3256 0.0
H30 H 1.00574 0.71036 0.35603 0.0
H31 H 0.92206 0.68425 0.37749 0.0
O32 O 0.0765 0.57846 0.33933 0.0
C33 C 0.11488 0.56395 0.40715 0.0
C34 C 0.96113 0.6391 0.38107 0.0
C35 C 1.00648 0.68563 0.36177 0.0
N36 N 0.05578 0.63687 0.36444 0.0
C37 C 1.00986 0.62234 0.37618 0.0
C38 C 0.05448 0.66812 0.35718 0.0
C39 C 0.95955 0.67096 0.37381 0.0
C40 C 0.2959 0.56714 0.37821 0.0
N41 N 0.25322 0.54713 0.38486 0.0
C42 C 0.33949 0.57122 0.39908 0.0
C43 C 0.33913 0.5547 0.42696 0.0
C44 C 0.29539 0.5344 0.43364 0.0
C45 C 0.25252 0.53093 0.41221 0.0
C46 C 0.24621 0.44896 0.35925 0.0
C47 C 0.14698 0.48087 0.36315 0.0
C48 C 0.24438 0.48164 0.35696 0.0
N49 N 0.19518 0.4972 0.35905 0.0
C50 C 0.14722 0.44817 0.36555 0.0
C51 C 0.19724 0.43217 0.36359 0.0
C52 C 0.08441 0.5526 0.32506 0.0
C53 C 0.19071 0.65736 0.28021 0.0
C54 C 0.08993 0.63108 0.29645 0.0
C55 C 0.09662 0.64428 0.26703 0.0
C56 C 0.14739 0.65749 0.25892 0.0
N57 N 0.1326 0.63106 0.31724 0.0
C58 C 0.18252 0.64396 0.30941 0.0
Co59 Co 0.33054 0.98988 0.35608 0.0
Co60 Co 0.40472 0.92196 0.36153 0.0
O61 O 0.33451 0.94377 0.35371 0.0
C62 C 0.26104 0.97359 0.29999 0.0
O63 O 0.28981 0.94814 0.29458 0.0
C64 C 0.32045 0.88234 0.39553 0.0
O65 O 0.29239 0.90742 0.40335 0.0
O66 O 0.41012 0.94215 0.40318 0.0
O67 O 0.38736 0.99114 0.38971 0.0
H68 H 0.60226 0.91528 0.39695 0.0
H69 H 0.22688 0.95281 0.36081 0.0
O70 O 0.27285 0.99133 0.32281 0.0
H71 H 0.23845 1.01277 0.45838 0.0
H72 H 0.23386 0.09443 0.35751 0.0
H73 H 0.41414 0.04088 0.36017 0.0
H74 H 0.31082 0.01828 0.41846 0.0
H75 H 0.2388 0.03667 0.35572 0.0
O76 O 0.36484 0.88491 0.37985 0.0
H77 H 0.51397 0.94179 0.38605 0.0
H78 H 0.44398 0.85587 0.35464 0.0
H79 H 0.41104 0.09867 0.36225 0.0
H80 H 0.15317 0.94695 0.39992 0.0
H81 H 0.3204 0.12584 0.36092 0.0
H82 H 0.15878 0.97699 0.44918 0.0
O83 O 0.39005 0.99368 0.32429 0.0
H84 H 0.30748 0.86342 0.27621 0.0
H85 H 0.48211 0.91404 0.30803 0.0
H86 H 0.47516 0.88999 0.25622 0.0
H87 H 0.38741 0.86431 0.24003 0.0
H88 H 0.31595 0.88825 0.32763 0.0
H89 H 0.53139 0.8284 0.36544 0.0
H90 H 0.6114 0.85817 0.38665 0.0
O91 O 0.44813 0.95745 0.3428 0.0
C92 C 0.40921 0.97164 0.40841 0.0
C93 C 0.56772 0.90206 0.38767 0.0
C94 C 0.52793 0.8533 0.37002 0.0
N95 N 0.47385 0.90045 0.36963 0.0
C96 C 0.51762 0.91695 0.38141 0.0
C97 C 0.47846 0.86898 0.36404 0.0
C98 C 0.57281 0.87002 0.38191 0.0
C99 C 0.22931 0.96623 0.38202 0.0
N100 N 0.27299 0.98595 0.38725 0.0
C101 C 0.18758 0.96269 0.40416 0.0
C102 C 0.19081 0.97951 0.43182 0.0
C103 C 0.23553 0.99956 0.437 0.0
C104 C 0.2765 1.00249 0.41435 0.0
C105 C 0.2736 0.08286 0.35816 0.0
C106 C 0.37451 0.05249 0.35973 0.0
C107 C 0.27669 0.05015 0.35709 0.0
N108 N 0.32672 0.03536 0.35804 0.0
C109 C 0.37303 0.08524 0.36085 0.0
C110 C 0.32217 0.10047 0.36008 0.0
C111 C 0.43792 0.98127 0.32582 0.0
C112 C 0.34597 0.87449 0.283 0.0
C113 C 0.4436 0.90324 0.30107 0.0
C114 C 0.44 0.88949 0.27174 0.0
C115 C 0.39079 0.87505 0.2627 0.0
N116 N 0.39943 0.90262 0.32086 0.0
C117 C 0.35108 0.88848 0.31215 0.0
Co118 Co 0.69285 0.49053 0.14095 0.0
Co119 Co 0.61844 0.42135 0.13669 0.0
O120 O 0.68809 0.44439 0.14434 0.0
C121 C 0.75885 0.47565 0.19882 0.0
O122 O 0.7315 0.44942 0.2035 0.0
C123 C 0.70829 0.38038 0.10886 0.0
O124 O 0.74478 0.40312 0.11102 0.0
O125 O 0.61049 0.44167 0.09523 0.0
O126 O 0.63931 0.49057 0.10575 0.0
H127 H 0.41963 0.41232 0.10385 0.0
H128 H 0.79706 0.45402 0.14066 0.0
O129 O 0.74738 0.49322 0.17586 0.0
H130 H 0.79544 0.51092 0.04115 0.0
H131 H 0.79036 0.59531 0.13943 0.0
H132 H 0.61031 0.54106 0.13226 0.0
H133 H 0.71923 0.51719 0.07852 0.0
H134 H 0.7848 0.53763 0.14296 0.0
O135 O 0.6583 0.38482 0.11709 0.0
H136 H 0.50746 0.43996 0.11412 0.0
H137 H 0.58168 0.35449 0.14269 0.0
H138 H 0.61409 0.59877 0.12835 0.0
H139 H 0.87471 0.44749 0.10425 0.0
H140 H 0.7046 0.62629 0.13195 0.0
H141 H 0.87411 0.47595 0.05398 0.0
O142 O 0.63058 0.49541 0.17092 0.0
H143 H 0.71929 0.36453 0.22188 0.0
H144 H 0.54216 0.41143 0.19017 0.0
H145 H 0.55019 0.38715 0.24179 0.0
H146 H 0.63918 0.36327 0.25791 0.0
H147 H 0.70979 0.38962 0.17079 0.0
H148 H 0.49475 0.32591 0.13248 0.0
H149 H 0.41286 0.35486 0.11303 0.0
O150 O 0.57493 0.45601 0.15604 0.0
C151 C 0.61432 0.47079 0.08854 0.0
C152 C 0.45499 0.39944 0.11237 0.0
C153 C 0.49718 0.35095 0.1284 0.0
N154 N 0.54967 0.39892 0.12909 0.0
C155 C 0.50484 0.41498 0.11829 0.0
C156 C 0.54636 0.36726 0.13405 0.0
C157 C 0.45124 0.36721 0.1175 0.0
C158 C 0.79666 0.46669 0.11898 0.0
N159 N 0.75338 0.48583 0.1117 0.0
C160 C 0.84068 0.46281 0.09838 0.0
C161 C 0.84027 0.47873 0.07017 0.0
C162 C 0.7961 0.4983 0.06293 0.0
C163 C 0.7528 0.50159 0.0841 0.0
C164 C 0.75067 0.5836 0.1378 0.0
C165 C 0.6499 0.55283 0.13372 0.0
C166 C 0.74723 0.55093 0.13987 0.0
N167 N 0.69728 0.53594 0.1377 0.0
C168 C 0.65176 0.58553 0.13154 0.0
C169 C 0.70255 0.60096 0.13359 0.0
C170 C 0.58374 0.48149 0.17079 0.0
C171 C 0.6802 0.37469 0.21507 0.0
C172 C 0.58117 0.40134 0.19704 0.0
C173 C 0.58539 0.38749 0.22628 0.0
C174 C 0.63529 0.37406 0.2353 0.0
N175 N 0.62533 0.40176 0.17722 0.0
C176 C 0.67443 0.38875 0.18599 0.0
Co177 Co 0.83043 0.04276 0.14166 0.0
Co178 Co 0.90733 0.11117 0.13786 0.0
O179 O 0.83679 0.08884 0.14513 0.0
C180 C 0.7608 0.05929 0.19796 0.0
O181 O 0.78348 0.08718 0.20037 0.0
C182 C 0.81962 0.15268 0.10888 0.0
O183 O 0.78318 0.12983 0.10965 0.0
O184 O 0.91522 0.0909 0.09642 0.0
O185 O 0.88414 0.04232 0.10647 0.0
H186 H 0.1069 0.11827 0.10595 0.0
H187 H 0.72751 0.08071 0.14088 0.0
O188 O 0.77584 0.0404 0.1767 0.0
H189 H 0.72794 0.02316 0.04177 0.0
H190 H 0.7297 0.93895 0.14008 0.0
H191 H 0.91136 0.99142 0.13272 0.0
H192 H 0.80361 1.01625 0.07933 0.0
H193 H 0.73706 0.99657 0.14375 0.0
O194 O 0.86892 0.14816 0.11824 0.0
H195 H 0.01804 0.0915 0.1157 0.0
H196 H 0.94613 0.1776 0.1443 0.0
H197 H 0.90577 0.93377 0.12866 0.0
H198 H 0.65042 0.08784 0.10431 0.0
H199 H 0.81444 0.90715 0.13236 0.0
H200 H 0.6504 0.05908 0.05422 0.0
O201 O 0.89233 0.0371 0.1717 0.0
H202 H 0.80742 0.16956 0.22233 0.0
H203 H 0.98277 0.11967 0.19195 0.0
H204 H 0.97463 0.14394 0.24356 0.0
H205 H 0.88653 0.16929 0.25902 0.0
H206 H 0.81698 0.14446 0.17123 0.0
H207 H 0.03413 0.20532 0.13464 0.0
H208 H 0.11537 0.17561 0.11543 0.0
O209 O 0.94944 0.07598 0.15726 0.0
C210 C 0.91027 0.06188 0.08953 0.0
C211 C 0.07182 0.13147 0.11438 0.0
C212 C 0.03096 0.18033 0.13043 0.0
N213 N 0.97691 0.1329 0.13065 0.0
C214 C 0.02139 0.11643 0.11998 0.0
C215 C 0.98117 0.1645 0.13577 0.0
C216 C 0.07654 0.16364 0.11967 0.0
C217 C 0.7276 0.06781 0.11935 0.0
N218 N 0.77022 0.04811 0.11231 0.0
C219 C 0.68391 0.07209 0.09862 0.0
C220 C 0.68398 0.05599 0.07051 0.0
C221 C 0.72751 0.03589 0.06348 0.0
C222 C 0.7705 0.03223 0.08477 0.0
C223 C 0.76973 0.95028 0.1384 0.0
C224 C 0.87141 0.98005 0.1342 0.0
C225 C 0.77419 0.98291 0.14054 0.0
N226 N 0.82458 0.9974 0.1383 0.0
C227 C 0.86853 0.94738 0.13195 0.0
C228 C 0.81729 0.93245 0.13405 0.0
C229 C 0.93959 0.05051 0.17182 0.0
C230 C 0.8461 0.1587 0.21583 0.0
C231 C 0.94411 0.13037 0.19855 0.0
C232 C 0.93985 0.14422 0.22779 0.0
C233 C 0.89045 0.15848 0.23643 0.0
N234 N 0.90046 0.13071 0.1784 0.0
C235 C 0.8519 0.14461 0.18677 0.0
Co236 Co 0.82745 0.48807 0.64178 0.0
Co237 Co 0.90554 0.42179 0.6375 0.0
O238 O 0.83427 0.44232 0.64432 0.0
C239 C 0.76747 0.47545 0.70122 0.0
O240 O 0.81162 0.46171 0.7125 0.0
C241 C 0.82462 0.38112 0.60253 0.0
O242 O 0.79767 0.40609 0.59325 0.0
O243 O 0.9113 0.44195 0.5958 0.0
O244 O 0.88563 0.49069 0.60886 0.0
H245 H 0.10457 0.41784 0.60425 0.0
H246 H 0.7265 0.44875 0.63574 0.0
O247 O 0.76797 0.48689 0.67399 0.0
H248 H 0.73814 0.50913 0.53839 0.0
H249 H 0.72236 0.5899 0.64041 0.0
H250 H 0.90692 0.5412 0.63815 0.0
H251 H 0.80838 0.51613 0.57923 0.0
H252 H 0.73205 0.53233 0.64215 0.0
O253 O 0.86774 0.384 0.61923 0.0
H254 H 0.01468 0.4431 0.61398 0.0
H255 H 0.94751 0.35639 0.64524 0.0
H256 H 0.89909 0.59884 0.63614 0.0
H257 H 0.65491 0.44138 0.59566 0.0
H258 H 0.80627 0.62357 0.63725 0.0
H259 H 0.66059 0.47161 0.54651 0.0
O260 O 0.88588 0.49336 0.67413 0.0
H261 H 0.80633 0.36518 0.72338 0.0
H262 H 0.98195 0.41476 0.69152 0.0
H263 H 0.97374 0.39192 0.74383 0.0
H264 H 0.88546 0.36681 0.76005 0.0
H265 H 0.81619 0.3886 0.67136 0.0
H266 H 0.03655 0.33016 0.6356 0.0
H267 H 0.11594 0.36096 0.61508 0.0
O268 O 0.94647 0.45808 0.65634 0.0
C269 C 0.90918 0.47145 0.5905 0.0
C270 C 0.07031 0.40418 0.61324 0.0
C271 C 0.03212 0.35496 0.6308 0.0
N272 N 0.97591 0.40129 0.63027 0.0
C273 C 0.01931 0.41836 0.61884 0.0
C274 C 0.98173 0.36993 0.63612 0.0
C275 C 0.07665 0.37226 0.6193 0.0
C276 C 0.72896 0.46223 0.61454 0.0
N277 N 0.77154 0.48288 0.60988 0.0
C278 C 0.68843 0.45785 0.59188 0.0
C279 C 0.69169 0.47478 0.56429 0.0
C280 C 0.73522 0.49581 0.5597 0.0
C281 C 0.77501 0.49957 0.58287 0.0
C282 C 0.76303 0.5794 0.63983 0.0
C283 C 0.86637 0.55175 0.63846 0.0
C284 C 0.76879 0.54681 0.64087 0.0
N285 N 0.82001 0.53338 0.63998 0.0
C286 C 0.8622 0.58442 0.6374 0.0
C287 C 0.81012 0.59828 0.63806 0.0
C288 C 0.93451 0.48182 0.67307 0.0
C289 C 0.84506 0.37597 0.71656 0.0
C290 C 0.94334 0.404 0.69842 0.0
C291 C 0.93898 0.39102 0.72806 0.0
C292 C 0.88945 0.37693 0.73713 0.0
N293 N 0.89967 0.40288 0.67832 0.0
C294 C 0.85095 0.38917 0.68709 0.0
Co295 Co 0.69865 0.042 0.64176 0.0
Co296 Co 0.6259 0.1107 0.64101 0.0
O297 O 0.69473 0.08751 0.64593 0.0
C298 C 0.75756 0.05248 0.70175 0.0
O299 O 0.71433 0.06755 0.7125 0.0
C300 C 0.65995 0.16289 0.59878 0.0
O301 O 0.61883 0.15503 0.58042 0.0
O302 O 0.61446 0.09164 0.59906 0.0
O303 O 0.64204 0.0422 0.60813 0.0
H304 H 0.42635 0.12412 0.6116 0.0
H305 H 0.80012 0.08111 0.63791 0.0
O306 O 0.75679 0.04073 0.67466 0.0
H307 H 0.79326 0.0223 0.53952 0.0
H308 H 0.79686 0.93801 0.6382 0.0
H309 H 0.61606 0.99094 0.63415 0.0
H310 H 0.72104 1.01476 0.57918 0.0
H311 H 0.79096 0.99565 0.64217 0.0
O312 O 0.67002 0.14649 0.62289 0.0
H313 H 0.51338 0.09501 0.61851 0.0
H314 H 0.59228 0.17717 0.6529 0.0
H315 H 0.62014 0.93328 0.62984 0.0
H316 H 0.87362 0.08913 0.59903 0.0
H317 H 0.71104 0.90643 0.63185 0.0
H318 H 0.87043 0.05964 0.54938 0.0
O319 O 0.63855 0.0365 0.67322 0.0
H320 H 0.7372 0.16149 0.72583 0.0
H321 H 0.55471 0.11845 0.69713 0.0
H322 H 0.5692 0.13937 0.74979 0.0
H323 H 0.66094 0.1612 0.76441 0.0
H324 H 0.72113 0.13998 0.67353 0.0
H325 H 0.50608 0.20718 0.64636 0.0
H326 H 0.42231 0.18063 0.62556 0.0
O327 O 0.58166 0.07567 0.65968 0.0
C328 C 0.61691 0.06256 0.59173 0.0
C329 C 0.46258 0.13596 0.62066 0.0
C330 C 0.50732 0.18257 0.64017 0.0
N331 N 0.55793 0.13437 0.63601 0.0
C332 C 0.512 0.1196 0.6246 0.0
C333 C 0.55601 0.16546 0.64381 0.0
C334 C 0.46034 0.16766 0.6285 0.0
C335 C 0.79853 0.06809 0.61641 0.0
N336 N 0.75625 0.04748 0.61083 0.0
C337 C 0.84023 0.07278 0.59446 0.0
C338 C 0.83839 0.05625 0.5666 0.0
C339 C 0.79509 0.03532 0.56104 0.0
C340 C 0.75413 0.03124 0.58353 0.0
C341 C 0.75701 0.94944 0.63725 0.0
C342 C 0.6558 0.97946 0.63489 0.0
C343 C 0.75339 0.98207 0.63957 0.0
N344 N 0.70322 0.99668 0.63819 0.0
C345 C 0.65784 0.94679 0.63251 0.0
C346 C 0.70885 0.93174 0.63367 0.0
C347 C 0.59148 0.05004 0.67399 0.0
C348 C 0.69697 0.15216 0.7197 0.0
C349 C 0.59483 0.12778 0.70332 0.0
C350 C 0.60273 0.13968 0.73317 0.0
C351 C 0.6542 0.15194 0.74135 0.0
N352 N 0.63691 0.1282 0.68214 0.0
C353 C 0.68754 0.14008 0.69006 0.0
Co354 Co 0.33213 0.54685 0.85271 0.0
Co355 Co 0.41359 0.61237 0.85674 0.0
O356 O 0.34118 0.59258 0.84901 0.0
C357 C 0.25515 0.56537 0.7997 0.0
O358 O 0.2731 0.59447 0.79913 0.0
C359 C 0.33504 0.65501 0.89037 0.0
O360 O 0.30856 0.63053 0.90152 0.0
O361 O 0.41534 0.59378 0.89921 0.0
O362 O 0.38808 0.54512 0.88684 0.0
H363 H 0.61017 0.61484 0.89448 0.0
H364 H 0.23382 0.58854 0.85736 0.0
O365 O 0.2752 0.54559 0.81875 0.0
H366 H 0.23623 0.52808 0.95475 0.0
H367 H 0.22535 0.44505 0.85617 0.0
H368 H 0.41052 0.49382 0.85892 0.0
H369 H 0.30783 0.51967 0.91499 0.0
H370 H 0.23595 0.50254 0.85282 0.0
O371 O 0.37688 0.65127 0.87288 0.0
H372 H 0.51958 0.5905 0.88365 0.0
H373 H 0.46016 0.67675 0.84746 0.0
H374 H 0.40174 0.43628 0.86264 0.0
H375 H 0.16105 0.59735 0.89625 0.0
H376 H 0.30862 0.41151 0.86126 0.0
H377 H 0.16195 0.56705 0.94545 0.0
O378 O 0.39175 0.54057 0.82143 0.0
H379 H 0.32648 0.66985 0.76763 0.0
H380 H 0.49352 0.61498 0.80391 0.0
H381 H 0.49114 0.63658 0.75091 0.0
H382 H 0.40723 0.66434 0.73247 0.0
H383 H 0.33039 0.64757 0.82036 0.0
H384 H 0.54999 0.70208 0.85815 0.0
H385 H 0.62585 0.67104 0.88171 0.0
O386 O 0.45373 0.57477 0.84022 0.0
C387 C 0.41166 0.56449 0.90514 0.0
C388 C 0.57748 0.6286 0.88415 0.0
C389 C 0.54368 0.67757 0.8638 0.0
N390 N 0.48464 0.63212 0.86481 0.0
C391 C 0.52609 0.61493 0.87791 0.0
C392 C 0.49283 0.66311 0.85788 0.0
C393 C 0.58624 0.66014 0.87701 0.0
C394 C 0.23409 0.57485 0.87838 0.0
N395 N 0.27461 0.55322 0.88354 0.0
C396 C 0.19294 0.58012 0.90048 0.0
C397 C 0.19355 0.56318 0.9281 0.0
C398 C 0.23522 0.54133 0.93334 0.0
C399 C 0.27571 0.5367 0.91073 0.0
C400 C 0.26614 0.45557 0.85687 0.0
C401 C 0.36983 0.48327 0.8585 0.0
C402 C 0.27244 0.48811 0.85492 0.0
N403 N 0.32382 0.50159 0.85593 0.0
C404 C 0.36513 0.45065 0.86053 0.0
C405 C 0.31288 0.43676 0.85973 0.0
C406 C 0.44111 0.55105 0.82355 0.0
C407 C 0.3633 0.65782 0.7754 0.0
C408 C 0.45665 0.62678 0.796 0.0
C409 C 0.45565 0.63909 0.76599 0.0
C410 C 0.40859 0.65469 0.75567 0.0
N411 N 0.41203 0.62993 0.81521 0.0
C412 C 0.36579 0.64522 0.80526 0.0
Co413 Co 0.1941 0.9855 0.85443 0.0
Co414 Co 0.11332 0.91973 0.85875 0.0
O415 O 0.18552 0.93972 0.85074 0.0
C416 C 0.26909 0.96772 0.80033 0.0
O417 O 0.24872 0.9392 0.79843 0.0
C418 C 0.19296 0.87718 0.89172 0.0
O419 O 0.22007 0.90167 0.90237 0.0
O420 O 0.11177 0.93831 0.90122 0.0
O421 O 0.13827 0.98704 0.88865 0.0
H422 H 0.9171 0.91682 0.89714 0.0
H423 H 0.29323 0.94463 0.85831 0.0
O424 O 0.25096 0.98699 0.82047 0.0
H425 H 0.29044 1.00396 0.95638 0.0
H426 H 0.29985 0.08763 0.85815 0.0
H427 H 0.11515 0.03826 0.86064 0.0
H428 H 0.21828 1.01231 0.91694 0.0
H429 H 0.28984 0.03012 0.85471 0.0
O430 O 0.15042 0.88091 0.87478 0.0
H431 H 1.0074 0.94136 0.88598 0.0
H432 H 0.06711 0.85523 0.84966 0.0
H433 H 0.12334 0.09582 0.86442 0.0
H434 H 0.3666 0.93588 0.8969 0.0
H435 H 0.21622 0.1209 0.86318 0.0
H436 H 0.36547 0.96561 0.94642 0.0
O437 O 0.13427 0.99156 0.82325 0.0
H438 H 0.19995 0.86236 0.7694 0.0
H439 H 0.03293 0.91694 0.80618 0.0
H440 H 0.03494 0.8953 0.7532 0.0
H441 H 0.11884 0.86768 0.73451 0.0
H442 H 0.19643 0.88471 0.8221 0.0
H443 H 0.97757 0.8297 0.86066 0.0
H444 H 0.90171 0.86058 0.88446 0.0
O445 O 0.07276 0.95722 0.84233 0.0
C446 C 0.11506 0.96763 0.90706 0.0
C447 C 0.9498 0.90313 0.88671 0.0
C448 C 0.98376 0.85423 0.86627 0.0
N449 N 0.04249 0.89982 0.86706 0.0
C450 C 1.00103 0.91692 0.88029 0.0
C451 C 0.03445 0.8688 0.86018 0.0
C452 C 0.9412 0.87157 0.87961 0.0
C453 C 0.29284 0.95802 0.87953 0.0
N454 N 0.25186 0.97926 0.88509 0.0
C455 C 0.33433 0.9528 0.90143 0.0
C456 C 0.3336 0.96944 0.92924 0.0
C457 C 0.29151 0.99094 0.93484 0.0
C458 C 0.25068 0.99551 0.91242 0.0
C459 C 0.25915 0.07699 0.85878 0.0
C460 C 0.15574 0.04895 0.86025 0.0
C461 C 0.2532 0.04442 0.85677 0.0
N462 N 0.20194 0.03078 0.8577 0.0
C463 C 0.1601 0.08158 0.86233 0.0
C464 C 0.21222 0.09563 0.86161 0.0
C465 C 0.08505 0.9809 0.82552 0.0
C466 C 0.16313 0.87432 0.77728 0.0
C467 C 0.0698 0.9052 0.79816 0.0
C468 C 0.07058 0.89287 0.76816 0.0
C469 C 0.11764 0.87734 0.75771 0.0
N470 N 0.11462 0.90216 0.81723 0.0
C471 C 0.16085 0.88694 0.80714 0.0
H472 H 0.31541 0.59268 0.25505 0.0
H473 H 0.30835 0.49942 0.29434 0.0
H474 H 0.39568 0.57701 0.22365 0.0
H475 H 0.38749 0.48409 0.26334 0.0
H476 H 0.48047 0.45642 0.17706 0.0
H477 H 0.40272 0.47674 0.20592 0.0
H478 H 0.49883 0.55799 0.23233 0.0
H479 H 0.57821 0.53751 0.20314 0.0
C480 C 0.33072 0.56889 0.25687 0.0
C481 C 0.30536 0.54728 0.2771 0.0
C482 C 0.37686 0.56004 0.23915 0.0
C483 C 0.39768 0.52931 0.24103 0.0
C484 C 0.37211 0.50784 0.26119 0.0
C485 C 0.32677 0.51671 0.27904 0.0
C486 C 0.48565 0.47861 0.18897 0.0
C487 C 0.53627 0.49504 0.18809 0.0
C488 C 0.44078 0.49025 0.20555 0.0
C489 C 0.44482 0.51879 0.22159 0.0
C490 C 0.49461 0.53592 0.22007 0.0
C491 C 0.54009 0.52408 0.20357 0.0
H492 H 0.94238 0.99454 0.2044 0.0
H493 H 0.04382 0.07418 0.17833 0.0
H494 H 0.02035 0.97323 0.23419 0.0
H495 H 0.12017 0.05304 0.20777 0.0
H496 H 0.21123 0.03045 0.29696 0.0
H497 H 0.13291 0.04605 0.26558 0.0
H498 H 0.12363 0.953 0.2263 0.0
H499 H 0.20316 0.937 0.25814 0.0
C500 C 0.98102 1.00747 0.20494 0.0
C501 C 0.98628 0.03637 0.18931 0.0
C502 C 0.02569 0.99514 0.22178 0.0
C503 C 0.07609 1.01166 0.22349 0.0
C504 C 0.0816 0.04002 0.20724 0.0
C505 C 0.03754 0.05213 0.19034 0.0
C506 C 0.1927 1.01314 0.28174 0.0
C507 C 0.2137 0.98245 0.28001 0.0
C508 C 0.14783 0.02218 0.26365 0.0
C509 C 0.1223 1.0008 0.24341 0.0
C510 C 0.14247 0.96991 0.24184 0.0
C511 C 0.18817 0.96086 0.25983 0.0
H512 H 0.81724 0.43953 0.24058 0.0
H513 H 0.80654 0.53329 0.20284 0.0
H514 H 0.89687 0.45604 0.27217 0.0
H515 H 0.88523 0.54941 0.23385 0.0
H516 H 0.9818 0.57801 0.31826 0.0
H517 H 0.90343 0.55733 0.28987 0.0
H518 H 0.99787 0.47548 0.26464 0.0
H519 H 0.07753 0.49619 0.29351 0.0
C520 C 0.83159 0.4636 0.23913 0.0
C521 C 0.80541 0.48508 0.21924 0.0
C522 C 0.8774 0.47296 0.25698 0.0
C523 C 0.89717 0.50405 0.25555 0.0
C524 C 0.87067 0.5254 0.23576 0.0
C525 C 0.8256 0.51606 0.21784 0.0
C526 C 0.98639 0.5556 0.30672 0.0
C527 C 0.0366 0.53903 0.3079 0.0
C528 C 0.94121 0.54376 0.29038 0.0
C529 C 0.94457 0.51492 0.27478 0.0
C530 C 0.99404 0.49774 0.27655 0.0
C531 C 0.03975 0.50974 0.29287 0.0
H532 H 0.71989 1.00037 0.20615 0.0
H533 H 0.69591 0.09633 0.23558 0.0
H534 H 0.64137 0.98391 0.23727 0.0
H535 H 0.61653 0.07952 0.26718 0.0
H536 H 0.43978 0.03458 0.2892 0.0
H537 H 0.51844 0.05557 0.25958 0.0
H538 H 0.62091 0.98042 0.29372 0.0
H539 H 0.54366 0.95955 0.32294 0.0
C540 C 0.69797 0.01801 0.21936 0.0
C541 C 0.71439 0.0497 0.21842 0.0
C542 C 0.65298 1.0085 0.23731 0.0
C543 C 0.62284 0.0304 0.25474 0.0
C544 C 0.63885 0.06217 0.25382 0.0
C545 C 0.68453 0.07172 0.23597 0.0
C546 C 0.47912 0.02258 0.29036 0.0
C547 C 0.48493 0.99508 0.30815 0.0
C548 C 0.52421 0.03474 0.27359 0.0
C549 C 0.57568 0.01946 0.27413 0.0
C550 C 0.58159 0.99245 0.29243 0.0
C551 C 0.53704 0.9805 0.30924 0.0
H552 H 0.43474 0.50689 0.77698 0.0
H553 H 0.55171 0.55841 0.83336 0.0
H554 H 0.5118 0.48283 0.74882 0.0
H555 H 0.62777 0.53456 0.80542 0.0
H556 H 0.7565 0.47041 0.76445 0.0
H557 H 0.67509 0.48354 0.79561 0.0
H558 H 0.58353 0.50351 0.71203 0.0
H559 H 0.66426 0.49039 0.68103 0.0
C560 C 0.47669 0.51289 0.78354 0.0
C561 C 0.48689 0.53481 0.80725 0.0
C562 C 0.52078 0.49917 0.76739 0.0
C563 C 0.57589 0.50674 0.77496 0.0
C564 C 0.58591 0.52788 0.79928 0.0
C565 C 0.54209 0.54181 0.81511 0.0
C566 C 0.71873 0.47713 0.75276 0.0
C567 C 0.71707 0.47968 0.72031 0.0
C568 C 0.67221 0.48478 0.77058 0.0
C569 C 0.62296 0.49471 0.75626 0.0
C570 C 0.6206 0.4957 0.72377 0.0
C571 C 0.66712 0.48842 0.70602 0.0
H572 H 0.76913 0.05992 0.76473 0.0
H573 H 0.8598 0.035 0.68204 0.0
H574 H 0.85072 0.04783 0.79617 0.0
H575 H 0.94067 0.02298 0.7133 0.0
H576 H 0.09064 0.02308 0.77719 0.0
H577 H 0.01303 0.0459 0.7485 0.0
H578 H 0.89813 0.99722 0.8084 0.0
H579 H 0.97478 0.97459 0.83685 0.0
C580 C 0.80654 0.05224 0.75325 0.0
C581 C 0.80774 0.04808 0.72096 0.0
C582 C 0.85317 0.04524 0.77123 0.0
C583 C 0.90208 0.03438 0.7572 0.0
C584 C 0.90389 0.03158 0.72479 0.0
C585 C 0.85726 0.0382 0.70692 0.0
C586 C 0.04881 0.01753 0.78438 0.0
C587 C 0.03903 0.99676 0.80912 0.0
C588 C 1.00441 0.03052 0.76793 0.0
C589 C 0.94945 0.02336 0.77623 0.0
C590 C 0.93988 1.00351 0.80164 0.0
C591 C 0.98401 0.99029 0.81777 0.0
H592 H 0.2184 0.50568 0.79053 0.0
H593 H 0.18466 0.60169 0.76446 0.0
H594 H 0.13979 0.488 0.76034 0.0
H595 H 0.10534 0.5836 0.73355 0.0
H596 H 0.93267 0.53476 0.71036 0.0
H597 H 1.00999 0.55718 0.74012 0.0
H598 H 0.11746 0.48482 0.70489 0.0
H599 H 0.0416 0.46249 0.67578 0.0
C600 C 0.19434 0.5231 0.77825 0.0
C601 C 0.20816 0.55516 0.77987 0.0
C602 C 0.14924 0.51288 0.76079 0.0
C603 C 0.11642 0.53436 0.7444 0.0
C604 C 0.1297 0.56651 0.74609 0.0
C605 C 0.17538 0.57682 0.76354 0.0
C606 C 0.97283 0.52369 0.70903 0.0
C607 C 0.98046 0.49654 0.69093 0.0
C608 C 0.01715 0.53665 0.72588 0.0
C609 C 0.06971 0.52257 0.72509 0.0
C610 C 0.07734 0.49593 0.70647 0.0
C611 C 0.03355 0.48315 0.68967 0.0
H612 H 0.33447 0.93188 0.7616 0.0
H613 H 0.31113 0.02673 0.79452 0.0
H614 H 0.41371 0.94976 0.73049 0.0
H615 H 0.38973 0.04415 0.76423 0.0
H616 H 0.48714 0.07306 0.68055 0.0
H617 H 0.41042 0.05109 0.7093 0.0
H618 H 0.51116 0.97235 0.73652 0.0
H619 H 0.58912 0.99431 0.70701 0.0
C620 C 0.34604 0.95645 0.76218 0.0
C621 C 0.31618 0.97785 0.78049 0.0
C622 C 0.39168 0.96662 0.74459 0.0
C623 C 0.40787 0.99841 0.74477 0.0
C624 C 0.37798 0.01961 0.76317 0.0
C625 C 0.33289 1.00951 0.78072 0.0
C626 C 0.49349 0.05105 0.69258 0.0
C627 C 0.54491 0.0357 0.69166 0.0
C628 C 0.44923 0.03848 0.7092 0.0
C629 C 0.45475 1.01014 0.7255 0.0
C630 C 0.50558 0.9942 0.7241 0.0
C631 C 0.55032 1.0069 0.7074 0.0
H632 H 0.03556 0.59323 0.44268 0.0
H633 H 0.12828 0.50707 0.43503 0.0
H634 H 0.98333 0.57071 0.4858 0.0
H635 H 0.07909 0.48549 0.47883 0.0
H636 H 0.94687 0.44109 0.53835 0.0
H637 H 0.9945 0.46429 0.49396 0.0
H638 H 0.98705 0.55548 0.53778 0.0
H639 H 0.93734 0.53268 0.581 0.0
C640 C 0.04556 0.56977 0.45051 0.0
C641 C 0.08634 0.55211 0.43534 0.0
C642 C 0.01571 0.5568 0.47533 0.0
C643 C 0.02654 0.52605 0.48583 0.0
C644 C 0.06838 0.50886 0.47107 0.0
C645 C 0.0974 0.52155 0.44608 0.0
C646 C 0.95523 0.46609 0.53835 0.0
C647 C 0.93813 0.48494 0.56322 0.0
C648 C 0.98291 0.47945 0.513 0.0
C649 C 0.99499 0.5119 0.51217 0.0
C650 C 0.97774 0.53061 0.53714 0.0
C651 C 0.94944 0.51738 0.56215 0.0
H652 H 0.44585 0.94071 0.46053 0.0
H653 H 0.4374 0.03274 0.41867 0.0
H654 H 0.49329 0.9634 0.50522 0.0
H655 H 0.48688 0.055 0.46215 0.0
H656 H 0.53668 0.09203 0.55703 0.0
H657 H 0.48333 0.06979 0.51423 0.0
H658 H 0.57824 0.98421 0.52042 0.0
H659 H 0.62863 1.00553 0.5639 0.0
C660 C 0.45436 0.9657 0.46076 0.0
C661 C 0.43771 0.9848 0.43599 0.0
C662 C 0.48192 0.97876 0.4863 0.0
C663 C 0.4943 1.01116 0.48741 0.0
C664 C 0.47735 0.03015 0.46258 0.0
C665 C 0.44919 0.01722 0.43739 0.0
C666 C 0.54622 0.06854 0.54912 0.0
C667 C 0.58721 0.05073 0.56392 0.0
C668 C 0.51572 0.05574 0.52449 0.0
C669 C 0.52608 0.02499 0.51381 0.0
C670 C 0.56793 1.00759 0.5283 0.0
C671 C 0.59762 0.02013 0.5531 0.0
H672 H 0.53431 0.44242 0.05275 0.0
H673 H 0.62861 0.52832 0.06171 0.0
H674 H 0.48261 0.46555 0.01005 0.0
H675 H 0.57988 0.55058 0.01809 0.0
H676 H 0.44963 0.59518 0.95725 0.0
H677 H 0.49654 0.5721 0.00188 0.0
H678 H 0.48712 0.4807 0.9585 0.0
H679 H 0.43809 0.50332 0.91525 0.0
C680 C 0.5448 0.46597 0.04527 0.0
C681 C 0.58598 0.48332 0.06064 0.0
C682 C 0.51523 0.4793 0.02066 0.0
C683 C 0.52675 0.51013 0.01046 0.0
C684 C 0.56875 0.52712 0.02554 0.0
C685 C 0.59749 0.51405 0.0504 0.0
C686 C 0.45732 0.57015 0.95745 0.0
C687 C 0.43979 0.55118 0.93271 0.0
C688 C 0.48462 0.55686 0.98293 0.0
C689 C 0.49588 0.52437 0.98398 0.0
C690 C 0.47832 0.50559 0.95908 0.0
C691 C 0.45037 0.51872 0.934 0.0
H692 H 0.07494 0.9368 0.95868 0.0
H693 H 0.09026 0.02895 0.91761 0.0
H694 H 0.02732 0.9599 0.0031 0.0
H695 H 0.04061 0.05159 0.9606 0.0
H696 H 0.9922 0.08956 0.05462 0.0
H697 H 0.04438 0.06617 0.01228 0.0
H698 H 0.94401 0.98217 0.01881 0.0
H699 H 0.89458 1.00471 0.06213 0.0
C700 C 0.06798 0.9619 0.95904 0.0
C701 C 0.08674 0.98093 0.93461 0.0
C702 C 0.04027 0.9752 0.98439 0.0
C703 C 0.02988 1.00777 0.98562 0.0
C704 C 0.04869 0.02662 0.96104 0.0
C705 C 0.07701 1.01347 0.9361 0.0
C706 C 0.98111 0.06618 0.04689 0.0
C707 C 0.93886 0.0492 0.06177 0.0
C708 C 1.01096 0.05271 0.02248 0.0
C709 C 0.9987 0.0221 0.01196 0.0
C710 C 0.95567 1.00545 0.02653 0.0
C711 C 0.92658 0.01867 0.05121 0.0
H712 H 0.13898 0.70923 0.44452 0.0
H713 H 0.24326 0.68797 0.36599 0.0
H714 H 0.17963 0.7618 0.44734 0.0
H715 H 0.28269 0.7404 0.36836 0.0
H716 H 0.37699 0.82726 0.39236 0.0
H717 H 0.34131 0.7742 0.39785 0.0
H718 H 0.17935 0.81108 0.4186 0.0
H719 H 0.21567 0.86459 0.41376 0.0
C720 C 0.17095 0.71559 0.42807 0.0
C721 C 0.18784 0.69425 0.40505 0.0
C722 C 0.19388 0.74588 0.42951 0.0
C723 C 0.23443 0.7555 0.40806 0.0
C724 C 0.25221 0.7338 0.38559 0.0
C725 C 0.22933 0.70364 0.38414 0.0
C726 C 0.33381 0.82417 0.39834 0.0
C727 C 0.29907 0.85028 0.4023 0.0
C728 C 0.31325 0.79363 0.40135 0.0
C729 C 0.2572 0.7882 0.40821 0.0
C730 C 0.22283 0.81431 0.41347 0.0
C731 C 0.24358 0.84503 0.41061 0.0
H732 H 0.88395 0.20165 0.08937 0.0
H733 H 0.71603 0.17769 0.11387 0.0
H734 H 0.85772 0.25643 0.08355 0.0
H735 H 0.69014 0.23265 0.11009 0.0
H736 H 0.64534 0.33166 0.08739 0.0
H737 H 0.67192 0.27692 0.08162 0.0
H738 H 0.83748 0.30035 0.11207 0.0
H739 H 0.81139 0.35525 0.11583 0.0
C740 C 0.84127 0.20813 0.09341 0.0
C741 C 0.80206 0.1853 0.10203 0.0
C742 C 0.82623 0.2397 0.09042 0.0
C743 C 0.77176 0.24949 0.09669 0.0
C744 C 0.73226 0.22632 0.1045 0.0
C745 C 0.74712 0.19464 0.10683 0.0
C746 C 0.68769 0.32512 0.0923 0.0
C747 C 0.72627 0.34783 0.10201 0.0
C748 C 0.7029 0.29357 0.08934 0.0
C749 C 0.75687 0.28369 0.0967 0.0
C750 C 0.79579 0.30675 0.10561 0.0
C751 C 0.78082 0.33841 0.10793 0.0
H752 H 0.64202 0.20813 0.55438 0.0
H753 H 0.74259 0.18759 0.63456 0.0
H754 H 0.68382 0.26041 0.5512 0.0
H755 H 0.78298 0.23972 0.63191 0.0
H756 H 0.87977 0.32578 0.6084 0.0
H757 H 0.84343 0.2728 0.60336 0.0
H758 H 0.68375 0.31018 0.57833 0.0
H759 H 0.72088 0.36353 0.58257 0.0
C760 C 0.67335 0.21461 0.57116 0.0
C761 C 0.68892 0.19352 0.59469 0.0
C762 C 0.69697 0.24473 0.56951 0.0
C763 C 0.73683 0.25447 0.59131 0.0
C764 C 0.75316 0.23304 0.61437 0.0
C765 C 0.72968 0.20303 0.61599 0.0
C766 C 0.837 0.32279 0.60155 0.0
C767 C 0.80313 0.349 0.59617 0.0
C768 C 0.81601 0.2923 0.59882 0.0
C769 C 0.76033 0.28703 0.59089 0.0
C770 C 0.72693 0.31324 0.58428 0.0
C771 C 0.74814 0.34388 0.5868 0.0
H772 H 0.23599 0.67381 0.91563 0.0
H773 H 0.38924 0.70996 0.8782 0.0
H774 H 0.2017 0.72755 0.92105 0.0
H775 H 0.35492 0.76325 0.88327 0.0
H776 H 0.2934 0.85834 0.91513 0.0
H777 H 0.32794 0.80459 0.91984 0.0
H778 H 0.17241 0.76897 0.88515 0.0
H779 H 0.13786 0.82227 0.88079 0.0
C780 C 0.26256 0.69316 0.90885 0.0
C781 C 0.31522 0.68748 0.8963 0.0
C782 C 0.24282 0.72396 0.9118 0.0
C783 C 0.27549 0.74978 0.90252 0.0
C784 C 0.32884 0.74405 0.89099 0.0
C785 C 0.34835 0.71336 0.88784 0.0
C786 C 0.26639 0.83901 0.9089 0.0
C787 C 0.21299 0.84471 0.89739 0.0
C788 C 0.28626 0.8082 0.91143 0.0
C789 C 0.25302 0.78239 0.90278 0.0
C790 C 0.19898 0.78815 0.89235 0.0
C791 C 0.17932 0.81885 0.88961 0.0
loop_
_geom_bond_atom_site_label_1
_geom_bond_atom_site_label_2
_geom_bond_distance
_geom_bond_site_symmetry_2
_ccdc_geom_bond_type
Co0 O2 2.143 . S
Co0 O8 2.074 . S
Co0 O11 2.093 . S
Co0 O24 2.097 . S
Co0 N41 2.151 . S
Co0 N49 2.214 . S
Co1 O2 2.160 . S
Co1 O7 2.058 . S
Co1 O17 2.057 . S
Co1 O32 2.037 . S
Co1 N36 2.145 . S
Co1 N57 2.257 . S
O2 Co0 2.143 . S
O2 Co1 2.160 . S
C3 O4 1.278 . S
C3 O11 1.224 . S
O4 C3 1.278 . S
C5 O6 1.245 . S
C5 O17 1.232 . S
O6 C5 1.245 . S
O7 Co1 2.058 . S
O7 C33 1.269 . S
O8 Co0 2.074 . S
O8 C33 1.257 . S
H9 C34 0.930 . S
H10 C40 0.930 . S
O11 Co0 2.093 . S
O11 C3 1.224 . S
H12 C44 0.929 . S
H13 C46 0.930 . S
H14 C47 0.930 . S
H15 C45 0.929 . S
H16 C48 0.928 . S
O17 Co1 2.057 . S
O17 C5 1.232 . S
H18 C37 0.929 . S
H19 C38 0.929 . S
H20 C50 0.931 . S
H21 C42 0.929 . S
H22 C51 0.930 . S
H23 C43 0.931 . S
O24 Co0 2.097 . S
O24 C52 1.214 . S
H25 C53 0.929 . S
H26 C54 0.929 . S
H27 C55 0.930 . S
H28 C56 0.929 . S
H29 C58 0.930 . S
H30 C35 0.930 . S
H31 C39 0.930 . S
O32 Co1 2.037 . S
O32 C52 1.234 . S
C33 O7 1.269 . S
C33 O8 1.257 . S
C34 H9 0.930 . S
C34 C37 1.388 . S
C34 C39 1.418 . S
C35 H30 0.930 . S
C35 C38 1.404 1_655 S
C35 C39 1.353 . S
N36 Co1 2.145 . S
N36 C37 1.397 1_455 S
N36 C38 1.334 . S
C37 H18 0.929 . S
C37 C34 1.388 . S
C37 N36 1.397 1_655 S
C38 H19 0.929 . S
C38 C35 1.404 1_455 S
C38 N36 1.334 . S
C39 H31 0.930 . S
C39 C34 1.418 . S
C39 C35 1.353 . S
C40 H10 0.930 . S
C40 N41 1.330 . S
C40 C42 1.446 . S
N41 Co0 2.151 . S
N41 C40 1.330 . S
N41 C45 1.418 . S
C42 H21 0.929 . S
C42 C40 1.446 . S
C42 C43 1.332 . S
C43 H23 0.931 . S
C43 C42 1.332 . S
C43 C44 1.267 . S
C44 H12 0.929 . S
C44 C43 1.267 . S
C44 C45 1.251 . S
C45 H15 0.929 . S
C45 N41 1.418 . S
C45 C44 1.251 . S
C46 H13 0.930 . S
C46 C48 1.406 . S
C46 C51 1.261 . S
C47 H14 0.930 . S
C47 N49 1.325 . S
C47 C50 1.357 . S
C48 H16 0.928 . S
C48 C46 1.406 . S
C48 N49 1.261 . S
N49 Co0 2.214 . S
N49 C47 1.325 . S
N49 C48 1.261 . S
C50 H20 0.931 . S
C50 C47 1.357 . S
C50 C51 1.312 . S
C51 H22 0.930 . S
C51 C46 1.261 . S
C51 C50 1.312 . S
C52 O24 1.214 . S
C52 O32 1.234 . S
C53 H25 0.929 . S
C53 C56 1.391 . S
C53 C58 1.391 . S
C54 H26 0.929 . S
C54 C55 1.390 . S
C54 N57 1.391 . S
C55 H27 0.930 . S
C55 C54 1.390 . S
C55 C56 1.392 . S
C56 H28 0.929 . S
C56 C53 1.391 . S
C56 C55 1.392 . S
N57 Co1 2.257 . S
N57 C54 1.391 . S
N57 C58 1.388 . S
C58 H29 0.930 . S
C58 C53 1.391 . S
C58 N57 1.388 . S
Co59 O61 2.143 . S
Co59 O67 2.074 . S
Co59 O70 2.093 . S
Co59 O83 2.097 . S
Co59 N100 2.151 . S
Co59 N108 2.214 1_565 S
Co60 O61 2.160 . S
Co60 O66 2.058 . S
Co60 O76 2.057 . S
Co60 O91 2.037 . S
Co60 N95 2.145 . S
Co60 N116 2.257 . S
O61 Co59 2.143 . S
O61 Co60 2.160 . S
C62 O63 1.278 . S
C62 O70 1.224 . S
O63 C62 1.278 . S
C64 O65 1.245 . S
C64 O76 1.232 . S
O65 C64 1.245 . S
O66 Co60 2.058 . S
O66 C92 1.269 . S
O67 Co59 2.074 . S
O67 C92 1.257 . S
H68 C93 0.930 . S
H69 C99 0.930 . S
O70 Co59 2.093 . S
O70 C62 1.224 . S
H71 C103 0.930 . S
H72 C105 0.930 . S
H73 C106 0.930 . S
H74 C104 0.929 1_545 S
H75 C107 0.928 . S
O76 Co60 2.057 . S
O76 C64 1.232 . S
H77 C96 0.929 . S
H78 C97 0.929 . S
H79 C109 0.931 . S
H80 C101 0.929 . S
H81 C110 0.930 . S
H82 C102 0.931 . S
O83 Co59 2.097 . S
O83 C111 1.214 . S
H84 C112 0.929 . S
H85 C113 0.929 . S
H86 C114 0.930 . S
H87 C115 0.929 . S
H88 C117 0.930 . S
H89 C94 0.930 . S
H90 C98 0.930 . S
O91 Co60 2.037 . S
O91 C111 1.234 . S
C92 O66 1.269 . S
C92 O67 1.257 . S
C93 H68 0.930 . S
C93 C96 1.388 . S
C93 C98 1.418 . S
C94 H89 0.930 . S
C94 C97 1.404 . S
C94 C98 1.353 . S
N95 Co60 2.145 . S
N95 C96 1.397 . S
N95 C97 1.334 . S
C96 H77 0.929 . S
C96 C93 1.388 . S
C96 N95 1.397 . S
C97 H78 0.929 . S
C97 C94 1.404 . S
C97 N95 1.334 . S
C98 H90 0.930 . S
C98 C93 1.418 . S
C98 C94 1.353 . S
C99 H69 0.930 . S
C99 N100 1.330 . S
C99 C101 1.446 . S
N100 Co59 2.151 . S
N100 C99 1.330 . S
N100 C104 1.418 . S
C101 H80 0.929 . S
C101 C99 1.446 . S
C101 C102 1.332 . S
C102 H82 0.931 . S
C102 C101 1.332 . S
C102 C103 1.266 1_565 S
C103 H71 0.930 . S
C103 C102 1.266 1_545 S
C103 C104 1.251 1_545 S
C104 H74 0.929 1_565 S
C104 N100 1.418 . S
C104 C103 1.251 1_565 S
C105 H72 0.930 . S
C105 C107 1.406 . S
C105 C110 1.261 . S
C106 H73 0.930 . S
C106 N108 1.325 . S
C106 C109 1.357 . S
C107 H75 0.928 . S
C107 C105 1.406 . S
C107 N108 1.261 . S
N108 Co59 2.214 1_545 S
N108 C106 1.325 . S
N108 C107 1.261 . S
C109 H79 0.931 . S
C109 C106 1.357 . S
C109 C110 1.312 . S
C110 H81 0.930 . S
C110 C105 1.261 . S
C110 C109 1.312 . S
C111 O83 1.214 . S
C111 O91 1.234 . S
C112 H84 0.929 . S
C112 C115 1.391 . S
C112 C117 1.391 . S
C113 H85 0.929 . S
C113 C114 1.390 . S
C113 N116 1.391 . S
C114 H86 0.930 . S
C114 C113 1.390 . S
C114 C115 1.392 . S
C115 H87 0.929 . S
C115 C112 1.391 . S
C115 C114 1.392 . S
N116 Co60 2.257 . S
N116 C113 1.391 . S
N116 C117 1.388 . S
C117 H88 0.930 . S
C117 C112 1.391 . S
C117 N116 1.388 . S
Co118 O120 2.143 . S
Co118 O126 2.074 . S
Co118 O129 2.093 . S
Co118 O142 2.097 . S
Co118 N159 2.151 . S
Co118 N167 2.214 . S
Co119 O120 2.160 . S
Co119 O125 2.058 . S
Co119 O135 2.057 . S
Co119 O150 2.037 . S
Co119 N154 2.145 . S
Co119 N175 2.257 . S
O120 Co118 2.143 . S
O120 Co119 2.160 . S
C121 O122 1.278 . S
C121 O129 1.224 . S
O122 C121 1.278 . S
C123 O124 1.245 . S
C123 O135 1.232 . S
O124 C123 1.245 . S
O125 Co119 2.058 . S
O125 C151 1.269 . S
O126 Co118 2.074 . S
O126 C151 1.257 . S
H127 C152 0.930 . S
H128 C158 0.930 . S
O129 Co118 2.093 . S
O129 C121 1.224 . S
H130 C162 0.929 . S
H131 C164 0.930 . S
H132 C165 0.930 . S
H133 C163 0.929 . S
H134 C166 0.928 . S
O135 Co119 2.057 . S
O135 C123 1.232 . S
H136 C155 0.929 . S
H137 C156 0.929 . S
H138 C168 0.931 . S
H139 C160 0.929 . S
H140 C169 0.930 . S
H141 C161 0.931 . S
O142 Co118 2.097 . S
O142 C170 1.214 . S
H143 C171 0.929 . S
H144 C172 0.929 . S
H145 C173 0.930 . S
H146 C174 0.929 . S
H147 C176 0.930 . S
H148 C153 0.930 . S
H149 C157 0.930 . S
O150 Co119 2.037 . S
O150 C170 1.234 . S
C151 O125 1.269 . S
C151 O126 1.257 . S
C152 H127 0.930 . S
C152 C155 1.388 . S
C152 C157 1.418 . S
C153 H148 0.930 . S
C153 C156 1.404 . S
C153 C157 1.353 . S
N154 Co119 2.145 . S
N154 C155 1.397 . S
N154 C156 1.334 . S
C155 H136 0.929 . S
C155 C152 1.388 . S
C155 N154 1.397 . S
C156 H137 0.929 . S
C156 C153 1.404 . S
C156 N154 1.334 . S
C157 H149 0.930 . S
C157 C152 1.418 . S
C157 C153 1.353 . S
C158 H128 0.930 . S
C158 N159 1.330 . S
C158 C160 1.446 . S
N159 Co118 2.151 . S
N159 C158 1.330 . S
N159 C163 1.418 . S
C160 H139 0.929 . S
C160 C158 1.446 . S
C160 C161 1.332 . S
C161 H141 0.931 . S
C161 C160 1.332 . S
C161 C162 1.267 . S
C162 H130 0.929 . S
C162 C161 1.267 . S
C162 C163 1.251 . S
C163 H133 0.929 . S
C163 N159 1.418 . S
C163 C162 1.251 . S
C164 H131 0.930 . S
C164 C166 1.406 . S
C164 C169 1.261 . S
C165 H132 0.930 . S
C165 N167 1.325 . S
C165 C168 1.357 . S
C166 H134 0.928 . S
C166 C164 1.406 . S
C166 N167 1.261 . S
N167 Co118 2.214 . S
N167 C165 1.325 . S
N167 C166 1.261 . S
C168 H138 0.931 . S
C168 C165 1.357 . S
C168 C169 1.312 . S
C169 H140 0.930 . S
C169 C164 1.261 . S
C169 C168 1.312 . S
C170 O142 1.214 . S
C170 O150 1.234 . S
C171 H143 0.929 . S
C171 C174 1.391 . S
C171 C176 1.391 . S
C172 H144 0.929 . S
C172 C173 1.390 . S
C172 N175 1.391 . S
C173 H145 0.930 . S
C173 C172 1.390 . S
C173 C174 1.392 . S
C174 H146 0.929 . S
C174 C171 1.391 . S
C174 C173 1.392 . S
N175 Co119 2.257 . S
N175 C172 1.391 . S
N175 C176 1.388 . S
C176 H147 0.930 . S
C176 C171 1.391 . S
C176 N175 1.388 . S
Co177 O179 2.143 . S
Co177 O185 2.074 . S
Co177 O188 2.093 . S
Co177 O201 2.097 . S
Co177 N218 2.151 . S
Co177 N226 2.214 1_545 S
Co178 O179 2.160 . S
Co178 O184 2.058 . S
Co178 O194 2.057 . S
Co178 O209 2.037 . S
Co178 N213 2.145 . S
Co178 N234 2.257 . S
O179 Co177 2.143 . S
O179 Co178 2.160 . S
C180 O181 1.278 . S
C180 O188 1.224 . S
O181 C180 1.278 . S
C182 O183 1.245 . S
C182 O194 1.232 . S
O183 C182 1.245 . S
O184 Co178 2.058 . S
O184 C210 1.269 . S
O185 Co177 2.074 . S
O185 C210 1.257 . S
H186 C211 0.930 . S
H187 C217 0.930 . S
O188 Co177 2.093 . S
O188 C180 1.224 . S
H189 C221 0.930 . S
H190 C223 0.930 . S
H191 C224 0.930 . S
H192 C222 0.929 1_565 S
H193 C225 0.928 . S
O194 Co178 2.057 . S
O194 C182 1.232 . S
H195 C214 0.929 . S
H196 C215 0.929 . S
H197 C227 0.931 . S
H198 C219 0.929 . S
H199 C228 0.930 . S
H200 C220 0.931 . S
O201 Co177 2.097 . S
O201 C229 1.214 . S
H202 C230 0.929 . S
H203 C231 0.929 . S
H204 C232 0.930 . S
H205 C233 0.929 . S
H206 C235 0.930 . S
H207 C212 0.930 . S
H208 C216 0.930 . S
O209 Co178 2.037 . S
O209 C229 1.234 . S
C210 O184 1.269 . S
C210 O185 1.257 . S
C211 H186 0.930 . S
C211 C214 1.388 . S
C211 C216 1.418 . S
C212 H207 0.930 . S
C212 C215 1.404 1_455 S
C212 C216 1.353 . S
N213 Co178 2.145 . S
N213 C214 1.397 1_655 S
N213 C215 1.334 . S
C214 H195 0.929 . S
C214 C211 1.388 . S
C214 N213 1.397 1_455 S
C215 H196 0.929 . S
C215 C212 1.404 1_655 S
C215 N213 1.334 . S
C216 H208 0.930 . S
C216 C211 1.418 . S
C216 C212 1.353 . S
C217 H187 0.930 . S
C217 N218 1.330 . S
C217 C219 1.446 . S
N218 Co177 2.151 . S
N218 C217 1.330 . S
N218 C222 1.418 . S
C219 H198 0.929 . S
C219 C217 1.446 . S
C219 C220 1.332 . S
C220 H200 0.931 . S
C220 C219 1.332 . S
C220 C221 1.266 1_545 S
C221 H189 0.930 . S
C221 C220 1.266 1_565 S
C221 C222 1.251 1_565 S
C222 H192 0.929 1_545 S
C222 N218 1.418 . S
C222 C221 1.251 1_545 S
C223 H190 0.930 . S
C223 C225 1.406 . S
C223 C228 1.261 . S
C224 H191 0.930 . S
C224 N226 1.325 . S
C224 C227 1.357 . S
C225 H193 0.928 . S
C225 C223 1.406 . S
C225 N226 1.261 . S
N226 Co177 2.214 1_565 S
N226 C224 1.325 . S
N226 C225 1.261 . S
C227 H197 0.931 . S
C227 C224 1.357 . S
C227 C228 1.312 . S
C228 H199 0.930 . S
C228 C223 1.261 . S
C228 C227 1.312 . S
C229 O201 1.214 . S
C229 O209 1.234 . S
C230 H202 0.929 . S
C230 C233 1.391 . S
C230 C235 1.391 . S
C231 H203 0.929 . S
C231 C232 1.390 . S
C231 N234 1.391 . S
C232 H204 0.930 . S
C232 C231 1.390 . S
C232 C233 1.392 . S
C233 H205 0.929 . S
C233 C230 1.391 . S
C233 C232 1.392 . S
N234 Co178 2.257 . S
N234 C231 1.391 . S
N234 C235 1.388 . S
C235 H206 0.930 . S
C235 C230 1.391 . S
C235 N234 1.388 . S
Co236 O238 2.143 . S
Co236 O244 2.074 . S
Co236 O247 2.093 . S
Co236 O260 2.097 . S
Co236 N277 2.151 . S
Co236 N285 2.214 . S
Co237 O238 2.160 . S
Co237 O243 2.058 . S
Co237 O253 2.057 . S
Co237 O268 2.037 . S
Co237 N272 2.145 . S
Co237 N293 2.257 . S
O238 Co236 2.143 . S
O238 Co237 2.160 . S
C239 O240 1.278 . S
C239 O247 1.224 . S
O240 C239 1.278 . S
C241 O242 1.245 . S
C241 O253 1.232 . S
O242 C241 1.245 . S
O243 Co237 2.058 . S
O243 C269 1.269 . S
O244 Co236 2.074 . S
O244 C269 1.257 . S
H245 C270 0.930 . S
H246 C276 0.930 . S
O247 Co236 2.093 . S
O247 C239 1.224 . S
H248 C280 0.929 . S
H249 C282 0.930 . S
H250 C283 0.930 . S
H251 C281 0.929 . S
H252 C284 0.928 . S
O253 Co237 2.057 . S
O253 C241 1.232 . S
H254 C273 0.929 . S
H255 C274 0.929 . S
H256 C286 0.931 . S
H257 C278 0.929 . S
H258 C287 0.930 . S
H259 C279 0.931 . S
O260 Co236 2.097 . S
O260 C288 1.214 . S
H261 C289 0.929 . S
H262 C290 0.929 . S
H263 C291 0.930 . S
H264 C292 0.929 . S
H265 C294 0.930 . S
H266 C271 0.930 . S
H267 C275 0.930 . S
O268 Co237 2.037 . S
O268 C288 1.234 . S
C269 O243 1.269 . S
C269 O244 1.257 . S
C270 H245 0.930 . S
C270 C273 1.388 . S
C270 C275 1.418 . S
C271 H266 0.930 . S
C271 C274 1.404 1_455 S
C271 C275 1.353 . S
N272 Co237 2.145 . S
N272 C273 1.397 1_655 S
N272 C274 1.334 . S
C273 H254 0.929 . S
C273 C270 1.388 . S
C273 N272 1.397 1_455 S
C274 H255 0.929 . S
C274 C271 1.404 1_655 S
C274 N272 1.334 . S
C275 H267 0.930 . S
C275 C270 1.418 . S
C275 C271 1.353 . S
C276 H246 0.930 . S
C276 N277 1.330 . S
C276 C278 1.446 . S
N277 Co236 2.151 . S
N277 C276 1.330 . S
N277 C281 1.418 . S
C278 H257 0.929 . S
C278 C276 1.446 . S
C278 C279 1.332 . S
C279 H259 0.931 . S
C279 C278 1.332 . S
C279 C280 1.267 . S
C280 H248 0.929 . S
C280 C279 1.267 . S
C280 C281 1.251 . S
C281 H251 0.929 . S
C281 N277 1.418 . S
C281 C280 1.251 . S
C282 H249 0.930 . S
C282 C284 1.406 . S
C282 C287 1.261 . S
C283 H250 0.930 . S
C283 N285 1.325 . S
C283 C286 1.357 . S
C284 H252 0.928 . S
C284 C282 1.406 . S
C284 N285 1.261 . S
N285 Co236 2.214 . S
N285 C283 1.325 . S
N285 C284 1.261 . S
C286 H256 0.931 . S
C286 C283 1.357 . S
C286 C287 1.312 . S
C287 H258 0.930 . S
C287 C282 1.261 . S
C287 C286 1.312 . S
C288 O260 1.214 . S
C288 O268 1.234 . S
C289 H261 0.929 . S
C289 C292 1.391 . S
C289 C294 1.391 . S
C290 H262 0.929 . S
C290 C291 1.390 . S
C290 N293 1.391 . S
C291 H263 0.930 . S
C291 C290 1.390 . S
C291 C292 1.392 . S
C292 H264 0.929 . S
C292 C289 1.391 . S
C292 C291 1.392 . S
N293 Co237 2.257 . S
N293 C290 1.391 . S
N293 C294 1.388 . S
C294 H265 0.930 . S
C294 C289 1.391 . S
C294 N293 1.388 . S
Co295 O297 2.143 . S
Co295 O303 2.074 . S
Co295 O306 2.093 . S
Co295 O319 2.097 . S
Co295 N336 2.151 . S
Co295 N344 2.214 1_545 S
Co296 O297 2.160 . S
Co296 O302 2.058 . S
Co296 O312 2.057 . S
Co296 O327 2.037 . S
Co296 N331 2.145 . S
Co296 N352 2.257 . S
O297 Co295 2.143 . S
O297 Co296 2.160 . S
C298 O299 1.278 . S
C298 O306 1.224 . S
O299 C298 1.278 . S
C300 O301 1.245 . S
C300 O312 1.232 . S
O301 C300 1.245 . S
O302 Co296 2.058 . S
O302 C328 1.269 . S
O303 Co295 2.074 . S
O303 C328 1.257 . S
H304 C329 0.930 . S
H305 C335 0.930 . S
O306 Co295 2.093 . S
O306 C298 1.224 . S
H307 C339 0.930 . S
H308 C341 0.930 . S
H309 C342 0.930 . S
H310 C340 0.929 1_565 S
H311 C343 0.928 . S
O312 Co296 2.057 . S
O312 C300 1.232 . S
H313 C332 0.929 . S
H314 C333 0.929 . S
H315 C345 0.931 . S
H316 C337 0.929 . S
H317 C346 0.930 . S
H318 C338 0.931 . S
O319 Co295 2.097 . S
O319 C347 1.214 . S
H320 C348 0.929 . S
H321 C349 0.929 . S
H322 C350 0.930 . S
H323 C351 0.929 . S
H324 C353 0.930 . S
H325 C330 0.930 . S
H326 C334 0.930 . S
O327 Co296 2.037 . S
O327 C347 1.234 . S
C328 O302 1.269 . S
C328 O303 1.257 . S
C329 H304 0.930 . S
C329 C332 1.388 . S
C329 C334 1.418 . S
C330 H325 0.930 . S
C330 C333 1.404 . S
C330 C334 1.353 . S
N331 Co296 2.145 . S
N331 C332 1.397 . S
N331 C333 1.334 . S
C332 H313 0.929 . S
C332 C329 1.388 . S
C332 N331 1.397 . S
C333 H314 0.929 . S
C333 C330 1.404 . S
C333 N331 1.334 . S
C334 H326 0.930 . S
C334 C329 1.418 . S
C334 C330 1.353 . S
C335 H305 0.930 . S
C335 N336 1.330 . S
C335 C337 1.446 . S
N336 Co295 2.151 . S
N336 C335 1.330 . S
N336 C340 1.418 . S
C337 H316 0.929 . S
C337 C335 1.446 . S
C337 C338 1.332 . S
C338 H318 0.931 . S
C338 C337 1.332 . S
C338 C339 1.266 1_545 S
C339 H307 0.930 . S
C339 C338 1.266 1_565 S
C339 C340 1.251 1_565 S
C340 H310 0.929 1_545 S
C340 N336 1.418 . S
C340 C339 1.251 1_545 S
C341 H308 0.930 . S
C341 C343 1.406 . S
C341 C346 1.261 . S
C342 H309 0.930 . S
C342 N344 1.325 . S
C342 C345 1.357 . S
C343 H311 0.928 . S
C343 C341 1.406 . S
C343 N344 1.261 . S
N344 Co295 2.214 1_565 S
N344 C342 1.325 . S
N344 C343 1.261 . S
C345 H315 0.931 . S
C345 C342 1.357 . S
C345 C346 1.312 . S
C346 H317 0.930 . S
C346 C341 1.261 . S
C346 C345 1.312 . S
C347 O319 1.214 . S
C347 O327 1.234 . S
C348 H320 0.929 . S
C348 C351 1.391 . S
C348 C353 1.391 . S
C349 H321 0.929 . S
C349 C350 1.390 . S
C349 N352 1.391 . S
C350 H322 0.930 . S
C350 C349 1.390 . S
C350 C351 1.392 . S
C351 H323 0.929 . S
C351 C348 1.391 . S
C351 C350 1.392 . S
N352 Co296 2.257 . S
N352 C349 1.391 . S
N352 C353 1.388 . S
C353 H324 0.930 . S
C353 C348 1.391 . S
C353 N352 1.388 . S
Co354 O356 2.143 . S
Co354 O362 2.074 . S
Co354 O365 2.093 . S
Co354 O378 2.097 . S
Co354 N395 2.151 . S
Co354 N403 2.214 . S
Co355 O356 2.160 . S
Co355 O361 2.058 . S
Co355 O371 2.057 . S
Co355 O386 2.037 . S
Co355 N390 2.145 . S
Co355 N411 2.257 . S
O356 Co354 2.143 . S
O356 Co355 2.160 . S
C357 O358 1.278 . S
C357 O365 1.224 . S
O358 C357 1.278 . S
C359 O360 1.245 . S
C359 O371 1.232 . S
O360 C359 1.245 . S
O361 Co355 2.058 . S
O361 C387 1.269 . S
O362 Co354 2.074 . S
O362 C387 1.257 . S
H363 C388 0.930 . S
H364 C394 0.930 . S
O365 Co354 2.093 . S
O365 C357 1.224 . S
H366 C398 0.929 . S
H367 C400 0.930 . S
H368 C401 0.930 . S
H369 C399 0.929 . S
H370 C402 0.928 . S
O371 Co355 2.057 . S
O371 C359 1.232 . S
H372 C391 0.929 . S
H373 C392 0.929 . S
H374 C404 0.931 . S
H375 C396 0.929 . S
H376 C405 0.930 . S
H377 C397 0.931 . S
O378 Co354 2.097 . S
O378 C406 1.214 . S
H379 C407 0.929 . S
H380 C408 0.929 . S
H381 C409 0.930 . S
H382 C410 0.929 . S
H383 C412 0.930 . S
H384 C389 0.930 . S
H385 C393 0.930 . S
O386 Co355 2.037 . S
O386 C406 1.234 . S
C387 O361 1.269 . S
C387 O362 1.257 . S
C388 H363 0.930 . S
C388 C391 1.388 . S
C388 C393 1.418 . S
C389 H384 0.930 . S
C389 C392 1.404 . S
C389 C393 1.353 . S
N390 Co355 2.145 . S
N390 C391 1.397 . S
N390 C392 1.334 . S
C391 H372 0.929 . S
C391 C388 1.388 . S
C391 N390 1.397 . S
C392 H373 0.929 . S
C392 C389 1.404 . S
C392 N390 1.334 . S
C393 H385 0.930 . S
C393 C388 1.418 . S
C393 C389 1.353 . S
C394 H364 0.930 . S
C394 N395 1.330 . S
C394 C396 1.446 . S
N395 Co354 2.151 . S
N395 C394 1.330 . S
N395 C399 1.418 . S
C396 H375 0.929 . S
C396 C394 1.446 . S
C396 C397 1.332 . S
C397 H377 0.931 . S
C397 C396 1.332 . S
C397 C398 1.267 . S
C398 H366 0.929 . S
C398 C397 1.267 . S
C398 C399 1.251 . S
C399 H369 0.929 . S
C399 N395 1.418 . S
C399 C398 1.251 . S
C400 H367 0.930 . S
C400 C402 1.406 . S
C400 C405 1.261 . S
C401 H368 0.930 . S
C401 N403 1.325 . S
C401 C404 1.357 . S
C402 H370 0.928 . S
C402 C400 1.406 . S
C402 N403 1.261 . S
N403 Co354 2.214 . S
N403 C401 1.325 . S
N403 C402 1.261 . S
C404 H374 0.931 . S
C404 C401 1.357 . S
C404 C405 1.312 . S
C405 H376 0.930 . S
C405 C400 1.261 . S
C405 C404 1.312 . S
C406 O378 1.214 . S
C406 O386 1.234 . S
C407 H379 0.929 . S
C407 C410 1.391 . S
C407 C412 1.391 . S
C408 H380 0.929 . S
C408 C409 1.390 . S
C408 N411 1.391 . S
C409 H381 0.930 . S
C409 C408 1.390 . S
C409 C410 1.392 . S
C410 H382 0.929 . S
C410 C407 1.391 . S
C410 C409 1.392 . S
N411 Co355 2.257 . S
N411 C408 1.391 . S
N411 C412 1.388 . S
C412 H383 0.930 . S
C412 C407 1.391 . S
C412 N411 1.388 . S
Co413 O415 2.143 . S
Co413 O421 2.074 . S
Co413 O424 2.093 . S
Co413 O437 2.097 . S
Co413 N454 2.151 . S
Co413 N462 2.214 1_565 S
Co414 O415 2.160 . S
Co414 O420 2.058 . S
Co414 O430 2.057 . S
Co414 O445 2.037 . S
Co414 N449 2.145 . S
Co414 N470 2.257 . S
O415 Co413 2.143 . S
O415 Co414 2.160 . S
C416 O417 1.278 . S
C416 O424 1.224 . S
O417 C416 1.278 . S
C418 O419 1.245 . S
C418 O430 1.232 . S
O419 C418 1.245 . S
O420 Co414 2.058 . S
O420 C446 1.269 . S
O421 Co413 2.074 . S
O421 C446 1.257 . S
H422 C447 0.930 . S
H423 C453 0.930 . S
O424 Co413 2.093 . S
O424 C416 1.224 . S
H425 C457 0.930 . S
H426 C459 0.930 . S
H427 C460 0.930 . S
H428 C458 0.929 1_545 S
H429 C461 0.928 . S
O430 Co414 2.057 . S
O430 C418 1.232 . S
H431 C450 0.929 . S
H432 C451 0.929 . S
H433 C463 0.931 . S
H434 C455 0.929 . S
H435 C464 0.930 . S
H436 C456 0.931 . S
O437 Co413 2.097 . S
O437 C465 1.214 . S
H438 C466 0.929 . S
H439 C467 0.929 . S
H440 C468 0.930 . S
H441 C469 0.929 . S
H442 C471 0.930 . S
H443 C448 0.930 . S
H444 C452 0.930 . S
O445 Co414 2.037 . S
O445 C465 1.234 . S
C446 O420 1.269 . S
C446 O421 1.257 . S
C447 H422 0.930 . S
C447 C450 1.388 . S
C447 C452 1.418 . S
C448 H443 0.930 . S
C448 C451 1.404 1_655 S
C448 C452 1.353 . S
N449 Co414 2.145 . S
N449 C450 1.397 1_455 S
N449 C451 1.334 . S
C450 H431 0.929 . S
C450 C447 1.388 . S
C450 N449 1.397 1_655 S
C451 H432 0.929 . S
C451 C448 1.404 1_455 S
C451 N449 1.334 . S
C452 H444 0.930 . S
C452 C447 1.418 . S
C452 C448 1.353 . S
C453 H423 0.930 . S
C453 N454 1.330 . S
C453 C455 1.446 . S
N454 Co413 2.151 . S
N454 C453 1.330 . S
N454 C458 1.418 . S
C455 H434 0.929 . S
C455 C453 1.446 . S
C455 C456 1.332 . S
C456 H436 0.931 . S
C456 C455 1.332 . S
C456 C457 1.266 1_565 S
C457 H425 0.930 . S
C457 C456 1.266 1_545 S
C457 C458 1.251 1_545 S
C458 H428 0.929 1_565 S
C458 N454 1.418 . S
C458 C457 1.251 1_565 S
C459 H426 0.930 . S
C459 C461 1.406 . S
C459 C464 1.261 . S
C460 H427 0.930 . S
C460 N462 1.325 . S
C460 C463 1.357 . S
C461 H429 0.928 . S
C461 C459 1.406 . S
C461 N462 1.261 . S
N462 Co413 2.214 1_545 S
N462 C460 1.325 . S
N462 C461 1.261 . S
C463 H433 0.931 . S
C463 C460 1.357 . S
C463 C464 1.312 . S
C464 H435 0.930 . S
C464 C459 1.261 . S
C464 C463 1.312 . S
C465 O437 1.214 . S
C465 O445 1.234 . S
C466 H438 0.929 . S
C466 C469 1.391 . S
C466 C471 1.391 . S
C467 H439 0.929 . S
C467 C468 1.390 . S
C467 N470 1.391 . S
C468 H440 0.930 . S
C468 C467 1.390 . S
C468 C469 1.392 . S
C469 H441 0.929 . S
C469 C466 1.391 . S
C469 C468 1.392 . S
N470 Co414 2.257 . S
N470 C467 1.391 . S
N470 C471 1.388 . S
C471 H442 0.930 . S
C471 C466 1.391 . S
C471 N470 1.388 . S
H472 C480 0.950 . S
H473 C485 0.950 . S
H474 C482 0.950 . S
H475 C484 0.950 . S
H476 C486 0.950 . S
H477 C488 0.950 . S
H478 C490 0.950 . S
H479 C491 0.950 . S
C480 H472 0.950 . S
C480 C481 1.386 . S
C480 C482 1.391 . S
C481 C480 1.386 . S
C481 C485 1.393 . S
C482 H474 0.950 . S
C482 C480 1.391 . S
C482 C483 1.400 . S
C483 C482 1.400 . S
C483 C484 1.398 . S
C483 C489 1.491 . S
C484 H475 0.950 . S
C484 C483 1.398 . S
C484 C485 1.391 . S
C485 H473 0.950 . S
C485 C481 1.393 . S
C485 C484 1.391 . S
C486 H476 0.950 . S
C486 C487 1.386 . S
C486 C488 1.391 . S
C487 C486 1.386 . S
C487 C491 1.393 . S
C488 H477 0.950 . S
C488 C486 1.391 . S
C488 C489 1.400 . S
C489 C483 1.491 . S
C489 C488 1.400 . S
C489 C490 1.398 . S
C490 H478 0.950 . S
C490 C489 1.398 . S
C490 C491 1.391 . S
C491 H479 0.950 . S
C491 C487 1.393 . S
C491 C490 1.391 . S
H492 C500 0.950 1_565 S
H493 C505 0.950 . S
H494 C502 0.950 . S
H495 C504 0.950 . S
H496 C506 0.950 . S
H497 C508 0.939 1_545 S
H498 C510 0.950 . S
H499 C511 0.950 . S
C500 H492 0.950 1_545 S
C500 C501 1.386 . S
C500 C502 1.391 1_545 S
C501 C500 1.386 . S
C501 C505 1.393 1_655 S
C502 H494 0.950 . S
C502 C500 1.391 1_565 S
C502 C503 1.400 1_665 S
C503 C502 1.400 1_445 S
C503 C504 1.398 . S
C503 C509 1.491 1_545 S
C504 H495 0.950 . S
C504 C503 1.398 . S
C504 C505 1.391 . S
C505 H493 0.950 . S
C505 C501 1.393 1_455 S
C505 C504 1.391 . S
C506 H496 0.950 . S
C506 C507 1.386 . S
C506 C508 1.398 . S
C507 C506 1.386 . S
C507 C511 1.393 . S
C508 H497 0.939 1_565 S
C508 C506 1.398 . S
C508 C509 1.405 . S
C509 C503 1.491 1_565 S
C509 C508 1.405 . S
C509 C510 1.398 . S
C510 H498 0.950 . S
C510 C509 1.398 . S
C510 C511 1.391 . S
C511 H499 0.950 . S
C511 C507 1.393 . S
C511 C510 1.391 . S
H512 C520 0.950 . S
H513 C525 0.950 . S
H514 C522 0.950 . S
H515 C524 0.950 . S
H516 C526 0.950 . S
H517 C528 0.950 . S
H518 C530 0.950 1_455 S
H519 C531 0.950 . S
C520 H512 0.950 . S
C520 C521 1.386 . S
C520 C522 1.391 . S
C521 C520 1.386 . S
C521 C525 1.393 . S
C522 H514 0.950 . S
C522 C520 1.391 . S
C522 C523 1.400 . S
C523 C522 1.400 . S
C523 C524 1.398 . S
C523 C529 1.491 . S
C524 H515 0.950 . S
C524 C523 1.398 . S
C524 C525 1.391 . S
C525 H513 0.950 . S
C525 C521 1.393 . S
C525 C524 1.391 . S
C526 H516 0.950 . S
C526 C527 1.386 1_655 S
C526 C528 1.391 . S
C527 C526 1.386 1_455 S
C527 C531 1.393 . S
C528 H517 0.950 . S
C528 C526 1.391 . S
C528 C529 1.400 . S
C529 C523 1.491 . S
C529 C528 1.400 . S
C529 C530 1.398 . S
C530 H518 0.950 1_655 S
C530 C529 1.398 . S
C530 C531 1.391 1_655 S
C531 H519 0.950 . S
C531 C527 1.393 . S
C531 C530 1.391 1_455 S
H532 C540 0.950 . S
H533 C545 0.950 . S
H534 C542 0.950 . S
H535 C544 0.950 . S
H536 C546 0.950 . S
H537 C548 0.950 . S
H538 C550 0.950 . S
H539 C551 0.950 . S
C540 H532 0.950 . S
C540 C541 1.386 1_565 S
C540 C542 1.391 . S
C541 C540 1.386 1_545 S
C541 C545 1.393 . S
C542 H534 0.950 . S
C542 C540 1.391 . S
C542 C543 1.400 1_565 S
C543 C542 1.400 1_545 S
C543 C544 1.398 . S
C543 C549 1.491 1_545 S
C544 H535 0.950 . S
C544 C543 1.398 . S
C544 C545 1.391 . S
C545 H533 0.950 . S
C545 C541 1.393 . S
C545 C544 1.391 . S
C546 H536 0.950 . S
C546 C547 1.386 1_545 S
C546 C548 1.391 . S
C547 C546 1.386 1_565 S
C547 C551 1.393 . S
C548 H537 0.950 . S
C548 C546 1.391 . S
C548 C549 1.400 1_545 S
C549 C543 1.491 1_565 S
C549 C548 1.400 1_565 S
C549 C550 1.398 . S
C550 H538 0.950 . S
C550 C549 1.398 . S
C550 C551 1.391 . S
C551 H539 0.950 . S
C551 C547 1.393 . S
C551 C550 1.391 . S
H552 C560 0.950 . S
H553 C565 0.950 . S
H554 C562 0.950 . S
H555 C564 0.950 . S
H556 C566 0.950 . S
H557 C568 0.950 . S
H558 C570 0.950 . S
H559 C571 0.950 . S
C560 H552 0.950 . S
C560 C561 1.386 . S
C560 C562 1.391 . S
C561 C560 1.386 . S
C561 C565 1.393 . S
C562 H554 0.950 . S
C562 C560 1.391 . S
C562 C563 1.400 . S
C563 C562 1.400 . S
C563 C564 1.398 . S
C563 C569 1.491 . S
C564 H555 0.950 . S
C564 C563 1.398 . S
C564 C565 1.391 . S
C565 H553 0.950 . S
C565 C561 1.393 . S
C565 C564 1.391 . S
C566 H556 0.950 . S
C566 C567 1.386 . S
C566 C568 1.391 . S
C567 C566 1.386 . S
C567 C571 1.393 . S
C568 H557 0.950 . S
C568 C566 1.391 . S
C568 C569 1.400 . S
C569 C563 1.491 . S
C569 C568 1.400 . S
C569 C570 1.398 . S
C570 H558 0.950 . S
C570 C569 1.398 . S
C570 C571 1.391 . S
C571 H559 0.950 . S
C571 C567 1.393 . S
C571 C570 1.391 . S
H572 C580 0.950 . S
H573 C585 0.950 . S
H574 C582 0.950 . S
H575 C584 0.950 . S
H576 C586 0.950 . S
H577 C588 0.950 . S
H578 C590 0.950 . S
H579 C591 0.950 . S
C580 H572 0.950 . S
C580 C581 1.386 . S
C580 C582 1.391 . S
C581 C580 1.386 . S
C581 C585 1.393 1_545 S
C582 H574 0.950 . S
C582 C580 1.391 . S
C582 C583 1.400 . S
C583 C582 1.400 . S
C583 C584 1.398 1_545 S
C583 C589 1.491 1_545 S
C584 H575 0.950 . S
C584 C583 1.398 1_565 S
C584 C585 1.391 . S
C585 H573 0.950 . S
C585 C581 1.393 1_565 S
C585 C584 1.391 . S
C586 H576 0.950 . S
C586 C587 1.386 . S
C586 C588 1.391 1_455 S
C587 C586 1.386 . S
C587 C591 1.393 1_565 S
C588 H577 0.950 . S
C588 C586 1.391 1_655 S
C588 C589 1.400 . S
C589 C583 1.491 1_565 S
C589 C588 1.400 . S
C589 C590 1.398 1_565 S
C590 H578 0.950 . S
C590 C589 1.398 1_545 S
C590 C591 1.391 1_655 S
C591 H579 0.950 . S
C591 C587 1.393 1_545 S
C591 C590 1.391 1_455 S
H592 C600 0.950 . S
H593 C605 0.950 . S
H594 C602 0.950 . S
H595 C604 0.950 . S
H596 C606 0.950 . S
H597 C608 0.950 1_655 S
H598 C610 0.950 . S
H599 C611 0.950 . S
C600 H592 0.950 . S
C600 C601 1.386 . S
C600 C602 1.391 . S
C601 C600 1.386 . S
C601 C605 1.393 . S
C602 H594 0.950 . S
C602 C600 1.391 . S
C602 C603 1.400 . S
C603 C602 1.400 . S
C603 C604 1.398 . S
C603 C609 1.491 . S
C604 H595 0.950 . S
C604 C603 1.398 . S
C604 C605 1.391 . S
C605 H593 0.950 . S
C605 C601 1.393 . S
C605 C604 1.391 . S
C606 H596 0.950 . S
C606 C607 1.386 . S
C606 C608 1.391 1_655 S
C607 C606 1.386 . S
C607 C611 1.393 1_655 S
C608 H597 0.950 1_455 S
C608 C606 1.391 1_455 S
C608 C609 1.400 . S
C609 C603 1.491 . S
C609 C608 1.400 . S
C609 C610 1.398 . S
C610 H598 0.950 . S
C610 C609 1.398 . S
C610 C611 1.391 . S
C611 H599 0.950 . S
C611 C607 1.393 1_455 S
C611 C610 1.391 . S
H612 C620 0.950 . S
H613 C625 0.941 1_545 S
H614 C622 0.950 . S
H615 C624 0.950 . S
H616 C626 0.950 . S
H617 C628 0.950 . S
H618 C630 0.950 . S
H619 C631 0.950 1_565 S
C620 H612 0.950 . S
C620 C621 1.386 . S
C620 C622 1.391 . S
C621 C620 1.386 . S
C621 C625 1.393 . S
C622 H614 0.950 . S
C622 C620 1.391 . S
C622 C623 1.400 . S
C623 C622 1.400 . S
C623 C624 1.398 1_565 S
C623 C629 1.491 1_565 S
C624 H615 0.950 . S
C624 C623 1.398 1_545 S
C624 C625 1.391 1_545 S
C625 H613 0.941 1_565 S
C625 C621 1.393 . S
C625 C624 1.391 1_565 S
C626 H616 0.950 . S
C626 C627 1.386 . S
C626 C628 1.391 . S
C627 C626 1.386 . S
C627 C631 1.393 . S
C628 H617 0.950 . S
C628 C626 1.391 . S
C628 C629 1.400 . S
C629 C623 1.491 1_545 S
C629 C628 1.400 . S
C629 C630 1.398 1_545 S
C630 H618 0.950 . S
C630 C629 1.398 1_565 S
C630 C631 1.391 1_565 S
C631 H619 0.950 1_545 S
C631 C627 1.393 . S
C631 C630 1.391 1_545 S
H632 C640 0.950 . S
H633 C645 0.950 . S
H634 C642 0.950 . S
H635 C644 0.950 1_655 S
H636 C646 0.950 . S
H637 C648 0.950 . S
H638 C650 0.950 1_455 S
H639 C651 0.950 . S
C640 H632 0.950 . S
C640 C641 1.386 . S
C640 C642 1.391 . S
C641 C640 1.386 . S
C641 C645 1.393 . S
C642 H634 0.950 . S
C642 C640 1.391 . S
C642 C643 1.400 . S
C643 C642 1.400 . S
C643 C644 1.398 . S
C643 C649 1.491 1_455 S
C644 H635 0.950 1_455 S
C644 C643 1.398 . S
C644 C645 1.391 . S
C645 H633 0.950 . S
C645 C641 1.393 . S
C645 C644 1.391 . S
C646 H636 0.950 . S
C646 C647 1.386 . S
C646 C648 1.391 . S
C647 C646 1.386 . S
C647 C651 1.393 . S
C648 H637 0.950 . S
C648 C646 1.391 . S
C648 C649 1.400 . S
C649 C643 1.491 1_655 S
C649 C648 1.400 . S
C649 C650 1.398 . S
C650 H638 0.950 1_655 S
C650 C649 1.398 . S
C650 C651 1.391 . S
C651 H639 0.950 . S
C651 C647 1.393 . S
C651 C650 1.391 . S
H652 C660 0.950 . S
H653 C665 0.950 . S
H654 C662 0.950 . S
H655 C664 0.930 1_545 S
H656 C666 0.950 . S
H657 C668 0.950 . S
H658 C670 0.930 1_565 S
H659 C671 0.950 . S
C660 H652 0.950 . S
C660 C661 1.386 . S
C660 C662 1.391 . S
C661 C660 1.386 . S
C661 C665 1.393 . S
C662 H654 0.950 . S
C662 C660 1.391 . S
C662 C663 1.400 . S
C663 C662 1.400 . S
C663 C664 1.405 . S
C663 C669 1.491 1_565 S
C664 H655 0.930 1_565 S
C664 C663 1.405 . S
C664 C665 1.405 . S
C665 H653 0.950 . S
C665 C661 1.393 . S
C665 C664 1.405 . S
C666 H656 0.950 . S
C666 C667 1.386 . S
C666 C668 1.391 . S
C667 C666 1.386 . S
C667 C671 1.393 . S
C668 H657 0.950 . S
C668 C666 1.391 . S
C668 C669 1.400 . S
C669 C663 1.491 1_545 S
C669 C668 1.400 . S
C669 C670 1.405 . S
C670 H658 0.930 1_545 S
C670 C669 1.405 . S
C670 C671 1.405 . S
C671 H659 0.950 . S
C671 C667 1.393 . S
C671 C670 1.405 . S
H672 C680 0.950 . S
H673 C685 0.950 . S
H674 C682 0.950 . S
H675 C684 0.950 . S
H676 C686 0.950 . S
H677 C688 0.950 . S
H678 C690 0.950 . S
H679 C691 0.950 . S
C680 H672 0.950 . S
C680 C681 1.386 . S
C680 C682 1.391 . S
C681 C680 1.386 . S
C681 C685 1.393 . S
C682 H674 0.950 . S
C682 C680 1.391 . S
C682 C683 1.400 . S
C683 C682 1.400 . S
C683 C684 1.398 . S
C683 C689 1.491 1_554 S
C684 H675 0.950 . S
C684 C683 1.398 . S
C684 C685 1.391 . S
C685 H673 0.950 . S
C685 C681 1.393 . S
C685 C684 1.391 . S
C686 H676 0.950 . S
C686 C687 1.386 . S
C686 C688 1.391 . S
C687 C686 1.386 . S
C687 C691 1.393 . S
C688 H677 0.950 . S
C688 C686 1.391 . S
C688 C689 1.400 . S
C689 C683 1.491 1_556 S
C689 C688 1.400 . S
C689 C690 1.398 . S
C690 H678 0.950 . S
C690 C689 1.398 . S
C690 C691 1.391 . S
C691 H679 0.950 . S
C691 C687 1.393 . S
C691 C690 1.391 . S
H692 C700 0.950 . S
H693 C705 0.950 . S
H694 C702 0.950 1_554 S
H695 C704 0.950 1_545 S
H696 C706 0.950 . S
H697 C708 0.950 1_556 S
H698 C710 0.950 1_565 S
H699 C711 0.950 . S
C700 H692 0.950 . S
C700 C701 1.386 . S
C700 C702 1.391 . S
C701 C700 1.386 . S
C701 C705 1.393 . S
C702 H694 0.950 1_556 S
C702 C700 1.391 . S
C702 C703 1.400 . S
C703 C702 1.400 . S
C703 C704 1.398 1_455 S
C703 C709 1.491 1_466 S
C704 H695 0.950 1_565 S
C704 C703 1.398 1_655 S
C704 C705 1.391 1_655 S
C705 H693 0.950 . S
C705 C701 1.393 . S
C705 C704 1.391 1_455 S
C706 H696 0.950 . S
C706 C707 1.386 . S
C706 C708 1.391 . S
C707 C706 1.386 . S
C707 C711 1.393 . S
C708 H697 0.950 1_554 S
C708 C706 1.391 . S
C708 C709 1.400 . S
C709 C703 1.491 1_644 S
C709 C708 1.400 . S
C709 C710 1.398 1_655 S
C710 H698 0.950 1_545 S
C710 C709 1.398 1_455 S
C710 C711 1.391 1_455 S
C711 H699 0.950 . S
C711 C707 1.393 . S
C711 C710 1.391 1_655 S
H712 C720 0.950 . S
H713 C725 0.950 . S
H714 C722 0.950 . S
H715 C724 0.950 . S
H716 C726 0.950 . S
H717 C728 0.950 . S
H718 C730 0.950 . S
H719 C731 0.950 . S
C720 H712 0.950 . S
C720 C721 1.386 . S
C720 C722 1.391 . S
C721 C720 1.386 . S
C721 C725 1.393 . S
C722 H714 0.950 . S
C722 C720 1.391 . S
C722 C723 1.400 . S
C723 C722 1.400 . S
C723 C724 1.398 . S
C723 C729 1.491 . S
C724 H715 0.950 . S
C724 C723 1.398 . S
C724 C725 1.391 . S
C725 H713 0.950 . S
C725 C721 1.393 . S
C725 C724 1.391 . S
C726 H716 0.950 . S
C726 C727 1.386 . S
C726 C728 1.391 . S
C727 C726 1.386 . S
C727 C731 1.393 . S
C728 H717 0.950 . S
C728 C726 1.391 . S
C728 C729 1.400 . S
C729 C723 1.491 . S
C729 C728 1.400 . S
C729 C730 1.398 . S
C730 H718 0.950 . S
C730 C729 1.398 . S
C730 C731 1.391 . S
C731 H719 0.950 . S
C731 C727 1.393 . S
C731 C730 1.391 . S
H732 C740 0.950 . S
H733 C745 0.950 . S
H734 C742 0.950 . S
H735 C744 0.950 . S
H736 C746 0.950 . S
H737 C748 0.950 . S
H738 C750 0.950 . S
H739 C751 0.950 . S
C740 H732 0.950 . S
C740 C741 1.386 . S
C740 C742 1.391 . S
C741 C740 1.386 . S
C741 C745 1.393 . S
C742 H734 0.950 . S
C742 C740 1.391 . S
C742 C743 1.400 . S
C743 C742 1.400 . S
C743 C744 1.398 . S
C743 C749 1.491 . S
C744 H735 0.950 . S
C744 C743 1.398 . S
C744 C745 1.391 . S
C745 H733 0.950 . S
C745 C741 1.393 . S
C745 C744 1.391 . S
C746 H736 0.950 . S
C746 C747 1.386 . S
C746 C748 1.391 . S
C747 C746 1.386 . S
C747 C751 1.393 . S
C748 H737 0.950 . S
C748 C746 1.391 . S
C748 C749 1.400 . S
C749 C743 1.491 . S
C749 C748 1.400 . S
C749 C750 1.398 . S
C750 H738 0.950 . S
C750 C749 1.398 . S
C750 C751 1.391 . S
C751 H739 0.950 . S
C751 C747 1.393 . S
C751 C750 1.391 . S
H752 C760 0.950 . S
H753 C765 0.950 . S
H754 C762 0.950 . S
H755 C764 0.950 . S
H756 C766 0.950 . S
H757 C768 0.950 . S
H758 C770 0.950 . S
H759 C771 0.950 . S
C760 H752 0.950 . S
C760 C761 1.386 . S
C760 C762 1.391 . S
C761 C760 1.386 . S
C761 C765 1.393 . S
C762 H754 0.950 . S
C762 C760 1.391 . S
C762 C763 1.400 . S
C763 C762 1.400 . S
C763 C764 1.398 . S
C763 C769 1.491 . S
C764 H755 0.950 . S
C764 C763 1.398 . S
C764 C765 1.391 . S
C765 H753 0.950 . S
C765 C761 1.393 . S
C765 C764 1.391 . S
C766 H756 0.950 . S
C766 C767 1.386 . S
C766 C768 1.391 . S
C767 C766 1.386 . S
C767 C771 1.393 . S
C768 H757 0.950 . S
C768 C766 1.391 . S
C768 C769 1.400 . S
C769 C763 1.491 . S
C769 C768 1.400 . S
C769 C770 1.398 . S
C770 H758 0.950 . S
C770 C769 1.398 . S
C770 C771 1.391 . S
C771 H759 0.950 . S
C771 C767 1.393 . S
C771 C770 1.391 . S
H772 C780 0.950 . S
H773 C785 0.950 . S
H774 C782 0.950 . S
H775 C784 0.950 . S
H776 C786 0.950 . S
H777 C788 0.950 . S
H778 C790 0.950 . S
H779 C791 0.950 . S
C780 H772 0.950 . S
C780 C781 1.386 . S
C780 C782 1.391 . S
C781 C780 1.386 . S
C781 C785 1.393 . S
C782 H774 0.950 . S
C782 C780 1.391 . S
C782 C783 1.400 . S
C783 C782 1.400 . S
C783 C784 1.398 . S
C783 C789 1.491 . S
C784 H775 0.950 . S
C784 C783 1.398 . S
C784 C785 1.391 . S
C785 H773 0.950 . S
C785 C781 1.393 . S
C785 C784 1.391 . S
C786 H776 0.950 . S
C786 C787 1.386 . S
C786 C788 1.391 . S
C787 C786 1.386 . S
C787 C791 1.393 . S
C788 H777 0.950 . S
C788 C786 1.391 . S
C788 C789 1.400 . S
C789 C783 1.491 . S
C789 C788 1.400 . S
C789 C790 1.398 . S
C790 H778 0.950 . S
C790 C789 1.398 . S
C790 C791 1.391 . S
C791 H779 0.950 . S
C791 C787 1.393 . S
C791 C790 1.391 . S
C481 C3 1.569 . S
C487 C170 1.568 . S
C501 C229 1.569 . S
C507 C62 1.566 . S
C521 C121 1.566 . S
C527 C52 1.569 . S
C541 C180 1.559 . S
C547 C111 1.560 . S
C561 C406 1.561 . S
C567 C239 1.570 . S
C581 C298 1.559 . S
C587 C465 1.562 . S
C601 C357 1.568 . S
C607 C288 1.568 . S
C621 C416 1.563 . S
C627 C347 1.557 . S
C641 C33 1.592 . S
C647 C269 1.592 . S
C661 C92 1.585 . S
C667 C328 1.585 . S
C681 C151 1.587 . S
C687 C387 1.587 . S
C701 C446 1.587 . S
C707 C210 1.587 . S
C721 C5 1.651 . S
C727 C64 1.651 . S
C741 C182 1.647 . S
C747 C123 1.645 . S
C761 C300 1.645 . S
C767 C241 1.647 . S
C781 C359 1.647 . S
C787 C418 1.645 . S
