# Generated by pormake.
# Topology ukh, (4)-cn, num edge types: 1
# Building blocks:
#     Node 0, Type 0, BuildingBlock: KUFVIS_clean_sbu_0, # of connection points: 4
#     Node 1, Type 0, BuildingBlock: KUFVIS_clean_sbu_0, # of connection points: 4
#     Node 2, Type 0, BuildingBlock: KUFVIS_clean_sbu_0, # of connection points: 4
#     Node 3, Type 0, BuildingBlock: KUFVIS_clean_sbu_0, # of connection points: 4
#     Node 4, Type 0, BuildingBlock: KUFVIS_clean_sbu_0, # of connection points: 4
#     Node 5, Type 0, BuildingBlock: KUFVIS_clean_sbu_0, # of connection points: 4
#     Node 6, Type 0, BuildingBlock: KUFVIS_clean_sbu_0, # of connection points: 4
#     Node 7, Type 0, BuildingBlock: KUFVIS_clean_sbu_0, # of connection points: 4
#     Node 8, Type 0, BuildingBlock: KUFVIS_clean_sbu_0, # of connection points: 4
#     Node 9, Type 0, BuildingBlock: KUFVIS_clean_sbu_0, # of connection points: 4
#     Node 10, Type 0, BuildingBlock: KUFVIS_clean_sbu_0, # of connection points: 4
#     Node 11, Type 0, BuildingBlock: KUFVIS_clean_sbu_0, # of connection points: 4
#     Edge 12, Type (0, 0), BuildingBlock: MIFKUJ_clean_linker_0, # of connection points: 2
#     Edge 13, Type (0, 0), BuildingBlock: MIFKUJ_clean_linker_0, # of connection points: 2
#     Edge 14, Type (0, 0), BuildingBlock: MIFKUJ_clean_linker_0, # of connection points: 2
#     Edge 15, Type (0, 0), BuildingBlock: MIFKUJ_clean_linker_0, # of connection points: 2
#     Edge 16, Type (0, 0), BuildingBlock: MIFKUJ_clean_linker_0, # of connection points: 2
#     Edge 17, Type (0, 0), BuildingBlock: MIFKUJ_clean_linker_0, # of connection points: 2
#     Edge 18, Type (0, 0), BuildingBlock: MIFKUJ_clean_linker_0, # of connection points: 2
#     Edge 19, Type (0, 0), BuildingBlock: MIFKUJ_clean_linker_0, # of connection points: 2
#     Edge 20, Type (0, 0), BuildingBlock: MIFKUJ_clean_linker_0, # of connection points: 2
#     Edge 21, Type (0, 0), BuildingBlock: MIFKUJ_clean_linker_0, # of connection points: 2
#     Edge 22, Type (0, 0), BuildingBlock: MIFKUJ_clean_linker_0, # of connection points: 2
#     Edge 23, Type (0, 0), BuildingBlock: MIFKUJ_clean_linker_0, # of connection points: 2
#     Edge 24, Type (0, 0), BuildingBlock: MIFKUJ_clean_linker_0, # of connection points: 2
#     Edge 25, Type (0, 0), BuildingBlock: MIFKUJ_clean_linker_0, # of connection points: 2
#     Edge 26, Type (0, 0), BuildingBlock: MIFKUJ_clean_linker_0, # of connection points: 2
#     Edge 27, Type (0, 0), BuildingBlock: MIFKUJ_clean_linker_0, # of connection points: 2
#     Edge 28, Type (0, 0), BuildingBlock: MIFKUJ_clean_linker_0, # of connection points: 2
#     Edge 29, Type (0, 0), BuildingBlock: MIFKUJ_clean_linker_0, # of connection points: 2
#     Edge 30, Type (0, 0), BuildingBlock: MIFKUJ_clean_linker_0, # of connection points: 2
#     Edge 31, Type (0, 0), BuildingBlock: MIFKUJ_clean_linker_0, # of connection points: 2
#     Edge 32, Type (0, 0), BuildingBlock: MIFKUJ_clean_linker_0, # of connection points: 2
#     Edge 33, Type (0, 0), BuildingBlock: MIFKUJ_clean_linker_0, # of connection points: 2
#     Edge 34, Type (0, 0), BuildingBlock: MIFKUJ_clean_linker_0, # of connection points: 2
#     Edge 35, Type (0, 0), BuildingBlock: MIFKUJ_clean_linker_0, # of connection points: 2
# Relax obj value: 0.084
# Max RMSD: 0.124
# Mean RMSD: 0.124
data_MOF--net-ukh--node1-KUFVIS_clean_sbu_0--edge1-MIFKUJ_clean_linker_0
_symmetry_space_group_name_H-M    P1
_symmetry_Int_Tables_number       1
_symmetry_cell_setting            triclinic
loop_
_symmetry_equiv_pos_as_xyz
'x, y, z'
_cell_length_a     41.95339
_cell_length_b     41.926948
_cell_length_c     79.258274
_cell_angle_alpha  90.019452
_cell_angle_beta   90.015177
_cell_angle_gamma 119.95646
loop_
_atom_site_label
_atom_site_type_symbol
_atom_site_fract_x
_atom_site_fract_y
_atom_site_fract_z
_atom_type_partial_charge
Mn0 Mn 0.30992 0.22934 0.0494 0.0
Mn1 Mn 0.27264 0.26803 0.07408 0.0
C2 C 0.26505 0.24033 0.03851 0.0
C3 C 0.30905 0.17608 0.03999 0.0
C4 C 0.34675 0.3122 0.05686 0.0
O5 O 0.32616 0.22387 0.0729 0.0
O6 O 0.29836 0.24847 0.0879 0.0
C7 C 0.21707 0.1997 0.09099 0.0
N8 N 0.22571 0.23071 0.08205 0.0
C9 C 0.16331 0.21843 0.08346 0.0
C10 C 0.15375 0.18646 0.09278 0.0
C11 C 0.18072 0.17696 0.09649 0.0
C12 C 0.19992 0.23986 0.07825 0.0
H13 H 0.23777 0.19242 0.09393 0.0
C14 C 0.31778 0.23283 0.08687 0.0
O15 O 0.33858 0.20813 0.03864 0.0
O16 O 0.28066 0.17497 0.04699 0.0
N17 N 0.24624 0.28818 0.06298 0.0
C18 C 0.2595 0.31863 0.05302 0.0
C19 C 0.23622 0.33219 0.04836 0.0
C20 C 0.19957 0.31426 0.05398 0.0
C21 C 0.18627 0.28243 0.06384 0.0
C22 C 0.21096 0.27069 0.06839 0.0
H23 H 0.28767 0.33259 0.04877 0.0
O24 O 0.28686 0.23543 0.02865 0.0
O25 O 0.26914 0.23745 0.05464 0.0
O26 O 0.34756 0.2852 0.04971 0.0
O27 O 0.32024 0.30839 0.0662 0.0
C28 C 0.14946 0.26186 0.0693 0.0
C29 C 0.13792 0.2297 0.07899 0.0
H30 H 0.12575 0.16889 0.09706 0.0
H31 H 0.17353 0.15226 0.10361 0.0
H32 H 0.2467 0.35669 0.04067 0.0
H33 H 0.18192 0.32528 0.0508 0.0
H34 H 0.12971 0.27025 0.06593 0.0
H35 H 0.10943 0.21378 0.0829 0.0
Mn36 Mn 0.09578 0.32253 0.38221 0.0
Mn37 Mn 0.02287 0.29813 0.40791 0.0
C38 C 0.03716 0.28088 0.37283 0.0
C39 C 0.14327 0.31238 0.37321 0.0
C40 C 0.06055 0.37002 0.38853 0.0
O41 O 0.11969 0.34089 0.40527 0.0
O42 O 0.0688 0.31943 0.42123 0.0
C43 C 0.02516 0.2378 0.42624 0.0
N44 N 0.00628 0.2501 0.41686 0.0
C45 C 0.95046 0.19169 0.41904 0.0
C46 C 0.96923 0.17839 0.4288 0.0
C47 C 0.00679 0.20151 0.43234 0.0
C48 C 0.97028 0.22801 0.41323 0.0
H49 H 0.05398 0.25559 0.42906 0.0
C50 C 0.10375 0.3359 0.41953 0.0
O51 O 0.1452 0.34402 0.37095 0.0
O52 O 0.11451 0.28746 0.38106 0.0
N53 N 0.976 0.27696 0.39708 0.0
C54 C 0.96237 0.29366 0.387 0.0
C55 C 0.92501 0.2746 0.38255 0.0
C56 C 0.90209 0.2387 0.38857 0.0
C57 C 0.91688 0.22182 0.39863 0.0
C58 C 0.95412 0.24243 0.40294 0.0
H59 H 0.97971 0.32155 0.38265 0.0
O60 O 0.06394 0.29832 0.36225 0.0
O61 O 0.04565 0.28744 0.38875 0.0
O62 O 0.08412 0.36482 0.3806 0.0
O63 O 0.03753 0.34743 0.39917 0.0
C64 C 0.8961 0.18544 0.40465 0.0
C65 C 0.91296 0.17028 0.41473 0.0
H66 H 0.95513 0.15044 0.43355 0.0
H67 H 0.02149 0.19141 0.43982 0.0
H68 H 0.91378 0.28778 0.37474 0.0
H69 H 0.87307 0.22445 0.38558 0.0
H70 H 0.86724 0.16878 0.40146 0.0
H71 H 0.89685 0.14212 0.41909 0.0
Mn72 Mn 0.77045 0.08664 0.71674 0.0
Mn73 Mn 0.72025 0.00953 0.73971 0.0
C74 C 0.75083 0.0297 0.70487 0.0
C75 C 0.82852 0.13267 0.70786 0.0
C76 C 0.68859 0.05408 0.72438 0.0
O77 O 0.77829 0.10593 0.74086 0.0
O78 O 0.74703 0.05233 0.75502 0.0
C79 C 0.78145 0.00434 0.75547 0.0
N80 N 0.75037 0.9891 0.74588 0.0
C81 C 0.75323 0.93367 0.74189 0.0
C82 C 0.78515 0.94868 0.75182 0.0
C83 C 0.79935 0.98419 0.75861 0.0
C84 C 0.73651 0.95498 0.73925 0.0
H85 H 0.79253 0.0317 0.76064 0.0
C86 C 0.76709 0.08748 0.75454 0.0
O87 O 0.80038 0.13776 0.70721 0.0
O88 O 0.82311 0.10213 0.71441 0.0
N89 N 0.69293 0.9659 0.72647 0.0
C90 C 0.66285 0.95608 0.71658 0.0
C91 C 0.64564 0.92156 0.70859 0.0
C92 C 0.65938 0.89742 0.71094 0.0
C93 C 0.69016 0.90799 0.72129 0.0
C94 C 0.70591 0.94257 0.72908 0.0
H95 H 0.65214 0.9745 0.71474 0.0
O96 O 0.76028 0.05813 0.69532 0.0
O97 O 0.75348 0.03556 0.72103 0.0
O98 O 0.71761 0.07819 0.71678 0.0
O99 O 0.68722 0.02828 0.73349 0.0
C100 C 0.70619 0.88583 0.72398 0.0
C101 C 0.73775 0.8987 0.73424 0.0
H102 H 0.79915 0.93332 0.7542 0.0
H103 H 0.82408 0.99604 0.76622 0.0
H104 H 0.6219 0.9136 0.70061 0.0
H105 H 0.64616 0.87092 0.70467 0.0
H106 H 0.69476 0.85906 0.71804 0.0
H107 H 0.75012 0.88162 0.73603 0.0
Mn108 Mn 0.68399 0.76849 0.05058 0.0
Mn109 Mn 0.72214 0.72601 0.07191 0.0
C110 C 0.72735 0.75822 0.03771 0.0
C111 C 0.68564 0.82331 0.04304 0.0
C112 C 0.64627 0.68484 0.05605 0.0
O113 O 0.67068 0.77208 0.07487 0.0
O114 O 0.69809 0.74427 0.08774 0.0
C115 C 0.77996 0.7919 0.08953 0.0
N116 N 0.77014 0.76226 0.07933 0.0
C117 C 0.83297 0.77609 0.07709 0.0
C118 C 0.84374 0.80664 0.08765 0.0
C119 C 0.81713 0.81463 0.09385 0.0
C120 C 0.79555 0.7545 0.07319 0.0
H121 H 0.7596 0.79814 0.09432 0.0
C122 C 0.6794 0.76082 0.08809 0.0
O123 O 0.65535 0.79178 0.04191 0.0
O124 O 0.7141 0.82282 0.049 0.0
N125 N 0.74693 0.70703 0.05852 0.0
C126 C 0.73228 0.67753 0.04789 0.0
C127 C 0.75522 0.66578 0.04066 0.0
C128 C 0.79294 0.68433 0.04449 0.0
C129 C 0.80746 0.71476 0.05536 0.0
C130 C 0.78317 0.72489 0.06238 0.0
H131 H 0.70337 0.66327 0.04486 0.0
O132 O 0.7049 0.76398 0.02873 0.0
O133 O 0.72421 0.75911 0.054 0.0
O134 O 0.6455 0.71296 0.05022 0.0
O135 O 0.67345 0.68693 0.06429 0.0
C136 C 0.84516 0.73569 0.05935 0.0
C137 C 0.85794 0.76646 0.07013 0.0
H138 H 0.87238 0.82425 0.09101 0.0
H139 H 0.82524 0.83824 0.10196 0.0
H140 H 0.74386 0.64245 0.03216 0.0
H141 H 0.81053 0.67508 0.03897 0.0
H142 H 0.86462 0.72864 0.05401 0.0
H143 H 0.88705 0.78263 0.07293 0.0
Mn144 Mn 0.91309 0.68391 0.38373 0.0
Mn145 Mn 0.99147 0.71578 0.40634 0.0
C146 C 0.96915 0.72355 0.37125 0.0
C147 C 0.8633 0.69117 0.37562 0.0
C148 C 0.95052 0.63892 0.39126 0.0
O149 O 0.89449 0.67165 0.40799 0.0
O150 O 0.94879 0.69844 0.42158 0.0
C151 C 0.99281 0.78073 0.4218 0.0
N152 N 0.00967 0.7659 0.41263 0.0
C153 C 0.06564 0.82431 0.411 0.0
C154 C 0.04896 0.84024 0.42048 0.0
C155 C 0.01232 0.81839 0.42583 0.0
C156 C 0.04472 0.78673 0.40727 0.0
H157 H 0.96474 0.76392 0.42601 0.0
C158 C 0.91363 0.68124 0.4215 0.0
O159 O 0.8614 0.65929 0.37467 0.0
O160 O 0.89346 0.71806 0.38165 0.0
N161 N 0.03566 0.73379 0.3935 0.0
C162 C 0.04714 0.71443 0.38392 0.0
C163 C 0.08346 0.73197 0.37794 0.0
C164 C 0.10755 0.76908 0.38193 0.0
C165 C 0.09485 0.7887 0.3914 0.0
C166 C 0.05865 0.76958 0.39732 0.0
H167 H 0.02899 0.68563 0.38121 0.0
O168 O 0.9404 0.70312 0.3621 0.0
O169 O 0.96411 0.72088 0.3875 0.0
O170 O 0.92515 0.6418 0.38366 0.0
O171 O 0.97539 0.66449 0.40027 0.0
C172 C 0.11679 0.82637 0.39533 0.0
C173 C 0.10207 0.84425 0.40499 0.0
H174 H 0.06395 0.86925 0.42365 0.0
H175 H 0.99923 0.8305 0.43311 0.0
H176 H 0.09308 0.71672 0.37056 0.0
H177 H 0.13591 0.78215 0.3779 0.0
H178 H 0.14488 0.84191 0.39085 0.0
H179 H 0.119 0.87334 0.40773 0.0
Mn180 Mn 0.23198 0.92342 0.72068 0.0
Mn181 Mn 0.27986 0.99766 0.74565 0.0
C182 C 0.24667 0.98132 0.71121 0.0
C183 C 0.17474 0.8746 0.71226 0.0
C184 C 0.31486 0.9603 0.72659 0.0
O185 O 0.22835 0.90076 0.74391 0.0
O186 O 0.25652 0.95254 0.75957 0.0
C187 C 0.21754 0.99557 0.76408 0.0
N188 N 0.24766 0.01385 0.75402 0.0
C189 C 0.24248 0.0684 0.75436 0.0
C190 C 0.21146 0.05027 0.76478 0.0
C191 C 0.19878 0.01359 0.76956 0.0
C192 C 0.25955 0.04879 0.74901 0.0
H193 H 0.20804 0.96753 0.76794 0.0
C194 C 0.23931 0.91748 0.75803 0.0
O195 O 0.20487 0.87365 0.7097 0.0
O196 O 0.17796 0.90315 0.7201 0.0
N197 N 0.30427 0.04355 0.7339 0.0
C198 C 0.33501 0.05734 0.7241 0.0
C199 C 0.351 0.09362 0.71809 0.0
C200 C 0.33582 0.11562 0.72261 0.0
C201 C 0.3048 0.10113 0.7331 0.0
C202 C 0.28971 0.06463 0.73848 0.0
H203 H 0.34722 0.04078 0.72084 0.0
O204 O 0.23754 0.95458 0.70061 0.0
O205 O 0.24588 0.97313 0.72705 0.0
O206 O 0.28626 0.93656 0.71861 0.0
O207 O 0.31486 0.98314 0.73725 0.0
C208 C 0.28882 0.12175 0.73878 0.0
C209 C 0.25751 0.10534 0.7493 0.0
H210 H 0.19721 0.06424 0.7692 0.0
H211 H 0.17484 0.99938 0.77759 0.0
H212 H 0.37515 0.10469 0.71013 0.0
H213 H 0.3484 0.1437 0.71808 0.0
H214 H 0.30079 0.1504 0.73529 0.0
H215 H 0.24553 0.1215 0.75367 0.0
Mn216 Mn 0.76824 0.67904 0.62108 0.0
Mn217 Mn 0.71797 0.70014 0.59478 0.0
C218 C 0.74703 0.7175 0.63022 0.0
C219 C 0.82628 0.69221 0.63089 0.0
C220 C 0.68604 0.62824 0.61405 0.0
O221 O 0.7772 0.66296 0.59818 0.0
O222 O 0.74419 0.67984 0.5819 0.0
C223 C 0.78045 0.76164 0.57695 0.0
N224 N 0.7485 0.74834 0.5858 0.0
C225 C 0.74937 0.80595 0.58337 0.0
C226 C 0.78217 0.82024 0.57413 0.0
C227 C 0.79791 0.79806 0.57101 0.0
C228 C 0.73345 0.7696 0.5891 0.0
H229 H 0.79253 0.74459 0.57448 0.0
C230 C 0.76494 0.66591 0.5839 0.0
O231 O 0.79762 0.65966 0.63275 0.0
O232 O 0.82117 0.71641 0.62308 0.0
N233 N 0.69047 0.72005 0.60501 0.0
C234 C 0.6596 0.70255 0.61469 0.0
C235 C 0.64015 0.7207 0.61874 0.0
C236 C 0.65254 0.75653 0.61277 0.0
C237 C 0.68461 0.77416 0.60302 0.0
C238 C 0.70237 0.7544 0.59905 0.0
H239 H 0.64952 0.67472 0.61903 0.0
O240 O 0.75706 0.70082 0.64093 0.0
O241 O 0.75078 0.71217 0.61432 0.0
O242 O 0.7154 0.63441 0.62177 0.0
O243 O 0.68465 0.65087 0.60371 0.0
C244 C 0.69957 0.81049 0.59703 0.0
C245 C 0.73213 0.8265 0.58734 0.0
H246 H 0.79568 0.84828 0.5695 0.0
H247 H 0.8234 0.80904 0.56404 0.0
H248 H 0.61534 0.7069 0.6262 0.0
H249 H 0.63701 0.77014 0.61559 0.0
H250 H 0.68649 0.8265 0.59997 0.0
H251 H 0.74371 0.85465 0.58303 0.0
Mn252 Mn 0.09458 0.76879 0.95453 0.0
Mn253 Mn 0.02211 0.72223 0.92833 0.0
C254 C 0.03624 0.75384 0.96341 0.0
C255 C 0.14328 0.82549 0.96351 0.0
C256 C 0.05655 0.68566 0.94846 0.0
O257 O 0.11909 0.77331 0.93176 0.0
O258 O 0.06861 0.74491 0.91547 0.0
C259 C 0.02869 0.78634 0.90962 0.0
N260 N 0.00815 0.75535 0.9189 0.0
C261 C 0.9542 0.7611 0.91586 0.0
C262 C 0.9747 0.793 0.9062 0.0
C263 C 0.01216 0.80576 0.90313 0.0
C264 C 0.97226 0.7431 0.92209 0.0
H265 H 0.05744 0.7961 0.90717 0.0
C266 C 0.10349 0.76241 0.91744 0.0
O267 O 0.14347 0.79501 0.96627 0.0
O268 O 0.11541 0.82298 0.95533 0.0
N269 N 0.97459 0.69836 0.93859 0.0
C270 C 0.95909 0.66781 0.94855 0.0
C271 C 0.92152 0.65102 0.95249 0.0
C272 C 0.90032 0.66566 0.94606 0.0
C273 C 0.91699 0.69745 0.93609 0.0
C274 C 0.95433 0.71254 0.9323 0.0
H275 H 0.97508 0.65594 0.95319 0.0
O276 O 0.06258 0.7626 0.97419 0.0
O277 O 0.04507 0.75548 0.94755 0.0
O278 O 0.08073 0.7142 0.95636 0.0
O279 O 0.03428 0.68618 0.93763 0.0
C280 C 0.89797 0.71459 0.92965 0.0
C281 C 0.91665 0.7466 0.91967 0.0
H282 H 0.96202 0.80799 0.90114 0.0
H283 H 0.02821 0.83042 0.89573 0.0
H284 H 0.90878 0.62647 0.96018 0.0
H285 H 0.87114 0.652 0.94862 0.0
H286 H 0.86907 0.70358 0.93244 0.0
H287 H 0.90188 0.75983 0.91499 0.0
Mn288 Mn 0.32174 0.08901 0.28348 0.0
Mn289 Mn 0.28693 0.01025 0.26088 0.0
C290 C 0.27673 0.03432 0.29489 0.0
C291 C 0.31782 0.14101 0.29114 0.0
C292 C 0.3604 0.0436 0.27898 0.0
O293 O 0.33861 0.10797 0.25968 0.0
O294 O 0.31325 0.05378 0.24593 0.0
C295 C 0.23161 0.02023 0.24198 0.0
N296 N 0.24007 0.99928 0.25212 0.0
C297 C 0.17694 0.95045 0.25261 0.0
C298 C 0.16759 0.97138 0.24207 0.0
C299 C 0.195 0.00651 0.23683 0.0
C300 C 0.21381 0.96568 0.25745 0.0
H301 H 0.25259 0.04726 0.23792 0.0
C302 C 0.33203 0.089 0.24621 0.0
O303 O 0.34819 0.14024 0.29327 0.0
O304 O 0.29084 0.11248 0.2841 0.0
N305 N 0.26028 0.96541 0.27337 0.0
C306 C 0.2734 0.94961 0.2843 0.0
C307 C 0.24951 0.9143 0.29069 0.0
C308 C 0.21241 0.89557 0.28575 0.0
C309 C 0.19941 0.91252 0.27466 0.0
C310 C 0.22465 0.94747 0.26846 0.0
H311 H 0.30178 0.96395 0.28821 0.0
O312 O 0.2977 0.06175 0.3046 0.0
O313 O 0.28232 0.03973 0.27876 0.0
O314 O 0.36039 0.07207 0.28493 0.0
O315 O 0.33441 0.01923 0.26992 0.0
C316 C 0.1623 0.89628 0.26966 0.0
C317 C 0.15103 0.91535 0.25873 0.0
H318 H 0.13941 0.96092 0.23807 0.0
H319 H 0.18786 0.02298 0.22889 0.0
H320 H 0.25967 0.90155 0.29939 0.0
H321 H 0.19411 0.86823 0.29061 0.0
H322 H 0.14212 0.86937 0.27435 0.0
H323 H 0.12232 0.90284 0.25519 0.0
Mn324 Mn 0.23186 0.31949 0.6153 0.0
Mn325 Mn 0.2864 0.30187 0.59018 0.0
C326 C 0.24685 0.27543 0.62292 0.0
C327 C 0.17367 0.30863 0.62334 0.0
C328 C 0.31604 0.36608 0.61423 0.0
O329 O 0.23058 0.34342 0.59315 0.0
O330 O 0.26806 0.33064 0.5779 0.0
C331 C 0.22826 0.25233 0.56635 0.0
N332 N 0.25555 0.2585 0.57746 0.0
C333 C 0.24826 0.19882 0.57199 0.0
C334 C 0.22018 0.19183 0.56044 0.0
C335 C 0.20998 0.21863 0.55769 0.0
C336 C 0.26499 0.23261 0.58048 0.0
H337 H 0.22057 0.27298 0.56407 0.0
C338 C 0.24763 0.34506 0.57957 0.0
O339 O 0.20326 0.33927 0.62712 0.0
O340 O 0.17789 0.28519 0.61433 0.0
N341 N 0.30646 0.27408 0.60001 0.0
C342 C 0.33464 0.28541 0.61128 0.0
C343 C 0.34788 0.26162 0.61555 0.0
C344 C 0.33302 0.22706 0.60771 0.0
C345 C 0.30491 0.21656 0.59574 0.0
C346 C 0.29223 0.24102 0.59228 0.0
H347 H 0.34679 0.31231 0.61704 0.0
O348 O 0.23563 0.29018 0.63411 0.0
O349 O 0.24797 0.28596 0.6074 0.0
O350 O 0.28513 0.3606 0.61979 0.0
O351 O 0.31973 0.34594 0.60324 0.0
C352 C 0.28953 0.18312 0.58681 0.0
C353 C 0.26079 0.17389 0.57518 0.0
H354 H 0.20634 0.16605 0.55359 0.0
H355 H 0.18831 0.21346 0.54882 0.0
H356 H 0.36973 0.27005 0.62473 0.0
H357 H 0.34358 0.20893 0.61088 0.0
H358 H 0.30023 0.16474 0.58854 0.0
H359 H 0.24899 0.14784 0.56855 0.0
Mn360 Mn 0.89244 0.22216 0.956 0.0
Mn361 Mn 0.97028 0.27105 0.93327 0.0
C362 C 0.94833 0.23442 0.96701 0.0
C363 C 0.84219 0.16479 0.96309 0.0
C364 C 0.93113 0.30551 0.95132 0.0
O365 O 0.87332 0.22032 0.93213 0.0
O366 O 0.92718 0.24902 0.91799 0.0
C367 C 0.97078 0.21036 0.9144 0.0
N368 N 0.98763 0.23956 0.92511 0.0
C369 C 0.04145 0.23317 0.92679 0.0
C370 C 0.02471 0.20307 0.91574 0.0
C371 C 0.98921 0.19158 0.90955 0.0
C372 C 0.02178 0.25084 0.93115 0.0
H373 H 0.94351 0.2015 0.90959 0.0
C374 C 0.89196 0.23176 0.91851 0.0
O375 O 0.84135 0.19502 0.96559 0.0
O376 O 0.87141 0.16801 0.95596 0.0
N377 N 0.01425 0.29388 0.94655 0.0
C378 C 0.0258 0.32232 0.95768 0.0
C379 C 0.06059 0.33676 0.96523 0.0
C380 C 0.08329 0.32214 0.96111 0.0
C381 C 0.07083 0.29291 0.94961 0.0
C382 C 0.036 0.27981 0.9424 0.0
H383 H 0.00863 0.33392 0.96078 0.0
O384 O 0.92056 0.22566 0.97691 0.0
O385 O 0.94248 0.23539 0.95098 0.0
O386 O 0.90608 0.27655 0.95857 0.0
O387 O 0.95513 0.30581 0.94134 0.0
C388 C 0.09136 0.27592 0.94521 0.0
C389 C 0.07664 0.246 0.93384 0.0
H390 H 0.03877 0.18843 0.91201 0.0
H391 H 0.97611 0.16831 0.90105 0.0
H392 H 0.06996 0.35923 0.97415 0.0
H393 H 0.11018 0.33352 0.96689 0.0
H394 H 0.11829 0.28531 0.95066 0.0
H395 H 0.09249 0.23285 0.93071 0.0
Mn396 Mn 0.68656 0.91087 0.28618 0.0
Mn397 Mn 0.72695 0.98948 0.2634 0.0
C398 C 0.73166 0.9646 0.29826 0.0
C399 C 0.68723 0.8574 0.29425 0.0
C400 C 0.65199 0.95948 0.2799 0.0
O401 O 0.67127 0.89219 0.26225 0.0
O402 O 0.70082 0.94602 0.24836 0.0
C403 C 0.782 0.97632 0.24621 0.0
N404 N 0.77394 0.99815 0.25594 0.0
C405 C 0.83774 0.04503 0.25742 0.0
C406 C 0.84671 0.02315 0.24733 0.0
C407 C 0.81872 0.98859 0.24175 0.0
C408 C 0.80067 0.03129 0.26149 0.0
H409 H 0.76059 0.94974 0.24188 0.0
C410 C 0.68049 0.91094 0.24867 0.0
O411 O 0.65746 0.85955 0.29575 0.0
O412 O 0.71551 0.88553 0.28773 0.0
N413 N 0.75389 0.03433 0.27587 0.0
C414 C 0.74084 0.05156 0.28597 0.0
C415 C 0.76531 0.08658 0.29252 0.0
C416 C 0.80289 0.10363 0.28853 0.0
C417 C 0.81573 0.08538 0.27815 0.0
C418 C 0.78998 0.05073 0.27182 0.0
H419 H 0.71205 0.03855 0.28913 0.0
O420 O 0.70904 0.93731 0.30762 0.0
O421 O 0.72793 0.95946 0.28203 0.0
O422 O 0.64982 0.93039 0.28639 0.0
O423 O 0.67937 0.9827 0.2711 0.0
C424 C 0.85312 0.10003 0.274 0.0
C425 C 0.86415 0.07977 0.26372 0.0
H426 H 0.87501 0.03252 0.24387 0.0
H427 H 0.82543 0.97149 0.234 0.0
H428 H 0.75523 0.10039 0.30062 0.0
H429 H 0.82168 0.13069 0.29354 0.0
H430 H 0.87368 0.12665 0.27882 0.0
H431 H 0.89303 0.09114 0.26078 0.0
H432 H 0.57422 0.66469 0.04925 0.0
H433 H 0.52177 0.60173 0.04649 0.0
H434 H 0.59456 0.55793 0.05309 0.0
H435 H 0.6464 0.61992 0.05651 0.0
H436 H 0.53764 0.52471 0.02536 0.0
H437 H 0.55529 0.55655 0.08534 0.0
H438 H 0.56109 0.59642 0.1094 0.0
H439 H 0.45443 0.58199 0.09842 0.0
H440 H 0.44828 0.54246 0.07411 0.0
H441 H 0.41808 0.3358 0.04676 0.0
H442 H 0.46835 0.39965 0.0441 0.0
H443 H 0.39373 0.4384 0.05744 0.0
H444 H 0.34465 0.37552 0.06114 0.0
H445 H 0.45116 0.47635 0.07367 0.0
H446 H 0.42864 0.44185 0.01555 0.0
H447 H 0.42088 0.40444 0.99023 0.0
H448 H 0.53174 0.42581 0.99536 0.0
H449 H 0.54002 0.46297 0.02086 0.0
C450 C 0.57905 0.64165 0.04994 0.0
C451 C 0.61454 0.64743 0.05311 0.0
C452 C 0.54913 0.60578 0.04834 0.0
C453 C 0.55448 0.57533 0.0495 0.0
C454 C 0.58998 0.5811 0.05202 0.0
C455 C 0.61958 0.61668 0.05402 0.0
C456 C 0.52297 0.53723 0.04946 0.0
C457 C 0.51868 0.51391 0.0359 0.0
C458 C 0.49801 0.52361 0.06308 0.0
C459 C 0.50152 0.54695 0.0778 0.0
C460 C 0.53323 0.56216 0.08797 0.0
C461 C 0.53655 0.58464 0.10167 0.0
C462 C 0.5082 0.59184 0.10541 0.0
C463 C 0.4764 0.57645 0.09549 0.0
C464 C 0.47298 0.554 0.08176 0.0
C465 C 0.41247 0.358 0.04903 0.0
C466 C 0.37727 0.35041 0.05414 0.0
C467 C 0.44116 0.39453 0.04741 0.0
C468 C 0.43488 0.42409 0.0504 0.0
C469 C 0.39952 0.41632 0.05514 0.0
C470 C 0.37128 0.3801 0.05715 0.0
C471 C 0.46514 0.46317 0.04941 0.0
C472 C 0.46955 0.48684 0.06291 0.0
C473 C 0.48966 0.47721 0.03553 0.0
C474 C 0.48481 0.45489 0.02021 0.0
C475 C 0.45127 0.43834 0.01136 0.0
C476 C 0.44679 0.41722 0.99696 0.0
C477 C 0.47576 0.41267 0.99122 0.0
C478 C 0.50931 0.42932 -0.00016 0.0
C479 C 0.51392 0.45044 0.01426 0.0
H480 H 0.47225 0.39632 0.98007 0.0
H481 H 0.51083 0.60926 0.11601 0.0
H482 H 0.04197 0.38926 0.35887 0.0
H483 H 0.01947 0.43296 0.35562 0.0
H484 H 0.04763 0.46637 0.40756 0.0
H485 H 0.06865 0.42188 0.41089 0.0
H486 H 0.97921 0.4473 0.40206 0.0
H487 H 0.09404 0.52334 0.37248 0.0
H488 H 0.14021 0.5368 0.35025 0.0
H489 H 0.0593 0.51599 0.31214 0.0
H490 H 0.01252 0.50195 0.33416 0.0
H491 H 0.97999 0.61191 0.41351 0.0
H492 H 0.99343 0.56245 0.40921 0.0
H493 H 0.94229 0.54055 0.36013 0.0
H494 H 0.92879 0.59087 0.36435 0.0
H495 H 0.01206 0.5463 0.35989 0.0
H496 H 0.8998 0.47899 0.3902 0.0
H497 H 0.85503 0.46781 0.41281 0.0
H498 H 0.93215 0.47322 0.44992 0.0
H499 H 0.9776 0.48498 0.42758 0.0
C500 C 0.04455 0.40702 0.36934 0.0
C501 C 0.05746 0.40279 0.38505 0.0
C502 C 0.0315 0.4318 0.36753 0.0
C503 C 0.0317 0.45293 0.38137 0.0
C504 C 0.04691 0.45023 0.39673 0.0
C505 C 0.05932 0.42516 0.3986 0.0
C506 C 0.01326 0.47538 0.38058 0.0
C507 C 0.98667 0.46914 0.3929 0.0
C508 C 0.02157 0.50272 0.36816 0.0
C509 C 0.04969 0.51117 0.35495 0.0
C510 C 0.08602 0.52132 0.35936 0.0
C511 C 0.11231 0.52913 0.3468 0.0
C512 C 0.10266 0.52713 0.3298 0.0
C513 C 0.06672 0.51745 0.32532 0.0
C514 C 0.04032 0.50959 0.33783 0.0
C515 C 0.97109 0.59632 0.40186 0.0
C516 C 0.95328 0.60528 0.38926 0.0
C517 C 0.97873 0.56794 0.39945 0.0
C518 C 0.9687 0.54766 0.38439 0.0
C519 C 0.95016 0.55585 0.37186 0.0
C520 C 0.94218 0.5843 0.37434 0.0
C521 C 0.97942 0.51919 0.38183 0.0
C522 C 0.00426 0.52407 0.36886 0.0
C523 C 0.96966 0.4906 0.39369 0.0
C524 C 0.94219 0.48301 0.40719 0.0
C525 C 0.9073 0.478 0.40319 0.0
C526 C 0.88179 0.47153 0.41596 0.0
C527 C 0.89075 0.46985 0.43279 0.0
C528 C 0.92523 0.47452 0.43688 0.0
C529 C 0.95086 0.48101 0.42416 0.0
H530 H 0.87098 0.46488 0.44266 0.0
H531 H 0.12305 0.53319 0.32009 0.0
H532 H 0.34716 0.96412 0.69606 0.0
H533 H 0.41244 0.984 0.69135 0.0
H534 H 0.42862 0.98436 0.74516 0.0
H535 H 0.36425 0.96595 0.74981 0.0
H536 H 0.47749 0.04714 0.73255 0.0
H537 H 0.42957 0.91916 0.71727 0.0
H538 H 0.39153 0.86265 0.70081 0.0
H539 H 0.44482 0.9194 0.65517 0.0
H540 H 0.48288 0.97639 0.67136 0.0
H541 H 0.63602 0.03697 0.74795 0.0
H542 H 0.57402 0.02672 0.74377 0.0
H543 H 0.59881 0.05835 0.69154 0.0
H544 H 0.66168 0.06916 0.69576 0.0
H545 H 0.53204 0.98859 0.69749 0.0
H546 H 0.58719 0.11408 0.71476 0.0
H547 H 0.62631 0.16816 0.73244 0.0
H548 H 0.55948 0.11358 0.77566 0.0
H549 H 0.52024 0.05895 0.7583 0.0
C550 C 0.36458 0.96747 0.70679 0.0
C551 C 0.35086 0.96345 0.72329 0.0
C552 C 0.40185 0.97898 0.70412 0.0
C553 C 0.42558 0.98596 0.71792 0.0
C554 C 0.41106 0.97963 0.73432 0.0
C555 C 0.37422 0.96879 0.73698 0.0
C556 C 0.46597 0.00225 0.71569 0.0
C557 C 0.48933 0.03416 0.72492 0.0
C558 C 0.48164 0.98634 0.70521 0.0
C559 C 0.4587 0.95214 0.69549 0.0
C560 C 0.43293 0.91967 0.70371 0.0
C561 C 0.41142 0.88754 0.69443 0.0
C562 C 0.41566 0.88747 0.67694 0.0
C563 C 0.4415 0.91951 0.66871 0.0
C564 C 0.46305 0.95173 0.67793 0.0
C565 C 0.62853 0.04245 0.73565 0.0
C566 C 0.65364 0.05403 0.7222 0.0
C567 C 0.59311 0.03656 0.73327 0.0
C568 C 0.58187 0.04181 0.71735 0.0
C569 C 0.60707 0.05423 0.70392 0.0
C570 C 0.64296 0.06073 0.70638 0.0
C571 C 0.54309 0.03232 0.71494 0.0
C572 C 0.52011 0.0019 0.70481 0.0
C573 C 0.5276 0.04931 0.72474 0.0
C574 C 0.55084 0.08234 0.73521 0.0
C575 C 0.58095 0.11352 0.72805 0.0
C576 C 0.60313 0.14429 0.73802 0.0
C577 C 0.59541 0.14429 0.75516 0.0
C578 C 0.56542 0.11355 0.76237 0.0
C579 C 0.54315 0.0827 0.75246 0.0
H580 H 0.61265 0.16813 0.76286 0.0
H581 H 0.39899 0.86256 0.66979 0.0
H582 H 0.62371 0.5996 0.59528 0.0
H583 H 0.5624 0.55187 0.60327 0.0
H584 H 0.60508 0.53224 0.64913 0.0
H585 H 0.66748 0.5812 0.64137 0.0
H586 H 0.54363 0.46543 0.62536 0.0
H587 H 0.56924 0.56964 0.65993 0.0
H588 H 0.59504 0.63588 0.6656 0.0
H589 H 0.52584 0.64159 0.62723 0.0
H590 H 0.50004 0.57548 0.62112 0.0
H591 H 0.35198 0.36074 0.64128 0.0
H592 H 0.41609 0.40388 0.64913 0.0
H593 H 0.42151 0.479 0.61052 0.0
H594 H 0.35746 0.4358 0.60271 0.0
H595 H 0.4615 0.51535 0.63924 0.0
H596 H 0.44491 0.41663 0.60153 0.0
H597 H 0.41994 0.35146 0.59375 0.0
H598 H 0.47309 0.33593 0.63671 0.0
H599 H 0.49777 0.40089 0.64494 0.0
C600 C 0.62045 0.585 0.60701 0.0
C601 C 0.65055 0.59463 0.61781 0.0
C602 C 0.58529 0.55764 0.61151 0.0
C603 C 0.5793 0.539 0.62684 0.0
C604 C 0.60936 0.54656 0.63725 0.0
C605 C 0.6449 0.57439 0.63277 0.0
C606 C 0.54093 0.51376 0.63203 0.0
C607 C 0.52573 0.47601 0.62902 0.0
C608 C 0.51768 0.52792 0.63635 0.0
C609 C 0.53283 0.56763 0.64002 0.0
C610 C 0.55973 0.58508 0.65261 0.0
C611 C 0.57431 0.62257 0.65592 0.0
C612 C 0.56203 0.64286 0.6468 0.0
C613 C 0.53524 0.62577 0.63431 0.0
C614 C 0.52059 0.58827 0.63093 0.0
C615 C 0.36661 0.38713 0.63495 0.0
C616 C 0.35006 0.39548 0.62159 0.0
C617 C 0.40316 0.41156 0.63934 0.0
C618 C 0.42359 0.44444 0.6303 0.0
C619 C 0.40614 0.45385 0.6177 0.0
C620 C 0.36965 0.42932 0.61327 0.0
C621 C 0.464 0.46697 0.63238 0.0
C622 C 0.47945 0.50435 0.63642 0.0
C623 C 0.48744 0.45241 0.62897 0.0
C624 C 0.4728 0.41347 0.62397 0.0
C625 C 0.451 0.39923 0.6094 0.0
C626 C 0.43693 0.36236 0.6049 0.0
C627 C 0.44491 0.33957 0.61474 0.0
C628 C 0.46691 0.35361 0.62912 0.0
C629 C 0.48091 0.39044 0.63371 0.0
H630 H 0.43416 0.31108 0.61119 0.0
H631 H 0.57324 0.67182 0.64942 0.0
H632 H 0.9358 0.355 0.92841 0.0
H633 H 0.95847 0.42037 0.93319 0.0
H634 H 0.96126 0.40428 0.98681 0.0
H635 H 0.93738 0.33807 0.98201 0.0
H636 H 0.94236 0.45893 0.97845 0.0
H637 H 0.03898 0.43292 0.96637 0.0
H638 H 0.06959 0.40463 0.9509 0.0
H639 H 0.068 0.45963 0.90553 0.0
H640 H 0.03743 0.48837 0.92071 0.0
H641 H 0.06124 0.65721 0.97902 0.0
H642 H 0.04296 0.59254 0.98487 0.0
H643 H 0.02284 0.56766 0.93179 0.0
H644 H 0.04069 0.63146 0.92598 0.0
H645 H 0.05803 0.53439 0.94649 0.0
H646 H 0.95361 0.55259 0.95771 0.0
H647 H 0.9231 0.58142 0.97284 0.0
H648 H 0.93986 0.54144 0.01996 0.0
H649 H 0.97087 0.51269 0.0051 0.0
C650 C 0.94003 0.36519 0.94125 0.0
C651 C 0.93478 0.34166 0.95485 0.0
C652 C 0.95326 0.40255 0.94398 0.0
C653 C 0.96242 0.41733 0.96032 0.0
C654 C 0.95452 0.39343 0.9741 0.0
C655 C 0.94069 0.35567 0.97137 0.0
C656 C 0.98339 0.45793 0.96248 0.0
C657 C 0.96807 0.47547 0.97179 0.0
C658 C 0.017 0.47956 0.95381 0.0
C659 C 0.03578 0.46267 0.94467 0.0
C660 C 0.04501 0.43886 0.95307 0.0
C661 C 0.06235 0.42274 0.94436 0.0
C662 C 0.07054 0.43014 0.92723 0.0
C663 C 0.06162 0.45389 0.91879 0.0
C664 C 0.04442 0.47023 0.92746 0.0
C665 C 0.05375 0.638 0.96862 0.0
C666 C 0.05233 0.64922 0.95205 0.0
C667 C 0.04302 0.60111 0.97198 0.0
C668 C 0.03122 0.57526 0.95877 0.0
C669 C 0.03182 0.58708 0.94217 0.0
C670 C 0.042 0.62355 0.93886 0.0
C671 C 0.01632 0.53541 0.96189 0.0
C672 C 0.03286 0.51792 0.95355 0.0
C673 C 0.98398 0.51403 0.97147 0.0
C674 C 0.96495 0.5309 0.98033 0.0
C675 C 0.95102 0.55018 0.97131 0.0
C676 C 0.93361 0.56647 0.97983 0.0
C677 C 0.92968 0.56341 0.99735 0.0
C678 C 0.943 0.54387 0.00639 0.0
C679 C 0.96048 0.52756 0.99793 0.0
H680 H 0.91624 0.57609 0.00393 0.0
H681 H 0.0839 0.41755 0.92051 0.0
H682 H 0.35967 0.97831 0.27853 0.0
H683 H 0.41066 0.96726 0.28281 0.0
H684 H 0.48382 0.08322 0.29089 0.0
H685 H 0.43201 0.09464 0.28732 0.0
H686 H 0.50026 0.03983 0.26319 0.0
H687 H 0.47518 0.04245 0.32239 0.0
H688 H 0.43504 0.02468 0.34742 0.0
H689 H 0.40436 0.91147 0.3399 0.0
H690 H 0.44389 0.9285 0.31465 0.0
H691 H 0.6563 0.02608 0.27646 0.0
H692 H 0.60822 0.04137 0.27981 0.0
H693 H 0.53066 0.92829 0.29207 0.0
H694 H 0.57992 0.91291 0.28967 0.0
H695 H 0.51664 0.97204 0.31063 0.0
H696 H 0.53511 0.96435 0.25191 0.0
H697 H 0.56978 0.97647 0.22532 0.0
H698 H 0.60598 0.09171 0.22962 0.0
H699 H 0.57193 0.08035 0.25637 0.0
C700 C 0.38632 0.00156 0.28156 0.0
C701 C 0.39161 0.03744 0.28267 0.0
C702 C 0.41548 0.99508 0.284 0.0
C703 C 0.45084 0.02434 0.28725 0.0
C704 C 0.45652 0.06025 0.28851 0.0
C705 C 0.42696 0.06671 0.28648 0.0
C706 C 0.48191 0.01709 0.28794 0.0
C707 C 0.50453 0.02582 0.27371 0.0
C708 C 0.48592 0.99703 0.30131 0.0
C709 C 0.46225 0.98673 0.31653 0.0
C710 C 0.4596 0.01372 0.32597 0.0
C711 C 0.43702 0.00379 0.34022 0.0
C712 C 0.41709 0.96695 0.34522 0.0
C713 C 0.41978 0.93999 0.336 0.0
C714 C 0.44231 0.94977 0.32173 0.0
C715 C 0.62922 0.0043 0.28007 0.0
C716 C 0.62206 0.96809 0.28271 0.0
C717 C 0.60155 0.01315 0.28185 0.0
C718 C 0.5655 0.98587 0.28574 0.0
C719 C 0.55824 0.94981 0.28893 0.0
C720 C 0.58636 0.94101 0.28751 0.0
C721 C 0.53564 0.99528 0.28592 0.0
C722 C 0.51289 0.98654 0.30018 0.0
C723 C 0.5308 0.01457 0.27236 0.0
C724 C 0.55125 0.02153 0.25623 0.0
C725 C 0.55068 0.99231 0.24725 0.0
C726 C 0.57019 0.99904 0.23214 0.0
C727 C 0.59015 0.03485 0.22581 0.0
C728 C 0.59055 0.06399 0.23455 0.0
C729 C 0.57113 0.05742 0.24968 0.0
H730 H 0.60523 0.04 0.2141 0.0
H731 H 0.39962 0.95932 0.35626 0.0
H732 H 0.35857 0.16226 0.23927 0.0
H733 H 0.36832 0.19054 0.21131 0.0
H734 H 0.34295 0.08748 0.18811 0.0
H735 H 0.333 0.05895 0.21582 0.0
H736 H 0.41061 0.19773 0.18093 0.0
H737 H 0.27839 0.07147 0.15819 0.0
H738 H 0.22197 0.01903 0.16983 0.0
H739 H 0.22808 0.08414 0.21286 0.0
H740 H 0.28416 0.13705 0.20135 0.0
H741 H 0.36552 0.20632 0.0918 0.0
H742 H 0.37915 0.18607 0.11861 0.0
H743 H 0.30787 0.21604 0.14479 0.0
H744 H 0.29444 0.23653 0.11847 0.0
H745 H 0.29218 0.14189 0.14973 0.0
H746 H 0.39264 0.26802 0.1506 0.0
H747 H 0.44851 0.32137 0.1392 0.0
H748 H 0.50483 0.2595 0.14029 0.0
H749 H 0.44906 0.20557 0.15147 0.0
C750 C 0.3559 0.14583 0.22825 0.0
C751 C 0.34428 0.10815 0.22978 0.0
C752 C 0.36169 0.16211 0.21229 0.0
C753 C 0.35593 0.14093 0.1977 0.0
C754 C 0.34724 0.10416 0.19925 0.0
C755 C 0.34136 0.08788 0.21512 0.0
C756 C 0.35353 0.15537 0.18102 0.0
C757 C 0.38484 0.18546 0.17403 0.0
C758 C 0.31982 0.13937 0.1721 0.0
C759 C 0.28564 0.10804 0.17898 0.0
C760 C 0.26757 0.0746 0.1701 0.0
C761 C 0.23568 0.04479 0.17667 0.0
C762 C 0.22151 0.0482 0.1921 0.0
C763 C 0.23913 0.08147 0.20094 0.0
C764 C 0.27099 0.11136 0.1944 0.0
C765 C 0.35309 0.20894 0.1033 0.0
C766 C 0.32877 0.22293 0.10294 0.0
C767 C 0.361 0.19749 0.11858 0.0
C768 C 0.34443 0.19958 0.1336 0.0
C769 C 0.32088 0.21422 0.1333 0.0
C770 C 0.31332 0.22598 0.11819 0.0
C771 C 0.3492 0.18434 0.14958 0.0
C772 C 0.31816 0.15392 0.15647 0.0
C773 C 0.38305 0.20022 0.15835 0.0
C774 C 0.41655 0.23263 0.15167 0.0
C775 C 0.41681 0.26566 0.14824 0.0
C776 C 0.44849 0.29604 0.14186 0.0
C777 C 0.48016 0.29379 0.13897 0.0
C778 C 0.48025 0.26118 0.1425 0.0
C779 C 0.44862 0.23071 0.14887 0.0
H780 H 0.50466 0.31734 0.13403 0.0
H781 H 0.19682 0.02507 0.19714 0.0
H782 H 0.17878 0.36624 0.42328 0.0
H783 H 0.2137 0.38394 0.44979 0.0
H784 H 0.11383 0.35266 0.47747 0.0
H785 H 0.0791 0.33565 0.45135 0.0
H786 H 0.16997 0.41425 0.4905 0.0
H787 H 0.1466 0.29335 0.47273 0.0
H788 H 0.15028 0.24989 0.45294 0.0
H789 H 0.26828 0.31367 0.45407 0.0
H790 H 0.26524 0.35779 0.47373 0.0
H791 H 0.18677 0.34964 0.57105 0.0
H792 H 0.17253 0.36438 0.54317 0.0
H793 H 0.28074 0.39202 0.52567 0.0
H794 H 0.2947 0.37646 0.5533 0.0
H795 H 0.23105 0.34309 0.50588 0.0
H796 H 0.25312 0.45763 0.52851 0.0
H797 H 0.24773 0.49922 0.54883 0.0
H798 H 0.13163 0.44693 0.5393 0.0
H799 H 0.13619 0.40465 0.51909 0.0
C800 C 0.16437 0.36353 0.435 0.0
C801 C 0.12605 0.34909 0.43516 0.0
C802 C 0.18434 0.37364 0.45012 0.0
C803 C 0.16627 0.36932 0.46561 0.0
C804 C 0.12837 0.35635 0.46569 0.0
C805 C 0.10849 0.34632 0.45068 0.0
C806 C 0.1857 0.3753 0.48193 0.0
C807 C 0.18341 0.39878 0.49391 0.0
C808 C 0.20387 0.35569 0.48623 0.0
C809 C 0.20569 0.32908 0.47451 0.0
C810 C 0.17332 0.29823 0.46866 0.0
C811 C 0.17529 0.27347 0.45748 0.0
C812 C 0.20949 0.27909 0.45221 0.0
C813 C 0.2418 0.30941 0.45814 0.0
C814 C 0.23998 0.3343 0.4693 0.0
C815 C 0.20785 0.35988 0.56139 0.0
C816 C 0.24167 0.36153 0.56428 0.0
C817 C 0.19974 0.36839 0.54546 0.0
C818 C 0.22559 0.37929 0.53229 0.0
C819 C 0.26031 0.38347 0.53558 0.0
C820 C 0.26825 0.37459 0.55139 0.0
C821 C 0.21484 0.38163 0.51469 0.0
C822 C 0.21857 0.35945 0.50245 0.0
C823 C 0.19786 0.40232 0.51024 0.0
C824 C 0.19499 0.4278 0.52234 0.0
C825 C 0.22639 0.45481 0.53083 0.0
C826 C 0.22349 0.47855 0.54231 0.0
C827 C 0.18935 0.47568 0.54537 0.0
C828 C 0.15805 0.44912 0.53692 0.0
C829 C 0.1608 0.4253 0.52542 0.0
H830 H 0.18717 0.49408 0.55427 0.0
H831 H 0.21097 0.25989 0.44355 0.0
H832 H 0.73481 0.06156 0.78512 0.0
H833 H 0.75265 0.09272 0.81232 0.0
H834 H 0.84037 0.18905 0.78846 0.0
H835 H 0.82259 0.15801 0.76098 0.0
H836 H 0.86234 0.1647 0.81683 0.0
H837 H 0.76874 0.19318 0.80196 0.0
H838 H 0.70727 0.17945 0.79235 0.0
H839 H 0.65792 0.10907 0.8352 0.0
H840 H 0.71907 0.12193 0.84494 0.0
H841 H 0.91674 0.27087 0.88949 0.0
H842 H 0.89067 0.25218 0.86132 0.0
H843 H 0.79817 0.15476 0.882 0.0
H844 H 0.8239 0.17378 0.91048 0.0
H845 H 0.77856 0.18324 0.85462 0.0
H846 H 0.86847 0.14846 0.86804 0.0
H847 H 0.92856 0.15953 0.87837 0.0
H848 H 0.98312 0.23777 0.83861 0.0
H849 H 0.92326 0.22752 0.82818 0.0
C850 C 0.75784 0.08944 0.78558 0.0
C851 C 0.7774 0.10727 0.77086 0.0
C852 C 0.7678 0.10728 0.80114 0.0
C853 C 0.79759 0.14325 0.80235 0.0
C854 C 0.81715 0.1613 0.78773 0.0
C855 C 0.80693 0.14358 0.77206 0.0
C856 C 0.80941 0.16092 0.8191 0.0
C857 C 0.84433 0.16949 0.82495 0.0
C858 C 0.78532 0.16591 0.82987 0.0
C859 C 0.7485 0.15829 0.82411 0.0
C860 C 0.74476 0.17454 0.80927 0.0
C861 C 0.70998 0.16695 0.8038 0.0
C862 C 0.6787 0.14334 0.81313 0.0
C863 C 0.68217 0.12734 0.82797 0.0
C864 C 0.7169 0.1348 0.83348 0.0
C865 C 0.8905 0.24578 0.88811 0.0
C866 C 0.87262 0.22343 0.90214 0.0
C867 C 0.87563 0.23519 0.872 0.0
C868 C 0.84294 0.20173 0.86956 0.0
C869 C 0.82354 0.18064 0.88365 0.0
C870 C 0.83826 0.19148 0.89988 0.0
C871 C 0.83149 0.1871 0.85226 0.0
C872 C 0.79667 0.17888 0.84638 0.0
C873 C 0.85544 0.18191 0.84147 0.0
C874 C 0.89143 0.18749 0.84743 0.0
C875 C 0.8933 0.16818 0.86155 0.0
C876 C 0.92732 0.17431 0.86743 0.0
C877 C 0.95967 0.19945 0.85919 0.0
C878 C 0.95804 0.21836 0.845 0.0
C879 C 0.92406 0.21237 0.83908 0.0
H880 H 0.98599 0.20421 0.86379 0.0
H881 H 0.6518 0.1375 0.80888 0.0
H882 H 0.69027 0.73847 0.11885 0.0
H883 H 0.68 0.75659 0.14658 0.0
H884 H 0.6364 0.81991 0.12347 0.0
H885 H 0.64636 0.8017 0.09548 0.0
H886 H 0.7136 0.826 0.1581 0.0
H887 H 0.57468 0.82308 0.15184 0.0
H888 H 0.51567 0.788 0.13673 0.0
H889 H 0.53084 0.69412 0.13419 0.0
H890 H 0.58964 0.72844 0.14949 0.0
H891 H 0.70002 0.94101 0.2172 0.0
H892 H 0.68904 0.90881 0.19041 0.0
H893 H 0.62539 0.80467 0.21569 0.0
H894 H 0.63634 0.83666 0.24282 0.0
H895 H 0.59795 0.81304 0.18152 0.0
H896 H 0.70477 0.82417 0.21043 0.0
H897 H 0.76294 0.85938 0.22612 0.0
H898 H 0.81081 0.93232 0.18395 0.0
H899 H 0.75263 0.8979 0.16811 0.0
C900 C 0.67807 0.7559 0.11958 0.0
C901 C 0.66943 0.76887 0.10487 0.0
C902 C 0.67223 0.76623 0.13548 0.0
C903 C 0.65746 0.78957 0.13708 0.0
C904 C 0.6475 0.80154 0.1225 0.0
C905 C 0.65334 0.79121 0.10652 0.0
C906 C 0.65547 0.8037 0.15395 0.0
C907 C 0.68822 0.82291 0.16321 0.0
C908 C 0.62235 0.79959 0.16067 0.0
C909 C 0.58675 0.77849 0.15168 0.0
C910 C 0.56534 0.7949 0.14812 0.0
C911 C 0.53194 0.77515 0.13951 0.0
C912 C 0.51957 0.73889 0.13446 0.0
C913 C 0.54052 0.72225 0.13805 0.0
C914 C 0.57392 0.74187 0.14667 0.0
C915 C 0.68312 0.91129 0.21714 0.0
C916 C 0.66948 0.89141 0.23225 0.0
C917 C 0.67679 0.89298 0.20177 0.0
C918 C 0.65661 0.85447 0.20115 0.0
C919 C 0.64093 0.83448 0.21598 0.0
C920 C 0.64745 0.85281 0.23146 0.0
C921 C 0.65605 0.83542 0.18539 0.0
C922 C 0.62309 0.81565 0.17636 0.0
C923 C 0.68888 0.83863 0.17887 0.0
C924 C 0.72427 0.85864 0.18814 0.0
C925 C 0.72763 0.84785 0.20454 0.0
C926 C 0.7606 0.86765 0.21346 0.0
C927 C 0.79053 0.89812 0.20605 0.0
C928 C 0.78759 0.90873 0.18968 0.0
C929 C 0.75464 0.88906 0.18072 0.0
H930 H 0.81601 0.91346 0.21299 0.0
H931 H 0.49372 0.72367 0.12778 0.0
H932 H 0.83141 0.67151 0.5772 0.0
H933 H 0.85328 0.66417 0.54953 0.0
H934 H 0.74588 0.62778 0.52829 0.0
H935 H 0.7241 0.63576 0.55574 0.0
H936 H 0.78611 0.59037 0.51533 0.0
H937 H 0.79574 0.70942 0.52314 0.0
H938 H 0.81298 0.76638 0.53894 0.0
H939 H 0.92601 0.79296 0.53914 0.0
H940 H 0.90926 0.73584 0.52341 0.0
H941 H 0.8392 0.64418 0.42852 0.0
H942 H 0.81021 0.63271 0.45646 0.0
H943 H 0.91734 0.68759 0.47987 0.0
H944 H 0.94634 0.6994 0.45239 0.0
H945 H 0.87429 0.71297 0.49166 0.0
H946 H 0.86486 0.59543 0.48136 0.0
H947 H 0.84666 0.53823 0.46552 0.0
H948 H 0.73298 0.50813 0.46976 0.0
H949 H 0.75057 0.56545 0.48543 0.0
C950 C 0.81226 0.66096 0.56673 0.0
C951 C 0.77624 0.65455 0.5685 0.0
C952 C 0.82473 0.65679 0.55098 0.0
C953 C 0.80113 0.64557 0.53694 0.0
C954 C 0.76436 0.63629 0.53901 0.0
C955 C 0.7521 0.64111 0.55464 0.0
C956 C 0.81605 0.64883 0.51976 0.0
C957 C 0.8052 0.61709 0.51004 0.0
C958 C 0.84091 0.68373 0.51299 0.0
C959 C 0.8512 0.71822 0.52229 0.0
C960 C 0.82422 0.72726 0.52669 0.0
C961 C 0.83391 0.7596 0.53561 0.0
C962 C 0.87056 0.78321 0.54014 0.0
C963 C 0.89762 0.7746 0.53567 0.0
C964 C 0.88805 0.74227 0.52672 0.0
C965 C 0.85652 0.65365 0.43963 0.0
C966 C 0.8951 0.67283 0.43815 0.0
C967 C 0.83994 0.64692 0.45557 0.0
C968 C 0.8617 0.65922 0.47021 0.0
C969 C 0.90006 0.67793 0.46874 0.0
C970 C 0.91657 0.68461 0.45294 0.0
C971 C 0.84506 0.65441 0.48715 0.0
C972 C 0.85537 0.68608 0.49686 0.0
C973 C 0.81971 0.61941 0.4938 0.0
C974 C 0.80907 0.58493 0.4844 0.0
C975 C 0.83601 0.57678 0.47878 0.0
C976 C 0.8258 0.5443 0.46986 0.0
C977 C 0.78869 0.51962 0.46659 0.0
C978 C 0.76172 0.52731 0.47227 0.0
C979 C 0.77179 0.55978 0.48119 0.0
H980 H 0.78084 0.49448 0.45968 0.0
H981 H 0.87802 0.80824 0.54705 0.0
H982 H 0.17615 0.81524 0.9132 0.0
H983 H 0.20905 0.83664 0.88632 0.0
H984 H 0.11421 0.75271 0.85989 0.0
H985 H 0.0816 0.73083 0.88649 0.0
H986 H 0.17724 0.76454 0.8449 0.0
H987 H 0.12386 0.83627 0.86546 0.0
H988 H 0.11457 0.87421 0.88651 0.0
H989 H 0.22983 0.95418 0.88494 0.0
H990 H 0.23986 0.91635 0.86406 0.0
H991 H 0.18338 0.84726 0.7648 0.0
H992 H 0.1687 0.81597 0.79224 0.0
H993 H 0.26525 0.90806 0.81387 0.0
H994 H 0.27943 0.9396 0.78681 0.0
H995 H 0.20756 0.89246 0.83209 0.0
H996 H 0.25836 0.82265 0.80782 0.0
H997 H 0.26501 0.78363 0.78644 0.0
H998 H 0.15264 0.69949 0.79415 0.0
H999 H 0.14515 0.73822 0.81541 0.0
C1000 C 0.16268 0.80082 0.90171 0.0
C1001 C 0.12604 0.77182 0.90194 0.0
C1002 C 0.18146 0.81309 0.88637 0.0
C1003 C 0.16378 0.7966 0.87111 0.0
C1004 C 0.12832 0.76588 0.8715 0.0
C1005 C 0.10961 0.75365 0.88674 0.0
C1006 C 0.1799 0.81377 0.85465 0.0
C1007 C 0.18395 0.79252 0.84204 0.0
C1008 C 0.18876 0.8503 0.85101 0.0
C1009 C 0.18268 0.87331 0.86336 0.0
C1010 C 0.14725 0.86183 0.86969 0.0
C1011 C 0.14185 0.88332 0.88158 0.0
C1012 C 0.17161 0.91654 0.88709 0.0
C1013 C 0.20682 0.9284 0.88068 0.0
C1014 C 0.21238 0.90696 0.86882 0.0
C1015 C 0.20171 0.86047 0.77537 0.0
C1016 C 0.23224 0.89603 0.77374 0.0
C1017 C 0.19342 0.84255 0.79101 0.0
C1018 C 0.21594 0.8597 0.80512 0.0
C1019 C 0.24737 0.89441 0.80322 0.0
C1020 C 0.25537 0.91242 0.78773 0.0
C1021 C 0.2052 0.84338 0.82221 0.0
C1022 C 0.20173 0.86475 0.83494 0.0
C1023 C 0.19664 0.8069 0.82585 0.0
C1024 C 0.20112 0.78348 0.81312 0.0
C1025 C 0.23499 0.79594 0.80487 0.0
C1026 C 0.23892 0.77385 0.79279 0.0
C1027 C 0.20925 0.73914 0.78891 0.0
C1028 C 0.1756 0.7264 0.79715 0.0
C1029 C 0.17151 0.74839 0.80924 0.0
H1030 H 0.21235 0.72208 0.77955 0.0
H1031 H 0.16739 0.93314 0.8963 0.0
H1032 H 0.18515 0.83878 0.99194 0.0
H1033 H 0.22467 0.89883 0.00536 0.0
H1034 H 0.20526 0.95309 0.96373 0.0
H1035 H 0.16492 0.89329 0.95056 0.0
H1036 H 0.28408 0.98838 0.97845 0.0
H1037 H 0.15381 0.94053 0.99247 0.0
H1038 H 0.0941 0.89202 0.00346 0.0
H1039 H 0.14498 0.89299 0.05063 0.0
H1040 H 0.20513 0.94115 0.03979 0.0
H1041 H 0.31801 0.16279 0.00733 0.0
H1042 H 0.3 0.10296 0.99465 0.0
H1043 H 0.276 0.05342 0.04421 0.0
H1044 H 0.29099 0.1128 0.05659 0.0
H1045 H 0.22389 0.01243 0.02675 0.0
H1046 H 0.35185 0.06491 0.01595 0.0
H1047 H 0.41388 0.11077 0.00613 0.0
H1048 H 0.37363 0.09903 0.95538 0.0
H1049 H 0.31124 0.05345 0.96492 0.0
C1050 C 0.18999 0.86358 0.9855 0.0
C1051 C 0.17188 0.86142 0.97026 0.0
C1052 C 0.2125 0.89781 0.99317 0.0
C1053 C 0.21785 0.93034 0.98551 0.0
C1054 C 0.20164 0.92833 0.96978 0.0
C1055 C 0.17849 0.89416 0.96232 0.0
C1056 C 0.23673 0.96597 0.99465 0.0
C1057 C 0.2711 0.99392 0.989 0.0
C1058 C 0.22019 0.97261 0.0087 0.0
C1059 C 0.18398 0.94406 0.01526 0.0
C1060 C 0.1523 0.93015 0.00513 0.0
C1061 C 0.11838 0.90277 0.01134 0.0
C1062 C 0.11576 0.88935 0.02772 0.0
C1063 C 0.14705 0.90336 0.03794 0.0
C1064 C 0.18106 0.93069 0.03177 0.0
C1065 C 0.30973 0.1392 0.01548 0.0
C1066 C 0.30619 0.14227 0.0329 0.0
C1067 C 0.29958 0.10491 0.00825 0.0
C1068 C 0.28695 0.07327 0.0184 0.0
C1069 C 0.28539 0.07707 0.03599 0.0
C1070 C 0.29428 0.11106 0.04312 0.0
C1071 C 0.2719 0.03586 0.01066 0.0
C1072 C 0.23779 0.00731 0.01647 0.0
C1073 C 0.28928 0.02856 0.99701 0.0
C1074 C 0.32678 0.05594 0.99119 0.0
C1075 C 0.35617 0.07228 0.00271 0.0
C1076 C 0.3914 0.09821 0.99719 0.0
C1077 C 0.39768 0.10786 0.98015 0.0
C1078 C 0.36873 0.09154 0.96858 0.0
C1079 C 0.33343 0.06562 0.97404 0.0
H1080 H 0.42498 0.12794 0.9759 0.0
H1081 H 0.08948 0.86815 0.0325 0.0
H1082 H 0.20789 0.35809 0.35641 0.0
H1083 H 0.25023 0.34092 0.34329 0.0
H1084 H 0.1822 0.22929 0.36071 0.0
H1085 H 0.14092 0.24644 0.3742 0.0
H1086 H 0.24953 0.24564 0.36356 0.0
H1087 H 0.17743 0.25919 0.31929 0.0
H1088 H 0.15441 0.2929 0.30238 0.0
H1089 H 0.26504 0.37232 0.28832 0.0
H1090 H 0.28871 0.33926 0.30531 0.0
H1091 H 0.26211 0.15352 0.28324 0.0
H1092 H 0.24528 0.19456 0.29731 0.0
H1093 H 0.34272 0.2371 0.32825 0.0
H1094 H 0.35955 0.19524 0.31424 0.0
H1095 H 0.27187 0.26552 0.302 0.0
H1096 H 0.31886 0.25072 0.36819 0.0
H1097 H 0.33257 0.20848 0.38421 0.0
H1098 H 0.25757 0.11825 0.35297 0.0
H1099 H 0.24315 0.15988 0.33692 0.0
C1100 C 0.20229 0.33002 0.3576 0.0
C1101 C 0.1709 0.30362 0.36628 0.0
C1102 C 0.22642 0.32017 0.35002 0.0
C1103 C 0.21927 0.28362 0.35078 0.0
C1104 C 0.18855 0.25767 0.35993 0.0
C1105 C 0.16478 0.26753 0.36761 0.0
C1106 C 0.24225 0.27136 0.34148 0.0
C1107 C 0.25483 0.25049 0.35014 0.0
C1108 C 0.24903 0.27721 0.32392 0.0
C1109 C 0.23485 0.29705 0.31372 0.0
C1110 C 0.19684 0.284 0.31268 0.0
C1111 C 0.18368 0.30295 0.30307 0.0
C1112 C 0.20826 0.3348 0.29433 0.0
C1113 C 0.24604 0.3477 0.29513 0.0
C1114 C 0.25935 0.32887 0.30474 0.0
C1115 C 0.28038 0.172 0.29285 0.0
C1116 C 0.31202 0.17085 0.29773 0.0
C1117 C 0.27076 0.19565 0.30085 0.0
C1118 C 0.29242 0.21867 0.31401 0.0
C1119 C 0.32531 0.21927 0.31826 0.0
C1120 C 0.33504 0.19552 0.31018 0.0
C1121 C 0.27838 0.23922 0.32403 0.0
C1122 C 0.26752 0.26164 0.31552 0.0
C1123 C 0.27207 0.23379 0.34162 0.0
C1124 C 0.28038 0.20851 0.35123 0.0
C1125 C 0.30531 0.22186 0.36477 0.0
C1126 C 0.31318 0.19803 0.37385 0.0
C1127 C 0.29608 0.16074 0.36956 0.0
C1128 C 0.27094 0.14717 0.35623 0.0
C1129 C 0.26293 0.17087 0.34713 0.0
H1130 H 0.30223 0.14235 0.3766 0.0
H1131 H 0.19802 0.34944 0.28689 0.0
H1132 H 0.86161 0.20784 0.70285 0.0
H1133 H 0.92193 0.24793 0.68973 0.0
H1134 H 0.93421 0.15299 0.68072 0.0
H1135 H 0.87597 0.11399 0.69462 0.0
H1136 H 0.99462 0.20247 0.69084 0.0
H1137 H 0.90876 0.20108 0.6492 0.0
H1138 H 0.85946 0.21198 0.63896 0.0
H1139 H 0.9255 0.32689 0.65085 0.0
H1140 H 0.97503 0.31656 0.66133 0.0
H1141 H 0.11023 0.24271 0.62112 0.0
H1142 H 0.05267 0.2233 0.63616 0.0
H1143 H 0.09643 0.33237 0.6568 0.0
H1144 H 0.15479 0.35211 0.64194 0.0
H1145 H 0.0134 0.28803 0.64375 0.0
H1146 H 0.1025 0.28566 0.68236 0.0
H1147 H 0.15047 0.27036 0.68966 0.0
H1148 H 0.07459 0.1559 0.68045 0.0
H1149 H 0.02634 0.17061 0.67283 0.0
C1150 C 0.87747 0.19582 0.69811 0.0
C1151 C 0.86431 0.15791 0.6999 0.0
C1152 C 0.9118 0.21863 0.69051 0.0
C1153 C 0.93281 0.2036 0.68407 0.0
C1154 C 0.91906 0.16559 0.68571 0.0
C1155 C 0.88557 0.14319 0.69366 0.0
C1156 C 0.96927 0.22661 0.67575 0.0
C1157 C 0.99843 0.22107 0.68053 0.0
C1158 C 0.97507 0.25179 0.66253 0.0
C1159 C 0.94536 0.25797 0.65623 0.0
C1160 C 0.91263 0.22861 0.64973 0.0
C1161 C 0.88468 0.2347 0.64387 0.0
C1162 C 0.88929 0.27008 0.6443 0.0
C1163 C 0.92193 0.29949 0.65055 0.0
C1164 C 0.94995 0.29354 0.65645 0.0
C1165 C 0.10753 0.26286 0.6286 0.0
C1166 C 0.13722 0.29891 0.63042 0.0
C1167 C 0.07456 0.25168 0.63717 0.0
C1168 C 0.07043 0.27638 0.64761 0.0
C1169 C 0.09913 0.31299 0.64874 0.0
C1170 C 0.13244 0.32415 0.64029 0.0
C1171 C 0.03748 0.26243 0.65852 0.0
C1172 C 0.00937 0.26984 0.65427 0.0
C1173 C 0.03215 0.23824 0.67199 0.0
C1174 C 0.06092 0.22929 0.67691 0.0
C1175 C 0.09614 0.25727 0.68178 0.0
C1176 C 0.12336 0.2487 0.68599 0.0
C1177 C 0.11561 0.21219 0.68549 0.0
C1178 C 0.08057 0.18416 0.68083 0.0
C1179 C 0.05326 0.1926 0.67658 0.0
H1180 H 0.13673 0.20561 0.68875 0.0
H1181 H 0.86762 0.27474 0.63976 0.0
H1182 H 0.74382 0.89223 0.04714 0.0
H1183 H 0.75424 0.94888 0.03388 0.0
H1184 H 0.64664 0.89089 0.01099 0.0
H1185 H 0.63619 0.83334 0.02414 0.0
H1186 H 0.6963 0.93148 0.98819 0.0
H1187 H 0.66538 0.95577 0.04193 0.0
H1188 H 0.66532 0.95939 0.07298 0.0
H1189 H 0.78055 0.03945 0.07261 0.0
H1190 H 0.78147 0.03594 0.04158 0.0
H1191 H 0.78138 0.14884 0.98235 0.0
H1192 H 0.73818 0.08941 0.99528 0.0
H1193 H 0.79561 0.04004 0.97152 0.0
H1194 H 0.83788 0.09854 0.95838 0.0
H1195 H 0.75154 0.05194 0.01761 0.0
H1196 H 0.7429 0.95146 0.96428 0.0
H1197 H 0.73881 0.94767 0.93325 0.0
H1198 H 0.69323 0.01936 0.93272 0.0
H1199 H 0.69651 0.02317 0.96376 0.0
C1200 C 0.72204 0.89147 0.0395 0.0
C1201 C 0.68916 0.8582 0.03668 0.0
C1202 C 0.72797 0.92407 0.03199 0.0
C1203 C 0.7011 0.92439 0.02155 0.0
C1204 C 0.66773 0.89138 0.01904 0.0
C1205 C 0.66172 0.85856 0.02662 0.0
C1206 C 0.70963 0.95872 0.01233 0.0
C1207 C 0.70795 0.95778 0.99463 0.0
C1208 C 0.72383 0.99302 0.0207 0.0
C1209 C 0.72349 0.99548 0.0394 0.0
C1210 C 0.69077 0.974 0.04847 0.0
C1211 C 0.69057 0.97605 0.06607 0.0
C1212 C 0.72291 0.99962 0.07476 0.0
C1213 C 0.75551 0.02123 0.06586 0.0
C1214 C 0.75586 0.01927 0.04826 0.0
C1215 C 0.78423 0.12508 0.97962 0.0
C1216 C 0.81306 0.12844 0.96933 0.0
C1217 C 0.75963 0.09116 0.98707 0.0
C1218 C 0.7633 0.06002 0.98426 0.0
C1219 C 0.79153 0.06329 0.97362 0.0
C1220 C 0.81594 0.09697 0.96618 0.0
C1221 C 0.74005 0.02483 0.99346 0.0
C1222 C 0.73906 0.02561 0.01116 0.0
C1223 C 0.72271 0.99036 0.98508 0.0
C1224 C 0.72011 0.98771 0.96638 0.0
C1225 C 0.73174 0.9662 0.95757 0.0
C1226 C 0.72964 0.96411 0.93996 0.0
C1227 C 0.71583 0.9833 0.93102 0.0
C1228 C 0.70401 0.00457 0.93966 0.0
C1229 C 0.70603 0.00675 0.95726 0.0
H1230 H 0.71426 0.98167 0.91739 0.0
H1231 H 0.72271 0.00115 0.08839 0.0
H1232 H 0.64328 0.80377 0.31719 0.0
H1233 H 0.65753 0.76013 0.33134 0.0
H1234 H 0.75489 0.79891 0.30064 0.0
H1235 H 0.74051 0.84146 0.28641 0.0
H1236 H 0.72685 0.72836 0.30569 0.0
H1237 H 0.75688 0.83549 0.34042 0.0
H1238 H 0.74227 0.87731 0.3562 0.0
H1239 H 0.66569 0.78713 0.38698 0.0
H1240 H 0.67962 0.74471 0.37122 0.0
H1241 H 0.86301 0.75579 0.37601 0.0
H1242 H 0.81892 0.76973 0.36306 0.0
H1243 H 0.75226 0.6562 0.34791 0.0
H1244 H 0.79735 0.64216 0.36057 0.0
H1245 H 0.75067 0.75089 0.36705 0.0
H1246 H 0.71078 0.65433 0.30999 0.0
H1247 H 0.73463 0.62123 0.29313 0.0
H1248 H 0.84539 0.70347 0.30555 0.0
H1249 H 0.82217 0.7372 0.32231 0.0
C1250 C 0.66715 0.8022 0.3132 0.0
C1251 C 0.69097 0.82632 0.30082 0.0
C1252 C 0.67542 0.77744 0.32136 0.0
C1253 C 0.70764 0.77656 0.31725 0.0
C1254 C 0.7299 0.79893 0.30408 0.0
C1255 C 0.72172 0.82349 0.296 0.0
C1256 C 0.72077 0.75554 0.3275 0.0
C1257 C 0.73144 0.73275 0.31917 0.0
C1258 C 0.72727 0.7615 0.34506 0.0
C1259 C 0.7189 0.7869 0.35452 0.0
C1260 C 0.73674 0.82457 0.35048 0.0
C1261 C 0.72862 0.84837 0.35942 0.0
C1262 C 0.70296 0.83486 0.37255 0.0
C1263 C 0.68547 0.79753 0.37678 0.0
C1264 C 0.69346 0.7736 0.36785 0.0
C1265 C 0.83886 0.73358 0.37006 0.0
C1266 C 0.83391 0.69788 0.36921 0.0
C1267 C 0.81346 0.7416 0.36271 0.0
C1268 C 0.7823 0.71417 0.35434 0.0
C1269 C 0.77633 0.67801 0.35408 0.0
C1270 C 0.80203 0.66996 0.36138 0.0
C1271 C 0.75784 0.72465 0.34514 0.0
C1272 C 0.74497 0.7454 0.35368 0.0
C1273 C 0.75042 0.71783 0.32766 0.0
C1274 C 0.76471 0.69793 0.31758 0.0
C1275 C 0.74021 0.66531 0.3091 0.0
C1276 C 0.75362 0.64647 0.29956 0.0
C1277 C 0.79149 0.66015 0.29833 0.0
C1278 C 0.81605 0.69281 0.30657 0.0
C1279 C 0.80279 0.71177 0.3161 0.0
H1280 H 0.80181 0.64552 0.29095 0.0
H1281 H 0.69671 0.85333 0.37946 0.0
H1282 H 0.15894 0.81527 0.69186 0.0
H1283 H 0.09973 0.77315 0.67846 0.0
H1284 H 0.05008 0.82874 0.70369 0.0
H1285 H 0.10849 0.87009 0.71725 0.0
H1286 H 0.00302 0.75767 0.70312 0.0
H1287 H 0.08273 0.84969 0.66261 0.0
H1288 H 0.13883 0.88334 0.64536 0.0
H1289 H 0.11672 0.78228 0.62155 0.0
H1290 H 0.06069 0.74798 0.63883 0.0
H1291 H 0.88981 0.75747 0.62728 0.0
H1292 H 0.94872 0.7776 0.64101 0.0
H1293 H 0.90542 0.67097 0.66438 0.0
H1294 H 0.84566 0.6507 0.65079 0.0
H1295 H 0.99928 0.75802 0.64057 0.0
H1296 H 0.94479 0.68439 0.70396 0.0
H1297 H 0.88839 0.65802 0.72128 0.0
H1298 H 0.85946 0.73377 0.69932 0.0
H1299 H 0.91587 0.76084 0.68204 0.0
C1300 C 0.13523 0.81808 0.69473 0.0
C1301 C 0.13852 0.84621 0.70553 0.0
C1302 C 0.10143 0.7941 0.68702 0.0
C1303 C 0.07045 0.798 0.68989 0.0
C1304 C 0.07345 0.82504 0.70126 0.0
C1305 C 0.10703 0.84885 0.70896 0.0
C1306 C 0.03544 0.77591 0.68039 0.0
C1307 C 0.00227 0.75733 0.68943 0.0
C1308 C 0.03422 0.77567 0.66253 0.0
C1309 C 0.06784 0.79624 0.65215 0.0
C1310 C 0.09001 0.83463 0.65379 0.0
C1311 C 0.12175 0.85382 0.64399 0.0
C1312 C 0.1314 0.83494 0.63241 0.0
C1313 C 0.10926 0.79684 0.63056 0.0
C1314 C 0.07751 0.77752 0.64035 0.0
C1315 C 0.89276 0.73808 0.63522 0.0
C1316 C 0.86288 0.70253 0.63804 0.0
C1317 C 0.92664 0.74963 0.64301 0.0
C1318 C 0.93156 0.72599 0.65387 0.0
C1319 C 0.9022 0.68989 0.65622 0.0
C1320 C 0.8681 0.67828 0.6484 0.0
C1321 C 0.96684 0.74034 0.6633 0.0
C1322 C 1.00006 0.75747 0.65424 0.0
C1323 C 0.96807 0.74007 0.68115 0.0
C1324 C 0.93425 0.72425 0.69157 0.0
C1325 C 0.92639 0.69542 0.70286 0.0
C1326 C 0.89444 0.68037 0.71267 0.0
C1327 C 0.87028 0.69411 0.71135 0.0
C1328 C 0.8781 0.72305 0.70028 0.0
C1329 C 0.91004 0.73822 0.69047 0.0
H1330 H 0.84554 0.6824 0.71894 0.0
H1331 H 0.15597 0.84984 0.62483 0.0
H1332 H 0.97786 0.19377 0.95609 0.0
H1333 H 0.03312 0.19473 0.96683 0.0
H1334 H 0.04528 0.27449 0.00451 0.0
H1335 H 0.99061 0.2743 0.99335 0.0
H1336 H 0.1088 0.29471 0.98983 0.0
H1337 H 0.01218 0.18225 0.01402 0.0
H1338 H 0.95657 0.12078 0.01318 0.0
H1339 H 0.0124 0.08124 0.98145 0.0
H1340 H 0.06822 0.14265 0.98193 0.0
H1341 H 0.19346 0.20478 0.04833 0.0
H1342 H 0.14239 0.20811 0.03539 0.0
H1343 H 0.21512 0.2761 0.99574 0.0
H1344 H 0.267 0.27779 0.01036 0.0
H1345 H 0.11065 0.18291 0.00852 0.0
H1346 H 0.1961 0.31083 0.97717 0.0
H1347 H 0.24667 0.37535 0.97894 0.0
H1348 H 0.20581 0.38727 0.02682 0.0
H1349 H 0.15513 0.32268 0.02517 0.0
C1350 C 0.99273 0.21176 0.96655 0.0
C1351 C 0.9812 0.23502 0.97357 0.0
C1352 C 0.02389 0.21193 0.97281 0.0
C1353 C 0.04329 0.23468 0.98647 0.0
C1354 C 0.03087 0.25699 0.99386 0.0
C1355 C 0.99976 0.25686 0.98755 0.0
C1356 C 0.07702 0.23598 0.99291 0.0
C1357 C 0.10925 0.27025 0.99387 0.0
C1358 C 0.07767 0.20407 0.99809 0.0
C1359 C 0.04422 0.16711 0.99788 0.0
C1360 C 0.0125 0.16051 0.00677 0.0
C1361 C 0.98096 0.12568 0.00637 0.0
C1362 C 0.98092 0.09715 0.99723 0.0
C1363 C 0.01246 0.10338 0.9885 0.0
C1364 C 0.04406 0.13817 0.98885 0.0
C1365 C 0.19879 0.22241 0.03749 0.0
C1366 C 0.23446 0.24321 0.03106 0.0
C1367 C 0.16948 0.22364 0.0298 0.0
C1368 C 0.17482 0.24379 0.01483 0.0
C1369 C 0.2103 0.26272 0.00784 0.0
C1370 C 0.23992 0.26296 0.01603 0.0
C1371 C 0.14255 0.24208 0.00607 0.0
C1372 C 0.11047 0.20749 0.00439 0.0
C1373 C 0.14193 0.27378 0.00027 0.0
C1374 C 0.17355 0.31148 0.00165 0.0
C1375 C 0.19859 0.32703 0.98826 0.0
C1376 C 0.22706 0.36362 0.98916 0.0
C1377 C 0.22993 0.38521 0.00316 0.0
C1378 C 0.20406 0.37034 0.01615 0.0
C1379 C 0.17578 0.33366 0.01534 0.0
H1380 H 0.25186 0.41358 0.00381 0.0
H1381 H 0.95648 0.07021 0.99694 0.0
H1382 H 0.80429 0.9931 0.29172 0.0
H1383 H 0.85584 0.047 0.3051 0.0
H1384 H 0.77939 0.05934 0.3371 0.0
H1385 H 0.72794 0.00604 0.3234 0.0
H1386 H 0.82742 0.12325 0.3236 0.0
H1387 H 0.83284 0.02541 0.35236 0.0
H1388 H 0.83637 0.96856 0.35439 0.0
H1389 H 0.94019 0.02141 0.32857 0.0
H1390 H 0.93701 0.07845 0.32618 0.0
H1391 H 0.99816 0.212 0.38573 0.0
H1392 H 0.94242 0.16009 0.37432 0.0
H1393 H 0.94848 0.2268 0.33154 0.0
H1394 H 0.00056 0.28002 0.34453 0.0
H1395 H 0.9342 0.12267 0.34997 0.0
H1396 H 0.88469 0.19586 0.30828 0.0
H1397 H 0.8753 0.24945 0.30652 0.0
H1398 H 0.85189 0.24107 0.35956 0.0
H1399 H 0.86169 0.1875 0.36155 0.0
C1400 C 0.79872 0.00774 0.30149 0.0
C1401 C 0.76245 0.99676 0.30616 0.0
C1402 C 0.82805 0.03807 0.30928 0.0
C1403 C 0.82138 0.05717 0.32207 0.0
C1404 C 0.78507 0.04518 0.32714 0.0
C1405 C 0.75581 0.01487 0.31937 0.0
C1406 C 0.85205 0.09042 0.32984 0.0
C1407 C 0.85087 0.12318 0.32931 0.0
C1408 C 0.88241 0.09024 0.33743 0.0
C1409 C 0.88452 0.05608 0.33896 0.0
C1410 C 0.85629 0.02482 0.34701 0.0
C1411 C 0.85825 0.99258 0.34824 0.0
C1412 C 0.88845 0.99135 0.34158 0.0
C1413 C 0.9168 0.0224 0.33371 0.0
C1414 C 0.91495 0.0547 0.33242 0.0
C1415 C 0.9859 0.21607 0.37453 0.0
C1416 C 0.00199 0.2505 0.36663 0.0
C1417 C 0.95462 0.18612 0.36768 0.0
C1418 C 0.94019 0.18931 0.35214 0.0
C1419 C 0.95733 0.22362 0.34392 0.0
C1420 C 0.98757 0.25402 0.35122 0.0
C1421 C 0.90954 0.15593 0.34404 0.0
C1422 C 0.91088 0.12301 0.34426 0.0
C1423 C 0.87915 0.15585 0.33617 0.0
C1424 C 0.87497 0.18871 0.33521 0.0
C1425 C 0.878 0.20584 0.31959 0.0
C1426 C 0.87264 0.23611 0.31854 0.0
C1427 C 0.86353 0.24896 0.33299 0.0
C1428 C 0.85965 0.23147 0.34848 0.0
C1429 C 0.86541 0.20142 0.34961 0.0
H1430 H 0.85914 0.27226 0.33215 0.0
H1431 H 0.88991 0.96637 0.34254 0.0
H1432 H 0.70789 0.71471 0.65795 0.0
H1433 H 0.70497 0.76582 0.67108 0.0
H1434 H 0.76617 0.83589 0.62924 0.0
H1435 H 0.77399 0.78635 0.61779 0.0
H1436 H 0.79353 0.87203 0.65385 0.0
H1437 H 0.65898 0.80246 0.64109 0.0
H1438 H 0.5962 0.74798 0.6421 0.0
H1439 H 0.60541 0.74182 0.6958 0.0
H1440 H 0.66786 0.79621 0.69499 0.0
H1441 H 0.7045 0.98807 0.67986 0.0
H1442 H 0.70064 0.93298 0.66689 0.0
H1443 H 0.78682 0.94263 0.69996 0.0
H1444 H 0.79101 0.99786 0.71266 0.0
H1445 H 0.68451 0.86689 0.68085 0.0
H1446 H 0.8392 0.91572 0.67834 0.0
H1447 H 0.89855 0.97378 0.67664 0.0
H1448 H 0.84612 0.02546 0.65095 0.0
H1449 H 0.78661 0.96759 0.65228 0.0
C1450 C 0.72015 0.74098 0.65149 0.0
C1451 C 0.73956 0.74621 0.63638 0.0
C1452 C 0.718 0.77014 0.65888 0.0
C1453 C 0.73435 0.80484 0.65101 0.0
C1454 C 0.75305 0.80955 0.63565 0.0
C1455 C 0.75672 0.78094 0.62877 0.0
C1456 C 0.73566 0.83729 0.65943 0.0
C1457 C 0.76939 0.87068 0.65956 0.0
C1458 C 0.70479 0.83601 0.66743 0.0
C1459 C 0.66812 0.80256 0.66786 0.0
C1460 C 0.64765 0.78887 0.65299 0.0
C1461 C 0.61215 0.75829 0.65357 0.0
C1462 C 0.59701 0.74125 0.66898 0.0
C1463 C 0.61723 0.7549 0.68386 0.0
C1464 C 0.65258 0.78564 0.68335 0.0
C1465 C 0.72237 0.97812 0.68433 0.0
C1466 C 0.74718 0.99608 0.69753 0.0
C1467 C 0.72014 0.9468 0.677 0.0
C1468 C 0.74343 0.93382 0.6825 0.0
C1469 C 0.76875 0.95233 0.69549 0.0
C1470 C 0.77087 0.98352 0.70283 0.0
C1471 C 0.7416 0.90119 0.67447 0.0
C1472 C 0.70823 0.86791 0.67484 0.0
C1473 C 0.77262 0.90268 0.66674 0.0
C1474 C 0.80841 0.93742 0.66556 0.0
C1475 C 0.84039 0.93944 0.67226 0.0
C1476 C 0.87405 0.97232 0.67137 0.0
C1477 C 0.87608 0.00332 0.66374 0.0
C1478 C 0.84449 0.00147 0.65691 0.0
C1479 C 0.81079 0.96865 0.65774 0.0
H1480 H 0.90215 0.02876 0.66309 0.0
H1481 H 0.56951 0.71766 0.66941 0.0
H1482 H 0.7996 0.8012 0.04505 0.0
H1483 H 0.85155 0.79975 0.0317 0.0
H1484 H 0.77653 0.71516 0.99755 0.0
H1485 H 0.72453 0.71595 0.0113 0.0
H1486 H 0.82326 0.69707 0.01038 0.0
H1487 H 0.83249 0.80506 0.98464 0.0
H1488 H 0.83712 0.86605 0.98433 0.0
H1489 H 0.93852 0.91179 0.01202 0.0
H1490 H 0.93424 0.85093 0.01269 0.0
H1491 H 0.99755 0.78441 0.95076 0.0
H1492 H 0.94127 0.77972 0.9621 0.0
H1493 H 0.94601 0.71627 0.00398 0.0
H1494 H 0.99869 0.71624 0.99109 0.0
H1495 H 0.93288 0.8072 0.98755 0.0
H1496 H 0.88649 0.68165 0.02483 0.0
H1497 H 0.87663 0.61838 0.02473 0.0
H1498 H 0.84197 0.60543 0.97299 0.0
H1499 H 0.85214 0.66898 0.97289 0.0
C1500 C 0.79439 0.78211 0.03479 0.0
C1501 C 0.75832 0.75765 0.02954 0.0
C1502 C 0.824 0.78165 0.02703 0.0
C1503 C 0.81788 0.75733 0.01363 0.0
C1504 C 0.78179 0.73389 0.00797 0.0
C1505 C 0.75221 0.73436 0.01576 0.0
C1506 C 0.8489 0.75535 0.00588 0.0
C1507 C 0.84731 0.7212 0.00546 0.0
C1508 C 0.88013 0.78671 0.99932 0.0
C1509 C 0.88288 0.82338 0.99884 0.0
C1510 C 0.85565 0.82807 0.99076 0.0
C1511 C 0.85822 0.86262 0.99051 0.0
C1512 C 0.88805 0.89276 0.99818 0.0
C1513 C 0.91541 0.88842 0.0061 0.0
C1514 C 0.91295 0.85391 0.0064 0.0
C1515 C 0.98494 0.76741 0.96175 0.0
C1516 C 0.00083 0.74865 0.96943 0.0
C1517 C 0.9533 0.76545 0.96852 0.0
C1518 C 0.93827 0.74661 0.98375 0.0
C1519 C 0.95522 0.72904 0.99177 0.0
C1520 C 0.98586 0.7296 0.98455 0.0
C1521 C 0.90726 0.74861 0.99185 0.0
C1522 C 0.90897 0.78299 0.99253 0.0
C1523 C 0.87608 0.71746 0.99873 0.0
C1524 C 0.87147 0.68021 0.99859 0.0
C1525 C 0.87728 0.66538 0.01339 0.0
C1526 C 0.87162 0.62956 0.01338 0.0
C1527 C 0.85923 0.60809 0.99877 0.0
C1528 C 0.85224 0.62234 0.98419 0.0
C1529 C 0.8583 0.65832 0.9841 0.0
H1530 H 0.85468 0.58031 0.99879 0.0
H1531 H 0.88999 0.91949 0.99797 0.0
H1532 H 0.00062 0.71996 0.34191 0.0
H1533 H 0.04996 0.77112 0.32647 0.0
H1534 H 0.0616 0.84483 0.36716 0.0
H1535 H 0.00817 0.79481 0.38095 0.0
H1536 H 0.06689 0.87804 0.34142 0.0
H1537 H 0.14846 0.81793 0.35372 0.0
H1538 H 0.1571 0.7636 0.3522 0.0
H1539 H 0.11408 0.74185 0.30174 0.0
H1540 H 0.10552 0.79601 0.3031 0.0
H1541 H 0.27561 0.99205 0.3209 0.0
H1542 H 0.22153 0.93849 0.33299 0.0
H1543 H 0.15164 0.95265 0.29739 0.0
H1544 H 0.20571 0.0066 0.28557 0.0
H1545 H 0.1745 0.87469 0.31784 0.0
H1546 H 0.06751 0.92244 0.31616 0.0
H1547 H 0.06526 0.9801 0.31748 0.0
H1548 H 0.16548 0.03131 0.34618 0.0
H1549 H 0.16803 0.97383 0.34524 0.0
C1550 C 0.01423 0.7471 0.34758 0.0
C1551 C 0.00227 0.75316 0.36316 0.0
C1552 C 0.04297 0.77633 0.33888 0.0
C1553 C 0.06105 0.81194 0.34586 0.0
C1554 C 0.0487 0.81773 0.36145 0.0
C1555 C 0.01883 0.78892 0.36967 0.0
C1556 C 0.09112 0.84389 0.33673 0.0
C1557 C 0.09028 0.87705 0.3362 0.0
C1558 C 0.1215 0.84303 0.32941 0.0
C1559 C 0.12485 0.80969 0.32885 0.0
C1560 C 0.14005 0.80081 0.34254 0.0
C1561 C 0.14526 0.7704 0.34163 0.0
C1562 C 0.13554 0.74893 0.327 0.0
C1563 C 0.12116 0.7582 0.31315 0.0
C1564 C 0.11624 0.78877 0.31398 0.0
C1565 C 0.24862 0.98356 0.31574 0.0
C1566 C 0.24457 0.00221 0.30199 0.0
C1567 C 0.21788 0.9531 0.32258 0.0
C1568 C 0.18267 0.94159 0.31603 0.0
C1569 C 0.17854 0.96119 0.30267 0.0
C1570 C 0.20934 0.99159 0.29581 0.0
C1571 C 0.15047 0.90853 0.32299 0.0
C1572 C 0.15083 0.87534 0.32288 0.0
C1573 C 0.11966 0.90941 0.32958 0.0
C1574 C 0.11814 0.94396 0.33046 0.0
C1575 C 0.08898 0.94598 0.3228 0.0
C1576 C 0.08766 0.97863 0.32348 0.0
C1577 C 0.11527 0.00939 0.33186 0.0
C1578 C 0.14418 0.00751 0.33964 0.0
C1579 C 0.1456 0.97492 0.33902 0.0
H1580 H 0.11422 0.03465 0.33235 0.0
H1581 H 0.13954 0.72538 0.32632 0.0
H1582 H 0.29853 0.03144 0.69047 0.0
H1583 H 0.29804 0.08334 0.67681 0.0
H1584 H 0.19615 0.05495 0.70222 0.0
H1585 H 0.19976 0.00646 0.71756 0.0
H1586 H 0.25207 0.07444 0.65504 0.0
H1587 H 0.16955 0.0952 0.69797 0.0
H1588 H 0.15535 0.10998 0.72614 0.0
H1589 H 0.26922 0.19045 0.7333 0.0
H1590 H 0.28424 0.17464 0.7055 0.0
H1591 H 0.21043 0.20504 0.61129 0.0
H1592 H 0.20883 0.15163 0.62471 0.0
H1593 H 0.29393 0.22399 0.65929 0.0
H1594 H 0.29339 0.27688 0.64669 0.0
H1595 H 0.2331 0.17542 0.67515 0.0
H1596 H 0.31559 0.13992 0.63422 0.0
H1597 H 0.32601 0.11976 0.6065 0.0
H1598 H 0.21115 0.07168 0.59476 0.0
H1599 H 0.19996 0.09017 0.62271 0.0
C1600 C 0.27711 0.03764 0.69369 0.0
C1601 C 0.24976 0.01586 0.7053 0.0
C1602 C 0.27654 0.06707 0.68581 0.0
C1603 C 0.24717 0.07376 0.68848 0.0
C1604 C 0.22004 0.05207 0.70037 0.0
C1605 C 0.22175 0.0238 0.70896 0.0
C1606 C 0.24305 0.09955 0.67694 0.0
C1607 C 0.24828 0.09675 0.65958 0.0
C1608 C 0.23599 0.12758 0.68242 0.0
C1609 C 0.22824 0.13248 0.70008 0.0
C1610 C 0.19171 0.11508 0.70585 0.0
C1611 C 0.18349 0.12375 0.72169 0.0
C1612 C 0.21143 0.15087 0.73159 0.0
C1613 C 0.24767 0.16913 0.72571 0.0
C1614 C 0.25614 0.15985 0.71004 0.0
C1615 C 0.22955 0.20938 0.62141 0.0
C1616 C 0.25235 0.24485 0.62792 0.0
C1617 C 0.22894 0.17887 0.62896 0.0
C1618 C 0.25166 0.18366 0.64288 0.0
C1619 C 0.27622 0.21955 0.64854 0.0
C1620 C 0.27595 0.24975 0.64138 0.0
C1621 C 0.2457 0.1522 0.65365 0.0
C1622 C 0.23753 0.1534 0.67074 0.0
C1623 C 0.24977 0.12257 0.64792 0.0
C1624 C 0.25724 0.11775 0.63021 0.0
C1625 C 0.29277 0.12577 0.62554 0.0
C1626 C 0.29866 0.11392 0.60997 0.0
C1627 C 0.26923 0.09438 0.59889 0.0
C1628 C 0.23392 0.0869 0.60332 0.0
C1629 C 0.2278 0.09806 0.61903 0.0
H1630 H 0.27385 0.0853 0.58682 0.0
H1631 H 0.205 0.1579 0.74377 0.0
loop_
_geom_bond_atom_site_label_1
_geom_bond_atom_site_label_2
_geom_bond_distance
_geom_bond_site_symmetry_2
_ccdc_geom_bond_type
Mn0 O5 2.095 . S
Mn0 O15 2.162 . S
Mn0 O16 2.297 . S
Mn0 O24 2.385 . S
Mn0 O25 2.209 . S
Mn0 O26 2.094 . S
Mn1 O6 2.121 . S
Mn1 N8 2.257 . S
Mn1 N17 2.282 . S
Mn1 O25 2.215 . S
Mn1 O27 2.117 . S
C2 O24 1.234 . S
C2 O25 1.283 . S
C3 O15 1.281 . S
C3 O16 1.236 . S
C4 O26 1.240 . S
C4 O27 1.264 . S
O5 Mn0 2.095 . S
O5 C14 1.250 . S
O6 Mn1 2.121 . S
O6 C14 1.258 . S
C7 N8 1.326 . S
C7 C11 1.460 . S
C7 H13 0.929 . S
N8 Mn1 2.257 . S
N8 C7 1.326 . S
N8 C12 1.362 . S
C9 C10 1.258 . S
C9 C12 1.431 . S
C9 C29 1.449 . S
C10 C9 1.258 . S
C10 C11 1.477 . S
C10 H30 0.931 . S
C11 C7 1.460 . S
C11 C10 1.477 . S
C11 H31 0.930 . S
C12 N8 1.362 . S
C12 C9 1.431 . S
C12 C22 1.476 . S
H13 C7 0.929 . S
C14 O5 1.250 . S
C14 O6 1.258 . S
O15 Mn0 2.162 . S
O15 C3 1.281 . S
O16 Mn0 2.297 . S
O16 C3 1.236 . S
N17 Mn1 2.282 . S
N17 C18 1.328 . S
N17 C22 1.318 . S
C18 N17 1.328 . S
C18 C19 1.457 . S
C18 H23 0.929 . S
C19 C18 1.457 . S
C19 C20 1.291 . S
C19 H32 0.931 . S
C20 C19 1.291 . S
C20 C21 1.373 . S
C20 H33 0.929 . S
C21 C20 1.373 . S
C21 C22 1.396 . S
C21 C28 1.403 . S
C22 C12 1.476 . S
C22 N17 1.318 . S
C22 C21 1.396 . S
H23 C18 0.929 . S
O24 Mn0 2.385 . S
O24 C2 1.234 . S
O25 Mn0 2.209 . S
O25 Mn1 2.215 . S
O25 C2 1.283 . S
O26 Mn0 2.094 . S
O26 C4 1.240 . S
O27 Mn1 2.117 . S
O27 C4 1.264 . S
C28 C21 1.403 . S
C28 C29 1.399 . S
C28 H34 0.929 . S
C29 C9 1.449 . S
C29 C28 1.399 . S
C29 H35 0.930 . S
H30 C10 0.931 . S
H31 C11 0.930 . S
H32 C19 0.931 . S
H33 C20 0.929 . S
H34 C28 0.929 . S
H35 C29 0.930 . S
Mn36 O41 2.095 . S
Mn36 O51 2.162 . S
Mn36 O52 2.297 . S
Mn36 O60 2.385 . S
Mn36 O61 2.209 . S
Mn36 O62 2.094 . S
Mn37 O42 2.121 . S
Mn37 N44 2.257 1_455 S
Mn37 N53 2.282 1_455 S
Mn37 O61 2.215 . S
Mn37 O63 2.117 . S
C38 O60 1.234 . S
C38 O61 1.283 . S
C39 O51 1.281 . S
C39 O52 1.236 . S
C40 O62 1.240 . S
C40 O63 1.264 . S
O41 Mn36 2.095 . S
O41 C50 1.250 . S
O42 Mn37 2.121 . S
O42 C50 1.258 . S
C43 N44 1.326 . S
C43 C47 1.460 . S
C43 H49 0.929 1_655 S
N44 Mn37 2.257 1_655 S
N44 C43 1.326 . S
N44 C48 1.362 . S
C45 C46 1.258 . S
C45 C48 1.431 . S
C45 C65 1.449 . S
C46 C45 1.258 . S
C46 C47 1.477 . S
C46 H66 0.931 . S
C47 C43 1.460 . S
C47 C46 1.477 . S
C47 H67 0.930 . S
C48 N44 1.362 . S
C48 C45 1.431 . S
C48 C58 1.476 . S
H49 C43 0.929 1_455 S
C50 O41 1.250 . S
C50 O42 1.258 . S
O51 Mn36 2.162 . S
O51 C39 1.281 . S
O52 Mn36 2.297 . S
O52 C39 1.236 . S
N53 Mn37 2.282 1_655 S
N53 C54 1.328 . S
N53 C58 1.318 . S
C54 N53 1.328 . S
C54 C55 1.457 . S
C54 H59 0.929 . S
C55 C54 1.457 . S
C55 C56 1.291 . S
C55 H68 0.931 . S
C56 C55 1.291 . S
C56 C57 1.373 . S
C56 H69 0.929 . S
C57 C56 1.373 . S
C57 C58 1.396 . S
C57 C64 1.403 . S
C58 C48 1.476 . S
C58 N53 1.318 . S
C58 C57 1.396 . S
H59 C54 0.929 . S
O60 Mn36 2.385 . S
O60 C38 1.234 . S
O61 Mn36 2.209 . S
O61 Mn37 2.215 . S
O61 C38 1.283 . S
O62 Mn36 2.094 . S
O62 C40 1.240 . S
O63 Mn37 2.117 . S
O63 C40 1.264 . S
C64 C57 1.403 . S
C64 C65 1.399 . S
C64 H70 0.929 . S
C65 C45 1.449 . S
C65 C64 1.399 . S
C65 H71 0.930 . S
H66 C46 0.931 . S
H67 C47 0.930 . S
H68 C55 0.931 . S
H69 C56 0.929 . S
H70 C64 0.929 . S
H71 C65 0.930 . S
Mn72 O77 2.095 . S
Mn72 O87 2.162 . S
Mn72 O88 2.297 . S
Mn72 O96 2.385 . S
Mn72 O97 2.209 . S
Mn72 O98 2.094 . S
Mn73 O78 2.121 . S
Mn73 N80 2.257 1_545 S
Mn73 N89 2.282 1_545 S
Mn73 O97 2.215 . S
Mn73 O99 2.117 . S
C74 O96 1.234 . S
C74 O97 1.283 . S
C75 O87 1.281 . S
C75 O88 1.236 . S
C76 O98 1.240 . S
C76 O99 1.264 . S
O77 Mn72 2.095 . S
O77 C86 1.250 . S
O78 Mn73 2.121 . S
O78 C86 1.258 . S
C79 N80 1.326 . S
C79 C83 1.460 . S
C79 H85 0.929 1_565 S
N80 Mn73 2.257 1_565 S
N80 C79 1.326 . S
N80 C84 1.362 . S
C81 C82 1.258 . S
C81 C84 1.431 . S
C81 C101 1.449 . S
C82 C81 1.258 . S
C82 C83 1.477 . S
C82 H102 0.931 . S
C83 C79 1.460 . S
C83 C82 1.477 . S
C83 H103 0.930 . S
C84 N80 1.362 . S
C84 C81 1.431 . S
C84 C94 1.476 . S
H85 C79 0.929 1_545 S
C86 O77 1.250 . S
C86 O78 1.258 . S
O87 Mn72 2.162 . S
O87 C75 1.281 . S
O88 Mn72 2.297 . S
O88 C75 1.236 . S
N89 Mn73 2.282 1_565 S
N89 C90 1.328 . S
N89 C94 1.318 . S
C90 N89 1.328 . S
C90 C91 1.457 . S
C90 H95 0.929 . S
C91 C90 1.457 . S
C91 C92 1.291 . S
C91 H104 0.931 . S
C92 C91 1.291 . S
C92 C93 1.373 . S
C92 H105 0.929 . S
C93 C92 1.373 . S
C93 C94 1.396 . S
C93 C100 1.403 . S
C94 C84 1.476 . S
C94 N89 1.318 . S
C94 C93 1.396 . S
H95 C90 0.929 . S
O96 Mn72 2.385 . S
O96 C74 1.234 . S
O97 Mn72 2.209 . S
O97 Mn73 2.215 . S
O97 C74 1.283 . S
O98 Mn72 2.094 . S
O98 C76 1.240 . S
O99 Mn73 2.117 . S
O99 C76 1.264 . S
C100 C93 1.403 . S
C100 C101 1.399 . S
C100 H106 0.929 . S
C101 C81 1.449 . S
C101 C100 1.399 . S
C101 H107 0.930 . S
H102 C82 0.931 . S
H103 C83 0.930 . S
H104 C91 0.931 . S
H105 C92 0.929 . S
H106 C100 0.929 . S
H107 C101 0.930 . S
Mn108 O113 2.095 . S
Mn108 O123 2.162 . S
Mn108 O124 2.297 . S
Mn108 O132 2.385 . S
Mn108 O133 2.209 . S
Mn108 O134 2.094 . S
Mn109 O114 2.121 . S
Mn109 N116 2.257 . S
Mn109 N125 2.282 . S
Mn109 O133 2.215 . S
Mn109 O135 2.117 . S
C110 O132 1.234 . S
C110 O133 1.283 . S
C111 O123 1.281 . S
C111 O124 1.236 . S
C112 O134 1.240 . S
C112 O135 1.264 . S
O113 Mn108 2.095 . S
O113 C122 1.250 . S
O114 Mn109 2.121 . S
O114 C122 1.258 . S
C115 N116 1.326 . S
C115 C119 1.460 . S
C115 H121 0.929 . S
N116 Mn109 2.257 . S
N116 C115 1.326 . S
N116 C120 1.362 . S
C117 C118 1.258 . S
C117 C120 1.431 . S
C117 C137 1.449 . S
C118 C117 1.258 . S
C118 C119 1.477 . S
C118 H138 0.931 . S
C119 C115 1.460 . S
C119 C118 1.477 . S
C119 H139 0.930 . S
C120 N116 1.362 . S
C120 C117 1.431 . S
C120 C130 1.476 . S
H121 C115 0.929 . S
C122 O113 1.250 . S
C122 O114 1.258 . S
O123 Mn108 2.162 . S
O123 C111 1.281 . S
O124 Mn108 2.297 . S
O124 C111 1.236 . S
N125 Mn109 2.282 . S
N125 C126 1.328 . S
N125 C130 1.318 . S
C126 N125 1.328 . S
C126 C127 1.457 . S
C126 H131 0.929 . S
C127 C126 1.457 . S
C127 C128 1.291 . S
C127 H140 0.931 . S
C128 C127 1.291 . S
C128 C129 1.373 . S
C128 H141 0.929 . S
C129 C128 1.373 . S
C129 C130 1.396 . S
C129 C136 1.403 . S
C130 C120 1.476 . S
C130 N125 1.318 . S
C130 C129 1.396 . S
H131 C126 0.929 . S
O132 Mn108 2.385 . S
O132 C110 1.234 . S
O133 Mn108 2.209 . S
O133 Mn109 2.215 . S
O133 C110 1.283 . S
O134 Mn108 2.094 . S
O134 C112 1.240 . S
O135 Mn109 2.117 . S
O135 C112 1.264 . S
C136 C129 1.403 . S
C136 C137 1.399 . S
C136 H142 0.929 . S
C137 C117 1.449 . S
C137 C136 1.399 . S
C137 H143 0.930 . S
H138 C118 0.931 . S
H139 C119 0.930 . S
H140 C127 0.931 . S
H141 C128 0.929 . S
H142 C136 0.929 . S
H143 C137 0.930 . S
Mn144 O149 2.095 . S
Mn144 O159 2.162 . S
Mn144 O160 2.297 . S
Mn144 O168 2.385 . S
Mn144 O169 2.209 . S
Mn144 O170 2.094 . S
Mn145 O150 2.121 . S
Mn145 N152 2.257 1_655 S
Mn145 N161 2.282 1_655 S
Mn145 O169 2.215 . S
Mn145 O171 2.117 . S
C146 O168 1.234 . S
C146 O169 1.283 . S
C147 O159 1.281 . S
C147 O160 1.236 . S
C148 O170 1.240 . S
C148 O171 1.264 . S
O149 Mn144 2.095 . S
O149 C158 1.250 . S
O150 Mn145 2.121 . S
O150 C158 1.258 . S
C151 N152 1.326 . S
C151 C155 1.460 . S
C151 H157 0.929 1_455 S
N152 Mn145 2.257 1_455 S
N152 C151 1.326 . S
N152 C156 1.362 . S
C153 C154 1.258 . S
C153 C156 1.431 . S
C153 C173 1.449 . S
C154 C153 1.258 . S
C154 C155 1.477 . S
C154 H174 0.931 . S
C155 C151 1.460 . S
C155 C154 1.477 . S
C155 H175 0.930 . S
C156 N152 1.362 . S
C156 C153 1.431 . S
C156 C166 1.476 . S
H157 C151 0.929 1_655 S
C158 O149 1.250 . S
C158 O150 1.258 . S
O159 Mn144 2.162 . S
O159 C147 1.281 . S
O160 Mn144 2.297 . S
O160 C147 1.236 . S
N161 Mn145 2.282 1_455 S
N161 C162 1.328 . S
N161 C166 1.318 . S
C162 N161 1.328 . S
C162 C163 1.457 . S
C162 H167 0.929 . S
C163 C162 1.457 . S
C163 C164 1.291 . S
C163 H176 0.931 . S
C164 C163 1.291 . S
C164 C165 1.373 . S
C164 H177 0.929 . S
C165 C164 1.373 . S
C165 C166 1.396 . S
C165 C172 1.403 . S
C166 C156 1.476 . S
C166 N161 1.318 . S
C166 C165 1.396 . S
H167 C162 0.929 . S
O168 Mn144 2.385 . S
O168 C146 1.234 . S
O169 Mn144 2.209 . S
O169 Mn145 2.215 . S
O169 C146 1.283 . S
O170 Mn144 2.094 . S
O170 C148 1.240 . S
O171 Mn145 2.117 . S
O171 C148 1.264 . S
C172 C165 1.403 . S
C172 C173 1.399 . S
C172 H178 0.929 . S
C173 C153 1.449 . S
C173 C172 1.399 . S
C173 H179 0.930 . S
H174 C154 0.931 . S
H175 C155 0.930 . S
H176 C163 0.931 . S
H177 C164 0.929 . S
H178 C172 0.929 . S
H179 C173 0.930 . S
Mn180 O185 2.095 . S
Mn180 O195 2.162 . S
Mn180 O196 2.297 . S
Mn180 O204 2.385 . S
Mn180 O205 2.209 . S
Mn180 O206 2.094 . S
Mn181 O186 2.121 . S
Mn181 N188 2.257 1_565 S
Mn181 N197 2.282 1_565 S
Mn181 O205 2.215 . S
Mn181 O207 2.117 . S
C182 O204 1.234 . S
C182 O205 1.283 . S
C183 O195 1.281 . S
C183 O196 1.236 . S
C184 O206 1.240 . S
C184 O207 1.264 . S
O185 Mn180 2.095 . S
O185 C194 1.250 . S
O186 Mn181 2.121 . S
O186 C194 1.258 . S
C187 N188 1.326 . S
C187 C191 1.460 . S
C187 H193 0.929 1_545 S
N188 Mn181 2.257 1_545 S
N188 C187 1.326 . S
N188 C192 1.362 . S
C189 C190 1.258 . S
C189 C192 1.431 . S
C189 C209 1.449 . S
C190 C189 1.258 . S
C190 C191 1.477 . S
C190 H210 0.931 . S
C191 C187 1.460 . S
C191 C190 1.477 . S
C191 H211 0.930 . S
C192 N188 1.362 . S
C192 C189 1.431 . S
C192 C202 1.476 . S
H193 C187 0.929 1_565 S
C194 O185 1.250 . S
C194 O186 1.258 . S
O195 Mn180 2.162 . S
O195 C183 1.281 . S
O196 Mn180 2.297 . S
O196 C183 1.236 . S
N197 Mn181 2.282 1_545 S
N197 C198 1.328 . S
N197 C202 1.318 . S
C198 N197 1.328 . S
C198 C199 1.457 . S
C198 H203 0.929 . S
C199 C198 1.457 . S
C199 C200 1.291 . S
C199 H212 0.931 . S
C200 C199 1.291 . S
C200 C201 1.373 . S
C200 H213 0.929 . S
C201 C200 1.373 . S
C201 C202 1.396 . S
C201 C208 1.403 . S
C202 C192 1.476 . S
C202 N197 1.318 . S
C202 C201 1.396 . S
H203 C198 0.929 . S
O204 Mn180 2.385 . S
O204 C182 1.234 . S
O205 Mn180 2.209 . S
O205 Mn181 2.215 . S
O205 C182 1.283 . S
O206 Mn180 2.094 . S
O206 C184 1.240 . S
O207 Mn181 2.117 . S
O207 C184 1.264 . S
C208 C201 1.403 . S
C208 C209 1.399 . S
C208 H214 0.929 . S
C209 C189 1.449 . S
C209 C208 1.399 . S
C209 H215 0.930 . S
H210 C190 0.931 . S
H211 C191 0.930 . S
H212 C199 0.931 . S
H213 C200 0.929 . S
H214 C208 0.929 . S
H215 C209 0.930 . S
Mn216 O221 2.095 . S
Mn216 O231 2.162 . S
Mn216 O232 2.297 . S
Mn216 O240 2.385 . S
Mn216 O241 2.209 . S
Mn216 O242 2.094 . S
Mn217 O222 2.121 . S
Mn217 N224 2.257 . S
Mn217 N233 2.282 . S
Mn217 O241 2.215 . S
Mn217 O243 2.117 . S
C218 O240 1.234 . S
C218 O241 1.283 . S
C219 O231 1.281 . S
C219 O232 1.236 . S
C220 O242 1.240 . S
C220 O243 1.264 . S
O221 Mn216 2.095 . S
O221 C230 1.250 . S
O222 Mn217 2.121 . S
O222 C230 1.258 . S
C223 N224 1.326 . S
C223 C227 1.460 . S
C223 H229 0.929 . S
N224 Mn217 2.257 . S
N224 C223 1.326 . S
N224 C228 1.362 . S
C225 C226 1.258 . S
C225 C228 1.431 . S
C225 C245 1.449 . S
C226 C225 1.258 . S
C226 C227 1.477 . S
C226 H246 0.931 . S
C227 C223 1.460 . S
C227 C226 1.477 . S
C227 H247 0.930 . S
C228 N224 1.362 . S
C228 C225 1.431 . S
C228 C238 1.476 . S
H229 C223 0.929 . S
C230 O221 1.250 . S
C230 O222 1.258 . S
O231 Mn216 2.162 . S
O231 C219 1.281 . S
O232 Mn216 2.297 . S
O232 C219 1.236 . S
N233 Mn217 2.282 . S
N233 C234 1.328 . S
N233 C238 1.318 . S
C234 N233 1.328 . S
C234 C235 1.457 . S
C234 H239 0.929 . S
C235 C234 1.457 . S
C235 C236 1.291 . S
C235 H248 0.931 . S
C236 C235 1.291 . S
C236 C237 1.373 . S
C236 H249 0.929 . S
C237 C236 1.373 . S
C237 C238 1.396 . S
C237 C244 1.403 . S
C238 C228 1.476 . S
C238 N233 1.318 . S
C238 C237 1.396 . S
H239 C234 0.929 . S
O240 Mn216 2.385 . S
O240 C218 1.234 . S
O241 Mn216 2.209 . S
O241 Mn217 2.215 . S
O241 C218 1.283 . S
O242 Mn216 2.094 . S
O242 C220 1.240 . S
O243 Mn217 2.117 . S
O243 C220 1.264 . S
C244 C237 1.403 . S
C244 C245 1.399 . S
C244 H250 0.929 . S
C245 C225 1.449 . S
C245 C244 1.399 . S
C245 H251 0.930 . S
H246 C226 0.931 . S
H247 C227 0.930 . S
H248 C235 0.931 . S
H249 C236 0.929 . S
H250 C244 0.929 . S
H251 C245 0.930 . S
Mn252 O257 2.095 . S
Mn252 O267 2.162 . S
Mn252 O268 2.297 . S
Mn252 O276 2.385 . S
Mn252 O277 2.209 . S
Mn252 O278 2.094 . S
Mn253 O258 2.121 . S
Mn253 N260 2.257 1_455 S
Mn253 N269 2.282 1_455 S
Mn253 O277 2.215 . S
Mn253 O279 2.117 . S
C254 O276 1.234 . S
C254 O277 1.283 . S
C255 O267 1.281 . S
C255 O268 1.236 . S
C256 O278 1.240 . S
C256 O279 1.264 . S
O257 Mn252 2.095 . S
O257 C266 1.250 . S
O258 Mn253 2.121 . S
O258 C266 1.258 . S
C259 N260 1.326 . S
C259 C263 1.460 . S
C259 H265 0.929 1_655 S
N260 Mn253 2.257 1_655 S
N260 C259 1.326 . S
N260 C264 1.362 . S
C261 C262 1.258 . S
C261 C264 1.431 . S
C261 C281 1.449 . S
C262 C261 1.258 . S
C262 C263 1.477 . S
C262 H282 0.931 . S
C263 C259 1.460 . S
C263 C262 1.477 . S
C263 H283 0.930 . S
C264 N260 1.362 . S
C264 C261 1.431 . S
C264 C274 1.476 . S
H265 C259 0.929 1_455 S
C266 O257 1.250 . S
C266 O258 1.258 . S
O267 Mn252 2.162 . S
O267 C255 1.281 . S
O268 Mn252 2.297 . S
O268 C255 1.236 . S
N269 Mn253 2.282 1_655 S
N269 C270 1.328 . S
N269 C274 1.318 . S
C270 N269 1.328 . S
C270 C271 1.457 . S
C270 H275 0.929 . S
C271 C270 1.457 . S
C271 C272 1.291 . S
C271 H284 0.931 . S
C272 C271 1.291 . S
C272 C273 1.373 . S
C272 H285 0.929 . S
C273 C272 1.373 . S
C273 C274 1.396 . S
C273 C280 1.403 . S
C274 C264 1.476 . S
C274 N269 1.318 . S
C274 C273 1.396 . S
H275 C270 0.929 . S
O276 Mn252 2.385 . S
O276 C254 1.234 . S
O277 Mn252 2.209 . S
O277 Mn253 2.215 . S
O277 C254 1.283 . S
O278 Mn252 2.094 . S
O278 C256 1.240 . S
O279 Mn253 2.117 . S
O279 C256 1.264 . S
C280 C273 1.403 . S
C280 C281 1.399 . S
C280 H286 0.929 . S
C281 C261 1.449 . S
C281 C280 1.399 . S
C281 H287 0.930 . S
H282 C262 0.931 . S
H283 C263 0.930 . S
H284 C271 0.931 . S
H285 C272 0.929 . S
H286 C280 0.929 . S
H287 C281 0.930 . S
Mn288 O293 2.095 . S
Mn288 O303 2.162 . S
Mn288 O304 2.297 . S
Mn288 O312 2.385 . S
Mn288 O313 2.209 . S
Mn288 O314 2.094 . S
Mn289 O294 2.121 . S
Mn289 N296 2.257 1_545 S
Mn289 N305 2.282 1_545 S
Mn289 O313 2.215 . S
Mn289 O315 2.117 . S
C290 O312 1.234 . S
C290 O313 1.283 . S
C291 O303 1.281 . S
C291 O304 1.236 . S
C292 O314 1.240 . S
C292 O315 1.264 . S
O293 Mn288 2.095 . S
O293 C302 1.250 . S
O294 Mn289 2.121 . S
O294 C302 1.258 . S
C295 N296 1.326 . S
C295 C299 1.460 . S
C295 H301 0.929 1_565 S
N296 Mn289 2.257 1_565 S
N296 C295 1.326 . S
N296 C300 1.362 . S
C297 C298 1.258 . S
C297 C300 1.431 . S
C297 C317 1.449 . S
C298 C297 1.258 . S
C298 C299 1.477 . S
C298 H318 0.931 . S
C299 C295 1.460 . S
C299 C298 1.477 . S
C299 H319 0.930 . S
C300 N296 1.362 . S
C300 C297 1.431 . S
C300 C310 1.476 . S
H301 C295 0.929 1_545 S
C302 O293 1.250 . S
C302 O294 1.258 . S
O303 Mn288 2.162 . S
O303 C291 1.281 . S
O304 Mn288 2.297 . S
O304 C291 1.236 . S
N305 Mn289 2.282 1_565 S
N305 C306 1.328 . S
N305 C310 1.318 . S
C306 N305 1.328 . S
C306 C307 1.457 . S
C306 H311 0.929 . S
C307 C306 1.457 . S
C307 C308 1.291 . S
C307 H320 0.931 . S
C308 C307 1.291 . S
C308 C309 1.373 . S
C308 H321 0.929 . S
C309 C308 1.373 . S
C309 C310 1.396 . S
C309 C316 1.403 . S
C310 C300 1.476 . S
C310 N305 1.318 . S
C310 C309 1.396 . S
H311 C306 0.929 . S
O312 Mn288 2.385 . S
O312 C290 1.234 . S
O313 Mn288 2.209 . S
O313 Mn289 2.215 . S
O313 C290 1.283 . S
O314 Mn288 2.094 . S
O314 C292 1.240 . S
O315 Mn289 2.117 . S
O315 C292 1.264 . S
C316 C309 1.403 . S
C316 C317 1.399 . S
C316 H322 0.929 . S
C317 C297 1.449 . S
C317 C316 1.399 . S
C317 H323 0.930 . S
H318 C298 0.931 . S
H319 C299 0.930 . S
H320 C307 0.931 . S
H321 C308 0.929 . S
H322 C316 0.929 . S
H323 C317 0.930 . S
Mn324 O329 2.095 . S
Mn324 O339 2.162 . S
Mn324 O340 2.297 . S
Mn324 O348 2.385 . S
Mn324 O349 2.209 . S
Mn324 O350 2.094 . S
Mn325 O330 2.121 . S
Mn325 N332 2.257 . S
Mn325 N341 2.282 . S
Mn325 O349 2.215 . S
Mn325 O351 2.117 . S
C326 O348 1.234 . S
C326 O349 1.283 . S
C327 O339 1.281 . S
C327 O340 1.236 . S
C328 O350 1.240 . S
C328 O351 1.264 . S
O329 Mn324 2.095 . S
O329 C338 1.250 . S
O330 Mn325 2.121 . S
O330 C338 1.258 . S
C331 N332 1.326 . S
C331 C335 1.460 . S
C331 H337 0.929 . S
N332 Mn325 2.257 . S
N332 C331 1.326 . S
N332 C336 1.362 . S
C333 C334 1.258 . S
C333 C336 1.431 . S
C333 C353 1.449 . S
C334 C333 1.258 . S
C334 C335 1.477 . S
C334 H354 0.931 . S
C335 C331 1.460 . S
C335 C334 1.477 . S
C335 H355 0.930 . S
C336 N332 1.362 . S
C336 C333 1.431 . S
C336 C346 1.476 . S
H337 C331 0.929 . S
C338 O329 1.250 . S
C338 O330 1.258 . S
O339 Mn324 2.162 . S
O339 C327 1.281 . S
O340 Mn324 2.297 . S
O340 C327 1.236 . S
N341 Mn325 2.282 . S
N341 C342 1.328 . S
N341 C346 1.318 . S
C342 N341 1.328 . S
C342 C343 1.457 . S
C342 H347 0.929 . S
C343 C342 1.457 . S
C343 C344 1.291 . S
C343 H356 0.931 . S
C344 C343 1.291 . S
C344 C345 1.373 . S
C344 H357 0.929 . S
C345 C344 1.373 . S
C345 C346 1.396 . S
C345 C352 1.403 . S
C346 C336 1.476 . S
C346 N341 1.318 . S
C346 C345 1.396 . S
H347 C342 0.929 . S
O348 Mn324 2.385 . S
O348 C326 1.234 . S
O349 Mn324 2.209 . S
O349 Mn325 2.215 . S
O349 C326 1.283 . S
O350 Mn324 2.094 . S
O350 C328 1.240 . S
O351 Mn325 2.117 . S
O351 C328 1.264 . S
C352 C345 1.403 . S
C352 C353 1.399 . S
C352 H358 0.929 . S
C353 C333 1.449 . S
C353 C352 1.399 . S
C353 H359 0.930 . S
H354 C334 0.931 . S
H355 C335 0.930 . S
H356 C343 0.931 . S
H357 C344 0.929 . S
H358 C352 0.929 . S
H359 C353 0.930 . S
Mn360 O365 2.095 . S
Mn360 O375 2.162 . S
Mn360 O376 2.297 . S
Mn360 O384 2.385 . S
Mn360 O385 2.209 . S
Mn360 O386 2.094 . S
Mn361 O366 2.121 . S
Mn361 N368 2.257 1_655 S
Mn361 N377 2.282 1_655 S
Mn361 O385 2.215 . S
Mn361 O387 2.117 . S
C362 O384 1.234 . S
C362 O385 1.283 . S
C363 O375 1.281 . S
C363 O376 1.236 . S
C364 O386 1.240 . S
C364 O387 1.264 . S
O365 Mn360 2.095 . S
O365 C374 1.250 . S
O366 Mn361 2.121 . S
O366 C374 1.258 . S
C367 N368 1.326 . S
C367 C371 1.460 . S
C367 H373 0.929 1_455 S
N368 Mn361 2.257 1_455 S
N368 C367 1.326 . S
N368 C372 1.362 . S
C369 C370 1.258 . S
C369 C372 1.431 . S
C369 C389 1.449 . S
C370 C369 1.258 . S
C370 C371 1.477 . S
C370 H390 0.931 . S
C371 C367 1.460 . S
C371 C370 1.477 . S
C371 H391 0.930 . S
C372 N368 1.362 . S
C372 C369 1.431 . S
C372 C382 1.476 . S
H373 C367 0.929 1_655 S
C374 O365 1.250 . S
C374 O366 1.258 . S
O375 Mn360 2.162 . S
O375 C363 1.281 . S
O376 Mn360 2.297 . S
O376 C363 1.236 . S
N377 Mn361 2.282 1_455 S
N377 C378 1.328 . S
N377 C382 1.318 . S
C378 N377 1.328 . S
C378 C379 1.457 . S
C378 H383 0.929 . S
C379 C378 1.457 . S
C379 C380 1.291 . S
C379 H392 0.931 . S
C380 C379 1.291 . S
C380 C381 1.373 . S
C380 H393 0.929 . S
C381 C380 1.373 . S
C381 C382 1.396 . S
C381 C388 1.403 . S
C382 C372 1.476 . S
C382 N377 1.318 . S
C382 C381 1.396 . S
H383 C378 0.929 . S
O384 Mn360 2.385 . S
O384 C362 1.234 . S
O385 Mn360 2.209 . S
O385 Mn361 2.215 . S
O385 C362 1.283 . S
O386 Mn360 2.094 . S
O386 C364 1.240 . S
O387 Mn361 2.117 . S
O387 C364 1.264 . S
C388 C381 1.403 . S
C388 C389 1.399 . S
C388 H394 0.929 . S
C389 C369 1.449 . S
C389 C388 1.399 . S
C389 H395 0.930 . S
H390 C370 0.931 . S
H391 C371 0.930 . S
H392 C379 0.931 . S
H393 C380 0.929 . S
H394 C388 0.929 . S
H395 C389 0.930 . S
Mn396 O401 2.095 . S
Mn396 O411 2.162 . S
Mn396 O412 2.297 . S
Mn396 O420 2.385 . S
Mn396 O421 2.209 . S
Mn396 O422 2.094 . S
Mn397 O402 2.121 . S
Mn397 N404 2.257 1_565 S
Mn397 N413 2.282 1_565 S
Mn397 O421 2.215 . S
Mn397 O423 2.117 . S
C398 O420 1.234 . S
C398 O421 1.283 . S
C399 O411 1.281 . S
C399 O412 1.236 . S
C400 O422 1.240 . S
C400 O423 1.264 . S
O401 Mn396 2.095 . S
O401 C410 1.250 . S
O402 Mn397 2.121 . S
O402 C410 1.258 . S
C403 N404 1.326 . S
C403 C407 1.460 . S
C403 H409 0.929 1_545 S
N404 Mn397 2.257 1_545 S
N404 C403 1.326 . S
N404 C408 1.362 . S
C405 C406 1.258 . S
C405 C408 1.431 . S
C405 C425 1.449 . S
C406 C405 1.258 . S
C406 C407 1.477 . S
C406 H426 0.931 . S
C407 C403 1.460 . S
C407 C406 1.477 . S
C407 H427 0.930 . S
C408 N404 1.362 . S
C408 C405 1.431 . S
C408 C418 1.476 . S
H409 C403 0.929 1_565 S
C410 O401 1.250 . S
C410 O402 1.258 . S
O411 Mn396 2.162 . S
O411 C399 1.281 . S
O412 Mn396 2.297 . S
O412 C399 1.236 . S
N413 Mn397 2.282 1_545 S
N413 C414 1.328 . S
N413 C418 1.318 . S
C414 N413 1.328 . S
C414 C415 1.457 . S
C414 H419 0.929 . S
C415 C414 1.457 . S
C415 C416 1.291 . S
C415 H428 0.931 . S
C416 C415 1.291 . S
C416 C417 1.373 . S
C416 H429 0.929 . S
C417 C416 1.373 . S
C417 C418 1.396 . S
C417 C424 1.403 . S
C418 C408 1.476 . S
C418 N413 1.318 . S
C418 C417 1.396 . S
H419 C414 0.929 . S
O420 Mn396 2.385 . S
O420 C398 1.234 . S
O421 Mn396 2.209 . S
O421 Mn397 2.215 . S
O421 C398 1.283 . S
O422 Mn396 2.094 . S
O422 C400 1.240 . S
O423 Mn397 2.117 . S
O423 C400 1.264 . S
C424 C417 1.403 . S
C424 C425 1.399 . S
C424 H430 0.929 . S
C425 C405 1.449 . S
C425 C424 1.399 . S
C425 H431 0.930 . S
H426 C406 0.931 . S
H427 C407 0.930 . S
H428 C415 0.931 . S
H429 C416 0.929 . S
H430 C424 0.929 . S
H431 C425 0.930 . S
H432 C450 0.951 . S
H433 C452 0.951 . S
H434 C454 0.950 . S
H435 C455 0.950 . S
H436 C457 0.950 . S
H437 C460 0.950 . S
H438 C461 0.950 . S
H439 C463 0.950 . S
H440 C464 0.950 . S
H441 C465 0.951 . S
H442 C467 0.951 . S
H443 C469 0.950 . S
H444 C470 0.950 . S
H445 C472 0.950 . S
H446 C475 0.950 . S
H447 C476 0.950 . S
H448 C478 0.950 . S
H449 C479 0.950 . S
C450 H432 0.951 . S
C450 C451 1.366 . S
C450 C452 1.388 . S
C451 C450 1.366 . S
C451 C455 1.385 . S
C452 H433 0.951 . S
C452 C450 1.388 . S
C452 C453 1.366 . S
C453 C452 1.366 . S
C453 C454 1.414 . S
C453 C456 1.499 . S
C454 H434 0.950 . S
C454 C453 1.414 . S
C454 C455 1.374 . S
C455 H435 0.950 . S
C455 C451 1.385 . S
C455 C454 1.374 . S
C456 C453 1.499 . S
C456 C457 1.373 . S
C456 C458 1.389 . S
C457 H436 0.950 . S
C457 C456 1.373 . S
C457 C473 1.377 . S
C458 C456 1.389 . S
C458 C459 1.524 . S
C458 C472 1.377 . S
C459 C458 1.524 . S
C459 C460 1.397 . S
C459 C464 1.363 . S
C460 H437 0.950 . S
C460 C459 1.397 . S
C460 C461 1.334 . S
C461 H438 0.950 . S
C461 C460 1.334 . S
C461 C462 1.287 . S
C462 C461 1.287 . S
C462 C463 1.524 . S
C462 H481 0.913 . S
C463 H439 0.950 . S
C463 C462 1.524 . S
C463 C464 1.415 . S
C464 H440 0.950 . S
C464 C459 1.363 . S
C464 C463 1.415 . S
C465 H441 0.951 . S
C465 C466 1.366 . S
C465 C467 1.388 . S
C466 C465 1.366 . S
C466 C470 1.385 . S
C467 H442 0.951 . S
C467 C465 1.388 . S
C467 C468 1.366 . S
C468 C467 1.366 . S
C468 C469 1.414 . S
C468 C471 1.499 . S
C469 H443 0.950 . S
C469 C468 1.414 . S
C469 C470 1.374 . S
C470 H444 0.950 . S
C470 C466 1.385 . S
C470 C469 1.374 . S
C471 C468 1.499 . S
C471 C472 1.373 . S
C471 C473 1.389 . S
C472 H445 0.950 . S
C472 C458 1.377 . S
C472 C471 1.373 . S
C473 C457 1.377 . S
C473 C471 1.389 . S
C473 C474 1.524 . S
C474 C473 1.524 . S
C474 C475 1.397 . S
C474 C479 1.363 . S
C475 H446 0.950 . S
C475 C474 1.397 . S
C475 C476 1.334 1_554 S
C476 H447 0.950 . S
C476 C475 1.334 1_556 S
C476 C477 1.287 . S
C477 C476 1.287 . S
C477 C478 1.524 . S
C477 H480 0.999 . S
C478 H448 0.950 . S
C478 C477 1.524 . S
C478 C479 1.415 1_556 S
C479 H449 0.950 . S
C479 C474 1.363 . S
C479 C478 1.415 1_554 S
H480 C477 0.999 . S
H481 C462 0.913 . S
H482 C500 0.951 . S
H483 C502 0.951 1_655 S
H484 C504 0.950 . S
H485 C505 0.950 . S
H486 C507 0.950 . S
H487 C510 0.950 . S
H488 C511 0.950 . S
H489 C513 0.950 . S
H490 C514 0.950 . S
H491 C515 0.951 . S
H492 C517 0.951 1_455 S
H493 C519 0.950 . S
H494 C520 0.950 . S
H495 C522 0.950 . S
H496 C525 0.950 . S
H497 C526 0.950 . S
H498 C528 0.950 . S
H499 C529 0.950 . S
C500 H482 0.951 . S
C500 C501 1.366 . S
C500 C502 1.388 . S
C501 C500 1.366 . S
C501 C505 1.385 . S
C502 H483 0.951 1_455 S
C502 C500 1.388 . S
C502 C503 1.366 . S
C503 C502 1.366 . S
C503 C504 1.414 . S
C503 C506 1.499 . S
C504 H484 0.950 . S
C504 C503 1.414 . S
C504 C505 1.374 . S
C505 H485 0.950 . S
C505 C501 1.385 . S
C505 C504 1.374 . S
C506 C503 1.499 . S
C506 C507 1.373 . S
C506 C508 1.404 . S
C507 H486 0.950 . S
C507 C506 1.373 . S
C507 C523 1.356 1_455 S
C508 C506 1.404 . S
C508 C509 1.531 . S
C508 C522 1.356 1_455 S
C509 C508 1.531 . S
C509 C510 1.397 . S
C509 C514 1.363 1_455 S
C510 H487 0.950 . S
C510 C509 1.397 . S
C510 C511 1.334 . S
C511 H488 0.950 . S
C511 C510 1.334 . S
C511 C512 1.287 . S
C512 C511 1.287 . S
C512 C513 1.524 1_455 S
C512 H531 0.913 . S
C513 H489 0.950 . S
C513 C512 1.524 1_655 S
C513 C514 1.415 . S
C514 H490 0.950 . S
C514 C509 1.363 1_655 S
C514 C513 1.415 . S
C515 H491 0.951 . S
C515 C516 1.366 . S
C515 C517 1.388 . S
C516 C515 1.366 . S
C516 C520 1.385 . S
C517 H492 0.951 1_655 S
C517 C515 1.388 . S
C517 C518 1.366 . S
C518 C517 1.366 . S
C518 C519 1.414 . S
C518 C521 1.499 . S
C519 H493 0.950 . S
C519 C518 1.414 . S
C519 C520 1.374 . S
C520 H494 0.950 . S
C520 C516 1.385 . S
C520 C519 1.374 . S
C521 C518 1.499 . S
C521 C522 1.373 . S
C521 C523 1.404 . S
C522 H495 0.950 . S
C522 C508 1.356 1_655 S
C522 C521 1.373 . S
C523 C507 1.356 1_655 S
C523 C521 1.404 . S
C523 C524 1.531 . S
C524 C523 1.531 . S
C524 C525 1.397 . S
C524 C529 1.363 1_655 S
C525 H496 0.950 . S
C525 C524 1.397 . S
C525 C526 1.334 . S
C526 H497 0.950 . S
C526 C525 1.334 . S
C526 C527 1.287 . S
C527 C526 1.287 . S
C527 C528 1.524 1_655 S
C527 H530 0.999 . S
C528 H498 0.950 . S
C528 C527 1.524 1_455 S
C528 C529 1.415 . S
C529 H499 0.950 . S
C529 C524 1.363 1_455 S
C529 C528 1.415 . S
H530 C527 0.999 . S
H531 C512 0.913 . S
H532 C550 0.951 . S
H533 C552 0.951 . S
H534 C554 0.950 . S
H535 C555 0.950 . S
H536 C557 0.950 . S
H537 C560 0.950 . S
H538 C561 0.950 . S
H539 C563 0.950 . S
H540 C564 0.950 . S
H541 C565 0.951 . S
H542 C567 0.951 . S
H543 C569 0.950 . S
H544 C570 0.950 . S
H545 C572 0.950 . S
H546 C575 0.950 . S
H547 C576 0.950 . S
H548 C578 0.950 . S
H549 C579 0.950 . S
C550 H532 0.951 . S
C550 C551 1.366 . S
C550 C552 1.388 . S
C551 C550 1.366 . S
C551 C555 1.385 . S
C552 H533 0.951 . S
C552 C550 1.388 . S
C552 C553 1.366 . S
C553 C552 1.366 . S
C553 C554 1.414 . S
C553 C556 1.499 . S
C554 H534 0.950 . S
C554 C553 1.414 . S
C554 C555 1.374 . S
C555 H535 0.950 . S
C555 C551 1.385 . S
C555 C554 1.374 . S
C556 C553 1.499 . S
C556 C557 1.373 1_565 S
C556 C558 1.389 . S
C557 H536 0.950 . S
C557 C556 1.373 1_545 S
C557 C573 1.377 . S
C558 C556 1.389 . S
C558 C559 1.524 . S
C558 C572 1.377 . S
C559 C558 1.524 . S
C559 C560 1.397 . S
C559 C564 1.363 . S
C560 H537 0.950 . S
C560 C559 1.397 . S
C560 C561 1.334 . S
C561 H538 0.950 . S
C561 C560 1.334 . S
C561 C562 1.287 . S
C562 C561 1.287 . S
C562 C563 1.524 . S
C562 H581 0.913 . S
C563 H539 0.950 . S
C563 C562 1.524 . S
C563 C564 1.415 . S
C564 H540 0.950 . S
C564 C559 1.363 . S
C564 C563 1.415 . S
C565 H541 0.951 . S
C565 C566 1.366 . S
C565 C567 1.388 . S
C566 C565 1.366 . S
C566 C570 1.385 . S
C567 H542 0.951 . S
C567 C565 1.388 . S
C567 C568 1.366 . S
C568 C567 1.366 . S
C568 C569 1.414 . S
C568 C571 1.499 . S
C569 H543 0.950 . S
C569 C568 1.414 . S
C569 C570 1.374 . S
C570 H544 0.950 . S
C570 C566 1.385 . S
C570 C569 1.374 . S
C571 C568 1.499 . S
C571 C572 1.373 1_545 S
C571 C573 1.389 . S
C572 H545 0.950 . S
C572 C558 1.377 . S
C572 C571 1.373 1_565 S
C573 C557 1.377 . S
C573 C571 1.389 . S
C573 C574 1.524 . S
C574 C573 1.524 . S
C574 C575 1.397 . S
C574 C579 1.363 . S
C575 H546 0.950 . S
C575 C574 1.397 . S
C575 C576 1.334 . S
C576 H547 0.950 . S
C576 C575 1.334 . S
C576 C577 1.287 . S
C577 C576 1.287 . S
C577 C578 1.524 . S
C577 H580 0.999 . S
C578 H548 0.950 . S
C578 C577 1.524 . S
C578 C579 1.415 . S
C579 H549 0.950 . S
C579 C574 1.363 . S
C579 C578 1.415 . S
H580 C577 0.999 . S
H581 C562 0.913 . S
H582 C600 0.951 . S
H583 C602 0.951 . S
H584 C604 0.950 . S
H585 C605 0.950 . S
H586 C607 0.950 . S
H587 C610 0.950 . S
H588 C611 0.950 . S
H589 C613 0.950 . S
H590 C614 0.950 . S
H591 C615 0.951 . S
H592 C617 0.951 . S
H593 C619 0.950 . S
H594 C620 0.950 . S
H595 C622 0.950 . S
H596 C625 0.950 . S
H597 C626 0.950 . S
H598 C628 0.950 . S
H599 C629 0.950 . S
C600 H582 0.951 . S
C600 C601 1.366 . S
C600 C602 1.388 . S
C601 C600 1.366 . S
C601 C605 1.385 . S
C602 H583 0.951 . S
C602 C600 1.388 . S
C602 C603 1.366 . S
C603 C602 1.366 . S
C603 C604 1.414 . S
C603 C606 1.499 . S
C604 H584 0.950 . S
C604 C603 1.414 . S
C604 C605 1.374 . S
C605 H585 0.950 . S
C605 C601 1.385 . S
C605 C604 1.374 . S
C606 C603 1.499 . S
C606 C607 1.373 . S
C606 C608 1.389 . S
C607 H586 0.950 . S
C607 C606 1.373 . S
C607 C623 1.377 . S
C608 C606 1.389 . S
C608 C609 1.524 . S
C608 C622 1.377 . S
C609 C608 1.524 . S
C609 C610 1.397 . S
C609 C614 1.363 . S
C610 H587 0.950 . S
C610 C609 1.397 . S
C610 C611 1.334 . S
C611 H588 0.950 . S
C611 C610 1.334 . S
C611 C612 1.287 . S
C612 C611 1.287 . S
C612 C613 1.524 . S
C612 H631 0.913 . S
C613 H589 0.950 . S
C613 C612 1.524 . S
C613 C614 1.415 . S
C614 H590 0.950 . S
C614 C609 1.363 . S
C614 C613 1.415 . S
C615 H591 0.951 . S
C615 C616 1.366 . S
C615 C617 1.388 . S
C616 C615 1.366 . S
C616 C620 1.385 . S
C617 H592 0.951 . S
C617 C615 1.388 . S
C617 C618 1.366 . S
C618 C617 1.366 . S
C618 C619 1.414 . S
C618 C621 1.499 . S
C619 H593 0.950 . S
C619 C618 1.414 . S
C619 C620 1.374 . S
C620 H594 0.950 . S
C620 C616 1.385 . S
C620 C619 1.374 . S
C621 C618 1.499 . S
C621 C622 1.373 . S
C621 C623 1.389 . S
C622 H595 0.950 . S
C622 C608 1.377 . S
C622 C621 1.373 . S
C623 C607 1.377 . S
C623 C621 1.389 . S
C623 C624 1.524 . S
C624 C623 1.524 . S
C624 C625 1.397 . S
C624 C629 1.363 . S
C625 H596 0.950 . S
C625 C624 1.397 . S
C625 C626 1.334 . S
C626 H597 0.950 . S
C626 C625 1.334 . S
C626 C627 1.287 . S
C627 C626 1.287 . S
C627 C628 1.524 . S
C627 H630 0.999 . S
C628 H598 0.950 . S
C628 C627 1.524 . S
C628 C629 1.415 . S
C629 H599 0.950 . S
C629 C624 1.363 . S
C629 C628 1.415 . S
H630 C627 0.999 . S
H631 C612 0.913 . S
H632 C650 0.951 . S
H633 C652 0.951 . S
H634 C654 0.950 1_455 S
H635 C655 0.950 . S
H636 C657 0.950 . S
H637 C660 0.950 1_455 S
H638 C661 0.950 . S
H639 C663 0.950 . S
H640 C664 0.950 . S
H641 C665 0.951 . S
H642 C667 0.951 . S
H643 C669 0.950 1_655 S
H644 C670 0.950 . S
H645 C672 0.950 . S
H646 C675 0.950 1_655 S
H647 C676 0.950 . S
H648 C678 0.950 . S
H649 C679 0.946 1_556 S
C650 H632 0.951 . S
C650 C651 1.366 . S
C650 C652 1.388 . S
C651 C650 1.366 . S
C651 C655 1.385 . S
C652 H633 0.951 . S
C652 C650 1.388 . S
C652 C653 1.366 . S
C653 C652 1.366 . S
C653 C654 1.414 . S
C653 C656 1.499 . S
C654 H634 0.950 1_655 S
C654 C653 1.414 . S
C654 C655 1.374 . S
C655 H635 0.950 . S
C655 C651 1.385 . S
C655 C654 1.374 . S
C656 C653 1.499 . S
C656 C657 1.373 . S
C656 C658 1.389 . S
C657 H636 0.950 . S
C657 C656 1.373 . S
C657 C673 1.377 1_655 S
C658 C656 1.389 . S
C658 C659 1.524 . S
C658 C672 1.377 1_655 S
C659 C658 1.524 . S
C659 C660 1.397 . S
C659 C664 1.363 . S
C660 H637 0.950 1_655 S
C660 C659 1.397 . S
C660 C661 1.334 . S
C661 H638 0.950 . S
C661 C660 1.334 . S
C661 C662 1.287 . S
C662 C661 1.287 . S
C662 C663 1.524 . S
C662 H681 0.913 . S
C663 H639 0.950 . S
C663 C662 1.524 . S
C663 C664 1.415 . S
C664 H640 0.950 . S
C664 C659 1.363 . S
C664 C663 1.415 . S
C665 H641 0.951 . S
C665 C666 1.366 . S
C665 C667 1.388 . S
C666 C665 1.366 . S
C666 C670 1.385 . S
C667 H642 0.951 . S
C667 C665 1.388 . S
C667 C668 1.366 . S
C668 C667 1.366 . S
C668 C669 1.414 . S
C668 C671 1.499 . S
C669 H643 0.950 1_455 S
C669 C668 1.414 . S
C669 C670 1.374 . S
C670 H644 0.950 . S
C670 C666 1.385 . S
C670 C669 1.374 . S
C671 C668 1.499 . S
C671 C672 1.373 . S
C671 C673 1.389 . S
C672 H645 0.950 . S
C672 C658 1.377 1_455 S
C672 C671 1.373 . S
C673 C657 1.377 1_455 S
C673 C671 1.389 . S
C673 C674 1.524 . S
C674 C673 1.524 . S
C674 C675 1.397 . S
C674 C679 1.356 1_556 S
C675 H646 0.950 1_455 S
C675 C674 1.397 . S
C675 C676 1.334 1_556 S
C676 H647 0.950 . S
C676 C675 1.334 1_554 S
C676 C677 1.287 . S
C677 C676 1.287 . S
C677 C678 1.524 . S
C677 H680 0.999 . S
C678 H648 0.950 . S
C678 C677 1.524 . S
C678 C679 1.426 . S
C679 H649 0.946 1_554 S
C679 C674 1.356 1_554 S
C679 C678 1.426 . S
H680 C677 0.999 . S
H681 C662 0.913 . S
H682 C700 0.951 . S
H683 C702 0.951 1_565 S
H684 C704 0.950 . S
H685 C705 0.950 . S
H686 C707 0.950 . S
H687 C710 0.950 . S
H688 C711 0.950 . S
H689 C713 0.950 . S
H690 C714 0.950 . S
H691 C715 0.951 . S
H692 C717 0.951 1_545 S
H693 C719 0.950 . S
H694 C720 0.950 . S
H695 C722 0.950 . S
H696 C725 0.950 . S
H697 C726 0.950 . S
H698 C728 0.950 . S
H699 C729 0.950 . S
C700 H682 0.951 . S
C700 C701 1.366 . S
C700 C702 1.388 . S
C701 C700 1.366 . S
C701 C705 1.385 . S
C702 H683 0.951 1_545 S
C702 C700 1.388 . S
C702 C703 1.366 . S
C703 C702 1.366 . S
C703 C704 1.414 . S
C703 C706 1.499 . S
C704 H684 0.950 . S
C704 C703 1.414 . S
C704 C705 1.374 . S
C705 H685 0.950 . S
C705 C701 1.385 . S
C705 C704 1.374 . S
C706 C703 1.499 . S
C706 C707 1.373 . S
C706 C708 1.389 1_545 S
C707 H686 0.950 . S
C707 C706 1.373 . S
C707 C723 1.377 . S
C708 C706 1.389 1_565 S
C708 C709 1.524 . S
C708 C722 1.377 . S
C709 C708 1.524 . S
C709 C710 1.397 1_565 S
C709 C714 1.363 . S
C710 H687 0.950 . S
C710 C709 1.397 1_545 S
C710 C711 1.334 . S
C711 H688 0.950 . S
C711 C710 1.334 . S
C711 C712 1.287 1_545 S
C712 C711 1.287 1_565 S
C712 C713 1.524 . S
C712 H731 0.913 . S
C713 H689 0.950 . S
C713 C712 1.524 . S
C713 C714 1.415 . S
C714 H690 0.950 . S
C714 C709 1.363 . S
C714 C713 1.415 . S
C715 H691 0.951 . S
C715 C716 1.366 . S
C715 C717 1.388 . S
C716 C715 1.366 . S
C716 C720 1.385 . S
C717 H692 0.951 1_565 S
C717 C715 1.388 . S
C717 C718 1.366 . S
C718 C717 1.366 . S
C718 C719 1.414 . S
C718 C721 1.499 . S
C719 H693 0.950 . S
C719 C718 1.414 . S
C719 C720 1.374 . S
C720 H694 0.950 . S
C720 C716 1.385 . S
C720 C719 1.374 . S
C721 C718 1.499 . S
C721 C722 1.373 . S
C721 C723 1.389 1_565 S
C722 H695 0.950 . S
C722 C708 1.377 . S
C722 C721 1.373 . S
C723 C707 1.377 . S
C723 C721 1.389 1_545 S
C723 C724 1.524 . S
C724 C723 1.524 . S
C724 C725 1.397 1_545 S
C724 C729 1.363 . S
C725 H696 0.950 . S
C725 C724 1.397 1_565 S
C725 C726 1.334 . S
C726 H697 0.950 . S
C726 C725 1.334 . S
C726 C727 1.287 1_565 S
C727 C726 1.287 1_545 S
C727 C728 1.524 . S
C727 H730 0.999 . S
C728 H698 0.950 . S
C728 C727 1.524 . S
C728 C729 1.415 . S
C729 H699 0.950 . S
C729 C724 1.363 . S
C729 C728 1.415 . S
H730 C727 0.999 . S
H731 C712 0.913 . S
H732 C750 0.951 . S
H733 C752 0.951 . S
H734 C754 0.950 . S
H735 C755 0.950 . S
H736 C757 0.950 . S
H737 C760 0.950 . S
H738 C761 0.950 . S
H739 C763 0.950 . S
H740 C764 0.950 . S
H741 C765 0.951 . S
H742 C767 0.951 . S
H743 C769 0.950 . S
H744 C770 0.950 . S
H745 C772 0.950 . S
H746 C775 0.950 . S
H747 C776 0.950 . S
H748 C778 0.950 . S
H749 C779 0.950 . S
C750 H732 0.951 . S
C750 C751 1.366 . S
C750 C752 1.388 . S
C751 C750 1.366 . S
C751 C755 1.385 . S
C752 H733 0.951 . S
C752 C750 1.388 . S
C752 C753 1.366 . S
C753 C752 1.366 . S
C753 C754 1.414 . S
C753 C756 1.499 . S
C754 H734 0.950 . S
C754 C753 1.414 . S
C754 C755 1.374 . S
C755 H735 0.950 . S
C755 C751 1.385 . S
C755 C754 1.374 . S
C756 C753 1.499 . S
C756 C757 1.373 . S
C756 C758 1.389 . S
C757 H736 0.950 . S
C757 C756 1.373 . S
C757 C773 1.377 . S
C758 C756 1.389 . S
C758 C759 1.524 . S
C758 C772 1.377 . S
C759 C758 1.524 . S
C759 C760 1.397 . S
C759 C764 1.363 . S
C760 H737 0.950 . S
C760 C759 1.397 . S
C760 C761 1.334 . S
C761 H738 0.950 . S
C761 C760 1.334 . S
C761 C762 1.287 . S
C762 C761 1.287 . S
C762 C763 1.524 . S
C762 H781 0.912 . S
C763 H739 0.950 . S
C763 C762 1.524 . S
C763 C764 1.415 . S
C764 H740 0.950 . S
C764 C759 1.363 . S
C764 C763 1.415 . S
C765 H741 0.951 . S
C765 C766 1.366 . S
C765 C767 1.388 . S
C766 C765 1.366 . S
C766 C770 1.385 . S
C767 H742 0.951 . S
C767 C765 1.388 . S
C767 C768 1.366 . S
C768 C767 1.366 . S
C768 C769 1.414 . S
C768 C771 1.499 . S
C769 H743 0.950 . S
C769 C768 1.414 . S
C769 C770 1.374 . S
C770 H744 0.950 . S
C770 C766 1.385 . S
C770 C769 1.374 . S
C771 C768 1.499 . S
C771 C772 1.373 . S
C771 C773 1.389 . S
C772 H745 0.950 . S
C772 C758 1.377 . S
C772 C771 1.373 . S
C773 C757 1.377 . S
C773 C771 1.389 . S
C773 C774 1.524 . S
C774 C773 1.524 . S
C774 C775 1.397 . S
C774 C779 1.363 . S
C775 H746 0.950 . S
C775 C774 1.397 . S
C775 C776 1.334 . S
C776 H747 0.950 . S
C776 C775 1.334 . S
C776 C777 1.287 . S
C777 C776 1.287 . S
C777 C778 1.524 . S
C777 H780 0.999 . S
C778 H748 0.950 . S
C778 C777 1.524 . S
C778 C779 1.415 . S
C779 H749 0.950 . S
C779 C774 1.363 . S
C779 C778 1.415 . S
H780 C777 0.999 . S
H781 C762 0.912 . S
H782 C800 0.951 . S
H783 C802 0.951 . S
H784 C804 0.950 . S
H785 C805 0.950 . S
H786 C807 0.950 . S
H787 C810 0.950 . S
H788 C811 0.950 . S
H789 C813 0.950 . S
H790 C814 0.950 . S
H791 C815 0.951 . S
H792 C817 0.951 . S
H793 C819 0.950 . S
H794 C820 0.950 . S
H795 C822 0.950 . S
H796 C825 0.950 . S
H797 C826 0.950 . S
H798 C828 0.950 . S
H799 C829 0.950 . S
C800 H782 0.951 . S
C800 C801 1.366 . S
C800 C802 1.388 . S
C801 C800 1.366 . S
C801 C805 1.385 . S
C802 H783 0.951 . S
C802 C800 1.388 . S
C802 C803 1.366 . S
C803 C802 1.366 . S
C803 C804 1.414 . S
C803 C806 1.499 . S
C804 H784 0.950 . S
C804 C803 1.414 . S
C804 C805 1.374 . S
C805 H785 0.950 . S
C805 C801 1.385 . S
C805 C804 1.374 . S
C806 C803 1.499 . S
C806 C807 1.373 . S
C806 C808 1.389 . S
C807 H786 0.950 . S
C807 C806 1.373 . S
C807 C823 1.377 . S
C808 C806 1.389 . S
C808 C809 1.524 . S
C808 C822 1.377 . S
C809 C808 1.524 . S
C809 C810 1.397 . S
C809 C814 1.363 . S
C810 H787 0.950 . S
C810 C809 1.397 . S
C810 C811 1.334 . S
C811 H788 0.950 . S
C811 C810 1.334 . S
C811 C812 1.287 . S
C812 C811 1.287 . S
C812 C813 1.524 . S
C812 H831 0.913 . S
C813 H789 0.950 . S
C813 C812 1.524 . S
C813 C814 1.415 . S
C814 H790 0.950 . S
C814 C809 1.363 . S
C814 C813 1.415 . S
C815 H791 0.951 . S
C815 C816 1.366 . S
C815 C817 1.388 . S
C816 C815 1.366 . S
C816 C820 1.385 . S
C817 H792 0.951 . S
C817 C815 1.388 . S
C817 C818 1.366 . S
C818 C817 1.366 . S
C818 C819 1.414 . S
C818 C821 1.499 . S
C819 H793 0.950 . S
C819 C818 1.414 . S
C819 C820 1.374 . S
C820 H794 0.950 . S
C820 C816 1.385 . S
C820 C819 1.374 . S
C821 C818 1.499 . S
C821 C822 1.373 . S
C821 C823 1.389 . S
C822 H795 0.950 . S
C822 C808 1.377 . S
C822 C821 1.373 . S
C823 C807 1.377 . S
C823 C821 1.389 . S
C823 C824 1.524 . S
C824 C823 1.524 . S
C824 C825 1.397 . S
C824 C829 1.363 . S
C825 H796 0.950 . S
C825 C824 1.397 . S
C825 C826 1.334 . S
C826 H797 0.950 . S
C826 C825 1.334 . S
C826 C827 1.287 . S
C827 C826 1.287 . S
C827 C828 1.524 . S
C827 H830 0.999 . S
C828 H798 0.950 . S
C828 C827 1.524 . S
C828 C829 1.415 . S
C829 H799 0.950 . S
C829 C824 1.363 . S
C829 C828 1.415 . S
H830 C827 0.999 . S
H831 C812 0.913 . S
H832 C850 0.951 . S
H833 C852 0.951 . S
H834 C854 0.950 . S
H835 C855 0.950 . S
H836 C857 0.950 . S
H837 C860 0.950 . S
H838 C861 0.950 . S
H839 C863 0.950 . S
H840 C864 0.950 . S
H841 C865 0.951 . S
H842 C867 0.951 . S
H843 C869 0.950 . S
H844 C870 0.950 . S
H845 C872 0.950 . S
H846 C875 0.950 . S
H847 C876 0.950 . S
H848 C878 0.950 . S
H849 C879 0.950 . S
C850 H832 0.951 . S
C850 C851 1.366 . S
C850 C852 1.388 . S
C851 C850 1.366 . S
C851 C855 1.385 . S
C852 H833 0.951 . S
C852 C850 1.388 . S
C852 C853 1.366 . S
C853 C852 1.366 . S
C853 C854 1.414 . S
C853 C856 1.499 . S
C854 H834 0.950 . S
C854 C853 1.414 . S
C854 C855 1.374 . S
C855 H835 0.950 . S
C855 C851 1.385 . S
C855 C854 1.374 . S
C856 C853 1.499 . S
C856 C857 1.373 . S
C856 C858 1.389 . S
C857 H836 0.950 . S
C857 C856 1.373 . S
C857 C873 1.377 . S
C858 C856 1.389 . S
C858 C859 1.524 . S
C858 C872 1.377 . S
C859 C858 1.524 . S
C859 C860 1.397 . S
C859 C864 1.363 . S
C860 H837 0.950 . S
C860 C859 1.397 . S
C860 C861 1.334 . S
C861 H838 0.950 . S
C861 C860 1.334 . S
C861 C862 1.287 . S
C862 C861 1.287 . S
C862 C863 1.524 . S
C862 H881 0.913 . S
C863 H839 0.950 . S
C863 C862 1.524 . S
C863 C864 1.415 . S
C864 H840 0.950 . S
C864 C859 1.363 . S
C864 C863 1.415 . S
C865 H841 0.951 . S
C865 C866 1.366 . S
C865 C867 1.388 . S
C866 C865 1.366 . S
C866 C870 1.385 . S
C867 H842 0.951 . S
C867 C865 1.388 . S
C867 C868 1.366 . S
C868 C867 1.366 . S
C868 C869 1.414 . S
C868 C871 1.499 . S
C869 H843 0.950 . S
C869 C868 1.414 . S
C869 C870 1.374 . S
C870 H844 0.950 . S
C870 C866 1.385 . S
C870 C869 1.374 . S
C871 C868 1.499 . S
C871 C872 1.373 . S
C871 C873 1.389 . S
C872 H845 0.950 . S
C872 C858 1.377 . S
C872 C871 1.373 . S
C873 C857 1.377 . S
C873 C871 1.389 . S
C873 C874 1.524 . S
C874 C873 1.524 . S
C874 C875 1.397 . S
C874 C879 1.363 . S
C875 H846 0.950 . S
C875 C874 1.397 . S
C875 C876 1.334 . S
C876 H847 0.950 . S
C876 C875 1.334 . S
C876 C877 1.287 . S
C877 C876 1.287 . S
C877 C878 1.524 . S
C877 H880 0.999 . S
C878 H848 0.950 . S
C878 C877 1.524 . S
C878 C879 1.415 . S
C879 H849 0.950 . S
C879 C874 1.363 . S
C879 C878 1.415 . S
H880 C877 0.999 . S
H881 C862 0.913 . S
H882 C900 0.951 . S
H883 C902 0.951 . S
H884 C904 0.950 . S
H885 C905 0.950 . S
H886 C907 0.950 . S
H887 C910 0.950 . S
H888 C911 0.950 . S
H889 C913 0.950 . S
H890 C914 0.950 . S
H891 C915 0.951 . S
H892 C917 0.951 . S
H893 C919 0.950 . S
H894 C920 0.950 . S
H895 C922 0.950 . S
H896 C925 0.950 . S
H897 C926 0.950 . S
H898 C928 0.950 . S
H899 C929 0.950 . S
C900 H882 0.951 . S
C900 C901 1.366 . S
C900 C902 1.388 . S
C901 C900 1.366 . S
C901 C905 1.385 . S
C902 H883 0.951 . S
C902 C900 1.388 . S
C902 C903 1.366 . S
C903 C902 1.366 . S
C903 C904 1.414 . S
C903 C906 1.499 . S
C904 H884 0.950 . S
C904 C903 1.414 . S
C904 C905 1.374 . S
C905 H885 0.950 . S
C905 C901 1.385 . S
C905 C904 1.374 . S
C906 C903 1.499 . S
C906 C907 1.373 . S
C906 C908 1.389 . S
C907 H886 0.950 . S
C907 C906 1.373 . S
C907 C923 1.377 . S
C908 C906 1.389 . S
C908 C909 1.524 . S
C908 C922 1.377 . S
C909 C908 1.524 . S
C909 C910 1.397 . S
C909 C914 1.363 . S
C910 H887 0.950 . S
C910 C909 1.397 . S
C910 C911 1.334 . S
C911 H888 0.950 . S
C911 C910 1.334 . S
C911 C912 1.287 . S
C912 C911 1.287 . S
C912 C913 1.524 . S
C912 H931 0.913 . S
C913 H889 0.950 . S
C913 C912 1.524 . S
C913 C914 1.415 . S
C914 H890 0.950 . S
C914 C909 1.363 . S
C914 C913 1.415 . S
C915 H891 0.951 . S
C915 C916 1.366 . S
C915 C917 1.388 . S
C916 C915 1.366 . S
C916 C920 1.385 . S
C917 H892 0.951 . S
C917 C915 1.388 . S
C917 C918 1.366 . S
C918 C917 1.366 . S
C918 C919 1.414 . S
C918 C921 1.499 . S
C919 H893 0.950 . S
C919 C918 1.414 . S
C919 C920 1.374 . S
C920 H894 0.950 . S
C920 C916 1.385 . S
C920 C919 1.374 . S
C921 C918 1.499 . S
C921 C922 1.373 . S
C921 C923 1.389 . S
C922 H895 0.950 . S
C922 C908 1.377 . S
C922 C921 1.373 . S
C923 C907 1.377 . S
C923 C921 1.389 . S
C923 C924 1.524 . S
C924 C923 1.524 . S
C924 C925 1.397 . S
C924 C929 1.363 . S
C925 H896 0.950 . S
C925 C924 1.397 . S
C925 C926 1.334 . S
C926 H897 0.950 . S
C926 C925 1.334 . S
C926 C927 1.287 . S
C927 C926 1.287 . S
C927 C928 1.524 . S
C927 H930 0.999 . S
C928 H898 0.950 . S
C928 C927 1.524 . S
C928 C929 1.415 . S
C929 H899 0.950 . S
C929 C924 1.363 . S
C929 C928 1.415 . S
H930 C927 0.999 . S
H931 C912 0.913 . S
H932 C950 0.951 . S
H933 C952 0.951 . S
H934 C954 0.950 . S
H935 C955 0.950 . S
H936 C957 0.950 . S
H937 C960 0.950 . S
H938 C961 0.950 . S
H939 C963 0.950 . S
H940 C964 0.950 . S
H941 C965 0.951 . S
H942 C967 0.951 . S
H943 C969 0.950 . S
H944 C970 0.950 . S
H945 C972 0.950 . S
H946 C975 0.950 . S
H947 C976 0.950 . S
H948 C978 0.950 . S
H949 C979 0.950 . S
C950 H932 0.951 . S
C950 C951 1.366 . S
C950 C952 1.388 . S
C951 C950 1.366 . S
C951 C955 1.385 . S
C952 H933 0.951 . S
C952 C950 1.388 . S
C952 C953 1.366 . S
C953 C952 1.366 . S
C953 C954 1.414 . S
C953 C956 1.499 . S
C954 H934 0.950 . S
C954 C953 1.414 . S
C954 C955 1.374 . S
C955 H935 0.950 . S
C955 C951 1.385 . S
C955 C954 1.374 . S
C956 C953 1.499 . S
C956 C957 1.373 . S
C956 C958 1.389 . S
C957 H936 0.950 . S
C957 C956 1.373 . S
C957 C973 1.377 . S
C958 C956 1.389 . S
C958 C959 1.524 . S
C958 C972 1.377 . S
C959 C958 1.524 . S
C959 C960 1.397 . S
C959 C964 1.363 . S
C960 H937 0.950 . S
C960 C959 1.397 . S
C960 C961 1.334 . S
C961 H938 0.950 . S
C961 C960 1.334 . S
C961 C962 1.287 . S
C962 C961 1.287 . S
C962 C963 1.524 . S
C962 H981 0.913 . S
C963 H939 0.950 . S
C963 C962 1.524 . S
C963 C964 1.415 . S
C964 H940 0.950 . S
C964 C959 1.363 . S
C964 C963 1.415 . S
C965 H941 0.951 . S
C965 C966 1.366 . S
C965 C967 1.388 . S
C966 C965 1.366 . S
C966 C970 1.385 . S
C967 H942 0.951 . S
C967 C965 1.388 . S
C967 C968 1.366 . S
C968 C967 1.366 . S
C968 C969 1.414 . S
C968 C971 1.499 . S
C969 H943 0.950 . S
C969 C968 1.414 . S
C969 C970 1.374 . S
C970 H944 0.950 . S
C970 C966 1.385 . S
C970 C969 1.374 . S
C971 C968 1.499 . S
C971 C972 1.373 . S
C971 C973 1.389 . S
C972 H945 0.950 . S
C972 C958 1.377 . S
C972 C971 1.373 . S
C973 C957 1.377 . S
C973 C971 1.389 . S
C973 C974 1.524 . S
C974 C973 1.524 . S
C974 C975 1.397 . S
C974 C979 1.363 . S
C975 H946 0.950 . S
C975 C974 1.397 . S
C975 C976 1.334 . S
C976 H947 0.950 . S
C976 C975 1.334 . S
C976 C977 1.287 . S
C977 C976 1.287 . S
C977 C978 1.524 . S
C977 H980 0.999 . S
C978 H948 0.950 . S
C978 C977 1.524 . S
C978 C979 1.415 . S
C979 H949 0.950 . S
C979 C974 1.363 . S
C979 C978 1.415 . S
H980 C977 0.999 . S
H981 C962 0.913 . S
H982 C1000 0.951 . S
H983 C1002 0.951 . S
H984 C1004 0.950 . S
H985 C1005 0.950 . S
H986 C1007 0.950 . S
H987 C1010 0.950 . S
H988 C1011 0.950 . S
H989 C1013 0.950 . S
H990 C1014 0.950 . S
H991 C1015 0.951 . S
H992 C1017 0.951 . S
H993 C1019 0.950 . S
H994 C1020 0.950 . S
H995 C1022 0.950 . S
H996 C1025 0.950 . S
H997 C1026 0.950 . S
H998 C1028 0.950 . S
H999 C1029 0.950 . S
C1000 H982 0.951 . S
C1000 C1001 1.366 . S
C1000 C1002 1.388 . S
C1001 C1000 1.366 . S
C1001 C1005 1.385 . S
C1002 H983 0.951 . S
C1002 C1000 1.388 . S
C1002 C1003 1.366 . S
C1003 C1002 1.366 . S
C1003 C1004 1.414 . S
C1003 C1006 1.499 . S
C1004 H984 0.950 . S
C1004 C1003 1.414 . S
C1004 C1005 1.374 . S
C1005 H985 0.950 . S
C1005 C1001 1.385 . S
C1005 C1004 1.374 . S
C1006 C1003 1.499 . S
C1006 C1007 1.373 . S
C1006 C1008 1.389 . S
C1007 H986 0.950 . S
C1007 C1006 1.373 . S
C1007 C1023 1.377 . S
C1008 C1006 1.389 . S
C1008 C1009 1.524 . S
C1008 C1022 1.377 . S
C1009 C1008 1.524 . S
C1009 C1010 1.397 . S
C1009 C1014 1.363 . S
C1010 H987 0.950 . S
C1010 C1009 1.397 . S
C1010 C1011 1.334 . S
C1011 H988 0.950 . S
C1011 C1010 1.334 . S
C1011 C1012 1.287 . S
C1012 C1011 1.287 . S
C1012 C1013 1.524 . S
C1012 H1031 0.913 . S
C1013 H989 0.950 . S
C1013 C1012 1.524 . S
C1013 C1014 1.415 . S
C1014 H990 0.950 . S
C1014 C1009 1.363 . S
C1014 C1013 1.415 . S
C1015 H991 0.951 . S
C1015 C1016 1.366 . S
C1015 C1017 1.388 . S
C1016 C1015 1.366 . S
C1016 C1020 1.385 . S
C1017 H992 0.951 . S
C1017 C1015 1.388 . S
C1017 C1018 1.366 . S
C1018 C1017 1.366 . S
C1018 C1019 1.414 . S
C1018 C1021 1.499 . S
C1019 H993 0.950 . S
C1019 C1018 1.414 . S
C1019 C1020 1.374 . S
C1020 H994 0.950 . S
C1020 C1016 1.385 . S
C1020 C1019 1.374 . S
C1021 C1018 1.499 . S
C1021 C1022 1.373 . S
C1021 C1023 1.389 . S
C1022 H995 0.950 . S
C1022 C1008 1.377 . S
C1022 C1021 1.373 . S
C1023 C1007 1.377 . S
C1023 C1021 1.389 . S
C1023 C1024 1.524 . S
C1024 C1023 1.524 . S
C1024 C1025 1.397 . S
C1024 C1029 1.363 . S
C1025 H996 0.950 . S
C1025 C1024 1.397 . S
C1025 C1026 1.334 . S
C1026 H997 0.950 . S
C1026 C1025 1.334 . S
C1026 C1027 1.287 . S
C1027 C1026 1.287 . S
C1027 C1028 1.524 . S
C1027 H1030 0.999 . S
C1028 H998 0.950 . S
C1028 C1027 1.524 . S
C1028 C1029 1.415 . S
C1029 H999 0.950 . S
C1029 C1024 1.363 . S
C1029 C1028 1.415 . S
H1030 C1027 0.999 . S
H1031 C1012 0.913 . S
H1032 C1050 0.940 1_554 S
H1033 C1052 0.918 1_554 S
H1034 C1054 0.950 . S
H1035 C1055 0.950 . S
H1036 C1057 0.950 . S
H1037 C1060 0.950 . S
H1038 C1061 0.950 . S
H1039 C1063 0.950 . S
H1040 C1064 0.950 . S
H1041 C1065 0.951 . S
H1042 C1067 0.951 1_556 S
H1043 C1069 0.950 . S
H1044 C1070 0.950 . S
H1045 C1072 0.950 . S
H1046 C1075 0.950 1_554 S
H1047 C1076 0.950 . S
H1048 C1078 0.950 . S
H1049 C1079 0.950 . S
C1050 H1032 0.940 1_556 S
C1050 C1051 1.366 . S
C1050 C1052 1.401 . S
C1051 C1050 1.366 . S
C1051 C1055 1.385 . S
C1052 H1033 0.918 1_556 S
C1052 C1050 1.401 . S
C1052 C1053 1.386 . S
C1053 C1052 1.386 . S
C1053 C1054 1.414 . S
C1053 C1056 1.499 . S
C1054 H1034 0.950 . S
C1054 C1053 1.414 . S
C1054 C1055 1.374 . S
C1055 H1035 0.950 . S
C1055 C1051 1.385 . S
C1055 C1054 1.374 . S
C1056 C1053 1.499 . S
C1056 C1057 1.373 . S
C1056 C1058 1.389 1_556 S
C1057 H1036 0.950 . S
C1057 C1056 1.373 . S
C1057 C1073 1.377 1_565 S
C1058 C1056 1.389 1_554 S
C1058 C1059 1.524 . S
C1058 C1072 1.377 1_565 S
C1059 C1058 1.524 . S
C1059 C1060 1.397 . S
C1059 C1064 1.363 . S
C1060 H1037 0.950 . S
C1060 C1059 1.397 . S
C1060 C1061 1.334 . S
C1061 H1038 0.950 . S
C1061 C1060 1.334 . S
C1061 C1062 1.287 . S
C1062 C1061 1.287 . S
C1062 C1063 1.524 . S
C1062 H1081 0.913 . S
C1063 H1039 0.950 . S
C1063 C1062 1.524 . S
C1063 C1064 1.415 . S
C1064 H1040 0.950 . S
C1064 C1059 1.363 . S
C1064 C1063 1.415 . S
C1065 H1041 0.951 . S
C1065 C1066 1.366 . S
C1065 C1067 1.388 . S
C1066 C1065 1.366 . S
C1066 C1070 1.385 . S
C1067 H1042 0.951 1_554 S
C1067 C1065 1.388 . S
C1067 C1068 1.366 . S
C1068 C1067 1.366 . S
C1068 C1069 1.414 . S
C1068 C1071 1.499 . S
C1069 H1043 0.950 . S
C1069 C1068 1.414 . S
C1069 C1070 1.374 . S
C1070 H1044 0.950 . S
C1070 C1066 1.385 . S
C1070 C1069 1.374 . S
C1071 C1068 1.499 . S
C1071 C1072 1.373 . S
C1071 C1073 1.389 1_554 S
C1072 H1045 0.950 . S
C1072 C1058 1.377 1_545 S
C1072 C1071 1.373 . S
C1073 C1057 1.377 1_545 S
C1073 C1071 1.389 1_556 S
C1073 C1074 1.524 . S
C1074 C1073 1.524 . S
C1074 C1075 1.397 . S
C1074 C1079 1.363 . S
C1075 H1046 0.950 1_556 S
C1075 C1074 1.397 . S
C1075 C1076 1.334 . S
C1076 H1047 0.950 . S
C1076 C1075 1.334 . S
C1076 C1077 1.287 . S
C1077 C1076 1.287 . S
C1077 C1078 1.524 . S
C1077 H1080 0.999 . S
C1078 H1048 0.950 . S
C1078 C1077 1.524 . S
C1078 C1079 1.415 . S
C1079 H1049 0.950 . S
C1079 C1074 1.363 . S
C1079 C1078 1.415 . S
H1080 C1077 0.999 . S
H1081 C1062 0.913 . S
H1082 C1100 0.951 . S
H1083 C1102 0.951 . S
H1084 C1104 0.950 . S
H1085 C1105 0.950 . S
H1086 C1107 0.950 . S
H1087 C1110 0.950 . S
H1088 C1111 0.950 . S
H1089 C1113 0.950 . S
H1090 C1114 0.950 . S
H1091 C1115 0.951 . S
H1092 C1117 0.951 . S
H1093 C1119 0.950 . S
H1094 C1120 0.950 . S
H1095 C1122 0.950 . S
H1096 C1125 0.950 . S
H1097 C1126 0.950 . S
H1098 C1128 0.950 . S
H1099 C1129 0.950 . S
C1100 H1082 0.951 . S
C1100 C1101 1.366 . S
C1100 C1102 1.388 . S
C1101 C1100 1.366 . S
C1101 C1105 1.385 . S
C1102 H1083 0.951 . S
C1102 C1100 1.388 . S
C1102 C1103 1.366 . S
C1103 C1102 1.366 . S
C1103 C1104 1.414 . S
C1103 C1106 1.499 . S
C1104 H1084 0.950 . S
C1104 C1103 1.414 . S
C1104 C1105 1.374 . S
C1105 H1085 0.950 . S
C1105 C1101 1.385 . S
C1105 C1104 1.374 . S
C1106 C1103 1.499 . S
C1106 C1107 1.373 . S
C1106 C1108 1.389 . S
C1107 H1086 0.950 . S
C1107 C1106 1.373 . S
C1107 C1123 1.377 . S
C1108 C1106 1.389 . S
C1108 C1109 1.524 . S
C1108 C1122 1.377 . S
C1109 C1108 1.524 . S
C1109 C1110 1.397 . S
C1109 C1114 1.363 . S
C1110 H1087 0.950 . S
C1110 C1109 1.397 . S
C1110 C1111 1.334 . S
C1111 H1088 0.950 . S
C1111 C1110 1.334 . S
C1111 C1112 1.287 . S
C1112 C1111 1.287 . S
C1112 C1113 1.524 . S
C1112 H1131 0.913 . S
C1113 H1089 0.950 . S
C1113 C1112 1.524 . S
C1113 C1114 1.415 . S
C1114 H1090 0.950 . S
C1114 C1109 1.363 . S
C1114 C1113 1.415 . S
C1115 H1091 0.951 . S
C1115 C1116 1.366 . S
C1115 C1117 1.388 . S
C1116 C1115 1.366 . S
C1116 C1120 1.385 . S
C1117 H1092 0.951 . S
C1117 C1115 1.388 . S
C1117 C1118 1.366 . S
C1118 C1117 1.366 . S
C1118 C1119 1.414 . S
C1118 C1121 1.499 . S
C1119 H1093 0.950 . S
C1119 C1118 1.414 . S
C1119 C1120 1.374 . S
C1120 H1094 0.950 . S
C1120 C1116 1.385 . S
C1120 C1119 1.374 . S
C1121 C1118 1.499 . S
C1121 C1122 1.373 . S
C1121 C1123 1.389 . S
C1122 H1095 0.950 . S
C1122 C1108 1.377 . S
C1122 C1121 1.373 . S
C1123 C1107 1.377 . S
C1123 C1121 1.389 . S
C1123 C1124 1.524 . S
C1124 C1123 1.524 . S
C1124 C1125 1.397 . S
C1124 C1129 1.363 . S
C1125 H1096 0.950 . S
C1125 C1124 1.397 . S
C1125 C1126 1.334 . S
C1126 H1097 0.950 . S
C1126 C1125 1.334 . S
C1126 C1127 1.287 . S
C1127 C1126 1.287 . S
C1127 C1128 1.524 . S
C1127 H1130 0.999 . S
C1128 H1098 0.950 . S
C1128 C1127 1.524 . S
C1128 C1129 1.415 . S
C1129 H1099 0.950 . S
C1129 C1124 1.363 . S
C1129 C1128 1.415 . S
H1130 C1127 0.999 . S
H1131 C1112 0.913 . S
H1132 C1150 0.951 . S
H1133 C1152 0.951 . S
H1134 C1154 0.950 . S
H1135 C1155 0.950 . S
H1136 C1157 0.950 . S
H1137 C1160 0.950 . S
H1138 C1161 0.950 . S
H1139 C1163 0.950 . S
H1140 C1164 0.950 1_455 S
H1141 C1165 0.951 . S
H1142 C1167 0.951 . S
H1143 C1169 0.950 . S
H1144 C1170 0.950 . S
H1145 C1172 0.950 . S
H1146 C1175 0.950 . S
H1147 C1176 0.950 . S
H1148 C1178 0.950 . S
H1149 C1179 0.950 1_655 S
C1150 H1132 0.951 . S
C1150 C1151 1.366 . S
C1150 C1152 1.388 . S
C1151 C1150 1.366 . S
C1151 C1155 1.385 . S
C1152 H1133 0.951 . S
C1152 C1150 1.388 . S
C1152 C1153 1.366 . S
C1153 C1152 1.366 . S
C1153 C1154 1.414 . S
C1153 C1156 1.499 . S
C1154 H1134 0.950 . S
C1154 C1153 1.414 . S
C1154 C1155 1.374 . S
C1155 H1135 0.950 . S
C1155 C1151 1.385 . S
C1155 C1154 1.374 . S
C1156 C1153 1.499 . S
C1156 C1157 1.373 . S
C1156 C1158 1.389 . S
C1157 H1136 0.950 . S
C1157 C1156 1.373 . S
C1157 C1173 1.377 1_655 S
C1158 C1156 1.389 . S
C1158 C1159 1.524 . S
C1158 C1172 1.377 1_655 S
C1159 C1158 1.524 . S
C1159 C1160 1.397 . S
C1159 C1164 1.363 . S
C1160 H1137 0.950 . S
C1160 C1159 1.397 . S
C1160 C1161 1.334 . S
C1161 H1138 0.950 . S
C1161 C1160 1.334 . S
C1161 C1162 1.287 . S
C1162 C1161 1.287 . S
C1162 C1163 1.524 . S
C1162 H1181 0.913 . S
C1163 H1139 0.950 . S
C1163 C1162 1.524 . S
C1163 C1164 1.415 . S
C1164 H1140 0.950 1_655 S
C1164 C1159 1.363 . S
C1164 C1163 1.415 . S
C1165 H1141 0.951 . S
C1165 C1166 1.366 . S
C1165 C1167 1.388 . S
C1166 C1165 1.366 . S
C1166 C1170 1.385 . S
C1167 H1142 0.951 . S
C1167 C1165 1.388 . S
C1167 C1168 1.366 . S
C1168 C1167 1.366 . S
C1168 C1169 1.414 . S
C1168 C1171 1.499 . S
C1169 H1143 0.950 . S
C1169 C1168 1.414 . S
C1169 C1170 1.374 . S
C1170 H1144 0.950 . S
C1170 C1166 1.385 . S
C1170 C1169 1.374 . S
C1171 C1168 1.499 . S
C1171 C1172 1.373 . S
C1171 C1173 1.389 . S
C1172 H1145 0.950 . S
C1172 C1158 1.377 1_455 S
C1172 C1171 1.373 . S
C1173 C1157 1.377 1_455 S
C1173 C1171 1.389 . S
C1173 C1174 1.524 . S
C1174 C1173 1.524 . S
C1174 C1175 1.397 . S
C1174 C1179 1.363 . S
C1175 H1146 0.950 . S
C1175 C1174 1.397 . S
C1175 C1176 1.334 . S
C1176 H1147 0.950 . S
C1176 C1175 1.334 . S
C1176 C1177 1.287 . S
C1177 C1176 1.287 . S
C1177 C1178 1.524 . S
C1177 H1180 0.999 . S
C1178 H1148 0.950 . S
C1178 C1177 1.524 . S
C1178 C1179 1.415 . S
C1179 H1149 0.950 1_455 S
C1179 C1174 1.363 . S
C1179 C1178 1.415 . S
H1180 C1177 0.999 . S
H1181 C1162 0.913 . S
H1182 C1200 0.951 . S
H1183 C1202 0.951 . S
H1184 C1204 0.950 . S
H1185 C1205 0.950 . S
H1186 C1207 0.950 . S
H1187 C1210 0.950 . S
H1188 C1211 0.950 . S
H1189 C1213 0.950 . S
H1190 C1214 0.950 . S
H1191 C1215 0.951 . S
H1192 C1217 0.951 . S
H1193 C1219 0.950 . S
H1194 C1220 0.950 . S
H1195 C1222 0.950 . S
H1196 C1225 0.950 . S
H1197 C1226 0.950 . S
H1198 C1228 0.950 . S
H1199 C1229 0.950 . S
C1200 H1182 0.951 . S
C1200 C1201 1.366 . S
C1200 C1202 1.388 . S
C1201 C1200 1.366 . S
C1201 C1205 1.385 . S
C1202 H1183 0.951 . S
C1202 C1200 1.388 . S
C1202 C1203 1.366 . S
C1203 C1202 1.366 . S
C1203 C1204 1.414 . S
C1203 C1206 1.499 . S
C1204 H1184 0.950 . S
C1204 C1203 1.414 . S
C1204 C1205 1.374 . S
C1205 H1185 0.950 . S
C1205 C1201 1.385 . S
C1205 C1204 1.374 . S
C1206 C1203 1.499 . S
C1206 C1207 1.373 1_554 S
C1206 C1208 1.389 . S
C1207 H1186 0.950 . S
C1207 C1206 1.373 1_556 S
C1207 C1223 1.377 1_565 S
C1208 C1206 1.389 . S
C1208 C1209 1.524 . S
C1208 C1222 1.377 1_565 S
C1209 C1208 1.524 . S
C1209 C1210 1.397 . S
C1209 C1214 1.363 1_565 S
C1210 H1187 0.950 . S
C1210 C1209 1.397 . S
C1210 C1211 1.334 . S
C1211 H1188 0.950 . S
C1211 C1210 1.334 . S
C1211 C1212 1.287 . S
C1212 C1211 1.287 . S
C1212 C1213 1.524 1_565 S
C1212 H1231 0.913 . S
C1213 H1189 0.950 . S
C1213 C1212 1.524 1_545 S
C1213 C1214 1.415 . S
C1214 H1190 0.950 . S
C1214 C1209 1.363 1_545 S
C1214 C1213 1.415 . S
C1215 H1191 0.951 . S
C1215 C1216 1.366 . S
C1215 C1217 1.388 . S
C1216 C1215 1.366 . S
C1216 C1220 1.385 . S
C1217 H1192 0.951 . S
C1217 C1215 1.388 . S
C1217 C1218 1.366 . S
C1218 C1217 1.366 . S
C1218 C1219 1.414 . S
C1218 C1221 1.499 . S
C1219 H1193 0.950 . S
C1219 C1218 1.414 . S
C1219 C1220 1.374 . S
C1220 H1194 0.950 . S
C1220 C1216 1.385 . S
C1220 C1219 1.374 . S
C1221 C1218 1.499 . S
C1221 C1222 1.373 1_556 S
C1221 C1223 1.389 . S
C1222 H1195 0.950 . S
C1222 C1208 1.377 1_545 S
C1222 C1221 1.373 1_554 S
C1223 C1207 1.377 1_545 S
C1223 C1221 1.389 . S
C1223 C1224 1.524 . S
C1224 C1223 1.524 . S
C1224 C1225 1.397 . S
C1224 C1229 1.363 1_545 S
C1225 H1196 0.950 . S
C1225 C1224 1.397 . S
C1225 C1226 1.334 . S
C1226 H1197 0.950 . S
C1226 C1225 1.334 . S
C1226 C1227 1.287 . S
C1227 C1226 1.287 . S
C1227 C1228 1.524 1_545 S
C1227 H1230 0.999 . S
C1228 H1198 0.950 . S
C1228 C1227 1.524 1_565 S
C1228 C1229 1.415 . S
C1229 H1199 0.950 . S
C1229 C1224 1.363 1_565 S
C1229 C1228 1.415 . S
H1230 C1227 0.999 . S
H1231 C1212 0.913 . S
H1232 C1250 0.951 . S
H1233 C1252 0.951 . S
H1234 C1254 0.950 . S
H1235 C1255 0.950 . S
H1236 C1257 0.950 . S
H1237 C1260 0.950 . S
H1238 C1261 0.950 . S
H1239 C1263 0.950 . S
H1240 C1264 0.950 . S
H1241 C1265 0.951 . S
H1242 C1267 0.951 . S
H1243 C1269 0.950 . S
H1244 C1270 0.950 . S
H1245 C1272 0.950 . S
H1246 C1275 0.950 . S
H1247 C1276 0.950 . S
H1248 C1278 0.950 . S
H1249 C1279 0.950 . S
C1250 H1232 0.951 . S
C1250 C1251 1.366 . S
C1250 C1252 1.388 . S
C1251 C1250 1.366 . S
C1251 C1255 1.385 . S
C1252 H1233 0.951 . S
C1252 C1250 1.388 . S
C1252 C1253 1.366 . S
C1253 C1252 1.366 . S
C1253 C1254 1.414 . S
C1253 C1256 1.499 . S
C1254 H1234 0.950 . S
C1254 C1253 1.414 . S
C1254 C1255 1.374 . S
C1255 H1235 0.950 . S
C1255 C1251 1.385 . S
C1255 C1254 1.374 . S
C1256 C1253 1.499 . S
C1256 C1257 1.373 . S
C1256 C1258 1.389 . S
C1257 H1236 0.950 . S
C1257 C1256 1.373 . S
C1257 C1273 1.377 . S
C1258 C1256 1.389 . S
C1258 C1259 1.524 . S
C1258 C1272 1.377 . S
C1259 C1258 1.524 . S
C1259 C1260 1.397 . S
C1259 C1264 1.363 . S
C1260 H1237 0.950 . S
C1260 C1259 1.397 . S
C1260 C1261 1.334 . S
C1261 H1238 0.950 . S
C1261 C1260 1.334 . S
C1261 C1262 1.287 . S
C1262 C1261 1.287 . S
C1262 C1263 1.524 . S
C1262 H1281 0.913 . S
C1263 H1239 0.950 . S
C1263 C1262 1.524 . S
C1263 C1264 1.415 . S
C1264 H1240 0.950 . S
C1264 C1259 1.363 . S
C1264 C1263 1.415 . S
C1265 H1241 0.951 . S
C1265 C1266 1.366 . S
C1265 C1267 1.388 . S
C1266 C1265 1.366 . S
C1266 C1270 1.385 . S
C1267 H1242 0.951 . S
C1267 C1265 1.388 . S
C1267 C1268 1.366 . S
C1268 C1267 1.366 . S
C1268 C1269 1.414 . S
C1268 C1271 1.499 . S
C1269 H1243 0.950 . S
C1269 C1268 1.414 . S
C1269 C1270 1.374 . S
C1270 H1244 0.950 . S
C1270 C1266 1.385 . S
C1270 C1269 1.374 . S
C1271 C1268 1.499 . S
C1271 C1272 1.373 . S
C1271 C1273 1.389 . S
C1272 H1245 0.950 . S
C1272 C1258 1.377 . S
C1272 C1271 1.373 . S
C1273 C1257 1.377 . S
C1273 C1271 1.389 . S
C1273 C1274 1.524 . S
C1274 C1273 1.524 . S
C1274 C1275 1.397 . S
C1274 C1279 1.363 . S
C1275 H1246 0.950 . S
C1275 C1274 1.397 . S
C1275 C1276 1.334 . S
C1276 H1247 0.950 . S
C1276 C1275 1.334 . S
C1276 C1277 1.287 . S
C1277 C1276 1.287 . S
C1277 C1278 1.524 . S
C1277 H1280 0.999 . S
C1278 H1248 0.950 . S
C1278 C1277 1.524 . S
C1278 C1279 1.415 . S
C1279 H1249 0.950 . S
C1279 C1274 1.363 . S
C1279 C1278 1.415 . S
H1280 C1277 0.999 . S
H1281 C1262 0.913 . S
H1282 C1300 0.951 . S
H1283 C1302 0.951 . S
H1284 C1304 0.950 . S
H1285 C1305 0.950 . S
H1286 C1307 0.950 . S
H1287 C1310 0.950 . S
H1288 C1311 0.950 . S
H1289 C1313 0.950 . S
H1290 C1314 0.950 . S
H1291 C1315 0.951 . S
H1292 C1317 0.951 . S
H1293 C1319 0.950 . S
H1294 C1320 0.950 . S
H1295 C1322 0.950 . S
H1296 C1325 0.950 . S
H1297 C1326 0.950 . S
H1298 C1328 0.950 . S
H1299 C1329 0.950 . S
C1300 H1282 0.951 . S
C1300 C1301 1.366 . S
C1300 C1302 1.388 . S
C1301 C1300 1.366 . S
C1301 C1305 1.385 . S
C1302 H1283 0.951 . S
C1302 C1300 1.388 . S
C1302 C1303 1.366 . S
C1303 C1302 1.366 . S
C1303 C1304 1.414 . S
C1303 C1306 1.499 . S
C1304 H1284 0.950 . S
C1304 C1303 1.414 . S
C1304 C1305 1.374 . S
C1305 H1285 0.950 . S
C1305 C1301 1.385 . S
C1305 C1304 1.374 . S
C1306 C1303 1.499 . S
C1306 C1307 1.373 . S
C1306 C1308 1.389 . S
C1307 H1286 0.950 . S
C1307 C1306 1.373 . S
C1307 C1323 1.377 1_455 S
C1308 C1306 1.389 . S
C1308 C1309 1.524 . S
C1308 C1322 1.377 1_455 S
C1309 C1308 1.524 . S
C1309 C1310 1.397 . S
C1309 C1314 1.363 . S
C1310 H1287 0.950 . S
C1310 C1309 1.397 . S
C1310 C1311 1.334 . S
C1311 H1288 0.950 . S
C1311 C1310 1.334 . S
C1311 C1312 1.287 . S
C1312 C1311 1.287 . S
C1312 C1313 1.524 . S
C1312 H1331 0.913 . S
C1313 H1289 0.950 . S
C1313 C1312 1.524 . S
C1313 C1314 1.415 . S
C1314 H1290 0.950 . S
C1314 C1309 1.363 . S
C1314 C1313 1.415 . S
C1315 H1291 0.951 . S
C1315 C1316 1.366 . S
C1315 C1317 1.388 . S
C1316 C1315 1.366 . S
C1316 C1320 1.385 . S
C1317 H1292 0.951 . S
C1317 C1315 1.388 . S
C1317 C1318 1.366 . S
C1318 C1317 1.366 . S
C1318 C1319 1.414 . S
C1318 C1321 1.499 . S
C1319 H1293 0.950 . S
C1319 C1318 1.414 . S
C1319 C1320 1.374 . S
C1320 H1294 0.950 . S
C1320 C1316 1.385 . S
C1320 C1319 1.374 . S
C1321 C1318 1.499 . S
C1321 C1322 1.373 . S
C1321 C1323 1.389 . S
C1322 H1295 0.950 . S
C1322 C1308 1.377 1_655 S
C1322 C1321 1.373 . S
C1323 C1307 1.377 1_655 S
C1323 C1321 1.389 . S
C1323 C1324 1.524 . S
C1324 C1323 1.524 . S
C1324 C1325 1.397 . S
C1324 C1329 1.363 . S
C1325 H1296 0.950 . S
C1325 C1324 1.397 . S
C1325 C1326 1.334 . S
C1326 H1297 0.950 . S
C1326 C1325 1.334 . S
C1326 C1327 1.287 . S
C1327 C1326 1.287 . S
C1327 C1328 1.524 . S
C1327 H1330 0.999 . S
C1328 H1298 0.950 . S
C1328 C1327 1.524 . S
C1328 C1329 1.415 . S
C1329 H1299 0.950 . S
C1329 C1324 1.363 . S
C1329 C1328 1.415 . S
H1330 C1327 0.999 . S
H1331 C1312 0.913 . S
H1332 C1350 0.951 . S
H1333 C1352 0.951 . S
H1334 C1354 0.950 1_554 S
H1335 C1355 0.950 1_655 S
H1336 C1357 0.950 . S
H1337 C1360 0.950 . S
H1338 C1361 0.950 1_655 S
H1339 C1363 0.950 . S
H1340 C1364 0.950 . S
H1341 C1365 0.951 . S
H1342 C1367 0.951 . S
H1343 C1369 0.950 1_556 S
H1344 C1370 0.950 . S
H1345 C1372 0.950 . S
H1346 C1375 0.950 . S
H1347 C1376 0.950 . S
H1348 C1378 0.950 . S
H1349 C1379 0.950 . S
C1350 H1332 0.951 . S
C1350 C1351 1.366 1_455 S
C1350 C1352 1.388 . S
C1351 C1350 1.366 1_655 S
C1351 C1355 1.385 1_655 S
C1352 H1333 0.951 . S
C1352 C1350 1.388 . S
C1352 C1353 1.366 . S
C1353 C1352 1.366 . S
C1353 C1354 1.414 . S
C1353 C1356 1.499 . S
C1354 H1334 0.950 1_556 S
C1354 C1353 1.414 . S
C1354 C1355 1.374 . S
C1355 H1335 0.950 1_455 S
C1355 C1351 1.385 1_455 S
C1355 C1354 1.374 . S
C1356 C1353 1.499 . S
C1356 C1357 1.373 1_556 S
C1356 C1358 1.389 . S
C1357 H1336 0.950 . S
C1357 C1356 1.373 1_554 S
C1357 C1373 1.377 . S
C1358 C1356 1.389 . S
C1358 C1359 1.524 . S
C1358 C1372 1.377 . S
C1359 C1358 1.524 . S
C1359 C1360 1.397 . S
C1359 C1364 1.363 . S
C1360 H1337 0.950 . S
C1360 C1359 1.397 . S
C1360 C1361 1.334 . S
C1361 H1338 0.950 1_455 S
C1361 C1360 1.334 . S
C1361 C1362 1.287 . S
C1362 C1361 1.287 . S
C1362 C1363 1.524 . S
C1362 H1381 0.913 . S
C1363 H1339 0.950 . S
C1363 C1362 1.524 . S
C1363 C1364 1.415 . S
C1364 H1340 0.950 . S
C1364 C1359 1.363 . S
C1364 C1363 1.415 . S
C1365 H1341 0.951 . S
C1365 C1366 1.366 . S
C1365 C1367 1.388 . S
C1366 C1365 1.366 . S
C1366 C1370 1.385 . S
C1367 H1342 0.951 . S
C1367 C1365 1.388 . S
C1367 C1368 1.366 . S
C1368 C1367 1.366 . S
C1368 C1369 1.414 . S
C1368 C1371 1.499 . S
C1369 H1343 0.950 1_554 S
C1369 C1368 1.414 . S
C1369 C1370 1.374 . S
C1370 H1344 0.950 . S
C1370 C1366 1.385 . S
C1370 C1369 1.374 . S
C1371 C1368 1.499 . S
C1371 C1372 1.373 1_554 S
C1371 C1373 1.389 . S
C1372 H1345 0.950 . S
C1372 C1358 1.377 . S
C1372 C1371 1.373 1_556 S
C1373 C1357 1.377 . S
C1373 C1371 1.389 . S
C1373 C1374 1.524 . S
C1374 C1373 1.524 . S
C1374 C1375 1.397 . S
C1374 C1379 1.363 . S
C1375 H1346 0.950 . S
C1375 C1374 1.397 . S
C1375 C1376 1.334 . S
C1376 H1347 0.950 . S
C1376 C1375 1.334 . S
C1376 C1377 1.287 . S
C1377 C1376 1.287 . S
C1377 C1378 1.524 . S
C1377 H1380 0.999 . S
C1378 H1348 0.950 . S
C1378 C1377 1.524 . S
C1378 C1379 1.415 . S
C1379 H1349 0.950 . S
C1379 C1374 1.363 . S
C1379 C1378 1.415 . S
H1380 C1377 0.999 . S
H1381 C1362 0.913 . S
H1382 C1400 0.951 1_565 S
H1383 C1402 0.951 . S
H1384 C1404 0.950 . S
H1385 C1405 0.950 . S
H1386 C1407 0.950 . S
H1387 C1410 0.950 . S
H1388 C1411 0.950 . S
H1389 C1413 0.950 . S
H1390 C1414 0.950 . S
H1391 C1415 0.951 . S
H1392 C1417 0.951 . S
H1393 C1419 0.950 . S
H1394 C1420 0.950 . S
H1395 C1422 0.950 . S
H1396 C1425 0.950 . S
H1397 C1426 0.950 . S
H1398 C1428 0.950 . S
H1399 C1429 0.950 . S
C1400 H1382 0.951 1_545 S
C1400 C1401 1.366 1_545 S
C1400 C1402 1.388 . S
C1401 C1400 1.366 1_565 S
C1401 C1405 1.385 1_565 S
C1402 H1383 0.951 . S
C1402 C1400 1.388 . S
C1402 C1403 1.366 . S
C1403 C1402 1.366 . S
C1403 C1404 1.414 . S
C1403 C1406 1.499 . S
C1404 H1384 0.950 . S
C1404 C1403 1.414 . S
C1404 C1405 1.374 . S
C1405 H1385 0.950 . S
C1405 C1401 1.385 1_545 S
C1405 C1404 1.374 . S
C1406 C1403 1.499 . S
C1406 C1407 1.373 . S
C1406 C1408 1.389 . S
C1407 H1386 0.950 . S
C1407 C1406 1.373 . S
C1407 C1423 1.377 . S
C1408 C1406 1.389 . S
C1408 C1409 1.524 . S
C1408 C1422 1.377 . S
C1409 C1408 1.524 . S
C1409 C1410 1.397 . S
C1409 C1414 1.363 . S
C1410 H1387 0.950 . S
C1410 C1409 1.397 . S
C1410 C1411 1.334 1_545 S
C1411 H1388 0.950 . S
C1411 C1410 1.334 1_565 S
C1411 C1412 1.287 . S
C1412 C1411 1.287 . S
C1412 C1413 1.524 1_565 S
C1412 H1431 0.913 . S
C1413 H1389 0.950 . S
C1413 C1412 1.524 1_545 S
C1413 C1414 1.415 . S
C1414 H1390 0.950 . S
C1414 C1409 1.363 . S
C1414 C1413 1.415 . S
C1415 H1391 0.951 . S
C1415 C1416 1.366 1_655 S
C1415 C1417 1.388 . S
C1416 C1415 1.366 1_455 S
C1416 C1420 1.385 . S
C1417 H1392 0.951 . S
C1417 C1415 1.388 . S
C1417 C1418 1.366 . S
C1418 C1417 1.366 . S
C1418 C1419 1.414 . S
C1418 C1421 1.499 . S
C1419 H1393 0.950 . S
C1419 C1418 1.414 . S
C1419 C1420 1.374 1_655 S
C1420 H1394 0.950 . S
C1420 C1416 1.385 . S
C1420 C1419 1.374 1_455 S
C1421 C1418 1.499 . S
C1421 C1422 1.373 . S
C1421 C1423 1.389 . S
C1422 H1395 0.950 . S
C1422 C1408 1.377 . S
C1422 C1421 1.373 . S
C1423 C1407 1.377 . S
C1423 C1421 1.389 . S
C1423 C1424 1.524 . S
C1424 C1423 1.524 . S
C1424 C1425 1.397 . S
C1424 C1429 1.363 . S
C1425 H1396 0.950 . S
C1425 C1424 1.397 . S
C1425 C1426 1.334 . S
C1426 H1397 0.950 . S
C1426 C1425 1.334 . S
C1426 C1427 1.287 . S
C1427 C1426 1.287 . S
C1427 C1428 1.524 . S
C1427 H1430 0.999 . S
C1428 H1398 0.950 . S
C1428 C1427 1.524 . S
C1428 C1429 1.415 . S
C1429 H1399 0.950 . S
C1429 C1424 1.363 . S
C1429 C1428 1.415 . S
H1430 C1427 0.999 . S
H1431 C1412 0.913 . S
H1432 C1450 0.951 . S
H1433 C1452 0.951 . S
H1434 C1454 0.950 . S
H1435 C1455 0.950 . S
H1436 C1457 0.950 . S
H1437 C1460 0.950 . S
H1438 C1461 0.950 . S
H1439 C1463 0.950 . S
H1440 C1464 0.950 . S
H1441 C1465 0.951 1_545 S
H1442 C1467 0.951 . S
H1443 C1469 0.950 . S
H1444 C1470 0.950 . S
H1445 C1472 0.950 . S
H1446 C1475 0.950 . S
H1447 C1476 0.950 . S
H1448 C1478 0.949 1_545 S
H1449 C1479 0.950 . S
C1450 H1432 0.951 . S
C1450 C1451 1.366 . S
C1450 C1452 1.388 . S
C1451 C1450 1.366 . S
C1451 C1455 1.385 . S
C1452 H1433 0.951 . S
C1452 C1450 1.388 . S
C1452 C1453 1.366 . S
C1453 C1452 1.366 . S
C1453 C1454 1.414 . S
C1453 C1456 1.499 . S
C1454 H1434 0.950 . S
C1454 C1453 1.414 . S
C1454 C1455 1.374 . S
C1455 H1435 0.950 . S
C1455 C1451 1.385 . S
C1455 C1454 1.374 . S
C1456 C1453 1.499 . S
C1456 C1457 1.373 . S
C1456 C1458 1.389 . S
C1457 H1436 0.950 . S
C1457 C1456 1.373 . S
C1457 C1473 1.377 . S
C1458 C1456 1.389 . S
C1458 C1459 1.524 . S
C1458 C1472 1.377 . S
C1459 C1458 1.524 . S
C1459 C1460 1.397 . S
C1459 C1464 1.363 . S
C1460 H1437 0.950 . S
C1460 C1459 1.397 . S
C1460 C1461 1.334 . S
C1461 H1438 0.950 . S
C1461 C1460 1.334 . S
C1461 C1462 1.287 . S
C1462 C1461 1.287 . S
C1462 C1463 1.524 . S
C1462 H1481 0.913 . S
C1463 H1439 0.950 . S
C1463 C1462 1.524 . S
C1463 C1464 1.415 . S
C1464 H1440 0.950 . S
C1464 C1459 1.363 . S
C1464 C1463 1.415 . S
C1465 H1441 0.951 1_565 S
C1465 C1466 1.366 1_565 S
C1465 C1467 1.388 . S
C1466 C1465 1.366 1_545 S
C1466 C1470 1.385 1_545 S
C1467 H1442 0.951 . S
C1467 C1465 1.388 . S
C1467 C1468 1.366 . S
C1468 C1467 1.366 . S
C1468 C1469 1.414 . S
C1468 C1471 1.499 . S
C1469 H1443 0.950 . S
C1469 C1468 1.414 . S
C1469 C1470 1.374 . S
C1470 H1444 0.950 . S
C1470 C1466 1.385 1_565 S
C1470 C1469 1.374 . S
C1471 C1468 1.499 . S
C1471 C1472 1.373 . S
C1471 C1473 1.389 . S
C1472 H1445 0.950 . S
C1472 C1458 1.377 . S
C1472 C1471 1.373 . S
C1473 C1457 1.377 . S
C1473 C1471 1.389 . S
C1473 C1474 1.524 . S
C1474 C1473 1.524 . S
C1474 C1475 1.397 . S
C1474 C1479 1.363 . S
C1475 H1446 0.950 . S
C1475 C1474 1.397 . S
C1475 C1476 1.334 1_565 S
C1476 H1447 0.950 . S
C1476 C1475 1.334 1_545 S
C1476 C1477 1.287 . S
C1477 C1476 1.287 . S
C1477 C1478 1.524 1_545 S
C1477 H1480 0.999 . S
C1478 H1448 0.949 1_565 S
C1478 C1477 1.524 1_565 S
C1478 C1479 1.415 . S
C1479 H1449 0.950 . S
C1479 C1474 1.363 . S
C1479 C1478 1.415 . S
H1480 C1477 0.999 . S
H1481 C1462 0.913 . S
H1482 C1500 0.951 . S
H1483 C1502 0.951 . S
H1484 C1504 0.950 . S
H1485 C1505 0.950 . S
H1486 C1507 0.950 . S
H1487 C1510 0.950 . S
H1488 C1511 0.950 . S
H1489 C1513 0.950 . S
H1490 C1514 0.950 . S
H1491 C1515 0.951 . S
H1492 C1517 0.951 . S
H1493 C1519 0.955 1_554 S
H1494 C1520 0.950 . S
H1495 C1522 0.950 . S
H1496 C1525 0.950 . S
H1497 C1526 0.950 . S
H1498 C1528 0.933 1_556 S
H1499 C1529 0.950 . S
C1500 H1482 0.951 . S
C1500 C1501 1.366 . S
C1500 C1502 1.388 . S
C1501 C1500 1.366 . S
C1501 C1505 1.385 . S
C1502 H1483 0.951 . S
C1502 C1500 1.388 . S
C1502 C1503 1.366 . S
C1503 C1502 1.366 . S
C1503 C1504 1.414 . S
C1503 C1506 1.499 . S
C1504 H1484 0.950 . S
C1504 C1503 1.414 . S
C1504 C1505 1.374 . S
C1505 H1485 0.950 . S
C1505 C1501 1.385 . S
C1505 C1504 1.374 . S
C1506 C1503 1.499 . S
C1506 C1507 1.373 . S
C1506 C1508 1.389 . S
C1507 H1486 0.950 . S
C1507 C1506 1.373 . S
C1507 C1523 1.377 . S
C1508 C1506 1.389 . S
C1508 C1509 1.525 . S
C1508 C1522 1.377 1_554 S
C1509 C1508 1.525 . S
C1509 C1510 1.393 1_554 S
C1509 C1514 1.365 . S
C1510 H1487 0.950 . S
C1510 C1509 1.393 1_556 S
C1510 C1511 1.334 . S
C1511 H1488 0.950 . S
C1511 C1510 1.334 . S
C1511 C1512 1.287 . S
C1512 C1511 1.287 . S
C1512 C1513 1.524 1_556 S
C1512 H1531 0.913 . S
C1513 H1489 0.950 . S
C1513 C1512 1.524 1_554 S
C1513 C1514 1.415 . S
C1514 H1490 0.950 . S
C1514 C1509 1.365 . S
C1514 C1513 1.415 . S
C1515 H1491 0.951 . S
C1515 C1516 1.366 1_655 S
C1515 C1517 1.388 . S
C1516 C1515 1.366 1_455 S
C1516 C1520 1.385 . S
C1517 H1492 0.951 . S
C1517 C1515 1.388 . S
C1517 C1518 1.366 . S
C1518 C1517 1.366 . S
C1518 C1519 1.414 . S
C1518 C1521 1.499 . S
C1519 H1493 0.955 1_556 S
C1519 C1518 1.414 . S
C1519 C1520 1.374 1_655 S
C1520 H1494 0.950 . S
C1520 C1516 1.385 . S
C1520 C1519 1.374 1_455 S
C1521 C1518 1.499 . S
C1521 C1522 1.373 . S
C1521 C1523 1.389 1_556 S
C1522 H1495 0.950 . S
C1522 C1508 1.377 1_556 S
C1522 C1521 1.373 . S
C1523 C1507 1.377 . S
C1523 C1521 1.389 1_554 S
C1523 C1524 1.524 . S
C1524 C1523 1.524 . S
C1524 C1525 1.397 . S
C1524 C1529 1.363 1_554 S
C1525 H1496 0.950 . S
C1525 C1524 1.397 . S
C1525 C1526 1.334 . S
C1526 H1497 0.950 . S
C1526 C1525 1.334 . S
C1526 C1527 1.287 . S
C1527 C1526 1.287 . S
C1527 C1528 1.553 . S
C1527 H1530 0.999 . S
C1528 H1498 0.933 1_554 S
C1528 C1527 1.553 . S
C1528 C1529 1.409 1_554 S
C1529 H1499 0.950 . S
C1529 C1524 1.363 1_556 S
C1529 C1528 1.409 1_556 S
H1530 C1527 0.999 . S
H1531 C1512 0.913 . S
H1532 C1550 0.951 1_655 S
H1533 C1552 0.951 . S
H1534 C1554 0.950 . S
H1535 C1555 0.950 . S
H1536 C1557 0.950 . S
H1537 C1560 0.950 . S
H1538 C1561 0.950 . S
H1539 C1563 0.950 . S
H1540 C1564 0.950 . S
H1541 C1565 0.951 . S
H1542 C1567 0.951 . S
H1543 C1569 0.950 . S
H1544 C1570 0.950 . S
H1545 C1572 0.950 . S
H1546 C1575 0.950 . S
H1547 C1576 0.950 1_545 S
H1548 C1578 0.950 1_545 S
H1549 C1579 0.950 . S
C1550 H1532 0.951 1_455 S
C1550 C1551 1.366 1_455 S
C1550 C1552 1.388 . S
C1551 C1550 1.366 1_655 S
C1551 C1555 1.385 1_655 S
C1552 H1533 0.951 . S
C1552 C1550 1.388 . S
C1552 C1553 1.366 . S
C1553 C1552 1.366 . S
C1553 C1554 1.414 . S
C1553 C1556 1.499 . S
C1554 H1534 0.950 . S
C1554 C1553 1.414 . S
C1554 C1555 1.374 . S
C1555 H1535 0.950 . S
C1555 C1551 1.385 1_455 S
C1555 C1554 1.374 . S
C1556 C1553 1.499 . S
C1556 C1557 1.373 . S
C1556 C1558 1.389 . S
C1557 H1536 0.950 . S
C1557 C1556 1.373 . S
C1557 C1573 1.377 . S
C1558 C1556 1.389 . S
C1558 C1559 1.524 . S
C1558 C1572 1.377 . S
C1559 C1558 1.524 . S
C1559 C1560 1.397 . S
C1559 C1564 1.363 . S
C1560 H1537 0.950 . S
C1560 C1559 1.397 . S
C1560 C1561 1.334 . S
C1561 H1538 0.950 . S
C1561 C1560 1.334 . S
C1561 C1562 1.287 . S
C1562 C1561 1.287 . S
C1562 C1563 1.524 . S
C1562 H1581 0.913 . S
C1563 H1539 0.950 . S
C1563 C1562 1.524 . S
C1563 C1564 1.415 . S
C1564 H1540 0.950 . S
C1564 C1559 1.363 . S
C1564 C1563 1.415 . S
C1565 H1541 0.951 . S
C1565 C1566 1.366 . S
C1565 C1567 1.388 1_545 S
C1566 C1565 1.366 . S
C1566 C1570 1.385 1_545 S
C1567 H1542 0.951 . S
C1567 C1565 1.388 1_565 S
C1567 C1568 1.366 . S
C1568 C1567 1.366 . S
C1568 C1569 1.414 . S
C1568 C1571 1.499 . S
C1569 H1543 0.950 . S
C1569 C1568 1.414 . S
C1569 C1570 1.374 . S
C1570 H1544 0.950 . S
C1570 C1566 1.385 1_565 S
C1570 C1569 1.374 . S
C1571 C1568 1.499 . S
C1571 C1572 1.373 . S
C1571 C1573 1.389 . S
C1572 H1545 0.950 . S
C1572 C1558 1.377 . S
C1572 C1571 1.373 . S
C1573 C1557 1.377 . S
C1573 C1571 1.389 . S
C1573 C1574 1.524 . S
C1574 C1573 1.524 . S
C1574 C1575 1.397 . S
C1574 C1579 1.363 . S
C1575 H1546 0.950 . S
C1575 C1574 1.397 . S
C1575 C1576 1.334 . S
C1576 H1547 0.950 1_565 S
C1576 C1575 1.334 . S
C1576 C1577 1.287 1_565 S
C1577 C1576 1.287 1_545 S
C1577 C1578 1.524 1_545 S
C1577 H1580 0.999 . S
C1578 H1548 0.950 1_565 S
C1578 C1577 1.524 1_565 S
C1578 C1579 1.415 . S
C1579 H1549 0.950 . S
C1579 C1574 1.363 . S
C1579 C1578 1.415 . S
H1580 C1577 0.999 . S
H1581 C1562 0.913 . S
H1582 C1600 0.951 . S
H1583 C1602 0.951 . S
H1584 C1604 0.950 . S
H1585 C1605 0.950 . S
H1586 C1607 0.950 . S
H1587 C1610 0.950 . S
H1588 C1611 0.950 . S
H1589 C1613 0.950 . S
H1590 C1614 0.950 . S
H1591 C1615 0.951 . S
H1592 C1617 0.951 . S
H1593 C1619 0.950 . S
H1594 C1620 0.950 . S
H1595 C1622 0.950 . S
H1596 C1625 0.950 . S
H1597 C1626 0.950 . S
H1598 C1628 0.950 . S
H1599 C1629 0.950 . S
C1600 H1582 0.951 . S
C1600 C1601 1.366 1_545 S
C1600 C1602 1.388 . S
C1601 C1600 1.366 1_565 S
C1601 C1605 1.385 . S
C1602 H1583 0.951 . S
C1602 C1600 1.388 . S
C1602 C1603 1.366 . S
C1603 C1602 1.366 . S
C1603 C1604 1.414 . S
C1603 C1606 1.499 . S
C1604 H1584 0.950 . S
C1604 C1603 1.414 . S
C1604 C1605 1.374 1_545 S
C1605 H1585 0.950 . S
C1605 C1601 1.385 . S
C1605 C1604 1.374 1_565 S
C1606 C1603 1.499 . S
C1606 C1607 1.373 . S
C1606 C1608 1.389 . S
C1607 H1586 0.950 . S
C1607 C1606 1.373 . S
C1607 C1623 1.377 . S
C1608 C1606 1.389 . S
C1608 C1609 1.524 . S
C1608 C1622 1.377 . S
C1609 C1608 1.524 . S
C1609 C1610 1.397 . S
C1609 C1614 1.363 . S
C1610 H1587 0.950 . S
C1610 C1609 1.397 . S
C1610 C1611 1.334 . S
C1611 H1588 0.950 . S
C1611 C1610 1.334 . S
C1611 C1612 1.287 . S
C1612 C1611 1.287 . S
C1612 C1613 1.524 . S
C1612 H1631 0.913 . S
C1613 H1589 0.950 . S
C1613 C1612 1.524 . S
C1613 C1614 1.415 . S
C1614 H1590 0.950 . S
C1614 C1609 1.363 . S
C1614 C1613 1.415 . S
C1615 H1591 0.951 . S
C1615 C1616 1.366 . S
C1615 C1617 1.388 . S
C1616 C1615 1.366 . S
C1616 C1620 1.385 . S
C1617 H1592 0.951 . S
C1617 C1615 1.388 . S
C1617 C1618 1.366 . S
C1618 C1617 1.366 . S
C1618 C1619 1.414 . S
C1618 C1621 1.499 . S
C1619 H1593 0.950 . S
C1619 C1618 1.414 . S
C1619 C1620 1.374 . S
C1620 H1594 0.950 . S
C1620 C1616 1.385 . S
C1620 C1619 1.374 . S
C1621 C1618 1.499 . S
C1621 C1622 1.373 . S
C1621 C1623 1.389 . S
C1622 H1595 0.950 . S
C1622 C1608 1.377 . S
C1622 C1621 1.373 . S
C1623 C1607 1.377 . S
C1623 C1621 1.389 . S
C1623 C1624 1.524 . S
C1624 C1623 1.524 . S
C1624 C1625 1.397 . S
C1624 C1629 1.363 . S
C1625 H1596 0.950 . S
C1625 C1624 1.397 . S
C1625 C1626 1.334 . S
C1626 H1597 0.950 . S
C1626 C1625 1.334 . S
C1626 C1627 1.287 . S
C1627 C1626 1.287 . S
C1627 C1628 1.524 . S
C1627 H1630 0.999 . S
C1628 H1598 0.950 . S
C1628 C1627 1.524 . S
C1628 C1629 1.415 . S
C1629 H1599 0.950 . S
C1629 C1624 1.363 . S
C1629 C1628 1.415 . S
H1630 C1627 0.999 . S
H1631 C1612 0.913 . S
C451 C112 1.271 . S
C466 C4 1.270 . S
C501 C40 1.270 . S
C516 C148 1.271 . S
C551 C184 1.270 . S
C566 C76 1.270 . S
C601 C220 1.271 . S
C616 C328 1.271 . S
C651 C364 1.271 . S
C666 C256 1.271 . S
C701 C292 1.270 . S
C716 C400 1.271 . S
C751 C302 1.597 . S
C766 C14 1.597 . S
C801 C50 1.596 . S
C816 C338 1.596 . S
C851 C86 1.597 . S
C866 C374 1.597 . S
C901 C122 1.596 . S
C916 C410 1.596 . S
C951 C230 1.597 . S
C966 C158 1.597 . S
C1001 C266 1.596 . S
C1016 C194 1.596 . S
C1051 C255 0.941 . S
C1066 C3 0.940 . S
C1101 C39 0.941 . S
C1116 C291 0.941 . S
C1151 C75 0.940 . S
C1166 C327 0.941 . S
C1201 C111 0.941 . S
C1216 C363 0.941 . S
C1251 C399 0.941 . S
C1266 C147 0.940 . S
C1301 C183 0.941 . S
C1316 C219 0.940 . S
C1351 C362 1.481 . S
C1366 C2 1.481 . S
C1401 C398 1.482 . S
C1416 C38 1.482 . S
C1451 C218 1.482 . S
C1466 C74 1.482 . S
C1501 C110 1.482 . S
C1516 C254 1.482 . S
C1551 C146 1.482 . S
C1566 C290 1.482 . S
C1601 C182 1.481 . S
C1616 C326 1.481 . S
