# Generated by pormake.
# Topology uml, (4)-cn, num edge types: 1
# Building blocks:
#     Node 0, Type 0, BuildingBlock: MUDLON_clean_sbu_0, # of connection points: 4
#     Node 1, Type 0, BuildingBlock: MUDLON_clean_sbu_0, # of connection points: 4
#     Node 2, Type 0, BuildingBlock: MUDLON_clean_sbu_0, # of connection points: 4
#     Node 3, Type 0, BuildingBlock: MUDLON_clean_sbu_0, # of connection points: 4
#     Node 4, Type 0, BuildingBlock: MUDLON_clean_sbu_0, # of connection points: 4
#     Node 5, Type 0, BuildingBlock: MUDLON_clean_sbu_0, # of connection points: 4
#     Node 6, Type 0, BuildingBlock: MUDLON_clean_sbu_0, # of connection points: 4
#     Node 7, Type 0, BuildingBlock: MUDLON_clean_sbu_0, # of connection points: 4
#     Node 8, Type 0, BuildingBlock: MUDLON_clean_sbu_0, # of connection points: 4
#     Node 9, Type 0, BuildingBlock: MUDLON_clean_sbu_0, # of connection points: 4
#     Node 10, Type 0, BuildingBlock: MUDLON_clean_sbu_0, # of connection points: 4
#     Node 11, Type 0, BuildingBlock: MUDLON_clean_sbu_0, # of connection points: 4
#     Node 12, Type 0, BuildingBlock: MUDLON_clean_sbu_0, # of connection points: 4
#     Node 13, Type 0, BuildingBlock: MUDLON_clean_sbu_0, # of connection points: 4
#     Node 14, Type 0, BuildingBlock: MUDLON_clean_sbu_0, # of connection points: 4
#     Node 15, Type 0, BuildingBlock: MUDLON_clean_sbu_0, # of connection points: 4
#     Node 16, Type 0, BuildingBlock: MUDLON_clean_sbu_0, # of connection points: 4
#     Node 17, Type 0, BuildingBlock: MUDLON_clean_sbu_0, # of connection points: 4
#     Node 18, Type 0, BuildingBlock: MUDLON_clean_sbu_0, # of connection points: 4
#     Node 19, Type 0, BuildingBlock: MUDLON_clean_sbu_0, # of connection points: 4
#     Node 20, Type 0, BuildingBlock: MUDLON_clean_sbu_0, # of connection points: 4
#     Node 21, Type 0, BuildingBlock: MUDLON_clean_sbu_0, # of connection points: 4
#     Node 22, Type 0, BuildingBlock: MUDLON_clean_sbu_0, # of connection points: 4
#     Node 23, Type 0, BuildingBlock: MUDLON_clean_sbu_0, # of connection points: 4
#     Node 24, Type 0, BuildingBlock: MUDLON_clean_sbu_0, # of connection points: 4
#     Node 25, Type 0, BuildingBlock: MUDLON_clean_sbu_0, # of connection points: 4
#     Node 26, Type 0, BuildingBlock: MUDLON_clean_sbu_0, # of connection points: 4
#     Node 27, Type 0, BuildingBlock: MUDLON_clean_sbu_0, # of connection points: 4
#     Node 28, Type 0, BuildingBlock: MUDLON_clean_sbu_0, # of connection points: 4
#     Node 29, Type 0, BuildingBlock: MUDLON_clean_sbu_0, # of connection points: 4
#     Node 30, Type 0, BuildingBlock: MUDLON_clean_sbu_0, # of connection points: 4
#     Node 31, Type 0, BuildingBlock: MUDLON_clean_sbu_0, # of connection points: 4
#     Node 32, Type 0, BuildingBlock: MUDLON_clean_sbu_0, # of connection points: 4
#     Node 33, Type 0, BuildingBlock: MUDLON_clean_sbu_0, # of connection points: 4
#     Node 34, Type 0, BuildingBlock: MUDLON_clean_sbu_0, # of connection points: 4
#     Node 35, Type 0, BuildingBlock: MUDLON_clean_sbu_0, # of connection points: 4
#     Edge 36, Type (0, 0), BuildingBlock: XIVTED_clean_linker_0, # of connection points: 2
#     Edge 37, Type (0, 0), BuildingBlock: XIVTED_clean_linker_0, # of connection points: 2
#     Edge 38, Type (0, 0), BuildingBlock: XIVTED_clean_linker_0, # of connection points: 2
#     Edge 39, Type (0, 0), BuildingBlock: XIVTED_clean_linker_0, # of connection points: 2
#     Edge 40, Type (0, 0), BuildingBlock: XIVTED_clean_linker_0, # of connection points: 2
#     Edge 41, Type (0, 0), BuildingBlock: XIVTED_clean_linker_0, # of connection points: 2
#     Edge 42, Type (0, 0), BuildingBlock: XIVTED_clean_linker_0, # of connection points: 2
#     Edge 43, Type (0, 0), BuildingBlock: XIVTED_clean_linker_0, # of connection points: 2
#     Edge 44, Type (0, 0), BuildingBlock: XIVTED_clean_linker_0, # of connection points: 2
#     Edge 45, Type (0, 0), BuildingBlock: XIVTED_clean_linker_0, # of connection points: 2
#     Edge 46, Type (0, 0), BuildingBlock: XIVTED_clean_linker_0, # of connection points: 2
#     Edge 47, Type (0, 0), BuildingBlock: XIVTED_clean_linker_0, # of connection points: 2
#     Edge 48, Type (0, 0), BuildingBlock: XIVTED_clean_linker_0, # of connection points: 2
#     Edge 49, Type (0, 0), BuildingBlock: XIVTED_clean_linker_0, # of connection points: 2
#     Edge 50, Type (0, 0), BuildingBlock: XIVTED_clean_linker_0, # of connection points: 2
#     Edge 51, Type (0, 0), BuildingBlock: XIVTED_clean_linker_0, # of connection points: 2
#     Edge 52, Type (0, 0), BuildingBlock: XIVTED_clean_linker_0, # of connection points: 2
#     Edge 53, Type (0, 0), BuildingBlock: XIVTED_clean_linker_0, # of connection points: 2
#     Edge 54, Type (0, 0), BuildingBlock: XIVTED_clean_linker_0, # of connection points: 2
#     Edge 55, Type (0, 0), BuildingBlock: XIVTED_clean_linker_0, # of connection points: 2
#     Edge 56, Type (0, 0), BuildingBlock: XIVTED_clean_linker_0, # of connection points: 2
#     Edge 57, Type (0, 0), BuildingBlock: XIVTED_clean_linker_0, # of connection points: 2
#     Edge 58, Type (0, 0), BuildingBlock: XIVTED_clean_linker_0, # of connection points: 2
#     Edge 59, Type (0, 0), BuildingBlock: XIVTED_clean_linker_0, # of connection points: 2
#     Edge 60, Type (0, 0), BuildingBlock: XIVTED_clean_linker_0, # of connection points: 2
#     Edge 61, Type (0, 0), BuildingBlock: XIVTED_clean_linker_0, # of connection points: 2
#     Edge 62, Type (0, 0), BuildingBlock: XIVTED_clean_linker_0, # of connection points: 2
#     Edge 63, Type (0, 0), BuildingBlock: XIVTED_clean_linker_0, # of connection points: 2
#     Edge 64, Type (0, 0), BuildingBlock: XIVTED_clean_linker_0, # of connection points: 2
#     Edge 65, Type (0, 0), BuildingBlock: XIVTED_clean_linker_0, # of connection points: 2
#     Edge 66, Type (0, 0), BuildingBlock: XIVTED_clean_linker_0, # of connection points: 2
#     Edge 67, Type (0, 0), BuildingBlock: XIVTED_clean_linker_0, # of connection points: 2
#     Edge 68, Type (0, 0), BuildingBlock: XIVTED_clean_linker_0, # of connection points: 2
#     Edge 69, Type (0, 0), BuildingBlock: XIVTED_clean_linker_0, # of connection points: 2
#     Edge 70, Type (0, 0), BuildingBlock: XIVTED_clean_linker_0, # of connection points: 2
#     Edge 71, Type (0, 0), BuildingBlock: XIVTED_clean_linker_0, # of connection points: 2
#     Edge 72, Type (0, 0), BuildingBlock: XIVTED_clean_linker_0, # of connection points: 2
#     Edge 73, Type (0, 0), BuildingBlock: XIVTED_clean_linker_0, # of connection points: 2
#     Edge 74, Type (0, 0), BuildingBlock: XIVTED_clean_linker_0, # of connection points: 2
#     Edge 75, Type (0, 0), BuildingBlock: XIVTED_clean_linker_0, # of connection points: 2
#     Edge 76, Type (0, 0), BuildingBlock: XIVTED_clean_linker_0, # of connection points: 2
#     Edge 77, Type (0, 0), BuildingBlock: XIVTED_clean_linker_0, # of connection points: 2
#     Edge 78, Type (0, 0), BuildingBlock: XIVTED_clean_linker_0, # of connection points: 2
#     Edge 79, Type (0, 0), BuildingBlock: XIVTED_clean_linker_0, # of connection points: 2
#     Edge 80, Type (0, 0), BuildingBlock: XIVTED_clean_linker_0, # of connection points: 2
#     Edge 81, Type (0, 0), BuildingBlock: XIVTED_clean_linker_0, # of connection points: 2
#     Edge 82, Type (0, 0), BuildingBlock: XIVTED_clean_linker_0, # of connection points: 2
#     Edge 83, Type (0, 0), BuildingBlock: XIVTED_clean_linker_0, # of connection points: 2
#     Edge 84, Type (0, 0), BuildingBlock: XIVTED_clean_linker_0, # of connection points: 2
#     Edge 85, Type (0, 0), BuildingBlock: XIVTED_clean_linker_0, # of connection points: 2
#     Edge 86, Type (0, 0), BuildingBlock: XIVTED_clean_linker_0, # of connection points: 2
#     Edge 87, Type (0, 0), BuildingBlock: XIVTED_clean_linker_0, # of connection points: 2
#     Edge 88, Type (0, 0), BuildingBlock: XIVTED_clean_linker_0, # of connection points: 2
#     Edge 89, Type (0, 0), BuildingBlock: XIVTED_clean_linker_0, # of connection points: 2
#     Edge 90, Type (0, 0), BuildingBlock: XIVTED_clean_linker_0, # of connection points: 2
#     Edge 91, Type (0, 0), BuildingBlock: XIVTED_clean_linker_0, # of connection points: 2
#     Edge 92, Type (0, 0), BuildingBlock: XIVTED_clean_linker_0, # of connection points: 2
#     Edge 93, Type (0, 0), BuildingBlock: XIVTED_clean_linker_0, # of connection points: 2
#     Edge 94, Type (0, 0), BuildingBlock: XIVTED_clean_linker_0, # of connection points: 2
#     Edge 95, Type (0, 0), BuildingBlock: XIVTED_clean_linker_0, # of connection points: 2
#     Edge 96, Type (0, 0), BuildingBlock: XIVTED_clean_linker_0, # of connection points: 2
#     Edge 97, Type (0, 0), BuildingBlock: XIVTED_clean_linker_0, # of connection points: 2
#     Edge 98, Type (0, 0), BuildingBlock: XIVTED_clean_linker_0, # of connection points: 2
#     Edge 99, Type (0, 0), BuildingBlock: XIVTED_clean_linker_0, # of connection points: 2
#     Edge 100, Type (0, 0), BuildingBlock: XIVTED_clean_linker_0, # of connection points: 2
#     Edge 101, Type (0, 0), BuildingBlock: XIVTED_clean_linker_0, # of connection points: 2
#     Edge 102, Type (0, 0), BuildingBlock: XIVTED_clean_linker_0, # of connection points: 2
#     Edge 103, Type (0, 0), BuildingBlock: XIVTED_clean_linker_0, # of connection points: 2
#     Edge 104, Type (0, 0), BuildingBlock: XIVTED_clean_linker_0, # of connection points: 2
#     Edge 105, Type (0, 0), BuildingBlock: XIVTED_clean_linker_0, # of connection points: 2
#     Edge 106, Type (0, 0), BuildingBlock: XIVTED_clean_linker_0, # of connection points: 2
#     Edge 107, Type (0, 0), BuildingBlock: XIVTED_clean_linker_0, # of connection points: 2
# Relax obj value: 0.068
# Max RMSD: 0.179
# Mean RMSD: 0.174
data_MOF--net-uml--node1-MUDLON_clean_sbu_0--edge1-XIVTED_clean_linker_0
_symmetry_space_group_name_H-M    P1
_symmetry_Int_Tables_number       1
_symmetry_cell_setting            triclinic
loop_
_symmetry_equiv_pos_as_xyz
'x, y, z'
_cell_length_a     102.02517
_cell_length_b     102.00121
_cell_length_c     29.795542
_cell_angle_alpha  89.92049
_cell_angle_beta   90.006829
_cell_angle_gamma 119.96112
loop_
_atom_site_label
_atom_site_type_symbol
_atom_site_fract_x
_atom_site_fract_y
_atom_site_fract_z
_atom_type_partial_charge
Mg0 Mg 0.37102 0.11968 0.18548 0.0
C1 C 0.35941 0.14033 0.2013 0.0
O2 O 0.3485 0.127 0.21443 0.0
C3 C 0.38861 0.10632 0.1539 0.0
O4 O 0.37433 0.09572 0.15086 0.0
C5 C 0.36808 0.11065 0.28231 0.0
O6 O 0.38257 0.12071 0.27996 0.0
O7 O 0.36017 0.10731 0.24672 0.0
O8 O 0.37185 0.14148 0.18835 0.0
O9 O 0.35774 0.10984 0.12524 0.0
C10 C 0.36528 0.11603 0.08979 0.0
O11 O 0.37929 0.12717 0.09385 0.0
O12 O 0.39176 0.11897 0.1713 0.0
Mg13 Mg 0.90814 0.26056 0.16027 0.0
C14 C 0.88905 0.2273 0.16638 0.0
O15 O 0.90285 0.22969 0.17199 0.0
C16 C 0.9143 0.29279 0.16141 0.0
O17 O 0.92373 0.29363 0.19284 0.0
C18 C 0.91 0.25964 0.25909 0.0
O19 O 0.8957 0.25515 0.25122 0.0
O20 O 0.91897 0.2632 0.22576 0.0
O21 O 0.88723 0.23869 0.161 0.0
O22 O 0.92014 0.25898 0.10202 0.0
C23 C 0.92909 0.27059 0.07912 0.0
O24 O 0.93324 0.2841 0.09509 0.0
O25 O 0.90532 0.27992 0.14434 0.0
Mg26 Mg 0.75766 0.64874 0.17541 0.0
C27 C 0.78831 0.65508 0.21129 0.0
O28 O 0.78144 0.65356 0.24983 0.0
C29 C 0.72701 0.62036 0.17851 0.0
O30 O 0.72564 0.62763 0.2129 0.0
C31 C 0.76071 0.66798 0.25953 0.0
O32 O 0.7714 0.67909 0.23604 0.0
O33 O 0.75305 0.655 0.24153 0.0
O34 O 0.78082 0.6527 0.17511 0.0
O35 O 0.75633 0.66052 0.11585 0.0
C36 C 0.75778 0.65407 0.08109 0.0
O37 O 0.76031 0.64274 0.0869 0.0
O38 O 0.73985 0.62574 0.15949 0.0
Mg39 Mg 0.11443 0.36479 0.34093 0.0
C40 C 0.12998 0.34697 0.35007 0.0
O41 O 0.1158 0.33712 0.35931 0.0
C42 C 0.11277 0.39356 0.3364 0.0
O43 O 0.10455 0.38658 0.30104 0.0
C44 C 0.09845 0.34554 0.25665 0.0
O45 O 0.09799 0.33446 0.28036 0.0
O46 O 0.10369 0.35854 0.27455 0.0
O47 O 0.13346 0.36055 0.34096 0.0
O48 O 0.1015 0.35346 0.40119 0.0
C49 C 0.10981 0.35995 0.4352 0.0
O50 O 0.12374 0.37092 0.42809 0.0
O51 O 0.11982 0.38789 0.35637 0.0
Mg52 Mg 0.65056 0.75646 0.34551 0.0
C53 C 0.65574 0.78595 0.38651 0.0
O54 O 0.65796 0.77981 0.42239 0.0
C55 C 0.62503 0.72465 0.3343 0.0
O56 O 0.6335 0.72612 0.29932 0.0
C57 C 0.66801 0.75484 0.25909 0.0
O58 O 0.67757 0.7537 0.28607 0.0
O59 O 0.65705 0.75587 0.27559 0.0
O60 O 0.65133 0.77824 0.3505 0.0
O61 O 0.6653 0.75685 0.39993 0.0
C62 C 0.65938 0.7471 0.43136 0.0
O63 O 0.64549 0.73587 0.4264 0.0
O64 O 0.62852 0.73628 0.35821 0.0
Mg65 Mg 0.26392 0.90059 0.34898 0.0
C66 C 0.23071 0.88137 0.35436 0.0
O67 O 0.23304 0.89516 0.35953 0.0
C68 C 0.29671 0.90841 0.34929 0.0
O69 O 0.29757 0.91867 0.32088 0.0
C70 C 0.26846 0.90475 0.25026 0.0
O71 O 0.27062 0.89331 0.25856 0.0
O72 O 0.26579 0.91104 0.28317 0.0
O73 O 0.24213 0.87959 0.34916 0.0
O74 O 0.26312 0.91284 0.40798 0.0
C75 C 0.2652 0.90741 0.44408 0.0
O76 O 0.26748 0.89585 0.44118 0.0
O77 O 0.28374 0.89832 0.36323 0.0
Mg78 Mg 0.65129 0.90284 0.85197 0.0
C79 C 0.66087 0.92166 0.93711 0.0
O80 O 0.64815 0.92156 0.92942 0.0
C81 C 0.67134 0.92046 0.7724 0.0
O82 O 0.68203 0.92258 0.80098 0.0
C83 C 0.62267 0.90523 0.85183 0.0
O84 O 0.62864 0.91254 0.81424 0.0
O85 O 0.62889 0.8987 0.87175 0.0
O86 O 0.66576 0.91604 0.90787 0.0
O87 O 0.65353 0.8826 0.84903 0.0
C88 C 0.66664 0.88458 0.85749 0.0
O89 O 0.67749 0.89821 0.8683 0.0
O90 O 0.65763 0.91335 0.78542 0.0
Mg91 Mg 0.11617 0.75194 0.84981 0.0
C92 C 0.13392 0.78531 0.84741 0.0
O93 O 0.11982 0.78233 0.84777 0.0
C94 C 0.11235 0.72039 0.85251 0.0
O95 O 0.10372 0.71867 0.81773 0.0
C96 C 0.11395 0.74722 0.75129 0.0
O97 O 0.12664 0.74757 0.7617 0.0
O98 O 0.10614 0.74835 0.78279 0.0
O99 O 0.13645 0.77427 0.84803 0.0
O100 O 0.10302 0.75355 0.90518 0.0
C101 C 0.09723 0.74308 0.93454 0.0
O102 O 0.09702 0.7303 0.92695 0.0
O103 O 0.12003 0.73348 0.86987 0.0
Mg104 Mg 0.26401 0.37028 0.84182 0.0
C105 C 0.23144 0.35708 0.83469 0.0
O106 O 0.23401 0.34568 0.83472 0.0
C107 C 0.28876 0.39863 0.88828 0.0
O108 O 0.27876 0.39395 0.92091 0.0
C109 C 0.271 0.36768 0.74587 0.0
O110 O 0.27605 0.38228 0.74917 0.0
O111 O 0.26561 0.35946 0.7807 0.0
O112 O 0.24274 0.37046 0.83688 0.0
O113 O 0.26108 0.35706 0.90198 0.0
C114 C 0.2718 0.35879 0.92759 0.0
O115 O 0.28587 0.36781 0.91508 0.0
O116 O 0.28501 0.39174 0.85079 0.0
Mg117 Mg 0.90143 0.64685 0.66877 0.0
C118 C 0.8751 0.64882 0.70959 0.0
O119 O 0.88261 0.64992 0.74652 0.0
C120 C 0.89939 0.6182 0.62906 0.0
O121 O 0.89399 0.62194 0.59442 0.0
C122 C 0.91369 0.6516 0.76254 0.0
O123 O 0.9066 0.63678 0.75954 0.0
O124 O 0.91416 0.65925 0.72812 0.0
O125 O 0.8796 0.6461 0.67274 0.0
O126 O 0.91164 0.65809 0.60554 0.0
C127 C 0.90238 0.6554 0.57353 0.0
O128 O 0.88782 0.64729 0.58188 0.0
O129 O 0.9019 0.62564 0.66543 0.0
Mg130 Mg 0.36748 0.26461 0.66674 0.0
C131 C 0.35364 0.23191 0.68172 0.0
O132 O 0.34239 0.23466 0.6849 0.0
C133 C 0.39681 0.28764 0.62108 0.0
O134 O 0.39214 0.27669 0.59145 0.0
C135 C 0.36677 0.27312 0.76126 0.0
O136 O 0.38118 0.27816 0.75338 0.0
O137 O 0.35744 0.26712 0.72898 0.0
O138 O 0.36693 0.24303 0.67509 0.0
O139 O 0.35615 0.26293 0.60245 0.0
C140 C 0.3582 0.25497 0.57336 0.0
O141 O 0.36498 0.24753 0.58611 0.0
O142 O 0.38954 0.28515 0.65778 0.0
Mg143 Mg 0.75685 0.11162 0.67834 0.0
C144 C 0.7708 0.10218 0.60407 0.0
O145 O 0.78322 0.11161 0.62553 0.0
C146 C 0.75649 0.09189 0.75814 0.0
O147 O 0.76187 0.08638 0.72812 0.0
C148 C 0.72497 0.10705 0.67516 0.0
O149 O 0.72354 0.09938 0.71207 0.0
O150 O 0.73793 0.11438 0.65674 0.0
O151 O 0.7581 0.09862 0.62171 0.0
O152 O 0.77858 0.13279 0.67977 0.0
C153 C 0.78919 0.13302 0.70292 0.0
O154 O 0.78629 0.12099 0.7266 0.0
O155 O 0.75295 0.10168 0.74591 0.0
Mg156 Mg 0.03491 0.4434 0.49145 0.0
C157 C 0.03352 0.47052 0.52929 0.0
O158 O 0.03843 0.46698 0.56554 0.0
C159 C 0.06309 0.44061 0.49813 0.0
O160 O 0.05554 0.43206 0.53244 0.0
C161 C 0.01534 0.4301 0.57539 0.0
O162 O 1.00681 0.43435 0.554 0.0
O163 O 0.02713 0.43158 0.55598 0.0
O164 O 0.03189 0.46314 0.49336 0.0
O165 O 0.02374 0.43153 0.42972 0.0
C166 C 0.03072 0.43988 0.39613 0.0
O167 O 0.04221 0.45347 0.40393 0.0
O168 O 0.05791 0.44807 0.47799 0.0
Mg169 Mg 0.57298 0.59428 0.51209 0.0
C170 C 0.54649 0.56541 0.55109 0.0
O171 O 0.55296 0.57193 0.5891 0.0
C172 C 0.584 0.62445 0.4756 0.0
O173 O 0.59543 0.62195 0.47365 0.0
C174 C 0.58847 0.58963 0.5954 0.0
O175 O 0.58779 0.57847 0.57163 0.0
O176 O 0.58403 0.59814 0.57783 0.0
O177 O 0.5517 0.57266 0.51454 0.0
O178 O 0.5842 0.5919 0.45258 0.0
C179 C 0.57604 0.59017 0.41821 0.0
O180 O 0.56278 0.58909 0.42446 0.0
O181 O 0.5717 0.61447 0.49372 0.0
Mg182 Mg 0.42363 0.98046 0.5258 0.0
C183 C 0.4559 0.99291 0.55224 0.0
O184 O 0.45121 0.99951 0.58064 0.0
C185 C 0.39201 0.95327 0.52091 0.0
O186 O 0.39032 0.96006 0.55604 0.0
C187 C 0.42129 0.99706 0.61181 0.0
O188 O 0.42543 0.00886 0.58559 0.0
O189 O 0.41931 0.98474 0.59497 0.0
O190 O 0.44645 0.98339 0.52448 0.0
O191 O 0.42359 0.99465 0.47079 0.0
C192 C 0.42307 0.98822 0.4336 0.0
O193 O 0.42315 0.97539 0.43456 0.0
O194 O 0.40519 0.95835 0.50447 0.0
Mg195 Mg 0.78055 0.69791 0.68123 0.0
C196 C 0.80351 0.68973 0.71526 0.0
O197 O 0.79605 0.68832 0.75257 0.0
C198 C 0.7794 0.72711 0.68314 0.0
O199 O 0.7728 0.72185 0.64423 0.0
C200 C 0.76675 0.68071 0.59374 0.0
O201 O 0.76628 0.66951 0.61686 0.0
O202 O 0.77138 0.69342 0.61291 0.0
O203 O 0.80015 0.69459 0.68022 0.0
O204 O 0.76601 0.68268 0.73408 0.0
C205 C 0.76048 0.68756 0.76366 0.0
O206 O 0.76112 0.70059 0.75697 0.0
O207 O 0.78515 0.72024 0.70368 0.0
Mg208 Mg 0.31698 0.0911 0.68336 0.0
C209 C 0.3292 0.12331 0.67423 0.0
O210 O 0.34063 0.12084 0.671 0.0
C211 C 0.30044 0.06009 0.71335 0.0
O212 O 0.31487 0.06423 0.71388 0.0
C213 C 0.32028 0.08537 0.58678 0.0
O214 O 0.30574 0.08071 0.5891 0.0
O215 O 0.32814 0.08992 0.62246 0.0
O216 O 0.31595 0.11194 0.67897 0.0
O217 O 0.33022 0.09484 0.74393 0.0
C218 C 0.3225 0.09308 0.77926 0.0
O219 O 0.3083 0.08959 0.77501 0.0
O220 O 0.29662 0.06934 0.69771 0.0
Mg221 Mg 0.92951 0.23711 0.67249 0.0
C222 C 0.8967 0.21736 0.6663 0.0
O223 O 0.89926 0.23053 0.65103 0.0
C224 C 0.96095 0.23883 0.66649 0.0
O225 O 0.96073 0.24188 0.62377 0.0
C226 C 0.93903 0.25528 0.57956 0.0
O227 O 0.95289 0.26361 0.59469 0.0
O228 O 0.92893 0.24513 0.60457 0.0
O229 O 0.90797 0.21604 0.67843 0.0
O230 O 0.92814 0.25037 0.72745 0.0
C231 C 0.93991 0.2595 0.74936 0.0
O232 O 0.95328 0.2631 0.73329 0.0
O233 O 0.94939 0.2354 0.69062 0.0
Mg234 Mg 0.31909 0.24162 0.1681 0.0
C235 C 0.34301 0.25362 0.24112 0.0
O236 O 0.34764 0.24565 0.21855 0.0
C237 C 0.33924 0.26079 0.08809 0.0
O238 O 0.34997 0.26682 0.11848 0.0
C239 C 0.29291 0.23891 0.22215 0.0
O240 O 0.3013 0.23805 0.2542 0.0
O241 O 0.29691 0.23917 0.1815 0.0
O242 O 0.33253 0.25544 0.22461 0.0
O243 O 0.32021 0.22073 0.17222 0.0
C244 C 0.33087 0.22041 0.15081 0.0
O245 O 0.33967 0.23197 0.12506 0.0
O246 O 0.32595 0.25088 0.10014 0.0
Mg247 Mg 0.78211 0.08773 0.17872 0.0
C248 C 0.80245 0.11992 0.16006 0.0
O249 O 0.78874 0.11788 0.15569 0.0
C250 C 0.78654 0.06407 0.22708 0.0
O251 O 0.79322 0.07532 0.25557 0.0
C252 C 0.77232 0.07925 0.0843 0.0
O253 O 0.78126 0.07366 0.09177 0.0
O254 O 0.7695 0.08561 0.11676 0.0
O255 O 0.80387 0.10846 0.16889 0.0
O256 O 0.77318 0.09065 0.24292 0.0
C257 C 0.78336 0.09888 0.27124 0.0
O258 O 0.79752 0.10597 0.25797 0.0
O259 O 0.78219 0.06649 0.18948 0.0
Mg260 Mg 0.9288 0.69801 0.17038 0.0
C261 C 0.90098 0.69769 0.20519 0.0
O262 O 0.90726 0.69712 0.2431 0.0
C263 C 0.95408 0.72589 0.21816 0.0
O264 O 0.94378 0.72197 0.24967 0.0
C265 C 0.93265 0.6961 0.07162 0.0
O266 O 0.93566 0.71015 0.07601 0.0
O267 O 0.9296 0.68792 0.10665 0.0
O268 O 0.90827 0.69967 0.16877 0.0
O269 O 0.92525 0.68342 0.22781 0.0
C270 C 0.93563 0.6853 0.25511 0.0
O271 O 0.94978 0.69503 0.24523 0.0
O272 O 0.95042 0.71872 0.1811 0.0
Mg273 Mg 0.5687 0.98123 1.00865 0.0
C274 C 0.54164 0.98311 0.04466 0.0
O275 O 0.54639 0.98055 0.08286 0.0
C276 C 0.57697 0.95685 1.01017 0.0
O277 O 0.5882 0.96753 0.03318 0.0
C278 C 0.57814 0.98404 0.10599 0.0
O279 O 0.56847 0.96945 0.104 0.0
O280 O 0.58103 0.99192 0.07034 0.0
O281 O 0.54815 0.98294 1.00842 0.0
O282 O 0.58033 0.99255 0.94721 0.0
C283 C 0.57327 0.98483 0.91286 0.0
O284 O 0.56054 0.97206 0.91899 0.0
O285 O 0.56605 0.95879 0.9985 0.0
Mg286 Mg 0.03844 0.59338 0.02512 0.0
C287 C 0.0362 0.56473 0.98807 0.0
O288 O 0.03812 0.57219 0.9504 0.0
C289 C 0.06573 0.62514 0.02423 0.0
O290 O 0.05855 0.6265 0.05892 0.0
C291 C 0.04031 0.59676 0.12419 0.0
O292 O 0.05253 0.59619 0.1137 0.0
O293 O 0.03169 0.59629 0.09256 0.0
O294 O 0.03683 0.57123 0.02506 0.0
O295 O 0.02366 0.59189 0.96983 0.0
C296 C 0.02847 0.60236 0.94042 0.0
O297 O 0.04116 0.615 0.94792 0.0
O298 O 0.06067 0.61217 1.00633 0.0
Mg299 Mg 0.42546 0.44581 1.0048 0.0
C300 C 0.42327 0.42377 0.92474 0.0
O301 O 0.41674 0.41204 0.95178 0.0
C302 C 0.43347 0.43126 0.08217 0.0
O303 O 0.44526 0.43492 0.05643 0.0
C304 C 0.39482 0.43651 0.97411 0.0
O305 O 0.39702 0.42523 0.96415 0.0
O306 O 0.40518 0.44785 0.99499 0.0
O307 O 0.42758 0.43696 0.93983 0.0
O308 O 0.4471 0.467 1.0107 0.0
C309 C 0.45841 0.46621 0.99581 0.0
O310 O 0.45598 0.45347 0.97763 0.0
O311 O 0.42294 0.43335 0.06746 0.0
Mg312 Mg 0.70379 0.78056 0.84039 0.0
C313 C 0.69007 0.80009 0.82664 0.0
O314 O 0.6797 0.78699 0.81049 0.0
C315 C 0.73026 0.77501 0.8464 0.0
O316 O 0.72189 0.76618 0.87922 0.0
C317 C 0.68458 0.76968 0.9255 0.0
O318 O 0.67741 0.77552 0.90422 0.0
O319 O 0.69547 0.76934 0.90575 0.0
O320 O 0.70234 0.80129 0.84146 0.0
O321 O 0.69194 0.76861 0.77933 0.0
C322 C 0.69927 0.77601 0.74471 0.0
O323 O 0.71185 0.78893 0.75072 0.0
O324 O 0.72624 0.7836 0.82726 0.0
Mg325 Mg 0.23677 0.92699 0.84928 0.0
C326 C 0.21753 0.89411 0.84053 0.0
O327 O 0.23139 0.89675 0.83432 0.0
C328 C 0.24549 0.95946 0.8592 0.0
O329 O 0.25381 0.95792 0.8901 0.0
C330 C 0.25425 0.92152 0.92564 0.0
O331 O 0.25723 0.91432 0.89435 0.0
O332 O 0.24678 0.92802 0.91533 0.0
O333 O 0.21556 0.90535 0.84737 0.0
O334 O 0.24919 0.9265 0.79021 0.0
C335 C 0.24467 0.92979 0.75428 0.0
O336 O 0.23391 0.93326 0.75714 0.0
O337 O 0.23571 0.9477 0.83856 0.0
Mg338 Mg 0.08921 0.3167 0.83522 0.0
C339 C 0.12278 0.33254 0.8323 0.0
O340 O 0.11989 0.34372 0.83068 0.0
C341 C 0.05791 0.28944 0.8319 0.0
O342 O 0.05651 0.29669 0.86632 0.0
C343 C 0.09088 0.33454 0.92155 0.0
O344 O 0.09887 0.34651 0.89628 0.0
O345 O 0.08526 0.32144 0.90415 0.0
O346 O 0.11171 0.31902 0.83428 0.0
O347 O 0.09009 0.33181 0.78168 0.0
C348 C 0.07937 0.32723 0.7532 0.0
O349 O 0.06669 0.31462 0.76123 0.0
O350 O 0.07093 0.29446 0.81437 0.0
Mg351 Mg 0.44802 0.03405 0.02845 0.0
C352 C 0.46699 0.02023 0.05151 0.0
O353 O 0.4545 0.01178 0.07415 0.0
C354 C 0.44397 0.06101 0.01341 0.0
O355 O 0.43658 0.05263 0.97874 0.0
C356 C 0.43667 0.01435 0.94378 0.0
O357 O 0.44244 1.00698 0.96434 0.0
O358 O 0.43671 0.0254 0.96372 0.0
O359 O 0.4681 0.03137 0.02893 0.0
O360 O 0.43505 0.02249 0.08865 0.0
C361 C 0.43941 0.03053 0.12414 0.0
O362 O 0.45039 0.04464 0.12095 0.0
O363 O 0.45156 0.05691 0.03764 0.0
Mg364 Mg 0.98721 0.42069 0.99741 0.0
C365 C 1.0002 0.45328 0.9749 0.0
O366 O 1.00779 0.44912 0.94857 0.0
C367 C 0.95856 0.39001 0.99899 0.0
O368 O 0.96369 0.38929 0.95917 0.0
C369 C 1.00304 0.41827 0.9099 0.0
O370 O 0.01483 0.42197 0.93568 0.0
O371 O 0.99093 0.41666 0.92735 0.0
O372 O 0.98983 0.44334 0.99977 0.0
O373 O 1.00286 0.42158 0.04904 0.0
C374 C 0.99849 0.41073 0.07705 0.0
O375 O 0.986 0.39797 0.06874 0.0
O376 O 0.96529 0.40241 0.02058 0.0
Mg377 Mg 0.59951 0.56944 0.01605 0.0
C378 C 0.56594 0.55133 0.02375 0.0
O379 O 0.56875 0.56502 0.03386 0.0
C380 C 0.63036 0.57173 0.01617 0.0
O381 O 0.6317 0.57932 0.97916 0.0
C382 C 0.59631 0.58463 0.93007 0.0
O383 O 0.58653 0.58628 0.95458 0.0
O384 O 0.60367 0.57893 0.94793 0.0
O385 O 0.57702 0.54931 0.01479 0.0
O386 O 0.5984 0.58293 0.0715 0.0
C387 C 0.60858 0.588 0.10176 0.0
O388 O 0.62107 0.58756 0.09489 0.0
O389 O 0.61761 0.56509 0.03607 0.0
Mg390 Mg 0.98922 0.56949 0.52721 0.0
C391 C 0.99286 0.57262 0.62384 0.0
O392 O 0.9803 0.5598 0.61641 0.0
C393 C 0.01183 0.5829 0.45031 0.0
O394 O 0.01937 0.57863 0.47657 0.0
C395 C 0.96871 0.58018 0.55374 0.0
O396 O 0.98243 0.59148 0.56102 0.0
O397 O 0.96717 0.56814 0.53589 0.0
O398 O 1.00051 0.58036 0.59012 0.0
O399 O 0.98985 0.54826 0.52522 0.0
C400 C 1.00129 0.54884 0.5445 0.0
O401 O 1.01108 0.56147 0.56434 0.0
O402 O 0.99934 0.58135 0.46416 0.0
Mg403 Mg 0.44884 0.42316 0.51065 0.0
C404 C 0.47307 0.45326 0.54818 0.0
O405 O 0.4655 0.447 0.58519 0.0
C406 C 0.44605 0.39213 0.502 0.0
O407 O 0.43952 0.39228 0.46419 0.0
C408 C 0.44836 0.42206 0.41148 0.0
O409 O 0.46174 0.42415 0.42249 0.0
O410 O 0.43936 0.42088 0.44293 0.0
O411 O 0.46929 0.4455 0.51221 0.0
O412 O 0.43534 0.4232 0.56762 0.0
C413 C 0.42825 0.41137 0.59177 0.0
O414 O 0.42662 0.39853 0.57686 0.0
O415 O 0.4522 0.40402 0.52605 0.0
Mg416 Mg 0.59662 0.03184 0.51138 0.0
C417 C 0.56746 0.0293 0.54469 0.0
O418 O 0.57417 0.03038 0.58328 0.0
C419 C 0.62882 0.05821 0.50833 0.0
O420 O 0.62978 0.04971 0.47689 0.0
C421 C 0.60066 0.03016 0.41228 0.0
O422 O 0.60183 0.04355 0.41572 0.0
O423 O 0.59897 0.02256 0.44789 0.0
O424 O 0.57466 0.03062 0.50855 0.0
O425 O 0.59499 0.01807 0.56954 0.0
C426 C 0.60505 0.02353 0.60008 0.0
O427 O 0.61727 0.03668 0.59339 0.0
O428 O 0.61594 0.05424 0.5255 0.0
Mg429 Mg 0.24118 0.32033 0.34254 0.0
C430 C 0.20714 0.31289 0.34503 0.0
O431 O 0.20304 0.29878 0.33569 0.0
C432 C 0.23627 0.29135 0.29871 0.0
O433 O 0.2327 0.29716 0.26474 0.0
C434 C 0.2504 0.32299 0.43798 0.0
O435 O 0.23978 0.30871 0.43485 0.0
O436 O 0.2543 0.33111 0.40266 0.0
O437 O 0.22108 0.32255 0.34983 0.0
O438 O 0.25184 0.33174 0.27976 0.0
C439 C 0.24261 0.33062 0.24924 0.0
O440 O 0.22813 0.32391 0.25904 0.0
O441 O 0.2388 0.29784 0.33677 0.0
Mg442 Mg 0.70013 0.92853 0.35054 0.0
C443 C 0.69393 0.89796 0.38614 0.0
O444 O 0.69163 0.90358 0.42295 0.0
C445 C 0.7246 0.96098 0.35094 0.0
O446 O 0.71406 0.96141 0.37513 0.0
C447 C 0.70095 0.93581 0.44769 0.0
O448 O 0.71489 0.93903 0.43925 0.0
O449 O 0.69151 0.93134 0.41538 0.0
O450 O 0.69853 0.90622 0.35107 0.0
O451 O 0.68821 0.92846 0.28966 0.0
C452 C 0.69538 0.9279 0.25536 0.0
O453 O 0.70767 0.92703 0.2619 0.0
O454 O 0.72249 0.94821 0.33756 0.0
Mg455 Mg 0.09031 0.77457 0.34877 0.0
C456 C 0.09316 0.77195 0.25341 0.0
O457 O 0.09379 0.78498 0.26037 0.0
C458 C 0.09684 0.75841 0.42549 0.0
O459 O 0.10706 0.75913 0.3972 0.0
C460 C 0.05956 0.76352 0.31663 0.0
O461 O 0.06235 0.75241 0.31011 0.0
O462 O 0.06959 0.77551 0.33593 0.0
O463 O 0.09212 0.76388 0.28737 0.0
O464 O 0.11177 0.79605 0.35183 0.0
C465 C 0.12331 0.79499 0.34113 0.0
O466 O 0.12121 0.78174 0.32853 0.0
O467 O 0.08795 0.76306 0.41295 0.0
H468 H 0.35053 0.0976 0.56775 0.0
H469 H 0.33795 0.09192 0.30128 0.0
H470 H 0.30659 0.0765 0.50471 0.0
H471 H 0.38187 0.11549 0.36429 0.0
H472 H 0.32632 0.08384 0.3754 0.0
H473 H 0.36224 0.10189 0.49353 0.0
C474 C 0.34333 0.09373 0.53837 0.0
C475 C 0.32754 0.08677 0.54253 0.0
C476 C 0.33852 0.09069 0.373 0.0
C477 C 0.3409 0.09172 0.45734 0.0
C478 C 0.34517 0.09529 0.33063 0.0
C479 C 0.36092 0.10449 0.3265 0.0
C480 C 0.34766 0.09533 0.4116 0.0
C481 C 0.36968 0.10848 0.3658 0.0
C482 C 0.35003 0.09622 0.49595 0.0
C483 C 0.3188 0.082 0.50319 0.0
N484 N 0.36294 0.10395 0.40664 0.0
N485 N 0.32559 0.08464 0.46231 0.0
H486 H 0.91086 0.24308 0.54261 0.0
H487 H 0.93906 0.27018 0.29089 0.0
H488 H 0.95812 0.27122 0.50947 0.0
H489 H 0.8926 0.2499 0.3345 0.0
H490 H 0.94664 0.27004 0.36922 0.0
H491 H 0.90431 0.2448 0.46514 0.0
C492 C 0.91989 0.24968 0.51906 0.0
C493 C 0.93508 0.25701 0.53273 0.0
C494 C 0.93481 0.26568 0.36151 0.0
C495 C 0.9276 0.25897 0.44323 0.0
C496 C 0.93047 0.26573 0.31682 0.0
C497 C 0.91516 0.26002 0.30598 0.0
C498 C 0.92374 0.25977 0.39544 0.0
C499 C 0.90453 0.25442 0.34104 0.0
C500 C 0.91612 0.25068 0.47469 0.0
C501 C 0.94625 0.26542 0.5005 0.0
N502 N 0.90901 0.25438 0.38393 0.0
N503 N 0.9423 0.2661 0.45717 0.0
H504 H 0.77262 0.70292 0.53154 0.0
H505 H 0.74412 0.64608 0.32199 0.0
H506 H 0.75372 0.65463 0.54397 0.0
H507 H 0.77383 0.69428 0.30869 0.0
H508 H 0.74379 0.64917 0.40328 0.0
H509 H 0.76941 0.70001 0.45 0.0
C510 C 0.76764 0.69168 0.51724 0.0
C511 C 0.76351 0.679 0.54476 0.0
C512 C 0.75029 0.65909 0.38254 0.0
C513 C 0.7598 0.67561 0.45129 0.0
C514 C 0.75044 0.65735 0.33603 0.0
C515 C 0.75909 0.66993 0.30831 0.0
C516 C 0.75876 0.67353 0.40168 0.0
C517 C 0.76706 0.68424 0.32866 0.0
C518 C 0.76587 0.69004 0.47063 0.0
C519 C 0.75715 0.66474 0.52416 0.0
N520 N 0.76673 0.68564 0.37405 0.0
N521 N 0.75552 0.66344 0.47877 0.0
H522 H 0.10101 0.36071 0.97018 0.0
H523 H 0.08585 0.31917 0.20817 0.0
H524 H 0.07836 0.31217 0.98553 0.0
H525 H 0.10276 0.3671 0.19377 0.0
H526 H 0.08218 0.3163 0.12694 0.0
H527 H 0.10098 0.36324 0.05182 0.0
C528 C 0.09592 0.35057 0.99063 0.0
C529 C 0.08975 0.33621 0.97079 0.0
C530 C 0.08658 0.32743 0.14154 0.0
C531 C 0.08978 0.33904 0.06461 0.0
C532 C 0.08867 0.32909 0.18803 0.0
C533 C 0.0947 0.34342 0.20798 0.0
C534 C 0.09066 0.34022 0.11454 0.0
C535 C 0.0981 0.35583 0.17998 0.0
C536 C 0.09591 0.35203 0.03733 0.0
C537 C 0.08329 0.32349 0.99919 0.0
N538 N 0.09617 0.35396 0.13475 0.0
N539 N 0.08358 0.32521 0.04455 0.0
H540 H 0.69034 0.75359 0.2102 0.0
H541 H 0.66102 0.76755 0.9749 0.0
H542 H 0.65041 0.75756 0.19452 0.0
H543 H 0.70016 0.76201 0.98601 0.0
H544 H 0.65652 0.7627 0.0551 0.0
H545 H 0.69379 0.75561 0.12846 0.0
C546 C 0.68227 0.75483 0.18967 0.0
C547 C 0.6701 0.75547 0.20949 0.0
C548 C 0.66605 0.76244 0.04009 0.0
C549 C 0.67399 0.7578 0.11578 0.0
C550 C 0.66863 0.76519 0.99412 0.0
C551 C 0.68103 0.76525 0.9735 0.0
C552 C 0.67599 0.75979 0.06613 0.0
C553 C 0.69045 0.76207 1.00038 0.0
C554 C 0.68424 0.75598 0.14296 0.0
C555 C 0.65999 0.75706 0.181 0.0
N556 N 0.68779 0.75958 0.04532 0.0
N557 N 0.6622 0.75822 0.13583 0.0
H558 H 0.25974 0.9246 0.21762 0.0
H559 H 0.26894 0.90742 0.96009 0.0
H560 H 0.27642 0.89519 0.17489 0.0
H561 H 0.24877 0.93407 1.0 0.0
H562 H 0.27386 0.90487 0.03885 0.0
H563 H 0.2577 0.9302 0.13856 0.0
C564 C 0.2631 0.91942 0.19172 0.0
C565 C 0.26819 0.90934 0.20302 0.0
C566 C 0.26842 0.91134 0.03045 0.0
C567 C 0.26584 0.91566 0.11249 0.0
C568 C 0.26563 0.91284 0.98535 0.0
C569 C 0.25835 0.92091 0.97322 0.0
C570 C 0.26391 0.91795 0.064 0.0
C571 C 0.25436 0.92769 1.00768 0.0
C572 C 0.26189 0.92259 0.14657 0.0
C573 C 0.27234 0.90295 0.16793 0.0
N574 N 0.25713 0.926 0.05144 0.0
N575 N 0.27104 0.90618 0.12445 0.0
H576 H 0.65197 0.91428 0.7009 0.0
H577 H 0.71925 0.94786 0.52052 0.0
H578 H 0.69944 0.93653 0.73443 0.0
H579 H 0.67213 0.92391 0.48277 0.0
H580 H 0.71186 0.94591 0.59897 0.0
H581 H 0.65879 0.9197 0.62138 0.0
C582 C 0.66382 0.92044 0.69167 0.0
C583 C 0.67515 0.92487 0.72453 0.0
C584 C 0.70309 0.94115 0.57365 0.0
C585 C 0.68301 0.93107 0.63345 0.0
C586 C 0.70731 0.94227 0.52867 0.0
C587 C 0.6963 0.93594 0.49486 0.0
C588 C 0.6877 0.93356 0.58536 0.0
C589 C 0.68101 0.92894 0.50768 0.0
C590 C 0.6677 0.92349 0.6462 0.0
C591 C 0.6903 0.93281 0.71043 0.0
N592 N 0.67715 0.92782 0.55195 0.0
N593 N 0.69376 0.93557 0.66609 0.0
H594 H 0.07943 0.75849 0.49603 0.0
H595 H 0.12687 0.74184 0.67874 0.0
H596 H 0.11488 0.74867 0.46382 0.0
H597 H 0.09117 0.75092 0.71434 0.0
H598 H 0.12113 0.74247 0.59973 0.0
H599 H 0.082 0.7539 0.57543 0.0
C600 C 0.08764 0.75521 0.50551 0.0
C601 C 0.09702 0.75406 0.47306 0.0
C602 C 0.11446 0.74425 0.6247 0.0
C603 C 0.10008 0.74888 0.56409 0.0
C604 C 0.11774 0.74389 0.66998 0.0
C605 C 0.10956 0.74643 0.70339 0.0
C606 C 0.10294 0.74726 0.6123 0.0
C607 C 0.09779 0.74894 0.68977 0.0
C608 C 0.08912 0.75263 0.55093 0.0
C609 C 0.10744 0.74977 0.4875 0.0
N610 N 0.09491 0.7494 0.64527 0.0
N611 N 0.10874 0.74744 0.53183 0.0
H612 H 0.26936 0.3529 0.45948 0.0
H613 H 0.25882 0.3376 0.72462 0.0
H614 H 0.24457 0.30841 0.51883 0.0
H615 H 0.28157 0.38222 0.66546 0.0
H616 H 0.25593 0.32667 0.64976 0.0
H617 H 0.27642 0.36379 0.53479 0.0
C618 C 0.26554 0.34541 0.48827 0.0
C619 C 0.25624 0.32972 0.48276 0.0
C620 C 0.26165 0.33886 0.65318 0.0
C621 C 0.26421 0.34212 0.56914 0.0
C622 C 0.26333 0.34511 0.69598 0.0
C623 C 0.27035 0.36086 0.70138 0.0
C624 C 0.26701 0.34841 0.61543 0.0
C625 C 0.27599 0.37002 0.66295 0.0
C626 C 0.26954 0.35164 0.5313 0.0
C627 C 0.25165 0.32057 0.52138 0.0
N628 N 0.27412 0.36366 0.62166 0.0
N629 N 0.25559 0.32691 0.56284 0.0
H630 H 0.92593 0.68169 0.78414 0.0
H631 H 0.92546 0.66713 0.04888 0.0
H632 H 0.91357 0.63825 0.84238 0.0
H633 H 0.93801 0.71062 0.99066 0.0
H634 H 0.92278 0.65674 0.97328 0.0
H635 H 0.93228 0.69292 0.85913 0.0
C636 C 0.9247 0.67454 0.81258 0.0
C637 C 0.91912 0.65898 0.80688 0.0
C638 C 0.92621 0.66858 0.97705 0.0
C639 C 0.92625 0.67175 0.893 0.0
C640 C 0.92775 0.67453 0.02026 0.0
C641 C 0.93188 0.68976 0.02623 0.0
C642 C 0.92879 0.67792 0.93944 0.0
C643 C 0.93473 0.6988 0.98778 0.0
C644 C 0.92829 0.68095 0.85546 0.0
C645 C 0.91775 0.65028 0.84509 0.0
N646 N 0.93305 0.69273 0.94613 0.0
N647 N 0.92119 0.65676 0.88645 0.0
H648 H 0.36658 0.28064 0.04997 0.0
H649 H 0.33776 0.25826 0.79589 0.0
H650 H 0.32014 0.24912 0.01553 0.0
H651 H 0.38431 0.28779 0.8337 0.0
H652 H 0.33047 0.25653 0.87521 0.0
H653 H 0.37268 0.2851 0.97018 0.0
C654 C 0.35763 0.27472 0.02568 0.0
C655 C 0.34283 0.26442 0.03968 0.0
C656 C 0.34226 0.26348 0.86603 0.0
C657 C 0.34978 0.26943 0.94776 0.0
C658 C 0.34642 0.26452 0.82071 0.0
C659 C 0.36169 0.27311 0.80804 0.0
C660 C 0.35346 0.27111 0.89887 0.0
C661 C 0.37242 0.28093 0.84178 0.0
C662 C 0.36113 0.27726 0.98 0.0
C663 C 0.33172 0.25713 1.00642 0.0
N664 N 0.36811 0.27968 0.88546 0.0
N665 N 0.33543 0.2597 0.96209 0.0
H666 H 0.7635 0.07165 0.79597 0.0
H667 H 0.75879 0.09486 0.05039 0.0
H668 H 0.74913 0.10359 0.83094 0.0
H669 H 0.77422 0.06408 1.01159 0.0
H670 H 0.75293 0.09662 0.97135 0.0
H671 H 0.76524 0.06716 0.87563 0.0
C672 C 0.76059 0.07765 0.82036 0.0
C673 C 0.75624 0.08808 0.80652 0.0
C674 C 0.75748 0.08939 0.98027 0.0
C675 C 0.75832 0.08305 0.89839 0.0
C676 C 0.76077 0.08833 0.02543 0.0
C677 C 0.7671 0.07937 0.03774 0.0
C678 C 0.7605 0.08141 0.94721 0.0
C679 C 0.76947 0.07122 1.00381 0.0
C680 C 0.76161 0.07509 0.86599 0.0
C681 C 0.75258 0.09547 0.83993 0.0
N682 N 0.76625 0.07249 0.9603 0.0
N683 N 0.7538 0.09289 0.88423 0.0
H684 H 0.02718 0.42149 0.85998 0.0
H685 H 0.99039 0.42411 0.62523 0.0
H686 H 0.98173 0.41373 0.84629 0.0
H687 H 0.03358 0.42619 0.63563 0.0
H688 H 0.98674 0.41937 0.70588 0.0
H689 H 0.02952 0.42238 0.77806 0.0
C690 C 0.01765 0.41985 0.83983 0.0
C691 C 1.00426 0.4176 0.86026 0.0
C692 C 0.99697 0.42073 0.69054 0.0
C693 C 1.00691 0.41872 0.76622 0.0
C694 C 0.99906 0.42343 0.64437 0.0
C695 C 0.01234 0.42561 0.62347 0.0
C696 C 1.00829 0.42034 0.71639 0.0
C697 C 0.02315 0.42458 0.6502 0.0
C698 C 0.01899 0.42036 0.79299 0.0
C699 C 0.99229 0.41554 0.83222 0.0
N700 N 0.02095 0.42215 0.69525 0.0
N701 N 0.99394 0.41626 0.78681 0.0
H702 H 0.60053 0.57508 0.64295 0.0
H703 H 0.58457 0.59939 0.88221 0.0
H704 H 0.58476 0.60696 0.65912 0.0
H705 H 0.61041 0.57673 0.86571 0.0
H706 H 0.58453 0.60229 0.8007 0.0
H707 H 0.60429 0.57552 0.72421 0.0
C708 C 0.59799 0.58229 0.66348 0.0
C709 C 0.59228 0.59096 0.64402 0.0
C710 C 0.59033 0.5968 0.8149 0.0
C711 C 0.59638 0.59136 0.73739 0.0
C712 C 0.59035 0.59513 0.86151 0.0
C713 C 0.59746 0.58775 0.88099 0.0
C714 C 0.5973 0.59089 0.78729 0.0
C715 C 0.60478 0.5825 0.8523 0.0
C716 C 0.60014 0.58253 0.70994 0.0
C717 C 0.5892 0.60008 0.67249 0.0
N718 N 0.60438 0.58403 0.80698 0.0
N719 N 0.59114 0.59992 0.71766 0.0
H720 H 0.42999 0.03093 0.88462 0.0
H721 H 0.41707 0.97608 0.6762 0.0
H722 H 0.43244 0.98998 0.89394 0.0
H723 H 0.42483 0.0215 0.66087 0.0
H724 H 0.41885 0.97948 0.75749 0.0
H725 H 0.42434 0.0261 0.80439 0.0
C726 C 0.42918 0.02083 0.86998 0.0
C727 C 0.43178 0.01088 0.89615 0.0
C728 C 0.42008 0.98868 0.7364 0.0
C729 C 0.42531 1.00531 0.8042 0.0
C730 C 0.419 0.98673 0.68987 0.0
C731 C 0.42089 0.99856 0.66141 0.0
C732 C 0.42298 1.00253 0.75496 0.0
C733 C 0.42337 0.01209 0.68136 0.0
C734 C 0.42602 0.01813 0.82409 0.0
C735 C 0.43061 0.99801 0.87516 0.0
N736 N 0.42439 0.01372 0.72684 0.0
N737 N 0.42751 0.99563 0.83052 0.0
H738 H 0.59357 1.00111 0.39126 0.0
H739 H 0.59455 0.01439 0.12554 0.0
H740 H 0.60602 0.04424 0.33061 0.0
H741 H 0.5754 0.97028 0.18713 0.0
H742 H 0.60219 0.02596 0.19985 0.0
H743 H 0.59021 0.99012 0.31623 0.0
C744 C 0.59575 0.00831 0.36222 0.0
C745 C 0.59997 0.02361 0.36732 0.0
C746 C 0.59641 0.01375 0.19706 0.0
C747 C 0.59611 0.01108 0.28127 0.0
C748 C 0.59209 1.00714 0.15459 0.0
C749 C 0.58422 0.99132 0.15005 0.0
C750 C 0.59288 1.00451 0.23532 0.0
C751 C 0.58135 0.98251 0.18899 0.0
C752 C 0.59378 1.00201 0.31937 0.0
C753 C 0.60264 0.03238 0.32837 0.0
N754 N 0.58561 0.98921 0.22993 0.0
N755 N 0.6006 0.02598 0.28708 0.0
H756 H 0.03883 0.58933 0.41268 0.0
H757 H 0.0145 0.59489 0.16058 0.0
H758 H 0.99648 0.587 0.38049 0.0
H759 H 0.05731 0.59901 0.19757 0.0
H760 H 1.00805 0.59347 0.24056 0.0
H761 H 0.04621 0.59449 0.33403 0.0
C762 C 0.03111 0.59002 0.38914 0.0
C763 C 0.01697 0.58764 0.40335 0.0
C764 C 0.01889 0.59479 0.23109 0.0
C765 C 0.02532 0.59343 0.31254 0.0
C766 C 0.02259 0.59562 0.18542 0.0
C767 C 0.03644 0.59698 0.17219 0.0
C768 C 0.02911 0.59531 0.26374 0.0
C769 C 0.04646 0.59787 0.20597 0.0
C770 C 0.03533 0.59296 0.34407 0.0
C771 C 1.00749 0.58875 0.37112 0.0
N772 N 0.04257 0.59695 0.24994 0.0
N773 N 0.01178 0.59144 0.32719 0.0
H774 H 0.45359 0.42469 0.12235 0.0
H775 H 0.42343 0.42171 0.37322 0.0
H776 H 0.41408 0.42834 0.15109 0.0
H777 H 0.46413 0.42088 0.33936 0.0
H778 H 0.41823 0.42192 0.29261 0.0
H779 H 0.45587 0.42075 0.20193 0.0
C780 C 0.44528 0.42452 0.14533 0.0
C781 C 0.43367 0.42695 0.12982 0.0
C782 C 0.42825 0.42161 0.30296 0.0
C783 C 0.43633 0.42258 0.22181 0.0
C784 C 0.43121 0.42147 0.34895 0.0
C785 C 0.44429 0.42137 0.36322 0.0
C786 C 0.43841 0.42158 0.27106 0.0
C787 C 0.45396 0.42107 0.33018 0.0
C788 C 0.44662 0.42231 0.19097 0.0
C789 C 0.42322 0.42653 0.16145 0.0
N790 N 0.45085 0.42122 0.28592 0.0
N791 N 0.42487 0.42453 0.20596 0.0
H792 H 0.31607 0.19503 0.20414 0.0
H793 H 0.37646 0.16781 0.15895 0.0
H794 H 0.35444 0.21825 0.1155 0.0
H795 H 0.33516 0.14172 0.23399 0.0
H796 H 0.36957 0.18741 0.1472 0.0
H797 H 0.32357 0.17604 0.21885 0.0
C798 C 0.32601 0.1961 0.18759 0.0
C799 C 0.33459 0.20825 0.15844 0.0
C800 C 0.36205 0.17742 0.16641 0.0
C801 C 0.34336 0.18665 0.17552 0.0
C802 C 0.36604 0.16627 0.17335 0.0
C803 C 0.35636 0.15307 0.19736 0.0
C804 C 0.34832 0.17538 0.18377 0.0
C805 C 0.34295 0.15167 0.21506 0.0
C806 C 0.33032 0.18528 0.1961 0.0
C807 C 0.34743 0.20907 0.13813 0.0
N808 N 0.33932 0.16263 0.20783 0.0
N809 N 0.35143 0.19847 0.14713 0.0
H810 H 0.83258 0.12933 0.17473 0.0
H811 H 0.85894 0.21762 0.15129 0.0
H812 H 0.8024 0.14614 0.14216 0.0
H813 H 0.88965 0.20102 0.17843 0.0
H814 H 0.83804 0.19144 0.14811 0.0
H815 H 0.85372 0.15547 0.17577 0.0
C816 C 0.8304 0.13848 0.16754 0.0
C817 C 0.81567 0.1355 0.1584 0.0
C818 C 0.84936 0.19353 0.15476 0.0
C819 C 0.83978 0.16546 0.15985 0.0
C820 C 0.8613 0.20849 0.15667 0.0
C821 C 0.87609 0.21156 0.16515 0.0
C822 C 0.85221 0.18152 0.16146 0.0
C823 C 0.87845 0.19923 0.17178 0.0
C824 C 0.84247 0.15341 0.16825 0.0
C825 C 0.81354 0.14785 0.14946 0.0
N826 N 0.86666 0.1848 0.16981 0.0
N827 N 0.82542 0.16224 0.15054 0.0
H828 H 0.88253 0.6928 0.13213 0.0
H829 H 0.8076 0.66205 0.28246 0.0
H830 H 0.88226 0.69229 0.277 0.0
H831 H 0.80696 0.66213 0.1376 0.0
H832 H 0.83505 0.67349 0.28049 0.0
H833 H 0.85509 0.68255 0.13284 0.0
C834 C 0.87676 0.69073 0.16408 0.0
C835 C 0.88476 0.69339 0.20458 0.0
C836 C 0.82894 0.67099 0.24908 0.0
C837 C 0.85329 0.68146 0.20559 0.0
C838 C 0.81321 0.66439 0.25017 0.0
C839 C 0.8049 0.66108 0.21013 0.0
C840 C 0.83652 0.67438 0.20763 0.0
C841 C 0.81287 0.66444 0.16933 0.0
C842 C 0.86107 0.68478 0.16445 0.0
C843 C 0.87662 0.6904 0.24492 0.0
N844 N 0.82822 0.67092 0.16913 0.0
N845 N 0.86138 0.68454 0.24437 0.0
H846 H 0.12495 0.31815 0.35734 0.0
H847 H 0.21243 0.34189 0.35272 0.0
H848 H 0.161 0.36435 0.34188 0.0
H849 H 0.17607 0.29566 0.34182 0.0
H850 H 0.19386 0.35032 0.35405 0.0
H851 H 0.14357 0.30982 0.35674 0.0
C852 C 0.1368 0.32658 0.35387 0.0
C853 C 0.1414 0.34201 0.34966 0.0
C854 C 0.18993 0.33834 0.35137 0.0
C855 C 0.16286 0.33246 0.34908 0.0
C856 C 0.20053 0.33348 0.35077 0.0
C857 C 0.19582 0.318 0.34717 0.0
C858 C 0.17445 0.32767 0.34867 0.0
C859 C 0.18024 0.30768 0.34461 0.0
C860 C 0.14743 0.32178 0.35343 0.0
C861 C 0.15693 0.35235 0.34515 0.0
N862 N 0.17012 0.3127 0.3455 0.0
N863 N 0.1671 0.3474 0.34512 0.0
H864 H 0.66365 0.80494 0.45868 0.0
H865 H 0.69 0.88008 0.31235 0.0
H866 H 0.65875 0.80428 0.31469 0.0
H867 H 0.68731 0.87866 0.45698 0.0
H868 H 0.68023 0.85267 0.3118 0.0
H869 H 0.67348 0.8322 0.45807 0.0
C870 C 0.66452 0.8105 0.42691 0.0
C871 C 0.66033 0.80225 0.38668 0.0
C872 C 0.68184 0.85839 0.34362 0.0
C873 C 0.67182 0.83365 0.38567 0.0
C874 C 0.68752 0.87406 0.34398 0.0
C875 C 0.68947 0.88171 0.38478 0.0
C876 C 0.67819 0.85034 0.38436 0.0
C877 C 0.68595 0.87327 0.4247 0.0
C878 C 0.67019 0.82611 0.42658 0.0
C879 C 0.66177 0.81014 0.34655 0.0
N880 N 0.6805 0.8581 0.42347 0.0
N881 N 0.66747 0.8254 0.34703 0.0
H882 H 0.22105 0.85132 0.3383 0.0
H883 H 0.13276 0.8246 0.36436 0.0
H884 H 0.20447 0.88182 0.36873 0.0
H885 H 0.14962 0.79513 0.32376 0.0
H886 H 0.15893 0.84563 0.36863 0.0
H887 H 0.19489 0.83038 0.33566 0.0
C888 C 0.21193 0.85361 0.34454 0.0
C889 C 0.215 0.86837 0.35366 0.0
C890 C 0.15688 0.83455 0.35876 0.0
C891 C 0.18497 0.84445 0.35066 0.0
C892 C 0.14193 0.82255 0.35631 0.0
C893 C 0.13895 0.80807 0.34363 0.0
C894 C 0.16892 0.83204 0.3486 0.0
C895 C 0.15132 0.80608 0.33363 0.0
C896 C 0.19698 0.84166 0.34295 0.0
C897 C 0.20268 0.87065 0.36146 0.0
N898 N 0.1657 0.81789 0.33637 0.0
N899 N 0.18825 0.85885 0.35977 0.0
H900 H 0.69311 0.88533 0.87815 0.0
H901 H 0.66442 0.80013 0.80056 0.0
H902 H 0.64807 0.85532 0.82853 0.0
H903 H 0.70818 0.82881 0.86041 0.0
H904 H 0.6586 0.82047 0.80837 0.0
H905 H 0.69902 0.86504 0.87029 0.0
C906 C 0.68442 0.87445 0.86566 0.0
C907 C 0.67004 0.87206 0.85396 0.0
C908 C 0.66949 0.82235 0.81978 0.0
C909 C 0.67683 0.84871 0.8447 0.0
C910 C 0.67286 0.81073 0.81525 0.0
C911 C 0.68684 0.81273 0.82988 0.0
C912 C 0.68016 0.83616 0.83904 0.0
C913 C 0.69727 0.82675 0.84864 0.0
C914 C 0.68783 0.86286 0.86118 0.0
C915 C 0.65928 0.8577 0.83802 0.0
N916 N 0.69371 0.83791 0.85269 0.0
N917 N 0.66291 0.84659 0.83377 0.0
H918 H 0.18698 0.88362 0.8512 0.0
H919 H 0.16457 0.79611 0.84185 0.0
H920 H 0.21911 0.86836 0.83083 0.0
H921 H 0.13176 0.81096 0.85054 0.0
H922 H 0.18478 0.82262 0.83983 0.0
H923 H 0.16655 0.85712 0.85284 0.0
C924 C 0.18975 0.87473 0.847 0.0
C925 C 0.2048 0.87825 0.84087 0.0
C926 C 0.17315 0.82007 0.84215 0.0
C927 C 0.18152 0.84791 0.84288 0.0
C928 C 0.16161 0.80492 0.84336 0.0
C929 C 0.14643 0.80127 0.84634 0.0
C930 C 0.16952 0.83168 0.84408 0.0
C931 C 0.14329 0.81321 0.84817 0.0
C932 C 0.17809 0.8596 0.84795 0.0
C933 C 0.2077 0.86623 0.83563 0.0
N934 N 0.15471 0.82784 0.84706 0.0
N935 N 0.1962 0.85166 0.83685 0.0
H936 H 0.13346 0.31252 0.83384 0.0
H937 H 0.22107 0.37745 0.83448 0.0
H938 H 0.14851 0.36028 0.83033 0.0
H939 H 0.2056 0.32959 0.83188 0.0
H940 H 0.19461 0.37153 0.83343 0.0
H941 H 0.15992 0.31863 0.83376 0.0
C942 C 0.14231 0.32428 0.83303 0.0
C943 C 0.13872 0.33588 0.83209 0.0
C944 C 0.19703 0.36233 0.83303 0.0
C945 C 0.16909 0.343 0.83203 0.0
C946 C 0.21214 0.36572 0.83361 0.0
C947 C 0.2156 0.35402 0.83328 0.0
C948 C 0.1853 0.34714 0.8322 0.0
C949 C 0.20353 0.33901 0.83218 0.0
C950 C 0.15743 0.32778 0.83297 0.0
C951 C 0.1507 0.35094 0.83106 0.0
N952 N 0.18898 0.33602 0.83174 0.0
N953 N 0.16531 0.35406 0.83111 0.0
H954 H 0.8178 0.68648 0.64121 0.0
H955 H 0.86165 0.65333 0.78268 0.0
H956 H 0.81399 0.67999 0.7848 0.0
H957 H 0.86169 0.65459 0.63788 0.0
H958 H 0.8443 0.66326 0.78369 0.0
H959 H 0.83444 0.67558 0.63897 0.0
C960 C 0.82054 0.68288 0.6723 0.0
C961 C 0.81448 0.68419 0.71328 0.0
C962 C 0.84801 0.66129 0.75164 0.0
C963 C 0.83344 0.67158 0.71088 0.0
C964 C 0.8579 0.65555 0.75103 0.0
C965 C 0.86317 0.65311 0.71014 0.0
C966 C 0.84339 0.66476 0.71106 0.0
C967 C 0.85789 0.65624 0.67021 0.0
C968 C 0.82998 0.67657 0.67095 0.0
C969 C 0.81838 0.67923 0.75243 0.0
N970 N 0.84838 0.66199 0.67168 0.0
N971 N 0.82758 0.67316 0.75024 0.0
H972 H 0.37348 0.2213 0.66949 0.0
H973 H 0.30908 0.13366 0.68691 0.0
H974 H 0.32641 0.20623 0.69508 0.0
H975 H 0.35629 0.14913 0.66238 0.0
H976 H 0.31505 0.16013 0.68974 0.0
H977 H 0.36736 0.19483 0.66736 0.0
C978 C 0.36188 0.21245 0.67488 0.0
C979 C 0.35046 0.21603 0.68245 0.0
C980 C 0.32409 0.1577 0.68368 0.0
C981 C 0.34332 0.18566 0.67978 0.0
C982 C 0.32067 0.14259 0.68195 0.0
C983 C 0.33218 0.13913 0.67443 0.0
C984 C 0.33913 0.16944 0.67782 0.0
C985 C 0.34702 0.1512 0.66834 0.0
C986 C 0.35837 0.19732 0.67354 0.0
C987 C 0.3356 0.20405 0.68908 0.0
N988 N 0.35005 0.16575 0.67021 0.0
N989 N 0.33247 0.18944 0.68751 0.0
H990 H 0.81449 0.13546 0.74258 0.0
H991 H 0.87107 0.21635 0.63517 0.0
H992 H 0.79999 0.15956 0.65516 0.0
H993 H 0.88621 0.18967 0.70754 0.0
H994 H 0.84497 0.19614 0.64477 0.0
H995 H 0.84064 0.15573 0.73345 0.0
C996 C 0.81677 0.14505 0.72163 0.0
C997 C 0.80497 0.14578 0.69958 0.0
C998 C 0.85397 0.19466 0.65848 0.0
C999 C 0.83502 0.16907 0.68886 0.0
C1000 C 0.86892 0.20621 0.65303 0.0
C1001 C 0.8809 0.20473 0.67062 0.0
C1002 C 0.85087 0.18148 0.68195 0.0
C1003 C 0.87736 0.19129 0.69334 0.0
C1004 C 0.83175 0.15661 0.71631 0.0
C1005 C 0.80869 0.15851 0.67283 0.0
N1006 N 0.86266 0.18021 0.6985 0.0
N1007 N 0.82338 0.16963 0.66822 0.0
H1008 H 0.03817 0.49032 0.59742 0.0
H1009 H 0.98983 0.52439 0.48676 0.0
H1010 H 0.01768 0.47684 0.46646 0.0
H1011 H 0.02005 0.54443 0.59915 0.0
H1012 H 0.99733 0.50492 0.48266 0.0
H1013 H 0.0293 0.5085 0.60205 0.0
C1014 C 0.03185 0.49121 0.56953 0.0
C1015 C 0.02875 0.48207 0.5314 0.0
C1016 C 1.00225 0.51357 0.50827 0.0
C1017 C 0.01836 0.50283 0.53671 0.0
C1018 C 0.9979 0.5246 0.51081 0.0
C1019 C 1.00436 0.53609 0.54323 0.0
C1020 C 0.01298 0.51395 0.53872 0.0
C1021 C 0.01483 0.53587 0.5734 0.0
C1022 C 0.02676 0.5016 0.57221 0.0
C1023 C 0.02043 0.48373 0.49638 0.0
N1024 N 0.01879 0.52502 0.57041 0.0
N1025 N 0.01548 0.49386 0.49993 0.0
H1026 H 0.48815 0.4713 0.47564 0.0
H1027 H 0.53246 0.54685 0.62292 0.0
H1028 H 0.48405 0.47267 0.61951 0.0
H1029 H 0.53388 0.5467 0.47814 0.0
H1030 H 0.51494 0.51961 0.622 0.0
H1031 H 0.50554 0.4987 0.47566 0.0
C1032 C 0.49099 0.47732 0.50727 0.0
C1033 C 0.4846 0.46963 0.54764 0.0
C1034 C 0.51901 0.52552 0.59038 0.0
C1035 C 0.50442 0.50105 0.54784 0.0
C1036 C 0.529 0.54112 0.59086 0.0
C1037 C 0.53469 0.54913 0.55054 0.0
C1038 C 0.51467 0.51776 0.54927 0.0
C1039 C 0.52977 0.54103 0.51007 0.0
C1040 C 0.50086 0.49299 0.50722 0.0
C1041 C 0.48866 0.47808 0.58755 0.0
N1042 N 0.52012 0.5258 0.51048 0.0
N1043 N 0.49827 0.49329 0.5866 0.0
H1044 H 0.54793 0.01931 0.47279 0.0
H1045 H 0.47691 0.00815 0.61691 0.0
H1046 H 0.5498 0.02866 0.61459 0.0
H1047 H 0.47207 0.98838 0.48569 0.0
H1048 H 0.50399 0.01735 0.61414 0.0
H1049 H 0.52061 0.00992 0.47402 0.0
C1050 C 0.54264 0.01953 0.50408 0.0
C1051 C 0.5512 0.0248 0.54368 0.0
C1052 C 0.49703 0.01094 0.58597 0.0
C1053 C 0.51995 0.014 0.54529 0.0
C1054 C 0.48153 1.00567 0.58751 0.0
C1055 C 0.47217 0.99745 0.55147 0.0
C1056 C 0.50337 0.00817 0.54788 0.0
C1057 C 0.47885 0.99459 0.51433 0.0
C1058 C 0.52703 0.01407 0.50479 0.0
C1059 C 0.5437 0.0247 0.58327 0.0
N1060 N 0.49407 1.00003 0.51335 0.0
N1061 N 0.52855 0.01942 0.58303 0.0
H1062 H 0.49031 0.02864 0.9908 0.0
H1063 H 0.5228 0.98082 0.11319 0.0
H1064 H 0.4706 1.00174 0.10986 0.0
H1065 H 0.53435 0.99662 0.97664 0.0
H1066 H 0.50518 0.99044 0.11502 0.0
H1067 H 0.50843 0.01939 0.98795 0.0
C1068 C 0.48989 0.02092 0.01654 0.0
C1069 C 0.47891 0.01594 0.05058 0.0
C1070 C 0.5115 0.99175 0.08454 0.0
C1071 C 0.49951 1.00532 0.04747 0.0
C1072 C 0.52157 0.98623 0.08345 0.0
C1073 C 0.53005 0.98785 0.04466 0.0
C1074 C 0.50999 0.99914 0.04675 0.0
C1075 C 0.52797 0.99502 1.00718 0.0
C1076 C 0.50014 0.01557 0.0147 0.0
C1077 C 0.47881 1.00584 0.08287 0.0
N1078 N 0.51823 1.00049 1.00924 0.0
N1079 N 0.48893 1.00091 0.08056 0.0
H1080 H 0.03766 0.54856 0.91703 0.0
H1081 H 0.99289 0.46798 0.03929 0.0
H1082 H 0.02415 0.54373 0.05608 0.0
H1083 H 0.01769 0.4756 0.91559 0.0
H1084 H 1.00196 0.49525 0.04359 0.0
H1085 H 0.02847 0.52141 0.91381 0.0
C1086 C 0.03284 0.54181 0.94699 0.0
C1087 C 0.03172 0.54847 0.98691 0.0
C1088 C 1.00538 0.49091 0.01551 0.0
C1089 C 0.02094 0.51725 0.98327 0.0
C1090 C 1.00012 0.47534 0.01288 0.0
C1091 C 1.00455 0.46949 0.97705 0.0
C1092 C 0.01496 0.50063 0.98179 0.0
C1093 C 0.01403 0.47959 0.94392 0.0
C1094 C 0.02757 0.52629 0.94512 0.0
C1095 C 0.02532 0.53911 0.02465 0.0
N1096 N 0.01887 0.49461 0.94705 0.0
N1097 N 0.02008 0.52396 0.02183 0.0
H1098 H 0.48423 0.46659 0.97025 0.0
H1099 H 0.54026 0.55202 0.04578 0.0
H1100 H 0.46868 0.49476 0.03115 0.0
H1101 H 0.55531 0.52197 0.9964 0.0
H1102 H 0.51407 0.53153 0.03969 0.0
H1103 H 0.51021 0.48704 0.97812 0.0
C1104 C 0.48625 0.47711 0.98525 0.0
C1105 C 0.47418 0.47893 1.00004 0.0
C1106 C 0.52309 0.52939 0.03029 0.0
C1107 C 0.50415 0.50253 1.00923 0.0
C1108 C 0.53808 0.5411 0.03373 0.0
C1109 C 0.55005 0.53874 0.0215 0.0
C1110 C 0.51998 0.51519 0.01431 0.0
C1111 C 0.54648 0.52432 1.00622 0.0
C1112 C 0.50116 0.48879 0.98982 0.0
C1113 C 0.47761 0.49284 0.01925 0.0
N1114 N 0.53178 0.51313 1.00294 0.0
N1115 N 0.49228 0.50413 0.02325 0.0
H1116 H 0.42892 0.0728 0.96852 0.0
H1117 H 0.41712 0.11323 0.18288 0.0
H1118 H 0.45051 0.07551 0.09547 0.0
H1119 H 0.38591 0.0938 0.07259 0.0
H1120 H 0.43408 0.10578 0.14559 0.0
H1121 H 0.4183 0.0875 1.00017 0.0
C1122 C 0.43167 0.07671 1.00286 0.0
C1123 C 0.44043 0.07267 0.02954 0.0
C1124 C 0.4236 0.10337 0.12945 0.0
C1125 C 0.42812 0.08945 0.06624 0.0
C1126 C 0.414 0.10766 0.15054 0.0
C1127 C 0.40008 0.10397 0.13086 0.0
C1128 C 0.41932 0.09569 0.08811 0.0
C1129 C 0.39647 0.09669 0.08911 0.0
C1130 C 0.42553 0.08506 0.02098 0.0
C1131 C 0.44372 0.07825 0.07374 0.0
N1132 N 0.40599 0.09279 0.06921 0.0
N1133 N 0.43738 0.08619 0.09096 0.0
H1134 H 0.90133 0.29576 0.08395 0.0
H1135 H 0.94033 0.3622 0.96164 0.0
H1136 H 0.93214 0.322 0.1899 0.0
H1137 H 0.95208 0.38531 0.08908 0.0
H1138 H 0.92602 0.33816 1.00093 0.0
H1139 H 0.90813 0.31919 0.04365 0.0
C1140 C 0.90942 0.30645 0.09898 0.0
C1141 C 0.91636 0.30687 0.1401 0.0
C1142 C 0.93129 0.34847 0.02044 0.0
C1143 C 0.92458 0.33379 0.09338 0.0
C1144 C 0.93959 0.36225 0.9979 0.0
C1145 C 0.94748 0.37582 0.02202 0.0
C1146 C 0.93097 0.3482 0.06764 0.0
C1147 C 0.94616 0.37516 0.06903 0.0
C1148 C 0.91346 0.31985 0.07561 0.0
C1149 C 0.92665 0.32109 0.15803 0.0
N1150 N 0.93831 0.36156 0.09028 0.0
N1151 N 0.93053 0.33395 0.13443 0.0
H1152 H 0.7239 0.60992 0.09203 0.0
H1153 H 0.63341 0.56551 0.10404 0.0
H1154 H 0.69849 0.60394 0.21356 0.0
H1155 H 0.6589 0.58313 0.98155 0.0
H1156 H 0.6571 0.5736 0.14457 0.0
H1157 H 0.70014 0.59419 0.05196 0.0
C1158 C 0.71336 0.60501 0.11057 0.0
C1159 C 0.71319 0.6084 0.15618 0.0
C1160 C 0.65747 0.57548 0.10869 0.0
C1161 C 0.68595 0.59046 0.11037 0.0
C1162 C 0.64394 0.57078 0.08543 0.0
C1163 C 0.64416 0.57381 0.03933 0.0
C1164 C 0.67133 0.58315 0.0857 0.0
C1165 C 0.65819 0.58071 0.01713 0.0
C1166 C 0.69979 0.59612 0.08757 0.0
C1167 C 0.69916 0.60176 0.17833 0.0
N1168 N 0.6712 0.58526 0.04056 0.0
N1169 N 0.68611 0.59323 0.15515 0.0
H1170 H 0.07918 0.42848 0.53556 0.0
H1171 H 0.10196 0.4109 0.29964 0.0
H1172 H 0.07428 0.44789 0.41234 0.0
H1173 H 0.11825 0.40276 0.42432 0.0
H1174 H 0.09368 0.42635 0.34001 0.0
H1175 H 0.09535 0.42085 0.49628 0.0
C1176 C 0.08174 0.43139 0.50043 0.0
C1177 C 0.07524 0.43871 0.47717 0.0
C1178 C 0.09932 0.42143 0.35845 0.0
C1179 C 0.09353 0.42975 0.43168 0.0
C1180 C 0.10407 0.41261 0.33538 0.0
C1181 C 0.1107 0.40541 0.35863 0.0
C1182 C 0.10094 0.42285 0.40532 0.0
C1183 C 0.11317 0.40807 0.40497 0.0
C1184 C 0.09097 0.42702 0.47798 0.0
C1185 C 0.079 0.44223 0.43166 0.0
N1186 N 0.10804 0.41633 0.4269 0.0
N1187 N 0.08766 0.43748 0.41025 0.0
H1188 H 0.61467 0.69796 0.28972 0.0
H1189 H 0.57561 0.645 0.50413 0.0
H1190 H 0.61045 0.71606 0.41631 0.0
H1191 H 0.5959 0.63434 0.3936 0.0
H1192 H 0.58196 0.66911 0.46658 0.0
H1193 H 0.60086 0.67255 0.32126 0.0
C1194 C 0.61062 0.6966 0.32397 0.0
C1195 C 0.61397 0.70923 0.35058 0.0
C1196 C 0.58478 0.66134 0.4504 0.0
C1197 C 0.5982 0.68002 0.38716 0.0
C1198 C 0.58109 0.6476 0.47162 0.0
C1199 C 0.58535 0.6378 0.45194 0.0
C1200 C 0.59246 0.66501 0.40899 0.0
C1201 C 0.59255 0.64168 0.41003 0.0
C1202 C 0.60277 0.68205 0.34203 0.0
C1203 C 0.60824 0.70666 0.39465 0.0
N1204 N 0.59588 0.65495 0.39006 0.0
N1205 N 0.6008 0.69234 0.41182 0.0
H1206 H 0.29948 0.89796 0.43163 0.0
H1207 H 0.39004 0.94635 0.43134 0.0
H1208 H 0.32582 0.92433 0.31831 0.0
H1209 H 0.36301 0.93581 0.55154 0.0
H1210 H 0.36682 0.93214 0.38731 0.0
H1211 H 0.32299 0.90566 0.47302 0.0
C1212 C 0.3102 0.90507 0.41504 0.0
C1213 C 0.31068 0.9106 0.3715 0.0
C1214 C 0.36602 0.93273 0.42341 0.0
C1215 C 0.33759 0.91943 0.41873 0.0
C1216 C 0.37926 0.94074 0.44865 0.0
C1217 C 0.37846 0.94235 0.49523 0.0
C1218 C 0.35188 0.92611 0.44494 0.0
C1219 C 0.36415 0.93494 0.5157 0.0
C1220 C 0.3236 0.90955 0.43883 0.0
C1221 C 0.32492 0.9199 0.3519 0.0
N1222 N 0.35142 0.92721 0.49043 0.0
N1223 N 0.33779 0.92408 0.3757 0.0
H1224 H 0.56581 0.94198 0.93044 0.0
H1225 H 0.61508 0.90079 0.94112 0.0
H1226 H 0.59287 0.94417 0.04448 0.0
H1227 H 0.60467 0.91572 0.81742 0.0
H1228 H 0.60027 0.90973 0.98216 0.0
H1229 H 0.57342 0.9255 0.89224 0.0
C1230 C 0.57301 0.93866 0.94793 0.0
C1231 C 0.57879 0.94451 0.99062 0.0
C1232 C 0.60103 0.9108 0.94594 0.0
C1233 C 0.5875 0.92572 0.94717 0.0
C1234 C 0.6094 0.90562 0.9224 0.0
C1235 C 0.61129 0.90767 0.87572 0.0
C1236 C 0.5943 0.91789 0.92265 0.0
C1237 C 0.60366 0.91405 0.85342 0.0
C1238 C 0.57744 0.92937 0.92597 0.0
C1239 C 0.58823 0.93999 1.01148 0.0
N1240 N 0.59559 0.91903 0.8771 0.0
N1241 N 0.59235 0.93093 0.9895 0.0
H1242 H 0.11945 0.71829 0.94014 0.0
H1243 H 0.07581 0.62768 0.93746 0.0
H1244 H 0.1003 0.69145 0.82086 0.0
H1245 H 0.0814 0.65416 0.05621 0.0
H1246 H 0.09084 0.65112 0.89506 0.0
H1247 H 0.11162 0.69502 0.98299 0.0
C1248 C 0.11391 0.70754 0.9227 0.0
C1249 C 0.11039 0.70682 0.87685 0.0
C1250 C 0.08897 0.65178 0.93056 0.0
C1251 C 0.10139 0.68016 0.92583 0.0
C1252 C 0.08047 0.6384 0.95491 0.0
C1253 C 0.07719 0.63894 1.00044 0.0
C1254 C 0.09438 0.66581 0.95195 0.0
C1255 C 0.08351 0.65319 0.02111 0.0
C1256 C 0.10936 0.69426 0.94729 0.0
C1257 C 0.10312 0.69254 0.8562 0.0
N1258 N 0.0917 0.66605 0.99666 0.0
N1259 N 0.09877 0.67978 0.88087 0.0
H1260 H 0.38197 0.42703 0.89298 0.0
H1261 H 0.30172 0.41278 0.96799 0.0
H1262 H 0.37573 0.444 0.01876 0.0
H1263 H 0.31295 0.40835 0.83126 0.0
H1264 H 0.32872 0.426 0.98667 0.0
H1265 H 0.35703 0.42184 0.8689 0.0
C1266 C 0.37537 0.42987 0.91529 0.0
C1267 C 0.38085 0.4359 0.95792 0.0
C1268 C 0.32527 0.42238 0.95241 0.0
C1269 C 0.352 0.42962 0.93104 0.0
C1270 C 0.30985 0.41483 0.94166 0.0
C1271 C 0.30499 0.40922 0.89807 0.0
C1272 C 0.3359 0.4242 0.91946 0.0
C1273 C 0.31608 0.41229 0.86541 0.0
C1274 C 0.36111 0.42691 0.90152 0.0
C1275 C 0.37189 0.4394 0.98553 0.0
N1276 N 0.33095 0.41935 0.87694 0.0
N1277 N 0.35773 0.43594 0.97193 0.0
H1278 H 0.89711 0.60114 0.55501 0.0
H1279 H 0.96739 0.59381 0.62965 0.0
H1280 H 0.91627 0.61206 0.68814 0.0
H1281 H 0.94078 0.57005 0.51396 0.0
H1282 H 0.94779 0.59938 0.65255 0.0
H1283 H 0.91154 0.58831 0.54017 0.0
C1284 C 0.90412 0.60061 0.58144 0.0
C1285 C 0.90561 0.6079 0.62273 0.0
C1286 C 0.94606 0.59278 0.62244 0.0
C1287 C 0.92231 0.59339 0.60563 0.0
C1288 C 0.95729 0.58963 0.60926 0.0
C1289 C 0.95573 0.58156 0.56969 0.0
C1290 C 0.93324 0.58814 0.59534 0.0
C1291 C 0.94237 0.5763 0.54473 0.0
C1292 C 0.91236 0.59328 0.57288 0.0
C1293 C 0.91483 0.60675 0.65569 0.0
N1294 N 0.93172 0.57993 0.55754 0.0
N1295 N 0.92299 0.59988 0.64617 0.0
H1296 H 0.4387 0.36628 0.45571 0.0
H1297 H 0.40826 0.31377 0.67115 0.0
H1298 H 0.44684 0.38442 0.59 0.0
H1299 H 0.41125 0.29735 0.54027 0.0
H1300 H 0.42376 0.33977 0.64375 0.0
H1301 H 0.43005 0.3411 0.48687 0.0
C1302 C 0.4389 0.365 0.49177 0.0
C1303 C 0.44343 0.37747 0.52025 0.0
C1304 C 0.42121 0.33047 0.62126 0.0
C1305 C 0.43322 0.34856 0.55637 0.0
C1306 C 0.41237 0.3156 0.63691 0.0
C1307 C 0.40827 0.30331 0.60788 0.0
C1308 C 0.42585 0.33307 0.57613 0.0
C1309 C 0.41398 0.30643 0.56385 0.0
C1310 C 0.43395 0.3506 0.50959 0.0
C1311 C 0.44347 0.37513 0.56675 0.0
N1312 N 0.42227 0.32095 0.5492 0.0
N1313 N 0.4382 0.36092 0.5834 0.0
H1314 H 0.63197 0.07058 0.59219 0.0
H1315 H 0.72245 0.11261 0.58637 0.0
H1316 H 0.6577 0.07229 0.47517 0.0
H1317 H 0.69613 0.09544 0.70766 0.0
H1318 H 0.69904 0.10423 0.544 0.0
H1319 H 0.65568 0.08606 0.63283 0.0
C1320 C 0.64259 0.07449 0.57468 0.0
C1321 C 0.64284 0.06998 0.53029 0.0
C1322 C 0.69842 0.10252 0.58 0.0
C1323 C 0.66999 0.0877 0.5767 0.0
C1324 C 0.71179 0.10737 0.6043 0.0
C1325 C 0.71125 0.10458 0.65065 0.0
C1326 C 0.68442 0.09498 0.60222 0.0
C1327 C 0.69707 0.0977 0.67194 0.0
C1328 C 0.65611 0.08324 0.59804 0.0
C1329 C 0.65697 0.07537 0.50946 0.0
N1330 N 0.68422 0.09305 0.64754 0.0
N1331 N 0.66997 0.08385 0.53291 0.0
H1332 H 0.74428 0.76066 0.88342 0.0
H1333 H 0.77017 0.74597 0.64771 0.0
H1334 H 0.74272 0.783 0.76213 0.0
H1335 H 0.78273 0.73401 0.77303 0.0
H1336 H 0.76179 0.76115 0.68907 0.0
H1337 H 0.76 0.75238 0.84464 0.0
C1338 C 0.74746 0.76405 0.84884 0.0
C1339 C 0.74206 0.77245 0.82595 0.0
C1340 C 0.76661 0.75542 0.7075 0.0
C1341 C 0.75986 0.76274 0.78098 0.0
C1342 C 0.77142 0.74674 0.68387 0.0
C1343 C 0.77705 0.73857 0.70689 0.0
C1344 C 0.76719 0.75575 0.75463 0.0
C1345 C 0.77843 0.74006 0.75381 0.0
C1346 C 0.75645 0.75931 0.82668 0.0
C1347 C 0.7466 0.77654 0.78116 0.0
N1348 N 0.7733 0.74825 0.77615 0.0
N1349 N 0.75501 0.77143 0.75994 0.0
H1350 H 0.26422 0.9863 0.89997 0.0
H1351 H 0.27055 0.03941 0.69287 0.0
H1352 H 0.23689 0.96785 0.78113 0.0
H1353 H 0.30596 0.04893 0.78837 0.0
H1354 H 0.25428 0.01511 0.73185 0.0
H1355 H 0.27525 0.01151 0.86733 0.0
C1356 C 0.26034 0.98756 0.86725 0.0
C1357 C 0.24977 0.97487 0.84303 0.0
C1358 C 0.26557 0.02265 0.7443 0.0
C1359 C 0.26254 1.00385 0.80511 0.0
C1360 C 0.2748 0.03647 0.72225 0.0
C1361 C 0.28965 0.04606 0.73719 0.0
C1362 C 0.27119 0.01871 0.78202 0.0
C1363 C 0.29466 0.04177 0.77533 0.0
C1364 C 0.26671 1.00198 0.84853 0.0
C1365 C 0.24508 0.9773 0.8009 0.0
N1366 N 0.28548 0.02848 0.79634 0.0
N1367 N 0.25165 0.99151 0.78295 0.0
H1368 H 0.05576 0.27671 0.74882 0.0
H1369 H 0.9888 0.24894 0.62756 0.0
H1370 H 0.02855 0.27604 0.86062 0.0
H1371 H 0.96614 0.23684 0.75588 0.0
H1372 H 0.01296 0.25837 0.6658 0.0
H1373 H 0.03268 0.2611 0.70607 0.0
C1374 C 0.04493 0.27316 0.76457 0.0
C1375 C 0.04413 0.27791 0.80823 0.0
C1376 C 1.00274 0.25328 0.68572 0.0
C1377 C 0.01755 0.26041 0.75879 0.0
C1378 C 0.98886 0.24793 0.66375 0.0
C1379 C 0.97537 0.24215 0.68844 0.0
C1380 C 1.00315 0.25285 0.73291 0.0
C1381 C 0.97622 0.24124 0.73533 0.0
C1382 C 0.0317 0.2644 0.73982 0.0
C1383 C 0.02975 0.27284 0.8269 0.0
N1384 N 0.98985 0.24672 0.75597 0.0
N1385 N 0.01708 0.2645 0.802 0.0
H1386 H 0.2747 0.24396 0.16497 0.0
H1387 H 0.24703 0.27847 0.35884 0.0
H1388 H 0.28364 0.24205 0.30572 0.0
H1389 H 0.23532 0.27747 0.21917 0.0
H1390 H 0.25782 0.26239 0.34123 0.0
H1391 H 0.2577 0.25346 0.18499 0.0
C1392 C 0.27293 0.24531 0.20011 0.0
C1393 C 0.28077 0.24235 0.23364 0.0
C1394 C 0.25271 0.26552 0.31452 0.0
C1395 C 0.26142 0.25341 0.25685 0.0
C1396 C 0.24649 0.27468 0.32461 0.0
C1397 C 0.2404 0.2795 0.29038 0.0
C1398 C 0.25294 0.26122 0.26982 0.0
C1399 C 0.24001 0.27416 0.24665 0.0
C1400 C 0.26323 0.25078 0.21155 0.0
C1401 C 0.27796 0.24429 0.27864 0.0
N1402 N 0.24636 0.26549 0.23755 0.0
N1403 N 0.26868 0.24986 0.28886 0.0
H1404 H 0.73929 0.98767 0.39563 0.0
H1405 H 0.77205 0.03749 0.17875 0.0
H1406 H 0.73858 0.96713 0.26864 0.0
H1407 H 0.78874 0.05475 0.31135 0.0
H1408 H 0.75985 0.01166 0.20916 0.0
H1409 H 0.75746 0.01241 0.36472 0.0
C1410 C 0.74319 0.98837 0.36141 0.0
C1411 C 0.73748 0.97537 0.33469 0.0
C1412 C 0.76642 0.02112 0.23134 0.0
C1413 C 0.75795 1.00372 0.29856 0.0
C1414 C 0.77338 0.03587 0.21403 0.0
C1415 C 0.78132 0.04836 0.24257 0.0
C1416 C 0.76719 0.01888 0.2776 0.0
C1417 C 0.78267 0.04553 0.28803 0.0
C1418 C 0.75356 1.00249 0.34376 0.0
C1419 C 0.74283 0.97689 0.29046 0.0
N1420 N 0.77547 0.03114 0.30421 0.0
N1421 N 0.75256 0.99087 0.27344 0.0
H1422 H 0.04635 0.75057 0.23816 0.0
H1423 H 0.96665 0.74112 0.29691 0.0
H1424 H 0.04056 0.77272 0.35329 0.0
H1425 H 0.97869 0.73332 0.16474 0.0
H1426 H 0.99343 0.75371 0.31821 0.0
H1427 H 0.02161 0.74493 0.2106 0.0
C1428 C 0.03987 0.75438 0.25745 0.0
C1429 C 0.04544 0.76204 0.29816 0.0
C1430 C 0.99021 0.74948 0.28433 0.0
C1431 C 0.01686 0.75537 0.26716 0.0
C1432 C 0.97492 0.74229 0.27208 0.0
C1433 C 0.97034 0.73596 0.22907 0.0
C1434 C 1.00097 0.75018 0.25353 0.0
C1435 C 0.9816 0.73787 0.19838 0.0
C1436 C 0.02575 0.7512 0.24162 0.0
C1437 C 0.03665 0.76681 0.32167 0.0
N1438 N 0.99632 0.74459 0.21141 0.0
N1439 N 0.02262 0.76316 0.30622 0.0
H1440 H 0.33562 0.09669 0.06696 0.0
H1441 H 0.35238 0.1049 0.80234 0.0
H1442 H 0.38013 0.12386 1.00967 0.0
H1443 H 0.3076 0.08557 0.85932 0.0
H1444 H 0.36287 0.10909 0.87839 0.0
H1445 H 0.32521 0.08963 0.99101 0.0
C1446 C 0.3432 0.1011 0.03846 0.0
C1447 C 0.35873 0.11098 0.04462 0.0
C1448 C 0.35074 0.10388 0.87416 0.0
C1449 C 0.34695 0.10295 0.95785 0.0
C1450 C 0.34476 0.10146 0.8308 0.0
C1451 C 0.32912 0.09501 0.82452 0.0
C1452 C 0.34099 0.09971 0.9114 0.0
C1453 C 0.31975 0.09073 0.86259 0.0
C1454 C 0.33726 0.0971 0.99515 0.0
C1455 C 0.36805 0.11634 1.0065 0.0
N1456 N 0.32583 0.09318 0.90437 0.0
N1457 N 0.36202 0.11228 0.96478 0.0
H1458 H 0.91467 0.24527 0.02682 0.0
H1459 H 0.96172 0.28116 0.80358 0.0
H1460 H 0.95013 0.29207 0.02248 0.0
H1461 H 0.91497 0.24557 0.80346 0.0
H1462 H 0.95991 0.28422 0.88473 0.0
H1463 H 0.91738 0.24353 0.94595 0.0
C1464 C 0.92319 0.25513 1.00903 0.0
C1465 C 0.93217 0.26886 0.03152 0.0
C1466 C 0.95004 0.27586 0.8667 0.0
C1467 C 0.93525 0.26691 0.93877 0.0
C1468 C 0.95104 0.27414 0.82045 0.0
C1469 C 0.93847 0.26311 0.79663 0.0
C1470 C 0.93651 0.26625 0.88936 0.0
C1471 C 0.92493 0.25427 0.82029 0.0
C1472 C 0.92462 0.25415 0.96277 0.0
C1473 C 0.94295 0.28127 1.00647 0.0
N1474 N 0.92437 0.2559 0.86538 0.0
N1475 N 0.94422 0.28001 0.96139 0.0
H1476 H 0.75307 0.67728 0.05297 0.0
H1477 H 0.76009 0.6618 0.79258 0.0
H1478 H 0.75925 0.64099 1.00323 0.0
H1479 H 0.7525 0.6976 0.83849 0.0
H1480 H 0.75775 0.65292 0.86984 0.0
H1481 H 0.75129 0.6842 0.97502 0.0
C1482 C 0.75403 0.67077 0.02579 0.0
C1483 C 0.75642 0.65861 0.03475 0.0
C1484 C 0.75644 0.66264 0.86303 0.0
C1485 C 0.75433 0.66638 0.9457 0.0
C1486 C 0.7577 0.66767 0.81877 0.0
C1487 C 0.75659 0.68053 0.80892 0.0
C1488 C 0.75415 0.67056 0.89791 0.0
C1489 C 0.7535 0.68766 0.84445 0.0
C1490 C 0.75298 0.67469 0.98132 0.0
C1491 C 0.7575 0.65052 0.99815 0.0
N1492 N 0.75254 0.68268 0.88738 0.0
N1493 N 0.7565 0.65457 0.95545 0.0
H1494 H 0.06037 0.31764 0.68046 0.0
H1495 H 0.1253 0.37342 0.51143 0.0
H1496 H 0.10513 0.35195 0.72138 0.0
H1497 H 0.08195 0.33743 0.46625 0.0
H1498 H 0.11696 0.36698 0.58862 0.0
H1499 H 0.06683 0.32628 0.6028 0.0
C1500 C 0.07148 0.32715 0.67331 0.0
C1501 C 0.08227 0.334 0.70762 0.0
C1502 C 0.10921 0.36048 0.56199 0.0
C1503 C 0.08975 0.34384 0.61852 0.0
C1504 C 0.11398 0.36412 0.51767 0.0
C1505 C 0.10435 0.35588 0.48208 0.0
C1506 C 0.09467 0.34844 0.57129 0.0
C1507 C 0.08978 0.34404 0.49259 0.0
C1508 C 0.07517 0.33201 0.62884 0.0
C1509 C 0.09647 0.34626 0.69616 0.0
N1510 N 0.0854 0.34062 0.53631 0.0
N1511 N 0.09982 0.35069 0.65261 0.0
H1512 H 0.71359 0.78948 0.66667 0.0
H1513 H 0.64858 0.72926 0.50619 0.0
H1514 H 0.67319 0.75046 0.71651 0.0
H1515 H 0.68655 0.77108 0.45927 0.0
H1516 H 0.65874 0.73531 0.58225 0.0
H1517 H 0.70502 0.78146 0.59022 0.0
C1518 C 0.70289 0.77918 0.66162 0.0
C1519 C 0.69405 0.77068 0.69829 0.0
C1520 C 0.66492 0.7431 0.5553 0.0
C1521 C 0.68415 0.7614 0.61011 0.0
C1522 C 0.65917 0.73964 0.51169 0.0
C1523 C 0.66668 0.74972 0.47611 0.0
C1524 C 0.67832 0.75674 0.56361 0.0
C1525 C 0.68036 0.76297 0.48552 0.0
C1526 C 0.69801 0.77461 0.61776 0.0
C1527 C 0.68035 0.75739 0.68934 0.0
N1528 N 0.68568 0.76613 0.52836 0.0
N1529 N 0.67579 0.75318 0.64613 0.0
H1530 H 0.26258 0.91766 0.73163 0.0
H1531 H 0.25528 0.92722 0.46665 0.0
H1532 H 0.23959 0.93958 0.67447 0.0
H1533 H 0.27339 0.90071 0.52409 0.0
H1534 H 0.25236 0.93468 0.54261 0.0
H1535 H 0.26962 0.91417 0.65573 0.0
C1536 C 0.25915 0.92187 0.70321 0.0
C1537 C 0.25037 0.92879 0.70942 0.0
C1538 C 0.25706 0.92731 0.5385 0.0
C1539 C 0.25832 0.92481 0.62253 0.0
C1540 C 0.25876 0.92309 0.49514 0.0
C1541 C 0.26444 0.91321 0.489 0.0
C1542 C 0.26113 0.92166 0.57589 0.0
C1543 C 0.2688 0.90821 0.52718 0.0
C1544 C 0.26312 0.91984 0.65987 0.0
C1545 C 0.24624 0.93404 0.67131 0.0
N1546 N 0.26699 0.91242 0.56889 0.0
N1547 N 0.25017 0.93187 0.62958 0.0
H1548 H 0.67094 0.93034 0.22625 0.0
H1549 H 0.6866 0.92219 0.96685 0.0
H1550 H 0.70885 0.92664 0.17794 0.0
H1551 H 0.65047 0.92948 1.01143 0.0
H1552 H 0.69553 0.92506 0.0442 0.0
H1553 H 0.66352 0.93086 0.14807 0.0
C1554 C 0.6777 0.92965 0.19932 0.0
C1555 C 0.69049 0.92836 0.20877 0.0
C1556 C 0.68572 0.92617 0.03706 0.0
C1557 C 0.68213 0.929 0.11941 0.0
C1558 C 0.68065 0.92459 0.99279 0.0
C1559 C 0.66772 0.92552 0.98254 0.0
C1560 C 0.67775 0.92859 0.07157 0.0
C1561 C 0.66048 0.92864 0.0177 0.0
C1562 C 0.67349 0.92999 0.15471 0.0
C1563 C 0.69887 0.92758 0.17246 0.0
N1564 N 0.66551 0.92992 0.06065 0.0
N1565 N 0.69452 0.92786 0.12959 0.0
H1566 H 0.08945 0.74466 0.22381 0.0
H1567 H 0.09795 0.76886 0.96455 0.0
H1568 H 0.09594 0.78752 0.17639 0.0
H1569 H 0.08895 0.7248 1.00887 0.0
H1570 H 0.09586 0.77526 0.04215 0.0
H1571 H 0.08845 0.73669 0.14553 0.0
C1572 C 0.0907 0.75239 0.19704 0.0
C1573 C 0.09285 0.7668 0.20674 0.0
C1574 C 0.09421 0.76414 0.0349 0.0
C1575 C 0.09162 0.75776 0.11727 0.0
C1576 C 0.09533 0.76045 0.99048 0.0
C1577 C 0.09371 0.7463 0.9801 0.0
C1578 C 0.09155 0.75365 0.06937 0.0
C1579 C 0.09033 0.73587 0.01525 0.0
C1580 C 0.09006 0.74783 0.15237 0.0
C1581 C 0.09431 0.77632 0.17066 0.0
N1582 N 0.08951 0.7398 0.05832 0.0
N1583 N 0.0937 0.77165 0.1277 0.0
H1584 H 0.22484 0.32765 0.1776 0.0
H1585 H 0.29156 0.36391 0.99713 0.0
H1586 H 0.27138 0.34336 0.21326 0.0
H1587 H 0.24397 0.34052 0.96446 0.0
H1588 H 0.28499 0.35683 0.07608 0.0
H1589 H 0.23225 0.33328 0.09949 0.0
C1590 C 0.23667 0.33236 0.16907 0.0
C1591 C 0.2475 0.33503 0.20218 0.0
C1592 C 0.27602 0.35314 0.05148 0.0
C1593 C 0.25611 0.34148 0.11204 0.0
C1594 C 0.27975 0.35712 1.00638 0.0
C1595 C 0.26829 0.35289 0.97409 0.0
C1596 C 0.26074 0.34497 0.06429 0.0
C1597 C 0.2532 0.34413 0.98809 0.0
C1598 C 0.24089 0.33551 0.12424 0.0
C1599 C 0.26266 0.34115 0.18884 0.0
N1600 N 0.24988 0.34058 0.03208 0.0
N1601 N 0.26654 0.3442 0.14471 0.0
H1602 H 0.88502 0.64989 0.49883 0.0
H1603 H 0.95434 0.69039 0.32736 0.0
H1604 H 0.93163 0.67063 0.54116 0.0
H1605 H 0.90734 0.66609 0.28801 0.0
H1606 H 0.94665 0.68274 0.4053 0.0
H1607 H 0.89336 0.65578 0.42134 0.0
C1608 C 0.89705 0.65576 0.49189 0.0
C1609 C 0.90764 0.6598 0.52669 0.0
C1610 C 0.93805 0.67898 0.3795 0.0
C1611 C 0.91732 0.66653 0.4374 0.0
C1612 C 0.94243 0.68326 0.33493 0.0
C1613 C 0.93146 0.67894 0.30103 0.0
C1614 C 0.92261 0.67036 0.39022 0.0
C1615 C 0.9162 0.66976 0.31294 0.0
C1616 C 0.90181 0.65906 0.44745 0.0
C1617 C 0.92307 0.66735 0.51542 0.0
N1618 N 0.91224 0.66589 0.35649 0.0
N1619 N 0.92746 0.67049 0.47169 0.0
H1620 H 0.34508 0.26975 0.53035 0.0
H1621 H 0.36425 0.25026 0.2872 0.0
H1622 H 0.36519 0.24193 0.50515 0.0
H1623 H 0.33145 0.26482 0.3046 0.0
H1624 H 0.3682 0.25181 0.368 0.0
H1625 H 0.34251 0.27165 0.44858 0.0
C1626 C 0.34886 0.26399 0.50781 0.0
C1627 C 0.35533 0.25564 0.52477 0.0
C1628 C 0.36021 0.25478 0.35421 0.0
C1629 C 0.35276 0.25806 0.43172 0.0
C1630 C 0.35801 0.254 0.30792 0.0
C1631 C 0.34738 0.25726 0.28896 0.0
C1632 C 0.35174 0.25887 0.38212 0.0
C1633 C 0.33972 0.26214 0.31775 0.0
C1634 C 0.34745 0.26513 0.46125 0.0
C1635 C 0.36011 0.24848 0.49393 0.0
N1636 N 0.34195 0.26268 0.363 0.0
N1637 N 0.3588 0.24993 0.44919 0.0
H1638 H 0.79615 0.10857 0.55654 0.0
H1639 H 0.75593 0.08316 0.31624 0.0
H1640 H 0.74776 0.08823 0.54197 0.0
H1641 H 0.80347 0.11432 0.33754 0.0
H1642 H 0.75203 0.08203 0.39816 0.0
H1643 H 0.79838 0.10691 0.47574 0.0
C1644 C 0.78594 0.10356 0.53644 0.0
C1645 C 0.77176 0.09866 0.55622 0.0
C1646 C 0.76328 0.08913 0.38464 0.0
C1647 C 0.77427 0.09691 0.46295 0.0
C1648 C 0.7655 0.08984 0.33795 0.0
C1649 C 0.78005 0.09884 0.31983 0.0
C1650 C 0.77574 0.09735 0.4132 0.0
C1651 C 0.79205 0.10719 0.34967 0.0
C1652 C 0.78724 0.10271 0.49012 0.0
C1653 C 0.75894 0.09219 0.5282 0.0
N1654 N 0.78963 0.10616 0.3946 0.0
N1655 N 0.7605 0.0916 0.48289 0.0
H1656 H 0.989 0.39145 0.14928 0.0
H1657 H 0.04434 0.45576 0.32033 0.0
H1658 H 0.02297 0.43655 0.10956 0.0
H1659 H 1.00801 0.41234 0.36404 0.0
H1660 H 0.038 0.44781 0.2428 0.0
H1661 H 0.99745 0.39769 0.22709 0.0
C1662 C 0.9984 0.40259 0.15672 0.0
C1663 C 1.00522 0.41353 0.12268 0.0
C1664 C 0.0314 0.43997 0.2692 0.0
C1665 C 0.01482 0.42077 0.21203 0.0
C1666 C 0.03499 0.44451 0.3137 0.0
C1667 C 0.02663 0.43474 0.34899 0.0
C1668 C 0.01931 0.42551 0.25942 0.0
C1669 C 0.01471 0.42028 0.33797 0.0
C1670 C 1.00314 0.40616 0.20129 0.0
C1671 C 0.01733 0.42777 0.13455 0.0
N1672 N 1.01137 0.41611 0.29411 0.0
N1673 N 0.02165 0.43099 0.1782 0.0
H1674 H 0.6267 0.5963 0.17644 0.0
H1675 H 0.56031 0.58622 0.34094 0.0
H1676 H 0.58248 0.58662 0.13194 0.0
H1677 H 0.60389 0.59502 0.38897 0.0
H1678 H 0.56894 0.5876 0.26424 0.0
H1679 H 0.61943 0.59769 0.25374 0.0
C1680 C 0.61553 0.59468 0.18276 0.0
C1681 C 0.60516 0.59125 0.14748 0.0
C1682 C 0.57666 0.58924 0.2914 0.0
C1683 C 0.59673 0.59266 0.23621 0.0
C1684 C 0.57173 0.58841 0.33543 0.0
C1685 C 0.58137 0.59045 0.37168 0.0
C1686 C 0.5914 0.59213 0.28308 0.0
C1687 C 0.59604 0.59329 0.36212 0.0
C1688 C 0.61138 0.5954 0.22702 0.0
C1689 C 0.59086 0.58926 0.15791 0.0
N1690 N 0.60062 0.59404 0.3187 0.0
N1691 N 0.58705 0.58989 0.20127 0.0
H1692 H 0.43077 0.01762 0.41246 0.0
H1693 H 0.42156 1.0006 0.14768 0.0
H1694 H 0.41435 0.97345 0.35402 0.0
H1695 H 0.44437 0.04564 0.20349 0.0
H1696 H 0.41503 0.99025 0.22384 0.0
H1697 H 0.43218 0.02792 0.33677 0.0
C1698 C 0.42731 0.01008 0.38385 0.0
C1699 C 0.42264 0.99471 0.38949 0.0
C1700 C 0.42135 1.00241 0.21938 0.0
C1701 C 0.42417 1.00633 0.30314 0.0
C1702 C 0.42502 0.00831 0.17586 0.0
C1703 C 0.43366 0.02399 0.16919 0.0
C1704 C 0.42633 0.01226 0.25648 0.0
C1705 C 0.43784 0.03345 0.20705 0.0
C1706 C 0.42815 0.01595 0.34069 0.0
C1707 C 0.41825 0.98542 0.35124 0.0
N1708 N 0.43423 0.02745 0.24903 0.0
N1709 N 0.41919 0.99138 0.30982 0.0
H1710 H 0.56035 0.97025 0.83475 0.0
H1711 H 0.62246 0.0344 0.67568 0.0
H1712 H 0.59905 0.0107 0.88545 0.0
H1713 H 0.58049 0.99691 0.62786 0.0
H1714 H 0.6157 0.02444 0.75195 0.0
H1715 H 0.56911 0.97857 0.75852 0.0
C1716 C 0.57073 0.9809 0.82991 0.0
C1717 C 0.57892 0.98985 0.86667 0.0
C1718 C 0.60803 0.01833 0.72473 0.0
C1719 C 0.58906 0.99944 0.77897 0.0
C1720 C 0.6119 0.02396 0.68107 0.0
C1721 C 0.60197 0.01652 0.64524 0.0
C1722 C 0.59415 1.00513 0.73269 0.0
C1723 C 0.58846 1.00306 0.65439 0.0
C1724 C 0.57573 0.98563 0.78624 0.0
C1725 C 0.59234 1.00348 0.85813 0.0
N1726 N 0.58492 0.99785 0.69722 0.0
N1727 N 0.59697 0.0079 0.81511 0.0
H1728 H 0.97888 0.5576 0.70056 0.0
H1729 H 0.03831 0.62095 0.86678 0.0
H1730 H 0.01732 0.59915 0.65419 0.0
H1731 H 1.00336 0.5767 0.90984 0.0
H1732 H 0.02918 0.61445 0.7897 0.0
H1733 H 0.98633 0.56561 0.77772 0.0
C1734 C 0.98892 0.56844 0.70654 0.0
C1735 C 0.99754 0.57768 0.67068 0.0
C1736 C 0.02344 0.60621 0.81606 0.0
C1737 C 1.00612 0.58697 0.75956 0.0
C1738 C 0.02858 0.60993 0.86021 0.0
C1739 C 0.02164 0.59932 0.89497 0.0
C1740 C 1.01122 0.59179 0.80648 0.0
C1741 C 1.00909 0.58523 0.88423 0.0
C1742 C 0.99315 0.57301 0.75077 0.0
C1743 C 1.01038 0.59163 0.68075 0.0
N1744 N 1.00435 0.58186 0.84095 0.0
N1745 N 0.01431 0.59585 0.72429 0.0
H1746 H 0.41448 0.38862 0.65391 0.0
H1747 H 0.43534 0.4458 0.86032 0.0
H1748 H 0.43496 0.43705 0.63934 0.0
H1749 H 0.41253 0.39727 0.87657 0.0
H1750 H 0.435 0.44259 0.77932 0.0
H1751 H 0.41276 0.39132 0.73487 0.0
C1752 C 0.41843 0.39981 0.66758 0.0
C1753 C 0.42493 0.41264 0.63961 0.0
C1754 C 0.43006 0.43262 0.80049 0.0
C1755 C 0.42319 0.41581 0.73264 0.0
C1756 C 0.43031 0.43443 0.84693 0.0
C1757 C 0.42396 0.42177 0.87555 0.0
C1758 C 0.42346 0.41802 0.78212 0.0
C1759 C 0.4176 0.40736 0.85593 0.0
C1760 C 0.4175 0.40134 0.71393 0.0
C1761 C 0.42986 0.42683 0.65943 0.0
N1762 N 0.41751 0.40588 0.81046 0.0
N1763 N 0.42899 0.42803 0.70467 0.0
loop_
_geom_bond_atom_site_label_1
_geom_bond_atom_site_label_2
_geom_bond_distance
_geom_bond_site_symmetry_2
_ccdc_geom_bond_type
Mg0 O7 2.141 . S
Mg0 O8 2.048 . S
Mg0 O9 2.048 . S
Mg0 O12 2.141 . S
C1 O2 1.313 . S
C1 O8 1.195 . S
O2 C1 1.313 . S
C3 O4 1.245 . S
C3 O12 1.289 . S
O4 C3 1.245 . S
C5 O6 1.245 . S
C5 O7 1.289 . S
O6 C5 1.245 . S
O7 Mg0 2.141 . S
O7 C5 1.289 . S
O8 Mg0 2.048 . S
O8 C1 1.195 . S
O9 Mg0 2.048 . S
O9 C10 1.195 . S
C10 O9 1.195 . S
C10 O11 1.313 . S
O11 C10 1.313 . S
O12 Mg0 2.141 . S
O12 C3 1.289 . S
Mg13 O20 2.141 . S
Mg13 O21 2.048 . S
Mg13 O22 2.048 . S
Mg13 O25 2.141 . S
C14 O15 1.313 . S
C14 O21 1.195 . S
O15 C14 1.313 . S
C16 O17 1.245 . S
C16 O25 1.289 . S
O17 C16 1.245 . S
C18 O19 1.245 . S
C18 O20 1.289 . S
O19 C18 1.245 . S
O20 Mg13 2.141 . S
O20 C18 1.289 . S
O21 Mg13 2.048 . S
O21 C14 1.195 . S
O22 Mg13 2.048 . S
O22 C23 1.195 . S
C23 O22 1.195 . S
C23 O24 1.313 . S
O24 C23 1.313 . S
O25 Mg13 2.141 . S
O25 C16 1.289 . S
Mg26 O33 2.141 . S
Mg26 O34 2.048 . S
Mg26 O35 2.048 . S
Mg26 O38 2.141 . S
C27 O28 1.313 . S
C27 O34 1.195 . S
O28 C27 1.313 . S
C29 O30 1.245 . S
C29 O38 1.289 . S
O30 C29 1.245 . S
C31 O32 1.245 . S
C31 O33 1.289 . S
O32 C31 1.245 . S
O33 Mg26 2.141 . S
O33 C31 1.289 . S
O34 Mg26 2.048 . S
O34 C27 1.195 . S
O35 Mg26 2.048 . S
O35 C36 1.195 . S
C36 O35 1.195 . S
C36 O37 1.313 . S
O37 C36 1.313 . S
O38 Mg26 2.141 . S
O38 C29 1.289 . S
Mg39 O46 2.141 . S
Mg39 O47 2.048 . S
Mg39 O48 2.048 . S
Mg39 O51 2.141 . S
C40 O41 1.313 . S
C40 O47 1.195 . S
O41 C40 1.313 . S
C42 O43 1.245 . S
C42 O51 1.289 . S
O43 C42 1.245 . S
C44 O45 1.245 . S
C44 O46 1.289 . S
O45 C44 1.245 . S
O46 Mg39 2.141 . S
O46 C44 1.289 . S
O47 Mg39 2.048 . S
O47 C40 1.195 . S
O48 Mg39 2.048 . S
O48 C49 1.195 . S
C49 O48 1.195 . S
C49 O50 1.313 . S
O50 C49 1.313 . S
O51 Mg39 2.141 . S
O51 C42 1.289 . S
Mg52 O59 2.141 . S
Mg52 O60 2.048 . S
Mg52 O61 2.048 . S
Mg52 O64 2.141 . S
C53 O54 1.313 . S
C53 O60 1.195 . S
O54 C53 1.313 . S
C55 O56 1.245 . S
C55 O64 1.289 . S
O56 C55 1.245 . S
C57 O58 1.245 . S
C57 O59 1.289 . S
O58 C57 1.245 . S
O59 Mg52 2.141 . S
O59 C57 1.289 . S
O60 Mg52 2.048 . S
O60 C53 1.195 . S
O61 Mg52 2.048 . S
O61 C62 1.195 . S
C62 O61 1.195 . S
C62 O63 1.313 . S
O63 C62 1.313 . S
O64 Mg52 2.141 . S
O64 C55 1.289 . S
Mg65 O72 2.141 . S
Mg65 O73 2.048 . S
Mg65 O74 2.048 . S
Mg65 O77 2.141 . S
C66 O67 1.313 . S
C66 O73 1.195 . S
O67 C66 1.313 . S
C68 O69 1.245 . S
C68 O77 1.289 . S
O69 C68 1.245 . S
C70 O71 1.245 . S
C70 O72 1.289 . S
O71 C70 1.245 . S
O72 Mg65 2.141 . S
O72 C70 1.289 . S
O73 Mg65 2.048 . S
O73 C66 1.195 . S
O74 Mg65 2.048 . S
O74 C75 1.195 . S
C75 O74 1.195 . S
C75 O76 1.313 . S
O76 C75 1.313 . S
O77 Mg65 2.141 . S
O77 C68 1.289 . S
Mg78 O85 2.141 . S
Mg78 O86 2.048 . S
Mg78 O87 2.048 . S
Mg78 O90 2.141 . S
C79 O80 1.313 . S
C79 O86 1.195 . S
O80 C79 1.313 . S
C81 O82 1.245 . S
C81 O90 1.289 . S
O82 C81 1.245 . S
C83 O84 1.245 . S
C83 O85 1.289 . S
O84 C83 1.245 . S
O85 Mg78 2.141 . S
O85 C83 1.289 . S
O86 Mg78 2.048 . S
O86 C79 1.195 . S
O87 Mg78 2.048 . S
O87 C88 1.195 . S
C88 O87 1.195 . S
C88 O89 1.313 . S
O89 C88 1.313 . S
O90 Mg78 2.141 . S
O90 C81 1.289 . S
Mg91 O98 2.141 . S
Mg91 O99 2.048 . S
Mg91 O100 2.048 . S
Mg91 O103 2.141 . S
C92 O93 1.313 . S
C92 O99 1.195 . S
O93 C92 1.313 . S
C94 O95 1.245 . S
C94 O103 1.289 . S
O95 C94 1.245 . S
C96 O97 1.245 . S
C96 O98 1.289 . S
O97 C96 1.245 . S
O98 Mg91 2.141 . S
O98 C96 1.289 . S
O99 Mg91 2.048 . S
O99 C92 1.195 . S
O100 Mg91 2.048 . S
O100 C101 1.195 . S
C101 O100 1.195 . S
C101 O102 1.313 . S
O102 C101 1.313 . S
O103 Mg91 2.141 . S
O103 C94 1.289 . S
Mg104 O111 2.141 . S
Mg104 O112 2.048 . S
Mg104 O113 2.048 . S
Mg104 O116 2.141 . S
C105 O106 1.313 . S
C105 O112 1.195 . S
O106 C105 1.313 . S
C107 O108 1.245 . S
C107 O116 1.289 . S
O108 C107 1.245 . S
C109 O110 1.245 . S
C109 O111 1.289 . S
O110 C109 1.245 . S
O111 Mg104 2.141 . S
O111 C109 1.289 . S
O112 Mg104 2.048 . S
O112 C105 1.195 . S
O113 Mg104 2.048 . S
O113 C114 1.195 . S
C114 O113 1.195 . S
C114 O115 1.313 . S
O115 C114 1.313 . S
O116 Mg104 2.141 . S
O116 C107 1.289 . S
Mg117 O124 2.141 . S
Mg117 O125 2.048 . S
Mg117 O126 2.048 . S
Mg117 O129 2.141 . S
C118 O119 1.313 . S
C118 O125 1.195 . S
O119 C118 1.313 . S
C120 O121 1.245 . S
C120 O129 1.289 . S
O121 C120 1.245 . S
C122 O123 1.245 . S
C122 O124 1.289 . S
O123 C122 1.245 . S
O124 Mg117 2.141 . S
O124 C122 1.289 . S
O125 Mg117 2.048 . S
O125 C118 1.195 . S
O126 Mg117 2.048 . S
O126 C127 1.195 . S
C127 O126 1.195 . S
C127 O128 1.313 . S
O128 C127 1.313 . S
O129 Mg117 2.141 . S
O129 C120 1.289 . S
Mg130 O137 2.141 . S
Mg130 O138 2.048 . S
Mg130 O139 2.048 . S
Mg130 O142 2.141 . S
C131 O132 1.313 . S
C131 O138 1.195 . S
O132 C131 1.313 . S
C133 O134 1.245 . S
C133 O142 1.289 . S
O134 C133 1.245 . S
C135 O136 1.245 . S
C135 O137 1.289 . S
O136 C135 1.245 . S
O137 Mg130 2.141 . S
O137 C135 1.289 . S
O138 Mg130 2.048 . S
O138 C131 1.195 . S
O139 Mg130 2.048 . S
O139 C140 1.195 . S
C140 O139 1.195 . S
C140 O141 1.313 . S
O141 C140 1.313 . S
O142 Mg130 2.141 . S
O142 C133 1.289 . S
Mg143 O150 2.141 . S
Mg143 O151 2.048 . S
Mg143 O152 2.048 . S
Mg143 O155 2.141 . S
C144 O145 1.313 . S
C144 O151 1.195 . S
O145 C144 1.313 . S
C146 O147 1.245 . S
C146 O155 1.289 . S
O147 C146 1.245 . S
C148 O149 1.245 . S
C148 O150 1.289 . S
O149 C148 1.245 . S
O150 Mg143 2.141 . S
O150 C148 1.289 . S
O151 Mg143 2.048 . S
O151 C144 1.195 . S
O152 Mg143 2.048 . S
O152 C153 1.195 . S
C153 O152 1.195 . S
C153 O154 1.313 . S
O154 C153 1.313 . S
O155 Mg143 2.141 . S
O155 C146 1.289 . S
Mg156 O163 2.141 . S
Mg156 O164 2.048 . S
Mg156 O165 2.048 . S
Mg156 O168 2.141 . S
C157 O158 1.313 . S
C157 O164 1.195 1_655 S
O158 C157 1.313 . S
C159 O160 1.245 . S
C159 O168 1.289 . S
O160 C159 1.245 . S
C161 O162 1.245 1_455 S
C161 O163 1.289 . S
O162 C161 1.245 1_655 S
O163 Mg156 2.141 . S
O163 C161 1.289 . S
O164 Mg156 2.048 . S
O164 C157 1.195 1_455 S
O165 Mg156 2.048 . S
O165 C166 1.195 . S
C166 O165 1.195 . S
C166 O167 1.313 1_455 S
O167 C166 1.313 1_655 S
O168 Mg156 2.141 . S
O168 C159 1.289 . S
Mg169 O176 2.141 . S
Mg169 O177 2.048 . S
Mg169 O178 2.048 . S
Mg169 O181 2.141 . S
C170 O171 1.313 . S
C170 O177 1.195 . S
O171 C170 1.313 . S
C172 O173 1.245 . S
C172 O181 1.289 . S
O173 C172 1.245 . S
C174 O175 1.245 . S
C174 O176 1.289 . S
O175 C174 1.245 . S
O176 Mg169 2.141 . S
O176 C174 1.289 . S
O177 Mg169 2.048 . S
O177 C170 1.195 . S
O178 Mg169 2.048 . S
O178 C179 1.195 . S
C179 O178 1.195 . S
C179 O180 1.313 . S
O180 C179 1.313 . S
O181 Mg169 2.141 . S
O181 C172 1.289 . S
Mg182 O189 2.141 . S
Mg182 O190 2.048 . S
Mg182 O191 2.048 . S
Mg182 O194 2.141 . S
C183 O184 1.313 . S
C183 O190 1.195 1_545 S
O184 C183 1.313 . S
C185 O186 1.245 . S
C185 O194 1.289 . S
O186 C185 1.245 . S
C187 O188 1.245 1_565 S
C187 O189 1.289 . S
O188 C187 1.245 1_545 S
O189 Mg182 2.141 . S
O189 C187 1.289 . S
O190 Mg182 2.048 . S
O190 C183 1.195 1_565 S
O191 Mg182 2.048 . S
O191 C192 1.195 . S
C192 O191 1.195 . S
C192 O193 1.313 1_565 S
O193 C192 1.313 1_545 S
O194 Mg182 2.141 . S
O194 C185 1.289 . S
Mg195 O202 2.141 . S
Mg195 O203 2.048 . S
Mg195 O204 2.048 . S
Mg195 O207 2.141 . S
C196 O197 1.313 . S
C196 O203 1.195 . S
O197 C196 1.313 . S
C198 O199 1.245 . S
C198 O207 1.289 . S
O199 C198 1.245 . S
C200 O201 1.245 . S
C200 O202 1.289 . S
O201 C200 1.245 . S
O202 Mg195 2.141 . S
O202 C200 1.289 . S
O203 Mg195 2.048 . S
O203 C196 1.195 . S
O204 Mg195 2.048 . S
O204 C205 1.195 . S
C205 O204 1.195 . S
C205 O206 1.313 . S
O206 C205 1.313 . S
O207 Mg195 2.141 . S
O207 C198 1.289 . S
Mg208 O215 2.141 . S
Mg208 O216 2.048 . S
Mg208 O217 2.048 . S
Mg208 O220 2.141 . S
C209 O210 1.313 . S
C209 O216 1.195 . S
O210 C209 1.313 . S
C211 O212 1.245 . S
C211 O220 1.289 . S
O212 C211 1.245 . S
C213 O214 1.245 . S
C213 O215 1.289 . S
O214 C213 1.245 . S
O215 Mg208 2.141 . S
O215 C213 1.289 . S
O216 Mg208 2.048 . S
O216 C209 1.195 . S
O217 Mg208 2.048 . S
O217 C218 1.195 . S
C218 O217 1.195 . S
C218 O219 1.313 . S
O219 C218 1.313 . S
O220 Mg208 2.141 . S
O220 C211 1.289 . S
Mg221 O228 2.141 . S
Mg221 O229 2.048 . S
Mg221 O230 2.048 . S
Mg221 O233 2.141 . S
C222 O223 1.313 . S
C222 O229 1.195 . S
O223 C222 1.313 . S
C224 O225 1.245 . S
C224 O233 1.289 . S
O225 C224 1.245 . S
C226 O227 1.245 . S
C226 O228 1.289 . S
O227 C226 1.245 . S
O228 Mg221 2.141 . S
O228 C226 1.289 . S
O229 Mg221 2.048 . S
O229 C222 1.195 . S
O230 Mg221 2.048 . S
O230 C231 1.195 . S
C231 O230 1.195 . S
C231 O232 1.313 . S
O232 C231 1.313 . S
O233 Mg221 2.141 . S
O233 C224 1.289 . S
Mg234 O241 2.141 . S
Mg234 O242 2.048 . S
Mg234 O243 2.048 . S
Mg234 O246 2.141 . S
C235 O236 1.313 . S
C235 O242 1.195 . S
O236 C235 1.313 . S
C237 O238 1.245 . S
C237 O246 1.289 . S
O238 C237 1.245 . S
C239 O240 1.245 . S
C239 O241 1.289 . S
O240 C239 1.245 . S
O241 Mg234 2.141 . S
O241 C239 1.289 . S
O242 Mg234 2.048 . S
O242 C235 1.195 . S
O243 Mg234 2.048 . S
O243 C244 1.195 . S
C244 O243 1.195 . S
C244 O245 1.313 . S
O245 C244 1.313 . S
O246 Mg234 2.141 . S
O246 C237 1.289 . S
Mg247 O254 2.141 . S
Mg247 O255 2.048 . S
Mg247 O256 2.048 . S
Mg247 O259 2.141 . S
C248 O249 1.313 . S
C248 O255 1.195 . S
O249 C248 1.313 . S
C250 O251 1.245 . S
C250 O259 1.289 . S
O251 C250 1.245 . S
C252 O253 1.245 . S
C252 O254 1.289 . S
O253 C252 1.245 . S
O254 Mg247 2.141 . S
O254 C252 1.289 . S
O255 Mg247 2.048 . S
O255 C248 1.195 . S
O256 Mg247 2.048 . S
O256 C257 1.195 . S
C257 O256 1.195 . S
C257 O258 1.313 . S
O258 C257 1.313 . S
O259 Mg247 2.141 . S
O259 C250 1.289 . S
Mg260 O267 2.141 . S
Mg260 O268 2.048 . S
Mg260 O269 2.048 . S
Mg260 O272 2.141 . S
C261 O262 1.313 . S
C261 O268 1.195 . S
O262 C261 1.313 . S
C263 O264 1.245 . S
C263 O272 1.289 . S
O264 C263 1.245 . S
C265 O266 1.245 . S
C265 O267 1.289 . S
O266 C265 1.245 . S
O267 Mg260 2.141 . S
O267 C265 1.289 . S
O268 Mg260 2.048 . S
O268 C261 1.195 . S
O269 Mg260 2.048 . S
O269 C270 1.195 . S
C270 O269 1.195 . S
C270 O271 1.313 . S
O271 C270 1.313 . S
O272 Mg260 2.141 . S
O272 C263 1.289 . S
Mg273 O280 2.141 . S
Mg273 O281 2.048 1_565 S
Mg273 O282 2.048 1_554 S
Mg273 O285 2.141 1_554 S
C274 O275 1.313 1_554 S
C274 O281 1.195 1_565 S
O275 C274 1.313 1_556 S
C276 O277 1.245 . S
C276 O285 1.289 . S
O277 C276 1.245 . S
C278 O279 1.245 . S
C278 O280 1.289 . S
O279 C278 1.245 . S
O280 Mg273 2.141 . S
O280 C278 1.289 . S
O281 Mg273 2.048 1_545 S
O281 C274 1.195 1_545 S
O282 Mg273 2.048 1_556 S
O282 C283 1.195 . S
C283 O282 1.195 . S
C283 O284 1.313 . S
O284 C283 1.313 . S
O285 Mg273 2.141 1_556 S
O285 C276 1.289 . S
Mg286 O293 2.141 . S
Mg286 O294 2.048 1_455 S
Mg286 O295 2.048 1_554 S
Mg286 O298 2.141 1_554 S
C287 O288 1.313 1_554 S
C287 O294 1.195 1_455 S
O288 C287 1.313 1_556 S
C289 O290 1.245 . S
C289 O298 1.289 . S
O290 C289 1.245 . S
C291 O292 1.245 . S
C291 O293 1.289 . S
O292 C291 1.245 . S
O293 Mg286 2.141 . S
O293 C291 1.289 . S
O294 Mg286 2.048 1_655 S
O294 C287 1.195 1_655 S
O295 Mg286 2.048 1_556 S
O295 C296 1.195 . S
C296 O295 1.195 . S
C296 O297 1.313 . S
O297 C296 1.313 . S
O298 Mg286 2.141 1_556 S
O298 C289 1.289 . S
Mg299 O306 2.141 1_554 S
Mg299 O307 2.034 1_554 S
Mg299 O308 2.049 . S
Mg299 O311 2.155 . S
C300 O301 1.313 . S
C300 O307 1.195 . S
O301 C300 1.313 . S
C302 O303 1.245 . S
C302 O311 1.289 . S
O303 C302 1.245 . S
C304 O305 1.245 . S
C304 O306 1.289 . S
O305 C304 1.245 . S
O306 Mg299 2.141 1_556 S
O306 C304 1.289 . S
O307 Mg299 2.034 1_556 S
O307 C300 1.195 . S
O308 Mg299 2.049 . S
O308 C309 1.195 . S
C309 O308 1.195 . S
C309 O310 1.313 1_554 S
O310 C309 1.313 1_556 S
O311 Mg299 2.155 . S
O311 C302 1.289 . S
Mg312 O319 2.141 . S
Mg312 O320 2.048 . S
Mg312 O321 2.048 . S
Mg312 O324 2.141 . S
C313 O314 1.313 . S
C313 O320 1.195 . S
O314 C313 1.313 . S
C315 O316 1.245 . S
C315 O324 1.289 . S
O316 C315 1.245 . S
C317 O318 1.245 . S
C317 O319 1.289 . S
O318 C317 1.245 . S
O319 Mg312 2.141 . S
O319 C317 1.289 . S
O320 Mg312 2.048 . S
O320 C313 1.195 . S
O321 Mg312 2.048 . S
O321 C322 1.195 . S
C322 O321 1.195 . S
C322 O323 1.313 . S
O323 C322 1.313 . S
O324 Mg312 2.141 . S
O324 C315 1.289 . S
Mg325 O332 2.141 . S
Mg325 O333 2.048 . S
Mg325 O334 2.048 . S
Mg325 O337 2.141 . S
C326 O327 1.313 . S
C326 O333 1.195 . S
O327 C326 1.313 . S
C328 O329 1.245 . S
C328 O337 1.289 . S
O329 C328 1.245 . S
C330 O331 1.245 . S
C330 O332 1.289 . S
O331 C330 1.245 . S
O332 Mg325 2.141 . S
O332 C330 1.289 . S
O333 Mg325 2.048 . S
O333 C326 1.195 . S
O334 Mg325 2.048 . S
O334 C335 1.195 . S
C335 O334 1.195 . S
C335 O336 1.313 . S
O336 C335 1.313 . S
O337 Mg325 2.141 . S
O337 C328 1.289 . S
Mg338 O345 2.141 . S
Mg338 O346 2.048 . S
Mg338 O347 2.048 . S
Mg338 O350 2.141 . S
C339 O340 1.313 . S
C339 O346 1.195 . S
O340 C339 1.313 . S
C341 O342 1.245 . S
C341 O350 1.289 . S
O342 C341 1.245 . S
C343 O344 1.245 . S
C343 O345 1.289 . S
O344 C343 1.245 . S
O345 Mg338 2.141 . S
O345 C343 1.289 . S
O346 Mg338 2.048 . S
O346 C339 1.195 . S
O347 Mg338 2.048 . S
O347 C348 1.195 . S
C348 O347 1.195 . S
C348 O349 1.313 . S
O349 C348 1.313 . S
O350 Mg338 2.141 . S
O350 C341 1.289 . S
Mg351 O358 2.155 . S
Mg351 O359 2.049 . S
Mg351 O360 2.034 1_556 S
Mg351 O363 2.141 1_556 S
C352 O353 1.313 1_556 S
C352 O359 1.195 1_565 S
O353 C352 1.313 1_554 S
C354 O355 1.245 . S
C354 O363 1.289 . S
O355 C354 1.245 . S
C356 O357 1.245 1_545 S
C356 O358 1.289 . S
O357 C356 1.245 1_565 S
O358 Mg351 2.155 . S
O358 C356 1.289 . S
O359 Mg351 2.049 . S
O359 C352 1.195 1_545 S
O360 Mg351 2.034 1_554 S
O360 C361 1.195 . S
C361 O360 1.195 . S
C361 O362 1.313 1_545 S
O362 C361 1.313 1_565 S
O363 Mg351 2.141 1_554 S
O363 C354 1.289 . S
Mg364 O371 2.155 . S
Mg364 O372 2.049 . S
Mg364 O373 2.034 1_556 S
Mg364 O376 2.141 1_556 S
C365 O366 1.313 1_556 S
C365 O372 1.195 1_455 S
O366 C365 1.313 1_554 S
C367 O368 1.245 . S
C367 O376 1.289 . S
O368 C367 1.245 . S
C369 O370 1.245 1_655 S
C369 O371 1.289 . S
O370 C369 1.245 1_455 S
O371 Mg364 2.155 . S
O371 C369 1.289 . S
O372 Mg364 2.049 . S
O372 C365 1.195 1_655 S
O373 Mg364 2.034 1_554 S
O373 C374 1.195 . S
C374 O373 1.195 . S
C374 O375 1.313 1_655 S
O375 C374 1.313 1_455 S
O376 Mg364 2.141 1_554 S
O376 C367 1.289 . S
Mg377 O384 2.155 . S
Mg377 O385 2.049 . S
Mg377 O386 2.034 1_556 S
Mg377 O389 2.141 1_556 S
C378 O379 1.313 1_556 S
C378 O385 1.195 . S
O379 C378 1.313 1_554 S
C380 O381 1.245 . S
C380 O389 1.289 . S
O381 C380 1.245 . S
C382 O383 1.245 . S
C382 O384 1.289 . S
O383 C382 1.245 . S
O384 Mg377 2.155 . S
O384 C382 1.289 . S
O385 Mg377 2.049 . S
O385 C378 1.195 . S
O386 Mg377 2.034 1_554 S
O386 C387 1.195 . S
C387 O386 1.195 . S
C387 O388 1.313 . S
O388 C387 1.313 . S
O389 Mg377 2.141 1_554 S
O389 C380 1.289 . S
Mg390 O397 2.141 . S
Mg390 O398 2.048 . S
Mg390 O399 2.048 . S
Mg390 O402 2.141 . S
C391 O392 1.313 1_655 S
C391 O398 1.195 . S
O392 C391 1.313 1_455 S
C393 O394 1.245 1_655 S
C393 O402 1.289 . S
O394 C393 1.245 1_455 S
C395 O396 1.245 . S
C395 O397 1.289 . S
O396 C395 1.245 . S
O397 Mg390 2.141 . S
O397 C395 1.289 . S
O398 Mg390 2.048 . S
O398 C391 1.195 . S
O399 Mg390 2.048 . S
O399 C400 1.195 1_655 S
C400 O399 1.195 1_455 S
C400 O401 1.313 . S
O401 C400 1.313 . S
O402 Mg390 2.141 . S
O402 C393 1.289 . S
Mg403 O410 2.141 . S
Mg403 O411 2.048 . S
Mg403 O412 2.048 . S
Mg403 O415 2.141 . S
C404 O405 1.313 . S
C404 O411 1.195 . S
O405 C404 1.313 . S
C406 O407 1.245 . S
C406 O415 1.289 . S
O407 C406 1.245 . S
C408 O409 1.245 . S
C408 O410 1.289 . S
O409 C408 1.245 . S
O410 Mg403 2.141 . S
O410 C408 1.289 . S
O411 Mg403 2.048 . S
O411 C404 1.195 . S
O412 Mg403 2.048 . S
O412 C413 1.195 . S
C413 O412 1.195 . S
C413 O414 1.313 . S
O414 C413 1.313 . S
O415 Mg403 2.141 . S
O415 C406 1.289 . S
Mg416 O423 2.141 . S
Mg416 O424 2.039 . S
Mg416 O425 2.049 . S
Mg416 O428 2.153 1_565 S
C417 O418 1.313 1_565 S
C417 O424 1.195 . S
O418 C417 1.313 1_545 S
C419 O420 1.245 . S
C419 O428 1.289 . S
O420 C419 1.245 . S
C421 O422 1.245 . S
C421 O423 1.252 1_545 S
O422 C421 1.245 . S
O423 Mg416 2.141 . S
O423 C421 1.252 1_565 S
O424 Mg416 2.039 . S
O424 C417 1.195 . S
O425 Mg416 2.049 . S
O425 C426 1.131 1_565 S
C426 O425 1.131 1_545 S
C426 O427 1.313 . S
O427 C426 1.313 . S
O428 Mg416 2.153 1_545 S
O428 C419 1.289 . S
Mg429 O436 2.141 . S
Mg429 O437 2.048 . S
Mg429 O438 2.048 . S
Mg429 O441 2.141 . S
C430 O431 1.313 . S
C430 O437 1.195 . S
O431 C430 1.313 . S
C432 O433 1.245 . S
C432 O441 1.289 . S
O433 C432 1.245 . S
C434 O435 1.245 . S
C434 O436 1.289 . S
O435 C434 1.245 . S
O436 Mg429 2.141 . S
O436 C434 1.289 . S
O437 Mg429 2.048 . S
O437 C430 1.195 . S
O438 Mg429 2.048 . S
O438 C439 1.195 . S
C439 O438 1.195 . S
C439 O440 1.313 . S
O440 C439 1.313 . S
O441 Mg429 2.141 . S
O441 C432 1.289 . S
Mg442 O449 2.141 . S
Mg442 O450 2.048 . S
Mg442 O451 2.048 . S
Mg442 O454 2.141 . S
C443 O444 1.313 . S
C443 O450 1.195 . S
O444 C443 1.313 . S
C445 O446 1.245 . S
C445 O454 1.289 . S
O446 C445 1.245 . S
C447 O448 1.245 . S
C447 O449 1.289 . S
O448 C447 1.245 . S
O449 Mg442 2.141 . S
O449 C447 1.289 . S
O450 Mg442 2.048 . S
O450 C443 1.195 . S
O451 Mg442 2.048 . S
O451 C452 1.195 . S
C452 O451 1.195 . S
C452 O453 1.313 . S
O453 C452 1.313 . S
O454 Mg442 2.141 . S
O454 C445 1.289 . S
Mg455 O462 2.141 . S
Mg455 O463 2.048 . S
Mg455 O464 2.048 . S
Mg455 O467 2.141 . S
C456 O457 1.313 . S
C456 O463 1.195 . S
O457 C456 1.313 . S
C458 O459 1.245 . S
C458 O467 1.289 . S
O459 C458 1.245 . S
C460 O461 1.245 . S
C460 O462 1.289 . S
O461 C460 1.245 . S
O462 Mg455 2.141 . S
O462 C460 1.289 . S
O463 Mg455 2.048 . S
O463 C456 1.195 . S
O464 Mg455 2.048 . S
O464 C465 1.195 . S
C465 O464 1.195 . S
C465 O466 1.313 . S
O466 C465 1.313 . S
O467 Mg455 2.141 . S
O467 C458 1.289 . S
H468 C474 0.930 . S
H469 C478 0.930 . S
H470 C483 0.929 . S
H471 C481 0.929 . S
H472 C476 0.929 . S
H473 C482 0.929 . S
C474 H468 0.930 . S
C474 C475 1.367 . S
C474 C482 1.378 . S
C475 C474 1.367 . S
C475 C483 1.433 . S
C476 H472 0.929 . S
C476 C478 1.378 . S
C476 C480 1.350 . S
C477 C480 1.463 . S
C477 C482 1.350 . S
C477 N485 1.427 . S
C478 H469 0.930 . S
C478 C476 1.378 . S
C478 C479 1.367 . S
C479 C478 1.367 . S
C479 C481 1.433 . S
C480 C476 1.350 . S
C480 C477 1.463 . S
C480 N484 1.427 . S
C481 H471 0.929 . S
C481 C479 1.433 . S
C481 N484 1.384 . S
C482 H473 0.929 . S
C482 C474 1.378 . S
C482 C477 1.350 . S
C483 H470 0.929 . S
C483 C475 1.433 . S
C483 N485 1.384 . S
N484 C480 1.427 . S
N484 C481 1.384 . S
N485 C477 1.427 . S
N485 C483 1.384 . S
H486 C492 0.930 . S
H487 C496 0.930 . S
H488 C501 0.929 . S
H489 C499 0.929 . S
H490 C494 0.929 . S
H491 C500 0.929 . S
C492 H486 0.930 . S
C492 C493 1.367 . S
C492 C500 1.378 . S
C493 C492 1.367 . S
C493 C501 1.433 . S
C494 H490 0.929 . S
C494 C496 1.378 . S
C494 C498 1.350 . S
C495 C498 1.463 . S
C495 C500 1.350 . S
C495 N503 1.427 . S
C496 H487 0.930 . S
C496 C494 1.378 . S
C496 C497 1.367 . S
C497 C496 1.367 . S
C497 C499 1.433 . S
C498 C494 1.350 . S
C498 C495 1.463 . S
C498 N502 1.427 . S
C499 H489 0.929 . S
C499 C497 1.433 . S
C499 N502 1.384 . S
C500 H491 0.929 . S
C500 C492 1.378 . S
C500 C495 1.350 . S
C501 H488 0.929 . S
C501 C493 1.433 . S
C501 N503 1.384 . S
N502 C498 1.427 . S
N502 C499 1.384 . S
N503 C495 1.427 . S
N503 C501 1.384 . S
H504 C510 0.930 . S
H505 C514 0.930 . S
H506 C519 0.929 . S
H507 C517 0.929 . S
H508 C512 0.929 . S
H509 C518 0.929 . S
C510 H504 0.930 . S
C510 C511 1.367 . S
C510 C518 1.378 . S
C511 C510 1.367 . S
C511 C519 1.433 . S
C512 H508 0.929 . S
C512 C514 1.378 . S
C512 C516 1.350 . S
C513 C516 1.463 . S
C513 C518 1.350 . S
C513 N521 1.427 . S
C514 H505 0.930 . S
C514 C512 1.378 . S
C514 C515 1.367 . S
C515 C514 1.367 . S
C515 C517 1.433 . S
C516 C512 1.350 . S
C516 C513 1.463 . S
C516 N520 1.427 . S
C517 H507 0.929 . S
C517 C515 1.433 . S
C517 N520 1.384 . S
C518 H509 0.929 . S
C518 C510 1.378 . S
C518 C513 1.350 . S
C519 H506 0.929 . S
C519 C511 1.433 . S
C519 N521 1.384 . S
N520 C516 1.427 . S
N520 C517 1.384 . S
N521 C513 1.427 . S
N521 C519 1.384 . S
H522 C528 0.930 . S
H523 C532 0.930 . S
H524 C537 0.929 . S
H525 C535 0.929 . S
H526 C530 0.929 . S
H527 C536 0.929 . S
C528 H522 0.930 . S
C528 C529 1.367 . S
C528 C536 1.378 1_556 S
C529 C528 1.367 . S
C529 C537 1.433 . S
C530 H526 0.929 . S
C530 C532 1.378 . S
C530 C534 1.350 . S
C531 C534 1.463 . S
C531 C536 1.350 . S
C531 N539 1.427 . S
C532 H523 0.930 . S
C532 C530 1.378 . S
C532 C533 1.367 . S
C533 C532 1.367 . S
C533 C535 1.433 . S
C534 C530 1.350 . S
C534 C531 1.463 . S
C534 N538 1.427 . S
C535 H525 0.929 . S
C535 C533 1.433 . S
C535 N538 1.384 . S
C536 H527 0.929 . S
C536 C528 1.378 1_554 S
C536 C531 1.350 . S
C537 H524 0.929 . S
C537 C529 1.433 . S
C537 N539 1.384 1_556 S
N538 C534 1.427 . S
N538 C535 1.384 . S
N539 C531 1.427 . S
N539 C537 1.384 1_554 S
H540 C546 0.930 . S
H541 C550 0.930 . S
H542 C555 0.929 . S
H543 C553 0.929 . S
H544 C548 0.929 . S
H545 C554 0.929 . S
C546 H540 0.930 . S
C546 C547 1.367 . S
C546 C554 1.378 . S
C547 C546 1.367 . S
C547 C555 1.433 . S
C548 H544 0.929 . S
C548 C550 1.378 1_554 S
C548 C552 1.350 . S
C549 C552 1.463 . S
C549 C554 1.350 . S
C549 N557 1.427 . S
C550 H541 0.930 . S
C550 C548 1.378 1_556 S
C550 C551 1.367 . S
C551 C550 1.367 . S
C551 C553 1.433 . S
C552 C548 1.350 . S
C552 C549 1.463 . S
C552 N556 1.427 . S
C553 H543 0.929 . S
C553 C551 1.433 . S
C553 N556 1.384 1_556 S
C554 H545 0.929 . S
C554 C546 1.378 . S
C554 C549 1.350 . S
C555 H542 0.929 . S
C555 C547 1.433 . S
C555 N557 1.384 . S
N556 C552 1.427 . S
N556 C553 1.384 1_554 S
N557 C549 1.427 . S
N557 C555 1.384 . S
H558 C564 0.930 . S
H559 C568 0.930 . S
H560 C573 0.929 . S
H561 C571 0.929 . S
H562 C566 0.929 . S
H563 C572 0.929 . S
C564 H558 0.930 . S
C564 C565 1.367 . S
C564 C572 1.378 . S
C565 C564 1.367 . S
C565 C573 1.433 . S
C566 H562 0.929 . S
C566 C568 1.378 1_554 S
C566 C570 1.350 . S
C567 C570 1.463 . S
C567 C572 1.350 . S
C567 N575 1.427 . S
C568 H559 0.930 . S
C568 C566 1.378 1_556 S
C568 C569 1.367 . S
C569 C568 1.367 . S
C569 C571 1.433 . S
C570 C566 1.350 . S
C570 C567 1.463 . S
C570 N574 1.427 . S
C571 H561 0.929 . S
C571 C569 1.433 . S
C571 N574 1.384 1_556 S
C572 H563 0.929 . S
C572 C564 1.378 . S
C572 C567 1.350 . S
C573 H560 0.929 . S
C573 C565 1.433 . S
C573 N575 1.384 . S
N574 C570 1.427 . S
N574 C571 1.384 1_554 S
N575 C567 1.427 . S
N575 C573 1.384 . S
H576 C582 0.930 . S
H577 C586 0.930 . S
H578 C591 0.929 . S
H579 C589 0.929 . S
H580 C584 0.929 . S
H581 C590 0.929 . S
C582 H576 0.930 . S
C582 C583 1.367 . S
C582 C590 1.378 . S
C583 C582 1.367 . S
C583 C591 1.433 . S
C584 H580 0.929 . S
C584 C586 1.378 . S
C584 C588 1.350 . S
C585 C588 1.463 . S
C585 C590 1.350 . S
C585 N593 1.427 . S
C586 H577 0.930 . S
C586 C584 1.378 . S
C586 C587 1.367 . S
C587 C586 1.367 . S
C587 C589 1.433 . S
C588 C584 1.350 . S
C588 C585 1.463 . S
C588 N592 1.427 . S
C589 H579 0.929 . S
C589 C587 1.433 . S
C589 N592 1.384 . S
C590 H581 0.929 . S
C590 C582 1.378 . S
C590 C585 1.350 . S
C591 H578 0.929 . S
C591 C583 1.433 . S
C591 N593 1.384 . S
N592 C588 1.427 . S
N592 C589 1.384 . S
N593 C585 1.427 . S
N593 C591 1.384 . S
H594 C600 0.930 . S
H595 C604 0.930 . S
H596 C609 0.929 . S
H597 C607 0.929 . S
H598 C602 0.929 . S
H599 C608 0.929 . S
C600 H594 0.930 . S
C600 C601 1.367 . S
C600 C608 1.378 . S
C601 C600 1.367 . S
C601 C609 1.433 . S
C602 H598 0.929 . S
C602 C604 1.378 . S
C602 C606 1.350 . S
C603 C606 1.463 . S
C603 C608 1.350 . S
C603 N611 1.427 . S
C604 H595 0.930 . S
C604 C602 1.378 . S
C604 C605 1.367 . S
C605 C604 1.367 . S
C605 C607 1.433 . S
C606 C602 1.350 . S
C606 C603 1.463 . S
C606 N610 1.427 . S
C607 H597 0.929 . S
C607 C605 1.433 . S
C607 N610 1.384 . S
C608 H599 0.929 . S
C608 C600 1.378 . S
C608 C603 1.350 . S
C609 H596 0.929 . S
C609 C601 1.433 . S
C609 N611 1.384 . S
N610 C606 1.427 . S
N610 C607 1.384 . S
N611 C603 1.427 . S
N611 C609 1.384 . S
H612 C618 0.930 . S
H613 C622 0.930 . S
H614 C627 0.929 . S
H615 C625 0.929 . S
H616 C620 0.929 . S
H617 C626 0.929 . S
C618 H612 0.930 . S
C618 C619 1.367 . S
C618 C626 1.378 . S
C619 C618 1.367 . S
C619 C627 1.433 . S
C620 H616 0.929 . S
C620 C622 1.378 . S
C620 C624 1.350 . S
C621 C624 1.463 . S
C621 C626 1.350 . S
C621 N629 1.427 . S
C622 H613 0.930 . S
C622 C620 1.378 . S
C622 C623 1.367 . S
C623 C622 1.367 . S
C623 C625 1.433 . S
C624 C620 1.350 . S
C624 C621 1.463 . S
C624 N628 1.427 . S
C625 H615 0.929 . S
C625 C623 1.433 . S
C625 N628 1.384 . S
C626 H617 0.929 . S
C626 C618 1.378 . S
C626 C621 1.350 . S
C627 H614 0.929 . S
C627 C619 1.433 . S
C627 N629 1.384 . S
N628 C624 1.427 . S
N628 C625 1.384 . S
N629 C621 1.427 . S
N629 C627 1.384 . S
H630 C636 0.930 . S
H631 C640 0.930 . S
H632 C645 0.929 . S
H633 C643 0.929 . S
H634 C638 0.929 . S
H635 C644 0.929 . S
C636 H630 0.930 . S
C636 C637 1.367 . S
C636 C644 1.378 . S
C637 C636 1.367 . S
C637 C645 1.433 . S
C638 H634 0.929 . S
C638 C640 1.378 1_556 S
C638 C642 1.350 . S
C639 C642 1.463 . S
C639 C644 1.350 . S
C639 N647 1.427 . S
C640 H631 0.930 . S
C640 C638 1.378 1_554 S
C640 C641 1.367 . S
C641 C640 1.367 . S
C641 C643 1.433 . S
C642 C638 1.350 . S
C642 C639 1.463 . S
C642 N646 1.427 . S
C643 H633 0.929 . S
C643 C641 1.433 . S
C643 N646 1.384 1_554 S
C644 H635 0.929 . S
C644 C636 1.378 . S
C644 C639 1.350 . S
C645 H632 0.929 . S
C645 C637 1.433 . S
C645 N647 1.384 . S
N646 C642 1.427 . S
N646 C643 1.384 1_556 S
N647 C639 1.427 . S
N647 C645 1.384 . S
H648 C654 0.930 . S
H649 C658 0.930 . S
H650 C663 0.929 . S
H651 C661 0.929 . S
H652 C656 0.929 . S
H653 C662 0.929 . S
C654 H648 0.930 . S
C654 C655 1.367 . S
C654 C662 1.378 1_554 S
C655 C654 1.367 . S
C655 C663 1.433 . S
C656 H652 0.929 . S
C656 C658 1.378 . S
C656 C660 1.350 . S
C657 C660 1.463 . S
C657 C662 1.350 . S
C657 N665 1.427 . S
C658 H649 0.930 . S
C658 C656 1.378 . S
C658 C659 1.367 . S
C659 C658 1.367 . S
C659 C661 1.433 . S
C660 C656 1.350 . S
C660 C657 1.463 . S
C660 N664 1.427 . S
C661 H651 0.929 . S
C661 C659 1.433 . S
C661 N664 1.384 . S
C662 H653 0.929 . S
C662 C654 1.378 1_556 S
C662 C657 1.350 . S
C663 H650 0.929 . S
C663 C655 1.433 . S
C663 N665 1.384 1_554 S
N664 C660 1.427 . S
N664 C661 1.384 . S
N665 C657 1.427 . S
N665 C663 1.384 1_556 S
H666 C672 0.930 . S
H667 C676 0.930 . S
H668 C681 0.929 . S
H669 C679 0.929 . S
H670 C674 0.929 . S
H671 C680 0.929 . S
C672 H666 0.930 . S
C672 C673 1.367 . S
C672 C680 1.378 . S
C673 C672 1.367 . S
C673 C681 1.433 . S
C674 H670 0.929 . S
C674 C676 1.378 1_556 S
C674 C678 1.350 . S
C675 C678 1.463 . S
C675 C680 1.350 . S
C675 N683 1.427 . S
C676 H667 0.930 . S
C676 C674 1.378 1_554 S
C676 C677 1.367 . S
C677 C676 1.367 . S
C677 C679 1.433 . S
C678 C674 1.350 . S
C678 C675 1.463 . S
C678 N682 1.427 . S
C679 H669 0.929 . S
C679 C677 1.433 . S
C679 N682 1.384 1_554 S
C680 H671 0.929 . S
C680 C672 1.378 . S
C680 C675 1.350 . S
C681 H668 0.929 . S
C681 C673 1.433 . S
C681 N683 1.384 . S
N682 C678 1.427 . S
N682 C679 1.384 1_556 S
N683 C675 1.427 . S
N683 C681 1.384 . S
H684 C690 0.930 . S
H685 C694 0.930 . S
H686 C699 0.929 . S
H687 C697 0.929 . S
H688 C692 0.929 . S
H689 C698 0.929 . S
C690 H684 0.930 . S
C690 C691 1.367 1_455 S
C690 C698 1.378 . S
C691 C690 1.367 1_655 S
C691 C699 1.433 . S
C692 H688 0.929 . S
C692 C694 1.378 . S
C692 C696 1.353 . S
C693 C696 1.464 . S
C693 C698 1.350 1_655 S
C693 N701 1.427 . S
C694 H685 0.930 . S
C694 C692 1.378 . S
C694 C695 1.367 1_655 S
C695 C694 1.367 1_455 S
C695 C697 1.433 . S
C696 C692 1.353 . S
C696 C693 1.464 . S
C696 N700 1.423 1_655 S
C697 H687 0.929 . S
C697 C695 1.433 . S
C697 N700 1.384 . S
C698 H689 0.929 . S
C698 C690 1.378 . S
C698 C693 1.350 1_455 S
C699 H686 0.929 . S
C699 C691 1.433 . S
C699 N701 1.384 . S
N700 C696 1.423 1_455 S
N700 C697 1.384 . S
N701 C693 1.427 . S
N701 C699 1.384 . S
H702 C708 0.930 . S
H703 C712 0.930 . S
H704 C717 0.929 . S
H705 C715 0.929 . S
H706 C710 0.929 . S
H707 C716 0.929 . S
C708 H702 0.930 . S
C708 C709 1.367 . S
C708 C716 1.378 . S
C709 C708 1.367 . S
C709 C717 1.433 . S
C710 H706 0.929 . S
C710 C712 1.378 . S
C710 C714 1.350 . S
C711 C714 1.463 . S
C711 C716 1.350 . S
C711 N719 1.427 . S
C712 H703 0.930 . S
C712 C710 1.378 . S
C712 C713 1.367 . S
C713 C712 1.367 . S
C713 C715 1.433 . S
C714 C710 1.350 . S
C714 C711 1.463 . S
C714 N718 1.427 . S
C715 H705 0.929 . S
C715 C713 1.433 . S
C715 N718 1.384 . S
C716 H707 0.929 . S
C716 C708 1.378 . S
C716 C711 1.350 . S
C717 H704 0.929 . S
C717 C709 1.433 . S
C717 N719 1.384 . S
N718 C714 1.427 . S
N718 C715 1.384 . S
N719 C711 1.427 . S
N719 C717 1.384 . S
H720 C726 0.930 . S
H721 C730 0.930 . S
H722 C735 0.929 . S
H723 C733 0.929 . S
H724 C728 0.929 . S
H725 C734 0.929 . S
C726 H720 0.930 . S
C726 C727 1.367 . S
C726 C734 1.378 . S
C727 C726 1.367 . S
C727 C735 1.433 1_545 S
C728 H724 0.929 . S
C728 C730 1.378 . S
C728 C732 1.371 . S
C729 C732 1.453 1_545 S
C729 C734 1.350 . S
C729 N737 1.427 1_545 S
C730 H721 0.930 . S
C730 C728 1.378 . S
C730 C731 1.367 . S
C731 C730 1.367 . S
C731 C733 1.433 1_565 S
C732 C728 1.371 . S
C732 C729 1.453 1_565 S
C732 N736 1.418 1_565 S
C733 H723 0.929 . S
C733 C731 1.433 1_545 S
C733 N736 1.384 . S
C734 H725 0.929 . S
C734 C726 1.378 . S
C734 C729 1.350 . S
C735 H722 0.929 . S
C735 C727 1.433 1_565 S
C735 N737 1.384 . S
N736 C732 1.418 1_545 S
N736 C733 1.384 . S
N737 C729 1.427 1_565 S
N737 C735 1.384 . S
H738 C744 0.930 . S
H739 C748 0.930 . S
H740 C753 0.929 . S
H741 C751 0.929 . S
H742 C746 0.929 . S
H743 C752 0.929 . S
C744 H738 0.930 . S
C744 C745 1.367 1_565 S
C744 C752 1.378 . S
C745 C744 1.367 1_545 S
C745 C753 1.433 . S
C746 H742 0.929 . S
C746 C748 1.378 . S
C746 C750 1.350 1_545 S
C747 C750 1.463 . S
C747 C752 1.353 . S
C747 N755 1.423 1_565 S
C748 H739 0.930 . S
C748 C746 1.378 . S
C748 C749 1.367 1_545 S
C749 C748 1.367 1_565 S
C749 C751 1.433 . S
C750 C746 1.350 1_565 S
C750 C747 1.463 . S
C750 N754 1.427 . S
C751 H741 0.929 . S
C751 C749 1.433 . S
C751 N754 1.384 . S
C752 H743 0.929 . S
C752 C744 1.378 . S
C752 C747 1.353 . S
C753 H740 0.929 . S
C753 C745 1.433 . S
C753 N755 1.384 . S
N754 C750 1.427 . S
N754 C751 1.384 . S
N755 C747 1.423 1_545 S
N755 C753 1.384 . S
H756 C762 0.930 . S
H757 C766 0.893 1_655 S
H758 C771 0.929 . S
H759 C769 0.929 . S
H760 C764 0.929 . S
H761 C770 0.929 . S
C762 H756 0.930 . S
C762 C763 1.367 1_455 S
C762 C770 1.378 . S
C763 C762 1.367 1_655 S
C763 C771 1.433 . S
C764 H760 0.929 . S
C764 C766 1.369 1_655 S
C764 C768 1.350 1_655 S
C765 C768 1.462 . S
C765 C770 1.346 . S
C765 N773 1.432 1_455 S
C766 H757 0.893 1_455 S
C766 C764 1.369 1_455 S
C766 C767 1.415 . S
C767 C766 1.415 . S
C767 C769 1.433 . S
C768 C764 1.350 1_455 S
C768 C765 1.462 . S
C768 N772 1.427 . S
C769 H759 0.929 . S
C769 C767 1.433 . S
C769 N772 1.384 . S
C770 H761 0.929 . S
C770 C762 1.378 . S
C770 C765 1.346 . S
C771 H758 0.929 . S
C771 C763 1.433 . S
C771 N773 1.384 . S
N772 C768 1.427 . S
N772 C769 1.384 . S
N773 C765 1.432 1_655 S
N773 C771 1.384 . S
H774 C780 0.930 . S
H775 C784 0.930 . S
H776 C789 0.929 . S
H777 C787 0.929 . S
H778 C782 0.929 . S
H779 C788 0.929 . S
C780 H774 0.930 . S
C780 C781 1.367 . S
C780 C788 1.378 . S
C781 C780 1.367 . S
C781 C789 1.433 . S
C782 H778 0.929 . S
C782 C784 1.378 . S
C782 C786 1.350 . S
C783 C786 1.463 . S
C783 C788 1.350 . S
C783 N791 1.427 . S
C784 H775 0.930 . S
C784 C782 1.378 . S
C784 C785 1.367 . S
C785 C784 1.367 . S
C785 C787 1.433 . S
C786 C782 1.350 . S
C786 C783 1.463 . S
C786 N790 1.427 . S
C787 H777 0.929 . S
C787 C785 1.433 . S
C787 N790 1.384 . S
C788 H779 0.929 . S
C788 C780 1.378 . S
C788 C783 1.350 . S
C789 H776 0.929 . S
C789 C781 1.433 . S
C789 N791 1.384 . S
N790 C786 1.427 . S
N790 C787 1.384 . S
N791 C783 1.427 . S
N791 C789 1.384 . S
H792 C798 0.930 . S
H793 C802 0.930 . S
H794 C807 0.929 . S
H795 C805 0.929 . S
H796 C800 0.929 . S
H797 C806 0.929 . S
C798 H792 0.930 . S
C798 C799 1.367 . S
C798 C806 1.378 . S
C799 C798 1.367 . S
C799 C807 1.433 . S
C800 H796 0.929 . S
C800 C802 1.378 . S
C800 C804 1.350 . S
C801 C804 1.463 . S
C801 C806 1.350 . S
C801 N809 1.427 . S
C802 H793 0.930 . S
C802 C800 1.378 . S
C802 C803 1.367 . S
C803 C802 1.367 . S
C803 C805 1.433 . S
C804 C800 1.350 . S
C804 C801 1.463 . S
C804 N808 1.427 . S
C805 H795 0.929 . S
C805 C803 1.433 . S
C805 N808 1.384 . S
C806 H797 0.929 . S
C806 C798 1.378 . S
C806 C801 1.350 . S
C807 H794 0.929 . S
C807 C799 1.433 . S
C807 N809 1.384 . S
N808 C804 1.427 . S
N808 C805 1.384 . S
N809 C801 1.427 . S
N809 C807 1.384 . S
H810 C816 0.930 . S
H811 C820 0.930 . S
H812 C825 0.929 . S
H813 C823 0.929 . S
H814 C818 0.929 . S
H815 C824 0.929 . S
C816 H810 0.930 . S
C816 C817 1.367 . S
C816 C824 1.378 . S
C817 C816 1.367 . S
C817 C825 1.433 . S
C818 H814 0.929 . S
C818 C820 1.378 . S
C818 C822 1.350 . S
C819 C822 1.463 . S
C819 C824 1.350 . S
C819 N827 1.427 . S
C820 H811 0.930 . S
C820 C818 1.378 . S
C820 C821 1.367 . S
C821 C820 1.367 . S
C821 C823 1.433 . S
C822 C818 1.350 . S
C822 C819 1.463 . S
C822 N826 1.427 . S
C823 H813 0.929 . S
C823 C821 1.433 . S
C823 N826 1.384 . S
C824 H815 0.929 . S
C824 C816 1.378 . S
C824 C819 1.350 . S
C825 H812 0.929 . S
C825 C817 1.433 . S
C825 N827 1.384 . S
N826 C822 1.427 . S
N826 C823 1.384 . S
N827 C819 1.427 . S
N827 C825 1.384 . S
H828 C834 0.930 . S
H829 C838 0.930 . S
H830 C843 0.929 . S
H831 C841 0.929 . S
H832 C836 0.929 . S
H833 C842 0.929 . S
C834 H828 0.930 . S
C834 C835 1.367 . S
C834 C842 1.378 . S
C835 C834 1.367 . S
C835 C843 1.433 . S
C836 H832 0.929 . S
C836 C838 1.378 . S
C836 C840 1.350 . S
C837 C840 1.463 . S
C837 C842 1.350 . S
C837 N845 1.427 . S
C838 H829 0.930 . S
C838 C836 1.378 . S
C838 C839 1.367 . S
C839 C838 1.367 . S
C839 C841 1.433 . S
C840 C836 1.350 . S
C840 C837 1.463 . S
C840 N844 1.427 . S
C841 H831 0.929 . S
C841 C839 1.433 . S
C841 N844 1.384 . S
C842 H833 0.929 . S
C842 C834 1.378 . S
C842 C837 1.350 . S
C843 H830 0.929 . S
C843 C835 1.433 . S
C843 N845 1.384 . S
N844 C840 1.427 . S
N844 C841 1.384 . S
N845 C837 1.427 . S
N845 C843 1.384 . S
H846 C852 0.930 . S
H847 C856 0.930 . S
H848 C861 0.929 . S
H849 C859 0.929 . S
H850 C854 0.929 . S
H851 C860 0.929 . S
C852 H846 0.930 . S
C852 C853 1.367 . S
C852 C860 1.378 . S
C853 C852 1.367 . S
C853 C861 1.433 . S
C854 H850 0.929 . S
C854 C856 1.378 . S
C854 C858 1.350 . S
C855 C858 1.463 . S
C855 C860 1.350 . S
C855 N863 1.427 . S
C856 H847 0.930 . S
C856 C854 1.378 . S
C856 C857 1.367 . S
C857 C856 1.367 . S
C857 C859 1.433 . S
C858 C854 1.350 . S
C858 C855 1.463 . S
C858 N862 1.427 . S
C859 H849 0.929 . S
C859 C857 1.433 . S
C859 N862 1.384 . S
C860 H851 0.929 . S
C860 C852 1.378 . S
C860 C855 1.350 . S
C861 H848 0.929 . S
C861 C853 1.433 . S
C861 N863 1.384 . S
N862 C858 1.427 . S
N862 C859 1.384 . S
N863 C855 1.427 . S
N863 C861 1.384 . S
H864 C870 0.930 . S
H865 C874 0.930 . S
H866 C879 0.929 . S
H867 C877 0.929 . S
H868 C872 0.929 . S
H869 C878 0.929 . S
C870 H864 0.930 . S
C870 C871 1.367 . S
C870 C878 1.378 . S
C871 C870 1.367 . S
C871 C879 1.433 . S
C872 H868 0.929 . S
C872 C874 1.378 . S
C872 C876 1.350 . S
C873 C876 1.463 . S
C873 C878 1.350 . S
C873 N881 1.427 . S
C874 H865 0.930 . S
C874 C872 1.378 . S
C874 C875 1.367 . S
C875 C874 1.367 . S
C875 C877 1.433 . S
C876 C872 1.350 . S
C876 C873 1.463 . S
C876 N880 1.427 . S
C877 H867 0.929 . S
C877 C875 1.433 . S
C877 N880 1.384 . S
C878 H869 0.929 . S
C878 C870 1.378 . S
C878 C873 1.350 . S
C879 H866 0.929 . S
C879 C871 1.433 . S
C879 N881 1.384 . S
N880 C876 1.427 . S
N880 C877 1.384 . S
N881 C873 1.427 . S
N881 C879 1.384 . S
H882 C888 0.930 . S
H883 C892 0.930 . S
H884 C897 0.929 . S
H885 C895 0.929 . S
H886 C890 0.929 . S
H887 C896 0.929 . S
C888 H882 0.930 . S
C888 C889 1.367 . S
C888 C896 1.378 . S
C889 C888 1.367 . S
C889 C897 1.433 . S
C890 H886 0.929 . S
C890 C892 1.378 . S
C890 C894 1.350 . S
C891 C894 1.463 . S
C891 C896 1.350 . S
C891 N899 1.427 . S
C892 H883 0.930 . S
C892 C890 1.378 . S
C892 C893 1.367 . S
C893 C892 1.367 . S
C893 C895 1.433 . S
C894 C890 1.350 . S
C894 C891 1.463 . S
C894 N898 1.427 . S
C895 H885 0.929 . S
C895 C893 1.433 . S
C895 N898 1.384 . S
C896 H887 0.929 . S
C896 C888 1.378 . S
C896 C891 1.350 . S
C897 H884 0.929 . S
C897 C889 1.433 . S
C897 N899 1.384 . S
N898 C894 1.427 . S
N898 C895 1.384 . S
N899 C891 1.427 . S
N899 C897 1.384 . S
H900 C906 0.930 . S
H901 C910 0.930 . S
H902 C915 0.929 . S
H903 C913 0.929 . S
H904 C908 0.929 . S
H905 C914 0.929 . S
C906 H900 0.930 . S
C906 C907 1.367 . S
C906 C914 1.378 . S
C907 C906 1.367 . S
C907 C915 1.433 . S
C908 H904 0.929 . S
C908 C910 1.378 . S
C908 C912 1.350 . S
C909 C912 1.463 . S
C909 C914 1.350 . S
C909 N917 1.427 . S
C910 H901 0.930 . S
C910 C908 1.378 . S
C910 C911 1.367 . S
C911 C910 1.367 . S
C911 C913 1.433 . S
C912 C908 1.350 . S
C912 C909 1.463 . S
C912 N916 1.427 . S
C913 H903 0.929 . S
C913 C911 1.433 . S
C913 N916 1.384 . S
C914 H905 0.929 . S
C914 C906 1.378 . S
C914 C909 1.350 . S
C915 H902 0.929 . S
C915 C907 1.433 . S
C915 N917 1.384 . S
N916 C912 1.427 . S
N916 C913 1.384 . S
N917 C909 1.427 . S
N917 C915 1.384 . S
H918 C924 0.930 . S
H919 C928 0.930 . S
H920 C933 0.929 . S
H921 C931 0.929 . S
H922 C926 0.929 . S
H923 C932 0.929 . S
C924 H918 0.930 . S
C924 C925 1.367 . S
C924 C932 1.378 . S
C925 C924 1.367 . S
C925 C933 1.433 . S
C926 H922 0.929 . S
C926 C928 1.378 . S
C926 C930 1.350 . S
C927 C930 1.463 . S
C927 C932 1.350 . S
C927 N935 1.427 . S
C928 H919 0.930 . S
C928 C926 1.378 . S
C928 C929 1.367 . S
C929 C928 1.367 . S
C929 C931 1.433 . S
C930 C926 1.350 . S
C930 C927 1.463 . S
C930 N934 1.427 . S
C931 H921 0.929 . S
C931 C929 1.433 . S
C931 N934 1.384 . S
C932 H923 0.929 . S
C932 C924 1.378 . S
C932 C927 1.350 . S
C933 H920 0.929 . S
C933 C925 1.433 . S
C933 N935 1.384 . S
N934 C930 1.427 . S
N934 C931 1.384 . S
N935 C927 1.427 . S
N935 C933 1.384 . S
H936 C942 0.930 . S
H937 C946 0.930 . S
H938 C951 0.929 . S
H939 C949 0.929 . S
H940 C944 0.929 . S
H941 C950 0.929 . S
C942 H936 0.930 . S
C942 C943 1.367 . S
C942 C950 1.378 . S
C943 C942 1.367 . S
C943 C951 1.433 . S
C944 H940 0.929 . S
C944 C946 1.378 . S
C944 C948 1.350 . S
C945 C948 1.463 . S
C945 C950 1.350 . S
C945 N953 1.427 . S
C946 H937 0.930 . S
C946 C944 1.378 . S
C946 C947 1.367 . S
C947 C946 1.367 . S
C947 C949 1.433 . S
C948 C944 1.350 . S
C948 C945 1.463 . S
C948 N952 1.427 . S
C949 H939 0.929 . S
C949 C947 1.433 . S
C949 N952 1.384 . S
C950 H941 0.929 . S
C950 C942 1.378 . S
C950 C945 1.350 . S
C951 H938 0.929 . S
C951 C943 1.433 . S
C951 N953 1.384 . S
N952 C948 1.427 . S
N952 C949 1.384 . S
N953 C945 1.427 . S
N953 C951 1.384 . S
H954 C960 0.930 . S
H955 C964 0.930 . S
H956 C969 0.929 . S
H957 C967 0.929 . S
H958 C962 0.929 . S
H959 C968 0.929 . S
C960 H954 0.930 . S
C960 C961 1.367 . S
C960 C968 1.378 . S
C961 C960 1.367 . S
C961 C969 1.433 . S
C962 H958 0.929 . S
C962 C964 1.378 . S
C962 C966 1.350 . S
C963 C966 1.463 . S
C963 C968 1.350 . S
C963 N971 1.427 . S
C964 H955 0.930 . S
C964 C962 1.378 . S
C964 C965 1.367 . S
C965 C964 1.367 . S
C965 C967 1.433 . S
C966 C962 1.350 . S
C966 C963 1.463 . S
C966 N970 1.427 . S
C967 H957 0.929 . S
C967 C965 1.433 . S
C967 N970 1.384 . S
C968 H959 0.929 . S
C968 C960 1.378 . S
C968 C963 1.350 . S
C969 H956 0.929 . S
C969 C961 1.433 . S
C969 N971 1.384 . S
N970 C966 1.427 . S
N970 C967 1.384 . S
N971 C963 1.427 . S
N971 C969 1.384 . S
H972 C978 0.930 . S
H973 C982 0.930 . S
H974 C987 0.929 . S
H975 C985 0.929 . S
H976 C980 0.929 . S
H977 C986 0.929 . S
C978 H972 0.930 . S
C978 C979 1.367 . S
C978 C986 1.378 . S
C979 C978 1.367 . S
C979 C987 1.433 . S
C980 H976 0.929 . S
C980 C982 1.378 . S
C980 C984 1.350 . S
C981 C984 1.463 . S
C981 C986 1.350 . S
C981 N989 1.427 . S
C982 H973 0.930 . S
C982 C980 1.378 . S
C982 C983 1.367 . S
C983 C982 1.367 . S
C983 C985 1.433 . S
C984 C980 1.350 . S
C984 C981 1.463 . S
C984 N988 1.427 . S
C985 H975 0.929 . S
C985 C983 1.433 . S
C985 N988 1.384 . S
C986 H977 0.929 . S
C986 C978 1.378 . S
C986 C981 1.350 . S
C987 H974 0.929 . S
C987 C979 1.433 . S
C987 N989 1.384 . S
N988 C984 1.427 . S
N988 C985 1.384 . S
N989 C981 1.427 . S
N989 C987 1.384 . S
H990 C996 0.930 . S
H991 C1000 0.930 . S
H992 C1005 0.929 . S
H993 C1003 0.929 . S
H994 C998 0.929 . S
H995 C1004 0.929 . S
C996 H990 0.930 . S
C996 C997 1.367 . S
C996 C1004 1.378 . S
C997 C996 1.367 . S
C997 C1005 1.433 . S
C998 H994 0.929 . S
C998 C1000 1.378 . S
C998 C1002 1.350 . S
C999 C1002 1.463 . S
C999 C1004 1.350 . S
C999 N1007 1.427 . S
C1000 H991 0.930 . S
C1000 C998 1.378 . S
C1000 C1001 1.367 . S
C1001 C1000 1.367 . S
C1001 C1003 1.433 . S
C1002 C998 1.350 . S
C1002 C999 1.463 . S
C1002 N1006 1.427 . S
C1003 H993 0.929 . S
C1003 C1001 1.433 . S
C1003 N1006 1.384 . S
C1004 H995 0.929 . S
C1004 C996 1.378 . S
C1004 C999 1.350 . S
C1005 H992 0.929 . S
C1005 C997 1.433 . S
C1005 N1007 1.384 . S
N1006 C1002 1.427 . S
N1006 C1003 1.384 . S
N1007 C999 1.427 . S
N1007 C1005 1.384 . S
H1008 C1014 0.930 . S
H1009 C1018 0.930 . S
H1010 C1023 0.929 . S
H1011 C1021 0.929 . S
H1012 C1016 0.946 1_655 S
H1013 C1022 0.946 1_455 S
C1014 H1008 0.930 . S
C1014 C1015 1.367 . S
C1014 C1022 1.364 . S
C1015 C1014 1.367 . S
C1015 C1023 1.433 . S
C1016 H1012 0.946 1_455 S
C1016 C1018 1.363 . S
C1016 C1020 1.340 . S
C1017 C1020 1.525 1_655 S
C1017 C1022 1.340 . S
C1017 N1025 1.423 . S
C1018 H1009 0.930 . S
C1018 C1016 1.363 . S
C1018 C1019 1.367 . S
C1019 C1018 1.367 . S
C1019 C1021 1.433 . S
C1020 C1016 1.340 . S
C1020 C1017 1.525 1_455 S
C1020 N1024 1.423 . S
C1021 H1011 0.929 . S
C1021 C1019 1.433 . S
C1021 N1024 1.384 . S
C1022 H1013 0.946 1_655 S
C1022 C1014 1.364 . S
C1022 C1017 1.340 . S
C1023 H1010 0.929 . S
C1023 C1015 1.433 . S
C1023 N1025 1.384 . S
N1024 C1020 1.423 . S
N1024 C1021 1.384 . S
N1025 C1017 1.423 . S
N1025 C1023 1.384 . S
H1026 C1032 0.930 . S
H1027 C1036 0.930 . S
H1028 C1041 0.929 . S
H1029 C1039 0.929 . S
H1030 C1034 0.929 . S
H1031 C1040 0.929 . S
C1032 H1026 0.930 . S
C1032 C1033 1.367 . S
C1032 C1040 1.378 . S
C1033 C1032 1.367 . S
C1033 C1041 1.433 . S
C1034 H1030 0.929 . S
C1034 C1036 1.378 . S
C1034 C1038 1.350 . S
C1035 C1038 1.463 . S
C1035 C1040 1.350 . S
C1035 N1043 1.427 . S
C1036 H1027 0.930 . S
C1036 C1034 1.378 . S
C1036 C1037 1.367 . S
C1037 C1036 1.367 . S
C1037 C1039 1.433 . S
C1038 C1034 1.350 . S
C1038 C1035 1.463 . S
C1038 N1042 1.427 . S
C1039 H1029 0.929 . S
C1039 C1037 1.433 . S
C1039 N1042 1.384 . S
C1040 H1031 0.929 . S
C1040 C1032 1.378 . S
C1040 C1035 1.350 . S
C1041 H1028 0.929 . S
C1041 C1033 1.433 . S
C1041 N1043 1.384 . S
N1042 C1038 1.427 . S
N1042 C1039 1.384 . S
N1043 C1035 1.427 . S
N1043 C1041 1.384 . S
H1044 C1050 0.930 . S
H1045 C1054 0.930 . S
H1046 C1059 0.929 . S
H1047 C1057 0.929 . S
H1048 C1052 0.929 . S
H1049 C1058 0.929 . S
C1050 H1044 0.930 . S
C1050 C1051 1.367 . S
C1050 C1058 1.378 . S
C1051 C1050 1.367 . S
C1051 C1059 1.433 1_565 S
C1052 H1048 0.929 . S
C1052 C1054 1.378 . S
C1052 C1056 1.350 . S
C1053 C1056 1.463 1_565 S
C1053 C1058 1.350 . S
C1053 N1061 1.427 1_565 S
C1054 H1045 0.930 . S
C1054 C1052 1.378 . S
C1054 C1055 1.367 . S
C1055 C1054 1.367 . S
C1055 C1057 1.433 1_545 S
C1056 C1052 1.350 . S
C1056 C1053 1.463 1_545 S
C1056 N1060 1.427 1_545 S
C1057 H1047 0.929 . S
C1057 C1055 1.433 1_565 S
C1057 N1060 1.384 . S
C1058 H1049 0.929 . S
C1058 C1050 1.378 . S
C1058 C1053 1.350 . S
C1059 H1046 0.929 . S
C1059 C1051 1.433 1_545 S
C1059 N1061 1.384 . S
N1060 C1056 1.427 1_565 S
N1060 C1057 1.384 . S
N1061 C1053 1.427 1_545 S
N1061 C1059 1.384 . S
H1062 C1068 0.930 . S
H1063 C1072 0.930 . S
H1064 C1077 0.929 . S
H1065 C1075 0.929 . S
H1066 C1070 0.929 . S
H1067 C1076 0.929 . S
C1068 H1062 0.930 . S
C1068 C1069 1.367 1_545 S
C1068 C1076 1.378 . S
C1069 C1068 1.367 1_565 S
C1069 C1077 1.433 1_556 S
C1070 H1066 0.929 . S
C1070 C1072 1.378 . S
C1070 C1074 1.346 1_565 S
C1071 C1074 1.476 1_566 S
C1071 C1076 1.338 1_565 S
C1071 N1079 1.430 1_556 S
C1072 H1063 0.930 . S
C1072 C1070 1.378 . S
C1072 C1073 1.367 1_565 S
C1073 C1072 1.367 1_545 S
C1073 C1075 1.433 1_554 S
C1074 C1070 1.346 1_545 S
C1074 C1071 1.476 1_544 S
C1074 N1078 1.428 1_554 S
C1075 H1065 0.929 . S
C1075 C1073 1.433 1_556 S
C1075 N1078 1.384 . S
C1076 H1067 0.929 . S
C1076 C1068 1.378 . S
C1076 C1071 1.338 1_545 S
C1077 H1064 0.929 . S
C1077 C1069 1.433 1_554 S
C1077 N1079 1.384 . S
N1078 C1074 1.428 1_556 S
N1078 C1075 1.384 . S
N1079 C1071 1.430 1_554 S
N1079 C1077 1.384 . S
H1080 C1086 0.930 . S
H1081 C1090 0.930 . S
H1082 C1095 0.929 . S
H1083 C1093 0.929 . S
H1084 C1088 0.929 . S
H1085 C1094 0.929 . S
C1086 H1080 0.930 . S
C1086 C1087 1.367 1_456 S
C1086 C1094 1.378 . S
C1087 C1086 1.367 1_654 S
C1087 C1095 1.433 . S
C1088 H1084 0.929 . S
C1088 C1090 1.378 . S
C1088 C1092 1.348 1_654 S
C1089 C1092 1.463 1_654 S
C1089 C1094 1.345 1_654 S
C1089 N1097 1.432 . S
C1090 H1081 0.930 . S
C1090 C1088 1.378 . S
C1090 C1091 1.367 1_654 S
C1091 C1090 1.367 1_456 S
C1091 C1093 1.433 . S
C1092 C1088 1.348 1_456 S
C1092 C1089 1.463 1_456 S
C1092 N1096 1.430 . S
C1093 H1083 0.929 . S
C1093 C1091 1.433 . S
C1093 N1096 1.384 . S
C1094 H1085 0.929 . S
C1094 C1086 1.378 . S
C1094 C1089 1.345 1_456 S
C1095 H1082 0.929 . S
C1095 C1087 1.433 . S
C1095 N1097 1.384 . S
N1096 C1092 1.430 . S
N1096 C1093 1.384 . S
N1097 C1089 1.432 . S
N1097 C1095 1.384 . S
H1098 C1104 0.930 . S
H1099 C1108 0.930 . S
H1100 C1113 0.929 . S
H1101 C1111 0.929 . S
H1102 C1106 0.929 . S
H1103 C1112 0.929 . S
C1104 H1098 0.930 . S
C1104 C1105 1.367 . S
C1104 C1112 1.378 . S
C1105 C1104 1.367 . S
C1105 C1113 1.433 1_554 S
C1106 H1102 0.929 . S
C1106 C1108 1.378 . S
C1106 C1110 1.350 . S
C1107 C1110 1.463 1_554 S
C1107 C1112 1.350 . S
C1107 N1115 1.427 1_554 S
C1108 H1099 0.930 . S
C1108 C1106 1.378 . S
C1108 C1109 1.367 . S
C1109 C1108 1.367 . S
C1109 C1111 1.433 1_556 S
C1110 C1106 1.350 . S
C1110 C1107 1.463 1_556 S
C1110 N1114 1.427 1_556 S
C1111 H1101 0.929 . S
C1111 C1109 1.433 1_554 S
C1111 N1114 1.384 . S
C1112 H1103 0.929 . S
C1112 C1104 1.378 . S
C1112 C1107 1.350 . S
C1113 H1100 0.929 . S
C1113 C1105 1.433 1_556 S
C1113 N1115 1.384 . S
N1114 C1110 1.427 1_554 S
N1114 C1111 1.384 . S
N1115 C1107 1.427 1_556 S
N1115 C1113 1.384 . S
H1116 C1122 0.930 . S
H1117 C1126 0.930 . S
H1118 C1131 0.929 . S
H1119 C1129 0.929 . S
H1120 C1124 0.929 . S
H1121 C1130 0.929 . S
C1122 H1116 0.930 . S
C1122 C1123 1.367 . S
C1122 C1130 1.378 . S
C1123 C1122 1.367 . S
C1123 C1131 1.433 . S
C1124 H1120 0.929 . S
C1124 C1126 1.378 . S
C1124 C1128 1.350 . S
C1125 C1128 1.463 . S
C1125 C1130 1.350 . S
C1125 N1133 1.427 . S
C1126 H1117 0.930 . S
C1126 C1124 1.378 . S
C1126 C1127 1.367 . S
C1127 C1126 1.367 . S
C1127 C1129 1.433 . S
C1128 C1124 1.350 . S
C1128 C1125 1.463 . S
C1128 N1132 1.427 . S
C1129 H1119 0.929 . S
C1129 C1127 1.433 . S
C1129 N1132 1.384 . S
C1130 H1121 0.929 . S
C1130 C1122 1.378 . S
C1130 C1125 1.350 . S
C1131 H1118 0.929 . S
C1131 C1123 1.433 . S
C1131 N1133 1.384 . S
N1132 C1128 1.427 . S
N1132 C1129 1.384 . S
N1133 C1125 1.427 . S
N1133 C1131 1.384 . S
H1134 C1140 0.930 . S
H1135 C1144 0.930 . S
H1136 C1149 0.929 . S
H1137 C1147 0.929 1_556 S
H1138 C1142 0.929 . S
H1139 C1148 0.929 . S
C1140 H1134 0.930 . S
C1140 C1141 1.367 . S
C1140 C1148 1.378 . S
C1141 C1140 1.367 . S
C1141 C1149 1.433 . S
C1142 H1138 0.929 . S
C1142 C1144 1.378 . S
C1142 C1146 1.350 . S
C1143 C1146 1.463 . S
C1143 C1148 1.350 . S
C1143 N1151 1.427 . S
C1144 H1135 0.930 . S
C1144 C1142 1.378 . S
C1144 C1145 1.367 . S
C1145 C1144 1.367 . S
C1145 C1147 1.433 . S
C1146 C1142 1.350 . S
C1146 C1143 1.463 . S
C1146 N1150 1.427 . S
C1147 H1137 0.929 1_554 S
C1147 C1145 1.433 . S
C1147 N1150 1.384 . S
C1148 H1139 0.929 . S
C1148 C1140 1.378 . S
C1148 C1143 1.350 . S
C1149 H1136 0.929 . S
C1149 C1141 1.433 . S
C1149 N1151 1.384 . S
N1150 C1146 1.427 . S
N1150 C1147 1.384 . S
N1151 C1143 1.427 . S
N1151 C1149 1.384 . S
H1152 C1158 0.930 . S
H1153 C1162 0.930 . S
H1154 C1167 0.929 . S
H1155 C1165 0.929 1_556 S
H1156 C1160 0.929 . S
H1157 C1166 0.929 . S
C1158 H1152 0.930 . S
C1158 C1159 1.367 . S
C1158 C1166 1.378 . S
C1159 C1158 1.367 . S
C1159 C1167 1.433 . S
C1160 H1156 0.929 . S
C1160 C1162 1.378 . S
C1160 C1164 1.350 . S
C1161 C1164 1.463 . S
C1161 C1166 1.350 . S
C1161 N1169 1.427 . S
C1162 H1153 0.930 . S
C1162 C1160 1.378 . S
C1162 C1163 1.367 . S
C1163 C1162 1.367 . S
C1163 C1165 1.433 . S
C1164 C1160 1.350 . S
C1164 C1161 1.463 . S
C1164 N1168 1.427 . S
C1165 H1155 0.929 1_554 S
C1165 C1163 1.433 . S
C1165 N1168 1.384 . S
C1166 H1157 0.929 . S
C1166 C1158 1.378 . S
C1166 C1161 1.350 . S
C1167 H1154 0.929 . S
C1167 C1159 1.433 . S
C1167 N1169 1.384 . S
N1168 C1164 1.427 . S
N1168 C1165 1.384 . S
N1169 C1161 1.427 . S
N1169 C1167 1.384 . S
H1170 C1176 0.930 . S
H1171 C1180 0.930 . S
H1172 C1185 0.929 . S
H1173 C1183 0.929 . S
H1174 C1178 0.929 . S
H1175 C1184 0.929 . S
C1176 H1170 0.930 . S
C1176 C1177 1.367 . S
C1176 C1184 1.378 . S
C1177 C1176 1.367 . S
C1177 C1185 1.433 . S
C1178 H1174 0.929 . S
C1178 C1180 1.378 . S
C1178 C1182 1.350 . S
C1179 C1182 1.463 . S
C1179 C1184 1.350 . S
C1179 N1187 1.427 . S
C1180 H1171 0.930 . S
C1180 C1178 1.378 . S
C1180 C1181 1.367 . S
C1181 C1180 1.367 . S
C1181 C1183 1.433 . S
C1182 C1178 1.350 . S
C1182 C1179 1.463 . S
C1182 N1186 1.427 . S
C1183 H1173 0.929 . S
C1183 C1181 1.433 . S
C1183 N1186 1.384 . S
C1184 H1175 0.929 . S
C1184 C1176 1.378 . S
C1184 C1179 1.350 . S
C1185 H1172 0.929 . S
C1185 C1177 1.433 . S
C1185 N1187 1.384 . S
N1186 C1182 1.427 . S
N1186 C1183 1.384 . S
N1187 C1179 1.427 . S
N1187 C1185 1.384 . S
H1188 C1194 0.930 . S
H1189 C1198 0.930 . S
H1190 C1203 0.929 . S
H1191 C1201 0.929 . S
H1192 C1196 0.929 . S
H1193 C1202 0.929 . S
C1194 H1188 0.930 . S
C1194 C1195 1.367 . S
C1194 C1202 1.378 . S
C1195 C1194 1.367 . S
C1195 C1203 1.433 . S
C1196 H1192 0.929 . S
C1196 C1198 1.378 . S
C1196 C1200 1.350 . S
C1197 C1200 1.463 . S
C1197 C1202 1.350 . S
C1197 N1205 1.427 . S
C1198 H1189 0.930 . S
C1198 C1196 1.378 . S
C1198 C1199 1.367 . S
C1199 C1198 1.367 . S
C1199 C1201 1.433 . S
C1200 C1196 1.350 . S
C1200 C1197 1.463 . S
C1200 N1204 1.427 . S
C1201 H1191 0.929 . S
C1201 C1199 1.433 . S
C1201 N1204 1.384 . S
C1202 H1193 0.929 . S
C1202 C1194 1.378 . S
C1202 C1197 1.350 . S
C1203 H1190 0.929 . S
C1203 C1195 1.433 . S
C1203 N1205 1.384 . S
N1204 C1200 1.427 . S
N1204 C1201 1.384 . S
N1205 C1197 1.427 . S
N1205 C1203 1.384 . S
H1206 C1212 0.930 . S
H1207 C1216 0.930 . S
H1208 C1221 0.929 . S
H1209 C1219 0.929 . S
H1210 C1214 0.929 . S
H1211 C1220 0.929 . S
C1212 H1206 0.930 . S
C1212 C1213 1.367 . S
C1212 C1220 1.378 . S
C1213 C1212 1.367 . S
C1213 C1221 1.433 . S
C1214 H1210 0.929 . S
C1214 C1216 1.378 . S
C1214 C1218 1.350 . S
C1215 C1218 1.463 . S
C1215 C1220 1.350 . S
C1215 N1223 1.427 . S
C1216 H1207 0.930 . S
C1216 C1214 1.378 . S
C1216 C1217 1.367 . S
C1217 C1216 1.367 . S
C1217 C1219 1.433 . S
C1218 C1214 1.350 . S
C1218 C1215 1.463 . S
C1218 N1222 1.427 . S
C1219 H1209 0.929 . S
C1219 C1217 1.433 . S
C1219 N1222 1.384 . S
C1220 H1211 0.929 . S
C1220 C1212 1.378 . S
C1220 C1215 1.350 . S
C1221 H1208 0.929 . S
C1221 C1213 1.433 . S
C1221 N1223 1.384 . S
N1222 C1218 1.427 . S
N1222 C1219 1.384 . S
N1223 C1215 1.427 . S
N1223 C1221 1.384 . S
H1224 C1230 0.930 . S
H1225 C1234 0.930 . S
H1226 C1239 0.929 1_554 S
H1227 C1237 0.929 . S
H1228 C1232 0.929 . S
H1229 C1238 0.929 . S
C1230 H1224 0.930 . S
C1230 C1231 1.367 . S
C1230 C1238 1.378 . S
C1231 C1230 1.367 . S
C1231 C1239 1.433 . S
C1232 H1228 0.929 . S
C1232 C1234 1.378 . S
C1232 C1236 1.350 . S
C1233 C1236 1.463 . S
C1233 C1238 1.350 . S
C1233 N1241 1.427 . S
C1234 H1225 0.930 . S
C1234 C1232 1.378 . S
C1234 C1235 1.367 . S
C1235 C1234 1.367 . S
C1235 C1237 1.433 . S
C1236 C1232 1.350 . S
C1236 C1233 1.463 . S
C1236 N1240 1.427 . S
C1237 H1227 0.929 . S
C1237 C1235 1.433 . S
C1237 N1240 1.384 . S
C1238 H1229 0.929 . S
C1238 C1230 1.378 . S
C1238 C1233 1.350 . S
C1239 H1226 0.929 1_556 S
C1239 C1231 1.433 . S
C1239 N1241 1.384 . S
N1240 C1236 1.427 . S
N1240 C1237 1.384 . S
N1241 C1233 1.427 . S
N1241 C1239 1.384 . S
H1242 C1248 0.930 . S
H1243 C1252 0.930 . S
H1244 C1257 0.929 . S
H1245 C1255 0.936 . S
H1246 C1250 0.929 . S
H1247 C1256 0.929 . S
C1248 H1242 0.930 . S
C1248 C1249 1.367 . S
C1248 C1256 1.378 . S
C1249 C1248 1.367 . S
C1249 C1257 1.433 . S
C1250 H1246 0.929 . S
C1250 C1252 1.378 . S
C1250 C1254 1.350 . S
C1251 C1254 1.463 . S
C1251 C1256 1.350 . S
C1251 N1259 1.427 . S
C1252 H1243 0.930 . S
C1252 C1250 1.378 . S
C1252 C1253 1.367 . S
C1253 C1252 1.367 . S
C1253 C1255 1.429 1_556 S
C1254 C1250 1.350 . S
C1254 C1251 1.463 . S
C1254 N1258 1.427 . S
C1255 H1245 0.936 . S
C1255 C1253 1.429 1_554 S
C1255 N1258 1.380 1_554 S
C1256 H1247 0.929 . S
C1256 C1248 1.378 . S
C1256 C1251 1.350 . S
C1257 H1244 0.929 . S
C1257 C1249 1.433 . S
C1257 N1259 1.384 . S
N1258 C1254 1.427 . S
N1258 C1255 1.380 1_556 S
N1259 C1251 1.427 . S
N1259 C1257 1.384 . S
H1260 C1266 0.930 . S
H1261 C1270 0.930 . S
H1262 C1275 0.929 1_554 S
H1263 C1273 0.929 . S
H1264 C1268 0.929 . S
H1265 C1274 0.929 . S
C1266 H1260 0.930 . S
C1266 C1267 1.367 . S
C1266 C1274 1.378 . S
C1267 C1266 1.367 . S
C1267 C1275 1.433 . S
C1268 H1264 0.929 . S
C1268 C1270 1.378 . S
C1268 C1272 1.350 . S
C1269 C1272 1.463 . S
C1269 C1274 1.350 . S
C1269 N1277 1.427 . S
C1270 H1261 0.930 . S
C1270 C1268 1.378 . S
C1270 C1271 1.367 . S
C1271 C1270 1.367 . S
C1271 C1273 1.433 . S
C1272 C1268 1.350 . S
C1272 C1269 1.463 . S
C1272 N1276 1.427 . S
C1273 H1263 0.929 . S
C1273 C1271 1.433 . S
C1273 N1276 1.384 . S
C1274 H1265 0.929 . S
C1274 C1266 1.378 . S
C1274 C1269 1.350 . S
C1275 H1262 0.929 1_556 S
C1275 C1267 1.433 . S
C1275 N1277 1.384 . S
N1276 C1272 1.427 . S
N1276 C1273 1.384 . S
N1277 C1269 1.427 . S
N1277 C1275 1.384 . S
H1278 C1284 0.930 . S
H1279 C1288 0.930 . S
H1280 C1293 0.929 . S
H1281 C1291 0.929 . S
H1282 C1286 0.929 . S
H1283 C1292 0.929 . S
C1284 H1278 0.930 . S
C1284 C1285 1.367 . S
C1284 C1292 1.378 . S
C1285 C1284 1.367 . S
C1285 C1293 1.433 . S
C1286 H1282 0.929 . S
C1286 C1288 1.378 . S
C1286 C1290 1.350 . S
C1287 C1290 1.463 . S
C1287 C1292 1.350 . S
C1287 N1295 1.427 . S
C1288 H1279 0.930 . S
C1288 C1286 1.378 . S
C1288 C1289 1.367 . S
C1289 C1288 1.367 . S
C1289 C1291 1.433 . S
C1290 C1286 1.350 . S
C1290 C1287 1.463 . S
C1290 N1294 1.427 . S
C1291 H1281 0.929 . S
C1291 C1289 1.433 . S
C1291 N1294 1.384 . S
C1292 H1283 0.929 . S
C1292 C1284 1.378 . S
C1292 C1287 1.350 . S
C1293 H1280 0.929 . S
C1293 C1285 1.433 . S
C1293 N1295 1.384 . S
N1294 C1290 1.427 . S
N1294 C1291 1.384 . S
N1295 C1287 1.427 . S
N1295 C1293 1.384 . S
H1296 C1302 0.930 . S
H1297 C1306 0.930 . S
H1298 C1311 0.929 . S
H1299 C1309 0.929 . S
H1300 C1304 0.929 . S
H1301 C1310 0.929 . S
C1302 H1296 0.930 . S
C1302 C1303 1.367 . S
C1302 C1310 1.378 . S
C1303 C1302 1.367 . S
C1303 C1311 1.433 . S
C1304 H1300 0.929 . S
C1304 C1306 1.378 . S
C1304 C1308 1.350 . S
C1305 C1308 1.463 . S
C1305 C1310 1.350 . S
C1305 N1313 1.427 . S
C1306 H1297 0.930 . S
C1306 C1304 1.378 . S
C1306 C1307 1.367 . S
C1307 C1306 1.367 . S
C1307 C1309 1.433 . S
C1308 C1304 1.350 . S
C1308 C1305 1.463 . S
C1308 N1312 1.427 . S
C1309 H1299 0.929 . S
C1309 C1307 1.433 . S
C1309 N1312 1.384 . S
C1310 H1301 0.929 . S
C1310 C1302 1.378 . S
C1310 C1305 1.350 . S
C1311 H1298 0.929 . S
C1311 C1303 1.433 . S
C1311 N1313 1.384 . S
N1312 C1308 1.427 . S
N1312 C1309 1.384 . S
N1313 C1305 1.427 . S
N1313 C1311 1.384 . S
H1314 C1320 0.930 . S
H1315 C1324 0.930 . S
H1316 C1329 0.929 . S
H1317 C1327 0.929 . S
H1318 C1322 0.929 . S
H1319 C1328 0.929 . S
C1320 H1314 0.930 . S
C1320 C1321 1.367 . S
C1320 C1328 1.378 . S
C1321 C1320 1.367 . S
C1321 C1329 1.433 . S
C1322 H1318 0.929 . S
C1322 C1324 1.378 . S
C1322 C1326 1.350 . S
C1323 C1326 1.463 . S
C1323 C1328 1.350 . S
C1323 N1331 1.427 . S
C1324 H1315 0.930 . S
C1324 C1322 1.378 . S
C1324 C1325 1.367 . S
C1325 C1324 1.367 . S
C1325 C1327 1.433 . S
C1326 C1322 1.350 . S
C1326 C1323 1.463 . S
C1326 N1330 1.427 . S
C1327 H1317 0.929 . S
C1327 C1325 1.433 . S
C1327 N1330 1.384 . S
C1328 H1319 0.929 . S
C1328 C1320 1.378 . S
C1328 C1323 1.350 . S
C1329 H1316 0.929 . S
C1329 C1321 1.433 . S
C1329 N1331 1.384 . S
N1330 C1326 1.427 . S
N1330 C1327 1.384 . S
N1331 C1323 1.427 . S
N1331 C1329 1.384 . S
H1332 C1338 0.930 . S
H1333 C1342 0.930 . S
H1334 C1347 0.929 . S
H1335 C1345 0.929 . S
H1336 C1340 0.929 . S
H1337 C1346 0.929 . S
C1338 H1332 0.930 . S
C1338 C1339 1.367 . S
C1338 C1346 1.378 . S
C1339 C1338 1.367 . S
C1339 C1347 1.433 . S
C1340 H1336 0.929 . S
C1340 C1342 1.378 . S
C1340 C1344 1.350 . S
C1341 C1344 1.463 . S
C1341 C1346 1.350 . S
C1341 N1349 1.427 . S
C1342 H1333 0.930 . S
C1342 C1340 1.378 . S
C1342 C1343 1.367 . S
C1343 C1342 1.367 . S
C1343 C1345 1.433 . S
C1344 C1340 1.350 . S
C1344 C1341 1.463 . S
C1344 N1348 1.427 . S
C1345 H1335 0.929 . S
C1345 C1343 1.433 . S
C1345 N1348 1.384 . S
C1346 H1337 0.929 . S
C1346 C1338 1.378 . S
C1346 C1341 1.350 . S
C1347 H1334 0.929 . S
C1347 C1339 1.433 . S
C1347 N1349 1.384 . S
N1348 C1344 1.427 . S
N1348 C1345 1.384 . S
N1349 C1341 1.427 . S
N1349 C1347 1.384 . S
H1350 C1356 0.930 . S
H1351 C1360 0.930 . S
H1352 C1365 0.929 . S
H1353 C1363 0.929 . S
H1354 C1358 0.929 . S
H1355 C1364 0.929 . S
C1356 H1350 0.930 . S
C1356 C1357 1.367 . S
C1356 C1364 1.378 . S
C1357 C1356 1.367 . S
C1357 C1365 1.433 . S
C1358 H1354 0.929 . S
C1358 C1360 1.378 . S
C1358 C1362 1.350 . S
C1359 C1362 1.463 1_565 S
C1359 C1364 1.350 . S
C1359 N1367 1.427 . S
C1360 H1351 0.930 . S
C1360 C1358 1.378 . S
C1360 C1361 1.367 . S
C1361 C1360 1.367 . S
C1361 C1363 1.433 . S
C1362 C1358 1.350 . S
C1362 C1359 1.463 1_545 S
C1362 N1366 1.427 . S
C1363 H1353 0.929 . S
C1363 C1361 1.433 . S
C1363 N1366 1.384 . S
C1364 H1355 0.929 . S
C1364 C1356 1.378 . S
C1364 C1359 1.350 . S
C1365 H1352 0.929 . S
C1365 C1357 1.433 . S
C1365 N1367 1.384 . S
N1366 C1362 1.427 . S
N1366 C1363 1.384 . S
N1367 C1359 1.427 . S
N1367 C1365 1.384 . S
H1368 C1374 0.930 . S
H1369 C1378 0.930 . S
H1370 C1383 0.929 . S
H1371 C1381 0.929 . S
H1372 C1376 0.929 . S
H1373 C1382 0.929 . S
C1374 H1368 0.930 . S
C1374 C1375 1.367 . S
C1374 C1382 1.378 . S
C1375 C1374 1.367 . S
C1375 C1383 1.433 . S
C1376 H1372 0.929 . S
C1376 C1378 1.378 . S
C1376 C1380 1.350 . S
C1377 C1380 1.463 1_455 S
C1377 C1382 1.350 . S
C1377 N1385 1.427 . S
C1378 H1369 0.930 . S
C1378 C1376 1.378 . S
C1378 C1379 1.367 . S
C1379 C1378 1.367 . S
C1379 C1381 1.433 . S
C1380 C1376 1.350 . S
C1380 C1377 1.463 1_655 S
C1380 N1384 1.427 . S
C1381 H1371 0.929 . S
C1381 C1379 1.433 . S
C1381 N1384 1.384 . S
C1382 H1373 0.929 . S
C1382 C1374 1.378 . S
C1382 C1377 1.350 . S
C1383 H1370 0.929 . S
C1383 C1375 1.433 . S
C1383 N1385 1.384 . S
N1384 C1380 1.427 . S
N1384 C1381 1.384 . S
N1385 C1377 1.427 . S
N1385 C1383 1.384 . S
H1386 C1392 0.930 . S
H1387 C1396 0.930 . S
H1388 C1401 0.929 . S
H1389 C1399 0.929 . S
H1390 C1394 0.929 . S
H1391 C1400 0.929 . S
C1392 H1386 0.930 . S
C1392 C1393 1.367 . S
C1392 C1400 1.378 . S
C1393 C1392 1.367 . S
C1393 C1401 1.433 . S
C1394 H1390 0.929 . S
C1394 C1396 1.378 . S
C1394 C1398 1.350 . S
C1395 C1398 1.463 . S
C1395 C1400 1.350 . S
C1395 N1403 1.427 . S
C1396 H1387 0.930 . S
C1396 C1394 1.378 . S
C1396 C1397 1.367 . S
C1397 C1396 1.367 . S
C1397 C1399 1.433 . S
C1398 C1394 1.350 . S
C1398 C1395 1.463 . S
C1398 N1402 1.427 . S
C1399 H1389 0.929 . S
C1399 C1397 1.433 . S
C1399 N1402 1.384 . S
C1400 H1391 0.929 . S
C1400 C1392 1.378 . S
C1400 C1395 1.350 . S
C1401 H1388 0.929 . S
C1401 C1393 1.433 . S
C1401 N1403 1.384 . S
N1402 C1398 1.427 . S
N1402 C1399 1.384 . S
N1403 C1395 1.427 . S
N1403 C1401 1.384 . S
H1404 C1410 0.930 . S
H1405 C1414 0.930 . S
H1406 C1419 0.929 . S
H1407 C1417 0.929 . S
H1408 C1412 0.929 . S
H1409 C1418 0.929 . S
C1410 H1404 0.930 . S
C1410 C1411 1.367 . S
C1410 C1418 1.378 . S
C1411 C1410 1.367 . S
C1411 C1419 1.433 . S
C1412 H1408 0.929 . S
C1412 C1414 1.378 . S
C1412 C1416 1.350 . S
C1413 C1416 1.463 1_565 S
C1413 C1418 1.350 . S
C1413 N1421 1.427 . S
C1414 H1405 0.930 . S
C1414 C1412 1.378 . S
C1414 C1415 1.367 . S
C1415 C1414 1.367 . S
C1415 C1417 1.433 . S
C1416 C1412 1.350 . S
C1416 C1413 1.463 1_545 S
C1416 N1420 1.427 . S
C1417 H1407 0.929 . S
C1417 C1415 1.433 . S
C1417 N1420 1.384 . S
C1418 H1409 0.929 . S
C1418 C1410 1.378 . S
C1418 C1413 1.350 . S
C1419 H1406 0.929 . S
C1419 C1411 1.433 . S
C1419 N1421 1.384 . S
N1420 C1416 1.427 . S
N1420 C1417 1.384 . S
N1421 C1413 1.427 . S
N1421 C1419 1.384 . S
H1422 C1428 0.930 . S
H1423 C1432 0.930 . S
H1424 C1437 0.929 . S
H1425 C1435 0.929 . S
H1426 C1430 0.929 . S
H1427 C1436 0.929 . S
C1428 H1422 0.930 . S
C1428 C1429 1.367 . S
C1428 C1436 1.378 . S
C1429 C1428 1.367 . S
C1429 C1437 1.433 . S
C1430 H1426 0.929 . S
C1430 C1432 1.378 . S
C1430 C1434 1.350 . S
C1431 C1434 1.463 1_455 S
C1431 C1436 1.350 . S
C1431 N1439 1.427 . S
C1432 H1423 0.930 . S
C1432 C1430 1.378 . S
C1432 C1433 1.367 . S
C1433 C1432 1.367 . S
C1433 C1435 1.433 . S
C1434 C1430 1.350 . S
C1434 C1431 1.463 1_655 S
C1434 N1438 1.427 . S
C1435 H1425 0.929 . S
C1435 C1433 1.433 . S
C1435 N1438 1.384 . S
C1436 H1427 0.929 . S
C1436 C1428 1.378 . S
C1436 C1431 1.350 . S
C1437 H1424 0.929 . S
C1437 C1429 1.433 . S
C1437 N1439 1.384 . S
N1438 C1434 1.427 . S
N1438 C1435 1.384 . S
N1439 C1431 1.427 . S
N1439 C1437 1.384 . S
H1440 C1446 0.930 1_554 S
H1441 C1450 0.930 . S
H1442 C1455 0.929 . S
H1443 C1453 0.929 . S
H1444 C1448 0.929 . S
H1445 C1454 0.929 . S
C1446 H1440 0.930 1_556 S
C1446 C1447 1.367 1_556 S
C1446 C1454 1.378 . S
C1447 C1446 1.367 1_554 S
C1447 C1455 1.433 . S
C1448 H1444 0.929 . S
C1448 C1450 1.378 . S
C1448 C1452 1.350 . S
C1449 C1452 1.463 . S
C1449 C1454 1.350 . S
C1449 N1457 1.427 . S
C1450 H1441 0.930 . S
C1450 C1448 1.378 . S
C1450 C1451 1.367 . S
C1451 C1450 1.367 . S
C1451 C1453 1.433 . S
C1452 C1448 1.350 . S
C1452 C1449 1.463 . S
C1452 N1456 1.427 . S
C1453 H1443 0.929 . S
C1453 C1451 1.433 . S
C1453 N1456 1.384 . S
C1454 H1445 0.929 . S
C1454 C1446 1.378 . S
C1454 C1449 1.350 . S
C1455 H1442 0.929 . S
C1455 C1447 1.433 . S
C1455 N1457 1.384 1_554 S
N1456 C1452 1.427 . S
N1456 C1453 1.384 . S
N1457 C1449 1.427 . S
N1457 C1455 1.384 1_556 S
H1458 C1464 0.930 . S
H1459 C1468 0.930 . S
H1460 C1473 0.929 . S
H1461 C1471 0.929 . S
H1462 C1466 0.929 . S
H1463 C1472 0.929 . S
C1464 H1458 0.930 . S
C1464 C1465 1.367 . S
C1464 C1472 1.378 1_554 S
C1465 C1464 1.367 . S
C1465 C1473 1.433 . S
C1466 H1462 0.929 . S
C1466 C1468 1.378 . S
C1466 C1470 1.350 . S
C1467 C1470 1.463 . S
C1467 C1472 1.350 . S
C1467 N1475 1.427 . S
C1468 H1459 0.930 . S
C1468 C1466 1.378 . S
C1468 C1469 1.367 . S
C1469 C1468 1.367 . S
C1469 C1471 1.433 . S
C1470 C1466 1.350 . S
C1470 C1467 1.463 . S
C1470 N1474 1.427 . S
C1471 H1461 0.929 . S
C1471 C1469 1.433 . S
C1471 N1474 1.384 . S
C1472 H1463 0.929 . S
C1472 C1464 1.378 1_556 S
C1472 C1467 1.350 . S
C1473 H1460 0.929 . S
C1473 C1465 1.433 . S
C1473 N1475 1.384 1_554 S
N1474 C1470 1.427 . S
N1474 C1471 1.384 . S
N1475 C1467 1.427 . S
N1475 C1473 1.384 1_556 S
H1476 C1482 0.930 1_554 S
H1477 C1486 0.930 . S
H1478 C1491 0.929 . S
H1479 C1489 0.929 . S
H1480 C1484 0.929 . S
H1481 C1490 0.929 . S
C1482 H1476 0.930 1_556 S
C1482 C1483 1.367 1_556 S
C1482 C1490 1.378 . S
C1483 C1482 1.367 1_554 S
C1483 C1491 1.433 . S
C1484 H1480 0.929 . S
C1484 C1486 1.378 . S
C1484 C1488 1.350 . S
C1485 C1488 1.463 . S
C1485 C1490 1.350 . S
C1485 N1493 1.427 . S
C1486 H1477 0.930 . S
C1486 C1484 1.378 . S
C1486 C1487 1.367 . S
C1487 C1486 1.367 . S
C1487 C1489 1.433 . S
C1488 C1484 1.350 . S
C1488 C1485 1.463 . S
C1488 N1492 1.427 . S
C1489 H1479 0.929 . S
C1489 C1487 1.433 . S
C1489 N1492 1.384 . S
C1490 H1481 0.929 . S
C1490 C1482 1.378 . S
C1490 C1485 1.350 . S
C1491 H1478 0.929 . S
C1491 C1483 1.433 . S
C1491 N1493 1.384 1_554 S
N1492 C1488 1.427 . S
N1492 C1489 1.384 . S
N1493 C1485 1.427 . S
N1493 C1491 1.384 1_556 S
H1494 C1500 0.930 . S
H1495 C1504 0.930 . S
H1496 C1509 0.929 . S
H1497 C1507 0.929 . S
H1498 C1502 0.929 . S
H1499 C1508 0.929 . S
C1500 H1494 0.930 . S
C1500 C1501 1.367 . S
C1500 C1508 1.378 . S
C1501 C1500 1.367 . S
C1501 C1509 1.433 . S
C1502 H1498 0.929 . S
C1502 C1504 1.378 . S
C1502 C1506 1.350 . S
C1503 C1506 1.463 . S
C1503 C1508 1.350 . S
C1503 N1511 1.427 . S
C1504 H1495 0.930 . S
C1504 C1502 1.378 . S
C1504 C1505 1.367 . S
C1505 C1504 1.367 . S
C1505 C1507 1.433 . S
C1506 C1502 1.350 . S
C1506 C1503 1.463 . S
C1506 N1510 1.427 . S
C1507 H1497 0.929 . S
C1507 C1505 1.433 . S
C1507 N1510 1.384 . S
C1508 H1499 0.929 . S
C1508 C1500 1.378 . S
C1508 C1503 1.350 . S
C1509 H1496 0.929 . S
C1509 C1501 1.433 . S
C1509 N1511 1.384 . S
N1510 C1506 1.427 . S
N1510 C1507 1.384 . S
N1511 C1503 1.427 . S
N1511 C1509 1.384 . S
H1512 C1518 0.930 . S
H1513 C1522 0.930 . S
H1514 C1527 0.929 . S
H1515 C1525 0.929 . S
H1516 C1520 0.929 . S
H1517 C1526 0.929 . S
C1518 H1512 0.930 . S
C1518 C1519 1.367 . S
C1518 C1526 1.378 . S
C1519 C1518 1.367 . S
C1519 C1527 1.433 . S
C1520 H1516 0.929 . S
C1520 C1522 1.378 . S
C1520 C1524 1.350 . S
C1521 C1524 1.463 . S
C1521 C1526 1.350 . S
C1521 N1529 1.427 . S
C1522 H1513 0.930 . S
C1522 C1520 1.378 . S
C1522 C1523 1.367 . S
C1523 C1522 1.367 . S
C1523 C1525 1.433 . S
C1524 C1520 1.350 . S
C1524 C1521 1.463 . S
C1524 N1528 1.427 . S
C1525 H1515 0.929 . S
C1525 C1523 1.433 . S
C1525 N1528 1.384 . S
C1526 H1517 0.929 . S
C1526 C1518 1.378 . S
C1526 C1521 1.350 . S
C1527 H1514 0.929 . S
C1527 C1519 1.433 . S
C1527 N1529 1.384 . S
N1528 C1524 1.427 . S
N1528 C1525 1.384 . S
N1529 C1521 1.427 . S
N1529 C1527 1.384 . S
H1530 C1536 0.930 . S
H1531 C1540 0.930 . S
H1532 C1545 0.929 . S
H1533 C1543 0.929 . S
H1534 C1538 0.929 . S
H1535 C1544 0.929 . S
C1536 H1530 0.930 . S
C1536 C1537 1.367 . S
C1536 C1544 1.378 . S
C1537 C1536 1.367 . S
C1537 C1545 1.433 . S
C1538 H1534 0.929 . S
C1538 C1540 1.378 . S
C1538 C1542 1.350 . S
C1539 C1542 1.463 . S
C1539 C1544 1.350 . S
C1539 N1547 1.427 . S
C1540 H1531 0.930 . S
C1540 C1538 1.378 . S
C1540 C1541 1.367 . S
C1541 C1540 1.367 . S
C1541 C1543 1.433 . S
C1542 C1538 1.350 . S
C1542 C1539 1.463 . S
C1542 N1546 1.427 . S
C1543 H1533 0.929 . S
C1543 C1541 1.433 . S
C1543 N1546 1.384 . S
C1544 H1535 0.929 . S
C1544 C1536 1.378 . S
C1544 C1539 1.350 . S
C1545 H1532 0.929 . S
C1545 C1537 1.433 . S
C1545 N1547 1.384 . S
N1546 C1542 1.427 . S
N1546 C1543 1.384 . S
N1547 C1539 1.427 . S
N1547 C1545 1.384 . S
H1548 C1554 0.930 . S
H1549 C1558 0.930 1_556 S
H1550 C1563 0.929 . S
H1551 C1561 0.929 . S
H1552 C1556 0.929 . S
H1553 C1562 0.929 . S
C1554 H1548 0.930 . S
C1554 C1555 1.367 . S
C1554 C1562 1.378 . S
C1555 C1554 1.367 . S
C1555 C1563 1.433 . S
C1556 H1552 0.929 . S
C1556 C1558 1.378 . S
C1556 C1560 1.350 . S
C1557 C1560 1.463 . S
C1557 C1562 1.350 . S
C1557 N1565 1.427 . S
C1558 H1549 0.930 1_554 S
C1558 C1556 1.378 . S
C1558 C1559 1.367 1_554 S
C1559 C1558 1.367 1_556 S
C1559 C1561 1.433 . S
C1560 C1556 1.350 . S
C1560 C1557 1.463 . S
C1560 N1564 1.427 . S
C1561 H1551 0.929 . S
C1561 C1559 1.433 . S
C1561 N1564 1.384 1_556 S
C1562 H1553 0.929 . S
C1562 C1554 1.378 . S
C1562 C1557 1.350 . S
C1563 H1550 0.929 . S
C1563 C1555 1.433 . S
C1563 N1565 1.384 . S
N1564 C1560 1.427 . S
N1564 C1561 1.384 1_554 S
N1565 C1557 1.427 . S
N1565 C1563 1.384 . S
H1566 C1572 0.930 . S
H1567 C1576 0.930 . S
H1568 C1581 0.929 . S
H1569 C1579 0.929 . S
H1570 C1574 0.929 . S
H1571 C1580 0.929 . S
C1572 H1566 0.930 . S
C1572 C1573 1.367 . S
C1572 C1580 1.378 . S
C1573 C1572 1.367 . S
C1573 C1581 1.433 . S
C1574 H1570 0.929 . S
C1574 C1576 1.378 1_554 S
C1574 C1578 1.350 . S
C1575 C1578 1.463 . S
C1575 C1580 1.350 . S
C1575 N1583 1.427 . S
C1576 H1567 0.930 . S
C1576 C1574 1.378 1_556 S
C1576 C1577 1.367 . S
C1577 C1576 1.367 . S
C1577 C1579 1.433 . S
C1578 C1574 1.350 . S
C1578 C1575 1.463 . S
C1578 N1582 1.427 . S
C1579 H1569 0.929 . S
C1579 C1577 1.433 . S
C1579 N1582 1.384 1_556 S
C1580 H1571 0.929 . S
C1580 C1572 1.378 . S
C1580 C1575 1.350 . S
C1581 H1568 0.929 . S
C1581 C1573 1.433 . S
C1581 N1583 1.384 . S
N1582 C1578 1.427 . S
N1582 C1579 1.384 1_554 S
N1583 C1575 1.427 . S
N1583 C1581 1.384 . S
H1584 C1590 0.930 . S
H1585 C1594 0.930 1_556 S
H1586 C1599 0.929 . S
H1587 C1597 0.929 . S
H1588 C1592 0.929 . S
H1589 C1598 0.929 . S
C1590 H1584 0.930 . S
C1590 C1591 1.367 . S
C1590 C1598 1.378 . S
C1591 C1590 1.367 . S
C1591 C1599 1.433 . S
C1592 H1588 0.929 . S
C1592 C1594 1.378 . S
C1592 C1596 1.350 . S
C1593 C1596 1.463 . S
C1593 C1598 1.350 . S
C1593 N1601 1.427 . S
C1594 H1585 0.930 1_554 S
C1594 C1592 1.378 . S
C1594 C1595 1.367 1_554 S
C1595 C1594 1.367 1_556 S
C1595 C1597 1.433 . S
C1596 C1592 1.350 . S
C1596 C1593 1.463 . S
C1596 N1600 1.427 . S
C1597 H1587 0.929 . S
C1597 C1595 1.433 . S
C1597 N1600 1.384 1_556 S
C1598 H1589 0.929 . S
C1598 C1590 1.378 . S
C1598 C1593 1.350 . S
C1599 H1586 0.929 . S
C1599 C1591 1.433 . S
C1599 N1601 1.384 . S
N1600 C1596 1.427 . S
N1600 C1597 1.384 1_554 S
N1601 C1593 1.427 . S
N1601 C1599 1.384 . S
H1602 C1608 0.930 . S
H1603 C1612 0.930 . S
H1604 C1617 0.929 . S
H1605 C1615 0.929 . S
H1606 C1610 0.929 . S
H1607 C1616 0.929 . S
C1608 H1602 0.930 . S
C1608 C1609 1.367 . S
C1608 C1616 1.378 . S
C1609 C1608 1.367 . S
C1609 C1617 1.433 . S
C1610 H1606 0.929 . S
C1610 C1612 1.378 . S
C1610 C1614 1.350 . S
C1611 C1614 1.463 . S
C1611 C1616 1.350 . S
C1611 N1619 1.427 . S
C1612 H1603 0.930 . S
C1612 C1610 1.378 . S
C1612 C1613 1.367 . S
C1613 C1612 1.367 . S
C1613 C1615 1.433 . S
C1614 C1610 1.350 . S
C1614 C1611 1.463 . S
C1614 N1618 1.427 . S
C1615 H1605 0.929 . S
C1615 C1613 1.433 . S
C1615 N1618 1.384 . S
C1616 H1607 0.929 . S
C1616 C1608 1.378 . S
C1616 C1611 1.350 . S
C1617 H1604 0.929 . S
C1617 C1609 1.433 . S
C1617 N1619 1.384 . S
N1618 C1614 1.427 . S
N1618 C1615 1.384 . S
N1619 C1611 1.427 . S
N1619 C1617 1.384 . S
H1620 C1626 0.930 . S
H1621 C1630 0.930 . S
H1622 C1635 0.929 . S
H1623 C1633 0.929 . S
H1624 C1628 0.929 . S
H1625 C1634 0.929 . S
C1626 H1620 0.930 . S
C1626 C1627 1.367 . S
C1626 C1634 1.378 . S
C1627 C1626 1.367 . S
C1627 C1635 1.433 . S
C1628 H1624 0.929 . S
C1628 C1630 1.378 . S
C1628 C1632 1.350 . S
C1629 C1632 1.463 . S
C1629 C1634 1.350 . S
C1629 N1637 1.427 . S
C1630 H1621 0.930 . S
C1630 C1628 1.378 . S
C1630 C1631 1.367 . S
C1631 C1630 1.367 . S
C1631 C1633 1.433 . S
C1632 C1628 1.350 . S
C1632 C1629 1.463 . S
C1632 N1636 1.427 . S
C1633 H1623 0.929 . S
C1633 C1631 1.433 . S
C1633 N1636 1.384 . S
C1634 H1625 0.929 . S
C1634 C1626 1.378 . S
C1634 C1629 1.350 . S
C1635 H1622 0.929 . S
C1635 C1627 1.433 . S
C1635 N1637 1.384 . S
N1636 C1632 1.427 . S
N1636 C1633 1.384 . S
N1637 C1629 1.427 . S
N1637 C1635 1.384 . S
H1638 C1644 0.930 . S
H1639 C1648 0.930 . S
H1640 C1653 0.929 . S
H1641 C1651 0.929 . S
H1642 C1646 0.929 . S
H1643 C1652 0.929 . S
C1644 H1638 0.930 . S
C1644 C1645 1.367 . S
C1644 C1652 1.378 . S
C1645 C1644 1.367 . S
C1645 C1653 1.433 . S
C1646 H1642 0.929 . S
C1646 C1648 1.378 . S
C1646 C1650 1.350 . S
C1647 C1650 1.463 . S
C1647 C1652 1.350 . S
C1647 N1655 1.427 . S
C1648 H1639 0.930 . S
C1648 C1646 1.378 . S
C1648 C1649 1.367 . S
C1649 C1648 1.367 . S
C1649 C1651 1.433 . S
C1650 C1646 1.350 . S
C1650 C1647 1.463 . S
C1650 N1654 1.427 . S
C1651 H1641 0.929 . S
C1651 C1649 1.433 . S
C1651 N1654 1.384 . S
C1652 H1643 0.929 . S
C1652 C1644 1.378 . S
C1652 C1647 1.350 . S
C1653 H1640 0.929 . S
C1653 C1645 1.433 . S
C1653 N1655 1.384 . S
N1654 C1650 1.427 . S
N1654 C1651 1.384 . S
N1655 C1647 1.427 . S
N1655 C1653 1.384 . S
H1656 C1662 0.927 1_455 S
H1657 C1666 0.930 . S
H1658 C1671 0.929 . S
H1659 C1669 0.929 . S
H1660 C1664 0.929 . S
H1661 C1670 0.929 . S
C1662 H1656 0.927 1_655 S
C1662 C1663 1.371 . S
C1662 C1670 1.377 1_655 S
C1663 C1662 1.371 . S
C1663 C1671 1.433 . S
C1664 H1660 0.929 . S
C1664 C1666 1.378 . S
C1664 C1668 1.359 . S
C1665 C1668 1.464 . S
C1665 C1670 1.350 1_655 S
C1665 N1673 1.427 . S
C1666 H1657 0.930 . S
C1666 C1664 1.378 . S
C1666 C1667 1.367 1_655 S
C1667 C1666 1.367 1_455 S
C1667 C1669 1.433 . S
C1668 C1664 1.359 . S
C1668 C1665 1.464 . S
C1668 N1672 1.416 1_655 S
C1669 H1659 0.929 . S
C1669 C1667 1.433 . S
C1669 N1672 1.384 . S
C1670 H1661 0.929 . S
C1670 C1662 1.377 1_455 S
C1670 C1665 1.350 1_455 S
C1671 H1658 0.929 . S
C1671 C1663 1.433 . S
C1671 N1673 1.384 . S
N1672 C1668 1.416 1_455 S
N1672 C1669 1.384 . S
N1673 C1665 1.427 . S
N1673 C1671 1.384 . S
H1674 C1680 0.930 . S
H1675 C1684 0.930 . S
H1676 C1689 0.929 . S
H1677 C1687 0.929 . S
H1678 C1682 0.929 . S
H1679 C1688 0.929 . S
C1680 H1674 0.930 . S
C1680 C1681 1.367 . S
C1680 C1688 1.378 . S
C1681 C1680 1.367 . S
C1681 C1689 1.433 . S
C1682 H1678 0.929 . S
C1682 C1684 1.378 . S
C1682 C1686 1.350 . S
C1683 C1686 1.463 . S
C1683 C1688 1.350 . S
C1683 N1691 1.427 . S
C1684 H1675 0.930 . S
C1684 C1682 1.378 . S
C1684 C1685 1.367 . S
C1685 C1684 1.367 . S
C1685 C1687 1.433 . S
C1686 C1682 1.350 . S
C1686 C1683 1.463 . S
C1686 N1690 1.427 . S
C1687 H1677 0.929 . S
C1687 C1685 1.433 . S
C1687 N1690 1.384 . S
C1688 H1679 0.929 . S
C1688 C1680 1.378 . S
C1688 C1683 1.350 . S
C1689 H1676 0.929 . S
C1689 C1681 1.433 . S
C1689 N1691 1.384 . S
N1690 C1686 1.427 . S
N1690 C1687 1.384 . S
N1691 C1683 1.427 . S
N1691 C1689 1.384 . S
H1692 C1698 0.930 . S
H1693 C1702 0.930 . S
H1694 C1707 0.929 . S
H1695 C1705 0.929 . S
H1696 C1700 0.929 . S
H1697 C1706 0.929 . S
C1698 H1692 0.930 . S
C1698 C1699 1.367 . S
C1698 C1706 1.378 . S
C1699 C1698 1.367 . S
C1699 C1707 1.433 1_565 S
C1700 H1696 0.929 . S
C1700 C1702 1.378 . S
C1700 C1704 1.350 . S
C1701 C1704 1.458 1_565 S
C1701 C1706 1.355 . S
C1701 N1709 1.427 1_565 S
C1702 H1693 0.930 . S
C1702 C1700 1.378 . S
C1702 C1703 1.367 . S
C1703 C1702 1.367 . S
C1703 C1705 1.433 1_545 S
C1704 C1700 1.350 . S
C1704 C1701 1.458 1_545 S
C1704 N1708 1.427 1_545 S
C1705 H1695 0.929 . S
C1705 C1703 1.433 1_565 S
C1705 N1708 1.384 . S
C1706 H1697 0.929 . S
C1706 C1698 1.378 . S
C1706 C1701 1.355 . S
C1707 H1694 0.929 . S
C1707 C1699 1.433 1_545 S
C1707 N1709 1.384 . S
N1708 C1704 1.427 1_565 S
N1708 C1705 1.384 . S
N1709 C1701 1.427 1_545 S
N1709 C1707 1.384 . S
H1710 C1716 0.930 . S
H1711 C1720 0.930 . S
H1712 C1725 0.929 . S
H1713 C1723 0.929 . S
H1714 C1718 0.929 . S
H1715 C1724 0.929 . S
C1716 H1710 0.930 . S
C1716 C1717 1.367 . S
C1716 C1724 1.378 . S
C1717 C1716 1.367 . S
C1717 C1725 1.433 1_565 S
C1718 H1714 0.929 . S
C1718 C1720 1.378 . S
C1718 C1722 1.358 . S
C1719 C1722 1.459 1_565 S
C1719 C1724 1.350 . S
C1719 N1727 1.427 1_565 S
C1720 H1711 0.930 . S
C1720 C1718 1.378 . S
C1720 C1721 1.367 . S
C1721 C1720 1.367 . S
C1721 C1723 1.433 1_545 S
C1722 C1718 1.358 . S
C1722 C1719 1.459 1_545 S
C1722 N1726 1.423 1_545 S
C1723 H1713 0.929 . S
C1723 C1721 1.433 1_565 S
C1723 N1726 1.384 . S
C1724 H1715 0.929 . S
C1724 C1716 1.378 . S
C1724 C1719 1.350 . S
C1725 H1712 0.929 . S
C1725 C1717 1.433 1_545 S
C1725 N1727 1.384 . S
N1726 C1722 1.423 1_565 S
N1726 C1723 1.384 . S
N1727 C1719 1.427 1_545 S
N1727 C1725 1.384 . S
H1728 C1734 0.904 . S
H1729 C1738 0.930 . S
H1730 C1743 0.929 . S
H1731 C1741 0.929 . S
H1732 C1736 0.942 1_655 S
H1733 C1742 0.929 . S
C1734 H1728 0.904 . S
C1734 C1735 1.367 . S
C1734 C1742 1.378 1_655 S
C1735 C1734 1.367 . S
C1735 C1743 1.433 . S
C1736 H1732 0.942 1_455 S
C1736 C1738 1.378 . S
C1736 C1740 1.350 . S
C1737 C1740 1.463 . S
C1737 C1742 1.349 . S
C1737 N1745 1.428 1_455 S
C1738 H1729 0.930 . S
C1738 C1736 1.378 . S
C1738 C1739 1.367 . S
C1739 C1738 1.367 . S
C1739 C1741 1.433 . S
C1740 C1736 1.350 . S
C1740 C1737 1.463 . S
C1740 N1744 1.427 . S
C1741 H1731 0.929 . S
C1741 C1739 1.433 . S
C1741 N1744 1.384 . S
C1742 H1733 0.929 . S
C1742 C1734 1.378 1_455 S
C1742 C1737 1.349 . S
C1743 H1730 0.929 . S
C1743 C1735 1.433 . S
C1743 N1745 1.384 . S
N1744 C1740 1.427 . S
N1744 C1741 1.384 . S
N1745 C1737 1.428 1_655 S
N1745 C1743 1.384 . S
H1746 C1752 0.930 . S
H1747 C1756 0.930 . S
H1748 C1761 0.929 . S
H1749 C1759 0.929 . S
H1750 C1754 0.929 . S
H1751 C1760 0.929 . S
C1752 H1746 0.930 . S
C1752 C1753 1.367 . S
C1752 C1760 1.378 . S
C1753 C1752 1.367 . S
C1753 C1761 1.433 . S
C1754 H1750 0.929 . S
C1754 C1756 1.378 . S
C1754 C1758 1.350 . S
C1755 C1758 1.463 . S
C1755 C1760 1.350 . S
C1755 N1763 1.427 . S
C1756 H1747 0.930 . S
C1756 C1754 1.378 . S
C1756 C1757 1.367 . S
C1757 C1756 1.367 . S
C1757 C1759 1.433 . S
C1758 C1754 1.350 . S
C1758 C1755 1.463 . S
C1758 N1762 1.427 . S
C1759 H1749 0.929 . S
C1759 C1757 1.433 . S
C1759 N1762 1.384 . S
C1760 H1751 0.929 . S
C1760 C1752 1.378 . S
C1760 C1755 1.350 . S
C1761 H1748 0.929 . S
C1761 C1753 1.433 . S
C1761 N1763 1.384 . S
N1762 C1758 1.427 . S
N1762 C1759 1.384 . S
N1763 C1755 1.427 . S
N1763 C1761 1.384 . S
C475 C213 1.712 . S
C479 C5 1.711 . S
C493 C226 1.715 . S
C497 C18 1.715 . S
C511 C200 1.715 . S
C515 C31 1.714 . S
C529 C343 1.673 . S
C533 C44 1.674 . S
C547 C57 1.674 . S
C551 C317 1.675 . S
C565 C70 1.678 . S
C569 C330 1.677 . S
C583 C81 1.715 . S
C587 C447 1.747 . S
C601 C458 1.715 . S
C605 C96 1.746 . S
C619 C434 1.746 . S
C623 C109 1.747 . S
C637 C122 1.714 . S
C641 C265 1.714 . S
C655 C237 1.674 . S
C659 C135 1.713 . S
C673 C146 1.673 . S
C677 C252 1.713 . S
C691 C369 1.598 . S
C695 C161 1.594 . S
C709 C174 1.597 . S
C713 C382 1.593 . S
C727 C356 1.606 . S
C731 C187 1.602 . S
C745 C421 1.638 . S
C749 C278 1.637 . S
C763 C393 1.600 . S
C767 C291 1.638 . S
C781 C302 1.596 . S
C785 C408 1.636 . S
C799 C244 1.776 . S
C803 C1 1.775 . S
C817 C248 1.717 . S
C821 C14 1.778 . S
C835 C261 1.723 . S
C839 C27 1.780 . S
C853 C40 1.778 . S
C857 C430 1.722 . S
C871 C53 1.777 . S
C875 C443 1.720 . S
C889 C66 1.774 . S
C893 C465 1.774 . S
C907 C88 1.781 . S
C911 C313 1.782 . S
C925 C326 1.778 . S
C929 C92 1.715 . S
C943 C339 1.778 . S
C947 C105 1.716 . S
C961 C196 1.773 . S
C965 C118 1.711 . S
C979 C131 1.713 . S
C983 C209 1.773 . S
C997 C153 1.778 . S
C1001 C222 1.778 . S
C1015 C157 1.780 . S
C1019 C400 1.780 . S
C1033 C404 1.724 . S
C1037 C170 1.782 . S
C1051 C417 1.725 . S
C1055 C183 1.782 . S
C1069 C352 1.771 . S
C1073 C274 1.712 1_545 S
C1087 C287 1.708 1_655 S
C1091 C365 1.766 . S
C1105 C309 1.773 . S
C1109 C378 1.773 . S
C1123 C354 1.811 . S
C1127 C3 1.815 . S
C1141 C16 1.811 . S
C1145 C367 1.809 . S
C1159 C29 1.810 . S
C1163 C380 1.809 . S
C1177 C159 1.775 . S
C1181 C42 1.775 . S
C1195 C55 1.776 . S
C1199 C172 1.777 . S
C1213 C68 1.771 . S
C1217 C185 1.772 . S
C1231 C276 1.770 . S
C1235 C83 1.811 . S
C1249 C94 1.767 . S
C1253 C289 1.769 . S
C1267 C304 1.808 . S
C1271 C107 1.763 . S
C1285 C120 1.725 . S
C1289 C395 1.773 . S
C1303 C406 1.729 . S
C1307 C133 1.736 . S
C1321 C419 1.730 . S
C1325 C148 1.771 . S
C1339 C315 1.789 . S
C1343 C198 1.788 . S
C1357 C328 1.795 . S
C1361 C211 1.794 . S
C1375 C341 1.794 . S
C1379 C224 1.794 . S
C1393 C239 1.794 . S
C1397 C432 1.752 . S
C1411 C445 1.748 . S
C1415 C250 1.754 . S
C1429 C460 1.788 . S
C1433 C263 1.744 . S
C1447 C10 0.943 . S
C1451 C218 0.942 . S
C1465 C23 0.937 . S
C1469 C231 0.934 . S
C1483 C36 0.941 . S
C1487 C205 0.943 . S
C1501 C348 0.965 . S
C1505 C49 0.968 . S
C1519 C322 0.966 . S
C1523 C62 0.969 . S
C1537 C335 0.976 . S
C1541 C75 0.974 . S
C1555 C452 0.945 . S
C1559 C79 0.943 . S
C1573 C456 0.937 . S
C1577 C101 0.944 . S
C1591 C439 0.943 . S
C1595 C114 0.944 . S
C1609 C127 0.977 . S
C1613 C270 0.978 . S
C1627 C140 0.979 . S
C1631 C235 0.964 . S
C1645 C144 0.969 . S
C1649 C257 0.980 . S
C1663 C374 1.053 . S
C1667 C166 1.058 . S
C1681 C387 1.052 . S
C1685 C179 1.056 . S
C1699 C192 1.058 . S
C1703 C361 1.064 . S
C1717 C283 1.066 . S
C1721 C426 1.071 . S
C1735 C391 1.054 . S
C1739 C296 1.070 . S
C1753 C413 1.069 . S
C1757 C300 1.066 . S
