# Generated by pormake.
# Topology vmq, (7)-cn, num edge types: 1
# Building blocks:
#     Node 0, Type 0, BuildingBlock: HICVOG_clean_sbu_0, # of connection points: 7
#     Node 1, Type 0, BuildingBlock: HICVOG_clean_sbu_0, # of connection points: 7
#     Node 2, Type 0, BuildingBlock: HICVOG_clean_sbu_0, # of connection points: 7
#     Node 3, Type 0, BuildingBlock: HICVOG_clean_sbu_0, # of connection points: 7
#     Node 4, Type 0, BuildingBlock: HICVOG_clean_sbu_0, # of connection points: 7
#     Node 5, Type 0, BuildingBlock: HICVOG_clean_sbu_0, # of connection points: 7
#     Node 6, Type 0, BuildingBlock: HICVOG_clean_sbu_0, # of connection points: 7
#     Node 7, Type 0, BuildingBlock: HICVOG_clean_sbu_0, # of connection points: 7
#     Edge 8, Type (0, 0), BuildingBlock: AJUNOK_clean_linker_0, # of connection points: 2
#     Edge 9, Type (0, 0), BuildingBlock: AJUNOK_clean_linker_0, # of connection points: 2
#     Edge 10, Type (0, 0), BuildingBlock: AJUNOK_clean_linker_0, # of connection points: 2
#     Edge 11, Type (0, 0), BuildingBlock: AJUNOK_clean_linker_0, # of connection points: 2
#     Edge 12, Type (0, 0), BuildingBlock: AJUNOK_clean_linker_0, # of connection points: 2
#     Edge 13, Type (0, 0), BuildingBlock: AJUNOK_clean_linker_0, # of connection points: 2
#     Edge 14, Type (0, 0), BuildingBlock: AJUNOK_clean_linker_0, # of connection points: 2
#     Edge 15, Type (0, 0), BuildingBlock: AJUNOK_clean_linker_0, # of connection points: 2
#     Edge 16, Type (0, 0), BuildingBlock: AJUNOK_clean_linker_0, # of connection points: 2
#     Edge 17, Type (0, 0), BuildingBlock: AJUNOK_clean_linker_0, # of connection points: 2
#     Edge 18, Type (0, 0), BuildingBlock: AJUNOK_clean_linker_0, # of connection points: 2
#     Edge 19, Type (0, 0), BuildingBlock: AJUNOK_clean_linker_0, # of connection points: 2
#     Edge 20, Type (0, 0), BuildingBlock: AJUNOK_clean_linker_0, # of connection points: 2
#     Edge 21, Type (0, 0), BuildingBlock: AJUNOK_clean_linker_0, # of connection points: 2
#     Edge 22, Type (0, 0), BuildingBlock: AJUNOK_clean_linker_0, # of connection points: 2
#     Edge 23, Type (0, 0), BuildingBlock: AJUNOK_clean_linker_0, # of connection points: 2
#     Edge 24, Type (0, 0), BuildingBlock: AJUNOK_clean_linker_0, # of connection points: 2
#     Edge 25, Type (0, 0), BuildingBlock: AJUNOK_clean_linker_0, # of connection points: 2
#     Edge 26, Type (0, 0), BuildingBlock: AJUNOK_clean_linker_0, # of connection points: 2
#     Edge 27, Type (0, 0), BuildingBlock: AJUNOK_clean_linker_0, # of connection points: 2
#     Edge 28, Type (0, 0), BuildingBlock: AJUNOK_clean_linker_0, # of connection points: 2
#     Edge 29, Type (0, 0), BuildingBlock: AJUNOK_clean_linker_0, # of connection points: 2
#     Edge 30, Type (0, 0), BuildingBlock: AJUNOK_clean_linker_0, # of connection points: 2
#     Edge 31, Type (0, 0), BuildingBlock: AJUNOK_clean_linker_0, # of connection points: 2
#     Edge 32, Type (0, 0), BuildingBlock: AJUNOK_clean_linker_0, # of connection points: 2
#     Edge 33, Type (0, 0), BuildingBlock: AJUNOK_clean_linker_0, # of connection points: 2
#     Edge 34, Type (0, 0), BuildingBlock: AJUNOK_clean_linker_0, # of connection points: 2
#     Edge 35, Type (0, 0), BuildingBlock: AJUNOK_clean_linker_0, # of connection points: 2
# Relax obj value: 0.331
# Max RMSD: 0.279
# Mean RMSD: 0.279
data_MOF--net-vmq--node1-HICVOG_clean_sbu_0--edge1-AJUNOK_clean_linker_0
_symmetry_space_group_name_H-M    P1
_symmetry_Int_Tables_number       1
_symmetry_cell_setting            triclinic
loop_
_symmetry_equiv_pos_as_xyz
'x, y, z'
_cell_length_a     37.388256
_cell_length_b     15.480616
_cell_length_c     27.25666
_cell_angle_alpha  90.028374
_cell_angle_beta   108.37278
_cell_angle_gamma 89.994616
loop_
_atom_site_label
_atom_site_type_symbol
_atom_site_fract_x
_atom_site_fract_y
_atom_site_fract_z
_atom_type_partial_charge
Zn0 Zn 0.4368 0.17688 0.12737 0.0
C1 C 0.48833 1.00341 0.06285 0.0
N2 N 0.5118 0.99438 0.11075 0.0
C3 C 0.49587 0.042 0.13891 0.0
N4 N 0.4638 0.08055 0.10943 0.0
N5 N 0.45845 0.05336 0.06162 0.0
C6 C 0.38835 0.01285 0.90056 0.0
O7 O 0.35547 0.03721 0.90365 0.0
O8 O 0.43372 0.15563 0.19998 0.0
Zn9 Zn 0.40944 0.03076 0.0119 0.0
N10 N 0.46326 0.28436 0.12052 0.0
C11 C 0.51652 0.35029 0.10563 0.0
C12 C 0.49786 0.27697 0.1143 0.0
C13 C 0.44604 0.36309 0.11651 0.0
N14 N 0.4994 0.42832 0.10159 0.0
C15 C 0.46444 0.43768 0.10636 0.0
O16 O 0.36959 0.12481 0.00482 0.0
C17 C 0.36099 0.17827 0.03497 0.0
O18 O 0.38349 0.19414 0.07995 0.0
H19 H 0.51093 0.21446 0.11565 0.0
H20 H 0.41824 0.36713 0.12058 0.0
C21 C 0.40895 0.85089 0.04486 0.0
C22 C 0.39302 0.77834 0.06178 0.0
C23 C 0.33819 0.86127 0.05513 0.0
C24 C 0.35423 0.93271 0.03917 0.0
N25 N 0.38924 0.92658 0.03433 0.0
N26 N 0.35783 0.78625 0.06598 0.0
H27 H 0.43622 0.84725 0.03908 0.0
C28 C 0.41934 0.08377 0.20674 0.0
O29 O 0.40658 0.03175 0.1669 0.0
O30 O 0.41586 1.00557 0.94204 0.0
H31 H 0.33868 0.99255 0.03048 0.0
H32 H 0.54417 0.34506 0.10113 0.0
H33 H 0.31028 0.86535 0.05888 0.0
Zn34 Zn 0.65326 0.05926 0.4842 0.0
C35 C 0.57232 0.07646 0.35387 0.0
N36 N 0.55297 0.03049 0.37822 0.0
C37 C 0.57397 0.03871 0.42769 0.0
N38 N 0.60529 0.0867 0.43327 0.0
N39 N 0.60369 0.11185 0.38634 0.0
C40 C 0.64741 0.10075 0.29131 0.0
O41 O 0.65999 0.05399 0.33347 0.0
O42 O 0.64548 0.02533 0.55279 0.0
Zn43 Zn 0.63208 0.20396 0.36841 0.0
N44 N 0.67312 0.95753 0.45877 0.0
C45 C 0.72338 0.89438 0.43505 0.0
C46 C 0.70778 0.96463 0.45285 0.0
C47 C 0.65335 0.88209 0.44745 0.0
N48 N 0.70409 0.8189 0.42474 0.0
C49 C 0.66952 0.80958 0.43082 0.0
O50 O 0.68494 0.21815 0.41851 0.0
C51 C 0.70538 0.20288 0.46486 0.0
O52 O 0.69435 0.15237 0.49437 0.0
H53 H 0.72333 0.02438 0.4618 0.0
H54 H 0.62537 0.87955 0.45095 0.0
C55 C 0.62214 0.39172 0.37881 0.0
C56 C 0.60262 0.46474 0.38863 0.0
C57 C 0.54988 0.37572 0.3831 0.0
C58 C 0.5697 0.30366 0.37556 0.0
N59 N 0.60515 0.3124 0.3724 0.0
N60 N 0.5668 0.45403 0.38982 0.0
H61 H 0.651 0.39709 0.37881 0.0
C62 C 0.67209 0.03068 0.5955 0.0
O63 O 0.70463 0.06257 0.59539 0.0
O64 O 0.63435 0.17566 0.29542 0.0
H65 H 0.55702 0.24096 0.37385 0.0
H66 H 0.75084 0.89949 0.42991 0.0
H67 H 0.52159 0.36913 0.3852 0.0
Zn68 Zn 0.63742 0.82371 0.87177 0.0
C69 C 0.57552 0.98578 0.9261 0.0
N70 N 0.55334 0.98351 0.87679 0.0
C71 C 0.57423 0.93876 0.85412 0.0
N72 N 0.60753 0.91452 0.88723 0.0
N73 N 0.60882 0.94512 0.93297 0.0
C74 C 0.65059 0.96096 0.09182 0.0
O75 O 0.65834 0.87931 0.0868 0.0
O76 O 0.64039 0.84625 0.79897 0.0
Zn77 Zn 0.65605 0.97222 0.98595 0.0
N78 N 0.61185 0.71435 0.87606 0.0
C79 C 0.55827 0.64301 0.88669 0.0
C80 C 0.57642 0.71819 0.87974 0.0
C81 C 0.63034 0.63725 0.88082 0.0
N82 N 0.5768 0.56671 0.89207 0.0
C83 C 0.61267 0.56102 0.89022 0.0
O84 O 0.6963 0.87661 0.9987 0.0
C85 C 0.70892 0.82832 0.96969 0.0
O86 O 0.68987 0.81311 0.92274 0.0
H87 H 0.56238 0.7791 0.87861 0.0
H88 H 0.6585 0.63608 0.87786 0.0
C89 C 0.66131 0.14889 0.95037 0.0
C90 C 0.67986 0.21798 0.93466 0.0
C91 C 0.73143 0.1255 0.93962 0.0
C92 C 0.71328 0.0579 0.95567 0.0
N93 N 0.67864 0.07038 0.96096 0.0
N94 N 0.71447 0.20372 0.92975 0.0
H95 H 0.63394 0.1578 0.95533 0.0
C96 C 0.66073 0.90946 0.79378 0.0
O97 O 0.67969 0.9527 0.83534 0.0
O98 O 0.64738 1.01142 0.05376 0.0
H99 H 0.72715 0.99626 0.96419 0.0
H100 H 0.52998 0.64552 0.88918 0.0
H101 H 0.759 0.1161 0.93543 0.0
Zn102 Zn 0.43572 0.83872 0.62878 0.0
C103 C 0.48689 0.0124 0.56308 0.0
N104 N 0.51271 0.0155 0.60943 0.0
C105 C 0.49828 0.96649 0.63866 0.0
N106 N 0.4644 0.93258 0.61089 0.0
N107 N 0.45699 0.96394 0.56344 0.0
C108 C 0.40435 0.97126 0.40432 0.0
O109 O 0.38749 0.89734 0.40594 0.0
O110 O 0.42941 0.86172 0.69922 0.0
Zn111 Zn 0.40764 0.98538 0.51365 0.0
N112 N 0.46093 0.72853 0.62444 0.0
C113 C 0.51412 0.6557 0.61372 0.0
C114 C 0.49663 0.73131 0.62181 0.0
C115 C 0.44157 0.65232 0.61774 0.0
N116 N 0.49474 0.58025 0.60644 0.0
C117 C 0.45859 0.57576 0.60738 0.0
O118 O 0.36806 0.88943 0.50416 0.0
C119 C 0.3601 0.83646 0.53509 0.0
O120 O 0.38321 0.82199 0.57973 0.0
H121 H 0.51127 0.79199 0.62519 0.0
H122 H 0.41323 0.65204 0.61997 0.0
C123 C 0.4045 0.16453 0.54681 0.0
C124 C 0.3867 0.2363 0.56126 0.0
C125 C 0.33368 0.14822 0.5563 0.0
C126 C 0.35121 0.07787 0.54168 0.0
N127 N 0.38618 0.08698 0.537 0.0
N128 N 0.35167 0.22545 0.56552 0.0
H129 H 0.43211 0.17059 0.54222 0.0
C130 C 0.40819 0.9243 0.70234 0.0
O131 O 0.39149 0.96909 0.66044 0.0
O132 O 0.41485 0.01768 0.44485 0.0
H133 H 0.33675 0.01661 0.53371 0.0
H134 H 0.54263 0.65723 0.61201 0.0
H135 H 0.30584 0.14168 0.56 0.0
Zn136 Zn 0.93709 0.70354 0.13423 0.0
C137 C 0.99706 0.54144 0.07787 0.0
N138 N 1.01892 0.53926 0.12733 0.0
C139 C 0.99834 0.58324 0.15084 0.0
N140 N 0.96561 0.61117 0.11802 0.0
N141 N 0.96415 0.5835 0.07165 0.0
C142 C 0.92573 0.56243 0.91707 0.0
O143 O 0.92214 0.64577 0.92327 0.0
O144 O 0.93348 0.6798 0.20623 0.0
Zn145 Zn 0.91625 0.55304 0.02069 0.0
N146 N 0.96405 0.81181 0.13134 0.0
C147 C 1.01889 0.87909 0.122 0.0
C148 C 0.99926 0.80519 0.1271 0.0
C149 C 0.94723 0.89072 0.12893 0.0
N150 N 1.00216 0.95725 0.11944 0.0
C151 C 0.96668 0.9661 0.12238 0.0
O152 O 0.87493 0.6466 0.00823 0.0
C153 C 0.86419 0.69848 0.03746 0.0
O154 O 0.88497 0.71561 0.08329 0.0
H155 H 1.01202 0.74308 0.12658 0.0
H156 H 0.91897 0.89429 0.13148 0.0
C157 C 0.91488 0.37835 0.06043 0.0
C158 C 0.89857 0.309 0.07955 0.0
C159 C 0.84522 0.39648 0.07345 0.0
C160 C 0.86144 0.46464 0.05475 0.0
N161 N 0.89591 0.45469 0.04849 0.0
N162 N 0.86399 0.3205 0.08515 0.0
H163 H 0.94181 0.37141 0.05385 0.0
C164 C 0.91394 0.61457 0.21059 0.0
O165 O 0.89641 0.5703 0.16876 0.0
O166 O 0.924 0.51166 0.95297 0.0
H167 H 0.84631 0.52474 0.04495 0.0
H168 H 0.04698 0.87428 0.1189 0.0
H169 H 0.81775 0.40368 0.07833 0.0
Zn170 Zn 0.13673 0.66978 0.37738 0.0
C171 C 0.08207 0.50268 0.44181 0.0
N172 N 0.05751 0.4972 0.3945 0.0
C173 C 0.07344 0.54331 0.36568 0.0
N174 N 0.10699 0.5772 0.39441 0.0
N175 N 0.11273 0.54895 0.44212 0.0
C176 C 0.15021 0.53941 0.5919 0.0
O177 O 0.15164 0.62224 0.5823 0.0
O178 O 0.14065 0.64797 0.30536 0.0
Zn179 Zn 0.16174 0.52342 0.49103 0.0
N180 N 0.11245 0.7803 0.38366 0.0
C181 C 0.06077 0.85222 0.39932 0.0
C182 C 0.07784 0.77688 0.39001 0.0
C183 C 0.13124 0.85698 0.38784 0.0
N184 N 0.07954 0.92818 0.40397 0.0
C185 C 0.11466 0.93344 0.39928 0.0
O186 O 0.20079 0.62029 0.50262 0.0
C187 C 0.211 0.6706 0.47235 0.0
O188 O 0.18993 0.68418 0.42619 0.0
H189 H 0.06374 0.71586 0.38855 0.0
H190 H 0.15879 0.85767 0.38283 0.0
C191 C 0.16573 0.34631 0.45543 0.0
C192 C 0.18367 0.27632 0.43942 0.0
C193 C 0.23518 0.36797 0.44224 0.0
C194 C 0.21756 0.43649 0.45848 0.0
N195 N 0.18325 0.42478 0.46493 0.0
N196 N 0.21798 0.28982 0.43331 0.0
H197 H 0.13872 0.33813 0.4616 0.0
C198 C 0.15147 0.57328 0.29652 0.0
O199 O 0.16105 0.51699 0.33452 0.0
O200 O 0.15474 0.48548 0.55916 0.0
H201 H 0.23153 0.49828 0.46643 0.0
H202 H 1.0331 0.85017 0.404 0.0
H203 H 0.26252 0.37659 0.43718 0.0
Zn204 Zn 0.13481 0.33185 0.87721 0.0
C205 C 0.08146 0.50578 0.93879 0.0
N206 N 0.05755 0.51179 0.89088 0.0
C207 C 0.07369 0.46199 0.86389 0.0
N208 N 0.10615 0.42586 0.89384 0.0
N209 N 0.11134 0.45519 0.94109 0.0
C210 C 0.16092 0.46459 0.09561 0.0
O211 O 0.17193 0.38538 0.09067 0.0
O212 O 0.13384 0.34885 0.80222 0.0
Zn213 Zn 0.1604 0.47963 0.98876 0.0
N214 N 0.11183 0.22386 0.89069 0.0
C215 C 0.06585 0.15654 0.92183 0.0
C216 C 0.08135 0.2304 0.90767 0.0
C217 C 0.12848 0.1457 0.88971 0.0
N218 N 0.08251 0.07904 0.92116 0.0
C219 C 0.11388 0.07096 0.90635 0.0
O220 O 0.19938 0.38335 0.99902 0.0
C221 C 0.21025 0.33473 0.96861 0.0
O222 O 0.18954 0.32095 0.92222 0.0
H223 H 0.06894 0.29253 0.91017 0.0
H224 H 0.15304 0.14249 0.8769 0.0
C225 C 0.16377 0.65668 0.95382 0.0
C226 C 0.17995 0.72549 0.93412 0.0
C227 C 0.22872 0.63158 0.92862 0.0
C228 C 0.21286 0.56421 0.9485 0.0
N229 N 0.18077 0.57764 0.96085 0.0
N230 N 0.21205 0.7103 0.92207 0.0
H231 H 0.13846 0.66603 0.96442 0.0
C232 C 0.14101 0.42596 0.79174 0.0
O233 O 0.14982 0.48336 0.82917 0.0
O234 O 0.15467 0.51598 0.05747 0.0
H235 H 0.22631 0.50183 0.95413 0.0
H236 H 0.04122 0.16098 0.93445 0.0
H237 H 0.25425 0.62154 0.91871 0.0
Zn238 Zn 0.91208 0.4817 0.51857 0.0
C239 C 0.99459 0.46748 0.64749 0.0
N240 N 1.01222 0.51554 0.62156 0.0
C241 C 0.9905 0.5062 0.57257 0.0
N242 N 0.96015 0.45615 0.56884 0.0
N243 N 0.96311 0.42976 0.61602 0.0
C244 C 0.92618 0.43203 0.71558 0.0
O245 O 0.91571 0.48644 0.67668 0.0
O246 O 0.92021 0.51612 0.45045 0.0
Zn247 Zn 0.93375 0.33572 0.63131 0.0
N248 N 0.89131 0.58161 0.54452 0.0
C249 C 0.8413 0.63944 0.57114 0.0
C250 C 0.85728 0.57131 0.55206 0.0
C251 C 0.91 0.65849 0.55533 0.0
N252 N 0.85985 0.71577 0.58194 0.0
C253 C 0.89397 0.72784 0.57494 0.0
O254 O 0.87909 0.32731 0.58466 0.0
C255 C 0.85959 0.34108 0.53765 0.0
O256 O 0.87219 0.38692 0.50772 0.0
H257 H 0.84236 0.51086 0.54317 0.0
H258 H 0.93651 0.66566 0.54762 0.0
C259 C 0.94229 0.14759 0.62084 0.0
C260 C 0.95948 0.07333 0.60782 0.0
C261 C 1.00575 0.16265 0.59082 0.0
C262 C 0.98817 0.23559 0.60224 0.0
N263 N 0.9574 0.22726 0.61851 0.0
N264 N 0.99098 0.08367 0.59363 0.0
H265 H 0.91706 0.14236 0.63203 0.0
C266 C 0.89703 0.49743 0.4064 0.0
O267 O 0.86686 0.45233 0.40445 0.0
O268 O 0.93433 0.35478 0.70654 0.0
H269 H 0.99959 0.29846 0.59887 0.0
H270 H 0.81421 0.63188 0.57715 0.0
H271 H 1.03064 0.16881 0.57893 0.0
C272 C 0.53841 0.14492 0.27034 0.0
C273 C 0.56068 0.07724 0.29801 0.0
C274 C 0.51641 0.13347 0.21882 0.0
C275 C 0.51568 0.05379 0.19412 0.0
H276 H 0.53631 0.20541 0.28886 0.0
H277 H 0.49983 0.18702 0.1989 0.0
S278 S 0.56934 0.85649 0.25139 0.0
N279 N 0.58145 0.9291 0.29801 0.0
N280 N 0.5396 0.90611 0.20153 0.0
C281 C 0.53856 0.98621 0.2216 0.0
C282 C 0.56121 0.99841 0.27346 0.0
C283 C 0.51394 0.88088 0.72126 0.0
C284 C 0.52046 0.95169 0.69323 0.0
C285 C 0.5341 0.87119 0.77368 0.0
C286 C 0.56272 0.92964 0.79857 0.0
H287 H 0.49304 0.83332 0.70325 0.0
H288 H 0.52598 0.82022 0.79515 0.0
S289 S 0.5941 0.12114 0.74267 0.0
N290 N 0.55967 0.07933 0.6948 0.0
N291 N 0.59843 0.05695 0.79243 0.0
C292 C 0.57148 0.99697 0.7706 0.0
C293 C 0.55028 1.00889 0.71802 0.0
C294 C 0.03659 0.64768 0.23334 0.0
C295 C 1.0094 0.58761 0.20656 0.0
C296 C 0.05718 0.63445 0.2853 0.0
C297 C 0.0522 0.55923 0.31101 0.0
H298 H 0.04324 0.703 0.21362 0.0
H299 H 0.07717 0.68293 0.30476 0.0
S300 S 0.98196 0.38526 0.25672 0.0
N301 N 0.97616 0.45455 0.20892 0.0
N302 N 1.01583 0.42614 0.30572 0.0
C303 C 1.02369 0.5005 0.28453 0.0
C304 C 1.00212 0.51556 0.23241 0.0
C305 C 0.04527 0.53541 0.78208 0.0
C306 C 0.05693 0.45704 0.80797 0.0
C307 C 1.02285 0.53677 0.7307 0.0
C308 C 1.01076 0.45981 0.70345 0.0
H309 H 0.05328 0.59655 0.80196 0.0
H310 H 1.01535 0.59886 0.71183 0.0
S311 S 1.03327 0.23747 0.7539 0.0
N312 N 0.05437 0.30072 0.80326 0.0
N313 N 1.01252 0.30318 0.70568 0.0
C314 C 1.02208 0.38092 0.72876 0.0
C315 C 0.04518 0.37955 0.78142 0.0
C316 C 0.39082 0.61652 0.06225 0.0
C317 C 0.41242 0.69293 0.07391 0.0
C318 C 0.40745 0.53454 0.07385 0.0
C319 C 0.44651 0.52513 0.0981 0.0
H320 H 0.36068 0.6199 0.0431 0.0
H321 H 0.38954 0.4783 0.06233 0.0
S322 S 0.51544 0.70443 0.14149 0.0
N323 N 0.47479 0.75355 0.11458 0.0
N324 N 0.50611 0.6 0.13592 0.0
C325 C 0.46838 0.60108 0.11098 0.0
C326 C 0.4514 0.68466 0.09911 0.0
C327 C 0.65763 0.66957 0.38194 0.0
C328 C 0.65082 0.72325 0.41998 0.0
C329 C 0.64268 0.58565 0.37243 0.0
C330 C 0.6201 0.55191 0.40043 0.0
H331 H 0.67465 0.69272 0.35903 0.0
H332 H 0.64831 0.54765 0.34231 0.0
S333 S 0.59615 0.66177 0.50728 0.0
N334 N 0.62191 0.73293 0.48833 0.0
N335 N 0.59298 0.57694 0.46944 0.0
C336 C 0.61327 0.60436 0.43885 0.0
C337 C 0.62878 0.68946 0.44889 0.0
C338 C 0.60955 0.39989 0.88383 0.0
C339 C 0.63154 0.47504 0.89975 0.0
C340 C 0.62506 0.31704 0.89571 0.0
C341 C 0.66329 0.30581 0.92397 0.0
H342 H 0.5799 0.40506 0.86197 0.0
H343 H 0.60706 0.26146 0.882 0.0
S344 S 0.73281 0.48001 0.97829 0.0
N345 N 0.69337 0.53174 0.94825 0.0
N346 N 0.72267 0.37626 0.96915 0.0
C347 C 0.68569 0.38003 0.94023 0.0
C348 C 0.66984 0.46452 0.92854 0.0
C349 C 0.44302 0.3321 0.59999 0.0
C350 C 0.40462 0.32322 0.57169 0.0
C351 C 0.45968 0.414 0.61207 0.0
C352 C 0.43875 0.49066 0.59639 0.0
H353 H 0.46025 0.27541 0.61374 0.0
H354 H 0.48933 0.4172 0.63416 0.0
S355 S 0.33781 0.50207 0.51676 0.0
N356 N 0.34643 0.39774 0.526 0.0
N357 N 0.37785 0.55119 0.54727 0.0
C358 C 0.40039 0.48251 0.56718 0.0
C359 C 0.38336 0.39903 0.55526 0.0
C360 C 0.89465 0.14777 0.07864 0.0
C361 C 0.91687 0.22293 0.09191 0.0
C362 C 0.91053 0.06507 0.08983 0.0
C363 C 0.94933 0.05398 0.11544 0.0
H364 H 0.86471 0.15277 0.05834 0.0
H365 H 0.8923 1.00974 0.07675 0.0
S366 S 1.01914 0.23039 0.16392 0.0
N367 N 0.97915 0.28115 0.13552 0.0
N368 N 1.00913 0.12631 0.15698 0.0
C369 C 0.97167 0.12894 0.13036 0.0
C370 C 0.95547 0.21314 0.11858 0.0
C371 C 0.12796 0.17754 0.40407 0.0
C372 C 0.1667 0.18839 0.42965 0.0
C373 C 0.11195 0.09486 0.39334 0.0
C374 C 0.13389 0.01929 0.4077 0.0
H375 H 0.10987 0.2333 0.39157 0.0
H376 H 0.08193 0.09018 0.37355 0.0
S377 S 0.23652 0.01286 0.47917 0.0
N378 N 0.22657 0.11678 0.47071 0.0
N379 N 0.1964 0.96176 0.45186 0.0
C380 C 0.17271 0.02933 0.43377 0.0
C381 C 0.18907 0.11367 0.44435 0.0
C382 C 0.10888 0.90993 0.90007 0.0
C383 C 0.13187 0.98426 0.91046 0.0
C384 C 0.12439 0.82654 0.908 0.0
C385 C 0.16361 0.81398 0.92683 0.0
H386 H 0.07848 0.91622 0.88579 0.0
H387 H 0.10547 0.77164 0.89877 0.0
S388 S 0.23637 0.98621 0.96402 0.0
N389 N 0.19604 0.0391 0.94351 0.0
N390 N 0.22516 0.88277 0.95742 0.0
C391 C 0.18698 0.88757 0.93746 0.0
C392 C 0.17118 0.97253 0.92959 0.0
C393 C 0.88874 0.88884 0.57472 0.0
C394 C 0.9118 0.8147 0.58604 0.0
C395 C 0.90406 0.97229 0.58395 0.0
C396 C 0.94314 0.98512 0.60516 0.0
H397 H 0.85851 0.88249 0.55728 0.0
H398 H 0.88519 0.02697 0.57247 0.0
S399 S 1.01552 0.81295 0.64845 0.0
N400 N 0.97547 0.75986 0.62466 0.0
N401 N 1.00439 0.91647 0.64119 0.0
C402 C 0.96645 0.91155 0.61845 0.0
C403 C 0.95081 0.82649 0.60916 0.0
C404 C 0.29454 0.19089 0.97419 0.0
C405 C 0.32313 0.22091 0.01815 0.0
C406 C 0.25828 0.2276 0.95878 0.0
C407 C 0.24883 0.29592 0.98665 0.0
H408 H 0.29997 0.13776 0.95166 0.0
H409 H 0.2374 0.20155 0.92481 0.0
S410 S 0.31397 0.4027 0.10272 0.0
N411 N 0.33968 0.32628 0.08811 0.0
N412 N 0.27186 0.39474 0.05924 0.0
C413 C 0.27726 0.3274 0.03032 0.0
C414 C 0.31422 0.29017 0.04597 0.0
C415 C 0.77134 0.20816 0.52815 0.0
C416 C 0.74408 0.24137 0.4838 0.0
C417 C 0.80848 0.24019 0.54498 0.0
C418 C 0.82017 0.30681 0.51819 0.0
H419 H 0.76416 0.15594 0.54978 0.0
H420 H 0.82828 0.21179 0.57913 0.0
S421 S 0.75919 0.42089 0.40183 0.0
N422 N 0.73124 0.34809 0.41482 0.0
N423 N 0.80057 0.40786 0.4463 0.0
C424 C 0.79305 0.34155 0.47423 0.0
C425 C 0.75524 0.30909 0.45714 0.0
C426 C 0.75967 0.72663 0.96279 0.0
C427 C 0.74834 0.79462 0.9891 0.0
C428 C 0.79716 0.69729 0.97781 0.0
C429 C 0.82515 0.73483 0.01971 0.0
H430 H 0.73934 0.69541 0.93022 0.0
H431 H 0.80406 0.64383 0.95676 0.0
S432 S 0.81097 0.91838 0.09981 0.0
N433 N 0.76876 0.90055 0.05827 0.0
N434 N 0.83897 0.84635 0.08617 0.0
C435 C 0.8143 0.80357 0.04605 0.0
C436 C 0.77606 0.83306 0.03094 0.0
C437 C 0.25912 0.77319 0.45794 0.0
C438 C 0.24899 0.71278 0.49007 0.0
C439 C 0.29496 0.81191 0.47243 0.0
C440 C 0.32252 0.79222 0.51979 0.0
H441 H 0.23917 0.79115 0.42103 0.0
H442 H 0.30093 0.85817 0.44624 0.0
S443 S 0.31069 0.63798 0.61836 0.0
N444 N 0.26993 0.63497 0.57167 0.0
N445 N 0.33686 0.70765 0.5991 0.0
C446 C 0.31277 0.73197 0.55245 0.0
C447 C 0.27624 0.69246 0.53761 0.0
C448 C 0.42531 0.94721 0.84714 0.0
C449 C 0.39309 0.99206 0.84961 0.0
C450 C 0.42983 0.92465 0.79948 0.0
C451 C 0.40264 0.94735 0.75237 0.0
H452 H 0.4471 0.92849 0.88229 0.0
H453 H 0.45505 0.89006 0.79959 0.0
S454 S 0.31362 0.06657 0.73719 0.0
N455 N 0.33374 0.05907 0.80031 0.0
N456 N 0.34253 0.01783 0.71118 0.0
C457 C 0.37058 0.9931 0.75425 0.0
C458 C 0.36572 0.01511 0.80269 0.0
C459 C 0.69346 0.0252 0.69231 0.0
C460 C 0.66738 0.99958 0.64495 0.0
C461 C 0.6909 0.99545 0.73968 0.0
C462 C 0.66246 0.9375 0.74213 0.0
H463 H 0.71616 0.06913 0.69299 0.0
H464 H 0.71174 0.01789 0.77479 0.0
S465 S 0.58698 0.84993 0.62921 0.0
N466 N 0.61175 0.91317 0.60339 0.0
N467 N 0.60735 0.8557 0.69242 0.0
C468 C 0.6361 0.91101 0.69504 0.0
C469 C 0.6384 0.94252 0.64658 0.0
C470 C 0.63758 0.11532 0.19525 0.0
C471 C 0.64705 0.06399 0.24023 0.0
C472 C 0.63821 0.08153 0.1474 0.0
C473 C 0.64797 0.99463 0.14225 0.0
H474 H 0.6301 0.18256 0.19706 0.0
H475 H 0.63126 0.12425 0.11427 0.0
S476 S 0.6724 0.83079 0.2474 0.0
N477 N 0.66485 0.9201 0.27561 0.0
N478 N 0.66544 0.857 0.18644 0.0
C479 C 0.65633 0.94201 0.18665 0.0
C480 C 0.65604 0.9765 0.23531 0.0
C481 C 0.39031 0.95934 0.30843 0.0
C482 C 0.40966 1.00119 0.35509 0.0
C483 C 0.39373 0.98682 0.2611 0.0
C484 C 0.41666 0.05752 0.25808 0.0
H485 H 0.37191 0.90519 0.30817 0.0
H486 H 0.37788 0.9524 0.22646 0.0
S487 S 0.47571 0.18569 0.3694 0.0
N488 N 0.45427 0.11465 0.39561 0.0
N489 N 0.46058 0.16644 0.30661 0.0
C490 C 0.43675 0.09929 0.30453 0.0
C491 C 0.4333 0.07111 0.35294 0.0
C492 C 0.92402 0.40776 0.80642 0.0
C493 C 0.92976 0.46328 0.76871 0.0
C494 C 0.92377 0.4396 0.85486 0.0
C495 C 0.92956 0.52808 0.86762 0.0
H496 H 0.91835 0.33987 0.79782 0.0
H497 H 0.91794 0.39483 0.8819 0.0
S498 S 0.95259 0.6972 0.78561 0.0
N499 N 0.94569 0.60909 0.74978 0.0
N500 N 0.94591 0.66818 0.84032 0.0
C501 C 0.93764 0.58296 0.83127 0.0
C502 C 0.93756 0.5508 0.78203 0.0
C503 C 0.15157 0.42271 0.65708 0.0
C504 C 0.14445 0.50938 0.64088 0.0
C505 C 0.14898 0.39479 0.70504 0.0
C506 C 0.13947 0.45267 0.73875 0.0
H507 H 0.1602 0.37642 0.63321 0.0
H508 H 0.15585 0.32832 0.71658 0.0
S509 S 0.11185 0.68237 0.71126 0.0
N510 N 0.12277 0.64981 0.6601 0.0
N511 N 0.1187 0.59796 0.75006 0.0
C512 C 0.13036 0.53815 0.72186 0.0
C513 C 0.13263 0.56634 0.67302 0.0
C514 C 0.17253 0.47285 0.23916 0.0
C515 C 0.1531 0.5484 0.24448 0.0
C516 C 0.17457 0.44629 0.19095 0.0
C517 C 0.15727 0.49402 0.14578 0.0
H518 H 0.18664 0.43379 0.27264 0.0
H519 H 0.19029 0.38816 0.18932 0.0
S520 S 0.10006 0.69286 0.13745 0.0
N521 N 0.11451 0.66851 0.1996 0.0
N522 N 0.11805 0.61809 0.10891 0.0
C523 C 0.13708 0.56892 0.15018 0.0
C524 C 0.13508 0.59622 0.19948 0.0
C525 C 0.88165 0.53045 0.26274 0.0
C526 C 0.9109 0.58681 0.26149 0.0
C527 C 0.87768 0.50197 0.30958 0.0
C528 C 0.90301 0.52767 0.35754 0.0
H529 H 0.86124 0.50851 0.22711 0.0
H530 H 0.85436 0.45935 0.30794 0.0
S531 S 0.9858 0.67108 0.376 0.0
N532 N 0.96649 0.66536 0.31263 0.0
N533 N 0.95935 0.61091 0.40074 0.0
C534 C 0.93289 0.58284 0.35699 0.0
C535 C 0.93673 0.61266 0.30906 0.0
C536 C 0.53073 0.92651 0.0253 0.0
C537 C 0.50451 0.99376 0.02083 0.0
C538 C 0.55695 0.92902 0.99849 0.0
C539 C 0.55753 0.99844 0.96582 0.0
H540 H 0.53194 0.87308 0.05149 0.0
H541 H 0.57577 0.87455 0.00167 0.0
S542 S 0.49504 0.19019 0.94007 0.0
N543 N 0.48126 0.13242 0.98178 0.0
N544 N 0.52956 0.13488 0.92917 0.0
C545 C 0.53122 0.06543 0.9603 0.0
C546 C 0.50473 0.06338 0.98801 0.0
C547 C 0.55017 0.09937 0.49482 0.0
C548 C 0.5552 0.02715 0.46668 0.0
C549 C 0.52319 0.09847 0.52052 0.0
C550 C 0.50052 0.0253 0.51908 0.0
H551 H 0.56624 0.15788 0.49554 0.0
H552 H 0.52141 0.15371 0.5441 0.0
S553 S 0.50299 0.82015 0.45024 0.0
N554 N 0.53502 0.88167 0.43741 0.0
N555 N 0.48509 0.87884 0.48743 0.0
C556 C 0.50487 0.95335 0.49023 0.0
C557 C 0.53226 0.95435 0.46401 0.0
C558 C 0.03882 0.4581 0.0418 0.0
C559 C 1.01516 0.53004 0.03816 0.0
C560 C 0.0642 0.45439 0.0136 0.0
C561 C 0.06694 0.52317 0.98151 0.0
H562 H 0.03793 0.40473 0.06713 0.0
H563 H 0.08024 0.39567 0.01482 0.0
S564 S 1.01518 0.73074 0.96428 0.0
N565 N 0.99901 0.67514 0.00452 0.0
N566 N 0.0462 0.6674 0.95035 0.0
C567 C 0.04462 0.59685 0.97928 0.0
C568 C 1.01869 0.6004 0.00771 0.0
C569 C 0.04378 0.42803 0.48657 0.0
C570 C 0.06578 0.5004 0.48387 0.0
C571 C 1.01602 0.43291 0.51085 0.0
C572 C 1.00945 0.5104 0.53336 0.0
H573 H 0.04695 0.3682 0.46768 0.0
H574 H 1.00063 0.37483 0.51371 0.0
S575 S 0.05768 0.71949 0.5344 0.0
N576 N 0.07745 0.65323 0.50299 0.0
N577 N 1.02658 0.66092 0.55137 0.0
C578 C 1.03122 0.5831 0.53108 0.0
C579 C 0.05921 0.57842 0.50593 0.0
loop_
_geom_bond_atom_site_label_1
_geom_bond_atom_site_label_2
_geom_bond_distance
_geom_bond_site_symmetry_2
_ccdc_geom_bond_type
Zn0 N4 2.020 . S
Zn0 O8 2.019 . S
Zn0 N10 2.119 . S
Zn0 O18 1.975 . S
C1 N2 1.334 . S
C1 N5 1.336 . S
N2 C1 1.334 . S
N2 C3 1.334 . S
C3 N2 1.334 . S
C3 N4 1.336 . S
N4 Zn0 2.020 . S
N4 C3 1.336 . S
N4 N5 1.354 . S
N5 C1 1.336 . S
N5 N4 1.354 . S
N5 Zn9 2.020 . S
C6 O7 1.244 . S
C6 O30 1.257 1_545 S
O7 C6 1.244 . S
O8 Zn0 2.019 . S
O8 C28 1.257 . S
Zn9 N5 2.020 . S
Zn9 O16 1.970 . S
Zn9 N25 2.119 1_545 S
Zn9 O30 2.019 1_544 S
N10 Zn0 2.119 . S
N10 C12 1.334 . S
N10 C13 1.328 . S
C11 C12 1.391 . S
C11 N14 1.329 . S
C11 H32 0.930 1_554 S
C12 N10 1.334 . S
C12 C11 1.391 . S
C12 H19 0.930 . S
C13 N10 1.328 . S
C13 C15 1.392 . S
C13 H20 0.930 . S
N14 C11 1.329 . S
N14 C15 1.331 . S
C15 C13 1.392 . S
C15 N14 1.331 . S
O16 Zn9 1.970 . S
O16 C17 1.269 . S
C17 O16 1.269 . S
C17 O18 1.252 . S
O18 Zn0 1.975 . S
O18 C17 1.252 . S
H19 C12 0.930 . S
H20 C13 0.930 . S
C21 C22 1.392 1_556 S
C21 N25 1.328 1_556 S
C21 H27 0.930 . S
C22 C21 1.392 1_554 S
C22 N26 1.331 . S
C23 C24 1.391 . S
C23 N26 1.329 . S
C23 H33 0.930 . S
C24 C23 1.391 . S
C24 N25 1.334 . S
C24 H31 0.930 . S
N25 Zn9 2.119 1_565 S
N25 C21 1.328 1_554 S
N25 C24 1.334 . S
N26 C22 1.331 . S
N26 C23 1.329 . S
H27 C21 0.930 . S
C28 O8 1.257 . S
C28 O29 1.244 . S
O29 C28 1.244 . S
O30 C6 1.257 1_565 S
O30 Zn9 2.019 1_566 S
H31 C24 0.930 . S
H32 C11 0.930 1_556 S
H33 C23 0.930 . S
Zn34 N38 2.020 . S
Zn34 O42 2.019 1_545 S
Zn34 N44 2.119 1_545 S
Zn34 O52 1.975 . S
C35 N36 1.334 . S
C35 N39 1.336 . S
N36 C35 1.334 . S
N36 C37 1.334 . S
C37 N36 1.334 . S
C37 N38 1.336 . S
N38 Zn34 2.020 . S
N38 C37 1.336 . S
N38 N39 1.354 . S
N39 C35 1.336 . S
N39 N38 1.354 . S
N39 Zn43 2.020 . S
C40 O41 1.244 . S
C40 O64 1.257 . S
O41 C40 1.244 . S
O42 Zn34 2.019 1_565 S
O42 C62 1.257 1_565 S
Zn43 N39 2.020 . S
Zn43 O50 1.975 . S
Zn43 N59 2.119 . S
Zn43 O64 2.019 . S
N44 Zn34 2.119 1_565 S
N44 C46 1.334 . S
N44 C47 1.328 . S
C45 C46 1.391 . S
C45 N48 1.329 . S
C45 H66 0.930 . S
C46 N44 1.334 . S
C46 C45 1.391 . S
C46 H53 0.930 . S
C47 N44 1.328 . S
C47 C49 1.392 . S
C47 H54 0.930 . S
N48 C45 1.329 . S
N48 C49 1.331 . S
C49 C47 1.392 . S
C49 N48 1.331 . S
O50 Zn43 1.975 . S
O50 C51 1.252 . S
C51 O50 1.252 . S
C51 O52 1.252 . S
O52 Zn34 1.975 . S
O52 C51 1.252 . S
H53 C46 0.930 . S
H54 C47 0.930 . S
C55 C56 1.392 . S
C55 N59 1.328 . S
C55 H61 0.930 . S
C56 C55 1.392 . S
C56 N60 1.331 . S
C57 C58 1.391 . S
C57 N60 1.329 . S
C57 H67 0.930 . S
C58 C57 1.391 . S
C58 N59 1.334 . S
C58 H65 0.930 . S
N59 Zn43 2.119 . S
N59 C55 1.328 . S
N59 C58 1.334 . S
N60 C56 1.331 . S
N60 C57 1.329 . S
H61 C55 0.930 . S
C62 O42 1.257 1_545 S
C62 O63 1.244 . S
O63 C62 1.244 . S
O64 C40 1.257 . S
O64 Zn43 2.019 . S
H65 C58 0.930 . S
H66 C45 0.930 . S
H67 C57 0.930 . S
Zn68 N72 2.020 . S
Zn68 O76 2.019 . S
Zn68 N78 2.119 . S
Zn68 O86 1.975 . S
C69 N70 1.334 . S
C69 N73 1.336 . S
N70 C69 1.334 . S
N70 C71 1.334 . S
C71 N70 1.334 . S
C71 N72 1.336 . S
N72 Zn68 2.020 . S
N72 C71 1.336 . S
N72 N73 1.354 . S
N73 C69 1.336 . S
N73 N72 1.354 . S
N73 Zn77 2.020 . S
C74 O75 1.244 . S
C74 O98 1.257 1_565 S
O75 C74 1.244 . S
O76 Zn68 2.019 . S
O76 C96 1.257 . S
Zn77 N73 2.020 . S
Zn77 O84 1.970 . S
Zn77 N93 2.119 1_565 S
Zn77 O98 2.019 1_566 S
N78 Zn68 2.119 . S
N78 C80 1.334 . S
N78 C81 1.328 . S
C79 C80 1.391 . S
C79 N82 1.329 . S
C79 H100 0.930 1_556 S
C80 N78 1.334 . S
C80 C79 1.391 . S
C80 H87 0.930 . S
C81 N78 1.328 . S
C81 C83 1.392 . S
C81 H88 0.930 . S
N82 C79 1.329 . S
N82 C83 1.331 . S
C83 C81 1.392 . S
C83 N82 1.331 . S
O84 Zn77 1.970 . S
O84 C85 1.269 . S
C85 O84 1.269 . S
C85 O86 1.252 . S
O86 Zn68 1.975 . S
O86 C85 1.252 . S
H87 C80 0.930 . S
H88 C81 0.930 . S
C89 C90 1.392 1_554 S
C89 N93 1.328 1_554 S
C89 H95 0.930 . S
C90 C89 1.392 1_556 S
C90 N94 1.331 . S
C91 C92 1.391 . S
C91 N94 1.329 . S
C91 H101 0.930 . S
C92 C91 1.391 . S
C92 N93 1.334 . S
C92 H99 0.930 . S
N93 Zn77 2.119 1_545 S
N93 C89 1.328 1_556 S
N93 C92 1.334 . S
N94 C90 1.331 . S
N94 C91 1.329 . S
H95 C89 0.930 . S
C96 O76 1.257 . S
C96 O97 1.244 . S
O97 C96 1.244 . S
O98 C74 1.257 1_545 S
O98 Zn77 2.019 1_544 S
H99 C92 0.930 . S
H100 C79 0.930 1_554 S
H101 C91 0.930 . S
Zn102 N106 2.020 . S
Zn102 O110 2.019 . S
Zn102 N112 2.119 . S
Zn102 O120 1.975 . S
C103 N104 1.334 . S
C103 N107 1.336 . S
N104 C103 1.334 . S
N104 C105 1.334 . S
C105 N104 1.334 . S
C105 N106 1.336 . S
N106 Zn102 2.020 . S
N106 C105 1.336 . S
N106 N107 1.354 . S
N107 C103 1.336 . S
N107 N106 1.354 . S
N107 Zn111 2.020 . S
C108 O109 1.244 . S
C108 O132 1.257 1_565 S
O109 C108 1.244 . S
O110 Zn102 2.019 . S
O110 C130 1.257 . S
Zn111 N107 2.020 . S
Zn111 O118 1.975 . S
Zn111 N127 2.119 1_565 S
Zn111 O132 2.019 1_565 S
N112 Zn102 2.119 . S
N112 C114 1.334 . S
N112 C115 1.328 . S
C113 C114 1.391 . S
C113 N116 1.329 . S
C113 H134 0.930 . S
C114 N112 1.334 . S
C114 C113 1.391 . S
C114 H121 0.930 . S
C115 N112 1.328 . S
C115 C117 1.392 . S
C115 H122 0.930 . S
N116 C113 1.329 . S
N116 C117 1.331 . S
C117 C115 1.392 . S
C117 N116 1.331 . S
O118 Zn111 1.975 . S
O118 C119 1.252 . S
C119 O118 1.252 . S
C119 O120 1.252 . S
O120 Zn102 1.975 . S
O120 C119 1.252 . S
H121 C114 0.930 . S
H122 C115 0.930 . S
C123 C124 1.392 . S
C123 N127 1.328 . S
C123 H129 0.930 . S
C124 C123 1.392 . S
C124 N128 1.331 . S
C125 C126 1.391 . S
C125 N128 1.329 . S
C125 H135 0.930 . S
C126 C125 1.391 . S
C126 N127 1.334 . S
C126 H133 0.930 . S
N127 Zn111 2.119 1_545 S
N127 C123 1.328 . S
N127 C126 1.334 . S
N128 C124 1.331 . S
N128 C125 1.329 . S
H129 C123 0.930 . S
C130 O110 1.257 . S
C130 O131 1.244 . S
O131 C130 1.244 . S
O132 C108 1.257 1_545 S
O132 Zn111 2.019 1_545 S
H133 C126 0.930 . S
H134 C113 0.930 . S
H135 C125 0.930 . S
Zn136 N140 2.020 . S
Zn136 O144 2.019 . S
Zn136 N146 2.119 . S
Zn136 O154 1.975 . S
C137 N138 1.334 . S
C137 N141 1.336 . S
N138 C137 1.334 . S
N138 C139 1.334 . S
C139 N138 1.334 . S
C139 N140 1.336 . S
N140 Zn136 2.020 . S
N140 C139 1.336 . S
N140 N141 1.354 . S
N141 C137 1.336 . S
N141 N140 1.354 . S
N141 Zn145 2.020 . S
C142 O143 1.244 . S
C142 O166 1.257 . S
O143 C142 1.244 . S
O144 Zn136 2.019 . S
O144 C164 1.257 . S
Zn145 N141 2.020 . S
Zn145 O152 1.970 . S
Zn145 N161 2.119 . S
Zn145 O166 2.019 1_554 S
N146 Zn136 2.119 . S
N146 C148 1.334 . S
N146 C149 1.328 . S
C147 C148 1.391 . S
C147 N150 1.329 . S
C147 H168 0.930 1_554 S
C148 N146 1.334 . S
C148 C147 1.391 . S
C148 H155 0.930 . S
C149 N146 1.328 . S
C149 C151 1.392 . S
C149 H156 0.930 . S
N150 C147 1.329 . S
N150 C151 1.331 . S
C151 C149 1.392 . S
C151 N150 1.331 . S
O152 Zn145 1.970 . S
O152 C153 1.269 . S
C153 O152 1.269 . S
C153 O154 1.252 . S
O154 Zn136 1.975 . S
O154 C153 1.252 . S
H155 C148 0.930 . S
H156 C149 0.930 . S
C157 C158 1.392 1_556 S
C157 N161 1.328 1_556 S
C157 H163 0.930 . S
C158 C157 1.392 1_554 S
C158 N162 1.331 . S
C159 C160 1.391 . S
C159 N162 1.329 . S
C159 H169 0.930 . S
C160 C159 1.391 . S
C160 N161 1.334 . S
C160 H167 0.930 . S
N161 Zn145 2.119 . S
N161 C157 1.328 1_554 S
N161 C160 1.334 . S
N162 C158 1.331 . S
N162 C159 1.329 . S
H163 C157 0.930 . S
C164 O144 1.257 . S
C164 O165 1.244 . S
O165 C164 1.244 . S
O166 C142 1.257 . S
O166 Zn145 2.019 1_556 S
H167 C160 0.930 . S
H168 C147 0.930 1_556 S
H169 C159 0.930 . S
Zn170 N174 2.020 . S
Zn170 O178 2.019 . S
Zn170 N180 2.119 . S
Zn170 O188 1.975 . S
C171 N172 1.334 . S
C171 N175 1.336 . S
N172 C171 1.334 . S
N172 C173 1.334 . S
C173 N172 1.334 . S
C173 N174 1.336 . S
N174 Zn170 2.020 . S
N174 C173 1.336 . S
N174 N175 1.354 . S
N175 C171 1.336 . S
N175 N174 1.354 . S
N175 Zn179 2.020 . S
C176 O177 1.244 . S
C176 O200 1.257 . S
O177 C176 1.244 . S
O178 Zn170 2.019 . S
O178 C198 1.257 . S
Zn179 N175 2.020 . S
Zn179 O186 1.975 . S
Zn179 N195 2.119 . S
Zn179 O200 2.019 . S
N180 Zn170 2.119 . S
N180 C182 1.334 . S
N180 C183 1.328 . S
C181 C182 1.391 . S
C181 N184 1.329 . S
C181 H202 0.930 . S
C182 N180 1.334 . S
C182 C181 1.391 . S
C182 H189 0.930 . S
C183 N180 1.328 . S
C183 C185 1.392 . S
C183 H190 0.930 . S
N184 C181 1.329 . S
N184 C185 1.331 . S
C185 C183 1.392 . S
C185 N184 1.331 . S
O186 Zn179 1.975 . S
O186 C187 1.252 . S
C187 O186 1.252 . S
C187 O188 1.252 . S
O188 Zn170 1.975 . S
O188 C187 1.252 . S
H189 C182 0.930 . S
H190 C183 0.930 . S
C191 C192 1.392 . S
C191 N195 1.328 . S
C191 H197 0.930 . S
C192 C191 1.392 . S
C192 N196 1.331 . S
C193 C194 1.391 . S
C193 N196 1.329 . S
C193 H203 0.930 . S
C194 C193 1.391 . S
C194 N195 1.334 . S
C194 H201 0.930 . S
N195 Zn179 2.119 . S
N195 C191 1.328 . S
N195 C194 1.334 . S
N196 C192 1.331 . S
N196 C193 1.329 . S
H197 C191 0.930 . S
C198 O178 1.257 . S
C198 O199 1.244 . S
O199 C198 1.244 . S
O200 C176 1.257 . S
O200 Zn179 2.019 . S
H201 C194 0.930 . S
H202 C181 0.930 . S
H203 C193 0.930 . S
Zn204 N208 2.020 . S
Zn204 O212 2.019 . S
Zn204 N214 2.119 . S
Zn204 O222 1.975 . S
C205 N206 1.334 . S
C205 N209 1.336 . S
N206 C205 1.334 . S
N206 C207 1.334 . S
C207 N206 1.334 . S
C207 N208 1.336 . S
N208 Zn204 2.020 . S
N208 C207 1.336 . S
N208 N209 1.354 . S
N209 C205 1.336 . S
N209 N208 1.354 . S
N209 Zn213 2.020 . S
C210 O211 1.244 . S
C210 O234 1.257 . S
O211 C210 1.244 . S
O212 Zn204 2.019 . S
O212 C232 1.257 . S
Zn213 N209 2.020 . S
Zn213 O220 1.970 . S
Zn213 N229 2.119 . S
Zn213 O234 2.019 1_556 S
N214 Zn204 2.119 . S
N214 C216 1.334 . S
N214 C217 1.328 . S
C215 C216 1.391 . S
C215 N218 1.329 . S
C215 H236 0.930 1_556 S
C216 N214 1.334 . S
C216 C215 1.391 . S
C216 H223 0.930 . S
C217 N214 1.328 . S
C217 C219 1.392 . S
C217 H224 0.930 . S
N218 C215 1.329 . S
N218 C219 1.331 . S
C219 C217 1.392 . S
C219 N218 1.331 . S
O220 Zn213 1.970 . S
O220 C221 1.269 . S
C221 O220 1.269 . S
C221 O222 1.252 . S
O222 Zn204 1.975 . S
O222 C221 1.252 . S
H223 C216 0.930 . S
H224 C217 0.930 . S
C225 C226 1.392 1_554 S
C225 N229 1.328 1_554 S
C225 H231 0.930 . S
C226 C225 1.392 1_556 S
C226 N230 1.331 . S
C227 C228 1.391 . S
C227 N230 1.329 . S
C227 H237 0.930 . S
C228 C227 1.391 . S
C228 N229 1.334 . S
C228 H235 0.930 . S
N229 Zn213 2.119 . S
N229 C225 1.328 1_556 S
N229 C228 1.334 . S
N230 C226 1.331 . S
N230 C227 1.329 . S
H231 C225 0.930 . S
C232 O212 1.257 . S
C232 O233 1.244 . S
O233 C232 1.244 . S
O234 C210 1.257 . S
O234 Zn213 2.019 1_554 S
H235 C228 0.930 . S
H236 C215 0.930 1_554 S
H237 C227 0.930 . S
Zn238 N242 2.020 . S
Zn238 O246 2.019 . S
Zn238 N248 2.119 . S
Zn238 O256 1.975 . S
C239 N240 1.334 . S
C239 N243 1.336 . S
N240 C239 1.334 . S
N240 C241 1.334 . S
C241 N240 1.334 . S
C241 N242 1.336 . S
N242 Zn238 2.020 . S
N242 C241 1.336 . S
N242 N243 1.354 . S
N243 C239 1.336 . S
N243 N242 1.354 . S
N243 Zn247 2.020 . S
C244 O245 1.244 . S
C244 O268 1.257 . S
O245 C244 1.244 . S
O246 Zn238 2.019 . S
O246 C266 1.257 . S
Zn247 N243 2.020 . S
Zn247 O254 1.975 . S
Zn247 N263 2.119 . S
Zn247 O268 2.019 . S
N248 Zn238 2.119 . S
N248 C250 1.334 . S
N248 C251 1.328 . S
C249 C250 1.391 . S
C249 N252 1.329 . S
C249 H270 0.930 . S
C250 N248 1.334 . S
C250 C249 1.391 . S
C250 H257 0.930 . S
C251 N248 1.328 . S
C251 C253 1.392 . S
C251 H258 0.930 . S
N252 C249 1.329 . S
N252 C253 1.331 . S
C253 C251 1.392 . S
C253 N252 1.331 . S
O254 Zn247 1.975 . S
O254 C255 1.252 . S
C255 O254 1.252 . S
C255 O256 1.252 . S
O256 Zn238 1.975 . S
O256 C255 1.252 . S
H257 C250 0.930 . S
H258 C251 0.930 . S
C259 C260 1.392 . S
C259 N263 1.328 . S
C259 H265 0.930 . S
C260 C259 1.392 . S
C260 N264 1.331 . S
C261 C262 1.391 . S
C261 N264 1.329 . S
C261 H271 0.930 . S
C262 C261 1.391 . S
C262 N263 1.334 . S
C262 H269 0.930 . S
N263 Zn247 2.119 . S
N263 C259 1.328 . S
N263 C262 1.334 . S
N264 C260 1.331 . S
N264 C261 1.329 . S
H265 C259 0.930 . S
C266 O246 1.257 . S
C266 O267 1.244 . S
O267 C266 1.244 . S
O268 C244 1.257 . S
O268 Zn247 2.019 . S
H269 C262 0.930 . S
H270 C249 0.930 . S
H271 C261 0.930 . S
C272 C273 1.369 . S
C272 C274 1.419 . S
C272 H276 0.930 . S
C273 C272 1.369 . S
C273 C282 1.429 . S
C274 C272 1.419 . S
C274 C275 1.363 . S
C274 H277 0.929 . S
C275 C274 1.363 . S
C275 C281 1.428 . S
H276 C272 0.930 . S
H277 C274 0.929 . S
S278 N279 1.613 . S
S278 N280 1.610 . S
N279 S278 1.613 . S
N279 C282 1.350 . S
N280 S278 1.610 . S
N280 C281 1.351 . S
C281 C275 1.428 . S
C281 N280 1.351 . S
C281 C282 1.434 . S
C282 C273 1.429 . S
C282 N279 1.350 . S
C282 C281 1.434 . S
C283 C284 1.369 . S
C283 C285 1.419 . S
C283 H287 0.930 . S
C284 C283 1.369 . S
C284 C293 1.429 . S
C285 C283 1.419 . S
C285 C286 1.363 . S
C285 H288 0.929 . S
C286 C285 1.363 . S
C286 C292 1.428 . S
H287 C283 0.930 . S
H288 C285 0.929 . S
S289 N290 1.613 . S
S289 N291 1.610 . S
N290 S289 1.613 . S
N290 C293 1.350 . S
N291 S289 1.610 . S
N291 C292 1.351 . S
C292 C286 1.428 . S
C292 N291 1.351 . S
C292 C293 1.434 . S
C293 C284 1.429 . S
C293 N290 1.350 . S
C293 C292 1.434 . S
C294 C295 1.369 1_455 S
C294 C296 1.419 . S
C294 H298 0.930 . S
C295 C294 1.369 1_655 S
C295 C304 1.429 . S
C296 C294 1.419 . S
C296 C297 1.363 . S
C296 H299 0.929 . S
C297 C296 1.363 . S
C297 C303 1.428 1_455 S
H298 C294 0.930 . S
H299 C296 0.929 . S
S300 N301 1.613 . S
S300 N302 1.610 . S
N301 S300 1.613 . S
N301 C304 1.350 . S
N302 S300 1.610 . S
N302 C303 1.351 . S
C303 C297 1.428 1_655 S
C303 N302 1.351 . S
C303 C304 1.434 . S
C304 C295 1.429 . S
C304 N301 1.350 . S
C304 C303 1.434 . S
C305 C306 1.369 . S
C305 C307 1.419 . S
C305 H309 0.930 . S
C306 C305 1.369 . S
C306 C315 1.429 1_455 S
C307 C305 1.419 . S
C307 C308 1.363 1_455 S
C307 H310 0.929 . S
C308 C307 1.363 1_655 S
C308 C314 1.428 . S
H309 C305 0.930 . S
H310 C307 0.929 . S
S311 N312 1.613 . S
S311 N313 1.610 . S
N312 S311 1.613 . S
N312 C315 1.350 . S
N313 S311 1.610 . S
N313 C314 1.351 . S
C314 C308 1.428 . S
C314 N313 1.351 . S
C314 C315 1.434 . S
C315 C306 1.429 1_655 S
C315 N312 1.350 . S
C315 C314 1.434 . S
C316 C317 1.369 . S
C316 C318 1.419 . S
C316 H320 0.930 1_554 S
C317 C316 1.369 . S
C317 C326 1.429 . S
C318 C316 1.419 . S
C318 C319 1.363 . S
C318 H321 0.929 . S
C319 C318 1.363 . S
C319 C325 1.428 . S
H320 C316 0.930 1_556 S
H321 C318 0.929 . S
S322 N323 1.613 . S
S322 N324 1.610 . S
N323 S322 1.613 . S
N323 C326 1.350 . S
N324 S322 1.610 . S
N324 C325 1.351 . S
C325 C319 1.428 . S
C325 N324 1.351 . S
C325 C326 1.434 . S
C326 C317 1.429 . S
C326 N323 1.350 . S
C326 C325 1.434 . S
C327 C328 1.369 . S
C327 C329 1.419 . S
C327 H331 0.930 . S
C328 C327 1.369 . S
C328 C337 1.429 . S
C329 C327 1.419 . S
C329 C330 1.363 . S
C329 H332 0.929 . S
C330 C329 1.363 . S
C330 C336 1.428 . S
H331 C327 0.930 . S
H332 C329 0.929 . S
S333 N334 1.613 . S
S333 N335 1.610 . S
N334 S333 1.613 . S
N334 C337 1.350 . S
N335 S333 1.610 . S
N335 C336 1.351 . S
C336 C330 1.428 . S
C336 N335 1.351 . S
C336 C337 1.434 . S
C337 C328 1.429 . S
C337 N334 1.350 . S
C337 C336 1.434 . S
C338 C339 1.369 . S
C338 C340 1.419 . S
C338 H342 0.930 . S
C339 C338 1.369 . S
C339 C348 1.429 . S
C340 C338 1.419 . S
C340 C341 1.363 . S
C340 H343 0.929 . S
C341 C340 1.363 . S
C341 C347 1.428 . S
H342 C338 0.930 . S
H343 C340 0.929 . S
S344 N345 1.613 . S
S344 N346 1.610 . S
N345 S344 1.613 . S
N345 C348 1.350 . S
N346 S344 1.610 . S
N346 C347 1.351 . S
C347 C341 1.428 . S
C347 N346 1.351 . S
C347 C348 1.434 . S
C348 C339 1.429 . S
C348 N345 1.350 . S
C348 C347 1.434 . S
C349 C350 1.369 . S
C349 C351 1.419 . S
C349 H353 0.930 . S
C350 C349 1.369 . S
C350 C359 1.429 . S
C351 C349 1.419 . S
C351 C352 1.363 . S
C351 H354 0.929 . S
C352 C351 1.363 . S
C352 C358 1.428 . S
H353 C349 0.930 . S
H354 C351 0.929 . S
S355 N356 1.613 . S
S355 N357 1.610 . S
N356 S355 1.613 . S
N356 C359 1.350 . S
N357 S355 1.610 . S
N357 C358 1.351 . S
C358 C352 1.428 . S
C358 N357 1.351 . S
C358 C359 1.434 . S
C359 C350 1.429 . S
C359 N356 1.350 . S
C359 C358 1.434 . S
C360 C361 1.369 . S
C360 C362 1.419 . S
C360 H364 0.930 . S
C361 C360 1.369 . S
C361 C370 1.429 . S
C362 C360 1.419 . S
C362 C363 1.363 . S
C362 H365 0.929 . S
C363 C362 1.363 . S
C363 C369 1.428 . S
H364 C360 0.930 . S
H365 C362 0.929 . S
S366 N367 1.613 . S
S366 N368 1.610 1_546 S
N367 S366 1.613 . S
N367 C370 1.350 1_556 S
N368 S366 1.610 1_564 S
N368 C369 1.351 1_565 S
C369 C363 1.428 . S
C369 N368 1.351 1_545 S
C369 C370 1.434 . S
C370 C361 1.429 . S
C370 N367 1.350 1_554 S
C370 C369 1.434 . S
C371 C372 1.369 . S
C371 C373 1.419 . S
C371 H375 0.930 . S
C372 C371 1.369 . S
C372 C381 1.429 . S
C373 C371 1.419 . S
C373 C374 1.363 . S
C373 H376 0.929 . S
C374 C373 1.363 . S
C374 C380 1.428 . S
H375 C371 0.930 . S
H376 C373 0.929 . S
S377 N378 1.613 . S
S377 N379 1.610 . S
N378 S377 1.613 . S
N378 C381 1.350 . S
N379 S377 1.610 . S
N379 C380 1.351 . S
C380 C374 1.428 . S
C380 N379 1.351 . S
C380 C381 1.434 . S
C381 C372 1.429 . S
C381 N378 1.350 . S
C381 C380 1.434 . S
C382 C383 1.369 . S
C382 C384 1.419 . S
C382 H386 0.930 . S
C383 C382 1.369 . S
C383 C392 1.429 . S
C384 C382 1.419 . S
C384 C385 1.363 . S
C384 H387 0.929 . S
C385 C384 1.363 . S
C385 C391 1.428 . S
H386 C382 0.930 . S
H387 C384 0.929 . S
S388 N389 1.613 . S
S388 N390 1.610 . S
N389 S388 1.613 . S
N389 C392 1.350 . S
N390 S388 1.610 . S
N390 C391 1.351 . S
C391 C385 1.428 . S
C391 N390 1.351 . S
C391 C392 1.434 . S
C392 C383 1.429 . S
C392 N389 1.350 . S
C392 C391 1.434 . S
C393 C394 1.369 . S
C393 C395 1.419 . S
C393 H397 0.930 . S
C394 C393 1.369 . S
C394 C403 1.429 . S
C395 C393 1.419 . S
C395 C396 1.363 . S
C395 H398 0.929 1_565 S
C396 C395 1.363 . S
C396 C402 1.428 . S
H397 C393 0.930 . S
H398 C395 0.929 1_545 S
S399 N400 1.613 . S
S399 N401 1.610 . S
N400 S399 1.613 . S
N400 C403 1.350 . S
N401 S399 1.610 . S
N401 C402 1.351 . S
C402 C396 1.428 . S
C402 N401 1.351 . S
C402 C403 1.434 . S
C403 C394 1.429 . S
C403 N400 1.350 . S
C403 C402 1.434 . S
C404 C405 1.369 1_556 S
C404 C406 1.419 . S
C404 H408 0.930 . S
C405 C404 1.369 1_554 S
C405 C414 1.429 . S
C406 C404 1.419 . S
C406 C407 1.363 . S
C406 H409 0.929 . S
C407 C406 1.363 . S
C407 C413 1.428 1_556 S
H408 C404 0.930 . S
H409 C406 0.929 . S
S410 N411 1.613 . S
S410 N412 1.610 . S
N411 S410 1.613 . S
N411 C414 1.350 . S
N412 S410 1.610 . S
N412 C413 1.351 . S
C413 C407 1.428 1_554 S
C413 N412 1.351 . S
C413 C414 1.434 . S
C414 C405 1.429 . S
C414 N411 1.350 . S
C414 C413 1.434 . S
C415 C416 1.369 . S
C415 C417 1.419 . S
C415 H419 0.930 . S
C416 C415 1.369 . S
C416 C425 1.429 . S
C417 C415 1.419 . S
C417 C418 1.363 . S
C417 H420 0.929 . S
C418 C417 1.363 . S
C418 C424 1.428 . S
H419 C415 0.930 . S
H420 C417 0.929 . S
S421 N422 1.613 . S
S421 N423 1.610 . S
N422 S421 1.613 . S
N422 C425 1.350 . S
N423 S421 1.610 . S
N423 C424 1.351 . S
C424 C418 1.428 . S
C424 N423 1.351 . S
C424 C425 1.434 . S
C425 C416 1.429 . S
C425 N422 1.350 . S
C425 C424 1.434 . S
C426 C427 1.369 . S
C426 C428 1.419 . S
C426 H430 0.930 . S
C427 C426 1.369 . S
C427 C436 1.429 1_556 S
C428 C426 1.419 . S
C428 C429 1.363 1_556 S
C428 H431 0.929 . S
C429 C428 1.363 1_554 S
C429 C435 1.428 . S
H430 C426 0.930 . S
H431 C428 0.929 . S
S432 N433 1.613 . S
S432 N434 1.610 . S
N433 S432 1.613 . S
N433 C436 1.350 . S
N434 S432 1.610 . S
N434 C435 1.351 . S
C435 C429 1.428 . S
C435 N434 1.351 . S
C435 C436 1.434 . S
C436 C427 1.429 1_554 S
C436 N433 1.350 . S
C436 C435 1.434 . S
C437 C438 1.369 . S
C437 C439 1.419 . S
C437 H441 0.930 . S
C438 C437 1.369 . S
C438 C447 1.429 . S
C439 C437 1.419 . S
C439 C440 1.363 . S
C439 H442 0.929 . S
C440 C439 1.363 . S
C440 C446 1.428 . S
H441 C437 0.930 . S
H442 C439 0.929 . S
S443 N444 1.613 . S
S443 N445 1.610 . S
N444 S443 1.613 . S
N444 C447 1.350 . S
N445 S443 1.610 . S
N445 C446 1.351 . S
C446 C440 1.428 . S
C446 N445 1.351 . S
C446 C447 1.434 . S
C447 C438 1.429 . S
C447 N444 1.350 . S
C447 C446 1.434 . S
C448 C449 1.369 1_565 S
C448 C450 1.419 . S
C448 H452 0.930 . S
C449 C448 1.369 1_545 S
C449 C458 1.429 1_545 S
C450 C448 1.419 . S
C450 C451 1.363 . S
C450 H453 0.929 . S
C451 C450 1.363 . S
C451 C457 1.428 . S
H452 C448 0.930 . S
H453 C450 0.929 . S
S454 N455 1.611 1_565 S
S454 N456 1.614 . S
N455 S454 1.611 1_545 S
N455 C458 1.350 1_545 S
N456 S454 1.614 . S
N456 C457 1.351 . S
C457 C451 1.428 . S
C457 N456 1.351 . S
C457 C458 1.434 . S
C458 C449 1.429 1_565 S
C458 N455 1.350 1_565 S
C458 C457 1.434 . S
C459 C460 1.369 . S
C459 C461 1.419 1_545 S
C459 H463 0.930 . S
C460 C459 1.369 . S
C460 C469 1.429 1_545 S
C461 C459 1.419 1_565 S
C461 C462 1.363 . S
C461 H464 0.929 . S
C462 C461 1.363 . S
C462 C468 1.428 . S
H463 C459 0.930 . S
H464 C461 0.929 . S
S465 N466 1.613 . S
S465 N467 1.610 . S
N466 S465 1.613 . S
N466 C469 1.350 . S
N467 S465 1.610 . S
N467 C468 1.351 . S
C468 C462 1.428 . S
C468 N467 1.351 . S
C468 C469 1.434 . S
C469 C460 1.429 1_565 S
C469 N466 1.350 . S
C469 C468 1.434 . S
C470 C471 1.369 . S
C470 C472 1.419 . S
C470 H474 0.930 . S
C471 C470 1.369 . S
C471 C480 1.429 . S
C472 C470 1.419 . S
C472 C473 1.363 1_545 S
C472 H475 0.929 . S
C473 C472 1.363 1_565 S
C473 C479 1.428 . S
H474 C470 0.930 . S
H475 C472 0.929 . S
S476 N477 1.613 . S
S476 N478 1.610 . S
N477 S476 1.613 . S
N477 C480 1.350 1_565 S
N478 S476 1.610 . S
N478 C479 1.351 . S
C479 C473 1.428 . S
C479 N478 1.351 . S
C479 C480 1.434 1_565 S
C480 C471 1.429 . S
C480 N477 1.350 1_545 S
C480 C479 1.434 1_545 S
C481 C482 1.369 . S
C481 C483 1.419 1_565 S
C481 H485 0.930 . S
C482 C481 1.369 . S
C482 C491 1.429 1_565 S
C483 C481 1.419 1_545 S
C483 C484 1.363 . S
C483 H486 0.929 . S
C484 C483 1.363 . S
C484 C490 1.428 . S
H485 C481 0.930 . S
H486 C483 0.929 . S
S487 N488 1.613 . S
S487 N489 1.610 . S
N488 S487 1.613 . S
N488 C491 1.350 . S
N489 S487 1.610 . S
N489 C490 1.351 . S
C490 C484 1.428 . S
C490 N489 1.351 . S
C490 C491 1.434 . S
C491 C482 1.429 1_545 S
C491 N488 1.350 . S
C491 C490 1.434 . S
C492 C493 1.369 . S
C492 C494 1.419 . S
C492 H496 0.930 . S
C493 C492 1.369 . S
C493 C502 1.429 . S
C494 C492 1.419 . S
C494 C495 1.363 . S
C494 H497 0.929 . S
C495 C494 1.363 . S
C495 C501 1.428 . S
H496 C492 0.930 . S
H497 C494 0.929 . S
S498 N499 1.613 . S
S498 N500 1.610 . S
N499 S498 1.613 . S
N499 C502 1.350 . S
N500 S498 1.610 . S
N500 C501 1.351 . S
C501 C495 1.428 . S
C501 N500 1.351 . S
C501 C502 1.434 . S
C502 C493 1.429 . S
C502 N499 1.350 . S
C502 C501 1.434 . S
C503 C504 1.369 . S
C503 C505 1.419 . S
C503 H507 0.930 . S
C504 C503 1.369 . S
C504 C513 1.429 . S
C505 C503 1.419 . S
C505 C506 1.363 . S
C505 H508 0.929 . S
C506 C505 1.363 . S
C506 C512 1.428 . S
H507 C503 0.930 . S
H508 C505 0.929 . S
S509 N510 1.613 . S
S509 N511 1.610 . S
N510 S509 1.613 . S
N510 C513 1.350 . S
N511 S509 1.610 . S
N511 C512 1.351 . S
C512 C506 1.428 . S
C512 N511 1.351 . S
C512 C513 1.434 . S
C513 C504 1.429 . S
C513 N510 1.350 . S
C513 C512 1.434 . S
C514 C515 1.369 . S
C514 C516 1.419 . S
C514 H518 0.930 . S
C515 C514 1.369 . S
C515 C524 1.429 . S
C516 C514 1.419 . S
C516 C517 1.363 . S
C516 H519 0.929 . S
C517 C516 1.363 . S
C517 C523 1.428 . S
H518 C514 0.930 . S
H519 C516 0.929 . S
S520 N521 1.613 . S
S520 N522 1.610 . S
N521 S520 1.613 . S
N521 C524 1.350 . S
N522 S520 1.610 . S
N522 C523 1.351 . S
C523 C517 1.428 . S
C523 N522 1.351 . S
C523 C524 1.434 . S
C524 C515 1.429 . S
C524 N521 1.350 . S
C524 C523 1.434 . S
C525 C526 1.369 . S
C525 C527 1.419 . S
C525 H529 0.930 . S
C526 C525 1.369 . S
C526 C535 1.429 . S
C527 C525 1.419 . S
C527 C528 1.363 . S
C527 H530 0.929 . S
C528 C527 1.363 . S
C528 C534 1.428 . S
H529 C525 0.930 . S
H530 C527 0.929 . S
S531 N532 1.613 . S
S531 N533 1.610 . S
N532 S531 1.613 . S
N532 C535 1.350 . S
N533 S531 1.610 . S
N533 C534 1.351 . S
C534 C528 1.428 . S
C534 N533 1.351 . S
C534 C535 1.434 . S
C535 C526 1.429 . S
C535 N532 1.350 . S
C535 C534 1.434 . S
C536 C537 1.369 1_566 S
C536 C538 1.419 . S
C536 H540 0.930 . S
C537 C536 1.369 1_544 S
C537 C546 1.429 . S
C538 C536 1.419 . S
C538 C539 1.363 . S
C538 H541 0.929 . S
C539 C538 1.363 . S
C539 C545 1.428 1_566 S
H540 C536 0.930 . S
H541 C538 0.929 . S
S542 N543 1.613 . S
S542 N544 1.610 . S
N543 S542 1.613 . S
N543 C546 1.350 . S
N544 S542 1.610 . S
N544 C545 1.351 . S
C545 C539 1.428 1_544 S
C545 N544 1.351 . S
C545 C546 1.434 . S
C546 C537 1.429 . S
C546 N543 1.350 . S
C546 C545 1.434 . S
C547 C548 1.369 . S
C547 C549 1.419 . S
C547 H551 0.930 . S
C548 C547 1.369 . S
C548 C557 1.429 1_545 S
C549 C547 1.419 . S
C549 C550 1.363 1_545 S
C549 H552 0.929 . S
C550 C549 1.363 1_565 S
C550 C556 1.428 . S
H551 C547 0.930 . S
H552 C549 0.929 . S
S553 N554 1.613 . S
S553 N555 1.610 . S
N554 S553 1.613 . S
N554 C557 1.350 . S
N555 S553 1.610 . S
N555 C556 1.351 . S
C556 C550 1.428 . S
C556 N555 1.351 . S
C556 C557 1.434 . S
C557 C548 1.429 1_565 S
C557 N554 1.350 . S
C557 C556 1.434 . S
C558 C559 1.369 1_556 S
C558 C560 1.419 . S
C558 H562 0.930 . S
C559 C558 1.369 1_554 S
C559 C568 1.429 1_655 S
C560 C558 1.419 . S
C560 C561 1.363 1_655 S
C560 H563 0.929 . S
C561 C560 1.363 1_455 S
C561 C567 1.428 1_556 S
H562 C558 0.930 . S
H563 C560 0.929 . S
S564 N565 1.613 . S
S564 N566 1.610 . S
N565 S564 1.613 . S
N565 C568 1.350 . S
N566 S564 1.610 . S
N566 C567 1.351 . S
C567 C561 1.428 1_554 S
C567 N566 1.351 . S
C567 C568 1.434 . S
C568 C559 1.429 1_455 S
C568 N565 1.350 . S
C568 C567 1.434 . S
C569 C570 1.369 1_655 S
C569 C571 1.419 . S
C569 H573 0.930 . S
C570 C569 1.369 1_455 S
C570 C579 1.429 . S
C571 C569 1.419 . S
C571 C572 1.363 . S
C571 H574 0.929 . S
C572 C571 1.363 . S
C572 C578 1.428 1_655 S
H573 C569 0.930 . S
H574 C571 0.929 . S
S575 N576 1.613 . S
S575 N577 1.610 . S
N576 S575 1.613 . S
N576 C579 1.350 . S
N577 S575 1.610 . S
N577 C578 1.351 . S
C578 C572 1.428 1_455 S
C578 N577 1.351 . S
C578 C579 1.434 . S
C579 C570 1.429 . S
C579 N576 1.350 . S
C579 C578 1.434 . S
C273 C35 1.766 . S
C275 C3 1.762 . S
C284 C105 1.762 . S
C286 C71 1.766 . S
C295 C139 1.765 . S
C297 C173 1.762 . S
C306 C207 1.764 . S
C308 C239 1.767 . S
C317 C22 1.600 . S
C319 C15 1.625 . S
C328 C49 1.614 . S
C330 C56 1.615 . S
C339 C83 1.626 . S
C341 C90 1.602 . S
C350 C124 1.613 . S
C352 C117 1.616 . S
C361 C158 1.613 . S
C363 C151 1.616 1_545 S
C372 C192 1.599 . S
C374 C185 1.626 1_545 S
C383 C219 1.627 1_565 S
C385 C226 1.601 . S
C394 C253 1.598 . S
C396 C260 1.627 1_565 S
C405 C17 1.881 . S
C407 C221 1.880 . S
C416 C51 1.877 . S
C418 C255 1.883 . S
C427 C85 1.879 . S
C429 C153 1.881 . S
C438 C187 1.881 . S
C440 C119 1.879 . S
C449 C6 1.677 . S
C451 C130 1.643 . S
C460 C62 1.673 . S
C462 C96 1.646 . S
C471 C40 1.637 . S
C473 C74 1.681 . S
C482 C108 1.673 . S
C484 C28 1.646 . S
C493 C244 1.636 . S
C495 C142 1.681 . S
C504 C176 1.682 . S
C506 C232 1.639 . S
C515 C198 1.647 . S
C517 C210 1.674 . S
C526 C164 1.638 . S
C528 C266 1.678 . S
C537 C1 1.883 . S
C539 C69 1.890 . S
C548 C37 1.891 . S
C550 C103 1.884 . S
C559 C137 1.883 . S
C561 C205 1.890 . S
C570 C171 1.890 . S
C572 C241 1.885 . S
