# Generated by pormake.
# Topology vbe, (5)-cn, num edge types: 1
# Building blocks:
#     Node 0, Type 0, BuildingBlock: BEQFEK_clean_sbu_0, # of connection points: 5
#     Node 1, Type 0, BuildingBlock: BEQFEK_clean_sbu_0, # of connection points: 5
#     Node 2, Type 0, BuildingBlock: BEQFEK_clean_sbu_0, # of connection points: 5
#     Node 3, Type 0, BuildingBlock: BEQFEK_clean_sbu_0, # of connection points: 5
#     Node 4, Type 0, BuildingBlock: BEQFEK_clean_sbu_0, # of connection points: 5
#     Node 5, Type 0, BuildingBlock: BEQFEK_clean_sbu_0, # of connection points: 5
#     Node 6, Type 0, BuildingBlock: BEQFEK_clean_sbu_0, # of connection points: 5
#     Node 7, Type 0, BuildingBlock: BEQFEK_clean_sbu_0, # of connection points: 5
#     Node 8, Type 0, BuildingBlock: BEQFEK_clean_sbu_0, # of connection points: 5
#     Node 9, Type 0, BuildingBlock: BEQFEK_clean_sbu_0, # of connection points: 5
#     Node 10, Type 0, BuildingBlock: BEQFEK_clean_sbu_0, # of connection points: 5
#     Node 11, Type 0, BuildingBlock: BEQFEK_clean_sbu_0, # of connection points: 5
#     Node 12, Type 0, BuildingBlock: BEQFEK_clean_sbu_0, # of connection points: 5
#     Node 13, Type 0, BuildingBlock: BEQFEK_clean_sbu_0, # of connection points: 5
#     Node 14, Type 0, BuildingBlock: BEQFEK_clean_sbu_0, # of connection points: 5
#     Node 15, Type 0, BuildingBlock: BEQFEK_clean_sbu_0, # of connection points: 5
#     Edge 16, Type (0, 0), BuildingBlock: OJICUG_clean_linker_0, # of connection points: 2
#     Edge 17, Type (0, 0), BuildingBlock: OJICUG_clean_linker_0, # of connection points: 2
#     Edge 18, Type (0, 0), BuildingBlock: OJICUG_clean_linker_0, # of connection points: 2
#     Edge 19, Type (0, 0), BuildingBlock: OJICUG_clean_linker_0, # of connection points: 2
#     Edge 20, Type (0, 0), BuildingBlock: OJICUG_clean_linker_0, # of connection points: 2
#     Edge 21, Type (0, 0), BuildingBlock: OJICUG_clean_linker_0, # of connection points: 2
#     Edge 22, Type (0, 0), BuildingBlock: OJICUG_clean_linker_0, # of connection points: 2
#     Edge 23, Type (0, 0), BuildingBlock: OJICUG_clean_linker_0, # of connection points: 2
#     Edge 24, Type (0, 0), BuildingBlock: OJICUG_clean_linker_0, # of connection points: 2
#     Edge 25, Type (0, 0), BuildingBlock: OJICUG_clean_linker_0, # of connection points: 2
#     Edge 26, Type (0, 0), BuildingBlock: OJICUG_clean_linker_0, # of connection points: 2
#     Edge 27, Type (0, 0), BuildingBlock: OJICUG_clean_linker_0, # of connection points: 2
#     Edge 28, Type (0, 0), BuildingBlock: OJICUG_clean_linker_0, # of connection points: 2
#     Edge 29, Type (0, 0), BuildingBlock: OJICUG_clean_linker_0, # of connection points: 2
#     Edge 30, Type (0, 0), BuildingBlock: OJICUG_clean_linker_0, # of connection points: 2
#     Edge 31, Type (0, 0), BuildingBlock: OJICUG_clean_linker_0, # of connection points: 2
#     Edge 32, Type (0, 0), BuildingBlock: OJICUG_clean_linker_0, # of connection points: 2
#     Edge 33, Type (0, 0), BuildingBlock: OJICUG_clean_linker_0, # of connection points: 2
#     Edge 34, Type (0, 0), BuildingBlock: OJICUG_clean_linker_0, # of connection points: 2
#     Edge 35, Type (0, 0), BuildingBlock: OJICUG_clean_linker_0, # of connection points: 2
#     Edge 36, Type (0, 0), BuildingBlock: OJICUG_clean_linker_0, # of connection points: 2
#     Edge 37, Type (0, 0), BuildingBlock: OJICUG_clean_linker_0, # of connection points: 2
#     Edge 38, Type (0, 0), BuildingBlock: OJICUG_clean_linker_0, # of connection points: 2
#     Edge 39, Type (0, 0), BuildingBlock: OJICUG_clean_linker_0, # of connection points: 2
#     Edge 40, Type (0, 0), BuildingBlock: OJICUG_clean_linker_0, # of connection points: 2
#     Edge 41, Type (0, 0), BuildingBlock: OJICUG_clean_linker_0, # of connection points: 2
#     Edge 42, Type (0, 0), BuildingBlock: OJICUG_clean_linker_0, # of connection points: 2
#     Edge 43, Type (0, 0), BuildingBlock: OJICUG_clean_linker_0, # of connection points: 2
#     Edge 44, Type (0, 0), BuildingBlock: OJICUG_clean_linker_0, # of connection points: 2
#     Edge 45, Type (0, 0), BuildingBlock: OJICUG_clean_linker_0, # of connection points: 2
#     Edge 46, Type (0, 0), BuildingBlock: OJICUG_clean_linker_0, # of connection points: 2
#     Edge 47, Type (0, 0), BuildingBlock: OJICUG_clean_linker_0, # of connection points: 2
#     Edge 48, Type (0, 0), BuildingBlock: OJICUG_clean_linker_0, # of connection points: 2
#     Edge 49, Type (0, 0), BuildingBlock: OJICUG_clean_linker_0, # of connection points: 2
#     Edge 50, Type (0, 0), BuildingBlock: OJICUG_clean_linker_0, # of connection points: 2
#     Edge 51, Type (0, 0), BuildingBlock: OJICUG_clean_linker_0, # of connection points: 2
#     Edge 52, Type (0, 0), BuildingBlock: OJICUG_clean_linker_0, # of connection points: 2
#     Edge 53, Type (0, 0), BuildingBlock: OJICUG_clean_linker_0, # of connection points: 2
#     Edge 54, Type (0, 0), BuildingBlock: OJICUG_clean_linker_0, # of connection points: 2
#     Edge 55, Type (0, 0), BuildingBlock: OJICUG_clean_linker_0, # of connection points: 2
# Relax obj value: 0.333
# Max RMSD: 0.206
# Mean RMSD: 0.206
data_MOF--net-vbe--node1-BEQFEK_clean_sbu_0--edge1-OJICUG_clean_linker_0
_symmetry_space_group_name_H-M    P1
_symmetry_Int_Tables_number       1
_symmetry_cell_setting            triclinic
loop_
_symmetry_equiv_pos_as_xyz
'x, y, z'
_cell_length_a     33.284273
_cell_length_b     31.046626
_cell_length_c     45.658241
_cell_angle_alpha  90.021426
_cell_angle_beta   89.998801
_cell_angle_gamma 90.000551
loop_
_atom_site_label
_atom_site_type_symbol
_atom_site_fract_x
_atom_site_fract_y
_atom_site_fract_z
_atom_type_partial_charge
Co0 Co 0.10969 0.12976 0.32444 0.0
Co1 Co 0.05767 0.07162 0.36519 0.0
C2 C 0.04953 0.16926 0.36355 0.0
O3 O 0.07824 0.1736 0.34541 0.0
O4 O 0.03841 0.13216 0.3724 0.0
C5 C 0.16076 0.19578 0.3004 0.0
O6 O 0.15408 0.21626 0.32512 0.0
C7 C 0.03801 0.04089 0.42377 0.0
C8 C 0.99746 0.98609 0.41491 0.0
C9 C 0.01502 0.00942 0.43744 0.0
N10 N 0.03439 0.03609 0.39465 0.0
N11 N 0.01024 0.0032 0.38945 0.0
C12 C 0.06097 0.07685 0.43783 0.0
H13 H 0.06674 0.10305 0.42189 0.0
H14 H 0.09043 0.06461 0.44552 0.0
H15 H 0.04429 0.08964 0.457 0.0
C16 C 0.17555 0.08354 0.3525 0.0
N17 N 0.13639 0.0933 0.35043 0.0
N18 N 0.11522 0.06628 0.36633 0.0
C19 C 0.1406 0.03722 0.37836 0.0
C20 C 0.17975 0.04733 0.36997 0.0
C21 C 0.20802 0.10693 0.33634 0.0
H22 H 0.20576 0.0995 0.31262 0.0
H23 H 0.20398 0.14211 0.33921 0.0
H24 H 0.2383 0.09779 0.34439 0.0
O25 O 0.0737 0.09632 0.29839 0.0
O26 O 0.0359 0.05415 0.32633 0.0
H27 H 0.09863 0.98537 0.3842 0.0
H28 H 0.15027 0.97146 0.39235 0.0
C29 C 0.12721 -0.00283 0.39377 0.0
H30 H 0.12201 0.00463 0.41721 0.0
H31 H 0.00205 0.9928 0.36855 0.0
O32 O 0.14676 0.1581 0.29706 0.0
C33 C 0.04628 0.06807 0.30121 0.0
Co34 Co 0.39261 0.85895 0.32558 0.0
Co35 Co 0.44379 0.9178 0.36648 0.0
C36 C 0.45301 0.82053 0.3653 0.0
O37 O 0.42471 0.8159 0.34684 0.0
O38 O 0.46358 0.85772 0.37436 0.0
C39 C 0.3423 0.79187 0.30193 0.0
O40 O 0.34921 0.77176 0.32675 0.0
C41 C 0.4669 0.94689 0.42457 0.0
C42 C 0.49557 0.0098 0.41602 0.0
C43 C 0.48548 0.98147 0.43834 0.0
N44 N 0.46635 0.95436 0.39562 0.0
N45 N 0.48363 0.99194 0.39057 0.0
C46 C 0.44699 0.90881 0.43846 0.0
H47 H 0.42332 0.89576 0.42381 0.0
H48 H 0.43365 0.91772 0.4599 0.0
H49 H 0.4697 0.88318 0.44203 0.0
C50 C 0.32613 0.90485 0.35317 0.0
N51 N 0.36535 0.8953 0.35131 0.0
N52 N 0.38618 0.92222 0.36752 0.0
C53 C 0.3605 0.95075 0.37978 0.0
C54 C 0.3215 0.94065 0.37099 0.0
C55 C 0.29401 0.88189 0.33634 0.0
H56 H 0.29726 0.88931 0.31268 0.0
H57 H 0.29757 0.84666 0.33925 0.0
H58 H 0.26354 0.8914 0.34379 0.0
O59 O 0.42811 0.89261 0.29944 0.0
O60 O 0.46565 0.93489 0.32751 0.0
H61 H 0.34867 0.01348 0.3988 0.0
H62 H 0.38447 0.9804 0.41815 0.0
C63 C 0.37359 0.99007 0.39615 0.0
H64 H 0.39887 0.00571 0.38443 0.0
H65 H 0.48689 0.00557 0.36982 0.0
O66 O 0.35595 0.82965 0.29837 0.0
C67 C 0.45539 0.92098 0.30234 0.0
Co68 Co 0.60996 0.85925 0.17323 0.0
Co69 Co 0.55748 0.918 0.13326 0.0
C70 C 0.54908 0.82057 0.13413 0.0
O71 O 0.57784 0.81598 0.1522 0.0
O72 O 0.53801 0.85777 0.12543 0.0
C73 C 0.66117 0.79253 0.19636 0.0
O74 O 0.65379 0.7722 0.17169 0.0
C75 C 0.53365 0.94704 0.07543 0.0
C76 C 0.50401 0.00938 0.08418 0.0
C77 C 0.51456 0.98137 0.06178 0.0
N78 N 0.53406 0.95433 0.1044 0.0
N79 N 0.51617 0.99155 0.10958 0.0
C80 C 0.55422 0.90945 0.06142 0.0
H81 H 0.57791 0.89656 0.07611 0.0
H82 H 0.56766 0.91884 0.04011 0.0
H83 H 0.5319 0.88352 0.05755 0.0
C84 C 0.67548 0.90572 0.14489 0.0
N85 N 0.63637 0.89594 0.14727 0.0
N86 N 0.61497 0.92296 0.13155 0.0
C87 C 0.64015 0.95187 0.11917 0.0
C88 C 0.67943 0.94188 0.12732 0.0
C89 C 0.70819 0.8825 0.16092 0.0
H90 H 0.70594 0.88976 0.18466 0.0
H91 H 0.70438 0.84731 0.15795 0.0
H92 H 0.73837 0.89196 0.15284 0.0
O93 O 0.5747 0.89248 0.19992 0.0
O94 O 0.53648 0.93488 0.17247 0.0
H95 H 0.65088 0.01539 0.10108 0.0
H96 H 0.61573 0.98219 0.08121 0.0
C97 C 0.62638 0.99141 0.10336 0.0
H98 H 0.60082 0.00619 0.11528 0.0
H99 H 0.51271 0.005 0.13038 0.0
O100 O 0.64747 0.83027 0.19997 0.0
C101 C 0.54728 0.92079 0.19746 0.0
Co102 Co 0.89102 0.13121 0.17332 0.0
Co103 Co 0.94257 0.07256 0.13258 0.0
C104 C 0.9517 0.16981 0.13389 0.0
O105 O 0.92329 0.17438 0.15226 0.0
O106 O 0.96235 0.13263 0.12486 0.0
C107 C 0.8407 0.19836 0.1967 0.0
O108 O 0.84782 0.21831 0.17186 0.0
C109 C 0.96658 0.04413 0.07462 0.0
C110 C 0.99507 0.98108 0.08303 0.0
C111 C 0.98541 0.00975 0.06081 0.0
N112 N 0.9655 0.03623 0.1035 0.0
N113 N 0.98266 -0.00143 0.10847 0.0
C114 C 0.94696 0.08242 0.06079 0.0
H115 H 0.92295 0.0952 0.07525 0.0
H116 H 0.93411 0.07387 0.03912 0.0
H117 H 0.96973 0.10813 0.05769 0.0
C118 C 0.82482 0.08539 0.14523 0.0
N119 N 0.86401 0.09494 0.14736 0.0
N120 N 0.88504 0.06813 0.13119 0.0
C121 C 0.85953 0.03967 0.1187 0.0
C122 C 0.82043 0.04966 0.12729 0.0
C123 C 0.7925 0.10828 0.1619 0.0
H124 H 0.79541 0.1007 0.18555 0.0
H125 H 0.79615 0.14352 0.15913 0.0
H126 H 0.76212 0.09887 0.15418 0.0
O127 O 0.9263 0.09743 0.19962 0.0
O128 O 0.96398 0.05524 0.1716 0.0
H129 H 0.84802 0.97705 0.09938 0.0
H130 H 0.8841 0.01028 0.08043 0.0
C131 C 0.87287 0.00045 0.10231 0.0
H132 H 0.89797 0.98475 0.11419 0.0
H133 H 0.98556 0.98466 0.12917 0.0
O134 O 0.85413 0.16051 0.20036 0.0
C135 C 0.95357 0.06903 0.19676 0.0
Co136 Co 0.89247 0.86145 0.67408 0.0
Co137 Co 0.94453 0.91949 0.6333 0.0
C138 C 0.95261 0.82184 0.63504 0.0
O139 O 0.9239 0.81752 0.65318 0.0
O140 O 0.96374 0.85892 0.62616 0.0
C141 C 0.84119 0.79569 0.69834 0.0
O142 O 0.84779 0.77496 0.67371 0.0
C143 C 0.9642 0.9501 0.57469 0.0
C144 C 0.00478 0.00489 0.58352 0.0
C145 C 0.9872 0.98154 0.56101 0.0
N146 N 0.96783 0.95493 0.60381 0.0
N147 N 0.99201 0.98782 0.60899 0.0
C148 C 0.9412 0.91415 0.56066 0.0
H149 H 0.93543 0.88797 0.57661 0.0
H150 H 0.91174 0.92641 0.55298 0.0
H151 H 0.95785 0.90133 0.54148 0.0
C152 C 0.82666 0.90756 0.64589 0.0
N153 N 0.86581 0.89782 0.64802 0.0
N154 N 0.88701 0.92483 0.63213 0.0
C155 C 0.86165 0.95386 0.62005 0.0
C156 C 0.82248 0.94375 0.62839 0.0
C157 C 0.79414 0.88416 0.662 0.0
H158 H 0.79631 0.89163 0.68572 0.0
H159 H 0.79823 0.84898 0.65916 0.0
H160 H 0.76389 0.89327 0.65389 0.0
O161 O 0.92846 0.89496 0.70011 0.0
O162 O 0.96627 0.93707 0.67214 0.0
H163 H 0.90367 0.00567 0.61421 0.0
H164 H 0.85204 0.01967 0.60613 0.0
C165 C 0.87507 0.99392 0.60466 0.0
H166 H 0.88021 0.9865 0.58121 0.0
H167 H 1.00021 -0.00177 0.62988 0.0
O168 O 0.85535 0.83332 0.70153 0.0
C169 C 0.95587 0.92321 0.69728 0.0
Co170 Co 0.61083 0.13285 0.67332 0.0
Co171 Co 0.55903 0.07389 0.63293 0.0
C172 C 0.54981 0.17117 0.63406 0.0
O173 O 0.57837 0.17586 0.6523 0.0
O174 O 0.53911 0.13394 0.62515 0.0
C175 C 0.66153 0.20001 0.69644 0.0
O176 O 0.65429 0.22002 0.67163 0.0
C177 C 0.53488 0.04475 0.5751 0.0
C178 C 0.50628 0.98189 0.58394 0.0
C179 C 0.51601 0.01019 0.56152 0.0
N180 N 0.53593 0.03729 0.60404 0.0
N181 N 0.51868 -0.00025 0.60926 0.0
C182 C 0.5546 0.08279 0.56102 0.0
H183 H 0.57849 0.09587 0.57548 0.0
H184 H 0.56764 0.07382 0.53949 0.0
H185 H 0.53186 0.10842 0.55759 0.0
C186 C 0.67686 0.08689 0.64517 0.0
N187 N 0.63768 0.09649 0.64734 0.0
N188 N 0.61658 0.06954 0.63134 0.0
C189 C 0.64204 0.04094 0.61892 0.0
C190 C 0.68117 0.05102 0.62738 0.0
C191 C 0.70924 0.10972 0.66182 0.0
H192 H 0.70621 0.10235 0.68549 0.0
H193 H 0.70579 0.14496 0.6589 0.0
H194 H 0.7396 0.10005 0.65421 0.0
O195 O 0.57584 0.09913 0.69984 0.0
O196 O 0.538 0.05672 0.67209 0.0
H197 H 0.65355 0.97816 0.59987 0.0
H198 H 0.61721 0.01107 0.58092 0.0
C199 C 0.62864 0.00151 0.60279 0.0
H200 H 0.60369 0.98587 0.61487 0.0
H201 H 0.51576 0.98614 0.63005 0.0
O202 O 0.64793 0.16224 0.70016 0.0
C203 C 0.54862 0.07064 0.69718 0.0
Co204 Co 0.39383 0.13153 0.82538 0.0
Co205 Co 0.44568 0.07327 0.86616 0.0
C206 C 0.45424 0.17063 0.86474 0.0
O207 O 0.42575 0.17496 0.84641 0.0
O208 O 0.46514 0.13356 0.87381 0.0
C209 C 0.34294 0.19803 0.80173 0.0
O210 O 0.34985 0.21833 0.82648 0.0
C211 C 0.4685 0.04466 0.92435 0.0
C212 C 0.49804 0.98214 0.91604 0.0
C213 C 0.48721 0.01032 0.93827 0.0
N214 N 0.46856 0.03719 0.89539 0.0
N215 N 0.48639 -0.00014 0.89049 0.0
C216 C 0.44785 0.08242 0.93807 0.0
H217 H 0.42446 0.09533 0.92313 0.0
H218 H 0.434 0.07321 0.95928 0.0
H219 H 0.4702 0.10827 0.94208 0.0
C220 C 0.32784 0.08541 0.85339 0.0
N221 N 0.367 0.09516 0.85131 0.0
N222 N 0.38812 0.06838 0.86741 0.0
C223 C 0.36271 0.03967 0.87976 0.0
C224 C 0.32358 0.04954 0.87119 0.0
C225 C 0.29543 0.10835 0.83686 0.0
H226 H 0.29823 0.10086 0.81318 0.0
H227 H 0.29906 0.14358 0.83971 0.0
H228 H 0.26509 0.09888 0.84463 0.0
O229 O 0.42941 0.09794 0.79921 0.0
O230 O 0.46737 0.056 0.82719 0.0
H231 H 0.35159 0.97651 0.8983 0.0
H232 H 0.38648 0.01 0.91818 0.0
C233 C 0.37617 0.0004 0.89602 0.0
H234 H 0.40189 0.98536 0.88444 0.0
H235 H 0.49013 0.98625 0.86976 0.0
O236 O 0.35681 0.16034 0.79821 0.0
C237 C 0.45686 0.06974 0.80204 0.0
Co238 Co 0.11112 0.86092 0.82531 0.0
Co239 Co 0.05977 0.91997 0.8659 0.0
C240 C 0.05052 0.82269 0.86492 0.0
O241 O 0.0789 0.81794 0.84654 0.0
O242 O 0.03993 0.85995 0.87383 0.0
C243 C 0.16119 0.79353 0.80195 0.0
O244 O 0.15398 0.77363 0.8268 0.0
C245 C 0.03606 0.9487 0.92385 0.0
C246 C 0.0075 0.0117 0.9154 0.0
C247 C 0.01726 0.98311 0.93764 0.0
N248 N 0.03701 0.95648 0.89495 0.0
N249 N 0.01982 0.99412 0.88995 0.0
C250 C 0.05573 0.91045 0.9377 0.0
H251 H 0.07974 0.89767 0.92323 0.0
H252 H 0.0686 0.91905 0.95935 0.0
H253 H 0.033 0.88472 0.94082 0.0
C254 C 0.17749 0.90669 0.85321 0.0
N255 N 0.13826 0.89731 0.8511 0.0
N256 N 0.11733 0.92433 0.86717 0.0
C257 C 0.14295 0.95281 0.87954 0.0
C258 C 0.18202 0.94257 0.871 0.0
C259 C 0.20974 0.88333 0.83678 0.0
H260 H 0.20711 0.89077 0.81308 0.0
H261 H 0.20574 0.84815 0.83965 0.0
H262 H 0.24013 0.89248 0.8446 0.0
O263 O 0.07578 0.89456 0.79897 0.0
O264 O 0.03823 0.93705 0.82688 0.0
H265 H 0.15459 0.01567 0.89844 0.0
H266 H 0.11879 0.9826 0.91781 0.0
C267 C 0.12973 0.99219 0.89581 0.0
H268 H 0.10447 0.00772 0.88401 0.0
H269 H 0.01682 0.00795 0.86924 0.0
O270 O 0.1479 0.83143 0.79827 0.0
C271 C 0.04856 0.92303 0.80176 0.0
Co272 Co 0.611 0.63127 0.32511 0.0
Co273 Co 0.55968 0.57234 0.36579 0.0
C274 C 0.5505 0.6697 0.36468 0.0
O275 O 0.57889 0.67443 0.3463 0.0
O276 O 0.5399 0.63245 0.3736 0.0
C277 C 0.66164 0.69797 0.30117 0.0
O278 O 0.65484 0.71849 0.32585 0.0
C279 C 0.53601 0.54371 0.42381 0.0
C280 C 0.50736 0.48076 0.41534 0.0
C281 C 0.51718 0.50932 0.43759 0.0
N282 N 0.53693 0.53594 0.3949 0.0
N283 N 0.51967 0.49832 0.3899 0.0
C284 C 0.55573 0.58194 0.43767 0.0
H285 H 0.5797 0.59474 0.42317 0.0
H286 H 0.56867 0.57331 0.45929 0.0
H287 H 0.53302 0.60767 0.44086 0.0
C288 C 0.67738 0.58571 0.35309 0.0
N289 N 0.63814 0.59503 0.35097 0.0
N290 N 0.61724 0.56798 0.36702 0.0
C291 C 0.64288 0.53952 0.37937 0.0
C292 C 0.68194 0.54982 0.37084 0.0
C293 C 0.70962 0.60915 0.33671 0.0
H294 H 0.70706 0.60173 0.31301 0.0
H295 H 0.70555 0.64432 0.33962 0.0
H296 H 0.74001 0.60007 0.34457 0.0
O297 O 0.57558 0.59751 0.29889 0.0
O298 O 0.53812 0.55501 0.32681 0.0
H299 H 0.65456 0.47662 0.39817 0.0
H300 H 0.61882 0.50967 0.41763 0.0
C301 C 0.6297 0.50011 0.3956 0.0
H302 H 0.6044 0.48462 0.38381 0.0
H303 H 0.51663 0.4845 0.36918 0.0
O304 O 0.64779 0.66023 0.29785 0.0
C305 C 0.54842 0.56899 0.30169 0.0
Co306 Co 0.89354 0.36083 0.32454 0.0
Co307 Co 0.94557 0.41881 0.36545 0.0
C308 C 0.95372 0.32142 0.36394 0.0
O309 O 0.92528 0.31725 0.34555 0.0
O310 O 0.96472 0.35843 0.37307 0.0
C311 C 0.84231 0.29454 0.30097 0.0
O312 O 0.84905 0.27438 0.32579 0.0
C313 C 0.96872 0.44722 0.42365 0.0
C314 C 0.99844 0.50964 0.41538 0.0
C315 C 0.98765 0.48143 0.43759 0.0
N316 N 0.96863 0.45479 0.39471 0.0
N317 N 0.98656 0.49207 0.38983 0.0
C318 C 0.94802 0.40948 0.43735 0.0
H319 H 0.92448 0.39674 0.42246 0.0
H320 H 0.93436 0.41865 0.45863 0.0
H321 H 0.97031 0.38352 0.4412 0.0
C322 C 0.8277 0.40713 0.35263 0.0
N323 N 0.86683 0.39728 0.35051 0.0
N324 N 0.88803 0.42393 0.36667 0.0
C325 C 0.8627 0.45265 0.37911 0.0
C326 C 0.82354 0.44292 0.37053 0.0
C327 C 0.79521 0.38433 0.33608 0.0
H328 H 0.79805 0.3918 0.3124 0.0
H329 H 0.79871 0.34909 0.33892 0.0
H330 H 0.7649 0.39391 0.34384 0.0
O331 O 0.92925 0.39429 0.29841 0.0
O332 O 0.96736 0.43597 0.32649 0.0
H333 H 0.85173 0.5157 0.3979 0.0
H334 H 0.88663 0.482 0.4176 0.0
C335 C 0.87627 0.49178 0.3955 0.0
H336 H 0.90198 0.50685 0.38394 0.0
H337 H 0.99025 0.50572 0.36912 0.0
O338 O 0.85642 0.33212 0.29735 0.0
C339 C 0.95682 0.42234 0.30131 0.0
Co340 Co 0.1107 0.35859 0.17265 0.0
Co341 Co 0.0591 0.41776 0.13234 0.0
C342 C 0.04943 0.32054 0.1335 0.0
O343 O 0.07803 0.31573 0.15168 0.0
O344 O 0.03886 0.35781 0.1246 0.0
C345 C 0.16091 0.2911 0.19581 0.0
O346 O 0.15337 0.27102 0.17108 0.0
C347 C 0.03534 0.44702 0.0745 0.0
C348 C 0.00682 0.50994 0.08332 0.0
C349 C 0.01665 0.48166 0.06091 0.0
N350 N 0.03619 0.45441 0.10345 0.0
N351 N 0.01899 0.49199 0.10867 0.0
C352 C 0.05506 0.40897 0.06043 0.0
H353 H 0.07881 0.39578 0.07495 0.0
H354 H 0.06828 0.41796 0.03897 0.0
H355 H 0.03228 0.38341 0.05687 0.0
C356 C 0.17689 0.40412 0.14443 0.0
N357 N 0.13767 0.39474 0.14664 0.0
N358 N 0.11666 0.42187 0.13073 0.0
C359 C 0.14221 0.45044 0.11839 0.0
C360 C 0.18132 0.44012 0.12678 0.0
C361 C 0.20921 0.38085 0.16084 0.0
H362 H 0.20658 0.38826 0.18454 0.0
H363 H 0.2053 0.34565 0.15794 0.0
H364 H 0.23957 0.3901 0.15301 0.0
O365 O 0.07586 0.39252 0.19919 0.0
O366 O 0.03817 0.43511 0.17147 0.0
H367 H 0.15379 0.51351 0.09983 0.0
H368 H 0.1178 0.48074 0.08042 0.0
C369 C 0.12892 0.49004 0.10243 0.0
H370 H 0.10377 0.50546 0.11444 0.0
H371 H 0.01597 0.50557 0.12946 0.0
O372 O 0.1477 0.32904 0.19948 0.0
C373 C 0.04875 0.42115 0.19655 0.0
Co374 Co 0.39267 0.62958 0.17379 0.0
Co375 Co 0.44462 0.5714 0.13302 0.0
C376 C 0.45283 0.66878 0.13427 0.0
O377 O 0.42441 0.67308 0.15266 0.0
O378 O 0.46381 0.63171 0.12525 0.0
C379 C 0.34191 0.69615 0.19743 0.0
O380 O 0.34886 0.71635 0.17266 0.0
C381 C 0.46795 0.54314 0.07489 0.0
C382 C 0.4975 0.48059 0.08308 0.0
C383 C 0.48692 0.50899 0.06093 0.0
N384 N 0.46766 0.53538 0.1038 0.0
N385 N 0.48547 0.49802 0.10864 0.0
C386 C 0.44745 0.58103 0.06123 0.0
H387 H 0.42369 0.59359 0.076 0.0
H388 H 0.43408 0.57209 0.0398 0.0
H389 H 0.46978 0.60704 0.05768 0.0
C390 C 0.32678 0.58326 0.14573 0.0
N391 N 0.36592 0.59303 0.14791 0.0
N392 N 0.38711 0.56634 0.13177 0.0
C393 C 0.36177 0.53769 0.11928 0.0
C394 C 0.3226 0.54748 0.12781 0.0
C395 C 0.29428 0.60619 0.16219 0.0
H396 H 0.29691 0.59862 0.18587 0.0
H397 H 0.298 0.64143 0.15944 0.0
H398 H 0.26399 0.59681 0.1543 0.0
O399 O 0.4284 0.59622 0.19999 0.0
O400 O 0.4664 0.55433 0.17199 0.0
H401 H 0.35077 0.47467 0.10043 0.0
H402 H 0.38573 0.50837 0.08079 0.0
C403 C 0.37532 0.49856 0.10287 0.0
H404 H 0.40099 0.48344 0.11445 0.0
H405 H 0.489 0.48424 0.12932 0.0
O406 O 0.35561 0.65839 0.20095 0.0
C407 C 0.45592 0.5681 0.19714 0.0
Co408 Co 0.39176 0.36056 0.67343 0.0
Co409 Co 0.44299 0.41938 0.63261 0.0
C410 C 0.45236 0.32209 0.63392 0.0
O411 O 0.42399 0.31747 0.65232 0.0
O412 O 0.46291 0.35929 0.62486 0.0
C413 C 0.34172 0.2934 0.69714 0.0
O414 O 0.34883 0.27321 0.67238 0.0
C415 C 0.46661 0.44799 0.57457 0.0
C416 C 0.49514 0.51101 0.58301 0.0
C417 C 0.48538 0.48241 0.56077 0.0
N418 N 0.46568 0.45579 0.60347 0.0
N419 N 0.48286 0.49345 0.60846 0.0
C420 C 0.44695 0.40971 0.56073 0.0
H421 H 0.42302 0.39687 0.57524 0.0
H422 H 0.43397 0.41831 0.53911 0.0
H423 H 0.46971 0.38403 0.55753 0.0
C424 C 0.32532 0.40606 0.64553 0.0
N425 N 0.36456 0.39669 0.64755 0.0
N426 N 0.38541 0.42367 0.6314 0.0
C427 C 0.35972 0.4521 0.61907 0.0
C428 C 0.32069 0.44188 0.62773 0.0
C429 C 0.29316 0.38281 0.66212 0.0
H430 H 0.29594 0.39038 0.68579 0.0
H431 H 0.29711 0.34761 0.6593 0.0
H432 H 0.26272 0.39194 0.65438 0.0
O433 O 0.4271 0.39444 0.69962 0.0
O434 O 0.46458 0.43677 0.67157 0.0
H435 H 0.34793 0.51484 0.60007 0.0
H436 H 0.38386 0.4818 0.58079 0.0
C437 C 0.37285 0.49145 0.60276 0.0
H438 H 0.39806 0.5071 0.61456 0.0
H439 H 0.48588 0.5073 0.62917 0.0
O440 O 0.35507 0.33131 0.70063 0.0
C441 C 0.45429 0.42292 0.69674 0.0
Co442 Co 0.10868 0.63068 0.67418 0.0
Co443 Co 0.05678 0.57241 0.63336 0.0
C444 C 0.04858 0.66982 0.63462 0.0
O445 O 0.07699 0.67412 0.65301 0.0
O446 O 0.0376 0.63275 0.62558 0.0
C447 C 0.15969 0.69714 0.69775 0.0
O448 O 0.1529 0.71726 0.67292 0.0
C449 C 0.03385 0.54382 0.57517 0.0
C450 C 0.00408 0.48142 0.58345 0.0
C451 C 0.01496 0.50959 0.56123 0.0
N452 N 0.03384 0.53631 0.60412 0.0
N453 N 0.01588 0.49905 0.609 0.0
C454 C 0.05459 0.58154 0.56147 0.0
H455 H 0.07812 0.59427 0.57637 0.0
H456 H 0.06827 0.57234 0.5402 0.0
H457 H 0.03232 0.60751 0.55759 0.0
C458 C 0.17462 0.58435 0.64625 0.0
N459 N 0.13547 0.59409 0.64835 0.0
N460 N 0.11433 0.56731 0.63225 0.0
C461 C 0.13973 0.53861 0.61986 0.0
C462 C 0.17888 0.54848 0.62842 0.0
C463 C 0.20707 0.60744 0.66266 0.0
H464 H 0.2044 0.60006 0.68635 0.0
H465 H 0.20334 0.64265 0.65975 0.0
H466 H 0.23739 0.59803 0.65483 0.0
O467 O 0.07285 0.5974 0.70032 0.0
O468 O 0.03482 0.55549 0.67233 0.0
H469 H 0.15079 0.47545 0.60128 0.0
H470 H 0.11612 0.5091 0.58132 0.0
C471 C 0.12626 0.49941 0.6035 0.0
H472 H 0.10043 0.48444 0.61498 0.0
H473 H 0.01212 0.48544 0.62972 0.0
O474 O 0.1457 0.65951 0.70136 0.0
C475 C 0.04528 0.56933 0.69747 0.0
Co476 Co 0.89144 0.63392 0.82639 0.0
Co477 Co 0.94327 0.57476 0.86654 0.0
C478 C 0.95275 0.67203 0.86546 0.0
O479 O 0.92409 0.67683 0.84733 0.0
O480 O 0.9634 0.63475 0.87429 0.0
C481 C 0.84099 0.70128 0.80325 0.0
O482 O 0.84861 0.72151 0.82791 0.0
C483 C 0.9673 0.54544 0.9243 0.0
C484 C 0.99592 0.4826 0.91537 0.0
C485 C 0.98612 0.51083 0.93783 0.0
N486 N 0.96636 0.5381 0.89534 0.0
N487 N 0.98361 0.50057 0.89006 0.0
C488 C 0.94755 0.58343 0.93844 0.0
H489 H 0.92372 0.59658 0.92397 0.0
H490 H 0.93444 0.57437 0.95992 0.0
H491 H 0.97029 0.60904 0.94197 0.0
C492 C 0.82544 0.58814 0.85464 0.0
N493 N 0.86463 0.59765 0.85242 0.0
N494 N 0.88574 0.5705 0.86823 0.0
C495 C 0.8603 0.54178 0.88052 0.0
C496 C 0.82114 0.55201 0.8722 0.0
C497 C 0.79302 0.61138 0.83831 0.0
H498 H 0.7956 0.60402 0.8146 0.0
H499 H 0.79687 0.64657 0.84125 0.0
H500 H 0.76271 0.60202 0.84618 0.0
O501 O 0.92627 0.60008 0.79974 0.0
O502 O 0.96407 0.55749 0.82736 0.0
H503 H 0.84892 0.47857 0.89893 0.0
H504 H 0.88498 0.51128 0.91833 0.0
C505 C 0.87374 0.5021 0.89632 0.0
H506 H 0.89884 0.48681 0.88419 0.0
H507 H 0.98658 0.48703 0.86925 0.0
O508 O 0.85427 0.66336 0.79964 0.0
C509 C 0.95341 0.57148 0.80231 0.0
Co510 Co 0.61035 0.36202 0.82448 0.0
Co511 Co 0.55826 0.42002 0.86528 0.0
C512 C 0.55025 0.32261 0.86396 0.0
O513 O 0.57869 0.31837 0.84557 0.0
O514 O 0.53921 0.35966 0.87298 0.0
C515 C 0.66162 0.29582 0.8008 0.0
O516 O 0.65495 0.27558 0.8256 0.0
C517 C 0.5347 0.4481 0.9234 0.0
C518 C 0.50512 0.51064 0.91521 0.0
C519 C 0.51566 0.48221 0.93736 0.0
N520 N 0.53508 0.45592 0.8945 0.0
N521 N 0.51725 0.49326 0.88966 0.0
C522 C 0.55519 0.41021 0.93707 0.0
H523 H 0.57898 0.39768 0.92232 0.0
H524 H 0.56851 0.41913 0.95852 0.0
H525 H 0.53286 0.38419 0.94059 0.0
C526 C 0.67614 0.40846 0.85265 0.0
N527 N 0.63702 0.3986 0.85042 0.0
N528 N 0.61575 0.42518 0.86659 0.0
C529 C 0.64101 0.45382 0.87917 0.0
C530 C 0.68021 0.44415 0.87066 0.0
C531 C 0.70871 0.38567 0.83618 0.0
H532 H 0.70603 0.39323 0.8125 0.0
H533 H 0.70514 0.35042 0.83894 0.0
H534 H 0.73898 0.39519 0.84406 0.0
O535 O 0.57457 0.39536 0.79829 0.0
O536 O 0.53653 0.43716 0.82632 0.0
H537 H 0.65187 0.51674 0.89821 0.0
H538 H 0.61689 0.48287 0.91771 0.0
C539 C 0.62736 0.49283 0.89566 0.0
H540 H 0.6017 0.50798 0.88409 0.0
H541 H 0.51377 0.50708 0.86898 0.0
O542 O 0.64752 0.33341 0.79728 0.0
C543 C 0.54703 0.42345 0.80116 0.0
C544 C 0.95791 0.05556 0.2506 0.0
C545 C 0.97681 0.05698 0.22307 0.0
H546 H 0.96546 0.05623 0.29724 0.0
C547 C 0.01887 0.05438 0.22165 0.0
H548 H 0.92549 0.05757 0.25226 0.0
C549 C 0.04172 0.05477 0.24737 0.0
C550 C 0.02285 0.05643 0.2749 0.0
H551 H 0.03419 0.05577 0.20073 0.0
H552 H 0.07417 0.0562 0.24572 0.0
C553 C 0.98076 0.05462 0.27632 0.0
C554 C 0.54354 0.93292 0.2515 0.0
C555 C 0.5244 0.93247 0.22404 0.0
H556 H 0.53634 0.93134 0.29816 0.0
C557 C 0.48237 0.93589 0.22283 0.0
H558 H 0.57593 0.93027 0.253 0.0
C559 C 0.45973 0.93537 0.24865 0.0
C560 C 0.47879 0.93279 0.27607 0.0
H561 H 0.46685 0.93528 0.20198 0.0
H562 H 0.42725 0.93459 0.24714 0.0
C563 C 0.52091 0.93373 0.27733 0.0
C564 C 0.96036 0.93664 0.75111 0.0
C565 C 0.97925 0.93497 0.72359 0.0
H566 H 0.96788 0.93587 0.79775 0.0
C567 C 0.02134 0.93698 0.72217 0.0
H568 H 0.92792 0.93508 0.75276 0.0
C569 C 0.04418 0.93626 0.7479 0.0
C570 C 0.02528 0.93487 0.77542 0.0
H571 H 0.03665 0.93537 0.70126 0.0
H572 H 0.07661 0.93439 0.74625 0.0
C573 C 0.9832 0.93726 0.77684 0.0
C574 C 0.48367 0.05549 0.72244 0.0
C575 C 0.52571 0.05858 0.72365 0.0
H576 H 0.42857 0.05693 0.74676 0.0
C577 C 0.54487 0.05759 0.75109 0.0
H578 H 0.46815 0.05652 0.70159 0.0
C579 C 0.52226 0.05664 0.77693 0.0
C580 C 0.48014 0.05798 0.77569 0.0
H581 H 0.57728 0.05997 0.75259 0.0
H582 H 0.53772 0.05863 0.79777 0.0
C583 C 0.46104 0.05586 0.74826 0.0
C584 C 0.48319 0.55424 0.27671 0.0
C585 C 0.52524 0.55695 0.27534 0.0
H586 H 0.42793 0.55599 0.25259 0.0
C587 C 0.5442 0.55566 0.24783 0.0
H588 H 0.46783 0.55554 0.29762 0.0
C589 C 0.52141 0.55475 0.22208 0.0
C590 C 0.47931 0.55644 0.22346 0.0
H591 H 0.57662 0.55776 0.24621 0.0
H592 H 0.53674 0.55646 0.20118 0.0
C593 C 0.46039 0.55465 0.25097 0.0
C594 C 0.96117 0.43631 0.24757 0.0
C595 C 0.98021 0.43403 0.27501 0.0
H596 H 0.96834 0.43569 0.2009 0.0
C597 C 0.02233 0.43516 0.27629 0.0
H598 H 0.92869 0.43541 0.24603 0.0
C599 C 0.04498 0.43413 0.25047 0.0
C600 C 0.02587 0.43329 0.22301 0.0
H601 H 0.03774 0.43305 0.29714 0.0
H602 H 0.07738 0.43158 0.252 0.0
C603 C 0.98384 0.43661 0.22176 0.0
C604 C 0.48156 0.43723 0.77628 0.0
C605 C 0.52364 0.43519 0.77485 0.0
H606 H 0.42627 0.43461 0.75223 0.0
C607 C 0.54251 0.43679 0.74732 0.0
H608 H 0.46626 0.43569 0.7972 0.0
C609 C 0.51965 0.43733 0.7216 0.0
C610 C 0.47758 0.43496 0.72303 0.0
H611 H 0.57495 0.4352 0.74566 0.0
H612 H 0.53496 0.43586 0.70068 0.0
C613 C 0.4587 0.43646 0.75056 0.0
C614 C 0.01816 0.55543 0.77703 0.0
C615 C 0.97617 0.55928 0.7758 0.0
H616 H 0.0733 0.55591 0.75273 0.0
C617 C 0.95704 0.55871 0.74834 0.0
H618 H 0.03368 0.55611 0.79788 0.0
C619 C 0.97966 0.55739 0.72252 0.0
C620 C 0.02179 0.55792 0.72378 0.0
H621 H 0.92466 0.56167 0.74682 0.0
H622 H 0.96426 0.55971 0.70167 0.0
C623 C 0.04082 0.55543 0.75121 0.0
C624 C 0.17659 0.1982 0.247 0.0
C625 C 0.17443 0.21945 0.27418 0.0
H626 H 0.17462 0.20452 0.20039 0.0
C627 C 0.17808 0.26446 0.27497 0.0
H628 H 0.17477 0.16341 0.24569 0.0
C629 C 0.17819 0.28802 0.24894 0.0
C630 C 0.17454 0.26688 0.2218 0.0
H631 H 0.17728 0.28176 0.29557 0.0
H632 H 0.17761 0.32285 0.25027 0.0
C633 C 0.17661 0.22176 0.22097 0.0
C634 C 0.32556 0.76527 0.22269 0.0
C635 C 0.3284 0.72019 0.22355 0.0
H636 H 0.32686 0.82373 0.24732 0.0
C637 C 0.32562 0.69909 0.25075 0.0
H638 H 0.32687 0.78246 0.20207 0.0
C639 C 0.32578 0.72274 0.27674 0.0
C640 C 0.32865 0.76781 0.27587 0.0
H641 H 0.32681 0.66427 0.2521 0.0
H642 H 0.32726 0.70555 0.29735 0.0
C643 C 0.32565 0.78892 0.24869 0.0
C644 C 0.67775 0.70017 0.24781 0.0
C645 C 0.6753 0.72159 0.27493 0.0
H646 H 0.67581 0.70614 0.20119 0.0
C647 C 0.67862 0.76663 0.27558 0.0
H648 H 0.67621 0.66536 0.24661 0.0
C649 C 0.67859 0.79001 0.24948 0.0
C650 C 0.67513 0.76865 0.2224 0.0
H651 H 0.67761 0.78406 0.29612 0.0
H652 H 0.67771 0.82485 0.25069 0.0
C653 C 0.67762 0.72355 0.22171 0.0
C654 C 0.82478 0.22559 0.27592 0.0
C655 C 0.8283 0.2706 0.27495 0.0
H656 H 0.82501 0.16699 0.25141 0.0
C657 C 0.82562 0.29162 0.24772 0.0
H658 H 0.82599 0.20847 0.29657 0.0
C659 C 0.82521 0.26784 0.22178 0.0
C660 C 0.82742 0.22273 0.22273 0.0
H661 H 0.82732 0.32641 0.24628 0.0
H662 H 0.82679 0.28492 0.20112 0.0
C663 C 0.8243 0.20181 0.24998 0.0
C664 C 0.82537 0.77047 0.77788 0.0
C665 C 0.82726 0.72533 0.77722 0.0
H666 H 0.82739 0.8286 0.75293 0.0
C667 C 0.82342 0.70399 0.75016 0.0
H668 H 0.8275 0.78787 0.79839 0.0
C669 C 0.82354 0.72733 0.72405 0.0
C670 C 0.82742 0.77232 0.72465 0.0
H671 H 0.82384 0.66914 0.74898 0.0
H672 H 0.82421 0.70985 0.70351 0.0
C673 C 0.8254 0.79381 0.75176 0.0
C674 C 0.67868 0.22689 0.77557 0.0
C675 C 0.67534 0.27192 0.77469 0.0
H676 H 0.67786 0.16838 0.75097 0.0
C677 C 0.67779 0.29302 0.74747 0.0
H678 H 0.67766 0.20971 0.7962 0.0
C679 C 0.67773 0.26933 0.72149 0.0
C680 C 0.6753 0.22423 0.7224 0.0
H681 H 0.67622 0.32782 0.7461 0.0
H682 H 0.67595 0.28648 0.70087 0.0
C683 C 0.67871 0.2032 0.74959 0.0
C684 C 0.32545 0.29047 0.75046 0.0
C685 C 0.32841 0.26931 0.72328 0.0
H686 H 0.32715 0.28419 0.79707 0.0
C687 C 0.32595 0.22421 0.72247 0.0
H688 H 0.32635 0.3253 0.75177 0.0
C689 C 0.32623 0.20064 0.74849 0.0
C690 C 0.32906 0.22187 0.77565 0.0
H691 H 0.32741 0.20696 0.70187 0.0
H692 H 0.32773 0.16584 0.74716 0.0
C693 C 0.32582 0.26691 0.77648 0.0
C694 C 0.17626 0.70017 0.75101 0.0
C695 C 0.17361 0.72114 0.72376 0.0
H696 H 0.17503 0.70695 0.7976 0.0
C697 C 0.17712 0.76615 0.72275 0.0
H698 H 0.17456 0.66539 0.75247 0.0
C699 C 0.17757 0.78998 0.74867 0.0
C700 C 0.17444 0.7691 0.77594 0.0
H701 H 0.17594 0.78323 0.70209 0.0
H702 H 0.17687 0.8248 0.74721 0.0
C703 C 0.17664 0.72399 0.77693 0.0
C704 C 0.03915 0.00821 0.48957 0.0
C705 C 0.0081 0.00248 0.4691 0.0
H706 H 0.05668 0.00605 0.53468 0.0
C707 C 0.9701 0.98933 0.47903 0.0
H708 H 0.06911 0.01689 0.4826 0.0
C709 C 0.96307 0.98272 0.50887 0.0
C710 C 0.99411 0.98845 0.52934 0.0
H711 H 0.94554 0.98488 0.46376 0.0
H712 H 0.93311 0.97404 0.51584 0.0
C713 C 0.03212 0.0016 0.51941 0.0
C714 C 0.50303 0.95412 0.48852 0.0
C715 C 0.49284 0.9885 0.46995 0.0
H716 H 0.51835 0.93422 0.53203 0.0
C717 C 0.49068 0.03027 0.48166 0.0
H718 H 0.50625 0.92177 0.48005 0.0
C719 C 0.49799 0.03746 0.51141 0.0
C720 C 0.50827 0.00309 0.52996 0.0
H721 H 0.48271 0.05737 0.46789 0.0
H722 H 0.4948 0.06981 0.51987 0.0
C723 C 0.51035 0.96131 0.51826 0.0
C724 C 0.49157 0.96141 0.98155 0.0
C725 C 0.49376 0.00324 0.96997 0.0
H726 H 0.4949 0.92177 0.01973 0.0
C727 C 0.50311 0.03765 0.98876 0.0
H728 H 0.48423 0.93429 0.9676 0.0
C729 C 0.50961 0.03042 0.01859 0.0
C730 C 0.50753 0.98857 0.03015 0.0
H731 H 0.5063 0.07006 0.98041 0.0
H732 H 0.51699 0.05752 0.03254 0.0
C733 C 0.49806 0.95418 0.01138 0.0
C734 C 0.99114 0.96168 0.01717 0.0
C735 C 0.99332 0.00322 0.02923 0.0
H736 H 0.99551 0.92283 0.97865 0.0
C737 C 0.00392 0.03788 0.01103 0.0
H738 H 0.98287 0.93438 0.03066 0.0
C739 C 0.01154 0.03121 0.98128 0.0
C740 C 0.00937 0.98966 0.96922 0.0
H741 H 0.00716 0.07006 0.0198 0.0
H742 H 0.0198 0.05851 0.96779 0.0
C743 C 0.99876 0.955 0.98742 0.0
C744 C 0.51134 0.46112 0.48116 0.0
C745 C 0.50932 0.50272 0.46918 0.0
H746 H 0.50684 0.42215 0.51959 0.0
C747 C 0.49885 0.53736 0.48746 0.0
H748 H 0.5195 0.43383 0.46761 0.0
C749 C 0.49121 0.53061 0.5172 0.0
C750 C 0.49323 0.48901 0.52918 0.0
H751 H 0.49572 0.56958 0.47876 0.0
H752 H 0.48306 0.5579 0.53075 0.0
C753 C 0.5037 0.45437 0.5109 0.0
C754 C 0.01017 0.46087 0.51784 0.0
C755 C 0.00821 0.50266 0.52953 0.0
H756 H 0.00671 0.42143 0.47954 0.0
C757 C 0.99897 0.53719 0.51084 0.0
H758 H 0.0174 0.43364 0.53171 0.0
C759 C 0.99247 0.53014 0.48098 0.0
C760 C 0.99442 0.48835 0.46928 0.0
H761 H 0.99592 0.56958 0.51928 0.0
H762 H 0.98523 0.55737 0.46711 0.0
C763 C 0.00366 0.45382 0.48798 0.0
C764 C 0.99877 0.45454 0.01073 0.0
C765 C 0.00913 0.48883 0.02934 0.0
H766 H 0.98337 0.43481 0.96719 0.0
C767 C 0.01142 0.53062 0.01771 0.0
H768 H 0.99544 0.42219 0.01915 0.0
C769 C 0.00412 0.53791 0.98798 0.0
C770 C 0.99374 0.50363 0.96938 0.0
H771 H 0.01951 0.55765 0.03152 0.0
H772 H 0.00744 0.57027 0.97956 0.0
C773 C 0.99147 0.46183 0.981 0.0
C774 C 0.51052 0.53042 0.98097 0.0
C775 C 0.5085 0.48879 0.96903 0.0
H776 H 0.50678 0.56938 0.01947 0.0
C777 C 0.49886 0.45406 0.98746 0.0
H778 H 0.51806 0.55777 0.96731 0.0
C779 C 0.49202 0.46077 0.01731 0.0
C780 C 0.49404 0.5024 0.02925 0.0
H781 H 0.49578 0.4218 0.97881 0.0
H782 H 0.48449 0.43342 0.03098 0.0
C783 C 0.50368 0.53712 0.01082 0.0
C784 C 0.23412 0.00711 0.34485 0.0
C785 C 0.21563 0.01938 0.37116 0.0
H786 H 0.28273 0.9738 0.32445 0.0
C787 C 0.23223 0.00582 0.3979 0.0
H788 H 0.22161 0.0167 0.32394 0.0
C789 C 0.2673 0.98068 0.39818 0.0
C790 C 0.28569 0.9687 0.37171 0.0
H791 H 0.21834 0.01501 0.41843 0.0
H792 H 0.27979 0.97025 0.41891 0.0
C793 C 0.26892 0.98239 0.34513 0.0
C794 C 0.76748 0.00795 0.15275 0.0
C795 C 0.7847 0.02151 0.1263 0.0
H796 H 0.72002 0.97341 0.17359 0.0
C797 C 0.76698 0.00905 0.09969 0.0
H798 H 0.78081 0.01682 0.17355 0.0
C799 C 0.73213 0.98355 0.0997 0.0
C800 C 0.71506 0.97019 0.12633 0.0
H801 H 0.77985 0.01933 0.07905 0.0
H802 H 0.71879 0.97394 0.07907 0.0
C803 C 0.73287 0.98294 0.15277 0.0
C804 C 0.7352 0.01077 0.60017 0.0
C805 C 0.71681 0.02274 0.62664 0.0
H806 H 0.78408 0.9763 0.57993 0.0
C807 C 0.73344 0.00886 0.65322 0.0
H808 H 0.7228 0.02135 0.57945 0.0
C809 C 0.76813 0.98398 0.6535 0.0
C810 C 0.78664 0.97174 0.6272 0.0
H811 H 0.71962 0.01748 0.6739 0.0
H812 H 0.78057 0.97428 0.67441 0.0
C813 C 0.77016 0.98546 0.60046 0.0
C814 C 0.27028 0.00865 0.89873 0.0
C815 C 0.28789 0.02132 0.87213 0.0
H816 H 0.222 0.97364 0.9193 0.0
C817 C 0.27048 0.00808 0.84566 0.0
H818 H 0.28329 0.01867 0.91938 0.0
C819 C 0.23573 0.9833 0.84561 0.0
C820 C 0.21795 0.97044 0.87203 0.0
H821 H 0.28374 0.0171 0.82487 0.0
H822 H 0.22269 0.97411 0.82478 0.0
C823 C 0.23529 0.98336 0.89868 0.0
C824 C 0.77032 0.48368 0.39827 0.0
C825 C 0.78788 0.47118 0.37161 0.0
H826 H 0.72207 0.51853 0.41901 0.0
C827 C 0.7704 0.48454 0.3452 0.0
H828 H 0.78339 0.47356 0.41887 0.0
C829 C 0.73562 0.50926 0.34527 0.0
C830 C 0.71789 0.52196 0.37176 0.0
H831 H 0.78362 0.47565 0.32437 0.0
H832 H 0.72252 0.51853 0.32448 0.0
C833 C 0.73531 0.50893 0.39834 0.0
C834 C 0.26907 0.50608 0.15288 0.0
C835 C 0.28687 0.51934 0.12656 0.0
H836 H 0.22107 0.4719 0.17334 0.0
C837 C 0.2697 0.50663 0.09981 0.0
H838 H 0.28199 0.5151 0.17379 0.0
C839 C 0.23479 0.48123 0.09956 0.0
C840 C 0.2171 0.46823 0.12605 0.0
H841 H 0.28303 0.51666 0.07927 0.0
H842 H 0.22186 0.47145 0.07883 0.0
C843 C 0.23439 0.48117 0.15263 0.0
C844 C 0.267 0.4825 0.60037 0.0
C845 C 0.28478 0.46981 0.6269 0.0
H846 H 0.21857 0.51748 0.57998 0.0
C847 C 0.26739 0.4828 0.65344 0.0
H848 H 0.27999 0.47265 0.57967 0.0
C849 C 0.23255 0.50745 0.65361 0.0
C850 C 0.21468 0.52043 0.62725 0.0
H851 H 0.28077 0.47377 0.67418 0.0
H852 H 0.21958 0.51652 0.67449 0.0
C853 C 0.23194 0.50766 0.60054 0.0
C854 C 0.73294 0.48496 0.89885 0.0
C855 C 0.71588 0.47236 0.87204 0.0
H856 H 0.78061 0.5202 0.92 0.0
C857 C 0.73371 0.48584 0.84578 0.0
H858 H 0.71959 0.47476 0.91934 0.0
C859 C 0.7683 0.51088 0.84615 0.0
C860 C 0.78548 0.52373 0.8728 0.0
H861 H 0.72088 0.4769 0.82484 0.0
H862 H 0.78165 0.52033 0.82549 0.0
C863 C 0.76776 0.5105 0.89923 0.0
C864 C 0.98331 0.20472 0.37223 0.0
C865 C 0.02538 0.20771 0.3709 0.0
H866 H 0.92733 0.23889 0.37078 0.0
C867 C 0.04348 0.24857 0.372 0.0
H868 H 0.96856 0.17365 0.37118 0.0
C869 C 0.01989 0.28587 0.3726 0.0
C870 C 0.97782 0.2829 0.37117 0.0
H871 H 0.07587 0.25172 0.37097 0.0
H872 H 0.03464 0.31696 0.37181 0.0
C873 C 0.95972 0.24202 0.37191 0.0
C874 C 0.51963 0.78591 0.37386 0.0
C875 C 0.47758 0.78238 0.37261 0.0
H876 H 0.57598 0.7525 0.372 0.0
C877 C 0.45996 0.74127 0.3735 0.0
H878 H 0.53401 0.81718 0.37296 0.0
C879 C 0.48398 0.70428 0.37377 0.0
C880 C 0.526 0.70782 0.37221 0.0
H881 H 0.4276 0.73771 0.3725 0.0
H882 H 0.46958 0.67302 0.37281 0.0
C883 C 0.54364 0.74892 0.3732 0.0
C884 C 0.48265 0.7854 0.12577 0.0
C885 C 0.52473 0.78226 0.12678 0.0
H886 H 0.42659 0.75143 0.12765 0.0
C887 C 0.54269 0.74134 0.12548 0.0
H888 H 0.46801 0.81652 0.12697 0.0
C889 C 0.51898 0.70413 0.12506 0.0
C890 C 0.47694 0.70723 0.12686 0.0
H891 H 0.57508 0.73807 0.12626 0.0
H892 H 0.53365 0.67299 0.12571 0.0
C893 C 0.45895 0.74818 0.12627 0.0
C894 C 0.95858 0.24914 0.12588 0.0
C895 C 0.97618 0.208 0.1265 0.0
H896 H 0.9683 0.31738 0.12647 0.0
C897 C 0.01818 0.20443 0.12468 0.0
H898 H 0.92626 0.25275 0.12729 0.0
C899 C 0.04225 0.24137 0.12501 0.0
C900 C 0.02468 0.2825 0.12625 0.0
H901 H 0.03255 0.17313 0.12534 0.0
H902 H 0.07461 0.23775 0.12576 0.0
C903 C 0.98263 0.2861 0.12529 0.0
C904 C 0.01882 0.78642 0.62617 0.0
C905 C 0.97675 0.78338 0.62768 0.0
H906 H 0.07484 0.75233 0.62747 0.0
C907 C 0.95869 0.74249 0.6267 0.0
H908 H 0.03354 0.81751 0.62711 0.0
C909 C 0.98232 0.70523 0.62607 0.0
C910 C 0.02439 0.70825 0.62734 0.0
H911 H 0.92631 0.7393 0.62785 0.0
H912 H 0.96761 0.67412 0.62697 0.0
C913 C 0.04245 0.74915 0.62646 0.0
C914 C 0.51894 0.28743 0.62521 0.0
C915 C 0.4769 0.28393 0.62657 0.0
H916 H 0.57528 0.25398 0.62682 0.0
C917 C 0.45925 0.24283 0.62568 0.0
H918 H 0.53334 0.3187 0.62611 0.0
C919 C 0.48324 0.20582 0.62527 0.0
C920 C 0.52528 0.20933 0.62669 0.0
H921 H 0.42689 0.23928 0.62675 0.0
H922 H 0.46883 0.17457 0.62622 0.0
C923 C 0.54293 0.25043 0.62572 0.0
C924 C 0.46053 0.24992 0.87306 0.0
C925 C 0.47855 0.20902 0.87193 0.0
H926 H 0.46945 0.31827 0.87255 0.0
C927 C 0.52064 0.20596 0.87286 0.0
H928 H 0.42813 0.25311 0.87232 0.0
C929 C 0.54428 0.24322 0.87215 0.0
C930 C 0.52622 0.28413 0.87143 0.0
H931 H 0.53531 0.17485 0.87175 0.0
H932 H 0.57664 0.24002 0.87072 0.0
C933 C 0.48418 0.28717 0.87328 0.0
C934 C 0.95992 0.75124 0.87384 0.0
C935 C 0.97747 0.7101 0.87272 0.0
H936 H 0.96964 0.81947 0.87338 0.0
C937 C 0.01952 0.70649 0.8738 0.0
H938 H 0.92756 0.75487 0.873 0.0
C939 C 0.04359 0.74343 0.87319 0.0
C940 C 0.02601 0.78457 0.87243 0.0
H941 H 0.03384 0.67519 0.87273 0.0
H942 H 0.07591 0.7398 0.87186 0.0
C943 C 0.984 0.78818 0.87416 0.0
loop_
_geom_bond_atom_site_label_1
_geom_bond_atom_site_label_2
_geom_bond_distance
_geom_bond_site_symmetry_2
_ccdc_geom_bond_type
Co0 O3 1.970 . S
Co0 N17 1.989 . S
Co0 O25 1.967 . S
Co0 O32 1.920 . S
Co1 O4 1.966 . S
Co1 N10 2.022 . S
Co1 N18 1.993 . S
Co1 O26 1.941 . S
C2 O3 1.258 . S
C2 O4 1.263 . S
O3 Co0 1.970 . S
O3 C2 1.258 . S
O4 Co1 1.966 . S
O4 C2 1.263 . S
C5 O6 1.235 . S
C5 O32 1.289 . S
O6 C5 1.235 . S
C7 C9 1.400 . S
C7 N10 1.351 . S
C7 C12 1.501 . S
C8 C9 1.387 1_565 S
C8 N11 1.341 1_565 S
C9 C7 1.400 . S
C9 C8 1.387 1_545 S
N10 Co1 2.022 . S
N10 C7 1.351 . S
N10 N11 1.365 . S
N11 C8 1.341 1_545 S
N11 N10 1.365 . S
N11 H31 0.862 1_545 S
C12 C7 1.501 . S
C12 H13 0.961 . S
C12 H14 0.961 . S
C12 H15 0.960 . S
H13 C12 0.961 . S
H14 C12 0.961 . S
H15 C12 0.960 . S
C16 N17 1.342 . S
C16 C20 1.401 . S
C16 C21 1.499 . S
N17 Co0 1.989 . S
N17 C16 1.342 . S
N17 N18 1.388 . S
N18 Co1 1.993 . S
N18 N17 1.388 . S
N18 C19 1.346 . S
C19 N18 1.346 . S
C19 C20 1.396 . S
C19 C29 1.510 . S
C20 C16 1.401 . S
C20 C19 1.396 . S
C21 C16 1.499 . S
C21 H22 0.959 . S
C21 H23 0.960 . S
C21 H24 0.961 . S
H22 C21 0.959 . S
H23 C21 0.960 . S
H24 C21 0.961 . S
O25 Co0 1.967 . S
O25 C33 1.258 . S
O26 Co1 1.941 . S
O26 C33 1.266 . S
H27 C29 0.959 1_565 S
H28 C29 0.961 . S
C29 C19 1.510 . S
C29 H27 0.959 1_545 S
C29 H28 0.961 . S
C29 H30 0.960 . S
H30 C29 0.960 . S
H31 N11 0.862 1_565 S
O32 Co0 1.920 . S
O32 C5 1.289 . S
C33 O25 1.258 . S
C33 O26 1.266 . S
Co34 O37 1.970 . S
Co34 N51 1.989 . S
Co34 O59 1.967 . S
Co34 O66 1.920 . S
Co35 O38 1.966 . S
Co35 N44 2.022 . S
Co35 N52 1.993 . S
Co35 O60 1.941 . S
C36 O37 1.258 . S
C36 O38 1.263 . S
O37 Co34 1.970 . S
O37 C36 1.258 . S
O38 Co35 1.966 . S
O38 C36 1.263 . S
C39 O40 1.235 . S
C39 O66 1.289 . S
O40 C39 1.235 . S
C41 C43 1.400 . S
C41 N44 1.351 . S
C41 C46 1.501 . S
C42 C43 1.387 1_545 S
C42 N45 1.341 1_545 S
C43 C41 1.400 . S
C43 C42 1.387 1_565 S
N44 Co35 2.022 . S
N44 C41 1.351 . S
N44 N45 1.365 . S
N45 C42 1.341 1_565 S
N45 N44 1.365 . S
N45 H65 0.862 1_565 S
C46 C41 1.501 . S
C46 H47 0.961 . S
C46 H48 0.961 . S
C46 H49 0.960 . S
H47 C46 0.961 . S
H48 C46 0.961 . S
H49 C46 0.960 . S
C50 N51 1.342 . S
C50 C54 1.401 . S
C50 C55 1.499 . S
N51 Co34 1.989 . S
N51 C50 1.342 . S
N51 N52 1.388 . S
N52 Co35 1.993 . S
N52 N51 1.388 . S
N52 C53 1.346 . S
C53 N52 1.346 . S
C53 C54 1.396 . S
C53 C63 1.510 . S
C54 C50 1.401 . S
C54 C53 1.396 . S
C55 C50 1.499 . S
C55 H56 0.959 . S
C55 H57 0.960 . S
C55 H58 0.961 . S
H56 C55 0.959 . S
H57 C55 0.960 . S
H58 C55 0.961 . S
O59 Co34 1.967 . S
O59 C67 1.258 . S
O60 Co35 1.941 . S
O60 C67 1.266 . S
H61 C63 0.959 1_545 S
H62 C63 0.961 . S
C63 C53 1.510 . S
C63 H61 0.959 1_565 S
C63 H62 0.961 . S
C63 H64 0.960 . S
H64 C63 0.960 . S
H65 N45 0.862 1_545 S
O66 Co34 1.920 . S
O66 C39 1.289 . S
C67 O59 1.258 . S
C67 O60 1.266 . S
Co68 O71 1.970 . S
Co68 N85 1.989 . S
Co68 O93 1.967 . S
Co68 O100 1.920 . S
Co69 O72 1.966 . S
Co69 N78 2.022 . S
Co69 N86 1.993 . S
Co69 O94 1.941 . S
C70 O71 1.258 . S
C70 O72 1.263 . S
O71 Co68 1.970 . S
O71 C70 1.258 . S
O72 Co69 1.966 . S
O72 C70 1.263 . S
C73 O74 1.235 . S
C73 O100 1.289 . S
O74 C73 1.235 . S
C75 C77 1.400 . S
C75 N78 1.351 . S
C75 C80 1.501 . S
C76 C77 1.387 1_545 S
C76 N79 1.341 1_545 S
C77 C75 1.400 . S
C77 C76 1.387 1_565 S
N78 Co69 2.022 . S
N78 C75 1.351 . S
N78 N79 1.365 . S
N79 C76 1.341 1_565 S
N79 N78 1.365 . S
N79 H99 0.862 1_565 S
C80 C75 1.501 . S
C80 H81 0.961 . S
C80 H82 0.961 . S
C80 H83 0.960 . S
H81 C80 0.961 . S
H82 C80 0.961 . S
H83 C80 0.960 . S
C84 N85 1.342 . S
C84 C88 1.401 . S
C84 C89 1.499 . S
N85 Co68 1.989 . S
N85 C84 1.342 . S
N85 N86 1.388 . S
N86 Co69 1.993 . S
N86 N85 1.388 . S
N86 C87 1.346 . S
C87 N86 1.346 . S
C87 C88 1.396 . S
C87 C97 1.510 . S
C88 C84 1.401 . S
C88 C87 1.396 . S
C89 C84 1.499 . S
C89 H90 0.959 . S
C89 H91 0.960 . S
C89 H92 0.961 . S
H90 C89 0.959 . S
H91 C89 0.960 . S
H92 C89 0.961 . S
O93 Co68 1.967 . S
O93 C101 1.258 . S
O94 Co69 1.941 . S
O94 C101 1.266 . S
H95 C97 0.959 1_545 S
H96 C97 0.961 . S
C97 C87 1.510 . S
C97 H95 0.959 1_565 S
C97 H96 0.961 . S
C97 H98 0.960 . S
H98 C97 0.960 . S
H99 N79 0.862 1_545 S
O100 Co68 1.920 . S
O100 C73 1.289 . S
C101 O93 1.258 . S
C101 O94 1.266 . S
Co102 O105 1.970 . S
Co102 N119 1.989 . S
Co102 O127 1.967 . S
Co102 O134 1.920 . S
Co103 O106 1.966 . S
Co103 N112 2.022 . S
Co103 N120 1.993 . S
Co103 O128 1.941 . S
C104 O105 1.258 . S
C104 O106 1.263 . S
O105 Co102 1.970 . S
O105 C104 1.258 . S
O106 Co103 1.966 . S
O106 C104 1.263 . S
C107 O108 1.235 . S
C107 O134 1.289 . S
O108 C107 1.235 . S
C109 C111 1.400 . S
C109 N112 1.351 . S
C109 C114 1.501 . S
C110 C111 1.387 1_565 S
C110 N113 1.341 1_565 S
C111 C109 1.400 . S
C111 C110 1.387 1_545 S
N112 Co103 2.022 . S
N112 C109 1.351 . S
N112 N113 1.365 . S
N113 C110 1.341 1_545 S
N113 N112 1.365 . S
N113 H133 0.862 1_545 S
C114 C109 1.501 . S
C114 H115 0.961 . S
C114 H116 0.961 . S
C114 H117 0.960 . S
H115 C114 0.961 . S
H116 C114 0.961 . S
H117 C114 0.960 . S
C118 N119 1.342 . S
C118 C122 1.401 . S
C118 C123 1.499 . S
N119 Co102 1.989 . S
N119 C118 1.342 . S
N119 N120 1.388 . S
N120 Co103 1.993 . S
N120 N119 1.388 . S
N120 C121 1.346 . S
C121 N120 1.346 . S
C121 C122 1.396 . S
C121 C131 1.510 . S
C122 C118 1.401 . S
C122 C121 1.396 . S
C123 C118 1.499 . S
C123 H124 0.959 . S
C123 H125 0.960 . S
C123 H126 0.961 . S
H124 C123 0.959 . S
H125 C123 0.960 . S
H126 C123 0.961 . S
O127 Co102 1.967 . S
O127 C135 1.258 . S
O128 Co103 1.941 . S
O128 C135 1.266 . S
H129 C131 0.959 1_565 S
H130 C131 0.961 . S
C131 C121 1.510 . S
C131 H129 0.959 1_545 S
C131 H130 0.961 . S
C131 H132 0.960 . S
H132 C131 0.960 . S
H133 N113 0.862 1_565 S
O134 Co102 1.920 . S
O134 C107 1.289 . S
C135 O127 1.258 . S
C135 O128 1.266 . S
Co136 O139 1.970 . S
Co136 N153 1.989 . S
Co136 O161 1.967 . S
Co136 O168 1.920 . S
Co137 O140 1.966 . S
Co137 N146 2.022 . S
Co137 N154 1.993 . S
Co137 O162 1.941 . S
C138 O139 1.258 . S
C138 O140 1.263 . S
O139 Co136 1.970 . S
O139 C138 1.258 . S
O140 Co137 1.966 . S
O140 C138 1.263 . S
C141 O142 1.235 . S
C141 O168 1.289 . S
O142 C141 1.235 . S
C143 C145 1.400 . S
C143 N146 1.351 . S
C143 C148 1.501 . S
C144 C145 1.387 1_545 S
C144 N147 1.341 1_545 S
C145 C143 1.400 . S
C145 C144 1.387 1_565 S
N146 Co137 2.022 . S
N146 C143 1.351 . S
N146 N147 1.365 . S
N147 C144 1.341 1_565 S
N147 N146 1.365 . S
N147 H167 0.862 1_565 S
C148 C143 1.501 . S
C148 H149 0.961 . S
C148 H150 0.961 . S
C148 H151 0.960 . S
H149 C148 0.961 . S
H150 C148 0.961 . S
H151 C148 0.960 . S
C152 N153 1.342 . S
C152 C156 1.401 . S
C152 C157 1.499 . S
N153 Co136 1.989 . S
N153 C152 1.342 . S
N153 N154 1.388 . S
N154 Co137 1.993 . S
N154 N153 1.388 . S
N154 C155 1.346 . S
C155 N154 1.346 . S
C155 C156 1.396 . S
C155 C165 1.510 . S
C156 C152 1.401 . S
C156 C155 1.396 . S
C157 C152 1.499 . S
C157 H158 0.959 . S
C157 H159 0.960 . S
C157 H160 0.961 . S
H158 C157 0.959 . S
H159 C157 0.960 . S
H160 C157 0.961 . S
O161 Co136 1.967 . S
O161 C169 1.258 . S
O162 Co137 1.941 . S
O162 C169 1.266 . S
H163 C165 0.959 1_545 S
H164 C165 0.961 . S
C165 C155 1.510 . S
C165 H163 0.959 1_565 S
C165 H164 0.961 . S
C165 H166 0.960 . S
H166 C165 0.960 . S
H167 N147 0.862 1_545 S
O168 Co136 1.920 . S
O168 C141 1.289 . S
C169 O161 1.258 . S
C169 O162 1.266 . S
Co170 O173 1.970 . S
Co170 N187 1.989 . S
Co170 O195 1.967 . S
Co170 O202 1.920 . S
Co171 O174 1.966 . S
Co171 N180 2.022 . S
Co171 N188 1.993 . S
Co171 O196 1.941 . S
C172 O173 1.258 . S
C172 O174 1.263 . S
O173 Co170 1.970 . S
O173 C172 1.258 . S
O174 Co171 1.966 . S
O174 C172 1.263 . S
C175 O176 1.235 . S
C175 O202 1.289 . S
O176 C175 1.235 . S
C177 C179 1.400 . S
C177 N180 1.351 . S
C177 C182 1.501 . S
C178 C179 1.387 1_565 S
C178 N181 1.341 1_565 S
C179 C177 1.400 . S
C179 C178 1.387 1_545 S
N180 Co171 2.022 . S
N180 C177 1.351 . S
N180 N181 1.365 . S
N181 C178 1.341 1_545 S
N181 N180 1.365 . S
N181 H201 0.862 1_545 S
C182 C177 1.501 . S
C182 H183 0.961 . S
C182 H184 0.961 . S
C182 H185 0.960 . S
H183 C182 0.961 . S
H184 C182 0.961 . S
H185 C182 0.960 . S
C186 N187 1.342 . S
C186 C190 1.401 . S
C186 C191 1.499 . S
N187 Co170 1.989 . S
N187 C186 1.342 . S
N187 N188 1.388 . S
N188 Co171 1.993 . S
N188 N187 1.388 . S
N188 C189 1.346 . S
C189 N188 1.346 . S
C189 C190 1.396 . S
C189 C199 1.510 . S
C190 C186 1.401 . S
C190 C189 1.396 . S
C191 C186 1.499 . S
C191 H192 0.959 . S
C191 H193 0.960 . S
C191 H194 0.961 . S
H192 C191 0.959 . S
H193 C191 0.960 . S
H194 C191 0.961 . S
O195 Co170 1.967 . S
O195 C203 1.258 . S
O196 Co171 1.941 . S
O196 C203 1.266 . S
H197 C199 0.959 1_565 S
H198 C199 0.961 . S
C199 C189 1.510 . S
C199 H197 0.959 1_545 S
C199 H198 0.961 . S
C199 H200 0.960 . S
H200 C199 0.960 . S
H201 N181 0.862 1_565 S
O202 Co170 1.920 . S
O202 C175 1.289 . S
C203 O195 1.258 . S
C203 O196 1.266 . S
Co204 O207 1.970 . S
Co204 N221 1.989 . S
Co204 O229 1.967 . S
Co204 O236 1.920 . S
Co205 O208 1.966 . S
Co205 N214 2.022 . S
Co205 N222 1.993 . S
Co205 O230 1.941 . S
C206 O207 1.258 . S
C206 O208 1.263 . S
O207 Co204 1.970 . S
O207 C206 1.258 . S
O208 Co205 1.966 . S
O208 C206 1.263 . S
C209 O210 1.235 . S
C209 O236 1.289 . S
O210 C209 1.235 . S
C211 C213 1.400 . S
C211 N214 1.351 . S
C211 C216 1.501 . S
C212 C213 1.387 1_565 S
C212 N215 1.341 1_565 S
C213 C211 1.400 . S
C213 C212 1.387 1_545 S
N214 Co205 2.022 . S
N214 C211 1.351 . S
N214 N215 1.365 . S
N215 C212 1.341 1_545 S
N215 N214 1.365 . S
N215 H235 0.862 1_545 S
C216 C211 1.501 . S
C216 H217 0.961 . S
C216 H218 0.961 . S
C216 H219 0.960 . S
H217 C216 0.961 . S
H218 C216 0.961 . S
H219 C216 0.960 . S
C220 N221 1.342 . S
C220 C224 1.401 . S
C220 C225 1.499 . S
N221 Co204 1.989 . S
N221 C220 1.342 . S
N221 N222 1.388 . S
N222 Co205 1.993 . S
N222 N221 1.388 . S
N222 C223 1.346 . S
C223 N222 1.346 . S
C223 C224 1.396 . S
C223 C233 1.510 . S
C224 C220 1.401 . S
C224 C223 1.396 . S
C225 C220 1.499 . S
C225 H226 0.959 . S
C225 H227 0.960 . S
C225 H228 0.961 . S
H226 C225 0.959 . S
H227 C225 0.960 . S
H228 C225 0.961 . S
O229 Co204 1.967 . S
O229 C237 1.258 . S
O230 Co205 1.941 . S
O230 C237 1.266 . S
H231 C233 0.959 1_565 S
H232 C233 0.961 . S
C233 C223 1.510 . S
C233 H231 0.959 1_545 S
C233 H232 0.961 . S
C233 H234 0.960 . S
H234 C233 0.960 . S
H235 N215 0.862 1_565 S
O236 Co204 1.920 . S
O236 C209 1.289 . S
C237 O229 1.258 . S
C237 O230 1.266 . S
Co238 O241 1.970 . S
Co238 N255 1.989 . S
Co238 O263 1.967 . S
Co238 O270 1.920 . S
Co239 O242 1.966 . S
Co239 N248 2.022 . S
Co239 N256 1.993 . S
Co239 O264 1.941 . S
C240 O241 1.258 . S
C240 O242 1.263 . S
O241 Co238 1.970 . S
O241 C240 1.258 . S
O242 Co239 1.966 . S
O242 C240 1.263 . S
C243 O244 1.235 . S
C243 O270 1.289 . S
O244 C243 1.235 . S
C245 C247 1.400 . S
C245 N248 1.351 . S
C245 C250 1.501 . S
C246 C247 1.387 1_545 S
C246 N249 1.341 1_545 S
C247 C245 1.400 . S
C247 C246 1.387 1_565 S
N248 Co239 2.022 . S
N248 C245 1.351 . S
N248 N249 1.365 . S
N249 C246 1.341 1_565 S
N249 N248 1.365 . S
N249 H269 0.862 1_565 S
C250 C245 1.501 . S
C250 H251 0.961 . S
C250 H252 0.961 . S
C250 H253 0.960 . S
H251 C250 0.961 . S
H252 C250 0.961 . S
H253 C250 0.960 . S
C254 N255 1.342 . S
C254 C258 1.401 . S
C254 C259 1.499 . S
N255 Co238 1.989 . S
N255 C254 1.342 . S
N255 N256 1.388 . S
N256 Co239 1.993 . S
N256 N255 1.388 . S
N256 C257 1.346 . S
C257 N256 1.346 . S
C257 C258 1.396 . S
C257 C267 1.510 . S
C258 C254 1.401 . S
C258 C257 1.396 . S
C259 C254 1.499 . S
C259 H260 0.959 . S
C259 H261 0.960 . S
C259 H262 0.961 . S
H260 C259 0.959 . S
H261 C259 0.960 . S
H262 C259 0.961 . S
O263 Co238 1.967 . S
O263 C271 1.258 . S
O264 Co239 1.941 . S
O264 C271 1.266 . S
H265 C267 0.959 1_545 S
H266 C267 0.961 . S
C267 C257 1.510 . S
C267 H265 0.959 1_565 S
C267 H266 0.961 . S
C267 H268 0.960 . S
H268 C267 0.960 . S
H269 N249 0.862 1_545 S
O270 Co238 1.920 . S
O270 C243 1.289 . S
C271 O263 1.258 . S
C271 O264 1.266 . S
Co272 O275 1.970 . S
Co272 N289 1.989 . S
Co272 O297 1.967 . S
Co272 O304 1.920 . S
Co273 O276 1.966 . S
Co273 N282 2.022 . S
Co273 N290 1.993 . S
Co273 O298 1.941 . S
C274 O275 1.258 . S
C274 O276 1.263 . S
O275 Co272 1.970 . S
O275 C274 1.258 . S
O276 Co273 1.966 . S
O276 C274 1.263 . S
C277 O278 1.235 . S
C277 O304 1.289 . S
O278 C277 1.235 . S
C279 C281 1.400 . S
C279 N282 1.351 . S
C279 C284 1.501 . S
C280 C281 1.387 . S
C280 N283 1.341 . S
C281 C279 1.400 . S
C281 C280 1.387 . S
N282 Co273 2.022 . S
N282 C279 1.351 . S
N282 N283 1.365 . S
N283 C280 1.341 . S
N283 N282 1.365 . S
N283 H303 0.862 . S
C284 C279 1.501 . S
C284 H285 0.961 . S
C284 H286 0.961 . S
C284 H287 0.960 . S
H285 C284 0.961 . S
H286 C284 0.961 . S
H287 C284 0.960 . S
C288 N289 1.342 . S
C288 C292 1.401 . S
C288 C293 1.499 . S
N289 Co272 1.989 . S
N289 C288 1.342 . S
N289 N290 1.388 . S
N290 Co273 1.993 . S
N290 N289 1.388 . S
N290 C291 1.346 . S
C291 N290 1.346 . S
C291 C292 1.396 . S
C291 C301 1.510 . S
C292 C288 1.401 . S
C292 C291 1.396 . S
C293 C288 1.499 . S
C293 H294 0.959 . S
C293 H295 0.960 . S
C293 H296 0.961 . S
H294 C293 0.959 . S
H295 C293 0.960 . S
H296 C293 0.961 . S
O297 Co272 1.967 . S
O297 C305 1.258 . S
O298 Co273 1.941 . S
O298 C305 1.266 . S
H299 C301 0.959 . S
H300 C301 0.961 . S
C301 C291 1.510 . S
C301 H299 0.959 . S
C301 H300 0.961 . S
C301 H302 0.960 . S
H302 C301 0.960 . S
H303 N283 0.862 . S
O304 Co272 1.920 . S
O304 C277 1.289 . S
C305 O297 1.258 . S
C305 O298 1.266 . S
Co306 O309 1.970 . S
Co306 N323 1.989 . S
Co306 O331 1.967 . S
Co306 O338 1.920 . S
Co307 O310 1.966 . S
Co307 N316 2.022 . S
Co307 N324 1.993 . S
Co307 O332 1.941 . S
C308 O309 1.258 . S
C308 O310 1.263 . S
O309 Co306 1.970 . S
O309 C308 1.258 . S
O310 Co307 1.966 . S
O310 C308 1.263 . S
C311 O312 1.235 . S
C311 O338 1.289 . S
O312 C311 1.235 . S
C313 C315 1.400 . S
C313 N316 1.351 . S
C313 C318 1.501 . S
C314 C315 1.387 . S
C314 N317 1.341 . S
C315 C313 1.400 . S
C315 C314 1.387 . S
N316 Co307 2.022 . S
N316 C313 1.351 . S
N316 N317 1.365 . S
N317 C314 1.341 . S
N317 N316 1.365 . S
N317 H337 0.862 . S
C318 C313 1.501 . S
C318 H319 0.961 . S
C318 H320 0.961 . S
C318 H321 0.960 . S
H319 C318 0.961 . S
H320 C318 0.961 . S
H321 C318 0.960 . S
C322 N323 1.342 . S
C322 C326 1.401 . S
C322 C327 1.499 . S
N323 Co306 1.989 . S
N323 C322 1.342 . S
N323 N324 1.388 . S
N324 Co307 1.993 . S
N324 N323 1.388 . S
N324 C325 1.346 . S
C325 N324 1.346 . S
C325 C326 1.396 . S
C325 C335 1.510 . S
C326 C322 1.401 . S
C326 C325 1.396 . S
C327 C322 1.499 . S
C327 H328 0.959 . S
C327 H329 0.960 . S
C327 H330 0.961 . S
H328 C327 0.959 . S
H329 C327 0.960 . S
H330 C327 0.961 . S
O331 Co306 1.967 . S
O331 C339 1.258 . S
O332 Co307 1.941 . S
O332 C339 1.266 . S
H333 C335 0.959 . S
H334 C335 0.961 . S
C335 C325 1.510 . S
C335 H333 0.959 . S
C335 H334 0.961 . S
C335 H336 0.960 . S
H336 C335 0.960 . S
H337 N317 0.862 . S
O338 Co306 1.920 . S
O338 C311 1.289 . S
C339 O331 1.258 . S
C339 O332 1.266 . S
Co340 O343 1.970 . S
Co340 N357 1.989 . S
Co340 O365 1.967 . S
Co340 O372 1.920 . S
Co341 O344 1.966 . S
Co341 N350 2.022 . S
Co341 N358 1.993 . S
Co341 O366 1.941 . S
C342 O343 1.258 . S
C342 O344 1.263 . S
O343 Co340 1.970 . S
O343 C342 1.258 . S
O344 Co341 1.966 . S
O344 C342 1.263 . S
C345 O346 1.235 . S
C345 O372 1.289 . S
O346 C345 1.235 . S
C347 C349 1.400 . S
C347 N350 1.351 . S
C347 C352 1.501 . S
C348 C349 1.387 . S
C348 N351 1.341 . S
C349 C347 1.400 . S
C349 C348 1.387 . S
N350 Co341 2.022 . S
N350 C347 1.351 . S
N350 N351 1.365 . S
N351 C348 1.341 . S
N351 N350 1.365 . S
N351 H371 0.862 . S
C352 C347 1.501 . S
C352 H353 0.961 . S
C352 H354 0.961 . S
C352 H355 0.960 . S
H353 C352 0.961 . S
H354 C352 0.961 . S
H355 C352 0.960 . S
C356 N357 1.342 . S
C356 C360 1.401 . S
C356 C361 1.499 . S
N357 Co340 1.989 . S
N357 C356 1.342 . S
N357 N358 1.388 . S
N358 Co341 1.993 . S
N358 N357 1.388 . S
N358 C359 1.346 . S
C359 N358 1.346 . S
C359 C360 1.396 . S
C359 C369 1.510 . S
C360 C356 1.401 . S
C360 C359 1.396 . S
C361 C356 1.499 . S
C361 H362 0.959 . S
C361 H363 0.960 . S
C361 H364 0.961 . S
H362 C361 0.959 . S
H363 C361 0.960 . S
H364 C361 0.961 . S
O365 Co340 1.967 . S
O365 C373 1.258 . S
O366 Co341 1.941 . S
O366 C373 1.266 . S
H367 C369 0.959 . S
H368 C369 0.961 . S
C369 C359 1.510 . S
C369 H367 0.959 . S
C369 H368 0.961 . S
C369 H370 0.960 . S
H370 C369 0.960 . S
H371 N351 0.862 . S
O372 Co340 1.920 . S
O372 C345 1.289 . S
C373 O365 1.258 . S
C373 O366 1.266 . S
Co374 O377 1.970 . S
Co374 N391 1.989 . S
Co374 O399 1.967 . S
Co374 O406 1.920 . S
Co375 O378 1.966 . S
Co375 N384 2.022 . S
Co375 N392 1.993 . S
Co375 O400 1.941 . S
C376 O377 1.258 . S
C376 O378 1.263 . S
O377 Co374 1.970 . S
O377 C376 1.258 . S
O378 Co375 1.966 . S
O378 C376 1.263 . S
C379 O380 1.235 . S
C379 O406 1.289 . S
O380 C379 1.235 . S
C381 C383 1.400 . S
C381 N384 1.351 . S
C381 C386 1.501 . S
C382 C383 1.387 . S
C382 N385 1.341 . S
C383 C381 1.400 . S
C383 C382 1.387 . S
N384 Co375 2.022 . S
N384 C381 1.351 . S
N384 N385 1.365 . S
N385 C382 1.341 . S
N385 N384 1.365 . S
N385 H405 0.862 . S
C386 C381 1.501 . S
C386 H387 0.961 . S
C386 H388 0.961 . S
C386 H389 0.960 . S
H387 C386 0.961 . S
H388 C386 0.961 . S
H389 C386 0.960 . S
C390 N391 1.342 . S
C390 C394 1.401 . S
C390 C395 1.499 . S
N391 Co374 1.989 . S
N391 C390 1.342 . S
N391 N392 1.388 . S
N392 Co375 1.993 . S
N392 N391 1.388 . S
N392 C393 1.346 . S
C393 N392 1.346 . S
C393 C394 1.396 . S
C393 C403 1.510 . S
C394 C390 1.401 . S
C394 C393 1.396 . S
C395 C390 1.499 . S
C395 H396 0.959 . S
C395 H397 0.960 . S
C395 H398 0.961 . S
H396 C395 0.959 . S
H397 C395 0.960 . S
H398 C395 0.961 . S
O399 Co374 1.967 . S
O399 C407 1.258 . S
O400 Co375 1.941 . S
O400 C407 1.266 . S
H401 C403 0.959 . S
H402 C403 0.961 . S
C403 C393 1.510 . S
C403 H401 0.959 . S
C403 H402 0.961 . S
C403 H404 0.960 . S
H404 C403 0.960 . S
H405 N385 0.862 . S
O406 Co374 1.920 . S
O406 C379 1.289 . S
C407 O399 1.258 . S
C407 O400 1.266 . S
Co408 O411 1.970 . S
Co408 N425 1.989 . S
Co408 O433 1.967 . S
Co408 O440 1.920 . S
Co409 O412 1.966 . S
Co409 N418 2.022 . S
Co409 N426 1.993 . S
Co409 O434 1.941 . S
C410 O411 1.258 . S
C410 O412 1.263 . S
O411 Co408 1.970 . S
O411 C410 1.258 . S
O412 Co409 1.966 . S
O412 C410 1.263 . S
C413 O414 1.235 . S
C413 O440 1.289 . S
O414 C413 1.235 . S
C415 C417 1.400 . S
C415 N418 1.351 . S
C415 C420 1.501 . S
C416 C417 1.387 . S
C416 N419 1.341 . S
C417 C415 1.400 . S
C417 C416 1.387 . S
N418 Co409 2.022 . S
N418 C415 1.351 . S
N418 N419 1.365 . S
N419 C416 1.341 . S
N419 N418 1.365 . S
N419 H439 0.862 . S
C420 C415 1.501 . S
C420 H421 0.961 . S
C420 H422 0.961 . S
C420 H423 0.960 . S
H421 C420 0.961 . S
H422 C420 0.961 . S
H423 C420 0.960 . S
C424 N425 1.342 . S
C424 C428 1.401 . S
C424 C429 1.499 . S
N425 Co408 1.989 . S
N425 C424 1.342 . S
N425 N426 1.388 . S
N426 Co409 1.993 . S
N426 N425 1.388 . S
N426 C427 1.346 . S
C427 N426 1.346 . S
C427 C428 1.396 . S
C427 C437 1.510 . S
C428 C424 1.401 . S
C428 C427 1.396 . S
C429 C424 1.499 . S
C429 H430 0.959 . S
C429 H431 0.960 . S
C429 H432 0.961 . S
H430 C429 0.959 . S
H431 C429 0.960 . S
H432 C429 0.961 . S
O433 Co408 1.967 . S
O433 C441 1.258 . S
O434 Co409 1.941 . S
O434 C441 1.266 . S
H435 C437 0.959 . S
H436 C437 0.961 . S
C437 C427 1.510 . S
C437 H435 0.959 . S
C437 H436 0.961 . S
C437 H438 0.960 . S
H438 C437 0.960 . S
H439 N419 0.862 . S
O440 Co408 1.920 . S
O440 C413 1.289 . S
C441 O433 1.258 . S
C441 O434 1.266 . S
Co442 O445 1.970 . S
Co442 N459 1.989 . S
Co442 O467 1.967 . S
Co442 O474 1.920 . S
Co443 O446 1.966 . S
Co443 N452 2.022 . S
Co443 N460 1.993 . S
Co443 O468 1.941 . S
C444 O445 1.258 . S
C444 O446 1.263 . S
O445 Co442 1.970 . S
O445 C444 1.258 . S
O446 Co443 1.966 . S
O446 C444 1.263 . S
C447 O448 1.235 . S
C447 O474 1.289 . S
O448 C447 1.235 . S
C449 C451 1.400 . S
C449 N452 1.351 . S
C449 C454 1.501 . S
C450 C451 1.387 . S
C450 N453 1.341 . S
C451 C449 1.400 . S
C451 C450 1.387 . S
N452 Co443 2.022 . S
N452 C449 1.351 . S
N452 N453 1.365 . S
N453 C450 1.341 . S
N453 N452 1.365 . S
N453 H473 0.862 . S
C454 C449 1.501 . S
C454 H455 0.961 . S
C454 H456 0.961 . S
C454 H457 0.960 . S
H455 C454 0.961 . S
H456 C454 0.961 . S
H457 C454 0.960 . S
C458 N459 1.342 . S
C458 C462 1.401 . S
C458 C463 1.499 . S
N459 Co442 1.989 . S
N459 C458 1.342 . S
N459 N460 1.388 . S
N460 Co443 1.993 . S
N460 N459 1.388 . S
N460 C461 1.346 . S
C461 N460 1.346 . S
C461 C462 1.396 . S
C461 C471 1.510 . S
C462 C458 1.401 . S
C462 C461 1.396 . S
C463 C458 1.499 . S
C463 H464 0.959 . S
C463 H465 0.960 . S
C463 H466 0.961 . S
H464 C463 0.959 . S
H465 C463 0.960 . S
H466 C463 0.961 . S
O467 Co442 1.967 . S
O467 C475 1.258 . S
O468 Co443 1.941 . S
O468 C475 1.266 . S
H469 C471 0.959 . S
H470 C471 0.961 . S
C471 C461 1.510 . S
C471 H469 0.959 . S
C471 H470 0.961 . S
C471 H472 0.960 . S
H472 C471 0.960 . S
H473 N453 0.862 . S
O474 Co442 1.920 . S
O474 C447 1.289 . S
C475 O467 1.258 . S
C475 O468 1.266 . S
Co476 O479 1.970 . S
Co476 N493 1.989 . S
Co476 O501 1.967 . S
Co476 O508 1.920 . S
Co477 O480 1.966 . S
Co477 N486 2.022 . S
Co477 N494 1.993 . S
Co477 O502 1.941 . S
C478 O479 1.258 . S
C478 O480 1.263 . S
O479 Co476 1.970 . S
O479 C478 1.258 . S
O480 Co477 1.966 . S
O480 C478 1.263 . S
C481 O482 1.235 . S
C481 O508 1.289 . S
O482 C481 1.235 . S
C483 C485 1.400 . S
C483 N486 1.351 . S
C483 C488 1.501 . S
C484 C485 1.387 . S
C484 N487 1.341 . S
C485 C483 1.400 . S
C485 C484 1.387 . S
N486 Co477 2.022 . S
N486 C483 1.351 . S
N486 N487 1.365 . S
N487 C484 1.341 . S
N487 N486 1.365 . S
N487 H507 0.862 . S
C488 C483 1.501 . S
C488 H489 0.961 . S
C488 H490 0.961 . S
C488 H491 0.960 . S
H489 C488 0.961 . S
H490 C488 0.961 . S
H491 C488 0.960 . S
C492 N493 1.342 . S
C492 C496 1.401 . S
C492 C497 1.499 . S
N493 Co476 1.989 . S
N493 C492 1.342 . S
N493 N494 1.388 . S
N494 Co477 1.993 . S
N494 N493 1.388 . S
N494 C495 1.346 . S
C495 N494 1.346 . S
C495 C496 1.396 . S
C495 C505 1.510 . S
C496 C492 1.401 . S
C496 C495 1.396 . S
C497 C492 1.499 . S
C497 H498 0.959 . S
C497 H499 0.960 . S
C497 H500 0.961 . S
H498 C497 0.959 . S
H499 C497 0.960 . S
H500 C497 0.961 . S
O501 Co476 1.967 . S
O501 C509 1.258 . S
O502 Co477 1.941 . S
O502 C509 1.266 . S
H503 C505 0.959 . S
H504 C505 0.961 . S
C505 C495 1.510 . S
C505 H503 0.959 . S
C505 H504 0.961 . S
C505 H506 0.960 . S
H506 C505 0.960 . S
H507 N487 0.862 . S
O508 Co476 1.920 . S
O508 C481 1.289 . S
C509 O501 1.258 . S
C509 O502 1.266 . S
Co510 O513 1.970 . S
Co510 N527 1.989 . S
Co510 O535 1.967 . S
Co510 O542 1.920 . S
Co511 O514 1.966 . S
Co511 N520 2.022 . S
Co511 N528 1.993 . S
Co511 O536 1.941 . S
C512 O513 1.258 . S
C512 O514 1.263 . S
O513 Co510 1.970 . S
O513 C512 1.258 . S
O514 Co511 1.966 . S
O514 C512 1.263 . S
C515 O516 1.235 . S
C515 O542 1.289 . S
O516 C515 1.235 . S
C517 C519 1.400 . S
C517 N520 1.351 . S
C517 C522 1.501 . S
C518 C519 1.387 . S
C518 N521 1.341 . S
C519 C517 1.400 . S
C519 C518 1.387 . S
N520 Co511 2.022 . S
N520 C517 1.351 . S
N520 N521 1.365 . S
N521 C518 1.341 . S
N521 N520 1.365 . S
N521 H541 0.862 . S
C522 C517 1.501 . S
C522 H523 0.961 . S
C522 H524 0.961 . S
C522 H525 0.960 . S
H523 C522 0.961 . S
H524 C522 0.961 . S
H525 C522 0.960 . S
C526 N527 1.342 . S
C526 C530 1.401 . S
C526 C531 1.499 . S
N527 Co510 1.989 . S
N527 C526 1.342 . S
N527 N528 1.388 . S
N528 Co511 1.993 . S
N528 N527 1.388 . S
N528 C529 1.346 . S
C529 N528 1.346 . S
C529 C530 1.396 . S
C529 C539 1.510 . S
C530 C526 1.401 . S
C530 C529 1.396 . S
C531 C526 1.499 . S
C531 H532 0.959 . S
C531 H533 0.960 . S
C531 H534 0.961 . S
H532 C531 0.959 . S
H533 C531 0.960 . S
H534 C531 0.961 . S
O535 Co510 1.967 . S
O535 C543 1.258 . S
O536 Co511 1.941 . S
O536 C543 1.266 . S
H537 C539 0.959 . S
H538 C539 0.961 . S
C539 C529 1.510 . S
C539 H537 0.959 . S
C539 H538 0.961 . S
C539 H540 0.960 . S
H540 C539 0.960 . S
H541 N521 0.862 . S
O542 Co510 1.920 . S
O542 C515 1.289 . S
C543 O535 1.258 . S
C543 O536 1.266 . S
C544 C545 1.387 . S
C544 H548 0.950 . S
C544 C553 1.390 1_655 S
C545 C544 1.387 . S
C545 C547 1.387 . S
H546 C553 0.950 . S
C547 C545 1.387 . S
C547 C549 1.390 1_655 S
C547 H551 0.950 . S
H548 C544 0.950 . S
C549 C547 1.390 1_455 S
C549 C550 1.387 . S
C549 H552 0.950 . S
C550 C549 1.387 . S
C550 C553 1.387 . S
H551 C547 0.950 . S
H552 C549 0.950 . S
C553 C544 1.390 1_455 S
C553 H546 0.950 . S
C553 C550 1.387 . S
C554 C555 1.387 . S
C554 H558 0.950 . S
C554 C563 1.390 . S
C555 C554 1.387 . S
C555 C557 1.387 . S
H556 C563 0.950 . S
C557 C555 1.387 . S
C557 C559 1.390 . S
C557 H561 0.950 . S
H558 C554 0.950 . S
C559 C557 1.390 . S
C559 C560 1.387 . S
C559 H562 0.950 . S
C560 C559 1.387 . S
C560 C563 1.387 . S
H561 C557 0.950 . S
H562 C559 0.950 . S
C563 C554 1.390 . S
C563 H556 0.950 . S
C563 C560 1.387 . S
C564 C565 1.387 . S
C564 H568 0.950 . S
C564 C573 1.390 1_655 S
C565 C564 1.387 . S
C565 C567 1.387 . S
H566 C573 0.950 . S
C567 C565 1.387 . S
C567 C569 1.390 1_655 S
C567 H571 0.950 . S
H568 C564 0.950 . S
C569 C567 1.390 1_455 S
C569 C570 1.387 . S
C569 H572 0.950 . S
C570 C569 1.387 . S
C570 C573 1.387 . S
H571 C567 0.950 . S
H572 C569 0.950 . S
C573 C564 1.390 1_455 S
C573 H566 0.950 . S
C573 C570 1.387 . S
C574 C575 1.387 . S
C574 H578 0.950 . S
C574 C583 1.390 . S
C575 C574 1.387 . S
C575 C577 1.387 . S
H576 C583 0.950 . S
C577 C575 1.387 . S
C577 C579 1.390 . S
C577 H581 0.950 . S
H578 C574 0.950 . S
C579 C577 1.390 . S
C579 C580 1.387 . S
C579 H582 0.950 . S
C580 C579 1.387 . S
C580 C583 1.387 . S
H581 C577 0.950 . S
H582 C579 0.950 . S
C583 C574 1.390 . S
C583 H576 0.950 . S
C583 C580 1.387 . S
C584 C585 1.387 . S
C584 H588 0.950 . S
C584 C593 1.390 . S
C585 C584 1.387 . S
C585 C587 1.387 . S
H586 C593 0.950 . S
C587 C585 1.387 . S
C587 C589 1.390 . S
C587 H591 0.950 . S
H588 C584 0.950 . S
C589 C587 1.390 . S
C589 C590 1.387 . S
C589 H592 0.950 . S
C590 C589 1.387 . S
C590 C593 1.387 . S
H591 C587 0.950 . S
H592 C589 0.950 . S
C593 C584 1.390 . S
C593 H586 0.950 . S
C593 C590 1.387 . S
C594 C595 1.387 . S
C594 H598 0.950 . S
C594 C603 1.390 1_655 S
C595 C594 1.387 . S
C595 C597 1.387 . S
H596 C603 0.950 . S
C597 C595 1.387 . S
C597 C599 1.390 1_655 S
C597 H601 0.950 . S
H598 C594 0.950 . S
C599 C597 1.390 1_455 S
C599 C600 1.387 . S
C599 H602 0.950 . S
C600 C599 1.387 . S
C600 C603 1.387 . S
H601 C597 0.950 . S
H602 C599 0.950 . S
C603 C594 1.390 1_455 S
C603 H596 0.950 . S
C603 C600 1.387 . S
C604 C605 1.387 . S
C604 H608 0.950 . S
C604 C613 1.390 . S
C605 C604 1.387 . S
C605 C607 1.387 . S
H606 C613 0.950 . S
C607 C605 1.387 . S
C607 C609 1.390 . S
C607 H611 0.950 . S
H608 C604 0.950 . S
C609 C607 1.390 . S
C609 C610 1.387 . S
C609 H612 0.950 . S
C610 C609 1.387 . S
C610 C613 1.387 . S
H611 C607 0.950 . S
H612 C609 0.950 . S
C613 C604 1.390 . S
C613 H606 0.950 . S
C613 C610 1.387 . S
C614 C615 1.387 . S
C614 H618 0.950 . S
C614 C623 1.390 1_655 S
C615 C614 1.387 . S
C615 C617 1.387 . S
H616 C623 0.950 . S
C617 C615 1.387 . S
C617 C619 1.390 1_655 S
C617 H621 0.950 . S
H618 C614 0.950 . S
C619 C617 1.390 1_455 S
C619 C620 1.387 . S
C619 H622 0.950 . S
C620 C619 1.387 . S
C620 C623 1.387 . S
H621 C617 0.950 . S
H622 C619 0.950 . S
C623 C614 1.390 1_455 S
C623 H616 0.950 . S
C623 C620 1.387 . S
C624 C625 1.387 . S
C624 H628 0.950 . S
C624 C633 1.390 . S
C625 C624 1.387 . S
C625 C627 1.387 . S
H626 C633 0.950 . S
C627 C625 1.387 . S
C627 C629 1.390 . S
C627 H631 0.950 . S
H628 C624 0.950 . S
C629 C627 1.390 . S
C629 C630 1.387 . S
C629 H632 0.950 . S
C630 C629 1.387 . S
C630 C633 1.387 . S
H631 C627 0.950 . S
H632 C629 0.950 . S
C633 C624 1.390 . S
C633 H626 0.950 . S
C633 C630 1.387 . S
C634 C635 1.387 . S
C634 H638 0.950 . S
C634 C643 1.390 . S
C635 C634 1.387 . S
C635 C637 1.387 . S
H636 C643 0.950 . S
C637 C635 1.387 . S
C637 C639 1.390 . S
C637 H641 0.950 . S
H638 C634 0.950 . S
C639 C637 1.390 . S
C639 C640 1.387 . S
C639 H642 0.950 . S
C640 C639 1.387 . S
C640 C643 1.387 . S
H641 C637 0.950 . S
H642 C639 0.950 . S
C643 C634 1.390 . S
C643 H636 0.950 . S
C643 C640 1.387 . S
C644 C645 1.387 . S
C644 H648 0.950 . S
C644 C653 1.390 . S
C645 C644 1.387 . S
C645 C647 1.387 . S
H646 C653 0.950 . S
C647 C645 1.387 . S
C647 C649 1.390 . S
C647 H651 0.950 . S
H648 C644 0.950 . S
C649 C647 1.390 . S
C649 C650 1.387 . S
C649 H652 0.950 . S
C650 C649 1.387 . S
C650 C653 1.387 . S
H651 C647 0.950 . S
H652 C649 0.950 . S
C653 C644 1.390 . S
C653 H646 0.950 . S
C653 C650 1.387 . S
C654 C655 1.387 . S
C654 H658 0.950 . S
C654 C663 1.390 . S
C655 C654 1.387 . S
C655 C657 1.387 . S
H656 C663 0.950 . S
C657 C655 1.387 . S
C657 C659 1.390 . S
C657 H661 0.950 . S
H658 C654 0.950 . S
C659 C657 1.390 . S
C659 C660 1.387 . S
C659 H662 0.950 . S
C660 C659 1.387 . S
C660 C663 1.387 . S
H661 C657 0.950 . S
H662 C659 0.950 . S
C663 C654 1.390 . S
C663 H656 0.950 . S
C663 C660 1.387 . S
C664 C665 1.387 . S
C664 H668 0.950 . S
C664 C673 1.390 . S
C665 C664 1.387 . S
C665 C667 1.387 . S
H666 C673 0.950 . S
C667 C665 1.387 . S
C667 C669 1.390 . S
C667 H671 0.950 . S
H668 C664 0.950 . S
C669 C667 1.390 . S
C669 C670 1.387 . S
C669 H672 0.950 . S
C670 C669 1.387 . S
C670 C673 1.387 . S
H671 C667 0.950 . S
H672 C669 0.950 . S
C673 C664 1.390 . S
C673 H666 0.950 . S
C673 C670 1.387 . S
C674 C675 1.387 . S
C674 H678 0.950 . S
C674 C683 1.390 . S
C675 C674 1.387 . S
C675 C677 1.387 . S
H676 C683 0.950 . S
C677 C675 1.387 . S
C677 C679 1.390 . S
C677 H681 0.950 . S
H678 C674 0.950 . S
C679 C677 1.390 . S
C679 C680 1.387 . S
C679 H682 0.950 . S
C680 C679 1.387 . S
C680 C683 1.387 . S
H681 C677 0.950 . S
H682 C679 0.950 . S
C683 C674 1.390 . S
C683 H676 0.950 . S
C683 C680 1.387 . S
C684 C685 1.387 . S
C684 H688 0.950 . S
C684 C693 1.390 . S
C685 C684 1.387 . S
C685 C687 1.387 . S
H686 C693 0.950 . S
C687 C685 1.387 . S
C687 C689 1.390 . S
C687 H691 0.950 . S
H688 C684 0.950 . S
C689 C687 1.390 . S
C689 C690 1.387 . S
C689 H692 0.950 . S
C690 C689 1.387 . S
C690 C693 1.387 . S
H691 C687 0.950 . S
H692 C689 0.950 . S
C693 C684 1.390 . S
C693 H686 0.950 . S
C693 C690 1.387 . S
C694 C695 1.387 . S
C694 H698 0.950 . S
C694 C703 1.390 . S
C695 C694 1.387 . S
C695 C697 1.387 . S
H696 C703 0.950 . S
C697 C695 1.387 . S
C697 C699 1.390 . S
C697 H701 0.950 . S
H698 C694 0.950 . S
C699 C697 1.390 . S
C699 C700 1.387 . S
C699 H702 0.950 . S
C700 C699 1.387 . S
C700 C703 1.387 . S
H701 C697 0.950 . S
H702 C699 0.950 . S
C703 C694 1.390 . S
C703 H696 0.950 . S
C703 C700 1.387 . S
C704 C705 1.387 . S
C704 H708 0.950 . S
C704 C713 1.390 1_455 S
C705 C704 1.387 . S
C705 C707 1.387 1_545 S
H706 C713 0.950 . S
C707 C705 1.387 1_565 S
C707 C709 1.390 1_455 S
C707 H711 0.950 . S
H708 C704 0.950 . S
C709 C707 1.390 1_655 S
C709 C710 1.387 . S
C709 H712 0.950 . S
C710 C709 1.387 . S
C710 C713 1.387 1_565 S
H711 C707 0.950 . S
H712 C709 0.950 . S
C713 C704 1.390 1_655 S
C713 H706 0.950 . S
C713 C710 1.387 1_545 S
C714 C715 1.387 . S
C714 H718 0.950 . S
C714 C723 1.390 . S
C715 C714 1.387 . S
C715 C717 1.387 1_565 S
H716 C723 0.950 . S
C717 C715 1.387 1_545 S
C717 C719 1.390 . S
C717 H721 0.950 . S
H718 C714 0.950 . S
C719 C717 1.390 . S
C719 C720 1.387 . S
C719 H722 0.950 . S
C720 C719 1.387 . S
C720 C723 1.387 1_545 S
H721 C717 0.950 . S
H722 C719 0.950 . S
C723 C714 1.390 . S
C723 H716 0.950 . S
C723 C720 1.387 1_565 S
C724 C725 1.387 1_565 S
C724 H728 0.950 . S
C724 C733 1.390 1_556 S
C725 C724 1.387 1_545 S
C725 C727 1.387 . S
H726 C733 0.950 . S
C727 C725 1.387 . S
C727 C729 1.390 1_556 S
C727 H731 0.950 . S
H728 C724 0.950 . S
C729 C727 1.390 1_554 S
C729 C730 1.387 1_545 S
C729 H732 0.950 . S
C730 C729 1.387 1_565 S
C730 C733 1.387 . S
H731 C727 0.950 . S
H732 C729 0.950 . S
C733 C724 1.390 1_554 S
C733 H726 0.950 . S
C733 C730 1.387 . S
C734 C735 1.387 1_565 S
C734 H738 0.950 . S
C734 C743 1.390 1_654 S
C735 C734 1.387 1_545 S
C735 C737 1.387 . S
H736 C743 0.950 . S
C737 C735 1.387 . S
C737 C739 1.390 1_654 S
C737 H741 0.950 . S
H738 C734 0.950 . S
C739 C737 1.390 1_456 S
C739 C740 1.387 1_545 S
C739 H742 0.950 . S
C740 C739 1.387 1_565 S
C740 C743 1.387 . S
H741 C737 0.950 . S
H742 C739 0.950 . S
C743 C734 1.390 1_456 S
C743 H736 0.950 . S
C743 C740 1.387 . S
C744 C745 1.387 . S
C744 H748 0.950 . S
C744 C753 1.390 . S
C745 C744 1.387 . S
C745 C747 1.387 . S
H746 C753 0.950 . S
C747 C745 1.387 . S
C747 C749 1.390 . S
C747 H751 0.950 . S
H748 C744 0.950 . S
C749 C747 1.390 . S
C749 C750 1.387 . S
C749 H752 0.950 . S
C750 C749 1.387 . S
C750 C753 1.387 . S
H751 C747 0.950 . S
H752 C749 0.950 . S
C753 C744 1.390 . S
C753 H746 0.950 . S
C753 C750 1.387 . S
C754 C755 1.387 . S
C754 H758 0.950 . S
C754 C763 1.390 1_455 S
C755 C754 1.387 . S
C755 C757 1.387 . S
H756 C763 0.950 . S
C757 C755 1.387 . S
C757 C759 1.390 1_455 S
C757 H761 0.950 . S
H758 C754 0.950 . S
C759 C757 1.390 1_655 S
C759 C760 1.387 . S
C759 H762 0.950 . S
C760 C759 1.387 . S
C760 C763 1.387 . S
H761 C757 0.950 . S
H762 C759 0.950 . S
C763 C754 1.390 1_655 S
C763 H756 0.950 . S
C763 C760 1.387 . S
C764 C765 1.387 . S
C764 H768 0.950 . S
C764 C773 1.390 1_454 S
C765 C764 1.387 . S
C765 C767 1.387 . S
H766 C773 0.950 . S
C767 C765 1.387 . S
C767 C769 1.390 1_454 S
C767 H771 0.950 . S
H768 C764 0.950 . S
C769 C767 1.390 1_656 S
C769 C770 1.387 . S
C769 H772 0.950 . S
C770 C769 1.387 . S
C770 C773 1.387 . S
H771 C767 0.950 . S
H772 C769 0.950 . S
C773 C764 1.390 1_656 S
C773 H766 0.950 . S
C773 C770 1.387 . S
C774 C775 1.387 . S
C774 H778 0.950 . S
C774 C783 1.390 1_556 S
C775 C774 1.387 . S
C775 C777 1.387 . S
H776 C783 0.950 . S
C777 C775 1.387 . S
C777 C779 1.390 1_556 S
C777 H781 0.950 . S
H778 C774 0.950 . S
C779 C777 1.390 1_554 S
C779 C780 1.387 . S
C779 H782 0.950 . S
C780 C779 1.387 . S
C780 C783 1.387 . S
H781 C777 0.950 . S
H782 C779 0.950 . S
C783 C774 1.390 1_554 S
C783 H776 0.950 . S
C783 C780 1.387 . S
C784 C785 1.387 . S
C784 H788 0.950 . S
C784 C793 1.390 1_545 S
C785 C784 1.387 . S
C785 C787 1.387 . S
H786 C793 0.950 . S
C787 C785 1.387 . S
C787 C789 1.390 1_545 S
C787 H791 0.950 . S
H788 C784 0.950 . S
C789 C787 1.390 1_565 S
C789 C790 1.387 . S
C789 H792 0.950 . S
C790 C789 1.387 . S
C790 C793 1.387 . S
H791 C787 0.950 . S
H792 C789 0.950 . S
C793 C784 1.390 1_565 S
C793 H786 0.950 . S
C793 C790 1.387 . S
C794 C795 1.387 . S
C794 H798 0.950 . S
C794 C803 1.390 1_545 S
C795 C794 1.387 . S
C795 C797 1.387 . S
H796 C803 0.950 . S
C797 C795 1.387 . S
C797 C799 1.390 1_545 S
C797 H801 0.950 . S
H798 C794 0.950 . S
C799 C797 1.390 1_565 S
C799 C800 1.387 . S
C799 H802 0.950 . S
C800 C799 1.387 . S
C800 C803 1.387 . S
H801 C797 0.950 . S
H802 C799 0.950 . S
C803 C794 1.390 1_565 S
C803 H796 0.950 . S
C803 C800 1.387 . S
C804 C805 1.387 . S
C804 H808 0.950 . S
C804 C813 1.390 1_545 S
C805 C804 1.387 . S
C805 C807 1.387 . S
H806 C813 0.950 . S
C807 C805 1.387 . S
C807 C809 1.390 1_545 S
C807 H811 0.950 . S
H808 C804 0.950 . S
C809 C807 1.390 1_565 S
C809 C810 1.387 . S
C809 H812 0.950 . S
C810 C809 1.387 . S
C810 C813 1.387 . S
H811 C807 0.950 . S
H812 C809 0.950 . S
C813 C804 1.390 1_565 S
C813 H806 0.950 . S
C813 C810 1.387 . S
C814 C815 1.387 . S
C814 H818 0.950 . S
C814 C823 1.390 1_545 S
C815 C814 1.387 . S
C815 C817 1.387 . S
H816 C823 0.950 . S
C817 C815 1.387 . S
C817 C819 1.390 1_545 S
C817 H821 0.950 . S
H818 C814 0.950 . S
C819 C817 1.390 1_565 S
C819 C820 1.387 . S
C819 H822 0.950 . S
C820 C819 1.387 . S
C820 C823 1.387 . S
H821 C817 0.950 . S
H822 C819 0.950 . S
C823 C814 1.390 1_565 S
C823 H816 0.950 . S
C823 C820 1.387 . S
C824 C825 1.387 . S
C824 H828 0.950 . S
C824 C833 1.390 . S
C825 C824 1.387 . S
C825 C827 1.387 . S
H826 C833 0.950 . S
C827 C825 1.387 . S
C827 C829 1.390 . S
C827 H831 0.950 . S
H828 C824 0.950 . S
C829 C827 1.390 . S
C829 C830 1.387 . S
C829 H832 0.950 . S
C830 C829 1.387 . S
C830 C833 1.387 . S
H831 C827 0.950 . S
H832 C829 0.950 . S
C833 C824 1.390 . S
C833 H826 0.950 . S
C833 C830 1.387 . S
C834 C835 1.387 . S
C834 H838 0.950 . S
C834 C843 1.390 . S
C835 C834 1.387 . S
C835 C837 1.387 . S
H836 C843 0.950 . S
C837 C835 1.387 . S
C837 C839 1.390 . S
C837 H841 0.950 . S
H838 C834 0.950 . S
C839 C837 1.390 . S
C839 C840 1.387 . S
C839 H842 0.950 . S
C840 C839 1.387 . S
C840 C843 1.387 . S
H841 C837 0.950 . S
H842 C839 0.950 . S
C843 C834 1.390 . S
C843 H836 0.950 . S
C843 C840 1.387 . S
C844 C845 1.387 . S
C844 H848 0.950 . S
C844 C853 1.390 . S
C845 C844 1.387 . S
C845 C847 1.387 . S
H846 C853 0.950 . S
C847 C845 1.387 . S
C847 C849 1.390 . S
C847 H851 0.950 . S
H848 C844 0.950 . S
C849 C847 1.390 . S
C849 C850 1.387 . S
C849 H852 0.950 . S
C850 C849 1.387 . S
C850 C853 1.387 . S
H851 C847 0.950 . S
H852 C849 0.950 . S
C853 C844 1.390 . S
C853 H846 0.950 . S
C853 C850 1.387 . S
C854 C855 1.387 . S
C854 H858 0.950 . S
C854 C863 1.390 . S
C855 C854 1.387 . S
C855 C857 1.387 . S
H856 C863 0.950 . S
C857 C855 1.387 . S
C857 C859 1.390 . S
C857 H861 0.950 . S
H858 C854 0.950 . S
C859 C857 1.390 . S
C859 C860 1.387 . S
C859 H862 0.950 . S
C860 C859 1.387 . S
C860 C863 1.387 . S
H861 C857 0.950 . S
H862 C859 0.950 . S
C863 C854 1.390 . S
C863 H856 0.950 . S
C863 C860 1.387 . S
C864 C865 1.387 . S
C864 H868 0.950 . S
C864 C873 1.390 1_455 S
C865 C864 1.387 . S
C865 C867 1.387 . S
H866 C873 0.950 . S
C867 C865 1.387 . S
C867 C869 1.390 1_455 S
C867 H871 0.950 . S
H868 C864 0.950 . S
C869 C867 1.390 1_655 S
C869 C870 1.387 . S
C869 H872 0.950 . S
C870 C869 1.387 . S
C870 C873 1.387 . S
H871 C867 0.950 . S
H872 C869 0.950 . S
C873 C864 1.390 1_655 S
C873 H866 0.950 . S
C873 C870 1.387 . S
C874 C875 1.387 . S
C874 H878 0.950 . S
C874 C883 1.390 . S
C875 C874 1.387 . S
C875 C877 1.387 . S
H876 C883 0.950 . S
C877 C875 1.387 . S
C877 C879 1.390 . S
C877 H881 0.950 . S
H878 C874 0.950 . S
C879 C877 1.390 . S
C879 C880 1.387 . S
C879 H882 0.950 . S
C880 C879 1.387 . S
C880 C883 1.387 . S
H881 C877 0.950 . S
H882 C879 0.950 . S
C883 C874 1.390 . S
C883 H876 0.950 . S
C883 C880 1.387 . S
C884 C885 1.387 . S
C884 H888 0.950 . S
C884 C893 1.390 . S
C885 C884 1.387 . S
C885 C887 1.387 . S
H886 C893 0.950 . S
C887 C885 1.387 . S
C887 C889 1.390 . S
C887 H891 0.950 . S
H888 C884 0.950 . S
C889 C887 1.390 . S
C889 C890 1.387 . S
C889 H892 0.950 . S
C890 C889 1.387 . S
C890 C893 1.387 . S
H891 C887 0.950 . S
H892 C889 0.950 . S
C893 C884 1.390 . S
C893 H886 0.950 . S
C893 C890 1.387 . S
C894 C895 1.387 . S
C894 H898 0.950 . S
C894 C903 1.390 1_655 S
C895 C894 1.387 . S
C895 C897 1.387 . S
H896 C903 0.950 . S
C897 C895 1.387 . S
C897 C899 1.390 1_655 S
C897 H901 0.950 . S
H898 C894 0.950 . S
C899 C897 1.390 1_455 S
C899 C900 1.387 . S
C899 H902 0.950 . S
C900 C899 1.387 . S
C900 C903 1.387 . S
H901 C897 0.950 . S
H902 C899 0.950 . S
C903 C894 1.390 1_455 S
C903 H896 0.950 . S
C903 C900 1.387 . S
C904 C905 1.387 . S
C904 H908 0.950 . S
C904 C913 1.390 1_655 S
C905 C904 1.387 . S
C905 C907 1.387 . S
H906 C913 0.950 . S
C907 C905 1.387 . S
C907 C909 1.390 1_655 S
C907 H911 0.950 . S
H908 C904 0.950 . S
C909 C907 1.390 1_455 S
C909 C910 1.387 . S
C909 H912 0.950 . S
C910 C909 1.387 . S
C910 C913 1.387 . S
H911 C907 0.950 . S
H912 C909 0.950 . S
C913 C904 1.390 1_455 S
C913 H906 0.950 . S
C913 C910 1.387 . S
C914 C915 1.387 . S
C914 H918 0.950 . S
C914 C923 1.390 . S
C915 C914 1.387 . S
C915 C917 1.387 . S
H916 C923 0.950 . S
C917 C915 1.387 . S
C917 C919 1.390 . S
C917 H921 0.950 . S
H918 C914 0.950 . S
C919 C917 1.390 . S
C919 C920 1.387 . S
C919 H922 0.950 . S
C920 C919 1.387 . S
C920 C923 1.387 . S
H921 C917 0.950 . S
H922 C919 0.950 . S
C923 C914 1.390 . S
C923 H916 0.950 . S
C923 C920 1.387 . S
C924 C925 1.387 . S
C924 H928 0.950 . S
C924 C933 1.390 . S
C925 C924 1.387 . S
C925 C927 1.387 . S
H926 C933 0.950 . S
C927 C925 1.387 . S
C927 C929 1.390 . S
C927 H931 0.950 . S
H928 C924 0.950 . S
C929 C927 1.390 . S
C929 C930 1.387 . S
C929 H932 0.950 . S
C930 C929 1.387 . S
C930 C933 1.387 . S
H931 C927 0.950 . S
H932 C929 0.950 . S
C933 C924 1.390 . S
C933 H926 0.950 . S
C933 C930 1.387 . S
C934 C935 1.387 . S
C934 H938 0.950 . S
C934 C943 1.390 1_655 S
C935 C934 1.387 . S
C935 C937 1.387 . S
H936 C943 0.950 . S
C937 C935 1.387 . S
C937 C939 1.390 1_655 S
C937 H941 0.950 . S
H938 C934 0.950 . S
C939 C937 1.390 1_455 S
C939 C940 1.387 . S
C939 H942 0.950 . S
C940 C939 1.387 . S
C940 C943 1.387 . S
H941 C937 0.950 . S
H942 C939 0.950 . S
C943 C934 1.390 1_455 S
C943 H936 0.950 . S
C943 C940 1.387 . S
C545 C135 1.458 . S
C550 C33 1.458 . S
C555 C101 1.458 . S
C560 C67 1.458 . S
C565 C169 1.458 . S
C570 C271 1.458 . S
C575 C203 1.458 . S
C580 C237 1.458 . S
C585 C305 1.457 . S
C590 C407 1.457 . S
C595 C339 1.457 . S
C600 C373 1.457 . S
C605 C543 1.458 . S
C610 C441 1.458 . S
C615 C509 1.458 . S
C620 C475 1.458 . S
C625 C5 0.911 . S
C630 C345 0.911 . S
C635 C379 0.912 . S
C640 C39 0.912 . S
C645 C277 0.911 . S
C650 C73 0.911 . S
C655 C311 0.911 . S
C660 C107 0.911 . S
C665 C481 0.912 . S
C670 C141 0.912 . S
C675 C515 0.911 . S
C680 C175 0.911 . S
C685 C413 0.912 . S
C690 C209 0.912 . S
C695 C447 0.911 . S
C700 C243 0.911 . S
C705 C9 1.622 . S
C710 C145 1.622 . S
C715 C43 1.622 . S
C720 C179 1.622 . S
C725 C213 1.622 . S
C730 C77 1.622 . S
C735 C111 1.619 . S
C740 C247 1.619 . S
C745 C281 1.619 . S
C750 C417 1.619 . S
C755 C451 1.622 . S
C760 C315 1.622 . S
C765 C349 1.622 . S
C770 C485 1.622 . S
C775 C519 1.622 . S
C780 C383 1.622 . S
C785 C20 1.425 . S
C790 C54 1.425 . S
C795 C122 1.425 . S
C800 C88 1.425 . S
C805 C190 1.425 . S
C810 C156 1.425 . S
C815 C224 1.425 . S
C820 C258 1.425 . S
C825 C326 1.426 . S
C830 C292 1.426 . S
C835 C394 1.425 . S
C840 C360 1.425 . S
C845 C428 1.425 . S
C850 C462 1.425 . S
C855 C530 1.425 . S
C860 C496 1.425 . S
C865 C2 1.378 . S
C870 C308 1.378 . S
C875 C36 1.379 . S
C880 C274 1.379 . S
C885 C70 1.379 . S
C890 C376 1.379 . S
C895 C104 1.379 . S
C900 C342 1.379 . S
C905 C138 1.379 . S
C910 C444 1.379 . S
C915 C410 1.379 . S
C920 C172 1.379 . S
C925 C206 1.379 . S
C930 C512 1.379 . S
C935 C478 1.379 . S
C940 C240 1.379 . S
