# Generated by pormake.
# Topology unp, (4)-cn, num edge types: 1
# Building blocks:
#     Node 0, Type 0, BuildingBlock: CEKHIL_clean_sbu_0, # of connection points: 4
#     Node 1, Type 0, BuildingBlock: CEKHIL_clean_sbu_0, # of connection points: 4
#     Node 2, Type 0, BuildingBlock: CEKHIL_clean_sbu_0, # of connection points: 4
#     Node 3, Type 0, BuildingBlock: CEKHIL_clean_sbu_0, # of connection points: 4
#     Node 4, Type 0, BuildingBlock: CEKHIL_clean_sbu_0, # of connection points: 4
#     Node 5, Type 0, BuildingBlock: CEKHIL_clean_sbu_0, # of connection points: 4
#     Node 6, Type 0, BuildingBlock: CEKHIL_clean_sbu_0, # of connection points: 4
#     Node 7, Type 0, BuildingBlock: CEKHIL_clean_sbu_0, # of connection points: 4
#     Node 8, Type 0, BuildingBlock: CEKHIL_clean_sbu_0, # of connection points: 4
#     Node 9, Type 0, BuildingBlock: CEKHIL_clean_sbu_0, # of connection points: 4
#     Node 10, Type 0, BuildingBlock: CEKHIL_clean_sbu_0, # of connection points: 4
#     Node 11, Type 0, BuildingBlock: CEKHIL_clean_sbu_0, # of connection points: 4
#     Node 12, Type 0, BuildingBlock: CEKHIL_clean_sbu_0, # of connection points: 4
#     Node 13, Type 0, BuildingBlock: CEKHIL_clean_sbu_0, # of connection points: 4
#     Node 14, Type 0, BuildingBlock: CEKHIL_clean_sbu_0, # of connection points: 4
#     Node 15, Type 0, BuildingBlock: CEKHIL_clean_sbu_0, # of connection points: 4
#     Node 16, Type 0, BuildingBlock: CEKHIL_clean_sbu_0, # of connection points: 4
#     Node 17, Type 0, BuildingBlock: CEKHIL_clean_sbu_0, # of connection points: 4
#     Edge 18, Type (0, 0), BuildingBlock: EZIPEK_clean_linker_0, # of connection points: 2
#     Edge 19, Type (0, 0), BuildingBlock: EZIPEK_clean_linker_0, # of connection points: 2
#     Edge 20, Type (0, 0), BuildingBlock: EZIPEK_clean_linker_0, # of connection points: 2
#     Edge 21, Type (0, 0), BuildingBlock: EZIPEK_clean_linker_0, # of connection points: 2
#     Edge 22, Type (0, 0), BuildingBlock: EZIPEK_clean_linker_0, # of connection points: 2
#     Edge 23, Type (0, 0), BuildingBlock: EZIPEK_clean_linker_0, # of connection points: 2
#     Edge 24, Type (0, 0), BuildingBlock: EZIPEK_clean_linker_0, # of connection points: 2
#     Edge 25, Type (0, 0), BuildingBlock: EZIPEK_clean_linker_0, # of connection points: 2
#     Edge 26, Type (0, 0), BuildingBlock: EZIPEK_clean_linker_0, # of connection points: 2
#     Edge 27, Type (0, 0), BuildingBlock: EZIPEK_clean_linker_0, # of connection points: 2
#     Edge 28, Type (0, 0), BuildingBlock: EZIPEK_clean_linker_0, # of connection points: 2
#     Edge 29, Type (0, 0), BuildingBlock: EZIPEK_clean_linker_0, # of connection points: 2
#     Edge 30, Type (0, 0), BuildingBlock: EZIPEK_clean_linker_0, # of connection points: 2
#     Edge 31, Type (0, 0), BuildingBlock: EZIPEK_clean_linker_0, # of connection points: 2
#     Edge 32, Type (0, 0), BuildingBlock: EZIPEK_clean_linker_0, # of connection points: 2
#     Edge 33, Type (0, 0), BuildingBlock: EZIPEK_clean_linker_0, # of connection points: 2
#     Edge 34, Type (0, 0), BuildingBlock: EZIPEK_clean_linker_0, # of connection points: 2
#     Edge 35, Type (0, 0), BuildingBlock: EZIPEK_clean_linker_0, # of connection points: 2
#     Edge 36, Type (0, 0), BuildingBlock: EZIPEK_clean_linker_0, # of connection points: 2
#     Edge 37, Type (0, 0), BuildingBlock: EZIPEK_clean_linker_0, # of connection points: 2
#     Edge 38, Type (0, 0), BuildingBlock: EZIPEK_clean_linker_0, # of connection points: 2
#     Edge 39, Type (0, 0), BuildingBlock: EZIPEK_clean_linker_0, # of connection points: 2
#     Edge 40, Type (0, 0), BuildingBlock: EZIPEK_clean_linker_0, # of connection points: 2
#     Edge 41, Type (0, 0), BuildingBlock: EZIPEK_clean_linker_0, # of connection points: 2
#     Edge 42, Type (0, 0), BuildingBlock: EZIPEK_clean_linker_0, # of connection points: 2
#     Edge 43, Type (0, 0), BuildingBlock: EZIPEK_clean_linker_0, # of connection points: 2
#     Edge 44, Type (0, 0), BuildingBlock: EZIPEK_clean_linker_0, # of connection points: 2
#     Edge 45, Type (0, 0), BuildingBlock: EZIPEK_clean_linker_0, # of connection points: 2
#     Edge 46, Type (0, 0), BuildingBlock: EZIPEK_clean_linker_0, # of connection points: 2
#     Edge 47, Type (0, 0), BuildingBlock: EZIPEK_clean_linker_0, # of connection points: 2
#     Edge 48, Type (0, 0), BuildingBlock: EZIPEK_clean_linker_0, # of connection points: 2
#     Edge 49, Type (0, 0), BuildingBlock: EZIPEK_clean_linker_0, # of connection points: 2
#     Edge 50, Type (0, 0), BuildingBlock: EZIPEK_clean_linker_0, # of connection points: 2
#     Edge 51, Type (0, 0), BuildingBlock: EZIPEK_clean_linker_0, # of connection points: 2
#     Edge 52, Type (0, 0), BuildingBlock: EZIPEK_clean_linker_0, # of connection points: 2
#     Edge 53, Type (0, 0), BuildingBlock: EZIPEK_clean_linker_0, # of connection points: 2
# Relax obj value: 0.419
# Max RMSD: 0.188
# Mean RMSD: 0.188
data_MOF--net-unp--node1-CEKHIL_clean_sbu_0--edge1-EZIPEK_clean_linker_0
_symmetry_space_group_name_H-M    P1
_symmetry_Int_Tables_number       1
_symmetry_cell_setting            triclinic
loop_
_symmetry_equiv_pos_as_xyz
'x, y, z'
_cell_length_a     35.584783
_cell_length_b     35.598558
_cell_length_c     39.295029
_cell_angle_alpha  89.96219
_cell_angle_beta   90.096482
_cell_angle_gamma 120.05972
loop_
_atom_site_label
_atom_site_type_symbol
_atom_site_fract_x
_atom_site_fract_y
_atom_site_fract_z
_atom_type_partial_charge
Co0 Co 0.16047 0.14908 0.13496 0.0
O1 O 0.21288 0.14696 0.12757 0.0
O2 O 0.20445 0.18759 0.16623 0.0
C3 C 0.11358 0.0761 0.13396 0.0
O4 O 0.11207 0.15885 0.15228 0.0
Co5 Co 0.08963 0.11966 0.08102 0.0
O6 O 0.05911 0.13756 0.1134 0.0
C7 C 0.17415 0.19365 0.06767 0.0
C8 C 0.22974 0.17603 0.15149 0.0
C9 C 0.07464 0.15195 0.14272 0.0
O10 O 0.18188 0.19727 0.09981 0.0
O11 O 0.14076 0.1616 0.05449 0.0
O12 O 0.13466 0.09548 0.16151 0.0
O13 O 0.12389 0.10084 0.10735 0.0
Co14 Co 0.84846 0.0319 0.14876 0.0
O15 O 0.82281 0.0678 0.14622 0.0
O16 O 0.79016 0.00041 0.16652 0.0
C17 C 0.91215 0.08402 0.17007 0.0
O18 O 0.86478 0.98543 0.15711 0.0
Co19 Co 0.93121 0.05216 0.10833 0.0
O20 O 0.92883 0.00258 0.13329 0.0
C21 C 0.84726 0.01936 0.07271 0.0
C22 C 0.7889 0.03559 0.16012 0.0
C23 C 0.89585 0.97772 0.15129 0.0
O24 O 0.82686 0.00998 0.10126 0.0
O25 O 0.88872 0.03985 0.07044 0.0
O26 O 0.87951 0.06195 0.19036 0.0
O27 O 0.90457 0.07559 0.13808 0.0
Co28 Co 0.93885 0.79815 0.1434 0.0
O29 O 0.90426 0.73919 0.15718 0.0
O30 O 0.97652 0.77655 0.15805 0.0
C31 C 0.90118 0.82463 0.17082 0.0
O32 O 0.98459 0.86035 0.13197 0.0
Co33 Co 0.89593 0.83838 0.0985 0.0
O34 O 0.94727 0.8926 0.11481 0.0
C35 C 0.92704 0.78429 0.06626 0.0
C36 C 0.94055 0.74027 0.16338 0.0
C37 C 0.98229 0.89442 0.12481 0.0
O38 O 0.94078 0.77929 0.09523 0.0
O39 O 0.90596 0.80448 0.06264 0.0
O40 O 0.92962 0.81871 0.18706 0.0
O41 O 0.89267 0.80874 0.14042 0.0
Co42 Co 0.15254 0.18855 0.86877 0.0
O43 O 0.16992 0.2484 0.86362 0.0
O44 O 0.2081 0.21805 0.84615 0.0
C45 C 0.08293 0.1616 0.85179 0.0
O46 O 0.14376 0.12749 0.86869 0.0
Co47 Co 0.08036 0.1317 0.92101 0.0
O48 O 0.08203 0.08344 0.89712 0.0
C49 C 0.16696 0.19913 0.9445 0.0
C50 C 0.2047 0.25258 0.84945 0.0
C51 C 0.11339 0.08963 0.87784 0.0
O52 O 0.18244 0.20237 0.91446 0.0
O53 O 0.12652 0.176 0.95151 0.0
O54 O 0.11357 0.17271 0.82939 0.0
O55 O 0.09626 0.17091 0.8828 0.0
Co56 Co 0.81403 0.96578 0.8613 0.0
O57 O 0.75222 0.93044 0.85954 0.0
O58 O 0.78964 -0.00046 0.84335 0.0
C59 C 0.82697 0.91513 0.83858 0.0
O60 O 0.87789 0.01214 0.85803 0.0
Co61 Co 0.87129 0.93895 0.90303 0.0
O62 O 0.92056 0.98745 0.87872 0.0
C63 C 0.82085 0.97323 0.93803 0.0
C64 C 0.7524 0.96411 0.84671 0.0
C65 C 0.91537 0.01603 0.86335 0.0
O66 O 0.81028 0.98333 0.90952 0.0
O67 O 0.84153 0.95248 0.94032 0.0
O68 O 0.81921 0.93974 0.81879 0.0
O69 O 0.82433 0.92052 0.87071 0.0
Co70 Co 0.01679 0.84447 0.86689 0.0
O71 O 0.06089 0.82925 0.87323 0.0
O72 O 0.00171 0.79276 0.84128 0.0
C73 C 0.0635 0.91592 0.858 0.0
O74 O 0.96521 0.85083 0.85277 0.0
Co75 Co 0.00921 0.91023 0.91456 0.0
O76 O 0.96823 0.90822 0.87942 0.0
C77 C 0.98256 0.8214 0.9385 0.0
C78 C 0.03811 0.7973 0.85257 0.0
C79 C 0.9519 0.87798 0.85735 0.0
O80 O 0.98502 0.80904 0.90822 0.0
O81 O 0.99435 0.86067 0.94639 0.0
O82 O 0.0534 0.88839 0.83317 0.0
O83 O 0.04748 0.89901 0.88717 0.0
Co84 Co 0.84428 0.45676 0.47276 0.0
O85 O 0.90576 0.48391 0.46687 0.0
O86 O 0.86995 0.51862 0.4788 0.0
C87 C 0.83864 0.40297 0.50676 0.0
O88 O 0.78176 0.4401 0.48181 0.0
Co89 Co 0.78224 0.36111 0.45015 0.0
O90 O 0.73619 0.36903 0.47193 0.0
C91 C 0.82193 0.43103 0.39915 0.0
C92 C 0.90674 0.51997 0.47399 0.0
C93 C 0.74369 0.40633 0.48164 0.0
O94 O 0.83513 0.46066 0.42232 0.0
O95 O 0.8073 0.39081 0.40572 0.0
O96 O 0.84951 0.44061 0.51981 0.0
O97 O 0.83455 0.40052 0.4742 0.0
Co98 Co 0.50888 0.34788 0.47431 0.0
O99 O 0.49648 0.39416 0.47143 0.0
O100 O 0.45443 0.33061 0.49673 0.0
C101 C 0.57937 0.39024 0.48886 0.0
O102 O 0.51237 0.29324 0.48363 0.0
Co103 Co 0.57776 0.3463 0.42639 0.0
O104 O 0.57221 0.30031 0.45798 0.0
C105 C 0.49486 0.33402 0.39946 0.0
C106 C 0.46117 0.36873 0.48793 0.0
C107 C 0.54034 0.28101 0.47839 0.0
O108 O 0.47819 0.32536 0.42943 0.0
O109 O 0.5349 0.34703 0.39357 0.0
O110 O 0.54944 0.37681 0.51214 0.0
O111 O 0.56516 0.37985 0.4582 0.0
Co112 Co 0.64459 0.1544 0.4823 0.0
O113 O 0.60651 0.09506 0.46955 0.0
O114 O 0.66809 0.1194 0.49854 0.0
C115 C 0.59086 0.1658 0.50047 0.0
O116 O 0.69181 0.21127 0.5019 0.0
Co117 Co 0.63896 0.23251 0.45237 0.0
O118 O 0.68468 0.268 0.48616 0.0
C119 C 0.67529 0.18786 0.41161 0.0
C120 C 0.6332 0.08677 0.48608 0.0
C121 C 0.70414 0.25182 0.50252 0.0
O122 O 0.67708 0.16669 0.43765 0.0
O123 O 0.6567 0.21076 0.41202 0.0
O124 O 0.60595 0.14756 0.52075 0.0
O125 O 0.60712 0.17456 0.47044 0.0
Co126 Co 0.79979 0.49654 0.18982 0.0
O127 O 0.82059 0.55569 0.20309 0.0
O128 O 0.86039 0.53178 0.17812 0.0
C129 C 0.73727 0.48652 0.16661 0.0
O130 O 0.7901 0.43926 0.17094 0.0
Co131 Co 0.71291 0.42063 0.21765 0.0
O132 O 0.7267 0.38312 0.18889 0.0
C133 C 0.78909 0.4655 0.26167 0.0
C134 C 0.85744 0.5644 0.18971 0.0
C135 C 0.76229 0.39848 0.17248 0.0
O136 O 0.81451 0.48152 0.23584 0.0
O137 O 0.74815 0.45073 0.25926 0.0
O138 O 0.77276 0.50514 0.1487 0.0
O139 O 0.74155 0.47748 0.19745 0.0
Co140 Co 0.48344 0.29452 0.19924 0.0
O141 O 0.42757 0.2437 0.20622 0.0
O142 O 0.44053 0.29862 0.17214 0.0
C143 C 0.52028 0.25846 0.19338 0.0
O144 O 0.53679 0.35128 0.18414 0.0
Co145 Co 0.5613 0.31813 0.2487 0.0
O146 O 0.59566 0.35853 0.21179 0.0
C147 C 0.48453 0.32349 0.27059 0.0
C148 C 0.41277 0.26108 0.18491 0.0
C149 C 0.57817 0.36972 0.18862 0.0
O150 O 0.472 0.32239 0.23966 0.0
O151 O 0.51651 0.31851 0.27903 0.0
O152 O 0.49973 0.26251 0.16752 0.0
O153 O 0.51531 0.27395 0.22145 0.0
Co154 Co 0.72029 0.19483 0.20095 0.0
O155 O 0.7515 0.16412 0.19926 0.0
O156 O 0.67974 0.13388 0.19436 0.0
C157 C 0.76404 0.2501 0.1658 0.0
O158 O 0.6769 0.21531 0.19993 0.0
Co159 Co 0.76324 0.28895 0.22951 0.0
O160 O 0.70805 0.28585 0.21441 0.0
C161 C 0.73979 0.21657 0.27491 0.0
C162 C 0.71393 0.12965 0.19426 0.0
C163 C 0.67575 0.2504 0.2039 0.0
O164 O 0.71473 0.18926 0.25225 0.0
O165 O 0.77048 0.2544 0.2669 0.0
O166 O 0.73471 0.21313 0.15309 0.0
O167 O 0.7685 0.2501 0.19828 0.0
Co168 Co 0.52125 0.81367 0.80062 0.0
O169 O 0.58304 0.84345 0.7953 0.0
O170 O 0.54501 0.87413 0.81201 0.0
C171 C 0.51629 0.75603 0.82901 0.0
O172 O 0.45826 0.79407 0.81038 0.0
Co173 Co 0.46138 0.72114 0.77077 0.0
O174 O 0.4136 0.72509 0.79381 0.0
C175 C 0.50179 0.79721 0.72606 0.0
C176 C 0.58259 0.87757 0.8064 0.0
C177 C 0.42037 0.76043 0.80748 0.0
O178 O 0.51209 0.82368 0.75134 0.0
O179 O 0.49133 0.75738 0.72968 0.0
O180 O 0.52636 0.79157 0.84541 0.0
O181 O 0.51293 0.75803 0.7966 0.0
Co182 Co 0.19011 0.7069 0.79695 0.0
O183 O 0.17365 0.75044 0.79867 0.0
O184 O 0.13346 0.68255 0.81724 0.0
C185 C 0.25865 0.74952 0.81617 0.0
O186 O 0.19673 0.65359 0.80127 0.0
Co187 Co 0.2659 0.71723 0.75092 0.0
O188 O 0.26148 0.6692 0.77956 0.0
C189 C 0.18228 0.69852 0.72044 0.0
C190 C 0.13808 0.72082 0.81278 0.0
C191 C 0.22753 0.64518 0.79692 0.0
O192 O 0.16386 0.68979 0.74985 0.0
O193 O 0.22298 0.71346 0.71613 0.0
O194 O 0.22668 0.73111 0.83766 0.0
O195 O 0.24741 0.74399 0.78462 0.0
Co196 Co 0.32063 0.49999 0.80706 0.0
O197 O 0.27599 0.44091 0.80019 0.0
O198 O 0.33769 0.46221 0.82839 0.0
C199 C 0.27438 0.52348 0.82074 0.0
O200 O 0.37363 0.55726 0.821 0.0
Co201 Co 0.32559 0.57662 0.76507 0.0
O202 O 0.3701 0.61373 0.79892 0.0
C203 C 0.34303 0.51131 0.73349 0.0
C204 C 0.30064 0.43078 0.81767 0.0
C205 C 0.38761 0.59816 0.81831 0.0
O206 O 0.34787 0.498 0.76273 0.0
O207 O 0.33032 0.53889 0.72948 0.0
O208 O 0.28649 0.50574 0.84405 0.0
O209 O 0.28902 0.52459 0.79069 0.0
Co210 Co 0.46862 0.84837 0.51682 0.0
O211 O 0.49715 0.90993 0.52275 0.0
O212 O 0.52873 0.87343 0.50406 0.0
C213 C 0.40918 0.8418 0.49036 0.0
O214 O 0.45051 0.78599 0.50617 0.0
Co215 Co 0.37792 0.78589 0.54826 0.0
O216 O 0.38262 0.73937 0.52384 0.0
C217 C 0.45591 0.82789 0.59167 0.0
C218 C 0.53152 0.91038 0.51112 0.0
C219 C 0.41786 0.74753 0.5092 0.0
O220 O 0.48132 0.83996 0.56561 0.0
O221 O 0.415 0.81342 0.58947 0.0
O222 O 0.4443 0.85297 0.47296 0.0
O223 O 0.41252 0.83826 0.52261 0.0
Co224 Co 0.15279 0.64533 0.51365 0.0
O225 O 0.09359 0.60045 0.51953 0.0
O226 O 0.11522 0.66205 0.49123 0.0
C227 C 0.17738 0.59961 0.50056 0.0
O228 O 0.21016 0.69855 0.50046 0.0
Co229 Co 0.22881 0.65064 0.55694 0.0
O230 O 0.26637 0.69506 0.52323 0.0
C231 C 0.16351 0.66895 0.58746 0.0
C232 C 0.0837 0.62485 0.50148 0.0
C233 C 0.25102 0.71253 0.50357 0.0
O234 O 0.14967 0.67244 0.55796 0.0
O235 O 0.19141 0.65674 0.592 0.0
O236 O 0.15984 0.61157 0.47697 0.0
O237 O 0.17749 0.61395 0.53057 0.0
Co238 Co 0.36762 0.52221 0.5226 0.0
O239 O 0.41113 0.50567 0.52283 0.0
O240 O 0.34274 0.46373 0.50572 0.0
C241 C 0.40966 0.5888 0.5001 0.0
O242 O 0.31416 0.52862 0.51743 0.0
Co243 Co 0.37992 0.60188 0.56463 0.0
O244 O 0.32963 0.59423 0.53723 0.0
C245 C 0.36314 0.52123 0.59903 0.0
C246 C 0.381 0.46861 0.51112 0.0
C247 C 0.30521 0.55916 0.52119 0.0
O248 O 0.35198 0.50025 0.57074 0.0
O249 O 0.37895 0.5623 0.60127 0.0
O250 O 0.39071 0.55519 0.48011 0.0
O251 O 0.40508 0.58022 0.53212 0.0
C252 C 0.34309 0.19426 0.16808 0.0
C253 C 0.36601 0.23923 0.17608 0.0
C254 C 0.3011 0.24345 0.16286 0.0
C255 C 0.2766 0.19753 0.1599 0.0
N256 N 0.27315 0.12842 0.16712 0.0
N257 N 0.36288 0.30396 0.18947 0.0
C258 C 0.29722 0.17259 0.1646 0.0
C259 C 0.34395 0.26316 0.17589 0.0
N260 N 0.36502 0.1725 0.16228 0.0
N261 N 0.28455 0.26862 0.15176 0.0
H262 H 0.39325 0.31886 0.20121 0.0
H263 H 0.3462 0.32085 0.19262 0.0
H264 H 0.25442 0.25597 0.13985 0.0
H265 H 0.30298 0.30238 0.15066 0.0
H266 H 0.3499 0.1407 0.15328 0.0
H267 H 0.3988 0.18756 0.16268 0.0
H268 H 0.28658 0.10929 0.17378 0.0
H269 H 0.23931 0.11131 0.16626 0.0
C270 C 0.74135 0.0432 0.20315 0.0
C271 C 0.75135 0.04052 0.16861 0.0
C272 C 0.71597 0.08071 0.15042 0.0
C273 C 0.71187 0.08869 0.18507 0.0
N274 N 0.7034 0.06498 0.24291 0.0
N275 N 0.73505 0.04183 0.10947 0.0
C276 C 0.71847 0.06522 0.21098 0.0
C277 C 0.73362 0.05392 0.14221 0.0
N278 N 0.75661 0.02796 0.22839 0.0
N279 N 0.70582 0.10119 0.12571 0.0
H280 H 0.74784 0.02189 0.10344 0.0
H281 H 0.72046 0.04819 0.08901 0.0
H282 H 0.6912 0.11958 0.13132 0.0
H283 H 0.7127 0.1009 0.10001 0.0
H284 H 0.7549 0.03373 0.25414 0.0
H285 H 0.77238 0.01055 0.22351 0.0
H286 H 0.70463 0.04641 0.2629 0.0
H287 H 0.68555 0.08031 0.24811 0.0
C288 C 0.91252 0.62684 0.15366 0.0
C289 C 0.89279 0.61025 0.18595 0.0
C290 C 0.92271 0.68446 0.20755 0.0
C291 C 0.93916 0.70027 0.17481 0.0
N292 N 0.96444 0.68975 0.12122 0.0
N293 N 0.89041 0.62318 0.24601 0.0
C294 C 0.93959 0.67238 0.14961 0.0
C295 C 0.90196 0.63916 0.21379 0.0
N296 N 0.90223 0.60019 0.12597 0.0
N297 N 0.92483 0.71276 0.23198 0.0
H298 H 0.87463 0.59013 0.25122 0.0
H299 H 0.89954 0.64253 0.26772 0.0
H300 H 0.94201 0.74633 0.22822 0.0
H301 H 0.90862 0.70319 0.25517 0.0
H302 H 0.91167 0.61168 0.10128 0.0
H303 H 0.88138 0.56683 0.12663 0.0
H304 H 0.9692 0.67131 0.10299 0.0
H305 H 0.98398 0.72322 0.11799 0.0
C306 C 0.28067 0.37103 0.85996 0.0
C307 C 0.28595 0.38504 0.82559 0.0
C308 C 0.24619 0.30973 0.80586 0.0
C309 C 0.23997 0.29606 0.84021 0.0
N310 N 0.26281 0.31138 0.89863 0.0
N311 N 0.28553 0.36881 0.766 0.0
C312 C 0.26133 0.32608 0.86681 0.0
C313 C 0.27258 0.35463 0.79852 0.0
N314 N 0.2909 0.39998 0.88605 0.0
N315 N 0.22518 0.28018 0.78054 0.0
H316 H 0.30579 0.40155 0.76013 0.0
H317 H 0.27981 0.3481 0.7455 0.0
H318 H 0.20682 0.24688 0.78514 0.0
H319 H 0.2242 0.28876 0.75535 0.0
H320 H 0.28279 0.39063 0.91132 0.0
H321 H 0.30433 0.43326 0.88245 0.0
H322 H 0.28106 0.33167 0.91854 0.0
H323 H 0.24957 0.27843 0.90394 0.0
C324 C 0.67891 0.94999 0.86079 0.0
C325 C 0.71113 0.96051 0.83579 0.0
C326 C 0.6561 0.93674 0.79113 0.0
C327 C 0.6238 0.9163 0.81632 0.0
N328 N 0.6029 0.90625 0.87556 0.0
N329 N 0.73234 0.96867 0.77683 0.0
C330 C 0.63454 0.9249 0.85135 0.0
C331 C 0.70048 0.95652 0.80072 0.0
N332 N 0.69117 0.9633 0.89358 0.0
N333 N 0.64384 0.93638 0.75815 0.0
H334 H 0.76523 0.98443 0.78312 0.0
H335 H 0.72623 0.96185 0.751 0.0
H336 H 0.6112 0.92275 0.75138 0.0
H337 H 0.66549 0.95299 0.73852 0.0
H338 H 0.66955 0.95972 0.91282 0.0
H339 H 0.7238 0.98178 0.90062 0.0
H340 H 0.60928 0.9066 0.90145 0.0
H341 H 0.56993 0.88886 0.86971 0.0
C342 C 0.09374 0.73125 0.85727 0.0
C343 C 0.10411 0.73078 0.82251 0.0
C344 C 0.06491 0.76812 0.80648 0.0
C345 C 0.05472 0.76892 0.84129 0.0
N346 N 0.04855 0.7413 0.89821 0.0
N347 N 0.08927 0.73638 0.76349 0.0
C348 C 0.06555 0.74708 0.86619 0.0
C349 C 0.08615 0.74509 0.79692 0.0
N350 N 0.11278 0.71915 0.88187 0.0
N351 N 0.05723 0.79177 0.78291 0.0
H352 H 0.10431 0.71906 0.75578 0.0
H353 H 0.07323 0.74233 0.74386 0.0
H354 H 0.04217 0.80965 0.78865 0.0
H355 H 0.06886 0.79649 0.75806 0.0
H356 H 0.11047 0.72375 0.90778 0.0
H357 H 0.13345 0.70712 0.8764 0.0
H358 H 0.05202 0.72224 0.91666 0.0
H359 H 0.02731 0.75215 0.90524 0.0
C360 C 0.96338 0.57158 0.51414 0.0
C361 C 0.94883 0.55939 0.48019 0.0
C362 C 0.02316 0.60028 0.45899 0.0
C363 C 0.03799 0.61005 0.49315 0.0
N364 N 0.02323 0.61748 0.55174 0.0
N365 N 0.96154 0.57296 0.4204 0.0
C366 C 0.00828 0.59993 0.52026 0.0
C367 C 0.97779 0.57768 0.4526 0.0
N368 N 0.93484 0.55384 0.54056 0.0
N369 N 0.05205 0.60974 0.43303 0.0
H370 H 0.92816 0.55727 0.41575 0.0
H371 H 0.98056 0.58816 0.39913 0.0
H372 H 0.08558 0.62644 0.43659 0.0
H373 H 0.04281 0.59883 0.40818 0.0
H374 H 0.94433 0.55695 0.56595 0.0
H375 H 0.90146 0.53421 0.537 0.0
H376 H 0.00302 0.61437 0.57198 0.0
H377 H 0.05608 0.63875 0.55665 0.0
C378 C 0.3937 0.42072 0.47204 0.0
C379 C 0.39031 0.43323 0.50558 0.0
C380 C 0.42467 0.39399 0.52873 0.0
C381 C 0.42977 0.38308 0.49507 0.0
N382 N 0.40865 0.37435 0.4361 0.0
N383 N 0.39022 0.42206 0.56603 0.0
C384 C 0.41062 0.39253 0.46716 0.0
C385 C 0.40167 0.41649 0.53404 0.0
N386 N 0.38329 0.43779 0.44488 0.0
N387 N 0.44404 0.38531 0.55527 0.0
H388 H 0.37278 0.43796 0.57047 0.0
H389 H 0.39417 0.40749 0.58766 0.0
H390 H 0.46037 0.36802 0.55242 0.0
H391 H 0.44606 0.39724 0.57979 0.0
H392 H 0.39007 0.43411 0.41974 0.0
H393 H 0.36999 0.4579 0.44753 0.0
H394 H 0.39198 0.37696 0.41528 0.0
H395 H 0.42026 0.35298 0.43214 0.0
C396 C 0.61012 0.01262 0.4651 0.0
C397 C 0.62146 0.04145 0.49296 0.0
C398 C 0.59204 0.97983 0.53199 0.0
C399 C 0.57097 0.95208 0.50422 0.0
N400 N 0.56132 0.94039 0.44361 0.0
N401 N 0.62389 0.05277 0.55396 0.0
C402 C 0.58119 0.96772 0.47042 0.0
C403 C 0.61377 0.02532 0.52685 0.0
N404 N 0.62723 0.02845 0.43377 0.0
N405 N 0.59079 0.96237 0.56317 0.0
H406 H 0.63977 0.0864 0.55171 0.0
H407 H 0.61402 0.04198 0.57874 0.0
H408 H 0.57616 0.92885 0.56659 0.0
H409 H 0.6082 0.98071 0.58417 0.0
H410 H 0.62268 0.00885 0.41272 0.0
H411 H 0.65009 0.06115 0.43015 0.0
H412 H 0.56353 0.95106 0.41862 0.0
H413 H 0.54088 0.90704 0.4466 0.0
C414 C 0.02547 0.12049 0.19254 0.0
C415 C 0.04442 0.15374 0.16758 0.0
C416 C 0.97748 0.15631 0.16338 0.0
C417 C 0.95631 0.11658 0.1814 0.0
N418 N 0.96113 0.07287 0.22575 0.0
N419 N 0.04543 0.21397 0.13981 0.0
C420 C 0.98082 0.10297 0.20065 0.0
C421 C 0.02276 0.17593 0.15728 0.0
N422 N 0.04901 0.10339 0.20604 0.0
N423 N 0.95334 0.17311 0.15052 0.0
H424 H 0.07873 0.22771 0.13544 0.0
H425 H 0.03242 0.23283 0.13154 0.0
H426 H 0.9203 0.15919 0.15603 0.0
H427 H 0.96556 0.2004 0.135 0.0
H428 H 0.03569 0.07522 0.22062 0.0
H429 H 0.0824 0.11773 0.2025 0.0
H430 H 0.97758 0.06311 0.24218 0.0
H431 H 0.92863 0.06067 0.23213 0.0
C432 C 0.856 0.89615 0.15374 0.0
C433 C 0.89177 0.93663 0.16427 0.0
C434 C 0.92208 0.898 0.19558 0.0
C435 C 0.89054 0.85887 0.1801 0.0
N436 N 0.81809 0.81752 0.1587 0.0
N437 N 0.95869 0.97666 0.19589 0.0
C438 C 0.85422 0.85707 0.16402 0.0
C439 C 0.92454 0.93771 0.18579 0.0
N440 N 0.82603 0.89497 0.13127 0.0
N441 N 0.94791 0.89683 0.22078 0.0
H442 H 0.96032 0.00621 0.19098 0.0
H443 H 0.98648 0.97999 0.20755 0.0
H444 H 0.94292 0.8677 0.23108 0.0
H445 H 0.97003 0.9239 0.23459 0.0
H446 H 0.80226 0.86666 0.1197 0.0
H447 H 0.82693 0.92266 0.1217 0.0
H448 H 0.78871 0.81342 0.14976 0.0
H449 H 0.81651 0.78883 0.1669 0.0
C450 C 0.08504 0.9977 0.1539 0.0
C451 C 0.08194 0.02817 0.13215 0.0
C452 C 0.02631 0.96735 0.09962 0.0
C453 C 0.02168 0.93811 0.1257 0.0
N454 N 0.04413 0.92793 0.18162 0.0
N455 N 0.03478 0.03747 0.09304 0.0
C456 C 0.05042 0.95373 0.15405 0.0
C457 C 0.04895 0.01189 0.10691 0.0
N458 N 0.12125 0.00949 0.17314 0.0
N459 N 0.00761 0.95282 0.06846 0.0
H460 H 0.04162 0.06597 0.10511 0.0
H461 H 0.00942 0.02612 0.07544 0.0
H462 H 0.99203 0.92003 0.06178 0.0
H463 H 0.01221 0.97402 0.04846 0.0
H464 H 0.12547 0.98713 0.18735 0.0
H465 H 0.14924 0.03976 0.17139 0.0
H466 H 0.06191 0.93985 0.20406 0.0
H467 H 0.01888 0.89595 0.18334 0.0
C468 C 0.08374 0.98763 0.82892 0.0
C469 C 0.09087 0.96394 0.8548 0.0
C470 C 0.12727 0.02898 0.89039 0.0
C471 C 0.11501 0.05086 0.86676 0.0
N472 N 0.09608 0.05785 0.80936 0.0
N473 N 0.13568 0.9666 0.90166 0.0
C474 C 0.09815 0.0324 0.83447 0.0
C475 C 0.11823 0.98635 0.88276 0.0
N476 N 0.06196 0.96734 0.79989 0.0
N477 N 0.14598 0.04839 0.92061 0.0
H478 H 0.13066 0.93588 0.89546 0.0
H479 H 0.15846 0.98212 0.92091 0.0
H480 H 0.15511 0.08057 0.92602 0.0
H481 H 0.15086 0.03221 0.94069 0.0
H482 H 0.05022 0.98102 0.78247 0.0
H483 H 0.05528 0.93642 0.79302 0.0
H484 H 0.0871 0.04771 0.78435 0.0
H485 H 0.10734 0.09082 0.81295 0.0
C486 C 0.02098 0.09874 0.82075 0.0
C487 C 0.03573 0.13277 0.84481 0.0
C488 C 0.96608 0.09492 0.87464 0.0
C489 C 0.9546 0.05758 0.85448 0.0
N490 N 0.97058 0.02309 0.80842 0.0
N491 N 0.01604 0.17182 0.88373 0.0
C492 C 0.98166 0.05941 0.82723 0.0
C493 C 0.00602 0.13353 0.86829 0.0
N494 N 0.04286 0.10492 0.79089 0.0
N495 N 0.94051 0.09245 0.90148 0.0
H496 H 0.04444 0.20074 0.87793 0.0
H497 H 0.99468 0.17605 0.89913 0.0
H498 H 0.91127 0.06457 0.90727 0.0
H499 H 0.9495 0.11688 0.91953 0.0
H500 H 0.06877 0.13499 0.78386 0.0
H501 H 0.03192 0.08229 0.77122 0.0
H502 H 0.99148 0.02066 0.79121 0.0
H503 H 0.94125 0.99436 0.81173 0.0
C504 C 0.91556 0.89723 0.81166 0.0
C505 C 0.91215 0.87092 0.83988 0.0
C506 C 0.8371 0.85259 0.84853 0.0
C507 C 0.8452 0.88783 0.82726 0.0
N508 N 0.88021 0.92707 0.77646 0.0
N509 N 0.86775 0.8159 0.88051 0.0
C510 C 0.88055 0.9046 0.80447 0.0
C511 C 0.87169 0.84503 0.85615 0.0
N512 N 0.95285 0.91613 0.79302 0.0
N513 N 0.79665 0.82799 0.86212 0.0
H514 H 0.89257 0.80917 0.88551 0.0
H515 H 0.84062 0.79893 0.89594 0.0
H516 H 0.77145 0.83387 0.85603 0.0
H517 H 0.78721 0.80041 0.87686 0.0
H518 H 0.95964 0.93874 0.77381 0.0
H519 H 0.97707 0.90826 0.79706 0.0
H520 H 0.90458 0.93961 0.75817 0.0
H521 H 0.85314 0.92962 0.77005 0.0
C522 C 0.68184 0.396 0.51906 0.0
C523 C 0.70623 0.41239 0.48863 0.0
C524 C 0.65508 0.43442 0.46863 0.0
C525 C 0.62675 0.41023 0.49541 0.0
N526 N 0.6224 0.38913 0.55401 0.0
N527 N 0.71735 0.44875 0.43445 0.0
C528 C 0.64283 0.39737 0.52327 0.0
C529 C 0.69387 0.43315 0.46378 0.0
N530 N 0.69543 0.37807 0.54332 0.0
N531 N 0.64479 0.4592 0.4484 0.0
H532 H 0.7462 0.44879 0.42982 0.0
H533 H 0.70693 0.45923 0.41362 0.0
H534 H 0.61717 0.46169 0.45284 0.0
H535 H 0.66546 0.48063 0.43002 0.0
H536 H 0.67693 0.361 0.5643 0.0
H537 H 0.72504 0.37902 0.54148 0.0
H538 H 0.63396 0.3822 0.57608 0.0
H539 H 0.59661 0.39449 0.55841 0.0
C540 C 0.5615 0.24749 0.52489 0.0
C541 C 0.53561 0.242 0.4958 0.0
C542 C 0.52564 0.16979 0.48663 0.0
C543 C 0.5598 0.18016 0.50993 0.0
N544 N 0.59771 0.21858 0.56012 0.0
N545 N 0.48534 0.19556 0.45322 0.0
C546 C 0.57325 0.21554 0.5324 0.0
C547 C 0.51417 0.2017 0.4786 0.0
N548 N 0.57631 0.28429 0.54391 0.0
N549 N 0.50603 0.12995 0.47141 0.0
H550 H 0.47588 0.21838 0.44789 0.0
H551 H 0.47094 0.16846 0.43746 0.0
H552 H 0.51468 0.10675 0.47769 0.0
H553 H 0.47989 0.11884 0.45473 0.0
H554 H 0.59823 0.29282 0.56393 0.0
H555 H 0.56557 0.30629 0.5395 0.0
H556 H 0.60789 0.24277 0.57848 0.0
H557 H 0.60522 0.1945 0.56593 0.0
C558 C 0.82418 0.32879 0.50963 0.0
C559 C 0.82121 0.36212 0.5263 0.0
C560 C 0.74804 0.31024 0.54485 0.0
C561 C 0.74637 0.28221 0.5185 0.0
N562 N 0.78499 0.26053 0.47964 0.0
N563 N 0.79109 0.38034 0.57334 0.0
C564 C 0.78547 0.28921 0.50299 0.0
C565 C 0.78672 0.35116 0.549 0.0
N566 N 0.86364 0.33718 0.49782 0.0
N567 N 0.7124 0.2978 0.56479 0.0
H568 H 0.82042 0.40927 0.57669 0.0
H569 H 0.76723 0.37522 0.59098 0.0
H570 H 0.68488 0.26719 0.56224 0.0
H571 H 0.71061 0.31644 0.58439 0.0
H572 H 0.8914 0.36735 0.50201 0.0
H573 H 0.86929 0.31383 0.48689 0.0
H574 H 0.81156 0.26681 0.46461 0.0
H575 H 0.75756 0.23082 0.47423 0.0
C576 C 0.8145 0.32856 0.16498 0.0
C577 C 0.78012 0.29264 0.14861 0.0
C578 C 0.74716 0.33608 0.13366 0.0
C579 C 0.77436 0.36732 0.15827 0.0
N580 N 0.83673 0.39487 0.19611 0.0
N581 N 0.73109 0.27087 0.10163 0.0
C582 C 0.81006 0.36508 0.17257 0.0
C583 C 0.75201 0.29927 0.12753 0.0
N584 N 0.84987 0.32593 0.17485 0.0
N585 N 0.71574 0.34076 0.1176 0.0
H586 H 0.7117 0.27473 0.08374 0.0
H587 H 0.73669 0.24527 0.09662 0.0
H588 H 0.71263 0.36807 0.12115 0.0
H589 H 0.69241 0.31752 0.10154 0.0
H590 H 0.87799 0.35191 0.18489 0.0
H591 H 0.852 0.29826 0.16963 0.0
H592 H 0.85976 0.39163 0.21016 0.0
H593 H 0.83439 0.42167 0.20351 0.0
C594 C 0.67368 0.43459 0.13276 0.0
C595 C 0.69305 0.47178 0.15357 0.0
C596 C 0.62317 0.44932 0.1807 0.0
C597 C 0.60813 0.40723 0.16747 0.0
N598 N 0.6134 0.36094 0.12573 0.0
N599 N 0.68504 0.52232 0.18837 0.0
C600 C 0.63117 0.40062 0.14098 0.0
C601 C 0.6667 0.48212 0.17386 0.0
N602 N 0.69658 0.43174 0.10612 0.0
N603 N 0.59655 0.45652 0.20131 0.0
H604 H 0.71694 0.54612 0.18273 0.0
H605 H 0.66917 0.53239 0.20503 0.0
H606 H 0.56457 0.43232 0.20608 0.0
H607 H 0.60499 0.48629 0.21229 0.0
H608 H 0.68352 0.40674 0.08831 0.0
H609 H 0.72774 0.45696 0.10039 0.0
H610 H 0.63004 0.35202 0.10882 0.0
H611 H 0.58149 0.33675 0.1307 0.0
C612 C 0.5643 0.23275 0.22347 0.0
C613 C 0.55266 0.24354 0.19192 0.0
C614 C 0.61654 0.24597 0.16624 0.0
C615 C 0.63328 0.24753 0.19936 0.0
N616 N 0.62257 0.2414 0.26023 0.0
N617 N 0.56448 0.25275 0.13099 0.0
C618 C 0.60699 0.24059 0.22824 0.0
C619 C 0.57756 0.24758 0.16244 0.0
N620 N 0.53377 0.21331 0.24838 0.0
N621 N 0.63678 0.24092 0.13861 0.0
H622 H 0.53318 0.24623 0.12567 0.0
H623 H 0.5849 0.2632 0.10988 0.0
H624 H 0.66421 0.2378 0.14087 0.0
H625 H 0.62414 0.23544 0.11403 0.0
H626 H 0.53949 0.20165 0.27098 0.0
H627 H 0.5012 0.20393 0.24439 0.0
H628 H 0.60609 0.24112 0.28221 0.0
H629 H 0.65325 0.2454 0.26486 0.0
C630 C 0.33589 0.79533 0.80083 0.0
C631 C 0.30521 0.76708 0.82479 0.0
C632 C 0.35542 0.74351 0.84381 0.0
C633 C 0.38262 0.76556 0.81563 0.0
N634 N 0.39908 0.81275 0.76676 0.0
N635 N 0.29605 0.73455 0.87984 0.0
C636 C 0.37364 0.7926 0.7945 0.0
C637 C 0.31796 0.74719 0.84977 0.0
N638 N 0.32849 0.82489 0.78447 0.0
N639 N 0.3645 0.71787 0.86398 0.0
H640 H 0.2711 0.74076 0.88566 0.0
H641 H 0.30584 0.72295 0.90035 0.0
H642 H 0.39234 0.71564 0.86072 0.0
H643 H 0.34338 0.69707 0.88247 0.0
H644 H 0.35095 0.8492 0.76863 0.0
H645 H 0.30124 0.82767 0.78989 0.0
H646 H 0.3912 0.82857 0.74824 0.0
H647 H 0.42672 0.81114 0.76063 0.0
C648 C 0.25559 0.57523 0.8498 0.0
C649 C 0.24538 0.54167 0.82593 0.0
C650 C 0.20692 0.56756 0.79002 0.0
C651 C 0.223 0.60468 0.81096 0.0
N652 N 0.24567 0.63549 0.86659 0.0
N653 N 0.19603 0.495 0.78298 0.0
C654 C 0.24168 0.60566 0.84299 0.0
C655 C 0.21532 0.53403 0.79944 0.0
N656 N 0.28001 0.57919 0.87778 0.0
N657 N 0.18584 0.56559 0.76041 0.0
H658 H 0.20182 0.47009 0.79022 0.0
H659 H 0.1717 0.48599 0.76479 0.0
H660 H 0.17784 0.58914 0.75375 0.0
H661 H 0.17766 0.54166 0.74204 0.0
H662 H 0.29316 0.60603 0.89386 0.0
H663 H 0.28739 0.55539 0.88475 0.0
H664 H 0.25651 0.63658 0.89138 0.0
H665 H 0.23361 0.65639 0.86203 0.0
C666 C 0.50492 0.68246 0.82574 0.0
C667 C 0.49888 0.71262 0.84477 0.0
C668 C 0.42743 0.65499 0.86244 0.0
C669 C 0.42867 0.62953 0.83523 0.0
N670 N 0.47042 0.61366 0.79559 0.0
N671 N 0.4646 0.7242 0.89278 0.0
C672 C 0.46854 0.64091 0.81911 0.0
C673 C 0.46357 0.69751 0.86748 0.0
N674 N 0.54496 0.69531 0.81247 0.0
N675 N 0.39124 0.63856 0.88231 0.0
H676 H 0.49238 0.75404 0.89754 0.0
H677 H 0.43966 0.7161 0.91013 0.0
H678 H 0.36601 0.60664 0.87933 0.0
H679 H 0.38678 0.65521 0.90216 0.0
H680 H 0.55293 0.67482 0.79946 0.0
H681 H 0.57113 0.72637 0.81723 0.0
H682 H 0.49724 0.6219 0.78024 0.0
H683 H 0.44435 0.5826 0.79101 0.0
C684 C 0.45415 0.70375 0.51871 0.0
C685 C 0.42419 0.71088 0.4997 0.0
C686 C 0.40419 0.64551 0.46597 0.0
C687 C 0.42713 0.63453 0.48939 0.0
N688 N 0.48879 0.66022 0.52604 0.0
N689 N 0.37204 0.69017 0.4541 0.0
C690 C 0.45743 0.66648 0.51159 0.0
C691 C 0.40007 0.68258 0.47255 0.0
N692 N 0.47643 0.73018 0.5455 0.0
N693 N 0.38869 0.62198 0.43679 0.0
H694 H 0.36934 0.71767 0.45784 0.0
H695 H 0.35001 0.66826 0.43656 0.0
H696 H 0.39449 0.5968 0.43079 0.0
H697 H 0.3747 0.6304 0.4171 0.0
H698 H 0.49476 0.72363 0.56261 0.0
H699 H 0.47428 0.75727 0.55247 0.0
H700 H 0.51444 0.6835 0.54049 0.0
H701 H 0.49119 0.63281 0.52039 0.0
C702 C 0.3072 0.75205 0.45896 0.0
C703 C 0.28251 0.75346 0.48667 0.0
C704 C 0.33555 0.82982 0.4956 0.0
C705 C 0.36512 0.82386 0.47569 0.0
N706 N 0.37524 0.78932 0.42715 0.0
N707 N 0.26765 0.79534 0.52694 0.0
C708 C 0.3494 0.78832 0.45313 0.0
C709 C 0.29428 0.7934 0.50286 0.0
N710 N 0.2904 0.71557 0.43934 0.0
N711 N 0.34872 0.86988 0.50898 0.0
H712 H 0.23678 0.76922 0.53197 0.0
H713 H 0.27621 0.82224 0.5423 0.0
H714 H 0.37954 0.89612 0.50369 0.0
H715 H 0.32864 0.87782 0.52266 0.0
H716 H 0.3066 0.71094 0.41923 0.0
H717 H 0.25869 0.69018 0.44286 0.0
H718 H 0.3666 0.76434 0.40972 0.0
H719 H 0.40485 0.81712 0.4219 0.0
C720 C 0.22765 0.53719 0.53105 0.0
C721 C 0.26331 0.55281 0.5086 0.0
C722 C 0.22981 0.58205 0.47042 0.0
C723 C 0.19761 0.57225 0.49553 0.0
N724 N 0.1546 0.52395 0.54037 0.0
N725 N 0.28972 0.57259 0.45163 0.0
C726 C 0.19265 0.54378 0.5226 0.0
C727 C 0.26147 0.56947 0.47635 0.0
N728 N 0.2284 0.51821 0.56107 0.0
N729 N 0.2313 0.60464 0.44194 0.0
H730 H 0.31129 0.56121 0.45561 0.0
H731 H 0.28872 0.58182 0.42667 0.0
H732 H 0.20648 0.61067 0.43534 0.0
H733 H 0.25722 0.61763 0.42497 0.0
H734 H 0.20571 0.51071 0.58037 0.0
H735 H 0.25298 0.51144 0.56711 0.0
H736 H 0.14756 0.50056 0.55902 0.0
H737 H 0.12841 0.52805 0.53378 0.0
C738 C 0.19068 0.25212 0.0278 0.0
C739 C 0.20478 0.22571 0.04337 0.0
C740 C 0.22121 0.20629 0.98831 0.0
C741 C 0.19616 0.22269 0.97324 0.0
N742 N 0.17333 0.27561 0.97471 0.0
N743 N 0.25259 0.19713 0.04079 0.0
C744 C 0.18732 0.25149 0.99175 0.0
C745 C 0.22803 0.2108 0.02408 0.0
N746 N 0.17607 0.27325 0.04796 0.0
N747 N 0.23474 0.1834 0.9691 0.0
H748 H 0.25564 0.19946 0.06728 0.0
H749 H 0.27183 0.18684 0.02863 0.0
H750 H 0.23071 0.18077 0.94275 0.0
H751 H 0.24946 0.1669 0.97915 0.0
H752 H 0.16182 0.29064 0.03883 0.0
H753 H 0.17851 0.2727 0.07445 0.0
H754 H 0.16695 0.2981 0.98629 0.0
H755 H 0.17099 0.27472 0.94817 0.0
C756 C 0.82999 0.03009 0.98053 0.0
C757 C 0.80963 0.98585 0.97077 0.0
C758 C 0.79714 0.96309 0.03046 0.0
C759 C 0.82291 0.00724 0.04011 0.0
N760 N 0.84851 0.08199 0.02666 0.0
N761 N 0.75948 0.91159 0.98474 0.0
C762 C 0.83389 0.04051 0.01575 0.0
C763 C 0.788 0.95281 0.99537 0.0
N764 N 0.84818 0.06198 0.9565 0.0
N765 N 0.78405 0.93107 0.05431 0.0
H766 H 0.75248 0.90405 0.95898 0.0
H767 H 0.73999 0.88627 0.00115 0.0
H768 H 0.78793 0.93741 0.0803 0.0
H769 H 0.77032 0.89829 0.04837 0.0
H770 H 0.86867 0.09462 0.96225 0.0
H771 H 0.84361 0.05565 0.93051 0.0
H772 H 0.85411 0.1075 0.01054 0.0
H773 H 0.85095 0.08975 0.05251 0.0
C774 C 0.9973 0.79475 0.99198 0.0
C775 C 0.96685 0.78997 0.96684 0.0
C776 C 0.90809 0.75388 0.00791 0.0
C777 C 0.93938 0.77056 0.03436 0.0
N778 N 0.01359 0.79638 0.05206 0.0
N779 N 0.89298 0.75656 0.94783 0.0
C780 C 0.98392 0.78648 0.02659 0.0
C781 C 0.9219 0.76567 0.9737 0.0
N782 N 0.03901 0.80818 0.98236 0.0
N783 N 0.86535 0.72811 0.01613 0.0
H784 H 0.90301 0.7629 0.92252 0.0
H785 H 0.85971 0.74319 0.95129 0.0
H786 H 0.85554 0.71927 0.04133 0.0
H787 H 0.84055 0.71288 0.9983 0.0
H788 H 0.06292 0.80999 0.99868 0.0
H789 H 0.04852 0.81403 0.95687 0.0
H790 H 0.04702 0.81404 0.04845 0.0
H791 H 0.00491 0.78621 0.07705 0.0
C792 C 0.77444 0.41695 0.31123 0.0
C793 C 0.80415 0.45599 0.2945 0.0
C794 C 0.85133 0.47572 0.34509 0.0
C795 C 0.81675 0.44153 0.36347 0.0
N796 N 0.74035 0.38678 0.36478 0.0
N797 N 0.87283 0.52344 0.29615 0.0
C798 C 0.77681 0.41418 0.34677 0.0
C799 C 0.84341 0.48571 0.31148 0.0
N800 N 0.74446 0.38196 0.29302 0.0
N801 N 0.89197 0.49722 0.35897 0.0
H802 H 0.87045 0.53016 0.27082 0.0
H803 H 0.89886 0.54864 0.30903 0.0
H804 H 0.89904 0.48949 0.38284 0.0
H805 H 0.91932 0.51967 0.34556 0.0
H806 H 0.7232 0.35221 0.30424 0.0
H807 H 0.74458 0.38119 0.26646 0.0
H808 H 0.70993 0.36884 0.35334 0.0
H809 H 0.73926 0.38601 0.3913 0.0
C810 C 0.47878 0.36842 0.31536 0.0
C811 C 0.46031 0.32762 0.29926 0.0
C812 C 0.44142 0.29056 0.35407 0.0
C813 C 0.46823 0.33123 0.36969 0.0
N814 N 0.49721 0.40825 0.36888 0.0
N815 N 0.40864 0.25177 0.30132 0.0
C816 C 0.48098 0.37009 0.35146 0.0
C817 C 0.43528 0.28933 0.31825 0.0
N818 N 0.49768 0.405 0.29583 0.0
N819 N 0.4253 0.25352 0.37297 0.0
H820 H 0.40527 0.25148 0.27488 0.0
H821 H 0.3879 0.22247 0.31329 0.0
H822 H 0.42894 0.25429 0.39936 0.0
H823 H 0.40906 0.22241 0.36267 0.0
H824 H 0.51567 0.4363 0.30554 0.0
H825 H 0.49535 0.40319 0.2693 0.0
H826 H 0.50576 0.43789 0.35752 0.0
H827 H 0.49883 0.40915 0.39544 0.0
C828 C 0.69129 0.15702 0.35874 0.0
C829 C 0.70059 0.1925 0.38039 0.0
C830 C 0.73396 0.24251 0.33336 0.0
C831 C 0.72854 0.20791 0.31181 0.0
N832 N 0.7136 0.1339 0.30841 0.0
N833 N 0.74582 0.26914 0.39103 0.0
C834 C 0.71087 0.16553 0.32586 0.0
C835 C 0.72786 0.23524 0.36864 0.0
N836 N 0.66223 0.11571 0.36854 0.0
N837 N 0.74 0.2808 0.32042 0.0
H838 H 0.74178 0.2646 0.41731 0.0
H839 H 0.76824 0.30071 0.38351 0.0
H840 H 0.73659 0.28567 0.29473 0.0
H841 H 0.74148 0.30531 0.33587 0.0
H842 H 0.65137 0.08912 0.3523 0.0
H843 H 0.6465 0.10881 0.39198 0.0
H844 H 0.70371 0.10332 0.31866 0.0
H845 H 0.73049 0.14014 0.28553 0.0
C846 C 0.44628 0.78144 0.64169 0.0
C847 C 0.47149 0.82191 0.6252 0.0
C848 C 0.52093 0.84709 0.67435 0.0
C849 C 0.49163 0.80879 0.69228 0.0
N850 N 0.41811 0.74789 0.69575 0.0
N851 N 0.52868 0.89666 0.6288 0.0
C852 C 0.45174 0.77849 0.6768 0.0
C853 C 0.50789 0.85589 0.64228 0.0
N854 N 0.41782 0.74529 0.6238 0.0
N855 N 0.56131 0.87415 0.6872 0.0
H856 H 0.51845 0.90427 0.60627 0.0
H857 H 0.55314 0.9234 0.6416 0.0
H858 H 0.57205 0.86769 0.70997 0.0
H859 H 0.58518 0.90055 0.67373 0.0
H860 H 0.40131 0.71454 0.63488 0.0
H861 H 0.41482 0.74504 0.59738 0.0
H862 H 0.38747 0.7274 0.68541 0.0
H863 H 0.41904 0.74679 0.72225 0.0
C864 C 0.12269 0.64238 0.6409 0.0
C865 C 0.14655 0.67789 0.6188 0.0
C866 C 0.16936 0.72736 0.6672 0.0
C867 C 0.15652 0.69129 0.68904 0.0
N868 N 0.11515 0.61409 0.69827 0.0
N869 N 0.1863 0.75473 0.60922 0.0
C870 C 0.13 0.64857 0.67655 0.0
C871 C 0.16677 0.72079 0.6314 0.0
N872 N 0.09489 0.60268 0.62725 0.0
N873 N 0.18549 0.7677 0.68106 0.0
H874 H 0.18324 0.7501 0.58291 0.0
H875 H 0.20594 0.78689 0.61668 0.0
H876 H 0.18725 0.77236 0.7074 0.0
H877 H 0.19343 0.79542 0.66692 0.0
H878 H 0.07431 0.57552 0.64166 0.0
H879 H 0.08998 0.59838 0.60098 0.0
H880 H 0.1 0.5819 0.69029 0.0
H881 H 0.11909 0.6179 0.72456 0.0
C882 C 0.31623 0.47264 0.64575 0.0
C883 C 0.35806 0.4981 0.63141 0.0
C884 C 0.39164 0.51225 0.68773 0.0
C885 C 0.34967 0.49302 0.70201 0.0
N886 N 0.27381 0.44117 0.69714 0.0
N887 N 0.43491 0.52706 0.63635 0.0
C888 C 0.31256 0.46782 0.68166 0.0
C889 C 0.39564 0.51225 0.65178 0.0
N890 N 0.28025 0.45649 0.62546 0.0
N891 N 0.42713 0.53325 0.70836 0.0
H892 H 0.43769 0.52689 0.60989 0.0
H893 H 0.46356 0.53576 0.64947 0.0
H894 H 0.42442 0.53221 0.73483 0.0
H895 H 0.45872 0.55223 0.69943 0.0
H896 H 0.24867 0.44213 0.63476 0.0
H897 H 0.28214 0.45854 0.599 0.0
H898 H 0.24568 0.41965 0.68407 0.0
H899 H 0.27122 0.43817 0.72361 0.0
loop_
_geom_bond_atom_site_label_1
_geom_bond_atom_site_label_2
_geom_bond_distance
_geom_bond_site_symmetry_2
_ccdc_geom_bond_type
Co0 O1 2.216 . S
Co0 O2 2.091 . S
Co0 O4 2.004 . S
Co0 O10 2.021 . S
Co0 O12 2.137 . S
Co0 O13 2.244 . S
O1 Co0 2.216 . S
O1 C8 1.247 . S
O2 Co0 2.091 . S
O2 C8 1.261 . S
C3 O12 1.247 . S
C3 O13 1.272 . S
O4 Co0 2.004 . S
O4 C9 1.259 . S
Co5 O6 2.061 . S
Co5 O11 2.052 . S
Co5 O13 2.135 . S
O6 Co5 2.061 . S
O6 C9 1.235 . S
C7 O10 1.238 . S
C7 O11 1.241 . S
C8 O1 1.247 . S
C8 O2 1.261 . S
C9 O4 1.259 . S
C9 O6 1.235 . S
O10 Co0 2.021 . S
O10 C7 1.238 . S
O11 Co5 2.052 . S
O11 C7 1.241 . S
O12 Co0 2.137 . S
O12 C3 1.247 . S
O13 Co0 2.244 . S
O13 C3 1.272 . S
O13 Co5 2.135 . S
Co14 O15 2.216 . S
Co14 O16 2.091 1_545 S
Co14 O18 2.004 1_545 S
Co14 O24 2.021 1_545 S
Co14 O26 2.137 . S
Co14 O27 2.244 . S
O15 Co14 2.216 . S
O15 C22 1.247 . S
O16 Co14 2.091 1_565 S
O16 C22 1.261 1_565 S
C17 O26 1.247 . S
C17 O27 1.272 . S
O18 Co14 2.004 1_565 S
O18 C23 1.259 . S
Co19 O20 2.049 1_545 S
Co19 O25 2.065 1_545 S
Co19 O27 2.148 . S
O20 Co19 2.049 1_565 S
O20 C23 1.235 . S
C21 O24 1.238 . S
C21 O25 1.240 . S
C22 O15 1.247 . S
C22 O16 1.261 1_545 S
C23 O18 1.259 . S
C23 O20 1.235 . S
O24 Co14 2.021 1_565 S
O24 C21 1.238 . S
O25 Co19 2.065 1_565 S
O25 C21 1.240 . S
O26 Co14 2.137 . S
O26 C17 1.247 . S
O27 Co14 2.244 . S
O27 C17 1.272 . S
O27 Co19 2.148 . S
Co28 O29 2.216 . S
Co28 O30 2.091 1_655 S
Co28 O32 2.004 1_655 S
Co28 O38 2.021 1_655 S
Co28 O40 2.137 . S
Co28 O41 2.244 . S
O29 Co28 2.216 . S
O29 C36 1.247 . S
O30 Co28 2.091 1_455 S
O30 C36 1.261 1_455 S
C31 O40 1.247 . S
C31 O41 1.272 . S
O32 Co28 2.004 1_455 S
O32 C37 1.259 . S
Co33 O34 2.061 1_655 S
Co33 O39 2.060 . S
Co33 O41 2.135 . S
O34 Co33 2.061 1_455 S
O34 C37 1.235 . S
C35 O38 1.238 . S
C35 O39 1.228 1_455 S
C36 O29 1.247 . S
C36 O30 1.261 1_655 S
C37 O32 1.259 . S
C37 O34 1.235 . S
O38 Co28 2.021 1_455 S
O38 C35 1.238 . S
O39 Co33 2.060 . S
O39 C35 1.228 1_655 S
O40 Co28 2.137 . S
O40 C31 1.247 . S
O41 Co28 2.244 . S
O41 C31 1.272 . S
O41 Co33 2.135 . S
Co42 O43 2.216 . S
Co42 O44 2.091 . S
Co42 O46 2.004 . S
Co42 O52 2.021 . S
Co42 O54 2.137 . S
Co42 O55 2.244 . S
O43 Co42 2.216 . S
O43 C50 1.247 . S
O44 Co42 2.091 . S
O44 C50 1.261 . S
C45 O54 1.247 . S
C45 O55 1.272 . S
O46 Co42 2.004 . S
O46 C51 1.259 . S
Co47 O48 2.061 . S
Co47 O53 2.052 . S
Co47 O55 2.135 . S
O48 Co47 2.061 . S
O48 C51 1.235 . S
C49 O52 1.238 . S
C49 O53 1.241 . S
C50 O43 1.247 . S
C50 O44 1.261 . S
C51 O46 1.259 . S
C51 O48 1.235 . S
O52 Co42 2.021 . S
O52 C49 1.238 . S
O53 Co47 2.052 . S
O53 C49 1.241 . S
O54 Co42 2.137 . S
O54 C45 1.247 . S
O55 Co42 2.244 . S
O55 C45 1.272 . S
O55 Co47 2.135 . S
Co56 O57 2.216 . S
Co56 O58 2.091 1_565 S
Co56 O60 2.004 1_565 S
Co56 O66 2.021 1_565 S
Co56 O68 2.137 . S
Co56 O69 2.244 . S
O57 Co56 2.216 . S
O57 C64 1.247 . S
O58 Co56 2.091 1_545 S
O58 C64 1.261 1_545 S
C59 O68 1.247 . S
C59 O69 1.272 . S
O60 Co56 2.004 1_545 S
O60 C65 1.259 . S
Co61 O62 2.061 1_565 S
Co61 O67 2.060 . S
Co61 O69 2.135 . S
O62 Co61 2.061 1_545 S
O62 C65 1.235 . S
C63 O66 1.238 . S
C63 O67 1.228 1_545 S
C64 O57 1.247 . S
C64 O58 1.261 1_565 S
C65 O60 1.259 . S
C65 O62 1.235 . S
O66 Co56 2.021 1_545 S
O66 C63 1.238 . S
O67 Co61 2.060 . S
O67 C63 1.228 1_565 S
O68 Co56 2.137 . S
O68 C59 1.247 . S
O69 Co56 2.244 . S
O69 C59 1.272 . S
O69 Co61 2.135 . S
Co70 O71 2.216 . S
Co70 O72 2.091 1_455 S
Co70 O74 2.004 1_455 S
Co70 O80 2.021 1_455 S
Co70 O82 2.137 . S
Co70 O83 2.244 . S
O71 Co70 2.216 . S
O71 C78 1.247 . S
O72 Co70 2.091 1_655 S
O72 C78 1.261 1_655 S
C73 O82 1.247 . S
C73 O83 1.272 . S
O74 Co70 2.004 1_655 S
O74 C79 1.259 . S
Co75 O76 2.049 1_455 S
Co75 O81 2.065 1_455 S
Co75 O83 2.148 . S
O76 Co75 2.049 1_655 S
O76 C79 1.235 . S
C77 O80 1.238 . S
C77 O81 1.240 . S
C78 O71 1.247 . S
C78 O72 1.261 1_455 S
C79 O74 1.259 . S
C79 O76 1.235 . S
O80 Co70 2.021 1_655 S
O80 C77 1.238 . S
O81 Co75 2.065 1_655 S
O81 C77 1.240 . S
O82 Co70 2.137 . S
O82 C73 1.247 . S
O83 Co70 2.244 . S
O83 C73 1.272 . S
O83 Co75 2.148 . S
Co84 O85 2.216 . S
Co84 O86 2.091 . S
Co84 O88 2.004 . S
Co84 O94 2.021 . S
Co84 O96 2.137 . S
Co84 O97 2.244 . S
O85 Co84 2.216 . S
O85 C92 1.247 . S
O86 Co84 2.091 . S
O86 C92 1.261 . S
C87 O96 1.247 . S
C87 O97 1.272 . S
O88 Co84 2.004 . S
O88 C93 1.259 . S
Co89 O90 2.061 . S
Co89 O95 2.052 . S
Co89 O97 2.135 . S
O90 Co89 2.061 . S
O90 C93 1.235 . S
C91 O94 1.238 . S
C91 O95 1.241 . S
C92 O85 1.247 . S
C92 O86 1.261 . S
C93 O88 1.259 . S
C93 O90 1.235 . S
O94 Co84 2.021 . S
O94 C91 1.238 . S
O95 Co89 2.052 . S
O95 C91 1.241 . S
O96 Co84 2.137 . S
O96 C87 1.247 . S
O97 Co84 2.244 . S
O97 C87 1.272 . S
O97 Co89 2.135 . S
Co98 O99 2.216 . S
Co98 O100 2.091 . S
Co98 O102 2.004 . S
Co98 O108 2.021 . S
Co98 O110 2.137 . S
Co98 O111 2.244 . S
O99 Co98 2.216 . S
O99 C106 1.247 . S
O100 Co98 2.091 . S
O100 C106 1.261 . S
C101 O110 1.247 . S
C101 O111 1.272 . S
O102 Co98 2.004 . S
O102 C107 1.259 . S
Co103 O104 2.061 . S
Co103 O109 2.052 . S
Co103 O111 2.135 . S
O104 Co103 2.061 . S
O104 C107 1.235 . S
C105 O108 1.238 . S
C105 O109 1.241 . S
C106 O99 1.247 . S
C106 O100 1.261 . S
C107 O102 1.259 . S
C107 O104 1.235 . S
O108 Co98 2.021 . S
O108 C105 1.238 . S
O109 Co103 2.052 . S
O109 C105 1.241 . S
O110 Co98 2.137 . S
O110 C101 1.247 . S
O111 Co98 2.244 . S
O111 C101 1.272 . S
O111 Co103 2.135 . S
Co112 O113 2.216 . S
Co112 O114 2.091 . S
Co112 O116 2.004 . S
Co112 O122 2.021 . S
Co112 O124 2.137 . S
Co112 O125 2.244 . S
O113 Co112 2.216 . S
O113 C120 1.247 . S
O114 Co112 2.091 . S
O114 C120 1.261 . S
C115 O124 1.247 . S
C115 O125 1.272 . S
O116 Co112 2.004 . S
O116 C121 1.259 . S
Co117 O118 2.061 . S
Co117 O123 2.052 . S
Co117 O125 2.135 . S
O118 Co117 2.061 . S
O118 C121 1.235 . S
C119 O122 1.238 . S
C119 O123 1.241 . S
C120 O113 1.247 . S
C120 O114 1.261 . S
C121 O116 1.259 . S
C121 O118 1.235 . S
O122 Co112 2.021 . S
O122 C119 1.238 . S
O123 Co117 2.052 . S
O123 C119 1.241 . S
O124 Co112 2.137 . S
O124 C115 1.247 . S
O125 Co112 2.244 . S
O125 C115 1.272 . S
O125 Co117 2.135 . S
Co126 O127 2.216 . S
Co126 O128 2.091 . S
Co126 O130 2.004 . S
Co126 O136 2.021 . S
Co126 O138 2.137 . S
Co126 O139 2.244 . S
O127 Co126 2.216 . S
O127 C134 1.247 . S
O128 Co126 2.091 . S
O128 C134 1.261 . S
C129 O138 1.247 . S
C129 O139 1.272 . S
O130 Co126 2.004 . S
O130 C135 1.259 . S
Co131 O132 2.061 . S
Co131 O137 2.052 . S
Co131 O139 2.135 . S
O132 Co131 2.061 . S
O132 C135 1.235 . S
C133 O136 1.238 . S
C133 O137 1.241 . S
C134 O127 1.247 . S
C134 O128 1.261 . S
C135 O130 1.259 . S
C135 O132 1.235 . S
O136 Co126 2.021 . S
O136 C133 1.238 . S
O137 Co131 2.052 . S
O137 C133 1.241 . S
O138 Co126 2.137 . S
O138 C129 1.247 . S
O139 Co126 2.244 . S
O139 C129 1.272 . S
O139 Co131 2.135 . S
Co140 O141 2.216 . S
Co140 O142 2.091 . S
Co140 O144 2.004 . S
Co140 O150 2.021 . S
Co140 O152 2.137 . S
Co140 O153 2.244 . S
O141 Co140 2.216 . S
O141 C148 1.247 . S
O142 Co140 2.091 . S
O142 C148 1.261 . S
C143 O152 1.247 . S
C143 O153 1.272 . S
O144 Co140 2.004 . S
O144 C149 1.259 . S
Co145 O146 2.061 . S
Co145 O151 2.052 . S
Co145 O153 2.135 . S
O146 Co145 2.061 . S
O146 C149 1.235 . S
C147 O150 1.238 . S
C147 O151 1.241 . S
C148 O141 1.247 . S
C148 O142 1.261 . S
C149 O144 1.259 . S
C149 O146 1.235 . S
O150 Co140 2.021 . S
O150 C147 1.238 . S
O151 Co145 2.052 . S
O151 C147 1.241 . S
O152 Co140 2.137 . S
O152 C143 1.247 . S
O153 Co140 2.244 . S
O153 C143 1.272 . S
O153 Co145 2.135 . S
Co154 O155 2.216 . S
Co154 O156 2.091 . S
Co154 O158 2.004 . S
Co154 O164 2.021 . S
Co154 O166 2.137 . S
Co154 O167 2.244 . S
O155 Co154 2.216 . S
O155 C162 1.247 . S
O156 Co154 2.091 . S
O156 C162 1.261 . S
C157 O166 1.247 . S
C157 O167 1.272 . S
O158 Co154 2.004 . S
O158 C163 1.259 . S
Co159 O160 2.061 . S
Co159 O165 2.052 . S
Co159 O167 2.135 . S
O160 Co159 2.061 . S
O160 C163 1.235 . S
C161 O164 1.238 . S
C161 O165 1.241 . S
C162 O155 1.247 . S
C162 O156 1.261 . S
C163 O158 1.259 . S
C163 O160 1.235 . S
O164 Co154 2.021 . S
O164 C161 1.238 . S
O165 Co159 2.052 . S
O165 C161 1.241 . S
O166 Co154 2.137 . S
O166 C157 1.247 . S
O167 Co154 2.244 . S
O167 C157 1.272 . S
O167 Co159 2.135 . S
Co168 O169 2.216 . S
Co168 O170 2.091 . S
Co168 O172 2.004 . S
Co168 O178 2.021 . S
Co168 O180 2.137 . S
Co168 O181 2.244 . S
O169 Co168 2.216 . S
O169 C176 1.247 . S
O170 Co168 2.091 . S
O170 C176 1.261 . S
C171 O180 1.247 . S
C171 O181 1.272 . S
O172 Co168 2.004 . S
O172 C177 1.259 . S
Co173 O174 2.061 . S
Co173 O179 2.052 . S
Co173 O181 2.135 . S
O174 Co173 2.061 . S
O174 C177 1.235 . S
C175 O178 1.238 . S
C175 O179 1.241 . S
C176 O169 1.247 . S
C176 O170 1.261 . S
C177 O172 1.259 . S
C177 O174 1.235 . S
O178 Co168 2.021 . S
O178 C175 1.238 . S
O179 Co173 2.052 . S
O179 C175 1.241 . S
O180 Co168 2.137 . S
O180 C171 1.247 . S
O181 Co168 2.244 . S
O181 C171 1.272 . S
O181 Co173 2.135 . S
Co182 O183 2.216 . S
Co182 O184 2.091 . S
Co182 O186 2.004 . S
Co182 O192 2.021 . S
Co182 O194 2.137 . S
Co182 O195 2.244 . S
O183 Co182 2.216 . S
O183 C190 1.247 . S
O184 Co182 2.091 . S
O184 C190 1.261 . S
C185 O194 1.247 . S
C185 O195 1.272 . S
O186 Co182 2.004 . S
O186 C191 1.259 . S
Co187 O188 2.061 . S
Co187 O193 2.052 . S
Co187 O195 2.135 . S
O188 Co187 2.061 . S
O188 C191 1.235 . S
C189 O192 1.238 . S
C189 O193 1.241 . S
C190 O183 1.247 . S
C190 O184 1.261 . S
C191 O186 1.259 . S
C191 O188 1.235 . S
O192 Co182 2.021 . S
O192 C189 1.238 . S
O193 Co187 2.052 . S
O193 C189 1.241 . S
O194 Co182 2.137 . S
O194 C185 1.247 . S
O195 Co182 2.244 . S
O195 C185 1.272 . S
O195 Co187 2.135 . S
Co196 O197 2.216 . S
Co196 O198 2.091 . S
Co196 O200 2.004 . S
Co196 O206 2.021 . S
Co196 O208 2.137 . S
Co196 O209 2.244 . S
O197 Co196 2.216 . S
O197 C204 1.247 . S
O198 Co196 2.091 . S
O198 C204 1.261 . S
C199 O208 1.247 . S
C199 O209 1.272 . S
O200 Co196 2.004 . S
O200 C205 1.259 . S
Co201 O202 2.061 . S
Co201 O207 2.052 . S
Co201 O209 2.135 . S
O202 Co201 2.061 . S
O202 C205 1.235 . S
C203 O206 1.238 . S
C203 O207 1.241 . S
C204 O197 1.247 . S
C204 O198 1.261 . S
C205 O200 1.259 . S
C205 O202 1.235 . S
O206 Co196 2.021 . S
O206 C203 1.238 . S
O207 Co201 2.052 . S
O207 C203 1.241 . S
O208 Co196 2.137 . S
O208 C199 1.247 . S
O209 Co196 2.244 . S
O209 C199 1.272 . S
O209 Co201 2.135 . S
Co210 O211 2.216 . S
Co210 O212 2.091 . S
Co210 O214 2.004 . S
Co210 O220 2.021 . S
Co210 O222 2.137 . S
Co210 O223 2.244 . S
O211 Co210 2.216 . S
O211 C218 1.247 . S
O212 Co210 2.091 . S
O212 C218 1.261 . S
C213 O222 1.247 . S
C213 O223 1.272 . S
O214 Co210 2.004 . S
O214 C219 1.259 . S
Co215 O216 2.061 . S
Co215 O221 2.052 . S
Co215 O223 2.135 . S
O216 Co215 2.061 . S
O216 C219 1.235 . S
C217 O220 1.238 . S
C217 O221 1.241 . S
C218 O211 1.247 . S
C218 O212 1.261 . S
C219 O214 1.259 . S
C219 O216 1.235 . S
O220 Co210 2.021 . S
O220 C217 1.238 . S
O221 Co215 2.052 . S
O221 C217 1.241 . S
O222 Co210 2.137 . S
O222 C213 1.247 . S
O223 Co210 2.244 . S
O223 C213 1.272 . S
O223 Co215 2.135 . S
Co224 O225 2.216 . S
Co224 O226 2.091 . S
Co224 O228 2.004 . S
Co224 O234 2.021 . S
Co224 O236 2.137 . S
Co224 O237 2.244 . S
O225 Co224 2.216 . S
O225 C232 1.247 . S
O226 Co224 2.091 . S
O226 C232 1.261 . S
C227 O236 1.247 . S
C227 O237 1.272 . S
O228 Co224 2.004 . S
O228 C233 1.259 . S
Co229 O230 2.061 . S
Co229 O235 2.052 . S
Co229 O237 2.135 . S
O230 Co229 2.061 . S
O230 C233 1.235 . S
C231 O234 1.238 . S
C231 O235 1.241 . S
C232 O225 1.247 . S
C232 O226 1.261 . S
C233 O228 1.259 . S
C233 O230 1.235 . S
O234 Co224 2.021 . S
O234 C231 1.238 . S
O235 Co229 2.052 . S
O235 C231 1.241 . S
O236 Co224 2.137 . S
O236 C227 1.247 . S
O237 Co224 2.244 . S
O237 C227 1.272 . S
O237 Co229 2.135 . S
Co238 O239 2.216 . S
Co238 O240 2.091 . S
Co238 O242 2.004 . S
Co238 O248 2.021 . S
Co238 O250 2.137 . S
Co238 O251 2.244 . S
O239 Co238 2.216 . S
O239 C246 1.247 . S
O240 Co238 2.091 . S
O240 C246 1.261 . S
C241 O250 1.247 . S
C241 O251 1.272 . S
O242 Co238 2.004 . S
O242 C247 1.259 . S
Co243 O244 2.061 . S
Co243 O249 2.052 . S
Co243 O251 2.135 . S
O244 Co243 2.061 . S
O244 C247 1.235 . S
C245 O248 1.238 . S
C245 O249 1.241 . S
C246 O239 1.247 . S
C246 O240 1.261 . S
C247 O242 1.259 . S
C247 O244 1.235 . S
O248 Co238 2.021 . S
O248 C245 1.238 . S
O249 Co243 2.052 . S
O249 C245 1.241 . S
O250 Co238 2.137 . S
O250 C241 1.247 . S
O251 Co238 2.244 . S
O251 C241 1.272 . S
O251 Co243 2.135 . S
C252 C253 1.363 . S
C252 C258 1.379 . S
C252 N260 1.356 . S
C253 C252 1.363 . S
C253 C259 1.363 . S
C254 C255 1.363 . S
C254 C259 1.379 . S
C254 N261 1.356 . S
C255 C254 1.363 . S
C255 C258 1.363 . S
N256 C258 1.356 . S
N256 H268 0.984 . S
N256 H269 0.985 . S
N257 C259 1.356 . S
N257 H262 0.984 . S
N257 H263 0.985 . S
C258 C252 1.379 . S
C258 C255 1.363 . S
C258 N256 1.356 . S
C259 C253 1.363 . S
C259 C254 1.379 . S
C259 N257 1.356 . S
N260 C252 1.356 . S
N260 H266 0.984 . S
N260 H267 0.984 . S
N261 C254 1.356 . S
N261 H264 0.984 . S
N261 H265 0.985 . S
H262 N257 0.984 . S
H263 N257 0.985 . S
H264 N261 0.984 . S
H265 N261 0.985 . S
H266 N260 0.984 . S
H267 N260 0.984 . S
H268 N256 0.984 . S
H269 N256 0.985 . S
C270 C271 1.363 . S
C270 C276 1.379 . S
C270 N278 1.356 . S
C271 C270 1.363 . S
C271 C277 1.363 . S
C272 C273 1.363 . S
C272 C277 1.379 . S
C272 N279 1.356 . S
C273 C272 1.363 . S
C273 C276 1.363 . S
N274 C276 1.356 . S
N274 H286 0.984 . S
N274 H287 0.985 . S
N275 C277 1.356 . S
N275 H280 0.984 . S
N275 H281 0.985 . S
C276 C270 1.379 . S
C276 C273 1.363 . S
C276 N274 1.356 . S
C277 C271 1.363 . S
C277 C272 1.379 . S
C277 N275 1.356 . S
N278 C270 1.356 . S
N278 H284 0.984 1_545 S
N278 H285 0.981 1_545 S
N279 C272 1.356 . S
N279 H282 0.984 . S
N279 H283 0.985 . S
H280 N275 0.984 . S
H281 N275 0.985 . S
H282 N279 0.984 . S
H283 N279 0.985 . S
H284 N278 0.984 1_565 S
H285 N278 0.981 1_565 S
H286 N274 0.984 . S
H287 N274 0.985 . S
C288 C289 1.363 . S
C288 C294 1.379 . S
C288 N296 1.356 . S
C289 C288 1.363 . S
C289 C295 1.363 . S
C290 C291 1.363 . S
C290 C295 1.379 . S
C290 N297 1.356 . S
C291 C290 1.363 . S
C291 C294 1.363 . S
N292 C294 1.356 . S
N292 H304 0.984 1_655 S
N292 H305 0.985 1_655 S
N293 C295 1.356 . S
N293 H298 0.984 . S
N293 H299 0.985 . S
C294 C288 1.379 . S
C294 C291 1.363 . S
C294 N292 1.356 . S
C295 C289 1.363 . S
C295 C290 1.379 . S
C295 N293 1.356 . S
N296 C288 1.356 . S
N296 H302 0.984 . S
N296 H303 0.984 . S
N297 C290 1.356 . S
N297 H300 0.984 . S
N297 H301 0.985 . S
H298 N293 0.984 . S
H299 N293 0.985 . S
H300 N297 0.984 . S
H301 N297 0.985 . S
H302 N296 0.984 . S
H303 N296 0.984 . S
H304 N292 0.984 1_455 S
H305 N292 0.985 1_455 S
C306 C307 1.363 . S
C306 C312 1.379 . S
C306 N314 1.356 . S
C307 C306 1.363 . S
C307 C313 1.363 . S
C308 C309 1.363 . S
C308 C313 1.379 . S
C308 N315 1.356 . S
C309 C308 1.363 . S
C309 C312 1.363 . S
N310 C312 1.356 . S
N310 H322 0.984 . S
N310 H323 0.985 . S
N311 C313 1.356 . S
N311 H316 0.984 . S
N311 H317 0.985 . S
C312 C306 1.379 . S
C312 C309 1.363 . S
C312 N310 1.356 . S
C313 C307 1.363 . S
C313 C308 1.379 . S
C313 N311 1.356 . S
N314 C306 1.356 . S
N314 H320 0.984 . S
N314 H321 0.984 . S
N315 C308 1.356 . S
N315 H318 0.984 . S
N315 H319 0.985 . S
H316 N311 0.984 . S
H317 N311 0.985 . S
H318 N315 0.984 . S
H319 N315 0.985 . S
H320 N314 0.984 . S
H321 N314 0.984 . S
H322 N310 0.984 . S
H323 N310 0.985 . S
C324 C325 1.363 . S
C324 C330 1.379 . S
C324 N332 1.356 . S
C325 C324 1.363 . S
C325 C331 1.363 . S
C326 C327 1.363 . S
C326 C331 1.379 . S
C326 N333 1.356 . S
C327 C326 1.363 . S
C327 C330 1.363 . S
N328 C330 1.356 . S
N328 H340 0.984 . S
N328 H341 0.985 . S
N329 C331 1.356 . S
N329 H334 0.984 . S
N329 H335 0.985 . S
C330 C324 1.379 . S
C330 C327 1.363 . S
C330 N328 1.356 . S
C331 C325 1.363 . S
C331 C326 1.379 . S
C331 N329 1.356 . S
N332 C324 1.356 . S
N332 H338 0.984 . S
N332 H339 0.984 . S
N333 C326 1.356 . S
N333 H336 0.984 . S
N333 H337 0.985 . S
H334 N329 0.984 . S
H335 N329 0.985 . S
H336 N333 0.984 . S
H337 N333 0.985 . S
H338 N332 0.984 . S
H339 N332 0.984 . S
H340 N328 0.984 . S
H341 N328 0.985 . S
C342 C343 1.363 . S
C342 C348 1.379 . S
C342 N350 1.356 . S
C343 C342 1.363 . S
C343 C349 1.363 . S
C344 C345 1.363 . S
C344 C349 1.379 . S
C344 N351 1.356 . S
C345 C344 1.363 . S
C345 C348 1.363 . S
N346 C348 1.356 . S
N346 H358 0.984 . S
N346 H359 0.985 . S
N347 C349 1.356 . S
N347 H352 0.984 . S
N347 H353 0.985 . S
C348 C342 1.379 . S
C348 C345 1.363 . S
C348 N346 1.356 . S
C349 C343 1.363 . S
C349 C344 1.379 . S
C349 N347 1.356 . S
N350 C342 1.356 . S
N350 H356 0.984 . S
N350 H357 0.984 . S
N351 C344 1.356 . S
N351 H354 0.984 . S
N351 H355 0.985 . S
H352 N347 0.984 . S
H353 N347 0.985 . S
H354 N351 0.984 . S
H355 N351 0.985 . S
H356 N350 0.984 . S
H357 N350 0.984 . S
H358 N346 0.984 . S
H359 N346 0.985 . S
C360 C361 1.363 . S
C360 C366 1.379 1_655 S
C360 N368 1.356 . S
C361 C360 1.363 . S
C361 C367 1.363 . S
C362 C363 1.363 . S
C362 C367 1.379 1_455 S
C362 N369 1.356 . S
C363 C362 1.363 . S
C363 C366 1.363 . S
N364 C366 1.356 . S
N364 H376 0.984 . S
N364 H377 0.985 . S
N365 C367 1.356 . S
N365 H370 0.984 . S
N365 H371 0.985 . S
C366 C360 1.379 1_455 S
C366 C363 1.363 . S
C366 N364 1.356 . S
C367 C361 1.363 . S
C367 C362 1.379 1_655 S
C367 N365 1.356 . S
N368 C360 1.356 . S
N368 H374 0.984 . S
N368 H375 0.984 . S
N369 C362 1.356 . S
N369 H372 0.984 . S
N369 H373 0.985 . S
H370 N365 0.984 . S
H371 N365 0.985 . S
H372 N369 0.984 . S
H373 N369 0.985 . S
H374 N368 0.984 . S
H375 N368 0.984 . S
H376 N364 0.984 . S
H377 N364 0.985 . S
C378 C379 1.363 . S
C378 C384 1.379 . S
C378 N386 1.356 . S
C379 C378 1.363 . S
C379 C385 1.363 . S
C380 C381 1.363 . S
C380 C385 1.379 . S
C380 N387 1.356 . S
C381 C380 1.363 . S
C381 C384 1.363 . S
N382 C384 1.356 . S
N382 H394 0.984 . S
N382 H395 0.985 . S
N383 C385 1.356 . S
N383 H388 0.984 . S
N383 H389 0.985 . S
C384 C378 1.379 . S
C384 C381 1.363 . S
C384 N382 1.356 . S
C385 C379 1.363 . S
C385 C380 1.379 . S
C385 N383 1.356 . S
N386 C378 1.356 . S
N386 H392 0.984 . S
N386 H393 0.984 . S
N387 C380 1.356 . S
N387 H390 0.984 . S
N387 H391 0.985 . S
H388 N383 0.984 . S
H389 N383 0.985 . S
H390 N387 0.984 . S
H391 N387 0.985 . S
H392 N386 0.984 . S
H393 N386 0.984 . S
H394 N382 0.984 . S
H395 N382 0.985 . S
C396 C397 1.363 . S
C396 C402 1.379 1_545 S
C396 N404 1.356 . S
C397 C396 1.363 . S
C397 C403 1.363 . S
C398 C399 1.363 . S
C398 C403 1.379 1_565 S
C398 N405 1.356 . S
C399 C398 1.363 . S
C399 C402 1.363 . S
N400 C402 1.356 . S
N400 H412 0.984 . S
N400 H413 0.985 . S
N401 C403 1.356 . S
N401 H406 0.984 . S
N401 H407 0.985 . S
C402 C396 1.379 1_565 S
C402 C399 1.363 . S
C402 N400 1.356 . S
C403 C397 1.363 . S
C403 C398 1.379 1_545 S
C403 N401 1.356 . S
N404 C396 1.356 . S
N404 H410 0.984 . S
N404 H411 0.984 . S
N405 C398 1.356 . S
N405 H408 0.984 . S
N405 H409 0.985 . S
H406 N401 0.984 . S
H407 N401 0.985 . S
H408 N405 0.984 . S
H409 N405 0.985 . S
H410 N404 0.984 . S
H411 N404 0.984 . S
H412 N400 0.984 . S
H413 N400 0.985 . S
C414 C415 1.363 . S
C414 C420 1.379 1_455 S
C414 N422 1.356 . S
C415 C414 1.363 . S
C415 C421 1.363 . S
C416 C417 1.363 . S
C416 C421 1.379 1_655 S
C416 N423 1.356 . S
C417 C416 1.363 . S
C417 C420 1.363 . S
N418 C420 1.356 . S
N418 H430 0.984 . S
N418 H431 0.985 . S
N419 C421 1.356 . S
N419 H424 0.984 . S
N419 H425 0.985 . S
C420 C414 1.379 1_655 S
C420 C417 1.363 . S
C420 N418 1.356 . S
C421 C415 1.363 . S
C421 C416 1.379 1_455 S
C421 N419 1.356 . S
N422 C414 1.356 . S
N422 H428 0.984 . S
N422 H429 0.984 . S
N423 C416 1.356 . S
N423 H426 0.984 . S
N423 H427 0.985 . S
H424 N419 0.984 . S
H425 N419 0.985 . S
H426 N423 0.984 . S
H427 N423 0.985 . S
H428 N422 0.984 . S
H429 N422 0.984 . S
H430 N418 0.984 . S
H431 N418 0.985 . S
C432 C433 1.363 . S
C432 C438 1.379 . S
C432 N440 1.356 . S
C433 C432 1.363 . S
C433 C439 1.363 . S
C434 C435 1.363 . S
C434 C439 1.379 . S
C434 N441 1.356 . S
C435 C434 1.363 . S
C435 C438 1.363 . S
N436 C438 1.356 . S
N436 H448 0.984 . S
N436 H449 0.985 . S
N437 C439 1.356 . S
N437 H442 0.984 . S
N437 H443 0.985 . S
C438 C432 1.379 . S
C438 C435 1.363 . S
C438 N436 1.356 . S
C439 C433 1.363 . S
C439 C434 1.379 . S
C439 N437 1.356 . S
N440 C432 1.356 . S
N440 H446 0.984 . S
N440 H447 0.984 . S
N441 C434 1.356 . S
N441 H444 0.984 . S
N441 H445 0.985 . S
H442 N437 0.984 . S
H443 N437 0.985 . S
H444 N441 0.984 . S
H445 N441 0.985 . S
H446 N440 0.984 . S
H447 N440 0.984 . S
H448 N436 0.984 . S
H449 N436 0.985 . S
C450 C451 1.363 . S
C450 C456 1.379 1_545 S
C450 N458 1.356 . S
C451 C450 1.363 . S
C451 C457 1.363 . S
C452 C453 1.363 . S
C452 C457 1.379 1_565 S
C452 N459 1.356 . S
C453 C452 1.363 . S
C453 C456 1.363 . S
N454 C456 1.356 . S
N454 H466 0.984 . S
N454 H467 0.985 . S
N455 C457 1.356 . S
N455 H460 0.984 . S
N455 H461 0.985 . S
C456 C450 1.379 1_565 S
C456 C453 1.363 . S
C456 N454 1.356 . S
C457 C451 1.363 . S
C457 C452 1.379 1_545 S
C457 N455 1.356 . S
N458 C450 1.356 . S
N458 H464 0.984 . S
N458 H465 0.984 . S
N459 C452 1.356 . S
N459 H462 0.984 . S
N459 H463 0.985 . S
H460 N455 0.984 . S
H461 N455 0.985 . S
H462 N459 0.984 . S
H463 N459 0.985 . S
H464 N458 0.984 . S
H465 N458 0.984 . S
H466 N454 0.984 . S
H467 N454 0.985 . S
C468 C469 1.363 . S
C468 C474 1.379 1_565 S
C468 N476 1.356 . S
C469 C468 1.363 . S
C469 C475 1.363 . S
C470 C471 1.363 . S
C470 C475 1.379 1_545 S
C470 N477 1.356 . S
C471 C470 1.363 . S
C471 C474 1.363 . S
N472 C474 1.356 . S
N472 H484 0.984 . S
N472 H485 0.985 . S
N473 C475 1.356 . S
N473 H478 0.984 . S
N473 H479 0.985 . S
C474 C468 1.379 1_545 S
C474 C471 1.363 . S
C474 N472 1.356 . S
C475 C469 1.363 . S
C475 C470 1.379 1_565 S
C475 N473 1.356 . S
N476 C468 1.356 . S
N476 H482 0.984 . S
N476 H483 0.984 . S
N477 C470 1.356 . S
N477 H480 0.984 . S
N477 H481 0.985 . S
H478 N473 0.984 . S
H479 N473 0.985 . S
H480 N477 0.984 . S
H481 N477 0.985 . S
H482 N476 0.984 . S
H483 N476 0.984 . S
H484 N472 0.984 . S
H485 N472 0.985 . S
C486 C487 1.363 . S
C486 C492 1.379 1_455 S
C486 N494 1.356 . S
C487 C486 1.363 . S
C487 C493 1.363 . S
C488 C489 1.363 . S
C488 C493 1.379 1_655 S
C488 N495 1.356 . S
C489 C488 1.363 . S
C489 C492 1.363 . S
N490 C492 1.356 . S
N490 H502 0.984 . S
N490 H503 0.985 . S
N491 C493 1.356 . S
N491 H496 0.984 . S
N491 H497 0.985 . S
C492 C486 1.379 1_655 S
C492 C489 1.363 . S
C492 N490 1.356 . S
C493 C487 1.363 . S
C493 C488 1.379 1_455 S
C493 N491 1.356 . S
N494 C486 1.356 . S
N494 H500 0.984 . S
N494 H501 0.984 . S
N495 C488 1.356 . S
N495 H498 0.984 . S
N495 H499 0.985 . S
H496 N491 0.984 . S
H497 N491 0.985 . S
H498 N495 0.984 . S
H499 N495 0.985 . S
H500 N494 0.984 . S
H501 N494 0.984 . S
H502 N490 0.984 . S
H503 N490 0.985 . S
C504 C505 1.363 . S
C504 C510 1.379 . S
C504 N512 1.356 . S
C505 C504 1.363 . S
C505 C511 1.363 . S
C506 C507 1.363 . S
C506 C511 1.379 . S
C506 N513 1.356 . S
C507 C506 1.363 . S
C507 C510 1.363 . S
N508 C510 1.356 . S
N508 H520 0.984 . S
N508 H521 0.985 . S
N509 C511 1.356 . S
N509 H514 0.984 . S
N509 H515 0.985 . S
C510 C504 1.379 . S
C510 C507 1.363 . S
C510 N508 1.356 . S
C511 C505 1.363 . S
C511 C506 1.379 . S
C511 N509 1.356 . S
N512 C504 1.356 . S
N512 H518 0.984 . S
N512 H519 0.984 . S
N513 C506 1.356 . S
N513 H516 0.984 . S
N513 H517 0.985 . S
H514 N509 0.984 . S
H515 N509 0.985 . S
H516 N513 0.984 . S
H517 N513 0.985 . S
H518 N512 0.984 . S
H519 N512 0.984 . S
H520 N508 0.984 . S
H521 N508 0.985 . S
C522 C523 1.363 . S
C522 C528 1.379 . S
C522 N530 1.356 . S
C523 C522 1.363 . S
C523 C529 1.363 . S
C524 C525 1.363 . S
C524 C529 1.379 . S
C524 N531 1.356 . S
C525 C524 1.363 . S
C525 C528 1.363 . S
N526 C528 1.356 . S
N526 H538 0.984 . S
N526 H539 0.985 . S
N527 C529 1.356 . S
N527 H532 0.984 . S
N527 H533 0.985 . S
C528 C522 1.379 . S
C528 C525 1.363 . S
C528 N526 1.356 . S
C529 C523 1.363 . S
C529 C524 1.379 . S
C529 N527 1.356 . S
N530 C522 1.356 . S
N530 H536 0.984 . S
N530 H537 0.984 . S
N531 C524 1.356 . S
N531 H534 0.984 . S
N531 H535 0.985 . S
H532 N527 0.984 . S
H533 N527 0.985 . S
H534 N531 0.984 . S
H535 N531 0.985 . S
H536 N530 0.984 . S
H537 N530 0.984 . S
H538 N526 0.984 . S
H539 N526 0.985 . S
C540 C541 1.363 . S
C540 C546 1.379 . S
C540 N548 1.356 . S
C541 C540 1.363 . S
C541 C547 1.363 . S
C542 C543 1.363 . S
C542 C547 1.379 . S
C542 N549 1.356 . S
C543 C542 1.363 . S
C543 C546 1.363 . S
N544 C546 1.356 . S
N544 H556 0.984 . S
N544 H557 0.985 . S
N545 C547 1.356 . S
N545 H550 0.984 . S
N545 H551 0.985 . S
C546 C540 1.379 . S
C546 C543 1.363 . S
C546 N544 1.356 . S
C547 C541 1.363 . S
C547 C542 1.379 . S
C547 N545 1.356 . S
N548 C540 1.356 . S
N548 H554 0.984 . S
N548 H555 0.984 . S
N549 C542 1.356 . S
N549 H552 0.984 . S
N549 H553 0.985 . S
H550 N545 0.984 . S
H551 N545 0.985 . S
H552 N549 0.984 . S
H553 N549 0.985 . S
H554 N548 0.984 . S
H555 N548 0.984 . S
H556 N544 0.984 . S
H557 N544 0.985 . S
C558 C559 1.363 . S
C558 C564 1.379 . S
C558 N566 1.356 . S
C559 C558 1.363 . S
C559 C565 1.363 . S
C560 C561 1.363 . S
C560 C565 1.379 . S
C560 N567 1.356 . S
C561 C560 1.363 . S
C561 C564 1.363 . S
N562 C564 1.356 . S
N562 H574 0.984 . S
N562 H575 0.985 . S
N563 C565 1.356 . S
N563 H568 0.984 . S
N563 H569 0.985 . S
C564 C558 1.379 . S
C564 C561 1.363 . S
C564 N562 1.356 . S
C565 C559 1.363 . S
C565 C560 1.379 . S
C565 N563 1.356 . S
N566 C558 1.356 . S
N566 H572 0.984 . S
N566 H573 0.984 . S
N567 C560 1.356 . S
N567 H570 0.984 . S
N567 H571 0.985 . S
H568 N563 0.984 . S
H569 N563 0.985 . S
H570 N567 0.984 . S
H571 N567 0.985 . S
H572 N566 0.984 . S
H573 N566 0.984 . S
H574 N562 0.984 . S
H575 N562 0.985 . S
C576 C577 1.363 . S
C576 C582 1.379 . S
C576 N584 1.356 . S
C577 C576 1.363 . S
C577 C583 1.363 . S
C578 C579 1.363 . S
C578 C583 1.379 . S
C578 N585 1.356 . S
C579 C578 1.363 . S
C579 C582 1.363 . S
N580 C582 1.356 . S
N580 H592 0.984 . S
N580 H593 0.985 . S
N581 C583 1.356 . S
N581 H586 0.984 . S
N581 H587 0.985 . S
C582 C576 1.379 . S
C582 C579 1.363 . S
C582 N580 1.356 . S
C583 C577 1.363 . S
C583 C578 1.379 . S
C583 N581 1.356 . S
N584 C576 1.356 . S
N584 H590 0.984 . S
N584 H591 0.984 . S
N585 C578 1.356 . S
N585 H588 0.984 . S
N585 H589 0.985 . S
H586 N581 0.984 . S
H587 N581 0.985 . S
H588 N585 0.984 . S
H589 N585 0.985 . S
H590 N584 0.984 . S
H591 N584 0.984 . S
H592 N580 0.984 . S
H593 N580 0.985 . S
C594 C595 1.363 . S
C594 C600 1.379 . S
C594 N602 1.356 . S
C595 C594 1.363 . S
C595 C601 1.363 . S
C596 C597 1.363 . S
C596 C601 1.379 . S
C596 N603 1.356 . S
C597 C596 1.363 . S
C597 C600 1.363 . S
N598 C600 1.356 . S
N598 H610 0.984 . S
N598 H611 0.985 . S
N599 C601 1.356 . S
N599 H604 0.984 . S
N599 H605 0.985 . S
C600 C594 1.379 . S
C600 C597 1.363 . S
C600 N598 1.356 . S
C601 C595 1.363 . S
C601 C596 1.379 . S
C601 N599 1.356 . S
N602 C594 1.356 . S
N602 H608 0.984 . S
N602 H609 0.984 . S
N603 C596 1.356 . S
N603 H606 0.984 . S
N603 H607 0.985 . S
H604 N599 0.984 . S
H605 N599 0.985 . S
H606 N603 0.984 . S
H607 N603 0.985 . S
H608 N602 0.984 . S
H609 N602 0.984 . S
H610 N598 0.984 . S
H611 N598 0.985 . S
C612 C613 1.363 . S
C612 C618 1.379 . S
C612 N620 1.356 . S
C613 C612 1.363 . S
C613 C619 1.363 . S
C614 C615 1.363 . S
C614 C619 1.379 . S
C614 N621 1.356 . S
C615 C614 1.363 . S
C615 C618 1.363 . S
N616 C618 1.356 . S
N616 H628 0.984 . S
N616 H629 0.985 . S
N617 C619 1.356 . S
N617 H622 0.984 . S
N617 H623 0.985 . S
C618 C612 1.379 . S
C618 C615 1.363 . S
C618 N616 1.356 . S
C619 C613 1.363 . S
C619 C614 1.379 . S
C619 N617 1.356 . S
N620 C612 1.356 . S
N620 H626 0.984 . S
N620 H627 0.984 . S
N621 C614 1.356 . S
N621 H624 0.984 . S
N621 H625 0.985 . S
H622 N617 0.984 . S
H623 N617 0.985 . S
H624 N621 0.984 . S
H625 N621 0.985 . S
H626 N620 0.984 . S
H627 N620 0.984 . S
H628 N616 0.984 . S
H629 N616 0.985 . S
C630 C631 1.363 . S
C630 C636 1.379 . S
C630 N638 1.356 . S
C631 C630 1.363 . S
C631 C637 1.363 . S
C632 C633 1.363 . S
C632 C637 1.379 . S
C632 N639 1.356 . S
C633 C632 1.363 . S
C633 C636 1.363 . S
N634 C636 1.356 . S
N634 H646 0.984 . S
N634 H647 0.985 . S
N635 C637 1.356 . S
N635 H640 0.984 . S
N635 H641 0.985 . S
C636 C630 1.379 . S
C636 C633 1.363 . S
C636 N634 1.356 . S
C637 C631 1.363 . S
C637 C632 1.379 . S
C637 N635 1.356 . S
N638 C630 1.356 . S
N638 H644 0.984 . S
N638 H645 0.984 . S
N639 C632 1.356 . S
N639 H642 0.984 . S
N639 H643 0.985 . S
H640 N635 0.984 . S
H641 N635 0.985 . S
H642 N639 0.984 . S
H643 N639 0.985 . S
H644 N638 0.984 . S
H645 N638 0.984 . S
H646 N634 0.984 . S
H647 N634 0.985 . S
C648 C649 1.363 . S
C648 C654 1.379 . S
C648 N656 1.356 . S
C649 C648 1.363 . S
C649 C655 1.363 . S
C650 C651 1.363 . S
C650 C655 1.379 . S
C650 N657 1.356 . S
C651 C650 1.363 . S
C651 C654 1.363 . S
N652 C654 1.356 . S
N652 H664 0.984 . S
N652 H665 0.985 . S
N653 C655 1.356 . S
N653 H658 0.984 . S
N653 H659 0.985 . S
C654 C648 1.379 . S
C654 C651 1.363 . S
C654 N652 1.356 . S
C655 C649 1.363 . S
C655 C650 1.379 . S
C655 N653 1.356 . S
N656 C648 1.356 . S
N656 H662 0.984 . S
N656 H663 0.984 . S
N657 C650 1.356 . S
N657 H660 0.984 . S
N657 H661 0.985 . S
H658 N653 0.984 . S
H659 N653 0.985 . S
H660 N657 0.984 . S
H661 N657 0.985 . S
H662 N656 0.984 . S
H663 N656 0.984 . S
H664 N652 0.984 . S
H665 N652 0.985 . S
C666 C667 1.363 . S
C666 C672 1.379 . S
C666 N674 1.356 . S
C667 C666 1.363 . S
C667 C673 1.363 . S
C668 C669 1.363 . S
C668 C673 1.379 . S
C668 N675 1.356 . S
C669 C668 1.363 . S
C669 C672 1.363 . S
N670 C672 1.356 . S
N670 H682 0.984 . S
N670 H683 0.985 . S
N671 C673 1.356 . S
N671 H676 0.984 . S
N671 H677 0.985 . S
C672 C666 1.379 . S
C672 C669 1.363 . S
C672 N670 1.356 . S
C673 C667 1.363 . S
C673 C668 1.379 . S
C673 N671 1.356 . S
N674 C666 1.356 . S
N674 H680 0.984 . S
N674 H681 0.984 . S
N675 C668 1.356 . S
N675 H678 0.984 . S
N675 H679 0.985 . S
H676 N671 0.984 . S
H677 N671 0.985 . S
H678 N675 0.984 . S
H679 N675 0.985 . S
H680 N674 0.984 . S
H681 N674 0.984 . S
H682 N670 0.984 . S
H683 N670 0.985 . S
C684 C685 1.363 . S
C684 C690 1.379 . S
C684 N692 1.356 . S
C685 C684 1.363 . S
C685 C691 1.363 . S
C686 C687 1.363 . S
C686 C691 1.379 . S
C686 N693 1.356 . S
C687 C686 1.363 . S
C687 C690 1.363 . S
N688 C690 1.356 . S
N688 H700 0.984 . S
N688 H701 0.985 . S
N689 C691 1.356 . S
N689 H694 0.984 . S
N689 H695 0.985 . S
C690 C684 1.379 . S
C690 C687 1.363 . S
C690 N688 1.356 . S
C691 C685 1.363 . S
C691 C686 1.379 . S
C691 N689 1.356 . S
N692 C684 1.356 . S
N692 H698 0.984 . S
N692 H699 0.984 . S
N693 C686 1.356 . S
N693 H696 0.984 . S
N693 H697 0.985 . S
H694 N689 0.984 . S
H695 N689 0.985 . S
H696 N693 0.984 . S
H697 N693 0.985 . S
H698 N692 0.984 . S
H699 N692 0.984 . S
H700 N688 0.984 . S
H701 N688 0.985 . S
C702 C703 1.363 . S
C702 C708 1.379 . S
C702 N710 1.356 . S
C703 C702 1.363 . S
C703 C709 1.363 . S
C704 C705 1.363 . S
C704 C709 1.379 . S
C704 N711 1.356 . S
C705 C704 1.363 . S
C705 C708 1.363 . S
N706 C708 1.356 . S
N706 H718 0.984 . S
N706 H719 0.985 . S
N707 C709 1.356 . S
N707 H712 0.984 . S
N707 H713 0.985 . S
C708 C702 1.379 . S
C708 C705 1.363 . S
C708 N706 1.356 . S
C709 C703 1.363 . S
C709 C704 1.379 . S
C709 N707 1.356 . S
N710 C702 1.356 . S
N710 H716 0.984 . S
N710 H717 0.984 . S
N711 C704 1.356 . S
N711 H714 0.984 . S
N711 H715 0.985 . S
H712 N707 0.984 . S
H713 N707 0.985 . S
H714 N711 0.984 . S
H715 N711 0.985 . S
H716 N710 0.984 . S
H717 N710 0.984 . S
H718 N706 0.984 . S
H719 N706 0.985 . S
C720 C721 1.363 . S
C720 C726 1.379 . S
C720 N728 1.356 . S
C721 C720 1.363 . S
C721 C727 1.363 . S
C722 C723 1.363 . S
C722 C727 1.379 . S
C722 N729 1.356 . S
C723 C722 1.363 . S
C723 C726 1.363 . S
N724 C726 1.356 . S
N724 H736 0.984 . S
N724 H737 0.985 . S
N725 C727 1.356 . S
N725 H730 0.984 . S
N725 H731 0.985 . S
C726 C720 1.379 . S
C726 C723 1.363 . S
C726 N724 1.356 . S
C727 C721 1.363 . S
C727 C722 1.379 . S
C727 N725 1.356 . S
N728 C720 1.356 . S
N728 H734 0.984 . S
N728 H735 0.984 . S
N729 C722 1.356 . S
N729 H732 0.984 . S
N729 H733 0.985 . S
H730 N725 0.984 . S
H731 N725 0.985 . S
H732 N729 0.984 . S
H733 N729 0.985 . S
H734 N728 0.984 . S
H735 N728 0.984 . S
H736 N724 0.984 . S
H737 N724 0.985 . S
C738 C739 1.363 . S
C738 C744 1.379 1_554 S
C738 N746 1.356 . S
C739 C738 1.363 . S
C739 C745 1.363 . S
C740 C741 1.363 . S
C740 C745 1.379 1_556 S
C740 N747 1.356 . S
C741 C740 1.363 . S
C741 C744 1.363 . S
N742 C744 1.356 . S
N742 H754 0.984 . S
N742 H755 0.985 . S
N743 C745 1.356 . S
N743 H748 0.984 . S
N743 H749 0.985 . S
C744 C738 1.379 1_556 S
C744 C741 1.363 . S
C744 N742 1.356 . S
C745 C739 1.363 . S
C745 C740 1.379 1_554 S
C745 N743 1.356 . S
N746 C738 1.356 . S
N746 H752 0.984 . S
N746 H753 0.984 . S
N747 C740 1.356 . S
N747 H750 0.984 . S
N747 H751 0.985 . S
H748 N743 0.984 . S
H749 N743 0.985 . S
H750 N747 0.984 . S
H751 N747 0.985 . S
H752 N746 0.984 . S
H753 N746 0.984 . S
H754 N742 0.984 . S
H755 N742 0.985 . S
C756 C757 1.363 . S
C756 C762 1.379 1_556 S
C756 N764 1.356 . S
C757 C756 1.363 . S
C757 C763 1.363 1_545 S
C758 C759 1.363 . S
C758 C763 1.379 1_554 S
C758 N765 1.356 . S
C759 C758 1.363 . S
C759 C762 1.363 1_565 S
N760 C762 1.356 . S
N760 H772 0.984 . S
N760 H773 0.985 . S
N761 C763 1.356 . S
N761 H766 0.984 . S
N761 H767 0.985 . S
C762 C756 1.379 1_554 S
C762 C759 1.363 1_545 S
C762 N760 1.356 . S
C763 C757 1.363 1_565 S
C763 C758 1.379 1_556 S
C763 N761 1.356 . S
N764 C756 1.356 . S
N764 H770 0.984 . S
N764 H771 0.984 . S
N765 C758 1.356 . S
N765 H768 0.984 . S
N765 H769 0.985 . S
H766 N761 0.984 . S
H767 N761 0.985 . S
H768 N765 0.984 . S
H769 N765 0.985 . S
H770 N764 0.984 . S
H771 N764 0.984 . S
H772 N760 0.984 . S
H773 N760 0.985 . S
C774 C775 1.363 1_455 S
C774 C780 1.379 1_556 S
C774 N782 1.356 . S
C775 C774 1.363 1_655 S
C775 C781 1.363 . S
C776 C777 1.363 1_655 S
C776 C781 1.379 1_554 S
C776 N783 1.356 . S
C777 C776 1.363 1_455 S
C777 C780 1.363 . S
N778 C780 1.356 . S
N778 H790 0.984 . S
N778 H791 0.985 . S
N779 C781 1.356 . S
N779 H784 0.984 . S
N779 H785 0.985 . S
C780 C774 1.379 1_554 S
C780 C777 1.363 . S
C780 N778 1.356 . S
C781 C775 1.363 . S
C781 C776 1.379 1_556 S
C781 N779 1.356 . S
N782 C774 1.356 . S
N782 H788 0.984 . S
N782 H789 0.984 . S
N783 C776 1.356 . S
N783 H786 0.984 . S
N783 H787 0.985 . S
H784 N779 0.984 . S
H785 N779 0.985 . S
H786 N783 0.984 . S
H787 N783 0.985 . S
H788 N782 0.984 . S
H789 N782 0.984 . S
H790 N778 0.984 . S
H791 N778 0.985 . S
C792 C793 1.363 . S
C792 C798 1.379 . S
C792 N800 1.356 . S
C793 C792 1.363 . S
C793 C799 1.363 . S
C794 C795 1.363 . S
C794 C799 1.379 . S
C794 N801 1.356 . S
C795 C794 1.363 . S
C795 C798 1.363 . S
N796 C798 1.356 . S
N796 H808 0.984 . S
N796 H809 0.985 . S
N797 C799 1.356 . S
N797 H802 0.984 . S
N797 H803 0.985 . S
C798 C792 1.379 . S
C798 C795 1.363 . S
C798 N796 1.356 . S
C799 C793 1.363 . S
C799 C794 1.379 . S
C799 N797 1.356 . S
N800 C792 1.356 . S
N800 H806 0.984 . S
N800 H807 0.984 . S
N801 C794 1.356 . S
N801 H804 0.984 . S
N801 H805 0.985 . S
H802 N797 0.984 . S
H803 N797 0.985 . S
H804 N801 0.984 . S
H805 N801 0.985 . S
H806 N800 0.984 . S
H807 N800 0.984 . S
H808 N796 0.984 . S
H809 N796 0.985 . S
C810 C811 1.363 . S
C810 C816 1.379 . S
C810 N818 1.356 . S
C811 C810 1.363 . S
C811 C817 1.363 . S
C812 C813 1.363 . S
C812 C817 1.379 . S
C812 N819 1.356 . S
C813 C812 1.363 . S
C813 C816 1.363 . S
N814 C816 1.356 . S
N814 H826 0.984 . S
N814 H827 0.985 . S
N815 C817 1.356 . S
N815 H820 0.984 . S
N815 H821 0.985 . S
C816 C810 1.379 . S
C816 C813 1.363 . S
C816 N814 1.356 . S
C817 C811 1.363 . S
C817 C812 1.379 . S
C817 N815 1.356 . S
N818 C810 1.356 . S
N818 H824 0.984 . S
N818 H825 0.984 . S
N819 C812 1.356 . S
N819 H822 0.984 . S
N819 H823 0.985 . S
H820 N815 0.984 . S
H821 N815 0.985 . S
H822 N819 0.984 . S
H823 N819 0.985 . S
H824 N818 0.984 . S
H825 N818 0.984 . S
H826 N814 0.984 . S
H827 N814 0.985 . S
C828 C829 1.363 . S
C828 C834 1.379 . S
C828 N836 1.356 . S
C829 C828 1.363 . S
C829 C835 1.363 . S
C830 C831 1.363 . S
C830 C835 1.379 . S
C830 N837 1.356 . S
C831 C830 1.363 . S
C831 C834 1.363 . S
N832 C834 1.356 . S
N832 H844 0.984 . S
N832 H845 0.985 . S
N833 C835 1.356 . S
N833 H838 0.984 . S
N833 H839 0.985 . S
C834 C828 1.379 . S
C834 C831 1.363 . S
C834 N832 1.356 . S
C835 C829 1.363 . S
C835 C830 1.379 . S
C835 N833 1.356 . S
N836 C828 1.356 . S
N836 H842 0.984 . S
N836 H843 0.984 . S
N837 C830 1.356 . S
N837 H840 0.984 . S
N837 H841 0.985 . S
H838 N833 0.984 . S
H839 N833 0.985 . S
H840 N837 0.984 . S
H841 N837 0.985 . S
H842 N836 0.984 . S
H843 N836 0.984 . S
H844 N832 0.984 . S
H845 N832 0.985 . S
C846 C847 1.363 . S
C846 C852 1.379 . S
C846 N854 1.356 . S
C847 C846 1.363 . S
C847 C853 1.363 . S
C848 C849 1.363 . S
C848 C853 1.379 . S
C848 N855 1.356 . S
C849 C848 1.363 . S
C849 C852 1.363 . S
N850 C852 1.356 . S
N850 H862 0.984 . S
N850 H863 0.985 . S
N851 C853 1.356 . S
N851 H856 0.984 . S
N851 H857 0.985 . S
C852 C846 1.379 . S
C852 C849 1.363 . S
C852 N850 1.356 . S
C853 C847 1.363 . S
C853 C848 1.379 . S
C853 N851 1.356 . S
N854 C846 1.356 . S
N854 H860 0.984 . S
N854 H861 0.984 . S
N855 C848 1.356 . S
N855 H858 0.984 . S
N855 H859 0.985 . S
H856 N851 0.984 . S
H857 N851 0.985 . S
H858 N855 0.984 . S
H859 N855 0.985 . S
H860 N854 0.984 . S
H861 N854 0.984 . S
H862 N850 0.984 . S
H863 N850 0.985 . S
C864 C865 1.363 . S
C864 C870 1.379 . S
C864 N872 1.356 . S
C865 C864 1.363 . S
C865 C871 1.363 . S
C866 C867 1.363 . S
C866 C871 1.379 . S
C866 N873 1.356 . S
C867 C866 1.363 . S
C867 C870 1.363 . S
N868 C870 1.356 . S
N868 H880 0.984 . S
N868 H881 0.985 . S
N869 C871 1.356 . S
N869 H874 0.984 . S
N869 H875 0.985 . S
C870 C864 1.379 . S
C870 C867 1.363 . S
C870 N868 1.356 . S
C871 C865 1.363 . S
C871 C866 1.379 . S
C871 N869 1.356 . S
N872 C864 1.356 . S
N872 H878 0.984 . S
N872 H879 0.984 . S
N873 C866 1.356 . S
N873 H876 0.984 . S
N873 H877 0.985 . S
H874 N869 0.984 . S
H875 N869 0.985 . S
H876 N873 0.984 . S
H877 N873 0.985 . S
H878 N872 0.984 . S
H879 N872 0.984 . S
H880 N868 0.984 . S
H881 N868 0.985 . S
C882 C883 1.363 . S
C882 C888 1.379 . S
C882 N890 1.356 . S
C883 C882 1.363 . S
C883 C889 1.363 . S
C884 C885 1.363 . S
C884 C889 1.379 . S
C884 N891 1.356 . S
C885 C884 1.363 . S
C885 C888 1.363 . S
N886 C888 1.356 . S
N886 H898 0.984 . S
N886 H899 0.985 . S
N887 C889 1.356 . S
N887 H892 0.984 . S
N887 H893 0.985 . S
C888 C882 1.379 . S
C888 C885 1.363 . S
C888 N886 1.356 . S
C889 C883 1.363 . S
C889 C884 1.379 . S
C889 N887 1.356 . S
N890 C882 1.356 . S
N890 H896 0.984 . S
N890 H897 0.984 . S
N891 C884 1.356 . S
N891 H894 0.984 . S
N891 H895 0.985 . S
H892 N887 0.984 . S
H893 N887 0.985 . S
H894 N891 0.984 . S
H895 N891 0.985 . S
H896 N890 0.984 . S
H897 N890 0.984 . S
H898 N886 0.984 . S
H899 N886 0.985 . S
C253 C148 1.312 . S
C255 C8 1.312 . S
C271 C22 1.311 . S
C273 C162 1.311 . S
C289 C134 1.312 . S
C291 C36 1.312 . S
C307 C204 1.312 . S
C309 C50 1.312 . S
C325 C64 1.312 . S
C327 C176 1.312 . S
C343 C190 1.311 . S
C345 C78 1.311 . S
C361 C92 1.312 . S
C363 C232 1.312 . S
C379 C246 1.311 . S
C381 C106 1.311 . S
C397 C120 1.312 . S
C399 C218 1.312 . S
C415 C9 1.188 . S
C417 C17 1.292 . S
C433 C23 1.188 . S
C435 C31 1.293 . S
C451 C3 1.293 . S
C453 C37 1.188 . S
C469 C73 1.292 . S
C471 C51 1.188 . S
C487 C45 1.293 . S
C489 C65 1.188 . S
C505 C79 1.188 . S
C507 C59 1.293 . S
C523 C93 1.188 . S
C525 C101 1.292 . S
C541 C107 1.188 . S
C543 C115 1.293 . S
C559 C87 1.293 . S
C561 C121 1.189 . S
C577 C157 1.292 . S
C579 C135 1.188 . S
C595 C129 1.293 . S
C597 C149 1.188 . S
C613 C143 1.293 . S
C615 C163 1.188 . S
C631 C185 1.292 . S
C633 C177 1.188 . S
C649 C199 1.293 . S
C651 C191 1.188 . S
C667 C171 1.293 . S
C669 C205 1.188 . S
C685 C219 1.188 . S
C687 C241 1.292 . S
C703 C233 1.188 . S
C705 C213 1.293 . S
C721 C247 1.188 . S
C723 C227 1.293 . S
C739 C7 1.615 . S
C741 C49 1.615 . S
C757 C63 1.615 . S
C759 C21 1.615 . S
C775 C77 1.615 . S
C777 C35 1.615 . S
C793 C133 1.615 . S
C795 C91 1.615 . S
C811 C147 1.615 . S
C813 C105 1.615 . S
C829 C119 1.615 . S
C831 C161 1.615 . S
C847 C217 1.615 . S
C849 C175 1.615 . S
C865 C231 1.615 . S
C867 C189 1.615 . S
C883 C245 1.615 . S
C885 C203 1.615 . S
