# Generated by pormake.
# Topology uom, (4)-cn, num edge types: 1
# Building blocks:
#     Node 0, Type 0, BuildingBlock: MUDLON_clean_sbu_0, # of connection points: 4
#     Node 1, Type 0, BuildingBlock: MUDLON_clean_sbu_0, # of connection points: 4
#     Node 2, Type 0, BuildingBlock: MUDLON_clean_sbu_0, # of connection points: 4
#     Node 3, Type 0, BuildingBlock: MUDLON_clean_sbu_0, # of connection points: 4
#     Node 4, Type 0, BuildingBlock: MUDLON_clean_sbu_0, # of connection points: 4
#     Node 5, Type 0, BuildingBlock: MUDLON_clean_sbu_0, # of connection points: 4
#     Edge 6, Type (0, 0), BuildingBlock: FUNLAD_clean_linker_0, # of connection points: 2
#     Edge 7, Type (0, 0), BuildingBlock: FUNLAD_clean_linker_0, # of connection points: 2
#     Edge 8, Type (0, 0), BuildingBlock: FUNLAD_clean_linker_0, # of connection points: 2
#     Edge 9, Type (0, 0), BuildingBlock: FUNLAD_clean_linker_0, # of connection points: 2
#     Edge 10, Type (0, 0), BuildingBlock: FUNLAD_clean_linker_0, # of connection points: 2
#     Edge 11, Type (0, 0), BuildingBlock: FUNLAD_clean_linker_0, # of connection points: 2
#     Edge 12, Type (0, 0), BuildingBlock: FUNLAD_clean_linker_0, # of connection points: 2
#     Edge 13, Type (0, 0), BuildingBlock: FUNLAD_clean_linker_0, # of connection points: 2
#     Edge 14, Type (0, 0), BuildingBlock: FUNLAD_clean_linker_0, # of connection points: 2
#     Edge 15, Type (0, 0), BuildingBlock: FUNLAD_clean_linker_0, # of connection points: 2
#     Edge 16, Type (0, 0), BuildingBlock: FUNLAD_clean_linker_0, # of connection points: 2
#     Edge 17, Type (0, 0), BuildingBlock: FUNLAD_clean_linker_0, # of connection points: 2
# Relax obj value: 0.094
# Max RMSD: 0.085
# Mean RMSD: 0.085
data_MOF--net-uom--node1-MUDLON_clean_sbu_0--edge1-FUNLAD_clean_linker_0
_symmetry_space_group_name_H-M    P1
_symmetry_Int_Tables_number       1
_symmetry_cell_setting            triclinic
loop_
_symmetry_equiv_pos_as_xyz
'x, y, z'
_cell_length_a     34.409199
_cell_length_b     34.575652
_cell_length_c     45.532097
_cell_angle_alpha  90.463543
_cell_angle_beta   89.521252
_cell_angle_gamma 119.50314
loop_
_atom_site_label
_atom_site_type_symbol
_atom_site_fract_x
_atom_site_fract_y
_atom_site_fract_z
_atom_type_partial_charge
Mg0 Mg 0.24334 0.98507 0.09004 0.0
C1 C 0.2612 0.98238 0.15653 0.0
O2 O 0.28785 0.96755 0.14753 0.0
C3 C 0.16038 0.90655 0.06532 0.0
O4 O 0.1413 0.92387 0.08182 0.0
C5 C 0.34438 0.04268 0.09112 0.0
O6 O 0.33399 0.06579 0.10943 0.0
O7 O 0.31314 0.0084 0.07886 0.0
O8 O 0.23747 0.98854 0.13786 0.0
O9 O 0.21537 0.02405 0.07215 0.0
C10 C 0.20601 0.04793 0.0889 0.0
O11 O 0.22155 0.05588 0.11582 0.0
O12 O 0.20243 0.92226 0.0671 0.0
Mg13 Mg 0.30436 0.26349 0.41853 0.0
C14 C 0.28129 0.23339 0.48405 0.0
O15 O 0.25744 0.19316 0.47312 0.0
C16 C 0.29815 0.18141 0.39038 0.0
O17 O 0.2602 0.16353 0.40498 0.0
C18 C 0.3885 0.34789 0.40761 0.0
O19 O 0.40322 0.32166 0.41707 0.0
O20 O 0.34659 0.33206 0.40484 0.0
O21 O 0.30459 0.26548 0.46675 0.0
O22 O 0.23633 0.23509 0.40282 0.0
C23 C 0.20292 0.22377 0.4197 0.0
O24 O 0.20965 0.23666 0.44729 0.0
O25 O 0.32629 0.22226 0.39483 0.0
Mg26 Mg 0.08188 0.29861 0.75696 0.0
C27 C 0.08814 0.32019 0.82391 0.0
O28 O 0.10112 0.36094 0.81531 0.0
C29 C 0.14327 0.32897 0.70568 0.0
O30 O 0.11115 0.33668 0.69762 0.0
C31 C 0.0828 0.38517 0.74863 0.0
O32 O 0.12505 0.3996 0.75461 0.0
O33 O 0.05623 0.34348 0.74736 0.0
O34 O 0.08183 0.29058 0.8048 0.0
O35 O 0.04008 0.23215 0.73985 0.0
C36 C 0.0187 0.20003 0.7574 0.0
O37 O 0.01431 0.20885 0.78495 0.0
O38 O 0.14287 0.31597 0.73184 0.0
Mg39 Mg 0.81284 0.09611 0.09041 0.0
C40 C 0.83512 0.08636 0.15374 0.0
O41 O 0.8642 0.07805 0.14035 0.0
C42 C 0.89665 0.17003 0.06133 0.0
O43 O 0.91614 0.15388 0.07807 0.0
C44 C 0.72966 0.09924 0.08785 0.0
O45 O 0.75768 0.13521 0.10234 0.0
O46 O 0.74363 0.07348 0.07837 0.0
O47 O 0.81268 0.09918 0.13853 0.0
O48 O 0.83917 0.05233 0.07907 0.0
C49 C 0.85597 0.05404 0.05381 0.0
O50 O 0.84855 0.07519 1.03266 0.0
O51 O 0.85498 0.15585 0.06472 0.0
Mg52 Mg 0.76593 0.82697 0.4268 0.0
C53 C 0.79504 0.84708 0.49054 0.0
O54 O 0.83038 0.8795 0.47782 0.0
C55 C 0.73574 0.8699 0.3811 0.0
O56 O 0.71417 0.82865 0.37159 0.0
C57 C 0.68039 0.74364 0.41699 0.0
O58 O 0.66795 0.76734 0.43316 0.0
O59 O 0.72128 0.76079 0.40955 0.0
O60 O 0.76137 0.82203 0.4748 0.0
O61 O 0.83589 0.85144 0.41697 0.0
C62 C 0.85195 0.87261 0.3932 0.0
O63 O 0.82436 0.86995 0.37252 0.0
O64 O 0.75557 0.87795 0.40575 0.0
Mg65 Mg 0.97988 0.76823 0.75879 0.0
C66 C 0.98786 0.75506 0.82492 0.0
O67 O 0.9894 0.71978 0.81565 0.0
C68 C 0.91215 0.78764 0.73364 0.0
O69 O 0.9346 0.82163 0.75133 0.0
C70 C 0.97482 0.67926 0.75093 0.0
O71 O 0.93389 0.66635 0.75998 0.0
O72 O 1.00175 0.72059 0.7478 0.0
O73 O 0.98043 0.77818 0.80649 0.0
O74 O 0.02474 0.83369 0.74175 0.0
C75 C 0.04959 0.8651 0.75902 0.0
O76 O 0.05685 0.85526 0.78548 0.0
O77 O 0.91998 0.75529 0.73459 0.0
C78 C 0.25165 0.03044 0.19423 0.0
C79 C 0.26348 0.99782 0.18735 0.0
C80 C 0.2576 0.04818 0.22264 0.0
C81 C 0.27485 0.03319 0.24501 0.0
C82 C 0.28506 0.99942 0.23845 0.0
C83 C 0.28012 0.98239 0.20981 0.0
C84 C 0.28116 0.05156 0.2754 0.0
C85 C 0.29632 0.09509 0.28077 0.0
C86 C 0.30091 0.11463 0.31072 0.0
C87 C 0.33176 0.15984 0.31513 0.0
C88 C 0.33317 0.18089 0.34183 0.0
C89 C 0.30301 0.15739 0.36461 0.0
H90 H 0.24763 0.05578 0.33138 0.0
C91 C 0.27332 0.11168 0.36064 0.0
C92 C 0.27238 0.09046 0.33407 0.0
H93 H 0.24949 0.09261 0.37767 0.0
H94 H 0.23886 0.04317 0.17745 0.0
H95 H 0.24836 0.0734 0.22714 0.0
H96 H 0.2979 0.98693 0.25536 0.0
H97 H 0.28945 0.95724 0.20524 0.0
H98 H 0.27498 0.02906 0.29358 0.0
H99 H 0.30655 0.11785 0.26232 0.0
H100 H 0.35403 0.17933 0.29752 0.0
H101 H 0.35626 0.21617 0.34398 0.0
C102 C 0.29634 0.28668 0.52604 0.0
C103 C 0.2752 0.24277 0.51523 0.0
C104 C 0.28637 0.29627 0.55415 0.0
C105 C 0.25481 0.26215 0.57219 0.0
C106 C 0.23555 0.21808 0.56199 0.0
C107 C 0.24541 0.20848 0.53384 0.0
C108 C 0.24023 0.27121 0.60126 0.0
C109 C 0.24125 0.30988 0.60785 0.0
C110 C 0.22034 0.31701 0.63472 0.0
C111 C 0.2045 0.34741 0.63331 0.0
C112 C 0.18132 0.3527 0.65694 0.0
C113 C 0.17418 0.32843 0.68294 0.0
H114 H 0.22781 0.27126 0.66346 0.0
C115 C 0.19232 0.29992 0.68516 0.0
C116 C 0.215 0.29406 0.66122 0.0
H117 H 0.18725 0.28064 0.70487 0.0
H118 H 0.31982 0.31394 0.51249 0.0
H119 H 0.30325 0.33051 0.5615 0.0
H120 H 0.21154 0.191 0.57546 0.0
H121 H 0.22864 0.17426 0.52637 0.0
H122 H 0.22409 0.2436 0.61644 0.0
H123 H 0.25367 0.33605 0.59153 0.0
H124 H 0.20851 0.36596 0.61337 0.0
H125 H 0.16792 0.37504 0.65455 0.0
C126 C 0.96612 0.21166 1.03055 0.0
C127 C 0.92007 0.19563 1.03458 0.0
C128 C 0.98682 0.22939 1.00349 0.0
C129 C 0.96178 0.2311 0.97974 0.0
C130 C 0.91616 0.21643 0.98409 0.0
C131 C 0.89563 0.19935 1.01122 0.0
C132 C 0.98096 0.24408 0.94959 0.0
C133 C 0.02429 0.27299 0.94383 0.0
C134 C 0.04194 0.28431 0.91324 0.0
C135 C 0.07411 0.32816 0.90631 0.0
C136 C 0.08984 0.33977 0.87741 0.0
C137 C 0.07471 0.30744 0.855 0.0
H138 H 1.00355 0.21744 0.89575 0.0
C139 C 0.04398 0.26315 0.86227 0.0
C140 C 0.02751 0.25177 0.89098 0.0
H141 H 0.03156 0.23739 0.84558 0.0
H142 H 0.98591 0.20905 0.04799 0.0
H143 H 0.02186 0.23963 1.00084 0.0
H144 H 0.896 0.21719 0.96619 0.0
H145 H 0.86008 0.18707 1.01337 0.0
H146 H 0.95793 0.23007 0.93131 0.0
H147 H 0.04685 0.29068 0.96177 0.0
H148 H 0.08616 0.35376 0.92312 0.0
H149 H 0.11358 0.37414 0.87258 0.0
C150 C 0.84858 0.06022 0.20197 0.0
C151 C 0.82263 0.07256 0.18483 0.0
C152 C 0.83345 0.04054 0.22954 0.0
C153 C 0.7918 0.03252 0.24062 0.0
C154 C 0.76668 0.04635 0.22396 0.0
C155 C 0.78205 0.0665 0.19654 0.0
C156 C 0.77162 0.00574 0.26771 0.0
C157 C 0.79575 0.00261 0.28986 0.0
C158 C 0.77578 0.971 0.31487 0.0
C159 C 0.7997 0.97978 0.34124 0.0
C160 C 0.78494 0.9482 0.36376 0.0
C161 C 0.74627 0.90662 0.36018 0.0
H162 H 0.71692 0.92166 0.29174 0.0
C163 C 0.72141 0.89844 0.33426 0.0
C164 C 0.73585 0.93025 0.31191 0.0
H165 H 0.69168 0.86664 0.33071 0.0
H166 H 0.8799 0.06421 0.1936 0.0
H167 H 0.85343 0.02956 0.24131 0.0
H168 H 0.7344 0.04041 0.23182 0.0
H169 H 0.76102 0.07531 0.18392 0.0
H170 H 0.73541 0.98774 0.26922 0.0
H171 H 0.83179 0.02379 0.28971 0.0
H172 H 0.83071 0.01067 0.34409 0.0
H173 H 0.80527 0.95546 0.38324 0.0
C174 C 0.87035 0.76115 0.68579 0.0
C175 C 0.88619 0.79196 0.70914 0.0
C176 C 0.85287 0.76969 0.66044 0.0
C177 C 0.85074 0.80924 0.65796 0.0
C178 C 0.86468 0.83884 0.68188 0.0
C179 C 0.88195 0.83029 0.70714 0.0
C180 C 0.83867 0.82319 0.63008 0.0
C181 C 0.81535 0.79539 0.60794 0.0
C182 C 0.80812 0.81117 0.57911 0.0
C183 C 0.77136 0.7824 0.56179 0.0
C184 C 0.76577 0.79483 0.53357 0.0
C185 C 0.79732 0.83611 0.52179 0.0
H186 H 0.86839 0.87576 0.57982 0.0
C187 C 0.8336 0.86526 0.53935 0.0
C188 C 0.83896 0.85302 0.56762 0.0
H189 H 0.8587 0.89719 0.53094 0.0
H190 H 0.87338 0.73145 0.68648 0.0
H191 H 0.84329 0.74631 0.64239 0.0
H192 H 0.86355 0.86957 0.68069 0.0
H193 H 0.89377 0.85483 0.72462 0.0
H194 H 0.84973 0.85836 0.62783 0.0
H195 H 0.8006 0.75977 0.61091 0.0
H196 H 0.74724 0.74986 0.56993 0.0
H197 H 0.73761 0.77138 0.5206 0.0
C198 C 0.15685 0.87739 1.01425 0.0
C199 C 0.135 0.87652 1.04069 0.0
C200 C 0.1323 0.85476 0.98936 0.0
C201 C 0.08541 0.83001 0.99054 0.0
C202 C 0.06372 0.82702 1.01737 0.0
C203 C 0.08819 0.85066 0.04208 0.0
C204 C 0.05875 0.80753 0.96394 0.0
C205 C 0.06801 0.82802 0.93768 0.0
C206 C 0.04226 0.80732 0.91041 0.0
C207 C 0.03939 0.83473 0.88895 0.0
C208 C 0.01927 0.81724 0.86183 0.0
C209 C 1.00255 0.772 0.85523 0.0
H210 H 0.02608 0.73969 0.92022 0.0
C211 C 1.00444 0.74427 0.87697 0.0
C212 C 0.02378 0.76165 0.90437 0.0
H213 H 0.99204 0.70931 0.87254 0.0
H214 H 0.19283 0.89721 1.01237 0.0
H215 H 0.14998 0.85692 0.9691 0.0
H216 H 0.02765 0.80781 1.0189 0.0
H217 H 0.07043 0.84939 0.06213 0.0
H218 H 0.02937 0.77501 0.96647 0.0
H219 H 0.09475 0.86232 0.93626 0.0
H220 H 0.05351 0.87005 0.89297 0.0
H221 H 0.0187 0.83965 0.84557 0.0
C222 C 0.14281 0.03634 0.05613 0.0
C223 C 0.16958 0.05696 0.08084 0.0
C224 C 0.10325 0.03765 0.05172 0.0
C225 C 0.08985 0.06003 0.07184 0.0
C226 C 0.11802 0.08271 0.09554 0.0
C227 C 0.1574 0.08126 0.1 0.0
C228 C 0.0455 0.05773 0.07058 0.0
C229 C 0.0177 0.04314 0.04736 0.0
C230 C 0.97326 0.04049 0.04831 0.0
C231 C 0.95664 0.05019 1.02304 0.0
C232 C 0.91691 0.05203 1.02427 0.0
C233 C 0.89269 0.04349 0.05075 0.0
H234 H 0.95853 0.01972 0.09382 0.0
C235 C 0.9077 0.0305 0.07542 0.0
C236 C 0.94754 0.02906 0.07423 0.0
H237 H 0.88973 0.02327 0.0961 0.0
H238 H 0.15106 0.01708 0.04101 0.0
H239 H 0.08253 0.01926 1.03334 0.0
H240 H 0.10876 0.1004 0.11135 0.0
H241 H 0.17726 0.09761 0.11922 0.0
H242 H 0.03533 0.06905 0.09001 0.0
H243 H 0.02831 0.03537 1.02671 0.0
H244 H 0.97545 0.05835 1.00266 0.0
H245 H 0.90622 0.06196 1.00481 0.0
C246 C 0.91315 0.94204 0.37085 0.0
C247 C 0.8989 0.90902 0.39253 0.0
C248 C 0.95387 0.98145 0.37359 0.0
C249 C 0.98151 0.98848 0.39801 0.0
C250 C 0.96848 0.95413 0.41857 0.0
C251 C 0.92769 0.91487 0.41591 0.0
C252 C 0.02208 0.03189 0.40434 0.0
C253 C 0.04078 0.06659 0.38572 0.0
C254 C 0.08005 0.10959 0.39415 0.0
C255 C 0.11244 0.13434 0.3729 0.0
C256 C 0.15151 0.17301 0.38084 0.0
C257 C 0.15854 0.18805 0.41016 0.0
H258 H 0.0606 0.10869 0.43975 0.0
C259 C 0.1246 0.16495 0.43097 0.0
C260 C 0.08578 0.12609 0.42307 0.0
H261 H 0.12876 0.17575 0.45368 0.0
H262 H 0.89171 0.93871 0.35259 0.0
H263 H 0.96209 0.00678 0.35721 0.0
H264 H 0.98911 0.95835 0.43751 0.0
H265 H 0.9178 0.89007 0.43297 0.0
H266 H 0.03727 0.03543 0.42575 0.0
H267 H 0.02898 0.06324 0.36335 0.0
H268 H 0.10841 0.12274 0.35036 0.0
H269 H 0.17689 0.19018 0.36422 0.0
C270 C 1.00019 0.12301 0.77101 0.0
C271 C 0.01105 0.15531 0.74919 0.0
C272 C 1.00325 0.08492 0.76516 0.0
C273 C 0.01694 0.0782 0.73732 0.0
C274 C 0.02372 0.10828 0.71476 0.0
C275 C 0.02116 0.14675 0.72067 0.0
C276 C 0.02565 0.04081 0.73186 0.0
C277 C 0.04565 0.02861 0.75228 0.0
C278 C 0.0532 0.98987 0.74982 0.0
C279 C 0.0779 0.98387 0.77199 0.0
C280 C 0.07996 0.94461 0.77362 0.0
C281 C 0.05734 0.91039 0.75305 0.0
H282 H 0.01389 0.95986 0.71045 0.0
C283 C 0.03566 0.91779 0.72946 0.0
C284 C 0.03334 0.95697 0.72792 0.0
H285 H 0.0178 0.8921 0.7132 0.0
H286 H 0.99176 0.12821 0.79311 0.0
H287 H 0.9961 0.06133 0.78271 0.0
H288 H 0.03343 0.10329 0.69297 0.0
H289 H 0.02933 0.17079 0.70329 0.0
H290 H 0.01755 0.02514 0.71039 0.0
H291 H 0.05665 0.0479 0.77251 0.0
H292 H 0.09389 0.00874 0.78902 0.0
H293 H 0.09715 0.94011 0.79198 0.0
C294 C 0.66856 0.11742 0.09624 0.0
C295 C 0.68269 0.08893 0.08398 0.0
C296 C 0.62428 0.10786 0.09381 0.0
C297 C 0.59276 0.06963 0.0787 0.0
C298 C 0.60685 0.04104 0.06646 0.0
C299 C 0.65135 0.05062 0.06897 0.0
C300 C 0.54469 0.05739 0.07679 0.0
C301 C 0.53004 0.08693 0.08041 0.0
C302 C 0.48207 0.07493 0.08162 0.0
C303 C 0.47076 0.10416 0.096 0.0
C304 C 0.42622 0.094 0.09867 0.0
C305 C 0.39176 0.05451 0.08667 0.0
H306 H 0.45494 0.01296 0.05697 0.0
C307 C 0.40304 0.02579 0.07145 0.0
C308 C 0.44769 0.03581 0.06896 0.0
H309 H 0.37732 0.99517 0.0618 0.0
H310 H 0.6916 0.14702 0.10824 0.0
H311 H 0.61496 0.13007 0.10461 0.0
H312 H 0.58332 0.01109 0.05498 0.0
H313 H 0.66106 0.02785 0.05938 0.0
H314 H 0.52081 0.02264 0.07288 0.0
H315 H 0.55408 0.12172 0.08393 0.0
H316 H 0.49647 0.13471 0.10576 0.0
H317 H 0.41883 0.11701 0.11042 0.0
C318 C 0.60307 0.6783 0.41891 0.0
C319 C 0.64769 0.6969 0.40947 0.0
C320 C 0.57262 0.63345 0.41385 0.0
C321 C 0.58595 0.60602 0.39895 0.0
C322 C 0.63039 0.62486 0.38907 0.0
C323 C 0.6609 0.6698 0.39415 0.0
C324 C 0.55568 0.55721 0.39542 0.0
C325 C 0.51073 0.5372 0.39751 0.0
C326 C 0.48073 0.48805 0.39757 0.0
C327 C 0.43485 0.47083 0.39254 0.0
C328 C 0.40492 0.42521 0.39493 0.0
C329 C 0.4202 0.39573 0.40263 0.0
H330 H 0.53078 0.46996 0.40964 0.0
C331 C 0.46619 0.41279 0.4071 0.0
C332 C 0.49606 0.45833 0.40474 0.0
H333 H 0.47913 0.39109 0.41321 0.0
H334 H 0.59176 0.69813 0.43092 0.0
H335 H 0.53923 0.62033 0.42267 0.0
H336 H 0.64179 0.60456 0.37774 0.0
H337 H 0.69504 0.68302 0.38662 0.0
H338 H 0.57146 0.53725 0.39092 0.0
H339 H 0.49475 0.55746 0.3993 0.0
H340 H 0.42194 0.49285 0.38721 0.0
H341 H 0.36971 0.41322 0.39138 0.0
C342 C 0.96208 0.60148 0.7537 0.0
C343 C 0.9901 0.64634 0.74641 0.0
C344 C 0.97716 0.57071 0.75105 0.0
C345 C 0.02064 0.58401 0.74067 0.0
C346 C 0.04836 0.62879 0.73305 0.0
C347 C 0.03333 0.65959 0.73586 0.0
C348 C 0.03939 0.55322 0.73906 0.0
C349 C 0.01466 0.5085 0.74059 0.0
C350 C 0.03388 0.4781 0.74114 0.0
C351 C 1.0055 0.4325 0.73592 0.0
C352 C 0.0214 0.40234 0.73784 0.0
C353 C 0.06617 0.4171 0.7451 0.0
H354 H 0.10174 0.52726 0.7534 0.0
C355 C 0.09473 0.46271 0.75005 0.0
C356 C 0.07881 0.49282 0.74829 0.0
H357 H 0.12933 0.47519 0.75596 0.0
H358 H 0.92868 0.59019 0.76213 0.0
H359 H 0.95487 0.53702 0.75798 0.0
H360 H 0.08207 0.6402 0.72518 0.0
H361 H 0.05583 0.6939 0.73007 0.0
H362 H 0.07525 0.56854 0.73615 0.0
H363 H 0.97855 0.49288 0.74109 0.0
H364 H 0.97068 0.42003 0.7306 0.0
H365 H 0.99846 0.36742 0.73394 0.0
loop_
_geom_bond_atom_site_label_1
_geom_bond_atom_site_label_2
_geom_bond_distance
_geom_bond_site_symmetry_2
_ccdc_geom_bond_type
Mg0 O7 2.141 . S
Mg0 O8 2.048 . S
Mg0 O9 2.048 . S
Mg0 O12 2.141 . S
C1 O2 1.313 . S
C1 O8 1.195 . S
O2 C1 1.313 . S
C3 O4 1.245 1_556 S
C3 O12 1.289 1_566 S
O4 C3 1.245 1_554 S
C5 O6 1.245 1_545 S
C5 O7 1.289 . S
O6 C5 1.245 1_565 S
O7 Mg0 2.141 . S
O7 C5 1.289 . S
O8 Mg0 2.048 . S
O8 C1 1.195 . S
O9 Mg0 2.048 . S
O9 C10 1.195 . S
C10 O9 1.195 . S
C10 O11 1.313 1_545 S
O11 C10 1.313 1_565 S
O12 Mg0 2.141 . S
O12 C3 1.289 1_544 S
Mg13 O20 2.141 . S
Mg13 O21 2.048 . S
Mg13 O22 2.048 . S
Mg13 O25 2.141 . S
C14 O15 1.313 . S
C14 O21 1.195 . S
O15 C14 1.313 . S
C16 O17 1.245 . S
C16 O25 1.289 . S
O17 C16 1.245 . S
C18 O19 1.245 . S
C18 O20 1.289 . S
O19 C18 1.245 . S
O20 Mg13 2.141 . S
O20 C18 1.289 . S
O21 Mg13 2.048 . S
O21 C14 1.195 . S
O22 Mg13 2.048 . S
O22 C23 1.195 . S
C23 O22 1.195 . S
C23 O24 1.313 . S
O24 C23 1.313 . S
O25 Mg13 2.141 . S
O25 C16 1.289 . S
Mg26 O33 2.141 . S
Mg26 O34 2.048 1_455 S
Mg26 O35 2.048 . S
Mg26 O38 2.141 . S
C27 O28 1.313 . S
C27 O34 1.195 1_455 S
O28 C27 1.313 . S
C29 O30 1.245 . S
C29 O38 1.289 . S
O30 C29 1.245 . S
C31 O32 1.245 . S
C31 O33 1.289 . S
O32 C31 1.245 . S
O33 Mg26 2.141 . S
O33 C31 1.289 . S
O34 Mg26 2.048 1_655 S
O34 C27 1.195 1_655 S
O35 Mg26 2.048 . S
O35 C36 1.195 . S
C36 O35 1.195 . S
C36 O37 1.313 . S
O37 C36 1.313 . S
O38 Mg26 2.141 . S
O38 C29 1.289 . S
Mg39 O46 2.141 . S
Mg39 O47 2.048 . S
Mg39 O48 2.048 . S
Mg39 O51 2.141 . S
C40 O41 1.313 . S
C40 O47 1.195 . S
O41 C40 1.313 . S
C42 O43 1.245 1_556 S
C42 O51 1.289 1_556 S
O43 C42 1.245 1_554 S
C44 O45 1.245 . S
C44 O46 1.289 . S
O45 C44 1.245 . S
O46 Mg39 2.141 . S
O46 C44 1.289 . S
O47 Mg39 2.048 . S
O47 C40 1.195 . S
O48 Mg39 2.048 . S
O48 C49 1.195 . S
C49 O48 1.195 . S
C49 O50 1.313 . S
O50 C49 1.313 . S
O51 Mg39 2.141 . S
O51 C42 1.289 1_554 S
Mg52 O59 2.141 . S
Mg52 O60 2.048 . S
Mg52 O61 2.048 . S
Mg52 O64 2.141 . S
C53 O54 1.313 . S
C53 O60 1.195 . S
O54 C53 1.313 . S
C55 O56 1.245 . S
C55 O64 1.289 . S
O56 C55 1.245 . S
C57 O58 1.245 . S
C57 O59 1.289 . S
O58 C57 1.245 . S
O59 Mg52 2.141 . S
O59 C57 1.289 . S
O60 Mg52 2.048 . S
O60 C53 1.195 . S
O61 Mg52 2.048 . S
O61 C62 1.195 . S
C62 O61 1.195 . S
C62 O63 1.313 . S
O63 C62 1.313 . S
O64 Mg52 2.141 . S
O64 C55 1.289 . S
Mg65 O72 2.141 . S
Mg65 O73 2.048 . S
Mg65 O74 2.048 . S
Mg65 O77 2.141 . S
C66 O67 1.313 . S
C66 O73 1.195 . S
O67 C66 1.313 . S
C68 O69 1.245 . S
C68 O77 1.289 1_655 S
O69 C68 1.245 . S
C70 O71 1.245 1_455 S
C70 O72 1.289 . S
O71 C70 1.245 1_655 S
O72 Mg65 2.141 . S
O72 C70 1.289 . S
O73 Mg65 2.048 . S
O73 C66 1.195 . S
O74 Mg65 2.048 . S
O74 C75 1.195 . S
C75 O74 1.195 . S
C75 O76 1.313 1_455 S
O76 C75 1.313 1_655 S
O77 Mg65 2.141 . S
O77 C68 1.289 1_455 S
C78 C79 1.386 . S
C78 C80 1.383 . S
C78 H94 0.951 . S
C79 C78 1.386 . S
C79 C83 1.383 . S
C80 C78 1.383 . S
C80 C81 1.402 . S
C80 H95 0.951 . S
C81 C80 1.402 . S
C81 C82 1.375 . S
C81 C84 1.481 . S
C82 C81 1.375 . S
C82 C83 1.367 . S
C82 H96 0.951 . S
C83 C79 1.383 . S
C83 C82 1.367 . S
C83 H97 0.950 . S
C84 C81 1.481 . S
C84 C85 1.297 . S
C84 H98 0.950 . S
C85 C84 1.297 . S
C85 C86 1.479 . S
C85 H99 0.950 . S
C86 C85 1.479 . S
C86 C87 1.375 . S
C86 C92 1.404 . S
C87 C86 1.375 . S
C87 C88 1.369 . S
C87 H100 0.950 . S
C88 C87 1.369 . S
C88 C89 1.392 . S
C88 H101 0.951 . S
C89 C88 1.392 . S
C89 C91 1.384 . S
H90 C92 0.949 . S
C91 C89 1.384 . S
C91 C92 1.385 . S
C91 H93 0.950 . S
C92 C86 1.404 . S
C92 H90 0.949 . S
C92 C91 1.385 . S
H93 C91 0.950 . S
H94 C78 0.951 . S
H95 C80 0.951 . S
H96 C82 0.951 . S
H97 C83 0.950 . S
H98 C84 0.950 . S
H99 C85 0.950 . S
H100 C87 0.950 . S
H101 C88 0.951 . S
C102 C103 1.386 . S
C102 C104 1.383 . S
C102 H118 0.951 . S
C103 C102 1.386 . S
C103 C107 1.383 . S
C104 C102 1.383 . S
C104 C105 1.402 . S
C104 H119 0.951 . S
C105 C104 1.402 . S
C105 C106 1.375 . S
C105 C108 1.481 . S
C106 C105 1.375 . S
C106 C107 1.367 . S
C106 H120 0.951 . S
C107 C103 1.383 . S
C107 C106 1.367 . S
C107 H121 0.950 . S
C108 C105 1.481 . S
C108 C109 1.297 . S
C108 H122 0.950 . S
C109 C108 1.297 . S
C109 C110 1.479 . S
C109 H123 0.950 . S
C110 C109 1.479 . S
C110 C111 1.375 . S
C110 C116 1.404 . S
C111 C110 1.375 . S
C111 C112 1.369 . S
C111 H124 0.950 . S
C112 C111 1.369 . S
C112 C113 1.392 . S
C112 H125 0.951 . S
C113 C112 1.392 . S
C113 C115 1.384 . S
H114 C116 0.949 . S
C115 C113 1.384 . S
C115 C116 1.385 . S
C115 H117 0.950 . S
C116 C110 1.404 . S
C116 H114 0.949 . S
C116 C115 1.385 . S
H117 C115 0.950 . S
H118 C102 0.951 . S
H119 C104 0.951 . S
H120 C106 0.951 . S
H121 C107 0.950 . S
H122 C108 0.950 . S
H123 C109 0.950 . S
H124 C111 0.950 . S
H125 C112 0.951 . S
C126 C127 1.386 . S
C126 C128 1.383 . S
C126 H142 0.951 . S
C127 C126 1.386 . S
C127 C131 1.383 . S
C128 C126 1.383 . S
C128 C129 1.402 . S
C128 H143 0.951 . S
C129 C128 1.402 . S
C129 C130 1.375 . S
C129 C132 1.481 . S
C130 C129 1.375 . S
C130 C131 1.367 . S
C130 H144 0.951 . S
C131 C127 1.383 . S
C131 C130 1.367 . S
C131 H145 0.950 . S
C132 C129 1.481 . S
C132 C133 1.297 . S
C132 H146 0.950 . S
C133 C132 1.297 . S
C133 C134 1.479 . S
C133 H147 0.950 . S
C134 C133 1.479 . S
C134 C135 1.375 . S
C134 C140 1.404 . S
C135 C134 1.375 . S
C135 C136 1.369 1_655 S
C135 H148 0.952 . S
C136 C135 1.369 1_455 S
C136 C137 1.392 1_455 S
C136 H149 0.951 . S
C137 C136 1.392 1_655 S
C137 C139 1.384 . S
H138 C140 0.949 . S
C139 C137 1.384 . S
C139 C140 1.385 . S
C139 H141 0.950 . S
C140 C134 1.404 . S
C140 H138 0.949 . S
C140 C139 1.385 . S
H141 C139 0.950 . S
H142 C126 0.951 . S
H143 C128 0.951 . S
H144 C130 0.951 . S
H145 C131 0.950 . S
H146 C132 0.950 . S
H147 C133 0.950 . S
H148 C135 0.952 . S
H149 C136 0.951 . S
C150 C151 1.386 . S
C150 C152 1.383 . S
C150 H166 0.951 . S
C151 C150 1.386 . S
C151 C155 1.383 . S
C152 C150 1.383 . S
C152 C153 1.402 . S
C152 H167 0.951 . S
C153 C152 1.402 . S
C153 C154 1.375 . S
C153 C156 1.481 . S
C154 C153 1.375 . S
C154 C155 1.367 . S
C154 H168 0.951 . S
C155 C151 1.383 . S
C155 C154 1.367 . S
C155 H169 0.950 . S
C156 C153 1.481 . S
C156 C157 1.297 . S
C156 H170 0.950 . S
C157 C156 1.297 . S
C157 C158 1.479 . S
C157 H171 0.950 . S
C158 C157 1.479 . S
C158 C159 1.375 . S
C158 C164 1.404 . S
C159 C158 1.375 . S
C159 C160 1.369 . S
C159 H172 0.950 . S
C160 C159 1.369 . S
C160 C161 1.392 . S
C160 H173 0.951 . S
C161 C160 1.392 . S
C161 C163 1.384 . S
H162 C164 0.949 . S
C163 C161 1.384 . S
C163 C164 1.385 . S
C163 H165 0.950 . S
C164 C158 1.404 . S
C164 H162 0.949 . S
C164 C163 1.385 . S
H165 C163 0.950 . S
H166 C150 0.951 . S
H167 C152 0.951 . S
H168 C154 0.951 . S
H169 C155 0.950 . S
H170 C156 0.950 . S
H171 C157 0.950 . S
H172 C159 0.950 . S
H173 C160 0.951 . S
C174 C175 1.386 . S
C174 C176 1.383 . S
C174 H190 0.951 . S
C175 C174 1.386 . S
C175 C179 1.383 . S
C176 C174 1.383 . S
C176 C177 1.402 . S
C176 H191 0.951 . S
C177 C176 1.402 . S
C177 C178 1.375 . S
C177 C180 1.481 . S
C178 C177 1.375 . S
C178 C179 1.367 . S
C178 H192 0.951 . S
C179 C175 1.383 . S
C179 C178 1.367 . S
C179 H193 0.950 . S
C180 C177 1.481 . S
C180 C181 1.297 . S
C180 H194 0.950 . S
C181 C180 1.297 . S
C181 C182 1.479 . S
C181 H195 0.950 . S
C182 C181 1.479 . S
C182 C183 1.375 . S
C182 C188 1.404 . S
C183 C182 1.375 . S
C183 C184 1.369 . S
C183 H196 0.950 . S
C184 C183 1.369 . S
C184 C185 1.392 . S
C184 H197 0.951 . S
C185 C184 1.392 . S
C185 C187 1.384 . S
H186 C188 0.949 . S
C187 C185 1.384 . S
C187 C188 1.385 . S
C187 H189 0.950 . S
C188 C182 1.404 . S
C188 H186 0.949 . S
C188 C187 1.385 . S
H189 C187 0.950 . S
H190 C174 0.951 . S
H191 C176 0.951 . S
H192 C178 0.951 . S
H193 C179 0.950 . S
H194 C180 0.950 . S
H195 C181 0.950 . S
H196 C183 0.950 . S
H197 C184 0.951 . S
C198 C199 1.386 . S
C198 C200 1.383 . S
C198 H214 0.951 . S
C199 C198 1.386 . S
C199 C203 1.383 . S
C200 C198 1.383 . S
C200 C201 1.402 . S
C200 H215 0.951 . S
C201 C200 1.402 . S
C201 C202 1.375 . S
C201 C204 1.481 . S
C202 C201 1.375 . S
C202 C203 1.367 . S
C202 H216 0.951 . S
C203 C199 1.383 . S
C203 C202 1.367 . S
C203 H217 0.950 . S
C204 C201 1.481 . S
C204 C205 1.297 . S
C204 H218 0.950 . S
C205 C204 1.297 . S
C205 C206 1.479 . S
C205 H219 0.950 . S
C206 C205 1.479 . S
C206 C207 1.375 . S
C206 C212 1.404 . S
C207 C206 1.375 . S
C207 C208 1.369 . S
C207 H220 0.950 . S
C208 C207 1.369 . S
C208 C209 1.392 . S
C208 H221 0.951 . S
C209 C208 1.392 . S
C209 C211 1.384 . S
H210 C212 0.949 . S
C211 C209 1.384 . S
C211 C212 1.385 . S
C211 H213 0.950 . S
C212 C206 1.404 . S
C212 H210 0.949 . S
C212 C211 1.385 . S
H213 C211 0.950 . S
H214 C198 0.951 . S
H215 C200 0.951 . S
H216 C202 0.951 . S
H217 C203 0.950 . S
H218 C204 0.950 . S
H219 C205 0.950 . S
H220 C207 0.950 . S
H221 C208 0.951 . S
C222 C223 1.386 . S
C222 C224 1.383 . S
C222 H238 0.951 . S
C223 C222 1.386 . S
C223 C227 1.383 1_545 S
C224 C222 1.383 . S
C224 C225 1.402 . S
C224 H239 0.951 . S
C225 C224 1.402 . S
C225 C226 1.375 1_545 S
C225 C228 1.481 . S
C226 C225 1.375 1_565 S
C226 C227 1.367 . S
C226 H240 0.951 . S
C227 C223 1.383 1_565 S
C227 C226 1.367 . S
C227 H241 0.950 . S
C228 C225 1.481 . S
C228 C229 1.297 . S
C228 H242 0.950 1_545 S
C229 C228 1.297 . S
C229 C230 1.479 1_455 S
C229 H243 0.950 . S
C230 C229 1.479 1_655 S
C230 C231 1.375 . S
C230 C236 1.404 . S
C231 C230 1.375 . S
C231 C232 1.369 . S
C231 H244 0.950 1_655 S
C232 C231 1.369 . S
C232 C233 1.392 . S
C232 H245 0.951 . S
C233 C232 1.392 . S
C233 C235 1.384 . S
H234 C236 0.949 1_565 S
C235 C233 1.384 . S
C235 C236 1.385 . S
C235 H237 0.950 1_545 S
C236 C230 1.404 . S
C236 H234 0.949 1_545 S
C236 C235 1.385 . S
H237 C235 0.950 1_565 S
H238 C222 0.951 . S
H239 C224 0.951 . S
H240 C226 0.951 . S
H241 C227 0.950 . S
H242 C228 0.950 1_565 S
H243 C229 0.950 . S
H244 C231 0.950 1_455 S
H245 C232 0.951 . S
C246 C247 1.386 . S
C246 C248 1.383 . S
C246 H262 0.951 . S
C247 C246 1.386 . S
C247 C251 1.383 . S
C248 C246 1.383 . S
C248 C249 1.402 . S
C248 H263 0.951 1_565 S
C249 C248 1.402 . S
C249 C250 1.375 . S
C249 C252 1.481 1_665 S
C250 C249 1.375 . S
C250 C251 1.367 . S
C250 H264 0.951 . S
C251 C247 1.383 . S
C251 C250 1.367 . S
C251 H265 0.950 . S
C252 C249 1.481 1_445 S
C252 C253 1.297 . S
C252 H266 0.950 . S
C253 C252 1.297 . S
C253 C254 1.479 . S
C253 H267 0.950 . S
C254 C253 1.479 . S
C254 C255 1.375 . S
C254 C260 1.404 . S
C255 C254 1.375 . S
C255 C256 1.369 . S
C255 H268 0.950 . S
C256 C255 1.369 . S
C256 C257 1.392 . S
C256 H269 0.951 . S
C257 C256 1.392 . S
C257 C259 1.384 . S
H258 C260 0.949 . S
C259 C257 1.384 . S
C259 C260 1.385 . S
C259 H261 0.950 . S
C260 C254 1.404 . S
C260 H258 0.949 . S
C260 C259 1.385 . S
H261 C259 0.950 . S
H262 C246 0.951 . S
H263 C248 0.951 1_545 S
H264 C250 0.951 . S
H265 C251 0.950 . S
H266 C252 0.950 . S
H267 C253 0.950 . S
H268 C255 0.950 . S
H269 C256 0.951 . S
C270 C271 1.386 . S
C270 C272 1.383 . S
C270 H286 0.951 . S
C271 C270 1.386 . S
C271 C275 1.383 . S
C272 C270 1.383 . S
C272 C273 1.402 . S
C272 H287 0.951 . S
C273 C272 1.402 . S
C273 C274 1.375 . S
C273 C276 1.481 . S
C274 C273 1.375 . S
C274 C275 1.367 . S
C274 H288 0.951 . S
C275 C271 1.383 . S
C275 C274 1.367 . S
C275 H289 0.950 . S
C276 C273 1.481 . S
C276 C277 1.297 . S
C276 H290 0.950 . S
C277 C276 1.297 . S
C277 C278 1.479 1_545 S
C277 H291 0.950 . S
C278 C277 1.479 1_565 S
C278 C279 1.375 . S
C278 C284 1.404 . S
C279 C278 1.375 . S
C279 C280 1.369 . S
C279 H292 0.950 . S
C280 C279 1.369 . S
C280 C281 1.392 . S
C280 H293 0.951 . S
C281 C280 1.392 . S
C281 C283 1.384 . S
H282 C284 0.949 1_655 S
C283 C281 1.384 . S
C283 C284 1.384 . S
C283 H285 0.950 . S
C284 C278 1.404 . S
C284 H282 0.949 1_455 S
C284 C283 1.384 . S
H285 C283 0.950 . S
H286 C270 0.951 . S
H287 C272 0.951 . S
H288 C274 0.951 . S
H289 C275 0.950 . S
H290 C276 0.950 . S
H291 C277 0.950 . S
H292 C279 0.950 . S
H293 C280 0.951 . S
C294 C295 1.386 . S
C294 C296 1.383 . S
C294 H310 0.951 . S
C295 C294 1.386 . S
C295 C299 1.383 . S
C296 C294 1.383 . S
C296 C297 1.402 . S
C296 H311 0.951 . S
C297 C296 1.402 . S
C297 C298 1.375 . S
C297 C300 1.481 . S
C298 C297 1.375 . S
C298 C299 1.367 . S
C298 H312 0.951 . S
C299 C295 1.383 . S
C299 C298 1.367 . S
C299 H313 0.950 . S
C300 C297 1.481 . S
C300 C301 1.297 . S
C300 H314 0.950 . S
C301 C300 1.297 . S
C301 C302 1.479 . S
C301 H315 0.950 . S
C302 C301 1.479 . S
C302 C303 1.375 . S
C302 C308 1.404 . S
C303 C302 1.375 . S
C303 C304 1.369 . S
C303 H316 0.950 . S
C304 C303 1.369 . S
C304 C305 1.392 . S
C304 H317 0.951 . S
C305 C304 1.392 . S
C305 C307 1.384 . S
H306 C308 0.949 . S
C307 C305 1.384 . S
C307 C308 1.385 . S
C307 H309 0.950 . S
C308 C302 1.404 . S
C308 H306 0.949 . S
C308 C307 1.385 . S
H309 C307 0.950 . S
H310 C294 0.951 . S
H311 C296 0.951 . S
H312 C298 0.951 . S
H313 C299 0.950 . S
H314 C300 0.950 . S
H315 C301 0.950 . S
H316 C303 0.950 . S
H317 C304 0.951 . S
C318 C319 1.386 . S
C318 C320 1.383 . S
C318 H334 0.951 . S
C319 C318 1.386 . S
C319 C323 1.383 . S
C320 C318 1.383 . S
C320 C321 1.402 . S
C320 H335 0.951 . S
C321 C320 1.402 . S
C321 C322 1.375 . S
C321 C324 1.481 . S
C322 C321 1.375 . S
C322 C323 1.367 . S
C322 H336 0.951 . S
C323 C319 1.383 . S
C323 C322 1.367 . S
C323 H337 0.950 . S
C324 C321 1.481 . S
C324 C325 1.297 . S
C324 H338 0.950 . S
C325 C324 1.297 . S
C325 C326 1.479 . S
C325 H339 0.950 . S
C326 C325 1.479 . S
C326 C327 1.375 . S
C326 C332 1.404 . S
C327 C326 1.375 . S
C327 C328 1.369 . S
C327 H340 0.950 . S
C328 C327 1.369 . S
C328 C329 1.392 . S
C328 H341 0.951 . S
C329 C328 1.392 . S
C329 C331 1.384 . S
H330 C332 0.949 . S
C331 C329 1.384 . S
C331 C332 1.385 . S
C331 H333 0.950 . S
C332 C326 1.404 . S
C332 H330 0.949 . S
C332 C331 1.385 . S
H333 C331 0.950 . S
H334 C318 0.951 . S
H335 C320 0.951 . S
H336 C322 0.951 . S
H337 C323 0.950 . S
H338 C324 0.950 . S
H339 C325 0.950 . S
H340 C327 0.950 . S
H341 C328 0.951 . S
C342 C343 1.386 1_655 S
C342 C344 1.383 . S
C342 H358 0.951 . S
C343 C342 1.386 1_455 S
C343 C347 1.383 . S
C344 C342 1.383 . S
C344 C345 1.402 1_655 S
C344 H359 0.951 . S
C345 C344 1.402 1_455 S
C345 C346 1.375 . S
C345 C348 1.481 . S
C346 C345 1.375 . S
C346 C347 1.367 . S
C346 H360 0.951 . S
C347 C343 1.383 . S
C347 C346 1.367 . S
C347 H361 0.950 . S
C348 C345 1.481 . S
C348 C349 1.297 . S
C348 H362 0.950 . S
C349 C348 1.297 . S
C349 C350 1.479 . S
C349 H363 0.950 1_455 S
C350 C349 1.479 . S
C350 C351 1.375 1_455 S
C350 C356 1.404 . S
C351 C350 1.375 1_655 S
C351 C352 1.358 1_655 S
C351 H364 0.960 . S
C352 C351 1.358 1_455 S
C352 C353 1.392 . S
C352 H365 0.951 . S
C353 C352 1.392 . S
C353 C355 1.384 . S
H354 C356 0.949 . S
C355 C353 1.384 . S
C355 C356 1.385 . S
C355 H357 0.950 . S
C356 C350 1.404 . S
C356 H354 0.949 . S
C356 C355 1.385 . S
H357 C355 0.950 . S
H358 C342 0.951 . S
H359 C344 0.951 . S
H360 C346 0.951 . S
H361 C347 0.950 . S
H362 C348 0.950 . S
H363 C349 0.950 1_655 S
H364 C351 0.960 . S
H365 C352 0.951 . S
C79 C1 1.719 . S
C89 C16 1.711 . S
C103 C14 1.714 . S
C113 C29 1.742 . S
C127 C42 1.732 . S
C137 C27 1.693 1_655 S
C151 C40 1.733 1_565 S
C161 C55 1.689 . S
C175 C68 1.706 . S
C185 C53 1.740 . S
C199 C3 1.706 . S
C209 C66 1.741 . S
C223 C10 0.919 . S
C233 C49 0.933 . S
C247 C62 0.915 . S
C257 C23 0.895 . S
C271 C36 0.929 . S
C281 C75 0.904 . S
C295 C44 1.430 . S
C305 C5 1.439 . S
C319 C57 1.444 . S
C329 C18 1.430 . S
C343 C70 1.437 . S
C353 C31 1.443 . S
